# Generated by pormake.
# Topology wna, (6)-cn, num edge types: 1
# Building blocks:
#     Node 0, Type 0, BuildingBlock: BETFAJ_clean_sbu_0, # of connection points: 6
#     Node 1, Type 0, BuildingBlock: BETFAJ_clean_sbu_0, # of connection points: 6
#     Node 2, Type 0, BuildingBlock: BETFAJ_clean_sbu_0, # of connection points: 6
#     Node 3, Type 0, BuildingBlock: BETFAJ_clean_sbu_0, # of connection points: 6
#     Node 4, Type 0, BuildingBlock: BETFAJ_clean_sbu_0, # of connection points: 6
#     Node 5, Type 0, BuildingBlock: BETFAJ_clean_sbu_0, # of connection points: 6
#     Node 6, Type 0, BuildingBlock: BETFAJ_clean_sbu_0, # of connection points: 6
#     Node 7, Type 0, BuildingBlock: BETFAJ_clean_sbu_0, # of connection points: 6
#     Node 8, Type 0, BuildingBlock: BETFAJ_clean_sbu_0, # of connection points: 6
#     Node 9, Type 0, BuildingBlock: BETFAJ_clean_sbu_0, # of connection points: 6
#     Node 10, Type 0, BuildingBlock: BETFAJ_clean_sbu_0, # of connection points: 6
#     Node 11, Type 0, BuildingBlock: BETFAJ_clean_sbu_0, # of connection points: 6
#     Node 12, Type 0, BuildingBlock: BETFAJ_clean_sbu_0, # of connection points: 6
#     Node 13, Type 0, BuildingBlock: BETFAJ_clean_sbu_0, # of connection points: 6
#     Node 14, Type 0, BuildingBlock: BETFAJ_clean_sbu_0, # of connection points: 6
#     Node 15, Type 0, BuildingBlock: BETFAJ_clean_sbu_0, # of connection points: 6
#     Node 16, Type 0, BuildingBlock: BETFAJ_clean_sbu_0, # of connection points: 6
#     Node 17, Type 0, BuildingBlock: BETFAJ_clean_sbu_0, # of connection points: 6
#     Node 18, Type 0, BuildingBlock: BETFAJ_clean_sbu_0, # of connection points: 6
#     Node 19, Type 0, BuildingBlock: BETFAJ_clean_sbu_0, # of connection points: 6
#     Node 20, Type 0, BuildingBlock: BETFAJ_clean_sbu_0, # of connection points: 6
#     Node 21, Type 0, BuildingBlock: BETFAJ_clean_sbu_0, # of connection points: 6
#     Node 22, Type 0, BuildingBlock: BETFAJ_clean_sbu_0, # of connection points: 6
#     Node 23, Type 0, BuildingBlock: BETFAJ_clean_sbu_0, # of connection points: 6
#     Node 24, Type 0, BuildingBlock: BETFAJ_clean_sbu_0, # of connection points: 6
#     Node 25, Type 0, BuildingBlock: BETFAJ_clean_sbu_0, # of connection points: 6
#     Node 26, Type 0, BuildingBlock: BETFAJ_clean_sbu_0, # of connection points: 6
#     Node 27, Type 0, BuildingBlock: BETFAJ_clean_sbu_0, # of connection points: 6
#     Node 28, Type 0, BuildingBlock: BETFAJ_clean_sbu_0, # of connection points: 6
#     Node 29, Type 0, BuildingBlock: BETFAJ_clean_sbu_0, # of connection points: 6
#     Node 30, Type 0, BuildingBlock: BETFAJ_clean_sbu_0, # of connection points: 6
#     Node 31, Type 0, BuildingBlock: BETFAJ_clean_sbu_0, # of connection points: 6
#     Node 32, Type 0, BuildingBlock: BETFAJ_clean_sbu_0, # of connection points: 6
#     Node 33, Type 0, BuildingBlock: BETFAJ_clean_sbu_0, # of connection points: 6
#     Node 34, Type 0, BuildingBlock: BETFAJ_clean_sbu_0, # of connection points: 6
#     Node 35, Type 0, BuildingBlock: BETFAJ_clean_sbu_0, # of connection points: 6
#     Edge 36, Type (0, 0), BuildingBlock: UVAHIK_clean_linker_0, # of connection points: 2
#     Edge 37, Type (0, 0), BuildingBlock: UVAHIK_clean_linker_0, # of connection points: 2
#     Edge 38, Type (0, 0), BuildingBlock: UVAHIK_clean_linker_0, # of connection points: 2
#     Edge 39, Type (0, 0), BuildingBlock: UVAHIK_clean_linker_0, # of connection points: 2
#     Edge 40, Type (0, 0), BuildingBlock: UVAHIK_clean_linker_0, # of connection points: 2
#     Edge 41, Type (0, 0), BuildingBlock: UVAHIK_clean_linker_0, # of connection points: 2
#     Edge 42, Type (0, 0), BuildingBlock: UVAHIK_clean_linker_0, # of connection points: 2
#     Edge 43, Type (0, 0), BuildingBlock: UVAHIK_clean_linker_0, # of connection points: 2
#     Edge 44, Type (0, 0), BuildingBlock: UVAHIK_clean_linker_0, # of connection points: 2
#     Edge 45, Type (0, 0), BuildingBlock: UVAHIK_clean_linker_0, # of connection points: 2
#     Edge 46, Type (0, 0), BuildingBlock: UVAHIK_clean_linker_0, # of connection points: 2
#     Edge 47, Type (0, 0), BuildingBlock: UVAHIK_clean_linker_0, # of connection points: 2
#     Edge 48, Type (0, 0), BuildingBlock: UVAHIK_clean_linker_0, # of connection points: 2
#     Edge 49, Type (0, 0), BuildingBlock: UVAHIK_clean_linker_0, # of connection points: 2
#     Edge 50, Type (0, 0), BuildingBlock: UVAHIK_clean_linker_0, # of connection points: 2
#     Edge 51, Type (0, 0), BuildingBlock: UVAHIK_clean_linker_0, # of connection points: 2
#     Edge 52, Type (0, 0), BuildingBlock: UVAHIK_clean_linker_0, # of connection points: 2
#     Edge 53, Type (0, 0), BuildingBlock: UVAHIK_clean_linker_0, # of connection points: 2
#     Edge 54, Type (0, 0), BuildingBlock: UVAHIK_clean_linker_0, # of connection points: 2
#     Edge 55, Type (0, 0), BuildingBlock: UVAHIK_clean_linker_0, # of connection points: 2
#     Edge 56, Type (0, 0), BuildingBlock: UVAHIK_clean_linker_0, # of connection points: 2
#     Edge 57, Type (0, 0), BuildingBlock: UVAHIK_clean_linker_0, # of connection points: 2
#     Edge 58, Type (0, 0), BuildingBlock: UVAHIK_clean_linker_0, # of connection points: 2
#     Edge 59, Type (0, 0), BuildingBlock: UVAHIK_clean_linker_0, # of connection points: 2
#     Edge 60, Type (0, 0), BuildingBlock: UVAHIK_clean_linker_0, # of connection points: 2
#     Edge 61, Type (0, 0), BuildingBlock: UVAHIK_clean_linker_0, # of connection points: 2
#     Edge 62, Type (0, 0), BuildingBlock: UVAHIK_clean_linker_0, # of connection points: 2
#     Edge 63, Type (0, 0), BuildingBlock: UVAHIK_clean_linker_0, # of connection points: 2
#     Edge 64, Type (0, 0), BuildingBlock: UVAHIK_clean_linker_0, # of connection points: 2
#     Edge 65, Type (0, 0), BuildingBlock: UVAHIK_clean_linker_0, # of connection points: 2
#     Edge 66, Type (0, 0), BuildingBlock: UVAHIK_clean_linker_0, # of connection points: 2
#     Edge 67, Type (0, 0), BuildingBlock: UVAHIK_clean_linker_0, # of connection points: 2
#     Edge 68, Type (0, 0), BuildingBlock: UVAHIK_clean_linker_0, # of connection points: 2
#     Edge 69, Type (0, 0), BuildingBlock: UVAHIK_clean_linker_0, # of connection points: 2
#     Edge 70, Type (0, 0), BuildingBlock: UVAHIK_clean_linker_0, # of connection points: 2
#     Edge 71, Type (0, 0), BuildingBlock: UVAHIK_clean_linker_0, # of connection points: 2
#     Edge 72, Type (0, 0), BuildingBlock: UVAHIK_clean_linker_0, # of connection points: 2
#     Edge 73, Type (0, 0), BuildingBlock: UVAHIK_clean_linker_0, # of connection points: 2
#     Edge 74, Type (0, 0), BuildingBlock: UVAHIK_clean_linker_0, # of connection points: 2
#     Edge 75, Type (0, 0), BuildingBlock: UVAHIK_clean_linker_0, # of connection points: 2
#     Edge 76, Type (0, 0), BuildingBlock: UVAHIK_clean_linker_0, # of connection points: 2
#     Edge 77, Type (0, 0), BuildingBlock: UVAHIK_clean_linker_0, # of connection points: 2
#     Edge 78, Type (0, 0), BuildingBlock: UVAHIK_clean_linker_0, # of connection points: 2
#     Edge 79, Type (0, 0), BuildingBlock: UVAHIK_clean_linker_0, # of connection points: 2
#     Edge 80, Type (0, 0), BuildingBlock: UVAHIK_clean_linker_0, # of connection points: 2
#     Edge 81, Type (0, 0), BuildingBlock: UVAHIK_clean_linker_0, # of connection points: 2
#     Edge 82, Type (0, 0), BuildingBlock: UVAHIK_clean_linker_0, # of connection points: 2
#     Edge 83, Type (0, 0), BuildingBlock: UVAHIK_clean_linker_0, # of connection points: 2
#     Edge 84, Type (0, 0), BuildingBlock: UVAHIK_clean_linker_0, # of connection points: 2
#     Edge 85, Type (0, 0), BuildingBlock: UVAHIK_clean_linker_0, # of connection points: 2
#     Edge 86, Type (0, 0), BuildingBlock: UVAHIK_clean_linker_0, # of connection points: 2
#     Edge 87, Type (0, 0), BuildingBlock: UVAHIK_clean_linker_0, # of connection points: 2
#     Edge 88, Type (0, 0), BuildingBlock: UVAHIK_clean_linker_0, # of connection points: 2
#     Edge 89, Type (0, 0), BuildingBlock: UVAHIK_clean_linker_0, # of connection points: 2
#     Edge 90, Type (0, 0), BuildingBlock: UVAHIK_clean_linker_0, # of connection points: 2
#     Edge 91, Type (0, 0), BuildingBlock: UVAHIK_clean_linker_0, # of connection points: 2
#     Edge 92, Type (0, 0), BuildingBlock: UVAHIK_clean_linker_0, # of connection points: 2
#     Edge 93, Type (0, 0), BuildingBlock: UVAHIK_clean_linker_0, # of connection points: 2
#     Edge 94, Type (0, 0), BuildingBlock: UVAHIK_clean_linker_0, # of connection points: 2
#     Edge 95, Type (0, 0), BuildingBlock: UVAHIK_clean_linker_0, # of connection points: 2
#     Edge 96, Type (0, 0), BuildingBlock: UVAHIK_clean_linker_0, # of connection points: 2
#     Edge 97, Type (0, 0), BuildingBlock: UVAHIK_clean_linker_0, # of connection points: 2
#     Edge 98, Type (0, 0), BuildingBlock: UVAHIK_clean_linker_0, # of connection points: 2
#     Edge 99, Type (0, 0), BuildingBlock: UVAHIK_clean_linker_0, # of connection points: 2
#     Edge 100, Type (0, 0), BuildingBlock: UVAHIK_clean_linker_0, # of connection points: 2
#     Edge 101, Type (0, 0), BuildingBlock: UVAHIK_clean_linker_0, # of connection points: 2
#     Edge 102, Type (0, 0), BuildingBlock: UVAHIK_clean_linker_0, # of connection points: 2
#     Edge 103, Type (0, 0), BuildingBlock: UVAHIK_clean_linker_0, # of connection points: 2
#     Edge 104, Type (0, 0), BuildingBlock: UVAHIK_clean_linker_0, # of connection points: 2
#     Edge 105, Type (0, 0), BuildingBlock: UVAHIK_clean_linker_0, # of connection points: 2
#     Edge 106, Type (0, 0), BuildingBlock: UVAHIK_clean_linker_0, # of connection points: 2
#     Edge 107, Type (0, 0), BuildingBlock: UVAHIK_clean_linker_0, # of connection points: 2
#     Edge 108, Type (0, 0), BuildingBlock: UVAHIK_clean_linker_0, # of connection points: 2
#     Edge 109, Type (0, 0), BuildingBlock: UVAHIK_clean_linker_0, # of connection points: 2
#     Edge 110, Type (0, 0), BuildingBlock: UVAHIK_clean_linker_0, # of connection points: 2
#     Edge 111, Type (0, 0), BuildingBlock: UVAHIK_clean_linker_0, # of connection points: 2
#     Edge 112, Type (0, 0), BuildingBlock: UVAHIK_clean_linker_0, # of connection points: 2
#     Edge 113, Type (0, 0), BuildingBlock: UVAHIK_clean_linker_0, # of connection points: 2
#     Edge 114, Type (0, 0), BuildingBlock: UVAHIK_clean_linker_0, # of connection points: 2
#     Edge 115, Type (0, 0), BuildingBlock: UVAHIK_clean_linker_0, # of connection points: 2
#     Edge 116, Type (0, 0), BuildingBlock: UVAHIK_clean_linker_0, # of connection points: 2
#     Edge 117, Type (0, 0), BuildingBlock: UVAHIK_clean_linker_0, # of connection points: 2
#     Edge 118, Type (0, 0), BuildingBlock: UVAHIK_clean_linker_0, # of connection points: 2
#     Edge 119, Type (0, 0), BuildingBlock: UVAHIK_clean_linker_0, # of connection points: 2
#     Edge 120, Type (0, 0), BuildingBlock: UVAHIK_clean_linker_0, # of connection points: 2
#     Edge 121, Type (0, 0), BuildingBlock: UVAHIK_clean_linker_0, # of connection points: 2
#     Edge 122, Type (0, 0), BuildingBlock: UVAHIK_clean_linker_0, # of connection points: 2
#     Edge 123, Type (0, 0), BuildingBlock: UVAHIK_clean_linker_0, # of connection points: 2
#     Edge 124, Type (0, 0), BuildingBlock: UVAHIK_clean_linker_0, # of connection points: 2
#     Edge 125, Type (0, 0), BuildingBlock: UVAHIK_clean_linker_0, # of connection points: 2
#     Edge 126, Type (0, 0), BuildingBlock: UVAHIK_clean_linker_0, # of connection points: 2
#     Edge 127, Type (0, 0), BuildingBlock: UVAHIK_clean_linker_0, # of connection points: 2
#     Edge 128, Type (0, 0), BuildingBlock: UVAHIK_clean_linker_0, # of connection points: 2
#     Edge 129, Type (0, 0), BuildingBlock: UVAHIK_clean_linker_0, # of connection points: 2
#     Edge 130, Type (0, 0), BuildingBlock: UVAHIK_clean_linker_0, # of connection points: 2
#     Edge 131, Type (0, 0), BuildingBlock: UVAHIK_clean_linker_0, # of connection points: 2
#     Edge 132, Type (0, 0), BuildingBlock: UVAHIK_clean_linker_0, # of connection points: 2
#     Edge 133, Type (0, 0), BuildingBlock: UVAHIK_clean_linker_0, # of connection points: 2
#     Edge 134, Type (0, 0), BuildingBlock: UVAHIK_clean_linker_0, # of connection points: 2
#     Edge 135, Type (0, 0), BuildingBlock: UVAHIK_clean_linker_0, # of connection points: 2
#     Edge 136, Type (0, 0), BuildingBlock: UVAHIK_clean_linker_0, # of connection points: 2
#     Edge 137, Type (0, 0), BuildingBlock: UVAHIK_clean_linker_0, # of connection points: 2
#     Edge 138, Type (0, 0), BuildingBlock: UVAHIK_clean_linker_0, # of connection points: 2
#     Edge 139, Type (0, 0), BuildingBlock: UVAHIK_clean_linker_0, # of connection points: 2
#     Edge 140, Type (0, 0), BuildingBlock: UVAHIK_clean_linker_0, # of connection points: 2
#     Edge 141, Type (0, 0), BuildingBlock: UVAHIK_clean_linker_0, # of connection points: 2
#     Edge 142, Type (0, 0), BuildingBlock: UVAHIK_clean_linker_0, # of connection points: 2
#     Edge 143, Type (0, 0), BuildingBlock: UVAHIK_clean_linker_0, # of connection points: 2
# Relax obj value: 0.165
# Max RMSD: 0.223
# Mean RMSD: 0.208
data_MOF--net-wna--node1-BETFAJ_clean_sbu_0--edge1-UVAHIK_clean_linker_0
_symmetry_space_group_name_H-M    P1
_symmetry_Int_Tables_number       1
_symmetry_cell_setting            triclinic
loop_
_symmetry_equiv_pos_as_xyz
'x, y, z'
_cell_length_a     53.110653
_cell_length_b     53.111504
_cell_length_c     176.59052
_cell_angle_alpha  89.989554
_cell_angle_beta   90.004036
_cell_angle_gamma 119.9895
loop_
_atom_site_label
_atom_site_type_symbol
_atom_site_fract_x
_atom_site_fract_y
_atom_site_fract_z
_atom_type_partial_charge
Sm0 Sm 0.10381 0.24908 0.16957 0.0
Sm1 Sm 0.10895 0.2413 0.18636 0.0
C2 C 0.10189 0.26891 0.15587 0.0
C3 C 0.11595 0.27967 0.14836 0.0
C4 C 0.12768 0.30911 0.14643 0.0
C5 C 0.1366 0.31866 0.139 0.0
C6 C 0.13378 0.29896 0.13327 0.0
C7 C 0.12305 0.26968 0.13528 0.0
C8 C 0.11421 0.26016 0.14271 0.0
C9 C 0.1147 0.20458 0.17264 0.0
C10 C 0.16881 0.28313 0.17754 0.0
C11 C 0.10789 0.22443 0.2006 0.0
C12 C 0.09134 0.2183 0.20778 0.0
C13 C 0.08298 0.19214 0.21161 0.0
C14 C 0.06926 0.18662 0.21868 0.0
C15 C 0.06367 0.20724 0.22212 0.0
C16 C 0.07163 0.23329 0.21821 0.0
C17 C 0.08526 0.23874 0.21111 0.0
C18 C 0.09546 0.28401 0.18274 0.0
C19 C 0.0464 0.19979 0.17799 0.0
O20 O 0.11227 0.28581 0.16181 0.0
O21 O 0.09153 0.24143 0.15746 0.0
O22 O 0.12595 0.22844 0.17618 0.0
O23 O 0.09973 0.20503 0.1669 0.0
O24 O 0.15224 0.28359 0.172 0.0
O25 O 0.15728 0.26485 0.18326 0.0
O26 O 0.09571 0.20618 0.195 0.0
O27 O 0.12274 0.25148 0.19836 0.0
O28 O 0.08488 0.25941 0.17968 0.0
O29 O 0.11278 0.28626 0.18818 0.0
O30 O 0.06374 0.2025 0.18366 0.0
O31 O 0.05551 0.21841 0.1723 0.0
H32 H 0.12903 0.32465 0.15062 0.0
H33 H 0.14519 0.34145 0.13771 0.0
H34 H 0.12017 0.25374 0.13104 0.0
H35 H 0.10494 0.23724 0.14395 0.0
H36 H 0.08761 0.17612 0.2092 0.0
H37 H 0.0638 0.1665 0.22155 0.0
H38 H 0.06733 0.24949 0.22063 0.0
H39 H 0.09136 0.25911 0.20829 0.0
Sm40 Sm 0.75947 0.85635 0.16969 0.0
Sm41 Sm 0.76726 0.86926 0.18654 0.0
C42 C 0.73979 0.83459 0.15598 0.0
C43 C 0.72898 0.83792 0.14848 0.0
C44 C 0.69964 0.81986 0.14651 0.0
C45 C 0.6901 0.8194 0.13908 0.0
C46 C 0.70973 0.83682 0.1334 0.0
C47 C 0.7389 0.85565 0.13545 0.0
C48 C 0.74839 0.85616 0.14288 0.0
C49 C 0.80325 0.91191 0.17285 0.0
C50 C 0.72477 0.88664 0.17773 0.0
C51 C 0.7844 0.88546 0.20074 0.0
C52 C 0.79162 0.87563 0.20785 0.0
C53 C 0.81671 0.89505 0.21187 0.0
C54 C 0.82314 0.88719 0.21886 0.0
C55 C 0.80454 0.85968 0.22204 0.0
C56 C 0.77961 0.84004 0.21794 0.0
C57 C 0.77324 0.84789 0.21092 0.0
C58 C 0.72503 0.81294 0.1829 0.0
C59 C 0.80958 0.84935 0.17805 0.0
O60 O 0.72285 0.82786 0.16192 0.0
O61 O 0.76724 0.85187 0.15758 0.0
O62 O 0.77936 0.89879 0.17635 0.0
O63 O 0.80323 0.89696 0.16704 0.0
O64 O 0.7246 0.86982 0.17215 0.0
O65 O 0.74299 0.89343 0.18346 0.0
O66 O 0.80252 0.89232 0.19507 0.0
O67 O 0.75719 0.87209 0.1986 0.0
O68 O 0.74957 0.82719 0.17982 0.0
O69 O 0.72265 0.82781 0.18838 0.0
O70 O 0.80653 0.86363 0.18376 0.0
O71 O 0.79084 0.83953 0.17239 0.0
H72 H 0.68418 0.80531 0.15066 0.0
H73 H 0.66739 0.80496 0.13776 0.0
H74 H 0.75479 0.86912 0.13124 0.0
H75 H 0.77125 0.87009 0.14415 0.0
H76 H 0.83111 0.91662 0.20965 0.0
H77 H 0.84232 0.90302 0.22188 0.0
H78 H 0.765 0.81856 0.22017 0.0
H79 H 0.75377 0.83239 0.20794 0.0
Sm80 Sm 0.15457 0.90548 0.16924 0.0
Sm81 Sm 0.1374 0.90013 0.18708 0.0
C82 C 0.17958 0.90782 0.15602 0.0
C83 C 0.17586 0.89465 0.14839 0.0
C84 C 0.19262 0.88204 0.1463 0.0
C85 C 0.19262 0.87328 0.13881 0.0
C86 C 0.176 0.87712 0.13319 0.0
C87 C 0.15842 0.88881 0.13536 0.0
C88 C 0.15837 0.89749 0.14285 0.0
C89 C 0.0997 0.89614 0.17217 0.0
C90 C 0.12241 0.84041 0.17754 0.0
C91 C 0.11305 0.89636 0.20042 0.0
C92 C 0.12165 0.91021 0.20796 0.0
C93 C 0.10149 0.91355 0.21234 0.0
C94 C 0.10892 0.92596 0.21957 0.0
C95 C 0.13674 0.93528 0.22261 0.0
C96 C 0.15704 0.9322 0.21815 0.0
C97 C 0.1496 0.91986 0.2109 0.0
C98 C 0.19682 0.92109 0.18507 0.0
C99 C 0.16167 0.96208 0.17816 0.0
O100 O 0.18158 0.89386 0.16191 0.0
O101 O 0.16575 0.92188 0.15749 0.0
O102 O 0.11251 0.8857 0.17597 0.0
O103 O 0.11443 0.90884 0.16609 0.0
O104 O 0.13601 0.85622 0.17148 0.0
O105 O 0.11895 0.85198 0.18384 0.0
O106 O 0.11243 0.91249 0.19488 0.0
O107 O 0.12369 0.87976 0.19839 0.0
O108 O 0.17742 0.91427 0.1802 0.0
O109 O 0.18458 0.91629 0.19167 0.0
O110 O 0.14396 0.94449 0.18344 0.0
O111 O 0.17341 0.95323 0.17292 0.0
H112 H 0.20649 0.87977 0.15041 0.0
H113 H 0.20605 0.86392 0.13741 0.0
H114 H 0.14558 0.89244 0.1312 0.0
H115 H 0.14535 0.90734 0.14423 0.0
H116 H 0.07988 0.90643 0.21016 0.0
H117 H 0.09287 0.92844 0.22275 0.0
H118 H 0.17855 0.93882 0.22031 0.0
H119 H 0.16561 0.91762 0.20763 0.0
Sm120 Sm 0.25042 0.10229 0.3503 0.0
Sm121 Sm 0.2413 0.10692 0.33353 0.0
C122 C 0.27119 0.10077 0.3639 0.0
C123 C 0.28064 0.11459 0.37147 0.0
C124 C 0.30919 0.12427 0.37395 0.0
C125 C 0.31724 0.13296 0.38148 0.0
C126 C 0.2968 0.13189 0.38674 0.0
C127 C 0.26855 0.1233 0.38417 0.0
C128 C 0.26056 0.11478 0.37664 0.0
C129 C 0.20589 0.11328 0.34751 0.0
C130 C 0.28385 0.16706 0.34214 0.0
C131 C 0.22324 0.10534 0.3194 0.0
C132 C 0.21658 0.08841 0.31227 0.0
C133 C 0.19003 0.07968 0.3086 0.0
C134 C 0.1839 0.06542 0.3016 0.0
C135 C 0.20426 0.05966 0.29808 0.0
C136 C 0.2307 0.06803 0.30183 0.0
C137 C 0.23677 0.08219 0.30885 0.0
C138 C 0.2841 0.0933 0.33693 0.0
C139 C 0.20012 0.04483 0.34211 0.0
O140 O 0.28798 0.11296 0.35801 0.0
O141 O 0.24352 0.08828 0.36227 0.0
O142 O 0.22938 0.12423 0.34382 0.0
O143 O 0.20691 0.09884 0.35331 0.0
O144 O 0.28475 0.15068 0.34768 0.0
O145 O 0.26512 0.15533 0.33652 0.0
O146 O 0.20547 0.09334 0.3251 0.0
O147 O 0.25047 0.12036 0.32148 0.0
O148 O 0.25978 0.08301 0.34012 0.0
O149 O 0.28597 0.1103 0.33144 0.0
O150 O 0.20239 0.0621 0.33647 0.0
O151 O 0.21945 0.05394 0.34764 0.0
H152 H 0.32502 0.12401 0.37013 0.0
H153 H 0.33911 0.13923 0.38326 0.0
H154 H 0.25239 0.12263 0.38804 0.0
H155 H 0.23834 0.1074 0.37496 0.0
H156 H 0.17419 0.0844 0.31109 0.0
H157 H 0.16348 0.05964 0.29885 0.0
H158 H 0.24672 0.06361 0.29933 0.0
H159 H 0.25742 0.08856 0.31156 0.0
Sm160 Sm 0.9041 0.15005 0.35075 0.0
Sm161 Sm 0.89953 0.13669 0.33398 0.0
C162 C 0.90579 0.17234 0.36435 0.0
C163 C 0.89144 0.16946 0.37176 0.0
C164 C 0.88983 0.19325 0.37464 0.0
C165 C 0.88059 0.19302 0.38208 0.0
C166 C 0.87283 0.16899 0.38685 0.0
C167 C 0.87341 0.1447 0.38386 0.0
C168 C 0.8826 0.14492 0.3764 0.0
C169 C 0.89323 0.09456 0.34784 0.0
C170 C 0.83941 0.11918 0.34261 0.0
C171 C 0.90075 0.12016 0.31983 0.0
C172 C 0.91713 0.12994 0.31262 0.0
C173 C 0.92252 0.11052 0.30851 0.0
C174 C 0.93573 0.11811 0.30138 0.0
C175 C 0.94381 0.14536 0.29814 0.0
C176 C 0.9391 0.16514 0.30237 0.0
C177 C 0.92589 0.15752 0.30953 0.0
C178 C 0.91338 0.19317 0.33743 0.0
C179 C 0.96169 0.1577 0.34254 0.0
O180 O 0.89589 0.179 0.35833 0.0
O181 O 0.91562 0.15466 0.3629 0.0
O182 O 0.88211 0.10713 0.34421 0.0
O183 O 0.90802 0.11009 0.35359 0.0
O184 O 0.85585 0.13634 0.34816 0.0
O185 O 0.85107 0.1122 0.33698 0.0
O186 O 0.913 0.1145 0.32549 0.0
O187 O 0.88602 0.13263 0.32195 0.0
O188 O 0.92358 0.17901 0.3406 0.0
O189 O 0.8963 0.17809 0.33195 0.0
O190 O 0.94447 0.14276 0.33689 0.0
O191 O 0.95245 0.16762 0.34811 0.0
H192 H 0.89685 0.21257 0.37122 0.0
H193 H 0.88075 0.21224 0.38419 0.0
H194 H 0.86716 0.12563 0.38732 0.0
H195 H 0.88361 0.12622 0.37435 0.0
H196 H 0.916 0.08915 0.31078 0.0
H197 H 0.9395 0.10251 0.29838 0.0
H198 H 0.94481 0.18622 0.30005 0.0
H199 H 0.92201 0.17297 0.31257 0.0
Sm200 Sm 0.85573 0.75588 0.351 0.0
Sm201 Sm 0.8726 0.76769 0.33314 0.0
C202 C 0.83042 0.73281 0.36415 0.0
C203 C 0.83348 0.72229 0.37168 0.0
C204 C 0.80914 0.69858 0.37496 0.0
C205 C 0.81004 0.69039 0.38245 0.0
C206 C 0.83537 0.70578 0.38685 0.0
C207 C 0.86012 0.72896 0.38344 0.0
C208 C 0.85919 0.73713 0.37594 0.0
C209 C 0.9104 0.80154 0.34802 0.0
C210 C 0.88832 0.72338 0.34266 0.0
C211 C 0.89653 0.78828 0.31975 0.0
C212 C 0.88771 0.79343 0.31221 0.0
C213 C 0.90651 0.81872 0.30818 0.0
C214 C 0.89898 0.82372 0.30096 0.0
C215 C 0.87245 0.80345 0.29758 0.0
C216 C 0.85347 0.77825 0.30169 0.0
C217 C 0.86098 0.77333 0.30893 0.0
C218 C 0.81325 0.72916 0.33521 0.0
C219 C 0.84874 0.80565 0.34216 0.0
O220 O 0.82764 0.71703 0.35817 0.0
O221 O 0.8457 0.7608 0.36288 0.0
O222 O 0.89767 0.77826 0.34422 0.0
O223 O 0.89567 0.79951 0.3541 0.0
O224 O 0.8753 0.72604 0.34879 0.0
O225 O 0.89098 0.73779 0.33629 0.0
O226 O 0.89721 0.80502 0.32531 0.0
O227 O 0.88623 0.76111 0.3218 0.0
O228 O 0.83274 0.74183 0.34006 0.0
O229 O 0.82535 0.73661 0.32859 0.0
O230 O 0.86612 0.80555 0.33681 0.0
O231 O 0.83718 0.78517 0.34743 0.0
H232 H 0.78899 0.68698 0.37182 0.0
H233 H 0.79044 0.6727 0.38488 0.0
H234 H 0.88014 0.74104 0.3866 0.0
H235 H 0.87832 0.75551 0.37353 0.0
H236 H 0.92715 0.83461 0.31062 0.0
H237 H 0.91394 0.84362 0.29806 0.0
H238 H 0.83301 0.76199 0.29926 0.0
H239 H 0.84597 0.75367 0.31192 0.0
Sm240 Sm 0.90084 0.76362 0.83298 0.0
Sm241 Sm 0.90709 0.75792 0.84975 0.0
C242 C 0.90123 0.77931 0.81866 0.0
C243 C 0.91768 0.78518 0.81147 0.0
C244 C 0.92726 0.81182 0.80776 0.0
C245 C 0.94091 0.81718 0.80069 0.0
C246 C 0.94518 0.79591 0.79712 0.0
C247 C 0.936 0.76938 0.8009 0.0
C248 C 0.92245 0.76407 0.808 0.0
C249 C 0.91468 0.7214 0.83685 0.0
C250 C 0.96406 0.80596 0.84103 0.0
C251 C 0.9096 0.74029 0.86369 0.0
C252 C 0.8951 0.72929 0.87114 0.0
C253 C 0.8828 0.69971 0.873 0.0
C254 C 0.87333 0.69 0.8804 0.0
C255 C 0.87615 0.70965 0.88614 0.0
C256 C 0.88753 0.73907 0.8842 0.0
C257 C 0.89692 0.74876 0.8768 0.0
C258 C 0.89668 0.80235 0.84617 0.0
C259 C 0.8415 0.72284 0.8421 0.0
O260 O 0.91333 0.79801 0.82418 0.0
O261 O 0.88674 0.7524 0.82103 0.0
O262 O 0.92538 0.74626 0.83976 0.0
O263 O 0.897 0.71855 0.83144 0.0
O264 O 0.94634 0.80273 0.8354 0.0
O265 O 0.95525 0.7878 0.84681 0.0
O266 O 0.90088 0.72284 0.85782 0.0
O267 O 0.91808 0.76726 0.86191 0.0
O268 O 0.88438 0.77763 0.84306 0.0
O269 O 0.91322 0.80332 0.85169 0.0
O270 O 0.85845 0.72314 0.84765 0.0
O271 O 0.85266 0.74034 0.83623 0.0
H272 H 0.92364 0.82836 0.81027 0.0
H273 H 0.94735 0.83771 0.79791 0.0
H274 H 0.93928 0.75266 0.79837 0.0
H275 H 0.91539 0.74331 0.81071 0.0
H276 H 0.88137 0.68418 0.86881 0.0
H277 H 0.86429 0.66711 0.88165 0.0
H278 H 0.89046 0.75497 0.88846 0.0
H279 H 0.90669 0.77177 0.87562 0.0
Sm280 Sm 0.24302 0.13755 0.83319 0.0
Sm281 Sm 0.24987 0.14989 0.85005 0.0
C282 C 0.22643 0.12137 0.81896 0.0
C283 C 0.21983 0.13122 0.81176 0.0
C284 C 0.19468 0.11206 0.80773 0.0
C285 C 0.18903 0.11972 0.80061 0.0
C286 C 0.2085 0.14674 0.79732 0.0
C287 C 0.23333 0.16626 0.80147 0.0
C288 C 0.23894 0.15859 0.80862 0.0
C289 C 0.28518 0.19373 0.83691 0.0
C290 C 0.2007 0.15789 0.8415 0.0
C291 C 0.26874 0.17098 0.86385 0.0
C292 C 0.27968 0.16756 0.87131 0.0
C293 C 0.30906 0.18556 0.87325 0.0
C294 C 0.31869 0.1859 0.88067 0.0
C295 C 0.29913 0.16842 0.88635 0.0
C296 C 0.26993 0.14964 0.88432 0.0
C297 C 0.26033 0.14924 0.87691 0.0
C298 C 0.20608 0.0945 0.84664 0.0
C299 C 0.28507 0.11997 0.84214 0.0
O300 O 0.20806 0.11485 0.82456 0.0
O301 O 0.25353 0.1344 0.82119 0.0
O302 O 0.26058 0.17949 0.83997 0.0
O303 O 0.28766 0.17894 0.83143 0.0
O304 O 0.20395 0.14374 0.83579 0.0
O305 O 0.21896 0.16717 0.84726 0.0
O306 O 0.28589 0.17853 0.85793 0.0
O307 O 0.24146 0.15321 0.86218 0.0
O308 O 0.23033 0.10767 0.84331 0.0
O309 O 0.20564 0.10932 0.85242 0.0
O310 O 0.28493 0.13659 0.84771 0.0
O311 O 0.26713 0.11331 0.83634 0.0
H312 H 0.1796 0.09085 0.81004 0.0
H313 H 0.16942 0.10434 0.79766 0.0
H314 H 0.24895 0.18715 0.79911 0.0
H315 H 0.25853 0.17385 0.8116 0.0
H316 H 0.32447 0.20016 0.8691 0.0
H317 H 0.34142 0.20031 0.88197 0.0
H318 H 0.25411 0.13613 0.88854 0.0
H319 H 0.23745 0.13537 0.87567 0.0
Sm320 Sm 0.87022 0.10755 0.83313 0.0
Sm321 Sm 0.857 0.10145 0.85 0.0
C322 C 0.88666 0.10717 0.81892 0.0
C323 C 0.87673 0.09095 0.81169 0.0
C324 C 0.89544 0.08412 0.80773 0.0
C325 C 0.88775 0.07092 0.80059 0.0
C326 C 0.86114 0.06432 0.7972 0.0
C327 C 0.84206 0.07052 0.80128 0.0
C328 C 0.84976 0.08369 0.80843 0.0
C329 C 0.81366 0.09265 0.83674 0.0
C330 C 0.85037 0.04503 0.84139 0.0
C331 C 0.83488 0.09853 0.8637 0.0
C332 C 0.83744 0.11258 0.87114 0.0
C333 C 0.81297 0.11242 0.8742 0.0
C334 C 0.81319 0.12151 0.88166 0.0
C335 C 0.83792 0.13089 0.88627 0.0
C336 C 0.86282 0.13205 0.8831 0.0
C337 C 0.8626 0.12299 0.87562 0.0
C338 C 0.91262 0.11341 0.84676 0.0
C339 C 0.88702 0.16677 0.84214 0.0
O340 O 0.89259 0.09483 0.82452 0.0
O341 O 0.87413 0.12172 0.82116 0.0
O342 O 0.82815 0.08262 0.83981 0.0
O343 O 0.82836 0.11001 0.83127 0.0
O344 O 0.86555 0.06309 0.8359 0.0
O345 O 0.83969 0.05335 0.84699 0.0
O346 O 0.82736 0.10799 0.85774 0.0
O347 O 0.85336 0.08979 0.86214 0.0
O348 O 0.89954 0.1245 0.84339 0.0
O349 O 0.89754 0.09791 0.85249 0.0
O350 O 0.87015 0.14981 0.84767 0.0
O351 O 0.89409 0.15573 0.83637 0.0
H352 H 0.91633 0.08946 0.81011 0.0
H353 H 0.90279 0.066 0.79772 0.0
H354 H 0.8215 0.06601 0.79884 0.0
H355 H 0.83484 0.08869 0.81135 0.0
H356 H 0.79319 0.10418 0.8709 0.0
H357 H 0.79349 0.11997 0.8839 0.0
H358 H 0.88241 0.13957 0.88643 0.0
H359 H 0.88183 0.12337 0.87343 0.0
Sm360 Sm 0.76597 0.89925 0.68542 0.0
Sm361 Sm 0.75967 0.9053 0.66863 0.0
C362 C 0.78181 0.89981 0.69975 0.0
C363 C 0.78828 0.9166 0.7069 0.0
C364 C 0.81359 0.9232 0.71095 0.0
C365 C 0.81919 0.937 0.718 0.0
C366 C 0.7995 0.94442 0.72121 0.0
C367 C 0.77438 0.93826 0.71708 0.0
C368 C 0.76885 0.92456 0.70999 0.0
C369 C 0.72418 0.91368 0.68159 0.0
C370 C 0.80839 0.96212 0.67725 0.0
C371 C 0.74106 0.90778 0.65482 0.0
C372 C 0.73043 0.89352 0.64733 0.0
C373 C 0.70073 0.8801 0.6455 0.0
C374 C 0.69114 0.87073 0.63809 0.0
C375 C 0.71104 0.87476 0.63229 0.0
C376 C 0.74064 0.88728 0.6342 0.0
C377 C 0.7502 0.89657 0.6416 0.0
C378 C 0.80356 0.8939 0.67192 0.0
C379 C 0.72383 0.84002 0.67646 0.0
O380 O 0.80045 0.91118 0.69419 0.0
O381 O 0.75483 0.88604 0.69743 0.0
O382 O 0.74903 0.92423 0.6787 0.0
O383 O 0.7209 0.89551 0.6869 0.0
O384 O 0.80533 0.94445 0.68287 0.0
O385 O 0.78989 0.95336 0.67155 0.0
O386 O 0.72378 0.89791 0.66071 0.0
O387 O 0.76834 0.91749 0.65653 0.0
O388 O 0.77933 0.88233 0.67531 0.0
O389 O 0.80389 0.90962 0.66627 0.0
O390 O 0.72498 0.85681 0.67077 0.0
O391 O 0.741 0.85094 0.6824 0.0
H392 H 0.8288 0.91711 0.70871 0.0
H393 H 0.83857 0.94106 0.72105 0.0
H394 H 0.75895 0.94401 0.71932 0.0
H395 H 0.74917 0.91985 0.707 0.0
H396 H 0.68494 0.87769 0.64974 0.0
H397 H 0.66814 0.8608 0.63688 0.0
H398 H 0.75671 0.89115 0.62989 0.0
H399 H 0.7733 0.9072 0.64275 0.0
Sm400 Sm 0.10822 0.86837 0.68534 0.0
Sm401 Sm 0.10401 0.85488 0.66856 0.0
C402 C 0.10694 0.88539 0.69943 0.0
C403 C 0.09081 0.87549 0.70666 0.0
C404 C 0.08679 0.89526 0.71102 0.0
C405 C 0.07373 0.88737 0.71816 0.0
C406 C 0.06443 0.85948 0.72114 0.0
C407 C 0.06778 0.8394 0.71665 0.0
C408 C 0.08084 0.84732 0.70949 0.0
C409 C 0.09476 0.81199 0.682 0.0
C410 C 0.04614 0.84701 0.6767 0.0
C411 C 0.10253 0.83259 0.65497 0.0
C412 C 0.11686 0.83543 0.64755 0.0
C413 C 0.11773 0.81136 0.64459 0.0
C414 C 0.12689 0.81163 0.63713 0.0
C415 C 0.13531 0.83599 0.63244 0.0
C416 C 0.13548 0.86054 0.63552 0.0
C417 C 0.12636 0.86027 0.64299 0.0
C418 C 0.11433 0.91015 0.67149 0.0
C419 C 0.16862 0.88635 0.67677 0.0
O420 O 0.09409 0.89022 0.69376 0.0
O421 O 0.1222 0.87343 0.69735 0.0
O422 O 0.08461 0.82599 0.67872 0.0
O423 O 0.11147 0.82713 0.68753 0.0
O424 O 0.06324 0.862 0.68237 0.0
O425 O 0.05555 0.83719 0.67115 0.0
O426 O 0.11245 0.826 0.66099 0.0
O427 O 0.09264 0.85023 0.65639 0.0
O428 O 0.12559 0.8977 0.67509 0.0
O429 O 0.09973 0.89468 0.66571 0.0
O430 O 0.15244 0.8692 0.67118 0.0
O431 O 0.15666 0.89309 0.68238 0.0
H432 H 0.09424 0.91708 0.70895 0.0
H433 H 0.07102 0.90324 0.72137 0.0
H434 H 0.06111 0.81782 0.71877 0.0
H435 H 0.08366 0.83163 0.70623 0.0
H436 H 0.11019 0.79181 0.64795 0.0
H437 H 0.12613 0.7922 0.63496 0.0
H438 H 0.14225 0.87985 0.63213 0.0
H439 H 0.12592 0.87919 0.64511 0.0
Sm440 Sm 0.13924 0.24178 0.68562 0.0
Sm441 Sm 0.15273 0.24963 0.66889 0.0
C442 C 0.1231 0.22485 0.69984 0.0
C443 C 0.13349 0.21874 0.70702 0.0
C444 C 0.11519 0.19316 0.71101 0.0
C445 C 0.12348 0.18775 0.71808 0.0
C446 C 0.15029 0.20792 0.72134 0.0
C447 C 0.16886 0.23334 0.71726 0.0
C448 C 0.16059 0.23867 0.71017 0.0
C449 C 0.19571 0.28391 0.68214 0.0
C450 C 0.15955 0.19955 0.67724 0.0
C451 C 0.17503 0.26976 0.65526 0.0
C452 C 0.17204 0.28129 0.64787 0.0
C453 C 0.19585 0.30657 0.64495 0.0
C454 C 0.19543 0.31563 0.63752 0.0
C455 C 0.17118 0.2995 0.6328 0.0
C456 C 0.1469 0.27475 0.63584 0.0
C457 C 0.14731 0.26574 0.64328 0.0
C458 C 0.09731 0.20536 0.67188 0.0
C459 C 0.12174 0.28394 0.67678 0.0
O460 O 0.11714 0.20662 0.69424 0.0
O461 O 0.13538 0.2519 0.6976 0.0
O462 O 0.18162 0.25935 0.67907 0.0
O463 O 0.18044 0.2867 0.68742 0.0
O464 O 0.14483 0.2024 0.68287 0.0
O465 O 0.16974 0.21851 0.67163 0.0
O466 O 0.18209 0.28643 0.66126 0.0
O467 O 0.15706 0.24236 0.65674 0.0
O468 O 0.10982 0.22931 0.67538 0.0
O469 O 0.11281 0.20559 0.66619 0.0
O470 O 0.13856 0.28402 0.67123 0.0
O471 O 0.11498 0.26589 0.68255 0.0
H472 H 0.09412 0.17756 0.70873 0.0
H473 H 0.10849 0.16813 0.72109 0.0
H474 H 0.18981 0.24914 0.71955 0.0
H475 H 0.17524 0.25856 0.7072 0.0
H476 H 0.21531 0.31877 0.64832 0.0
H477 H 0.21465 0.3346 0.63537 0.0
H478 H 0.12768 0.26204 0.63242 0.0
H479 H 0.12858 0.24612 0.64536 0.0
Sm480 Sm 0.76927 0.5822 0.50298 0.0
Sm481 Sm 0.77551 0.57612 0.51981 0.0
C482 C 0.76661 0.60057 0.48915 0.0
C483 C 0.78084 0.61278 0.48175 0.0
C484 C 0.7835 0.63908 0.47923 0.0
C485 C 0.79235 0.6488 0.47181 0.0
C486 C 0.79862 0.63236 0.46669 0.0
C487 C 0.79712 0.6066 0.46932 0.0
C488 C 0.78827 0.59689 0.47675 0.0
C489 C 0.77959 0.53771 0.50649 0.0
C490 C 0.83496 0.61698 0.51066 0.0
C491 C 0.77494 0.56004 0.53411 0.0
C492 C 0.75831 0.55379 0.54128 0.0
C493 C 0.75048 0.52785 0.54517 0.0
C494 C 0.73668 0.52226 0.55223 0.0
C495 C 0.73049 0.54258 0.5556 0.0
C496 C 0.73792 0.56838 0.55163 0.0
C497 C 0.75162 0.57391 0.54454 0.0
C498 C 0.76167 0.61837 0.51597 0.0
C499 C 0.7124 0.53366 0.51164 0.0
O500 O 0.77444 0.61752 0.49511 0.0
O501 O 0.75935 0.57374 0.49075 0.0
O502 O 0.79178 0.5623 0.50968 0.0
O503 O 0.76323 0.53692 0.50093 0.0
O504 O 0.81806 0.61634 0.50505 0.0
O505 O 0.82382 0.59993 0.51662 0.0
O506 O 0.76311 0.54149 0.52855 0.0
O507 O 0.7892 0.58703 0.5318 0.0
O508 O 0.751 0.59352 0.51305 0.0
O509 O 0.77923 0.62113 0.5214 0.0
O510 O 0.73006 0.53695 0.5173 0.0
O511 O 0.72119 0.55193 0.50588 0.0
H512 H 0.77772 0.65168 0.48293 0.0
H513 H 0.79375 0.66899 0.47005 0.0
H514 H 0.80152 0.59322 0.46554 0.0
H515 H 0.78624 0.57639 0.47848 0.0
H516 H 0.75557 0.51209 0.54281 0.0
H517 H 0.73162 0.50233 0.55515 0.0
H518 H 0.73314 0.58433 0.55399 0.0
H519 H 0.7573 0.59409 0.54167 0.0
Sm520 Sm 0.42518 0.18868 0.50252 0.0
Sm521 Sm 0.43225 0.20057 0.51934 0.0
C522 C 0.40632 0.16786 0.48869 0.0
C523 C 0.39683 0.17207 0.48109 0.0
C524 C 0.3676 0.16338 0.47958 0.0
C525 C 0.35834 0.1637 0.47215 0.0
C526 C 0.37803 0.1725 0.46604 0.0
C527 C 0.40739 0.18188 0.46762 0.0
C528 C 0.41662 0.18161 0.47502 0.0
C529 C 0.46966 0.24377 0.50582 0.0
C530 C 0.39101 0.21948 0.51052 0.0
C531 C 0.44863 0.21566 0.53364 0.0
C532 C 0.45426 0.2049 0.54085 0.0
C533 C 0.48178 0.2204 0.54425 0.0
C534 C 0.48702 0.21219 0.55135 0.0
C535 C 0.46477 0.18835 0.55526 0.0
C536 C 0.43734 0.1725 0.55178 0.0
C537 C 0.43214 0.18064 0.54466 0.0
C538 C 0.38969 0.1445 0.5155 0.0
C539 C 0.47424 0.1802 0.51096 0.0
O540 O 0.38893 0.16163 0.49452 0.0
O541 O 0.43374 0.18421 0.49046 0.0
O542 O 0.44565 0.23104 0.50929 0.0
O543 O 0.46936 0.22873 0.50001 0.0
O544 O 0.39071 0.20275 0.50491 0.0
O545 O 0.40898 0.2257 0.51629 0.0
O546 O 0.46705 0.22163 0.52808 0.0
O547 O 0.42171 0.20399 0.53132 0.0
O548 O 0.41438 0.15872 0.5125 0.0
O549 O 0.38729 0.15926 0.521 0.0
O550 O 0.47131 0.19455 0.51666 0.0
O551 O 0.45573 0.17087 0.50524 0.0
H552 H 0.35169 0.1556 0.4841 0.0
H553 H 0.33563 0.15666 0.47119 0.0
H554 H 0.42316 0.18833 0.46309 0.0
H555 H 0.43918 0.18792 0.47594 0.0
H556 H 0.49914 0.23933 0.54148 0.0
H557 H 0.5083 0.22512 0.55388 0.0
H558 H 0.41981 0.15379 0.55458 0.0
H559 H 0.41066 0.16818 0.5422 0.0
Sm560 Sm 0.81856 0.23854 0.50272 0.0
Sm561 Sm 0.80521 0.23127 0.51956 0.0
C562 C 0.8409 0.24202 0.48903 0.0
C563 C 0.83811 0.22791 0.48159 0.0
C564 C 0.86257 0.22833 0.47844 0.0
C565 C 0.862 0.21899 0.47099 0.0
C566 C 0.83693 0.2091 0.46648 0.0
C567 C 0.81206 0.20772 0.46975 0.0
C568 C 0.81264 0.21702 0.47722 0.0
C569 C 0.76291 0.22628 0.50596 0.0
C570 C 0.78874 0.17259 0.51028 0.0
C571 C 0.78903 0.23154 0.53381 0.0
C572 C 0.79919 0.24859 0.54093 0.0
C573 C 0.78152 0.2577 0.54452 0.0
C574 C 0.78957 0.27206 0.55151 0.0
C575 C 0.81547 0.27753 0.55512 0.0
C576 C 0.83339 0.26878 0.55145 0.0
C577 C 0.82539 0.25454 0.54443 0.0
C578 C 0.86173 0.24621 0.51591 0.0
C579 C 0.82524 0.29444 0.51155 0.0
O580 O 0.84835 0.23236 0.49496 0.0
O581 O 0.82248 0.25081 0.49062 0.0
O582 O 0.77591 0.21498 0.50929 0.0
O583 O 0.77816 0.24229 0.50032 0.0
O584 O 0.80441 0.18982 0.50466 0.0
O585 O 0.78248 0.18305 0.51633 0.0
O586 O 0.78192 0.2428 0.52819 0.0
O587 O 0.80226 0.21769 0.53157 0.0
O588 O 0.8474 0.25665 0.51295 0.0
O589 O 0.84687 0.22845 0.5213 0.0
O590 O 0.81019 0.27609 0.51702 0.0
O591 O 0.83582 0.28641 0.50587 0.0
H592 H 0.88257 0.23692 0.48165 0.0
H593 H 0.88167 0.22071 0.46866 0.0
H594 H 0.79223 0.19981 0.46651 0.0
H595 H 0.7934 0.21642 0.47949 0.0
H596 H 0.76112 0.25321 0.54198 0.0
H597 H 0.77505 0.27815 0.55419 0.0
H598 H 0.85366 0.27297 0.55401 0.0
H599 H 0.83958 0.24788 0.54181 0.0
Sm600 Sm 0.91744 0.43367 0.68378 0.0
Sm601 Sm 0.90743 0.43988 0.6659 0.0
C602 C 0.93848 0.43114 0.69724 0.0
C603 C 0.94844 0.44473 0.70483 0.0
C604 C 0.97769 0.45628 0.70693 0.0
C605 C 0.98667 0.46518 0.7144 0.0
C606 C 0.96658 0.46255 0.71999 0.0
C607 C 0.93748 0.45194 0.71781 0.0
C608 C 0.92853 0.44312 0.71033 0.0
C609 C 0.87206 0.44271 0.68037 0.0
C610 C 0.95108 0.49922 0.67568 0.0
C611 C 0.88754 0.44389 0.65247 0.0
C612 C 0.88227 0.42978 0.64495 0.0
C613 C 0.85912 0.42682 0.64049 0.0
C614 C 0.85415 0.41416 0.63328 0.0
C615 C 0.8723 0.4042 0.63036 0.0
C616 C 0.89533 0.40692 0.63491 0.0
C617 C 0.90022 0.4195 0.64213 0.0
C618 C 0.94593 0.41917 0.66807 0.0
C619 C 0.86931 0.37724 0.67458 0.0
O620 O 0.95508 0.44356 0.69133 0.0
O621 O 0.9107 0.41878 0.6957 0.0
O622 O 0.89606 0.45394 0.6769 0.0
O623 O 0.87271 0.42866 0.68632 0.0
O624 O 0.94807 0.48318 0.68176 0.0
O625 O 0.93689 0.48785 0.66926 0.0
O626 O 0.87047 0.42812 0.65801 0.0
O627 O 0.91478 0.46011 0.65454 0.0
O628 O 0.93286 0.42551 0.67293 0.0
O629 O 0.939 0.42436 0.66145 0.0
O630 O 0.8697 0.39495 0.66925 0.0
O631 O 0.8892 0.386 0.68 0.0
H632 H 0.99351 0.45758 0.70284 0.0
H633 H 0.00934 0.47369 0.71581 0.0
H634 H 0.92126 0.44923 0.72194 0.0
H635 H 0.90574 0.43406 0.70896 0.0
H636 H 0.84489 0.43443 0.64256 0.0
H637 H 0.8359 0.412 0.63002 0.0
H638 H 0.90998 0.39983 0.63285 0.0
H639 H 0.91819 0.42143 0.64548 0.0
Sm640 Sm 0.5746 0.48468 0.68411 0.0
Sm641 Sm 0.56671 0.47077 0.66738 0.0
C642 C 0.57845 0.50748 0.69776 0.0
C643 C 0.56433 0.50485 0.7052 0.0
C644 C 0.56393 0.52911 0.7082 0.0
C645 C 0.55453 0.52878 0.71563 0.0
C646 C 0.54541 0.50417 0.72027 0.0
C647 C 0.54489 0.47948 0.71716 0.0
C648 C 0.55423 0.4798 0.70972 0.0
C649 C 0.56244 0.42904 0.68107 0.0
C650 C 0.50845 0.45473 0.67667 0.0
C651 C 0.56614 0.45438 0.65311 0.0
C652 C 0.58259 0.4641 0.6459 0.0
C653 C 0.58807 0.44469 0.64182 0.0
C654 C 0.60146 0.45233 0.6347 0.0
C655 C 0.60961 0.47959 0.63147 0.0
C656 C 0.60476 0.49933 0.63567 0.0
C657 C 0.59141 0.49168 0.64281 0.0
C658 C 0.58205 0.52742 0.67098 0.0
C659 C 0.63001 0.49051 0.67521 0.0
O660 O 0.56888 0.51492 0.69182 0.0
O661 O 0.58709 0.48892 0.6962 0.0
O662 O 0.55079 0.44164 0.67769 0.0
O663 O 0.57863 0.44466 0.68664 0.0
O664 O 0.5258 0.47063 0.68225 0.0
O665 O 0.51873 0.44802 0.67068 0.0
O666 O 0.57767 0.44729 0.65866 0.0
O667 O 0.55277 0.46801 0.65542 0.0
O668 O 0.59273 0.51315 0.67382 0.0
O669 O 0.56331 0.51226 0.6658 0.0
O670 O 0.61141 0.47539 0.66981 0.0
O671 O 0.62235 0.50147 0.68088 0.0
H672 H 0.5719 0.5488 0.70488 0.0
H673 H 0.55557 0.54831 0.71783 0.0
H674 H 0.5376 0.45999 0.72052 0.0
H675 H 0.55428 0.46072 0.70757 0.0
H676 H 0.58151 0.42332 0.64408 0.0
H677 H 0.60531 0.43675 0.63172 0.0
H678 H 0.61048 0.52041 0.63336 0.0
H679 H 0.58748 0.50714 0.64582 0.0
Sm680 Sm 0.52552 0.09127 0.68402 0.0
Sm681 Sm 0.53767 0.0977 0.66711 0.0
C682 C 0.504 0.07233 0.69778 0.0
C683 C 0.50676 0.06082 0.70519 0.0
C684 C 0.48235 0.03652 0.70828 0.0
C685 C 0.48274 0.02767 0.71573 0.0
C686 C 0.50757 0.04302 0.72031 0.0
C687 C 0.53242 0.06673 0.7171 0.0
C688 C 0.53202 0.07554 0.70963 0.0
C689 C 0.58095 0.13483 0.68058 0.0
C690 C 0.55465 0.05529 0.67613 0.0
C691 C 0.5533 0.11407 0.65284 0.0
C692 C 0.54262 0.12 0.64567 0.0
C693 C 0.55967 0.1466 0.64194 0.0
C694 C 0.5513 0.15189 0.63486 0.0
C695 C 0.52572 0.13058 0.63131 0.0
C696 C 0.50836 0.10414 0.63513 0.0
C697 C 0.51667 0.09892 0.64223 0.0
C698 C 0.48145 0.05585 0.67093 0.0
C699 C 0.51774 0.14037 0.67545 0.0
O700 O 0.49607 0.05529 0.69183 0.0
O701 O 0.52258 0.09949 0.69618 0.0
O702 O 0.56771 0.11059 0.67722 0.0
O703 O 0.56611 0.1354 0.68635 0.0
O704 O 0.53924 0.05661 0.68185 0.0
O705 O 0.56069 0.07227 0.67015 0.0
O706 O 0.55968 0.13253 0.65841 0.0
O707 O 0.54104 0.0871 0.65514 0.0
O708 O 0.49591 0.08053 0.67393 0.0
O709 O 0.49599 0.05324 0.66541 0.0
O710 O 0.53195 0.13708 0.66976 0.0
O711 O 0.50825 0.12204 0.68119 0.0
H712 H 0.46249 0.025 0.70501 0.0
H713 H 0.46309 0.00954 0.718 0.0
H714 H 0.55208 0.07879 0.72041 0.0
H715 H 0.55121 0.09439 0.70742 0.0
H716 H 0.57987 0.16313 0.64443 0.0
H717 H 0.56538 0.17236 0.63206 0.0
H718 H 0.48832 0.0874 0.63262 0.0
H719 H 0.50296 0.0782 0.64497 0.0
Sm720 Sm 0.5675 0.09795 0.16651 0.0
Sm721 Sm 0.57343 0.09157 0.18337 0.0
C722 C 0.56789 0.11421 0.15224 0.0
C723 C 0.58441 0.12083 0.14504 0.0
C724 C 0.59254 0.14715 0.14132 0.0
C725 C 0.60586 0.15298 0.1342 0.0
C726 C 0.61128 0.13252 0.13058 0.0
C727 C 0.60379 0.10644 0.13441 0.0
C728 C 0.59051 0.10065 0.14156 0.0
C729 C 0.58172 0.05596 0.17028 0.0
C730 C 0.63033 0.14074 0.17475 0.0
C731 C 0.57597 0.07256 0.19712 0.0
C732 C 0.56157 0.06053 0.20451 0.0
C733 C 0.55807 0.03385 0.20699 0.0
C734 C 0.54895 0.02413 0.2144 0.0
C735 C 0.54326 0.04094 0.21954 0.0
C736 C 0.54561 0.06711 0.21694 0.0
C737 C 0.55471 0.07682 0.20952 0.0
C738 C 0.56212 0.13549 0.17994 0.0
C739 C 0.50792 0.05644 0.17559 0.0
O740 O 0.57954 0.1327 0.15782 0.0
O741 O 0.55393 0.08716 0.15451 0.0
O742 O 0.5921 0.08065 0.17329 0.0
O743 O 0.56427 0.05327 0.16483 0.0
O744 O 0.61285 0.13713 0.16903 0.0
O745 O 0.6215 0.12276 0.18057 0.0
O746 O 0.56751 0.05572 0.19114 0.0
O747 O 0.58404 0.09964 0.19557 0.0
O748 O 0.55072 0.11115 0.17664 0.0
O749 O 0.57768 0.13601 0.18567 0.0
O750 O 0.52477 0.05717 0.18123 0.0
O751 O 0.51909 0.07359 0.16965 0.0
H752 H 0.58808 0.16307 0.14387 0.0
H753 H 0.61178 0.17353 0.1315 0.0
H754 H 0.60737 0.09005 0.1318 0.0
H755 H 0.58447 0.08011 0.14428 0.0
H756 H 0.5634 0.02094 0.20328 0.0
H757 H 0.54689 0.00363 0.21614 0.0
H758 H 0.54167 0.08078 0.22073 0.0
H759 H 0.55738 0.09761 0.20782 0.0
Sm760 Sm 0.91107 0.47158 0.16652 0.0
Sm761 Sm 0.9185 0.48414 0.18338 0.0
C762 C 0.89423 0.4553 0.15231 0.0
C763 C 0.8878 0.4651 0.14508 0.0
C764 C 0.86186 0.44656 0.14125 0.0
C765 C 0.85623 0.45398 0.1341 0.0
C766 C 0.87651 0.48012 0.13056 0.0
C767 C 0.90219 0.49907 0.1345 0.0
C768 C 0.90779 0.49164 0.14168 0.0
C769 C 0.95308 0.52794 0.17018 0.0
C770 C 0.8688 0.49164 0.17496 0.0
C771 C 0.93791 0.50583 0.19709 0.0
C772 C 0.94962 0.50314 0.20448 0.0
C773 C 0.97427 0.52745 0.20747 0.0
C774 C 0.98336 0.5272 0.2149 0.0
C775 C 0.96792 0.5026 0.21955 0.0
C776 C 0.94383 0.47784 0.21644 0.0
C777 C 0.93478 0.47809 0.209 0.0
C778 C 0.8745 0.42875 0.18007 0.0
C779 C 0.95338 0.45408 0.17539 0.0
O780 O 0.87595 0.44923 0.15791 0.0
O781 O 0.92132 0.46796 0.15453 0.0
O782 O 0.92861 0.51353 0.17329 0.0
O783 O 0.95549 0.51323 0.16467 0.0
O784 O 0.87178 0.47725 0.16927 0.0
O785 O 0.88748 0.50132 0.18064 0.0
O786 O 0.95476 0.51365 0.19111 0.0
O787 O 0.9107 0.48725 0.19556 0.0
O788 O 0.89864 0.4418 0.17667 0.0
O789 O 0.87432 0.44371 0.18585 0.0
O790 O 0.95346 0.47081 0.18096 0.0
O791 O 0.93525 0.44736 0.16963 0.0
H792 H 0.8461 0.42598 0.14375 0.0
H793 H 0.83598 0.43909 0.13132 0.0
H794 H 0.91842 0.51927 0.13194 0.0
H795 H 0.92802 0.50641 0.14449 0.0
H796 H 0.98589 0.54715 0.20414 0.0
H797 H 1.00178 0.54678 0.2171 0.0
H798 H 0.93168 0.45835 0.21981 0.0
H799 H 0.91566 0.45898 0.20686 0.0
Sm800 Sm 0.53752 0.44105 0.16674 0.0
Sm801 Sm 0.52439 0.43563 0.18358 0.0
C802 C 0.55381 0.44037 0.15254 0.0
C803 C 0.54373 0.42411 0.14531 0.0
C804 C 0.56211 0.41667 0.14141 0.0
C805 C 0.55435 0.40351 0.13427 0.0
C806 C 0.52803 0.39756 0.13082 0.0
C807 C 0.50927 0.40436 0.13484 0.0
C808 C 0.51703 0.41749 0.142 0.0
C809 C 0.48119 0.42702 0.17033 0.0
C810 C 0.51673 0.37843 0.1751 0.0
C811 C 0.50226 0.43339 0.19724 0.0
C812 C 0.50516 0.44771 0.20465 0.0
C813 C 0.48097 0.44813 0.20771 0.0
C814 C 0.48143 0.45736 0.21516 0.0
C815 C 0.50609 0.46628 0.21977 0.0
C816 C 0.53074 0.46691 0.2166 0.0
C817 C 0.53029 0.45773 0.20913 0.0
C818 C 0.57966 0.44645 0.18046 0.0
C819 C 0.55533 0.50078 0.17565 0.0
O820 O 0.55966 0.42799 0.15814 0.0
O821 O 0.54147 0.45512 0.15476 0.0
O822 O 0.49544 0.41678 0.17343 0.0
O823 O 0.49605 0.44423 0.16485 0.0
O824 O 0.5312 0.39583 0.16942 0.0
O825 O 0.50722 0.38741 0.18082 0.0
O826 O 0.49512 0.44303 0.19125 0.0
O827 O 0.52031 0.42408 0.19573 0.0
O828 O 0.56708 0.45787 0.17698 0.0
O829 O 0.56432 0.43143 0.18621 0.0
O830 O 0.53837 0.48412 0.18119 0.0
O831 O 0.56205 0.48935 0.1699 0.0
H832 H 0.5828 0.42153 0.14384 0.0
H833 H 0.56912 0.39812 0.13144 0.0
H834 H 0.48894 0.40035 0.13236 0.0
H835 H 0.50238 0.42297 0.14487 0.0
H836 H 0.46122 0.44021 0.20441 0.0
H837 H 0.46193 0.45626 0.21741 0.0
H838 H 0.55027 0.47407 0.21993 0.0
H839 H 0.5493 0.45766 0.20694 0.0
Sm840 Sm 0.43084 0.23153 0.01908 0.0
Sm841 Sm 0.42593 0.23777 1.00234 0.0
C842 C 0.44578 0.23213 0.03349 0.0
C843 C 0.45258 0.24918 0.0406 0.0
C844 C 0.47785 0.25552 0.04463 0.0
C845 C 0.4838 0.26959 0.05166 0.0
C846 C 0.46453 0.2776 0.05485 0.0
C847 C 0.43943 0.27169 0.05073 0.0
C848 C 0.43354 0.25768 0.04369 0.0
C849 C 0.38894 0.24553 0.01499 0.0
C850 C 0.47376 0.29471 0.01105 0.0
C851 C 0.40865 0.24023 0.98835 0.0
C852 C 0.39757 0.22578 0.9809 0.0
C853 C 0.36793 0.21324 0.97908 0.0
C854 C 0.35813 0.20386 0.97168 0.0
C855 C 0.37775 0.207 0.96589 0.0
C856 C 0.40724 0.21862 0.96779 0.0
C857 C 0.41702 0.22794 0.97519 0.0
C858 C 0.47025 0.22745 1.00606 0.0
C859 C 0.39053 0.17202 0.00999 0.0
O860 O 0.46471 0.24285 0.02798 0.0
O861 O 0.41889 0.21901 0.0311 0.0
O862 O 0.41406 0.25641 0.01223 0.0
O863 O 0.38534 0.22706 0.02025 0.0
O864 O 0.47024 0.27701 0.01671 0.0
O865 O 0.45569 0.2859 1.00525 0.0
O866 O 0.39113 0.23185 0.9942 0.0
O867 O 0.43552 0.24835 0.99017 0.0
O868 O 0.44541 0.21503 1.00912 0.0
O869 O 0.47143 0.24414 1.00055 0.0
O870 O 0.39153 0.18893 1.00434 0.0
O871 O 0.40725 0.1832 0.016 0.0
H872 H 0.49276 0.249 0.04242 0.0
H873 H 0.50313 0.27343 0.05469 0.0
H874 H 0.4243 0.27787 0.05297 0.0
H875 H 0.41389 0.25317 0.04071 0.0
H876 H 0.3524 0.21155 0.98331 0.0
H877 H 0.33519 0.19463 0.97047 0.0
H878 H 0.42311 0.2218 0.9635 0.0
H879 H 0.44008 0.23791 0.97633 0.0
Sm880 Sm 0.77597 0.20227 0.01893 0.0
Sm881 Sm 0.76961 0.18861 1.00213 0.0
C882 C 0.77551 0.21893 0.03311 0.0
C883 C 0.75901 0.20879 0.04029 0.0
C884 C 0.75358 0.22799 0.04449 0.0
C885 C 0.73974 0.21977 0.05154 0.0
C886 C 0.73105 0.1921 0.05458 0.0
C887 C 0.73609 0.17268 0.0503 0.0
C888 C 0.74986 0.1809 0.04322 0.0
C889 C 0.76165 0.14577 0.01548 0.0
C890 C 0.7131 0.18157 0.01076 0.0
C891 C 0.76683 0.16633 0.98846 0.0
C892 C 0.78093 0.16902 0.98101 0.0
C893 C 0.7823 0.14511 0.97813 0.0
C894 C 0.79146 0.14525 0.97068 0.0
C895 C 0.79936 0.1693 0.9659 0.0
C896 C 0.79894 0.19368 0.9689 0.0
C897 C 0.78984 0.19355 0.97636 0.0
C898 C 0.78115 0.24417 1.00525 0.0
C899 C 0.83521 0.21938 0.00991 0.0
O900 O 0.76327 0.22484 0.02749 0.0
O901 O 0.79007 0.20638 0.03091 0.0
O902 O 0.75122 0.15985 0.01236 0.0
O903 O 0.77912 0.1609 0.02089 0.0
O904 O 0.7312 0.19696 0.01622 0.0
O905 O 0.72149 0.17096 1.00516 0.0
O906 O 0.77656 0.15915 0.99442 0.0
O907 O 0.75767 0.18449 0.99 0.0
O908 O 0.79255 0.23139 1.00864 0.0
O909 O 0.76544 0.22876 0.99959 0.0
O910 O 0.81827 0.20277 1.00435 0.0
O911 O 0.82418 0.22608 0.01575 0.0
H912 H 0.76057 0.24966 0.04237 0.0
H913 H 0.73657 0.23543 0.0547 0.0
H914 H 0.72936 0.15108 0.05241 0.0
H915 H 0.75364 0.16556 0.04009 0.0
H916 H 0.77522 0.12578 0.98155 0.0
H917 H 0.79115 0.12595 0.96857 0.0
H918 H 0.80529 0.21276 0.96544 0.0
H919 H 0.789 0.21234 0.97841 0.0
Sm920 Sm 0.80605 0.5743 0.01881 0.0
Sm921 Sm 0.81855 0.58234 1.00198 0.0
C922 C 0.78985 0.55697 0.033 0.0
C923 C 0.79975 0.55048 0.0402 0.0
C924 C 0.78061 0.52537 0.04424 0.0
C925 C 0.78826 0.51981 0.05137 0.0
C926 C 0.81527 0.53933 0.05466 0.0
C927 C 0.8348 0.56412 0.05049 0.0
C928 C 0.82712 0.56965 0.04334 0.0
C929 C 0.86226 0.61683 0.01518 0.0
C930 C 0.82671 0.53275 0.01027 0.0
C931 C 0.83997 0.60226 0.98827 0.0
C932 C 0.8364 0.61312 0.98081 0.0
C933 C 0.85431 0.64251 0.97886 0.0
C934 C 0.85459 0.6521 0.97145 0.0
C935 C 0.83716 0.63248 0.96577 0.0
C936 C 0.81845 0.60328 0.96781 0.0
C937 C 0.8181 0.59372 0.97522 0.0
C938 C 0.76339 0.53777 1.00518 0.0
C939 C 0.78771 0.61626 0.01012 0.0
O940 O 0.78395 0.53889 0.02736 0.0
O941 O 0.80237 0.58413 0.03083 0.0
O942 O 0.84802 0.59244 0.01203 0.0
O943 O 0.84748 0.61892 0.02073 0.0
O944 O 0.81241 0.53553 0.01601 0.0
O945 O 0.83599 0.55138 1.00458 0.0
O946 O 0.84676 0.61912 0.99423 0.0
O947 O 0.82282 0.57478 0.98985 0.0
O948 O 0.77608 0.56171 1.00867 0.0
O949 O 0.77853 0.53822 0.99937 0.0
O950 O 0.80442 0.61669 1.00449 0.0
O951 O 0.78137 0.59808 0.01584 0.0
H952 H 0.75941 0.51025 0.04194 0.0
H953 H 0.77288 0.50022 0.05433 0.0
H954 H 0.85569 0.57974 0.05285 0.0
H955 H 0.84236 0.58921 0.04034 0.0
H956 H 0.86889 0.65795 0.98301 0.0
H957 H 0.86894 0.67484 0.97014 0.0
H958 H 0.80497 0.58741 0.9636 0.0
H959 H 0.80428 0.57084 0.97647 0.0
Sm960 Sm 0.43653 0.91644 0.83597 0.0
Sm961 Sm 0.44115 0.90745 0.85276 0.0
C962 C 0.43493 0.93729 0.8224 0.0
C963 C 0.44946 0.9488 0.81501 0.0
C964 C 0.45084 0.97402 0.81207 0.0
C965 C 0.46033 0.98305 0.80464 0.0
C966 C 0.46855 0.96697 0.79994 0.0
C967 C 0.46819 0.94228 0.803 0.0
C968 C 0.45875 0.93329 0.81044 0.0
C969 C 0.4473 0.87179 0.83886 0.0
C970 C 0.50131 0.94994 0.84409 0.0
C971 C 0.4398 0.88947 0.86689 0.0
C972 C 0.42312 0.88238 0.87407 0.0
C973 C 0.41406 0.8554 0.87754 0.0
C974 C 0.4005 0.84897 0.88463 0.0
C975 C 0.39577 0.86946 0.88848 0.0
C976 C 0.40424 0.89626 0.88491 0.0
C977 C 0.41777 0.90266 0.87779 0.0
C978 C 0.42757 0.95025 0.84933 0.0
C979 C 0.37896 0.86632 0.84416 0.0
O980 O 0.44484 0.95375 0.82843 0.0
O981 O 0.42497 0.90975 0.82382 0.0
O982 O 0.45843 0.89543 0.8425 0.0
O983 O 0.43261 0.8726 0.83309 0.0
O984 O 0.48492 0.95069 0.83854 0.0
O985 O 0.48959 0.93138 0.84975 0.0
O986 O 0.42799 0.87167 0.86118 0.0
O987 O 0.45435 0.91674 0.86482 0.0
O988 O 0.41722 0.9259 0.84615 0.0
O989 O 0.44463 0.95216 0.85481 0.0
O990 O 0.39613 0.86871 0.84984 0.0
O991 O 0.38819 0.88543 0.83858 0.0
H992 H 0.44349 0.98618 0.81543 0.0
H993 H 0.45999 1.00197 0.80248 0.0
H994 H 0.47479 0.92961 0.7996 0.0
H995 H 0.45793 0.91373 0.81254 0.0
H996 H 0.41795 0.83939 0.8748 0.0
H997 H 0.39382 0.82791 0.88711 0.0
H998 H 0.40121 0.9127 0.88771 0.0
H999 H 0.42454 0.92371 0.87528 0.0
Sm1000 Sm 0.09158 0.52109 0.83608 0.0
Sm1001 Sm 0.10059 0.53479 0.85286 0.0
C1002 C 0.07097 0.49897 0.82246 0.0
C1003 C 0.06037 0.50252 0.81495 0.0
C1004 C 0.03099 0.48481 0.81298 0.0
C1005 C 0.02157 0.48446 0.80554 0.0
C1006 C 0.04136 0.50163 0.79985 0.0
C1007 C 0.07057 0.52016 0.80191 0.0
C1008 C 0.07996 0.52058 0.80935 0.0
C1009 C 0.13626 0.57652 0.83894 0.0
C1010 C 0.05811 0.55242 0.84419 0.0
C1011 C 0.11861 0.55133 0.867 0.0
C1012 C 0.12561 0.54157 0.87417 0.0
C1013 C 0.15302 0.5588 0.8775 0.0
C1014 C 0.15945 0.55156 0.88458 0.0
C1015 C 0.13854 0.52694 0.88856 0.0
C1016 C 0.11129 0.50929 0.88512 0.0
C1017 C 0.10489 0.51651 0.87802 0.0
C1018 C 0.05755 0.47852 0.84946 0.0
C1019 C 0.14147 0.51337 0.84429 0.0
O1020 O 0.05429 0.49317 0.82843 0.0
O1021 O 0.09859 0.51546 0.824 0.0
O1022 O 0.11263 0.56404 0.84259 0.0
O1023 O 0.13542 0.56099 0.83319 0.0
O1024 O 0.05726 0.53514 0.83866 0.0
O1025 O 0.07678 0.55941 0.84983 0.0
O1026 O 0.13639 0.5573 0.86128 0.0
O1027 O 0.09135 0.5388 0.86492 0.0
O1028 O 0.08192 0.49235 0.84628 0.0
O1029 O 0.05577 0.49378 0.85493 0.0
O1030 O 0.13926 0.52838 0.84994 0.0
O1031 O 0.12224 0.50338 0.83874 0.0
H1032 H 0.0154 0.47043 0.81713 0.0
H1033 H 0.99882 0.47026 0.80421 0.0
H1034 H 0.08658 0.53344 0.79771 0.0
H1035 H 0.10284 0.53426 0.81063 0.0
H1036 H 0.16938 0.57825 0.87467 0.0
H1037 H 0.18084 0.5654 0.88696 0.0
H1038 H 0.09453 0.49032 0.88802 0.0
H1039 H 0.0835 0.50278 0.87562 0.0
Sm1040 Sm 0.48663 0.57099 0.83603 0.0
Sm1041 Sm 0.47281 0.566 0.8528 0.0
C1042 C 0.50938 0.573 0.82247 0.0
C1043 C 0.5065 0.55874 0.81505 0.0
C1044 C 0.53064 0.55819 0.81202 0.0
C1045 C 0.53024 0.54905 0.80455 0.0
C1046 C 0.50566 0.54033 0.79992 0.0
C1047 C 0.48105 0.53981 0.80308 0.0
C1048 C 0.48145 0.54891 0.81056 0.0
C1049 C 0.43112 0.56001 0.83887 0.0
C1050 C 0.45524 0.50603 0.84406 0.0
C1051 C 0.45625 0.56701 0.86696 0.0
C1052 C 0.46651 0.58327 0.87418 0.0
C1053 C 0.44828 0.59077 0.87812 0.0
C1054 C 0.4564 0.60428 0.88521 0.0
C1055 C 0.48297 0.61053 0.88856 0.0
C1056 C 0.50147 0.60342 0.88453 0.0
C1057 C 0.49337 0.59 0.87741 0.0
C1058 C 0.52931 0.57989 0.84941 0.0
C1059 C 0.49344 0.62822 0.84427 0.0
O1060 O 0.51574 0.56282 0.82849 0.0
O1061 O 0.4918 0.58295 0.8239 0.0
O1062 O 0.44363 0.54888 0.84251 0.0
O1063 O 0.44666 0.57479 0.83312 0.0
O1064 O 0.47258 0.52257 0.83855 0.0
O1065 O 0.4482 0.51761 0.8497 0.0
O1066 O 0.451 0.57973 0.86133 0.0
O1067 O 0.46808 0.55175 0.86478 0.0
O1068 O 0.51526 0.5902 0.84624 0.0
O1069 O 0.51414 0.56268 0.85486 0.0
O1070 O 0.47855 0.61085 0.84991 0.0
O1071 O 0.50366 0.61923 0.83871 0.0
H1072 H 0.55033 0.56596 0.81533 0.0
H1073 H 0.54971 0.55006 0.80232 0.0
H1074 H 0.46158 0.5328 0.79973 0.0
H1075 H 0.46247 0.54907 0.81274 0.0
H1076 H 0.42739 0.58564 0.87578 0.0
H1077 H 0.44143 0.60908 0.88817 0.0
H1078 H 0.52224 0.60825 0.88688 0.0
H1079 H 0.50796 0.58457 0.87449 0.0
Sm1080 Sm 0.58329 0.76848 0.01734 0.0
Sm1081 Sm 0.5755 0.77342 1.00051 0.0
C1082 C 0.6029 0.76651 0.03107 0.0
C1083 C 0.61362 0.78061 0.03858 0.0
C1084 C 0.64302 0.79223 0.04054 0.0
C1085 C 0.65251 0.80126 0.04797 0.0
C1086 C 0.63278 0.79867 0.05367 0.0
C1087 C 0.60354 0.788 0.05163 0.0
C1088 C 0.59409 0.77906 0.04419 0.0
C1089 C 0.53944 0.78023 0.01418 0.0
C1090 C 0.618 0.8333 1.00926 0.0
C1091 C 0.55847 0.77255 0.9863 0.0
C1092 C 0.55187 0.75605 0.97911 0.0
C1093 C 0.52664 0.74992 0.9751 0.0
C1094 C 0.52096 0.73661 0.96798 0.0
C1095 C 0.5405 0.7292 0.96466 0.0
C1096 C 0.56543 0.73464 0.9688 0.0
C1097 C 0.57106 0.74793 0.97594 0.0
C1098 C 0.61775 0.75931 1.00415 0.0
C1099 C 0.53337 0.71126 1.009 0.0
O1100 O 0.61989 0.77678 0.02514 0.0
O1101 O 0.57546 0.75627 0.02945 0.0
O1102 O 0.56333 0.79099 0.01067 0.0
O1103 O 0.53948 0.76528 0.01997 0.0
O1104 O 0.61828 0.81672 0.01483 0.0
O1105 O 0.59962 0.82181 1.00356 0.0
O1106 O 0.54028 0.76061 0.99193 0.0
O1107 O 0.58561 0.7869 0.98849 0.0
O1108 O 0.59324 0.74909 1.00724 0.0
O1109 O 0.62008 0.77649 0.99866 0.0
O1110 O 0.53624 0.72859 1.00331 0.0
O1111 O 0.55219 0.72025 0.01464 0.0
H1112 H 0.65858 0.79344 0.03637 0.0
H1113 H 0.67527 0.80979 0.04928 0.0
H1114 H 0.58758 0.78528 0.05585 0.0
H1115 H 0.57119 0.76986 0.04294 0.0
H1116 H 0.51149 0.75593 0.97743 0.0
H1117 H 0.50128 0.73227 0.96506 0.0
H1118 H 0.58108 0.72946 0.96642 0.0
H1119 H 0.59072 0.75239 0.9789 0.0
Sm1120 Sm 0.23987 0.81846 0.0172 0.0
Sm1121 Sm 0.23505 0.8013 0.99939 0.0
C1122 C 0.24193 0.84355 0.03038 0.0
C1123 C 0.22876 0.84001 0.03801 0.0
C1124 C 0.21762 0.85798 0.04018 0.0
C1125 C 0.20904 0.85814 0.04768 0.0
C1126 C 0.21159 0.84047 0.05322 0.0
C1127 C 0.22173 0.82167 0.05097 0.0
C1128 C 0.23023 0.82145 0.04347 0.0
C1129 C 0.23046 0.7635 0.01434 0.0
C1130 C 0.17505 0.78636 1.00877 0.0
C1131 C 0.23157 0.77695 0.98606 0.0
C1132 C 0.24559 0.78566 0.97854 0.0
C1133 C 0.24847 0.76539 0.9741 0.0
C1134 C 0.26098 0.77294 0.96687 0.0
C1135 C 0.27086 0.80099 0.96392 0.0
C1136 C 0.26826 0.8214 0.96846 0.0
C1137 C 0.25581 0.81383 0.97569 0.0
C1138 C 0.2559 0.86071 1.00132 0.0
C1139 C 0.2968 0.8257 1.0084 0.0
O1140 O 0.22801 0.84544 0.02448 0.0
O1141 O 0.25602 0.8297 0.02897 0.0
O1142 O 0.22021 0.77637 0.01048 0.0
O1143 O 0.24301 0.77825 0.02042 0.0
O1144 O 0.19063 0.79983 0.01488 0.0
O1145 O 0.18687 0.78302 1.00251 0.0
O1146 O 0.24761 0.77635 0.99164 0.0
O1147 O 0.21489 0.78753 0.98806 0.0
O1148 O 0.24899 0.84141 1.00624 0.0
O1149 O 0.25126 0.84835 0.99474 0.0
O1150 O 0.2794 0.80807 1.00308 0.0
O1151 O 0.28777 0.83716 0.01366 0.0
H1152 H 0.21641 0.87265 0.03613 0.0
H1153 H 0.20087 0.87253 0.04915 0.0
H1154 H 0.22431 0.80796 0.05507 0.0
H1155 H 0.2389 0.80746 0.04202 0.0
H1156 H 0.24091 0.74359 0.9762 0.0
H1157 H 0.26308 0.75679 0.96363 0.0
H1158 H 0.27532 0.84309 0.96637 0.0
H1159 H 0.25393 0.82992 0.97903 0.0
Sm1160 Sm 0.18834 0.42337 0.01737 0.0
Sm1161 Sm 0.2056 0.43455 0.99956 0.0
C1162 C 0.16328 0.40101 0.0306 0.0
C1163 C 0.16692 0.39139 0.03823 0.0
C1164 C 0.14923 0.36222 0.0404 0.0
C1165 C 0.14931 0.35347 0.04788 0.0
C1166 C 0.16694 0.37372 0.05342 0.0
C1167 C 0.18539 0.40274 0.05118 0.0
C1168 C 0.18537 0.41147 0.04369 0.0
C1169 C 0.24338 0.46841 0.01443 0.0
C1170 C 0.21951 0.38927 1.00918 0.0
C1171 C 0.23014 0.45478 0.98621 0.0
C1172 C 0.22139 0.46003 0.97868 0.0
C1173 C 0.24185 0.48264 0.97413 0.0
C1174 C 0.23411 0.48773 0.96694 0.0
C1175 C 0.20569 0.47025 0.96414 0.0
C1176 C 0.18516 0.44767 0.96876 0.0
C1177 C 0.1929 0.44268 0.97597 0.0
C1178 C 0.1461 0.39679 1.00148 0.0
C1179 C 0.18209 0.47318 1.00837 0.0
O1180 O 0.16083 0.38491 0.02471 0.0
O1181 O 0.17756 0.4289 0.02913 0.0
O1182 O 0.23053 0.44505 0.01067 0.0
O1183 O 0.22852 0.4668 0.02045 0.0
O1184 O 0.20731 0.39295 0.01534 0.0
O1185 O 0.22222 0.40326 1.00274 0.0
O1186 O 0.23107 0.47169 0.99174 0.0
O1187 O 0.21921 0.42754 0.98826 0.0
O1188 O 0.16534 0.40918 1.00641 0.0
O1189 O 0.15853 0.4042 0.99491 0.0
O1190 O 0.19955 0.47279 1.00309 0.0
O1191 O 0.17018 0.45281 0.01366 0.0
H1192 H 0.13463 0.34629 0.03634 0.0
H1193 H 0.13517 0.33084 0.04934 0.0
H1194 H 0.19904 0.41907 0.05527 0.0
H1195 H 0.19914 0.43419 0.04225 0.0
H1196 H 0.26394 0.49628 0.97611 0.0
H1197 H 0.25058 0.50508 0.96352 0.0
H1198 H 0.163 0.43403 0.96684 0.0
H1199 H 0.17664 0.42523 0.9794 0.0
Sm1200 Sm 0.23378 0.43137 0.50003 0.0
Sm1201 Sm 0.23902 0.42438 0.5169 0.0
C1202 C 0.23452 0.44788 0.48578 0.0
C1203 C 0.25105 0.45402 0.47859 0.0
C1204 C 0.25866 0.4798 0.47465 0.0
C1205 C 0.27234 0.48525 0.46758 0.0
C1206 C 0.27861 0.46492 0.46425 0.0
C1207 C 0.27142 0.43929 0.46828 0.0
C1208 C 0.25784 0.43391 0.47538 0.0
C1209 C 0.24788 0.38925 0.50379 0.0
C1210 C 0.2963 0.4736 0.50839 0.0
C1211 C 0.24124 0.40517 0.53066 0.0
C1212 C 0.22691 0.39355 0.53806 0.0
C1213 C 0.22722 0.36935 0.54115 0.0
C1214 C 0.21799 0.36046 0.5486 0.0
C1215 C 0.20832 0.37567 0.55317 0.0
C1216 C 0.20697 0.39926 0.54996 0.0
C1217 C 0.21616 0.40811 0.54249 0.0
C1218 C 0.22766 0.46838 0.51351 0.0
C1219 C 0.17401 0.38953 0.50892 0.0
O1220 O 0.24662 0.46628 0.49136 0.0
O1221 O 0.21995 0.42085 0.48805 0.0
O1222 O 0.25809 0.41383 0.50685 0.0
O1223 O 0.23067 0.38674 0.49829 0.0
O1224 O 0.27896 0.47039 0.50267 0.0
O1225 O 0.28724 0.4554 0.51417 0.0
O1226 O 0.23227 0.38824 0.52469 0.0
O1227 O 0.24978 0.43234 0.52909 0.0
O1228 O 0.21654 0.44417 0.51015 0.0
O1229 O 0.2429 0.46867 0.51928 0.0
O1230 O 0.19064 0.3895 0.51451 0.0
O1231 O 0.18545 0.40753 0.50315 0.0
H1232 H 0.25348 0.49554 0.47699 0.0
H1233 H 0.27723 0.50504 0.46462 0.0
H1234 H 0.27628 0.42335 0.46594 0.0
H1235 H 0.25233 0.41386 0.47829 0.0
H1236 H 0.23572 0.35796 0.53789 0.0
H1237 H 0.21968 0.34243 0.55088 0.0
H1238 H 0.19922 0.41121 0.55325 0.0
H1239 H 0.21567 0.42688 0.54028 0.0
Sm1240 Sm 0.57662 0.80529 0.4997 0.0
Sm1241 Sm 0.58262 0.81698 0.51646 0.0
C1242 C 0.56134 0.79045 0.48533 0.0
C1243 C 0.5549 0.80072 0.47817 0.0
C1244 C 0.5295 0.78203 0.47416 0.0
C1245 C 0.52384 0.79016 0.4671 0.0
C1246 C 0.54355 0.81719 0.46386 0.0
C1247 C 0.56878 0.83613 0.46796 0.0
C1248 C 0.57437 0.82802 0.47504 0.0
C1249 C 0.6181 0.86149 0.50364 0.0
C1250 C 0.5331 0.82421 0.50792 0.0
C1251 C 0.6011 0.83779 0.5303 0.0
C1252 C 0.6124 0.83459 0.53774 0.0
C1253 C 0.64164 0.85331 0.53969 0.0
C1254 C 0.65147 0.85379 0.54708 0.0
C1255 C 0.63225 0.83572 0.55275 0.0
C1256 C 0.60323 0.81623 0.55071 0.0
C1257 C 0.59343 0.8157 0.54331 0.0
C1258 C 0.53904 0.76159 0.51301 0.0
C1259 C 0.61818 0.7873 0.50862 0.0
O1260 O 0.5425 0.78295 0.49084 0.0
O1261 O 0.58826 0.80376 0.48771 0.0
O1262 O 0.59317 0.84704 0.50649 0.0
O1263 O 0.62173 0.84667 0.49838 0.0
O1264 O 0.53678 0.81031 0.50223 0.0
O1265 O 0.55136 0.8338 0.51369 0.0
O1266 O 0.61825 0.84604 0.52438 0.0
O1267 O 0.57398 0.81943 0.52862 0.0
O1268 O 0.56337 0.7747 0.50971 0.0
O1269 O 0.53836 0.77654 0.51873 0.0
O1270 O 0.6179 0.80385 0.5142 0.0
O1271 O 0.60035 0.78074 0.50281 0.0
H1272 H 0.51426 0.76078 0.47642 0.0
H1273 H 0.50439 0.77486 0.46408 0.0
H1274 H 0.58423 0.85726 0.46569 0.0
H1275 H 0.59412 0.84297 0.47801 0.0
H1276 H 0.65676 0.86835 0.53555 0.0
H1277 H 0.67407 0.86877 0.54839 0.0
H1278 H 0.58765 0.80223 0.55491 0.0
H1279 H 0.57065 0.80125 0.54206 0.0
Sm1280 Sm 0.20503 0.77206 0.49876 0.0
Sm1281 Sm 0.18783 0.76684 0.51667 0.0
C1282 C 0.22922 0.77524 0.48542 0.0
C1283 C 0.22076 0.76079 0.47793 0.0
C1284 C 0.24025 0.75514 0.47396 0.0
C1285 C 0.23305 0.74211 0.46679 0.0
C1286 C 0.20614 0.73449 0.4634 0.0
C1287 C 0.18648 0.7399 0.46746 0.0
C1288 C 0.19368 0.75283 0.47465 0.0
C1289 C 0.14568 0.75123 0.50084 0.0
C1290 C 0.18057 0.71007 0.50775 0.0
C1291 C 0.16261 0.76451 0.52985 0.0
C1292 C 0.166 0.77807 0.53739 0.0
C1293 C 0.14224 0.77884 0.5406 0.0
C1294 C 0.14332 0.78794 0.5481 0.0
C1295 C 0.16822 0.79644 0.55258 0.0
C1296 C 0.19241 0.79659 0.54925 0.0
C1297 C 0.19132 0.78751 0.54174 0.0
C1298 C 0.24261 0.77607 0.51366 0.0
C1299 C 0.22021 0.83188 0.5083 0.0
O1300 O 0.23037 0.75977 0.49107 0.0
O1301 O 0.21823 0.79166 0.48734 0.0
O1302 O 0.16516 0.75794 0.50568 0.0
O1303 O 0.15781 0.75606 0.49422 0.0
O1304 O 0.19796 0.7275 0.50239 0.0
O1305 O 0.16926 0.71901 0.51308 0.0
O1306 O 0.15995 0.77773 0.52389 0.0
O1307 O 0.17758 0.7515 0.52852 0.0
O1308 O 0.22966 0.78643 0.50989 0.0
O1309 O 0.22805 0.7635 0.51977 0.0
O1310 O 0.20662 0.81613 0.51438 0.0
O1311 O 0.22358 0.82025 0.50199 0.0
H1312 H 0.26119 0.76091 0.47639 0.0
H1313 H 0.24856 0.73783 0.46393 0.0
H1314 H 0.1657 0.73466 0.46503 0.0
H1315 H 0.17814 0.75683 0.4776 0.0
H1316 H 0.12238 0.77141 0.53739 0.0
H1317 H 0.12414 0.78718 0.55047 0.0
H1318 H 0.21212 0.80341 0.55248 0.0
H1319 H 0.21001 0.78717 0.5394 0.0
Sm1320 Sm 0.1023 0.56615 0.35318 0.0
Sm1321 Sm 0.09043 0.57078 0.33526 0.0
C1322 C 0.12316 0.56314 0.36655 0.0
C1323 C 0.12919 0.57787 0.374 0.0
C1324 C 0.15399 0.58305 0.37808 0.0
C1325 C 0.15991 0.59652 0.38519 0.0
C1326 C 0.14106 0.60506 0.3884 0.0
C1327 C 0.11627 0.59997 0.38427 0.0
C1328 C 0.11045 0.58663 0.37714 0.0
C1329 C 0.06424 0.5875 0.35103 0.0
C1330 C 0.14013 0.62767 0.34404 0.0
C1331 C 0.06786 0.57302 0.32203 0.0
C1332 C 0.0577 0.55945 0.31449 0.0
C1333 C 0.0329 0.55827 0.31133 0.0
C1334 C 0.02484 0.54923 0.30383 0.0
C1335 C 0.04149 0.54119 0.2993 0.0
C1336 C 0.06581 0.54143 0.30257 0.0
C1337 C 0.07383 0.55045 0.31009 0.0
C1338 C 0.13561 0.56102 0.33841 0.0
C1339 C 0.05718 0.50608 0.34378 0.0
O1340 O 0.13985 0.57837 0.36089 0.0
O1341 O 0.09576 0.54682 0.36463 0.0
O1342 O 0.07665 0.58033 0.34619 0.0
O1343 O 0.07167 0.58289 0.35766 0.0
O1344 O 0.14016 0.61031 0.34941 0.0
O1345 O 0.1196 0.61864 0.33879 0.0
O1346 O 0.05184 0.55996 0.32798 0.0
O1347 O 0.09581 0.58586 0.32339 0.0
O1348 O 0.11227 0.55104 0.34214 0.0
O1349 O 0.13393 0.57359 0.33226 0.0
O1350 O 0.05949 0.52166 0.33766 0.0
O1351 O 0.07225 0.51788 0.35007 0.0
H1352 H 0.16874 0.57647 0.37578 0.0
H1353 H 0.17902 0.59978 0.38823 0.0
H1354 H 0.10149 0.60659 0.38652 0.0
H1355 H 0.09127 0.58312 0.37408 0.0
H1356 H 0.02028 0.56537 0.31459 0.0
H1357 H 0.00621 0.54968 0.30151 0.0
H1358 H 0.07888 0.53497 0.2993 0.0
H1359 H 0.09307 0.55111 0.31238 0.0
Sm1360 Sm 0.44217 0.53613 0.3524 0.0
Sm1361 Sm 0.43696 0.52364 0.33551 0.0
C1362 C 0.44142 0.55232 0.36661 0.0
C1363 C 0.42485 0.54243 0.37379 0.0
C1364 C 0.41905 0.56166 0.37786 0.0
C1365 C 0.40569 0.55396 0.38497 0.0
C1366 C 0.39789 0.52681 0.38823 0.0
C1367 C 0.403 0.50722 0.38404 0.0
C1368 C 0.41633 0.51494 0.3769 0.0
C1369 C 0.42763 0.47978 0.34871 0.0
C1370 C 0.37992 0.51672 0.34394 0.0
C1371 C 0.43471 0.50176 0.32182 0.0
C1372 C 0.4492 0.50434 0.31445 0.0
C1373 C 0.4497 0.48002 0.31152 0.0
C1374 C 0.45909 0.48015 0.3041 0.0
C1375 C 0.46811 0.50461 0.2994 0.0
C1376 C 0.46862 0.52937 0.30245 0.0
C1377 C 0.45928 0.52925 0.30988 0.0
C1378 C 0.44862 0.57904 0.33882 0.0
C1379 C 0.50207 0.55366 0.34355 0.0
O1380 O 0.42964 0.55879 0.36099 0.0
O1381 O 0.45559 0.53935 0.36442 0.0
O1382 O 0.41766 0.49429 0.3456 0.0
O1383 O 0.44471 0.49436 0.35424 0.0
O1384 O 0.39721 0.5305 0.3497 0.0
O1385 O 0.38883 0.50738 0.33817 0.0
O1386 O 0.44355 0.49387 0.32783 0.0
O1387 O 0.4262 0.52046 0.32332 0.0
O1388 O 0.45958 0.56589 0.34224 0.0
O1389 O 0.43347 0.56415 0.33303 0.0
O1390 O 0.48553 0.53773 0.33785 0.0
O1391 O 0.49064 0.55975 0.34942 0.0
H1392 H 0.42538 0.58296 0.37558 0.0
H1393 H 0.40163 0.56941 0.38794 0.0
H1394 H 0.39754 0.48624 0.38637 0.0
H1395 H 0.42051 0.49962 0.3739 0.0
H1396 H 0.44171 0.46042 0.31488 0.0
H1397 H 0.45807 0.46058 0.30194 0.0
H1398 H 0.47585 0.54875 0.29905 0.0
H1399 H 0.45914 0.54836 0.31197 0.0
Sm1400 Sm 0.47061 0.90736 0.35204 0.0
Sm1401 Sm 0.48433 0.91588 0.33528 0.0
C1402 C 0.45382 0.88967 0.36618 0.0
C1403 C 0.46393 0.88348 0.37339 0.0
C1404 C 0.44529 0.85808 0.3774 0.0
C1405 C 0.4532 0.85274 0.38453 0.0
C1406 C 0.47997 0.87278 0.38784 0.0
C1407 C 0.49898 0.8979 0.38371 0.0
C1408 C 0.49106 0.90319 0.37656 0.0
C1409 C 0.52695 0.95018 0.34868 0.0
C1410 C 0.49227 0.86634 0.34366 0.0
C1411 C 0.5069 0.93639 0.3217 0.0
C1412 C 0.50432 0.94821 0.31432 0.0
C1413 C 0.52927 0.97138 0.31108 0.0
C1414 C 0.5288 0.98027 0.30364 0.0
C1415 C 0.50332 0.96612 0.29924 0.0
C1416 C 0.47798 0.94363 0.30262 0.0
C1417 C 0.47847 0.93475 0.31008 0.0
C1418 C 0.42894 0.87114 0.33821 0.0
C1419 C 0.45296 0.94956 0.34325 0.0
O1420 O 0.44845 0.87173 0.36053 0.0
O1421 O 0.46589 0.91682 0.36402 0.0
O1422 O 0.51309 0.92583 0.34548 0.0
O1423 O 0.51165 0.95209 0.35411 0.0
O1424 O 0.47745 0.86885 0.34931 0.0
O1425 O 0.50179 0.88503 0.33798 0.0
O1426 O 0.51388 0.95289 0.32773 0.0
O1427 O 0.48866 0.90899 0.32311 0.0
O1428 O 0.44134 0.895 0.34176 0.0
O1429 O 0.4446 0.87171 0.33251 0.0
O1430 O 0.47013 0.9502 0.33772 0.0
O1431 O 0.44604 0.93108 0.34892 0.0
H1432 H 0.42429 0.84254 0.37508 0.0
H1433 H 0.43822 0.83291 0.38746 0.0
H1434 H 0.51964 0.91395 0.38609 0.0
H1435 H 0.50593 0.92298 0.37359 0.0
H1436 H 0.54954 0.9819 0.31421 0.0
H1437 H 0.54882 0.99742 0.30123 0.0
H1438 H 0.45784 0.93253 0.29946 0.0
H1439 H 0.45887 0.9168 0.31243 0.0
C1440 C 0.13437 0.17814 0.18024 0.0
C1441 C 0.12415 0.1828 0.17335 0.0
C1442 C 0.14186 0.15633 0.18084 0.0
C1443 C 0.13144 0.0898 0.17062 0.0
H1444 H 0.19047 0.09552 0.18456 0.0
C1445 C 0.17007 0.00589 0.17075 0.0
C1446 C 0.16593 0.99182 0.17776 0.0
C1447 C 0.16889 0.0316 0.17023 0.0
C1448 C 0.174 0.09375 0.18063 0.0
H1449 H 0.11499 0.16935 0.16162 0.0
H1450 H 0.12948 0.13286 0.16251 0.0
H1451 H 0.18055 0.13572 0.18359 0.0
H1452 H 0.15921 0.99459 0.18977 0.0
H1453 H 0.15807 0.03997 0.18887 0.0
H1454 H 0.1255 0.04817 0.16755 0.0
C1455 C 0.13051 0.14477 0.16758 0.0
C1456 C 0.16807 0.11665 0.18011 0.0
C1457 C 0.12242 0.16598 0.16704 0.0
C1458 C 0.16242 0.00492 0.18429 0.0
C1459 C 0.16186 0.03093 0.18378 0.0
C1460 C 0.13781 0.06731 0.17103 0.0
C1461 C 0.13982 0.13913 0.17452 0.0
C1462 C 0.14661 0.11499 0.17511 0.0
C1463 C 0.16419 0.04404 0.17672 0.0
C1464 C 0.15904 0.06897 0.17605 0.0
H1465 H 0.13582 0.19082 0.1852 0.0
H1466 H 0.14858 0.15256 0.18631 0.0
H1467 H 0.11415 0.08706 0.16686 0.0
H1468 H 0.17261 0.99622 0.16561 0.0
H1469 H 0.17086 0.04137 0.16471 0.0
C1470 C 1.00291 0.16189 0.17098 0.0
C1471 C 0.01677 0.17414 0.17788 0.0
C1472 C 0.97686 0.13524 0.17086 0.0
C1473 C 0.93361 0.0698 0.18298 0.0
H1474 H 0.87818 0.04799 0.16654 0.0
C1475 C 0.82701 0.95735 0.18072 0.0
C1476 C 0.825 0.94295 0.17388 0.0
C1477 C 0.84821 0.98668 0.18164 0.0
C1478 C 0.89346 0.05388 0.17118 0.0
H1479 H 0.01337 0.16913 0.19007 0.0
H1480 H 0.96726 0.12362 0.18991 0.0
H1481 H 0.91827 0.09795 0.16744 0.0
H1482 H 0.84315 0.94792 0.16262 0.0
H1483 H 0.87945 0.99917 0.16415 0.0
H1484 H 0.90824 0.0256 0.18674 0.0
C1485 C 0.97696 0.13374 0.18455 0.0
C1486 C 0.91662 0.08246 0.17168 0.0
C1487 C 1.0033 0.16004 0.18466 0.0
C1488 C 0.84419 0.95844 0.16795 0.0
C1489 C 0.86487 0.98781 0.16881 0.0
C1490 C 0.91012 0.04138 0.18256 0.0
C1491 C 0.96373 0.12047 0.17764 0.0
C1492 C 0.93743 0.09073 0.1775 0.0
C1493 C 0.86721 1.00218 0.17566 0.0
C1494 C 0.89017 0.03302 0.17658 0.0
H1495 H 0.01295 0.17212 0.16566 0.0
H1496 H 0.96776 0.12572 0.16541 0.0
H1497 H 0.94932 0.07494 0.18747 0.0
H1498 H 0.8125 0.94584 0.18538 0.0
H1499 H 0.84964 0.99733 0.18698 0.0
C1500 C 0.05413 0.89212 0.16713 0.0
C1501 C 0.0691 0.88865 0.17322 0.0
C1502 C 0.02523 0.88518 0.1679 0.0
C1503 C 0.95973 0.84652 0.18036 0.0
H1504 H 0.93479 0.8919 0.16863 0.0
C1505 C 0.85181 0.84943 0.18443 0.0
C1506 C 0.83601 0.84663 0.17778 0.0
C1507 C 0.87892 0.85106 0.18407 0.0
C1508 C 0.94139 0.87888 0.17189 0.0
H1509 H 0.06559 0.87514 0.18492 0.0
H1510 H 0.01527 0.86431 0.18644 0.0
H1511 H 0.98508 0.90333 0.16797 0.0
H1512 H 0.83588 0.84243 0.16557 0.0
H1513 H 0.88362 0.84603 0.16494 0.0
H1514 H 0.91585 0.8231 0.18455 0.0
C1515 C 0.0256 0.87162 0.18097 0.0
C1516 C 0.97026 0.88529 0.17149 0.0
C1517 C 0.05452 0.87804 0.18013 0.0
C1518 C 0.84741 0.8444 0.17079 0.0
C1519 C 0.87479 0.84664 0.17043 0.0
C1520 C 0.93088 0.84051 0.18088 0.0
C1521 C 0.01055 0.87522 0.17485 0.0
C1522 C 0.97986 0.86896 0.17563 0.0
C1523 C 0.89102 0.85052 0.17705 0.0
C1524 C 0.9214 0.85643 0.17657 0.0
H1525 H 0.06464 0.8999 0.1617 0.0
H1526 H 0.01438 0.88743 0.16298 0.0
H1527 H 0.96605 0.8332 0.18358 0.0
H1528 H 0.84357 0.85117 0.1899 0.0
H1529 H 0.89104 0.85416 0.18926 0.0
C1530 C 0.16708 0.12053 0.35314 0.0
C1531 C 0.18386 0.12235 0.34681 0.0
C1532 C 0.14555 0.12814 0.3526 0.0
C1533 C 0.11643 0.16472 0.34012 0.0
H1534 H 0.04797 0.12071 0.3526 0.0
C1535 C 1.00422 0.15833 0.33624 0.0
C1536 C 0.99119 0.16137 0.34285 0.0
C1537 C 0.03024 0.15777 0.33663 0.0
C1538 C 0.06709 0.13339 0.34915 0.0
H1539 H 0.19151 0.13371 0.33494 0.0
H1540 H 0.15269 0.14569 0.33383 0.0
H1541 H 0.08742 0.11016 0.35321 0.0
H1542 H 0.99575 0.16722 0.35502 0.0
H1543 H 0.0409 0.16551 0.35572 0.0
H1544 H 0.0948 0.18678 0.33579 0.0
C1545 C 0.15674 0.13924 0.33931 0.0
C1546 C 0.08988 0.12749 0.34951 0.0
C1547 C 0.17887 0.13221 0.33991 0.0
C1548 C 0.00531 0.16499 0.34982 0.0
C1549 C 0.03104 0.16385 0.35024 0.0
C1550 C 0.09325 0.17021 0.33965 0.0
C1551 C 0.13956 0.13704 0.34565 0.0
C1552 C 0.11507 0.14322 0.34506 0.0
C1553 C 0.04343 0.15967 0.34366 0.0
C1554 C 0.06849 0.15474 0.34421 0.0
H1555 H 0.17072 0.11337 0.35857 0.0
H1556 H 0.13361 0.12702 0.35767 0.0
H1557 H 0.1355 0.17757 0.33667 0.0
H1558 H 0.99389 0.15557 0.33077 0.0
H1559 H 0.03928 0.15439 0.33149 0.0
C1560 C 0.84797 0.84783 0.33607 0.0
C1561 C 0.84468 0.83126 0.3426 0.0
C1562 C 0.84854 0.8744 0.33658 0.0
C1563 C 0.87253 0.935 0.34933 0.0
H1564 H 0.82893 0.95992 0.33685 0.0
C1565 C 0.88634 0.04847 0.3534 0.0
C1566 C 0.88419 0.06342 0.34711 0.0
C1567 C 0.8787 0.01929 0.35284 0.0
C1568 C 0.84165 0.95355 0.34031 0.0
H1569 H 0.8385 0.82917 0.35476 0.0
H1570 H 0.84025 0.87606 0.35568 0.0
H1571 H 0.81961 0.91003 0.33586 0.0
H1572 H 0.87227 0.05962 0.33528 0.0
H1573 H 0.86028 0.00885 0.33414 0.0
H1574 H 0.89579 0.97842 0.3535 0.0
C1575 C 0.84205 0.86821 0.35016 0.0
C1576 C 0.83607 0.92484 0.33978 0.0
C1577 C 0.84085 0.84131 0.34962 0.0
C1578 C 0.87403 0.04851 0.34022 0.0
C1579 C 0.86698 0.01933 0.3396 0.0
C1580 C 0.87854 0.96375 0.34975 0.0
C1581 C 0.84644 0.88526 0.34366 0.0
C1582 C 0.85134 0.91527 0.34433 0.0
C1583 C 0.86944 0.00432 0.34591 0.0
C1584 C 0.86306 0.97351 0.3453 0.0
H1585 H 0.85096 0.84064 0.33057 0.0
H1586 H 0.85209 0.88715 0.3315 0.0
H1587 H 0.88506 0.92837 0.35279 0.0
H1588 H 0.89375 0.05927 0.35882 0.0
H1589 H 0.88006 0.00852 0.3579 0.0
C1590 C 0.95566 0.82874 0.3401 0.0
C1591 C 0.94106 0.82453 0.34702 0.0
C1592 C 0.98465 0.85113 0.33931 0.0
C1593 C 0.04021 0.91948 0.34898 0.0
H1594 H 0.09435 0.91205 0.33573 0.0
C1595 C 0.16296 1.00191 0.34946 0.0
C1596 C 0.17399 0.01552 0.34246 0.0
C1597 C 0.13572 0.97662 0.34989 0.0
C1598 C 0.0794 0.91432 0.33946 0.0
H1599 H 0.94556 0.83965 0.3586 0.0
H1600 H 0.99593 0.87722 0.3574 0.0
H1601 H 0.04414 0.87201 0.33668 0.0
H1602 H 0.16598 0.01232 0.33035 0.0
H1603 H 0.11878 0.96762 0.3311 0.0
H1604 H 0.07575 0.9614 0.3519 0.0
C1605 C 0.98505 0.86442 0.35244 0.0
C1606 C 0.05054 0.89151 0.33996 0.0
C1607 C 0.95608 0.84259 0.35316 0.0
C1608 C 0.15802 1.00236 0.33584 0.0
C1609 C 0.13107 0.97675 0.33625 0.0
C1610 C 0.06909 0.94189 0.34859 0.0
C1611 C 0.99975 0.8694 0.34548 0.0
C1612 C 0.03049 0.89373 0.34475 0.0
C1613 C 0.11928 0.96413 0.3433 0.0
C1614 C 0.08898 0.93957 0.34384 0.0
H1615 H 0.94455 0.81507 0.33527 0.0
H1616 H 0.995 0.85437 0.33384 0.0
H1617 H 0.02545 0.92261 0.35255 0.0
H1618 H 0.17465 0.01162 0.35466 0.0
H1619 H 0.12713 0.9672 0.35539 0.0
C1620 C 0.9034 0.85121 0.849 0.0
C1621 C 0.88818 0.82471 0.84511 0.0
C1622 C 0.89495 0.87214 0.84842 0.0
C1623 C 0.85325 0.89606 0.83664 0.0
H1624 H 0.85959 0.94084 0.85461 0.0
C1625 C 0.85843 0.00693 0.8354 0.0
C1626 C 0.84694 0.01552 0.84139 0.0
C1627 C 0.85834 0.98061 0.83569 0.0
C1628 C 0.85719 0.9283 0.84956 0.0
H1629 H 0.85247 0.79946 0.83743 0.0
H1630 H 0.83736 0.83609 0.83646 0.0
H1631 H 0.86917 0.90073 0.85547 0.0
H1632 H 0.82505 1.00235 0.85225 0.0
H1633 H 0.82449 0.95608 0.8527 0.0
H1634 H 0.84106 0.92359 0.83074 0.0
C1635 C 0.85602 0.84074 0.83993 0.0
C1636 C 0.86314 0.90551 0.85003 0.0
C1637 C 0.86459 0.81974 0.84049 0.0
C1638 C 0.8342 0.99649 0.84755 0.0
C1639 C 0.83406 0.97004 0.84783 0.0
C1640 C 0.8472 0.91884 0.83618 0.0
C1641 C 0.87094 0.8671 0.84396 0.0
C1642 C 0.8619 0.88951 0.84354 0.0
C1643 C 0.84667 0.96204 0.84197 0.0
C1644 C 0.84968 0.93565 0.8426 0.0
H1645 H 0.92187 0.85578 0.85254 0.0
H1646 H 0.90744 0.89243 0.85145 0.0
H1647 H 0.85213 0.88427 0.83153 0.0
H1648 H 0.8684 0.02096 0.83055 0.0
H1649 H 0.86857 0.97545 0.83111 0.0
C1650 C 0.16485 0.04772 0.85133 0.0
C1651 C 0.18437 0.0635 0.84548 0.0
C1652 C 0.14428 0.01838 0.85036 0.0
C1653 C 0.0995 0.96526 0.83652 0.0
H1654 H 0.09222 0.90812 0.85134 0.0
C1655 C 0.00655 0.84629 0.83427 0.0
C1656 C 0.99356 0.83185 0.84106 0.0
C1657 C 0.03278 0.87275 0.83436 0.0
C1658 C 0.09361 0.92376 0.84719 0.0
H1659 H 0.19752 0.06116 0.83402 0.0
H1660 H 0.16051 0.00973 0.83222 0.0
H1661 H 0.132 0.95817 0.85236 0.0
H1662 H 0.99812 0.83351 0.85327 0.0
H1663 H 0.043 0.88007 0.85348 0.0
H1664 H 0.0603 0.93174 0.83159 0.0
C1665 C 0.16163 0.02012 0.83758 0.0
C1666 C 0.11661 0.95239 0.84775 0.0
C1667 C 0.18275 0.04943 0.83861 0.0
C1668 C 0.00777 0.84396 0.84793 0.0
C1669 C 0.03368 0.87073 0.84804 0.0
C1670 C 0.07614 0.93677 0.83604 0.0
C1671 C 0.14234 0.00432 0.84348 0.0
C1672 C 0.11958 0.97347 0.84247 0.0
C1673 C 0.04637 0.88581 0.84126 0.0
C1674 C 0.0726 0.91562 0.84142 0.0
H1675 H 0.1656 0.058 0.85669 0.0
H1676 H 0.12947 0.00676 0.85496 0.0
H1677 H 0.10117 0.98121 0.83242 0.0
H1678 H 0.9962 0.83736 0.82888 0.0
H1679 H 0.04211 0.88313 0.829 0.0
C1680 C 0.95914 0.11867 0.85157 0.0
C1681 C 0.94365 0.12264 0.84569 0.0
C1682 C 0.98847 0.12724 0.85068 0.0
C1683 C 0.0419 0.13553 0.83689 0.0
H1684 H 0.09865 0.18389 0.85198 0.0
C1685 C 0.16062 0.16067 0.83479 0.0
C1686 C 0.17483 0.16154 0.84158 0.0
C1687 C 0.13425 0.16061 0.83489 0.0
C1688 C 0.08311 0.17006 0.84775 0.0
H1689 H 0.94652 0.13838 0.83423 0.0
H1690 H 0.99794 0.15249 0.83256 0.0
H1691 H 0.04876 0.17418 0.8529 0.0
H1692 H 0.17281 0.16359 0.85379 0.0
H1693 H 0.12635 0.16221 0.85402 0.0
H1694 H 0.07535 0.12972 0.83197 0.0
C1695 C 0.98732 0.14317 0.8379 0.0
C1696 C 0.05457 0.16473 0.84826 0.0
C1697 C 0.95802 0.13518 0.83885 0.0
C1698 C 0.16254 0.16322 0.84846 0.0
C1699 C 0.13584 0.16254 0.84857 0.0
C1700 C 0.0703 0.14035 0.83646 0.0
C1701 C 1.00282 0.1394 0.84383 0.0
C1702 C 0.03363 0.14719 0.84288 0.0
C1703 C 0.12102 0.16074 0.84179 0.0
C1704 C 0.0913 0.15742 0.84194 0.0
H1705 H 0.94863 0.10907 0.8569 0.0
H1706 H 0.99982 0.12382 0.85531 0.0
H1707 H 0.02607 0.12166 0.83272 0.0
H1708 H 0.1697 0.15961 0.82939 0.0
H1709 H 0.12409 0.16003 0.82953 0.0
C1710 C 0.8298 0.87391 0.67949 0.0
C1711 C 0.82498 0.88401 0.6726 0.0
C1712 C 0.85161 0.8664 0.68005 0.0
C1713 C 0.91805 0.87736 0.66975 0.0
H1714 H 0.91304 0.81817 0.68352 0.0
C1715 C 1.00252 0.83971 0.6694 0.0
C1716 C 0.01657 0.84319 0.67638 0.0
C1717 C 0.97678 0.84085 0.66899 0.0
C1718 C 0.91461 0.8347 0.67964 0.0
H1719 H 0.83796 0.89272 0.66083 0.0
H1720 H 0.87441 0.87821 0.66166 0.0
H1721 H 0.87256 0.82774 0.68269 0.0
H1722 H 0.01371 0.84871 0.68847 0.0
H1723 H 0.96834 0.84991 0.68775 0.0
H1724 H 0.95977 0.88378 0.66659 0.0
C1725 C 0.86267 0.87732 0.66675 0.0
C1726 C 0.89156 0.8404 0.6792 0.0
C1727 C 0.84149 0.88544 0.66624 0.0
C1728 C 1.00344 0.84606 0.683 0.0
C1729 C 0.97742 0.84663 0.6826 0.0
C1730 C 0.94071 0.87125 0.67008 0.0
C1731 C 0.86861 0.86833 0.67369 0.0
C1732 C 0.89295 0.86187 0.67424 0.0
C1733 C 0.96431 0.84489 0.67557 0.0
C1734 C 0.93929 0.84994 0.67503 0.0
H1735 H 0.81734 0.87267 0.68447 0.0
H1736 H 0.85561 0.85984 0.68552 0.0
H1737 H 0.92057 0.89467 0.66603 0.0
H1738 H 0.01216 0.83761 0.66421 0.0
H1739 H 0.96699 0.83931 0.6635 0.0
C1740 C 0.16589 0.16256 0.66999 0.0
C1741 C 0.16243 0.17322 0.67696 0.0
C1742 C 0.16415 0.13542 0.66957 0.0
C1743 C 0.16987 0.07912 0.68002 0.0
H1744 H 0.10945 0.02531 0.66648 0.0
C1745 C 0.13301 0.95573 0.67925 0.0
C1746 C 0.12285 0.9411 0.67233 0.0
C1747 C 0.13965 0.98475 0.67999 0.0
C1748 C 0.12687 0.04005 0.67018 0.0
H1749 H 0.15613 0.16455 0.68902 0.0
H1750 H 0.15397 0.11747 0.68829 0.0
H1751 H 0.12002 0.0753 0.66725 0.0
H1752 H 0.11286 0.94553 0.66068 0.0
H1753 H 0.12587 0.99605 0.6618 0.0
H1754 H 0.17743 0.04419 0.68281 0.0
C1755 C 0.15767 0.13001 0.68316 0.0
C1756 C 0.13277 0.06874 0.67064 0.0
C1757 C 0.15882 0.1569 0.68356 0.0
C1758 C 0.12028 0.95614 0.66612 0.0
C1759 C 0.12752 0.98516 0.6668 0.0
C1760 C 0.16441 0.05046 0.67945 0.0
C1761 C 0.15952 0.11868 0.67613 0.0
C1762 C 0.15428 0.08855 0.67556 0.0
C1763 C 0.13679 0.99984 0.67377 0.0
C1764 C 0.1428 0.03047 0.6745 0.0
H1765 H 0.16853 0.17452 0.6648 0.0
H1766 H 0.16576 0.12719 0.66409 0.0
H1767 H 0.18659 0.09403 0.68386 0.0
H1768 H 0.13509 0.94454 0.68413 0.0
H1769 H 0.14639 0.99504 0.68548 0.0
C1770 C 0.8506 0.0039 0.68372 0.0
C1771 C 0.83446 0.99148 0.67709 0.0
C1772 C 0.87736 0.02977 0.6834 0.0
C1773 C 0.93865 0.06627 0.67102 0.0
H1774 H 0.96314 0.13561 0.68311 0.0
C1775 C 0.05116 0.16593 0.66649 0.0
C1776 C 0.06629 0.18335 0.67271 0.0
C1777 C 0.02207 0.14438 0.66716 0.0
C1778 C 0.95686 0.11627 0.67978 0.0
H1779 H 0.83324 0.99697 0.66495 0.0
H1780 H 0.88035 0.04175 0.66437 0.0
H1781 H 0.91321 0.09501 0.68414 0.0
H1782 H 0.06299 0.19216 0.68452 0.0
H1783 H 0.01233 0.15331 0.68585 0.0
H1784 H 0.98212 0.08621 0.66691 0.0
C1785 C 0.87208 0.03157 0.66982 0.0
C1786 C 0.92818 0.09315 0.68033 0.0
C1787 C 0.84507 0.00604 0.67016 0.0
C1788 C 0.0517 0.179 0.67963 0.0
C1789 C 0.02262 0.15685 0.68036 0.0
C1790 C 0.96735 0.08898 0.67057 0.0
C1791 C 0.8887 0.04334 0.67641 0.0
C1792 C 0.91881 0.06811 0.67589 0.0
C1793 C 0.00746 0.13903 0.67414 0.0
C1794 C 0.97686 0.11452 0.67487 0.0
H1795 H 0.84295 0.99321 0.68915 0.0
H1796 H 0.88985 0.03838 0.68855 0.0
H1797 H 0.93209 0.04691 0.66764 0.0
H1798 H 0.06176 0.16908 0.66105 0.0
H1799 H 0.01109 0.13194 0.66216 0.0
C1800 C 0.81628 0.33195 0.51757 0.0
C1801 C 0.82845 0.32386 0.51164 0.0
C1802 C 0.81617 0.35818 0.51731 0.0
C1803 C 0.81829 0.41111 0.50347 0.0
H1804 H 0.82162 0.45432 0.52151 0.0
C1805 C 0.77271 0.48879 0.50364 0.0
C1806 C 0.78773 0.51512 0.50761 0.0
C1807 C 0.78083 0.46763 0.5043 0.0
C1808 C 0.82097 0.44275 0.5164 0.0
H1809 H 0.85135 0.33783 0.50093 0.0
H1810 H 0.85157 0.38391 0.50053 0.0
H1811 H 0.83252 0.41489 0.52239 0.0
H1812 H 0.82274 0.53983 0.51553 0.0
H1813 H 0.83728 0.50283 0.51664 0.0
H1814 H 0.80698 0.43902 0.49747 0.0
C1815 C 0.8416 0.36963 0.50533 0.0
C1816 C 0.82692 0.41991 0.51691 0.0
C1817 C 0.84166 0.34329 0.50558 0.0
C1818 C 0.81078 0.51969 0.5124 0.0
C1819 C 0.81903 0.49847 0.51305 0.0
C1820 C 0.81243 0.43395 0.50295 0.0
C1821 C 0.82829 0.37713 0.51112 0.0
C1822 C 0.82512 0.40343 0.51048 0.0
C1823 C 0.80432 0.47229 0.50894 0.0
C1824 C 0.81308 0.44968 0.50944 0.0
H1825 H 0.80593 0.31759 0.52234 0.0
H1826 H 0.80541 0.36297 0.52183 0.0
H1827 H 0.8164 0.39882 0.4984 0.0
H1828 H 0.75465 0.48451 0.49997 0.0
H1829 H 0.76852 0.44749 0.5012 0.0
C1830 C 0.50941 0.29018 0.50059 0.0
C1831 C 0.49176 0.27478 0.50676 0.0
C1832 C 0.531 0.31922 0.50135 0.0
C1833 C 0.5589 0.38405 0.51413 0.0
H1834 H 0.62831 0.4094 0.50198 0.0
C1835 C 0.67071 0.4912 0.51811 0.0
C1836 C 0.68315 0.50735 0.51147 0.0
C1837 C 0.64503 0.46423 0.51778 0.0
C1838 C 0.60895 0.40269 0.50536 0.0
H1839 H 0.48265 0.27763 0.51857 0.0
H1840 H 0.52154 0.32824 0.52006 0.0
H1841 H 0.58917 0.35932 0.50119 0.0
H1842 H 0.67784 0.50827 0.49932 0.0
H1843 H 0.63342 0.46086 0.49874 0.0
H1844 H 0.57997 0.42762 0.51856 0.0
C1845 C 0.51815 0.31816 0.51454 0.0
C1846 C 0.58632 0.37395 0.50488 0.0
C1847 C 0.49597 0.2891 0.51372 0.0
C1848 C 0.66876 0.49647 0.50454 0.0
C1849 C 0.64344 0.46927 0.50419 0.0
C1850 C 0.58194 0.41278 0.51472 0.0
C1851 C 0.5362 0.33358 0.50837 0.0
C1852 C 0.56071 0.3642 0.50917 0.0
C1853 C 0.63165 0.45266 0.51079 0.0
C1854 C 0.60701 0.4224 0.51027 0.0
H1855 H 0.50641 0.27982 0.49512 0.0
H1856 H 0.54359 0.33038 0.49638 0.0
H1857 H 0.53953 0.37762 0.51747 0.0
H1858 H 0.68125 0.49902 0.52354 0.0
H1859 H 0.63643 0.45179 0.52294 0.0
C1860 C 0.51406 0.17687 0.51761 0.0
C1861 C 0.50003 0.17643 0.51083 0.0
C1862 C 0.54047 0.17703 0.5175 0.0
C1863 C 0.59229 0.16895 0.50457 0.0
H1864 H 0.6486 0.21639 0.51985 0.0
C1865 C 0.71651 0.22108 0.50108 0.0
C1866 C 0.7318 0.21681 0.50697 0.0
C1867 C 0.68711 0.2123 0.5019 0.0
C1868 C 0.63297 0.20278 0.51561 0.0
H1869 H 0.50235 0.17523 0.4986 0.0
H1870 H 0.54893 0.17681 0.49835 0.0
H1871 H 0.5992 0.20802 0.52055 0.0
H1872 H 0.72848 0.20031 0.51836 0.0
H1873 H 0.67692 0.18583 0.51991 0.0
H1874 H 0.62698 0.16542 0.49941 0.0
C1875 C 0.53927 0.17606 0.5038 0.0
C1876 C 0.60451 0.19779 0.51601 0.0
C1877 C 0.51251 0.17525 0.50393 0.0
C1878 C 0.71714 0.20376 0.51373 0.0
C1879 C 0.68776 0.19555 0.51462 0.0
C1880 C 0.62091 0.17446 0.50409 0.0
C1881 C 0.55394 0.17748 0.51059 0.0
C1882 C 0.58376 0.18103 0.51044 0.0
C1883 C 0.67247 0.19962 0.50869 0.0
C1884 C 0.64158 0.19165 0.50957 0.0
H1885 H 0.50482 0.17754 0.52302 0.0
H1886 H 0.5505 0.17727 0.52285 0.0
H1887 H 0.57696 0.15539 0.50027 0.0
H1888 H 0.72723 0.23107 0.4958 0.0
H1889 H 0.67591 0.21596 0.49728 0.0
C1890 C 0.85299 0.47208 0.67396 0.0
C1891 C 0.84901 0.45005 0.67904 0.0
C1892 C 0.83172 0.48023 0.67325 0.0
C1893 C 0.76853 0.47569 0.68361 0.0
H1894 H 0.74854 0.49443 0.66413 0.0
C1895 C 0.66672 0.48048 0.66917 0.0
C1896 C 0.65924 0.49328 0.67507 0.0
C1897 C 0.69267 0.47982 0.66939 0.0
C1898 C 0.7538 0.4892 0.66962 0.0
H1899 H 0.81933 0.41846 0.68713 0.0
H1900 H 0.78208 0.432 0.68576 0.0
H1901 H 0.78732 0.48263 0.66495 0.0
H1902 H 0.67402 0.51676 0.68568 0.0
H1903 H 0.71968 0.51612 0.686 0.0
H1904 H 0.73421 0.48087 0.68824 0.0
C1905 C 0.80186 0.44371 0.68248 0.0
C1906 C 0.77629 0.48273 0.6701 0.0
C1907 C 0.82311 0.43574 0.68322 0.0
C1908 C 0.67902 0.50659 0.68105 0.0
C1909 C 0.70511 0.50602 0.68126 0.0
C1910 C 0.746 0.482 0.68313 0.0
C1911 C 0.80604 0.46638 0.67759 0.0
C1912 C 0.78358 0.47536 0.67709 0.0
C1913 C 0.71198 0.49207 0.67551 0.0
C1914 C 0.73798 0.48838 0.6761 0.0
H1915 H 0.87281 0.48349 0.67067 0.0
H1916 H 0.83574 0.49785 0.66945 0.0
H1917 H 0.77392 0.47072 0.68912 0.0
H1918 H 0.65208 0.47001 0.66446 0.0
H1919 H 0.69694 0.46856 0.6649 0.0
C1920 C 0.5174 0.18219 0.66895 0.0
C1921 C 0.51464 0.16655 0.67563 0.0
C1922 C 0.51837 0.20901 0.66926 0.0
C1923 C 0.54537 0.27138 0.68125 0.0
H1924 H 0.49714 0.29436 0.67013 0.0
C1925 C 0.5574 0.38326 0.68624 0.0
C1926 C 0.55354 0.39805 0.68018 0.0
C1927 C 0.5502 0.35429 0.6855 0.0
C1928 C 0.51113 0.28849 0.67318 0.0
H1929 H 0.50979 0.1663 0.68783 0.0
H1930 H 0.51233 0.21353 0.68836 0.0
H1931 H 0.48804 0.24449 0.66907 0.0
H1932 H 0.53892 0.39421 0.66858 0.0
H1933 H 0.52755 0.3437 0.66711 0.0
H1934 H 0.56949 0.31517 0.6851 0.0
C1935 C 0.51336 0.2048 0.6829 0.0
C1936 C 0.50572 0.25986 0.67261 0.0
C1937 C 0.51178 0.17774 0.68258 0.0
C1938 C 0.54201 0.3832 0.67335 0.0
C1939 C 0.53536 0.35421 0.67254 0.0
C1940 C 0.55118 0.30001 0.6817 0.0
C1941 C 0.51719 0.22089 0.67626 0.0
C1942 C 0.52258 0.25103 0.67673 0.0
C1943 C 0.53966 0.33944 0.6786 0.0
C1944 C 0.53389 0.30897 0.67778 0.0
H1945 H 0.51959 0.17409 0.66351 0.0
H1946 H 0.52146 0.2211 0.66407 0.0
H1947 H 0.55906 0.26522 0.68436 0.0
H1948 H 0.56589 0.39405 0.69162 0.0
H1949 H 0.55295 0.3436 0.69039 0.0
C1950 C 0.82933 0.33387 0.66806 0.0
C1951 C 0.84398 0.3474 0.67478 0.0
C1952 C 0.80296 0.30758 0.66828 0.0
C1953 C 0.75193 0.24772 0.68138 0.0
H1954 H 0.69469 0.23921 0.66642 0.0
C1955 C 0.62776 0.17581 0.68536 0.0
C1956 C 0.61205 0.15644 0.67948 0.0
C1957 C 0.65715 0.19637 0.68445 0.0
C1958 C 0.71056 0.24112 0.67057 0.0
H1959 H 0.84286 0.34371 0.687 0.0
H1960 H 0.79636 0.29865 0.68744 0.0
H1961 H 0.74411 0.28002 0.66554 0.0
H1962 H 0.61464 0.14355 0.668 0.0
H1963 H 0.66615 0.1805 0.6663 0.0
H1964 H 0.71745 0.2096 0.68664 0.0
C1965 C 0.80549 0.30761 0.68195 0.0
C1966 C 0.73906 0.26447 0.67007 0.0
C1967 C 0.83223 0.3336 0.68172 0.0
C1968 C 0.62629 0.15818 0.67263 0.0
C1969 C 0.65566 0.17929 0.67166 0.0
C1970 C 0.72327 0.22472 0.68196 0.0
C1971 C 0.79011 0.29447 0.67523 0.0
C1972 C 0.76019 0.26833 0.6755 0.0
C1973 C 0.67137 0.19847 0.67758 0.0
C1974 C 0.70226 0.22136 0.6766 0.0
H1975 H 0.838 0.34393 0.66262 0.0
H1976 H 0.79244 0.29789 0.66296 0.0
H1977 H 0.76751 0.24937 0.68558 0.0
H1978 H 0.61738 0.17498 0.69071 0.0
H1979 H 0.66866 0.21108 0.68908 0.0
C1980 C 0.53982 0.15884 0.17212 0.0
C1981 C 0.55276 0.15721 0.1789 0.0
C1982 C 0.53161 0.18001 0.17121 0.0
C1983 C 0.51021 0.22555 0.18171 0.0
H1984 H 0.54433 0.28127 0.16537 0.0
C1985 C 0.5115 0.33495 0.18205 0.0
C1986 C 0.51289 0.34884 0.17518 0.0
C1987 C 0.51216 0.30892 0.18213 0.0
C1988 C 0.53394 0.2656 0.16987 0.0
H1989 H 0.56684 0.17599 0.19008 0.0
H1990 H 0.55174 0.21219 0.18857 0.0
H1991 H 0.55261 0.24018 0.16602 0.0
H1992 H 0.51423 0.34552 0.16297 0.0
H1993 H 0.51373 0.29945 0.16306 0.0
H1994 H 0.4911 0.25039 0.18554 0.0
C1995 C 0.54816 0.19736 0.18394 0.0
C1996 C 0.53888 0.2421 0.17025 0.0
C1997 C 0.55694 0.17674 0.18478 0.0
C1998 C 0.5134 0.33543 0.16837 0.0
C1999 C 0.51343 0.3091 0.16844 0.0
C2000 C 0.50476 0.24871 0.18125 0.0
C2001 C 0.53557 0.19933 0.17714 0.0
C2002 C 0.52756 0.22221 0.17625 0.0
C2003 C 0.51365 0.29583 0.17532 0.0
C2004 C 0.51707 0.26949 0.17542 0.0
H2005 H 0.53644 0.14407 0.1675 0.0
H2006 H 0.52197 0.18116 0.16591 0.0
H2007 H 0.50103 0.21033 0.18637 0.0
H2008 H 0.51141 0.34494 0.18739 0.0
H2009 H 0.51275 0.29981 0.18757 0.0
C2010 C 0.8331 0.38225 0.18483 0.0
C2011 C 0.85254 0.39779 0.17895 0.0
C2012 C 0.8122 0.35298 0.18391 0.0
C2013 C 0.76669 0.29983 0.17011 0.0
H2014 H 0.75845 0.24279 0.18509 0.0
C2015 C 0.6729 0.18108 0.168 0.0
C2016 C 0.65978 0.16678 0.17479 0.0
C2017 C 0.69918 0.2075 0.16808 0.0
C2018 C 0.76011 0.25841 0.18089 0.0
H2019 H 0.8652 0.39507 0.16746 0.0
H2020 H 0.82765 0.34377 0.16574 0.0
H2021 H 0.79872 0.29261 0.18603 0.0
H2022 H 0.66416 0.16871 0.187 0.0
H2023 H 0.70915 0.21521 0.1872 0.0
H2024 H 0.7273 0.26651 0.16521 0.0
C2025 C 0.82907 0.3543 0.1711 0.0
C2026 C 0.78339 0.28692 0.18141 0.0
C2027 C 0.85052 0.38353 0.17209 0.0
C2028 C 0.67389 0.17905 0.18166 0.0
C2029 C 0.69987 0.20577 0.18176 0.0
C2030 C 0.74306 0.27146 0.16967 0.0
C2031 C 0.80984 0.33874 0.17703 0.0
C2032 C 0.78673 0.30796 0.17607 0.0
C2033 C 0.71272 0.22067 0.17497 0.0
C2034 C 0.73917 0.25036 0.17511 0.0
H2035 H 0.83413 0.39266 0.19019 0.0
H2036 H 0.79746 0.34158 0.18854 0.0
H2037 H 0.76863 0.31574 0.16596 0.0
H2038 H 0.66265 0.17204 0.1626 0.0
H2039 H 0.70862 0.21773 0.16271 0.0
C2040 C 0.82662 0.49159 0.16857 0.0
C2041 C 0.84264 0.4948 0.17521 0.0
C2042 C 0.79982 0.49064 0.16893 0.0
C2043 C 0.73824 0.46543 0.18134 0.0
H2044 H 0.71396 0.51038 0.16919 0.0
C2045 C 0.62582 0.453 0.18583 0.0
C2046 C 0.61069 0.45538 0.17961 0.0
C2047 C 0.65487 0.4604 0.18516 0.0
C2048 C 0.72018 0.4973 0.17254 0.0
H2049 H 0.84356 0.5005 0.18738 0.0
H2050 H 0.79639 0.4981 0.18801 0.0
H2051 H 0.76386 0.51958 0.1682 0.0
H2052 H 0.61404 0.46753 0.16781 0.0
H2053 H 0.66467 0.47914 0.16647 0.0
H2054 H 0.69473 0.44203 0.18543 0.0
C2055 C 0.80478 0.49662 0.18254 0.0
C2056 C 0.74885 0.50278 0.17201 0.0
C2057 C 0.83183 0.49815 0.18217 0.0
C2058 C 0.6253 0.46559 0.17269 0.0
C2059 C 0.65437 0.4724 0.17196 0.0
C2060 C 0.70956 0.45954 0.18176 0.0
C2061 C 0.78829 0.49232 0.17594 0.0
C2062 C 0.75818 0.48708 0.17647 0.0
C2063 C 0.66951 0.46963 0.17818 0.0
C2064 C 0.7001 0.4756 0.17745 0.0
H2065 H 0.83441 0.48902 0.16312 0.0
H2066 H 0.78748 0.48719 0.16377 0.0
H2067 H 0.74471 0.45259 0.18472 0.0
H2068 H 0.61523 0.44557 0.19127 0.0
H2069 H 0.66581 0.45886 0.19016 0.0
C2070 C 0.66447 0.16512 1.00462 0.0
C2071 C 0.68349 0.17791 0.01077 0.0
C2072 C 0.63795 0.16484 1.00435 0.0
C2073 C 0.58654 0.17767 0.01601 0.0
H2074 H 0.56846 0.1998 0.99673 0.0
C2075 C 0.51912 0.23415 1.00327 0.0
C2076 C 0.49256 0.21888 1.00713 0.0
C2077 C 0.54 0.22563 1.00383 0.0
C2078 C 0.57324 0.19371 1.00217 0.0
H2079 H 0.68883 0.19927 0.02162 0.0
H2080 H 0.64318 0.19919 0.02108 0.0
H2081 H 0.60862 0.19025 0.99758 0.0
H2082 H 0.46718 0.18301 0.01475 0.0
H2083 H 0.5037 0.16776 0.0157 0.0
H2084 H 0.55192 0.18249 0.02066 0.0
C2085 C 0.64841 0.18903 0.0165 0.0
C2086 C 0.59604 0.18779 1.00263 0.0
C2087 C 0.67481 0.18928 0.01678 0.0
C2088 C 0.48747 0.19516 0.01171 0.0
C2089 C 0.50844 0.18652 0.01226 0.0
C2090 C 0.56374 0.18368 0.01555 0.0
C2091 C 0.62985 0.17734 0.01021 0.0
C2092 C 0.6034 0.18024 1.00958 0.0
C2093 C 0.53484 0.20148 1.00825 0.0
C2094 C 0.55722 0.1924 1.00865 0.0
H2095 H 0.6704 0.15606 0.99991 0.0
H2096 H 0.624 0.15524 0.99947 0.0
H2097 H 0.5913 0.17149 0.02143 0.0
H2098 H 0.5238 0.25274 0.99975 0.0
H2099 H 0.56031 0.23812 1.00082 0.0
C2100 C 0.80349 0.29009 0.01295 0.0
C2101 C 0.79037 0.27524 1.00621 0.0
C2102 C 0.81158 0.31944 0.0138 0.0
C2103 C 0.83203 0.38598 1.00316 0.0
H2104 H 0.79933 0.40794 0.01977 0.0
C2105 C 0.83132 0.49447 1.00315 0.0
C2106 C 0.83051 0.50699 0.01008 0.0
C2107 C 0.8305 0.4677 1.00298 0.0
C2108 C 0.80932 0.40256 0.01519 0.0
H2109 H 0.77583 0.27945 0.99505 0.0
H2110 H 0.79069 0.33075 0.99646 0.0
H2111 H 0.79095 0.35855 0.01907 0.0
H2112 H 0.83007 0.50231 0.02227 0.0
H2113 H 0.83032 0.45663 0.02202 0.0
H2114 H 0.85089 0.42987 0.9993 0.0
C2115 C 0.79452 0.31971 1.00109 0.0
C2116 C 0.80431 0.3741 0.01478 0.0
C2117 C 0.78588 0.29032 1.00031 0.0
C2118 C 0.83045 0.49302 0.01684 0.0
C2119 C 0.83027 0.46661 0.01668 0.0
C2120 C 0.83755 0.41461 1.00364 0.0
C2121 C 0.80729 0.33453 1.00785 0.0
C2122 C 0.81515 0.36541 1.00869 0.0
C2123 C 0.82942 0.45307 0.00975 0.0
C2124 C 0.8258 0.42323 1.00958 0.0
H2125 H 0.80711 0.27891 0.01759 0.0
H2126 H 0.82137 0.33042 0.01906 0.0
H2127 H 0.84085 0.37985 0.99844 0.0
H2128 H 0.83105 0.50458 0.99785 0.0
H2129 H 0.82944 0.45799 0.99752 0.0
C2130 C 0.51102 0.33834 1.00397 0.0
C2131 C 0.50007 0.32395 0.0109 0.0
C2132 C 0.53822 0.36364 1.00363 0.0
C2133 C 0.59455 0.42523 0.0141 0.0
H2134 H 0.64824 0.41769 1.00072 0.0
C2135 C 0.71808 0.51147 0.01307 0.0
C2136 C 0.73246 0.51553 1.00613 0.0
C2137 C 0.68908 0.4892 0.01391 0.0
C2138 C 0.63354 0.42062 1.00438 0.0
H2139 H 0.5083 0.3258 0.02297 0.0
H2140 H 0.55557 0.37062 0.02239 0.0
H2141 H 0.59818 0.37849 1.00154 0.0
H2142 H 0.72756 0.5005 0.99453 0.0
H2143 H 0.67707 0.46314 0.99582 0.0
H2144 H 0.6296 0.46776 0.01678 0.0
C2145 C 0.54316 0.36202 0.01722 0.0
C2146 C 0.60482 0.39796 1.00487 0.0
C2147 C 0.51617 0.33636 0.01755 0.0
C2148 C 0.71716 0.49763 0.99999 0.0
C2149 C 0.68816 0.47593 1.00076 0.0
C2150 C 0.62325 0.44829 0.0135 0.0
C2151 C 0.55478 0.3754 0.01023 0.0
C2152 C 0.58503 0.40002 0.00972 0.0
C2153 C 0.67376 0.47091 1.00777 0.0
C2154 C 0.64318 0.44636 1.00859 0.0
H2155 H 0.49926 0.32929 0.99874 0.0
H2156 H 0.54669 0.37366 0.99818 0.0
H2157 H 0.57964 0.42728 0.01789 0.0
H2158 H 0.72948 0.52499 0.0179 0.0
H2159 H 0.67897 0.48594 0.01942 0.0
C2160 C 0.46638 0.845 0.84653 0.0
C2161 C 0.45611 0.84956 0.83964 0.0
C2162 C 0.47328 0.82278 0.8472 0.0
C2163 C 0.46092 0.75513 0.83725 0.0
H2164 H 0.5209 0.76092 0.85085 0.0
C2165 C 0.49976 0.67145 0.83695 0.0
C2166 C 0.49657 0.65752 0.84395 0.0
C2167 C 0.4981 0.69691 0.83653 0.0
C2168 C 0.50412 0.75911 0.84702 0.0
H2169 H 0.44619 0.83543 0.82797 0.0
H2170 H 0.45959 0.79818 0.82897 0.0
H2171 H 0.51145 0.80144 0.84989 0.0
H2172 H 0.49088 0.66028 0.85602 0.0
H2173 H 0.48886 0.70525 0.85528 0.0
H2174 H 0.45424 0.71315 0.83425 0.0
C2175 C 0.46116 0.81054 0.834 0.0
C2176 C 0.49849 0.7822 0.84651 0.0
C2177 C 0.45368 0.83218 0.83339 0.0
C2178 C 0.49335 0.67048 0.85055 0.0
C2179 C 0.49229 0.69626 0.85014 0.0
C2180 C 0.46697 0.73242 0.83765 0.0
C2181 C 0.47054 0.80504 0.84094 0.0
C2182 C 0.47677 0.78056 0.8416 0.0
C2183 C 0.49383 0.70925 0.8431 0.0
C2184 C 0.48857 0.73413 0.84254 0.0
H2185 H 0.46836 0.85809 0.85144 0.0
H2186 H 0.48009 0.81914 0.85267 0.0
H2187 H 0.44342 0.75241 0.83357 0.0
H2188 H 0.50209 0.66194 0.83177 0.0
H2189 H 0.49948 0.70661 0.83104 0.0
C2190 C 0.17572 0.62246 0.83342 0.0
C2191 C 0.15838 0.60759 0.83968 0.0
C2192 C 0.1972 0.65163 0.83399 0.0
C2193 C 0.22501 0.71752 0.84637 0.0
H2194 H 0.29432 0.7424 0.83421 0.0
C2195 C 0.33642 0.82426 0.85043 0.0
C2196 C 0.34958 0.84029 0.84382 0.0
C2197 C 0.31063 0.79746 0.85001 0.0
C2198 C 0.27497 0.73583 0.83758 0.0
H2199 H 0.14976 0.61149 0.85147 0.0
H2200 H 0.18845 0.66229 0.85263 0.0
H2201 H 0.25526 0.69222 0.83358 0.0
H2202 H 0.3455 0.84124 0.83163 0.0
H2203 H 0.30078 0.79401 0.83089 0.0
H2204 H 0.246 0.76129 0.85064 0.0
C2205 C 0.18489 0.65172 0.84718 0.0
C2206 C 0.25239 0.70703 0.8372 0.0
C2207 C 0.16283 0.62254 0.84655 0.0
C2208 C 0.33581 0.82949 0.83682 0.0
C2209 C 0.31034 0.80242 0.83639 0.0
C2210 C 0.24797 0.7463 0.84686 0.0
C2211 C 0.20257 0.66664 0.84091 0.0
C2212 C 0.22689 0.69742 0.84153 0.0
C2213 C 0.29783 0.78591 0.84297 0.0
C2214 C 0.27304 0.75575 0.84241 0.0
H2215 H 0.17254 0.61161 0.82802 0.0
H2216 H 0.20954 0.66237 0.82896 0.0
H2217 H 0.2057 0.71121 0.84972 0.0
H2218 H 0.34649 0.83204 0.85591 0.0
H2219 H 0.3015 0.78511 0.85516 0.0
C2220 C 0.38516 0.5406 0.84651 0.0
C2221 C 0.40006 0.5511 0.83963 0.0
C2222 C 0.35601 0.53355 0.84716 0.0
C2223 C 0.30065 0.54587 0.83724 0.0
H2224 H 0.24648 0.48529 0.8507 0.0
C2225 C 0.17817 0.50688 0.83694 0.0
C2226 C 0.16746 0.50995 0.84395 0.0
C2227 C 0.20524 0.50846 0.83649 0.0
C2228 C 0.26144 0.50223 0.84692 0.0
H2229 H 0.39598 0.56131 0.82798 0.0
H2230 H 0.34524 0.54765 0.82896 0.0
H2231 H 0.29653 0.49499 0.84975 0.0
H2232 H 0.17587 0.51527 0.85603 0.0
H2233 H 0.22278 0.51715 0.85525 0.0
H2234 H 0.26528 0.55248 0.83428 0.0
C2235 C 0.356 0.54601 0.83398 0.0
C2236 C 0.29021 0.508 0.8464 0.0
C2237 C 0.38516 0.55363 0.83338 0.0
C2238 C 0.18358 0.51289 0.85054 0.0
C2239 C 0.21037 0.51388 0.85011 0.0
C2240 C 0.27186 0.53968 0.83764 0.0
C2241 C 0.34105 0.53637 0.8409 0.0
C2242 C 0.31028 0.52995 0.84155 0.0
C2243 C 0.22183 0.51252 0.84306 0.0
C2244 C 0.25198 0.51786 0.84248 0.0
H2245 H 0.39624 0.53854 0.85141 0.0
H2246 H 0.34548 0.52654 0.85262 0.0
H2247 H 0.31544 0.56353 0.83361 0.0
H2248 H 0.16636 0.50476 0.83176 0.0
H2249 H 0.21357 0.50723 0.83099 0.0
C2250 C 0.51583 0.80229 1.00637 0.0
C2251 C 0.51776 0.78968 0.01318 0.0
C2252 C 0.49471 0.81058 1.00549 0.0
C2253 C 0.44914 0.83214 0.01602 0.0
H2254 H 0.39442 0.79883 0.99944 0.0
C2255 C 0.34006 0.832 0.01568 0.0
C2256 C 0.3267 0.83048 1.00871 0.0
C2257 C 0.36611 0.83135 0.01596 0.0
C2258 C 0.40982 0.80901 1.00402 0.0
H2259 H 0.49956 0.77629 0.02444 0.0
H2260 H 0.46338 0.79146 0.02296 0.0
H2261 H 0.43521 0.7902 1.00027 0.0
H2262 H 0.33101 0.82917 0.99655 0.0
H2263 H 0.37714 0.82988 0.99697 0.0
H2264 H 0.42429 0.85141 0.01974 0.0
C2265 C 0.47798 0.79477 0.0183 0.0
C2266 C 0.43315 0.80385 1.00449 0.0
C2267 C 0.49858 0.78594 0.01912 0.0
C2268 C 0.34073 0.83011 1.00201 0.0
C2269 C 0.36706 0.83016 1.00227 0.0
C2270 C 0.42613 0.83781 0.01547 0.0
C2271 C 0.47569 0.80699 0.01147 0.0
C2272 C 0.45272 0.81492 0.01057 0.0
C2273 C 0.3797 0.82976 1.00925 0.0
C2274 C 0.40577 0.8259 1.00953 0.0
H2275 H 0.53033 0.80535 1.0017 0.0
H2276 H 0.49335 0.81995 1.00016 0.0
H2277 H 0.46411 0.84113 0.02073 0.0
H2278 H 0.32953 0.83196 0.02094 0.0
H2279 H 0.37475 0.83072 0.02146 0.0
C2280 C 0.22485 0.71752 0.01959 0.0
C2281 C 0.22242 0.7327 0.01339 0.0
C2282 C 0.21728 0.6884 0.01892 0.0
C2283 C 0.17889 0.62305 1.00636 0.0
H2284 H 0.22173 0.59656 0.01862 0.0
C2285 C 0.18211 0.51557 1.00218 0.0
C2286 C 0.17851 0.49907 1.00874 0.0
C2287 C 0.18339 0.54249 1.00264 0.0
C2288 C 0.20937 0.60358 0.01522 0.0
H2289 H 0.21014 0.72934 1.0016 0.0
H2290 H 0.1983 0.67868 1.00025 0.0
H2291 H 0.23379 0.64703 0.01931 0.0
H2292 H 0.17246 0.49741 0.0209 0.0
H2293 H 0.17549 0.54491 0.02173 0.0
H2294 H 0.15564 0.57943 1.00199 0.0
C2295 C 0.20521 0.68898 1.00573 0.0
C2296 C 0.21615 0.63256 0.01563 0.0
C2297 C 0.21223 0.71812 1.00646 0.0
C2298 C 0.17503 0.50951 0.01574 0.0
C2299 C 0.17695 0.53674 0.01623 0.0
C2300 C 0.17254 0.59409 1.00583 0.0
C2301 C 0.20773 0.6737 0.01196 0.0
C2302 C 0.20084 0.64276 0.01127 0.0
C2303 C 0.18172 0.55373 0.0097 0.0
C2304 C 0.18756 0.58406 0.01032 0.0
H2305 H 0.23228 0.72804 0.02504 0.0
H2306 H 0.21872 0.67742 0.02392 0.0
H2307 H 0.16629 0.62978 1.00298 0.0
H2308 H 0.18484 0.50807 0.9967 0.0
H2309 H 0.18721 0.5552 0.99753 0.0
C2310 C 0.28884 0.49528 1.00657 0.0
C2311 C 0.27415 0.49114 0.01347 0.0
C2312 C 0.31788 0.51759 1.00581 0.0
C2313 C 0.37323 0.58593 0.01549 0.0
H2314 H 0.4277 0.57858 1.00236 0.0
C2315 C 0.49588 0.66819 0.01623 0.0
C2316 C 0.50714 0.682 1.00926 0.0
C2317 C 0.46864 0.6429 0.01658 0.0
C2318 C 0.41265 0.58082 1.00605 0.0
H2319 H 0.27854 0.50623 0.02505 0.0
H2320 H 0.32898 0.54363 0.0239 0.0
H2321 H 0.37747 0.5385 1.00325 0.0
H2322 H 0.49954 0.67914 0.99714 0.0
H2323 H 0.45229 0.63442 0.99776 0.0
H2324 H 0.40867 0.62787 0.01844 0.0
C2325 C 0.31814 0.53086 0.01893 0.0
C2326 C 0.38379 0.55799 1.00652 0.0
C2327 C 0.28914 0.50913 0.01962 0.0
C2328 C 0.49139 0.66903 1.0026 0.0
C2329 C 0.46442 0.64341 1.00294 0.0
C2330 C 0.40209 0.60837 0.01514 0.0
C2331 C 0.33291 0.53584 0.01199 0.0
C2332 C 0.36364 0.56019 0.01128 0.0
C2333 C 0.45242 0.63059 0.00996 0.0
C2334 C 0.4221 0.60606 0.01043 0.0
H2335 H 0.27776 0.48165 1.00173 0.0
H2336 H 0.3283 0.52081 1.00035 0.0
H2337 H 0.35838 0.58905 0.01903 0.0
H2338 H 0.5074 0.67772 0.02146 0.0
H2339 H 0.45988 0.63332 0.02206 0.0
C2340 C 0.22212 0.50945 0.51836 0.0
C2341 C 0.21815 0.49001 0.51248 0.0
C2342 C 0.21315 0.52994 0.51752 0.0
C2343 C 0.20325 0.57417 0.50371 0.0
H2344 H 0.15572 0.5828 0.51901 0.0
C2345 C 0.1764 0.66628 0.50132 0.0
C2346 C 0.17596 0.68021 0.50803 0.0
C2347 C 0.17654 0.64003 0.50155 0.0
C2348 C 0.16931 0.58103 0.51473 0.0
H2349 H 0.20199 0.47689 0.50106 0.0
H2350 H 0.18717 0.5137 0.49947 0.0
H2351 H 0.16634 0.54321 0.52 0.0
H2352 H 0.17458 0.67728 0.52026 0.0
H2353 H 0.17613 0.63224 0.52073 0.0
H2354 H 0.20795 0.61277 0.49866 0.0
C2355 C 0.1968 0.51261 0.50478 0.0
C2356 C 0.17517 0.55815 0.51527 0.0
C2357 C 0.20522 0.4916 0.50569 0.0
C2358 C 0.17457 0.66683 0.51499 0.0
C2359 C 0.1754 0.64088 0.51524 0.0
C2360 C 0.19791 0.5974 0.50324 0.0
C2361 C 0.20057 0.53187 0.51072 0.0
C2362 C 0.19239 0.55465 0.50981 0.0
C2363 C 0.17704 0.62738 0.50852 0.0
C2364 C 0.18105 0.60138 0.50878 0.0
H2365 H 0.23201 0.50874 0.52366 0.0
H2366 H 0.21659 0.54471 0.52215 0.0
H2367 H 0.21688 0.57216 0.49947 0.0
H2368 H 0.17725 0.67602 0.49586 0.0
H2369 H 0.17686 0.63003 0.49624 0.0
C2370 C 0.51601 0.71593 0.5052 0.0
C2371 C 0.51756 0.73046 0.51199 0.0
C2372 C 0.49499 0.68652 0.5043 0.0
C2373 C 0.44959 0.61951 0.5148 0.0
H2374 H 0.39373 0.59794 0.4985 0.0
C2375 C 0.3399 0.51188 0.51529 0.0
C2376 C 0.32591 0.49928 0.50843 0.0
C2377 C 0.36603 0.53846 0.51533 0.0
C2378 C 0.40945 0.60321 0.50299 0.0
H2379 H 0.49881 0.72563 0.52317 0.0
H2380 H 0.46286 0.67428 0.52167 0.0
H2381 H 0.4349 0.64727 0.49912 0.0
H2382 H 0.32917 0.50365 0.49622 0.0
H2383 H 0.37539 0.54906 0.49624 0.0
H2384 H 0.4247 0.5756 0.51866 0.0
C2385 C 0.47765 0.68559 0.51704 0.0
C2386 C 0.43299 0.63163 0.50335 0.0
C2387 C 0.49812 0.71502 0.51788 0.0
C2388 C 0.33932 0.513 0.5016 0.0
C2389 C 0.36574 0.53924 0.50163 0.0
C2390 C 0.42639 0.59094 0.51437 0.0
C2391 C 0.47574 0.67108 0.51024 0.0
C2392 C 0.45291 0.64019 0.50935 0.0
C2393 C 0.37912 0.55283 0.5085 0.0
C2394 C 0.40555 0.58249 0.50855 0.0
H2395 H 0.53071 0.7274 0.50057 0.0
H2396 H 0.49387 0.67577 0.499 0.0
H2397 H 0.46485 0.62556 0.51945 0.0
H2398 H 0.32993 0.50195 0.52064 0.0
H2399 H 0.37523 0.54824 0.52075 0.0
C2400 C 0.49092 0.8237 0.5014 0.0
C2401 C 0.50651 0.82663 0.5081 0.0
C2402 C 0.46368 0.82183 0.50167 0.0
C2403 C 0.40076 0.79317 0.51363 0.0
H2404 H 0.37612 0.8394 0.50219 0.0
C2405 C 0.28815 0.77972 0.51857 0.0
C2406 C 0.27314 0.78348 0.51254 0.0
C2407 C 0.31701 0.78665 0.51775 0.0
C2408 C 0.38244 0.82593 0.50533 0.0
H2409 H 0.50616 0.83083 0.5203 0.0
H2410 H 0.45822 0.82677 0.52077 0.0
H2411 H 0.42644 0.84979 0.50124 0.0
H2412 H 0.27655 0.79749 0.5009 0.0
H2413 H 0.32684 0.8083 0.49928 0.0
H2414 H 0.357 0.76832 0.51747 0.0
C2415 C 0.46731 0.82627 0.51532 0.0
C2416 C 0.41134 0.8321 0.50482 0.0
C2417 C 0.49479 0.82875 0.51504 0.0
C2418 C 0.28764 0.79434 0.50563 0.0
C2419 C 0.31654 0.80075 0.50475 0.0
C2420 C 0.37186 0.78661 0.51402 0.0
C2421 C 0.45128 0.82224 0.50865 0.0
C2422 C 0.42081 0.816 0.50906 0.0
C2423 C 0.33162 0.79687 0.5108 0.0
C2424 C 0.36228 0.80316 0.50998 0.0
H2425 H 0.49941 0.82205 0.49596 0.0
H2426 H 0.4517 0.81862 0.49645 0.0
H2427 H 0.40738 0.78003 0.51683 0.0
H2428 H 0.27769 0.77174 0.52401 0.0
H2429 H 0.3279 0.78418 0.52264 0.0
C2430 C 0.17773 0.55699 0.33375 0.0
C2431 C 0.15836 0.55313 0.33965 0.0
C2432 C 0.1989 0.549 0.33469 0.0
C2433 C 0.24467 0.54129 0.34848 0.0
H2434 H 0.25258 0.49263 0.3334 0.0
C2435 C 0.33731 0.51467 0.3506 0.0
C2436 C 0.35059 0.51359 0.34382 0.0
C2437 C 0.31126 0.51524 0.35049 0.0
C2438 C 0.25102 0.50655 0.33762 0.0
H2439 H 0.14617 0.53823 0.35119 0.0
H2440 H 0.1842 0.52515 0.35294 0.0
H2441 H 0.21256 0.50258 0.3325 0.0
H2442 H 0.34667 0.51174 0.33161 0.0
H2443 H 0.30201 0.51394 0.33135 0.0
H2444 H 0.28388 0.54683 0.35338 0.0
C2445 C 0.18255 0.534 0.34756 0.0
C2446 C 0.22789 0.51203 0.33713 0.0
C2447 C 0.16085 0.54146 0.34656 0.0
C2448 C 0.33681 0.51225 0.33693 0.0
C2449 C 0.31104 0.51342 0.3368 0.0
C2450 C 0.26814 0.53629 0.3489 0.0
C2451 C 0.20159 0.53747 0.34159 0.0
C2452 C 0.22466 0.52968 0.34251 0.0
C2453 C 0.29808 0.5154 0.34358 0.0
C2454 C 0.27189 0.51908 0.34343 0.0
H2455 H 0.17636 0.56593 0.32835 0.0
H2456 H 0.21349 0.5522 0.33003 0.0
H2457 H 0.24284 0.55523 0.35266 0.0
H2458 H 0.3473 0.51548 0.35602 0.0
H2459 H 0.30171 0.51595 0.35584 0.0
C2460 C 0.47066 0.62457 0.34668 0.0
C2461 C 0.45808 0.61012 0.33986 0.0
C2462 C 0.47891 0.65395 0.34758 0.0
C2463 C 0.50063 0.72104 0.33707 0.0
H2464 H 0.46589 0.74221 0.35335 0.0
C2465 C 0.49816 0.82852 0.33669 0.0
C2466 C 0.49656 0.84089 0.34357 0.0
C2467 C 0.49786 0.80201 0.33662 0.0
C2468 C 0.47645 0.73705 0.34886 0.0
H2469 H 0.4447 0.61504 0.32861 0.0
H2470 H 0.45983 0.66633 0.33012 0.0
H2471 H 0.45789 0.69296 0.35269 0.0
H2472 H 0.49531 0.83626 0.35577 0.0
H2473 H 0.49643 0.79102 0.35569 0.0
H2474 H 0.51957 0.765 0.33326 0.0
C2475 C 0.46313 0.65499 0.33477 0.0
C2476 C 0.47167 0.70868 0.34849 0.0
C2477 C 0.45433 0.6256 0.33393 0.0
C2478 C 0.49627 0.82707 0.35038 0.0
C2479 C 0.49661 0.80092 0.35031 0.0
C2480 C 0.50589 0.74957 0.33752 0.0
C2481 C 0.47533 0.66942 0.34161 0.0
C2482 C 0.48322 0.70026 0.3425 0.0
C2483 C 0.49653 0.78752 0.34343 0.0
C2484 C 0.49336 0.75788 0.34334 0.0
H2485 H 0.4737 0.61307 0.35133 0.0
H2486 H 0.48824 0.66464 0.35291 0.0
H2487 H 0.50997 0.7151 0.33243 0.0
H2488 H 0.4981 0.83854 0.33135 0.0
H2489 H 0.4974 0.79237 0.33118 0.0
C2490 C 0.17554 0.67113 0.33653 0.0
C2491 C 0.16563 0.65736 0.34358 0.0
C2492 C 0.20237 0.69686 0.33596 0.0
C2493 C 0.25907 0.75967 0.3462 0.0
H2494 H 0.31261 0.75267 0.33265 0.0
C2495 C 0.38281 0.84469 0.34578 0.0
C2496 C 0.3978 0.84913 0.33893 0.0
C2497 C 0.35358 0.82273 0.3464 0.0
C2498 C 0.29795 0.75549 0.33634 0.0
H2499 H 0.17513 0.66068 0.3556 0.0
H2500 H 0.22155 0.70612 0.3546 0.0
H2501 H 0.26249 0.71356 0.33338 0.0
H2502 H 0.39381 0.83509 0.32725 0.0
H2503 H 0.34294 0.7983 0.32815 0.0
H2504 H 0.29423 0.80192 0.34904 0.0
C2505 C 0.20874 0.69681 0.34953 0.0
C2506 C 0.26917 0.73287 0.33678 0.0
C2507 C 0.18223 0.67078 0.35009 0.0
C2508 C 0.38291 0.8319 0.33265 0.0
C2509 C 0.35368 0.81053 0.3332 0.0
C2510 C 0.28781 0.78268 0.34565 0.0
C2511 C 0.21947 0.70963 0.34244 0.0
C2512 C 0.24946 0.73465 0.34173 0.0
C2513 C 0.33861 0.80515 0.34011 0.0
C2514 C 0.30776 0.7809 0.34072 0.0
H2515 H 0.16335 0.66122 0.33141 0.0
H2516 H 0.21015 0.70641 0.33042 0.0
H2517 H 0.24425 0.76153 0.35007 0.0
H2518 H 0.39387 0.85768 0.35071 0.0
H2519 H 0.34301 0.81916 0.35185 0.0
C2520 C 0.21473 0.32001 0.17091 0.0
C2521 C 0.20102 0.30109 0.17704 0.0
C2522 C 0.24516 0.33545 0.17031 0.0
C2523 C 0.30973 0.3321 0.1766 0.0
H2524 H 0.35303 0.41308 0.1706 0.0
C2525 C 0.43503 0.39588 0.17744 0.0
C2526 C 0.44965 0.41531 0.17149 0.0
C2527 C 0.40492 0.38344 0.17829 0.0
C2528 C 0.34128 0.39037 0.1722 0.0
H2529 H 0.20881 0.28426 0.18745 0.0
H2530 H 0.26146 0.31103 0.1864 0.0
H2531 H 0.30008 0.38866 0.17159 0.0
H2532 H 0.44436 0.43747 0.16185 0.0
H2533 H 0.39176 0.41536 0.16321 0.0
H2534 H 0.35059 0.33344 0.17711 0.0
C2535 C 0.24877 0.31372 0.182 0.0
C2536 C 0.3109 0.37639 0.17278 0.0
C2537 C 0.21849 0.29847 0.18262 0.0
C2538 C 0.43366 0.42257 0.1665 0.0
C2539 C 0.4035 0.40999 0.16731 0.0
C2540 C 0.34 0.34597 0.17599 0.0
C2541 C 0.26252 0.33214 0.1758 0.0
C2542 C 0.29477 0.34711 0.17503 0.0
C2543 C 0.38864 0.38998 0.17317 0.0
C2544 C 0.35627 0.37535 0.17382 0.0
H2545 H 0.20198 0.32257 0.16651 0.0
H2546 H 0.25507 0.34936 0.16545 0.0
H2547 H 0.29796 0.30938 0.17821 0.0
H2548 H 0.44683 0.39007 0.18142 0.0
H2549 H 0.39441 0.36864 0.18296 0.0
C2550 C 0.61346 0.04114 0.17726 0.0
C2551 C 0.59337 0.03605 0.17145 0.0
C2552 C 0.62542 0.02301 0.17812 0.0
C2553 C 0.64072 0.97243 0.1674 0.0
H2554 H 0.65143 0.94822 0.18727 0.0
C2555 C 0.68706 0.89467 0.17119 0.0
C2556 C 0.70663 0.90072 0.17721 0.0
C2557 C 0.67124 0.90928 0.17059 0.0
C2558 C 0.64892 0.95501 0.18167 0.0
H2559 H 0.56964 0.00768 0.16209 0.0
H2560 H 0.59055 0.97613 0.16357 0.0
H2561 H 0.6281 0.9776 0.18609 0.0
H2562 H 0.72464 0.92684 0.18734 0.0
H2563 H 0.69774 0.95248 0.18621 0.0
H2564 H 0.66207 0.95046 0.16297 0.0
C2565 C 0.59727 0.99424 0.16742 0.0
C2566 C 0.63548 0.97185 0.181 0.0
C2567 C 0.58516 0.01222 0.1666 0.0
C2568 C 0.70968 0.92143 0.18264 0.0
C2569 C 0.69404 0.93609 0.18202 0.0
C2570 C 0.65435 0.95576 0.16806 0.0
C2571 C 0.6177 0.9995 0.17316 0.0
C2572 C 0.63133 0.98091 0.17386 0.0
C2573 C 0.67468 0.93038 0.17597 0.0
C2574 C 0.65884 0.94696 0.17522 0.0
H2575 H 0.62018 0.05934 0.18109 0.0
H2576 H 0.64126 0.02784 0.18256 0.0
H2577 H 0.63821 0.97933 0.16181 0.0
H2578 H 0.68409 0.8788 0.16691 0.0
H2579 H 0.65626 0.90395 0.16591 0.0
C2580 C 0.08898 0.79059 0.1828 0.0
C2581 C 0.10819 0.80815 0.17708 0.0
C2582 C 0.0741 0.76026 0.1822 0.0
C2583 C 0.05113 0.70086 0.16802 0.0
H2584 H 0.0331 0.65254 0.18593 0.0
C2585 C 0.99602 0.57542 0.16631 0.0
C2586 C 0.97291 0.5595 0.17135 0.0
C2587 C 0.01384 0.60553 0.16714 0.0
C2588 C 0.03779 0.66573 0.18088 0.0
H2589 H 0.1273 0.80725 0.1663 0.0
H2590 H 0.10197 0.75437 0.16534 0.0
H2591 H 0.06243 0.70525 0.1871 0.0
H2592 H 0.95077 0.56251 0.18131 0.0
H2593 H 0.98205 0.61511 0.1828 0.0
H2594 H 0.02666 0.6612 0.16181 0.0
C2595 C 0.09784 0.76408 0.17022 0.0
C2596 C 0.05458 0.69602 0.18154 0.0
C2597 C 0.11258 0.79448 0.1708 0.0
C2598 C 0.9684 0.57422 0.17734 0.0
C2599 C 0.9864 0.60431 0.17821 0.0
C2600 C 0.03456 0.67056 0.16735 0.0
C2601 C 0.07814 0.74651 0.17588 0.0
C2602 C 0.06131 0.71408 0.17513 0.0
C2603 C 0.00915 0.6204 0.17306 0.0
C2604 C 0.0275 0.65262 0.17378 0.0
H2605 H 0.08483 0.80024 0.1877 0.0
H2606 H 0.05882 0.74766 0.18661 0.0
H2607 H 0.05533 0.71391 0.16297 0.0
H2608 H 1.0001 0.56468 0.16165 0.0
H2609 H 0.03137 0.61718 0.16313 0.0
C2610 C 0.32097 0.21333 0.34861 0.0
C2611 C 0.30177 0.19931 0.34255 0.0
C2612 C 0.33632 0.2438 0.34911 0.0
C2613 C 0.33243 0.308 0.3427 0.0
H2614 H 0.41363 0.35172 0.34847 0.0
C2615 C 0.39598 0.43347 0.34167 0.0
C2616 C 0.41568 0.44818 0.34756 0.0
C2617 C 0.38348 0.40332 0.34085 0.0
C2618 C 0.39085 0.33986 0.34693 0.0
H2619 H 0.28437 0.20658 0.33217 0.0
H2620 H 0.31099 0.25926 0.33306 0.0
H2621 H 0.38931 0.29876 0.34762 0.0
H2622 H 0.43819 0.44298 0.35714 0.0
H2623 H 0.41602 0.39042 0.35583 0.0
H2624 H 0.33362 0.34879 0.34212 0.0
C2625 C 0.31396 0.2468 0.33747 0.0
C2626 C 0.37693 0.30947 0.34644 0.0
C2627 C 0.2988 0.2165 0.33695 0.0
C2628 C 0.42309 0.43224 0.35253 0.0
C2629 C 0.41048 0.40207 0.35175 0.0
C2630 C 0.34625 0.3383 0.34323 0.0
C2631 C 0.33265 0.26087 0.3436 0.0
C2632 C 0.34757 0.29317 0.34428 0.0
C2633 C 0.39025 0.38711 0.34594 0.0
C2634 C 0.3757 0.35473 0.34532 0.0
H2635 H 0.3238 0.20081 0.35302 0.0
H2636 H 0.35045 0.25395 0.35393 0.0
H2637 H 0.30965 0.29612 0.34115 0.0
H2638 H 0.39003 0.44522 0.33772 0.0
H2639 H 0.36848 0.39273 0.33622 0.0
C2640 C 0.57369 0.9938 0.35268 0.0
C2641 C 0.5585 0.97039 0.34767 0.0
C2642 C 0.60381 0.01197 0.352 0.0
C2643 C 0.6653 0.03549 0.33864 0.0
H2644 H 0.71213 0.05541 0.35687 0.0
C2645 C 0.78976 0.08468 0.33753 0.0
C2646 C 0.8072 0.10521 0.34303 0.0
C2647 C 0.75944 0.07025 0.33803 0.0
C2648 C 0.69943 0.05051 0.35173 0.0
H2649 H 0.5628 0.94807 0.33792 0.0
H2650 H 0.61539 0.97984 0.33672 0.0
H2651 H 0.65932 0.02668 0.35779 0.0
H2652 H 0.80619 0.12701 0.3533 0.0
H2653 H 0.75318 0.10219 0.35411 0.0
H2654 H 0.7053 0.0593 0.33256 0.0
C2655 C 0.60404 0.98423 0.34116 0.0
C2656 C 0.66908 0.03394 0.35226 0.0
C2657 C 0.57394 0.96593 0.34187 0.0
C2658 C 0.79346 0.11128 0.34898 0.0
C2659 C 0.76303 0.09688 0.34947 0.0
C2660 C 0.69562 0.05219 0.33811 0.0
C2661 C 0.61941 0.0073 0.34627 0.0
C2662 C 0.65165 0.02598 0.34572 0.0
C2663 C 0.74559 0.076 0.34402 0.0
C2664 C 0.71316 0.05968 0.34464 0.0
H2665 H 0.56236 0.99784 0.35719 0.0
H2666 H 0.61489 0.02974 0.35597 0.0
H2667 H 0.65252 0.03016 0.3335 0.0
H2668 H 0.79948 0.07928 0.33288 0.0
H2669 H 0.74689 0.05402 0.3338 0.0
C2670 C 0.90525 0.6941 0.3501 0.0
C2671 C 0.90305 0.70581 0.34314 0.0
C2672 C 0.9213 0.67978 0.35067 0.0
C2673 C 0.95382 0.64387 0.33949 0.0
H2674 H 1.00466 0.66293 0.35688 0.0
C2675 C 0.04002 0.60683 0.34238 0.0
C2676 C 0.04441 0.59909 0.34967 0.0
C2677 C 0.02208 0.61898 0.34132 0.0
C2678 C 0.99032 0.65698 0.35203 0.0
H2679 H 0.91538 0.71062 0.33128 0.0
H2680 H 0.94326 0.68568 0.33231 0.0
H2681 H 0.97396 0.6846 0.35561 0.0
H2682 H 0.033 0.59734 0.36151 0.0
H2683 H 1.00144 0.61777 0.35967 0.0
H2684 H 0.97017 0.61611 0.33594 0.0
C2685 C 0.9325 0.68751 0.33731 0.0
C2686 C 0.97268 0.66947 0.35131 0.0
C2687 C 0.91658 0.70197 0.33674 0.0
C2688 C 0.03019 0.60326 0.35583 0.0
C2689 C 0.01223 0.61521 0.35477 0.0
C2690 C 0.97142 0.63123 0.34024 0.0
C2691 C 0.93547 0.67664 0.34431 0.0
C2692 C 0.95408 0.66301 0.34505 0.0
C2693 C 0.00816 0.6236 0.34752 0.0
C2694 C 0.98982 0.63749 0.34655 0.0
H2695 H 0.89512 0.69653 0.35515 0.0
H2696 H 0.92274 0.67128 0.35613 0.0
H2697 H 0.93961 0.63824 0.33462 0.0
H2698 H 0.05085 0.60397 0.33753 0.0
H2699 H 0.01968 0.62538 0.33566 0.0
C2700 C 0.57603 0.61092 0.84246 0.0
C2701 C 0.56087 0.59134 0.84835 0.0
C2702 C 0.60611 0.62274 0.84168 0.0
C2703 C 0.67177 0.63895 0.85261 0.0
H2704 H 0.70679 0.64798 0.83281 0.0
C2705 C 0.79604 0.68576 0.84886 0.0
C2706 C 0.80932 0.70482 0.84274 0.0
C2707 C 0.76564 0.66985 0.84952 0.0
C2708 C 0.69746 0.64594 0.83838 0.0
H2709 H 0.56522 0.56842 0.85796 0.0
H2710 H 0.61773 0.58912 0.85661 0.0
H2711 H 0.65409 0.62449 0.83395 0.0
H2712 H 0.80083 0.72192 0.83248 0.0
H2713 H 0.74836 0.69485 0.83369 0.0
H2714 H 0.7151 0.66094 0.85704 0.0
C2715 C 0.60644 0.59551 0.85263 0.0
C2716 C 0.66718 0.6324 0.83903 0.0
C2717 C 0.57633 0.58352 0.85338 0.0
C2718 C 0.79147 0.70735 0.83726 0.0
C2719 C 0.76121 0.6916 0.83793 0.0
C2720 C 0.70209 0.65268 0.85196 0.0
C2721 C 0.62174 0.61541 0.8468 0.0
C2722 C 0.65395 0.6289 0.84614 0.0
C2723 C 0.74779 0.67267 0.84407 0.0
C2724 C 0.7154 0.65661 0.84483 0.0
H2725 H 0.56468 0.61733 0.8385 0.0
H2726 H 0.61723 0.63818 0.83716 0.0
H2727 H 0.66232 0.63692 0.85817 0.0
H2728 H 0.8091 0.68322 0.85318 0.0
H2729 H 0.75613 0.65523 0.85428 0.0
C2730 C 0.30083 0.08576 0.83718 0.0
C2731 C 0.30331 0.10601 0.84269 0.0
C2732 C 0.31661 0.07125 0.83781 0.0
C2733 C 0.3554 0.0508 0.85183 0.0
H2734 H 0.38345 0.03086 0.83381 0.0
C2735 C 0.42415 0.99378 0.85327 0.0
C2736 C 0.41627 0.97048 0.84825 0.0
C2737 C 0.41228 0.012 0.85251 0.0
C2738 C 0.37558 0.03608 0.8389 0.0
H2739 H 0.32498 0.12727 0.85313 0.0
H2740 H 0.35303 0.10235 0.85416 0.0
H2741 H 0.36011 0.06022 0.83268 0.0
H2742 H 0.39032 0.9484 0.83839 0.0
H2743 H 0.36968 0.98028 0.83703 0.0
H2744 H 0.37103 0.02668 0.85803 0.0
C2745 C 0.3384 0.09729 0.84941 0.0
C2746 C 0.36213 0.0529 0.83825 0.0
C2747 C 0.32245 0.11176 0.84879 0.0
C2748 C 0.39677 0.96617 0.84235 0.0
C2749 C 0.38507 0.98453 0.84155 0.0
C2750 C 0.36904 0.03413 0.85248 0.0
C2751 C 0.33554 0.07667 0.84395 0.0
C2752 C 0.35152 0.06024 0.8447 0.0
C2753 C 0.39245 0.00751 0.84667 0.0
C2754 C 0.37904 0.0263 0.84601 0.0
H2755 H 0.28622 0.0806 0.83241 0.0
H2756 H 0.31336 0.05522 0.83356 0.0
H2757 H 0.34717 0.05558 0.85691 0.0
H2758 H 0.4392 0.9977 0.85787 0.0
H2759 H 0.41872 0.0297 0.85649 0.0
C2760 C 0.92102 0.2168 0.83722 0.0
C2761 C 0.9008 0.19892 0.84273 0.0
C2762 C 0.93543 0.24705 0.83788 0.0
C2763 C 0.95596 0.30604 0.85194 0.0
H2764 H 0.97581 0.3542 0.83395 0.0
C2765 C 0.0138 0.43182 0.85342 0.0
C2766 C 0.03711 0.44706 0.84839 0.0
C2767 C 0.99535 0.40178 0.85266 0.0
C2768 C 0.97061 0.34106 0.83903 0.0
H2769 H 0.87953 0.19911 0.85319 0.0
H2770 H 0.90432 0.25207 0.85427 0.0
H2771 H 0.9462 0.30153 0.8328 0.0
H2772 H 0.05897 0.44297 0.83851 0.0
H2773 H 0.02667 0.39052 0.83714 0.0
H2774 H 0.98038 0.34571 0.85815 0.0
C2775 C 0.90939 0.24258 0.84949 0.0
C2776 C 0.95364 0.31081 0.83837 0.0
C2777 C 0.895 0.21218 0.84885 0.0
C2778 C 0.0412 0.43178 0.84247 0.0
C2779 C 0.02261 0.40177 0.84167 0.0
C2780 C 0.97278 0.33633 0.8526 0.0
C2781 C 0.92997 0.26044 0.84404 0.0
C2782 C 0.94638 0.29281 0.84481 0.0
C2783 C 0.99962 0.38634 0.8468 0.0
C2784 C 0.98059 0.3542 0.84614 0.0
H2785 H 0.92622 0.20746 0.83244 0.0
H2786 H 0.95145 0.25992 0.83363 0.0
H2787 H 0.95123 0.29298 0.85701 0.0
H2788 H 0.01006 0.44304 0.85802 0.0
H2789 H 0.97766 0.39064 0.85664 0.0
C2790 C 0.57913 0.57266 0.66931 0.0
C2791 C 0.59408 0.55899 0.67206 0.0
C2792 C 0.59105 0.60275 0.67006 0.0
C2793 C 0.64995 0.66781 0.68011 0.0
H2794 H 0.63552 0.70965 0.6643 0.0
C2795 C 0.69565 0.79124 0.68257 0.0
C2796 C 0.70501 0.80806 0.67595 0.0
C2797 C 0.67983 0.7609 0.68219 0.0
C2798 C 0.64012 0.69846 0.66874 0.0
H2799 H 0.63315 0.56593 0.67775 0.0
H2800 H 0.65462 0.61839 0.67875 0.0
H2801 H 0.61371 0.65726 0.66343 0.0
H2802 H 0.70485 0.80633 0.6637 0.0
H2803 H 0.67844 0.7534 0.66298 0.0
H2804 H 0.67783 0.70906 0.68517 0.0
C2805 C 0.63326 0.60603 0.67624 0.0
C2806 C 0.62712 0.66816 0.6683 0.0
C2807 C 0.62106 0.57589 0.67561 0.0
C2808 C 0.69772 0.79392 0.6689 0.0
C2809 C 0.68241 0.76349 0.66851 0.0
C2810 C 0.66336 0.69811 0.68047 0.0
C2811 C 0.61849 0.61999 0.67345 0.0
C2812 C 0.63185 0.65233 0.67398 0.0
C2813 C 0.67352 0.74647 0.67516 0.0
C2814 C 0.65867 0.71397 0.67479 0.0
H2815 H 0.55816 0.56008 0.66659 0.0
H2816 H 0.57861 0.61241 0.66799 0.0
H2817 H 0.65384 0.65659 0.68467 0.0
H2818 H 0.70066 0.80156 0.68809 0.0
H2819 H 0.67272 0.74882 0.68744 0.0
C2820 C 0.4341 0.01267 0.66714 0.0
C2821 C 0.44985 0.03623 0.67206 0.0
C2822 C 0.40393 0.99511 0.66787 0.0
C2823 C 0.33978 0.99565 0.67609 0.0
H2824 H 0.30063 0.91299 0.67181 0.0
C2825 C 0.21778 0.92103 0.68206 0.0
C2826 C 0.20088 0.90084 0.67643 0.0
C2827 C 0.2481 0.93627 0.68161 0.0
C2828 C 0.31124 0.93609 0.67296 0.0
H2829 H 0.44655 0.05928 0.68178 0.0
H2830 H 0.394 0.02827 0.6832 0.0
H2831 H 0.35362 0.94169 0.67114 0.0
H2832 H 0.2029 0.88038 0.666 0.0
H2833 H 0.2561 0.90704 0.66524 0.0
H2834 H 0.29745 0.98999 0.67797 0.0
C2835 C 0.40477 0.02372 0.67863 0.0
C2836 C 0.34164 0.9526 0.67257 0.0
C2837 C 0.43494 0.0414 0.67787 0.0
C2838 C 0.21521 0.89576 0.67043 0.0
C2839 C 0.24569 0.91096 0.67001 0.0
C2840 C 0.30947 0.97913 0.67652 0.0
C2841 C 0.38876 1.00053 0.67359 0.0
C2842 C 0.35636 0.98265 0.67413 0.0
C2843 C 0.26247 0.93171 0.67555 0.0
C2844 C 0.29479 0.94914 0.67497 0.0
H2845 H 0.44499 0.00816 0.6626 0.0
H2846 H 0.39244 0.97776 0.66382 0.0
H2847 H 0.35017 0.01878 0.67717 0.0
H2848 H 0.20763 0.92547 0.68679 0.0
H2849 H 0.26033 0.95171 0.68604 0.0
C2850 C 0.98189 0.40592 0.66332 0.0
C2851 C 0.96619 0.40814 0.66942 0.0
C2852 C 1.00031 0.39451 0.66435 0.0
C2853 C 0.03896 0.37606 0.67899 0.0
H2854 H 0.04119 0.32731 0.66296 0.0
C2855 C 0.09186 0.30388 0.68238 0.0
C2856 C 0.10757 0.30195 0.6762 0.0
C2857 C 0.07646 0.3188 0.68172 0.0
C2858 C 0.04114 0.34118 0.66745 0.0
H2859 H 0.95757 0.40038 0.68143 0.0
H2860 H 0.98941 0.37975 0.68324 0.0
H2861 H 0.01023 0.34868 0.66163 0.0
H2862 H 0.11998 0.31496 0.66454 0.0
H2863 H 0.09304 0.34098 0.66338 0.0
H2864 H 0.06953 0.36788 0.68486 0.0
C2865 C 0.98789 0.38733 0.67766 0.0
C2866 C 0.02336 0.35349 0.66669 0.0
C2867 C 0.96954 0.39902 0.67663 0.0
C2868 C 0.10811 0.31597 0.6694 0.0
C2869 C 0.09249 0.33072 0.66872 0.0
C2870 C 0.05664 0.36354 0.67977 0.0
C2871 C 1.00332 0.38466 0.6715 0.0
C2872 C 0.02208 0.37123 0.67243 0.0
C2873 C 0.07619 0.33202 0.67485 0.0
C2874 C 0.05801 0.34601 0.67399 0.0
H2875 H 0.9799 0.41297 0.6577 0.0
H2876 H 0.01227 0.39348 0.6595 0.0
H2877 H 0.03887 0.38986 0.68349 0.0
H2878 H 0.091 0.29341 0.68771 0.0
H2879 H 0.06398 0.31915 0.68653 0.0
C2880 C 0.88512 0.63706 0.51606 0.0
C2881 C 0.86712 0.63459 0.50992 0.0
C2882 C 0.91539 0.65169 0.51526 0.0
C2883 C 0.97223 0.67243 0.50078 0.0
H2884 H 0.02416 0.7229 0.51643 0.0
C2885 C 0.09611 0.73705 0.49613 0.0
C2886 C 0.11438 0.74008 0.50223 0.0
C2887 C 0.06629 0.72556 0.49723 0.0
C2888 C 0.01001 0.70859 0.51204 0.0
H2889 H 0.86706 0.64627 0.49816 0.0
H2890 H 0.91991 0.67178 0.49676 0.0
H2891 H 0.97164 0.70097 0.51801 0.0
H2892 H 0.11584 0.73359 0.51428 0.0
H2893 H 0.06348 0.7129 0.51623 0.0
H2894 H 0.0103 0.67942 0.49487 0.0
C2895 C 0.91052 0.66217 0.50219 0.0
C2896 C 0.97986 0.69609 0.51294 0.0
C2897 C 0.88022 0.64772 0.50301 0.0
C2898 C 0.10226 0.73164 0.50949 0.0
C2899 C 0.07226 0.7199 0.5106 0.0
C2900 C 1.0023 0.68474 0.4999 0.0
C2901 C 0.92847 0.66406 0.50829 0.0
C2902 C 0.9606 0.67792 0.50731 0.0
C2903 C 0.05381 0.71648 0.50446 0.0
C2904 C 0.02167 0.70311 0.5055 0.0
H2905 H 0.87583 0.62727 0.52148 0.0
H2906 H 0.9285 0.65251 0.52006 0.0
H2907 H 0.95804 0.65809 0.4964 0.0
H2908 H 0.10488 0.74353 0.49047 0.0
H2909 H 0.05303 0.72391 0.49239 0.0
C2910 C 0.3761 0.25408 0.51567 0.0
C2911 C 0.37331 0.23405 0.51005 0.0
C2912 C 0.36108 0.26936 0.5151 0.0
C2913 C 0.29854 0.26949 0.50598 0.0
H2914 H 0.34177 0.35198 0.51045 0.0
C2915 C 0.25239 0.34622 0.49995 0.0
C2916 C 0.25979 0.36954 0.50492 0.0
C2917 C 0.26502 0.32866 0.50072 0.0
C2918 C 0.32915 0.3289 0.5093 0.0
H2919 H 0.35177 0.21393 0.49949 0.0
H2920 H 0.32532 0.24063 0.49852 0.0
H2921 H 0.36565 0.32319 0.51145 0.0
H2922 H 0.28544 0.39214 0.51478 0.0
H2923 H 0.30695 0.36116 0.51626 0.0
H2924 H 0.26192 0.27514 0.5039 0.0
C2925 C 0.33922 0.24441 0.50338 0.0
C2926 C 0.34293 0.31237 0.50984 0.0
C2927 C 0.35446 0.22918 0.50392 0.0
C2928 C 0.27949 0.37447 0.51082 0.0
C2929 C 0.29198 0.35679 0.51162 0.0
C2930 C 0.28465 0.286 0.50548 0.0
C2931 C 0.34268 0.265 0.50891 0.0
C2932 C 0.32782 0.28245 0.50821 0.0
C2933 C 0.28523 0.33385 0.50652 0.0
C2934 C 0.29976 0.31597 0.50714 0.0
H2935 H 0.39028 0.25837 0.52049 0.0
H2936 H 0.36389 0.28467 0.51952 0.0
H2937 H 0.28618 0.24643 0.50476 0.0
H2938 H 0.2373 0.34191 0.49534 0.0
H2939 H 0.25948 0.3115 0.49662 0.0
C2940 C 0.6268 0.91002 0.50807 0.0
C2941 C 0.63746 0.89311 0.50477 0.0
C2942 C 0.64456 0.94022 0.50866 0.0
C2943 C 0.71904 0.99893 0.51032 0.0
H2944 H 0.69253 0.04781 0.50103 0.0
C2945 C 0.76748 0.12287 0.51597 0.0
C2946 C 0.77521 0.14064 0.5095 0.0
C2947 C 0.75267 0.09255 0.51529 0.0
C2948 C 0.70021 0.0344 0.50363 0.0
H2949 H 0.67526 0.89431 0.49975 0.0
H2950 H 0.70671 0.94712 0.50107 0.0
H2951 H 0.66213 0.99473 0.50033 0.0
H2952 H 0.77363 0.14054 0.49723 0.0
H2953 H 0.74683 0.0874 0.49606 0.0
H2954 H 0.7567 0.03866 0.51383 0.0
C2955 C 0.68447 0.93699 0.50307 0.0
C2956 C 0.68278 0.00411 0.50326 0.0
C2957 C 0.66649 0.90685 0.5023 0.0
C2958 C 0.76815 0.12744 0.50232 0.0
C2959 C 0.75269 0.09708 0.50165 0.0
C2960 C 0.73616 0.02925 0.51084 0.0
C2961 C 0.67354 0.95399 0.50615 0.0
C2962 C 0.69206 0.98609 0.50659 0.0
C2963 C 0.74468 0.07937 0.50813 0.0
C2964 C 0.72695 0.04725 0.50747 0.0
H2965 H 0.6045 0.90001 0.51001 0.0
H2966 H 0.63569 0.95284 0.5111 0.0
H2967 H 0.72662 0.98549 0.51294 0.0
H2968 H 0.77265 0.13242 0.52158 0.0
H2969 H 0.74663 0.07938 0.52037 0.0
C2970 C 0.08993 0.76479 0.6863 0.0
C2971 C 0.08318 0.78036 0.68103 0.0
C2972 C 0.07767 0.73462 0.68565 0.0
C2973 C 0.04263 0.67361 0.6721 0.0
H2974 H 0.00991 0.62638 0.69008 0.0
C2975 C 0.96821 0.54904 0.67035 0.0
C2976 C 0.96909 0.53146 0.67619 0.0
C2977 C 0.98379 0.57935 0.67093 0.0
C2978 C 0.01935 0.63917 0.68502 0.0
H2979 H 0.05889 0.77669 0.67084 0.0
H2980 H 0.03767 0.72401 0.66964 0.0
H2981 H 0.03419 0.67918 0.69104 0.0
H2982 H 0.98772 0.53231 0.68718 0.0
H2983 H 0.01553 0.58525 0.68811 0.0
H2984 H 0.02812 0.63377 0.66607 0.0
C2985 C 0.05242 0.73511 0.67429 0.0
C2986 C 0.03321 0.66951 0.68557 0.0
C2987 C 0.06447 0.76525 0.67499 0.0
C2988 C 0.98642 0.54511 0.68258 0.0
C2989 C 1.00223 0.57553 0.68313 0.0
C2990 C 0.02901 0.64329 0.67156 0.0
C2991 C 0.05862 0.71936 0.67966 0.0
C2992 C 0.0448 0.68711 0.67911 0.0
C2993 C 1.00097 0.59311 0.67733 0.0
C2994 C 0.01688 0.62557 0.67799 0.0
H2995 H 0.10433 0.77585 0.69102 0.0
H2996 H 0.08317 0.72322 0.68983 0.0
H2997 H 0.05171 0.68654 0.66703 0.0
H2998 H 0.95496 0.53942 0.66536 0.0
H2999 H 0.98174 0.59197 0.6664 0.0
C3000 C 0.24107 0.33171 0.68423 0.0
C3001 C 0.22736 0.30353 0.68119 0.0
C3002 C 0.27122 0.34987 0.68359 0.0
C3003 C 0.33671 0.37894 0.6853 0.0
H3004 H 0.37744 0.37114 0.66808 0.0
C3005 C 0.46269 0.43443 0.68441 0.0
C3006 C 0.47656 0.44189 0.67733 0.0
C3007 C 0.43224 0.4193 0.68488 0.0
C3008 C 0.36656 0.37412 0.67289 0.0
H3009 H 0.23433 0.27216 0.67509 0.0
H3010 H 0.28681 0.30308 0.67425 0.0
H3011 H 0.32502 0.34267 0.66858 0.0
H3012 H 0.46962 0.44093 0.66522 0.0
H3013 H 0.41693 0.41623 0.66602 0.0
H3014 H 0.37828 0.41153 0.68941 0.0
C3015 C 0.27447 0.3118 0.67692 0.0
C3016 C 0.33627 0.35721 0.67325 0.0
C3017 C 0.2443 0.29388 0.67745 0.0
C3018 C 0.4595 0.43513 0.67076 0.0
C3019 C 0.42918 0.42065 0.67123 0.0
C3020 C 0.36703 0.39628 0.68487 0.0
C3021 C 0.28847 0.3401 0.67999 0.0
C3022 C 0.32083 0.35909 0.67949 0.0
C3023 C 0.41499 0.4118 0.67828 0.0
C3024 C 0.38249 0.39401 0.67868 0.0
H3025 H 0.22847 0.33975 0.6871 0.0
H3026 H 0.2809 0.37164 0.68588 0.0
H3027 H 0.32585 0.38086 0.69027 0.0
H3028 H 0.47531 0.43917 0.68956 0.0
H3029 H 0.42234 0.41267 0.69041 0.0
C3030 C 0.71529 0.95331 0.67716 0.0
C3031 C 0.70477 0.92586 0.68051 0.0
C3032 C 0.69756 0.96578 0.67662 0.0
C3033 C 0.62329 0.95053 0.67529 0.0
H3034 H 0.65058 0.02578 0.68473 0.0
C3035 C 0.57565 0.02706 0.67017 0.0
C3036 C 0.56808 0.03675 0.67674 0.0
C3037 C 0.59028 0.01134 0.6707 0.0
C3038 C 0.6427 0.00474 0.68209 0.0
H3039 H 0.66726 0.88948 0.6857 0.0
H3040 H 0.63583 0.91093 0.6845 0.0
H3041 H 0.68073 1.0028 0.68522 0.0
H3042 H 0.56975 0.03741 0.68901 0.0
H3043 H 0.59625 0.01071 0.68991 0.0
H3044 H 0.58565 0.95295 0.67195 0.0
C3045 C 0.65794 0.9229 0.68241 0.0
C3046 C 0.65997 0.99171 0.68233 0.0
C3047 C 0.6759 0.9107 0.6831 0.0
C3048 C 0.57512 0.03007 0.68385 0.0
C3049 C 0.59039 0.01495 0.68437 0.0
C3050 C 0.60631 0.9639 0.67489 0.0
C3051 C 0.66877 0.95074 0.67927 0.0
C3052 C 0.65039 0.96446 0.67895 0.0
C3053 C 0.59824 0.0056 0.6778 0.0
C3054 C 0.61582 0.99106 0.67831 0.0
H3055 H 0.73747 0.9655 0.67512 0.0
H3056 H 0.70632 0.98721 0.67415 0.0
H3057 H 0.6155 0.92954 0.67263 0.0
H3058 H 0.57046 0.03186 0.66461 0.0
H3059 H 0.59621 0.00447 0.66556 0.0
C3060 C 0.24645 0.93583 0.18986 0.0
C3061 C 0.2282 0.93245 0.18373 0.0
C3062 C 0.27632 0.94745 0.18879 0.0
C3063 C 0.33284 0.96422 0.17405 0.0
H3064 H 0.38453 0.01514 0.18967 0.0
C3065 C 0.4578 0.03599 0.17012 0.0
C3066 C 0.47575 0.03867 0.17629 0.0
C3067 C 0.42751 0.02128 0.17089 0.0
C3068 C 0.37042 1.00068 0.1853 0.0
H3069 H 0.22683 0.93847 0.17164 0.0
H3070 H 0.27926 0.9594 0.16976 0.0
H3071 H 0.33224 0.99371 0.19115 0.0
H3072 H 0.47567 0.02724 0.18808 0.0
H3073 H 0.4228 1.00161 0.18943 0.0
H3074 H 0.37133 0.97184 0.16814 0.0
C3075 C 0.27044 0.95257 0.17539 0.0
C3076 C 0.34033 0.98831 0.18614 0.0
C3077 C 0.2404 0.9407 0.17646 0.0
C3078 C 0.46257 0.02564 0.18321 0.0
C3079 C 0.43224 0.01111 0.18399 0.0
C3080 C 0.36301 0.97679 0.17318 0.0
C3081 C 0.28887 0.95632 0.18156 0.0
C3082 C 0.32105 0.96978 0.18055 0.0
C3083 C 0.41434 0.00903 0.17786 0.0
C3084 C 0.38218 0.99512 0.17881 0.0
H3085 H 0.23763 0.9295 0.19552 0.0
H3086 H 0.28955 0.94933 0.19366 0.0
H3087 H 0.31877 0.94979 0.16967 0.0
H3088 H 0.46715 0.0457 0.16469 0.0
H3089 H 0.41444 0.02031 0.16606 0.0
C3090 C 0.99094 0.44595 0.18196 0.0
C3091 C 0.97154 0.44004 0.17591 0.0
C3092 C 0.00679 0.43139 0.18257 0.0
C3093 C 0.02964 0.38617 0.17146 0.0
H3094 H 0.03943 0.36096 0.1913 0.0
C3095 C 0.06433 0.29951 0.17576 0.0
C3096 C 0.08413 0.30419 0.18161 0.0
C3097 C 0.0526 0.31784 0.17492 0.0
C3098 C 0.03719 0.36812 0.18572 0.0
H3099 H 0.95389 0.41421 0.16572 0.0
H3100 H 0.98086 0.38865 0.16686 0.0
H3101 H 0.01565 0.38991 0.19014 0.0
H3102 H 0.10759 0.33202 0.19108 0.0
H3103 H 0.08708 0.36395 0.18964 0.0
H3104 H 0.05063 0.36377 0.16704 0.0
C3105 C 0.98439 0.4049 0.17107 0.0
C3106 C 0.02359 0.38483 0.18506 0.0
C3107 C 0.9687 0.41951 0.17044 0.0
C3108 C 0.09231 0.32781 0.18653 0.0
C3109 C 0.08042 0.346 0.18573 0.0
C3110 C 0.04305 0.3693 0.17213 0.0
C3111 C 1.00356 0.41047 0.17716 0.0
C3112 C 0.01942 0.39392 0.17791 0.0
C3113 C 0.06027 0.34115 0.17995 0.0
C3114 C 0.04684 0.35991 0.17926 0.0
H3115 H 0.99375 0.46168 0.18627 0.0
H3116 H 0.02163 0.43659 0.18728 0.0
H3117 H 0.02738 0.3932 0.16588 0.0
H3118 H 0.05765 0.28149 0.17187 0.0
H3119 H 0.03697 0.31332 0.17044 0.0
C3120 C 0.59006 0.55062 0.17071 0.0
C3121 C 0.56947 0.53298 0.17618 0.0
C3122 C 0.60468 0.58091 0.17132 0.0
C3123 C 0.62466 0.64029 0.18526 0.0
H3124 H 0.64575 0.68823 0.16721 0.0
C3125 C 0.68135 0.76591 0.18667 0.0
C3126 C 0.705 0.78142 0.18176 0.0
C3127 C 0.66326 0.73583 0.18588 0.0
C3128 C 0.64021 0.67515 0.1723 0.0
H3129 H 0.54775 0.53362 0.1865 0.0
H3130 H 0.57286 0.5866 0.18749 0.0
H3131 H 0.61635 0.63553 0.16607 0.0
H3132 H 0.72784 0.77775 0.17204 0.0
H3133 H 0.69616 0.7252 0.17061 0.0
H3134 H 0.64848 0.68003 0.19147 0.0
C3135 C 0.5781 0.57692 0.1828 0.0
C3136 C 0.62336 0.64487 0.17166 0.0
C3137 C 0.56352 0.5465 0.18221 0.0
C3138 C 0.70979 0.76635 0.17592 0.0
C3139 C 0.69155 0.73628 0.17508 0.0
C3140 C 0.64135 0.67059 0.1859 0.0
C3141 C 0.59905 0.59456 0.17739 0.0
C3142 C 0.61559 0.62696 0.17812 0.0
C3143 C 0.66823 0.72059 0.1801 0.0
C3144 C 0.64956 0.68839 0.17943 0.0
H3145 H 0.59538 0.54107 0.166 0.0
H3146 H 0.62097 0.5936 0.16711 0.0
H3147 H 0.61956 0.6273 0.19035 0.0
H3148 H 0.67704 0.77694 0.19121 0.0
H3149 H 0.64529 0.72451 0.18978 0.0
C3150 C 0.27516 0.90458 0.00982 0.0
C3151 C 0.26714 0.89211 1.00258 0.0
C3152 C 0.28694 0.93466 0.0108 0.0
C3153 C 0.3229 0.0041 0.99986 0.0
H3154 H 0.3056 0.03576 0.01759 0.0
C3155 C 0.36022 0.12652 1.00237 0.0
C3156 C 0.37284 0.13985 1.00931 0.0
C3157 C 0.3457 0.09617 1.00164 0.0
C3158 C 0.31078 0.02726 0.01262 0.0
H3159 H 0.26447 0.90108 0.99074 0.0
H3160 H 0.28414 0.95302 0.99243 0.0
H3161 H 0.28373 0.98316 0.01624 0.0
H3162 H 0.37916 0.1315 0.02099 0.0
H3163 H 0.35384 0.0788 0.01971 0.0
H3164 H 0.3498 0.04816 0.99622 0.0
C3165 C 0.28215 0.93999 0.99735 0.0
C3166 C 0.29832 0.99707 0.01186 0.0
C3167 C 0.27063 0.9101 0.99638 0.0
C3168 C 0.36978 0.12204 0.01555 0.0
C3169 C 0.3551 0.09175 0.01483 0.0
C3170 C 0.33518 0.03422 1.0006 0.0
C3171 C 0.29081 0.95283 1.00455 0.0
C3172 C 0.30418 0.98503 1.00546 0.0
C3173 C 0.34323 0.07841 1.00785 0.0
C3174 C 0.32932 0.04622 1.00699 0.0
H3175 H 0.27282 0.89121 0.0147 0.0
H3176 H 0.29359 0.94372 0.01642 0.0
H3177 H 0.32851 0.99582 0.99493 0.0
H3178 H 0.36214 0.13953 0.99744 0.0
H3179 H 0.33651 0.08659 0.9962 0.0
C3180 C 0.0969 0.36189 0.99651 0.0
C3181 C 0.11472 0.37663 1.00272 0.0
C3182 C 0.06705 0.34332 0.99746 0.0
C3183 C 0.01002 0.30219 0.01193 0.0
H3184 H 0.95881 0.30181 0.99621 0.0
C3185 C 0.88506 0.24842 0.01551 0.0
C3186 C 0.86734 0.23349 1.00927 0.0
C3187 C 0.91535 0.26394 0.01482 0.0
C3188 C 0.9728 0.30134 1.00061 0.0
H3189 H 0.11539 0.38345 0.01482 0.0
H3190 H 0.06291 0.35135 0.0165 0.0
H3191 H 0.0111 0.33331 0.99495 0.0
H3192 H 0.86775 0.22258 0.99746 0.0
H3193 H 0.92072 0.24978 0.99625 0.0
H3194 H 0.9714 0.27057 0.01765 0.0
C3195 C 0.0721 0.35374 0.0109 0.0
C3196 C 1.00287 0.31944 0.99989 0.0
C3197 C 0.10214 0.37224 0.00994 0.0
C3198 C 0.88072 0.23382 1.00237 0.0
C3199 C 0.91107 0.24959 1.00167 0.0
C3200 C 0.97986 0.28421 0.01267 0.0
C3201 C 0.0541 0.33918 1.00465 0.0
C3202 C 0.02196 0.32008 1.00553 0.0
C3203 C 0.92874 0.26513 1.00786 0.0
C3204 C 0.96088 0.28353 1.00701 0.0
H3205 H 0.10604 0.3647 0.99088 0.0
H3206 H 0.05416 0.33208 0.99254 0.0
H3207 H 0.02397 0.30175 0.01634 0.0
H3208 H 0.87554 0.2486 0.02092 0.0
H3209 H 0.92824 0.27583 0.01968 0.0
C3210 C 0.75331 0.63121 0.01538 0.0
C3211 C 0.77321 0.63404 0.00971 0.0
C3212 C 0.73803 0.64624 0.01487 0.0
C3213 C 0.73767 0.70883 1.0059 0.0
H3214 H 0.65525 0.66542 0.01046 0.0
C3215 C 0.66069 0.7549 1.00018 0.0
C3216 C 0.63749 0.74739 1.0052 0.0
C3217 C 0.6783 0.7423 1.00087 0.0
C3218 C 0.67831 0.67808 1.00928 0.0
H3219 H 0.79311 0.65568 0.99915 0.0
H3220 H 0.7664 0.68216 0.99829 0.0
H3221 H 0.68411 0.64157 0.01132 0.0
H3222 H 0.61513 0.72161 0.01506 0.0
H3223 H 0.64619 0.70012 0.01641 0.0
H3224 H 0.73193 0.74546 1.00393 0.0
C3225 C 0.76273 0.66821 1.00313 0.0
C3226 C 0.69487 0.66433 0.00975 0.0
C3227 C 0.77796 0.65296 1.00361 0.0
C3228 C 0.63271 0.72763 0.01107 0.0
C3229 C 0.65043 0.71516 0.01179 0.0
C3230 C 0.72112 0.7227 1.00548 0.0
C3231 C 0.74226 0.66468 1.00871 0.0
C3232 C 0.72477 0.67951 1.00808 0.0
C3233 C 0.67326 0.72202 1.00665 0.0
C3234 C 0.69118 0.70751 1.00717 0.0
H3235 H 0.74912 0.61699 0.02019 0.0
H3236 H 0.72282 0.64339 0.01933 0.0
H3237 H 0.7607 0.72124 1.00465 0.0
H3238 H 0.66488 0.77005 0.9956 0.0
H3239 H 0.69537 0.74792 0.99675 0.0
C3240 C 0.76757 0.06121 0.84387 0.0
C3241 C 0.78212 0.08081 0.83794 0.0
C3242 C 0.73748 0.04884 0.84477 0.0
C3243 C 0.67398 0.05644 0.8389 0.0
H3244 H 0.63022 0.97536 0.8448 0.0
C3245 C 0.54743 0.98691 0.83756 0.0
C3246 C 0.53354 0.96779 0.84364 0.0
C3247 C 0.57787 1.00219 0.83699 0.0
C3248 C 0.64212 0.99811 0.84322 0.0
H3249 H 0.77669 0.10327 0.82839 0.0
H3250 H 0.72417 0.08129 0.82984 0.0
H3251 H 0.68283 0.99911 0.84365 0.0
H3252 H 0.54103 0.95046 0.854 0.0
H3253 H 0.59371 0.97696 0.853 0.0
H3254 H 0.63294 0.05509 0.83835 0.0
C3255 C 0.73594 0.07574 0.83389 0.0
C3256 C 0.67238 0.01181 0.84258 0.0
C3257 C 0.76607 0.08824 0.83302 0.0
C3258 C 0.55085 0.96483 0.84921 0.0
C3259 C 0.58115 0.97992 0.84862 0.0
C3260 C 0.64362 0.04265 0.83949 0.0
C3261 C 0.72115 0.05563 0.83973 0.0
C3262 C 0.6888 0.04121 0.84044 0.0
C3263 C 0.59507 0.99853 0.84246 0.0
C3264 C 0.62733 0.01334 0.8417 0.0
H3265 H 0.77942 0.05525 0.84779 0.0
H3266 H 0.72703 0.03393 0.84942 0.0
H3267 H 0.68584 0.07919 0.83733 0.0
H3268 H 0.53481 0.98973 0.83317 0.0
H3269 H 0.5879 0.01624 0.83215 0.0
C3270 C 0.94635 0.7069 0.84391 0.0
C3271 C 0.9264 0.70159 0.83806 0.0
C3272 C 0.95876 0.68921 0.8448 0.0
C3273 C 0.95097 0.61792 0.83906 0.0
H3274 H 0.0324 0.65572 0.84465 0.0
C3275 C 0.02079 0.56116 0.83769 0.0
C3276 C 0.0402 0.56674 0.84373 0.0
C3277 C 0.0054 0.57621 0.83712 0.0
C3278 C 0.00956 0.64474 0.84316 0.0
H3279 H 0.90331 0.67325 0.82864 0.0
H3280 H 0.92536 0.64274 0.83006 0.0
H3281 H 0.00846 0.6844 0.84351 0.0
H3282 H 0.05795 0.59209 0.85399 0.0
H3283 H 0.03126 0.61808 0.85297 0.0
H3284 H 0.95244 0.57828 0.8386 0.0
C3285 C 0.93117 0.66025 0.83406 0.0
C3286 C 0.99576 0.6612 0.84253 0.0
C3287 C 0.91861 0.67785 0.83321 0.0
C3288 C 0.04334 0.58726 0.84924 0.0
C3289 C 0.02815 0.60236 0.84864 0.0
C3290 C 0.96488 0.60145 0.83965 0.0
C3291 C 0.95167 0.66587 0.83982 0.0
C3292 C 0.96622 0.64805 0.8405 0.0
C3293 C 0.00925 0.59731 0.84253 0.0
C3294 C 0.99432 0.61465 0.84175 0.0
H3295 H 0.95258 0.72491 0.84778 0.0
H3296 H 0.97396 0.69389 0.84939 0.0
H3297 H 0.92814 0.60692 0.83758 0.0
H3298 H 0.01781 0.54551 0.83335 0.0
H3299 H 0.99111 0.57191 0.83232 0.0
C3300 C 0.3002 0.24036 0.84386 0.0
C3301 C 0.30519 0.22526 0.83807 0.0
C3302 C 0.31841 0.27044 0.8447 0.0
C3303 C 0.36913 0.3361 0.83392 0.0
H3304 H 0.39321 0.37129 0.85376 0.0
C3305 C 0.44718 0.46014 0.83762 0.0
C3306 C 0.44102 0.4738 0.84357 0.0
C3307 C 0.43251 0.42971 0.83705 0.0
C3308 C 0.38646 0.36191 0.84817 0.0
H3309 H 0.33349 0.22971 0.8287 0.0
H3310 H 0.3652 0.28214 0.83014 0.0
H3311 H 0.36377 0.31859 0.85264 0.0
H3312 H 0.41463 0.46594 0.85364 0.0
H3313 H 0.38889 0.41338 0.85258 0.0
H3314 H 0.39124 0.37935 0.82945 0.0
C3315 C 0.34709 0.27084 0.834 0.0
C3316 C 0.36958 0.33163 0.84754 0.0
C3317 C 0.32902 0.24076 0.8332 0.0
C3318 C 0.42012 0.45628 0.84899 0.0
C3319 C 0.40541 0.42597 0.84841 0.0
C3320 C 0.38586 0.3664 0.83456 0.0
C3321 C 0.34191 0.28612 0.83973 0.0
C3322 C 0.36057 0.31833 0.84041 0.0
C3323 C 0.41124 0.41219 0.84241 0.0
C3324 C 0.39461 0.37978 0.8417 0.0
H3325 H 0.28202 0.22898 0.8477 0.0
H3326 H 0.31364 0.28153 0.84913 0.0
H3327 H 0.36226 0.32662 0.82834 0.0
H3328 H 0.46319 0.47292 0.83336 0.0
H3329 H 0.43791 0.41993 0.83241 0.0
C3330 C 0.6333 0.883 1.0042 0.0
C3331 C 0.63625 0.8655 0.00971 0.0
C3332 C 0.64912 0.9133 1.00472 0.0
C3333 C 0.68903 0.9732 0.01847 0.0
H3334 H 0.7156 0.02025 1.00027 0.0
C3335 C 0.75827 0.0989 0.01943 0.0
C3336 C 0.75004 0.11417 0.01446 0.0
C3337 C 0.74619 0.06877 0.01876 0.0
C3338 C 0.70815 0.00742 1.0054 0.0
H3339 H 0.65876 0.86639 0.02003 0.0
H3340 H 0.68689 0.91942 0.02088 0.0
H3341 H 0.69217 0.9675 0.99931 0.0
H3342 H 0.72322 0.11003 1.00477 0.0
H3343 H 0.7022 0.05739 1.00355 0.0
H3344 H 0.70518 0.01327 0.02455 0.0
C3345 C 0.67186 0.90961 0.01621 0.0
C3346 C 0.69464 0.97712 1.00486 0.0
C3347 C 0.65588 0.87917 0.0157 0.0
C3348 C 0.72996 0.09881 1.00869 0.0
C3349 C 0.71803 0.06869 1.00797 0.0
C3350 C 0.70272 0.00354 0.01902 0.0
C3351 C 0.66855 0.9271 0.01075 0.0
C3352 C 0.68458 0.95953 0.01138 0.0
C3353 C 0.72578 0.05324 0.01305 0.0
C3354 C 0.7122 0.02102 0.01248 0.0
H3355 H 0.61831 0.87333 0.99951 0.0
H3356 H 0.6455 0.92587 1.00048 0.0
H3357 H 0.68121 0.96046 0.02361 0.0
H3358 H 0.77378 0.11016 0.02393 0.0
H3359 H 0.75292 0.05762 0.0227 0.0
C3360 C 0.90841 0.63261 1.00797 0.0
C3361 C 0.89384 0.63668 0.01406 0.0
C3362 C 0.93854 0.65036 1.00714 0.0
C3363 C 1.00228 0.72003 0.01381 0.0
H3364 H 0.04576 0.68387 1.00672 0.0
C3365 C 0.1286 0.7753 0.01547 0.0
C3366 C 0.14276 0.77204 1.00913 0.0
C3367 C 0.09814 0.76022 0.01593 0.0
C3368 C 0.03393 0.69439 1.00864 0.0
H3369 H 0.89927 0.66285 0.02399 0.0
H3370 H 0.95182 0.69333 0.02268 0.0
H3371 H 0.9931 0.65503 1.00773 0.0
H3372 H 0.13566 0.75067 0.99821 0.0
H3373 H 0.08291 0.72452 0.99904 0.0
H3374 H 0.04346 0.75929 0.01487 0.0
C3375 C 0.94007 0.67683 0.01844 0.0
C3376 C 1.00363 0.67786 1.0092 0.0
C3377 C 0.90991 0.65923 0.01923 0.0
C3378 C 0.12566 0.75375 1.0032 0.0
C3379 C 0.09532 0.73855 1.00369 0.0
C3380 C 0.03267 0.73653 0.01332 0.0
C3381 C 0.9549 0.6725 0.01242 0.0
C3382 C 0.9873 0.69041 0.01177 0.0
C3383 C 0.08116 0.74133 0.01008 0.0
C3384 C 0.04885 0.72392 0.0107 0.0
H3385 H 0.89655 0.61554 1.00386 0.0
H3386 H 0.94897 0.64669 1.00234 0.0
H3387 H 0.99052 0.73065 0.01571 0.0
H3388 H 0.14102 0.78918 0.02014 0.0
H3389 H 0.08791 0.76273 0.02095 0.0
C3390 C 0.23893 0.35978 1.00306 0.0
C3391 C 0.233 0.37065 0.00967 0.0
C3392 C 0.25345 0.3439 1.00345 0.0
C3393 C 0.27784 0.30601 0.01705 0.0
H3394 H 0.33052 0.31579 1.00067 0.0
C3395 C 0.34105 0.2433 0.01675 0.0
C3396 C 0.36937 0.25753 0.0138 0.0
C3397 C 0.32303 0.25539 0.01594 0.0
C3398 C 0.3162 0.31299 1.00535 0.0
H3399 H 0.23755 0.37314 0.02188 0.0
H3400 H 0.26378 0.34652 0.02256 0.0
H3401 H 0.30248 0.34034 1.00009 0.0
H3402 H 0.40104 0.29548 1.00762 0.0
H3403 H 0.37028 0.31718 1.00645 0.0
H3404 H 0.29286 0.28005 0.02251 0.0
C3405 C 0.25652 0.34941 0.01707 0.0
C3406 C 0.29959 0.32674 1.00496 0.0
C3407 C 0.24154 0.36486 0.01669 0.0
C3408 C 0.37923 0.28393 0.00993 0.0
C3409 C 0.36142 0.29627 1.00922 0.0
C3410 C 0.29479 0.29261 0.0175 0.0
C3411 C 0.26295 0.33889 0.01044 0.0
C3412 C 0.28016 0.32353 0.0108 0.0
C3413 C 0.33305 0.28228 0.01224 0.0
C3414 C 0.31432 0.29595 0.01167 0.0
H3415 H 0.23241 0.3636 0.99757 0.0
H3416 H 0.25722 0.33562 0.99823 0.0
H3417 H 0.26288 0.30252 0.02162 0.0
H3418 H 0.33281 0.22281 0.01971 0.0
H3419 H 0.30119 0.24354 0.01821 0.0
C3420 C 0.12425 0.37455 0.50397 0.0
C3421 C 0.14181 0.37146 0.50943 0.0
C3422 C 0.09396 0.35891 0.50456 0.0
C3423 C 0.03438 0.31909 0.51842 0.0
H3424 H 0.98674 0.29296 0.50031 0.0
C3425 C 0.90881 0.24961 0.51963 0.0
C3426 C 0.89331 0.258 0.51479 0.0
C3427 C 0.93891 0.2618 0.51886 0.0
C3428 C 0.99974 0.3003 0.50541 0.0
H3429 H 0.14105 0.34887 0.51973 0.0
H3430 H 0.08805 0.321 0.52067 0.0
H3431 H 0.03946 0.31627 0.49922 0.0
H3432 H 0.89701 0.28519 0.50522 0.0
H3433 H 0.94964 0.30638 0.50383 0.0
H3434 H 0.99452 0.30288 0.5246 0.0
C3435 C 0.09779 0.33602 0.516 0.0
C3436 C 0.03002 0.31373 0.5048 0.0
C3437 C 0.12822 0.35186 0.51543 0.0
C3438 C 0.90841 0.27834 0.50904 0.0
C3439 C 0.93852 0.29036 0.50823 0.0
C3440 C 1.00407 0.30545 0.51903 0.0
C3441 C 0.08023 0.33949 0.51059 0.0
C3442 C 0.04783 0.32362 0.51129 0.0
C3443 C 0.95419 0.28246 0.51318 0.0
C3444 C 0.98639 0.29611 0.51253 0.0
H3445 H 0.13386 0.38954 0.49928 0.0
H3446 H 0.08134 0.36264 0.50035 0.0
H3447 H 0.04728 0.32678 0.52353 0.0
H3448 H 0.89775 0.23391 0.5241 0.0
H3449 H 0.95024 0.25495 0.52271 0.0
C3450 C 0.63385 0.75318 0.50359 0.0
C3451 C 0.6362 0.77312 0.50918 0.0
C3452 C 0.64901 0.73808 0.50425 0.0
C3453 C 0.71127 0.73825 0.51354 0.0
H3454 H 0.66797 0.65557 0.50929 0.0
C3455 C 0.75752 0.66167 0.51972 0.0
C3456 C 0.7499 0.63815 0.5148 0.0
C3457 C 0.74494 0.67926 0.51892 0.0
C3458 C 0.68061 0.6787 0.51038 0.0
H3459 H 0.65719 0.79337 0.51978 0.0
H3460 H 0.68395 0.767 0.52091 0.0
H3461 H 0.64409 0.68432 0.50819 0.0
H3462 H 0.72396 0.61523 0.50501 0.0
H3463 H 0.70259 0.64628 0.50347 0.0
H3464 H 0.74793 0.73269 0.51565 0.0
C3465 C 0.67024 0.76313 0.51601 0.0
C3466 C 0.66683 0.69519 0.50978 0.0
C3467 C 0.65484 0.77816 0.51537 0.0
C3468 C 0.73007 0.63306 0.50893 0.0
C3469 C 0.71766 0.65077 0.50809 0.0
C3470 C 0.72517 0.72176 0.51409 0.0
C3471 C 0.66713 0.74257 0.51051 0.0
C3472 C 0.68197 0.72517 0.51132 0.0
C3473 C 0.72458 0.67389 0.51314 0.0
C3474 C 0.71004 0.69173 0.5125 0.0
H3475 H 0.61986 0.74876 0.49872 0.0
H3476 H 0.64649 0.72278 0.49985 0.0
H3477 H 0.72362 0.76135 0.5147 0.0
H3478 H 0.77272 0.6661 0.5243 0.0
H3479 H 0.75062 0.69658 0.52297 0.0
C3480 C 0.23011 0.8779 0.515 0.0
C3481 C 0.23451 0.86416 0.50875 0.0
C3482 C 0.24488 0.90832 0.51556 0.0
C3483 C 0.28833 0.97627 0.50421 0.0
H3484 H 0.31585 0.01132 0.52394 0.0
C3485 C 0.37441 0.09816 0.50839 0.0
C3486 C 0.3698 0.11294 0.51434 0.0
C3487 C 0.35642 0.06805 0.50753 0.0
C3488 C 0.30807 1.0019 0.5184 0.0
H3489 H 0.25796 0.87195 0.49815 0.0
H3490 H 0.28403 0.92455 0.4992 0.0
H3491 H 0.28724 0.9586 0.52281 0.0
H3492 H 0.34243 0.10787 0.52398 0.0
H3493 H 0.31116 0.05535 0.52252 0.0
H3494 H 0.30987 0.01972 0.49979 0.0
C3495 C 0.26871 0.912 0.50362 0.0
C3496 C 0.29153 0.97159 0.51775 0.0
C3497 C 0.25379 0.88166 0.50303 0.0
C3498 C 0.34658 0.09708 0.51935 0.0
C3499 C 0.32877 0.06696 0.51854 0.0
C3500 C 0.30509 0.00658 0.50486 0.0
C3501 C 0.26464 0.92583 0.50991 0.0
C3502 C 0.28147 0.95828 0.51064 0.0
C3503 C 0.33357 0.05201 0.51265 0.0
C3504 C 0.31523 0.01978 0.51196 0.0
H3505 H 0.21534 0.86519 0.5195 0.0
H3506 H 0.24073 0.91808 0.52044 0.0
H3507 H 0.28058 0.96699 0.49865 0.0
H3508 H 0.39213 0.10982 0.50443 0.0
H3509 H 0.36085 0.05721 0.50296 0.0
C3510 C 0.02105 0.45992 0.33713 0.0
C3511 C 0.03903 0.4738 0.34341 0.0
C3512 C 0.00532 0.42949 0.33664 0.0
C3513 C 0.98016 0.36186 0.34818 0.0
H3514 H 0.97329 0.32612 0.32858 0.0
C3515 C 0.94426 0.2398 0.34444 0.0
C3516 C 0.92511 0.2248 0.33846 0.0
C3517 C 0.9564 0.26995 0.3452 0.0
C3518 C 0.97473 0.33573 0.33408 0.0
H3519 H 0.05428 0.46624 0.35411 0.0
H3520 H 0.02758 0.41362 0.35316 0.0
H3521 H 0.99747 0.37888 0.32957 0.0
H3522 H 0.90327 0.22952 0.32866 0.0
H3523 H 0.92457 0.28213 0.32995 0.0
H3524 H 0.95799 0.31857 0.35269 0.0
C3525 C 0.02502 0.42608 0.34868 0.0
C3526 C 0.98855 0.36607 0.33466 0.0
C3527 C 0.04054 0.45643 0.34921 0.0
C3528 C 0.91802 0.24049 0.33332 0.0
C3529 C 0.93036 0.27065 0.33403 0.0
C3530 C 0.96657 0.33153 0.3476 0.0
C3531 C 0.00729 0.4121 0.34237 0.0
C3532 C 0.99159 0.37963 0.34172 0.0
C3533 C 0.94985 0.28581 0.33995 0.0
C3534 C 0.96375 0.31808 0.34055 0.0
H3535 H 0.01922 0.47254 0.33257 0.0
H3536 H 0.99156 0.41962 0.33174 0.0
H3537 H 0.98152 0.37134 0.35369 0.0
H3538 H 0.9501 0.22828 0.3485 0.0
H3539 H 0.97148 0.28095 0.34979 0.0
C3540 C 0.76996 0.70468 0.34388 0.0
C3541 C 0.78196 0.70887 0.33659 0.0
C3542 C 0.74004 0.6861 0.34501 0.0
C3543 C 0.6743 0.62533 0.33611 0.0
H3544 H 0.63237 0.6515 0.3488 0.0
C3545 C 0.54821 0.56858 0.33623 0.0
C3546 C 0.53427 0.5677 0.34308 0.0
C3547 C 0.57865 0.58411 0.33571 0.0
C3548 C 0.64372 0.64354 0.34533 0.0
H3549 H 0.77224 0.69679 0.32479 0.0
H3550 H 0.72029 0.66445 0.32674 0.0
H3551 H 0.68495 0.68138 0.34758 0.0
H3552 H 0.54157 0.58151 0.35482 0.0
H3553 H 0.5943 0.60781 0.35397 0.0
H3554 H 0.63312 0.58748 0.33384 0.0
C3555 C 0.73384 0.67523 0.3316 0.0
C3556 C 0.67395 0.66077 0.34463 0.0
C3557 C 0.76361 0.69391 0.33048 0.0
C3558 C 0.55151 0.58192 0.34944 0.0
C3559 C 0.58185 0.59724 0.34893 0.0
C3560 C 0.64408 0.60801 0.33684 0.0
C3561 C 0.7216 0.67116 0.33887 0.0
C3562 C 0.68961 0.65202 0.33996 0.0
C3563 C 0.5959 0.59899 0.34204 0.0
C3564 C 0.62829 0.61695 0.34142 0.0
H3565 H 0.7836 0.71603 0.34869 0.0
H3566 H 0.73136 0.68331 0.35069 0.0
H3567 H 0.68573 0.61772 0.33254 0.0
H3568 H 0.53563 0.558 0.33121 0.0
H3569 H 0.58859 0.58515 0.33028 0.0
C3570 C 0.29968 0.06237 0.34392 0.0
C3571 C 0.30407 0.08169 0.33797 0.0
C3572 C 0.31743 0.04997 0.34465 0.0
C3573 C 0.38759 0.05683 0.33822 0.0
H3574 H 0.35021 0.97586 0.34423 0.0
C3575 C 0.44374 0.98641 0.33665 0.0
C3576 C 0.43874 0.96755 0.34279 0.0
C3577 C 0.42874 1.00186 0.33611 0.0
C3578 C 0.36108 0.99857 0.34262 0.0
H3579 H 0.33087 0.10374 0.32823 0.0
H3580 H 0.3615 0.08171 0.32939 0.0
H3581 H 0.32161 0.99993 0.3433 0.0
H3582 H 0.41455 0.95091 0.35326 0.0
H3583 H 0.38869 0.9777 0.35231 0.0
H3584 H 0.42704 0.05512 0.33744 0.0
C3585 C 0.34466 0.07638 0.33357 0.0
C3586 C 0.34467 0.01245 0.3421 0.0
C3587 C 0.32699 0.08891 0.33287 0.0
C3588 C 0.4189 0.96504 0.34843 0.0
C3589 C 0.40388 0.98031 0.34786 0.0
C3590 C 0.40401 0.04285 0.3387 0.0
C3591 C 0.33991 0.05645 0.33942 0.0
C3592 C 0.35768 0.04183 0.33994 0.0
C3593 C 0.4083 0.99864 0.34166 0.0
C3594 C 0.39098 0.01359 0.34095 0.0
H3595 H 0.28233 0.0566 0.34797 0.0
H3596 H 0.31347 0.03523 0.34932 0.0
H3597 H 0.39846 0.07955 0.33662 0.0
H3598 H 0.45886 0.98888 0.33221 0.0
H3599 H 0.43255 0.01572 0.33124 0.0
C3600 C 0.13794 0.34526 0.06481 0.0
C3601 C 0.16496 0.365 0.06157 0.0
C3602 C 0.13569 0.33811 0.0725 0.0
C3603 C 0.17897 0.3404 0.08938 0.0
H3604 H 0.11169 0.33141 0.10032 0.0
C3605 C 0.15255 0.29656 0.12026 0.0
C3606 C 0.14025 0.30841 0.12517 0.0
C3607 C 0.1568 0.30409 0.11257 0.0
C3608 C 0.1308 0.3341 0.09739 0.0
H3609 H 0.21098 0.39209 0.06396 0.0
H3610 H 0.20695 0.38014 0.0774 0.0
H3611 H 0.11683 0.3433 0.08691 0.0
H3612 H 0.12306 0.33782 0.12571 0.0
H3613 H 0.13124 0.35153 0.11242 0.0
H3614 H 0.19323 0.33184 0.09993 0.0
C3615 C 0.18748 0.36993 0.07396 0.0
C3616 C 0.13354 0.34053 0.08964 0.0
C3617 C 0.18975 0.37706 0.06625 0.0
C3618 C 0.1329 0.32846 0.12217 0.0
C3619 C 0.1372 0.33602 0.11449 0.0
C3620 C 0.17624 0.33398 0.09715 0.0
C3621 C 0.16036 0.35054 0.07722 0.0
C3622 C 0.15762 0.34371 0.08551 0.0
C3623 C 0.14889 0.3237 0.10955 0.0
C3624 C 0.1521 0.33075 0.10127 0.0
H3625 H 0.11828 0.33577 0.06144 0.0
H3626 H 0.11449 0.32277 0.07476 0.0
H3627 H 0.19769 0.34241 0.08639 0.0
H3628 H 0.15881 0.28131 0.12236 0.0
H3629 H 0.16566 0.29396 0.10895 0.0
C3630 C 0.63034 0.81789 0.06661 0.0
C3631 C 0.64218 0.80538 0.06177 0.0
C3632 C 0.63786 0.82247 0.0743 0.0
C3633 C 0.66813 0.79737 0.08965 0.0
H3634 H 0.67635 0.86483 0.10033 0.0
C3635 C 0.68059 0.80686 0.1222 0.0
C3636 C 0.70033 0.83418 0.1253 0.0
C3637 C 0.67302 0.80399 0.11452 0.0
C3638 C 0.67436 0.84595 0.09743 0.0
H3639 H 0.67154 0.78811 0.06135 0.0
H3640 H 0.68526 0.79686 0.07463 0.0
H3641 H 0.66555 0.8595 0.08681 0.0
H3642 H 0.7269 0.88006 0.12267 0.0
H3643 H 0.71428 0.87494 0.10926 0.0
H3644 H 0.67765 0.78415 0.1002 0.0
C3645 C 0.66975 0.80273 0.07252 0.0
C3646 C 0.66781 0.84271 0.08967 0.0
C3647 C 0.66219 0.79811 0.06484 0.0
C3648 C 0.71189 0.85861 0.12049 0.0
C3649 C 0.70437 0.85572 0.1128 0.0
C3650 C 0.67472 0.80063 0.09739 0.0
C3651 C 0.65747 0.81468 0.07739 0.0
C3652 C 0.66462 0.81837 0.08566 0.0
C3653 C 0.68504 0.82831 0.10968 0.0
C3654 C 0.67789 0.82493 0.10141 0.0
H3655 H 0.61512 0.8241 0.06446 0.0
H3656 H 0.62775 0.8315 0.07786 0.0
H3657 H 0.66547 0.77813 0.0868 0.0
H3658 H 0.67145 0.78745 0.12566 0.0
H3659 H 0.65773 0.78258 0.11238 0.0
C3660 C 0.15382 0.85895 0.12025 0.0
C3661 C 0.17823 0.87054 0.12506 0.0
C3662 C 0.15642 0.85437 0.11254 0.0
C3663 C 0.2114 0.87841 0.09715 0.0
H3664 H 0.15106 0.81198 0.08639 0.0
C3665 C 0.21326 0.87009 0.06458 0.0
C3666 C 0.20531 0.84283 0.06138 0.0
C3667 C 0.20886 0.87272 0.07228 0.0
C3668 C 0.16824 0.83056 0.08931 0.0
H3669 H 0.22459 0.88621 0.12542 0.0
H3670 H 0.22893 0.87751 0.1121 0.0
H3671 H 0.14593 0.81715 0.09995 0.0
H3672 H 0.18572 0.79681 0.06386 0.0
H3673 H 0.17862 0.80149 0.07733 0.0
H3674 H 0.23403 0.89153 0.08658 0.0
C3675 C 0.20779 0.87233 0.11425 0.0
C3676 C 0.16513 0.8337 0.09708 0.0
C3677 C 0.2052 0.87693 0.12195 0.0
C3678 C 0.19242 0.81821 0.06611 0.0
C3679 C 0.18803 0.82085 0.07384 0.0
C3680 C 0.2145 0.87527 0.08939 0.0
C3681 C 0.18352 0.86128 0.10941 0.0
C3682 C 0.18669 0.85768 0.10112 0.0
C3683 C 0.19646 0.8482 0.07705 0.0
C3684 C 0.19296 0.85134 0.08535 0.0
H3685 H 0.13263 0.85345 0.12244 0.0
H3686 H 0.13727 0.84603 0.10899 0.0
H3687 H 0.2283 0.89736 0.10002 0.0
H3688 H 0.22359 0.88964 0.06116 0.0
H3689 H 0.21524 0.89409 0.07451 0.0
C3690 C 0.3856 0.1913 0.4526 0.0
C3691 C 0.36796 0.17049 0.45803 0.0
C3692 C 0.37718 0.1882 0.44498 0.0
C3693 C 0.32835 0.13214 0.43111 0.0
H3694 H 0.34651 0.19891 0.41852 0.0
C3695 C 0.28479 0.11986 0.40053 0.0
C3696 C 0.30437 0.13798 0.39494 0.0
C3697 C 0.29215 0.12458 0.40821 0.0
C3698 C 0.3415 0.18006 0.42194 0.0
H3699 H 0.3272 0.13025 0.45961 0.0
H3700 H 0.31213 0.12537 0.44643 0.0
H3701 H 0.35936 0.20586 0.43193 0.0
H3702 H 0.34693 0.17567 0.39311 0.0
H3703 H 0.35982 0.18392 0.40655 0.0
H3704 H 0.31032 0.10635 0.42114 0.0
C3705 C 0.33281 0.14386 0.44802 0.0
C3706 C 0.34891 0.18403 0.42965 0.0
C3707 C 0.34128 0.1469 0.45564 0.0
C3708 C 0.3314 0.1612 0.39726 0.0
C3709 C 0.33868 0.16607 0.40497 0.0
C3710 C 0.3208 0.12817 0.42343 0.0
C3711 C 0.35081 0.16424 0.44255 0.0
C3712 C 0.34247 0.16012 0.43435 0.0
C3713 C 0.31925 0.14765 0.41054 0.0
C3714 C 0.32729 0.15206 0.41874 0.0
H3715 H 0.40611 0.20998 0.45421 0.0
H3716 H 0.39178 0.20426 0.44095 0.0
H3717 H 0.32356 0.11322 0.43448 0.0
H3718 H 0.26392 0.10157 0.39895 0.0
H3719 H 0.27653 0.11014 0.41234 0.0
C3720 C 0.84941 0.183 0.39723 0.0
C3721 C 0.86571 0.16998 0.39501 0.0
C3722 C 0.84424 0.18542 0.40491 0.0
C3723 C 0.84564 0.1568 0.42411 0.0
H3724 H 0.8509 0.22866 0.43093 0.0
C3725 C 0.85199 0.18722 0.45593 0.0
C3726 C 0.83731 0.20175 0.45832 0.0
C3727 C 0.85375 0.18189 0.44823 0.0
C3728 C 0.84895 0.20827 0.42912 0.0
H3729 H 0.88932 0.14929 0.3992 0.0
H3730 H 0.88035 0.15351 0.41254 0.0
H3731 H 0.85686 0.22196 0.41754 0.0
H3732 H 0.81282 0.22187 0.45438 0.0
H3733 H 0.81541 0.21211 0.44101 0.0
H3734 H 0.838 0.14327 0.43573 0.0
C3735 C 0.87113 0.16146 0.40835 0.0
C3736 C 0.85237 0.20441 0.42142 0.0
C3737 C 0.87627 0.15902 0.40068 0.0
C3738 C 0.82404 0.21035 0.45279 0.0
C3739 C 0.82586 0.20509 0.44509 0.0
C3740 C 0.84225 0.16068 0.43182 0.0
C3741 C 0.85526 0.17493 0.41059 0.0
C3742 C 0.85085 0.17866 0.4188 0.0
C3743 C 0.84096 0.19101 0.44269 0.0
C3744 C 0.84394 0.18651 0.43444 0.0
H3745 H 0.84056 0.19131 0.39303 0.0
H3746 H 0.83147 0.19544 0.40639 0.0
H3747 H 0.84388 0.1365 0.42231 0.0
H3748 H 0.86224 0.18002 0.46002 0.0
H3749 H 0.86576 0.1712 0.44661 0.0
C3750 C 0.82029 0.66955 0.39759 0.0
C3751 C 0.83535 0.69857 0.39505 0.0
C3752 C 0.81863 0.66298 0.40533 0.0
C3753 C 0.8247 0.69602 0.42424 0.0
H3754 H 0.82553 0.62752 0.43147 0.0
C3755 C 0.7898 0.65267 0.45472 0.0
C3756 C 0.80509 0.64122 0.45855 0.0
C3757 C 0.79506 0.66024 0.44705 0.0
C3758 C 0.82552 0.6469 0.42957 0.0
H3759 H 0.86083 0.74338 0.39877 0.0
H3760 H 0.85853 0.73191 0.4122 0.0
H3761 H 0.83283 0.63976 0.41803 0.0
H3762 H 0.83829 0.62915 0.45725 0.0
H3763 H 0.84753 0.64243 0.44388 0.0
H3764 H 0.81778 0.70341 0.43578 0.0
C3765 C 0.84761 0.7142 0.40821 0.0
C3766 C 0.82937 0.65375 0.42183 0.0
C3767 C 0.84927 0.72077 0.40047 0.0
C3768 C 0.82586 0.6376 0.45448 0.0
C3769 C 0.83114 0.64519 0.4468 0.0
C3770 C 0.82083 0.68918 0.43197 0.0
C3771 C 0.83199 0.68523 0.41076 0.0
C3772 C 0.82886 0.67833 0.41905 0.0
C3773 C 0.81577 0.6566 0.44297 0.0
C3774 C 0.82098 0.66441 0.43475 0.0
H3775 H 0.80957 0.65183 0.39359 0.0
H3776 H 0.80621 0.64044 0.40706 0.0
H3777 H 0.82383 0.71494 0.42233 0.0
H3778 H 0.77319 0.65519 0.45759 0.0
H3779 H 0.78237 0.66839 0.44428 0.0
C3780 C 0.87581 0.6796 0.89725 0.0
C3781 C 0.86901 0.69998 0.89421 0.0
C3782 C 0.87096 0.67191 0.90492 0.0
C3783 C 0.83122 0.67428 0.92206 0.0
H3784 H 0.88951 0.66404 0.9326 0.0
C3785 C 0.81527 0.63036 0.95289 0.0
C3786 C 0.83974 0.64193 0.95768 0.0
C3787 C 0.81813 0.63784 0.9452 0.0
C3788 C 0.87311 0.66708 0.92978 0.0
H3789 H 0.85083 0.72751 0.8969 0.0
H3790 H 0.84301 0.71462 0.91028 0.0
H3791 H 0.89556 0.67609 0.91919 0.0
H3792 H 0.88647 0.67078 0.95803 0.0
H3793 H 0.89128 0.68442 0.94475 0.0
H3794 H 0.80916 0.66598 0.93272 0.0
C3795 C 0.85186 0.70434 0.90672 0.0
C3796 C 0.87638 0.67359 0.92204 0.0
C3797 C 0.85667 0.712 0.89904 0.0
C3798 C 0.86704 0.66165 0.95458 0.0
C3799 C 0.86988 0.66916 0.9469 0.0
C3800 C 0.82797 0.6678 0.92982 0.0
C3801 C 0.85925 0.68443 0.90979 0.0
C3802 C 0.85548 0.67726 0.91805 0.0
C3803 C 0.84554 0.65712 0.94207 0.0
C3804 C 0.8489 0.66414 0.9338 0.0
H3805 H 0.88565 0.6701 0.89376 0.0
H3806 H 0.87652 0.65616 0.90703 0.0
H3807 H 0.81453 0.67668 0.91919 0.0
H3808 H 0.79384 0.61537 0.95508 0.0
H3809 H 0.79889 0.62793 0.94167 0.0
C3810 C 0.29724 0.14649 0.89921 0.0
C3811 C 0.30864 0.17099 0.89443 0.0
C3812 C 0.30484 0.14932 0.90689 0.0
C3813 C 0.33407 0.20414 0.92235 0.0
H3814 H 0.34449 0.1458 0.9328 0.0
C3815 C 0.34732 0.20653 0.95486 0.0
C3816 C 0.36794 0.19993 0.95783 0.0
C3817 C 0.33948 0.20174 0.9472 0.0
C3818 C 0.34186 0.16242 0.92997 0.0
H3819 H 0.33727 0.21776 0.8941 0.0
H3820 H 0.3511 0.22254 0.90737 0.0
H3821 H 0.33347 0.1405 0.91929 0.0
H3822 H 0.39576 0.1822 0.95503 0.0
H3823 H 0.3826 0.17447 0.94166 0.0
H3824 H 0.34314 0.22645 0.93296 0.0
C3825 C 0.3359 0.20112 0.90521 0.0
C3826 C 0.3352 0.1592 0.92222 0.0
C3827 C 0.32828 0.19831 0.89754 0.0
C3828 C 0.38006 0.18787 0.95295 0.0
C3829 C 0.37225 0.18312 0.94528 0.0
C3830 C 0.34075 0.20737 0.93008 0.0
C3831 C 0.32406 0.17673 0.91002 0.0
C3832 C 0.33125 0.18005 0.91829 0.0
C3833 C 0.35208 0.19029 0.94227 0.0
C3834 C 0.34473 0.18656 0.93401 0.0
H3835 H 0.28232 0.12505 0.89702 0.0
H3836 H 0.29509 0.13005 0.91041 0.0
H3837 H 0.33081 0.22046 0.91957 0.0
H3838 H 0.33773 0.21616 0.9584 0.0
H3839 H 0.32355 0.20713 0.94514 0.0
C3840 C 0.82253 0.15258 0.89681 0.0
C3841 C 0.83711 0.13792 0.89445 0.0
C3842 C 0.82039 0.15765 0.90451 0.0
C3843 C 0.824 0.13046 0.92362 0.0
H3844 H 0.8293 0.20225 0.9305 0.0
C3845 C 0.82268 0.15508 0.95554 0.0
C3846 C 0.80654 0.16829 0.95775 0.0
C3847 C 0.82799 0.15273 0.94786 0.0
C3848 C 0.82746 0.18194 0.92868 0.0
H3849 H 0.86101 0.11726 0.89845 0.0
H3850 H 0.85779 0.12657 0.91182 0.0
H3851 H 0.83566 0.19581 0.91709 0.0
H3852 H 0.78335 0.18937 0.95353 0.0
H3853 H 0.79256 0.18528 0.9402 0.0
H3854 H 0.81556 0.11645 0.93517 0.0
C3855 C 0.8477 0.1339 0.90771 0.0
C3856 C 0.83112 0.17824 0.92097 0.0
C3857 C 0.84989 0.1289 0.90001 0.0
C3858 C 0.79627 0.17949 0.95207 0.0
C3859 C 0.80155 0.17711 0.9444 0.0
C3860 C 0.82031 0.13414 0.93132 0.0
C3861 C 0.83271 0.14813 0.91008 0.0
C3862 C 0.82938 0.15241 0.91833 0.0
C3863 C 0.81728 0.16348 0.94217 0.0
C3864 C 0.82191 0.1599 0.93397 0.0
H3865 H 0.81264 0.16011 0.89269 0.0
H3866 H 0.80848 0.16846 0.9061 0.0
H3867 H 0.82198 0.11006 0.9218 0.0
H3868 H 0.83133 0.14659 0.95974 0.0
H3869 H 0.84065 0.14257 0.9464 0.0
C3870 C 0.63128 0.81382 0.56555 0.0
C3871 C 0.64187 0.8384 0.56082 0.0
C3872 C 0.63897 0.8167 0.57323 0.0
C3873 C 0.66654 0.87115 0.58878 0.0
H3874 H 0.67972 0.81429 0.59908 0.0
C3875 C 0.68002 0.87325 0.62128 0.0
C3876 C 0.70135 0.86763 0.62422 0.0
C3877 C 0.67221 0.86841 0.61362 0.0
C3878 C 0.67631 0.8305 0.59629 0.0
H3879 H 0.66915 0.88536 0.56057 0.0
H3880 H 0.68312 0.89025 0.57383 0.0
H3881 H 0.66863 0.80896 0.58557 0.0
H3882 H 0.73051 0.85155 0.62135 0.0
H3883 H 0.71739 0.84374 0.60798 0.0
H3884 H 0.67487 0.89309 0.59943 0.0
C3885 C 0.66849 0.86873 0.57164 0.0
C3886 C 0.66961 0.82726 0.58854 0.0
C3887 C 0.6608 0.86586 0.56397 0.0
C3888 C 0.71424 0.85647 0.61929 0.0
C3889 C 0.70646 0.85167 0.61162 0.0
C3890 C 0.67324 0.8744 0.59652 0.0
C3891 C 0.65745 0.84424 0.57641 0.0
C3892 C 0.66467 0.84757 0.58467 0.0
C3893 C 0.68556 0.85788 0.60865 0.0
C3894 C 0.6782 0.85413 0.60039 0.0
H3895 H 0.61692 0.79228 0.56333 0.0
H3896 H 0.62983 0.79734 0.57672 0.0
H3897 H 0.6625 0.88704 0.58605 0.0
H3898 H 0.66981 0.88217 0.62485 0.0
H3899 H 0.65571 0.87304 0.61159 0.0
C3900 C 0.18085 0.794 0.56624 0.0
C3901 C 0.16832 0.80369 0.56078 0.0
C3902 C 0.17943 0.79922 0.57397 0.0
C3903 C 0.16567 0.84501 0.58744 0.0
H3904 H 0.14878 0.78257 0.60154 0.0
C3905 C 0.1324 0.84689 0.61865 0.0
C3906 C 0.14232 0.83509 0.62427 0.0
C3907 C 0.13736 0.84451 0.61096 0.0
C3908 C 0.15392 0.80043 0.59771 0.0
H3909 H 0.14519 0.82734 0.55923 0.0
H3910 H 0.14232 0.83604 0.57267 0.0
H3911 H 0.15421 0.77593 0.58812 0.0
H3912 H 0.16619 0.81235 0.62612 0.0
H3913 H 0.17492 0.8083 0.61273 0.0
H3914 H 0.16517 0.86943 0.59704 0.0
C3915 C 0.15345 0.82454 0.57099 0.0
C3916 C 0.15704 0.79661 0.58999 0.0
C3917 C 0.15482 0.81926 0.56326 0.0
C3918 C 0.15782 0.82131 0.62196 0.0
C3919 C 0.1628 0.81895 0.61427 0.0
C3920 C 0.16256 0.84884 0.59517 0.0
C3921 C 0.16548 0.81433 0.57646 0.0
C3922 C 0.16286 0.81879 0.58473 0.0
C3923 C 0.1524 0.83026 0.60865 0.0
C3924 C 0.15654 0.82657 0.60042 0.0
H3925 H 0.19115 0.78167 0.56458 0.0
H3926 H 0.18928 0.79135 0.57799 0.0
H3927 H 0.17058 0.86275 0.58359 0.0
H3928 H 0.11996 0.85722 0.62018 0.0
H3929 H 0.12863 0.85312 0.60681 0.0
C3930 C 0.21013 0.38978 0.56688 0.0
C3931 C 0.20125 0.36791 0.56134 0.0
C3932 C 0.20517 0.38268 0.57459 0.0
C3933 C 0.16122 0.32191 0.5879 0.0
H3934 H 0.22314 0.36842 0.60204 0.0
C3935 C 0.16066 0.28614 0.61899 0.0
C3936 C 0.17193 0.30765 0.62466 0.0
C3937 C 0.16283 0.29374 0.61132 0.0
C3938 C 0.20542 0.35541 0.5982 0.0
H3939 H 0.17936 0.32126 0.55963 0.0
H3940 H 0.17107 0.3089 0.57305 0.0
H3941 H 0.2293 0.38109 0.58865 0.0
H3942 H 0.19354 0.35413 0.62664 0.0
H3943 H 0.19719 0.36738 0.61329 0.0
H3944 H 0.13739 0.29613 0.59746 0.0
C3945 C 0.18174 0.3316 0.57143 0.0
C3946 C 0.20897 0.36269 0.5905 0.0
C3947 C 0.18676 0.33871 0.56373 0.0
C3948 C 0.18499 0.33698 0.62244 0.0
C3949 C 0.18713 0.34458 0.61476 0.0
C3950 C 0.15764 0.31464 0.59562 0.0
C3951 C 0.19114 0.3535 0.57698 0.0
C3952 C 0.18697 0.346 0.58523 0.0
C3953 C 0.17633 0.32309 0.60909 0.0
C3954 C 0.17974 0.33123 0.60088 0.0
H3955 H 0.22164 0.41251 0.56529 0.0
H3956 H 0.2124 0.40013 0.57868 0.0
H3957 H 0.14362 0.30878 0.58404 0.0
H3958 H 0.15089 0.26336 0.62046 0.0
H3959 H 0.15464 0.27657 0.60713 0.0
C3960 C 0.9953 0.46188 0.7313 0.0
C3961 C 0.9755 0.46922 0.72812 0.0
C3962 C 1.00256 0.46661 0.73899 0.0
C3963 C 1.00038 0.50709 0.756 0.0
H3964 H 0.00934 0.4484 0.76675 0.0
C3965 C 0.04394 0.5233 0.7869 0.0
C3966 C 0.03205 0.49896 0.79174 0.0
C3967 C 0.03652 0.52034 0.7792 0.0
C3968 C 0.00665 0.46492 0.76388 0.0
H3969 H 0.94845 0.48811 0.73063 0.0
H3970 H 0.9606 0.49574 0.74406 0.0
H3971 H 0.99747 0.44214 0.75334 0.0
H3972 H 1.00267 0.45233 0.79217 0.0
H3973 H 0.98914 0.44735 0.77887 0.0
H3974 H 0.00891 0.52952 0.76661 0.0
C3975 C 0.97077 0.48656 0.74057 0.0
C3976 C 1.00024 0.46152 0.75613 0.0
C3977 C 0.96353 0.48186 0.73286 0.0
C3978 C 0.01207 0.47168 0.78867 0.0
C3979 C 1.00461 0.46873 0.78099 0.0
C3980 C 0.00678 0.51049 0.76377 0.0
C3981 C 0.99018 0.47873 0.74377 0.0
C3982 C 0.99706 0.48256 0.75206 0.0
C3983 C 0.01697 0.49294 0.77611 0.0
C3984 C 0.00999 0.48942 0.76783 0.0
H3985 H 1.00474 0.45178 0.72789 0.0
H3986 H 0.01792 0.46069 0.7412 0.0
H3987 H 0.99837 0.5239 0.75307 0.0
H3988 H 0.05914 0.54473 0.78905 0.0
H3989 H 0.04667 0.53947 0.77563 0.0
C3990 C 0.54713 0.49258 0.73406 0.0
C3991 C 0.53789 0.50486 0.72841 0.0
C3992 C 0.54162 0.49469 0.74173 0.0
C3993 C 0.52441 0.5385 0.75492 0.0
H3994 H 0.50625 0.47544 0.76892 0.0
C3995 C 0.4943 0.54327 0.78619 0.0
C3996 C 0.50639 0.53342 0.79174 0.0
C3997 C 0.4965 0.53843 0.77848 0.0
C3998 C 0.51156 0.49338 0.76511 0.0
H3999 H 0.51465 0.52816 0.72645 0.0
H4000 H 0.50491 0.53169 0.73979 0.0
H4001 H 0.51278 0.46935 0.7555 0.0
H4002 H 0.5296 0.50995 0.79346 0.0
H4003 H 0.53376 0.50184 0.78002 0.0
H4004 H 0.52334 0.56258 0.76452 0.0
C4005 C 0.51695 0.5209 0.73831 0.0
C4006 C 0.51532 0.48989 0.75739 0.0
C4007 C 0.5225 0.51883 0.73064 0.0
C4008 C 0.52026 0.5181 0.78935 0.0
C4009 C 0.52239 0.51318 0.78164 0.0
C4010 C 0.52061 0.54197 0.76262 0.0
C4011 C 0.52668 0.50911 0.74398 0.0
C4012 C 0.5219 0.51245 0.75219 0.0
C4013 C 0.5108 0.52355 0.77608 0.0
C4014 C 0.51422 0.5195 0.76784 0.0
H4015 H 0.55945 0.48207 0.73259 0.0
H4016 H 0.54985 0.4857 0.74591 0.0
H4017 H 0.52997 0.55657 0.75113 0.0
H4018 H 0.48374 0.55543 0.78778 0.0
H4019 H 0.48698 0.54642 0.77438 0.0
C4020 C 0.49238 0.00606 0.73086 0.0
C4021 C 0.50691 0.03527 0.72848 0.0
C4022 C 0.49031 0.99896 0.73857 0.0
C4023 C 0.49376 0.02994 0.75763 0.0
H4024 H 0.49932 0.9637 0.76462 0.0
C4025 C 0.49211 0.00442 0.78957 0.0
C4026 C 0.47597 0.97509 0.7918 0.0
C4027 C 0.49757 0.012 0.7819 0.0
C4028 C 0.49741 0.98211 0.76277 0.0
H4029 H 0.5308 0.07988 0.73244 0.0
H4030 H 0.52767 0.06751 0.74582 0.0
H4031 H 0.50575 0.97634 0.7512 0.0
H4032 H 0.45297 0.93077 0.78761 0.0
H4033 H 0.46243 0.94395 0.77428 0.0
H4034 H 0.48516 0.03559 0.76916 0.0
C4035 C 0.51759 0.05005 0.74173 0.0
C4036 C 0.50112 0.98938 0.75505 0.0
C4037 C 0.51972 0.05715 0.73403 0.0
C4038 C 0.46588 0.95356 0.78614 0.0
C4039 C 0.4713 0.96114 0.77847 0.0
C4040 C 0.49003 0.02266 0.76533 0.0
C4041 C 0.50262 0.02086 0.74412 0.0
C4042 C 0.49927 0.01336 0.75237 0.0
C4043 C 0.48701 0.99048 0.77623 0.0
C4044 C 0.49172 0.9986 0.76802 0.0
H4045 H 0.48248 0.98861 0.72676 0.0
H4046 H 0.47842 0.97625 0.74019 0.0
H4047 H 0.49167 0.04824 0.75577 0.0
H4048 H 0.50061 0.02159 0.79377 0.0
H4049 H 0.5102 0.0348 0.78042 0.0
C4050 C 0.55103 0.01975 0.23149 0.0
C4051 C 0.53647 0.032 0.22766 0.0
C4052 C 0.54551 0.01213 0.23915 0.0
C4053 C 0.5161 0.0267 0.25662 0.0
H4054 H 0.51468 0.95702 0.2638 0.0
C4055 C 0.51998 1.00273 0.28857 0.0
C4056 C 0.50375 0.97372 0.29107 0.0
C4057 C 0.52199 0.00954 0.28085 0.0
C4058 C 0.5147 0.97641 0.2619 0.0
H4059 H 0.50428 0.04543 0.22896 0.0
H4060 H 0.49462 0.03209 0.24232 0.0
H4061 H 0.52125 0.96875 0.25036 0.0
H4062 H 0.47663 0.9292 0.28729 0.0
H4063 H 0.47961 0.94111 0.27388 0.0
H4064 H 0.5092 0.03415 0.26817 0.0
C4065 C 0.51063 0.02873 0.2394 0.0
C4066 C 0.51885 0.98335 0.25418 0.0
C4067 C 0.51615 0.03636 0.23172 0.0
C4068 C 0.48908 0.95181 0.28562 0.0
C4069 C 0.49111 0.95861 0.27789 0.0
C4070 C 0.51199 0.01978 0.26436 0.0
C4071 C 0.52527 0.01653 0.24322 0.0
C4072 C 0.5198 0.00869 0.25143 0.0
C4073 C 0.50788 0.98754 0.27539 0.0
C4074 C 0.51136 0.99459 0.26711 0.0
H4075 H 0.56728 0.01663 0.22862 0.0
H4076 H 0.55763 0.00333 0.24192 0.0
H4077 H 0.51696 0.04652 0.25474 0.0
H4078 H 0.53132 0.02024 0.2926 0.0
H4079 H 0.53528 0.03203 0.27914 0.0
C4080 C 0.00522 0.5181 0.28865 0.0
C4081 C 0.03429 0.53405 0.2911 0.0
C4082 C 0.9985 0.51294 0.28093 0.0
C4083 C 0.02942 0.54177 0.26194 0.0
H4084 H 0.96565 0.46847 0.25482 0.0
C4085 C 0.00534 0.51764 0.22996 0.0
C4086 C 0.97601 0.50344 0.2277 0.0
C4087 C 0.01283 0.51994 0.23764 0.0
C4088 C 0.98336 0.48919 0.25672 0.0
H4089 H 0.07908 0.5569 0.28726 0.0
H4090 H 0.06742 0.54743 0.27385 0.0
H4091 H 0.97792 0.47498 0.26827 0.0
H4092 H 0.9316 0.48047 0.23182 0.0
H4093 H 0.94462 0.48445 0.24517 0.0
H4094 H 0.03473 0.5561 0.25042 0.0
C4095 C 0.04975 0.53915 0.27789 0.0
C4096 C 0.99041 0.49292 0.26444 0.0
C4097 C 0.05646 0.54426 0.28561 0.0
C4098 C 0.95441 0.49115 0.23332 0.0
C4099 C 0.9619 0.49346 0.241 0.0
C4100 C 0.02237 0.53804 0.25423 0.0
C4101 C 0.02067 0.52365 0.27543 0.0
C4102 C 0.01349 0.51931 0.26717 0.0
C4103 C 0.99122 0.50813 0.24328 0.0
C4104 C 0.99917 0.51174 0.2515 0.0
H4105 H 0.98756 0.50963 0.2927 0.0
H4106 H 0.97586 0.50112 0.27926 0.0
H4107 H 0.047 0.56257 0.26383 0.0
H4108 H 0.02258 0.52699 0.2258 0.0
H4109 H 0.03564 0.53093 0.23916 0.0
C4110 C 0.51772 0.46367 0.2335 0.0
C4111 C 0.50545 0.47332 0.22795 0.0
C4112 C 0.51565 0.46867 0.24121 0.0
C4113 C 0.50073 0.51395 0.25452 0.0
H4114 H 0.48285 0.45122 0.26861 0.0
C4115 C 0.46596 0.51566 0.28559 0.0
C4116 C 0.47541 0.50363 0.29126 0.0
C4117 C 0.47126 0.51329 0.27792 0.0
C4118 C 0.48826 0.46916 0.26479 0.0
H4119 H 0.48203 0.49657 0.22622 0.0
H4120 H 0.4781 0.50496 0.23965 0.0
H4121 H 0.48915 0.44484 0.25523 0.0
H4122 H 0.49876 0.48046 0.29324 0.0
H4123 H 0.50815 0.47648 0.27989 0.0
H4124 H 0.49971 0.53823 0.26409 0.0
C4125 C 0.48951 0.49366 0.23804 0.0
C4126 C 0.49187 0.46548 0.25709 0.0
C4127 C 0.49151 0.48858 0.23033 0.0
C4128 C 0.49077 0.48961 0.28904 0.0
C4129 C 0.49611 0.48728 0.28137 0.0
C4130 C 0.49716 0.51766 0.26224 0.0
C4131 C 0.5013 0.48351 0.24359 0.0
C4132 C 0.49807 0.48778 0.25184 0.0
C4133 C 0.48619 0.49885 0.27569 0.0
C4134 C 0.49077 0.49527 0.26748 0.0
H4135 H 0.52833 0.45156 0.23192 0.0
H4136 H 0.52531 0.46084 0.2453 0.0
H4137 H 0.5059 0.53177 0.25068 0.0
H4138 H 0.45364 0.52618 0.28706 0.0
H4139 H 0.46288 0.5221 0.27373 0.0
C4140 C 0.97873 0.1808 0.28847 0.0
C4141 C 0.95628 0.15263 0.29032 0.0
C4142 C 0.99029 0.18737 0.28112 0.0
C4143 C 0.99662 0.15235 0.26356 0.0
H4144 H 0.01551 0.22556 0.25408 0.0
C4145 C 0.02782 0.17402 0.23191 0.0
C4146 C 0.05032 0.20183 0.22984 0.0
C4147 C 0.01616 0.16861 0.23924 0.0
C4148 C 0.01067 0.20513 0.25667 0.0
H4149 H 0.92793 0.10958 0.28574 0.0
H4150 H 0.94809 0.12095 0.27301 0.0
H4151 H 0.99605 0.21521 0.26695 0.0
H4152 H 0.0781 0.24579 0.23391 0.0
H4153 H 0.05788 0.23636 0.24668 0.0
H4154 H 0.01132 0.14225 0.25333 0.0
C4155 C 0.95718 0.13787 0.27727 0.0
C4156 C 0.9995 0.1992 0.26406 0.0
C4157 C 0.94561 0.13133 0.2846 0.0
C4158 C 0.06053 0.2242 0.23527 0.0
C4159 C 0.04891 0.21877 0.24261 0.0
C4160 C 0.00782 0.15829 0.25619 0.0
C4161 C 0.97975 0.16594 0.27542 0.0
C4162 C 0.99219 0.17265 0.2676 0.0
C4163 C 0.02671 0.19083 0.24472 0.0
C4164 C 0.0149 0.18471 0.25262 0.0
H4165 H 0.98774 0.1977 0.29273 0.0
H4166 H 0.00788 0.20913 0.27994 0.0
H4167 H 0.99178 0.13191 0.26614 0.0
H4168 H 0.01905 0.15639 0.22785 0.0
H4169 H 0.99869 0.14697 0.24059 0.0
C4170 C 0.88637 0.82122 0.28413 0.0
C4171 C 0.86484 0.80846 0.28977 0.0
C4172 C 0.87941 0.82609 0.27683 0.0
C4173 C 0.8179 0.80302 0.26345 0.0
H4174 H 0.87027 0.87536 0.2533 0.0
C4175 C 0.78848 0.83705 0.23499 0.0
C4176 C 0.81087 0.85194 0.22967 0.0
C4177 C 0.79464 0.83102 0.24227 0.0
C4178 C 0.85556 0.85485 0.256 0.0
H4179 H 0.81893 0.79104 0.29205 0.0
H4180 H 0.80678 0.7993 0.27931 0.0
H4181 H 0.88168 0.86638 0.26602 0.0
H4182 H 0.85723 0.87121 0.22781 0.0
H4183 H 0.86794 0.86052 0.24043 0.0
H4184 H 0.79184 0.79142 0.2534 0.0
C4185 C 0.82907 0.80529 0.28053 0.0
C4186 C 0.86211 0.84972 0.26332 0.0
C4187 C 0.83606 0.80052 0.28785 0.0
C4188 C 0.8395 0.86016 0.23179 0.0
C4189 C 0.84565 0.85406 0.23905 0.0
C4190 C 0.81139 0.80811 0.25611 0.0
C4191 C 0.85068 0.81824 0.27493 0.0
C4192 C 0.84342 0.82372 0.26714 0.0
C4193 C 0.82336 0.83965 0.24443 0.0
C4194 C 0.83016 0.83409 0.25227 0.0
H4195 H 0.90865 0.8271 0.28532 0.0
H4196 H 0.89654 0.83564 0.27263 0.0
H4197 H 0.80318 0.78259 0.26618 0.0
H4198 H 0.76623 0.83073 0.2336 0.0
H4199 H 0.77693 0.82023 0.24626 0.0
C4200 C 0.21991 0.05566 0.28485 0.0
C4201 C 0.19815 0.04567 0.29045 0.0
C4202 C 0.2138 0.0434 0.27759 0.0
C4203 C 0.15194 1.00029 0.26452 0.0
H4204 H 0.20871 0.98941 0.25338 0.0
C4205 C 0.12367 0.93661 0.23629 0.0
C4206 C 0.14436 0.94784 0.23042 0.0
C4207 C 0.13061 0.94842 0.24359 0.0
C4208 C 0.19272 0.99257 0.25638 0.0
H4209 H 0.15308 0.01416 0.29281 0.0
H4210 H 0.14249 0.99264 0.2802 0.0
H4211 H 0.22007 0.00971 0.26615 0.0
H4212 H 0.18871 0.98064 0.22772 0.0
H4213 H 0.20084 1.00105 0.24046 0.0
H4214 H 0.12455 0.98304 0.25477 0.0
C4215 C 0.16416 0.01043 0.28136 0.0
C4216 C 0.19924 0.00425 0.26371 0.0
C4217 C 0.17025 0.02275 0.28861 0.0
C4218 C 0.1723 0.97111 0.2321 0.0
C4219 C 0.17928 0.98285 0.23942 0.0
C4220 C 0.1454 0.98854 0.25721 0.0
C4221 C 0.18577 0.02075 0.27572 0.0
C4222 C 0.17892 0.00824 0.26789 0.0
C4223 C 0.15848 0.97174 0.24526 0.0
C4224 C 0.16566 0.98447 0.25304 0.0
H4225 H 0.24153 0.07353 0.28602 0.0
H4226 H 0.23092 0.05223 0.27338 0.0
H4227 H 0.13594 0.00355 0.26747 0.0
H4228 H 0.10213 0.91835 0.23528 0.0
H4229 H 0.11419 0.93895 0.24797 0.0
C4230 C 0.94706 0.77911 0.78387 0.0
C4231 C 0.95841 0.80116 0.7894 0.0
C4232 C 0.95872 0.78437 0.77655 0.0
C4233 C 0.02437 0.83434 0.76545 0.0
H4234 H 0.97197 0.80516 0.74827 0.0
C4235 C 0.0639 0.8723 0.73486 0.0
C4236 C 0.05211 0.85178 0.72896 0.0
C4237 C 0.05258 0.86526 0.7422 0.0
C4238 C 0.98698 0.81316 0.753 0.0
H4239 H 0.99148 0.84589 0.79155 0.0
H4240 H 0.0116 0.85514 0.77877 0.0
H4241 H 0.95234 0.79439 0.7611 0.0
H4242 H 0.0189 0.80764 0.72625 0.0
H4243 H 0.99951 0.79518 0.73909 0.0
H4244 H 0.05901 0.85313 0.75736 0.0
C4245 C 0.99375 0.8337 0.78011 0.0
C4246 C 0.97569 0.80698 0.76037 0.0
C4247 C 0.982 0.82848 0.78742 0.0
C4248 C 0.0287 0.82394 0.73064 0.0
C4249 C 0.01736 0.81689 0.738 0.0
C4250 C 0.03566 0.84046 0.75808 0.0
C4251 C 0.98216 0.81177 0.77455 0.0
C4252 C 0.99423 0.81764 0.7667 0.0
C4253 C 0.02917 0.83746 0.74389 0.0
C4254 C 0.01712 0.83013 0.75175 0.0
H4255 H 0.92872 0.7579 0.78516 0.0
H4256 H 0.94943 0.76688 0.77245 0.0
H4257 H 0.03935 0.8425 0.77018 0.0
H4258 H 0.08217 0.89381 0.73383 0.0
H4259 H 0.06205 0.88181 0.74655 0.0
C4260 C 0.15244 0.17481 0.73124 0.0
C4261 C 0.15841 0.20273 0.72904 0.0
C4262 C 0.15914 0.16973 0.73855 0.0
C4263 C 0.17276 0.1995 0.75803 0.0
H4264 H 0.20403 0.14814 0.76113 0.0
C4265 C 0.20972 0.1824 0.78762 0.0
C4266 C 0.20333 0.15405 0.7895 0.0
C4267 C 0.20511 0.18913 0.78026 0.0
C4268 C 0.19499 0.16229 0.76039 0.0
H4269 H 0.17616 0.24721 0.73288 0.0
H4270 H 0.18815 0.23842 0.7456 0.0
H4271 H 0.19466 0.15837 0.74831 0.0
H4272 H 0.1874 0.11068 0.78499 0.0
H4273 H 0.17868 0.12217 0.77227 0.0
H4274 H 0.17283 0.20321 0.77011 0.0
C4275 C 0.17808 0.22038 0.74167 0.0
C4276 C 0.18964 0.16818 0.75302 0.0
C4277 C 0.1715 0.22549 0.73434 0.0
C4278 C 0.19222 0.13265 0.78381 0.0
C4279 C 0.18759 0.13936 0.77646 0.0
C4280 C 0.17804 0.19354 0.76541 0.0
C4281 C 0.17188 0.1924 0.74388 0.0
C4282 C 0.17831 0.18675 0.75174 0.0
C4283 C 0.19402 0.1677 0.77457 0.0
C4284 C 0.18908 0.17472 0.76669 0.0
H4285 H 0.14263 0.15682 0.72729 0.0
H4286 H 0.15381 0.14785 0.74006 0.0
H4287 H 0.16366 0.21359 0.75727 0.0
H4288 H 0.21808 0.19941 0.79186 0.0
H4289 H 0.21058 0.21125 0.77901 0.0
C4290 C 0.82524 0.03065 0.78743 0.0
C4291 C 0.85381 0.05186 0.78938 0.0
C4292 C 0.81852 0.01928 0.78006 0.0
C4293 C 0.84645 0.03493 0.76026 0.0
H4294 H 0.79273 0.95281 0.75715 0.0
C4295 C 0.83298 0.97907 0.73117 0.0
C4296 C 0.80485 0.9578 0.72892 0.0
C4297 C 0.83816 0.99091 0.73848 0.0
C4298 C 0.80752 0.97587 0.7579 0.0
H4299 H 0.8976 0.07795 0.78499 0.0
H4300 H 0.8861 0.05771 0.77227 0.0
H4301 H 0.80314 0.97246 0.76997 0.0
H4302 H 0.76009 0.93234 0.73267 0.0
H4303 H 0.76905 0.95323 0.74536 0.0
H4304 H 0.85102 0.03828 0.74819 0.0
C4305 C 0.86874 0.05003 0.7764 0.0
C4306 C 0.81349 0.98717 0.76527 0.0
C4307 C 0.87543 0.06138 0.78375 0.0
C4308 C 0.78198 0.94887 0.73416 0.0
C4309 C 0.78719 0.96062 0.74149 0.0
C4310 C 0.84054 0.02362 0.75289 0.0
C4311 C 0.84018 0.02885 0.77444 0.0
C4312 C 0.83317 0.01685 0.76656 0.0
C4313 C 0.81537 0.98173 0.74376 0.0
C4314 C 0.8211 0.99391 0.75161 0.0
H4315 H 0.80804 0.02258 0.79161 0.0
H4316 H 0.79624 0.00322 0.77876 0.0
H4317 H 0.86129 0.05798 0.76099 0.0
H4318 H 0.85108 0.98668 0.72727 0.0
H4319 H 0.86019 0.00691 0.74003 0.0
C4320 C 0.64459 0.51524 0.62185 0.0
C4321 C 0.62228 0.48698 0.62367 0.0
C4322 C 0.6561 0.52206 0.6145 0.0
C4323 C 0.63946 0.49595 0.59456 0.0
H4324 H 0.72225 0.54664 0.59158 0.0
C4325 C 0.6948 0.50925 0.5654 0.0
C4326 C 0.71706 0.53715 0.5633 0.0
C4327 C 0.68291 0.50392 0.5727 0.0
C4328 C 0.69903 0.53272 0.5923 0.0
H4329 H 0.59441 0.44387 0.61905 0.0
H4330 H 0.61489 0.45551 0.60637 0.0
H4331 H 0.70247 0.53593 0.60439 0.0
H4332 H 0.74422 0.58133 0.5673 0.0
H4333 H 0.72325 0.57214 0.57999 0.0
H4334 H 0.63607 0.49255 0.58247 0.0
C4335 C 0.62332 0.47257 0.61059 0.0
C4336 C 0.68765 0.52658 0.59966 0.0
C4337 C 0.61183 0.46577 0.61792 0.0
C4338 C 0.72692 0.55964 0.56868 0.0
C4339 C 0.71512 0.55429 0.576 0.0
C4340 C 0.65085 0.50204 0.5872 0.0
C4341 C 0.64558 0.50082 0.60876 0.0
C4342 C 0.65771 0.50797 0.6009 0.0
C4343 C 0.69302 0.52632 0.57812 0.0
C4344 C 0.6808 0.5204 0.58597 0.0
H4345 H 0.6534 0.5321 0.62613 0.0
H4346 H 0.67302 0.54412 0.61331 0.0
H4347 H 0.61624 0.48199 0.59527 0.0
H4348 H 0.68646 0.49146 0.56139 0.0
H4349 H 0.66612 0.48206 0.57414 0.0
C4350 C 0.52134 0.16283 0.62152 0.0
C4351 C 0.51773 0.13561 0.62357 0.0
C4352 C 0.51467 0.16775 0.61419 0.0
C4353 C 0.50591 0.14033 0.59452 0.0
H4354 H 0.46766 0.18539 0.59133 0.0
C4355 C 0.49628 0.18178 0.56485 0.0
C4356 C 0.46995 0.18067 0.56303 0.0
C4357 C 0.50145 0.17546 0.5722 0.0
C4358 C 0.47816 0.17258 0.59211 0.0
H4359 H 0.50429 0.09225 0.61944 0.0
H4360 H 0.49237 0.10072 0.60669 0.0
H4361 H 0.47726 0.17568 0.6042 0.0
H4362 H 0.42846 0.17209 0.56757 0.0
H4363 H 0.43734 0.16077 0.58034 0.0
H4364 H 0.50659 0.13703 0.58244 0.0
C4365 C 0.50055 0.11835 0.61075 0.0
C4366 C 0.48396 0.16728 0.5995 0.0
C4367 C 0.50707 0.11339 0.6181 0.0
C4368 C 0.44886 0.17288 0.56874 0.0
C4369 C 0.4541 0.16671 0.5761 0.0
C4370 C 0.50025 0.14577 0.58713 0.0
C4371 C 0.50435 0.14563 0.60869 0.0
C4372 C 0.49792 0.15109 0.60081 0.0
C4373 C 0.48051 0.16802 0.57794 0.0
C4374 C 0.48631 0.16198 0.58582 0.0
H4375 H 0.52926 0.18037 0.6256 0.0
H4376 H 0.51811 0.1891 0.61279 0.0
H4377 H 0.51695 0.12803 0.5953 0.0
H4378 H 0.51291 0.18744 0.56059 0.0
H4379 H 0.52213 0.17694 0.57342 0.0
C4380 C 0.85849 0.40268 0.61661 0.0
C4381 C 0.8674 0.39134 0.62258 0.0
C4382 C 0.85387 0.39071 0.60933 0.0
C4383 C 0.84028 0.32403 0.59894 0.0
H4384 H 0.8616 0.37452 0.5814 0.0
C4385 C 0.83469 0.28139 0.56839 0.0
C4386 C 0.82328 0.29158 0.56275 0.0
C4387 C 0.84101 0.29384 0.57563 0.0
C4388 C 0.85526 0.36006 0.58623 0.0
H4389 H 0.87818 0.35815 0.62548 0.0
H4390 H 0.87087 0.33782 0.61277 0.0
H4391 H 0.87087 0.39548 0.59407 0.0
H4392 H 0.81023 0.32344 0.56031 0.0
H4393 H 0.82101 0.34497 0.57294 0.0
H4394 H 0.82477 0.28863 0.59109 0.0
C4395 C 0.86706 0.35577 0.61374 0.0
C4396 C 0.86055 0.37209 0.59352 0.0
C4397 C 0.87163 0.36771 0.62103 0.0
C4398 C 0.81873 0.31484 0.56452 0.0
C4399 C 0.8252 0.32739 0.57175 0.0
C4400 C 0.8351 0.31202 0.59166 0.0
C4401 C 0.85809 0.36708 0.60778 0.0
C4402 C 0.853 0.35426 0.59999 0.0
C4403 C 0.83625 0.31695 0.57743 0.0
C4404 C 0.84239 0.32985 0.5852 0.0
H4405 H 0.85536 0.42108 0.61753 0.0
H4406 H 0.84662 0.39983 0.60493 0.0
H4407 H 0.83372 0.30951 0.60376 0.0
H4408 H 0.83822 0.26335 0.56726 0.0
H4409 H 0.84977 0.28542 0.57983 0.0
C4410 C 0.69727 0.19213 0.06461 0.0
C4411 C 0.71749 0.18397 0.06226 0.0
C4412 C 0.68556 0.18573 0.07193 0.0
C4413 C 0.67483 0.13896 0.08873 0.0
H4414 H 0.66452 0.19734 0.0992 0.0
C4415 C 0.64403 0.12956 0.12064 0.0
C4416 C 0.62381 0.13806 0.12276 0.0
C4417 C 0.65554 0.1347 0.11328 0.0
C4418 C 0.66694 0.18064 0.09634 0.0
H4419 H 0.74109 0.16248 0.06583 0.0
H4420 H 0.72078 0.1514 0.07859 0.0
H4421 H 0.68393 0.20672 0.08638 0.0
H4422 H 0.59937 0.15802 0.11866 0.0
H4423 H 0.61948 0.1671 0.10592 0.0
H4424 H 0.65792 0.11295 0.09874 0.0
C4425 C 0.71363 0.16242 0.07473 0.0
C4426 C 0.67806 0.18601 0.08896 0.0
C4427 C 0.7253 0.16878 0.0674 0.0
C4428 C 0.61535 0.15172 0.11731 0.0
C4429 C 0.62687 0.1569 0.10997 0.0
C4430 C 0.66373 0.13361 0.09613 0.0
C4431 C 0.69378 0.17104 0.07713 0.0
C4432 C 0.68205 0.16521 0.08503 0.0
C4433 C 0.64717 0.14853 0.10786 0.0
C4434 C 0.65952 0.15433 0.10003 0.0
H4435 H 0.69034 0.2034 0.06078 0.0
H4436 H 0.66989 0.19219 0.0735 0.0
H4437 H 0.67724 0.12227 0.08587 0.0
H4438 H 0.65135 0.1193 0.1247 0.0
H4439 H 0.67138 0.12827 0.11189 0.0
C4440 C 0.85833 0.46504 0.11722 0.0
C4441 C 0.87117 0.48707 0.12272 0.0
C4442 C 0.85309 0.47128 0.10988 0.0
C4443 C 0.8745 0.53145 0.09613 0.0
H4444 H 0.80199 0.47692 0.08639 0.0
C4445 C 0.85082 0.54034 0.06436 0.0
C4446 C 0.82254 0.53417 0.06248 0.0
C4447 C 0.85735 0.53526 0.0717 0.0
C4448 C 0.82228 0.49251 0.08903 0.0
H4449 H 0.88856 0.53313 0.12473 0.0
H4450 H 0.87947 0.54403 0.11192 0.0
H4451 H 0.81204 0.46722 0.09918 0.0
H4452 H 0.77924 0.51866 0.06699 0.0
H4453 H 0.79055 0.50971 0.07971 0.0
H4454 H 0.88448 0.55696 0.086 0.0
C4455 C 0.87372 0.52191 0.11328 0.0
C4456 C 0.8282 0.48676 0.09635 0.0
C4457 C 0.87893 0.51564 0.12064 0.0
C4458 C 0.80109 0.52307 0.06816 0.0
C4459 C 0.80759 0.51796 0.07548 0.0
C4460 C 0.86861 0.53716 0.08879 0.0
C4461 C 0.86058 0.49976 0.10781 0.0
C4462 C 0.85438 0.50613 0.10001 0.0
C4463 C 0.83576 0.52385 0.07735 0.0
C4464 C 0.84237 0.51778 0.08514 0.0
H4465 H 0.85265 0.4429 0.11854 0.0
H4466 H 0.84347 0.45376 0.10579 0.0
H4467 H 0.895 0.54673 0.09874 0.0
H4468 H 0.86784 0.54861 0.06012 0.0
H4469 H 0.8792 0.53975 0.07291 0.0
C4470 C 0.49199 0.36442 0.12099 0.0
C4471 C 0.52069 0.38514 0.123 0.0
C4472 C 0.48532 0.35296 0.11363 0.0
C4473 C 0.51942 0.34279 0.09642 0.0
H4474 H 0.44923 0.33049 0.08639 0.0
C4475 C 0.49864 0.31206 0.06473 0.0
C4476 C 0.47027 0.29125 0.06252 0.0
C4477 C 0.50428 0.32384 0.07204 0.0
C4478 C 0.46877 0.33347 0.08913 0.0
H4479 H 0.56469 0.41052 0.11868 0.0
H4480 H 0.55313 0.3905 0.10594 0.0
H4481 H 0.4598 0.34986 0.09926 0.0
H4482 H 0.42554 0.26666 0.06635 0.0
H4483 H 0.43535 0.28711 0.07909 0.0
H4484 H 0.52839 0.32631 0.08634 0.0
C4485 C 0.53582 0.38268 0.11009 0.0
C4486 C 0.47484 0.34459 0.09652 0.0
C4487 C 0.54246 0.39416 0.11742 0.0
C4488 C 0.4476 0.28292 0.0678 0.0
C4489 C 0.45324 0.29466 0.07513 0.0
C4490 C 0.51335 0.33164 0.08904 0.0
C4491 C 0.50718 0.36187 0.10809 0.0
C4492 C 0.50032 0.34952 0.10026 0.0
C4493 C 0.48171 0.31511 0.07738 0.0
C4494 C 0.488 0.32692 0.08527 0.0
H4495 H 0.47469 0.35668 0.12514 0.0
H4496 H 0.4631 0.33672 0.11233 0.0
H4497 H 0.53898 0.34577 0.09915 0.0
H4498 H 0.51657 0.31939 0.06079 0.0
H4499 H 0.52638 0.33996 0.0735 0.0
C4500 C 0.36315 0.87218 0.89851 0.0
C4501 C 0.38281 0.86312 0.89626 0.0
C4502 C 0.35109 0.8661 0.9058 0.0
C4503 C 0.3363 0.81642 0.92207 0.0
H4504 H 0.32681 0.87386 0.9333 0.0
C4505 C 0.27194 0.78834 0.95019 0.0
C4506 C 0.2835 0.80874 0.95612 0.0
C4507 C 0.28385 0.79538 0.9429 0.0
C4508 C 0.32946 0.85762 0.93026 0.0
H4509 H 0.40576 0.84124 0.90009 0.0
H4510 H 0.38464 0.8305 0.91273 0.0
H4511 H 0.3483 0.88555 0.92065 0.0
H4512 H 0.31696 0.8527 0.95893 0.0
H4513 H 0.33758 0.86499 0.94621 0.0
H4514 H 0.31786 0.78862 0.9317 0.0
C4515 C 0.37812 0.84188 0.90881 0.0
C4516 C 0.3415 0.86422 0.92297 0.0
C4517 C 0.39022 0.84802 0.90154 0.0
C4518 C 0.30718 0.83652 0.95451 0.0
C4519 C 0.31905 0.84359 0.9472 0.0
C4520 C 0.32415 0.80978 0.92934 0.0
C4521 C 0.35831 0.85073 0.91104 0.0
C4522 C 0.34517 0.84373 0.91878 0.0
C4523 C 0.30763 0.82306 0.94131 0.0
C4524 C 0.32058 0.83028 0.93354 0.0
H4525 H 0.35664 0.88356 0.89459 0.0
H4526 H 0.33565 0.87296 0.90729 0.0
H4527 H 0.33848 0.79997 0.919 0.0
H4528 H 0.25336 0.76695 0.95115 0.0
H4529 H 0.27415 0.77917 0.93848 0.0
C4530 C 0.17997 0.4521 0.95161 0.0
C4531 C 0.19762 0.47547 0.95643 0.0
C4532 C 0.17306 0.45707 0.9443 0.0
C4533 C 0.19781 0.51431 0.92944 0.0
H4534 H 0.12133 0.46447 0.92091 0.0
C4535 C 0.16106 0.54289 0.9015 0.0
C4536 C 0.14492 0.5203 0.89633 0.0
C4537 C 0.16712 0.53689 0.90878 0.0
C4538 C 0.1429 0.47842 0.92317 0.0
H4539 H 0.22107 0.52246 0.95737 0.0
H4540 H 0.20889 0.53114 0.9447 0.0
H4541 H 0.13228 0.45515 0.93368 0.0
H4542 H 0.12261 0.4735 0.89484 0.0
H4543 H 0.13308 0.46305 0.90755 0.0
H4544 H 0.2084 0.53766 0.91896 0.0
C4545 C 0.20088 0.50891 0.94648 0.0
C4546 C 0.14921 0.47306 0.93051 0.0
C4547 C 0.20786 0.50394 0.95377 0.0
C4548 C 0.13481 0.49147 0.89868 0.0
C4549 C 0.14082 0.48546 0.90598 0.0
C4550 C 0.19149 0.5197 0.92213 0.0
C4551 C 0.18354 0.48557 0.94162 0.0
C4552 C 0.17674 0.49101 0.93376 0.0
C4553 C 0.15716 0.50811 0.91113 0.0
C4554 C 0.16392 0.50191 0.91889 0.0
H4555 H 0.172 0.4299 0.95342 0.0
H4556 H 0.15999 0.43854 0.9407 0.0
H4557 H 0.21944 0.52826 0.93167 0.0
H4558 H 0.16869 0.56531 0.89998 0.0
H4559 H 0.17928 0.55487 0.91262 0.0
C4560 C 0.48484 0.64564 0.89846 0.0
C4561 C 0.49088 0.62372 0.89628 0.0
C4562 C 0.49101 0.6571 0.90581 0.0
C4563 C 0.53398 0.66343 0.9231 0.0
H4564 H 0.47833 0.67988 0.93282 0.0
C4565 C 0.5417 0.6948 0.95494 0.0
C4566 C 0.53525 0.7167 0.95685 0.0
C4567 C 0.53672 0.68326 0.94759 0.0
C4568 C 0.49429 0.67572 0.93017 0.0
H4569 H 0.50833 0.59681 0.90019 0.0
H4570 H 0.51901 0.6167 0.913 0.0
H4571 H 0.46927 0.66059 0.91999 0.0
H4572 H 0.51924 0.74413 0.95237 0.0
H4573 H 0.51047 0.724 0.93964 0.0
H4574 H 0.55893 0.67851 0.93333 0.0
C4575 C 0.50985 0.62535 0.90899 0.0
C4576 C 0.4891 0.66467 0.92279 0.0
C4577 C 0.50372 0.61392 0.90163 0.0
C4578 C 0.52388 0.72685 0.95118 0.0
C4579 C 0.51887 0.71531 0.94385 0.0
C4580 C 0.53915 0.67447 0.9305 0.0
C4581 C 0.50335 0.64694 0.9112 0.0
C4582 C 0.50892 0.65849 0.91912 0.0
C4583 C 0.52513 0.6933 0.94195 0.0
C4584 C 0.51944 0.68091 0.93413 0.0
H4585 H 0.47543 0.65409 0.89447 0.0
H4586 H 0.48625 0.67411 0.90724 0.0
H4587 H 0.54993 0.65929 0.92044 0.0
H4588 H 0.55017 0.68619 0.95916 0.0
H4589 H 0.54149 0.6661 0.94636 0.0
C4590 C 0.31402 0.49806 0.45438 0.0
C4591 C 0.29189 0.47018 0.45654 0.0
C4592 C 0.32576 0.50321 0.44706 0.0
C4593 C 0.30935 0.47385 0.42752 0.0
H4594 H 0.39202 0.52485 0.42443 0.0
C4595 C 0.36328 0.49113 0.3979 0.0
C4596 C 0.38538 0.51944 0.39605 0.0
C4597 C 0.35193 0.48434 0.40526 0.0
C4598 C 0.36882 0.51081 0.42517 0.0
H4599 H 0.2648 0.42585 0.45263 0.0
H4600 H 0.28552 0.43475 0.43991 0.0
H4601 H 0.37246 0.51449 0.43725 0.0
H4602 H 0.41305 0.56268 0.40061 0.0
H4603 H 0.39285 0.5511 0.41332 0.0
H4604 H 0.30567 0.47036 0.41544 0.0
C4605 C 0.29366 0.45271 0.44387 0.0
C4606 C 0.3576 0.50484 0.43254 0.0
C4607 C 0.282 0.44753 0.4512 0.0
C4608 C 0.39579 0.54074 0.40177 0.0
C4609 C 0.38446 0.53398 0.40912 0.0
C4610 C 0.32057 0.47987 0.42015 0.0
C4611 C 0.31562 0.48065 0.44169 0.0
C4612 C 0.32768 0.48639 0.43382 0.0
C4613 C 0.36241 0.50567 0.41098 0.0
C4614 C 0.35046 0.49858 0.41886 0.0
H4615 H 0.32237 0.51596 0.45835 0.0
H4616 H 0.34244 0.52506 0.44557 0.0
H4617 H 0.28615 0.45986 0.42828 0.0
H4618 H 0.35453 0.47419 0.39364 0.0
H4619 H 0.33517 0.46224 0.40649 0.0
C4620 C 0.51613 0.87523 0.39756 0.0
C4621 C 0.48751 0.86789 0.39566 0.0
C4622 C 0.52308 0.87089 0.40493 0.0
C4623 C 0.49591 0.85977 0.42479 0.0
H4624 H 0.54939 0.83108 0.42793 0.0
C4625 C 0.50995 0.81836 0.45395 0.0
C4626 C 0.5381 0.82514 0.45616 0.0
C4627 C 0.50463 0.82483 0.44663 0.0
C4628 C 0.53468 0.83944 0.42717 0.0
H4629 H 0.4439 0.85055 0.40015 0.0
H4630 H 0.45579 0.84233 0.41287 0.0
H4631 H 0.5386 0.83976 0.41509 0.0
H4632 H 0.58276 0.84412 0.45235 0.0
H4633 H 0.57356 0.85574 0.43963 0.0
H4634 H 0.4918 0.85921 0.43686 0.0
C4635 C 0.47301 0.85176 0.4087 0.0
C4636 C 0.52849 0.84444 0.41979 0.0
C4637 C 0.46608 0.8561 0.40134 0.0
C4638 C 0.56086 0.83883 0.45087 0.0
C4639 C 0.55551 0.84519 0.44355 0.0
C4640 C 0.50205 0.85471 0.43216 0.0
C4641 C 0.50161 0.85914 0.41061 0.0
C4642 C 0.50888 0.85452 0.41849 0.0
C4643 C 0.5273 0.83817 0.44131 0.0
C4644 C 0.5214 0.84433 0.43345 0.0
H4645 H 0.53318 0.88411 0.39334 0.0
H4646 H 0.54539 0.8771 0.4062 0.0
H4647 H 0.48115 0.86808 0.42404 0.0
H4648 H 0.49195 0.80806 0.45788 0.0
H4649 H 0.48259 0.81884 0.44511 0.0
C4650 C 0.22035 0.73033 0.45 0.0
C4651 C 0.19882 0.72124 0.45565 0.0
C4652 C 0.21369 0.71785 0.44277 0.0
C4653 C 0.15248 0.67648 0.4295 0.0
H4654 H 0.20661 0.6581 0.41968 0.0
C4655 C 0.1247 0.61129 0.40135 0.0
C4656 C 0.14719 0.61898 0.39605 0.0
C4657 C 0.13061 0.62382 0.40859 0.0
C4658 C 0.19139 0.66343 0.42228 0.0
H4659 H 0.15322 0.69154 0.45801 0.0
H4660 H 0.14158 0.67004 0.44538 0.0
H4661 H 0.21752 0.67971 0.43227 0.0
H4662 H 0.19347 0.64664 0.39419 0.0
H4663 H 0.20374 0.66869 0.40673 0.0
H4664 H 0.12644 0.66042 0.41948 0.0
C4665 C 0.16363 0.68706 0.44655 0.0
C4666 C 0.19765 0.67581 0.42952 0.0
C4667 C 0.17033 0.69945 0.45381 0.0
C4668 C 0.17568 0.63981 0.39816 0.0
C4669 C 0.18157 0.65244 0.40538 0.0
C4670 C 0.14626 0.6642 0.42223 0.0
C4671 C 0.18526 0.696 0.44094 0.0
C4672 C 0.17833 0.68256 0.43323 0.0
C4673 C 0.15917 0.6445 0.41072 0.0
C4674 C 0.16566 0.65754 0.4185 0.0
H4675 H 0.24239 0.74744 0.45113 0.0
H4676 H 0.2308 0.72566 0.43856 0.0
H4677 H 0.13726 0.68172 0.43214 0.0
H4678 H 0.10256 0.59506 0.39996 0.0
H4679 H 0.11282 0.61679 0.41256 0.0
loop_
_geom_bond_atom_site_label_1
_geom_bond_atom_site_label_2
_geom_bond_distance
_geom_bond_site_symmetry_2
_ccdc_geom_bond_type
Sm0 C2 2.846 . S
Sm0 O20 2.543 . S
Sm0 O21 2.450 . S
Sm0 O22 2.681 . S
Sm0 O23 2.464 . S
Sm0 O24 2.396 . S
Sm0 O28 2.386 . S
Sm0 O31 2.408 . S
Sm1 C11 2.846 . S
Sm1 O22 2.386 . S
Sm1 O25 2.408 . S
Sm1 O26 2.543 . S
Sm1 O27 2.450 . S
Sm1 O28 2.681 . S
Sm1 O29 2.464 . S
Sm1 O30 2.396 . S
C2 Sm0 2.846 . S
C2 C3 1.506 . S
C2 O20 1.261 . S
C2 O21 1.242 . S
C3 C2 1.506 . S
C3 C4 1.358 . S
C3 C8 1.382 . S
C4 C3 1.358 . S
C4 C5 1.385 . S
C4 H32 0.930 . S
C5 C4 1.385 . S
C5 C6 1.395 . S
C5 H33 0.929 . S
C6 C5 1.395 . S
C6 C7 1.335 . S
C7 C6 1.335 . S
C7 C8 1.398 . S
C7 H34 0.930 . S
C8 C3 1.382 . S
C8 C7 1.398 . S
C8 H35 0.929 . S
C9 O22 1.271 . S
C9 O23 1.251 . S
C10 O24 1.252 . S
C10 O25 1.272 . S
C11 Sm1 2.846 . S
C11 C12 1.506 . S
C11 O26 1.261 . S
C11 O27 1.242 . S
C12 C11 1.506 . S
C12 C13 1.358 . S
C12 C17 1.382 . S
C13 C12 1.358 . S
C13 C14 1.385 . S
C13 H36 0.930 . S
C14 C13 1.385 . S
C14 C15 1.395 . S
C14 H37 0.929 . S
C15 C14 1.395 . S
C15 C16 1.335 . S
C16 C15 1.335 . S
C16 C17 1.398 . S
C16 H38 0.930 . S
C17 C12 1.382 . S
C17 C16 1.398 . S
C17 H39 0.929 . S
C18 O28 1.271 . S
C18 O29 1.251 . S
C19 O30 1.252 . S
C19 O31 1.272 . S
O20 Sm0 2.543 . S
O20 C2 1.261 . S
O21 Sm0 2.450 . S
O21 C2 1.242 . S
O22 Sm0 2.681 . S
O22 Sm1 2.386 . S
O22 C9 1.271 . S
O23 Sm0 2.464 . S
O23 C9 1.251 . S
O24 Sm0 2.396 . S
O24 C10 1.252 . S
O25 Sm1 2.408 . S
O25 C10 1.272 . S
O26 Sm1 2.543 . S
O26 C11 1.261 . S
O27 Sm1 2.450 . S
O27 C11 1.242 . S
O28 Sm0 2.386 . S
O28 Sm1 2.681 . S
O28 C18 1.271 . S
O29 Sm1 2.464 . S
O29 C18 1.251 . S
O30 Sm1 2.396 . S
O30 C19 1.252 . S
O31 Sm0 2.408 . S
O31 C19 1.272 . S
H32 C4 0.930 . S
H33 C5 0.929 . S
H34 C7 0.930 . S
H35 C8 0.929 . S
H36 C13 0.930 . S
H37 C14 0.929 . S
H38 C16 0.930 . S
H39 C17 0.929 . S
Sm40 C42 2.846 . S
Sm40 O60 2.543 . S
Sm40 O61 2.450 . S
Sm40 O62 2.681 . S
Sm40 O63 2.464 . S
Sm40 O64 2.396 . S
Sm40 O68 2.386 . S
Sm40 O71 2.408 . S
Sm41 C51 2.846 . S
Sm41 O62 2.386 . S
Sm41 O65 2.408 . S
Sm41 O66 2.543 . S
Sm41 O67 2.450 . S
Sm41 O68 2.681 . S
Sm41 O69 2.464 . S
Sm41 O70 2.396 . S
C42 Sm40 2.846 . S
C42 C43 1.506 . S
C42 O60 1.261 . S
C42 O61 1.242 . S
C43 C42 1.506 . S
C43 C44 1.358 . S
C43 C48 1.382 . S
C44 C43 1.358 . S
C44 C45 1.385 . S
C44 H72 0.930 . S
C45 C44 1.385 . S
C45 C46 1.395 . S
C45 H73 0.929 . S
C46 C45 1.395 . S
C46 C47 1.335 . S
C47 C46 1.335 . S
C47 C48 1.398 . S
C47 H74 0.930 . S
C48 C43 1.382 . S
C48 C47 1.398 . S
C48 H75 0.929 . S
C49 O62 1.271 . S
C49 O63 1.251 . S
C50 O64 1.252 . S
C50 O65 1.272 . S
C51 Sm41 2.846 . S
C51 C52 1.506 . S
C51 O66 1.261 . S
C51 O67 1.242 . S
C52 C51 1.506 . S
C52 C53 1.358 . S
C52 C57 1.382 . S
C53 C52 1.358 . S
C53 C54 1.385 . S
C53 H76 0.930 . S
C54 C53 1.385 . S
C54 C55 1.395 . S
C54 H77 0.929 . S
C55 C54 1.395 . S
C55 C56 1.335 . S
C56 C55 1.335 . S
C56 C57 1.398 . S
C56 H78 0.930 . S
C57 C52 1.382 . S
C57 C56 1.398 . S
C57 H79 0.929 . S
C58 O68 1.271 . S
C58 O69 1.251 . S
C59 O70 1.252 . S
C59 O71 1.272 . S
O60 Sm40 2.543 . S
O60 C42 1.261 . S
O61 Sm40 2.450 . S
O61 C42 1.242 . S
O62 Sm40 2.681 . S
O62 Sm41 2.386 . S
O62 C49 1.271 . S
O63 Sm40 2.464 . S
O63 C49 1.251 . S
O64 Sm40 2.396 . S
O64 C50 1.252 . S
O65 Sm41 2.408 . S
O65 C50 1.272 . S
O66 Sm41 2.543 . S
O66 C51 1.261 . S
O67 Sm41 2.450 . S
O67 C51 1.242 . S
O68 Sm40 2.386 . S
O68 Sm41 2.681 . S
O68 C58 1.271 . S
O69 Sm41 2.464 . S
O69 C58 1.251 . S
O70 Sm41 2.396 . S
O70 C59 1.252 . S
O71 Sm40 2.408 . S
O71 C59 1.272 . S
H72 C44 0.930 . S
H73 C45 0.929 . S
H74 C47 0.930 . S
H75 C48 0.929 . S
H76 C53 0.930 . S
H77 C54 0.929 . S
H78 C56 0.930 . S
H79 C57 0.929 . S
Sm80 C82 2.846 . S
Sm80 O100 2.543 . S
Sm80 O101 2.450 . S
Sm80 O102 2.681 . S
Sm80 O103 2.464 . S
Sm80 O104 2.396 . S
Sm80 O108 2.386 . S
Sm80 O111 2.408 . S
Sm81 C91 2.846 . S
Sm81 O102 2.386 . S
Sm81 O105 2.408 . S
Sm81 O106 2.543 . S
Sm81 O107 2.450 . S
Sm81 O108 2.681 . S
Sm81 O109 2.464 . S
Sm81 O110 2.396 . S
C82 Sm80 2.846 . S
C82 C83 1.506 . S
C82 O100 1.261 . S
C82 O101 1.242 . S
C83 C82 1.506 . S
C83 C84 1.358 . S
C83 C88 1.382 . S
C84 C83 1.358 . S
C84 C85 1.385 . S
C84 H112 0.930 . S
C85 C84 1.385 . S
C85 C86 1.395 . S
C85 H113 0.929 . S
C86 C85 1.395 . S
C86 C87 1.335 . S
C87 C86 1.335 . S
C87 C88 1.398 . S
C87 H114 0.930 . S
C88 C83 1.382 . S
C88 C87 1.398 . S
C88 H115 0.929 . S
C89 O102 1.271 . S
C89 O103 1.251 . S
C90 O104 1.252 . S
C90 O105 1.272 . S
C91 Sm81 2.846 . S
C91 C92 1.506 . S
C91 O106 1.261 . S
C91 O107 1.242 . S
C92 C91 1.506 . S
C92 C93 1.358 . S
C92 C97 1.382 . S
C93 C92 1.358 . S
C93 C94 1.385 . S
C93 H116 0.930 . S
C94 C93 1.385 . S
C94 C95 1.395 . S
C94 H117 0.929 . S
C95 C94 1.395 . S
C95 C96 1.335 . S
C96 C95 1.335 . S
C96 C97 1.398 . S
C96 H118 0.930 . S
C97 C92 1.382 . S
C97 C96 1.398 . S
C97 H119 0.929 . S
C98 O108 1.271 . S
C98 O109 1.251 . S
C99 O110 1.252 . S
C99 O111 1.272 . S
O100 Sm80 2.543 . S
O100 C82 1.261 . S
O101 Sm80 2.450 . S
O101 C82 1.242 . S
O102 Sm80 2.681 . S
O102 Sm81 2.386 . S
O102 C89 1.271 . S
O103 Sm80 2.464 . S
O103 C89 1.251 . S
O104 Sm80 2.396 . S
O104 C90 1.252 . S
O105 Sm81 2.408 . S
O105 C90 1.272 . S
O106 Sm81 2.543 . S
O106 C91 1.261 . S
O107 Sm81 2.450 . S
O107 C91 1.242 . S
O108 Sm80 2.386 . S
O108 Sm81 2.681 . S
O108 C98 1.271 . S
O109 Sm81 2.464 . S
O109 C98 1.251 . S
O110 Sm81 2.396 . S
O110 C99 1.252 . S
O111 Sm80 2.408 . S
O111 C99 1.272 . S
H112 C84 0.930 . S
H113 C85 0.929 . S
H114 C87 0.930 . S
H115 C88 0.929 . S
H116 C93 0.930 . S
H117 C94 0.929 . S
H118 C96 0.930 . S
H119 C97 0.929 . S
Sm120 C122 2.846 . S
Sm120 O140 2.543 . S
Sm120 O141 2.450 . S
Sm120 O142 2.681 . S
Sm120 O143 2.464 . S
Sm120 O144 2.396 . S
Sm120 O148 2.386 . S
Sm120 O151 2.408 . S
Sm121 C131 2.846 . S
Sm121 O142 2.386 . S
Sm121 O145 2.408 . S
Sm121 O146 2.543 . S
Sm121 O147 2.450 . S
Sm121 O148 2.681 . S
Sm121 O149 2.464 . S
Sm121 O150 2.396 . S
C122 Sm120 2.846 . S
C122 C123 1.506 . S
C122 O140 1.261 . S
C122 O141 1.242 . S
C123 C122 1.506 . S
C123 C124 1.358 . S
C123 C128 1.382 . S
C124 C123 1.358 . S
C124 C125 1.385 . S
C124 H152 0.930 . S
C125 C124 1.385 . S
C125 C126 1.395 . S
C125 H153 0.929 . S
C126 C125 1.395 . S
C126 C127 1.335 . S
C127 C126 1.335 . S
C127 C128 1.398 . S
C127 H154 0.930 . S
C128 C123 1.382 . S
C128 C127 1.398 . S
C128 H155 0.929 . S
C129 O142 1.271 . S
C129 O143 1.251 . S
C130 O144 1.252 . S
C130 O145 1.272 . S
C131 Sm121 2.846 . S
C131 C132 1.506 . S
C131 O146 1.261 . S
C131 O147 1.242 . S
C132 C131 1.506 . S
C132 C133 1.358 . S
C132 C137 1.382 . S
C133 C132 1.358 . S
C133 C134 1.385 . S
C133 H156 0.930 . S
C134 C133 1.385 . S
C134 C135 1.395 . S
C134 H157 0.929 . S
C135 C134 1.395 . S
C135 C136 1.335 . S
C136 C135 1.335 . S
C136 C137 1.398 . S
C136 H158 0.930 . S
C137 C132 1.382 . S
C137 C136 1.398 . S
C137 H159 0.929 . S
C138 O148 1.271 . S
C138 O149 1.251 . S
C139 O150 1.252 . S
C139 O151 1.272 . S
O140 Sm120 2.543 . S
O140 C122 1.261 . S
O141 Sm120 2.450 . S
O141 C122 1.242 . S
O142 Sm120 2.681 . S
O142 Sm121 2.386 . S
O142 C129 1.271 . S
O143 Sm120 2.464 . S
O143 C129 1.251 . S
O144 Sm120 2.396 . S
O144 C130 1.252 . S
O145 Sm121 2.408 . S
O145 C130 1.272 . S
O146 Sm121 2.543 . S
O146 C131 1.261 . S
O147 Sm121 2.450 . S
O147 C131 1.242 . S
O148 Sm120 2.386 . S
O148 Sm121 2.681 . S
O148 C138 1.271 . S
O149 Sm121 2.464 . S
O149 C138 1.251 . S
O150 Sm121 2.396 . S
O150 C139 1.252 . S
O151 Sm120 2.408 . S
O151 C139 1.272 . S
H152 C124 0.930 . S
H153 C125 0.929 . S
H154 C127 0.930 . S
H155 C128 0.929 . S
H156 C133 0.930 . S
H157 C134 0.929 . S
H158 C136 0.930 . S
H159 C137 0.929 . S
Sm160 C162 2.846 . S
Sm160 O180 2.543 . S
Sm160 O181 2.450 . S
Sm160 O182 2.681 . S
Sm160 O183 2.464 . S
Sm160 O184 2.396 . S
Sm160 O188 2.386 . S
Sm160 O191 2.408 . S
Sm161 C171 2.846 . S
Sm161 O182 2.386 . S
Sm161 O185 2.408 . S
Sm161 O186 2.543 . S
Sm161 O187 2.450 . S
Sm161 O188 2.681 . S
Sm161 O189 2.464 . S
Sm161 O190 2.396 . S
C162 Sm160 2.846 . S
C162 C163 1.506 . S
C162 O180 1.261 . S
C162 O181 1.242 . S
C163 C162 1.506 . S
C163 C164 1.358 . S
C163 C168 1.382 . S
C164 C163 1.358 . S
C164 C165 1.385 . S
C164 H192 0.930 . S
C165 C164 1.385 . S
C165 C166 1.395 . S
C165 H193 0.929 . S
C166 C165 1.395 . S
C166 C167 1.335 . S
C167 C166 1.335 . S
C167 C168 1.398 . S
C167 H194 0.930 . S
C168 C163 1.382 . S
C168 C167 1.398 . S
C168 H195 0.929 . S
C169 O182 1.271 . S
C169 O183 1.251 . S
C170 O184 1.252 . S
C170 O185 1.272 . S
C171 Sm161 2.846 . S
C171 C172 1.506 . S
C171 O186 1.261 . S
C171 O187 1.242 . S
C172 C171 1.506 . S
C172 C173 1.358 . S
C172 C177 1.382 . S
C173 C172 1.358 . S
C173 C174 1.385 . S
C173 H196 0.930 . S
C174 C173 1.385 . S
C174 C175 1.395 . S
C174 H197 0.929 . S
C175 C174 1.395 . S
C175 C176 1.335 . S
C176 C175 1.335 . S
C176 C177 1.398 . S
C176 H198 0.930 . S
C177 C172 1.382 . S
C177 C176 1.398 . S
C177 H199 0.929 . S
C178 O188 1.271 . S
C178 O189 1.251 . S
C179 O190 1.252 . S
C179 O191 1.272 . S
O180 Sm160 2.543 . S
O180 C162 1.261 . S
O181 Sm160 2.450 . S
O181 C162 1.242 . S
O182 Sm160 2.681 . S
O182 Sm161 2.386 . S
O182 C169 1.271 . S
O183 Sm160 2.464 . S
O183 C169 1.251 . S
O184 Sm160 2.396 . S
O184 C170 1.252 . S
O185 Sm161 2.408 . S
O185 C170 1.272 . S
O186 Sm161 2.543 . S
O186 C171 1.261 . S
O187 Sm161 2.450 . S
O187 C171 1.242 . S
O188 Sm160 2.386 . S
O188 Sm161 2.681 . S
O188 C178 1.271 . S
O189 Sm161 2.464 . S
O189 C178 1.251 . S
O190 Sm161 2.396 . S
O190 C179 1.252 . S
O191 Sm160 2.408 . S
O191 C179 1.272 . S
H192 C164 0.930 . S
H193 C165 0.929 . S
H194 C167 0.930 . S
H195 C168 0.929 . S
H196 C173 0.930 . S
H197 C174 0.929 . S
H198 C176 0.930 . S
H199 C177 0.929 . S
Sm200 C202 2.846 . S
Sm200 O220 2.543 . S
Sm200 O221 2.450 . S
Sm200 O222 2.681 . S
Sm200 O223 2.464 . S
Sm200 O224 2.396 . S
Sm200 O228 2.386 . S
Sm200 O231 2.408 . S
Sm201 C211 2.846 . S
Sm201 O222 2.386 . S
Sm201 O225 2.408 . S
Sm201 O226 2.543 . S
Sm201 O227 2.450 . S
Sm201 O228 2.681 . S
Sm201 O229 2.464 . S
Sm201 O230 2.396 . S
C202 Sm200 2.846 . S
C202 C203 1.506 . S
C202 O220 1.261 . S
C202 O221 1.242 . S
C203 C202 1.506 . S
C203 C204 1.358 . S
C203 C208 1.382 . S
C204 C203 1.358 . S
C204 C205 1.385 . S
C204 H232 0.930 . S
C205 C204 1.385 . S
C205 C206 1.395 . S
C205 H233 0.929 . S
C206 C205 1.395 . S
C206 C207 1.335 . S
C207 C206 1.335 . S
C207 C208 1.398 . S
C207 H234 0.930 . S
C208 C203 1.382 . S
C208 C207 1.398 . S
C208 H235 0.929 . S
C209 O222 1.271 . S
C209 O223 1.251 . S
C210 O224 1.252 . S
C210 O225 1.272 . S
C211 Sm201 2.846 . S
C211 C212 1.506 . S
C211 O226 1.261 . S
C211 O227 1.242 . S
C212 C211 1.506 . S
C212 C213 1.358 . S
C212 C217 1.382 . S
C213 C212 1.358 . S
C213 C214 1.385 . S
C213 H236 0.930 . S
C214 C213 1.385 . S
C214 C215 1.395 . S
C214 H237 0.929 . S
C215 C214 1.395 . S
C215 C216 1.335 . S
C216 C215 1.335 . S
C216 C217 1.398 . S
C216 H238 0.930 . S
C217 C212 1.382 . S
C217 C216 1.398 . S
C217 H239 0.929 . S
C218 O228 1.271 . S
C218 O229 1.251 . S
C219 O230 1.252 . S
C219 O231 1.272 . S
O220 Sm200 2.543 . S
O220 C202 1.261 . S
O221 Sm200 2.450 . S
O221 C202 1.242 . S
O222 Sm200 2.681 . S
O222 Sm201 2.386 . S
O222 C209 1.271 . S
O223 Sm200 2.464 . S
O223 C209 1.251 . S
O224 Sm200 2.396 . S
O224 C210 1.252 . S
O225 Sm201 2.408 . S
O225 C210 1.272 . S
O226 Sm201 2.543 . S
O226 C211 1.261 . S
O227 Sm201 2.450 . S
O227 C211 1.242 . S
O228 Sm200 2.386 . S
O228 Sm201 2.681 . S
O228 C218 1.271 . S
O229 Sm201 2.464 . S
O229 C218 1.251 . S
O230 Sm201 2.396 . S
O230 C219 1.252 . S
O231 Sm200 2.408 . S
O231 C219 1.272 . S
H232 C204 0.930 . S
H233 C205 0.929 . S
H234 C207 0.930 . S
H235 C208 0.929 . S
H236 C213 0.930 . S
H237 C214 0.929 . S
H238 C216 0.930 . S
H239 C217 0.929 . S
Sm240 C242 2.846 . S
Sm240 O260 2.543 . S
Sm240 O261 2.450 . S
Sm240 O262 2.681 . S
Sm240 O263 2.464 . S
Sm240 O264 2.396 . S
Sm240 O268 2.386 . S
Sm240 O271 2.408 . S
Sm241 C251 2.846 . S
Sm241 O262 2.386 . S
Sm241 O265 2.408 . S
Sm241 O266 2.543 . S
Sm241 O267 2.450 . S
Sm241 O268 2.681 . S
Sm241 O269 2.464 . S
Sm241 O270 2.396 . S
C242 Sm240 2.846 . S
C242 C243 1.506 . S
C242 O260 1.261 . S
C242 O261 1.242 . S
C243 C242 1.506 . S
C243 C244 1.358 . S
C243 C248 1.382 . S
C244 C243 1.358 . S
C244 C245 1.385 . S
C244 H272 0.930 . S
C245 C244 1.385 . S
C245 C246 1.395 . S
C245 H273 0.929 . S
C246 C245 1.395 . S
C246 C247 1.335 . S
C247 C246 1.335 . S
C247 C248 1.398 . S
C247 H274 0.930 . S
C248 C243 1.382 . S
C248 C247 1.398 . S
C248 H275 0.929 . S
C249 O262 1.271 . S
C249 O263 1.251 . S
C250 O264 1.252 . S
C250 O265 1.272 . S
C251 Sm241 2.846 . S
C251 C252 1.506 . S
C251 O266 1.261 . S
C251 O267 1.242 . S
C252 C251 1.506 . S
C252 C253 1.358 . S
C252 C257 1.382 . S
C253 C252 1.358 . S
C253 C254 1.385 . S
C253 H276 0.930 . S
C254 C253 1.385 . S
C254 C255 1.395 . S
C254 H277 0.929 . S
C255 C254 1.395 . S
C255 C256 1.335 . S
C256 C255 1.335 . S
C256 C257 1.398 . S
C256 H278 0.930 . S
C257 C252 1.382 . S
C257 C256 1.398 . S
C257 H279 0.929 . S
C258 O268 1.271 . S
C258 O269 1.251 . S
C259 O270 1.252 . S
C259 O271 1.272 . S
O260 Sm240 2.543 . S
O260 C242 1.261 . S
O261 Sm240 2.450 . S
O261 C242 1.242 . S
O262 Sm240 2.681 . S
O262 Sm241 2.386 . S
O262 C249 1.271 . S
O263 Sm240 2.464 . S
O263 C249 1.251 . S
O264 Sm240 2.396 . S
O264 C250 1.252 . S
O265 Sm241 2.408 . S
O265 C250 1.272 . S
O266 Sm241 2.543 . S
O266 C251 1.261 . S
O267 Sm241 2.450 . S
O267 C251 1.242 . S
O268 Sm240 2.386 . S
O268 Sm241 2.681 . S
O268 C258 1.271 . S
O269 Sm241 2.464 . S
O269 C258 1.251 . S
O270 Sm241 2.396 . S
O270 C259 1.252 . S
O271 Sm240 2.408 . S
O271 C259 1.272 . S
H272 C244 0.930 . S
H273 C245 0.929 . S
H274 C247 0.930 . S
H275 C248 0.929 . S
H276 C253 0.930 . S
H277 C254 0.929 . S
H278 C256 0.930 . S
H279 C257 0.929 . S
Sm280 C282 2.846 . S
Sm280 O300 2.543 . S
Sm280 O301 2.450 . S
Sm280 O302 2.681 . S
Sm280 O303 2.464 . S
Sm280 O304 2.396 . S
Sm280 O308 2.386 . S
Sm280 O311 2.408 . S
Sm281 C291 2.846 . S
Sm281 O302 2.386 . S
Sm281 O305 2.408 . S
Sm281 O306 2.543 . S
Sm281 O307 2.450 . S
Sm281 O308 2.681 . S
Sm281 O309 2.464 . S
Sm281 O310 2.396 . S
C282 Sm280 2.846 . S
C282 C283 1.506 . S
C282 O300 1.261 . S
C282 O301 1.242 . S
C283 C282 1.506 . S
C283 C284 1.358 . S
C283 C288 1.382 . S
C284 C283 1.358 . S
C284 C285 1.385 . S
C284 H312 0.930 . S
C285 C284 1.385 . S
C285 C286 1.395 . S
C285 H313 0.929 . S
C286 C285 1.395 . S
C286 C287 1.335 . S
C287 C286 1.335 . S
C287 C288 1.398 . S
C287 H314 0.930 . S
C288 C283 1.382 . S
C288 C287 1.398 . S
C288 H315 0.929 . S
C289 O302 1.271 . S
C289 O303 1.251 . S
C290 O304 1.252 . S
C290 O305 1.272 . S
C291 Sm281 2.846 . S
C291 C292 1.506 . S
C291 O306 1.261 . S
C291 O307 1.242 . S
C292 C291 1.506 . S
C292 C293 1.358 . S
C292 C297 1.382 . S
C293 C292 1.358 . S
C293 C294 1.385 . S
C293 H316 0.930 . S
C294 C293 1.385 . S
C294 C295 1.395 . S
C294 H317 0.929 . S
C295 C294 1.395 . S
C295 C296 1.335 . S
C296 C295 1.335 . S
C296 C297 1.398 . S
C296 H318 0.930 . S
C297 C292 1.382 . S
C297 C296 1.398 . S
C297 H319 0.929 . S
C298 O308 1.271 . S
C298 O309 1.251 . S
C299 O310 1.252 . S
C299 O311 1.272 . S
O300 Sm280 2.543 . S
O300 C282 1.261 . S
O301 Sm280 2.450 . S
O301 C282 1.242 . S
O302 Sm280 2.681 . S
O302 Sm281 2.386 . S
O302 C289 1.271 . S
O303 Sm280 2.464 . S
O303 C289 1.251 . S
O304 Sm280 2.396 . S
O304 C290 1.252 . S
O305 Sm281 2.408 . S
O305 C290 1.272 . S
O306 Sm281 2.543 . S
O306 C291 1.261 . S
O307 Sm281 2.450 . S
O307 C291 1.242 . S
O308 Sm280 2.386 . S
O308 Sm281 2.681 . S
O308 C298 1.271 . S
O309 Sm281 2.464 . S
O309 C298 1.251 . S
O310 Sm281 2.396 . S
O310 C299 1.252 . S
O311 Sm280 2.408 . S
O311 C299 1.272 . S
H312 C284 0.930 . S
H313 C285 0.929 . S
H314 C287 0.930 . S
H315 C288 0.929 . S
H316 C293 0.930 . S
H317 C294 0.929 . S
H318 C296 0.930 . S
H319 C297 0.929 . S
Sm320 C322 2.846 . S
Sm320 O340 2.543 . S
Sm320 O341 2.450 . S
Sm320 O342 2.681 . S
Sm320 O343 2.464 . S
Sm320 O344 2.396 . S
Sm320 O348 2.386 . S
Sm320 O351 2.408 . S
Sm321 C331 2.846 . S
Sm321 O342 2.386 . S
Sm321 O345 2.408 . S
Sm321 O346 2.543 . S
Sm321 O347 2.450 . S
Sm321 O348 2.681 . S
Sm321 O349 2.464 . S
Sm321 O350 2.396 . S
C322 Sm320 2.846 . S
C322 C323 1.506 . S
C322 O340 1.261 . S
C322 O341 1.242 . S
C323 C322 1.506 . S
C323 C324 1.358 . S
C323 C328 1.382 . S
C324 C323 1.358 . S
C324 C325 1.385 . S
C324 H352 0.930 . S
C325 C324 1.385 . S
C325 C326 1.395 . S
C325 H353 0.929 . S
C326 C325 1.395 . S
C326 C327 1.335 . S
C327 C326 1.335 . S
C327 C328 1.398 . S
C327 H354 0.930 . S
C328 C323 1.382 . S
C328 C327 1.398 . S
C328 H355 0.929 . S
C329 O342 1.271 . S
C329 O343 1.251 . S
C330 O344 1.252 . S
C330 O345 1.272 . S
C331 Sm321 2.846 . S
C331 C332 1.506 . S
C331 O346 1.261 . S
C331 O347 1.242 . S
C332 C331 1.506 . S
C332 C333 1.358 . S
C332 C337 1.382 . S
C333 C332 1.358 . S
C333 C334 1.385 . S
C333 H356 0.930 . S
C334 C333 1.385 . S
C334 C335 1.395 . S
C334 H357 0.929 . S
C335 C334 1.395 . S
C335 C336 1.335 . S
C336 C335 1.335 . S
C336 C337 1.398 . S
C336 H358 0.930 . S
C337 C332 1.382 . S
C337 C336 1.398 . S
C337 H359 0.929 . S
C338 O348 1.271 . S
C338 O349 1.251 . S
C339 O350 1.252 . S
C339 O351 1.272 . S
O340 Sm320 2.543 . S
O340 C322 1.261 . S
O341 Sm320 2.450 . S
O341 C322 1.242 . S
O342 Sm320 2.681 . S
O342 Sm321 2.386 . S
O342 C329 1.271 . S
O343 Sm320 2.464 . S
O343 C329 1.251 . S
O344 Sm320 2.396 . S
O344 C330 1.252 . S
O345 Sm321 2.408 . S
O345 C330 1.272 . S
O346 Sm321 2.543 . S
O346 C331 1.261 . S
O347 Sm321 2.450 . S
O347 C331 1.242 . S
O348 Sm320 2.386 . S
O348 Sm321 2.681 . S
O348 C338 1.271 . S
O349 Sm321 2.464 . S
O349 C338 1.251 . S
O350 Sm321 2.396 . S
O350 C339 1.252 . S
O351 Sm320 2.408 . S
O351 C339 1.272 . S
H352 C324 0.930 . S
H353 C325 0.929 . S
H354 C327 0.930 . S
H355 C328 0.929 . S
H356 C333 0.930 . S
H357 C334 0.929 . S
H358 C336 0.930 . S
H359 C337 0.929 . S
Sm360 C362 2.846 . S
Sm360 O380 2.543 . S
Sm360 O381 2.450 . S
Sm360 O382 2.681 . S
Sm360 O383 2.464 . S
Sm360 O384 2.396 . S
Sm360 O388 2.386 . S
Sm360 O391 2.408 . S
Sm361 C371 2.846 . S
Sm361 O382 2.386 . S
Sm361 O385 2.408 . S
Sm361 O386 2.543 . S
Sm361 O387 2.450 . S
Sm361 O388 2.681 . S
Sm361 O389 2.464 . S
Sm361 O390 2.396 . S
C362 Sm360 2.846 . S
C362 C363 1.506 . S
C362 O380 1.261 . S
C362 O381 1.242 . S
C363 C362 1.506 . S
C363 C364 1.358 . S
C363 C368 1.382 . S
C364 C363 1.358 . S
C364 C365 1.385 . S
C364 H392 0.930 . S
C365 C364 1.385 . S
C365 C366 1.395 . S
C365 H393 0.929 . S
C366 C365 1.395 . S
C366 C367 1.335 . S
C367 C366 1.335 . S
C367 C368 1.398 . S
C367 H394 0.930 . S
C368 C363 1.382 . S
C368 C367 1.398 . S
C368 H395 0.929 . S
C369 O382 1.271 . S
C369 O383 1.251 . S
C370 O384 1.252 . S
C370 O385 1.272 . S
C371 Sm361 2.846 . S
C371 C372 1.506 . S
C371 O386 1.261 . S
C371 O387 1.242 . S
C372 C371 1.506 . S
C372 C373 1.358 . S
C372 C377 1.382 . S
C373 C372 1.358 . S
C373 C374 1.385 . S
C373 H396 0.930 . S
C374 C373 1.385 . S
C374 C375 1.395 . S
C374 H397 0.929 . S
C375 C374 1.395 . S
C375 C376 1.335 . S
C376 C375 1.335 . S
C376 C377 1.398 . S
C376 H398 0.930 . S
C377 C372 1.382 . S
C377 C376 1.398 . S
C377 H399 0.929 . S
C378 O388 1.271 . S
C378 O389 1.251 . S
C379 O390 1.252 . S
C379 O391 1.272 . S
O380 Sm360 2.543 . S
O380 C362 1.261 . S
O381 Sm360 2.450 . S
O381 C362 1.242 . S
O382 Sm360 2.681 . S
O382 Sm361 2.386 . S
O382 C369 1.271 . S
O383 Sm360 2.464 . S
O383 C369 1.251 . S
O384 Sm360 2.396 . S
O384 C370 1.252 . S
O385 Sm361 2.408 . S
O385 C370 1.272 . S
O386 Sm361 2.543 . S
O386 C371 1.261 . S
O387 Sm361 2.450 . S
O387 C371 1.242 . S
O388 Sm360 2.386 . S
O388 Sm361 2.681 . S
O388 C378 1.271 . S
O389 Sm361 2.464 . S
O389 C378 1.251 . S
O390 Sm361 2.396 . S
O390 C379 1.252 . S
O391 Sm360 2.408 . S
O391 C379 1.272 . S
H392 C364 0.930 . S
H393 C365 0.929 . S
H394 C367 0.930 . S
H395 C368 0.929 . S
H396 C373 0.930 . S
H397 C374 0.929 . S
H398 C376 0.930 . S
H399 C377 0.929 . S
Sm400 C402 2.846 . S
Sm400 O420 2.543 . S
Sm400 O421 2.450 . S
Sm400 O422 2.681 . S
Sm400 O423 2.464 . S
Sm400 O424 2.396 . S
Sm400 O428 2.386 . S
Sm400 O431 2.408 . S
Sm401 C411 2.846 . S
Sm401 O422 2.386 . S
Sm401 O425 2.408 . S
Sm401 O426 2.543 . S
Sm401 O427 2.450 . S
Sm401 O428 2.681 . S
Sm401 O429 2.464 . S
Sm401 O430 2.396 . S
C402 Sm400 2.846 . S
C402 C403 1.506 . S
C402 O420 1.261 . S
C402 O421 1.242 . S
C403 C402 1.506 . S
C403 C404 1.358 . S
C403 C408 1.382 . S
C404 C403 1.358 . S
C404 C405 1.385 . S
C404 H432 0.930 . S
C405 C404 1.385 . S
C405 C406 1.395 . S
C405 H433 0.929 . S
C406 C405 1.395 . S
C406 C407 1.335 . S
C407 C406 1.335 . S
C407 C408 1.398 . S
C407 H434 0.930 . S
C408 C403 1.382 . S
C408 C407 1.398 . S
C408 H435 0.929 . S
C409 O422 1.271 . S
C409 O423 1.251 . S
C410 O424 1.252 . S
C410 O425 1.272 . S
C411 Sm401 2.846 . S
C411 C412 1.506 . S
C411 O426 1.261 . S
C411 O427 1.242 . S
C412 C411 1.506 . S
C412 C413 1.358 . S
C412 C417 1.382 . S
C413 C412 1.358 . S
C413 C414 1.385 . S
C413 H436 0.930 . S
C414 C413 1.385 . S
C414 C415 1.395 . S
C414 H437 0.929 . S
C415 C414 1.395 . S
C415 C416 1.335 . S
C416 C415 1.335 . S
C416 C417 1.398 . S
C416 H438 0.930 . S
C417 C412 1.382 . S
C417 C416 1.398 . S
C417 H439 0.929 . S
C418 O428 1.271 . S
C418 O429 1.251 . S
C419 O430 1.252 . S
C419 O431 1.272 . S
O420 Sm400 2.543 . S
O420 C402 1.261 . S
O421 Sm400 2.450 . S
O421 C402 1.242 . S
O422 Sm400 2.681 . S
O422 Sm401 2.386 . S
O422 C409 1.271 . S
O423 Sm400 2.464 . S
O423 C409 1.251 . S
O424 Sm400 2.396 . S
O424 C410 1.252 . S
O425 Sm401 2.408 . S
O425 C410 1.272 . S
O426 Sm401 2.543 . S
O426 C411 1.261 . S
O427 Sm401 2.450 . S
O427 C411 1.242 . S
O428 Sm400 2.386 . S
O428 Sm401 2.681 . S
O428 C418 1.271 . S
O429 Sm401 2.464 . S
O429 C418 1.251 . S
O430 Sm401 2.396 . S
O430 C419 1.252 . S
O431 Sm400 2.408 . S
O431 C419 1.272 . S
H432 C404 0.930 . S
H433 C405 0.929 . S
H434 C407 0.930 . S
H435 C408 0.929 . S
H436 C413 0.930 . S
H437 C414 0.929 . S
H438 C416 0.930 . S
H439 C417 0.929 . S
Sm440 C442 2.846 . S
Sm440 O460 2.543 . S
Sm440 O461 2.450 . S
Sm440 O462 2.681 . S
Sm440 O463 2.464 . S
Sm440 O464 2.396 . S
Sm440 O468 2.386 . S
Sm440 O471 2.408 . S
Sm441 C451 2.846 . S
Sm441 O462 2.386 . S
Sm441 O465 2.408 . S
Sm441 O466 2.543 . S
Sm441 O467 2.450 . S
Sm441 O468 2.681 . S
Sm441 O469 2.464 . S
Sm441 O470 2.396 . S
C442 Sm440 2.846 . S
C442 C443 1.506 . S
C442 O460 1.261 . S
C442 O461 1.242 . S
C443 C442 1.506 . S
C443 C444 1.358 . S
C443 C448 1.382 . S
C444 C443 1.358 . S
C444 C445 1.385 . S
C444 H472 0.930 . S
C445 C444 1.385 . S
C445 C446 1.395 . S
C445 H473 0.929 . S
C446 C445 1.395 . S
C446 C447 1.335 . S
C447 C446 1.335 . S
C447 C448 1.398 . S
C447 H474 0.930 . S
C448 C443 1.382 . S
C448 C447 1.398 . S
C448 H475 0.929 . S
C449 O462 1.271 . S
C449 O463 1.251 . S
C450 O464 1.252 . S
C450 O465 1.272 . S
C451 Sm441 2.846 . S
C451 C452 1.506 . S
C451 O466 1.261 . S
C451 O467 1.242 . S
C452 C451 1.506 . S
C452 C453 1.358 . S
C452 C457 1.382 . S
C453 C452 1.358 . S
C453 C454 1.385 . S
C453 H476 0.930 . S
C454 C453 1.385 . S
C454 C455 1.395 . S
C454 H477 0.929 . S
C455 C454 1.395 . S
C455 C456 1.335 . S
C456 C455 1.335 . S
C456 C457 1.398 . S
C456 H478 0.930 . S
C457 C452 1.382 . S
C457 C456 1.398 . S
C457 H479 0.929 . S
C458 O468 1.271 . S
C458 O469 1.251 . S
C459 O470 1.252 . S
C459 O471 1.272 . S
O460 Sm440 2.543 . S
O460 C442 1.261 . S
O461 Sm440 2.450 . S
O461 C442 1.242 . S
O462 Sm440 2.681 . S
O462 Sm441 2.386 . S
O462 C449 1.271 . S
O463 Sm440 2.464 . S
O463 C449 1.251 . S
O464 Sm440 2.396 . S
O464 C450 1.252 . S
O465 Sm441 2.408 . S
O465 C450 1.272 . S
O466 Sm441 2.543 . S
O466 C451 1.261 . S
O467 Sm441 2.450 . S
O467 C451 1.242 . S
O468 Sm440 2.386 . S
O468 Sm441 2.681 . S
O468 C458 1.271 . S
O469 Sm441 2.464 . S
O469 C458 1.251 . S
O470 Sm441 2.396 . S
O470 C459 1.252 . S
O471 Sm440 2.408 . S
O471 C459 1.272 . S
H472 C444 0.930 . S
H473 C445 0.929 . S
H474 C447 0.930 . S
H475 C448 0.929 . S
H476 C453 0.930 . S
H477 C454 0.929 . S
H478 C456 0.930 . S
H479 C457 0.929 . S
Sm480 C482 2.846 . S
Sm480 O500 2.543 . S
Sm480 O501 2.450 . S
Sm480 O502 2.681 . S
Sm480 O503 2.464 . S
Sm480 O504 2.396 . S
Sm480 O508 2.386 . S
Sm480 O511 2.408 . S
Sm481 C491 2.846 . S
Sm481 O502 2.386 . S
Sm481 O505 2.408 . S
Sm481 O506 2.543 . S
Sm481 O507 2.450 . S
Sm481 O508 2.681 . S
Sm481 O509 2.464 . S
Sm481 O510 2.396 . S
C482 Sm480 2.846 . S
C482 C483 1.506 . S
C482 O500 1.261 . S
C482 O501 1.242 . S
C483 C482 1.506 . S
C483 C484 1.358 . S
C483 C488 1.382 . S
C484 C483 1.358 . S
C484 C485 1.385 . S
C484 H512 0.930 . S
C485 C484 1.385 . S
C485 C486 1.395 . S
C485 H513 0.929 . S
C486 C485 1.395 . S
C486 C487 1.335 . S
C487 C486 1.335 . S
C487 C488 1.398 . S
C487 H514 0.930 . S
C488 C483 1.382 . S
C488 C487 1.398 . S
C488 H515 0.929 . S
C489 O502 1.271 . S
C489 O503 1.251 . S
C490 O504 1.252 . S
C490 O505 1.272 . S
C491 Sm481 2.846 . S
C491 C492 1.506 . S
C491 O506 1.261 . S
C491 O507 1.242 . S
C492 C491 1.506 . S
C492 C493 1.358 . S
C492 C497 1.382 . S
C493 C492 1.358 . S
C493 C494 1.385 . S
C493 H516 0.930 . S
C494 C493 1.385 . S
C494 C495 1.395 . S
C494 H517 0.929 . S
C495 C494 1.395 . S
C495 C496 1.335 . S
C496 C495 1.335 . S
C496 C497 1.398 . S
C496 H518 0.930 . S
C497 C492 1.382 . S
C497 C496 1.398 . S
C497 H519 0.929 . S
C498 O508 1.271 . S
C498 O509 1.251 . S
C499 O510 1.252 . S
C499 O511 1.272 . S
O500 Sm480 2.543 . S
O500 C482 1.261 . S
O501 Sm480 2.450 . S
O501 C482 1.242 . S
O502 Sm480 2.681 . S
O502 Sm481 2.386 . S
O502 C489 1.271 . S
O503 Sm480 2.464 . S
O503 C489 1.251 . S
O504 Sm480 2.396 . S
O504 C490 1.252 . S
O505 Sm481 2.408 . S
O505 C490 1.272 . S
O506 Sm481 2.543 . S
O506 C491 1.261 . S
O507 Sm481 2.450 . S
O507 C491 1.242 . S
O508 Sm480 2.386 . S
O508 Sm481 2.681 . S
O508 C498 1.271 . S
O509 Sm481 2.464 . S
O509 C498 1.251 . S
O510 Sm481 2.396 . S
O510 C499 1.252 . S
O511 Sm480 2.408 . S
O511 C499 1.272 . S
H512 C484 0.930 . S
H513 C485 0.929 . S
H514 C487 0.930 . S
H515 C488 0.929 . S
H516 C493 0.930 . S
H517 C494 0.929 . S
H518 C496 0.930 . S
H519 C497 0.929 . S
Sm520 C522 2.846 . S
Sm520 O540 2.543 . S
Sm520 O541 2.450 . S
Sm520 O542 2.681 . S
Sm520 O543 2.464 . S
Sm520 O544 2.396 . S
Sm520 O548 2.386 . S
Sm520 O551 2.408 . S
Sm521 C531 2.846 . S
Sm521 O542 2.386 . S
Sm521 O545 2.408 . S
Sm521 O546 2.543 . S
Sm521 O547 2.450 . S
Sm521 O548 2.681 . S
Sm521 O549 2.464 . S
Sm521 O550 2.396 . S
C522 Sm520 2.846 . S
C522 C523 1.506 . S
C522 O540 1.261 . S
C522 O541 1.242 . S
C523 C522 1.506 . S
C523 C524 1.358 . S
C523 C528 1.382 . S
C524 C523 1.358 . S
C524 C525 1.385 . S
C524 H552 0.930 . S
C525 C524 1.385 . S
C525 C526 1.395 . S
C525 H553 0.929 . S
C526 C525 1.395 . S
C526 C527 1.335 . S
C527 C526 1.335 . S
C527 C528 1.398 . S
C527 H554 0.930 . S
C528 C523 1.382 . S
C528 C527 1.398 . S
C528 H555 0.929 . S
C529 O542 1.271 . S
C529 O543 1.251 . S
C530 O544 1.252 . S
C530 O545 1.272 . S
C531 Sm521 2.846 . S
C531 C532 1.506 . S
C531 O546 1.261 . S
C531 O547 1.242 . S
C532 C531 1.506 . S
C532 C533 1.358 . S
C532 C537 1.382 . S
C533 C532 1.358 . S
C533 C534 1.385 . S
C533 H556 0.930 . S
C534 C533 1.385 . S
C534 C535 1.395 . S
C534 H557 0.929 . S
C535 C534 1.395 . S
C535 C536 1.335 . S
C536 C535 1.335 . S
C536 C537 1.398 . S
C536 H558 0.930 . S
C537 C532 1.382 . S
C537 C536 1.398 . S
C537 H559 0.929 . S
C538 O548 1.271 . S
C538 O549 1.251 . S
C539 O550 1.252 . S
C539 O551 1.272 . S
O540 Sm520 2.543 . S
O540 C522 1.261 . S
O541 Sm520 2.450 . S
O541 C522 1.242 . S
O542 Sm520 2.681 . S
O542 Sm521 2.386 . S
O542 C529 1.271 . S
O543 Sm520 2.464 . S
O543 C529 1.251 . S
O544 Sm520 2.396 . S
O544 C530 1.252 . S
O545 Sm521 2.408 . S
O545 C530 1.272 . S
O546 Sm521 2.543 . S
O546 C531 1.261 . S
O547 Sm521 2.450 . S
O547 C531 1.242 . S
O548 Sm520 2.386 . S
O548 Sm521 2.681 . S
O548 C538 1.271 . S
O549 Sm521 2.464 . S
O549 C538 1.251 . S
O550 Sm521 2.396 . S
O550 C539 1.252 . S
O551 Sm520 2.408 . S
O551 C539 1.272 . S
H552 C524 0.930 . S
H553 C525 0.929 . S
H554 C527 0.930 . S
H555 C528 0.929 . S
H556 C533 0.930 . S
H557 C534 0.929 . S
H558 C536 0.930 . S
H559 C537 0.929 . S
Sm560 C562 2.846 . S
Sm560 O580 2.543 . S
Sm560 O581 2.450 . S
Sm560 O582 2.681 . S
Sm560 O583 2.464 . S
Sm560 O584 2.396 . S
Sm560 O588 2.386 . S
Sm560 O591 2.408 . S
Sm561 C571 2.846 . S
Sm561 O582 2.386 . S
Sm561 O585 2.408 . S
Sm561 O586 2.543 . S
Sm561 O587 2.450 . S
Sm561 O588 2.681 . S
Sm561 O589 2.464 . S
Sm561 O590 2.396 . S
C562 Sm560 2.846 . S
C562 C563 1.506 . S
C562 O580 1.261 . S
C562 O581 1.242 . S
C563 C562 1.506 . S
C563 C564 1.358 . S
C563 C568 1.382 . S
C564 C563 1.358 . S
C564 C565 1.385 . S
C564 H592 0.930 . S
C565 C564 1.385 . S
C565 C566 1.395 . S
C565 H593 0.929 . S
C566 C565 1.395 . S
C566 C567 1.335 . S
C567 C566 1.335 . S
C567 C568 1.398 . S
C567 H594 0.930 . S
C568 C563 1.382 . S
C568 C567 1.398 . S
C568 H595 0.929 . S
C569 O582 1.271 . S
C569 O583 1.251 . S
C570 O584 1.252 . S
C570 O585 1.272 . S
C571 Sm561 2.846 . S
C571 C572 1.506 . S
C571 O586 1.261 . S
C571 O587 1.242 . S
C572 C571 1.506 . S
C572 C573 1.358 . S
C572 C577 1.382 . S
C573 C572 1.358 . S
C573 C574 1.385 . S
C573 H596 0.930 . S
C574 C573 1.385 . S
C574 C575 1.395 . S
C574 H597 0.929 . S
C575 C574 1.395 . S
C575 C576 1.335 . S
C576 C575 1.335 . S
C576 C577 1.398 . S
C576 H598 0.930 . S
C577 C572 1.382 . S
C577 C576 1.398 . S
C577 H599 0.929 . S
C578 O588 1.271 . S
C578 O589 1.251 . S
C579 O590 1.252 . S
C579 O591 1.272 . S
O580 Sm560 2.543 . S
O580 C562 1.261 . S
O581 Sm560 2.450 . S
O581 C562 1.242 . S
O582 Sm560 2.681 . S
O582 Sm561 2.386 . S
O582 C569 1.271 . S
O583 Sm560 2.464 . S
O583 C569 1.251 . S
O584 Sm560 2.396 . S
O584 C570 1.252 . S
O585 Sm561 2.408 . S
O585 C570 1.272 . S
O586 Sm561 2.543 . S
O586 C571 1.261 . S
O587 Sm561 2.450 . S
O587 C571 1.242 . S
O588 Sm560 2.386 . S
O588 Sm561 2.681 . S
O588 C578 1.271 . S
O589 Sm561 2.464 . S
O589 C578 1.251 . S
O590 Sm561 2.396 . S
O590 C579 1.252 . S
O591 Sm560 2.408 . S
O591 C579 1.272 . S
H592 C564 0.930 . S
H593 C565 0.929 . S
H594 C567 0.930 . S
H595 C568 0.929 . S
H596 C573 0.930 . S
H597 C574 0.929 . S
H598 C576 0.930 . S
H599 C577 0.929 . S
Sm600 C602 2.846 . S
Sm600 O620 2.543 . S
Sm600 O621 2.450 . S
Sm600 O622 2.681 . S
Sm600 O623 2.464 . S
Sm600 O624 2.396 . S
Sm600 O628 2.386 . S
Sm600 O631 2.408 . S
Sm601 C611 2.846 . S
Sm601 O622 2.386 . S
Sm601 O625 2.408 . S
Sm601 O626 2.543 . S
Sm601 O627 2.450 . S
Sm601 O628 2.681 . S
Sm601 O629 2.464 . S
Sm601 O630 2.396 . S
C602 Sm600 2.846 . S
C602 C603 1.506 . S
C602 O620 1.261 . S
C602 O621 1.242 . S
C603 C602 1.506 . S
C603 C604 1.358 . S
C603 C608 1.382 . S
C604 C603 1.358 . S
C604 C605 1.385 . S
C604 H632 0.930 . S
C605 C604 1.385 . S
C605 C606 1.395 . S
C605 H633 0.929 1_655 S
C606 C605 1.395 . S
C606 C607 1.335 . S
C607 C606 1.335 . S
C607 C608 1.398 . S
C607 H634 0.930 . S
C608 C603 1.382 . S
C608 C607 1.398 . S
C608 H635 0.929 . S
C609 O622 1.271 . S
C609 O623 1.251 . S
C610 O624 1.252 . S
C610 O625 1.272 . S
C611 Sm601 2.846 . S
C611 C612 1.506 . S
C611 O626 1.261 . S
C611 O627 1.242 . S
C612 C611 1.506 . S
C612 C613 1.358 . S
C612 C617 1.382 . S
C613 C612 1.358 . S
C613 C614 1.385 . S
C613 H636 0.930 . S
C614 C613 1.385 . S
C614 C615 1.395 . S
C614 H637 0.929 . S
C615 C614 1.395 . S
C615 C616 1.335 . S
C616 C615 1.335 . S
C616 C617 1.398 . S
C616 H638 0.930 . S
C617 C612 1.382 . S
C617 C616 1.398 . S
C617 H639 0.929 . S
C618 O628 1.271 . S
C618 O629 1.251 . S
C619 O630 1.252 . S
C619 O631 1.272 . S
O620 Sm600 2.543 . S
O620 C602 1.261 . S
O621 Sm600 2.450 . S
O621 C602 1.242 . S
O622 Sm600 2.681 . S
O622 Sm601 2.386 . S
O622 C609 1.271 . S
O623 Sm600 2.464 . S
O623 C609 1.251 . S
O624 Sm600 2.396 . S
O624 C610 1.252 . S
O625 Sm601 2.408 . S
O625 C610 1.272 . S
O626 Sm601 2.543 . S
O626 C611 1.261 . S
O627 Sm601 2.450 . S
O627 C611 1.242 . S
O628 Sm600 2.386 . S
O628 Sm601 2.681 . S
O628 C618 1.271 . S
O629 Sm601 2.464 . S
O629 C618 1.251 . S
O630 Sm601 2.396 . S
O630 C619 1.252 . S
O631 Sm600 2.408 . S
O631 C619 1.272 . S
H632 C604 0.930 . S
H633 C605 0.929 1_455 S
H634 C607 0.930 . S
H635 C608 0.929 . S
H636 C613 0.930 . S
H637 C614 0.929 . S
H638 C616 0.930 . S
H639 C617 0.929 . S
Sm640 C642 2.846 . S
Sm640 O660 2.543 . S
Sm640 O661 2.450 . S
Sm640 O662 2.681 . S
Sm640 O663 2.464 . S
Sm640 O664 2.396 . S
Sm640 O668 2.386 . S
Sm640 O671 2.408 . S
Sm641 C651 2.846 . S
Sm641 O662 2.386 . S
Sm641 O665 2.408 . S
Sm641 O666 2.543 . S
Sm641 O667 2.450 . S
Sm641 O668 2.681 . S
Sm641 O669 2.464 . S
Sm641 O670 2.396 . S
C642 Sm640 2.846 . S
C642 C643 1.506 . S
C642 O660 1.261 . S
C642 O661 1.242 . S
C643 C642 1.506 . S
C643 C644 1.358 . S
C643 C648 1.382 . S
C644 C643 1.358 . S
C644 C645 1.385 . S
C644 H672 0.930 . S
C645 C644 1.385 . S
C645 C646 1.395 . S
C645 H673 0.929 . S
C646 C645 1.395 . S
C646 C647 1.335 . S
C647 C646 1.335 . S
C647 C648 1.398 . S
C647 H674 0.930 . S
C648 C643 1.382 . S
C648 C647 1.398 . S
C648 H675 0.929 . S
C649 O662 1.271 . S
C649 O663 1.251 . S
C650 O664 1.252 . S
C650 O665 1.272 . S
C651 Sm641 2.846 . S
C651 C652 1.506 . S
C651 O666 1.261 . S
C651 O667 1.242 . S
C652 C651 1.506 . S
C652 C653 1.358 . S
C652 C657 1.382 . S
C653 C652 1.358 . S
C653 C654 1.385 . S
C653 H676 0.930 . S
C654 C653 1.385 . S
C654 C655 1.395 . S
C654 H677 0.929 . S
C655 C654 1.395 . S
C655 C656 1.335 . S
C656 C655 1.335 . S
C656 C657 1.398 . S
C656 H678 0.930 . S
C657 C652 1.382 . S
C657 C656 1.398 . S
C657 H679 0.929 . S
C658 O668 1.271 . S
C658 O669 1.251 . S
C659 O670 1.252 . S
C659 O671 1.272 . S
O660 Sm640 2.543 . S
O660 C642 1.261 . S
O661 Sm640 2.450 . S
O661 C642 1.242 . S
O662 Sm640 2.681 . S
O662 Sm641 2.386 . S
O662 C649 1.271 . S
O663 Sm640 2.464 . S
O663 C649 1.251 . S
O664 Sm640 2.396 . S
O664 C650 1.252 . S
O665 Sm641 2.408 . S
O665 C650 1.272 . S
O666 Sm641 2.543 . S
O666 C651 1.261 . S
O667 Sm641 2.450 . S
O667 C651 1.242 . S
O668 Sm640 2.386 . S
O668 Sm641 2.681 . S
O668 C658 1.271 . S
O669 Sm641 2.464 . S
O669 C658 1.251 . S
O670 Sm641 2.396 . S
O670 C659 1.252 . S
O671 Sm640 2.408 . S
O671 C659 1.272 . S
H672 C644 0.930 . S
H673 C645 0.929 . S
H674 C647 0.930 . S
H675 C648 0.929 . S
H676 C653 0.930 . S
H677 C654 0.929 . S
H678 C656 0.930 . S
H679 C657 0.929 . S
Sm680 C682 2.846 . S
Sm680 O700 2.543 . S
Sm680 O701 2.450 . S
Sm680 O702 2.681 . S
Sm680 O703 2.464 . S
Sm680 O704 2.396 . S
Sm680 O708 2.386 . S
Sm680 O711 2.408 . S
Sm681 C691 2.846 . S
Sm681 O702 2.386 . S
Sm681 O705 2.408 . S
Sm681 O706 2.543 . S
Sm681 O707 2.450 . S
Sm681 O708 2.681 . S
Sm681 O709 2.464 . S
Sm681 O710 2.396 . S
C682 Sm680 2.846 . S
C682 C683 1.506 . S
C682 O700 1.261 . S
C682 O701 1.242 . S
C683 C682 1.506 . S
C683 C684 1.358 . S
C683 C688 1.382 . S
C684 C683 1.358 . S
C684 C685 1.385 . S
C684 H712 0.930 . S
C685 C684 1.385 . S
C685 C686 1.395 . S
C685 H713 0.929 1_545 S
C686 C685 1.395 . S
C686 C687 1.335 . S
C687 C686 1.335 . S
C687 C688 1.398 . S
C687 H714 0.930 . S
C688 C683 1.382 . S
C688 C687 1.398 . S
C688 H715 0.929 . S
C689 O702 1.271 . S
C689 O703 1.251 . S
C690 O704 1.252 . S
C690 O705 1.272 . S
C691 Sm681 2.846 . S
C691 C692 1.506 . S
C691 O706 1.261 . S
C691 O707 1.242 . S
C692 C691 1.506 . S
C692 C693 1.358 . S
C692 C697 1.382 . S
C693 C692 1.358 . S
C693 C694 1.385 . S
C693 H716 0.930 . S
C694 C693 1.385 . S
C694 C695 1.395 . S
C694 H717 0.929 . S
C695 C694 1.395 . S
C695 C696 1.335 . S
C696 C695 1.335 . S
C696 C697 1.398 . S
C696 H718 0.930 . S
C697 C692 1.382 . S
C697 C696 1.398 . S
C697 H719 0.929 . S
C698 O708 1.271 . S
C698 O709 1.251 . S
C699 O710 1.252 . S
C699 O711 1.272 . S
O700 Sm680 2.543 . S
O700 C682 1.261 . S
O701 Sm680 2.450 . S
O701 C682 1.242 . S
O702 Sm680 2.681 . S
O702 Sm681 2.386 . S
O702 C689 1.271 . S
O703 Sm680 2.464 . S
O703 C689 1.251 . S
O704 Sm680 2.396 . S
O704 C690 1.252 . S
O705 Sm681 2.408 . S
O705 C690 1.272 . S
O706 Sm681 2.543 . S
O706 C691 1.261 . S
O707 Sm681 2.450 . S
O707 C691 1.242 . S
O708 Sm680 2.386 . S
O708 Sm681 2.681 . S
O708 C698 1.271 . S
O709 Sm681 2.464 . S
O709 C698 1.251 . S
O710 Sm681 2.396 . S
O710 C699 1.252 . S
O711 Sm680 2.408 . S
O711 C699 1.272 . S
H712 C684 0.930 . S
H713 C685 0.929 1_565 S
H714 C687 0.930 . S
H715 C688 0.929 . S
H716 C693 0.930 . S
H717 C694 0.929 . S
H718 C696 0.930 . S
H719 C697 0.929 . S
Sm720 C722 2.846 . S
Sm720 O740 2.543 . S
Sm720 O741 2.450 . S
Sm720 O742 2.681 . S
Sm720 O743 2.464 . S
Sm720 O744 2.396 . S
Sm720 O748 2.386 . S
Sm720 O751 2.408 . S
Sm721 C731 2.846 . S
Sm721 O742 2.386 . S
Sm721 O745 2.408 . S
Sm721 O746 2.543 . S
Sm721 O747 2.450 . S
Sm721 O748 2.681 . S
Sm721 O749 2.464 . S
Sm721 O750 2.396 . S
C722 Sm720 2.846 . S
C722 C723 1.506 . S
C722 O740 1.261 . S
C722 O741 1.242 . S
C723 C722 1.506 . S
C723 C724 1.358 . S
C723 C728 1.382 . S
C724 C723 1.358 . S
C724 C725 1.385 . S
C724 H752 0.930 . S
C725 C724 1.385 . S
C725 C726 1.395 . S
C725 H753 0.929 . S
C726 C725 1.395 . S
C726 C727 1.335 . S
C727 C726 1.335 . S
C727 C728 1.398 . S
C727 H754 0.930 . S
C728 C723 1.382 . S
C728 C727 1.398 . S
C728 H755 0.929 . S
C729 O742 1.271 . S
C729 O743 1.251 . S
C730 O744 1.252 . S
C730 O745 1.272 . S
C731 Sm721 2.846 . S
C731 C732 1.506 . S
C731 O746 1.261 . S
C731 O747 1.242 . S
C732 C731 1.506 . S
C732 C733 1.358 . S
C732 C737 1.382 . S
C733 C732 1.358 . S
C733 C734 1.385 . S
C733 H756 0.930 . S
C734 C733 1.385 . S
C734 C735 1.395 . S
C734 H757 0.929 1_545 S
C735 C734 1.395 . S
C735 C736 1.335 . S
C736 C735 1.335 . S
C736 C737 1.398 . S
C736 H758 0.930 . S
C737 C732 1.382 . S
C737 C736 1.398 . S
C737 H759 0.929 . S
C738 O748 1.271 . S
C738 O749 1.251 . S
C739 O750 1.252 . S
C739 O751 1.272 . S
O740 Sm720 2.543 . S
O740 C722 1.261 . S
O741 Sm720 2.450 . S
O741 C722 1.242 . S
O742 Sm720 2.681 . S
O742 Sm721 2.386 . S
O742 C729 1.271 . S
O743 Sm720 2.464 . S
O743 C729 1.251 . S
O744 Sm720 2.396 . S
O744 C730 1.252 . S
O745 Sm721 2.408 . S
O745 C730 1.272 . S
O746 Sm721 2.543 . S
O746 C731 1.261 . S
O747 Sm721 2.450 . S
O747 C731 1.242 . S
O748 Sm720 2.386 . S
O748 Sm721 2.681 . S
O748 C738 1.271 . S
O749 Sm721 2.464 . S
O749 C738 1.251 . S
O750 Sm721 2.396 . S
O750 C739 1.252 . S
O751 Sm720 2.408 . S
O751 C739 1.272 . S
H752 C724 0.930 . S
H753 C725 0.929 . S
H754 C727 0.930 . S
H755 C728 0.929 . S
H756 C733 0.930 . S
H757 C734 0.929 1_565 S
H758 C736 0.930 . S
H759 C737 0.929 . S
Sm760 C762 2.846 . S
Sm760 O780 2.543 . S
Sm760 O781 2.450 . S
Sm760 O782 2.681 . S
Sm760 O783 2.464 . S
Sm760 O784 2.396 . S
Sm760 O788 2.386 . S
Sm760 O791 2.408 . S
Sm761 C771 2.846 . S
Sm761 O782 2.386 . S
Sm761 O785 2.408 . S
Sm761 O786 2.543 . S
Sm761 O787 2.450 . S
Sm761 O788 2.681 . S
Sm761 O789 2.464 . S
Sm761 O790 2.396 . S
C762 Sm760 2.846 . S
C762 C763 1.506 . S
C762 O780 1.261 . S
C762 O781 1.242 . S
C763 C762 1.506 . S
C763 C764 1.358 . S
C763 C768 1.382 . S
C764 C763 1.358 . S
C764 C765 1.385 . S
C764 H792 0.930 . S
C765 C764 1.385 . S
C765 C766 1.395 . S
C765 H793 0.929 . S
C766 C765 1.395 . S
C766 C767 1.335 . S
C767 C766 1.335 . S
C767 C768 1.398 . S
C767 H794 0.930 . S
C768 C763 1.382 . S
C768 C767 1.398 . S
C768 H795 0.929 . S
C769 O782 1.271 . S
C769 O783 1.251 . S
C770 O784 1.252 . S
C770 O785 1.272 . S
C771 Sm761 2.846 . S
C771 C772 1.506 . S
C771 O786 1.261 . S
C771 O787 1.242 . S
C772 C771 1.506 . S
C772 C773 1.358 . S
C772 C777 1.382 . S
C773 C772 1.358 . S
C773 C774 1.385 . S
C773 H796 0.930 . S
C774 C773 1.385 . S
C774 C775 1.395 . S
C774 H797 0.929 1_655 S
C775 C774 1.395 . S
C775 C776 1.335 . S
C776 C775 1.335 . S
C776 C777 1.398 . S
C776 H798 0.930 . S
C777 C772 1.382 . S
C777 C776 1.398 . S
C777 H799 0.929 . S
C778 O788 1.271 . S
C778 O789 1.251 . S
C779 O790 1.252 . S
C779 O791 1.272 . S
O780 Sm760 2.543 . S
O780 C762 1.261 . S
O781 Sm760 2.450 . S
O781 C762 1.242 . S
O782 Sm760 2.681 . S
O782 Sm761 2.386 . S
O782 C769 1.271 . S
O783 Sm760 2.464 . S
O783 C769 1.251 . S
O784 Sm760 2.396 . S
O784 C770 1.252 . S
O785 Sm761 2.408 . S
O785 C770 1.272 . S
O786 Sm761 2.543 . S
O786 C771 1.261 . S
O787 Sm761 2.450 . S
O787 C771 1.242 . S
O788 Sm760 2.386 . S
O788 Sm761 2.681 . S
O788 C778 1.271 . S
O789 Sm761 2.464 . S
O789 C778 1.251 . S
O790 Sm761 2.396 . S
O790 C779 1.252 . S
O791 Sm760 2.408 . S
O791 C779 1.272 . S
H792 C764 0.930 . S
H793 C765 0.929 . S
H794 C767 0.930 . S
H795 C768 0.929 . S
H796 C773 0.930 . S
H797 C774 0.929 1_455 S
H798 C776 0.930 . S
H799 C777 0.929 . S
Sm800 C802 2.846 . S
Sm800 O820 2.543 . S
Sm800 O821 2.450 . S
Sm800 O822 2.681 . S
Sm800 O823 2.464 . S
Sm800 O824 2.396 . S
Sm800 O828 2.386 . S
Sm800 O831 2.408 . S
Sm801 C811 2.846 . S
Sm801 O822 2.386 . S
Sm801 O825 2.408 . S
Sm801 O826 2.543 . S
Sm801 O827 2.450 . S
Sm801 O828 2.681 . S
Sm801 O829 2.464 . S
Sm801 O830 2.396 . S
C802 Sm800 2.846 . S
C802 C803 1.506 . S
C802 O820 1.261 . S
C802 O821 1.242 . S
C803 C802 1.506 . S
C803 C804 1.358 . S
C803 C808 1.382 . S
C804 C803 1.358 . S
C804 C805 1.385 . S
C804 H832 0.930 . S
C805 C804 1.385 . S
C805 C806 1.395 . S
C805 H833 0.929 . S
C806 C805 1.395 . S
C806 C807 1.335 . S
C807 C806 1.335 . S
C807 C808 1.398 . S
C807 H834 0.930 . S
C808 C803 1.382 . S
C808 C807 1.398 . S
C808 H835 0.929 . S
C809 O822 1.271 . S
C809 O823 1.251 . S
C810 O824 1.252 . S
C810 O825 1.272 . S
C811 Sm801 2.846 . S
C811 C812 1.506 . S
C811 O826 1.261 . S
C811 O827 1.242 . S
C812 C811 1.506 . S
C812 C813 1.358 . S
C812 C817 1.382 . S
C813 C812 1.358 . S
C813 C814 1.385 . S
C813 H836 0.930 . S
C814 C813 1.385 . S
C814 C815 1.395 . S
C814 H837 0.929 . S
C815 C814 1.395 . S
C815 C816 1.335 . S
C816 C815 1.335 . S
C816 C817 1.398 . S
C816 H838 0.930 . S
C817 C812 1.382 . S
C817 C816 1.398 . S
C817 H839 0.929 . S
C818 O828 1.271 . S
C818 O829 1.251 . S
C819 O830 1.252 . S
C819 O831 1.272 . S
O820 Sm800 2.543 . S
O820 C802 1.261 . S
O821 Sm800 2.450 . S
O821 C802 1.242 . S
O822 Sm800 2.681 . S
O822 Sm801 2.386 . S
O822 C809 1.271 . S
O823 Sm800 2.464 . S
O823 C809 1.251 . S
O824 Sm800 2.396 . S
O824 C810 1.252 . S
O825 Sm801 2.408 . S
O825 C810 1.272 . S
O826 Sm801 2.543 . S
O826 C811 1.261 . S
O827 Sm801 2.450 . S
O827 C811 1.242 . S
O828 Sm800 2.386 . S
O828 Sm801 2.681 . S
O828 C818 1.271 . S
O829 Sm801 2.464 . S
O829 C818 1.251 . S
O830 Sm801 2.396 . S
O830 C819 1.252 . S
O831 Sm800 2.408 . S
O831 C819 1.272 . S
H832 C804 0.930 . S
H833 C805 0.929 . S
H834 C807 0.930 . S
H835 C808 0.929 . S
H836 C813 0.930 . S
H837 C814 0.929 . S
H838 C816 0.930 . S
H839 C817 0.929 . S
Sm840 C842 2.846 . S
Sm840 O860 2.543 . S
Sm840 O861 2.450 . S
Sm840 O862 2.681 1_554 S
Sm840 O863 2.464 . S
Sm840 O864 2.396 . S
Sm840 O868 2.386 . S
Sm840 O871 2.408 . S
Sm841 C851 2.846 . S
Sm841 O862 2.386 . S
Sm841 O865 2.408 . S
Sm841 O866 2.543 . S
Sm841 O867 2.450 . S
Sm841 O868 2.681 1_556 S
Sm841 O869 2.464 . S
Sm841 O870 2.396 . S
C842 Sm840 2.846 . S
C842 C843 1.506 . S
C842 O860 1.261 . S
C842 O861 1.242 . S
C843 C842 1.506 . S
C843 C844 1.358 . S
C843 C848 1.382 . S
C844 C843 1.358 . S
C844 C845 1.385 . S
C844 H872 0.930 . S
C845 C844 1.385 . S
C845 C846 1.395 . S
C845 H873 0.929 . S
C846 C845 1.395 . S
C846 C847 1.335 . S
C847 C846 1.335 . S
C847 C848 1.398 . S
C847 H874 0.930 . S
C848 C843 1.382 . S
C848 C847 1.398 . S
C848 H875 0.929 . S
C849 O862 1.271 1_554 S
C849 O863 1.251 . S
C850 O864 1.252 . S
C850 O865 1.272 1_554 S
C851 Sm841 2.846 . S
C851 C852 1.506 . S
C851 O866 1.261 . S
C851 O867 1.242 . S
C852 C851 1.506 . S
C852 C853 1.358 . S
C852 C857 1.382 . S
C853 C852 1.358 . S
C853 C854 1.385 . S
C853 H876 0.930 . S
C854 C853 1.385 . S
C854 C855 1.395 . S
C854 H877 0.929 . S
C855 C854 1.395 . S
C855 C856 1.335 . S
C856 C855 1.335 . S
C856 C857 1.398 . S
C856 H878 0.930 . S
C857 C852 1.382 . S
C857 C856 1.398 . S
C857 H879 0.929 . S
C858 O868 1.271 1_556 S
C858 O869 1.251 . S
C859 O870 1.252 . S
C859 O871 1.272 1_556 S
O860 Sm840 2.543 . S
O860 C842 1.261 . S
O861 Sm840 2.450 . S
O861 C842 1.242 . S
O862 Sm840 2.681 1_556 S
O862 Sm841 2.386 . S
O862 C849 1.271 1_556 S
O863 Sm840 2.464 . S
O863 C849 1.251 . S
O864 Sm840 2.396 . S
O864 C850 1.252 . S
O865 Sm841 2.408 . S
O865 C850 1.272 1_556 S
O866 Sm841 2.543 . S
O866 C851 1.261 . S
O867 Sm841 2.450 . S
O867 C851 1.242 . S
O868 Sm840 2.386 . S
O868 Sm841 2.681 1_554 S
O868 C858 1.271 1_554 S
O869 Sm841 2.464 . S
O869 C858 1.251 . S
O870 Sm841 2.396 . S
O870 C859 1.252 . S
O871 Sm840 2.408 . S
O871 C859 1.272 1_554 S
H872 C844 0.930 . S
H873 C845 0.929 . S
H874 C847 0.930 . S
H875 C848 0.929 . S
H876 C853 0.930 . S
H877 C854 0.929 . S
H878 C856 0.930 . S
H879 C857 0.929 . S
Sm880 C882 2.846 . S
Sm880 O900 2.543 . S
Sm880 O901 2.450 . S
Sm880 O902 2.681 1_554 S
Sm880 O903 2.464 . S
Sm880 O904 2.396 . S
Sm880 O908 2.386 . S
Sm880 O911 2.408 . S
Sm881 C891 2.846 . S
Sm881 O902 2.386 . S
Sm881 O905 2.408 . S
Sm881 O906 2.543 . S
Sm881 O907 2.450 . S
Sm881 O908 2.681 1_556 S
Sm881 O909 2.464 . S
Sm881 O910 2.396 . S
C882 Sm880 2.846 . S
C882 C883 1.506 . S
C882 O900 1.261 . S
C882 O901 1.242 . S
C883 C882 1.506 . S
C883 C884 1.358 . S
C883 C888 1.382 . S
C884 C883 1.358 . S
C884 C885 1.385 . S
C884 H912 0.930 . S
C885 C884 1.385 . S
C885 C886 1.395 . S
C885 H913 0.929 . S
C886 C885 1.395 . S
C886 C887 1.335 . S
C887 C886 1.335 . S
C887 C888 1.398 . S
C887 H914 0.930 . S
C888 C883 1.382 . S
C888 C887 1.398 . S
C888 H915 0.929 . S
C889 O902 1.271 1_554 S
C889 O903 1.251 . S
C890 O904 1.252 . S
C890 O905 1.272 1_554 S
C891 Sm881 2.846 . S
C891 C892 1.506 . S
C891 O906 1.261 . S
C891 O907 1.242 . S
C892 C891 1.506 . S
C892 C893 1.358 . S
C892 C897 1.382 . S
C893 C892 1.358 . S
C893 C894 1.385 . S
C893 H916 0.930 . S
C894 C893 1.385 . S
C894 C895 1.395 . S
C894 H917 0.929 . S
C895 C894 1.395 . S
C895 C896 1.335 . S
C896 C895 1.335 . S
C896 C897 1.398 . S
C896 H918 0.930 . S
C897 C892 1.382 . S
C897 C896 1.398 . S
C897 H919 0.929 . S
C898 O908 1.271 1_556 S
C898 O909 1.251 . S
C899 O910 1.252 . S
C899 O911 1.272 1_556 S
O900 Sm880 2.543 . S
O900 C882 1.261 . S
O901 Sm880 2.450 . S
O901 C882 1.242 . S
O902 Sm880 2.681 1_556 S
O902 Sm881 2.386 . S
O902 C889 1.271 1_556 S
O903 Sm880 2.464 . S
O903 C889 1.251 . S
O904 Sm880 2.396 . S
O904 C890 1.252 . S
O905 Sm881 2.408 . S
O905 C890 1.272 1_556 S
O906 Sm881 2.543 . S
O906 C891 1.261 . S
O907 Sm881 2.450 . S
O907 C891 1.242 . S
O908 Sm880 2.386 . S
O908 Sm881 2.681 1_554 S
O908 C898 1.271 1_554 S
O909 Sm881 2.464 . S
O909 C898 1.251 . S
O910 Sm881 2.396 . S
O910 C899 1.252 . S
O911 Sm880 2.408 . S
O911 C899 1.272 1_554 S
H912 C884 0.930 . S
H913 C885 0.929 . S
H914 C887 0.930 . S
H915 C888 0.929 . S
H916 C893 0.930 . S
H917 C894 0.929 . S
H918 C896 0.930 . S
H919 C897 0.929 . S
Sm920 C922 2.846 . S
Sm920 O940 2.543 . S
Sm920 O941 2.450 . S
Sm920 O942 2.681 1_554 S
Sm920 O943 2.464 . S
Sm920 O944 2.396 . S
Sm920 O948 2.386 . S
Sm920 O951 2.408 . S
Sm921 C931 2.846 . S
Sm921 O942 2.386 . S
Sm921 O945 2.408 . S
Sm921 O946 2.543 . S
Sm921 O947 2.450 . S
Sm921 O948 2.681 1_556 S
Sm921 O949 2.464 . S
Sm921 O950 2.396 . S
C922 Sm920 2.846 . S
C922 C923 1.506 . S
C922 O940 1.261 . S
C922 O941 1.242 . S
C923 C922 1.506 . S
C923 C924 1.358 . S
C923 C928 1.382 . S
C924 C923 1.358 . S
C924 C925 1.385 . S
C924 H952 0.930 . S
C925 C924 1.385 . S
C925 C926 1.395 . S
C925 H953 0.929 . S
C926 C925 1.395 . S
C926 C927 1.335 . S
C927 C926 1.335 . S
C927 C928 1.398 . S
C927 H954 0.930 . S
C928 C923 1.382 . S
C928 C927 1.398 . S
C928 H955 0.929 . S
C929 O942 1.271 1_554 S
C929 O943 1.251 . S
C930 O944 1.252 . S
C930 O945 1.272 1_554 S
C931 Sm921 2.846 . S
C931 C932 1.506 . S
C931 O946 1.261 . S
C931 O947 1.242 . S
C932 C931 1.506 . S
C932 C933 1.358 . S
C932 C937 1.382 . S
C933 C932 1.358 . S
C933 C934 1.385 . S
C933 H956 0.930 . S
C934 C933 1.385 . S
C934 C935 1.395 . S
C934 H957 0.929 . S
C935 C934 1.395 . S
C935 C936 1.335 . S
C936 C935 1.335 . S
C936 C937 1.398 . S
C936 H958 0.930 . S
C937 C932 1.382 . S
C937 C936 1.398 . S
C937 H959 0.929 . S
C938 O948 1.271 1_556 S
C938 O949 1.251 . S
C939 O950 1.252 . S
C939 O951 1.272 1_556 S
O940 Sm920 2.543 . S
O940 C922 1.261 . S
O941 Sm920 2.450 . S
O941 C922 1.242 . S
O942 Sm920 2.681 1_556 S
O942 Sm921 2.386 . S
O942 C929 1.271 1_556 S
O943 Sm920 2.464 . S
O943 C929 1.251 . S
O944 Sm920 2.396 . S
O944 C930 1.252 . S
O945 Sm921 2.408 . S
O945 C930 1.272 1_556 S
O946 Sm921 2.543 . S
O946 C931 1.261 . S
O947 Sm921 2.450 . S
O947 C931 1.242 . S
O948 Sm920 2.386 . S
O948 Sm921 2.681 1_554 S
O948 C938 1.271 1_554 S
O949 Sm921 2.464 . S
O949 C938 1.251 . S
O950 Sm921 2.396 . S
O950 C939 1.252 . S
O951 Sm920 2.408 . S
O951 C939 1.272 1_554 S
H952 C924 0.930 . S
H953 C925 0.929 . S
H954 C927 0.930 . S
H955 C928 0.929 . S
H956 C933 0.930 . S
H957 C934 0.929 . S
H958 C936 0.930 . S
H959 C937 0.929 . S
Sm960 C962 2.846 . S
Sm960 O980 2.543 . S
Sm960 O981 2.450 . S
Sm960 O982 2.681 . S
Sm960 O983 2.464 . S
Sm960 O984 2.396 . S
Sm960 O988 2.386 . S
Sm960 O991 2.408 . S
Sm961 C971 2.846 . S
Sm961 O982 2.386 . S
Sm961 O985 2.408 . S
Sm961 O986 2.543 . S
Sm961 O987 2.450 . S
Sm961 O988 2.681 . S
Sm961 O989 2.464 . S
Sm961 O990 2.396 . S
C962 Sm960 2.846 . S
C962 C963 1.506 . S
C962 O980 1.261 . S
C962 O981 1.242 . S
C963 C962 1.506 . S
C963 C964 1.358 . S
C963 C968 1.382 . S
C964 C963 1.358 . S
C964 C965 1.385 . S
C964 H992 0.930 . S
C965 C964 1.385 . S
C965 C966 1.395 . S
C965 H993 0.929 1_565 S
C966 C965 1.395 . S
C966 C967 1.335 . S
C967 C966 1.335 . S
C967 C968 1.398 . S
C967 H994 0.930 . S
C968 C963 1.382 . S
C968 C967 1.398 . S
C968 H995 0.929 . S
C969 O982 1.271 . S
C969 O983 1.251 . S
C970 O984 1.252 . S
C970 O985 1.272 . S
C971 Sm961 2.846 . S
C971 C972 1.506 . S
C971 O986 1.261 . S
C971 O987 1.242 . S
C972 C971 1.506 . S
C972 C973 1.358 . S
C972 C977 1.382 . S
C973 C972 1.358 . S
C973 C974 1.385 . S
C973 H996 0.930 . S
C974 C973 1.385 . S
C974 C975 1.395 . S
C974 H997 0.929 . S
C975 C974 1.395 . S
C975 C976 1.335 . S
C976 C975 1.335 . S
C976 C977 1.398 . S
C976 H998 0.930 . S
C977 C972 1.382 . S
C977 C976 1.398 . S
C977 H999 0.929 . S
C978 O988 1.271 . S
C978 O989 1.251 . S
C979 O990 1.252 . S
C979 O991 1.272 . S
O980 Sm960 2.543 . S
O980 C962 1.261 . S
O981 Sm960 2.450 . S
O981 C962 1.242 . S
O982 Sm960 2.681 . S
O982 Sm961 2.386 . S
O982 C969 1.271 . S
O983 Sm960 2.464 . S
O983 C969 1.251 . S
O984 Sm960 2.396 . S
O984 C970 1.252 . S
O985 Sm961 2.408 . S
O985 C970 1.272 . S
O986 Sm961 2.543 . S
O986 C971 1.261 . S
O987 Sm961 2.450 . S
O987 C971 1.242 . S
O988 Sm960 2.386 . S
O988 Sm961 2.681 . S
O988 C978 1.271 . S
O989 Sm961 2.464 . S
O989 C978 1.251 . S
O990 Sm961 2.396 . S
O990 C979 1.252 . S
O991 Sm960 2.408 . S
O991 C979 1.272 . S
H992 C964 0.930 . S
H993 C965 0.929 1_545 S
H994 C967 0.930 . S
H995 C968 0.929 . S
H996 C973 0.930 . S
H997 C974 0.929 . S
H998 C976 0.930 . S
H999 C977 0.929 . S
Sm1000 C1002 2.846 . S
Sm1000 O1020 2.543 . S
Sm1000 O1021 2.450 . S
Sm1000 O1022 2.681 . S
Sm1000 O1023 2.464 . S
Sm1000 O1024 2.396 . S
Sm1000 O1028 2.386 . S
Sm1000 O1031 2.408 . S
Sm1001 C1011 2.846 . S
Sm1001 O1022 2.386 . S
Sm1001 O1025 2.408 . S
Sm1001 O1026 2.543 . S
Sm1001 O1027 2.450 . S
Sm1001 O1028 2.681 . S
Sm1001 O1029 2.464 . S
Sm1001 O1030 2.396 . S
C1002 Sm1000 2.846 . S
C1002 C1003 1.506 . S
C1002 O1020 1.261 . S
C1002 O1021 1.242 . S
C1003 C1002 1.506 . S
C1003 C1004 1.358 . S
C1003 C1008 1.382 . S
C1004 C1003 1.358 . S
C1004 C1005 1.385 . S
C1004 H1032 0.930 . S
C1005 C1004 1.385 . S
C1005 C1006 1.395 . S
C1005 H1033 0.929 1_455 S
C1006 C1005 1.395 . S
C1006 C1007 1.335 . S
C1007 C1006 1.335 . S
C1007 C1008 1.398 . S
C1007 H1034 0.930 . S
C1008 C1003 1.382 . S
C1008 C1007 1.398 . S
C1008 H1035 0.929 . S
C1009 O1022 1.271 . S
C1009 O1023 1.251 . S
C1010 O1024 1.252 . S
C1010 O1025 1.272 . S
C1011 Sm1001 2.846 . S
C1011 C1012 1.506 . S
C1011 O1026 1.261 . S
C1011 O1027 1.242 . S
C1012 C1011 1.506 . S
C1012 C1013 1.358 . S
C1012 C1017 1.382 . S
C1013 C1012 1.358 . S
C1013 C1014 1.385 . S
C1013 H1036 0.930 . S
C1014 C1013 1.385 . S
C1014 C1015 1.395 . S
C1014 H1037 0.929 . S
C1015 C1014 1.395 . S
C1015 C1016 1.335 . S
C1016 C1015 1.335 . S
C1016 C1017 1.398 . S
C1016 H1038 0.930 . S
C1017 C1012 1.382 . S
C1017 C1016 1.398 . S
C1017 H1039 0.929 . S
C1018 O1028 1.271 . S
C1018 O1029 1.251 . S
C1019 O1030 1.252 . S
C1019 O1031 1.272 . S
O1020 Sm1000 2.543 . S
O1020 C1002 1.261 . S
O1021 Sm1000 2.450 . S
O1021 C1002 1.242 . S
O1022 Sm1000 2.681 . S
O1022 Sm1001 2.386 . S
O1022 C1009 1.271 . S
O1023 Sm1000 2.464 . S
O1023 C1009 1.251 . S
O1024 Sm1000 2.396 . S
O1024 C1010 1.252 . S
O1025 Sm1001 2.408 . S
O1025 C1010 1.272 . S
O1026 Sm1001 2.543 . S
O1026 C1011 1.261 . S
O1027 Sm1001 2.450 . S
O1027 C1011 1.242 . S
O1028 Sm1000 2.386 . S
O1028 Sm1001 2.681 . S
O1028 C1018 1.271 . S
O1029 Sm1001 2.464 . S
O1029 C1018 1.251 . S
O1030 Sm1001 2.396 . S
O1030 C1019 1.252 . S
O1031 Sm1000 2.408 . S
O1031 C1019 1.272 . S
H1032 C1004 0.930 . S
H1033 C1005 0.929 1_655 S
H1034 C1007 0.930 . S
H1035 C1008 0.929 . S
H1036 C1013 0.930 . S
H1037 C1014 0.929 . S
H1038 C1016 0.930 . S
H1039 C1017 0.929 . S
Sm1040 C1042 2.846 . S
Sm1040 O1060 2.543 . S
Sm1040 O1061 2.450 . S
Sm1040 O1062 2.681 . S
Sm1040 O1063 2.464 . S
Sm1040 O1064 2.396 . S
Sm1040 O1068 2.386 . S
Sm1040 O1071 2.408 . S
Sm1041 C1051 2.846 . S
Sm1041 O1062 2.386 . S
Sm1041 O1065 2.408 . S
Sm1041 O1066 2.543 . S
Sm1041 O1067 2.450 . S
Sm1041 O1068 2.681 . S
Sm1041 O1069 2.464 . S
Sm1041 O1070 2.396 . S
C1042 Sm1040 2.846 . S
C1042 C1043 1.506 . S
C1042 O1060 1.261 . S
C1042 O1061 1.242 . S
C1043 C1042 1.506 . S
C1043 C1044 1.358 . S
C1043 C1048 1.382 . S
C1044 C1043 1.358 . S
C1044 C1045 1.385 . S
C1044 H1072 0.930 . S
C1045 C1044 1.385 . S
C1045 C1046 1.395 . S
C1045 H1073 0.929 . S
C1046 C1045 1.395 . S
C1046 C1047 1.335 . S
C1047 C1046 1.335 . S
C1047 C1048 1.398 . S
C1047 H1074 0.930 . S
C1048 C1043 1.382 . S
C1048 C1047 1.398 . S
C1048 H1075 0.929 . S
C1049 O1062 1.271 . S
C1049 O1063 1.251 . S
C1050 O1064 1.252 . S
C1050 O1065 1.272 . S
C1051 Sm1041 2.846 . S
C1051 C1052 1.506 . S
C1051 O1066 1.261 . S
C1051 O1067 1.242 . S
C1052 C1051 1.506 . S
C1052 C1053 1.358 . S
C1052 C1057 1.382 . S
C1053 C1052 1.358 . S
C1053 C1054 1.385 . S
C1053 H1076 0.930 . S
C1054 C1053 1.385 . S
C1054 C1055 1.395 . S
C1054 H1077 0.929 . S
C1055 C1054 1.395 . S
C1055 C1056 1.335 . S
C1056 C1055 1.335 . S
C1056 C1057 1.398 . S
C1056 H1078 0.930 . S
C1057 C1052 1.382 . S
C1057 C1056 1.398 . S
C1057 H1079 0.929 . S
C1058 O1068 1.271 . S
C1058 O1069 1.251 . S
C1059 O1070 1.252 . S
C1059 O1071 1.272 . S
O1060 Sm1040 2.543 . S
O1060 C1042 1.261 . S
O1061 Sm1040 2.450 . S
O1061 C1042 1.242 . S
O1062 Sm1040 2.681 . S
O1062 Sm1041 2.386 . S
O1062 C1049 1.271 . S
O1063 Sm1040 2.464 . S
O1063 C1049 1.251 . S
O1064 Sm1040 2.396 . S
O1064 C1050 1.252 . S
O1065 Sm1041 2.408 . S
O1065 C1050 1.272 . S
O1066 Sm1041 2.543 . S
O1066 C1051 1.261 . S
O1067 Sm1041 2.450 . S
O1067 C1051 1.242 . S
O1068 Sm1040 2.386 . S
O1068 Sm1041 2.681 . S
O1068 C1058 1.271 . S
O1069 Sm1041 2.464 . S
O1069 C1058 1.251 . S
O1070 Sm1041 2.396 . S
O1070 C1059 1.252 . S
O1071 Sm1040 2.408 . S
O1071 C1059 1.272 . S
H1072 C1044 0.930 . S
H1073 C1045 0.929 . S
H1074 C1047 0.930 . S
H1075 C1048 0.929 . S
H1076 C1053 0.930 . S
H1077 C1054 0.929 . S
H1078 C1056 0.930 . S
H1079 C1057 0.929 . S
Sm1080 C1082 2.846 . S
Sm1080 O1100 2.543 . S
Sm1080 O1101 2.450 . S
Sm1080 O1102 2.681 1_554 S
Sm1080 O1103 2.464 . S
Sm1080 O1104 2.396 . S
Sm1080 O1108 2.386 . S
Sm1080 O1111 2.408 . S
Sm1081 C1091 2.846 . S
Sm1081 O1102 2.386 . S
Sm1081 O1105 2.408 . S
Sm1081 O1106 2.543 . S
Sm1081 O1107 2.450 . S
Sm1081 O1108 2.681 1_556 S
Sm1081 O1109 2.464 . S
Sm1081 O1110 2.396 . S
C1082 Sm1080 2.846 . S
C1082 C1083 1.506 . S
C1082 O1100 1.261 . S
C1082 O1101 1.242 . S
C1083 C1082 1.506 . S
C1083 C1084 1.358 . S
C1083 C1088 1.382 . S
C1084 C1083 1.358 . S
C1084 C1085 1.385 . S
C1084 H1112 0.930 . S
C1085 C1084 1.385 . S
C1085 C1086 1.395 . S
C1085 H1113 0.929 . S
C1086 C1085 1.395 . S
C1086 C1087 1.335 . S
C1087 C1086 1.335 . S
C1087 C1088 1.398 . S
C1087 H1114 0.930 . S
C1088 C1083 1.382 . S
C1088 C1087 1.398 . S
C1088 H1115 0.929 . S
C1089 O1102 1.271 1_554 S
C1089 O1103 1.251 . S
C1090 O1104 1.252 . S
C1090 O1105 1.272 1_554 S
C1091 Sm1081 2.846 . S
C1091 C1092 1.506 . S
C1091 O1106 1.261 . S
C1091 O1107 1.242 . S
C1092 C1091 1.506 . S
C1092 C1093 1.358 . S
C1092 C1097 1.382 . S
C1093 C1092 1.358 . S
C1093 C1094 1.385 . S
C1093 H1116 0.930 . S
C1094 C1093 1.385 . S
C1094 C1095 1.395 . S
C1094 H1117 0.929 . S
C1095 C1094 1.395 . S
C1095 C1096 1.335 . S
C1096 C1095 1.335 . S
C1096 C1097 1.398 . S
C1096 H1118 0.930 . S
C1097 C1092 1.382 . S
C1097 C1096 1.398 . S
C1097 H1119 0.929 . S
C1098 O1108 1.271 1_556 S
C1098 O1109 1.251 . S
C1099 O1110 1.252 . S
C1099 O1111 1.272 1_556 S
O1100 Sm1080 2.543 . S
O1100 C1082 1.261 . S
O1101 Sm1080 2.450 . S
O1101 C1082 1.242 . S
O1102 Sm1080 2.681 1_556 S
O1102 Sm1081 2.386 . S
O1102 C1089 1.271 1_556 S
O1103 Sm1080 2.464 . S
O1103 C1089 1.251 . S
O1104 Sm1080 2.396 . S
O1104 C1090 1.252 . S
O1105 Sm1081 2.408 . S
O1105 C1090 1.272 1_556 S
O1106 Sm1081 2.543 . S
O1106 C1091 1.261 . S
O1107 Sm1081 2.450 . S
O1107 C1091 1.242 . S
O1108 Sm1080 2.386 . S
O1108 Sm1081 2.681 1_554 S
O1108 C1098 1.271 1_554 S
O1109 Sm1081 2.464 . S
O1109 C1098 1.251 . S
O1110 Sm1081 2.396 . S
O1110 C1099 1.252 . S
O1111 Sm1080 2.408 . S
O1111 C1099 1.272 1_554 S
H1112 C1084 0.930 . S
H1113 C1085 0.929 . S
H1114 C1087 0.930 . S
H1115 C1088 0.929 . S
H1116 C1093 0.930 . S
H1117 C1094 0.929 . S
H1118 C1096 0.930 . S
H1119 C1097 0.929 . S
Sm1120 C1122 2.846 . S
Sm1120 O1140 2.543 . S
Sm1120 O1141 2.450 . S
Sm1120 O1142 2.681 1_554 S
Sm1120 O1143 2.464 . S
Sm1120 O1144 2.396 . S
Sm1120 O1148 2.386 . S
Sm1120 O1151 2.408 . S
Sm1121 C1131 2.846 . S
Sm1121 O1142 2.386 . S
Sm1121 O1145 2.408 . S
Sm1121 O1146 2.543 . S
Sm1121 O1147 2.450 . S
Sm1121 O1148 2.681 1_556 S
Sm1121 O1149 2.464 . S
Sm1121 O1150 2.396 . S
C1122 Sm1120 2.846 . S
C1122 C1123 1.506 . S
C1122 O1140 1.261 . S
C1122 O1141 1.242 . S
C1123 C1122 1.506 . S
C1123 C1124 1.358 . S
C1123 C1128 1.382 . S
C1124 C1123 1.358 . S
C1124 C1125 1.385 . S
C1124 H1152 0.930 . S
C1125 C1124 1.385 . S
C1125 C1126 1.395 . S
C1125 H1153 0.929 . S
C1126 C1125 1.395 . S
C1126 C1127 1.335 . S
C1127 C1126 1.335 . S
C1127 C1128 1.398 . S
C1127 H1154 0.930 . S
C1128 C1123 1.382 . S
C1128 C1127 1.398 . S
C1128 H1155 0.929 . S
C1129 O1142 1.271 1_554 S
C1129 O1143 1.251 . S
C1130 O1144 1.252 . S
C1130 O1145 1.272 1_554 S
C1131 Sm1121 2.846 . S
C1131 C1132 1.506 . S
C1131 O1146 1.261 . S
C1131 O1147 1.242 . S
C1132 C1131 1.506 . S
C1132 C1133 1.358 . S
C1132 C1137 1.382 . S
C1133 C1132 1.358 . S
C1133 C1134 1.385 . S
C1133 H1156 0.930 . S
C1134 C1133 1.385 . S
C1134 C1135 1.395 . S
C1134 H1157 0.929 . S
C1135 C1134 1.395 . S
C1135 C1136 1.335 . S
C1136 C1135 1.335 . S
C1136 C1137 1.398 . S
C1136 H1158 0.930 . S
C1137 C1132 1.382 . S
C1137 C1136 1.398 . S
C1137 H1159 0.929 . S
C1138 O1148 1.271 1_556 S
C1138 O1149 1.251 . S
C1139 O1150 1.252 . S
C1139 O1151 1.272 1_556 S
O1140 Sm1120 2.543 . S
O1140 C1122 1.261 . S
O1141 Sm1120 2.450 . S
O1141 C1122 1.242 . S
O1142 Sm1120 2.681 1_556 S
O1142 Sm1121 2.386 . S
O1142 C1129 1.271 1_556 S
O1143 Sm1120 2.464 . S
O1143 C1129 1.251 . S
O1144 Sm1120 2.396 . S
O1144 C1130 1.252 . S
O1145 Sm1121 2.408 . S
O1145 C1130 1.272 1_556 S
O1146 Sm1121 2.543 . S
O1146 C1131 1.261 . S
O1147 Sm1121 2.450 . S
O1147 C1131 1.242 . S
O1148 Sm1120 2.386 . S
O1148 Sm1121 2.681 1_554 S
O1148 C1138 1.271 1_554 S
O1149 Sm1121 2.464 . S
O1149 C1138 1.251 . S
O1150 Sm1121 2.396 . S
O1150 C1139 1.252 . S
O1151 Sm1120 2.408 . S
O1151 C1139 1.272 1_554 S
H1152 C1124 0.930 . S
H1153 C1125 0.929 . S
H1154 C1127 0.930 . S
H1155 C1128 0.929 . S
H1156 C1133 0.930 . S
H1157 C1134 0.929 . S
H1158 C1136 0.930 . S
H1159 C1137 0.929 . S
Sm1160 C1162 2.846 . S
Sm1160 O1180 2.543 . S
Sm1160 O1181 2.450 . S
Sm1160 O1182 2.681 1_554 S
Sm1160 O1183 2.464 . S
Sm1160 O1184 2.396 . S
Sm1160 O1188 2.386 . S
Sm1160 O1191 2.408 . S
Sm1161 C1171 2.846 . S
Sm1161 O1182 2.386 . S
Sm1161 O1185 2.408 . S
Sm1161 O1186 2.543 . S
Sm1161 O1187 2.450 . S
Sm1161 O1188 2.681 1_556 S
Sm1161 O1189 2.464 . S
Sm1161 O1190 2.396 . S
C1162 Sm1160 2.846 . S
C1162 C1163 1.506 . S
C1162 O1180 1.261 . S
C1162 O1181 1.242 . S
C1163 C1162 1.506 . S
C1163 C1164 1.358 . S
C1163 C1168 1.382 . S
C1164 C1163 1.358 . S
C1164 C1165 1.385 . S
C1164 H1192 0.930 . S
C1165 C1164 1.385 . S
C1165 C1166 1.395 . S
C1165 H1193 0.929 . S
C1166 C1165 1.395 . S
C1166 C1167 1.335 . S
C1167 C1166 1.335 . S
C1167 C1168 1.398 . S
C1167 H1194 0.930 . S
C1168 C1163 1.382 . S
C1168 C1167 1.398 . S
C1168 H1195 0.929 . S
C1169 O1182 1.271 1_554 S
C1169 O1183 1.251 . S
C1170 O1184 1.252 . S
C1170 O1185 1.272 1_554 S
C1171 Sm1161 2.846 . S
C1171 C1172 1.506 . S
C1171 O1186 1.261 . S
C1171 O1187 1.242 . S
C1172 C1171 1.506 . S
C1172 C1173 1.358 . S
C1172 C1177 1.382 . S
C1173 C1172 1.358 . S
C1173 C1174 1.385 . S
C1173 H1196 0.930 . S
C1174 C1173 1.385 . S
C1174 C1175 1.395 . S
C1174 H1197 0.929 . S
C1175 C1174 1.395 . S
C1175 C1176 1.335 . S
C1176 C1175 1.335 . S
C1176 C1177 1.398 . S
C1176 H1198 0.930 . S
C1177 C1172 1.382 . S
C1177 C1176 1.398 . S
C1177 H1199 0.929 . S
C1178 O1188 1.271 1_556 S
C1178 O1189 1.251 . S
C1179 O1190 1.252 . S
C1179 O1191 1.272 1_556 S
O1180 Sm1160 2.543 . S
O1180 C1162 1.261 . S
O1181 Sm1160 2.450 . S
O1181 C1162 1.242 . S
O1182 Sm1160 2.681 1_556 S
O1182 Sm1161 2.386 . S
O1182 C1169 1.271 1_556 S
O1183 Sm1160 2.464 . S
O1183 C1169 1.251 . S
O1184 Sm1160 2.396 . S
O1184 C1170 1.252 . S
O1185 Sm1161 2.408 . S
O1185 C1170 1.272 1_556 S
O1186 Sm1161 2.543 . S
O1186 C1171 1.261 . S
O1187 Sm1161 2.450 . S
O1187 C1171 1.242 . S
O1188 Sm1160 2.386 . S
O1188 Sm1161 2.681 1_554 S
O1188 C1178 1.271 1_554 S
O1189 Sm1161 2.464 . S
O1189 C1178 1.251 . S
O1190 Sm1161 2.396 . S
O1190 C1179 1.252 . S
O1191 Sm1160 2.408 . S
O1191 C1179 1.272 1_554 S
H1192 C1164 0.930 . S
H1193 C1165 0.929 . S
H1194 C1167 0.930 . S
H1195 C1168 0.929 . S
H1196 C1173 0.930 . S
H1197 C1174 0.929 . S
H1198 C1176 0.930 . S
H1199 C1177 0.929 . S
Sm1200 C1202 2.846 . S
Sm1200 O1220 2.543 . S
Sm1200 O1221 2.450 . S
Sm1200 O1222 2.681 . S
Sm1200 O1223 2.464 . S
Sm1200 O1224 2.396 . S
Sm1200 O1228 2.386 . S
Sm1200 O1231 2.408 . S
Sm1201 C1211 2.846 . S
Sm1201 O1222 2.386 . S
Sm1201 O1225 2.408 . S
Sm1201 O1226 2.543 . S
Sm1201 O1227 2.450 . S
Sm1201 O1228 2.681 . S
Sm1201 O1229 2.464 . S
Sm1201 O1230 2.396 . S
C1202 Sm1200 2.846 . S
C1202 C1203 1.506 . S
C1202 O1220 1.261 . S
C1202 O1221 1.242 . S
C1203 C1202 1.506 . S
C1203 C1204 1.358 . S
C1203 C1208 1.382 . S
C1204 C1203 1.358 . S
C1204 C1205 1.385 . S
C1204 H1232 0.930 . S
C1205 C1204 1.385 . S
C1205 C1206 1.395 . S
C1205 H1233 0.929 . S
C1206 C1205 1.395 . S
C1206 C1207 1.335 . S
C1207 C1206 1.335 . S
C1207 C1208 1.398 . S
C1207 H1234 0.930 . S
C1208 C1203 1.382 . S
C1208 C1207 1.398 . S
C1208 H1235 0.929 . S
C1209 O1222 1.271 . S
C1209 O1223 1.251 . S
C1210 O1224 1.252 . S
C1210 O1225 1.272 . S
C1211 Sm1201 2.846 . S
C1211 C1212 1.506 . S
C1211 O1226 1.261 . S
C1211 O1227 1.242 . S
C1212 C1211 1.506 . S
C1212 C1213 1.358 . S
C1212 C1217 1.382 . S
C1213 C1212 1.358 . S
C1213 C1214 1.385 . S
C1213 H1236 0.930 . S
C1214 C1213 1.385 . S
C1214 C1215 1.395 . S
C1214 H1237 0.929 . S
C1215 C1214 1.395 . S
C1215 C1216 1.335 . S
C1216 C1215 1.335 . S
C1216 C1217 1.398 . S
C1216 H1238 0.930 . S
C1217 C1212 1.382 . S
C1217 C1216 1.398 . S
C1217 H1239 0.929 . S
C1218 O1228 1.271 . S
C1218 O1229 1.251 . S
C1219 O1230 1.252 . S
C1219 O1231 1.272 . S
O1220 Sm1200 2.543 . S
O1220 C1202 1.261 . S
O1221 Sm1200 2.450 . S
O1221 C1202 1.242 . S
O1222 Sm1200 2.681 . S
O1222 Sm1201 2.386 . S
O1222 C1209 1.271 . S
O1223 Sm1200 2.464 . S
O1223 C1209 1.251 . S
O1224 Sm1200 2.396 . S
O1224 C1210 1.252 . S
O1225 Sm1201 2.408 . S
O1225 C1210 1.272 . S
O1226 Sm1201 2.543 . S
O1226 C1211 1.261 . S
O1227 Sm1201 2.450 . S
O1227 C1211 1.242 . S
O1228 Sm1200 2.386 . S
O1228 Sm1201 2.681 . S
O1228 C1218 1.271 . S
O1229 Sm1201 2.464 . S
O1229 C1218 1.251 . S
O1230 Sm1201 2.396 . S
O1230 C1219 1.252 . S
O1231 Sm1200 2.408 . S
O1231 C1219 1.272 . S
H1232 C1204 0.930 . S
H1233 C1205 0.929 . S
H1234 C1207 0.930 . S
H1235 C1208 0.929 . S
H1236 C1213 0.930 . S
H1237 C1214 0.929 . S
H1238 C1216 0.930 . S
H1239 C1217 0.929 . S
Sm1240 C1242 2.846 . S
Sm1240 O1260 2.543 . S
Sm1240 O1261 2.450 . S
Sm1240 O1262 2.681 . S
Sm1240 O1263 2.464 . S
Sm1240 O1264 2.396 . S
Sm1240 O1268 2.386 . S
Sm1240 O1271 2.408 . S
Sm1241 C1251 2.846 . S
Sm1241 O1262 2.386 . S
Sm1241 O1265 2.408 . S
Sm1241 O1266 2.543 . S
Sm1241 O1267 2.450 . S
Sm1241 O1268 2.681 . S
Sm1241 O1269 2.464 . S
Sm1241 O1270 2.396 . S
C1242 Sm1240 2.846 . S
C1242 C1243 1.506 . S
C1242 O1260 1.261 . S
C1242 O1261 1.242 . S
C1243 C1242 1.506 . S
C1243 C1244 1.358 . S
C1243 C1248 1.382 . S
C1244 C1243 1.358 . S
C1244 C1245 1.385 . S
C1244 H1272 0.930 . S
C1245 C1244 1.385 . S
C1245 C1246 1.395 . S
C1245 H1273 0.929 . S
C1246 C1245 1.395 . S
C1246 C1247 1.335 . S
C1247 C1246 1.335 . S
C1247 C1248 1.398 . S
C1247 H1274 0.930 . S
C1248 C1243 1.382 . S
C1248 C1247 1.398 . S
C1248 H1275 0.929 . S
C1249 O1262 1.271 . S
C1249 O1263 1.251 . S
C1250 O1264 1.252 . S
C1250 O1265 1.272 . S
C1251 Sm1241 2.846 . S
C1251 C1252 1.506 . S
C1251 O1266 1.261 . S
C1251 O1267 1.242 . S
C1252 C1251 1.506 . S
C1252 C1253 1.358 . S
C1252 C1257 1.382 . S
C1253 C1252 1.358 . S
C1253 C1254 1.385 . S
C1253 H1276 0.930 . S
C1254 C1253 1.385 . S
C1254 C1255 1.395 . S
C1254 H1277 0.929 . S
C1255 C1254 1.395 . S
C1255 C1256 1.335 . S
C1256 C1255 1.335 . S
C1256 C1257 1.398 . S
C1256 H1278 0.930 . S
C1257 C1252 1.382 . S
C1257 C1256 1.398 . S
C1257 H1279 0.929 . S
C1258 O1268 1.271 . S
C1258 O1269 1.251 . S
C1259 O1270 1.252 . S
C1259 O1271 1.272 . S
O1260 Sm1240 2.543 . S
O1260 C1242 1.261 . S
O1261 Sm1240 2.450 . S
O1261 C1242 1.242 . S
O1262 Sm1240 2.681 . S
O1262 Sm1241 2.386 . S
O1262 C1249 1.271 . S
O1263 Sm1240 2.464 . S
O1263 C1249 1.251 . S
O1264 Sm1240 2.396 . S
O1264 C1250 1.252 . S
O1265 Sm1241 2.408 . S
O1265 C1250 1.272 . S
O1266 Sm1241 2.543 . S
O1266 C1251 1.261 . S
O1267 Sm1241 2.450 . S
O1267 C1251 1.242 . S
O1268 Sm1240 2.386 . S
O1268 Sm1241 2.681 . S
O1268 C1258 1.271 . S
O1269 Sm1241 2.464 . S
O1269 C1258 1.251 . S
O1270 Sm1241 2.396 . S
O1270 C1259 1.252 . S
O1271 Sm1240 2.408 . S
O1271 C1259 1.272 . S
H1272 C1244 0.930 . S
H1273 C1245 0.929 . S
H1274 C1247 0.930 . S
H1275 C1248 0.929 . S
H1276 C1253 0.930 . S
H1277 C1254 0.929 . S
H1278 C1256 0.930 . S
H1279 C1257 0.929 . S
Sm1280 C1282 2.846 . S
Sm1280 O1300 2.543 . S
Sm1280 O1301 2.450 . S
Sm1280 O1302 2.681 . S
Sm1280 O1303 2.464 . S
Sm1280 O1304 2.396 . S
Sm1280 O1308 2.386 . S
Sm1280 O1311 2.408 . S
Sm1281 C1291 2.846 . S
Sm1281 O1302 2.386 . S
Sm1281 O1305 2.408 . S
Sm1281 O1306 2.543 . S
Sm1281 O1307 2.450 . S
Sm1281 O1308 2.681 . S
Sm1281 O1309 2.464 . S
Sm1281 O1310 2.396 . S
C1282 Sm1280 2.846 . S
C1282 C1283 1.506 . S
C1282 O1300 1.261 . S
C1282 O1301 1.242 . S
C1283 C1282 1.506 . S
C1283 C1284 1.358 . S
C1283 C1288 1.382 . S
C1284 C1283 1.358 . S
C1284 C1285 1.385 . S
C1284 H1312 0.930 . S
C1285 C1284 1.385 . S
C1285 C1286 1.395 . S
C1285 H1313 0.929 . S
C1286 C1285 1.395 . S
C1286 C1287 1.335 . S
C1287 C1286 1.335 . S
C1287 C1288 1.398 . S
C1287 H1314 0.930 . S
C1288 C1283 1.382 . S
C1288 C1287 1.398 . S
C1288 H1315 0.929 . S
C1289 O1302 1.271 . S
C1289 O1303 1.251 . S
C1290 O1304 1.252 . S
C1290 O1305 1.272 . S
C1291 Sm1281 2.846 . S
C1291 C1292 1.506 . S
C1291 O1306 1.261 . S
C1291 O1307 1.242 . S
C1292 C1291 1.506 . S
C1292 C1293 1.358 . S
C1292 C1297 1.382 . S
C1293 C1292 1.358 . S
C1293 C1294 1.385 . S
C1293 H1316 0.930 . S
C1294 C1293 1.385 . S
C1294 C1295 1.395 . S
C1294 H1317 0.929 . S
C1295 C1294 1.395 . S
C1295 C1296 1.335 . S
C1296 C1295 1.335 . S
C1296 C1297 1.398 . S
C1296 H1318 0.930 . S
C1297 C1292 1.382 . S
C1297 C1296 1.398 . S
C1297 H1319 0.929 . S
C1298 O1308 1.271 . S
C1298 O1309 1.251 . S
C1299 O1310 1.252 . S
C1299 O1311 1.272 . S
O1300 Sm1280 2.543 . S
O1300 C1282 1.261 . S
O1301 Sm1280 2.450 . S
O1301 C1282 1.242 . S
O1302 Sm1280 2.681 . S
O1302 Sm1281 2.386 . S
O1302 C1289 1.271 . S
O1303 Sm1280 2.464 . S
O1303 C1289 1.251 . S
O1304 Sm1280 2.396 . S
O1304 C1290 1.252 . S
O1305 Sm1281 2.408 . S
O1305 C1290 1.272 . S
O1306 Sm1281 2.543 . S
O1306 C1291 1.261 . S
O1307 Sm1281 2.450 . S
O1307 C1291 1.242 . S
O1308 Sm1280 2.386 . S
O1308 Sm1281 2.681 . S
O1308 C1298 1.271 . S
O1309 Sm1281 2.464 . S
O1309 C1298 1.251 . S
O1310 Sm1281 2.396 . S
O1310 C1299 1.252 . S
O1311 Sm1280 2.408 . S
O1311 C1299 1.272 . S
H1312 C1284 0.930 . S
H1313 C1285 0.929 . S
H1314 C1287 0.930 . S
H1315 C1288 0.929 . S
H1316 C1293 0.930 . S
H1317 C1294 0.929 . S
H1318 C1296 0.930 . S
H1319 C1297 0.929 . S
Sm1320 C1322 2.846 . S
Sm1320 O1340 2.543 . S
Sm1320 O1341 2.450 . S
Sm1320 O1342 2.681 . S
Sm1320 O1343 2.464 . S
Sm1320 O1344 2.396 . S
Sm1320 O1348 2.386 . S
Sm1320 O1351 2.408 . S
Sm1321 C1331 2.846 . S
Sm1321 O1342 2.386 . S
Sm1321 O1345 2.408 . S
Sm1321 O1346 2.543 . S
Sm1321 O1347 2.450 . S
Sm1321 O1348 2.681 . S
Sm1321 O1349 2.464 . S
Sm1321 O1350 2.396 . S
C1322 Sm1320 2.846 . S
C1322 C1323 1.506 . S
C1322 O1340 1.261 . S
C1322 O1341 1.242 . S
C1323 C1322 1.506 . S
C1323 C1324 1.358 . S
C1323 C1328 1.382 . S
C1324 C1323 1.358 . S
C1324 C1325 1.385 . S
C1324 H1352 0.930 . S
C1325 C1324 1.385 . S
C1325 C1326 1.395 . S
C1325 H1353 0.929 . S
C1326 C1325 1.395 . S
C1326 C1327 1.335 . S
C1327 C1326 1.335 . S
C1327 C1328 1.398 . S
C1327 H1354 0.930 . S
C1328 C1323 1.382 . S
C1328 C1327 1.398 . S
C1328 H1355 0.929 . S
C1329 O1342 1.271 . S
C1329 O1343 1.251 . S
C1330 O1344 1.252 . S
C1330 O1345 1.272 . S
C1331 Sm1321 2.846 . S
C1331 C1332 1.506 . S
C1331 O1346 1.261 . S
C1331 O1347 1.242 . S
C1332 C1331 1.506 . S
C1332 C1333 1.358 . S
C1332 C1337 1.382 . S
C1333 C1332 1.358 . S
C1333 C1334 1.385 . S
C1333 H1356 0.930 . S
C1334 C1333 1.385 . S
C1334 C1335 1.395 . S
C1334 H1357 0.929 1_455 S
C1335 C1334 1.395 . S
C1335 C1336 1.335 . S
C1336 C1335 1.335 . S
C1336 C1337 1.398 . S
C1336 H1358 0.930 . S
C1337 C1332 1.382 . S
C1337 C1336 1.398 . S
C1337 H1359 0.929 . S
C1338 O1348 1.271 . S
C1338 O1349 1.251 . S
C1339 O1350 1.252 . S
C1339 O1351 1.272 . S
O1340 Sm1320 2.543 . S
O1340 C1322 1.261 . S
O1341 Sm1320 2.450 . S
O1341 C1322 1.242 . S
O1342 Sm1320 2.681 . S
O1342 Sm1321 2.386 . S
O1342 C1329 1.271 . S
O1343 Sm1320 2.464 . S
O1343 C1329 1.251 . S
O1344 Sm1320 2.396 . S
O1344 C1330 1.252 . S
O1345 Sm1321 2.408 . S
O1345 C1330 1.272 . S
O1346 Sm1321 2.543 . S
O1346 C1331 1.261 . S
O1347 Sm1321 2.450 . S
O1347 C1331 1.242 . S
O1348 Sm1320 2.386 . S
O1348 Sm1321 2.681 . S
O1348 C1338 1.271 . S
O1349 Sm1321 2.464 . S
O1349 C1338 1.251 . S
O1350 Sm1321 2.396 . S
O1350 C1339 1.252 . S
O1351 Sm1320 2.408 . S
O1351 C1339 1.272 . S
H1352 C1324 0.930 . S
H1353 C1325 0.929 . S
H1354 C1327 0.930 . S
H1355 C1328 0.929 . S
H1356 C1333 0.930 . S
H1357 C1334 0.929 1_655 S
H1358 C1336 0.930 . S
H1359 C1337 0.929 . S
Sm1360 C1362 2.846 . S
Sm1360 O1380 2.543 . S
Sm1360 O1381 2.450 . S
Sm1360 O1382 2.681 . S
Sm1360 O1383 2.464 . S
Sm1360 O1384 2.396 . S
Sm1360 O1388 2.386 . S
Sm1360 O1391 2.408 . S
Sm1361 C1371 2.846 . S
Sm1361 O1382 2.386 . S
Sm1361 O1385 2.408 . S
Sm1361 O1386 2.543 . S
Sm1361 O1387 2.450 . S
Sm1361 O1388 2.681 . S
Sm1361 O1389 2.464 . S
Sm1361 O1390 2.396 . S
C1362 Sm1360 2.846 . S
C1362 C1363 1.506 . S
C1362 O1380 1.261 . S
C1362 O1381 1.242 . S
C1363 C1362 1.506 . S
C1363 C1364 1.358 . S
C1363 C1368 1.382 . S
C1364 C1363 1.358 . S
C1364 C1365 1.385 . S
C1364 H1392 0.930 . S
C1365 C1364 1.385 . S
C1365 C1366 1.395 . S
C1365 H1393 0.929 . S
C1366 C1365 1.395 . S
C1366 C1367 1.335 . S
C1367 C1366 1.335 . S
C1367 C1368 1.398 . S
C1367 H1394 0.930 . S
C1368 C1363 1.382 . S
C1368 C1367 1.398 . S
C1368 H1395 0.929 . S
C1369 O1382 1.271 . S
C1369 O1383 1.251 . S
C1370 O1384 1.252 . S
C1370 O1385 1.272 . S
C1371 Sm1361 2.846 . S
C1371 C1372 1.506 . S
C1371 O1386 1.261 . S
C1371 O1387 1.242 . S
C1372 C1371 1.506 . S
C1372 C1373 1.358 . S
C1372 C1377 1.382 . S
C1373 C1372 1.358 . S
C1373 C1374 1.385 . S
C1373 H1396 0.930 . S
C1374 C1373 1.385 . S
C1374 C1375 1.395 . S
C1374 H1397 0.929 . S
C1375 C1374 1.395 . S
C1375 C1376 1.335 . S
C1376 C1375 1.335 . S
C1376 C1377 1.398 . S
C1376 H1398 0.930 . S
C1377 C1372 1.382 . S
C1377 C1376 1.398 . S
C1377 H1399 0.929 . S
C1378 O1388 1.271 . S
C1378 O1389 1.251 . S
C1379 O1390 1.252 . S
C1379 O1391 1.272 . S
O1380 Sm1360 2.543 . S
O1380 C1362 1.261 . S
O1381 Sm1360 2.450 . S
O1381 C1362 1.242 . S
O1382 Sm1360 2.681 . S
O1382 Sm1361 2.386 . S
O1382 C1369 1.271 . S
O1383 Sm1360 2.464 . S
O1383 C1369 1.251 . S
O1384 Sm1360 2.396 . S
O1384 C1370 1.252 . S
O1385 Sm1361 2.408 . S
O1385 C1370 1.272 . S
O1386 Sm1361 2.543 . S
O1386 C1371 1.261 . S
O1387 Sm1361 2.450 . S
O1387 C1371 1.242 . S
O1388 Sm1360 2.386 . S
O1388 Sm1361 2.681 . S
O1388 C1378 1.271 . S
O1389 Sm1361 2.464 . S
O1389 C1378 1.251 . S
O1390 Sm1361 2.396 . S
O1390 C1379 1.252 . S
O1391 Sm1360 2.408 . S
O1391 C1379 1.272 . S
H1392 C1364 0.930 . S
H1393 C1365 0.929 . S
H1394 C1367 0.930 . S
H1395 C1368 0.929 . S
H1396 C1373 0.930 . S
H1397 C1374 0.929 . S
H1398 C1376 0.930 . S
H1399 C1377 0.929 . S
Sm1400 C1402 2.846 . S
Sm1400 O1420 2.543 . S
Sm1400 O1421 2.450 . S
Sm1400 O1422 2.681 . S
Sm1400 O1423 2.464 . S
Sm1400 O1424 2.396 . S
Sm1400 O1428 2.386 . S
Sm1400 O1431 2.408 . S
Sm1401 C1411 2.846 . S
Sm1401 O1422 2.386 . S
Sm1401 O1425 2.408 . S
Sm1401 O1426 2.543 . S
Sm1401 O1427 2.450 . S
Sm1401 O1428 2.681 . S
Sm1401 O1429 2.464 . S
Sm1401 O1430 2.396 . S
C1402 Sm1400 2.846 . S
C1402 C1403 1.506 . S
C1402 O1420 1.261 . S
C1402 O1421 1.242 . S
C1403 C1402 1.506 . S
C1403 C1404 1.358 . S
C1403 C1408 1.382 . S
C1404 C1403 1.358 . S
C1404 C1405 1.385 . S
C1404 H1432 0.930 . S
C1405 C1404 1.385 . S
C1405 C1406 1.395 . S
C1405 H1433 0.929 . S
C1406 C1405 1.395 . S
C1406 C1407 1.335 . S
C1407 C1406 1.335 . S
C1407 C1408 1.398 . S
C1407 H1434 0.930 . S
C1408 C1403 1.382 . S
C1408 C1407 1.398 . S
C1408 H1435 0.929 . S
C1409 O1422 1.271 . S
C1409 O1423 1.251 . S
C1410 O1424 1.252 . S
C1410 O1425 1.272 . S
C1411 Sm1401 2.846 . S
C1411 C1412 1.506 . S
C1411 O1426 1.261 . S
C1411 O1427 1.242 . S
C1412 C1411 1.506 . S
C1412 C1413 1.358 . S
C1412 C1417 1.382 . S
C1413 C1412 1.358 . S
C1413 C1414 1.385 . S
C1413 H1436 0.930 . S
C1414 C1413 1.385 . S
C1414 C1415 1.395 . S
C1414 H1437 0.929 1_565 S
C1415 C1414 1.395 . S
C1415 C1416 1.335 . S
C1416 C1415 1.335 . S
C1416 C1417 1.398 . S
C1416 H1438 0.930 . S
C1417 C1412 1.382 . S
C1417 C1416 1.398 . S
C1417 H1439 0.929 . S
C1418 O1428 1.271 . S
C1418 O1429 1.251 . S
C1419 O1430 1.252 . S
C1419 O1431 1.272 . S
O1420 Sm1400 2.543 . S
O1420 C1402 1.261 . S
O1421 Sm1400 2.450 . S
O1421 C1402 1.242 . S
O1422 Sm1400 2.681 . S
O1422 Sm1401 2.386 . S
O1422 C1409 1.271 . S
O1423 Sm1400 2.464 . S
O1423 C1409 1.251 . S
O1424 Sm1400 2.396 . S
O1424 C1410 1.252 . S
O1425 Sm1401 2.408 . S
O1425 C1410 1.272 . S
O1426 Sm1401 2.543 . S
O1426 C1411 1.261 . S
O1427 Sm1401 2.450 . S
O1427 C1411 1.242 . S
O1428 Sm1400 2.386 . S
O1428 Sm1401 2.681 . S
O1428 C1418 1.271 . S
O1429 Sm1401 2.464 . S
O1429 C1418 1.251 . S
O1430 Sm1401 2.396 . S
O1430 C1419 1.252 . S
O1431 Sm1400 2.408 . S
O1431 C1419 1.272 . S
H1432 C1404 0.930 . S
H1433 C1405 0.929 . S
H1434 C1407 0.930 . S
H1435 C1408 0.929 . S
H1436 C1413 0.930 . S
H1437 C1414 0.929 1_545 S
H1438 C1416 0.930 . S
H1439 C1417 0.929 . S
C1440 C1441 1.349 . S
C1440 C1442 1.327 . S
C1440 H1465 0.950 . S
C1441 C1440 1.349 . S
C1441 C1457 1.349 . S
C1442 C1440 1.327 . S
C1442 C1461 1.429 . S
C1442 H1466 0.950 . S
C1443 C1460 1.574 . S
C1443 C1462 1.368 . S
C1443 H1467 0.949 . S
H1444 C1448 0.949 . S
C1445 C1446 1.349 . S
C1445 C1447 1.327 . S
C1445 H1468 0.950 . S
C1446 C1445 1.349 . S
C1446 C1458 1.349 . S
C1447 C1445 1.327 . S
C1447 C1463 1.429 1_565 S
C1447 H1469 0.950 1_565 S
C1448 H1444 0.949 . S
C1448 C1456 1.574 . S
C1448 C1464 1.368 . S
H1449 C1457 0.950 . S
H1450 C1455 0.950 . S
H1451 C1456 0.949 . S
H1452 C1458 0.950 . S
H1453 C1459 0.950 . S
H1454 C1460 0.949 . S
C1455 H1450 0.950 . S
C1455 C1457 1.327 . S
C1455 C1461 1.429 . S
C1456 C1448 1.574 . S
C1456 H1451 0.949 . S
C1456 C1462 1.368 . S
C1457 C1441 1.349 . S
C1457 H1449 0.950 . S
C1457 C1455 1.327 . S
C1458 C1446 1.349 . S
C1458 H1452 0.950 . S
C1458 C1459 1.327 . S
C1459 H1453 0.950 . S
C1459 C1458 1.327 . S
C1459 C1463 1.429 1_565 S
C1460 C1443 1.574 . S
C1460 H1454 0.949 . S
C1460 C1464 1.368 . S
C1461 C1442 1.429 . S
C1461 C1455 1.429 . S
C1461 C1462 1.523 . S
C1462 C1443 1.368 . S
C1462 C1456 1.368 . S
C1462 C1461 1.523 . S
C1463 C1447 1.429 1_545 S
C1463 C1459 1.429 1_545 S
C1463 C1464 1.523 . S
C1464 C1448 1.368 . S
C1464 C1460 1.368 . S
C1464 C1463 1.523 . S
H1465 C1440 0.950 . S
H1466 C1442 0.950 . S
H1467 C1443 0.949 . S
H1468 C1445 0.950 . S
H1469 C1447 0.950 1_545 S
C1470 C1471 1.349 . S
C1470 C1472 1.327 . S
C1470 H1495 0.950 . S
C1471 C1470 1.349 . S
C1471 C1487 1.349 . S
C1472 C1470 1.327 . S
C1472 C1491 1.429 1_455 S
C1472 H1496 0.950 . S
C1473 C1490 1.574 . S
C1473 C1492 1.368 . S
C1473 H1497 0.949 . S
H1474 C1478 0.949 . S
C1475 C1476 1.349 . S
C1475 C1477 1.327 1_565 S
C1475 H1498 0.950 . S
C1476 C1475 1.349 . S
C1476 C1488 1.349 . S
C1477 C1475 1.327 1_545 S
C1477 C1493 1.429 . S
C1477 H1499 0.950 . S
C1478 H1474 0.949 . S
C1478 C1486 1.574 . S
C1478 C1494 1.368 . S
H1479 C1487 0.950 . S
H1480 C1485 0.950 1_655 S
H1481 C1486 0.949 . S
H1482 C1488 0.950 . S
H1483 C1489 0.950 . S
H1484 C1490 0.949 . S
C1485 H1480 0.950 1_455 S
C1485 C1487 1.327 . S
C1485 C1491 1.429 1_455 S
C1486 C1478 1.574 . S
C1486 H1481 0.949 . S
C1486 C1492 1.368 . S
C1487 C1471 1.349 . S
C1487 H1479 0.950 . S
C1487 C1485 1.327 . S
C1488 C1476 1.349 . S
C1488 H1482 0.950 . S
C1488 C1489 1.327 1_565 S
C1489 H1483 0.950 . S
C1489 C1488 1.327 1_545 S
C1489 C1493 1.429 . S
C1490 C1473 1.574 . S
C1490 H1484 0.949 . S
C1490 C1494 1.368 . S
C1491 C1472 1.429 1_655 S
C1491 C1485 1.429 1_655 S
C1491 C1492 1.523 . S
C1492 C1473 1.368 . S
C1492 C1486 1.368 . S
C1492 C1491 1.523 . S
C1493 C1477 1.429 . S
C1493 C1489 1.429 . S
C1493 C1494 1.523 . S
C1494 C1478 1.368 . S
C1494 C1490 1.368 . S
C1494 C1493 1.523 . S
H1495 C1470 0.950 . S
H1496 C1472 0.950 . S
H1497 C1473 0.949 . S
H1498 C1475 0.950 . S
H1499 C1477 0.950 . S
C1500 C1501 1.349 . S
C1500 C1502 1.327 1_455 S
C1500 H1525 0.950 . S
C1501 C1500 1.349 . S
C1501 C1517 1.349 . S
C1502 C1500 1.327 1_655 S
C1502 C1521 1.429 . S
C1502 H1526 0.950 . S
C1503 C1520 1.574 . S
C1503 C1522 1.368 . S
C1503 H1527 0.949 . S
H1504 C1508 0.949 . S
C1505 C1506 1.349 . S
C1505 C1507 1.327 . S
C1505 H1528 0.950 . S
C1506 C1505 1.349 . S
C1506 C1518 1.349 . S
C1507 C1505 1.327 . S
C1507 C1523 1.429 . S
C1507 H1529 0.950 . S
C1508 H1504 0.949 . S
C1508 C1516 1.574 . S
C1508 C1524 1.368 . S
H1509 C1517 0.950 . S
H1510 C1515 0.950 . S
H1511 C1516 0.949 . S
H1512 C1518 0.950 . S
H1513 C1519 0.950 . S
H1514 C1520 0.949 . S
C1515 H1510 0.950 . S
C1515 C1517 1.327 1_655 S
C1515 C1521 1.429 . S
C1516 C1508 1.574 . S
C1516 H1511 0.949 . S
C1516 C1522 1.368 . S
C1517 C1501 1.349 . S
C1517 H1509 0.950 . S
C1517 C1515 1.327 1_455 S
C1518 C1506 1.349 . S
C1518 H1512 0.950 . S
C1518 C1519 1.327 . S
C1519 H1513 0.950 . S
C1519 C1518 1.327 . S
C1519 C1523 1.429 . S
C1520 C1503 1.574 . S
C1520 H1514 0.949 . S
C1520 C1524 1.368 . S
C1521 C1502 1.429 . S
C1521 C1515 1.429 . S
C1521 C1522 1.523 . S
C1522 C1503 1.368 . S
C1522 C1516 1.368 . S
C1522 C1521 1.523 . S
C1523 C1507 1.429 . S
C1523 C1519 1.429 . S
C1523 C1524 1.523 . S
C1524 C1508 1.368 . S
C1524 C1520 1.368 . S
C1524 C1523 1.523 . S
H1525 C1500 0.950 . S
H1526 C1502 0.950 . S
H1527 C1503 0.949 . S
H1528 C1505 0.950 . S
H1529 C1507 0.950 . S
C1530 C1531 1.349 . S
C1530 C1532 1.327 . S
C1530 H1555 0.950 . S
C1531 C1530 1.349 . S
C1531 C1547 1.349 . S
C1532 C1530 1.327 . S
C1532 C1551 1.429 . S
C1532 H1556 0.950 . S
C1533 C1550 1.574 . S
C1533 C1552 1.368 . S
C1533 H1557 0.949 . S
H1534 C1538 0.949 . S
C1535 C1536 1.349 . S
C1535 C1537 1.327 . S
C1535 H1558 0.950 . S
C1536 C1535 1.349 . S
C1536 C1548 1.349 . S
C1537 C1535 1.327 . S
C1537 C1553 1.429 1_655 S
C1537 H1559 0.950 . S
C1538 H1534 0.949 . S
C1538 C1546 1.574 . S
C1538 C1554 1.368 . S
H1539 C1547 0.950 . S
H1540 C1545 0.950 . S
H1541 C1546 0.949 . S
H1542 C1548 0.950 . S
H1543 C1549 0.950 1_455 S
H1544 C1550 0.949 . S
C1545 H1540 0.950 . S
C1545 C1547 1.327 . S
C1545 C1551 1.429 . S
C1546 C1538 1.574 . S
C1546 H1541 0.949 . S
C1546 C1552 1.368 . S
C1547 C1531 1.349 . S
C1547 H1539 0.950 . S
C1547 C1545 1.327 . S
C1548 C1536 1.349 . S
C1548 H1542 0.950 . S
C1548 C1549 1.327 . S
C1549 H1543 0.950 1_655 S
C1549 C1548 1.327 . S
C1549 C1553 1.429 1_655 S
C1550 C1533 1.574 . S
C1550 H1544 0.949 . S
C1550 C1554 1.368 . S
C1551 C1532 1.429 . S
C1551 C1545 1.429 . S
C1551 C1552 1.523 . S
C1552 C1533 1.368 . S
C1552 C1546 1.368 . S
C1552 C1551 1.523 . S
C1553 C1537 1.429 1_455 S
C1553 C1549 1.429 1_455 S
C1553 C1554 1.523 . S
C1554 C1538 1.368 . S
C1554 C1550 1.368 . S
C1554 C1553 1.523 . S
H1555 C1530 0.950 . S
H1556 C1532 0.950 . S
H1557 C1533 0.949 . S
H1558 C1535 0.950 . S
H1559 C1537 0.950 . S
C1560 C1561 1.349 . S
C1560 C1562 1.327 . S
C1560 H1585 0.950 . S
C1561 C1560 1.349 . S
C1561 C1577 1.349 . S
C1562 C1560 1.327 . S
C1562 C1581 1.429 . S
C1562 H1586 0.950 . S
C1563 C1580 1.574 . S
C1563 C1582 1.368 . S
C1563 H1587 0.949 . S
H1564 C1568 0.949 . S
C1565 C1566 1.349 . S
C1565 C1567 1.327 1_545 S
C1565 H1588 0.950 . S
C1566 C1565 1.349 . S
C1566 C1578 1.349 . S
C1567 C1565 1.327 1_565 S
C1567 C1583 1.429 . S
C1567 H1589 0.950 . S
C1568 H1564 0.949 . S
C1568 C1576 1.574 . S
C1568 C1584 1.368 . S
H1569 C1577 0.950 . S
H1570 C1575 0.950 . S
H1571 C1576 0.949 . S
H1572 C1578 0.950 . S
H1573 C1579 0.950 . S
H1574 C1580 0.949 . S
C1575 H1570 0.950 . S
C1575 C1577 1.327 . S
C1575 C1581 1.429 . S
C1576 C1568 1.574 . S
C1576 H1571 0.949 . S
C1576 C1582 1.368 . S
C1577 C1561 1.349 . S
C1577 H1569 0.950 . S
C1577 C1575 1.327 . S
C1578 C1566 1.349 . S
C1578 H1572 0.950 . S
C1578 C1579 1.327 1_545 S
C1579 H1573 0.950 . S
C1579 C1578 1.327 1_565 S
C1579 C1583 1.429 . S
C1580 C1563 1.574 . S
C1580 H1574 0.949 . S
C1580 C1584 1.368 . S
C1581 C1562 1.429 . S
C1581 C1575 1.429 . S
C1581 C1582 1.523 . S
C1582 C1563 1.368 . S
C1582 C1576 1.368 . S
C1582 C1581 1.523 . S
C1583 C1567 1.429 . S
C1583 C1579 1.429 . S
C1583 C1584 1.523 . S
C1584 C1568 1.368 . S
C1584 C1580 1.368 . S
C1584 C1583 1.523 . S
H1585 C1560 0.950 . S
H1586 C1562 0.950 . S
H1587 C1563 0.949 . S
H1588 C1565 0.950 . S
H1589 C1567 0.950 . S
C1590 C1591 1.349 . S
C1590 C1592 1.327 1_655 S
C1590 H1615 0.950 . S
C1591 C1590 1.349 . S
C1591 C1607 1.349 . S
C1592 C1590 1.327 1_455 S
C1592 C1611 1.429 . S
C1592 H1616 0.950 . S
C1593 C1610 1.574 . S
C1593 C1612 1.368 . S
C1593 H1617 0.949 . S
H1594 C1598 0.949 . S
C1595 C1596 1.349 . S
C1595 C1597 1.327 . S
C1595 H1618 0.950 . S
C1596 C1595 1.349 . S
C1596 C1608 1.349 . S
C1597 C1595 1.327 . S
C1597 C1613 1.429 1_545 S
C1597 H1619 0.950 1_545 S
C1598 H1594 0.949 . S
C1598 C1606 1.574 . S
C1598 C1614 1.368 . S
H1599 C1607 0.950 . S
H1600 C1605 0.950 . S
H1601 C1606 0.949 . S
H1602 C1608 0.950 . S
H1603 C1609 0.950 . S
H1604 C1610 0.949 . S
C1605 H1600 0.950 . S
C1605 C1607 1.327 1_455 S
C1605 C1611 1.429 . S
C1606 C1598 1.574 . S
C1606 H1601 0.949 . S
C1606 C1612 1.368 . S
C1607 C1591 1.349 . S
C1607 H1599 0.950 . S
C1607 C1605 1.327 1_655 S
C1608 C1596 1.349 . S
C1608 H1602 0.950 . S
C1608 C1609 1.327 . S
C1609 H1603 0.950 . S
C1609 C1608 1.327 . S
C1609 C1613 1.429 1_545 S
C1610 C1593 1.574 . S
C1610 H1604 0.949 . S
C1610 C1614 1.368 . S
C1611 C1592 1.429 . S
C1611 C1605 1.429 . S
C1611 C1612 1.523 . S
C1612 C1593 1.368 . S
C1612 C1606 1.368 . S
C1612 C1611 1.523 . S
C1613 C1597 1.429 1_565 S
C1613 C1609 1.429 1_565 S
C1613 C1614 1.523 . S
C1614 C1598 1.368 . S
C1614 C1610 1.368 . S
C1614 C1613 1.523 . S
H1615 C1590 0.950 . S
H1616 C1592 0.950 . S
H1617 C1593 0.949 . S
H1618 C1595 0.950 . S
H1619 C1597 0.950 1_565 S
C1620 C1621 1.349 . S
C1620 C1622 1.327 . S
C1620 H1645 0.950 . S
C1621 C1620 1.349 . S
C1621 C1637 1.349 . S
C1622 C1620 1.327 . S
C1622 C1641 1.429 . S
C1622 H1646 0.950 . S
C1623 C1640 1.574 . S
C1623 C1642 1.368 . S
C1623 H1647 0.949 . S
H1624 C1628 0.949 . S
C1625 C1626 1.349 . S
C1625 C1627 1.327 1_545 S
C1625 H1648 0.950 . S
C1626 C1625 1.349 . S
C1626 C1638 1.349 . S
C1627 C1625 1.327 1_565 S
C1627 C1643 1.429 . S
C1627 H1649 0.950 . S
C1628 H1624 0.949 . S
C1628 C1636 1.574 . S
C1628 C1644 1.368 . S
H1629 C1637 0.950 . S
H1630 C1635 0.950 . S
H1631 C1636 0.949 . S
H1632 C1638 0.950 . S
H1633 C1639 0.950 . S
H1634 C1640 0.949 . S
C1635 H1630 0.950 . S
C1635 C1637 1.327 . S
C1635 C1641 1.429 . S
C1636 C1628 1.574 . S
C1636 H1631 0.949 . S
C1636 C1642 1.368 . S
C1637 C1621 1.349 . S
C1637 H1629 0.950 . S
C1637 C1635 1.327 . S
C1638 C1626 1.349 . S
C1638 H1632 0.950 . S
C1638 C1639 1.327 . S
C1639 H1633 0.950 . S
C1639 C1638 1.327 . S
C1639 C1643 1.429 1_545 S
C1640 C1623 1.574 . S
C1640 H1634 0.949 . S
C1640 C1644 1.368 . S
C1641 C1622 1.429 . S
C1641 C1635 1.429 . S
C1641 C1642 1.523 . S
C1642 C1623 1.368 . S
C1642 C1636 1.368 . S
C1642 C1641 1.523 . S
C1643 C1627 1.429 . S
C1643 C1639 1.429 1_565 S
C1643 C1644 1.523 . S
C1644 C1628 1.368 . S
C1644 C1640 1.368 . S
C1644 C1643 1.523 . S
H1645 C1620 0.950 . S
H1646 C1622 0.950 . S
H1647 C1623 0.949 . S
H1648 C1625 0.950 . S
H1649 C1627 0.950 . S
C1650 C1651 1.349 . S
C1650 C1652 1.327 1_545 S
C1650 H1675 0.950 . S
C1651 C1650 1.349 . S
C1651 C1667 1.349 . S
C1652 C1650 1.327 1_565 S
C1652 C1671 1.429 . S
C1652 H1676 0.950 . S
C1653 C1670 1.574 . S
C1653 C1672 1.368 . S
C1653 H1677 0.949 . S
H1654 C1658 0.949 . S
C1655 C1656 1.349 . S
C1655 C1657 1.350 . S
C1655 H1678 0.950 . S
C1656 C1655 1.349 . S
C1656 C1668 1.349 . S
C1657 C1655 1.350 . S
C1657 C1673 1.433 1_655 S
C1657 H1679 0.923 1_655 S
C1658 H1654 0.949 . S
C1658 C1666 1.574 . S
C1658 C1674 1.368 . S
H1659 C1667 0.950 . S
H1660 C1665 0.950 . S
H1661 C1666 0.949 . S
H1662 C1668 0.950 . S
H1663 C1669 0.950 . S
H1664 C1670 0.949 . S
C1665 H1660 0.950 . S
C1665 C1667 1.327 1_565 S
C1665 C1671 1.429 . S
C1666 C1658 1.574 . S
C1666 H1661 0.949 . S
C1666 C1672 1.368 . S
C1667 C1651 1.349 . S
C1667 H1659 0.950 . S
C1667 C1665 1.327 1_545 S
C1668 C1656 1.349 . S
C1668 H1662 0.950 . S
C1668 C1669 1.327 . S
C1669 H1663 0.950 . S
C1669 C1668 1.327 . S
C1669 C1673 1.429 1_655 S
C1670 C1653 1.574 . S
C1670 H1664 0.949 . S
C1670 C1674 1.368 . S
C1671 C1652 1.429 . S
C1671 C1665 1.429 . S
C1671 C1672 1.523 . S
C1672 C1653 1.368 . S
C1672 C1666 1.368 . S
C1672 C1671 1.523 . S
C1673 C1657 1.433 1_455 S
C1673 C1669 1.429 1_455 S
C1673 C1674 1.523 . S
C1674 C1658 1.368 . S
C1674 C1670 1.368 . S
C1674 C1673 1.523 . S
H1675 C1650 0.950 . S
H1676 C1652 0.950 . S
H1677 C1653 0.949 . S
H1678 C1655 0.950 . S
H1679 C1657 0.923 1_455 S
C1680 C1681 1.349 . S
C1680 C1682 1.327 1_655 S
C1680 H1705 0.950 . S
C1681 C1680 1.349 . S
C1681 C1697 1.349 1_655 S
C1682 C1680 1.327 1_455 S
C1682 C1701 1.429 . S
C1682 H1706 0.937 . S
C1683 C1700 1.574 . S
C1683 C1702 1.368 . S
C1683 H1707 0.949 . S
H1684 C1688 0.949 . S
C1685 C1686 1.349 . S
C1685 C1687 1.327 . S
C1685 H1708 0.950 . S
C1686 C1685 1.349 . S
C1686 C1698 1.349 . S
C1687 C1685 1.327 . S
C1687 C1703 1.429 . S
C1687 H1709 0.950 . S
C1688 H1684 0.949 . S
C1688 C1696 1.574 . S
C1688 C1704 1.368 . S
H1689 C1697 0.971 . S
H1690 C1695 0.950 . S
H1691 C1696 0.949 . S
H1692 C1698 0.950 . S
H1693 C1699 0.950 . S
H1694 C1700 0.949 . S
C1695 H1690 0.950 . S
C1695 C1697 1.327 . S
C1695 C1701 1.429 . S
C1696 C1688 1.574 . S
C1696 H1691 0.949 . S
C1696 C1702 1.368 . S
C1697 C1681 1.349 1_455 S
C1697 H1689 0.971 . S
C1697 C1695 1.327 . S
C1698 C1686 1.349 . S
C1698 H1692 0.950 . S
C1698 C1699 1.327 . S
C1699 H1693 0.950 . S
C1699 C1698 1.327 . S
C1699 C1703 1.429 . S
C1700 C1683 1.574 . S
C1700 H1694 0.949 . S
C1700 C1704 1.368 . S
C1701 C1682 1.429 . S
C1701 C1695 1.429 . S
C1701 C1702 1.523 . S
C1702 C1683 1.368 . S
C1702 C1696 1.368 . S
C1702 C1701 1.523 . S
C1703 C1687 1.429 . S
C1703 C1699 1.429 . S
C1703 C1704 1.523 . S
C1704 C1688 1.368 . S
C1704 C1700 1.368 . S
C1704 C1703 1.523 . S
H1705 C1680 0.950 . S
H1706 C1682 0.937 . S
H1707 C1683 0.949 . S
H1708 C1685 0.950 . S
H1709 C1687 0.950 . S
C1710 C1711 1.349 . S
C1710 C1712 1.327 . S
C1710 H1735 0.950 . S
C1711 C1710 1.349 . S
C1711 C1727 1.349 . S
C1712 C1710 1.327 . S
C1712 C1731 1.429 . S
C1712 H1736 0.950 . S
C1713 C1730 1.574 . S
C1713 C1732 1.368 . S
C1713 H1737 0.949 . S
H1714 C1718 0.949 . S
C1715 C1716 1.349 . S
C1715 C1717 1.327 . S
C1715 H1738 0.950 . S
C1716 C1715 1.349 . S
C1716 C1728 1.349 . S
C1717 C1715 1.327 . S
C1717 C1733 1.429 1_455 S
C1717 H1739 0.950 1_455 S
C1718 H1714 0.949 . S
C1718 C1726 1.574 . S
C1718 C1734 1.368 . S
H1719 C1727 0.950 . S
H1720 C1725 0.950 . S
H1721 C1726 0.949 . S
H1722 C1728 0.950 . S
H1723 C1729 0.950 . S
H1724 C1730 0.949 . S
C1725 H1720 0.950 . S
C1725 C1727 1.327 . S
C1725 C1731 1.429 . S
C1726 C1718 1.574 . S
C1726 H1721 0.949 . S
C1726 C1732 1.368 . S
C1727 C1711 1.349 . S
C1727 H1719 0.950 . S
C1727 C1725 1.327 . S
C1728 C1716 1.349 . S
C1728 H1722 0.950 . S
C1728 C1729 1.327 . S
C1729 H1723 0.950 . S
C1729 C1728 1.327 . S
C1729 C1733 1.429 1_455 S
C1730 C1713 1.574 . S
C1730 H1724 0.949 . S
C1730 C1734 1.368 . S
C1731 C1712 1.429 . S
C1731 C1725 1.429 . S
C1731 C1732 1.523 . S
C1732 C1713 1.368 . S
C1732 C1726 1.368 . S
C1732 C1731 1.523 . S
C1733 C1717 1.429 1_655 S
C1733 C1729 1.429 1_655 S
C1733 C1734 1.523 . S
C1734 C1718 1.368 . S
C1734 C1730 1.368 . S
C1734 C1733 1.523 . S
H1735 C1710 0.950 . S
H1736 C1712 0.950 . S
H1737 C1713 0.949 . S
H1738 C1715 0.950 . S
H1739 C1717 0.950 1_655 S
C1740 C1741 1.349 . S
C1740 C1742 1.327 . S
C1740 H1765 0.950 . S
C1741 C1740 1.349 . S
C1741 C1757 1.349 . S
C1742 C1740 1.327 . S
C1742 C1761 1.429 . S
C1742 H1766 0.950 . S
C1743 C1760 1.574 . S
C1743 C1762 1.368 . S
C1743 H1767 0.949 . S
H1744 C1748 0.949 . S
C1745 C1746 1.349 . S
C1745 C1747 1.327 1_565 S
C1745 H1768 0.950 . S
C1746 C1745 1.349 . S
C1746 C1758 1.347 1_565 S
C1747 C1745 1.327 1_545 S
C1747 C1763 1.429 . S
C1747 H1769 0.950 . S
C1748 H1744 0.949 . S
C1748 C1756 1.574 . S
C1748 C1764 1.368 . S
H1749 C1757 0.950 . S
H1750 C1755 0.950 . S
H1751 C1756 0.949 . S
H1752 C1758 0.948 1_565 S
H1753 C1759 0.950 . S
H1754 C1760 0.949 . S
C1755 H1750 0.950 . S
C1755 C1757 1.327 . S
C1755 C1761 1.429 . S
C1756 C1748 1.574 . S
C1756 H1751 0.949 . S
C1756 C1762 1.368 . S
C1757 C1741 1.349 . S
C1757 H1749 0.950 . S
C1757 C1755 1.327 . S
C1758 C1746 1.347 1_545 S
C1758 H1752 0.948 1_545 S
C1758 C1759 1.330 . S
C1759 H1753 0.950 . S
C1759 C1758 1.330 . S
C1759 C1763 1.429 . S
C1760 C1743 1.574 . S
C1760 H1754 0.949 . S
C1760 C1764 1.368 . S
C1761 C1742 1.429 . S
C1761 C1755 1.429 . S
C1761 C1762 1.523 . S
C1762 C1743 1.368 . S
C1762 C1756 1.368 . S
C1762 C1761 1.523 . S
C1763 C1747 1.429 . S
C1763 C1759 1.429 . S
C1763 C1764 1.523 . S
C1764 C1748 1.368 . S
C1764 C1760 1.368 . S
C1764 C1763 1.523 . S
H1765 C1740 0.950 . S
H1766 C1742 0.950 . S
H1767 C1743 0.949 . S
H1768 C1745 0.950 . S
H1769 C1747 0.950 . S
C1770 C1771 1.349 . S
C1770 C1772 1.327 . S
C1770 H1795 0.950 . S
C1771 C1770 1.349 . S
C1771 C1787 1.349 . S
C1772 C1770 1.327 . S
C1772 C1791 1.429 1_565 S
C1772 H1796 0.950 . S
C1773 C1790 1.574 . S
C1773 C1792 1.368 . S
C1773 H1797 0.949 . S
H1774 C1778 0.949 . S
C1775 C1776 1.347 . S
C1775 C1777 1.328 1_455 S
C1775 H1798 0.950 . S
C1776 C1775 1.347 . S
C1776 C1788 1.349 . S
C1777 C1775 1.328 1_655 S
C1777 C1793 1.429 . S
C1777 H1799 0.950 . S
C1778 H1774 0.949 . S
C1778 C1786 1.574 . S
C1778 C1794 1.368 . S
H1779 C1787 0.950 . S
H1780 C1785 0.950 1_545 S
H1781 C1786 0.949 . S
H1782 C1788 0.950 . S
H1783 C1789 0.950 . S
H1784 C1790 0.949 . S
C1785 H1780 0.950 1_565 S
C1785 C1787 1.327 . S
C1785 C1791 1.429 1_565 S
C1786 C1778 1.574 . S
C1786 H1781 0.949 . S
C1786 C1792 1.368 . S
C1787 C1771 1.349 . S
C1787 H1779 0.950 . S
C1787 C1785 1.327 . S
C1788 C1776 1.349 . S
C1788 H1782 0.950 . S
C1788 C1789 1.327 1_455 S
C1789 H1783 0.950 . S
C1789 C1788 1.327 1_655 S
C1789 C1793 1.429 . S
C1790 C1773 1.574 . S
C1790 H1784 0.949 . S
C1790 C1794 1.368 . S
C1791 C1772 1.429 1_545 S
C1791 C1785 1.429 1_545 S
C1791 C1792 1.523 . S
C1792 C1773 1.368 . S
C1792 C1786 1.368 . S
C1792 C1791 1.523 . S
C1793 C1777 1.429 . S
C1793 C1789 1.429 . S
C1793 C1794 1.523 . S
C1794 C1778 1.368 . S
C1794 C1790 1.368 . S
C1794 C1793 1.523 . S
H1795 C1770 0.950 . S
H1796 C1772 0.950 . S
H1797 C1773 0.949 . S
H1798 C1775 0.950 . S
H1799 C1777 0.950 . S
C1800 C1801 1.349 . S
C1800 C1802 1.327 . S
C1800 H1825 0.950 . S
C1801 C1800 1.349 . S
C1801 C1817 1.349 . S
C1802 C1800 1.327 . S
C1802 C1821 1.429 . S
C1802 H1826 0.950 . S
C1803 C1820 1.574 . S
C1803 C1822 1.368 . S
C1803 H1827 0.949 . S
H1804 C1808 0.949 . S
C1805 C1806 1.349 . S
C1805 C1807 1.327 . S
C1805 H1828 0.950 . S
C1806 C1805 1.349 . S
C1806 C1818 1.349 . S
C1807 C1805 1.327 . S
C1807 C1823 1.429 . S
C1807 H1829 0.950 . S
C1808 H1804 0.949 . S
C1808 C1816 1.574 . S
C1808 C1824 1.368 . S
H1809 C1817 0.950 . S
H1810 C1815 0.950 . S
H1811 C1816 0.949 . S
H1812 C1818 0.950 . S
H1813 C1819 0.950 . S
H1814 C1820 0.949 . S
C1815 H1810 0.950 . S
C1815 C1817 1.327 . S
C1815 C1821 1.429 . S
C1816 C1808 1.574 . S
C1816 H1811 0.949 . S
C1816 C1822 1.368 . S
C1817 C1801 1.349 . S
C1817 H1809 0.950 . S
C1817 C1815 1.327 . S
C1818 C1806 1.349 . S
C1818 H1812 0.950 . S
C1818 C1819 1.327 . S
C1819 H1813 0.950 . S
C1819 C1818 1.327 . S
C1819 C1823 1.429 . S
C1820 C1803 1.574 . S
C1820 H1814 0.949 . S
C1820 C1824 1.368 . S
C1821 C1802 1.429 . S
C1821 C1815 1.429 . S
C1821 C1822 1.523 . S
C1822 C1803 1.368 . S
C1822 C1816 1.368 . S
C1822 C1821 1.523 . S
C1823 C1807 1.429 . S
C1823 C1819 1.429 . S
C1823 C1824 1.523 . S
C1824 C1808 1.368 . S
C1824 C1820 1.368 . S
C1824 C1823 1.523 . S
H1825 C1800 0.950 . S
H1826 C1802 0.950 . S
H1827 C1803 0.949 . S
H1828 C1805 0.950 . S
H1829 C1807 0.950 . S
C1830 C1831 1.349 . S
C1830 C1832 1.327 . S
C1830 H1855 0.950 . S
C1831 C1830 1.349 . S
C1831 C1847 1.349 . S
C1832 C1830 1.327 . S
C1832 C1851 1.429 . S
C1832 H1856 0.950 . S
C1833 C1850 1.574 . S
C1833 C1852 1.368 . S
C1833 H1857 0.949 . S
H1834 C1838 0.949 . S
C1835 C1836 1.349 . S
C1835 C1837 1.327 . S
C1835 H1858 0.950 . S
C1836 C1835 1.349 . S
C1836 C1848 1.349 . S
C1837 C1835 1.327 . S
C1837 C1853 1.429 . S
C1837 H1859 0.950 . S
C1838 H1834 0.949 . S
C1838 C1846 1.574 . S
C1838 C1854 1.368 . S
H1839 C1847 0.950 . S
H1840 C1845 0.950 . S
H1841 C1846 0.949 . S
H1842 C1848 0.950 . S
H1843 C1849 0.950 . S
H1844 C1850 0.949 . S
C1845 H1840 0.950 . S
C1845 C1847 1.327 . S
C1845 C1851 1.429 . S
C1846 C1838 1.574 . S
C1846 H1841 0.949 . S
C1846 C1852 1.368 . S
C1847 C1831 1.349 . S
C1847 H1839 0.950 . S
C1847 C1845 1.327 . S
C1848 C1836 1.349 . S
C1848 H1842 0.950 . S
C1848 C1849 1.327 . S
C1849 H1843 0.950 . S
C1849 C1848 1.327 . S
C1849 C1853 1.429 . S
C1850 C1833 1.574 . S
C1850 H1844 0.949 . S
C1850 C1854 1.368 . S
C1851 C1832 1.429 . S
C1851 C1845 1.429 . S
C1851 C1852 1.523 . S
C1852 C1833 1.368 . S
C1852 C1846 1.368 . S
C1852 C1851 1.523 . S
C1853 C1837 1.429 . S
C1853 C1849 1.429 . S
C1853 C1854 1.523 . S
C1854 C1838 1.368 . S
C1854 C1850 1.368 . S
C1854 C1853 1.523 . S
H1855 C1830 0.950 . S
H1856 C1832 0.950 . S
H1857 C1833 0.949 . S
H1858 C1835 0.950 . S
H1859 C1837 0.950 . S
C1860 C1861 1.349 . S
C1860 C1862 1.327 . S
C1860 H1885 0.950 . S
C1861 C1860 1.349 . S
C1861 C1877 1.349 . S
C1862 C1860 1.327 . S
C1862 C1881 1.429 . S
C1862 H1886 0.950 . S
C1863 C1880 1.574 . S
C1863 C1882 1.368 . S
C1863 H1887 0.949 . S
H1864 C1868 0.949 . S
C1865 C1866 1.349 . S
C1865 C1867 1.327 . S
C1865 H1888 0.950 . S
C1866 C1865 1.349 . S
C1866 C1878 1.349 . S
C1867 C1865 1.327 . S
C1867 C1883 1.429 . S
C1867 H1889 0.950 . S
C1868 H1864 0.949 . S
C1868 C1876 1.574 . S
C1868 C1884 1.368 . S
H1869 C1877 0.950 . S
H1870 C1875 0.950 . S
H1871 C1876 0.949 . S
H1872 C1878 0.950 . S
H1873 C1879 0.950 . S
H1874 C1880 0.949 . S
C1875 H1870 0.950 . S
C1875 C1877 1.327 . S
C1875 C1881 1.429 . S
C1876 C1868 1.574 . S
C1876 H1871 0.949 . S
C1876 C1882 1.368 . S
C1877 C1861 1.349 . S
C1877 H1869 0.950 . S
C1877 C1875 1.327 . S
C1878 C1866 1.349 . S
C1878 H1872 0.950 . S
C1878 C1879 1.327 . S
C1879 H1873 0.950 . S
C1879 C1878 1.327 . S
C1879 C1883 1.429 . S
C1880 C1863 1.574 . S
C1880 H1874 0.949 . S
C1880 C1884 1.368 . S
C1881 C1862 1.429 . S
C1881 C1875 1.429 . S
C1881 C1882 1.523 . S
C1882 C1863 1.368 . S
C1882 C1876 1.368 . S
C1882 C1881 1.523 . S
C1883 C1867 1.429 . S
C1883 C1879 1.429 . S
C1883 C1884 1.523 . S
C1884 C1868 1.368 . S
C1884 C1880 1.368 . S
C1884 C1883 1.523 . S
H1885 C1860 0.950 . S
H1886 C1862 0.950 . S
H1887 C1863 0.949 . S
H1888 C1865 0.950 . S
H1889 C1867 0.950 . S
C1890 C1891 1.349 . S
C1890 C1892 1.327 . S
C1890 H1915 0.950 . S
C1891 C1890 1.349 . S
C1891 C1907 1.349 . S
C1892 C1890 1.327 . S
C1892 C1911 1.429 . S
C1892 H1916 0.950 . S
C1893 C1910 1.574 . S
C1893 C1912 1.368 . S
C1893 H1917 0.949 . S
H1894 C1898 0.949 . S
C1895 C1896 1.349 . S
C1895 C1897 1.327 . S
C1895 H1918 0.950 . S
C1896 C1895 1.349 . S
C1896 C1908 1.349 . S
C1897 C1895 1.327 . S
C1897 C1913 1.429 . S
C1897 H1919 0.950 . S
C1898 H1894 0.949 . S
C1898 C1906 1.574 . S
C1898 C1914 1.368 . S
H1899 C1907 0.950 . S
H1900 C1905 0.950 . S
H1901 C1906 0.949 . S
H1902 C1908 0.950 . S
H1903 C1909 0.950 . S
H1904 C1910 0.949 . S
C1905 H1900 0.950 . S
C1905 C1907 1.327 . S
C1905 C1911 1.429 . S
C1906 C1898 1.574 . S
C1906 H1901 0.949 . S
C1906 C1912 1.368 . S
C1907 C1891 1.349 . S
C1907 H1899 0.950 . S
C1907 C1905 1.327 . S
C1908 C1896 1.349 . S
C1908 H1902 0.950 . S
C1908 C1909 1.327 . S
C1909 H1903 0.950 . S
C1909 C1908 1.327 . S
C1909 C1913 1.429 . S
C1910 C1893 1.574 . S
C1910 H1904 0.949 . S
C1910 C1914 1.368 . S
C1911 C1892 1.429 . S
C1911 C1905 1.429 . S
C1911 C1912 1.523 . S
C1912 C1893 1.368 . S
C1912 C1906 1.368 . S
C1912 C1911 1.523 . S
C1913 C1897 1.429 . S
C1913 C1909 1.429 . S
C1913 C1914 1.523 . S
C1914 C1898 1.368 . S
C1914 C1910 1.368 . S
C1914 C1913 1.523 . S
H1915 C1890 0.950 . S
H1916 C1892 0.950 . S
H1917 C1893 0.949 . S
H1918 C1895 0.950 . S
H1919 C1897 0.950 . S
C1920 C1921 1.349 . S
C1920 C1922 1.327 . S
C1920 H1945 0.950 . S
C1921 C1920 1.349 . S
C1921 C1937 1.349 . S
C1922 C1920 1.327 . S
C1922 C1941 1.429 . S
C1922 H1946 0.950 . S
C1923 C1940 1.574 . S
C1923 C1942 1.368 . S
C1923 H1947 0.949 . S
H1924 C1928 0.949 . S
C1925 C1926 1.349 . S
C1925 C1927 1.327 . S
C1925 H1948 0.950 . S
C1926 C1925 1.349 . S
C1926 C1938 1.349 . S
C1927 C1925 1.327 . S
C1927 C1943 1.429 . S
C1927 H1949 0.950 . S
C1928 H1924 0.949 . S
C1928 C1936 1.574 . S
C1928 C1944 1.368 . S
H1929 C1937 0.950 . S
H1930 C1935 0.950 . S
H1931 C1936 0.949 . S
H1932 C1938 0.950 . S
H1933 C1939 0.950 . S
H1934 C1940 0.949 . S
C1935 H1930 0.950 . S
C1935 C1937 1.327 . S
C1935 C1941 1.429 . S
C1936 C1928 1.574 . S
C1936 H1931 0.949 . S
C1936 C1942 1.368 . S
C1937 C1921 1.349 . S
C1937 H1929 0.950 . S
C1937 C1935 1.327 . S
C1938 C1926 1.349 . S
C1938 H1932 0.950 . S
C1938 C1939 1.327 . S
C1939 H1933 0.950 . S
C1939 C1938 1.327 . S
C1939 C1943 1.429 . S
C1940 C1923 1.574 . S
C1940 H1934 0.949 . S
C1940 C1944 1.368 . S
C1941 C1922 1.429 . S
C1941 C1935 1.429 . S
C1941 C1942 1.523 . S
C1942 C1923 1.368 . S
C1942 C1936 1.368 . S
C1942 C1941 1.523 . S
C1943 C1927 1.429 . S
C1943 C1939 1.429 . S
C1943 C1944 1.523 . S
C1944 C1928 1.368 . S
C1944 C1940 1.368 . S
C1944 C1943 1.523 . S
H1945 C1920 0.950 . S
H1946 C1922 0.950 . S
H1947 C1923 0.949 . S
H1948 C1925 0.950 . S
H1949 C1927 0.950 . S
C1950 C1951 1.349 . S
C1950 C1952 1.327 . S
C1950 H1975 0.950 . S
C1951 C1950 1.349 . S
C1951 C1967 1.349 . S
C1952 C1950 1.327 . S
C1952 C1971 1.429 . S
C1952 H1976 0.950 . S
C1953 C1970 1.574 . S
C1953 C1972 1.368 . S
C1953 H1977 0.949 . S
H1954 C1958 0.949 . S
C1955 C1956 1.349 . S
C1955 C1957 1.327 . S
C1955 H1978 0.950 . S
C1956 C1955 1.349 . S
C1956 C1968 1.349 . S
C1957 C1955 1.327 . S
C1957 C1973 1.429 . S
C1957 H1979 0.950 . S
C1958 H1954 0.949 . S
C1958 C1966 1.574 . S
C1958 C1974 1.368 . S
H1959 C1967 0.950 . S
H1960 C1965 0.950 . S
H1961 C1966 0.949 . S
H1962 C1968 0.950 . S
H1963 C1969 0.950 . S
H1964 C1970 0.949 . S
C1965 H1960 0.950 . S
C1965 C1967 1.327 . S
C1965 C1971 1.429 . S
C1966 C1958 1.574 . S
C1966 H1961 0.949 . S
C1966 C1972 1.368 . S
C1967 C1951 1.349 . S
C1967 H1959 0.950 . S
C1967 C1965 1.327 . S
C1968 C1956 1.349 . S
C1968 H1962 0.950 . S
C1968 C1969 1.327 . S
C1969 H1963 0.950 . S
C1969 C1968 1.327 . S
C1969 C1973 1.429 . S
C1970 C1953 1.574 . S
C1970 H1964 0.949 . S
C1970 C1974 1.368 . S
C1971 C1952 1.429 . S
C1971 C1965 1.429 . S
C1971 C1972 1.523 . S
C1972 C1953 1.368 . S
C1972 C1966 1.368 . S
C1972 C1971 1.523 . S
C1973 C1957 1.429 . S
C1973 C1969 1.429 . S
C1973 C1974 1.523 . S
C1974 C1958 1.368 . S
C1974 C1970 1.368 . S
C1974 C1973 1.523 . S
H1975 C1950 0.950 . S
H1976 C1952 0.950 . S
H1977 C1953 0.949 . S
H1978 C1955 0.950 . S
H1979 C1957 0.950 . S
C1980 C1981 1.349 . S
C1980 C1982 1.327 . S
C1980 H2005 0.950 . S
C1981 C1980 1.349 . S
C1981 C1997 1.349 . S
C1982 C1980 1.327 . S
C1982 C2001 1.429 . S
C1982 H2006 0.950 . S
C1983 C2000 1.574 . S
C1983 C2002 1.368 . S
C1983 H2007 0.949 . S
H1984 C1988 0.949 . S
C1985 C1986 1.349 . S
C1985 C1987 1.327 . S
C1985 H2008 0.950 . S
C1986 C1985 1.349 . S
C1986 C1998 1.349 . S
C1987 C1985 1.327 . S
C1987 C2003 1.429 . S
C1987 H2009 0.950 . S
C1988 H1984 0.949 . S
C1988 C1996 1.574 . S
C1988 C2004 1.368 . S
H1989 C1997 0.950 . S
H1990 C1995 0.950 . S
H1991 C1996 0.949 . S
H1992 C1998 0.950 . S
H1993 C1999 0.950 . S
H1994 C2000 0.949 . S
C1995 H1990 0.950 . S
C1995 C1997 1.327 . S
C1995 C2001 1.429 . S
C1996 C1988 1.574 . S
C1996 H1991 0.949 . S
C1996 C2002 1.368 . S
C1997 C1981 1.349 . S
C1997 H1989 0.950 . S
C1997 C1995 1.327 . S
C1998 C1986 1.349 . S
C1998 H1992 0.950 . S
C1998 C1999 1.327 . S
C1999 H1993 0.950 . S
C1999 C1998 1.327 . S
C1999 C2003 1.429 . S
C2000 C1983 1.574 . S
C2000 H1994 0.949 . S
C2000 C2004 1.368 . S
C2001 C1982 1.429 . S
C2001 C1995 1.429 . S
C2001 C2002 1.523 . S
C2002 C1983 1.368 . S
C2002 C1996 1.368 . S
C2002 C2001 1.523 . S
C2003 C1987 1.429 . S
C2003 C1999 1.429 . S
C2003 C2004 1.523 . S
C2004 C1988 1.368 . S
C2004 C2000 1.368 . S
C2004 C2003 1.523 . S
H2005 C1980 0.950 . S
H2006 C1982 0.950 . S
H2007 C1983 0.949 . S
H2008 C1985 0.950 . S
H2009 C1987 0.950 . S
C2010 C2011 1.349 . S
C2010 C2012 1.327 . S
C2010 H2035 0.950 . S
C2011 C2010 1.349 . S
C2011 C2027 1.349 . S
C2012 C2010 1.327 . S
C2012 C2031 1.429 . S
C2012 H2036 0.950 . S
C2013 C2030 1.574 . S
C2013 C2032 1.368 . S
C2013 H2037 0.949 . S
H2014 C2018 0.949 . S
C2015 C2016 1.349 . S
C2015 C2017 1.327 . S
C2015 H2038 0.950 . S
C2016 C2015 1.349 . S
C2016 C2028 1.349 . S
C2017 C2015 1.327 . S
C2017 C2033 1.429 . S
C2017 H2039 0.950 . S
C2018 H2014 0.949 . S
C2018 C2026 1.574 . S
C2018 C2034 1.368 . S
H2019 C2027 0.950 . S
H2020 C2025 0.950 . S
H2021 C2026 0.949 . S
H2022 C2028 0.950 . S
H2023 C2029 0.950 . S
H2024 C2030 0.949 . S
C2025 H2020 0.950 . S
C2025 C2027 1.327 . S
C2025 C2031 1.429 . S
C2026 C2018 1.574 . S
C2026 H2021 0.949 . S
C2026 C2032 1.368 . S
C2027 C2011 1.349 . S
C2027 H2019 0.950 . S
C2027 C2025 1.327 . S
C2028 C2016 1.349 . S
C2028 H2022 0.950 . S
C2028 C2029 1.327 . S
C2029 H2023 0.950 . S
C2029 C2028 1.327 . S
C2029 C2033 1.429 . S
C2030 C2013 1.574 . S
C2030 H2024 0.949 . S
C2030 C2034 1.368 . S
C2031 C2012 1.429 . S
C2031 C2025 1.429 . S
C2031 C2032 1.523 . S
C2032 C2013 1.368 . S
C2032 C2026 1.368 . S
C2032 C2031 1.523 . S
C2033 C2017 1.429 . S
C2033 C2029 1.429 . S
C2033 C2034 1.523 . S
C2034 C2018 1.368 . S
C2034 C2030 1.368 . S
C2034 C2033 1.523 . S
H2035 C2010 0.950 . S
H2036 C2012 0.950 . S
H2037 C2013 0.949 . S
H2038 C2015 0.950 . S
H2039 C2017 0.950 . S
C2040 C2041 1.349 . S
C2040 C2042 1.327 . S
C2040 H2065 0.950 . S
C2041 C2040 1.349 . S
C2041 C2057 1.349 . S
C2042 C2040 1.327 . S
C2042 C2061 1.429 . S
C2042 H2066 0.950 . S
C2043 C2060 1.574 . S
C2043 C2062 1.368 . S
C2043 H2067 0.949 . S
H2044 C2048 0.949 . S
C2045 C2046 1.349 . S
C2045 C2047 1.327 . S
C2045 H2068 0.950 . S
C2046 C2045 1.349 . S
C2046 C2058 1.349 . S
C2047 C2045 1.327 . S
C2047 C2063 1.429 . S
C2047 H2069 0.950 . S
C2048 H2044 0.949 . S
C2048 C2056 1.574 . S
C2048 C2064 1.368 . S
H2049 C2057 0.950 . S
H2050 C2055 0.950 . S
H2051 C2056 0.949 . S
H2052 C2058 0.950 . S
H2053 C2059 0.950 . S
H2054 C2060 0.949 . S
C2055 H2050 0.950 . S
C2055 C2057 1.327 . S
C2055 C2061 1.429 . S
C2056 C2048 1.574 . S
C2056 H2051 0.949 . S
C2056 C2062 1.368 . S
C2057 C2041 1.349 . S
C2057 H2049 0.950 . S
C2057 C2055 1.327 . S
C2058 C2046 1.349 . S
C2058 H2052 0.950 . S
C2058 C2059 1.327 . S
C2059 H2053 0.950 . S
C2059 C2058 1.327 . S
C2059 C2063 1.429 . S
C2060 C2043 1.574 . S
C2060 H2054 0.949 . S
C2060 C2064 1.368 . S
C2061 C2042 1.429 . S
C2061 C2055 1.429 . S
C2061 C2062 1.523 . S
C2062 C2043 1.368 . S
C2062 C2056 1.368 . S
C2062 C2061 1.523 . S
C2063 C2047 1.429 . S
C2063 C2059 1.429 . S
C2063 C2064 1.523 . S
C2064 C2048 1.368 . S
C2064 C2060 1.368 . S
C2064 C2063 1.523 . S
H2065 C2040 0.950 . S
H2066 C2042 0.950 . S
H2067 C2043 0.949 . S
H2068 C2045 0.950 . S
H2069 C2047 0.950 . S
C2070 C2071 1.355 1_556 S
C2070 C2072 1.326 . S
C2070 H2095 0.944 . S
C2071 C2070 1.355 1_554 S
C2071 C2087 1.349 . S
C2072 C2070 1.326 . S
C2072 C2091 1.412 1_556 S
C2072 H2096 0.970 . S
C2073 C2090 1.574 . S
C2073 C2092 1.368 . S
C2073 H2097 0.949 . S
H2074 C2078 0.949 . S
C2075 C2076 1.382 . S
C2075 C2077 1.327 . S
C2075 H2098 0.950 . S
C2076 C2075 1.382 . S
C2076 C2088 1.323 1_554 S
C2077 C2075 1.327 . S
C2077 C2093 1.429 . S
C2077 H2099 0.950 . S
C2078 H2074 0.949 . S
C2078 C2086 1.574 . S
C2078 C2094 1.368 1_556 S
H2079 C2087 0.950 . S
H2080 C2085 0.950 . S
H2081 C2086 0.949 . S
H2082 C2088 0.950 . S
H2083 C2089 0.950 . S
H2084 C2090 0.949 . S
C2085 H2080 0.950 . S
C2085 C2087 1.327 . S
C2085 C2091 1.429 . S
C2086 C2078 1.574 . S
C2086 H2081 0.949 . S
C2086 C2092 1.368 1_556 S
C2087 C2071 1.349 . S
C2087 H2079 0.950 . S
C2087 C2085 1.327 . S
C2088 C2076 1.323 1_556 S
C2088 H2082 0.950 . S
C2088 C2089 1.327 . S
C2089 H2083 0.950 . S
C2089 C2088 1.327 . S
C2089 C2093 1.429 1_556 S
C2090 C2073 1.574 . S
C2090 H2084 0.949 . S
C2090 C2094 1.368 . S
C2091 C2072 1.412 1_554 S
C2091 C2085 1.429 . S
C2091 C2092 1.523 . S
C2092 C2073 1.368 . S
C2092 C2086 1.368 1_554 S
C2092 C2091 1.523 . S
C2093 C2077 1.429 . S
C2093 C2089 1.429 1_554 S
C2093 C2094 1.523 . S
C2094 C2078 1.368 1_554 S
C2094 C2090 1.368 . S
C2094 C2093 1.523 . S
H2095 C2070 0.944 . S
H2096 C2072 0.970 . S
H2097 C2073 0.949 . S
H2098 C2075 0.950 . S
H2099 C2077 0.950 . S
C2100 C2101 1.399 . S
C2100 C2102 1.327 . S
C2100 H2125 0.950 . S
C2101 C2100 1.399 . S
C2101 C2117 1.305 1_554 S
C2102 C2100 1.327 . S
C2102 C2121 1.429 . S
C2102 H2126 0.950 . S
C2103 C2120 1.574 . S
C2103 C2122 1.368 1_556 S
C2103 H2127 0.949 . S
H2104 C2108 0.949 . S
C2105 C2106 1.349 1_556 S
C2105 C2107 1.327 . S
C2105 H2128 0.950 . S
C2106 C2105 1.349 1_554 S
C2106 C2118 1.349 . S
C2107 C2105 1.327 . S
C2107 C2123 1.429 1_556 S
C2107 H2129 0.950 . S
C2108 H2104 0.949 . S
C2108 C2116 1.574 . S
C2108 C2124 1.368 . S
H2109 C2117 0.950 . S
H2110 C2115 0.950 . S
H2111 C2116 0.949 . S
H2112 C2118 0.950 . S
H2113 C2119 0.950 . S
H2114 C2120 0.949 . S
C2115 H2110 0.950 . S
C2115 C2117 1.327 . S
C2115 C2121 1.429 1_556 S
C2116 C2108 1.574 . S
C2116 H2111 0.949 . S
C2116 C2122 1.368 . S
C2117 C2101 1.305 1_556 S
C2117 H2109 0.950 . S
C2117 C2115 1.327 . S
C2118 C2106 1.349 . S
C2118 H2112 0.950 . S
C2118 C2119 1.327 . S
C2119 H2113 0.950 . S
C2119 C2118 1.327 . S
C2119 C2123 1.429 . S
C2120 C2103 1.574 . S
C2120 H2114 0.949 . S
C2120 C2124 1.368 1_556 S
C2121 C2102 1.429 . S
C2121 C2115 1.429 1_554 S
C2121 C2122 1.523 . S
C2122 C2103 1.368 1_554 S
C2122 C2116 1.368 . S
C2122 C2121 1.523 . S
C2123 C2107 1.429 1_554 S
C2123 C2119 1.429 . S
C2123 C2124 1.523 . S
C2124 C2108 1.368 . S
C2124 C2120 1.368 1_554 S
C2124 C2123 1.523 . S
H2125 C2100 0.950 . S
H2126 C2102 0.950 . S
H2127 C2103 0.949 . S
H2128 C2105 0.950 . S
H2129 C2107 0.950 . S
C2130 C2131 1.349 1_556 S
C2130 C2132 1.327 . S
C2130 H2155 0.950 . S
C2131 C2130 1.349 1_554 S
C2131 C2147 1.349 . S
C2132 C2130 1.327 . S
C2132 C2151 1.429 1_556 S
C2132 H2156 0.950 . S
C2133 C2150 1.574 . S
C2133 C2152 1.368 . S
C2133 H2157 0.949 . S
H2134 C2138 0.949 . S
C2135 C2136 1.409 . S
C2135 C2137 1.327 . S
C2135 H2158 0.950 . S
C2136 C2135 1.409 . S
C2136 C2148 1.294 1_554 S
C2137 C2135 1.327 . S
C2137 C2153 1.429 . S
C2137 H2159 0.950 . S
C2138 H2134 0.949 . S
C2138 C2146 1.574 . S
C2138 C2154 1.368 1_556 S
H2139 C2147 0.950 . S
H2140 C2145 0.950 . S
H2141 C2146 0.949 . S
H2142 C2148 0.950 . S
H2143 C2149 0.950 . S
H2144 C2150 0.949 . S
C2145 H2140 0.950 . S
C2145 C2147 1.327 . S
C2145 C2151 1.429 . S
C2146 C2138 1.574 . S
C2146 H2141 0.949 . S
C2146 C2152 1.368 1_556 S
C2147 C2131 1.349 . S
C2147 H2139 0.950 . S
C2147 C2145 1.327 . S
C2148 C2136 1.294 1_556 S
C2148 H2142 0.950 . S
C2148 C2149 1.327 . S
C2149 H2143 0.950 . S
C2149 C2148 1.327 . S
C2149 C2153 1.429 1_556 S
C2150 C2133 1.574 . S
C2150 H2144 0.949 . S
C2150 C2154 1.368 . S
C2151 C2132 1.429 1_554 S
C2151 C2145 1.429 . S
C2151 C2152 1.523 . S
C2152 C2133 1.368 . S
C2152 C2146 1.368 1_554 S
C2152 C2151 1.523 . S
C2153 C2137 1.429 . S
C2153 C2149 1.429 1_554 S
C2153 C2154 1.523 . S
C2154 C2138 1.368 1_554 S
C2154 C2150 1.368 . S
C2154 C2153 1.523 . S
H2155 C2130 0.950 . S
H2156 C2132 0.950 . S
H2157 C2133 0.949 . S
H2158 C2135 0.950 . S
H2159 C2137 0.950 . S
C2160 C2161 1.349 . S
C2160 C2162 1.327 . S
C2160 H2185 0.950 . S
C2161 C2160 1.349 . S
C2161 C2177 1.349 . S
C2162 C2160 1.327 . S
C2162 C2181 1.429 . S
C2162 H2186 0.950 . S
C2163 C2180 1.574 . S
C2163 C2182 1.368 . S
C2163 H2187 0.949 . S
H2164 C2168 0.949 . S
C2165 C2166 1.349 . S
C2165 C2167 1.327 . S
C2165 H2188 0.950 . S
C2166 C2165 1.349 . S
C2166 C2178 1.349 . S
C2167 C2165 1.327 . S
C2167 C2183 1.429 . S
C2167 H2189 0.950 . S
C2168 H2164 0.949 . S
C2168 C2176 1.574 . S
C2168 C2184 1.368 . S
H2169 C2177 0.950 . S
H2170 C2175 0.950 . S
H2171 C2176 0.949 . S
H2172 C2178 0.950 . S
H2173 C2179 0.950 . S
H2174 C2180 0.949 . S
C2175 H2170 0.950 . S
C2175 C2177 1.327 . S
C2175 C2181 1.429 . S
C2176 C2168 1.574 . S
C2176 H2171 0.949 . S
C2176 C2182 1.368 . S
C2177 C2161 1.349 . S
C2177 H2169 0.950 . S
C2177 C2175 1.327 . S
C2178 C2166 1.349 . S
C2178 H2172 0.950 . S
C2178 C2179 1.327 . S
C2179 H2173 0.950 . S
C2179 C2178 1.327 . S
C2179 C2183 1.429 . S
C2180 C2163 1.574 . S
C2180 H2174 0.949 . S
C2180 C2184 1.368 . S
C2181 C2162 1.429 . S
C2181 C2175 1.429 . S
C2181 C2182 1.523 . S
C2182 C2163 1.368 . S
C2182 C2176 1.368 . S
C2182 C2181 1.523 . S
C2183 C2167 1.429 . S
C2183 C2179 1.429 . S
C2183 C2184 1.523 . S
C2184 C2168 1.368 . S
C2184 C2180 1.368 . S
C2184 C2183 1.523 . S
H2185 C2160 0.950 . S
H2186 C2162 0.950 . S
H2187 C2163 0.949 . S
H2188 C2165 0.950 . S
H2189 C2167 0.950 . S
C2190 C2191 1.349 . S
C2190 C2192 1.327 . S
C2190 H2215 0.950 . S
C2191 C2190 1.349 . S
C2191 C2207 1.349 . S
C2192 C2190 1.327 . S
C2192 C2211 1.429 . S
C2192 H2216 0.950 . S
C2193 C2210 1.574 . S
C2193 C2212 1.368 . S
C2193 H2217 0.949 . S
H2194 C2198 0.949 . S
C2195 C2196 1.349 . S
C2195 C2197 1.327 . S
C2195 H2218 0.950 . S
C2196 C2195 1.349 . S
C2196 C2208 1.349 . S
C2197 C2195 1.327 . S
C2197 C2213 1.429 . S
C2197 H2219 0.950 . S
C2198 H2194 0.949 . S
C2198 C2206 1.574 . S
C2198 C2214 1.368 . S
H2199 C2207 0.950 . S
H2200 C2205 0.950 . S
H2201 C2206 0.949 . S
H2202 C2208 0.950 . S
H2203 C2209 0.950 . S
H2204 C2210 0.949 . S
C2205 H2200 0.950 . S
C2205 C2207 1.327 . S
C2205 C2211 1.429 . S
C2206 C2198 1.574 . S
C2206 H2201 0.949 . S
C2206 C2212 1.368 . S
C2207 C2191 1.349 . S
C2207 H2199 0.950 . S
C2207 C2205 1.327 . S
C2208 C2196 1.349 . S
C2208 H2202 0.950 . S
C2208 C2209 1.327 . S
C2209 H2203 0.950 . S
C2209 C2208 1.327 . S
C2209 C2213 1.429 . S
C2210 C2193 1.574 . S
C2210 H2204 0.949 . S
C2210 C2214 1.368 . S
C2211 C2192 1.429 . S
C2211 C2205 1.429 . S
C2211 C2212 1.523 . S
C2212 C2193 1.368 . S
C2212 C2206 1.368 . S
C2212 C2211 1.523 . S
C2213 C2197 1.429 . S
C2213 C2209 1.429 . S
C2213 C2214 1.523 . S
C2214 C2198 1.368 . S
C2214 C2210 1.368 . S
C2214 C2213 1.523 . S
H2215 C2190 0.950 . S
H2216 C2192 0.950 . S
H2217 C2193 0.949 . S
H2218 C2195 0.950 . S
H2219 C2197 0.950 . S
C2220 C2221 1.349 . S
C2220 C2222 1.327 . S
C2220 H2245 0.950 . S
C2221 C2220 1.349 . S
C2221 C2237 1.349 . S
C2222 C2220 1.327 . S
C2222 C2241 1.429 . S
C2222 H2246 0.950 . S
C2223 C2240 1.574 . S
C2223 C2242 1.368 . S
C2223 H2247 0.949 . S
H2224 C2228 0.949 . S
C2225 C2226 1.349 . S
C2225 C2227 1.327 . S
C2225 H2248 0.950 . S
C2226 C2225 1.349 . S
C2226 C2238 1.349 . S
C2227 C2225 1.327 . S
C2227 C2243 1.429 . S
C2227 H2249 0.950 . S
C2228 H2224 0.949 . S
C2228 C2236 1.574 . S
C2228 C2244 1.368 . S
H2229 C2237 0.950 . S
H2230 C2235 0.950 . S
H2231 C2236 0.949 . S
H2232 C2238 0.950 . S
H2233 C2239 0.950 . S
H2234 C2240 0.949 . S
C2235 H2230 0.950 . S
C2235 C2237 1.327 . S
C2235 C2241 1.429 . S
C2236 C2228 1.574 . S
C2236 H2231 0.949 . S
C2236 C2242 1.368 . S
C2237 C2221 1.349 . S
C2237 H2229 0.950 . S
C2237 C2235 1.327 . S
C2238 C2226 1.349 . S
C2238 H2232 0.950 . S
C2238 C2239 1.327 . S
C2239 H2233 0.950 . S
C2239 C2238 1.327 . S
C2239 C2243 1.429 . S
C2240 C2223 1.574 . S
C2240 H2234 0.949 . S
C2240 C2244 1.368 . S
C2241 C2222 1.429 . S
C2241 C2235 1.429 . S
C2241 C2242 1.523 . S
C2242 C2223 1.368 . S
C2242 C2236 1.368 . S
C2242 C2241 1.523 . S
C2243 C2227 1.429 . S
C2243 C2239 1.429 . S
C2243 C2244 1.523 . S
C2244 C2228 1.368 . S
C2244 C2240 1.368 . S
C2244 C2243 1.523 . S
H2245 C2220 0.950 . S
H2246 C2222 0.950 . S
H2247 C2223 0.949 . S
H2248 C2225 0.950 . S
H2249 C2227 0.950 . S
C2250 C2251 1.416 . S
C2250 C2252 1.327 . S
C2250 H2275 0.950 . S
C2251 C2250 1.416 . S
C2251 C2267 1.286 1_556 S
C2252 C2250 1.327 . S
C2252 C2271 1.429 . S
C2252 H2276 0.950 . S
C2253 C2270 1.574 . S
C2253 C2272 1.368 1_554 S
C2253 H2277 0.949 . S
H2254 C2258 0.949 . S
C2255 C2256 1.349 1_554 S
C2255 C2257 1.327 . S
C2255 H2278 0.950 . S
C2256 C2255 1.349 1_556 S
C2256 C2268 1.349 . S
C2257 C2255 1.327 . S
C2257 C2273 1.429 1_554 S
C2257 H2279 0.950 . S
C2258 H2254 0.949 . S
C2258 C2266 1.574 . S
C2258 C2274 1.368 . S
H2259 C2267 0.950 . S
H2260 C2265 0.950 . S
H2261 C2266 0.949 . S
H2262 C2268 0.950 . S
H2263 C2269 0.950 . S
H2264 C2270 0.949 . S
C2265 H2260 0.950 . S
C2265 C2267 1.327 . S
C2265 C2271 1.429 1_554 S
C2266 C2258 1.574 . S
C2266 H2261 0.949 . S
C2266 C2272 1.368 . S
C2267 C2251 1.286 1_554 S
C2267 H2259 0.950 . S
C2267 C2265 1.327 . S
C2268 C2256 1.349 . S
C2268 H2262 0.950 . S
C2268 C2269 1.327 . S
C2269 H2263 0.950 . S
C2269 C2268 1.327 . S
C2269 C2273 1.429 . S
C2270 C2253 1.574 . S
C2270 H2264 0.949 . S
C2270 C2274 1.368 1_554 S
C2271 C2252 1.429 . S
C2271 C2265 1.429 1_556 S
C2271 C2272 1.523 . S
C2272 C2253 1.368 1_556 S
C2272 C2266 1.368 . S
C2272 C2271 1.523 . S
C2273 C2257 1.429 1_556 S
C2273 C2269 1.429 . S
C2273 C2274 1.523 . S
C2274 C2258 1.368 . S
C2274 C2270 1.368 1_556 S
C2274 C2273 1.523 . S
H2275 C2250 0.950 . S
H2276 C2252 0.950 . S
H2277 C2253 0.949 . S
H2278 C2255 0.950 . S
H2279 C2257 0.950 . S
C2280 C2281 1.299 1_554 S
C2280 C2282 1.327 . S
C2280 H2305 0.950 . S
C2281 C2280 1.299 1_556 S
C2281 C2297 1.405 . S
C2282 C2280 1.327 . S
C2282 C2301 1.429 1_554 S
C2282 H2306 0.950 . S
C2283 C2300 1.574 . S
C2283 C2302 1.368 . S
C2283 H2307 0.949 . S
H2284 C2288 0.949 . S
C2285 C2286 1.349 . S
C2285 C2287 1.327 . S
C2285 H2308 0.950 . S
C2286 C2285 1.349 . S
C2286 C2298 1.349 1_556 S
C2287 C2285 1.327 . S
C2287 C2303 1.429 . S
C2287 H2309 0.950 . S
C2288 H2284 0.949 . S
C2288 C2296 1.574 . S
C2288 C2304 1.368 1_554 S
H2289 C2297 0.950 . S
H2290 C2295 0.950 . S
H2291 C2296 0.949 . S
H2292 C2298 0.950 . S
H2293 C2299 0.950 . S
H2294 C2300 0.949 . S
C2295 H2290 0.950 . S
C2295 C2297 1.327 . S
C2295 C2301 1.429 . S
C2296 C2288 1.574 . S
C2296 H2291 0.949 . S
C2296 C2302 1.368 1_554 S
C2297 C2281 1.405 . S
C2297 H2289 0.950 . S
C2297 C2295 1.327 . S
C2298 C2286 1.349 1_554 S
C2298 H2292 0.950 . S
C2298 C2299 1.327 . S
C2299 H2293 0.950 . S
C2299 C2298 1.327 . S
C2299 C2303 1.429 1_554 S
C2300 C2283 1.574 . S
C2300 H2294 0.949 . S
C2300 C2304 1.368 . S
C2301 C2282 1.429 1_556 S
C2301 C2295 1.429 . S
C2301 C2302 1.523 . S
C2302 C2283 1.368 . S
C2302 C2296 1.368 1_556 S
C2302 C2301 1.523 . S
C2303 C2287 1.429 . S
C2303 C2299 1.429 1_556 S
C2303 C2304 1.523 . S
C2304 C2288 1.368 1_556 S
C2304 C2300 1.368 . S
C2304 C2303 1.523 . S
H2305 C2280 0.950 . S
H2306 C2282 0.950 . S
H2307 C2283 0.949 . S
H2308 C2285 0.950 . S
H2309 C2287 0.950 . S
C2310 C2311 1.406 . S
C2310 C2312 1.327 . S
C2310 H2335 0.950 . S
C2311 C2310 1.406 . S
C2311 C2327 1.297 1_556 S
C2312 C2310 1.327 . S
C2312 C2331 1.429 . S
C2312 H2336 0.950 . S
C2313 C2330 1.574 . S
C2313 C2332 1.368 1_554 S
C2313 H2337 0.949 . S
H2314 C2318 0.949 . S
C2315 C2316 1.349 1_554 S
C2315 C2317 1.327 . S
C2315 H2338 0.950 . S
C2316 C2315 1.349 1_556 S
C2316 C2328 1.349 . S
C2317 C2315 1.327 . S
C2317 C2333 1.429 1_554 S
C2317 H2339 0.950 . S
C2318 H2314 0.949 . S
C2318 C2326 1.574 . S
C2318 C2334 1.368 . S
H2319 C2327 0.950 . S
H2320 C2325 0.950 . S
H2321 C2326 0.949 . S
H2322 C2328 0.950 . S
H2323 C2329 0.950 . S
H2324 C2330 0.949 . S
C2325 H2320 0.950 . S
C2325 C2327 1.327 . S
C2325 C2331 1.429 1_554 S
C2326 C2318 1.574 . S
C2326 H2321 0.949 . S
C2326 C2332 1.368 . S
C2327 C2311 1.297 1_554 S
C2327 H2319 0.950 . S
C2327 C2325 1.327 . S
C2328 C2316 1.349 . S
C2328 H2322 0.950 . S
C2328 C2329 1.327 . S
C2329 H2323 0.950 . S
C2329 C2328 1.327 . S
C2329 C2333 1.429 . S
C2330 C2313 1.574 . S
C2330 H2324 0.949 . S
C2330 C2334 1.368 1_554 S
C2331 C2312 1.429 . S
C2331 C2325 1.429 1_556 S
C2331 C2332 1.523 . S
C2332 C2313 1.368 1_556 S
C2332 C2326 1.368 . S
C2332 C2331 1.523 . S
C2333 C2317 1.429 1_556 S
C2333 C2329 1.429 . S
C2333 C2334 1.523 . S
C2334 C2318 1.368 . S
C2334 C2330 1.368 1_556 S
C2334 C2333 1.523 . S
H2335 C2310 0.950 . S
H2336 C2312 0.950 . S
H2337 C2313 0.949 . S
H2338 C2315 0.950 . S
H2339 C2317 0.950 . S
C2340 C2341 1.349 . S
C2340 C2342 1.327 . S
C2340 H2365 0.950 . S
C2341 C2340 1.349 . S
C2341 C2357 1.349 . S
C2342 C2340 1.327 . S
C2342 C2361 1.429 . S
C2342 H2366 0.950 . S
C2343 C2360 1.574 . S
C2343 C2362 1.368 . S
C2343 H2367 0.949 . S
H2344 C2348 0.949 . S
C2345 C2346 1.349 . S
C2345 C2347 1.327 . S
C2345 H2368 0.950 . S
C2346 C2345 1.349 . S
C2346 C2358 1.349 . S
C2347 C2345 1.327 . S
C2347 C2363 1.429 . S
C2347 H2369 0.950 . S
C2348 H2344 0.949 . S
C2348 C2356 1.574 . S
C2348 C2364 1.368 . S
H2349 C2357 0.950 . S
H2350 C2355 0.950 . S
H2351 C2356 0.949 . S
H2352 C2358 0.950 . S
H2353 C2359 0.950 . S
H2354 C2360 0.949 . S
C2355 H2350 0.950 . S
C2355 C2357 1.327 . S
C2355 C2361 1.429 . S
C2356 C2348 1.574 . S
C2356 H2351 0.949 . S
C2356 C2362 1.368 . S
C2357 C2341 1.349 . S
C2357 H2349 0.950 . S
C2357 C2355 1.327 . S
C2358 C2346 1.349 . S
C2358 H2352 0.950 . S
C2358 C2359 1.327 . S
C2359 H2353 0.950 . S
C2359 C2358 1.327 . S
C2359 C2363 1.429 . S
C2360 C2343 1.574 . S
C2360 H2354 0.949 . S
C2360 C2364 1.368 . S
C2361 C2342 1.429 . S
C2361 C2355 1.429 . S
C2361 C2362 1.523 . S
C2362 C2343 1.368 . S
C2362 C2356 1.368 . S
C2362 C2361 1.523 . S
C2363 C2347 1.429 . S
C2363 C2359 1.429 . S
C2363 C2364 1.523 . S
C2364 C2348 1.368 . S
C2364 C2360 1.368 . S
C2364 C2363 1.523 . S
H2365 C2340 0.950 . S
H2366 C2342 0.950 . S
H2367 C2343 0.949 . S
H2368 C2345 0.950 . S
H2369 C2347 0.950 . S
C2370 C2371 1.349 . S
C2370 C2372 1.327 . S
C2370 H2395 0.950 . S
C2371 C2370 1.349 . S
C2371 C2387 1.349 . S
C2372 C2370 1.327 . S
C2372 C2391 1.429 . S
C2372 H2396 0.950 . S
C2373 C2390 1.574 . S
C2373 C2392 1.368 . S
C2373 H2397 0.949 . S
H2374 C2378 0.949 . S
C2375 C2376 1.349 . S
C2375 C2377 1.327 . S
C2375 H2398 0.950 . S
C2376 C2375 1.349 . S
C2376 C2388 1.349 . S
C2377 C2375 1.327 . S
C2377 C2393 1.429 . S
C2377 H2399 0.950 . S
C2378 H2374 0.949 . S
C2378 C2386 1.574 . S
C2378 C2394 1.368 . S
H2379 C2387 0.950 . S
H2380 C2385 0.950 . S
H2381 C2386 0.949 . S
H2382 C2388 0.950 . S
H2383 C2389 0.950 . S
H2384 C2390 0.949 . S
C2385 H2380 0.950 . S
C2385 C2387 1.327 . S
C2385 C2391 1.429 . S
C2386 C2378 1.574 . S
C2386 H2381 0.949 . S
C2386 C2392 1.368 . S
C2387 C2371 1.349 . S
C2387 H2379 0.950 . S
C2387 C2385 1.327 . S
C2388 C2376 1.349 . S
C2388 H2382 0.950 . S
C2388 C2389 1.327 . S
C2389 H2383 0.950 . S
C2389 C2388 1.327 . S
C2389 C2393 1.429 . S
C2390 C2373 1.574 . S
C2390 H2384 0.949 . S
C2390 C2394 1.368 . S
C2391 C2372 1.429 . S
C2391 C2385 1.429 . S
C2391 C2392 1.523 . S
C2392 C2373 1.368 . S
C2392 C2386 1.368 . S
C2392 C2391 1.523 . S
C2393 C2377 1.429 . S
C2393 C2389 1.429 . S
C2393 C2394 1.523 . S
C2394 C2378 1.368 . S
C2394 C2390 1.368 . S
C2394 C2393 1.523 . S
H2395 C2370 0.950 . S
H2396 C2372 0.950 . S
H2397 C2373 0.949 . S
H2398 C2375 0.950 . S
H2399 C2377 0.950 . S
C2400 C2401 1.349 . S
C2400 C2402 1.327 . S
C2400 H2425 0.950 . S
C2401 C2400 1.349 . S
C2401 C2417 1.349 . S
C2402 C2400 1.327 . S
C2402 C2421 1.429 . S
C2402 H2426 0.950 . S
C2403 C2420 1.574 . S
C2403 C2422 1.368 . S
C2403 H2427 0.949 . S
H2404 C2408 0.949 . S
C2405 C2406 1.349 . S
C2405 C2407 1.327 . S
C2405 H2428 0.950 . S
C2406 C2405 1.349 . S
C2406 C2418 1.349 . S
C2407 C2405 1.327 . S
C2407 C2423 1.429 . S
C2407 H2429 0.950 . S
C2408 H2404 0.949 . S
C2408 C2416 1.574 . S
C2408 C2424 1.368 . S
H2409 C2417 0.950 . S
H2410 C2415 0.950 . S
H2411 C2416 0.949 . S
H2412 C2418 0.950 . S
H2413 C2419 0.950 . S
H2414 C2420 0.949 . S
C2415 H2410 0.950 . S
C2415 C2417 1.327 . S
C2415 C2421 1.429 . S
C2416 C2408 1.574 . S
C2416 H2411 0.949 . S
C2416 C2422 1.368 . S
C2417 C2401 1.349 . S
C2417 H2409 0.950 . S
C2417 C2415 1.327 . S
C2418 C2406 1.349 . S
C2418 H2412 0.950 . S
C2418 C2419 1.327 . S
C2419 H2413 0.950 . S
C2419 C2418 1.327 . S
C2419 C2423 1.429 . S
C2420 C2403 1.574 . S
C2420 H2414 0.949 . S
C2420 C2424 1.368 . S
C2421 C2402 1.429 . S
C2421 C2415 1.429 . S
C2421 C2422 1.523 . S
C2422 C2403 1.368 . S
C2422 C2416 1.368 . S
C2422 C2421 1.523 . S
C2423 C2407 1.429 . S
C2423 C2419 1.429 . S
C2423 C2424 1.523 . S
C2424 C2408 1.368 . S
C2424 C2420 1.368 . S
C2424 C2423 1.523 . S
H2425 C2400 0.950 . S
H2426 C2402 0.950 . S
H2427 C2403 0.949 . S
H2428 C2405 0.950 . S
H2429 C2407 0.950 . S
C2430 C2431 1.349 . S
C2430 C2432 1.327 . S
C2430 H2455 0.950 . S
C2431 C2430 1.349 . S
C2431 C2447 1.349 . S
C2432 C2430 1.327 . S
C2432 C2451 1.429 . S
C2432 H2456 0.950 . S
C2433 C2450 1.574 . S
C2433 C2452 1.368 . S
C2433 H2457 0.949 . S
H2434 C2438 0.949 . S
C2435 C2436 1.349 . S
C2435 C2437 1.327 . S
C2435 H2458 0.950 . S
C2436 C2435 1.349 . S
C2436 C2448 1.349 . S
C2437 C2435 1.327 . S
C2437 C2453 1.429 . S
C2437 H2459 0.950 . S
C2438 H2434 0.949 . S
C2438 C2446 1.574 . S
C2438 C2454 1.368 . S
H2439 C2447 0.950 . S
H2440 C2445 0.950 . S
H2441 C2446 0.949 . S
H2442 C2448 0.950 . S
H2443 C2449 0.950 . S
H2444 C2450 0.949 . S
C2445 H2440 0.950 . S
C2445 C2447 1.327 . S
C2445 C2451 1.429 . S
C2446 C2438 1.574 . S
C2446 H2441 0.949 . S
C2446 C2452 1.368 . S
C2447 C2431 1.349 . S
C2447 H2439 0.950 . S
C2447 C2445 1.327 . S
C2448 C2436 1.349 . S
C2448 H2442 0.950 . S
C2448 C2449 1.327 . S
C2449 H2443 0.950 . S
C2449 C2448 1.327 . S
C2449 C2453 1.429 . S
C2450 C2433 1.574 . S
C2450 H2444 0.949 . S
C2450 C2454 1.368 . S
C2451 C2432 1.429 . S
C2451 C2445 1.429 . S
C2451 C2452 1.523 . S
C2452 C2433 1.368 . S
C2452 C2446 1.368 . S
C2452 C2451 1.523 . S
C2453 C2437 1.429 . S
C2453 C2449 1.429 . S
C2453 C2454 1.523 . S
C2454 C2438 1.368 . S
C2454 C2450 1.368 . S
C2454 C2453 1.523 . S
H2455 C2430 0.950 . S
H2456 C2432 0.950 . S
H2457 C2433 0.949 . S
H2458 C2435 0.950 . S
H2459 C2437 0.950 . S
C2460 C2461 1.349 . S
C2460 C2462 1.327 . S
C2460 H2485 0.950 . S
C2461 C2460 1.349 . S
C2461 C2477 1.349 . S
C2462 C2460 1.327 . S
C2462 C2481 1.429 . S
C2462 H2486 0.950 . S
C2463 C2480 1.574 . S
C2463 C2482 1.368 . S
C2463 H2487 0.949 . S
H2464 C2468 0.949 . S
C2465 C2466 1.349 . S
C2465 C2467 1.327 . S
C2465 H2488 0.950 . S
C2466 C2465 1.349 . S
C2466 C2478 1.349 . S
C2467 C2465 1.327 . S
C2467 C2483 1.429 . S
C2467 H2489 0.950 . S
C2468 H2464 0.949 . S
C2468 C2476 1.574 . S
C2468 C2484 1.368 . S
H2469 C2477 0.950 . S
H2470 C2475 0.950 . S
H2471 C2476 0.949 . S
H2472 C2478 0.950 . S
H2473 C2479 0.950 . S
H2474 C2480 0.949 . S
C2475 H2470 0.950 . S
C2475 C2477 1.327 . S
C2475 C2481 1.429 . S
C2476 C2468 1.574 . S
C2476 H2471 0.949 . S
C2476 C2482 1.368 . S
C2477 C2461 1.349 . S
C2477 H2469 0.950 . S
C2477 C2475 1.327 . S
C2478 C2466 1.349 . S
C2478 H2472 0.950 . S
C2478 C2479 1.327 . S
C2479 H2473 0.950 . S
C2479 C2478 1.327 . S
C2479 C2483 1.429 . S
C2480 C2463 1.574 . S
C2480 H2474 0.949 . S
C2480 C2484 1.368 . S
C2481 C2462 1.429 . S
C2481 C2475 1.429 . S
C2481 C2482 1.523 . S
C2482 C2463 1.368 . S
C2482 C2476 1.368 . S
C2482 C2481 1.523 . S
C2483 C2467 1.429 . S
C2483 C2479 1.429 . S
C2483 C2484 1.523 . S
C2484 C2468 1.368 . S
C2484 C2480 1.368 . S
C2484 C2483 1.523 . S
H2485 C2460 0.950 . S
H2486 C2462 0.950 . S
H2487 C2463 0.949 . S
H2488 C2465 0.950 . S
H2489 C2467 0.950 . S
C2490 C2491 1.349 . S
C2490 C2492 1.327 . S
C2490 H2515 0.950 . S
C2491 C2490 1.349 . S
C2491 C2507 1.349 . S
C2492 C2490 1.327 . S
C2492 C2511 1.429 . S
C2492 H2516 0.950 . S
C2493 C2510 1.574 . S
C2493 C2512 1.368 . S
C2493 H2517 0.949 . S
H2494 C2498 0.949 . S
C2495 C2496 1.349 . S
C2495 C2497 1.327 . S
C2495 H2518 0.950 . S
C2496 C2495 1.349 . S
C2496 C2508 1.349 . S
C2497 C2495 1.327 . S
C2497 C2513 1.429 . S
C2497 H2519 0.950 . S
C2498 H2494 0.949 . S
C2498 C2506 1.574 . S
C2498 C2514 1.368 . S
H2499 C2507 0.950 . S
H2500 C2505 0.950 . S
H2501 C2506 0.949 . S
H2502 C2508 0.950 . S
H2503 C2509 0.950 . S
H2504 C2510 0.949 . S
C2505 H2500 0.950 . S
C2505 C2507 1.327 . S
C2505 C2511 1.429 . S
C2506 C2498 1.574 . S
C2506 H2501 0.949 . S
C2506 C2512 1.368 . S
C2507 C2491 1.349 . S
C2507 H2499 0.950 . S
C2507 C2505 1.327 . S
C2508 C2496 1.349 . S
C2508 H2502 0.950 . S
C2508 C2509 1.327 . S
C2509 H2503 0.950 . S
C2509 C2508 1.327 . S
C2509 C2513 1.429 . S
C2510 C2493 1.574 . S
C2510 H2504 0.949 . S
C2510 C2514 1.368 . S
C2511 C2492 1.429 . S
C2511 C2505 1.429 . S
C2511 C2512 1.523 . S
C2512 C2493 1.368 . S
C2512 C2506 1.368 . S
C2512 C2511 1.523 . S
C2513 C2497 1.429 . S
C2513 C2509 1.429 . S
C2513 C2514 1.523 . S
C2514 C2498 1.368 . S
C2514 C2510 1.368 . S
C2514 C2513 1.523 . S
H2515 C2490 0.950 . S
H2516 C2492 0.950 . S
H2517 C2493 0.949 . S
H2518 C2495 0.950 . S
H2519 C2497 0.950 . S
C2520 C2521 1.349 . S
C2520 C2522 1.327 . S
C2520 H2545 0.950 . S
C2521 C2520 1.349 . S
C2521 C2537 1.349 . S
C2522 C2520 1.327 . S
C2522 C2541 1.429 . S
C2522 H2546 0.950 . S
C2523 C2540 1.574 . S
C2523 C2542 1.368 . S
C2523 H2547 0.949 . S
H2524 C2528 0.949 . S
C2525 C2526 1.349 . S
C2525 C2527 1.327 . S
C2525 H2548 0.950 . S
C2526 C2525 1.349 . S
C2526 C2538 1.349 . S
C2527 C2525 1.327 . S
C2527 C2543 1.429 . S
C2527 H2549 0.950 . S
C2528 H2524 0.949 . S
C2528 C2536 1.574 . S
C2528 C2544 1.368 . S
H2529 C2537 0.950 . S
H2530 C2535 0.950 . S
H2531 C2536 0.949 . S
H2532 C2538 0.950 . S
H2533 C2539 0.950 . S
H2534 C2540 0.949 . S
C2535 H2530 0.950 . S
C2535 C2537 1.327 . S
C2535 C2541 1.429 . S
C2536 C2528 1.574 . S
C2536 H2531 0.949 . S
C2536 C2542 1.368 . S
C2537 C2521 1.349 . S
C2537 H2529 0.950 . S
C2537 C2535 1.327 . S
C2538 C2526 1.349 . S
C2538 H2532 0.950 . S
C2538 C2539 1.327 . S
C2539 H2533 0.950 . S
C2539 C2538 1.327 . S
C2539 C2543 1.429 . S
C2540 C2523 1.574 . S
C2540 H2534 0.949 . S
C2540 C2544 1.368 . S
C2541 C2522 1.429 . S
C2541 C2535 1.429 . S
C2541 C2542 1.523 . S
C2542 C2523 1.368 . S
C2542 C2536 1.368 . S
C2542 C2541 1.523 . S
C2543 C2527 1.429 . S
C2543 C2539 1.429 . S
C2543 C2544 1.523 . S
C2544 C2528 1.368 . S
C2544 C2540 1.368 . S
C2544 C2543 1.523 . S
H2545 C2520 0.950 . S
H2546 C2522 0.950 . S
H2547 C2523 0.949 . S
H2548 C2525 0.950 . S
H2549 C2527 0.950 . S
C2550 C2551 1.349 . S
C2550 C2552 1.327 . S
C2550 H2575 0.950 . S
C2551 C2550 1.349 . S
C2551 C2567 1.349 . S
C2552 C2550 1.327 . S
C2552 C2571 1.436 . S
C2552 H2576 0.950 1_545 S
C2553 C2570 1.574 . S
C2553 C2572 1.368 . S
C2553 H2577 0.949 . S
H2554 C2558 0.949 . S
C2555 C2556 1.349 . S
C2555 C2557 1.327 . S
C2555 H2578 0.950 . S
C2556 C2555 1.349 . S
C2556 C2568 1.349 . S
C2557 C2555 1.327 . S
C2557 C2573 1.429 . S
C2557 H2579 0.950 . S
C2558 H2554 0.949 . S
C2558 C2566 1.574 . S
C2558 C2574 1.368 . S
H2559 C2567 0.950 . S
H2560 C2565 0.950 . S
H2561 C2566 0.949 . S
H2562 C2568 0.950 . S
H2563 C2569 0.950 . S
H2564 C2570 0.949 . S
C2565 H2560 0.950 . S
C2565 C2567 1.327 . S
C2565 C2571 1.439 . S
C2566 C2558 1.574 . S
C2566 H2561 0.949 . S
C2566 C2572 1.368 . S
C2567 C2551 1.349 . S
C2567 H2559 0.950 . S
C2567 C2565 1.327 . S
C2568 C2556 1.349 . S
C2568 H2562 0.950 . S
C2568 C2569 1.327 . S
C2569 H2563 0.950 . S
C2569 C2568 1.327 . S
C2569 C2573 1.429 . S
C2570 C2553 1.574 . S
C2570 H2564 0.949 . S
C2570 C2574 1.368 . S
C2571 C2552 1.436 . S
C2571 C2565 1.439 . S
C2571 C2572 1.507 1_545 S
C2572 C2553 1.368 . S
C2572 C2566 1.368 . S
C2572 C2571 1.507 1_565 S
C2573 C2557 1.429 . S
C2573 C2569 1.429 . S
C2573 C2574 1.523 . S
C2574 C2558 1.368 . S
C2574 C2570 1.368 . S
C2574 C2573 1.523 . S
H2575 C2550 0.950 . S
H2576 C2552 0.950 1_565 S
H2577 C2553 0.949 . S
H2578 C2555 0.950 . S
H2579 C2557 0.950 . S
C2580 C2581 1.349 . S
C2580 C2582 1.327 . S
C2580 H2605 0.950 . S
C2581 C2580 1.349 . S
C2581 C2597 1.349 . S
C2582 C2580 1.327 . S
C2582 C2601 1.429 . S
C2582 H2606 0.950 . S
C2583 C2600 1.574 . S
C2583 C2602 1.368 . S
C2583 H2607 0.949 . S
H2584 C2588 0.949 1_655 S
C2585 C2586 1.349 . S
C2585 C2587 1.327 1_655 S
C2585 H2608 0.950 . S
C2586 C2585 1.349 . S
C2586 C2598 1.349 . S
C2587 C2585 1.327 1_455 S
C2587 C2603 1.420 1_455 S
C2587 H2609 0.950 . S
C2588 H2584 0.949 1_455 S
C2588 C2596 1.574 . S
C2588 C2604 1.368 . S
H2589 C2597 0.950 . S
H2590 C2595 0.950 . S
H2591 C2596 0.949 . S
H2592 C2598 0.950 . S
H2593 C2599 0.950 . S
H2594 C2600 0.949 . S
C2595 H2590 0.950 . S
C2595 C2597 1.327 . S
C2595 C2601 1.429 . S
C2596 C2588 1.574 . S
C2596 H2591 0.949 . S
C2596 C2602 1.368 . S
C2597 C2581 1.349 . S
C2597 H2589 0.950 . S
C2597 C2595 1.327 . S
C2598 C2586 1.349 . S
C2598 H2592 0.950 . S
C2598 C2599 1.327 . S
C2599 H2593 0.950 . S
C2599 C2598 1.327 . S
C2599 C2603 1.436 . S
C2600 C2583 1.574 . S
C2600 H2594 0.949 . S
C2600 C2604 1.368 . S
C2601 C2582 1.429 . S
C2601 C2595 1.429 . S
C2601 C2602 1.523 . S
C2602 C2583 1.368 . S
C2602 C2596 1.368 . S
C2602 C2601 1.523 . S
C2603 C2587 1.420 1_655 S
C2603 C2599 1.436 . S
C2603 C2604 1.524 1_655 S
C2604 C2588 1.368 . S
C2604 C2600 1.368 . S
C2604 C2603 1.524 1_455 S
H2605 C2580 0.950 . S
H2606 C2582 0.950 . S
H2607 C2583 0.949 . S
H2608 C2585 0.950 . S
H2609 C2587 0.950 . S
C2610 C2611 1.349 . S
C2610 C2612 1.327 . S
C2610 H2635 0.950 . S
C2611 C2610 1.349 . S
C2611 C2627 1.349 . S
C2612 C2610 1.327 . S
C2612 C2631 1.429 . S
C2612 H2636 0.950 . S
C2613 C2630 1.574 . S
C2613 C2632 1.368 . S
C2613 H2637 0.949 . S
H2614 C2618 0.949 . S
C2615 C2616 1.349 . S
C2615 C2617 1.327 . S
C2615 H2638 0.950 . S
C2616 C2615 1.349 . S
C2616 C2628 1.349 . S
C2617 C2615 1.327 . S
C2617 C2633 1.429 . S
C2617 H2639 0.950 . S
C2618 H2614 0.949 . S
C2618 C2626 1.574 . S
C2618 C2634 1.368 . S
H2619 C2627 0.950 . S
H2620 C2625 0.950 . S
H2621 C2626 0.949 . S
H2622 C2628 0.950 . S
H2623 C2629 0.950 . S
H2624 C2630 0.949 . S
C2625 H2620 0.950 . S
C2625 C2627 1.327 . S
C2625 C2631 1.429 . S
C2626 C2618 1.574 . S
C2626 H2621 0.949 . S
C2626 C2632 1.368 . S
C2627 C2611 1.349 . S
C2627 H2619 0.950 . S
C2627 C2625 1.327 . S
C2628 C2616 1.349 . S
C2628 H2622 0.950 . S
C2628 C2629 1.327 . S
C2629 H2623 0.950 . S
C2629 C2628 1.327 . S
C2629 C2633 1.429 . S
C2630 C2613 1.574 . S
C2630 H2624 0.949 . S
C2630 C2634 1.368 . S
C2631 C2612 1.429 . S
C2631 C2625 1.429 . S
C2631 C2632 1.523 . S
C2632 C2613 1.368 . S
C2632 C2626 1.368 . S
C2632 C2631 1.523 . S
C2633 C2617 1.429 . S
C2633 C2629 1.429 . S
C2633 C2634 1.523 . S
C2634 C2618 1.368 . S
C2634 C2630 1.368 . S
C2634 C2633 1.523 . S
H2635 C2610 0.950 . S
H2636 C2612 0.950 . S
H2637 C2613 0.949 . S
H2638 C2615 0.950 . S
H2639 C2617 0.950 . S
C2640 C2641 1.349 . S
C2640 C2642 1.327 . S
C2640 H2665 0.950 . S
C2641 C2640 1.349 . S
C2641 C2657 1.349 . S
C2642 C2640 1.327 . S
C2642 C2661 1.418 1_565 S
C2642 H2666 0.950 . S
C2643 C2660 1.574 . S
C2643 C2662 1.368 . S
C2643 H2667 0.949 . S
H2644 C2648 0.949 . S
C2645 C2646 1.349 . S
C2645 C2647 1.327 . S
C2645 H2668 0.950 . S
C2646 C2645 1.349 . S
C2646 C2658 1.349 . S
C2647 C2645 1.327 . S
C2647 C2663 1.429 . S
C2647 H2669 0.950 . S
C2648 H2644 0.949 . S
C2648 C2656 1.574 . S
C2648 C2664 1.368 . S
H2649 C2657 0.950 . S
H2650 C2655 0.950 . S
H2651 C2656 0.950 1_565 S
H2652 C2658 0.950 . S
H2653 C2659 0.950 . S
H2654 C2660 0.949 . S
C2655 H2650 0.950 . S
C2655 C2657 1.327 1_545 S
C2655 C2661 1.442 . S
C2656 C2648 1.574 . S
C2656 H2651 0.950 1_545 S
C2656 C2662 1.368 . S
C2657 C2641 1.349 . S
C2657 H2649 0.950 . S
C2657 C2655 1.327 1_565 S
C2658 C2646 1.349 . S
C2658 H2652 0.950 . S
C2658 C2659 1.327 . S
C2659 H2653 0.950 . S
C2659 C2658 1.327 . S
C2659 C2663 1.429 . S
C2660 C2643 1.574 . S
C2660 H2654 0.949 . S
C2660 C2664 1.368 . S
C2661 C2642 1.418 1_545 S
C2661 C2655 1.442 . S
C2661 C2662 1.521 . S
C2662 C2643 1.368 . S
C2662 C2656 1.368 . S
C2662 C2661 1.521 . S
C2663 C2647 1.429 . S
C2663 C2659 1.429 . S
C2663 C2664 1.523 . S
C2664 C2648 1.368 . S
C2664 C2660 1.368 . S
C2664 C2663 1.523 . S
H2665 C2640 0.950 . S
H2666 C2642 0.950 . S
H2667 C2643 0.949 . S
H2668 C2645 0.950 . S
H2669 C2647 0.950 . S
C2670 C2671 1.349 . S
C2670 C2672 1.327 . S
C2670 H2695 0.950 . S
C2671 C2670 1.349 . S
C2671 C2687 1.349 . S
C2672 C2670 1.327 . S
C2672 C2691 1.429 . S
C2672 H2696 0.950 . S
C2673 C2690 1.574 . S
C2673 C2692 1.368 . S
C2673 H2697 0.949 . S
H2674 C2678 0.949 . S
C2675 C2676 1.349 . S
C2675 C2677 1.327 . S
C2675 H2698 0.950 . S
C2676 C2675 1.349 . S
C2676 C2688 1.349 . S
C2677 C2675 1.327 . S
C2677 C2693 1.410 1_455 S
C2677 H2699 0.950 . S
C2678 H2674 0.949 . S
C2678 C2686 1.574 . S
C2678 C2694 1.368 . S
H2679 C2687 0.950 . S
H2680 C2685 0.950 . S
H2681 C2686 0.949 . S
H2682 C2688 0.950 . S
H2683 C2689 0.950 1_655 S
H2684 C2690 0.949 . S
C2685 H2680 0.950 . S
C2685 C2687 1.327 . S
C2685 C2691 1.429 . S
C2686 C2678 1.574 . S
C2686 H2681 0.949 . S
C2686 C2692 1.368 . S
C2687 C2671 1.349 . S
C2687 H2679 0.950 . S
C2687 C2685 1.327 . S
C2688 C2676 1.349 . S
C2688 H2682 0.950 . S
C2688 C2689 1.327 . S
C2689 H2683 0.950 1_455 S
C2689 C2688 1.327 . S
C2689 C2693 1.418 1_455 S
C2690 C2673 1.574 . S
C2690 H2684 0.949 . S
C2690 C2694 1.368 . S
C2691 C2672 1.429 . S
C2691 C2685 1.429 . S
C2691 C2692 1.523 . S
C2692 C2673 1.368 . S
C2692 C2686 1.368 . S
C2692 C2691 1.523 . S
C2693 C2677 1.410 1_655 S
C2693 C2689 1.418 1_655 S
C2693 C2694 1.551 . S
C2694 C2678 1.368 . S
C2694 C2690 1.368 . S
C2694 C2693 1.551 . S
H2695 C2670 0.950 . S
H2696 C2672 0.950 . S
H2697 C2673 0.949 . S
H2698 C2675 0.950 . S
H2699 C2677 0.950 . S
C2700 C2701 1.349 . S
C2700 C2702 1.327 . S
C2700 H2725 0.950 . S
C2701 C2700 1.349 . S
C2701 C2717 1.349 . S
C2702 C2700 1.327 . S
C2702 C2721 1.429 . S
C2702 H2726 0.950 . S
C2703 C2720 1.574 . S
C2703 C2722 1.368 . S
C2703 H2727 0.949 . S
H2704 C2708 0.949 . S
C2705 C2706 1.349 . S
C2705 C2707 1.327 . S
C2705 H2728 0.950 . S
C2706 C2705 1.349 . S
C2706 C2718 1.349 . S
C2707 C2705 1.327 . S
C2707 C2723 1.429 . S
C2707 H2729 0.950 . S
C2708 H2704 0.949 . S
C2708 C2716 1.574 . S
C2708 C2724 1.368 . S
H2709 C2717 0.950 . S
H2710 C2715 0.950 . S
H2711 C2716 0.949 . S
H2712 C2718 0.950 . S
H2713 C2719 0.950 . S
H2714 C2720 0.949 . S
C2715 H2710 0.950 . S
C2715 C2717 1.327 . S
C2715 C2721 1.429 . S
C2716 C2708 1.574 . S
C2716 H2711 0.949 . S
C2716 C2722 1.368 . S
C2717 C2701 1.349 . S
C2717 H2709 0.950 . S
C2717 C2715 1.327 . S
C2718 C2706 1.349 . S
C2718 H2712 0.950 . S
C2718 C2719 1.327 . S
C2719 H2713 0.950 . S
C2719 C2718 1.327 . S
C2719 C2723 1.429 . S
C2720 C2703 1.574 . S
C2720 H2714 0.949 . S
C2720 C2724 1.368 . S
C2721 C2702 1.429 . S
C2721 C2715 1.429 . S
C2721 C2722 1.523 . S
C2722 C2703 1.368 . S
C2722 C2716 1.368 . S
C2722 C2721 1.523 . S
C2723 C2707 1.429 . S
C2723 C2719 1.429 . S
C2723 C2724 1.523 . S
C2724 C2708 1.368 . S
C2724 C2720 1.368 . S
C2724 C2723 1.523 . S
H2725 C2700 0.950 . S
H2726 C2702 0.950 . S
H2727 C2703 0.949 . S
H2728 C2705 0.950 . S
H2729 C2707 0.950 . S
C2730 C2731 1.349 . S
C2730 C2732 1.327 . S
C2730 H2755 0.950 . S
C2731 C2730 1.349 . S
C2731 C2747 1.349 . S
C2732 C2730 1.327 . S
C2732 C2751 1.429 . S
C2732 H2756 0.950 . S
C2733 C2750 1.574 . S
C2733 C2752 1.368 . S
C2733 H2757 0.949 . S
H2734 C2738 0.949 . S
C2735 C2736 1.349 . S
C2735 C2737 1.327 . S
C2735 H2758 0.950 . S
C2736 C2735 1.349 . S
C2736 C2748 1.349 . S
C2737 C2735 1.327 . S
C2737 C2753 1.439 . S
C2737 H2759 0.950 . S
C2738 H2734 0.949 . S
C2738 C2746 1.574 . S
C2738 C2754 1.368 . S
H2739 C2747 0.950 . S
H2740 C2745 0.950 . S
H2741 C2746 0.949 . S
H2742 C2748 0.950 . S
H2743 C2749 0.951 . S
H2744 C2750 0.957 . S
C2745 H2740 0.950 . S
C2745 C2747 1.327 . S
C2745 C2751 1.429 . S
C2746 C2738 1.574 . S
C2746 H2741 0.949 . S
C2746 C2752 1.368 . S
C2747 C2731 1.349 . S
C2747 H2739 0.950 . S
C2747 C2745 1.327 . S
C2748 C2736 1.349 . S
C2748 H2742 0.950 . S
C2748 C2749 1.324 1_565 S
C2749 H2743 0.951 . S
C2749 C2748 1.324 1_545 S
C2749 C2753 1.437 1_545 S
C2750 C2733 1.574 . S
C2750 H2744 0.957 . S
C2750 C2754 1.368 . S
C2751 C2732 1.429 . S
C2751 C2745 1.429 . S
C2751 C2752 1.523 . S
C2752 C2733 1.368 . S
C2752 C2746 1.368 . S
C2752 C2751 1.523 . S
C2753 C2737 1.439 . S
C2753 C2749 1.437 1_565 S
C2753 C2754 1.507 1_565 S
C2754 C2738 1.368 . S
C2754 C2750 1.368 . S
C2754 C2753 1.507 1_545 S
H2755 C2730 0.950 . S
H2756 C2732 0.950 . S
H2757 C2733 0.949 . S
H2758 C2735 0.950 . S
H2759 C2737 0.950 . S
C2760 C2761 1.349 . S
C2760 C2762 1.327 . S
C2760 H2785 0.950 . S
C2761 C2760 1.349 . S
C2761 C2777 1.349 . S
C2762 C2760 1.327 . S
C2762 C2781 1.429 . S
C2762 H2786 0.950 . S
C2763 C2780 1.574 . S
C2763 C2782 1.368 . S
C2763 H2787 0.949 . S
H2764 C2768 0.949 . S
C2765 C2766 1.349 . S
C2765 C2767 1.327 . S
C2765 H2788 0.950 . S
C2766 C2765 1.349 . S
C2766 C2778 1.349 . S
C2767 C2765 1.327 . S
C2767 C2783 1.435 . S
C2767 H2789 0.950 . S
C2768 H2764 0.949 . S
C2768 C2776 1.574 . S
C2768 C2784 1.368 . S
H2769 C2777 0.950 . S
H2770 C2775 0.950 . S
H2771 C2776 0.949 . S
H2772 C2778 0.950 . S
H2773 C2779 0.961 . S
H2774 C2780 0.942 1_455 S
C2775 H2770 0.950 . S
C2775 C2777 1.327 . S
C2775 C2781 1.429 . S
C2776 C2768 1.574 . S
C2776 H2771 0.949 . S
C2776 C2782 1.368 . S
C2777 C2761 1.349 . S
C2777 H2769 0.950 . S
C2777 C2775 1.327 . S
C2778 C2766 1.349 . S
C2778 H2772 0.950 . S
C2778 C2779 1.329 1_455 S
C2779 H2773 0.961 . S
C2779 C2778 1.329 1_655 S
C2779 C2783 1.409 1_655 S
C2780 C2763 1.574 . S
C2780 H2774 0.942 1_655 S
C2780 C2784 1.368 . S
C2781 C2762 1.429 . S
C2781 C2775 1.429 . S
C2781 C2782 1.523 . S
C2782 C2763 1.368 . S
C2782 C2776 1.368 . S
C2782 C2781 1.523 . S
C2783 C2767 1.435 . S
C2783 C2779 1.409 1_455 S
C2783 C2784 1.524 1_455 S
C2784 C2768 1.368 . S
C2784 C2780 1.368 . S
C2784 C2783 1.524 1_655 S
H2785 C2760 0.950 . S
H2786 C2762 0.950 . S
H2787 C2763 0.949 . S
H2788 C2765 0.950 . S
H2789 C2767 0.950 . S
C2790 C2791 1.349 . S
C2790 C2792 1.327 . S
C2790 H2815 0.950 . S
C2791 C2790 1.349 . S
C2791 C2807 1.349 . S
C2792 C2790 1.327 . S
C2792 C2811 1.429 . S
C2792 H2816 0.950 . S
C2793 C2810 1.574 . S
C2793 C2812 1.368 . S
C2793 H2817 0.949 . S
H2794 C2798 0.949 . S
C2795 C2796 1.349 . S
C2795 C2797 1.327 . S
C2795 H2818 0.950 . S
C2796 C2795 1.349 . S
C2796 C2808 1.349 . S
C2797 C2795 1.327 . S
C2797 C2813 1.429 . S
C2797 H2819 0.950 . S
C2798 H2794 0.949 . S
C2798 C2806 1.574 . S
C2798 C2814 1.368 . S
H2799 C2807 0.950 . S
H2800 C2805 0.950 . S
H2801 C2806 0.949 . S
H2802 C2808 0.950 . S
H2803 C2809 0.950 . S
H2804 C2810 0.949 . S
C2805 H2800 0.950 . S
C2805 C2807 1.327 . S
C2805 C2811 1.429 . S
C2806 C2798 1.574 . S
C2806 H2801 0.949 . S
C2806 C2812 1.368 . S
C2807 C2791 1.349 . S
C2807 H2799 0.950 . S
C2807 C2805 1.327 . S
C2808 C2796 1.349 . S
C2808 H2802 0.950 . S
C2808 C2809 1.327 . S
C2809 H2803 0.950 . S
C2809 C2808 1.327 . S
C2809 C2813 1.429 . S
C2810 C2793 1.574 . S
C2810 H2804 0.949 . S
C2810 C2814 1.368 . S
C2811 C2792 1.429 . S
C2811 C2805 1.429 . S
C2811 C2812 1.523 . S
C2812 C2793 1.368 . S
C2812 C2806 1.368 . S
C2812 C2811 1.523 . S
C2813 C2797 1.429 . S
C2813 C2809 1.429 . S
C2813 C2814 1.523 . S
C2814 C2798 1.368 . S
C2814 C2810 1.368 . S
C2814 C2813 1.523 . S
H2815 C2790 0.950 . S
H2816 C2792 0.950 . S
H2817 C2793 0.949 . S
H2818 C2795 0.950 . S
H2819 C2797 0.950 . S
C2820 C2821 1.349 . S
C2820 C2822 1.327 1_545 S
C2820 H2845 0.950 1_545 S
C2821 C2820 1.349 . S
C2821 C2837 1.349 . S
C2822 C2820 1.327 1_565 S
C2822 C2841 1.449 . S
C2822 H2846 0.950 . S
C2823 C2840 1.574 . S
C2823 C2842 1.368 . S
C2823 H2847 0.949 1_565 S
H2824 C2828 0.949 . S
C2825 C2826 1.349 . S
C2825 C2827 1.327 . S
C2825 H2848 0.950 . S
C2826 C2825 1.349 . S
C2826 C2838 1.349 . S
C2827 C2825 1.327 . S
C2827 C2843 1.429 . S
C2827 H2849 0.950 . S
C2828 H2824 0.949 . S
C2828 C2836 1.574 . S
C2828 C2844 1.368 . S
H2829 C2837 0.950 . S
H2830 C2835 0.950 . S
H2831 C2836 0.949 . S
H2832 C2838 0.950 . S
H2833 C2839 0.950 . S
H2834 C2840 0.949 . S
C2835 H2830 0.950 . S
C2835 C2837 1.327 . S
C2835 C2841 1.411 1_545 S
C2836 C2828 1.574 . S
C2836 H2831 0.949 . S
C2836 C2842 1.368 . S
C2837 C2821 1.349 . S
C2837 H2829 0.950 . S
C2837 C2835 1.327 . S
C2838 C2826 1.349 . S
C2838 H2832 0.950 . S
C2838 C2839 1.327 . S
C2839 H2833 0.950 . S
C2839 C2838 1.327 . S
C2839 C2843 1.429 . S
C2840 C2823 1.574 . S
C2840 H2834 0.949 . S
C2840 C2844 1.368 . S
C2841 C2822 1.449 . S
C2841 C2835 1.411 1_565 S
C2841 C2842 1.521 . S
C2842 C2823 1.368 . S
C2842 C2836 1.368 . S
C2842 C2841 1.521 . S
C2843 C2827 1.429 . S
C2843 C2839 1.429 . S
C2843 C2844 1.523 . S
C2844 C2828 1.368 . S
C2844 C2840 1.368 . S
C2844 C2843 1.523 . S
H2845 C2820 0.950 1_565 S
H2846 C2822 0.950 . S
H2847 C2823 0.949 1_545 S
H2848 C2825 0.950 . S
H2849 C2827 0.950 . S
C2850 C2851 1.349 . S
C2850 C2852 1.327 1_655 S
C2850 H2875 0.950 . S
C2851 C2850 1.349 . S
C2851 C2867 1.349 . S
C2852 C2850 1.327 1_455 S
C2852 C2871 1.423 . S
C2852 H2876 0.950 . S
C2853 C2870 1.574 . S
C2853 C2872 1.368 . S
C2853 H2877 0.949 1_455 S
H2854 C2858 0.949 . S
C2855 C2856 1.349 . S
C2855 C2857 1.327 . S
C2855 H2878 0.950 . S
C2856 C2855 1.349 . S
C2856 C2868 1.349 . S
C2857 C2855 1.327 . S
C2857 C2873 1.429 . S
C2857 H2879 0.950 . S
C2858 H2854 0.949 . S
C2858 C2866 1.574 . S
C2858 C2874 1.368 . S
H2859 C2867 0.950 . S
H2860 C2865 0.950 . S
H2861 C2866 0.949 . S
H2862 C2868 0.950 . S
H2863 C2869 0.950 . S
H2864 C2870 0.949 . S
C2865 H2860 0.950 . S
C2865 C2867 1.327 . S
C2865 C2871 1.404 1_655 S
C2866 C2858 1.574 . S
C2866 H2861 0.949 . S
C2866 C2872 1.368 . S
C2867 C2851 1.349 . S
C2867 H2859 0.950 . S
C2867 C2865 1.327 . S
C2868 C2856 1.349 . S
C2868 H2862 0.950 . S
C2868 C2869 1.327 . S
C2869 H2863 0.950 . S
C2869 C2868 1.327 . S
C2869 C2873 1.429 . S
C2870 C2853 1.574 . S
C2870 H2864 0.949 . S
C2870 C2874 1.368 . S
C2871 C2852 1.423 . S
C2871 C2865 1.404 1_455 S
C2871 C2872 1.551 . S
C2872 C2853 1.368 . S
C2872 C2866 1.368 . S
C2872 C2871 1.551 . S
C2873 C2857 1.429 . S
C2873 C2869 1.429 . S
C2873 C2874 1.523 . S
C2874 C2858 1.368 . S
C2874 C2870 1.368 . S
C2874 C2873 1.523 . S
H2875 C2850 0.950 . S
H2876 C2852 0.950 . S
H2877 C2853 0.949 1_655 S
H2878 C2855 0.950 . S
H2879 C2857 0.950 . S
C2880 C2881 1.349 . S
C2880 C2882 1.327 . S
C2880 H2905 0.950 . S
C2881 C2880 1.349 . S
C2881 C2897 1.349 . S
C2882 C2880 1.327 . S
C2882 C2901 1.429 . S
C2882 H2906 0.950 . S
C2883 C2900 1.574 1_655 S
C2883 C2902 1.368 . S
C2883 H2907 0.949 . S
H2884 C2888 0.949 . S
C2885 C2886 1.349 . S
C2885 C2887 1.327 . S
C2885 H2908 0.950 . S
C2886 C2885 1.349 . S
C2886 C2898 1.349 . S
C2887 C2885 1.327 . S
C2887 C2903 1.429 . S
C2887 H2909 0.950 . S
C2888 H2884 0.949 . S
C2888 C2896 1.574 . S
C2888 C2904 1.368 . S
H2889 C2897 0.950 . S
H2890 C2895 0.950 . S
H2891 C2896 0.949 1_655 S
H2892 C2898 0.950 . S
H2893 C2899 0.950 . S
H2894 C2900 0.949 . S
C2895 H2890 0.950 . S
C2895 C2897 1.327 . S
C2895 C2901 1.429 . S
C2896 C2888 1.574 . S
C2896 H2891 0.949 1_455 S
C2896 C2902 1.368 1_455 S
C2897 C2881 1.349 . S
C2897 H2889 0.950 . S
C2897 C2895 1.327 . S
C2898 C2886 1.349 . S
C2898 H2892 0.950 . S
C2898 C2899 1.327 . S
C2899 H2893 0.950 . S
C2899 C2898 1.327 . S
C2899 C2903 1.429 . S
C2900 C2883 1.574 1_455 S
C2900 H2894 0.949 . S
C2900 C2904 1.368 . S
C2901 C2882 1.429 . S
C2901 C2895 1.429 . S
C2901 C2902 1.523 . S
C2902 C2883 1.368 . S
C2902 C2896 1.368 1_655 S
C2902 C2901 1.523 . S
C2903 C2887 1.429 . S
C2903 C2899 1.429 . S
C2903 C2904 1.523 . S
C2904 C2888 1.368 . S
C2904 C2900 1.368 . S
C2904 C2903 1.523 . S
H2905 C2880 0.950 . S
H2906 C2882 0.950 . S
H2907 C2883 0.949 . S
H2908 C2885 0.950 . S
H2909 C2887 0.950 . S
C2910 C2911 1.349 . S
C2910 C2912 1.327 . S
C2910 H2935 0.950 . S
C2911 C2910 1.349 . S
C2911 C2927 1.349 . S
C2912 C2910 1.327 . S
C2912 C2931 1.429 . S
C2912 H2936 0.950 . S
C2913 C2930 1.574 . S
C2913 C2932 1.368 . S
C2913 H2937 0.949 . S
H2914 C2918 0.949 . S
C2915 C2916 1.349 . S
C2915 C2917 1.327 . S
C2915 H2938 0.950 . S
C2916 C2915 1.349 . S
C2916 C2928 1.349 . S
C2917 C2915 1.327 . S
C2917 C2933 1.429 . S
C2917 H2939 0.950 . S
C2918 H2914 0.949 . S
C2918 C2926 1.574 . S
C2918 C2934 1.368 . S
H2919 C2927 0.950 . S
H2920 C2925 0.950 . S
H2921 C2926 0.949 . S
H2922 C2928 0.950 . S
H2923 C2929 0.950 . S
H2924 C2930 0.949 . S
C2925 H2920 0.950 . S
C2925 C2927 1.327 . S
C2925 C2931 1.429 . S
C2926 C2918 1.574 . S
C2926 H2921 0.949 . S
C2926 C2932 1.368 . S
C2927 C2911 1.349 . S
C2927 H2919 0.950 . S
C2927 C2925 1.327 . S
C2928 C2916 1.349 . S
C2928 H2922 0.950 . S
C2928 C2929 1.327 . S
C2929 H2923 0.950 . S
C2929 C2928 1.327 . S
C2929 C2933 1.429 . S
C2930 C2913 1.574 . S
C2930 H2924 0.949 . S
C2930 C2934 1.368 . S
C2931 C2912 1.429 . S
C2931 C2925 1.429 . S
C2931 C2932 1.523 . S
C2932 C2913 1.368 . S
C2932 C2926 1.368 . S
C2932 C2931 1.523 . S
C2933 C2917 1.429 . S
C2933 C2929 1.429 . S
C2933 C2934 1.523 . S
C2934 C2918 1.368 . S
C2934 C2930 1.368 . S
C2934 C2933 1.523 . S
H2935 C2910 0.950 . S
H2936 C2912 0.950 . S
H2937 C2913 0.949 . S
H2938 C2915 0.950 . S
H2939 C2917 0.950 . S
C2940 C2941 1.349 . S
C2940 C2942 1.327 . S
C2940 H2965 0.950 . S
C2941 C2940 1.349 . S
C2941 C2957 1.349 . S
C2942 C2940 1.327 . S
C2942 C2961 1.429 . S
C2942 H2966 0.950 . S
C2943 C2960 1.574 . S
C2943 C2962 1.368 . S
C2943 H2967 0.949 . S
H2944 C2948 0.973 . S
C2945 C2946 1.349 . S
C2945 C2947 1.327 . S
C2945 H2968 0.950 . S
C2946 C2945 1.349 . S
C2946 C2958 1.349 . S
C2947 C2945 1.327 . S
C2947 C2963 1.429 . S
C2947 H2969 0.950 . S
C2948 H2944 0.973 . S
C2948 C2956 1.547 1_545 S
C2948 C2964 1.369 . S
H2949 C2957 0.950 . S
H2950 C2955 0.950 . S
H2951 C2956 0.949 . S
H2952 C2958 0.950 . S
H2953 C2959 0.950 . S
H2954 C2960 0.949 1_545 S
C2955 H2950 0.950 . S
C2955 C2957 1.327 . S
C2955 C2961 1.429 . S
C2956 C2948 1.547 1_565 S
C2956 H2951 0.949 . S
C2956 C2962 1.368 . S
C2957 C2941 1.349 . S
C2957 H2949 0.950 . S
C2957 C2955 1.327 . S
C2958 C2946 1.349 . S
C2958 H2952 0.950 . S
C2958 C2959 1.327 . S
C2959 H2953 0.950 . S
C2959 C2958 1.327 . S
C2959 C2963 1.429 . S
C2960 C2943 1.574 . S
C2960 H2954 0.949 1_565 S
C2960 C2964 1.368 1_565 S
C2961 C2942 1.429 . S
C2961 C2955 1.429 . S
C2961 C2962 1.523 . S
C2962 C2943 1.368 . S
C2962 C2956 1.368 . S
C2962 C2961 1.523 . S
C2963 C2947 1.429 . S
C2963 C2959 1.429 . S
C2963 C2964 1.523 . S
C2964 C2948 1.369 . S
C2964 C2960 1.368 1_545 S
C2964 C2963 1.523 . S
H2965 C2940 0.950 . S
H2966 C2942 0.950 . S
H2967 C2943 0.949 . S
H2968 C2945 0.950 . S
H2969 C2947 0.950 . S
C2970 C2971 1.349 . S
C2970 C2972 1.327 . S
C2970 H2995 0.950 . S
C2971 C2970 1.349 . S
C2971 C2987 1.349 . S
C2972 C2970 1.327 . S
C2972 C2991 1.429 . S
C2972 H2996 0.950 . S
C2973 C2990 1.574 . S
C2973 C2992 1.368 . S
C2973 H2997 0.949 . S
H2974 C2978 0.949 . S
C2975 C2976 1.330 1_455 S
C2975 C2977 1.330 . S
C2975 H2998 0.968 . S
C2976 C2975 1.330 1_655 S
C2976 C2988 1.349 . S
C2977 C2975 1.330 . S
C2977 C2993 1.429 . S
C2977 H2999 0.950 . S
C2978 H2974 0.949 . S
C2978 C2986 1.574 . S
C2978 C2994 1.368 . S
H2979 C2987 0.950 . S
H2980 C2985 0.950 . S
H2981 C2986 0.949 . S
H2982 C2988 0.950 . S
H2983 C2989 0.950 . S
H2984 C2990 0.949 . S
C2985 H2980 0.950 . S
C2985 C2987 1.327 . S
C2985 C2991 1.429 . S
C2986 C2978 1.574 . S
C2986 H2981 0.949 . S
C2986 C2992 1.368 . S
C2987 C2971 1.349 . S
C2987 H2979 0.950 . S
C2987 C2985 1.327 . S
C2988 C2976 1.349 . S
C2988 H2982 0.950 . S
C2988 C2989 1.327 . S
C2989 H2983 0.950 . S
C2989 C2988 1.327 . S
C2989 C2993 1.429 1_655 S
C2990 C2973 1.574 . S
C2990 H2984 0.949 . S
C2990 C2994 1.368 . S
C2991 C2972 1.429 . S
C2991 C2985 1.429 . S
C2991 C2992 1.523 . S
C2992 C2973 1.368 . S
C2992 C2986 1.368 . S
C2992 C2991 1.523 . S
C2993 C2977 1.429 . S
C2993 C2989 1.429 1_455 S
C2993 C2994 1.523 . S
C2994 C2978 1.368 . S
C2994 C2990 1.368 . S
C2994 C2993 1.523 . S
H2995 C2970 0.950 . S
H2996 C2972 0.950 . S
H2997 C2973 0.949 . S
H2998 C2975 0.968 . S
H2999 C2977 0.950 . S
C3000 C3001 1.349 . S
C3000 C3002 1.327 . S
C3000 H3025 0.950 . S
C3001 C3000 1.349 . S
C3001 C3017 1.349 . S
C3002 C3000 1.327 . S
C3002 C3021 1.429 . S
C3002 H3026 0.950 . S
C3003 C3020 1.574 . S
C3003 C3022 1.368 . S
C3003 H3027 0.949 . S
H3004 C3008 0.949 . S
C3005 C3006 1.349 . S
C3005 C3007 1.327 . S
C3005 H3028 0.950 . S
C3006 C3005 1.349 . S
C3006 C3018 1.349 . S
C3007 C3005 1.327 . S
C3007 C3023 1.429 . S
C3007 H3029 0.950 . S
C3008 H3004 0.949 . S
C3008 C3016 1.574 . S
C3008 C3024 1.368 . S
H3009 C3017 0.950 . S
H3010 C3015 0.950 . S
H3011 C3016 0.949 . S
H3012 C3018 0.950 . S
H3013 C3019 0.950 . S
H3014 C3020 0.949 . S
C3015 H3010 0.950 . S
C3015 C3017 1.327 . S
C3015 C3021 1.429 . S
C3016 C3008 1.574 . S
C3016 H3011 0.949 . S
C3016 C3022 1.368 . S
C3017 C3001 1.349 . S
C3017 H3009 0.950 . S
C3017 C3015 1.327 . S
C3018 C3006 1.349 . S
C3018 H3012 0.950 . S
C3018 C3019 1.327 . S
C3019 H3013 0.950 . S
C3019 C3018 1.327 . S
C3019 C3023 1.429 . S
C3020 C3003 1.574 . S
C3020 H3014 0.949 . S
C3020 C3024 1.368 . S
C3021 C3002 1.429 . S
C3021 C3015 1.429 . S
C3021 C3022 1.523 . S
C3022 C3003 1.368 . S
C3022 C3016 1.368 . S
C3022 C3021 1.523 . S
C3023 C3007 1.429 . S
C3023 C3019 1.429 . S
C3023 C3024 1.523 . S
C3024 C3008 1.368 . S
C3024 C3020 1.368 . S
C3024 C3023 1.523 . S
H3025 C3000 0.950 . S
H3026 C3002 0.950 . S
H3027 C3003 0.949 . S
H3028 C3005 0.950 . S
H3029 C3007 0.950 . S
C3030 C3031 1.349 . S
C3030 C3032 1.327 . S
C3030 H3055 0.950 . S
C3031 C3030 1.349 . S
C3031 C3047 1.349 . S
C3032 C3030 1.327 . S
C3032 C3051 1.429 . S
C3032 H3056 0.950 . S
C3033 C3050 1.574 . S
C3033 C3052 1.368 . S
C3033 H3057 0.949 . S
H3034 C3038 0.949 . S
C3035 C3036 1.349 1_565 S
C3035 C3037 1.327 . S
C3035 H3058 0.950 . S
C3036 C3035 1.349 1_545 S
C3036 C3048 1.349 . S
C3037 C3035 1.327 . S
C3037 C3053 1.429 . S
C3037 H3059 0.950 . S
C3038 H3034 0.949 . S
C3038 C3046 1.574 . S
C3038 C3054 1.368 . S
H3039 C3047 0.950 . S
H3040 C3045 0.950 . S
H3041 C3046 0.949 . S
H3042 C3048 0.950 . S
H3043 C3049 0.950 . S
H3044 C3050 0.949 . S
C3045 H3040 0.950 . S
C3045 C3047 1.327 . S
C3045 C3051 1.429 . S
C3046 C3038 1.574 . S
C3046 H3041 0.949 . S
C3046 C3052 1.368 . S
C3047 C3031 1.349 . S
C3047 H3039 0.950 . S
C3047 C3045 1.327 . S
C3048 C3036 1.349 . S
C3048 H3042 0.950 . S
C3048 C3049 1.327 . S
C3049 H3043 0.950 . S
C3049 C3048 1.327 . S
C3049 C3053 1.429 1_545 S
C3050 C3033 1.574 . S
C3050 H3044 0.949 . S
C3050 C3054 1.368 . S
C3051 C3032 1.429 . S
C3051 C3045 1.429 . S
C3051 C3052 1.523 . S
C3052 C3033 1.368 . S
C3052 C3046 1.368 . S
C3052 C3051 1.523 . S
C3053 C3037 1.429 . S
C3053 C3049 1.429 1_565 S
C3053 C3054 1.523 . S
C3054 C3038 1.368 . S
C3054 C3050 1.368 . S
C3054 C3053 1.523 . S
H3055 C3030 0.950 . S
H3056 C3032 0.950 . S
H3057 C3033 0.949 . S
H3058 C3035 0.950 . S
H3059 C3037 0.950 . S
C3060 C3061 1.349 . S
C3060 C3062 1.327 . S
C3060 H3085 0.950 . S
C3061 C3060 1.349 . S
C3061 C3077 1.349 . S
C3062 C3060 1.327 . S
C3062 C3081 1.429 . S
C3062 H3086 0.950 . S
C3063 C3080 1.574 . S
C3063 C3082 1.368 . S
C3063 H3087 0.949 . S
H3064 C3068 0.949 . S
C3065 C3066 1.349 . S
C3065 C3067 1.327 . S
C3065 H3088 0.950 . S
C3066 C3065 1.349 . S
C3066 C3078 1.349 . S
C3067 C3065 1.327 . S
C3067 C3083 1.429 1_545 S
C3067 H3089 0.950 . S
C3068 H3064 0.949 . S
C3068 C3076 1.574 . S
C3068 C3084 1.368 . S
H3069 C3077 0.950 . S
H3070 C3075 0.950 . S
H3071 C3076 0.949 . S
H3072 C3078 0.950 . S
H3073 C3079 0.950 . S
H3074 C3080 0.949 . S
C3075 H3070 0.950 . S
C3075 C3077 1.327 . S
C3075 C3081 1.429 . S
C3076 C3068 1.574 . S
C3076 H3071 0.949 . S
C3076 C3082 1.368 . S
C3077 C3061 1.349 . S
C3077 H3069 0.950 . S
C3077 C3075 1.327 . S
C3078 C3066 1.349 . S
C3078 H3072 0.950 . S
C3078 C3079 1.327 1_545 S
C3079 H3073 0.950 . S
C3079 C3078 1.327 1_565 S
C3079 C3083 1.429 . S
C3080 C3063 1.574 . S
C3080 H3074 0.949 . S
C3080 C3084 1.368 . S
C3081 C3062 1.429 . S
C3081 C3075 1.429 . S
C3081 C3082 1.523 . S
C3082 C3063 1.368 . S
C3082 C3076 1.368 . S
C3082 C3081 1.523 . S
C3083 C3067 1.429 1_565 S
C3083 C3079 1.429 . S
C3083 C3084 1.523 . S
C3084 C3068 1.368 . S
C3084 C3080 1.368 . S
C3084 C3083 1.523 . S
H3085 C3060 0.950 . S
H3086 C3062 0.950 . S
H3087 C3063 0.949 . S
H3088 C3065 0.950 . S
H3089 C3067 0.950 . S
C3090 C3091 1.349 . S
C3090 C3092 1.327 . S
C3090 H3115 0.950 . S
C3091 C3090 1.349 . S
C3091 C3107 1.349 . S
C3092 C3090 1.327 . S
C3092 C3111 1.429 1_655 S
C3092 H3116 0.950 . S
C3093 C3110 1.574 . S
C3093 C3112 1.368 . S
C3093 H3117 0.949 . S
H3094 C3098 0.949 . S
C3095 C3096 1.349 . S
C3095 C3097 1.327 . S
C3095 H3118 0.950 . S
C3096 C3095 1.349 . S
C3096 C3108 1.349 . S
C3097 C3095 1.327 . S
C3097 C3113 1.429 . S
C3097 H3119 0.950 . S
C3098 H3094 0.949 . S
C3098 C3106 1.574 . S
C3098 C3114 1.368 . S
H3099 C3107 0.956 1_455 S
H3100 C3105 0.950 . S
H3101 C3106 0.949 . S
H3102 C3108 0.950 . S
H3103 C3109 0.950 . S
H3104 C3110 0.949 . S
C3105 H3100 0.950 . S
C3105 C3107 1.327 1_455 S
C3105 C3111 1.429 . S
C3106 C3098 1.574 . S
C3106 H3101 0.949 . S
C3106 C3112 1.368 . S
C3107 C3091 1.349 . S
C3107 H3099 0.956 1_655 S
C3107 C3105 1.327 1_655 S
C3108 C3096 1.349 . S
C3108 H3102 0.950 . S
C3108 C3109 1.327 . S
C3109 H3103 0.950 . S
C3109 C3108 1.327 . S
C3109 C3113 1.429 . S
C3110 C3093 1.574 . S
C3110 H3104 0.949 . S
C3110 C3114 1.368 . S
C3111 C3092 1.429 1_455 S
C3111 C3105 1.429 . S
C3111 C3112 1.523 . S
C3112 C3093 1.368 . S
C3112 C3106 1.368 . S
C3112 C3111 1.523 . S
C3113 C3097 1.429 . S
C3113 C3109 1.429 . S
C3113 C3114 1.523 . S
C3114 C3098 1.368 . S
C3114 C3110 1.368 . S
C3114 C3113 1.523 . S
H3115 C3090 0.950 . S
H3116 C3092 0.950 . S
H3117 C3093 0.949 . S
H3118 C3095 0.950 . S
H3119 C3097 0.950 . S
C3120 C3121 1.349 . S
C3120 C3122 1.327 . S
C3120 H3145 0.950 . S
C3121 C3120 1.349 . S
C3121 C3137 1.349 . S
C3122 C3120 1.327 . S
C3122 C3141 1.429 . S
C3122 H3146 0.950 . S
C3123 C3140 1.574 . S
C3123 C3142 1.368 . S
C3123 H3147 0.949 . S
H3124 C3128 0.949 . S
C3125 C3126 1.349 . S
C3125 C3127 1.327 . S
C3125 H3148 0.950 . S
C3126 C3125 1.349 . S
C3126 C3138 1.349 . S
C3127 C3125 1.327 . S
C3127 C3143 1.429 . S
C3127 H3149 0.950 . S
C3128 H3124 0.949 . S
C3128 C3136 1.574 . S
C3128 C3144 1.368 . S
H3129 C3137 0.950 . S
H3130 C3135 0.950 . S
H3131 C3136 0.949 . S
H3132 C3138 0.950 . S
H3133 C3139 0.950 . S
H3134 C3140 0.949 . S
C3135 H3130 0.950 . S
C3135 C3137 1.327 . S
C3135 C3141 1.429 . S
C3136 C3128 1.574 . S
C3136 H3131 0.949 . S
C3136 C3142 1.368 . S
C3137 C3121 1.349 . S
C3137 H3129 0.950 . S
C3137 C3135 1.327 . S
C3138 C3126 1.349 . S
C3138 H3132 0.950 . S
C3138 C3139 1.327 . S
C3139 H3133 0.950 . S
C3139 C3138 1.327 . S
C3139 C3143 1.429 . S
C3140 C3123 1.574 . S
C3140 H3134 0.949 . S
C3140 C3144 1.368 . S
C3141 C3122 1.429 . S
C3141 C3135 1.429 . S
C3141 C3142 1.523 . S
C3142 C3123 1.368 . S
C3142 C3136 1.368 . S
C3142 C3141 1.523 . S
C3143 C3127 1.429 . S
C3143 C3139 1.429 . S
C3143 C3144 1.523 . S
C3144 C3128 1.368 . S
C3144 C3140 1.368 . S
C3144 C3143 1.523 . S
H3145 C3120 0.950 . S
H3146 C3122 0.950 . S
H3147 C3123 0.949 . S
H3148 C3125 0.950 . S
H3149 C3127 0.950 . S
C3150 C3151 1.368 . S
C3150 C3152 1.327 . S
C3150 H3175 0.950 . S
C3151 C3150 1.368 . S
C3151 C3167 1.329 1_554 S
C3152 C3150 1.327 . S
C3152 C3171 1.375 1_554 S
C3152 H3176 0.950 . S
C3153 C3170 1.574 1_565 S
C3153 C3172 1.490 . S
C3153 H3177 0.949 . S
H3154 C3158 0.949 . S
C3155 C3156 1.349 . S
C3155 C3157 1.327 . S
C3155 H3178 0.950 . S
C3156 C3155 1.349 . S
C3156 C3168 1.349 1_556 S
C3157 C3155 1.327 . S
C3157 C3173 1.429 . S
C3157 H3179 0.950 . S
C3158 H3154 0.949 . S
C3158 C3166 1.574 1_545 S
C3158 C3174 1.368 1_554 S
H3159 C3167 0.950 . S
H3160 C3165 0.950 . S
H3161 C3166 0.949 . S
H3162 C3168 0.950 . S
H3163 C3169 0.950 . S
H3164 C3170 0.949 . S
C3165 H3160 0.950 . S
C3165 C3167 1.327 . S
C3165 C3171 1.480 . S
C3166 C3158 1.574 1_565 S
C3166 H3161 0.949 . S
C3166 C3172 1.260 1_554 S
C3167 C3151 1.329 1_556 S
C3167 H3159 0.950 . S
C3167 C3165 1.327 . S
C3168 C3156 1.349 1_554 S
C3168 H3162 0.950 . S
C3168 C3169 1.327 . S
C3169 H3163 0.950 . S
C3169 C3168 1.327 . S
C3169 C3173 1.429 1_554 S
C3170 C3153 1.574 1_545 S
C3170 H3164 0.949 . S
C3170 C3174 1.368 . S
C3171 C3152 1.375 1_556 S
C3171 C3165 1.480 . S
C3171 C3172 1.521 . S
C3172 C3153 1.490 . S
C3172 C3166 1.260 1_556 S
C3172 C3171 1.521 . S
C3173 C3157 1.429 . S
C3173 C3169 1.429 1_556 S
C3173 C3174 1.523 . S
C3174 C3158 1.368 1_556 S
C3174 C3170 1.368 . S
C3174 C3173 1.523 . S
H3175 C3150 0.950 . S
H3176 C3152 0.950 . S
H3177 C3153 0.949 . S
H3178 C3155 0.950 . S
H3179 C3157 0.950 . S
C3180 C3181 1.328 1_556 S
C3180 C3182 1.327 . S
C3180 H3205 0.950 . S
C3181 C3180 1.328 1_554 S
C3181 C3197 1.368 . S
C3182 C3180 1.327 . S
C3182 C3201 1.483 . S
C3182 H3206 0.950 . S
C3183 C3200 1.574 1_455 S
C3183 C3202 1.254 1_554 S
C3183 H3207 0.949 . S
H3184 C3188 0.949 . S
C3185 C3186 1.349 1_554 S
C3185 C3187 1.327 . S
C3185 H3208 0.950 . S
C3186 C3185 1.349 1_556 S
C3186 C3198 1.349 . S
C3187 C3185 1.327 . S
C3187 C3203 1.429 1_554 S
C3187 H3209 0.950 . S
C3188 H3184 0.949 . S
C3188 C3196 1.574 1_655 S
C3188 C3204 1.368 . S
H3189 C3197 0.950 . S
H3190 C3195 0.950 . S
H3191 C3196 0.949 . S
H3192 C3198 0.950 . S
H3193 C3199 0.950 . S
H3194 C3200 0.949 . S
C3195 H3190 0.950 . S
C3195 C3197 1.327 . S
C3195 C3201 1.372 1_554 S
C3196 C3188 1.574 1_455 S
C3196 H3191 0.949 . S
C3196 C3202 1.495 . S
C3197 C3181 1.368 . S
C3197 H3189 0.950 . S
C3197 C3195 1.327 . S
C3198 C3186 1.349 . S
C3198 H3192 0.950 . S
C3198 C3199 1.327 . S
C3199 H3193 0.950 . S
C3199 C3198 1.327 . S
C3199 C3203 1.429 . S
C3200 C3183 1.574 1_655 S
C3200 H3194 0.949 . S
C3200 C3204 1.368 1_554 S
C3201 C3182 1.483 . S
C3201 C3195 1.372 1_556 S
C3201 C3202 1.521 . S
C3202 C3183 1.254 1_556 S
C3202 C3196 1.495 . S
C3202 C3201 1.521 . S
C3203 C3187 1.429 1_556 S
C3203 C3199 1.429 . S
C3203 C3204 1.523 . S
C3204 C3188 1.368 . S
C3204 C3200 1.368 1_556 S
C3204 C3203 1.523 . S
H3205 C3180 0.950 . S
H3206 C3182 0.950 . S
H3207 C3183 0.949 . S
H3208 C3185 0.950 . S
H3209 C3187 0.950 . S
C3210 C3211 1.349 1_554 S
C3210 C3212 1.327 . S
C3210 H3235 0.950 . S
C3211 C3210 1.349 1_556 S
C3211 C3227 1.349 . S
C3212 C3210 1.327 . S
C3212 C3231 1.429 1_554 S
C3212 H3236 0.950 . S
C3213 C3230 1.574 . S
C3213 C3232 1.368 . S
C3213 H3237 0.949 . S
H3214 C3218 0.949 . S
C3215 C3216 1.355 1_556 S
C3215 C3217 1.327 . S
C3215 H3238 0.950 . S
C3216 C3215 1.355 1_554 S
C3216 C3228 1.343 . S
C3217 C3215 1.327 . S
C3217 C3233 1.500 . S
C3217 H3239 0.950 . S
C3218 H3214 0.949 . S
C3218 C3226 1.574 . S
C3218 C3234 1.368 1_554 S
H3219 C3227 0.950 . S
H3220 C3225 0.950 . S
H3221 C3226 0.949 . S
H3222 C3228 0.950 . S
H3223 C3229 0.950 . S
H3224 C3230 0.949 . S
C3225 H3220 0.950 . S
C3225 C3227 1.327 . S
C3225 C3231 1.429 . S
C3226 C3218 1.574 . S
C3226 H3221 0.949 . S
C3226 C3232 1.368 1_554 S
C3227 C3211 1.349 . S
C3227 H3219 0.950 . S
C3227 C3225 1.327 . S
C3228 C3216 1.343 . S
C3228 H3222 0.950 . S
C3228 C3229 1.327 . S
C3229 H3223 0.950 . S
C3229 C3228 1.327 . S
C3229 C3233 1.356 1_554 S
C3230 C3213 1.574 . S
C3230 H3224 0.949 . S
C3230 C3234 1.368 . S
C3231 C3212 1.429 1_556 S
C3231 C3225 1.429 . S
C3231 C3232 1.523 . S
C3232 C3213 1.368 . S
C3232 C3226 1.368 1_556 S
C3232 C3231 1.523 . S
C3233 C3217 1.500 . S
C3233 C3229 1.356 1_556 S
C3233 C3234 1.533 . S
C3234 C3218 1.368 1_556 S
C3234 C3230 1.368 . S
C3234 C3233 1.533 . S
H3235 C3210 0.950 . S
H3236 C3212 0.950 . S
H3237 C3213 0.949 . S
H3238 C3215 0.950 . S
H3239 C3217 0.950 . S
C3240 C3241 1.349 . S
C3240 C3242 1.327 . S
C3240 H3265 0.950 . S
C3241 C3240 1.349 . S
C3241 C3257 1.349 . S
C3242 C3240 1.327 . S
C3242 C3261 1.429 . S
C3242 H3266 0.950 . S
C3243 C3260 1.574 . S
C3243 C3262 1.368 . S
C3243 H3267 0.949 . S
H3244 C3248 0.949 1_565 S
C3245 C3246 1.349 1_545 S
C3245 C3247 1.327 . S
C3245 H3268 0.950 . S
C3246 C3245 1.349 1_565 S
C3246 C3258 1.349 . S
C3247 C3245 1.327 . S
C3247 C3263 1.429 . S
C3247 H3269 0.950 . S
C3248 H3244 0.949 1_545 S
C3248 C3256 1.574 . S
C3248 C3264 1.368 . S
H3249 C3257 0.950 . S
H3250 C3255 0.950 . S
H3251 C3256 0.949 . S
H3252 C3258 0.950 . S
H3253 C3259 0.950 . S
H3254 C3260 0.949 . S
C3255 H3250 0.950 . S
C3255 C3257 1.327 . S
C3255 C3261 1.429 . S
C3256 C3248 1.574 . S
C3256 H3251 0.949 . S
C3256 C3262 1.368 . S
C3257 C3241 1.349 . S
C3257 H3249 0.950 . S
C3257 C3255 1.327 . S
C3258 C3246 1.349 . S
C3258 H3252 0.950 . S
C3258 C3259 1.327 . S
C3259 H3253 0.950 . S
C3259 C3258 1.327 . S
C3259 C3263 1.429 1_565 S
C3260 C3243 1.574 . S
C3260 H3254 0.949 . S
C3260 C3264 1.368 . S
C3261 C3242 1.429 . S
C3261 C3255 1.429 . S
C3261 C3262 1.523 . S
C3262 C3243 1.368 . S
C3262 C3256 1.368 . S
C3262 C3261 1.523 . S
C3263 C3247 1.429 . S
C3263 C3259 1.429 1_545 S
C3263 C3264 1.523 . S
C3264 C3248 1.368 . S
C3264 C3260 1.368 . S
C3264 C3263 1.523 . S
H3265 C3240 0.950 . S
H3266 C3242 0.950 . S
H3267 C3243 0.949 . S
H3268 C3245 0.950 . S
H3269 C3247 0.950 . S
C3270 C3271 1.349 . S
C3270 C3272 1.327 . S
C3270 H3295 0.950 . S
C3271 C3270 1.349 . S
C3271 C3287 1.349 . S
C3272 C3270 1.327 . S
C3272 C3291 1.429 . S
C3272 H3296 0.950 . S
C3273 C3290 1.574 . S
C3273 C3292 1.368 . S
C3273 H3297 0.949 . S
H3274 C3278 0.949 1_455 S
C3275 C3276 1.349 1_655 S
C3275 C3277 1.327 . S
C3275 H3298 0.950 . S
C3276 C3275 1.349 1_455 S
C3276 C3288 1.349 . S
C3277 C3275 1.327 . S
C3277 C3293 1.429 . S
C3277 H3299 0.950 . S
C3278 H3274 0.949 1_655 S
C3278 C3286 1.574 . S
C3278 C3294 1.368 . S
H3279 C3287 0.950 . S
H3280 C3285 0.950 . S
H3281 C3286 0.949 . S
H3282 C3288 0.950 . S
H3283 C3289 0.950 . S
H3284 C3290 0.949 . S
C3285 H3280 0.950 . S
C3285 C3287 1.327 . S
C3285 C3291 1.429 . S
C3286 C3278 1.574 . S
C3286 H3281 0.949 . S
C3286 C3292 1.368 . S
C3287 C3271 1.349 . S
C3287 H3279 0.950 . S
C3287 C3285 1.327 . S
C3288 C3276 1.349 . S
C3288 H3282 0.950 . S
C3288 C3289 1.327 . S
C3289 H3283 0.950 . S
C3289 C3288 1.327 . S
C3289 C3293 1.429 1_455 S
C3290 C3273 1.574 . S
C3290 H3284 0.949 . S
C3290 C3294 1.368 . S
C3291 C3272 1.429 . S
C3291 C3285 1.429 . S
C3291 C3292 1.523 . S
C3292 C3273 1.368 . S
C3292 C3286 1.368 . S
C3292 C3291 1.523 . S
C3293 C3277 1.429 . S
C3293 C3289 1.429 1_655 S
C3293 C3294 1.523 . S
C3294 C3278 1.368 . S
C3294 C3290 1.368 . S
C3294 C3293 1.523 . S
H3295 C3270 0.950 . S
H3296 C3272 0.950 . S
H3297 C3273 0.949 . S
H3298 C3275 0.950 . S
H3299 C3277 0.950 . S
C3300 C3301 1.349 . S
C3300 C3302 1.327 . S
C3300 H3325 0.950 . S
C3301 C3300 1.349 . S
C3301 C3317 1.349 . S
C3302 C3300 1.327 . S
C3302 C3321 1.429 . S
C3302 H3326 0.950 . S
C3303 C3320 1.574 . S
C3303 C3322 1.368 . S
C3303 H3327 0.949 . S
H3304 C3308 0.949 . S
C3305 C3306 1.349 . S
C3305 C3307 1.327 . S
C3305 H3328 0.950 . S
C3306 C3305 1.349 . S
C3306 C3318 1.349 . S
C3307 C3305 1.327 . S
C3307 C3323 1.429 . S
C3307 H3329 0.950 . S
C3308 H3304 0.949 . S
C3308 C3316 1.574 . S
C3308 C3324 1.368 . S
H3309 C3317 0.950 . S
H3310 C3315 0.950 . S
H3311 C3316 0.949 . S
H3312 C3318 0.950 . S
H3313 C3319 0.950 . S
H3314 C3320 0.949 . S
C3315 H3310 0.950 . S
C3315 C3317 1.327 . S
C3315 C3321 1.429 . S
C3316 C3308 1.574 . S
C3316 H3311 0.949 . S
C3316 C3322 1.368 . S
C3317 C3301 1.349 . S
C3317 H3309 0.950 . S
C3317 C3315 1.327 . S
C3318 C3306 1.349 . S
C3318 H3312 0.950 . S
C3318 C3319 1.327 . S
C3319 H3313 0.950 . S
C3319 C3318 1.327 . S
C3319 C3323 1.429 . S
C3320 C3303 1.574 . S
C3320 H3314 0.949 . S
C3320 C3324 1.368 . S
C3321 C3302 1.429 . S
C3321 C3315 1.429 . S
C3321 C3322 1.523 . S
C3322 C3303 1.368 . S
C3322 C3316 1.368 . S
C3322 C3321 1.523 . S
C3323 C3307 1.429 . S
C3323 C3319 1.429 . S
C3323 C3324 1.523 . S
C3324 C3308 1.368 . S
C3324 C3320 1.368 . S
C3324 C3323 1.523 . S
H3325 C3300 0.950 . S
H3326 C3302 0.950 . S
H3327 C3303 0.949 . S
H3328 C3305 0.950 . S
H3329 C3307 0.950 . S
C3330 C3331 1.349 1_556 S
C3330 C3332 1.327 . S
C3330 H3355 0.950 . S
C3331 C3330 1.349 1_554 S
C3331 C3347 1.349 . S
C3332 C3330 1.327 . S
C3332 C3351 1.429 1_556 S
C3332 H3356 0.950 . S
C3333 C3350 1.574 1_565 S
C3333 C3352 1.368 . S
C3333 H3357 0.949 . S
H3334 C3338 0.949 . S
C3335 C3336 1.355 1_554 S
C3335 C3337 1.327 . S
C3335 H3358 0.950 . S
C3336 C3335 1.355 1_556 S
C3336 C3348 1.343 . S
C3337 C3335 1.327 . S
C3337 C3353 1.507 . S
C3337 H3359 0.950 . S
C3338 H3334 0.949 . S
C3338 C3346 1.574 1_545 S
C3338 C3354 1.368 1_556 S
H3339 C3347 0.950 . S
H3340 C3345 0.950 . S
H3341 C3346 0.949 . S
H3342 C3348 0.950 . S
H3343 C3349 0.950 . S
H3344 C3350 0.949 . S
C3345 H3340 0.950 . S
C3345 C3347 1.327 . S
C3345 C3351 1.429 . S
C3346 C3338 1.574 1_565 S
C3346 H3341 0.949 . S
C3346 C3352 1.368 1_556 S
C3347 C3331 1.349 . S
C3347 H3339 0.950 . S
C3347 C3345 1.327 . S
C3348 C3336 1.343 . S
C3348 H3342 0.950 . S
C3348 C3349 1.327 . S
C3349 H3343 0.950 . S
C3349 C3348 1.327 . S
C3349 C3353 1.348 1_556 S
C3350 C3333 1.574 1_545 S
C3350 H3344 0.949 . S
C3350 C3354 1.368 . S
C3351 C3332 1.429 1_554 S
C3351 C3345 1.429 . S
C3351 C3352 1.523 . S
C3352 C3333 1.368 . S
C3352 C3346 1.368 1_554 S
C3352 C3351 1.523 . S
C3353 C3337 1.507 . S
C3353 C3349 1.348 1_554 S
C3353 C3354 1.533 . S
C3354 C3338 1.368 1_554 S
C3354 C3350 1.368 . S
C3354 C3353 1.533 . S
H3355 C3330 0.950 . S
H3356 C3332 0.950 . S
H3357 C3333 0.949 . S
H3358 C3335 0.950 . S
H3359 C3337 0.950 . S
C3360 C3361 1.368 . S
C3360 C3362 1.327 . S
C3360 H3385 0.950 . S
C3361 C3360 1.368 . S
C3361 C3377 1.329 1_556 S
C3362 C3360 1.327 . S
C3362 C3381 1.374 1_556 S
C3362 H3386 0.950 . S
C3363 C3380 1.574 1_655 S
C3363 C3382 1.491 . S
C3363 H3387 0.949 . S
H3364 C3368 0.949 . S
C3365 C3366 1.349 . S
C3365 C3367 1.327 . S
C3365 H3388 0.950 . S
C3366 C3365 1.349 . S
C3366 C3378 1.349 1_554 S
C3367 C3365 1.327 . S
C3367 C3383 1.429 . S
C3367 H3389 0.950 . S
C3368 H3364 0.949 . S
C3368 C3376 1.574 1_455 S
C3368 C3384 1.368 1_556 S
H3369 C3377 0.950 . S
H3370 C3375 0.950 . S
H3371 C3376 0.949 . S
H3372 C3378 0.950 . S
H3373 C3379 0.950 . S
H3374 C3380 0.949 . S
C3375 H3370 0.950 . S
C3375 C3377 1.327 . S
C3375 C3381 1.481 . S
C3376 C3368 1.574 1_655 S
C3376 H3371 0.949 . S
C3376 C3382 1.259 1_556 S
C3377 C3361 1.329 1_554 S
C3377 H3369 0.950 . S
C3377 C3375 1.327 . S
C3378 C3366 1.349 1_556 S
C3378 H3372 0.950 . S
C3378 C3379 1.327 . S
C3379 H3373 0.950 . S
C3379 C3378 1.327 . S
C3379 C3383 1.429 1_556 S
C3380 C3363 1.574 1_455 S
C3380 H3374 0.949 . S
C3380 C3384 1.368 . S
C3381 C3362 1.374 1_554 S
C3381 C3375 1.481 . S
C3381 C3382 1.521 . S
C3382 C3363 1.491 . S
C3382 C3376 1.259 1_554 S
C3382 C3381 1.521 . S
C3383 C3367 1.429 . S
C3383 C3379 1.429 1_554 S
C3383 C3384 1.523 . S
C3384 C3368 1.368 1_554 S
C3384 C3380 1.368 . S
C3384 C3383 1.523 . S
H3385 C3360 0.950 . S
H3386 C3362 0.950 . S
H3387 C3363 0.949 . S
H3388 C3365 0.950 . S
H3389 C3367 0.950 . S
C3390 C3391 1.349 1_556 S
C3390 C3392 1.327 . S
C3390 H3415 0.950 . S
C3391 C3390 1.349 1_554 S
C3391 C3407 1.349 . S
C3392 C3390 1.327 . S
C3392 C3411 1.429 1_556 S
C3392 H3416 0.950 . S
C3393 C3410 1.574 . S
C3393 C3412 1.368 . S
C3393 H3417 0.949 . S
H3394 C3398 0.949 . S
C3395 C3396 1.357 1_554 S
C3395 C3397 1.327 . S
C3395 H3418 0.950 . S
C3396 C3395 1.357 1_556 S
C3396 C3408 1.342 . S
C3397 C3395 1.327 . S
C3397 C3413 1.522 . S
C3397 H3419 0.950 . S
C3398 H3394 0.949 . S
C3398 C3406 1.574 . S
C3398 C3414 1.368 1_556 S
H3399 C3407 0.950 . S
H3400 C3405 0.950 . S
H3401 C3406 0.949 . S
H3402 C3408 0.950 . S
H3403 C3409 0.950 . S
H3404 C3410 0.949 . S
C3405 H3400 0.950 . S
C3405 C3407 1.327 . S
C3405 C3411 1.429 . S
C3406 C3398 1.574 . S
C3406 H3401 0.949 . S
C3406 C3412 1.368 1_556 S
C3407 C3391 1.349 . S
C3407 H3399 0.950 . S
C3407 C3405 1.327 . S
C3408 C3396 1.342 . S
C3408 H3402 0.950 . S
C3408 C3409 1.327 . S
C3409 H3403 0.950 . S
C3409 C3408 1.327 . S
C3409 C3413 1.332 1_556 S
C3410 C3393 1.574 . S
C3410 H3404 0.949 . S
C3410 C3414 1.368 . S
C3411 C3392 1.429 1_554 S
C3411 C3405 1.429 . S
C3411 C3412 1.523 . S
C3412 C3393 1.368 . S
C3412 C3406 1.368 1_554 S
C3412 C3411 1.523 . S
C3413 C3397 1.522 . S
C3413 C3409 1.332 1_554 S
C3413 C3414 1.533 . S
C3414 C3398 1.368 1_554 S
C3414 C3410 1.368 . S
C3414 C3413 1.533 . S
H3415 C3390 0.950 . S
H3416 C3392 0.950 . S
H3417 C3393 0.949 . S
H3418 C3395 0.950 . S
H3419 C3397 0.950 . S
C3420 C3421 1.349 . S
C3420 C3422 1.327 . S
C3420 H3445 0.950 . S
C3421 C3420 1.349 . S
C3421 C3437 1.349 . S
C3422 C3420 1.327 . S
C3422 C3441 1.429 . S
C3422 H3446 0.950 . S
C3423 C3440 1.574 1_455 S
C3423 C3442 1.368 . S
C3423 H3447 0.949 . S
H3424 C3428 0.949 . S
C3425 C3426 1.349 . S
C3425 C3427 1.327 . S
C3425 H3448 0.950 . S
C3426 C3425 1.349 . S
C3426 C3438 1.349 . S
C3427 C3425 1.327 . S
C3427 C3443 1.429 . S
C3427 H3449 0.950 . S
C3428 H3424 0.949 . S
C3428 C3436 1.574 . S
C3428 C3444 1.368 . S
H3429 C3437 0.950 . S
H3430 C3435 0.950 . S
H3431 C3436 0.949 1_455 S
H3432 C3438 0.950 . S
H3433 C3439 0.950 . S
H3434 C3440 0.949 . S
C3435 H3430 0.950 . S
C3435 C3437 1.327 . S
C3435 C3441 1.429 . S
C3436 C3428 1.574 . S
C3436 H3431 0.949 1_655 S
C3436 C3442 1.368 1_655 S
C3437 C3421 1.349 . S
C3437 H3429 0.950 . S
C3437 C3435 1.327 . S
C3438 C3426 1.349 . S
C3438 H3432 0.950 . S
C3438 C3439 1.327 . S
C3439 H3433 0.950 . S
C3439 C3438 1.327 . S
C3439 C3443 1.429 . S
C3440 C3423 1.574 1_655 S
C3440 H3434 0.949 . S
C3440 C3444 1.368 . S
C3441 C3422 1.429 . S
C3441 C3435 1.429 . S
C3441 C3442 1.523 . S
C3442 C3423 1.368 . S
C3442 C3436 1.368 1_455 S
C3442 C3441 1.523 . S
C3443 C3427 1.429 . S
C3443 C3439 1.429 . S
C3443 C3444 1.523 . S
C3444 C3428 1.368 . S
C3444 C3440 1.368 . S
C3444 C3443 1.523 . S
H3445 C3420 0.950 . S
H3446 C3422 0.950 . S
H3447 C3423 0.949 . S
H3448 C3425 0.950 . S
H3449 C3427 0.950 . S
C3450 C3451 1.349 . S
C3450 C3452 1.327 . S
C3450 H3475 0.950 . S
C3451 C3450 1.349 . S
C3451 C3467 1.349 . S
C3452 C3450 1.327 . S
C3452 C3471 1.429 . S
C3452 H3476 0.950 . S
C3453 C3470 1.574 . S
C3453 C3472 1.368 . S
C3453 H3477 0.949 . S
H3454 C3458 0.949 . S
C3455 C3456 1.349 . S
C3455 C3457 1.327 . S
C3455 H3478 0.950 . S
C3456 C3455 1.349 . S
C3456 C3468 1.349 . S
C3457 C3455 1.327 . S
C3457 C3473 1.429 . S
C3457 H3479 0.950 . S
C3458 H3454 0.949 . S
C3458 C3466 1.574 . S
C3458 C3474 1.368 . S
H3459 C3467 0.950 . S
H3460 C3465 0.950 . S
H3461 C3466 0.949 . S
H3462 C3468 0.950 . S
H3463 C3469 0.950 . S
H3464 C3470 0.949 . S
C3465 H3460 0.950 . S
C3465 C3467 1.327 . S
C3465 C3471 1.429 . S
C3466 C3458 1.574 . S
C3466 H3461 0.949 . S
C3466 C3472 1.368 . S
C3467 C3451 1.349 . S
C3467 H3459 0.950 . S
C3467 C3465 1.327 . S
C3468 C3456 1.349 . S
C3468 H3462 0.950 . S
C3468 C3469 1.327 . S
C3469 H3463 0.950 . S
C3469 C3468 1.327 . S
C3469 C3473 1.429 . S
C3470 C3453 1.574 . S
C3470 H3464 0.949 . S
C3470 C3474 1.368 . S
C3471 C3452 1.429 . S
C3471 C3465 1.429 . S
C3471 C3472 1.523 . S
C3472 C3453 1.368 . S
C3472 C3466 1.368 . S
C3472 C3471 1.523 . S
C3473 C3457 1.429 . S
C3473 C3469 1.429 . S
C3473 C3474 1.523 . S
C3474 C3458 1.368 . S
C3474 C3470 1.368 . S
C3474 C3473 1.523 . S
H3475 C3450 0.950 . S
H3476 C3452 0.950 . S
H3477 C3453 0.949 . S
H3478 C3455 0.950 . S
H3479 C3457 0.950 . S
C3480 C3481 1.349 . S
C3480 C3482 1.327 . S
C3480 H3505 0.950 . S
C3481 C3480 1.349 . S
C3481 C3497 1.349 . S
C3482 C3480 1.327 . S
C3482 C3501 1.429 . S
C3482 H3506 0.950 . S
C3483 C3500 1.574 . S
C3483 C3502 1.368 1_545 S
C3483 H3507 0.949 1_545 S
H3484 C3488 0.949 . S
C3485 C3486 1.349 . S
C3485 C3487 1.327 . S
C3485 H3508 0.950 . S
C3486 C3485 1.349 . S
C3486 C3498 1.349 . S
C3487 C3485 1.327 . S
C3487 C3503 1.429 . S
C3487 H3509 0.950 . S
C3488 H3484 0.949 . S
C3488 C3496 1.537 1_545 S
C3488 C3504 1.368 . S
H3489 C3497 0.950 . S
H3490 C3495 0.950 . S
H3491 C3496 0.982 . S
H3492 C3498 0.950 . S
H3493 C3499 0.950 . S
H3494 C3500 0.949 . S
C3495 H3490 0.950 . S
C3495 C3497 1.327 . S
C3495 C3501 1.429 . S
C3496 C3488 1.537 1_565 S
C3496 H3491 0.982 . S
C3496 C3502 1.370 . S
C3497 C3481 1.349 . S
C3497 H3489 0.950 . S
C3497 C3495 1.327 . S
C3498 C3486 1.349 . S
C3498 H3492 0.950 . S
C3498 C3499 1.327 . S
C3499 H3493 0.950 . S
C3499 C3498 1.327 . S
C3499 C3503 1.429 . S
C3500 C3483 1.574 . S
C3500 H3494 0.949 . S
C3500 C3504 1.368 . S
C3501 C3482 1.429 . S
C3501 C3495 1.429 . S
C3501 C3502 1.523 . S
C3502 C3483 1.368 1_565 S
C3502 C3496 1.370 . S
C3502 C3501 1.523 . S
C3503 C3487 1.429 . S
C3503 C3499 1.429 . S
C3503 C3504 1.523 . S
C3504 C3488 1.368 . S
C3504 C3500 1.368 . S
C3504 C3503 1.523 . S
H3505 C3480 0.950 . S
H3506 C3482 0.950 . S
H3507 C3483 0.949 1_565 S
H3508 C3485 0.950 . S
H3509 C3487 0.950 . S
C3510 C3511 1.349 . S
C3510 C3512 1.327 . S
C3510 H3535 0.950 . S
C3511 C3510 1.349 . S
C3511 C3527 1.351 1_455 S
C3512 C3510 1.327 . S
C3512 C3531 1.429 1_455 S
C3512 H3536 0.950 . S
C3513 C3530 1.574 . S
C3513 C3532 1.368 . S
C3513 H3537 0.949 . S
H3514 C3518 0.949 . S
C3515 C3516 1.349 . S
C3515 C3517 1.327 . S
C3515 H3538 0.950 . S
C3516 C3515 1.349 . S
C3516 C3528 1.349 . S
C3517 C3515 1.327 . S
C3517 C3533 1.429 . S
C3517 H3539 0.950 . S
C3518 H3514 0.949 . S
C3518 C3526 1.574 . S
C3518 C3534 1.368 . S
H3519 C3527 0.948 . S
H3520 C3525 0.950 . S
H3521 C3526 0.949 . S
H3522 C3528 0.950 . S
H3523 C3529 0.950 . S
H3524 C3530 0.949 . S
C3525 H3520 0.950 . S
C3525 C3527 1.327 . S
C3525 C3531 1.429 . S
C3526 C3518 1.574 . S
C3526 H3521 0.949 . S
C3526 C3532 1.368 . S
C3527 C3511 1.351 1_655 S
C3527 H3519 0.948 . S
C3527 C3525 1.327 . S
C3528 C3516 1.349 . S
C3528 H3522 0.950 . S
C3528 C3529 1.327 . S
C3529 H3523 0.950 . S
C3529 C3528 1.327 . S
C3529 C3533 1.429 . S
C3530 C3513 1.574 . S
C3530 H3524 0.949 . S
C3530 C3534 1.368 . S
C3531 C3512 1.429 1_655 S
C3531 C3525 1.429 . S
C3531 C3532 1.523 . S
C3532 C3513 1.368 . S
C3532 C3526 1.368 . S
C3532 C3531 1.523 . S
C3533 C3517 1.429 . S
C3533 C3529 1.429 . S
C3533 C3534 1.523 . S
C3534 C3518 1.368 . S
C3534 C3530 1.368 . S
C3534 C3533 1.523 . S
H3535 C3510 0.950 . S
H3536 C3512 0.950 . S
H3537 C3513 0.949 . S
H3538 C3515 0.950 . S
H3539 C3517 0.950 . S
C3540 C3541 1.349 . S
C3540 C3542 1.327 . S
C3540 H3565 0.950 . S
C3541 C3540 1.349 . S
C3541 C3557 1.349 . S
C3542 C3540 1.327 . S
C3542 C3561 1.429 . S
C3542 H3566 0.950 . S
C3543 C3560 1.574 . S
C3543 C3562 1.368 . S
C3543 H3567 0.949 . S
H3544 C3548 0.949 . S
C3545 C3546 1.349 . S
C3545 C3547 1.327 . S
C3545 H3568 0.950 . S
C3546 C3545 1.349 . S
C3546 C3558 1.349 . S
C3547 C3545 1.327 . S
C3547 C3563 1.429 . S
C3547 H3569 0.950 . S
C3548 H3544 0.949 . S
C3548 C3556 1.574 . S
C3548 C3564 1.368 . S
H3549 C3557 0.950 . S
H3550 C3555 0.950 . S
H3551 C3556 0.949 . S
H3552 C3558 0.950 . S
H3553 C3559 0.950 . S
H3554 C3560 0.949 . S
C3555 H3550 0.950 . S
C3555 C3557 1.327 . S
C3555 C3561 1.429 . S
C3556 C3548 1.574 . S
C3556 H3551 0.949 . S
C3556 C3562 1.368 . S
C3557 C3541 1.349 . S
C3557 H3549 0.950 . S
C3557 C3555 1.327 . S
C3558 C3546 1.349 . S
C3558 H3552 0.950 . S
C3558 C3559 1.327 . S
C3559 H3553 0.950 . S
C3559 C3558 1.327 . S
C3559 C3563 1.429 . S
C3560 C3543 1.574 . S
C3560 H3554 0.949 . S
C3560 C3564 1.368 . S
C3561 C3542 1.429 . S
C3561 C3555 1.429 . S
C3561 C3562 1.523 . S
C3562 C3543 1.368 . S
C3562 C3556 1.368 . S
C3562 C3561 1.523 . S
C3563 C3547 1.429 . S
C3563 C3559 1.429 . S
C3563 C3564 1.523 . S
C3564 C3548 1.368 . S
C3564 C3560 1.368 . S
C3564 C3563 1.523 . S
H3565 C3540 0.950 . S
H3566 C3542 0.950 . S
H3567 C3543 0.949 . S
H3568 C3545 0.950 . S
H3569 C3547 0.950 . S
C3570 C3571 1.349 . S
C3570 C3572 1.327 . S
C3570 H3595 0.950 . S
C3571 C3570 1.349 . S
C3571 C3587 1.349 . S
C3572 C3570 1.327 . S
C3572 C3591 1.429 . S
C3572 H3596 0.950 . S
C3573 C3590 1.574 . S
C3573 C3592 1.368 . S
C3573 H3597 0.949 . S
H3574 C3578 0.949 . S
C3575 C3576 1.349 1_545 S
C3575 C3577 1.327 . S
C3575 H3598 0.950 . S
C3576 C3575 1.349 1_565 S
C3576 C3588 1.349 . S
C3577 C3575 1.327 . S
C3577 C3593 1.429 . S
C3577 H3599 0.950 . S
C3578 H3574 0.949 . S
C3578 C3586 1.574 . S
C3578 C3594 1.368 . S
H3579 C3587 0.950 . S
H3580 C3585 0.950 . S
H3581 C3586 0.949 . S
H3582 C3588 0.950 . S
H3583 C3589 0.950 . S
H3584 C3590 0.949 . S
C3585 H3580 0.950 . S
C3585 C3587 1.327 . S
C3585 C3591 1.429 . S
C3586 C3578 1.574 . S
C3586 H3581 0.949 . S
C3586 C3592 1.368 . S
C3587 C3571 1.349 . S
C3587 H3579 0.950 . S
C3587 C3585 1.327 . S
C3588 C3576 1.349 . S
C3588 H3582 0.950 . S
C3588 C3589 1.327 . S
C3589 H3583 0.950 . S
C3589 C3588 1.327 . S
C3589 C3593 1.429 1_565 S
C3590 C3573 1.574 . S
C3590 H3584 0.949 . S
C3590 C3594 1.368 . S
C3591 C3572 1.429 . S
C3591 C3585 1.429 . S
C3591 C3592 1.523 . S
C3592 C3573 1.368 . S
C3592 C3586 1.368 . S
C3592 C3591 1.523 . S
C3593 C3577 1.429 . S
C3593 C3589 1.429 1_545 S
C3593 C3594 1.523 . S
C3594 C3578 1.368 . S
C3594 C3590 1.368 . S
C3594 C3593 1.523 . S
H3595 C3570 0.950 . S
H3596 C3572 0.950 . S
H3597 C3573 0.949 . S
H3598 C3575 0.950 . S
H3599 C3577 0.950 . S
C3600 C3601 1.349 . S
C3600 C3602 1.327 . S
C3600 H3625 0.950 . S
C3601 C3600 1.349 . S
C3601 C3617 1.349 . S
C3602 C3600 1.327 . S
C3602 C3621 1.429 . S
C3602 H3626 0.950 . S
C3603 C3620 1.574 . S
C3603 C3622 1.368 . S
C3603 H3627 0.949 . S
H3604 C3608 0.949 . S
C3605 C3606 1.349 . S
C3605 C3607 1.327 . S
C3605 H3628 0.950 . S
C3606 C3605 1.349 . S
C3606 C3618 1.349 . S
C3607 C3605 1.327 . S
C3607 C3623 1.429 . S
C3607 H3629 0.950 . S
C3608 H3604 0.949 . S
C3608 C3616 1.574 . S
C3608 C3624 1.368 . S
H3609 C3617 0.950 . S
H3610 C3615 0.950 . S
H3611 C3616 0.949 . S
H3612 C3618 0.950 . S
H3613 C3619 0.950 . S
H3614 C3620 0.949 . S
C3615 H3610 0.950 . S
C3615 C3617 1.327 . S
C3615 C3621 1.429 . S
C3616 C3608 1.574 . S
C3616 H3611 0.949 . S
C3616 C3622 1.368 . S
C3617 C3601 1.349 . S
C3617 H3609 0.950 . S
C3617 C3615 1.327 . S
C3618 C3606 1.349 . S
C3618 H3612 0.950 . S
C3618 C3619 1.327 . S
C3619 H3613 0.950 . S
C3619 C3618 1.327 . S
C3619 C3623 1.429 . S
C3620 C3603 1.574 . S
C3620 H3614 0.949 . S
C3620 C3624 1.368 . S
C3621 C3602 1.429 . S
C3621 C3615 1.429 . S
C3621 C3622 1.523 . S
C3622 C3603 1.368 . S
C3622 C3616 1.368 . S
C3622 C3621 1.523 . S
C3623 C3607 1.429 . S
C3623 C3619 1.429 . S
C3623 C3624 1.523 . S
C3624 C3608 1.368 . S
C3624 C3620 1.368 . S
C3624 C3623 1.523 . S
H3625 C3600 0.950 . S
H3626 C3602 0.950 . S
H3627 C3603 0.949 . S
H3628 C3605 0.950 . S
H3629 C3607 0.950 . S
C3630 C3631 1.349 . S
C3630 C3632 1.327 . S
C3630 H3655 0.950 . S
C3631 C3630 1.349 . S
C3631 C3647 1.349 . S
C3632 C3630 1.327 . S
C3632 C3651 1.429 . S
C3632 H3656 0.950 . S
C3633 C3650 1.574 . S
C3633 C3652 1.368 . S
C3633 H3657 0.949 . S
H3634 C3638 0.949 . S
C3635 C3636 1.349 . S
C3635 C3637 1.327 . S
C3635 H3658 0.950 . S
C3636 C3635 1.349 . S
C3636 C3648 1.349 . S
C3637 C3635 1.327 . S
C3637 C3653 1.429 . S
C3637 H3659 0.950 . S
C3638 H3634 0.949 . S
C3638 C3646 1.574 . S
C3638 C3654 1.368 . S
H3639 C3647 0.950 . S
H3640 C3645 0.950 . S
H3641 C3646 0.949 . S
H3642 C3648 0.950 . S
H3643 C3649 0.950 . S
H3644 C3650 0.949 . S
C3645 H3640 0.950 . S
C3645 C3647 1.327 . S
C3645 C3651 1.429 . S
C3646 C3638 1.574 . S
C3646 H3641 0.949 . S
C3646 C3652 1.368 . S
C3647 C3631 1.349 . S
C3647 H3639 0.950 . S
C3647 C3645 1.327 . S
C3648 C3636 1.349 . S
C3648 H3642 0.950 . S
C3648 C3649 1.327 . S
C3649 H3643 0.950 . S
C3649 C3648 1.327 . S
C3649 C3653 1.429 . S
C3650 C3633 1.574 . S
C3650 H3644 0.949 . S
C3650 C3654 1.368 . S
C3651 C3632 1.429 . S
C3651 C3645 1.429 . S
C3651 C3652 1.523 . S
C3652 C3633 1.368 . S
C3652 C3646 1.368 . S
C3652 C3651 1.523 . S
C3653 C3637 1.429 . S
C3653 C3649 1.429 . S
C3653 C3654 1.523 . S
C3654 C3638 1.368 . S
C3654 C3650 1.368 . S
C3654 C3653 1.523 . S
H3655 C3630 0.950 . S
H3656 C3632 0.950 . S
H3657 C3633 0.949 . S
H3658 C3635 0.950 . S
H3659 C3637 0.950 . S
C3660 C3661 1.349 . S
C3660 C3662 1.327 . S
C3660 H3685 0.950 . S
C3661 C3660 1.349 . S
C3661 C3677 1.349 . S
C3662 C3660 1.327 . S
C3662 C3681 1.429 . S
C3662 H3686 0.950 . S
C3663 C3680 1.574 . S
C3663 C3682 1.368 . S
C3663 H3687 0.949 . S
H3664 C3668 0.949 . S
C3665 C3666 1.349 . S
C3665 C3667 1.327 . S
C3665 H3688 0.950 . S
C3666 C3665 1.349 . S
C3666 C3678 1.349 . S
C3667 C3665 1.327 . S
C3667 C3683 1.429 . S
C3667 H3689 0.950 . S
C3668 H3664 0.949 . S
C3668 C3676 1.574 . S
C3668 C3684 1.368 . S
H3669 C3677 0.950 . S
H3670 C3675 0.950 . S
H3671 C3676 0.949 . S
H3672 C3678 0.950 . S
H3673 C3679 0.950 . S
H3674 C3680 0.949 . S
C3675 H3670 0.950 . S
C3675 C3677 1.327 . S
C3675 C3681 1.429 . S
C3676 C3668 1.574 . S
C3676 H3671 0.949 . S
C3676 C3682 1.368 . S
C3677 C3661 1.349 . S
C3677 H3669 0.950 . S
C3677 C3675 1.327 . S
C3678 C3666 1.349 . S
C3678 H3672 0.950 . S
C3678 C3679 1.327 . S
C3679 H3673 0.950 . S
C3679 C3678 1.327 . S
C3679 C3683 1.429 . S
C3680 C3663 1.574 . S
C3680 H3674 0.949 . S
C3680 C3684 1.368 . S
C3681 C3662 1.429 . S
C3681 C3675 1.429 . S
C3681 C3682 1.523 . S
C3682 C3663 1.368 . S
C3682 C3676 1.368 . S
C3682 C3681 1.523 . S
C3683 C3667 1.429 . S
C3683 C3679 1.429 . S
C3683 C3684 1.523 . S
C3684 C3668 1.368 . S
C3684 C3680 1.368 . S
C3684 C3683 1.523 . S
H3685 C3660 0.950 . S
H3686 C3662 0.950 . S
H3687 C3663 0.949 . S
H3688 C3665 0.950 . S
H3689 C3667 0.950 . S
C3690 C3691 1.349 . S
C3690 C3692 1.327 . S
C3690 H3715 0.950 . S
C3691 C3690 1.349 . S
C3691 C3707 1.349 . S
C3692 C3690 1.327 . S
C3692 C3711 1.429 . S
C3692 H3716 0.950 . S
C3693 C3710 1.574 . S
C3693 C3712 1.368 . S
C3693 H3717 0.949 . S
H3694 C3698 0.949 . S
C3695 C3696 1.349 . S
C3695 C3697 1.327 . S
C3695 H3718 0.950 . S
C3696 C3695 1.349 . S
C3696 C3708 1.349 . S
C3697 C3695 1.327 . S
C3697 C3713 1.429 . S
C3697 H3719 0.950 . S
C3698 H3694 0.949 . S
C3698 C3706 1.574 . S
C3698 C3714 1.368 . S
H3699 C3707 0.950 . S
H3700 C3705 0.950 . S
H3701 C3706 0.949 . S
H3702 C3708 0.950 . S
H3703 C3709 0.950 . S
H3704 C3710 0.949 . S
C3705 H3700 0.950 . S
C3705 C3707 1.327 . S
C3705 C3711 1.429 . S
C3706 C3698 1.574 . S
C3706 H3701 0.949 . S
C3706 C3712 1.368 . S
C3707 C3691 1.349 . S
C3707 H3699 0.950 . S
C3707 C3705 1.327 . S
C3708 C3696 1.349 . S
C3708 H3702 0.950 . S
C3708 C3709 1.327 . S
C3709 H3703 0.950 . S
C3709 C3708 1.327 . S
C3709 C3713 1.429 . S
C3710 C3693 1.574 . S
C3710 H3704 0.949 . S
C3710 C3714 1.368 . S
C3711 C3692 1.429 . S
C3711 C3705 1.429 . S
C3711 C3712 1.523 . S
C3712 C3693 1.368 . S
C3712 C3706 1.368 . S
C3712 C3711 1.523 . S
C3713 C3697 1.429 . S
C3713 C3709 1.429 . S
C3713 C3714 1.523 . S
C3714 C3698 1.368 . S
C3714 C3710 1.368 . S
C3714 C3713 1.523 . S
H3715 C3690 0.950 . S
H3716 C3692 0.950 . S
H3717 C3693 0.949 . S
H3718 C3695 0.950 . S
H3719 C3697 0.950 . S
C3720 C3721 1.349 . S
C3720 C3722 1.327 . S
C3720 H3745 0.950 . S
C3721 C3720 1.349 . S
C3721 C3737 1.349 . S
C3722 C3720 1.327 . S
C3722 C3741 1.429 . S
C3722 H3746 0.950 . S
C3723 C3740 1.574 . S
C3723 C3742 1.368 . S
C3723 H3747 0.949 . S
H3724 C3728 0.949 . S
C3725 C3726 1.349 . S
C3725 C3727 1.327 . S
C3725 H3748 0.950 . S
C3726 C3725 1.349 . S
C3726 C3738 1.349 . S
C3727 C3725 1.327 . S
C3727 C3743 1.429 . S
C3727 H3749 0.950 . S
C3728 H3724 0.949 . S
C3728 C3736 1.574 . S
C3728 C3744 1.368 . S
H3729 C3737 0.950 . S
H3730 C3735 0.950 . S
H3731 C3736 0.949 . S
H3732 C3738 0.950 . S
H3733 C3739 0.950 . S
H3734 C3740 0.949 . S
C3735 H3730 0.950 . S
C3735 C3737 1.327 . S
C3735 C3741 1.429 . S
C3736 C3728 1.574 . S
C3736 H3731 0.949 . S
C3736 C3742 1.368 . S
C3737 C3721 1.349 . S
C3737 H3729 0.950 . S
C3737 C3735 1.327 . S
C3738 C3726 1.349 . S
C3738 H3732 0.950 . S
C3738 C3739 1.327 . S
C3739 H3733 0.950 . S
C3739 C3738 1.327 . S
C3739 C3743 1.429 . S
C3740 C3723 1.574 . S
C3740 H3734 0.949 . S
C3740 C3744 1.368 . S
C3741 C3722 1.429 . S
C3741 C3735 1.429 . S
C3741 C3742 1.523 . S
C3742 C3723 1.368 . S
C3742 C3736 1.368 . S
C3742 C3741 1.523 . S
C3743 C3727 1.429 . S
C3743 C3739 1.429 . S
C3743 C3744 1.523 . S
C3744 C3728 1.368 . S
C3744 C3740 1.368 . S
C3744 C3743 1.523 . S
H3745 C3720 0.950 . S
H3746 C3722 0.950 . S
H3747 C3723 0.949 . S
H3748 C3725 0.950 . S
H3749 C3727 0.950 . S
C3750 C3751 1.349 . S
C3750 C3752 1.327 . S
C3750 H3775 0.950 . S
C3751 C3750 1.349 . S
C3751 C3767 1.349 . S
C3752 C3750 1.327 . S
C3752 C3771 1.429 . S
C3752 H3776 0.950 . S
C3753 C3770 1.574 . S
C3753 C3772 1.368 . S
C3753 H3777 0.949 . S
H3754 C3758 0.949 . S
C3755 C3756 1.349 . S
C3755 C3757 1.327 . S
C3755 H3778 0.950 . S
C3756 C3755 1.349 . S
C3756 C3768 1.349 . S
C3757 C3755 1.327 . S
C3757 C3773 1.429 . S
C3757 H3779 0.950 . S
C3758 H3754 0.949 . S
C3758 C3766 1.574 . S
C3758 C3774 1.368 . S
H3759 C3767 0.950 . S
H3760 C3765 0.950 . S
H3761 C3766 0.949 . S
H3762 C3768 0.950 . S
H3763 C3769 0.950 . S
H3764 C3770 0.949 . S
C3765 H3760 0.950 . S
C3765 C3767 1.327 . S
C3765 C3771 1.429 . S
C3766 C3758 1.574 . S
C3766 H3761 0.949 . S
C3766 C3772 1.368 . S
C3767 C3751 1.349 . S
C3767 H3759 0.950 . S
C3767 C3765 1.327 . S
C3768 C3756 1.349 . S
C3768 H3762 0.950 . S
C3768 C3769 1.327 . S
C3769 H3763 0.950 . S
C3769 C3768 1.327 . S
C3769 C3773 1.429 . S
C3770 C3753 1.574 . S
C3770 H3764 0.949 . S
C3770 C3774 1.368 . S
C3771 C3752 1.429 . S
C3771 C3765 1.429 . S
C3771 C3772 1.523 . S
C3772 C3753 1.368 . S
C3772 C3766 1.368 . S
C3772 C3771 1.523 . S
C3773 C3757 1.429 . S
C3773 C3769 1.429 . S
C3773 C3774 1.523 . S
C3774 C3758 1.368 . S
C3774 C3770 1.368 . S
C3774 C3773 1.523 . S
H3775 C3750 0.950 . S
H3776 C3752 0.950 . S
H3777 C3753 0.949 . S
H3778 C3755 0.950 . S
H3779 C3757 0.950 . S
C3780 C3781 1.349 . S
C3780 C3782 1.327 . S
C3780 H3805 0.950 . S
C3781 C3780 1.349 . S
C3781 C3797 1.349 . S
C3782 C3780 1.327 . S
C3782 C3801 1.429 . S
C3782 H3806 0.950 . S
C3783 C3800 1.574 . S
C3783 C3802 1.368 . S
C3783 H3807 0.949 . S
H3784 C3788 0.949 . S
C3785 C3786 1.349 . S
C3785 C3787 1.327 . S
C3785 H3808 0.950 . S
C3786 C3785 1.349 . S
C3786 C3798 1.349 . S
C3787 C3785 1.327 . S
C3787 C3803 1.429 . S
C3787 H3809 0.950 . S
C3788 H3784 0.949 . S
C3788 C3796 1.574 . S
C3788 C3804 1.368 . S
H3789 C3797 0.950 . S
H3790 C3795 0.950 . S
H3791 C3796 0.949 . S
H3792 C3798 0.950 . S
H3793 C3799 0.950 . S
H3794 C3800 0.949 . S
C3795 H3790 0.950 . S
C3795 C3797 1.327 . S
C3795 C3801 1.429 . S
C3796 C3788 1.574 . S
C3796 H3791 0.949 . S
C3796 C3802 1.368 . S
C3797 C3781 1.349 . S
C3797 H3789 0.950 . S
C3797 C3795 1.327 . S
C3798 C3786 1.349 . S
C3798 H3792 0.950 . S
C3798 C3799 1.327 . S
C3799 H3793 0.950 . S
C3799 C3798 1.327 . S
C3799 C3803 1.429 . S
C3800 C3783 1.574 . S
C3800 H3794 0.949 . S
C3800 C3804 1.368 . S
C3801 C3782 1.429 . S
C3801 C3795 1.429 . S
C3801 C3802 1.523 . S
C3802 C3783 1.368 . S
C3802 C3796 1.368 . S
C3802 C3801 1.523 . S
C3803 C3787 1.429 . S
C3803 C3799 1.429 . S
C3803 C3804 1.523 . S
C3804 C3788 1.368 . S
C3804 C3800 1.368 . S
C3804 C3803 1.523 . S
H3805 C3780 0.950 . S
H3806 C3782 0.950 . S
H3807 C3783 0.949 . S
H3808 C3785 0.950 . S
H3809 C3787 0.950 . S
C3810 C3811 1.349 . S
C3810 C3812 1.327 . S
C3810 H3835 0.950 . S
C3811 C3810 1.349 . S
C3811 C3827 1.349 . S
C3812 C3810 1.327 . S
C3812 C3831 1.429 . S
C3812 H3836 0.950 . S
C3813 C3830 1.574 . S
C3813 C3832 1.368 . S
C3813 H3837 0.949 . S
H3814 C3818 0.949 . S
C3815 C3816 1.349 . S
C3815 C3817 1.327 . S
C3815 H3838 0.950 . S
C3816 C3815 1.349 . S
C3816 C3828 1.349 . S
C3817 C3815 1.327 . S
C3817 C3833 1.429 . S
C3817 H3839 0.950 . S
C3818 H3814 0.949 . S
C3818 C3826 1.574 . S
C3818 C3834 1.368 . S
H3819 C3827 0.950 . S
H3820 C3825 0.950 . S
H3821 C3826 0.949 . S
H3822 C3828 0.950 . S
H3823 C3829 0.950 . S
H3824 C3830 0.949 . S
C3825 H3820 0.950 . S
C3825 C3827 1.327 . S
C3825 C3831 1.429 . S
C3826 C3818 1.574 . S
C3826 H3821 0.949 . S
C3826 C3832 1.368 . S
C3827 C3811 1.349 . S
C3827 H3819 0.950 . S
C3827 C3825 1.327 . S
C3828 C3816 1.349 . S
C3828 H3822 0.950 . S
C3828 C3829 1.327 . S
C3829 H3823 0.950 . S
C3829 C3828 1.327 . S
C3829 C3833 1.429 . S
C3830 C3813 1.574 . S
C3830 H3824 0.949 . S
C3830 C3834 1.368 . S
C3831 C3812 1.429 . S
C3831 C3825 1.429 . S
C3831 C3832 1.523 . S
C3832 C3813 1.368 . S
C3832 C3826 1.368 . S
C3832 C3831 1.523 . S
C3833 C3817 1.429 . S
C3833 C3829 1.429 . S
C3833 C3834 1.523 . S
C3834 C3818 1.368 . S
C3834 C3830 1.368 . S
C3834 C3833 1.523 . S
H3835 C3810 0.950 . S
H3836 C3812 0.950 . S
H3837 C3813 0.949 . S
H3838 C3815 0.950 . S
H3839 C3817 0.950 . S
C3840 C3841 1.349 . S
C3840 C3842 1.327 . S
C3840 H3865 0.950 . S
C3841 C3840 1.349 . S
C3841 C3857 1.349 . S
C3842 C3840 1.327 . S
C3842 C3861 1.429 . S
C3842 H3866 0.950 . S
C3843 C3860 1.574 . S
C3843 C3862 1.368 . S
C3843 H3867 0.949 . S
H3844 C3848 0.949 . S
C3845 C3846 1.349 . S
C3845 C3847 1.327 . S
C3845 H3868 0.950 . S
C3846 C3845 1.349 . S
C3846 C3858 1.349 . S
C3847 C3845 1.327 . S
C3847 C3863 1.429 . S
C3847 H3869 0.950 . S
C3848 H3844 0.949 . S
C3848 C3856 1.574 . S
C3848 C3864 1.368 . S
H3849 C3857 0.950 . S
H3850 C3855 0.950 . S
H3851 C3856 0.949 . S
H3852 C3858 0.950 . S
H3853 C3859 0.950 . S
H3854 C3860 0.949 . S
C3855 H3850 0.950 . S
C3855 C3857 1.327 . S
C3855 C3861 1.429 . S
C3856 C3848 1.574 . S
C3856 H3851 0.949 . S
C3856 C3862 1.368 . S
C3857 C3841 1.349 . S
C3857 H3849 0.950 . S
C3857 C3855 1.327 . S
C3858 C3846 1.349 . S
C3858 H3852 0.950 . S
C3858 C3859 1.327 . S
C3859 H3853 0.950 . S
C3859 C3858 1.327 . S
C3859 C3863 1.429 . S
C3860 C3843 1.574 . S
C3860 H3854 0.949 . S
C3860 C3864 1.368 . S
C3861 C3842 1.429 . S
C3861 C3855 1.429 . S
C3861 C3862 1.523 . S
C3862 C3843 1.368 . S
C3862 C3856 1.368 . S
C3862 C3861 1.523 . S
C3863 C3847 1.429 . S
C3863 C3859 1.429 . S
C3863 C3864 1.523 . S
C3864 C3848 1.368 . S
C3864 C3860 1.368 . S
C3864 C3863 1.523 . S
H3865 C3840 0.950 . S
H3866 C3842 0.950 . S
H3867 C3843 0.949 . S
H3868 C3845 0.950 . S
H3869 C3847 0.950 . S
C3870 C3871 1.349 . S
C3870 C3872 1.327 . S
C3870 H3895 0.950 . S
C3871 C3870 1.349 . S
C3871 C3887 1.349 . S
C3872 C3870 1.327 . S
C3872 C3891 1.429 . S
C3872 H3896 0.950 . S
C3873 C3890 1.574 . S
C3873 C3892 1.368 . S
C3873 H3897 0.949 . S
H3874 C3878 0.949 . S
C3875 C3876 1.349 . S
C3875 C3877 1.327 . S
C3875 H3898 0.950 . S
C3876 C3875 1.349 . S
C3876 C3888 1.349 . S
C3877 C3875 1.327 . S
C3877 C3893 1.429 . S
C3877 H3899 0.950 . S
C3878 H3874 0.949 . S
C3878 C3886 1.574 . S
C3878 C3894 1.368 . S
H3879 C3887 0.950 . S
H3880 C3885 0.950 . S
H3881 C3886 0.949 . S
H3882 C3888 0.950 . S
H3883 C3889 0.950 . S
H3884 C3890 0.949 . S
C3885 H3880 0.950 . S
C3885 C3887 1.327 . S
C3885 C3891 1.429 . S
C3886 C3878 1.574 . S
C3886 H3881 0.949 . S
C3886 C3892 1.368 . S
C3887 C3871 1.349 . S
C3887 H3879 0.950 . S
C3887 C3885 1.327 . S
C3888 C3876 1.349 . S
C3888 H3882 0.950 . S
C3888 C3889 1.327 . S
C3889 H3883 0.950 . S
C3889 C3888 1.327 . S
C3889 C3893 1.429 . S
C3890 C3873 1.574 . S
C3890 H3884 0.949 . S
C3890 C3894 1.368 . S
C3891 C3872 1.429 . S
C3891 C3885 1.429 . S
C3891 C3892 1.523 . S
C3892 C3873 1.368 . S
C3892 C3886 1.368 . S
C3892 C3891 1.523 . S
C3893 C3877 1.429 . S
C3893 C3889 1.429 . S
C3893 C3894 1.523 . S
C3894 C3878 1.368 . S
C3894 C3890 1.368 . S
C3894 C3893 1.523 . S
H3895 C3870 0.950 . S
H3896 C3872 0.950 . S
H3897 C3873 0.949 . S
H3898 C3875 0.950 . S
H3899 C3877 0.950 . S
C3900 C3901 1.349 . S
C3900 C3902 1.327 . S
C3900 H3925 0.950 . S
C3901 C3900 1.349 . S
C3901 C3917 1.349 . S
C3902 C3900 1.327 . S
C3902 C3921 1.429 . S
C3902 H3926 0.950 . S
C3903 C3920 1.574 . S
C3903 C3922 1.368 . S
C3903 H3927 0.949 . S
H3904 C3908 0.949 . S
C3905 C3906 1.349 . S
C3905 C3907 1.327 . S
C3905 H3928 0.950 . S
C3906 C3905 1.349 . S
C3906 C3918 1.349 . S
C3907 C3905 1.327 . S
C3907 C3923 1.429 . S
C3907 H3929 0.950 . S
C3908 H3904 0.949 . S
C3908 C3916 1.574 . S
C3908 C3924 1.368 . S
H3909 C3917 0.950 . S
H3910 C3915 0.950 . S
H3911 C3916 0.949 . S
H3912 C3918 0.950 . S
H3913 C3919 0.950 . S
H3914 C3920 0.949 . S
C3915 H3910 0.950 . S
C3915 C3917 1.327 . S
C3915 C3921 1.429 . S
C3916 C3908 1.574 . S
C3916 H3911 0.949 . S
C3916 C3922 1.368 . S
C3917 C3901 1.349 . S
C3917 H3909 0.950 . S
C3917 C3915 1.327 . S
C3918 C3906 1.349 . S
C3918 H3912 0.950 . S
C3918 C3919 1.327 . S
C3919 H3913 0.950 . S
C3919 C3918 1.327 . S
C3919 C3923 1.429 . S
C3920 C3903 1.574 . S
C3920 H3914 0.949 . S
C3920 C3924 1.368 . S
C3921 C3902 1.429 . S
C3921 C3915 1.429 . S
C3921 C3922 1.523 . S
C3922 C3903 1.368 . S
C3922 C3916 1.368 . S
C3922 C3921 1.523 . S
C3923 C3907 1.429 . S
C3923 C3919 1.429 . S
C3923 C3924 1.523 . S
C3924 C3908 1.368 . S
C3924 C3920 1.368 . S
C3924 C3923 1.523 . S
H3925 C3900 0.950 . S
H3926 C3902 0.950 . S
H3927 C3903 0.949 . S
H3928 C3905 0.950 . S
H3929 C3907 0.950 . S
C3930 C3931 1.349 . S
C3930 C3932 1.327 . S
C3930 H3955 0.950 . S
C3931 C3930 1.349 . S
C3931 C3947 1.349 . S
C3932 C3930 1.327 . S
C3932 C3951 1.429 . S
C3932 H3956 0.950 . S
C3933 C3950 1.574 . S
C3933 C3952 1.368 . S
C3933 H3957 0.949 . S
H3934 C3938 0.949 . S
C3935 C3936 1.349 . S
C3935 C3937 1.327 . S
C3935 H3958 0.950 . S
C3936 C3935 1.349 . S
C3936 C3948 1.349 . S
C3937 C3935 1.327 . S
C3937 C3953 1.429 . S
C3937 H3959 0.950 . S
C3938 H3934 0.949 . S
C3938 C3946 1.574 . S
C3938 C3954 1.368 . S
H3939 C3947 0.950 . S
H3940 C3945 0.950 . S
H3941 C3946 0.949 . S
H3942 C3948 0.950 . S
H3943 C3949 0.950 . S
H3944 C3950 0.949 . S
C3945 H3940 0.950 . S
C3945 C3947 1.327 . S
C3945 C3951 1.429 . S
C3946 C3938 1.574 . S
C3946 H3941 0.949 . S
C3946 C3952 1.368 . S
C3947 C3931 1.349 . S
C3947 H3939 0.950 . S
C3947 C3945 1.327 . S
C3948 C3936 1.349 . S
C3948 H3942 0.950 . S
C3948 C3949 1.327 . S
C3949 H3943 0.950 . S
C3949 C3948 1.327 . S
C3949 C3953 1.429 . S
C3950 C3933 1.574 . S
C3950 H3944 0.949 . S
C3950 C3954 1.368 . S
C3951 C3932 1.429 . S
C3951 C3945 1.429 . S
C3951 C3952 1.523 . S
C3952 C3933 1.368 . S
C3952 C3946 1.368 . S
C3952 C3951 1.523 . S
C3953 C3937 1.429 . S
C3953 C3949 1.429 . S
C3953 C3954 1.523 . S
C3954 C3938 1.368 . S
C3954 C3950 1.368 . S
C3954 C3953 1.523 . S
H3955 C3930 0.950 . S
H3956 C3932 0.950 . S
H3957 C3933 0.949 . S
H3958 C3935 0.950 . S
H3959 C3937 0.950 . S
C3960 C3961 1.349 . S
C3960 C3962 1.327 1_655 S
C3960 H3985 0.950 1_655 S
C3961 C3960 1.349 . S
C3961 C3977 1.349 . S
C3962 C3960 1.327 1_455 S
C3962 C3981 1.429 1_455 S
C3962 H3986 0.950 . S
C3963 C3980 1.574 . S
C3963 C3982 1.368 . S
C3963 H3987 0.949 . S
H3964 C3968 0.949 . S
C3965 C3966 1.349 . S
C3965 C3967 1.327 . S
C3965 H3988 0.950 . S
C3966 C3965 1.349 . S
C3966 C3978 1.349 . S
C3967 C3965 1.327 . S
C3967 C3983 1.429 . S
C3967 H3989 0.950 1_455 S
C3968 H3964 0.949 . S
C3968 C3976 1.574 . S
C3968 C3984 1.368 . S
H3969 C3977 0.950 . S
H3970 C3975 0.950 . S
H3971 C3976 0.949 . S
H3972 C3978 0.950 . S
H3973 C3979 0.950 . S
H3974 C3980 0.949 . S
C3975 H3970 0.950 . S
C3975 C3977 1.327 . S
C3975 C3981 1.429 . S
C3976 C3968 1.574 . S
C3976 H3971 0.949 . S
C3976 C3982 1.368 1_455 S
C3977 C3961 1.349 . S
C3977 H3969 0.950 . S
C3977 C3975 1.327 . S
C3978 C3966 1.349 . S
C3978 H3972 0.950 . S
C3978 C3979 1.327 . S
C3979 H3973 0.950 . S
C3979 C3978 1.327 . S
C3979 C3983 1.429 . S
C3980 C3963 1.574 . S
C3980 H3974 0.949 . S
C3980 C3984 1.368 1_655 S
C3981 C3962 1.429 1_655 S
C3981 C3975 1.429 . S
C3981 C3982 1.523 . S
C3982 C3963 1.368 . S
C3982 C3976 1.368 1_655 S
C3982 C3981 1.523 . S
C3983 C3967 1.429 . S
C3983 C3979 1.429 . S
C3983 C3984 1.523 . S
C3984 C3968 1.368 . S
C3984 C3980 1.368 1_455 S
C3984 C3983 1.523 . S
H3985 C3960 0.950 1_455 S
H3986 C3962 0.950 . S
H3987 C3963 0.949 . S
H3988 C3965 0.950 . S
H3989 C3967 0.950 1_655 S
C3990 C3991 1.349 . S
C3990 C3992 1.327 . S
C3990 H4015 0.950 . S
C3991 C3990 1.349 . S
C3991 C4007 1.349 . S
C3992 C3990 1.327 . S
C3992 C4011 1.429 . S
C3992 H4016 0.950 . S
C3993 C4010 1.574 . S
C3993 C4012 1.368 . S
C3993 H4017 0.949 . S
H3994 C3998 0.949 . S
C3995 C3996 1.349 . S
C3995 C3997 1.327 . S
C3995 H4018 0.950 . S
C3996 C3995 1.349 . S
C3996 C4008 1.349 . S
C3997 C3995 1.327 . S
C3997 C4013 1.429 . S
C3997 H4019 0.950 . S
C3998 H3994 0.949 . S
C3998 C4006 1.574 . S
C3998 C4014 1.368 . S
H3999 C4007 0.950 . S
H4000 C4005 0.950 . S
H4001 C4006 0.949 . S
H4002 C4008 0.950 . S
H4003 C4009 0.950 . S
H4004 C4010 0.949 . S
C4005 H4000 0.950 . S
C4005 C4007 1.327 . S
C4005 C4011 1.429 . S
C4006 C3998 1.574 . S
C4006 H4001 0.949 . S
C4006 C4012 1.368 . S
C4007 C3991 1.349 . S
C4007 H3999 0.950 . S
C4007 C4005 1.327 . S
C4008 C3996 1.349 . S
C4008 H4002 0.950 . S
C4008 C4009 1.327 . S
C4009 H4003 0.950 . S
C4009 C4008 1.327 . S
C4009 C4013 1.429 . S
C4010 C3993 1.574 . S
C4010 H4004 0.949 . S
C4010 C4014 1.368 . S
C4011 C3992 1.429 . S
C4011 C4005 1.429 . S
C4011 C4012 1.523 . S
C4012 C3993 1.368 . S
C4012 C4006 1.368 . S
C4012 C4011 1.523 . S
C4013 C3997 1.429 . S
C4013 C4009 1.429 . S
C4013 C4014 1.523 . S
C4014 C3998 1.368 . S
C4014 C4010 1.368 . S
C4014 C4013 1.523 . S
H4015 C3990 0.950 . S
H4016 C3992 0.950 . S
H4017 C3993 0.949 . S
H4018 C3995 0.950 . S
H4019 C3997 0.950 . S
C4020 C4021 1.349 1_565 S
C4020 C4022 1.327 . S
C4020 H4045 0.950 . S
C4021 C4020 1.349 1_545 S
C4021 C4037 1.349 . S
C4022 C4020 1.327 . S
C4022 C4041 1.429 1_565 S
C4022 H4046 0.950 . S
C4023 C4040 1.574 . S
C4023 C4042 1.368 . S
C4023 H4047 0.949 . S
H4024 C4028 0.949 . S
C4025 C4026 1.349 1_545 S
C4025 C4027 1.327 . S
C4025 H4048 0.950 . S
C4026 C4025 1.349 1_565 S
C4026 C4038 1.349 . S
C4027 C4025 1.327 . S
C4027 C4043 1.429 1_545 S
C4027 H4049 0.950 . S
C4028 H4024 0.949 . S
C4028 C4036 1.574 . S
C4028 C4044 1.368 . S
H4029 C4037 0.950 . S
H4030 C4035 0.950 . S
H4031 C4036 0.949 . S
H4032 C4038 0.950 . S
H4033 C4039 0.950 . S
H4034 C4040 0.949 . S
C4035 H4030 0.950 . S
C4035 C4037 1.327 . S
C4035 C4041 1.429 . S
C4036 C4028 1.574 . S
C4036 H4031 0.949 . S
C4036 C4042 1.368 1_565 S
C4037 C4021 1.349 . S
C4037 H4029 0.950 . S
C4037 C4035 1.327 . S
C4038 C4026 1.349 . S
C4038 H4032 0.950 . S
C4038 C4039 1.327 . S
C4039 H4033 0.950 . S
C4039 C4038 1.327 . S
C4039 C4043 1.429 . S
C4040 C4023 1.574 . S
C4040 H4034 0.949 . S
C4040 C4044 1.368 1_545 S
C4041 C4022 1.429 1_545 S
C4041 C4035 1.429 . S
C4041 C4042 1.523 . S
C4042 C4023 1.368 . S
C4042 C4036 1.368 1_545 S
C4042 C4041 1.523 . S
C4043 C4027 1.429 1_565 S
C4043 C4039 1.429 . S
C4043 C4044 1.523 . S
C4044 C4028 1.368 . S
C4044 C4040 1.368 1_565 S
C4044 C4043 1.523 . S
H4045 C4020 0.950 . S
H4046 C4022 0.950 . S
H4047 C4023 0.949 . S
H4048 C4025 0.950 . S
H4049 C4027 0.950 . S
C4050 C4051 1.349 1_565 S
C4050 C4052 1.327 . S
C4050 H4075 0.950 . S
C4051 C4050 1.349 1_545 S
C4051 C4067 1.349 . S
C4052 C4050 1.327 . S
C4052 C4071 1.429 1_565 S
C4052 H4076 0.950 . S
C4053 C4070 1.574 . S
C4053 C4072 1.368 . S
C4053 H4077 0.949 . S
H4054 C4058 0.949 . S
C4055 C4056 1.349 1_545 S
C4055 C4057 1.327 . S
C4055 H4078 0.950 . S
C4056 C4055 1.349 1_565 S
C4056 C4068 1.349 . S
C4057 C4055 1.327 . S
C4057 C4073 1.429 1_545 S
C4057 H4079 0.950 . S
C4058 H4054 0.949 . S
C4058 C4066 1.574 . S
C4058 C4074 1.368 . S
H4059 C4067 0.950 . S
H4060 C4065 0.950 . S
H4061 C4066 0.949 . S
H4062 C4068 0.950 . S
H4063 C4069 0.950 . S
H4064 C4070 0.949 . S
C4065 H4060 0.950 . S
C4065 C4067 1.327 . S
C4065 C4071 1.429 . S
C4066 C4058 1.574 . S
C4066 H4061 0.949 . S
C4066 C4072 1.368 1_565 S
C4067 C4051 1.349 . S
C4067 H4059 0.950 . S
C4067 C4065 1.327 . S
C4068 C4056 1.349 . S
C4068 H4062 0.950 . S
C4068 C4069 1.327 . S
C4069 H4063 0.950 . S
C4069 C4068 1.327 . S
C4069 C4073 1.429 . S
C4070 C4053 1.574 . S
C4070 H4064 0.949 . S
C4070 C4074 1.368 1_545 S
C4071 C4052 1.429 1_545 S
C4071 C4065 1.429 . S
C4071 C4072 1.523 . S
C4072 C4053 1.368 . S
C4072 C4066 1.368 1_545 S
C4072 C4071 1.523 . S
C4073 C4057 1.429 1_565 S
C4073 C4069 1.429 . S
C4073 C4074 1.523 . S
C4074 C4058 1.368 . S
C4074 C4070 1.368 1_565 S
C4074 C4073 1.523 . S
H4075 C4050 0.950 . S
H4076 C4052 0.950 . S
H4077 C4053 0.949 . S
H4078 C4055 0.950 . S
H4079 C4057 0.950 . S
C4080 C4081 1.349 1_655 S
C4080 C4082 1.327 . S
C4080 H4105 0.950 . S
C4081 C4080 1.349 1_455 S
C4081 C4097 1.349 . S
C4082 C4080 1.327 . S
C4082 C4101 1.429 1_655 S
C4082 H4106 0.950 . S
C4083 C4100 1.574 . S
C4083 C4102 1.368 . S
C4083 H4107 0.949 . S
H4084 C4088 0.949 . S
C4085 C4086 1.349 1_455 S
C4085 C4087 1.327 . S
C4085 H4108 0.950 . S
C4086 C4085 1.349 1_655 S
C4086 C4098 1.349 . S
C4087 C4085 1.327 . S
C4087 C4103 1.429 1_455 S
C4087 H4109 0.950 . S
C4088 H4084 0.949 . S
C4088 C4096 1.574 . S
C4088 C4104 1.368 . S
H4089 C4097 0.950 . S
H4090 C4095 0.950 . S
H4091 C4096 0.949 . S
H4092 C4098 0.950 . S
H4093 C4099 0.950 . S
H4094 C4100 0.949 . S
C4095 H4090 0.950 . S
C4095 C4097 1.327 . S
C4095 C4101 1.429 . S
C4096 C4088 1.574 . S
C4096 H4091 0.949 . S
C4096 C4102 1.368 1_655 S
C4097 C4081 1.349 . S
C4097 H4089 0.950 . S
C4097 C4095 1.327 . S
C4098 C4086 1.349 . S
C4098 H4092 0.950 . S
C4098 C4099 1.327 . S
C4099 H4093 0.950 . S
C4099 C4098 1.327 . S
C4099 C4103 1.429 . S
C4100 C4083 1.574 . S
C4100 H4094 0.949 . S
C4100 C4104 1.368 1_455 S
C4101 C4082 1.429 1_455 S
C4101 C4095 1.429 . S
C4101 C4102 1.523 . S
C4102 C4083 1.368 . S
C4102 C4096 1.368 1_455 S
C4102 C4101 1.523 . S
C4103 C4087 1.429 1_655 S
C4103 C4099 1.429 . S
C4103 C4104 1.523 . S
C4104 C4088 1.368 . S
C4104 C4100 1.368 1_655 S
C4104 C4103 1.523 . S
H4105 C4080 0.950 . S
H4106 C4082 0.950 . S
H4107 C4083 0.949 . S
H4108 C4085 0.950 . S
H4109 C4087 0.950 . S
C4110 C4111 1.349 . S
C4110 C4112 1.327 . S
C4110 H4135 0.950 . S
C4111 C4110 1.349 . S
C4111 C4127 1.349 . S
C4112 C4110 1.327 . S
C4112 C4131 1.429 . S
C4112 H4136 0.950 . S
C4113 C4130 1.574 . S
C4113 C4132 1.368 . S
C4113 H4137 0.949 . S
H4114 C4118 0.949 . S
C4115 C4116 1.349 . S
C4115 C4117 1.327 . S
C4115 H4138 0.950 . S
C4116 C4115 1.349 . S
C4116 C4128 1.349 . S
C4117 C4115 1.327 . S
C4117 C4133 1.429 . S
C4117 H4139 0.950 . S
C4118 H4114 0.949 . S
C4118 C4126 1.574 . S
C4118 C4134 1.368 . S
H4119 C4127 0.950 . S
H4120 C4125 0.950 . S
H4121 C4126 0.949 . S
H4122 C4128 0.950 . S
H4123 C4129 0.950 . S
H4124 C4130 0.949 . S
C4125 H4120 0.950 . S
C4125 C4127 1.327 . S
C4125 C4131 1.429 . S
C4126 C4118 1.574 . S
C4126 H4121 0.949 . S
C4126 C4132 1.368 . S
C4127 C4111 1.349 . S
C4127 H4119 0.950 . S
C4127 C4125 1.327 . S
C4128 C4116 1.349 . S
C4128 H4122 0.950 . S
C4128 C4129 1.327 . S
C4129 H4123 0.950 . S
C4129 C4128 1.327 . S
C4129 C4133 1.429 . S
C4130 C4113 1.574 . S
C4130 H4124 0.949 . S
C4130 C4134 1.368 . S
C4131 C4112 1.429 . S
C4131 C4125 1.429 . S
C4131 C4132 1.523 . S
C4132 C4113 1.368 . S
C4132 C4126 1.368 . S
C4132 C4131 1.523 . S
C4133 C4117 1.429 . S
C4133 C4129 1.429 . S
C4133 C4134 1.523 . S
C4134 C4118 1.368 . S
C4134 C4130 1.368 . S
C4134 C4133 1.523 . S
H4135 C4110 0.950 . S
H4136 C4112 0.950 . S
H4137 C4113 0.949 . S
H4138 C4115 0.950 . S
H4139 C4117 0.950 . S
C4140 C4141 1.349 . S
C4140 C4142 1.327 . S
C4140 H4165 0.950 . S
C4141 C4140 1.349 . S
C4141 C4157 1.349 . S
C4142 C4140 1.327 . S
C4142 C4161 1.429 . S
C4142 H4166 0.950 . S
C4143 C4160 1.574 . S
C4143 C4162 1.368 . S
C4143 H4167 0.949 . S
H4144 C4148 0.949 . S
C4145 C4146 1.349 . S
C4145 C4147 1.327 . S
C4145 H4168 0.950 . S
C4146 C4145 1.349 . S
C4146 C4158 1.349 . S
C4147 C4145 1.327 . S
C4147 C4163 1.429 . S
C4147 H4169 0.950 . S
C4148 H4144 0.949 . S
C4148 C4156 1.574 . S
C4148 C4164 1.368 . S
H4149 C4157 0.950 . S
H4150 C4155 0.950 . S
H4151 C4156 0.949 . S
H4152 C4158 0.950 . S
H4153 C4159 0.950 . S
H4154 C4160 0.949 . S
C4155 H4150 0.950 . S
C4155 C4157 1.327 . S
C4155 C4161 1.429 . S
C4156 C4148 1.574 . S
C4156 H4151 0.949 . S
C4156 C4162 1.368 1_455 S
C4157 C4141 1.349 . S
C4157 H4149 0.950 . S
C4157 C4155 1.327 . S
C4158 C4146 1.349 . S
C4158 H4152 0.950 . S
C4158 C4159 1.327 . S
C4159 H4153 0.950 . S
C4159 C4158 1.327 . S
C4159 C4163 1.429 . S
C4160 C4143 1.574 . S
C4160 H4154 0.949 . S
C4160 C4164 1.368 1_655 S
C4161 C4142 1.429 . S
C4161 C4155 1.429 . S
C4161 C4162 1.523 . S
C4162 C4143 1.368 . S
C4162 C4156 1.368 1_655 S
C4162 C4161 1.523 . S
C4163 C4147 1.429 . S
C4163 C4159 1.429 . S
C4163 C4164 1.523 . S
C4164 C4148 1.368 . S
C4164 C4160 1.368 1_455 S
C4164 C4163 1.523 . S
H4165 C4140 0.950 . S
H4166 C4142 0.950 . S
H4167 C4143 0.949 . S
H4168 C4145 0.950 . S
H4169 C4147 0.950 . S
C4170 C4171 1.349 . S
C4170 C4172 1.327 . S
C4170 H4195 0.950 . S
C4171 C4170 1.349 . S
C4171 C4187 1.349 . S
C4172 C4170 1.327 . S
C4172 C4191 1.429 . S
C4172 H4196 0.950 . S
C4173 C4190 1.574 . S
C4173 C4192 1.368 . S
C4173 H4197 0.949 . S
H4174 C4178 0.949 . S
C4175 C4176 1.349 . S
C4175 C4177 1.327 . S
C4175 H4198 0.950 . S
C4176 C4175 1.349 . S
C4176 C4188 1.349 . S
C4177 C4175 1.327 . S
C4177 C4193 1.429 . S
C4177 H4199 0.950 . S
C4178 H4174 0.949 . S
C4178 C4186 1.574 . S
C4178 C4194 1.368 . S
H4179 C4187 0.950 . S
H4180 C4185 0.950 . S
H4181 C4186 0.949 . S
H4182 C4188 0.950 . S
H4183 C4189 0.950 . S
H4184 C4190 0.949 . S
C4185 H4180 0.950 . S
C4185 C4187 1.327 . S
C4185 C4191 1.429 . S
C4186 C4178 1.574 . S
C4186 H4181 0.949 . S
C4186 C4192 1.368 . S
C4187 C4171 1.349 . S
C4187 H4179 0.950 . S
C4187 C4185 1.327 . S
C4188 C4176 1.349 . S
C4188 H4182 0.950 . S
C4188 C4189 1.327 . S
C4189 H4183 0.950 . S
C4189 C4188 1.327 . S
C4189 C4193 1.429 . S
C4190 C4173 1.574 . S
C4190 H4184 0.949 . S
C4190 C4194 1.368 . S
C4191 C4172 1.429 . S
C4191 C4185 1.429 . S
C4191 C4192 1.523 . S
C4192 C4173 1.368 . S
C4192 C4186 1.368 . S
C4192 C4191 1.523 . S
C4193 C4177 1.429 . S
C4193 C4189 1.429 . S
C4193 C4194 1.523 . S
C4194 C4178 1.368 . S
C4194 C4190 1.368 . S
C4194 C4193 1.523 . S
H4195 C4170 0.950 . S
H4196 C4172 0.950 . S
H4197 C4173 0.949 . S
H4198 C4175 0.950 . S
H4199 C4177 0.950 . S
C4200 C4201 1.349 . S
C4200 C4202 1.327 . S
C4200 H4225 0.950 . S
C4201 C4200 1.349 . S
C4201 C4217 1.349 . S
C4202 C4200 1.327 . S
C4202 C4221 1.429 . S
C4202 H4226 0.950 . S
C4203 C4220 1.574 . S
C4203 C4222 1.368 1_565 S
C4203 H4227 0.949 . S
H4204 C4208 0.949 . S
C4205 C4206 1.349 . S
C4205 C4207 1.327 . S
C4205 H4228 0.950 . S
C4206 C4205 1.349 . S
C4206 C4218 1.349 . S
C4207 C4205 1.327 . S
C4207 C4223 1.429 . S
C4207 H4229 0.950 . S
C4208 H4204 0.949 . S
C4208 C4216 1.574 . S
C4208 C4224 1.368 1_545 S
H4209 C4217 0.950 . S
H4210 C4215 0.950 . S
H4211 C4216 0.949 . S
H4212 C4218 0.950 . S
H4213 C4219 0.950 . S
H4214 C4220 0.949 . S
C4215 H4210 0.950 . S
C4215 C4217 1.327 . S
C4215 C4221 1.429 . S
C4216 C4208 1.574 . S
C4216 H4211 0.949 . S
C4216 C4222 1.368 . S
C4217 C4201 1.349 . S
C4217 H4209 0.950 . S
C4217 C4215 1.327 . S
C4218 C4206 1.349 . S
C4218 H4212 0.950 . S
C4218 C4219 1.327 . S
C4219 H4213 0.950 . S
C4219 C4218 1.327 . S
C4219 C4223 1.429 . S
C4220 C4203 1.574 . S
C4220 H4214 0.949 . S
C4220 C4224 1.368 . S
C4221 C4202 1.429 . S
C4221 C4215 1.429 . S
C4221 C4222 1.523 . S
C4222 C4203 1.368 1_545 S
C4222 C4216 1.368 . S
C4222 C4221 1.523 . S
C4223 C4207 1.429 . S
C4223 C4219 1.429 . S
C4223 C4224 1.523 . S
C4224 C4208 1.368 1_565 S
C4224 C4220 1.368 . S
C4224 C4223 1.523 . S
H4225 C4200 0.950 . S
H4226 C4202 0.950 . S
H4227 C4203 0.949 . S
H4228 C4205 0.950 . S
H4229 C4207 0.950 . S
C4230 C4231 1.349 . S
C4230 C4232 1.327 . S
C4230 H4255 0.950 . S
C4231 C4230 1.349 . S
C4231 C4247 1.349 . S
C4232 C4230 1.327 . S
C4232 C4251 1.429 . S
C4232 H4256 0.950 . S
C4233 C4250 1.574 . S
C4233 C4252 1.368 1_455 S
C4233 H4257 0.949 . S
H4234 C4238 0.949 . S
C4235 C4236 1.349 . S
C4235 C4237 1.327 . S
C4235 H4258 0.950 . S
C4236 C4235 1.349 . S
C4236 C4248 1.349 . S
C4237 C4235 1.327 . S
C4237 C4253 1.429 . S
C4237 H4259 0.950 . S
C4238 H4234 0.949 . S
C4238 C4246 1.574 . S
C4238 C4254 1.368 1_655 S
H4239 C4247 0.950 . S
H4240 C4245 0.950 1_455 S
H4241 C4246 0.949 . S
H4242 C4248 0.950 . S
H4243 C4249 0.950 1_655 S
H4244 C4250 0.949 . S
C4245 H4240 0.950 1_655 S
C4245 C4247 1.327 . S
C4245 C4251 1.429 . S
C4246 C4238 1.574 . S
C4246 H4241 0.949 . S
C4246 C4252 1.368 . S
C4247 C4231 1.349 . S
C4247 H4239 0.950 . S
C4247 C4245 1.327 . S
C4248 C4236 1.349 . S
C4248 H4242 0.950 . S
C4248 C4249 1.327 . S
C4249 H4243 0.950 1_455 S
C4249 C4248 1.327 . S
C4249 C4253 1.429 . S
C4250 C4233 1.574 . S
C4250 H4244 0.949 . S
C4250 C4254 1.368 . S
C4251 C4232 1.429 . S
C4251 C4245 1.429 . S
C4251 C4252 1.523 . S
C4252 C4233 1.368 1_655 S
C4252 C4246 1.368 . S
C4252 C4251 1.523 . S
C4253 C4237 1.429 . S
C4253 C4249 1.429 . S
C4253 C4254 1.523 . S
C4254 C4238 1.368 1_455 S
C4254 C4250 1.368 . S
C4254 C4253 1.523 . S
H4255 C4230 0.950 . S
H4256 C4232 0.950 . S
H4257 C4233 0.949 . S
H4258 C4235 0.950 . S
H4259 C4237 0.950 . S
C4260 C4261 1.349 . S
C4260 C4262 1.327 . S
C4260 H4285 0.950 . S
C4261 C4260 1.349 . S
C4261 C4277 1.349 . S
C4262 C4260 1.327 . S
C4262 C4281 1.429 . S
C4262 H4286 0.950 . S
C4263 C4280 1.574 . S
C4263 C4282 1.368 . S
C4263 H4287 0.949 . S
H4264 C4268 0.949 . S
C4265 C4266 1.349 . S
C4265 C4267 1.327 . S
C4265 H4288 0.950 . S
C4266 C4265 1.349 . S
C4266 C4278 1.349 . S
C4267 C4265 1.327 . S
C4267 C4283 1.429 . S
C4267 H4289 0.950 . S
C4268 H4264 0.949 . S
C4268 C4276 1.574 . S
C4268 C4284 1.368 . S
H4269 C4277 0.950 . S
H4270 C4275 0.950 . S
H4271 C4276 0.949 . S
H4272 C4278 0.950 . S
H4273 C4279 0.950 . S
H4274 C4280 0.949 . S
C4275 H4270 0.950 . S
C4275 C4277 1.327 . S
C4275 C4281 1.429 . S
C4276 C4268 1.574 . S
C4276 H4271 0.949 . S
C4276 C4282 1.368 . S
C4277 C4261 1.349 . S
C4277 H4269 0.950 . S
C4277 C4275 1.327 . S
C4278 C4266 1.349 . S
C4278 H4272 0.950 . S
C4278 C4279 1.327 . S
C4279 H4273 0.950 . S
C4279 C4278 1.327 . S
C4279 C4283 1.429 . S
C4280 C4263 1.574 . S
C4280 H4274 0.949 . S
C4280 C4284 1.368 . S
C4281 C4262 1.429 . S
C4281 C4275 1.429 . S
C4281 C4282 1.523 . S
C4282 C4263 1.368 . S
C4282 C4276 1.368 . S
C4282 C4281 1.523 . S
C4283 C4267 1.429 . S
C4283 C4279 1.429 . S
C4283 C4284 1.523 . S
C4284 C4268 1.368 . S
C4284 C4280 1.368 . S
C4284 C4283 1.523 . S
H4285 C4260 0.950 . S
H4286 C4262 0.950 . S
H4287 C4263 0.949 . S
H4288 C4265 0.950 . S
H4289 C4267 0.950 . S
C4290 C4291 1.349 . S
C4290 C4292 1.327 . S
C4290 H4315 0.950 . S
C4291 C4290 1.349 . S
C4291 C4307 1.349 . S
C4292 C4290 1.327 . S
C4292 C4311 1.429 . S
C4292 H4316 0.950 1_545 S
C4293 C4310 1.574 . S
C4293 C4312 1.368 . S
C4293 H4317 0.949 . S
H4294 C4298 0.949 . S
C4295 C4296 1.349 . S
C4295 C4297 1.327 . S
C4295 H4318 0.950 . S
C4296 C4295 1.349 . S
C4296 C4308 1.349 . S
C4297 C4295 1.327 . S
C4297 C4313 1.429 . S
C4297 H4319 0.950 1_565 S
C4298 H4294 0.949 . S
C4298 C4306 1.574 . S
C4298 C4314 1.368 . S
H4299 C4307 0.950 . S
H4300 C4305 0.950 . S
H4301 C4306 0.949 . S
H4302 C4308 0.950 . S
H4303 C4309 0.950 . S
H4304 C4310 0.949 . S
C4305 H4300 0.950 . S
C4305 C4307 1.327 . S
C4305 C4311 1.429 . S
C4306 C4298 1.574 . S
C4306 H4301 0.949 . S
C4306 C4312 1.368 1_565 S
C4307 C4291 1.349 . S
C4307 H4299 0.950 . S
C4307 C4305 1.327 . S
C4308 C4296 1.349 . S
C4308 H4302 0.950 . S
C4308 C4309 1.327 . S
C4309 H4303 0.950 . S
C4309 C4308 1.327 . S
C4309 C4313 1.429 . S
C4310 C4293 1.574 . S
C4310 H4304 0.949 . S
C4310 C4314 1.368 1_545 S
C4311 C4292 1.429 . S
C4311 C4305 1.429 . S
C4311 C4312 1.523 . S
C4312 C4293 1.368 . S
C4312 C4306 1.368 1_545 S
C4312 C4311 1.523 . S
C4313 C4297 1.429 . S
C4313 C4309 1.429 . S
C4313 C4314 1.523 . S
C4314 C4298 1.368 . S
C4314 C4310 1.368 1_565 S
C4314 C4313 1.523 . S
H4315 C4290 0.950 . S
H4316 C4292 0.950 1_565 S
H4317 C4293 0.949 . S
H4318 C4295 0.950 . S
H4319 C4297 0.950 1_545 S
C4320 C4321 1.349 . S
C4320 C4322 1.327 . S
C4320 H4345 0.950 . S
C4321 C4320 1.349 . S
C4321 C4337 1.349 . S
C4322 C4320 1.327 . S
C4322 C4341 1.429 . S
C4322 H4346 0.950 . S
C4323 C4340 1.574 . S
C4323 C4342 1.368 . S
C4323 H4347 0.949 . S
H4324 C4328 0.949 . S
C4325 C4326 1.349 . S
C4325 C4327 1.327 . S
C4325 H4348 0.950 . S
C4326 C4325 1.349 . S
C4326 C4338 1.349 . S
C4327 C4325 1.327 . S
C4327 C4343 1.429 . S
C4327 H4349 0.950 . S
C4328 H4324 0.949 . S
C4328 C4336 1.574 . S
C4328 C4344 1.368 . S
H4329 C4337 0.950 . S
H4330 C4335 0.950 . S
H4331 C4336 0.949 . S
H4332 C4338 0.950 . S
H4333 C4339 0.950 . S
H4334 C4340 0.949 . S
C4335 H4330 0.950 . S
C4335 C4337 1.327 . S
C4335 C4341 1.429 . S
C4336 C4328 1.574 . S
C4336 H4331 0.949 . S
C4336 C4342 1.368 . S
C4337 C4321 1.349 . S
C4337 H4329 0.950 . S
C4337 C4335 1.327 . S
C4338 C4326 1.349 . S
C4338 H4332 0.950 . S
C4338 C4339 1.327 . S
C4339 H4333 0.950 . S
C4339 C4338 1.327 . S
C4339 C4343 1.429 . S
C4340 C4323 1.574 . S
C4340 H4334 0.949 . S
C4340 C4344 1.368 . S
C4341 C4322 1.429 . S
C4341 C4335 1.429 . S
C4341 C4342 1.523 . S
C4342 C4323 1.368 . S
C4342 C4336 1.368 . S
C4342 C4341 1.523 . S
C4343 C4327 1.429 . S
C4343 C4339 1.429 . S
C4343 C4344 1.523 . S
C4344 C4328 1.368 . S
C4344 C4340 1.368 . S
C4344 C4343 1.523 . S
H4345 C4320 0.950 . S
H4346 C4322 0.950 . S
H4347 C4323 0.949 . S
H4348 C4325 0.950 . S
H4349 C4327 0.950 . S
C4350 C4351 1.349 . S
C4350 C4352 1.327 . S
C4350 H4375 0.950 . S
C4351 C4350 1.349 . S
C4351 C4367 1.349 . S
C4352 C4350 1.327 . S
C4352 C4371 1.429 . S
C4352 H4376 0.950 . S
C4353 C4370 1.574 . S
C4353 C4372 1.368 . S
C4353 H4377 0.949 . S
H4354 C4358 0.949 . S
C4355 C4356 1.349 . S
C4355 C4357 1.327 . S
C4355 H4378 0.950 . S
C4356 C4355 1.349 . S
C4356 C4368 1.349 . S
C4357 C4355 1.327 . S
C4357 C4373 1.429 . S
C4357 H4379 0.950 . S
C4358 H4354 0.949 . S
C4358 C4366 1.574 . S
C4358 C4374 1.368 . S
H4359 C4367 0.950 . S
H4360 C4365 0.950 . S
H4361 C4366 0.949 . S
H4362 C4368 0.950 . S
H4363 C4369 0.950 . S
H4364 C4370 0.949 . S
C4365 H4360 0.950 . S
C4365 C4367 1.327 . S
C4365 C4371 1.429 . S
C4366 C4358 1.574 . S
C4366 H4361 0.949 . S
C4366 C4372 1.368 . S
C4367 C4351 1.349 . S
C4367 H4359 0.950 . S
C4367 C4365 1.327 . S
C4368 C4356 1.349 . S
C4368 H4362 0.950 . S
C4368 C4369 1.327 . S
C4369 H4363 0.950 . S
C4369 C4368 1.327 . S
C4369 C4373 1.429 . S
C4370 C4353 1.574 . S
C4370 H4364 0.949 . S
C4370 C4374 1.368 . S
C4371 C4352 1.429 . S
C4371 C4365 1.429 . S
C4371 C4372 1.523 . S
C4372 C4353 1.368 . S
C4372 C4366 1.368 . S
C4372 C4371 1.523 . S
C4373 C4357 1.429 . S
C4373 C4369 1.429 . S
C4373 C4374 1.523 . S
C4374 C4358 1.368 . S
C4374 C4370 1.368 . S
C4374 C4373 1.523 . S
H4375 C4350 0.950 . S
H4376 C4352 0.950 . S
H4377 C4353 0.949 . S
H4378 C4355 0.950 . S
H4379 C4357 0.950 . S
C4380 C4381 1.349 . S
C4380 C4382 1.327 . S
C4380 H4405 0.950 . S
C4381 C4380 1.349 . S
C4381 C4397 1.349 . S
C4382 C4380 1.327 . S
C4382 C4401 1.429 . S
C4382 H4406 0.950 . S
C4383 C4400 1.574 . S
C4383 C4402 1.368 . S
C4383 H4407 0.949 . S
H4384 C4388 0.949 . S
C4385 C4386 1.349 . S
C4385 C4387 1.327 . S
C4385 H4408 0.950 . S
C4386 C4385 1.349 . S
C4386 C4398 1.349 . S
C4387 C4385 1.327 . S
C4387 C4403 1.429 . S
C4387 H4409 0.950 . S
C4388 H4384 0.949 . S
C4388 C4396 1.574 . S
C4388 C4404 1.368 . S
H4389 C4397 0.950 . S
H4390 C4395 0.950 . S
H4391 C4396 0.949 . S
H4392 C4398 0.950 . S
H4393 C4399 0.950 . S
H4394 C4400 0.949 . S
C4395 H4390 0.950 . S
C4395 C4397 1.327 . S
C4395 C4401 1.429 . S
C4396 C4388 1.574 . S
C4396 H4391 0.949 . S
C4396 C4402 1.368 . S
C4397 C4381 1.349 . S
C4397 H4389 0.950 . S
C4397 C4395 1.327 . S
C4398 C4386 1.349 . S
C4398 H4392 0.950 . S
C4398 C4399 1.327 . S
C4399 H4393 0.950 . S
C4399 C4398 1.327 . S
C4399 C4403 1.429 . S
C4400 C4383 1.574 . S
C4400 H4394 0.949 . S
C4400 C4404 1.368 . S
C4401 C4382 1.429 . S
C4401 C4395 1.429 . S
C4401 C4402 1.523 . S
C4402 C4383 1.368 . S
C4402 C4396 1.368 . S
C4402 C4401 1.523 . S
C4403 C4387 1.429 . S
C4403 C4399 1.429 . S
C4403 C4404 1.523 . S
C4404 C4388 1.368 . S
C4404 C4400 1.368 . S
C4404 C4403 1.523 . S
H4405 C4380 0.950 . S
H4406 C4382 0.950 . S
H4407 C4383 0.949 . S
H4408 C4385 0.950 . S
H4409 C4387 0.950 . S
C4410 C4411 1.349 . S
C4410 C4412 1.327 . S
C4410 H4435 0.950 . S
C4411 C4410 1.349 . S
C4411 C4427 1.349 . S
C4412 C4410 1.327 . S
C4412 C4431 1.429 . S
C4412 H4436 0.950 . S
C4413 C4430 1.574 . S
C4413 C4432 1.368 . S
C4413 H4437 0.949 . S
H4414 C4418 0.949 . S
C4415 C4416 1.349 . S
C4415 C4417 1.327 . S
C4415 H4438 0.950 . S
C4416 C4415 1.349 . S
C4416 C4428 1.349 . S
C4417 C4415 1.327 . S
C4417 C4433 1.429 . S
C4417 H4439 0.950 . S
C4418 H4414 0.949 . S
C4418 C4426 1.574 . S
C4418 C4434 1.368 . S
H4419 C4427 0.950 . S
H4420 C4425 0.950 . S
H4421 C4426 0.949 . S
H4422 C4428 0.950 . S
H4423 C4429 0.950 . S
H4424 C4430 0.949 . S
C4425 H4420 0.950 . S
C4425 C4427 1.327 . S
C4425 C4431 1.429 . S
C4426 C4418 1.574 . S
C4426 H4421 0.949 . S
C4426 C4432 1.368 . S
C4427 C4411 1.349 . S
C4427 H4419 0.950 . S
C4427 C4425 1.327 . S
C4428 C4416 1.349 . S
C4428 H4422 0.950 . S
C4428 C4429 1.327 . S
C4429 H4423 0.950 . S
C4429 C4428 1.327 . S
C4429 C4433 1.429 . S
C4430 C4413 1.574 . S
C4430 H4424 0.949 . S
C4430 C4434 1.368 . S
C4431 C4412 1.429 . S
C4431 C4425 1.429 . S
C4431 C4432 1.523 . S
C4432 C4413 1.368 . S
C4432 C4426 1.368 . S
C4432 C4431 1.523 . S
C4433 C4417 1.429 . S
C4433 C4429 1.429 . S
C4433 C4434 1.523 . S
C4434 C4418 1.368 . S
C4434 C4430 1.368 . S
C4434 C4433 1.523 . S
H4435 C4410 0.950 . S
H4436 C4412 0.950 . S
H4437 C4413 0.949 . S
H4438 C4415 0.950 . S
H4439 C4417 0.950 . S
C4440 C4441 1.349 . S
C4440 C4442 1.327 . S
C4440 H4465 0.950 . S
C4441 C4440 1.349 . S
C4441 C4457 1.349 . S
C4442 C4440 1.327 . S
C4442 C4461 1.429 . S
C4442 H4466 0.950 . S
C4443 C4460 1.574 . S
C4443 C4462 1.368 . S
C4443 H4467 0.949 . S
H4444 C4448 0.949 . S
C4445 C4446 1.349 . S
C4445 C4447 1.327 . S
C4445 H4468 0.950 . S
C4446 C4445 1.349 . S
C4446 C4458 1.349 . S
C4447 C4445 1.327 . S
C4447 C4463 1.429 . S
C4447 H4469 0.950 . S
C4448 H4444 0.949 . S
C4448 C4456 1.574 . S
C4448 C4464 1.368 . S
H4449 C4457 0.950 . S
H4450 C4455 0.950 . S
H4451 C4456 0.949 . S
H4452 C4458 0.950 . S
H4453 C4459 0.950 . S
H4454 C4460 0.949 . S
C4455 H4450 0.950 . S
C4455 C4457 1.327 . S
C4455 C4461 1.429 . S
C4456 C4448 1.574 . S
C4456 H4451 0.949 . S
C4456 C4462 1.368 . S
C4457 C4441 1.349 . S
C4457 H4449 0.950 . S
C4457 C4455 1.327 . S
C4458 C4446 1.349 . S
C4458 H4452 0.950 . S
C4458 C4459 1.327 . S
C4459 H4453 0.950 . S
C4459 C4458 1.327 . S
C4459 C4463 1.429 . S
C4460 C4443 1.574 . S
C4460 H4454 0.949 . S
C4460 C4464 1.368 . S
C4461 C4442 1.429 . S
C4461 C4455 1.429 . S
C4461 C4462 1.523 . S
C4462 C4443 1.368 . S
C4462 C4456 1.368 . S
C4462 C4461 1.523 . S
C4463 C4447 1.429 . S
C4463 C4459 1.429 . S
C4463 C4464 1.523 . S
C4464 C4448 1.368 . S
C4464 C4460 1.368 . S
C4464 C4463 1.523 . S
H4465 C4440 0.950 . S
H4466 C4442 0.950 . S
H4467 C4443 0.949 . S
H4468 C4445 0.950 . S
H4469 C4447 0.950 . S
C4470 C4471 1.349 . S
C4470 C4472 1.327 . S
C4470 H4495 0.950 . S
C4471 C4470 1.349 . S
C4471 C4487 1.349 . S
C4472 C4470 1.327 . S
C4472 C4491 1.429 . S
C4472 H4496 0.950 . S
C4473 C4490 1.574 . S
C4473 C4492 1.368 . S
C4473 H4497 0.949 . S
H4474 C4478 0.949 . S
C4475 C4476 1.349 . S
C4475 C4477 1.327 . S
C4475 H4498 0.950 . S
C4476 C4475 1.349 . S
C4476 C4488 1.349 . S
C4477 C4475 1.327 . S
C4477 C4493 1.429 . S
C4477 H4499 0.950 . S
C4478 H4474 0.949 . S
C4478 C4486 1.574 . S
C4478 C4494 1.368 . S
H4479 C4487 0.950 . S
H4480 C4485 0.950 . S
H4481 C4486 0.949 . S
H4482 C4488 0.950 . S
H4483 C4489 0.950 . S
H4484 C4490 0.949 . S
C4485 H4480 0.950 . S
C4485 C4487 1.327 . S
C4485 C4491 1.429 . S
C4486 C4478 1.574 . S
C4486 H4481 0.949 . S
C4486 C4492 1.368 . S
C4487 C4471 1.349 . S
C4487 H4479 0.950 . S
C4487 C4485 1.327 . S
C4488 C4476 1.349 . S
C4488 H4482 0.950 . S
C4488 C4489 1.327 . S
C4489 H4483 0.950 . S
C4489 C4488 1.327 . S
C4489 C4493 1.429 . S
C4490 C4473 1.574 . S
C4490 H4484 0.949 . S
C4490 C4494 1.368 . S
C4491 C4472 1.429 . S
C4491 C4485 1.429 . S
C4491 C4492 1.523 . S
C4492 C4473 1.368 . S
C4492 C4486 1.368 . S
C4492 C4491 1.523 . S
C4493 C4477 1.429 . S
C4493 C4489 1.429 . S
C4493 C4494 1.523 . S
C4494 C4478 1.368 . S
C4494 C4490 1.368 . S
C4494 C4493 1.523 . S
H4495 C4470 0.950 . S
H4496 C4472 0.950 . S
H4497 C4473 0.949 . S
H4498 C4475 0.950 . S
H4499 C4477 0.950 . S
C4500 C4501 1.349 . S
C4500 C4502 1.327 . S
C4500 H4525 0.950 . S
C4501 C4500 1.349 . S
C4501 C4517 1.349 . S
C4502 C4500 1.327 . S
C4502 C4521 1.429 . S
C4502 H4526 0.950 . S
C4503 C4520 1.574 . S
C4503 C4522 1.368 . S
C4503 H4527 0.949 . S
H4504 C4508 0.949 . S
C4505 C4506 1.349 . S
C4505 C4507 1.327 . S
C4505 H4528 0.950 . S
C4506 C4505 1.349 . S
C4506 C4518 1.349 . S
C4507 C4505 1.327 . S
C4507 C4523 1.429 . S
C4507 H4529 0.950 . S
C4508 H4504 0.949 . S
C4508 C4516 1.574 . S
C4508 C4524 1.368 . S
H4509 C4517 0.950 . S
H4510 C4515 0.950 . S
H4511 C4516 0.949 . S
H4512 C4518 0.950 . S
H4513 C4519 0.950 . S
H4514 C4520 0.949 . S
C4515 H4510 0.950 . S
C4515 C4517 1.327 . S
C4515 C4521 1.429 . S
C4516 C4508 1.574 . S
C4516 H4511 0.949 . S
C4516 C4522 1.368 . S
C4517 C4501 1.349 . S
C4517 H4509 0.950 . S
C4517 C4515 1.327 . S
C4518 C4506 1.349 . S
C4518 H4512 0.950 . S
C4518 C4519 1.327 . S
C4519 H4513 0.950 . S
C4519 C4518 1.327 . S
C4519 C4523 1.429 . S
C4520 C4503 1.574 . S
C4520 H4514 0.949 . S
C4520 C4524 1.368 . S
C4521 C4502 1.429 . S
C4521 C4515 1.429 . S
C4521 C4522 1.523 . S
C4522 C4503 1.368 . S
C4522 C4516 1.368 . S
C4522 C4521 1.523 . S
C4523 C4507 1.429 . S
C4523 C4519 1.429 . S
C4523 C4524 1.523 . S
C4524 C4508 1.368 . S
C4524 C4520 1.368 . S
C4524 C4523 1.523 . S
H4525 C4500 0.950 . S
H4526 C4502 0.950 . S
H4527 C4503 0.949 . S
H4528 C4505 0.950 . S
H4529 C4507 0.950 . S
C4530 C4531 1.349 . S
C4530 C4532 1.327 . S
C4530 H4555 0.950 . S
C4531 C4530 1.349 . S
C4531 C4547 1.349 . S
C4532 C4530 1.327 . S
C4532 C4551 1.429 . S
C4532 H4556 0.950 . S
C4533 C4550 1.574 . S
C4533 C4552 1.368 . S
C4533 H4557 0.949 . S
H4534 C4538 0.949 . S
C4535 C4536 1.349 . S
C4535 C4537 1.327 . S
C4535 H4558 0.950 . S
C4536 C4535 1.349 . S
C4536 C4548 1.349 . S
C4537 C4535 1.327 . S
C4537 C4553 1.429 . S
C4537 H4559 0.950 . S
C4538 H4534 0.949 . S
C4538 C4546 1.574 . S
C4538 C4554 1.368 . S
H4539 C4547 0.950 . S
H4540 C4545 0.950 . S
H4541 C4546 0.949 . S
H4542 C4548 0.950 . S
H4543 C4549 0.950 . S
H4544 C4550 0.949 . S
C4545 H4540 0.950 . S
C4545 C4547 1.327 . S
C4545 C4551 1.429 . S
C4546 C4538 1.574 . S
C4546 H4541 0.949 . S
C4546 C4552 1.368 . S
C4547 C4531 1.349 . S
C4547 H4539 0.950 . S
C4547 C4545 1.327 . S
C4548 C4536 1.349 . S
C4548 H4542 0.950 . S
C4548 C4549 1.327 . S
C4549 H4543 0.950 . S
C4549 C4548 1.327 . S
C4549 C4553 1.429 . S
C4550 C4533 1.574 . S
C4550 H4544 0.949 . S
C4550 C4554 1.368 . S
C4551 C4532 1.429 . S
C4551 C4545 1.429 . S
C4551 C4552 1.523 . S
C4552 C4533 1.368 . S
C4552 C4546 1.368 . S
C4552 C4551 1.523 . S
C4553 C4537 1.429 . S
C4553 C4549 1.429 . S
C4553 C4554 1.523 . S
C4554 C4538 1.368 . S
C4554 C4550 1.368 . S
C4554 C4553 1.523 . S
H4555 C4530 0.950 . S
H4556 C4532 0.950 . S
H4557 C4533 0.949 . S
H4558 C4535 0.950 . S
H4559 C4537 0.950 . S
C4560 C4561 1.349 . S
C4560 C4562 1.327 . S
C4560 H4585 0.950 . S
C4561 C4560 1.349 . S
C4561 C4577 1.349 . S
C4562 C4560 1.327 . S
C4562 C4581 1.429 . S
C4562 H4586 0.950 . S
C4563 C4580 1.574 . S
C4563 C4582 1.368 . S
C4563 H4587 0.949 . S
H4564 C4568 0.949 . S
C4565 C4566 1.349 . S
C4565 C4567 1.327 . S
C4565 H4588 0.950 . S
C4566 C4565 1.349 . S
C4566 C4578 1.349 . S
C4567 C4565 1.327 . S
C4567 C4583 1.429 . S
C4567 H4589 0.950 . S
C4568 H4564 0.949 . S
C4568 C4576 1.574 . S
C4568 C4584 1.368 . S
H4569 C4577 0.950 . S
H4570 C4575 0.950 . S
H4571 C4576 0.949 . S
H4572 C4578 0.950 . S
H4573 C4579 0.950 . S
H4574 C4580 0.949 . S
C4575 H4570 0.950 . S
C4575 C4577 1.327 . S
C4575 C4581 1.429 . S
C4576 C4568 1.574 . S
C4576 H4571 0.949 . S
C4576 C4582 1.368 . S
C4577 C4561 1.349 . S
C4577 H4569 0.950 . S
C4577 C4575 1.327 . S
C4578 C4566 1.349 . S
C4578 H4572 0.950 . S
C4578 C4579 1.327 . S
C4579 H4573 0.950 . S
C4579 C4578 1.327 . S
C4579 C4583 1.429 . S
C4580 C4563 1.574 . S
C4580 H4574 0.949 . S
C4580 C4584 1.368 . S
C4581 C4562 1.429 . S
C4581 C4575 1.429 . S
C4581 C4582 1.523 . S
C4582 C4563 1.368 . S
C4582 C4576 1.368 . S
C4582 C4581 1.523 . S
C4583 C4567 1.429 . S
C4583 C4579 1.429 . S
C4583 C4584 1.523 . S
C4584 C4568 1.368 . S
C4584 C4580 1.368 . S
C4584 C4583 1.523 . S
H4585 C4560 0.950 . S
H4586 C4562 0.950 . S
H4587 C4563 0.949 . S
H4588 C4565 0.950 . S
H4589 C4567 0.950 . S
C4590 C4591 1.349 . S
C4590 C4592 1.327 . S
C4590 H4615 0.950 . S
C4591 C4590 1.349 . S
C4591 C4607 1.349 . S
C4592 C4590 1.327 . S
C4592 C4611 1.429 . S
C4592 H4616 0.950 . S
C4593 C4610 1.574 . S
C4593 C4612 1.368 . S
C4593 H4617 0.949 . S
H4594 C4598 0.949 . S
C4595 C4596 1.349 . S
C4595 C4597 1.327 . S
C4595 H4618 0.950 . S
C4596 C4595 1.349 . S
C4596 C4608 1.349 . S
C4597 C4595 1.327 . S
C4597 C4613 1.429 . S
C4597 H4619 0.950 . S
C4598 H4594 0.949 . S
C4598 C4606 1.574 . S
C4598 C4614 1.368 . S
H4599 C4607 0.950 . S
H4600 C4605 0.950 . S
H4601 C4606 0.949 . S
H4602 C4608 0.950 . S
H4603 C4609 0.950 . S
H4604 C4610 0.949 . S
C4605 H4600 0.950 . S
C4605 C4607 1.327 . S
C4605 C4611 1.429 . S
C4606 C4598 1.574 . S
C4606 H4601 0.949 . S
C4606 C4612 1.368 . S
C4607 C4591 1.349 . S
C4607 H4599 0.950 . S
C4607 C4605 1.327 . S
C4608 C4596 1.349 . S
C4608 H4602 0.950 . S
C4608 C4609 1.327 . S
C4609 H4603 0.950 . S
C4609 C4608 1.327 . S
C4609 C4613 1.429 . S
C4610 C4593 1.574 . S
C4610 H4604 0.949 . S
C4610 C4614 1.368 . S
C4611 C4592 1.429 . S
C4611 C4605 1.429 . S
C4611 C4612 1.523 . S
C4612 C4593 1.368 . S
C4612 C4606 1.368 . S
C4612 C4611 1.523 . S
C4613 C4597 1.429 . S
C4613 C4609 1.429 . S
C4613 C4614 1.523 . S
C4614 C4598 1.368 . S
C4614 C4610 1.368 . S
C4614 C4613 1.523 . S
H4615 C4590 0.950 . S
H4616 C4592 0.950 . S
H4617 C4593 0.949 . S
H4618 C4595 0.950 . S
H4619 C4597 0.950 . S
C4620 C4621 1.349 . S
C4620 C4622 1.327 . S
C4620 H4645 0.950 . S
C4621 C4620 1.349 . S
C4621 C4637 1.349 . S
C4622 C4620 1.327 . S
C4622 C4641 1.429 . S
C4622 H4646 0.950 . S
C4623 C4640 1.574 . S
C4623 C4642 1.368 . S
C4623 H4647 0.949 . S
H4624 C4628 0.949 . S
C4625 C4626 1.349 . S
C4625 C4627 1.327 . S
C4625 H4648 0.950 . S
C4626 C4625 1.349 . S
C4626 C4638 1.349 . S
C4627 C4625 1.327 . S
C4627 C4643 1.429 . S
C4627 H4649 0.950 . S
C4628 H4624 0.949 . S
C4628 C4636 1.574 . S
C4628 C4644 1.368 . S
H4629 C4637 0.950 . S
H4630 C4635 0.950 . S
H4631 C4636 0.949 . S
H4632 C4638 0.950 . S
H4633 C4639 0.950 . S
H4634 C4640 0.949 . S
C4635 H4630 0.950 . S
C4635 C4637 1.327 . S
C4635 C4641 1.429 . S
C4636 C4628 1.574 . S
C4636 H4631 0.949 . S
C4636 C4642 1.368 . S
C4637 C4621 1.349 . S
C4637 H4629 0.950 . S
C4637 C4635 1.327 . S
C4638 C4626 1.349 . S
C4638 H4632 0.950 . S
C4638 C4639 1.327 . S
C4639 H4633 0.950 . S
C4639 C4638 1.327 . S
C4639 C4643 1.429 . S
C4640 C4623 1.574 . S
C4640 H4634 0.949 . S
C4640 C4644 1.368 . S
C4641 C4622 1.429 . S
C4641 C4635 1.429 . S
C4641 C4642 1.523 . S
C4642 C4623 1.368 . S
C4642 C4636 1.368 . S
C4642 C4641 1.523 . S
C4643 C4627 1.429 . S
C4643 C4639 1.429 . S
C4643 C4644 1.523 . S
C4644 C4628 1.368 . S
C4644 C4640 1.368 . S
C4644 C4643 1.523 . S
H4645 C4620 0.950 . S
H4646 C4622 0.950 . S
H4647 C4623 0.949 . S
H4648 C4625 0.950 . S
H4649 C4627 0.950 . S
C4650 C4651 1.349 . S
C4650 C4652 1.327 . S
C4650 H4675 0.950 . S
C4651 C4650 1.349 . S
C4651 C4667 1.349 . S
C4652 C4650 1.327 . S
C4652 C4671 1.429 . S
C4652 H4676 0.950 . S
C4653 C4670 1.574 . S
C4653 C4672 1.368 . S
C4653 H4677 0.949 . S
H4654 C4658 0.949 . S
C4655 C4656 1.349 . S
C4655 C4657 1.327 . S
C4655 H4678 0.950 . S
C4656 C4655 1.349 . S
C4656 C4668 1.349 . S
C4657 C4655 1.327 . S
C4657 C4673 1.429 . S
C4657 H4679 0.950 . S
C4658 H4654 0.949 . S
C4658 C4666 1.574 . S
C4658 C4674 1.368 . S
H4659 C4667 0.950 . S
H4660 C4665 0.950 . S
H4661 C4666 0.949 . S
H4662 C4668 0.950 . S
H4663 C4669 0.950 . S
H4664 C4670 0.949 . S
C4665 H4660 0.950 . S
C4665 C4667 1.327 . S
C4665 C4671 1.429 . S
C4666 C4658 1.574 . S
C4666 H4661 0.949 . S
C4666 C4672 1.368 . S
C4667 C4651 1.349 . S
C4667 H4659 0.950 . S
C4667 C4665 1.327 . S
C4668 C4656 1.349 . S
C4668 H4662 0.950 . S
C4668 C4669 1.327 . S
C4669 H4663 0.950 . S
C4669 C4668 1.327 . S
C4669 C4673 1.429 . S
C4670 C4653 1.574 . S
C4670 H4664 0.949 . S
C4670 C4674 1.368 . S
C4671 C4652 1.429 . S
C4671 C4665 1.429 . S
C4671 C4672 1.523 . S
C4672 C4653 1.368 . S
C4672 C4666 1.368 . S
C4672 C4671 1.523 . S
C4673 C4657 1.429 . S
C4673 C4669 1.429 . S
C4673 C4674 1.523 . S
C4674 C4658 1.368 . S
C4674 C4670 1.368 . S
C4674 C4673 1.523 . S
H4675 C4650 0.950 . S
H4676 C4652 0.950 . S
H4677 C4653 0.949 . S
H4678 C4655 0.950 . S
H4679 C4657 0.950 . S
C1441 C9 1.680 . S
C1446 C99 1.750 . S
C1471 C19 1.750 . S
C1476 C49 1.680 . S
C1501 C89 1.680 . S
C1506 C59 1.750 . S
C1531 C129 1.766 . S
C1536 C179 1.836 . S
C1561 C219 1.836 . S
C1566 C169 1.766 . S
C1591 C209 1.766 . S
C1596 C139 1.836 . S
C1621 C258 1.680 . S
C1626 C330 1.750 . S
C1651 C298 1.680 . S
C1656 C250 1.750 . S
C1681 C338 1.680 . S
C1686 C290 1.750 . S
C1711 C378 1.766 . S
C1716 C410 1.836 . S
C1741 C450 1.836 . S
C1746 C418 1.766 . S
C1771 C370 1.836 . S
C1776 C458 1.766 . S
C1801 C579 1.825 . S
C1806 C489 1.754 . S
C1831 C529 1.754 . S
C1836 C499 1.825 . S
C1861 C539 1.825 . S
C1866 C569 1.754 . S
C1891 C609 1.789 . S
C1896 C659 1.860 . S
C1921 C699 1.859 . S
C1926 C649 1.789 . S
C1951 C619 1.860 . S
C1956 C689 1.790 . S
C1981 C738 1.720 . S
C1986 C810 1.791 . S
C2011 C778 1.720 . S
C2016 C730 1.791 . S
C2041 C770 1.791 . S
C2046 C818 1.720 . S
C2071 C890 1.669 . S
C2076 C858 1.593 1_554 S
C2101 C898 1.593 1_554 S
C2106 C930 1.670 . S
C2131 C850 1.670 . S
C2136 C938 1.594 1_554 S
C2161 C969 1.720 . S
C2166 C1059 1.791 . S
C2191 C1009 1.720 . S
C2196 C979 1.791 . S
C2221 C1049 1.720 . S
C2226 C1019 1.791 . S
C2251 C1089 1.593 1_556 S
C2256 C1139 1.669 . S
C2281 C1129 1.593 1_556 S
C2286 C1179 1.670 . S
C2311 C1169 1.594 1_556 S
C2316 C1099 1.670 . S
C2341 C1218 1.754 . S
C2346 C1290 1.825 . S
C2371 C1258 1.754 . S
C2376 C1210 1.825 . S
C2401 C1250 1.825 . S
C2406 C1298 1.754 . S
C2431 C1338 1.789 . S
C2436 C1370 1.860 . S
C2461 C1378 1.789 . S
C2466 C1410 1.859 . S
C2491 C1330 1.860 . S
C2496 C1418 1.790 . S
C2521 C10 1.725 . S
C2526 C809 1.725 . S
C2551 C729 1.725 . S
C2556 C50 1.725 . S
C2581 C90 1.725 . S
C2586 C769 1.725 . S
C2611 C130 1.604 . S
C2616 C1369 1.598 . S
C2641 C1409 1.598 . S
C2646 C170 1.604 . S
C2671 C210 1.604 . S
C2676 C1329 1.598 . S
C2701 C1058 1.725 . S
C2706 C259 1.725 . S
C2731 C299 1.725 . S
C2736 C978 1.725 . S
C2761 C339 1.725 . S
C2766 C1018 1.725 . S
C2791 C658 1.598 . S
C2796 C379 1.604 . S
C2821 C698 1.598 . S
C2826 C419 1.604 . S
C2851 C618 1.598 . S
C2856 C459 1.604 . S
C2881 C490 1.664 . S
C2886 C1289 1.661 . S
C2911 C530 1.664 . S
C2916 C1209 1.661 . S
C2941 C1249 1.661 . S
C2946 C570 1.664 . S
C2971 C409 1.645 . S
C2976 C610 1.649 . S
C3001 C449 1.644 . S
C3006 C650 1.649 . S
C3031 C369 1.644 . S
C3036 C690 1.649 . S
C3061 C98 1.720 . S
C3066 C739 1.718 . S
C3091 C779 1.717 . S
C3096 C18 1.719 . S
C3121 C819 1.718 . S
C3126 C58 1.719 . S
C3151 C1138 1.659 1_554 S
C3156 C859 1.675 . S
C3181 C1178 1.658 1_554 S
C3186 C899 1.675 . S
C3211 C939 1.677 . S
C3216 C1098 1.658 1_554 S
C3241 C329 1.720 . S
C3246 C970 1.718 . S
C3271 C249 1.719 . S
C3276 C1010 1.717 . S
C3301 C289 1.719 . S
C3306 C1050 1.718 . S
C3331 C1090 1.677 . S
C3336 C889 1.659 1_556 S
C3361 C929 1.658 1_556 S
C3366 C1130 1.675 . S
C3391 C1170 1.677 . S
C3396 C849 1.658 1_556 S
C3421 C1219 1.664 . S
C3426 C578 1.661 . S
C3451 C1259 1.664 . S
C3456 C498 1.661 . S
C3481 C1299 1.664 . S
C3486 C538 1.661 . S
C3511 C1339 1.649 . S
C3516 C178 1.645 . S
C3541 C218 1.644 . S
C3546 C1379 1.649 . S
C3571 C138 1.644 . S
C3576 C1419 1.649 . S
C3601 C1166 2.368 . S
C3606 C6 2.353 . S
C3631 C1086 2.368 . S
C3636 C46 2.353 . S
C3661 C86 2.370 . S
C3666 C1126 2.351 . S
C3691 C526 2.674 . S
C3696 C126 2.673 . S
C3721 C166 2.673 . S
C3726 C566 2.674 . S
C3751 C206 2.673 . S
C3756 C486 2.674 . S
C3781 C255 2.371 . S
C3786 C935 2.351 . S
C3811 C295 2.370 . S
C3816 C855 2.350 . S
C3841 C335 2.370 . S
C3846 C895 2.351 . S
C3871 C1255 2.674 . S
C3876 C375 2.673 . S
C3901 C1295 2.674 . S
C3906 C415 2.673 . S
C3931 C1215 2.674 . S
C3936 C455 2.673 . S
C3961 C606 2.747 . S
C3966 C1006 2.749 . S
C3991 C646 2.747 . S
C3996 C1046 2.749 . S
C4021 C686 2.747 . S
C4026 C966 2.749 . S
C4051 C735 2.749 . S
C4056 C1415 2.747 . S
C4081 C1335 2.747 . S
C4086 C775 2.749 . S
C4111 C815 2.749 . S
C4116 C1375 2.747 . S
C4141 C175 1.073 . S
C4146 C15 1.073 . S
C4171 C215 1.072 . S
C4176 C55 1.073 . S
C4201 C135 1.073 . S
C4206 C95 1.073 . S
C4231 C246 1.073 . S
C4236 C406 1.073 . S
C4261 C446 1.072 . S
C4266 C286 1.073 . S
C4291 C326 1.073 . S
C4296 C366 1.073 . S
C4321 C655 1.180 . S
C4326 C495 1.181 . S
C4351 C695 1.180 . S
C4356 C535 1.181 . S
C4381 C615 1.180 . S
C4386 C575 1.181 . S
C4411 C886 1.493 . S
C4416 C726 1.518 . S
C4441 C766 1.502 . S
C4446 C926 1.509 . S
C4471 C806 1.502 . S
C4476 C846 1.509 . S
C4501 C975 1.502 . S
C4506 C1135 1.510 . S
C4531 C1175 1.493 . S
C4536 C1015 1.518 . S
C4561 C1055 1.502 . S
C4566 C1095 1.509 . S
C4591 C1206 1.181 . S
C4596 C1366 1.180 . S
C4621 C1406 1.180 . S
C4626 C1246 1.181 . S
C4651 C1286 1.181 . S
C4656 C1326 1.181 . S
