# Generated by pormake.
# Topology zfu, (5)-cn, num edge types: 1
# Building blocks:
#     Node 0, Type 0, BuildingBlock: BEQFEK_clean_sbu_0, # of connection points: 5
#     Node 1, Type 0, BuildingBlock: BEQFEK_clean_sbu_0, # of connection points: 5
#     Node 2, Type 0, BuildingBlock: BEQFEK_clean_sbu_0, # of connection points: 5
#     Node 3, Type 0, BuildingBlock: BEQFEK_clean_sbu_0, # of connection points: 5
#     Node 4, Type 0, BuildingBlock: BEQFEK_clean_sbu_0, # of connection points: 5
#     Node 5, Type 0, BuildingBlock: BEQFEK_clean_sbu_0, # of connection points: 5
#     Node 6, Type 0, BuildingBlock: BEQFEK_clean_sbu_0, # of connection points: 5
#     Node 7, Type 0, BuildingBlock: BEQFEK_clean_sbu_0, # of connection points: 5
#     Edge 8, Type (0, 0), BuildingBlock: OJICUG_clean_linker_0, # of connection points: 2
#     Edge 9, Type (0, 0), BuildingBlock: OJICUG_clean_linker_0, # of connection points: 2
#     Edge 10, Type (0, 0), BuildingBlock: OJICUG_clean_linker_0, # of connection points: 2
#     Edge 11, Type (0, 0), BuildingBlock: OJICUG_clean_linker_0, # of connection points: 2
#     Edge 12, Type (0, 0), BuildingBlock: OJICUG_clean_linker_0, # of connection points: 2
#     Edge 13, Type (0, 0), BuildingBlock: OJICUG_clean_linker_0, # of connection points: 2
#     Edge 14, Type (0, 0), BuildingBlock: OJICUG_clean_linker_0, # of connection points: 2
#     Edge 15, Type (0, 0), BuildingBlock: OJICUG_clean_linker_0, # of connection points: 2
#     Edge 16, Type (0, 0), BuildingBlock: OJICUG_clean_linker_0, # of connection points: 2
#     Edge 17, Type (0, 0), BuildingBlock: OJICUG_clean_linker_0, # of connection points: 2
#     Edge 18, Type (0, 0), BuildingBlock: OJICUG_clean_linker_0, # of connection points: 2
#     Edge 19, Type (0, 0), BuildingBlock: OJICUG_clean_linker_0, # of connection points: 2
#     Edge 20, Type (0, 0), BuildingBlock: OJICUG_clean_linker_0, # of connection points: 2
#     Edge 21, Type (0, 0), BuildingBlock: OJICUG_clean_linker_0, # of connection points: 2
#     Edge 22, Type (0, 0), BuildingBlock: OJICUG_clean_linker_0, # of connection points: 2
#     Edge 23, Type (0, 0), BuildingBlock: OJICUG_clean_linker_0, # of connection points: 2
#     Edge 24, Type (0, 0), BuildingBlock: OJICUG_clean_linker_0, # of connection points: 2
#     Edge 25, Type (0, 0), BuildingBlock: OJICUG_clean_linker_0, # of connection points: 2
#     Edge 26, Type (0, 0), BuildingBlock: OJICUG_clean_linker_0, # of connection points: 2
#     Edge 27, Type (0, 0), BuildingBlock: OJICUG_clean_linker_0, # of connection points: 2
# Relax obj value: 0.069
# Max RMSD: 0.103
# Mean RMSD: 0.103
data_MOF--net-zfu--node1-BEQFEK_clean_sbu_0--edge1-OJICUG_clean_linker_0
_symmetry_space_group_name_H-M    P1
_symmetry_Int_Tables_number       1
_symmetry_cell_setting            triclinic
loop_
_symmetry_equiv_pos_as_xyz
'x, y, z'
_cell_length_a     31.937251
_cell_length_b     31.912446
_cell_length_c     19.971655
_cell_angle_alpha  89.941313
_cell_angle_beta   89.828641
_cell_angle_gamma 90.026692
loop_
_atom_site_label
_atom_site_type_symbol
_atom_site_fract_x
_atom_site_fract_y
_atom_site_fract_z
_atom_type_partial_charge
Co0 Co 0.44943 0.69254 0.06975 0.0
Co1 Co 0.39584 0.77468 0.07746 0.0
C2 C 0.48629 0.77396 0.11637 0.0
O3 O 0.48744 0.73518 0.10309 0.0
O4 O 0.4528 0.79496 0.1077 0.0
C5 C 0.52171 0.64846 0.03464 0.0
O6 O 0.5335 0.68686 0.02013 0.0
C7 C 0.36872 0.85477 0.02082 0.0
C8 C 0.30532 0.86146 0.06379 0.0
C9 C 0.33318 0.87963 0.01894 0.0
N10 N 0.36196 0.82315 0.06419 0.0
N11 N 0.32432 0.82784 0.09076 0.0
C12 C 0.40641 0.85806 0.97652 0.0
H13 H 0.42537 0.82896 0.97899 0.0
H14 H 0.39673 0.86423 0.92409 0.0
H15 H 0.4259 0.88484 0.99323 0.0
C16 C 0.41357 0.68821 0.93585 0.0
N17 N 0.42129 0.70969 0.99231 0.0
N18 N 0.39639 0.74246 0.99571 0.0
C19 C 0.37091 0.742 0.94165 0.0
C20 C 0.38099 0.70755 0.902 0.0
C21 C 0.43528 0.64826 0.91743 0.0
H22 H 0.4253 0.62304 0.95229 0.0
H23 H 0.46956 0.65242 0.92257 0.0
H24 H 0.42844 0.63879 0.86518 0.0
O25 O 0.40833 0.68091 0.1408 0.0
O26 O 0.37064 0.73926 0.15066 0.0
H27 H 0.31766 0.77375 0.98319 0.0
H28 H 0.31019 0.75568 0.89859 0.0
C29 C 0.33313 0.76934 0.93399 0.0
H30 H 0.34296 0.80038 0.91458 0.0
H31 H 0.31081 0.80689 0.12467 0.0
O32 O 0.48438 0.64201 0.05437 0.0
C33 C 0.37927 0.70188 0.16908 0.0
Co34 Co 0.8132 0.94981 0.32286 0.0
Co35 Co 0.73178 0.89571 0.32758 0.0
C36 C 0.73068 0.98841 0.35564 0.0
O37 O 0.7696 0.99035 0.34341 0.0
O38 O 0.71109 0.95365 0.35223 0.0
C39 C 0.86522 0.01593 0.27804 0.0
O40 O 0.83233 0.0252 0.2416 0.0
C41 C 0.65186 0.86754 0.27081 0.0
C42 C 0.64447 0.80546 0.31825 0.0
C43 C 0.62648 0.83228 0.27186 0.0
N44 N 0.68351 0.86159 0.31415 0.0
N45 N 0.67844 0.82475 0.34325 0.0
C46 C 0.6487 0.90429 0.22461 0.0
H47 H 0.67848 0.92224 0.2239 0.0
H48 H 0.64078 0.89366 0.17326 0.0
H49 H 0.62316 0.92515 0.2422 0.0
C50 C 0.82367 0.90805 0.19236 0.0
N51 N 0.80052 0.91763 0.24665 0.0
N52 N 0.76689 0.89375 0.24841 0.0
C53 C 0.76807 0.86759 0.19511 0.0
C54 C 0.80409 0.87581 0.15784 0.0
C55 C 0.86458 0.92862 0.17568 0.0
H56 H 0.85942 0.96263 0.16878 0.0
H57 H 0.87864 0.91636 0.12888 0.0
H58 H 0.88671 0.92434 0.21786 0.0
O59 O 0.82068 0.91242 0.39998 0.0
O60 O 0.76406 0.87208 0.40509 0.0
H61 H 0.75179 0.8081 0.1498 0.0
H62 H 0.70873 0.84323 0.16514 0.0
C63 C 0.73881 0.83146 0.18532 0.0
H64 H 0.73264 0.81586 0.23394 0.0
H65 H 0.69917 0.81202 0.37808 0.0
O66 O 0.86491 0.98325 0.3143 0.0
C67 C 0.79977 0.88309 0.42755 0.0
Co68 Co 0.56355 0.31894 0.60216 0.0
Co69 Co 0.61082 0.23412 0.57731 0.0
C70 C 0.5212 0.23415 0.6151 0.0
O71 O 0.52244 0.27393 0.61412 0.0
O72 O 0.55372 0.21249 0.60191 0.0
C73 C 0.50587 0.37825 0.55306 0.0
O74 O 0.50687 0.3531 0.50104 0.0
C75 C 0.63795 0.15387 0.51458 0.0
C76 C 0.7065 0.15999 0.52517 0.0
C77 C 0.67566 0.13475 0.49782 0.0
N78 N 0.6464 0.1891 0.54932 0.0
N79 N 0.68741 0.19205 0.55632 0.0
C80 C 0.59511 0.14159 0.49174 0.0
H81 H 0.57399 0.16918 0.49138 0.0
H82 H 0.59646 0.12743 0.44103 0.0
H83 H 0.58215 0.11794 0.5269 0.0
C84 C 0.60799 0.34168 0.47836 0.0
N85 N 0.5952 0.31317 0.52357 0.0
N86 N 0.60995 0.27612 0.50764 0.0
C87 C 0.62983 0.27923 0.44802 0.0
C88 C 0.63001 0.32126 0.42744 0.0
C89 C 0.60479 0.38791 0.49054 0.0
H90 H 0.60137 0.39428 0.54489 0.0
H91 H 0.5768 0.4005 0.46467 0.0
H92 H 0.63301 0.40443 0.47154 0.0
O93 O 0.60064 0.31748 0.67837 0.0
O94 O 0.63718 0.25889 0.66126 0.0
H95 H 0.67819 0.23492 0.42582 0.0
H96 H 0.64514 0.24788 0.35523 0.0
C97 C 0.6457 0.24209 0.40998 0.0
H98 H 0.6257 0.21456 0.42047 0.0
H99 H 0.70245 0.21697 0.58 0.0
O100 O 0.52957 0.37086 0.60266 0.0
C101 C 0.62895 0.29168 0.69562 0.0
Co102 Co 0.19362 0.05846 0.82921 0.0
Co103 Co 0.27633 0.11121 0.8297 0.0
C104 C 0.27591 0.01909 0.86161 0.0
O105 O 0.23687 0.01785 0.85037 0.0
O106 O 0.29631 0.05327 0.8556 0.0
C107 C 0.13844 0.99498 0.78242 0.0
O108 O 0.16861 0.98811 0.73897 0.0
C109 C 0.35626 0.1386 0.77039 0.0
C110 C 0.36113 0.203 0.80996 0.0
C111 C 0.38002 0.17495 0.76633 0.0
N112 N 0.32443 0.14529 0.81346 0.0
N113 N 0.32811 0.18353 0.838 0.0
C114 C 0.3607 0.1 0.7286 0.0
H115 H 0.33111 0.08173 0.72879 0.0
H116 H 0.36956 0.10839 0.67649 0.0
H117 H 0.386 0.08021 0.7497 0.0
C118 C 0.18347 0.09855 0.69692 0.0
N119 N 0.20625 0.08968 0.75177 0.0
N120 N 0.24055 0.11268 0.7517 0.0
C121 C 0.24014 0.13742 0.69658 0.0
C122 C 0.20432 0.12876 0.65993 0.0
C123 C 0.14005 0.08269 0.68456 0.0
H124 H 0.12271 0.07997 0.73251 0.0
H125 H 0.14189 0.05127 0.66109 0.0
H126 H 0.12256 0.10372 0.65031 0.0
O127 O 0.18777 0.09626 0.90566 0.0
O128 O 0.2452 0.13559 0.90815 0.0
H129 H 0.27722 0.19009 0.72653 0.0
H130 H 0.26126 0.19144 0.63985 0.0
C131 C 0.27166 0.17082 0.68131 0.0
H132 H 0.30151 0.15596 0.6661 0.0
H133 H 0.30683 0.19707 0.8713 0.0
O134 O 0.14162 0.02511 0.82352 0.0
C135 C 0.20965 0.1251 0.93225 0.0
Co136 Co 0.94751 0.81407 0.75622 0.0
Co137 Co 0.89431 0.7318 0.7492 0.0
C138 C 0.98603 0.7326 0.71451 0.0
O139 O 0.98747 0.77132 0.7286 0.0
O140 O 0.95191 0.7121 0.72038 0.0
C141 C 0.0119 0.86794 0.80576 0.0
O142 O 0.01948 0.8368 0.847 0.0
C143 C 0.86553 0.65014 0.80158 0.0
C144 C 0.80291 0.64558 0.75566 0.0
C145 C 0.82952 0.62561 0.80025 0.0
N146 N 0.8599 0.68324 0.76063 0.0
N147 N 0.82273 0.6798 0.73238 0.0
C148 C 0.90292 0.64478 0.84567 0.0
H149 H 0.92096 0.67446 0.84879 0.0
H150 H 0.89314 0.63455 0.89651 0.0
H151 H 0.92349 0.62019 0.82419 0.0
C152 C 0.90869 0.81975 0.89031 0.0
N153 N 0.91718 0.79862 0.83351 0.0
N154 N 0.89367 0.7647 0.83075 0.0
C155 C 0.86888 0.76378 0.88589 0.0
C156 C 0.87815 0.79823 0.92569 0.0
C157 C 0.92488 0.86271 0.90578 0.0
H158 H 0.92724 0.88148 0.85921 0.0
H159 H 0.95649 0.86 0.92816 0.0
H160 H 0.90428 0.87928 0.94192 0.0
O161 O 0.9083 0.8239 0.6828 0.0
O162 O 0.86951 0.76638 0.67475 0.0
H163 H 0.81632 0.72808 0.85143 0.0
H164 H 0.8133 0.7428 0.93871 0.0
C165 C 0.83461 0.73265 0.89791 0.0
H166 H 0.84857 0.70227 0.91263 0.0
H167 H 0.81016 0.7018 0.69939 0.0
O168 O 0.98128 0.86559 0.76557 0.0
C169 C 0.87912 0.8032 0.65489 0.0
Co170 Co 0.68793 0.44491 0.99958 0.0
Co171 Co 0.77416 0.39903 0.01372 0.0
C172 C 0.77128 0.48345 0.95516 0.0
O173 O 0.73183 0.48164 0.9628 0.0
O174 O 0.79457 0.45331 0.97419 0.0
C175 C 0.64507 0.51672 0.03299 0.0
O176 O 0.68291 0.52496 0.05503 0.0
C177 C 0.8585 0.37015 0.06111 0.0
C178 C 0.84769 0.30184 0.05791 0.0
C179 C 0.87719 0.33172 0.07548 0.0
N180 N 0.81965 0.36288 0.03723 0.0
N181 N 0.81373 0.32197 0.03515 0.0
C182 C 0.87718 0.41286 0.06894 0.0
H183 H 0.86193 0.43549 0.03481 0.0
H184 H 0.87235 0.42376 0.12112 0.0
H185 H 0.91133 0.41202 0.05853 0.0
C186 C 0.67747 0.41453 0.13568 0.0
N187 N 0.70201 0.42252 0.08255 0.0
N188 N 0.73945 0.40679 0.09217 0.0
C189 C 0.74085 0.39072 0.15481 0.0
C190 C 0.70121 0.39443 0.18466 0.0
C191 C 0.63079 0.41925 0.13303 0.0
H192 H 0.61984 0.41802 0.08043 0.0
H193 H 0.62183 0.45009 0.15431 0.0
H194 H 0.61482 0.39398 0.16147 0.0
O195 O 0.67876 0.39891 0.93896 0.0
O196 O 0.74093 0.36732 0.94252 0.0
H197 H 0.78333 0.33994 0.17094 0.0
H198 H 0.77869 0.37565 0.24099 0.0
C199 C 0.77975 0.37328 0.1856 0.0
H200 H 0.80734 0.39094 0.16738 0.0
H201 H 0.78602 0.30777 0.01941 0.0
O202 O 0.63783 0.48109 1.00717 0.0
C203 C 0.70353 0.37004 0.92004 0.0
Co204 Co 0.06048 0.19259 0.2581 0.0
Co205 Co 0.11489 0.2742 0.25648 0.0
C206 C 0.02568 0.2744 0.21109 0.0
O207 O 0.0234 0.23549 0.22335 0.0
O208 O 0.05882 0.29518 0.22362 0.0
C209 C 0.99132 0.14292 0.29738 0.0
O210 O 0.98066 0.17707 0.32986 0.0
C211 C 0.14205 0.35388 0.3156 0.0
C212 C 0.20633 0.35962 0.27569 0.0
C213 C 0.17797 0.37819 0.31917 0.0
N214 N 0.14912 0.32216 0.27262 0.0
N215 N 0.18732 0.32629 0.24793 0.0
C216 C 0.10347 0.35786 0.35771 0.0
H217 H 0.08448 0.32876 0.35529 0.0
H218 H 0.11205 0.36474 0.4104 0.0
H219 H 0.08442 0.38441 0.33887 0.0
C220 C 0.09452 0.18525 0.39384 0.0
N221 N 0.08736 0.20782 0.33808 0.0
N222 N 0.11223 0.24074 0.33709 0.0
C223 C 0.13674 0.23955 0.39224 0.0
C224 C 0.12629 0.20435 0.42998 0.0
C225 C 0.07322 0.14454 0.40942 0.0
H226 H 0.03898 0.14961 0.41137 0.0
H227 H 0.08293 0.13147 0.45839 0.0
H228 H 0.07995 0.12161 0.36906 0.0
O229 O 0.10286 0.18207 0.18976 0.0
O230 O 0.14153 0.23984 0.18303 0.0
H231 H 0.19613 0.25349 0.43974 0.0
H232 H 0.16365 0.29803 0.42134 0.0
C233 C 0.17415 0.26706 0.40272 0.0
H234 H 0.191 0.27157 0.3547 0.0
H235 H 0.20111 0.30521 0.2146 0.0
O236 O 0.02571 0.14169 0.26549 0.0
C237 C 0.1327 0.20279 0.16337 0.0
Co238 Co 0.31602 0.55972 0.5067 0.0
Co239 Co 0.23281 0.61198 0.50158 0.0
C240 C 0.2343 0.51937 0.4731 0.0
O241 O 0.27323 0.51837 0.48552 0.0
O242 O 0.21375 0.55355 0.47729 0.0
C243 C 0.37165 0.49812 0.55984 0.0
O244 O 0.34044 0.49079 0.60123 0.0
C245 C 0.15128 0.63892 0.55641 0.0
C246 C 0.14645 0.70299 0.51544 0.0
C247 C 0.12691 0.67493 0.55842 0.0
N248 N 0.18397 0.64576 0.51498 0.0
N249 N 0.18032 0.68381 0.48956 0.0
C250 C 0.1464 0.60056 0.5988 0.0
H251 H 0.17605 0.58245 0.60008 0.0
H252 H 0.13676 0.60927 0.6504 0.0
H253 H 0.12145 0.58053 0.57723 0.0
C254 C 0.32412 0.60189 0.63738 0.0
N255 N 0.30202 0.5921 0.58223 0.0
N256 N 0.26745 0.61464 0.58069 0.0
C257 C 0.26689 0.63985 0.6352 0.0
C258 C 0.30246 0.63208 0.67303 0.0
C259 C 0.36773 0.58703 0.65113 0.0
H260 H 0.38554 0.58422 0.60366 0.0
H261 H 0.36631 0.55586 0.67561 0.0
H262 H 0.38457 0.6088 0.68498 0.0
O263 O 0.32285 0.59648 0.42885 0.0
O264 O 0.26524 0.63544 0.42333 0.0
H265 H 0.22943 0.69184 0.60358 0.0
H266 H 0.24366 0.69325 0.69108 0.0
C267 C 0.23448 0.67257 0.64902 0.0
H268 H 0.20461 0.65707 0.66257 0.0
H269 H 0.20212 0.69745 0.45718 0.0
O270 O 0.3685 0.52739 0.51702 0.0
C271 C 0.30117 0.6249 0.40066 0.0
C272 C 0.57006 0.54002 0.02918 0.0
C273 C 0.61288 0.54978 0.03353 0.0
H274 H 0.50719 0.56385 0.02689 0.0
C275 C 0.62522 0.59192 0.03729 0.0
H276 H 0.55977 0.50772 0.02625 0.0
C277 C 0.59545 0.62378 0.03635 0.0
C278 C 0.55262 0.6142 0.03288 0.0
H279 H 0.65801 0.60041 0.04017 0.0
H280 H 0.60607 0.65597 0.03944 0.0
C281 C 0.54007 0.57203 0.02961 0.0
C282 C 0.94793 0.09461 0.22944 0.0
C283 C 0.96177 0.10798 0.29252 0.0
H284 H 0.90526 0.05516 0.17553 0.0
C285 C 0.94537 0.08944 0.35055 0.0
H286 H 0.96012 0.1089 0.18416 0.0
C287 C 0.91527 0.05782 0.34554 0.0
C288 C 0.90014 0.04564 0.28253 0.0
H289 H 0.95571 0.09954 0.39958 0.0
H290 H 0.90256 0.04413 0.39092 0.0
C291 C 0.91667 0.06414 0.2245 0.0
C292 C 0.45512 0.42228 0.61708 0.0
C293 C 0.47466 0.41214 0.55611 0.0
H294 H 0.40634 0.45712 0.66578 0.0
C295 C 0.46186 0.43241 0.49725 0.0
H296 H 0.46428 0.40682 0.66307 0.0
C297 C 0.42952 0.46185 0.4991 0.0
C298 C 0.40862 0.47053 0.55951 0.0
H299 H 0.47652 0.4251 0.44969 0.0
H300 H 0.41974 0.47654 0.45278 0.0
C301 C 0.4219 0.4508 0.61859 0.0
C302 C 0.05377 0.91777 0.73687 0.0
C303 C 0.04158 0.903 0.8003 0.0
H304 H 0.09507 0.95813 0.68151 0.0
C305 C 0.05983 0.92024 0.85778 0.0
H306 H 0.04029 0.9046 0.69183 0.0
C307 C 0.09005 0.95174 0.85187 0.0
C308 C 0.10349 0.96524 0.78836 0.0
H309 H 0.05086 0.90923 0.90711 0.0
H310 H 0.10414 0.96433 0.89686 0.0
C311 C 0.08508 0.94814 0.73091 0.0
C312 C 0.35161 0.62468 0.30564 0.0
C313 C 0.31869 0.64477 0.33959 0.0
H314 H 0.39581 0.62645 0.22593 0.0
C315 C 0.30421 0.68354 0.31533 0.0
H316 H 0.36331 0.59457 0.32229 0.0
C317 C 0.32334 0.7023 0.25931 0.0
C318 C 0.35687 0.68229 0.22634 0.0
H319 H 0.27885 0.69975 0.34043 0.0
H320 H 0.31218 0.73253 0.24232 0.0
C321 C 0.37025 0.64302 0.24988 0.0
C322 C 0.85292 0.88061 0.51821 0.0
C323 C 0.81818 0.86219 0.48692 0.0
H324 H 0.89885 0.87681 0.5947 0.0
C325 C 0.80263 0.82399 0.51212 0.0
H326 H 0.86568 0.91012 0.50067 0.0
C327 C 0.82213 0.80439 0.56688 0.0
C328 C 0.85718 0.82294 0.59754 0.0
H329 H 0.77591 0.80899 0.48901 0.0
H330 H 0.80986 0.77483 0.58501 0.0
C331 C 0.87201 0.8614 0.57261 0.0
C332 C 0.71281 0.32456 0.81773 0.0
C333 C 0.68748 0.34023 0.86975 0.0
H334 H 0.71376 0.29585 0.72004 0.0
C335 C 0.64429 0.33211 0.86871 0.0
H336 H 0.74621 0.33046 0.81745 0.0
C337 C 0.62608 0.31258 0.81392 0.0
C338 C 0.65059 0.30047 0.75898 0.0
H339 H 0.62407 0.34317 0.90863 0.0
H340 H 0.5923 0.30936 0.8126 0.0
C341 C 0.69435 0.30472 0.76228 0.0
C342 C 0.16135 0.12455 0.02961 0.0
C343 C 0.19293 0.14525 0.99347 0.0
H344 H 0.11848 0.1259 0.11088 0.0
C345 C 0.20672 0.18474 0.01571 0.0
H346 H 0.15032 0.09385 0.01465 0.0
C347 C 0.18794 0.20368 0.07184 0.0
C348 C 0.15549 0.18311 0.10672 0.0
H349 H 0.23113 0.20136 0.98887 0.0
H350 H 0.1983 0.23452 0.08718 0.0
C351 C 0.14308 0.14304 0.08533 0.0
C352 C 0.32858 0.6959 0.73283 0.0
C353 C 0.31719 0.6534 0.73411 0.0
H354 H 0.35819 0.74654 0.78567 0.0
C355 C 0.32429 0.62977 0.79211 0.0
H356 H 0.3238 0.71447 0.68807 0.0
C357 C 0.34353 0.64798 0.84753 0.0
C358 C 0.35684 0.68993 0.84541 0.0
H359 H 0.31583 0.5969 0.79389 0.0
H360 H 0.34888 0.62894 0.89161 0.0
C361 C 0.3483 0.7141 0.78827 0.0
C362 C 0.86217 0.8359 0.10278 0.0
C363 C 0.82116 0.85173 0.10043 0.0
H364 H 0.91236 0.80671 0.04852 0.0
C365 C 0.79744 0.84602 0.04203 0.0
H366 H 0.88079 0.83912 0.14773 0.0
C367 C 0.81527 0.82668 0.98575 0.0
C368 C 0.85698 0.81281 0.98732 0.0
H369 H 0.76571 0.85786 0.03915 0.0
H370 H 0.79711 0.82411 0.94022 0.0
C371 C 0.88009 0.81709 0.04645 0.0
C372 C 0.65198 0.39618 0.28304 0.0
C373 C 0.68561 0.37692 0.24962 0.0
H374 H 0.6052 0.39158 0.35838 0.0
C375 C 0.70208 0.33982 0.27708 0.0
H376 H 0.63922 0.42557 0.26556 0.0
C377 C 0.68552 0.32287 0.33625 0.0
C378 C 0.64987 0.34054 0.36673 0.0
H379 H 0.72723 0.32312 0.25265 0.0
H380 H 0.70073 0.29571 0.35739 0.0
C381 C 0.63322 0.37729 0.33854 0.0
C382 C 0.15602 0.21002 0.54575 0.0
C383 C 0.14948 0.18642 0.48741 0.0
H384 H 0.17908 0.21002 0.64681 0.0
C385 C 0.16433 0.14502 0.48458 0.0
H386 H 0.14501 0.24207 0.54887 0.0
C387 C 0.18323 0.12673 0.54035 0.0
C388 C 0.1886 0.14986 0.59925 0.0
H389 H 0.16057 0.12651 0.43957 0.0
H390 H 0.1931 0.09428 0.53788 0.0
C391 C 0.17551 0.19183 0.6014 0.0
C392 C 0.28425 0.91122 0.93729 0.0
C393 C 0.32254 0.91325 0.97104 0.0
H394 H 0.24053 0.94203 0.874 0.0
C395 C 0.34854 0.94833 0.96145 0.0
H396 H 0.26397 0.8842 0.943 0.0
C397 C 0.33488 0.98222 0.92215 0.0
C398 C 0.29527 0.9811 0.89141 0.0
H399 H 0.37828 0.9505 0.98709 0.0
H400 H 0.35432 0.00995 0.91866 0.0
C401 C 0.27098 0.94443 0.89744 0.0
C402 C 0.52395 0.83333 0.17531 0.0
C403 C 0.52388 0.79255 0.14844 0.0
H404 H 0.55697 0.87831 0.23577 0.0
C405 C 0.55941 0.76712 0.15802 0.0
H406 H 0.49713 0.85368 0.16892 0.0
C407 C 0.59284 0.78086 0.19665 0.0
C408 C 0.59225 0.8207 0.22585 0.0
H409 H 0.56095 0.73569 0.13773 0.0
H410 H 0.61904 0.75988 0.20462 0.0
C411 C 0.55811 0.84741 0.21349 0.0
C412 C 0.6744 0.0252 0.42269 0.0
C413 C 0.71028 0.0269 0.38162 0.0
H414 H 0.63511 0.05829 0.49261 0.0
C415 C 0.73078 0.06556 0.37322 0.0
H416 H 0.65806 0.99585 0.43046 0.0
C417 C 0.71797 0.10078 0.40886 0.0
C418 C 0.68399 0.09857 0.45333 0.0
H419 H 0.75821 0.06823 0.34141 0.0
H420 H 0.73565 0.12956 0.40318 0.0
C421 C 0.66131 0.06089 0.45833 0.0
C422 C 0.48261 0.17377 0.66928 0.0
C423 C 0.48247 0.21437 0.64157 0.0
H424 H 0.44997 0.12917 0.73129 0.0
C425 C 0.44627 0.23908 0.64867 0.0
H426 H 0.51006 0.15402 0.66494 0.0
C427 C 0.41256 0.22519 0.68705 0.0
C428 C 0.41373 0.18594 0.7185 0.0
H429 H 0.44473 0.27029 0.62739 0.0
H430 H 0.38595 0.24583 0.6938 0.0
C431 C 0.44833 0.15959 0.7074 0.0
C432 C 0.84486 0.55769 0.86151 0.0
C433 C 0.8171 0.59016 0.84413 0.0
H434 H 0.85236 0.49804 0.91055 0.0
C435 C 0.77561 0.58819 0.86704 0.0
H436 H 0.87693 0.55811 0.84389 0.0
C437 C 0.7617 0.55431 0.90494 0.0
C438 C 0.78873 0.52092 0.92063 0.0
H439 H 0.75355 0.6129 0.8553 0.0
H440 H 0.72923 0.55407 0.92078 0.0
C441 C 0.83076 0.52325 0.89945 0.0
C442 C 0.97163 0.26825 0.12362 0.0
C443 C 0.99077 0.29298 0.1729 0.0
H444 H 0.92211 0.26181 0.05335 0.0
C445 C 0.97471 0.33307 0.18619 0.0
H446 H 0.98372 0.23743 0.11153 0.0
C447 C 0.93842 0.34703 0.15312 0.0
C448 C 0.91849 0.32137 0.1053 0.0
H449 H 0.98888 0.35261 0.22422 0.0
H450 H 0.9251 0.37681 0.16755 0.0
C451 C 0.93626 0.2823 0.09013 0.0
C452 C 0.17569 0.48169 0.413 0.0
C453 C 0.21516 0.48099 0.44424 0.0
H454 H 0.13261 0.44925 0.3485 0.0
C455 C 0.23944 0.44427 0.43978 0.0
H456 H 0.15624 0.50945 0.41532 0.0
C457 C 0.22632 0.41057 0.40093 0.0
C458 C 0.18819 0.41217 0.3666 0.0
H459 H 0.26979 0.4422 0.46366 0.0
H460 H 0.24663 0.38352 0.39635 0.0
C461 C 0.16219 0.44734 0.37468 0.0
C462 C 0.09394 0.72467 0.63788 0.0
C463 C 0.09254 0.68591 0.60511 0.0
H464 H 0.0625 0.76885 0.6998 0.0
C465 C 0.05746 0.65988 0.61457 0.0
H466 H 0.12086 0.74508 0.6323 0.0
C467 C 0.02321 0.67376 0.65313 0.0
C468 C 0.02392 0.71364 0.68331 0.0
H469 H 0.05566 0.62982 0.58965 0.0
H470 H 0.99567 0.65409 0.65695 0.0
C471 C 0.06038 0.73816 0.6769 0.0
loop_
_geom_bond_atom_site_label_1
_geom_bond_atom_site_label_2
_geom_bond_distance
_geom_bond_site_symmetry_2
_ccdc_geom_bond_type
Co0 O3 1.970 . S
Co0 N17 1.989 1_554 S
Co0 O25 1.967 . S
Co0 O32 1.920 . S
Co1 O4 1.966 . S
Co1 N10 2.022 . S
Co1 N18 1.993 1_554 S
Co1 O26 1.941 . S
C2 O3 1.258 . S
C2 O4 1.263 . S
O3 Co0 1.970 . S
O3 C2 1.258 . S
O4 Co1 1.966 . S
O4 C2 1.263 . S
C5 O6 1.235 . S
C5 O32 1.289 . S
O6 C5 1.235 . S
C7 C9 1.400 . S
C7 N10 1.351 . S
C7 C12 1.501 . S
C8 C9 1.387 . S
C8 N11 1.341 . S
C9 C7 1.400 . S
C9 C8 1.387 . S
N10 Co1 2.022 . S
N10 C7 1.351 . S
N10 N11 1.365 . S
N11 C8 1.341 . S
N11 N10 1.365 . S
N11 H31 0.862 . S
C12 C7 1.501 . S
C12 H13 0.961 . S
C12 H14 0.961 1_554 S
C12 H15 0.960 . S
H13 C12 0.961 . S
H14 C12 0.961 1_556 S
H15 C12 0.960 . S
C16 N17 1.342 . S
C16 C20 1.401 . S
C16 C21 1.499 . S
N17 Co0 1.989 1_556 S
N17 C16 1.342 . S
N17 N18 1.388 . S
N18 Co1 1.993 1_556 S
N18 N17 1.388 . S
N18 C19 1.346 . S
C19 N18 1.346 . S
C19 C20 1.396 . S
C19 C29 1.510 . S
C20 C16 1.401 . S
C20 C19 1.396 . S
C21 C16 1.499 . S
C21 H22 0.959 . S
C21 H23 0.960 . S
C21 H24 0.961 . S
H22 C21 0.959 . S
H23 C21 0.960 . S
H24 C21 0.961 . S
O25 Co0 1.967 . S
O25 C33 1.258 . S
O26 Co1 1.941 . S
O26 C33 1.266 . S
H27 C29 0.959 . S
H28 C29 0.961 . S
C29 C19 1.510 . S
C29 H27 0.959 . S
C29 H28 0.961 . S
C29 H30 0.960 . S
H30 C29 0.960 . S
H31 N11 0.862 . S
O32 Co0 1.920 . S
O32 C5 1.289 . S
C33 O25 1.258 . S
C33 O26 1.266 . S
Co34 O37 1.970 . S
Co34 N51 1.989 . S
Co34 O59 1.967 . S
Co34 O66 1.920 . S
Co35 O38 1.966 . S
Co35 N44 2.022 . S
Co35 N52 1.993 . S
Co35 O60 1.941 . S
C36 O37 1.258 . S
C36 O38 1.263 . S
O37 Co34 1.970 . S
O37 C36 1.258 . S
O38 Co35 1.966 . S
O38 C36 1.263 . S
C39 O40 1.235 . S
C39 O66 1.289 1_545 S
O40 C39 1.235 . S
C41 C43 1.400 . S
C41 N44 1.351 . S
C41 C46 1.501 . S
C42 C43 1.387 . S
C42 N45 1.341 . S
C43 C41 1.400 . S
C43 C42 1.387 . S
N44 Co35 2.022 . S
N44 C41 1.351 . S
N44 N45 1.365 . S
N45 C42 1.341 . S
N45 N44 1.365 . S
N45 H65 0.862 . S
C46 C41 1.501 . S
C46 H47 0.961 . S
C46 H48 0.961 . S
C46 H49 0.960 . S
H47 C46 0.961 . S
H48 C46 0.961 . S
H49 C46 0.960 . S
C50 N51 1.342 . S
C50 C54 1.401 . S
C50 C55 1.499 . S
N51 Co34 1.989 . S
N51 C50 1.342 . S
N51 N52 1.388 . S
N52 Co35 1.993 . S
N52 N51 1.388 . S
N52 C53 1.346 . S
C53 N52 1.346 . S
C53 C54 1.396 . S
C53 C63 1.510 . S
C54 C50 1.401 . S
C54 C53 1.396 . S
C55 C50 1.499 . S
C55 H56 0.959 . S
C55 H57 0.960 . S
C55 H58 0.961 . S
H56 C55 0.959 . S
H57 C55 0.960 . S
H58 C55 0.961 . S
O59 Co34 1.967 . S
O59 C67 1.258 . S
O60 Co35 1.941 . S
O60 C67 1.266 . S
H61 C63 0.959 . S
H62 C63 0.961 . S
C63 C53 1.510 . S
C63 H61 0.959 . S
C63 H62 0.961 . S
C63 H64 0.960 . S
H64 C63 0.960 . S
H65 N45 0.862 . S
O66 Co34 1.920 . S
O66 C39 1.289 1_565 S
C67 O59 1.258 . S
C67 O60 1.266 . S
Co68 O71 1.970 . S
Co68 N85 1.989 . S
Co68 O93 1.967 . S
Co68 O100 1.920 . S
Co69 O72 1.966 . S
Co69 N78 2.022 . S
Co69 N86 1.993 . S
Co69 O94 1.941 . S
C70 O71 1.258 . S
C70 O72 1.263 . S
O71 Co68 1.970 . S
O71 C70 1.258 . S
O72 Co69 1.966 . S
O72 C70 1.263 . S
C73 O74 1.235 . S
C73 O100 1.289 . S
O74 C73 1.235 . S
C75 C77 1.400 . S
C75 N78 1.351 . S
C75 C80 1.501 . S
C76 C77 1.387 . S
C76 N79 1.341 . S
C77 C75 1.400 . S
C77 C76 1.387 . S
N78 Co69 2.022 . S
N78 C75 1.351 . S
N78 N79 1.365 . S
N79 C76 1.341 . S
N79 N78 1.365 . S
N79 H99 0.862 . S
C80 C75 1.501 . S
C80 H81 0.961 . S
C80 H82 0.961 . S
C80 H83 0.960 . S
H81 C80 0.961 . S
H82 C80 0.961 . S
H83 C80 0.960 . S
C84 N85 1.342 . S
C84 C88 1.401 . S
C84 C89 1.499 . S
N85 Co68 1.989 . S
N85 C84 1.342 . S
N85 N86 1.388 . S
N86 Co69 1.993 . S
N86 N85 1.388 . S
N86 C87 1.346 . S
C87 N86 1.346 . S
C87 C88 1.396 . S
C87 C97 1.510 . S
C88 C84 1.401 . S
C88 C87 1.396 . S
C89 C84 1.499 . S
C89 H90 0.959 . S
C89 H91 0.960 . S
C89 H92 0.961 . S
H90 C89 0.959 . S
H91 C89 0.960 . S
H92 C89 0.961 . S
O93 Co68 1.967 . S
O93 C101 1.258 . S
O94 Co69 1.941 . S
O94 C101 1.266 . S
H95 C97 0.959 . S
H96 C97 0.961 . S
C97 C87 1.510 . S
C97 H95 0.959 . S
C97 H96 0.961 . S
C97 H98 0.960 . S
H98 C97 0.960 . S
H99 N79 0.862 . S
O100 Co68 1.920 . S
O100 C73 1.289 . S
C101 O93 1.258 . S
C101 O94 1.266 . S
Co102 O105 1.970 . S
Co102 N119 1.989 . S
Co102 O127 1.967 . S
Co102 O134 1.920 . S
Co103 O106 1.966 . S
Co103 N112 2.022 . S
Co103 N120 1.993 . S
Co103 O128 1.941 . S
C104 O105 1.258 . S
C104 O106 1.263 . S
O105 Co102 1.970 . S
O105 C104 1.258 . S
O106 Co103 1.966 . S
O106 C104 1.263 . S
C107 O108 1.235 . S
C107 O134 1.289 1_565 S
O108 C107 1.235 . S
C109 C111 1.400 . S
C109 N112 1.351 . S
C109 C114 1.501 . S
C110 C111 1.387 . S
C110 N113 1.341 . S
C111 C109 1.400 . S
C111 C110 1.387 . S
N112 Co103 2.022 . S
N112 C109 1.351 . S
N112 N113 1.365 . S
N113 C110 1.341 . S
N113 N112 1.365 . S
N113 H133 0.862 . S
C114 C109 1.501 . S
C114 H115 0.961 . S
C114 H116 0.961 . S
C114 H117 0.960 . S
H115 C114 0.961 . S
H116 C114 0.961 . S
H117 C114 0.960 . S
C118 N119 1.342 . S
C118 C122 1.401 . S
C118 C123 1.499 . S
N119 Co102 1.989 . S
N119 C118 1.342 . S
N119 N120 1.388 . S
N120 Co103 1.993 . S
N120 N119 1.388 . S
N120 C121 1.346 . S
C121 N120 1.346 . S
C121 C122 1.396 . S
C121 C131 1.510 . S
C122 C118 1.401 . S
C122 C121 1.396 . S
C123 C118 1.499 . S
C123 H124 0.959 . S
C123 H125 0.960 . S
C123 H126 0.961 . S
H124 C123 0.959 . S
H125 C123 0.960 . S
H126 C123 0.961 . S
O127 Co102 1.967 . S
O127 C135 1.258 . S
O128 Co103 1.941 . S
O128 C135 1.266 . S
H129 C131 0.959 . S
H130 C131 0.961 . S
C131 C121 1.510 . S
C131 H129 0.959 . S
C131 H130 0.961 . S
C131 H132 0.960 . S
H132 C131 0.960 . S
H133 N113 0.862 . S
O134 Co102 1.920 . S
O134 C107 1.289 1_545 S
C135 O127 1.258 . S
C135 O128 1.266 . S
Co136 O139 1.970 . S
Co136 N153 1.989 . S
Co136 O161 1.967 . S
Co136 O168 1.920 . S
Co137 O140 1.966 . S
Co137 N146 2.022 . S
Co137 N154 1.993 . S
Co137 O162 1.941 . S
C138 O139 1.258 . S
C138 O140 1.263 . S
O139 Co136 1.970 . S
O139 C138 1.258 . S
O140 Co137 1.966 . S
O140 C138 1.263 . S
C141 O142 1.235 . S
C141 O168 1.289 1_455 S
O142 C141 1.235 . S
C143 C145 1.400 . S
C143 N146 1.351 . S
C143 C148 1.501 . S
C144 C145 1.387 . S
C144 N147 1.341 . S
C145 C143 1.400 . S
C145 C144 1.387 . S
N146 Co137 2.022 . S
N146 C143 1.351 . S
N146 N147 1.365 . S
N147 C144 1.341 . S
N147 N146 1.365 . S
N147 H167 0.862 . S
C148 C143 1.501 . S
C148 H149 0.961 . S
C148 H150 0.961 . S
C148 H151 0.960 . S
H149 C148 0.961 . S
H150 C148 0.961 . S
H151 C148 0.960 . S
C152 N153 1.342 . S
C152 C156 1.401 . S
C152 C157 1.499 . S
N153 Co136 1.989 . S
N153 C152 1.342 . S
N153 N154 1.388 . S
N154 Co137 1.993 . S
N154 N153 1.388 . S
N154 C155 1.346 . S
C155 N154 1.346 . S
C155 C156 1.396 . S
C155 C165 1.510 . S
C156 C152 1.401 . S
C156 C155 1.396 . S
C157 C152 1.499 . S
C157 H158 0.959 . S
C157 H159 0.960 . S
C157 H160 0.961 . S
H158 C157 0.959 . S
H159 C157 0.960 . S
H160 C157 0.961 . S
O161 Co136 1.967 . S
O161 C169 1.258 . S
O162 Co137 1.941 . S
O162 C169 1.266 . S
H163 C165 0.959 . S
H164 C165 0.961 . S
C165 C155 1.510 . S
C165 H163 0.959 . S
C165 H164 0.961 . S
C165 H166 0.960 . S
H166 C165 0.960 . S
H167 N147 0.862 . S
O168 Co136 1.920 . S
O168 C141 1.289 1_655 S
C169 O161 1.258 . S
C169 O162 1.266 . S
Co170 O173 1.970 . S
Co170 N187 1.989 1_556 S
Co170 O195 1.967 . S
Co170 O202 1.920 . S
Co171 O174 1.966 . S
Co171 N180 2.022 1_556 S
Co171 N188 1.993 1_556 S
Co171 O196 1.941 . S
C172 O173 1.258 . S
C172 O174 1.263 . S
O173 Co170 1.970 . S
O173 C172 1.258 . S
O174 Co171 1.966 . S
O174 C172 1.263 . S
C175 O176 1.235 . S
C175 O202 1.289 1_554 S
O176 C175 1.235 . S
C177 C179 1.400 . S
C177 N180 1.351 . S
C177 C182 1.501 . S
C178 C179 1.387 . S
C178 N181 1.341 . S
C179 C177 1.400 . S
C179 C178 1.387 . S
N180 Co171 2.022 1_554 S
N180 C177 1.351 . S
N180 N181 1.365 . S
N181 C178 1.341 . S
N181 N180 1.365 . S
N181 H201 0.862 . S
C182 C177 1.501 . S
C182 H183 0.961 . S
C182 H184 0.961 . S
C182 H185 0.960 . S
H183 C182 0.961 . S
H184 C182 0.961 . S
H185 C182 0.960 . S
C186 N187 1.342 . S
C186 C190 1.401 . S
C186 C191 1.499 . S
N187 Co170 1.989 1_554 S
N187 C186 1.342 . S
N187 N188 1.388 . S
N188 Co171 1.993 1_554 S
N188 N187 1.388 . S
N188 C189 1.346 . S
C189 N188 1.346 . S
C189 C190 1.396 . S
C189 C199 1.510 . S
C190 C186 1.401 . S
C190 C189 1.396 . S
C191 C186 1.499 . S
C191 H192 0.959 . S
C191 H193 0.960 . S
C191 H194 0.961 . S
H192 C191 0.959 . S
H193 C191 0.960 . S
H194 C191 0.961 . S
O195 Co170 1.967 . S
O195 C203 1.258 . S
O196 Co171 1.941 . S
O196 C203 1.266 . S
H197 C199 0.959 . S
H198 C199 0.961 . S
C199 C189 1.510 . S
C199 H197 0.959 . S
C199 H198 0.961 . S
C199 H200 0.960 . S
H200 C199 0.960 . S
H201 N181 0.862 . S
O202 Co170 1.920 . S
O202 C175 1.289 1_556 S
C203 O195 1.258 . S
C203 O196 1.266 . S
Co204 O207 1.970 . S
Co204 N221 1.989 . S
Co204 O229 1.967 . S
Co204 O236 1.920 . S
Co205 O208 1.966 . S
Co205 N214 2.022 . S
Co205 N222 1.993 . S
Co205 O230 1.941 . S
C206 O207 1.258 . S
C206 O208 1.263 . S
O207 Co204 1.970 . S
O207 C206 1.258 . S
O208 Co205 1.966 . S
O208 C206 1.263 . S
C209 O210 1.235 . S
C209 O236 1.289 1_655 S
O210 C209 1.235 . S
C211 C213 1.400 . S
C211 N214 1.351 . S
C211 C216 1.501 . S
C212 C213 1.387 . S
C212 N215 1.341 . S
C213 C211 1.400 . S
C213 C212 1.387 . S
N214 Co205 2.022 . S
N214 C211 1.351 . S
N214 N215 1.365 . S
N215 C212 1.341 . S
N215 N214 1.365 . S
N215 H235 0.862 . S
C216 C211 1.501 . S
C216 H217 0.961 . S
C216 H218 0.961 . S
C216 H219 0.960 . S
H217 C216 0.961 . S
H218 C216 0.961 . S
H219 C216 0.960 . S
C220 N221 1.342 . S
C220 C224 1.401 . S
C220 C225 1.499 . S
N221 Co204 1.989 . S
N221 C220 1.342 . S
N221 N222 1.388 . S
N222 Co205 1.993 . S
N222 N221 1.388 . S
N222 C223 1.346 . S
C223 N222 1.346 . S
C223 C224 1.396 . S
C223 C233 1.510 . S
C224 C220 1.401 . S
C224 C223 1.396 . S
C225 C220 1.499 . S
C225 H226 0.959 . S
C225 H227 0.960 . S
C225 H228 0.961 . S
H226 C225 0.959 . S
H227 C225 0.960 . S
H228 C225 0.961 . S
O229 Co204 1.967 . S
O229 C237 1.258 . S
O230 Co205 1.941 . S
O230 C237 1.266 . S
H231 C233 0.959 . S
H232 C233 0.961 . S
C233 C223 1.510 . S
C233 H231 0.959 . S
C233 H232 0.961 . S
C233 H234 0.960 . S
H234 C233 0.960 . S
H235 N215 0.862 . S
O236 Co204 1.920 . S
O236 C209 1.289 1_455 S
C237 O229 1.258 . S
C237 O230 1.266 . S
Co238 O241 1.970 . S
Co238 N255 1.989 . S
Co238 O263 1.967 . S
Co238 O270 1.920 . S
Co239 O242 1.966 . S
Co239 N248 2.022 . S
Co239 N256 1.993 . S
Co239 O264 1.941 . S
C240 O241 1.258 . S
C240 O242 1.263 . S
O241 Co238 1.970 . S
O241 C240 1.258 . S
O242 Co239 1.966 . S
O242 C240 1.263 . S
C243 O244 1.235 . S
C243 O270 1.289 . S
O244 C243 1.235 . S
C245 C247 1.400 . S
C245 N248 1.351 . S
C245 C250 1.501 . S
C246 C247 1.387 . S
C246 N249 1.341 . S
C247 C245 1.400 . S
C247 C246 1.387 . S
N248 Co239 2.022 . S
N248 C245 1.351 . S
N248 N249 1.365 . S
N249 C246 1.341 . S
N249 N248 1.365 . S
N249 H269 0.862 . S
C250 C245 1.501 . S
C250 H251 0.961 . S
C250 H252 0.961 . S
C250 H253 0.960 . S
H251 C250 0.961 . S
H252 C250 0.961 . S
H253 C250 0.960 . S
C254 N255 1.342 . S
C254 C258 1.401 . S
C254 C259 1.499 . S
N255 Co238 1.989 . S
N255 C254 1.342 . S
N255 N256 1.388 . S
N256 Co239 1.993 . S
N256 N255 1.388 . S
N256 C257 1.346 . S
C257 N256 1.346 . S
C257 C258 1.396 . S
C257 C267 1.510 . S
C258 C254 1.401 . S
C258 C257 1.396 . S
C259 C254 1.499 . S
C259 H260 0.959 . S
C259 H261 0.960 . S
C259 H262 0.961 . S
H260 C259 0.959 . S
H261 C259 0.960 . S
H262 C259 0.961 . S
O263 Co238 1.967 . S
O263 C271 1.258 . S
O264 Co239 1.941 . S
O264 C271 1.266 . S
H265 C267 0.959 . S
H266 C267 0.961 . S
C267 C257 1.510 . S
C267 H265 0.959 . S
C267 H266 0.961 . S
C267 H268 0.960 . S
H268 C267 0.960 . S
H269 N249 0.862 . S
O270 Co238 1.920 . S
O270 C243 1.289 . S
C271 O263 1.258 . S
C271 O264 1.266 . S
C272 C273 1.387 . S
C272 H276 0.950 . S
C272 C281 1.390 . S
C273 C272 1.387 . S
C273 C275 1.387 1_554 S
H274 C281 0.950 . S
C275 C273 1.387 1_556 S
C275 C277 1.390 1_556 S
C275 H279 0.950 . S
H276 C272 0.950 . S
C277 C275 1.390 1_554 S
C277 C278 1.387 . S
C277 H280 0.950 1_554 S
C278 C277 1.387 . S
C278 C281 1.387 . S
H279 C275 0.950 . S
H280 C277 0.950 1_556 S
C281 C272 1.390 . S
C281 H274 0.950 . S
C281 C278 1.387 . S
C282 C283 1.387 . S
C282 H286 0.950 . S
C282 C291 1.390 . S
C283 C282 1.387 . S
C283 C285 1.387 . S
H284 C291 0.950 . S
C285 C283 1.387 . S
C285 C287 1.390 . S
C285 H289 0.950 . S
H286 C282 0.950 . S
C287 C285 1.390 . S
C287 C288 1.387 . S
C287 H290 0.950 . S
C288 C287 1.387 . S
C288 C291 1.387 . S
H289 C285 0.950 . S
H290 C287 0.950 . S
C291 C282 1.390 . S
C291 H284 0.950 . S
C291 C288 1.387 . S
C292 C293 1.387 . S
C292 H296 0.950 . S
C292 C301 1.390 . S
C293 C292 1.387 . S
C293 C295 1.387 . S
H294 C301 0.950 . S
C295 C293 1.387 . S
C295 C297 1.390 . S
C295 H299 0.950 . S
H296 C292 0.950 . S
C297 C295 1.390 . S
C297 C298 1.387 . S
C297 H300 0.950 . S
C298 C297 1.387 . S
C298 C301 1.387 . S
H299 C295 0.950 . S
H300 C297 0.950 . S
C301 C292 1.390 . S
C301 H294 0.950 . S
C301 C298 1.387 . S
C302 C303 1.387 . S
C302 H306 0.950 . S
C302 C311 1.390 . S
C303 C302 1.387 . S
C303 C305 1.387 . S
H304 C311 0.950 . S
C305 C303 1.387 . S
C305 C307 1.390 . S
C305 H309 0.950 . S
H306 C302 0.950 . S
C307 C305 1.390 . S
C307 C308 1.387 . S
C307 H310 0.950 . S
C308 C307 1.387 . S
C308 C311 1.387 . S
H309 C305 0.950 . S
H310 C307 0.950 . S
C311 C302 1.390 . S
C311 H304 0.950 . S
C311 C308 1.387 . S
C312 C313 1.387 . S
C312 H316 0.950 . S
C312 C321 1.390 . S
C313 C312 1.387 . S
C313 C315 1.387 . S
H314 C321 0.950 . S
C315 C313 1.387 . S
C315 C317 1.390 . S
C315 H319 0.950 . S
H316 C312 0.950 . S
C317 C315 1.390 . S
C317 C318 1.387 . S
C317 H320 0.950 . S
C318 C317 1.387 . S
C318 C321 1.387 . S
H319 C315 0.950 . S
H320 C317 0.950 . S
C321 C312 1.390 . S
C321 H314 0.950 . S
C321 C318 1.387 . S
C322 C323 1.387 . S
C322 H326 0.950 . S
C322 C331 1.390 . S
C323 C322 1.387 . S
C323 C325 1.387 . S
H324 C331 0.950 . S
C325 C323 1.387 . S
C325 C327 1.390 . S
C325 H329 0.950 . S
H326 C322 0.950 . S
C327 C325 1.390 . S
C327 C328 1.387 . S
C327 H330 0.950 . S
C328 C327 1.387 . S
C328 C331 1.387 . S
H329 C325 0.950 . S
H330 C327 0.950 . S
C331 C322 1.390 . S
C331 H324 0.950 . S
C331 C328 1.387 . S
C332 C333 1.387 . S
C332 H336 0.950 . S
C332 C341 1.390 . S
C333 C332 1.387 . S
C333 C335 1.387 . S
H334 C341 0.950 . S
C335 C333 1.387 . S
C335 C337 1.390 . S
C335 H339 0.950 . S
H336 C332 0.950 . S
C337 C335 1.390 . S
C337 C338 1.387 . S
C337 H340 0.950 . S
C338 C337 1.387 . S
C338 C341 1.387 . S
H339 C335 0.950 . S
H340 C337 0.950 . S
C341 C332 1.390 . S
C341 H334 0.950 . S
C341 C338 1.387 . S
C342 C343 1.387 . S
C342 H346 0.950 . S
C342 C351 1.390 1_556 S
C343 C342 1.387 . S
C343 C345 1.387 1_556 S
H344 C351 0.950 . S
C345 C343 1.387 1_554 S
C345 C347 1.390 . S
C345 H349 0.950 . S
H346 C342 0.950 . S
C347 C345 1.390 . S
C347 C348 1.387 . S
C347 H350 0.950 . S
C348 C347 1.387 . S
C348 C351 1.387 . S
H349 C345 0.950 . S
H350 C347 0.950 . S
C351 C342 1.390 1_554 S
C351 H344 0.950 . S
C351 C348 1.387 . S
C352 C353 1.387 . S
C352 H356 0.950 . S
C352 C361 1.390 . S
C353 C352 1.387 . S
C353 C355 1.387 . S
H354 C361 0.950 . S
C355 C353 1.387 . S
C355 C357 1.390 . S
C355 H359 0.950 . S
H356 C352 0.950 . S
C357 C355 1.390 . S
C357 C358 1.387 . S
C357 H360 0.950 . S
C358 C357 1.387 . S
C358 C361 1.387 . S
H359 C355 0.950 . S
H360 C357 0.950 . S
C361 C352 1.390 . S
C361 H354 0.950 . S
C361 C358 1.387 . S
C362 C363 1.387 . S
C362 H366 0.950 . S
C362 C371 1.390 . S
C363 C362 1.387 . S
C363 C365 1.387 . S
H364 C371 0.950 . S
C365 C363 1.387 . S
C365 C367 1.390 1_554 S
C365 H369 0.950 . S
H366 C362 0.950 . S
C367 C365 1.390 1_556 S
C367 C368 1.387 . S
C367 H370 0.950 . S
C368 C367 1.387 . S
C368 C371 1.387 1_556 S
H369 C365 0.950 . S
H370 C367 0.950 . S
C371 C362 1.390 . S
C371 H364 0.950 . S
C371 C368 1.387 1_554 S
C372 C373 1.387 . S
C372 H376 0.950 . S
C372 C381 1.390 . S
C373 C372 1.387 . S
C373 C375 1.387 . S
H374 C381 0.950 . S
C375 C373 1.387 . S
C375 C377 1.390 . S
C375 H379 0.950 . S
H376 C372 0.950 . S
C377 C375 1.390 . S
C377 C378 1.387 . S
C377 H380 0.950 . S
C378 C377 1.387 . S
C378 C381 1.387 . S
H379 C375 0.950 . S
H380 C377 0.950 . S
C381 C372 1.390 . S
C381 H374 0.950 . S
C381 C378 1.387 . S
C382 C383 1.387 . S
C382 H386 0.950 . S
C382 C391 1.390 . S
C383 C382 1.387 . S
C383 C385 1.387 . S
H384 C391 0.950 . S
C385 C383 1.387 . S
C385 C387 1.390 . S
C385 H389 0.950 . S
H386 C382 0.950 . S
C387 C385 1.390 . S
C387 C388 1.387 . S
C387 H390 0.950 . S
C388 C387 1.387 . S
C388 C391 1.387 . S
H389 C385 0.950 . S
H390 C387 0.950 . S
C391 C382 1.390 . S
C391 H384 0.950 . S
C391 C388 1.387 . S
C392 C393 1.387 . S
C392 H396 0.950 1_556 S
C392 C401 1.390 . S
C393 C392 1.387 . S
C393 C395 1.387 . S
H394 C401 0.950 1_545 S
C395 C393 1.387 . S
C395 C397 1.390 . S
C395 H399 0.950 . S
H396 C392 0.950 1_554 S
C397 C395 1.390 . S
C397 C398 1.387 . S
C397 H400 0.950 . S
C398 C397 1.387 . S
C398 C401 1.387 . S
H399 C395 0.950 . S
H400 C397 0.950 . S
C401 C392 1.390 . S
C401 H394 0.950 1_565 S
C401 C398 1.387 . S
C402 C403 1.387 . S
C402 H406 0.950 . S
C402 C411 1.390 . S
C403 C402 1.387 . S
C403 C405 1.387 . S
H404 C411 0.950 . S
C405 C403 1.387 . S
C405 C407 1.390 . S
C405 H409 0.950 . S
H406 C402 0.950 . S
C407 C405 1.390 . S
C407 C408 1.387 . S
C407 H410 0.950 . S
C408 C407 1.387 . S
C408 C411 1.387 . S
H409 C405 0.950 . S
H410 C407 0.950 . S
C411 C402 1.390 . S
C411 H404 0.950 . S
C411 C408 1.387 . S
C412 C413 1.387 . S
C412 H416 0.950 1_545 S
C412 C421 1.390 . S
C413 C412 1.387 . S
C413 C415 1.387 . S
H414 C421 0.950 . S
C415 C413 1.387 . S
C415 C417 1.390 . S
C415 H419 0.950 . S
H416 C412 0.950 1_565 S
C417 C415 1.390 . S
C417 C418 1.387 . S
C417 H420 0.950 . S
C418 C417 1.387 . S
C418 C421 1.387 . S
H419 C415 0.950 . S
H420 C417 0.950 . S
C421 C412 1.390 . S
C421 H414 0.950 . S
C421 C418 1.387 . S
C422 C423 1.387 . S
C422 H426 0.950 . S
C422 C431 1.390 . S
C423 C422 1.387 . S
C423 C425 1.387 . S
H424 C431 0.950 . S
C425 C423 1.387 . S
C425 C427 1.390 . S
C425 H429 0.950 . S
H426 C422 0.950 . S
C427 C425 1.390 . S
C427 C428 1.387 . S
C427 H430 0.950 . S
C428 C427 1.387 . S
C428 C431 1.387 . S
H429 C425 0.950 . S
H430 C427 0.950 . S
C431 C422 1.390 . S
C431 H424 0.950 . S
C431 C428 1.387 . S
C432 C433 1.387 . S
C432 H436 0.950 . S
C432 C441 1.390 . S
C433 C432 1.387 . S
C433 C435 1.387 . S
H434 C441 0.950 . S
C435 C433 1.387 . S
C435 C437 1.390 . S
C435 H439 0.950 . S
H436 C432 0.950 . S
C437 C435 1.390 . S
C437 C438 1.387 . S
C437 H440 0.950 . S
C438 C437 1.387 . S
C438 C441 1.387 . S
H439 C435 0.950 . S
H440 C437 0.950 . S
C441 C432 1.390 . S
C441 H434 0.950 . S
C441 C438 1.387 . S
C442 C443 1.387 . S
C442 H446 0.950 . S
C442 C451 1.390 . S
C443 C442 1.387 . S
C443 C445 1.387 . S
H444 C451 0.950 . S
C445 C443 1.387 . S
C445 C447 1.390 . S
C445 H449 0.950 . S
H446 C442 0.950 . S
C447 C445 1.390 . S
C447 C448 1.387 . S
C447 H450 0.950 . S
C448 C447 1.387 . S
C448 C451 1.387 . S
H449 C445 0.950 . S
H450 C447 0.950 . S
C451 C442 1.390 . S
C451 H444 0.950 . S
C451 C448 1.387 . S
C452 C453 1.387 . S
C452 H456 0.950 . S
C452 C461 1.390 . S
C453 C452 1.387 . S
C453 C455 1.387 . S
H454 C461 0.950 . S
C455 C453 1.387 . S
C455 C457 1.390 . S
C455 H459 0.950 . S
H456 C452 0.950 . S
C457 C455 1.390 . S
C457 C458 1.387 . S
C457 H460 0.950 . S
C458 C457 1.387 . S
C458 C461 1.387 . S
H459 C455 0.950 . S
H460 C457 0.950 . S
C461 C452 1.390 . S
C461 H454 0.950 . S
C461 C458 1.387 . S
C462 C463 1.387 . S
C462 H466 0.950 . S
C462 C471 1.390 . S
C463 C462 1.387 . S
C463 C465 1.387 . S
H464 C471 0.950 . S
C465 C463 1.387 . S
C465 C467 1.390 . S
C465 H469 0.950 . S
H466 C462 0.950 . S
C467 C465 1.390 . S
C467 C468 1.387 . S
C467 H470 0.950 1_455 S
C468 C467 1.387 . S
C468 C471 1.387 . S
H469 C465 0.950 . S
H470 C467 0.950 1_655 S
C471 C462 1.390 . S
C471 H464 0.950 . S
C471 C468 1.387 . S
C273 C175 1.409 . S
C278 C5 1.408 . S
C283 C209 1.407 . S
C288 C39 1.409 . S
C293 C73 1.407 . S
C298 C243 1.409 . S
C303 C141 1.408 . S
C308 C107 1.409 . S
C313 C271 1.513 . S
C318 C33 1.513 . S
C323 C67 1.512 . S
C328 C169 1.512 . S
C333 C203 1.513 . S
C338 C101 1.513 . S
C343 C135 1.513 . S
C348 C237 1.512 . S
C353 C258 1.440 . S
C358 C20 1.440 . S
C363 C54 1.440 . S
C368 C156 1.440 . S
C373 C190 1.440 . S
C378 C88 1.440 . S
C383 C224 1.440 . S
C388 C122 1.440 . S
C393 C9 1.652 1_556 S
C398 C104 1.652 1_565 S
C403 C2 1.651 . S
C408 C43 1.653 . S
C413 C36 1.652 1_545 S
C418 C77 1.652 . S
C423 C70 1.651 . S
C428 C111 1.653 . S
C433 C145 1.652 . S
C438 C172 1.652 . S
C443 C206 1.652 1_655 S
C448 C179 1.652 . S
C453 C240 1.652 . S
C458 C213 1.652 . S
C463 C247 1.653 . S
C468 C138 1.651 1_455 S
