# Generated by pormake.
# Topology snp, (6)-cn, num edge types: 1
# Building blocks:
#     Node 0, Type 0, BuildingBlock: INOVEN_clean_sbu_0, # of connection points: 6
#     Node 1, Type 0, BuildingBlock: INOVEN_clean_sbu_0, # of connection points: 6
#     Node 2, Type 0, BuildingBlock: INOVEN_clean_sbu_0, # of connection points: 6
#     Node 3, Type 0, BuildingBlock: INOVEN_clean_sbu_0, # of connection points: 6
#     Edge 4, Type (0, 0), BuildingBlock: MIFKUJ_clean_linker_0, # of connection points: 2
#     Edge 5, Type (0, 0), BuildingBlock: MIFKUJ_clean_linker_0, # of connection points: 2
#     Edge 6, Type (0, 0), BuildingBlock: MIFKUJ_clean_linker_0, # of connection points: 2
#     Edge 7, Type (0, 0), BuildingBlock: MIFKUJ_clean_linker_0, # of connection points: 2
#     Edge 8, Type (0, 0), BuildingBlock: MIFKUJ_clean_linker_0, # of connection points: 2
#     Edge 9, Type (0, 0), BuildingBlock: MIFKUJ_clean_linker_0, # of connection points: 2
#     Edge 10, Type (0, 0), BuildingBlock: MIFKUJ_clean_linker_0, # of connection points: 2
#     Edge 11, Type (0, 0), BuildingBlock: MIFKUJ_clean_linker_0, # of connection points: 2
#     Edge 12, Type (0, 0), BuildingBlock: MIFKUJ_clean_linker_0, # of connection points: 2
#     Edge 13, Type (0, 0), BuildingBlock: MIFKUJ_clean_linker_0, # of connection points: 2
#     Edge 14, Type (0, 0), BuildingBlock: MIFKUJ_clean_linker_0, # of connection points: 2
#     Edge 15, Type (0, 0), BuildingBlock: MIFKUJ_clean_linker_0, # of connection points: 2
# Relax obj value: 0.191
# Max RMSD: 0.206
# Mean RMSD: 0.198
data_MOF--net-snp--node1-INOVEN_clean_sbu_0--edge1-MIFKUJ_clean_linker_0
_symmetry_space_group_name_H-M    P1
_symmetry_Int_Tables_number       1
_symmetry_cell_setting            triclinic
loop_
_symmetry_equiv_pos_as_xyz
'x, y, z'
_cell_length_a     32.391595
_cell_length_b     32.028601
_cell_length_c     44.319918
_cell_angle_alpha  87.268404
_cell_angle_beta   102.75473
_cell_angle_gamma 95.292029
loop_
_atom_site_label
_atom_site_type_symbol
_atom_site_fract_x
_atom_site_fract_y
_atom_site_fract_z
_atom_type_partial_charge
Gd0 Gd 0.26084 0.16439 0.10465 0.0
Gd1 Gd 0.25575 0.08487 0.06512 0.0
C2 C 0.25 0.0709 0.13698 0.0
C3 C 0.25382 0.21766 0.14492 0.0
C4 C 0.23826 0.21629 0.17395 0.0
C5 C 0.25786 0.24407 0.19737 0.0
C6 C 0.20563 0.18665 0.17928 0.0
C7 C 0.21265 0.21276 0.23118 0.0
C8 C 0.19269 0.18512 0.20756 0.0
C9 C 0.2453 0.24229 0.22568 0.0
C10 C 0.33425 0.14329 0.09272 0.0
C11 C 0.25035 0.17636 0.03213 0.0
C12 C 0.26881 0.0234 0.03365 0.0
C13 C 0.25805 0.01199 1.00051 0.0
C14 C 0.21585 0.00119 0.98502 0.0
C15 C 0.29043 0.01155 0.98403 0.0
C16 C 0.23883 0.98928 0.93744 0.0
C17 C 0.28098 0.00048 0.95287 0.0
C18 C 0.2064 0.98999 0.95393 0.0
C19 C 0.18081 0.11801 0.06268 0.0
O20 O 0.24897 0.112 0.13795 0.0
O21 O 0.25534 0.05248 0.11199 0.0
O22 O 0.28836 0.19879 0.14621 0.0
O23 O 0.22546 0.21128 0.11904 0.0
O24 O 0.32542 0.18189 0.09351 0.0
O25 O 0.30496 0.11859 0.09925 0.0
O26 O 0.26635 0.13961 0.03297 0.0
O27 O 0.23992 0.19108 0.05659 0.0
O28 O 0.23739 0.02226 0.04803 0.0
O29 O 0.29674 0.05568 0.04111 0.0
O30 O 0.1893 0.09889 0.03984 0.0
O31 O 0.21172 0.11582 0.08526 0.0
H32 H 0.28324 0.26701 0.19385 0.0
H33 H 0.19055 0.16433 0.16182 0.0
H34 H 0.16776 0.16174 0.2112 0.0
H35 H 0.26101 0.26429 0.24326 0.0
H36 H 0.18997 0.00135 0.99687 0.0
H37 H 0.32319 0.01966 0.99536 0.0
H38 H 0.30682 -4e-05 0.94104 0.0
H39 H 0.1735 0.98228 0.9427 0.0
Gd40 Gd 0.97022 0.25765 0.67642 0.0
Gd41 Gd 0.05629 0.2716 0.65665 0.0
C42 C 0.05832 0.29295 0.72468 0.0
C43 C 0.91256 0.23398 0.70747 0.0
C44 C 0.91072 0.22124 0.73966 0.0
C45 C 0.87115 0.21052 0.74706 0.0
C46 C 0.94778 0.21884 0.76296 0.0
C47 C 0.90543 0.19469 0.80068 0.0
C48 C 0.94516 0.20594 0.79325 0.0
C49 C 0.86849 0.19732 0.77718 0.0
C50 C 0.98334 0.331 0.64636 0.0
C51 C 0.97036 0.23459 0.60746 0.0
C52 C 0.11384 0.2875 0.62461 0.0
C53 C 0.11708 0.27725 0.59286 0.0
C54 C 0.14526 0.24816 0.58892 0.0
C55 C 0.09197 0.29543 0.56634 0.0
C56 C 0.12383 0.25612 0.5327 0.0
C57 C 0.09527 0.28495 0.53665 0.0
C58 C 0.14847 0.2376 0.55928 0.0
C59 C 0.04459 0.20204 0.69076 0.0
O60 O 0.02042 0.27161 0.72038 0.0
O61 O 0.07693 0.30398 0.70145 0.0
O62 O 0.92457 0.27336 0.70243 0.0
O63 O 0.92926 0.20819 0.69244 0.0
O64 O 0.94604 0.31085 0.64395 0.0
O65 O 0.0107 0.31305 0.66606 0.0
O66 O 0.00967 0.25224 0.613 0.0
O67 O 0.94812 0.22944 0.6293 0.0
O68 O 0.11398 0.25578 0.64437 0.0
O69 O 0.08675 0.31446 0.62719 0.0
O70 O 0.08136 0.22273 0.69244 0.0
O71 O 0.01707 0.21661 0.66914 0.0
H72 H 0.84219 0.21215 0.72944 0.0
H73 H 0.97871 0.22653 0.7577 0.0
H74 H 0.97423 0.20392 0.81069 0.0
H75 H 0.83738 0.18944 0.78214 0.0
H76 H 0.16486 0.23342 0.60885 0.0
H77 H 0.06977 0.31786 0.56844 0.0
H78 H 0.07608 0.3002 0.5168 0.0
H79 H 0.17027 0.21474 0.55724 0.0
Gd80 Gd 0.81589 0.01282 0.16189 0.0
Gd81 Gd 0.80103 0.93327 0.12239 0.0
C82 C 0.79672 0.92299 0.19317 0.0
C83 C 0.81339 0.07859 0.19262 0.0
C84 C 0.82464 0.08837 0.226 0.0
C85 C 0.86323 0.07761 0.24505 0.0
C86 C 0.79613 0.10794 0.23925 0.0
C87 C 0.84508 0.1069 0.28977 0.0
C88 C 0.8061 0.11687 0.27084 0.0
C89 C 0.87354 0.08721 0.27648 0.0
C90 C 0.87994 0.96216 0.17313 0.0
C91 C 0.82935 0.02319 0.09165 0.0
C92 C 0.804 0.87624 0.08366 0.0
C93 C 0.82006 0.87496 0.055 0.0
C94 C 0.79833 0.84832 0.03143 0.0
C95 C 0.8551 0.90158 0.05003 0.0
C96 C 0.84586 0.87517 0.99795 0.0
C97 C 0.86804 0.90149 0.02182 0.0
C98 C 0.81101 0.84843 1.00322 0.0
C99 C 0.73118 0.96889 0.1283 0.0
O100 O 0.78781 0.96272 0.19072 0.0
O101 O 0.80738 0.90446 0.17024 0.0
O102 O 0.84494 0.07283 0.17948 0.0
O103 O 0.78017 0.05175 0.18385 0.0
O104 O 0.87102 0.98457 0.19404 0.0
O105 O 0.85719 0.97087 0.14713 0.0
O106 O 0.82155 0.9821 0.08948 0.0
O107 O 0.82798 0.04306 0.11697 0.0
O108 O 0.77129 0.89814 0.08157 0.0
O109 O 0.8322 0.88168 0.1097 0.0
O110 O 0.73315 0.92856 0.12825 0.0
O111 O 0.76531 0.98787 0.12435 0.0
H112 H 0.88541 0.06153 0.23575 0.0
H113 H 0.76606 0.11627 0.22514 0.0
H114 H 0.78358 0.13219 0.28039 0.0
H115 H 0.90354 0.0786 0.29052 0.0
H116 H 0.7711 0.82772 0.0347 0.0
H117 H 0.87207 0.92285 0.06773 0.0
H118 H 0.89472 0.92275 1.01841 0.0
H119 H 0.79354 0.82743 0.98551 0.0
Gd120 Gd 0.0135 0.82672 0.57486 0.0
Gd121 Gd 0.09417 0.84379 0.55043 0.0
C122 C 0.10529 0.84604 0.62381 0.0
C123 C 0.95866 0.80294 0.60789 0.0
C124 C 0.9534 0.81459 0.63891 0.0
C125 C 0.92427 0.84355 0.64138 0.0
C126 C 0.97746 0.79741 0.66631 0.0
C127 C 0.94283 0.83737 0.69781 0.0
C128 C 0.97228 0.80869 0.69534 0.0
C129 C 0.91919 0.85492 0.6704 0.0
C130 C 0.03658 0.90962 0.56588 0.0
C131 C 1.00114 0.83221 0.50316 0.0
C132 C 0.1492 0.87117 0.51805 0.0
C133 C 0.14967 0.88159 0.48498 0.0
C134 C 0.16596 0.85416 0.46753 0.0
C135 C 0.13589 0.91969 0.47092 0.0
C136 C 0.15601 0.90322 0.42312 0.0
C137 C 0.139 0.93032 0.44041 0.0
C138 C 0.16891 0.86473 0.43697 0.0
C139 C 0.07479 0.76315 0.56549 0.0
O140 O 0.06585 0.82819 0.61872 0.0
O141 O 0.12329 0.85875 0.60042 0.0
O142 O 0.95225 0.8319 0.58587 0.0
O143 O 0.99105 0.78163 0.607 0.0
O144 O 0.99774 0.89283 0.55968 0.0
O145 O 0.06011 0.8807 0.57538 0.0
O146 O 0.03988 0.8515 0.50895 0.0
O147 O 0.9853 0.81234 0.52538 0.0
O148 O 0.14252 0.83154 0.5257 0.0
O149 O 0.13006 0.89579 0.5323 0.0
O150 O 0.11336 0.78076 0.5705 0.0
O151 O 0.04872 0.78819 0.55154 0.0
H152 H 0.90528 0.8575 0.62081 0.0
H153 H 1.00018 0.77497 0.6654 0.0
H154 H 0.99066 0.79407 0.71586 0.0
H155 H 0.89669 0.87757 0.67132 0.0
H156 H 0.17721 0.82476 0.47771 0.0
H157 H 0.1232 0.94168 0.48357 0.0
H158 H 0.12824 0.95998 0.4304 0.0
H159 H 0.18262 0.84328 0.42455 0.0
H160 H 0.94321 0.9573 0.22532 0.0
H161 H 0.01815 0.96083 0.22322 0.0
H162 H 0.98262 0.931 0.12662 0.0
H163 H 0.90871 0.92562 0.12888 0.0
H164 H 0.06472 0.93176 0.14418 0.0
H165 H 0.9622 0.05315 0.15984 0.0
H166 H 0.93 0.08446 0.19804 0.0
H167 H 0.03997 0.06313 0.2695 0.0
H168 H 0.07326 0.03276 0.23144 0.0
H169 H 0.10905 0.07125 0.03299 0.0
H170 H 0.06298 0.03282 0.06351 0.0
H171 H 0.11593 0.11428 0.14 0.0
H172 H 0.15677 0.15562 0.10806 0.0
H173 H 0.05262 0.08405 0.15137 0.0
H174 H 0.1619 0.01584 0.12165 0.0
H175 H 0.20211 0.98484 0.08841 0.0
H176 H 0.09211 0.90387 0.04946 0.0
H177 H 0.05191 0.93298 0.08366 0.0
C178 C 0.95164 0.94918 0.20413 0.0
C179 C 0.92064 0.9441 0.17662 0.0
C180 C 0.9945 0.95116 0.20299 0.0
C181 C 0.00562 0.94991 0.17424 0.0
C182 C 0.97487 0.93403 0.14894 0.0
C183 C 0.93223 0.93135 0.15009 0.0
C184 C 0.04033 0.97896 0.16666 0.0
C185 C 0.06326 0.96519 0.14625 0.0
C186 C 0.03993 0.02269 0.1702 0.0
C187 C 0.01983 0.04034 0.19302 0.0
C188 C 0.9794 0.05522 0.18372 0.0
C189 C 0.961 0.07276 0.20532 0.0
C190 C 0.98272 0.07544 0.23625 0.0
C191 C 0.02312 0.06093 0.24558 0.0
C192 C 0.04186 0.04377 0.22399 0.0
C193 C 0.10848 0.08262 0.05552 0.0
C194 C 0.13824 0.11465 0.06919 0.0
C195 C 0.08323 0.05978 0.07338 0.0
C196 C 0.0889 0.06831 0.10496 0.0
C197 C 0.11198 0.10578 0.11611 0.0
C198 C 0.13519 0.12982 0.09769 0.0
C199 C 0.0747 0.03688 0.12701 0.0
C200 C 0.05615 0.05089 0.14994 0.0
C201 C 0.08055 0.99353 0.12637 0.0
C202 C 0.10413 0.97654 0.10527 0.0
C203 C 0.1465 0.99127 0.10612 0.0
C204 C 0.1692 0.97412 0.08704 0.0
C205 C 0.1496 0.9428 0.06652 0.0
C206 C 0.10729 0.92818 0.06533 0.0
C207 C 0.08465 0.94472 0.08477 0.0
H208 H 0.16724 0.92975 0.05166 0.0
H209 H 0.96834 0.08894 0.25295 0.0
H210 H 0.11467 0.9433 0.59377 0.0
H211 H 0.12765 0.97578 0.64371 0.0
H212 H 0.9951 -0.00149 0.6279 0.0
H213 H 0.98129 0.96233 0.57909 0.0
H214 H 0.01727 0.95852 0.68159 0.0
H215 H 0.18494 0.03096 0.70041 0.0
H216 H 0.23768 0.06366 0.6719 0.0
H217 H 0.13762 0.11263 0.60273 0.0
H218 H 0.08445 0.08035 0.63093 0.0
H219 H 0.97836 0.14214 0.67961 0.0
H220 H 0.98211 0.07027 0.69842 0.0
H221 H 0.09702 0.10572 0.76551 0.0
H222 H 0.09384 0.17808 0.74581 0.0
H223 H 0.11881 0.07911 0.71948 0.0
H224 H 0.95317 0.96971 0.69027 0.0
H225 H 0.89655 0.94627 0.7173 0.0
H226 H 0.97401 0.991 0.80286 0.0
H227 H 0.03218 0.01377 0.77663 0.0
C228 C 0.08852 0.95651 0.60046 0.0
C229 C 0.04664 0.9485 0.58333 0.0
C230 C 0.09597 0.97478 0.62924 0.0
C231 C 0.06204 0.98807 0.64013 0.0
C232 C 0.02148 0.98683 0.62044 0.0
C233 C 0.01376 0.96719 0.59212 0.0
C234 C 0.06776 0.00207 0.6722 0.0
C235 C 0.03836 0.98583 0.68974 0.0
C236 C 0.09925 0.03367 0.68468 0.0
C237 C 0.13088 0.0529 0.66753 0.0
C238 C 0.17432 0.04872 0.67912 0.0
C239 C 0.20423 0.06714 0.66301 0.0
C240 C 0.19099 0.09008 0.63547 0.0
C241 C 0.14782 0.09472 0.62399 0.0
C242 C 0.1178 0.07633 0.63998 0.0
C243 C 1.0034 0.13494 0.69928 0.0
C244 C 0.03747 0.16453 0.70985 0.0
C245 C 0.00522 0.09368 0.71066 0.0
C246 C 0.04182 0.08191 0.73188 0.0
C247 C 0.06952 0.11374 0.74809 0.0
C248 C 0.06827 0.15496 0.73632 0.0
C249 C 0.06008 0.04387 0.72429 0.0
C250 C 0.09671 0.05215 0.712 0.0
C251 C 0.03338 0.00691 0.71566 0.0
C252 C 0.99792 0.99303 0.73143 0.0
C253 C 0.95896 0.97394 0.71496 0.0
C254 C 0.92629 0.96088 0.73016 0.0
C255 C 0.93181 0.96687 0.76183 0.0
C256 C 0.96995 0.98612 0.77835 0.0
C257 C 1.00283 -0.0009 0.76332 0.0
H258 H 0.90646 0.95677 0.77354 0.0
H259 H 0.2142 0.10434 0.62306 0.0
H260 H 0.72216 0.05239 0.12137 0.0
H261 H 0.65625 0.08695 0.11298 0.0
H262 H 0.58635 0.96725 0.12191 0.0
H263 H 0.6523 0.93236 0.12988 0.0
H264 H 0.55019 0.01195 0.07095 0.0
H265 H 0.60648 0.03762 0.17927 0.0
H266 H 0.66142 0.06296 0.22398 0.0
H267 H 0.65991 0.18796 0.18442 0.0
H268 H 0.60546 0.16323 0.13919 0.0
H269 H 0.35613 0.06358 0.09647 0.0
H270 H 0.42581 0.03989 0.09823 0.0
H271 H 0.47624 0.16792 0.08752 0.0
H272 H 0.40583 0.19208 0.08589 0.0
H273 H 0.52534 0.12612 0.135 0.0
H274 H 0.46424 0.1016 0.02884 0.0
H275 H 0.41084 0.07602 0.98337 0.0
H276 H 0.42183 0.94921 1.01818 0.0
H277 H 0.47476 0.97402 0.06413 0.0
C278 C 0.69278 0.03352 0.12187 0.0
C279 C 0.69211 0.98974 0.1262 0.0
C280 C 0.65523 0.0533 0.11713 0.0
C281 C 0.61654 0.02964 0.11694 0.0
C282 C 0.61597 0.98598 0.12191 0.0
C283 C 0.65355 0.96614 0.12659 0.0
C284 C 0.5764 0.05017 0.11042 0.0
C285 C 0.54449 0.03659 0.08513 0.0
C286 C 0.5699 0.08347 0.12824 0.0
C287 C 0.60219 0.09848 0.15567 0.0
C288 C 0.61809 0.07046 0.17998 0.0
C289 C 0.64912 0.08472 0.20544 0.0
C290 C 0.66422 0.12702 0.207 0.0
C291 C 0.64823 0.15518 0.18315 0.0
C292 C 0.61727 0.14107 0.15761 0.0
C293 C 0.38183 0.08671 0.09395 0.0
C294 C 0.37567 0.12965 0.0909 0.0
C295 C 0.42163 0.07309 0.09489 0.0
C296 C 0.45602 0.10211 0.09264 0.0
C297 C 0.44993 0.14508 0.08914 0.0
C298 C 0.40985 0.15879 0.08813 0.0
C299 C 0.49863 0.08714 0.09596 0.0
C300 C 0.53112 0.10179 0.12059 0.0
C301 C 0.50571 0.0548 0.07751 0.0
C302 C 0.47341 0.03975 0.05004 0.0
C303 C 0.45502 0.06829 0.02695 0.0
C304 C 0.42489 0.05391 1.00105 0.0
C305 C 0.41306 0.01102 0.99785 0.0
C306 C 0.43113 0.98242 1.02064 0.0
C307 C 0.46123 -0.00337 0.04661 0.0
H308 H 0.38989 -7e-05 0.97771 0.0
H309 H 0.68823 0.138 0.22673 0.0
H310 H 0.05877 0.37803 0.65368 0.0
H311 H 0.07135 0.45107 0.63752 0.0
H312 H 0.9377 0.45512 0.59711 0.0
H313 H 0.92515 0.38114 0.61233 0.0
H314 H 0.98509 0.4974 0.56117 0.0
H315 H 0.98073 0.49463 0.66862 0.0
H316 H 1.00037 0.47151 0.7234 0.0
H317 H 0.12992 0.51826 0.72713 0.0
H318 H 0.11118 0.54112 0.67222 0.0
H319 H 0.99591 0.72137 0.55423 0.0
H320 H 0.97743 0.64757 0.56659 0.0
H321 H 0.10943 0.63182 0.60629 0.0
H322 H 0.12796 0.70561 0.59431 0.0
H323 H 0.05842 0.59626 0.6427 0.0
H324 H 0.06295 0.59664 0.5347 0.0
H325 H 0.04323 0.61952 0.47987 0.0
H326 H 0.91274 0.57771 0.47746 0.0
H327 H 0.93163 0.5551 0.53243 0.0
C328 C 0.03214 0.39425 0.64094 0.0
C329 C 0.99095 0.37403 0.63433 0.0
C330 C 0.03932 0.4361 0.63194 0.0
C331 C 0.00532 0.4588 0.61672 0.0
C332 C 0.96434 0.43823 0.60902 0.0
C333 C 0.95719 0.39608 0.61776 0.0
C334 C 0.01261 0.50427 0.60976 0.0
C335 C 1.00053 0.51915 0.57906 0.0
C336 C 0.03332 0.53253 0.63306 0.0
C337 C 0.04459 0.51929 0.66622 0.0
C338 C 0.01346 0.49975 0.68106 0.0
C339 C 0.02443 0.48672 0.71214 0.0
C340 C 0.06639 0.49333 0.72871 0.0
C341 C 0.09744 0.51312 0.71426 0.0
C342 C 0.08665 0.52617 0.68316 0.0
C343 C 0.02093 0.7021 0.5656 0.0
C344 C 0.06338 0.719 0.57321 0.0
C345 C 0.01036 0.65998 0.57254 0.0
C346 C 0.04214 0.63413 0.58704 0.0
C347 C 0.08446 0.65122 0.59504 0.0
C348 C 0.09501 0.69329 0.58812 0.0
C349 C 0.03145 0.58927 0.59407 0.0
C350 C 0.04279 0.57454 0.62483 0.0
C351 C 0.00998 0.56126 0.57086 0.0
C352 C 0.99864 0.57459 0.53776 0.0
C353 C 0.03 0.59263 0.52254 0.0
C354 C 0.01899 0.6055 0.49143 0.0
C355 C 0.97674 0.60018 0.47521 0.0
C356 C 0.94544 0.58187 0.49006 0.0
C357 C 0.95629 0.56899 0.52119 0.0
H358 H 0.96827 0.61017 0.45113 0.0
H359 H 0.07482 0.48319 0.75277 0.0
H360 H 0.06242 0.24623 0.4788 0.0
H361 H 0.07262 0.23399 0.42687 0.0
H362 H 0.20739 0.2318 0.46319 0.0
H363 H 0.19768 0.245 0.51477 0.0
H364 H 0.19162 0.28242 0.4132 0.0
H365 H 0.14366 0.14049 0.43977 0.0
H366 H 0.0944 0.08481 0.45579 0.0
H367 H 0.99602 0.11694 0.3784 0.0
H368 H 0.04466 0.17294 0.36193 0.0
H369 H 0.26454 0.21358 0.28878 0.0
H370 H 0.24469 0.21601 0.33868 0.0
H371 H 0.11236 0.21102 0.29259 0.0
H372 H 0.13218 0.20755 0.24244 0.0
H373 H 0.12112 0.16595 0.34547 0.0
H374 H 0.16864 0.30484 0.31708 0.0
H375 H 0.2173 0.35991 0.29973 0.0
H376 H 0.31418 0.33577 0.38033 0.0
H377 H 0.26628 0.28011 0.39795 0.0
C378 C 0.09426 0.24326 0.47573 0.0
C379 C 0.12922 0.24664 0.50113 0.0
C380 C 0.09997 0.23576 0.44603 0.0
C381 C 0.14078 0.23169 0.44105 0.0
C382 C 0.17557 0.23467 0.4664 0.0
C383 C 0.16989 0.24194 0.49601 0.0
C384 C 0.14804 0.22697 0.40934 0.0
C385 C 0.17656 0.25661 0.39859 0.0
C386 C 0.1272 0.19429 0.38966 0.0
C387 C 0.09767 0.16119 0.39982 0.0
C388 C 0.11142 0.13592 0.42631 0.0
C389 C 0.08366 0.10418 0.43539 0.0
C390 C 0.04202 0.09753 0.41823 0.0
C391 C 0.02817 0.12234 0.39178 0.0
C392 C 0.05587 0.15397 0.3825 0.0
C393 C 0.23119 0.21292 0.28926 0.0
C394 C 0.19998 0.21101 0.26161 0.0
C395 C 0.21984 0.21435 0.31782 0.0
C396 C 0.17702 0.21477 0.31947 0.0
C397 C 0.1456 0.21101 0.29199 0.0
C398 C 0.15697 0.20905 0.26333 0.0
C399 C 0.16558 0.22082 0.34974 0.0
C400 C 0.13609 0.19176 0.36009 0.0
C401 C 0.18521 0.25431 0.36906 0.0
C402 C 0.21397 0.28808 0.35871 0.0
C403 C 0.20041 0.3111 0.33101 0.0
C404 C 0.22784 0.34244 0.32114 0.0
C405 C 0.26883 0.35128 0.33888 0.0
C406 C 0.28243 0.32887 0.36659 0.0
C407 C 0.25513 0.29745 0.37655 0.0
H408 H 0.29004 0.37554 0.33119 0.0
H409 H 0.02052 0.07312 0.4254 0.0
H410 H 0.94879 0.22672 0.85649 0.0
H411 H 0.94024 0.20359 0.90851 0.0
H412 H 0.84655 0.10532 0.86888 0.0
H413 H 0.85459 0.12855 0.8171 0.0
H414 H 0.81831 0.14292 0.90979 0.0
H415 H 0.95097 0.0917 0.90559 0.0
H416 H 0.02573 0.09288 0.9017 0.0
H417 H 0.06414 0.16763 0.98257 0.0
H418 H 0.98942 0.16796 0.9865 0.0
H419 H 0.81219 -0.00362 0.03256 0.0
H420 H 0.82899 0.03272 0.98675 0.0
H421 H 0.88694 0.13903 0.04133 0.0
H422 H 0.86948 0.1028 0.08787 0.0
H423 H 0.93548 0.10612 0.99681 0.0
H424 H 0.80124 0.15604 1.00018 0.0
H425 H 0.72675 0.14827 1.00557 0.0
H426 H 0.69285 0.06995 0.92641 0.0
H427 H 0.76731 0.07673 0.92083 0.0
C428 C 0.92666 0.19994 0.85893 0.0
C429 C 0.90214 0.17969 0.83257 0.0
C430 C 0.92179 0.18672 0.88871 0.0
C431 C 0.89275 0.15258 0.89279 0.0
C432 C 0.86888 0.13195 0.86647 0.0
C433 C 0.87347 0.14532 0.8368 0.0
C434 C 0.88591 0.13875 0.92414 0.0
C435 C 0.84409 0.13474 0.92867 0.0
C436 C 0.91952 0.12901 0.94929 0.0
C437 C 0.96435 0.13029 0.94611 0.0
C438 C 0.97518 0.10904 0.92225 0.0
C439 C 0.01761 0.1094 0.92005 0.0
C440 C 0.0496 0.13038 0.94185 0.0
C441 C 0.03926 0.15144 0.96569 0.0
C442 C 0.99686 0.15145 0.96786 0.0
C443 C 0.82846 0.02754 0.03505 0.0
C444 C 0.83933 0.04673 0.06401 0.0
C445 C 0.83803 0.04826 1.00871 0.0
C446 C 0.85913 0.08856 1.01058 0.0
C447 C 0.87064 0.10787 0.03943 0.0
C448 C 0.86041 0.08728 0.06592 0.0
C449 C 0.86815 0.11008 0.98194 0.0
C450 C 0.91011 0.11521 0.97793 0.0
C451 C 0.83481 0.12057 0.9571 0.0
C452 C 0.78993 0.11664 0.96025 0.0
C453 C 0.77798 0.13687 0.98408 0.0
C454 C 0.73574 0.1327 0.98714 0.0
C455 C 0.7051 0.10856 0.96638 0.0
C456 C 0.71662 0.08862 0.94248 0.0
C457 C 0.75883 0.09266 0.93934 0.0
H458 H 0.67242 0.10538 0.96879 0.0
H459 H 0.08241 0.13007 0.9404 0.0
H460 H 0.92547 0.78741 0.47885 0.0
H461 H 0.88365 0.79119 0.42558 0.0
H462 H 0.97569 0.88646 0.40248 0.0
H463 H 0.01807 0.88188 0.45498 0.0
H464 H 0.8442 0.85111 0.39208 0.0
H465 H 0.98514 0.88291 0.33096 0.0
H466 H 0.0591 0.86454 0.33798 0.0
H467 H 0.02946 0.75137 0.38762 0.0
H468 H 0.9553 0.76884 0.38066 0.0
H469 H 0.78997 0.95627 0.24733 0.0
H470 H 0.81637 0.92914 0.29944 0.0
H471 H 0.84562 0.81588 0.26253 0.0
H472 H 0.82047 0.84358 0.20992 0.0
H473 H 0.91151 0.84575 0.30222 0.0
H474 H 0.76531 0.81699 0.30505 0.0
H475 H 0.69048 0.8322 0.29813 0.0
H476 H 0.72723 0.92996 0.36417 0.0
H477 H 0.80234 0.91572 0.3712 0.0
C478 C 0.93687 0.80896 0.46234 0.0
C479 C 0.97528 0.83408 0.47113 0.0
C480 C 0.9129 0.81116 0.43192 0.0
C481 C 0.92685 0.83857 0.4098 0.0
C482 C 0.96476 0.86423 0.4188 0.0
C483 C 0.9889 0.86171 0.44898 0.0
C484 C 0.90162 0.84126 0.37746 0.0
C485 C 0.85878 0.84957 0.3724 0.0
C486 C 0.92036 0.83848 0.35169 0.0
C487 C 0.9647 0.82727 0.35535 0.0
C488 C 0.99434 0.85395 0.34315 0.0
C489 C 0.03631 0.84376 0.34719 0.0
C490 C 0.04895 0.80683 0.36323 0.0
C491 C 0.01964 0.78 0.37524 0.0
C492 C 0.97766 0.79005 0.3713 0.0
C493 C 0.80097 0.9251 0.25014 0.0
C494 C 0.8032 0.90219 0.2243 0.0
C495 C 0.81601 0.90952 0.28013 0.0
C496 C 0.83287 0.8703 0.28506 0.0
C497 C 0.83286 0.84626 0.25934 0.0
C498 C 0.81817 0.86203 0.22925 0.0
C499 C 0.85422 0.85657 0.31679 0.0
C500 C 0.89654 0.84647 0.32178 0.0
C501 C 0.83475 0.85704 0.34242 0.0
C502 C 0.78951 0.86538 0.33854 0.0
C503 C 0.75747 0.84187 0.31799 0.0
C504 C 0.71499 0.8503 0.31406 0.0
C505 C 0.70412 0.88205 0.33067 0.0
C506 C 0.73569 0.90536 0.35132 0.0
C507 C 0.77822 0.89706 0.35534 0.0
H508 H 0.67122 0.88856 0.32757 0.0
H509 H 0.08142 0.79895 0.36632 0.0
H510 H 0.17364 0.90351 0.64288 0.0
H511 H 0.1984 0.93312 0.69429 0.0
H512 H 0.10561 0.84993 0.72864 0.0
H513 H 0.08002 0.8211 0.67728 0.0
H514 H 0.10585 0.92547 0.74973 0.0
H515 H 0.215 0.83387 0.74425 0.0
H516 H 0.27019 0.80773 0.72134 0.0
H517 H 0.33932 0.92915 0.72973 0.0
H518 H 0.28425 0.95613 0.75237 0.0
H519 H 0.18223 0.92545 0.91095 0.0
H520 H 0.16381 0.90552 0.85685 0.0
H521 H 0.25362 0.00363 0.83466 0.0
H522 H 0.2723 0.02389 0.889 0.0
H523 H 0.25687 0.92924 0.80565 0.0
H524 H 0.14988 0.01939 0.81445 0.0
H525 H 0.09981 0.0419 0.84383 0.0
H526 H 0.02931 0.92136 0.83224 0.0
H527 H 0.07881 0.89816 0.80268 0.0
C528 C 0.15906 0.8909 0.66151 0.0
C529 C 0.12512 0.8595 0.65588 0.0
C530 C 0.17314 0.90805 0.69095 0.0
C531 C 0.15417 0.89365 0.71562 0.0
C532 C 0.12077 0.86181 0.71011 0.0
C533 C 0.10644 0.84499 0.68069 0.0
C534 C 0.16891 0.91136 0.74721 0.0
C535 C 0.13886 0.92597 0.76191 0.0
C536 C 0.21214 0.91335 0.76312 0.0
C537 C 0.24533 0.8971 0.7497 0.0
C538 C 0.24185 0.85504 0.74102 0.0
C539 C 0.27312 0.84007 0.72812 0.0
C540 C 0.30818 0.86679 0.724 0.0
C541 C 0.31211 0.90851 0.73288 0.0
C542 C 0.28091 0.92365 0.74577 0.0
C543 C 0.19794 0.94304 0.8946 0.0
C544 C 0.22859 0.97649 0.90442 0.0
C545 C 0.18743 0.93151 0.86362 0.0
C546 C 0.20691 0.95337 0.8415 0.0
C547 C 0.23818 0.98623 0.85125 0.0
C548 C 0.24888 -0.00229 0.88237 0.0
C549 C 0.19375 0.94218 0.80822 0.0
C550 C 0.22401 0.9291 0.79321 0.0
C551 C 0.15082 0.94162 0.79201 0.0
C552 C 0.11814 0.95699 0.80649 0.0
C553 C 0.12346 -0.00219 0.81796 0.0
C554 C 0.09529 0.01063 0.83476 0.0
C555 C 0.06152 0.98297 0.84007 0.0
C556 C 0.05546 0.94271 0.82813 0.0
C557 C 0.08341 0.92979 0.81118 0.0
H558 H 0.03982 0.99289 0.85316 0.0
H559 H 0.33235 0.85514 0.714 0.0
H560 H 0.92598 0.87591 0.98653 0.0
H561 H 0.94549 0.8736 0.93629 0.0
H562 H 0.81346 0.87418 0.89023 0.0
H563 H 0.79385 0.87576 0.94029 0.0
H564 H 0.84877 0.81637 0.86711 0.0
H565 H 0.88924 0.9622 0.89265 0.0
H566 H 0.92831 0.01767 0.92714 0.0
H567 H 0.04682 0.97252 0.9208 0.0
H568 H 0.00842 0.91613 0.88693 0.0
H569 H 0.86697 0.84804 0.71305 0.0
H570 H 0.85383 0.86016 0.76384 0.0
H571 H 0.98774 0.85931 0.80401 0.0
H572 H 1.00152 0.84945 0.75277 0.0
H573 H 0.95426 0.91721 0.83082 0.0
H574 H 0.91846 0.77187 0.80835 0.0
H575 H 0.88297 0.71141 0.77757 0.0
H576 H 0.76106 0.75114 0.78089 0.0
H577 H 0.79584 0.8122 0.81135 0.0
C578 C 0.90119 0.87598 0.96566 0.0
C579 C 0.85833 0.87582 0.96745 0.0
C580 C 0.91238 0.87473 0.9369 0.0
C581 C 0.88101 0.87408 0.90928 0.0
C582 C 0.83829 0.87451 0.91111 0.0
C583 C 0.82709 0.87533 0.93978 0.0
C584 C 0.8921 0.87131 0.87848 0.0
C585 C 0.87149 0.83879 0.8591 0.0
C586 C 0.92288 0.8996 0.86827 0.0
C587 C 0.94592 0.93466 0.88751 0.0
C588 C 0.92362 0.964 0.89871 0.0
C589 C 0.94566 -0.00443 0.91819 0.0
C590 C 0.99002 -0.00155 0.92629 0.0
C591 C 0.01245 0.97011 0.91464 0.0
C592 C 0.99057 0.93834 0.8953 0.0
C593 C 0.89384 0.8512 0.7325 0.0
C594 C 0.93532 0.84731 0.7287 0.0
C595 C 0.88617 0.85769 0.7617 0.0
C596 C 0.91964 0.85977 0.788 0.0
C597 C 0.96131 0.85759 0.78418 0.0
C598 C 0.96908 0.85142 0.75487 0.0
C599 C 0.91074 0.86242 0.81949 0.0
C600 C 0.93171 0.89479 0.83894 0.0
C601 C 0.88078 0.8336 0.83008 0.0
C602 C 0.85976 0.79681 0.81188 0.0
C603 C 0.88408 0.76788 0.80233 0.0
C604 C 0.8641 0.73348 0.78497 0.0
C605 C 0.81979 0.72749 0.77722 0.0
C606 C 0.79537 0.75585 0.78688 0.0
C607 C 0.81521 0.79034 0.80421 0.0
H608 H 0.80437 0.70084 0.76378 0.0
H609 H 0.00703 0.02257 0.94166 0.0
H610 H 0.241 0.10125 0.19127 0.0
H611 H 0.2229 0.06318 0.23571 0.0
H612 H 0.22042 0.94596 0.19128 0.0
H613 H 0.23969 0.98424 0.14604 0.0
H614 H 0.14568 0.96123 0.22383 0.0
H615 H 0.29718 0.95651 0.24163 0.0
H616 H 0.37043 0.98645 0.24286 0.0
H617 H 0.35915 0.07587 0.30916 0.0
H618 H 0.28556 0.04685 0.30796 0.0
H619 H 0.14277 0.85468 0.37163 0.0
H620 H 0.15645 0.87527 0.32052 0.0
H621 H 0.1972 0.00092 0.35169 0.0
H622 H 0.18413 0.9805 0.40277 0.0
H623 H 0.25327 0.97086 0.32276 0.0
H624 H 0.10141 0.98037 0.30214 0.0
H625 H 0.02811 0.95166 0.3023 0.0
H626 H 0.03949 0.85396 0.24232 0.0
H627 H 0.11302 0.88194 0.24199 0.0
C628 C 0.23679 0.06736 0.19059 0.0
C629 C 0.24166 0.04595 0.16468 0.0
C630 C 0.22618 0.04563 0.21618 0.0
C631 C 0.21995 0.0018 0.21676 0.0
C632 C 0.22472 0.9799 0.19114 0.0
C633 C 0.23605 0.00179 0.16543 0.0
C634 C 0.21078 0.97991 0.24524 0.0
C635 C 0.16943 0.96227 0.24535 0.0
C636 C 0.24138 0.98238 0.27346 0.0
C637 C 0.28577 -0.00032 0.27453 0.0
C638 C 0.31021 0.98277 0.25629 0.0
C639 C 0.35181 -0.00047 0.25701 0.0
C640 C 0.36941 0.03309 0.27604 0.0
C641 C 0.34547 0.04988 0.29443 0.0
C642 C 0.30383 0.03325 0.29377 0.0
C643 C 0.15455 0.88672 0.36759 0.0
C644 C 0.16218 0.91593 0.39139 0.0
C645 C 0.16211 0.89852 0.33826 0.0
C646 C 0.17772 0.93974 0.33214 0.0
C647 C 0.18511 0.96896 0.35579 0.0
C648 C 0.17727 0.95729 0.38497 0.0
C649 C 0.18807 0.95235 0.30162 0.0
C650 C 0.22965 0.96877 0.3012 0.0
C651 C 0.15761 0.94871 0.27326 0.0
C652 C 0.11288 0.9329 0.27238 0.0
C653 C 0.08834 0.95263 0.28912 0.0
C654 C 0.04678 0.93649 0.28925 0.0
C655 C 0.02931 0.90075 0.27258 0.0
C656 C 0.05319 0.88142 0.25542 0.0
C657 C 0.09475 0.89751 0.25516 0.0
H658 H 0.99711 0.8883 0.27269 0.0
H659 H 0.40162 0.04603 0.27656 0.0
H660 H 0.02843 0.29535 0.77748 0.0
H661 H 0.06904 0.28695 0.83075 0.0
H662 H 0.18449 0.28773 0.79749 0.0
H663 H 0.14443 0.29724 0.74426 0.0
H664 H 0.15001 0.21022 0.83609 0.0
H665 H 0.19217 0.35974 0.83357 0.0
H666 H 0.17688 0.43391 0.82511 0.0
H667 H 0.10244 0.42092 0.89458 0.0
H668 H 0.11674 0.34643 0.90309 0.0
H669 H 0.28287 0.16861 0.98096 0.0
H670 H 0.25722 0.19807 0.929 0.0
H671 H 0.16503 0.26168 0.96247 0.0
H672 H 0.19175 0.23375 1.01463 0.0
H673 H 0.19105 0.30972 0.92212 0.0
H674 H 0.14395 0.1655 0.92607 0.0
H675 H 0.14416 0.08852 0.9321 0.0
H676 H 0.21245 0.0867 0.85955 0.0
H677 H 0.21348 0.16376 0.85354 0.0
C678 C 0.06264 0.29499 0.7816 0.0
C679 C 0.08328 0.29705 0.75673 0.0
C680 C 0.08572 0.29018 0.81199 0.0
C681 C 0.12963 0.28676 0.81787 0.0
C682 C 0.15062 0.29061 0.79328 0.0
C683 C 0.1277 0.2963 0.76294 0.0
C684 C 0.15256 0.27428 0.84914 0.0
C685 C 0.16 0.23196 0.85489 0.0
C686 C 0.16344 0.30256 0.87363 0.0
C687 C 0.15516 0.3474 0.86872 0.0
C688 C 0.17219 0.37258 0.84681 0.0
C689 C 0.16378 0.41471 0.84206 0.0
C690 C 0.13861 0.43209 0.85923 0.0
C691 C 0.1219 0.4074 0.88127 0.0
C692 C 0.13017 0.36524 0.88608 0.0
C693 C 0.25762 0.18948 0.97732 0.0
C694 C 0.23924 0.19878 1.00187 0.0
C695 C 0.24276 0.20605 0.94755 0.0
C696 C 0.2085 0.23137 0.94158 0.0
C697 C 0.19144 0.2422 0.9664 0.0
C698 C 0.2068 0.22624 0.99627 0.0
C699 C 0.18926 0.24522 0.90942 0.0
C700 C 0.18201 0.28778 0.90343 0.0
C701 C 0.17738 0.21673 0.88478 0.0
C702 C 0.17918 0.17058 0.88963 0.0
C703 C 0.15956 0.14877 0.91173 0.0
C704 C 0.15937 0.10512 0.91509 0.0
C705 C 0.1783 0.08279 0.89622 0.0
C706 C 0.19787 0.10408 0.87419 0.0
C707 C 0.19834 0.14777 0.87085 0.0
H708 H 0.17748 0.04899 0.8985 0.0
H709 H 0.13213 0.46471 0.85552 0.0
H710 H 0.79612 0.09078 0.33274 0.0
H711 H 0.81434 0.10753 0.38767 0.0
H712 H 0.93664 0.16418 0.37706 0.0
H713 H 0.91919 0.14569 0.32247 0.0
H714 H 0.94753 0.12254 0.42898 0.0
H715 H 0.84957 0.22247 0.38118 0.0
H716 H 0.78252 0.24604 0.3499 0.0
H717 H 0.71309 0.17872 0.41159 0.0
H718 H 0.77972 0.1543 0.44302 0.0
H719 H 0.00461 0.25105 0.55694 0.0
H720 H 0.9796 0.22506 0.5051 0.0
H721 H 0.8709 0.15869 0.53214 0.0
H722 H 0.89587 0.18522 0.58492 0.0
H723 H 0.85045 0.19929 0.47425 0.0
H724 H 0.95181 0.10307 0.52372 0.0
H725 H 0.02078 0.08571 0.55601 0.0
H726 H 0.08574 0.15251 0.49152 0.0
H727 H 0.01713 0.17023 0.45873 0.0
C728 C 0.82687 0.10684 0.34216 0.0
C729 C 0.85613 0.11709 0.32323 0.0
C730 C 0.83726 0.11655 0.37359 0.0
C731 C 0.87673 0.13775 0.38665 0.0
C732 C 0.90609 0.14766 0.36775 0.0
C733 C 0.89604 0.1372 0.33648 0.0
C734 C 0.88742 0.1499 0.41986 0.0
C735 C 0.92633 0.13958 0.43869 0.0
C736 C 0.85963 0.17148 0.43306 0.0
C737 C 0.81956 0.18618 0.41424 0.0
C738 C 0.81996 0.21244 0.38794 0.0
C739 C 0.78205 0.22599 0.3702 0.0
C740 C 0.74355 0.21378 0.3787 0.0
C741 C 0.74292 0.18809 0.405 0.0
C742 C 0.78075 0.1744 0.4228 0.0
C743 C 0.97532 0.23093 0.55216 0.0
C744 C 0.95249 0.21995 0.57543 0.0
C745 C 0.96112 0.21594 0.52233 0.0
C746 C 0.92383 0.18918 0.51478 0.0
C747 C 0.9 0.17906 0.53752 0.0
C748 C 0.91427 0.19424 0.56766 0.0
C749 C 0.9104 0.17215 0.48304 0.0
C750 C 0.8712 0.18169 0.46452 0.0
C751 C 0.93807 0.15028 0.47003 0.0
C752 C 0.97932 0.13811 0.48885 0.0
C753 C 0.98081 0.11403 0.5164 0.0
C754 C 0.01982 0.10411 0.53476 0.0
C755 C 0.0576 0.11807 0.5258 0.0
C756 C 0.05641 0.14172 0.49836 0.0
C757 C 0.01746 0.15154 0.4798 0.0
H758 H 0.08778 0.11055 0.54012 0.0
H759 H 0.71423 0.22431 0.36494 0.0
loop_
_geom_bond_atom_site_label_1
_geom_bond_atom_site_label_2
_geom_bond_distance
_geom_bond_site_symmetry_2
_ccdc_geom_bond_type
Gd0 C3 2.818 . S
Gd0 O20 2.377 . S
Gd0 O22 2.448 . S
Gd0 O23 2.506 . S
Gd0 O24 2.435 . S
Gd0 O25 2.717 . S
Gd0 O27 2.395 . S
Gd0 O31 2.327 . S
Gd1 C12 2.818 1_554 S
Gd1 O21 2.395 . S
Gd1 O25 2.327 . S
Gd1 O26 2.377 . S
Gd1 O28 2.447 1_545 S
Gd1 O29 2.506 . S
Gd1 O30 2.435 . S
Gd1 O31 2.717 . S
C2 O20 1.240 . S
C2 O21 1.240 . S
C3 Gd0 2.818 . S
C3 C4 1.510 . S
C3 O22 1.249 . S
C3 O23 1.252 . S
C4 C3 1.510 . S
C4 C5 1.404 . S
C4 C6 1.352 . S
C5 C4 1.404 . S
C5 C9 1.389 . S
C5 H32 0.930 . S
C6 C4 1.352 . S
C6 C8 1.374 . S
C6 H33 0.931 . S
C7 C8 1.359 . S
C7 C9 1.364 . S
C8 C6 1.374 . S
C8 C7 1.359 . S
C8 H34 0.931 . S
C9 C5 1.389 . S
C9 C7 1.364 . S
C9 H35 0.931 . S
C10 O24 1.256 . S
C10 O25 1.257 . S
C11 O26 1.240 . S
C11 O27 1.240 . S
C12 Gd1 2.818 1_556 S
C12 C13 1.510 1_545 S
C12 O28 1.248 1_546 S
C12 O29 1.252 1_556 S
C13 C12 1.510 1_565 S
C13 C14 1.404 . S
C13 C15 1.352 1_565 S
C14 C13 1.404 . S
C14 C18 1.389 . S
C14 H36 0.930 . S
C15 C13 1.352 1_545 S
C15 C17 1.374 1_545 S
C15 H37 0.931 . S
C16 C17 1.359 . S
C16 C18 1.364 . S
C17 C15 1.374 1_565 S
C17 C16 1.359 . S
C17 H38 0.931 . S
C18 C14 1.389 . S
C18 C16 1.364 . S
C18 H39 0.931 . S
C19 O30 1.256 . S
C19 O31 1.257 . S
O20 Gd0 2.377 . S
O20 C2 1.240 . S
O21 Gd1 2.395 . S
O21 C2 1.240 . S
O22 Gd0 2.448 . S
O22 C3 1.249 . S
O23 Gd0 2.506 . S
O23 C3 1.252 . S
O24 Gd0 2.435 . S
O24 C10 1.256 . S
O25 Gd0 2.717 . S
O25 Gd1 2.327 . S
O25 C10 1.257 . S
O26 Gd1 2.377 . S
O26 C11 1.240 . S
O27 Gd0 2.395 . S
O27 C11 1.240 . S
O28 Gd1 2.447 1_565 S
O28 C12 1.248 1_564 S
O29 Gd1 2.506 . S
O29 C12 1.252 1_554 S
O30 Gd1 2.435 . S
O30 C19 1.256 . S
O31 Gd0 2.327 . S
O31 Gd1 2.717 . S
O31 C19 1.257 . S
H32 C5 0.930 . S
H33 C6 0.931 . S
H34 C8 0.931 . S
H35 C9 0.931 . S
H36 C14 0.930 . S
H37 C15 0.931 . S
H38 C17 0.931 . S
H39 C18 0.931 . S
Gd40 C43 2.818 . S
Gd40 O60 2.377 1_655 S
Gd40 O62 2.448 . S
Gd40 O63 2.506 . S
Gd40 O64 2.435 . S
Gd40 O65 2.717 1_655 S
Gd40 O67 2.395 . S
Gd40 O71 2.327 1_655 S
Gd41 C52 2.818 . S
Gd41 O61 2.395 . S
Gd41 O65 2.327 . S
Gd41 O66 2.377 . S
Gd41 O68 2.448 . S
Gd41 O69 2.506 . S
Gd41 O70 2.435 . S
Gd41 O71 2.717 . S
C42 O60 1.240 . S
C42 O61 1.240 . S
C43 Gd40 2.818 . S
C43 C44 1.510 . S
C43 O62 1.249 . S
C43 O63 1.252 . S
C44 C43 1.510 . S
C44 C45 1.404 . S
C44 C46 1.352 . S
C45 C44 1.404 . S
C45 C49 1.389 . S
C45 H72 0.930 . S
C46 C44 1.352 . S
C46 C48 1.374 . S
C46 H73 0.931 . S
C47 C48 1.359 . S
C47 C49 1.364 . S
C48 C46 1.374 . S
C48 C47 1.359 . S
C48 H74 0.931 . S
C49 C45 1.389 . S
C49 C47 1.364 . S
C49 H75 0.931 . S
C50 O64 1.256 1_455 S
C50 O65 1.257 . S
C51 O66 1.240 1_655 S
C51 O67 1.240 . S
C52 Gd41 2.818 . S
C52 C53 1.510 . S
C52 O68 1.249 . S
C52 O69 1.252 . S
C53 C52 1.510 . S
C53 C54 1.404 . S
C53 C55 1.352 . S
C54 C53 1.404 . S
C54 C58 1.389 . S
C54 H76 0.930 . S
C55 C53 1.352 . S
C55 C57 1.374 . S
C55 H77 0.931 . S
C56 C57 1.359 . S
C56 C58 1.364 . S
C57 C55 1.374 . S
C57 C56 1.359 . S
C57 H78 0.931 . S
C58 C54 1.389 . S
C58 C56 1.364 . S
C58 H79 0.931 . S
C59 O70 1.256 . S
C59 O71 1.257 . S
O60 Gd40 2.377 1_455 S
O60 C42 1.240 . S
O61 Gd41 2.395 . S
O61 C42 1.240 . S
O62 Gd40 2.448 . S
O62 C43 1.249 . S
O63 Gd40 2.506 . S
O63 C43 1.252 . S
O64 Gd40 2.435 . S
O64 C50 1.256 1_655 S
O65 Gd40 2.717 1_455 S
O65 Gd41 2.327 . S
O65 C50 1.257 . S
O66 Gd41 2.377 . S
O66 C51 1.240 1_455 S
O67 Gd40 2.395 . S
O67 C51 1.240 . S
O68 Gd41 2.448 . S
O68 C52 1.249 . S
O69 Gd41 2.506 . S
O69 C52 1.252 . S
O70 Gd41 2.435 . S
O70 C59 1.256 . S
O71 Gd40 2.327 1_455 S
O71 Gd41 2.717 . S
O71 C59 1.257 . S
H72 C45 0.930 . S
H73 C46 0.931 . S
H74 C48 0.931 . S
H75 C49 0.931 . S
H76 C54 0.930 . S
H77 C55 0.931 . S
H78 C57 0.931 . S
H79 C58 0.931 . S
Gd80 C83 2.818 . S
Gd80 O100 2.377 . S
Gd80 O102 2.448 . S
Gd80 O103 2.506 . S
Gd80 O104 2.435 . S
Gd80 O105 2.717 . S
Gd80 O107 2.395 . S
Gd80 O111 2.327 . S
Gd81 C92 2.818 . S
Gd81 O101 2.395 . S
Gd81 O105 2.327 1_565 S
Gd81 O106 2.377 1_565 S
Gd81 O108 2.448 . S
Gd81 O109 2.506 . S
Gd81 O110 2.435 . S
Gd81 O111 2.717 1_565 S
C82 O100 1.240 1_565 S
C82 O101 1.240 . S
C83 Gd80 2.818 . S
C83 C84 1.510 . S
C83 O102 1.249 . S
C83 O103 1.252 . S
C84 C83 1.510 . S
C84 C85 1.404 . S
C84 C86 1.352 . S
C85 C84 1.404 . S
C85 C89 1.389 . S
C85 H112 0.930 . S
C86 C84 1.352 . S
C86 C88 1.374 . S
C86 H113 0.931 . S
C87 C88 1.359 . S
C87 C89 1.364 . S
C88 C86 1.374 . S
C88 C87 1.359 . S
C88 H114 0.931 . S
C89 C85 1.389 . S
C89 C87 1.364 . S
C89 H115 0.931 . S
C90 O104 1.256 . S
C90 O105 1.257 . S
C91 O106 1.240 . S
C91 O107 1.240 . S
C92 Gd81 2.818 . S
C92 C93 1.510 . S
C92 O108 1.249 . S
C92 O109 1.252 . S
C93 C92 1.510 . S
C93 C94 1.404 1_554 S
C93 C95 1.352 1_554 S
C94 C93 1.404 1_556 S
C94 C98 1.389 . S
C94 H116 0.930 1_556 S
C95 C93 1.352 1_556 S
C95 C97 1.374 . S
C95 H117 0.931 1_556 S
C96 C97 1.359 . S
C96 C98 1.364 . S
C97 C95 1.374 . S
C97 C96 1.359 . S
C97 H118 0.931 . S
C98 C94 1.389 . S
C98 C96 1.364 . S
C98 H119 0.931 . S
C99 O110 1.256 1_545 S
C99 O111 1.257 . S
O100 Gd80 2.377 . S
O100 C82 1.240 1_545 S
O101 Gd81 2.395 . S
O101 C82 1.240 . S
O102 Gd80 2.448 . S
O102 C83 1.249 . S
O103 Gd80 2.506 . S
O103 C83 1.252 . S
O104 Gd80 2.435 . S
O104 C90 1.256 . S
O105 Gd80 2.717 . S
O105 Gd81 2.327 1_545 S
O105 C90 1.257 . S
O106 Gd81 2.377 1_545 S
O106 C91 1.240 . S
O107 Gd80 2.395 . S
O107 C91 1.240 . S
O108 Gd81 2.448 . S
O108 C92 1.249 . S
O109 Gd81 2.506 . S
O109 C92 1.252 . S
O110 Gd81 2.435 . S
O110 C99 1.256 1_565 S
O111 Gd80 2.327 . S
O111 Gd81 2.717 1_545 S
O111 C99 1.257 . S
H112 C85 0.930 . S
H113 C86 0.931 . S
H114 C88 0.931 . S
H115 C89 0.931 . S
H116 C94 0.930 1_554 S
H117 C95 0.931 1_554 S
H118 C97 0.931 . S
H119 C98 0.931 . S
Gd120 C123 2.818 . S
Gd120 O140 2.377 1_655 S
Gd120 O142 2.448 . S
Gd120 O143 2.506 . S
Gd120 O144 2.435 . S
Gd120 O145 2.717 1_655 S
Gd120 O147 2.395 . S
Gd120 O151 2.327 1_655 S
Gd121 C132 2.818 . S
Gd121 O141 2.395 . S
Gd121 O145 2.327 . S
Gd121 O146 2.377 . S
Gd121 O148 2.448 . S
Gd121 O149 2.506 . S
Gd121 O150 2.435 . S
Gd121 O151 2.717 . S
C122 O140 1.240 . S
C122 O141 1.240 . S
C123 Gd120 2.818 . S
C123 C124 1.510 . S
C123 O142 1.249 . S
C123 O143 1.252 . S
C124 C123 1.510 . S
C124 C125 1.404 . S
C124 C126 1.352 . S
C125 C124 1.404 . S
C125 C129 1.389 . S
C125 H152 0.930 . S
C126 C124 1.352 . S
C126 C128 1.374 . S
C126 H153 0.931 . S
C127 C128 1.359 . S
C127 C129 1.364 . S
C128 C126 1.374 . S
C128 C127 1.359 . S
C128 H154 0.931 . S
C129 C125 1.389 . S
C129 C127 1.364 . S
C129 H155 0.931 . S
C130 O144 1.256 1_455 S
C130 O145 1.257 . S
C131 O146 1.240 1_655 S
C131 O147 1.240 . S
C132 Gd121 2.818 . S
C132 C133 1.510 . S
C132 O148 1.249 . S
C132 O149 1.252 . S
C133 C132 1.510 . S
C133 C134 1.404 . S
C133 C135 1.352 . S
C134 C133 1.404 . S
C134 C138 1.389 . S
C134 H156 0.930 . S
C135 C133 1.352 . S
C135 C137 1.374 . S
C135 H157 0.931 . S
C136 C137 1.359 . S
C136 C138 1.364 . S
C137 C135 1.374 . S
C137 C136 1.359 . S
C137 H158 0.931 . S
C138 C134 1.389 . S
C138 C136 1.364 . S
C138 H159 0.931 . S
C139 O150 1.256 . S
C139 O151 1.257 . S
O140 Gd120 2.377 1_455 S
O140 C122 1.240 . S
O141 Gd121 2.395 . S
O141 C122 1.240 . S
O142 Gd120 2.448 . S
O142 C123 1.249 . S
O143 Gd120 2.506 . S
O143 C123 1.252 . S
O144 Gd120 2.435 . S
O144 C130 1.256 1_655 S
O145 Gd120 2.717 1_455 S
O145 Gd121 2.327 . S
O145 C130 1.257 . S
O146 Gd121 2.377 . S
O146 C131 1.240 1_455 S
O147 Gd120 2.395 . S
O147 C131 1.240 . S
O148 Gd121 2.448 . S
O148 C132 1.249 . S
O149 Gd121 2.506 . S
O149 C132 1.252 . S
O150 Gd121 2.435 . S
O150 C139 1.256 . S
O151 Gd120 2.327 1_455 S
O151 Gd121 2.717 . S
O151 C139 1.257 . S
H152 C125 0.930 . S
H153 C126 0.931 . S
H154 C128 0.931 . S
H155 C129 0.931 . S
H156 C134 0.930 . S
H157 C135 0.931 . S
H158 C137 0.931 . S
H159 C138 0.931 . S
H160 C178 0.951 1_565 S
H161 C180 0.951 . S
H162 C182 0.950 . S
H163 C183 0.950 . S
H164 C185 0.950 . S
H165 C188 0.950 . S
H166 C189 0.950 . S
H167 C191 0.950 . S
H168 C192 0.950 . S
H169 C193 0.951 . S
H170 C195 0.951 . S
H171 C197 0.950 . S
H172 C198 0.950 . S
H173 C200 0.950 . S
H174 C203 0.950 . S
H175 C204 0.950 . S
H176 C206 0.950 1_655 S
H177 C207 0.950 1_655 S
C178 H160 0.951 1_545 S
C178 C179 1.366 . S
C178 C180 1.388 . S
C179 C178 1.366 . S
C179 C183 1.385 . S
C180 H161 0.951 . S
C180 C178 1.388 . S
C180 C181 1.366 . S
C181 C180 1.366 . S
C181 C182 1.414 . S
C181 C184 1.499 . S
C182 H162 0.950 . S
C182 C181 1.414 . S
C182 C183 1.374 . S
C183 H163 0.950 . S
C183 C179 1.385 . S
C183 C182 1.374 . S
C184 C181 1.499 . S
C184 C185 1.373 . S
C184 C186 1.389 1_655 S
C185 H164 0.950 . S
C185 C184 1.373 . S
C185 C201 1.377 1_655 S
C186 C184 1.389 1_455 S
C186 C187 1.524 . S
C186 C200 1.377 . S
C187 C186 1.524 . S
C187 C188 1.397 1_455 S
C187 C192 1.363 . S
C188 H165 0.950 . S
C188 C187 1.397 1_655 S
C188 C189 1.334 . S
C189 H166 0.950 . S
C189 C188 1.334 . S
C189 C190 1.287 1_655 S
C190 C189 1.287 1_455 S
C190 C191 1.524 . S
C190 H209 0.913 . S
C191 H167 0.950 . S
C191 C190 1.524 . S
C191 C192 1.415 . S
C192 H168 0.950 . S
C192 C187 1.363 . S
C192 C191 1.415 . S
C193 H169 0.951 . S
C193 C194 1.366 . S
C193 C195 1.388 . S
C194 C193 1.366 . S
C194 C198 1.385 . S
C195 H170 0.951 . S
C195 C193 1.388 . S
C195 C196 1.366 . S
C196 C195 1.366 . S
C196 C197 1.414 . S
C196 C199 1.499 . S
C197 H171 0.950 . S
C197 C196 1.414 . S
C197 C198 1.374 . S
C198 H172 0.950 . S
C198 C194 1.385 . S
C198 C197 1.374 . S
C199 C196 1.499 . S
C199 C200 1.373 . S
C199 C201 1.389 . S
C200 H173 0.950 . S
C200 C186 1.377 . S
C200 C199 1.373 . S
C201 C185 1.377 1_455 S
C201 C199 1.389 . S
C201 C202 1.524 . S
C202 C201 1.524 . S
C202 C203 1.397 1_545 S
C202 C207 1.363 . S
C203 H174 0.950 . S
C203 C202 1.397 1_565 S
C203 C204 1.334 . S
C204 H175 0.950 . S
C204 C203 1.334 . S
C204 C205 1.259 1_554 S
C205 C204 1.259 1_556 S
C205 C206 1.524 . S
C205 H208 1.034 . S
C206 H176 0.950 1_455 S
C206 C205 1.524 . S
C206 C207 1.415 1_566 S
C207 H177 0.950 1_455 S
C207 C202 1.363 . S
C207 C206 1.415 1_544 S
H208 C205 1.034 . S
H209 C190 0.913 . S
H210 C228 0.951 . S
H211 C230 0.951 . S
H212 C232 0.950 1_655 S
H213 C233 0.950 1_655 S
H214 C235 0.950 . S
H215 C238 0.950 . S
H216 C239 0.950 . S
H217 C241 0.950 . S
H218 C242 0.950 . S
H219 C243 0.972 . S
H220 C245 0.958 . S
H221 C247 0.950 . S
H222 C248 0.950 . S
H223 C250 0.950 . S
H224 C253 0.950 . S
H225 C254 0.950 . S
H226 C256 0.950 . S
H227 C257 0.950 . S
C228 H210 0.951 . S
C228 C229 1.366 . S
C228 C230 1.388 . S
C229 C228 1.366 . S
C229 C233 1.385 . S
C230 H211 0.951 . S
C230 C228 1.388 . S
C230 C231 1.366 . S
C231 C230 1.366 . S
C231 C232 1.414 . S
C231 C234 1.499 1_565 S
C232 H212 0.950 1_455 S
C232 C231 1.414 . S
C232 C233 1.374 . S
C233 H213 0.950 1_455 S
C233 C229 1.385 . S
C233 C232 1.374 . S
C234 C231 1.499 1_545 S
C234 C235 1.373 1_455 S
C234 C236 1.389 . S
C235 H214 0.950 . S
C235 C234 1.373 1_655 S
C235 C251 1.377 . S
C236 C234 1.389 . S
C236 C237 1.524 . S
C236 C250 1.377 . S
C237 C236 1.524 . S
C237 C238 1.397 1_545 S
C237 C242 1.363 . S
C238 H215 0.950 . S
C238 C237 1.397 1_565 S
C238 C239 1.334 . S
C239 H216 0.950 . S
C239 C238 1.334 . S
C239 C240 1.287 . S
C240 C239 1.287 . S
C240 C241 1.524 1_565 S
C240 H259 0.913 . S
C241 H217 0.950 . S
C241 C240 1.524 1_545 S
C241 C242 1.415 . S
C242 H218 0.950 . S
C242 C237 1.363 . S
C242 C241 1.415 . S
C243 H219 0.972 . S
C243 C244 1.350 1_655 S
C243 C245 1.385 . S
C244 C243 1.350 1_455 S
C244 C248 1.385 . S
C245 H220 0.958 . S
C245 C243 1.385 . S
C245 C246 1.355 1_655 S
C246 C245 1.355 1_455 S
C246 C247 1.414 . S
C246 C249 1.499 . S
C247 H221 0.950 . S
C247 C246 1.414 . S
C247 C248 1.374 . S
C248 H222 0.950 . S
C248 C244 1.385 . S
C248 C247 1.374 . S
C249 C246 1.499 . S
C249 C250 1.373 . S
C249 C251 1.389 1_455 S
C250 H223 0.950 . S
C250 C236 1.377 . S
C250 C249 1.373 . S
C251 C235 1.377 . S
C251 C249 1.389 1_655 S
C251 C252 1.524 . S
C252 C251 1.524 . S
C252 C253 1.397 . S
C252 C257 1.363 . S
C253 H224 0.950 . S
C253 C252 1.397 . S
C253 C254 1.334 . S
C254 H225 0.950 . S
C254 C253 1.334 . S
C254 C255 1.287 . S
C255 C254 1.287 . S
C255 C256 1.524 . S
C255 H258 0.999 . S
C256 H226 0.950 . S
C256 C255 1.524 . S
C256 C257 1.415 . S
C257 H227 0.950 . S
C257 C252 1.363 . S
C257 C256 1.415 . S
H258 C255 0.999 . S
H259 C240 0.913 . S
H260 C278 0.951 . S
H261 C280 0.951 . S
H262 C282 0.950 . S
H263 C283 0.950 . S
H264 C285 0.950 1_565 S
H265 C288 0.950 . S
H266 C289 0.950 . S
H267 C291 0.950 . S
H268 C292 0.950 . S
H269 C293 0.951 . S
H270 C295 0.951 . S
H271 C297 0.950 . S
H272 C298 0.950 . S
H273 C300 0.950 . S
H274 C303 0.950 . S
H275 C304 0.950 1_556 S
H276 C306 0.950 . S
H277 C307 0.950 . S
C278 H260 0.951 . S
C278 C279 1.366 . S
C278 C280 1.388 . S
C279 C278 1.366 . S
C279 C283 1.385 1_545 S
C280 H261 0.951 . S
C280 C278 1.388 . S
C280 C281 1.366 . S
C281 C280 1.366 . S
C281 C282 1.414 1_545 S
C281 C284 1.499 . S
C282 H262 0.950 . S
C282 C281 1.414 1_565 S
C282 C283 1.374 . S
C283 H263 0.950 . S
C283 C279 1.385 1_565 S
C283 C282 1.374 . S
C284 C281 1.499 . S
C284 C285 1.373 . S
C284 C286 1.389 . S
C285 H264 0.950 1_545 S
C285 C284 1.373 . S
C285 C301 1.377 . S
C286 C284 1.389 . S
C286 C287 1.524 . S
C286 C300 1.377 . S
C287 C286 1.524 . S
C287 C288 1.397 . S
C287 C292 1.363 . S
C288 H265 0.950 . S
C288 C287 1.397 . S
C288 C289 1.334 . S
C289 H266 0.950 . S
C289 C288 1.334 . S
C289 C290 1.287 . S
C290 C289 1.287 . S
C290 C291 1.524 . S
C290 H309 0.913 . S
C291 H267 0.950 . S
C291 C290 1.524 . S
C291 C292 1.415 . S
C292 H268 0.950 . S
C292 C287 1.363 . S
C292 C291 1.415 . S
C293 H269 0.951 . S
C293 C294 1.366 . S
C293 C295 1.388 . S
C294 C293 1.366 . S
C294 C298 1.385 . S
C295 H270 0.951 . S
C295 C293 1.388 . S
C295 C296 1.366 . S
C296 C295 1.366 . S
C296 C297 1.414 . S
C296 C299 1.499 . S
C297 H271 0.950 . S
C297 C296 1.414 . S
C297 C298 1.374 . S
C298 H272 0.950 . S
C298 C294 1.385 . S
C298 C297 1.374 . S
C299 C296 1.499 . S
C299 C300 1.373 . S
C299 C301 1.389 . S
C300 H273 0.950 . S
C300 C286 1.377 . S
C300 C299 1.373 . S
C301 C285 1.377 . S
C301 C299 1.389 . S
C301 C302 1.524 . S
C302 C301 1.524 . S
C302 C303 1.397 . S
C302 C307 1.363 1_545 S
C303 H274 0.950 . S
C303 C302 1.397 . S
C303 C304 1.334 . S
C304 H275 0.950 1_554 S
C304 C303 1.334 . S
C304 C305 1.287 1_545 S
C305 C304 1.287 1_565 S
C305 C306 1.524 . S
C305 H308 0.999 1_554 S
C306 H276 0.950 . S
C306 C305 1.524 . S
C306 C307 1.415 . S
C307 H277 0.950 . S
C307 C302 1.363 1_565 S
C307 C306 1.415 . S
H308 C305 0.999 1_556 S
H309 C290 0.913 . S
H310 C328 0.951 . S
H311 C330 0.951 . S
H312 C332 0.950 . S
H313 C333 0.950 . S
H314 C335 0.950 1_655 S
H315 C338 0.950 . S
H316 C339 0.950 . S
H317 C341 0.950 . S
H318 C342 0.950 . S
H319 C343 0.974 . S
H320 C345 0.951 . S
H321 C347 0.950 . S
H322 C348 0.950 . S
H323 C350 0.950 . S
H324 C353 0.950 1_455 S
H325 C354 0.950 . S
H326 C356 0.950 . S
H327 C357 0.950 . S
C328 H310 0.951 . S
C328 C329 1.366 . S
C328 C330 1.388 . S
C329 C328 1.366 . S
C329 C333 1.385 1_455 S
C330 H311 0.951 . S
C330 C328 1.388 . S
C330 C331 1.366 . S
C331 C330 1.366 . S
C331 C332 1.414 1_455 S
C331 C334 1.499 . S
C332 H312 0.950 . S
C332 C331 1.414 1_655 S
C332 C333 1.374 . S
C333 H313 0.950 . S
C333 C329 1.385 1_655 S
C333 C332 1.374 . S
C334 C331 1.499 . S
C334 C335 1.373 . S
C334 C336 1.389 . S
C335 H314 0.950 1_455 S
C335 C334 1.373 . S
C335 C351 1.377 . S
C336 C334 1.389 . S
C336 C337 1.524 . S
C336 C350 1.377 . S
C337 C336 1.524 . S
C337 C338 1.397 . S
C337 C342 1.363 . S
C338 H315 0.950 . S
C338 C337 1.397 . S
C338 C339 1.334 . S
C339 H316 0.950 . S
C339 C338 1.334 . S
C339 C340 1.287 . S
C340 C339 1.287 . S
C340 C341 1.524 . S
C340 H359 0.913 . S
C341 H317 0.950 . S
C341 C340 1.524 . S
C341 C342 1.415 . S
C342 H318 0.950 . S
C342 C337 1.363 . S
C342 C341 1.415 . S
C343 H319 0.974 . S
C343 C344 1.344 1_655 S
C343 C345 1.388 . S
C344 C343 1.344 1_455 S
C344 C348 1.385 . S
C345 H320 0.951 . S
C345 C343 1.388 . S
C345 C346 1.366 1_655 S
C346 C345 1.366 1_455 S
C346 C347 1.414 . S
C346 C349 1.499 . S
C347 H321 0.950 . S
C347 C346 1.414 . S
C347 C348 1.374 . S
C348 H322 0.950 . S
C348 C344 1.385 . S
C348 C347 1.374 . S
C349 C346 1.499 . S
C349 C350 1.373 . S
C349 C351 1.389 . S
C350 H323 0.950 . S
C350 C336 1.377 . S
C350 C349 1.373 . S
C351 C335 1.377 . S
C351 C349 1.389 . S
C351 C352 1.524 1_455 S
C352 C351 1.524 1_655 S
C352 C353 1.397 . S
C352 C357 1.363 . S
C353 H324 0.950 1_655 S
C353 C352 1.397 . S
C353 C354 1.334 . S
C354 H325 0.950 . S
C354 C353 1.334 . S
C354 C355 1.287 . S
C355 C354 1.287 . S
C355 C356 1.524 . S
C355 H358 0.999 . S
C356 H326 0.950 . S
C356 C355 1.524 . S
C356 C357 1.415 . S
C357 H327 0.950 . S
C357 C352 1.363 . S
C357 C356 1.415 . S
H358 C355 0.999 . S
H359 C340 0.913 . S
H360 C378 0.951 . S
H361 C380 0.951 . S
H362 C382 0.950 . S
H363 C383 0.950 . S
H364 C385 0.950 . S
H365 C388 0.950 . S
H366 C389 0.950 . S
H367 C391 0.950 . S
H368 C392 0.950 . S
H369 C393 0.951 . S
H370 C395 0.951 . S
H371 C397 0.950 . S
H372 C398 0.950 . S
H373 C400 0.950 . S
H374 C403 0.950 . S
H375 C404 0.950 . S
H376 C406 0.950 . S
H377 C407 0.950 . S
C378 H360 0.951 . S
C378 C379 1.366 . S
C378 C380 1.388 . S
C379 C378 1.366 . S
C379 C383 1.385 . S
C380 H361 0.951 . S
C380 C378 1.388 . S
C380 C381 1.366 . S
C381 C380 1.366 . S
C381 C382 1.414 . S
C381 C384 1.499 . S
C382 H362 0.950 . S
C382 C381 1.414 . S
C382 C383 1.374 . S
C383 H363 0.950 . S
C383 C379 1.385 . S
C383 C382 1.374 . S
C384 C381 1.499 . S
C384 C385 1.373 . S
C384 C386 1.389 . S
C385 H364 0.950 . S
C385 C384 1.373 . S
C385 C401 1.377 . S
C386 C384 1.389 . S
C386 C387 1.524 . S
C386 C400 1.377 . S
C387 C386 1.524 . S
C387 C388 1.397 . S
C387 C392 1.363 . S
C388 H365 0.950 . S
C388 C387 1.397 . S
C388 C389 1.334 . S
C389 H366 0.950 . S
C389 C388 1.334 . S
C389 C390 1.287 . S
C390 C389 1.287 . S
C390 C391 1.524 . S
C390 H409 0.913 . S
C391 H367 0.950 . S
C391 C390 1.524 . S
C391 C392 1.415 . S
C392 H368 0.950 . S
C392 C387 1.363 . S
C392 C391 1.415 . S
C393 H369 0.951 . S
C393 C394 1.366 . S
C393 C395 1.388 . S
C394 C393 1.366 . S
C394 C398 1.385 . S
C395 H370 0.951 . S
C395 C393 1.388 . S
C395 C396 1.366 . S
C396 C395 1.366 . S
C396 C397 1.414 . S
C396 C399 1.499 . S
C397 H371 0.950 . S
C397 C396 1.414 . S
C397 C398 1.374 . S
C398 H372 0.950 . S
C398 C394 1.385 . S
C398 C397 1.374 . S
C399 C396 1.499 . S
C399 C400 1.373 . S
C399 C401 1.389 . S
C400 H373 0.950 . S
C400 C386 1.377 . S
C400 C399 1.373 . S
C401 C385 1.377 . S
C401 C399 1.389 . S
C401 C402 1.524 . S
C402 C401 1.524 . S
C402 C403 1.397 . S
C402 C407 1.363 . S
C403 H374 0.950 . S
C403 C402 1.397 . S
C403 C404 1.334 . S
C404 H375 0.950 . S
C404 C403 1.334 . S
C404 C405 1.287 . S
C405 C404 1.287 . S
C405 C406 1.524 . S
C405 H408 0.999 . S
C406 H376 0.950 . S
C406 C405 1.524 . S
C406 C407 1.415 . S
C407 H377 0.950 . S
C407 C402 1.363 . S
C407 C406 1.415 . S
H408 C405 0.999 . S
H409 C390 0.913 . S
H410 C428 0.951 . S
H411 C430 0.951 . S
H412 C432 0.950 . S
H413 C433 0.950 . S
H414 C435 0.950 . S
H415 C438 0.950 . S
H416 C439 0.950 . S
H417 C441 0.950 1_455 S
H418 C442 0.950 . S
H419 C443 0.951 . S
H420 C445 0.951 . S
H421 C447 0.950 . S
H422 C448 0.950 . S
H423 C450 0.950 . S
H424 C453 0.950 . S
H425 C454 0.950 1_554 S
H426 C456 0.950 . S
H427 C457 0.950 . S
C428 H410 0.951 . S
C428 C429 1.366 . S
C428 C430 1.388 . S
C429 C428 1.366 . S
C429 C433 1.385 . S
C430 H411 0.951 . S
C430 C428 1.388 . S
C430 C431 1.366 . S
C431 C430 1.366 . S
C431 C432 1.414 . S
C431 C434 1.499 . S
C432 H412 0.950 . S
C432 C431 1.414 . S
C432 C433 1.374 . S
C433 H413 0.950 . S
C433 C429 1.385 . S
C433 C432 1.374 . S
C434 C431 1.499 . S
C434 C435 1.373 . S
C434 C436 1.389 . S
C435 H414 0.950 . S
C435 C434 1.373 . S
C435 C451 1.377 . S
C436 C434 1.389 . S
C436 C437 1.524 . S
C436 C450 1.377 . S
C437 C436 1.524 . S
C437 C438 1.397 . S
C437 C442 1.363 . S
C438 H415 0.950 . S
C438 C437 1.397 . S
C438 C439 1.334 . S
C439 H416 0.950 . S
C439 C438 1.334 . S
C439 C440 1.287 . S
C440 C439 1.287 . S
C440 C441 1.524 . S
C440 H459 0.913 . S
C441 H417 0.950 1_655 S
C441 C440 1.524 . S
C441 C442 1.415 . S
C442 H418 0.950 . S
C442 C437 1.363 . S
C442 C441 1.415 . S
C443 H419 0.951 . S
C443 C444 1.366 . S
C443 C445 1.388 1_554 S
C444 C443 1.366 . S
C444 C448 1.385 . S
C445 H420 0.951 . S
C445 C443 1.388 1_556 S
C445 C446 1.366 . S
C446 C445 1.366 . S
C446 C447 1.414 1_556 S
C446 C449 1.499 . S
C447 H421 0.950 . S
C447 C446 1.414 1_554 S
C447 C448 1.374 . S
C448 H422 0.950 . S
C448 C444 1.385 . S
C448 C447 1.374 . S
C449 C446 1.499 . S
C449 C450 1.373 . S
C449 C451 1.389 . S
C450 H423 0.950 . S
C450 C436 1.377 . S
C450 C449 1.373 . S
C451 C435 1.377 . S
C451 C449 1.389 . S
C451 C452 1.524 . S
C452 C451 1.524 . S
C452 C453 1.397 . S
C452 C457 1.363 . S
C453 H424 0.950 . S
C453 C452 1.397 . S
C453 C454 1.334 . S
C454 H425 0.950 1_556 S
C454 C453 1.334 . S
C454 C455 1.287 . S
C455 C454 1.287 . S
C455 C456 1.524 . S
C455 H458 0.999 . S
C456 H426 0.950 . S
C456 C455 1.524 . S
C456 C457 1.415 . S
C457 H427 0.950 . S
C457 C452 1.363 . S
C457 C456 1.415 . S
H458 C455 0.999 . S
H459 C440 0.913 . S
H460 C478 0.951 . S
H461 C480 0.951 . S
H462 C482 0.950 . S
H463 C483 0.950 1_455 S
H464 C485 0.950 . S
H465 C488 0.950 . S
H466 C489 0.950 1_455 S
H467 C491 0.950 . S
H468 C492 0.950 . S
H469 C493 0.951 . S
H470 C495 0.951 . S
H471 C497 0.950 . S
H472 C498 0.950 . S
H473 C500 0.950 . S
H474 C503 0.950 . S
H475 C504 0.950 . S
H476 C506 0.950 . S
H477 C507 0.950 . S
C478 H460 0.951 . S
C478 C479 1.366 . S
C478 C480 1.388 . S
C479 C478 1.366 . S
C479 C483 1.385 . S
C480 H461 0.951 . S
C480 C478 1.388 . S
C480 C481 1.366 . S
C481 C480 1.366 . S
C481 C482 1.414 . S
C481 C484 1.499 . S
C482 H462 0.950 . S
C482 C481 1.414 . S
C482 C483 1.374 . S
C483 H463 0.950 1_655 S
C483 C479 1.385 . S
C483 C482 1.374 . S
C484 C481 1.499 . S
C484 C485 1.373 . S
C484 C486 1.389 . S
C485 H464 0.950 . S
C485 C484 1.373 . S
C485 C501 1.377 . S
C486 C484 1.389 . S
C486 C487 1.524 . S
C486 C500 1.377 . S
C487 C486 1.524 . S
C487 C488 1.397 . S
C487 C492 1.363 . S
C488 H465 0.950 . S
C488 C487 1.397 . S
C488 C489 1.334 . S
C489 H466 0.950 1_655 S
C489 C488 1.334 . S
C489 C490 1.287 . S
C490 C489 1.287 . S
C490 C491 1.524 . S
C490 H509 0.913 . S
C491 H467 0.950 . S
C491 C490 1.524 . S
C491 C492 1.415 . S
C492 H468 0.950 . S
C492 C487 1.363 . S
C492 C491 1.415 . S
C493 H469 0.951 . S
C493 C494 1.366 . S
C493 C495 1.388 . S
C494 C493 1.366 . S
C494 C498 1.385 . S
C495 H470 0.951 . S
C495 C493 1.388 . S
C495 C496 1.366 . S
C496 C495 1.366 . S
C496 C497 1.414 . S
C496 C499 1.499 . S
C497 H471 0.950 . S
C497 C496 1.414 . S
C497 C498 1.374 . S
C498 H472 0.950 . S
C498 C494 1.385 . S
C498 C497 1.374 . S
C499 C496 1.499 . S
C499 C500 1.373 . S
C499 C501 1.389 . S
C500 H473 0.950 . S
C500 C486 1.377 . S
C500 C499 1.373 . S
C501 C485 1.377 . S
C501 C499 1.389 . S
C501 C502 1.524 . S
C502 C501 1.524 . S
C502 C503 1.397 . S
C502 C507 1.363 1_565 S
C503 H474 0.950 . S
C503 C502 1.397 . S
C503 C504 1.334 1_565 S
C504 H475 0.950 . S
C504 C503 1.334 1_545 S
C504 C505 1.287 . S
C505 C504 1.287 . S
C505 C506 1.524 . S
C505 H508 0.999 . S
C506 H476 0.950 . S
C506 C505 1.524 . S
C506 C507 1.415 . S
C507 H477 0.950 . S
C507 C502 1.363 1_545 S
C507 C506 1.415 . S
H508 C505 0.999 . S
H509 C490 0.913 . S
H510 C528 0.951 . S
H511 C530 0.951 . S
H512 C532 0.950 . S
H513 C533 0.950 . S
H514 C535 0.950 . S
H515 C538 0.950 . S
H516 C539 0.950 . S
H517 C541 0.950 . S
H518 C542 0.950 . S
H519 C543 0.951 . S
H520 C545 0.951 . S
H521 C547 0.950 . S
H522 C548 0.950 1_545 S
H523 C550 0.950 . S
H524 C553 0.950 . S
H525 C554 0.950 . S
H526 C556 0.950 . S
H527 C557 0.950 . S
C528 H510 0.951 . S
C528 C529 1.366 . S
C528 C530 1.388 . S
C529 C528 1.366 . S
C529 C533 1.385 . S
C530 H511 0.951 . S
C530 C528 1.388 . S
C530 C531 1.366 . S
C531 C530 1.366 . S
C531 C532 1.414 . S
C531 C534 1.499 . S
C532 H512 0.950 . S
C532 C531 1.414 . S
C532 C533 1.374 . S
C533 H513 0.950 . S
C533 C529 1.385 . S
C533 C532 1.374 . S
C534 C531 1.499 . S
C534 C535 1.373 . S
C534 C536 1.389 . S
C535 H514 0.950 . S
C535 C534 1.373 . S
C535 C551 1.377 . S
C536 C534 1.389 . S
C536 C537 1.524 . S
C536 C550 1.377 . S
C537 C536 1.524 . S
C537 C538 1.397 . S
C537 C542 1.363 . S
C538 H515 0.950 . S
C538 C537 1.397 . S
C538 C539 1.334 . S
C539 H516 0.950 . S
C539 C538 1.334 . S
C539 C540 1.287 . S
C540 C539 1.287 . S
C540 C541 1.524 . S
C540 H559 0.913 . S
C541 H517 0.950 . S
C541 C540 1.524 . S
C541 C542 1.415 . S
C542 H518 0.950 . S
C542 C537 1.363 . S
C542 C541 1.415 . S
C543 H519 0.951 . S
C543 C544 1.366 . S
C543 C545 1.388 . S
C544 C543 1.366 . S
C544 C548 1.385 . S
C545 H520 0.951 . S
C545 C543 1.388 . S
C545 C546 1.366 . S
C546 C545 1.366 . S
C546 C547 1.414 . S
C546 C549 1.499 . S
C547 H521 0.950 . S
C547 C546 1.414 . S
C547 C548 1.374 . S
C548 H522 0.950 1_565 S
C548 C544 1.385 . S
C548 C547 1.374 . S
C549 C546 1.499 . S
C549 C550 1.373 . S
C549 C551 1.389 . S
C550 H523 0.950 . S
C550 C536 1.377 . S
C550 C549 1.373 . S
C551 C535 1.377 . S
C551 C549 1.389 . S
C551 C552 1.524 . S
C552 C551 1.524 . S
C552 C553 1.397 . S
C552 C557 1.363 . S
C553 H524 0.950 . S
C553 C552 1.397 . S
C553 C554 1.334 . S
C554 H525 0.950 . S
C554 C553 1.334 . S
C554 C555 1.287 . S
C555 C554 1.287 . S
C555 C556 1.524 . S
C555 H558 0.999 . S
C556 H526 0.950 . S
C556 C555 1.524 . S
C556 C557 1.415 . S
C557 H527 0.950 . S
C557 C552 1.363 . S
C557 C556 1.415 . S
H558 C555 0.999 . S
H559 C540 0.913 . S
H560 C578 0.951 . S
H561 C580 0.951 . S
H562 C582 0.950 . S
H563 C583 0.950 . S
H564 C585 0.950 . S
H565 C588 0.950 . S
H566 C589 0.950 . S
H567 C591 0.950 1_455 S
H568 C592 0.950 . S
H569 C593 0.951 . S
H570 C595 0.951 . S
H571 C597 0.950 . S
H572 C598 0.950 . S
H573 C600 0.950 . S
H574 C603 0.950 . S
H575 C604 0.950 . S
H576 C606 0.950 . S
H577 C607 0.950 . S
C578 H560 0.951 . S
C578 C579 1.366 . S
C578 C580 1.388 . S
C579 C578 1.366 . S
C579 C583 1.385 . S
C580 H561 0.951 . S
C580 C578 1.388 . S
C580 C581 1.366 . S
C581 C580 1.366 . S
C581 C582 1.414 . S
C581 C584 1.499 . S
C582 H562 0.950 . S
C582 C581 1.414 . S
C582 C583 1.374 . S
C583 H563 0.950 . S
C583 C579 1.385 . S
C583 C582 1.374 . S
C584 C581 1.499 . S
C584 C585 1.373 . S
C584 C586 1.389 . S
C585 H564 0.950 . S
C585 C584 1.373 . S
C585 C601 1.377 . S
C586 C584 1.389 . S
C586 C587 1.524 . S
C586 C600 1.377 . S
C587 C586 1.524 . S
C587 C588 1.397 . S
C587 C592 1.363 . S
C588 H565 0.950 . S
C588 C587 1.397 . S
C588 C589 1.334 . S
C589 H566 0.950 . S
C589 C588 1.334 . S
C589 C590 1.287 . S
C590 C589 1.287 . S
C590 C591 1.524 . S
C590 H609 0.913 . S
C591 H567 0.950 1_655 S
C591 C590 1.524 . S
C591 C592 1.415 . S
C592 H568 0.950 . S
C592 C587 1.363 . S
C592 C591 1.415 . S
C593 H569 0.951 . S
C593 C594 1.366 . S
C593 C595 1.388 . S
C594 C593 1.366 . S
C594 C598 1.385 . S
C595 H570 0.951 . S
C595 C593 1.388 . S
C595 C596 1.366 . S
C596 C595 1.366 . S
C596 C597 1.414 . S
C596 C599 1.499 . S
C597 H571 0.950 . S
C597 C596 1.414 . S
C597 C598 1.374 . S
C598 H572 0.950 . S
C598 C594 1.385 . S
C598 C597 1.374 . S
C599 C596 1.499 . S
C599 C600 1.373 . S
C599 C601 1.389 . S
C600 H573 0.950 . S
C600 C586 1.377 . S
C600 C599 1.373 . S
C601 C585 1.377 . S
C601 C599 1.389 . S
C601 C602 1.524 . S
C602 C601 1.524 . S
C602 C603 1.397 . S
C602 C607 1.363 . S
C603 H574 0.950 . S
C603 C602 1.397 . S
C603 C604 1.334 . S
C604 H575 0.950 . S
C604 C603 1.334 . S
C604 C605 1.287 . S
C605 C604 1.287 . S
C605 C606 1.524 . S
C605 H608 0.999 . S
C606 H576 0.950 . S
C606 C605 1.524 . S
C606 C607 1.415 . S
C607 H577 0.950 . S
C607 C602 1.363 . S
C607 C606 1.415 . S
H608 C605 0.999 . S
H609 C590 0.913 . S
H610 C628 0.951 . S
H611 C630 0.951 . S
H612 C632 0.950 . S
H613 C633 0.950 . S
H614 C635 0.950 . S
H615 C638 0.950 . S
H616 C639 0.950 . S
H617 C641 0.950 . S
H618 C642 0.950 . S
H619 C643 0.951 . S
H620 C645 0.951 . S
H621 C647 0.950 . S
H622 C648 0.950 . S
H623 C650 0.950 . S
H624 C653 0.950 . S
H625 C654 0.950 . S
H626 C656 0.950 . S
H627 C657 0.950 . S
C628 H610 0.951 . S
C628 C629 1.366 . S
C628 C630 1.388 . S
C629 C628 1.366 . S
C629 C633 1.385 1_545 S
C630 H611 0.951 . S
C630 C628 1.388 . S
C630 C631 1.366 1_545 S
C631 C630 1.366 1_565 S
C631 C632 1.414 . S
C631 C634 1.499 . S
C632 H612 0.950 . S
C632 C631 1.414 . S
C632 C633 1.374 . S
C633 H613 0.950 . S
C633 C629 1.385 1_565 S
C633 C632 1.374 . S
C634 C631 1.499 . S
C634 C635 1.373 . S
C634 C636 1.389 . S
C635 H614 0.950 . S
C635 C634 1.373 . S
C635 C651 1.377 . S
C636 C634 1.389 . S
C636 C637 1.524 . S
C636 C650 1.377 . S
C637 C636 1.524 . S
C637 C638 1.397 . S
C637 C642 1.363 . S
C638 H615 0.950 . S
C638 C637 1.397 . S
C638 C639 1.334 . S
C639 H616 0.950 . S
C639 C638 1.334 . S
C639 C640 1.287 . S
C640 C639 1.287 . S
C640 C641 1.524 . S
C640 H659 0.913 . S
C641 H617 0.950 . S
C641 C640 1.524 . S
C641 C642 1.415 . S
C642 H618 0.950 . S
C642 C637 1.363 . S
C642 C641 1.415 . S
C643 H619 0.951 . S
C643 C644 1.366 . S
C643 C645 1.388 . S
C644 C643 1.366 . S
C644 C648 1.385 . S
C645 H620 0.951 . S
C645 C643 1.388 . S
C645 C646 1.366 . S
C646 C645 1.366 . S
C646 C647 1.414 . S
C646 C649 1.499 . S
C647 H621 0.950 . S
C647 C646 1.414 . S
C647 C648 1.374 . S
C648 H622 0.950 . S
C648 C644 1.385 . S
C648 C647 1.374 . S
C649 C646 1.499 . S
C649 C650 1.373 . S
C649 C651 1.389 . S
C650 H623 0.950 . S
C650 C636 1.377 . S
C650 C649 1.373 . S
C651 C635 1.377 . S
C651 C649 1.389 . S
C651 C652 1.524 . S
C652 C651 1.524 . S
C652 C653 1.397 . S
C652 C657 1.363 . S
C653 H624 0.950 . S
C653 C652 1.397 . S
C653 C654 1.334 . S
C654 H625 0.950 . S
C654 C653 1.334 . S
C654 C655 1.287 . S
C655 C654 1.287 . S
C655 C656 1.524 . S
C655 H658 0.999 . S
C656 H626 0.950 . S
C656 C655 1.524 . S
C656 C657 1.415 . S
C657 H627 0.950 . S
C657 C652 1.363 . S
C657 C656 1.415 . S
H658 C655 0.999 . S
H659 C640 0.913 . S
H660 C678 0.951 . S
H661 C680 0.951 . S
H662 C682 0.950 . S
H663 C683 0.950 . S
H664 C685 0.950 . S
H665 C688 0.950 . S
H666 C689 0.950 . S
H667 C691 0.950 . S
H668 C692 0.950 . S
H669 C693 0.951 . S
H670 C695 0.951 . S
H671 C697 0.950 . S
H672 C698 0.950 . S
H673 C700 0.950 . S
H674 C703 0.950 . S
H675 C704 0.950 . S
H676 C706 0.950 . S
H677 C707 0.950 . S
C678 H660 0.951 . S
C678 C679 1.366 . S
C678 C680 1.388 . S
C679 C678 1.366 . S
C679 C683 1.385 . S
C680 H661 0.951 . S
C680 C678 1.388 . S
C680 C681 1.366 . S
C681 C680 1.366 . S
C681 C682 1.414 . S
C681 C684 1.499 . S
C682 H662 0.950 . S
C682 C681 1.414 . S
C682 C683 1.374 . S
C683 H663 0.950 . S
C683 C679 1.385 . S
C683 C682 1.374 . S
C684 C681 1.499 . S
C684 C685 1.373 . S
C684 C686 1.389 . S
C685 H664 0.950 . S
C685 C684 1.373 . S
C685 C701 1.377 . S
C686 C684 1.389 . S
C686 C687 1.524 . S
C686 C700 1.377 . S
C687 C686 1.524 . S
C687 C688 1.397 . S
C687 C692 1.363 . S
C688 H665 0.950 . S
C688 C687 1.397 . S
C688 C689 1.334 . S
C689 H666 0.950 . S
C689 C688 1.334 . S
C689 C690 1.287 . S
C690 C689 1.287 . S
C690 C691 1.524 . S
C690 H709 0.913 . S
C691 H667 0.950 . S
C691 C690 1.524 . S
C691 C692 1.415 . S
C692 H668 0.950 . S
C692 C687 1.363 . S
C692 C691 1.415 . S
C693 H669 0.951 . S
C693 C694 1.366 . S
C693 C695 1.388 . S
C694 C693 1.366 . S
C694 C698 1.385 . S
C695 H670 0.951 . S
C695 C693 1.388 . S
C695 C696 1.366 . S
C696 C695 1.366 . S
C696 C697 1.414 . S
C696 C699 1.499 . S
C697 H671 0.950 . S
C697 C696 1.414 . S
C697 C698 1.374 . S
C698 H672 0.950 . S
C698 C694 1.385 . S
C698 C697 1.374 . S
C699 C696 1.499 . S
C699 C700 1.373 . S
C699 C701 1.389 . S
C700 H673 0.950 . S
C700 C686 1.377 . S
C700 C699 1.373 . S
C701 C685 1.377 . S
C701 C699 1.389 . S
C701 C702 1.524 . S
C702 C701 1.524 . S
C702 C703 1.397 . S
C702 C707 1.363 . S
C703 H674 0.950 . S
C703 C702 1.397 . S
C703 C704 1.334 . S
C704 H675 0.950 . S
C704 C703 1.334 . S
C704 C705 1.287 . S
C705 C704 1.287 . S
C705 C706 1.524 . S
C705 H708 0.999 . S
C706 H676 0.950 . S
C706 C705 1.524 . S
C706 C707 1.415 . S
C707 H677 0.950 . S
C707 C702 1.363 . S
C707 C706 1.415 . S
H708 C705 0.999 . S
H709 C690 0.913 . S
H710 C728 0.951 . S
H711 C730 0.951 . S
H712 C732 0.950 . S
H713 C733 0.950 . S
H714 C735 0.950 . S
H715 C738 0.950 . S
H716 C739 0.950 . S
H717 C741 0.950 . S
H718 C742 0.950 . S
H719 C743 0.951 1_455 S
H720 C745 0.951 . S
H721 C747 0.950 . S
H722 C748 0.950 . S
H723 C750 0.950 . S
H724 C753 0.950 1_655 S
H725 C754 0.950 . S
H726 C756 0.950 . S
H727 C757 0.950 . S
C728 H710 0.951 . S
C728 C729 1.366 . S
C728 C730 1.388 . S
C729 C728 1.366 . S
C729 C733 1.385 . S
C730 H711 0.951 . S
C730 C728 1.388 . S
C730 C731 1.366 . S
C731 C730 1.366 . S
C731 C732 1.414 . S
C731 C734 1.499 . S
C732 H712 0.950 . S
C732 C731 1.414 . S
C732 C733 1.374 . S
C733 H713 0.950 . S
C733 C729 1.385 . S
C733 C732 1.374 . S
C734 C731 1.499 . S
C734 C735 1.373 . S
C734 C736 1.389 . S
C735 H714 0.950 . S
C735 C734 1.373 . S
C735 C751 1.377 . S
C736 C734 1.389 . S
C736 C737 1.524 . S
C736 C750 1.377 . S
C737 C736 1.524 . S
C737 C738 1.397 . S
C737 C742 1.363 . S
C738 H715 0.950 . S
C738 C737 1.397 . S
C738 C739 1.334 . S
C739 H716 0.950 . S
C739 C738 1.334 . S
C739 C740 1.287 . S
C740 C739 1.287 . S
C740 C741 1.524 . S
C740 H759 0.913 . S
C741 H717 0.950 . S
C741 C740 1.524 . S
C741 C742 1.415 . S
C742 H718 0.950 . S
C742 C737 1.363 . S
C742 C741 1.415 . S
C743 H719 0.951 1_655 S
C743 C744 1.366 . S
C743 C745 1.388 . S
C744 C743 1.366 . S
C744 C748 1.385 . S
C745 H720 0.951 . S
C745 C743 1.388 . S
C745 C746 1.366 . S
C746 C745 1.366 . S
C746 C747 1.414 . S
C746 C749 1.499 . S
C747 H721 0.950 . S
C747 C746 1.414 . S
C747 C748 1.374 . S
C748 H722 0.950 . S
C748 C744 1.385 . S
C748 C747 1.374 . S
C749 C746 1.499 . S
C749 C750 1.373 . S
C749 C751 1.389 . S
C750 H723 0.950 . S
C750 C736 1.377 . S
C750 C749 1.373 . S
C751 C735 1.377 . S
C751 C749 1.389 . S
C751 C752 1.524 . S
C752 C751 1.524 . S
C752 C753 1.397 1_655 S
C752 C757 1.363 1_655 S
C753 H724 0.950 1_455 S
C753 C752 1.397 1_455 S
C753 C754 1.334 . S
C754 H725 0.950 . S
C754 C753 1.334 . S
C754 C755 1.287 . S
C755 C754 1.287 . S
C755 C756 1.524 . S
C755 H758 0.999 . S
C756 H726 0.950 . S
C756 C755 1.524 . S
C756 C757 1.415 . S
C757 H727 0.950 . S
C757 C752 1.363 1_455 S
C757 C756 1.415 . S
H758 C755 0.999 . S
H759 C740 0.913 . S
C179 C90 0.892 . S
C194 C19 0.892 . S
C229 C130 1.151 . S
C244 C59 1.151 . S
C279 C99 0.971 . S
C294 C10 0.971 . S
C329 C50 0.948 . S
C344 C139 0.948 . S
C379 C56 1.006 . S
C394 C7 1.000 . S
C429 C47 1.782 . S
C444 C91 1.806 . S
C479 C131 2.152 . S
C494 C82 2.103 . S
C529 C122 1.283 . S
C544 C16 1.304 . S
C579 C96 1.001 . S
C594 C127 1.005 . S
C629 C2 1.806 . S
C644 C136 1.782 . S
C679 C42 2.152 . S
C694 C11 2.103 1_556 S
C729 C87 1.303 . S
C744 C51 1.284 . S
