# Generated by pormake.
# Topology hbo, (4)-cn, num edge types: 1
# Building blocks:
#     Node 0, Type 0, BuildingBlock: ICAMEG_clean_sbu_1, # of connection points: 4
#     Node 1, Type 0, BuildingBlock: ICAMEG_clean_sbu_1, # of connection points: 4
#     Node 2, Type 0, BuildingBlock: ICAMEG_clean_sbu_1, # of connection points: 4
#     Node 3, Type 0, BuildingBlock: ICAMEG_clean_sbu_1, # of connection points: 4
#     Node 4, Type 0, BuildingBlock: ICAMEG_clean_sbu_1, # of connection points: 4
#     Node 5, Type 0, BuildingBlock: ICAMEG_clean_sbu_1, # of connection points: 4
#     Node 6, Type 0, BuildingBlock: ICAMEG_clean_sbu_1, # of connection points: 4
#     Node 7, Type 0, BuildingBlock: ICAMEG_clean_sbu_1, # of connection points: 4
#     Node 8, Type 0, BuildingBlock: ICAMEG_clean_sbu_1, # of connection points: 4
#     Node 9, Type 0, BuildingBlock: ICAMEG_clean_sbu_1, # of connection points: 4
#     Node 10, Type 0, BuildingBlock: ICAMEG_clean_sbu_1, # of connection points: 4
#     Node 11, Type 0, BuildingBlock: ICAMEG_clean_sbu_1, # of connection points: 4
#     Node 12, Type 0, BuildingBlock: ICAMEG_clean_sbu_1, # of connection points: 4
#     Node 13, Type 0, BuildingBlock: ICAMEG_clean_sbu_1, # of connection points: 4
#     Node 14, Type 0, BuildingBlock: ICAMEG_clean_sbu_1, # of connection points: 4
#     Node 15, Type 0, BuildingBlock: ICAMEG_clean_sbu_1, # of connection points: 4
#     Node 16, Type 0, BuildingBlock: ICAMEG_clean_sbu_1, # of connection points: 4
#     Node 17, Type 0, BuildingBlock: ICAMEG_clean_sbu_1, # of connection points: 4
#     Node 18, Type 0, BuildingBlock: ICAMEG_clean_sbu_1, # of connection points: 4
#     Node 19, Type 0, BuildingBlock: ICAMEG_clean_sbu_1, # of connection points: 4
#     Node 20, Type 0, BuildingBlock: ICAMEG_clean_sbu_1, # of connection points: 4
#     Node 21, Type 0, BuildingBlock: ICAMEG_clean_sbu_1, # of connection points: 4
#     Node 22, Type 0, BuildingBlock: ICAMEG_clean_sbu_1, # of connection points: 4
#     Node 23, Type 0, BuildingBlock: ICAMEG_clean_sbu_1, # of connection points: 4
#     Edge 24, Type (0, 0), BuildingBlock: UVAHIK_clean_linker_0, # of connection points: 2
#     Edge 25, Type (0, 0), BuildingBlock: UVAHIK_clean_linker_0, # of connection points: 2
#     Edge 26, Type (0, 0), BuildingBlock: UVAHIK_clean_linker_0, # of connection points: 2
#     Edge 27, Type (0, 0), BuildingBlock: UVAHIK_clean_linker_0, # of connection points: 2
#     Edge 28, Type (0, 0), BuildingBlock: UVAHIK_clean_linker_0, # of connection points: 2
#     Edge 29, Type (0, 0), BuildingBlock: UVAHIK_clean_linker_0, # of connection points: 2
#     Edge 30, Type (0, 0), BuildingBlock: UVAHIK_clean_linker_0, # of connection points: 2
#     Edge 31, Type (0, 0), BuildingBlock: UVAHIK_clean_linker_0, # of connection points: 2
#     Edge 32, Type (0, 0), BuildingBlock: UVAHIK_clean_linker_0, # of connection points: 2
#     Edge 33, Type (0, 0), BuildingBlock: UVAHIK_clean_linker_0, # of connection points: 2
#     Edge 34, Type (0, 0), BuildingBlock: UVAHIK_clean_linker_0, # of connection points: 2
#     Edge 35, Type (0, 0), BuildingBlock: UVAHIK_clean_linker_0, # of connection points: 2
#     Edge 36, Type (0, 0), BuildingBlock: UVAHIK_clean_linker_0, # of connection points: 2
#     Edge 37, Type (0, 0), BuildingBlock: UVAHIK_clean_linker_0, # of connection points: 2
#     Edge 38, Type (0, 0), BuildingBlock: UVAHIK_clean_linker_0, # of connection points: 2
#     Edge 39, Type (0, 0), BuildingBlock: UVAHIK_clean_linker_0, # of connection points: 2
#     Edge 40, Type (0, 0), BuildingBlock: UVAHIK_clean_linker_0, # of connection points: 2
#     Edge 41, Type (0, 0), BuildingBlock: UVAHIK_clean_linker_0, # of connection points: 2
#     Edge 42, Type (0, 0), BuildingBlock: UVAHIK_clean_linker_0, # of connection points: 2
#     Edge 43, Type (0, 0), BuildingBlock: UVAHIK_clean_linker_0, # of connection points: 2
#     Edge 44, Type (0, 0), BuildingBlock: UVAHIK_clean_linker_0, # of connection points: 2
#     Edge 45, Type (0, 0), BuildingBlock: UVAHIK_clean_linker_0, # of connection points: 2
#     Edge 46, Type (0, 0), BuildingBlock: UVAHIK_clean_linker_0, # of connection points: 2
#     Edge 47, Type (0, 0), BuildingBlock: UVAHIK_clean_linker_0, # of connection points: 2
#     Edge 48, Type (0, 0), BuildingBlock: UVAHIK_clean_linker_0, # of connection points: 2
#     Edge 49, Type (0, 0), BuildingBlock: UVAHIK_clean_linker_0, # of connection points: 2
#     Edge 50, Type (0, 0), BuildingBlock: UVAHIK_clean_linker_0, # of connection points: 2
#     Edge 51, Type (0, 0), BuildingBlock: UVAHIK_clean_linker_0, # of connection points: 2
#     Edge 52, Type (0, 0), BuildingBlock: UVAHIK_clean_linker_0, # of connection points: 2
#     Edge 53, Type (0, 0), BuildingBlock: UVAHIK_clean_linker_0, # of connection points: 2
#     Edge 54, Type (0, 0), BuildingBlock: UVAHIK_clean_linker_0, # of connection points: 2
#     Edge 55, Type (0, 0), BuildingBlock: UVAHIK_clean_linker_0, # of connection points: 2
#     Edge 56, Type (0, 0), BuildingBlock: UVAHIK_clean_linker_0, # of connection points: 2
#     Edge 57, Type (0, 0), BuildingBlock: UVAHIK_clean_linker_0, # of connection points: 2
#     Edge 58, Type (0, 0), BuildingBlock: UVAHIK_clean_linker_0, # of connection points: 2
#     Edge 59, Type (0, 0), BuildingBlock: UVAHIK_clean_linker_0, # of connection points: 2
#     Edge 60, Type (0, 0), BuildingBlock: UVAHIK_clean_linker_0, # of connection points: 2
#     Edge 61, Type (0, 0), BuildingBlock: UVAHIK_clean_linker_0, # of connection points: 2
#     Edge 62, Type (0, 0), BuildingBlock: UVAHIK_clean_linker_0, # of connection points: 2
#     Edge 63, Type (0, 0), BuildingBlock: UVAHIK_clean_linker_0, # of connection points: 2
#     Edge 64, Type (0, 0), BuildingBlock: UVAHIK_clean_linker_0, # of connection points: 2
#     Edge 65, Type (0, 0), BuildingBlock: UVAHIK_clean_linker_0, # of connection points: 2
#     Edge 66, Type (0, 0), BuildingBlock: UVAHIK_clean_linker_0, # of connection points: 2
#     Edge 67, Type (0, 0), BuildingBlock: UVAHIK_clean_linker_0, # of connection points: 2
#     Edge 68, Type (0, 0), BuildingBlock: UVAHIK_clean_linker_0, # of connection points: 2
#     Edge 69, Type (0, 0), BuildingBlock: UVAHIK_clean_linker_0, # of connection points: 2
#     Edge 70, Type (0, 0), BuildingBlock: UVAHIK_clean_linker_0, # of connection points: 2
#     Edge 71, Type (0, 0), BuildingBlock: UVAHIK_clean_linker_0, # of connection points: 2
# Relax obj value: 0.143
# Max RMSD: 0.173
# Mean RMSD: 0.173
data_MOF--net-hbo--node1-ICAMEG_clean_sbu_1--edge1-UVAHIK_clean_linker_0
_symmetry_space_group_name_H-M    P1
_symmetry_Int_Tables_number       1
_symmetry_cell_setting            triclinic
loop_
_symmetry_equiv_pos_as_xyz
'x, y, z'
_cell_length_a     71.82914
_cell_length_b     71.827128
_cell_length_c     71.821191
_cell_angle_alpha  89.976314
_cell_angle_beta   90.007527
_cell_angle_gamma 89.999898
loop_
_atom_site_label
_atom_site_type_symbol
_atom_site_fract_x
_atom_site_fract_y
_atom_site_fract_z
_atom_type_partial_charge
Co0 Co 0.15674 0.36891 0.26158 0.0
Co1 Co 0.12718 0.34344 0.23372 0.0
O2 O 0.13359 0.36546 0.24803 0.0
C3 C 0.15466 0.40048 0.23566 0.0
O4 O 0.15213 0.38824 0.22233 0.0
C5 C 0.09678 0.34751 0.26084 0.0
O6 O 0.10955 0.34848 0.27388 0.0
O7 O 0.13457 0.32681 0.25458 0.0
O8 O 0.15603 0.34275 0.2709 0.0
H9 H 0.13702 0.27921 0.20782 0.0
H10 H 0.12536 0.39523 0.26709 0.0
O11 O 0.15752 0.3951 0.25232 0.0
H12 H 0.13786 0.36849 0.32909 0.0
H13 H 0.20151 0.40548 0.30116 0.0
H14 H 0.19094 0.34655 0.26755 0.0
H15 H 0.15681 0.35928 0.30197 0.0
H16 H 0.17212 0.40007 0.28421 0.0
O17 O 0.10141 0.34495 0.24391 0.0
H18 H 0.1455 0.30733 0.22563 0.0
H19 H 0.09381 0.33244 0.21168 0.0
H20 H 0.22048 0.35131 0.28444 0.0
H21 H 0.10617 0.40493 0.29385 0.0
H22 H 0.2259 0.38095 0.3014 0.0
H23 H 0.11234 0.39148 0.32511 0.0
O24 O 0.1717 0.36065 0.23981 0.0
H25 H 0.09583 0.39903 0.205 0.0
H26 H 0.13522 0.3441 0.19298 0.0
H27 H 0.12722 0.36516 0.16705 0.0
H28 H 0.10739 0.39286 0.173 0.0
H29 H 0.10426 0.37767 0.23053 0.0
H30 H 0.0847 0.30453 0.19383 0.0
H31 H 0.10642 0.2777 0.19177 0.0
O32 O 0.15287 0.34177 0.2234 0.0
C33 C 0.14664 0.32805 0.26757 0.0
C34 C 0.12747 0.29084 0.20856 0.0
C35 C 0.09809 0.30504 0.20073 0.0
N36 N 0.12023 0.32155 0.21954 0.0
C37 C 0.13221 0.30682 0.21857 0.0
C38 C 0.1033 0.32078 0.21088 0.0
C39 C 0.11029 0.28999 0.19957 0.0
C40 C 0.12825 0.38945 0.28068 0.0
N41 N 0.14226 0.37678 0.28298 0.0
C42 C 0.11729 0.39494 0.29577 0.0
C43 C 0.12074 0.38737 0.3133 0.0
C44 C 0.13505 0.37446 0.31554 0.0
C45 C 0.14571 0.36927 0.30013 0.0
C46 C 0.1993 0.39249 0.29386 0.0
C47 C 0.19316 0.35944 0.275 0.0
C48 C 0.18271 0.38936 0.28421 0.0
N49 N 0.17978 0.37295 0.27504 0.0
C50 C 0.20993 0.36208 0.28449 0.0
C51 C 0.21297 0.37872 0.29399 0.0
C52 C 0.16864 0.34934 0.22645 0.0
C53 C 0.10444 0.38697 0.20222 0.0
C54 C 0.1266 0.35613 0.19567 0.0
C55 C 0.12209 0.36799 0.18094 0.0
C56 C 0.11095 0.38352 0.18428 0.0
N57 N 0.12014 0.3596 0.21324 0.0
C58 C 0.10919 0.37478 0.21661 0.0
Co59 Co 0.1537 0.62424 0.73279 0.0
Co60 Co 0.12846 0.65197 0.7628 0.0
O61 O 0.13211 0.62947 0.74824 0.0
C62 C 0.15217 0.59346 0.75976 0.0
O63 O 0.15114 0.60608 0.77293 0.0
C64 C 0.09621 0.65018 0.73764 0.0
O65 O 0.10807 0.64776 0.72395 0.0
O66 O 0.13594 0.66801 0.7415 0.0
O67 O 0.15351 0.6501 0.72268 0.0
H68 H 0.14539 0.71492 0.7882 0.0
H69 H 0.12032 0.59992 0.73118 0.0
O70 O 0.15391 0.59832 0.74279 0.0
H71 H 0.12888 0.62342 0.66723 0.0
H72 H 0.19262 0.58402 0.69065 0.0
H73 H 0.18835 0.64442 0.723 0.0
H74 H 0.15082 0.63221 0.69215 0.0
H75 H 0.16524 0.59159 0.70997 0.0
O76 O 0.10204 0.65266 0.75421 0.0
H77 H 0.15036 0.68626 0.76996 0.0
H78 H 0.09747 0.66576 0.78666 0.0
H79 H 0.21591 0.6375 0.70372 0.0
H80 H 0.09815 0.59066 0.70666 0.0
H81 H 0.21817 0.6071 0.68738 0.0
H82 H 0.10231 0.60249 0.67443 0.0
O83 O 0.17109 0.6322 0.75288 0.0
H84 H 0.09434 0.59924 0.79367 0.0
H85 H 0.13903 0.65053 0.80292 0.0
H86 H 0.13091 0.6302 0.82939 0.0
H87 H 0.10841 0.60434 0.82485 0.0
H88 H 0.10293 0.61982 0.76756 0.0
H89 H 0.09186 0.69426 0.80498 0.0
H90 H 0.11595 0.71905 0.80588 0.0
O91 O 0.15478 0.65143 0.77143 0.0
C92 C 0.14609 0.66562 0.72711 0.0
C93 C 0.1348 0.7042 0.78796 0.0
C94 C 0.10475 0.69261 0.79736 0.0
N95 N 0.12427 0.67432 0.77733 0.0
C96 C 0.13756 0.68792 0.77769 0.0
C97 C 0.10798 0.67653 0.78692 0.0
C98 C 0.11828 0.70651 0.79786 0.0
C99 C 0.12233 0.60501 0.71715 0.0
N100 N 0.13687 0.61658 0.71309 0.0
C101 C 0.10968 0.59976 0.70335 0.0
C102 C 0.11202 0.60643 0.68527 0.0
C103 C 0.12691 0.61819 0.68122 0.0
C104 C 0.13926 0.62316 0.69539 0.0
C105 C 0.19178 0.59732 0.69767 0.0
C106 C 0.18918 0.63122 0.71583 0.0
C107 C 0.17633 0.60167 0.70865 0.0
N108 N 0.17514 0.61849 0.71746 0.0
C109 C 0.20484 0.62735 0.70498 0.0
C110 C 0.20611 0.61029 0.69584 0.0
C111 C 0.16982 0.64325 0.76674 0.0
C112 C 0.10411 0.6105 0.79584 0.0
C113 C 0.12923 0.6393 0.80084 0.0
C114 C 0.12467 0.62785 0.81588 0.0
C115 C 0.11203 0.61335 0.81332 0.0
N116 N 0.12139 0.63643 0.78374 0.0
C117 C 0.10898 0.62224 0.78112 0.0
Co118 Co 0.84206 0.62638 0.26176 0.0
Co119 Co 0.86614 0.6572 0.23385 0.0
O120 O 0.86397 0.63402 0.24774 0.0
C121 C 0.84829 0.59588 0.23503 0.0
O122 O 0.84909 0.60845 0.22178 0.0
C123 C 0.89681 0.65819 0.26088 0.0
O124 O 0.88463 0.65302 0.27347 0.0
O125 O 0.85603 0.67184 0.25504 0.0
O126 O 0.83875 0.65197 0.27194 0.0
H127 H 0.84424 0.71887 0.20912 0.0
H128 H 0.8774 0.60533 0.26566 0.0
O129 O 0.84515 0.60066 0.25181 0.0
H130 H 0.86266 0.62801 0.32875 0.0
H131 H 0.80497 0.58196 0.30129 0.0
H132 H 0.80482 0.64262 0.2691 0.0
H133 H 0.84164 0.63474 0.30244 0.0
H134 H 0.83262 0.59257 0.28389 0.0
O135 O 0.8918 0.66062 0.24403 0.0
H136 H 0.84133 0.68937 0.22648 0.0
H137 H 0.89669 0.67464 0.21185 0.0
H138 H 0.77692 0.63262 0.28645 0.0
H139 H 0.89872 0.59816 0.2916 0.0
H140 H 0.77688 0.60209 0.3027 0.0
H141 H 0.89143 0.60959 0.32341 0.0
O142 O 0.82533 0.63265 0.24058 0.0
H143 H 0.90743 0.60927 0.20402 0.0
H144 H 0.85799 0.65566 0.19316 0.0
H145 H 0.86977 0.63705 0.16682 0.0
H146 H 0.89468 0.61367 0.17217 0.0
H147 H 0.89516 0.62809 0.22999 0.0
H148 H 0.90027 0.70405 0.19446 0.0
H149 H 0.87389 0.72637 0.19295 0.0
O150 O 0.84052 0.65419 0.22369 0.0
C151 C 0.84508 0.6682 0.26854 0.0
C152 C 0.85582 0.70924 0.20962 0.0
C153 C 0.88727 0.70093 0.20141 0.0
N154 N 0.86876 0.68024 0.22003 0.0
C155 C 0.85423 0.69249 0.21938 0.0
C156 C 0.88517 0.68432 0.21131 0.0
C157 C 0.87246 0.71344 0.20057 0.0
C158 C 0.87402 0.61019 0.27949 0.0
N159 N 0.85824 0.62037 0.28254 0.0
C160 C 0.8862 0.60615 0.29411 0.0
C161 C 0.88211 0.61259 0.31195 0.0
C162 C 0.86598 0.62294 0.31496 0.0
C163 C 0.85415 0.62674 0.3 0.0
C164 C 0.80483 0.59531 0.2943 0.0
C165 C 0.80495 0.62937 0.27624 0.0
C166 C 0.82043 0.60137 0.2844 0.0
N167 N 0.82038 0.61826 0.27563 0.0
C168 C 0.78909 0.62376 0.286 0.0
C169 C 0.78908 0.60661 0.29509 0.0
C170 C 0.82623 0.64423 0.22714 0.0
C171 C 0.89661 0.61945 0.2015 0.0
C172 C 0.86881 0.64549 0.1956 0.0
C173 C 0.87545 0.63502 0.18063 0.0
C174 C 0.88943 0.62191 0.18364 0.0
N175 N 0.87595 0.64302 0.21307 0.0
C176 C 0.88966 0.6302 0.21614 0.0
Co177 Co 0.87107 0.33939 0.76295 0.0
Co178 Co 0.84723 0.37125 0.736 0.0
O179 O 0.86913 0.36295 0.74968 0.0
C180 C 0.90157 0.33851 0.73573 0.0
O181 O 0.88947 0.34427 0.72331 0.0
C182 C 0.85385 0.40089 0.76358 0.0
O183 O 0.8545 0.38792 0.77645 0.0
O184 O 0.83049 0.36459 0.75708 0.0
O185 O 0.84556 0.34248 0.77332 0.0
H186 H 0.78193 0.3665 0.71134 0.0
H187 H 0.90052 0.36796 0.76737 0.0
O188 O 0.89659 0.33584 0.75254 0.0
H189 H 0.87534 0.35782 0.83043 0.0
H190 H 0.90472 0.29106 0.80094 0.0
H191 H 0.84585 0.30738 0.76959 0.0
H192 H 0.86317 0.34003 0.80371 0.0
H193 H 0.90146 0.32097 0.78435 0.0
O194 O 0.8507 0.39664 0.74666 0.0
H195 H 0.80974 0.3557 0.72837 0.0
H196 H 0.83815 0.40578 0.71485 0.0
H197 H 0.84844 0.27738 0.78614 0.0
H198 H 0.9132 0.38597 0.79372 0.0
H199 H 0.87805 0.26906 0.80196 0.0
H200 H 0.90055 0.38098 0.82552 0.0
O201 O 0.8606 0.32544 0.74146 0.0
H202 H 0.90405 0.39963 0.70663 0.0
H203 H 0.84653 0.36395 0.69513 0.0
H204 H 0.86748 0.37116 0.66889 0.0
H205 H 0.89648 0.38913 0.67457 0.0
H206 H 0.88279 0.392 0.73249 0.0
H207 H 0.81059 0.41719 0.69779 0.0
H208 H 0.78226 0.39745 0.6959 0.0
O209 O 0.84352 0.346 0.72518 0.0
C210 C 0.83134 0.35263 0.77019 0.0
C211 C 0.79422 0.3752 0.71201 0.0
C212 C 0.8103 0.40366 0.70443 0.0
N213 N 0.82559 0.38003 0.72246 0.0
C214 C 0.81002 0.36914 0.72158 0.0
C215 C 0.82584 0.39714 0.71414 0.0
C216 C 0.7944 0.39257 0.70337 0.0
C217 C 0.89507 0.3656 0.78119 0.0
N218 N 0.8812 0.35289 0.78402 0.0
C219 C 0.90225 0.37588 0.79605 0.0
C220 C 0.89513 0.37309 0.81388 0.0
C221 C 0.88098 0.36011 0.81665 0.0
C222 C 0.87412 0.3501 0.80146 0.0
C223 C 0.89174 0.29454 0.79413 0.0
C224 C 0.85873 0.3039 0.77655 0.0
C225 C 0.88982 0.31144 0.78469 0.0
N226 N 0.87343 0.31596 0.77615 0.0
C227 C 0.86014 0.28688 0.78585 0.0
C228 C 0.87677 0.28221 0.79471 0.0
C229 C 0.8496 0.32959 0.72816 0.0
C230 C 0.89143 0.39184 0.70397 0.0
C231 C 0.85913 0.37175 0.69771 0.0
C232 C 0.87093 0.37582 0.6828 0.0
C233 C 0.88719 0.38592 0.68599 0.0
N234 N 0.86339 0.37762 0.71531 0.0
C235 C 0.8793 0.38754 0.71855 0.0
Co236 Co 0.23538 0.12561 0.33994 0.0
Co237 Co 0.26212 0.15391 0.36794 0.0
O238 O 0.24874 0.13094 0.36286 0.0
C239 C 0.26233 0.095 0.34377 0.0
O240 O 0.27532 0.1077 0.34573 0.0
C241 C 0.2354 0.15044 0.39887 0.0
O242 O 0.22219 0.14836 0.38641 0.0
O243 O 0.24052 0.16919 0.35973 0.0
O244 O 0.22507 0.15136 0.33913 0.0
H245 H 0.28519 0.21851 0.35428 0.0
H246 H 0.23083 0.10109 0.37291 0.0
O247 O 0.24553 0.09977 0.34067 0.0
H248 H 0.16785 0.12443 0.35872 0.0
H249 H 0.19722 0.08508 0.29739 0.0
H250 H 0.22867 0.1457 0.30449 0.0
H251 H 0.19461 0.13353 0.33924 0.0
H252 H 0.21391 0.0928 0.32641 0.0
O253 O 0.25213 0.15341 0.39382 0.0
H254 H 0.26861 0.1892 0.34752 0.0
H255 H 0.28375 0.16775 0.40052 0.0
H256 H 0.21202 0.13863 0.27529 0.0
H257 H 0.20444 0.09153 0.39266 0.0
H258 H 0.19614 0.10813 0.27161 0.0
H259 H 0.17268 0.10326 0.38565 0.0
O260 O 0.2569 0.13377 0.32451 0.0
H261 H 0.29326 0.10147 0.40228 0.0
H262 H 0.30285 0.15461 0.35986 0.0
H263 H 0.32967 0.1352 0.36897 0.0
H264 H 0.32496 0.10842 0.39034 0.0
H265 H 0.26681 0.12115 0.3927 0.0
H266 H 0.30039 0.19688 0.40791 0.0
H267 H 0.30123 0.22249 0.38466 0.0
O268 O 0.2723 0.15453 0.34217 0.0
C269 C 0.22766 0.16669 0.34772 0.0
C270 C 0.28498 0.20744 0.3645 0.0
C271 C 0.29348 0.19531 0.39461 0.0
N272 N 0.27535 0.17674 0.37355 0.0
C273 C 0.27566 0.19079 0.36073 0.0
C274 C 0.28401 0.17886 0.39036 0.0
C275 C 0.29396 0.20966 0.38156 0.0
C276 C 0.21703 0.10613 0.36966 0.0
N277 N 0.21426 0.1178 0.35488 0.0
C278 C 0.20215 0.10072 0.38094 0.0
C279 C 0.18434 0.10733 0.37701 0.0
C280 C 0.18162 0.11922 0.36191 0.0
C281 C 0.19684 0.12436 0.35095 0.0
C282 C 0.20405 0.09844 0.29884 0.0
C283 C 0.22169 0.13245 0.30303 0.0
C284 C 0.21355 0.10286 0.31522 0.0
N285 N 0.22212 0.11974 0.31718 0.0
C286 C 0.21233 0.1285 0.28645 0.0
C287 C 0.20345 0.11138 0.28438 0.0
C288 C 0.26973 0.14584 0.3269 0.0
C289 C 0.2955 0.11313 0.393 0.0
C290 C 0.30068 0.14296 0.36913 0.0
C291 C 0.31593 0.13204 0.37427 0.0
C292 C 0.31328 0.11702 0.38628 0.0
N293 N 0.28329 0.13907 0.37579 0.0
C294 C 0.28058 0.12438 0.38758 0.0
Co295 Co 0.33938 0.76252 0.86858 0.0
Co296 Co 0.37035 0.73411 0.84521 0.0
O297 O 0.36279 0.74902 0.86654 0.0
C298 C 0.33893 0.73595 0.89969 0.0
O299 O 0.34469 0.72334 0.8878 0.0
C300 C 0.39962 0.76271 0.84819 0.0
O301 O 0.38641 0.77533 0.84828 0.0
O302 O 0.36237 0.75386 0.82738 0.0
O303 O 0.34231 0.77236 0.84283 0.0
H304 H 0.36303 0.70472 0.78214 0.0
H305 H 0.36863 0.76713 0.89735 0.0
O306 O 0.33608 0.75263 0.89437 0.0
H307 H 0.35828 0.82994 0.87161 0.0
H308 H 0.29186 0.80151 0.90219 0.0
H309 H 0.30716 0.76912 0.84362 0.0
H310 H 0.34007 0.80317 0.86019 0.0
H311 H 0.32156 0.78458 0.89885 0.0
O312 O 0.39567 0.74548 0.8468 0.0
H313 H 0.35314 0.72338 0.80921 0.0
H314 H 0.40495 0.71324 0.83585 0.0
H315 H 0.27737 0.78601 0.8463 0.0
H316 H 0.38705 0.79353 0.90931 0.0
H317 H 0.26957 0.80236 0.87576 0.0
H318 H 0.38196 0.8252 0.89638 0.0
O319 O 0.32498 0.74097 0.85874 0.0
H320 H 0.40184 0.70914 0.90252 0.0
H321 H 0.36392 0.69316 0.84755 0.0
H322 H 0.37261 0.66852 0.86985 0.0
H323 H 0.3917 0.67646 0.89757 0.0
H324 H 0.39273 0.73337 0.87995 0.0
H325 H 0.41546 0.69457 0.80901 0.0
H326 H 0.3944 0.69016 0.78193 0.0
O327 O 0.3452 0.72265 0.84342 0.0
C328 C 0.35128 0.76773 0.82823 0.0
C329 C 0.37231 0.7065 0.79387 0.0
C330 C 0.40175 0.70083 0.80894 0.0
N331 N 0.37841 0.7193 0.82413 0.0
C332 C 0.36678 0.71702 0.80926 0.0
C333 C 0.39574 0.71145 0.82408 0.0
C334 C 0.38992 0.69835 0.79376 0.0
C335 C 0.36624 0.78089 0.89176 0.0
N336 N 0.35326 0.78362 0.87812 0.0
C337 C 0.37675 0.79578 0.89854 0.0
C338 C 0.3739 0.81354 0.89126 0.0
C339 C 0.36063 0.81621 0.87736 0.0
C340 C 0.3504 0.80099 0.8709 0.0
C341 C 0.29512 0.79448 0.88927 0.0
C342 C 0.30391 0.77631 0.85644 0.0
C343 C 0.31189 0.78484 0.88731 0.0
N344 N 0.31613 0.77601 0.871 0.0
C345 C 0.287 0.7858 0.85789 0.0
C346 C 0.28262 0.79495 0.87443 0.0
C347 C 0.32884 0.72659 0.84905 0.0
C348 C 0.39356 0.7055 0.89046 0.0
C349 C 0.37223 0.69672 0.85958 0.0
C350 C 0.37713 0.68271 0.87214 0.0
C351 C 0.38785 0.68717 0.88769 0.0
N352 N 0.37791 0.71467 0.86238 0.0
C353 C 0.38843 0.71915 0.87759 0.0
Co354 Co 0.7589 0.86846 0.33835 0.0
Co355 Co 0.73028 0.84465 0.36874 0.0
O356 O 0.74489 0.8663 0.36147 0.0
C357 C 0.73287 0.90001 0.33777 0.0
O358 O 0.71983 0.88819 0.3427 0.0
C359 C 0.75719 0.84957 0.39932 0.0
O360 O 0.77038 0.8503 0.38669 0.0
O361 O 0.75097 0.82741 0.36222 0.0
O362 O 0.7683 0.84252 0.34097 0.0
H363 H 0.70372 0.78036 0.36138 0.0
H364 H 0.76354 0.89684 0.36797 0.0
O365 O 0.74953 0.89445 0.33532 0.0
H366 H 0.82595 0.86976 0.35876 0.0
H367 H 0.79944 0.90214 0.29217 0.0
H368 H 0.76559 0.84397 0.3058 0.0
H369 H 0.79933 0.85912 0.33985 0.0
H370 H 0.78186 0.8986 0.32147 0.0
O371 O 0.74031 0.84701 0.39453 0.0
H372 H 0.72187 0.80792 0.35187 0.0
H373 H 0.70788 0.83526 0.40238 0.0
H374 H 0.78311 0.84684 0.27639 0.0
H375 H 0.78979 0.90799 0.3871 0.0
H376 H 0.8002 0.8761 0.26943 0.0
H377 H 0.82126 0.89438 0.38258 0.0
O378 O 0.73745 0.85919 0.32349 0.0
H379 H 0.70202 0.90161 0.39791 0.0
H380 H 0.68962 0.84553 0.36032 0.0
H381 H 0.6639 0.86715 0.36739 0.0
H382 H 0.67004 0.89543 0.38632 0.0
H383 H 0.72736 0.8797 0.39039 0.0
H384 H 0.68968 0.80794 0.41251 0.0
H385 H 0.68746 0.78026 0.39191 0.0
O386 O 0.72006 0.84205 0.34307 0.0
C387 C 0.76445 0.82815 0.35067 0.0
C388 C 0.70452 0.79236 0.37045 0.0
C389 C 0.69667 0.80783 0.39916 0.0
N390 N 0.71579 0.82323 0.37649 0.0
C391 C 0.71473 0.80802 0.36512 0.0
C392 C 0.70702 0.82324 0.39337 0.0
C393 C 0.69542 0.79231 0.38759 0.0
C394 C 0.77722 0.89097 0.36581 0.0
N395 N 0.77992 0.87741 0.35275 0.0
C396 C 0.79202 0.89729 0.37673 0.0
C397 C 0.80967 0.88963 0.3742 0.0
C398 C 0.81231 0.87581 0.36085 0.0
C399 C 0.79718 0.86981 0.3502 0.0
C400 C 0.79208 0.88931 0.29506 0.0
C401 C 0.77309 0.85669 0.30291 0.0
C402 C 0.78208 0.88724 0.31161 0.0
N403 N 0.77284 0.87104 0.31539 0.0
C404 C 0.78294 0.85826 0.28622 0.0
C405 C 0.79251 0.87469 0.28231 0.0
C406 C 0.72367 0.84853 0.32694 0.0
C407 C 0.69917 0.88931 0.38969 0.0
C408 C 0.69241 0.85781 0.36854 0.0
C409 C 0.67778 0.86999 0.37253 0.0
C410 C 0.68123 0.88585 0.38316 0.0
N411 N 0.70996 0.86131 0.375 0.0
C412 C 0.71344 0.87681 0.38546 0.0
Co413 Co 0.65727 0.23384 0.86545 0.0
Co414 Co 0.62797 0.26375 0.8418 0.0
O415 O 0.63461 0.24851 0.86322 0.0
C416 C 0.65804 0.2594 0.89752 0.0
O417 O 0.65452 0.27305 0.88587 0.0
C418 C 0.59708 0.23712 0.84593 0.0
O419 O 0.60961 0.22383 0.84658 0.0
O420 O 0.63458 0.24342 0.82413 0.0
O421 O 0.65448 0.22459 0.83946 0.0
H422 H 0.63706 0.2923 0.77857 0.0
H423 H 0.62688 0.22994 0.89316 0.0
O424 O 0.66012 0.24284 0.89155 0.0
H425 H 0.63557 0.1672 0.8667 0.0
H426 H 0.70227 0.19212 0.89933 0.0
H427 H 0.68976 0.2264 0.84114 0.0
H428 H 0.65531 0.19337 0.85645 0.0
H429 H 0.67339 0.21035 0.89565 0.0
O430 O 0.60201 0.25398 0.84351 0.0
H431 H 0.6458 0.27322 0.80577 0.0
H432 H 0.59471 0.28665 0.83232 0.0
H433 H 0.71876 0.20822 0.84416 0.0
H434 H 0.60694 0.20415 0.90394 0.0
H435 H 0.72515 0.19092 0.87343 0.0
H436 H 0.61118 0.17252 0.89063 0.0
O437 O 0.67281 0.255 0.85647 0.0
H438 H 0.59837 0.29091 0.89908 0.0
H439 H 0.63685 0.30426 0.84381 0.0
H440 H 0.6298 0.3295 0.86598 0.0
H441 H 0.61043 0.3229 0.89385 0.0
H442 H 0.60585 0.26605 0.87663 0.0
H443 H 0.58535 0.30577 0.80535 0.0
H444 H 0.60663 0.30874 0.77825 0.0
O445 O 0.65379 0.27362 0.83999 0.0
C446 C 0.64529 0.22927 0.825 0.0
C447 C 0.62768 0.29115 0.79031 0.0
C448 C 0.59865 0.29869 0.80533 0.0
N449 N 0.62082 0.27891 0.82064 0.0
C450 C 0.63258 0.2804 0.80576 0.0
C451 C 0.604 0.28781 0.82054 0.0
C452 C 0.6106 0.30036 0.79013 0.0
C453 C 0.62891 0.21619 0.8874 0.0
N454 N 0.64224 0.21316 0.87418 0.0
C455 C 0.61753 0.20165 0.89352 0.0
C456 C 0.6199 0.18391 0.88603 0.0
C457 C 0.63357 0.18092 0.87259 0.0
C458 C 0.64467 0.1958 0.86679 0.0
C459 C 0.69962 0.19957 0.8865 0.0
C460 C 0.6924 0.2188 0.85387 0.0
C461 C 0.68332 0.20994 0.88435 0.0
N462 N 0.67984 0.21929 0.86814 0.0
C463 C 0.70886 0.20858 0.85552 0.0
C464 C 0.71245 0.19889 0.87195 0.0
C465 C 0.66978 0.26929 0.84635 0.0
C466 C 0.60678 0.29398 0.88696 0.0
C467 C 0.62842 0.30127 0.85591 0.0
C468 C 0.62445 0.31563 0.8684 0.0
C469 C 0.61357 0.31191 0.88403 0.0
N470 N 0.62169 0.28371 0.85887 0.0
C471 C 0.611 0.27997 0.87416 0.0
Co472 Co 0.26425 0.84093 0.628 0.0
Co473 Co 0.23215 0.86589 0.6537 0.0
O474 O 0.24802 0.8623 0.632 0.0
C475 C 0.23758 0.84019 0.5969 0.0
O476 O 0.22456 0.84421 0.60905 0.0
C477 C 0.25776 0.89799 0.6537 0.0
O478 O 0.27144 0.88626 0.65069 0.0
O479 O 0.25227 0.85763 0.671 0.0
O480 O 0.27401 0.84299 0.65382 0.0
H481 H 0.20261 0.84808 0.71457 0.0
H482 H 0.26485 0.87266 0.60157 0.0
O483 O 0.25447 0.83845 0.60207 0.0
H484 H 0.32871 0.8684 0.62641 0.0
H485 H 0.30824 0.80141 0.59043 0.0
H486 H 0.27528 0.80796 0.6503 0.0
H487 H 0.30458 0.84607 0.63636 0.0
H488 H 0.28784 0.82842 0.59626 0.0
O489 O 0.24115 0.89208 0.65567 0.0
H490 H 0.22246 0.84338 0.68694 0.0
H491 H 0.20803 0.89705 0.66673 0.0
H492 H 0.29565 0.7808 0.64513 0.0
H493 H 0.28857 0.8952 0.59113 0.0
H494 H 0.3123 0.7774 0.615 0.0
H495 H 0.32075 0.89318 0.60362 0.0
O496 O 0.24479 0.82318 0.63676 0.0
H497 H 0.20551 0.9019 0.59992 0.0
H498 H 0.1919 0.85657 0.64966 0.0
H499 H 0.16696 0.86582 0.62794 0.0
H500 H 0.17371 0.88866 0.60285 0.0
H501 H 0.23008 0.89214 0.62184 0.0
H502 H 0.18813 0.90239 0.6942 0.0
H503 H 0.18528 0.87777 0.71833 0.0
O504 O 0.22299 0.83985 0.65189 0.0
C505 C 0.26778 0.84913 0.66926 0.0
C506 C 0.2037 0.85889 0.70413 0.0
C507 C 0.1956 0.88939 0.69271 0.0
N508 N 0.21632 0.86988 0.6752 0.0
C509 C 0.21488 0.85629 0.68844 0.0
C510 C 0.20692 0.8863 0.67721 0.0
C511 C 0.194 0.87556 0.70624 0.0
C512 C 0.27886 0.87159 0.60694 0.0
N513 N 0.28335 0.85803 0.6195 0.0
C514 C 0.29222 0.88444 0.60103 0.0
C515 C 0.31027 0.88331 0.60806 0.0
C516 C 0.31474 0.86942 0.62086 0.0
C517 C 0.30101 0.85684 0.62647 0.0
C518 C 0.30109 0.80275 0.60362 0.0
C519 C 0.28257 0.80663 0.6372 0.0
C520 C 0.28949 0.81799 0.60698 0.0
N521 N 0.28048 0.81981 0.62365 0.0
C522 C 0.29404 0.7912 0.63433 0.0
C523 C 0.30336 0.78929 0.61742 0.0
C524 C 0.2294 0.8246 0.64551 0.0
C525 C 0.20239 0.89197 0.61082 0.0
C526 C 0.19495 0.86647 0.63875 0.0
C527 C 0.18077 0.87169 0.62652 0.0
C528 C 0.18456 0.88452 0.61245 0.0
N529 N 0.21241 0.87384 0.63705 0.0
C530 C 0.21623 0.88644 0.62332 0.0
Co531 Co 0.62392 0.73197 0.15129 0.0
Co532 Co 0.65414 0.75997 0.12656 0.0
O533 O 0.63097 0.74617 0.12928 0.0
C534 C 0.59341 0.75892 0.14609 0.0
O535 O 0.60608 0.77205 0.14513 0.0
C536 C 0.65404 0.73341 0.09547 0.0
O537 O 0.64912 0.72065 0.10759 0.0
O538 O 0.66897 0.73857 0.13594 0.0
O539 O 0.64958 0.72165 0.15374 0.0
H540 H 0.71661 0.78405 0.14685 0.0
H541 H 0.60183 0.72851 0.11654 0.0
O542 O 0.59815 0.74208 0.14901 0.0
H543 H 0.62466 0.66518 0.13003 0.0
H544 H 0.58046 0.69223 0.18928 0.0
H545 H 0.64123 0.72414 0.18795 0.0
H546 H 0.63211 0.69125 0.15108 0.0
H547 H 0.5903 0.70991 0.16151 0.0
O548 O 0.65671 0.75015 0.10067 0.0
H549 H 0.68712 0.76681 0.15045 0.0
H550 H 0.67072 0.78233 0.0958 0.0
H551 H 0.63202 0.70651 0.21595 0.0
H552 H 0.59392 0.70281 0.0952 0.0
H553 H 0.60142 0.69039 0.21672 0.0
H554 H 0.60542 0.67089 0.10186 0.0
O555 O 0.63076 0.75295 0.16805 0.0
H556 H 0.60501 0.7906 0.08728 0.0
H557 H 0.65307 0.80056 0.13529 0.0
H558 H 0.63417 0.82713 0.12452 0.0
H559 H 0.60995 0.82223 0.10033 0.0
H560 H 0.62414 0.76439 0.09855 0.0
H561 H 0.70009 0.79963 0.09154 0.0
H562 H 0.72324 0.80062 0.11722 0.0
O563 O 0.652 0.76981 0.1524 0.0
C564 C 0.66561 0.72501 0.1469 0.0
C565 C 0.7066 0.78378 0.13558 0.0
C566 C 0.69735 0.7925 0.10453 0.0
N567 N 0.67716 0.77371 0.12341 0.0
C568 C 0.68987 0.77409 0.13756 0.0
C569 C 0.68076 0.78266 0.10701 0.0
C570 C 0.71033 0.79305 0.11895 0.0
C571 C 0.60673 0.71462 0.11964 0.0
N572 N 0.61735 0.71138 0.13509 0.0
C573 C 0.60227 0.70014 0.10746 0.0
C574 C 0.60875 0.68224 0.11119 0.0
C575 C 0.61956 0.67903 0.12699 0.0
C576 C 0.62376 0.69386 0.13884 0.0
C577 C 0.59383 0.69916 0.18909 0.0
C578 C 0.62795 0.71707 0.18814 0.0
C579 C 0.59946 0.70922 0.17343 0.0
N580 N 0.61638 0.71791 0.17307 0.0
C581 C 0.62278 0.70715 0.20405 0.0
C582 C 0.60561 0.69813 0.20449 0.0
C583 C 0.64244 0.76629 0.16695 0.0
C584 C 0.61556 0.79292 0.09778 0.0
C585 C 0.64254 0.79831 0.12478 0.0
C586 C 0.6319 0.81342 0.11871 0.0
C587 C 0.61832 0.81066 0.10513 0.0
N588 N 0.63977 0.78096 0.11749 0.0
C589 C 0.62648 0.77815 0.10416 0.0
Co590 Co 0.72893 0.15667 0.62495 0.0
Co591 Co 0.75997 0.13058 0.65086 0.0
O592 O 0.74513 0.13523 0.62863 0.0
C593 C 0.75645 0.15889 0.59477 0.0
O594 O 0.76917 0.15511 0.60732 0.0
C595 C 0.73546 0.09788 0.64747 0.0
O596 O 0.72151 0.10946 0.64518 0.0
O597 O 0.73868 0.13684 0.66749 0.0
O598 O 0.71848 0.15374 0.65047 0.0
H599 H 0.7857 0.14465 0.71438 0.0
H600 H 0.72908 0.12582 0.59753 0.0
O601 O 0.73935 0.16 0.59938 0.0
H602 H 0.66457 0.12923 0.62077 0.0
H603 H 0.68575 0.19736 0.58765 0.0
H604 H 0.71746 0.18894 0.64797 0.0
H605 H 0.68838 0.15126 0.63203 0.0
H606 H 0.70603 0.17017 0.59308 0.0
O607 O 0.75185 0.10403 0.65032 0.0
H608 H 0.76708 0.15077 0.68618 0.0
H609 H 0.78449 0.09933 0.66283 0.0
H610 H 0.69718 0.21626 0.6432 0.0
H611 H 0.70568 0.1036 0.58577 0.0
H612 H 0.68116 0.22059 0.61285 0.0
H613 H 0.67318 0.10518 0.59746 0.0
O614 O 0.74815 0.17409 0.63472 0.0
H615 H 0.79091 0.09958 0.59629 0.0
H616 H 0.7999 0.14188 0.64961 0.0
H617 H 0.82631 0.13519 0.62872 0.0
H618 H 0.82189 0.1139 0.60183 0.0
H619 H 0.76484 0.10676 0.61745 0.0
H620 H 0.8032 0.09257 0.69084 0.0
H621 H 0.80393 0.11536 0.71684 0.0
O622 O 0.76819 0.15699 0.65162 0.0
C623 C 0.72359 0.14603 0.66563 0.0
C624 C 0.78553 0.13463 0.70313 0.0
C625 C 0.79533 0.10539 0.68993 0.0
N626 N 0.77478 0.12547 0.67285 0.0
C627 C 0.77504 0.13804 0.68711 0.0
C628 C 0.78467 0.10926 0.67413 0.0
C629 C 0.79574 0.11818 0.70451 0.0
C630 C 0.71492 0.12669 0.60256 0.0
N631 N 0.71008 0.13985 0.61541 0.0
C632 C 0.70175 0.11403 0.5959 0.0
C633 C 0.68352 0.11491 0.60248 0.0
C634 C 0.67869 0.12839 0.61557 0.0
C635 C 0.69223 0.1408 0.62193 0.0
C636 C 0.69262 0.19561 0.60094 0.0
C637 C 0.71043 0.19068 0.63478 0.0
C638 C 0.70415 0.18026 0.60409 0.0
N639 N 0.71279 0.17791 0.62088 0.0
C640 C 0.69902 0.2062 0.63213 0.0
C641 C 0.69005 0.20863 0.61509 0.0
C642 C 0.76255 0.17246 0.64499 0.0
C643 C 0.79302 0.10884 0.60799 0.0
C644 C 0.79786 0.13261 0.63794 0.0
C645 C 0.81288 0.12885 0.62617 0.0
C646 C 0.81039 0.1169 0.61109 0.0
N647 N 0.78087 0.12464 0.63481 0.0
C648 C 0.77833 0.11289 0.62007 0.0
Co649 Co 0.36947 0.26018 0.15112 0.0
Co650 Co 0.3421 0.23049 0.12507 0.0
O651 O 0.36427 0.24563 0.12884 0.0
C652 C 0.40133 0.23468 0.14763 0.0
O653 O 0.38927 0.22107 0.14584 0.0
C654 C 0.3418 0.25741 0.0943 0.0
O655 O 0.34581 0.2702 0.1067 0.0
O656 O 0.32564 0.25084 0.13397 0.0
O657 O 0.34325 0.2692 0.15219 0.0
H658 H 0.2804 0.20255 0.14255 0.0
H659 H 0.39323 0.26471 0.11762 0.0
O660 O 0.39577 0.25131 0.15027 0.0
H661 H 0.36653 0.32682 0.12954 0.0
H662 H 0.40889 0.30211 0.1911 0.0
H663 H 0.34992 0.2672 0.18681 0.0
H664 H 0.35922 0.30042 0.15025 0.0
H665 H 0.40139 0.28389 0.16296 0.0
O666 O 0.33992 0.24046 0.0992 0.0
H667 H 0.30864 0.22146 0.14751 0.0
H668 H 0.32819 0.20749 0.09349 0.0
H669 H 0.35679 0.28534 0.21514 0.0
H670 H 0.40102 0.29076 0.09665 0.0
H671 H 0.38646 0.30297 0.21741 0.0
H672 H 0.38758 0.32207 0.10252 0.0
O673 O 0.36281 0.23894 0.1676 0.0
H674 H 0.39453 0.20334 0.08758 0.0
H675 H 0.34535 0.18997 0.13358 0.0
H676 H 0.36628 0.16472 0.12341 0.0
H677 H 0.39109 0.17135 0.10024 0.0
H678 H 0.37337 0.22821 0.09822 0.0
H679 H 0.30008 0.18854 0.08787 0.0
H680 H 0.27599 0.18593 0.11255 0.0
O681 O 0.34378 0.22052 0.1509 0.0
C682 C 0.32773 0.26472 0.14483 0.0
C683 C 0.29083 0.20353 0.13172 0.0
C684 C 0.30187 0.19568 0.10102 0.0
N685 N 0.32011 0.21543 0.12087 0.0
C686 C 0.30687 0.21416 0.13447 0.0
C687 C 0.31773 0.20645 0.10426 0.0
C688 C 0.28836 0.19422 0.11487 0.0
C689 C 0.38748 0.27834 0.12038 0.0
N690 N 0.37586 0.28105 0.1352 0.0
C691 C 0.39188 0.29302 0.10841 0.0
C692 C 0.38431 0.31058 0.11169 0.0
C693 C 0.37248 0.31324 0.12684 0.0
C694 C 0.36837 0.29823 0.1385 0.0
C695 C 0.3959 0.29452 0.19026 0.0
C696 C 0.36281 0.27493 0.18765 0.0
C697 C 0.3916 0.28415 0.17438 0.0
N698 N 0.37517 0.27463 0.1732 0.0
C699 C 0.36665 0.28513 0.20375 0.0
C700 C 0.38331 0.295 0.20502 0.0
C701 C 0.35223 0.22477 0.16593 0.0
C702 C 0.38374 0.20027 0.09763 0.0
C703 C 0.35612 0.19296 0.1235 0.0
C704 C 0.36791 0.1786 0.11777 0.0
C705 C 0.38182 0.18233 0.10477 0.0
N706 N 0.35808 0.21052 0.11642 0.0
C707 C 0.37167 0.21428 0.10365 0.0
Co708 Co 0.86739 0.65413 0.76289 0.0
Co709 Co 0.83972 0.62504 0.73683 0.0
O710 O 0.86259 0.63078 0.75014 0.0
C711 C 0.89914 0.64981 0.73728 0.0
O712 O 0.88708 0.64722 0.72378 0.0
C713 C 0.84403 0.59472 0.764 0.0
O714 O 0.84528 0.60756 0.77694 0.0
O715 O 0.82427 0.63301 0.75834 0.0
O716 O 0.84127 0.65527 0.77229 0.0
H717 H 0.7746 0.63647 0.71398 0.0
H718 H 0.89176 0.62146 0.76952 0.0
O719 O 0.89357 0.65321 0.75376 0.0
H720 H 0.86629 0.6379 0.83111 0.0
H721 H 0.90635 0.69829 0.80086 0.0
H722 H 0.84702 0.68974 0.76737 0.0
H723 H 0.85811 0.65637 0.80333 0.0
H724 H 0.89933 0.66861 0.78507 0.0
O725 O 0.84103 0.59926 0.74711 0.0
H726 H 0.80371 0.64422 0.73047 0.0
H727 H 0.82687 0.59197 0.71538 0.0
H728 H 0.85339 0.7196 0.7831 0.0
H729 H 0.90042 0.60269 0.79694 0.0
H730 H 0.88324 0.72401 0.8 0.0
H731 H 0.8876 0.61085 0.82801 0.0
O732 O 0.86003 0.66854 0.74044 0.0
H733 H 0.89276 0.59168 0.70568 0.0
H734 H 0.83885 0.63311 0.69611 0.0
H735 H 0.85835 0.62429 0.66926 0.0
H736 H 0.88552 0.60341 0.67396 0.0
H737 H 0.873 0.60096 0.73216 0.0
H738 H 0.79795 0.58357 0.69884 0.0
H739 H 0.77159 0.60595 0.698 0.0
O740 O 0.83831 0.65079 0.72644 0.0
C741 C 0.82627 0.64596 0.77031 0.0
C742 C 0.78601 0.62664 0.71417 0.0
C743 C 0.79911 0.59693 0.7057 0.0
N744 N 0.81703 0.61865 0.72369 0.0
C745 C 0.80255 0.63098 0.72342 0.0
C746 C 0.81543 0.60175 0.7151 0.0
C747 C 0.78433 0.6095 0.70523 0.0
C748 C 0.88626 0.6252 0.78301 0.0
N749 N 0.87449 0.64004 0.78483 0.0
C750 C 0.89115 0.61448 0.79848 0.0
C751 C 0.88394 0.61904 0.8159 0.0
C752 C 0.87197 0.63421 0.81765 0.0
C753 C 0.86735 0.6446 0.80186 0.0
C754 C 0.89328 0.69652 0.79358 0.0
C755 C 0.85999 0.69152 0.7748 0.0
C756 C 0.88925 0.67977 0.78458 0.0
N757 N 0.87272 0.67741 0.77545 0.0
C758 C 0.86354 0.70848 0.78363 0.0
C759 C 0.8803 0.71095 0.79309 0.0
C760 C 0.8475 0.66591 0.72812 0.0
C761 C 0.88093 0.60073 0.70345 0.0
C762 C 0.85067 0.62404 0.69827 0.0
C763 C 0.86164 0.61907 0.68301 0.0
C764 C 0.87687 0.60734 0.68566 0.0
N765 N 0.85472 0.61747 0.71568 0.0
C766 C 0.86963 0.60597 0.71838 0.0
Co767 Co 0.84261 0.36994 0.26327 0.0
Co768 Co 0.87102 0.34215 0.23654 0.0
O769 O 0.8656 0.36502 0.2499 0.0
C770 C 0.84606 0.40076 0.23654 0.0
O771 O 0.84796 0.38814 0.22347 0.0
C772 C 0.90191 0.34635 0.26309 0.0
O773 O 0.88937 0.34805 0.27628 0.0
O774 O 0.86338 0.32682 0.25827 0.0
O775 O 0.84197 0.34403 0.27329 0.0
H776 H 0.85871 0.2771 0.21397 0.0
H777 H 0.8752 0.39486 0.26828 0.0
O778 O 0.84313 0.39589 0.25335 0.0
H779 H 0.86118 0.37032 0.33086 0.0
H780 H 0.79955 0.40963 0.30171 0.0
H781 H 0.80728 0.3495 0.26949 0.0
H782 H 0.84193 0.36133 0.30389 0.0
H783 H 0.82871 0.40235 0.28508 0.0
O784 O 0.89697 0.34329 0.24634 0.0
H785 H 0.85142 0.30632 0.23049 0.0
H786 H 0.90367 0.329 0.21462 0.0
H787 H 0.77794 0.35613 0.28607 0.0
H788 H 0.89472 0.4043 0.29489 0.0
H789 H 0.77394 0.38639 0.30233 0.0
H790 H 0.88779 0.39197 0.32645 0.0
O791 O 0.82742 0.36186 0.24161 0.0
H792 H 0.90395 0.39508 0.20473 0.0
H793 H 0.86234 0.34118 0.19595 0.0
H794 H 0.87073 0.36064 0.16892 0.0
H795 H 0.89169 0.3878 0.17322 0.0
H796 H 0.8951 0.37534 0.2314 0.0
H797 H 0.9116 0.29997 0.19804 0.0
H798 H 0.88899 0.2738 0.19759 0.0
O799 O 0.84513 0.34086 0.22661 0.0
C800 C 0.85105 0.32895 0.27087 0.0
C801 C 0.86865 0.28843 0.21401 0.0
C802 C 0.89834 0.30126 0.20509 0.0
N803 N 0.87704 0.31939 0.22336 0.0
C804 C 0.86458 0.30502 0.22329 0.0
C805 C 0.8938 0.31764 0.21452 0.0
C806 C 0.88565 0.28658 0.20484 0.0
C807 C 0.87198 0.38957 0.282 0.0
N808 N 0.85737 0.37764 0.28454 0.0
C809 C 0.88313 0.39491 0.297 0.0
C810 C 0.87925 0.38796 0.3147 0.0
C811 C 0.86433 0.37581 0.31718 0.0
C812 C 0.8535 0.37074 0.30185 0.0
C813 C 0.80114 0.39638 0.29471 0.0
C814 C 0.80568 0.36264 0.27664 0.0
C815 C 0.8176 0.3922 0.28525 0.0
N816 N 0.81974 0.37545 0.27648 0.0
C817 C 0.78902 0.36634 0.28595 0.0
C818 C 0.78678 0.38333 0.29506 0.0
C819 C 0.82984 0.34957 0.22902 0.0
C820 C 0.89485 0.38325 0.20267 0.0
C821 C 0.87145 0.35299 0.19794 0.0
C822 C 0.87618 0.36394 0.18257 0.0
C823 C 0.88795 0.37917 0.185 0.0
N824 N 0.8783 0.35706 0.21522 0.0
C825 C 0.88986 0.37197 0.2177 0.0
Co826 Co 0.15219 0.36778 0.7348 0.0
Co827 Co 0.12703 0.33797 0.76295 0.0
O828 O 0.13007 0.36101 0.74896 0.0
C829 C 0.14766 0.3983 0.76189 0.0
O830 O 0.14641 0.38569 0.77506 0.0
C831 C 0.09638 0.3378 0.73585 0.0
O832 O 0.10863 0.34285 0.72327 0.0
O833 O 0.13679 0.32287 0.74193 0.0
O834 O 0.15409 0.34215 0.72428 0.0
H835 H 0.14648 0.27558 0.78795 0.0
H836 H 0.11765 0.39022 0.73164 0.0
O837 O 0.15042 0.39349 0.74505 0.0
H838 H 0.13111 0.36847 0.66794 0.0
H839 H 0.19102 0.41087 0.69545 0.0
H840 H 0.18847 0.34981 0.72679 0.0
H841 H 0.15207 0.36044 0.69393 0.0
H842 H 0.16307 0.40142 0.71304 0.0
O843 O 0.10133 0.33531 0.7527 0.0
H844 H 0.15054 0.30484 0.77043 0.0
H845 H 0.09587 0.32188 0.78509 0.0
H846 H 0.21664 0.35864 0.70922 0.0
H847 H 0.09641 0.39874 0.70604 0.0
H848 H 0.21803 0.38937 0.6934 0.0
H849 H 0.10304 0.38777 0.67392 0.0
O850 O 0.16889 0.36053 0.75578 0.0
H851 H 0.08732 0.38749 0.79232 0.0
H852 H 0.1352 0.33959 0.80362 0.0
H853 H 0.12403 0.35882 0.82979 0.0
H854 H 0.09991 0.38296 0.82421 0.0
H855 H 0.09897 0.36803 0.76653 0.0
H856 H 0.09114 0.29273 0.80265 0.0
H857 H 0.1166 0.26937 0.80422 0.0
O858 O 0.15267 0.34011 0.77313 0.0
C859 C 0.14745 0.32613 0.72811 0.0
C860 C 0.13531 0.28567 0.78743 0.0
C861 C 0.10424 0.29529 0.79566 0.0
N862 N 0.12353 0.31512 0.7769 0.0
C863 C 0.13755 0.30229 0.77759 0.0
C864 C 0.10698 0.31176 0.78567 0.0
C865 C 0.11853 0.2822 0.79654 0.0
C866 C 0.12072 0.38552 0.71768 0.0
N867 N 0.13608 0.37483 0.71429 0.0
C868 C 0.1086 0.39034 0.70325 0.0
C869 C 0.11232 0.38416 0.68524 0.0
C870 C 0.12805 0.37332 0.68187 0.0
C871 C 0.13984 0.36875 0.69665 0.0
C872 C 0.19056 0.39743 0.70225 0.0
C873 C 0.18893 0.36316 0.71983 0.0
C874 C 0.1748 0.39202 0.71226 0.0
N875 N 0.1741 0.37502 0.72079 0.0
C876 C 0.20493 0.3681 0.70996 0.0
C877 C 0.20571 0.38535 0.7011 0.0
C878 C 0.16745 0.3492 0.7694 0.0
C879 C 0.09779 0.37698 0.79493 0.0
C880 C 0.12471 0.35008 0.80109 0.0
C881 C 0.11842 0.3609 0.81596 0.0
C882 C 0.10488 0.37444 0.81282 0.0
N883 N 0.11765 0.35262 0.78359 0.0
C884 C 0.10438 0.36587 0.7804 0.0
Co885 Co 0.12351 0.6573 0.23527 0.0
Co886 Co 0.15014 0.62748 0.26171 0.0
O887 O 0.12734 0.63393 0.24849 0.0
C888 C 0.0922 0.65546 0.26154 0.0
O889 O 0.10432 0.65085 0.27441 0.0
C890 C 0.14462 0.59635 0.23561 0.0
O891 O 0.14304 0.60869 0.22221 0.0
O892 O 0.16563 0.63411 0.23976 0.0
O893 O 0.14954 0.65691 0.22559 0.0
H894 H 0.21605 0.63669 0.28331 0.0
H895 H 0.09707 0.62612 0.22967 0.0
O896 O 0.09747 0.6583 0.24485 0.0
H897 H 0.12322 0.63922 0.16755 0.0
H898 H 0.08657 0.70243 0.1964 0.0
H899 H 0.14545 0.69189 0.23012 0.0
H900 H 0.13278 0.65782 0.19478 0.0
H901 H 0.09226 0.67277 0.21278 0.0
O902 O 0.14778 0.60152 0.25227 0.0
H903 H 0.18707 0.6452 0.26695 0.0
H904 H 0.16183 0.59456 0.28411 0.0
H905 H 0.14041 0.7217 0.21379 0.0
H906 H 0.08702 0.60726 0.20279 0.0
H907 H 0.11079 0.72711 0.19677 0.0
H908 H 0.10017 0.61374 0.17146 0.0
O909 O 0.13187 0.67183 0.25722 0.0
H910 H 0.09634 0.59697 0.29443 0.0
H911 H 0.15179 0.63671 0.30218 0.0
H912 H 0.13232 0.62935 0.32949 0.0
H913 H 0.10438 0.60933 0.32571 0.0
H914 H 0.11609 0.6048 0.26747 0.0
H915 H 0.19059 0.58541 0.30053 0.0
H916 H 0.21793 0.60659 0.30026 0.0
O917 O 0.15285 0.6534 0.27139 0.0
C918 C 0.16411 0.64695 0.22759 0.0
C919 C 0.2042 0.62738 0.2836 0.0
C920 C 0.18992 0.59858 0.29324 0.0
N921 N 0.17272 0.62049 0.27476 0.0
C922 C 0.18774 0.63216 0.27442 0.0
C923 C 0.17369 0.60383 0.2839 0.0
C924 C 0.20525 0.61048 0.29309 0.0
C925 C 0.10272 0.62913 0.21605 0.0
N926 N 0.11541 0.64312 0.21378 0.0
C927 C 0.09703 0.61836 0.2009 0.0
C928 C 0.10443 0.62199 0.18333 0.0
C929 C 0.11738 0.63627 0.18112 0.0
C930 C 0.12276 0.64674 0.1966 0.0
C931 C 0.09955 0.70021 0.20371 0.0
C932 C 0.13259 0.69409 0.22261 0.0
C933 C 0.10284 0.68346 0.21303 0.0
N934 N 0.11926 0.68054 0.22221 0.0
C935 C 0.12979 0.71102 0.21345 0.0
C936 C 0.11315 0.71405 0.20393 0.0
C937 C 0.1444 0.6689 0.26943 0.0
C938 C 0.10851 0.60567 0.29627 0.0
C939 C 0.13963 0.62803 0.30041 0.0
C940 C 0.12868 0.62387 0.31594 0.0
C941 C 0.11301 0.61263 0.31381 0.0
N942 N 0.13513 0.62113 0.28326 0.0
C943 C 0.11979 0.61008 0.28106 0.0
Co944 Co 0.76299 0.86853 0.65477 0.0
Co945 Co 0.73543 0.84116 0.62683 0.0
O946 O 0.74935 0.86381 0.63187 0.0
C947 C 0.73778 0.90056 0.65096 0.0
O948 O 0.72413 0.88858 0.64898 0.0
C949 C 0.76114 0.84481 0.59512 0.0
O950 O 0.77474 0.84619 0.60725 0.0
O951 O 0.75715 0.8255 0.63384 0.0
O952 O 0.7718 0.8422 0.65591 0.0
H953 H 0.71201 0.77654 0.63988 0.0
H954 H 0.76913 0.89268 0.62181 0.0
O955 O 0.75433 0.89489 0.65388 0.0
H956 H 0.8305 0.86544 0.63617 0.0
H957 H 0.80341 0.90703 0.69711 0.0
H958 H 0.76793 0.84862 0.6906 0.0
H959 H 0.80315 0.85801 0.65557 0.0
H960 H 0.78652 0.90001 0.66802 0.0
O961 O 0.74448 0.84213 0.60059 0.0
H962 H 0.72928 0.80546 0.64665 0.0
H963 H 0.71239 0.82836 0.59481 0.0
H964 H 0.78472 0.855 0.71988 0.0
H965 H 0.79614 0.90059 0.60214 0.0
H966 H 0.80263 0.8844 0.72326 0.0
H967 H 0.82708 0.88689 0.60925 0.0
O968 O 0.74099 0.86172 0.67002 0.0
H969 H 0.70358 0.89453 0.59465 0.0
H970 H 0.69507 0.84086 0.63665 0.0
H971 H 0.66815 0.86073 0.62893 0.0
H972 H 0.67231 0.88778 0.60778 0.0
H973 H 0.73016 0.87439 0.60284 0.0
H974 H 0.69505 0.79964 0.5874 0.0
H975 H 0.69474 0.77351 0.61007 0.0
O976 O 0.72614 0.84003 0.65305 0.0
C977 C 0.76944 0.8273 0.64653 0.0
C978 C 0.71199 0.78785 0.62992 0.0
C979 C 0.70249 0.80081 0.60045 0.0
N980 N 0.72169 0.81862 0.62121 0.0
C981 C 0.7217 0.80427 0.6337 0.0
C982 C 0.71236 0.81702 0.6047 0.0
C983 C 0.70232 0.78616 0.61318 0.0
C984 C 0.78259 0.88681 0.6251 0.0
N985 N 0.78458 0.87499 0.63988 0.0
C986 C 0.79782 0.89128 0.61387 0.0
C987 C 0.81517 0.88356 0.61785 0.0
C988 C 0.81709 0.87152 0.63295 0.0
C989 C 0.80155 0.86734 0.64386 0.0
C990 C 0.7957 0.89415 0.69578 0.0
C991 C 0.77582 0.86136 0.69192 0.0
C992 C 0.7861 0.89011 0.67936 0.0
N993 N 0.77644 0.87382 0.67756 0.0
C994 C 0.78524 0.86494 0.70855 0.0
C995 C 0.79526 0.88144 0.71045 0.0
C996 C 0.72848 0.84928 0.66804 0.0
C997 C 0.70158 0.88275 0.60384 0.0
C998 C 0.69701 0.85263 0.62746 0.0
C999 C 0.6817 0.8638 0.62311 0.0
C1000 C 0.68405 0.87897 0.61123 0.0
N1001 N 0.71416 0.85641 0.62013 0.0
C1002 C 0.71656 0.87125 0.60846 0.0
Co1003 Co 0.65699 0.23077 0.12693 0.0
Co1004 Co 0.62948 0.2611 0.1521 0.0
O1005 O 0.63473 0.24583 0.13035 0.0
C1006 C 0.6568 0.25666 0.09513 0.0
O1007 O 0.65396 0.27019 0.10708 0.0
C1008 C 0.59791 0.23505 0.14966 0.0
O1009 O 0.61007 0.2215 0.14817 0.0
O1010 O 0.63675 0.24063 0.16937 0.0
O1011 O 0.65532 0.22139 0.15297 0.0
H1012 H 0.64256 0.2894 0.21473 0.0
H1013 H 0.62528 0.22772 0.10062 0.0
O1014 O 0.65879 0.23997 0.10079 0.0
H1015 H 0.63376 0.16464 0.12637 0.0
H1016 H 0.69937 0.18842 0.0906 0.0
H1017 H 0.69047 0.22239 0.14959 0.0
H1018 H 0.65454 0.19029 0.13581 0.0
H1019 H 0.67111 0.20724 0.09581 0.0
O1020 O 0.60334 0.25179 0.15186 0.0
H1021 H 0.64945 0.27024 0.18708 0.0
H1022 H 0.59715 0.28449 0.16345 0.0
H1023 H 0.71887 0.20362 0.14502 0.0
H1024 H 0.60428 0.20246 0.09066 0.0
H1025 H 0.72345 0.18647 0.11535 0.0
H1026 H 0.60841 0.17066 0.10362 0.0
O1027 O 0.67343 0.25149 0.13535 0.0
H1028 H 0.59715 0.2888 0.09655 0.0
H1029 H 0.63873 0.30151 0.14967 0.0
H1030 H 0.6308 0.32691 0.12796 0.0
H1031 H 0.60986 0.32062 0.10117 0.0
H1032 H 0.60555 0.26378 0.11852 0.0
H1033 H 0.58962 0.30371 0.19091 0.0
H1034 H 0.61245 0.3063 0.21676 0.0
O1035 O 0.65546 0.27054 0.15249 0.0
C1036 C 0.64711 0.22626 0.16794 0.0
C1037 C 0.63251 0.28842 0.20354 0.0
C1038 C 0.60279 0.29642 0.19018 0.0
N1039 N 0.62376 0.27633 0.17364 0.0
C1040 C 0.63636 0.27762 0.18783 0.0
C1041 C 0.60711 0.28548 0.17469 0.0
C1042 C 0.61561 0.29788 0.20467 0.0
C1043 C 0.62726 0.21389 0.10621 0.0
N1044 N 0.64113 0.21048 0.11879 0.0
C1045 C 0.61528 0.19965 0.10057 0.0
C1046 C 0.61759 0.18182 0.10786 0.0
C1047 C 0.6318 0.17844 0.12064 0.0
C1048 C 0.64349 0.19302 0.12598 0.0
C1049 C 0.69752 0.1958 0.1036 0.0
C1050 C 0.69231 0.21487 0.13669 0.0
C1051 C 0.68157 0.20651 0.10661 0.0
N1052 N 0.6791 0.21578 0.12304 0.0
C1053 C 0.70845 0.20431 0.13416 0.0
C1054 C 0.71102 0.1947 0.1175 0.0
C1055 C 0.6711 0.26586 0.14554 0.0
C1056 C 0.60625 0.29172 0.1082 0.0
C1057 C 0.62964 0.29866 0.13804 0.0
C1058 C 0.62517 0.31311 0.1258 0.0
C1059 C 0.61341 0.30957 0.11078 0.0
N1060 N 0.62256 0.28119 0.13541 0.0
C1061 C 0.611 0.27763 0.12073 0.0
Co1062 Co 0.23465 0.12848 0.65367 0.0
Co1063 Co 0.26548 0.15194 0.6252 0.0
O1064 O 0.24952 0.13088 0.63117 0.0
C1065 C 0.25951 0.09591 0.65389 0.0
O1066 O 0.27334 0.10737 0.65058 0.0
C1067 C 0.23859 0.14984 0.59436 0.0
O1068 O 0.22537 0.14911 0.60695 0.0
O1069 O 0.24586 0.17012 0.6325 0.0
O1070 O 0.22609 0.15474 0.65142 0.0
H1071 H 0.29636 0.21372 0.63635 0.0
H1072 H 0.23029 0.10148 0.62272 0.0
O1073 O 0.24304 0.10212 0.65601 0.0
H1074 H 0.16823 0.12956 0.63129 0.0
H1075 H 0.19172 0.09461 0.69751 0.0
H1076 H 0.2275 0.15221 0.68666 0.0
H1077 H 0.19448 0.13869 0.65148 0.0
H1078 H 0.21032 0.09851 0.66889 0.0
O1079 O 0.25556 0.15152 0.59924 0.0
H1080 H 0.27635 0.18695 0.64424 0.0
H1081 H 0.28857 0.16176 0.59217 0.0
H1082 H 0.20898 0.14896 0.71542 0.0
H1083 H 0.20441 0.09182 0.60233 0.0
H1084 H 0.19092 0.11999 0.72098 0.0
H1085 H 0.17313 0.10595 0.60651 0.0
O1086 O 0.25587 0.13663 0.6696 0.0
H1087 H 0.29046 0.09481 0.59348 0.0
H1088 H 0.30591 0.14814 0.63383 0.0
H1089 H 0.33032 0.12534 0.6259 0.0
H1090 H 0.32265 0.09844 0.60557 0.0
H1091 H 0.26645 0.11786 0.60186 0.0
H1092 H 0.30862 0.18833 0.58365 0.0
H1093 H 0.31266 0.21452 0.60586 0.0
O1094 O 0.27545 0.1525 0.65103 0.0
C1095 C 0.23149 0.16936 0.64292 0.0
C1096 C 0.29475 0.20237 0.62658 0.0
C1097 C 0.3016 0.18813 0.59699 0.0
N1098 N 0.28138 0.17277 0.61872 0.0
C1099 C 0.28347 0.18716 0.63098 0.0
C1100 C 0.2902 0.17315 0.60186 0.0
C1101 C 0.30387 0.20282 0.60946 0.0
C1102 C 0.21668 0.10758 0.62473 0.0
N1103 N 0.21389 0.12062 0.63829 0.0
C1104 C 0.20209 0.1021 0.61309 0.0
C1105 C 0.18455 0.11005 0.61543 0.0
C1106 C 0.1818 0.12331 0.62933 0.0
C1107 C 0.19672 0.12847 0.64068 0.0
C1108 C 0.1995 0.10731 0.69523 0.0
C1109 C 0.21957 0.13962 0.68894 0.0
C1110 C 0.21008 0.10958 0.67907 0.0
N1111 N 0.21985 0.12563 0.67606 0.0
C1112 C 0.20916 0.13783 0.70527 0.0
C1113 C 0.19905 0.12156 0.70839 0.0
C1114 C 0.27064 0.14613 0.66688 0.0
C1115 C 0.29399 0.1065 0.6023 0.0
C1116 C 0.30246 0.13647 0.62499 0.0
C1117 C 0.31635 0.12362 0.62052 0.0
C1118 C 0.31204 0.10853 0.60911 0.0
N1119 N 0.28479 0.13439 0.61824 0.0
C1120 C 0.28047 0.11964 0.60703 0.0
Co1121 Co 0.33627 0.76207 0.12621 0.0
Co1122 Co 0.36695 0.73631 0.15247 0.0
O1123 O 0.35981 0.74905 0.12959 0.0
C1124 C 0.33752 0.7355 0.09514 0.0
O1125 O 0.34234 0.72274 0.10731 0.0
C1126 C 0.39798 0.76219 0.14526 0.0
O1127 O 0.38564 0.77563 0.14407 0.0
O1128 O 0.36095 0.75868 0.16757 0.0
O1129 O 0.33724 0.77208 0.15213 0.0
H1130 H 0.35984 0.71624 0.21911 0.0
H1131 H 0.36676 0.76766 0.09898 0.0
O1132 O 0.33473 0.75222 0.1003 0.0
H1133 H 0.35371 0.82996 0.12469 0.0
H1134 H 0.28988 0.80016 0.09002 0.0
H1135 H 0.30223 0.76718 0.14898 0.0
H1136 H 0.3356 0.80267 0.13502 0.0
H1137 H 0.31981 0.78407 0.09511 0.0
O1138 O 0.39288 0.74561 0.14894 0.0
H1139 H 0.3504 0.73193 0.19004 0.0
H1140 H 0.40022 0.71418 0.16362 0.0
H1141 H 0.27218 0.78322 0.14455 0.0
H1142 H 0.38512 0.7946 0.08816 0.0
H1143 H 0.26586 0.79986 0.11489 0.0
H1144 H 0.37866 0.82601 0.10108 0.0
O1145 O 0.32222 0.74005 0.13511 0.0
H1146 H 0.39542 0.7022 0.09842 0.0
H1147 H 0.3577 0.69592 0.15545 0.0
H1148 H 0.36426 0.66813 0.13639 0.0
H1149 H 0.38326 0.67117 0.10766 0.0
H1150 H 0.38839 0.72966 0.11779 0.0
H1151 H 0.41028 0.69842 0.19245 0.0
H1152 H 0.38998 0.69933 0.22043 0.0
O1153 O 0.34106 0.72673 0.15629 0.0
C1154 C 0.3479 0.77064 0.16627 0.0
C1155 C 0.36877 0.71568 0.20699 0.0
C1156 C 0.3971 0.7057 0.19203 0.0
N1157 N 0.37466 0.72379 0.17511 0.0
C1158 C 0.36347 0.72448 0.19047 0.0
C1159 C 0.39134 0.71467 0.17576 0.0
C1160 C 0.3857 0.70621 0.20772 0.0
C1161 C 0.36375 0.78132 0.10454 0.0
N1162 N 0.35006 0.78361 0.11754 0.0
C1163 C 0.37424 0.7965 0.09841 0.0
C1164 C 0.37063 0.81412 0.10569 0.0
C1165 C 0.35664 0.81634 0.11895 0.0
C1166 C 0.34645 0.80083 0.12477 0.0
C1167 C 0.2925 0.793 0.10302 0.0
C1168 C 0.29963 0.77452 0.1361 0.0
C1169 C 0.3094 0.78385 0.10597 0.0
N1170 N 0.31282 0.77488 0.12241 0.0
C1171 C 0.28257 0.78352 0.13364 0.0
C1172 C 0.27902 0.79283 0.11699 0.0
C1173 C 0.32547 0.72821 0.14791 0.0
C1174 C 0.38717 0.70069 0.11094 0.0
C1175 C 0.36594 0.69737 0.14294 0.0
C1176 C 0.36964 0.68157 0.13223 0.0
C1177 C 0.38032 0.68329 0.11612 0.0
N1178 N 0.37272 0.71439 0.13778 0.0
C1179 C 0.38321 0.71617 0.12201 0.0
Co1180 Co 0.73325 0.15351 0.36875 0.0
Co1181 Co 0.76407 0.12659 0.34342 0.0
O1182 O 0.74849 0.1313 0.36518 0.0
C1183 C 0.75985 0.15409 0.39999 0.0
O1184 O 0.77282 0.1491 0.38814 0.0
C1185 C 0.73701 0.09573 0.34373 0.0
O1186 O 0.72416 0.10795 0.34813 0.0
O1187 O 0.74429 0.13539 0.32605 0.0
O1188 O 0.7233 0.15128 0.34303 0.0
H1189 H 0.79415 0.14216 0.2822 0.0
H1190 H 0.73125 0.1225 0.39594 0.0
O1191 O 0.74308 0.15621 0.3946 0.0
H1192 H 0.66757 0.12912 0.37114 0.0
H1193 H 0.69101 0.19584 0.40528 0.0
H1194 H 0.72395 0.18652 0.34576 0.0
H1195 H 0.69268 0.15005 0.36059 0.0
H1196 H 0.71011 0.16777 0.40012 0.0
O1197 O 0.75386 0.1008 0.34158 0.0
H1198 H 0.77453 0.1481 0.30974 0.0
H1199 H 0.7869 0.09428 0.3309 0.0
H1200 H 0.70487 0.21472 0.35027 0.0
H1201 H 0.70653 0.10138 0.40701 0.0
H1202 H 0.68824 0.21952 0.38021 0.0
H1203 H 0.67444 0.10458 0.39453 0.0
O1204 O 0.75353 0.17016 0.35964 0.0
H1205 H 0.78925 0.09001 0.39749 0.0
H1206 H 0.80465 0.13447 0.34747 0.0
H1207 H 0.82919 0.12441 0.36929 0.0
H1208 H 0.82155 0.10201 0.39451 0.0
H1209 H 0.7651 0.10056 0.37545 0.0
H1210 H 0.80653 0.08769 0.3035 0.0
H1211 H 0.81031 0.11176 0.27894 0.0
O1212 O 0.77434 0.15221 0.34472 0.0
C1213 C 0.72913 0.1445 0.32771 0.0
C1214 C 0.79265 0.13158 0.29282 0.0
C1215 C 0.79958 0.10099 0.30477 0.0
N1216 N 0.77966 0.1216 0.32195 0.0
C1217 C 0.7816 0.13488 0.30847 0.0
C1218 C 0.78841 0.10479 0.32022 0.0
C1219 C 0.8017 0.11451 0.291 0.0
C1220 C 0.71728 0.12408 0.39057 0.0
N1221 N 0.7134 0.13752 0.37768 0.0
C1222 C 0.70336 0.11204 0.39684 0.0
C1223 C 0.68536 0.11383 0.38981 0.0
C1224 C 0.6815 0.12759 0.37668 0.0
C1225 C 0.69578 0.13936 0.37072 0.0
C1226 C 0.69816 0.19389 0.39216 0.0
C1227 C 0.71665 0.18845 0.35878 0.0
C1228 C 0.70902 0.17805 0.38917 0.0
N1229 N 0.71802 0.17546 0.37261 0.0
C1230 C 0.70592 0.20448 0.36127 0.0
C1231 C 0.69661 0.20717 0.37808 0.0
C1232 C 0.76876 0.16791 0.35078 0.0
C1233 C 0.79276 0.09974 0.38653 0.0
C1234 C 0.80121 0.12474 0.35843 0.0
C1235 C 0.81517 0.11907 0.37072 0.0
C1236 C 0.81088 0.10649 0.38486 0.0
N1237 N 0.78348 0.11804 0.36014 0.0
C1238 C 0.77917 0.1057 0.37397 0.0
Co1239 Co 0.37075 0.26035 0.84199 0.0
Co1240 Co 0.3404 0.23383 0.86795 0.0
O1241 O 0.36374 0.24719 0.86468 0.0
C1242 C 0.40173 0.23429 0.84861 0.0
O1243 O 0.38936 0.22088 0.84976 0.0
C1244 C 0.34123 0.26037 0.89908 0.0
O1245 O 0.34602 0.2732 0.88698 0.0
O1246 O 0.32598 0.25566 0.85902 0.0
O1247 O 0.3449 0.27001 0.83856 0.0
H1248 H 0.27692 0.21128 0.84911 0.0
H1249 H 0.39246 0.26623 0.87665 0.0
O1250 O 0.39667 0.25092 0.84513 0.0
H1251 H 0.3683 0.32817 0.85951 0.0
H1252 H 0.4139 0.2989 0.80245 0.0
H1253 H 0.35394 0.26552 0.80462 0.0
H1254 H 0.36157 0.3008 0.83991 0.0
H1255 H 0.40399 0.28264 0.83105 0.0
O1256 O 0.33859 0.24364 0.89386 0.0
H1257 H 0.3067 0.22787 0.84486 0.0
H1258 H 0.32404 0.21174 0.89905 0.0
H1259 H 0.36324 0.2817 0.77578 0.0
H1260 H 0.39965 0.29326 0.89655 0.0
H1261 H 0.39342 0.29855 0.77458 0.0
H1262 H 0.38748 0.3245 0.88805 0.0
O1263 O 0.36454 0.23836 0.82641 0.0
H1264 H 0.38964 0.20209 0.90618 0.0
H1265 H 0.34033 0.1932 0.85923 0.0
H1266 H 0.35882 0.1662 0.86965 0.0
H1267 H 0.38367 0.17056 0.89331 0.0
H1268 H 0.3709 0.22874 0.89527 0.0
H1269 H 0.29438 0.19512 0.90396 0.0
H1270 H 0.27062 0.19475 0.87883 0.0
O1271 O 0.34167 0.22385 0.84207 0.0
C1272 C 0.32924 0.26797 0.84666 0.0
C1273 C 0.28719 0.21129 0.86013 0.0
C1274 C 0.29698 0.20223 0.89093 0.0
N1275 N 0.31714 0.22063 0.87163 0.0
C1276 C 0.3041 0.22061 0.85779 0.0
C1277 C 0.31373 0.2117 0.88809 0.0
C1278 C 0.28366 0.20203 0.87682 0.0
C1279 C 0.38727 0.27981 0.87275 0.0
N1280 N 0.37668 0.28194 0.85708 0.0
C1281 C 0.39133 0.29505 0.88412 0.0
C1282 C 0.38447 0.31257 0.87936 0.0
C1283 C 0.37369 0.31464 0.86335 0.0
C1284 C 0.3699 0.29908 0.85233 0.0
C1285 C 0.40069 0.29165 0.80282 0.0
C1286 C 0.36703 0.27294 0.80424 0.0
C1287 C 0.39502 0.2824 0.81896 0.0
N1288 N 0.37832 0.27331 0.81955 0.0
C1289 C 0.37225 0.28202 0.78786 0.0
C1290 C 0.3892 0.29145 0.78719 0.0
C1291 C 0.35192 0.22594 0.82772 0.0
C1292 C 0.37881 0.20001 0.89591 0.0
C1293 C 0.35114 0.19522 0.8695 0.0
C1294 C 0.36154 0.17987 0.87538 0.0
C1295 C 0.37548 0.18232 0.88866 0.0
N1296 N 0.35448 0.21251 0.8767 0.0
C1297 C 0.36811 0.21503 0.88973 0.0
Co1298 Co 0.26565 0.83842 0.37074 0.0
Co1299 Co 0.23997 0.86833 0.34353 0.0
O1300 O 0.25264 0.86185 0.36664 0.0
C1301 C 0.23886 0.84048 0.4016 0.0
O1302 O 0.2262 0.84502 0.38923 0.0
C1303 C 0.26584 0.89953 0.34987 0.0
O1304 O 0.27926 0.88723 0.35156 0.0
O1305 O 0.26237 0.86185 0.32867 0.0
O1306 O 0.2758 0.83866 0.34486 0.0
H1307 H 0.22006 0.85919 0.27709 0.0
H1308 H 0.27103 0.86964 0.39714 0.0
O1309 O 0.25563 0.83758 0.39662 0.0
H1310 H 0.33349 0.85599 0.37214 0.0
H1311 H 0.3035 0.79309 0.40849 0.0
H1312 H 0.27087 0.80373 0.34901 0.0
H1313 H 0.30629 0.83755 0.36218 0.0
H1314 H 0.28748 0.82287 0.40242 0.0
O1315 O 0.24928 0.89432 0.34626 0.0
H1316 H 0.23569 0.85066 0.30647 0.0
H1317 H 0.21788 0.90126 0.3313 0.0
H1318 H 0.28684 0.7738 0.35442 0.0
H1319 H 0.29788 0.88835 0.40759 0.0
H1320 H 0.3033 0.76834 0.38435 0.0
H1321 H 0.32938 0.88159 0.39502 0.0
O1322 O 0.24371 0.82407 0.36212 0.0
H1323 H 0.20572 0.89851 0.39655 0.0
H1324 H 0.19958 0.85903 0.34072 0.0
H1325 H 0.17173 0.86623 0.35947 0.0
H1326 H 0.17471 0.88612 0.3876 0.0
H1327 H 0.23324 0.89083 0.37751 0.0
H1328 H 0.20218 0.91043 0.30214 0.0
H1329 H 0.20314 0.88927 0.27481 0.0
O1330 O 0.23038 0.84238 0.34049 0.0
C1331 C 0.27436 0.84887 0.33039 0.0
C1332 C 0.21947 0.86849 0.28893 0.0
C1333 C 0.20946 0.89726 0.30298 0.0
N1334 N 0.22752 0.87536 0.32063 0.0
C1335 C 0.22824 0.8637 0.30561 0.0
C1336 C 0.2184 0.89201 0.31944 0.0
C1337 C 0.21 0.88538 0.28765 0.0
C1338 C 0.28473 0.86651 0.39175 0.0
N1339 N 0.28711 0.85247 0.37915 0.0
C1340 C 0.29986 0.87719 0.39765 0.0
C1341 C 0.31753 0.87341 0.39057 0.0
C1342 C 0.31984 0.85906 0.37773 0.0
C1343 C 0.30438 0.84869 0.37212 0.0
C1344 C 0.29643 0.79533 0.39537 0.0
C1345 C 0.27815 0.8015 0.362 0.0
C1346 C 0.28732 0.81215 0.39187 0.0
N1347 N 0.27845 0.8151 0.37529 0.0
C1348 C 0.2871 0.78451 0.36501 0.0
C1349 C 0.29631 0.78144 0.38182 0.0
C1350 C 0.23188 0.82699 0.34923 0.0
C1351 C 0.20424 0.88987 0.38429 0.0
C1352 C 0.201 0.86766 0.35297 0.0
C1353 C 0.18517 0.87172 0.36351 0.0
C1354 C 0.18685 0.88289 0.37928 0.0
N1355 N 0.21801 0.87457 0.35797 0.0
C1356 C 0.21976 0.88555 0.37341 0.0
Co1357 Co 0.62391 0.73481 0.84155 0.0
Co1358 Co 0.65111 0.76309 0.86944 0.0
O1359 O 0.62856 0.74887 0.86435 0.0
C1360 C 0.5941 0.76268 0.84346 0.0
O1361 O 0.60702 0.77472 0.8481 0.0
C1362 C 0.64915 0.73578 0.90005 0.0
O1363 O 0.64445 0.72319 0.88767 0.0
O1364 O 0.66711 0.7423 0.86069 0.0
O1365 O 0.64943 0.72393 0.84249 0.0
H1366 H 0.71452 0.78885 0.85502 0.0
H1367 H 0.59734 0.73216 0.87306 0.0
O1368 O 0.59834 0.74577 0.84019 0.0
H1369 H 0.62025 0.66821 0.86311 0.0
H1370 H 0.58463 0.69588 0.79853 0.0
H1371 H 0.6456 0.72616 0.80749 0.0
H1372 H 0.6311 0.69395 0.84312 0.0
H1373 H 0.59129 0.7136 0.8272 0.0
O1374 O 0.652 0.75258 0.89514 0.0
H1375 H 0.68577 0.77122 0.84854 0.0
H1376 H 0.66462 0.78496 0.90202 0.0
H1377 H 0.63959 0.70846 0.77868 0.0
H1378 H 0.58602 0.70681 0.89329 0.0
H1379 H 0.60892 0.69317 0.77406 0.0
H1380 H 0.59754 0.67457 0.8884 0.0
O1381 O 0.63328 0.75544 0.8256 0.0
H1382 H 0.59828 0.79126 0.90557 0.0
H1383 H 0.64974 0.80394 0.86194 0.0
H1384 H 0.62936 0.82969 0.87195 0.0
H1385 H 0.6034 0.82341 0.89392 0.0
H1386 H 0.61893 0.7659 0.8951 0.0
H1387 H 0.69321 0.80262 0.90914 0.0
H1388 H 0.71838 0.8047 0.88551 0.0
O1389 O 0.65085 0.77375 0.84387 0.0
C1390 C 0.66487 0.72813 0.85021 0.0
C1391 C 0.70363 0.7881 0.8654 0.0
C1392 C 0.69168 0.79581 0.89579 0.0
N1393 N 0.67348 0.7772 0.87483 0.0
C1394 C 0.6873 0.77819 0.86179 0.0
C1395 C 0.67554 0.78576 0.89169 0.0
C1396 C 0.70579 0.79697 0.88252 0.0
C1397 C 0.60228 0.71814 0.87074 0.0
N1398 N 0.61478 0.71452 0.85687 0.0
C1399 C 0.59588 0.70385 0.88228 0.0
C1400 C 0.60237 0.68577 0.87955 0.0
C1401 C 0.61512 0.6822 0.86537 0.0
C1402 C 0.62123 0.69683 0.85411 0.0
C1403 C 0.59806 0.70245 0.80039 0.0
C1404 C 0.63226 0.71944 0.80563 0.0
C1405 C 0.60189 0.71252 0.81658 0.0
N1406 N 0.61886 0.72076 0.81906 0.0
C1407 C 0.62892 0.70949 0.78926 0.0
C1408 C 0.6117 0.70093 0.78667 0.0
C1409 C 0.64374 0.76954 0.82817 0.0
C1410 C 0.60957 0.79418 0.89604 0.0
C1411 C 0.63847 0.8011 0.87149 0.0
C1412 C 0.62699 0.81574 0.87713 0.0
C1413 C 0.61244 0.81221 0.88947 0.0
N1414 N 0.63557 0.78345 0.87799 0.0
C1415 C 0.62136 0.77989 0.89012 0.0
C1416 C 0.14199 0.56948 0.21336 0.0
C1417 C 0.14243 0.57631 0.2317 0.0
C1418 C 0.14042 0.55033 0.21004 0.0
C1419 C 0.126 0.50659 0.23282 0.0
H1420 H 0.16327 0.48264 0.20194 0.0
C1421 C 0.15113 0.43311 0.24675 0.0
C1422 C 0.15228 0.42052 0.23185 0.0
C1423 C 0.1476 0.45187 0.24349 0.0
C1424 C 0.15255 0.48917 0.2103 0.0
H1425 H 0.14116 0.56852 0.2609 0.0
H1426 H 0.13845 0.53542 0.25513 0.0
H1427 H 0.16054 0.51666 0.20181 0.0
H1428 H 0.15101 0.41777 0.20177 0.0
H1429 H 0.14522 0.45096 0.19607 0.0
H1430 H 0.11865 0.47926 0.24205 0.0
C1431 C 0.13919 0.54475 0.24329 0.0
C1432 C 0.15096 0.50859 0.2102 0.0
C1433 C 0.14092 0.56374 0.2466 0.0
C1434 C 0.15022 0.42718 0.21354 0.0
C1435 C 0.14691 0.4461 0.21025 0.0
C1436 C 0.12764 0.48728 0.23297 0.0
C1437 C 0.13898 0.53782 0.22502 0.0
C1438 C 0.13816 0.51747 0.22204 0.0
C1439 C 0.1453 0.45851 0.22525 0.0
C1440 C 0.1414 0.47847 0.22227 0.0
H1441 H 0.14312 0.57888 0.20161 0.0
H1442 H 0.14029 0.54531 0.19582 0.0
H1443 H 0.11575 0.51308 0.24178 0.0
H1444 H 0.15262 0.42846 0.26103 0.0
H1445 H 0.14673 0.46125 0.25527 0.0
C1446 C 0.92639 0.6457 0.7157 0.0
C1447 C 0.91929 0.6478 0.73383 0.0
C1448 C 0.94555 0.64355 0.71283 0.0
C1449 C 0.98808 0.62901 0.73728 0.0
H1450 H 0.01462 0.66219 0.70393 0.0
C1451 C 0.06363 0.64857 0.74935 0.0
C1452 C 0.07602 0.64863 0.73423 0.0
C1453 C 0.04462 0.64624 0.74647 0.0
C1454 C 0.00736 0.65259 0.71302 0.0
H1455 H 0.92669 0.64922 0.76314 0.0
H1456 H 0.95983 0.64545 0.75812 0.0
H1457 H 0.98049 0.66179 0.70375 0.0
H1458 H 0.07815 0.64656 0.70415 0.0
H1459 H 0.0446 0.64275 0.69911 0.0
H1460 H 0.01479 0.62032 0.74709 0.0
C1461 C 0.95066 0.64533 0.74613 0.0
C1462 C 0.98788 0.65235 0.7129 0.0
C1463 C 0.93166 0.64765 0.74898 0.0
C1464 C 0.06893 0.64659 0.71608 0.0
C1465 C 0.04978 0.64443 0.71318 0.0
C1466 C 0.00746 0.62926 0.7374 0.0
C1467 C 0.95781 0.64318 0.72808 0.0
C1468 C 0.97811 0.64105 0.72554 0.0
C1469 C 0.03751 0.64401 0.7284 0.0
C1470 C 0.01725 0.64154 0.72578 0.0
H1471 H 0.91717 0.64575 0.70376 0.0
H1472 H 0.95077 0.64194 0.69878 0.0
H1473 H 0.98087 0.61989 0.74689 0.0
H1474 H 0.0686 0.65011 0.76351 0.0
H1475 H 0.03542 0.64632 0.75842 0.0
C1476 C 0.85098 0.43349 0.24677 0.0
C1477 C 0.84875 0.42065 0.2322 0.0
C1478 C 0.85422 0.4522 0.24294 0.0
C1479 C 0.84579 0.48863 0.20956 0.0
H1480 H 0.88301 0.5146 0.23885 0.0
C1481 C 0.85175 0.56941 0.21242 0.0
C1482 C 0.8516 0.57605 0.23083 0.0
C1483 C 0.85446 0.55043 0.20884 0.0
C1484 C 0.87266 0.50753 0.23046 0.0
H1485 H 0.84801 0.41736 0.20217 0.0
H1486 H 0.85329 0.45047 0.1955 0.0
H1487 H 0.88193 0.48067 0.23935 0.0
H1488 H 0.85466 0.56816 0.25987 0.0
H1489 H 0.85938 0.53535 0.25364 0.0
H1490 H 0.83589 0.51562 0.2015 0.0
C1491 C 0.85267 0.44584 0.20985 0.0
C1492 C 0.87205 0.48816 0.23075 0.0
C1493 C 0.84966 0.42697 0.21368 0.0
C1494 C 0.8546 0.5635 0.24552 0.0
C1495 C 0.8575 0.5447 0.24195 0.0
C1496 C 0.84637 0.5081 0.20932 0.0
C1497 C 0.85515 0.45855 0.22449 0.0
C1498 C 0.85813 0.47858 0.22093 0.0
C1499 C 0.85738 0.53794 0.22362 0.0
C1500 C 0.85931 0.5177 0.22042 0.0
H1501 H 0.85042 0.42909 0.26119 0.0
H1502 H 0.85577 0.46178 0.25449 0.0
H1503 H 0.83492 0.48153 0.20189 0.0
H1504 H 0.8495 0.57879 0.20082 0.0
H1505 H 0.8543 0.54553 0.19458 0.0
C1506 C 0.06456 0.32611 0.74302 0.0
C1507 C 0.07672 0.33512 0.73065 0.0
C1508 C 0.04581 0.324 0.73857 0.0
C1509 C 0.0087 0.34589 0.71239 0.0
H1510 H 0.98192 0.30105 0.72616 0.0
C1511 C 0.92818 0.34226 0.71347 0.0
C1512 C 0.92117 0.33549 0.73045 0.0
C1513 C 0.94704 0.34014 0.70909 0.0
C1514 C 0.98922 0.31363 0.72215 0.0
H1515 H 0.07887 0.34881 0.7038 0.0
H1516 H 0.04582 0.34529 0.69611 0.0
H1517 H 0.01589 0.30103 0.72626 0.0
H1518 H 0.92821 0.32075 0.75588 0.0
H1519 H 0.96094 0.31712 0.74828 0.0
H1520 H 0.982 0.35874 0.70913 0.0
C1521 C 0.05093 0.33982 0.7092 0.0
C1522 C 0.00862 0.31362 0.72221 0.0
C1523 C 0.0698 0.34177 0.71359 0.0
C1524 C 0.9332 0.32616 0.74271 0.0
C1525 C 0.95193 0.32392 0.73828 0.0
C1526 C 0.98924 0.34591 0.71235 0.0
C1527 C 0.03876 0.33096 0.72171 0.0
C1528 C 0.01853 0.32995 0.71803 0.0
C1529 C 0.9591 0.33103 0.72153 0.0
C1530 C 0.97935 0.32998 0.71793 0.0
H1531 H 0.06947 0.32078 0.75626 0.0
H1532 H 0.03671 0.3174 0.74862 0.0
H1533 H 0.01599 0.3587 0.70919 0.0
H1534 H 0.91922 0.34953 0.70376 0.0
H1535 H 0.95222 0.34573 0.69608 0.0
C1536 C 0.14554 0.42481 0.78461 0.0
C1537 C 0.14511 0.4182 0.76619 0.0
C1538 C 0.14339 0.44384 0.78828 0.0
C1539 C 0.12527 0.48696 0.76729 0.0
H1540 H 0.16442 0.51258 0.79427 0.0
C1541 C 0.14691 0.56068 0.74987 0.0
C1542 C 0.14976 0.57357 0.76428 0.0
C1543 C 0.14379 0.542 0.75389 0.0
C1544 C 0.15317 0.50559 0.78706 0.0
H1545 H 0.14169 0.42624 0.73723 0.0
H1546 H 0.13791 0.45914 0.74361 0.0
H1547 H 0.16304 0.47849 0.79482 0.0
H1548 H 0.15178 0.57696 0.79424 0.0
H1549 H 0.14668 0.5439 0.80125 0.0
H1550 H 0.11598 0.5139 0.7587 0.0
C1551 C 0.13982 0.44971 0.75524 0.0
C1552 C 0.15237 0.48612 0.7874 0.0
C1553 C 0.14218 0.43086 0.75158 0.0
C1554 C 0.14965 0.56732 0.78285 0.0
C1555 C 0.14673 0.54847 0.78687 0.0
C1556 C 0.1261 0.50632 0.76693 0.0
C1557 C 0.14044 0.45642 0.77358 0.0
C1558 C 0.13888 0.47667 0.77684 0.0
C1559 C 0.14357 0.53573 0.7724 0.0
C1560 C 0.14051 0.51575 0.77615 0.0
H1561 H 0.14776 0.41534 0.79614 0.0
H1562 H 0.14396 0.44872 0.80253 0.0
H1563 H 0.11454 0.47998 0.75932 0.0
H1564 H 0.14687 0.56503 0.73542 0.0
H1565 H 0.14172 0.53239 0.74246 0.0
C1566 C 0.92878 0.6694 0.25351 0.0
C1567 C 0.91652 0.66068 0.26599 0.0
C1568 C 0.9476 0.67109 0.25781 0.0
C1569 C 0.9844 0.64845 0.28397 0.0
H1570 H 0.01215 0.6925 0.26962 0.0
C1571 C 0.06521 0.65136 0.28334 0.0
C1572 C 0.07237 0.6578 0.26629 0.0
C1573 C 0.04627 0.6534 0.28744 0.0
C1574 C 0.00458 0.68014 0.27379 0.0
H1575 H 0.91428 0.64711 0.2929 0.0
H1576 H 0.94744 0.64995 0.30035 0.0
H1577 H 0.9782 0.69331 0.26961 0.0
H1578 H 0.06543 0.67171 0.24036 0.0
H1579 H 0.03261 0.67524 0.2475 0.0
H1580 H 0.01084 0.63506 0.28738 0.0
C1581 C 0.94236 0.65549 0.28727 0.0
C1582 C 0.98518 0.6806 0.27378 0.0
C1583 C 0.92342 0.65394 0.28303 0.0
C1584 C 0.06035 0.66655 0.25359 0.0
C1585 C 0.04156 0.66875 0.25776 0.0
C1586 C 0.00385 0.64799 0.284 0.0
C1587 C 0.95463 0.66401 0.27464 0.0
C1588 C 0.97491 0.66456 0.27818 0.0
C1589 C 0.0343 0.66215 0.27467 0.0
C1590 C 0.01408 0.66363 0.27821 0.0
H1591 H 0.92388 0.67477 0.24029 0.0
H1592 H 0.95677 0.67745 0.24766 0.0
H1593 H 0.97682 0.63585 0.28734 0.0
H1594 H 0.07417 0.64453 0.29338 0.0
H1595 H 0.04099 0.64818 0.30057 0.0
C1596 C 0.85113 0.5623 0.75412 0.0
C1597 C 0.84773 0.57505 0.76855 0.0
C1598 C 0.85537 0.54384 0.75814 0.0
C1599 C 0.84775 0.50708 0.7911 0.0
H1600 H 0.88733 0.48317 0.76319 0.0
C1601 C 0.85637 0.42675 0.78698 0.0
C1602 C 0.85706 0.42057 0.76841 0.0
C1603 C 0.85863 0.44567 0.79112 0.0
C1604 C 0.87634 0.48967 0.77122 0.0
H1605 H 0.84599 0.57843 0.79852 0.0
H1606 H 0.85298 0.54569 0.80552 0.0
H1607 H 0.88471 0.51703 0.76299 0.0
H1608 H 0.86131 0.42919 0.73974 0.0
H1609 H 0.86525 0.46191 0.74695 0.0
H1610 H 0.83871 0.47958 0.79839 0.0
C1611 C 0.85252 0.55023 0.79114 0.0
C1612 C 0.87486 0.509 0.77111 0.0
C1613 C 0.84851 0.56888 0.78713 0.0
C1614 C 0.86058 0.4335 0.75418 0.0
C1615 C 0.86304 0.45225 0.75833 0.0
C1616 C 0.8492 0.48766 0.79116 0.0
C1617 C 0.85615 0.53763 0.77665 0.0
C1618 C 0.86008 0.5178 0.78037 0.0
C1619 C 0.86194 0.45857 0.77679 0.0
C1620 C 0.86301 0.47879 0.78051 0.0
H1621 H 0.85071 0.5666 0.73967 0.0
H1622 H 0.85781 0.53432 0.7467 0.0
H1623 H 0.83622 0.51359 0.79832 0.0
H1624 H 0.85369 0.41706 0.79822 0.0
H1625 H 0.85771 0.45022 0.80547 0.0
C1626 C 0.93442 0.35176 0.25252 0.0
C1627 C 0.9218 0.34927 0.26724 0.0
C1628 C 0.95317 0.35498 0.25611 0.0
C1629 C 0.98996 0.34572 0.2888 0.0
H1630 H 0.01599 0.38255 0.25906 0.0
C1631 C 0.0708 0.35071 0.28401 0.0
C1632 C 0.07699 0.35041 0.26543 0.0
C1633 C 0.05193 0.35351 0.28804 0.0
C1634 C 0.0089 0.37232 0.26759 0.0
H1635 H 0.91891 0.34816 0.29729 0.0
H1636 H 0.95211 0.3534 0.30356 0.0
H1637 H 0.98204 0.38222 0.25943 0.0
H1638 H 0.06837 0.35311 0.23657 0.0
H1639 H 0.03572 0.358 0.2436 0.0
H1640 H 0.01694 0.33521 0.29614 0.0
C1641 C 0.94728 0.35299 0.28928 0.0
C1642 C 0.98952 0.37214 0.26781 0.0
C1643 C 0.92835 0.35 0.28568 0.0
C1644 C 0.06407 0.35318 0.25103 0.0
C1645 C 0.04537 0.35618 0.25505 0.0
C1646 C 0.00944 0.34589 0.28857 0.0
C1647 C 0.95979 0.35564 0.27448 0.0
C1648 C 0.9799 0.35834 0.27775 0.0
C1649 C 0.0391 0.35636 0.27356 0.0
C1650 C 0.01901 0.35869 0.27728 0.0
H1651 H 0.92983 0.35136 0.23815 0.0
H1652 H 0.96258 0.35664 0.24444 0.0
H1653 H 0.98283 0.33492 0.29655 0.0
H1654 H 0.08047 0.34865 0.2954 0.0
H1655 H 0.04739 0.35356 0.30242 0.0
C1656 C 0.24848 0.14498 0.56151 0.0
C1657 C 0.23407 0.14758 0.57445 0.0
C1658 C 0.24448 0.14234 0.54276 0.0
C1659 C 0.21093 0.15279 0.50675 0.0
H1660 H 0.23968 0.11613 0.47943 0.0
C1661 C 0.21299 0.14737 0.42557 0.0
C1662 C 0.23138 0.14801 0.41886 0.0
C1663 C 0.20956 0.1448 0.4446 0.0
C1664 C 0.23142 0.12631 0.48689 0.0
H1665 H 0.20411 0.14953 0.57787 0.0
H1666 H 0.19713 0.1452 0.54471 0.0
H1667 H 0.24036 0.11608 0.51337 0.0
H1668 H 0.26053 0.14625 0.42673 0.0
H1669 H 0.25453 0.14167 0.45963 0.0
H1670 H 0.20272 0.16353 0.4801 0.0
C1671 C 0.2115 0.14512 0.54927 0.0
C1672 C 0.23182 0.1263 0.50627 0.0
C1673 C 0.21551 0.14758 0.56819 0.0
C1674 C 0.2462 0.14589 0.43143 0.0
C1675 C 0.24278 0.14309 0.45027 0.0
C1676 C 0.21051 0.15279 0.48727 0.0
C1677 C 0.22598 0.14233 0.53644 0.0
C1678 C 0.22225 0.14003 0.51634 0.0
C1679 C 0.22447 0.14248 0.45705 0.0
C1680 C 0.22141 0.14003 0.47723 0.0
H1681 H 0.26293 0.14486 0.56586 0.0
H1682 H 0.25594 0.14056 0.5331 0.0
H1683 H 0.20343 0.16352 0.51423 0.0
H1684 H 0.2013 0.14895 0.41617 0.0
H1685 H 0.19533 0.14443 0.44956 0.0
C1686 C 0.34275 0.71403 0.92657 0.0
C1687 C 0.33611 0.731 0.91941 0.0
C1688 C 0.34071 0.70986 0.94548 0.0
C1689 C 0.31438 0.72338 0.98756 0.0
H1690 H 0.35916 0.70967 0.01446 0.0
C1691 C 0.32646 0.74323 0.06322 0.0
C1692 C 0.3352 0.73062 0.07534 0.0
C1693 C 0.32456 0.73907 0.0444 0.0
C1694 C 0.34643 0.71308 0.00712 0.0
H1695 H 0.32173 0.75667 0.92628 0.0
H1696 H 0.31824 0.74943 0.95914 0.0
H1697 H 0.35934 0.70982 0.98045 0.0
H1698 H 0.34864 0.70364 0.0773 0.0
H1699 H 0.34547 0.69644 0.04409 0.0
H1700 H 0.30171 0.72743 0.0142 0.0
C1701 C 0.32487 0.73927 0.95018 0.0
C1702 C 0.34653 0.71317 0.98767 0.0
C1703 C 0.32703 0.7435 0.93138 0.0
C1704 C 0.34182 0.71361 0.06827 0.0
C1705 C 0.34006 0.70951 0.04931 0.0
C1706 C 0.31428 0.72329 0.00696 0.0
C1707 C 0.33182 0.7225 0.95747 0.0
C1708 C 0.33071 0.719 0.97774 0.0
C1709 C 0.33143 0.72225 0.03721 0.0
C1710 C 0.33051 0.71882 0.01692 0.0
H1711 H 0.34984 0.70414 0.91766 0.0
H1712 H 0.34616 0.69682 0.95076 0.0
H1713 H 0.30188 0.72757 0.98023 0.0
H1714 H 0.32116 0.75643 0.06824 0.0
H1715 H 0.31814 0.7493 0.03535 0.0
C1716 C 0.74711 0.85484 0.43204 0.0
C1717 C 0.76162 0.85223 0.41921 0.0
C1718 C 0.75096 0.85723 0.45087 0.0
C1719 C 0.78438 0.8456 0.48678 0.0
H1720 H 0.75502 0.8808 0.51533 0.0
C1721 C 0.78296 0.84841 0.56802 0.0
C1722 C 0.76472 0.84766 0.57509 0.0
C1723 C 0.78603 0.85146 0.54901 0.0
C1724 C 0.76342 0.871 0.50753 0.0
H1725 H 0.79159 0.8502 0.41602 0.0
H1726 H 0.7983 0.85412 0.44929 0.0
H1727 H 0.75443 0.88209 0.48141 0.0
H1728 H 0.73542 0.84967 0.56784 0.0
H1729 H 0.7408 0.85505 0.53493 0.0
H1730 H 0.79273 0.83405 0.51304 0.0
C1731 C 0.78397 0.85437 0.4446 0.0
C1732 C 0.76308 0.87173 0.48816 0.0
C1733 C 0.78013 0.85216 0.42561 0.0
C1734 C 0.74966 0.85011 0.56286 0.0
C1735 C 0.75273 0.85337 0.54402 0.0
C1736 C 0.78475 0.8449 0.50625 0.0
C1737 C 0.76939 0.85697 0.45737 0.0
C1738 C 0.77293 0.85855 0.4776 0.0
C1739 C 0.77091 0.85412 0.5369 0.0
C1740 C 0.77366 0.85712 0.51673 0.0
H1741 H 0.7327 0.85503 0.42758 0.0
H1742 H 0.73941 0.85887 0.46043 0.0
H1743 H 0.79207 0.83526 0.47896 0.0
H1744 H 0.79484 0.84659 0.57714 0.0
H1745 H 0.80018 0.85195 0.5438 0.0
C1746 C 0.65796 0.24544 0.06238 0.0
C1747 C 0.65641 0.26035 0.07492 0.0
C1748 C 0.65658 0.24847 0.04331 0.0
C1749 C 0.66228 0.28263 0.0065 0.0
H1750 H 0.63243 0.24713 0.97881 0.0
C1751 C 0.65474 0.28055 0.9252 0.0
C1752 C 0.65787 0.26268 0.9178 0.0
C1753 C 0.6533 0.28309 0.94448 0.0
C1754 C 0.64076 0.25719 0.98637 0.0
H1755 H 0.65257 0.29024 0.07727 0.0
H1756 H 0.65034 0.29553 0.04359 0.0
H1757 H 0.63192 0.2466 0.01271 0.0
H1758 H 0.66245 0.23361 0.92482 0.0
H1759 H 0.65988 0.23807 0.95817 0.0
H1760 H 0.67152 0.29279 0.97993 0.0
C1761 C 0.65258 0.28152 0.04871 0.0
C1762 C 0.64048 0.25688 0.00573 0.0
C1763 C 0.65383 0.27847 0.06793 0.0
C1764 C 0.65995 0.24754 0.93001 0.0
C1765 C 0.65836 0.25006 0.94913 0.0
C1766 C 0.66254 0.28296 0.98701 0.0
C1767 C 0.65366 0.26647 0.03628 0.0
C1768 C 0.65174 0.26912 0.01597 0.0
C1769 C 0.65474 0.26776 0.95654 0.0
C1770 C 0.65228 0.26977 0.97685 0.0
H1771 H 0.66002 0.23132 0.06726 0.0
H1772 H 0.65783 0.23666 0.03401 0.0
H1773 H 0.67108 0.29222 0.01412 0.0
H1774 H 0.65307 0.29248 0.91612 0.0
H1775 H 0.65055 0.29688 0.94993 0.0
C1776 C 0.2166 0.84473 0.42818 0.0
C1777 C 0.23379 0.83832 0.42137 0.0
C1778 C 0.21222 0.84291 0.44708 0.0
C1779 C 0.22564 0.81697 0.48941 0.0
H1780 H 0.21134 0.86158 0.51625 0.0
C1781 C 0.24567 0.8296 0.56491 0.0
C1782 C 0.2328 0.83782 0.57709 0.0
C1783 C 0.2415 0.82768 0.54608 0.0
C1784 C 0.21492 0.8489 0.50892 0.0
H1785 H 0.25971 0.82469 0.42889 0.0
H1786 H 0.25211 0.82158 0.46164 0.0
H1787 H 0.21151 0.86174 0.4822 0.0
H1788 H 0.2054 0.85038 0.57919 0.0
H1789 H 0.19822 0.84722 0.54598 0.0
H1790 H 0.22991 0.80439 0.51606 0.0
C1791 C 0.24193 0.82786 0.45244 0.0
C1792 C 0.21501 0.84899 0.48945 0.0
C1793 C 0.24636 0.82982 0.43369 0.0
C1794 C 0.21557 0.84394 0.5701 0.0
C1795 C 0.21147 0.84219 0.55114 0.0
C1796 C 0.22557 0.81689 0.5088 0.0
C1797 C 0.22488 0.83443 0.45936 0.0
C1798 C 0.22109 0.83325 0.47957 0.0
C1799 C 0.22443 0.83405 0.53898 0.0
C1800 C 0.22092 0.83306 0.51873 0.0
H1801 H 0.20665 0.85137 0.41898 0.0
H1802 H 0.19898 0.84811 0.4521 0.0
H1803 H 0.23002 0.80453 0.4821 0.0
H1804 H 0.25905 0.82471 0.56989 0.0
H1805 H 0.25189 0.82164 0.53696 0.0
C1806 C 0.64903 0.71173 0.06859 0.0
C1807 C 0.65606 0.72859 0.07562 0.0
C1808 C 0.65024 0.70775 0.04956 0.0
C1809 C 0.67502 0.72148 0.00664 0.0
H1810 H 0.62909 0.70879 0.98121 0.0
C1811 C 0.66058 0.74299 0.93194 0.0
C1812 C 0.65159 0.73061 0.91977 0.0
C1813 C 0.66287 0.73848 0.95064 0.0
C1814 C 0.64213 0.71192 0.98813 0.0
H1815 H 0.67025 0.75427 0.06838 0.0
H1816 H 0.67234 0.74733 0.03535 0.0
H1817 H 0.63018 0.70838 0.01523 0.0
H1818 H 0.63801 0.70372 0.91761 0.0
H1819 H 0.64182 0.69592 0.95066 0.0
H1820 H 0.68674 0.72582 0.97962 0.0
C1821 C 0.66603 0.73712 0.04448 0.0
C1822 C 0.64275 0.71169 0.00758 0.0
C1823 C 0.66467 0.74117 0.06339 0.0
C1824 C 0.64502 0.71352 0.92669 0.0
C1825 C 0.64715 0.70907 0.94555 0.0
C1826 C 0.67439 0.72171 0.98725 0.0
C1827 C 0.6587 0.72046 0.03733 0.0
C1828 C 0.65901 0.71716 0.017 0.0
C1829 C 0.65613 0.72153 0.95767 0.0
C1830 C 0.65775 0.71764 0.97784 0.0
H1831 H 0.64227 0.70179 0.07771 0.0
H1832 H 0.6445 0.69479 0.04439 0.0
H1833 H 0.68783 0.7254 0.01356 0.0
H1834 H 0.66586 0.75625 0.92705 0.0
H1835 H 0.66954 0.7485 0.95971 0.0
C1836 C 0.77942 0.15597 0.5687 0.0
C1837 C 0.7618 0.16154 0.57515 0.0
C1838 C 0.78399 0.15775 0.54986 0.0
C1839 C 0.77002 0.1818 0.50663 0.0
H1840 H 0.78638 0.13689 0.48152 0.0
C1841 C 0.75147 0.16606 0.4314 0.0
C1842 C 0.76451 0.15739 0.4197 0.0
C1843 C 0.75546 0.1689 0.45014 0.0
C1844 C 0.78224 0.14968 0.48835 0.0
H1845 H 0.73538 0.17381 0.56711 0.0
H1846 H 0.74336 0.17691 0.53438 0.0
H1847 H 0.78577 0.13787 0.51551 0.0
H1848 H 0.79207 0.1451 0.41839 0.0
H1849 H 0.79897 0.14993 0.45146 0.0
H1850 H 0.76571 0.19333 0.47952 0.0
C1851 C 0.75368 0.17128 0.54383 0.0
C1852 C 0.78188 0.15024 0.50779 0.0
C1853 C 0.74904 0.16934 0.56255 0.0
C1854 C 0.78176 0.15182 0.42709 0.0
C1855 C 0.7857 0.15454 0.44598 0.0
C1856 C 0.7704 0.18125 0.48724 0.0
C1857 C 0.77111 0.16536 0.53726 0.0
C1858 C 0.77507 0.16605 0.51707 0.0
C1859 C 0.77254 0.16308 0.45767 0.0
C1860 C 0.7758 0.16493 0.47792 0.0
H1861 H 0.78951 0.14988 0.57811 0.0
H1862 H 0.79753 0.15309 0.54511 0.0
H1863 H 0.76504 0.19428 0.51347 0.0
H1864 H 0.73807 0.17056 0.42613 0.0
H1865 H 0.7449 0.1752 0.45887 0.0
C1866 C 0.33115 0.24992 0.06218 0.0
C1867 C 0.33941 0.26256 0.07459 0.0
C1868 C 0.32908 0.25449 0.04346 0.0
C1869 C 0.34987 0.28197 0.00671 0.0
H1870 H 0.30523 0.26749 0.97997 0.0
C1871 C 0.34524 0.28218 0.92607 0.0
C1872 C 0.3388 0.26515 0.91889 0.0
C1873 C 0.34341 0.28615 0.94505 0.0
C1874 C 0.31775 0.2717 0.98726 0.0
H1875 H 0.35193 0.28993 0.07718 0.0
H1876 H 0.34853 0.2978 0.04415 0.0
H1877 H 0.30547 0.26673 0.01393 0.0
H1878 H 0.325 0.23916 0.92582 0.0
H1879 H 0.32188 0.24605 0.95872 0.0
H1880 H 0.36243 0.28607 0.97997 0.0
C1881 C 0.34358 0.28443 0.04906 0.0
C1882 C 0.31788 0.27127 0.00665 0.0
C1883 C 0.34547 0.27994 0.06791 0.0
C1884 C 0.33016 0.25238 0.93092 0.0
C1885 C 0.3282 0.25641 0.94976 0.0
C1886 C 0.34975 0.28237 0.98725 0.0
C1887 C 0.33536 0.27172 0.03668 0.0
C1888 C 0.33416 0.2757 0.01652 0.0
C1889 C 0.3349 0.27326 0.95706 0.0
C1890 C 0.33391 0.27653 0.97737 0.0
H1891 H 0.3263 0.23644 0.06691 0.0
H1892 H 0.32299 0.24429 0.03416 0.0
H1893 H 0.36262 0.28539 0.01399 0.0
H1894 H 0.35198 0.29227 0.9171 0.0
H1895 H 0.34869 0.29924 0.95036 0.0
C1896 C 0.57094 0.213 0.14648 0.0
C1897 C 0.57783 0.23131 0.14757 0.0
C1898 C 0.55187 0.2098 0.14403 0.0
C1899 C 0.50959 0.23273 0.12669 0.0
H1900 H 0.48238 0.20166 0.1615 0.0
C1901 C 0.43388 0.2461 0.14441 0.0
C1902 C 0.42145 0.23106 0.14566 0.0
C1903 C 0.45285 0.24299 0.14217 0.0
C1904 C 0.48984 0.21006 0.15144 0.0
H1905 H 0.57015 0.26056 0.14692 0.0
H1906 H 0.53715 0.25496 0.14264 0.0
H1907 H 0.51651 0.20168 0.16197 0.0
H1908 H 0.41917 0.20093 0.14565 0.0
H1909 H 0.45269 0.19551 0.142 0.0
H1910 H 0.48307 0.24172 0.11665 0.0
C1911 C 0.54643 0.24309 0.14354 0.0
C1912 C 0.50932 0.21008 0.15171 0.0
C1913 C 0.56534 0.24628 0.14616 0.0
C1914 C 0.42844 0.21279 0.14473 0.0
C1915 C 0.44756 0.20967 0.14267 0.0
C1916 C 0.49022 0.23272 0.12642 0.0
C1917 C 0.5395 0.22486 0.14235 0.0
C1918 C 0.5193 0.22197 0.13981 0.0
C1919 C 0.45989 0.22478 0.14123 0.0
C1920 C 0.48017 0.22195 0.13926 0.0
H1921 H 0.58025 0.20119 0.14749 0.0
H1922 H 0.54681 0.19562 0.14318 0.0
H1923 H 0.517 0.24174 0.11712 0.0
H1924 H 0.42897 0.26035 0.14505 0.0
H1925 H 0.46209 0.25489 0.14143 0.0
C1926 C 0.56156 0.75836 0.8323 0.0
C1927 C 0.57446 0.76846 0.84294 0.0
C1928 C 0.54275 0.76313 0.8326 0.0
C1929 C 0.50797 0.78018 0.86338 0.0
H1930 H 0.47729 0.78423 0.81907 0.0
C1931 C 0.43227 0.75595 0.85737 0.0
C1932 C 0.41925 0.7683 0.84964 0.0
C1933 C 0.45108 0.76063 0.85789 0.0
C1934 C 0.48573 0.78346 0.83155 0.0
H1935 H 0.57798 0.79158 0.86205 0.0
H1936 H 0.54479 0.79949 0.86307 0.0
H1937 H 0.51131 0.78408 0.81616 0.0
H1938 H 0.41548 0.7953 0.83668 0.0
H1939 H 0.44878 0.80317 0.83691 0.0
H1940 H 0.48239 0.77818 0.87864 0.0
C1941 C 0.54938 0.78814 0.85427 0.0
C1942 C 0.5051 0.78328 0.82988 0.0
C1943 C 0.5683 0.78362 0.85365 0.0
C1944 C 0.42529 0.78558 0.84274 0.0
C1945 C 0.44424 0.79007 0.84285 0.0
C1946 C 0.48861 0.77999 0.86502 0.0
C1947 C 0.53648 0.77784 0.84383 0.0
C1948 C 0.51633 0.78119 0.84575 0.0
C1949 C 0.45724 0.77756 0.85036 0.0
C1950 C 0.47738 0.78118 0.84907 0.0
H1951 H 0.56598 0.74666 0.82387 0.0
H1952 H 0.53299 0.75486 0.82461 0.0
H1953 H 0.51638 0.77841 0.87578 0.0
H1954 H 0.42794 0.74259 0.86288 0.0
H1955 H 0.46093 0.7507 0.86357 0.0
C1956 C 0.71156 0.92732 0.34207 0.0
C1957 C 0.72849 0.91995 0.33557 0.0
C1958 C 0.70803 0.94643 0.34079 0.0
C1959 C 0.72369 0.98922 0.31681 0.0
H1960 H 0.70921 0.01453 0.36226 0.0
C1961 C 0.74487 0.06388 0.33255 0.0
C1962 C 0.73205 0.076 0.34098 0.0
C1963 C 0.7405 0.04518 0.33001 0.0
C1964 C 0.71287 0.00765 0.34935 0.0
H1965 H 0.75475 0.92667 0.32221 0.0
H1966 H 0.74862 0.95984 0.32004 0.0
H1967 H 0.70839 0.98054 0.36094 0.0
H1968 H 0.70455 0.07806 0.35331 0.0
H1969 H 0.697 0.04505 0.34904 0.0
H1970 H 0.72896 0.01626 0.30549 0.0
C1971 C 0.738 0.95092 0.32598 0.0
C1972 C 0.71239 0.98821 0.34859 0.0
C1973 C 0.74158 0.93192 0.32738 0.0
C1974 C 0.71469 0.06903 0.34674 0.0
C1975 C 0.71038 0.05018 0.34435 0.0
C1976 C 0.72419 0.0086 0.31759 0.0
C1977 C 0.72128 0.95841 0.33281 0.0
C1978 C 0.71845 0.97882 0.33252 0.0
C1979 C 0.72326 0.03811 0.33594 0.0
C1980 C 0.71943 0.01796 0.33407 0.0
H1981 H 0.70123 0.91841 0.3485 0.0
H1982 H 0.69501 0.95185 0.34613 0.0
H1983 H 0.72807 0.98234 0.30413 0.0
H1984 H 0.75835 0.06882 0.32792 0.0
H1985 H 0.75083 0.03613 0.32378 0.0
C1986 C 0.43397 0.24537 0.85465 0.0
C1987 C 0.42163 0.23045 0.85193 0.0
C1988 C 0.45283 0.24211 0.85758 0.0
C1989 C 0.48987 0.20983 0.8469 0.0
H1990 H 0.51695 0.24033 0.88231 0.0
C1991 C 0.57082 0.21434 0.84968 0.0
C1992 C 0.57725 0.23283 0.84911 0.0
C1993 C 0.55197 0.21057 0.85287 0.0
C1994 C 0.50957 0.23162 0.87244 0.0
H1995 H 0.41933 0.20038 0.85033 0.0
H1996 H 0.45269 0.1947 0.85515 0.0
H1997 H 0.48301 0.23969 0.88318 0.0
H1998 H 0.56904 0.26182 0.85168 0.0
H1999 H 0.53638 0.25523 0.85724 0.0
H2000 H 0.51652 0.20245 0.83563 0.0
C2001 C 0.44758 0.20888 0.85509 0.0
C2002 C 0.49019 0.23125 0.87295 0.0
C2003 C 0.42855 0.21214 0.85236 0.0
C2004 C 0.56455 0.24742 0.85196 0.0
C2005 C 0.54586 0.24365 0.85534 0.0
C2006 C 0.50934 0.21019 0.8464 0.0
C2007 C 0.45986 0.22388 0.85774 0.0
C2008 C 0.48015 0.22098 0.85969 0.0
C2009 C 0.53936 0.22522 0.85583 0.0
C2010 C 0.51928 0.22171 0.85868 0.0
H2011 H 0.42909 0.25964 0.85449 0.0
H2012 H 0.46201 0.25396 0.85926 0.0
H2013 H 0.48245 0.20184 0.83649 0.0
H2014 H 0.58031 0.20282 0.84757 0.0
H2015 H 0.54726 0.19625 0.85316 0.0
C2016 C 0.25456 0.93191 0.35454 0.0
C2017 C 0.26956 0.91953 0.35264 0.0
C2018 C 0.25769 0.95085 0.35696 0.0
C2019 C 0.29023 0.98774 0.34633 0.0
H2020 H 0.25848 0.01549 0.38008 0.0
C2021 C 0.2852 0.06892 0.34826 0.0
C2022 C 0.26669 0.07514 0.34666 0.0
C2023 C 0.289 0.05009 0.35156 0.0
C2024 C 0.26755 0.00792 0.3707 0.0
H2025 H 0.29967 0.91726 0.35192 0.0
H2026 H 0.30516 0.95077 0.35589 0.0
H2027 H 0.25924 0.98159 0.38181 0.0
H2028 H 0.2377 0.06654 0.34735 0.0
H2029 H 0.24435 0.03394 0.35318 0.0
H2030 H 0.29788 0.01418 0.33471 0.0
C2031 C 0.29099 0.94562 0.35557 0.0
C2032 C 0.26798 0.98857 0.37168 0.0
C2033 C 0.28784 0.92651 0.35334 0.0
C2034 C 0.25212 0.06223 0.34845 0.0
C2035 C 0.2559 0.04357 0.35196 0.0
C2036 C 0.28982 0.00719 0.34537 0.0
C2037 C 0.2759 0.95793 0.35745 0.0
C2038 C 0.2787 0.97827 0.35899 0.0
C2039 C 0.27434 0.03732 0.35363 0.0
C2040 C 0.27787 0.01735 0.35704 0.0
H2041 H 0.2403 0.927 0.35413 0.0
H2042 H 0.24579 0.96005 0.35803 0.0
H2043 H 0.29857 0.98011 0.33635 0.0
H2044 H 0.29671 0.07858 0.34697 0.0
H2045 H 0.30333 0.04554 0.35275 0.0
C2046 C 0.56082 0.74874 0.14022 0.0
C2047 C 0.57359 0.76329 0.14291 0.0
C2048 C 0.5421 0.75255 0.13703 0.0
C2049 C 0.50575 0.78607 0.14637 0.0
H2050 H 0.4789 0.75644 0.11006 0.0
C2051 C 0.42485 0.78423 0.14125 0.0
C2052 C 0.41788 0.76594 0.14181 0.0
C2053 C 0.44387 0.78742 0.13839 0.0
C2054 C 0.48622 0.76492 0.12017 0.0
H2055 H 0.57676 0.7933 0.14434 0.0
H2056 H 0.54366 0.79995 0.13907 0.0
H2057 H 0.51284 0.75582 0.11045 0.0
H2058 H 0.42524 0.73672 0.13937 0.0
H2059 H 0.45816 0.74229 0.13434 0.0
H2060 H 0.479 0.79445 0.15663 0.0
C2061 C 0.54833 0.78562 0.13934 0.0
C2062 C 0.50561 0.76456 0.12039 0.0
C2063 C 0.56722 0.7818 0.14233 0.0
C2064 C 0.43016 0.75098 0.1391 0.0
C2065 C 0.44901 0.75417 0.13604 0.0
C2066 C 0.48628 0.78642 0.14615 0.0
C2067 C 0.53564 0.77099 0.13657 0.0
C2068 C 0.51552 0.77452 0.13397 0.0
C2069 C 0.45609 0.77238 0.13572 0.0
C2070 C 0.47637 0.77523 0.13353 0.0
H2071 H 0.56526 0.73432 0.14051 0.0
H2072 H 0.53258 0.74098 0.13527 0.0
H2073 H 0.51309 0.79384 0.15701 0.0
H2074 H 0.41568 0.79603 0.14328 0.0
H2075 H 0.44902 0.8016 0.13822 0.0
C2076 C 0.71622 0.92774 0.64656 0.0
C2077 C 0.73436 0.9207 0.64877 0.0
C2078 C 0.71332 0.94685 0.64407 0.0
C2079 C 0.73761 0.98915 0.6287 0.0
H2080 H 0.70348 0.01614 0.66067 0.0
C2081 C 0.74796 0.0656 0.64582 0.0
C2082 C 0.73254 0.07761 0.64584 0.0
C2083 C 0.74552 0.04649 0.64385 0.0
C2084 C 0.71279 0.00875 0.6514 0.0
H2085 H 0.76365 0.92815 0.65012 0.0
H2086 H 0.75856 0.96125 0.6458 0.0
H2087 H 0.70387 0.98203 0.66135 0.0
H2088 H 0.70241 0.079 0.64392 0.0
H2089 H 0.69817 0.04528 0.64068 0.0
H2090 H 0.74702 0.01573 0.6192 0.0
C2091 C 0.74661 0.95205 0.64583 0.0
C2092 C 0.71302 0.98927 0.65179 0.0
C2093 C 0.74949 0.93308 0.64846 0.0
C2094 C 0.71456 0.07007 0.64397 0.0
C2095 C 0.71211 0.05082 0.64215 0.0
C2096 C 0.73739 0.00853 0.62831 0.0
C2097 C 0.72854 0.95912 0.64351 0.0
C2098 C 0.72591 0.97937 0.64091 0.0
C2099 C 0.72762 0.0389 0.64192 0.0
C2100 C 0.72545 0.01851 0.64013 0.0
H2101 H 0.7043 0.91851 0.64672 0.0
H2102 H 0.69926 0.952 0.64233 0.0
H2103 H 0.74742 0.98181 0.61989 0.0
H2104 H 0.762 0.07093 0.64723 0.0
H2105 H 0.7577 0.03759 0.64406 0.0
C2106 C 0.24728 0.06354 0.65567 0.0
C2107 C 0.26254 0.0756 0.65368 0.0
C2108 C 0.24966 0.04438 0.65426 0.0
C2109 C 0.2827 0.00646 0.65894 0.0
H2110 H 0.24604 0.98019 0.62921 0.0
C2111 C 0.27912 0.92551 0.65061 0.0
C2112 C 0.26114 0.91824 0.65341 0.0
C2113 C 0.28185 0.94477 0.64935 0.0
C2114 C 0.25639 0.98734 0.63754 0.0
H2115 H 0.29239 0.07698 0.64911 0.0
H2116 H 0.29653 0.04316 0.64684 0.0
H2117 H 0.24633 0.01409 0.62932 0.0
H2118 H 0.23205 0.92547 0.6575 0.0
H2119 H 0.23686 0.9588 0.65531 0.0
H2120 H 0.29235 0.97952 0.66757 0.0
C2121 C 0.28276 0.04872 0.64943 0.0
C2122 C 0.25656 0.0067 0.6376 0.0
C2123 C 0.28036 0.06802 0.65071 0.0
C2124 C 0.24607 0.93056 0.65525 0.0
C2125 C 0.24879 0.94967 0.65387 0.0
C2126 C 0.28253 0.98697 0.65888 0.0
C2127 C 0.26734 0.0368 0.65089 0.0
C2128 C 0.26928 0.01644 0.64878 0.0
C2129 C 0.26663 0.95696 0.65067 0.0
C2130 C 0.26894 0.9773 0.64866 0.0
H2131 H 0.23338 0.06888 0.65804 0.0
H2132 H 0.23759 0.03546 0.65579 0.0
H2133 H 0.29265 0.0137 0.66766 0.0
H2134 H 0.291 0.91635 0.64914 0.0
H2135 H 0.29574 0.9501 0.6469 0.0
C2136 C 0.16359 0.3121 0.29355 0.0
C2137 C 0.15051 0.31133 0.27899 0.0
C2138 C 0.16851 0.29601 0.30326 0.0
C2139 C 0.17119 0.24576 0.29641 0.0
H2140 H 0.18249 0.24488 0.34922 0.0
C2141 C 0.20006 0.17994 0.33108 0.0
C2142 C 0.21542 0.18255 0.34294 0.0
C2143 C 0.18936 0.19507 0.32529 0.0
C2144 C 0.17946 0.24494 0.33444 0.0
H2145 H 0.13173 0.29312 0.2638 0.0
H2146 H 0.14032 0.26507 0.28084 0.0
H2147 H 0.16835 0.27261 0.33546 0.0
H2148 H 0.23116 0.20311 0.35853 0.0
H2149 H 0.21269 0.22957 0.34811 0.0
H2150 H 0.18276 0.21842 0.29518 0.0
C2151 C 0.1469 0.27812 0.28456 0.0
C2152 C 0.17135 0.26079 0.32659 0.0
C2153 C 0.14193 0.29422 0.27486 0.0
C2154 C 0.21942 0.20059 0.3494 0.0
C2155 C 0.20876 0.21575 0.34352 0.0
C2156 C 0.17932 0.22996 0.30424 0.0
C2157 C 0.16049 0.27879 0.29862 0.0
C2158 C 0.16737 0.26144 0.30743 0.0
C2159 C 0.19382 0.2132 0.33112 0.0
C2160 C 0.18378 0.22946 0.32329 0.0
H2161 H 0.17045 0.32503 0.29716 0.0
H2162 H 0.17917 0.29694 0.31388 0.0
H2163 H 0.16859 0.24594 0.28155 0.0
H2164 H 0.19645 0.16624 0.32593 0.0
H2165 H 0.17774 0.1926 0.316 0.0
C2166 C 0.29505 0.71783 0.84907 0.0
C2167 C 0.31345 0.71403 0.84359 0.0
C2168 C 0.2804 0.70673 0.84276 0.0
C2169 C 0.25268 0.67606 0.83363 0.0
H2170 H 0.25237 0.66629 0.78052 0.0
C2171 C 0.20403 0.63949 0.77284 0.0
C2172 C 0.18676 0.64728 0.77776 0.0
C2173 C 0.22019 0.64448 0.78246 0.0
C2174 C 0.25238 0.66854 0.79543 0.0
H2175 H 0.33091 0.69509 0.82771 0.0
H2176 H 0.30531 0.67578 0.81677 0.0
H2177 H 0.2795 0.68076 0.79472 0.0
H2178 H 0.17289 0.66596 0.7971 0.0
H2179 H 0.20099 0.67481 0.81356 0.0
H2180 H 0.22536 0.66419 0.83425 0.0
C2181 C 0.30224 0.68746 0.82579 0.0
C2182 C 0.26793 0.67686 0.80357 0.0
C2183 C 0.31691 0.69852 0.83213 0.0
C2184 C 0.18593 0.65968 0.79289 0.0
C2185 C 0.20206 0.66466 0.80246 0.0
C2186 C 0.23714 0.66767 0.8255 0.0
C2187 C 0.28382 0.69162 0.83081 0.0
C2188 C 0.26809 0.68104 0.82267 0.0
C2189 C 0.21941 0.65735 0.79719 0.0
C2190 C 0.23667 0.66417 0.80624 0.0
H2191 H 0.29187 0.72964 0.85789 0.0
H2192 H 0.26631 0.7104 0.8467 0.0
H2193 H 0.25254 0.67887 0.84844 0.0
H2194 H 0.20517 0.62983 0.76132 0.0
H2195 H 0.23334 0.63844 0.77822 0.0
C2196 C 0.82719 0.68029 0.29594 0.0
C2197 C 0.83926 0.68363 0.28088 0.0
C2198 C 0.82102 0.69496 0.30709 0.0
C2199 C 0.83049 0.74406 0.31954 0.0
H2200 H 0.7774 0.74583 0.32919 0.0
C2201 C 0.791 0.81167 0.33532 0.0
C2202 C 0.77575 0.81121 0.34758 0.0
C2203 C 0.80049 0.79537 0.33076 0.0
C2204 C 0.79231 0.74539 0.32698 0.0
H2205 H 0.85464 0.70502 0.26602 0.0
H2206 H 0.84367 0.73059 0.28533 0.0
H2207 H 0.79078 0.71852 0.31432 0.0
H2208 H 0.75911 0.7933 0.3654 0.0
H2209 H 0.77582 0.76482 0.35745 0.0
H2210 H 0.83187 0.77122 0.33174 0.0
C2211 C 0.83918 0.71658 0.28866 0.0
C2212 C 0.79998 0.72974 0.31843 0.0
C2213 C 0.84535 0.70193 0.2775 0.0
C2214 C 0.77074 0.79416 0.35583 0.0
C2215 C 0.78024 0.77782 0.35122 0.0
C2216 C 0.8228 0.75973 0.32811 0.0
C2217 C 0.82678 0.71329 0.30343 0.0
C2218 C 0.81908 0.72907 0.31427 0.0
C2219 C 0.79497 0.77821 0.33834 0.0
C2220 C 0.80357 0.76072 0.33156 0.0
H2221 H 0.82228 0.66637 0.29903 0.0
H2222 H 0.81163 0.69197 0.3185 0.0
H2223 H 0.84531 0.7438 0.31679 0.0
H2224 H 0.79531 0.82453 0.32872 0.0
H2225 H 0.81163 0.79612 0.32062 0.0
C2226 C 0.79763 0.35826 0.77749 0.0
C2227 C 0.81458 0.34943 0.78175 0.0
C2228 C 0.78134 0.35337 0.78693 0.0
C2229 C 0.76319 0.32755 0.828 0.0
H2230 H 0.72148 0.31705 0.79539 0.0
C2231 C 0.70383 0.27708 0.8473 0.0
C2232 C 0.68566 0.28151 0.84151 0.0
C2233 C 0.71888 0.28816 0.84189 0.0
C2234 C 0.73285 0.32021 0.80477 0.0
H2235 H 0.82782 0.32927 0.80003 0.0
H2236 H 0.79948 0.32065 0.81621 0.0
H2237 H 0.74902 0.33225 0.7829 0.0
H2238 H 0.66905 0.30146 0.82595 0.0
H2239 H 0.69527 0.32075 0.81667 0.0
H2240 H 0.74715 0.31493 0.84975 0.0
C2241 C 0.79876 0.33146 0.80572 0.0
C2242 C 0.74864 0.32897 0.79761 0.0
C2243 C 0.81503 0.33633 0.79631 0.0
C2244 C 0.68285 0.29753 0.83059 0.0
C2245 C 0.69788 0.30858 0.8252 0.0
C2246 C 0.74739 0.31876 0.83516 0.0
C2247 C 0.78166 0.33958 0.80083 0.0
C2248 C 0.76412 0.33243 0.80906 0.0
C2249 C 0.71608 0.30389 0.83058 0.0
C2250 C 0.73219 0.31471 0.82353 0.0
H2251 H 0.79678 0.36849 0.76643 0.0
H2252 H 0.7684 0.36006 0.78304 0.0
H2253 H 0.77481 0.33027 0.83723 0.0
H2254 H 0.70653 0.26485 0.85571 0.0
H2255 H 0.73277 0.28405 0.84608 0.0
C2256 C 0.22751 0.79053 0.65183 0.0
C2257 C 0.2185 0.80759 0.64888 0.0
C2258 C 0.2173 0.77481 0.65695 0.0
C2259 C 0.17183 0.76211 0.67794 0.0
H2260 H 0.18975 0.71225 0.66794 0.0
C2261 C 0.15011 0.69987 0.72296 0.0
C2262 C 0.15017 0.68191 0.71529 0.0
C2263 C 0.1559 0.71509 0.71237 0.0
C2264 C 0.18424 0.72602 0.67061 0.0
H2265 H 0.19173 0.82143 0.6477 0.0
H2266 H 0.17376 0.79384 0.65568 0.0
H2267 H 0.20432 0.73852 0.65262 0.0
H2268 H 0.15523 0.66591 0.69021 0.0
H2269 H 0.16445 0.69255 0.67143 0.0
H2270 H 0.15126 0.74958 0.69535 0.0
C2271 C 0.18876 0.79266 0.65489 0.0
C2272 C 0.19287 0.74118 0.66205 0.0
C2273 C 0.19903 0.80847 0.65019 0.0
C2274 C 0.15526 0.67957 0.69656 0.0
C2275 C 0.16068 0.69486 0.68584 0.0
C2276 C 0.16293 0.74694 0.68619 0.0
C2277 C 0.19779 0.77572 0.65882 0.0
C2278 C 0.18714 0.75947 0.66602 0.0
C2279 C 0.16152 0.71276 0.69373 0.0
C2280 C 0.16937 0.72872 0.68308 0.0
H2281 H 0.24254 0.78951 0.65101 0.0
H2282 H 0.22484 0.76216 0.66015 0.0
H2283 H 0.16706 0.77595 0.68154 0.0
H2284 H 0.14636 0.7021 0.73739 0.0
H2285 H 0.15666 0.72855 0.71911 0.0
C2286 C 0.69943 0.71638 0.14615 0.0
C2287 C 0.6812 0.71263 0.15223 0.0
C2288 C 0.71427 0.7053 0.15204 0.0
C2289 C 0.72778 0.67491 0.19071 0.0
H2290 H 0.76994 0.66346 0.15899 0.0
C2291 C 0.79256 0.63829 0.21992 0.0
C2292 C 0.80948 0.64709 0.21547 0.0
C2293 C 0.77631 0.64272 0.21021 0.0
C2294 C 0.75826 0.66656 0.168 0.0
H2295 H 0.66425 0.69382 0.1688 0.0
H2296 H 0.69014 0.67445 0.1789 0.0
H2297 H 0.74229 0.67807 0.1456 0.0
H2298 H 0.82272 0.6667 0.19659 0.0
H2299 H 0.7944 0.67449 0.17988 0.0
H2300 H 0.74387 0.66396 0.2132 0.0
C2301 C 0.69295 0.68613 0.16978 0.0
C2302 C 0.74246 0.67494 0.16035 0.0
C2303 C 0.67811 0.69721 0.16392 0.0
C2304 C 0.80994 0.65969 0.20048 0.0
C2305 C 0.79371 0.66408 0.19077 0.0
C2306 C 0.74355 0.66654 0.19834 0.0
C2307 C 0.71122 0.69021 0.16412 0.0
C2308 C 0.7272 0.67954 0.1717 0.0
C2309 C 0.77664 0.65598 0.19581 0.0
C2310 C 0.75911 0.66262 0.18715 0.0
H2311 H 0.70234 0.72814 0.13716 0.0
H2312 H 0.72821 0.70897 0.14763 0.0
H2313 H 0.71637 0.67851 0.19989 0.0
H2314 H 0.79171 0.62844 0.23131 0.0
H2315 H 0.76338 0.63607 0.21424 0.0
C2316 C 0.76774 0.20695 0.64296 0.0
C2317 C 0.77328 0.1894 0.64966 0.0
C2318 C 0.77744 0.22298 0.64817 0.0
C2319 C 0.82175 0.2393 0.66906 0.0
H2320 H 0.79186 0.28112 0.68553 0.0
C2321 C 0.84893 0.29603 0.71866 0.0
C2322 C 0.84311 0.31449 0.71575 0.0
C2323 C 0.84179 0.28162 0.70776 0.0
C2324 C 0.80044 0.26971 0.68068 0.0
H2325 H 0.79366 0.17495 0.66676 0.0
H2326 H 0.81028 0.20286 0.67599 0.0
H2327 H 0.77674 0.25432 0.67136 0.0
H2328 H 0.8257 0.33234 0.69858 0.0
H2329 H 0.81333 0.30716 0.67958 0.0
H2330 H 0.8454 0.25453 0.67893 0.0
C2331 C 0.79863 0.20423 0.66651 0.0
C2332 C 0.79177 0.25435 0.67254 0.0
C2333 C 0.78897 0.18822 0.66132 0.0
C2334 C 0.83042 0.31828 0.70131 0.0
C2335 C 0.82326 0.30386 0.69044 0.0
C2336 C 0.83042 0.25465 0.67724 0.0
C2337 C 0.79286 0.2218 0.66016 0.0
C2338 C 0.8023 0.23884 0.66696 0.0
C2339 C 0.82866 0.28536 0.69374 0.0
C2340 C 0.81981 0.26987 0.68342 0.0
H2341 H 0.75578 0.20836 0.63389 0.0
H2342 H 0.77279 0.23632 0.64289 0.0
H2343 H 0.83026 0.22768 0.66461 0.0
H2344 H 0.85868 0.2926 0.72965 0.0
H2345 H 0.84605 0.26747 0.71077 0.0
C2346 C 0.20258 0.34997 0.21829 0.0
C2347 C 0.18435 0.34412 0.21421 0.0
C2348 C 0.21758 0.34356 0.20773 0.0
C2349 C 0.23067 0.30354 0.17909 0.0
H2350 H 0.27405 0.33339 0.16716 0.0
C2351 C 0.29373 0.27184 0.14163 0.0
C2352 C 0.31118 0.27608 0.14942 0.0
C2353 C 0.27791 0.28183 0.14687 0.0
C2354 C 0.26204 0.32489 0.17046 0.0
H2355 H 0.16754 0.32766 0.19518 0.0
H2356 H 0.19367 0.3167 0.17671 0.0
H2357 H 0.24675 0.34818 0.18109 0.0
H2358 H 0.32575 0.2946 0.1684 0.0
H2359 H 0.29812 0.31176 0.17771 0.0
H2360 H 0.24602 0.28019 0.16896 0.0
C2361 C 0.19638 0.32598 0.18828 0.0
C2362 C 0.24644 0.33334 0.17842 0.0
C2363 C 0.18139 0.33234 0.19885 0.0
C2364 C 0.31254 0.29092 0.16213 0.0
C2365 C 0.29671 0.30087 0.16738 0.0
C2366 C 0.24624 0.2951 0.17116 0.0
C2367 C 0.21466 0.33119 0.19285 0.0
C2368 C 0.23068 0.3227 0.18303 0.0
C2369 C 0.27919 0.29625 0.16002 0.0
C2370 C 0.26218 0.30563 0.16698 0.0
H2371 H 0.20537 0.35903 0.23002 0.0
H2372 H 0.23153 0.34768 0.2117 0.0
H2373 H 0.21888 0.29489 0.18278 0.0
H2374 H 0.29218 0.26061 0.13169 0.0
H2375 H 0.26463 0.27812 0.14077 0.0
C2376 C 0.33637 0.19796 0.18163 0.0
C2377 C 0.34872 0.21314 0.18258 0.0
C2378 C 0.33133 0.18832 0.19773 0.0
C2379 C 0.32671 0.19633 0.24772 0.0
H2380 H 0.31624 0.14338 0.24948 0.0
C2381 C 0.29726 0.16254 0.31364 0.0
C2382 C 0.28204 0.15049 0.31106 0.0
C2383 C 0.30808 0.16816 0.29855 0.0
C2384 C 0.31905 0.15819 0.24915 0.0
H2385 H 0.3663 0.22934 0.2011 0.0
H2386 H 0.3576 0.21235 0.22913 0.0
H2387 H 0.33104 0.15674 0.22188 0.0
H2388 H 0.26669 0.1344 0.29059 0.0
H2389 H 0.28543 0.14452 0.26416 0.0
H2390 H 0.31432 0.19797 0.27468 0.0
C2391 C 0.35159 0.20816 0.21595 0.0
C2392 C 0.32753 0.16583 0.23338 0.0
C2393 C 0.35663 0.21783 0.19986 0.0
C2394 C 0.2783 0.14368 0.29309 0.0
C2395 C 0.28912 0.14939 0.27795 0.0
C2396 C 0.31825 0.18872 0.26344 0.0
C2397 C 0.33854 0.1936 0.21512 0.0
C2398 C 0.33124 0.18503 0.23242 0.0
C2399 C 0.3039 0.16197 0.28048 0.0
C2400 C 0.31412 0.16961 0.26425 0.0
H2401 H 0.33004 0.1939 0.16856 0.0
H2402 H 0.32111 0.17729 0.19663 0.0
H2403 H 0.32903 0.21123 0.24729 0.0
H2404 H 0.30067 0.16796 0.32729 0.0
H2405 H 0.31957 0.17761 0.301 0.0
C2406 C 0.34141 0.79704 0.81228 0.0
C2407 C 0.34778 0.77857 0.81113 0.0
C2408 C 0.33575 0.80652 0.79628 0.0
C2409 C 0.31237 0.79746 0.75373 0.0
H2410 H 0.3283 0.84634 0.73703 0.0
C2411 C 0.26974 0.84281 0.70337 0.0
C2412 C 0.27873 0.84514 0.68616 0.0
C2413 C 0.27966 0.83642 0.71882 0.0
C2414 C 0.32378 0.83271 0.74164 0.0
H2415 H 0.35392 0.75579 0.79228 0.0
H2416 H 0.34342 0.77224 0.76436 0.0
H2417 H 0.34427 0.8313 0.7634 0.0
H2418 H 0.30532 0.84376 0.67187 0.0
H2419 H 0.32275 0.8331 0.69917 0.0
H2420 H 0.2915 0.79908 0.73248 0.0
C2421 C 0.34308 0.77937 0.77765 0.0
C2422 C 0.33286 0.82415 0.75661 0.0
C2423 C 0.34912 0.77002 0.79359 0.0
C2424 C 0.29802 0.84199 0.68495 0.0
C2425 C 0.30801 0.83599 0.70052 0.0
C2426 C 0.30306 0.80617 0.7391 0.0
C2427 C 0.33603 0.79755 0.77895 0.0
C2428 C 0.32724 0.80643 0.76268 0.0
C2429 C 0.29878 0.8327 0.71739 0.0
C2430 C 0.30868 0.82384 0.73298 0.0
H2431 H 0.34033 0.80401 0.8256 0.0
H2432 H 0.33026 0.82051 0.79758 0.0
H2433 H 0.3077 0.78387 0.75834 0.0
H2434 H 0.25489 0.84504 0.7047 0.0
H2435 H 0.27234 0.83394 0.73177 0.0
C2436 C 0.71536 0.84873 0.29302 0.0
C2437 C 0.71141 0.843 0.31132 0.0
C2438 C 0.70446 0.84252 0.27817 0.0
C2439 C 0.67436 0.80351 0.26507 0.0
H2440 H 0.66284 0.83451 0.22238 0.0
C2441 C 0.63733 0.77345 0.20077 0.0
C2442 C 0.6458 0.77785 0.18367 0.0
C2443 C 0.64207 0.78322 0.21692 0.0
C2444 C 0.66598 0.82569 0.2342 0.0
H2445 H 0.69242 0.82674 0.32839 0.0
H2446 H 0.67339 0.81607 0.30248 0.0
H2447 H 0.67737 0.84838 0.24981 0.0
H2448 H 0.66529 0.79658 0.17005 0.0
H2449 H 0.67362 0.81335 0.19815 0.0
H2450 H 0.6635 0.78072 0.24933 0.0
C2451 C 0.68508 0.82517 0.29962 0.0
C2452 C 0.67431 0.83362 0.24988 0.0
C2453 C 0.69597 0.83136 0.31447 0.0
C2454 C 0.6585 0.79275 0.18296 0.0
C2455 C 0.6632 0.8025 0.19908 0.0
C2456 C 0.66605 0.79559 0.2494 0.0
C2457 C 0.68937 0.83046 0.28128 0.0
C2458 C 0.67889 0.82254 0.26535 0.0
C2459 C 0.65533 0.7976 0.2163 0.0
C2460 C 0.66208 0.80651 0.23366 0.0
H2461 H 0.72714 0.85767 0.29007 0.0
H2462 H 0.70826 0.84666 0.26418 0.0
H2463 H 0.67795 0.79454 0.27665 0.0
H2464 H 0.62743 0.76212 0.20183 0.0
H2465 H 0.63559 0.77928 0.22996 0.0
C2466 C 0.6928 0.15286 0.68033 0.0
C2467 C 0.71186 0.14895 0.68222 0.0
C2468 C 0.68217 0.15778 0.69585 0.0
C2469 C 0.684 0.16139 0.74791 0.0
H2470 H 0.64828 0.20094 0.73949 0.0
C2471 C 0.64987 0.19845 0.8098 0.0
C2472 C 0.64767 0.21779 0.80823 0.0
C2473 C 0.65395 0.18771 0.79415 0.0
C2474 C 0.65832 0.19002 0.74215 0.0
H2475 H 0.73464 0.14657 0.70186 0.0
H2476 H 0.7165 0.15602 0.72868 0.0
H2477 H 0.66321 0.18617 0.71313 0.0
H2478 H 0.64747 0.24109 0.78912 0.0
H2479 H 0.65563 0.22265 0.76194 0.0
H2480 H 0.68039 0.16634 0.77692 0.0
C2481 C 0.70944 0.15472 0.71543 0.0
C2482 C 0.66666 0.18124 0.72694 0.0
C2483 C 0.71995 0.14939 0.69999 0.0
C2484 C 0.64901 0.22617 0.79065 0.0
C2485 C 0.65356 0.21551 0.77505 0.0
C2486 C 0.67598 0.17045 0.7631 0.0
C2487 C 0.69048 0.15933 0.71353 0.0
C2488 C 0.67992 0.16706 0.72962 0.0
C2489 C 0.65643 0.19615 0.77663 0.0
C2490 C 0.6633 0.18515 0.76045 0.0
H2491 H 0.68614 0.1524 0.66681 0.0
H2492 H 0.66752 0.16074 0.69387 0.0
H2493 H 0.69378 0.15023 0.75057 0.0
H2494 H 0.64857 0.19163 0.82318 0.0
H2495 H 0.65548 0.17282 0.79589 0.0
C2496 C 0.78972 0.81 0.66875 0.0
C2497 C 0.78122 0.81112 0.65118 0.0
C2498 C 0.79993 0.7943 0.67377 0.0
C2499 C 0.80571 0.74458 0.66141 0.0
H2500 H 0.84446 0.74821 0.69878 0.0
C2501 C 0.85594 0.69542 0.71162 0.0
C2502 C 0.84287 0.6814 0.71547 0.0
C2503 C 0.85111 0.71055 0.70037 0.0
C2504 C 0.83398 0.74682 0.68805 0.0
H2505 H 0.77743 0.79705 0.62476 0.0
H2506 H 0.79597 0.76987 0.63322 0.0
H2507 H 0.8323 0.77628 0.68468 0.0
H2508 H 0.81462 0.67205 0.71041 0.0
H2509 H 0.80587 0.69874 0.69177 0.0
H2510 H 0.80792 0.71508 0.66423 0.0
C2511 C 0.79423 0.78086 0.64339 0.0
C2512 C 0.82671 0.76303 0.68019 0.0
C2513 C 0.78367 0.79647 0.63848 0.0
C2514 C 0.82503 0.68259 0.7076 0.0
C2515 C 0.82008 0.69788 0.69672 0.0
C2516 C 0.81328 0.72834 0.66896 0.0
C2517 C 0.80225 0.77943 0.66123 0.0
C2518 C 0.81199 0.76217 0.6673 0.0
C2519 C 0.83297 0.71219 0.69308 0.0
C2520 C 0.82703 0.72925 0.6829 0.0
H2521 H 0.78799 0.821 0.67891 0.0
H2522 H 0.80545 0.79362 0.68778 0.0
H2523 H 0.79437 0.74326 0.65158 0.0
H2524 H 0.86988 0.69471 0.71732 0.0
H2525 H 0.86156 0.72103 0.69757 0.0
C2526 C 0.68499 0.29435 0.15989 0.0
C2527 C 0.68741 0.27755 0.15012 0.0
C2528 C 0.70034 0.30465 0.16576 0.0
C2529 C 0.75111 0.31085 0.16 0.0
H2530 H 0.74853 0.32687 0.2115 0.0
C2531 C 0.8156 0.33029 0.20371 0.0
C2532 C 0.81389 0.34459 0.21698 0.0
C2533 C 0.80017 0.32445 0.19346 0.0
C2534 C 0.74938 0.32283 0.197 0.0
H2535 H 0.70793 0.25882 0.13822 0.0
H2536 H 0.73479 0.27675 0.14877 0.0
H2537 H 0.72159 0.31231 0.19719 0.0
H2538 H 0.79478 0.36457 0.2292 0.0
H2539 H 0.76793 0.35449 0.21113 0.0
H2540 H 0.77912 0.32108 0.16002 0.0
C2541 C 0.72096 0.28201 0.15168 0.0
C2542 C 0.73393 0.31445 0.18879 0.0
C2543 C 0.70557 0.27169 0.14572 0.0
C2544 C 0.79657 0.35342 0.21921 0.0
C2545 C 0.78115 0.34759 0.20892 0.0
C2546 C 0.76661 0.31927 0.16822 0.0
C2547 C 0.71848 0.29838 0.1621 0.0
C2548 C 0.73466 0.30823 0.17026 0.0
C2549 C 0.7827 0.33279 0.19622 0.0
C2550 C 0.76594 0.32518 0.18688 0.0
H2551 H 0.67123 0.29941 0.16339 0.0
H2552 H 0.69799 0.31739 0.17347 0.0
H2553 H 0.752 0.30636 0.14563 0.0
H2554 H 0.82873 0.32319 0.20157 0.0
H2555 H 0.80178 0.31288 0.18392 0.0
C2556 C 0.15326 0.29224 0.72334 0.0
C2557 C 0.15278 0.31038 0.71609 0.0
C2558 C 0.15952 0.27747 0.71242 0.0
C2559 C 0.18735 0.2678 0.66992 0.0
H2560 H 0.17014 0.21764 0.67972 0.0
C2561 C 0.22984 0.20351 0.64854 0.0
C2562 C 0.2207 0.18647 0.6459 0.0
C2563 C 0.2198 0.21925 0.65391 0.0
C2564 C 0.17491 0.23154 0.6764 0.0
H2565 H 0.15764 0.32717 0.69149 0.0
H2566 H 0.16768 0.30128 0.6721 0.0
H2567 H 0.15478 0.24359 0.69459 0.0
H2568 H 0.19391 0.1727 0.64527 0.0
H2569 H 0.17618 0.20036 0.65354 0.0
H2570 H 0.20695 0.25578 0.65108 0.0
C2571 C 0.16394 0.29851 0.68643 0.0
C2572 C 0.16629 0.24648 0.6853 0.0
C2573 C 0.15806 0.31336 0.69751 0.0
C2574 C 0.20127 0.18565 0.64755 0.0
C2575 C 0.19116 0.2015 0.65243 0.0
C2576 C 0.1957 0.25287 0.66068 0.0
C2577 C 0.16505 0.2804 0.69383 0.0
C2578 C 0.17274 0.26476 0.68262 0.0
C2579 C 0.20034 0.21837 0.65631 0.0
C2580 C 0.18995 0.23449 0.6642 0.0
H2581 H 0.14941 0.28954 0.73766 0.0
H2582 H 0.16054 0.26386 0.71881 0.0
H2583 H 0.19285 0.28162 0.66755 0.0
H2584 H 0.24485 0.20442 0.64745 0.0
H2585 H 0.22747 0.23184 0.65702 0.0
C2586 C 0.19559 0.63905 0.21459 0.0
C2587 C 0.18039 0.65131 0.21579 0.0
C2588 C 0.21145 0.64397 0.20443 0.0
C2589 C 0.2292 0.67941 0.17052 0.0
H2590 H 0.27696 0.6668 0.1922 0.0
C2591 C 0.30896 0.70933 0.17194 0.0
C2592 C 0.31023 0.7157 0.15352 0.0
C2593 C 0.29381 0.69854 0.17758 0.0
C2594 C 0.26374 0.67061 0.18603 0.0
H2595 H 0.16983 0.67823 0.20697 0.0
H2596 H 0.19753 0.68711 0.19012 0.0
H2597 H 0.24872 0.65397 0.20555 0.0
H2598 H 0.29736 0.71493 0.12625 0.0
H2599 H 0.27143 0.6953 0.13577 0.0
H2600 H 0.24397 0.69727 0.15203 0.0
C2601 C 0.19714 0.67342 0.19642 0.0
C2602 C 0.2475 0.66294 0.1935 0.0
C2603 C 0.18123 0.66838 0.20629 0.0
C2604 C 0.29653 0.71043 0.14063 0.0
C2605 C 0.28162 0.69926 0.14615 0.0
C2606 C 0.24537 0.68739 0.16332 0.0
C2607 C 0.21255 0.66138 0.19547 0.0
C2608 C 0.22997 0.66759 0.18611 0.0
C2609 C 0.2798 0.69351 0.16481 0.0
C2610 C 0.26285 0.68341 0.17121 0.0
H2611 H 0.19531 0.62571 0.22164 0.0
H2612 H 0.2229 0.63419 0.20374 0.0
H2613 H 0.21602 0.68296 0.16413 0.0
H2614 H 0.31931 0.71327 0.18218 0.0
H2615 H 0.29282 0.69475 0.19213 0.0
C2616 C 0.83181 0.31402 0.29585 0.0
C2617 C 0.84642 0.31284 0.28286 0.0
C2618 C 0.82624 0.29835 0.3059 0.0
C2619 C 0.82638 0.24751 0.30203 0.0
H2620 H 0.80793 0.24941 0.35275 0.0
C2621 C 0.79768 0.18229 0.33775 0.0
C2622 C 0.78041 0.18441 0.34673 0.0
C2623 C 0.80798 0.19783 0.33237 0.0
C2624 C 0.81299 0.24871 0.33856 0.0
H2625 H 0.86729 0.29444 0.27102 0.0
H2626 H 0.85771 0.2672 0.28877 0.0
H2627 H 0.82244 0.27699 0.33904 0.0
H2628 H 0.76081 0.2046 0.35777 0.0
H2629 H 0.77876 0.23176 0.34813 0.0
H2630 H 0.81664 0.21943 0.30134 0.0
C2631 C 0.85033 0.28017 0.29088 0.0
C2632 C 0.82129 0.26447 0.33072 0.0
C2633 C 0.85587 0.29583 0.28077 0.0
C2634 C 0.77405 0.20245 0.35086 0.0
C2635 C 0.78438 0.21803 0.34543 0.0
C2636 C 0.81814 0.23178 0.30986 0.0
C2637 C 0.83519 0.28116 0.30325 0.0
C2638 C 0.82787 0.2641 0.31228 0.0
C2639 C 0.80126 0.21586 0.33578 0.0
C2640 C 0.81117 0.23226 0.32813 0.0
H2641 H 0.82423 0.3269 0.29786 0.0
H2642 H 0.81441 0.29955 0.31516 0.0
H2643 H 0.83095 0.24684 0.28767 0.0
H2644 H 0.80313 0.16861 0.33448 0.0
H2645 H 0.8211 0.19572 0.32523 0.0
C2646 C 0.18468 0.32958 0.79228 0.0
C2647 C 0.18402 0.34559 0.78107 0.0
C2648 C 0.20079 0.325 0.80201 0.0
C2649 C 0.2338 0.3198 0.82672 0.0
H2650 H 0.28086 0.32898 0.80207 0.0
C2651 C 0.30107 0.28662 0.8546 0.0
C2652 C 0.31399 0.28053 0.84131 0.0
C2653 C 0.28635 0.29822 0.84939 0.0
C2654 C 0.26783 0.32609 0.80908 0.0
H2655 H 0.19947 0.36993 0.7721 0.0
H2656 H 0.22745 0.36238 0.78984 0.0
H2657 H 0.25257 0.34205 0.7892 0.0
H2658 H 0.32189 0.28173 0.81225 0.0
H2659 H 0.29564 0.30081 0.80282 0.0
H2660 H 0.24868 0.30242 0.84555 0.0
C2661 C 0.21569 0.35298 0.79057 0.0
C2662 C 0.25157 0.33396 0.80188 0.0
C2663 C 0.19961 0.35739 0.78048 0.0
C2664 C 0.31213 0.28635 0.82277 0.0
C2665 C 0.29713 0.29749 0.81744 0.0
C2666 C 0.24996 0.31153 0.83362 0.0
C2667 C 0.21661 0.33651 0.80118 0.0
C2668 C 0.23424 0.33049 0.81032 0.0
C2669 C 0.28393 0.30351 0.83065 0.0
C2670 C 0.26716 0.31417 0.82463 0.0
H2671 H 0.17297 0.32013 0.79304 0.0
H2672 H 0.20097 0.31198 0.80961 0.0
H2673 H 0.22084 0.31726 0.83398 0.0
H2674 H 0.30242 0.28253 0.86907 0.0
H2675 H 0.27684 0.30291 0.86009 0.0
C2676 C 0.21205 0.81072 0.32585 0.0
C2677 C 0.21938 0.81163 0.34393 0.0
C2678 C 0.20104 0.79566 0.32046 0.0
C2679 C 0.19065 0.7469 0.33383 0.0
H2680 H 0.15421 0.75204 0.29438 0.0
C2681 C 0.13811 0.69978 0.2843 0.0
C2682 C 0.15001 0.68452 0.28151 0.0
C2683 C 0.14397 0.71503 0.29483 0.0
C2684 C 0.16403 0.7503 0.30568 0.0
H2685 H 0.22023 0.79805 0.37087 0.0
H2686 H 0.20032 0.77215 0.36177 0.0
H2687 H 0.16813 0.77965 0.30784 0.0
H2688 H 0.17726 0.67312 0.28781 0.0
H2689 H 0.18781 0.69993 0.30529 0.0
H2690 H 0.18603 0.71759 0.33218 0.0
C2691 C 0.20362 0.78266 0.35148 0.0
C2692 C 0.17231 0.76619 0.31318 0.0
C2693 C 0.21496 0.79754 0.35674 0.0
C2694 C 0.16771 0.68463 0.28978 0.0
C2695 C 0.17371 0.7 0.29998 0.0
C2696 C 0.18209 0.73103 0.3266 0.0
C2697 C 0.19677 0.78135 0.33316 0.0
C2698 C 0.18617 0.76467 0.32694 0.0
C2699 C 0.16201 0.71551 0.30249 0.0
C2700 C 0.16912 0.73248 0.31201 0.0
H2701 H 0.21531 0.82134 0.31564 0.0
H2702 H 0.19641 0.79501 0.30613 0.0
H2703 H 0.20133 0.74507 0.34431 0.0
H2704 H 0.12428 0.69997 0.27826 0.0
H2705 H 0.13442 0.72653 0.29678 0.0
C2706 C 0.8124 0.66377 0.79682 0.0
C2707 C 0.81019 0.65103 0.78213 0.0
C2708 C 0.79705 0.66981 0.80703 0.0
C2709 C 0.74726 0.66032 0.81705 0.0
H2710 H 0.74572 0.7136 0.82566 0.0
C2711 C 0.68002 0.7014 0.83362 0.0
C2712 C 0.68131 0.7164 0.84616 0.0
C2713 C 0.69594 0.69154 0.82838 0.0
C2714 C 0.74605 0.69865 0.82367 0.0
H2715 H 0.79012 0.63415 0.7671 0.0
H2716 H 0.76325 0.64504 0.78469 0.0
H2717 H 0.77322 0.69976 0.81174 0.0
H2718 H 0.70025 0.73208 0.86378 0.0
H2719 H 0.7279 0.71478 0.85469 0.0
H2720 H 0.71974 0.65943 0.82857 0.0
C2721 C 0.77692 0.65013 0.78849 0.0
C2722 C 0.76183 0.6907 0.81569 0.0
C2723 C 0.79233 0.64397 0.77833 0.0
C2724 C 0.69874 0.72074 0.85396 0.0
C2725 C 0.71462 0.71088 0.84871 0.0
C2726 C 0.73139 0.66832 0.82501 0.0
C2727 C 0.77908 0.6634 0.80271 0.0
C2728 C 0.7626 0.67147 0.81218 0.0
C2729 C 0.71345 0.69646 0.83555 0.0
C2730 C 0.7306 0.68759 0.82828 0.0
H2731 H 0.82595 0.66941 0.80026 0.0
H2732 H 0.79923 0.67977 0.81815 0.0
H2733 H 0.74751 0.64543 0.8147 0.0
H2734 H 0.66683 0.69762 0.82737 0.0
H2735 H 0.69462 0.68059 0.8181 0.0
C2736 C 0.71909 0.85395 0.70132 0.0
C2737 C 0.71652 0.8448 0.6842 0.0
C2738 C 0.70882 0.84868 0.71696 0.0
C2739 C 0.69645 0.82486 0.74938 0.0
H2740 H 0.64452 0.81018 0.74739 0.0
C2741 C 0.64368 0.7758 0.79381 0.0
C2742 C 0.64856 0.78131 0.81195 0.0
C2743 C 0.64987 0.78596 0.77842 0.0
C2744 C 0.65904 0.81416 0.74813 0.0
H2745 H 0.70057 0.82339 0.66998 0.0
H2746 H 0.68288 0.81409 0.69731 0.0
H2747 H 0.65922 0.82384 0.71991 0.0
H2748 H 0.66296 0.80241 0.82814 0.0
H2749 H 0.67346 0.8202 0.80134 0.0
H2750 H 0.69649 0.8148 0.77735 0.0
C2751 C 0.6927 0.82546 0.69858 0.0
C2752 C 0.66745 0.82199 0.73241 0.0
C2753 C 0.70296 0.83073 0.68294 0.0
C2754 C 0.65907 0.79765 0.81437 0.0
C2755 C 0.66518 0.80782 0.799 0.0
C2756 C 0.68807 0.81704 0.76504 0.0
C2757 C 0.69577 0.83415 0.71583 0.0
C2758 C 0.6863 0.82722 0.73282 0.0
C2759 C 0.66101 0.80186 0.78085 0.0
C2760 C 0.66933 0.81142 0.76455 0.0
H2761 H 0.72932 0.86493 0.70279 0.0
H2762 H 0.71129 0.85581 0.73001 0.0
H2763 H 0.71108 0.82842 0.75005 0.0
H2764 H 0.63561 0.76328 0.79142 0.0
H2765 H 0.64656 0.7809 0.7646 0.0
C2766 C 0.72668 0.14999 0.29351 0.0
C2767 C 0.71797 0.14808 0.31089 0.0
C2768 C 0.71642 0.15549 0.27795 0.0
C2769 C 0.67225 0.17944 0.26582 0.0
H2770 H 0.68782 0.16652 0.21585 0.0
C2771 C 0.65133 0.22336 0.20229 0.0
C2772 C 0.6505 0.21494 0.1847 0.0
C2773 C 0.65686 0.21308 0.21784 0.0
C2774 C 0.68294 0.17004 0.22966 0.0
H2775 H 0.69157 0.14923 0.32544 0.0
H2776 H 0.67347 0.1579 0.29814 0.0
H2777 H 0.70212 0.15111 0.24218 0.0
H2778 H 0.65347 0.18894 0.16972 0.0
H2779 H 0.66215 0.17074 0.19692 0.0
H2780 H 0.65255 0.19783 0.25328 0.0
C2781 C 0.68833 0.15595 0.29659 0.0
C2782 C 0.69145 0.16141 0.24485 0.0
C2783 C 0.69867 0.15085 0.31224 0.0
C2784 C 0.65427 0.19584 0.18309 0.0
C2785 C 0.65938 0.18545 0.19869 0.0
C2786 C 0.66347 0.18779 0.25063 0.0
C2787 C 0.69714 0.15882 0.27933 0.0
C2788 C 0.68658 0.16635 0.26315 0.0
C2789 C 0.66128 0.19404 0.21619 0.0
C2790 C 0.66903 0.18358 0.23234 0.0
H2791 H 0.74157 0.14807 0.29211 0.0
H2792 H 0.72382 0.15784 0.26503 0.0
H2793 H 0.66819 0.1838 0.27966 0.0
H2794 H 0.6486 0.2381 0.2039 0.0
H2795 H 0.65842 0.22032 0.23096 0.0
C2796 C 0.2995 0.16019 0.68045 0.0
C2797 C 0.28269 0.15047 0.68302 0.0
C2798 C 0.31021 0.16559 0.69571 0.0
C2799 C 0.31727 0.15815 0.74626 0.0
H2800 H 0.33348 0.20964 0.74533 0.0
C2801 C 0.33417 0.20028 0.8122 0.0
C2802 C 0.34824 0.21388 0.81143 0.0
C2803 C 0.32928 0.19023 0.79633 0.0
C2804 C 0.32942 0.19513 0.74571 0.0
H2805 H 0.26433 0.13824 0.7037 0.0
H2806 H 0.28294 0.14792 0.73034 0.0
H2807 H 0.31907 0.19619 0.71785 0.0
H2808 H 0.36889 0.22683 0.79353 0.0
H2809 H 0.36041 0.20911 0.76586 0.0
H2810 H 0.32721 0.15731 0.77436 0.0
C2811 C 0.28792 0.15116 0.71648 0.0
C2812 C 0.32112 0.18741 0.72995 0.0
C2813 C 0.27719 0.14571 0.7012 0.0
C2814 C 0.3579 0.21656 0.79461 0.0
C2815 C 0.35299 0.20648 0.77872 0.0
C2816 C 0.3256 0.16588 0.76205 0.0
C2817 C 0.30437 0.16145 0.7139 0.0
C2818 C 0.31468 0.16894 0.73014 0.0
C2819 C 0.33835 0.1935 0.77932 0.0
C2820 C 0.33147 0.18455 0.76204 0.0
H2821 H 0.30427 0.16398 0.66665 0.0
H2822 H 0.32297 0.17326 0.69327 0.0
H2823 H 0.31267 0.14379 0.74673 0.0
H2824 H 0.32646 0.19778 0.82492 0.0
H2825 H 0.3178 0.18049 0.79722 0.0
C2826 C 0.29488 0.8271 0.31279 0.0
C2827 C 0.28669 0.84477 0.31448 0.0
C2828 C 0.30521 0.82249 0.29704 0.0
C2829 C 0.31119 0.83669 0.24785 0.0
H2830 H 0.34832 0.79758 0.24954 0.0
C2831 C 0.32689 0.79162 0.18427 0.0
C2832 C 0.34435 0.78307 0.18225 0.0
C2833 C 0.32287 0.80224 0.19998 0.0
C2834 C 0.33829 0.8088 0.24871 0.0
H2835 H 0.28381 0.87186 0.30147 0.0
H2836 H 0.30259 0.86412 0.27428 0.0
H2837 H 0.33714 0.81112 0.27832 0.0
H2838 H 0.37166 0.77976 0.19468 0.0
H2839 H 0.36493 0.79899 0.22183 0.0
H2840 H 0.31284 0.83485 0.21824 0.0
C2841 C 0.30046 0.85355 0.28481 0.0
C2842 C 0.33159 0.81636 0.26531 0.0
C2843 C 0.28977 0.85804 0.30045 0.0
C2844 C 0.35799 0.786 0.19596 0.0
C2845 C 0.35408 0.79695 0.21157 0.0
C2846 C 0.3182 0.82942 0.23125 0.0
C2847 C 0.30798 0.83556 0.2827 0.0
C2848 C 0.31741 0.82987 0.26513 0.0
C2849 C 0.33633 0.80493 0.21396 0.0
C2850 C 0.33129 0.81485 0.23146 0.0
H2851 H 0.2927 0.81651 0.32331 0.0
H2852 H 0.31037 0.80839 0.29585 0.0
H2853 H 0.30025 0.84701 0.24703 0.0
H2854 H 0.31602 0.78957 0.17401 0.0
H2855 H 0.30891 0.80774 0.20143 0.0
loop_
_geom_bond_atom_site_label_1
_geom_bond_atom_site_label_2
_geom_bond_distance
_geom_bond_site_symmetry_2
_ccdc_geom_bond_type
Co0 O2 2.143 . S
Co0 O8 2.074 . S
Co0 O11 2.093 . S
Co0 O24 2.097 . S
Co0 N41 2.151 . S
Co0 N49 2.214 . S
Co1 O2 2.160 . S
Co1 O7 2.058 . S
Co1 O17 2.057 . S
Co1 O32 2.037 . S
Co1 N36 2.145 . S
Co1 N57 2.257 . S
O2 Co0 2.143 . S
O2 Co1 2.160 . S
C3 O4 1.278 . S
C3 O11 1.224 . S
O4 C3 1.278 . S
C5 O6 1.245 . S
C5 O17 1.232 . S
O6 C5 1.245 . S
O7 Co1 2.058 . S
O7 C33 1.269 . S
O8 Co0 2.074 . S
O8 C33 1.257 . S
H9 C34 0.930 . S
H10 C40 0.930 . S
O11 Co0 2.093 . S
O11 C3 1.224 . S
H12 C44 0.929 . S
H13 C46 0.930 . S
H14 C47 0.930 . S
H15 C45 0.929 . S
H16 C48 0.928 . S
O17 Co1 2.057 . S
O17 C5 1.232 . S
H18 C37 0.929 . S
H19 C38 0.929 . S
H20 C50 0.931 . S
H21 C42 0.929 . S
H22 C51 0.930 . S
H23 C43 0.931 . S
O24 Co0 2.097 . S
O24 C52 1.214 . S
H25 C53 0.929 . S
H26 C54 0.929 . S
H27 C55 0.930 . S
H28 C56 0.929 . S
H29 C58 0.930 . S
H30 C35 0.930 . S
H31 C39 0.930 . S
O32 Co1 2.037 . S
O32 C52 1.234 . S
C33 O7 1.269 . S
C33 O8 1.257 . S
C34 H9 0.930 . S
C34 C37 1.388 . S
C34 C39 1.418 . S
C35 H30 0.930 . S
C35 C38 1.404 . S
C35 C39 1.353 . S
N36 Co1 2.145 . S
N36 C37 1.397 . S
N36 C38 1.334 . S
C37 H18 0.929 . S
C37 C34 1.388 . S
C37 N36 1.397 . S
C38 H19 0.929 . S
C38 C35 1.404 . S
C38 N36 1.334 . S
C39 H31 0.930 . S
C39 C34 1.418 . S
C39 C35 1.353 . S
C40 H10 0.930 . S
C40 N41 1.330 . S
C40 C42 1.446 . S
N41 Co0 2.151 . S
N41 C40 1.330 . S
N41 C45 1.418 . S
C42 H21 0.929 . S
C42 C40 1.446 . S
C42 C43 1.332 . S
C43 H23 0.931 . S
C43 C42 1.332 . S
C43 C44 1.267 . S
C44 H12 0.929 . S
C44 C43 1.267 . S
C44 C45 1.251 . S
C45 H15 0.929 . S
C45 N41 1.418 . S
C45 C44 1.251 . S
C46 H13 0.930 . S
C46 C48 1.406 . S
C46 C51 1.261 . S
C47 H14 0.930 . S
C47 N49 1.325 . S
C47 C50 1.357 . S
C48 H16 0.928 . S
C48 C46 1.406 . S
C48 N49 1.261 . S
N49 Co0 2.214 . S
N49 C47 1.325 . S
N49 C48 1.261 . S
C50 H20 0.931 . S
C50 C47 1.357 . S
C50 C51 1.312 . S
C51 H22 0.930 . S
C51 C46 1.261 . S
C51 C50 1.312 . S
C52 O24 1.214 . S
C52 O32 1.234 . S
C53 H25 0.929 . S
C53 C56 1.391 . S
C53 C58 1.391 . S
C54 H26 0.929 . S
C54 C55 1.390 . S
C54 N57 1.391 . S
C55 H27 0.930 . S
C55 C54 1.390 . S
C55 C56 1.392 . S
C56 H28 0.929 . S
C56 C53 1.391 . S
C56 C55 1.392 . S
N57 Co1 2.257 . S
N57 C54 1.391 . S
N57 C58 1.388 . S
C58 H29 0.930 . S
C58 C53 1.391 . S
C58 N57 1.388 . S
Co59 O61 2.143 . S
Co59 O67 2.074 . S
Co59 O70 2.093 . S
Co59 O83 2.097 . S
Co59 N100 2.151 . S
Co59 N108 2.214 . S
Co60 O61 2.160 . S
Co60 O66 2.058 . S
Co60 O76 2.057 . S
Co60 O91 2.037 . S
Co60 N95 2.145 . S
Co60 N116 2.257 . S
O61 Co59 2.143 . S
O61 Co60 2.160 . S
C62 O63 1.278 . S
C62 O70 1.224 . S
O63 C62 1.278 . S
C64 O65 1.245 . S
C64 O76 1.232 . S
O65 C64 1.245 . S
O66 Co60 2.058 . S
O66 C92 1.269 . S
O67 Co59 2.074 . S
O67 C92 1.257 . S
H68 C93 0.930 . S
H69 C99 0.930 . S
O70 Co59 2.093 . S
O70 C62 1.224 . S
H71 C103 0.929 . S
H72 C105 0.930 . S
H73 C106 0.930 . S
H74 C104 0.929 . S
H75 C107 0.928 . S
O76 Co60 2.057 . S
O76 C64 1.232 . S
H77 C96 0.929 . S
H78 C97 0.929 . S
H79 C109 0.931 . S
H80 C101 0.929 . S
H81 C110 0.930 . S
H82 C102 0.931 . S
O83 Co59 2.097 . S
O83 C111 1.214 . S
H84 C112 0.929 . S
H85 C113 0.929 . S
H86 C114 0.930 . S
H87 C115 0.929 . S
H88 C117 0.930 . S
H89 C94 0.930 . S
H90 C98 0.930 . S
O91 Co60 2.037 . S
O91 C111 1.234 . S
C92 O66 1.269 . S
C92 O67 1.257 . S
C93 H68 0.930 . S
C93 C96 1.388 . S
C93 C98 1.418 . S
C94 H89 0.930 . S
C94 C97 1.404 . S
C94 C98 1.353 . S
N95 Co60 2.145 . S
N95 C96 1.397 . S
N95 C97 1.334 . S
C96 H77 0.929 . S
C96 C93 1.388 . S
C96 N95 1.397 . S
C97 H78 0.929 . S
C97 C94 1.404 . S
C97 N95 1.334 . S
C98 H90 0.930 . S
C98 C93 1.418 . S
C98 C94 1.353 . S
C99 H69 0.930 . S
C99 N100 1.330 . S
C99 C101 1.446 . S
N100 Co59 2.151 . S
N100 C99 1.330 . S
N100 C104 1.418 . S
C101 H80 0.929 . S
C101 C99 1.446 . S
C101 C102 1.332 . S
C102 H82 0.931 . S
C102 C101 1.332 . S
C102 C103 1.267 . S
C103 H71 0.929 . S
C103 C102 1.267 . S
C103 C104 1.251 . S
C104 H74 0.929 . S
C104 N100 1.418 . S
C104 C103 1.251 . S
C105 H72 0.930 . S
C105 C107 1.406 . S
C105 C110 1.261 . S
C106 H73 0.930 . S
C106 N108 1.325 . S
C106 C109 1.357 . S
C107 H75 0.928 . S
C107 C105 1.406 . S
C107 N108 1.261 . S
N108 Co59 2.214 . S
N108 C106 1.325 . S
N108 C107 1.261 . S
C109 H79 0.931 . S
C109 C106 1.357 . S
C109 C110 1.312 . S
C110 H81 0.930 . S
C110 C105 1.261 . S
C110 C109 1.312 . S
C111 O83 1.214 . S
C111 O91 1.234 . S
C112 H84 0.929 . S
C112 C115 1.391 . S
C112 C117 1.391 . S
C113 H85 0.929 . S
C113 C114 1.390 . S
C113 N116 1.391 . S
C114 H86 0.930 . S
C114 C113 1.390 . S
C114 C115 1.392 . S
C115 H87 0.929 . S
C115 C112 1.391 . S
C115 C114 1.392 . S
N116 Co60 2.257 . S
N116 C113 1.391 . S
N116 C117 1.388 . S
C117 H88 0.930 . S
C117 C112 1.391 . S
C117 N116 1.388 . S
Co118 O120 2.143 . S
Co118 O126 2.074 . S
Co118 O129 2.093 . S
Co118 O142 2.097 . S
Co118 N159 2.151 . S
Co118 N167 2.214 . S
Co119 O120 2.160 . S
Co119 O125 2.058 . S
Co119 O135 2.057 . S
Co119 O150 2.037 . S
Co119 N154 2.145 . S
Co119 N175 2.257 . S
O120 Co118 2.143 . S
O120 Co119 2.160 . S
C121 O122 1.278 . S
C121 O129 1.224 . S
O122 C121 1.278 . S
C123 O124 1.245 . S
C123 O135 1.232 . S
O124 C123 1.245 . S
O125 Co119 2.058 . S
O125 C151 1.269 . S
O126 Co118 2.074 . S
O126 C151 1.257 . S
H127 C152 0.930 . S
H128 C158 0.930 . S
O129 Co118 2.093 . S
O129 C121 1.224 . S
H130 C162 0.929 . S
H131 C164 0.930 . S
H132 C165 0.930 . S
H133 C163 0.929 . S
H134 C166 0.928 . S
O135 Co119 2.057 . S
O135 C123 1.232 . S
H136 C155 0.929 . S
H137 C156 0.929 . S
H138 C168 0.931 . S
H139 C160 0.929 . S
H140 C169 0.930 . S
H141 C161 0.931 . S
O142 Co118 2.097 . S
O142 C170 1.214 . S
H143 C171 0.929 . S
H144 C172 0.929 . S
H145 C173 0.930 . S
H146 C174 0.929 . S
H147 C176 0.930 . S
H148 C153 0.930 . S
H149 C157 0.930 . S
O150 Co119 2.037 . S
O150 C170 1.234 . S
C151 O125 1.269 . S
C151 O126 1.257 . S
C152 H127 0.930 . S
C152 C155 1.388 . S
C152 C157 1.418 . S
C153 H148 0.930 . S
C153 C156 1.404 . S
C153 C157 1.353 . S
N154 Co119 2.145 . S
N154 C155 1.397 . S
N154 C156 1.334 . S
C155 H136 0.929 . S
C155 C152 1.388 . S
C155 N154 1.397 . S
C156 H137 0.929 . S
C156 C153 1.404 . S
C156 N154 1.334 . S
C157 H149 0.930 . S
C157 C152 1.418 . S
C157 C153 1.353 . S
C158 H128 0.930 . S
C158 N159 1.330 . S
C158 C160 1.446 . S
N159 Co118 2.151 . S
N159 C158 1.330 . S
N159 C163 1.418 . S
C160 H139 0.929 . S
C160 C158 1.446 . S
C160 C161 1.332 . S
C161 H141 0.931 . S
C161 C160 1.332 . S
C161 C162 1.267 . S
C162 H130 0.929 . S
C162 C161 1.267 . S
C162 C163 1.251 . S
C163 H133 0.929 . S
C163 N159 1.418 . S
C163 C162 1.251 . S
C164 H131 0.930 . S
C164 C166 1.406 . S
C164 C169 1.261 . S
C165 H132 0.930 . S
C165 N167 1.325 . S
C165 C168 1.357 . S
C166 H134 0.928 . S
C166 C164 1.406 . S
C166 N167 1.261 . S
N167 Co118 2.214 . S
N167 C165 1.325 . S
N167 C166 1.261 . S
C168 H138 0.931 . S
C168 C165 1.357 . S
C168 C169 1.312 . S
C169 H140 0.930 . S
C169 C164 1.261 . S
C169 C168 1.312 . S
C170 O142 1.214 . S
C170 O150 1.234 . S
C171 H143 0.929 . S
C171 C174 1.391 . S
C171 C176 1.391 . S
C172 H144 0.929 . S
C172 C173 1.390 . S
C172 N175 1.391 . S
C173 H145 0.930 . S
C173 C172 1.390 . S
C173 C174 1.392 . S
C174 H146 0.929 . S
C174 C171 1.391 . S
C174 C173 1.392 . S
N175 Co119 2.257 . S
N175 C172 1.391 . S
N175 C176 1.388 . S
C176 H147 0.930 . S
C176 C171 1.391 . S
C176 N175 1.388 . S
Co177 O179 2.143 . S
Co177 O185 2.074 . S
Co177 O188 2.093 . S
Co177 O201 2.097 . S
Co177 N218 2.151 . S
Co177 N226 2.214 . S
Co178 O179 2.160 . S
Co178 O184 2.058 . S
Co178 O194 2.057 . S
Co178 O209 2.037 . S
Co178 N213 2.145 . S
Co178 N234 2.257 . S
O179 Co177 2.143 . S
O179 Co178 2.160 . S
C180 O181 1.278 . S
C180 O188 1.224 . S
O181 C180 1.278 . S
C182 O183 1.245 . S
C182 O194 1.232 . S
O183 C182 1.245 . S
O184 Co178 2.058 . S
O184 C210 1.269 . S
O185 Co177 2.074 . S
O185 C210 1.257 . S
H186 C211 0.930 . S
H187 C217 0.930 . S
O188 Co177 2.093 . S
O188 C180 1.224 . S
H189 C221 0.929 . S
H190 C223 0.930 . S
H191 C224 0.930 . S
H192 C222 0.929 . S
H193 C225 0.928 . S
O194 Co178 2.057 . S
O194 C182 1.232 . S
H195 C214 0.929 . S
H196 C215 0.929 . S
H197 C227 0.931 . S
H198 C219 0.929 . S
H199 C228 0.930 . S
H200 C220 0.931 . S
O201 Co177 2.097 . S
O201 C229 1.214 . S
H202 C230 0.929 . S
H203 C231 0.929 . S
H204 C232 0.930 . S
H205 C233 0.929 . S
H206 C235 0.930 . S
H207 C212 0.930 . S
H208 C216 0.930 . S
O209 Co178 2.037 . S
O209 C229 1.234 . S
C210 O184 1.269 . S
C210 O185 1.257 . S
C211 H186 0.930 . S
C211 C214 1.388 . S
C211 C216 1.418 . S
C212 H207 0.930 . S
C212 C215 1.404 . S
C212 C216 1.353 . S
N213 Co178 2.145 . S
N213 C214 1.397 . S
N213 C215 1.334 . S
C214 H195 0.929 . S
C214 C211 1.388 . S
C214 N213 1.397 . S
C215 H196 0.929 . S
C215 C212 1.404 . S
C215 N213 1.334 . S
C216 H208 0.930 . S
C216 C211 1.418 . S
C216 C212 1.353 . S
C217 H187 0.930 . S
C217 N218 1.330 . S
C217 C219 1.446 . S
N218 Co177 2.151 . S
N218 C217 1.330 . S
N218 C222 1.418 . S
C219 H198 0.929 . S
C219 C217 1.446 . S
C219 C220 1.332 . S
C220 H200 0.931 . S
C220 C219 1.332 . S
C220 C221 1.267 . S
C221 H189 0.929 . S
C221 C220 1.267 . S
C221 C222 1.251 . S
C222 H192 0.929 . S
C222 N218 1.418 . S
C222 C221 1.251 . S
C223 H190 0.930 . S
C223 C225 1.406 . S
C223 C228 1.261 . S
C224 H191 0.930 . S
C224 N226 1.325 . S
C224 C227 1.357 . S
C225 H193 0.928 . S
C225 C223 1.406 . S
C225 N226 1.261 . S
N226 Co177 2.214 . S
N226 C224 1.325 . S
N226 C225 1.261 . S
C227 H197 0.931 . S
C227 C224 1.357 . S
C227 C228 1.312 . S
C228 H199 0.930 . S
C228 C223 1.261 . S
C228 C227 1.312 . S
C229 O201 1.214 . S
C229 O209 1.234 . S
C230 H202 0.929 . S
C230 C233 1.391 . S
C230 C235 1.391 . S
C231 H203 0.929 . S
C231 C232 1.390 . S
C231 N234 1.391 . S
C232 H204 0.930 . S
C232 C231 1.390 . S
C232 C233 1.392 . S
C233 H205 0.929 . S
C233 C230 1.391 . S
C233 C232 1.392 . S
N234 Co178 2.257 . S
N234 C231 1.391 . S
N234 C235 1.388 . S
C235 H206 0.930 . S
C235 C230 1.391 . S
C235 N234 1.388 . S
Co236 O238 2.143 . S
Co236 O244 2.074 . S
Co236 O247 2.093 . S
Co236 O260 2.097 . S
Co236 N277 2.151 . S
Co236 N285 2.214 . S
Co237 O238 2.160 . S
Co237 O243 2.058 . S
Co237 O253 2.057 . S
Co237 O268 2.037 . S
Co237 N272 2.145 . S
Co237 N293 2.257 . S
O238 Co236 2.143 . S
O238 Co237 2.160 . S
C239 O240 1.278 . S
C239 O247 1.224 . S
O240 C239 1.278 . S
C241 O242 1.245 . S
C241 O253 1.232 . S
O242 C241 1.245 . S
O243 Co237 2.058 . S
O243 C269 1.269 . S
O244 Co236 2.074 . S
O244 C269 1.257 . S
H245 C270 0.930 . S
H246 C276 0.930 . S
O247 Co236 2.093 . S
O247 C239 1.224 . S
H248 C280 0.929 . S
H249 C282 0.930 . S
H250 C283 0.930 . S
H251 C281 0.929 . S
H252 C284 0.928 . S
O253 Co237 2.057 . S
O253 C241 1.232 . S
H254 C273 0.929 . S
H255 C274 0.929 . S
H256 C286 0.931 . S
H257 C278 0.929 . S
H258 C287 0.930 . S
H259 C279 0.931 . S
O260 Co236 2.097 . S
O260 C288 1.214 . S
H261 C289 0.929 . S
H262 C290 0.929 . S
H263 C291 0.930 . S
H264 C292 0.929 . S
H265 C294 0.930 . S
H266 C271 0.930 . S
H267 C275 0.930 . S
O268 Co237 2.037 . S
O268 C288 1.234 . S
C269 O243 1.269 . S
C269 O244 1.257 . S
C270 H245 0.930 . S
C270 C273 1.388 . S
C270 C275 1.418 . S
C271 H266 0.930 . S
C271 C274 1.404 . S
C271 C275 1.353 . S
N272 Co237 2.145 . S
N272 C273 1.397 . S
N272 C274 1.334 . S
C273 H254 0.929 . S
C273 C270 1.388 . S
C273 N272 1.397 . S
C274 H255 0.929 . S
C274 C271 1.404 . S
C274 N272 1.334 . S
C275 H267 0.930 . S
C275 C270 1.418 . S
C275 C271 1.353 . S
C276 H246 0.930 . S
C276 N277 1.330 . S
C276 C278 1.446 . S
N277 Co236 2.151 . S
N277 C276 1.330 . S
N277 C281 1.418 . S
C278 H257 0.929 . S
C278 C276 1.446 . S
C278 C279 1.332 . S
C279 H259 0.931 . S
C279 C278 1.332 . S
C279 C280 1.267 . S
C280 H248 0.929 . S
C280 C279 1.267 . S
C280 C281 1.251 . S
C281 H251 0.929 . S
C281 N277 1.418 . S
C281 C280 1.251 . S
C282 H249 0.930 . S
C282 C284 1.406 . S
C282 C287 1.261 . S
C283 H250 0.930 . S
C283 N285 1.325 . S
C283 C286 1.357 . S
C284 H252 0.928 . S
C284 C282 1.406 . S
C284 N285 1.261 . S
N285 Co236 2.214 . S
N285 C283 1.325 . S
N285 C284 1.261 . S
C286 H256 0.931 . S
C286 C283 1.357 . S
C286 C287 1.312 . S
C287 H258 0.930 . S
C287 C282 1.261 . S
C287 C286 1.312 . S
C288 O260 1.214 . S
C288 O268 1.234 . S
C289 H261 0.929 . S
C289 C292 1.391 . S
C289 C294 1.391 . S
C290 H262 0.929 . S
C290 C291 1.390 . S
C290 N293 1.391 . S
C291 H263 0.930 . S
C291 C290 1.390 . S
C291 C292 1.392 . S
C292 H264 0.929 . S
C292 C289 1.391 . S
C292 C291 1.392 . S
N293 Co237 2.257 . S
N293 C290 1.391 . S
N293 C294 1.388 . S
C294 H265 0.930 . S
C294 C289 1.391 . S
C294 N293 1.388 . S
Co295 O297 2.143 . S
Co295 O303 2.074 . S
Co295 O306 2.093 . S
Co295 O319 2.097 . S
Co295 N336 2.151 . S
Co295 N344 2.214 . S
Co296 O297 2.160 . S
Co296 O302 2.058 . S
Co296 O312 2.057 . S
Co296 O327 2.037 . S
Co296 N331 2.145 . S
Co296 N352 2.257 . S
O297 Co295 2.143 . S
O297 Co296 2.160 . S
C298 O299 1.278 . S
C298 O306 1.224 . S
O299 C298 1.278 . S
C300 O301 1.245 . S
C300 O312 1.232 . S
O301 C300 1.245 . S
O302 Co296 2.058 . S
O302 C328 1.269 . S
O303 Co295 2.074 . S
O303 C328 1.257 . S
H304 C329 0.930 . S
H305 C335 0.930 . S
O306 Co295 2.093 . S
O306 C298 1.224 . S
H307 C339 0.929 . S
H308 C341 0.930 . S
H309 C342 0.930 . S
H310 C340 0.929 . S
H311 C343 0.928 . S
O312 Co296 2.057 . S
O312 C300 1.232 . S
H313 C332 0.929 . S
H314 C333 0.929 . S
H315 C345 0.931 . S
H316 C337 0.929 . S
H317 C346 0.930 . S
H318 C338 0.931 . S
O319 Co295 2.097 . S
O319 C347 1.214 . S
H320 C348 0.929 . S
H321 C349 0.929 . S
H322 C350 0.930 . S
H323 C351 0.929 . S
H324 C353 0.930 . S
H325 C330 0.930 . S
H326 C334 0.930 . S
O327 Co296 2.037 . S
O327 C347 1.234 . S
C328 O302 1.269 . S
C328 O303 1.257 . S
C329 H304 0.930 . S
C329 C332 1.388 . S
C329 C334 1.418 . S
C330 H325 0.930 . S
C330 C333 1.404 . S
C330 C334 1.353 . S
N331 Co296 2.145 . S
N331 C332 1.397 . S
N331 C333 1.334 . S
C332 H313 0.929 . S
C332 C329 1.388 . S
C332 N331 1.397 . S
C333 H314 0.929 . S
C333 C330 1.404 . S
C333 N331 1.334 . S
C334 H326 0.930 . S
C334 C329 1.418 . S
C334 C330 1.353 . S
C335 H305 0.930 . S
C335 N336 1.330 . S
C335 C337 1.446 . S
N336 Co295 2.151 . S
N336 C335 1.330 . S
N336 C340 1.418 . S
C337 H316 0.929 . S
C337 C335 1.446 . S
C337 C338 1.332 . S
C338 H318 0.931 . S
C338 C337 1.332 . S
C338 C339 1.267 . S
C339 H307 0.929 . S
C339 C338 1.267 . S
C339 C340 1.251 . S
C340 H310 0.929 . S
C340 N336 1.418 . S
C340 C339 1.251 . S
C341 H308 0.930 . S
C341 C343 1.406 . S
C341 C346 1.261 . S
C342 H309 0.930 . S
C342 N344 1.325 . S
C342 C345 1.357 . S
C343 H311 0.928 . S
C343 C341 1.406 . S
C343 N344 1.261 . S
N344 Co295 2.214 . S
N344 C342 1.325 . S
N344 C343 1.261 . S
C345 H315 0.931 . S
C345 C342 1.357 . S
C345 C346 1.312 . S
C346 H317 0.930 . S
C346 C341 1.261 . S
C346 C345 1.312 . S
C347 O319 1.214 . S
C347 O327 1.234 . S
C348 H320 0.929 . S
C348 C351 1.391 . S
C348 C353 1.391 . S
C349 H321 0.929 . S
C349 C350 1.390 . S
C349 N352 1.391 . S
C350 H322 0.930 . S
C350 C349 1.390 . S
C350 C351 1.392 . S
C351 H323 0.929 . S
C351 C348 1.391 . S
C351 C350 1.392 . S
N352 Co296 2.257 . S
N352 C349 1.391 . S
N352 C353 1.388 . S
C353 H324 0.930 . S
C353 C348 1.391 . S
C353 N352 1.388 . S
Co354 O356 2.143 . S
Co354 O362 2.074 . S
Co354 O365 2.093 . S
Co354 O378 2.097 . S
Co354 N395 2.151 . S
Co354 N403 2.214 . S
Co355 O356 2.160 . S
Co355 O361 2.058 . S
Co355 O371 2.057 . S
Co355 O386 2.037 . S
Co355 N390 2.145 . S
Co355 N411 2.257 . S
O356 Co354 2.143 . S
O356 Co355 2.160 . S
C357 O358 1.278 . S
C357 O365 1.224 . S
O358 C357 1.278 . S
C359 O360 1.245 . S
C359 O371 1.232 . S
O360 C359 1.245 . S
O361 Co355 2.058 . S
O361 C387 1.269 . S
O362 Co354 2.074 . S
O362 C387 1.257 . S
H363 C388 0.930 . S
H364 C394 0.930 . S
O365 Co354 2.093 . S
O365 C357 1.224 . S
H366 C398 0.929 . S
H367 C400 0.930 . S
H368 C401 0.930 . S
H369 C399 0.929 . S
H370 C402 0.928 . S
O371 Co355 2.057 . S
O371 C359 1.232 . S
H372 C391 0.929 . S
H373 C392 0.929 . S
H374 C404 0.931 . S
H375 C396 0.929 . S
H376 C405 0.930 . S
H377 C397 0.931 . S
O378 Co354 2.097 . S
O378 C406 1.214 . S
H379 C407 0.929 . S
H380 C408 0.929 . S
H381 C409 0.930 . S
H382 C410 0.929 . S
H383 C412 0.930 . S
H384 C389 0.930 . S
H385 C393 0.930 . S
O386 Co355 2.037 . S
O386 C406 1.234 . S
C387 O361 1.269 . S
C387 O362 1.257 . S
C388 H363 0.930 . S
C388 C391 1.388 . S
C388 C393 1.418 . S
C389 H384 0.930 . S
C389 C392 1.404 . S
C389 C393 1.353 . S
N390 Co355 2.145 . S
N390 C391 1.397 . S
N390 C392 1.334 . S
C391 H372 0.929 . S
C391 C388 1.388 . S
C391 N390 1.397 . S
C392 H373 0.929 . S
C392 C389 1.404 . S
C392 N390 1.334 . S
C393 H385 0.930 . S
C393 C388 1.418 . S
C393 C389 1.353 . S
C394 H364 0.930 . S
C394 N395 1.330 . S
C394 C396 1.446 . S
N395 Co354 2.151 . S
N395 C394 1.330 . S
N395 C399 1.418 . S
C396 H375 0.929 . S
C396 C394 1.446 . S
C396 C397 1.332 . S
C397 H377 0.931 . S
C397 C396 1.332 . S
C397 C398 1.267 . S
C398 H366 0.929 . S
C398 C397 1.267 . S
C398 C399 1.251 . S
C399 H369 0.929 . S
C399 N395 1.418 . S
C399 C398 1.251 . S
C400 H367 0.930 . S
C400 C402 1.406 . S
C400 C405 1.261 . S
C401 H368 0.930 . S
C401 N403 1.325 . S
C401 C404 1.357 . S
C402 H370 0.928 . S
C402 C400 1.406 . S
C402 N403 1.261 . S
N403 Co354 2.214 . S
N403 C401 1.325 . S
N403 C402 1.261 . S
C404 H374 0.931 . S
C404 C401 1.357 . S
C404 C405 1.312 . S
C405 H376 0.930 . S
C405 C400 1.261 . S
C405 C404 1.312 . S
C406 O378 1.214 . S
C406 O386 1.234 . S
C407 H379 0.929 . S
C407 C410 1.391 . S
C407 C412 1.391 . S
C408 H380 0.929 . S
C408 C409 1.390 . S
C408 N411 1.391 . S
C409 H381 0.930 . S
C409 C408 1.390 . S
C409 C410 1.392 . S
C410 H382 0.929 . S
C410 C407 1.391 . S
C410 C409 1.392 . S
N411 Co355 2.257 . S
N411 C408 1.391 . S
N411 C412 1.388 . S
C412 H383 0.930 . S
C412 C407 1.391 . S
C412 N411 1.388 . S
Co413 O415 2.143 . S
Co413 O421 2.074 . S
Co413 O424 2.093 . S
Co413 O437 2.097 . S
Co413 N454 2.151 . S
Co413 N462 2.214 . S
Co414 O415 2.160 . S
Co414 O420 2.058 . S
Co414 O430 2.057 . S
Co414 O445 2.037 . S
Co414 N449 2.145 . S
Co414 N470 2.257 . S
O415 Co413 2.143 . S
O415 Co414 2.160 . S
C416 O417 1.278 . S
C416 O424 1.224 . S
O417 C416 1.278 . S
C418 O419 1.245 . S
C418 O430 1.232 . S
O419 C418 1.245 . S
O420 Co414 2.058 . S
O420 C446 1.269 . S
O421 Co413 2.074 . S
O421 C446 1.257 . S
H422 C447 0.930 . S
H423 C453 0.930 . S
O424 Co413 2.093 . S
O424 C416 1.224 . S
H425 C457 0.929 . S
H426 C459 0.930 . S
H427 C460 0.930 . S
H428 C458 0.929 . S
H429 C461 0.928 . S
O430 Co414 2.057 . S
O430 C418 1.232 . S
H431 C450 0.929 . S
H432 C451 0.929 . S
H433 C463 0.931 . S
H434 C455 0.929 . S
H435 C464 0.930 . S
H436 C456 0.931 . S
O437 Co413 2.097 . S
O437 C465 1.214 . S
H438 C466 0.929 . S
H439 C467 0.929 . S
H440 C468 0.930 . S
H441 C469 0.929 . S
H442 C471 0.930 . S
H443 C448 0.930 . S
H444 C452 0.930 . S
O445 Co414 2.037 . S
O445 C465 1.234 . S
C446 O420 1.269 . S
C446 O421 1.257 . S
C447 H422 0.930 . S
C447 C450 1.388 . S
C447 C452 1.418 . S
C448 H443 0.930 . S
C448 C451 1.404 . S
C448 C452 1.353 . S
N449 Co414 2.145 . S
N449 C450 1.397 . S
N449 C451 1.334 . S
C450 H431 0.929 . S
C450 C447 1.388 . S
C450 N449 1.397 . S
C451 H432 0.929 . S
C451 C448 1.404 . S
C451 N449 1.334 . S
C452 H444 0.930 . S
C452 C447 1.418 . S
C452 C448 1.353 . S
C453 H423 0.930 . S
C453 N454 1.330 . S
C453 C455 1.446 . S
N454 Co413 2.151 . S
N454 C453 1.330 . S
N454 C458 1.418 . S
C455 H434 0.929 . S
C455 C453 1.446 . S
C455 C456 1.332 . S
C456 H436 0.931 . S
C456 C455 1.332 . S
C456 C457 1.267 . S
C457 H425 0.929 . S
C457 C456 1.267 . S
C457 C458 1.251 . S
C458 H428 0.929 . S
C458 N454 1.418 . S
C458 C457 1.251 . S
C459 H426 0.930 . S
C459 C461 1.406 . S
C459 C464 1.261 . S
C460 H427 0.930 . S
C460 N462 1.325 . S
C460 C463 1.357 . S
C461 H429 0.928 . S
C461 C459 1.406 . S
C461 N462 1.261 . S
N462 Co413 2.214 . S
N462 C460 1.325 . S
N462 C461 1.261 . S
C463 H433 0.931 . S
C463 C460 1.357 . S
C463 C464 1.312 . S
C464 H435 0.930 . S
C464 C459 1.261 . S
C464 C463 1.312 . S
C465 O437 1.214 . S
C465 O445 1.234 . S
C466 H438 0.929 . S
C466 C469 1.391 . S
C466 C471 1.391 . S
C467 H439 0.929 . S
C467 C468 1.390 . S
C467 N470 1.391 . S
C468 H440 0.930 . S
C468 C467 1.390 . S
C468 C469 1.392 . S
C469 H441 0.929 . S
C469 C466 1.391 . S
C469 C468 1.392 . S
N470 Co414 2.257 . S
N470 C467 1.391 . S
N470 C471 1.388 . S
C471 H442 0.930 . S
C471 C466 1.391 . S
C471 N470 1.388 . S
Co472 O474 2.143 . S
Co472 O480 2.074 . S
Co472 O483 2.093 . S
Co472 O496 2.097 . S
Co472 N513 2.151 . S
Co472 N521 2.214 . S
Co473 O474 2.160 . S
Co473 O479 2.058 . S
Co473 O489 2.057 . S
Co473 O504 2.037 . S
Co473 N508 2.145 . S
Co473 N529 2.257 . S
O474 Co472 2.143 . S
O474 Co473 2.160 . S
C475 O476 1.278 . S
C475 O483 1.224 . S
O476 C475 1.278 . S
C477 O478 1.245 . S
C477 O489 1.232 . S
O478 C477 1.245 . S
O479 Co473 2.058 . S
O479 C505 1.269 . S
O480 Co472 2.074 . S
O480 C505 1.257 . S
H481 C506 0.930 . S
H482 C512 0.930 . S
O483 Co472 2.093 . S
O483 C475 1.224 . S
H484 C516 0.929 . S
H485 C518 0.930 . S
H486 C519 0.930 . S
H487 C517 0.929 . S
H488 C520 0.928 . S
O489 Co473 2.057 . S
O489 C477 1.232 . S
H490 C509 0.929 . S
H491 C510 0.929 . S
H492 C522 0.931 . S
H493 C514 0.929 . S
H494 C523 0.930 . S
H495 C515 0.931 . S
O496 Co472 2.097 . S
O496 C524 1.214 . S
H497 C525 0.929 . S
H498 C526 0.929 . S
H499 C527 0.930 . S
H500 C528 0.929 . S
H501 C530 0.930 . S
H502 C507 0.930 . S
H503 C511 0.930 . S
O504 Co473 2.037 . S
O504 C524 1.234 . S
C505 O479 1.269 . S
C505 O480 1.257 . S
C506 H481 0.930 . S
C506 C509 1.388 . S
C506 C511 1.418 . S
C507 H502 0.930 . S
C507 C510 1.404 . S
C507 C511 1.353 . S
N508 Co473 2.145 . S
N508 C509 1.397 . S
N508 C510 1.334 . S
C509 H490 0.929 . S
C509 C506 1.388 . S
C509 N508 1.397 . S
C510 H491 0.929 . S
C510 C507 1.404 . S
C510 N508 1.334 . S
C511 H503 0.930 . S
C511 C506 1.418 . S
C511 C507 1.353 . S
C512 H482 0.930 . S
C512 N513 1.330 . S
C512 C514 1.446 . S
N513 Co472 2.151 . S
N513 C512 1.330 . S
N513 C517 1.418 . S
C514 H493 0.929 . S
C514 C512 1.446 . S
C514 C515 1.332 . S
C515 H495 0.931 . S
C515 C514 1.332 . S
C515 C516 1.267 . S
C516 H484 0.929 . S
C516 C515 1.267 . S
C516 C517 1.251 . S
C517 H487 0.929 . S
C517 N513 1.418 . S
C517 C516 1.251 . S
C518 H485 0.930 . S
C518 C520 1.406 . S
C518 C523 1.261 . S
C519 H486 0.930 . S
C519 N521 1.325 . S
C519 C522 1.357 . S
C520 H488 0.928 . S
C520 C518 1.406 . S
C520 N521 1.261 . S
N521 Co472 2.214 . S
N521 C519 1.325 . S
N521 C520 1.261 . S
C522 H492 0.931 . S
C522 C519 1.357 . S
C522 C523 1.312 . S
C523 H494 0.930 . S
C523 C518 1.261 . S
C523 C522 1.312 . S
C524 O496 1.214 . S
C524 O504 1.234 . S
C525 H497 0.929 . S
C525 C528 1.391 . S
C525 C530 1.391 . S
C526 H498 0.929 . S
C526 C527 1.390 . S
C526 N529 1.391 . S
C527 H499 0.930 . S
C527 C526 1.390 . S
C527 C528 1.392 . S
C528 H500 0.929 . S
C528 C525 1.391 . S
C528 C527 1.392 . S
N529 Co473 2.257 . S
N529 C526 1.391 . S
N529 C530 1.388 . S
C530 H501 0.930 . S
C530 C525 1.391 . S
C530 N529 1.388 . S
Co531 O533 2.143 . S
Co531 O539 2.074 . S
Co531 O542 2.093 . S
Co531 O555 2.097 . S
Co531 N572 2.151 . S
Co531 N580 2.214 . S
Co532 O533 2.160 . S
Co532 O538 2.058 . S
Co532 O548 2.057 . S
Co532 O563 2.037 . S
Co532 N567 2.145 . S
Co532 N588 2.257 . S
O533 Co531 2.143 . S
O533 Co532 2.160 . S
C534 O535 1.278 . S
C534 O542 1.224 . S
O535 C534 1.278 . S
C536 O537 1.245 . S
C536 O548 1.232 . S
O537 C536 1.245 . S
O538 Co532 2.058 . S
O538 C564 1.269 . S
O539 Co531 2.074 . S
O539 C564 1.257 . S
H540 C565 0.930 . S
H541 C571 0.930 . S
O542 Co531 2.093 . S
O542 C534 1.224 . S
H543 C575 0.929 . S
H544 C577 0.930 . S
H545 C578 0.930 . S
H546 C576 0.929 . S
H547 C579 0.928 . S
O548 Co532 2.057 . S
O548 C536 1.232 . S
H549 C568 0.929 . S
H550 C569 0.929 . S
H551 C581 0.931 . S
H552 C573 0.929 . S
H553 C582 0.930 . S
H554 C574 0.931 . S
O555 Co531 2.097 . S
O555 C583 1.214 . S
H556 C584 0.929 . S
H557 C585 0.929 . S
H558 C586 0.930 . S
H559 C587 0.929 . S
H560 C589 0.930 . S
H561 C566 0.930 . S
H562 C570 0.930 . S
O563 Co532 2.037 . S
O563 C583 1.234 . S
C564 O538 1.269 . S
C564 O539 1.257 . S
C565 H540 0.930 . S
C565 C568 1.388 . S
C565 C570 1.418 . S
C566 H561 0.930 . S
C566 C569 1.404 . S
C566 C570 1.353 . S
N567 Co532 2.145 . S
N567 C568 1.397 . S
N567 C569 1.334 . S
C568 H549 0.929 . S
C568 C565 1.388 . S
C568 N567 1.397 . S
C569 H550 0.929 . S
C569 C566 1.404 . S
C569 N567 1.334 . S
C570 H562 0.930 . S
C570 C565 1.418 . S
C570 C566 1.353 . S
C571 H541 0.930 . S
C571 N572 1.330 . S
C571 C573 1.446 . S
N572 Co531 2.151 . S
N572 C571 1.330 . S
N572 C576 1.418 . S
C573 H552 0.929 . S
C573 C571 1.446 . S
C573 C574 1.332 . S
C574 H554 0.931 . S
C574 C573 1.332 . S
C574 C575 1.267 . S
C575 H543 0.929 . S
C575 C574 1.267 . S
C575 C576 1.251 . S
C576 H546 0.929 . S
C576 N572 1.418 . S
C576 C575 1.251 . S
C577 H544 0.930 . S
C577 C579 1.406 . S
C577 C582 1.261 . S
C578 H545 0.930 . S
C578 N580 1.325 . S
C578 C581 1.357 . S
C579 H547 0.928 . S
C579 C577 1.406 . S
C579 N580 1.261 . S
N580 Co531 2.214 . S
N580 C578 1.325 . S
N580 C579 1.261 . S
C581 H551 0.931 . S
C581 C578 1.357 . S
C581 C582 1.312 . S
C582 H553 0.930 . S
C582 C577 1.261 . S
C582 C581 1.312 . S
C583 O555 1.214 . S
C583 O563 1.234 . S
C584 H556 0.929 . S
C584 C587 1.391 . S
C584 C589 1.391 . S
C585 H557 0.929 . S
C585 C586 1.390 . S
C585 N588 1.391 . S
C586 H558 0.930 . S
C586 C585 1.390 . S
C586 C587 1.392 . S
C587 H559 0.929 . S
C587 C584 1.391 . S
C587 C586 1.392 . S
N588 Co532 2.257 . S
N588 C585 1.391 . S
N588 C589 1.388 . S
C589 H560 0.930 . S
C589 C584 1.391 . S
C589 N588 1.388 . S
Co590 O592 2.143 . S
Co590 O598 2.074 . S
Co590 O601 2.093 . S
Co590 O614 2.097 . S
Co590 N631 2.151 . S
Co590 N639 2.214 . S
Co591 O592 2.160 . S
Co591 O597 2.058 . S
Co591 O607 2.057 . S
Co591 O622 2.037 . S
Co591 N626 2.145 . S
Co591 N647 2.257 . S
O592 Co590 2.143 . S
O592 Co591 2.160 . S
C593 O594 1.278 . S
C593 O601 1.224 . S
O594 C593 1.278 . S
C595 O596 1.245 . S
C595 O607 1.232 . S
O596 C595 1.245 . S
O597 Co591 2.058 . S
O597 C623 1.269 . S
O598 Co590 2.074 . S
O598 C623 1.257 . S
H599 C624 0.930 . S
H600 C630 0.930 . S
O601 Co590 2.093 . S
O601 C593 1.224 . S
H602 C634 0.929 . S
H603 C636 0.930 . S
H604 C637 0.930 . S
H605 C635 0.929 . S
H606 C638 0.928 . S
O607 Co591 2.057 . S
O607 C595 1.232 . S
H608 C627 0.929 . S
H609 C628 0.929 . S
H610 C640 0.931 . S
H611 C632 0.929 . S
H612 C641 0.930 . S
H613 C633 0.931 . S
O614 Co590 2.097 . S
O614 C642 1.214 . S
H615 C643 0.929 . S
H616 C644 0.929 . S
H617 C645 0.930 . S
H618 C646 0.929 . S
H619 C648 0.930 . S
H620 C625 0.930 . S
H621 C629 0.930 . S
O622 Co591 2.037 . S
O622 C642 1.234 . S
C623 O597 1.269 . S
C623 O598 1.257 . S
C624 H599 0.930 . S
C624 C627 1.388 . S
C624 C629 1.418 . S
C625 H620 0.930 . S
C625 C628 1.404 . S
C625 C629 1.353 . S
N626 Co591 2.145 . S
N626 C627 1.397 . S
N626 C628 1.334 . S
C627 H608 0.929 . S
C627 C624 1.388 . S
C627 N626 1.397 . S
C628 H609 0.929 . S
C628 C625 1.404 . S
C628 N626 1.334 . S
C629 H621 0.930 . S
C629 C624 1.418 . S
C629 C625 1.353 . S
C630 H600 0.930 . S
C630 N631 1.330 . S
C630 C632 1.446 . S
N631 Co590 2.151 . S
N631 C630 1.330 . S
N631 C635 1.418 . S
C632 H611 0.929 . S
C632 C630 1.446 . S
C632 C633 1.332 . S
C633 H613 0.931 . S
C633 C632 1.332 . S
C633 C634 1.267 . S
C634 H602 0.929 . S
C634 C633 1.267 . S
C634 C635 1.251 . S
C635 H605 0.929 . S
C635 N631 1.418 . S
C635 C634 1.251 . S
C636 H603 0.930 . S
C636 C638 1.406 . S
C636 C641 1.261 . S
C637 H604 0.930 . S
C637 N639 1.325 . S
C637 C640 1.357 . S
C638 H606 0.928 . S
C638 C636 1.406 . S
C638 N639 1.261 . S
N639 Co590 2.214 . S
N639 C637 1.325 . S
N639 C638 1.261 . S
C640 H610 0.931 . S
C640 C637 1.357 . S
C640 C641 1.312 . S
C641 H612 0.930 . S
C641 C636 1.261 . S
C641 C640 1.312 . S
C642 O614 1.214 . S
C642 O622 1.234 . S
C643 H615 0.929 . S
C643 C646 1.391 . S
C643 C648 1.391 . S
C644 H616 0.929 . S
C644 C645 1.390 . S
C644 N647 1.391 . S
C645 H617 0.930 . S
C645 C644 1.390 . S
C645 C646 1.392 . S
C646 H618 0.929 . S
C646 C643 1.391 . S
C646 C645 1.392 . S
N647 Co591 2.257 . S
N647 C644 1.391 . S
N647 C648 1.388 . S
C648 H619 0.930 . S
C648 C643 1.391 . S
C648 N647 1.388 . S
Co649 O651 2.143 . S
Co649 O657 2.074 . S
Co649 O660 2.093 . S
Co649 O673 2.097 . S
Co649 N690 2.151 . S
Co649 N698 2.214 . S
Co650 O651 2.160 . S
Co650 O656 2.058 . S
Co650 O666 2.057 . S
Co650 O681 2.037 . S
Co650 N685 2.145 . S
Co650 N706 2.257 . S
O651 Co649 2.143 . S
O651 Co650 2.160 . S
C652 O653 1.278 . S
C652 O660 1.224 . S
O653 C652 1.278 . S
C654 O655 1.245 . S
C654 O666 1.232 . S
O655 C654 1.245 . S
O656 Co650 2.058 . S
O656 C682 1.269 . S
O657 Co649 2.074 . S
O657 C682 1.257 . S
H658 C683 0.930 . S
H659 C689 0.930 . S
O660 Co649 2.093 . S
O660 C652 1.224 . S
H661 C693 0.929 . S
H662 C695 0.930 . S
H663 C696 0.930 . S
H664 C694 0.929 . S
H665 C697 0.928 . S
O666 Co650 2.057 . S
O666 C654 1.232 . S
H667 C686 0.929 . S
H668 C687 0.929 . S
H669 C699 0.931 . S
H670 C691 0.929 . S
H671 C700 0.930 . S
H672 C692 0.931 . S
O673 Co649 2.097 . S
O673 C701 1.214 . S
H674 C702 0.929 . S
H675 C703 0.929 . S
H676 C704 0.930 . S
H677 C705 0.929 . S
H678 C707 0.930 . S
H679 C684 0.930 . S
H680 C688 0.930 . S
O681 Co650 2.037 . S
O681 C701 1.234 . S
C682 O656 1.269 . S
C682 O657 1.257 . S
C683 H658 0.930 . S
C683 C686 1.388 . S
C683 C688 1.418 . S
C684 H679 0.930 . S
C684 C687 1.404 . S
C684 C688 1.353 . S
N685 Co650 2.145 . S
N685 C686 1.397 . S
N685 C687 1.334 . S
C686 H667 0.929 . S
C686 C683 1.388 . S
C686 N685 1.397 . S
C687 H668 0.929 . S
C687 C684 1.404 . S
C687 N685 1.334 . S
C688 H680 0.930 . S
C688 C683 1.418 . S
C688 C684 1.353 . S
C689 H659 0.930 . S
C689 N690 1.330 . S
C689 C691 1.446 . S
N690 Co649 2.151 . S
N690 C689 1.330 . S
N690 C694 1.418 . S
C691 H670 0.929 . S
C691 C689 1.446 . S
C691 C692 1.332 . S
C692 H672 0.931 . S
C692 C691 1.332 . S
C692 C693 1.267 . S
C693 H661 0.929 . S
C693 C692 1.267 . S
C693 C694 1.251 . S
C694 H664 0.929 . S
C694 N690 1.418 . S
C694 C693 1.251 . S
C695 H662 0.930 . S
C695 C697 1.406 . S
C695 C700 1.261 . S
C696 H663 0.930 . S
C696 N698 1.325 . S
C696 C699 1.357 . S
C697 H665 0.928 . S
C697 C695 1.406 . S
C697 N698 1.261 . S
N698 Co649 2.214 . S
N698 C696 1.325 . S
N698 C697 1.261 . S
C699 H669 0.931 . S
C699 C696 1.357 . S
C699 C700 1.312 . S
C700 H671 0.930 . S
C700 C695 1.261 . S
C700 C699 1.312 . S
C701 O673 1.214 . S
C701 O681 1.234 . S
C702 H674 0.929 . S
C702 C705 1.391 . S
C702 C707 1.391 . S
C703 H675 0.929 . S
C703 C704 1.390 . S
C703 N706 1.391 . S
C704 H676 0.930 . S
C704 C703 1.390 . S
C704 C705 1.392 . S
C705 H677 0.929 . S
C705 C702 1.391 . S
C705 C704 1.392 . S
N706 Co650 2.257 . S
N706 C703 1.391 . S
N706 C707 1.388 . S
C707 H678 0.930 . S
C707 C702 1.391 . S
C707 N706 1.388 . S
Co708 O710 2.143 . S
Co708 O716 2.074 . S
Co708 O719 2.093 . S
Co708 O732 2.097 . S
Co708 N749 2.151 . S
Co708 N757 2.214 . S
Co709 O710 2.160 . S
Co709 O715 2.058 . S
Co709 O725 2.057 . S
Co709 O740 2.037 . S
Co709 N744 2.145 . S
Co709 N765 2.257 . S
O710 Co708 2.143 . S
O710 Co709 2.160 . S
C711 O712 1.278 . S
C711 O719 1.224 . S
O712 C711 1.278 . S
C713 O714 1.245 . S
C713 O725 1.232 . S
O714 C713 1.245 . S
O715 Co709 2.058 . S
O715 C741 1.269 . S
O716 Co708 2.074 . S
O716 C741 1.257 . S
H717 C742 0.930 . S
H718 C748 0.930 . S
O719 Co708 2.093 . S
O719 C711 1.224 . S
H720 C752 0.929 . S
H721 C754 0.930 . S
H722 C755 0.930 . S
H723 C753 0.929 . S
H724 C756 0.928 . S
O725 Co709 2.057 . S
O725 C713 1.232 . S
H726 C745 0.929 . S
H727 C746 0.929 . S
H728 C758 0.931 . S
H729 C750 0.929 . S
H730 C759 0.930 . S
H731 C751 0.931 . S
O732 Co708 2.097 . S
O732 C760 1.214 . S
H733 C761 0.929 . S
H734 C762 0.929 . S
H735 C763 0.930 . S
H736 C764 0.929 . S
H737 C766 0.930 . S
H738 C743 0.930 . S
H739 C747 0.930 . S
O740 Co709 2.037 . S
O740 C760 1.234 . S
C741 O715 1.269 . S
C741 O716 1.257 . S
C742 H717 0.930 . S
C742 C745 1.388 . S
C742 C747 1.418 . S
C743 H738 0.930 . S
C743 C746 1.404 . S
C743 C747 1.353 . S
N744 Co709 2.145 . S
N744 C745 1.397 . S
N744 C746 1.334 . S
C745 H726 0.929 . S
C745 C742 1.388 . S
C745 N744 1.397 . S
C746 H727 0.929 . S
C746 C743 1.404 . S
C746 N744 1.334 . S
C747 H739 0.930 . S
C747 C742 1.418 . S
C747 C743 1.353 . S
C748 H718 0.930 . S
C748 N749 1.330 . S
C748 C750 1.446 . S
N749 Co708 2.151 . S
N749 C748 1.330 . S
N749 C753 1.418 . S
C750 H729 0.929 . S
C750 C748 1.446 . S
C750 C751 1.332 . S
C751 H731 0.931 . S
C751 C750 1.332 . S
C751 C752 1.267 . S
C752 H720 0.929 . S
C752 C751 1.267 . S
C752 C753 1.251 . S
C753 H723 0.929 . S
C753 N749 1.418 . S
C753 C752 1.251 . S
C754 H721 0.930 . S
C754 C756 1.406 . S
C754 C759 1.261 . S
C755 H722 0.930 . S
C755 N757 1.325 . S
C755 C758 1.357 . S
C756 H724 0.928 . S
C756 C754 1.406 . S
C756 N757 1.261 . S
N757 Co708 2.214 . S
N757 C755 1.325 . S
N757 C756 1.261 . S
C758 H728 0.931 . S
C758 C755 1.357 . S
C758 C759 1.312 . S
C759 H730 0.930 . S
C759 C754 1.261 . S
C759 C758 1.312 . S
C760 O732 1.214 . S
C760 O740 1.234 . S
C761 H733 0.929 . S
C761 C764 1.391 . S
C761 C766 1.391 . S
C762 H734 0.929 . S
C762 C763 1.390 . S
C762 N765 1.391 . S
C763 H735 0.930 . S
C763 C762 1.390 . S
C763 C764 1.392 . S
C764 H736 0.929 . S
C764 C761 1.391 . S
C764 C763 1.392 . S
N765 Co709 2.257 . S
N765 C762 1.391 . S
N765 C766 1.388 . S
C766 H737 0.930 . S
C766 C761 1.391 . S
C766 N765 1.388 . S
Co767 O769 2.143 . S
Co767 O775 2.074 . S
Co767 O778 2.093 . S
Co767 O791 2.097 . S
Co767 N808 2.151 . S
Co767 N816 2.214 . S
Co768 O769 2.160 . S
Co768 O774 2.058 . S
Co768 O784 2.057 . S
Co768 O799 2.037 . S
Co768 N803 2.145 . S
Co768 N824 2.257 . S
O769 Co767 2.143 . S
O769 Co768 2.160 . S
C770 O771 1.278 . S
C770 O778 1.224 . S
O771 C770 1.278 . S
C772 O773 1.245 . S
C772 O784 1.232 . S
O773 C772 1.245 . S
O774 Co768 2.058 . S
O774 C800 1.269 . S
O775 Co767 2.074 . S
O775 C800 1.257 . S
H776 C801 0.930 . S
H777 C807 0.930 . S
O778 Co767 2.093 . S
O778 C770 1.224 . S
H779 C811 0.929 . S
H780 C813 0.930 . S
H781 C814 0.930 . S
H782 C812 0.929 . S
H783 C815 0.928 . S
O784 Co768 2.057 . S
O784 C772 1.232 . S
H785 C804 0.929 . S
H786 C805 0.929 . S
H787 C817 0.931 . S
H788 C809 0.929 . S
H789 C818 0.930 . S
H790 C810 0.931 . S
O791 Co767 2.097 . S
O791 C819 1.214 . S
H792 C820 0.929 . S
H793 C821 0.929 . S
H794 C822 0.930 . S
H795 C823 0.929 . S
H796 C825 0.930 . S
H797 C802 0.930 . S
H798 C806 0.930 . S
O799 Co768 2.037 . S
O799 C819 1.234 . S
C800 O774 1.269 . S
C800 O775 1.257 . S
C801 H776 0.930 . S
C801 C804 1.388 . S
C801 C806 1.418 . S
C802 H797 0.930 . S
C802 C805 1.404 . S
C802 C806 1.353 . S
N803 Co768 2.145 . S
N803 C804 1.397 . S
N803 C805 1.334 . S
C804 H785 0.929 . S
C804 C801 1.388 . S
C804 N803 1.397 . S
C805 H786 0.929 . S
C805 C802 1.404 . S
C805 N803 1.334 . S
C806 H798 0.930 . S
C806 C801 1.418 . S
C806 C802 1.353 . S
C807 H777 0.930 . S
C807 N808 1.330 . S
C807 C809 1.446 . S
N808 Co767 2.151 . S
N808 C807 1.330 . S
N808 C812 1.418 . S
C809 H788 0.929 . S
C809 C807 1.446 . S
C809 C810 1.332 . S
C810 H790 0.931 . S
C810 C809 1.332 . S
C810 C811 1.267 . S
C811 H779 0.929 . S
C811 C810 1.267 . S
C811 C812 1.251 . S
C812 H782 0.929 . S
C812 N808 1.418 . S
C812 C811 1.251 . S
C813 H780 0.930 . S
C813 C815 1.406 . S
C813 C818 1.261 . S
C814 H781 0.930 . S
C814 N816 1.325 . S
C814 C817 1.357 . S
C815 H783 0.928 . S
C815 C813 1.406 . S
C815 N816 1.261 . S
N816 Co767 2.214 . S
N816 C814 1.325 . S
N816 C815 1.261 . S
C817 H787 0.931 . S
C817 C814 1.357 . S
C817 C818 1.312 . S
C818 H789 0.930 . S
C818 C813 1.261 . S
C818 C817 1.312 . S
C819 O791 1.214 . S
C819 O799 1.234 . S
C820 H792 0.929 . S
C820 C823 1.391 . S
C820 C825 1.391 . S
C821 H793 0.929 . S
C821 C822 1.390 . S
C821 N824 1.391 . S
C822 H794 0.930 . S
C822 C821 1.390 . S
C822 C823 1.392 . S
C823 H795 0.929 . S
C823 C820 1.391 . S
C823 C822 1.392 . S
N824 Co768 2.257 . S
N824 C821 1.391 . S
N824 C825 1.388 . S
C825 H796 0.930 . S
C825 C820 1.391 . S
C825 N824 1.388 . S
Co826 O828 2.143 . S
Co826 O834 2.074 . S
Co826 O837 2.093 . S
Co826 O850 2.097 . S
Co826 N867 2.151 . S
Co826 N875 2.214 . S
Co827 O828 2.160 . S
Co827 O833 2.058 . S
Co827 O843 2.057 . S
Co827 O858 2.037 . S
Co827 N862 2.145 . S
Co827 N883 2.257 . S
O828 Co826 2.143 . S
O828 Co827 2.160 . S
C829 O830 1.278 . S
C829 O837 1.224 . S
O830 C829 1.278 . S
C831 O832 1.245 . S
C831 O843 1.232 . S
O832 C831 1.245 . S
O833 Co827 2.058 . S
O833 C859 1.269 . S
O834 Co826 2.074 . S
O834 C859 1.257 . S
H835 C860 0.930 . S
H836 C866 0.930 . S
O837 Co826 2.093 . S
O837 C829 1.224 . S
H838 C870 0.929 . S
H839 C872 0.930 . S
H840 C873 0.930 . S
H841 C871 0.929 . S
H842 C874 0.928 . S
O843 Co827 2.057 . S
O843 C831 1.232 . S
H844 C863 0.929 . S
H845 C864 0.929 . S
H846 C876 0.931 . S
H847 C868 0.929 . S
H848 C877 0.930 . S
H849 C869 0.931 . S
O850 Co826 2.097 . S
O850 C878 1.214 . S
H851 C879 0.929 . S
H852 C880 0.929 . S
H853 C881 0.930 . S
H854 C882 0.929 . S
H855 C884 0.930 . S
H856 C861 0.930 . S
H857 C865 0.930 . S
O858 Co827 2.037 . S
O858 C878 1.234 . S
C859 O833 1.269 . S
C859 O834 1.257 . S
C860 H835 0.930 . S
C860 C863 1.388 . S
C860 C865 1.418 . S
C861 H856 0.930 . S
C861 C864 1.404 . S
C861 C865 1.353 . S
N862 Co827 2.145 . S
N862 C863 1.397 . S
N862 C864 1.334 . S
C863 H844 0.929 . S
C863 C860 1.388 . S
C863 N862 1.397 . S
C864 H845 0.929 . S
C864 C861 1.404 . S
C864 N862 1.334 . S
C865 H857 0.930 . S
C865 C860 1.418 . S
C865 C861 1.353 . S
C866 H836 0.930 . S
C866 N867 1.330 . S
C866 C868 1.446 . S
N867 Co826 2.151 . S
N867 C866 1.330 . S
N867 C871 1.418 . S
C868 H847 0.929 . S
C868 C866 1.446 . S
C868 C869 1.332 . S
C869 H849 0.931 . S
C869 C868 1.332 . S
C869 C870 1.267 . S
C870 H838 0.929 . S
C870 C869 1.267 . S
C870 C871 1.251 . S
C871 H841 0.929 . S
C871 N867 1.418 . S
C871 C870 1.251 . S
C872 H839 0.930 . S
C872 C874 1.406 . S
C872 C877 1.261 . S
C873 H840 0.930 . S
C873 N875 1.325 . S
C873 C876 1.357 . S
C874 H842 0.928 . S
C874 C872 1.406 . S
C874 N875 1.261 . S
N875 Co826 2.214 . S
N875 C873 1.325 . S
N875 C874 1.261 . S
C876 H846 0.931 . S
C876 C873 1.357 . S
C876 C877 1.312 . S
C877 H848 0.930 . S
C877 C872 1.261 . S
C877 C876 1.312 . S
C878 O850 1.214 . S
C878 O858 1.234 . S
C879 H851 0.929 . S
C879 C882 1.391 . S
C879 C884 1.391 . S
C880 H852 0.929 . S
C880 C881 1.390 . S
C880 N883 1.391 . S
C881 H853 0.930 . S
C881 C880 1.390 . S
C881 C882 1.392 . S
C882 H854 0.929 . S
C882 C879 1.391 . S
C882 C881 1.392 . S
N883 Co827 2.257 . S
N883 C880 1.391 . S
N883 C884 1.388 . S
C884 H855 0.930 . S
C884 C879 1.391 . S
C884 N883 1.388 . S
Co885 O887 2.143 . S
Co885 O893 2.074 . S
Co885 O896 2.093 . S
Co885 O909 2.097 . S
Co885 N926 2.151 . S
Co885 N934 2.214 . S
Co886 O887 2.160 . S
Co886 O892 2.058 . S
Co886 O902 2.057 . S
Co886 O917 2.037 . S
Co886 N921 2.145 . S
Co886 N942 2.257 . S
O887 Co885 2.143 . S
O887 Co886 2.160 . S
C888 O889 1.278 . S
C888 O896 1.224 . S
O889 C888 1.278 . S
C890 O891 1.245 . S
C890 O902 1.232 . S
O891 C890 1.245 . S
O892 Co886 2.058 . S
O892 C918 1.269 . S
O893 Co885 2.074 . S
O893 C918 1.257 . S
H894 C919 0.930 . S
H895 C925 0.930 . S
O896 Co885 2.093 . S
O896 C888 1.224 . S
H897 C929 0.929 . S
H898 C931 0.930 . S
H899 C932 0.930 . S
H900 C930 0.929 . S
H901 C933 0.928 . S
O902 Co886 2.057 . S
O902 C890 1.232 . S
H903 C922 0.929 . S
H904 C923 0.929 . S
H905 C935 0.931 . S
H906 C927 0.929 . S
H907 C936 0.930 . S
H908 C928 0.931 . S
O909 Co885 2.097 . S
O909 C937 1.214 . S
H910 C938 0.929 . S
H911 C939 0.929 . S
H912 C940 0.930 . S
H913 C941 0.929 . S
H914 C943 0.930 . S
H915 C920 0.930 . S
H916 C924 0.930 . S
O917 Co886 2.037 . S
O917 C937 1.234 . S
C918 O892 1.269 . S
C918 O893 1.257 . S
C919 H894 0.930 . S
C919 C922 1.388 . S
C919 C924 1.418 . S
C920 H915 0.930 . S
C920 C923 1.404 . S
C920 C924 1.353 . S
N921 Co886 2.145 . S
N921 C922 1.397 . S
N921 C923 1.334 . S
C922 H903 0.929 . S
C922 C919 1.388 . S
C922 N921 1.397 . S
C923 H904 0.929 . S
C923 C920 1.404 . S
C923 N921 1.334 . S
C924 H916 0.930 . S
C924 C919 1.418 . S
C924 C920 1.353 . S
C925 H895 0.930 . S
C925 N926 1.330 . S
C925 C927 1.446 . S
N926 Co885 2.151 . S
N926 C925 1.330 . S
N926 C930 1.418 . S
C927 H906 0.929 . S
C927 C925 1.446 . S
C927 C928 1.332 . S
C928 H908 0.931 . S
C928 C927 1.332 . S
C928 C929 1.267 . S
C929 H897 0.929 . S
C929 C928 1.267 . S
C929 C930 1.251 . S
C930 H900 0.929 . S
C930 N926 1.418 . S
C930 C929 1.251 . S
C931 H898 0.930 . S
C931 C933 1.406 . S
C931 C936 1.261 . S
C932 H899 0.930 . S
C932 N934 1.325 . S
C932 C935 1.357 . S
C933 H901 0.928 . S
C933 C931 1.406 . S
C933 N934 1.261 . S
N934 Co885 2.214 . S
N934 C932 1.325 . S
N934 C933 1.261 . S
C935 H905 0.931 . S
C935 C932 1.357 . S
C935 C936 1.312 . S
C936 H907 0.930 . S
C936 C931 1.261 . S
C936 C935 1.312 . S
C937 O909 1.214 . S
C937 O917 1.234 . S
C938 H910 0.929 . S
C938 C941 1.391 . S
C938 C943 1.391 . S
C939 H911 0.929 . S
C939 C940 1.390 . S
C939 N942 1.391 . S
C940 H912 0.930 . S
C940 C939 1.390 . S
C940 C941 1.392 . S
C941 H913 0.929 . S
C941 C938 1.391 . S
C941 C940 1.392 . S
N942 Co886 2.257 . S
N942 C939 1.391 . S
N942 C943 1.388 . S
C943 H914 0.930 . S
C943 C938 1.391 . S
C943 N942 1.388 . S
Co944 O946 2.143 . S
Co944 O952 2.074 . S
Co944 O955 2.093 . S
Co944 O968 2.097 . S
Co944 N985 2.151 . S
Co944 N993 2.214 . S
Co945 O946 2.160 . S
Co945 O951 2.058 . S
Co945 O961 2.057 . S
Co945 O976 2.037 . S
Co945 N980 2.145 . S
Co945 N1001 2.257 . S
O946 Co944 2.143 . S
O946 Co945 2.160 . S
C947 O948 1.278 . S
C947 O955 1.224 . S
O948 C947 1.278 . S
C949 O950 1.245 . S
C949 O961 1.232 . S
O950 C949 1.245 . S
O951 Co945 2.058 . S
O951 C977 1.269 . S
O952 Co944 2.074 . S
O952 C977 1.257 . S
H953 C978 0.930 . S
H954 C984 0.930 . S
O955 Co944 2.093 . S
O955 C947 1.224 . S
H956 C988 0.929 . S
H957 C990 0.930 . S
H958 C991 0.930 . S
H959 C989 0.929 . S
H960 C992 0.928 . S
O961 Co945 2.057 . S
O961 C949 1.232 . S
H962 C981 0.929 . S
H963 C982 0.929 . S
H964 C994 0.931 . S
H965 C986 0.929 . S
H966 C995 0.930 . S
H967 C987 0.931 . S
O968 Co944 2.097 . S
O968 C996 1.214 . S
H969 C997 0.929 . S
H970 C998 0.929 . S
H971 C999 0.930 . S
H972 C1000 0.929 . S
H973 C1002 0.930 . S
H974 C979 0.930 . S
H975 C983 0.930 . S
O976 Co945 2.037 . S
O976 C996 1.234 . S
C977 O951 1.269 . S
C977 O952 1.257 . S
C978 H953 0.930 . S
C978 C981 1.388 . S
C978 C983 1.418 . S
C979 H974 0.930 . S
C979 C982 1.404 . S
C979 C983 1.353 . S
N980 Co945 2.145 . S
N980 C981 1.397 . S
N980 C982 1.334 . S
C981 H962 0.929 . S
C981 C978 1.388 . S
C981 N980 1.397 . S
C982 H963 0.929 . S
C982 C979 1.404 . S
C982 N980 1.334 . S
C983 H975 0.930 . S
C983 C978 1.418 . S
C983 C979 1.353 . S
C984 H954 0.930 . S
C984 N985 1.330 . S
C984 C986 1.446 . S
N985 Co944 2.151 . S
N985 C984 1.330 . S
N985 C989 1.418 . S
C986 H965 0.929 . S
C986 C984 1.446 . S
C986 C987 1.332 . S
C987 H967 0.931 . S
C987 C986 1.332 . S
C987 C988 1.267 . S
C988 H956 0.929 . S
C988 C987 1.267 . S
C988 C989 1.251 . S
C989 H959 0.929 . S
C989 N985 1.418 . S
C989 C988 1.251 . S
C990 H957 0.930 . S
C990 C992 1.406 . S
C990 C995 1.261 . S
C991 H958 0.930 . S
C991 N993 1.325 . S
C991 C994 1.357 . S
C992 H960 0.928 . S
C992 C990 1.406 . S
C992 N993 1.261 . S
N993 Co944 2.214 . S
N993 C991 1.325 . S
N993 C992 1.261 . S
C994 H964 0.931 . S
C994 C991 1.357 . S
C994 C995 1.312 . S
C995 H966 0.930 . S
C995 C990 1.261 . S
C995 C994 1.312 . S
C996 O968 1.214 . S
C996 O976 1.234 . S
C997 H969 0.929 . S
C997 C1000 1.391 . S
C997 C1002 1.391 . S
C998 H970 0.929 . S
C998 C999 1.390 . S
C998 N1001 1.391 . S
C999 H971 0.930 . S
C999 C998 1.390 . S
C999 C1000 1.392 . S
C1000 H972 0.929 . S
C1000 C997 1.391 . S
C1000 C999 1.392 . S
N1001 Co945 2.257 . S
N1001 C998 1.391 . S
N1001 C1002 1.388 . S
C1002 H973 0.930 . S
C1002 C997 1.391 . S
C1002 N1001 1.388 . S
Co1003 O1005 2.143 . S
Co1003 O1011 2.074 . S
Co1003 O1014 2.093 . S
Co1003 O1027 2.097 . S
Co1003 N1044 2.151 . S
Co1003 N1052 2.214 . S
Co1004 O1005 2.160 . S
Co1004 O1010 2.058 . S
Co1004 O1020 2.057 . S
Co1004 O1035 2.037 . S
Co1004 N1039 2.145 . S
Co1004 N1060 2.257 . S
O1005 Co1003 2.143 . S
O1005 Co1004 2.160 . S
C1006 O1007 1.278 . S
C1006 O1014 1.224 . S
O1007 C1006 1.278 . S
C1008 O1009 1.245 . S
C1008 O1020 1.232 . S
O1009 C1008 1.245 . S
O1010 Co1004 2.058 . S
O1010 C1036 1.269 . S
O1011 Co1003 2.074 . S
O1011 C1036 1.257 . S
H1012 C1037 0.930 . S
H1013 C1043 0.930 . S
O1014 Co1003 2.093 . S
O1014 C1006 1.224 . S
H1015 C1047 0.929 . S
H1016 C1049 0.930 . S
H1017 C1050 0.930 . S
H1018 C1048 0.929 . S
H1019 C1051 0.928 . S
O1020 Co1004 2.057 . S
O1020 C1008 1.232 . S
H1021 C1040 0.929 . S
H1022 C1041 0.929 . S
H1023 C1053 0.931 . S
H1024 C1045 0.929 . S
H1025 C1054 0.930 . S
H1026 C1046 0.931 . S
O1027 Co1003 2.097 . S
O1027 C1055 1.214 . S
H1028 C1056 0.929 . S
H1029 C1057 0.929 . S
H1030 C1058 0.930 . S
H1031 C1059 0.929 . S
H1032 C1061 0.930 . S
H1033 C1038 0.930 . S
H1034 C1042 0.930 . S
O1035 Co1004 2.037 . S
O1035 C1055 1.234 . S
C1036 O1010 1.269 . S
C1036 O1011 1.257 . S
C1037 H1012 0.930 . S
C1037 C1040 1.388 . S
C1037 C1042 1.418 . S
C1038 H1033 0.930 . S
C1038 C1041 1.404 . S
C1038 C1042 1.353 . S
N1039 Co1004 2.145 . S
N1039 C1040 1.397 . S
N1039 C1041 1.334 . S
C1040 H1021 0.929 . S
C1040 C1037 1.388 . S
C1040 N1039 1.397 . S
C1041 H1022 0.929 . S
C1041 C1038 1.404 . S
C1041 N1039 1.334 . S
C1042 H1034 0.930 . S
C1042 C1037 1.418 . S
C1042 C1038 1.353 . S
C1043 H1013 0.930 . S
C1043 N1044 1.330 . S
C1043 C1045 1.446 . S
N1044 Co1003 2.151 . S
N1044 C1043 1.330 . S
N1044 C1048 1.418 . S
C1045 H1024 0.929 . S
C1045 C1043 1.446 . S
C1045 C1046 1.332 . S
C1046 H1026 0.931 . S
C1046 C1045 1.332 . S
C1046 C1047 1.267 . S
C1047 H1015 0.929 . S
C1047 C1046 1.267 . S
C1047 C1048 1.251 . S
C1048 H1018 0.929 . S
C1048 N1044 1.418 . S
C1048 C1047 1.251 . S
C1049 H1016 0.930 . S
C1049 C1051 1.406 . S
C1049 C1054 1.261 . S
C1050 H1017 0.930 . S
C1050 N1052 1.325 . S
C1050 C1053 1.357 . S
C1051 H1019 0.928 . S
C1051 C1049 1.406 . S
C1051 N1052 1.261 . S
N1052 Co1003 2.214 . S
N1052 C1050 1.325 . S
N1052 C1051 1.261 . S
C1053 H1023 0.931 . S
C1053 C1050 1.357 . S
C1053 C1054 1.312 . S
C1054 H1025 0.930 . S
C1054 C1049 1.261 . S
C1054 C1053 1.312 . S
C1055 O1027 1.214 . S
C1055 O1035 1.234 . S
C1056 H1028 0.929 . S
C1056 C1059 1.391 . S
C1056 C1061 1.391 . S
C1057 H1029 0.929 . S
C1057 C1058 1.390 . S
C1057 N1060 1.391 . S
C1058 H1030 0.930 . S
C1058 C1057 1.390 . S
C1058 C1059 1.392 . S
C1059 H1031 0.929 . S
C1059 C1056 1.391 . S
C1059 C1058 1.392 . S
N1060 Co1004 2.257 . S
N1060 C1057 1.391 . S
N1060 C1061 1.388 . S
C1061 H1032 0.930 . S
C1061 C1056 1.391 . S
C1061 N1060 1.388 . S
Co1062 O1064 2.143 . S
Co1062 O1070 2.074 . S
Co1062 O1073 2.093 . S
Co1062 O1086 2.097 . S
Co1062 N1103 2.151 . S
Co1062 N1111 2.214 . S
Co1063 O1064 2.160 . S
Co1063 O1069 2.058 . S
Co1063 O1079 2.057 . S
Co1063 O1094 2.037 . S
Co1063 N1098 2.145 . S
Co1063 N1119 2.257 . S
O1064 Co1062 2.143 . S
O1064 Co1063 2.160 . S
C1065 O1066 1.278 . S
C1065 O1073 1.224 . S
O1066 C1065 1.278 . S
C1067 O1068 1.245 . S
C1067 O1079 1.232 . S
O1068 C1067 1.245 . S
O1069 Co1063 2.058 . S
O1069 C1095 1.269 . S
O1070 Co1062 2.074 . S
O1070 C1095 1.257 . S
H1071 C1096 0.930 . S
H1072 C1102 0.930 . S
O1073 Co1062 2.093 . S
O1073 C1065 1.224 . S
H1074 C1106 0.929 . S
H1075 C1108 0.930 . S
H1076 C1109 0.930 . S
H1077 C1107 0.929 . S
H1078 C1110 0.928 . S
O1079 Co1063 2.057 . S
O1079 C1067 1.232 . S
H1080 C1099 0.929 . S
H1081 C1100 0.929 . S
H1082 C1112 0.931 . S
H1083 C1104 0.929 . S
H1084 C1113 0.930 . S
H1085 C1105 0.931 . S
O1086 Co1062 2.097 . S
O1086 C1114 1.214 . S
H1087 C1115 0.929 . S
H1088 C1116 0.929 . S
H1089 C1117 0.930 . S
H1090 C1118 0.929 . S
H1091 C1120 0.930 . S
H1092 C1097 0.930 . S
H1093 C1101 0.930 . S
O1094 Co1063 2.037 . S
O1094 C1114 1.234 . S
C1095 O1069 1.269 . S
C1095 O1070 1.257 . S
C1096 H1071 0.930 . S
C1096 C1099 1.388 . S
C1096 C1101 1.418 . S
C1097 H1092 0.930 . S
C1097 C1100 1.404 . S
C1097 C1101 1.353 . S
N1098 Co1063 2.145 . S
N1098 C1099 1.397 . S
N1098 C1100 1.334 . S
C1099 H1080 0.929 . S
C1099 C1096 1.388 . S
C1099 N1098 1.397 . S
C1100 H1081 0.929 . S
C1100 C1097 1.404 . S
C1100 N1098 1.334 . S
C1101 H1093 0.930 . S
C1101 C1096 1.418 . S
C1101 C1097 1.353 . S
C1102 H1072 0.930 . S
C1102 N1103 1.330 . S
C1102 C1104 1.446 . S
N1103 Co1062 2.151 . S
N1103 C1102 1.330 . S
N1103 C1107 1.418 . S
C1104 H1083 0.929 . S
C1104 C1102 1.446 . S
C1104 C1105 1.332 . S
C1105 H1085 0.931 . S
C1105 C1104 1.332 . S
C1105 C1106 1.267 . S
C1106 H1074 0.929 . S
C1106 C1105 1.267 . S
C1106 C1107 1.251 . S
C1107 H1077 0.929 . S
C1107 N1103 1.418 . S
C1107 C1106 1.251 . S
C1108 H1075 0.930 . S
C1108 C1110 1.406 . S
C1108 C1113 1.261 . S
C1109 H1076 0.930 . S
C1109 N1111 1.325 . S
C1109 C1112 1.357 . S
C1110 H1078 0.928 . S
C1110 C1108 1.406 . S
C1110 N1111 1.261 . S
N1111 Co1062 2.214 . S
N1111 C1109 1.325 . S
N1111 C1110 1.261 . S
C1112 H1082 0.931 . S
C1112 C1109 1.357 . S
C1112 C1113 1.312 . S
C1113 H1084 0.930 . S
C1113 C1108 1.261 . S
C1113 C1112 1.312 . S
C1114 O1086 1.214 . S
C1114 O1094 1.234 . S
C1115 H1087 0.929 . S
C1115 C1118 1.391 . S
C1115 C1120 1.391 . S
C1116 H1088 0.929 . S
C1116 C1117 1.390 . S
C1116 N1119 1.391 . S
C1117 H1089 0.930 . S
C1117 C1116 1.390 . S
C1117 C1118 1.392 . S
C1118 H1090 0.929 . S
C1118 C1115 1.391 . S
C1118 C1117 1.392 . S
N1119 Co1063 2.257 . S
N1119 C1116 1.391 . S
N1119 C1120 1.388 . S
C1120 H1091 0.930 . S
C1120 C1115 1.391 . S
C1120 N1119 1.388 . S
Co1121 O1123 2.143 . S
Co1121 O1129 2.074 . S
Co1121 O1132 2.093 . S
Co1121 O1145 2.097 . S
Co1121 N1162 2.151 . S
Co1121 N1170 2.214 . S
Co1122 O1123 2.160 . S
Co1122 O1128 2.058 . S
Co1122 O1138 2.057 . S
Co1122 O1153 2.037 . S
Co1122 N1157 2.145 . S
Co1122 N1178 2.257 . S
O1123 Co1121 2.143 . S
O1123 Co1122 2.160 . S
C1124 O1125 1.278 . S
C1124 O1132 1.224 . S
O1125 C1124 1.278 . S
C1126 O1127 1.245 . S
C1126 O1138 1.232 . S
O1127 C1126 1.245 . S
O1128 Co1122 2.058 . S
O1128 C1154 1.269 . S
O1129 Co1121 2.074 . S
O1129 C1154 1.257 . S
H1130 C1155 0.930 . S
H1131 C1161 0.930 . S
O1132 Co1121 2.093 . S
O1132 C1124 1.224 . S
H1133 C1165 0.929 . S
H1134 C1167 0.930 . S
H1135 C1168 0.930 . S
H1136 C1166 0.929 . S
H1137 C1169 0.928 . S
O1138 Co1122 2.057 . S
O1138 C1126 1.232 . S
H1139 C1158 0.929 . S
H1140 C1159 0.929 . S
H1141 C1171 0.931 . S
H1142 C1163 0.929 . S
H1143 C1172 0.930 . S
H1144 C1164 0.931 . S
O1145 Co1121 2.097 . S
O1145 C1173 1.214 . S
H1146 C1174 0.929 . S
H1147 C1175 0.929 . S
H1148 C1176 0.930 . S
H1149 C1177 0.929 . S
H1150 C1179 0.930 . S
H1151 C1156 0.930 . S
H1152 C1160 0.930 . S
O1153 Co1122 2.037 . S
O1153 C1173 1.234 . S
C1154 O1128 1.269 . S
C1154 O1129 1.257 . S
C1155 H1130 0.930 . S
C1155 C1158 1.388 . S
C1155 C1160 1.418 . S
C1156 H1151 0.930 . S
C1156 C1159 1.404 . S
C1156 C1160 1.353 . S
N1157 Co1122 2.145 . S
N1157 C1158 1.397 . S
N1157 C1159 1.334 . S
C1158 H1139 0.929 . S
C1158 C1155 1.388 . S
C1158 N1157 1.397 . S
C1159 H1140 0.929 . S
C1159 C1156 1.404 . S
C1159 N1157 1.334 . S
C1160 H1152 0.930 . S
C1160 C1155 1.418 . S
C1160 C1156 1.353 . S
C1161 H1131 0.930 . S
C1161 N1162 1.330 . S
C1161 C1163 1.446 . S
N1162 Co1121 2.151 . S
N1162 C1161 1.330 . S
N1162 C1166 1.418 . S
C1163 H1142 0.929 . S
C1163 C1161 1.446 . S
C1163 C1164 1.332 . S
C1164 H1144 0.931 . S
C1164 C1163 1.332 . S
C1164 C1165 1.267 . S
C1165 H1133 0.929 . S
C1165 C1164 1.267 . S
C1165 C1166 1.251 . S
C1166 H1136 0.929 . S
C1166 N1162 1.418 . S
C1166 C1165 1.251 . S
C1167 H1134 0.930 . S
C1167 C1169 1.406 . S
C1167 C1172 1.261 . S
C1168 H1135 0.930 . S
C1168 N1170 1.325 . S
C1168 C1171 1.357 . S
C1169 H1137 0.928 . S
C1169 C1167 1.406 . S
C1169 N1170 1.261 . S
N1170 Co1121 2.214 . S
N1170 C1168 1.325 . S
N1170 C1169 1.261 . S
C1171 H1141 0.931 . S
C1171 C1168 1.357 . S
C1171 C1172 1.312 . S
C1172 H1143 0.930 . S
C1172 C1167 1.261 . S
C1172 C1171 1.312 . S
C1173 O1145 1.214 . S
C1173 O1153 1.234 . S
C1174 H1146 0.929 . S
C1174 C1177 1.391 . S
C1174 C1179 1.391 . S
C1175 H1147 0.929 . S
C1175 C1176 1.390 . S
C1175 N1178 1.391 . S
C1176 H1148 0.930 . S
C1176 C1175 1.390 . S
C1176 C1177 1.392 . S
C1177 H1149 0.929 . S
C1177 C1174 1.391 . S
C1177 C1176 1.392 . S
N1178 Co1122 2.257 . S
N1178 C1175 1.391 . S
N1178 C1179 1.388 . S
C1179 H1150 0.930 . S
C1179 C1174 1.391 . S
C1179 N1178 1.388 . S
Co1180 O1182 2.143 . S
Co1180 O1188 2.074 . S
Co1180 O1191 2.093 . S
Co1180 O1204 2.097 . S
Co1180 N1221 2.151 . S
Co1180 N1229 2.214 . S
Co1181 O1182 2.160 . S
Co1181 O1187 2.058 . S
Co1181 O1197 2.057 . S
Co1181 O1212 2.037 . S
Co1181 N1216 2.145 . S
Co1181 N1237 2.257 . S
O1182 Co1180 2.143 . S
O1182 Co1181 2.160 . S
C1183 O1184 1.278 . S
C1183 O1191 1.224 . S
O1184 C1183 1.278 . S
C1185 O1186 1.245 . S
C1185 O1197 1.232 . S
O1186 C1185 1.245 . S
O1187 Co1181 2.058 . S
O1187 C1213 1.269 . S
O1188 Co1180 2.074 . S
O1188 C1213 1.257 . S
H1189 C1214 0.930 . S
H1190 C1220 0.930 . S
O1191 Co1180 2.093 . S
O1191 C1183 1.224 . S
H1192 C1224 0.929 . S
H1193 C1226 0.930 . S
H1194 C1227 0.930 . S
H1195 C1225 0.929 . S
H1196 C1228 0.928 . S
O1197 Co1181 2.057 . S
O1197 C1185 1.232 . S
H1198 C1217 0.929 . S
H1199 C1218 0.929 . S
H1200 C1230 0.931 . S
H1201 C1222 0.929 . S
H1202 C1231 0.930 . S
H1203 C1223 0.931 . S
O1204 Co1180 2.097 . S
O1204 C1232 1.214 . S
H1205 C1233 0.929 . S
H1206 C1234 0.929 . S
H1207 C1235 0.930 . S
H1208 C1236 0.929 . S
H1209 C1238 0.930 . S
H1210 C1215 0.930 . S
H1211 C1219 0.930 . S
O1212 Co1181 2.037 . S
O1212 C1232 1.234 . S
C1213 O1187 1.269 . S
C1213 O1188 1.257 . S
C1214 H1189 0.930 . S
C1214 C1217 1.388 . S
C1214 C1219 1.418 . S
C1215 H1210 0.930 . S
C1215 C1218 1.404 . S
C1215 C1219 1.353 . S
N1216 Co1181 2.145 . S
N1216 C1217 1.397 . S
N1216 C1218 1.334 . S
C1217 H1198 0.929 . S
C1217 C1214 1.388 . S
C1217 N1216 1.397 . S
C1218 H1199 0.929 . S
C1218 C1215 1.404 . S
C1218 N1216 1.334 . S
C1219 H1211 0.930 . S
C1219 C1214 1.418 . S
C1219 C1215 1.353 . S
C1220 H1190 0.930 . S
C1220 N1221 1.330 . S
C1220 C1222 1.446 . S
N1221 Co1180 2.151 . S
N1221 C1220 1.330 . S
N1221 C1225 1.418 . S
C1222 H1201 0.929 . S
C1222 C1220 1.446 . S
C1222 C1223 1.332 . S
C1223 H1203 0.931 . S
C1223 C1222 1.332 . S
C1223 C1224 1.267 . S
C1224 H1192 0.929 . S
C1224 C1223 1.267 . S
C1224 C1225 1.251 . S
C1225 H1195 0.929 . S
C1225 N1221 1.418 . S
C1225 C1224 1.251 . S
C1226 H1193 0.930 . S
C1226 C1228 1.406 . S
C1226 C1231 1.261 . S
C1227 H1194 0.930 . S
C1227 N1229 1.325 . S
C1227 C1230 1.357 . S
C1228 H1196 0.928 . S
C1228 C1226 1.406 . S
C1228 N1229 1.261 . S
N1229 Co1180 2.214 . S
N1229 C1227 1.325 . S
N1229 C1228 1.261 . S
C1230 H1200 0.931 . S
C1230 C1227 1.357 . S
C1230 C1231 1.312 . S
C1231 H1202 0.930 . S
C1231 C1226 1.261 . S
C1231 C1230 1.312 . S
C1232 O1204 1.214 . S
C1232 O1212 1.234 . S
C1233 H1205 0.929 . S
C1233 C1236 1.391 . S
C1233 C1238 1.391 . S
C1234 H1206 0.929 . S
C1234 C1235 1.390 . S
C1234 N1237 1.391 . S
C1235 H1207 0.930 . S
C1235 C1234 1.390 . S
C1235 C1236 1.392 . S
C1236 H1208 0.929 . S
C1236 C1233 1.391 . S
C1236 C1235 1.392 . S
N1237 Co1181 2.257 . S
N1237 C1234 1.391 . S
N1237 C1238 1.388 . S
C1238 H1209 0.930 . S
C1238 C1233 1.391 . S
C1238 N1237 1.388 . S
Co1239 O1241 2.143 . S
Co1239 O1247 2.074 . S
Co1239 O1250 2.093 . S
Co1239 O1263 2.097 . S
Co1239 N1280 2.151 . S
Co1239 N1288 2.214 . S
Co1240 O1241 2.160 . S
Co1240 O1246 2.058 . S
Co1240 O1256 2.057 . S
Co1240 O1271 2.037 . S
Co1240 N1275 2.145 . S
Co1240 N1296 2.257 . S
O1241 Co1239 2.143 . S
O1241 Co1240 2.160 . S
C1242 O1243 1.278 . S
C1242 O1250 1.224 . S
O1243 C1242 1.278 . S
C1244 O1245 1.245 . S
C1244 O1256 1.232 . S
O1245 C1244 1.245 . S
O1246 Co1240 2.058 . S
O1246 C1272 1.269 . S
O1247 Co1239 2.074 . S
O1247 C1272 1.257 . S
H1248 C1273 0.930 . S
H1249 C1279 0.930 . S
O1250 Co1239 2.093 . S
O1250 C1242 1.224 . S
H1251 C1283 0.929 . S
H1252 C1285 0.930 . S
H1253 C1286 0.930 . S
H1254 C1284 0.929 . S
H1255 C1287 0.928 . S
O1256 Co1240 2.057 . S
O1256 C1244 1.232 . S
H1257 C1276 0.929 . S
H1258 C1277 0.929 . S
H1259 C1289 0.931 . S
H1260 C1281 0.929 . S
H1261 C1290 0.930 . S
H1262 C1282 0.931 . S
O1263 Co1239 2.097 . S
O1263 C1291 1.214 . S
H1264 C1292 0.929 . S
H1265 C1293 0.929 . S
H1266 C1294 0.930 . S
H1267 C1295 0.929 . S
H1268 C1297 0.930 . S
H1269 C1274 0.930 . S
H1270 C1278 0.930 . S
O1271 Co1240 2.037 . S
O1271 C1291 1.234 . S
C1272 O1246 1.269 . S
C1272 O1247 1.257 . S
C1273 H1248 0.930 . S
C1273 C1276 1.388 . S
C1273 C1278 1.418 . S
C1274 H1269 0.930 . S
C1274 C1277 1.404 . S
C1274 C1278 1.353 . S
N1275 Co1240 2.145 . S
N1275 C1276 1.397 . S
N1275 C1277 1.334 . S
C1276 H1257 0.929 . S
C1276 C1273 1.388 . S
C1276 N1275 1.397 . S
C1277 H1258 0.929 . S
C1277 C1274 1.404 . S
C1277 N1275 1.334 . S
C1278 H1270 0.930 . S
C1278 C1273 1.418 . S
C1278 C1274 1.353 . S
C1279 H1249 0.930 . S
C1279 N1280 1.330 . S
C1279 C1281 1.446 . S
N1280 Co1239 2.151 . S
N1280 C1279 1.330 . S
N1280 C1284 1.418 . S
C1281 H1260 0.929 . S
C1281 C1279 1.446 . S
C1281 C1282 1.332 . S
C1282 H1262 0.931 . S
C1282 C1281 1.332 . S
C1282 C1283 1.267 . S
C1283 H1251 0.929 . S
C1283 C1282 1.267 . S
C1283 C1284 1.251 . S
C1284 H1254 0.929 . S
C1284 N1280 1.418 . S
C1284 C1283 1.251 . S
C1285 H1252 0.930 . S
C1285 C1287 1.406 . S
C1285 C1290 1.261 . S
C1286 H1253 0.930 . S
C1286 N1288 1.325 . S
C1286 C1289 1.357 . S
C1287 H1255 0.928 . S
C1287 C1285 1.406 . S
C1287 N1288 1.261 . S
N1288 Co1239 2.214 . S
N1288 C1286 1.325 . S
N1288 C1287 1.261 . S
C1289 H1259 0.931 . S
C1289 C1286 1.357 . S
C1289 C1290 1.312 . S
C1290 H1261 0.930 . S
C1290 C1285 1.261 . S
C1290 C1289 1.312 . S
C1291 O1263 1.214 . S
C1291 O1271 1.234 . S
C1292 H1264 0.929 . S
C1292 C1295 1.391 . S
C1292 C1297 1.391 . S
C1293 H1265 0.929 . S
C1293 C1294 1.390 . S
C1293 N1296 1.391 . S
C1294 H1266 0.930 . S
C1294 C1293 1.390 . S
C1294 C1295 1.392 . S
C1295 H1267 0.929 . S
C1295 C1292 1.391 . S
C1295 C1294 1.392 . S
N1296 Co1240 2.257 . S
N1296 C1293 1.391 . S
N1296 C1297 1.388 . S
C1297 H1268 0.930 . S
C1297 C1292 1.391 . S
C1297 N1296 1.388 . S
Co1298 O1300 2.143 . S
Co1298 O1306 2.074 . S
Co1298 O1309 2.093 . S
Co1298 O1322 2.097 . S
Co1298 N1339 2.151 . S
Co1298 N1347 2.214 . S
Co1299 O1300 2.160 . S
Co1299 O1305 2.058 . S
Co1299 O1315 2.057 . S
Co1299 O1330 2.037 . S
Co1299 N1334 2.145 . S
Co1299 N1355 2.257 . S
O1300 Co1298 2.143 . S
O1300 Co1299 2.160 . S
C1301 O1302 1.278 . S
C1301 O1309 1.224 . S
O1302 C1301 1.278 . S
C1303 O1304 1.245 . S
C1303 O1315 1.232 . S
O1304 C1303 1.245 . S
O1305 Co1299 2.058 . S
O1305 C1331 1.269 . S
O1306 Co1298 2.074 . S
O1306 C1331 1.257 . S
H1307 C1332 0.930 . S
H1308 C1338 0.930 . S
O1309 Co1298 2.093 . S
O1309 C1301 1.224 . S
H1310 C1342 0.929 . S
H1311 C1344 0.930 . S
H1312 C1345 0.930 . S
H1313 C1343 0.929 . S
H1314 C1346 0.928 . S
O1315 Co1299 2.057 . S
O1315 C1303 1.232 . S
H1316 C1335 0.929 . S
H1317 C1336 0.929 . S
H1318 C1348 0.931 . S
H1319 C1340 0.929 . S
H1320 C1349 0.930 . S
H1321 C1341 0.931 . S
O1322 Co1298 2.097 . S
O1322 C1350 1.214 . S
H1323 C1351 0.929 . S
H1324 C1352 0.929 . S
H1325 C1353 0.930 . S
H1326 C1354 0.929 . S
H1327 C1356 0.930 . S
H1328 C1333 0.930 . S
H1329 C1337 0.930 . S
O1330 Co1299 2.037 . S
O1330 C1350 1.234 . S
C1331 O1305 1.269 . S
C1331 O1306 1.257 . S
C1332 H1307 0.930 . S
C1332 C1335 1.388 . S
C1332 C1337 1.418 . S
C1333 H1328 0.930 . S
C1333 C1336 1.404 . S
C1333 C1337 1.353 . S
N1334 Co1299 2.145 . S
N1334 C1335 1.397 . S
N1334 C1336 1.334 . S
C1335 H1316 0.929 . S
C1335 C1332 1.388 . S
C1335 N1334 1.397 . S
C1336 H1317 0.929 . S
C1336 C1333 1.404 . S
C1336 N1334 1.334 . S
C1337 H1329 0.930 . S
C1337 C1332 1.418 . S
C1337 C1333 1.353 . S
C1338 H1308 0.930 . S
C1338 N1339 1.330 . S
C1338 C1340 1.446 . S
N1339 Co1298 2.151 . S
N1339 C1338 1.330 . S
N1339 C1343 1.418 . S
C1340 H1319 0.929 . S
C1340 C1338 1.446 . S
C1340 C1341 1.332 . S
C1341 H1321 0.931 . S
C1341 C1340 1.332 . S
C1341 C1342 1.267 . S
C1342 H1310 0.929 . S
C1342 C1341 1.267 . S
C1342 C1343 1.251 . S
C1343 H1313 0.929 . S
C1343 N1339 1.418 . S
C1343 C1342 1.251 . S
C1344 H1311 0.930 . S
C1344 C1346 1.406 . S
C1344 C1349 1.261 . S
C1345 H1312 0.930 . S
C1345 N1347 1.325 . S
C1345 C1348 1.357 . S
C1346 H1314 0.928 . S
C1346 C1344 1.406 . S
C1346 N1347 1.261 . S
N1347 Co1298 2.214 . S
N1347 C1345 1.325 . S
N1347 C1346 1.261 . S
C1348 H1318 0.931 . S
C1348 C1345 1.357 . S
C1348 C1349 1.312 . S
C1349 H1320 0.930 . S
C1349 C1344 1.261 . S
C1349 C1348 1.312 . S
C1350 O1322 1.214 . S
C1350 O1330 1.234 . S
C1351 H1323 0.929 . S
C1351 C1354 1.391 . S
C1351 C1356 1.391 . S
C1352 H1324 0.929 . S
C1352 C1353 1.390 . S
C1352 N1355 1.391 . S
C1353 H1325 0.930 . S
C1353 C1352 1.390 . S
C1353 C1354 1.392 . S
C1354 H1326 0.929 . S
C1354 C1351 1.391 . S
C1354 C1353 1.392 . S
N1355 Co1299 2.257 . S
N1355 C1352 1.391 . S
N1355 C1356 1.388 . S
C1356 H1327 0.930 . S
C1356 C1351 1.391 . S
C1356 N1355 1.388 . S
Co1357 O1359 2.143 . S
Co1357 O1365 2.074 . S
Co1357 O1368 2.093 . S
Co1357 O1381 2.097 . S
Co1357 N1398 2.151 . S
Co1357 N1406 2.214 . S
Co1358 O1359 2.160 . S
Co1358 O1364 2.058 . S
Co1358 O1374 2.057 . S
Co1358 O1389 2.037 . S
Co1358 N1393 2.145 . S
Co1358 N1414 2.257 . S
O1359 Co1357 2.143 . S
O1359 Co1358 2.160 . S
C1360 O1361 1.278 . S
C1360 O1368 1.224 . S
O1361 C1360 1.278 . S
C1362 O1363 1.245 . S
C1362 O1374 1.232 . S
O1363 C1362 1.245 . S
O1364 Co1358 2.058 . S
O1364 C1390 1.269 . S
O1365 Co1357 2.074 . S
O1365 C1390 1.257 . S
H1366 C1391 0.930 . S
H1367 C1397 0.930 . S
O1368 Co1357 2.093 . S
O1368 C1360 1.224 . S
H1369 C1401 0.929 . S
H1370 C1403 0.930 . S
H1371 C1404 0.930 . S
H1372 C1402 0.929 . S
H1373 C1405 0.928 . S
O1374 Co1358 2.057 . S
O1374 C1362 1.232 . S
H1375 C1394 0.929 . S
H1376 C1395 0.929 . S
H1377 C1407 0.931 . S
H1378 C1399 0.929 . S
H1379 C1408 0.930 . S
H1380 C1400 0.931 . S
O1381 Co1357 2.097 . S
O1381 C1409 1.214 . S
H1382 C1410 0.929 . S
H1383 C1411 0.929 . S
H1384 C1412 0.930 . S
H1385 C1413 0.929 . S
H1386 C1415 0.930 . S
H1387 C1392 0.930 . S
H1388 C1396 0.930 . S
O1389 Co1358 2.037 . S
O1389 C1409 1.234 . S
C1390 O1364 1.269 . S
C1390 O1365 1.257 . S
C1391 H1366 0.930 . S
C1391 C1394 1.388 . S
C1391 C1396 1.418 . S
C1392 H1387 0.930 . S
C1392 C1395 1.404 . S
C1392 C1396 1.353 . S
N1393 Co1358 2.145 . S
N1393 C1394 1.397 . S
N1393 C1395 1.334 . S
C1394 H1375 0.929 . S
C1394 C1391 1.388 . S
C1394 N1393 1.397 . S
C1395 H1376 0.929 . S
C1395 C1392 1.404 . S
C1395 N1393 1.334 . S
C1396 H1388 0.930 . S
C1396 C1391 1.418 . S
C1396 C1392 1.353 . S
C1397 H1367 0.930 . S
C1397 N1398 1.330 . S
C1397 C1399 1.446 . S
N1398 Co1357 2.151 . S
N1398 C1397 1.330 . S
N1398 C1402 1.418 . S
C1399 H1378 0.929 . S
C1399 C1397 1.446 . S
C1399 C1400 1.332 . S
C1400 H1380 0.931 . S
C1400 C1399 1.332 . S
C1400 C1401 1.267 . S
C1401 H1369 0.929 . S
C1401 C1400 1.267 . S
C1401 C1402 1.251 . S
C1402 H1372 0.929 . S
C1402 N1398 1.418 . S
C1402 C1401 1.251 . S
C1403 H1370 0.930 . S
C1403 C1405 1.406 . S
C1403 C1408 1.261 . S
C1404 H1371 0.930 . S
C1404 N1406 1.325 . S
C1404 C1407 1.357 . S
C1405 H1373 0.928 . S
C1405 C1403 1.406 . S
C1405 N1406 1.261 . S
N1406 Co1357 2.214 . S
N1406 C1404 1.325 . S
N1406 C1405 1.261 . S
C1407 H1377 0.931 . S
C1407 C1404 1.357 . S
C1407 C1408 1.312 . S
C1408 H1379 0.930 . S
C1408 C1403 1.261 . S
C1408 C1407 1.312 . S
C1409 O1381 1.214 . S
C1409 O1389 1.234 . S
C1410 H1382 0.929 . S
C1410 C1413 1.391 . S
C1410 C1415 1.391 . S
C1411 H1383 0.929 . S
C1411 C1412 1.390 . S
C1411 N1414 1.391 . S
C1412 H1384 0.930 . S
C1412 C1411 1.390 . S
C1412 C1413 1.392 . S
C1413 H1385 0.929 . S
C1413 C1410 1.391 . S
C1413 C1412 1.392 . S
N1414 Co1358 2.257 . S
N1414 C1411 1.391 . S
N1414 C1415 1.388 . S
C1415 H1386 0.930 . S
C1415 C1410 1.391 . S
C1415 N1414 1.388 . S
C1416 C1417 1.349 . S
C1416 C1418 1.327 . S
C1416 H1441 0.950 . S
C1417 C1416 1.349 . S
C1417 C1433 1.349 . S
C1418 C1416 1.327 . S
C1418 C1437 1.429 . S
C1418 H1442 0.950 . S
C1419 C1436 1.574 . S
C1419 C1438 1.368 . S
C1419 H1443 0.949 . S
H1420 C1424 0.949 . S
C1421 C1422 1.349 . S
C1421 C1423 1.327 . S
C1421 H1444 0.950 . S
C1422 C1421 1.349 . S
C1422 C1434 1.349 . S
C1423 C1421 1.327 . S
C1423 C1439 1.429 . S
C1423 H1445 0.950 . S
C1424 H1420 0.949 . S
C1424 C1432 1.574 . S
C1424 C1440 1.368 . S
H1425 C1433 0.950 . S
H1426 C1431 0.950 . S
H1427 C1432 0.949 . S
H1428 C1434 0.950 . S
H1429 C1435 0.950 . S
H1430 C1436 0.949 . S
C1431 H1426 0.950 . S
C1431 C1433 1.327 . S
C1431 C1437 1.429 . S
C1432 C1424 1.574 . S
C1432 H1427 0.949 . S
C1432 C1438 1.368 . S
C1433 C1417 1.349 . S
C1433 H1425 0.950 . S
C1433 C1431 1.327 . S
C1434 C1422 1.349 . S
C1434 H1428 0.950 . S
C1434 C1435 1.327 . S
C1435 H1429 0.950 . S
C1435 C1434 1.327 . S
C1435 C1439 1.429 . S
C1436 C1419 1.574 . S
C1436 H1430 0.949 . S
C1436 C1440 1.368 . S
C1437 C1418 1.429 . S
C1437 C1431 1.429 . S
C1437 C1438 1.523 . S
C1438 C1419 1.368 . S
C1438 C1432 1.368 . S
C1438 C1437 1.523 . S
C1439 C1423 1.429 . S
C1439 C1435 1.429 . S
C1439 C1440 1.523 . S
C1440 C1424 1.368 . S
C1440 C1436 1.368 . S
C1440 C1439 1.523 . S
H1441 C1416 0.950 . S
H1442 C1418 0.950 . S
H1443 C1419 0.949 . S
H1444 C1421 0.950 . S
H1445 C1423 0.950 . S
C1446 C1447 1.349 . S
C1446 C1448 1.327 . S
C1446 H1471 0.950 . S
C1447 C1446 1.349 . S
C1447 C1463 1.349 . S
C1448 C1446 1.327 . S
C1448 C1467 1.429 . S
C1448 H1472 0.950 . S
C1449 C1466 1.574 1_655 S
C1449 C1468 1.368 . S
C1449 H1473 0.949 . S
H1450 C1454 0.949 . S
C1451 C1452 1.349 . S
C1451 C1453 1.327 . S
C1451 H1474 0.950 . S
C1452 C1451 1.349 . S
C1452 C1464 1.349 . S
C1453 C1451 1.327 . S
C1453 C1469 1.429 . S
C1453 H1475 0.950 . S
C1454 H1450 0.949 . S
C1454 C1462 1.574 1_455 S
C1454 C1470 1.368 . S
H1455 C1463 0.950 . S
H1456 C1461 0.950 . S
H1457 C1462 0.949 . S
H1458 C1464 0.950 . S
H1459 C1465 0.950 . S
H1460 C1466 0.949 . S
C1461 H1456 0.950 . S
C1461 C1463 1.327 . S
C1461 C1467 1.429 . S
C1462 C1454 1.574 1_655 S
C1462 H1457 0.949 . S
C1462 C1468 1.368 . S
C1463 C1447 1.349 . S
C1463 H1455 0.950 . S
C1463 C1461 1.327 . S
C1464 C1452 1.349 . S
C1464 H1458 0.950 . S
C1464 C1465 1.327 . S
C1465 H1459 0.950 . S
C1465 C1464 1.327 . S
C1465 C1469 1.429 . S
C1466 C1449 1.574 1_455 S
C1466 H1460 0.949 . S
C1466 C1470 1.368 . S
C1467 C1448 1.429 . S
C1467 C1461 1.429 . S
C1467 C1468 1.523 . S
C1468 C1449 1.368 . S
C1468 C1462 1.368 . S
C1468 C1467 1.523 . S
C1469 C1453 1.429 . S
C1469 C1465 1.429 . S
C1469 C1470 1.523 . S
C1470 C1454 1.368 . S
C1470 C1466 1.368 . S
C1470 C1469 1.523 . S
H1471 C1446 0.950 . S
H1472 C1448 0.950 . S
H1473 C1449 0.949 . S
H1474 C1451 0.950 . S
H1475 C1453 0.950 . S
C1476 C1477 1.349 . S
C1476 C1478 1.327 . S
C1476 H1501 0.950 . S
C1477 C1476 1.349 . S
C1477 C1493 1.349 . S
C1478 C1476 1.327 . S
C1478 C1497 1.429 . S
C1478 H1502 0.950 . S
C1479 C1496 1.574 . S
C1479 C1498 1.368 . S
C1479 H1503 0.949 . S
H1480 C1484 0.949 . S
C1481 C1482 1.349 . S
C1481 C1483 1.327 . S
C1481 H1504 0.950 . S
C1482 C1481 1.349 . S
C1482 C1494 1.349 . S
C1483 C1481 1.327 . S
C1483 C1499 1.429 . S
C1483 H1505 0.950 . S
C1484 H1480 0.949 . S
C1484 C1492 1.574 . S
C1484 C1500 1.368 . S
H1485 C1493 0.950 . S
H1486 C1491 0.950 . S
H1487 C1492 0.949 . S
H1488 C1494 0.950 . S
H1489 C1495 0.950 . S
H1490 C1496 0.949 . S
C1491 H1486 0.950 . S
C1491 C1493 1.327 . S
C1491 C1497 1.429 . S
C1492 C1484 1.574 . S
C1492 H1487 0.949 . S
C1492 C1498 1.368 . S
C1493 C1477 1.349 . S
C1493 H1485 0.950 . S
C1493 C1491 1.327 . S
C1494 C1482 1.349 . S
C1494 H1488 0.950 . S
C1494 C1495 1.327 . S
C1495 H1489 0.950 . S
C1495 C1494 1.327 . S
C1495 C1499 1.429 . S
C1496 C1479 1.574 . S
C1496 H1490 0.949 . S
C1496 C1500 1.368 . S
C1497 C1478 1.429 . S
C1497 C1491 1.429 . S
C1497 C1498 1.523 . S
C1498 C1479 1.368 . S
C1498 C1492 1.368 . S
C1498 C1497 1.523 . S
C1499 C1483 1.429 . S
C1499 C1495 1.429 . S
C1499 C1500 1.523 . S
C1500 C1484 1.368 . S
C1500 C1496 1.368 . S
C1500 C1499 1.523 . S
H1501 C1476 0.950 . S
H1502 C1478 0.950 . S
H1503 C1479 0.949 . S
H1504 C1481 0.950 . S
H1505 C1483 0.950 . S
C1506 C1507 1.349 . S
C1506 C1508 1.327 . S
C1506 H1531 0.950 . S
C1507 C1506 1.349 . S
C1507 C1523 1.349 . S
C1508 C1506 1.327 . S
C1508 C1527 1.429 . S
C1508 H1532 0.950 . S
C1509 C1526 1.574 1_455 S
C1509 C1528 1.368 . S
C1509 H1533 0.949 . S
H1510 C1514 0.949 . S
C1511 C1512 1.349 . S
C1511 C1513 1.327 . S
C1511 H1534 0.950 . S
C1512 C1511 1.349 . S
C1512 C1524 1.349 . S
C1513 C1511 1.327 . S
C1513 C1529 1.429 . S
C1513 H1535 0.950 . S
C1514 H1510 0.949 . S
C1514 C1522 1.574 1_655 S
C1514 C1530 1.368 . S
H1515 C1523 0.950 . S
H1516 C1521 0.950 . S
H1517 C1522 0.949 . S
H1518 C1524 0.950 . S
H1519 C1525 0.950 . S
H1520 C1526 0.949 . S
C1521 H1516 0.950 . S
C1521 C1523 1.327 . S
C1521 C1527 1.429 . S
C1522 C1514 1.574 1_455 S
C1522 H1517 0.949 . S
C1522 C1528 1.368 . S
C1523 C1507 1.349 . S
C1523 H1515 0.950 . S
C1523 C1521 1.327 . S
C1524 C1512 1.349 . S
C1524 H1518 0.950 . S
C1524 C1525 1.327 . S
C1525 H1519 0.950 . S
C1525 C1524 1.327 . S
C1525 C1529 1.429 . S
C1526 C1509 1.574 1_655 S
C1526 H1520 0.949 . S
C1526 C1530 1.368 . S
C1527 C1508 1.429 . S
C1527 C1521 1.429 . S
C1527 C1528 1.523 . S
C1528 C1509 1.368 . S
C1528 C1522 1.368 . S
C1528 C1527 1.523 . S
C1529 C1513 1.429 . S
C1529 C1525 1.429 . S
C1529 C1530 1.523 . S
C1530 C1514 1.368 . S
C1530 C1526 1.368 . S
C1530 C1529 1.523 . S
H1531 C1506 0.950 . S
H1532 C1508 0.950 . S
H1533 C1509 0.949 . S
H1534 C1511 0.950 . S
H1535 C1513 0.950 . S
C1536 C1537 1.349 . S
C1536 C1538 1.327 . S
C1536 H1561 0.950 . S
C1537 C1536 1.349 . S
C1537 C1553 1.349 . S
C1538 C1536 1.327 . S
C1538 C1557 1.429 . S
C1538 H1562 0.950 . S
C1539 C1556 1.574 . S
C1539 C1558 1.368 . S
C1539 H1563 0.949 . S
H1540 C1544 0.949 . S
C1541 C1542 1.349 . S
C1541 C1543 1.327 . S
C1541 H1564 0.950 . S
C1542 C1541 1.349 . S
C1542 C1554 1.349 . S
C1543 C1541 1.327 . S
C1543 C1559 1.429 . S
C1543 H1565 0.950 . S
C1544 H1540 0.949 . S
C1544 C1552 1.574 . S
C1544 C1560 1.368 . S
H1545 C1553 0.950 . S
H1546 C1551 0.950 . S
H1547 C1552 0.949 . S
H1548 C1554 0.950 . S
H1549 C1555 0.950 . S
H1550 C1556 0.949 . S
C1551 H1546 0.950 . S
C1551 C1553 1.327 . S
C1551 C1557 1.429 . S
C1552 C1544 1.574 . S
C1552 H1547 0.949 . S
C1552 C1558 1.368 . S
C1553 C1537 1.349 . S
C1553 H1545 0.950 . S
C1553 C1551 1.327 . S
C1554 C1542 1.349 . S
C1554 H1548 0.950 . S
C1554 C1555 1.327 . S
C1555 H1549 0.950 . S
C1555 C1554 1.327 . S
C1555 C1559 1.429 . S
C1556 C1539 1.574 . S
C1556 H1550 0.949 . S
C1556 C1560 1.368 . S
C1557 C1538 1.429 . S
C1557 C1551 1.429 . S
C1557 C1558 1.523 . S
C1558 C1539 1.368 . S
C1558 C1552 1.368 . S
C1558 C1557 1.523 . S
C1559 C1543 1.429 . S
C1559 C1555 1.429 . S
C1559 C1560 1.523 . S
C1560 C1544 1.368 . S
C1560 C1556 1.368 . S
C1560 C1559 1.523 . S
H1561 C1536 0.950 . S
H1562 C1538 0.950 . S
H1563 C1539 0.949 . S
H1564 C1541 0.950 . S
H1565 C1543 0.950 . S
C1566 C1567 1.349 . S
C1566 C1568 1.327 . S
C1566 H1591 0.950 . S
C1567 C1566 1.349 . S
C1567 C1583 1.349 . S
C1568 C1566 1.327 . S
C1568 C1587 1.429 . S
C1568 H1592 0.950 . S
C1569 C1586 1.574 1_655 S
C1569 C1588 1.368 . S
C1569 H1593 0.949 . S
H1570 C1574 0.949 . S
C1571 C1572 1.349 . S
C1571 C1573 1.327 . S
C1571 H1594 0.950 . S
C1572 C1571 1.349 . S
C1572 C1584 1.349 . S
C1573 C1571 1.327 . S
C1573 C1589 1.429 . S
C1573 H1595 0.950 . S
C1574 H1570 0.949 . S
C1574 C1582 1.574 1_455 S
C1574 C1590 1.368 . S
H1575 C1583 0.950 . S
H1576 C1581 0.950 . S
H1577 C1582 0.949 . S
H1578 C1584 0.950 . S
H1579 C1585 0.950 . S
H1580 C1586 0.949 . S
C1581 H1576 0.950 . S
C1581 C1583 1.327 . S
C1581 C1587 1.429 . S
C1582 C1574 1.574 1_655 S
C1582 H1577 0.949 . S
C1582 C1588 1.368 . S
C1583 C1567 1.349 . S
C1583 H1575 0.950 . S
C1583 C1581 1.327 . S
C1584 C1572 1.349 . S
C1584 H1578 0.950 . S
C1584 C1585 1.327 . S
C1585 H1579 0.950 . S
C1585 C1584 1.327 . S
C1585 C1589 1.429 . S
C1586 C1569 1.574 1_455 S
C1586 H1580 0.949 . S
C1586 C1590 1.368 . S
C1587 C1568 1.429 . S
C1587 C1581 1.429 . S
C1587 C1588 1.523 . S
C1588 C1569 1.368 . S
C1588 C1582 1.368 . S
C1588 C1587 1.523 . S
C1589 C1573 1.429 . S
C1589 C1585 1.429 . S
C1589 C1590 1.523 . S
C1590 C1574 1.368 . S
C1590 C1586 1.368 . S
C1590 C1589 1.523 . S
H1591 C1566 0.950 . S
H1592 C1568 0.950 . S
H1593 C1569 0.949 . S
H1594 C1571 0.950 . S
H1595 C1573 0.950 . S
C1596 C1597 1.349 . S
C1596 C1598 1.327 . S
C1596 H1621 0.950 . S
C1597 C1596 1.349 . S
C1597 C1613 1.349 . S
C1598 C1596 1.327 . S
C1598 C1617 1.429 . S
C1598 H1622 0.950 . S
C1599 C1616 1.574 . S
C1599 C1618 1.368 . S
C1599 H1623 0.949 . S
H1600 C1604 0.949 . S
C1601 C1602 1.349 . S
C1601 C1603 1.327 . S
C1601 H1624 0.950 . S
C1602 C1601 1.349 . S
C1602 C1614 1.349 . S
C1603 C1601 1.327 . S
C1603 C1619 1.429 . S
C1603 H1625 0.950 . S
C1604 H1600 0.949 . S
C1604 C1612 1.574 . S
C1604 C1620 1.368 . S
H1605 C1613 0.950 . S
H1606 C1611 0.950 . S
H1607 C1612 0.949 . S
H1608 C1614 0.950 . S
H1609 C1615 0.950 . S
H1610 C1616 0.949 . S
C1611 H1606 0.950 . S
C1611 C1613 1.327 . S
C1611 C1617 1.429 . S
C1612 C1604 1.574 . S
C1612 H1607 0.949 . S
C1612 C1618 1.368 . S
C1613 C1597 1.349 . S
C1613 H1605 0.950 . S
C1613 C1611 1.327 . S
C1614 C1602 1.349 . S
C1614 H1608 0.950 . S
C1614 C1615 1.327 . S
C1615 H1609 0.950 . S
C1615 C1614 1.327 . S
C1615 C1619 1.429 . S
C1616 C1599 1.574 . S
C1616 H1610 0.949 . S
C1616 C1620 1.368 . S
C1617 C1598 1.429 . S
C1617 C1611 1.429 . S
C1617 C1618 1.523 . S
C1618 C1599 1.368 . S
C1618 C1612 1.368 . S
C1618 C1617 1.523 . S
C1619 C1603 1.429 . S
C1619 C1615 1.429 . S
C1619 C1620 1.523 . S
C1620 C1604 1.368 . S
C1620 C1616 1.368 . S
C1620 C1619 1.523 . S
H1621 C1596 0.950 . S
H1622 C1598 0.950 . S
H1623 C1599 0.949 . S
H1624 C1601 0.950 . S
H1625 C1603 0.950 . S
C1626 C1627 1.349 . S
C1626 C1628 1.327 . S
C1626 H1651 0.950 . S
C1627 C1626 1.349 . S
C1627 C1643 1.349 . S
C1628 C1626 1.327 . S
C1628 C1647 1.429 . S
C1628 H1652 0.950 . S
C1629 C1646 1.574 1_655 S
C1629 C1648 1.368 . S
C1629 H1653 0.949 . S
H1630 C1634 0.949 . S
C1631 C1632 1.349 . S
C1631 C1633 1.327 . S
C1631 H1654 0.950 . S
C1632 C1631 1.349 . S
C1632 C1644 1.349 . S
C1633 C1631 1.327 . S
C1633 C1649 1.429 . S
C1633 H1655 0.950 . S
C1634 H1630 0.949 . S
C1634 C1642 1.574 1_455 S
C1634 C1650 1.368 . S
H1635 C1643 0.950 . S
H1636 C1641 0.950 . S
H1637 C1642 0.949 . S
H1638 C1644 0.950 . S
H1639 C1645 0.950 . S
H1640 C1646 0.949 . S
C1641 H1636 0.950 . S
C1641 C1643 1.327 . S
C1641 C1647 1.429 . S
C1642 C1634 1.574 1_655 S
C1642 H1637 0.949 . S
C1642 C1648 1.368 . S
C1643 C1627 1.349 . S
C1643 H1635 0.950 . S
C1643 C1641 1.327 . S
C1644 C1632 1.349 . S
C1644 H1638 0.950 . S
C1644 C1645 1.327 . S
C1645 H1639 0.950 . S
C1645 C1644 1.327 . S
C1645 C1649 1.429 . S
C1646 C1629 1.574 1_455 S
C1646 H1640 0.949 . S
C1646 C1650 1.368 . S
C1647 C1628 1.429 . S
C1647 C1641 1.429 . S
C1647 C1648 1.523 . S
C1648 C1629 1.368 . S
C1648 C1642 1.368 . S
C1648 C1647 1.523 . S
C1649 C1633 1.429 . S
C1649 C1645 1.429 . S
C1649 C1650 1.523 . S
C1650 C1634 1.368 . S
C1650 C1646 1.368 . S
C1650 C1649 1.523 . S
H1651 C1626 0.950 . S
H1652 C1628 0.950 . S
H1653 C1629 0.949 . S
H1654 C1631 0.950 . S
H1655 C1633 0.950 . S
C1656 C1657 1.349 . S
C1656 C1658 1.327 . S
C1656 H1681 0.950 . S
C1657 C1656 1.349 . S
C1657 C1673 1.349 . S
C1658 C1656 1.327 . S
C1658 C1677 1.429 . S
C1658 H1682 0.950 . S
C1659 C1676 1.574 . S
C1659 C1678 1.368 . S
C1659 H1683 0.949 . S
H1660 C1664 0.949 . S
C1661 C1662 1.349 . S
C1661 C1663 1.327 . S
C1661 H1684 0.950 . S
C1662 C1661 1.349 . S
C1662 C1674 1.349 . S
C1663 C1661 1.327 . S
C1663 C1679 1.429 . S
C1663 H1685 0.950 . S
C1664 H1660 0.949 . S
C1664 C1672 1.574 . S
C1664 C1680 1.368 . S
H1665 C1673 0.950 . S
H1666 C1671 0.950 . S
H1667 C1672 0.949 . S
H1668 C1674 0.950 . S
H1669 C1675 0.950 . S
H1670 C1676 0.949 . S
C1671 H1666 0.950 . S
C1671 C1673 1.327 . S
C1671 C1677 1.429 . S
C1672 C1664 1.574 . S
C1672 H1667 0.949 . S
C1672 C1678 1.368 . S
C1673 C1657 1.349 . S
C1673 H1665 0.950 . S
C1673 C1671 1.327 . S
C1674 C1662 1.349 . S
C1674 H1668 0.950 . S
C1674 C1675 1.327 . S
C1675 H1669 0.950 . S
C1675 C1674 1.327 . S
C1675 C1679 1.429 . S
C1676 C1659 1.574 . S
C1676 H1670 0.949 . S
C1676 C1680 1.368 . S
C1677 C1658 1.429 . S
C1677 C1671 1.429 . S
C1677 C1678 1.523 . S
C1678 C1659 1.368 . S
C1678 C1672 1.368 . S
C1678 C1677 1.523 . S
C1679 C1663 1.429 . S
C1679 C1675 1.429 . S
C1679 C1680 1.523 . S
C1680 C1664 1.368 . S
C1680 C1676 1.368 . S
C1680 C1679 1.523 . S
H1681 C1656 0.950 . S
H1682 C1658 0.950 . S
H1683 C1659 0.949 . S
H1684 C1661 0.950 . S
H1685 C1663 0.950 . S
C1686 C1687 1.349 . S
C1686 C1688 1.327 . S
C1686 H1711 0.950 . S
C1687 C1686 1.349 . S
C1687 C1703 1.349 . S
C1688 C1686 1.327 . S
C1688 C1707 1.429 . S
C1688 H1712 0.950 . S
C1689 C1706 1.574 1_556 S
C1689 C1708 1.368 . S
C1689 H1713 0.949 . S
H1690 C1694 0.949 . S
C1691 C1692 1.349 . S
C1691 C1693 1.327 . S
C1691 H1714 0.950 . S
C1692 C1691 1.349 . S
C1692 C1704 1.349 . S
C1693 C1691 1.327 . S
C1693 C1709 1.429 . S
C1693 H1715 0.950 . S
C1694 H1690 0.949 . S
C1694 C1702 1.574 1_554 S
C1694 C1710 1.368 . S
H1695 C1703 0.950 . S
H1696 C1701 0.950 . S
H1697 C1702 0.949 . S
H1698 C1704 0.950 . S
H1699 C1705 0.950 . S
H1700 C1706 0.949 . S
C1701 H1696 0.950 . S
C1701 C1703 1.327 . S
C1701 C1707 1.429 . S
C1702 C1694 1.574 1_556 S
C1702 H1697 0.949 . S
C1702 C1708 1.368 . S
C1703 C1687 1.349 . S
C1703 H1695 0.950 . S
C1703 C1701 1.327 . S
C1704 C1692 1.349 . S
C1704 H1698 0.950 . S
C1704 C1705 1.327 . S
C1705 H1699 0.950 . S
C1705 C1704 1.327 . S
C1705 C1709 1.429 . S
C1706 C1689 1.574 1_554 S
C1706 H1700 0.949 . S
C1706 C1710 1.368 . S
C1707 C1688 1.429 . S
C1707 C1701 1.429 . S
C1707 C1708 1.523 . S
C1708 C1689 1.368 . S
C1708 C1702 1.368 . S
C1708 C1707 1.523 . S
C1709 C1693 1.429 . S
C1709 C1705 1.429 . S
C1709 C1710 1.523 . S
C1710 C1694 1.368 . S
C1710 C1706 1.368 . S
C1710 C1709 1.523 . S
H1711 C1686 0.950 . S
H1712 C1688 0.950 . S
H1713 C1689 0.949 . S
H1714 C1691 0.950 . S
H1715 C1693 0.950 . S
C1716 C1717 1.349 . S
C1716 C1718 1.327 . S
C1716 H1741 0.950 . S
C1717 C1716 1.349 . S
C1717 C1733 1.349 . S
C1718 C1716 1.327 . S
C1718 C1737 1.429 . S
C1718 H1742 0.950 . S
C1719 C1736 1.574 . S
C1719 C1738 1.368 . S
C1719 H1743 0.949 . S
H1720 C1724 0.949 . S
C1721 C1722 1.349 . S
C1721 C1723 1.327 . S
C1721 H1744 0.950 . S
C1722 C1721 1.349 . S
C1722 C1734 1.349 . S
C1723 C1721 1.327 . S
C1723 C1739 1.429 . S
C1723 H1745 0.950 . S
C1724 H1720 0.949 . S
C1724 C1732 1.574 . S
C1724 C1740 1.368 . S
H1725 C1733 0.950 . S
H1726 C1731 0.950 . S
H1727 C1732 0.949 . S
H1728 C1734 0.950 . S
H1729 C1735 0.950 . S
H1730 C1736 0.949 . S
C1731 H1726 0.950 . S
C1731 C1733 1.327 . S
C1731 C1737 1.429 . S
C1732 C1724 1.574 . S
C1732 H1727 0.949 . S
C1732 C1738 1.368 . S
C1733 C1717 1.349 . S
C1733 H1725 0.950 . S
C1733 C1731 1.327 . S
C1734 C1722 1.349 . S
C1734 H1728 0.950 . S
C1734 C1735 1.327 . S
C1735 H1729 0.950 . S
C1735 C1734 1.327 . S
C1735 C1739 1.429 . S
C1736 C1719 1.574 . S
C1736 H1730 0.949 . S
C1736 C1740 1.368 . S
C1737 C1718 1.429 . S
C1737 C1731 1.429 . S
C1737 C1738 1.523 . S
C1738 C1719 1.368 . S
C1738 C1732 1.368 . S
C1738 C1737 1.523 . S
C1739 C1723 1.429 . S
C1739 C1735 1.429 . S
C1739 C1740 1.523 . S
C1740 C1724 1.368 . S
C1740 C1736 1.368 . S
C1740 C1739 1.523 . S
H1741 C1716 0.950 . S
H1742 C1718 0.950 . S
H1743 C1719 0.949 . S
H1744 C1721 0.950 . S
H1745 C1723 0.950 . S
C1746 C1747 1.349 . S
C1746 C1748 1.327 . S
C1746 H1771 0.950 . S
C1747 C1746 1.349 . S
C1747 C1763 1.349 . S
C1748 C1746 1.327 . S
C1748 C1767 1.429 . S
C1748 H1772 0.950 . S
C1749 C1766 1.574 1_554 S
C1749 C1768 1.368 . S
C1749 H1773 0.949 . S
H1750 C1754 0.949 . S
C1751 C1752 1.349 . S
C1751 C1753 1.327 . S
C1751 H1774 0.950 . S
C1752 C1751 1.349 . S
C1752 C1764 1.349 . S
C1753 C1751 1.327 . S
C1753 C1769 1.429 . S
C1753 H1775 0.950 . S
C1754 H1750 0.949 . S
C1754 C1762 1.574 1_556 S
C1754 C1770 1.368 . S
H1755 C1763 0.950 . S
H1756 C1761 0.950 . S
H1757 C1762 0.949 . S
H1758 C1764 0.950 . S
H1759 C1765 0.950 . S
H1760 C1766 0.949 . S
C1761 H1756 0.950 . S
C1761 C1763 1.327 . S
C1761 C1767 1.429 . S
C1762 C1754 1.574 1_554 S
C1762 H1757 0.949 . S
C1762 C1768 1.368 . S
C1763 C1747 1.349 . S
C1763 H1755 0.950 . S
C1763 C1761 1.327 . S
C1764 C1752 1.349 . S
C1764 H1758 0.950 . S
C1764 C1765 1.327 . S
C1765 H1759 0.950 . S
C1765 C1764 1.327 . S
C1765 C1769 1.429 . S
C1766 C1749 1.574 1_556 S
C1766 H1760 0.949 . S
C1766 C1770 1.368 . S
C1767 C1748 1.429 . S
C1767 C1761 1.429 . S
C1767 C1768 1.523 . S
C1768 C1749 1.368 . S
C1768 C1762 1.368 . S
C1768 C1767 1.523 . S
C1769 C1753 1.429 . S
C1769 C1765 1.429 . S
C1769 C1770 1.523 . S
C1770 C1754 1.368 . S
C1770 C1766 1.368 . S
C1770 C1769 1.523 . S
H1771 C1746 0.950 . S
H1772 C1748 0.950 . S
H1773 C1749 0.949 . S
H1774 C1751 0.950 . S
H1775 C1753 0.950 . S
C1776 C1777 1.349 . S
C1776 C1778 1.327 . S
C1776 H1801 0.950 . S
C1777 C1776 1.349 . S
C1777 C1793 1.349 . S
C1778 C1776 1.327 . S
C1778 C1797 1.429 . S
C1778 H1802 0.950 . S
C1779 C1796 1.574 . S
C1779 C1798 1.368 . S
C1779 H1803 0.949 . S
H1780 C1784 0.949 . S
C1781 C1782 1.349 . S
C1781 C1783 1.327 . S
C1781 H1804 0.950 . S
C1782 C1781 1.349 . S
C1782 C1794 1.349 . S
C1783 C1781 1.327 . S
C1783 C1799 1.429 . S
C1783 H1805 0.950 . S
C1784 H1780 0.949 . S
C1784 C1792 1.574 . S
C1784 C1800 1.368 . S
H1785 C1793 0.950 . S
H1786 C1791 0.950 . S
H1787 C1792 0.949 . S
H1788 C1794 0.950 . S
H1789 C1795 0.950 . S
H1790 C1796 0.949 . S
C1791 H1786 0.950 . S
C1791 C1793 1.327 . S
C1791 C1797 1.429 . S
C1792 C1784 1.574 . S
C1792 H1787 0.949 . S
C1792 C1798 1.368 . S
C1793 C1777 1.349 . S
C1793 H1785 0.950 . S
C1793 C1791 1.327 . S
C1794 C1782 1.349 . S
C1794 H1788 0.950 . S
C1794 C1795 1.327 . S
C1795 H1789 0.950 . S
C1795 C1794 1.327 . S
C1795 C1799 1.429 . S
C1796 C1779 1.574 . S
C1796 H1790 0.949 . S
C1796 C1800 1.368 . S
C1797 C1778 1.429 . S
C1797 C1791 1.429 . S
C1797 C1798 1.523 . S
C1798 C1779 1.368 . S
C1798 C1792 1.368 . S
C1798 C1797 1.523 . S
C1799 C1783 1.429 . S
C1799 C1795 1.429 . S
C1799 C1800 1.523 . S
C1800 C1784 1.368 . S
C1800 C1796 1.368 . S
C1800 C1799 1.523 . S
H1801 C1776 0.950 . S
H1802 C1778 0.950 . S
H1803 C1779 0.949 . S
H1804 C1781 0.950 . S
H1805 C1783 0.950 . S
C1806 C1807 1.349 . S
C1806 C1808 1.327 . S
C1806 H1831 0.950 . S
C1807 C1806 1.349 . S
C1807 C1823 1.349 . S
C1808 C1806 1.327 . S
C1808 C1827 1.429 . S
C1808 H1832 0.950 . S
C1809 C1826 1.574 1_554 S
C1809 C1828 1.368 . S
C1809 H1833 0.949 . S
H1810 C1814 0.949 . S
C1811 C1812 1.349 . S
C1811 C1813 1.327 . S
C1811 H1834 0.950 . S
C1812 C1811 1.349 . S
C1812 C1824 1.349 . S
C1813 C1811 1.327 . S
C1813 C1829 1.429 . S
C1813 H1835 0.950 . S
C1814 H1810 0.949 . S
C1814 C1822 1.574 1_556 S
C1814 C1830 1.368 . S
H1815 C1823 0.950 . S
H1816 C1821 0.950 . S
H1817 C1822 0.949 . S
H1818 C1824 0.950 . S
H1819 C1825 0.950 . S
H1820 C1826 0.949 . S
C1821 H1816 0.950 . S
C1821 C1823 1.327 . S
C1821 C1827 1.429 . S
C1822 C1814 1.574 1_554 S
C1822 H1817 0.949 . S
C1822 C1828 1.368 . S
C1823 C1807 1.349 . S
C1823 H1815 0.950 . S
C1823 C1821 1.327 . S
C1824 C1812 1.349 . S
C1824 H1818 0.950 . S
C1824 C1825 1.327 . S
C1825 H1819 0.950 . S
C1825 C1824 1.327 . S
C1825 C1829 1.429 . S
C1826 C1809 1.574 1_556 S
C1826 H1820 0.949 . S
C1826 C1830 1.368 . S
C1827 C1808 1.429 . S
C1827 C1821 1.429 . S
C1827 C1828 1.523 . S
C1828 C1809 1.368 . S
C1828 C1822 1.368 . S
C1828 C1827 1.523 . S
C1829 C1813 1.429 . S
C1829 C1825 1.429 . S
C1829 C1830 1.523 . S
C1830 C1814 1.368 . S
C1830 C1826 1.368 . S
C1830 C1829 1.523 . S
H1831 C1806 0.950 . S
H1832 C1808 0.950 . S
H1833 C1809 0.949 . S
H1834 C1811 0.950 . S
H1835 C1813 0.950 . S
C1836 C1837 1.349 . S
C1836 C1838 1.327 . S
C1836 H1861 0.950 . S
C1837 C1836 1.349 . S
C1837 C1853 1.349 . S
C1838 C1836 1.327 . S
C1838 C1857 1.429 . S
C1838 H1862 0.950 . S
C1839 C1856 1.574 . S
C1839 C1858 1.368 . S
C1839 H1863 0.949 . S
H1840 C1844 0.949 . S
C1841 C1842 1.349 . S
C1841 C1843 1.327 . S
C1841 H1864 0.950 . S
C1842 C1841 1.349 . S
C1842 C1854 1.349 . S
C1843 C1841 1.327 . S
C1843 C1859 1.429 . S
C1843 H1865 0.950 . S
C1844 H1840 0.949 . S
C1844 C1852 1.574 . S
C1844 C1860 1.368 . S
H1845 C1853 0.950 . S
H1846 C1851 0.950 . S
H1847 C1852 0.949 . S
H1848 C1854 0.950 . S
H1849 C1855 0.950 . S
H1850 C1856 0.949 . S
C1851 H1846 0.950 . S
C1851 C1853 1.327 . S
C1851 C1857 1.429 . S
C1852 C1844 1.574 . S
C1852 H1847 0.949 . S
C1852 C1858 1.368 . S
C1853 C1837 1.349 . S
C1853 H1845 0.950 . S
C1853 C1851 1.327 . S
C1854 C1842 1.349 . S
C1854 H1848 0.950 . S
C1854 C1855 1.327 . S
C1855 H1849 0.950 . S
C1855 C1854 1.327 . S
C1855 C1859 1.429 . S
C1856 C1839 1.574 . S
C1856 H1850 0.949 . S
C1856 C1860 1.368 . S
C1857 C1838 1.429 . S
C1857 C1851 1.429 . S
C1857 C1858 1.523 . S
C1858 C1839 1.368 . S
C1858 C1852 1.368 . S
C1858 C1857 1.523 . S
C1859 C1843 1.429 . S
C1859 C1855 1.429 . S
C1859 C1860 1.523 . S
C1860 C1844 1.368 . S
C1860 C1856 1.368 . S
C1860 C1859 1.523 . S
H1861 C1836 0.950 . S
H1862 C1838 0.950 . S
H1863 C1839 0.949 . S
H1864 C1841 0.950 . S
H1865 C1843 0.950 . S
C1866 C1867 1.349 . S
C1866 C1868 1.327 . S
C1866 H1891 0.950 . S
C1867 C1866 1.349 . S
C1867 C1883 1.349 . S
C1868 C1866 1.327 . S
C1868 C1887 1.429 . S
C1868 H1892 0.950 . S
C1869 C1886 1.574 1_554 S
C1869 C1888 1.368 . S
C1869 H1893 0.949 . S
H1870 C1874 0.949 . S
C1871 C1872 1.349 . S
C1871 C1873 1.327 . S
C1871 H1894 0.950 . S
C1872 C1871 1.349 . S
C1872 C1884 1.349 . S
C1873 C1871 1.327 . S
C1873 C1889 1.429 . S
C1873 H1895 0.950 . S
C1874 H1870 0.949 . S
C1874 C1882 1.574 1_556 S
C1874 C1890 1.368 . S
H1875 C1883 0.950 . S
H1876 C1881 0.950 . S
H1877 C1882 0.949 . S
H1878 C1884 0.950 . S
H1879 C1885 0.950 . S
H1880 C1886 0.949 . S
C1881 H1876 0.950 . S
C1881 C1883 1.327 . S
C1881 C1887 1.429 . S
C1882 C1874 1.574 1_554 S
C1882 H1877 0.949 . S
C1882 C1888 1.368 . S
C1883 C1867 1.349 . S
C1883 H1875 0.950 . S
C1883 C1881 1.327 . S
C1884 C1872 1.349 . S
C1884 H1878 0.950 . S
C1884 C1885 1.327 . S
C1885 H1879 0.950 . S
C1885 C1884 1.327 . S
C1885 C1889 1.429 . S
C1886 C1869 1.574 1_556 S
C1886 H1880 0.949 . S
C1886 C1890 1.368 . S
C1887 C1868 1.429 . S
C1887 C1881 1.429 . S
C1887 C1888 1.523 . S
C1888 C1869 1.368 . S
C1888 C1882 1.368 . S
C1888 C1887 1.523 . S
C1889 C1873 1.429 . S
C1889 C1885 1.429 . S
C1889 C1890 1.523 . S
C1890 C1874 1.368 . S
C1890 C1886 1.368 . S
C1890 C1889 1.523 . S
H1891 C1866 0.950 . S
H1892 C1868 0.950 . S
H1893 C1869 0.949 . S
H1894 C1871 0.950 . S
H1895 C1873 0.950 . S
C1896 C1897 1.349 . S
C1896 C1898 1.327 . S
C1896 H1921 0.950 . S
C1897 C1896 1.349 . S
C1897 C1913 1.349 . S
C1898 C1896 1.327 . S
C1898 C1917 1.429 . S
C1898 H1922 0.950 . S
C1899 C1916 1.574 . S
C1899 C1918 1.368 . S
C1899 H1923 0.949 . S
H1900 C1904 0.949 . S
C1901 C1902 1.349 . S
C1901 C1903 1.327 . S
C1901 H1924 0.950 . S
C1902 C1901 1.349 . S
C1902 C1914 1.349 . S
C1903 C1901 1.327 . S
C1903 C1919 1.429 . S
C1903 H1925 0.950 . S
C1904 H1900 0.949 . S
C1904 C1912 1.574 . S
C1904 C1920 1.368 . S
H1905 C1913 0.950 . S
H1906 C1911 0.950 . S
H1907 C1912 0.949 . S
H1908 C1914 0.950 . S
H1909 C1915 0.950 . S
H1910 C1916 0.949 . S
C1911 H1906 0.950 . S
C1911 C1913 1.327 . S
C1911 C1917 1.429 . S
C1912 C1904 1.574 . S
C1912 H1907 0.949 . S
C1912 C1918 1.368 . S
C1913 C1897 1.349 . S
C1913 H1905 0.950 . S
C1913 C1911 1.327 . S
C1914 C1902 1.349 . S
C1914 H1908 0.950 . S
C1914 C1915 1.327 . S
C1915 H1909 0.950 . S
C1915 C1914 1.327 . S
C1915 C1919 1.429 . S
C1916 C1899 1.574 . S
C1916 H1910 0.949 . S
C1916 C1920 1.368 . S
C1917 C1898 1.429 . S
C1917 C1911 1.429 . S
C1917 C1918 1.523 . S
C1918 C1899 1.368 . S
C1918 C1912 1.368 . S
C1918 C1917 1.523 . S
C1919 C1903 1.429 . S
C1919 C1915 1.429 . S
C1919 C1920 1.523 . S
C1920 C1904 1.368 . S
C1920 C1916 1.368 . S
C1920 C1919 1.523 . S
H1921 C1896 0.950 . S
H1922 C1898 0.950 . S
H1923 C1899 0.949 . S
H1924 C1901 0.950 . S
H1925 C1903 0.950 . S
C1926 C1927 1.349 . S
C1926 C1928 1.327 . S
C1926 H1951 0.950 . S
C1927 C1926 1.349 . S
C1927 C1943 1.349 . S
C1928 C1926 1.327 . S
C1928 C1947 1.429 . S
C1928 H1952 0.950 . S
C1929 C1946 1.574 . S
C1929 C1948 1.368 . S
C1929 H1953 0.949 . S
H1930 C1934 0.949 . S
C1931 C1932 1.349 . S
C1931 C1933 1.327 . S
C1931 H1954 0.950 . S
C1932 C1931 1.349 . S
C1932 C1944 1.349 . S
C1933 C1931 1.327 . S
C1933 C1949 1.429 . S
C1933 H1955 0.950 . S
C1934 H1930 0.949 . S
C1934 C1942 1.574 . S
C1934 C1950 1.368 . S
H1935 C1943 0.950 . S
H1936 C1941 0.950 . S
H1937 C1942 0.949 . S
H1938 C1944 0.950 . S
H1939 C1945 0.950 . S
H1940 C1946 0.949 . S
C1941 H1936 0.950 . S
C1941 C1943 1.327 . S
C1941 C1947 1.429 . S
C1942 C1934 1.574 . S
C1942 H1937 0.949 . S
C1942 C1948 1.368 . S
C1943 C1927 1.349 . S
C1943 H1935 0.950 . S
C1943 C1941 1.327 . S
C1944 C1932 1.349 . S
C1944 H1938 0.950 . S
C1944 C1945 1.327 . S
C1945 H1939 0.950 . S
C1945 C1944 1.327 . S
C1945 C1949 1.429 . S
C1946 C1929 1.574 . S
C1946 H1940 0.949 . S
C1946 C1950 1.368 . S
C1947 C1928 1.429 . S
C1947 C1941 1.429 . S
C1947 C1948 1.523 . S
C1948 C1929 1.368 . S
C1948 C1942 1.368 . S
C1948 C1947 1.523 . S
C1949 C1933 1.429 . S
C1949 C1945 1.429 . S
C1949 C1950 1.523 . S
C1950 C1934 1.368 . S
C1950 C1946 1.368 . S
C1950 C1949 1.523 . S
H1951 C1926 0.950 . S
H1952 C1928 0.950 . S
H1953 C1929 0.949 . S
H1954 C1931 0.950 . S
H1955 C1933 0.950 . S
C1956 C1957 1.349 . S
C1956 C1958 1.327 . S
C1956 H1981 0.950 . S
C1957 C1956 1.349 . S
C1957 C1973 1.349 . S
C1958 C1956 1.327 . S
C1958 C1977 1.429 . S
C1958 H1982 0.950 . S
C1959 C1976 1.574 1_565 S
C1959 C1978 1.368 . S
C1959 H1983 0.949 . S
H1960 C1964 0.949 . S
C1961 C1962 1.349 . S
C1961 C1963 1.327 . S
C1961 H1984 0.950 . S
C1962 C1961 1.349 . S
C1962 C1974 1.349 . S
C1963 C1961 1.327 . S
C1963 C1979 1.429 . S
C1963 H1985 0.950 . S
C1964 H1960 0.949 . S
C1964 C1972 1.574 1_545 S
C1964 C1980 1.368 . S
H1965 C1973 0.950 . S
H1966 C1971 0.950 . S
H1967 C1972 0.949 . S
H1968 C1974 0.950 . S
H1969 C1975 0.950 . S
H1970 C1976 0.949 . S
C1971 H1966 0.950 . S
C1971 C1973 1.327 . S
C1971 C1977 1.429 . S
C1972 C1964 1.574 1_565 S
C1972 H1967 0.949 . S
C1972 C1978 1.368 . S
C1973 C1957 1.349 . S
C1973 H1965 0.950 . S
C1973 C1971 1.327 . S
C1974 C1962 1.349 . S
C1974 H1968 0.950 . S
C1974 C1975 1.327 . S
C1975 H1969 0.950 . S
C1975 C1974 1.327 . S
C1975 C1979 1.429 . S
C1976 C1959 1.574 1_545 S
C1976 H1970 0.949 . S
C1976 C1980 1.368 . S
C1977 C1958 1.429 . S
C1977 C1971 1.429 . S
C1977 C1978 1.523 . S
C1978 C1959 1.368 . S
C1978 C1972 1.368 . S
C1978 C1977 1.523 . S
C1979 C1963 1.429 . S
C1979 C1975 1.429 . S
C1979 C1980 1.523 . S
C1980 C1964 1.368 . S
C1980 C1976 1.368 . S
C1980 C1979 1.523 . S
H1981 C1956 0.950 . S
H1982 C1958 0.950 . S
H1983 C1959 0.949 . S
H1984 C1961 0.950 . S
H1985 C1963 0.950 . S
C1986 C1987 1.349 . S
C1986 C1988 1.327 . S
C1986 H2011 0.950 . S
C1987 C1986 1.349 . S
C1987 C2003 1.349 . S
C1988 C1986 1.327 . S
C1988 C2007 1.429 . S
C1988 H2012 0.950 . S
C1989 C2006 1.574 . S
C1989 C2008 1.368 . S
C1989 H2013 0.949 . S
H1990 C1994 0.949 . S
C1991 C1992 1.349 . S
C1991 C1993 1.327 . S
C1991 H2014 0.950 . S
C1992 C1991 1.349 . S
C1992 C2004 1.349 . S
C1993 C1991 1.327 . S
C1993 C2009 1.429 . S
C1993 H2015 0.950 . S
C1994 H1990 0.949 . S
C1994 C2002 1.574 . S
C1994 C2010 1.368 . S
H1995 C2003 0.950 . S
H1996 C2001 0.950 . S
H1997 C2002 0.949 . S
H1998 C2004 0.950 . S
H1999 C2005 0.950 . S
H2000 C2006 0.949 . S
C2001 H1996 0.950 . S
C2001 C2003 1.327 . S
C2001 C2007 1.429 . S
C2002 C1994 1.574 . S
C2002 H1997 0.949 . S
C2002 C2008 1.368 . S
C2003 C1987 1.349 . S
C2003 H1995 0.950 . S
C2003 C2001 1.327 . S
C2004 C1992 1.349 . S
C2004 H1998 0.950 . S
C2004 C2005 1.327 . S
C2005 H1999 0.950 . S
C2005 C2004 1.327 . S
C2005 C2009 1.429 . S
C2006 C1989 1.574 . S
C2006 H2000 0.949 . S
C2006 C2010 1.368 . S
C2007 C1988 1.429 . S
C2007 C2001 1.429 . S
C2007 C2008 1.523 . S
C2008 C1989 1.368 . S
C2008 C2002 1.368 . S
C2008 C2007 1.523 . S
C2009 C1993 1.429 . S
C2009 C2005 1.429 . S
C2009 C2010 1.523 . S
C2010 C1994 1.368 . S
C2010 C2006 1.368 . S
C2010 C2009 1.523 . S
H2011 C1986 0.950 . S
H2012 C1988 0.950 . S
H2013 C1989 0.949 . S
H2014 C1991 0.950 . S
H2015 C1993 0.950 . S
C2016 C2017 1.349 . S
C2016 C2018 1.327 . S
C2016 H2041 0.950 . S
C2017 C2016 1.349 . S
C2017 C2033 1.349 . S
C2018 C2016 1.327 . S
C2018 C2037 1.429 . S
C2018 H2042 0.950 . S
C2019 C2036 1.574 1_565 S
C2019 C2038 1.368 . S
C2019 H2043 0.949 . S
H2020 C2024 0.949 . S
C2021 C2022 1.349 . S
C2021 C2023 1.327 . S
C2021 H2044 0.950 . S
C2022 C2021 1.349 . S
C2022 C2034 1.349 . S
C2023 C2021 1.327 . S
C2023 C2039 1.429 . S
C2023 H2045 0.950 . S
C2024 H2020 0.949 . S
C2024 C2032 1.574 1_545 S
C2024 C2040 1.368 . S
H2025 C2033 0.950 . S
H2026 C2031 0.950 . S
H2027 C2032 0.949 . S
H2028 C2034 0.950 . S
H2029 C2035 0.950 . S
H2030 C2036 0.949 . S
C2031 H2026 0.950 . S
C2031 C2033 1.327 . S
C2031 C2037 1.429 . S
C2032 C2024 1.574 1_565 S
C2032 H2027 0.949 . S
C2032 C2038 1.368 . S
C2033 C2017 1.349 . S
C2033 H2025 0.950 . S
C2033 C2031 1.327 . S
C2034 C2022 1.349 . S
C2034 H2028 0.950 . S
C2034 C2035 1.327 . S
C2035 H2029 0.950 . S
C2035 C2034 1.327 . S
C2035 C2039 1.429 . S
C2036 C2019 1.574 1_545 S
C2036 H2030 0.949 . S
C2036 C2040 1.368 . S
C2037 C2018 1.429 . S
C2037 C2031 1.429 . S
C2037 C2038 1.523 . S
C2038 C2019 1.368 . S
C2038 C2032 1.368 . S
C2038 C2037 1.523 . S
C2039 C2023 1.429 . S
C2039 C2035 1.429 . S
C2039 C2040 1.523 . S
C2040 C2024 1.368 . S
C2040 C2036 1.368 . S
C2040 C2039 1.523 . S
H2041 C2016 0.950 . S
H2042 C2018 0.950 . S
H2043 C2019 0.949 . S
H2044 C2021 0.950 . S
H2045 C2023 0.950 . S
C2046 C2047 1.349 . S
C2046 C2048 1.327 . S
C2046 H2071 0.950 . S
C2047 C2046 1.349 . S
C2047 C2063 1.349 . S
C2048 C2046 1.327 . S
C2048 C2067 1.429 . S
C2048 H2072 0.950 . S
C2049 C2066 1.574 . S
C2049 C2068 1.368 . S
C2049 H2073 0.949 . S
H2050 C2054 0.949 . S
C2051 C2052 1.349 . S
C2051 C2053 1.327 . S
C2051 H2074 0.950 . S
C2052 C2051 1.349 . S
C2052 C2064 1.349 . S
C2053 C2051 1.327 . S
C2053 C2069 1.429 . S
C2053 H2075 0.950 . S
C2054 H2050 0.949 . S
C2054 C2062 1.574 . S
C2054 C2070 1.368 . S
H2055 C2063 0.950 . S
H2056 C2061 0.950 . S
H2057 C2062 0.949 . S
H2058 C2064 0.950 . S
H2059 C2065 0.950 . S
H2060 C2066 0.949 . S
C2061 H2056 0.950 . S
C2061 C2063 1.327 . S
C2061 C2067 1.429 . S
C2062 C2054 1.574 . S
C2062 H2057 0.949 . S
C2062 C2068 1.368 . S
C2063 C2047 1.349 . S
C2063 H2055 0.950 . S
C2063 C2061 1.327 . S
C2064 C2052 1.349 . S
C2064 H2058 0.950 . S
C2064 C2065 1.327 . S
C2065 H2059 0.950 . S
C2065 C2064 1.327 . S
C2065 C2069 1.429 . S
C2066 C2049 1.574 . S
C2066 H2060 0.949 . S
C2066 C2070 1.368 . S
C2067 C2048 1.429 . S
C2067 C2061 1.429 . S
C2067 C2068 1.523 . S
C2068 C2049 1.368 . S
C2068 C2062 1.368 . S
C2068 C2067 1.523 . S
C2069 C2053 1.429 . S
C2069 C2065 1.429 . S
C2069 C2070 1.523 . S
C2070 C2054 1.368 . S
C2070 C2066 1.368 . S
C2070 C2069 1.523 . S
H2071 C2046 0.950 . S
H2072 C2048 0.950 . S
H2073 C2049 0.949 . S
H2074 C2051 0.950 . S
H2075 C2053 0.950 . S
C2076 C2077 1.349 . S
C2076 C2078 1.327 . S
C2076 H2101 0.950 . S
C2077 C2076 1.349 . S
C2077 C2093 1.349 . S
C2078 C2076 1.327 . S
C2078 C2097 1.429 . S
C2078 H2102 0.950 . S
C2079 C2096 1.574 1_565 S
C2079 C2098 1.368 . S
C2079 H2103 0.949 . S
H2080 C2084 0.949 . S
C2081 C2082 1.349 . S
C2081 C2083 1.327 . S
C2081 H2104 0.950 . S
C2082 C2081 1.349 . S
C2082 C2094 1.349 . S
C2083 C2081 1.327 . S
C2083 C2099 1.429 . S
C2083 H2105 0.950 . S
C2084 H2080 0.949 . S
C2084 C2092 1.574 1_545 S
C2084 C2100 1.368 . S
H2085 C2093 0.950 . S
H2086 C2091 0.950 . S
H2087 C2092 0.949 . S
H2088 C2094 0.950 . S
H2089 C2095 0.950 . S
H2090 C2096 0.949 . S
C2091 H2086 0.950 . S
C2091 C2093 1.327 . S
C2091 C2097 1.429 . S
C2092 C2084 1.574 1_565 S
C2092 H2087 0.949 . S
C2092 C2098 1.368 . S
C2093 C2077 1.349 . S
C2093 H2085 0.950 . S
C2093 C2091 1.327 . S
C2094 C2082 1.349 . S
C2094 H2088 0.950 . S
C2094 C2095 1.327 . S
C2095 H2089 0.950 . S
C2095 C2094 1.327 . S
C2095 C2099 1.429 . S
C2096 C2079 1.574 1_545 S
C2096 H2090 0.949 . S
C2096 C2100 1.368 . S
C2097 C2078 1.429 . S
C2097 C2091 1.429 . S
C2097 C2098 1.523 . S
C2098 C2079 1.368 . S
C2098 C2092 1.368 . S
C2098 C2097 1.523 . S
C2099 C2083 1.429 . S
C2099 C2095 1.429 . S
C2099 C2100 1.523 . S
C2100 C2084 1.368 . S
C2100 C2096 1.368 . S
C2100 C2099 1.523 . S
H2101 C2076 0.950 . S
H2102 C2078 0.950 . S
H2103 C2079 0.949 . S
H2104 C2081 0.950 . S
H2105 C2083 0.950 . S
C2106 C2107 1.349 . S
C2106 C2108 1.327 . S
C2106 H2131 0.950 . S
C2107 C2106 1.349 . S
C2107 C2123 1.349 . S
C2108 C2106 1.327 . S
C2108 C2127 1.429 . S
C2108 H2132 0.950 . S
C2109 C2126 1.574 1_545 S
C2109 C2128 1.368 . S
C2109 H2133 0.949 . S
H2110 C2114 0.949 . S
C2111 C2112 1.349 . S
C2111 C2113 1.327 . S
C2111 H2134 0.950 . S
C2112 C2111 1.349 . S
C2112 C2124 1.349 . S
C2113 C2111 1.327 . S
C2113 C2129 1.429 . S
C2113 H2135 0.950 . S
C2114 H2110 0.949 . S
C2114 C2122 1.574 1_565 S
C2114 C2130 1.368 . S
H2115 C2123 0.950 . S
H2116 C2121 0.950 . S
H2117 C2122 0.949 . S
H2118 C2124 0.950 . S
H2119 C2125 0.950 . S
H2120 C2126 0.949 . S
C2121 H2116 0.950 . S
C2121 C2123 1.327 . S
C2121 C2127 1.429 . S
C2122 C2114 1.574 1_545 S
C2122 H2117 0.949 . S
C2122 C2128 1.368 . S
C2123 C2107 1.349 . S
C2123 H2115 0.950 . S
C2123 C2121 1.327 . S
C2124 C2112 1.349 . S
C2124 H2118 0.950 . S
C2124 C2125 1.327 . S
C2125 H2119 0.950 . S
C2125 C2124 1.327 . S
C2125 C2129 1.429 . S
C2126 C2109 1.574 1_565 S
C2126 H2120 0.949 . S
C2126 C2130 1.368 . S
C2127 C2108 1.429 . S
C2127 C2121 1.429 . S
C2127 C2128 1.523 . S
C2128 C2109 1.368 . S
C2128 C2122 1.368 . S
C2128 C2127 1.523 . S
C2129 C2113 1.429 . S
C2129 C2125 1.429 . S
C2129 C2130 1.523 . S
C2130 C2114 1.368 . S
C2130 C2126 1.368 . S
C2130 C2129 1.523 . S
H2131 C2106 0.950 . S
H2132 C2108 0.950 . S
H2133 C2109 0.949 . S
H2134 C2111 0.950 . S
H2135 C2113 0.950 . S
C2136 C2137 1.349 . S
C2136 C2138 1.327 . S
C2136 H2161 0.950 . S
C2137 C2136 1.349 . S
C2137 C2153 1.349 . S
C2138 C2136 1.327 . S
C2138 C2157 1.429 . S
C2138 H2162 0.950 . S
C2139 C2156 1.574 . S
C2139 C2158 1.368 . S
C2139 H2163 0.949 . S
H2140 C2144 0.949 . S
C2141 C2142 1.349 . S
C2141 C2143 1.327 . S
C2141 H2164 0.950 . S
C2142 C2141 1.349 . S
C2142 C2154 1.349 . S
C2143 C2141 1.327 . S
C2143 C2159 1.429 . S
C2143 H2165 0.950 . S
C2144 H2140 0.949 . S
C2144 C2152 1.574 . S
C2144 C2160 1.368 . S
H2145 C2153 0.950 . S
H2146 C2151 0.950 . S
H2147 C2152 0.949 . S
H2148 C2154 0.950 . S
H2149 C2155 0.950 . S
H2150 C2156 0.949 . S
C2151 H2146 0.950 . S
C2151 C2153 1.327 . S
C2151 C2157 1.429 . S
C2152 C2144 1.574 . S
C2152 H2147 0.949 . S
C2152 C2158 1.368 . S
C2153 C2137 1.349 . S
C2153 H2145 0.950 . S
C2153 C2151 1.327 . S
C2154 C2142 1.349 . S
C2154 H2148 0.950 . S
C2154 C2155 1.327 . S
C2155 H2149 0.950 . S
C2155 C2154 1.327 . S
C2155 C2159 1.429 . S
C2156 C2139 1.574 . S
C2156 H2150 0.949 . S
C2156 C2160 1.368 . S
C2157 C2138 1.429 . S
C2157 C2151 1.429 . S
C2157 C2158 1.523 . S
C2158 C2139 1.368 . S
C2158 C2152 1.368 . S
C2158 C2157 1.523 . S
C2159 C2143 1.429 . S
C2159 C2155 1.429 . S
C2159 C2160 1.523 . S
C2160 C2144 1.368 . S
C2160 C2156 1.368 . S
C2160 C2159 1.523 . S
H2161 C2136 0.950 . S
H2162 C2138 0.950 . S
H2163 C2139 0.949 . S
H2164 C2141 0.950 . S
H2165 C2143 0.950 . S
C2166 C2167 1.349 . S
C2166 C2168 1.327 . S
C2166 H2191 0.950 . S
C2167 C2166 1.349 . S
C2167 C2183 1.349 . S
C2168 C2166 1.327 . S
C2168 C2187 1.429 . S
C2168 H2192 0.950 . S
C2169 C2186 1.574 . S
C2169 C2188 1.368 . S
C2169 H2193 0.949 . S
H2170 C2174 0.949 . S
C2171 C2172 1.349 . S
C2171 C2173 1.327 . S
C2171 H2194 0.950 . S
C2172 C2171 1.349 . S
C2172 C2184 1.349 . S
C2173 C2171 1.327 . S
C2173 C2189 1.429 . S
C2173 H2195 0.950 . S
C2174 H2170 0.949 . S
C2174 C2182 1.574 . S
C2174 C2190 1.368 . S
H2175 C2183 0.950 . S
H2176 C2181 0.950 . S
H2177 C2182 0.949 . S
H2178 C2184 0.950 . S
H2179 C2185 0.950 . S
H2180 C2186 0.949 . S
C2181 H2176 0.950 . S
C2181 C2183 1.327 . S
C2181 C2187 1.429 . S
C2182 C2174 1.574 . S
C2182 H2177 0.949 . S
C2182 C2188 1.368 . S
C2183 C2167 1.349 . S
C2183 H2175 0.950 . S
C2183 C2181 1.327 . S
C2184 C2172 1.349 . S
C2184 H2178 0.950 . S
C2184 C2185 1.327 . S
C2185 H2179 0.950 . S
C2185 C2184 1.327 . S
C2185 C2189 1.429 . S
C2186 C2169 1.574 . S
C2186 H2180 0.949 . S
C2186 C2190 1.368 . S
C2187 C2168 1.429 . S
C2187 C2181 1.429 . S
C2187 C2188 1.523 . S
C2188 C2169 1.368 . S
C2188 C2182 1.368 . S
C2188 C2187 1.523 . S
C2189 C2173 1.429 . S
C2189 C2185 1.429 . S
C2189 C2190 1.523 . S
C2190 C2174 1.368 . S
C2190 C2186 1.368 . S
C2190 C2189 1.523 . S
H2191 C2166 0.950 . S
H2192 C2168 0.950 . S
H2193 C2169 0.949 . S
H2194 C2171 0.950 . S
H2195 C2173 0.950 . S
C2196 C2197 1.349 . S
C2196 C2198 1.327 . S
C2196 H2221 0.950 . S
C2197 C2196 1.349 . S
C2197 C2213 1.349 . S
C2198 C2196 1.327 . S
C2198 C2217 1.429 . S
C2198 H2222 0.950 . S
C2199 C2216 1.574 . S
C2199 C2218 1.368 . S
C2199 H2223 0.949 . S
H2200 C2204 0.949 . S
C2201 C2202 1.349 . S
C2201 C2203 1.327 . S
C2201 H2224 0.950 . S
C2202 C2201 1.349 . S
C2202 C2214 1.349 . S
C2203 C2201 1.327 . S
C2203 C2219 1.429 . S
C2203 H2225 0.950 . S
C2204 H2200 0.949 . S
C2204 C2212 1.574 . S
C2204 C2220 1.368 . S
H2205 C2213 0.950 . S
H2206 C2211 0.950 . S
H2207 C2212 0.949 . S
H2208 C2214 0.950 . S
H2209 C2215 0.950 . S
H2210 C2216 0.949 . S
C2211 H2206 0.950 . S
C2211 C2213 1.327 . S
C2211 C2217 1.429 . S
C2212 C2204 1.574 . S
C2212 H2207 0.949 . S
C2212 C2218 1.368 . S
C2213 C2197 1.349 . S
C2213 H2205 0.950 . S
C2213 C2211 1.327 . S
C2214 C2202 1.349 . S
C2214 H2208 0.950 . S
C2214 C2215 1.327 . S
C2215 H2209 0.950 . S
C2215 C2214 1.327 . S
C2215 C2219 1.429 . S
C2216 C2199 1.574 . S
C2216 H2210 0.949 . S
C2216 C2220 1.368 . S
C2217 C2198 1.429 . S
C2217 C2211 1.429 . S
C2217 C2218 1.523 . S
C2218 C2199 1.368 . S
C2218 C2212 1.368 . S
C2218 C2217 1.523 . S
C2219 C2203 1.429 . S
C2219 C2215 1.429 . S
C2219 C2220 1.523 . S
C2220 C2204 1.368 . S
C2220 C2216 1.368 . S
C2220 C2219 1.523 . S
H2221 C2196 0.950 . S
H2222 C2198 0.950 . S
H2223 C2199 0.949 . S
H2224 C2201 0.950 . S
H2225 C2203 0.950 . S
C2226 C2227 1.349 . S
C2226 C2228 1.327 . S
C2226 H2251 0.950 . S
C2227 C2226 1.349 . S
C2227 C2243 1.349 . S
C2228 C2226 1.327 . S
C2228 C2247 1.429 . S
C2228 H2252 0.950 . S
C2229 C2246 1.574 . S
C2229 C2248 1.368 . S
C2229 H2253 0.949 . S
H2230 C2234 0.949 . S
C2231 C2232 1.349 . S
C2231 C2233 1.327 . S
C2231 H2254 0.950 . S
C2232 C2231 1.349 . S
C2232 C2244 1.349 . S
C2233 C2231 1.327 . S
C2233 C2249 1.429 . S
C2233 H2255 0.950 . S
C2234 H2230 0.949 . S
C2234 C2242 1.574 . S
C2234 C2250 1.368 . S
H2235 C2243 0.950 . S
H2236 C2241 0.950 . S
H2237 C2242 0.949 . S
H2238 C2244 0.950 . S
H2239 C2245 0.950 . S
H2240 C2246 0.949 . S
C2241 H2236 0.950 . S
C2241 C2243 1.327 . S
C2241 C2247 1.429 . S
C2242 C2234 1.574 . S
C2242 H2237 0.949 . S
C2242 C2248 1.368 . S
C2243 C2227 1.349 . S
C2243 H2235 0.950 . S
C2243 C2241 1.327 . S
C2244 C2232 1.349 . S
C2244 H2238 0.950 . S
C2244 C2245 1.327 . S
C2245 H2239 0.950 . S
C2245 C2244 1.327 . S
C2245 C2249 1.429 . S
C2246 C2229 1.574 . S
C2246 H2240 0.949 . S
C2246 C2250 1.368 . S
C2247 C2228 1.429 . S
C2247 C2241 1.429 . S
C2247 C2248 1.523 . S
C2248 C2229 1.368 . S
C2248 C2242 1.368 . S
C2248 C2247 1.523 . S
C2249 C2233 1.429 . S
C2249 C2245 1.429 . S
C2249 C2250 1.523 . S
C2250 C2234 1.368 . S
C2250 C2246 1.368 . S
C2250 C2249 1.523 . S
H2251 C2226 0.950 . S
H2252 C2228 0.950 . S
H2253 C2229 0.949 . S
H2254 C2231 0.950 . S
H2255 C2233 0.950 . S
C2256 C2257 1.349 . S
C2256 C2258 1.327 . S
C2256 H2281 0.950 . S
C2257 C2256 1.349 . S
C2257 C2273 1.349 . S
C2258 C2256 1.327 . S
C2258 C2277 1.429 . S
C2258 H2282 0.950 . S
C2259 C2276 1.574 . S
C2259 C2278 1.368 . S
C2259 H2283 0.949 . S
H2260 C2264 0.949 . S
C2261 C2262 1.349 . S
C2261 C2263 1.327 . S
C2261 H2284 0.950 . S
C2262 C2261 1.349 . S
C2262 C2274 1.349 . S
C2263 C2261 1.327 . S
C2263 C2279 1.429 . S
C2263 H2285 0.950 . S
C2264 H2260 0.949 . S
C2264 C2272 1.574 . S
C2264 C2280 1.368 . S
H2265 C2273 0.950 . S
H2266 C2271 0.950 . S
H2267 C2272 0.949 . S
H2268 C2274 0.950 . S
H2269 C2275 0.950 . S
H2270 C2276 0.949 . S
C2271 H2266 0.950 . S
C2271 C2273 1.327 . S
C2271 C2277 1.429 . S
C2272 C2264 1.574 . S
C2272 H2267 0.949 . S
C2272 C2278 1.368 . S
C2273 C2257 1.349 . S
C2273 H2265 0.950 . S
C2273 C2271 1.327 . S
C2274 C2262 1.349 . S
C2274 H2268 0.950 . S
C2274 C2275 1.327 . S
C2275 H2269 0.950 . S
C2275 C2274 1.327 . S
C2275 C2279 1.429 . S
C2276 C2259 1.574 . S
C2276 H2270 0.949 . S
C2276 C2280 1.368 . S
C2277 C2258 1.429 . S
C2277 C2271 1.429 . S
C2277 C2278 1.523 . S
C2278 C2259 1.368 . S
C2278 C2272 1.368 . S
C2278 C2277 1.523 . S
C2279 C2263 1.429 . S
C2279 C2275 1.429 . S
C2279 C2280 1.523 . S
C2280 C2264 1.368 . S
C2280 C2276 1.368 . S
C2280 C2279 1.523 . S
H2281 C2256 0.950 . S
H2282 C2258 0.950 . S
H2283 C2259 0.949 . S
H2284 C2261 0.950 . S
H2285 C2263 0.950 . S
C2286 C2287 1.349 . S
C2286 C2288 1.327 . S
C2286 H2311 0.950 . S
C2287 C2286 1.349 . S
C2287 C2303 1.349 . S
C2288 C2286 1.327 . S
C2288 C2307 1.429 . S
C2288 H2312 0.950 . S
C2289 C2306 1.574 . S
C2289 C2308 1.368 . S
C2289 H2313 0.949 . S
H2290 C2294 0.949 . S
C2291 C2292 1.349 . S
C2291 C2293 1.327 . S
C2291 H2314 0.950 . S
C2292 C2291 1.349 . S
C2292 C2304 1.349 . S
C2293 C2291 1.327 . S
C2293 C2309 1.429 . S
C2293 H2315 0.950 . S
C2294 H2290 0.949 . S
C2294 C2302 1.574 . S
C2294 C2310 1.368 . S
H2295 C2303 0.950 . S
H2296 C2301 0.950 . S
H2297 C2302 0.949 . S
H2298 C2304 0.950 . S
H2299 C2305 0.950 . S
H2300 C2306 0.949 . S
C2301 H2296 0.950 . S
C2301 C2303 1.327 . S
C2301 C2307 1.429 . S
C2302 C2294 1.574 . S
C2302 H2297 0.949 . S
C2302 C2308 1.368 . S
C2303 C2287 1.349 . S
C2303 H2295 0.950 . S
C2303 C2301 1.327 . S
C2304 C2292 1.349 . S
C2304 H2298 0.950 . S
C2304 C2305 1.327 . S
C2305 H2299 0.950 . S
C2305 C2304 1.327 . S
C2305 C2309 1.429 . S
C2306 C2289 1.574 . S
C2306 H2300 0.949 . S
C2306 C2310 1.368 . S
C2307 C2288 1.429 . S
C2307 C2301 1.429 . S
C2307 C2308 1.523 . S
C2308 C2289 1.368 . S
C2308 C2302 1.368 . S
C2308 C2307 1.523 . S
C2309 C2293 1.429 . S
C2309 C2305 1.429 . S
C2309 C2310 1.523 . S
C2310 C2294 1.368 . S
C2310 C2306 1.368 . S
C2310 C2309 1.523 . S
H2311 C2286 0.950 . S
H2312 C2288 0.950 . S
H2313 C2289 0.949 . S
H2314 C2291 0.950 . S
H2315 C2293 0.950 . S
C2316 C2317 1.349 . S
C2316 C2318 1.327 . S
C2316 H2341 0.950 . S
C2317 C2316 1.349 . S
C2317 C2333 1.349 . S
C2318 C2316 1.327 . S
C2318 C2337 1.429 . S
C2318 H2342 0.950 . S
C2319 C2336 1.574 . S
C2319 C2338 1.368 . S
C2319 H2343 0.949 . S
H2320 C2324 0.949 . S
C2321 C2322 1.349 . S
C2321 C2323 1.327 . S
C2321 H2344 0.950 . S
C2322 C2321 1.349 . S
C2322 C2334 1.349 . S
C2323 C2321 1.327 . S
C2323 C2339 1.429 . S
C2323 H2345 0.950 . S
C2324 H2320 0.949 . S
C2324 C2332 1.574 . S
C2324 C2340 1.368 . S
H2325 C2333 0.950 . S
H2326 C2331 0.950 . S
H2327 C2332 0.949 . S
H2328 C2334 0.950 . S
H2329 C2335 0.950 . S
H2330 C2336 0.949 . S
C2331 H2326 0.950 . S
C2331 C2333 1.327 . S
C2331 C2337 1.429 . S
C2332 C2324 1.574 . S
C2332 H2327 0.949 . S
C2332 C2338 1.368 . S
C2333 C2317 1.349 . S
C2333 H2325 0.950 . S
C2333 C2331 1.327 . S
C2334 C2322 1.349 . S
C2334 H2328 0.950 . S
C2334 C2335 1.327 . S
C2335 H2329 0.950 . S
C2335 C2334 1.327 . S
C2335 C2339 1.429 . S
C2336 C2319 1.574 . S
C2336 H2330 0.949 . S
C2336 C2340 1.368 . S
C2337 C2318 1.429 . S
C2337 C2331 1.429 . S
C2337 C2338 1.523 . S
C2338 C2319 1.368 . S
C2338 C2332 1.368 . S
C2338 C2337 1.523 . S
C2339 C2323 1.429 . S
C2339 C2335 1.429 . S
C2339 C2340 1.523 . S
C2340 C2324 1.368 . S
C2340 C2336 1.368 . S
C2340 C2339 1.523 . S
H2341 C2316 0.950 . S
H2342 C2318 0.950 . S
H2343 C2319 0.949 . S
H2344 C2321 0.950 . S
H2345 C2323 0.950 . S
C2346 C2347 1.349 . S
C2346 C2348 1.327 . S
C2346 H2371 0.950 . S
C2347 C2346 1.349 . S
C2347 C2363 1.349 . S
C2348 C2346 1.327 . S
C2348 C2367 1.429 . S
C2348 H2372 0.950 . S
C2349 C2366 1.574 . S
C2349 C2368 1.368 . S
C2349 H2373 0.949 . S
H2350 C2354 0.949 . S
C2351 C2352 1.349 . S
C2351 C2353 1.327 . S
C2351 H2374 0.950 . S
C2352 C2351 1.349 . S
C2352 C2364 1.349 . S
C2353 C2351 1.327 . S
C2353 C2369 1.429 . S
C2353 H2375 0.950 . S
C2354 H2350 0.949 . S
C2354 C2362 1.574 . S
C2354 C2370 1.368 . S
H2355 C2363 0.950 . S
H2356 C2361 0.950 . S
H2357 C2362 0.949 . S
H2358 C2364 0.950 . S
H2359 C2365 0.950 . S
H2360 C2366 0.949 . S
C2361 H2356 0.950 . S
C2361 C2363 1.327 . S
C2361 C2367 1.429 . S
C2362 C2354 1.574 . S
C2362 H2357 0.949 . S
C2362 C2368 1.368 . S
C2363 C2347 1.349 . S
C2363 H2355 0.950 . S
C2363 C2361 1.327 . S
C2364 C2352 1.349 . S
C2364 H2358 0.950 . S
C2364 C2365 1.327 . S
C2365 H2359 0.950 . S
C2365 C2364 1.327 . S
C2365 C2369 1.429 . S
C2366 C2349 1.574 . S
C2366 H2360 0.949 . S
C2366 C2370 1.368 . S
C2367 C2348 1.429 . S
C2367 C2361 1.429 . S
C2367 C2368 1.523 . S
C2368 C2349 1.368 . S
C2368 C2362 1.368 . S
C2368 C2367 1.523 . S
C2369 C2353 1.429 . S
C2369 C2365 1.429 . S
C2369 C2370 1.523 . S
C2370 C2354 1.368 . S
C2370 C2366 1.368 . S
C2370 C2369 1.523 . S
H2371 C2346 0.950 . S
H2372 C2348 0.950 . S
H2373 C2349 0.949 . S
H2374 C2351 0.950 . S
H2375 C2353 0.950 . S
C2376 C2377 1.349 . S
C2376 C2378 1.327 . S
C2376 H2401 0.950 . S
C2377 C2376 1.349 . S
C2377 C2393 1.349 . S
C2378 C2376 1.327 . S
C2378 C2397 1.429 . S
C2378 H2402 0.950 . S
C2379 C2396 1.574 . S
C2379 C2398 1.368 . S
C2379 H2403 0.949 . S
H2380 C2384 0.949 . S
C2381 C2382 1.349 . S
C2381 C2383 1.327 . S
C2381 H2404 0.950 . S
C2382 C2381 1.349 . S
C2382 C2394 1.349 . S
C2383 C2381 1.327 . S
C2383 C2399 1.429 . S
C2383 H2405 0.950 . S
C2384 H2380 0.949 . S
C2384 C2392 1.574 . S
C2384 C2400 1.368 . S
H2385 C2393 0.950 . S
H2386 C2391 0.950 . S
H2387 C2392 0.949 . S
H2388 C2394 0.950 . S
H2389 C2395 0.950 . S
H2390 C2396 0.949 . S
C2391 H2386 0.950 . S
C2391 C2393 1.327 . S
C2391 C2397 1.429 . S
C2392 C2384 1.574 . S
C2392 H2387 0.949 . S
C2392 C2398 1.368 . S
C2393 C2377 1.349 . S
C2393 H2385 0.950 . S
C2393 C2391 1.327 . S
C2394 C2382 1.349 . S
C2394 H2388 0.950 . S
C2394 C2395 1.327 . S
C2395 H2389 0.950 . S
C2395 C2394 1.327 . S
C2395 C2399 1.429 . S
C2396 C2379 1.574 . S
C2396 H2390 0.949 . S
C2396 C2400 1.368 . S
C2397 C2378 1.429 . S
C2397 C2391 1.429 . S
C2397 C2398 1.523 . S
C2398 C2379 1.368 . S
C2398 C2392 1.368 . S
C2398 C2397 1.523 . S
C2399 C2383 1.429 . S
C2399 C2395 1.429 . S
C2399 C2400 1.523 . S
C2400 C2384 1.368 . S
C2400 C2396 1.368 . S
C2400 C2399 1.523 . S
H2401 C2376 0.950 . S
H2402 C2378 0.950 . S
H2403 C2379 0.949 . S
H2404 C2381 0.950 . S
H2405 C2383 0.950 . S
C2406 C2407 1.349 . S
C2406 C2408 1.327 . S
C2406 H2431 0.950 . S
C2407 C2406 1.349 . S
C2407 C2423 1.349 . S
C2408 C2406 1.327 . S
C2408 C2427 1.429 . S
C2408 H2432 0.950 . S
C2409 C2426 1.574 . S
C2409 C2428 1.368 . S
C2409 H2433 0.949 . S
H2410 C2414 0.949 . S
C2411 C2412 1.349 . S
C2411 C2413 1.327 . S
C2411 H2434 0.950 . S
C2412 C2411 1.349 . S
C2412 C2424 1.349 . S
C2413 C2411 1.327 . S
C2413 C2429 1.429 . S
C2413 H2435 0.950 . S
C2414 H2410 0.949 . S
C2414 C2422 1.574 . S
C2414 C2430 1.368 . S
H2415 C2423 0.950 . S
H2416 C2421 0.950 . S
H2417 C2422 0.949 . S
H2418 C2424 0.950 . S
H2419 C2425 0.950 . S
H2420 C2426 0.949 . S
C2421 H2416 0.950 . S
C2421 C2423 1.327 . S
C2421 C2427 1.429 . S
C2422 C2414 1.574 . S
C2422 H2417 0.949 . S
C2422 C2428 1.368 . S
C2423 C2407 1.349 . S
C2423 H2415 0.950 . S
C2423 C2421 1.327 . S
C2424 C2412 1.349 . S
C2424 H2418 0.950 . S
C2424 C2425 1.327 . S
C2425 H2419 0.950 . S
C2425 C2424 1.327 . S
C2425 C2429 1.429 . S
C2426 C2409 1.574 . S
C2426 H2420 0.949 . S
C2426 C2430 1.368 . S
C2427 C2408 1.429 . S
C2427 C2421 1.429 . S
C2427 C2428 1.523 . S
C2428 C2409 1.368 . S
C2428 C2422 1.368 . S
C2428 C2427 1.523 . S
C2429 C2413 1.429 . S
C2429 C2425 1.429 . S
C2429 C2430 1.523 . S
C2430 C2414 1.368 . S
C2430 C2426 1.368 . S
C2430 C2429 1.523 . S
H2431 C2406 0.950 . S
H2432 C2408 0.950 . S
H2433 C2409 0.949 . S
H2434 C2411 0.950 . S
H2435 C2413 0.950 . S
C2436 C2437 1.349 . S
C2436 C2438 1.327 . S
C2436 H2461 0.950 . S
C2437 C2436 1.349 . S
C2437 C2453 1.349 . S
C2438 C2436 1.327 . S
C2438 C2457 1.429 . S
C2438 H2462 0.950 . S
C2439 C2456 1.574 . S
C2439 C2458 1.368 . S
C2439 H2463 0.949 . S
H2440 C2444 0.949 . S
C2441 C2442 1.349 . S
C2441 C2443 1.327 . S
C2441 H2464 0.950 . S
C2442 C2441 1.349 . S
C2442 C2454 1.349 . S
C2443 C2441 1.327 . S
C2443 C2459 1.429 . S
C2443 H2465 0.950 . S
C2444 H2440 0.949 . S
C2444 C2452 1.574 . S
C2444 C2460 1.368 . S
H2445 C2453 0.950 . S
H2446 C2451 0.950 . S
H2447 C2452 0.949 . S
H2448 C2454 0.950 . S
H2449 C2455 0.950 . S
H2450 C2456 0.949 . S
C2451 H2446 0.950 . S
C2451 C2453 1.327 . S
C2451 C2457 1.429 . S
C2452 C2444 1.574 . S
C2452 H2447 0.949 . S
C2452 C2458 1.368 . S
C2453 C2437 1.349 . S
C2453 H2445 0.950 . S
C2453 C2451 1.327 . S
C2454 C2442 1.349 . S
C2454 H2448 0.950 . S
C2454 C2455 1.327 . S
C2455 H2449 0.950 . S
C2455 C2454 1.327 . S
C2455 C2459 1.429 . S
C2456 C2439 1.574 . S
C2456 H2450 0.949 . S
C2456 C2460 1.368 . S
C2457 C2438 1.429 . S
C2457 C2451 1.429 . S
C2457 C2458 1.523 . S
C2458 C2439 1.368 . S
C2458 C2452 1.368 . S
C2458 C2457 1.523 . S
C2459 C2443 1.429 . S
C2459 C2455 1.429 . S
C2459 C2460 1.523 . S
C2460 C2444 1.368 . S
C2460 C2456 1.368 . S
C2460 C2459 1.523 . S
H2461 C2436 0.950 . S
H2462 C2438 0.950 . S
H2463 C2439 0.949 . S
H2464 C2441 0.950 . S
H2465 C2443 0.950 . S
C2466 C2467 1.349 . S
C2466 C2468 1.327 . S
C2466 H2491 0.950 . S
C2467 C2466 1.349 . S
C2467 C2483 1.349 . S
C2468 C2466 1.327 . S
C2468 C2487 1.429 . S
C2468 H2492 0.950 . S
C2469 C2486 1.574 . S
C2469 C2488 1.368 . S
C2469 H2493 0.949 . S
H2470 C2474 0.949 . S
C2471 C2472 1.349 . S
C2471 C2473 1.327 . S
C2471 H2494 0.950 . S
C2472 C2471 1.349 . S
C2472 C2484 1.349 . S
C2473 C2471 1.327 . S
C2473 C2489 1.429 . S
C2473 H2495 0.950 . S
C2474 H2470 0.949 . S
C2474 C2482 1.574 . S
C2474 C2490 1.368 . S
H2475 C2483 0.950 . S
H2476 C2481 0.950 . S
H2477 C2482 0.949 . S
H2478 C2484 0.950 . S
H2479 C2485 0.950 . S
H2480 C2486 0.949 . S
C2481 H2476 0.950 . S
C2481 C2483 1.327 . S
C2481 C2487 1.429 . S
C2482 C2474 1.574 . S
C2482 H2477 0.949 . S
C2482 C2488 1.368 . S
C2483 C2467 1.349 . S
C2483 H2475 0.950 . S
C2483 C2481 1.327 . S
C2484 C2472 1.349 . S
C2484 H2478 0.950 . S
C2484 C2485 1.327 . S
C2485 H2479 0.950 . S
C2485 C2484 1.327 . S
C2485 C2489 1.429 . S
C2486 C2469 1.574 . S
C2486 H2480 0.949 . S
C2486 C2490 1.368 . S
C2487 C2468 1.429 . S
C2487 C2481 1.429 . S
C2487 C2488 1.523 . S
C2488 C2469 1.368 . S
C2488 C2482 1.368 . S
C2488 C2487 1.523 . S
C2489 C2473 1.429 . S
C2489 C2485 1.429 . S
C2489 C2490 1.523 . S
C2490 C2474 1.368 . S
C2490 C2486 1.368 . S
C2490 C2489 1.523 . S
H2491 C2466 0.950 . S
H2492 C2468 0.950 . S
H2493 C2469 0.949 . S
H2494 C2471 0.950 . S
H2495 C2473 0.950 . S
C2496 C2497 1.349 . S
C2496 C2498 1.327 . S
C2496 H2521 0.950 . S
C2497 C2496 1.349 . S
C2497 C2513 1.349 . S
C2498 C2496 1.327 . S
C2498 C2517 1.429 . S
C2498 H2522 0.950 . S
C2499 C2516 1.574 . S
C2499 C2518 1.368 . S
C2499 H2523 0.949 . S
H2500 C2504 0.949 . S
C2501 C2502 1.349 . S
C2501 C2503 1.327 . S
C2501 H2524 0.950 . S
C2502 C2501 1.349 . S
C2502 C2514 1.349 . S
C2503 C2501 1.327 . S
C2503 C2519 1.429 . S
C2503 H2525 0.950 . S
C2504 H2500 0.949 . S
C2504 C2512 1.574 . S
C2504 C2520 1.368 . S
H2505 C2513 0.950 . S
H2506 C2511 0.950 . S
H2507 C2512 0.949 . S
H2508 C2514 0.950 . S
H2509 C2515 0.950 . S
H2510 C2516 0.949 . S
C2511 H2506 0.950 . S
C2511 C2513 1.327 . S
C2511 C2517 1.429 . S
C2512 C2504 1.574 . S
C2512 H2507 0.949 . S
C2512 C2518 1.368 . S
C2513 C2497 1.349 . S
C2513 H2505 0.950 . S
C2513 C2511 1.327 . S
C2514 C2502 1.349 . S
C2514 H2508 0.950 . S
C2514 C2515 1.327 . S
C2515 H2509 0.950 . S
C2515 C2514 1.327 . S
C2515 C2519 1.429 . S
C2516 C2499 1.574 . S
C2516 H2510 0.949 . S
C2516 C2520 1.368 . S
C2517 C2498 1.429 . S
C2517 C2511 1.429 . S
C2517 C2518 1.523 . S
C2518 C2499 1.368 . S
C2518 C2512 1.368 . S
C2518 C2517 1.523 . S
C2519 C2503 1.429 . S
C2519 C2515 1.429 . S
C2519 C2520 1.523 . S
C2520 C2504 1.368 . S
C2520 C2516 1.368 . S
C2520 C2519 1.523 . S
H2521 C2496 0.950 . S
H2522 C2498 0.950 . S
H2523 C2499 0.949 . S
H2524 C2501 0.950 . S
H2525 C2503 0.950 . S
C2526 C2527 1.349 . S
C2526 C2528 1.327 . S
C2526 H2551 0.950 . S
C2527 C2526 1.349 . S
C2527 C2543 1.349 . S
C2528 C2526 1.327 . S
C2528 C2547 1.429 . S
C2528 H2552 0.950 . S
C2529 C2546 1.574 . S
C2529 C2548 1.368 . S
C2529 H2553 0.949 . S
H2530 C2534 0.949 . S
C2531 C2532 1.349 . S
C2531 C2533 1.327 . S
C2531 H2554 0.950 . S
C2532 C2531 1.349 . S
C2532 C2544 1.349 . S
C2533 C2531 1.327 . S
C2533 C2549 1.429 . S
C2533 H2555 0.950 . S
C2534 H2530 0.949 . S
C2534 C2542 1.574 . S
C2534 C2550 1.368 . S
H2535 C2543 0.950 . S
H2536 C2541 0.950 . S
H2537 C2542 0.949 . S
H2538 C2544 0.950 . S
H2539 C2545 0.950 . S
H2540 C2546 0.949 . S
C2541 H2536 0.950 . S
C2541 C2543 1.327 . S
C2541 C2547 1.429 . S
C2542 C2534 1.574 . S
C2542 H2537 0.949 . S
C2542 C2548 1.368 . S
C2543 C2527 1.349 . S
C2543 H2535 0.950 . S
C2543 C2541 1.327 . S
C2544 C2532 1.349 . S
C2544 H2538 0.950 . S
C2544 C2545 1.327 . S
C2545 H2539 0.950 . S
C2545 C2544 1.327 . S
C2545 C2549 1.429 . S
C2546 C2529 1.574 . S
C2546 H2540 0.949 . S
C2546 C2550 1.368 . S
C2547 C2528 1.429 . S
C2547 C2541 1.429 . S
C2547 C2548 1.523 . S
C2548 C2529 1.368 . S
C2548 C2542 1.368 . S
C2548 C2547 1.523 . S
C2549 C2533 1.429 . S
C2549 C2545 1.429 . S
C2549 C2550 1.523 . S
C2550 C2534 1.368 . S
C2550 C2546 1.368 . S
C2550 C2549 1.523 . S
H2551 C2526 0.950 . S
H2552 C2528 0.950 . S
H2553 C2529 0.949 . S
H2554 C2531 0.950 . S
H2555 C2533 0.950 . S
C2556 C2557 1.349 . S
C2556 C2558 1.327 . S
C2556 H2581 0.950 . S
C2557 C2556 1.349 . S
C2557 C2573 1.349 . S
C2558 C2556 1.327 . S
C2558 C2577 1.429 . S
C2558 H2582 0.950 . S
C2559 C2576 1.574 . S
C2559 C2578 1.368 . S
C2559 H2583 0.949 . S
H2560 C2564 0.949 . S
C2561 C2562 1.349 . S
C2561 C2563 1.327 . S
C2561 H2584 0.950 . S
C2562 C2561 1.349 . S
C2562 C2574 1.349 . S
C2563 C2561 1.327 . S
C2563 C2579 1.429 . S
C2563 H2585 0.950 . S
C2564 H2560 0.949 . S
C2564 C2572 1.574 . S
C2564 C2580 1.368 . S
H2565 C2573 0.950 . S
H2566 C2571 0.950 . S
H2567 C2572 0.949 . S
H2568 C2574 0.950 . S
H2569 C2575 0.950 . S
H2570 C2576 0.949 . S
C2571 H2566 0.950 . S
C2571 C2573 1.327 . S
C2571 C2577 1.429 . S
C2572 C2564 1.574 . S
C2572 H2567 0.949 . S
C2572 C2578 1.368 . S
C2573 C2557 1.349 . S
C2573 H2565 0.950 . S
C2573 C2571 1.327 . S
C2574 C2562 1.349 . S
C2574 H2568 0.950 . S
C2574 C2575 1.327 . S
C2575 H2569 0.950 . S
C2575 C2574 1.327 . S
C2575 C2579 1.429 . S
C2576 C2559 1.574 . S
C2576 H2570 0.949 . S
C2576 C2580 1.368 . S
C2577 C2558 1.429 . S
C2577 C2571 1.429 . S
C2577 C2578 1.523 . S
C2578 C2559 1.368 . S
C2578 C2572 1.368 . S
C2578 C2577 1.523 . S
C2579 C2563 1.429 . S
C2579 C2575 1.429 . S
C2579 C2580 1.523 . S
C2580 C2564 1.368 . S
C2580 C2576 1.368 . S
C2580 C2579 1.523 . S
H2581 C2556 0.950 . S
H2582 C2558 0.950 . S
H2583 C2559 0.949 . S
H2584 C2561 0.950 . S
H2585 C2563 0.950 . S
C2586 C2587 1.349 . S
C2586 C2588 1.327 . S
C2586 H2611 0.950 . S
C2587 C2586 1.349 . S
C2587 C2603 1.349 . S
C2588 C2586 1.327 . S
C2588 C2607 1.429 . S
C2588 H2612 0.950 . S
C2589 C2606 1.574 . S
C2589 C2608 1.368 . S
C2589 H2613 0.949 . S
H2590 C2594 0.949 . S
C2591 C2592 1.349 . S
C2591 C2593 1.327 . S
C2591 H2614 0.950 . S
C2592 C2591 1.349 . S
C2592 C2604 1.349 . S
C2593 C2591 1.327 . S
C2593 C2609 1.429 . S
C2593 H2615 0.950 . S
C2594 H2590 0.949 . S
C2594 C2602 1.574 . S
C2594 C2610 1.368 . S
H2595 C2603 0.950 . S
H2596 C2601 0.950 . S
H2597 C2602 0.949 . S
H2598 C2604 0.950 . S
H2599 C2605 0.950 . S
H2600 C2606 0.949 . S
C2601 H2596 0.950 . S
C2601 C2603 1.327 . S
C2601 C2607 1.429 . S
C2602 C2594 1.574 . S
C2602 H2597 0.949 . S
C2602 C2608 1.368 . S
C2603 C2587 1.349 . S
C2603 H2595 0.950 . S
C2603 C2601 1.327 . S
C2604 C2592 1.349 . S
C2604 H2598 0.950 . S
C2604 C2605 1.327 . S
C2605 H2599 0.950 . S
C2605 C2604 1.327 . S
C2605 C2609 1.429 . S
C2606 C2589 1.574 . S
C2606 H2600 0.949 . S
C2606 C2610 1.368 . S
C2607 C2588 1.429 . S
C2607 C2601 1.429 . S
C2607 C2608 1.523 . S
C2608 C2589 1.368 . S
C2608 C2602 1.368 . S
C2608 C2607 1.523 . S
C2609 C2593 1.429 . S
C2609 C2605 1.429 . S
C2609 C2610 1.523 . S
C2610 C2594 1.368 . S
C2610 C2606 1.368 . S
C2610 C2609 1.523 . S
H2611 C2586 0.950 . S
H2612 C2588 0.950 . S
H2613 C2589 0.949 . S
H2614 C2591 0.950 . S
H2615 C2593 0.950 . S
C2616 C2617 1.349 . S
C2616 C2618 1.327 . S
C2616 H2641 0.950 . S
C2617 C2616 1.349 . S
C2617 C2633 1.349 . S
C2618 C2616 1.327 . S
C2618 C2637 1.429 . S
C2618 H2642 0.950 . S
C2619 C2636 1.574 . S
C2619 C2638 1.368 . S
C2619 H2643 0.949 . S
H2620 C2624 0.949 . S
C2621 C2622 1.349 . S
C2621 C2623 1.327 . S
C2621 H2644 0.950 . S
C2622 C2621 1.349 . S
C2622 C2634 1.349 . S
C2623 C2621 1.327 . S
C2623 C2639 1.429 . S
C2623 H2645 0.950 . S
C2624 H2620 0.949 . S
C2624 C2632 1.574 . S
C2624 C2640 1.368 . S
H2625 C2633 0.950 . S
H2626 C2631 0.950 . S
H2627 C2632 0.949 . S
H2628 C2634 0.950 . S
H2629 C2635 0.950 . S
H2630 C2636 0.949 . S
C2631 H2626 0.950 . S
C2631 C2633 1.327 . S
C2631 C2637 1.429 . S
C2632 C2624 1.574 . S
C2632 H2627 0.949 . S
C2632 C2638 1.368 . S
C2633 C2617 1.349 . S
C2633 H2625 0.950 . S
C2633 C2631 1.327 . S
C2634 C2622 1.349 . S
C2634 H2628 0.950 . S
C2634 C2635 1.327 . S
C2635 H2629 0.950 . S
C2635 C2634 1.327 . S
C2635 C2639 1.429 . S
C2636 C2619 1.574 . S
C2636 H2630 0.949 . S
C2636 C2640 1.368 . S
C2637 C2618 1.429 . S
C2637 C2631 1.429 . S
C2637 C2638 1.523 . S
C2638 C2619 1.368 . S
C2638 C2632 1.368 . S
C2638 C2637 1.523 . S
C2639 C2623 1.429 . S
C2639 C2635 1.429 . S
C2639 C2640 1.523 . S
C2640 C2624 1.368 . S
C2640 C2636 1.368 . S
C2640 C2639 1.523 . S
H2641 C2616 0.950 . S
H2642 C2618 0.950 . S
H2643 C2619 0.949 . S
H2644 C2621 0.950 . S
H2645 C2623 0.950 . S
C2646 C2647 1.349 . S
C2646 C2648 1.327 . S
C2646 H2671 0.950 . S
C2647 C2646 1.349 . S
C2647 C2663 1.349 . S
C2648 C2646 1.327 . S
C2648 C2667 1.429 . S
C2648 H2672 0.950 . S
C2649 C2666 1.574 . S
C2649 C2668 1.368 . S
C2649 H2673 0.949 . S
H2650 C2654 0.949 . S
C2651 C2652 1.349 . S
C2651 C2653 1.327 . S
C2651 H2674 0.950 . S
C2652 C2651 1.349 . S
C2652 C2664 1.349 . S
C2653 C2651 1.327 . S
C2653 C2669 1.429 . S
C2653 H2675 0.950 . S
C2654 H2650 0.949 . S
C2654 C2662 1.574 . S
C2654 C2670 1.368 . S
H2655 C2663 0.950 . S
H2656 C2661 0.950 . S
H2657 C2662 0.949 . S
H2658 C2664 0.950 . S
H2659 C2665 0.950 . S
H2660 C2666 0.949 . S
C2661 H2656 0.950 . S
C2661 C2663 1.327 . S
C2661 C2667 1.429 . S
C2662 C2654 1.574 . S
C2662 H2657 0.949 . S
C2662 C2668 1.368 . S
C2663 C2647 1.349 . S
C2663 H2655 0.950 . S
C2663 C2661 1.327 . S
C2664 C2652 1.349 . S
C2664 H2658 0.950 . S
C2664 C2665 1.327 . S
C2665 H2659 0.950 . S
C2665 C2664 1.327 . S
C2665 C2669 1.429 . S
C2666 C2649 1.574 . S
C2666 H2660 0.949 . S
C2666 C2670 1.368 . S
C2667 C2648 1.429 . S
C2667 C2661 1.429 . S
C2667 C2668 1.523 . S
C2668 C2649 1.368 . S
C2668 C2662 1.368 . S
C2668 C2667 1.523 . S
C2669 C2653 1.429 . S
C2669 C2665 1.429 . S
C2669 C2670 1.523 . S
C2670 C2654 1.368 . S
C2670 C2666 1.368 . S
C2670 C2669 1.523 . S
H2671 C2646 0.950 . S
H2672 C2648 0.950 . S
H2673 C2649 0.949 . S
H2674 C2651 0.950 . S
H2675 C2653 0.950 . S
C2676 C2677 1.349 . S
C2676 C2678 1.327 . S
C2676 H2701 0.950 . S
C2677 C2676 1.349 . S
C2677 C2693 1.349 . S
C2678 C2676 1.327 . S
C2678 C2697 1.429 . S
C2678 H2702 0.950 . S
C2679 C2696 1.574 . S
C2679 C2698 1.368 . S
C2679 H2703 0.949 . S
H2680 C2684 0.949 . S
C2681 C2682 1.349 . S
C2681 C2683 1.327 . S
C2681 H2704 0.950 . S
C2682 C2681 1.349 . S
C2682 C2694 1.349 . S
C2683 C2681 1.327 . S
C2683 C2699 1.429 . S
C2683 H2705 0.950 . S
C2684 H2680 0.949 . S
C2684 C2692 1.574 . S
C2684 C2700 1.368 . S
H2685 C2693 0.950 . S
H2686 C2691 0.950 . S
H2687 C2692 0.949 . S
H2688 C2694 0.950 . S
H2689 C2695 0.950 . S
H2690 C2696 0.949 . S
C2691 H2686 0.950 . S
C2691 C2693 1.327 . S
C2691 C2697 1.429 . S
C2692 C2684 1.574 . S
C2692 H2687 0.949 . S
C2692 C2698 1.368 . S
C2693 C2677 1.349 . S
C2693 H2685 0.950 . S
C2693 C2691 1.327 . S
C2694 C2682 1.349 . S
C2694 H2688 0.950 . S
C2694 C2695 1.327 . S
C2695 H2689 0.950 . S
C2695 C2694 1.327 . S
C2695 C2699 1.429 . S
C2696 C2679 1.574 . S
C2696 H2690 0.949 . S
C2696 C2700 1.368 . S
C2697 C2678 1.429 . S
C2697 C2691 1.429 . S
C2697 C2698 1.523 . S
C2698 C2679 1.368 . S
C2698 C2692 1.368 . S
C2698 C2697 1.523 . S
C2699 C2683 1.429 . S
C2699 C2695 1.429 . S
C2699 C2700 1.523 . S
C2700 C2684 1.368 . S
C2700 C2696 1.368 . S
C2700 C2699 1.523 . S
H2701 C2676 0.950 . S
H2702 C2678 0.950 . S
H2703 C2679 0.949 . S
H2704 C2681 0.950 . S
H2705 C2683 0.950 . S
C2706 C2707 1.349 . S
C2706 C2708 1.327 . S
C2706 H2731 0.950 . S
C2707 C2706 1.349 . S
C2707 C2723 1.349 . S
C2708 C2706 1.327 . S
C2708 C2727 1.429 . S
C2708 H2732 0.950 . S
C2709 C2726 1.574 . S
C2709 C2728 1.368 . S
C2709 H2733 0.949 . S
H2710 C2714 0.949 . S
C2711 C2712 1.349 . S
C2711 C2713 1.327 . S
C2711 H2734 0.950 . S
C2712 C2711 1.349 . S
C2712 C2724 1.349 . S
C2713 C2711 1.327 . S
C2713 C2729 1.429 . S
C2713 H2735 0.950 . S
C2714 H2710 0.949 . S
C2714 C2722 1.574 . S
C2714 C2730 1.368 . S
H2715 C2723 0.950 . S
H2716 C2721 0.950 . S
H2717 C2722 0.949 . S
H2718 C2724 0.950 . S
H2719 C2725 0.950 . S
H2720 C2726 0.949 . S
C2721 H2716 0.950 . S
C2721 C2723 1.327 . S
C2721 C2727 1.429 . S
C2722 C2714 1.574 . S
C2722 H2717 0.949 . S
C2722 C2728 1.368 . S
C2723 C2707 1.349 . S
C2723 H2715 0.950 . S
C2723 C2721 1.327 . S
C2724 C2712 1.349 . S
C2724 H2718 0.950 . S
C2724 C2725 1.327 . S
C2725 H2719 0.950 . S
C2725 C2724 1.327 . S
C2725 C2729 1.429 . S
C2726 C2709 1.574 . S
C2726 H2720 0.949 . S
C2726 C2730 1.368 . S
C2727 C2708 1.429 . S
C2727 C2721 1.429 . S
C2727 C2728 1.523 . S
C2728 C2709 1.368 . S
C2728 C2722 1.368 . S
C2728 C2727 1.523 . S
C2729 C2713 1.429 . S
C2729 C2725 1.429 . S
C2729 C2730 1.523 . S
C2730 C2714 1.368 . S
C2730 C2726 1.368 . S
C2730 C2729 1.523 . S
H2731 C2706 0.950 . S
H2732 C2708 0.950 . S
H2733 C2709 0.949 . S
H2734 C2711 0.950 . S
H2735 C2713 0.950 . S
C2736 C2737 1.349 . S
C2736 C2738 1.327 . S
C2736 H2761 0.950 . S
C2737 C2736 1.349 . S
C2737 C2753 1.349 . S
C2738 C2736 1.327 . S
C2738 C2757 1.429 . S
C2738 H2762 0.950 . S
C2739 C2756 1.574 . S
C2739 C2758 1.368 . S
C2739 H2763 0.949 . S
H2740 C2744 0.949 . S
C2741 C2742 1.349 . S
C2741 C2743 1.327 . S
C2741 H2764 0.950 . S
C2742 C2741 1.349 . S
C2742 C2754 1.349 . S
C2743 C2741 1.327 . S
C2743 C2759 1.429 . S
C2743 H2765 0.950 . S
C2744 H2740 0.949 . S
C2744 C2752 1.574 . S
C2744 C2760 1.368 . S
H2745 C2753 0.950 . S
H2746 C2751 0.950 . S
H2747 C2752 0.949 . S
H2748 C2754 0.950 . S
H2749 C2755 0.950 . S
H2750 C2756 0.949 . S
C2751 H2746 0.950 . S
C2751 C2753 1.327 . S
C2751 C2757 1.429 . S
C2752 C2744 1.574 . S
C2752 H2747 0.949 . S
C2752 C2758 1.368 . S
C2753 C2737 1.349 . S
C2753 H2745 0.950 . S
C2753 C2751 1.327 . S
C2754 C2742 1.349 . S
C2754 H2748 0.950 . S
C2754 C2755 1.327 . S
C2755 H2749 0.950 . S
C2755 C2754 1.327 . S
C2755 C2759 1.429 . S
C2756 C2739 1.574 . S
C2756 H2750 0.949 . S
C2756 C2760 1.368 . S
C2757 C2738 1.429 . S
C2757 C2751 1.429 . S
C2757 C2758 1.523 . S
C2758 C2739 1.368 . S
C2758 C2752 1.368 . S
C2758 C2757 1.523 . S
C2759 C2743 1.429 . S
C2759 C2755 1.429 . S
C2759 C2760 1.523 . S
C2760 C2744 1.368 . S
C2760 C2756 1.368 . S
C2760 C2759 1.523 . S
H2761 C2736 0.950 . S
H2762 C2738 0.950 . S
H2763 C2739 0.949 . S
H2764 C2741 0.950 . S
H2765 C2743 0.950 . S
C2766 C2767 1.349 . S
C2766 C2768 1.327 . S
C2766 H2791 0.950 . S
C2767 C2766 1.349 . S
C2767 C2783 1.349 . S
C2768 C2766 1.327 . S
C2768 C2787 1.429 . S
C2768 H2792 0.950 . S
C2769 C2786 1.574 . S
C2769 C2788 1.368 . S
C2769 H2793 0.949 . S
H2770 C2774 0.949 . S
C2771 C2772 1.349 . S
C2771 C2773 1.327 . S
C2771 H2794 0.950 . S
C2772 C2771 1.349 . S
C2772 C2784 1.349 . S
C2773 C2771 1.327 . S
C2773 C2789 1.429 . S
C2773 H2795 0.950 . S
C2774 H2770 0.949 . S
C2774 C2782 1.574 . S
C2774 C2790 1.368 . S
H2775 C2783 0.950 . S
H2776 C2781 0.950 . S
H2777 C2782 0.949 . S
H2778 C2784 0.950 . S
H2779 C2785 0.950 . S
H2780 C2786 0.949 . S
C2781 H2776 0.950 . S
C2781 C2783 1.327 . S
C2781 C2787 1.429 . S
C2782 C2774 1.574 . S
C2782 H2777 0.949 . S
C2782 C2788 1.368 . S
C2783 C2767 1.349 . S
C2783 H2775 0.950 . S
C2783 C2781 1.327 . S
C2784 C2772 1.349 . S
C2784 H2778 0.950 . S
C2784 C2785 1.327 . S
C2785 H2779 0.950 . S
C2785 C2784 1.327 . S
C2785 C2789 1.429 . S
C2786 C2769 1.574 . S
C2786 H2780 0.949 . S
C2786 C2790 1.368 . S
C2787 C2768 1.429 . S
C2787 C2781 1.429 . S
C2787 C2788 1.523 . S
C2788 C2769 1.368 . S
C2788 C2782 1.368 . S
C2788 C2787 1.523 . S
C2789 C2773 1.429 . S
C2789 C2785 1.429 . S
C2789 C2790 1.523 . S
C2790 C2774 1.368 . S
C2790 C2786 1.368 . S
C2790 C2789 1.523 . S
H2791 C2766 0.950 . S
H2792 C2768 0.950 . S
H2793 C2769 0.949 . S
H2794 C2771 0.950 . S
H2795 C2773 0.950 . S
C2796 C2797 1.349 . S
C2796 C2798 1.327 . S
C2796 H2821 0.950 . S
C2797 C2796 1.349 . S
C2797 C2813 1.349 . S
C2798 C2796 1.327 . S
C2798 C2817 1.429 . S
C2798 H2822 0.950 . S
C2799 C2816 1.574 . S
C2799 C2818 1.368 . S
C2799 H2823 0.949 . S
H2800 C2804 0.949 . S
C2801 C2802 1.349 . S
C2801 C2803 1.327 . S
C2801 H2824 0.950 . S
C2802 C2801 1.349 . S
C2802 C2814 1.349 . S
C2803 C2801 1.327 . S
C2803 C2819 1.429 . S
C2803 H2825 0.950 . S
C2804 H2800 0.949 . S
C2804 C2812 1.574 . S
C2804 C2820 1.368 . S
H2805 C2813 0.950 . S
H2806 C2811 0.950 . S
H2807 C2812 0.949 . S
H2808 C2814 0.950 . S
H2809 C2815 0.950 . S
H2810 C2816 0.949 . S
C2811 H2806 0.950 . S
C2811 C2813 1.327 . S
C2811 C2817 1.429 . S
C2812 C2804 1.574 . S
C2812 H2807 0.949 . S
C2812 C2818 1.368 . S
C2813 C2797 1.349 . S
C2813 H2805 0.950 . S
C2813 C2811 1.327 . S
C2814 C2802 1.349 . S
C2814 H2808 0.950 . S
C2814 C2815 1.327 . S
C2815 H2809 0.950 . S
C2815 C2814 1.327 . S
C2815 C2819 1.429 . S
C2816 C2799 1.574 . S
C2816 H2810 0.949 . S
C2816 C2820 1.368 . S
C2817 C2798 1.429 . S
C2817 C2811 1.429 . S
C2817 C2818 1.523 . S
C2818 C2799 1.368 . S
C2818 C2812 1.368 . S
C2818 C2817 1.523 . S
C2819 C2803 1.429 . S
C2819 C2815 1.429 . S
C2819 C2820 1.523 . S
C2820 C2804 1.368 . S
C2820 C2816 1.368 . S
C2820 C2819 1.523 . S
H2821 C2796 0.950 . S
H2822 C2798 0.950 . S
H2823 C2799 0.949 . S
H2824 C2801 0.950 . S
H2825 C2803 0.950 . S
C2826 C2827 1.349 . S
C2826 C2828 1.327 . S
C2826 H2851 0.950 . S
C2827 C2826 1.349 . S
C2827 C2843 1.349 . S
C2828 C2826 1.327 . S
C2828 C2847 1.429 . S
C2828 H2852 0.950 . S
C2829 C2846 1.574 . S
C2829 C2848 1.368 . S
C2829 H2853 0.949 . S
H2830 C2834 0.949 . S
C2831 C2832 1.349 . S
C2831 C2833 1.327 . S
C2831 H2854 0.950 . S
C2832 C2831 1.349 . S
C2832 C2844 1.349 . S
C2833 C2831 1.327 . S
C2833 C2849 1.429 . S
C2833 H2855 0.950 . S
C2834 H2830 0.949 . S
C2834 C2842 1.574 . S
C2834 C2850 1.368 . S
H2835 C2843 0.950 . S
H2836 C2841 0.950 . S
H2837 C2842 0.949 . S
H2838 C2844 0.950 . S
H2839 C2845 0.950 . S
H2840 C2846 0.949 . S
C2841 H2836 0.950 . S
C2841 C2843 1.327 . S
C2841 C2847 1.429 . S
C2842 C2834 1.574 . S
C2842 H2837 0.949 . S
C2842 C2848 1.368 . S
C2843 C2827 1.349 . S
C2843 H2835 0.950 . S
C2843 C2841 1.327 . S
C2844 C2832 1.349 . S
C2844 H2838 0.950 . S
C2844 C2845 1.327 . S
C2845 H2839 0.950 . S
C2845 C2844 1.327 . S
C2845 C2849 1.429 . S
C2846 C2829 1.574 . S
C2846 H2840 0.949 . S
C2846 C2850 1.368 . S
C2847 C2828 1.429 . S
C2847 C2841 1.429 . S
C2847 C2848 1.523 . S
C2848 C2829 1.368 . S
C2848 C2842 1.368 . S
C2848 C2847 1.523 . S
C2849 C2833 1.429 . S
C2849 C2845 1.429 . S
C2849 C2850 1.523 . S
C2850 C2834 1.368 . S
C2850 C2846 1.368 . S
C2850 C2849 1.523 . S
H2851 C2826 0.950 . S
H2852 C2828 0.950 . S
H2853 C2829 0.949 . S
H2854 C2831 0.950 . S
H2855 C2833 0.950 . S
C1417 C890 1.355 . S
C1422 C3 1.353 . S
C1447 C711 1.356 . S
C1452 C64 1.359 . S
C1477 C770 1.360 . S
C1482 C121 1.360 . S
C1507 C831 1.359 . S
C1512 C180 1.357 . S
C1537 C829 1.363 . S
C1542 C62 1.363 . S
C1567 C123 1.361 . S
C1572 C888 1.359 . S
C1597 C713 1.351 . S
C1602 C182 1.351 . S
C1627 C772 1.355 . S
C1632 C5 1.355 . S
C1657 C1067 1.349 . S
C1662 C241 1.349 . S
C1687 C298 1.367 . S
C1692 C1124 1.367 . S
C1717 C359 1.349 . S
C1722 C949 1.349 . S
C1747 C1006 1.365 . S
C1752 C416 1.365 . S
C1777 C1301 1.366 . S
C1782 C475 1.366 . S
C1807 C536 1.349 . S
C1812 C1362 1.349 . S
C1837 C593 1.365 . S
C1842 C1183 1.365 . S
C1867 C654 1.349 . S
C1872 C1244 1.349 . S
C1897 C1008 1.356 . S
C1902 C652 1.354 . S
C1927 C1360 1.357 . S
C1932 C300 1.359 . S
C1957 C357 1.358 . S
C1962 C1185 1.361 . S
C1987 C1242 1.357 . S
C1992 C418 1.359 . S
C2017 C1303 1.358 . S
C2022 C239 1.356 . S
C2047 C534 1.357 . S
C2052 C1126 1.359 . S
C2077 C947 1.353 . S
C2082 C595 1.355 . S
C2107 C1065 1.358 . S
C2112 C477 1.361 . S
C2137 C33 0.896 . S
C2142 C269 0.896 . S
C2167 C347 0.904 . S
C2172 C111 0.904 . S
C2197 C151 0.899 . S
C2202 C387 0.899 . S
C2227 C210 0.899 . S
C2232 C465 0.902 . S
C2257 C524 0.904 . S
C2262 C92 0.901 . S
C2287 C564 0.899 . S
C2292 C170 0.902 . S
C2317 C642 0.900 . S
C2322 C229 0.900 . S
C2347 C52 0.898 . S
C2352 C682 0.895 . S
C2377 C701 0.897 . S
C2382 C288 0.897 . S
C2407 C328 0.903 . S
C2412 C505 0.903 . S
C2437 C406 0.896 . S
C2442 C583 0.896 . S
C2467 C623 0.903 . S
C2472 C446 0.902 . S
C2497 C977 0.895 . S
C2502 C760 0.897 . S
C2527 C1055 0.902 . S
C2532 C819 0.902 . S
C2557 C859 0.899 . S
C2562 C1095 0.899 . S
C2587 C918 0.899 . S
C2592 C1173 0.902 . S
C2617 C800 0.900 . S
C2622 C1232 0.904 . S
C2647 C878 0.902 . S
C2652 C1272 0.899 . S
C2677 C1350 0.902 . S
C2682 C937 0.902 . S
C2707 C741 0.896 . S
C2712 C1390 0.896 . S
C2737 C996 0.897 . S
C2742 C1409 0.897 . S
C2767 C1213 0.902 . S
C2772 C1036 0.902 . S
C2797 C1114 0.896 . S
C2802 C1291 0.896 . S
C2827 C1331 0.903 . S
C2832 C1154 0.903 . S
