# Generated by pormake.
# Topology ecf, (8)-cn, num edge types: 1
# Building blocks:
#     Node 0, Type 0, BuildingBlock: TAGTUT_clean_sbu_1, # of connection points: 8
#     Node 1, Type 0, BuildingBlock: TAGTUT_clean_sbu_1, # of connection points: 8
#     Node 2, Type 0, BuildingBlock: TAGTUT_clean_sbu_1, # of connection points: 8
#     Node 3, Type 0, BuildingBlock: TAGTUT_clean_sbu_1, # of connection points: 8
#     Node 4, Type 0, BuildingBlock: TAGTUT_clean_sbu_1, # of connection points: 8
#     Node 5, Type 0, BuildingBlock: TAGTUT_clean_sbu_1, # of connection points: 8
#     Edge 6, Type (0, 0), BuildingBlock: CIFDUS_clean_linker_0, # of connection points: 2
#     Edge 7, Type (0, 0), BuildingBlock: CIFDUS_clean_linker_0, # of connection points: 2
#     Edge 8, Type (0, 0), BuildingBlock: CIFDUS_clean_linker_0, # of connection points: 2
#     Edge 9, Type (0, 0), BuildingBlock: CIFDUS_clean_linker_0, # of connection points: 2
#     Edge 10, Type (0, 0), BuildingBlock: CIFDUS_clean_linker_0, # of connection points: 2
#     Edge 11, Type (0, 0), BuildingBlock: CIFDUS_clean_linker_0, # of connection points: 2
#     Edge 12, Type (0, 0), BuildingBlock: CIFDUS_clean_linker_0, # of connection points: 2
#     Edge 13, Type (0, 0), BuildingBlock: CIFDUS_clean_linker_0, # of connection points: 2
#     Edge 14, Type (0, 0), BuildingBlock: CIFDUS_clean_linker_0, # of connection points: 2
#     Edge 15, Type (0, 0), BuildingBlock: CIFDUS_clean_linker_0, # of connection points: 2
#     Edge 16, Type (0, 0), BuildingBlock: CIFDUS_clean_linker_0, # of connection points: 2
#     Edge 17, Type (0, 0), BuildingBlock: CIFDUS_clean_linker_0, # of connection points: 2
#     Edge 18, Type (0, 0), BuildingBlock: CIFDUS_clean_linker_0, # of connection points: 2
#     Edge 19, Type (0, 0), BuildingBlock: CIFDUS_clean_linker_0, # of connection points: 2
#     Edge 20, Type (0, 0), BuildingBlock: CIFDUS_clean_linker_0, # of connection points: 2
#     Edge 21, Type (0, 0), BuildingBlock: CIFDUS_clean_linker_0, # of connection points: 2
#     Edge 22, Type (0, 0), BuildingBlock: CIFDUS_clean_linker_0, # of connection points: 2
#     Edge 23, Type (0, 0), BuildingBlock: CIFDUS_clean_linker_0, # of connection points: 2
#     Edge 24, Type (0, 0), BuildingBlock: CIFDUS_clean_linker_0, # of connection points: 2
#     Edge 25, Type (0, 0), BuildingBlock: CIFDUS_clean_linker_0, # of connection points: 2
#     Edge 26, Type (0, 0), BuildingBlock: CIFDUS_clean_linker_0, # of connection points: 2
#     Edge 27, Type (0, 0), BuildingBlock: CIFDUS_clean_linker_0, # of connection points: 2
#     Edge 28, Type (0, 0), BuildingBlock: CIFDUS_clean_linker_0, # of connection points: 2
#     Edge 29, Type (0, 0), BuildingBlock: CIFDUS_clean_linker_0, # of connection points: 2
# Relax obj value: 0.209
# Max RMSD: 0.208
# Mean RMSD: 0.189
data_MOF--net-ecf--node1-TAGTUT_clean_sbu_1--edge1-CIFDUS_clean_linker_0
_symmetry_space_group_name_H-M    P1
_symmetry_Int_Tables_number       1
_symmetry_cell_setting            triclinic
loop_
_symmetry_equiv_pos_as_xyz
'x, y, z'
_cell_length_a     30.147115
_cell_length_b     30.588033
_cell_length_c     24.41801
_cell_angle_alpha  97.275996
_cell_angle_beta   91.188798
_cell_angle_gamma 119.85457
loop_
_atom_site_label
_atom_site_type_symbol
_atom_site_fract_x
_atom_site_fract_y
_atom_site_fract_z
_atom_type_partial_charge
C0 C 0.0159 0.18882 0.16587 0.0
C1 C 0.11865 0.32926 0.11311 0.0
C2 C 0.27129 0.30064 0.1613 0.0
Mg3 Mg 0.08947 0.29876 0.22574 0.0
O4 O 0.13193 0.27037 0.23001 0.0
Mg5 Mg 0.14432 0.2432 0.1565 0.0
Mg6 Mg 0.20373 0.32301 0.25761 0.0
O7 O 0.27489 0.37745 0.28313 0.0
Mg8 Mg 0.33285 0.36921 0.27924 0.0
Mg9 Mg 0.26293 0.40946 0.35373 0.0
C10 C 0.13514 0.3406 0.35279 0.0
C11 C 0.20781 0.42991 0.25452 0.0
O12 O 0.05461 0.18571 0.14865 0.0
O13 O 0.02084 0.22879 0.19572 0.0
O14 O 0.13033 0.29431 0.10603 0.0
O15 O 0.1059 0.34169 0.15925 0.0
O16 O 0.10166 0.33132 0.31282 0.0
O17 O 0.17695 0.33969 0.34382 0.0
C18 C 0.18861 0.21332 0.2586 0.0
O19 O 0.2114 0.25907 0.28471 0.0
O20 O 0.16184 0.19935 0.21163 0.0
O21 O 0.3457 0.47645 0.3512 0.0
O22 O 0.38889 0.45031 0.2944 0.0
O23 O 0.29512 0.37155 0.40453 0.0
C24 C 0.3856 0.48541 0.32579 0.0
O25 O 0.33701 0.33988 0.35445 0.0
O26 O 0.31267 0.32204 0.19496 0.0
C27 C 0.32104 0.34871 0.4004 0.0
O28 O 0.2314 0.30365 0.17454 0.0
O29 O 0.19269 0.38512 0.22894 0.0
O30 O 0.23365 0.44661 0.30182 0.0
C31 C 0.88169 0.36495 0.67325 0.0
C32 C 0.9604 0.2834 0.60761 0.0
C33 C 0.78189 0.11808 0.66157 0.0
Mg34 Mg 0.94842 0.32586 0.72382 0.0
O35 O 0.88176 0.26921 0.72366 0.0
Mg36 Mg 0.83863 0.23795 0.65122 0.0
Mg37 Mg 0.87078 0.20611 0.75057 0.0
O38 O 0.85989 0.14337 0.77867 0.0
Mg39 Mg 0.79206 0.09423 0.78339 0.0
Mg40 Mg 0.905 0.17387 0.85018 0.0
C41 C 0.95749 0.29667 0.84364 0.0
C42 C 0.97357 0.19856 0.74428 0.0
O43 O 0.85007 0.3191 0.64919 0.0
O44 O 0.92206 0.37639 0.70422 0.0
O45 O 0.911 0.25741 0.60176 0.0
O46 O 0.98474 0.31116 0.65369 0.0
O47 O 0.97574 0.32838 0.80892 0.0
O48 O 0.9166 0.2526 0.83206 0.0
C49 C 0.76018 0.20016 0.74769 0.0
O50 O 0.79287 0.19546 0.77721 0.0
O51 O 0.77027 0.21688 0.70131 0.0
O52 O 0.88674 0.09059 0.85537 0.0
O53 O 0.8092 0.0392 0.80661 0.0
O54 O 0.83855 0.1564 0.90683 0.0
C55 C 0.84838 0.046 0.83617 0.0
O56 O 0.7631 0.11431 0.85535 0.0
O57 O 0.76313 0.09014 0.69961 0.0
C58 C 0.78936 0.13315 0.90253 0.0
O59 O 0.82595 0.15942 0.66877 0.0
O60 O 0.94489 0.21177 0.72036 0.0
O61 O 0.96629 0.18472 0.79213 0.0
C62 C 0.50378 0.88445 0.18774 0.0
C63 C 0.65661 0.95175 0.12807 0.0
C64 C 0.64612 0.77769 0.18669 0.0
Mg65 Mg 0.61574 0.95009 0.24235 0.0
O66 O 0.6069 0.88523 0.24343 0.0
Mg67 Mg 0.58323 0.83635 0.17247 0.0
Mg68 Mg 0.66167 0.87384 0.27334 0.0
O69 O 0.71476 0.86097 0.30473 0.0
Mg70 Mg 0.69398 0.79348 0.31025 0.0
Mg71 Mg 0.7384 0.90963 0.37613 0.0
C72 C 0.67474 0.96961 0.36084 0.0
C73 C 0.77522 0.96958 0.26912 0.0
O74 O 0.51511 0.85138 0.16523 0.0
O75 O 0.53634 0.92514 0.22029 0.0
O76 O 0.63169 0.90264 0.12111 0.0
O77 O 0.65854 0.97829 0.17368 0.0
O78 O 0.65476 0.98425 0.32556 0.0
O79 O 0.6735 0.92667 0.35273 0.0
C80 C 0.55215 0.7706 0.27464 0.0
O81 O 0.59578 0.80294 0.30147 0.0
O82 O 0.53889 0.77522 0.22648 0.0
O83 O 0.80126 0.88767 0.38614 0.0
O84 O 0.7686 0.80869 0.33701 0.0
O85 O 0.69098 0.84758 0.43207 0.0
C86 C 0.80482 0.84834 0.36769 0.0
O87 O 0.65147 0.77055 0.37974 0.0
O88 O 0.65943 0.76063 0.2256 0.0
C89 C 0.66254 0.79886 0.42671 0.0
O90 O 0.65033 0.82198 0.19343 0.0
O91 O 0.73007 0.94254 0.24321 0.0
O92 O 0.78536 0.96446 0.31829 0.0
C93 C 0.94531 0.76532 0.68521 0.0
C94 C 0.84051 0.61798 0.61355 0.0
C95 C 0.6951 0.65934 0.66654 0.0
Mg96 Mg 0.88051 0.66774 0.73416 0.0
O97 O 0.84045 0.69895 0.73918 0.0
Mg98 Mg 0.81836 0.71143 0.66739 0.0
Mg99 Mg 0.77238 0.65307 0.7611 0.0
O100 O 0.70415 0.6047 0.78007 0.0
Mg101 Mg 0.64889 0.61686 0.77565 0.0
Mg102 Mg 0.7251 0.59052 0.85093 0.0
C103 C 0.85155 0.65247 0.85727 0.0
C104 C 0.7642 0.5421 0.75077 0.0
O105 O 0.90501 0.76391 0.66443 0.0
O106 O 0.9443 0.7329 0.71414 0.0
O107 O 0.8258 0.65031 0.61155 0.0
O108 O 0.8582 0.61345 0.65908 0.0
O109 O 0.88146 0.65444 0.81971 0.0
O110 O 0.81005 0.65363 0.84612 0.0
C111 C 0.79137 0.76713 0.77275 0.0
O112 O 0.7706 0.72588 0.79404 0.0
O113 O 0.81157 0.77044 0.72671 0.0
O114 O 0.64107 0.52777 0.84393 0.0
O115 O 0.59104 0.54164 0.78689 0.0
O116 O 0.705 0.64636 0.90149 0.0
C117 C 0.59782 0.51383 0.81726 0.0
O118 O 0.66188 0.66982 0.84762 0.0
O119 O 0.65777 0.64585 0.69715 0.0
C120 C 0.68344 0.67249 0.89423 0.0
O121 O 0.73464 0.65554 0.6791 0.0
O122 O 0.77743 0.58196 0.72834 0.0
O123 O 0.74385 0.53641 0.79669 0.0
C124 C 0.17739 0.9575 0.21123 0.0
C125 C 0.20178 0.85066 0.11663 0.0
C126 C 0.01767 0.7086 0.14573 0.0
Mg127 Mg 0.20542 0.87944 0.24012 0.0
O128 O 0.13402 0.84582 0.24341 0.0
Mg129 Mg 0.09311 0.8337 0.17189 0.0
Mg130 Mg 0.1105 0.7749 0.25175 0.0
O131 O 0.0895 0.70436 0.25741 0.0
Mg132 Mg 0.02071 0.65023 0.24413 0.0
Mg133 Mg 0.13311 0.71622 0.32641 0.0
C134 C 0.20052 0.84337 0.35632 0.0
C135 C 0.21124 0.76377 0.23439 0.0
O136 O 0.13272 0.92192 0.18869 0.0
O137 O 0.21119 0.9495 0.23256 0.0
O138 O 0.15606 0.84306 0.11434 0.0
O139 O 0.22699 0.85889 0.16281 0.0
O140 O 0.2277 0.87126 0.32127 0.0
O141 O 0.15546 0.80348 0.34126 0.0
C142 C 0.01988 0.79819 0.2728 0.0
O143 O 0.04065 0.77302 0.2867 0.0
O144 O 0.03343 0.82369 0.23234 0.0
O145 O 0.11041 0.63256 0.29875 0.0
O146 O 0.03951 0.59087 0.23736 0.0
O147 O 0.0622 0.68961 0.37611 0.0
C148 C 0.07754 0.59314 0.26463 0.0
O149 O 0.98811 0.6508 0.32148 0.0
O150 O -0.00482 0.66872 0.16948 0.0
C151 C 0.01302 0.66653 0.36952 0.0
O152 O 0.06196 0.74696 0.16602 0.0
O153 O 0.18247 0.77963 0.21675 0.0
O154 O 0.20107 0.7397 0.27554 0.0
C155 C 0.21148 0.1799 0.6702 0.0
C156 C 0.363 0.22611 0.64064 0.0
C157 C 0.31765 0.03329 0.6467 0.0
Mg158 Mg 0.30812 0.20742 0.74634 0.0
O159 O 0.27777 0.13598 0.73033 0.0
Mg160 Mg 0.26747 0.10756 0.64912 0.0
Mg161 Mg 0.32374 0.11251 0.75715 0.0
O162 O 0.37223 0.09218 0.78307 0.0
Mg163 Mg 0.36439 0.02754 0.76277 0.0
Mg164 Mg 0.38898 0.12388 0.86331 0.0
C165 C 0.32213 0.18518 0.86969 0.0
C166 C 0.4335 0.2153 0.79148 0.0
O167 O 0.21192 0.14094 0.6434 0.0
O168 O 0.24434 0.20949 0.71115 0.0
O169 O 0.33009 0.17973 0.62207 0.0
O170 O 0.36597 0.2453 0.69104 0.0
O171 O 0.31933 0.21377 0.83689 0.0
O172 O 0.32226 0.14354 0.85081 0.0
C173 C 0.21238 0.01614 0.71989 0.0
O174 O 0.25122 0.03598 0.75646 0.0
O175 O 0.21034 0.0378 0.67918 0.0
O176 O 0.45874 0.10936 0.86228 0.0
O177 O 0.44283 0.05144 0.7866 0.0
O178 O 0.33607 0.04461 0.8897 0.0
C179 C 0.47296 0.08423 0.82787 0.0
O180 O 0.31532 0.98151 0.81872 0.0
O181 O 0.33227 0.0104 0.67682 0.0
C182 C 0.31233 -0.00281 0.86856 0.0
O183 O 0.3229 0.07742 0.66553 0.0
O184 O 0.39432 0.18997 0.75574 0.0
O185 O 0.43924 0.19832 0.83449 0.0
H186 H 0.10967 0.40571 0.24091 0.0
H187 H 0.26486 0.52471 0.22975 0.0
H188 H 0.2356 0.58591 0.22536 0.0
H189 H 0.16866 0.60742 0.24042 0.0
H190 H 0.01353 0.48977 0.25468 0.0
H191 H 0.0395 0.42492 0.24091 0.0
C192 C 0.13642 0.44434 0.23442 0.0
C193 C 0.18894 0.46092 0.2343 0.0
C194 C 0.11951 0.47935 0.23403 0.0
C195 C 0.22412 0.51151 0.22891 0.0
C196 C 0.2075 0.54638 0.22705 0.0
C197 C 0.14054 0.56742 0.24001 0.0
C198 C 0.08985 0.55293 0.25012 0.0
C199 C 0.15578 0.53112 0.23227 0.0
C200 C 0.053 0.50129 0.24784 0.0
C201 C 0.06785 0.46451 0.23998 0.0
H202 H 0.52068 0.0735 0.74035 0.0
H203 H 0.55061 0.13627 0.9143 0.0
H204 H 0.64362 0.17565 0.90686 0.0
H205 H 0.71685 0.19746 0.84753 0.0
H206 H 0.68074 0.14279 0.67139 0.0
H207 H 0.59009 0.09517 0.68311 0.0
C208 C 0.54723 0.09491 0.77718 0.0
C209 C 0.52852 0.10134 0.82795 0.0
C210 C 0.59994 0.11972 0.77183 0.0
C211 C 0.56395 0.13032 0.87473 0.0
C212 C 0.61713 0.15317 0.87035 0.0
C213 C 0.6889 0.17519 0.812 0.0
C214 C 0.70554 0.17397 0.75859 0.0
C215 C 0.6357 0.14917 0.81863 0.0
C216 C 0.66901 0.14489 0.71282 0.0
C217 C 0.61704 0.11735 0.71942 0.0
H218 H 0.3725 0.56688 0.33354 0.0
H219 H 0.48852 0.52397 0.31796 0.0
H220 H 0.55272 0.61176 0.30851 0.0
H221 H 0.57335 0.69836 0.29526 0.0
H222 H 0.45426 0.73723 0.29914 0.0
H223 H 0.39351 0.6535 0.32311 0.0
C224 C 0.41209 0.57698 0.32922 0.0
C225 C 0.42596 0.5392 0.32686 0.0
C226 C 0.44799 0.62674 0.3214 0.0
C227 C 0.47707 0.55251 0.31995 0.0
C228 C 0.51366 0.6026 0.31446 0.0
C229 C 0.53439 0.68868 0.30277 0.0
C230 C 0.51812 0.72371 0.29661 0.0
C231 C 0.49927 0.63972 0.31386 0.0
C232 C 0.46736 0.71071 0.30445 0.0
C233 C 0.43275 0.66291 0.31786 0.0
H234 H 0.78544 0.35054 0.66952 0.0
H235 H 0.94503 0.46779 0.68063 0.0
H236 H 0.92158 0.53371 0.7004 0.0
H237 H 0.85707 0.55713 0.727 0.0
H238 H 0.69846 0.44011 0.72256 0.0
H239 H 0.72003 0.37454 0.68903 0.0
C240 C 0.81492 0.39055 0.67473 0.0
C241 C 0.86689 0.40435 0.67332 0.0
C242 C 0.80134 0.42809 0.6885 0.0
C243 C 0.90479 0.45631 0.6814 0.0
C244 C 0.89143 0.49395 0.69307 0.0
C245 C 0.82707 0.51748 0.71652 0.0
C246 C 0.77614 0.50333 0.72556 0.0
C247 C 0.84004 0.48021 0.69844 0.0
C248 C 0.73784 0.45163 0.71517 0.0
C249 C 0.75019 0.4143 0.69605 0.0
H250 H 0.28935 0.85865 0.23263 0.0
H251 H 0.24349 0.70007 0.18882 0.0
H252 H 0.32958 0.7241 0.16151 0.0
H253 H 0.4196 0.79016 0.15997 0.0
H254 H 0.46582 0.94888 0.20809 0.0
H255 H 0.3769 0.92504 0.22101 0.0
C256 C 0.29762 0.82953 0.21466 0.0
C257 C 0.26011 0.77783 0.2109 0.0
C258 C 0.34715 0.84372 0.19996 0.0
C259 C 0.27191 0.74013 0.19109 0.0
C260 C 0.321 0.75389 0.17561 0.0
C261 C 0.4101 0.81968 0.17188 0.0
C262 C 0.44937 0.87123 0.18346 0.0
C263 C 0.35924 0.80559 0.18111 0.0
C264 C 0.43637 0.90892 0.19931 0.0
C265 C 0.3856 0.89531 0.207 0.0
H266 H 0.41156 0.28931 0.78656 0.0
H267 H 0.53637 0.25886 0.79456 0.0
H268 H 0.59864 0.35034 0.80495 0.0
H269 H 0.6165 0.43749 0.81532 0.0
H270 H 0.49284 0.46969 0.80393 0.0
H271 H 0.42994 0.37772 0.79016 0.0
C272 C 0.45238 0.30279 0.78801 0.0
C273 C 0.46997 0.26815 0.78782 0.0
C274 C 0.48749 0.35509 0.79452 0.0
C275 C 0.52266 0.28548 0.7935 0.0
C276 C 0.55795 0.33746 0.79984 0.0
C277 C 0.57572 0.4245 0.8106 0.0
C278 C 0.55885 0.45985 0.81212 0.0
C279 C 0.54063 0.37242 0.8014 0.0
C280 C 0.50624 0.44274 0.80382 0.0
C281 C 0.47057 0.39046 0.79569 0.0
H282 H 0.26023 0.19079 0.23396 0.0
H283 H 0.12706 0.14791 0.32393 0.0
H284 H 0.11112 0.06064 0.31671 0.0
H285 H 0.12649 -0.00567 0.26949 0.0
H286 H 0.25762 0.03662 0.17587 0.0
H287 H 0.28251 0.1268 0.19766 0.0
C288 C 0.22942 0.16273 0.25434 0.0
C289 C 0.19498 0.17474 0.27971 0.0
C290 C 0.21868 0.11243 0.24647 0.0
C291 C 0.15434 0.13882 0.30517 0.0
C292 C 0.14457 0.0889 0.29977 0.0
C293 C 0.1601 0.02355 0.25357 0.0
C294 C 0.18922 0.00988 0.21943 0.0
C295 C 0.17468 0.0748 0.26755 0.0
C296 C 0.23405 0.0472 0.20071 0.0
C297 C 0.24859 0.09841 0.21384 0.0
H298 H 0.06418 0.26489 0.70701 0.0
H299 H 0.95899 0.10557 0.71074 0.0
H300 H 0.02084 0.0833 0.6733 0.0
H301 H 0.11017 0.1108 0.65713 0.0
H302 H 0.21872 0.27073 0.66247 0.0
H303 H 0.1506 0.29117 0.67669 0.0
C304 C 0.05469 0.22537 0.69814 0.0
C305 C 0.00779 0.18687 0.71189 0.0
C306 C 0.09127 0.21301 0.67841 0.0
C307 C -0.0046 0.13568 0.70067 0.0
C308 C 0.03067 0.12295 0.67936 0.0
C309 C 0.11829 0.14978 0.65912 0.0
C310 C 0.16903 0.18921 0.65901 0.0
C311 C 0.07956 0.16146 0.67043 0.0
C312 C 0.17962 0.23981 0.66257 0.0
C313 C 0.14084 0.25157 0.67128 0.0
H314 H -0.00748 0.09663 0.1882 0.0
H315 H 0.92453 0.18097 0.13525 0.0
H316 H 0.83971 0.11516 0.1553 0.0
H317 H 0.78827 0.04132 0.20384 0.0
H318 H 0.8613 0.96486 0.26706 0.0
H319 H 0.94012 0.01921 0.22743 0.0
C320 C 0.95873 0.09947 0.17905 0.0
C321 C 0.96442 0.14307 0.15999 0.0
C322 C 0.91103 0.06344 0.19424 0.0
C323 C 0.92071 0.14726 0.1496 0.0
C324 C 0.87239 0.11001 0.16171 0.0
C325 C 0.82132 0.03636 0.20802 0.0
C326 C 0.81956 3e-05 0.23908 0.0
C327 C 0.86753 0.06919 0.18669 0.0
C328 C 0.86236 -0.00651 0.24423 0.0
C329 C 0.90737 0.02434 0.22137 0.0
H330 H 0.76811 0.95568 0.85049 0.0
H331 H 0.93151 0.033 0.83779 0.0
H332 H 0.92882 0.95099 0.82466 0.0
H333 H 0.87726 0.85756 0.80001 0.0
H334 H 0.71367 0.78016 0.80986 0.0
H335 H 0.71884 0.86214 0.84163 0.0
C336 C 0.80329 0.95452 0.84616 0.0
C337 C 0.84979 -0.00014 0.84398 0.0
C338 C 0.80112 0.90737 0.83744 0.0
C339 C 0.89534 -0.00159 0.83944 0.0
C340 C 0.89368 0.95156 0.83138 0.0
C341 C 0.84304 0.85883 0.8104 0.0
C342 C 0.79509 0.81362 0.80244 0.0
C343 C 0.84642 0.90586 0.82769 0.0
C344 C 0.75085 0.81487 0.81613 0.0
C345 C 0.75385 0.86162 0.83381 0.0
H346 H 0.82163 0.77041 0.37465 0.0
H347 H 0.89927 0.93252 0.37158 0.0
H348 H 0.97716 0.93186 0.34764 0.0
H349 H 0.0159 0.88214 0.30929 0.0
H350 H 0.93897 0.72011 0.3116 0.0
H351 H 0.86756 0.72346 0.35436 0.0
C352 C 0.85621 0.80578 0.37041 0.0
C353 C 0.85472 0.8512 0.37353 0.0
C354 C 0.90018 0.80479 0.35516 0.0
C355 C 0.89967 0.8971 0.36914 0.0
C356 C 0.94392 0.8966 0.35471 0.0
C357 C 0.98369 0.84778 0.31992 0.0
C358 C 0.98123 0.8007 0.30597 0.0
C359 C 0.94342 0.8502 0.34452 0.0
C360 C 0.94066 0.75651 0.32128 0.0
C361 C 0.90007 0.75848 0.34563 0.0
H362 H 0.14439 0.95385 0.63457 0.0
H363 H 0.18231 0.96705 0.80963 0.0
H364 H 0.1038 0.8852 0.81219 0.0
H365 H 0.02137 0.81575 0.76601 0.0
H366 H 0.97916 0.81028 0.59423 0.0
H367 H 0.06312 0.88534 0.58882 0.0
C368 C 0.1355 0.939 0.67346 0.0
C369 C 0.16849 0.96598 0.7221 0.0
C370 C 0.08972 0.89426 0.675 0.0
C371 C 0.15738 0.94605 0.77179 0.0
C372 C 0.11249 0.89989 0.77327 0.0
C373 C 0.03102 0.8309 0.72733 0.0
C374 C -0.00485 0.80842 0.68046 0.0
C375 C 0.07799 0.8745 0.72534 0.0
C376 C 0.00679 0.82792 0.63061 0.0
C377 C 0.05446 0.87035 0.62759 0.0
H378 H 0.3331 0.26095 0.12796 0.0
H379 H 0.20869 0.27923 0.06736 0.0
H380 H 0.21231 0.24305 0.97377 0.0
H381 H 0.25389 0.2113 0.90755 0.0
H382 H 0.37549 0.18837 0.96578 0.0
H383 H 0.36964 0.22064 0.0616 0.0
C384 C 0.30648 0.25666 0.09437 0.0
C385 C 0.27078 0.27343 0.10522 0.0
C386 C 0.30841 0.23505 0.04004 0.0
C387 C 0.23637 0.2668 0.0609 0.0
C388 C 0.2386 0.24623 0.00705 0.0
C389 C 0.27892 0.21289 0.94126 0.0
C390 C 0.31548 0.19777 0.92923 0.0
C391 C 0.2749 0.23099 0.99597 0.0
C392 C 0.347 0.19952 0.97364 0.0
C393 C 0.34377 0.21833 0.02842 0.0
H394 H 0.06453 0.34369 0.59707 0.0
H395 H 0.92145 0.22521 0.50581 0.0
H396 H 0.96412 0.23183 0.42148 0.0
H397 H 0.0393 0.27375 0.37185 0.0
H398 H 0.18423 0.39172 0.4585 0.0
H399 H 0.14377 0.38235 0.54652 0.0
C400 C 0.0428 0.31893 0.55887 0.0
C401 C 0.98932 0.28426 0.55819 0.0
C402 C 0.0678 0.32309 0.50958 0.0
C403 C 0.96221 0.25247 0.50806 0.0
C404 C 0.98664 0.25626 0.45953 0.0
C405 C 0.06236 0.29777 0.40989 0.0
C406 C 0.11461 0.33434 0.40824 0.0
C407 C 0.03896 0.29202 0.45959 0.0
C408 C 0.14393 0.3637 0.45838 0.0
C409 C 0.12064 0.35833 0.50861 0.0
H410 H 0.72558 0.05341 0.13064 0.0
H411 H 0.6373 0.91143 0.01807 0.0
H412 H 0.66554 0.95697 0.93913 0.0
H413 H 0.715 0.03624 0.90185 0.0
H414 H 0.81024 0.17758 0.01238 0.0
H415 H 0.77824 0.13338 0.09259 0.0
C416 C 0.71266 0.03234 0.08883 0.0
C417 C 0.67906 0.97889 0.08048 0.0
C418 C 0.72932 0.05884 0.04337 0.0
C419 C 0.66325 0.95235 0.02594 0.0
C420 C 0.679 0.97847 0.98069 0.0
C421 C 0.72774 0.05783 0.94346 0.0
C422 C 0.76362 0.11061 0.95113 0.0
C423 C 0.71153 0.03167 0.98893 0.0
C424 C 0.78157 0.13732 1.00541 0.0
C425 C 0.76378 0.11186 0.05116 0.0
H426 H 0.65028 0.71636 0.65433 0.0
H427 H 0.73609 0.65501 0.56898 0.0
H428 H 0.72968 0.69002 0.48641 0.0
H429 H 0.70009 0.73795 0.43876 0.0
H430 H 0.62219 0.80743 0.52557 0.0
H431 H 0.62451 0.76894 0.60761 0.0
C432 C 0.66744 0.71057 0.61754 0.0
C433 C 0.69321 0.68261 0.61749 0.0
C434 C 0.66458 0.73188 0.57063 0.0
C435 C 0.71614 0.67631 0.57003 0.0
C436 C 0.71226 0.69613 0.52279 0.0
C437 C 0.68286 0.744 0.47543 0.0
C438 C 0.65956 0.77413 0.47582 0.0
C439 C 0.6864 0.7237 0.5226 0.0
C440 C 0.63931 0.78351 0.52412 0.0
C441 C 0.64094 0.76172 0.57091 0.0
H442 H 0.94941 0.71501 0.90145 0.0
H443 H 0.8003 0.60665 0.94483 0.0
H444 H 0.83823 0.61585 0.0389 0.0
H445 H 0.9153 0.65194 0.10708 0.0
H446 H 0.06283 0.76412 0.06331 0.0
H447 H 0.02393 0.75667 0.97137 0.0
C448 C 0.92507 0.69333 0.93149 0.0
C449 C 0.87214 0.65937 0.91577 0.0
C450 C 0.94699 0.69973 0.98548 0.0
C451 C 0.84106 0.63268 0.95565 0.0
C452 C 0.86287 0.63796 0.00938 0.0
C453 C 0.93889 0.67513 0.07761 0.0
C454 C -0.00772 0.70844 0.09233 0.0
C455 C 0.91598 0.67095 0.02457 0.0
C456 C 0.02189 0.73848 0.0536 0.0
C457 C -0.00037 0.73394 1.00073 0.0
H458 H 0.26632 0.93027 0.61335 0.0
H459 H 0.31021 0.07162 0.55285 0.0
H460 H 0.27659 0.0244 0.4585 0.0
H461 H 0.23988 0.94407 0.39286 0.0
H462 H 0.19273 0.80195 0.45279 0.0
H463 H 0.22254 0.84853 0.54826 0.0
C464 C 0.26842 0.95091 0.5796 0.0
C465 C 0.29169 0.00487 0.59028 0.0
C466 C 0.24883 0.92336 0.52551 0.0
C467 C 0.29284 0.03047 0.54608 0.0
C468 C 0.27383 0.00339 0.49206 0.0
C469 C 0.2362 0.92305 0.42672 0.0
C470 C 0.21514 0.86942 0.41535 0.0
C471 C 0.25272 0.95003 0.48121 0.0
C472 C 0.20922 0.84299 0.46009 0.0
C473 C 0.22634 0.86975 0.51462 0.0
H474 H 0.64194 0.63294 0.98325 0.0
H475 H 0.70345 0.7707 0.91112 0.0
H476 H 0.68784 0.81428 0.99347 0.0
H477 H 0.66462 0.8144 0.08954 0.0
H478 H 0.60228 0.67519 0.15998 0.0
H479 H 0.60797 0.62981 0.07335 0.0
C480 C 0.65205 0.67259 0.98593 0.0
C481 C 0.67525 0.69951 0.94281 0.0
C482 C 0.64182 0.69649 0.03231 0.0
C483 C 0.68656 0.75005 0.94493 0.0
C484 C 0.6773 0.77464 0.99163 0.0
C485 C 0.65076 0.77378 0.08521 0.0
C486 C 0.63393 0.74818 0.13098 0.0
C487 C 0.65574 0.74839 0.03598 0.0
C488 C 0.61599 0.69561 0.12518 0.0
C489 C 0.6197 0.66983 0.07601 0.0
H490 H 0.9104 0.62975 0.37736 0.0
H491 H 0.05145 0.66955 0.4725 0.0
H492 H 0.00533 0.64293 0.55344 0.0
H493 H 0.92785 0.61739 0.59997 0.0
H494 H 0.78892 0.58831 0.51001 0.0
H495 H 0.83036 0.59851 0.42354 0.0
C496 C 0.93098 0.63249 0.41578 0.0
C497 C 0.98446 0.65235 0.41892 0.0
C498 C 0.90429 0.61773 0.46278 0.0
C499 C 0.01049 0.65538 0.46901 0.0
C500 C 0.98406 0.63958 0.51529 0.0
C501 C 0.90589 0.61114 0.56108 0.0
C502 C 0.85533 0.60175 0.5612 0.0
C503 C 0.93121 0.62146 0.51289 0.0
C504 C 0.82774 0.59489 0.51068 0.0
C505 C 0.85178 0.60182 0.46154 0.0
H506 H 0.35234 0.9848 0.9601 0.0
H507 H 0.21185 0.92223 0.85418 0.0
H508 H 0.16471 0.863 0.91839 0.0
H509 H 0.16285 0.83731 0.01027 0.0
H510 H 0.30556 0.89604 0.11238 0.0
H511 H 0.35305 0.94637 0.04244 0.0
C512 C 0.31142 0.95795 0.95125 0.0
C513 C 0.28469 0.95909 0.90438 0.0
C514 C 0.28537 0.92284 0.98702 0.0
C515 C 0.23236 0.92304 0.89145 0.0
C516 C 0.2057 0.88892 0.92776 0.0
C517 C 0.20447 0.85996 0.01655 0.0
C518 C 0.23035 0.86421 0.06728 0.0
C519 C 0.23164 0.88953 0.9765 0.0
C520 C 0.28443 0.89267 0.07415 0.0
C521 C 0.3117 0.92205 0.03445 0.0
H522 H 0.36147 0.31239 0.63928 0.0
H523 H 0.40298 0.21136 0.5454 0.0
H524 H 0.3975 0.24425 0.46066 0.0
H525 H 0.36509 0.29004 0.41125 0.0
H526 H 0.31319 0.38231 0.50621 0.0
H527 H 0.33709 0.36354 0.59191 0.0
C528 C 0.37165 0.29929 0.60075 0.0
C529 C 0.38297 0.25987 0.59853 0.0
C530 C 0.36408 0.3151 0.55175 0.0
C531 C 0.39484 0.24226 0.54809 0.0
C532 C 0.39059 0.26027 0.49949 0.0
C533 C 0.3593 0.30622 0.45071 0.0
C534 C 0.33642 0.33672 0.45196 0.0
C535 C 0.3724 0.29458 0.50035 0.0
C536 C 0.32966 0.35779 0.50363 0.0
C537 C 0.34383 0.34755 0.55293 0.0
H538 H 0.03459 0.33438 0.09316 0.0
H539 H 0.17102 0.35262 0.02124 0.0
H540 H 0.13443 0.35108 0.92983 0.0
H541 H 0.05788 0.33037 0.86895 0.0
H542 H 0.91678 0.29578 0.94067 0.0
H543 H 0.96032 0.31719 0.03392 0.0
C544 C 0.05701 0.33985 0.05779 0.0
C545 C 0.10546 0.34424 0.06351 0.0
C546 C 0.03405 0.33438 1.00527 0.0
C547 C 0.13378 0.34982 0.01741 0.0
C548 C 0.1126 0.34824 0.96526 0.0
C549 C 0.03719 0.32823 0.90529 0.0
C550 C 0.98458 0.31154 0.89885 0.0
C551 C 0.06187 0.33818 0.95838 0.0
C552 C 0.95736 0.30817 0.94541 0.0
C553 C 0.98222 0.32063 0.99844 0.0
H554 H 0.82094 0.12862 0.56268 0.0
H555 H 0.6786 0.06099 0.63891 0.0
H556 H 0.63183 0.01072 0.55002 0.0
H557 H 0.63325 0.97811 0.45363 0.0
H558 H 0.77569 0.0407 0.37829 0.0
H559 H 0.82125 0.10045 0.46403 0.0
C560 C 0.77951 0.10393 0.5593 0.0
C561 C 0.75307 0.09836 0.60679 0.0
C562 C 0.75335 0.07321 0.50878 0.0
C563 C 0.69954 0.06585 0.60251 0.0
C564 C 0.67289 0.03674 0.55196 0.0
C565 C 0.67425 0.00501 0.45643 0.0
C566 C 0.70184 0.00488 0.41135 0.0
C567 C 0.69973 0.03867 0.50546 0.0
C568 C 0.75453 0.03992 0.41381 0.0
C569 C 0.78027 0.07416 0.46237 0.0
loop_
_geom_bond_atom_site_label_1
_geom_bond_atom_site_label_2
_geom_bond_distance
_geom_bond_site_symmetry_2
_ccdc_geom_bond_type
C0 O12 1.241 1_655 S
C0 O13 1.280 . S
C1 O14 1.277 . S
C1 O15 1.245 . S
C2 O26 1.247 . S
C2 O28 1.289 . S
Mg3 O4 1.926 . S
Mg3 O13 1.984 1_455 S
Mg3 O15 1.988 . S
Mg3 O16 2.061 . S
O4 Mg3 1.926 . S
O4 Mg5 1.986 . S
O4 Mg6 1.917 . S
Mg5 O4 1.986 . S
Mg5 O12 2.042 . S
Mg5 O14 2.041 . S
Mg5 O20 2.038 . S
Mg5 O28 2.238 . S
Mg6 O4 1.917 . S
Mg6 O7 1.917 . S
Mg6 O17 2.106 . S
Mg6 O19 2.079 . S
Mg6 O28 2.106 . S
Mg6 O29 2.079 . S
O7 Mg6 1.917 . S
O7 Mg8 1.926 . S
O7 Mg9 1.986 . S
Mg8 O7 1.926 . S
Mg8 O22 1.984 . S
Mg8 O25 1.988 . S
Mg8 O26 2.061 . S
Mg9 O7 1.986 . S
Mg9 O17 2.238 . S
Mg9 O21 2.042 . S
Mg9 O23 2.041 . S
Mg9 O30 2.038 . S
C10 O16 1.247 . S
C10 O17 1.289 . S
C11 O29 1.245 . S
C11 O30 1.274 . S
O12 C0 1.241 1_455 S
O12 Mg5 2.042 . S
O13 C0 1.280 . S
O13 Mg3 1.984 1_655 S
O14 C1 1.277 . S
O14 Mg5 2.041 . S
O15 C1 1.245 . S
O15 Mg3 1.988 . S
O16 Mg3 2.061 . S
O16 C10 1.247 . S
O17 Mg6 2.106 . S
O17 Mg9 2.238 . S
O17 C10 1.289 . S
C18 O19 1.245 . S
C18 O20 1.274 . S
O19 Mg6 2.079 . S
O19 C18 1.245 . S
O20 Mg5 2.038 . S
O20 C18 1.274 . S
O21 Mg9 2.042 . S
O21 C24 1.241 . S
O22 Mg8 1.984 . S
O22 C24 1.280 . S
O23 Mg9 2.041 . S
O23 C27 1.277 . S
C24 O21 1.241 . S
C24 O22 1.280 . S
O25 Mg8 1.988 . S
O25 C27 1.245 . S
O26 C2 1.247 . S
O26 Mg8 2.061 . S
C27 O23 1.277 . S
C27 O25 1.245 . S
O28 C2 1.289 . S
O28 Mg5 2.238 . S
O28 Mg6 2.106 . S
O29 Mg6 2.079 . S
O29 C11 1.245 . S
O30 Mg9 2.038 . S
O30 C11 1.274 . S
C31 O43 1.241 . S
C31 O44 1.280 . S
C32 O45 1.277 . S
C32 O46 1.245 . S
C33 O57 1.247 . S
C33 O59 1.289 . S
Mg34 O35 1.926 . S
Mg34 O44 1.984 . S
Mg34 O46 1.988 . S
Mg34 O47 2.061 . S
O35 Mg34 1.926 . S
O35 Mg36 1.986 . S
O35 Mg37 1.917 . S
Mg36 O35 1.986 . S
Mg36 O43 2.042 . S
Mg36 O45 2.041 . S
Mg36 O51 2.038 . S
Mg36 O59 2.238 . S
Mg37 O35 1.917 . S
Mg37 O38 1.917 . S
Mg37 O48 2.106 . S
Mg37 O50 2.079 . S
Mg37 O59 2.106 . S
Mg37 O60 2.079 . S
O38 Mg37 1.917 . S
O38 Mg39 1.926 . S
O38 Mg40 1.986 . S
Mg39 O38 1.926 . S
Mg39 O53 1.984 1_545 S
Mg39 O56 1.988 . S
Mg39 O57 2.061 . S
Mg40 O38 1.986 . S
Mg40 O48 2.238 . S
Mg40 O52 2.042 . S
Mg40 O54 2.041 . S
Mg40 O61 2.038 . S
C41 O47 1.247 . S
C41 O48 1.289 . S
C42 O60 1.245 . S
C42 O61 1.274 . S
O43 C31 1.241 . S
O43 Mg36 2.042 . S
O44 C31 1.280 . S
O44 Mg34 1.984 . S
O45 C32 1.277 . S
O45 Mg36 2.041 . S
O46 C32 1.245 . S
O46 Mg34 1.988 . S
O47 Mg34 2.061 . S
O47 C41 1.247 . S
O48 Mg37 2.106 . S
O48 Mg40 2.238 . S
O48 C41 1.289 . S
C49 O50 1.245 . S
C49 O51 1.274 . S
O50 Mg37 2.079 . S
O50 C49 1.245 . S
O51 Mg36 2.038 . S
O51 C49 1.274 . S
O52 Mg40 2.042 . S
O52 C55 1.241 1_545 S
O53 Mg39 1.984 1_565 S
O53 C55 1.280 . S
O54 Mg40 2.041 . S
O54 C58 1.277 . S
C55 O52 1.241 1_565 S
C55 O53 1.280 . S
O56 Mg39 1.988 . S
O56 C58 1.245 . S
O57 C33 1.247 . S
O57 Mg39 2.061 . S
C58 O54 1.277 . S
C58 O56 1.245 . S
O59 C33 1.289 . S
O59 Mg36 2.238 . S
O59 Mg37 2.106 . S
O60 Mg37 2.079 . S
O60 C42 1.245 . S
O61 Mg40 2.038 . S
O61 C42 1.274 . S
C62 O74 1.241 . S
C62 O75 1.280 . S
C63 O76 1.277 . S
C63 O77 1.245 . S
C64 O88 1.247 . S
C64 O90 1.289 . S
Mg65 O66 1.926 . S
Mg65 O75 1.984 . S
Mg65 O77 1.988 . S
Mg65 O78 2.061 . S
O66 Mg65 1.926 . S
O66 Mg67 1.986 . S
O66 Mg68 1.917 . S
Mg67 O66 1.986 . S
Mg67 O74 2.042 . S
Mg67 O76 2.041 . S
Mg67 O82 2.038 . S
Mg67 O90 2.238 . S
Mg68 O66 1.917 . S
Mg68 O69 1.917 . S
Mg68 O79 2.106 . S
Mg68 O81 2.079 . S
Mg68 O90 2.106 . S
Mg68 O91 2.079 . S
O69 Mg68 1.917 . S
O69 Mg70 1.926 . S
O69 Mg71 1.986 . S
Mg70 O69 1.926 . S
Mg70 O84 1.984 . S
Mg70 O87 1.988 . S
Mg70 O88 2.061 . S
Mg71 O69 1.986 . S
Mg71 O79 2.238 . S
Mg71 O83 2.042 . S
Mg71 O85 2.041 . S
Mg71 O92 2.038 . S
C72 O78 1.247 . S
C72 O79 1.289 . S
C73 O91 1.245 . S
C73 O92 1.274 . S
O74 C62 1.241 . S
O74 Mg67 2.042 . S
O75 C62 1.280 . S
O75 Mg65 1.984 . S
O76 C63 1.277 . S
O76 Mg67 2.041 . S
O77 C63 1.245 . S
O77 Mg65 1.988 . S
O78 Mg65 2.061 . S
O78 C72 1.247 . S
O79 Mg68 2.106 . S
O79 Mg71 2.238 . S
O79 C72 1.289 . S
C80 O81 1.245 . S
C80 O82 1.274 . S
O81 Mg68 2.079 . S
O81 C80 1.245 . S
O82 Mg67 2.038 . S
O82 C80 1.274 . S
O83 Mg71 2.042 . S
O83 C86 1.241 . S
O84 Mg70 1.984 . S
O84 C86 1.280 . S
O85 Mg71 2.041 . S
O85 C89 1.277 . S
C86 O83 1.241 . S
C86 O84 1.280 . S
O87 Mg70 1.988 . S
O87 C89 1.245 . S
O88 C64 1.247 . S
O88 Mg70 2.061 . S
C89 O85 1.277 . S
C89 O87 1.245 . S
O90 C64 1.289 . S
O90 Mg67 2.238 . S
O90 Mg68 2.106 . S
O91 Mg68 2.079 . S
O91 C73 1.245 . S
O92 Mg71 2.038 . S
O92 C73 1.274 . S
C93 O105 1.241 1_455 S
C93 O106 1.280 . S
C94 O107 1.277 . S
C94 O108 1.245 . S
C95 O119 1.247 . S
C95 O121 1.289 . S
Mg96 O97 1.926 . S
Mg96 O106 1.984 1_655 S
Mg96 O108 1.988 . S
Mg96 O109 2.061 . S
O97 Mg96 1.926 . S
O97 Mg98 1.986 . S
O97 Mg99 1.917 . S
Mg98 O97 1.986 . S
Mg98 O105 2.042 . S
Mg98 O107 2.041 . S
Mg98 O113 2.038 . S
Mg98 O121 2.238 . S
Mg99 O97 1.917 . S
Mg99 O100 1.917 . S
Mg99 O110 2.106 . S
Mg99 O112 2.079 . S
Mg99 O121 2.106 . S
Mg99 O122 2.079 . S
O100 Mg99 1.917 . S
O100 Mg101 1.926 . S
O100 Mg102 1.986 . S
Mg101 O100 1.926 . S
Mg101 O115 1.984 . S
Mg101 O118 1.988 . S
Mg101 O119 2.061 . S
Mg102 O100 1.986 . S
Mg102 O110 2.238 . S
Mg102 O114 2.042 . S
Mg102 O116 2.041 . S
Mg102 O123 2.038 . S
C103 O109 1.247 . S
C103 O110 1.289 . S
C104 O122 1.245 . S
C104 O123 1.274 . S
O105 C93 1.241 1_655 S
O105 Mg98 2.042 . S
O106 C93 1.280 . S
O106 Mg96 1.984 1_455 S
O107 C94 1.277 . S
O107 Mg98 2.041 . S
O108 C94 1.245 . S
O108 Mg96 1.988 . S
O109 Mg96 2.061 . S
O109 C103 1.247 . S
O110 Mg99 2.106 . S
O110 Mg102 2.238 . S
O110 C103 1.289 . S
C111 O112 1.245 . S
C111 O113 1.274 . S
O112 Mg99 2.079 . S
O112 C111 1.245 . S
O113 Mg98 2.038 . S
O113 C111 1.274 . S
O114 Mg102 2.042 . S
O114 C117 1.241 . S
O115 Mg101 1.984 . S
O115 C117 1.280 . S
O116 Mg102 2.041 . S
O116 C120 1.277 . S
C117 O114 1.241 . S
C117 O115 1.280 . S
O118 Mg101 1.988 . S
O118 C120 1.245 . S
O119 C95 1.247 . S
O119 Mg101 2.061 . S
C120 O116 1.277 . S
C120 O118 1.245 . S
O121 C95 1.289 . S
O121 Mg98 2.238 . S
O121 Mg99 2.106 . S
O122 Mg99 2.079 . S
O122 C104 1.245 . S
O123 Mg102 2.038 . S
O123 C104 1.274 . S
C124 O136 1.241 1_545 S
C124 O137 1.280 . S
C125 O138 1.277 . S
C125 O139 1.245 . S
C126 O150 1.247 . S
C126 O152 1.289 . S
Mg127 O128 1.926 . S
Mg127 O137 1.984 1_565 S
Mg127 O139 1.988 . S
Mg127 O140 2.061 . S
O128 Mg127 1.926 . S
O128 Mg129 1.986 . S
O128 Mg130 1.917 . S
Mg129 O128 1.986 . S
Mg129 O136 2.042 . S
Mg129 O138 2.041 . S
Mg129 O144 2.038 . S
Mg129 O152 2.238 . S
Mg130 O128 1.917 . S
Mg130 O131 1.917 . S
Mg130 O141 2.106 . S
Mg130 O143 2.079 . S
Mg130 O152 2.106 . S
Mg130 O153 2.079 . S
O131 Mg130 1.917 . S
O131 Mg132 1.926 . S
O131 Mg133 1.986 . S
Mg132 O131 1.926 . S
Mg132 O146 1.984 . S
Mg132 O149 1.988 . S
Mg132 O150 2.061 . S
Mg133 O131 1.986 . S
Mg133 O141 2.238 . S
Mg133 O145 2.042 . S
Mg133 O147 2.041 . S
Mg133 O154 2.038 . S
C134 O140 1.247 . S
C134 O141 1.289 . S
C135 O153 1.245 . S
C135 O154 1.274 . S
O136 C124 1.241 1_565 S
O136 Mg129 2.042 . S
O137 C124 1.280 . S
O137 Mg127 1.984 1_545 S
O138 C125 1.277 . S
O138 Mg129 2.041 . S
O139 C125 1.245 . S
O139 Mg127 1.988 . S
O140 Mg127 2.061 . S
O140 C134 1.247 . S
O141 Mg130 2.106 . S
O141 Mg133 2.238 . S
O141 C134 1.289 . S
C142 O143 1.245 . S
C142 O144 1.274 . S
O143 Mg130 2.079 . S
O143 C142 1.245 . S
O144 Mg129 2.038 . S
O144 C142 1.274 . S
O145 Mg133 2.042 . S
O145 C148 1.241 . S
O146 Mg132 1.984 . S
O146 C148 1.280 . S
O147 Mg133 2.041 . S
O147 C151 1.277 . S
C148 O145 1.241 . S
C148 O146 1.280 . S
O149 Mg132 1.988 . S
O149 C151 1.245 . S
O150 C126 1.247 . S
O150 Mg132 2.061 . S
C151 O147 1.277 . S
C151 O149 1.245 . S
O152 C126 1.289 . S
O152 Mg129 2.238 . S
O152 Mg130 2.106 . S
O153 Mg130 2.079 . S
O153 C135 1.245 . S
O154 Mg133 2.038 . S
O154 C135 1.274 . S
C155 O167 1.241 . S
C155 O168 1.280 . S
C156 O169 1.277 . S
C156 O170 1.245 . S
C157 O181 1.247 . S
C157 O183 1.289 . S
Mg158 O159 1.926 . S
Mg158 O168 1.984 . S
Mg158 O170 1.988 . S
Mg158 O171 2.061 . S
O159 Mg158 1.926 . S
O159 Mg160 1.986 . S
O159 Mg161 1.917 . S
Mg160 O159 1.986 . S
Mg160 O167 2.042 . S
Mg160 O169 2.041 . S
Mg160 O175 2.038 . S
Mg160 O183 2.238 . S
Mg161 O159 1.917 . S
Mg161 O162 1.917 . S
Mg161 O172 2.106 . S
Mg161 O174 2.079 . S
Mg161 O183 2.106 . S
Mg161 O184 2.079 . S
O162 Mg161 1.917 . S
O162 Mg163 1.926 . S
O162 Mg164 1.986 . S
Mg163 O162 1.926 . S
Mg163 O177 1.984 . S
Mg163 O180 1.988 . S
Mg163 O181 2.061 . S
Mg164 O162 1.986 . S
Mg164 O172 2.238 . S
Mg164 O176 2.042 . S
Mg164 O178 2.041 . S
Mg164 O185 2.038 . S
C165 O171 1.247 . S
C165 O172 1.289 . S
C166 O184 1.245 . S
C166 O185 1.274 . S
O167 C155 1.241 . S
O167 Mg160 2.042 . S
O168 C155 1.280 . S
O168 Mg158 1.984 . S
O169 C156 1.277 . S
O169 Mg160 2.041 . S
O170 C156 1.245 . S
O170 Mg158 1.988 . S
O171 Mg158 2.061 . S
O171 C165 1.247 . S
O172 Mg161 2.106 . S
O172 Mg164 2.238 . S
O172 C165 1.289 . S
C173 O174 1.245 . S
C173 O175 1.274 . S
O174 Mg161 2.079 . S
O174 C173 1.245 . S
O175 Mg160 2.038 . S
O175 C173 1.274 . S
O176 Mg164 2.042 . S
O176 C179 1.241 . S
O177 Mg163 1.984 . S
O177 C179 1.280 . S
O178 Mg164 2.041 . S
O178 C182 1.277 . S
C179 O176 1.241 . S
C179 O177 1.280 . S
O180 Mg163 1.988 . S
O180 C182 1.245 . S
O181 C157 1.247 . S
O181 Mg163 2.061 . S
C182 O178 1.277 . S
C182 O180 1.245 . S
O183 C157 1.289 . S
O183 Mg160 2.238 . S
O183 Mg161 2.106 . S
O184 Mg161 2.079 . S
O184 C166 1.245 . S
O185 Mg164 2.038 . S
O185 C166 1.274 . S
H186 C192 0.930 . S
H187 C195 0.930 . S
H188 C196 0.930 . S
H189 C197 0.930 . S
H190 C200 0.930 . S
H191 C201 0.930 . S
C192 H186 0.930 . S
C192 C193 1.355 . S
C192 C194 1.415 . S
C193 C192 1.355 . S
C193 C195 1.419 . S
C194 C192 1.415 . S
C194 C199 1.425 . S
C194 C201 1.409 . S
C195 H187 0.930 . S
C195 C193 1.419 . S
C195 C196 1.362 . S
C196 H188 0.930 . S
C196 C195 1.362 . S
C196 C199 1.409 . S
C197 H189 0.930 . S
C197 C198 1.355 . S
C197 C199 1.415 . S
C198 C197 1.355 . S
C198 C200 1.419 . S
C199 C194 1.425 . S
C199 C196 1.409 . S
C199 C197 1.415 . S
C200 H190 0.930 . S
C200 C198 1.419 . S
C200 C201 1.362 . S
C201 H191 0.930 . S
C201 C194 1.409 . S
C201 C200 1.362 . S
H202 C208 0.930 . S
H203 C211 0.930 . S
H204 C212 0.930 . S
H205 C213 0.930 . S
H206 C216 0.930 . S
H207 C217 0.930 . S
C208 H202 0.930 . S
C208 C209 1.355 . S
C208 C210 1.415 . S
C209 C208 1.355 . S
C209 C211 1.419 . S
C210 C208 1.415 . S
C210 C215 1.425 . S
C210 C217 1.409 . S
C211 H203 0.930 . S
C211 C209 1.419 . S
C211 C212 1.362 . S
C212 H204 0.930 . S
C212 C211 1.362 . S
C212 C215 1.409 . S
C213 H205 0.930 . S
C213 C214 1.355 . S
C213 C215 1.415 . S
C214 C213 1.355 . S
C214 C216 1.419 . S
C215 C210 1.425 . S
C215 C212 1.409 . S
C215 C213 1.415 . S
C216 H206 0.930 . S
C216 C214 1.419 . S
C216 C217 1.362 . S
C217 H207 0.930 . S
C217 C210 1.409 . S
C217 C216 1.362 . S
H218 C224 0.930 . S
H219 C227 0.930 . S
H220 C228 0.930 . S
H221 C229 0.930 . S
H222 C232 0.930 . S
H223 C233 0.930 . S
C224 H218 0.930 . S
C224 C225 1.355 . S
C224 C226 1.415 . S
C225 C224 1.355 . S
C225 C227 1.419 . S
C226 C224 1.415 . S
C226 C231 1.425 . S
C226 C233 1.409 . S
C227 H219 0.930 . S
C227 C225 1.419 . S
C227 C228 1.362 . S
C228 H220 0.930 . S
C228 C227 1.362 . S
C228 C231 1.409 . S
C229 H221 0.930 . S
C229 C230 1.355 . S
C229 C231 1.415 . S
C230 C229 1.355 . S
C230 C232 1.419 . S
C231 C226 1.425 . S
C231 C228 1.409 . S
C231 C229 1.415 . S
C232 H222 0.930 . S
C232 C230 1.419 . S
C232 C233 1.362 . S
C233 H223 0.930 . S
C233 C226 1.409 . S
C233 C232 1.362 . S
H234 C240 0.930 . S
H235 C243 0.930 . S
H236 C244 0.930 . S
H237 C245 0.930 . S
H238 C248 0.930 . S
H239 C249 0.930 . S
C240 H234 0.930 . S
C240 C241 1.355 . S
C240 C242 1.415 . S
C241 C240 1.355 . S
C241 C243 1.419 . S
C242 C240 1.415 . S
C242 C247 1.425 . S
C242 C249 1.409 . S
C243 H235 0.930 . S
C243 C241 1.419 . S
C243 C244 1.362 . S
C244 H236 0.930 . S
C244 C243 1.362 . S
C244 C247 1.409 . S
C245 H237 0.930 . S
C245 C246 1.355 . S
C245 C247 1.415 . S
C246 C245 1.355 . S
C246 C248 1.419 . S
C247 C242 1.425 . S
C247 C244 1.409 . S
C247 C245 1.415 . S
C248 H238 0.930 . S
C248 C246 1.419 . S
C248 C249 1.362 . S
C249 H239 0.930 . S
C249 C242 1.409 . S
C249 C248 1.362 . S
H250 C256 0.930 . S
H251 C259 0.930 . S
H252 C260 0.930 . S
H253 C261 0.930 . S
H254 C264 0.930 . S
H255 C265 0.930 . S
C256 H250 0.930 . S
C256 C257 1.355 . S
C256 C258 1.415 . S
C257 C256 1.355 . S
C257 C259 1.419 . S
C258 C256 1.415 . S
C258 C263 1.425 . S
C258 C265 1.409 . S
C259 H251 0.930 . S
C259 C257 1.419 . S
C259 C260 1.362 . S
C260 H252 0.930 . S
C260 C259 1.362 . S
C260 C263 1.409 . S
C261 H253 0.930 . S
C261 C262 1.355 . S
C261 C263 1.415 . S
C262 C261 1.355 . S
C262 C264 1.419 . S
C263 C258 1.425 . S
C263 C260 1.409 . S
C263 C261 1.415 . S
C264 H254 0.930 . S
C264 C262 1.419 . S
C264 C265 1.362 . S
C265 H255 0.930 . S
C265 C258 1.409 . S
C265 C264 1.362 . S
H266 C272 0.930 . S
H267 C275 0.930 . S
H268 C276 0.930 . S
H269 C277 0.930 . S
H270 C280 0.930 . S
H271 C281 0.930 . S
C272 H266 0.930 . S
C272 C273 1.355 . S
C272 C274 1.415 . S
C273 C272 1.355 . S
C273 C275 1.419 . S
C274 C272 1.415 . S
C274 C279 1.425 . S
C274 C281 1.409 . S
C275 H267 0.930 . S
C275 C273 1.419 . S
C275 C276 1.362 . S
C276 H268 0.930 . S
C276 C275 1.362 . S
C276 C279 1.409 . S
C277 H269 0.930 . S
C277 C278 1.355 . S
C277 C279 1.415 . S
C278 C277 1.355 . S
C278 C280 1.419 . S
C279 C274 1.425 . S
C279 C276 1.409 . S
C279 C277 1.415 . S
C280 H270 0.930 . S
C280 C278 1.419 . S
C280 C281 1.362 . S
C281 H271 0.930 . S
C281 C274 1.409 . S
C281 C280 1.362 . S
H282 C288 0.930 . S
H283 C291 0.930 . S
H284 C292 0.930 . S
H285 C293 0.930 . S
H286 C296 0.930 . S
H287 C297 0.930 . S
C288 H282 0.930 . S
C288 C289 1.355 . S
C288 C290 1.415 . S
C289 C288 1.355 . S
C289 C291 1.419 . S
C290 C288 1.415 . S
C290 C295 1.425 . S
C290 C297 1.409 . S
C291 H283 0.930 . S
C291 C289 1.419 . S
C291 C292 1.362 . S
C292 H284 0.930 . S
C292 C291 1.362 . S
C292 C295 1.409 . S
C293 H285 0.930 . S
C293 C294 1.355 . S
C293 C295 1.415 . S
C294 C293 1.355 . S
C294 C296 1.419 . S
C295 C290 1.425 . S
C295 C292 1.409 . S
C295 C293 1.415 . S
C296 H286 0.930 . S
C296 C294 1.419 . S
C296 C297 1.362 . S
C297 H287 0.930 . S
C297 C290 1.409 . S
C297 C296 1.362 . S
H298 C304 0.930 . S
H299 C307 0.930 . S
H300 C308 0.930 . S
H301 C309 0.930 . S
H302 C312 0.930 . S
H303 C313 0.930 . S
C304 H298 0.930 . S
C304 C305 1.355 . S
C304 C306 1.415 1_655 S
C305 C304 1.355 . S
C305 C307 1.419 . S
C306 C304 1.415 1_455 S
C306 C311 1.425 . S
C306 C313 1.409 . S
C307 H299 0.930 . S
C307 C305 1.419 . S
C307 C308 1.362 . S
C308 H300 0.930 . S
C308 C307 1.362 . S
C308 C311 1.409 1_655 S
C309 H301 0.930 . S
C309 C310 1.355 . S
C309 C311 1.415 . S
C310 C309 1.355 . S
C310 C312 1.419 . S
C311 C306 1.425 . S
C311 C308 1.409 1_455 S
C311 C309 1.415 . S
C312 H302 0.930 . S
C312 C310 1.419 . S
C312 C313 1.362 . S
C313 H303 0.930 . S
C313 C306 1.409 . S
C313 C312 1.362 . S
H314 C320 0.930 . S
H315 C323 0.930 . S
H316 C324 0.930 . S
H317 C325 0.930 . S
H318 C328 0.930 . S
H319 C329 0.930 . S
C320 H314 0.930 . S
C320 C321 1.355 . S
C320 C322 1.415 . S
C321 C320 1.355 . S
C321 C323 1.419 . S
C322 C320 1.415 . S
C322 C327 1.425 . S
C322 C329 1.409 1_545 S
C323 H315 0.930 . S
C323 C321 1.419 . S
C323 C324 1.362 . S
C324 H316 0.930 . S
C324 C323 1.362 . S
C324 C327 1.409 . S
C325 H317 0.930 . S
C325 C326 1.355 . S
C325 C327 1.415 1_565 S
C326 C325 1.355 . S
C326 C328 1.419 . S
C327 C322 1.425 . S
C327 C324 1.409 . S
C327 C325 1.415 1_545 S
C328 H318 0.930 . S
C328 C326 1.419 . S
C328 C329 1.362 . S
C329 H319 0.930 . S
C329 C322 1.409 1_565 S
C329 C328 1.362 . S
H330 C336 0.930 . S
H331 C339 0.930 . S
H332 C340 0.930 . S
H333 C341 0.930 . S
H334 C344 0.930 . S
H335 C345 0.930 . S
C336 H330 0.930 . S
C336 C337 1.355 . S
C336 C338 1.415 . S
C337 C336 1.355 . S
C337 C339 1.419 . S
C338 C336 1.415 . S
C338 C343 1.425 . S
C338 C345 1.409 . S
C339 H331 0.930 . S
C339 C337 1.419 . S
C339 C340 1.362 . S
C340 H332 0.930 . S
C340 C339 1.362 . S
C340 C343 1.409 . S
C341 H333 0.930 . S
C341 C342 1.355 . S
C341 C343 1.415 . S
C342 C341 1.355 . S
C342 C344 1.419 . S
C343 C338 1.425 . S
C343 C340 1.409 . S
C343 C341 1.415 . S
C344 H334 0.930 . S
C344 C342 1.419 . S
C344 C345 1.362 . S
C345 H335 0.930 . S
C345 C338 1.409 . S
C345 C344 1.362 . S
H346 C352 0.930 . S
H347 C355 0.930 . S
H348 C356 0.930 . S
H349 C357 0.930 . S
H350 C360 0.930 . S
H351 C361 0.930 . S
C352 H346 0.930 . S
C352 C353 1.355 . S
C352 C354 1.415 . S
C353 C352 1.355 . S
C353 C355 1.419 . S
C354 C352 1.415 . S
C354 C359 1.425 . S
C354 C361 1.409 . S
C355 H347 0.930 . S
C355 C353 1.419 . S
C355 C356 1.362 . S
C356 H348 0.930 . S
C356 C355 1.362 . S
C356 C359 1.409 . S
C357 H349 0.930 . S
C357 C358 1.355 . S
C357 C359 1.415 1_455 S
C358 C357 1.355 . S
C358 C360 1.419 . S
C359 C354 1.425 . S
C359 C356 1.409 . S
C359 C357 1.415 1_655 S
C360 H350 0.930 . S
C360 C358 1.419 . S
C360 C361 1.362 1_455 S
C361 H351 0.930 . S
C361 C354 1.409 . S
C361 C360 1.362 1_655 S
H362 C368 0.930 . S
H363 C371 0.930 . S
H364 C372 0.930 . S
H365 C373 0.930 . S
H366 C376 0.930 . S
H367 C377 0.930 . S
C368 H362 0.930 . S
C368 C369 1.355 . S
C368 C370 1.415 1_545 S
C369 C368 1.355 . S
C369 C371 1.419 . S
C370 C368 1.415 1_565 S
C370 C375 1.425 . S
C370 C377 1.409 . S
C371 H363 0.930 . S
C371 C369 1.419 . S
C371 C372 1.362 1_545 S
C372 H364 0.930 . S
C372 C371 1.362 1_565 S
C372 C375 1.409 . S
C373 H365 0.930 . S
C373 C374 1.355 . S
C373 C375 1.415 . S
C374 C373 1.355 . S
C374 C376 1.419 . S
C375 C370 1.425 . S
C375 C372 1.409 . S
C375 C373 1.415 . S
C376 H366 0.930 . S
C376 C374 1.419 . S
C376 C377 1.362 . S
C377 H367 0.930 . S
C377 C370 1.409 . S
C377 C376 1.362 . S
H378 C384 0.930 . S
H379 C387 0.930 . S
H380 C388 0.930 . S
H381 C389 0.930 . S
H382 C392 0.930 . S
H383 C393 0.930 . S
C384 H378 0.930 . S
C384 C385 1.355 . S
C384 C386 1.415 . S
C385 C384 1.355 . S
C385 C387 1.419 . S
C386 C384 1.415 . S
C386 C391 1.425 1_554 S
C386 C393 1.409 . S
C387 H379 0.930 . S
C387 C385 1.419 . S
C387 C388 1.362 1_554 S
C388 H380 0.930 . S
C388 C387 1.362 1_556 S
C388 C391 1.409 . S
C389 H381 0.930 . S
C389 C390 1.355 . S
C389 C391 1.415 . S
C390 C389 1.355 . S
C390 C392 1.419 . S
C391 C386 1.425 1_556 S
C391 C388 1.409 . S
C391 C389 1.415 . S
C392 H382 0.930 . S
C392 C390 1.419 . S
C392 C393 1.362 1_556 S
C393 H383 0.930 . S
C393 C386 1.409 . S
C393 C392 1.362 1_554 S
H394 C400 0.930 . S
H395 C403 0.930 . S
H396 C404 0.930 . S
H397 C405 0.930 . S
H398 C408 0.930 . S
H399 C409 0.930 . S
C400 H394 0.930 . S
C400 C401 1.355 . S
C400 C402 1.415 1_655 S
C401 C400 1.355 . S
C401 C403 1.419 . S
C402 C400 1.415 1_455 S
C402 C407 1.424 1_455 S
C402 C409 1.409 . S
C403 H395 0.930 . S
C403 C401 1.419 . S
C403 C404 1.362 . S
C404 H396 0.930 . S
C404 C403 1.362 . S
C404 C407 1.411 . S
C405 H397 0.930 . S
C405 C406 1.355 . S
C405 C407 1.414 1_455 S
C406 C405 1.355 . S
C406 C408 1.419 . S
C407 C402 1.424 1_655 S
C407 C404 1.411 . S
C407 C405 1.414 1_655 S
C408 H398 0.930 . S
C408 C406 1.419 . S
C408 C409 1.362 . S
C409 H399 0.930 . S
C409 C402 1.409 . S
C409 C408 1.362 . S
H410 C416 0.930 . S
H411 C419 0.930 . S
H412 C420 0.930 . S
H413 C421 0.930 . S
H414 C424 0.930 . S
H415 C425 0.930 . S
C416 H410 0.930 . S
C416 C417 1.355 . S
C416 C418 1.415 . S
C417 C416 1.355 . S
C417 C419 1.419 . S
C418 C416 1.415 . S
C418 C423 1.425 1_554 S
C418 C425 1.409 1_565 S
C419 H411 0.930 . S
C419 C417 1.419 . S
C419 C420 1.362 1_554 S
C420 H412 0.930 . S
C420 C419 1.362 1_556 S
C420 C423 1.409 . S
C421 H413 0.930 . S
C421 C422 1.355 1_565 S
C421 C423 1.415 . S
C422 C421 1.355 1_545 S
C422 C424 1.419 . S
C423 C418 1.425 1_556 S
C423 C420 1.409 . S
C423 C421 1.415 . S
C424 H414 0.930 . S
C424 C422 1.419 . S
C424 C425 1.362 1_556 S
C425 H415 0.930 . S
C425 C418 1.409 1_545 S
C425 C424 1.362 1_554 S
H426 C432 0.930 . S
H427 C435 0.930 . S
H428 C436 0.930 . S
H429 C437 0.930 . S
H430 C440 0.930 . S
H431 C441 0.930 . S
C432 H426 0.930 . S
C432 C433 1.355 . S
C432 C434 1.415 . S
C433 C432 1.355 . S
C433 C435 1.419 . S
C434 C432 1.415 . S
C434 C439 1.425 . S
C434 C441 1.409 . S
C435 H427 0.930 . S
C435 C433 1.419 . S
C435 C436 1.362 . S
C436 H428 0.930 . S
C436 C435 1.362 . S
C436 C439 1.409 . S
C437 H429 0.930 . S
C437 C438 1.355 . S
C437 C439 1.415 . S
C438 C437 1.355 . S
C438 C440 1.419 . S
C439 C434 1.425 . S
C439 C436 1.409 . S
C439 C437 1.415 . S
C440 H430 0.930 . S
C440 C438 1.419 . S
C440 C441 1.362 . S
C441 H431 0.930 . S
C441 C434 1.409 . S
C441 C440 1.362 . S
H442 C448 0.930 . S
H443 C451 0.930 . S
H444 C452 0.930 . S
H445 C453 0.930 . S
H446 C456 0.930 . S
H447 C457 0.930 . S
C448 H442 0.930 . S
C448 C449 1.355 . S
C448 C450 1.415 1_556 S
C449 C448 1.355 . S
C449 C451 1.419 1_655 S
C450 C448 1.415 1_554 S
C450 C455 1.425 1_654 S
C450 C457 1.409 . S
C451 H443 0.930 . S
C451 C449 1.419 1_455 S
C451 C452 1.362 . S
C452 H444 0.930 . S
C452 C451 1.362 . S
C452 C455 1.409 . S
C453 H445 0.930 . S
C453 C454 1.355 . S
C453 C455 1.415 1_554 S
C454 C453 1.355 . S
C454 C456 1.419 . S
C455 C450 1.425 1_456 S
C455 C452 1.409 . S
C455 C453 1.415 1_556 S
C456 H446 0.930 . S
C456 C454 1.419 . S
C456 C457 1.362 1_455 S
C457 H447 0.930 . S
C457 C450 1.409 . S
C457 C456 1.362 1_655 S
H458 C464 0.930 . S
H459 C467 0.930 . S
H460 C468 0.930 . S
H461 C469 0.930 . S
H462 C472 0.930 . S
H463 C473 0.930 . S
C464 H458 0.930 . S
C464 C465 1.355 . S
C464 C466 1.415 . S
C465 C464 1.355 . S
C465 C467 1.419 . S
C466 C464 1.415 . S
C466 C471 1.425 . S
C466 C473 1.409 1_545 S
C467 H459 0.930 . S
C467 C465 1.419 . S
C467 C468 1.362 . S
C468 H460 0.930 . S
C468 C467 1.362 . S
C468 C471 1.409 . S
C469 H461 0.930 . S
C469 C470 1.355 1_545 S
C469 C471 1.415 . S
C470 C469 1.355 1_565 S
C470 C472 1.419 . S
C471 C466 1.425 . S
C471 C468 1.409 . S
C471 C469 1.415 . S
C472 H462 0.930 . S
C472 C470 1.419 . S
C472 C473 1.362 . S
C473 H463 0.930 . S
C473 C466 1.409 1_565 S
C473 C472 1.362 . S
H474 C480 0.930 . S
H475 C483 0.930 . S
H476 C484 0.930 . S
H477 C485 0.930 . S
H478 C488 0.930 . S
H479 C489 0.930 . S
C480 H474 0.930 . S
C480 C481 1.355 . S
C480 C482 1.415 1_556 S
C481 C480 1.355 . S
C481 C483 1.419 . S
C482 C480 1.415 1_554 S
C482 C487 1.425 . S
C482 C489 1.409 . S
C483 H475 0.930 . S
C483 C481 1.419 . S
C483 C484 1.362 . S
C484 H476 0.930 . S
C484 C483 1.362 . S
C484 C487 1.409 1_556 S
C485 H477 0.930 . S
C485 C486 1.355 . S
C485 C487 1.415 . S
C486 C485 1.355 . S
C486 C488 1.419 . S
C487 C482 1.425 . S
C487 C484 1.409 1_554 S
C487 C485 1.415 . S
C488 H478 0.930 . S
C488 C486 1.419 . S
C488 C489 1.362 . S
C489 H479 0.930 . S
C489 C482 1.409 . S
C489 C488 1.362 . S
H490 C496 0.930 . S
H491 C499 0.930 . S
H492 C500 0.930 . S
H493 C501 0.930 . S
H494 C504 0.930 . S
H495 C505 0.930 . S
C496 H490 0.930 . S
C496 C497 1.355 . S
C496 C498 1.415 . S
C497 C496 1.355 . S
C497 C499 1.419 . S
C498 C496 1.415 . S
C498 C503 1.425 . S
C498 C505 1.409 1_455 S
C499 H491 0.930 . S
C499 C497 1.419 . S
C499 C500 1.362 . S
C500 H492 0.930 . S
C500 C499 1.362 . S
C500 C503 1.409 . S
C501 H493 0.930 . S
C501 C502 1.355 1_455 S
C501 C503 1.415 . S
C502 C501 1.355 1_655 S
C502 C504 1.419 . S
C503 C498 1.425 . S
C503 C500 1.409 . S
C503 C501 1.415 . S
C504 H494 0.930 . S
C504 C502 1.419 . S
C504 C505 1.362 . S
C505 H495 0.930 . S
C505 C498 1.409 1_655 S
C505 C504 1.362 . S
H506 C512 0.930 . S
H507 C515 0.930 . S
H508 C516 0.930 1_565 S
H509 C517 0.930 . S
H510 C520 0.930 . S
H511 C521 0.930 . S
C512 H506 0.930 . S
C512 C513 1.355 . S
C512 C514 1.415 1_556 S
C513 C512 1.355 . S
C513 C515 1.419 . S
C514 C512 1.415 1_554 S
C514 C519 1.425 . S
C514 C521 1.409 . S
C515 H507 0.930 . S
C515 C513 1.419 . S
C515 C516 1.362 . S
C516 H508 0.930 1_545 S
C516 C515 1.362 . S
C516 C519 1.409 1_556 S
C517 H509 0.930 . S
C517 C518 1.355 . S
C517 C519 1.415 1_565 S
C518 C517 1.355 . S
C518 C520 1.419 1_565 S
C519 C514 1.425 . S
C519 C516 1.409 1_554 S
C519 C517 1.415 1_545 S
C520 H510 0.930 . S
C520 C518 1.419 1_545 S
C520 C521 1.362 . S
C521 H511 0.930 . S
C521 C514 1.409 . S
C521 C520 1.362 . S
H522 C528 0.930 . S
H523 C531 0.930 . S
H524 C532 0.930 . S
H525 C533 0.930 . S
H526 C536 0.930 . S
H527 C537 0.930 . S
C528 H522 0.930 . S
C528 C529 1.355 . S
C528 C530 1.415 . S
C529 C528 1.355 . S
C529 C531 1.419 . S
C530 C528 1.415 . S
C530 C535 1.425 . S
C530 C537 1.409 . S
C531 H523 0.930 . S
C531 C529 1.419 . S
C531 C532 1.362 . S
C532 H524 0.930 . S
C532 C531 1.362 . S
C532 C535 1.409 . S
C533 H525 0.930 . S
C533 C534 1.355 . S
C533 C535 1.415 . S
C534 C533 1.355 . S
C534 C536 1.419 . S
C535 C530 1.425 . S
C535 C532 1.409 . S
C535 C533 1.415 . S
C536 H526 0.930 . S
C536 C534 1.419 . S
C536 C537 1.362 . S
C537 H527 0.930 . S
C537 C530 1.409 . S
C537 C536 1.362 . S
H538 C544 0.930 . S
H539 C547 0.930 . S
H540 C548 0.930 . S
H541 C549 0.930 . S
H542 C552 0.930 . S
H543 C553 0.930 . S
C544 H538 0.930 . S
C544 C545 1.355 1_655 S
C544 C546 1.415 1_554 S
C545 C544 1.355 1_455 S
C545 C547 1.419 . S
C546 C544 1.415 1_556 S
C546 C551 1.425 . S
C546 C553 1.409 . S
C547 H539 0.930 . S
C547 C545 1.419 . S
C547 C548 1.362 1_454 S
C548 H540 0.930 . S
C548 C547 1.362 1_656 S
C548 C551 1.409 . S
C549 H541 0.930 . S
C549 C550 1.355 . S
C549 C551 1.415 . S
C550 C549 1.355 . S
C550 C552 1.419 . S
C551 C546 1.425 . S
C551 C548 1.409 . S
C551 C549 1.415 . S
C552 H542 0.930 . S
C552 C550 1.419 . S
C552 C553 1.362 . S
C553 H543 0.930 . S
C553 C546 1.409 . S
C553 C552 1.362 . S
H554 C560 0.930 . S
H555 C563 0.930 . S
H556 C564 0.930 . S
H557 C565 0.930 . S
H558 C568 0.930 . S
H559 C569 0.930 1_545 S
C560 H554 0.930 . S
C560 C561 1.355 . S
C560 C562 1.415 1_545 S
C561 C560 1.355 . S
C561 C563 1.419 . S
C562 C560 1.415 1_565 S
C562 C567 1.425 . S
C562 C569 1.409 . S
C563 H555 0.930 . S
C563 C561 1.419 . S
C563 C564 1.362 1_545 S
C564 H556 0.930 . S
C564 C563 1.362 1_565 S
C564 C567 1.409 . S
C565 H557 0.930 . S
C565 C566 1.355 . S
C565 C567 1.415 . S
C566 C565 1.355 . S
C566 C568 1.419 . S
C567 C562 1.425 . S
C567 C564 1.409 . S
C567 C565 1.415 . S
C568 H558 0.930 . S
C568 C566 1.419 . S
C568 C569 1.362 . S
C569 H559 0.930 1_565 S
C569 C562 1.409 . S
C569 C568 1.362 . S
C193 C11 1.285 . S
C198 C148 1.350 . S
C209 C179 1.409 . S
C214 C49 1.376 . S
C225 C24 1.369 . S
C230 C80 1.369 . S
C241 C31 1.326 . S
C246 C104 1.308 . S
C257 C135 1.314 . S
C262 C62 1.322 . S
C273 C166 1.298 . S
C278 C117 1.314 . S
C289 C18 1.007 . S
C294 C124 1.075 . S
C305 C42 1.030 . S
C310 C155 1.036 . S
C321 C0 1.131 . S
C326 C73 1.152 . S
C337 C55 1.100 . S
C342 C111 1.049 . S
C353 C86 1.083 . S
C358 C142 1.046 . S
C369 C173 1.075 . S
C374 C93 1.043 . S
C385 C2 1.890 . S
C390 C165 1.937 . S
C401 C32 1.880 . S
C406 C10 1.835 . S
C417 C63 1.713 . S
C422 C58 1.647 . S
C433 C95 1.738 . S
C438 C89 1.714 . S
C449 C103 1.794 . S
C454 C126 1.721 . S
C465 C157 1.707 . S
C470 C134 1.751 . S
C481 C120 1.408 . S
C486 C64 1.370 . S
C497 C151 1.441 . S
C502 C94 1.384 . S
C513 C182 1.498 . S
C518 C125 1.415 . S
C529 C156 1.349 . S
C534 C27 1.362 . S
C545 C1 1.234 . S
C550 C41 1.288 . S
C561 C33 1.486 . S
C566 C72 1.427 . S
