# Generated by pormake.
# Topology sma, (6)-cn, num edge types: 1
# Building blocks:
#     Node 0, Type 0, BuildingBlock: NUHQIS_clean_sbu_0, # of connection points: 6
#     Node 1, Type 0, BuildingBlock: NUHQIS_clean_sbu_0, # of connection points: 6
#     Node 2, Type 0, BuildingBlock: NUHQIS_clean_sbu_0, # of connection points: 6
#     Edge 3, Type (0, 0), BuildingBlock: ZUJKAS_clean_linker_0, # of connection points: 2
#     Edge 4, Type (0, 0), BuildingBlock: ZUJKAS_clean_linker_0, # of connection points: 2
#     Edge 5, Type (0, 0), BuildingBlock: ZUJKAS_clean_linker_0, # of connection points: 2
#     Edge 6, Type (0, 0), BuildingBlock: ZUJKAS_clean_linker_0, # of connection points: 2
#     Edge 7, Type (0, 0), BuildingBlock: ZUJKAS_clean_linker_0, # of connection points: 2
#     Edge 8, Type (0, 0), BuildingBlock: ZUJKAS_clean_linker_0, # of connection points: 2
#     Edge 9, Type (0, 0), BuildingBlock: ZUJKAS_clean_linker_0, # of connection points: 2
#     Edge 10, Type (0, 0), BuildingBlock: ZUJKAS_clean_linker_0, # of connection points: 2
#     Edge 11, Type (0, 0), BuildingBlock: ZUJKAS_clean_linker_0, # of connection points: 2
# Relax obj value: 0.086
# Max RMSD: 0.189
# Mean RMSD: 0.185
data_MOF--net-sma--node1-NUHQIS_clean_sbu_0--edge1-ZUJKAS_clean_linker_0
_symmetry_space_group_name_H-M    P1
_symmetry_Int_Tables_number       1
_symmetry_cell_setting            triclinic
loop_
_symmetry_equiv_pos_as_xyz
'x, y, z'
_cell_length_a     48.740039
_cell_length_b     48.715816
_cell_length_c     17.700753
_cell_angle_alpha  91.553069
_cell_angle_beta   92.710672
_cell_angle_gamma 119.81768
loop_
_atom_site_label
_atom_site_type_symbol
_atom_site_fract_x
_atom_site_fract_y
_atom_site_fract_z
_atom_type_partial_charge
Tb0 Tb 0.07382 0.52941 0.16859 0.0
Eu1 Eu 1.02953 0.56576 0.17514 0.0
C2 C 0.04857 0.54033 0.3199 0.0
C3 C 0.99766 0.48861 0.18159 0.0
C4 C 0.13851 0.5107 0.12489 0.0
C5 C 0.17732 0.49386 0.10844 0.0
C6 C 0.1487 0.48869 0.13537 0.0
C7 C 0.15746 0.53819 0.08708 0.0
C8 C 0.18623 0.54343 0.05995 0.0
C9 C 0.19651 0.52124 0.0701 0.0
C10 C 0.10828 0.50436 0.15493 0.0
O11 O 0.06617 0.54376 0.05869 0.0
O12 O 1.01661 0.53589 0.06832 0.0
O13 O 0.08009 0.60291 0.15803 0.0
O14 O 0.10697 0.57864 0.20469 0.0
C15 C 1.03717 0.53289 0.02978 0.0
O16 O 1.01645 0.59765 0.12097 0.0
O17 O 0.99699 0.57813 0.22729 0.0
O18 O 0.04654 0.56432 0.29403 0.0
O19 O 0.05445 0.52155 0.27783 0.0
O20 O 1.02495 0.48969 0.17112 0.0
O21 O 0.99462 0.51406 0.1866 0.0
C22 C 0.10617 0.6042 0.18634 0.0
O23 O 0.11018 0.52208 0.21373 0.0
O24 O 0.08536 0.49972 0.10572 0.0
C25 C 0.96575 0.59031 0.14261 0.0
C26 C 0.90789 0.58412 0.08266 0.0
C27 C 0.92862 0.60991 0.13293 0.0
C28 C 0.9572 0.61295 0.16245 0.0
C29 C 0.94507 0.56423 0.09344 0.0
C30 C 0.91637 0.56114 0.06381 0.0
C31 C 0.9968 0.59513 0.17164 0.0
H32 H 0.18461 0.47654 0.11874 0.0
H33 H 0.13452 0.46743 0.16489 0.0
H34 H 0.15001 0.55551 0.07853 0.0
H35 H 0.20021 0.56464 0.03023 0.0
H36 H 0.9227 0.62776 0.14989 0.0
H37 H 0.97282 0.63322 0.20043 0.0
H38 H 0.95132 0.54653 0.07726 0.0
H39 H 0.90117 0.54111 0.02485 0.0
Tb40 Tb 0.59596 0.07773 0.49783 0.0
Eu41 Eu 0.51645 0.03264 0.51558 0.0
C42 C 0.56833 0.04885 0.65142 0.0
C43 C 0.56198 1.0012 0.50395 0.0
C44 C 0.67786 0.14296 0.44718 0.0
C45 C 0.73179 0.18766 0.46186 0.0
C46 C 0.70744 0.15974 0.48805 0.0
C47 C 0.6728 0.15506 0.37998 0.0
C48 C 0.69724 0.1832 0.35371 0.0
C49 C 0.72723 0.19961 0.39383 0.0
C50 C 0.65397 0.11208 0.47411 0.0
O51 O 0.56694 0.07337 0.39729 0.0
O52 O 0.52833 1.02272 0.40217 0.0
O53 O 0.52846 0.08359 0.50798 0.0
O54 O 0.58173 0.1101 0.5459 0.0
C55 C 0.54932 0.0452 0.36403 0.0
O56 O 0.46882 1.01907 0.46869 0.0
O57 O 0.47487 0.99914 0.57224 0.0
O58 O 0.54136 0.0478 0.63207 0.0
O59 O 0.59067 0.05608 0.60446 0.0
O60 O 0.58702 1.02867 0.49012 0.0
O61 O 0.53418 0.99798 0.51755 0.0
C62 C 0.55445 0.10936 0.53461 0.0
O63 O 0.64205 0.11254 0.5383 0.0
O64 O 0.63272 0.0909 0.42459 0.0
C65 C 0.4289 0.96647 0.48914 0.0
C66 C 0.3781 0.90672 0.43253 0.0
C67 C 0.37801 0.93487 0.41722 0.0
C68 C 0.40304 0.96434 0.44541 0.0
C69 C 0.42923 0.93842 0.50415 0.0
C70 C 0.40404 0.90887 0.47639 0.0
C71 C 0.45486 0.99808 0.51875 0.0
H72 H 0.75429 0.1999 0.49501 0.0
H73 H 0.71194 0.15089 0.53996 0.0
H74 H 0.65022 0.14254 0.34715 0.0
H75 H 0.69293 0.19161 0.30093 0.0
H76 H 0.35827 0.93411 0.38451 0.0
H77 H 0.40213 0.98556 0.43327 0.0
H78 H 0.44891 0.93925 0.53732 0.0
H79 H 0.40504 0.88771 0.48859 0.0
Tb80 Tb 0.5659 0.59191 0.82845 0.0
Eu81 Eu 0.53128 0.51256 0.85204 0.0
C82 C 0.56752 0.56511 -0.01327 0.0
C83 C 0.60803 0.55758 0.8454 0.0
C84 C 0.58341 0.67441 0.77186 0.0
C85 C 0.59274 0.72827 0.78773 0.0
C86 C 0.59529 0.70299 0.81552 0.0
C87 C 0.56814 0.6713 0.70008 0.0
C88 C 0.56545 0.69668 0.67222 0.0
C89 C 0.57824 0.7257 0.71526 0.0
C90 C 0.58995 0.64981 0.80072 0.0
O91 O 0.53924 0.56211 0.72924 0.0
O92 O 0.55148 0.52362 0.73957 0.0
O93 O 0.49234 0.52484 0.83844 0.0
O94 O 0.51982 0.57855 0.87083 0.0
C95 C 0.54944 0.54446 0.69884 0.0
O96 O 0.49693 0.4647 0.80713 0.0
O97 O 0.52433 0.47141 0.9131 0.0
O98 O 0.54149 0.53815 0.96651 0.0
O99 O 0.58278 0.58688 0.93885 0.0
O100 O 0.60533 0.58211 0.82446 0.0
O101 O 0.58371 0.53044 0.86235 0.0
C102 C 0.4931 0.5513 0.86033 0.0
O103 O 0.57899 0.63848 0.86547 0.0
O104 O 0.58815 0.62799 0.75281 0.0
C105 C 0.51064 0.42563 0.83442 0.0
C106 C 0.52064 0.37604 0.78175 0.0
C107 C 0.54227 0.40786 0.7684 0.0
C108 C 0.53729 0.4324 0.7944 0.0
C109 C 0.48922 0.39409 0.84853 0.0
C110 C 0.49414 0.36956 0.82258 0.0
C111 C 0.50448 0.45102 0.86021 0.0
H112 H 0.60235 0.75 0.82303 0.0
H113 H 0.60727 0.70605 0.87088 0.0
H114 H 0.55889 0.64959 0.6649 0.0
H115 H 0.55427 0.69393 0.61604 0.0
H116 H 0.56274 0.41377 0.73655 0.0
H117 H 0.55407 0.45663 0.7827 0.0
H118 H 0.46855 0.38839 0.87946 0.0
H119 H 0.47725 0.3455 0.83508 0.0
H120 H 0.25367 0.57691 0.07164 0.0
H121 H 0.30398 0.58455 0.02889 0.0
H122 H 0.25935 0.48484 0.9645 0.0
H123 H 0.20889 0.4772 0.00434 0.0
H124 H 0.33902 0.55794 0.08127 0.0
H125 H 0.30409 0.52383 0.7761 0.0
H126 H 0.28051 0.53221 0.83822 0.0
H127 H 0.27819 0.49415 0.83638 0.0
C128 C 0.25439 0.55669 0.04709 0.0
C129 C 0.22706 0.52642 0.0415 0.0
C130 C 0.28327 0.56107 0.02315 0.0
C131 C 0.28547 0.53537 -0.00758 0.0
C132 C 0.25823 0.50519 -0.01348 0.0
H133 H 0.43308 0.49943 0.85113 0.0
H134 H 0.38375 0.49722 0.88265 0.0
C135 C 0.2294 0.50079 0.01035 0.0
C136 C 0.31643 0.53973 0.96964 0.0
H137 H 0.35266 0.52739 0.82208 0.0
C138 C 0.3421 0.55157 0.02438 0.0
C139 C 0.3205 0.53135 0.89543 0.0
C140 C 0.29446 0.51997 0.83293 0.0
C141 C 0.3713 0.55432 0.00771 0.0
C142 C 0.37522 0.54552 0.93378 0.0
C143 C 0.34969 0.53406 0.87878 0.0
C144 C 0.40538 0.54736 0.91287 0.0
C145 C 0.39736 0.56565 0.07018 0.0
C146 C 0.434 0.57639 0.91789 0.0
C147 C 0.46237 0.57777 0.89995 0.0
C148 C 0.46274 0.55014 0.87607 0.0
C149 C 0.43385 0.52121 0.86942 0.0
C150 C 0.40553 0.51988 0.88742 0.0
H151 H 0.38811 0.56378 0.12712 0.0
H152 H 0.40983 0.55183 0.06758 0.0
H153 H 0.41491 0.59091 0.06351 0.0
H154 H 0.43444 0.59805 0.93573 0.0
H155 H 0.48402 0.60051 0.90533 0.0
H156 H 0.78961 0.21551 0.39253 0.0
H157 H 0.83398 0.26394 0.35021 0.0
H158 H 0.77021 0.29779 0.28493 0.0
H159 H 0.72563 0.24955 0.32862 0.0
H160 H 0.84298 0.28971 0.20428 0.0
H161 H 0.83987 0.37092 0.42603 0.0
H162 H 0.81979 0.32848 0.43305 0.0
H163 H 0.80302 0.34592 0.37173 0.0
C164 C 0.78498 0.23334 0.36977 0.0
C165 C 0.754 0.2287 0.36482 0.0
C166 C 0.81039 0.26095 0.34508 0.0
C167 C 0.80556 0.28474 0.31532 0.0
C168 C 0.77462 0.27999 0.30877 0.0
H169 H 0.93572 0.47445 0.17779 0.0
H170 H 0.88925 0.42456 0.20496 0.0
C171 C 0.74909 0.25225 0.33315 0.0
C172 C 0.83301 0.31446 0.29155 0.0
H173 H 0.87661 0.39438 0.33317 0.0
C174 C 0.85035 0.31262 0.23239 0.0
C175 C 0.84262 0.34435 0.32819 0.0
C176 C 0.82559 0.34771 0.39371 0.0
C177 C 0.87674 0.33986 0.20819 0.0
C178 C 0.88663 0.36977 0.24545 0.0
C179 C 0.86914 0.37155 0.30445 0.0
C180 C 0.91498 0.39953 0.22455 0.0
C181 C 0.89327 0.33635 0.14176 0.0
C182 C 0.94515 0.40231 0.2262 0.0
C183 C 0.97186 0.43085 0.20985 0.0
C184 C 0.9691 0.45745 0.19265 0.0
C185 C 0.93884 0.45453 0.19075 0.0
C186 C 0.91216 0.42596 0.20644 0.0
H187 H 0.87747 0.31446 0.10585 0.0
H188 H 0.9016 0.35701 0.10593 0.0
H189 H 0.91415 0.33471 0.1631 0.0
H190 H 0.94822 0.38264 0.24195 0.0
H191 H 0.9948 0.43231 0.21294 0.0
H192 H 0.51507 0.93905 0.49459 0.0
H193 H 0.51993 0.8926 0.52133 0.0
H194 H 0.62128 0.95197 0.55741 0.0
H195 H 0.61671 0.99876 0.5304 0.0
H196 H 0.56032 0.86894 0.45211 0.0
H197 H 0.58819 0.90454 0.75995 0.0
H198 H 0.56922 0.92 0.69812 0.0
H199 H 0.61083 0.93405 0.69495 0.0
C200 C 0.53848 0.94228 0.50733 0.0
C201 C 0.56552 0.97273 0.51056 0.0
C202 C 0.54118 0.91564 0.5225 0.0
C203 C 0.57089 0.91886 0.54214 0.0
C204 C 0.59808 0.94901 0.54291 0.0
H205 H 0.62568 0.78774 0.72541 0.0
H206 H 0.6241 0.83382 0.67967 0.0
C207 C 0.59544 0.97569 0.52694 0.0
C208 C 0.57313 0.89084 0.56501 0.0
H209 H 0.58745 0.8578 0.71891 0.0
C210 C 0.56631 0.86646 0.51036 0.0
C211 C 0.58089 0.88767 0.64104 0.0
C212 C 0.58753 0.91277 0.70233 0.0
C213 C 0.56749 0.83918 0.52955 0.0
C214 C 0.57486 0.83577 0.60593 0.0
C215 C 0.58177 0.86029 0.66042 0.0
C216 C 0.57581 0.80718 0.63084 0.0
C217 C 0.56156 0.81464 0.46744 0.0
C218 C 0.54915 0.77666 0.61903 0.0
C219 C 0.55 0.75012 0.64512 0.0
C220 C 0.57739 0.75358 0.68464 0.0
C221 C 0.60403 0.78418 0.69617 0.0
C222 C 0.60322 0.8106 0.66973 0.0
H223 H 0.56556 0.82483 0.41091 0.0
H224 H 0.57711 0.80427 0.47714 0.0
H225 H 0.53653 0.79527 0.46631 0.0
H226 H 0.52742 0.77338 0.59093 0.0
H227 H 0.52894 0.727 0.63609 0.0
H228 H 0.62281 0.51141 0.87531 0.0
H229 H 0.67502 0.51777 0.90619 0.0
H230 H 0.71858 0.61753 0.86987 0.0
H231 H 0.66621 0.61156 0.8398 0.0
H232 H 0.72935 0.5401 0.82534 0.0
H233 H 0.75191 0.6164 0.08628 0.0
H234 H 0.7132 0.59414 0.0369 0.0
H235 H 0.74292 0.63045 0.00108 0.0
C236 C 0.64342 0.53476 0.87338 0.0
C237 C 0.64014 0.56106 0.85569 0.0
C238 C 0.67334 0.5383 0.89101 0.0
C239 C 0.70072 0.56821 0.89179 0.0
C240 C 0.69773 0.59432 0.87118 0.0
H241 H 0.89833 0.63175 0.03256 0.0
H242 H 0.84883 0.62793 -0.01717 0.0
C243 C 0.66775 0.59081 0.85337 0.0
C244 C 0.73213 0.57192 0.91604 0.0
H245 H 0.79307 0.60713 0.05329 0.0
C246 C 0.74332 0.5548 0.8751 0.0
C247 C 0.75033 0.59102 -0.01885 0.0
C248 C 0.73896 0.60887 0.02944 0.0
C249 C 0.77227 0.55647 0.89707 0.0
C250 C 0.79031 0.57532 0.96262 0.0
C251 C 0.77928 0.59269 0.00307 0.0
C252 C 0.82055 0.5772 -0.00922 0.0
C253 C 0.78351 0.5384 0.84919 0.0
C254 C 0.82121 0.54998 0.01243 0.0
C255 C 0.84953 0.55209 0.04133 0.0
C256 C 0.8778 0.58154 0.04987 0.0
C257 C 0.877 0.60873 0.0279 0.0
C258 C 0.84871 0.60659 -0.001 0.0
H259 H 0.77184 0.53248 0.79094 0.0
H260 H 0.80959 0.55217 0.84537 0.0
H261 H 0.77757 0.51585 0.87545 0.0
H262 H 0.79967 0.52713 0.00834 0.0
H263 H 0.84908 0.53074 0.05869 0.0
H264 H 0.34651 0.89043 0.29169 0.0
H265 H 0.30087 0.83943 0.24575 0.0
H266 H 0.30295 0.80079 0.46072 0.0
H267 H 0.34833 0.85182 0.50751 0.0
H268 H 0.29522 0.77751 0.23598 0.0
H269 H 0.21048 0.78345 0.42569 0.0
H270 H 0.24772 0.81783 0.40771 0.0
H271 H 0.24687 0.78964 0.47223 0.0
C272 C 0.33716 0.87114 0.3294 0.0
C273 C 0.35102 0.87532 0.40351 0.0
C274 C 0.31118 0.84195 0.30287 0.0
C275 C 0.29825 0.8164 0.35005 0.0
C276 C 0.31228 0.82029 0.42361 0.0
H277 H 0.16568 0.61672 0.23604 0.0
H278 H 0.21237 0.66828 0.27133 0.0
C279 C 0.33841 0.84941 0.45005 0.0
C280 C 0.27006 0.78572 0.32233 0.0
H281 H 0.1924 0.73523 0.35319 0.0
C282 C 0.27272 0.76827 0.26148 0.0
C283 C 0.2406 0.77388 0.355 0.0
C284 C 0.23598 0.79221 0.41837 0.0
C285 C 0.24687 0.739 0.23345 0.0
C286 C 0.21764 0.72674 0.2675 0.0
C287 C 0.21484 0.74451 0.32739 0.0
C288 C 0.18967 0.69545 0.24229 0.0
C289 C 0.25094 0.72162 0.16699 0.0
C290 C 0.16119 0.69343 0.21469 0.0
C291 C 0.13435 0.66392 0.19444 0.0
C292 C 0.1353 0.6357 0.20212 0.0
C293 C 0.16401 0.63787 0.22908 0.0
C294 C 0.19086 0.6674 0.249 0.0
H295 H 0.27175 0.73758 0.13558 0.0
H296 H 0.25471 0.70239 0.18788 0.0
H297 H 0.22945 0.7107 0.12714 0.0
H298 H 0.15967 0.71474 0.20931 0.0
H299 H 0.11268 0.66324 0.17428 0.0
H300 H 0.57637 0.3747 0.77823 0.0
H301 H 0.58383 0.33126 0.73115 0.0
H302 H 0.48328 0.27383 0.67532 0.0
H303 H 0.47571 0.31735 0.71993 0.0
H304 H 0.55835 0.27012 0.78089 0.0
H305 H 0.51995 0.26602 0.47895 0.0
H306 H 0.52934 0.29904 0.54446 0.0
H307 H 0.49148 0.26333 0.54341 0.0
C308 C 0.55587 0.353 0.75494 0.0
C309 C 0.52542 0.34967 0.75281 0.0
C310 C 0.56016 0.32809 0.72848 0.0
C311 C 0.53419 0.29938 0.69861 0.0
C312 C 0.50379 0.29591 0.69672 0.0
H313 H 0.50179 0.1162 0.52952 0.0
H314 H 0.49834 0.16277 0.5691 0.0
C315 C 0.49946 0.32076 0.72323 0.0
C316 C 0.5387 0.2727 0.67164 0.0
H317 H 0.52624 0.22294 0.51758 0.0
C318 C 0.55157 0.25997 0.72315 0.0
C319 C 0.5298 0.25936 0.59631 0.0
C320 C 0.51714 0.27279 0.53731 0.0
C321 C 0.55495 0.23377 0.7021 0.0
C322 C 0.5458 0.22026 0.6269 0.0
C323 C 0.53322 0.23321 0.5752 0.0
C324 C 0.54841 0.19226 0.60121 0.0
C325 C 0.56732 0.22018 0.76137 0.0
C326 C 0.57782 0.19337 0.60455 0.0
C327 C 0.57989 0.16667 0.58209 0.0
C328 C 0.55261 0.13828 0.5551 0.0
C329 C 0.52332 0.13754 0.55004 0.0
C330 C 0.52128 0.16421 0.57269 0.0
H331 H 0.56532 0.22773 0.81969 0.0
H332 H 0.55431 0.19388 0.75555 0.0
H333 H 0.59275 0.2287 0.75415 0.0
H334 H 0.59923 0.21493 0.62457 0.0
H335 H 0.60289 0.16829 0.58632 0.0
H336 H 0.9762 0.49023 -0.01659 0.0
H337 H 0.95657 0.46008 0.86187 0.0
H338 H 0.05278 0.49976 0.79721 0.0
H339 H 0.07259 0.52929 0.91946 0.0
H340 H 0.96589 0.49342 0.74395 0.0
H341 H 1.01293 0.41433 0.6864 0.0
H342 H 1.00925 0.42567 0.78197 0.0
H343 H 0.04441 0.44995 0.73311 0.0
C344 C 0.99321 0.49211 0.94364 0.0
C345 C 1.0259 0.51284 0.9594 0.0
C346 C 0.98192 0.47439 0.87496 0.0
C347 C 1.00315 0.47734 0.82096 0.0
C348 C 1.03596 0.49637 0.83889 0.0
H349 H 0.08018 0.5444 0.45303 0.0
H350 H 0.05652 0.51612 0.56604 0.0
C351 C 0.04729 0.51382 0.90803 0.0
C352 C 0.99175 0.46817 0.74088 0.0
H353 H 1.01771 0.4506 0.58201 0.0
C354 C 0.97591 0.48278 0.70794 0.0
C355 C 1.00395 0.45348 0.69419 0.0
C356 C 1.01824 0.43467 0.72616 0.0
C357 C 0.97754 0.4886 0.63103 0.0
C358 C 0.99468 0.47862 0.58675 0.0
C359 C 1.00541 0.45902 0.61703 0.0
C360 C 1.00809 0.49428 0.51725 0.0
C361 C 0.96462 0.50891 0.60055 0.0
C362 C 0.98858 0.49174 0.45372 0.0
C363 C 1.00204 0.50891 0.391 0.0
C364 C 1.03506 0.52816 0.39088 0.0
C365 C 0.05462 0.53035 0.45363 0.0
C366 C 1.04115 0.51377 0.51703 0.0
H367 H 0.9543 0.51686 0.64493 0.0
H368 H 0.98367 0.53021 0.57594 0.0
H369 H 0.94576 0.49521 0.55504 0.0
H370 H 0.96313 0.47643 0.4525 0.0
H371 H 0.98678 0.50626 0.34153 0.0
H372 H 0.54279 0.98765 0.32718 0.0
H373 H 0.56131 0.97262 0.21638 0.0
H374 H 0.59834 0.06727 0.13937 0.0
H375 H 0.5814 0.08281 0.25219 0.0
H376 H 0.53941 0.9682 0.08316 0.0
H377 H 0.66584 0.05142 0.07528 0.0
H378 H 0.64607 0.04598 0.16211 0.0
H379 H 0.64865 0.07532 0.09789 0.0
C380 C 0.55517 1.00532 0.2868 0.0
C381 C 0.56021 0.03627 0.29699 0.0
C382 C 0.56611 0.99679 0.2242 0.0
C383 C 0.58184 1.01893 0.17037 0.0
C384 C 0.5874 0.05005 0.18155 0.0
H385 H 0.53285 0.03875 0.77312 0.0
H386 H 0.5394 1.01907 0.89375 0.0
C387 C 0.57709 0.05879 0.24503 0.0
C388 C 0.58696 1.00854 0.09599 0.0
H389 H 0.63311 0.04308 0.95075 0.0
C390 C 0.56048 0.98371 0.05475 0.0
C391 C 0.61481 1.02742 0.05891 0.0
C392 C 0.6455 0.05121 0.10156 0.0
C393 C 0.55914 0.98144 -0.02425 0.0
C394 C 0.58444 1.00505 0.9384 0.0
C395 C 0.61309 1.02582 -0.02027 0.0
C396 C 0.579 1.0136 0.86243 0.0
C397 C 0.52943 0.95584 0.93303 0.0
C398 C 0.59982 1.01813 0.80621 0.0
C399 C 0.59656 0.03008 0.7379 0.0
C400 C 0.57247 0.03777 0.72509 0.0
C401 C 0.55157 0.03305 0.78141 0.0
C402 C 0.555 1.0213 0.84979 0.0
H403 H 0.51968 0.93343 0.96279 0.0
H404 H 0.51114 0.9631 0.9307 0.0
H405 H 0.53392 0.95135 0.87428 0.0
H406 H 0.61876 1.01278 0.81554 0.0
H407 H 0.61282 0.03306 0.69505 0.0
H408 H 0.60149 0.53961 0.67355 0.0
H409 H 0.63542 0.55961 0.56835 0.0
H410 H 0.57583 0.59447 0.47456 0.0
H411 H 0.54303 0.5762 0.58212 0.0
H412 H 0.61942 0.5384 0.43441 0.0
H413 H 0.65812 0.66395 0.42076 0.0
H414 H 0.64379 0.64365 0.50659 0.0
H415 H 0.61681 0.64542 0.4357 0.0
C416 C 0.59584 0.55184 0.63072 0.0
C417 C 0.56932 0.55592 0.63471 0.0
C418 C 0.61552 0.56362 0.57132 0.0
C419 C 0.60869 0.57919 0.51439 0.0
C420 C 0.58245 0.58371 0.51929 0.0
H421 H 0.54248 0.52949 0.10779 0.0
H422 H 0.56827 0.53704 0.23384 0.0
C423 C 0.56322 0.57261 0.57969 0.0
C424 C 0.6246 0.58517 0.44296 0.0
H425 H 0.63504 0.63137 0.29467 0.0
C426 C 0.62429 0.55937 0.4047 0.0
C427 C 0.63269 0.61294 0.40446 0.0
C428 C 0.63825 0.64311 0.4448 0.0
C429 C 0.62567 0.55842 0.32617 0.0
C430 C 0.62641 0.58337 0.28605 0.0
C431 C 0.63299 0.61157 0.32553 0.0
C432 C 0.6127 0.5777 0.20763 0.0
C433 C 0.62296 0.52934 0.28629 0.0
C434 C 0.62871 0.59881 0.15232 0.0
C435 C 0.61373 0.59493 0.08068 0.0
C436 C 0.58247 0.56994 0.06359 0.0
C437 C 0.56653 0.54888 0.11922 0.0
C438 C 0.58146 0.55289 0.19084 0.0
H439 H 0.63617 0.52022 0.3202 0.0
H440 H 0.5977 0.51037 0.28036 0.0
H441 H 0.6322 0.53434 0.22912 0.0
H442 H 0.6526 0.61838 0.16481 0.0
H443 H 0.6268 0.61144 0.03867 0.0
loop_
_geom_bond_atom_site_label_1
_geom_bond_atom_site_label_2
_geom_bond_distance
_geom_bond_site_symmetry_2
_ccdc_geom_bond_type
Tb0 C10 2.825 . S
Tb0 O11 2.347 . S
Tb0 O14 2.366 . S
Tb0 O19 2.418 . S
Tb0 O20 2.384 1_455 S
Tb0 O23 2.479 . S
Tb0 O24 2.471 . S
Eu1 O12 2.418 . S
Eu1 O13 2.384 1_655 S
Eu1 O16 2.479 . S
Eu1 O17 2.471 . S
Eu1 O18 2.347 1_655 S
Eu1 O21 2.366 . S
Eu1 C31 2.825 . S
C2 O18 1.259 . S
C2 O19 1.265 . S
C3 O20 1.255 . S
C3 O21 1.265 . S
C4 C6 1.380 . S
C4 C7 1.374 . S
C4 C10 1.507 . S
C5 C6 1.384 . S
C5 C9 1.387 . S
C5 H32 0.930 . S
C6 C4 1.380 . S
C6 C5 1.384 . S
C6 H33 0.931 . S
C7 C4 1.374 . S
C7 C8 1.390 . S
C7 H34 0.930 . S
C8 C7 1.390 . S
C8 C9 1.391 . S
C8 H35 0.930 . S
C9 C5 1.387 . S
C9 C8 1.391 . S
C10 Tb0 2.825 . S
C10 C4 1.507 . S
C10 O23 1.238 . S
C10 O24 1.247 . S
O11 Tb0 2.347 . S
O11 C15 1.259 . S
O12 Eu1 2.418 . S
O12 C15 1.265 1_655 S
O13 Eu1 2.384 1_455 S
O13 C22 1.255 . S
O14 Tb0 2.366 . S
O14 C22 1.265 . S
C15 O11 1.259 . S
C15 O12 1.265 1_455 S
O16 Eu1 2.479 . S
O16 C31 1.238 . S
O17 Eu1 2.471 . S
O17 C31 1.247 . S
O18 Eu1 2.347 1_455 S
O18 C2 1.259 . S
O19 Tb0 2.418 . S
O19 C2 1.265 . S
O20 Tb0 2.384 1_655 S
O20 C3 1.255 . S
O21 Eu1 2.366 . S
O21 C3 1.265 . S
C22 O13 1.255 . S
C22 O14 1.265 . S
O23 Tb0 2.479 . S
O23 C10 1.238 . S
O24 Tb0 2.471 . S
O24 C10 1.247 . S
C25 C28 1.380 . S
C25 C29 1.374 . S
C25 C31 1.507 . S
C26 C27 1.387 . S
C26 C30 1.391 . S
C27 C26 1.387 . S
C27 C28 1.384 . S
C27 H36 0.930 . S
C28 C25 1.380 . S
C28 C27 1.384 . S
C28 H37 0.931 . S
C29 C25 1.374 . S
C29 C30 1.390 . S
C29 H38 0.930 . S
C30 C26 1.391 . S
C30 C29 1.390 . S
C30 H39 0.930 . S
C31 Eu1 2.825 . S
C31 O16 1.238 . S
C31 O17 1.247 . S
C31 C25 1.507 . S
H32 C5 0.930 . S
H33 C6 0.931 . S
H34 C7 0.930 . S
H35 C8 0.930 . S
H36 C27 0.930 . S
H37 C28 0.931 . S
H38 C29 0.930 . S
H39 C30 0.930 . S
Tb40 C50 2.825 . S
Tb40 O51 2.347 . S
Tb40 O54 2.366 . S
Tb40 O59 2.418 . S
Tb40 O60 2.384 1_545 S
Tb40 O63 2.479 . S
Tb40 O64 2.471 . S
Eu41 O52 2.421 1_565 S
Eu41 O53 2.355 1_565 S
Eu41 O56 2.496 . S
Eu41 O57 2.490 . S
Eu41 O58 2.350 1_565 S
Eu41 O61 2.396 . S
Eu41 C71 2.845 . S
C42 O58 1.259 . S
C42 O59 1.265 . S
C43 O60 1.255 . S
C43 O61 1.265 . S
C44 C46 1.380 . S
C44 C47 1.374 . S
C44 C50 1.507 . S
C45 C46 1.384 . S
C45 C49 1.387 . S
C45 H72 0.930 . S
C46 C44 1.380 . S
C46 C45 1.384 . S
C46 H73 0.931 . S
C47 C44 1.374 . S
C47 C48 1.390 . S
C47 H74 0.930 . S
C48 C47 1.390 . S
C48 C49 1.391 . S
C48 H75 0.930 . S
C49 C45 1.387 . S
C49 C48 1.391 . S
C50 Tb40 2.825 . S
C50 C44 1.507 . S
C50 O63 1.238 . S
C50 O64 1.247 . S
O51 Tb40 2.347 . S
O51 C55 1.259 . S
O52 Eu41 2.421 1_545 S
O52 C55 1.265 . S
O53 Eu41 2.355 1_545 S
O53 C62 1.255 . S
O54 Tb40 2.366 . S
O54 C62 1.265 . S
C55 O51 1.259 . S
C55 O52 1.265 . S
O56 Eu41 2.496 . S
O56 C71 1.238 . S
O57 Eu41 2.490 . S
O57 C71 1.247 . S
O58 Eu41 2.350 1_545 S
O58 C42 1.259 . S
O59 Tb40 2.418 . S
O59 C42 1.265 . S
O60 Tb40 2.384 1_565 S
O60 C43 1.255 . S
O61 Eu41 2.396 . S
O61 C43 1.265 . S
C62 O53 1.255 . S
C62 O54 1.265 . S
O63 Tb40 2.479 . S
O63 C50 1.238 . S
O64 Tb40 2.471 . S
O64 C50 1.247 . S
C65 C68 1.380 . S
C65 C69 1.374 . S
C65 C71 1.507 . S
C66 C67 1.387 . S
C66 C70 1.391 . S
C67 C66 1.387 . S
C67 C68 1.384 . S
C67 H76 0.930 . S
C68 C65 1.380 . S
C68 C67 1.384 . S
C68 H77 0.931 . S
C69 C65 1.374 . S
C69 C70 1.390 . S
C69 H78 0.930 . S
C70 C66 1.391 . S
C70 C69 1.390 . S
C70 H79 0.930 . S
C71 Eu41 2.845 . S
C71 O56 1.238 . S
C71 O57 1.247 . S
C71 C65 1.507 . S
H72 C45 0.930 . S
H73 C46 0.931 . S
H74 C47 0.930 . S
H75 C48 0.930 . S
H76 C67 0.930 . S
H77 C68 0.931 . S
H78 C69 0.930 . S
H79 C70 0.930 . S
Tb80 C90 2.825 . S
Tb80 O91 2.347 . S
Tb80 O94 2.366 . S
Tb80 O99 2.418 . S
Tb80 O100 2.384 . S
Tb80 O103 2.479 . S
Tb80 O104 2.471 . S
Eu81 O92 2.418 . S
Eu81 O93 2.384 . S
Eu81 O96 2.479 . S
Eu81 O97 2.471 . S
Eu81 O98 2.347 . S
Eu81 O101 2.366 . S
Eu81 C111 2.825 . S
C82 O98 1.259 . S
C82 O99 1.265 . S
C83 O100 1.255 . S
C83 O101 1.265 . S
C84 C86 1.380 . S
C84 C87 1.374 . S
C84 C90 1.507 . S
C85 C86 1.384 . S
C85 C89 1.387 . S
C85 H112 0.930 . S
C86 C84 1.380 . S
C86 C85 1.384 . S
C86 H113 0.931 . S
C87 C84 1.374 . S
C87 C88 1.390 . S
C87 H114 0.930 . S
C88 C87 1.390 . S
C88 C89 1.391 . S
C88 H115 0.930 . S
C89 C85 1.387 . S
C89 C88 1.391 . S
C90 Tb80 2.825 . S
C90 C84 1.507 . S
C90 O103 1.238 . S
C90 O104 1.247 . S
O91 Tb80 2.347 . S
O91 C95 1.259 . S
O92 Eu81 2.418 . S
O92 C95 1.265 . S
O93 Eu81 2.384 . S
O93 C102 1.255 . S
O94 Tb80 2.366 . S
O94 C102 1.265 . S
C95 O91 1.259 . S
C95 O92 1.265 . S
O96 Eu81 2.479 . S
O96 C111 1.238 . S
O97 Eu81 2.471 . S
O97 C111 1.247 . S
O98 Eu81 2.347 . S
O98 C82 1.259 . S
O99 Tb80 2.418 . S
O99 C82 1.265 . S
O100 Tb80 2.384 . S
O100 C83 1.255 . S
O101 Eu81 2.366 . S
O101 C83 1.265 . S
C102 O93 1.255 . S
C102 O94 1.265 . S
O103 Tb80 2.479 . S
O103 C90 1.238 . S
O104 Tb80 2.471 . S
O104 C90 1.247 . S
C105 C108 1.380 . S
C105 C109 1.374 . S
C105 C111 1.507 . S
C106 C107 1.387 . S
C106 C110 1.391 . S
C107 C106 1.387 . S
C107 C108 1.384 . S
C107 H116 0.930 . S
C108 C105 1.380 . S
C108 C107 1.384 . S
C108 H117 0.931 . S
C109 C105 1.374 . S
C109 C110 1.390 . S
C109 H118 0.930 . S
C110 C106 1.391 . S
C110 C109 1.390 . S
C110 H119 0.930 . S
C111 Eu81 2.825 . S
C111 O96 1.238 . S
C111 O97 1.247 . S
C111 C105 1.507 . S
H112 C85 0.930 . S
H113 C86 0.931 . S
H114 C87 0.930 . S
H115 C88 0.930 . S
H116 C107 0.930 . S
H117 C108 0.931 . S
H118 C109 0.930 . S
H119 C110 0.930 . S
H120 C128 0.929 . S
H121 C130 0.930 . S
H122 C132 0.930 . S
H123 C135 0.929 . S
H124 C138 0.930 . S
H125 C140 0.960 . S
H126 C140 0.960 . S
H127 C140 0.960 . S
C128 H120 0.929 . S
C128 C129 1.377 . S
C128 C130 1.384 . S
C129 C128 1.377 . S
C129 C135 1.390 . S
C130 H121 0.930 . S
C130 C128 1.384 . S
C130 C131 1.372 . S
C131 C130 1.372 . S
C131 C132 1.400 . S
C131 C136 1.490 . S
C132 H122 0.930 . S
C132 C131 1.400 . S
C132 C135 1.386 . S
H133 C149 0.930 . S
H134 C150 0.931 . S
C135 H123 0.929 . S
C135 C129 1.390 . S
C135 C132 1.386 . S
C136 C131 1.490 . S
C136 C138 1.395 . S
C136 C139 1.403 1_554 S
H137 C143 0.930 . S
C138 H124 0.930 . S
C138 C136 1.395 . S
C138 C141 1.403 . S
C139 C136 1.403 1_556 S
C139 C140 1.524 . S
C139 C143 1.400 . S
C140 H125 0.960 . S
C140 H126 0.960 . S
C140 H127 0.960 . S
C140 C139 1.524 . S
C141 C138 1.403 . S
C141 C142 1.392 1_554 S
C141 C145 1.495 . S
C142 C141 1.392 1_556 S
C142 C143 1.385 . S
C142 C144 1.478 . S
C143 H137 0.930 . S
C143 C139 1.400 . S
C143 C142 1.385 . S
C144 C142 1.478 . S
C144 C146 1.381 . S
C144 C150 1.383 . S
C145 C141 1.495 . S
C145 H151 0.959 . S
C145 H152 0.961 . S
C145 H153 0.960 . S
C146 C144 1.381 . S
C146 C147 1.394 . S
C146 H154 0.930 . S
C147 C146 1.394 . S
C147 C148 1.383 . S
C147 H155 0.929 . S
C148 C147 1.383 . S
C148 C149 1.377 . S
C149 H133 0.930 . S
C149 C148 1.377 . S
C149 C150 1.379 . S
C150 H134 0.931 . S
C150 C144 1.383 . S
C150 C149 1.379 . S
H151 C145 0.959 . S
H152 C145 0.961 . S
H153 C145 0.960 . S
H154 C146 0.930 . S
H155 C147 0.929 . S
H156 C164 0.929 . S
H157 C166 0.930 . S
H158 C168 0.930 . S
H159 C171 0.929 . S
H160 C174 0.930 . S
H161 C176 0.960 . S
H162 C176 0.960 . S
H163 C176 0.960 . S
C164 H156 0.929 . S
C164 C165 1.377 . S
C164 C166 1.384 . S
C165 C164 1.377 . S
C165 C171 1.390 . S
C166 H157 0.930 . S
C166 C164 1.384 . S
C166 C167 1.372 . S
C167 C166 1.372 . S
C167 C168 1.400 . S
C167 C172 1.490 . S
C168 H158 0.930 . S
C168 C167 1.400 . S
C168 C171 1.386 . S
H169 C185 0.930 . S
H170 C186 0.931 . S
C171 H159 0.929 . S
C171 C165 1.390 . S
C171 C168 1.386 . S
C172 C167 1.490 . S
C172 C174 1.395 . S
C172 C175 1.403 . S
H173 C179 0.930 . S
C174 H160 0.930 . S
C174 C172 1.395 . S
C174 C177 1.403 . S
C175 C172 1.403 . S
C175 C176 1.524 . S
C175 C179 1.400 . S
C176 H161 0.960 . S
C176 H162 0.960 . S
C176 H163 0.960 . S
C176 C175 1.524 . S
C177 C174 1.403 . S
C177 C178 1.392 . S
C177 C181 1.495 . S
C178 C177 1.392 . S
C178 C179 1.385 . S
C178 C180 1.478 . S
C179 H173 0.930 . S
C179 C175 1.400 . S
C179 C178 1.385 . S
C180 C178 1.478 . S
C180 C182 1.381 . S
C180 C186 1.383 . S
C181 C177 1.495 . S
C181 H187 0.959 . S
C181 H188 0.961 . S
C181 H189 0.960 . S
C182 C180 1.381 . S
C182 C183 1.394 . S
C182 H190 0.930 . S
C183 C182 1.394 . S
C183 C184 1.383 . S
C183 H191 0.929 . S
C184 C183 1.383 . S
C184 C185 1.377 . S
C185 H169 0.930 . S
C185 C184 1.377 . S
C185 C186 1.379 . S
C186 H170 0.931 . S
C186 C180 1.383 . S
C186 C185 1.379 . S
H187 C181 0.959 . S
H188 C181 0.961 . S
H189 C181 0.960 . S
H190 C182 0.930 . S
H191 C183 0.929 . S
H192 C200 0.929 . S
H193 C202 0.930 . S
H194 C204 0.930 . S
H195 C207 0.929 . S
H196 C210 0.930 . S
H197 C212 0.960 . S
H198 C212 0.960 . S
H199 C212 0.960 . S
C200 H192 0.929 . S
C200 C201 1.377 . S
C200 C202 1.384 . S
C201 C200 1.377 . S
C201 C207 1.390 . S
C202 H193 0.930 . S
C202 C200 1.384 . S
C202 C203 1.372 . S
C203 C202 1.372 . S
C203 C204 1.400 . S
C203 C208 1.490 . S
C204 H194 0.930 . S
C204 C203 1.400 . S
C204 C207 1.386 . S
H205 C221 0.930 . S
H206 C222 0.931 . S
C207 H195 0.929 . S
C207 C201 1.390 . S
C207 C204 1.386 . S
C208 C203 1.490 . S
C208 C210 1.395 . S
C208 C211 1.403 . S
H209 C215 0.930 . S
C210 H196 0.930 . S
C210 C208 1.395 . S
C210 C213 1.403 . S
C211 C208 1.403 . S
C211 C212 1.524 . S
C211 C215 1.400 . S
C212 H197 0.960 . S
C212 H198 0.960 . S
C212 H199 0.960 . S
C212 C211 1.524 . S
C213 C210 1.403 . S
C213 C214 1.392 . S
C213 C217 1.495 . S
C214 C213 1.392 . S
C214 C215 1.385 . S
C214 C216 1.478 . S
C215 H209 0.930 . S
C215 C211 1.400 . S
C215 C214 1.385 . S
C216 C214 1.478 . S
C216 C218 1.381 . S
C216 C222 1.383 . S
C217 C213 1.495 . S
C217 H223 0.959 . S
C217 H224 0.961 . S
C217 H225 0.960 . S
C218 C216 1.381 . S
C218 C219 1.394 . S
C218 H226 0.930 . S
C219 C218 1.394 . S
C219 C220 1.383 . S
C219 H227 0.929 . S
C220 C219 1.383 . S
C220 C221 1.377 . S
C221 H205 0.930 . S
C221 C220 1.377 . S
C221 C222 1.379 . S
C222 H206 0.931 . S
C222 C216 1.383 . S
C222 C221 1.379 . S
H223 C217 0.959 . S
H224 C217 0.961 . S
H225 C217 0.960 . S
H226 C218 0.930 . S
H227 C219 0.929 . S
H228 C236 0.929 . S
H229 C238 0.930 1_554 S
H230 C240 0.930 . S
H231 C243 0.929 . S
H232 C246 0.930 . S
H233 C248 0.960 . S
H234 C248 0.960 . S
H235 C248 0.960 . S
C236 H228 0.929 . S
C236 C237 1.377 . S
C236 C238 1.384 . S
C237 C236 1.377 . S
C237 C243 1.390 . S
C238 H229 0.930 1_556 S
C238 C236 1.384 . S
C238 C239 1.372 . S
C239 C238 1.372 . S
C239 C240 1.400 . S
C239 C244 1.490 . S
C240 H230 0.930 . S
C240 C239 1.400 . S
C240 C243 1.386 . S
H241 C257 0.930 . S
H242 C258 0.931 1_556 S
C243 H231 0.929 . S
C243 C237 1.390 . S
C243 C240 1.386 . S
C244 C239 1.490 . S
C244 C246 1.395 1_556 S
C244 C247 1.403 . S
H245 C251 0.930 . S
C246 H232 0.930 . S
C246 C244 1.395 1_554 S
C246 C249 1.403 . S
C247 C244 1.403 . S
C247 C248 1.524 . S
C247 C251 1.400 1_556 S
C248 H233 0.960 . S
C248 H234 0.960 . S
C248 H235 0.960 . S
C248 C247 1.524 . S
C249 C246 1.403 . S
C249 C250 1.392 . S
C249 C253 1.495 . S
C250 C249 1.392 . S
C250 C251 1.385 . S
C250 C252 1.478 . S
C251 H245 0.930 . S
C251 C247 1.400 1_554 S
C251 C250 1.385 . S
C252 C250 1.478 . S
C252 C254 1.381 . S
C252 C258 1.383 . S
C253 C249 1.495 . S
C253 H259 0.959 . S
C253 H260 0.961 . S
C253 H261 0.960 . S
C254 C252 1.381 . S
C254 C255 1.394 . S
C254 H262 0.930 . S
C255 C254 1.394 . S
C255 C256 1.383 . S
C255 H263 0.929 . S
C256 C255 1.383 . S
C256 C257 1.377 . S
C257 H241 0.930 . S
C257 C256 1.377 . S
C257 C258 1.379 . S
C258 H242 0.931 1_554 S
C258 C252 1.383 . S
C258 C257 1.379 . S
H259 C253 0.959 . S
H260 C253 0.961 . S
H261 C253 0.960 . S
H262 C254 0.930 . S
H263 C255 0.929 . S
H264 C272 0.929 . S
H265 C274 0.930 . S
H266 C276 0.930 . S
H267 C279 0.929 . S
H268 C282 0.930 . S
H269 C284 0.960 . S
H270 C284 0.960 . S
H271 C284 0.960 . S
C272 H264 0.929 . S
C272 C273 1.377 . S
C272 C274 1.384 . S
C273 C272 1.377 . S
C273 C279 1.390 . S
C274 H265 0.930 . S
C274 C272 1.384 . S
C274 C275 1.372 . S
C275 C274 1.372 . S
C275 C276 1.400 . S
C275 C280 1.490 . S
C276 H266 0.930 . S
C276 C275 1.400 . S
C276 C279 1.386 . S
H277 C293 0.930 . S
H278 C294 0.931 . S
C279 H267 0.929 . S
C279 C273 1.390 . S
C279 C276 1.386 . S
C280 C275 1.490 . S
C280 C282 1.395 . S
C280 C283 1.403 . S
H281 C287 0.930 . S
C282 H268 0.930 . S
C282 C280 1.395 . S
C282 C285 1.403 . S
C283 C280 1.403 . S
C283 C284 1.524 . S
C283 C287 1.400 . S
C284 H269 0.960 . S
C284 H270 0.960 . S
C284 H271 0.960 . S
C284 C283 1.524 . S
C285 C282 1.403 . S
C285 C286 1.392 . S
C285 C289 1.495 . S
C286 C285 1.392 . S
C286 C287 1.385 . S
C286 C288 1.478 . S
C287 H281 0.930 . S
C287 C283 1.400 . S
C287 C286 1.385 . S
C288 C286 1.478 . S
C288 C290 1.381 . S
C288 C294 1.383 . S
C289 C285 1.495 . S
C289 H295 0.959 . S
C289 H296 0.961 . S
C289 H297 0.960 . S
C290 C288 1.381 . S
C290 C291 1.394 . S
C290 H298 0.930 . S
C291 C290 1.394 . S
C291 C292 1.383 . S
C291 H299 0.929 . S
C292 C291 1.383 . S
C292 C293 1.377 . S
C293 H277 0.930 . S
C293 C292 1.377 . S
C293 C294 1.379 . S
C294 H278 0.931 . S
C294 C288 1.383 . S
C294 C293 1.379 . S
H295 C289 0.959 . S
H296 C289 0.961 . S
H297 C289 0.960 . S
H298 C290 0.930 . S
H299 C291 0.929 . S
H300 C308 0.929 . S
H301 C310 0.930 . S
H302 C312 0.930 . S
H303 C315 0.929 . S
H304 C318 0.930 . S
H305 C320 0.960 . S
H306 C320 0.960 . S
H307 C320 0.960 . S
C308 H300 0.929 . S
C308 C309 1.377 . S
C308 C310 1.384 . S
C309 C308 1.377 . S
C309 C315 1.390 . S
C310 H301 0.930 . S
C310 C308 1.384 . S
C310 C311 1.372 . S
C311 C310 1.372 . S
C311 C312 1.400 . S
C311 C316 1.490 . S
C312 H302 0.930 . S
C312 C311 1.400 . S
C312 C315 1.386 . S
H313 C329 0.930 . S
H314 C330 0.931 . S
C315 H303 0.929 . S
C315 C309 1.390 . S
C315 C312 1.386 . S
C316 C311 1.490 . S
C316 C318 1.395 . S
C316 C319 1.403 . S
H317 C323 0.930 . S
C318 H304 0.930 . S
C318 C316 1.395 . S
C318 C321 1.403 . S
C319 C316 1.403 . S
C319 C320 1.524 . S
C319 C323 1.400 . S
C320 H305 0.960 . S
C320 H306 0.960 . S
C320 H307 0.960 . S
C320 C319 1.524 . S
C321 C318 1.403 . S
C321 C322 1.392 . S
C321 C325 1.495 . S
C322 C321 1.392 . S
C322 C323 1.385 . S
C322 C324 1.478 . S
C323 H317 0.930 . S
C323 C319 1.400 . S
C323 C322 1.385 . S
C324 C322 1.478 . S
C324 C326 1.381 . S
C324 C330 1.383 . S
C325 C321 1.495 . S
C325 H331 0.959 . S
C325 H332 0.961 . S
C325 H333 0.960 . S
C326 C324 1.381 . S
C326 C327 1.394 . S
C326 H334 0.930 . S
C327 C326 1.394 . S
C327 C328 1.383 . S
C327 H335 0.929 . S
C328 C327 1.383 . S
C328 C329 1.377 . S
C329 H313 0.930 . S
C329 C328 1.377 . S
C329 C330 1.379 . S
C330 H314 0.931 . S
C330 C324 1.383 . S
C330 C329 1.379 . S
H331 C325 0.959 . S
H332 C325 0.961 . S
H333 C325 0.960 . S
H334 C326 0.930 . S
H335 C327 0.929 . S
H336 C344 0.929 . S
H337 C346 0.930 . S
H338 C348 0.930 . S
H339 C351 0.935 . S
H340 C354 0.930 . S
H341 C356 0.960 . S
H342 C356 0.960 . S
H343 C356 0.960 . S
C344 H336 0.929 . S
C344 C345 1.377 1_656 S
C344 C346 1.384 . S
C345 C344 1.377 1_454 S
C345 C351 1.390 1_554 S
C346 H337 0.930 . S
C346 C344 1.384 . S
C346 C347 1.372 1_655 S
C347 C346 1.372 1_455 S
C347 C348 1.400 . S
C347 C352 1.490 . S
C348 H338 0.930 . S
C348 C347 1.400 . S
C348 C351 1.386 . S
H349 C365 0.930 . S
H350 C366 0.931 . S
C351 H339 0.935 . S
C351 C345 1.390 1_556 S
C351 C348 1.386 . S
C352 C347 1.490 . S
C352 C354 1.395 1_455 S
C352 C355 1.403 . S
H353 C359 0.930 . S
C354 H340 0.930 . S
C354 C352 1.395 1_655 S
C354 C357 1.403 . S
C355 C352 1.403 . S
C355 C356 1.524 . S
C355 C359 1.400 . S
C356 H341 0.960 . S
C356 H342 0.960 . S
C356 H343 0.960 . S
C356 C355 1.524 . S
C357 C354 1.403 . S
C357 C358 1.392 1_655 S
C357 C361 1.495 . S
C358 C357 1.392 1_455 S
C358 C359 1.385 . S
C358 C360 1.478 . S
C359 H353 0.930 . S
C359 C355 1.400 . S
C359 C358 1.385 . S
C360 C358 1.478 . S
C360 C362 1.381 1_455 S
C360 C366 1.383 . S
C361 C357 1.495 . S
C361 H367 0.959 . S
C361 H368 0.961 . S
C361 H369 0.960 . S
C362 C360 1.381 1_655 S
C362 C363 1.394 . S
C362 H370 0.930 . S
C363 C362 1.394 . S
C363 C364 1.383 1_655 S
C363 H371 0.929 . S
C364 C363 1.383 1_455 S
C364 C365 1.377 . S
C365 H349 0.930 . S
C365 C364 1.377 . S
C365 C366 1.379 . S
C366 H350 0.931 . S
C366 C360 1.383 . S
C366 C365 1.379 . S
H367 C361 0.959 . S
H368 C361 0.961 . S
H369 C361 0.960 . S
H370 C362 0.930 . S
H371 C363 0.929 . S
H372 C380 0.929 . S
H373 C382 0.930 . S
H374 C384 0.930 . S
H375 C387 0.929 . S
H376 C390 0.931 1_565 S
H377 C392 0.960 . S
H378 C392 0.960 . S
H379 C392 0.960 . S
C380 H372 0.929 . S
C380 C381 1.377 1_565 S
C380 C382 1.384 . S
C381 C380 1.377 1_545 S
C381 C387 1.390 . S
C382 H373 0.930 . S
C382 C380 1.384 . S
C382 C383 1.372 1_565 S
C383 C382 1.372 1_545 S
C383 C384 1.400 . S
C383 C388 1.490 . S
C384 H374 0.930 . S
C384 C383 1.400 . S
C384 C387 1.386 . S
H385 C401 0.930 . S
H386 C402 0.931 . S
C387 H375 0.929 . S
C387 C381 1.390 . S
C387 C384 1.386 . S
C388 C383 1.490 . S
C388 C390 1.395 . S
C388 C391 1.403 . S
H389 C395 0.930 . S
C390 H376 0.931 1_545 S
C390 C388 1.395 . S
C390 C393 1.403 1_554 S
C391 C388 1.403 . S
C391 C392 1.524 . S
C391 C395 1.400 1_554 S
C392 H377 0.960 . S
C392 H378 0.960 . S
C392 H379 0.960 . S
C392 C391 1.524 . S
C393 C390 1.403 1_556 S
C393 C394 1.392 . S
C393 C397 1.495 1_545 S
C394 C393 1.392 . S
C394 C395 1.385 . S
C394 C396 1.478 . S
C395 H389 0.930 . S
C395 C391 1.400 1_556 S
C395 C394 1.385 . S
C396 C394 1.478 . S
C396 C398 1.381 1_545 S
C396 C402 1.383 . S
C397 C393 1.495 1_565 S
C397 H403 0.959 . S
C397 H404 0.961 1_565 S
C397 H405 0.960 . S
C398 C396 1.381 1_565 S
C398 C399 1.394 . S
C398 H406 0.930 . S
C399 C398 1.394 . S
C399 C400 1.383 1_565 S
C399 H407 0.929 . S
C400 C399 1.383 1_545 S
C400 C401 1.377 . S
C401 H385 0.930 . S
C401 C400 1.377 . S
C401 C402 1.379 . S
C402 H386 0.931 . S
C402 C396 1.383 . S
C402 C401 1.379 . S
H403 C397 0.959 . S
H404 C397 0.961 1_545 S
H405 C397 0.960 . S
H406 C398 0.930 . S
H407 C399 0.929 . S
H408 C416 0.929 . S
H409 C418 0.930 . S
H410 C420 0.930 . S
H411 C423 0.929 . S
H412 C426 0.930 . S
H413 C428 0.960 . S
H414 C428 0.960 . S
H415 C428 0.960 . S
C416 H408 0.929 . S
C416 C417 1.377 . S
C416 C418 1.384 . S
C417 C416 1.377 . S
C417 C423 1.390 . S
C418 H409 0.930 . S
C418 C416 1.384 . S
C418 C419 1.372 . S
C419 C418 1.372 . S
C419 C420 1.400 . S
C419 C424 1.490 . S
C420 H410 0.930 . S
C420 C419 1.400 . S
C420 C423 1.386 . S
H421 C437 0.930 . S
H422 C438 0.931 . S
C423 H411 0.929 . S
C423 C417 1.390 . S
C423 C420 1.386 . S
C424 C419 1.490 . S
C424 C426 1.395 . S
C424 C427 1.403 . S
H425 C431 0.930 . S
C426 H412 0.930 . S
C426 C424 1.395 . S
C426 C429 1.403 . S
C427 C424 1.403 . S
C427 C428 1.524 . S
C427 C431 1.400 . S
C428 H413 0.960 . S
C428 H414 0.960 . S
C428 H415 0.960 . S
C428 C427 1.524 . S
C429 C426 1.403 . S
C429 C430 1.392 . S
C429 C433 1.495 . S
C430 C429 1.392 . S
C430 C431 1.385 . S
C430 C432 1.478 . S
C431 H425 0.930 . S
C431 C427 1.400 . S
C431 C430 1.385 . S
C432 C430 1.478 . S
C432 C434 1.381 . S
C432 C438 1.383 . S
C433 C429 1.495 . S
C433 H439 0.959 . S
C433 H440 0.961 . S
C433 H441 0.960 . S
C434 C432 1.381 . S
C434 C435 1.394 . S
C434 H442 0.930 . S
C435 C434 1.394 . S
C435 C436 1.383 1_554 S
C435 H443 0.929 . S
C436 C435 1.383 1_556 S
C436 C437 1.377 1_556 S
C437 H421 0.930 . S
C437 C436 1.377 1_554 S
C437 C438 1.379 . S
C438 H422 0.931 . S
C438 C432 1.383 . S
C438 C437 1.379 . S
H439 C433 0.959 . S
H440 C433 0.961 . S
H441 C433 0.960 . S
H442 C434 0.930 . S
H443 C435 0.929 . S
C129 C9 2.077 . S
C148 C102 2.054 . S
C165 C49 2.198 . S
C184 C3 2.178 . S
C201 C43 2.080 . S
C220 C89 2.080 . S
C237 C83 2.165 . S
C256 C26 2.127 . S
C273 C66 1.988 . S
C292 C22 2.041 . S
C309 C106 2.097 . S
C328 C62 2.147 . S
C345 C15 0.388 . S
C364 C2 0.449 . S
C381 C55 0.358 . S
C400 C42 0.446 . S
C417 C95 0.377 . S
C436 C82 0.463 . S
