# Generated by pormake.
# Topology vbm, (6)-cn, num edge types: 1
# Building blocks:
#     Node 0, Type 0, BuildingBlock: KUMBOL_clean_sbu_0, # of connection points: 6
#     Node 1, Type 0, BuildingBlock: KUMBOL_clean_sbu_0, # of connection points: 6
#     Node 2, Type 0, BuildingBlock: KUMBOL_clean_sbu_0, # of connection points: 6
#     Node 3, Type 0, BuildingBlock: KUMBOL_clean_sbu_0, # of connection points: 6
#     Node 4, Type 0, BuildingBlock: KUMBOL_clean_sbu_0, # of connection points: 6
#     Node 5, Type 0, BuildingBlock: KUMBOL_clean_sbu_0, # of connection points: 6
#     Node 6, Type 0, BuildingBlock: KUMBOL_clean_sbu_0, # of connection points: 6
#     Node 7, Type 0, BuildingBlock: KUMBOL_clean_sbu_0, # of connection points: 6
#     Node 8, Type 0, BuildingBlock: KUMBOL_clean_sbu_0, # of connection points: 6
#     Node 9, Type 0, BuildingBlock: KUMBOL_clean_sbu_0, # of connection points: 6
#     Node 10, Type 0, BuildingBlock: KUMBOL_clean_sbu_0, # of connection points: 6
#     Node 11, Type 0, BuildingBlock: KUMBOL_clean_sbu_0, # of connection points: 6
#     Node 12, Type 0, BuildingBlock: KUMBOL_clean_sbu_0, # of connection points: 6
#     Node 13, Type 0, BuildingBlock: KUMBOL_clean_sbu_0, # of connection points: 6
#     Node 14, Type 0, BuildingBlock: KUMBOL_clean_sbu_0, # of connection points: 6
#     Node 15, Type 0, BuildingBlock: KUMBOL_clean_sbu_0, # of connection points: 6
#     Edge 16, Type (0, 0), BuildingBlock: CIFDUS_clean_linker_0, # of connection points: 2
#     Edge 17, Type (0, 0), BuildingBlock: CIFDUS_clean_linker_0, # of connection points: 2
#     Edge 18, Type (0, 0), BuildingBlock: CIFDUS_clean_linker_0, # of connection points: 2
#     Edge 19, Type (0, 0), BuildingBlock: CIFDUS_clean_linker_0, # of connection points: 2
#     Edge 20, Type (0, 0), BuildingBlock: CIFDUS_clean_linker_0, # of connection points: 2
#     Edge 21, Type (0, 0), BuildingBlock: CIFDUS_clean_linker_0, # of connection points: 2
#     Edge 22, Type (0, 0), BuildingBlock: CIFDUS_clean_linker_0, # of connection points: 2
#     Edge 23, Type (0, 0), BuildingBlock: CIFDUS_clean_linker_0, # of connection points: 2
#     Edge 24, Type (0, 0), BuildingBlock: CIFDUS_clean_linker_0, # of connection points: 2
#     Edge 25, Type (0, 0), BuildingBlock: CIFDUS_clean_linker_0, # of connection points: 2
#     Edge 26, Type (0, 0), BuildingBlock: CIFDUS_clean_linker_0, # of connection points: 2
#     Edge 27, Type (0, 0), BuildingBlock: CIFDUS_clean_linker_0, # of connection points: 2
#     Edge 28, Type (0, 0), BuildingBlock: CIFDUS_clean_linker_0, # of connection points: 2
#     Edge 29, Type (0, 0), BuildingBlock: CIFDUS_clean_linker_0, # of connection points: 2
#     Edge 30, Type (0, 0), BuildingBlock: CIFDUS_clean_linker_0, # of connection points: 2
#     Edge 31, Type (0, 0), BuildingBlock: CIFDUS_clean_linker_0, # of connection points: 2
#     Edge 32, Type (0, 0), BuildingBlock: CIFDUS_clean_linker_0, # of connection points: 2
#     Edge 33, Type (0, 0), BuildingBlock: CIFDUS_clean_linker_0, # of connection points: 2
#     Edge 34, Type (0, 0), BuildingBlock: CIFDUS_clean_linker_0, # of connection points: 2
#     Edge 35, Type (0, 0), BuildingBlock: CIFDUS_clean_linker_0, # of connection points: 2
#     Edge 36, Type (0, 0), BuildingBlock: CIFDUS_clean_linker_0, # of connection points: 2
#     Edge 37, Type (0, 0), BuildingBlock: CIFDUS_clean_linker_0, # of connection points: 2
#     Edge 38, Type (0, 0), BuildingBlock: CIFDUS_clean_linker_0, # of connection points: 2
#     Edge 39, Type (0, 0), BuildingBlock: CIFDUS_clean_linker_0, # of connection points: 2
#     Edge 40, Type (0, 0), BuildingBlock: CIFDUS_clean_linker_0, # of connection points: 2
#     Edge 41, Type (0, 0), BuildingBlock: CIFDUS_clean_linker_0, # of connection points: 2
#     Edge 42, Type (0, 0), BuildingBlock: CIFDUS_clean_linker_0, # of connection points: 2
#     Edge 43, Type (0, 0), BuildingBlock: CIFDUS_clean_linker_0, # of connection points: 2
#     Edge 44, Type (0, 0), BuildingBlock: CIFDUS_clean_linker_0, # of connection points: 2
#     Edge 45, Type (0, 0), BuildingBlock: CIFDUS_clean_linker_0, # of connection points: 2
#     Edge 46, Type (0, 0), BuildingBlock: CIFDUS_clean_linker_0, # of connection points: 2
#     Edge 47, Type (0, 0), BuildingBlock: CIFDUS_clean_linker_0, # of connection points: 2
#     Edge 48, Type (0, 0), BuildingBlock: CIFDUS_clean_linker_0, # of connection points: 2
#     Edge 49, Type (0, 0), BuildingBlock: CIFDUS_clean_linker_0, # of connection points: 2
#     Edge 50, Type (0, 0), BuildingBlock: CIFDUS_clean_linker_0, # of connection points: 2
#     Edge 51, Type (0, 0), BuildingBlock: CIFDUS_clean_linker_0, # of connection points: 2
#     Edge 52, Type (0, 0), BuildingBlock: CIFDUS_clean_linker_0, # of connection points: 2
#     Edge 53, Type (0, 0), BuildingBlock: CIFDUS_clean_linker_0, # of connection points: 2
#     Edge 54, Type (0, 0), BuildingBlock: CIFDUS_clean_linker_0, # of connection points: 2
#     Edge 55, Type (0, 0), BuildingBlock: CIFDUS_clean_linker_0, # of connection points: 2
#     Edge 56, Type (0, 0), BuildingBlock: CIFDUS_clean_linker_0, # of connection points: 2
#     Edge 57, Type (0, 0), BuildingBlock: CIFDUS_clean_linker_0, # of connection points: 2
#     Edge 58, Type (0, 0), BuildingBlock: CIFDUS_clean_linker_0, # of connection points: 2
#     Edge 59, Type (0, 0), BuildingBlock: CIFDUS_clean_linker_0, # of connection points: 2
#     Edge 60, Type (0, 0), BuildingBlock: CIFDUS_clean_linker_0, # of connection points: 2
#     Edge 61, Type (0, 0), BuildingBlock: CIFDUS_clean_linker_0, # of connection points: 2
#     Edge 62, Type (0, 0), BuildingBlock: CIFDUS_clean_linker_0, # of connection points: 2
#     Edge 63, Type (0, 0), BuildingBlock: CIFDUS_clean_linker_0, # of connection points: 2
# Relax obj value: 0.079
# Max RMSD: 0.145
# Mean RMSD: 0.145
data_MOF--net-vbm--node1-KUMBOL_clean_sbu_0--edge1-CIFDUS_clean_linker_0
_symmetry_space_group_name_H-M    P1
_symmetry_Int_Tables_number       1
_symmetry_cell_setting            triclinic
loop_
_symmetry_equiv_pos_as_xyz
'x, y, z'
_cell_length_a     43.979412
_cell_length_b     22.59319
_cell_length_c     51.062409
_cell_angle_alpha  90.055185
_cell_angle_beta   90.2167
_cell_angle_gamma 89.996569
loop_
_atom_site_label
_atom_site_type_symbol
_atom_site_fract_x
_atom_site_fract_y
_atom_site_fract_z
_atom_type_partial_charge
Gd0 Gd 0.12828 0.2089 0.13462 0.0
Gd1 Gd 0.17171 0.0711 0.13015 0.0
C2 C 0.23493 0.99675 0.19354 0.0
C3 C 0.28409 0.0354 0.1803 0.0
C4 C 0.23876 0.05743 0.15462 0.0
C5 C 0.22133 0.0252 0.1719 0.0
C6 C 0.27048 0.06212 0.15836 0.0
C7 C 0.26634 1.00282 0.19788 0.0
C8 C 0.21666 0.96204 0.20984 0.0
C9 C 0.18591 0.95468 0.2038 0.0
N10 N 0.19109 1.02019 0.16704 0.0
C11 C 0.17357 0.98311 0.18189 0.0
H12 H 0.14979 0.97696 0.17738 0.0
C13 C 0.24167 0.11008 0.1148 0.0
N14 N 0.22487 0.08239 0.13361 0.0
C15 C 0.27317 0.11614 0.11768 0.0
C16 C 0.28763 0.09254 0.13969 0.0
H17 H 0.23087 0.12879 0.09774 0.0
H18 H 0.27719 0.98158 0.21448 0.0
H19 H 0.07695 0.19112 0.08663 0.0
H20 H 0.22621 0.9397 0.22674 0.0
H21 H 0.17169 0.92701 0.21598 0.0
H22 H 0.30839 0.03882 0.18359 0.0
H23 H 0.13857 0.27216 0.19373 0.0
H24 H 0.98796 0.18957 0.12013 0.0
H25 H 0.02141 0.1827 0.0814 0.0
H26 H 1.00659 0.24046 0.2099 0.0
H27 H 0.28624 0.13921 0.10296 0.0
H28 H 0.31203 0.09723 0.14185 0.0
H29 H 0.98271 0.2096 0.16837 0.0
H30 H 0.10873 0.29474 0.23327 0.0
N31 N 0.07526 0.20235 0.12798 0.0
C32 C 1.01236 0.19367 0.12253 0.0
C33 C 0.03115 0.18999 0.10063 0.0
C34 C 0.02523 0.20507 0.14711 0.0
C35 C 0.05713 0.21012 0.1491 0.0
C36 C 0.0627 0.19474 0.1037 0.0
N37 N 0.10095 0.23621 0.17264 0.0
C38 C 0.07044 0.22776 0.17226 0.0
C39 C 0.09769 0.2755 0.2163 0.0
C40 C 0.06656 0.26333 0.21676 0.0
C41 C 0.11452 0.26276 0.1938 0.0
C42 C 0.05241 0.24039 0.19436 0.0
H43 H 0.05354 0.27355 0.23416 0.0
O44 O 0.14772 0.29777 0.13549 0.0
O45 O 0.17509 0.16972 0.12986 0.0
O46 O 0.1694 0.10063 0.172 0.0
O47 O 0.12442 0.15553 0.17267 0.0
O48 O 0.16998 0.23676 0.15717 0.0
O49 O 0.114 0.27596 0.10655 0.0
O50 O 0.1936 0.02263 0.09859 0.0
O51 O 0.12634 0.11428 0.12276 0.0
O52 O 0.13213 0.17954 0.09187 0.0
O53 O 0.17618 0.12349 0.09281 0.0
O54 O 0.12574 0.03397 0.14182 0.0
O55 O 0.15521 0.98405 0.11822 0.0
C56 C 0.18924 0.20157 0.1465 0.0
C57 C 1.0208 0.23174 0.19304 0.0
C58 C 1.00722 0.21412 0.16942 0.0
C59 C 0.13058 0.31765 0.11679 0.0
C60 C 0.11594 0.37554 0.12141 0.0
C61 C 0.08504 0.37918 0.12801 0.0
C62 C 0.13316 0.42793 0.11926 0.0
C63 C 0.11955 0.48381 0.12325 0.0
C64 C 0.07144 0.43429 0.13196 0.0
C65 C 0.08846 0.48622 0.12953 0.0
C66 C 0.14582 0.12334 0.18431 0.0
C67 C 0.10889 0.07564 0.13269 0.0
C68 C 0.17737 0.9751 0.10198 0.0
C69 C 0.19368 0.91772 0.10427 0.0
C70 C 0.2256 0.91565 0.10494 0.0
C71 C 0.17718 0.86416 0.10537 0.0
C72 C 0.19226 0.80879 0.10653 0.0
C73 C 0.2407 0.86143 0.10609 0.0
C74 C 0.22431 0.80853 0.10663 0.0
C75 C 0.15565 0.15482 0.07995 0.0
H76 H 0.07143 0.33951 0.13006 0.0
H77 H 0.15704 0.42516 0.1142 0.0
H78 H 0.04759 0.43677 0.13703 0.0
H79 H 0.07738 0.52829 0.13304 0.0
H80 H 0.239 0.95586 0.10437 0.0
H81 H 0.15258 0.86601 0.10549 0.0
H82 H 0.26531 0.86035 0.10626 0.0
H83 H 0.23693 0.76744 0.10668 0.0
Gd84 Gd 0.91248 0.85644 0.14354 0.0
Gd85 Gd 0.86909 0.98942 0.12731 0.0
C86 C 0.76837 0.99038 0.10585 0.0
C87 C 0.76944 1.02198 0.06036 0.0
C88 C 0.8166 1.01031 0.08483 0.0
C89 C 0.80042 0.99257 0.10665 0.0
C90 C 0.80128 0.02634 0.06161 0.0
C91 C 0.75302 1.00388 0.08242 0.0
C92 C 0.75267 0.97703 0.12888 0.0
C93 C 0.76887 0.96909 0.15218 0.0
N94 N 0.81589 0.98152 0.12917 0.0
C95 C 0.80063 0.97281 0.15204 0.0
H96 H 0.81301 0.96804 0.17023 0.0
C97 C 0.86404 0.0367 0.06651 0.0
N98 N 0.84734 1.01433 0.08671 0.0
C99 C 0.84983 0.05369 0.0432 0.0
C100 C 0.81834 0.04813 0.04064 0.0
H101 H 0.88836 0.04138 0.06827 0.0
H102 H 0.72842 1.00214 0.0814 0.0
H103 H 0.96256 0.87409 0.0942 0.0
H104 H 0.72806 0.97477 0.12908 0.0
H105 H 0.75692 0.96059 0.17028 0.0
H106 H 0.75727 0.03373 0.04262 0.0
H107 H 0.90332 0.80491 0.20438 0.0
H108 H 0.05234 0.87533 0.12635 0.0
H109 H 1.01776 0.88255 0.0882 0.0
H110 H 0.03635 0.83027 0.21694 0.0
H111 H 0.8632 0.07177 0.02738 0.0
H112 H 0.80735 0.06231 0.02272 0.0
H113 H 0.05902 0.85681 0.17454 0.0
H114 H 0.9344 0.78541 0.2438 0.0
N115 N 0.96526 0.8628 0.13558 0.0
C116 C 0.02801 0.87123 0.12914 0.0
C117 C 1.00858 0.87517 0.10756 0.0
C118 C 1.01587 0.8604 0.15394 0.0
C119 C 0.98402 0.85572 0.15649 0.0
C120 C 0.97714 0.8703 0.1111 0.0
N121 N 0.94079 0.83395 0.1815 0.0
C122 C 0.97135 0.84089 0.18025 0.0
C123 C 0.94508 0.80128 0.22609 0.0
C124 C 0.97642 0.81108 0.22549 0.0
C125 C 0.92756 0.81226 0.20369 0.0
C126 C 0.99002 0.83026 0.20227 0.0
H127 H 0.98997 0.80235 0.24282 0.0
O128 O 0.89532 0.76774 0.15017 0.0
O129 O 0.86569 0.89187 0.13527 0.0
O130 O 0.87144 0.97449 0.17117 0.0
O131 O 0.91506 0.91817 0.17882 0.0
O132 O 0.87052 0.83499 0.16672 0.0
O133 O 0.92472 0.78512 0.11707 0.0
O134 O 0.88432 0.08033 0.12387 0.0
O135 O 0.91446 0.95231 0.13657 0.0
O136 O 0.90862 0.8729 0.09898 0.0
O137 O 0.8644 0.92787 0.0935 0.0
O138 O 0.91459 1.01705 0.10904 0.0
O139 O 0.85018 0.05689 0.15275 0.0
C140 C 0.85112 0.86471 0.15312 0.0
C141 C 0.02164 0.83757 0.20018 0.0
C142 C 0.03455 0.85266 0.17605 0.0
C143 C 0.91011 0.74527 0.13053 0.0
C144 C 0.92571 0.68917 0.13571 0.0
C145 C 0.95641 0.68727 0.14316 0.0
C146 C 0.90896 0.63658 0.13393 0.0
C147 C 0.92254 0.58176 0.13963 0.0
C148 C 0.9702 0.63295 0.14864 0.0
C149 C 0.95344 0.58045 0.14691 0.0
C150 C 0.89455 0.95801 0.18621 0.0
C151 C 0.93198 0.9822 0.12225 0.0
C152 C 0.86507 0.09953 0.14126 0.0
C153 C 0.84803 0.15311 0.13405 0.0
C154 C 0.817 0.15136 0.12757 0.0
C155 C 0.86363 0.20714 0.13325 0.0
C156 C 0.84864 0.25956 0.1259 0.0
C157 C 0.80186 0.20328 0.12037 0.0
C158 C 0.81751 0.25713 0.11953 0.0
C159 C 0.88574 0.89276 0.08428 0.0
H160 H 0.9696 0.72757 0.14483 0.0
H161 H 0.88528 0.6385 0.12799 0.0
H162 H 0.99389 0.63153 0.15444 0.0
H163 H 0.96452 0.53903 0.15171 0.0
H164 H 0.80449 0.11016 0.12804 0.0
H165 H 0.8875 0.20829 0.13862 0.0
H166 H 0.77795 0.20173 0.11534 0.0
H167 H 0.80539 0.29664 0.1136 0.0
Gd168 Gd 0.12388 0.85942 0.36528 0.0
Gd169 Gd 0.16754 0.99473 0.37785 0.0
C170 C 0.2703 0.99266 0.39083 0.0
C171 C 0.27466 0.02627 0.43592 0.0
C172 C 0.22493 1.01724 0.4153 0.0
C173 C 0.23838 0.99748 0.39249 0.0
C174 C 0.24292 0.03259 0.43719 0.0
C175 C 0.28833 1.00637 0.41278 0.0
C176 C 0.28317 0.97529 0.36701 0.0
C177 C 0.26435 0.9648 0.34543 0.0
N178 N 0.22031 0.98492 0.37161 0.0
C179 C 0.23283 0.97066 0.34799 0.0
H180 H 0.21859 0.96258 0.33112 0.0
C181 C 0.18015 0.04727 0.43712 0.0
N182 N 0.19424 0.02301 0.41584 0.0
C183 C 0.19699 0.06269 0.45939 0.0
C184 C 0.22849 0.05483 0.45953 0.0
H185 H 0.1558 0.05333 0.43716 0.0
H186 H 0.31287 1.00267 0.41191 0.0
H187 H 0.07358 0.87482 0.41425 0.0
H188 H 0.30759 0.97093 0.36496 0.0
H189 H 0.27409 0.95223 0.32681 0.0
H190 H 0.28886 0.03755 0.45258 0.0
H191 H 0.13478 0.80993 0.30427 0.0
H192 H 0.98393 0.87042 0.38157 0.0
H193 H 1.01804 0.87961 0.41998 0.0
H194 H 1.00138 0.82633 0.29106 0.0
H195 H 0.18567 0.08065 0.47642 0.0
H196 H 0.24149 0.06699 0.47677 0.0
H197 H 0.97795 0.85148 0.33332 0.0
H198 H 0.10427 0.78849 0.26458 0.0
N199 N 0.07117 0.86386 0.37289 0.0
C200 C 1.00833 0.868 0.37893 0.0
C201 C 0.02751 0.87305 0.40066 0.0
C202 C 1.02085 0.8581 0.35417 0.0
C203 C 0.05278 0.85553 0.3518 0.0
C204 C 0.05904 0.87033 0.39731 0.0
N205 N 0.09661 0.83615 0.32693 0.0
C206 C 0.0659 0.84111 0.32808 0.0
C207 C 0.09321 0.80351 0.28228 0.0
C208 C 0.06169 0.81113 0.28277 0.0
C209 C 0.1104 0.8155 0.30478 0.0
C210 C 0.04758 0.82932 0.30596 0.0
H211 H 0.04841 0.80161 0.26536 0.0
O212 O 0.13965 0.76972 0.35892 0.0
O213 O 0.16978 0.89689 0.37296 0.0
O214 O 0.1633 0.97232 0.33465 0.0
O215 O 0.11805 0.92068 0.33044 0.0
O216 O 0.16749 0.83373 0.34431 0.0
O217 O 0.1113 0.79008 0.39256 0.0
O218 O 0.15126 0.0851 0.38067 0.0
O219 O 0.12178 0.956 0.37148 0.0
O220 O 0.12895 0.8787 0.40953 0.0
O221 O 0.17191 0.93892 0.41348 0.0
O222 O 0.12387 1.02229 0.39873 0.0
O223 O 0.18293 0.06055 0.34999 0.0
C224 C 0.18604 0.86608 0.35772 0.0
C225 C 1.01584 0.83462 0.30789 0.0
C226 C 1.0025 0.84899 0.33195 0.0
C227 C 0.12476 0.74887 0.3789 0.0
C228 C 0.10798 0.69376 0.37416 0.0
C229 C 0.07649 0.69332 0.36968 0.0
C230 C 0.12431 0.64056 0.37339 0.0
C231 C 0.10955 0.58668 0.3681 0.0
C232 C 0.06156 0.6399 0.36462 0.0
C233 C 0.07792 0.58682 0.36383 0.0
C234 C 0.13879 0.95745 0.32106 0.0
C235 C 0.10572 0.98609 0.387 0.0
C236 C 0.16862 0.10357 0.36175 0.0
C237 C 0.18578 0.15808 0.36715 0.0
C238 C 0.21731 0.15752 0.37157 0.0
C239 C 0.16984 0.21165 0.3686 0.0
C240 C 0.185 0.2648 0.37451 0.0
C241 C 0.23262 0.21022 0.37726 0.0
C242 C 0.21663 0.26363 0.37872 0.0
C243 C 0.15162 0.90239 0.42345 0.0
H244 H 0.06351 0.73401 0.37003 0.0
H245 H 0.14861 0.64125 0.37707 0.0
H246 H 0.03727 0.63965 0.36113 0.0
H247 H 0.06591 0.54611 0.35948 0.0
H248 H 0.23006 0.1166 0.37069 0.0
H249 H 0.14553 0.21186 0.36495 0.0
H250 H 0.25693 0.20965 0.38069 0.0
H251 H 0.22892 0.30378 0.3835 0.0
Gd252 Gd 0.91222 0.18849 0.37439 0.0
Gd253 Gd 0.86628 0.0559 0.38688 0.0
C254 C 0.7627 0.0654 0.39233 0.0
C255 C 0.75382 0.03496 0.43729 0.0
C256 C 0.80534 0.04012 0.4203 0.0
C257 C 0.79429 0.059 0.39638 0.0
C258 C 0.78522 0.02672 0.44088 0.0
C259 C 0.74257 0.05439 0.41306 0.0
C260 C 0.75224 0.08096 0.36737 0.0
C261 C 0.77303 0.0875 0.34699 0.0
N262 N 0.81433 0.06796 0.37665 0.0
C263 C 0.8041 0.07979 0.3519 0.0
H264 H 0.81983 0.08486 0.33591 0.0
C265 C 0.84749 1.00769 0.44533 0.0
N266 N 0.83573 0.03207 0.42301 0.0
C267 C 0.82847 0.99371 0.46631 0.0
C268 C 0.79721 1.00379 0.46418 0.0
H269 H 0.87164 0.9999 0.44707 0.0
H270 H 0.71825 0.05935 0.41037 0.0
H271 H 0.9602 0.18065 0.42577 0.0
H272 H 0.72817 0.08656 0.36348 0.0
H273 H 0.76515 0.09841 0.32748 0.0
H274 H 0.738 0.02524 0.45293 0.0
H275 H 0.90474 0.23245 0.31206 0.0
H276 H 0.05132 0.17936 0.39691 0.0
H277 H 1.01533 0.17627 0.43399 0.0
H278 H 0.03843 0.21096 0.30475 0.0
H279 H 0.8379 0.97484 0.48402 0.0
H280 H 0.78247 0.99247 0.48037 0.0
H281 H 0.0597 0.19108 0.34854 0.0
H282 H 0.93714 0.24785 0.27324 0.0
N283 N 0.96458 0.18539 0.38432 0.0
C284 C 0.02708 0.18163 0.39317 0.0
C285 C 1.00684 0.18 0.41414 0.0
C286 C 1.01581 0.18804 0.36768 0.0
C287 C 0.98404 0.19067 0.3639 0.0
C288 C 0.97551 0.18245 0.40936 0.0
N289 N 0.94159 0.20792 0.33689 0.0
C290 C 0.97216 0.20231 0.33938 0.0
C291 C 0.94728 0.23484 0.29171 0.0
C292 C 0.97868 0.2264 0.29364 0.0
C293 C 0.92901 0.22629 0.31374 0.0
C294 C 0.99157 0.21088 0.31779 0.0
H295 H 0.9928 0.23327 0.27656 0.0
O296 O 0.89691 0.27762 0.36579 0.0
O297 O 0.8654 0.15342 0.38063 0.0
O298 O 0.87399 0.07202 0.34359 0.0
O299 O 0.91952 0.12403 0.34088 0.0
O300 O 0.87051 0.21196 0.35033 0.0
O301 O 0.92216 0.25988 0.40158 0.0
O302 O 0.87976 0.9647 0.39336 0.0
O303 O 0.91271 0.09261 0.38231 0.0
O304 O 0.90566 0.17149 0.41858 0.0
O305 O 0.86143 0.11466 0.42184 0.0
O306 O 0.90825 0.02816 0.41029 0.0
O307 O 0.85465 0.98869 0.35821 0.0
C308 C 0.85075 0.18246 0.36355 0.0
C309 C 0.02315 0.20516 0.32115 0.0
C310 C 0.03526 0.19379 0.34607 0.0
C311 C 0.90944 0.2999 0.38673 0.0
C312 C 0.92577 0.35582 0.38316 0.0
C313 C 0.95693 0.35724 0.37753 0.0
C314 C 0.90934 0.40884 0.38482 0.0
C315 C 0.92379 0.46366 0.38106 0.0
C316 C 0.97151 0.41149 0.37377 0.0
C317 C 0.95513 0.46442 0.37551 0.0
C318 C 0.89913 0.08686 0.33112 0.0
C319 C 0.92741 0.06264 0.3989 0.0
C320 C 0.86636 0.94589 0.37213 0.0
C321 C 0.84821 0.89181 0.37478 0.0
C322 C 0.81721 0.89393 0.38095 0.0
C323 C 0.86257 0.83695 0.37153 0.0
C324 C 0.8462 0.78386 0.37431 0.0
C325 C 0.80076 0.84148 0.38379 0.0
C326 C 0.81508 0.7867 0.3805 0.0
C327 C 0.88224 0.15003 0.43212 0.0
H328 H 0.96988 0.31665 0.37601 0.0
H329 H 0.88511 0.40718 0.38862 0.0
H330 H 0.9956 0.41254 0.36951 0.0
H331 H 0.96705 0.5059 0.37281 0.0
H332 H 0.80577 0.93589 0.38359 0.0
H333 H 0.8867 0.83577 0.36728 0.0
H334 H 0.77684 0.8434 0.38858 0.0
H335 H 0.80178 0.74668 0.38256 0.0
Gd336 Gd 0.87649 0.96789 0.88524 0.0
Gd337 Gd 0.92374 0.83818 0.86893 0.0
C338 C 0.02524 0.8408 0.85048 0.0
C339 C 0.02548 0.82207 0.80359 0.0
C340 C 0.97772 0.82506 0.82741 0.0
C341 C 0.99321 0.83747 0.85036 0.0
C342 C 0.99369 0.81619 0.80385 0.0
C343 C 0.04124 0.83438 0.82688 0.0
C344 C 0.04027 0.84867 0.87443 0.0
C345 C 0.02342 0.85088 0.89752 0.0
N346 N 0.97705 0.84309 0.8728 0.0
C347 C 0.99168 0.84724 0.89636 0.0
H348 H 0.97893 0.84906 0.91435 0.0
C349 C 0.931 0.80195 0.80669 0.0
N350 N 0.94703 0.81964 0.82833 0.0
C351 C 0.94581 0.79281 0.78286 0.0
C352 C 0.97725 0.80044 0.78139 0.0
H353 H 0.90668 0.79633 0.80756 0.0
H354 H 0.06582 0.83744 0.82654 0.0
H355 H 0.82766 0.93916 0.83553 0.0
H356 H 0.06484 0.85159 0.87537 0.0
H357 H 0.03483 0.85569 0.91621 0.0
H358 H 0.03812 0.81597 0.78562 0.0
H359 H 0.8834 1.02109 0.94584 0.0
H360 H 0.7382 0.92347 0.86705 0.0
H361 H 0.77316 0.92 0.82925 0.0
H362 H 0.75189 0.97383 0.95754 0.0
H363 H 0.93299 0.77986 0.76566 0.0
H364 H 0.98863 0.79287 0.76299 0.0
H365 H 0.73051 0.94316 0.915 0.0
H366 H 0.85163 0.03448 0.98519 0.0
N367 N 0.82426 0.95235 0.87676 0.0
C368 C 0.76222 0.93206 0.86996 0.0
C369 C 0.78187 0.93018 0.84859 0.0
C370 C 0.77371 0.9464 0.89474 0.0
C371 C 0.8052 0.95691 0.89748 0.0
C372 C 0.8129 0.9412 0.85229 0.0
N373 N 0.84729 0.98597 0.92284 0.0
C374 C 0.81714 0.97409 0.92132 0.0
C375 C 0.84162 1.01735 0.9674 0.0
C376 C 0.81083 1.00221 0.96658 0.0
C377 C 0.85952 1.00989 0.94508 0.0
C378 C 0.79807 0.98138 0.9432 0.0
H379 H 0.79695 1.00783 0.98387 0.0
O380 O 0.89103 0.05848 0.89162 0.0
O381 O 0.92308 0.93418 0.87766 0.0
O382 O 0.92288 0.85565 0.91331 0.0
O383 O 0.87818 0.90925 0.92076 0.0
O384 O 0.91926 0.99823 0.90634 0.0
O385 O 0.86072 0.03778 0.85928 0.0
O386 O 0.90721 0.74877 0.86309 0.0
O387 O 0.87754 0.87102 0.87872 0.0
O388 O 0.88122 0.95189 0.84142 0.0
O389 O 0.92757 0.90451 0.83585 0.0
O390 O 0.87966 0.81102 0.84882 0.0
O391 O 0.93939 0.76726 0.8944 0.0
C392 C 0.93817 0.96549 0.89364 0.0
C393 C 0.76688 0.96894 0.94088 0.0
C394 C 0.75471 0.95151 0.91667 0.0
C395 C 0.87471 0.07928 0.87243 0.0
C396 C 0.85794 0.13405 0.87807 0.0
C397 C 0.82706 0.13356 0.88481 0.0
C398 C 0.87381 0.18788 0.87755 0.0
C399 C 0.85927 0.24149 0.8839 0.0
C400 C 0.81227 0.18664 0.89078 0.0
C401 C 0.82818 0.24031 0.89036 0.0
C402 C 0.90114 0.87611 0.92904 0.0
C403 C 0.86124 0.84066 0.86334 0.0
C404 C 0.92386 0.72688 0.88185 0.0
C405 C 0.93896 0.67052 0.87589 0.0
C406 C 0.96946 0.66812 0.86809 0.0
C407 C 0.92184 0.61818 0.87723 0.0
C408 C 0.9349 0.5632 0.87087 0.0
C409 C 0.98271 0.61368 0.8619 0.0
C410 C 0.96563 0.56153 0.86327 0.0
C411 C 0.90557 0.93959 0.82724 0.0
H412 H 0.81451 0.09235 0.88558 0.0
H413 H 0.89762 0.18782 0.87213 0.0
H414 H 0.78845 0.18611 0.896 0.0
H415 H 0.81631 0.28059 0.89559 0.0
H416 H 0.98291 0.70814 0.86666 0.0
H417 H 0.89829 0.6204 0.88338 0.0
H418 H 1.00626 0.61191 0.85584 0.0
H419 H 0.97633 0.52007 0.85796 0.0
Gd420 Gd 0.17727 0.0496 0.88447 0.0
Gd421 Gd 0.13286 0.17781 0.862 0.0
C422 C 0.03277 0.17023 0.83805 0.0
C423 C 0.0356 0.18296 0.79086 0.0
C424 C 0.08162 0.18527 0.81738 0.0
C425 C 0.06471 0.17498 0.83966 0.0
C426 C 0.06726 0.19022 0.79275 0.0
C427 C 1.01837 0.17318 0.81348 0.0
C428 C 1.01625 0.16374 0.86124 0.0
C429 C 0.03157 0.16359 0.88523 0.0
N430 N 0.07941 0.17187 0.86302 0.0
C431 C 0.06329 0.16832 0.88579 0.0
H432 H 0.0748 0.16768 0.90446 0.0
C433 C 0.12939 0.20831 0.79892 0.0
N434 N 0.1121 0.1922 0.81994 0.0
C435 C 0.11627 0.21313 0.77404 0.0
C436 C 0.08513 0.20325 0.77087 0.0
H437 H 0.15354 0.21537 0.80114 0.0
H438 H 0.9939 0.16893 0.81182 0.0
H439 H 0.23488 0.07523 0.84288 0.0
H440 H 0.9917 0.15978 0.86087 0.0
H441 H 1.01899 0.15936 0.90331 0.0
H442 H 0.02415 0.18591 0.77209 0.0
H443 H 0.15753 1.00041 0.94388 0.0
H444 H 0.31769 0.0832 0.88689 0.0
H445 H 0.29032 0.08993 0.84458 0.0
H446 H 0.28628 0.03402 0.974 0.0
H447 H 0.13018 0.22421 0.7573 0.0
H448 H 0.07513 0.20675 0.75155 0.0
H449 H 0.31593 0.06264 0.93522 0.0
H450 H 0.18127 0.98446 0.98717 0.0
N451 N 0.23045 0.06209 0.88398 0.0
C452 C 0.29327 0.07688 0.88628 0.0
C453 C 0.27791 0.08057 0.86237 0.0
C454 C 0.27701 0.0636 0.90904 0.0
C455 C 0.24523 0.05594 0.90718 0.0
C456 C 0.2464 0.0722 0.86151 0.0
N457 N 0.19834 0.03059 0.92606 0.0
C458 C 0.22865 0.03966 0.92892 0.0
C459 C 0.19485 1.0001 0.97096 0.0
C460 C 0.2258 1.01156 0.97449 0.0
C461 C 0.18149 1.00909 0.94639 0.0
C462 C 0.24322 0.03078 0.95324 0.0
H463 H 0.23611 1.00445 0.99354 0.0
O464 O 0.16084 0.95948 0.88796 0.0
O465 O 0.13202 0.0825 0.87163 0.0
O466 O 0.13018 0.16511 0.90664 0.0
O467 O 0.17399 0.1126 0.91813 0.0
O468 O 0.13179 1.02223 0.90176 0.0
O469 O 0.19753 0.9795 0.86113 0.0
O470 O 0.14955 0.26672 0.85524 0.0
O471 O 0.17799 0.14609 0.87593 0.0
O472 O 0.1798 0.06445 0.84051 0.0
O473 O 0.13405 0.10951 0.82949 0.0
O474 O 0.17846 0.20246 0.84451 0.0
O475 O 0.11557 0.25109 0.88519 0.0
C476 C 0.11472 0.05369 0.88667 0.0
C477 C 0.27469 0.04025 0.95544 0.0
C478 C 0.29157 0.05658 0.93337 0.0
C479 C 0.18076 0.93834 0.87168 0.0
C480 C 0.19579 0.88328 0.87985 0.0
C481 C 0.22465 0.88336 0.89161 0.0
C482 C 0.18013 0.82968 0.87663 0.0
C483 C 0.19291 0.77592 0.88516 0.0
C484 C 0.2377 0.83013 0.8999 0.0
C485 C 0.22203 0.77668 0.89669 0.0
C486 C 0.15069 0.14695 0.92413 0.0
C487 C 0.19555 0.1746 0.86092 0.0
C488 C 0.13194 0.29027 0.87283 0.0
C489 C 0.11737 0.34624 0.86542 0.0
C490 C 0.08825 0.34789 0.8542 0.0
C491 C 0.13371 0.39898 0.86896 0.0
C492 C 0.12132 0.45372 0.86129 0.0
C493 C 0.0756 0.40208 0.84673 0.0
C494 C 0.09196 0.45467 0.8502 0.0
C495 C 0.15771 0.07588 0.82358 0.0
H496 H 0.23695 0.92439 0.89453 0.0
H497 H 0.15786 0.83002 0.86742 0.0
H498 H 0.25987 0.8304 0.90914 0.0
H499 H 0.2324 0.73623 0.90373 0.0
H500 H 0.07546 0.3075 0.85112 0.0
H501 H 0.15613 0.39722 0.87784 0.0
H502 H 0.05314 0.4033 0.83801 0.0
H503 H 0.08181 0.49588 0.84378 0.0
Gd504 Gd 0.8689 0.07458 0.62909 0.0
Gd505 Gd 0.91422 0.20408 0.64814 0.0
C506 C 1.01645 0.20131 0.66505 0.0
C507 C 1.01831 0.22766 0.71114 0.0
C508 C 0.96971 0.22031 0.68851 0.0
C509 C 0.98442 0.20511 0.66565 0.0
C510 C 0.9865 0.23249 0.71147 0.0
C511 C 0.03328 0.21181 0.68802 0.0
C512 C 0.03066 0.18846 0.64125 0.0
C513 C 1.01303 0.18159 0.6187 0.0
N514 N 0.96748 0.19614 0.64375 0.0
C515 C 0.98138 0.18646 0.62023 0.0
H516 H 0.96823 0.18088 0.60258 0.0
C517 C 0.92374 0.24525 0.70962 0.0
N518 N 0.93901 0.22544 0.68803 0.0
C519 C 0.93936 0.25725 0.73293 0.0
C520 C 0.97087 0.25048 0.73393 0.0
H521 H 0.89939 0.25079 0.70912 0.0
H522 H 0.05788 0.20903 0.68796 0.0
H523 H 0.81228 0.09147 0.67218 0.0
H524 H 0.05518 0.18486 0.64 0.0
H525 H 0.02379 0.17244 0.6001 0.0
H526 H 0.03153 0.23736 0.72852 0.0
H527 H 0.88748 0.02589 0.56924 0.0
H528 H 0.72801 0.09817 0.63007 0.0
H529 H 0.75646 0.10253 0.67193 0.0
H530 H 0.75761 0.0546 0.54188 0.0
H531 H 0.92707 0.27193 0.75008 0.0
H532 H 0.98295 0.2602 0.75197 0.0
H533 H 0.7287 0.08057 0.58146 0.0
H534 H 0.86268 1.00902 0.52647 0.0
N535 N 0.81567 0.08419 0.63079 0.0
C536 C 0.75256 0.09389 0.63004 0.0
C537 C 0.76852 0.09622 0.65371 0.0
C538 C 0.76838 0.08363 0.60676 0.0
C539 C 0.80034 0.07839 0.60783 0.0
C540 C 0.80019 0.09022 0.65375 0.0
N541 N 0.84696 0.0551 0.58787 0.0
C542 C 0.81648 0.0631 0.58567 0.0
C543 C 0.84941 0.02425 0.54295 0.0
C544 C 0.81829 0.03482 0.54009 0.0
C545 C 0.86339 0.03379 0.56723 0.0
C546 C 0.8013 0.05351 0.56168 0.0
H547 H 0.80748 0.0274 0.52132 0.0
O548 O 0.88471 0.98431 0.62454 0.0
O549 O 0.91455 0.10798 0.64044 0.0
O550 O 0.91401 0.18708 0.60378 0.0
O551 O 0.86863 0.13786 0.59536 0.0
O552 O 0.9142 0.04603 0.61125 0.0
O553 O 0.84984 1.00451 0.65315 0.0
O554 O 0.89703 0.2934 0.65303 0.0
O555 O 0.86754 0.17153 0.63782 0.0
O556 O 0.86903 0.08959 0.67321 0.0
O557 O 0.91401 0.14053 0.68257 0.0
O558 O 0.87115 0.22901 0.66917 0.0
O559 O 0.92987 0.27464 0.62261 0.0
C560 C 0.93173 0.07782 0.62583 0.0
C561 C 0.76965 0.06139 0.56019 0.0
C562 C 0.7532 0.07631 0.58271 0.0
C563 C 0.86562 0.96322 0.64157 0.0
C564 C 0.84973 0.90881 0.63366 0.0
C565 C 0.81991 0.90982 0.62383 0.0
C566 C 0.8655 0.85493 0.63504 0.0
C567 C 0.85188 0.80187 0.62656 0.0
C568 C 0.80607 0.85728 0.61558 0.0
C569 C 0.82188 0.8036 0.61691 0.0
C570 C 0.89203 0.1698 0.58757 0.0
C571 C 0.85228 0.19954 0.65494 0.0
C572 C 0.91394 0.31512 0.63456 0.0
C573 C 0.92891 0.37158 0.64064 0.0
C574 C 0.95886 0.37388 0.65006 0.0
C575 C 0.91221 0.42412 0.63775 0.0
C576 C 0.92508 0.47921 0.64434 0.0
C577 C 0.97197 0.42837 0.65642 0.0
C578 C 0.95526 0.48071 0.65365 0.0
C579 C 0.89128 0.10518 0.68943 0.0
H580 H 0.80746 0.95103 0.62236 0.0
H581 H 0.88849 0.85449 0.64279 0.0
H582 H 0.78314 0.85828 0.60784 0.0
H583 H 0.81088 0.76373 0.6099 0.0
H584 H 0.97199 0.33373 0.65261 0.0
H585 H 0.88913 0.42189 0.63026 0.0
H586 H 0.99508 0.43004 0.66376 0.0
H587 H 0.96581 0.52217 0.65924 0.0
Gd588 Gd 0.16684 0.9672 0.6263 0.0
Gd589 Gd 0.12505 0.83019 0.63686 0.0
C590 C 0.02491 0.83256 0.66106 0.0
C591 C 0.02782 0.80644 0.70711 0.0
C592 C 0.07371 0.81112 0.68087 0.0
C593 C 0.05683 0.8279 0.65936 0.0
C594 C 0.05939 0.79894 0.70491 0.0
C595 C 1.01057 0.82326 0.68524 0.0
C596 C 1.00829 0.84412 0.63823 0.0
C597 C 0.02347 0.84816 0.61436 0.0
N598 N 0.07146 0.83572 0.63631 0.0
C599 C 0.05518 0.8431 0.61372 0.0
H600 H 0.06652 0.84629 0.59511 0.0
C601 C 0.1212 0.78004 0.69768 0.0
N602 N 0.10412 0.80412 0.6779 0.0
C603 C 0.10808 0.76771 0.72199 0.0
C604 C 0.0771 0.77801 0.72575 0.0
H605 H 0.14517 0.772 0.69506 0.0
H606 H 0.98611 0.8272 0.68703 0.0
H607 H 0.15197 0.06838 0.67252 0.0
H608 H 0.98374 0.84804 0.63869 0.0
H609 H 1.0108 0.85547 0.59645 0.0
H610 H 1.01647 0.79768 0.72542 0.0
H611 H 0.22128 0.9139 0.58756 0.0
H612 H 0.23404 0.10619 0.71461 0.0
H613 H 0.17895 0.12228 0.70766 0.0
H614 H 0.3095 0.99832 0.66667 0.0
H615 H 0.12186 0.75022 0.73778 0.0
H616 H 0.06695 0.76816 0.74455 0.0
H617 H 0.28271 0.05902 0.69935 0.0
H618 H 0.27703 0.90118 0.58776 0.0
N619 N 0.19104 1.01991 0.6605 0.0
C620 C 0.22227 0.08214 0.69925 0.0
C621 C 0.19119 0.09146 0.69535 0.0
C622 C 0.23801 0.0437 0.68261 0.0
C623 C 0.22158 1.01339 0.66298 0.0
C624 C 0.17597 0.06072 0.67545 0.0
N625 N 0.22002 0.95508 0.62495 0.0
C626 C 0.23654 0.97938 0.64468 0.0
C627 C 0.26593 0.92282 0.60405 0.0
C628 C 0.2831 0.94439 0.62503 0.0
C629 C 0.2343 0.92967 0.6041 0.0
C630 C 0.26852 0.97446 0.64539 0.0
H631 H 0.30762 0.93959 0.62483 0.0
O632 O 0.18573 1.01631 0.59351 0.0
O633 O 0.12105 0.92375 0.62381 0.0
O634 O 0.12134 0.85785 0.59414 0.0
O635 O 0.16466 0.91475 0.58836 0.0
O636 O 0.12267 1.00547 0.64158 0.0
O637 O 0.14822 0.05294 0.61495 0.0
O638 O 0.14365 0.74055 0.63759 0.0
O639 O 0.17048 0.86845 0.62568 0.0
O640 O 0.16835 0.94181 0.66913 0.0
O641 O 0.12385 0.88706 0.6736 0.0
O642 O 0.17023 0.80772 0.65553 0.0
O643 O 0.10814 0.76247 0.61026 0.0
C644 C 0.10482 0.96332 0.6345 0.0
C645 C 0.28494 1.0019 0.66569 0.0
C646 C 0.2697 0.0365 0.68429 0.0
C647 C 0.16946 0.06329 0.598 0.0
C648 C 0.18568 0.12072 0.60069 0.0
C649 C 0.21759 0.12336 0.59935 0.0
C650 C 0.16925 0.1735 0.60512 0.0
C651 C 0.18445 0.22824 0.60801 0.0
C652 C 0.23271 0.17732 0.60216 0.0
C653 C 0.21635 0.22937 0.60639 0.0
C654 C 0.14209 0.88227 0.57885 0.0
C655 C 0.18768 0.83868 0.64078 0.0
C656 C 0.12514 0.72066 0.61983 0.0
C657 C 0.11047 0.6631 0.62509 0.0
C658 C 0.08036 0.66024 0.63389 0.0
C659 C 0.12663 0.61024 0.62052 0.0
C660 C 0.11262 0.55433 0.62385 0.0
C661 C 0.06632 0.60546 0.6374 0.0
C662 C 0.08209 0.55306 0.6322 0.0
C663 C 0.14554 0.92143 0.68333 0.0
H664 H 0.23098 0.08374 0.59625 0.0
H665 H 0.14464 0.17199 0.60618 0.0
H666 H 0.25729 0.17877 0.60121 0.0
H667 H 0.22874 0.27044 0.60889 0.0
H668 H 0.06759 0.70028 0.63775 0.0
H669 H 0.15014 0.6131 0.6144 0.0
H670 H 0.04292 0.60358 0.64385 0.0
H671 H 0.06998 0.51166 0.63431 0.0
Gd672 Gd 0.62473 0.70965 0.14182 0.0
Gd673 Gd 0.66873 0.57829 0.1244 0.0
C674 C 0.77025 0.58983 0.10728 0.0
C675 C 0.77197 0.56549 0.06092 0.0
C676 C 0.72367 0.5667 0.08393 0.0
C677 C 0.73835 0.58318 0.10681 0.0
C678 C 0.74034 0.55681 0.0608 0.0
C679 C 0.7869 0.58189 0.08412 0.0
C680 C 0.78451 0.60295 0.13114 0.0
C681 C 0.76709 0.60748 0.15386 0.0
N682 N 0.72161 0.59021 0.12887 0.0
C683 C 0.73553 0.60015 0.15243 0.0
H684 H 0.72233 0.60382 0.17012 0.0
C685 C 0.67809 0.53607 0.06319 0.0
N686 N 0.69315 0.55822 0.08452 0.0
C687 C 0.69358 0.5263 0.0397 0.0
C688 C 0.7248 0.53728 0.03842 0.0
H689 H 0.65393 0.5278 0.06409 0.0
H690 H 0.81139 0.58723 0.08407 0.0
H691 H 0.56848 0.68916 0.0976 0.0
H692 H 0.80895 0.60846 0.13233 0.0
H693 H 0.77794 0.61669 0.17248 0.0
H694 H 0.78517 0.55849 0.04331 0.0
H695 H 0.64107 0.77044 0.20004 0.0
H696 H 0.48358 0.68646 0.13792 0.0
H697 H 0.51291 0.67832 0.09684 0.0
H698 H 0.51108 0.74038 0.22561 0.0
H699 H 0.68145 0.51037 0.02262 0.0
H700 H 0.73678 0.5294 0.02025 0.0
H701 H 0.48318 0.70878 0.18615 0.0
H702 H 0.61524 0.79337 0.24159 0.0
N703 N 0.57125 0.70147 0.1389 0.0
C704 C 0.5081 0.69125 0.13839 0.0
C705 C 0.52455 0.68681 0.11517 0.0
C706 C 0.52339 0.70403 0.16178 0.0
C707 C 0.55535 0.70957 0.16132 0.0
C708 C 0.55621 0.69291 0.11573 0.0
N709 N 0.60135 0.73588 0.18162 0.0
C710 C 0.57092 0.72748 0.18342 0.0
C711 C 0.60252 0.77448 0.22544 0.0
C712 C 0.5715 0.76298 0.22806 0.0
C713 C 0.61708 0.76143 0.20183 0.0
C714 C 0.55515 0.74019 0.20676 0.0
H715 H 0.56028 0.77344 0.24633 0.0
O716 O 0.64307 0.79869 0.14421 0.0
O717 O 0.67088 0.67587 0.13082 0.0
O718 O 0.66673 0.59027 0.1686 0.0
O719 O 0.62551 0.6523 0.17803 0.0
O720 O 0.66893 0.7336 0.16185 0.0
O721 O 0.60759 0.77878 0.1161 0.0
O722 O 0.65417 0.48772 0.11818 0.0
O723 O 0.62312 0.61247 0.13552 0.0
O724 O 0.62307 0.68797 0.09791 0.0
O725 O 0.66855 0.63924 0.08987 0.0
O726 O 0.62362 0.55044 0.10605 0.0
O727 O 0.68697 0.50808 0.14887 0.0
C728 C 0.68724 0.70448 0.14702 0.0
C729 C 0.52355 0.73158 0.20779 0.0
C730 C 0.50768 0.71352 0.18532 0.0
C731 C 0.62449 0.81973 0.12672 0.0
C732 C 0.60993 0.87615 0.1335 0.0
C733 C 0.58007 0.87851 0.143 0.0
C734 C 0.62688 0.92848 0.13121 0.0
C735 C 0.61428 0.98338 0.13831 0.0
C736 C 0.56728 0.93289 0.14992 0.0
C737 C 0.58419 0.98504 0.14761 0.0
C738 C 0.64615 0.61235 0.18482 0.0
C739 C 0.60611 0.58224 0.12056 0.0
C740 C 0.67226 0.46674 0.13618 0.0
C741 C 0.68896 0.41274 0.12915 0.0
C742 C 0.71946 0.41417 0.12128 0.0
C743 C 0.6734 0.35863 0.12975 0.0
C744 C 0.68785 0.30569 0.12232 0.0
C745 C 0.73417 0.36174 0.11416 0.0
C746 C 0.71853 0.30778 0.11464 0.0
C747 C 0.64457 0.66909 0.08175 0.0
H748 H 0.56676 0.8385 0.14518 0.0
H749 H 0.64992 0.92632 0.12376 0.0
H750 H 0.54425 0.9346 0.15729 0.0
H751 H 0.5739 0.02648 0.15351 0.0
H752 H 0.73182 0.45558 0.12056 0.0
H753 H 0.64992 0.35792 0.13615 0.0
H754 H 0.75769 0.36299 0.10803 0.0
H755 H 0.73027 0.26799 0.10855 0.0
Gd756 Gd 0.41494 0.35846 0.13921 0.0
Gd757 Gd 0.3682 0.49046 0.12708 0.0
C758 C 0.26474 0.48459 0.11828 0.0
C759 C 0.25757 0.51804 0.07347 0.0
C760 C 0.30846 0.51046 0.092 0.0
C761 C 0.29648 0.49059 0.11533 0.0
C762 C 0.28914 0.52523 0.07089 0.0
C763 C 0.24538 0.49768 0.09713 0.0
C764 C 0.25338 0.46654 0.14254 0.0
C765 C 0.27347 0.45659 0.16329 0.0
N766 N 0.31583 0.47876 0.13541 0.0
C767 C 0.30473 0.46374 0.15947 0.0
H768 H 0.31985 0.45596 0.17576 0.0
C769 C 0.35171 0.54131 0.0683 0.0
N770 N 0.33902 0.51713 0.09022 0.0
C771 C 0.33353 0.55633 0.04679 0.0
C772 C 0.30211 0.54786 0.048 0.0
H773 H 0.37598 0.54792 0.06719 0.0
H774 H 0.22096 0.49309 0.09899 0.0
H775 H 0.46412 0.3693 0.08917 0.0
H776 H 0.22918 0.46105 0.14557 0.0
H777 H 0.2649 0.44342 0.18225 0.0
H778 H 0.24236 0.52889 0.05744 0.0
H779 H 0.40602 0.31353 0.20119 0.0
H780 H 0.55439 0.37397 0.12053 0.0
H781 H 0.51943 0.37657 0.08249 0.0
H782 H 0.5393 0.33883 0.21211 0.0
H783 H 0.34373 0.5746 0.02933 0.0
H784 H 0.28803 0.55988 0.03139 0.0
H785 H 0.56156 0.36081 0.16903 0.0
H786 H 0.43757 0.29801 0.24078 0.0
N787 N 0.46744 0.36384 0.13068 0.0
C788 C 0.53009 0.37061 0.12359 0.0
C789 C 0.51043 0.37194 0.10208 0.0
C790 C 0.51818 0.36292 0.14873 0.0
C791 C 0.48636 0.35891 0.15162 0.0
C792 C 0.47902 0.36785 0.10597 0.0
N793 N 0.44333 0.33961 0.17747 0.0
C794 C 0.47392 0.34623 0.17578 0.0
C795 C 0.44806 0.31182 0.22265 0.0
C796 C 0.47943 0.32123 0.22155 0.0
C797 C 0.43029 0.32039 0.20019 0.0
C798 C 0.49281 0.33776 0.19783 0.0
H799 H 0.49317 0.31434 0.23891 0.0
O800 O 0.4001 0.2687 0.14697 0.0
O801 O 0.36799 0.39238 0.13198 0.0
O802 O 0.37379 0.46703 0.16993 0.0
O803 O 0.42094 0.42258 0.17308 0.0
O804 O 0.37243 0.33114 0.16127 0.0
O805 O 0.42716 0.28749 0.11247 0.0
O806 O 0.38268 0.58192 0.12322 0.0
O807 O 0.4151 0.45496 0.13202 0.0
O808 O 0.40897 0.37724 0.09512 0.0
O809 O 0.36442 0.43334 0.09154 0.0
O810 O 0.41003 0.52058 0.10456 0.0
O811 O 0.35541 0.55525 0.15648 0.0
C812 C 0.35286 0.36092 0.14781 0.0
C813 C 0.52442 0.34461 0.19534 0.0
C814 C 0.53709 0.35718 0.17082 0.0
C815 C 0.41392 0.24692 0.12663 0.0
C816 C 0.43023 0.191 0.1309 0.0
C817 C 0.46134 0.18976 0.1369 0.0
C818 C 0.41379 0.13781 0.12963 0.0
C819 C 0.42818 0.08304 0.13406 0.0
C820 C 0.47587 0.13566 0.14136 0.0
C821 C 0.45949 0.08263 0.13994 0.0
C822 C 0.39917 0.45621 0.18296 0.0
C823 C 0.42953 0.48631 0.11574 0.0
C824 C 0.36819 0.5991 0.14408 0.0
C825 C 0.35069 0.65428 0.14158 0.0
C826 C 0.31944 0.65376 0.13599 0.0
C827 C 0.36589 0.70857 0.14438 0.0
C828 C 0.35015 0.76252 0.14166 0.0
C829 C 0.3036 0.70704 0.13334 0.0
C830 C 0.31878 0.76111 0.13611 0.0
C831 C 0.38568 0.39901 0.08136 0.0
H832 H 0.47432 0.2304 0.13819 0.0
H833 H 0.38958 0.13935 0.12556 0.0
H834 H 0.49993 0.13478 0.14589 0.0
H835 H 0.47144 0.04133 0.14312 0.0
H836 H 0.30734 0.61236 0.13368 0.0
H837 H 0.39016 0.70866 0.14822 0.0
H838 H 0.27947 0.70643 0.12913 0.0
H839 H 0.30592 0.80175 0.1342 0.0
Gd840 Gd 0.62535 0.33328 0.36193 0.0
Gd841 Gd 0.67027 0.46524 0.37854 0.0
C842 C 0.77148 0.45748 0.39827 0.0
C843 C 0.77188 0.4823 0.44461 0.0
C844 C 0.72415 0.47891 0.42045 0.0
C845 C 0.73949 0.46241 0.39802 0.0
C846 C 0.74019 0.49005 0.4439 0.0
C847 C 0.78751 0.46615 0.42182 0.0
C848 C 0.78645 0.4464 0.37464 0.0
C849 C 0.76966 0.4432 0.35142 0.0
N850 N 0.72336 0.45554 0.37552 0.0
C851 C 0.73799 0.449 0.35218 0.0
H852 H 0.72517 0.44696 0.33412 0.0
C853 C 0.67792 0.50941 0.43977 0.0
N854 N 0.69361 0.48683 0.41897 0.0
C855 C 0.69277 0.52059 0.46354 0.0
C856 C 0.72399 0.51023 0.46571 0.0
H857 H 0.65375 0.51715 0.43827 0.0
H858 H 0.81206 0.46213 0.42243 0.0
H859 H 0.57314 0.36213 0.40873 0.0
H860 H 0.81099 0.44229 0.37398 0.0
H861 H 0.78107 0.43635 0.33292 0.0
H862 H 0.78459 0.49025 0.46249 0.0
H863 H 0.63659 0.27388 0.3028 0.0
H864 H 0.48479 0.35798 0.37404 0.0
H865 H 0.51792 0.37277 0.41271 0.0
H866 H 0.50414 0.2964 0.2859 0.0
H867 H 0.68011 0.53697 0.48017 0.0
H868 H 0.73546 0.51905 0.4841 0.0
H869 H 0.47989 0.33002 0.32663 0.0
H870 H 0.60711 0.24905 0.26312 0.0
N871 N 0.57219 0.34269 0.36788 0.0
C872 C 0.5092 0.35319 0.37213 0.0
C873 C 0.52781 0.3614 0.39399 0.0
C874 C 0.52228 0.33747 0.3482 0.0
C875 C 0.55422 0.33212 0.34675 0.0
C876 C 0.55932 0.35514 0.3916 0.0
N877 N 0.59835 0.30655 0.32374 0.0
C878 C 0.56777 0.31359 0.32389 0.0
C879 C 0.59575 0.26747 0.28003 0.0
C880 C 0.5644 0.27714 0.27946 0.0
C881 C 0.61238 0.28164 0.30258 0.0
C882 C 0.54992 0.29952 0.30172 0.0
H883 H 0.55153 0.26593 0.26201 0.0
O884 O 0.64314 0.24403 0.35808 0.0
O885 O 0.67214 0.3679 0.37073 0.0
O886 O 0.66754 0.4519 0.33439 0.0
O887 O 0.62563 0.39056 0.32559 0.0
O888 O 0.66778 0.30925 0.33985 0.0
O889 O 0.61145 0.26452 0.38909 0.0
O890 O 0.65634 0.55649 0.38402 0.0
O891 O 0.62469 0.43022 0.36824 0.0
O892 O 0.62662 0.35333 0.40589 0.0
O893 O 0.67186 0.40378 0.41295 0.0
O894 O 0.62529 0.49415 0.39662 0.0
O895 O 0.68743 0.53349 0.35263 0.0
C896 C 0.68693 0.33992 0.35329 0.0
C897 C 0.51823 0.30672 0.30273 0.0
C898 C 0.50442 0.32575 0.32593 0.0
C899 C 0.62701 0.22338 0.37727 0.0
C900 C 0.61174 0.16669 0.37228 0.0
C901 C 0.58149 0.16427 0.36358 0.0
C902 C 0.62827 0.11408 0.3756 0.0
C903 C 0.61479 0.05881 0.37038 0.0
C904 C 0.56788 0.10961 0.35842 0.0
C905 C 0.58434 0.05719 0.36177 0.0
C906 C 0.64626 0.43036 0.3185 0.0
C907 C 0.60763 0.46147 0.38254 0.0
C908 C 0.67347 0.57592 0.36512 0.0
C909 C 0.69087 0.62995 0.3707 0.0
C910 C 0.7205 0.62768 0.38085 0.0
C911 C 0.67703 0.68494 0.36624 0.0
C912 C 0.69257 0.73804 0.37169 0.0
C913 C 0.7361 0.68008 0.38642 0.0
C914 C 0.7223 0.73494 0.38189 0.0
C915 C 0.64885 0.37183 0.4215 0.0
H916 H 0.56847 0.20446 0.36073 0.0
H917 H 0.65184 0.11639 0.38182 0.0
H918 H 0.54448 0.10784 0.3518 0.0
H919 H 0.57314 1.01538 0.35791 0.0
H920 H 0.7315 0.58566 0.38451 0.0
H921 H 0.65387 0.68617 0.35891 0.0
H922 H 0.75896 0.67815 0.3943 0.0
H923 H 0.73497 0.77483 0.38615 0.0
Gd924 Gd 0.41257 0.71367 0.36537 0.0
Gd925 Gd 0.37336 0.57838 0.37697 0.0
C926 C 0.28506 0.56489 0.42288 0.0
C927 C 0.3026 0.52546 0.46462 0.0
C928 C 0.33854 0.54387 0.42958 0.0
C929 C 0.31527 0.56478 0.41379 0.0
C930 C 0.33252 0.52362 0.45509 0.0
C931 C 0.27891 0.54595 0.44853 0.0
C932 C 0.26192 0.58263 0.40568 0.0
C933 C 0.26914 0.59737 0.37986 0.0
N934 N 0.32205 0.58257 0.38911 0.0
C935 C 0.29948 0.59584 0.37175 0.0
H936 H 0.30499 0.60425 0.35152 0.0
C937 C 0.39086 0.52079 0.43402 0.0
N938 N 0.36729 0.54401 0.41994 0.0
C939 C 0.38603 0.50019 0.45951 0.0
C940 C 0.35678 0.50205 0.47015 0.0
H941 H 0.41342 0.51963 0.42567 0.0
H942 H 0.25587 0.54613 0.45597 0.0
H943 H 0.48465 0.68802 0.38234 0.0
H944 H 0.23839 0.58334 0.41187 0.0
H945 H 0.25134 0.60911 0.36612 0.0
H946 H 0.29748 0.5106 0.48426 0.0
H947 H 0.3639 0.76604 0.32138 0.0
H948 H 0.54123 0.72342 0.31607 0.0
H949 H 0.53564 0.68948 0.3619 0.0
H950 H 0.4705 0.79845 0.25237 0.0
H951 H 0.40483 0.48301 0.47094 0.0
H952 H 0.35311 0.4863 0.48988 0.0
H953 H 0.51673 0.7653 0.27549 0.0
H954 H 0.36482 0.80636 0.2762 0.0
N955 N 0.4617 0.7135 0.34764 0.0
C956 C 0.51882 0.72112 0.32475 0.0
C957 C 0.51575 0.70168 0.35058 0.0
C958 C 0.49302 0.73917 0.31072 0.0
C959 C 0.46442 0.73521 0.32294 0.0
C960 C 0.48688 0.69935 0.36193 0.0
N961 N 0.41133 0.74973 0.32244 0.0
C962 C 0.43849 0.75471 0.31005 0.0
C963 C 0.38568 0.79175 0.28547 0.0
C964 C 0.41333 0.79596 0.27214 0.0
C965 C 0.38513 0.76879 0.31091 0.0
C966 C 0.44023 0.77748 0.28445 0.0
H967 H 0.41368 0.81372 0.25244 0.0
O968 O 0.39867 0.80479 0.37058 0.0
O969 O 0.36598 0.67064 0.36209 0.0
O970 O 0.36619 0.61115 0.33586 0.0
O971 O 0.4124 0.65534 0.32852 0.0
O972 O 0.36829 0.75134 0.37993 0.0
O973 O 0.44288 0.77595 0.385 0.0
O974 O 0.38862 0.48746 0.37358 0.0
O975 O 0.41947 0.62234 0.3802 0.0
O976 O 0.42086 0.68306 0.40731 0.0
O977 O 0.37612 0.63247 0.41451 0.0
O978 O 0.41862 0.53965 0.36445 0.0
O979 O 0.34588 0.51401 0.35567 0.0
C980 C 0.34999 0.71031 0.37299 0.0
C981 C 0.46864 0.78093 0.27205 0.0
C982 C 0.49496 0.76188 0.28517 0.0
C983 C 0.42454 0.82073 0.38097 0.0
C984 C 0.43731 0.87683 0.37096 0.0
C985 C 0.46566 0.87893 0.35849 0.0
C986 C 0.42026 0.92929 0.37361 0.0
C987 C 0.43112 0.98362 0.36375 0.0
C988 C 0.47669 0.93251 0.34875 0.0
C989 C 0.45962 0.98442 0.35128 0.0
C990 C 0.38925 0.62285 0.32025 0.0
C991 C 0.43618 0.58275 0.37031 0.0
C992 C 0.36412 0.4701 0.36138 0.0
C993 C 0.35071 0.4141 0.37085 0.0
C994 C 0.32196 0.41245 0.38264 0.0
C995 C 0.36754 0.36133 0.36847 0.0
C996 C 0.35608 0.30708 0.37795 0.0
C997 C 0.31028 0.35897 0.39191 0.0
C998 C 0.32715 0.30673 0.38969 0.0
C999 C 0.39917 0.66451 0.42335 0.0
H1000 H 0.47925 0.83935 0.35616 0.0
H1001 H 0.39853 0.92767 0.38354 0.0
H1002 H 0.49851 0.93378 0.33902 0.0
H1003 H 0.46857 0.02499 0.34307 0.0
H1004 H 0.30855 0.45234 0.38477 0.0
H1005 H 0.38958 0.36271 0.35905 0.0
H1006 H 0.28813 0.35804 0.40107 0.0
H1007 H 0.31769 0.2663 0.39759 0.0
Gd1008 Gd 0.37325 0.47641 0.88181 0.0
Gd1009 Gd 0.41687 0.3425 0.86748 0.0
C1010 C 0.51798 0.35305 0.84835 0.0
C1011 C 0.51853 0.32754 0.80216 0.0
C1012 C 0.47069 0.32909 0.82606 0.0
C1013 C 0.48603 0.34618 0.84873 0.0
C1014 C 0.48706 0.31753 0.80284 0.0
C1015 C 0.53394 0.34537 0.82484 0.0
C1016 C 0.53316 0.36623 0.87174 0.0
C1017 C 0.51674 0.37019 0.89494 0.0
N1018 N 0.47011 0.3533 0.87136 0.0
C1019 C 0.48519 0.36275 0.89448 0.0
H1020 H 0.47333 0.36594 0.91276 0.0
C1021 C 0.42565 0.291 0.8069 0.0
N1022 N 0.44023 0.31937 0.82716 0.0
C1023 C 0.44087 0.27933 0.78351 0.0
C1024 C 0.47157 0.2938 0.78127 0.0
H1025 H 0.40175 0.28025 0.8084 0.0
H1026 H 0.55837 0.35139 0.82417 0.0
H1027 H 0.31832 0.44981 0.83843 0.0
H1028 H 0.55761 0.37218 0.87219 0.0
H1029 H 0.52836 0.37924 0.91323 0.0
H1030 H 0.53134 0.31977 0.78439 0.0
H1031 H 0.38889 0.53425 0.9407 0.0
H1032 H 0.23373 0.43352 0.87923 0.0
H1033 H 0.26278 0.43181 0.83781 0.0
H1034 H 0.26064 0.48509 0.96749 0.0
H1035 H 0.4289 0.25921 0.76722 0.0
H1036 H 0.48337 0.2844 0.76314 0.0
H1037 H 0.23325 0.45254 0.92783 0.0
H1038 H 0.36309 0.55059 0.98306 0.0
N1039 N 0.32058 0.45964 0.87973 0.0
C1040 C 0.25805 0.44121 0.87959 0.0
C1041 C 0.27435 0.44042 0.85616 0.0
C1042 C 0.27317 0.45431 0.90307 0.0
C1043 C 0.30483 0.464 0.90241 0.0
C1044 C 0.30576 0.45055 0.85657 0.0
N1045 N 0.35016 0.49523 0.92256 0.0
C1046 C 0.32011 0.4826 0.92459 0.0
C1047 C 0.35076 0.53121 0.9668 0.0
C1048 C 0.32026 0.51516 0.96965 0.0
C1049 C 0.36529 0.52199 0.94282 0.0
C1050 C 0.30435 0.49168 0.94823 0.0
H1051 H 0.30902 0.52253 0.98819 0.0
O1052 O 0.38738 0.56824 0.88539 0.0
O1053 O 0.41846 0.4398 0.87168 0.0
O1054 O 0.42082 0.36598 0.91061 0.0
O1055 O 0.3762 0.41885 0.91779 0.0
O1056 O 0.41859 0.50668 0.89889 0.0
O1057 O 0.35174 0.54426 0.85808 0.0
O1058 O 0.39886 0.25647 0.85693 0.0
O1059 O 0.36992 0.38388 0.86587 0.0
O1060 O 0.37676 0.46913 0.838 0.0
O1061 O 0.40891 0.38942 0.82863 0.0
O1062 O 0.37447 0.30594 0.886 0.0
O1063 O 0.43569 0.26426 0.88579 0.0
C1064 C 0.43574 0.47203 0.88541 0.0
C1065 C 0.27312 0.47896 0.94943 0.0
C1066 C 0.25753 0.46036 0.92686 0.0
C1067 C 0.36732 0.5871 0.8686 0.0
C1068 C 0.35058 0.64073 0.87584 0.0
C1069 C 0.32341 0.63828 0.89008 0.0
C1070 C 0.36247 0.69562 0.86837 0.0
C1071 C 0.34751 0.74844 0.87503 0.0
C1072 C 0.30836 0.69061 0.89679 0.0
C1073 C 0.32033 0.74546 0.88939 0.0
C1074 C 0.39953 0.38727 0.92629 0.0
C1075 C 0.35513 0.34376 0.87766 0.0
C1076 C 0.41767 0.2288 0.87258 0.0
C1077 C 0.43048 0.17313 0.86293 0.0
C1078 C 0.45789 0.17091 0.84907 0.0
C1079 C 0.41452 0.12082 0.86805 0.0
C1080 C 0.42581 0.06581 0.85972 0.0
C1081 C 0.46911 0.1165 0.84035 0.0
C1082 C 0.45324 0.06418 0.84563 0.0
C1083 C 0.39289 0.43656 0.82168 0.0
H1084 H 0.31391 0.59618 0.89598 0.0
H1085 H 0.38375 0.69713 0.85772 0.0
H1086 H 0.28738 0.68868 0.90778 0.0
H1087 H 0.30828 0.78545 0.8947 0.0
H1088 H 0.47061 0.21086 0.84513 0.0
H1089 H 0.39314 0.12314 0.87852 0.0
H1090 H 0.4903 0.11479 0.82966 0.0
H1091 H 0.46272 0.02246 0.83912 0.0
Gd1092 Gd 0.67208 0.55377 0.8784 0.0
Gd1093 Gd 0.63789 0.69674 0.86827 0.0
C1094 C 0.53638 0.69869 0.89003 0.0
C1095 C 0.51201 0.6727 0.84892 0.0
C1096 C 0.56709 0.68411 0.85134 0.0
C1097 C 0.56511 0.69637 0.87771 0.0
C1098 C 0.54038 0.67407 0.83646 0.0
C1099 C 0.51 0.68506 0.87569 0.0
C1100 C 0.53491 0.71571 0.91629 0.0
C1101 C 0.56139 0.73305 0.92918 0.0
N1102 N 0.59109 0.70867 0.89109 0.0
C1103 C 0.5892 0.73075 0.91606 0.0
H1104 H 0.60885 0.74803 0.92616 0.0
C1105 C 0.59659 0.68708 0.8131 0.0
N1106 N 0.59488 0.68577 0.83992 0.0
C1107 C 0.57098 0.67608 0.79756 0.0
C1108 C 0.54283 0.66785 0.80935 0.0
H1109 H 0.61744 0.69778 0.80315 0.0
H1110 H 0.48788 0.68545 0.88496 0.0
H1111 H 0.70146 0.52742 0.81746 0.0
H1112 H 0.51335 0.7178 0.92646 0.0
H1113 H 0.56039 0.74906 0.94914 0.0
H1114 H 0.4914 0.66393 0.83789 0.0
H1115 H 0.69273 0.54004 0.94306 0.0
H1116 H 0.796 0.56628 0.81904 0.0
H1117 H 0.7496 0.53823 0.79465 0.0
H1118 H 0.81743 0.59548 0.90983 0.0
H1119 H 0.57291 0.6752 0.77643 0.0
H1120 H 0.52293 0.65996 0.79726 0.0
H1121 H 0.82092 0.58859 0.86195 0.0
H1122 H 0.73734 0.55747 0.9705 0.0
N1123 N 0.71845 0.55652 0.85464 0.0
C1124 C 0.77451 0.5631 0.82925 0.0
C1125 C 0.74836 0.54767 0.81541 0.0
C1126 C 0.77283 0.57174 0.85628 0.0
C1127 C 0.7442 0.56717 0.86868 0.0
C1128 C 0.72062 0.54327 0.82852 0.0
N1129 N 0.71468 0.5634 0.9071 0.0
C1130 C 0.7422 0.57142 0.89564 0.0
C1131 C 0.73897 0.56284 0.94949 0.0
C1132 C 0.76666 0.57737 0.9381 0.0
C1133 C 0.71336 0.55445 0.93364 0.0
C1134 C 0.76881 0.5799 0.91085 0.0
H1135 H 0.78653 0.58353 0.95042 0.0
O1136 O 0.66827 0.47863 0.90481 0.0
O1137 O 0.62857 0.60541 0.88224 0.0
O1138 O 0.64828 0.69045 0.91148 0.0
O1139 O 0.65684 0.58976 0.91791 0.0
O1140 O 0.62568 0.52315 0.86496 0.0
O1141 O 0.67759 0.46487 0.86353 0.0
O1142 O 0.64665 0.76492 0.83918 0.0
O1143 O 0.68208 0.64654 0.86508 0.0
O1144 O 0.65597 0.5545 0.83694 0.0
O1145 O 0.654 0.65559 0.82967 0.0
O1146 O 0.68147 0.72291 0.88774 0.0
O1147 O 0.6376 0.78906 0.87949 0.0
C1148 C 0.6102 0.56852 0.87222 0.0
C1149 C 0.79693 0.58801 0.89846 0.0
C1150 C 0.79894 0.58388 0.87122 0.0
C1151 C 0.67376 0.44039 0.8863 0.0
C1152 C 0.6932 0.38946 0.89214 0.0
C1153 C 0.71947 0.39339 0.90769 0.0
C1154 C 0.68479 0.33506 0.88127 0.0
C1155 C 0.70201 0.28403 0.88601 0.0
C1156 C 0.73678 0.34253 0.91261 0.0
C1157 C 0.72799 0.28788 0.90201 0.0
C1158 C 0.65283 0.64431 0.92674 0.0
C1159 C 0.69872 0.6826 0.87796 0.0
C1160 C 0.64392 0.80769 0.8561 0.0
C1161 C 0.62944 0.86289 0.84792 0.0
C1162 C 0.60376 0.86467 0.83162 0.0
C1163 C 0.6422 0.91554 0.85724 0.0
C1164 C 0.62965 0.97047 0.85056 0.0
C1165 C 0.59121 0.91938 0.82459 0.0
C1166 C 0.6041 0.97212 0.83392 0.0
C1167 C 0.6528 0.60007 0.82129 0.0
H1168 H 0.72653 0.43529 0.91599 0.0
H1169 H 0.66434 0.33228 0.86937 0.0
H1170 H 0.75699 0.34541 0.9247 0.0
H1171 H 0.74155 0.24893 0.90608 0.0
H1172 H 0.59352 0.82417 0.82441 0.0
H1173 H 0.66228 0.91363 0.86964 0.0
H1174 H 0.5714 0.92093 0.81197 0.0
H1175 H 0.59387 1.01397 0.82847 0.0
Gd1176 Gd 0.37132 0.54879 0.628 0.0
Gd1177 Gd 0.41317 0.68749 0.63458 0.0
C1178 C 0.48345 0.75518 0.57573 0.0
C1179 C 0.53077 0.71775 0.59401 0.0
C1180 C 0.48281 0.69971 0.61622 0.0
C1181 C 0.46745 0.7293 0.59668 0.0
C1182 C 0.5148 0.69528 0.6156 0.0
C1183 C 0.51509 0.74768 0.57407 0.0
C1184 C 0.46732 0.78967 0.55766 0.0
C1185 C 0.43633 0.79985 0.56147 0.0
N1186 N 0.43698 0.73612 0.59913 0.0
C1187 C 0.42157 0.77367 0.58273 0.0
H1188 H 0.39761 0.78181 0.58548 0.0
C1189 C 0.48133 0.65806 0.65852 0.0
N1190 N 0.46663 0.67906 0.63682 0.0
C1191 C 0.51306 0.65312 0.65895 0.0
C1192 C 0.52984 0.67057 0.63714 0.0
H1193 H 0.46873 0.64399 0.67548 0.0
H1194 H 0.52776 0.76658 0.55796 0.0
H1195 H 0.31533 0.5858 0.66899 0.0
H1196 H 0.47874 0.81024 0.54125 0.0
H1197 H 0.42381 0.82785 0.54805 0.0
H1198 H 0.5553 0.71399 0.59299 0.0
H1199 H 0.38841 0.47623 0.57281 0.0
H1200 H 0.23069 0.58011 0.62746 0.0
H1201 H 0.25973 0.59983 0.66814 0.0
H1202 H 0.2586 0.49901 0.54411 0.0
H1203 H 0.52449 0.63525 0.676 0.0
H1204 H 0.55438 0.66635 0.63745 0.0
H1205 H 0.2305 0.54265 0.58104 0.0
H1206 H 0.36289 0.44145 0.53264 0.0
N1207 N 0.3181 0.56112 0.62887 0.0
C1208 C 0.25515 0.57433 0.62767 0.0
C1209 C 0.27144 0.5853 0.65068 0.0
C1210 C 0.27051 0.55385 0.60549 0.0
C1211 C 0.30239 0.5474 0.6068 0.0
C1212 C 0.30301 0.57742 0.65105 0.0
N1213 N 0.34851 0.51531 0.58877 0.0
C1214 C 0.31807 0.52307 0.58613 0.0
C1215 C 0.35005 0.46505 0.54736 0.0
C1216 C 0.31902 0.47549 0.54377 0.0
C1217 C 0.36445 0.48474 0.57021 0.0
C1218 C 0.30251 0.50417 0.56342 0.0
H1219 H 0.30788 0.45971 0.52615 0.0
O1220 O 0.38847 0.45822 0.63038 0.0
O1221 O 0.41698 0.58977 0.63597 0.0
O1222 O 0.41326 0.6577 0.59185 0.0
O1223 O 0.37005 0.59782 0.58968 0.0
O1224 O 0.41614 0.5204 0.60991 0.0
O1225 O 0.35228 0.48641 0.65576 0.0
O1226 O 0.4302 0.74 0.66722 0.0
O1227 O 0.36729 0.64446 0.63911 0.0
O1228 O 0.37112 0.57713 0.67013 0.0
O1229 O 0.41392 0.63654 0.67337 0.0
O1230 O 0.36923 0.72113 0.61738 0.0
O1231 O 0.39328 0.77339 0.64391 0.0
C1232 C 0.43358 0.55805 0.62137 0.0
C1233 C 0.27094 0.51278 0.56148 0.0
C1234 C 0.25496 0.53768 0.58249 0.0
C1235 C 0.36854 0.44205 0.64764 0.0
C1236 C 0.35239 0.38579 0.64273 0.0
C1237 C 0.32211 0.38535 0.63397 0.0
C1238 C 0.36724 0.33174 0.64763 0.0
C1239 C 0.35184 0.27715 0.64463 0.0
C1240 C 0.30672 0.33182 0.63076 0.0
C1241 C 0.32126 0.27823 0.63626 0.0
C1242 C 0.39103 0.63134 0.5786 0.0
C1243 C 0.35108 0.68199 0.62672 0.0
C1244 C 0.41327 0.78555 0.66183 0.0
C1245 C 0.42835 0.84397 0.65979 0.0
C1246 C 0.46023 0.84872 0.66015 0.0
C1247 C 0.41069 0.89575 0.65719 0.0
C1248 C 0.42465 0.95176 0.65519 0.0
C1249 C 0.47415 0.90403 0.65825 0.0
C1250 C 0.45657 0.9552 0.65585 0.0
C1251 C 0.39347 0.60061 0.68386 0.0
H1252 H 0.31024 0.42634 0.62992 0.0
H1253 H 0.39086 0.33263 0.65371 0.0
H1254 H 0.28324 0.33186 0.6243 0.0
H1255 H 0.30823 0.23781 0.63431 0.0
H1256 H 0.47447 0.80978 0.66182 0.0
H1257 H 0.38609 0.89243 0.6569 0.0
H1258 H 0.4987 0.90725 0.6585 0.0
H1259 H 0.468 0.99745 0.654 0.0
Gd1260 Gd 0.67425 0.48929 0.62283 0.0
Gd1261 Gd 0.62848 0.35656 0.63379 0.0
C1262 C 0.52476 0.35332 0.63943 0.0
C1263 C 0.51696 0.32523 0.68484 0.0
C1264 C 0.56817 0.33461 0.6675 0.0
C1265 C 0.55651 0.35099 0.64345 0.0
C1266 C 0.54855 0.32007 0.68831 0.0
C1267 C 0.50508 0.34186 0.66043 0.0
C1268 C 0.51376 0.36549 0.61427 0.0
C1269 C 0.53424 0.37299 0.59374 0.0
N1270 N 0.57619 0.36142 0.62357 0.0
C1271 C 0.56552 0.36998 0.59869 0.0
H1272 H 0.58096 0.3761 0.58259 0.0
C1273 C 0.61117 0.30601 0.69231 0.0
N1274 N 0.59875 0.32966 0.67009 0.0
C1275 C 0.59267 0.29095 0.71352 0.0
C1276 C 0.56124 0.29894 0.71168 0.0
H1277 H 0.63546 0.3001 0.69397 0.0
H1278 H 0.48065 0.34423 0.65781 0.0
H1279 H 0.72105 0.45855 0.67341 0.0
H1280 H 0.48955 0.36795 0.6104 0.0
H1281 H 0.52598 0.3814 0.5741 0.0
H1282 H 0.50152 0.31491 0.70069 0.0
H1283 H 0.66847 0.5461 0.56263 0.0
H1284 H 0.81239 0.45646 0.64516 0.0
H1285 H 0.77576 0.44427 0.68138 0.0
H1286 H 0.80193 0.51876 0.5559 0.0
H1287 H 0.60267 0.27349 0.73131 0.0
H1288 H 0.54695 0.28725 0.72813 0.0
H1289 H 0.82197 0.48445 0.59834 0.0
H1290 H 0.70193 0.56962 0.52526 0.0
N1291 N 0.72622 0.47664 0.63273 0.0
C1292 C 0.78833 0.46265 0.6415 0.0
C1293 C 0.76772 0.45582 0.66199 0.0
C1294 C 0.77769 0.47895 0.61668 0.0
C1295 C 0.74609 0.48593 0.61289 0.0
C1296 C 0.73664 0.46395 0.65734 0.0
N1297 N 0.70447 0.51357 0.58652 0.0
C1298 C 0.73488 0.50524 0.58906 0.0
C1299 C 0.71147 0.55125 0.54304 0.0
C1300 C 0.7427 0.54072 0.54498 0.0
C1301 C 0.69261 0.53807 0.56424 0.0
C1302 C 0.75484 0.51814 0.5683 0.0
H1303 H 0.75729 0.55128 0.52859 0.0
O1304 O 0.66117 0.581 0.61678 0.0
O1305 O 0.62724 0.45384 0.62799 0.0
O1306 O 0.63507 0.37659 0.58997 0.0
O1307 O 0.67983 0.43138 0.58767 0.0
O1308 O 0.63255 0.51747 0.59961 0.0
O1309 O 0.6873 0.55607 0.65121 0.0
O1310 O 0.64505 0.2672 0.64001 0.0
O1311 O 0.67533 0.39163 0.62805 0.0
O1312 O 0.66693 0.47161 0.66608 0.0
O1313 O 0.6227 0.41549 0.66956 0.0
O1314 O 0.66998 0.33195 0.65784 0.0
O1315 O 0.61812 0.28753 0.60551 0.0
C1316 C 0.61291 0.48457 0.6113 0.0
C1317 C 0.78624 0.50942 0.57167 0.0
C1318 C 0.79765 0.48984 0.59582 0.0
C1319 C 0.67543 0.59931 0.63768 0.0
C1320 C 0.69373 0.6533 0.63481 0.0
C1321 C 0.72506 0.65096 0.62989 0.0
C1322 C 0.67927 0.70837 0.63705 0.0
C1323 C 0.69583 0.76138 0.63461 0.0
C1324 C 0.74169 0.70332 0.62736 0.0
C1325 C 0.72725 0.75824 0.6297 0.0
C1326 C 0.65889 0.39727 0.57684 0.0
C1327 C 0.68987 0.36189 0.64497 0.0
C1328 C 0.63173 0.24646 0.61915 0.0
C1329 C 0.61587 0.18983 0.62239 0.0
C1330 C 0.5845 0.18732 0.62705 0.0
C1331 C 0.63287 0.13732 0.62149 0.0
C1332 C 0.61878 0.08202 0.62506 0.0
C1333 C 0.57028 0.13265 0.63057 0.0
C1334 C 0.58722 0.08031 0.62957 0.0
C1335 C 0.64289 0.45335 0.67936 0.0
H1336 H 0.73663 0.60889 0.6281 0.0
H1337 H 0.65495 0.70977 0.64041 0.0
H1338 H 0.76589 0.70131 0.6237 0.0
H1339 H 0.74071 0.79816 0.62803 0.0
H1340 H 0.57107 0.22742 0.62799 0.0
H1341 H 0.65723 0.13978 0.61845 0.0
H1342 H 0.54604 0.1308 0.63407 0.0
H1343 H 0.57554 0.03851 0.63205 0.0
H1344 H 0.22292 0.26372 0.1108 0.0
H1345 H 0.2283 0.17922 0.1862 0.0
H1346 H 0.27873 0.22224 0.19354 0.0
H1347 H 0.32025 0.28876 0.17976 0.0
H1348 H 0.31602 0.37175 0.10392 0.0
H1349 H 0.26635 0.32633 0.0958 0.0
C1350 C 0.23559 0.25345 0.12848 0.0
C1351 C 0.22225 0.21646 0.14758 0.0
C1352 C 0.26449 0.27981 0.13285 0.0
C1353 C 0.23838 0.20588 0.17089 0.0
C1354 C 0.26711 0.23114 0.17521 0.0
C1355 C 0.30843 0.29718 0.16146 0.0
C1356 C 0.32167 0.33567 0.1429 0.0
C1357 C 0.28018 0.26912 0.15658 0.0
C1358 C 0.30616 0.34448 0.11905 0.0
C1359 C 0.27779 0.31766 0.11424 0.0
H1360 H 0.81455 0.81966 0.11272 0.0
H1361 H 0.81568 0.85992 0.19525 0.0
H1362 H 0.7663 0.81272 0.20059 0.0
H1363 H 0.72346 0.75657 0.1828 0.0
H1364 H 0.72095 0.71141 0.10092 0.0
H1365 H 0.77002 0.7618 0.09445 0.0
C1366 C 0.80354 0.81931 0.13167 0.0
C1367 C 0.81853 0.84535 0.15347 0.0
C1368 C 0.77516 0.78954 0.13489 0.0
C1369 C 0.80444 0.84184 0.17809 0.0
C1370 C 0.77626 0.81423 0.18122 0.0
C1371 C 0.7337 0.75733 0.16351 0.0
C1372 C 0.71861 0.72905 0.14253 0.0
C1373 C 0.7616 0.78715 0.15993 0.0
C1374 C 0.73222 0.73138 0.11762 0.0
C1375 C 0.7602 0.76095 0.11388 0.0
H1376 H 0.31134 0.77038 0.40407 0.0
H1377 H 0.31809 0.69563 0.32672 0.0
H1378 H 0.26858 0.73854 0.31506 0.0
H1379 H 0.22362 0.8002 0.32661 0.0
H1380 H 0.2181 0.87595 0.40394 0.0
H1381 H 0.2668 0.83163 0.41555 0.0
C1382 C 0.30167 0.76253 0.3848 0.0
C1383 C 0.31797 0.72769 0.36666 0.0
C1384 C 0.2736 0.78899 0.37802 0.0
C1385 C 0.30561 0.72005 0.34144 0.0
C1386 C 0.27743 0.74537 0.33467 0.0
C1387 C 0.2332 0.80736 0.34595 0.0
C1388 C 0.21722 0.84291 0.36413 0.0
C1389 C 0.26128 0.78044 0.35272 0.0
C1390 C 0.22991 0.85057 0.38924 0.0
C1391 C 0.25777 0.82446 0.39602 0.0
H1392 H 0.81633 0.23551 0.3265 0.0
H1393 H 0.81498 0.188 0.40811 0.0
H1394 H 0.76583 0.23817 0.41331 0.0
H1395 H 0.72228 0.29604 0.39414 0.0
H1396 H 0.72336 0.33561 0.31163 0.0
H1397 H 0.77341 0.29006 0.30746 0.0
C1398 C 0.80519 0.2358 0.34542 0.0
C1399 C 0.81932 0.20722 0.36675 0.0
C1400 C 0.77694 0.26481 0.34823 0.0
C1401 C 0.80455 0.20854 0.39118 0.0
C1402 C 0.77648 0.23788 0.39421 0.0
C1403 C 0.73391 0.29593 0.37546 0.0
C1404 C 0.71953 0.32149 0.35337 0.0
C1405 C 0.76243 0.26667 0.37289 0.0
C1406 C 0.73426 0.31801 0.32903 0.0
C1407 C 0.7628 0.29136 0.32658 0.0
H1408 H 0.73957 0.73344 0.91027 0.0
H1409 H 0.72732 0.67853 0.83016 0.0
H1410 H 0.77637 0.72309 0.81857 0.0
H1411 H 0.82211 0.78155 0.83106 0.0
H1412 H 0.83288 0.83873 0.91112 0.0
H1413 H 0.78502 0.79109 0.92274 0.0
C1414 C 0.74795 0.73041 0.89035 0.0
C1415 C 0.73031 0.70081 0.8713 0.0
C1416 C 0.77565 0.75794 0.88372 0.0
C1417 C 0.74093 0.699 0.84539 0.0
C1418 C 0.76881 0.72527 0.83872 0.0
C1419 C 0.81383 0.78385 0.85101 0.0
C1420 C 0.83085 0.81519 0.87003 0.0
C1421 C 0.78624 0.7555 0.85766 0.0
C1422 C 0.82004 0.81664 0.89589 0.0
C1423 C 0.79273 0.78872 0.90263 0.0
H1424 H 0.31426 0.29235 0.91001 0.0
H1425 H 0.32864 0.33822 0.82918 0.0
H1426 H 0.28116 0.2883 0.81693 0.0
H1427 H 0.23586 0.22964 0.8291 0.0
H1428 H 0.2222 0.18114 0.90981 0.0
H1429 H 0.26917 0.23234 0.92213 0.0
C1430 C 0.30661 0.29232 0.88979 0.0
C1431 C 0.32426 0.32142 0.87069 0.0
C1432 C 0.27971 0.26175 0.88282 0.0
C1433 C 0.31483 0.3186 0.8444 0.0
C1434 C 0.28787 0.28929 0.83737 0.0
C1435 C 0.24331 0.22989 0.84938 0.0
C1436 C 0.2257 0.20038 0.8684 0.0
C1437 C 0.2702 0.26037 0.85637 0.0
C1438 C 0.23552 0.20199 0.89463 0.0
C1439 C 0.26229 0.23196 0.90173 0.0
H1440 H 0.72328 0.30506 0.6815 0.0
H1441 H 0.72633 0.35867 0.60068 0.0
H1442 H 0.77519 0.30746 0.59533 0.0
H1443 H 0.81802 0.24699 0.6142 0.0
H1444 H 0.81484 0.20018 0.69592 0.0
H1445 H 0.76513 0.24699 0.70012 0.0
C1446 C 0.73472 0.30589 0.66272 0.0
C1447 C 0.7212 0.33662 0.64168 0.0
C1448 C 0.76268 0.27596 0.65978 0.0
C1449 C 0.73633 0.3366 0.61742 0.0
C1450 C 0.76421 0.30661 0.61428 0.0
C1451 C 0.80596 0.24572 0.63267 0.0
C1452 C 0.81968 0.21782 0.65452 0.0
C1453 C 0.77763 0.27564 0.63531 0.0
C1454 C 0.80444 0.21954 0.67866 0.0
C1455 C 0.77611 0.24696 0.68115 0.0
H1456 H 0.23346 0.80493 0.67348 0.0
H1457 H 0.20778 0.80643 0.59205 0.0
H1458 H 0.25499 0.75493 0.58065 0.0
H1459 H 0.30451 0.71048 0.59381 0.0
H1460 H 0.32885 0.70438 0.6755 0.0
H1461 H 0.28143 0.7553 0.68689 0.0
C1462 C 0.23847 0.79472 0.6532 0.0
C1463 C 0.21777 0.8125 0.6335 0.0
C1464 C 0.26529 0.76308 0.64691 0.0
C1465 C 0.22392 0.79612 0.60746 0.0
C1466 C 0.25079 0.76586 0.60098 0.0
C1467 C 0.29905 0.71923 0.61415 0.0
C1468 C 0.31984 0.70202 0.63386 0.0
C1469 C 0.27172 0.74913 0.62051 0.0
C1470 C 0.31286 0.71534 0.66005 0.0
C1471 C 0.28588 0.74517 0.66652 0.0
H1472 H 0.17502 0.03866 0.2976 0.0
H1473 H 0.09174 0.9408 0.28602 0.0
H1474 H 0.08423 0.98952 0.24367 0.0
H1475 H 0.10291 0.05727 0.20883 0.0
H1476 H 0.18655 0.1526 0.22123 0.0
H1477 H 0.19183 0.10909 0.26478 0.0
C1478 C 0.15511 0.02785 0.28597 0.0
C1479 C 0.1342 0.98541 0.29499 0.0
C1480 C 0.15071 0.05665 0.26194 0.0
C1481 C 0.1085 0.97255 0.27949 0.0
C1482 C 0.10405 1.00081 0.25533 0.0
C1483 C 0.12164 0.06987 0.22156 0.0
C1484 C 0.14395 0.10914 0.21231 0.0
C1485 C 0.12506 0.0429 0.2463 0.0
C1486 C 0.16881 0.12352 0.22835 0.0
C1487 C 0.17203 0.09806 0.25305 0.0
H1488 H 0.89399 0.13316 0.2825 0.0
H1489 H 0.91574 0.97302 0.32408 0.0
H1490 H 0.91897 0.91834 0.28263 0.0
H1491 H 0.91138 0.91488 0.23448 0.0
H1492 H 0.8867 0.07497 0.19383 0.0
H1493 H 0.8889 0.13073 0.23456 0.0
C1494 C 0.90004 0.08662 0.28231 0.0
C1495 C 0.90499 0.05707 0.30603 0.0
C1496 C 0.9009 0.05525 0.25851 0.0
C1497 C 0.91211 0.99648 0.30583 0.0
C1498 C 0.91381 0.96524 0.28219 0.0
C1499 C 0.90685 0.96198 0.23458 0.0
C1500 C 0.89842 0.99048 0.21121 0.0
C1501 C 0.90763 0.99387 0.25837 0.0
C1502 C 0.89251 0.05165 0.21164 0.0
C1503 C 0.89395 0.08378 0.23493 0.0
H1504 H 0.93782 0.05885 0.7183 0.0
H1505 H 0.84169 0.09591 0.72019 0.0
H1506 H 0.83769 0.04834 0.763 0.0
H1507 H 0.86097 0.99371 0.79917 0.0
H1508 H 0.95637 0.94942 0.79647 0.0
H1509 H 0.96113 1.00125 0.75458 0.0
C1510 C 0.91614 0.05704 0.72832 0.0
C1511 C 0.89011 0.08132 0.71632 0.0
C1512 C 0.91379 0.02752 0.75256 0.0
C1513 C 0.86201 0.0777 0.72916 0.0
C1514 C 0.8597 0.05033 0.75356 0.0
C1515 C 0.88284 0.99522 0.78947 0.0
C1516 C 0.90827 0.9677 0.80105 0.0
C1517 C 0.88534 0.02451 0.76531 0.0
C1518 C 0.93636 0.9699 0.78799 0.0
C1519 C 0.93914 0.99986 0.76408 0.0
H1520 H 0.11164 0.03692 0.79221 0.0
H1521 H 0.20921 0.05456 0.79617 0.0
H1522 H 0.21414 1.00586 0.75368 0.0
H1523 H 0.19093 0.95767 0.71557 0.0
H1524 H 0.09359 0.93591 0.71182 0.0
H1525 H 0.08839 0.98483 0.75439 0.0
C1526 C 0.13391 0.03036 0.78362 0.0
C1527 C 0.16002 0.04959 0.79717 0.0
C1528 C 0.13666 1.00062 0.75948 0.0
C1529 C 0.1888 0.04011 0.78608 0.0
C1530 C 0.19165 1.0121 0.76184 0.0
C1531 C 0.16858 0.96341 0.72413 0.0
C1532 C 0.1427 0.94366 0.71048 0.0
C1533 C 0.16578 0.99184 0.74846 0.0
C1534 C 0.11392 0.95055 0.72199 0.0
C1535 C 0.1109 0.97904 0.74621 0.0
H1536 H 0.64856 0.54538 0.30482 0.0
H1537 H 0.64114 0.36989 0.27236 0.0
H1538 H 0.64069 0.41101 0.22797 0.0
H1539 H 0.64351 0.49732 0.19838 0.0
H1540 H 0.64755 0.67305 0.23099 0.0
H1541 H 0.64815 0.63188 0.27537 0.0
C1542 C 0.64687 0.51627 0.28796 0.0
C1543 C 0.64503 0.4547 0.29172 0.0
C1544 C 0.64601 0.54043 0.26261 0.0
C1545 C 0.64233 0.41736 0.26988 0.0
C1546 C 0.64225 0.4409 0.24453 0.0
C1547 C 0.64448 0.52642 0.21529 0.0
C1548 C 0.64552 0.58805 0.21159 0.0
C1549 C 0.64422 0.50234 0.24067 0.0
C1550 C 0.64639 0.62557 0.23347 0.0
C1551 C 0.64693 0.60198 0.25879 0.0
H1552 H 0.43486 0.57316 0.29188 0.0
H1553 H 0.34008 0.62146 0.28862 0.0
H1554 H 0.33499 0.57408 0.24583 0.0
H1555 H 0.3565 0.51532 0.21062 0.0
H1556 H 0.45062 0.46144 0.21376 0.0
H1557 H 0.45684 0.51343 0.25561 0.0
C1558 C 0.41331 0.57401 0.28148 0.0
C1559 C 0.3879 0.60107 0.29311 0.0
C1560 C 0.41029 0.54471 0.25722 0.0
C1561 C 0.3599 0.60101 0.27989 0.0
C1562 C 0.35695 0.57369 0.25553 0.0
C1563 C 0.37846 0.51479 0.22035 0.0
C1564 C 0.40303 0.48436 0.20901 0.0
C1565 C 0.38183 0.54461 0.24425 0.0
C1566 C 0.43123 0.48412 0.2221 0.0
C1567 C 0.43486 0.51419 0.24596 0.0
H1568 H 0.40244 0.54803 0.80504 0.0
H1569 H 0.38625 0.37058 0.77723 0.0
H1570 H 0.3859 0.40626 0.7319 0.0
H1571 H 0.38812 0.48856 0.7006 0.0
H1572 H 0.4074 0.66533 0.72772 0.0
H1573 H 0.40894 0.62946 0.77317 0.0
C1574 C 0.39888 0.51731 0.78897 0.0
C1575 C 0.39411 0.45687 0.79429 0.0
C1576 C 0.39925 0.5381 0.76305 0.0
C1577 C 0.39009 0.41712 0.77349 0.0
C1578 C 0.38976 0.43761 0.74765 0.0
C1579 C 0.39263 0.51922 0.71649 0.0
C1580 C 0.39707 0.57964 0.71104 0.0
C1581 C 0.39398 0.49804 0.74227 0.0
C1582 C 0.40377 0.61873 0.7316 0.0
C1583 C 0.40453 0.59822 0.75749 0.0
H1584 H 0.61875 0.51548 0.79843 0.0
H1585 H 0.68316 0.65362 0.78117 0.0
H1586 H 0.68553 0.62032 0.73543 0.0
H1587 H 0.67178 0.54783 0.7015 0.0
H1588 H 0.60427 0.41449 0.71793 0.0
H1589 H 0.6007 0.44972 0.76303 0.0
C1590 C 0.63303 0.53863 0.7845 0.0
C1591 C 0.65094 0.58662 0.79303 0.0
C1592 C 0.63402 0.51952 0.75833 0.0
C1593 C 0.66908 0.61685 0.77491 0.0
C1594 C 0.67059 0.59746 0.74888 0.0
C1595 C 0.65624 0.52628 0.71484 0.0
C1596 C 0.63907 0.47691 0.7064 0.0
C1597 C 0.6536 0.54811 0.74053 0.0
C1598 C 0.61845 0.45108 0.72395 0.0
C1599 C 0.61624 0.4716 0.74975 0.0
H1600 H 0.19381 0.14304 0.96171 0.0
H1601 H 0.09883 0.18287 0.94987 0.0
H1602 H 0.09212 0.19361 0.99733 0.0
H1603 H 0.11276 0.18308 0.04259 0.0
H1604 H 0.20764 0.13861 0.05268 0.0
H1605 H 0.21464 0.13762 0.00559 0.0
C1606 C 0.17157 0.15423 0.96941 0.0
C1607 C 0.14677 0.16131 0.95226 0.0
C1608 C 0.1678 0.15895 0.99653 0.0
C1609 C 0.11833 0.17708 0.96262 0.0
C1610 C 0.11445 0.18286 0.98979 0.0
C1611 C 0.13501 0.17397 0.03444 0.0
C1612 C 0.15955 0.16047 0.05124 0.0
C1613 C 0.13893 0.17265 0.00701 0.0
C1614 C 0.18823 0.14853 0.04033 0.0
C1615 C 0.19235 0.14805 0.01333 0.0
H1616 H 0.85535 0.87945 0.96408 0.0
H1617 H 0.95208 0.8514 0.9586 0.0
H1618 H 0.95592 0.84846 0.00652 0.0
H1619 H 0.93202 0.8631 0.05027 0.0
H1620 H 0.83518 0.89364 0.05406 0.0
H1621 H 0.83134 0.88703 0.00674 0.0
C1622 C 0.87731 0.87239 0.97331 0.0
C1623 C 0.90342 0.86631 0.95774 0.0
C1624 C 0.87938 0.87172 1.00073 0.0
C1625 C 0.93158 0.85609 0.97008 0.0
C1626 C 0.93381 0.8548 0.99753 0.0
C1627 C 0.91005 0.86712 0.04074 0.0
C1628 C 0.884 0.87937 0.05581 0.0
C1629 C 0.90791 0.86376 0.01312 0.0
C1630 C 0.8557 0.88484 0.04305 0.0
C1631 C 0.8534 0.88101 0.0159 0.0
H1632 H 0.10772 0.86767 0.45849 0.0
H1633 H 0.2031 0.91092 0.45228 0.0
H1634 H 0.20864 0.90663 0.49948 0.0
H1635 H 0.18621 0.89739 0.5428 0.0
H1636 H 0.09129 0.85292 0.55037 0.0
H1637 H 0.08592 0.85022 0.50265 0.0
C1638 C 0.12976 0.8751 0.4675 0.0
C1639 C 0.15478 0.89044 0.45183 0.0
C1640 C 0.13292 0.8728 0.49499 0.0
C1641 C 0.18326 0.89997 0.46382 0.0
C1642 C 0.18655 0.89751 0.4909 0.0
C1643 C 0.16435 0.88688 0.53404 0.0
C1644 C 0.13916 0.87603 0.5501 0.0
C1645 C 0.16145 0.88529 0.50669 0.0
C1646 C 0.11109 0.86153 0.53843 0.0
C1647 C 0.10797 0.86013 0.51111 0.0
H1648 H 0.84725 0.16548 0.55117 0.0
H1649 H 0.94352 0.19684 0.55949 0.0
H1650 H 0.9489 0.19887 0.51176 0.0
H1651 H 0.92673 0.18193 0.46749 0.0
H1652 H 0.83052 0.14642 0.46065 0.0
H1653 H 0.82483 0.15508 0.50779 0.0
C1654 C 0.86945 0.17308 0.54261 0.0
C1655 C 0.895 0.18006 0.55896 0.0
C1656 C 0.87245 0.17279 0.51527 0.0
C1657 C 0.92344 0.19112 0.54744 0.0
C1658 C 0.92656 0.19191 0.52009 0.0
C1659 C 0.90448 0.17713 0.47632 0.0
C1660 C 0.87917 0.16308 0.46048 0.0
C1661 C 0.90131 0.18139 0.50377 0.0
C1662 C 0.8505 0.15661 0.4723 0.0
C1663 C 0.84714 0.16164 0.49932 0.0
H1664 H 0.68789 0.68212 0.04496 0.0
H1665 H 0.59108 0.6626 0.05453 0.0
H1666 H 0.58467 0.65342 0.00701 0.0
H1667 H 0.6074 0.64427 0.96271 0.0
H1668 H 0.70366 0.67139 0.95346 0.0
H1669 H 0.70976 0.68319 1.00084 0.0
C1670 C 0.66534 0.67679 0.03657 0.0
C1671 C 0.63999 0.67319 0.05314 0.0
C1672 C 0.66189 0.67166 0.00934 0.0
C1673 C 0.61089 0.66633 0.04212 0.0
C1674 C 0.60726 0.66043 0.01498 0.0
C1675 C 0.62958 0.65303 0.97123 0.0
C1676 C 0.65529 0.6549 0.95504 0.0
C1677 C 0.63267 0.66196 0.99841 0.0
C1678 C 0.68385 0.66769 0.96589 0.0
C1679 C 0.68726 0.67503 0.99287 0.0
H1680 H 0.35398 0.39095 0.96149 0.0
H1681 H 0.4506 0.36184 0.95545 0.0
H1682 H 0.45473 0.35744 1.00324 0.0
H1683 H 0.43122 0.3707 0.04697 0.0
H1684 H 0.33461 0.40327 0.05169 0.0
H1685 H 0.33029 0.39819 0.0043 0.0
C1686 C 0.376 0.38365 0.97057 0.0
C1687 C 0.40201 0.37779 0.95491 0.0
C1688 C 0.37824 0.38222 0.99793 0.0
C1689 C 0.43021 0.36675 0.96702 0.0
C1690 C 0.4326 0.36451 0.99439 0.0
C1691 C 0.4092 0.3756 0.03761 0.0
C1692 C 0.38336 0.38777 0.05288 0.0
C1693 C 0.40683 0.37337 0.01009 0.0
C1694 C 0.35496 0.39445 0.04044 0.0
C1695 C 0.3524 0.39152 0.01329 0.0
H1696 H 0.6938 0.38173 0.45766 0.0
H1697 H 0.59826 0.34188 0.45008 0.0
H1698 H 0.59315 0.34156 0.49776 0.0
H1699 H 0.61507 0.36178 0.54169 0.0
H1700 H 0.7105 0.40485 0.5481 0.0
H1701 H 0.71618 0.39558 0.50097 0.0
C1702 C 0.67183 0.37282 0.46638 0.0
C1703 C 0.64635 0.36304 0.45022 0.0
C1704 C 0.66893 0.37397 0.49373 0.0
C1705 C 0.61825 0.35003 0.46196 0.0
C1706 C 0.61527 0.35014 0.48928 0.0
C1707 C 0.63716 0.36832 0.53279 0.0
C1708 C 0.66219 0.38474 0.54847 0.0
C1709 C 0.64032 0.36343 0.50539 0.0
C1710 C 0.69068 0.39306 0.53655 0.0
C1711 C 0.69404 0.38761 0.50954 0.0
H1712 H 0.43519 0.66482 0.54358 0.0
H1713 H 0.33995 0.61984 0.54932 0.0
H1714 H 0.33403 0.63047 0.50233 0.0
H1715 H 0.35553 0.64978 0.45955 0.0
H1716 H 0.45087 0.69043 0.45186 0.0
H1717 H 0.4568 0.68693 0.49968 0.0
C1718 C 0.41313 0.65798 0.53452 0.0
C1719 C 0.38815 0.64104 0.55001 0.0
C1720 C 0.40977 0.664 0.50717 0.0
C1721 C 0.35972 0.63198 0.53794 0.0
C1722 C 0.35619 0.63844 0.51101 0.0
C1723 C 0.3777 0.65767 0.46824 0.0
C1724 C 0.40279 0.66941 0.45213 0.0
C1725 C 0.38106 0.65384 0.49545 0.0
C1726 C 0.43115 0.68114 0.46383 0.0
C1727 C 0.43459 0.67872 0.49115 0.0
H1728 H 0.97694 1.01503 0.08821 0.0
H1729 H 0.95986 0.988 0.17034 0.0
H1730 H 1.01196 1.01711 0.18083 0.0
H1731 H 0.06329 0.04966 0.16677 0.0
H1732 H 0.08177 0.0703 0.0846 0.0
H1733 H 0.02899 0.04378 0.074 0.0
C1734 C 0.9847 1.01536 0.10839 0.0
C1735 C 0.96442 0.99797 0.12838 0.0
C1736 C 1.01516 0.03142 0.1143 0.0
C1737 C 0.9749 0.99941 0.15445 0.0
C1738 C 1.0048 1.0166 0.1605 0.0
C1739 C 0.05555 0.0493 0.14658 0.0
C1740 C 0.07609 0.06492 0.12656 0.0
C1741 C 0.02522 0.03266 0.14063 0.0
C1742 C 0.06613 0.06109 0.10042 0.0
C1743 C 0.03596 0.04539 0.09436 0.0
H1744 H 0.96813 0.04849 0.35847 0.0
H1745 H 0.96129 0.04913 0.4426 0.0
H1746 H 1.01567 0.02744 0.44647 0.0
H1747 H 0.06555 1.00816 0.42603 0.0
H1748 H 0.07155 0.99523 0.34208 0.0
H1749 H 1.01773 1.02226 0.33794 0.0
C1750 C 0.97871 0.04461 0.3776 0.0
C1751 C 0.96088 0.05258 0.40029 0.0
C1752 C 1.00995 0.02963 0.37968 0.0
C1753 C 0.97463 0.04459 0.42491 0.0
C1754 C 1.00574 0.03204 0.42713 0.0
C1755 C 0.05497 1.01098 0.40685 0.0
C1756 C 0.0725 0.99875 0.38443 0.0
C1757 C 0.02368 0.02454 0.40468 0.0
C1758 C 0.05851 1.00305 0.35968 0.0
C1759 C 0.0277 1.01886 0.35731 0.0
H1760 H 0.07356 0.02957 0.92401 0.0
H1761 H 0.08297 0.04158 0.84032 0.0
H1762 H 0.02982 1.01038 0.83455 0.0
H1763 H 0.97971 0.98134 0.85381 0.0
H1764 H 0.97087 0.97528 0.9378 0.0
H1765 H 0.02435 1.00213 0.943 0.0
C1766 C 0.06386 0.02576 0.90451 0.0
C1767 C 0.08198 0.03929 0.88268 0.0
C1768 C 0.03328 1.00834 0.90143 0.0
C1769 C 0.06929 0.03305 0.85749 0.0
C1770 C 0.03894 1.01471 0.85421 0.0
C1771 C 0.98975 0.98497 0.87318 0.0
C1772 C 0.97156 0.97468 0.89545 0.0
C1773 C 1.02058 1.00235 0.87606 0.0
C1774 C 0.98454 0.98181 0.92042 0.0
C1775 C 1.0151 0.99746 0.92341 0.0
H1776 H 0.97385 0.03389 0.59197 0.0
H1777 H 0.96125 0.07723 0.67336 0.0
H1778 H 1.01264 0.04276 0.6834 0.0
H1779 H 0.06198 1.00069 0.66899 0.0
H1780 H 0.07547 0.96098 0.5874 0.0
H1781 H 0.02338 0.99297 0.57748 0.0
C1782 C 0.98243 0.03595 0.61189 0.0
C1783 C 0.96374 0.05943 0.63178 0.0
C1784 C 1.01224 1.01587 0.61752 0.0
C1785 C 0.97516 0.0609 0.65754 0.0
C1786 C 1.0046 0.04065 0.66333 0.0
C1787 C 0.05324 0.9981 0.64913 0.0
C1788 C 0.07213 0.97592 0.62913 0.0
C1789 C 0.0234 1.01798 0.64351 0.0
C1790 C 0.061 0.97547 0.60329 0.0
C1791 C 0.03129 0.99439 0.59759 0.0
H1792 H 0.4722 0.50487 0.15505 0.0
H1793 H 0.4613 0.49711 0.07122 0.0
H1794 H 0.5146 0.5245 0.06534 0.0
H1795 H 0.5644 0.55282 0.08367 0.0
H1796 H 0.57484 0.57219 0.16709 0.0
H1797 H 0.52225 0.53836 0.17355 0.0
C1798 C 0.48173 0.50824 0.13556 0.0
C1799 C 0.46297 0.49684 0.11355 0.0
C1800 C 0.51239 0.5268 0.13225 0.0
C1801 C 0.47535 0.50419 0.08843 0.0
C1802 C 0.50584 0.52016 0.08505 0.0
C1803 C 0.5551 0.54987 0.10327 0.0
C1804 C 0.5735 0.56582 0.12482 0.0
C1805 C 0.52457 0.53193 0.10675 0.0
C1806 C 0.5611 0.56133 0.15011 0.0
C1807 C 0.53101 0.54159 0.1538 0.0
H1808 H 0.47765 0.53437 0.33776 0.0
H1809 H 0.46706 0.59886 0.41658 0.0
H1810 H 0.51889 0.56639 0.42733 0.0
H1811 H 0.56701 0.5166 0.41458 0.0
H1812 H 0.57745 0.45365 0.33545 0.0
H1813 H 0.5262 0.48766 0.32464 0.0
C1814 C 0.48694 0.54217 0.35717 0.0
C1815 C 0.46883 0.57073 0.3761 0.0
C1816 C 0.51667 0.52264 0.36326 0.0
C1817 C 0.48082 0.57885 0.40141 0.0
C1818 C 0.51038 0.5597 0.40761 0.0
C1819 C 0.55799 0.51019 0.39499 0.0
C1820 C 0.57588 0.48073 0.3761 0.0
C1821 C 0.52848 0.53106 0.38876 0.0
C1822 C 0.56403 0.47421 0.35064 0.0
C1823 C 0.53472 0.49429 0.34437 0.0
H1824 H 0.47886 0.51869 0.91773 0.0
H1825 H 0.46292 0.46814 0.83746 0.0
H1826 H 0.51497 0.49642 0.82614 0.0
H1827 H 0.56601 0.53107 0.83951 0.0
H1828 H 0.58185 0.58513 0.91929 0.0
H1829 H 0.52919 0.5597 0.9305 0.0
C1830 C 0.48691 0.51373 0.8978 0.0
C1831 C 0.46745 0.48909 0.87866 0.0
C1832 C 0.51689 0.53068 0.8914 0.0
C1833 C 0.47779 0.48484 0.85273 0.0
C1834 C 0.50749 0.50145 0.84622 0.0
C1835 C 0.5577 0.53807 0.85925 0.0
C1836 C 0.5775 0.56126 0.87841 0.0
C1837 C 0.5274 0.52357 0.86545 0.0
C1838 C 0.56679 0.56882 0.90407 0.0
C1839 C 0.53675 0.55382 0.9105 0.0
H1840 H 0.47771 0.56453 0.58438 0.0
H1841 H 0.46323 0.51856 0.66511 0.0
H1842 H 0.51696 0.49012 0.66961 0.0
H1843 H 0.56898 0.47983 0.65046 0.0
H1844 H 0.58205 0.5233 0.56911 0.0
H1845 H 0.52878 0.55238 0.56518 0.0
C1846 C 0.48648 0.549 0.60304 0.0
C1847 C 0.46676 0.54585 0.62464 0.0
C1848 C 0.5174 0.53232 0.60538 0.0
C1849 C 0.47817 0.52341 0.64843 0.0
C1850 C 0.5089 0.50682 0.65095 0.0
C1851 C 0.56001 0.4948 0.63181 0.0
C1852 C 0.57954 0.49792 0.6099 0.0
C1853 C 0.5289 0.51129 0.62958 0.0
C1854 C 0.56759 0.51944 0.58615 0.0
C1855 C 0.53703 0.53619 0.58387 0.0
H1856 H 0.20807 0.70414 0.13075 0.0
H1857 H 0.13701 0.78287 0.08351 0.0
H1858 H 0.10857 0.69059 0.08482 0.0
H1859 H 0.10375 0.58683 0.09885 0.0
H1860 H 0.17604 0.50625 0.1436 0.0
H1861 H 0.20469 0.599 0.14259 0.0
C1862 C 0.18663 0.70129 0.1203 0.0
C1863 C 0.17487 0.75151 0.10721 0.0
C1864 C 0.17066 0.64722 0.12039 0.0
C1865 C 0.14658 0.74616 0.09436 0.0
C1866 C 0.13033 0.69292 0.09482 0.0
C1867 C 0.12574 0.58963 0.10846 0.0
C1868 C 0.13764 0.53958 0.12139 0.0
C1869 C 0.1421 0.6432 0.1078 0.0
C1870 C 0.16642 0.5438 0.13334 0.0
C1871 C 0.18272 0.59705 0.13294 0.0
H1872 H 0.82996 0.36773 0.14322 0.0
H1873 H 0.90572 0.27883 0.1068 0.0
H1874 H 0.93518 0.37027 0.10791 0.0
H1875 H 0.93976 0.47516 0.11968 0.0
H1876 H 0.86415 0.56416 0.15628 0.0
H1877 H 0.83408 0.47356 0.15395 0.0
C1878 C 0.85276 0.36857 0.13522 0.0
C1879 C 0.86566 0.31636 0.12513 0.0
C1880 C 0.86962 0.42138 0.13588 0.0
C1881 C 0.8954 0.31811 0.11509 0.0
C1882 C 0.91224 0.37045 0.1156 0.0
C1883 C 0.9168 0.4746 0.12737 0.0
C1884 C 0.90432 0.52639 0.1382 0.0
C1885 C 0.8997 0.4222 0.12618 0.0
C1886 C 0.87428 0.52513 0.1476 0.0
C1887 C 0.85709 0.47322 0.14641 0.0
H1888 H 0.20069 0.37245 0.35485 0.0
H1889 H 0.13012 0.28315 0.39803 0.0
H1890 H 0.10034 0.37424 0.3994 0.0
H1891 H 0.09437 0.47944 0.38852 0.0
H1892 H 0.16485 0.56866 0.34519 0.0
H1893 H 0.19486 0.47785 0.34421 0.0
C1894 C 0.17895 0.37312 0.36481 0.0
C1895 C 0.16763 0.32103 0.37623 0.0
C1896 C 0.16193 0.42568 0.36556 0.0
C1897 C 0.1392 0.32244 0.38876 0.0
C1898 C 0.12219 0.37456 0.38966 0.0
C1899 C 0.11615 0.47884 0.37863 0.0
C1900 C 0.12732 0.5308 0.36698 0.0
C1901 C 0.13326 0.42638 0.37801 0.0
C1902 C 0.15585 0.52949 0.3546 0.0
C1903 C 0.17299 0.4775 0.35391 0.0
H1904 H 0.92773 0.56052 0.34953 0.0
H1905 H 0.87971 0.49229 0.41661 0.0
H1906 H 0.85037 0.5837 0.41956 0.0
H1907 H 0.83982 0.68477 0.40424 0.0
H1908 H 0.88799 0.753 0.33725 0.0
H1909 H 0.91622 0.66042 0.33352 0.0
C1910 C 0.91108 0.56586 0.36496 0.0
C1911 C 0.90609 0.51962 0.38287 0.0
C1912 C 0.89442 0.61875 0.36669 0.0
C1913 C 0.88389 0.52689 0.4024 0.0
C1914 C 0.86718 0.57932 0.40421 0.0
C1915 C 0.8562 0.67912 0.38861 0.0
C1916 C 0.86189 0.72598 0.37117 0.0
C1917 C 0.87237 0.62568 0.38654 0.0
C1918 C 0.88349 0.71805 0.35121 0.0
C1919 C 0.89957 0.66501 0.34898 0.0
H1920 H 0.84112 0.35051 0.86644 0.0
H1921 H 0.91705 0.25963 0.90209 0.0
H1922 H 0.947 0.3503 0.90093 0.0
H1923 H 0.95191 0.45541 0.8898 0.0
H1924 H 0.87611 0.54702 0.85444 0.0
H1925 H 0.84565 0.45673 0.85621 0.0
C1926 C 0.86409 0.35067 0.87423 0.0
C1927 C 0.87682 0.29796 0.88411 0.0
C1928 C 0.88124 0.40326 0.87368 0.0
C1929 C 0.90679 0.29908 0.89388 0.0
C1930 C 0.92393 0.35107 0.89338 0.0
C1931 C 0.92882 0.45552 0.88226 0.0
C1932 C 0.9164 0.508 0.87197 0.0
C1933 C 0.91148 0.40331 0.88317 0.0
C1934 C 0.88619 0.5075 0.86274 0.0
C1935 C 0.86879 0.45573 0.8636 0.0
H1936 H 0.10072 0.56169 0.87733 0.0
H1937 H 0.18223 0.47089 0.85297 0.0
H1938 H 0.21168 0.5614 0.85905 0.0
H1939 H 0.21411 0.6674 0.87015 0.0
H1940 H 0.13241 0.75798 0.8942 0.0
H1941 H 0.1032 0.66708 0.88868 0.0
C1942 C 0.12485 0.56179 0.87307 0.0
C1943 C 0.13914 0.50936 0.86471 0.0
C1944 C 0.14165 0.61421 0.87635 0.0
C1945 C 0.17062 0.51025 0.85976 0.0
C1946 C 0.18749 0.56218 0.86307 0.0
C1947 C 0.18998 0.66711 0.87442 0.0
C1948 C 0.17551 0.71967 0.88243 0.0
C1949 C 0.17325 0.61449 0.87131 0.0
C1950 C 0.1441 0.71853 0.88759 0.0
C1951 C 0.12736 0.66643 0.88459 0.0
H1952 H 0.83172 0.69276 0.64166 0.0
H1953 H 0.91132 0.78395 0.61335 0.0
H1954 H 0.94078 0.69276 0.61631 0.0
H1955 H 0.94415 0.58718 0.627 0.0
H1956 H 0.86494 0.49603 0.65608 0.0
H1957 H 0.83497 0.58643 0.65191 0.0
C1958 C 0.85542 0.69253 0.63588 0.0
C1959 C 0.86928 0.74535 0.62747 0.0
C1960 C 0.87231 0.63978 0.63759 0.0
C1961 C 0.90015 0.74428 0.62032 0.0
C1962 C 0.91702 0.69202 0.62186 0.0
C1963 C 0.92042 0.58716 0.63269 0.0
C1964 C 0.9069 0.53465 0.64181 0.0
C1965 C 0.9034 0.63961 0.63064 0.0
C1966 C 0.8759 0.53542 0.64861 0.0
C1967 C 0.85876 0.5873 0.64643 0.0
H1968 H 0.19255 0.33647 0.58537 0.0
H1969 H 0.13821 0.24568 0.64287 0.0
H1970 H 0.11201 0.33819 0.65334 0.0
H1971 H 0.10562 0.44512 0.64711 0.0
H1972 H 0.15761 0.53448 0.58728 0.0
H1973 H 0.18449 0.44297 0.57777 0.0
C1974 C 0.175 0.33696 0.60023 0.0
C1975 C 0.16741 0.2841 0.61333 0.0
C1976 C 0.15992 0.39033 0.60609 0.0
C1977 C 0.14432 0.28546 0.63229 0.0
C1978 C 0.12947 0.33849 0.63842 0.0
C1979 C 0.12239 0.44485 0.63163 0.0
C1980 C 0.12935 0.4977 0.6181 0.0
C1981 C 0.13715 0.39127 0.6255 0.0
C1982 C 0.15194 0.49559 0.59859 0.0
C1983 C 0.16719 0.4428 0.59284 0.0
H1984 H 0.59585 0.09073 0.12008 0.0
H1985 H 0.67404 0.99981 0.15171 0.0
H1986 H 0.70411 0.09038 0.14849 0.0
H1987 H 0.7076 0.19672 0.13833 0.0
H1988 H 0.62924 0.28693 0.10643 0.0
H1989 H 0.59974 0.19583 0.10874 0.0
C1990 C 0.61939 0.09085 0.12648 0.0
C1991 C 0.63258 0.03855 0.1362 0.0
C1992 C 0.6365 0.14317 0.12475 0.0
C1993 C 0.66334 0.03925 0.14392 0.0
C1994 C 0.68053 0.09115 0.14223 0.0
C1995 C 0.68419 0.1963 0.13158 0.0
C1996 C 0.67064 0.24891 0.12247 0.0
C1997 C 0.6673 0.14351 0.1328 0.0
C1998 C 0.64014 0.24751 0.11403 0.0
C1999 C 0.62325 0.19529 0.11519 0.0
H2000 H 0.34396 0.86128 0.11143 0.0
H2001 H 0.39343 0.79268 0.17794 0.0
H2002 H 0.42183 0.88524 0.18146 0.0
H2003 H 0.43276 0.98571 0.16561 0.0
H2004 H 0.38371 0.05359 0.09869 0.0
H2005 H 0.35452 0.96204 0.09588 0.0
C2006 C 0.36071 0.86679 0.12688 0.0
C2007 C 0.36659 0.81989 0.14432 0.0
C2008 C 0.37699 0.92019 0.12881 0.0
C2009 C 0.38871 0.82765 0.16401 0.0
C2010 C 0.40489 0.88071 0.16612 0.0
C2011 C 0.41591 0.98032 0.15024 0.0
C2012 C 0.41054 0.02673 0.1324 0.0
C2013 C 0.39936 0.92717 0.14853 0.0
C2014 C 0.38814 1.01913 0.11292 0.0
C2015 C 0.37151 0.96655 0.11118 0.0
H2016 H 0.61552 0.96224 0.33841 0.0
H2017 H 0.65417 0.03053 0.41014 0.0
H2018 H 0.68273 0.93886 0.41622 0.0
H2019 H 0.69481 0.83732 0.40228 0.0
H2020 H 0.6564 0.76965 0.3303 0.0
H2021 H 0.62913 0.8624 0.32362 0.0
C2022 C 0.62998 0.9569 0.3555 0.0
C2023 C 0.63248 1.00315 0.37386 0.0
C2024 C 0.64619 0.90389 0.35899 0.0
C2025 C 0.65191 0.99589 0.39559 0.0
C2026 C 0.66815 0.9433 0.39917 0.0
C2027 C 0.68082 0.84308 0.38494 0.0
C2028 C 0.67749 0.79616 0.36697 0.0
C2029 C 0.66528 0.8968 0.3811 0.0
C2030 C 0.65895 0.80443 0.34475 0.0
C2031 C 0.64344 0.85764 0.34082 0.0
H2032 H 0.45109 0.09592 0.37437 0.0
H2033 H 0.36933 0.99634 0.35828 0.0
H2034 H 0.33912 0.0866 0.36156 0.0
H2035 H 0.33594 0.19445 0.36769 0.0
H2036 H 0.41774 0.29378 0.38412 0.0
H2037 H 0.44784 0.20349 0.38098 0.0
C2038 C 0.42671 0.0939 0.37131 0.0
C2039 C 0.41265 0.03902 0.36607 0.0
C2040 C 0.40942 0.14624 0.37295 0.0
C2041 C 0.38086 0.03753 0.36269 0.0
C2042 C 0.36353 0.08934 0.36435 0.0
C2043 C 0.3603 0.19644 0.37088 0.0
C2044 C 0.3744 0.25138 0.37603 0.0
C2045 C 0.37756 0.14401 0.36939 0.0
C2046 C 0.40616 0.25268 0.37965 0.0
C2047 C 0.42345 0.20083 0.37808 0.0
H2048 H 0.35357 0.84712 0.90514 0.0
H2049 H 0.37173 0.77906 0.82779 0.0
H2050 H 0.39735 0.8712 0.81614 0.0
H2051 H 0.41568 0.97024 0.82826 0.0
H2052 H 0.39822 0.03743 0.90592 0.0
H2053 H 0.37067 0.9472 0.91686 0.0
C2054 C 0.36276 0.85281 0.88562 0.0
C2055 C 0.36089 0.80622 0.86742 0.0
C2056 C 0.37761 0.90576 0.87909 0.0
C2057 C 0.37323 0.814 0.84229 0.0
C2058 C 0.38782 0.8667 0.83558 0.0
C2059 C 0.40607 0.96492 0.84764 0.0
C2060 C 0.4091 1.01056 0.86621 0.0
C2061 C 0.39049 0.9126 0.85393 0.0
C2062 C 0.39599 1.00334 0.89111 0.0
C2063 C 0.38034 0.95158 0.89746 0.0
H2064 H 0.693 0.18053 0.91161 0.0
H2065 H 0.68695 0.26124 0.83531 0.0
H2066 H 0.66351 0.17162 0.81753 0.0
H2067 H 0.64309 0.07144 0.82408 0.0
H2068 H 0.64809 0.9917 0.9007 0.0
H2069 H 0.67361 0.07948 0.91793 0.0
C2070 C 0.68701 0.17792 0.89101 0.0
C2071 C 0.69167 0.22711 0.87476 0.0
C2072 C 0.67304 0.12671 0.88105 0.0
C2073 C 0.68344 0.22376 0.84817 0.0
C2074 C 0.66996 0.1727 0.83803 0.0
C2075 C 0.64951 0.07363 0.84459 0.0
C2076 C 0.64365 0.02529 0.86108 0.0
C2077 C 0.66418 0.12426 0.85439 0.0
C2078 C 0.65254 0.02826 0.88755 0.0
C2079 C 0.66711 0.07842 0.89744 0.0
H2080 H 0.43164 0.0572 0.68036 0.0
H2081 H 0.37633 0.96953 0.62217 0.0
H2082 H 0.34881 0.0618 0.61393 0.0
H2083 H 0.3428 0.16861 0.62125 0.0
H2084 H 0.39598 0.25451 0.68172 0.0
H2085 H 0.42272 0.16228 0.69019 0.0
C2086 C 0.41357 0.05833 0.66585 0.0
C2087 C 0.40628 1.00664 0.65173 0.0
C2088 C 0.39784 0.11153 0.66122 0.0
C2089 C 0.38237 1.00856 0.63339 0.0
C2090 C 0.36676 0.06146 0.62853 0.0
C2091 C 0.35981 0.16735 0.63665 0.0
C2092 C 0.36743 0.21953 0.65048 0.0
C2093 C 0.37459 0.11344 0.64209 0.0
C2094 C 0.39003 0.21616 0.67006 0.0
C2095 C 0.4052 0.16302 0.67521 0.0
H2096 H 0.70405 0.86083 0.60507 0.0
H2097 H 0.65229 0.79262 0.67006 0.0
H2098 H 0.62421 0.88545 0.6729 0.0
H2099 H 0.61369 0.98538 0.6566 0.0
H2100 H 0.66516 0.05391 0.59152 0.0
H2101 H 0.6946 0.96243 0.58963 0.0
C2102 C 0.68689 0.86652 0.62006 0.0
C2103 C 0.68013 0.81948 0.63715 0.0
C2104 C 0.67081 0.92021 0.62165 0.0
C2105 C 0.6576 0.82758 0.65632 0.0
C2106 C 0.64161 0.8808 0.65806 0.0
C2107 C 0.63113 0.98014 0.64182 0.0
C2108 C 0.63698 0.02645 0.62414 0.0
C2109 C 0.64779 0.92717 0.64066 0.0
C2110 C 0.66024 1.01929 0.60553 0.0
C2111 C 0.67701 0.96678 0.60432 0.0
loop_
_geom_bond_atom_site_label_1
_geom_bond_atom_site_label_2
_geom_bond_distance
_geom_bond_site_symmetry_2
_ccdc_geom_bond_type
Gd0 N31 2.661 . S
Gd0 N37 2.601 . S
Gd0 O44 2.545 . S
Gd0 O45 2.606 . S
Gd0 O47 2.429 . S
Gd0 O48 2.545 . S
Gd0 O49 2.412 . S
Gd0 O51 2.362 . S
Gd0 O52 2.324 . S
Gd0 C59 2.828 . S
Gd1 N10 2.661 . S
Gd1 N14 2.601 . S
Gd1 O45 2.362 . S
Gd1 O46 2.324 . S
Gd1 O50 2.545 1_545 S
Gd1 O51 2.606 . S
Gd1 O53 2.429 . S
Gd1 O54 2.545 . S
Gd1 O55 2.412 1_545 S
Gd1 C68 2.828 1_545 S
C2 C5 1.417 . S
C2 C7 1.431 . S
C2 C8 1.412 . S
C3 C6 1.437 . S
C3 C7 1.317 . S
C3 H22 0.929 . S
C4 C5 1.426 . S
C4 C6 1.413 . S
C4 N14 1.359 . S
C5 C2 1.417 . S
C5 C4 1.426 . S
C5 N10 1.350 . S
C6 C3 1.437 . S
C6 C4 1.413 . S
C6 C16 1.391 . S
C7 C2 1.431 . S
C7 C3 1.317 . S
C7 H18 0.930 . S
C8 C2 1.412 . S
C8 C9 1.355 . S
C8 H20 0.930 . S
C9 C8 1.355 . S
C9 C11 1.402 . S
C9 H21 0.930 . S
N10 Gd1 2.661 . S
N10 C5 1.350 . S
N10 C11 1.307 . S
C11 C9 1.402 . S
C11 N10 1.307 . S
C11 H12 0.930 . S
H12 C11 0.930 . S
C13 N14 1.334 . S
C13 C15 1.394 . S
C13 H17 0.930 . S
N14 Gd1 2.601 . S
N14 C4 1.359 . S
N14 C13 1.334 . S
C15 C13 1.394 . S
C15 C16 1.359 . S
C15 H27 0.930 . S
C16 C6 1.391 . S
C16 C15 1.359 . S
C16 H28 0.926 1_545 S
H17 C13 0.930 . S
H18 C7 0.930 . S
H19 C36 0.930 . S
H20 C8 0.930 . S
H21 C9 0.930 . S
H22 C3 0.929 . S
H23 C41 0.930 . S
H24 C32 0.930 . S
H25 C33 0.930 . S
H26 C57 0.929 . S
H27 C15 0.930 . S
H28 C16 0.926 1_565 S
H29 C58 0.930 . S
H30 C39 0.930 . S
N31 Gd0 2.661 . S
N31 C35 1.350 . S
N31 C36 1.307 . S
C32 H24 0.930 . S
C32 C33 1.355 1_655 S
C32 C34 1.412 1_655 S
C33 H25 0.930 . S
C33 C32 1.355 1_455 S
C33 C36 1.402 . S
C34 C32 1.412 1_455 S
C34 C35 1.417 . S
C34 C58 1.431 1_455 S
C35 N31 1.350 . S
C35 C34 1.417 . S
C35 C38 1.426 . S
C36 H19 0.930 . S
C36 N31 1.307 . S
C36 C33 1.402 . S
N37 Gd0 2.601 . S
N37 C38 1.359 . S
N37 C41 1.334 . S
C38 C35 1.426 . S
C38 N37 1.359 . S
C38 C42 1.413 . S
C39 H30 0.930 . S
C39 C40 1.359 . S
C39 C41 1.394 . S
C40 C39 1.359 . S
C40 C42 1.391 . S
C40 H43 0.929 . S
C41 H23 0.930 . S
C41 N37 1.334 . S
C41 C39 1.394 . S
C42 C38 1.413 . S
C42 C40 1.391 . S
C42 C57 1.437 1_455 S
H43 C40 0.929 . S
O44 Gd0 2.545 . S
O44 C59 1.258 . S
O45 Gd0 2.606 . S
O45 Gd1 2.362 . S
O45 C56 1.284 . S
O46 Gd1 2.324 . S
O46 C66 1.254 . S
O47 Gd0 2.429 . S
O47 C66 1.268 . S
O48 Gd0 2.545 . S
O48 C56 1.250 . S
O49 Gd0 2.412 . S
O49 C59 1.252 . S
O50 Gd1 2.545 1_565 S
O50 C68 1.258 . S
O51 Gd0 2.362 . S
O51 Gd1 2.606 . S
O51 C67 1.284 . S
O52 Gd0 2.324 . S
O52 C75 1.254 . S
O53 Gd1 2.429 . S
O53 C75 1.268 . S
O54 Gd1 2.545 . S
O54 C67 1.250 . S
O55 Gd1 2.412 1_565 S
O55 C68 1.252 . S
C56 O45 1.284 . S
C56 O48 1.250 . S
C57 H26 0.929 . S
C57 C42 1.437 1_655 S
C57 C58 1.317 . S
C58 H29 0.930 . S
C58 C34 1.431 1_655 S
C58 C57 1.317 . S
C59 Gd0 2.828 . S
C59 O44 1.258 . S
C59 O49 1.252 . S
C59 C60 1.497 . S
C60 C59 1.497 . S
C60 C61 1.395 . S
C60 C62 1.380 . S
C61 C60 1.395 . S
C61 C64 1.398 . S
C61 H76 0.930 . S
C62 C60 1.380 . S
C62 C63 1.391 . S
C62 H77 0.930 . S
C63 C62 1.391 . S
C63 C65 1.387 . S
C64 C61 1.398 . S
C64 C65 1.380 . S
C64 H78 0.930 . S
C65 C63 1.387 . S
C65 C64 1.380 . S
C65 H79 0.930 . S
C66 O46 1.254 . S
C66 O47 1.268 . S
C67 O51 1.284 . S
C67 O54 1.250 . S
C68 Gd1 2.828 1_565 S
C68 O50 1.258 . S
C68 O55 1.252 . S
C68 C69 1.497 . S
C69 C68 1.497 . S
C69 C70 1.395 . S
C69 C71 1.380 . S
C70 C69 1.395 . S
C70 C73 1.398 . S
C70 H80 0.930 . S
C71 C69 1.380 . S
C71 C72 1.391 . S
C71 H81 0.930 . S
C72 C71 1.391 . S
C72 C74 1.387 . S
C73 C70 1.398 . S
C73 C74 1.380 . S
C73 H82 0.930 . S
C74 C72 1.387 . S
C74 C73 1.380 . S
C74 H83 0.930 . S
C75 O52 1.254 . S
C75 O53 1.268 . S
H76 C61 0.930 . S
H77 C62 0.930 . S
H78 C64 0.930 . S
H79 C65 0.930 . S
H80 C70 0.930 . S
H81 C71 0.930 . S
H82 C73 0.930 . S
H83 C74 0.930 . S
Gd84 N115 2.661 . S
Gd84 N121 2.601 . S
Gd84 O128 2.545 . S
Gd84 O129 2.606 . S
Gd84 O131 2.429 . S
Gd84 O132 2.545 . S
Gd84 O133 2.412 . S
Gd84 O135 2.362 . S
Gd84 O136 2.324 . S
Gd84 C143 2.828 . S
Gd85 N94 2.661 . S
Gd85 N98 2.601 . S
Gd85 O129 2.362 . S
Gd85 O130 2.324 . S
Gd85 O134 2.545 1_565 S
Gd85 O135 2.606 . S
Gd85 O137 2.429 . S
Gd85 O138 2.545 . S
Gd85 O139 2.412 1_565 S
Gd85 C152 2.828 1_565 S
C86 C89 1.417 . S
C86 C91 1.431 . S
C86 C92 1.412 . S
C87 C90 1.437 . S
C87 C91 1.317 . S
C87 H106 0.929 . S
C88 C89 1.426 . S
C88 C90 1.413 . S
C88 N98 1.359 . S
C89 C86 1.417 . S
C89 C88 1.426 . S
C89 N94 1.350 . S
C90 C87 1.437 . S
C90 C88 1.413 . S
C90 C100 1.391 . S
C91 C86 1.431 . S
C91 C87 1.317 . S
C91 H102 0.930 . S
C92 C86 1.412 . S
C92 C93 1.355 . S
C92 H104 0.930 . S
C93 C92 1.355 . S
C93 C95 1.402 . S
C93 H105 0.930 . S
N94 Gd85 2.661 . S
N94 C89 1.350 . S
N94 C95 1.307 . S
C95 C93 1.402 . S
C95 N94 1.307 . S
C95 H96 0.930 . S
H96 C95 0.930 . S
C97 N98 1.334 . S
C97 C99 1.394 . S
C97 H101 0.930 . S
N98 Gd85 2.601 . S
N98 C88 1.359 . S
N98 C97 1.334 . S
C99 C97 1.394 . S
C99 C100 1.359 . S
C99 H111 0.930 . S
C100 C90 1.391 . S
C100 C99 1.359 . S
C100 H112 0.926 1_565 S
H101 C97 0.930 . S
H102 C91 0.930 . S
H103 C120 0.930 . S
H104 C92 0.930 . S
H105 C93 0.930 . S
H106 C87 0.929 . S
H107 C125 0.930 . S
H108 C116 0.930 . S
H109 C117 0.930 . S
H110 C141 0.929 . S
H111 C99 0.930 . S
H112 C100 0.926 1_545 S
H113 C142 0.930 . S
H114 C123 0.930 . S
N115 Gd84 2.661 . S
N115 C119 1.350 . S
N115 C120 1.307 . S
C116 H108 0.930 . S
C116 C117 1.355 1_455 S
C116 C118 1.412 1_455 S
C117 H109 0.930 . S
C117 C116 1.355 1_655 S
C117 C120 1.402 . S
C118 C116 1.412 1_655 S
C118 C119 1.417 . S
C118 C142 1.431 1_655 S
C119 N115 1.350 . S
C119 C118 1.417 . S
C119 C122 1.426 . S
C120 H103 0.930 . S
C120 N115 1.307 . S
C120 C117 1.402 . S
N121 Gd84 2.601 . S
N121 C122 1.359 . S
N121 C125 1.334 . S
C122 C119 1.426 . S
C122 N121 1.359 . S
C122 C126 1.413 . S
C123 H114 0.930 . S
C123 C124 1.359 . S
C123 C125 1.394 . S
C124 C123 1.359 . S
C124 C126 1.391 . S
C124 H127 0.929 . S
C125 H107 0.930 . S
C125 N121 1.334 . S
C125 C123 1.394 . S
C126 C122 1.413 . S
C126 C124 1.391 . S
C126 C141 1.437 1_655 S
H127 C124 0.929 . S
O128 Gd84 2.545 . S
O128 C143 1.258 . S
O129 Gd84 2.606 . S
O129 Gd85 2.362 . S
O129 C140 1.284 . S
O130 Gd85 2.324 . S
O130 C150 1.254 . S
O131 Gd84 2.429 . S
O131 C150 1.268 . S
O132 Gd84 2.545 . S
O132 C140 1.250 . S
O133 Gd84 2.412 . S
O133 C143 1.252 . S
O134 Gd85 2.545 1_545 S
O134 C152 1.258 . S
O135 Gd84 2.362 . S
O135 Gd85 2.606 . S
O135 C151 1.284 . S
O136 Gd84 2.324 . S
O136 C159 1.254 . S
O137 Gd85 2.429 . S
O137 C159 1.268 . S
O138 Gd85 2.545 . S
O138 C151 1.250 . S
O139 Gd85 2.412 1_545 S
O139 C152 1.252 . S
C140 O129 1.284 . S
C140 O132 1.250 . S
C141 H110 0.929 . S
C141 C126 1.437 1_455 S
C141 C142 1.317 . S
C142 H113 0.930 . S
C142 C118 1.431 1_455 S
C142 C141 1.317 . S
C143 Gd84 2.828 . S
C143 O128 1.258 . S
C143 O133 1.252 . S
C143 C144 1.497 . S
C144 C143 1.497 . S
C144 C145 1.395 . S
C144 C146 1.380 . S
C145 C144 1.395 . S
C145 C148 1.398 . S
C145 H160 0.930 . S
C146 C144 1.380 . S
C146 C147 1.391 . S
C146 H161 0.930 . S
C147 C146 1.391 . S
C147 C149 1.387 . S
C148 C145 1.398 . S
C148 C149 1.380 . S
C148 H162 0.930 . S
C149 C147 1.387 . S
C149 C148 1.380 . S
C149 H163 0.930 . S
C150 O130 1.254 . S
C150 O131 1.268 . S
C151 O135 1.284 . S
C151 O138 1.250 . S
C152 Gd85 2.828 1_545 S
C152 O134 1.258 . S
C152 O139 1.252 . S
C152 C153 1.497 . S
C153 C152 1.497 . S
C153 C154 1.395 . S
C153 C155 1.380 . S
C154 C153 1.395 . S
C154 C157 1.398 . S
C154 H164 0.930 . S
C155 C153 1.380 . S
C155 C156 1.391 . S
C155 H165 0.930 . S
C156 C155 1.391 . S
C156 C158 1.387 . S
C157 C154 1.398 . S
C157 C158 1.380 . S
C157 H166 0.930 . S
C158 C156 1.387 . S
C158 C157 1.380 . S
C158 H167 0.930 . S
C159 O136 1.254 . S
C159 O137 1.268 . S
H160 C145 0.930 . S
H161 C146 0.930 . S
H162 C148 0.930 . S
H163 C149 0.930 . S
H164 C154 0.930 . S
H165 C155 0.930 . S
H166 C157 0.930 . S
H167 C158 0.930 . S
Gd168 N199 2.661 . S
Gd168 N205 2.601 . S
Gd168 O212 2.545 . S
Gd168 O213 2.606 . S
Gd168 O215 2.429 . S
Gd168 O216 2.545 . S
Gd168 O217 2.412 . S
Gd168 O219 2.362 . S
Gd168 O220 2.324 . S
Gd168 C227 2.828 . S
Gd169 N178 2.661 . S
Gd169 N182 2.601 . S
Gd169 O213 2.362 . S
Gd169 O214 2.324 . S
Gd169 O218 2.545 1_565 S
Gd169 O219 2.606 . S
Gd169 O221 2.429 . S
Gd169 O222 2.545 . S
Gd169 O223 2.412 1_565 S
Gd169 C236 2.828 1_565 S
C170 C173 1.417 . S
C170 C175 1.431 . S
C170 C176 1.412 . S
C171 C174 1.437 . S
C171 C175 1.317 . S
C171 H190 0.929 . S
C172 C173 1.426 . S
C172 C174 1.413 . S
C172 N182 1.359 . S
C173 C170 1.417 . S
C173 C172 1.426 . S
C173 N178 1.350 . S
C174 C171 1.437 . S
C174 C172 1.413 . S
C174 C184 1.391 . S
C175 C170 1.431 . S
C175 C171 1.317 . S
C175 H186 0.930 . S
C176 C170 1.412 . S
C176 C177 1.355 . S
C176 H188 0.930 . S
C177 C176 1.355 . S
C177 C179 1.402 . S
C177 H189 0.930 . S
N178 Gd169 2.661 . S
N178 C173 1.350 . S
N178 C179 1.307 . S
C179 C177 1.402 . S
C179 N178 1.307 . S
C179 H180 0.930 . S
H180 C179 0.930 . S
C181 N182 1.334 . S
C181 C183 1.394 . S
C181 H185 0.930 . S
N182 Gd169 2.601 . S
N182 C172 1.359 . S
N182 C181 1.334 . S
C183 C181 1.394 . S
C183 C184 1.359 . S
C183 H195 0.930 . S
C184 C174 1.391 . S
C184 C183 1.359 . S
C184 H196 0.926 1_565 S
H185 C181 0.930 . S
H186 C175 0.930 . S
H187 C204 0.930 . S
H188 C176 0.930 . S
H189 C177 0.930 . S
H190 C171 0.929 . S
H191 C209 0.930 . S
H192 C200 0.930 . S
H193 C201 0.930 . S
H194 C225 0.929 . S
H195 C183 0.930 . S
H196 C184 0.926 1_545 S
H197 C226 0.930 . S
H198 C207 0.930 . S
N199 Gd168 2.661 . S
N199 C203 1.350 . S
N199 C204 1.307 . S
C200 H192 0.930 . S
C200 C201 1.355 1_655 S
C200 C202 1.412 1_655 S
C201 H193 0.930 . S
C201 C200 1.355 1_455 S
C201 C204 1.402 . S
C202 C200 1.412 1_455 S
C202 C203 1.417 . S
C202 C226 1.431 1_455 S
C203 N199 1.350 . S
C203 C202 1.417 . S
C203 C206 1.426 . S
C204 H187 0.930 . S
C204 N199 1.307 . S
C204 C201 1.402 . S
N205 Gd168 2.601 . S
N205 C206 1.359 . S
N205 C209 1.334 . S
C206 C203 1.426 . S
C206 N205 1.359 . S
C206 C210 1.413 . S
C207 H198 0.930 . S
C207 C208 1.359 . S
C207 C209 1.394 . S
C208 C207 1.359 . S
C208 C210 1.391 . S
C208 H211 0.929 . S
C209 H191 0.930 . S
C209 N205 1.334 . S
C209 C207 1.394 . S
C210 C206 1.413 . S
C210 C208 1.391 . S
C210 C225 1.437 1_455 S
H211 C208 0.929 . S
O212 Gd168 2.545 . S
O212 C227 1.258 . S
O213 Gd168 2.606 . S
O213 Gd169 2.362 . S
O213 C224 1.284 . S
O214 Gd169 2.324 . S
O214 C234 1.254 . S
O215 Gd168 2.429 . S
O215 C234 1.268 . S
O216 Gd168 2.545 . S
O216 C224 1.250 . S
O217 Gd168 2.412 . S
O217 C227 1.252 . S
O218 Gd169 2.545 1_545 S
O218 C236 1.258 . S
O219 Gd168 2.362 . S
O219 Gd169 2.606 . S
O219 C235 1.284 . S
O220 Gd168 2.324 . S
O220 C243 1.254 . S
O221 Gd169 2.429 . S
O221 C243 1.268 . S
O222 Gd169 2.545 . S
O222 C235 1.250 . S
O223 Gd169 2.412 1_545 S
O223 C236 1.252 . S
C224 O213 1.284 . S
C224 O216 1.250 . S
C225 H194 0.929 . S
C225 C210 1.437 1_655 S
C225 C226 1.317 . S
C226 H197 0.930 . S
C226 C202 1.431 1_655 S
C226 C225 1.317 . S
C227 Gd168 2.828 . S
C227 O212 1.258 . S
C227 O217 1.252 . S
C227 C228 1.497 . S
C228 C227 1.497 . S
C228 C229 1.395 . S
C228 C230 1.380 . S
C229 C228 1.395 . S
C229 C232 1.398 . S
C229 H244 0.930 . S
C230 C228 1.380 . S
C230 C231 1.391 . S
C230 H245 0.930 . S
C231 C230 1.391 . S
C231 C233 1.387 . S
C232 C229 1.398 . S
C232 C233 1.380 . S
C232 H246 0.930 . S
C233 C231 1.387 . S
C233 C232 1.380 . S
C233 H247 0.930 . S
C234 O214 1.254 . S
C234 O215 1.268 . S
C235 O219 1.284 . S
C235 O222 1.250 . S
C236 Gd169 2.828 1_545 S
C236 O218 1.258 . S
C236 O223 1.252 . S
C236 C237 1.497 . S
C237 C236 1.497 . S
C237 C238 1.395 . S
C237 C239 1.380 . S
C238 C237 1.395 . S
C238 C241 1.398 . S
C238 H248 0.930 . S
C239 C237 1.380 . S
C239 C240 1.391 . S
C239 H249 0.930 . S
C240 C239 1.391 . S
C240 C242 1.387 . S
C241 C238 1.398 . S
C241 C242 1.380 . S
C241 H250 0.930 . S
C242 C240 1.387 . S
C242 C241 1.380 . S
C242 H251 0.930 . S
C243 O220 1.254 . S
C243 O221 1.268 . S
H244 C229 0.930 . S
H245 C230 0.930 . S
H246 C232 0.930 . S
H247 C233 0.930 . S
H248 C238 0.930 . S
H249 C239 0.930 . S
H250 C241 0.930 . S
H251 C242 0.930 . S
Gd252 N283 2.661 . S
Gd252 N289 2.601 . S
Gd252 O296 2.545 . S
Gd252 O297 2.606 . S
Gd252 O299 2.429 . S
Gd252 O300 2.545 . S
Gd252 O301 2.412 . S
Gd252 O303 2.362 . S
Gd252 O304 2.324 . S
Gd252 C311 2.828 . S
Gd253 N262 2.661 . S
Gd253 N266 2.601 . S
Gd253 O297 2.362 . S
Gd253 O298 2.324 . S
Gd253 O302 2.545 1_545 S
Gd253 O303 2.606 . S
Gd253 O305 2.429 . S
Gd253 O306 2.545 . S
Gd253 O307 2.412 1_545 S
Gd253 C320 2.828 1_545 S
C254 C257 1.417 . S
C254 C259 1.431 . S
C254 C260 1.412 . S
C255 C258 1.437 . S
C255 C259 1.317 . S
C255 H274 0.929 . S
C256 C257 1.426 . S
C256 C258 1.413 . S
C256 N266 1.359 . S
C257 C254 1.417 . S
C257 C256 1.426 . S
C257 N262 1.350 . S
C258 C255 1.437 . S
C258 C256 1.413 . S
C258 C268 1.391 . S
C259 C254 1.431 . S
C259 C255 1.317 . S
C259 H270 0.930 . S
C260 C254 1.412 . S
C260 C261 1.355 . S
C260 H272 0.930 . S
C261 C260 1.355 . S
C261 C263 1.402 . S
C261 H273 0.930 . S
N262 Gd253 2.661 . S
N262 C257 1.350 . S
N262 C263 1.307 . S
C263 C261 1.402 . S
C263 N262 1.307 . S
C263 H264 0.930 . S
H264 C263 0.930 . S
C265 N266 1.334 . S
C265 C267 1.394 . S
C265 H269 0.930 . S
N266 Gd253 2.601 . S
N266 C256 1.359 . S
N266 C265 1.334 . S
C267 C265 1.394 . S
C267 C268 1.359 . S
C267 H279 0.930 . S
C268 C258 1.391 . S
C268 C267 1.359 . S
C268 H280 0.926 1_545 S
H269 C265 0.930 . S
H270 C259 0.930 . S
H271 C288 0.930 . S
H272 C260 0.930 . S
H273 C261 0.930 . S
H274 C255 0.929 . S
H275 C293 0.930 . S
H276 C284 0.930 . S
H277 C285 0.930 . S
H278 C309 0.929 . S
H279 C267 0.930 . S
H280 C268 0.926 1_565 S
H281 C310 0.930 . S
H282 C291 0.930 . S
N283 Gd252 2.661 . S
N283 C287 1.350 . S
N283 C288 1.307 . S
C284 H276 0.930 . S
C284 C285 1.355 1_455 S
C284 C286 1.412 1_455 S
C285 H277 0.930 . S
C285 C284 1.355 1_655 S
C285 C288 1.402 . S
C286 C284 1.412 1_655 S
C286 C287 1.417 . S
C286 C310 1.431 1_655 S
C287 N283 1.350 . S
C287 C286 1.417 . S
C287 C290 1.426 . S
C288 H271 0.930 . S
C288 N283 1.307 . S
C288 C285 1.402 . S
N289 Gd252 2.601 . S
N289 C290 1.359 . S
N289 C293 1.334 . S
C290 C287 1.426 . S
C290 N289 1.359 . S
C290 C294 1.413 . S
C291 H282 0.930 . S
C291 C292 1.359 . S
C291 C293 1.394 . S
C292 C291 1.359 . S
C292 C294 1.391 . S
C292 H295 0.929 . S
C293 H275 0.930 . S
C293 N289 1.334 . S
C293 C291 1.394 . S
C294 C290 1.413 . S
C294 C292 1.391 . S
C294 C309 1.437 1_655 S
H295 C292 0.929 . S
O296 Gd252 2.545 . S
O296 C311 1.258 . S
O297 Gd252 2.606 . S
O297 Gd253 2.362 . S
O297 C308 1.284 . S
O298 Gd253 2.324 . S
O298 C318 1.254 . S
O299 Gd252 2.429 . S
O299 C318 1.268 . S
O300 Gd252 2.545 . S
O300 C308 1.250 . S
O301 Gd252 2.412 . S
O301 C311 1.252 . S
O302 Gd253 2.545 1_565 S
O302 C320 1.258 . S
O303 Gd252 2.362 . S
O303 Gd253 2.606 . S
O303 C319 1.284 . S
O304 Gd252 2.324 . S
O304 C327 1.254 . S
O305 Gd253 2.429 . S
O305 C327 1.268 . S
O306 Gd253 2.545 . S
O306 C319 1.250 . S
O307 Gd253 2.412 1_565 S
O307 C320 1.252 . S
C308 O297 1.284 . S
C308 O300 1.250 . S
C309 H278 0.929 . S
C309 C294 1.437 1_455 S
C309 C310 1.317 . S
C310 H281 0.930 . S
C310 C286 1.431 1_455 S
C310 C309 1.317 . S
C311 Gd252 2.828 . S
C311 O296 1.258 . S
C311 O301 1.252 . S
C311 C312 1.497 . S
C312 C311 1.497 . S
C312 C313 1.395 . S
C312 C314 1.380 . S
C313 C312 1.395 . S
C313 C316 1.398 . S
C313 H328 0.930 . S
C314 C312 1.380 . S
C314 C315 1.391 . S
C314 H329 0.930 . S
C315 C314 1.391 . S
C315 C317 1.387 . S
C316 C313 1.398 . S
C316 C317 1.380 . S
C316 H330 0.930 . S
C317 C315 1.387 . S
C317 C316 1.380 . S
C317 H331 0.930 . S
C318 O298 1.254 . S
C318 O299 1.268 . S
C319 O303 1.284 . S
C319 O306 1.250 . S
C320 Gd253 2.828 1_565 S
C320 O302 1.258 . S
C320 O307 1.252 . S
C320 C321 1.497 . S
C321 C320 1.497 . S
C321 C322 1.395 . S
C321 C323 1.380 . S
C322 C321 1.395 . S
C322 C325 1.398 . S
C322 H332 0.930 . S
C323 C321 1.380 . S
C323 C324 1.391 . S
C323 H333 0.930 . S
C324 C323 1.391 . S
C324 C326 1.387 . S
C325 C322 1.398 . S
C325 C326 1.380 . S
C325 H334 0.930 . S
C326 C324 1.387 . S
C326 C325 1.380 . S
C326 H335 0.930 . S
C327 O304 1.254 . S
C327 O305 1.268 . S
H328 C313 0.930 . S
H329 C314 0.930 . S
H330 C316 0.930 . S
H331 C317 0.930 . S
H332 C322 0.930 . S
H333 C323 0.930 . S
H334 C325 0.930 . S
H335 C326 0.930 . S
Gd336 N367 2.661 . S
Gd336 N373 2.601 . S
Gd336 O380 2.545 1_565 S
Gd336 O381 2.606 . S
Gd336 O383 2.429 . S
Gd336 O384 2.545 . S
Gd336 O385 2.412 1_565 S
Gd336 O387 2.362 . S
Gd336 O388 2.324 . S
Gd336 C395 2.828 1_565 S
Gd337 N346 2.661 . S
Gd337 N350 2.601 . S
Gd337 O381 2.362 . S
Gd337 O382 2.324 . S
Gd337 O386 2.545 . S
Gd337 O387 2.606 . S
Gd337 O389 2.429 . S
Gd337 O390 2.545 . S
Gd337 O391 2.412 . S
Gd337 C404 2.828 . S
C338 C341 1.417 . S
C338 C343 1.431 1_655 S
C338 C344 1.412 1_655 S
C339 C342 1.437 1_455 S
C339 C343 1.317 . S
C339 H358 0.929 . S
C340 C341 1.426 . S
C340 C342 1.413 . S
C340 N350 1.359 . S
C341 C338 1.417 . S
C341 C340 1.426 . S
C341 N346 1.350 . S
C342 C339 1.437 1_655 S
C342 C340 1.413 . S
C342 C352 1.391 . S
C343 C338 1.431 1_455 S
C343 C339 1.317 . S
C343 H354 0.930 . S
C344 C338 1.412 1_455 S
C344 C345 1.355 1_455 S
C344 H356 0.930 . S
C345 C344 1.355 1_655 S
C345 C347 1.402 . S
C345 H357 0.930 . S
N346 Gd337 2.661 . S
N346 C341 1.350 . S
N346 C347 1.307 . S
C347 C345 1.402 . S
C347 N346 1.307 . S
C347 H348 0.930 . S
H348 C347 0.930 . S
C349 N350 1.334 . S
C349 C351 1.394 . S
C349 H353 0.930 . S
N350 Gd337 2.601 . S
N350 C340 1.359 . S
N350 C349 1.334 . S
C351 C349 1.394 . S
C351 C352 1.359 . S
C351 H363 0.930 . S
C352 C342 1.391 . S
C352 C351 1.359 . S
C352 H364 0.929 . S
H353 C349 0.930 . S
H354 C343 0.930 . S
H355 C372 0.930 . S
H356 C344 0.930 . S
H357 C345 0.930 . S
H358 C339 0.929 . S
H359 C377 0.930 . S
H360 C368 0.930 . S
H361 C369 0.930 . S
H362 C393 0.929 . S
H363 C351 0.930 . S
H364 C352 0.929 . S
H365 C394 0.930 . S
H366 C375 0.930 . S
N367 Gd336 2.661 . S
N367 C371 1.350 . S
N367 C372 1.307 . S
C368 H360 0.930 . S
C368 C369 1.355 . S
C368 C370 1.412 . S
C369 H361 0.930 . S
C369 C368 1.355 . S
C369 C372 1.402 . S
C370 C368 1.412 . S
C370 C371 1.417 . S
C370 C394 1.431 . S
C371 N367 1.350 . S
C371 C370 1.417 . S
C371 C374 1.426 . S
C372 H355 0.930 . S
C372 N367 1.307 . S
C372 C369 1.402 . S
N373 Gd336 2.601 . S
N373 C374 1.359 . S
N373 C377 1.334 . S
C374 C371 1.426 . S
C374 N373 1.359 . S
C374 C378 1.413 . S
C375 H366 0.930 . S
C375 C376 1.359 . S
C375 C377 1.394 . S
C376 C375 1.359 . S
C376 C378 1.391 . S
C376 H379 0.926 1_565 S
C377 H359 0.930 . S
C377 N373 1.334 . S
C377 C375 1.394 . S
C378 C374 1.413 . S
C378 C376 1.391 . S
C378 C393 1.437 . S
H379 C376 0.926 1_545 S
O380 Gd336 2.545 1_545 S
O380 C395 1.258 . S
O381 Gd336 2.606 . S
O381 Gd337 2.362 . S
O381 C392 1.284 . S
O382 Gd337 2.324 . S
O382 C402 1.254 . S
O383 Gd336 2.429 . S
O383 C402 1.268 . S
O384 Gd336 2.545 . S
O384 C392 1.250 . S
O385 Gd336 2.412 1_545 S
O385 C395 1.252 . S
O386 Gd337 2.545 . S
O386 C404 1.258 . S
O387 Gd336 2.362 . S
O387 Gd337 2.606 . S
O387 C403 1.284 . S
O388 Gd336 2.324 . S
O388 C411 1.254 . S
O389 Gd337 2.429 . S
O389 C411 1.268 . S
O390 Gd337 2.545 . S
O390 C403 1.250 . S
O391 Gd337 2.412 . S
O391 C404 1.252 . S
C392 O381 1.284 . S
C392 O384 1.250 . S
C393 H362 0.929 . S
C393 C378 1.437 . S
C393 C394 1.317 . S
C394 H365 0.930 . S
C394 C370 1.431 . S
C394 C393 1.317 . S
C395 Gd336 2.828 1_545 S
C395 O380 1.258 . S
C395 O385 1.252 . S
C395 C396 1.497 . S
C396 C395 1.497 . S
C396 C397 1.395 . S
C396 C398 1.380 . S
C397 C396 1.395 . S
C397 C400 1.398 . S
C397 H412 0.930 . S
C398 C396 1.380 . S
C398 C399 1.391 . S
C398 H413 0.930 . S
C399 C398 1.391 . S
C399 C401 1.387 . S
C400 C397 1.398 . S
C400 C401 1.380 . S
C400 H414 0.930 . S
C401 C399 1.387 . S
C401 C400 1.380 . S
C401 H415 0.930 . S
C402 O382 1.254 . S
C402 O383 1.268 . S
C403 O387 1.284 . S
C403 O390 1.250 . S
C404 Gd337 2.828 . S
C404 O386 1.258 . S
C404 O391 1.252 . S
C404 C405 1.497 . S
C405 C404 1.497 . S
C405 C406 1.395 . S
C405 C407 1.380 . S
C406 C405 1.395 . S
C406 C409 1.398 . S
C406 H416 0.930 . S
C407 C405 1.380 . S
C407 C408 1.391 . S
C407 H417 0.930 . S
C408 C407 1.391 . S
C408 C410 1.387 . S
C409 C406 1.398 . S
C409 C410 1.380 . S
C409 H418 0.930 . S
C410 C408 1.387 . S
C410 C409 1.380 . S
C410 H419 0.930 . S
C411 O388 1.254 . S
C411 O389 1.268 . S
H412 C397 0.930 . S
H413 C398 0.930 . S
H414 C400 0.930 . S
H415 C401 0.930 . S
H416 C406 0.930 . S
H417 C407 0.930 . S
H418 C409 0.930 . S
H419 C410 0.930 . S
Gd420 N451 2.661 . S
Gd420 N457 2.601 . S
Gd420 O464 2.545 1_545 S
Gd420 O465 2.606 . S
Gd420 O467 2.429 . S
Gd420 O468 2.545 . S
Gd420 O469 2.412 1_545 S
Gd420 O471 2.362 . S
Gd420 O472 2.324 . S
Gd420 C479 2.828 1_545 S
Gd421 N430 2.661 . S
Gd421 N434 2.601 . S
Gd421 O465 2.362 . S
Gd421 O466 2.324 . S
Gd421 O470 2.545 . S
Gd421 O471 2.606 . S
Gd421 O473 2.429 . S
Gd421 O474 2.545 . S
Gd421 O475 2.412 . S
Gd421 C488 2.828 . S
C422 C425 1.417 . S
C422 C427 1.431 1_455 S
C422 C428 1.412 1_455 S
C423 C426 1.437 1_655 S
C423 C427 1.317 . S
C423 H442 0.929 . S
C424 C425 1.426 . S
C424 C426 1.413 . S
C424 N434 1.359 . S
C425 C422 1.417 . S
C425 C424 1.426 . S
C425 N430 1.350 . S
C426 C423 1.437 1_455 S
C426 C424 1.413 . S
C426 C436 1.391 . S
C427 C422 1.431 1_655 S
C427 C423 1.317 . S
C427 H438 0.930 . S
C428 C422 1.412 1_655 S
C428 C429 1.355 1_655 S
C428 H440 0.930 . S
C429 C428 1.355 1_455 S
C429 C431 1.402 . S
C429 H441 0.930 . S
N430 Gd421 2.661 . S
N430 C425 1.350 . S
N430 C431 1.307 . S
C431 C429 1.402 . S
C431 N430 1.307 . S
C431 H432 0.930 . S
H432 C431 0.930 . S
C433 N434 1.334 . S
C433 C435 1.394 . S
C433 H437 0.930 . S
N434 Gd421 2.601 . S
N434 C424 1.359 . S
N434 C433 1.334 . S
C435 C433 1.394 . S
C435 C436 1.359 . S
C435 H447 0.930 . S
C436 C426 1.391 . S
C436 C435 1.359 . S
C436 H448 0.929 . S
H437 C433 0.930 . S
H438 C427 0.930 . S
H439 C456 0.930 . S
H440 C428 0.930 . S
H441 C429 0.930 . S
H442 C423 0.929 . S
H443 C461 0.930 . S
H444 C452 0.930 . S
H445 C453 0.930 . S
H446 C477 0.929 . S
H447 C435 0.930 . S
H448 C436 0.929 . S
H449 C478 0.930 . S
H450 C459 0.930 . S
N451 Gd420 2.661 . S
N451 C455 1.350 . S
N451 C456 1.307 . S
C452 H444 0.930 . S
C452 C453 1.355 . S
C452 C454 1.412 . S
C453 H445 0.930 . S
C453 C452 1.355 . S
C453 C456 1.402 . S
C454 C452 1.412 . S
C454 C455 1.417 . S
C454 C478 1.431 . S
C455 N451 1.350 . S
C455 C454 1.417 . S
C455 C458 1.426 . S
C456 H439 0.930 . S
C456 N451 1.307 . S
C456 C453 1.402 . S
N457 Gd420 2.601 . S
N457 C458 1.359 . S
N457 C461 1.334 . S
C458 C455 1.426 . S
C458 N457 1.359 . S
C458 C462 1.413 . S
C459 H450 0.930 . S
C459 C460 1.359 . S
C459 C461 1.394 . S
C460 C459 1.359 . S
C460 C462 1.391 . S
C460 H463 0.926 1_545 S
C461 H443 0.930 . S
C461 N457 1.334 . S
C461 C459 1.394 . S
C462 C458 1.413 . S
C462 C460 1.391 . S
C462 C477 1.437 . S
H463 C460 0.926 1_565 S
O464 Gd420 2.545 1_565 S
O464 C479 1.258 . S
O465 Gd420 2.606 . S
O465 Gd421 2.362 . S
O465 C476 1.284 . S
O466 Gd421 2.324 . S
O466 C486 1.254 . S
O467 Gd420 2.429 . S
O467 C486 1.268 . S
O468 Gd420 2.545 . S
O468 C476 1.250 . S
O469 Gd420 2.412 1_565 S
O469 C479 1.252 . S
O470 Gd421 2.545 . S
O470 C488 1.258 . S
O471 Gd420 2.362 . S
O471 Gd421 2.606 . S
O471 C487 1.284 . S
O472 Gd420 2.324 . S
O472 C495 1.254 . S
O473 Gd421 2.429 . S
O473 C495 1.268 . S
O474 Gd421 2.545 . S
O474 C487 1.250 . S
O475 Gd421 2.412 . S
O475 C488 1.252 . S
C476 O465 1.284 . S
C476 O468 1.250 . S
C477 H446 0.929 . S
C477 C462 1.437 . S
C477 C478 1.317 . S
C478 H449 0.930 . S
C478 C454 1.431 . S
C478 C477 1.317 . S
C479 Gd420 2.828 1_565 S
C479 O464 1.258 . S
C479 O469 1.252 . S
C479 C480 1.497 . S
C480 C479 1.497 . S
C480 C481 1.395 . S
C480 C482 1.380 . S
C481 C480 1.395 . S
C481 C484 1.398 . S
C481 H496 0.930 . S
C482 C480 1.380 . S
C482 C483 1.391 . S
C482 H497 0.930 . S
C483 C482 1.391 . S
C483 C485 1.387 . S
C484 C481 1.398 . S
C484 C485 1.380 . S
C484 H498 0.930 . S
C485 C483 1.387 . S
C485 C484 1.380 . S
C485 H499 0.930 . S
C486 O466 1.254 . S
C486 O467 1.268 . S
C487 O471 1.284 . S
C487 O474 1.250 . S
C488 Gd421 2.828 . S
C488 O470 1.258 . S
C488 O475 1.252 . S
C488 C489 1.497 . S
C489 C488 1.497 . S
C489 C490 1.395 . S
C489 C491 1.380 . S
C490 C489 1.395 . S
C490 C493 1.398 . S
C490 H500 0.930 . S
C491 C489 1.380 . S
C491 C492 1.391 . S
C491 H501 0.930 . S
C492 C491 1.391 . S
C492 C494 1.387 . S
C493 C490 1.398 . S
C493 C494 1.380 . S
C493 H502 0.930 . S
C494 C492 1.387 . S
C494 C493 1.380 . S
C494 H503 0.930 . S
C495 O472 1.254 . S
C495 O473 1.268 . S
H496 C481 0.930 . S
H497 C482 0.930 . S
H498 C484 0.930 . S
H499 C485 0.930 . S
H500 C490 0.930 . S
H501 C491 0.930 . S
H502 C493 0.930 . S
H503 C494 0.930 . S
Gd504 N535 2.661 . S
Gd504 N541 2.601 . S
Gd504 O548 2.545 1_545 S
Gd504 O549 2.606 . S
Gd504 O551 2.429 . S
Gd504 O552 2.545 . S
Gd504 O553 2.412 1_545 S
Gd504 O555 2.362 . S
Gd504 O556 2.324 . S
Gd504 C563 2.828 1_545 S
Gd505 N514 2.661 . S
Gd505 N518 2.601 . S
Gd505 O549 2.362 . S
Gd505 O550 2.324 . S
Gd505 O554 2.545 . S
Gd505 O555 2.606 . S
Gd505 O557 2.429 . S
Gd505 O558 2.545 . S
Gd505 O559 2.412 . S
Gd505 C572 2.828 . S
C506 C509 1.417 . S
C506 C511 1.431 1_655 S
C506 C512 1.412 1_655 S
C507 C510 1.437 1_455 S
C507 C511 1.317 . S
C507 H526 0.929 . S
C508 C509 1.426 . S
C508 C510 1.413 . S
C508 N518 1.359 . S
C509 C506 1.417 . S
C509 C508 1.426 . S
C509 N514 1.350 . S
C510 C507 1.437 1_655 S
C510 C508 1.413 . S
C510 C520 1.391 . S
C511 C506 1.431 1_455 S
C511 C507 1.317 . S
C511 H522 0.930 . S
C512 C506 1.412 1_455 S
C512 C513 1.355 1_455 S
C512 H524 0.930 . S
C513 C512 1.355 1_655 S
C513 C515 1.402 . S
C513 H525 0.930 . S
N514 Gd505 2.661 . S
N514 C509 1.350 . S
N514 C515 1.307 . S
C515 C513 1.402 . S
C515 N514 1.307 . S
C515 H516 0.930 . S
H516 C515 0.930 . S
C517 N518 1.334 . S
C517 C519 1.394 . S
C517 H521 0.930 . S
N518 Gd505 2.601 . S
N518 C508 1.359 . S
N518 C517 1.334 . S
C519 C517 1.394 . S
C519 C520 1.359 . S
C519 H531 0.930 . S
C520 C510 1.391 . S
C520 C519 1.359 . S
C520 H532 0.929 . S
H521 C517 0.930 . S
H522 C511 0.930 . S
H523 C540 0.930 . S
H524 C512 0.930 . S
H525 C513 0.930 . S
H526 C507 0.929 . S
H527 C545 0.930 . S
H528 C536 0.930 . S
H529 C537 0.930 . S
H530 C561 0.929 . S
H531 C519 0.930 . S
H532 C520 0.929 . S
H533 C562 0.930 . S
H534 C543 0.930 . S
N535 Gd504 2.661 . S
N535 C539 1.350 . S
N535 C540 1.307 . S
C536 H528 0.930 . S
C536 C537 1.355 . S
C536 C538 1.412 . S
C537 H529 0.930 . S
C537 C536 1.355 . S
C537 C540 1.402 . S
C538 C536 1.412 . S
C538 C539 1.417 . S
C538 C562 1.431 . S
C539 N535 1.350 . S
C539 C538 1.417 . S
C539 C542 1.426 . S
C540 H523 0.930 . S
C540 N535 1.307 . S
C540 C537 1.402 . S
N541 Gd504 2.601 . S
N541 C542 1.359 . S
N541 C545 1.334 . S
C542 C539 1.426 . S
C542 N541 1.359 . S
C542 C546 1.413 . S
C543 H534 0.930 . S
C543 C544 1.359 . S
C543 C545 1.394 . S
C544 C543 1.359 . S
C544 C546 1.391 . S
C544 H547 0.926 1_545 S
C545 H527 0.930 . S
C545 N541 1.334 . S
C545 C543 1.394 . S
C546 C542 1.413 . S
C546 C544 1.391 . S
C546 C561 1.437 . S
H547 C544 0.926 1_565 S
O548 Gd504 2.545 1_565 S
O548 C563 1.258 . S
O549 Gd504 2.606 . S
O549 Gd505 2.362 . S
O549 C560 1.284 . S
O550 Gd505 2.324 . S
O550 C570 1.254 . S
O551 Gd504 2.429 . S
O551 C570 1.268 . S
O552 Gd504 2.545 . S
O552 C560 1.250 . S
O553 Gd504 2.412 1_565 S
O553 C563 1.252 . S
O554 Gd505 2.545 . S
O554 C572 1.258 . S
O555 Gd504 2.362 . S
O555 Gd505 2.606 . S
O555 C571 1.284 . S
O556 Gd504 2.324 . S
O556 C579 1.254 . S
O557 Gd505 2.429 . S
O557 C579 1.268 . S
O558 Gd505 2.545 . S
O558 C571 1.250 . S
O559 Gd505 2.412 . S
O559 C572 1.252 . S
C560 O549 1.284 . S
C560 O552 1.250 . S
C561 H530 0.929 . S
C561 C546 1.437 . S
C561 C562 1.317 . S
C562 H533 0.930 . S
C562 C538 1.431 . S
C562 C561 1.317 . S
C563 Gd504 2.828 1_565 S
C563 O548 1.258 . S
C563 O553 1.252 . S
C563 C564 1.497 . S
C564 C563 1.497 . S
C564 C565 1.395 . S
C564 C566 1.380 . S
C565 C564 1.395 . S
C565 C568 1.398 . S
C565 H580 0.930 . S
C566 C564 1.380 . S
C566 C567 1.391 . S
C566 H581 0.930 . S
C567 C566 1.391 . S
C567 C569 1.387 . S
C568 C565 1.398 . S
C568 C569 1.380 . S
C568 H582 0.930 . S
C569 C567 1.387 . S
C569 C568 1.380 . S
C569 H583 0.930 . S
C570 O550 1.254 . S
C570 O551 1.268 . S
C571 O555 1.284 . S
C571 O558 1.250 . S
C572 Gd505 2.828 . S
C572 O554 1.258 . S
C572 O559 1.252 . S
C572 C573 1.497 . S
C573 C572 1.497 . S
C573 C574 1.395 . S
C573 C575 1.380 . S
C574 C573 1.395 . S
C574 C577 1.398 . S
C574 H584 0.930 . S
C575 C573 1.380 . S
C575 C576 1.391 . S
C575 H585 0.930 . S
C576 C575 1.391 . S
C576 C578 1.387 . S
C577 C574 1.398 . S
C577 C578 1.380 . S
C577 H586 0.930 . S
C578 C576 1.387 . S
C578 C577 1.380 . S
C578 H587 0.930 . S
C579 O556 1.254 . S
C579 O557 1.268 . S
H580 C565 0.930 . S
H581 C566 0.930 . S
H582 C568 0.930 . S
H583 C569 0.930 . S
H584 C574 0.930 . S
H585 C575 0.930 . S
H586 C577 0.930 . S
H587 C578 0.930 . S
Gd588 N619 2.661 . S
Gd588 N625 2.601 . S
Gd588 O632 2.545 1_565 S
Gd588 O633 2.606 . S
Gd588 O635 2.429 . S
Gd588 O636 2.545 . S
Gd588 O637 2.412 1_565 S
Gd588 O639 2.362 . S
Gd588 O640 2.324 . S
Gd588 C647 2.828 1_565 S
Gd589 N598 2.661 . S
Gd589 N602 2.601 . S
Gd589 O633 2.362 . S
Gd589 O634 2.324 . S
Gd589 O638 2.545 . S
Gd589 O639 2.606 . S
Gd589 O641 2.429 . S
Gd589 O642 2.545 . S
Gd589 O643 2.412 . S
Gd589 C656 2.828 . S
C590 C593 1.417 . S
C590 C595 1.431 1_455 S
C590 C596 1.412 1_455 S
C591 C594 1.437 1_655 S
C591 C595 1.317 . S
C591 H610 0.929 . S
C592 C593 1.426 . S
C592 C594 1.413 . S
C592 N602 1.359 . S
C593 C590 1.417 . S
C593 C592 1.426 . S
C593 N598 1.350 . S
C594 C591 1.437 1_455 S
C594 C592 1.413 . S
C594 C604 1.391 . S
C595 C590 1.431 1_655 S
C595 C591 1.317 . S
C595 H606 0.930 . S
C596 C590 1.412 1_655 S
C596 C597 1.355 1_655 S
C596 H608 0.930 . S
C597 C596 1.355 1_455 S
C597 C599 1.402 . S
C597 H609 0.930 . S
N598 Gd589 2.661 . S
N598 C593 1.350 . S
N598 C599 1.307 . S
C599 C597 1.402 . S
C599 N598 1.307 . S
C599 H600 0.930 . S
H600 C599 0.930 . S
C601 N602 1.334 . S
C601 C603 1.394 . S
C601 H605 0.930 . S
N602 Gd589 2.601 . S
N602 C592 1.359 . S
N602 C601 1.334 . S
C603 C601 1.394 . S
C603 C604 1.359 . S
C603 H615 0.930 . S
C604 C594 1.391 . S
C604 C603 1.359 . S
C604 H616 0.929 . S
H605 C601 0.930 . S
H606 C595 0.930 . S
H607 C624 0.930 . S
H608 C596 0.930 . S
H609 C597 0.930 . S
H610 C591 0.929 . S
H611 C629 0.930 . S
H612 C620 0.930 . S
H613 C621 0.930 . S
H614 C645 0.929 . S
H615 C603 0.930 . S
H616 C604 0.929 . S
H617 C646 0.930 . S
H618 C627 0.930 . S
N619 Gd588 2.661 . S
N619 C623 1.350 . S
N619 C624 1.307 . S
C620 H612 0.930 . S
C620 C621 1.355 . S
C620 C622 1.412 . S
C621 H613 0.930 . S
C621 C620 1.355 . S
C621 C624 1.402 . S
C622 C620 1.412 . S
C622 C623 1.417 . S
C622 C646 1.431 . S
C623 N619 1.350 . S
C623 C622 1.417 . S
C623 C626 1.426 . S
C624 H607 0.930 . S
C624 N619 1.307 . S
C624 C621 1.402 . S
N625 Gd588 2.601 . S
N625 C626 1.359 . S
N625 C629 1.334 . S
C626 C623 1.426 . S
C626 N625 1.359 . S
C626 C630 1.413 . S
C627 H618 0.930 . S
C627 C628 1.359 . S
C627 C629 1.394 . S
C628 C627 1.359 . S
C628 C630 1.391 . S
C628 H631 0.926 1_565 S
C629 H611 0.930 . S
C629 N625 1.334 . S
C629 C627 1.394 . S
C630 C626 1.413 . S
C630 C628 1.391 . S
C630 C645 1.437 . S
H631 C628 0.926 1_545 S
O632 Gd588 2.545 1_545 S
O632 C647 1.258 . S
O633 Gd588 2.606 . S
O633 Gd589 2.362 . S
O633 C644 1.284 . S
O634 Gd589 2.324 . S
O634 C654 1.254 . S
O635 Gd588 2.429 . S
O635 C654 1.268 . S
O636 Gd588 2.545 . S
O636 C644 1.250 . S
O637 Gd588 2.412 1_545 S
O637 C647 1.252 . S
O638 Gd589 2.545 . S
O638 C656 1.258 . S
O639 Gd588 2.362 . S
O639 Gd589 2.606 . S
O639 C655 1.284 . S
O640 Gd588 2.324 . S
O640 C663 1.254 . S
O641 Gd589 2.429 . S
O641 C663 1.268 . S
O642 Gd589 2.545 . S
O642 C655 1.250 . S
O643 Gd589 2.412 . S
O643 C656 1.252 . S
C644 O633 1.284 . S
C644 O636 1.250 . S
C645 H614 0.929 . S
C645 C630 1.437 . S
C645 C646 1.317 . S
C646 H617 0.930 . S
C646 C622 1.431 . S
C646 C645 1.317 . S
C647 Gd588 2.828 1_545 S
C647 O632 1.258 . S
C647 O637 1.252 . S
C647 C648 1.497 . S
C648 C647 1.497 . S
C648 C649 1.395 . S
C648 C650 1.380 . S
C649 C648 1.395 . S
C649 C652 1.398 . S
C649 H664 0.930 . S
C650 C648 1.380 . S
C650 C651 1.391 . S
C650 H665 0.930 . S
C651 C650 1.391 . S
C651 C653 1.387 . S
C652 C649 1.398 . S
C652 C653 1.380 . S
C652 H666 0.930 . S
C653 C651 1.387 . S
C653 C652 1.380 . S
C653 H667 0.930 . S
C654 O634 1.254 . S
C654 O635 1.268 . S
C655 O639 1.284 . S
C655 O642 1.250 . S
C656 Gd589 2.828 . S
C656 O638 1.258 . S
C656 O643 1.252 . S
C656 C657 1.497 . S
C657 C656 1.497 . S
C657 C658 1.395 . S
C657 C659 1.380 . S
C658 C657 1.395 . S
C658 C661 1.398 . S
C658 H668 0.930 . S
C659 C657 1.380 . S
C659 C660 1.391 . S
C659 H669 0.930 . S
C660 C659 1.391 . S
C660 C662 1.387 . S
C661 C658 1.398 . S
C661 C662 1.380 . S
C661 H670 0.930 . S
C662 C660 1.387 . S
C662 C661 1.380 . S
C662 H671 0.930 . S
C663 O640 1.254 . S
C663 O641 1.268 . S
H664 C649 0.930 . S
H665 C650 0.930 . S
H666 C652 0.930 . S
H667 C653 0.930 . S
H668 C658 0.930 . S
H669 C659 0.930 . S
H670 C661 0.930 . S
H671 C662 0.930 . S
Gd672 N703 2.661 . S
Gd672 N709 2.601 . S
Gd672 O716 2.545 . S
Gd672 O717 2.606 . S
Gd672 O719 2.429 . S
Gd672 O720 2.545 . S
Gd672 O721 2.412 . S
Gd672 O723 2.362 . S
Gd672 O724 2.324 . S
Gd672 C731 2.828 . S
Gd673 N682 2.661 . S
Gd673 N686 2.601 . S
Gd673 O717 2.362 . S
Gd673 O718 2.324 . S
Gd673 O722 2.545 . S
Gd673 O723 2.606 . S
Gd673 O725 2.429 . S
Gd673 O726 2.545 . S
Gd673 O727 2.412 . S
Gd673 C740 2.828 . S
C674 C677 1.417 . S
C674 C679 1.431 . S
C674 C680 1.412 . S
C675 C678 1.437 . S
C675 C679 1.317 . S
C675 H694 0.929 . S
C676 C677 1.426 . S
C676 C678 1.413 . S
C676 N686 1.359 . S
C677 C674 1.417 . S
C677 C676 1.426 . S
C677 N682 1.350 . S
C678 C675 1.437 . S
C678 C676 1.413 . S
C678 C688 1.391 . S
C679 C674 1.431 . S
C679 C675 1.317 . S
C679 H690 0.930 . S
C680 C674 1.412 . S
C680 C681 1.355 . S
C680 H692 0.930 . S
C681 C680 1.355 . S
C681 C683 1.402 . S
C681 H693 0.930 . S
N682 Gd673 2.661 . S
N682 C677 1.350 . S
N682 C683 1.307 . S
C683 C681 1.402 . S
C683 N682 1.307 . S
C683 H684 0.930 . S
H684 C683 0.930 . S
C685 N686 1.334 . S
C685 C687 1.394 . S
C685 H689 0.930 . S
N686 Gd673 2.601 . S
N686 C676 1.359 . S
N686 C685 1.334 . S
C687 C685 1.394 . S
C687 C688 1.359 . S
C687 H699 0.930 . S
C688 C678 1.391 . S
C688 C687 1.359 . S
C688 H700 0.929 . S
H689 C685 0.930 . S
H690 C679 0.930 . S
H691 C708 0.930 . S
H692 C680 0.930 . S
H693 C681 0.930 . S
H694 C675 0.929 . S
H695 C713 0.930 . S
H696 C704 0.930 . S
H697 C705 0.930 . S
H698 C729 0.929 . S
H699 C687 0.930 . S
H700 C688 0.929 . S
H701 C730 0.930 . S
H702 C711 0.930 . S
N703 Gd672 2.661 . S
N703 C707 1.350 . S
N703 C708 1.307 . S
C704 H696 0.930 . S
C704 C705 1.355 . S
C704 C706 1.412 . S
C705 H697 0.930 . S
C705 C704 1.355 . S
C705 C708 1.402 . S
C706 C704 1.412 . S
C706 C707 1.417 . S
C706 C730 1.431 . S
C707 N703 1.350 . S
C707 C706 1.417 . S
C707 C710 1.426 . S
C708 H691 0.930 . S
C708 N703 1.307 . S
C708 C705 1.402 . S
N709 Gd672 2.601 . S
N709 C710 1.359 . S
N709 C713 1.334 . S
C710 C707 1.426 . S
C710 N709 1.359 . S
C710 C714 1.413 . S
C711 H702 0.930 . S
C711 C712 1.359 . S
C711 C713 1.394 . S
C712 C711 1.359 . S
C712 C714 1.391 . S
C712 H715 0.929 . S
C713 H695 0.930 . S
C713 N709 1.334 . S
C713 C711 1.394 . S
C714 C710 1.413 . S
C714 C712 1.391 . S
C714 C729 1.437 . S
H715 C712 0.929 . S
O716 Gd672 2.545 . S
O716 C731 1.258 . S
O717 Gd672 2.606 . S
O717 Gd673 2.362 . S
O717 C728 1.284 . S
O718 Gd673 2.324 . S
O718 C738 1.254 . S
O719 Gd672 2.429 . S
O719 C738 1.268 . S
O720 Gd672 2.545 . S
O720 C728 1.250 . S
O721 Gd672 2.412 . S
O721 C731 1.252 . S
O722 Gd673 2.545 . S
O722 C740 1.258 . S
O723 Gd672 2.362 . S
O723 Gd673 2.606 . S
O723 C739 1.284 . S
O724 Gd672 2.324 . S
O724 C747 1.254 . S
O725 Gd673 2.429 . S
O725 C747 1.268 . S
O726 Gd673 2.545 . S
O726 C739 1.250 . S
O727 Gd673 2.412 . S
O727 C740 1.252 . S
C728 O717 1.284 . S
C728 O720 1.250 . S
C729 H698 0.929 . S
C729 C714 1.437 . S
C729 C730 1.317 . S
C730 H701 0.930 . S
C730 C706 1.431 . S
C730 C729 1.317 . S
C731 Gd672 2.828 . S
C731 O716 1.258 . S
C731 O721 1.252 . S
C731 C732 1.497 . S
C732 C731 1.497 . S
C732 C733 1.395 . S
C732 C734 1.380 . S
C733 C732 1.395 . S
C733 C736 1.398 . S
C733 H748 0.930 . S
C734 C732 1.380 . S
C734 C735 1.391 . S
C734 H749 0.930 . S
C735 C734 1.391 . S
C735 C737 1.387 . S
C736 C733 1.398 . S
C736 C737 1.380 . S
C736 H750 0.930 . S
C737 C735 1.387 . S
C737 C736 1.380 . S
C737 H751 0.930 1_565 S
C738 O718 1.254 . S
C738 O719 1.268 . S
C739 O723 1.284 . S
C739 O726 1.250 . S
C740 Gd673 2.828 . S
C740 O722 1.258 . S
C740 O727 1.252 . S
C740 C741 1.497 . S
C741 C740 1.497 . S
C741 C742 1.395 . S
C741 C743 1.380 . S
C742 C741 1.395 . S
C742 C745 1.398 . S
C742 H752 0.930 . S
C743 C741 1.380 . S
C743 C744 1.391 . S
C743 H753 0.930 . S
C744 C743 1.391 . S
C744 C746 1.387 . S
C745 C742 1.398 . S
C745 C746 1.380 . S
C745 H754 0.930 . S
C746 C744 1.387 . S
C746 C745 1.380 . S
C746 H755 0.930 . S
C747 O724 1.254 . S
C747 O725 1.268 . S
H748 C733 0.930 . S
H749 C734 0.930 . S
H750 C736 0.930 . S
H751 C737 0.930 1_545 S
H752 C742 0.930 . S
H753 C743 0.930 . S
H754 C745 0.930 . S
H755 C746 0.930 . S
Gd756 N787 2.661 . S
Gd756 N793 2.601 . S
Gd756 O800 2.545 . S
Gd756 O801 2.606 . S
Gd756 O803 2.429 . S
Gd756 O804 2.545 . S
Gd756 O805 2.412 . S
Gd756 O807 2.362 . S
Gd756 O808 2.324 . S
Gd756 C815 2.828 . S
Gd757 N766 2.661 . S
Gd757 N770 2.601 . S
Gd757 O801 2.362 . S
Gd757 O802 2.324 . S
Gd757 O806 2.545 . S
Gd757 O807 2.606 . S
Gd757 O809 2.429 . S
Gd757 O810 2.545 . S
Gd757 O811 2.412 . S
Gd757 C824 2.828 . S
C758 C761 1.417 . S
C758 C763 1.431 . S
C758 C764 1.412 . S
C759 C762 1.437 . S
C759 C763 1.317 . S
C759 H778 0.929 . S
C760 C761 1.426 . S
C760 C762 1.413 . S
C760 N770 1.359 . S
C761 C758 1.417 . S
C761 C760 1.426 . S
C761 N766 1.350 . S
C762 C759 1.437 . S
C762 C760 1.413 . S
C762 C772 1.391 . S
C763 C758 1.431 . S
C763 C759 1.317 . S
C763 H774 0.930 . S
C764 C758 1.412 . S
C764 C765 1.355 . S
C764 H776 0.930 . S
C765 C764 1.355 . S
C765 C767 1.402 . S
C765 H777 0.930 . S
N766 Gd757 2.661 . S
N766 C761 1.350 . S
N766 C767 1.307 . S
C767 C765 1.402 . S
C767 N766 1.307 . S
C767 H768 0.930 . S
H768 C767 0.930 . S
C769 N770 1.334 . S
C769 C771 1.394 . S
C769 H773 0.930 . S
N770 Gd757 2.601 . S
N770 C760 1.359 . S
N770 C769 1.334 . S
C771 C769 1.394 . S
C771 C772 1.359 . S
C771 H783 0.930 . S
C772 C762 1.391 . S
C772 C771 1.359 . S
C772 H784 0.929 . S
H773 C769 0.930 . S
H774 C763 0.930 . S
H775 C792 0.930 . S
H776 C764 0.930 . S
H777 C765 0.930 . S
H778 C759 0.929 . S
H779 C797 0.930 . S
H780 C788 0.930 . S
H781 C789 0.930 . S
H782 C813 0.929 . S
H783 C771 0.930 . S
H784 C772 0.929 . S
H785 C814 0.930 . S
H786 C795 0.930 . S
N787 Gd756 2.661 . S
N787 C791 1.350 . S
N787 C792 1.307 . S
C788 H780 0.930 . S
C788 C789 1.355 . S
C788 C790 1.412 . S
C789 H781 0.930 . S
C789 C788 1.355 . S
C789 C792 1.402 . S
C790 C788 1.412 . S
C790 C791 1.417 . S
C790 C814 1.431 . S
C791 N787 1.350 . S
C791 C790 1.417 . S
C791 C794 1.426 . S
C792 H775 0.930 . S
C792 N787 1.307 . S
C792 C789 1.402 . S
N793 Gd756 2.601 . S
N793 C794 1.359 . S
N793 C797 1.334 . S
C794 C791 1.426 . S
C794 N793 1.359 . S
C794 C798 1.413 . S
C795 H786 0.930 . S
C795 C796 1.359 . S
C795 C797 1.394 . S
C796 C795 1.359 . S
C796 C798 1.391 . S
C796 H799 0.929 . S
C797 H779 0.930 . S
C797 N793 1.334 . S
C797 C795 1.394 . S
C798 C794 1.413 . S
C798 C796 1.391 . S
C798 C813 1.437 . S
H799 C796 0.929 . S
O800 Gd756 2.545 . S
O800 C815 1.258 . S
O801 Gd756 2.606 . S
O801 Gd757 2.362 . S
O801 C812 1.284 . S
O802 Gd757 2.324 . S
O802 C822 1.254 . S
O803 Gd756 2.429 . S
O803 C822 1.268 . S
O804 Gd756 2.545 . S
O804 C812 1.250 . S
O805 Gd756 2.412 . S
O805 C815 1.252 . S
O806 Gd757 2.545 . S
O806 C824 1.258 . S
O807 Gd756 2.362 . S
O807 Gd757 2.606 . S
O807 C823 1.284 . S
O808 Gd756 2.324 . S
O808 C831 1.254 . S
O809 Gd757 2.429 . S
O809 C831 1.268 . S
O810 Gd757 2.545 . S
O810 C823 1.250 . S
O811 Gd757 2.412 . S
O811 C824 1.252 . S
C812 O801 1.284 . S
C812 O804 1.250 . S
C813 H782 0.929 . S
C813 C798 1.437 . S
C813 C814 1.317 . S
C814 H785 0.930 . S
C814 C790 1.431 . S
C814 C813 1.317 . S
C815 Gd756 2.828 . S
C815 O800 1.258 . S
C815 O805 1.252 . S
C815 C816 1.497 . S
C816 C815 1.497 . S
C816 C817 1.395 . S
C816 C818 1.380 . S
C817 C816 1.395 . S
C817 C820 1.398 . S
C817 H832 0.930 . S
C818 C816 1.380 . S
C818 C819 1.391 . S
C818 H833 0.930 . S
C819 C818 1.391 . S
C819 C821 1.387 . S
C820 C817 1.398 . S
C820 C821 1.380 . S
C820 H834 0.930 . S
C821 C819 1.387 . S
C821 C820 1.380 . S
C821 H835 0.930 1_545 S
C822 O802 1.254 . S
C822 O803 1.268 . S
C823 O807 1.284 . S
C823 O810 1.250 . S
C824 Gd757 2.828 . S
C824 O806 1.258 . S
C824 O811 1.252 . S
C824 C825 1.497 . S
C825 C824 1.497 . S
C825 C826 1.395 . S
C825 C827 1.380 . S
C826 C825 1.395 . S
C826 C829 1.398 . S
C826 H836 0.930 . S
C827 C825 1.380 . S
C827 C828 1.391 . S
C827 H837 0.930 . S
C828 C827 1.391 . S
C828 C830 1.387 . S
C829 C826 1.398 . S
C829 C830 1.380 . S
C829 H838 0.930 . S
C830 C828 1.387 . S
C830 C829 1.380 . S
C830 H839 0.930 . S
C831 O808 1.254 . S
C831 O809 1.268 . S
H832 C817 0.930 . S
H833 C818 0.930 . S
H834 C820 0.930 . S
H835 C821 0.930 1_565 S
H836 C826 0.930 . S
H837 C827 0.930 . S
H838 C829 0.930 . S
H839 C830 0.930 . S
Gd840 N871 2.661 . S
Gd840 N877 2.601 . S
Gd840 O884 2.545 . S
Gd840 O885 2.606 . S
Gd840 O887 2.429 . S
Gd840 O888 2.545 . S
Gd840 O889 2.412 . S
Gd840 O891 2.362 . S
Gd840 O892 2.324 . S
Gd840 C899 2.828 . S
Gd841 N850 2.661 . S
Gd841 N854 2.601 . S
Gd841 O885 2.362 . S
Gd841 O886 2.324 . S
Gd841 O890 2.545 . S
Gd841 O891 2.606 . S
Gd841 O893 2.429 . S
Gd841 O894 2.545 . S
Gd841 O895 2.412 . S
Gd841 C908 2.828 . S
C842 C845 1.417 . S
C842 C847 1.431 . S
C842 C848 1.412 . S
C843 C846 1.437 . S
C843 C847 1.317 . S
C843 H862 0.929 . S
C844 C845 1.426 . S
C844 C846 1.413 . S
C844 N854 1.359 . S
C845 C842 1.417 . S
C845 C844 1.426 . S
C845 N850 1.350 . S
C846 C843 1.437 . S
C846 C844 1.413 . S
C846 C856 1.391 . S
C847 C842 1.431 . S
C847 C843 1.317 . S
C847 H858 0.930 . S
C848 C842 1.412 . S
C848 C849 1.355 . S
C848 H860 0.930 . S
C849 C848 1.355 . S
C849 C851 1.402 . S
C849 H861 0.930 . S
N850 Gd841 2.661 . S
N850 C845 1.350 . S
N850 C851 1.307 . S
C851 C849 1.402 . S
C851 N850 1.307 . S
C851 H852 0.930 . S
H852 C851 0.930 . S
C853 N854 1.334 . S
C853 C855 1.394 . S
C853 H857 0.930 . S
N854 Gd841 2.601 . S
N854 C844 1.359 . S
N854 C853 1.334 . S
C855 C853 1.394 . S
C855 C856 1.359 . S
C855 H867 0.930 . S
C856 C846 1.391 . S
C856 C855 1.359 . S
C856 H868 0.929 . S
H857 C853 0.930 . S
H858 C847 0.930 . S
H859 C876 0.930 . S
H860 C848 0.930 . S
H861 C849 0.930 . S
H862 C843 0.929 . S
H863 C881 0.930 . S
H864 C872 0.930 . S
H865 C873 0.930 . S
H866 C897 0.929 . S
H867 C855 0.930 . S
H868 C856 0.929 . S
H869 C898 0.930 . S
H870 C879 0.930 . S
N871 Gd840 2.661 . S
N871 C875 1.350 . S
N871 C876 1.307 . S
C872 H864 0.930 . S
C872 C873 1.355 . S
C872 C874 1.412 . S
C873 H865 0.930 . S
C873 C872 1.355 . S
C873 C876 1.402 . S
C874 C872 1.412 . S
C874 C875 1.417 . S
C874 C898 1.431 . S
C875 N871 1.350 . S
C875 C874 1.417 . S
C875 C878 1.426 . S
C876 H859 0.930 . S
C876 N871 1.307 . S
C876 C873 1.402 . S
N877 Gd840 2.601 . S
N877 C878 1.359 . S
N877 C881 1.334 . S
C878 C875 1.426 . S
C878 N877 1.359 . S
C878 C882 1.413 . S
C879 H870 0.930 . S
C879 C880 1.359 . S
C879 C881 1.394 . S
C880 C879 1.359 . S
C880 C882 1.391 . S
C880 H883 0.929 . S
C881 H863 0.930 . S
C881 N877 1.334 . S
C881 C879 1.394 . S
C882 C878 1.413 . S
C882 C880 1.391 . S
C882 C897 1.437 . S
H883 C880 0.929 . S
O884 Gd840 2.545 . S
O884 C899 1.258 . S
O885 Gd840 2.606 . S
O885 Gd841 2.362 . S
O885 C896 1.284 . S
O886 Gd841 2.324 . S
O886 C906 1.254 . S
O887 Gd840 2.429 . S
O887 C906 1.268 . S
O888 Gd840 2.545 . S
O888 C896 1.250 . S
O889 Gd840 2.412 . S
O889 C899 1.252 . S
O890 Gd841 2.545 . S
O890 C908 1.258 . S
O891 Gd840 2.362 . S
O891 Gd841 2.606 . S
O891 C907 1.284 . S
O892 Gd840 2.324 . S
O892 C915 1.254 . S
O893 Gd841 2.429 . S
O893 C915 1.268 . S
O894 Gd841 2.545 . S
O894 C907 1.250 . S
O895 Gd841 2.412 . S
O895 C908 1.252 . S
C896 O885 1.284 . S
C896 O888 1.250 . S
C897 H866 0.929 . S
C897 C882 1.437 . S
C897 C898 1.317 . S
C898 H869 0.930 . S
C898 C874 1.431 . S
C898 C897 1.317 . S
C899 Gd840 2.828 . S
C899 O884 1.258 . S
C899 O889 1.252 . S
C899 C900 1.497 . S
C900 C899 1.497 . S
C900 C901 1.395 . S
C900 C902 1.380 . S
C901 C900 1.395 . S
C901 C904 1.398 . S
C901 H916 0.930 . S
C902 C900 1.380 . S
C902 C903 1.391 . S
C902 H917 0.930 . S
C903 C902 1.391 . S
C903 C905 1.387 . S
C904 C901 1.398 . S
C904 C905 1.380 . S
C904 H918 0.930 . S
C905 C903 1.387 . S
C905 C904 1.380 . S
C905 H919 0.930 1_545 S
C906 O886 1.254 . S
C906 O887 1.268 . S
C907 O891 1.284 . S
C907 O894 1.250 . S
C908 Gd841 2.828 . S
C908 O890 1.258 . S
C908 O895 1.252 . S
C908 C909 1.497 . S
C909 C908 1.497 . S
C909 C910 1.395 . S
C909 C911 1.380 . S
C910 C909 1.395 . S
C910 C913 1.398 . S
C910 H920 0.930 . S
C911 C909 1.380 . S
C911 C912 1.391 . S
C911 H921 0.930 . S
C912 C911 1.391 . S
C912 C914 1.387 . S
C913 C910 1.398 . S
C913 C914 1.380 . S
C913 H922 0.930 . S
C914 C912 1.387 . S
C914 C913 1.380 . S
C914 H923 0.930 . S
C915 O892 1.254 . S
C915 O893 1.268 . S
H916 C901 0.930 . S
H917 C902 0.930 . S
H918 C904 0.930 . S
H919 C905 0.930 1_565 S
H920 C910 0.930 . S
H921 C911 0.930 . S
H922 C913 0.930 . S
H923 C914 0.930 . S
Gd924 N955 2.661 . S
Gd924 N961 2.601 . S
Gd924 O968 2.545 . S
Gd924 O969 2.606 . S
Gd924 O971 2.429 . S
Gd924 O972 2.545 . S
Gd924 O973 2.412 . S
Gd924 O975 2.362 . S
Gd924 O976 2.324 . S
Gd924 C983 2.828 . S
Gd925 N934 2.661 . S
Gd925 N938 2.601 . S
Gd925 O969 2.362 . S
Gd925 O970 2.324 . S
Gd925 O974 2.545 . S
Gd925 O975 2.606 . S
Gd925 O977 2.429 . S
Gd925 O978 2.545 . S
Gd925 O979 2.412 . S
Gd925 C992 2.828 . S
C926 C929 1.417 . S
C926 C931 1.431 . S
C926 C932 1.412 . S
C927 C930 1.437 . S
C927 C931 1.317 . S
C927 H946 0.929 . S
C928 C929 1.426 . S
C928 C930 1.413 . S
C928 N938 1.359 . S
C929 C926 1.417 . S
C929 C928 1.426 . S
C929 N934 1.350 . S
C930 C927 1.437 . S
C930 C928 1.413 . S
C930 C940 1.391 . S
C931 C926 1.431 . S
C931 C927 1.317 . S
C931 H942 0.930 . S
C932 C926 1.412 . S
C932 C933 1.355 . S
C932 H944 0.930 . S
C933 C932 1.355 . S
C933 C935 1.402 . S
C933 H945 0.930 . S
N934 Gd925 2.661 . S
N934 C929 1.350 . S
N934 C935 1.307 . S
C935 C933 1.402 . S
C935 N934 1.307 . S
C935 H936 0.930 . S
H936 C935 0.930 . S
C937 N938 1.334 . S
C937 C939 1.394 . S
C937 H941 0.930 . S
N938 Gd925 2.601 . S
N938 C928 1.359 . S
N938 C937 1.334 . S
C939 C937 1.394 . S
C939 C940 1.359 . S
C939 H951 0.930 . S
C940 C930 1.391 . S
C940 C939 1.359 . S
C940 H952 0.929 . S
H941 C937 0.930 . S
H942 C931 0.930 . S
H943 C960 0.930 . S
H944 C932 0.930 . S
H945 C933 0.930 . S
H946 C927 0.929 . S
H947 C965 0.930 . S
H948 C956 0.930 . S
H949 C957 0.930 . S
H950 C981 0.929 . S
H951 C939 0.930 . S
H952 C940 0.929 . S
H953 C982 0.930 . S
H954 C963 0.930 . S
N955 Gd924 2.661 . S
N955 C959 1.350 . S
N955 C960 1.307 . S
C956 H948 0.930 . S
C956 C957 1.355 . S
C956 C958 1.412 . S
C957 H949 0.930 . S
C957 C956 1.355 . S
C957 C960 1.402 . S
C958 C956 1.412 . S
C958 C959 1.417 . S
C958 C982 1.431 . S
C959 N955 1.350 . S
C959 C958 1.417 . S
C959 C962 1.426 . S
C960 H943 0.930 . S
C960 N955 1.307 . S
C960 C957 1.402 . S
N961 Gd924 2.601 . S
N961 C962 1.359 . S
N961 C965 1.334 . S
C962 C959 1.426 . S
C962 N961 1.359 . S
C962 C966 1.413 . S
C963 H954 0.930 . S
C963 C964 1.359 . S
C963 C965 1.394 . S
C964 C963 1.359 . S
C964 C966 1.391 . S
C964 H967 0.929 . S
C965 H947 0.930 . S
C965 N961 1.334 . S
C965 C963 1.394 . S
C966 C962 1.413 . S
C966 C964 1.391 . S
C966 C981 1.437 . S
H967 C964 0.929 . S
O968 Gd924 2.545 . S
O968 C983 1.258 . S
O969 Gd924 2.606 . S
O969 Gd925 2.362 . S
O969 C980 1.284 . S
O970 Gd925 2.324 . S
O970 C990 1.254 . S
O971 Gd924 2.429 . S
O971 C990 1.268 . S
O972 Gd924 2.545 . S
O972 C980 1.250 . S
O973 Gd924 2.412 . S
O973 C983 1.252 . S
O974 Gd925 2.545 . S
O974 C992 1.258 . S
O975 Gd924 2.362 . S
O975 Gd925 2.606 . S
O975 C991 1.284 . S
O976 Gd924 2.324 . S
O976 C999 1.254 . S
O977 Gd925 2.429 . S
O977 C999 1.268 . S
O978 Gd925 2.545 . S
O978 C991 1.250 . S
O979 Gd925 2.412 . S
O979 C992 1.252 . S
C980 O969 1.284 . S
C980 O972 1.250 . S
C981 H950 0.929 . S
C981 C966 1.437 . S
C981 C982 1.317 . S
C982 H953 0.930 . S
C982 C958 1.431 . S
C982 C981 1.317 . S
C983 Gd924 2.828 . S
C983 O968 1.258 . S
C983 O973 1.252 . S
C983 C984 1.497 . S
C984 C983 1.497 . S
C984 C985 1.395 . S
C984 C986 1.380 . S
C985 C984 1.395 . S
C985 C988 1.398 . S
C985 H1000 0.930 . S
C986 C984 1.380 . S
C986 C987 1.391 . S
C986 H1001 0.930 . S
C987 C986 1.391 . S
C987 C989 1.387 . S
C988 C985 1.398 . S
C988 C989 1.380 . S
C988 H1002 0.930 . S
C989 C987 1.387 . S
C989 C988 1.380 . S
C989 H1003 0.930 1_565 S
C990 O970 1.254 . S
C990 O971 1.268 . S
C991 O975 1.284 . S
C991 O978 1.250 . S
C992 Gd925 2.828 . S
C992 O974 1.258 . S
C992 O979 1.252 . S
C992 C993 1.497 . S
C993 C992 1.497 . S
C993 C994 1.395 . S
C993 C995 1.380 . S
C994 C993 1.395 . S
C994 C997 1.398 . S
C994 H1004 0.930 . S
C995 C993 1.380 . S
C995 C996 1.391 . S
C995 H1005 0.930 . S
C996 C995 1.391 . S
C996 C998 1.387 . S
C997 C994 1.398 . S
C997 C998 1.380 . S
C997 H1006 0.930 . S
C998 C996 1.387 . S
C998 C997 1.380 . S
C998 H1007 0.930 . S
C999 O976 1.254 . S
C999 O977 1.268 . S
H1000 C985 0.930 . S
H1001 C986 0.930 . S
H1002 C988 0.930 . S
H1003 C989 0.930 1_545 S
H1004 C994 0.930 . S
H1005 C995 0.930 . S
H1006 C997 0.930 . S
H1007 C998 0.930 . S
Gd1008 N1039 2.661 . S
Gd1008 N1045 2.601 . S
Gd1008 O1052 2.545 . S
Gd1008 O1053 2.606 . S
Gd1008 O1055 2.429 . S
Gd1008 O1056 2.545 . S
Gd1008 O1057 2.412 . S
Gd1008 O1059 2.362 . S
Gd1008 O1060 2.324 . S
Gd1008 C1067 2.828 . S
Gd1009 N1018 2.661 . S
Gd1009 N1022 2.601 . S
Gd1009 O1053 2.362 . S
Gd1009 O1054 2.324 . S
Gd1009 O1058 2.545 . S
Gd1009 O1059 2.606 . S
Gd1009 O1061 2.429 . S
Gd1009 O1062 2.545 . S
Gd1009 O1063 2.412 . S
Gd1009 C1076 2.828 . S
C1010 C1013 1.417 . S
C1010 C1015 1.431 . S
C1010 C1016 1.412 . S
C1011 C1014 1.437 . S
C1011 C1015 1.317 . S
C1011 H1030 0.929 . S
C1012 C1013 1.426 . S
C1012 C1014 1.413 . S
C1012 N1022 1.359 . S
C1013 C1010 1.417 . S
C1013 C1012 1.426 . S
C1013 N1018 1.350 . S
C1014 C1011 1.437 . S
C1014 C1012 1.413 . S
C1014 C1024 1.391 . S
C1015 C1010 1.431 . S
C1015 C1011 1.317 . S
C1015 H1026 0.930 . S
C1016 C1010 1.412 . S
C1016 C1017 1.355 . S
C1016 H1028 0.930 . S
C1017 C1016 1.355 . S
C1017 C1019 1.402 . S
C1017 H1029 0.930 . S
N1018 Gd1009 2.661 . S
N1018 C1013 1.350 . S
N1018 C1019 1.307 . S
C1019 C1017 1.402 . S
C1019 N1018 1.307 . S
C1019 H1020 0.930 . S
H1020 C1019 0.930 . S
C1021 N1022 1.334 . S
C1021 C1023 1.394 . S
C1021 H1025 0.930 . S
N1022 Gd1009 2.601 . S
N1022 C1012 1.359 . S
N1022 C1021 1.334 . S
C1023 C1021 1.394 . S
C1023 C1024 1.359 . S
C1023 H1035 0.930 . S
C1024 C1014 1.391 . S
C1024 C1023 1.359 . S
C1024 H1036 0.929 . S
H1025 C1021 0.930 . S
H1026 C1015 0.930 . S
H1027 C1044 0.930 . S
H1028 C1016 0.930 . S
H1029 C1017 0.930 . S
H1030 C1011 0.929 . S
H1031 C1049 0.930 . S
H1032 C1040 0.930 . S
H1033 C1041 0.930 . S
H1034 C1065 0.929 . S
H1035 C1023 0.930 . S
H1036 C1024 0.929 . S
H1037 C1066 0.930 . S
H1038 C1047 0.930 . S
N1039 Gd1008 2.661 . S
N1039 C1043 1.350 . S
N1039 C1044 1.307 . S
C1040 H1032 0.930 . S
C1040 C1041 1.355 . S
C1040 C1042 1.412 . S
C1041 H1033 0.930 . S
C1041 C1040 1.355 . S
C1041 C1044 1.402 . S
C1042 C1040 1.412 . S
C1042 C1043 1.417 . S
C1042 C1066 1.431 . S
C1043 N1039 1.350 . S
C1043 C1042 1.417 . S
C1043 C1046 1.426 . S
C1044 H1027 0.930 . S
C1044 N1039 1.307 . S
C1044 C1041 1.402 . S
N1045 Gd1008 2.601 . S
N1045 C1046 1.359 . S
N1045 C1049 1.334 . S
C1046 C1043 1.426 . S
C1046 N1045 1.359 . S
C1046 C1050 1.413 . S
C1047 H1038 0.930 . S
C1047 C1048 1.359 . S
C1047 C1049 1.394 . S
C1048 C1047 1.359 . S
C1048 C1050 1.391 . S
C1048 H1051 0.929 . S
C1049 H1031 0.930 . S
C1049 N1045 1.334 . S
C1049 C1047 1.394 . S
C1050 C1046 1.413 . S
C1050 C1048 1.391 . S
C1050 C1065 1.437 . S
H1051 C1048 0.929 . S
O1052 Gd1008 2.545 . S
O1052 C1067 1.258 . S
O1053 Gd1008 2.606 . S
O1053 Gd1009 2.362 . S
O1053 C1064 1.284 . S
O1054 Gd1009 2.324 . S
O1054 C1074 1.254 . S
O1055 Gd1008 2.429 . S
O1055 C1074 1.268 . S
O1056 Gd1008 2.545 . S
O1056 C1064 1.250 . S
O1057 Gd1008 2.412 . S
O1057 C1067 1.252 . S
O1058 Gd1009 2.545 . S
O1058 C1076 1.258 . S
O1059 Gd1008 2.362 . S
O1059 Gd1009 2.606 . S
O1059 C1075 1.284 . S
O1060 Gd1008 2.324 . S
O1060 C1083 1.254 . S
O1061 Gd1009 2.429 . S
O1061 C1083 1.268 . S
O1062 Gd1009 2.545 . S
O1062 C1075 1.250 . S
O1063 Gd1009 2.412 . S
O1063 C1076 1.252 . S
C1064 O1053 1.284 . S
C1064 O1056 1.250 . S
C1065 H1034 0.929 . S
C1065 C1050 1.437 . S
C1065 C1066 1.317 . S
C1066 H1037 0.930 . S
C1066 C1042 1.431 . S
C1066 C1065 1.317 . S
C1067 Gd1008 2.828 . S
C1067 O1052 1.258 . S
C1067 O1057 1.252 . S
C1067 C1068 1.497 . S
C1068 C1067 1.497 . S
C1068 C1069 1.395 . S
C1068 C1070 1.380 . S
C1069 C1068 1.395 . S
C1069 C1072 1.398 . S
C1069 H1084 0.930 . S
C1070 C1068 1.380 . S
C1070 C1071 1.391 . S
C1070 H1085 0.930 . S
C1071 C1070 1.391 . S
C1071 C1073 1.387 . S
C1072 C1069 1.398 . S
C1072 C1073 1.380 . S
C1072 H1086 0.930 . S
C1073 C1071 1.387 . S
C1073 C1072 1.380 . S
C1073 H1087 0.930 . S
C1074 O1054 1.254 . S
C1074 O1055 1.268 . S
C1075 O1059 1.284 . S
C1075 O1062 1.250 . S
C1076 Gd1009 2.828 . S
C1076 O1058 1.258 . S
C1076 O1063 1.252 . S
C1076 C1077 1.497 . S
C1077 C1076 1.497 . S
C1077 C1078 1.395 . S
C1077 C1079 1.380 . S
C1078 C1077 1.395 . S
C1078 C1081 1.398 . S
C1078 H1088 0.930 . S
C1079 C1077 1.380 . S
C1079 C1080 1.391 . S
C1079 H1089 0.930 . S
C1080 C1079 1.391 . S
C1080 C1082 1.387 . S
C1081 C1078 1.398 . S
C1081 C1082 1.380 . S
C1081 H1090 0.930 . S
C1082 C1080 1.387 . S
C1082 C1081 1.380 . S
C1082 H1091 0.930 1_545 S
C1083 O1060 1.254 . S
C1083 O1061 1.268 . S
H1084 C1069 0.930 . S
H1085 C1070 0.930 . S
H1086 C1072 0.930 . S
H1087 C1073 0.930 . S
H1088 C1078 0.930 . S
H1089 C1079 0.930 . S
H1090 C1081 0.930 . S
H1091 C1082 0.930 1_565 S
Gd1092 N1123 2.661 . S
Gd1092 N1129 2.601 . S
Gd1092 O1136 2.545 . S
Gd1092 O1137 2.606 . S
Gd1092 O1139 2.429 . S
Gd1092 O1140 2.545 . S
Gd1092 O1141 2.412 . S
Gd1092 O1143 2.362 . S
Gd1092 O1144 2.324 . S
Gd1092 C1151 2.828 . S
Gd1093 N1102 2.661 . S
Gd1093 N1106 2.601 . S
Gd1093 O1137 2.362 . S
Gd1093 O1138 2.324 . S
Gd1093 O1142 2.545 . S
Gd1093 O1143 2.606 . S
Gd1093 O1145 2.429 . S
Gd1093 O1146 2.545 . S
Gd1093 O1147 2.412 . S
Gd1093 C1160 2.828 . S
C1094 C1097 1.417 . S
C1094 C1099 1.431 . S
C1094 C1100 1.412 . S
C1095 C1098 1.437 . S
C1095 C1099 1.317 . S
C1095 H1114 0.929 . S
C1096 C1097 1.426 . S
C1096 C1098 1.413 . S
C1096 N1106 1.359 . S
C1097 C1094 1.417 . S
C1097 C1096 1.426 . S
C1097 N1102 1.350 . S
C1098 C1095 1.437 . S
C1098 C1096 1.413 . S
C1098 C1108 1.391 . S
C1099 C1094 1.431 . S
C1099 C1095 1.317 . S
C1099 H1110 0.930 . S
C1100 C1094 1.412 . S
C1100 C1101 1.355 . S
C1100 H1112 0.930 . S
C1101 C1100 1.355 . S
C1101 C1103 1.402 . S
C1101 H1113 0.930 . S
N1102 Gd1093 2.661 . S
N1102 C1097 1.350 . S
N1102 C1103 1.307 . S
C1103 C1101 1.402 . S
C1103 N1102 1.307 . S
C1103 H1104 0.930 . S
H1104 C1103 0.930 . S
C1105 N1106 1.334 . S
C1105 C1107 1.394 . S
C1105 H1109 0.930 . S
N1106 Gd1093 2.601 . S
N1106 C1096 1.359 . S
N1106 C1105 1.334 . S
C1107 C1105 1.394 . S
C1107 C1108 1.359 . S
C1107 H1119 0.930 . S
C1108 C1098 1.391 . S
C1108 C1107 1.359 . S
C1108 H1120 0.929 . S
H1109 C1105 0.930 . S
H1110 C1099 0.930 . S
H1111 C1128 0.930 . S
H1112 C1100 0.930 . S
H1113 C1101 0.930 . S
H1114 C1095 0.929 . S
H1115 C1133 0.930 . S
H1116 C1124 0.930 . S
H1117 C1125 0.930 . S
H1118 C1149 0.929 . S
H1119 C1107 0.930 . S
H1120 C1108 0.929 . S
H1121 C1150 0.930 . S
H1122 C1131 0.930 . S
N1123 Gd1092 2.661 . S
N1123 C1127 1.350 . S
N1123 C1128 1.307 . S
C1124 H1116 0.930 . S
C1124 C1125 1.355 . S
C1124 C1126 1.412 . S
C1125 H1117 0.930 . S
C1125 C1124 1.355 . S
C1125 C1128 1.402 . S
C1126 C1124 1.412 . S
C1126 C1127 1.417 . S
C1126 C1150 1.431 . S
C1127 N1123 1.350 . S
C1127 C1126 1.417 . S
C1127 C1130 1.426 . S
C1128 H1111 0.930 . S
C1128 N1123 1.307 . S
C1128 C1125 1.402 . S
N1129 Gd1092 2.601 . S
N1129 C1130 1.359 . S
N1129 C1133 1.334 . S
C1130 C1127 1.426 . S
C1130 N1129 1.359 . S
C1130 C1134 1.413 . S
C1131 H1122 0.930 . S
C1131 C1132 1.359 . S
C1131 C1133 1.394 . S
C1132 C1131 1.359 . S
C1132 C1134 1.391 . S
C1132 H1135 0.929 . S
C1133 H1115 0.930 . S
C1133 N1129 1.334 . S
C1133 C1131 1.394 . S
C1134 C1130 1.413 . S
C1134 C1132 1.391 . S
C1134 C1149 1.437 . S
H1135 C1132 0.929 . S
O1136 Gd1092 2.545 . S
O1136 C1151 1.258 . S
O1137 Gd1092 2.606 . S
O1137 Gd1093 2.362 . S
O1137 C1148 1.284 . S
O1138 Gd1093 2.324 . S
O1138 C1158 1.254 . S
O1139 Gd1092 2.429 . S
O1139 C1158 1.268 . S
O1140 Gd1092 2.545 . S
O1140 C1148 1.250 . S
O1141 Gd1092 2.412 . S
O1141 C1151 1.252 . S
O1142 Gd1093 2.545 . S
O1142 C1160 1.258 . S
O1143 Gd1092 2.362 . S
O1143 Gd1093 2.606 . S
O1143 C1159 1.284 . S
O1144 Gd1092 2.324 . S
O1144 C1167 1.254 . S
O1145 Gd1093 2.429 . S
O1145 C1167 1.268 . S
O1146 Gd1093 2.545 . S
O1146 C1159 1.250 . S
O1147 Gd1093 2.412 . S
O1147 C1160 1.252 . S
C1148 O1137 1.284 . S
C1148 O1140 1.250 . S
C1149 H1118 0.929 . S
C1149 C1134 1.437 . S
C1149 C1150 1.317 . S
C1150 H1121 0.930 . S
C1150 C1126 1.431 . S
C1150 C1149 1.317 . S
C1151 Gd1092 2.828 . S
C1151 O1136 1.258 . S
C1151 O1141 1.252 . S
C1151 C1152 1.497 . S
C1152 C1151 1.497 . S
C1152 C1153 1.395 . S
C1152 C1154 1.380 . S
C1153 C1152 1.395 . S
C1153 C1156 1.398 . S
C1153 H1168 0.930 . S
C1154 C1152 1.380 . S
C1154 C1155 1.391 . S
C1154 H1169 0.930 . S
C1155 C1154 1.391 . S
C1155 C1157 1.387 . S
C1156 C1153 1.398 . S
C1156 C1157 1.380 . S
C1156 H1170 0.930 . S
C1157 C1155 1.387 . S
C1157 C1156 1.380 . S
C1157 H1171 0.930 . S
C1158 O1138 1.254 . S
C1158 O1139 1.268 . S
C1159 O1143 1.284 . S
C1159 O1146 1.250 . S
C1160 Gd1093 2.828 . S
C1160 O1142 1.258 . S
C1160 O1147 1.252 . S
C1160 C1161 1.497 . S
C1161 C1160 1.497 . S
C1161 C1162 1.395 . S
C1161 C1163 1.380 . S
C1162 C1161 1.395 . S
C1162 C1165 1.398 . S
C1162 H1172 0.930 . S
C1163 C1161 1.380 . S
C1163 C1164 1.391 . S
C1163 H1173 0.930 . S
C1164 C1163 1.391 . S
C1164 C1166 1.387 . S
C1165 C1162 1.398 . S
C1165 C1166 1.380 . S
C1165 H1174 0.930 . S
C1166 C1164 1.387 . S
C1166 C1165 1.380 . S
C1166 H1175 0.930 1_565 S
C1167 O1144 1.254 . S
C1167 O1145 1.268 . S
H1168 C1153 0.930 . S
H1169 C1154 0.930 . S
H1170 C1156 0.930 . S
H1171 C1157 0.930 . S
H1172 C1162 0.930 . S
H1173 C1163 0.930 . S
H1174 C1165 0.930 . S
H1175 C1166 0.930 1_545 S
Gd1176 N1207 2.661 . S
Gd1176 N1213 2.601 . S
Gd1176 O1220 2.545 . S
Gd1176 O1221 2.606 . S
Gd1176 O1223 2.429 . S
Gd1176 O1224 2.545 . S
Gd1176 O1225 2.412 . S
Gd1176 O1227 2.362 . S
Gd1176 O1228 2.324 . S
Gd1176 C1235 2.828 . S
Gd1177 N1186 2.661 . S
Gd1177 N1190 2.601 . S
Gd1177 O1221 2.362 . S
Gd1177 O1222 2.324 . S
Gd1177 O1226 2.545 . S
Gd1177 O1227 2.606 . S
Gd1177 O1229 2.429 . S
Gd1177 O1230 2.545 . S
Gd1177 O1231 2.412 . S
Gd1177 C1244 2.828 . S
C1178 C1181 1.417 . S
C1178 C1183 1.431 . S
C1178 C1184 1.412 . S
C1179 C1182 1.437 . S
C1179 C1183 1.317 . S
C1179 H1198 0.929 . S
C1180 C1181 1.426 . S
C1180 C1182 1.413 . S
C1180 N1190 1.359 . S
C1181 C1178 1.417 . S
C1181 C1180 1.426 . S
C1181 N1186 1.350 . S
C1182 C1179 1.437 . S
C1182 C1180 1.413 . S
C1182 C1192 1.391 . S
C1183 C1178 1.431 . S
C1183 C1179 1.317 . S
C1183 H1194 0.930 . S
C1184 C1178 1.412 . S
C1184 C1185 1.355 . S
C1184 H1196 0.930 . S
C1185 C1184 1.355 . S
C1185 C1187 1.402 . S
C1185 H1197 0.930 . S
N1186 Gd1177 2.661 . S
N1186 C1181 1.350 . S
N1186 C1187 1.307 . S
C1187 C1185 1.402 . S
C1187 N1186 1.307 . S
C1187 H1188 0.930 . S
H1188 C1187 0.930 . S
C1189 N1190 1.334 . S
C1189 C1191 1.394 . S
C1189 H1193 0.930 . S
N1190 Gd1177 2.601 . S
N1190 C1180 1.359 . S
N1190 C1189 1.334 . S
C1191 C1189 1.394 . S
C1191 C1192 1.359 . S
C1191 H1203 0.930 . S
C1192 C1182 1.391 . S
C1192 C1191 1.359 . S
C1192 H1204 0.929 . S
H1193 C1189 0.930 . S
H1194 C1183 0.930 . S
H1195 C1212 0.930 . S
H1196 C1184 0.930 . S
H1197 C1185 0.930 . S
H1198 C1179 0.929 . S
H1199 C1217 0.930 . S
H1200 C1208 0.930 . S
H1201 C1209 0.930 . S
H1202 C1233 0.929 . S
H1203 C1191 0.930 . S
H1204 C1192 0.929 . S
H1205 C1234 0.930 . S
H1206 C1215 0.930 . S
N1207 Gd1176 2.661 . S
N1207 C1211 1.350 . S
N1207 C1212 1.307 . S
C1208 H1200 0.930 . S
C1208 C1209 1.355 . S
C1208 C1210 1.412 . S
C1209 H1201 0.930 . S
C1209 C1208 1.355 . S
C1209 C1212 1.402 . S
C1210 C1208 1.412 . S
C1210 C1211 1.417 . S
C1210 C1234 1.431 . S
C1211 N1207 1.350 . S
C1211 C1210 1.417 . S
C1211 C1214 1.426 . S
C1212 H1195 0.930 . S
C1212 N1207 1.307 . S
C1212 C1209 1.402 . S
N1213 Gd1176 2.601 . S
N1213 C1214 1.359 . S
N1213 C1217 1.334 . S
C1214 C1211 1.426 . S
C1214 N1213 1.359 . S
C1214 C1218 1.413 . S
C1215 H1206 0.930 . S
C1215 C1216 1.359 . S
C1215 C1217 1.394 . S
C1216 C1215 1.359 . S
C1216 C1218 1.391 . S
C1216 H1219 0.929 . S
C1217 H1199 0.930 . S
C1217 N1213 1.334 . S
C1217 C1215 1.394 . S
C1218 C1214 1.413 . S
C1218 C1216 1.391 . S
C1218 C1233 1.437 . S
H1219 C1216 0.929 . S
O1220 Gd1176 2.545 . S
O1220 C1235 1.258 . S
O1221 Gd1176 2.606 . S
O1221 Gd1177 2.362 . S
O1221 C1232 1.284 . S
O1222 Gd1177 2.324 . S
O1222 C1242 1.254 . S
O1223 Gd1176 2.429 . S
O1223 C1242 1.268 . S
O1224 Gd1176 2.545 . S
O1224 C1232 1.250 . S
O1225 Gd1176 2.412 . S
O1225 C1235 1.252 . S
O1226 Gd1177 2.545 . S
O1226 C1244 1.258 . S
O1227 Gd1176 2.362 . S
O1227 Gd1177 2.606 . S
O1227 C1243 1.284 . S
O1228 Gd1176 2.324 . S
O1228 C1251 1.254 . S
O1229 Gd1177 2.429 . S
O1229 C1251 1.268 . S
O1230 Gd1177 2.545 . S
O1230 C1243 1.250 . S
O1231 Gd1177 2.412 . S
O1231 C1244 1.252 . S
C1232 O1221 1.284 . S
C1232 O1224 1.250 . S
C1233 H1202 0.929 . S
C1233 C1218 1.437 . S
C1233 C1234 1.317 . S
C1234 H1205 0.930 . S
C1234 C1210 1.431 . S
C1234 C1233 1.317 . S
C1235 Gd1176 2.828 . S
C1235 O1220 1.258 . S
C1235 O1225 1.252 . S
C1235 C1236 1.497 . S
C1236 C1235 1.497 . S
C1236 C1237 1.395 . S
C1236 C1238 1.380 . S
C1237 C1236 1.395 . S
C1237 C1240 1.398 . S
C1237 H1252 0.930 . S
C1238 C1236 1.380 . S
C1238 C1239 1.391 . S
C1238 H1253 0.930 . S
C1239 C1238 1.391 . S
C1239 C1241 1.387 . S
C1240 C1237 1.398 . S
C1240 C1241 1.380 . S
C1240 H1254 0.930 . S
C1241 C1239 1.387 . S
C1241 C1240 1.380 . S
C1241 H1255 0.930 . S
C1242 O1222 1.254 . S
C1242 O1223 1.268 . S
C1243 O1227 1.284 . S
C1243 O1230 1.250 . S
C1244 Gd1177 2.828 . S
C1244 O1226 1.258 . S
C1244 O1231 1.252 . S
C1244 C1245 1.497 . S
C1245 C1244 1.497 . S
C1245 C1246 1.395 . S
C1245 C1247 1.380 . S
C1246 C1245 1.395 . S
C1246 C1249 1.398 . S
C1246 H1256 0.930 . S
C1247 C1245 1.380 . S
C1247 C1248 1.391 . S
C1247 H1257 0.930 . S
C1248 C1247 1.391 . S
C1248 C1250 1.387 . S
C1249 C1246 1.398 . S
C1249 C1250 1.380 . S
C1249 H1258 0.930 . S
C1250 C1248 1.387 . S
C1250 C1249 1.380 . S
C1250 H1259 0.930 1_565 S
C1251 O1228 1.254 . S
C1251 O1229 1.268 . S
H1252 C1237 0.930 . S
H1253 C1238 0.930 . S
H1254 C1240 0.930 . S
H1255 C1241 0.930 . S
H1256 C1246 0.930 . S
H1257 C1247 0.930 . S
H1258 C1249 0.930 . S
H1259 C1250 0.930 1_545 S
Gd1260 N1291 2.661 . S
Gd1260 N1297 2.601 . S
Gd1260 O1304 2.545 . S
Gd1260 O1305 2.606 . S
Gd1260 O1307 2.429 . S
Gd1260 O1308 2.545 . S
Gd1260 O1309 2.412 . S
Gd1260 O1311 2.362 . S
Gd1260 O1312 2.324 . S
Gd1260 C1319 2.828 . S
Gd1261 N1270 2.661 . S
Gd1261 N1274 2.601 . S
Gd1261 O1305 2.362 . S
Gd1261 O1306 2.324 . S
Gd1261 O1310 2.545 . S
Gd1261 O1311 2.606 . S
Gd1261 O1313 2.429 . S
Gd1261 O1314 2.545 . S
Gd1261 O1315 2.412 . S
Gd1261 C1328 2.828 . S
C1262 C1265 1.417 . S
C1262 C1267 1.431 . S
C1262 C1268 1.412 . S
C1263 C1266 1.437 . S
C1263 C1267 1.317 . S
C1263 H1282 0.929 . S
C1264 C1265 1.426 . S
C1264 C1266 1.413 . S
C1264 N1274 1.359 . S
C1265 C1262 1.417 . S
C1265 C1264 1.426 . S
C1265 N1270 1.350 . S
C1266 C1263 1.437 . S
C1266 C1264 1.413 . S
C1266 C1276 1.391 . S
C1267 C1262 1.431 . S
C1267 C1263 1.317 . S
C1267 H1278 0.930 . S
C1268 C1262 1.412 . S
C1268 C1269 1.355 . S
C1268 H1280 0.930 . S
C1269 C1268 1.355 . S
C1269 C1271 1.402 . S
C1269 H1281 0.930 . S
N1270 Gd1261 2.661 . S
N1270 C1265 1.350 . S
N1270 C1271 1.307 . S
C1271 C1269 1.402 . S
C1271 N1270 1.307 . S
C1271 H1272 0.930 . S
H1272 C1271 0.930 . S
C1273 N1274 1.334 . S
C1273 C1275 1.394 . S
C1273 H1277 0.930 . S
N1274 Gd1261 2.601 . S
N1274 C1264 1.359 . S
N1274 C1273 1.334 . S
C1275 C1273 1.394 . S
C1275 C1276 1.359 . S
C1275 H1287 0.930 . S
C1276 C1266 1.391 . S
C1276 C1275 1.359 . S
C1276 H1288 0.929 . S
H1277 C1273 0.930 . S
H1278 C1267 0.930 . S
H1279 C1296 0.930 . S
H1280 C1268 0.930 . S
H1281 C1269 0.930 . S
H1282 C1263 0.929 . S
H1283 C1301 0.930 . S
H1284 C1292 0.930 . S
H1285 C1293 0.930 . S
H1286 C1317 0.929 . S
H1287 C1275 0.930 . S
H1288 C1276 0.929 . S
H1289 C1318 0.930 . S
H1290 C1299 0.930 . S
N1291 Gd1260 2.661 . S
N1291 C1295 1.350 . S
N1291 C1296 1.307 . S
C1292 H1284 0.930 . S
C1292 C1293 1.355 . S
C1292 C1294 1.412 . S
C1293 H1285 0.930 . S
C1293 C1292 1.355 . S
C1293 C1296 1.402 . S
C1294 C1292 1.412 . S
C1294 C1295 1.417 . S
C1294 C1318 1.431 . S
C1295 N1291 1.350 . S
C1295 C1294 1.417 . S
C1295 C1298 1.426 . S
C1296 H1279 0.930 . S
C1296 N1291 1.307 . S
C1296 C1293 1.402 . S
N1297 Gd1260 2.601 . S
N1297 C1298 1.359 . S
N1297 C1301 1.334 . S
C1298 C1295 1.426 . S
C1298 N1297 1.359 . S
C1298 C1302 1.413 . S
C1299 H1290 0.930 . S
C1299 C1300 1.359 . S
C1299 C1301 1.394 . S
C1300 C1299 1.359 . S
C1300 C1302 1.391 . S
C1300 H1303 0.929 . S
C1301 H1283 0.930 . S
C1301 N1297 1.334 . S
C1301 C1299 1.394 . S
C1302 C1298 1.413 . S
C1302 C1300 1.391 . S
C1302 C1317 1.437 . S
H1303 C1300 0.929 . S
O1304 Gd1260 2.545 . S
O1304 C1319 1.258 . S
O1305 Gd1260 2.606 . S
O1305 Gd1261 2.362 . S
O1305 C1316 1.284 . S
O1306 Gd1261 2.324 . S
O1306 C1326 1.254 . S
O1307 Gd1260 2.429 . S
O1307 C1326 1.268 . S
O1308 Gd1260 2.545 . S
O1308 C1316 1.250 . S
O1309 Gd1260 2.412 . S
O1309 C1319 1.252 . S
O1310 Gd1261 2.545 . S
O1310 C1328 1.258 . S
O1311 Gd1260 2.362 . S
O1311 Gd1261 2.606 . S
O1311 C1327 1.284 . S
O1312 Gd1260 2.324 . S
O1312 C1335 1.254 . S
O1313 Gd1261 2.429 . S
O1313 C1335 1.268 . S
O1314 Gd1261 2.545 . S
O1314 C1327 1.250 . S
O1315 Gd1261 2.412 . S
O1315 C1328 1.252 . S
C1316 O1305 1.284 . S
C1316 O1308 1.250 . S
C1317 H1286 0.929 . S
C1317 C1302 1.437 . S
C1317 C1318 1.317 . S
C1318 H1289 0.930 . S
C1318 C1294 1.431 . S
C1318 C1317 1.317 . S
C1319 Gd1260 2.828 . S
C1319 O1304 1.258 . S
C1319 O1309 1.252 . S
C1319 C1320 1.497 . S
C1320 C1319 1.497 . S
C1320 C1321 1.395 . S
C1320 C1322 1.380 . S
C1321 C1320 1.395 . S
C1321 C1324 1.398 . S
C1321 H1336 0.930 . S
C1322 C1320 1.380 . S
C1322 C1323 1.391 . S
C1322 H1337 0.930 . S
C1323 C1322 1.391 . S
C1323 C1325 1.387 . S
C1324 C1321 1.398 . S
C1324 C1325 1.380 . S
C1324 H1338 0.930 . S
C1325 C1323 1.387 . S
C1325 C1324 1.380 . S
C1325 H1339 0.930 . S
C1326 O1306 1.254 . S
C1326 O1307 1.268 . S
C1327 O1311 1.284 . S
C1327 O1314 1.250 . S
C1328 Gd1261 2.828 . S
C1328 O1310 1.258 . S
C1328 O1315 1.252 . S
C1328 C1329 1.497 . S
C1329 C1328 1.497 . S
C1329 C1330 1.395 . S
C1329 C1331 1.380 . S
C1330 C1329 1.395 . S
C1330 C1333 1.398 . S
C1330 H1340 0.930 . S
C1331 C1329 1.380 . S
C1331 C1332 1.391 . S
C1331 H1341 0.930 . S
C1332 C1331 1.391 . S
C1332 C1334 1.387 . S
C1333 C1330 1.398 . S
C1333 C1334 1.380 . S
C1333 H1342 0.930 . S
C1334 C1332 1.387 . S
C1334 C1333 1.380 . S
C1334 H1343 0.930 1_545 S
C1335 O1312 1.254 . S
C1335 O1313 1.268 . S
H1336 C1321 0.930 . S
H1337 C1322 0.930 . S
H1338 C1324 0.930 . S
H1339 C1325 0.930 . S
H1340 C1330 0.930 . S
H1341 C1331 0.930 . S
H1342 C1333 0.930 . S
H1343 C1334 0.930 1_565 S
H1344 C1350 0.930 . S
H1345 C1353 0.930 . S
H1346 C1354 0.930 . S
H1347 C1355 0.930 . S
H1348 C1358 0.930 . S
H1349 C1359 0.930 . S
C1350 H1344 0.930 . S
C1350 C1351 1.355 . S
C1350 C1352 1.415 . S
C1351 C1350 1.355 . S
C1351 C1353 1.419 . S
C1352 C1350 1.415 . S
C1352 C1357 1.425 . S
C1352 C1359 1.409 . S
C1353 H1345 0.930 . S
C1353 C1351 1.419 . S
C1353 C1354 1.362 . S
C1354 H1346 0.930 . S
C1354 C1353 1.362 . S
C1354 C1357 1.409 . S
C1355 H1347 0.930 . S
C1355 C1356 1.355 . S
C1355 C1357 1.415 . S
C1356 C1355 1.355 . S
C1356 C1358 1.419 . S
C1357 C1352 1.425 . S
C1357 C1354 1.409 . S
C1357 C1355 1.415 . S
C1358 H1348 0.930 . S
C1358 C1356 1.419 . S
C1358 C1359 1.362 . S
C1359 H1349 0.930 . S
C1359 C1352 1.409 . S
C1359 C1358 1.362 . S
H1360 C1366 0.930 . S
H1361 C1369 0.930 . S
H1362 C1370 0.930 . S
H1363 C1371 0.930 . S
H1364 C1374 0.930 . S
H1365 C1375 0.930 . S
C1366 H1360 0.930 . S
C1366 C1367 1.355 . S
C1366 C1368 1.415 . S
C1367 C1366 1.355 . S
C1367 C1369 1.419 . S
C1368 C1366 1.415 . S
C1368 C1373 1.425 . S
C1368 C1375 1.409 . S
C1369 H1361 0.930 . S
C1369 C1367 1.419 . S
C1369 C1370 1.362 . S
C1370 H1362 0.930 . S
C1370 C1369 1.362 . S
C1370 C1373 1.409 . S
C1371 H1363 0.930 . S
C1371 C1372 1.355 . S
C1371 C1373 1.415 . S
C1372 C1371 1.355 . S
C1372 C1374 1.419 . S
C1373 C1368 1.425 . S
C1373 C1370 1.409 . S
C1373 C1371 1.415 . S
C1374 H1364 0.930 . S
C1374 C1372 1.419 . S
C1374 C1375 1.362 . S
C1375 H1365 0.930 . S
C1375 C1368 1.409 . S
C1375 C1374 1.362 . S
H1376 C1382 0.930 . S
H1377 C1385 0.930 . S
H1378 C1386 0.930 . S
H1379 C1387 0.930 . S
H1380 C1390 0.930 . S
H1381 C1391 0.930 . S
C1382 H1376 0.930 . S
C1382 C1383 1.355 . S
C1382 C1384 1.415 . S
C1383 C1382 1.355 . S
C1383 C1385 1.419 . S
C1384 C1382 1.415 . S
C1384 C1389 1.425 . S
C1384 C1391 1.409 . S
C1385 H1377 0.930 . S
C1385 C1383 1.419 . S
C1385 C1386 1.362 . S
C1386 H1378 0.930 . S
C1386 C1385 1.362 . S
C1386 C1389 1.409 . S
C1387 H1379 0.930 . S
C1387 C1388 1.355 . S
C1387 C1389 1.415 . S
C1388 C1387 1.355 . S
C1388 C1390 1.419 . S
C1389 C1384 1.425 . S
C1389 C1386 1.409 . S
C1389 C1387 1.415 . S
C1390 H1380 0.930 . S
C1390 C1388 1.419 . S
C1390 C1391 1.362 . S
C1391 H1381 0.930 . S
C1391 C1384 1.409 . S
C1391 C1390 1.362 . S
H1392 C1398 0.930 . S
H1393 C1401 0.930 . S
H1394 C1402 0.930 . S
H1395 C1403 0.930 . S
H1396 C1406 0.930 . S
H1397 C1407 0.930 . S
C1398 H1392 0.930 . S
C1398 C1399 1.355 . S
C1398 C1400 1.415 . S
C1399 C1398 1.355 . S
C1399 C1401 1.419 . S
C1400 C1398 1.415 . S
C1400 C1405 1.425 . S
C1400 C1407 1.409 . S
C1401 H1393 0.930 . S
C1401 C1399 1.419 . S
C1401 C1402 1.362 . S
C1402 H1394 0.930 . S
C1402 C1401 1.362 . S
C1402 C1405 1.409 . S
C1403 H1395 0.930 . S
C1403 C1404 1.355 . S
C1403 C1405 1.415 . S
C1404 C1403 1.355 . S
C1404 C1406 1.419 . S
C1405 C1400 1.425 . S
C1405 C1402 1.409 . S
C1405 C1403 1.415 . S
C1406 H1396 0.930 . S
C1406 C1404 1.419 . S
C1406 C1407 1.362 . S
C1407 H1397 0.930 . S
C1407 C1400 1.409 . S
C1407 C1406 1.362 . S
H1408 C1414 0.930 . S
H1409 C1417 0.930 . S
H1410 C1418 0.930 . S
H1411 C1419 0.930 . S
H1412 C1422 0.930 . S
H1413 C1423 0.930 . S
C1414 H1408 0.930 . S
C1414 C1415 1.355 . S
C1414 C1416 1.415 . S
C1415 C1414 1.355 . S
C1415 C1417 1.419 . S
C1416 C1414 1.415 . S
C1416 C1421 1.425 . S
C1416 C1423 1.409 . S
C1417 H1409 0.930 . S
C1417 C1415 1.419 . S
C1417 C1418 1.362 . S
C1418 H1410 0.930 . S
C1418 C1417 1.362 . S
C1418 C1421 1.409 . S
C1419 H1411 0.930 . S
C1419 C1420 1.355 . S
C1419 C1421 1.415 . S
C1420 C1419 1.355 . S
C1420 C1422 1.419 . S
C1421 C1416 1.425 . S
C1421 C1418 1.409 . S
C1421 C1419 1.415 . S
C1422 H1412 0.930 . S
C1422 C1420 1.419 . S
C1422 C1423 1.362 . S
C1423 H1413 0.930 . S
C1423 C1416 1.409 . S
C1423 C1422 1.362 . S
H1424 C1430 0.930 . S
H1425 C1433 0.930 . S
H1426 C1434 0.930 . S
H1427 C1435 0.930 . S
H1428 C1438 0.930 . S
H1429 C1439 0.930 . S
C1430 H1424 0.930 . S
C1430 C1431 1.355 . S
C1430 C1432 1.415 . S
C1431 C1430 1.355 . S
C1431 C1433 1.419 . S
C1432 C1430 1.415 . S
C1432 C1437 1.425 . S
C1432 C1439 1.409 . S
C1433 H1425 0.930 . S
C1433 C1431 1.419 . S
C1433 C1434 1.362 . S
C1434 H1426 0.930 . S
C1434 C1433 1.362 . S
C1434 C1437 1.409 . S
C1435 H1427 0.930 . S
C1435 C1436 1.355 . S
C1435 C1437 1.415 . S
C1436 C1435 1.355 . S
C1436 C1438 1.419 . S
C1437 C1432 1.425 . S
C1437 C1434 1.409 . S
C1437 C1435 1.415 . S
C1438 H1428 0.930 . S
C1438 C1436 1.419 . S
C1438 C1439 1.362 . S
C1439 H1429 0.930 . S
C1439 C1432 1.409 . S
C1439 C1438 1.362 . S
H1440 C1446 0.930 . S
H1441 C1449 0.930 . S
H1442 C1450 0.930 . S
H1443 C1451 0.930 . S
H1444 C1454 0.930 . S
H1445 C1455 0.930 . S
C1446 H1440 0.930 . S
C1446 C1447 1.355 . S
C1446 C1448 1.415 . S
C1447 C1446 1.355 . S
C1447 C1449 1.419 . S
C1448 C1446 1.415 . S
C1448 C1453 1.425 . S
C1448 C1455 1.409 . S
C1449 H1441 0.930 . S
C1449 C1447 1.419 . S
C1449 C1450 1.362 . S
C1450 H1442 0.930 . S
C1450 C1449 1.362 . S
C1450 C1453 1.409 . S
C1451 H1443 0.930 . S
C1451 C1452 1.355 . S
C1451 C1453 1.415 . S
C1452 C1451 1.355 . S
C1452 C1454 1.419 . S
C1453 C1448 1.425 . S
C1453 C1450 1.409 . S
C1453 C1451 1.415 . S
C1454 H1444 0.930 . S
C1454 C1452 1.419 . S
C1454 C1455 1.362 . S
C1455 H1445 0.930 . S
C1455 C1448 1.409 . S
C1455 C1454 1.362 . S
H1456 C1462 0.930 . S
H1457 C1465 0.930 . S
H1458 C1466 0.930 . S
H1459 C1467 0.930 . S
H1460 C1470 0.930 . S
H1461 C1471 0.930 . S
C1462 H1456 0.930 . S
C1462 C1463 1.355 . S
C1462 C1464 1.415 . S
C1463 C1462 1.355 . S
C1463 C1465 1.419 . S
C1464 C1462 1.415 . S
C1464 C1469 1.425 . S
C1464 C1471 1.409 . S
C1465 H1457 0.930 . S
C1465 C1463 1.419 . S
C1465 C1466 1.362 . S
C1466 H1458 0.930 . S
C1466 C1465 1.362 . S
C1466 C1469 1.409 . S
C1467 H1459 0.930 . S
C1467 C1468 1.355 . S
C1467 C1469 1.415 . S
C1468 C1467 1.355 . S
C1468 C1470 1.419 . S
C1469 C1464 1.425 . S
C1469 C1466 1.409 . S
C1469 C1467 1.415 . S
C1470 H1460 0.930 . S
C1470 C1468 1.419 . S
C1470 C1471 1.362 . S
C1471 H1461 0.930 . S
C1471 C1464 1.409 . S
C1471 C1470 1.362 . S
H1472 C1478 0.930 . S
H1473 C1481 0.930 . S
H1474 C1482 0.930 . S
H1475 C1483 0.930 . S
H1476 C1486 0.930 . S
H1477 C1487 0.930 . S
C1478 H1472 0.930 . S
C1478 C1479 1.355 . S
C1478 C1480 1.415 . S
C1479 C1478 1.355 . S
C1479 C1481 1.419 . S
C1480 C1478 1.415 . S
C1480 C1485 1.425 1_565 S
C1480 C1487 1.409 1_565 S
C1481 H1473 0.930 . S
C1481 C1479 1.419 . S
C1481 C1482 1.362 . S
C1482 H1474 0.930 . S
C1482 C1481 1.362 . S
C1482 C1485 1.409 1_565 S
C1483 H1475 0.930 . S
C1483 C1484 1.355 . S
C1483 C1485 1.415 . S
C1484 C1483 1.355 . S
C1484 C1486 1.419 . S
C1485 C1480 1.425 1_545 S
C1485 C1482 1.409 1_545 S
C1485 C1483 1.415 . S
C1486 H1476 0.930 . S
C1486 C1484 1.419 . S
C1486 C1487 1.362 . S
C1487 H1477 0.930 . S
C1487 C1480 1.409 1_545 S
C1487 C1486 1.362 . S
H1488 C1494 0.930 . S
H1489 C1497 0.930 . S
H1490 C1498 0.930 . S
H1491 C1499 0.930 . S
H1492 C1502 0.930 . S
H1493 C1503 0.930 . S
C1494 H1488 0.930 . S
C1494 C1495 1.355 . S
C1494 C1496 1.415 . S
C1495 C1494 1.355 . S
C1495 C1497 1.419 1_545 S
C1496 C1494 1.415 . S
C1496 C1501 1.425 1_545 S
C1496 C1503 1.409 . S
C1497 H1489 0.930 . S
C1497 C1495 1.419 1_565 S
C1497 C1498 1.362 . S
C1498 H1490 0.930 . S
C1498 C1497 1.362 . S
C1498 C1501 1.409 . S
C1499 H1491 0.930 . S
C1499 C1500 1.355 . S
C1499 C1501 1.415 . S
C1500 C1499 1.355 . S
C1500 C1502 1.419 1_565 S
C1501 C1496 1.425 1_565 S
C1501 C1498 1.409 . S
C1501 C1499 1.415 . S
C1502 H1492 0.930 . S
C1502 C1500 1.419 1_545 S
C1502 C1503 1.362 . S
C1503 H1493 0.930 . S
C1503 C1496 1.409 . S
C1503 C1502 1.362 . S
H1504 C1510 0.930 . S
H1505 C1513 0.930 . S
H1506 C1514 0.930 . S
H1507 C1515 0.930 . S
H1508 C1518 0.930 . S
H1509 C1519 0.930 . S
C1510 H1504 0.930 . S
C1510 C1511 1.355 . S
C1510 C1512 1.415 1_545 S
C1511 C1510 1.355 . S
C1511 C1513 1.419 . S
C1512 C1510 1.415 1_565 S
C1512 C1517 1.425 1_565 S
C1512 C1519 1.409 . S
C1513 H1505 0.930 . S
C1513 C1511 1.419 . S
C1513 C1514 1.362 . S
C1514 H1506 0.930 . S
C1514 C1513 1.362 . S
C1514 C1517 1.409 . S
C1515 H1507 0.930 . S
C1515 C1516 1.355 . S
C1515 C1517 1.415 1_565 S
C1516 C1515 1.355 . S
C1516 C1518 1.419 . S
C1517 C1512 1.425 1_545 S
C1517 C1514 1.409 . S
C1517 C1515 1.415 1_545 S
C1518 H1508 0.930 . S
C1518 C1516 1.419 . S
C1518 C1519 1.362 . S
C1519 H1509 0.930 . S
C1519 C1512 1.409 . S
C1519 C1518 1.362 . S
H1520 C1526 0.930 . S
H1521 C1529 0.931 . S
H1522 C1530 0.930 . S
H1523 C1531 0.930 . S
H1524 C1534 0.931 . S
H1525 C1535 0.930 . S
C1526 H1520 0.930 . S
C1526 C1527 1.355 . S
C1526 C1528 1.415 . S
C1527 C1526 1.355 . S
C1527 C1529 1.419 . S
C1528 C1526 1.415 . S
C1528 C1533 1.425 1_545 S
C1528 C1535 1.409 . S
C1529 H1521 0.931 . S
C1529 C1527 1.419 . S
C1529 C1530 1.362 1_545 S
C1530 H1522 0.930 . S
C1530 C1529 1.362 1_565 S
C1530 C1533 1.409 . S
C1531 H1523 0.930 . S
C1531 C1532 1.355 . S
C1531 C1533 1.415 . S
C1532 C1531 1.355 . S
C1532 C1534 1.419 . S
C1533 C1528 1.425 1_565 S
C1533 C1530 1.409 . S
C1533 C1531 1.415 . S
C1534 H1524 0.931 . S
C1534 C1532 1.419 . S
C1534 C1535 1.362 1_565 S
C1535 H1525 0.930 . S
C1535 C1528 1.409 . S
C1535 C1534 1.362 1_545 S
H1536 C1542 0.930 . S
H1537 C1545 0.930 . S
H1538 C1546 0.930 . S
H1539 C1547 0.930 . S
H1540 C1550 0.930 . S
H1541 C1551 0.930 . S
C1542 H1536 0.930 . S
C1542 C1543 1.355 . S
C1542 C1544 1.415 . S
C1543 C1542 1.355 . S
C1543 C1545 1.419 . S
C1544 C1542 1.415 . S
C1544 C1549 1.425 . S
C1544 C1551 1.409 . S
C1545 H1537 0.930 . S
C1545 C1543 1.419 . S
C1545 C1546 1.362 . S
C1546 H1538 0.930 . S
C1546 C1545 1.362 . S
C1546 C1549 1.409 . S
C1547 H1539 0.930 . S
C1547 C1548 1.355 . S
C1547 C1549 1.415 . S
C1548 C1547 1.355 . S
C1548 C1550 1.419 . S
C1549 C1544 1.425 . S
C1549 C1546 1.409 . S
C1549 C1547 1.415 . S
C1550 H1540 0.930 . S
C1550 C1548 1.419 . S
C1550 C1551 1.362 . S
C1551 H1541 0.930 . S
C1551 C1544 1.409 . S
C1551 C1550 1.362 . S
H1552 C1558 0.930 . S
H1553 C1561 0.930 . S
H1554 C1562 0.930 . S
H1555 C1563 0.930 . S
H1556 C1566 0.930 . S
H1557 C1567 0.930 . S
C1558 H1552 0.930 . S
C1558 C1559 1.355 . S
C1558 C1560 1.415 . S
C1559 C1558 1.355 . S
C1559 C1561 1.419 . S
C1560 C1558 1.415 . S
C1560 C1565 1.425 . S
C1560 C1567 1.409 . S
C1561 H1553 0.930 . S
C1561 C1559 1.419 . S
C1561 C1562 1.362 . S
C1562 H1554 0.930 . S
C1562 C1561 1.362 . S
C1562 C1565 1.409 . S
C1563 H1555 0.930 . S
C1563 C1564 1.355 . S
C1563 C1565 1.415 . S
C1564 C1563 1.355 . S
C1564 C1566 1.419 . S
C1565 C1560 1.425 . S
C1565 C1562 1.409 . S
C1565 C1563 1.415 . S
C1566 H1556 0.930 . S
C1566 C1564 1.419 . S
C1566 C1567 1.362 . S
C1567 H1557 0.930 . S
C1567 C1560 1.409 . S
C1567 C1566 1.362 . S
H1568 C1574 0.930 . S
H1569 C1577 0.930 . S
H1570 C1578 0.930 . S
H1571 C1579 0.930 . S
H1572 C1582 0.930 . S
H1573 C1583 0.930 . S
C1574 H1568 0.930 . S
C1574 C1575 1.355 . S
C1574 C1576 1.415 . S
C1575 C1574 1.355 . S
C1575 C1577 1.419 . S
C1576 C1574 1.415 . S
C1576 C1581 1.425 . S
C1576 C1583 1.409 . S
C1577 H1569 0.930 . S
C1577 C1575 1.419 . S
C1577 C1578 1.362 . S
C1578 H1570 0.930 . S
C1578 C1577 1.362 . S
C1578 C1581 1.409 . S
C1579 H1571 0.930 . S
C1579 C1580 1.355 . S
C1579 C1581 1.415 . S
C1580 C1579 1.355 . S
C1580 C1582 1.419 . S
C1581 C1576 1.425 . S
C1581 C1578 1.409 . S
C1581 C1579 1.415 . S
C1582 H1572 0.930 . S
C1582 C1580 1.419 . S
C1582 C1583 1.362 . S
C1583 H1573 0.930 . S
C1583 C1576 1.409 . S
C1583 C1582 1.362 . S
H1584 C1590 0.930 . S
H1585 C1593 0.930 . S
H1586 C1594 0.930 . S
H1587 C1595 0.930 . S
H1588 C1598 0.930 . S
H1589 C1599 0.930 . S
C1590 H1584 0.930 . S
C1590 C1591 1.355 . S
C1590 C1592 1.415 . S
C1591 C1590 1.355 . S
C1591 C1593 1.419 . S
C1592 C1590 1.415 . S
C1592 C1597 1.425 . S
C1592 C1599 1.409 . S
C1593 H1585 0.930 . S
C1593 C1591 1.419 . S
C1593 C1594 1.362 . S
C1594 H1586 0.930 . S
C1594 C1593 1.362 . S
C1594 C1597 1.409 . S
C1595 H1587 0.930 . S
C1595 C1596 1.355 . S
C1595 C1597 1.415 . S
C1596 C1595 1.355 . S
C1596 C1598 1.419 . S
C1597 C1592 1.425 . S
C1597 C1594 1.409 . S
C1597 C1595 1.415 . S
C1598 H1588 0.930 . S
C1598 C1596 1.419 . S
C1598 C1599 1.362 . S
C1599 H1589 0.930 . S
C1599 C1592 1.409 . S
C1599 C1598 1.362 . S
H1600 C1606 0.930 . S
H1601 C1609 0.930 . S
H1602 C1610 0.930 . S
H1603 C1611 0.930 . S
H1604 C1614 0.930 . S
H1605 C1615 0.930 . S
C1606 H1600 0.930 . S
C1606 C1607 1.355 . S
C1606 C1608 1.415 . S
C1607 C1606 1.355 . S
C1607 C1609 1.419 . S
C1608 C1606 1.415 . S
C1608 C1613 1.425 1_556 S
C1608 C1615 1.409 1_556 S
C1609 H1601 0.930 . S
C1609 C1607 1.419 . S
C1609 C1610 1.362 . S
C1610 H1602 0.930 . S
C1610 C1609 1.362 . S
C1610 C1613 1.409 1_556 S
C1611 H1603 0.930 . S
C1611 C1612 1.355 . S
C1611 C1613 1.415 . S
C1612 C1611 1.355 . S
C1612 C1614 1.419 . S
C1613 C1608 1.425 1_554 S
C1613 C1610 1.409 1_554 S
C1613 C1611 1.415 . S
C1614 H1604 0.930 . S
C1614 C1612 1.419 . S
C1614 C1615 1.362 . S
C1615 H1605 0.930 . S
C1615 C1608 1.409 1_554 S
C1615 C1614 1.362 . S
H1616 C1622 0.930 . S
H1617 C1625 0.930 . S
H1618 C1626 0.930 . S
H1619 C1627 0.930 . S
H1620 C1630 0.930 . S
H1621 C1631 0.930 . S
C1622 H1616 0.930 . S
C1622 C1623 1.355 . S
C1622 C1624 1.415 . S
C1623 C1622 1.355 . S
C1623 C1625 1.419 . S
C1624 C1622 1.415 . S
C1624 C1629 1.425 1_556 S
C1624 C1631 1.409 1_556 S
C1625 H1617 0.930 . S
C1625 C1623 1.419 . S
C1625 C1626 1.362 . S
C1626 H1618 0.930 . S
C1626 C1625 1.362 . S
C1626 C1629 1.409 1_556 S
C1627 H1619 0.930 . S
C1627 C1628 1.355 . S
C1627 C1629 1.415 . S
C1628 C1627 1.355 . S
C1628 C1630 1.419 . S
C1629 C1624 1.425 1_554 S
C1629 C1626 1.409 1_554 S
C1629 C1627 1.415 . S
C1630 H1620 0.930 . S
C1630 C1628 1.419 . S
C1630 C1631 1.362 . S
C1631 H1621 0.930 . S
C1631 C1624 1.409 1_554 S
C1631 C1630 1.362 . S
H1632 C1638 0.930 . S
H1633 C1641 0.930 . S
H1634 C1642 0.930 . S
H1635 C1643 0.930 . S
H1636 C1646 0.930 . S
H1637 C1647 0.930 . S
C1638 H1632 0.930 . S
C1638 C1639 1.355 . S
C1638 C1640 1.415 . S
C1639 C1638 1.355 . S
C1639 C1641 1.419 . S
C1640 C1638 1.415 . S
C1640 C1645 1.425 . S
C1640 C1647 1.409 . S
C1641 H1633 0.930 . S
C1641 C1639 1.419 . S
C1641 C1642 1.362 . S
C1642 H1634 0.930 . S
C1642 C1641 1.362 . S
C1642 C1645 1.409 . S
C1643 H1635 0.930 . S
C1643 C1644 1.355 . S
C1643 C1645 1.415 . S
C1644 C1643 1.355 . S
C1644 C1646 1.419 . S
C1645 C1640 1.425 . S
C1645 C1642 1.409 . S
C1645 C1643 1.415 . S
C1646 H1636 0.930 . S
C1646 C1644 1.419 . S
C1646 C1647 1.362 . S
C1647 H1637 0.930 . S
C1647 C1640 1.409 . S
C1647 C1646 1.362 . S
H1648 C1654 0.930 . S
H1649 C1657 0.930 . S
H1650 C1658 0.930 . S
H1651 C1659 0.930 . S
H1652 C1662 0.930 . S
H1653 C1663 0.930 . S
C1654 H1648 0.930 . S
C1654 C1655 1.355 . S
C1654 C1656 1.415 . S
C1655 C1654 1.355 . S
C1655 C1657 1.419 . S
C1656 C1654 1.415 . S
C1656 C1661 1.425 . S
C1656 C1663 1.409 . S
C1657 H1649 0.930 . S
C1657 C1655 1.419 . S
C1657 C1658 1.362 . S
C1658 H1650 0.930 . S
C1658 C1657 1.362 . S
C1658 C1661 1.409 . S
C1659 H1651 0.930 . S
C1659 C1660 1.355 . S
C1659 C1661 1.415 . S
C1660 C1659 1.355 . S
C1660 C1662 1.419 . S
C1661 C1656 1.425 . S
C1661 C1658 1.409 . S
C1661 C1659 1.415 . S
C1662 H1652 0.930 . S
C1662 C1660 1.419 . S
C1662 C1663 1.362 . S
C1663 H1653 0.930 . S
C1663 C1656 1.409 . S
C1663 C1662 1.362 . S
H1664 C1670 0.930 . S
H1665 C1673 0.930 . S
H1666 C1674 0.930 . S
H1667 C1675 0.930 . S
H1668 C1678 0.930 . S
H1669 C1679 0.930 . S
C1670 H1664 0.930 . S
C1670 C1671 1.355 . S
C1670 C1672 1.415 . S
C1671 C1670 1.355 . S
C1671 C1673 1.419 . S
C1672 C1670 1.415 . S
C1672 C1677 1.425 1_554 S
C1672 C1679 1.409 1_554 S
C1673 H1665 0.930 . S
C1673 C1671 1.419 . S
C1673 C1674 1.362 . S
C1674 H1666 0.930 . S
C1674 C1673 1.362 . S
C1674 C1677 1.409 1_554 S
C1675 H1667 0.930 . S
C1675 C1676 1.355 . S
C1675 C1677 1.415 . S
C1676 C1675 1.355 . S
C1676 C1678 1.419 . S
C1677 C1672 1.425 1_556 S
C1677 C1674 1.409 1_556 S
C1677 C1675 1.415 . S
C1678 H1668 0.930 . S
C1678 C1676 1.419 . S
C1678 C1679 1.362 . S
C1679 H1669 0.930 . S
C1679 C1672 1.409 1_556 S
C1679 C1678 1.362 . S
H1680 C1686 0.930 . S
H1681 C1689 0.930 . S
H1682 C1690 0.930 . S
H1683 C1691 0.930 . S
H1684 C1694 0.930 . S
H1685 C1695 0.930 . S
C1686 H1680 0.930 . S
C1686 C1687 1.355 . S
C1686 C1688 1.415 . S
C1687 C1686 1.355 . S
C1687 C1689 1.419 . S
C1688 C1686 1.415 . S
C1688 C1693 1.425 1_556 S
C1688 C1695 1.409 1_556 S
C1689 H1681 0.930 . S
C1689 C1687 1.419 . S
C1689 C1690 1.362 . S
C1690 H1682 0.930 . S
C1690 C1689 1.362 . S
C1690 C1693 1.409 1_556 S
C1691 H1683 0.930 . S
C1691 C1692 1.355 . S
C1691 C1693 1.415 . S
C1692 C1691 1.355 . S
C1692 C1694 1.419 . S
C1693 C1688 1.425 1_554 S
C1693 C1690 1.409 1_554 S
C1693 C1691 1.415 . S
C1694 H1684 0.930 . S
C1694 C1692 1.419 . S
C1694 C1695 1.362 . S
C1695 H1685 0.930 . S
C1695 C1688 1.409 1_554 S
C1695 C1694 1.362 . S
H1696 C1702 0.930 . S
H1697 C1705 0.930 . S
H1698 C1706 0.930 . S
H1699 C1707 0.930 . S
H1700 C1710 0.930 . S
H1701 C1711 0.930 . S
C1702 H1696 0.930 . S
C1702 C1703 1.355 . S
C1702 C1704 1.415 . S
C1703 C1702 1.355 . S
C1703 C1705 1.419 . S
C1704 C1702 1.415 . S
C1704 C1709 1.425 . S
C1704 C1711 1.409 . S
C1705 H1697 0.930 . S
C1705 C1703 1.419 . S
C1705 C1706 1.362 . S
C1706 H1698 0.930 . S
C1706 C1705 1.362 . S
C1706 C1709 1.409 . S
C1707 H1699 0.930 . S
C1707 C1708 1.355 . S
C1707 C1709 1.415 . S
C1708 C1707 1.355 . S
C1708 C1710 1.419 . S
C1709 C1704 1.425 . S
C1709 C1706 1.409 . S
C1709 C1707 1.415 . S
C1710 H1700 0.930 . S
C1710 C1708 1.419 . S
C1710 C1711 1.362 . S
C1711 H1701 0.930 . S
C1711 C1704 1.409 . S
C1711 C1710 1.362 . S
H1712 C1718 0.930 . S
H1713 C1721 0.930 . S
H1714 C1722 0.930 . S
H1715 C1723 0.930 . S
H1716 C1726 0.930 . S
H1717 C1727 0.930 . S
C1718 H1712 0.930 . S
C1718 C1719 1.355 . S
C1718 C1720 1.415 . S
C1719 C1718 1.355 . S
C1719 C1721 1.419 . S
C1720 C1718 1.415 . S
C1720 C1725 1.425 . S
C1720 C1727 1.409 . S
C1721 H1713 0.930 . S
C1721 C1719 1.419 . S
C1721 C1722 1.362 . S
C1722 H1714 0.930 . S
C1722 C1721 1.362 . S
C1722 C1725 1.409 . S
C1723 H1715 0.930 . S
C1723 C1724 1.355 . S
C1723 C1725 1.415 . S
C1724 C1723 1.355 . S
C1724 C1726 1.419 . S
C1725 C1720 1.425 . S
C1725 C1722 1.409 . S
C1725 C1723 1.415 . S
C1726 H1716 0.930 . S
C1726 C1724 1.419 . S
C1726 C1727 1.362 . S
C1727 H1717 0.930 . S
C1727 C1720 1.409 . S
C1727 C1726 1.362 . S
H1728 C1734 0.930 . S
H1729 C1737 0.930 . S
H1730 C1738 0.930 1_455 S
H1731 C1739 0.930 . S
H1732 C1742 0.930 . S
H1733 C1743 0.930 1_655 S
C1734 H1728 0.930 . S
C1734 C1735 1.355 . S
C1734 C1736 1.415 1_565 S
C1735 C1734 1.355 . S
C1735 C1737 1.419 . S
C1736 C1734 1.415 1_545 S
C1736 C1741 1.425 1_645 S
C1736 C1743 1.409 1_655 S
C1737 H1729 0.930 . S
C1737 C1735 1.419 . S
C1737 C1738 1.362 . S
C1738 H1730 0.930 1_655 S
C1738 C1737 1.362 . S
C1738 C1741 1.409 1_655 S
C1739 H1731 0.930 . S
C1739 C1740 1.355 . S
C1739 C1741 1.415 1_545 S
C1740 C1739 1.355 . S
C1740 C1742 1.419 . S
C1741 C1736 1.425 1_465 S
C1741 C1738 1.409 1_455 S
C1741 C1739 1.415 1_565 S
C1742 H1732 0.930 . S
C1742 C1740 1.419 . S
C1742 C1743 1.362 . S
C1743 H1733 0.930 1_455 S
C1743 C1736 1.409 1_455 S
C1743 C1742 1.362 . S
H1744 C1750 0.930 . S
H1745 C1753 0.930 . S
H1746 C1754 0.930 . S
H1747 C1755 0.930 . S
H1748 C1758 0.930 . S
H1749 C1759 0.930 . S
C1750 H1744 0.930 . S
C1750 C1751 1.355 . S
C1750 C1752 1.415 1_655 S
C1751 C1750 1.355 . S
C1751 C1753 1.419 1_545 S
C1752 C1750 1.415 1_455 S
C1752 C1757 1.425 1_445 S
C1752 C1759 1.409 . S
C1753 H1745 0.930 . S
C1753 C1751 1.419 1_565 S
C1753 C1754 1.362 . S
C1754 H1746 0.930 . S
C1754 C1753 1.362 . S
C1754 C1757 1.409 . S
C1755 H1747 0.930 . S
C1755 C1756 1.355 . S
C1755 C1757 1.415 1_455 S
C1756 C1755 1.355 . S
C1756 C1758 1.419 1_565 S
C1757 C1752 1.425 1_665 S
C1757 C1754 1.409 . S
C1757 C1755 1.415 1_655 S
C1758 H1748 0.930 . S
C1758 C1756 1.419 1_545 S
C1758 C1759 1.362 . S
C1759 H1749 0.930 . S
C1759 C1752 1.409 . S
C1759 C1758 1.362 . S
H1760 C1766 0.930 . S
H1761 C1769 0.930 . S
H1762 C1770 0.930 . S
H1763 C1771 0.930 . S
H1764 C1774 0.930 . S
H1765 C1775 0.930 . S
C1766 H1760 0.930 . S
C1766 C1767 1.355 . S
C1766 C1768 1.415 . S
C1767 C1766 1.355 . S
C1767 C1769 1.419 . S
C1768 C1766 1.415 . S
C1768 C1773 1.425 1_445 S
C1768 C1775 1.409 1_455 S
C1769 H1761 0.930 . S
C1769 C1767 1.419 . S
C1769 C1770 1.362 1_545 S
C1770 H1762 0.930 . S
C1770 C1769 1.362 1_565 S
C1770 C1773 1.409 1_455 S
C1771 H1763 0.930 . S
C1771 C1772 1.355 . S
C1771 C1773 1.415 . S
C1772 C1771 1.355 . S
C1772 C1774 1.419 . S
C1773 C1768 1.425 1_665 S
C1773 C1770 1.409 1_655 S
C1773 C1771 1.415 . S
C1774 H1764 0.930 . S
C1774 C1772 1.419 . S
C1774 C1775 1.362 1_565 S
C1775 H1765 0.930 . S
C1775 C1768 1.409 1_655 S
C1775 C1774 1.362 1_545 S
H1776 C1782 0.930 . S
H1777 C1785 0.930 . S
H1778 C1786 0.930 . S
H1779 C1787 0.930 . S
H1780 C1790 0.930 . S
H1781 C1791 0.930 . S
C1782 H1776 0.930 . S
C1782 C1783 1.355 1_565 S
C1782 C1784 1.415 . S
C1783 C1782 1.355 1_545 S
C1783 C1785 1.419 . S
C1784 C1782 1.415 . S
C1784 C1789 1.425 1_665 S
C1784 C1791 1.409 . S
C1785 H1777 0.930 . S
C1785 C1783 1.419 . S
C1785 C1786 1.362 1_655 S
C1786 H1778 0.930 . S
C1786 C1785 1.362 1_455 S
C1786 C1789 1.409 . S
C1787 H1779 0.930 . S
C1787 C1788 1.355 1_545 S
C1787 C1789 1.415 . S
C1788 C1787 1.355 1_565 S
C1788 C1790 1.419 . S
C1789 C1784 1.425 1_445 S
C1789 C1786 1.409 . S
C1789 C1787 1.415 . S
C1790 H1780 0.930 . S
C1790 C1788 1.419 . S
C1790 C1791 1.362 1_455 S
C1791 H1781 0.930 . S
C1791 C1784 1.409 . S
C1791 C1790 1.362 1_655 S
H1792 C1798 0.930 . S
H1793 C1801 0.930 . S
H1794 C1802 0.930 . S
H1795 C1803 0.930 . S
H1796 C1806 0.930 . S
H1797 C1807 0.930 . S
C1798 H1792 0.930 . S
C1798 C1799 1.355 . S
C1798 C1800 1.415 . S
C1799 C1798 1.355 . S
C1799 C1801 1.419 . S
C1800 C1798 1.415 . S
C1800 C1805 1.425 . S
C1800 C1807 1.409 . S
C1801 H1793 0.930 . S
C1801 C1799 1.419 . S
C1801 C1802 1.362 . S
C1802 H1794 0.930 . S
C1802 C1801 1.362 . S
C1802 C1805 1.409 . S
C1803 H1795 0.930 . S
C1803 C1804 1.355 . S
C1803 C1805 1.415 . S
C1804 C1803 1.355 . S
C1804 C1806 1.419 . S
C1805 C1800 1.425 . S
C1805 C1802 1.409 . S
C1805 C1803 1.415 . S
C1806 H1796 0.930 . S
C1806 C1804 1.419 . S
C1806 C1807 1.362 . S
C1807 H1797 0.930 . S
C1807 C1800 1.409 . S
C1807 C1806 1.362 . S
H1808 C1814 0.930 . S
H1809 C1817 0.930 . S
H1810 C1818 0.930 . S
H1811 C1819 0.930 . S
H1812 C1822 0.930 . S
H1813 C1823 0.930 . S
C1814 H1808 0.930 . S
C1814 C1815 1.355 . S
C1814 C1816 1.415 . S
C1815 C1814 1.355 . S
C1815 C1817 1.419 . S
C1816 C1814 1.415 . S
C1816 C1821 1.425 . S
C1816 C1823 1.409 . S
C1817 H1809 0.930 . S
C1817 C1815 1.419 . S
C1817 C1818 1.362 . S
C1818 H1810 0.930 . S
C1818 C1817 1.362 . S
C1818 C1821 1.409 . S
C1819 H1811 0.930 . S
C1819 C1820 1.355 . S
C1819 C1821 1.415 . S
C1820 C1819 1.355 . S
C1820 C1822 1.419 . S
C1821 C1816 1.425 . S
C1821 C1818 1.409 . S
C1821 C1819 1.415 . S
C1822 H1812 0.930 . S
C1822 C1820 1.419 . S
C1822 C1823 1.362 . S
C1823 H1813 0.930 . S
C1823 C1816 1.409 . S
C1823 C1822 1.362 . S
H1824 C1830 0.930 . S
H1825 C1833 0.930 . S
H1826 C1834 0.930 . S
H1827 C1835 0.930 . S
H1828 C1838 0.930 . S
H1829 C1839 0.930 . S
C1830 H1824 0.930 . S
C1830 C1831 1.355 . S
C1830 C1832 1.415 . S
C1831 C1830 1.355 . S
C1831 C1833 1.419 . S
C1832 C1830 1.415 . S
C1832 C1837 1.425 . S
C1832 C1839 1.409 . S
C1833 H1825 0.930 . S
C1833 C1831 1.419 . S
C1833 C1834 1.362 . S
C1834 H1826 0.930 . S
C1834 C1833 1.362 . S
C1834 C1837 1.409 . S
C1835 H1827 0.930 . S
C1835 C1836 1.355 . S
C1835 C1837 1.415 . S
C1836 C1835 1.355 . S
C1836 C1838 1.419 . S
C1837 C1832 1.425 . S
C1837 C1834 1.409 . S
C1837 C1835 1.415 . S
C1838 H1828 0.930 . S
C1838 C1836 1.419 . S
C1838 C1839 1.362 . S
C1839 H1829 0.930 . S
C1839 C1832 1.409 . S
C1839 C1838 1.362 . S
H1840 C1846 0.930 . S
H1841 C1849 0.930 . S
H1842 C1850 0.930 . S
H1843 C1851 0.930 . S
H1844 C1854 0.930 . S
H1845 C1855 0.930 . S
C1846 H1840 0.930 . S
C1846 C1847 1.355 . S
C1846 C1848 1.415 . S
C1847 C1846 1.355 . S
C1847 C1849 1.419 . S
C1848 C1846 1.415 . S
C1848 C1853 1.425 . S
C1848 C1855 1.409 . S
C1849 H1841 0.930 . S
C1849 C1847 1.419 . S
C1849 C1850 1.362 . S
C1850 H1842 0.930 . S
C1850 C1849 1.362 . S
C1850 C1853 1.409 . S
C1851 H1843 0.930 . S
C1851 C1852 1.355 . S
C1851 C1853 1.415 . S
C1852 C1851 1.355 . S
C1852 C1854 1.419 . S
C1853 C1848 1.425 . S
C1853 C1850 1.409 . S
C1853 C1851 1.415 . S
C1854 H1844 0.930 . S
C1854 C1852 1.419 . S
C1854 C1855 1.362 . S
C1855 H1845 0.930 . S
C1855 C1848 1.409 . S
C1855 C1854 1.362 . S
H1856 C1862 0.930 . S
H1857 C1865 0.930 . S
H1858 C1866 0.930 . S
H1859 C1867 0.930 . S
H1860 C1870 0.930 . S
H1861 C1871 0.930 . S
C1862 H1856 0.930 . S
C1862 C1863 1.355 . S
C1862 C1864 1.415 . S
C1863 C1862 1.355 . S
C1863 C1865 1.419 . S
C1864 C1862 1.415 . S
C1864 C1869 1.425 . S
C1864 C1871 1.409 . S
C1865 H1857 0.930 . S
C1865 C1863 1.419 . S
C1865 C1866 1.362 . S
C1866 H1858 0.930 . S
C1866 C1865 1.362 . S
C1866 C1869 1.409 . S
C1867 H1859 0.930 . S
C1867 C1868 1.355 . S
C1867 C1869 1.415 . S
C1868 C1867 1.355 . S
C1868 C1870 1.419 . S
C1869 C1864 1.425 . S
C1869 C1866 1.409 . S
C1869 C1867 1.415 . S
C1870 H1860 0.930 . S
C1870 C1868 1.419 . S
C1870 C1871 1.362 . S
C1871 H1861 0.930 . S
C1871 C1864 1.409 . S
C1871 C1870 1.362 . S
H1872 C1878 0.930 . S
H1873 C1881 0.930 . S
H1874 C1882 0.930 . S
H1875 C1883 0.930 . S
H1876 C1886 0.930 . S
H1877 C1887 0.930 . S
C1878 H1872 0.930 . S
C1878 C1879 1.355 . S
C1878 C1880 1.415 . S
C1879 C1878 1.355 . S
C1879 C1881 1.419 . S
C1880 C1878 1.415 . S
C1880 C1885 1.425 . S
C1880 C1887 1.409 . S
C1881 H1873 0.930 . S
C1881 C1879 1.419 . S
C1881 C1882 1.362 . S
C1882 H1874 0.930 . S
C1882 C1881 1.362 . S
C1882 C1885 1.409 . S
C1883 H1875 0.930 . S
C1883 C1884 1.355 . S
C1883 C1885 1.415 . S
C1884 C1883 1.355 . S
C1884 C1886 1.419 . S
C1885 C1880 1.425 . S
C1885 C1882 1.409 . S
C1885 C1883 1.415 . S
C1886 H1876 0.930 . S
C1886 C1884 1.419 . S
C1886 C1887 1.362 . S
C1887 H1877 0.930 . S
C1887 C1880 1.409 . S
C1887 C1886 1.362 . S
H1888 C1894 0.930 . S
H1889 C1897 0.930 . S
H1890 C1898 0.930 . S
H1891 C1899 0.930 . S
H1892 C1902 0.930 . S
H1893 C1903 0.930 . S
C1894 H1888 0.930 . S
C1894 C1895 1.355 . S
C1894 C1896 1.415 . S
C1895 C1894 1.355 . S
C1895 C1897 1.419 . S
C1896 C1894 1.415 . S
C1896 C1901 1.425 . S
C1896 C1903 1.409 . S
C1897 H1889 0.930 . S
C1897 C1895 1.419 . S
C1897 C1898 1.362 . S
C1898 H1890 0.930 . S
C1898 C1897 1.362 . S
C1898 C1901 1.409 . S
C1899 H1891 0.930 . S
C1899 C1900 1.355 . S
C1899 C1901 1.415 . S
C1900 C1899 1.355 . S
C1900 C1902 1.419 . S
C1901 C1896 1.425 . S
C1901 C1898 1.409 . S
C1901 C1899 1.415 . S
C1902 H1892 0.930 . S
C1902 C1900 1.419 . S
C1902 C1903 1.362 . S
C1903 H1893 0.930 . S
C1903 C1896 1.409 . S
C1903 C1902 1.362 . S
H1904 C1910 0.930 . S
H1905 C1913 0.930 . S
H1906 C1914 0.930 . S
H1907 C1915 0.930 . S
H1908 C1918 0.930 . S
H1909 C1919 0.930 . S
C1910 H1904 0.930 . S
C1910 C1911 1.355 . S
C1910 C1912 1.415 . S
C1911 C1910 1.355 . S
C1911 C1913 1.419 . S
C1912 C1910 1.415 . S
C1912 C1917 1.425 . S
C1912 C1919 1.409 . S
C1913 H1905 0.930 . S
C1913 C1911 1.419 . S
C1913 C1914 1.362 . S
C1914 H1906 0.930 . S
C1914 C1913 1.362 . S
C1914 C1917 1.409 . S
C1915 H1907 0.930 . S
C1915 C1916 1.355 . S
C1915 C1917 1.415 . S
C1916 C1915 1.355 . S
C1916 C1918 1.419 . S
C1917 C1912 1.425 . S
C1917 C1914 1.409 . S
C1917 C1915 1.415 . S
C1918 H1908 0.930 . S
C1918 C1916 1.419 . S
C1918 C1919 1.362 . S
C1919 H1909 0.930 . S
C1919 C1912 1.409 . S
C1919 C1918 1.362 . S
H1920 C1926 0.930 . S
H1921 C1929 0.930 . S
H1922 C1930 0.930 . S
H1923 C1931 0.930 . S
H1924 C1934 0.930 . S
H1925 C1935 0.930 . S
C1926 H1920 0.930 . S
C1926 C1927 1.355 . S
C1926 C1928 1.415 . S
C1927 C1926 1.355 . S
C1927 C1929 1.419 . S
C1928 C1926 1.415 . S
C1928 C1933 1.425 . S
C1928 C1935 1.409 . S
C1929 H1921 0.930 . S
C1929 C1927 1.419 . S
C1929 C1930 1.362 . S
C1930 H1922 0.930 . S
C1930 C1929 1.362 . S
C1930 C1933 1.409 . S
C1931 H1923 0.930 . S
C1931 C1932 1.355 . S
C1931 C1933 1.415 . S
C1932 C1931 1.355 . S
C1932 C1934 1.419 . S
C1933 C1928 1.425 . S
C1933 C1930 1.409 . S
C1933 C1931 1.415 . S
C1934 H1924 0.930 . S
C1934 C1932 1.419 . S
C1934 C1935 1.362 . S
C1935 H1925 0.930 . S
C1935 C1928 1.409 . S
C1935 C1934 1.362 . S
H1936 C1942 0.930 . S
H1937 C1945 0.930 . S
H1938 C1946 0.930 . S
H1939 C1947 0.930 . S
H1940 C1950 0.930 . S
H1941 C1951 0.930 . S
C1942 H1936 0.930 . S
C1942 C1943 1.355 . S
C1942 C1944 1.415 . S
C1943 C1942 1.355 . S
C1943 C1945 1.419 . S
C1944 C1942 1.415 . S
C1944 C1949 1.425 . S
C1944 C1951 1.409 . S
C1945 H1937 0.930 . S
C1945 C1943 1.419 . S
C1945 C1946 1.362 . S
C1946 H1938 0.930 . S
C1946 C1945 1.362 . S
C1946 C1949 1.409 . S
C1947 H1939 0.930 . S
C1947 C1948 1.355 . S
C1947 C1949 1.415 . S
C1948 C1947 1.355 . S
C1948 C1950 1.419 . S
C1949 C1944 1.425 . S
C1949 C1946 1.409 . S
C1949 C1947 1.415 . S
C1950 H1940 0.930 . S
C1950 C1948 1.419 . S
C1950 C1951 1.362 . S
C1951 H1941 0.930 . S
C1951 C1944 1.409 . S
C1951 C1950 1.362 . S
H1952 C1958 0.930 . S
H1953 C1961 0.930 . S
H1954 C1962 0.930 . S
H1955 C1963 0.930 . S
H1956 C1966 0.930 . S
H1957 C1967 0.930 . S
C1958 H1952 0.930 . S
C1958 C1959 1.355 . S
C1958 C1960 1.415 . S
C1959 C1958 1.355 . S
C1959 C1961 1.419 . S
C1960 C1958 1.415 . S
C1960 C1965 1.425 . S
C1960 C1967 1.409 . S
C1961 H1953 0.930 . S
C1961 C1959 1.419 . S
C1961 C1962 1.362 . S
C1962 H1954 0.930 . S
C1962 C1961 1.362 . S
C1962 C1965 1.409 . S
C1963 H1955 0.930 . S
C1963 C1964 1.355 . S
C1963 C1965 1.415 . S
C1964 C1963 1.355 . S
C1964 C1966 1.419 . S
C1965 C1960 1.425 . S
C1965 C1962 1.409 . S
C1965 C1963 1.415 . S
C1966 H1956 0.930 . S
C1966 C1964 1.419 . S
C1966 C1967 1.362 . S
C1967 H1957 0.930 . S
C1967 C1960 1.409 . S
C1967 C1966 1.362 . S
H1968 C1974 0.930 . S
H1969 C1977 0.930 . S
H1970 C1978 0.930 . S
H1971 C1979 0.930 . S
H1972 C1982 0.930 . S
H1973 C1983 0.930 . S
C1974 H1968 0.930 . S
C1974 C1975 1.355 . S
C1974 C1976 1.415 . S
C1975 C1974 1.355 . S
C1975 C1977 1.419 . S
C1976 C1974 1.415 . S
C1976 C1981 1.425 . S
C1976 C1983 1.409 . S
C1977 H1969 0.930 . S
C1977 C1975 1.419 . S
C1977 C1978 1.362 . S
C1978 H1970 0.930 . S
C1978 C1977 1.362 . S
C1978 C1981 1.409 . S
C1979 H1971 0.930 . S
C1979 C1980 1.355 . S
C1979 C1981 1.415 . S
C1980 C1979 1.355 . S
C1980 C1982 1.419 . S
C1981 C1976 1.425 . S
C1981 C1978 1.409 . S
C1981 C1979 1.415 . S
C1982 H1972 0.930 . S
C1982 C1980 1.419 . S
C1982 C1983 1.362 . S
C1983 H1973 0.930 . S
C1983 C1976 1.409 . S
C1983 C1982 1.362 . S
H1984 C1990 0.930 . S
H1985 C1993 0.930 1_565 S
H1986 C1994 0.930 . S
H1987 C1995 0.930 . S
H1988 C1998 0.930 . S
H1989 C1999 0.930 . S
C1990 H1984 0.930 . S
C1990 C1991 1.355 . S
C1990 C1992 1.415 . S
C1991 C1990 1.355 . S
C1991 C1993 1.419 . S
C1992 C1990 1.415 . S
C1992 C1997 1.425 . S
C1992 C1999 1.409 . S
C1993 H1985 0.930 1_545 S
C1993 C1991 1.419 . S
C1993 C1994 1.362 . S
C1994 H1986 0.930 . S
C1994 C1993 1.362 . S
C1994 C1997 1.409 . S
C1995 H1987 0.930 . S
C1995 C1996 1.355 . S
C1995 C1997 1.415 . S
C1996 C1995 1.355 . S
C1996 C1998 1.419 . S
C1997 C1992 1.425 . S
C1997 C1994 1.409 . S
C1997 C1995 1.415 . S
C1998 H1988 0.930 . S
C1998 C1996 1.419 . S
C1998 C1999 1.362 . S
C1999 H1989 0.930 . S
C1999 C1992 1.409 . S
C1999 C1998 1.362 . S
H2000 C2006 0.930 . S
H2001 C2009 0.930 . S
H2002 C2010 0.930 . S
H2003 C2011 0.930 . S
H2004 C2014 0.930 . S
H2005 C2015 0.930 . S
C2006 H2000 0.930 . S
C2006 C2007 1.355 . S
C2006 C2008 1.415 . S
C2007 C2006 1.355 . S
C2007 C2009 1.419 . S
C2008 C2006 1.415 . S
C2008 C2013 1.425 . S
C2008 C2015 1.409 . S
C2009 H2001 0.930 . S
C2009 C2007 1.419 . S
C2009 C2010 1.362 . S
C2010 H2002 0.930 . S
C2010 C2009 1.362 . S
C2010 C2013 1.409 . S
C2011 H2003 0.930 . S
C2011 C2012 1.355 . S
C2011 C2013 1.415 . S
C2012 C2011 1.355 . S
C2012 C2014 1.419 . S
C2013 C2008 1.425 . S
C2013 C2010 1.409 . S
C2013 C2011 1.415 . S
C2014 H2004 0.930 . S
C2014 C2012 1.419 . S
C2014 C2015 1.362 . S
C2015 H2005 0.930 . S
C2015 C2008 1.409 . S
C2015 C2014 1.362 . S
H2016 C2022 0.930 . S
H2017 C2025 0.930 . S
H2018 C2026 0.930 . S
H2019 C2027 0.930 . S
H2020 C2030 0.930 . S
H2021 C2031 0.930 . S
C2022 H2016 0.930 . S
C2022 C2023 1.355 . S
C2022 C2024 1.415 . S
C2023 C2022 1.355 . S
C2023 C2025 1.419 . S
C2024 C2022 1.415 . S
C2024 C2029 1.425 . S
C2024 C2031 1.409 . S
C2025 H2017 0.930 . S
C2025 C2023 1.419 . S
C2025 C2026 1.362 . S
C2026 H2018 0.930 . S
C2026 C2025 1.362 . S
C2026 C2029 1.409 . S
C2027 H2019 0.930 . S
C2027 C2028 1.355 . S
C2027 C2029 1.415 . S
C2028 C2027 1.355 . S
C2028 C2030 1.419 . S
C2029 C2024 1.425 . S
C2029 C2026 1.409 . S
C2029 C2027 1.415 . S
C2030 H2020 0.930 . S
C2030 C2028 1.419 . S
C2030 C2031 1.362 . S
C2031 H2021 0.930 . S
C2031 C2024 1.409 . S
C2031 C2030 1.362 . S
H2032 C2038 0.930 . S
H2033 C2041 0.930 . S
H2034 C2042 0.930 . S
H2035 C2043 0.930 . S
H2036 C2046 0.930 . S
H2037 C2047 0.930 . S
C2038 H2032 0.930 . S
C2038 C2039 1.355 . S
C2038 C2040 1.415 . S
C2039 C2038 1.355 . S
C2039 C2041 1.419 . S
C2040 C2038 1.415 . S
C2040 C2045 1.425 . S
C2040 C2047 1.409 . S
C2041 H2033 0.930 . S
C2041 C2039 1.419 . S
C2041 C2042 1.362 . S
C2042 H2034 0.930 . S
C2042 C2041 1.362 . S
C2042 C2045 1.409 . S
C2043 H2035 0.930 . S
C2043 C2044 1.355 . S
C2043 C2045 1.415 . S
C2044 C2043 1.355 . S
C2044 C2046 1.419 . S
C2045 C2040 1.425 . S
C2045 C2042 1.409 . S
C2045 C2043 1.415 . S
C2046 H2036 0.930 . S
C2046 C2044 1.419 . S
C2046 C2047 1.362 . S
C2047 H2037 0.930 . S
C2047 C2040 1.409 . S
C2047 C2046 1.362 . S
H2048 C2054 0.930 . S
H2049 C2057 0.930 . S
H2050 C2058 0.930 . S
H2051 C2059 0.930 . S
H2052 C2062 0.930 . S
H2053 C2063 0.930 . S
C2054 H2048 0.930 . S
C2054 C2055 1.355 . S
C2054 C2056 1.415 . S
C2055 C2054 1.355 . S
C2055 C2057 1.419 . S
C2056 C2054 1.415 . S
C2056 C2061 1.425 . S
C2056 C2063 1.409 . S
C2057 H2049 0.930 . S
C2057 C2055 1.419 . S
C2057 C2058 1.362 . S
C2058 H2050 0.930 . S
C2058 C2057 1.362 . S
C2058 C2061 1.409 . S
C2059 H2051 0.930 . S
C2059 C2060 1.355 . S
C2059 C2061 1.415 . S
C2060 C2059 1.355 . S
C2060 C2062 1.419 . S
C2061 C2056 1.425 . S
C2061 C2058 1.409 . S
C2061 C2059 1.415 . S
C2062 H2052 0.930 . S
C2062 C2060 1.419 . S
C2062 C2063 1.362 . S
C2063 H2053 0.930 . S
C2063 C2056 1.409 . S
C2063 C2062 1.362 . S
H2064 C2070 0.930 . S
H2065 C2073 0.930 . S
H2066 C2074 0.930 . S
H2067 C2075 0.930 . S
H2068 C2078 0.930 1_565 S
H2069 C2079 0.930 . S
C2070 H2064 0.930 . S
C2070 C2071 1.355 . S
C2070 C2072 1.415 . S
C2071 C2070 1.355 . S
C2071 C2073 1.419 . S
C2072 C2070 1.415 . S
C2072 C2077 1.425 . S
C2072 C2079 1.409 . S
C2073 H2065 0.930 . S
C2073 C2071 1.419 . S
C2073 C2074 1.362 . S
C2074 H2066 0.930 . S
C2074 C2073 1.362 . S
C2074 C2077 1.409 . S
C2075 H2067 0.930 . S
C2075 C2076 1.355 . S
C2075 C2077 1.415 . S
C2076 C2075 1.355 . S
C2076 C2078 1.419 . S
C2077 C2072 1.425 . S
C2077 C2074 1.409 . S
C2077 C2075 1.415 . S
C2078 H2068 0.930 1_545 S
C2078 C2076 1.419 . S
C2078 C2079 1.362 . S
C2079 H2069 0.930 . S
C2079 C2072 1.409 . S
C2079 C2078 1.362 . S
H2080 C2086 0.930 . S
H2081 C2089 0.930 . S
H2082 C2090 0.930 . S
H2083 C2091 0.930 . S
H2084 C2094 0.930 . S
H2085 C2095 0.930 . S
C2086 H2080 0.930 . S
C2086 C2087 1.355 . S
C2086 C2088 1.415 . S
C2087 C2086 1.355 . S
C2087 C2089 1.419 . S
C2088 C2086 1.415 . S
C2088 C2093 1.425 . S
C2088 C2095 1.409 . S
C2089 H2081 0.930 . S
C2089 C2087 1.419 . S
C2089 C2090 1.362 . S
C2090 H2082 0.930 . S
C2090 C2089 1.362 . S
C2090 C2093 1.409 . S
C2091 H2083 0.930 . S
C2091 C2092 1.355 . S
C2091 C2093 1.415 . S
C2092 C2091 1.355 . S
C2092 C2094 1.419 . S
C2093 C2088 1.425 . S
C2093 C2090 1.409 . S
C2093 C2091 1.415 . S
C2094 H2084 0.930 . S
C2094 C2092 1.419 . S
C2094 C2095 1.362 . S
C2095 H2085 0.930 . S
C2095 C2088 1.409 . S
C2095 C2094 1.362 . S
H2096 C2102 0.930 . S
H2097 C2105 0.930 . S
H2098 C2106 0.930 . S
H2099 C2107 0.930 . S
H2100 C2110 0.930 . S
H2101 C2111 0.930 . S
C2102 H2096 0.930 . S
C2102 C2103 1.355 . S
C2102 C2104 1.415 . S
C2103 C2102 1.355 . S
C2103 C2105 1.419 . S
C2104 C2102 1.415 . S
C2104 C2109 1.425 . S
C2104 C2111 1.409 . S
C2105 H2097 0.930 . S
C2105 C2103 1.419 . S
C2105 C2106 1.362 . S
C2106 H2098 0.930 . S
C2106 C2105 1.362 . S
C2106 C2109 1.409 . S
C2107 H2099 0.930 . S
C2107 C2108 1.355 . S
C2107 C2109 1.415 . S
C2108 C2107 1.355 . S
C2108 C2110 1.419 . S
C2109 C2104 1.425 . S
C2109 C2106 1.409 . S
C2109 C2107 1.415 . S
C2110 H2100 0.930 . S
C2110 C2108 1.419 . S
C2110 C2111 1.362 . S
C2111 H2101 0.930 . S
C2111 C2104 1.409 . S
C2111 C2110 1.362 . S
C1351 C56 1.474 . S
C1356 C812 1.470 . S
C1367 C140 1.402 . S
C1372 C728 1.435 . S
C1383 C980 1.469 . S
C1388 C224 1.474 . S
C1399 C308 1.479 . S
C1404 C896 1.454 . S
C1415 C1159 1.438 . S
C1420 C403 1.475 . S
C1431 C1075 1.451 . S
C1436 C487 1.478 . S
C1447 C1327 1.428 . S
C1452 C571 1.400 . S
C1463 C655 1.465 . S
C1468 C1243 1.477 . S
C1479 C234 1.649 . S
C1484 C66 1.606 . S
C1495 C318 1.620 . S
C1500 C150 1.639 . S
C1511 C579 1.604 . S
C1516 C411 1.648 . S
C1527 C495 1.648 . S
C1532 C663 1.608 . S
C1543 C906 1.648 . S
C1548 C738 1.604 . S
C1559 C990 1.623 . S
C1564 C822 1.624 . S
C1575 C1083 1.632 . S
C1580 C1251 1.616 . S
C1591 C1167 1.616 . S
C1596 C1335 1.632 . S
C1607 C486 1.676 . S
C1612 C75 1.739 . S
C1623 C402 1.704 . S
C1628 C159 1.712 . S
C1639 C243 1.745 . S
C1644 C654 1.671 . S
C1655 C570 1.670 . S
C1660 C327 1.746 . S
C1671 C747 1.674 . S
C1676 C1158 1.742 . S
C1687 C1074 1.698 . S
C1692 C831 1.718 . S
C1703 C915 1.721 . S
C1708 C1326 1.695 . S
C1719 C1242 1.738 . S
C1724 C999 1.678 . S
C1735 C151 1.478 . S
C1740 C67 1.445 . S
C1751 C319 1.418 . S
C1756 C235 1.404 . S
C1767 C476 1.429 . S
C1772 C392 1.402 . S
C1783 C560 1.479 . S
C1788 C644 1.460 . S
C1799 C823 1.448 . S
C1804 C739 1.479 . S
C1815 C991 1.413 . S
C1820 C907 1.456 . S
C1831 C1064 1.466 . S
C1836 C1148 1.423 . S
C1847 C1232 1.435 . S
C1852 C1316 1.403 . S
C1863 C72 1.293 . S
C1868 C63 1.293 . S
C1879 C156 1.393 . S
C1884 C147 1.393 . S
C1895 C240 1.286 . S
C1900 C231 1.286 . S
C1911 C315 1.387 . S
C1916 C324 1.387 . S
C1927 C399 1.306 . S
C1932 C408 1.306 . S
C1943 C492 1.381 . S
C1948 C483 1.381 . S
C1959 C567 1.358 . S
C1964 C576 1.358 . S
C1975 C651 1.287 . S
C1980 C660 1.287 . S
C1991 C735 1.316 1_545 S
C1996 C744 1.316 . S
C2007 C828 1.384 . S
C2012 C819 1.384 1_565 S
C2023 C903 1.382 1_565 S
C2028 C912 1.382 . S
C2039 C987 1.403 1_545 S
C2044 C996 1.403 . S
C2055 C1071 1.339 . S
C2060 C1080 1.339 1_565 S
C2071 C1155 1.260 . S
C2076 C1164 1.260 1_545 S
C2087 C1248 1.306 1_545 S
C2092 C1239 1.306 . S
C2103 C1323 1.380 . S
C2108 C1332 1.380 1_565 S
