# Generated by pormake.
# Topology ubt, (5)-cn, num edge types: 1
# Building blocks:
#     Node 0, Type 0, BuildingBlock: XOMCOT_clean_sbu_1, # of connection points: 5
#     Node 1, Type 0, BuildingBlock: XOMCOT_clean_sbu_1, # of connection points: 5
#     Node 2, Type 0, BuildingBlock: XOMCOT_clean_sbu_1, # of connection points: 5
#     Node 3, Type 0, BuildingBlock: XOMCOT_clean_sbu_1, # of connection points: 5
#     Node 4, Type 0, BuildingBlock: XOMCOT_clean_sbu_1, # of connection points: 5
#     Node 5, Type 0, BuildingBlock: XOMCOT_clean_sbu_1, # of connection points: 5
#     Node 6, Type 0, BuildingBlock: XOMCOT_clean_sbu_1, # of connection points: 5
#     Node 7, Type 0, BuildingBlock: XOMCOT_clean_sbu_1, # of connection points: 5
#     Node 8, Type 0, BuildingBlock: XOMCOT_clean_sbu_1, # of connection points: 5
#     Node 9, Type 0, BuildingBlock: XOMCOT_clean_sbu_1, # of connection points: 5
#     Node 10, Type 0, BuildingBlock: XOMCOT_clean_sbu_1, # of connection points: 5
#     Node 11, Type 0, BuildingBlock: XOMCOT_clean_sbu_1, # of connection points: 5
#     Node 12, Type 0, BuildingBlock: XOMCOT_clean_sbu_1, # of connection points: 5
#     Node 13, Type 0, BuildingBlock: XOMCOT_clean_sbu_1, # of connection points: 5
#     Node 14, Type 0, BuildingBlock: XOMCOT_clean_sbu_1, # of connection points: 5
#     Node 15, Type 0, BuildingBlock: XOMCOT_clean_sbu_1, # of connection points: 5
#     Node 16, Type 0, BuildingBlock: XOMCOT_clean_sbu_1, # of connection points: 5
#     Node 17, Type 0, BuildingBlock: XOMCOT_clean_sbu_1, # of connection points: 5
#     Node 18, Type 0, BuildingBlock: XOMCOT_clean_sbu_1, # of connection points: 5
#     Node 19, Type 0, BuildingBlock: XOMCOT_clean_sbu_1, # of connection points: 5
#     Node 20, Type 0, BuildingBlock: XOMCOT_clean_sbu_1, # of connection points: 5
#     Node 21, Type 0, BuildingBlock: XOMCOT_clean_sbu_1, # of connection points: 5
#     Node 22, Type 0, BuildingBlock: XOMCOT_clean_sbu_1, # of connection points: 5
#     Node 23, Type 0, BuildingBlock: XOMCOT_clean_sbu_1, # of connection points: 5
#     Node 24, Type 0, BuildingBlock: XOMCOT_clean_sbu_1, # of connection points: 5
#     Node 25, Type 0, BuildingBlock: XOMCOT_clean_sbu_1, # of connection points: 5
#     Node 26, Type 0, BuildingBlock: XOMCOT_clean_sbu_1, # of connection points: 5
#     Node 27, Type 0, BuildingBlock: XOMCOT_clean_sbu_1, # of connection points: 5
#     Node 28, Type 0, BuildingBlock: XOMCOT_clean_sbu_1, # of connection points: 5
#     Node 29, Type 0, BuildingBlock: XOMCOT_clean_sbu_1, # of connection points: 5
#     Node 30, Type 0, BuildingBlock: XOMCOT_clean_sbu_1, # of connection points: 5
#     Node 31, Type 0, BuildingBlock: XOMCOT_clean_sbu_1, # of connection points: 5
#     Node 32, Type 0, BuildingBlock: XOMCOT_clean_sbu_1, # of connection points: 5
#     Node 33, Type 0, BuildingBlock: XOMCOT_clean_sbu_1, # of connection points: 5
#     Node 34, Type 0, BuildingBlock: XOMCOT_clean_sbu_1, # of connection points: 5
#     Node 35, Type 0, BuildingBlock: XOMCOT_clean_sbu_1, # of connection points: 5
#     Node 36, Type 0, BuildingBlock: XOMCOT_clean_sbu_1, # of connection points: 5
#     Node 37, Type 0, BuildingBlock: XOMCOT_clean_sbu_1, # of connection points: 5
#     Node 38, Type 0, BuildingBlock: XOMCOT_clean_sbu_1, # of connection points: 5
#     Node 39, Type 0, BuildingBlock: XOMCOT_clean_sbu_1, # of connection points: 5
#     Node 40, Type 0, BuildingBlock: XOMCOT_clean_sbu_1, # of connection points: 5
#     Node 41, Type 0, BuildingBlock: XOMCOT_clean_sbu_1, # of connection points: 5
#     Node 42, Type 0, BuildingBlock: XOMCOT_clean_sbu_1, # of connection points: 5
#     Node 43, Type 0, BuildingBlock: XOMCOT_clean_sbu_1, # of connection points: 5
#     Node 44, Type 0, BuildingBlock: XOMCOT_clean_sbu_1, # of connection points: 5
#     Node 45, Type 0, BuildingBlock: XOMCOT_clean_sbu_1, # of connection points: 5
#     Node 46, Type 0, BuildingBlock: XOMCOT_clean_sbu_1, # of connection points: 5
#     Node 47, Type 0, BuildingBlock: XOMCOT_clean_sbu_1, # of connection points: 5
#     Edge 48, Type (0, 0), None
#     Edge 49, Type (0, 0), None
#     Edge 50, Type (0, 0), None
#     Edge 51, Type (0, 0), None
#     Edge 52, Type (0, 0), None
#     Edge 53, Type (0, 0), None
#     Edge 54, Type (0, 0), None
#     Edge 55, Type (0, 0), None
#     Edge 56, Type (0, 0), None
#     Edge 57, Type (0, 0), None
#     Edge 58, Type (0, 0), None
#     Edge 59, Type (0, 0), None
#     Edge 60, Type (0, 0), None
#     Edge 61, Type (0, 0), None
#     Edge 62, Type (0, 0), None
#     Edge 63, Type (0, 0), None
#     Edge 64, Type (0, 0), None
#     Edge 65, Type (0, 0), None
#     Edge 66, Type (0, 0), None
#     Edge 67, Type (0, 0), None
#     Edge 68, Type (0, 0), None
#     Edge 69, Type (0, 0), None
#     Edge 70, Type (0, 0), None
#     Edge 71, Type (0, 0), None
#     Edge 72, Type (0, 0), None
#     Edge 73, Type (0, 0), None
#     Edge 74, Type (0, 0), None
#     Edge 75, Type (0, 0), None
#     Edge 76, Type (0, 0), None
#     Edge 77, Type (0, 0), None
#     Edge 78, Type (0, 0), None
#     Edge 79, Type (0, 0), None
#     Edge 80, Type (0, 0), None
#     Edge 81, Type (0, 0), None
#     Edge 82, Type (0, 0), None
#     Edge 83, Type (0, 0), None
#     Edge 84, Type (0, 0), None
#     Edge 85, Type (0, 0), None
#     Edge 86, Type (0, 0), None
#     Edge 87, Type (0, 0), None
#     Edge 88, Type (0, 0), None
#     Edge 89, Type (0, 0), None
#     Edge 90, Type (0, 0), None
#     Edge 91, Type (0, 0), None
#     Edge 92, Type (0, 0), None
#     Edge 93, Type (0, 0), None
#     Edge 94, Type (0, 0), None
#     Edge 95, Type (0, 0), None
#     Edge 96, Type (0, 0), None
#     Edge 97, Type (0, 0), None
#     Edge 98, Type (0, 0), None
#     Edge 99, Type (0, 0), None
#     Edge 100, Type (0, 0), None
#     Edge 101, Type (0, 0), None
#     Edge 102, Type (0, 0), None
#     Edge 103, Type (0, 0), None
#     Edge 104, Type (0, 0), None
#     Edge 105, Type (0, 0), None
#     Edge 106, Type (0, 0), None
#     Edge 107, Type (0, 0), None
#     Edge 108, Type (0, 0), None
#     Edge 109, Type (0, 0), None
#     Edge 110, Type (0, 0), None
#     Edge 111, Type (0, 0), None
#     Edge 112, Type (0, 0), None
#     Edge 113, Type (0, 0), None
#     Edge 114, Type (0, 0), None
#     Edge 115, Type (0, 0), None
#     Edge 116, Type (0, 0), None
#     Edge 117, Type (0, 0), None
#     Edge 118, Type (0, 0), None
#     Edge 119, Type (0, 0), None
#     Edge 120, Type (0, 0), None
#     Edge 121, Type (0, 0), None
#     Edge 122, Type (0, 0), None
#     Edge 123, Type (0, 0), None
#     Edge 124, Type (0, 0), None
#     Edge 125, Type (0, 0), None
#     Edge 126, Type (0, 0), None
#     Edge 127, Type (0, 0), None
#     Edge 128, Type (0, 0), None
#     Edge 129, Type (0, 0), None
#     Edge 130, Type (0, 0), None
#     Edge 131, Type (0, 0), None
#     Edge 132, Type (0, 0), None
#     Edge 133, Type (0, 0), None
#     Edge 134, Type (0, 0), None
#     Edge 135, Type (0, 0), None
#     Edge 136, Type (0, 0), None
#     Edge 137, Type (0, 0), None
#     Edge 138, Type (0, 0), None
#     Edge 139, Type (0, 0), None
#     Edge 140, Type (0, 0), None
#     Edge 141, Type (0, 0), None
#     Edge 142, Type (0, 0), None
#     Edge 143, Type (0, 0), None
#     Edge 144, Type (0, 0), None
#     Edge 145, Type (0, 0), None
#     Edge 146, Type (0, 0), None
#     Edge 147, Type (0, 0), None
#     Edge 148, Type (0, 0), None
#     Edge 149, Type (0, 0), None
#     Edge 150, Type (0, 0), None
#     Edge 151, Type (0, 0), None
#     Edge 152, Type (0, 0), None
#     Edge 153, Type (0, 0), None
#     Edge 154, Type (0, 0), None
#     Edge 155, Type (0, 0), None
#     Edge 156, Type (0, 0), None
#     Edge 157, Type (0, 0), None
#     Edge 158, Type (0, 0), None
#     Edge 159, Type (0, 0), None
#     Edge 160, Type (0, 0), None
#     Edge 161, Type (0, 0), None
#     Edge 162, Type (0, 0), None
#     Edge 163, Type (0, 0), None
#     Edge 164, Type (0, 0), None
#     Edge 165, Type (0, 0), None
#     Edge 166, Type (0, 0), None
#     Edge 167, Type (0, 0), None
# Relax obj value: 0.235
# Max RMSD: 0.188
# Mean RMSD: 0.182
data_MOF--net-ubt--node1-XOMCOT_clean_sbu_1--edge1-none
_symmetry_space_group_name_H-M    P1
_symmetry_Int_Tables_number       1
_symmetry_cell_setting            triclinic
loop_
_symmetry_equiv_pos_as_xyz
'x, y, z'
_cell_length_a     36.686199
_cell_length_b     36.761103
_cell_length_c     36.701576
_cell_angle_alpha  90.004951
_cell_angle_beta   90.112766
_cell_angle_gamma 90.333284
loop_
_atom_site_label
_atom_site_type_symbol
_atom_site_fract_x
_atom_site_fract_y
_atom_site_fract_z
_atom_type_partial_charge
C0 C 0.98086 0.22425 0.13375 0.0
C1 C 0.95274 0.23609 0.1125 0.0
N2 N 0.93664 0.20689 0.09751 0.0
N3 N 0.98299 0.18743 0.13269 0.0
C4 C 0.95535 0.17763 0.11006 0.0
H5 H 0.99751 0.24205 0.15019 0.0
Co6 Co 0.01589 0.1585 0.16058 0.0
C7 C 0.96122 0.11985 0.21002 0.0
O8 O 0.97318 0.132 0.2415 0.0
N9 N 0.04887 0.13051 0.18935 0.0
C10 C 0.08 0.11031 0.23763 0.0
C11 C 0.05205 0.13184 0.22616 0.0
C12 C 0.07571 0.1074 0.17918 0.0
N13 N 0.09494 0.09484 0.20822 0.0
O14 O 0.05656 0.17861 0.13364 0.0
H15 H 0.03618 0.14853 0.24421 0.0
H16 H 0.0811 0.1001 0.15113 0.0
O17 O 0.97517 0.13132 0.18046 0.0
C18 C 0.07147 0.20788 0.12261 0.0
O19 O 0.06058 0.23946 0.1351 0.0
N20 N 0.01596 0.19544 0.19781 0.0
C21 C 0.01571 0.24994 0.25191 0.0
C22 C 0.98347 0.2317 0.2415 0.0
C23 C 0.98407 0.20542 0.21405 0.0
C24 C 0.04775 0.21208 0.20808 0.0
C25 C 0.04811 0.23973 0.23417 0.0
H26 H 0.95853 0.19347 0.20541 0.0
H27 H 0.07336 0.20368 0.19644 0.0
H28 H 0.94904 0.14967 0.10305 0.0
H29 H 0.9448 0.26412 0.10835 0.0
H30 H 0.08861 0.10629 0.26559 0.0
H31 H 0.95756 0.23714 0.2542 0.0
H32 H 0.07394 0.25278 0.23984 0.0
C33 C 0.9007 0.04777 0.22672 0.0
C34 C 0.92223 0.07583 0.2385 0.0
N35 N 0.93647 0.09222 0.20915 0.0
N36 N 0.90086 0.046 0.1898 0.0
C37 C 0.92321 0.07377 0.17986 0.0
H38 H 0.88462 0.03096 0.24461 0.0
Co39 Co 0.87238 0.01346 0.16089 0.0
C40 C 0.82289 0.06918 0.12374 0.0
O41 O 0.7915 0.05797 0.13682 0.0
N42 N 0.8431 0.98084 0.13286 0.0
C43 C 0.79438 0.95012 0.11262 0.0
C44 C 0.80622 0.97829 0.13389 0.0
C45 C 0.85294 0.95351 0.11016 0.0
N46 N 0.82363 0.93449 0.0976 0.0
O47 O 0.89925 0.97258 0.18063 0.0
H48 H 0.78841 0.99464 0.15035 0.0
H49 H 0.88095 0.94757 0.1032 0.0
O50 O 0.85241 0.0544 0.13412 0.0
C51 C 0.90981 0.95717 0.20979 0.0
O52 O 0.89696 0.96759 0.24145 0.0
N53 N 0.8355 0.01344 0.19823 0.0
C54 C 0.78134 0.01361 0.25277 0.0
C55 C 0.79258 0.04595 0.23538 0.0
C56 C 0.82003 0.04535 0.20909 0.0
C57 C 0.82457 0.98162 0.21415 0.0
C58 C 0.79844 0.98119 0.24177 0.0
H59 H 0.82918 0.07089 0.19767 0.0
H60 H 0.83569 0.95602 0.20513 0.0
H61 H 0.9295 0.08035 0.1518 0.0
H62 H 0.92707 0.08355 0.26659 0.0
H63 H 0.76628 0.94184 0.10844 0.0
H64 H 0.78052 0.07196 0.24142 0.0
H65 H 0.79223 0.95525 0.25411 0.0
C66 C 0.9803 0.8953 0.22586 0.0
C67 C 0.95244 0.91669 0.23773 0.0
N68 N 0.93705 0.93228 0.20855 0.0
N69 N 0.98296 0.89683 0.18903 0.0
C70 C 0.95592 0.91992 0.17926 0.0
H71 H 0.99645 0.87855 0.24365 0.0
Co72 Co 0.01564 0.86902 0.15983 0.0
C73 C 0.96017 0.81987 0.12157 0.0
O74 O 0.9716 0.78828 0.13355 0.0
N75 N 0.0483 0.84036 0.13149 0.0
C76 C 0.07847 0.79206 0.11045 0.0
C77 C 0.05082 0.80356 0.13239 0.0
C78 C 0.07527 0.85049 0.10832 0.0
N79 N 0.09392 0.82145 0.09524 0.0
O80 O 0.05652 0.89592 0.17973 0.0
H81 H 0.03471 0.78554 0.14906 0.0
H82 H 0.08112 0.87853 0.10126 0.0
O83 O 0.97476 0.84919 0.13294 0.0
C84 C 0.07098 0.90713 0.20918 0.0
O85 O 0.05952 0.89477 0.24072 0.0
N86 N 0.01573 0.83176 0.19674 0.0
C87 C 0.01581 0.7773 0.25092 0.0
C88 C 0.98345 0.78762 0.23304 0.0
C89 C 0.9839 0.81524 0.20693 0.0
C90 C 0.04762 0.82159 0.21299 0.0
C91 C 0.04814 0.79532 0.24047 0.0
H92 H 0.95829 0.82379 0.1953 0.0
H93 H 0.07319 0.83344 0.2044 0.0
H94 H 0.95011 0.92735 0.1513 0.0
H95 H 0.9442 0.92054 0.26579 0.0
H96 H 0.08656 0.76411 0.10602 0.0
H97 H 0.95755 0.77475 0.23863 0.0
H98 H 0.07407 0.78977 0.25319 0.0
C99 C 0.13154 0.97927 0.22556 0.0
C100 C 0.11028 0.95109 0.23745 0.0
N101 N 0.09566 0.9348 0.20818 0.0
N102 N 0.13084 0.98119 0.18865 0.0
C103 C 0.10843 0.95341 0.17883 0.0
H104 H 0.14786 0.99599 0.24337 0.0
Co105 Co 0.15898 0.01384 0.15961 0.0
C106 C 0.20807 0.95833 0.12185 0.0
O107 O 0.2396 0.96938 0.13484 0.0
N108 N 0.18804 0.04653 0.13151 0.0
C109 C 0.23673 0.07711 0.11113 0.0
C110 C 0.22495 0.0489 0.13232 0.0
C111 C 0.17812 0.07404 0.10904 0.0
N112 N 0.2074 0.09296 0.09641 0.0
O113 O 0.13234 0.05467 0.1797 0.0
H114 H 0.24286 0.03246 0.14864 0.0
H115 H 0.15007 0.08017 0.1023 0.0
O116 O 0.17865 0.97302 0.13254 0.0
C117 C 0.12212 0.06988 0.20906 0.0
O118 O 0.13533 0.05924 0.24055 0.0
N119 N 0.19621 0.01373 0.1966 0.0
C120 C 0.25068 0.01352 0.25091 0.0
C121 C 0.23948 0.9812 0.23342 0.0
C122 C 0.21185 0.98182 0.20724 0.0
C123 C 0.2072 0.04554 0.21253 0.0
C124 C 0.23346 0.04594 0.24008 0.0
H125 H 0.20266 0.95629 0.19579 0.0
H126 H 0.19599 0.07115 0.2036 0.0
H127 H 0.10176 0.94692 0.15081 0.0
H128 H 0.10588 0.94323 0.26555 0.0
H129 H 0.26482 0.08528 0.10686 0.0
H130 H 0.25169 0.95522 0.23935 0.0
H131 H 0.23964 0.07185 0.25253 0.0
C132 C 0.04832 0.89954 0.80547 0.0
C133 C 0.07638 0.92102 0.79365 0.0
N134 N 0.09284 0.93537 0.82297 0.0
N135 N 0.04662 0.89983 0.84239 0.0
C136 C 0.07442 0.92222 0.85228 0.0
H137 H 0.03148 0.8834 0.78758 0.0
Co138 Co 0.0141 0.87139 0.87128 0.0
C139 C 0.06978 0.82206 0.90856 0.0
O140 O 0.05833 0.79071 0.89563 0.0
N141 N 0.98149 0.84213 0.89925 0.0
C142 C 0.95074 0.79349 0.91937 0.0
C143 C 0.9788 0.80533 0.89798 0.0
C144 C 0.95433 0.85191 0.92221 0.0
N145 N 0.93531 0.82266 0.9347 0.0
O146 O 0.97311 0.89813 0.8516 0.0
H147 H 0.995 0.78757 0.88132 0.0
H148 H 0.94854 0.87985 0.92941 0.0
O149 O 0.05516 0.85155 0.89802 0.0
C150 C 0.95765 0.90879 0.82249 0.0
O151 O 0.96805 0.89609 0.79076 0.0
N152 N 0.01411 0.83459 0.83392 0.0
C153 C 0.01446 0.78049 0.77937 0.0
C154 C 0.0468 0.79169 0.79696 0.0
C155 C 0.04612 0.81912 0.82324 0.0
C156 C 0.98227 0.82372 0.81779 0.0
C157 C 0.98194 0.79761 0.79014 0.0
H158 H 0.07168 0.82826 0.83478 0.0
H159 H 0.9566 0.83484 0.82668 0.0
H160 H 0.08106 0.92862 0.88033 0.0
H161 H 0.08404 0.92576 0.76554 0.0
H162 H 0.9424 0.76546 0.92341 0.0
H163 H 0.07287 0.77959 0.79108 0.0
H164 H 0.956 0.79141 0.77761 0.0
C165 C 0.22499 0.97975 0.89834 0.0
C166 C 0.23679 0.95169 0.91961 0.0
N167 N 0.20752 0.93578 0.93465 0.0
N168 N 0.18811 0.98204 0.89943 0.0
C169 C 0.17824 0.95455 0.9221 0.0
H170 H 0.24284 0.99627 0.88188 0.0
Co171 Co 0.1591 0.0149 0.87154 0.0
C172 C 0.12045 0.96013 0.82204 0.0
O173 O 0.1326 0.97191 0.79054 0.0
N174 N 0.13096 0.04779 0.84284 0.0
C175 C 0.11038 0.07862 0.79456 0.0
C176 C 0.13205 0.05079 0.80601 0.0
C177 C 0.10789 0.07465 0.85303 0.0
N178 N 0.0951 0.0937 0.824 0.0
O179 O 0.17924 0.05549 0.89857 0.0
H180 H 0.14868 0.03487 0.78794 0.0
H181 H 0.10075 0.08016 0.88111 0.0
O182 O 0.1319 0.97426 0.85157 0.0
C183 C 0.20864 0.07027 0.90966 0.0
O184 O 0.24022 0.05927 0.89719 0.0
N185 N 0.19609 0.01504 0.8343 0.0
C186 C 0.2504 0.01499 0.77993 0.0
C187 C 0.23231 0.98274 0.7904 0.0
C188 C 0.20613 0.98325 0.81796 0.0
C189 C 0.21261 0.04682 0.82402 0.0
C190 C 0.24014 0.04728 0.79779 0.0
H191 H 0.19428 0.95772 0.82659 0.0
H192 H 0.20417 0.07235 0.83576 0.0
H193 H 0.15022 0.94838 0.92913 0.0
H194 H 0.26487 0.94367 0.92374 0.0
H195 H 0.10616 0.08707 0.7666 0.0
H196 H 0.23779 0.9569 0.77764 0.0
H197 H 0.25307 0.07311 0.79209 0.0
C198 C 0.97916 0.13091 0.80687 0.0
C199 C 0.95088 0.10957 0.7952 0.0
N200 N 0.93502 0.0948 0.82458 0.0
N201 N 0.98157 0.13012 0.84375 0.0
C202 C 0.95399 0.10756 0.85377 0.0
H203 H 0.99568 0.14726 0.78894 0.0
Co204 Co 0.01445 0.15819 0.87268 0.0
C205 C 0.95896 0.20733 0.91052 0.0
O206 O 0.97004 0.23881 0.89765 0.0
N207 N 0.04734 0.18714 0.90072 0.0
C208 C 0.07813 0.23568 0.92115 0.0
C209 C 0.0498 0.22397 0.89994 0.0
C210 C 0.07491 0.1772 0.92321 0.0
N211 N 0.09396 0.20639 0.93587 0.0
O212 O 0.05525 0.13137 0.85265 0.0
H213 H 0.0333 0.24185 0.88364 0.0
H214 H 0.08097 0.1492 0.92995 0.0
O215 O 0.97368 0.17799 0.89975 0.0
C216 C 0.07007 0.12083 0.82321 0.0
O217 O 0.05901 0.1337 0.79174 0.0
N218 N 0.01444 0.19528 0.83561 0.0
C219 C 0.01446 0.24967 0.7814 0.0
C220 C 0.98206 0.23874 0.79891 0.0
C221 C 0.98255 0.21116 0.82506 0.0
C222 C 0.04634 0.20599 0.81962 0.0
C223 C 0.04685 0.23222 0.79213 0.0
H224 H 0.95695 0.2022 0.83655 0.0
H225 H 0.07194 0.19459 0.82847 0.0
H226 H 0.9479 0.10079 0.88183 0.0
H227 H 0.94268 0.1052 0.76716 0.0
H228 H 0.08639 0.2637 0.92547 0.0
H229 H 0.95612 0.25116 0.793 0.0
H230 H 0.07279 0.23825 0.77962 0.0
C231 C 0.80418 0.049 0.90102 0.0
C232 C 0.79256 0.07667 0.92283 0.0
N233 N 0.822 0.09259 0.93764 0.0
N234 N 0.84109 0.04692 0.9016 0.0
C235 C 0.85118 0.0742 0.92446 0.0
H236 H 0.78615 0.03264 0.88453 0.0
Co237 Co 0.86979 0.01448 0.87308 0.0
C238 C 0.90741 0.07003 0.82374 0.0
O239 O 0.89459 0.05877 0.79227 0.0
N240 N 0.89758 0.98197 0.84368 0.0
C241 C 0.91733 0.95169 0.79478 0.0
C242 C 0.89606 0.97954 0.80682 0.0
C243 C 0.92057 0.95481 0.85329 0.0
N244 N 0.93285 0.93608 0.82387 0.0
O245 O 0.85003 0.97357 0.89983 0.0
H246 H 0.8793 0.99579 0.78913 0.0
H247 H 0.92797 0.94881 0.88122 0.0
O248 O 0.89662 0.0554 0.85323 0.0
C249 C 0.82074 0.95861 0.91086 0.0
O250 O 0.78904 0.96956 0.89851 0.0
N251 N 0.83237 0.01465 0.83627 0.0
C252 C 0.77786 0.01495 0.78196 0.0
C253 C 0.79567 0.04723 0.79291 0.0
C254 C 0.82193 0.04658 0.82047 0.0
C255 C 0.81601 0.98289 0.82568 0.0
C256 C 0.78836 0.98255 0.7995 0.0
H257 H 0.83364 0.07208 0.82942 0.0
H258 H 0.82473 0.95727 0.83703 0.0
H259 H 0.87928 0.08047 0.93119 0.0
H260 H 0.76452 0.08448 0.92742 0.0
H261 H 0.92112 0.94359 0.76667 0.0
H262 H 0.78999 0.07322 0.78055 0.0
H263 H 0.77567 0.95666 0.79357 0.0
C264 C 0.22501 0.13105 0.98134 0.0
C265 C 0.23685 0.10984 0.95329 0.0
N266 N 0.20757 0.09491 0.93723 0.0
N267 N 0.18809 0.13004 0.98346 0.0
C268 C 0.17824 0.10746 0.95588 0.0
H269 H 0.2429 0.14753 0.99786 0.0
Co270 Co 0.15915 0.15809 0.01615 0.0
C271 C 0.12163 0.20731 0.9605 0.0
O272 O 0.13465 0.23879 0.97149 0.0
N273 N 0.13121 0.18712 0.04884 0.0
C274 C 0.11118 0.23587 0.07905 0.0
C275 C 0.13236 0.22396 0.051 0.0
C276 C 0.10856 0.17739 0.07637 0.0
N277 N 0.09612 0.20672 0.09505 0.0
O278 O 0.17899 0.13127 0.057 0.0
H279 H 0.14891 0.24174 0.03453 0.0
H280 H 0.10152 0.14944 0.08267 0.0
O281 O 0.13229 0.17795 0.97529 0.0
C282 C 0.20839 0.12056 0.07182 0.0
O283 O 0.23997 0.13346 0.0609 0.0
N284 N 0.19634 0.19507 0.01616 0.0
C285 C 0.25083 0.2494 0.01612 0.0
C286 C 0.23315 0.23861 0.98374 0.0
C287 C 0.20691 0.21102 0.98425 0.0
C288 C 0.21243 0.20566 0.04805 0.0
C289 C 0.24011 0.23184 0.04853 0.0
H290 H 0.19536 0.20209 0.95866 0.0
H291 H 0.20354 0.19422 0.07365 0.0
H292 H 0.15021 0.10053 0.94953 0.0
H293 H 0.26495 0.10571 0.94535 0.0
H294 H 0.10715 0.26394 0.08703 0.0
H295 H 0.23895 0.25108 0.95776 0.0
H296 H 0.25268 0.23769 0.07449 0.0
C297 C 0.22495 0.89758 0.05037 0.0
C298 C 0.23658 0.91893 0.07859 0.0
N299 N 0.20719 0.93365 0.09427 0.0
N300 N 0.18808 0.89827 0.04783 0.0
C301 C 0.17802 0.92082 0.07524 0.0
H302 H 0.24289 0.88136 0.03391 0.0
Co303 Co 0.15918 0.8702 0.0149 0.0
C304 C 0.12099 0.82069 0.07002 0.0
O305 O 0.13329 0.7893 0.05841 0.0
N306 N 0.13104 0.8414 0.98192 0.0
C307 C 0.11006 0.79325 0.95099 0.0
C308 C 0.13188 0.80464 0.97899 0.0
C309 C 0.10799 0.85164 0.95491 0.0
N310 N 0.09494 0.8227 0.9358 0.0
O311 O 0.17925 0.89725 0.97422 0.0
H312 H 0.14841 0.78661 0.99511 0.0
H313 H 0.10101 0.87969 0.94937 0.0
O314 O 0.13207 0.85018 0.05559 0.0
C315 C 0.2086 0.90828 0.9594 0.0
O316 O 0.24019 0.89579 0.97045 0.0
N317 N 0.19629 0.83313 0.01507 0.0
C318 C 0.25042 0.77876 0.0156 0.0
C319 C 0.23265 0.78956 0.0478 0.0
C320 C 0.20656 0.81709 0.04705 0.0
C321 C 0.21261 0.82264 0.98336 0.0
C322 C 0.24001 0.79637 0.98312 0.0
H323 H 0.19489 0.82588 0.07254 0.0
H324 H 0.20408 0.83421 0.9577 0.0
H325 H 0.14995 0.92752 0.08119 0.0
H326 H 0.26462 0.92336 0.08685 0.0
H327 H 0.10558 0.76534 0.94253 0.0
H328 H 0.23829 0.77705 0.0738 0.0
H329 H 0.25272 0.79043 0.95731 0.0
C330 C 0.89796 0.22408 0.98183 0.0
C331 C 0.91934 0.23571 0.95368 0.0
N332 N 0.93421 0.20641 0.93804 0.0
N333 N 0.89881 0.18729 0.98441 0.0
C334 C 0.92145 0.17728 0.95704 0.0
H335 H 0.88164 0.24197 0.99825 0.0
Co336 Co 0.87081 0.15846 0.01742 0.0
C337 C 0.8212 0.11982 0.96267 0.0
O338 O 0.78975 0.13184 0.9745 0.0
N339 N 0.84207 0.1304 0.05049 0.0
C340 C 0.79396 0.10961 0.0816 0.0
C341 C 0.80526 0.13141 0.05364 0.0
C342 C 0.85242 0.10726 0.07734 0.0
N343 N 0.82349 0.09432 0.09656 0.0
O344 O 0.8979 0.17867 0.05801 0.0
H345 H 0.78713 0.14798 0.03767 0.0
H346 H 0.88053 0.10015 0.08271 0.0
O347 O 0.85079 0.13124 0.97681 0.0
C348 C 0.90906 0.20798 0.07276 0.0
O349 O 0.89666 0.23951 0.06161 0.0
N350 N 0.83358 0.19543 0.01717 0.0
C351 C 0.77955 0.24989 0.01654 0.0
C352 C 0.78998 0.23177 0.98441 0.0
C353 C 0.81735 0.20549 0.98521 0.0
C354 C 0.82333 0.21198 0.04884 0.0
C355 C 0.79725 0.23956 0.04902 0.0
H356 H 0.82593 0.19359 0.95975 0.0
H357 H 0.83498 0.20357 0.07451 0.0
H358 H 0.9283 0.14928 0.95113 0.0
H359 H 0.92367 0.26369 0.94542 0.0
H360 H 0.76603 0.10526 0.09018 0.0
H361 H 0.77734 0.23732 0.95843 0.0
H362 H 0.79157 0.25248 0.07478 0.0
C363 C 0.80499 0.89752 0.98233 0.0
C364 C 0.79289 0.91887 0.95446 0.0
N365 N 0.82203 0.93384 0.93828 0.0
N366 N 0.84193 0.89847 0.98417 0.0
C367 C 0.85153 0.92118 0.95666 0.0
H368 H 0.78728 0.88097 0.99887 0.0
Co369 Co 0.87126 0.8702 0.0163 0.0
C370 C 0.90799 0.82152 0.95962 0.0
O371 O 0.89492 0.78995 0.97021 0.0
N372 N 0.89962 0.84096 0.04841 0.0
C373 C 0.92036 0.792 0.07786 0.0
C374 C 0.89882 0.80409 0.05008 0.0
C375 C 0.92239 0.85054 0.07596 0.0
N376 N 0.93526 0.8211 0.09418 0.0
O377 O 0.85182 0.89665 0.05762 0.0
H378 H 0.88224 0.7864 0.03346 0.0
H379 H 0.92923 0.87847 0.08259 0.0
O380 O 0.89768 0.85072 0.97498 0.0
C381 C 0.82254 0.90704 0.07282 0.0
O382 O 0.79091 0.89398 0.0621 0.0
N383 N 0.83414 0.83315 0.01629 0.0
C384 C 0.7797 0.77874 0.01625 0.0
C385 C 0.79684 0.78998 0.98378 0.0
C386 C 0.82306 0.81759 0.98432 0.0
C387 C 0.81861 0.82212 0.04824 0.0
C388 C 0.79098 0.79589 0.04874 0.0
H389 H 0.83418 0.82685 0.9587 0.0
H390 H 0.8279 0.83328 0.07387 0.0
H391 H 0.87951 0.92808 0.95015 0.0
H392 H 0.76471 0.92308 0.94671 0.0
H393 H 0.92472 0.76388 0.08545 0.0
H394 H 0.79063 0.77787 0.95771 0.0
H395 H 0.77889 0.7897 0.0748 0.0
C396 C 0.98043 0.72495 0.63176 0.0
C397 C 0.9526 0.73654 0.61 0.0
N398 N 0.93667 0.70716 0.59517 0.0
N399 N 0.98258 0.68812 0.63114 0.0
C400 C 0.9552 0.67805 0.60831 0.0
H401 H 0.99688 0.74293 0.6482 0.0
Co402 Co 0.01525 0.65947 0.65951 0.0
C403 C 0.96015 0.62136 0.70891 0.0
O404 O 0.97184 0.63384 0.74036 0.0
N405 N 0.04802 0.63172 0.68872 0.0
C406 C 0.07894 0.61197 0.73732 0.0
C407 C 0.05096 0.6333 0.72554 0.0
C408 C 0.07498 0.60862 0.67887 0.0
N409 N 0.09411 0.59634 0.7081 0.0
O410 O 0.05609 0.67938 0.6327 0.0
H411 H 0.03492 0.65006 0.74337 0.0
H412 H 0.08057 0.60115 0.6509 0.0
O413 O 0.97439 0.63248 0.67935 0.0
C414 C 0.07108 0.7086 0.62162 0.0
O415 O 0.06011 0.74024 0.63388 0.0
N416 N 0.01508 0.69672 0.69642 0.0
C417 C 0.01466 0.7514 0.75038 0.0
C418 C 0.98241 0.73329 0.73972 0.0
C419 C 0.98311 0.70693 0.71235 0.0
C420 C 0.04684 0.71332 0.70684 0.0
C421 C 0.04712 0.74104 0.73284 0.0
H422 H 0.95759 0.69501 0.70357 0.0
H423 H 0.07252 0.70477 0.69543 0.0
H424 H 0.94898 0.65001 0.60155 0.0
H425 H 0.94471 0.76452 0.60542 0.0
H426 H 0.08741 0.60817 0.76535 0.0
H427 H 0.95641 0.73885 0.75218 0.0
H428 H 0.07298 0.75397 0.73862 0.0
C429 C 0.89928 0.54961 0.72583 0.0
C430 C 0.92077 0.57776 0.7375 0.0
N431 N 0.93534 0.59378 0.70811 0.0
N432 N 0.89981 0.54742 0.68894 0.0
C433 C 0.92232 0.57502 0.67891 0.0
H434 H 0.88301 0.53303 0.74376 0.0
Co435 Co 0.87156 0.51463 0.66007 0.0
C436 C 0.82224 0.5699 0.62212 0.0
O437 O 0.79076 0.55864 0.63494 0.0
N438 N 0.84248 0.48179 0.63208 0.0
C439 C 0.7939 0.45085 0.61181 0.0
C440 C 0.8056 0.47914 0.63299 0.0
C441 C 0.85246 0.45437 0.60954 0.0
N442 N 0.82325 0.43523 0.59697 0.0
O443 O 0.89839 0.47392 0.68018 0.0
H444 H 0.78768 0.49551 0.64932 0.0
H445 H 0.88052 0.44847 0.60271 0.0
O446 O 0.85172 0.55535 0.63294 0.0
C447 C 0.90892 0.45887 0.70955 0.0
O448 O 0.89606 0.46971 0.74106 0.0
N449 N 0.83446 0.51475 0.69718 0.0
C450 C 0.77999 0.51496 0.75139 0.0
C451 C 0.79107 0.54725 0.73382 0.0
C452 C 0.81868 0.54664 0.70768 0.0
C453 C 0.82365 0.48298 0.71328 0.0
C454 C 0.79738 0.48258 0.74075 0.0
H455 H 0.82772 0.57215 0.69612 0.0
H456 H 0.83497 0.45738 0.70451 0.0
H457 H 0.92891 0.58126 0.65083 0.0
H458 H 0.92535 0.58578 0.76555 0.0
H459 H 0.76584 0.44248 0.60759 0.0
H460 H 0.77876 0.57319 0.73964 0.0
H461 H 0.79128 0.4567 0.7533 0.0
C462 C 0.97898 0.39676 0.72647 0.0
C463 C 0.95118 0.41839 0.73801 0.0
N464 N 0.93606 0.43386 0.70864 0.0
N465 N 0.98192 0.39805 0.68965 0.0
C466 C 0.95505 0.42121 0.67955 0.0
H467 H 0.99492 0.38004 0.74449 0.0
Co468 Co 0.01478 0.36997 0.66089 0.0
C469 C 0.95948 0.32064 0.62256 0.0
O470 O 0.97079 0.28909 0.63476 0.0
N471 N 0.04762 0.34098 0.63303 0.0
C472 C 0.07801 0.2924 0.61296 0.0
C473 C 0.05008 0.30419 0.63438 0.0
C474 C 0.07489 0.3508 0.61006 0.0
N475 N 0.09368 0.32158 0.59758 0.0
O476 O 0.05555 0.39702 0.68081 0.0
H477 H 0.03374 0.28638 0.65105 0.0
H478 H 0.08089 0.37875 0.60277 0.0
O479 O 0.97404 0.34999 0.63389 0.0
C480 C 0.06969 0.4086 0.71028 0.0
O481 O 0.0579 0.39662 0.74184 0.0
N482 N 0.01461 0.33303 0.69812 0.0
C483 C 0.01449 0.27874 0.75243 0.0
C484 C 0.98221 0.28893 0.73436 0.0
C485 C 0.98274 0.31647 0.70817 0.0
C486 C 0.0464 0.32307 0.71468 0.0
C487 C 0.04682 0.2969 0.74224 0.0
H488 H 0.95719 0.32488 0.6963 0.0
H489 H 0.072 0.33495 0.70622 0.0
H490 H 0.94948 0.4285 0.6515 0.0
H491 H 0.94277 0.42245 0.766 0.0
H492 H 0.08611 0.26439 0.60896 0.0
H493 H 0.95633 0.27595 0.73986 0.0
H494 H 0.07266 0.29146 0.7552 0.0
C495 C 0.12999 0.481 0.72643 0.0
C496 C 0.10863 0.45295 0.73843 0.0
N497 N 0.09436 0.43627 0.7092 0.0
N498 N 0.12971 0.48246 0.68949 0.0
C499 C 0.10744 0.45454 0.67977 0.0
H500 H 0.14614 0.49793 0.74421 0.0
Co501 Co 0.15816 0.51479 0.66041 0.0
C502 C 0.20733 0.4587 0.62353 0.0
O503 O 0.23877 0.46962 0.63685 0.0
N504 N 0.18748 0.5472 0.63227 0.0
C505 C 0.23637 0.57746 0.61191 0.0
C506 C 0.22439 0.54938 0.63316 0.0
C507 C 0.17775 0.57467 0.60966 0.0
N508 N 0.20716 0.5934 0.59704 0.0
O509 O 0.13154 0.55585 0.68011 0.0
H510 H 0.24216 0.53291 0.6496 0.0
H511 H 0.14975 0.58091 0.60282 0.0
O512 O 0.17789 0.4737 0.63374 0.0
C513 C 0.12136 0.57147 0.70926 0.0
O514 O 0.13459 0.56127 0.74089 0.0
N515 N 0.19515 0.51479 0.69764 0.0
C516 C 0.24932 0.51458 0.75231 0.0
C517 C 0.23786 0.48221 0.73506 0.0
C518 C 0.2104 0.48284 0.70871 0.0
C519 C 0.20635 0.54664 0.71332 0.0
C520 C 0.23246 0.54706 0.74103 0.0
H521 H 0.20103 0.45729 0.69745 0.0
H522 H 0.19541 0.57226 0.70409 0.0
H523 H 0.10109 0.44769 0.65176 0.0
H524 H 0.10394 0.44542 0.76658 0.0
H525 H 0.26451 0.58547 0.60767 0.0
H526 H 0.24971 0.45614 0.74126 0.0
H527 H 0.23881 0.57306 0.75318 0.0
C528 C 0.04998 0.39806 0.30635 0.0
C529 C 0.07816 0.41944 0.29463 0.0
N530 N 0.09429 0.43408 0.32399 0.0
N531 N 0.04787 0.39871 0.34325 0.0
C532 C 0.07555 0.42122 0.35322 0.0
H533 H 0.03331 0.38177 0.28844 0.0
Co534 Co 0.01507 0.37056 0.3721 0.0
C535 C 0.07022 0.32133 0.41019 0.0
O536 O 0.05869 0.28992 0.39752 0.0
N537 N 0.9822 0.34155 0.40005 0.0
C538 C 0.95117 0.29311 0.42022 0.0
C539 C 0.97936 0.30475 0.39891 0.0
C540 C 0.95498 0.35153 0.42284 0.0
N541 N 0.93579 0.3224 0.43536 0.0
O542 O 0.97428 0.39731 0.35205 0.0
H543 H 0.99555 0.28685 0.38239 0.0
H544 H 0.94926 0.37952 0.42991 0.0
O545 O 0.05588 0.3508 0.39922 0.0
C546 C 0.95918 0.40793 0.32273 0.0
O547 O 0.96995 0.39518 0.29116 0.0
N548 N 0.01518 0.33352 0.33498 0.0
C549 C 0.01554 0.27912 0.28078 0.0
C550 C 0.04784 0.29014 0.29854 0.0
C551 C 0.04716 0.31774 0.32466 0.0
C552 C 0.98338 0.32279 0.31868 0.0
C553 C 0.98307 0.29653 0.29119 0.0
H554 H 0.0727 0.32675 0.33635 0.0
H555 H 0.95772 0.33413 0.32731 0.0
H556 H 0.08188 0.42789 0.38128 0.0
H557 H 0.08613 0.4239 0.26657 0.0
H558 H 0.9427 0.26512 0.42432 0.0
H559 H 0.07383 0.27778 0.29287 0.0
H560 H 0.9572 0.29044 0.27845 0.0
C561 C 0.22563 0.47897 0.4003 0.0
C562 C 0.23715 0.45121 0.4221 0.0
N563 N 0.20768 0.43553 0.437 0.0
N564 N 0.18875 0.48133 0.40096 0.0
C565 C 0.17858 0.45415 0.42385 0.0
H566 H 0.24369 0.49526 0.38383 0.0
Co567 Co 0.16006 0.51401 0.3726 0.0
C568 C 0.12191 0.45884 0.32313 0.0
O569 O 0.13441 0.47031 0.29165 0.0
N570 N 0.1322 0.54674 0.34345 0.0
C571 C 0.11209 0.57734 0.29484 0.0
C572 C 0.13353 0.54946 0.30661 0.0
C573 C 0.10918 0.57376 0.35332 0.0
N574 N 0.09668 0.59269 0.32408 0.0
O575 O 0.18005 0.55475 0.39951 0.0
H576 H 0.1502 0.53334 0.28877 0.0
H577 H 0.1019 0.57949 0.38131 0.0
O578 O 0.13302 0.47326 0.35264 0.0
C579 C 0.20942 0.56954 0.41065 0.0
O580 O 0.24104 0.55841 0.39842 0.0
N581 N 0.19737 0.51389 0.33567 0.0
C582 C 0.25184 0.51366 0.28143 0.0
C583 C 0.23388 0.48141 0.29214 0.0
C584 C 0.20762 0.48202 0.31963 0.0
C585 C 0.21386 0.54564 0.32526 0.0
C586 C 0.24147 0.54601 0.29911 0.0
H587 H 0.19579 0.45652 0.32838 0.0
H588 H 0.20529 0.57123 0.33677 0.0
H589 H 0.15047 0.44813 0.43066 0.0
H590 H 0.26516 0.4432 0.42667 0.0
H591 H 0.10809 0.58563 0.26679 0.0
H592 H 0.23947 0.45548 0.27961 0.0
H593 H 0.25428 0.57186 0.29332 0.0
C594 C 0.98101 0.62946 0.30597 0.0
C595 C 0.95284 0.60805 0.29419 0.0
N596 N 0.9366 0.59362 0.32353 0.0
N597 N 0.98299 0.62905 0.34288 0.0
C598 C 0.95526 0.60664 0.35281 0.0
H599 H 0.99774 0.64563 0.28808 0.0
Co600 Co 0.01563 0.65735 0.37185 0.0
C601 C 0.95969 0.70667 0.4089 0.0
O602 O 0.97074 0.73806 0.39578 0.0
N603 N 0.0483 0.68651 0.39992 0.0
C604 C 0.07888 0.73519 0.42031 0.0
C605 C 0.05067 0.72334 0.39901 0.0
C606 C 0.07578 0.67672 0.42257 0.0
N607 N 0.09471 0.70599 0.43522 0.0
O608 O 0.05659 0.6305 0.35219 0.0
H609 H 0.0342 0.7411 0.38257 0.0
H610 H 0.08188 0.64875 0.42945 0.0
O611 O 0.97463 0.67728 0.39856 0.0
C612 C 0.07178 0.61992 0.32295 0.0
O613 O 0.06113 0.63277 0.29133 0.0
N614 N 0.01575 0.69422 0.33455 0.0
C615 C 0.01579 0.7483 0.28 0.0
C616 C 0.98335 0.73723 0.29735 0.0
C617 C 0.98383 0.70981 0.32365 0.0
C618 C 0.04769 0.70504 0.31873 0.0
C619 C 0.04822 0.73113 0.29108 0.0
H620 H 0.95821 0.70074 0.335 0.0
H621 H 0.0733 0.69384 0.32782 0.0
H622 H 0.94883 0.60016 0.38086 0.0
H623 H 0.94495 0.60342 0.2661 0.0
H624 H 0.08705 0.76324 0.42457 0.0
H625 H 0.95735 0.74941 0.29125 0.0
H626 H 0.07423 0.73726 0.27876 0.0
C627 C 0.80488 0.5486 0.39901 0.0
C628 C 0.79301 0.57657 0.4203 0.0
N629 N 0.82227 0.59264 0.4353 0.0
N630 N 0.84178 0.54651 0.40005 0.0
C631 C 0.8516 0.57405 0.42271 0.0
H632 H 0.78702 0.53206 0.38251 0.0
Co633 Co 0.87075 0.51382 0.37201 0.0
C634 C 0.90897 0.56888 0.32262 0.0
O635 O 0.89651 0.55731 0.29111 0.0
N636 N 0.89876 0.48108 0.34306 0.0
C637 C 0.9189 0.45052 0.2945 0.0
C638 C 0.89745 0.47837 0.30621 0.0
C639 C 0.92177 0.45405 0.353 0.0
N640 N 0.93429 0.43517 0.32378 0.0
O641 O 0.85077 0.47309 0.39891 0.0
H642 H 0.88074 0.49443 0.28829 0.0
H643 H 0.92903 0.44827 0.38102 0.0
O644 O 0.89779 0.55458 0.35213 0.0
C645 C 0.82142 0.45823 0.40992 0.0
O646 O 0.78979 0.46914 0.39739 0.0
N647 N 0.83364 0.51377 0.3349 0.0
C648 C 0.77931 0.51391 0.28044 0.0
C649 C 0.7973 0.54617 0.2911 0.0
C650 C 0.82346 0.54561 0.31874 0.0
C651 C 0.81718 0.48199 0.32448 0.0
C652 C 0.78961 0.48158 0.29822 0.0
H653 H 0.83525 0.57113 0.32753 0.0
H654 H 0.82572 0.45643 0.3361 0.0
H655 H 0.87962 0.58039 0.4297 0.0
H656 H 0.76492 0.58444 0.42444 0.0
H657 H 0.92289 0.44224 0.26646 0.0
H658 H 0.79179 0.57206 0.27845 0.0
H659 H 0.77674 0.45574 0.29243 0.0
C660 C 0.22551 0.63091 0.48189 0.0
C661 C 0.23748 0.60945 0.45408 0.0
N662 N 0.20826 0.59439 0.43802 0.0
N663 N 0.18859 0.62992 0.48385 0.0
C664 C 0.17885 0.6071 0.45642 0.0
H665 H 0.24333 0.64752 0.49835 0.0
Co666 Co 0.15948 0.65818 0.51615 0.0
C667 C 0.12225 0.70707 0.46 0.0
O668 O 0.13513 0.73862 0.47094 0.0
N669 N 0.13137 0.68743 0.54845 0.0
C670 C 0.11115 0.73636 0.57825 0.0
C671 C 0.13255 0.72428 0.55045 0.0
C672 C 0.10849 0.67786 0.57584 0.0
N673 N 0.09593 0.70729 0.59427 0.0
O674 O 0.17904 0.6316 0.55731 0.0
H675 H 0.14926 0.74196 0.53401 0.0
H676 H 0.10136 0.64995 0.58221 0.0
O677 O 0.13287 0.67778 0.47498 0.0
C678 C 0.20834 0.62088 0.57232 0.0
O679 O 0.24 0.6336 0.56143 0.0
N680 N 0.19669 0.69514 0.51614 0.0
C681 C 0.25108 0.74956 0.51609 0.0
C682 C 0.23358 0.73857 0.48368 0.0
C683 C 0.20739 0.71093 0.4842 0.0
C684 C 0.21264 0.70589 0.54805 0.0
C685 C 0.24026 0.73212 0.54853 0.0
H686 H 0.19598 0.70186 0.4586 0.0
H687 H 0.20365 0.69455 0.57367 0.0
H688 H 0.15084 0.60013 0.45001 0.0
H689 H 0.26561 0.60524 0.44629 0.0
H690 H 0.10709 0.76446 0.58607 0.0
H691 H 0.23948 0.75092 0.45767 0.0
H692 H 0.2527 0.73812 0.57452 0.0
C693 C 0.13121 0.30434 0.48168 0.0
C694 C 0.10967 0.29276 0.45354 0.0
N695 N 0.09505 0.32213 0.43772 0.0
N696 N 0.13069 0.34116 0.48405 0.0
C697 C 0.10811 0.35123 0.45659 0.0
H698 H 0.14743 0.28642 0.4982 0.0
Co699 Co 0.1589 0.36991 0.51697 0.0
C700 C 0.20841 0.40831 0.46206 0.0
O701 O 0.23984 0.39603 0.47379 0.0
N702 N 0.18784 0.39789 0.54998 0.0
C703 C 0.23609 0.41848 0.58119 0.0
C704 C 0.22466 0.39686 0.55309 0.0
C705 C 0.17761 0.4209 0.57694 0.0
N706 N 0.20662 0.4337 0.59624 0.0
O707 O 0.13194 0.34972 0.55764 0.0
H708 H 0.24271 0.38034 0.53704 0.0
H709 H 0.14952 0.42798 0.58236 0.0
O710 O 0.17883 0.39711 0.47628 0.0
C711 C 0.12103 0.32047 0.57266 0.0
O712 O 0.13354 0.28893 0.56172 0.0
N713 N 0.19604 0.33285 0.51665 0.0
C714 C 0.25011 0.27842 0.51593 0.0
C715 C 0.23933 0.29638 0.48378 0.0
C716 C 0.21195 0.32265 0.48464 0.0
C717 C 0.20657 0.3164 0.54832 0.0
C718 C 0.23267 0.28884 0.54846 0.0
H719 H 0.20315 0.33447 0.45919 0.0
H720 H 0.19514 0.32489 0.57402 0.0
H721 H 0.1015 0.37926 0.45054 0.0
H722 H 0.10506 0.26478 0.44541 0.0
H723 H 0.26405 0.42276 0.58981 0.0
H724 H 0.25173 0.29074 0.45776 0.0
H725 H 0.23859 0.27602 0.57424 0.0
C726 C 0.89759 0.72394 0.47916 0.0
C727 C 0.91928 0.73534 0.45114 0.0
N728 N 0.93461 0.70594 0.43613 0.0
N729 N 0.89872 0.6872 0.4823 0.0
C730 C 0.92181 0.677 0.45538 0.0
H731 H 0.881 0.74196 0.49516 0.0
Co732 Co 0.87074 0.65839 0.51537 0.0
C733 C 0.82117 0.62013 0.46004 0.0
O734 O 0.78957 0.63241 0.47119 0.0
N735 N 0.84199 0.6303 0.54837 0.0
C736 C 0.79359 0.60952 0.57904 0.0
C737 C 0.80513 0.63102 0.55095 0.0
C738 C 0.85214 0.60761 0.57568 0.0
N739 N 0.82303 0.5947 0.59465 0.0
O740 O 0.89799 0.67842 0.55597 0.0
H741 H 0.78712 0.64731 0.53456 0.0
H742 H 0.88023 0.60083 0.58157 0.0
O743 O 0.85054 0.63133 0.47477 0.0
C744 C 0.90934 0.70794 0.57014 0.0
O745 O 0.89719 0.73932 0.55834 0.0
N746 N 0.83358 0.69542 0.51558 0.0
C747 C 0.77931 0.74964 0.51617 0.0
C748 C 0.78947 0.73192 0.48371 0.0
C749 C 0.81695 0.70574 0.48391 0.0
C750 C 0.82357 0.71156 0.54754 0.0
C751 C 0.79739 0.73902 0.54832 0.0
H752 H 0.82529 0.69411 0.45824 0.0
H753 H 0.83548 0.7029 0.57301 0.0
H754 H 0.92898 0.64897 0.44998 0.0
H755 H 0.92352 0.76324 0.44255 0.0
H756 H 0.76558 0.60507 0.58729 0.0
H757 H 0.77652 0.73771 0.45794 0.0
H758 H 0.79194 0.75162 0.5743 0.0
C759 C 0.80532 0.39771 0.4818 0.0
C760 C 0.79336 0.41886 0.45371 0.0
N761 N 0.82258 0.43366 0.43754 0.0
N762 N 0.84225 0.39861 0.4838 0.0
C763 C 0.85199 0.4211 0.45615 0.0
H764 H 0.78751 0.3813 0.49839 0.0
Co765 Co 0.87137 0.37051 0.51632 0.0
C766 C 0.90833 0.32146 0.46013 0.0
O767 O 0.89509 0.28997 0.47078 0.0
N768 N 0.8995 0.34144 0.54881 0.0
C769 C 0.92 0.29261 0.57865 0.0
C770 C 0.89869 0.30457 0.55064 0.0
C771 C 0.92206 0.35114 0.57651 0.0
N772 N 0.93478 0.32177 0.59497 0.0
O773 O 0.85167 0.39722 0.55733 0.0
H774 H 0.88224 0.28681 0.53398 0.0
H775 H 0.92885 0.37909 0.58307 0.0
O776 O 0.89802 0.35075 0.4753 0.0
C777 C 0.8223 0.40763 0.57235 0.0
O778 O 0.79075 0.39444 0.56159 0.0
N779 N 0.83422 0.33348 0.51629 0.0
C780 C 0.77987 0.27898 0.51624 0.0
C781 C 0.79712 0.29012 0.4838 0.0
C782 C 0.8233 0.31778 0.48434 0.0
C783 C 0.81854 0.32258 0.54822 0.0
C784 C 0.79095 0.29631 0.5487 0.0
H785 H 0.83453 0.32694 0.45873 0.0
H786 H 0.82769 0.33387 0.57384 0.0
H787 H 0.88 0.42791 0.4497 0.0
H788 H 0.76522 0.42304 0.44582 0.0
H789 H 0.92429 0.26452 0.58641 0.0
H790 H 0.79106 0.27789 0.45775 0.0
H791 H 0.77875 0.29021 0.57473 0.0
C792 C 0.47989 0.2249 0.6314 0.0
C793 C 0.45211 0.23643 0.60954 0.0
N794 N 0.4363 0.20703 0.59466 0.0
N795 N 0.48212 0.18807 0.63077 0.0
C796 C 0.45485 0.17795 0.60785 0.0
H797 H 0.49626 0.24291 0.64789 0.0
Co798 Co 0.51477 0.15943 0.6592 0.0
C799 C 0.45939 0.12157 0.70858 0.0
O800 O 0.47084 0.13421 0.74006 0.0
N801 N 0.54748 0.13168 0.68846 0.0
C802 C 0.57817 0.1119 0.73719 0.0
C803 C 0.55018 0.13315 0.72531 0.0
C804 C 0.5746 0.10872 0.67871 0.0
N805 N 0.59359 0.09643 0.70802 0.0
O806 O 0.55565 0.17927 0.63237 0.0
H807 H 0.53399 0.14982 0.74308 0.0
H808 H 0.5804 0.10137 0.65075 0.0
O809 O 0.47387 0.13253 0.67909 0.0
C810 C 0.57054 0.20853 0.62128 0.0
O811 O 0.55947 0.24014 0.63351 0.0
N812 N 0.5147 0.19673 0.69607 0.0
C813 C 0.51454 0.2512 0.75023 0.0
C814 C 0.4822 0.23331 0.73948 0.0
C815 C 0.48277 0.20705 0.71201 0.0
C816 C 0.54653 0.21315 0.70652 0.0
C817 C 0.54695 0.24078 0.73263 0.0
H818 H 0.4572 0.19527 0.70319 0.0
H819 H 0.57217 0.20452 0.69509 0.0
H820 H 0.44872 0.1499 0.60105 0.0
H821 H 0.44418 0.2644 0.60494 0.0
H822 H 0.58648 0.10805 0.76527 0.0
H823 H 0.45622 0.23895 0.75196 0.0
H824 H 0.57287 0.25355 0.73845 0.0
C825 C 0.39846 0.04987 0.72541 0.0
C826 C 0.41986 0.07807 0.7371 0.0
N827 N 0.43459 0.09398 0.70774 0.0
N828 N 0.39918 0.04755 0.68853 0.0
C829 C 0.42174 0.07512 0.67853 0.0
H830 H 0.38212 0.03332 0.74333 0.0
Co831 Co 0.37107 0.01468 0.65962 0.0
C832 C 0.32179 0.0698 0.62141 0.0
O833 O 0.29027 0.05849 0.63408 0.0
N834 N 0.34213 0.98176 0.63158 0.0
C835 C 0.29364 0.95081 0.61111 0.0
C836 C 0.30524 0.97906 0.63239 0.0
C837 C 0.3522 0.9544 0.60902 0.0
N838 N 0.32305 0.93525 0.59632 0.0
O839 O 0.39794 0.97402 0.67981 0.0
H840 H 0.28727 0.99538 0.6487 0.0
H841 H 0.38028 0.94855 0.60224 0.0
O842 O 0.35124 0.05533 0.63239 0.0
C843 C 0.40853 0.95912 0.70923 0.0
O844 O 0.39568 0.97007 0.74071 0.0
N845 N 0.33386 0.01475 0.69664 0.0
C846 C 0.27947 0.01492 0.75092 0.0
C847 C 0.29038 0.04719 0.73322 0.0
C848 C 0.31795 0.04661 0.70703 0.0
C849 C 0.32316 0.98297 0.71281 0.0
C850 C 0.29692 0.98256 0.74032 0.0
H851 H 0.32689 0.07212 0.69541 0.0
H852 H 0.33458 0.9574 0.7041 0.0
H853 H 0.42848 0.08126 0.65047 0.0
H854 H 0.42429 0.08618 0.76515 0.0
H855 H 0.2656 0.94241 0.6068 0.0
H856 H 0.27796 0.07309 0.73901 0.0
H857 H 0.29092 0.95671 0.75296 0.0
C858 C 0.47877 0.89725 0.72636 0.0
C859 C 0.45091 0.91884 0.73783 0.0
N860 N 0.43574 0.93417 0.70841 0.0
N861 N 0.4817 0.89842 0.68953 0.0
C862 C 0.45476 0.92146 0.67935 0.0
H863 H 0.49476 0.88062 0.74442 0.0
Co864 Co 0.51463 0.87033 0.66087 0.0
C865 C 0.45934 0.82087 0.62266 0.0
O866 O 0.47055 0.78936 0.63506 0.0
N867 N 0.54754 0.84133 0.63308 0.0
C868 C 0.57797 0.79272 0.61313 0.0
C869 C 0.54995 0.80454 0.63442 0.0
C870 C 0.57492 0.85113 0.61022 0.0
N871 N 0.59373 0.82189 0.59781 0.0
O872 O 0.55534 0.89744 0.68081 0.0
H873 H 0.53353 0.78674 0.65103 0.0
H874 H 0.58098 0.87907 0.60296 0.0
O875 O 0.47396 0.85024 0.63385 0.0
C876 C 0.56953 0.90895 0.71028 0.0
O877 O 0.55778 0.8969 0.74184 0.0
N878 N 0.51447 0.83344 0.69815 0.0
C879 C 0.51442 0.779 0.75231 0.0
C880 C 0.4821 0.78929 0.73436 0.0
C881 C 0.48261 0.81691 0.70825 0.0
C882 C 0.54628 0.82343 0.71464 0.0
C883 C 0.54674 0.79718 0.74212 0.0
H884 H 0.45704 0.82537 0.69643 0.0
H885 H 0.57188 0.83531 0.70616 0.0
H886 H 0.44916 0.92864 0.65129 0.0
H887 H 0.4425 0.92298 0.7658 0.0
H888 H 0.58606 0.76471 0.60917 0.0
H889 H 0.45622 0.77632 0.73987 0.0
H890 H 0.5726 0.79168 0.755 0.0
C891 C 0.62995 0.98122 0.72651 0.0
C892 C 0.60856 0.95318 0.73848 0.0
N893 N 0.59421 0.9366 0.70923 0.0
N894 N 0.62962 0.98278 0.68958 0.0
C895 C 0.60728 0.95492 0.67983 0.0
H896 H 0.64613 0.9981 0.74432 0.0
Co897 Co 0.65805 0.01515 0.66053 0.0
C898 C 0.70735 0.95923 0.6236 0.0
O899 O 0.73878 0.97034 0.63679 0.0
N900 N 0.68735 0.0476 0.63243 0.0
C901 C 0.73619 0.078 0.61216 0.0
C902 C 0.72426 0.04995 0.63347 0.0
C903 C 0.67759 0.07495 0.60969 0.0
N904 N 0.70696 0.09377 0.59712 0.0
O905 O 0.63133 0.05616 0.68013 0.0
H906 H 0.74203 0.0336 0.65002 0.0
H907 H 0.64959 0.08104 0.60272 0.0
O908 O 0.67786 0.97408 0.63389 0.0
C909 C 0.62092 0.07164 0.70928 0.0
O910 O 0.63395 0.06135 0.74095 0.0
N911 N 0.69499 0.01522 0.69782 0.0
C912 C 0.74894 0.01506 0.75268 0.0
C913 C 0.73773 0.9827 0.73526 0.0
C914 C 0.71037 0.9833 0.70881 0.0
C915 C 0.70599 0.04707 0.71365 0.0
C916 C 0.732 0.04751 0.74146 0.0
H917 H 0.70115 0.95775 0.69745 0.0
H918 H 0.69497 0.07267 0.70447 0.0
H919 H 0.60088 0.94815 0.65181 0.0
H920 H 0.6039 0.9456 0.76662 0.0
H921 H 0.76431 0.08613 0.608 0.0
H922 H 0.74971 0.95668 0.74141 0.0
H923 H 0.73821 0.07348 0.75376 0.0
C924 C 0.55074 0.89739 0.30638 0.0
C925 C 0.57889 0.91883 0.29469 0.0
N926 N 0.59478 0.93371 0.32406 0.0
N927 N 0.54841 0.89825 0.34326 0.0
C928 C 0.57594 0.92093 0.35326 0.0
H929 H 0.53421 0.88097 0.28845 0.0
Co930 Co 0.51557 0.87018 0.37216 0.0
C931 C 0.57078 0.82101 0.41032 0.0
O932 O 0.55937 0.78953 0.39769 0.0
N933 N 0.48268 0.84124 0.40015 0.0
C934 C 0.45174 0.79278 0.42042 0.0
C935 C 0.47994 0.80443 0.39913 0.0
C936 C 0.45539 0.85122 0.42286 0.0
N937 N 0.43625 0.82208 0.43544 0.0
O938 O 0.47479 0.89698 0.3521 0.0
H939 H 0.4962 0.78653 0.38267 0.0
H940 H 0.44957 0.87922 0.42982 0.0
O941 O 0.55634 0.8504 0.39928 0.0
C942 C 0.45994 0.9077 0.3227 0.0
O943 O 0.47096 0.89502 0.29118 0.0
N944 N 0.51553 0.83309 0.33508 0.0
C945 C 0.51558 0.7788 0.28076 0.0
C946 C 0.54794 0.7896 0.29855 0.0
C947 C 0.54742 0.81713 0.32475 0.0
C948 C 0.48367 0.82251 0.31882 0.0
C949 C 0.4832 0.79632 0.29126 0.0
H950 H 0.57301 0.82601 0.33643 0.0
H951 H 0.45807 0.83395 0.32749 0.0
H952 H 0.58207 0.9278 0.38131 0.0
H953 H 0.58699 0.92318 0.26665 0.0
H954 H 0.44334 0.76479 0.4246 0.0
H955 H 0.57386 0.77711 0.29284 0.0
H956 H 0.45729 0.79039 0.27854 0.0
C957 C 0.72575 0.97913 0.40054 0.0
C958 C 0.73729 0.95139 0.42236 0.0
N959 N 0.70782 0.93565 0.4372 0.0
N960 N 0.68886 0.98141 0.40112 0.0
C961 C 0.6787 0.95421 0.424 0.0
H962 H 0.74381 0.99545 0.38411 0.0
Co963 Co 0.66017 0.01401 0.37266 0.0
C964 C 0.62231 0.95858 0.32321 0.0
O965 O 0.63495 0.9699 0.29173 0.0
N966 N 0.6323 0.04666 0.34342 0.0
C967 C 0.61223 0.0771 0.29469 0.0
C968 C 0.63361 0.04922 0.30657 0.0
C969 C 0.60934 0.07376 0.35319 0.0
N970 N 0.59686 0.0926 0.32388 0.0
O971 O 0.68006 0.05482 0.39955 0.0
H972 H 0.65026 0.03301 0.28879 0.0
H973 H 0.60209 0.07963 0.38116 0.0
O974 O 0.63323 0.97319 0.35269 0.0
C975 C 0.70941 0.06968 0.41067 0.0
O976 O 0.74105 0.0586 0.39843 0.0
N977 N 0.69753 0.01392 0.33581 0.0
C978 C 0.75222 0.0137 0.28179 0.0
C979 C 0.73431 0.98143 0.29252 0.0
C980 C 0.70794 0.98204 0.3199 0.0
C981 C 0.71393 0.04568 0.32535 0.0
C982 C 0.74164 0.04608 0.29932 0.0
H983 H 0.69617 0.95652 0.32869 0.0
H984 H 0.70524 0.07128 0.33676 0.0
H985 H 0.65059 0.94813 0.43075 0.0
H986 H 0.76531 0.94344 0.42697 0.0
H987 H 0.60823 0.08529 0.26662 0.0
H988 H 0.74001 0.95547 0.28011 0.0
H989 H 0.75437 0.07196 0.29351 0.0
C990 C 0.48124 0.12941 0.30557 0.0
C991 C 0.45313 0.10793 0.29377 0.0
N992 N 0.43694 0.09343 0.32311 0.0
N993 N 0.48322 0.12897 0.34248 0.0
C994 C 0.45556 0.10648 0.35239 0.0
H995 H 0.49794 0.14563 0.28768 0.0
Co996 Co 0.51579 0.15734 0.37146 0.0
C997 C 0.45983 0.2066 0.40853 0.0
O998 O 0.47097 0.238 0.39552 0.0
N999 N 0.5484 0.18656 0.39953 0.0
C1000 C 0.57898 0.23525 0.41987 0.0
C1001 C 0.55081 0.22338 0.39852 0.0
C1002 C 0.57581 0.17679 0.42227 0.0
N1003 N 0.59474 0.20607 0.43489 0.0
O1004 O 0.5568 0.13052 0.35186 0.0
H1005 H 0.53439 0.24113 0.38202 0.0
H1006 H 0.58186 0.14883 0.42923 0.0
O1007 O 0.47472 0.1772 0.39814 0.0
C1008 C 0.57199 0.11986 0.32266 0.0
O1009 O 0.56133 0.1326 0.291 0.0
N1010 N 0.51586 0.19419 0.33415 0.0
C1011 C 0.51579 0.24843 0.27976 0.0
C1012 C 0.48337 0.23728 0.29711 0.0
C1013 C 0.48391 0.20977 0.32332 0.0
C1014 C 0.54776 0.20502 0.31826 0.0
C1015 C 0.54824 0.2312 0.29069 0.0
H1016 H 0.45831 0.20067 0.33468 0.0
H1017 H 0.57339 0.19381 0.32727 0.0
H1018 H 0.44915 0.09996 0.38045 0.0
H1019 H 0.44525 0.10329 0.26568 0.0
H1020 H 0.58718 0.26331 0.42408 0.0
H1021 H 0.45736 0.24947 0.29109 0.0
H1022 H 0.57422 0.23737 0.27834 0.0
C1023 C 0.30519 0.04814 0.39837 0.0
C1024 C 0.29321 0.07618 0.4195 0.0
N1025 N 0.32239 0.09239 0.43449 0.0
N1026 N 0.3421 0.04617 0.39947 0.0
C1027 C 0.3518 0.07383 0.42204 0.0
H1028 H 0.28741 0.03148 0.38191 0.0
Co1029 Co 0.3712 0.0135 0.37156 0.0
C1030 C 0.40936 0.06863 0.32219 0.0
O1031 O 0.3969 0.05708 0.29067 0.0
N1032 N 0.39935 0.98078 0.34274 0.0
C1033 C 0.41979 0.95027 0.29426 0.0
C1034 C 0.39824 0.97809 0.30588 0.0
C1035 C 0.42232 0.95376 0.35278 0.0
N1036 N 0.43503 0.93491 0.32363 0.0
O1037 O 0.35118 0.97277 0.39843 0.0
H1038 H 0.3816 0.99413 0.28789 0.0
H1039 H 0.42943 0.94797 0.38084 0.0
O1040 O 0.39823 0.05428 0.35168 0.0
C1041 C 0.32183 0.95778 0.40925 0.0
O1042 O 0.29023 0.96852 0.39649 0.0
N1043 N 0.33421 0.01335 0.33433 0.0
C1044 C 0.27981 0.01343 0.27994 0.0
C1045 C 0.29775 0.04571 0.29061 0.0
C1046 C 0.32394 0.04518 0.31822 0.0
C1047 C 0.31788 0.98154 0.32384 0.0
C1048 C 0.29028 0.98108 0.2976 0.0
H1049 H 0.33564 0.07073 0.32705 0.0
H1050 H 0.32652 0.95598 0.3354 0.0
H1051 H 0.37979 0.08028 0.42904 0.0
H1052 H 0.26508 0.08399 0.42357 0.0
H1053 H 0.42394 0.94201 0.26625 0.0
H1054 H 0.29216 0.07162 0.27804 0.0
H1055 H 0.27751 0.9552 0.29179 0.0
C1056 C 0.72542 0.1311 0.48189 0.0
C1057 C 0.73741 0.10963 0.4541 0.0
N1058 N 0.70822 0.09455 0.43802 0.0
N1059 N 0.68849 0.13009 0.48381 0.0
C1060 C 0.67879 0.10725 0.45639 0.0
H1061 H 0.7432 0.14772 0.49837 0.0
Co1062 Co 0.65928 0.15832 0.51603 0.0
C1063 C 0.62222 0.20717 0.45973 0.0
O1064 O 0.63512 0.23873 0.47063 0.0
N1065 N 0.63106 0.18752 0.54825 0.0
C1066 C 0.6106 0.23639 0.57796 0.0
C1067 C 0.63211 0.22437 0.55021 0.0
C1068 C 0.60815 0.17789 0.5756 0.0
N1069 N 0.59545 0.20729 0.59397 0.0
O1070 O 0.67881 0.13179 0.55724 0.0
H1071 H 0.64879 0.24209 0.53379 0.0
H1072 H 0.6011 0.14996 0.58197 0.0
O1073 O 0.63276 0.1779 0.4748 0.0
C1074 C 0.70811 0.12119 0.57233 0.0
O1075 O 0.73976 0.134 0.5615 0.0
N1076 N 0.69645 0.19533 0.51611 0.0
C1077 C 0.75082 0.24981 0.5162 0.0
C1078 C 0.73346 0.23873 0.48373 0.0
C1079 C 0.70727 0.21109 0.4842 0.0
C1080 C 0.71225 0.20617 0.54807 0.0
C1081 C 0.73984 0.23242 0.54862 0.0
H1082 H 0.69597 0.20196 0.45856 0.0
H1083 H 0.70316 0.19487 0.57367 0.0
H1084 H 0.65079 0.10026 0.44996 0.0
H1085 H 0.76556 0.10543 0.44634 0.0
H1086 H 0.60643 0.26449 0.58574 0.0
H1087 H 0.73944 0.25101 0.45771 0.0
H1088 H 0.75213 0.23848 0.57467 0.0
C1089 C 0.63154 0.80437 0.48208 0.0
C1090 C 0.61014 0.79265 0.4539 0.0
N1091 N 0.59552 0.82194 0.43793 0.0
N1092 N 0.63095 0.84119 0.48434 0.0
C1093 C 0.60845 0.85113 0.45676 0.0
H1094 H 0.64775 0.78652 0.49871 0.0
Co1095 Co 0.65907 0.87008 0.51723 0.0
C1096 C 0.70857 0.90843 0.46226 0.0
O1097 O 0.74002 0.8962 0.47401 0.0
N1098 N 0.68794 0.8982 0.55021 0.0
C1099 C 0.73616 0.91897 0.58133 0.0
C1100 C 0.72477 0.89725 0.5533 0.0
C1101 C 0.67767 0.92124 0.57713 0.0
N1102 N 0.70667 0.93416 0.59637 0.0
O1103 O 0.63209 0.84997 0.55792 0.0
H1104 H 0.74284 0.88073 0.53729 0.0
H1105 H 0.64957 0.92826 0.58255 0.0
O1106 O 0.679 0.89722 0.4765 0.0
C1107 C 0.62117 0.82075 0.573 0.0
O1108 O 0.63374 0.78919 0.56218 0.0
N1109 N 0.69626 0.83309 0.51706 0.0
C1110 C 0.75037 0.7787 0.51649 0.0
C1111 C 0.73962 0.7966 0.4843 0.0
C1112 C 0.71222 0.82284 0.48508 0.0
C1113 C 0.70679 0.81672 0.54877 0.0
C1114 C 0.73291 0.78918 0.54899 0.0
H1115 H 0.70342 0.83459 0.45959 0.0
H1116 H 0.69533 0.82526 0.57444 0.0
H1117 H 0.60181 0.87913 0.45058 0.0
H1118 H 0.60562 0.76463 0.44583 0.0
H1119 H 0.76412 0.92334 0.58991 0.0
H1120 H 0.75205 0.79091 0.4583 0.0
H1121 H 0.73883 0.77642 0.5748 0.0
C1122 C 0.30489 0.13069 0.54999 0.0
C1123 C 0.29326 0.10924 0.57808 0.0
N1124 N 0.32266 0.09454 0.59388 0.0
N1125 N 0.34177 0.13005 0.5476 0.0
C1126 C 0.35183 0.10747 0.57503 0.0
H1127 H 0.28693 0.14692 0.53349 0.0
Co1128 Co 0.37057 0.15819 0.51468 0.0
C1129 C 0.40904 0.20776 0.56955 0.0
O1130 O 0.39686 0.23912 0.55771 0.0
N1131 N 0.39859 0.18705 0.48168 0.0
C1132 C 0.41925 0.23522 0.45064 0.0
C1133 C 0.39745 0.22379 0.47856 0.0
C1134 C 0.42179 0.17688 0.45484 0.0
N1135 N 0.43465 0.20584 0.43566 0.0
O1136 O 0.35046 0.13115 0.47403 0.0
H1137 H 0.3808 0.24179 0.49451 0.0
H1138 H 0.429 0.14886 0.44946 0.0
O1139 O 0.39775 0.17821 0.55536 0.0
C1140 C 0.32117 0.11996 0.45913 0.0
O1141 O 0.28951 0.13227 0.4701 0.0
N1142 N 0.33339 0.1952 0.51488 0.0
C1143 C 0.27906 0.24938 0.51555 0.0
C1144 C 0.29712 0.23869 0.54769 0.0
C1145 C 0.32331 0.21125 0.54687 0.0
C1146 C 0.31679 0.20558 0.48321 0.0
C1147 C 0.28928 0.23176 0.48305 0.0
H1148 H 0.33519 0.20253 0.57233 0.0
H1149 H 0.32516 0.19402 0.45753 0.0
H1150 H 0.37991 0.10079 0.58108 0.0
H1151 H 0.26522 0.10475 0.5862 0.0
H1152 H 0.42351 0.26313 0.44208 0.0
H1153 H 0.29164 0.25121 0.57369 0.0
H1154 H 0.27636 0.23761 0.45728 0.0
C1155 C 0.30552 0.89723 0.48106 0.0
C1156 C 0.29365 0.91831 0.45288 0.0
N1157 N 0.32292 0.93323 0.43689 0.0
N1158 N 0.34244 0.89829 0.4833 0.0
C1159 C 0.35226 0.92081 0.4557 0.0
H1160 H 0.28766 0.88079 0.49757 0.0
Co1161 Co 0.37149 0.87034 0.51601 0.0
C1162 C 0.40875 0.82115 0.46016 0.0
O1163 O 0.39561 0.78966 0.47094 0.0
N1164 N 0.39955 0.8414 0.54869 0.0
C1165 C 0.41992 0.79269 0.5788 0.0
C1166 C 0.39869 0.80455 0.55069 0.0
C1167 C 0.42206 0.85121 0.57639 0.0
N1168 N 0.43471 0.82191 0.59501 0.0
O1169 O 0.35165 0.89718 0.55687 0.0
H1170 H 0.38227 0.78672 0.53406 0.0
H1171 H 0.42887 0.87918 0.58284 0.0
O1172 O 0.39829 0.85048 0.47515 0.0
C1173 C 0.3222 0.90769 0.57166 0.0
O1174 O 0.2907 0.89457 0.56069 0.0
N1175 N 0.33437 0.83328 0.51602 0.0
C1176 C 0.2801 0.77873 0.51607 0.0
C1177 C 0.2975 0.78965 0.48364 0.0
C1178 C 0.32364 0.81734 0.48412 0.0
C1179 C 0.31855 0.82257 0.54795 0.0
C1180 C 0.29099 0.79628 0.54847 0.0
H1181 H 0.33497 0.82635 0.45851 0.0
H1182 H 0.32757 0.83402 0.57354 0.0
H1183 H 0.38029 0.92773 0.44943 0.0
H1184 H 0.26555 0.92238 0.44481 0.0
H1185 H 0.42416 0.76463 0.58669 0.0
H1186 H 0.29156 0.7772 0.45767 0.0
H1187 H 0.27863 0.79034 0.57446 0.0
C1188 C 0.48033 0.72421 0.13337 0.0
C1189 C 0.45227 0.736 0.11202 0.0
N1190 N 0.43628 0.70677 0.09697 0.0
N1191 N 0.48255 0.6874 0.13231 0.0
C1192 C 0.45501 0.67754 0.10958 0.0
H1193 H 0.4969 0.74205 0.14986 0.0
Co1194 Co 0.51542 0.65848 0.16026 0.0
C1195 C 0.46048 0.62007 0.20969 0.0
O1196 O 0.4722 0.63238 0.24119 0.0
N1197 N 0.54835 0.63049 0.18908 0.0
C1198 C 0.57927 0.61028 0.23749 0.0
C1199 C 0.55129 0.63172 0.22592 0.0
C1200 C 0.57534 0.60753 0.17901 0.0
N1201 N 0.59446 0.59497 0.20813 0.0
O1202 O 0.55613 0.67852 0.1333 0.0
H1203 H 0.53528 0.64832 0.24391 0.0
H1204 H 0.58094 0.60033 0.15097 0.0
O1205 O 0.47467 0.63138 0.18018 0.0
C1206 C 0.57096 0.70783 0.12226 0.0
O1207 O 0.55996 0.73938 0.13472 0.0
N1208 N 0.51558 0.69546 0.19744 0.0
C1209 C 0.5156 0.74977 0.25175 0.0
C1210 C 0.48326 0.73173 0.24125 0.0
C1211 C 0.48374 0.70556 0.2137 0.0
C1212 C 0.54744 0.71194 0.20775 0.0
C1213 C 0.54794 0.73949 0.23395 0.0
H1214 H 0.45814 0.69373 0.20502 0.0
H1215 H 0.57302 0.70346 0.19609 0.0
H1216 H 0.44878 0.64957 0.10255 0.0
H1217 H 0.44429 0.76402 0.10785 0.0
H1218 H 0.58773 0.60621 0.26549 0.0
H1219 H 0.45737 0.73725 0.25397 0.0
H1220 H 0.57383 0.75239 0.23967 0.0
C1221 C 0.39989 0.54804 0.2263 0.0
C1222 C 0.42133 0.57615 0.2381 0.0
N1223 N 0.43574 0.59244 0.20877 0.0
N1224 N 0.40025 0.54614 0.18939 0.0
C1225 C 0.42265 0.57387 0.17948 0.0
H1226 H 0.38373 0.53127 0.24418 0.0
Co1227 Co 0.37191 0.51351 0.16044 0.0
C1228 C 0.32244 0.56908 0.12302 0.0
O1229 O 0.29101 0.55782 0.13596 0.0
N1230 N 0.34276 0.48081 0.13236 0.0
C1231 C 0.29412 0.45009 0.11191 0.0
C1232 C 0.30588 0.47821 0.13329 0.0
C1233 C 0.35269 0.45353 0.10964 0.0
N1234 N 0.32344 0.43452 0.09695 0.0
O1235 O 0.39882 0.47269 0.18025 0.0
H1236 H 0.28801 0.49451 0.14974 0.0
H1237 H 0.38073 0.44765 0.10273 0.0
O1238 O 0.35195 0.55439 0.13357 0.0
C1239 C 0.40944 0.45743 0.20948 0.0
O1240 O 0.39661 0.46797 0.2411 0.0
N1241 N 0.33492 0.51344 0.19768 0.0
C1242 C 0.28083 0.51357 0.2523 0.0
C1243 C 0.29189 0.54589 0.23476 0.0
C1244 C 0.3193 0.54532 0.20843 0.0
C1245 C 0.3241 0.48162 0.21368 0.0
C1246 C 0.29801 0.48118 0.24135 0.0
H1247 H 0.32835 0.57086 0.19695 0.0
H1248 H 0.33532 0.45604 0.20473 0.0
H1249 H 0.42909 0.58035 0.15143 0.0
H1250 H 0.42602 0.58397 0.26619 0.0
H1251 H 0.26605 0.44179 0.10765 0.0
H1252 H 0.27972 0.57186 0.24076 0.0
H1253 H 0.2919 0.45526 0.25379 0.0
C1254 C 0.48011 0.39581 0.22576 0.0
C1255 C 0.4522 0.41717 0.23755 0.0
N1256 N 0.43675 0.43261 0.20833 0.0
N1257 N 0.48276 0.39721 0.18892 0.0
C1258 C 0.45565 0.42019 0.17907 0.0
H1259 H 0.49631 0.37915 0.2436 0.0
Co1260 Co 0.51552 0.36938 0.15982 0.0
C1261 C 0.46006 0.3201 0.12168 0.0
O1262 O 0.47139 0.28855 0.13387 0.0
N1263 N 0.54824 0.34071 0.13156 0.0
C1264 C 0.57845 0.29238 0.11063 0.0
C1265 C 0.55072 0.30391 0.13245 0.0
C1266 C 0.57532 0.35082 0.10848 0.0
N1267 N 0.59399 0.32176 0.09548 0.0
O1268 O 0.55633 0.39634 0.17974 0.0
H1269 H 0.53453 0.2859 0.14907 0.0
H1270 H 0.58123 0.37885 0.10145 0.0
O1271 O 0.4747 0.34945 0.13292 0.0
C1272 C 0.57083 0.4075 0.2092 0.0
O1273 O 0.55942 0.39507 0.24073 0.0
N1274 N 0.51562 0.33218 0.19678 0.0
C1275 C 0.51575 0.27757 0.25081 0.0
C1276 C 0.48336 0.288 0.23305 0.0
C1277 C 0.48379 0.31569 0.20703 0.0
C1278 C 0.54752 0.32196 0.21297 0.0
C1279 C 0.54808 0.29561 0.24037 0.0
H1280 H 0.45816 0.32428 0.19544 0.0
H1281 H 0.57309 0.33381 0.20435 0.0
H1282 H 0.44981 0.42749 0.15108 0.0
H1283 H 0.44396 0.4211 0.2656 0.0
H1284 H 0.58653 0.26443 0.10624 0.0
H1285 H 0.45746 0.27514 0.23866 0.0
H1286 H 0.57402 0.29 0.25302 0.0
C1287 C 0.63148 0.47954 0.22564 0.0
C1288 C 0.61019 0.45137 0.2375 0.0
N1289 N 0.59552 0.43515 0.20822 0.0
N1290 N 0.63075 0.48154 0.18873 0.0
C1291 C 0.60829 0.45381 0.17889 0.0
H1292 H 0.64783 0.49622 0.24348 0.0
Co1293 Co 0.65888 0.5142 0.15971 0.0
C1294 C 0.70808 0.45884 0.12194 0.0
O1295 O 0.73959 0.47007 0.13483 0.0
N1296 N 0.68793 0.54692 0.13165 0.0
C1297 C 0.73657 0.57764 0.11135 0.0
C1298 C 0.72483 0.54945 0.13259 0.0
C1299 C 0.67798 0.57432 0.10906 0.0
N1300 N 0.70722 0.59332 0.09647 0.0
O1301 O 0.63214 0.555 0.17971 0.0
H1302 H 0.74275 0.53312 0.14901 0.0
H1303 H 0.64992 0.58032 0.1022 0.0
O1304 O 0.67862 0.4734 0.13269 0.0
C1305 C 0.62172 0.5701 0.20906 0.0
O1306 O 0.63476 0.55939 0.24059 0.0
N1307 N 0.69606 0.51417 0.19677 0.0
C1308 C 0.75032 0.514 0.25129 0.0
C1309 C 0.73932 0.4817 0.23365 0.0
C1310 C 0.71179 0.48229 0.20736 0.0
C1311 C 0.70688 0.54598 0.21282 0.0
C1312 C 0.73304 0.5464 0.24048 0.0
H1313 H 0.70273 0.45676 0.19582 0.0
H1314 H 0.69561 0.57157 0.20392 0.0
H1315 H 0.60158 0.44737 0.15086 0.0
H1316 H 0.60582 0.44347 0.26559 0.0
H1317 H 0.76464 0.58591 0.10714 0.0
H1318 H 0.75162 0.45576 0.23956 0.0
H1319 H 0.7391 0.57228 0.25303 0.0
C1320 C 0.54909 0.39885 0.80548 0.0
C1321 C 0.57711 0.42039 0.79369 0.0
N1322 N 0.59333 0.43499 0.82303 0.0
N1323 N 0.54717 0.39935 0.84239 0.0
C1324 C 0.57481 0.42193 0.85231 0.0
H1325 H 0.5324 0.38257 0.78758 0.0
Co1326 Co 0.51461 0.371 0.87133 0.0
C1327 C 0.57035 0.32172 0.90868 0.0
O1328 O 0.55903 0.29031 0.8958 0.0
N1329 N 0.48198 0.3418 0.89935 0.0
C1330 C 0.45135 0.29314 0.91959 0.0
C1331 C 0.4794 0.30499 0.8982 0.0
C1332 C 0.45476 0.35159 0.92223 0.0
N1333 N 0.4358 0.32232 0.93479 0.0
O1334 O 0.47363 0.39779 0.85167 0.0
H1335 H 0.49566 0.28723 0.8816 0.0
H1336 H 0.44887 0.37953 0.92933 0.0
O1337 O 0.55564 0.35114 0.89808 0.0
C1338 C 0.45843 0.40855 0.82245 0.0
O1339 O 0.46909 0.39594 0.79078 0.0
N1340 N 0.51447 0.33414 0.83402 0.0
C1341 C 0.51451 0.28016 0.77936 0.0
C1342 C 0.54692 0.29112 0.79698 0.0
C1343 C 0.54639 0.3185 0.82333 0.0
C1344 C 0.48256 0.32343 0.81793 0.0
C1345 C 0.48208 0.29739 0.79022 0.0
H1346 H 0.572 0.3275 0.83486 0.0
H1347 H 0.45695 0.33466 0.82686 0.0
H1348 H 0.58125 0.42853 0.88036 0.0
H1349 H 0.58491 0.42501 0.76561 0.0
H1350 H 0.44308 0.26511 0.9237 0.0
H1351 H 0.57291 0.2789 0.79106 0.0
H1352 H 0.4561 0.29135 0.7777 0.0
C1353 C 0.72511 0.47989 0.89856 0.0
C1354 C 0.73694 0.45186 0.91985 0.0
N1355 N 0.70768 0.43589 0.93484 0.0
N1356 N 0.68823 0.4821 0.89959 0.0
C1357 C 0.67838 0.4546 0.92225 0.0
H1358 H 0.74296 0.49644 0.88214 0.0
Co1359 Co 0.65921 0.51489 0.8716 0.0
C1360 C 0.62085 0.45986 0.82211 0.0
O1361 O 0.63313 0.4715 0.7906 0.0
N1362 N 0.63107 0.54771 0.8428 0.0
C1363 C 0.61051 0.57837 0.7944 0.0
C1364 C 0.63214 0.55054 0.80596 0.0
C1365 C 0.60805 0.57464 0.8529 0.0
N1366 N 0.59527 0.5936 0.82379 0.0
O1367 O 0.67926 0.55555 0.89861 0.0
H1368 H 0.64875 0.53454 0.78796 0.0
H1369 H 0.60094 0.58028 0.88095 0.0
O1370 O 0.63212 0.47418 0.85161 0.0
C1371 C 0.70863 0.5704 0.90967 0.0
O1372 O 0.74023 0.55945 0.89721 0.0
N1373 N 0.69626 0.51506 0.83443 0.0
C1374 C 0.75078 0.51503 0.78028 0.0
C1375 C 0.73273 0.48276 0.79075 0.0
C1376 C 0.70645 0.48326 0.81822 0.0
C1377 C 0.71269 0.54686 0.82411 0.0
C1378 C 0.74033 0.54734 0.79799 0.0
H1379 H 0.69466 0.45772 0.82687 0.0
H1380 H 0.70413 0.57239 0.83575 0.0
H1381 H 0.65036 0.44837 0.92923 0.0
H1382 H 0.76502 0.4439 0.92403 0.0
H1383 H 0.60629 0.58671 0.76641 0.0
H1384 H 0.73832 0.45689 0.77811 0.0
H1385 H 0.75318 0.5732 0.79229 0.0
C1386 C 0.47936 0.63086 0.80648 0.0
C1387 C 0.45113 0.60946 0.7948 0.0
N1388 N 0.43533 0.59462 0.82418 0.0
N1389 N 0.48179 0.63004 0.84336 0.0
C1390 C 0.45429 0.6074 0.85337 0.0
H1391 H 0.49584 0.64725 0.78855 0.0
Co1392 Co 0.51461 0.65817 0.87229 0.0
C1393 C 0.45911 0.70726 0.91015 0.0
O1394 O 0.47029 0.73875 0.89739 0.0
N1395 N 0.54745 0.68719 0.90031 0.0
C1396 C 0.57825 0.73574 0.92069 0.0
C1397 C 0.54996 0.72401 0.89943 0.0
C1398 C 0.57494 0.67727 0.92289 0.0
N1399 N 0.594 0.70647 0.93552 0.0
O1400 O 0.55545 0.63139 0.85231 0.0
H1401 H 0.53351 0.74187 0.88307 0.0
H1402 H 0.58095 0.64928 0.92972 0.0
O1403 O 0.47378 0.67792 0.89932 0.0
C1404 C 0.57027 0.62075 0.8229 0.0
O1405 O 0.55917 0.6335 0.79139 0.0
N1406 N 0.51454 0.69524 0.83519 0.0
C1407 C 0.51444 0.74978 0.78113 0.0
C1408 C 0.48208 0.73879 0.79866 0.0
C1409 C 0.48262 0.71113 0.82472 0.0
C1410 C 0.5464 0.70596 0.81913 0.0
C1411 C 0.54685 0.73228 0.79171 0.0
H1412 H 0.45704 0.70214 0.83624 0.0
H1413 H 0.57202 0.69454 0.82789 0.0
H1414 H 0.44822 0.60059 0.88143 0.0
H1415 H 0.44292 0.60509 0.76676 0.0
H1416 H 0.58653 0.76376 0.92496 0.0
H1417 H 0.45613 0.75123 0.79286 0.0
H1418 H 0.57276 0.73834 0.77916 0.0
C1419 C 0.3045 0.54847 0.90046 0.0
C1420 C 0.29275 0.57621 0.92211 0.0
N1421 N 0.32211 0.59232 0.93687 0.0
N1422 N 0.34141 0.54655 0.90106 0.0
C1423 C 0.35138 0.57397 0.9238 0.0
H1424 H 0.28654 0.53197 0.88402 0.0
Co1425 Co 0.37026 0.51414 0.87264 0.0
C1426 C 0.40777 0.5698 0.82334 0.0
O1427 O 0.3949 0.5586 0.79186 0.0
N1428 N 0.39819 0.48167 0.84336 0.0
C1429 C 0.41826 0.45147 0.79455 0.0
C1430 C 0.3969 0.47929 0.80649 0.0
C1431 C 0.42113 0.45451 0.85308 0.0
N1432 N 0.4336 0.43583 0.82371 0.0
O1433 O 0.35046 0.47322 0.89935 0.0
H1434 H 0.38021 0.49553 0.78873 0.0
H1435 H 0.42836 0.44847 0.88105 0.0
O1436 O 0.39706 0.55509 0.85281 0.0
C1437 C 0.32117 0.45809 0.91015 0.0
O1438 O 0.2895 0.46883 0.89754 0.0
N1439 N 0.33294 0.51422 0.83573 0.0
C1440 C 0.27837 0.51447 0.78147 0.0
C1441 C 0.29608 0.54678 0.7925 0.0
C1442 C 0.32237 0.54615 0.82002 0.0
C1443 C 0.31675 0.48243 0.825 0.0
C1444 C 0.28909 0.48204 0.79885 0.0
H1445 H 0.33397 0.57167 0.82905 0.0
H1446 H 0.3256 0.45681 0.83628 0.0
H1447 H 0.37945 0.58038 0.93052 0.0
H1448 H 0.26467 0.58393 0.92664 0.0
H1449 H 0.42223 0.44341 0.76645 0.0
H1450 H 0.29029 0.5728 0.78027 0.0
H1451 H 0.27654 0.45611 0.79285 0.0
C1452 C 0.72492 0.63124 0.98133 0.0
C1453 C 0.7368 0.61002 0.9533 0.0
N1454 N 0.70754 0.59505 0.93722 0.0
N1455 N 0.688 0.63021 0.98341 0.0
C1456 C 0.67819 0.6076 0.95584 0.0
H1457 H 0.74278 0.64773 0.99786 0.0
Co1458 Co 0.65896 0.65823 0.01602 0.0
C1459 C 0.62161 0.70741 0.96022 0.0
O1460 O 0.63465 0.7389 0.97116 0.0
N1461 N 0.63091 0.68721 0.04862 0.0
C1462 C 0.61064 0.73592 0.07874 0.0
C1463 C 0.63192 0.72405 0.05075 0.0
C1464 C 0.60823 0.67743 0.07612 0.0
N1465 N 0.59565 0.70673 0.09475 0.0
O1466 O 0.67877 0.63146 0.05692 0.0
H1467 H 0.64846 0.74187 0.03429 0.0
H1468 H 0.60127 0.64946 0.08243 0.0
O1469 O 0.63219 0.67806 0.9751 0.0
C1470 C 0.70818 0.62087 0.07181 0.0
O1471 O 0.73973 0.63385 0.06094 0.0
N1472 N 0.69611 0.69527 0.01611 0.0
C1473 C 0.75057 0.74966 0.01621 0.0
C1474 C 0.73303 0.73878 0.98377 0.0
C1475 C 0.7068 0.71117 0.98423 0.0
C1476 C 0.71205 0.70595 0.04805 0.0
C1477 C 0.73969 0.73215 0.0486 0.0
H1478 H 0.69537 0.70219 0.9586 0.0
H1479 H 0.70306 0.69453 0.07364 0.0
H1480 H 0.65016 0.60065 0.94947 0.0
H1481 H 0.76491 0.6059 0.94538 0.0
H1482 H 0.6065 0.76398 0.08669 0.0
H1483 H 0.73891 0.75117 0.95778 0.0
H1484 H 0.75211 0.73806 0.07462 0.0
C1485 C 0.72506 0.39797 0.05059 0.0
C1486 C 0.73666 0.41942 0.07874 0.0
N1487 N 0.70724 0.4341 0.09441 0.0
N1488 N 0.68818 0.39858 0.04806 0.0
C1489 C 0.67809 0.42115 0.07544 0.0
H1490 H 0.74303 0.38175 0.03417 0.0
Co1491 Co 0.65936 0.37038 0.01516 0.0
C1492 C 0.62115 0.32096 0.07036 0.0
O1493 O 0.63351 0.28956 0.05886 0.0
N1494 N 0.63132 0.34143 0.98221 0.0
C1495 C 0.61055 0.29314 0.95134 0.0
C1496 C 0.63224 0.30466 0.9794 0.0
C1497 C 0.60834 0.35153 0.95508 0.0
N1498 N 0.59542 0.3225 0.936 0.0
O1499 O 0.67944 0.39737 0.97444 0.0
H1500 H 0.64876 0.2867 0.99561 0.0
H1501 H 0.60133 0.37955 0.94942 0.0
O1502 O 0.63223 0.35043 0.05587 0.0
C1503 C 0.70877 0.4084 0.95961 0.0
O1504 O 0.74038 0.39596 0.97068 0.0
N1505 N 0.69654 0.33337 0.01548 0.0
C1506 C 0.7507 0.27903 0.01617 0.0
C1507 C 0.73291 0.2899 0.04834 0.0
C1508 C 0.70679 0.31741 0.0475 0.0
C1509 C 0.7129 0.32283 0.98381 0.0
C1510 C 0.74032 0.29658 0.98365 0.0
H1511 H 0.69508 0.32624 0.07296 0.0
H1512 H 0.70439 0.33434 0.95811 0.0
H1513 H 0.65 0.4278 0.08139 0.0
H1514 H 0.7647 0.42393 0.08698 0.0
H1515 H 0.60617 0.26519 0.94295 0.0
H1516 H 0.73855 0.27745 0.07437 0.0
H1517 H 0.75306 0.29061 0.95786 0.0
C1518 C 0.30502 0.63112 0.0527 0.0
C1519 C 0.29363 0.60936 0.08066 0.0
N1520 N 0.32312 0.59417 0.0958 0.0
N1521 N 0.34184 0.63017 0.04972 0.0
C1522 C 0.35211 0.60712 0.07668 0.0
H1523 H 0.28693 0.64764 0.03663 0.0
Co1524 Co 0.37063 0.65828 0.01672 0.0
C1525 C 0.40877 0.70781 0.07214 0.0
O1526 O 0.39636 0.73932 0.06094 0.0
N1527 N 0.39867 0.68715 0.98378 0.0
C1528 C 0.4193 0.7356 0.95316 0.0
C1529 C 0.3978 0.72394 0.98122 0.0
C1530 C 0.42143 0.67717 0.95651 0.0
N1531 N 0.43426 0.70631 0.93757 0.0
O1532 O 0.35071 0.63108 0.97606 0.0
H1533 H 0.38141 0.74182 0.99757 0.0
H1534 H 0.42833 0.64918 0.95062 0.0
O1535 O 0.39766 0.67848 0.05739 0.0
C1536 C 0.32119 0.61964 0.96179 0.0
O1537 O 0.28968 0.63166 0.97346 0.0
N1538 N 0.33338 0.69522 0.01646 0.0
C1539 C 0.27929 0.74963 0.01591 0.0
C1540 C 0.29699 0.73925 0.04837 0.0
C1541 C 0.32308 0.71169 0.04816 0.0
C1542 C 0.31716 0.70533 0.98451 0.0
C1543 C 0.28977 0.73159 0.98374 0.0
H1544 H 0.33472 0.70324 0.07382 0.0
H1545 H 0.32576 0.69348 0.95903 0.0
H1546 H 0.38021 0.60009 0.0822 0.0
H1547 H 0.26567 0.60498 0.08913 0.0
H1548 H 0.42365 0.76359 0.94493 0.0
H1549 H 0.29129 0.75211 0.07416 0.0
H1550 H 0.27714 0.73719 0.95777 0.0
C1551 C 0.30521 0.397 0.98157 0.0
C1552 C 0.2932 0.41826 0.95359 0.0
N1553 N 0.32238 0.43336 0.93761 0.0
N1554 N 0.34214 0.39812 0.98367 0.0
C1555 C 0.35182 0.42085 0.95621 0.0
H1556 H 0.28745 0.38041 0.99803 0.0
Co1557 Co 0.3714 0.37001 0.01601 0.0
C1558 C 0.40844 0.32119 0.95966 0.0
O1559 O 0.39549 0.28961 0.9704 0.0
N1560 N 0.39968 0.34091 0.04831 0.0
C1561 C 0.4203 0.29207 0.07803 0.0
C1562 C 0.39883 0.30404 0.05015 0.0
C1563 C 0.42241 0.3506 0.07585 0.0
N1564 N 0.43521 0.32123 0.09424 0.0
O1565 O 0.35182 0.39659 0.05717 0.0
H1566 H 0.38228 0.28629 0.03358 0.0
H1567 H 0.42927 0.37856 0.08236 0.0
O1568 O 0.39796 0.35042 0.97484 0.0
C1569 C 0.32245 0.4071 0.07213 0.0
O1570 O 0.29087 0.39413 0.06118 0.0
N1571 N 0.33431 0.33292 0.01604 0.0
C1572 C 0.27994 0.27847 0.0161 0.0
C1573 C 0.29724 0.28947 0.98365 0.0
C1574 C 0.32343 0.31711 0.98412 0.0
C1575 C 0.31863 0.3221 0.04799 0.0
C1576 C 0.29102 0.29586 0.04853 0.0
H1577 H 0.33466 0.3262 0.95849 0.0
H1578 H 0.32778 0.33343 0.07359 0.0
H1579 H 0.37981 0.42787 0.94988 0.0
H1580 H 0.26506 0.42234 0.94565 0.0
H1581 H 0.42462 0.26398 0.08577 0.0
H1582 H 0.29116 0.27713 0.95764 0.0
H1583 H 0.27876 0.28983 0.07455 0.0
loop_
_geom_bond_atom_site_label_1
_geom_bond_atom_site_label_2
_geom_bond_distance
_geom_bond_site_symmetry_2
_ccdc_geom_bond_type
C0 C1 1.351 . S
C0 N3 1.368 . S
C0 H5 0.931 1_655 S
C1 C0 1.351 . S
C1 N2 1.373 . S
C1 H29 0.930 . S
N2 C1 1.373 . S
N2 C4 1.340 . S
N3 C0 1.368 . S
N3 C4 1.321 . S
N3 Co6 2.135 1_655 S
C4 N2 1.340 . S
C4 N3 1.321 . S
C4 H28 0.930 . S
H5 C0 0.931 1_455 S
Co6 N3 2.135 1_455 S
Co6 N9 2.121 . S
Co6 O14 2.055 . S
Co6 O17 2.039 1_455 S
Co6 N20 2.140 . S
C7 O8 1.227 . S
C7 O17 1.265 . S
O8 C7 1.227 . S
N9 Co6 2.121 . S
N9 C11 1.375 . S
N9 C12 1.313 . S
C10 C11 1.338 . S
C10 N13 1.377 . S
C10 H30 0.930 . S
C11 N9 1.375 . S
C11 C10 1.338 . S
C11 H15 0.931 . S
C12 N9 1.313 . S
C12 N13 1.344 . S
C12 H16 0.930 . S
N13 C10 1.377 . S
N13 C12 1.344 . S
O14 Co6 2.055 . S
O14 C18 1.253 . S
H15 C11 0.931 . S
H16 C12 0.930 . S
O17 Co6 2.039 1_655 S
O17 C7 1.265 . S
C18 O14 1.253 . S
C18 O19 1.227 . S
O19 C18 1.227 . S
N20 Co6 2.140 . S
N20 C23 1.346 1_455 S
N20 C24 1.345 . S
C21 C22 1.387 1_455 S
C21 C25 1.391 . S
C22 C21 1.387 1_655 S
C22 C23 1.369 . S
C22 H31 0.929 . S
C23 N20 1.346 1_655 S
C23 C22 1.369 . S
C23 H26 0.928 . S
C24 N20 1.345 . S
C24 C25 1.371 . S
C24 H27 0.931 . S
C25 C21 1.391 . S
C25 C24 1.371 . S
C25 H32 0.930 . S
H26 C23 0.928 . S
H27 C24 0.931 . S
H28 C4 0.930 . S
H29 C1 0.930 . S
H30 C10 0.930 . S
H31 C22 0.929 . S
H32 C25 0.930 . S
C33 C34 1.351 . S
C33 N36 1.368 . S
C33 H38 0.931 . S
C34 C33 1.351 . S
C34 N35 1.373 . S
C34 H62 0.930 . S
N35 C34 1.373 . S
N35 C37 1.340 . S
N36 C33 1.368 . S
N36 C37 1.321 . S
N36 Co39 2.155 . S
C37 N35 1.340 . S
C37 N36 1.321 . S
C37 H61 0.930 . S
H38 C33 0.931 . S
Co39 N36 2.155 . S
Co39 N42 2.101 1_545 S
Co39 O47 2.037 1_545 S
Co39 O50 2.059 . S
Co39 N53 2.142 . S
C40 O41 1.227 . S
C40 O50 1.265 . S
O41 C40 1.227 . S
N42 Co39 2.101 1_565 S
N42 C44 1.375 . S
N42 C45 1.313 . S
C43 C44 1.338 . S
C43 N46 1.377 . S
C43 H63 0.930 . S
C44 N42 1.375 . S
C44 C43 1.338 . S
C44 H48 0.931 . S
C45 N42 1.313 . S
C45 N46 1.344 . S
C45 H49 0.930 . S
N46 C43 1.377 . S
N46 C45 1.344 . S
O47 Co39 2.037 1_565 S
O47 C51 1.253 . S
H48 C44 0.931 . S
H49 C45 0.930 . S
O50 Co39 2.059 . S
O50 C40 1.265 . S
C51 O47 1.253 . S
C51 O52 1.227 . S
O52 C51 1.227 . S
N53 Co39 2.142 . S
N53 C56 1.346 . S
N53 C57 1.345 1_545 S
C54 C55 1.387 . S
C54 C58 1.391 1_545 S
C55 C54 1.387 . S
C55 C56 1.369 . S
C55 H64 0.929 . S
C56 N53 1.346 . S
C56 C55 1.369 . S
C56 H59 0.928 . S
C57 N53 1.345 1_565 S
C57 C58 1.371 . S
C57 H60 0.931 . S
C58 C54 1.391 1_565 S
C58 C57 1.371 . S
C58 H65 0.930 . S
H59 C56 0.928 . S
H60 C57 0.931 . S
H61 C37 0.930 . S
H62 C34 0.930 . S
H63 C43 0.930 . S
H64 C55 0.929 . S
H65 C58 0.930 . S
C66 C67 1.351 . S
C66 N69 1.368 . S
C66 H71 0.931 1_655 S
C67 C66 1.351 . S
C67 N68 1.373 . S
C67 H95 0.930 . S
N68 C67 1.373 . S
N68 C70 1.340 . S
N69 C66 1.368 . S
N69 C70 1.321 . S
N69 Co72 2.135 1_655 S
C70 N68 1.340 . S
C70 N69 1.321 . S
C70 H94 0.930 . S
H71 C66 0.931 1_455 S
Co72 N69 2.135 1_455 S
Co72 N75 2.121 . S
Co72 O80 2.055 . S
Co72 O83 2.039 1_455 S
Co72 N86 2.140 . S
C73 O74 1.227 . S
C73 O83 1.265 . S
O74 C73 1.227 . S
N75 Co72 2.121 . S
N75 C77 1.375 . S
N75 C78 1.313 . S
C76 C77 1.338 . S
C76 N79 1.377 . S
C76 H96 0.930 . S
C77 N75 1.375 . S
C77 C76 1.338 . S
C77 H81 0.931 . S
C78 N75 1.313 . S
C78 N79 1.344 . S
C78 H82 0.930 . S
N79 C76 1.377 . S
N79 C78 1.344 . S
O80 Co72 2.055 . S
O80 C84 1.253 . S
H81 C77 0.931 . S
H82 C78 0.930 . S
O83 Co72 2.039 1_655 S
O83 C73 1.265 . S
C84 O80 1.253 . S
C84 O85 1.227 . S
O85 C84 1.227 . S
N86 Co72 2.140 . S
N86 C89 1.346 1_455 S
N86 C90 1.345 . S
C87 C88 1.387 1_455 S
C87 C91 1.391 . S
C88 C87 1.387 1_655 S
C88 C89 1.369 . S
C88 H97 0.929 . S
C89 N86 1.346 1_655 S
C89 C88 1.369 . S
C89 H92 0.928 . S
C90 N86 1.345 . S
C90 C91 1.371 . S
C90 H93 0.931 . S
C91 C87 1.391 . S
C91 C90 1.371 . S
C91 H98 0.930 . S
H92 C89 0.928 . S
H93 C90 0.931 . S
H94 C70 0.930 . S
H95 C67 0.930 . S
H96 C76 0.930 . S
H97 C88 0.929 . S
H98 C91 0.930 . S
C99 C100 1.351 . S
C99 N102 1.368 . S
C99 H104 0.931 1_565 S
C100 C99 1.351 . S
C100 N101 1.373 . S
C100 H128 0.930 . S
N101 C100 1.373 . S
N101 C103 1.340 . S
N102 C99 1.368 . S
N102 C103 1.321 . S
N102 Co105 2.135 1_565 S
C103 N101 1.340 . S
C103 N102 1.321 . S
C103 H127 0.930 . S
H104 C99 0.931 1_545 S
Co105 N102 2.135 1_545 S
Co105 N108 2.121 . S
Co105 O113 2.055 . S
Co105 O116 2.039 1_545 S
Co105 N119 2.140 . S
C106 O107 1.227 . S
C106 O116 1.265 . S
O107 C106 1.227 . S
N108 Co105 2.121 . S
N108 C110 1.375 . S
N108 C111 1.313 . S
C109 C110 1.338 . S
C109 N112 1.377 . S
C109 H129 0.930 . S
C110 N108 1.375 . S
C110 C109 1.338 . S
C110 H114 0.931 . S
C111 N108 1.313 . S
C111 N112 1.344 . S
C111 H115 0.930 . S
N112 C109 1.377 . S
N112 C111 1.344 . S
O113 Co105 2.055 . S
O113 C117 1.253 . S
H114 C110 0.931 . S
H115 C111 0.930 . S
O116 Co105 2.039 1_565 S
O116 C106 1.265 . S
C117 O113 1.253 . S
C117 O118 1.227 . S
O118 C117 1.227 . S
N119 Co105 2.140 . S
N119 C122 1.346 1_545 S
N119 C123 1.345 . S
C120 C121 1.387 1_545 S
C120 C124 1.391 . S
C121 C120 1.387 1_565 S
C121 C122 1.369 . S
C121 H130 0.929 . S
C122 N119 1.346 1_565 S
C122 C121 1.369 . S
C122 H125 0.928 . S
C123 N119 1.345 . S
C123 C124 1.371 . S
C123 H126 0.931 . S
C124 C120 1.391 . S
C124 C123 1.371 . S
C124 H131 0.930 . S
H125 C122 0.928 . S
H126 C123 0.931 . S
H127 C103 0.930 . S
H128 C100 0.930 . S
H129 C109 0.930 . S
H130 C121 0.929 . S
H131 C124 0.930 . S
C132 C133 1.351 . S
C132 N135 1.368 . S
C132 H137 0.931 . S
C133 C132 1.351 . S
C133 N134 1.373 . S
C133 H161 0.930 . S
N134 C133 1.373 . S
N134 C136 1.340 . S
N135 C132 1.368 . S
N135 C136 1.321 . S
N135 Co138 2.135 . S
C136 N134 1.340 . S
C136 N135 1.321 . S
C136 H160 0.930 . S
H137 C132 0.931 . S
Co138 N135 2.135 . S
Co138 N141 2.121 1_455 S
Co138 O146 2.055 1_455 S
Co138 O149 2.039 . S
Co138 N152 2.140 . S
C139 O140 1.227 . S
C139 O149 1.265 . S
O140 C139 1.227 . S
N141 Co138 2.121 1_655 S
N141 C143 1.375 . S
N141 C144 1.313 . S
C142 C143 1.338 . S
C142 N145 1.377 . S
C142 H162 0.930 . S
C143 N141 1.375 . S
C143 C142 1.338 . S
C143 H147 0.931 1_655 S
C144 N141 1.313 . S
C144 N145 1.344 . S
C144 H148 0.930 . S
N145 C142 1.377 . S
N145 C144 1.344 . S
O146 Co138 2.055 1_655 S
O146 C150 1.253 . S
H147 C143 0.931 1_455 S
H148 C144 0.930 . S
O149 Co138 2.039 . S
O149 C139 1.265 . S
C150 O146 1.253 . S
C150 O151 1.227 . S
O151 C150 1.227 . S
N152 Co138 2.140 . S
N152 C155 1.346 . S
N152 C156 1.345 1_455 S
C153 C154 1.387 . S
C153 C157 1.391 1_455 S
C154 C153 1.387 . S
C154 C155 1.369 . S
C154 H163 0.929 . S
C155 N152 1.346 . S
C155 C154 1.369 . S
C155 H158 0.928 . S
C156 N152 1.345 1_655 S
C156 C157 1.371 . S
C156 H159 0.931 . S
C157 C153 1.391 1_655 S
C157 C156 1.371 . S
C157 H164 0.930 . S
H158 C155 0.928 . S
H159 C156 0.931 . S
H160 C136 0.930 . S
H161 C133 0.930 . S
H162 C142 0.930 . S
H163 C154 0.929 . S
H164 C157 0.930 . S
C165 C166 1.351 . S
C165 N168 1.368 . S
C165 H170 0.931 1_565 S
C166 C165 1.351 . S
C166 N167 1.373 . S
C166 H194 0.930 . S
N167 C166 1.373 . S
N167 C169 1.340 . S
N168 C165 1.368 . S
N168 C169 1.321 . S
N168 Co171 2.135 1_565 S
C169 N167 1.340 . S
C169 N168 1.321 . S
C169 H193 0.930 . S
H170 C165 0.931 1_545 S
Co171 N168 2.135 1_545 S
Co171 N174 2.121 . S
Co171 O179 2.055 . S
Co171 O182 2.039 1_545 S
Co171 N185 2.140 . S
C172 O173 1.227 . S
C172 O182 1.265 . S
O173 C172 1.227 . S
N174 Co171 2.121 . S
N174 C176 1.375 . S
N174 C177 1.313 . S
C175 C176 1.338 . S
C175 N178 1.377 . S
C175 H195 0.930 . S
C176 N174 1.375 . S
C176 C175 1.338 . S
C176 H180 0.931 . S
C177 N174 1.313 . S
C177 N178 1.344 . S
C177 H181 0.930 . S
N178 C175 1.377 . S
N178 C177 1.344 . S
O179 Co171 2.055 . S
O179 C183 1.253 . S
H180 C176 0.931 . S
H181 C177 0.930 . S
O182 Co171 2.039 1_565 S
O182 C172 1.265 . S
C183 O179 1.253 . S
C183 O184 1.227 . S
O184 C183 1.227 . S
N185 Co171 2.140 . S
N185 C188 1.346 1_545 S
N185 C189 1.345 . S
C186 C187 1.387 1_545 S
C186 C190 1.391 . S
C187 C186 1.387 1_565 S
C187 C188 1.369 . S
C187 H196 0.929 . S
C188 N185 1.346 1_565 S
C188 C187 1.369 . S
C188 H191 0.928 . S
C189 N185 1.345 . S
C189 C190 1.371 . S
C189 H192 0.931 . S
C190 C186 1.391 . S
C190 C189 1.371 . S
C190 H197 0.930 . S
H191 C188 0.928 . S
H192 C189 0.931 . S
H193 C169 0.930 . S
H194 C166 0.930 . S
H195 C175 0.930 . S
H196 C187 0.929 . S
H197 C190 0.930 . S
C198 C199 1.351 . S
C198 N201 1.368 . S
C198 H203 0.919 1_655 S
C199 C198 1.351 . S
C199 N200 1.373 . S
C199 H227 0.930 . S
N200 C199 1.373 . S
N200 C202 1.340 . S
N201 C198 1.368 . S
N201 C202 1.321 . S
N201 Co204 2.135 1_655 S
C202 N200 1.340 . S
C202 N201 1.321 . S
C202 H226 0.930 . S
H203 C198 0.919 1_455 S
Co204 N201 2.135 1_455 S
Co204 N207 2.121 . S
Co204 O212 2.055 . S
Co204 O215 2.039 1_455 S
Co204 N218 2.140 . S
C205 O206 1.227 . S
C205 O215 1.265 . S
O206 C205 1.227 . S
N207 Co204 2.121 . S
N207 C209 1.375 . S
N207 C210 1.313 . S
C208 C209 1.338 . S
C208 N211 1.377 . S
C208 H228 0.930 . S
C209 N207 1.375 . S
C209 C208 1.338 . S
C209 H213 0.931 . S
C210 N207 1.313 . S
C210 N211 1.344 . S
C210 H214 0.930 . S
N211 C208 1.377 . S
N211 C210 1.344 . S
O212 Co204 2.055 . S
O212 C216 1.253 . S
H213 C209 0.931 . S
H214 C210 0.930 . S
O215 Co204 2.039 1_655 S
O215 C205 1.265 . S
C216 O212 1.253 . S
C216 O217 1.227 . S
O217 C216 1.227 . S
N218 Co204 2.140 . S
N218 C221 1.346 1_455 S
N218 C222 1.345 . S
C219 C220 1.387 . S
C219 C223 1.391 1_655 S
C220 C219 1.387 . S
C220 C221 1.369 . S
C220 H229 0.929 . S
C221 N218 1.346 1_655 S
C221 C220 1.369 . S
C221 H224 0.928 . S
C222 N218 1.345 . S
C222 C223 1.371 . S
C222 H225 0.931 . S
C223 C219 1.391 1_455 S
C223 C222 1.371 . S
C223 H230 0.930 . S
H224 C221 0.928 . S
H225 C222 0.931 . S
H226 C202 0.930 . S
H227 C199 0.930 . S
H228 C208 0.930 . S
H229 C220 0.929 . S
H230 C223 0.930 . S
C231 C232 1.351 . S
C231 N234 1.368 . S
C231 H236 0.931 . S
C232 C231 1.351 . S
C232 N233 1.373 . S
C232 H260 0.930 . S
N233 C232 1.373 . S
N233 C235 1.340 . S
N234 C231 1.368 . S
N234 C235 1.321 . S
N234 Co237 2.135 . S
C235 N233 1.340 . S
C235 N234 1.321 . S
C235 H259 0.930 . S
H236 C231 0.931 . S
Co237 N234 2.135 . S
Co237 N240 2.121 1_545 S
Co237 O245 2.055 1_545 S
Co237 O248 2.039 . S
Co237 N251 2.140 . S
C238 O239 1.227 . S
C238 O248 1.265 . S
O239 C238 1.227 . S
N240 Co237 2.121 1_565 S
N240 C242 1.375 . S
N240 C243 1.313 . S
C241 C242 1.338 . S
C241 N244 1.377 . S
C241 H261 0.930 . S
C242 N240 1.375 . S
C242 C241 1.338 . S
C242 H246 0.931 1_565 S
C243 N240 1.313 . S
C243 N244 1.344 . S
C243 H247 0.930 . S
N244 C241 1.377 . S
N244 C243 1.344 . S
O245 Co237 2.055 1_565 S
O245 C249 1.253 . S
H246 C242 0.931 1_545 S
H247 C243 0.930 . S
O248 Co237 2.039 . S
O248 C238 1.265 . S
C249 O245 1.253 . S
C249 O250 1.227 . S
O250 C249 1.227 . S
N251 Co237 2.140 . S
N251 C254 1.346 . S
N251 C255 1.345 1_545 S
C252 C253 1.387 . S
C252 C256 1.391 1_545 S
C253 C252 1.387 . S
C253 C254 1.369 . S
C253 H262 0.929 . S
C254 N251 1.346 . S
C254 C253 1.369 . S
C254 H257 0.928 . S
C255 N251 1.345 1_565 S
C255 C256 1.371 . S
C255 H258 0.931 . S
C256 C252 1.391 1_565 S
C256 C255 1.371 . S
C256 H263 0.930 . S
H257 C254 0.928 . S
H258 C255 0.931 . S
H259 C235 0.930 . S
H260 C232 0.930 . S
H261 C241 0.930 . S
H262 C253 0.929 . S
H263 C256 0.930 . S
C264 C265 1.351 . S
C264 N267 1.368 . S
C264 H269 0.931 1_556 S
C265 C264 1.351 . S
C265 N266 1.373 . S
C265 H293 0.930 . S
N266 C265 1.373 . S
N266 C268 1.340 . S
N267 C264 1.368 . S
N267 C268 1.321 . S
N267 Co270 2.135 1_556 S
C268 N266 1.340 . S
C268 N267 1.321 . S
C268 H292 0.930 . S
H269 C264 0.931 1_554 S
Co270 N267 2.135 1_554 S
Co270 N273 2.121 . S
Co270 O278 2.055 . S
Co270 O281 2.039 1_554 S
Co270 N284 2.140 . S
C271 O272 1.227 . S
C271 O281 1.265 . S
O272 C271 1.227 . S
N273 Co270 2.121 . S
N273 C275 1.375 . S
N273 C276 1.313 . S
C274 C275 1.338 . S
C274 N277 1.377 . S
C274 H294 0.930 . S
C275 N273 1.375 . S
C275 C274 1.338 . S
C275 H279 0.931 . S
C276 N273 1.313 . S
C276 N277 1.344 . S
C276 H280 0.930 . S
N277 C274 1.377 . S
N277 C276 1.344 . S
O278 Co270 2.055 . S
O278 C282 1.253 . S
H279 C275 0.931 . S
H280 C276 0.930 . S
O281 Co270 2.039 1_556 S
O281 C271 1.265 . S
C282 O278 1.253 . S
C282 O283 1.227 . S
O283 C282 1.227 . S
N284 Co270 2.140 . S
N284 C287 1.346 1_554 S
N284 C288 1.345 . S
C285 C286 1.387 1_554 S
C285 C289 1.391 . S
C286 C285 1.387 1_556 S
C286 C287 1.369 . S
C286 H295 0.929 . S
C287 N284 1.346 1_556 S
C287 C286 1.369 . S
C287 H290 0.928 . S
C288 N284 1.345 . S
C288 C289 1.371 . S
C288 H291 0.931 . S
C289 C285 1.391 . S
C289 C288 1.371 . S
C289 H296 0.930 . S
H290 C287 0.928 . S
H291 C288 0.931 . S
H292 C268 0.930 . S
H293 C265 0.930 . S
H294 C274 0.930 . S
H295 C286 0.929 . S
H296 C289 0.930 . S
C297 C298 1.351 . S
C297 N300 1.368 . S
C297 H302 0.931 . S
C298 C297 1.351 . S
C298 N299 1.373 . S
C298 H326 0.930 . S
N299 C298 1.373 . S
N299 C301 1.340 . S
N300 C297 1.368 . S
N300 C301 1.321 . S
N300 Co303 2.135 . S
C301 N299 1.340 . S
C301 N300 1.321 . S
C301 H325 0.930 . S
H302 C297 0.931 . S
Co303 N300 2.135 . S
Co303 N306 2.121 1_554 S
Co303 O311 2.055 1_554 S
Co303 O314 2.039 . S
Co303 N317 2.140 . S
C304 O305 1.227 . S
C304 O314 1.265 . S
O305 C304 1.227 . S
N306 Co303 2.121 1_556 S
N306 C308 1.375 . S
N306 C309 1.313 . S
C307 C308 1.338 . S
C307 N310 1.377 . S
C307 H327 0.930 . S
C308 N306 1.375 . S
C308 C307 1.338 . S
C308 H312 0.931 1_556 S
C309 N306 1.313 . S
C309 N310 1.344 . S
C309 H313 0.930 . S
N310 C307 1.377 . S
N310 C309 1.344 . S
O311 Co303 2.055 1_556 S
O311 C315 1.253 . S
H312 C308 0.931 1_554 S
H313 C309 0.930 . S
O314 Co303 2.039 . S
O314 C304 1.265 . S
C315 O311 1.253 . S
C315 O316 1.227 . S
O316 C315 1.227 . S
N317 Co303 2.140 . S
N317 C320 1.346 . S
N317 C321 1.345 1_554 S
C318 C319 1.387 . S
C318 C322 1.391 1_554 S
C319 C318 1.387 . S
C319 C320 1.369 . S
C319 H328 0.929 . S
C320 N317 1.346 . S
C320 C319 1.369 . S
C320 H323 0.928 . S
C321 N317 1.345 1_556 S
C321 C322 1.371 . S
C321 H324 0.931 . S
C322 C318 1.391 1_556 S
C322 C321 1.371 . S
C322 H329 0.930 . S
H323 C320 0.928 . S
H324 C321 0.931 . S
H325 C301 0.930 . S
H326 C298 0.930 . S
H327 C307 0.930 . S
H328 C319 0.929 . S
H329 C322 0.930 . S
C330 C331 1.351 . S
C330 N333 1.368 . S
C330 H335 0.931 1_556 S
C331 C330 1.351 . S
C331 N332 1.373 . S
C331 H359 0.930 . S
N332 C331 1.373 . S
N332 C334 1.340 . S
N333 C330 1.368 . S
N333 C334 1.321 . S
N333 Co336 2.135 1_556 S
C334 N332 1.340 . S
C334 N333 1.321 . S
C334 H358 0.930 . S
H335 C330 0.931 1_554 S
Co336 N333 2.135 1_554 S
Co336 N339 2.121 . S
Co336 O344 2.055 . S
Co336 O347 2.039 1_554 S
Co336 N350 2.140 . S
C337 O338 1.227 . S
C337 O347 1.265 . S
O338 C337 1.227 . S
N339 Co336 2.121 . S
N339 C341 1.375 . S
N339 C342 1.313 . S
C340 C341 1.338 . S
C340 N343 1.377 . S
C340 H360 0.930 . S
C341 N339 1.375 . S
C341 C340 1.338 . S
C341 H345 0.931 . S
C342 N339 1.313 . S
C342 N343 1.344 . S
C342 H346 0.930 . S
N343 C340 1.377 . S
N343 C342 1.344 . S
O344 Co336 2.055 . S
O344 C348 1.253 . S
H345 C341 0.931 . S
H346 C342 0.930 . S
O347 Co336 2.039 1_556 S
O347 C337 1.265 . S
C348 O344 1.253 . S
C348 O349 1.227 . S
O349 C348 1.227 . S
N350 Co336 2.140 . S
N350 C353 1.346 1_554 S
N350 C354 1.345 . S
C351 C352 1.387 1_554 S
C351 C355 1.391 . S
C352 C351 1.387 1_556 S
C352 C353 1.369 . S
C352 H361 0.929 . S
C353 N350 1.346 1_556 S
C353 C352 1.369 . S
C353 H356 0.928 . S
C354 N350 1.345 . S
C354 C355 1.371 . S
C354 H357 0.931 . S
C355 C351 1.391 . S
C355 C354 1.371 . S
C355 H362 0.930 . S
H356 C353 0.928 . S
H357 C354 0.931 . S
H358 C334 0.930 . S
H359 C331 0.930 . S
H360 C340 0.930 . S
H361 C352 0.929 . S
H362 C355 0.930 . S
C363 C364 1.351 . S
C363 N366 1.368 . S
C363 H368 0.931 1_556 S
C364 C363 1.351 . S
C364 N365 1.373 . S
C364 H392 0.930 . S
N365 C364 1.373 . S
N365 C367 1.340 . S
N366 C363 1.368 . S
N366 C367 1.321 . S
N366 Co369 2.135 1_556 S
C367 N365 1.340 . S
C367 N366 1.321 . S
C367 H391 0.930 . S
H368 C363 0.931 1_554 S
Co369 N366 2.135 1_554 S
Co369 N372 2.121 . S
Co369 O377 2.055 . S
Co369 O380 2.039 1_554 S
Co369 N383 2.140 . S
C370 O371 1.227 . S
C370 O380 1.265 . S
O371 C370 1.227 . S
N372 Co369 2.121 . S
N372 C374 1.375 . S
N372 C375 1.313 . S
C373 C374 1.338 . S
C373 N376 1.377 . S
C373 H393 0.930 . S
C374 N372 1.375 . S
C374 C373 1.338 . S
C374 H378 0.931 . S
C375 N372 1.313 . S
C375 N376 1.344 . S
C375 H379 0.930 . S
N376 C373 1.377 . S
N376 C375 1.344 . S
O377 Co369 2.055 . S
O377 C381 1.253 . S
H378 C374 0.931 . S
H379 C375 0.930 . S
O380 Co369 2.039 1_556 S
O380 C370 1.265 . S
C381 O377 1.253 . S
C381 O382 1.227 . S
O382 C381 1.227 . S
N383 Co369 2.140 . S
N383 C386 1.346 1_554 S
N383 C387 1.345 . S
C384 C385 1.387 1_554 S
C384 C388 1.391 . S
C385 C384 1.387 1_556 S
C385 C386 1.369 . S
C385 H394 0.929 . S
C386 N383 1.346 1_556 S
C386 C385 1.369 . S
C386 H389 0.928 . S
C387 N383 1.345 . S
C387 C388 1.371 . S
C387 H390 0.931 . S
C388 C384 1.391 . S
C388 C387 1.371 . S
C388 H395 0.930 . S
H389 C386 0.928 . S
H390 C387 0.931 . S
H391 C367 0.930 . S
H392 C364 0.930 . S
H393 C373 0.930 . S
H394 C385 0.929 . S
H395 C388 0.930 . S
C396 C397 1.351 . S
C396 N399 1.368 . S
C396 H401 0.931 1_655 S
C397 C396 1.351 . S
C397 N398 1.373 . S
C397 H425 0.930 . S
N398 C397 1.373 . S
N398 C400 1.340 . S
N399 C396 1.368 . S
N399 C400 1.321 . S
N399 Co402 2.135 1_655 S
C400 N398 1.340 . S
C400 N399 1.321 . S
C400 H424 0.930 . S
H401 C396 0.931 1_455 S
Co402 N399 2.135 1_455 S
Co402 N405 2.121 . S
Co402 O410 2.055 . S
Co402 O413 2.039 1_455 S
Co402 N416 2.140 . S
C403 O404 1.227 . S
C403 O413 1.265 . S
O404 C403 1.227 . S
N405 Co402 2.121 . S
N405 C407 1.375 . S
N405 C408 1.313 . S
C406 C407 1.338 . S
C406 N409 1.377 . S
C406 H426 0.930 . S
C407 N405 1.375 . S
C407 C406 1.338 . S
C407 H411 0.931 . S
C408 N405 1.313 . S
C408 N409 1.344 . S
C408 H412 0.930 . S
N409 C406 1.377 . S
N409 C408 1.344 . S
O410 Co402 2.055 . S
O410 C414 1.253 . S
H411 C407 0.931 . S
H412 C408 0.930 . S
O413 Co402 2.039 1_655 S
O413 C403 1.265 . S
C414 O410 1.253 . S
C414 O415 1.227 . S
O415 C414 1.227 . S
N416 Co402 2.140 . S
N416 C419 1.346 1_455 S
N416 C420 1.345 . S
C417 C418 1.387 1_455 S
C417 C421 1.391 . S
C418 C417 1.387 1_655 S
C418 C419 1.369 . S
C418 H427 0.929 . S
C419 N416 1.346 1_655 S
C419 C418 1.369 . S
C419 H422 0.928 . S
C420 N416 1.345 . S
C420 C421 1.371 . S
C420 H423 0.931 . S
C421 C417 1.391 . S
C421 C420 1.371 . S
C421 H428 0.930 . S
H422 C419 0.928 . S
H423 C420 0.931 . S
H424 C400 0.930 . S
H425 C397 0.930 . S
H426 C406 0.930 . S
H427 C418 0.929 . S
H428 C421 0.930 . S
C429 C430 1.351 . S
C429 N432 1.368 . S
C429 H434 0.931 . S
C430 C429 1.351 . S
C430 N431 1.373 . S
C430 H458 0.930 . S
N431 C430 1.373 . S
N431 C433 1.340 . S
N432 C429 1.368 . S
N432 C433 1.321 . S
N432 Co435 2.135 . S
C433 N431 1.340 . S
C433 N432 1.321 . S
C433 H457 0.930 . S
H434 C429 0.931 . S
Co435 N432 2.135 . S
Co435 N438 2.121 . S
Co435 O443 2.055 . S
Co435 O446 2.039 . S
Co435 N449 2.140 . S
C436 O437 1.227 . S
C436 O446 1.265 . S
O437 C436 1.227 . S
N438 Co435 2.121 . S
N438 C440 1.375 . S
N438 C441 1.313 . S
C439 C440 1.338 . S
C439 N442 1.377 . S
C439 H459 0.930 . S
C440 N438 1.375 . S
C440 C439 1.338 . S
C440 H444 0.931 . S
C441 N438 1.313 . S
C441 N442 1.344 . S
C441 H445 0.930 . S
N442 C439 1.377 . S
N442 C441 1.344 . S
O443 Co435 2.055 . S
O443 C447 1.253 . S
H444 C440 0.931 . S
H445 C441 0.930 . S
O446 Co435 2.039 . S
O446 C436 1.265 . S
C447 O443 1.253 . S
C447 O448 1.227 . S
O448 C447 1.227 . S
N449 Co435 2.140 . S
N449 C452 1.346 . S
N449 C453 1.345 . S
C450 C451 1.387 . S
C450 C454 1.391 . S
C451 C450 1.387 . S
C451 C452 1.369 . S
C451 H460 0.929 . S
C452 N449 1.346 . S
C452 C451 1.369 . S
C452 H455 0.928 . S
C453 N449 1.345 . S
C453 C454 1.371 . S
C453 H456 0.931 . S
C454 C450 1.391 . S
C454 C453 1.371 . S
C454 H461 0.930 . S
H455 C452 0.928 . S
H456 C453 0.931 . S
H457 C433 0.930 . S
H458 C430 0.930 . S
H459 C439 0.930 . S
H460 C451 0.929 . S
H461 C454 0.930 . S
C462 C463 1.351 . S
C462 N465 1.368 . S
C462 H467 0.931 1_655 S
C463 C462 1.351 . S
C463 N464 1.373 . S
C463 H491 0.930 . S
N464 C463 1.373 . S
N464 C466 1.340 . S
N465 C462 1.368 . S
N465 C466 1.321 . S
N465 Co468 2.135 1_655 S
C466 N464 1.340 . S
C466 N465 1.321 . S
C466 H490 0.930 . S
H467 C462 0.931 1_455 S
Co468 N465 2.135 1_455 S
Co468 N471 2.121 . S
Co468 O476 2.055 . S
Co468 O479 2.039 1_455 S
Co468 N482 2.140 . S
C469 O470 1.227 . S
C469 O479 1.265 . S
O470 C469 1.227 . S
N471 Co468 2.121 . S
N471 C473 1.375 . S
N471 C474 1.313 . S
C472 C473 1.338 . S
C472 N475 1.377 . S
C472 H492 0.930 . S
C473 N471 1.375 . S
C473 C472 1.338 . S
C473 H477 0.931 . S
C474 N471 1.313 . S
C474 N475 1.344 . S
C474 H478 0.930 . S
N475 C472 1.377 . S
N475 C474 1.344 . S
O476 Co468 2.055 . S
O476 C480 1.253 . S
H477 C473 0.931 . S
H478 C474 0.930 . S
O479 Co468 2.039 1_655 S
O479 C469 1.265 . S
C480 O476 1.253 . S
C480 O481 1.227 . S
O481 C480 1.227 . S
N482 Co468 2.140 . S
N482 C485 1.346 1_455 S
N482 C486 1.345 . S
C483 C484 1.368 1_455 S
C483 C487 1.411 . S
C484 C483 1.368 1_655 S
C484 C485 1.369 . S
C484 H493 0.929 . S
C485 N482 1.346 1_655 S
C485 C484 1.369 . S
C485 H488 0.928 . S
C486 N482 1.345 . S
C486 C487 1.371 . S
C486 H489 0.931 . S
C487 C483 1.411 . S
C487 C486 1.371 . S
C487 H494 0.930 . S
H488 C485 0.928 . S
H489 C486 0.931 . S
H490 C466 0.930 . S
H491 C463 0.930 . S
H492 C472 0.930 . S
H493 C484 0.929 . S
H494 C487 0.930 . S
C495 C496 1.351 . S
C495 N498 1.368 . S
C495 H500 0.931 . S
C496 C495 1.351 . S
C496 N497 1.373 . S
C496 H524 0.930 . S
N497 C496 1.373 . S
N497 C499 1.340 . S
N498 C495 1.368 . S
N498 C499 1.321 . S
N498 Co501 2.135 . S
C499 N497 1.340 . S
C499 N498 1.321 . S
C499 H523 0.930 . S
H500 C495 0.931 . S
Co501 N498 2.135 . S
Co501 N504 2.121 . S
Co501 O509 2.055 . S
Co501 O512 2.039 . S
Co501 N515 2.140 . S
C502 O503 1.227 . S
C502 O512 1.265 . S
O503 C502 1.227 . S
N504 Co501 2.121 . S
N504 C506 1.375 . S
N504 C507 1.313 . S
C505 C506 1.338 . S
C505 N508 1.377 . S
C505 H525 0.930 . S
C506 N504 1.375 . S
C506 C505 1.338 . S
C506 H510 0.931 . S
C507 N504 1.313 . S
C507 N508 1.344 . S
C507 H511 0.930 . S
N508 C505 1.377 . S
N508 C507 1.344 . S
O509 Co501 2.055 . S
O509 C513 1.253 . S
H510 C506 0.931 . S
H511 C507 0.930 . S
O512 Co501 2.039 . S
O512 C502 1.265 . S
C513 O509 1.253 . S
C513 O514 1.227 . S
O514 C513 1.227 . S
N515 Co501 2.140 . S
N515 C518 1.346 . S
N515 C519 1.345 . S
C516 C517 1.387 . S
C516 C520 1.391 . S
C517 C516 1.387 . S
C517 C518 1.369 . S
C517 H526 0.929 . S
C518 N515 1.346 . S
C518 C517 1.369 . S
C518 H521 0.928 . S
C519 N515 1.345 . S
C519 C520 1.371 . S
C519 H522 0.931 . S
C520 C516 1.391 . S
C520 C519 1.371 . S
C520 H527 0.930 . S
H521 C518 0.928 . S
H522 C519 0.931 . S
H523 C499 0.930 . S
H524 C496 0.930 . S
H525 C505 0.930 . S
H526 C517 0.929 . S
H527 C520 0.930 . S
C528 C529 1.351 . S
C528 N531 1.368 . S
C528 H533 0.931 . S
C529 C528 1.351 . S
C529 N530 1.373 . S
C529 H557 0.930 . S
N530 C529 1.373 . S
N530 C532 1.340 . S
N531 C528 1.368 . S
N531 C532 1.321 . S
N531 Co534 2.135 . S
C532 N530 1.340 . S
C532 N531 1.321 . S
C532 H556 0.930 . S
H533 C528 0.931 . S
Co534 N531 2.135 . S
Co534 N537 2.121 1_455 S
Co534 O542 2.055 1_455 S
Co534 O545 2.039 . S
Co534 N548 2.140 . S
C535 O536 1.227 . S
C535 O545 1.265 . S
O536 C535 1.227 . S
N537 Co534 2.121 1_655 S
N537 C539 1.375 . S
N537 C540 1.313 . S
C538 C539 1.338 . S
C538 N541 1.377 . S
C538 H558 0.930 . S
C539 N537 1.375 . S
C539 C538 1.338 . S
C539 H543 0.931 1_655 S
C540 N537 1.313 . S
C540 N541 1.344 . S
C540 H544 0.930 . S
N541 C538 1.377 . S
N541 C540 1.344 . S
O542 Co534 2.055 1_655 S
O542 C546 1.253 . S
H543 C539 0.931 1_455 S
H544 C540 0.930 . S
O545 Co534 2.039 . S
O545 C535 1.265 . S
C546 O542 1.253 . S
C546 O547 1.227 . S
O547 C546 1.227 . S
N548 Co534 2.140 . S
N548 C551 1.346 . S
N548 C552 1.345 1_455 S
C549 C550 1.387 . S
C549 C553 1.391 1_455 S
C550 C549 1.387 . S
C550 C551 1.369 . S
C550 H559 0.929 . S
C551 N548 1.346 . S
C551 C550 1.369 . S
C551 H554 0.928 . S
C552 N548 1.345 1_655 S
C552 C553 1.371 . S
C552 H555 0.931 . S
C553 C549 1.391 1_655 S
C553 C552 1.371 . S
C553 H560 0.930 . S
H554 C551 0.928 . S
H555 C552 0.931 . S
H556 C532 0.930 . S
H557 C529 0.930 . S
H558 C538 0.930 . S
H559 C550 0.929 . S
H560 C553 0.930 . S
C561 C562 1.351 . S
C561 N564 1.368 . S
C561 H566 0.931 . S
C562 C561 1.351 . S
C562 N563 1.373 . S
C562 H590 0.930 . S
N563 C562 1.373 . S
N563 C565 1.340 . S
N564 C561 1.368 . S
N564 C565 1.321 . S
N564 Co567 2.135 . S
C565 N563 1.340 . S
C565 N564 1.321 . S
C565 H589 0.930 . S
H566 C561 0.931 . S
Co567 N564 2.135 . S
Co567 N570 2.121 . S
Co567 O575 2.055 . S
Co567 O578 2.039 . S
Co567 N581 2.140 . S
C568 O569 1.227 . S
C568 O578 1.265 . S
O569 C568 1.227 . S
N570 Co567 2.121 . S
N570 C572 1.375 . S
N570 C573 1.313 . S
C571 C572 1.338 . S
C571 N574 1.377 . S
C571 H591 0.930 . S
C572 N570 1.375 . S
C572 C571 1.338 . S
C572 H576 0.931 . S
C573 N570 1.313 . S
C573 N574 1.344 . S
C573 H577 0.930 . S
N574 C571 1.377 . S
N574 C573 1.344 . S
O575 Co567 2.055 . S
O575 C579 1.253 . S
H576 C572 0.931 . S
H577 C573 0.930 . S
O578 Co567 2.039 . S
O578 C568 1.265 . S
C579 O575 1.253 . S
C579 O580 1.227 . S
O580 C579 1.227 . S
N581 Co567 2.140 . S
N581 C584 1.346 . S
N581 C585 1.345 . S
C582 C583 1.387 . S
C582 C586 1.391 . S
C583 C582 1.387 . S
C583 C584 1.369 . S
C583 H592 0.929 . S
C584 N581 1.346 . S
C584 C583 1.369 . S
C584 H587 0.928 . S
C585 N581 1.345 . S
C585 C586 1.371 . S
C585 H588 0.931 . S
C586 C582 1.391 . S
C586 C585 1.371 . S
C586 H593 0.930 . S
H587 C584 0.928 . S
H588 C585 0.931 . S
H589 C565 0.930 . S
H590 C562 0.930 . S
H591 C571 0.930 . S
H592 C583 0.929 . S
H593 C586 0.930 . S
C594 C595 1.351 . S
C594 N597 1.368 . S
C594 H599 0.931 1_655 S
C595 C594 1.351 . S
C595 N596 1.373 . S
C595 H623 0.930 . S
N596 C595 1.373 . S
N596 C598 1.340 . S
N597 C594 1.368 . S
N597 C598 1.321 . S
N597 Co600 2.135 1_655 S
C598 N596 1.340 . S
C598 N597 1.321 . S
C598 H622 0.930 . S
H599 C594 0.931 1_455 S
Co600 N597 2.135 1_455 S
Co600 N603 2.121 . S
Co600 O608 2.055 . S
Co600 O611 2.039 1_455 S
Co600 N614 2.140 . S
C601 O602 1.227 . S
C601 O611 1.265 . S
O602 C601 1.227 . S
N603 Co600 2.121 . S
N603 C605 1.375 . S
N603 C606 1.313 . S
C604 C605 1.338 . S
C604 N607 1.377 . S
C604 H624 0.930 . S
C605 N603 1.375 . S
C605 C604 1.338 . S
C605 H609 0.931 . S
C606 N603 1.313 . S
C606 N607 1.344 . S
C606 H610 0.930 . S
N607 C604 1.377 . S
N607 C606 1.344 . S
O608 Co600 2.055 . S
O608 C612 1.253 . S
H609 C605 0.931 . S
H610 C606 0.930 . S
O611 Co600 2.039 1_655 S
O611 C601 1.265 . S
C612 O608 1.253 . S
C612 O613 1.227 . S
O613 C612 1.227 . S
N614 Co600 2.140 . S
N614 C617 1.346 1_455 S
N614 C618 1.345 . S
C615 C616 1.387 1_455 S
C615 C619 1.391 . S
C616 C615 1.387 1_655 S
C616 C617 1.369 . S
C616 H625 0.929 . S
C617 N614 1.346 1_655 S
C617 C616 1.369 . S
C617 H620 0.928 . S
C618 N614 1.345 . S
C618 C619 1.371 . S
C618 H621 0.931 . S
C619 C615 1.391 . S
C619 C618 1.371 . S
C619 H626 0.930 . S
H620 C617 0.928 . S
H621 C618 0.931 . S
H622 C598 0.930 . S
H623 C595 0.930 . S
H624 C604 0.930 . S
H625 C616 0.929 . S
H626 C619 0.930 . S
C627 C628 1.351 . S
C627 N630 1.368 . S
C627 H632 0.931 . S
C628 C627 1.351 . S
C628 N629 1.373 . S
C628 H656 0.930 . S
N629 C628 1.373 . S
N629 C631 1.340 . S
N630 C627 1.368 . S
N630 C631 1.321 . S
N630 Co633 2.135 . S
C631 N629 1.340 . S
C631 N630 1.321 . S
C631 H655 0.930 . S
H632 C627 0.931 . S
Co633 N630 2.135 . S
Co633 N636 2.121 . S
Co633 O641 2.055 . S
Co633 O644 2.039 . S
Co633 N647 2.140 . S
C634 O635 1.227 . S
C634 O644 1.265 . S
O635 C634 1.227 . S
N636 Co633 2.121 . S
N636 C638 1.375 . S
N636 C639 1.313 . S
C637 C638 1.338 . S
C637 N640 1.377 . S
C637 H657 0.930 . S
C638 N636 1.375 . S
C638 C637 1.338 . S
C638 H642 0.931 . S
C639 N636 1.313 . S
C639 N640 1.344 . S
C639 H643 0.930 . S
N640 C637 1.377 . S
N640 C639 1.344 . S
O641 Co633 2.055 . S
O641 C645 1.253 . S
H642 C638 0.931 . S
H643 C639 0.930 . S
O644 Co633 2.039 . S
O644 C634 1.265 . S
C645 O641 1.253 . S
C645 O646 1.227 . S
O646 C645 1.227 . S
N647 Co633 2.140 . S
N647 C650 1.346 . S
N647 C651 1.345 . S
C648 C649 1.387 . S
C648 C652 1.391 . S
C649 C648 1.387 . S
C649 C650 1.369 . S
C649 H658 0.929 . S
C650 N647 1.346 . S
C650 C649 1.369 . S
C650 H653 0.928 . S
C651 N647 1.345 . S
C651 C652 1.371 . S
C651 H654 0.931 . S
C652 C648 1.391 . S
C652 C651 1.371 . S
C652 H659 0.930 . S
H653 C650 0.928 . S
H654 C651 0.931 . S
H655 C631 0.930 . S
H656 C628 0.930 . S
H657 C637 0.930 . S
H658 C649 0.929 . S
H659 C652 0.930 . S
C660 C661 1.351 . S
C660 N663 1.368 . S
C660 H665 0.931 . S
C661 C660 1.351 . S
C661 N662 1.373 . S
C661 H689 0.930 . S
N662 C661 1.373 . S
N662 C664 1.340 . S
N663 C660 1.368 . S
N663 C664 1.321 . S
N663 Co666 2.135 . S
C664 N662 1.340 . S
C664 N663 1.321 . S
C664 H688 0.930 . S
H665 C660 0.931 . S
Co666 N663 2.135 . S
Co666 N669 2.121 . S
Co666 O674 2.055 . S
Co666 O677 2.039 . S
Co666 N680 2.140 . S
C667 O668 1.227 . S
C667 O677 1.265 . S
O668 C667 1.227 . S
N669 Co666 2.121 . S
N669 C671 1.375 . S
N669 C672 1.313 . S
C670 C671 1.338 . S
C670 N673 1.377 . S
C670 H690 0.930 . S
C671 N669 1.375 . S
C671 C670 1.338 . S
C671 H675 0.931 . S
C672 N669 1.313 . S
C672 N673 1.344 . S
C672 H676 0.930 . S
N673 C670 1.377 . S
N673 C672 1.344 . S
O674 Co666 2.055 . S
O674 C678 1.253 . S
H675 C671 0.931 . S
H676 C672 0.930 . S
O677 Co666 2.039 . S
O677 C667 1.265 . S
C678 O674 1.253 . S
C678 O679 1.227 . S
O679 C678 1.227 . S
N680 Co666 2.140 . S
N680 C683 1.346 . S
N680 C684 1.345 . S
C681 C682 1.387 . S
C681 C685 1.391 . S
C682 C681 1.387 . S
C682 C683 1.369 . S
C682 H691 0.929 . S
C683 N680 1.346 . S
C683 C682 1.369 . S
C683 H686 0.928 . S
C684 N680 1.345 . S
C684 C685 1.371 . S
C684 H687 0.931 . S
C685 C681 1.391 . S
C685 C684 1.371 . S
C685 H692 0.930 . S
H686 C683 0.928 . S
H687 C684 0.931 . S
H688 C664 0.930 . S
H689 C661 0.930 . S
H690 C670 0.930 . S
H691 C682 0.929 . S
H692 C685 0.930 . S
C693 C694 1.351 . S
C693 N696 1.368 . S
C693 H698 0.931 . S
C694 C693 1.351 . S
C694 N695 1.373 . S
C694 H722 0.930 . S
N695 C694 1.373 . S
N695 C697 1.340 . S
N696 C693 1.368 . S
N696 C697 1.321 . S
N696 Co699 2.135 . S
C697 N695 1.340 . S
C697 N696 1.321 . S
C697 H721 0.930 . S
H698 C693 0.931 . S
Co699 N696 2.135 . S
Co699 N702 2.121 . S
Co699 O707 2.055 . S
Co699 O710 2.039 . S
Co699 N713 2.140 . S
C700 O701 1.227 . S
C700 O710 1.265 . S
O701 C700 1.227 . S
N702 Co699 2.121 . S
N702 C704 1.375 . S
N702 C705 1.313 . S
C703 C704 1.338 . S
C703 N706 1.377 . S
C703 H723 0.930 . S
C704 N702 1.375 . S
C704 C703 1.338 . S
C704 H708 0.931 . S
C705 N702 1.313 . S
C705 N706 1.344 . S
C705 H709 0.930 . S
N706 C703 1.377 . S
N706 C705 1.344 . S
O707 Co699 2.055 . S
O707 C711 1.253 . S
H708 C704 0.931 . S
H709 C705 0.930 . S
O710 Co699 2.039 . S
O710 C700 1.265 . S
C711 O707 1.253 . S
C711 O712 1.227 . S
O712 C711 1.227 . S
N713 Co699 2.140 . S
N713 C716 1.346 . S
N713 C717 1.345 . S
C714 C715 1.387 . S
C714 C718 1.391 . S
C715 C714 1.387 . S
C715 C716 1.369 . S
C715 H724 0.929 . S
C716 N713 1.346 . S
C716 C715 1.369 . S
C716 H719 0.928 . S
C717 N713 1.345 . S
C717 C718 1.371 . S
C717 H720 0.931 . S
C718 C714 1.391 . S
C718 C717 1.371 . S
C718 H725 0.930 . S
H719 C716 0.928 . S
H720 C717 0.931 . S
H721 C697 0.930 . S
H722 C694 0.930 . S
H723 C703 0.930 . S
H724 C715 0.929 . S
H725 C718 0.930 . S
C726 C727 1.351 . S
C726 N729 1.368 . S
C726 H731 0.931 . S
C727 C726 1.351 . S
C727 N728 1.373 . S
C727 H755 0.930 . S
N728 C727 1.373 . S
N728 C730 1.340 . S
N729 C726 1.368 . S
N729 C730 1.321 . S
N729 Co732 2.135 . S
C730 N728 1.340 . S
C730 N729 1.321 . S
C730 H754 0.930 . S
H731 C726 0.931 . S
Co732 N729 2.135 . S
Co732 N735 2.121 . S
Co732 O740 2.055 . S
Co732 O743 2.039 . S
Co732 N746 2.140 . S
C733 O734 1.227 . S
C733 O743 1.265 . S
O734 C733 1.227 . S
N735 Co732 2.121 . S
N735 C737 1.375 . S
N735 C738 1.313 . S
C736 C737 1.338 . S
C736 N739 1.377 . S
C736 H756 0.930 . S
C737 N735 1.375 . S
C737 C736 1.338 . S
C737 H741 0.931 . S
C738 N735 1.313 . S
C738 N739 1.344 . S
C738 H742 0.930 . S
N739 C736 1.377 . S
N739 C738 1.344 . S
O740 Co732 2.055 . S
O740 C744 1.253 . S
H741 C737 0.931 . S
H742 C738 0.930 . S
O743 Co732 2.039 . S
O743 C733 1.265 . S
C744 O740 1.253 . S
C744 O745 1.227 . S
O745 C744 1.227 . S
N746 Co732 2.140 . S
N746 C749 1.346 . S
N746 C750 1.345 . S
C747 C748 1.387 . S
C747 C751 1.391 . S
C748 C747 1.387 . S
C748 C749 1.369 . S
C748 H757 0.929 . S
C749 N746 1.346 . S
C749 C748 1.369 . S
C749 H752 0.928 . S
C750 N746 1.345 . S
C750 C751 1.371 . S
C750 H753 0.931 . S
C751 C747 1.391 . S
C751 C750 1.371 . S
C751 H758 0.930 . S
H752 C749 0.928 . S
H753 C750 0.931 . S
H754 C730 0.930 . S
H755 C727 0.930 . S
H756 C736 0.930 . S
H757 C748 0.929 . S
H758 C751 0.930 . S
C759 C760 1.351 . S
C759 N762 1.368 . S
C759 H764 0.931 . S
C760 C759 1.351 . S
C760 N761 1.373 . S
C760 H788 0.930 . S
N761 C760 1.373 . S
N761 C763 1.340 . S
N762 C759 1.368 . S
N762 C763 1.321 . S
N762 Co765 2.135 . S
C763 N761 1.340 . S
C763 N762 1.321 . S
C763 H787 0.930 . S
H764 C759 0.931 . S
Co765 N762 2.135 . S
Co765 N768 2.121 . S
Co765 O773 2.055 . S
Co765 O776 2.039 . S
Co765 N779 2.140 . S
C766 O767 1.227 . S
C766 O776 1.265 . S
O767 C766 1.227 . S
N768 Co765 2.121 . S
N768 C770 1.375 . S
N768 C771 1.313 . S
C769 C770 1.338 . S
C769 N772 1.377 . S
C769 H789 0.930 . S
C770 N768 1.375 . S
C770 C769 1.338 . S
C770 H774 0.931 . S
C771 N768 1.313 . S
C771 N772 1.344 . S
C771 H775 0.930 . S
N772 C769 1.377 . S
N772 C771 1.344 . S
O773 Co765 2.055 . S
O773 C777 1.253 . S
H774 C770 0.931 . S
H775 C771 0.930 . S
O776 Co765 2.039 . S
O776 C766 1.265 . S
C777 O773 1.253 . S
C777 O778 1.227 . S
O778 C777 1.227 . S
N779 Co765 2.140 . S
N779 C782 1.346 . S
N779 C783 1.345 . S
C780 C781 1.387 . S
C780 C784 1.391 . S
C781 C780 1.387 . S
C781 C782 1.369 . S
C781 H790 0.929 . S
C782 N779 1.346 . S
C782 C781 1.369 . S
C782 H785 0.928 . S
C783 N779 1.345 . S
C783 C784 1.371 . S
C783 H786 0.931 . S
C784 C780 1.391 . S
C784 C783 1.371 . S
C784 H791 0.930 . S
H785 C782 0.928 . S
H786 C783 0.931 . S
H787 C763 0.930 . S
H788 C760 0.930 . S
H789 C769 0.930 . S
H790 C781 0.929 . S
H791 C784 0.930 . S
C792 C793 1.351 . S
C792 N795 1.368 . S
C792 H797 0.931 . S
C793 C792 1.351 . S
C793 N794 1.373 . S
C793 H821 0.930 . S
N794 C793 1.373 . S
N794 C796 1.340 . S
N795 C792 1.368 . S
N795 C796 1.321 . S
N795 Co798 2.135 . S
C796 N794 1.340 . S
C796 N795 1.321 . S
C796 H820 0.930 . S
H797 C792 0.931 . S
Co798 N795 2.135 . S
Co798 N801 2.121 . S
Co798 O806 2.055 . S
Co798 O809 2.039 . S
Co798 N812 2.140 . S
C799 O800 1.227 . S
C799 O809 1.265 . S
O800 C799 1.227 . S
N801 Co798 2.121 . S
N801 C803 1.375 . S
N801 C804 1.313 . S
C802 C803 1.338 . S
C802 N805 1.377 . S
C802 H822 0.930 . S
C803 N801 1.375 . S
C803 C802 1.338 . S
C803 H807 0.931 . S
C804 N801 1.313 . S
C804 N805 1.344 . S
C804 H808 0.930 . S
N805 C802 1.377 . S
N805 C804 1.344 . S
O806 Co798 2.055 . S
O806 C810 1.253 . S
H807 C803 0.931 . S
H808 C804 0.930 . S
O809 Co798 2.039 . S
O809 C799 1.265 . S
C810 O806 1.253 . S
C810 O811 1.227 . S
O811 C810 1.227 . S
N812 Co798 2.140 . S
N812 C815 1.346 . S
N812 C816 1.345 . S
C813 C814 1.387 . S
C813 C817 1.391 . S
C814 C813 1.387 . S
C814 C815 1.369 . S
C814 H823 0.929 . S
C815 N812 1.346 . S
C815 C814 1.369 . S
C815 H818 0.928 . S
C816 N812 1.345 . S
C816 C817 1.371 . S
C816 H819 0.931 . S
C817 C813 1.391 . S
C817 C816 1.371 . S
C817 H824 0.930 . S
H818 C815 0.928 . S
H819 C816 0.931 . S
H820 C796 0.930 . S
H821 C793 0.930 . S
H822 C802 0.930 . S
H823 C814 0.929 . S
H824 C817 0.930 . S
C825 C826 1.351 . S
C825 N828 1.368 . S
C825 H830 0.931 . S
C826 C825 1.351 . S
C826 N827 1.373 . S
C826 H854 0.930 . S
N827 C826 1.373 . S
N827 C829 1.340 . S
N828 C825 1.368 . S
N828 C829 1.321 . S
N828 Co831 2.135 . S
C829 N827 1.340 . S
C829 N828 1.321 . S
C829 H853 0.930 . S
H830 C825 0.931 . S
Co831 N828 2.135 . S
Co831 N834 2.121 1_545 S
Co831 O839 2.055 1_545 S
Co831 O842 2.039 . S
Co831 N845 2.140 . S
C832 O833 1.227 . S
C832 O842 1.265 . S
O833 C832 1.227 . S
N834 Co831 2.121 1_565 S
N834 C836 1.375 . S
N834 C837 1.313 . S
C835 C836 1.338 . S
C835 N838 1.377 . S
C835 H855 0.930 . S
C836 N834 1.375 . S
C836 C835 1.338 . S
C836 H840 0.931 1_565 S
C837 N834 1.313 . S
C837 N838 1.344 . S
C837 H841 0.930 . S
N838 C835 1.377 . S
N838 C837 1.344 . S
O839 Co831 2.055 1_565 S
O839 C843 1.253 . S
H840 C836 0.931 1_545 S
H841 C837 0.930 . S
O842 Co831 2.039 . S
O842 C832 1.265 . S
C843 O839 1.253 . S
C843 O844 1.227 . S
O844 C843 1.227 . S
N845 Co831 2.140 . S
N845 C848 1.346 . S
N845 C849 1.345 1_545 S
C846 C847 1.387 . S
C846 C850 1.391 1_545 S
C847 C846 1.387 . S
C847 C848 1.369 . S
C847 H856 0.929 . S
C848 N845 1.346 . S
C848 C847 1.369 . S
C848 H851 0.928 . S
C849 N845 1.345 1_565 S
C849 C850 1.371 . S
C849 H852 0.931 . S
C850 C846 1.391 1_565 S
C850 C849 1.371 . S
C850 H857 0.930 . S
H851 C848 0.928 . S
H852 C849 0.931 . S
H853 C829 0.930 . S
H854 C826 0.930 . S
H855 C835 0.930 . S
H856 C847 0.929 . S
H857 C850 0.930 . S
C858 C859 1.351 . S
C858 N861 1.368 . S
C858 H863 0.931 . S
C859 C858 1.351 . S
C859 N860 1.373 . S
C859 H887 0.930 . S
N860 C859 1.373 . S
N860 C862 1.340 . S
N861 C858 1.368 . S
N861 C862 1.321 . S
N861 Co864 2.135 . S
C862 N860 1.340 . S
C862 N861 1.321 . S
C862 H886 0.930 . S
H863 C858 0.931 . S
Co864 N861 2.135 . S
Co864 N867 2.121 . S
Co864 O872 2.055 . S
Co864 O875 2.039 . S
Co864 N878 2.140 . S
C865 O866 1.227 . S
C865 O875 1.265 . S
O866 C865 1.227 . S
N867 Co864 2.121 . S
N867 C869 1.375 . S
N867 C870 1.313 . S
C868 C869 1.338 . S
C868 N871 1.377 . S
C868 H888 0.930 . S
C869 N867 1.375 . S
C869 C868 1.338 . S
C869 H873 0.931 . S
C870 N867 1.313 . S
C870 N871 1.344 . S
C870 H874 0.930 . S
N871 C868 1.377 . S
N871 C870 1.344 . S
O872 Co864 2.055 . S
O872 C876 1.253 . S
H873 C869 0.931 . S
H874 C870 0.930 . S
O875 Co864 2.039 . S
O875 C865 1.265 . S
C876 O872 1.253 . S
C876 O877 1.227 . S
O877 C876 1.227 . S
N878 Co864 2.140 . S
N878 C881 1.346 . S
N878 C882 1.345 . S
C879 C880 1.387 . S
C879 C883 1.391 . S
C880 C879 1.387 . S
C880 C881 1.369 . S
C880 H889 0.929 . S
C881 N878 1.346 . S
C881 C880 1.369 . S
C881 H884 0.928 . S
C882 N878 1.345 . S
C882 C883 1.371 . S
C882 H885 0.931 . S
C883 C879 1.391 . S
C883 C882 1.371 . S
C883 H890 0.930 . S
H884 C881 0.928 . S
H885 C882 0.931 . S
H886 C862 0.930 . S
H887 C859 0.930 . S
H888 C868 0.930 . S
H889 C880 0.929 . S
H890 C883 0.930 . S
C891 C892 1.351 . S
C891 N894 1.368 . S
C891 H896 0.931 1_565 S
C892 C891 1.351 . S
C892 N893 1.373 . S
C892 H920 0.930 . S
N893 C892 1.373 . S
N893 C895 1.340 . S
N894 C891 1.368 . S
N894 C895 1.321 . S
N894 Co897 2.135 1_565 S
C895 N893 1.340 . S
C895 N894 1.321 . S
C895 H919 0.930 . S
H896 C891 0.931 1_545 S
Co897 N894 2.135 1_545 S
Co897 N900 2.121 . S
Co897 O905 2.055 . S
Co897 O908 2.039 1_545 S
Co897 N911 2.140 . S
C898 O899 1.227 . S
C898 O908 1.265 . S
O899 C898 1.227 . S
N900 Co897 2.121 . S
N900 C902 1.375 . S
N900 C903 1.313 . S
C901 C902 1.338 . S
C901 N904 1.377 . S
C901 H921 0.930 . S
C902 N900 1.375 . S
C902 C901 1.338 . S
C902 H906 0.931 . S
C903 N900 1.313 . S
C903 N904 1.344 . S
C903 H907 0.930 . S
N904 C901 1.377 . S
N904 C903 1.344 . S
O905 Co897 2.055 . S
O905 C909 1.253 . S
H906 C902 0.931 . S
H907 C903 0.930 . S
O908 Co897 2.039 1_565 S
O908 C898 1.265 . S
C909 O905 1.253 . S
C909 O910 1.227 . S
O910 C909 1.227 . S
N911 Co897 2.140 . S
N911 C914 1.346 1_545 S
N911 C915 1.345 . S
C912 C913 1.387 1_545 S
C912 C916 1.391 . S
C913 C912 1.387 1_565 S
C913 C914 1.369 . S
C913 H922 0.929 . S
C914 N911 1.346 1_565 S
C914 C913 1.369 . S
C914 H917 0.928 . S
C915 N911 1.345 . S
C915 C916 1.371 . S
C915 H918 0.931 . S
C916 C912 1.391 . S
C916 C915 1.371 . S
C916 H923 0.930 . S
H917 C914 0.928 . S
H918 C915 0.931 . S
H919 C895 0.930 . S
H920 C892 0.930 . S
H921 C901 0.930 . S
H922 C913 0.929 . S
H923 C916 0.930 . S
C924 C925 1.351 . S
C924 N927 1.368 . S
C924 H929 0.931 . S
C925 C924 1.351 . S
C925 N926 1.373 . S
C925 H953 0.930 . S
N926 C925 1.373 . S
N926 C928 1.340 . S
N927 C924 1.368 . S
N927 C928 1.321 . S
N927 Co930 2.135 . S
C928 N926 1.340 . S
C928 N927 1.321 . S
C928 H952 0.930 . S
H929 C924 0.931 . S
Co930 N927 2.135 . S
Co930 N933 2.121 . S
Co930 O938 2.055 . S
Co930 O941 2.039 . S
Co930 N944 2.140 . S
C931 O932 1.227 . S
C931 O941 1.265 . S
O932 C931 1.227 . S
N933 Co930 2.121 . S
N933 C935 1.375 . S
N933 C936 1.313 . S
C934 C935 1.338 . S
C934 N937 1.377 . S
C934 H954 0.930 . S
C935 N933 1.375 . S
C935 C934 1.338 . S
C935 H939 0.931 . S
C936 N933 1.313 . S
C936 N937 1.344 . S
C936 H940 0.930 . S
N937 C934 1.377 . S
N937 C936 1.344 . S
O938 Co930 2.055 . S
O938 C942 1.253 . S
H939 C935 0.931 . S
H940 C936 0.930 . S
O941 Co930 2.039 . S
O941 C931 1.265 . S
C942 O938 1.253 . S
C942 O943 1.227 . S
O943 C942 1.227 . S
N944 Co930 2.140 . S
N944 C947 1.346 . S
N944 C948 1.345 . S
C945 C946 1.387 . S
C945 C949 1.391 . S
C946 C945 1.387 . S
C946 C947 1.369 . S
C946 H955 0.929 . S
C947 N944 1.346 . S
C947 C946 1.369 . S
C947 H950 0.928 . S
C948 N944 1.345 . S
C948 C949 1.371 . S
C948 H951 0.931 . S
C949 C945 1.391 . S
C949 C948 1.371 . S
C949 H956 0.930 . S
H950 C947 0.928 . S
H951 C948 0.931 . S
H952 C928 0.930 . S
H953 C925 0.930 . S
H954 C934 0.930 . S
H955 C946 0.929 . S
H956 C949 0.930 . S
C957 C958 1.351 . S
C957 N960 1.368 . S
C957 H962 0.931 1_565 S
C958 C957 1.351 . S
C958 N959 1.373 . S
C958 H986 0.930 . S
N959 C958 1.373 . S
N959 C961 1.340 . S
N960 C957 1.368 . S
N960 C961 1.321 . S
N960 Co963 2.135 1_565 S
C961 N959 1.340 . S
C961 N960 1.321 . S
C961 H985 0.930 . S
H962 C957 0.931 1_545 S
Co963 N960 2.135 1_545 S
Co963 N966 2.121 . S
Co963 O971 2.055 . S
Co963 O974 2.039 1_545 S
Co963 N977 2.140 . S
C964 O965 1.227 . S
C964 O974 1.265 . S
O965 C964 1.227 . S
N966 Co963 2.121 . S
N966 C968 1.375 . S
N966 C969 1.313 . S
C967 C968 1.338 . S
C967 N970 1.377 . S
C967 H987 0.930 . S
C968 N966 1.375 . S
C968 C967 1.338 . S
C968 H972 0.931 . S
C969 N966 1.313 . S
C969 N970 1.344 . S
C969 H973 0.930 . S
N970 C967 1.377 . S
N970 C969 1.344 . S
O971 Co963 2.055 . S
O971 C975 1.253 . S
H972 C968 0.931 . S
H973 C969 0.930 . S
O974 Co963 2.039 1_565 S
O974 C964 1.265 . S
C975 O971 1.253 . S
C975 O976 1.227 . S
O976 C975 1.227 . S
N977 Co963 2.140 . S
N977 C980 1.346 1_545 S
N977 C981 1.345 . S
C978 C979 1.365 1_545 S
C978 C982 1.414 . S
C979 C978 1.365 1_565 S
C979 C980 1.369 . S
C979 H988 0.929 . S
C980 N977 1.346 1_565 S
C980 C979 1.369 . S
C980 H983 0.928 . S
C981 N977 1.345 . S
C981 C982 1.371 . S
C981 H984 0.931 . S
C982 C978 1.414 . S
C982 C981 1.371 . S
C982 H989 0.930 . S
H983 C980 0.928 . S
H984 C981 0.931 . S
H985 C961 0.930 . S
H986 C958 0.930 . S
H987 C967 0.930 . S
H988 C979 0.929 . S
H989 C982 0.930 . S
C990 C991 1.351 . S
C990 N993 1.368 . S
C990 H995 0.931 . S
C991 C990 1.351 . S
C991 N992 1.373 . S
C991 H1019 0.930 . S
N992 C991 1.373 . S
N992 C994 1.340 . S
N993 C990 1.368 . S
N993 C994 1.321 . S
N993 Co996 2.135 . S
C994 N992 1.340 . S
C994 N993 1.321 . S
C994 H1018 0.930 . S
H995 C990 0.931 . S
Co996 N993 2.135 . S
Co996 N999 2.121 . S
Co996 O1004 2.055 . S
Co996 O1007 2.039 . S
Co996 N1010 2.140 . S
C997 O998 1.227 . S
C997 O1007 1.265 . S
O998 C997 1.227 . S
N999 Co996 2.121 . S
N999 C1001 1.375 . S
N999 C1002 1.313 . S
C1000 C1001 1.338 . S
C1000 N1003 1.377 . S
C1000 H1020 0.930 . S
C1001 N999 1.375 . S
C1001 C1000 1.338 . S
C1001 H1005 0.931 . S
C1002 N999 1.313 . S
C1002 N1003 1.344 . S
C1002 H1006 0.930 . S
N1003 C1000 1.377 . S
N1003 C1002 1.344 . S
O1004 Co996 2.055 . S
O1004 C1008 1.253 . S
H1005 C1001 0.931 . S
H1006 C1002 0.930 . S
O1007 Co996 2.039 . S
O1007 C997 1.265 . S
C1008 O1004 1.253 . S
C1008 O1009 1.227 . S
O1009 C1008 1.227 . S
N1010 Co996 2.140 . S
N1010 C1013 1.346 . S
N1010 C1014 1.345 . S
C1011 C1012 1.387 . S
C1011 C1015 1.391 . S
C1012 C1011 1.387 . S
C1012 C1013 1.369 . S
C1012 H1021 0.929 . S
C1013 N1010 1.346 . S
C1013 C1012 1.369 . S
C1013 H1016 0.928 . S
C1014 N1010 1.345 . S
C1014 C1015 1.371 . S
C1014 H1017 0.931 . S
C1015 C1011 1.391 . S
C1015 C1014 1.371 . S
C1015 H1022 0.930 . S
H1016 C1013 0.928 . S
H1017 C1014 0.931 . S
H1018 C994 0.930 . S
H1019 C991 0.930 . S
H1020 C1000 0.930 . S
H1021 C1012 0.929 . S
H1022 C1015 0.930 . S
C1023 C1024 1.351 . S
C1023 N1026 1.368 . S
C1023 H1028 0.931 . S
C1024 C1023 1.351 . S
C1024 N1025 1.373 . S
C1024 H1052 0.930 . S
N1025 C1024 1.373 . S
N1025 C1027 1.340 . S
N1026 C1023 1.368 . S
N1026 C1027 1.321 . S
N1026 Co1029 2.141 . S
C1027 N1025 1.340 . S
C1027 N1026 1.321 . S
C1027 H1051 0.930 . S
H1028 C1023 0.931 . S
Co1029 N1026 2.141 . S
Co1029 N1032 2.115 1_545 S
Co1029 O1037 2.049 1_545 S
Co1029 O1040 2.045 . S
Co1029 N1043 2.141 . S
C1030 O1031 1.227 . S
C1030 O1040 1.265 . S
O1031 C1030 1.227 . S
N1032 Co1029 2.115 1_565 S
N1032 C1034 1.375 . S
N1032 C1035 1.313 . S
C1033 C1034 1.338 . S
C1033 N1036 1.377 . S
C1033 H1053 0.930 . S
C1034 N1032 1.375 . S
C1034 C1033 1.338 . S
C1034 H1038 0.931 . S
C1035 N1032 1.313 . S
C1035 N1036 1.344 . S
C1035 H1039 0.930 . S
N1036 C1033 1.377 . S
N1036 C1035 1.344 . S
O1037 Co1029 2.049 1_565 S
O1037 C1041 1.253 . S
H1038 C1034 0.931 . S
H1039 C1035 0.930 . S
O1040 Co1029 2.045 . S
O1040 C1030 1.265 . S
C1041 O1037 1.253 . S
C1041 O1042 1.227 . S
O1042 C1041 1.227 . S
N1043 Co1029 2.141 . S
N1043 C1046 1.346 . S
N1043 C1047 1.345 1_545 S
C1044 C1045 1.387 . S
C1044 C1048 1.391 1_545 S
C1045 C1044 1.387 . S
C1045 C1046 1.369 . S
C1045 H1054 0.929 . S
C1046 N1043 1.346 . S
C1046 C1045 1.369 . S
C1046 H1049 0.928 . S
C1047 N1043 1.345 1_565 S
C1047 C1048 1.371 . S
C1047 H1050 0.931 . S
C1048 C1044 1.391 1_565 S
C1048 C1047 1.371 . S
C1048 H1055 0.930 . S
H1049 C1046 0.928 . S
H1050 C1047 0.931 . S
H1051 C1027 0.930 . S
H1052 C1024 0.930 . S
H1053 C1033 0.930 . S
H1054 C1045 0.929 . S
H1055 C1048 0.930 . S
C1056 C1057 1.351 . S
C1056 N1059 1.368 . S
C1056 H1061 0.931 . S
C1057 C1056 1.351 . S
C1057 N1058 1.373 . S
C1057 H1085 0.930 . S
N1058 C1057 1.373 . S
N1058 C1060 1.340 . S
N1059 C1056 1.368 . S
N1059 C1060 1.321 . S
N1059 Co1062 2.135 . S
C1060 N1058 1.340 . S
C1060 N1059 1.321 . S
C1060 H1084 0.930 . S
H1061 C1056 0.931 . S
Co1062 N1059 2.135 . S
Co1062 N1065 2.121 . S
Co1062 O1070 2.055 . S
Co1062 O1073 2.039 . S
Co1062 N1076 2.140 . S
C1063 O1064 1.227 . S
C1063 O1073 1.265 . S
O1064 C1063 1.227 . S
N1065 Co1062 2.121 . S
N1065 C1067 1.375 . S
N1065 C1068 1.313 . S
C1066 C1067 1.338 . S
C1066 N1069 1.377 . S
C1066 H1086 0.930 . S
C1067 N1065 1.375 . S
C1067 C1066 1.338 . S
C1067 H1071 0.931 . S
C1068 N1065 1.313 . S
C1068 N1069 1.344 . S
C1068 H1072 0.930 . S
N1069 C1066 1.377 . S
N1069 C1068 1.344 . S
O1070 Co1062 2.055 . S
O1070 C1074 1.253 . S
H1071 C1067 0.931 . S
H1072 C1068 0.930 . S
O1073 Co1062 2.039 . S
O1073 C1063 1.265 . S
C1074 O1070 1.253 . S
C1074 O1075 1.227 . S
O1075 C1074 1.227 . S
N1076 Co1062 2.140 . S
N1076 C1079 1.346 . S
N1076 C1080 1.345 . S
C1077 C1078 1.387 . S
C1077 C1081 1.391 . S
C1078 C1077 1.387 . S
C1078 C1079 1.369 . S
C1078 H1087 0.929 . S
C1079 N1076 1.346 . S
C1079 C1078 1.369 . S
C1079 H1082 0.928 . S
C1080 N1076 1.345 . S
C1080 C1081 1.371 . S
C1080 H1083 0.931 . S
C1081 C1077 1.391 . S
C1081 C1080 1.371 . S
C1081 H1088 0.930 . S
H1082 C1079 0.928 . S
H1083 C1080 0.931 . S
H1084 C1060 0.930 . S
H1085 C1057 0.930 . S
H1086 C1066 0.930 . S
H1087 C1078 0.929 . S
H1088 C1081 0.930 . S
C1089 C1090 1.351 . S
C1089 N1092 1.368 . S
C1089 H1094 0.931 . S
C1090 C1089 1.351 . S
C1090 N1091 1.373 . S
C1090 H1118 0.930 . S
N1091 C1090 1.373 . S
N1091 C1093 1.340 . S
N1092 C1089 1.368 . S
N1092 C1093 1.321 . S
N1092 Co1095 2.135 . S
C1093 N1091 1.340 . S
C1093 N1092 1.321 . S
C1093 H1117 0.930 . S
H1094 C1089 0.931 . S
Co1095 N1092 2.135 . S
Co1095 N1098 2.121 . S
Co1095 O1103 2.055 . S
Co1095 O1106 2.039 . S
Co1095 N1109 2.140 . S
C1096 O1097 1.227 . S
C1096 O1106 1.265 . S
O1097 C1096 1.227 . S
N1098 Co1095 2.121 . S
N1098 C1100 1.375 . S
N1098 C1101 1.313 . S
C1099 C1100 1.338 . S
C1099 N1102 1.377 . S
C1099 H1119 0.930 . S
C1100 N1098 1.375 . S
C1100 C1099 1.338 . S
C1100 H1104 0.931 . S
C1101 N1098 1.313 . S
C1101 N1102 1.344 . S
C1101 H1105 0.930 . S
N1102 C1099 1.377 . S
N1102 C1101 1.344 . S
O1103 Co1095 2.055 . S
O1103 C1107 1.253 . S
H1104 C1100 0.931 . S
H1105 C1101 0.930 . S
O1106 Co1095 2.039 . S
O1106 C1096 1.265 . S
C1107 O1103 1.253 . S
C1107 O1108 1.227 . S
O1108 C1107 1.227 . S
N1109 Co1095 2.140 . S
N1109 C1112 1.346 . S
N1109 C1113 1.345 . S
C1110 C1111 1.387 . S
C1110 C1114 1.391 . S
C1111 C1110 1.387 . S
C1111 C1112 1.369 . S
C1111 H1120 0.929 . S
C1112 N1109 1.346 . S
C1112 C1111 1.369 . S
C1112 H1115 0.928 . S
C1113 N1109 1.345 . S
C1113 C1114 1.371 . S
C1113 H1116 0.931 . S
C1114 C1110 1.391 . S
C1114 C1113 1.371 . S
C1114 H1121 0.930 . S
H1115 C1112 0.928 . S
H1116 C1113 0.931 . S
H1117 C1093 0.930 . S
H1118 C1090 0.930 . S
H1119 C1099 0.930 . S
H1120 C1111 0.929 . S
H1121 C1114 0.930 . S
C1122 C1123 1.351 . S
C1122 N1125 1.368 . S
C1122 H1127 0.931 . S
C1123 C1122 1.351 . S
C1123 N1124 1.373 . S
C1123 H1151 0.930 . S
N1124 C1123 1.373 . S
N1124 C1126 1.340 . S
N1125 C1122 1.368 . S
N1125 C1126 1.321 . S
N1125 Co1128 2.135 . S
C1126 N1124 1.340 . S
C1126 N1125 1.321 . S
C1126 H1150 0.930 . S
H1127 C1122 0.931 . S
Co1128 N1125 2.135 . S
Co1128 N1131 2.121 . S
Co1128 O1136 2.055 . S
Co1128 O1139 2.039 . S
Co1128 N1142 2.140 . S
C1129 O1130 1.227 . S
C1129 O1139 1.265 . S
O1130 C1129 1.227 . S
N1131 Co1128 2.121 . S
N1131 C1133 1.375 . S
N1131 C1134 1.313 . S
C1132 C1133 1.338 . S
C1132 N1135 1.377 . S
C1132 H1152 0.930 . S
C1133 N1131 1.375 . S
C1133 C1132 1.338 . S
C1133 H1137 0.931 . S
C1134 N1131 1.313 . S
C1134 N1135 1.344 . S
C1134 H1138 0.930 . S
N1135 C1132 1.377 . S
N1135 C1134 1.344 . S
O1136 Co1128 2.055 . S
O1136 C1140 1.253 . S
H1137 C1133 0.931 . S
H1138 C1134 0.930 . S
O1139 Co1128 2.039 . S
O1139 C1129 1.265 . S
C1140 O1136 1.253 . S
C1140 O1141 1.227 . S
O1141 C1140 1.227 . S
N1142 Co1128 2.140 . S
N1142 C1145 1.346 . S
N1142 C1146 1.345 . S
C1143 C1144 1.387 . S
C1143 C1147 1.391 . S
C1144 C1143 1.387 . S
C1144 C1145 1.369 . S
C1144 H1153 0.929 . S
C1145 N1142 1.346 . S
C1145 C1144 1.369 . S
C1145 H1148 0.928 . S
C1146 N1142 1.345 . S
C1146 C1147 1.371 . S
C1146 H1149 0.931 . S
C1147 C1143 1.391 . S
C1147 C1146 1.371 . S
C1147 H1154 0.930 . S
H1148 C1145 0.928 . S
H1149 C1146 0.931 . S
H1150 C1126 0.930 . S
H1151 C1123 0.930 . S
H1152 C1132 0.930 . S
H1153 C1144 0.929 . S
H1154 C1147 0.930 . S
C1155 C1156 1.351 . S
C1155 N1158 1.368 . S
C1155 H1160 0.931 . S
C1156 C1155 1.351 . S
C1156 N1157 1.373 . S
C1156 H1184 0.930 . S
N1157 C1156 1.373 . S
N1157 C1159 1.340 . S
N1158 C1155 1.368 . S
N1158 C1159 1.321 . S
N1158 Co1161 2.135 . S
C1159 N1157 1.340 . S
C1159 N1158 1.321 . S
C1159 H1183 0.930 . S
H1160 C1155 0.931 . S
Co1161 N1158 2.135 . S
Co1161 N1164 2.121 . S
Co1161 O1169 2.055 . S
Co1161 O1172 2.039 . S
Co1161 N1175 2.140 . S
C1162 O1163 1.227 . S
C1162 O1172 1.265 . S
O1163 C1162 1.227 . S
N1164 Co1161 2.121 . S
N1164 C1166 1.375 . S
N1164 C1167 1.313 . S
C1165 C1166 1.338 . S
C1165 N1168 1.377 . S
C1165 H1185 0.930 . S
C1166 N1164 1.375 . S
C1166 C1165 1.338 . S
C1166 H1170 0.931 . S
C1167 N1164 1.313 . S
C1167 N1168 1.344 . S
C1167 H1171 0.930 . S
N1168 C1165 1.377 . S
N1168 C1167 1.344 . S
O1169 Co1161 2.055 . S
O1169 C1173 1.253 . S
H1170 C1166 0.931 . S
H1171 C1167 0.930 . S
O1172 Co1161 2.039 . S
O1172 C1162 1.265 . S
C1173 O1169 1.253 . S
C1173 O1174 1.227 . S
O1174 C1173 1.227 . S
N1175 Co1161 2.140 . S
N1175 C1178 1.346 . S
N1175 C1179 1.345 . S
C1176 C1177 1.387 . S
C1176 C1180 1.391 . S
C1177 C1176 1.387 . S
C1177 C1178 1.369 . S
C1177 H1186 0.929 . S
C1178 N1175 1.346 . S
C1178 C1177 1.369 . S
C1178 H1181 0.928 . S
C1179 N1175 1.345 . S
C1179 C1180 1.371 . S
C1179 H1182 0.931 . S
C1180 C1176 1.391 . S
C1180 C1179 1.371 . S
C1180 H1187 0.930 . S
H1181 C1178 0.928 . S
H1182 C1179 0.931 . S
H1183 C1159 0.930 . S
H1184 C1156 0.930 . S
H1185 C1165 0.930 . S
H1186 C1177 0.929 . S
H1187 C1180 0.930 . S
C1188 C1189 1.351 . S
C1188 N1191 1.368 . S
C1188 H1193 0.931 . S
C1189 C1188 1.351 . S
C1189 N1190 1.373 . S
C1189 H1217 0.930 . S
N1190 C1189 1.373 . S
N1190 C1192 1.340 . S
N1191 C1188 1.368 . S
N1191 C1192 1.321 . S
N1191 Co1194 2.135 . S
C1192 N1190 1.340 . S
C1192 N1191 1.321 . S
C1192 H1216 0.930 . S
H1193 C1188 0.931 . S
Co1194 N1191 2.135 . S
Co1194 N1197 2.121 . S
Co1194 O1202 2.055 . S
Co1194 O1205 2.039 . S
Co1194 N1208 2.140 . S
C1195 O1196 1.227 . S
C1195 O1205 1.265 . S
O1196 C1195 1.227 . S
N1197 Co1194 2.121 . S
N1197 C1199 1.375 . S
N1197 C1200 1.313 . S
C1198 C1199 1.338 . S
C1198 N1201 1.377 . S
C1198 H1218 0.930 . S
C1199 N1197 1.375 . S
C1199 C1198 1.338 . S
C1199 H1203 0.931 . S
C1200 N1197 1.313 . S
C1200 N1201 1.344 . S
C1200 H1204 0.930 . S
N1201 C1198 1.377 . S
N1201 C1200 1.344 . S
O1202 Co1194 2.055 . S
O1202 C1206 1.253 . S
H1203 C1199 0.931 . S
H1204 C1200 0.930 . S
O1205 Co1194 2.039 . S
O1205 C1195 1.265 . S
C1206 O1202 1.253 . S
C1206 O1207 1.227 . S
O1207 C1206 1.227 . S
N1208 Co1194 2.140 . S
N1208 C1211 1.346 . S
N1208 C1212 1.345 . S
C1209 C1210 1.387 . S
C1209 C1213 1.391 . S
C1210 C1209 1.387 . S
C1210 C1211 1.369 . S
C1210 H1219 0.929 . S
C1211 N1208 1.346 . S
C1211 C1210 1.369 . S
C1211 H1214 0.928 . S
C1212 N1208 1.345 . S
C1212 C1213 1.371 . S
C1212 H1215 0.931 . S
C1213 C1209 1.391 . S
C1213 C1212 1.371 . S
C1213 H1220 0.930 . S
H1214 C1211 0.928 . S
H1215 C1212 0.931 . S
H1216 C1192 0.930 . S
H1217 C1189 0.930 . S
H1218 C1198 0.930 . S
H1219 C1210 0.929 . S
H1220 C1213 0.930 . S
C1221 C1222 1.351 . S
C1221 N1224 1.368 . S
C1221 H1226 0.931 . S
C1222 C1221 1.351 . S
C1222 N1223 1.373 . S
C1222 H1250 0.930 . S
N1223 C1222 1.373 . S
N1223 C1225 1.340 . S
N1224 C1221 1.368 . S
N1224 C1225 1.321 . S
N1224 Co1227 2.135 . S
C1225 N1223 1.340 . S
C1225 N1224 1.321 . S
C1225 H1249 0.930 . S
H1226 C1221 0.931 . S
Co1227 N1224 2.135 . S
Co1227 N1230 2.121 . S
Co1227 O1235 2.055 . S
Co1227 O1238 2.039 . S
Co1227 N1241 2.140 . S
C1228 O1229 1.227 . S
C1228 O1238 1.265 . S
O1229 C1228 1.227 . S
N1230 Co1227 2.121 . S
N1230 C1232 1.375 . S
N1230 C1233 1.313 . S
C1231 C1232 1.338 . S
C1231 N1234 1.377 . S
C1231 H1251 0.930 . S
C1232 N1230 1.375 . S
C1232 C1231 1.338 . S
C1232 H1236 0.931 . S
C1233 N1230 1.313 . S
C1233 N1234 1.344 . S
C1233 H1237 0.930 . S
N1234 C1231 1.377 . S
N1234 C1233 1.344 . S
O1235 Co1227 2.055 . S
O1235 C1239 1.253 . S
H1236 C1232 0.931 . S
H1237 C1233 0.930 . S
O1238 Co1227 2.039 . S
O1238 C1228 1.265 . S
C1239 O1235 1.253 . S
C1239 O1240 1.227 . S
O1240 C1239 1.227 . S
N1241 Co1227 2.140 . S
N1241 C1244 1.346 . S
N1241 C1245 1.345 . S
C1242 C1243 1.387 . S
C1242 C1246 1.391 . S
C1243 C1242 1.387 . S
C1243 C1244 1.369 . S
C1243 H1252 0.929 . S
C1244 N1241 1.346 . S
C1244 C1243 1.369 . S
C1244 H1247 0.928 . S
C1245 N1241 1.345 . S
C1245 C1246 1.371 . S
C1245 H1248 0.931 . S
C1246 C1242 1.391 . S
C1246 C1245 1.371 . S
C1246 H1253 0.930 . S
H1247 C1244 0.928 . S
H1248 C1245 0.931 . S
H1249 C1225 0.930 . S
H1250 C1222 0.930 . S
H1251 C1231 0.930 . S
H1252 C1243 0.929 . S
H1253 C1246 0.930 . S
C1254 C1255 1.351 . S
C1254 N1257 1.368 . S
C1254 H1259 0.931 . S
C1255 C1254 1.351 . S
C1255 N1256 1.373 . S
C1255 H1283 0.930 . S
N1256 C1255 1.373 . S
N1256 C1258 1.340 . S
N1257 C1254 1.368 . S
N1257 C1258 1.321 . S
N1257 Co1260 2.135 . S
C1258 N1256 1.340 . S
C1258 N1257 1.321 . S
C1258 H1282 0.930 . S
H1259 C1254 0.931 . S
Co1260 N1257 2.135 . S
Co1260 N1263 2.121 . S
Co1260 O1268 2.055 . S
Co1260 O1271 2.039 . S
Co1260 N1274 2.140 . S
C1261 O1262 1.227 . S
C1261 O1271 1.265 . S
O1262 C1261 1.227 . S
N1263 Co1260 2.121 . S
N1263 C1265 1.375 . S
N1263 C1266 1.313 . S
C1264 C1265 1.338 . S
C1264 N1267 1.377 . S
C1264 H1284 0.930 . S
C1265 N1263 1.375 . S
C1265 C1264 1.338 . S
C1265 H1269 0.931 . S
C1266 N1263 1.313 . S
C1266 N1267 1.344 . S
C1266 H1270 0.930 . S
N1267 C1264 1.377 . S
N1267 C1266 1.344 . S
O1268 Co1260 2.055 . S
O1268 C1272 1.253 . S
H1269 C1265 0.931 . S
H1270 C1266 0.930 . S
O1271 Co1260 2.039 . S
O1271 C1261 1.265 . S
C1272 O1268 1.253 . S
C1272 O1273 1.227 . S
O1273 C1272 1.227 . S
N1274 Co1260 2.140 . S
N1274 C1277 1.346 . S
N1274 C1278 1.345 . S
C1275 C1276 1.387 . S
C1275 C1279 1.391 . S
C1276 C1275 1.387 . S
C1276 C1277 1.369 . S
C1276 H1285 0.929 . S
C1277 N1274 1.346 . S
C1277 C1276 1.369 . S
C1277 H1280 0.928 . S
C1278 N1274 1.345 . S
C1278 C1279 1.371 . S
C1278 H1281 0.931 . S
C1279 C1275 1.391 . S
C1279 C1278 1.371 . S
C1279 H1286 0.930 . S
H1280 C1277 0.928 . S
H1281 C1278 0.931 . S
H1282 C1258 0.930 . S
H1283 C1255 0.930 . S
H1284 C1264 0.930 . S
H1285 C1276 0.929 . S
H1286 C1279 0.930 . S
C1287 C1288 1.351 . S
C1287 N1290 1.368 . S
C1287 H1292 0.931 . S
C1288 C1287 1.351 . S
C1288 N1289 1.373 . S
C1288 H1316 0.930 . S
N1289 C1288 1.373 . S
N1289 C1291 1.340 . S
N1290 C1287 1.368 . S
N1290 C1291 1.321 . S
N1290 Co1293 2.135 . S
C1291 N1289 1.340 . S
C1291 N1290 1.321 . S
C1291 H1315 0.930 . S
H1292 C1287 0.931 . S
Co1293 N1290 2.135 . S
Co1293 N1296 2.121 . S
Co1293 O1301 2.055 . S
Co1293 O1304 2.039 . S
Co1293 N1307 2.140 . S
C1294 O1295 1.227 . S
C1294 O1304 1.265 . S
O1295 C1294 1.227 . S
N1296 Co1293 2.121 . S
N1296 C1298 1.375 . S
N1296 C1299 1.313 . S
C1297 C1298 1.338 . S
C1297 N1300 1.377 . S
C1297 H1317 0.930 . S
C1298 N1296 1.375 . S
C1298 C1297 1.338 . S
C1298 H1302 0.931 . S
C1299 N1296 1.313 . S
C1299 N1300 1.344 . S
C1299 H1303 0.930 . S
N1300 C1297 1.377 . S
N1300 C1299 1.344 . S
O1301 Co1293 2.055 . S
O1301 C1305 1.253 . S
H1302 C1298 0.931 . S
H1303 C1299 0.930 . S
O1304 Co1293 2.039 . S
O1304 C1294 1.265 . S
C1305 O1301 1.253 . S
C1305 O1306 1.227 . S
O1306 C1305 1.227 . S
N1307 Co1293 2.140 . S
N1307 C1310 1.346 . S
N1307 C1311 1.345 . S
C1308 C1309 1.387 . S
C1308 C1312 1.391 . S
C1309 C1308 1.387 . S
C1309 C1310 1.369 . S
C1309 H1318 0.929 . S
C1310 N1307 1.346 . S
C1310 C1309 1.369 . S
C1310 H1313 0.928 . S
C1311 N1307 1.345 . S
C1311 C1312 1.371 . S
C1311 H1314 0.931 . S
C1312 C1308 1.391 . S
C1312 C1311 1.371 . S
C1312 H1319 0.930 . S
H1313 C1310 0.928 . S
H1314 C1311 0.931 . S
H1315 C1291 0.930 . S
H1316 C1288 0.930 . S
H1317 C1297 0.930 . S
H1318 C1309 0.929 . S
H1319 C1312 0.930 . S
C1320 C1321 1.351 . S
C1320 N1323 1.368 . S
C1320 H1325 0.931 . S
C1321 C1320 1.351 . S
C1321 N1322 1.373 . S
C1321 H1349 0.930 . S
N1322 C1321 1.373 . S
N1322 C1324 1.340 . S
N1323 C1320 1.368 . S
N1323 C1324 1.321 . S
N1323 Co1326 2.135 . S
C1324 N1322 1.340 . S
C1324 N1323 1.321 . S
C1324 H1348 0.930 . S
H1325 C1320 0.931 . S
Co1326 N1323 2.135 . S
Co1326 N1329 2.121 . S
Co1326 O1334 2.055 . S
Co1326 O1337 2.039 . S
Co1326 N1340 2.140 . S
C1327 O1328 1.227 . S
C1327 O1337 1.265 . S
O1328 C1327 1.227 . S
N1329 Co1326 2.121 . S
N1329 C1331 1.375 . S
N1329 C1332 1.313 . S
C1330 C1331 1.338 . S
C1330 N1333 1.377 . S
C1330 H1350 0.930 . S
C1331 N1329 1.375 . S
C1331 C1330 1.338 . S
C1331 H1335 0.931 . S
C1332 N1329 1.313 . S
C1332 N1333 1.344 . S
C1332 H1336 0.930 . S
N1333 C1330 1.377 . S
N1333 C1332 1.344 . S
O1334 Co1326 2.055 . S
O1334 C1338 1.253 . S
H1335 C1331 0.931 . S
H1336 C1332 0.930 . S
O1337 Co1326 2.039 . S
O1337 C1327 1.265 . S
C1338 O1334 1.253 . S
C1338 O1339 1.227 . S
O1339 C1338 1.227 . S
N1340 Co1326 2.140 . S
N1340 C1343 1.346 . S
N1340 C1344 1.345 . S
C1341 C1342 1.387 . S
C1341 C1345 1.391 . S
C1342 C1341 1.387 . S
C1342 C1343 1.369 . S
C1342 H1351 0.929 . S
C1343 N1340 1.346 . S
C1343 C1342 1.369 . S
C1343 H1346 0.928 . S
C1344 N1340 1.345 . S
C1344 C1345 1.371 . S
C1344 H1347 0.931 . S
C1345 C1341 1.391 . S
C1345 C1344 1.371 . S
C1345 H1352 0.930 . S
H1346 C1343 0.928 . S
H1347 C1344 0.931 . S
H1348 C1324 0.930 . S
H1349 C1321 0.930 . S
H1350 C1330 0.930 . S
H1351 C1342 0.929 . S
H1352 C1345 0.930 . S
C1353 C1354 1.351 . S
C1353 N1356 1.368 . S
C1353 H1358 0.931 . S
C1354 C1353 1.351 . S
C1354 N1355 1.373 . S
C1354 H1382 0.930 . S
N1355 C1354 1.373 . S
N1355 C1357 1.340 . S
N1356 C1353 1.368 . S
N1356 C1357 1.321 . S
N1356 Co1359 2.135 . S
C1357 N1355 1.340 . S
C1357 N1356 1.321 . S
C1357 H1381 0.930 . S
H1358 C1353 0.931 . S
Co1359 N1356 2.135 . S
Co1359 N1362 2.121 . S
Co1359 O1367 2.055 . S
Co1359 O1370 2.039 . S
Co1359 N1373 2.140 . S
C1360 O1361 1.227 . S
C1360 O1370 1.265 . S
O1361 C1360 1.227 . S
N1362 Co1359 2.121 . S
N1362 C1364 1.375 . S
N1362 C1365 1.313 . S
C1363 C1364 1.338 . S
C1363 N1366 1.377 . S
C1363 H1383 0.930 . S
C1364 N1362 1.375 . S
C1364 C1363 1.338 . S
C1364 H1368 0.931 . S
C1365 N1362 1.313 . S
C1365 N1366 1.344 . S
C1365 H1369 0.930 . S
N1366 C1363 1.377 . S
N1366 C1365 1.344 . S
O1367 Co1359 2.055 . S
O1367 C1371 1.253 . S
H1368 C1364 0.931 . S
H1369 C1365 0.930 . S
O1370 Co1359 2.039 . S
O1370 C1360 1.265 . S
C1371 O1367 1.253 . S
C1371 O1372 1.227 . S
O1372 C1371 1.227 . S
N1373 Co1359 2.140 . S
N1373 C1376 1.346 . S
N1373 C1377 1.345 . S
C1374 C1375 1.387 . S
C1374 C1378 1.391 . S
C1375 C1374 1.387 . S
C1375 C1376 1.369 . S
C1375 H1384 0.929 . S
C1376 N1373 1.346 . S
C1376 C1375 1.369 . S
C1376 H1379 0.928 . S
C1377 N1373 1.345 . S
C1377 C1378 1.371 . S
C1377 H1380 0.931 . S
C1378 C1374 1.391 . S
C1378 C1377 1.371 . S
C1378 H1385 0.930 . S
H1379 C1376 0.928 . S
H1380 C1377 0.931 . S
H1381 C1357 0.930 . S
H1382 C1354 0.930 . S
H1383 C1363 0.930 . S
H1384 C1375 0.929 . S
H1385 C1378 0.930 . S
C1386 C1387 1.351 . S
C1386 N1389 1.368 . S
C1386 H1391 0.931 . S
C1387 C1386 1.351 . S
C1387 N1388 1.373 . S
C1387 H1415 0.930 . S
N1388 C1387 1.373 . S
N1388 C1390 1.340 . S
N1389 C1386 1.368 . S
N1389 C1390 1.321 . S
N1389 Co1392 2.135 . S
C1390 N1388 1.340 . S
C1390 N1389 1.321 . S
C1390 H1414 0.930 . S
H1391 C1386 0.931 . S
Co1392 N1389 2.135 . S
Co1392 N1395 2.121 . S
Co1392 O1400 2.055 . S
Co1392 O1403 2.039 . S
Co1392 N1406 2.140 . S
C1393 O1394 1.227 . S
C1393 O1403 1.265 . S
O1394 C1393 1.227 . S
N1395 Co1392 2.121 . S
N1395 C1397 1.375 . S
N1395 C1398 1.313 . S
C1396 C1397 1.338 . S
C1396 N1399 1.377 . S
C1396 H1416 0.930 . S
C1397 N1395 1.375 . S
C1397 C1396 1.338 . S
C1397 H1401 0.931 . S
C1398 N1395 1.313 . S
C1398 N1399 1.344 . S
C1398 H1402 0.930 . S
N1399 C1396 1.377 . S
N1399 C1398 1.344 . S
O1400 Co1392 2.055 . S
O1400 C1404 1.253 . S
H1401 C1397 0.931 . S
H1402 C1398 0.930 . S
O1403 Co1392 2.039 . S
O1403 C1393 1.265 . S
C1404 O1400 1.253 . S
C1404 O1405 1.227 . S
O1405 C1404 1.227 . S
N1406 Co1392 2.140 . S
N1406 C1409 1.346 . S
N1406 C1410 1.345 . S
C1407 C1408 1.387 . S
C1407 C1411 1.391 . S
C1408 C1407 1.387 . S
C1408 C1409 1.369 . S
C1408 H1417 0.929 . S
C1409 N1406 1.346 . S
C1409 C1408 1.369 . S
C1409 H1412 0.928 . S
C1410 N1406 1.345 . S
C1410 C1411 1.371 . S
C1410 H1413 0.931 . S
C1411 C1407 1.391 . S
C1411 C1410 1.371 . S
C1411 H1418 0.930 . S
H1412 C1409 0.928 . S
H1413 C1410 0.931 . S
H1414 C1390 0.930 . S
H1415 C1387 0.930 . S
H1416 C1396 0.930 . S
H1417 C1408 0.929 . S
H1418 C1411 0.930 . S
C1419 C1420 1.351 . S
C1419 N1422 1.368 . S
C1419 H1424 0.931 . S
C1420 C1419 1.351 . S
C1420 N1421 1.373 . S
C1420 H1448 0.930 . S
N1421 C1420 1.373 . S
N1421 C1423 1.340 . S
N1422 C1419 1.368 . S
N1422 C1423 1.321 . S
N1422 Co1425 2.135 . S
C1423 N1421 1.340 . S
C1423 N1422 1.321 . S
C1423 H1447 0.930 . S
H1424 C1419 0.931 . S
Co1425 N1422 2.135 . S
Co1425 N1428 2.121 . S
Co1425 O1433 2.055 . S
Co1425 O1436 2.039 . S
Co1425 N1439 2.140 . S
C1426 O1427 1.227 . S
C1426 O1436 1.265 . S
O1427 C1426 1.227 . S
N1428 Co1425 2.121 . S
N1428 C1430 1.375 . S
N1428 C1431 1.313 . S
C1429 C1430 1.338 . S
C1429 N1432 1.377 . S
C1429 H1449 0.930 . S
C1430 N1428 1.375 . S
C1430 C1429 1.338 . S
C1430 H1434 0.931 . S
C1431 N1428 1.313 . S
C1431 N1432 1.344 . S
C1431 H1435 0.930 . S
N1432 C1429 1.377 . S
N1432 C1431 1.344 . S
O1433 Co1425 2.055 . S
O1433 C1437 1.253 . S
H1434 C1430 0.931 . S
H1435 C1431 0.930 . S
O1436 Co1425 2.039 . S
O1436 C1426 1.265 . S
C1437 O1433 1.253 . S
C1437 O1438 1.227 . S
O1438 C1437 1.227 . S
N1439 Co1425 2.140 . S
N1439 C1442 1.346 . S
N1439 C1443 1.345 . S
C1440 C1441 1.387 . S
C1440 C1444 1.391 . S
C1441 C1440 1.387 . S
C1441 C1442 1.369 . S
C1441 H1450 0.929 . S
C1442 N1439 1.346 . S
C1442 C1441 1.369 . S
C1442 H1445 0.928 . S
C1443 N1439 1.345 . S
C1443 C1444 1.371 . S
C1443 H1446 0.931 . S
C1444 C1440 1.391 . S
C1444 C1443 1.371 . S
C1444 H1451 0.930 . S
H1445 C1442 0.928 . S
H1446 C1443 0.931 . S
H1447 C1423 0.930 . S
H1448 C1420 0.930 . S
H1449 C1429 0.930 . S
H1450 C1441 0.929 . S
H1451 C1444 0.930 . S
C1452 C1453 1.351 . S
C1452 N1455 1.368 . S
C1452 H1457 0.931 1_556 S
C1453 C1452 1.351 . S
C1453 N1454 1.373 . S
C1453 H1481 0.930 . S
N1454 C1453 1.373 . S
N1454 C1456 1.340 . S
N1455 C1452 1.368 . S
N1455 C1456 1.321 . S
N1455 Co1458 2.135 1_556 S
C1456 N1454 1.340 . S
C1456 N1455 1.321 . S
C1456 H1480 0.930 . S
H1457 C1452 0.931 1_554 S
Co1458 N1455 2.135 1_554 S
Co1458 N1461 2.121 . S
Co1458 O1466 2.055 . S
Co1458 O1469 2.039 1_554 S
Co1458 N1472 2.140 . S
C1459 O1460 1.227 . S
C1459 O1469 1.265 . S
O1460 C1459 1.227 . S
N1461 Co1458 2.121 . S
N1461 C1463 1.375 . S
N1461 C1464 1.313 . S
C1462 C1463 1.338 . S
C1462 N1465 1.377 . S
C1462 H1482 0.930 . S
C1463 N1461 1.375 . S
C1463 C1462 1.338 . S
C1463 H1467 0.931 . S
C1464 N1461 1.313 . S
C1464 N1465 1.344 . S
C1464 H1468 0.930 . S
N1465 C1462 1.377 . S
N1465 C1464 1.344 . S
O1466 Co1458 2.055 . S
O1466 C1470 1.253 . S
H1467 C1463 0.931 . S
H1468 C1464 0.930 . S
O1469 Co1458 2.039 1_556 S
O1469 C1459 1.265 . S
C1470 O1466 1.253 . S
C1470 O1471 1.227 . S
O1471 C1470 1.227 . S
N1472 Co1458 2.140 . S
N1472 C1475 1.346 1_554 S
N1472 C1476 1.345 . S
C1473 C1474 1.387 1_554 S
C1473 C1477 1.391 . S
C1474 C1473 1.387 1_556 S
C1474 C1475 1.369 . S
C1474 H1483 0.929 . S
C1475 N1472 1.346 1_556 S
C1475 C1474 1.369 . S
C1475 H1478 0.928 . S
C1476 N1472 1.345 . S
C1476 C1477 1.371 . S
C1476 H1479 0.931 . S
C1477 C1473 1.391 . S
C1477 C1476 1.371 . S
C1477 H1484 0.930 . S
H1478 C1475 0.928 . S
H1479 C1476 0.931 . S
H1480 C1456 0.930 . S
H1481 C1453 0.930 . S
H1482 C1462 0.930 . S
H1483 C1474 0.929 . S
H1484 C1477 0.930 . S
C1485 C1486 1.351 . S
C1485 N1488 1.368 . S
C1485 H1490 0.931 . S
C1486 C1485 1.351 . S
C1486 N1487 1.373 . S
C1486 H1514 0.930 . S
N1487 C1486 1.373 . S
N1487 C1489 1.340 . S
N1488 C1485 1.368 . S
N1488 C1489 1.321 . S
N1488 Co1491 2.135 . S
C1489 N1487 1.340 . S
C1489 N1488 1.321 . S
C1489 H1513 0.930 . S
H1490 C1485 0.931 . S
Co1491 N1488 2.135 . S
Co1491 N1494 2.121 1_554 S
Co1491 O1499 2.055 1_554 S
Co1491 O1502 2.039 . S
Co1491 N1505 2.140 . S
C1492 O1493 1.227 . S
C1492 O1502 1.265 . S
O1493 C1492 1.227 . S
N1494 Co1491 2.121 1_556 S
N1494 C1496 1.375 . S
N1494 C1497 1.313 . S
C1495 C1496 1.338 . S
C1495 N1498 1.377 . S
C1495 H1515 0.930 . S
C1496 N1494 1.375 . S
C1496 C1495 1.338 . S
C1496 H1500 0.931 1_556 S
C1497 N1494 1.313 . S
C1497 N1498 1.344 . S
C1497 H1501 0.930 . S
N1498 C1495 1.377 . S
N1498 C1497 1.344 . S
O1499 Co1491 2.055 1_556 S
O1499 C1503 1.253 . S
H1500 C1496 0.931 1_554 S
H1501 C1497 0.930 . S
O1502 Co1491 2.039 . S
O1502 C1492 1.265 . S
C1503 O1499 1.253 . S
C1503 O1504 1.227 . S
O1504 C1503 1.227 . S
N1505 Co1491 2.140 . S
N1505 C1508 1.346 . S
N1505 C1509 1.345 1_554 S
C1506 C1507 1.387 . S
C1506 C1510 1.391 1_554 S
C1507 C1506 1.387 . S
C1507 C1508 1.369 . S
C1507 H1516 0.929 . S
C1508 N1505 1.346 . S
C1508 C1507 1.369 . S
C1508 H1511 0.928 . S
C1509 N1505 1.345 1_556 S
C1509 C1510 1.371 . S
C1509 H1512 0.931 . S
C1510 C1506 1.391 1_556 S
C1510 C1509 1.371 . S
C1510 H1517 0.930 . S
H1511 C1508 0.928 . S
H1512 C1509 0.931 . S
H1513 C1489 0.930 . S
H1514 C1486 0.930 . S
H1515 C1495 0.930 . S
H1516 C1507 0.929 . S
H1517 C1510 0.930 . S
C1518 C1519 1.351 . S
C1518 N1521 1.368 . S
C1518 H1523 0.931 . S
C1519 C1518 1.351 . S
C1519 N1520 1.373 . S
C1519 H1547 0.930 . S
N1520 C1519 1.373 . S
N1520 C1522 1.340 . S
N1521 C1518 1.368 . S
N1521 C1522 1.321 . S
N1521 Co1524 2.135 . S
C1522 N1520 1.340 . S
C1522 N1521 1.321 . S
C1522 H1546 0.930 . S
H1523 C1518 0.931 . S
Co1524 N1521 2.135 . S
Co1524 N1527 2.121 1_554 S
Co1524 O1532 2.055 1_554 S
Co1524 O1535 2.039 . S
Co1524 N1538 2.140 . S
C1525 O1526 1.227 . S
C1525 O1535 1.265 . S
O1526 C1525 1.227 . S
N1527 Co1524 2.121 1_556 S
N1527 C1529 1.375 . S
N1527 C1530 1.313 . S
C1528 C1529 1.338 . S
C1528 N1531 1.377 . S
C1528 H1548 0.930 . S
C1529 N1527 1.375 . S
C1529 C1528 1.338 . S
C1529 H1533 0.931 1_556 S
C1530 N1527 1.313 . S
C1530 N1531 1.344 . S
C1530 H1534 0.930 . S
N1531 C1528 1.377 . S
N1531 C1530 1.344 . S
O1532 Co1524 2.055 1_556 S
O1532 C1536 1.253 . S
H1533 C1529 0.931 1_554 S
H1534 C1530 0.930 . S
O1535 Co1524 2.039 . S
O1535 C1525 1.265 . S
C1536 O1532 1.253 . S
C1536 O1537 1.227 . S
O1537 C1536 1.227 . S
N1538 Co1524 2.140 . S
N1538 C1541 1.346 . S
N1538 C1542 1.345 1_554 S
C1539 C1540 1.387 . S
C1539 C1543 1.391 1_554 S
C1540 C1539 1.387 . S
C1540 C1541 1.369 . S
C1540 H1549 0.929 . S
C1541 N1538 1.346 . S
C1541 C1540 1.369 . S
C1541 H1544 0.928 . S
C1542 N1538 1.345 1_556 S
C1542 C1543 1.371 . S
C1542 H1545 0.931 . S
C1543 C1539 1.391 1_556 S
C1543 C1542 1.371 . S
C1543 H1550 0.930 . S
H1544 C1541 0.928 . S
H1545 C1542 0.931 . S
H1546 C1522 0.930 . S
H1547 C1519 0.930 . S
H1548 C1528 0.930 . S
H1549 C1540 0.929 . S
H1550 C1543 0.930 . S
C1551 C1552 1.351 . S
C1551 N1554 1.368 . S
C1551 H1556 0.931 1_556 S
C1552 C1551 1.351 . S
C1552 N1553 1.373 . S
C1552 H1580 0.930 . S
N1553 C1552 1.373 . S
N1553 C1555 1.340 . S
N1554 C1551 1.368 . S
N1554 C1555 1.321 . S
N1554 Co1557 2.135 1_556 S
C1555 N1553 1.340 . S
C1555 N1554 1.321 . S
C1555 H1579 0.930 . S
H1556 C1551 0.931 1_554 S
Co1557 N1554 2.135 1_554 S
Co1557 N1560 2.121 . S
Co1557 O1565 2.055 . S
Co1557 O1568 2.039 1_554 S
Co1557 N1571 2.140 . S
C1558 O1559 1.227 . S
C1558 O1568 1.265 . S
O1559 C1558 1.227 . S
N1560 Co1557 2.121 . S
N1560 C1562 1.375 . S
N1560 C1563 1.313 . S
C1561 C1562 1.338 . S
C1561 N1564 1.377 . S
C1561 H1581 0.930 . S
C1562 N1560 1.375 . S
C1562 C1561 1.338 . S
C1562 H1566 0.931 . S
C1563 N1560 1.313 . S
C1563 N1564 1.344 . S
C1563 H1567 0.930 . S
N1564 C1561 1.377 . S
N1564 C1563 1.344 . S
O1565 Co1557 2.055 . S
O1565 C1569 1.253 . S
H1566 C1562 0.931 . S
H1567 C1563 0.930 . S
O1568 Co1557 2.039 1_556 S
O1568 C1558 1.265 . S
C1569 O1565 1.253 . S
C1569 O1570 1.227 . S
O1570 C1569 1.227 . S
N1571 Co1557 2.140 . S
N1571 C1574 1.346 1_554 S
N1571 C1575 1.345 . S
C1572 C1573 1.387 1_554 S
C1572 C1576 1.391 . S
C1573 C1572 1.387 1_556 S
C1573 C1574 1.369 . S
C1573 H1582 0.929 . S
C1574 N1571 1.346 1_556 S
C1574 C1573 1.369 . S
C1574 H1577 0.928 . S
C1575 N1571 1.345 . S
C1575 C1576 1.371 . S
C1575 H1578 0.931 . S
C1576 C1572 1.391 . S
C1576 C1575 1.371 . S
C1576 H1583 0.930 . S
H1577 C1574 0.928 . S
H1578 C1575 0.931 . S
H1579 C1555 0.930 . S
H1580 C1552 0.930 . S
H1581 C1561 0.930 . S
H1582 C1573 0.929 . S
H1583 C1576 0.930 . S
C549 C21 0.896 . S
C54 C978 0.899 . S
C615 C87 0.879 . S
C1044 C120 0.793 . S
C153 C417 0.902 . S
C846 C186 0.934 . S
C483 C219 0.871 1_455 S
C252 C912 0.880 . S
C285 C1572 0.787 . S
C318 C1539 1.005 . S
C351 C1506 0.995 . S
C1473 C384 0.802 . S
C1374 C450 0.897 . S
C516 C1440 0.795 . S
C1242 C582 0.935 . S
C648 C1308 0.880 . S
C681 C1176 0.777 . S
C1143 C714 0.997 . S
C1110 C747 1.003 . S
C780 C1077 0.793 . S
C813 C1341 0.884 . S
C879 C1407 0.894 . S
C945 C1209 0.882 . S
C1011 C1275 0.894 . S
C117 N13 2.300 . S
N35 C7 2.125 . S
C51 N68 2.162 . S
N101 C84 2.154 . S
N134 C172 2.102 . S
C216 N178 2.352 . S
N200 C238 2.174 . S
N244 C150 2.222 . S
N112 C282 2.281 . S
C348 N2 2.156 . S
C381 N46 2.263 . S
C304 N79 2.165 . S
C315 N167 2.178 . S
C271 N211 2.127 . S
N233 C337 2.170 . S
N145 C370 2.100 . S
C18 N277 2.183 . S
C139 N310 2.221 . S
N266 C183 2.127 . S
C205 N332 2.139 . S
N365 C249 2.103 . S
C73 N376 2.084 . S
N299 C106 2.167 . S
C40 N343 2.320 . S
C513 N409 2.247 . S
C403 N431 2.136 . S
N464 C447 2.176 . S
N497 C480 2.125 . S
N530 C568 2.130 . S
N574 C612 2.340 . S
N596 C634 2.164 . S
C546 N640 2.272 . S
C678 N508 2.238 . S
C744 N398 2.190 . S
N442 C777 2.266 . S
C711 N475 2.218 . S
C700 N563 2.130 . S
N607 C667 2.123 . S
C733 N629 2.139 . S
C766 N541 2.141 . S
N673 C414 2.173 . S
C535 N695 2.154 . S
N662 C579 2.112 . S
N728 C601 2.186 . S
N761 C645 2.112 . S
N772 C469 2.097 . S
C502 N706 2.234 . S
N739 C436 2.267 . S
N805 C909 2.249 . S
N827 C799 2.162 . S
N860 C843 2.242 . S
C876 N893 2.094 . S
N926 C964 2.135 . S
N970 C1008 2.300 . S
N992 C1030 2.160 . S
C942 N1036 2.254 . S
N904 C1074 2.241 . S
N794 C1129 2.138 . S
C1173 N838 2.314 . S
C1107 N871 2.222 . S
C1096 N959 2.087 . S
C1063 N1003 2.091 . S
C1140 N1025 2.155 . S
C1162 N937 2.176 . S
N1069 C810 2.148 . S
C931 N1091 2.108 . S
N1058 C975 2.140 . S
C997 N1135 2.216 . S
N1157 C1041 2.154 . S
N1168 C865 2.083 . S
N1102 C898 2.258 . S
N1124 C832 2.240 . S
N1201 C1305 2.300 . S
N1223 C1195 2.153 . S
N1256 C1239 2.228 . S
N1289 C1272 2.122 . S
N1322 C1360 2.106 . S
N1366 C1404 2.313 . S
N1388 C1426 2.171 . S
N1432 C1338 2.202 . S
N1300 C1470 2.285 . S
N1190 C1525 2.106 . S
N1234 C1569 2.310 . S
N1267 C1492 2.167 . S
C1503 N1355 2.133 . S
C1459 N1399 2.094 . S
N1421 C1536 2.188 . S
N1333 C1558 2.134 . S
C1206 N1465 2.156 . S
N1498 C1327 2.180 . S
C1371 N1454 2.156 . S
N1531 C1393 2.165 . S
C1437 N1553 2.144 . S
C1261 N1564 2.072 . S
N1487 C1294 2.196 . S
C1228 N1520 2.289 . S
