# Generated by pormake.
# Topology wgm, (5)-cn, num edge types: 1
# Building blocks:
#     Node 0, Type 0, BuildingBlock: XOMCOT_clean_sbu_0, # of connection points: 5
#     Node 1, Type 0, BuildingBlock: XOMCOT_clean_sbu_0, # of connection points: 5
#     Node 2, Type 0, BuildingBlock: XOMCOT_clean_sbu_0, # of connection points: 5
#     Node 3, Type 0, BuildingBlock: XOMCOT_clean_sbu_0, # of connection points: 5
#     Node 4, Type 0, BuildingBlock: XOMCOT_clean_sbu_0, # of connection points: 5
#     Node 5, Type 0, BuildingBlock: XOMCOT_clean_sbu_0, # of connection points: 5
#     Node 6, Type 0, BuildingBlock: XOMCOT_clean_sbu_0, # of connection points: 5
#     Node 7, Type 0, BuildingBlock: XOMCOT_clean_sbu_0, # of connection points: 5
#     Node 8, Type 0, BuildingBlock: XOMCOT_clean_sbu_0, # of connection points: 5
#     Node 9, Type 0, BuildingBlock: XOMCOT_clean_sbu_0, # of connection points: 5
#     Node 10, Type 0, BuildingBlock: XOMCOT_clean_sbu_0, # of connection points: 5
#     Node 11, Type 0, BuildingBlock: XOMCOT_clean_sbu_0, # of connection points: 5
#     Node 12, Type 0, BuildingBlock: XOMCOT_clean_sbu_0, # of connection points: 5
#     Node 13, Type 0, BuildingBlock: XOMCOT_clean_sbu_0, # of connection points: 5
#     Node 14, Type 0, BuildingBlock: XOMCOT_clean_sbu_0, # of connection points: 5
#     Node 15, Type 0, BuildingBlock: XOMCOT_clean_sbu_0, # of connection points: 5
#     Node 16, Type 0, BuildingBlock: XOMCOT_clean_sbu_0, # of connection points: 5
#     Node 17, Type 0, BuildingBlock: XOMCOT_clean_sbu_0, # of connection points: 5
#     Node 18, Type 0, BuildingBlock: XOMCOT_clean_sbu_0, # of connection points: 5
#     Node 19, Type 0, BuildingBlock: XOMCOT_clean_sbu_0, # of connection points: 5
#     Node 20, Type 0, BuildingBlock: XOMCOT_clean_sbu_0, # of connection points: 5
#     Node 21, Type 0, BuildingBlock: XOMCOT_clean_sbu_0, # of connection points: 5
#     Node 22, Type 0, BuildingBlock: XOMCOT_clean_sbu_0, # of connection points: 5
#     Node 23, Type 0, BuildingBlock: XOMCOT_clean_sbu_0, # of connection points: 5
#     Node 24, Type 0, BuildingBlock: XOMCOT_clean_sbu_0, # of connection points: 5
#     Node 25, Type 0, BuildingBlock: XOMCOT_clean_sbu_0, # of connection points: 5
#     Node 26, Type 0, BuildingBlock: XOMCOT_clean_sbu_0, # of connection points: 5
#     Node 27, Type 0, BuildingBlock: XOMCOT_clean_sbu_0, # of connection points: 5
#     Node 28, Type 0, BuildingBlock: XOMCOT_clean_sbu_0, # of connection points: 5
#     Node 29, Type 0, BuildingBlock: XOMCOT_clean_sbu_0, # of connection points: 5
#     Node 30, Type 0, BuildingBlock: XOMCOT_clean_sbu_0, # of connection points: 5
#     Node 31, Type 0, BuildingBlock: XOMCOT_clean_sbu_0, # of connection points: 5
#     Edge 32, Type (0, 0), BuildingBlock: KIFKEQ_clean_linker_1, # of connection points: 2
#     Edge 33, Type (0, 0), BuildingBlock: KIFKEQ_clean_linker_1, # of connection points: 2
#     Edge 34, Type (0, 0), BuildingBlock: KIFKEQ_clean_linker_1, # of connection points: 2
#     Edge 35, Type (0, 0), BuildingBlock: KIFKEQ_clean_linker_1, # of connection points: 2
#     Edge 36, Type (0, 0), BuildingBlock: KIFKEQ_clean_linker_1, # of connection points: 2
#     Edge 37, Type (0, 0), BuildingBlock: KIFKEQ_clean_linker_1, # of connection points: 2
#     Edge 38, Type (0, 0), BuildingBlock: KIFKEQ_clean_linker_1, # of connection points: 2
#     Edge 39, Type (0, 0), BuildingBlock: KIFKEQ_clean_linker_1, # of connection points: 2
#     Edge 40, Type (0, 0), BuildingBlock: KIFKEQ_clean_linker_1, # of connection points: 2
#     Edge 41, Type (0, 0), BuildingBlock: KIFKEQ_clean_linker_1, # of connection points: 2
#     Edge 42, Type (0, 0), BuildingBlock: KIFKEQ_clean_linker_1, # of connection points: 2
#     Edge 43, Type (0, 0), BuildingBlock: KIFKEQ_clean_linker_1, # of connection points: 2
#     Edge 44, Type (0, 0), BuildingBlock: KIFKEQ_clean_linker_1, # of connection points: 2
#     Edge 45, Type (0, 0), BuildingBlock: KIFKEQ_clean_linker_1, # of connection points: 2
#     Edge 46, Type (0, 0), BuildingBlock: KIFKEQ_clean_linker_1, # of connection points: 2
#     Edge 47, Type (0, 0), BuildingBlock: KIFKEQ_clean_linker_1, # of connection points: 2
#     Edge 48, Type (0, 0), BuildingBlock: KIFKEQ_clean_linker_1, # of connection points: 2
#     Edge 49, Type (0, 0), BuildingBlock: KIFKEQ_clean_linker_1, # of connection points: 2
#     Edge 50, Type (0, 0), BuildingBlock: KIFKEQ_clean_linker_1, # of connection points: 2
#     Edge 51, Type (0, 0), BuildingBlock: KIFKEQ_clean_linker_1, # of connection points: 2
#     Edge 52, Type (0, 0), BuildingBlock: KIFKEQ_clean_linker_1, # of connection points: 2
#     Edge 53, Type (0, 0), BuildingBlock: KIFKEQ_clean_linker_1, # of connection points: 2
#     Edge 54, Type (0, 0), BuildingBlock: KIFKEQ_clean_linker_1, # of connection points: 2
#     Edge 55, Type (0, 0), BuildingBlock: KIFKEQ_clean_linker_1, # of connection points: 2
#     Edge 56, Type (0, 0), BuildingBlock: KIFKEQ_clean_linker_1, # of connection points: 2
#     Edge 57, Type (0, 0), BuildingBlock: KIFKEQ_clean_linker_1, # of connection points: 2
#     Edge 58, Type (0, 0), BuildingBlock: KIFKEQ_clean_linker_1, # of connection points: 2
#     Edge 59, Type (0, 0), BuildingBlock: KIFKEQ_clean_linker_1, # of connection points: 2
#     Edge 60, Type (0, 0), BuildingBlock: KIFKEQ_clean_linker_1, # of connection points: 2
#     Edge 61, Type (0, 0), BuildingBlock: KIFKEQ_clean_linker_1, # of connection points: 2
#     Edge 62, Type (0, 0), BuildingBlock: KIFKEQ_clean_linker_1, # of connection points: 2
#     Edge 63, Type (0, 0), BuildingBlock: KIFKEQ_clean_linker_1, # of connection points: 2
#     Edge 64, Type (0, 0), BuildingBlock: KIFKEQ_clean_linker_1, # of connection points: 2
#     Edge 65, Type (0, 0), BuildingBlock: KIFKEQ_clean_linker_1, # of connection points: 2
#     Edge 66, Type (0, 0), BuildingBlock: KIFKEQ_clean_linker_1, # of connection points: 2
#     Edge 67, Type (0, 0), BuildingBlock: KIFKEQ_clean_linker_1, # of connection points: 2
#     Edge 68, Type (0, 0), BuildingBlock: KIFKEQ_clean_linker_1, # of connection points: 2
#     Edge 69, Type (0, 0), BuildingBlock: KIFKEQ_clean_linker_1, # of connection points: 2
#     Edge 70, Type (0, 0), BuildingBlock: KIFKEQ_clean_linker_1, # of connection points: 2
#     Edge 71, Type (0, 0), BuildingBlock: KIFKEQ_clean_linker_1, # of connection points: 2
#     Edge 72, Type (0, 0), BuildingBlock: KIFKEQ_clean_linker_1, # of connection points: 2
#     Edge 73, Type (0, 0), BuildingBlock: KIFKEQ_clean_linker_1, # of connection points: 2
#     Edge 74, Type (0, 0), BuildingBlock: KIFKEQ_clean_linker_1, # of connection points: 2
#     Edge 75, Type (0, 0), BuildingBlock: KIFKEQ_clean_linker_1, # of connection points: 2
#     Edge 76, Type (0, 0), BuildingBlock: KIFKEQ_clean_linker_1, # of connection points: 2
#     Edge 77, Type (0, 0), BuildingBlock: KIFKEQ_clean_linker_1, # of connection points: 2
#     Edge 78, Type (0, 0), BuildingBlock: KIFKEQ_clean_linker_1, # of connection points: 2
#     Edge 79, Type (0, 0), BuildingBlock: KIFKEQ_clean_linker_1, # of connection points: 2
#     Edge 80, Type (0, 0), BuildingBlock: KIFKEQ_clean_linker_1, # of connection points: 2
#     Edge 81, Type (0, 0), BuildingBlock: KIFKEQ_clean_linker_1, # of connection points: 2
#     Edge 82, Type (0, 0), BuildingBlock: KIFKEQ_clean_linker_1, # of connection points: 2
#     Edge 83, Type (0, 0), BuildingBlock: KIFKEQ_clean_linker_1, # of connection points: 2
#     Edge 84, Type (0, 0), BuildingBlock: KIFKEQ_clean_linker_1, # of connection points: 2
#     Edge 85, Type (0, 0), BuildingBlock: KIFKEQ_clean_linker_1, # of connection points: 2
#     Edge 86, Type (0, 0), BuildingBlock: KIFKEQ_clean_linker_1, # of connection points: 2
#     Edge 87, Type (0, 0), BuildingBlock: KIFKEQ_clean_linker_1, # of connection points: 2
#     Edge 88, Type (0, 0), BuildingBlock: KIFKEQ_clean_linker_1, # of connection points: 2
#     Edge 89, Type (0, 0), BuildingBlock: KIFKEQ_clean_linker_1, # of connection points: 2
#     Edge 90, Type (0, 0), BuildingBlock: KIFKEQ_clean_linker_1, # of connection points: 2
#     Edge 91, Type (0, 0), BuildingBlock: KIFKEQ_clean_linker_1, # of connection points: 2
#     Edge 92, Type (0, 0), BuildingBlock: KIFKEQ_clean_linker_1, # of connection points: 2
#     Edge 93, Type (0, 0), BuildingBlock: KIFKEQ_clean_linker_1, # of connection points: 2
#     Edge 94, Type (0, 0), BuildingBlock: KIFKEQ_clean_linker_1, # of connection points: 2
#     Edge 95, Type (0, 0), BuildingBlock: KIFKEQ_clean_linker_1, # of connection points: 2
#     Edge 96, Type (0, 0), BuildingBlock: KIFKEQ_clean_linker_1, # of connection points: 2
#     Edge 97, Type (0, 0), BuildingBlock: KIFKEQ_clean_linker_1, # of connection points: 2
#     Edge 98, Type (0, 0), BuildingBlock: KIFKEQ_clean_linker_1, # of connection points: 2
#     Edge 99, Type (0, 0), BuildingBlock: KIFKEQ_clean_linker_1, # of connection points: 2
#     Edge 100, Type (0, 0), BuildingBlock: KIFKEQ_clean_linker_1, # of connection points: 2
#     Edge 101, Type (0, 0), BuildingBlock: KIFKEQ_clean_linker_1, # of connection points: 2
#     Edge 102, Type (0, 0), BuildingBlock: KIFKEQ_clean_linker_1, # of connection points: 2
#     Edge 103, Type (0, 0), BuildingBlock: KIFKEQ_clean_linker_1, # of connection points: 2
#     Edge 104, Type (0, 0), BuildingBlock: KIFKEQ_clean_linker_1, # of connection points: 2
#     Edge 105, Type (0, 0), BuildingBlock: KIFKEQ_clean_linker_1, # of connection points: 2
#     Edge 106, Type (0, 0), BuildingBlock: KIFKEQ_clean_linker_1, # of connection points: 2
#     Edge 107, Type (0, 0), BuildingBlock: KIFKEQ_clean_linker_1, # of connection points: 2
#     Edge 108, Type (0, 0), BuildingBlock: KIFKEQ_clean_linker_1, # of connection points: 2
#     Edge 109, Type (0, 0), BuildingBlock: KIFKEQ_clean_linker_1, # of connection points: 2
#     Edge 110, Type (0, 0), BuildingBlock: KIFKEQ_clean_linker_1, # of connection points: 2
#     Edge 111, Type (0, 0), BuildingBlock: KIFKEQ_clean_linker_1, # of connection points: 2
# Relax obj value: 0.093
# Max RMSD: 0.192
# Mean RMSD: 0.192
data_MOF--net-wgm--node1-XOMCOT_clean_sbu_0--edge1-KIFKEQ_clean_linker_1
_symmetry_space_group_name_H-M    P1
_symmetry_Int_Tables_number       1
_symmetry_cell_setting            triclinic
loop_
_symmetry_equiv_pos_as_xyz
'x, y, z'
_cell_length_a     48.843979
_cell_length_b     48.87828
_cell_length_c     78.568761
_cell_angle_alpha  89.980314
_cell_angle_beta   90.093861
_cell_angle_gamma 89.989151
loop_
_atom_site_label
_atom_site_type_symbol
_atom_site_fract_x
_atom_site_fract_y
_atom_site_fract_z
_atom_type_partial_charge
Co0 Co 0.18755 0.15322 0.34278 0.0
C1 C 0.18333 0.20013 0.36595 0.0
C2 C 0.2106 0.16987 0.37619 0.0
C3 C 0.21015 0.19202 0.38706 0.0
N4 N 0.19392 0.17512 0.36289 0.0
N5 N 0.19293 0.21092 0.38059 0.0
H6 H 0.16947 0.2106 0.3574 0.0
H7 H 0.22256 0.1515 0.37786 0.0
C8 C 0.2408 0.11898 0.33977 0.0
O9 O 0.24132 0.11856 0.32306 0.0
N10 N 0.18029 0.13225 0.32221 0.0
C11 C 0.16706 0.1427 0.30861 0.0
C12 C 0.16426 0.12291 0.29646 0.0
C13 C 0.18459 0.10559 0.31827 0.0
N14 N 0.1753 0.09955 0.30242 0.0
C15 C 0.188 0.20168 0.32234 0.0
C16 C 0.24264 0.20134 0.31356 0.0
C17 C 0.22502 0.21978 0.3053 0.0
C18 C 0.19758 0.22044 0.31039 0.0
C19 C 0.23216 0.18291 0.32559 0.0
N20 N 0.20474 0.182 0.32903 0.0
H21 H 0.1666 0.20242 0.32563 0.0
H22 H 0.24632 0.16953 0.3319 0.0
H23 H 0.15929 0.16326 0.30756 0.0
H24 H 0.194 0.09092 0.32678 0.0
O25 O 0.1497 0.16561 0.34238 0.0
O26 O 0.16463 0.12878 0.3558 0.0
O27 O 0.22277 0.13289 0.34775 0.0
C28 C 0.14422 0.14466 0.35199 0.0
H29 H 0.22159 0.19408 0.39881 0.0
H30 H 0.15508 0.12568 0.28403 0.0
H31 H 0.26421 0.20053 0.31043 0.0
H32 H 0.18338 0.23511 0.30499 0.0
Co33 Co 0.13527 0.92538 0.58907 0.0
C34 C 0.08348 0.92802 0.60863 0.0
C35 C 0.11667 0.94739 0.62192 0.0
C36 C 0.09378 0.94802 0.63214 0.0
N37 N 0.11018 0.93492 0.60719 0.0
N38 N 0.07291 0.93576 0.62381 0.0
H39 H 0.07237 0.91673 0.599 0.0
H40 H 0.13682 0.95489 0.62522 0.0
C41 C 0.16183 0.98314 0.58795 0.0
O42 O 0.15191 0.99026 0.57305 0.0
N43 N 0.16095 0.91505 0.5709 0.0
C44 C 0.16197 0.89026 0.56328 0.0
C45 C 0.18298 0.88978 0.55177 0.0
C46 C 0.18182 0.92931 0.5637 0.0
N47 N 0.19557 0.91425 0.552 0.0
C48 C 0.10325 0.92758 0.55861 0.0
C49 C 0.08154 0.97928 0.56295 0.0
C50 C 0.0744 0.96456 0.54816 0.0
C51 C 0.08523 0.93806 0.54641 0.0
C52 C 0.09926 0.96769 0.57508 0.0
N53 N 0.11087 0.94261 0.57245 0.0
H54 H 0.11066 0.90695 0.55707 0.0
H55 H 0.10388 0.97905 0.58654 0.0
H56 H 0.14823 0.87339 0.56562 0.0
H57 H 0.18735 0.94996 0.567 0.0
O58 O 0.11988 0.88859 0.58911 0.0
O59 O 0.15521 0.90236 0.60461 0.0
O60 O 0.15698 0.9596 0.59431 0.0
C61 C 0.13883 0.88264 0.60025 0.0
H62 H 0.0927 0.95672 0.64478 0.0
H63 H 0.18818 0.8728 0.54353 0.0
H64 H 0.07381 0.9997 0.56516 0.0
H65 H 0.07952 0.92506 0.53584 0.0
Co66 Co 0.3377 0.89476 0.85373 0.0
C67 C 0.34391 0.83705 0.86551 0.0
C68 C 0.32321 0.86245 0.88374 0.0
C69 C 0.32402 0.83616 0.88994 0.0
N70 N 0.33538 0.86299 0.86837 0.0
N71 N 0.33702 0.82024 0.87851 0.0
H72 H 0.35424 0.83051 0.85403 0.0
H73 H 0.31415 0.87993 0.89 0.0
C74 C 0.28202 0.92124 0.85681 0.0
O75 O 0.28076 0.92387 0.84021 0.0
N76 N 0.3398 0.92758 0.83942 0.0
C77 C 0.34713 0.95256 0.84515 0.0
C78 C 0.34465 0.9713 0.83222 0.0
C79 C 0.33253 0.93183 0.82293 0.0
N80 N 0.33534 0.95835 0.81822 0.0
C81 C 0.33559 0.8668 0.82195 0.0
C82 C 0.28352 0.84531 0.82507 0.0
C83 C 0.29907 0.83863 0.81061 0.0
C84 C 0.32541 0.84976 0.8092 0.0
C85 C 0.29455 0.86257 0.83761 0.0
N86 N 0.32002 0.87371 0.83572 0.0
H87 H 0.35602 0.87494 0.8206 0.0
H88 H 0.2829 0.86625 0.84905 0.0
H89 H 0.35338 0.95724 0.85802 0.0
H90 H 0.32391 0.91643 0.81472 0.0
O91 O 0.37564 0.88603 0.84858 0.0
O92 O 0.36207 0.91176 0.8701 0.0
O93 O 0.30217 0.90876 0.8637 0.0
C94 C 0.38224 0.90089 0.86168 0.0
H95 H 0.31582 0.82924 0.90199 0.0
H96 H 0.34944 0.99285 0.83315 0.0
H97 H 0.26337 0.8366 0.82696 0.0
H98 H 0.33816 0.84545 0.79826 0.0
Co99 Co 0.39161 0.08872 0.10514 0.0
C100 C 0.44 0.08694 0.12816 0.0
C101 C 0.40294 0.07871 0.14168 0.0
C102 C 0.42422 0.08045 0.15327 0.0
N103 N 0.41291 0.08248 0.12584 0.0
N104 N 0.44753 0.08561 0.14467 0.0
H105 H 0.45384 0.09302 0.11827 0.0
H106 H 0.3815 0.07601 0.14467 0.0
C107 C 0.37593 0.03268 0.11712 0.0
O108 O 0.40209 0.02792 0.11973 0.0
N109 N 0.37146 0.09611 0.08434 0.0
C110 C 0.38231 0.11088 0.07156 0.0
C111 C 0.36463 0.11095 0.05808 0.0
C112 C 0.34703 0.0871 0.07835 0.0
N113 N 0.34228 0.09617 0.06223 0.0
C114 C 0.44185 0.08132 0.08667 0.0
C115 C 0.42735 0.03338 0.07047 0.0
C116 C 0.45259 0.04548 0.06639 0.0
C117 C 0.45977 0.06969 0.07489 0.0
C118 C 0.41028 0.04544 0.08264 0.0
N119 N 0.41791 0.06874 0.09104 0.0
H120 H 0.4468 0.10127 0.09163 0.0
H121 H 0.39021 0.03676 0.08443 0.0
H122 H 0.40231 0.12034 0.07179 0.0
H123 H 0.33326 0.07413 0.0855 0.0
O124 O 0.40701 0.12541 0.10404 0.0
O125 O 0.36891 0.11416 0.11751 0.0
O126 O 0.36848 0.05505 0.11 0.0
C127 C 0.38626 0.13309 0.11328 0.0
H128 H 0.42251 0.07869 0.16696 0.0
H129 H 0.36852 0.12048 0.0459 0.0
H130 H 0.42012 0.01543 0.06378 0.0
H131 H 0.47882 0.08013 0.07223 0.0
Co132 Co 0.18038 0.88977 0.18243 0.0
C133 C 0.17129 0.84595 0.15667 0.0
C134 C 0.18918 0.88147 0.14534 0.0
C135 C 0.18542 0.86198 0.13283 0.0
N136 N 0.1813 0.87102 0.16048 0.0
N137 N 0.17403 0.83974 0.14005 0.0
H138 H 0.16148 0.83252 0.16561 0.0
H139 H 0.19685 0.90199 0.14341 0.0
C140 C 0.2362 0.90262 0.16873 0.0
O141 O 0.2391 0.87624 0.16602 0.0
N142 N 0.17843 0.90778 0.20432 0.0
C143 C 0.16919 0.89535 0.2185 0.0
C144 C 0.1719 0.91285 0.232 0.0
C145 C 0.18639 0.93303 0.20934 0.0
N146 N 0.18275 0.93649 0.22632 0.0
C147 C 0.18985 0.83596 0.19647 0.0
C148 C 0.23852 0.8484 0.2126 0.0
C149 C 0.22715 0.82233 0.21511 0.0
C150 C 0.2026 0.81621 0.20661 0.0
C151 C 0.22536 0.86736 0.20204 0.0
N152 N 0.20161 0.8609 0.19368 0.0
H153 H 0.16952 0.8317 0.19197 0.0
H154 H 0.23348 0.88786 0.20153 0.0
H155 H 0.16121 0.87473 0.219 0.0
H156 H 0.19494 0.94827 0.20089 0.0
O157 O 0.14353 0.87589 0.18596 0.0
O158 O 0.1537 0.91501 0.17325 0.0
O159 O 0.21452 0.91148 0.17609 0.0
C160 C 0.13497 0.89797 0.17834 0.0
H161 H 0.19008 0.86418 0.11943 0.0
H162 H 0.16584 0.9087 0.24499 0.0
H163 H 0.2567 0.85479 0.21941 0.0
H164 H 0.19262 0.79661 0.20819 0.0
Co165 Co 0.38103 0.93881 0.41748 0.0
C166 C 0.43693 0.92626 0.40351 0.0
C167 C 0.40982 0.94545 0.38555 0.0
C168 C 0.43378 0.93923 0.37738 0.0
N169 N 0.41167 0.93742 0.4019 0.0
N170 N 0.45081 0.92705 0.38857 0.0
H171 H 0.44451 0.91688 0.41508 0.0
H172 H 0.39184 0.95442 0.37975 0.0
C173 C 0.3584 0.99559 0.41293 0.0
O174 O 0.35654 0.99798 0.42955 0.0
N175 N 0.34868 0.94048 0.43208 0.0
C176 C 0.32338 0.94276 0.42532 0.0
C177 C 0.30445 0.94459 0.43811 0.0
C178 C 0.34457 0.94074 0.44919 0.0
N179 N 0.31766 0.94343 0.45315 0.0
C180 C 0.41086 0.94244 0.44863 0.0
C181 C 0.43591 0.99217 0.44277 0.0
C182 C 0.44206 0.97804 0.45792 0.0
C183 C 0.42903 0.95287 0.4607 0.0
C184 C 0.4172 0.98107 0.43106 0.0
N185 N 0.40426 0.95684 0.43433 0.0
H186 H 0.40208 0.92249 0.45084 0.0
H187 H 0.41385 0.99158 0.41914 0.0
H188 H 0.319 0.94346 0.41183 0.0
H189 H 0.36048 0.93957 0.45866 0.0
O190 O 0.38767 0.90117 0.42405 0.0
O191 O 0.36132 0.91408 0.40257 0.0
O192 O 0.36911 0.9742 0.40642 0.0
C193 C 0.37179 0.89422 0.41148 0.0
H194 H 0.43824 0.94313 0.3641 0.0
H195 H 0.28252 0.94629 0.43642 0.0
H196 H 0.44605 0.01123 0.4397 0.0
H197 H 0.43277 0.94109 0.47214 0.0
Co198 Co 0.33924 0.11839 0.67222 0.0
C199 C 0.33756 0.17445 0.65768 0.0
C200 C 0.32692 0.14392 0.63926 0.0
C201 C 0.32876 0.16876 0.63112 0.0
N202 N 0.33195 0.1475 0.65599 0.0
N203 N 0.33566 0.18796 0.64269 0.0
H204 H 0.34496 0.18365 0.66929 0.0
H205 H 0.32331 0.12433 0.63325 0.0
C206 C 0.28231 0.10872 0.65873 0.0
O207 O 0.27819 0.13529 0.65861 0.0
N208 N 0.34772 0.08911 0.68838 0.0
C209 C 0.37286 0.07874 0.69166 0.0
C210 C 0.3709 0.05887 0.70383 0.0
C211 C 0.33076 0.07522 0.69899 0.0
N212 N 0.34453 0.05654 0.70849 0.0
C213 C 0.33802 0.15821 0.69907 0.0
C214 C 0.28417 0.15144 0.7088 0.0
C215 C 0.29985 0.17166 0.71685 0.0
C216 C 0.32727 0.17457 0.71204 0.0
C217 C 0.29585 0.13519 0.69604 0.0
N218 N 0.3222 0.13939 0.69074 0.0
H219 H 0.35915 0.16118 0.6956 0.0
H220 H 0.28352 0.11903 0.69083 0.0
H221 H 0.39189 0.08522 0.68603 0.0
H222 H 0.30893 0.0786 0.69979 0.0
O223 O 0.37656 0.13201 0.67381 0.0
O224 O 0.36225 0.10116 0.65526 0.0
O225 O 0.30407 0.09876 0.66547 0.0
C226 C 0.38218 0.11629 0.6609 0.0
H227 H 0.32606 0.17217 0.61762 0.0
H228 H 0.38786 0.04763 0.70932 0.0
H229 H 0.26312 0.14788 0.71253 0.0
H230 H 0.34023 0.1898 0.71801 0.0
Co231 Co 0.13568 0.08765 0.93938 0.0
C232 C 0.08712 0.08921 0.91648 0.0
C233 C 0.1239 0.08092 0.90264 0.0
C234 C 0.10237 0.08234 0.89126 0.0
N235 N 0.11422 0.08476 0.91852 0.0
N236 N 0.07918 0.08755 0.90002 0.0
H237 H 0.07352 0.09473 0.92664 0.0
H238 H 0.1452 0.0775 0.89953 0.0
C239 C 0.14622 0.03152 0.92548 0.0
O240 O 0.11984 0.0293 0.92247 0.0
N241 N 0.15627 0.09146 0.96034 0.0
C242 C 0.14645 0.10484 0.97404 0.0
C243 C 0.16416 0.10146 0.9874 0.0
C244 C 0.18023 0.08025 0.96553 0.0
N245 N 0.18532 0.08598 0.98214 0.0
C246 C 0.08538 0.08511 0.95814 0.0
C247 C 0.0922 0.03303 0.97113 0.0
C248 C 0.06971 0.04857 0.97644 0.0
C249 C 0.06642 0.07492 0.96982 0.0
C250 C 0.11104 0.04424 0.95968 0.0
N251 N 0.10712 0.0697 0.95282 0.0
H252 H 0.08306 0.10598 0.9539 0.0
H253 H 0.12943 0.0328 0.95719 0.0
H254 H 0.12733 0.11595 0.9744 0.0
H255 H 0.19324 0.06773 0.95757 0.0
O256 O 0.12412 0.12568 0.94124 0.0
O257 O 0.16105 0.11132 0.92769 0.0
O258 O 0.15537 0.0522 0.93373 0.0
C259 C 0.14555 0.13168 0.93213 0.0
H260 H 0.1038 0.07976 0.87762 0.0
H261 H 0.16181 0.10999 1.00003 0.0
H262 H 0.09596 0.01294 0.97646 0.0
H263 H 0.04957 0.08776 0.97387 0.0
Co264 Co 0.83653 0.89096 0.6719 0.0
C265 C 0.84801 0.83787 0.65485 0.0
C266 C 0.83242 0.86816 0.63753 0.0
C267 C 0.83561 0.84393 0.62883 0.0
N268 N 0.83997 0.86429 0.65384 0.0
N269 N 0.84537 0.82491 0.63971 0.0
H270 H 0.85468 0.8281 0.66651 0.0
H271 H 0.82462 0.88716 0.63239 0.0
C272 C 0.79685 0.92853 0.65775 0.0
O273 O 0.81594 0.94644 0.66156 0.0
N274 N 0.83175 0.91743 0.69024 0.0
C275 C 0.80724 0.92108 0.69779 0.0
C276 C 0.80924 0.94147 0.70962 0.0
C277 C 0.84872 0.93565 0.69795 0.0
N278 N 0.83517 0.95078 0.70975 0.0
C279 C 0.83346 0.85667 0.7009 0.0
C280 C 0.78257 0.83395 0.69481 0.0
C281 C 0.79635 0.82716 0.71002 0.0
C282 C 0.82242 0.83846 0.71269 0.0
C283 C 0.79462 0.85215 0.68314 0.0
N284 N 0.81955 0.86361 0.68648 0.0
H285 H 0.85315 0.86576 0.70358 0.0
H286 H 0.78373 0.85732 0.67159 0.0
H287 H 0.78887 0.90976 0.69475 0.0
H288 H 0.87016 0.93818 0.69488 0.0
O289 O 0.8748 0.88497 0.67792 0.0
O290 O 0.86015 0.91542 0.65925 0.0
O291 O 0.80041 0.90334 0.66168 0.0
C292 C 0.88076 0.90362 0.66669 0.0
H293 H 0.83099 0.84051 0.61552 0.0
H294 H 0.79286 0.94875 0.71771 0.0
H295 H 0.76241 0.82584 0.69211 0.0
H296 H 0.83437 0.83341 0.72387 0.0
Co297 Co 0.88496 0.08159 0.41707 0.0
C298 C 0.94038 0.09355 0.40305 0.0
C299 C 0.91391 0.07319 0.38522 0.0
C300 C 0.938 0.07935 0.37715 0.0
N301 N 0.91536 0.08202 0.40143 0.0
N302 N 0.95458 0.09227 0.38829 0.0
H303 H 0.94751 0.10362 0.4145 0.0
H304 H 0.89616 0.06377 0.37945 0.0
C305 C 0.8603 0.02544 0.41286 0.0
O306 O 0.85839 0.02325 0.42948 0.0
N307 N 0.85304 0.08099 0.43198 0.0
C308 C 0.82736 0.07893 0.42577 0.0
C309 C 0.8092 0.07702 0.43901 0.0
C310 C 0.84997 0.08071 0.44915 0.0
N311 N 0.82338 0.07807 0.4537 0.0
C312 C 0.91579 0.0775 0.44804 0.0
C313 C 0.93791 0.02626 0.44256 0.0
C314 C 0.94429 0.04005 0.45773 0.0
C315 C 0.93308 0.06605 0.46032 0.0
C316 C 0.91984 0.03822 0.43076 0.0
N317 N 0.90814 0.06314 0.4339 0.0
H318 H 0.90832 0.09804 0.45003 0.0
H319 H 0.91585 0.02767 0.41895 0.0
H320 H 0.82223 0.07817 0.41238 0.0
H321 H 0.86638 0.08168 0.45828 0.0
O322 O 0.89248 0.11936 0.42321 0.0
O323 O 0.86559 0.10648 0.40203 0.0
O324 O 0.8719 0.04633 0.40627 0.0
C325 C 0.87672 0.12638 0.41056 0.0
H326 H 0.94282 0.07495 0.36399 0.0
H327 H 0.78718 0.07512 0.43792 0.0
H328 H 0.94672 1.00639 0.43988 0.0
H329 H 0.93818 0.07777 0.47159 0.0
Co330 Co 0.68378 0.14553 0.18685 0.0
C331 C 0.67402 0.19091 0.16244 0.0
C332 C 0.69001 0.15533 0.14998 0.0
C333 C 0.68554 0.17538 0.13792 0.0
N334 N 0.68299 0.16517 0.16538 0.0
N335 N 0.67554 0.1978 0.14579 0.0
H336 H 0.66581 0.20414 0.17216 0.0
H337 H 0.69759 0.1349 0.14763 0.0
C338 C 0.73699 0.11196 0.18616 0.0
O339 O 0.73786 0.11007 0.20282 0.0
N340 N 0.68364 0.12633 0.20861 0.0
C341 C 0.6802 0.13846 0.22389 0.0
C342 C 0.67809 0.11885 0.23626 0.0
C343 C 0.68288 0.09911 0.21197 0.0
N344 N 0.67979 0.09411 0.22885 0.0
C345 C 0.68713 0.19768 0.2038 0.0
C346 C 0.7424 0.19653 0.21113 0.0
C347 C 0.72625 0.21701 0.21854 0.0
C348 C 0.69844 0.21799 0.21423 0.0
C349 C 0.73037 0.17688 0.20049 0.0
N350 N 0.70274 0.17668 0.19759 0.0
H351 H 0.66531 0.19798 0.20168 0.0
H352 H 0.74355 0.16171 0.19507 0.0
H353 H 0.67842 0.1601 0.22613 0.0
H354 H 0.68415 0.08338 0.20231 0.0
O355 O 0.64563 0.15571 0.1908 0.0
O356 O 0.65935 0.11844 0.17742 0.0
O357 O 0.71885 0.12689 0.17889 0.0
C358 C 0.63911 0.13335 0.18272 0.0
H359 H 0.68964 0.17364 0.12443 0.0
H360 H 0.67547 0.12255 0.24974 0.0
H361 H 0.76416 0.19545 0.21373 0.0
H362 H 0.68514 0.23344 0.21964 0.0
Co363 Co 0.6383 0.92966 0.93454 0.0
C364 C 0.58827 0.93123 0.91322 0.0
C365 C 0.6239 0.93928 0.89823 0.0
C366 C 0.60129 0.93866 0.88761 0.0
N367 N 0.61559 0.93509 0.91439 0.0
N368 N 0.57883 0.93358 0.89711 0.0
H369 H 0.57557 0.92529 0.92376 0.0
H370 H 0.64496 0.94212 0.8944 0.0
C371 C 0.6507 0.9861 0.92162 0.0
O372 O 0.62432 0.98954 0.91909 0.0
N373 N 0.65955 0.92281 0.95504 0.0
C374 C 0.65035 0.90566 0.96717 0.0
C375 C 0.66781 0.90608 0.98071 0.0
C376 C 0.6828 0.93387 0.96159 0.0
N377 N 0.68843 0.92358 0.97733 0.0
C378 C 0.58971 0.93205 0.95503 0.0
C379 C 0.59757 0.98401 0.96792 0.0
C380 C 0.57518 0.9687 0.97361 0.0
C381 C 0.57143 0.94234 0.9671 0.0
C382 C 0.61572 0.97272 0.95609 0.0
N383 N 0.61117 0.9474 0.94921 0.0
H384 H 0.58689 0.91131 0.95068 0.0
H385 H 0.63399 0.98408 0.95321 0.0
H386 H 0.63152 0.8941 0.96654 0.0
H387 H 0.69507 0.94908 0.95514 0.0
O388 O 0.62551 0.8918 0.93513 0.0
O389 O 0.66228 0.9063 0.92154 0.0
O390 O 0.65925 0.96483 0.92959 0.0
C391 C 0.64656 0.88597 0.92565 0.0
H392 H 0.60154 0.94145 0.87395 0.0
H393 H 0.66489 0.89492 0.99246 0.0
H394 H 0.60173 1.00409 0.97316 0.0
H395 H 0.55464 0.92965 0.97141 0.0
Co396 Co 0.84177 0.124 0.84945 0.0
C397 C 0.84921 0.18056 0.86355 0.0
C398 C 0.82964 0.15282 0.88091 0.0
C399 C 0.83357 0.17732 0.88907 0.0
N400 N 0.83936 0.15474 0.86494 0.0
N401 N 0.84598 0.19476 0.87825 0.0
H402 H 0.85943 0.18837 0.85234 0.0
H403 H 0.82106 0.1345 0.88648 0.0
C404 C 0.78637 0.09643 0.85205 0.0
O405 O 0.78584 0.09314 0.83545 0.0
N406 N 0.8443 0.09192 0.8347 0.0
C407 C 0.84224 0.06626 0.84085 0.0
C408 C 0.8465 0.04788 0.82795 0.0
C409 C 0.85019 0.08865 0.81794 0.0
N410 N 0.85161 0.06185 0.8135 0.0
C411 C 0.84007 0.1548 0.81849 0.0
C412 C 0.78674 0.17311 0.82081 0.0
C413 C 0.80254 0.18143 0.80676 0.0
C414 C 0.82959 0.17188 0.8058 0.0
C415 C 0.79806 0.15572 0.83323 0.0
N416 N 0.82421 0.14603 0.83169 0.0
H417 H 0.86127 0.14876 0.81768 0.0
H418 H 0.78598 0.15084 0.84431 0.0
H419 H 0.83789 0.06124 0.85398 0.0
H420 H 0.85395 0.10513 0.80915 0.0
O421 O 0.87986 0.13284 0.84484 0.0
O422 O 0.86556 0.10567 0.86551 0.0
O423 O 0.80597 0.10968 0.85901 0.0
C424 C 0.88598 0.1171 0.85766 0.0
H425 H 0.82793 0.18186 0.90209 0.0
H426 H 0.84547 0.02585 0.82912 0.0
H427 H 0.76606 0.18059 0.82249 0.0
H428 H 0.84276 0.17751 0.79531 0.0
Co429 Co 0.63828 0.09048 0.58585 0.0
C430 C 0.58636 0.09087 0.60482 0.0
C431 C 0.61934 0.07506 0.62002 0.0
C432 C 0.59604 0.07599 0.62986 0.0
N433 N 0.61315 0.08425 0.60434 0.0
N434 N 0.57531 0.08602 0.6203 0.0
H435 H 0.57554 0.10004 0.59424 0.0
H436 H 0.63954 0.06892 0.62416 0.0
C437 C 0.66694 0.03402 0.58438 0.0
O438 O 0.66591 0.03211 0.56771 0.0
N439 N 0.66356 0.09775 0.56712 0.0
C440 C 0.6597 0.11741 0.55525 0.0
C441 C 0.68216 0.11891 0.54493 0.0
C442 C 0.68908 0.08801 0.56395 0.0
N443 N 0.7006 0.10043 0.55031 0.0
C444 C 0.59878 0.08981 0.55884 0.0
C445 C 0.58655 0.03468 0.55974 0.0
C446 C 0.5738 0.05117 0.54743 0.0
C447 C 0.5798 0.07916 0.54731 0.0
C448 C 0.60512 0.04634 0.5713 0.0
N449 N 0.61212 0.07338 0.57021 0.0
H450 H 0.6022 0.11154 0.55876 0.0
H451 H 0.61331 0.03362 0.5813 0.0
H452 H 0.64217 0.13073 0.55434 0.0
H453 H 0.69954 0.07299 0.57167 0.0
O454 O 0.6257 0.1282 0.58475 0.0
O455 O 0.66029 0.11343 0.60046 0.0
O456 O 0.65692 0.05481 0.59203 0.0
C457 C 0.64511 0.13382 0.59557 0.0
H458 H 0.5946 0.06995 0.64307 0.0
H459 H 0.68468 0.13243 0.53412 0.0
H460 H 0.58172 0.01311 0.56068 0.0
H461 H 0.57007 0.09277 0.53825 0.0
Co462 Co 0.6851 0.8718 0.34138 0.0
C463 C 0.67895 0.82682 0.36612 0.0
C464 C 0.70192 0.86005 0.37682 0.0
C465 C 0.6996 0.83974 0.38891 0.0
N466 N 0.68921 0.85179 0.36248 0.0
N467 N 0.68508 0.81892 0.38215 0.0
H468 H 0.66733 0.81461 0.35721 0.0
H469 H 0.71187 0.87955 0.37853 0.0
C470 C 0.7386 0.90599 0.33936 0.0
O471 O 0.7398 0.90632 0.32266 0.0
N472 N 0.68012 0.89111 0.31992 0.0
C473 C 0.66997 0.87923 0.30578 0.0
C474 C 0.66876 0.89812 0.29296 0.0
C475 C 0.68391 0.9177 0.3156 0.0
N476 N 0.67783 0.9223 0.29896 0.0
C477 C 0.68724 0.82073 0.32334 0.0
C478 C 0.74185 0.82196 0.31445 0.0
C479 C 0.72507 0.80164 0.30737 0.0
C480 C 0.69764 0.80067 0.31243 0.0
C481 C 0.7307 0.8414 0.32559 0.0
N482 N 0.7033 0.84167 0.32918 0.0
H483 H 0.66574 0.82001 0.32637 0.0
H484 H 0.7444 0.85604 0.3311 0.0
H485 H 0.66318 0.85831 0.30481 0.0
H486 H 0.69139 0.93315 0.3243 0.0
O487 O 0.64717 0.85966 0.34005 0.0
O488 O 0.66117 0.89745 0.35276 0.0
O489 O 0.72022 0.8921 0.34709 0.0
C490 C 0.64102 0.88123 0.34897 0.0
H491 H 0.70753 0.84047 0.40177 0.0
H492 H 0.66118 0.89436 0.28022 0.0
H493 H 0.76343 0.82288 0.31135 0.0
H494 H 0.68392 0.78524 0.30741 0.0
Co495 Co 0.88155 0.93578 0.10796 0.0
C496 C 0.93016 0.93233 0.13059 0.0
C497 C 0.89577 0.94873 0.14397 0.0
C498 C 0.91759 0.94671 0.15515 0.0
N499 N 0.90393 0.94046 0.12838 0.0
N500 N 0.93908 0.93619 0.14665 0.0
H501 H 0.94252 0.92293 0.12093 0.0
H502 H 0.87524 0.95526 0.14712 0.0
C503 C 0.86972 0.99303 0.11988 0.0
O504 O 0.89625 0.99667 0.12155 0.0
N505 N 0.86031 0.93009 0.08736 0.0
C506 C 0.87 0.91536 0.07417 0.0
C507 C 0.85327 0.91899 0.06036 0.0
C508 C 0.83742 0.94251 0.08136 0.0
N509 N 0.8329 0.93606 0.06479 0.0
C510 C 0.93191 0.94071 0.08926 0.0
C511 C 0.91934 0.9891 0.07294 0.0
C512 C 0.94406 0.97597 0.06887 0.0
C513 C 0.95025 0.95151 0.07741 0.0
C514 C 0.90185 0.97786 0.08517 0.0
N515 N 0.90856 0.95434 0.09365 0.0
H516 H 0.93592 0.92051 0.09412 0.0
H517 H 0.88215 0.98737 0.08698 0.0
H518 H 0.88882 0.90372 0.0743 0.0
H519 H 0.82511 0.95676 0.08859 0.0
O520 O 0.89469 0.89816 0.10656 0.0
O521 O 0.8578 0.91153 0.12053 0.0
O522 O 0.86066 0.97082 0.11327 0.0
C523 C 0.87392 0.89164 0.11611 0.0
H524 H 0.91739 0.95165 0.16858 0.0
H525 H 0.85597 0.90996 0.04789 0.0
H526 H 0.9128 1.00729 0.0662 0.0
H527 H 0.96881 0.94024 0.07473 0.0
Co528 Co 0.68366 0.64038 0.84276 0.0
C529 C 0.68662 0.689 0.86522 0.0
C530 C 0.69633 0.65224 0.87877 0.0
C531 C 0.69521 0.67359 0.89024 0.0
N532 N 0.69127 0.66198 0.86301 0.0
N533 N 0.68903 0.69671 0.88167 0.0
H534 H 0.67967 0.70252 0.85533 0.0
H535 H 0.69949 0.63088 0.88181 0.0
C536 C 0.74069 0.62546 0.85363 0.0
O537 O 0.74537 0.65168 0.85595 0.0
N538 N 0.67482 0.61978 0.82242 0.0
C539 C 0.65761 0.62934 0.81039 0.0
C540 C 0.6567 0.61125 0.79714 0.0
C541 C 0.68454 0.59587 0.81617 0.0
N542 N 0.6735 0.59013 0.8007 0.0
C543 C 0.68772 0.6898 0.82302 0.0
C544 C 0.73655 0.67779 0.80702 0.0
C545 C 0.72246 0.70158 0.80225 0.0
C546 C 0.69771 0.70745 0.81046 0.0
C547 C 0.72562 0.66044 0.81949 0.0
N548 N 0.70188 0.66691 0.82782 0.0
H549 H 0.66786 0.6941 0.82836 0.0
H550 H 0.73572 0.64117 0.82166 0.0
H551 H 0.6469 0.64867 0.81095 0.0
H552 H 0.69932 0.5831 0.82269 0.0
O553 O 0.64654 0.65508 0.84285 0.0
O554 O 0.65965 0.61744 0.85613 0.0
O555 O 0.71811 0.61776 0.84681 0.0
C556 C 0.64004 0.63439 0.85247 0.0
H557 H 0.69802 0.67204 0.90387 0.0
H558 H 0.64514 0.61392 0.7855 0.0
H559 H 0.75526 0.67192 0.80059 0.0
H560 H 0.6859 0.72539 0.80703 0.0
Co561 Co 0.62817 0.42676 0.08533 0.0
C562 C 0.58087 0.42333 0.10832 0.0
C563 C 0.6131 0.44698 0.11963 0.0
C564 C 0.59076 0.44748 0.13033 0.0
N565 N 0.60673 0.43207 0.10574 0.0
N566 N 0.57059 0.43256 0.12317 0.0
H567 H 0.5694 0.41127 0.09923 0.0
H568 H 0.63234 0.45729 0.12177 0.0
C569 C 0.66288 0.48061 0.08451 0.0
O570 O 0.66367 0.48379 0.06792 0.0
N571 N 0.64862 0.42073 0.06441 0.0
C572 C 0.63779 0.40765 0.05089 0.0
C573 C 0.65669 0.40653 0.03811 0.0
C574 C 0.67466 0.42676 0.05973 0.0
N575 N 0.67992 0.41855 0.04354 0.0
C576 C 0.57911 0.42922 0.0652 0.0
C577 C 0.57993 0.48447 0.05798 0.0
C578 C 0.56037 0.46796 0.04989 0.0
C579 C 0.55963 0.44013 0.05405 0.0
C580 C 0.59878 0.47277 0.06934 0.0
N581 N 0.59926 0.44515 0.07214 0.0
H582 H 0.57839 0.40757 0.06778 0.0
H583 H 0.6127 0.48622 0.07577 0.0
H584 H 0.61747 0.39911 0.05027 0.0
H585 H 0.68948 0.43656 0.06795 0.0
O586 O 0.61557 0.38876 0.08434 0.0
O587 O 0.65275 0.40299 0.09762 0.0
O588 O 0.64895 0.46133 0.09126 0.0
C589 C 0.63677 0.38277 0.09371 0.0
H590 H 0.58936 0.45813 0.14238 0.0
H591 H 0.65328 0.39792 0.0256 0.0
H592 H 0.58059 0.50629 0.0556 0.0
H593 H 0.54471 0.42662 0.04826 0.0
Co594 Co 0.8374 0.39712 0.35508 0.0
C595 C 0.84331 0.33972 0.36789 0.0
C596 C 0.82129 0.36583 0.38508 0.0
C597 C 0.82392 0.3405 0.39245 0.0
N598 N 0.83333 0.36542 0.36969 0.0
N599 N 0.83789 0.32404 0.38175 0.0
H600 H 0.85499 0.33298 0.35698 0.0
H601 H 0.81178 0.38356 0.3908 0.0
C602 C 0.78255 0.42579 0.35711 0.0
O603 O 0.78265 0.43003 0.34061 0.0
N604 N 0.84145 0.43008 0.34091 0.0
C605 C 0.84809 0.45485 0.34729 0.0
C606 C 0.84835 0.47384 0.33444 0.0
C607 C 0.8373 0.43479 0.32402 0.0
N608 N 0.84145 0.4614 0.31974 0.0
C609 C 0.8363 0.36928 0.32298 0.0
C610 C 0.78343 0.34945 0.3253 0.0
C611 C 0.79899 0.34293 0.31085 0.0
C612 C 0.82578 0.35309 0.30982 0.0
C613 C 0.79458 0.36618 0.33805 0.0
N614 N 0.82047 0.37653 0.33657 0.0
H615 H 0.85718 0.37643 0.32214 0.0
H616 H 0.78261 0.37014 0.34932 0.0
H617 H 0.85211 0.4592 0.36054 0.0
H618 H 0.83021 0.41964 0.3151 0.0
O619 O 0.8758 0.38773 0.35138 0.0
O620 O 0.86024 0.4136 0.37231 0.0
O621 O 0.80153 0.41172 0.36407 0.0
C622 C 0.88109 0.4023 0.36489 0.0
H623 H 0.81617 0.33473 0.40484 0.0
H624 H 0.85337 0.49525 0.33594 0.0
H625 H 0.76281 0.34167 0.32675 0.0
H626 H 0.83876 0.34805 0.29911 0.0
Co627 Co 0.89416 0.58389 0.60346 0.0
C628 C 0.9415 0.5919 0.62625 0.0
C629 C 0.90697 0.57657 0.64009 0.0
C630 C 0.92863 0.57988 0.65126 0.0
N631 N 0.91522 0.58391 0.62439 0.0
N632 N 0.95037 0.58938 0.64246 0.0
H633 H 0.95384 0.59999 0.61605 0.0
H634 H 0.88668 0.56937 0.64323 0.0
C635 C 0.86163 0.5296 0.60481 0.0
O636 O 0.861 0.52683 0.58819 0.0
N637 N 0.8739 0.58471 0.58205 0.0
C638 C 0.88538 0.59122 0.56697 0.0
C639 C 0.86615 0.58949 0.55438 0.0
C640 C 0.84705 0.58045 0.57841 0.0
N641 N 0.84211 0.58244 0.56144 0.0
C642 C 0.94445 0.58078 0.58477 0.0
C643 C 0.94476 0.52524 0.57867 0.0
C644 C 0.96387 0.5418 0.57019 0.0
C645 C 0.9641 0.56977 0.57389 0.0
C646 C 0.9256 0.53711 0.58974 0.0
N647 N 0.9245 0.56486 0.59193 0.0
H648 H 0.94448 0.60263 0.58654 0.0
H649 H 0.91172 0.52374 0.59624 0.0
H650 H 0.90626 0.59753 0.56506 0.0
H651 H 0.83172 0.57532 0.58782 0.0
O652 O 0.90512 0.62167 0.59959 0.0
O653 O 0.86806 0.60894 0.61357 0.0
O654 O 0.87528 0.54909 0.61167 0.0
C655 C 0.88355 0.62874 0.60821 0.0
H656 H 0.92849 0.57521 0.66472 0.0
H657 H 0.86947 0.59369 0.54101 0.0
H658 H 0.94444 0.50333 0.57663 0.0
H659 H 0.97845 0.58344 0.56773 0.0
Co660 Co 0.68628 0.37812 0.68135 0.0
C661 C 0.67732 0.33145 0.65814 0.0
C662 C 0.69244 0.36649 0.64468 0.0
C663 C 0.68887 0.34535 0.63324 0.0
N664 N 0.68541 0.35762 0.6603 0.0
N665 N 0.67947 0.32328 0.64176 0.0
H666 H 0.66954 0.31876 0.66827 0.0
H667 H 0.69963 0.38687 0.64179 0.0
C668 C 0.74103 0.40977 0.67978 0.0
O669 O 0.74401 0.41018 0.6964 0.0
N670 N 0.68646 0.39809 0.7028 0.0
C671 C 0.68121 0.38661 0.71807 0.0
C672 C 0.68342 0.406 0.73051 0.0
C673 C 0.69049 0.425 0.70619 0.0
N674 N 0.68952 0.43007 0.72315 0.0
C675 C 0.68925 0.32743 0.69993 0.0
C676 C 0.74511 0.32612 0.70501 0.0
C677 C 0.72876 0.30722 0.71381 0.0
C678 C 0.70054 0.30749 0.71061 0.0
C679 C 0.73298 0.34559 0.69422 0.0
N680 N 0.70514 0.34723 0.69255 0.0
H681 H 0.6673 0.32784 0.69848 0.0
H682 H 0.74628 0.35927 0.6875 0.0
H683 H 0.67543 0.36567 0.72024 0.0
H684 H 0.69473 0.44029 0.69658 0.0
O685 O 0.64814 0.3681 0.68549 0.0
O686 O 0.66158 0.40484 0.67151 0.0
O687 O 0.72127 0.39645 0.67296 0.0
C688 C 0.64142 0.38994 0.67696 0.0
H689 H 0.69334 0.3461 0.61977 0.0
H690 H 0.68015 0.40278 0.74399 0.0
H691 H 0.76715 0.32604 0.70654 0.0
H692 H 0.68698 0.29328 0.71698 0.0
Co693 Co 0.88734 0.43434 0.92148 0.0
C694 C 0.9354 0.43519 0.89817 0.0
C695 C 0.89738 0.43628 0.88456 0.0
C696 C 0.91832 0.43254 0.87301 0.0
N697 N 0.90806 0.43779 0.9004 0.0
N698 N 0.94212 0.43202 0.88166 0.0
H699 H 0.95017 0.43358 0.90829 0.0
H700 H 0.87572 0.43618 0.8817 0.0
C701 C 0.87337 0.48919 0.90689 0.0
O702 O 0.89959 0.49213 0.90367 0.0
N703 N 0.86754 0.42977 0.94265 0.0
C704 C 0.87874 0.41758 0.95638 0.0
C705 C 0.86109 0.41966 0.96982 0.0
C706 C 0.84279 0.43897 0.94791 0.0
N707 N 0.83855 0.43313 0.96459 0.0
C708 C 0.93793 0.44159 0.93981 0.0
C709 C 0.92618 0.49242 0.95324 0.0
C710 C 0.95025 0.47918 0.95855 0.0
C711 C 0.956 0.45342 0.95153 0.0
C712 C 0.90853 0.47973 0.9416 0.0
N713 N 0.91477 0.45488 0.93458 0.0
H714 H 0.94208 0.42102 0.93553 0.0
H715 H 0.88919 0.4895 0.93906 0.0
H716 H 0.89873 0.4081 0.9567 0.0
H717 H 0.82857 0.45011 0.93991 0.0
O718 O 0.9017 0.39727 0.9238 0.0
O719 O 0.86356 0.40826 0.91029 0.0
O720 O 0.86516 0.4683 0.91536 0.0
C721 C 0.88075 0.38931 0.91479 0.0
H722 H 0.91619 0.4294 0.85943 0.0
H723 H 0.86442 0.41156 0.98248 0.0
H724 H 0.92055 0.51222 0.9583 0.0
H725 H 0.97369 0.44178 0.95561 0.0
Co726 Co 0.8334 0.62085 0.17102 0.0
C727 C 0.83931 0.67913 0.15988 0.0
C728 C 0.81817 0.65414 0.1416 0.0
C729 C 0.81958 0.68034 0.13537 0.0
N730 N 0.83021 0.65336 0.15703 0.0
N731 N 0.83285 0.69605 0.1468 0.0
H732 H 0.85011 0.68539 0.17127 0.0
H733 H 0.80921 0.63678 0.13516 0.0
C734 C 0.77935 0.59146 0.1663 0.0
O735 O 0.77858 0.58537 0.18257 0.0
N736 N 0.83656 0.58719 0.18451 0.0
C737 C 0.8405 0.56233 0.17746 0.0
C738 C 0.84185 0.54286 0.19006 0.0
C739 C 0.83517 0.5822 0.20152 0.0
N740 N 0.8385 0.5553 0.20521 0.0
C741 C 0.83024 0.64794 0.20317 0.0
C742 C 0.77704 0.6666 0.20033 0.0
C743 C 0.79223 0.6735 0.2149 0.0
C744 C 0.81916 0.6639 0.21619 0.0
C745 C 0.7888 0.65004 0.18769 0.0
N746 N 0.8149 0.6403 0.18942 0.0
H747 H 0.85131 0.64148 0.20425 0.0
H748 H 0.77717 0.64589 0.17629 0.0
H749 H 0.84192 0.55844 0.16395 0.0
H750 H 0.83177 0.59751 0.21112 0.0
O751 O 0.87112 0.63033 0.17634 0.0
O752 O 0.85794 0.60548 0.15429 0.0
O753 O 0.79842 0.60663 0.16048 0.0
C754 C 0.87786 0.61671 0.16274 0.0
H755 H 0.8119 0.68723 0.12316 0.0
H756 H 0.84449 0.52109 0.18816 0.0
H757 H 0.75631 0.67402 0.19868 0.0
H758 H 0.8319 0.66932 0.22697 0.0
Co759 Co 0.63429 0.59015 0.43951 0.0
C760 C 0.58751 0.58922 0.41523 0.0
C761 C 0.62533 0.58031 0.40272 0.0
C762 C 0.60476 0.58136 0.39063 0.0
N763 N 0.61439 0.58485 0.41822 0.0
N764 N 0.58097 0.58692 0.3986 0.0
H765 H 0.57307 0.59556 0.42469 0.0
H766 H 0.6469 0.57709 0.40031 0.0
C767 C 0.647 0.53366 0.42765 0.0
O768 O 0.62058 0.53041 0.42515 0.0
N769 N 0.65331 0.59663 0.46079 0.0
C770 C 0.64242 0.61189 0.47335 0.0
C771 C 0.66002 0.61225 0.48689 0.0
C772 C 0.67757 0.58758 0.46697 0.0
N773 N 0.6822 0.59711 0.48297 0.0
C774 C 0.58229 0.5852 0.45647 0.0
C775 C 0.59325 0.53643 0.47282 0.0
C776 C 0.56803 0.54931 0.47591 0.0
C777 C 0.56274 0.57405 0.46743 0.0
C778 C 0.61197 0.54802 0.46146 0.0
N779 N 0.60602 0.57163 0.45286 0.0
H780 H 0.57864 0.60538 0.4514 0.0
H781 H 0.63185 0.5386 0.46036 0.0
H782 H 0.62268 0.62184 0.4728 0.0
H783 H 0.6915 0.57456 0.45997 0.0
O784 O 0.62072 0.62762 0.44003 0.0
O785 O 0.65924 0.61414 0.42782 0.0
O786 O 0.65574 0.55523 0.43516 0.0
C787 C 0.64256 0.634 0.43139 0.0
H788 H 0.60723 0.57858 0.37706 0.0
H789 H 0.65643 0.62244 0.49891 0.0
H790 H 0.59914 0.5181 0.47963 0.0
H791 H 0.54385 0.58517 0.46941 0.0
Co792 Co 0.3314 0.40002 0.16788 0.0
C793 C 0.34199 0.34372 0.15511 0.0
C794 C 0.32312 0.36963 0.13636 0.0
C795 C 0.32862 0.34474 0.12901 0.0
N796 N 0.33145 0.36899 0.15269 0.0
N797 N 0.34058 0.32848 0.14075 0.0
H798 H 0.35137 0.33703 0.16689 0.0
H799 H 0.31434 0.38726 0.13008 0.0
C800 C 0.27578 0.42572 0.16358 0.0
O801 O 0.27419 0.42904 0.18014 0.0
N802 N 0.33132 0.43225 0.18255 0.0
C803 C 0.33076 0.45801 0.17639 0.0
C804 C 0.32899 0.47614 0.18969 0.0
C805 C 0.33011 0.43522 0.1997 0.0
N806 N 0.3285 0.46183 0.20434 0.0
C807 C 0.32895 0.3694 0.19867 0.0
C808 C 0.27605 0.35019 0.19553 0.0
C809 C 0.29125 0.34321 0.21009 0.0
C810 C 0.31818 0.35275 0.21138 0.0
C811 C 0.28766 0.36721 0.18307 0.0
N812 N 0.31345 0.37759 0.18512 0.0
H813 H 0.34983 0.37629 0.20002 0.0
H814 H 0.27603 0.37157 0.1717 0.0
H815 H 0.33095 0.46326 0.16302 0.0
H816 H 0.32958 0.41868 0.20872 0.0
O817 O 0.36915 0.39244 0.17383 0.0
O818 O 0.35595 0.4189 0.15249 0.0
O819 O 0.29601 0.41283 0.15713 0.0
C820 C 0.37591 0.40791 0.16106 0.0
H821 H 0.32426 0.33911 0.11596 0.0
H822 H 0.32825 0.49821 0.18863 0.0
H823 H 0.25535 0.34274 0.19381 0.0
H824 H 0.33106 0.34713 0.22205 0.0
Co825 Co 0.37703 0.57819 0.91462 0.0
C826 C 0.43322 0.58794 0.90114 0.0
C827 C 0.40755 0.56576 0.88371 0.0
C828 C 0.43212 0.57094 0.87588 0.0
N829 N 0.40819 0.57636 0.89952 0.0
N830 N 0.44823 0.58499 0.88677 0.0
H831 H 0.4398 0.59926 0.91225 0.0
H832 H 0.39003 0.55578 0.87802 0.0
C833 C 0.35124 0.52248 0.91279 0.0
O834 O 0.34949 0.52259 0.92947 0.0
N835 N 0.34447 0.57995 0.92901 0.0
C836 C 0.31902 0.57904 0.92233 0.0
C837 C 0.30013 0.57885 0.93522 0.0
C838 C 0.34051 0.58051 0.94611 0.0
N839 N 0.31358 0.57967 0.95018 0.0
C840 C 0.40637 0.57615 0.94617 0.0
C841 C 0.42771 0.52413 0.94262 0.0
C842 C 0.43387 0.53905 0.95741 0.0
C843 C 0.42309 0.56548 0.95899 0.0
C844 C 0.41041 0.53547 0.93019 0.0
N845 N 0.39902 0.56078 0.93239 0.0
H846 H 0.39911 0.59692 0.94742 0.0
H847 H 0.40671 0.52406 0.91865 0.0
H848 H 0.31447 0.57793 0.90888 0.0
H849 H 0.35653 0.58071 0.95553 0.0
O850 O 0.38549 0.61621 0.91951 0.0
O851 O 0.3589 0.60212 0.89845 0.0
O852 O 0.36321 0.54219 0.9051 0.0
C853 C 0.37022 0.62244 0.90649 0.0
H854 H 0.43759 0.56509 0.86304 0.0
H855 H 0.27811 0.5783 0.93366 0.0
H856 H 0.43612 0.50387 0.94069 0.0
H857 H 0.42806 0.5781 0.9699 0.0
Co858 Co 0.18794 0.64139 0.68522 0.0
C859 C 0.17567 0.68547 0.66058 0.0
C860 C 0.20017 0.654 0.64918 0.0
C861 C 0.19604 0.67447 0.63736 0.0
N862 N 0.18769 0.66112 0.66382 0.0
N863 N 0.18062 0.69419 0.64457 0.0
H864 H 0.16406 0.69696 0.66983 0.0
H865 H 0.21166 0.63538 0.6472 0.0
C866 C 0.24048 0.60698 0.68519 0.0
O867 O 0.24007 0.60408 0.70178 0.0
N868 N 0.18736 0.62221 0.70698 0.0
C869 C 0.18739 0.63423 0.72245 0.0
C870 C 0.18712 0.61449 0.73479 0.0
C871 C 0.18581 0.59501 0.71024 0.0
N872 N 0.18644 0.58984 0.72719 0.0
C873 C 0.19092 0.69366 0.70179 0.0
C874 C 0.24588 0.69233 0.70995 0.0
C875 C 0.22946 0.71281 0.71717 0.0
C876 C 0.20182 0.71385 0.71242 0.0
C877 C 0.23419 0.67255 0.69928 0.0
N878 N 0.20669 0.6725 0.69597 0.0
H879 H 0.16922 0.69411 0.6993 0.0
H880 H 0.24745 0.65706 0.69426 0.0
H881 H 0.1875 0.65588 0.72491 0.0
H882 H 0.18554 0.5794 0.70048 0.0
O883 O 0.14997 0.65183 0.68902 0.0
O884 O 0.16343 0.61451 0.67555 0.0
O885 O 0.22332 0.62276 0.6777 0.0
C886 C 0.14331 0.62972 0.68077 0.0
H887 H 0.20383 0.67483 0.62447 0.0
H888 H 0.18728 0.61803 0.74839 0.0
H889 H 0.26755 0.69121 0.71279 0.0
H890 H 0.18822 0.72919 0.71764 0.0
Co891 Co 0.1459 0.44498 0.43064 0.0
C892 C 0.08918 0.43625 0.417 0.0
C893 C 0.11474 0.45982 0.40027 0.0
C894 C 0.08928 0.45752 0.39299 0.0
N895 N 0.11467 0.44685 0.4154 0.0
N896 N 0.07325 0.44271 0.40344 0.0
H897 H 0.08233 0.42453 0.42789 0.0
H898 H 0.13215 0.4702 0.39478 0.0
C899 C 0.17234 0.50078 0.42823 0.0
O900 O 0.17611 0.50136 0.44478 0.0
N901 N 0.17834 0.44343 0.44528 0.0
C902 C 0.20401 0.44344 0.43896 0.0
C903 C 0.2225 0.44465 0.4521 0.0
C904 C 0.18178 0.44457 0.46244 0.0
N905 N 0.2086 0.44546 0.46688 0.0
C906 C 0.1157 0.44415 0.46156 0.0
C907 C 0.09497 0.49665 0.4601 0.0
C908 C 0.08732 0.47969 0.47376 0.0
C909 C 0.09811 0.45314 0.47432 0.0
C910 C 0.11288 0.4868 0.44753 0.0
N911 N 0.12361 0.46103 0.44863 0.0
H912 H 0.12341 0.42349 0.46229 0.0
H913 H 0.1174 0.49964 0.43672 0.0
H914 H 0.20903 0.44342 0.42556 0.0
H915 H 0.16544 0.4458 0.47158 0.0
O916 O 0.13835 0.40664 0.43494 0.0
O917 O 0.16464 0.42228 0.41419 0.0
O918 O 0.15891 0.48125 0.4214 0.0
C919 C 0.15397 0.40138 0.42196 0.0
H920 H 0.08305 0.46582 0.3808 0.0
H921 H 0.24457 0.44495 0.45085 0.0
H922 H 0.08662 0.51708 0.45886 0.0
H923 H 0.09319 0.43929 0.48463 0.0
Co924 Co 0.34809 0.63335 0.34404 0.0
C925 C 0.34664 0.68584 0.36331 0.0
C926 C 0.33735 0.65147 0.3792 0.0
C927 C 0.33729 0.67477 0.38908 0.0
N928 N 0.34274 0.65848 0.36295 0.0
N929 N 0.34315 0.69643 0.37906 0.0
H930 H 0.35309 0.69772 0.35253 0.0
H931 H 0.3339 0.63077 0.38358 0.0
C932 C 0.29074 0.62491 0.3564 0.0
O933 O 0.28814 0.65165 0.35713 0.0
N934 N 0.35452 0.6087 0.3251 0.0
C935 C 0.37447 0.61246 0.31347 0.0
C936 C 0.37376 0.59152 0.30194 0.0
C937 C 0.34135 0.58562 0.32016 0.0
N938 N 0.35305 0.57467 0.30609 0.0
C939 C 0.34638 0.67991 0.32168 0.0
C940 C 0.29474 0.67073 0.3085 0.0
C941 C 0.30958 0.69345 0.30281 0.0
C942 C 0.33592 0.69769 0.30933 0.0
C943 C 0.30621 0.65314 0.32061 0.0
N944 N 0.33114 0.65864 0.32781 0.0
H945 H 0.36698 0.68324 0.32621 0.0
H946 H 0.29518 0.63473 0.32368 0.0
H947 H 0.38847 0.62957 0.31316 0.0
H948 H 0.32378 0.57703 0.3266 0.0
O949 O 0.38606 0.64538 0.34287 0.0
O950 O 0.37094 0.61087 0.35842 0.0
O951 O 0.31227 0.61433 0.3498 0.0
C952 C 0.39155 0.6256 0.35343 0.0
H953 H 0.33331 0.67556 0.40261 0.0
H954 H 0.38695 0.58924 0.29096 0.0
H955 H 0.27477 0.6661 0.30322 0.0
H956 H 0.3483 0.71469 0.30498 0.0
Co957 Co 0.13554 0.60587 0.0873 0.0
C958 C 0.08365 0.60431 0.10668 0.0
C959 C 0.11697 0.58696 0.1209 0.0
C960 C 0.09379 0.58633 0.13084 0.0
N961 N 0.11055 0.5981 0.10575 0.0
N962 N 0.07281 0.59731 0.12193 0.0
H963 H 0.0725 0.61432 0.09653 0.0
H964 H 0.13718 0.58015 0.12459 0.0
C965 C 0.16226 0.54837 0.0874 0.0
O966 O 0.15469 0.54207 0.07183 0.0
N967 N 0.16109 0.61453 0.06874 0.0
C968 C 0.1612 0.63823 0.05982 0.0
C969 C 0.18223 0.63799 0.04834 0.0
C970 C 0.18267 0.60027 0.0624 0.0
N971 N 0.19577 0.61418 0.04991 0.0
C972 C 0.10306 0.60054 0.05714 0.0
C973 C 0.08221 0.54904 0.06368 0.0
C974 C 0.07448 0.5624 0.04859 0.0
C975 C 0.085 0.58861 0.04552 0.0
C976 C 0.10014 0.56193 0.07513 0.0
N977 N 0.11112 0.58698 0.07148 0.0
H978 H 0.11024 0.62101 0.05469 0.0
H979 H 0.1052 0.55174 0.08693 0.0
H980 H 0.14677 0.6548 0.06123 0.0
H981 H 0.18931 0.58056 0.06691 0.0
O982 O 0.12011 0.64251 0.08598 0.0
O983 O 0.15559 0.63042 0.10191 0.0
O984 O 0.15662 0.57177 0.09373 0.0
C985 C 0.13909 0.64962 0.09682 0.0
H986 H 0.09258 0.5783 0.14365 0.0
H987 H 0.18679 0.65391 0.03918 0.0
H988 H 0.07406 0.52905 0.06678 0.0
H989 H 0.07947 0.59982 0.03412 0.0
Co990 Co 0.17758 0.36977 0.83951 0.0
C991 C 0.17707 0.32358 0.86451 0.0
C992 C 0.18583 0.36203 0.87634 0.0
C993 C 0.18444 0.34223 0.88882 0.0
N994 N 0.18158 0.35029 0.86103 0.0
N995 N 0.17895 0.31803 0.88132 0.0
H996 H 0.17119 0.30856 0.85524 0.0
H997 H 0.18923 0.38367 0.87834 0.0
C998 C 0.23419 0.38237 0.85196 0.0
O999 O 0.23709 0.35619 0.85531 0.0
N1000 N 0.17269 0.38878 0.81815 0.0
C1001 C 0.15993 0.37782 0.80456 0.0
C1002 C 0.16091 0.39607 0.79134 0.0
C1003 C 0.18118 0.41378 0.81308 0.0
N1004 N 0.17431 0.41865 0.79662 0.0
C1005 C 0.18301 0.31719 0.82323 0.0
C1006 C 0.23234 0.32752 0.80738 0.0
C1007 C 0.21942 0.30232 0.80431 0.0
C1008 C 0.1944 0.29735 0.81254 0.0
C1009 C 0.22044 0.3466 0.81839 0.0
N1010 N 0.19648 0.34104 0.8267 0.0
H1011 H 0.16272 0.31371 0.82816 0.0
H1012 H 0.22991 0.36645 0.81942 0.0
H1013 H 0.15064 0.35775 0.80426 0.0
H1014 H 0.19244 0.42784 0.8211 0.0
O1015 O 0.13987 0.35695 0.83789 0.0
O1016 O 0.15324 0.39506 0.85068 0.0
O1017 O 0.21258 0.39083 0.84434 0.0
C1018 C 0.13333 0.37884 0.84643 0.0
H1019 H 0.1871 0.34546 0.90234 0.0
H1020 H 0.15206 0.39308 0.77884 0.0
H1021 H 0.25095 0.33309 0.80077 0.0
H1022 H 0.18327 0.27847 0.81055 0.0
Co1023 Co 0.38324 0.42875 0.60672 0.0
C1024 C 0.436 0.43029 0.62588 0.0
C1025 C 0.40201 0.4417 0.64152 0.0
C1026 C 0.42514 0.44022 0.65159 0.0
N1027 N 0.40883 0.43583 0.62531 0.0
N1028 N 0.44655 0.43295 0.64174 0.0
H1029 H 0.44761 0.42264 0.61526 0.0
H1030 H 0.38139 0.44571 0.64587 0.0
C1031 C 0.3699 0.4859 0.61865 0.0
O1032 O 0.3962 0.49151 0.61921 0.0
N1033 N 0.35818 0.4206 0.58802 0.0
C1034 C 0.36105 0.39912 0.57736 0.0
C1035 C 0.3403 0.39942 0.56563 0.0
C1036 C 0.3358 0.43421 0.5822 0.0
N1037 N 0.3244 0.42136 0.56861 0.0
C1038 C 0.42894 0.43321 0.58406 0.0
C1039 C 0.41631 0.48388 0.57059 0.0
C1040 C 0.43963 0.47018 0.56473 0.0
C1041 C 0.44566 0.44437 0.57144 0.0
C1042 C 0.39975 0.47166 0.58299 0.0
N1043 N 0.40687 0.44721 0.59024 0.0
H1044 H 0.43361 0.41292 0.58859 0.0
H1045 H 0.3808 0.48164 0.5862 0.0
H1046 H 0.37743 0.3843 0.57772 0.0
H1047 H 0.32804 0.45298 0.58766 0.0
O1048 O 0.39784 0.3918 0.60539 0.0
O1049 O 0.36291 0.40441 0.62141 0.0
O1050 O 0.36167 0.46294 0.61269 0.0
C1051 C 0.37885 0.3849 0.61616 0.0
H1052 H 0.42593 0.44364 0.66519 0.0
H1053 H 0.33758 0.38503 0.55529 0.0
H1054 H 0.41041 0.50342 0.56521 0.0
H1055 H 0.46319 0.43287 0.56696 0.0
H1056 H 0.22797 0.24474 0.39691 0.0
H1057 H 0.14451 0.23758 0.37943 0.0
H1058 H 0.21834 0.29092 0.40742 0.0
H1059 H 0.13476 0.28369 0.39008 0.0
H1060 H 0.12476 0.35525 0.42938 0.0
H1061 H 0.13393 0.30844 0.41976 0.0
H1062 H 0.20507 0.33688 0.39248 0.0
H1063 H 0.1957 0.38369 0.40182 0.0
C1064 C 0.20752 0.25297 0.39548 0.0
C1065 C 0.18699 0.23764 0.38735 0.0
C1066 C 0.20206 0.27941 0.40137 0.0
C1067 C 0.17582 0.29083 0.39954 0.0
C1068 C 0.15512 0.2753 0.39173 0.0
C1069 C 0.16073 0.24905 0.38555 0.0
C1070 C 0.14235 0.35147 0.42134 0.0
C1071 C 0.15951 0.37308 0.41633 0.0
C1072 C 0.14751 0.32475 0.41579 0.0
C1073 C 0.17023 0.3191 0.40542 0.0
C1074 C 0.18753 0.34067 0.40057 0.0
C1075 C 0.18208 0.36744 0.40584 0.0
H1076 H 0.05735 0.93053 0.65683 0.0
H1077 H 0.02616 0.93006 0.60539 0.0
H1078 H 0.01117 0.92365 0.6677 0.0
H1079 H 0.97996 0.92243 0.61626 0.0
H1080 H 0.89789 0.93918 0.64215 0.0
H1081 H 0.94438 0.9469 0.63201 0.0
H1082 H 0.97496 0.889 0.66897 0.0
H1083 H 0.92831 0.88146 0.67926 0.0
C1084 C 0.04065 0.92904 0.64782 0.0
C1085 C 0.04554 0.93102 0.6302 0.0
C1086 C 0.01416 0.92478 0.65407 0.0
C1087 C 0.99177 0.92253 0.64289 0.0
C1088 C 0.99666 0.92438 0.62526 0.0
C1089 C 0.0232 0.92847 0.619 0.0
C1090 C 0.91453 0.92823 0.64822 0.0
C1091 C 0.90936 0.90971 0.66154 0.0
C1092 C 0.94119 0.93249 0.64229 0.0
C1093 C 0.96345 0.91843 0.64956 0.0
C1094 C 0.95834 0.90034 0.66315 0.0
C1095 C 0.9316 0.89597 0.66904 0.0
H1096 H 0.40151 0.66709 0.91434 0.0
H1097 H 0.32958 0.64266 0.8862 0.0
H1098 H 0.39416 0.71465 0.90554 0.0
H1099 H 0.32197 0.69026 0.8777 0.0
H1100 H 0.30124 0.78269 0.88992 0.0
H1101 H 0.30996 0.73415 0.89528 0.0
H1102 H 0.39261 0.74376 0.87688 0.0
H1103 H 0.38354 0.79249 0.8712 0.0
C1104 C 0.38415 0.67188 0.90628 0.0
C1105 C 0.36605 0.65117 0.90102 0.0
C1106 C 0.38008 0.69905 0.90114 0.0
C1107 C 0.35752 0.70612 0.89091 0.0
C1108 C 0.33949 0.68539 0.88561 0.0
C1109 C 0.34387 0.65816 0.89046 0.0
C1110 C 0.32116 0.77433 0.88687 0.0
C1111 C 0.34173 0.79126 0.88016 0.0
C1112 C 0.32612 0.74657 0.88986 0.0
C1113 C 0.35198 0.73521 0.88655 0.0
C1114 C 0.37253 0.75205 0.87962 0.0
C1115 C 0.36732 0.77978 0.87625 0.0
H1116 H 0.59179 0.16207 0.18938 0.0
H1117 H 0.6213 0.08658 0.16755 0.0
H1118 H 0.54493 0.14968 0.18123 0.0
H1119 H 0.5748 0.07406 0.15974 0.0
H1120 H 0.49591 0.07697 0.12886 0.0
H1121 H 0.54141 0.08852 0.13911 0.0
H1122 H 0.50677 0.11759 0.18631 0.0
H1123 H 0.46084 0.10673 0.17572 0.0
C1124 C 0.58826 0.14274 0.18302 0.0
C1125 C 0.61033 0.12543 0.17901 0.0
C1126 C 0.56139 0.13556 0.17841 0.0
C1127 C 0.55605 0.11096 0.16967 0.0
C1128 C 0.57813 0.09339 0.16614 0.0
C1129 C 0.60485 0.10054 0.17072 0.0
C1130 C 0.4979 0.08593 0.1414 0.0
C1131 C 0.4746 0.09101 0.15141 0.0
C1132 C 0.52409 0.09231 0.14738 0.0
C1133 C 0.52788 0.10395 0.16359 0.0
C1134 C 0.50462 0.10886 0.17371 0.0
C1135 C 0.4783 0.10234 0.16772 0.0
H1136 H 0.10207 0.69182 0.09572 0.0
H1137 H 0.18508 0.67225 0.1103 0.0
H1138 H 0.10923 0.73928 0.10504 0.0
H1139 H 0.19231 0.71956 0.1192 0.0
H1140 H 0.20264 0.81323 0.11573 0.0
H1141 H 0.19314 0.76758 0.10417 0.0
H1142 H 0.12005 0.7627 0.1348 0.0
H1143 H 0.12978 0.80817 0.14649 0.0
C1144 C 0.12182 0.69767 0.10084 0.0
C1145 C 0.14297 0.67832 0.10235 0.0
C1146 C 0.12589 0.72476 0.10619 0.0
C1147 C 0.15137 0.73309 0.11274 0.0
C1148 C 0.17256 0.71377 0.11404 0.0
C1149 C 0.16833 0.68665 0.10906 0.0
C1150 C 0.18437 0.80253 0.11978 0.0
C1151 C 0.16702 0.81415 0.13204 0.0
C1152 C 0.17903 0.77639 0.11327 0.0
C1153 C 0.1559 0.76161 0.11864 0.0
C1154 C 0.13795 0.77369 0.13039 0.0
C1155 C 0.1436 0.79959 0.13715 0.0
H1156 H 0.4962 0.92711 0.40863 0.0
H1157 H 0.46611 0.90318 0.3592 0.0
H1158 H 0.54275 0.91387 0.40007 0.0
H1159 H 0.51215 0.89061 0.35053 0.0
H1160 H 0.59497 0.85039 0.34371 0.0
H1161 H 0.54907 0.85831 0.35498 0.0
H1162 H 0.57773 0.93139 0.38024 0.0
H1163 H 0.62365 0.92327 0.36917 0.0
C1164 C 0.4995 0.91869 0.39605 0.0
C1165 C 0.47759 0.91643 0.38454 0.0
C1166 C 0.52613 0.91138 0.39106 0.0
C1167 C 0.53126 0.90134 0.37454 0.0
C1168 C 0.50904 0.89804 0.36336 0.0
C1169 C 0.48263 0.90551 0.36828 0.0
C1170 C 0.59146 0.86817 0.35165 0.0
C1171 C 0.61293 0.88631 0.35541 0.0
C1172 C 0.56514 0.87272 0.35812 0.0
C1173 C 0.55966 0.89549 0.36856 0.0
C1174 C 0.58126 0.91345 0.37246 0.0
C1175 C 0.60754 0.90894 0.36594 0.0
H1176 H 0.33409 0.23028 0.66507 0.0
H1177 H 0.3531 0.21011 0.61288 0.0
H1178 H 0.34648 0.27784 0.65964 0.0
H1179 H 0.36434 0.25766 0.6073 0.0
H1180 H 0.40778 0.33965 0.60639 0.0
H1181 H 0.39844 0.29196 0.61358 0.0
H1182 H 0.32978 0.31745 0.64435 0.0
H1183 H 0.33951 0.36507 0.63748 0.0
C1184 C 0.3409 0.23593 0.65245 0.0
C1185 C 0.3425 0.21626 0.63943 0.0
C1186 C 0.34777 0.26328 0.64929 0.0
C1187 C 0.35645 0.27163 0.63303 0.0
C1188 C 0.35809 0.25194 0.62003 0.0
C1189 C 0.35123 0.22465 0.62318 0.0
C1190 C 0.39085 0.33506 0.61481 0.0
C1191 C 0.37437 0.35613 0.62134 0.0
C1192 C 0.38536 0.30772 0.61884 0.0
C1193 C 0.36324 0.30081 0.62948 0.0
C1194 C 0.34715 0.32199 0.63629 0.0
C1195 C 0.35265 0.34932 0.63227 0.0
H1196 H 0.90438 0.07933 0.88045 0.0
H1197 H 0.93237 0.14379 0.84718 0.0
H1198 H 0.95116 0.07131 0.88984 0.0
H1199 H 0.97929 0.1365 0.85704 0.0
H1200 H 0.06407 0.10012 0.86747 0.0
H1201 H 0.01774 0.1063 0.85658 0.0
H1202 H 0.98542 0.09106 0.90686 0.0
H1203 H 0.03128 0.08328 0.91745 0.0
C1204 C 0.92055 0.09194 0.87522 0.0
C1205 C 0.91464 0.11227 0.86312 0.0
C1206 C 0.94743 0.08745 0.88068 0.0
C1207 C 0.96915 0.10339 0.87434 0.0
C1208 C 0.96322 0.12359 0.86208 0.0
C1209 C 0.93628 0.12791 0.85649 0.0
C1210 C 0.04711 0.09775 0.87617 0.0
C1211 C 0.0517 0.09125 0.89341 0.0
C1212 C 0.02046 0.10165 0.86995 0.0
C1213 C 0.99767 0.09922 0.8808 0.0
C1214 C 1.00231 0.09273 0.89801 0.0
C1215 C 0.02885 0.08866 0.90418 0.0
H1216 H 0.81573 0.79244 0.6189 0.0
H1217 H 0.88651 0.79308 0.65178 0.0
H1218 H 0.82498 0.74478 0.61141 0.0
H1219 H 0.89605 0.74526 0.64411 0.0
H1220 H 0.91886 0.67214 0.60756 0.0
H1221 H 0.90962 0.71952 0.61599 0.0
H1222 H 0.82584 0.69808 0.62708 0.0
H1223 H 0.83514 0.65064 0.61896 0.0
C1224 C 0.83332 0.78236 0.62449 0.0
C1225 C 0.85046 0.79649 0.63588 0.0
C1226 C 0.83851 0.75505 0.62028 0.0
C1227 C 0.86127 0.74132 0.62713 0.0
C1228 C 0.87845 0.7554 0.63856 0.0
C1229 C 0.87291 0.78263 0.64304 0.0
C1230 C 0.89844 0.67758 0.61174 0.0
C1231 C 0.87769 0.65768 0.61254 0.0
C1232 C 0.89324 0.70463 0.61669 0.0
C1233 C 0.86703 0.71247 0.62224 0.0
C1234 C 0.8462 0.69265 0.62281 0.0
C1235 C 0.85153 0.6655 0.61817 0.0
H1236 H 0.99831 0.09602 0.40952 0.0
H1237 H 0.97117 0.11364 0.35839 0.0
H1238 H 0.04459 0.11137 0.402 0.0
H1239 H 0.0171 0.12831 0.35078 0.0
H1240 H 0.09736 0.17347 0.34546 0.0
H1241 H 0.05124 0.16389 0.35586 0.0
H1242 H 0.08199 0.09404 0.38364 0.0
H1243 H 0.1281 0.10381 0.37343 0.0
C1244 C 1.00218 0.10343 0.39676 0.0
C1245 C 0.98123 0.10335 0.3845 0.0
C1246 C 0.02867 0.11199 0.3924 0.0
C1247 C 0.03455 0.12095 0.37576 0.0
C1248 C 0.01327 0.12176 0.36374 0.0
C1249 C 0.98699 0.11305 0.36804 0.0
C1250 C 0.09428 0.15614 0.35384 0.0
C1251 C 0.11633 0.13927 0.35851 0.0
C1252 C 0.06786 0.15062 0.35978 0.0
C1253 C 0.06293 0.12817 0.37057 0.0
C1254 C 0.08513 0.11168 0.37553 0.0
C1255 C 0.11152 0.11714 0.36954 0.0
H1256 H 0.67596 0.24766 0.16095 0.0
H1257 H 0.65934 0.20731 0.11316 0.0
H1258 H 0.66539 0.29167 0.14798 0.0
H1259 H 0.6494 0.25158 0.10003 0.0
H1260 H 0.6076 0.33541 0.08797 0.0
H1261 H 0.61594 0.29011 0.10041 0.0
H1262 H 0.68642 0.32206 0.12704 0.0
H1263 H 0.67804 0.36698 0.11481 0.0
C1264 C 0.66988 0.24811 0.1477 0.0
C1265 C 0.66858 0.22384 0.13812 0.0
C1266 C 0.66409 0.27343 0.1402 0.0
C1267 C 0.65671 0.27524 0.12291 0.0
C1268 C 0.65487 0.25094 0.11339 0.0
C1269 C 0.66085 0.22557 0.12088 0.0
C1270 C 0.62492 0.33266 0.09642 0.0
C1271 C 0.6421 0.35484 0.10041 0.0
C1272 C 0.62976 0.30671 0.10351 0.0
C1273 C 0.65173 0.30247 0.11485 0.0
C1274 C 0.66904 0.32464 0.11861 0.0
C1275 C 0.66432 0.35041 0.11148 0.0
H1276 H 0.42828 0.87552 0.84952 0.0
H1277 H 0.40173 0.93799 0.88462 0.0
H1278 H 0.47582 0.88384 0.85769 0.0
H1279 H 0.44912 0.94713 0.89232 0.0
H1280 H 0.53267 0.93741 0.91631 0.0
H1281 H 0.48597 0.92886 0.90756 0.0
H1282 H 0.51329 0.91471 0.85603 0.0
H1283 H 0.56055 0.92162 0.86507 0.0
C1284 C 0.43262 0.89115 0.85891 0.0
C1285 C 0.4112 0.90595 0.86651 0.0
C1286 C 0.45993 0.8961 0.86352 0.0
C1287 C 0.46653 0.91614 0.87574 0.0
C1288 C 0.44498 0.93114 0.88314 0.0
C1289 C 0.41771 0.926 0.87866 0.0
C1290 C 0.52897 0.93213 0.90314 0.0
C1291 C 0.55075 0.92995 0.89149 0.0
C1292 C 0.50192 0.92761 0.89803 0.0
C1293 C 0.4956 0.9211 0.88103 0.0
C1294 C 0.51729 0.9193 0.86928 0.0
C1295 C 0.54448 0.92363 0.87444 0.0
H1296 H 0.84702 0.23902 0.85729 0.0
H1297 H 0.8644 0.21294 0.90862 0.0
H1298 H 0.85751 0.28643 0.86536 0.0
H1299 H 0.87434 0.25991 0.91676 0.0
H1300 H 0.91209 0.34459 0.92298 0.0
H1301 H 0.90659 0.29756 0.91291 0.0
H1302 H 0.83622 0.32214 0.88328 0.0
H1303 H 0.84186 0.36907 0.89321 0.0
C1304 C 0.85337 0.24337 0.87021 0.0
C1305 C 0.85462 0.22228 0.88234 0.0
C1306 C 0.85913 0.27052 0.8749 0.0
C1307 C 0.86663 0.27705 0.89176 0.0
C1308 C 0.86884 0.2557 0.90366 0.0
C1309 C 0.86286 0.22876 0.89903 0.0
C1310 C 0.89544 0.33993 0.91433 0.0
C1311 C 0.87731 0.36057 0.90902 0.0
C1312 C 0.89225 0.31297 0.90856 0.0
C1313 C 0.87097 0.30601 0.89724 0.0
C1314 C 0.85305 0.32678 0.89179 0.0
C1315 C 0.85613 0.35367 0.89764 0.0
H1316 H 0.52983 0.0889 0.60043 0.0
H1317 H 0.5576 0.09576 0.65249 0.0
H1318 H 0.48311 0.09834 0.60957 0.0
H1319 H 0.51082 0.10407 0.66169 0.0
H1320 H 0.42809 0.14391 0.67099 0.0
H1321 H 0.4748 0.13801 0.66059 0.0
H1322 H 0.44649 0.07652 0.6252 0.0
H1323 H 0.39979 0.08287 0.63534 0.0
C1324 C 0.52603 0.09248 0.61381 0.0
C1325 C 0.54758 0.0915 0.6257 0.0
C1326 C 0.49916 0.09762 0.61908 0.0
C1327 C 0.49315 0.10195 0.63638 0.0
C1328 C 0.51472 0.10115 0.64825 0.0
C1329 C 0.54156 0.096 0.64298 0.0
C1330 C 0.43184 0.12928 0.66091 0.0
C1331 C 0.41027 0.11381 0.65402 0.0
C1332 C 0.45863 0.12576 0.65502 0.0
C1333 C 0.46447 0.10668 0.64211 0.0
C1334 C 0.44274 0.09161 0.63502 0.0
C1335 C 0.41596 0.09515 0.6409 0.0
H1336 H 0.60728 0.67764 0.43004 0.0
H1337 H 0.69061 0.65386 0.41917 0.0
H1338 H 0.61676 0.72356 0.41888 0.0
H1339 H 0.70002 0.6995 0.40818 0.0
H1340 H 0.71449 0.79169 0.40593 0.0
H1341 H 0.70328 0.74783 0.41909 0.0
H1342 H 0.62844 0.74428 0.38987 0.0
H1343 H 0.63957 0.78836 0.3768 0.0
C1344 C 0.62762 0.68228 0.4254 0.0
C1345 C 0.6482 0.66217 0.42548 0.0
C1346 C 0.633 0.70847 0.41893 0.0
C1347 C 0.65915 0.71512 0.41269 0.0
C1348 C 0.67977 0.69509 0.41306 0.0
C1349 C 0.67431 0.6689 0.41928 0.0
C1350 C 0.69552 0.7817 0.40245 0.0
C1351 C 0.67798 0.79343 0.39028 0.0
C1352 C 0.68919 0.7565 0.40989 0.0
C1353 C 0.66501 0.7426 0.40548 0.0
C1354 C 0.64713 0.75461 0.3936 0.0
C1355 C 0.65363 0.77968 0.38599 0.0
H1356 H 0.96888 0.96492 0.1696 0.0
H1357 H 0.97019 0.89254 0.13823 0.0
H1358 H 0.01604 0.95544 0.17877 0.0
H1359 H 0.01707 0.883 0.14737 0.0
H1360 H 0.09237 0.86175 0.18025 0.0
H1361 H 0.04396 0.87044 0.1741 0.0
H1362 H 0.06255 0.9551 0.16361 0.0
H1363 H 0.11092 0.94639 0.16957 0.0
C1364 C 0.97915 0.94683 0.16485 0.0
C1365 C 0.96594 0.92957 0.15314 0.0
C1366 C 1.00615 0.94151 0.16998 0.0
C1367 C 0.02029 0.9185 0.16375 0.0
C1368 C 1.0067 0.90078 0.15247 0.0
C1369 C 0.97994 0.90636 0.14714 0.0
C1370 C 0.08608 0.88224 0.17673 0.0
C1371 C 0.10547 0.90336 0.17535 0.0
C1372 C 0.05839 0.88719 0.17315 0.0
C1373 C 0.04944 0.91347 0.1684 0.0
C1374 C 0.06877 0.93471 0.1674 0.0
C1375 C 0.09649 0.92967 0.1707 0.0
H1376 H 0.67139 0.70949 0.91356 0.0
H1377 H 0.69408 0.74525 0.86534 0.0
H1378 H 0.6612 0.75501 0.92471 0.0
H1379 H 0.68296 0.79045 0.87622 0.0
H1380 H 0.68939 0.86951 0.90607 0.0
H1381 H 0.70004 0.82364 0.89616 0.0
H1382 H 0.6282 0.79256 0.92167 0.0
H1383 H 0.61778 0.83871 0.93193 0.0
C1384 C 0.67432 0.72701 0.90535 0.0
C1385 C 0.68358 0.72362 0.88853 0.0
C1386 C 0.66814 0.75311 0.91168 0.0
C1387 C 0.67122 0.77645 0.90138 0.0
C1388 C 0.68062 0.77302 0.8846 0.0
C1389 C 0.68674 0.747 0.87828 0.0
C1390 C 0.67582 0.85293 0.9096 0.0
C1391 C 0.65267 0.85781 0.91975 0.0
C1392 C 0.68187 0.8266 0.90382 0.0
C1393 C 0.66492 0.80436 0.90801 0.0
C1394 C 0.64185 0.80916 0.91833 0.0
C1395 C 0.63577 0.83562 0.92412 0.0
H1396 H 0.41969 0.37604 0.16946 0.0
H1397 H 0.39731 0.44889 0.14159 0.0
H1398 H 0.46738 0.38191 0.16061 0.0
H1399 H 0.44515 0.45502 0.13306 0.0
H1400 H 0.53946 0.46992 0.13949 0.0
H1401 H 0.49211 0.46421 0.14916 0.0
H1402 H 0.49237 0.3811 0.13063 0.0
H1403 H 0.53962 0.38699 0.12075 0.0
C1404 C 0.42501 0.39341 0.16156 0.0
C1405 C 0.40482 0.41202 0.1562 0.0
C1406 C 0.45223 0.39666 0.15645 0.0
C1407 C 0.45987 0.4189 0.14618 0.0
C1408 C 0.43978 0.43778 0.14106 0.0
C1409 C 0.41245 0.43422 0.14588 0.0
C1410 C 0.52942 0.45041 0.13761 0.0
C1411 C 0.54314 0.42887 0.1294 0.0
C1412 C 0.50234 0.44721 0.14302 0.0
C1413 C 0.48866 0.42222 0.14062 0.0
C1414 C 0.50253 0.40052 0.13269 0.0
C1415 C 0.52943 0.40392 0.12697 0.0
H1416 H 0.84425 0.14676 0.38509 0.0
H1417 H 0.8995 0.17188 0.42507 0.0
H1418 H 0.83675 0.1946 0.37739 0.0
H1419 H 0.89253 0.21962 0.41717 0.0
H1420 H 0.84755 0.30118 0.41256 0.0
H1421 H 0.85757 0.25367 0.41885 0.0
H1422 H 0.85769 0.23529 0.36507 0.0
H1423 H 0.84656 0.28318 0.35879 0.0
C1424 C 0.85489 0.16249 0.39219 0.0
C1425 C 0.8723 0.15548 0.4058 0.0
C1426 C 0.85078 0.18994 0.38768 0.0
C1427 C 0.86397 0.2111 0.39665 0.0
C1428 C 0.88167 0.20397 0.41012 0.0
C1429 C 0.88576 0.17655 0.41464 0.0
C1430 C 0.84952 0.28707 0.40203 0.0
C1431 C 0.8459 0.29605 0.38515 0.0
C1432 C 0.85565 0.25976 0.40564 0.0
C1433 C 0.85847 0.24048 0.3925 0.0
C1434 C 0.85538 0.24949 0.37555 0.0
C1435 C 0.84928 0.27699 0.37191 0.0
H1436 H 0.99772 0.5862 0.62469 0.0
H1437 H 0.96524 0.60484 0.67442 0.0
H1438 H 0.04376 0.59584 0.63486 0.0
H1439 H 0.01168 0.61391 0.68479 0.0
H1440 H 0.09671 0.6577 0.6896 0.0
H1441 H 0.04956 0.64755 0.68105 0.0
H1442 H 0.07774 0.5759 0.65412 0.0
H1443 H 0.12466 0.58613 0.66249 0.0
C1444 C 1.00036 0.59247 0.6378 0.0
C1445 C 0.97769 0.59485 0.64871 0.0
C1446 C 0.02686 0.59769 0.6437 0.0
C1447 C 0.03147 0.60554 0.66067 0.0
C1448 C 1.00882 0.60806 0.67161 0.0
C1449 C 0.98224 0.60263 0.66572 0.0
C1450 C 0.09277 0.63968 0.68196 0.0
C1451 C 0.11446 0.6228 0.67667 0.0
C1452 C 0.06575 0.63381 0.67711 0.0
C1453 C 0.05988 0.61102 0.66679 0.0
C1454 C 0.08156 0.59385 0.66184 0.0
C1455 C 0.10848 0.59964 0.66674 0.0
H1456 H 0.68031 0.27508 0.65892 0.0
H1457 H 0.66582 0.31005 0.60922 0.0
H1458 H 0.671 0.22972 0.64765 0.0
H1459 H 0.6575 0.26439 0.59776 0.0
H1460 H 0.61695 0.18061 0.58759 0.0
H1461 H 0.62464 0.22671 0.59871 0.0
H1462 H 0.69202 0.19649 0.62904 0.0
H1463 H 0.68402 0.15051 0.61821 0.0
C1464 C 0.67501 0.27317 0.6456 0.0
C1465 C 0.67377 0.29636 0.63501 0.0
C1466 C 0.67 0.24704 0.63907 0.0
C1467 C 0.66362 0.24333 0.62177 0.0
C1468 C 0.66213 0.2665 0.61118 0.0
C1469 C 0.66721 0.29269 0.61771 0.0
C1470 C 0.63338 0.18385 0.59664 0.0
C1471 C 0.64982 0.16189 0.60206 0.0
C1472 C 0.63789 0.21029 0.60294 0.0
C1473 C 0.6589 0.21533 0.61482 0.0
C1474 C 0.67539 0.19331 0.62012 0.0
C1475 C 0.6709 0.16695 0.61383 0.0
H1476 H 0.08615 0.36738 0.82897 0.0
H1477 H 0.11646 0.40496 0.8749 0.0
H1478 H 0.03963 0.38136 0.83631 0.0
H1479 H 0.07015 0.41707 0.88307 0.0
H1480 H 0.98908 0.45853 0.88823 0.0
H1481 H 0.0349 0.44613 0.87878 0.0
H1482 H 1.00129 0.37582 0.85251 0.0
H1483 H 0.95536 0.38997 0.86101 0.0
C1484 C 0.0827 0.37823 0.8408 0.0
C1485 C 0.10484 0.38527 0.85131 0.0
C1486 C 0.05599 0.38618 0.84511 0.0
C1487 C 0.05073 0.40072 0.86029 0.0
C1488 C 0.07309 0.40681 0.87101 0.0
C1489 C 0.09976 0.39957 0.86645 0.0
C1490 C 0.99169 0.44065 0.88025 0.0
C1491 C 0.96886 0.42529 0.87525 0.0
C1492 C 0.01799 0.43321 0.87497 0.0
C1493 C 0.02228 0.40958 0.865 0.0
C1494 C 0.99912 0.39436 0.8599 0.0
C1495 C 0.97272 0.40234 0.86481 0.0
H1496 H 0.79967 0.73402 0.13306 0.0
H1497 H 0.87943 0.72296 0.15561 0.0
H1498 H 0.81059 0.78161 0.12674 0.0
H1499 H 0.89058 0.77101 0.14927 0.0
H1500 H 0.90742 0.84676 0.11294 0.0
H1501 H 0.89814 0.79979 0.1223 0.0
H1502 H 0.81972 0.82551 0.14187 0.0
H1503 H 0.82891 0.87219 0.13259 0.0
C1504 C 0.81951 0.74191 0.13677 0.0
C1505 C 0.83872 0.7248 0.14479 0.0
C1506 C 0.82573 0.76921 0.13324 0.0
C1507 C 0.85148 0.7801 0.13746 0.0
C1508 C 0.87064 0.76314 0.14575 0.0
C1509 C 0.8642 0.73578 0.14954 0.0
C1510 C 0.88824 0.84235 0.11927 0.0
C1511 C 0.86882 0.86318 0.1219 0.0
C1512 C 0.88303 0.81552 0.12476 0.0
C1513 C 0.85816 0.80891 0.1328 0.0
C1514 C 0.83896 0.82985 0.13558 0.0
C1515 C 0.84427 0.85664 0.13028 0.0
H1516 H 0.40831 0.58285 0.37304 0.0
H1517 H 0.43862 0.65437 0.34687 0.0
H1518 H 0.45438 0.57234 0.38277 0.0
H1519 H 0.4849 0.64428 0.35706 0.0
H1520 H 0.56876 0.60395 0.36643 0.0
H1521 H 0.5232 0.61263 0.35463 0.0
H1522 H 0.48697 0.5893 0.40261 0.0
H1523 H 0.53203 0.57949 0.41402 0.0
C1524 C 0.42482 0.59645 0.36944 0.0
C1525 C 0.41976 0.61955 0.35927 0.0
C1526 C 0.45128 0.59048 0.37509 0.0
C1527 C 0.47342 0.60755 0.37082 0.0
C1528 C 0.46842 0.63052 0.36045 0.0
C1529 C 0.44186 0.63644 0.35472 0.0
C1530 C 0.55104 0.60033 0.37436 0.0
C1531 C 0.55416 0.59114 0.39122 0.0
C1532 C 0.52492 0.60562 0.36766 0.0
C1533 C 0.50134 0.60172 0.37766 0.0
C1534 C 0.50455 0.59224 0.39444 0.0
C1535 C 0.53053 0.58693 0.40109 0.0
H1536 H 0.3602 0.3074 0.11139 0.0
H1537 H 0.34338 0.2872 0.16381 0.0
H1538 H 0.37341 0.26025 0.10588 0.0
H1539 H 0.35729 0.23982 0.15841 0.0
H1540 H 0.34695 0.1532 0.13446 0.0
H1541 H 0.33864 0.20072 0.14228 0.0
H1542 H 0.40827 0.2257 0.11223 0.0
H1543 H 0.41641 0.17804 0.10423 0.0
C1544 C 0.35942 0.29287 0.12177 0.0
C1545 C 0.35043 0.30099 0.138 0.0
C1546 C 0.36732 0.26588 0.11866 0.0
C1547 C 0.36636 0.24621 0.13169 0.0
C1548 C 0.35801 0.25443 0.14806 0.0
C1549 C 0.35027 0.28158 0.1512 0.0
C1550 C 0.36059 0.1688 0.12958 0.0
C1551 C 0.38224 0.16187 0.11862 0.0
C1552 C 0.35595 0.19604 0.13419 0.0
C1553 C 0.37276 0.21704 0.12788 0.0
C1554 C 0.39476 0.21003 0.11717 0.0
C1555 C 0.39949 0.18273 0.11263 0.0
H1556 H 0.62276 0.5961 0.87534 0.0
H1557 H 0.59351 0.66274 0.84412 0.0
H1558 H 0.57612 0.58714 0.88489 0.0
H1559 H 0.54676 0.65388 0.85378 0.0
H1560 H 0.46672 0.6029 0.85636 0.0
H1561 H 0.51302 0.61723 0.84927 0.0
H1562 H 0.5374 0.6061 0.90168 0.0
H1563 H 0.49076 0.59123 0.90873 0.0
C1564 C 0.60638 0.60898 0.8706 0.0
C1565 C 0.61182 0.63001 0.85886 0.0
C1566 C 0.57966 0.60397 0.87619 0.0
C1567 C 0.55767 0.61975 0.87009 0.0
C1568 C 0.5632 0.64117 0.85861 0.0
C1569 C 0.58999 0.64631 0.8531 0.0
C1570 C 0.48193 0.60351 0.86639 0.0
C1571 C 0.47515 0.59563 0.88308 0.0
C1572 C 0.50843 0.61204 0.86236 0.0
C1573 C 0.52897 0.61277 0.87488 0.0
C1574 C 0.52208 0.60553 0.8917 0.0
C1575 C 0.49538 0.59723 0.89578 0.0
H1576 H 0.21006 0.72465 0.6225 0.0
H1577 H 0.13384 0.72263 0.65016 0.0
H1578 H 0.19839 0.76986 0.61133 0.0
H1579 H 0.12205 0.76797 0.63886 0.0
H1580 H 0.10385 0.8386 0.59872 0.0
H1581 H 0.11257 0.79189 0.60904 0.0
H1582 H 0.19269 0.81673 0.62634 0.0
H1583 H 0.18396 0.86312 0.61639 0.0
C1584 C 0.19065 0.73372 0.62601 0.0
C1585 C 0.1729 0.72014 0.63724 0.0
C1586 C 0.18406 0.75966 0.61971 0.0
C1587 C 0.15936 0.77243 0.62427 0.0
C1588 C 0.14117 0.75853 0.63509 0.0
C1589 C 0.148 0.73274 0.64163 0.0
C1590 C 0.12324 0.83404 0.6048 0.0
C1591 C 0.14319 0.85453 0.60676 0.0
C1592 C 0.12819 0.80739 0.61073 0.0
C1593 C 0.15338 0.80069 0.61838 0.0
C1594 C 0.17321 0.82123 0.62034 0.0
C1595 C 0.16811 0.84785 0.61472 0.0
H1596 H 0.89766 0.44055 0.38775 0.0
H1597 H 0.9281 0.37371 0.35723 0.0
H1598 H 0.94368 0.44887 0.3986 0.0
H1599 H 0.97446 0.38195 0.36837 0.0
H1600 H 0.04857 0.39327 0.40683 0.0
H1601 H 1.0015 0.38152 0.39803 0.0
H1602 H 0.9876 0.46569 0.38381 0.0
H1603 H 0.03438 0.47709 0.39228 0.0
C1604 C 0.91417 0.42749 0.38343 0.0
C1605 C 0.90923 0.40655 0.37154 0.0
C1606 C 0.94055 0.43231 0.38965 0.0
C1607 C 0.96267 0.41607 0.38436 0.0
C1608 C 0.95773 0.39466 0.37277 0.0
C1609 C 0.93128 0.39009 0.3663 0.0
C1610 C 0.0352 0.40919 0.40204 0.0
C1611 C 0.04496 0.43608 0.40027 0.0
C1612 C 1.00846 0.40247 0.39686 0.0
C1613 C 0.99091 0.4227 0.3902 0.0
C1614 C 1.00055 0.4497 0.38896 0.0
C1615 C 0.02729 0.45623 0.39379 0.0
H1616 H 0.34036 0.74138 0.35867 0.0
H1617 H 0.35261 0.71645 0.41091 0.0
H1618 H 0.34721 0.78874 0.36678 0.0
H1619 H 0.35786 0.76408 0.41918 0.0
H1620 H 0.39654 0.84897 0.42492 0.0
H1621 H 0.38906 0.80123 0.41726 0.0
H1622 H 0.32682 0.826 0.38123 0.0
H1623 H 0.33507 0.87378 0.3885 0.0
C1624 C 0.34449 0.74587 0.3719 0.0
C1625 C 0.34613 0.72479 0.38407 0.0
C1626 C 0.34803 0.77324 0.37661 0.0
C1627 C 0.35309 0.7804 0.39366 0.0
C1628 C 0.35438 0.75938 0.40589 0.0
C1629 C 0.35101 0.73197 0.40116 0.0
C1630 C 0.38121 0.84419 0.41539 0.0
C1631 C 0.36645 0.86516 0.40728 0.0
C1632 C 0.37679 0.81677 0.41106 0.0
C1633 C 0.35733 0.80961 0.39859 0.0
C1634 C 0.34231 0.83067 0.39067 0.0
C1635 C 0.3469 0.8581 0.39491 0.0
H1636 H 0.89716 0.58734 0.13581 0.0
H1637 H 0.92358 0.64079 0.17638 0.0
H1638 H 0.94422 0.58333 0.12595 0.0
H1639 H 0.97073 0.63733 0.16627 0.0
H1640 H 0.055 0.60076 0.15463 0.0
H1641 H 1.0081 0.6055 0.16443 0.0
H1642 H 0.9801 0.60869 0.11229 0.0
H1643 H 0.027 0.60268 0.10246 0.0
C1644 C 0.91302 0.59835 0.14259 0.0
C1645 C 0.90662 0.61434 0.15691 0.0
C1646 C 0.94003 0.59621 0.13685 0.0
C1647 C 0.96136 0.61007 0.14525 0.0
C1648 C 0.95491 0.62609 0.1596 0.0
C1649 C 0.92786 0.62818 0.16536 0.0
C1650 C 0.0389 0.60219 0.14521 0.0
C1651 C 0.04495 0.60113 0.12771 0.0
C1652 C 0.01193 0.60529 0.15086 0.0
C1653 C 0.99021 0.60748 0.13918 0.0
C1654 C 0.99625 0.60673 0.12167 0.0
C1655 C 0.02325 0.60359 0.11601 0.0
H1656 H 0.18932 0.14889 0.91359 0.0
H1657 H 0.11509 0.17819 0.93717 0.0
H1658 H 0.1981 0.19437 0.90227 0.0
H1659 H 0.12365 0.22384 0.92553 0.0
H1660 H 0.16146 0.30823 0.91363 0.0
H1661 H 0.15424 0.26369 0.92703 0.0
H1662 H 0.17908 0.2237 0.88054 0.0
H1663 H 0.18718 0.26799 0.86742 0.0
C1664 C 0.17488 0.16508 0.91641 0.0
C1665 C 0.15144 0.15988 0.92624 0.0
C1666 C 0.17984 0.19115 0.90981 0.0
C1667 C 0.16146 0.21275 0.91284 0.0
C1668 C 0.13833 0.20774 0.92305 0.0
C1669 C 0.13336 0.18156 0.92967 0.0
C1670 C 0.16566 0.28994 0.90634 0.0
C1671 C 0.17489 0.29177 0.88941 0.0
C1672 C 0.16123 0.26439 0.91397 0.0
C1673 C 0.1661 0.24007 0.90488 0.0
C1674 C 0.17543 0.24196 0.888 0.0
C1675 C 0.17977 0.26743 0.88038 0.0
H1676 H 0.4637 0.41641 0.6731 0.0
H1677 H 0.49284 0.43601 0.62271 0.0
H1678 H 0.51049 0.40655 0.68214 0.0
H1679 H 0.53952 0.42545 0.63161 0.0
H1680 H 0.62277 0.4327 0.6578 0.0
H1681 H 0.57578 0.44328 0.64968 0.0
H1682 H 0.54734 0.37321 0.67809 0.0
H1683 H 0.59453 0.36278 0.68638 0.0
C1684 C 0.48005 0.41874 0.66394 0.0
C1685 C 0.47435 0.42712 0.64715 0.0
C1686 C 0.50691 0.41276 0.66909 0.0
C1687 C 0.5289 0.41518 0.65764 0.0
C1688 C 0.5232 0.42362 0.64086 0.0
C1689 C 0.49633 0.42943 0.63569 0.0
C1690 C 0.60652 0.41959 0.6624 0.0
C1691 C 0.61249 0.39687 0.67277 0.0
C1692 C 0.57952 0.42556 0.65763 0.0
C1693 C 0.55765 0.40904 0.66312 0.0
C1694 C 0.56359 0.38654 0.67372 0.0
C1695 C 0.59067 0.38049 0.67844 0.0
H1696 H 0.13986 0.08094 0.27876 0.0
H1697 H 0.21578 0.06135 0.30418 0.0
H1698 H 0.14601 0.04232 0.25973 0.0
H1699 H 0.22183 0.022 0.28509 0.0
H1700 H 0.19967 0.93756 0.25902 0.0
H1701 H 0.20004 0.97702 0.27805 0.0
H1702 H 0.177 0.02923 0.23605 0.0
H1703 H 0.1762 0.98948 0.21706 0.0
C1704 C 0.15794 0.06836 0.28027 0.0
C1705 C 0.17752 0.07445 0.29286 0.0
C1706 C 0.16153 0.04628 0.26928 0.0
C1707 C 0.18471 0.02946 0.27062 0.0
C1708 C 0.2038 0.03471 0.28369 0.0
C1709 C 0.20026 0.05707 0.2947 0.0
C1710 C 0.19497 0.95754 0.25383 0.0
C1711 C 0.18752 0.96043 0.23661 0.0
C1712 C 0.1954 0.98016 0.26471 0.0
C1713 C 0.18817 1.00618 0.25862 0.0
C1714 C 0.18224 1.00933 0.24117 0.0
C1715 C 0.18205 0.98668 0.23025 0.0
H1716 H 0.20654 0.96481 0.53922 0.0
H1717 H 0.23576 0.88153 0.54003 0.0
H1718 H 0.24077 0.97614 0.51759 0.0
H1719 H 0.26906 0.89237 0.51814 0.0
H1720 H 0.27103 0.96998 0.46157 0.0
H1721 H 0.24541 0.96609 0.4879 0.0
H1722 H 0.30965 0.91579 0.50921 0.0
H1723 H 0.3349 0.9189 0.48238 0.0
C1724 C 0.22053 0.94905 0.53499 0.0
C1725 C 0.21811 0.92217 0.54115 0.0
C1726 C 0.24 0.95543 0.52247 0.0
C1727 C 0.25756 0.9351 0.5159 0.0
C1728 C 0.25614 0.90866 0.52289 0.0
C1729 C 0.23673 0.90232 0.53533 0.0
C1730 C 0.27979 0.95814 0.47188 0.0
C1731 C 0.3048 0.94429 0.46971 0.0
C1732 C 0.26522 0.95623 0.48713 0.0
C1733 C 0.27526 0.94044 0.50073 0.0
C1734 C 0.30106 0.9278 0.49892 0.0
C1735 C 0.3157 0.92976 0.4836 0.0
H1736 H 0.36265 1.00599 0.71587 0.0
H1737 H 0.30523 0.06772 0.73195 0.0
H1738 H 0.35477 0.98052 0.74187 0.0
H1739 H 0.29619 0.04154 0.75799 0.0
H1740 H 0.33241 0.93267 0.78749 0.0
H1741 H 0.32673 0.95389 0.75969 0.0
H1742 H 0.32111 0.03329 0.78359 0.0
H1743 H 0.32512 0.01197 0.81133 0.0
C1744 C 0.3478 0.01377 0.72486 0.0
C1745 C 0.33489 0.03906 0.722 0.0
C1746 C 0.34303 0.999 0.73976 0.0
C1747 C 0.32504 1.00902 0.75224 0.0
C1748 C 0.31058 0.03342 0.74881 0.0
C1749 C 0.31543 0.04828 0.73381 0.0
C1750 C 0.32938 0.95457 0.78688 0.0
C1751 C 0.32973 0.97055 0.80177 0.0
C1752 C 0.32636 0.96683 0.77087 0.0
C1753 C 0.32379 0.99543 0.76928 0.0
C1754 C 0.32282 0.01123 0.78422 0.0
C1755 C 0.32564 0.99897 0.80021 0.0
H1756 H 0.32586 0.12769 0.03576 0.0
H1757 H 0.30575 0.05373 0.06317 0.0
H1758 H 0.28981 0.11846 0.01548 0.0
H1759 H 0.26846 0.04495 0.04283 0.0
H1760 H 0.18442 0.0702 0.01496 0.0
H1761 H 0.22345 0.06811 0.03442 0.0
H1762 H 0.27802 0.08442 0.99246 0.0
H1763 H 0.23871 0.08658 0.973 0.0
C1764 C 0.31401 0.1092 0.0374 0.0
C1765 C 0.31923 0.0912 0.05104 0.0
C1766 C 0.29325 0.10392 0.02568 0.0
C1767 C 0.27665 0.08068 0.0273 0.0
C1768 C 0.28112 0.06294 0.04118 0.0
C1769 C 0.30232 0.06807 0.05289 0.0
C1770 C 0.20485 0.07271 1.00987 0.0
C1771 C 0.20859 0.07885 0.99253 0.0
C1772 C 0.22719 0.07135 0.02099 0.0
C1773 C 0.25377 0.07644 0.01503 0.0
C1774 C 0.2577 0.08071 0.99745 0.0
C1775 C 0.23531 0.08172 0.98627 0.0
H1776 H 0.88263 0.95183 0.72785 0.0
H1777 H 0.80906 0.99746 0.71737 0.0
H1778 H 0.89321 0.98303 0.75148 0.0
H1779 H 0.81878 0.0279 0.74101 0.0
H1780 H 0.84162 0.08472 0.78247 0.0
H1781 H 0.8447 0.06221 0.75479 0.0
H1782 H 0.87463 0.98888 0.77928 0.0
H1783 H 0.87285 0.01177 0.80664 0.0
C1784 C 0.86915 0.96895 0.73033 0.0
C1785 C 0.84491 0.97209 0.72092 0.0
C1786 C 0.87495 0.98664 0.74398 0.0
C1787 C 0.85665 1.00787 0.74841 0.0
C1788 C 0.83354 0.01208 0.73805 0.0
C1789 C 0.8278 0.99447 0.72452 0.0
C1790 C 0.84946 0.06404 0.78189 0.0
C1791 C 0.85646 0.04995 0.79689 0.0
C1792 C 0.85101 0.05098 0.76601 0.0
C1793 C 0.85958 0.02349 0.76471 0.0
C1794 C 0.86811 1.01005 0.77963 0.0
C1795 C 0.86664 0.02309 0.79545 0.0
H1796 H 0.84058 0.10508 0.48193 0.0
H1797 H 0.78004 0.04794 0.46366 0.0
H1798 H 0.81705 0.10715 0.50946 0.0
H1799 H 0.75642 0.05013 0.49089 0.0
H1800 H 0.72104 0.05047 0.54276 0.0
H1801 H 0.75728 0.04101 0.52194 0.0
H1802 H 0.77242 0.12774 0.51714 0.0
H1803 H 0.73652 0.13688 0.53788 0.0
C1804 C 0.82258 0.09257 0.48392 0.0
C1805 C 0.8119 0.07666 0.47058 0.0
C1806 C 0.80903 0.09383 0.49963 0.0
C1807 C 0.78478 0.07887 0.50237 0.0
C1808 C 0.77516 0.0617 0.48933 0.0
C1809 C 0.78849 0.0607 0.47362 0.0
C1810 C 0.73286 0.06732 0.53767 0.0
C1811 C 0.72592 0.09439 0.54176 0.0
C1812 C 0.75339 0.06199 0.52564 0.0
C1813 C 0.76753 0.08365 0.51771 0.0
C1814 C 0.76212 0.11056 0.52303 0.0
C1815 C 0.74147 0.11584 0.53485 0.0
H1816 H 0.70892 0.04817 0.22205 0.0
H1817 H 0.64862 0.08201 0.25608 0.0
H1818 H 0.71089 1.00662 0.23947 0.0
H1819 H 0.64995 0.04061 0.27325 0.0
H1820 H 0.6765 0.97495 0.31033 0.0
H1821 H 0.67819 0.01647 0.29298 0.0
H1822 H 0.68605 0.96709 0.24763 0.0
H1823 H 0.68582 0.92609 0.26494 0.0
C1824 C 0.69575 0.04648 0.23308 0.0
C1825 C 0.67874 0.06834 0.23775 0.0
C1826 C 0.6969 0.02275 0.24312 0.0
C1827 C 0.68083 0.02032 0.25797 0.0
C1828 C 0.6632 0.04196 0.26224 0.0
C1829 C 0.66224 0.06563 0.2523 0.0
C1830 C 0.67898 0.97303 0.2967 0.0
C1831 C 0.68057 0.94711 0.28907 0.0
C1832 C 0.67963 0.99681 0.28669 0.0
C1833 C 0.68193 0.99521 0.26881 0.0
C1834 C 0.68442 0.96927 0.26131 0.0
C1835 C 0.68386 0.94563 0.27128 0.0
H1836 H 0.70882 0.88984 1.00144 0.0
H1837 H 0.7189 0.97053 0.97988 0.0
H1838 H 0.74141 0.90068 0.02362 0.0
H1839 H 0.75326 0.98093 1.00204 0.0
H1840 H 0.83843 0.95549 0.03296 0.0
H1841 H 0.80235 0.95814 1.01129 0.0
H1842 H 0.74238 0.93633 0.0492 0.0
H1843 H 0.7786 0.93411 0.0709 0.0
C1844 C 0.71782 0.91006 1.00146 0.0
C1845 C 0.71057 0.92955 0.98903 0.0
C1846 C 0.73658 0.91623 0.01424 0.0
C1847 C 0.74928 0.94188 0.01485 0.0
C1848 C 0.74335 0.96111 1.00199 0.0
C1849 C 0.72394 0.95507 0.98924 0.0
C1850 C 0.81736 0.95224 0.03672 0.0
C1851 C 0.81119 0.9445 0.05354 0.0
C1852 C 0.79675 0.95383 0.02436 0.0
C1853 C 0.76965 0.94723 0.02853 0.0
C1854 C 0.76318 0.94147 0.04564 0.0
C1855 C 0.78377 0.94036 0.05808 0.0
H1856 H 0.72019 0.56 0.79773 0.0
H1857 H 0.6379 0.56817 0.77826 0.0
H1858 H 0.72883 0.52326 0.77713 0.0
H1859 H 0.64643 0.53202 0.75783 0.0
H1860 H 0.67279 0.48085 0.71384 0.0
H1861 H 0.67239 0.52164 0.73205 0.0
H1862 H 0.71404 0.47633 0.7716 0.0
H1863 H 0.71493 0.43617 0.75329 0.0
C1864 C 0.70394 0.55386 0.78916 0.0
C1865 C 0.67846 0.56719 0.78955 0.0
C1866 C 0.7089 0.53297 0.7773 0.0
C1867 C 0.68846 0.52505 0.76559 0.0
C1868 C 0.66291 0.53812 0.76626 0.0
C1869 C 0.65797 0.5588 0.77807 0.0
C1870 C 0.68245 0.47997 0.72624 0.0
C1871 C 0.69351 0.45532 0.73227 0.0
C1872 C 0.682 0.50315 0.73675 0.0
C1873 C 0.69281 0.50211 0.75341 0.0
C1874 C 0.7056 0.47794 0.75888 0.0
C1875 C 0.70591 0.45485 0.74844 0.0
H1876 H 0.8388 0.44853 0.9975 0.0
H1877 H 0.78515 0.42872 0.95567 0.0
H1878 H 0.80002 0.44798 0.01706 0.0
H1879 H 0.74602 0.42839 0.97523 0.0
H1880 H 0.69754 0.38612 0.01798 0.0
H1881 H 0.73449 0.39507 0.99817 0.0
H1882 H 0.75502 0.46874 0.02565 0.0
H1883 H 0.71718 0.45999 0.04551 0.0
C1884 C 0.81853 0.44461 0.99246 0.0
C1885 C 0.81497 0.43836 0.97511 0.0
C1886 C 0.79631 0.44444 1.00365 0.0
C1887 C 0.77 0.43775 0.99777 0.0
C1888 C 0.76615 0.43323 0.98019 0.0
C1889 C 0.78842 0.43369 0.96895 0.0
C1890 C 0.7097 0.4044 0.01978 0.0
C1891 C 0.70409 0.42254 0.03323 0.0
C1892 C 0.73086 0.40958 1.00833 0.0
C1893 C 0.74732 0.43294 1.01007 0.0
C1894 C 0.74255 0.45064 0.02391 0.0
C1895 C 0.72106 0.44553 0.03537 0.0
H1896 H 0.86648 0.50985 0.21455 0.0
H1897 H 0.81006 0.57054 0.23339 0.0
H1898 H 0.8658 0.4868 0.24199 0.0
H1899 H 0.80868 0.54713 0.26083 0.0
H1900 H 0.83457 0.5157 0.31302 0.0
H1901 H 0.83386 0.53804 0.28558 0.0
H1902 H 0.83998 0.45943 0.26074 0.0
H1903 H 0.84241 0.43704 0.28844 0.0
C1904 C 0.85367 0.51813 0.22452 0.0
C1905 C 0.83832 0.54209 0.22172 0.0
C1906 C 0.85315 0.50479 0.2403 0.0
C1907 C 0.83708 0.51485 0.25378 0.0
C1908 C 0.82168 0.53888 0.25094 0.0
C1909 C 0.82242 0.55238 0.23517 0.0
C1910 C 0.83609 0.50301 0.3018 0.0
C1911 C 0.83896 0.47439 0.30316 0.0
C1912 C 0.83524 0.51594 0.28591 0.0
C1913 C 0.83693 0.50072 0.27076 0.0
C1914 C 0.8391 0.47201 0.27207 0.0
C1915 C 0.84014 0.45904 0.28802 0.0
H1916 H 0.70183 0.63198 0.50663 0.0
H1917 H 0.71485 0.55202 0.48483 0.0
H1918 H 0.73819 0.62388 0.52706 0.0
H1919 H 0.75168 0.54373 0.50549 0.0
H1920 H 0.83725 0.5588 0.53069 0.0
H1921 H 0.79744 0.5596 0.51206 0.0
H1922 H 0.75007 0.59731 0.5521 0.0
H1923 H 0.79059 0.59711 0.57064 0.0
C1924 C 0.71233 0.61249 0.50631 0.0
C1925 C 0.70525 0.59254 0.49416 0.0
C1926 C 0.73312 0.60777 0.51813 0.0
C1927 C 0.7476 0.58296 0.51818 0.0
C1928 C 0.74094 0.5631 0.50582 0.0
C1929 C 0.71998 0.56786 0.49392 0.0
C1930 C 0.81822 0.56697 0.53557 0.0
C1931 C 0.8171 0.57832 0.55201 0.0
C1932 C 0.7953 0.56721 0.52493 0.0
C1933 C 0.7706 0.57886 0.53045 0.0
C1934 C 0.76896 0.58862 0.54733 0.0
C1935 C 0.79199 0.58827 0.55804 0.0
H1936 H 0.38606 0.53529 0.29433 0.0
H1937 H 0.3022 0.56247 0.29466 0.0
H1938 H 0.37563 0.50284 0.27171 0.0
H1939 H 0.29134 0.52969 0.2719 0.0
H1940 H 0.30302 0.50854 0.21383 0.0
H1941 H 0.30464 0.53048 0.24162 0.0
H1942 H 0.3511 0.46234 0.26145 0.0
H1943 H 0.34998 0.44063 0.2334 0.0
C1944 C 0.36514 0.53359 0.28987 0.0
C1945 C 0.34494 0.55134 0.29614 0.0
C1946 C 0.35909 0.51495 0.27695 0.0
C1947 C 0.33269 0.51382 0.26985 0.0
C1948 C 0.31195 0.53027 0.27698 0.0
C1949 C 0.31802 0.54879 0.29011 0.0
C1950 C 0.31346 0.49815 0.22413 0.0
C1951 C 0.32678 0.47305 0.22131 0.0
C1952 C 0.31404 0.51055 0.24016 0.0
C1953 C 0.32808 0.49823 0.25379 0.0
C1954 C 0.34029 0.47247 0.25119 0.0
C1955 C 0.33954 0.45996 0.23514 0.0
H1956 H 0.33277 0.60395 0.97895 0.0
H1957 H 0.266 0.55552 0.95928 0.0
H1958 H 0.30875 0.60831 1.00615 0.0
H1959 H 0.24173 0.56046 0.98609 0.0
H1960 H 0.23587 0.64593 0.03708 0.0
H1961 H 0.26845 0.63369 0.01497 0.0
H1962 H 0.23938 0.55024 0.01635 0.0
H1963 H 0.20616 0.56289 0.03836 0.0
C1964 C 0.31318 0.59391 0.98051 0.0
C1965 C 0.30112 0.57976 0.96685 0.0
C1966 C 0.29931 0.59656 0.99604 0.0
C1967 C 0.27317 0.58491 0.9983 0.0
C1968 C 0.26187 0.56952 0.98492 0.0
C1969 C 0.27564 0.56701 0.96942 0.0
C1970 C 0.23669 0.62489 0.03282 0.0
C1971 C 0.21819 0.60546 0.03927 0.0
C1972 C 0.25558 0.61777 0.02024 0.0
C1973 C 0.25642 0.59102 0.01372 0.0
C1974 C 0.23903 0.57113 0.02093 0.0
C1975 C 0.22018 0.57827 0.03364 0.0
H1976 H 0.16145 0.54235 0.7183 0.0
H1977 H 0.21462 0.57878 0.75586 0.0
H1978 H 0.16024 0.50001 0.73503 0.0
H1979 H 0.2139 0.53674 0.77238 0.0
H1980 H 0.17797 0.47109 0.80763 0.0
H1981 H 0.18252 0.51202 0.79003 0.0
H1982 H 0.1868 0.46152 0.74497 0.0
H1983 H 0.18196 0.42081 0.76256 0.0
C1984 C 0.17317 0.54112 0.72998 0.0
C1985 C 0.18776 0.56394 0.73591 0.0
C1986 C 0.17254 0.51693 0.73959 0.0
C1987 C 0.18669 0.51509 0.75522 0.0
C1988 C 0.20217 0.53763 0.76068 0.0
C1989 C 0.20265 0.56172 0.75118 0.0
C1990 C 0.18024 0.46877 0.794 0.0
C1991 C 0.17937 0.44274 0.7865 0.0
C1992 C 0.18284 0.4922 0.78388 0.0
C1993 C 0.18484 0.4901 0.76602 0.0
C1994 C 0.18472 0.46397 0.75861 0.0
C1995 C 0.18201 0.44061 0.76871 0.0
H1996 H 0.31291 0.47182 0.55607 0.0
H1997 H 0.2849 0.38829 0.5568 0.0
H1998 H 0.28002 0.48222 0.53324 0.0
H1999 H 0.25241 0.39826 0.53407 0.0
H2000 H 0.18865 0.42394 0.49625 0.0
H2001 H 0.21178 0.42248 0.52395 0.0
H2002 H 0.27905 0.46894 0.50311 0.0
H2003 H 0.25574 0.47082 0.47573 0.0
C2004 C 0.29914 0.45595 0.55169 0.0
C2005 C 0.30147 0.42925 0.55812 0.0
C2006 C 0.28053 0.46175 0.5385 0.0
C2007 C 0.26369 0.441 0.53167 0.0
C2008 C 0.26479 0.41482 0.53905 0.0
C2009 C 0.2835 0.40903 0.55202 0.0
C2010 C 0.2081 0.43428 0.49772 0.0
C2011 C 0.22052 0.44714 0.48371 0.0
C2012 C 0.22146 0.43332 0.51355 0.0
C2013 C 0.24741 0.44546 0.51577 0.0
C2014 C 0.25904 0.45957 0.50197 0.0
C2015 C 0.24582 0.46033 0.48617 0.0
H2016 H 0.35047 0.99262 0.37844 0.0
H2017 H 0.33665 0.04532 0.4217 0.0
H2018 H 0.32447 0.02379 0.36044 0.0
H2019 H 0.31144 0.07702 0.40358 0.0
H2020 H 0.23715 0.10543 0.37328 0.0
H2021 H 0.26808 0.07802 0.39023 0.0
H2022 H 0.3207 0.06733 0.34658 0.0
H2023 H 0.28905 0.09474 0.32934 0.0
C2024 C 0.34232 0.01112 0.38407 0.0
C2025 C 0.34547 0.01629 0.4016 0.0
C2026 C 0.32747 0.02913 0.37369 0.0
C2027 C 0.3155 0.05288 0.38052 0.0
C2028 C 0.31978 0.05864 0.3979 0.0
C2029 C 0.33444 0.04054 0.40831 0.0
C2030 C 0.25551 0.09771 0.36728 0.0
C2031 C 0.26073 0.1027 0.34994 0.0
C2032 C 0.27339 0.08193 0.37708 0.0
C2033 C 0.29719 0.0706 0.36992 0.0
C2034 C 0.3025 0.07556 0.35254 0.0
C2035 C 0.28443 0.09137 0.34265 0.0
H2036 H 0.26971 0.0549 0.66489 0.0
H2037 H 0.25236 0.12183 0.63078 0.0
H2038 H 0.23967 0.02529 0.64829 0.0
H2039 H 0.22424 0.09208 0.61334 0.0
H2040 H 0.1579 0.03884 0.59056 0.0
H2041 H 0.18498 0.06913 0.60857 0.0
H2042 H 0.23439 1.00008 0.62446 0.0
H2043 H 0.20575 0.96993 0.60754 0.0
C2044 C 0.25954 0.0632 0.65377 0.0
C2045 C 0.2632 0.09072 0.64924 0.0
C2046 C 0.24249 0.04615 0.64404 0.0
C2047 C 0.22935 0.05592 0.62919 0.0
C2048 C 0.23322 0.08361 0.62478 0.0
C2049 C 0.24957 0.10079 0.63478 0.0
C2050 C 0.17464 0.0303 0.5979 0.0
C2051 C 0.1797 1.00206 0.59766 0.0
C2052 C 0.19039 0.04768 0.60823 0.0
C2053 C 0.21217 0.03736 0.61822 0.0
C2054 C 0.2175 1.00903 0.6175 0.0
C2055 C 0.20125 0.99164 0.60758 0.0
H2056 H 0.20207 0.02837 0.92941 0.0
H2057 H 0.13434 0.99042 0.90302 0.0
H2058 H 0.23405 0.99957 0.91357 0.0
H2059 H 0.16628 0.96167 0.88729 0.0
H2060 H 0.23373 0.94511 0.84693 0.0
H2061 H 0.20068 0.96933 0.86467 0.0
H2062 H 0.24931 0.95147 0.90924 0.0
H2063 H 0.28245 0.92728 0.89152 0.0
C2064 C 0.19395 0.01364 0.92042 0.0
C2065 C 0.16558 0.01182 0.91749 0.0
C2066 C 0.2123 0.99706 0.91136 0.0
C2067 C 0.20276 0.97843 0.89905 0.0
C2068 C 0.17436 0.97605 0.8965 0.0
C2069 C 0.15602 0.99243 0.90565 0.0
C2070 C 0.23729 0.94612 0.86053 0.0
C2071 C 0.26081 0.93422 0.86776 0.0
C2072 C 0.21826 0.95992 0.87072 0.0
C2073 C 0.22234 0.96241 0.88839 0.0
C2074 C 0.24566 0.95017 0.89566 0.0
C2075 C 0.26457 0.93613 0.88549 0.0
H2076 H 0.28387 0.89009 0.15232 0.0
H2077 H 0.23567 0.95903 0.16914 0.0
H2078 H 0.31666 0.92106 0.13933 0.0
H2079 H 0.26899 0.99023 0.15635 0.0
H2080 H 0.31972 0.03701 0.11631 0.0
H2081 H 0.2861 1.00602 0.12895 0.0
H2082 H 0.35159 0.95346 0.14622 0.0
H2083 H 0.38498 0.98399 0.13337 0.0
C2084 C 0.28036 0.9119 0.15341 0.0
C2085 C 0.25705 0.92198 0.16185 0.0
C2086 C 0.29931 0.92974 0.14598 0.0
C2087 C 0.29561 0.95826 0.14673 0.0
C2088 C 0.27239 0.96841 0.15529 0.0
C2089 C 0.25338 0.9505 0.16278 0.0
C2090 C 0.32693 0.01871 0.12267 0.0
C2091 C 0.35514 0.01302 0.12373 0.0
C2092 C 0.30763 1.00104 0.13008 0.0
C2093 C 0.31602 0.97717 0.1387 0.0
C2094 C 0.34423 0.97139 0.13953 0.0
C2095 C 0.36347 0.98902 0.13217 0.0
H2096 H 0.66157 0.02514 0.61841 0.0
H2097 H 0.70417 0.99479 0.57417 0.0
H2098 H 0.6885 0.99519 0.63655 0.0
H2099 H 0.73154 0.96467 0.59254 0.0
H2100 H 0.76767 0.9034 0.63203 0.0
H2101 H 0.7325 0.92484 0.61383 0.0
H2102 H 0.73701 0.99814 0.64439 0.0
H2103 H 0.77169 0.97699 0.66222 0.0
C2104 C 0.67658 0.01194 0.61251 0.0
C2105 C 0.68102 0.01281 0.59483 0.0
C2106 C 0.69203 0.99469 0.62295 0.0
C2107 C 0.71248 0.97779 0.61606 0.0
C2108 C 0.71587 0.97735 0.59826 0.0
C2109 C 0.70026 0.99469 0.58773 0.0
C2110 C 0.76053 0.92382 0.63502 0.0
C2111 C 0.77228 0.93851 0.64857 0.0
C2112 C 0.74068 0.9362 0.62452 0.0
C2113 C 0.73192 0.96323 0.62764 0.0
C2114 C 0.74295 0.97723 0.64169 0.0
C2115 C 0.76291 0.96511 0.65192 0.0
H2116 H 0.78822 0.92783 0.32951 0.0
H2117 H 0.73406 0.92093 0.37265 0.0
H2118 H 0.82036 0.95429 0.34691 0.0
H2119 H 0.76558 0.94741 0.38982 0.0
H2120 H 0.83516 0.97742 0.4219 0.0
H2121 H 0.80847 0.94684 0.40386 0.0
H2122 H 0.82593 0.99789 0.36031 0.0
H2123 H 0.85332 0.02793 0.37825 0.0
C2124 C 0.78318 0.93186 0.34269 0.0
C2125 C 0.75869 0.92181 0.34972 0.0
C2126 C 0.80156 0.94713 0.35268 0.0
C2127 C 0.79581 0.95287 0.3699 0.0
C2128 C 0.77122 0.94287 0.3768 0.0
C2129 C 0.75301 0.9276 0.36689 0.0
C2130 C 0.8336 0.98195 0.40844 0.0
C2131 C 0.84633 1.00526 0.4016 0.0
C2132 C 0.81808 0.9645 0.39808 0.0
C2133 C 0.81464 0.96997 0.38058 0.0
C2134 C 0.82822 0.99278 0.37364 0.0
C2135 C 0.84389 1.01014 0.38399 0.0
H2136 H 0.73538 0.10176 0.1518 0.0
H2137 H 0.78448 0.08704 0.19663 0.0
H2138 H 0.76734 0.07468 0.13484 0.0
H2139 H 0.81645 0.06006 0.17963 0.0
H2140 H 0.88205 0.03586 0.14095 0.0
H2141 H 0.85058 0.06578 0.1562 0.0
H2142 H 0.782 0.02538 0.13234 0.0
H2143 H 0.81355 0.99522 0.11704 0.0
C2144 C 0.7531 0.09299 0.15804 0.0
C2145 C 0.75733 0.09674 0.17562 0.0
C2146 C 0.77133 0.07726 0.14831 0.0
C2147 C 0.7945 0.06515 0.15584 0.0
C2148 C 0.79898 0.06929 0.17336 0.0
C2149 C 0.78056 0.0847 0.18314 0.0
C2150 C 0.86029 0.03348 0.13876 0.0
C2151 C 0.85041 0.01302 0.12773 0.0
C2152 C 0.84221 0.05055 0.14764 0.0
C2153 C 0.81373 0.04791 0.14561 0.0
C2154 C 0.80382 0.02809 0.13414 0.0
C2155 C 0.82192 0.01074 0.1254 0.0
H2156 H 0.63937 0.02736 0.89918 0.0
H2157 H 0.70692 0.98774 0.92479 0.0
H2158 H 0.67146 0.05533 0.88307 0.0
H2159 H 0.73912 0.01597 0.90861 0.0
H2160 H 0.78736 0.0894 0.88668 0.0
H2161 H 0.75472 0.06449 0.90441 0.0
H2162 H 0.70553 0.04724 0.86002 0.0
H2163 H 0.73819 0.07206 0.84224 0.0
C2164 C 0.66106 0.0248 0.90156 0.0
C2165 C 0.67047 1.00519 0.91334 0.0
C2166 C 0.67949 0.04075 0.89218 0.0
C2167 C 0.7079 0.0378 0.89441 0.0
C2168 C 0.71736 0.01889 0.90662 0.0
C2169 C 0.69889 1.00266 0.91589 0.0
C2170 C 0.76947 0.08051 0.88069 0.0
C2171 C 0.76544 0.08284 0.86298 0.0
C2172 C 0.75086 0.06603 0.89086 0.0
C2173 C 0.72749 0.05379 0.88367 0.0
C2174 C 0.72317 0.0566 0.86602 0.0
C2175 C 0.74196 0.07078 0.85581 0.0
H2176 H 0.88484 0.53577 0.88907 0.0
H2177 H 0.81687 0.4885 0.90825 0.0
H2178 H 0.85318 0.56751 0.8757 0.0
H2179 H 0.78492 0.52084 0.89506 0.0
H2180 H 0.73622 0.5692 0.85438 0.0
H2181 H 0.76769 0.53637 0.8675 0.0
H2182 H 0.8211 0.60275 0.88212 0.0
H2183 H 0.79014 0.63528 0.8688 0.0
C2184 C 0.86309 0.53225 0.89061 0.0
C2185 C 0.85352 0.50951 0.89984 0.0
C2186 C 0.84484 0.55062 0.88295 0.0
C2187 C 0.81635 0.54691 0.88424 0.0
C2188 C 0.80669 0.52424 0.89358 0.0
C2189 C 0.82503 0.50581 0.9013 0.0
C2190 C 0.75483 0.57675 0.86024 0.0
C2191 C 0.76063 0.60497 0.86041 0.0
C2192 C 0.77277 0.55792 0.86794 0.0
C2193 C 0.79703 0.56678 0.87596 0.0
C2194 C 0.80288 0.59499 0.87591 0.0
C2195 C 0.785 0.61375 0.86827 0.0
H2196 H 0.68324 0.53243 0.07824 0.0
H2197 H 0.67914 0.46988 0.11693 0.0
H2198 H 0.70886 0.56182 0.0979 0.0
H2199 H 0.7049 0.49856 0.13626 0.0
H2200 H 0.73316 0.56162 0.17357 0.0
H2201 H 0.70334 0.53754 0.15367 0.0
H2202 H 0.75192 0.56718 0.11161 0.0
H2203 H 0.781 0.59201 0.13144 0.0
C2204 C 0.68778 0.52495 0.09091 0.0
C2205 C 0.67869 0.49895 0.09605 0.0
C2206 C 0.70256 0.54174 0.1022 0.0
C2207 C 0.7088 0.53282 0.11886 0.0
C2208 C 0.6999 0.50664 0.12381 0.0
C2209 C 0.68508 0.49006 0.11263 0.0
C2210 C 0.73728 0.56327 0.16007 0.0
C2211 C 0.7596 0.57871 0.15418 0.0
C2212 C 0.72028 0.54925 0.14861 0.0
C2213 C 0.72529 0.55001 0.13093 0.0
C2214 C 0.74711 0.56623 0.12504 0.0
C2215 C 0.76395 0.58042 0.13649 0.0
H2216 H 0.63535 0.49312 0.40481 0.0
H2217 H 0.70307 0.53156 0.43094 0.0
H2218 H 0.66737 0.46562 0.38831 0.0
H2219 H 0.73514 0.50377 0.41441 0.0
H2220 H 0.78268 0.43065 0.39182 0.0
H2221 H 0.74988 0.45478 0.40977 0.0
H2222 H 0.70199 0.4753 0.36535 0.0
H2223 H 0.7349 0.45125 0.3473 0.0
C2224 C 0.65706 0.49547 0.40724 0.0
C2225 C 0.66658 0.51463 0.41925 0.0
C2226 C 0.67542 0.47982 0.39764 0.0
C2227 C 0.70382 0.48262 0.39993 0.0
C2228 C 0.71338 0.50102 0.41239 0.0
C2229 C 0.69499 0.51696 0.42186 0.0
C2230 C 0.76505 0.4401 0.38585 0.0
C2231 C 0.76146 0.43894 0.36806 0.0
C2232 C 0.74635 0.45411 0.39616 0.0
C2233 C 0.72335 0.46703 0.38901 0.0
C2234 C 0.71939 0.46537 0.37129 0.0
C2235 C 0.73831 0.45166 0.36092 0.0
H2236 H 0.83595 0.48165 0.5957 0.0
H2237 H 0.85175 0.53348 0.63908 0.0
H2238 H 0.809 0.45111 0.61363 0.0
H2239 H 0.82412 0.50365 0.65686 0.0
H2240 H 0.78945 0.4347 0.6888 0.0
H2241 H 0.82013 0.46144 0.67085 0.0
H2242 H 0.76688 0.44746 0.62775 0.0
H2243 H 0.7369 0.42003 0.64555 0.0
C2244 C 0.83372 0.48657 0.60907 0.0
C2245 C 0.84619 0.5101 0.61589 0.0
C2246 C 0.81802 0.46911 0.61938 0.0
C2247 C 0.8141 0.47476 0.63682 0.0
C2248 C 0.8269 0.49816 0.64363 0.0
C2249 C 0.84275 0.51547 0.63336 0.0
C2250 C 0.7844 0.43714 0.67546 0.0
C2251 C 0.76063 0.42505 0.66868 0.0
C2252 C 0.80195 0.45271 0.66513 0.0
C2253 C 0.79614 0.4569 0.64773 0.0
C2254 C 0.77249 0.44447 0.64095 0.0
C2255 C 0.7551 0.42874 0.65124 0.0
H2256 H 0.17658 0.49505 0.07997 0.0
H2257 H 0.18331 0.55668 0.11917 0.0
H2258 H 0.20139 0.46276 0.0982 0.0
H2259 H 0.20819 0.52485 0.13708 0.0
H2260 H 0.23137 0.45688 0.17245 0.0
H2261 H 0.20227 0.48417 0.1538 0.0
H2262 H 0.24672 0.4545 0.11006 0.0
H2263 H 0.27541 0.42671 0.12867 0.0
C2264 C 0.18337 0.50176 0.09241 0.0
C2265 C 0.17781 0.5285 0.09807 0.0
C2266 C 0.19765 0.48326 0.10286 0.0
C2267 C 0.20662 0.49106 0.11921 0.0
C2268 C 0.20112 0.51784 0.12476 0.0
C2269 C 0.18696 0.53624 0.11437 0.0
C2270 C 0.23472 0.45585 0.15885 0.0
C2271 C 0.25591 0.4397 0.15212 0.0
C2272 C 0.21814 0.47169 0.14813 0.0
C2273 C 0.22234 0.47189 0.13039 0.0
C2274 C 0.24274 0.45478 0.12361 0.0
C2275 C 0.2593 0.43889 0.13433 0.0
H2276 H 0.32898 0.47471 0.9246 0.0
H2277 H 0.34138 0.52094 0.87839 0.0
H2278 H 0.30292 0.44067 0.90869 0.0
H2279 H 0.31527 0.48676 0.86246 0.0
H2280 H 0.2363 0.438 0.84683 0.0
H2281 H 0.26673 0.47101 0.8606 0.0
H2282 H 0.30815 0.40505 0.88657 0.0
H2283 H 0.2778 0.3721 0.8729 0.0
C2284 C 0.32639 0.47751 0.91102 0.0
C2285 C 0.33732 0.50062 0.90281 0.0
C2286 C 0.31152 0.45789 0.90187 0.0
C2287 C 0.30693 0.46097 0.88428 0.0
C2288 C 0.31819 0.48388 0.87601 0.0
C2289 C 0.33334 0.50337 0.88514 0.0
C2290 C 0.25211 0.43049 0.85531 0.0
C2291 C 0.25448 0.40234 0.85877 0.0
C2292 C 0.26962 0.44943 0.86317 0.0
C2293 C 0.28978 0.44072 0.87481 0.0
C2294 C 0.29263 0.41251 0.87787 0.0
C2295 C 0.27531 0.39358 0.86991 0.0
H2296 H 0.26456 0.55858 0.69369 0.0
H2297 H 0.26117 0.61868 0.65345 0.0
H2298 H 0.29492 0.53024 0.67637 0.0
H2299 H 0.29226 0.59046 0.63627 0.0
H2300 H 0.37607 0.54086 0.62469 0.0
H2301 H 0.34467 0.57136 0.63998 0.0
H2302 H 0.28785 0.50464 0.64633 0.0
H2303 H 0.31873 0.47433 0.63069 0.0
C2304 C 0.27055 0.56592 0.68123 0.0
C2305 C 0.26044 0.59093 0.67497 0.0
C2306 C 0.28778 0.54957 0.67127 0.0
C2307 C 0.29585 0.55809 0.65495 0.0
C2308 C 0.28637 0.58342 0.64881 0.0
C2309 C 0.26856 0.59951 0.65863 0.0
C2310 C 0.3567 0.5328 0.62914 0.0
C2311 C 0.34991 0.50515 0.62644 0.0
C2312 C 0.33874 0.55028 0.63786 0.0
C2313 C 0.31392 0.54031 0.64443 0.0
C2314 C 0.30692 0.51282 0.64149 0.0
C2315 C 0.32455 0.49553 0.63244 0.0
H2316 H 0.28572 0.56894 0.35513 0.0
H2317 H 0.24993 0.64093 0.37796 0.0
H2318 H 0.25505 0.54007 0.37195 0.0
H2319 H 0.2195 0.61207 0.39477 0.0
H2320 H 0.19893 0.54812 0.43738 0.0
H2321 H 0.22552 0.57862 0.41905 0.0
H2322 H 0.20488 0.52902 0.37545 0.0
H2323 H 0.17825 0.49866 0.39364 0.0
C2324 C 0.27114 0.57863 0.36357 0.0
C2325 C 0.27032 0.60728 0.36515 0.0
C2326 C 0.25352 0.56209 0.37319 0.0
C2327 C 0.23494 0.57379 0.38478 0.0
C2328 C 0.23377 0.60242 0.3861 0.0
C2329 C 0.25109 0.61896 0.37634 0.0
C2330 C 0.19979 0.5439 0.42386 0.0
C2331 C 0.18638 0.52092 0.41703 0.0
C2332 C 0.21498 0.56141 0.41334 0.0
C2333 C 0.21743 0.55615 0.39579 0.0
C2334 C 0.20363 0.53347 0.38893 0.0
C2335 C 0.18818 0.5162 0.39938 0.0
H2336 H 0.29618 0.35053 0.2444 0.0
H2337 H 0.2605 0.2964 0.20704 0.0
H2338 H 0.28024 0.32072 0.26714 0.0
H2339 H 0.24471 0.26628 0.22984 0.0
H2340 H 0.19801 0.23293 0.27588 0.0
H2341 H 0.21287 0.26313 0.25309 0.0
H2342 H 0.28947 0.2765 0.27936 0.0
H2343 H 0.27405 0.24721 0.3026 0.0
C2344 C 0.285 0.33216 0.24104 0.0
C2345 C 0.27974 0.32577 0.22388 0.0
C2346 C 0.27596 0.31499 0.25409 0.0
C2347 C 0.26141 0.29091 0.25037 0.0
C2348 C 0.25563 0.28479 0.23321 0.0
C2349 C 0.26464 0.30206 0.22012 0.0
C2350 C 0.21791 0.24256 0.27693 0.0
C2351 C 0.23472 0.23779 0.29121 0.0
C2352 C 0.22658 0.25962 0.26371 0.0
C2353 C 0.25236 0.27234 0.26435 0.0
C2354 C 0.26932 0.26736 0.27854 0.0
C2355 C 0.26062 0.25029 0.29179 0.0
H2356 H 0.03215 1.00201 0.55194 0.0
H2357 H 0.07365 0.95404 0.51362 0.0
H2358 H 1.00221 0.02068 0.53025 0.0
H2359 H 0.0419 0.97035 0.49235 0.0
H2360 H 0.99656 0.02137 0.45323 0.0
H2361 H 0.02834 1.00468 0.47481 0.0
H2362 H 0.96528 0.01365 0.51306 0.0
H2363 H 0.93446 0.03209 0.49152 0.0
C2364 C 0.035 0.99529 0.53894 0.0
C2365 C 0.05559 0.97624 0.53479 0.0
C2366 C 0.01729 1.00569 0.52642 0.0
C2367 C 0.01914 0.99704 0.50933 0.0
C2368 C 0.03976 0.97803 0.5052 0.0
C2369 C 0.05782 0.96811 0.51762 0.0
C2370 C 0.98959 0.01963 0.46627 0.0
C2371 C 0.96306 0.028 0.47069 0.0
C2372 C 1.00777 1.00989 0.47873 0.0
C2373 C 0.99971 1.00763 0.49593 0.0
C2374 C 0.97279 0.01558 0.50017 0.0
C2375 C 0.95489 0.02591 0.48777 0.0
H2376 H 0.32696 0.79836 0.79371 0.0
H2377 H 0.24713 0.83595 0.79713 0.0
H2378 H 0.31065 0.76901 0.77087 0.0
H2379 H 0.23042 0.80569 0.77462 0.0
H2380 H 0.21862 0.76765 0.72153 0.0
H2381 H 0.23491 0.79771 0.7442 0.0
H2382 H 0.28108 0.73071 0.76575 0.0
H2383 H 0.2649 0.70078 0.74313 0.0
C2384 C 0.30588 0.80039 0.78959 0.0
C2385 C 0.28843 0.81973 0.79721 0.0
C2386 C 0.29643 0.78328 0.77659 0.0
C2387 C 0.2692 0.78493 0.77083 0.0
C2388 C 0.25162 0.80407 0.77857 0.0
C2389 C 0.26109 0.82121 0.79162 0.0
C2390 C 0.23222 0.75932 0.73112 0.0
C2391 C 0.24053 0.73177 0.73041 0.0
C2392 C 0.24149 0.77655 0.74417 0.0
C2393 C 0.25931 0.76668 0.75686 0.0
C2394 C 0.26774 0.73918 0.75607 0.0
C2395 C 0.25851 0.72199 0.74303 0.0
H2396 H 0.48585 0.07315 0.04391 0.0
H2397 H 0.45997 0.99141 0.05746 0.0
H2398 H 0.51561 0.05453 0.02228 0.0
H2399 H 0.48777 0.97293 0.03462 0.0
H2400 H 0.56089 0.94453 1.00356 0.0
H2401 H 0.5318 0.96289 0.02598 0.0
H2402 H 0.5175 0.03536 0.99557 0.0
H2403 H 0.54799 0.01743 0.9737 0.0
C2404 C 0.48645 0.05117 0.04236 0.0
C2405 C 0.47051 0.03388 0.05272 0.0
C2406 C 0.50322 0.04045 0.0296 0.0
C2407 C 0.5042 0.01211 0.02648 0.0
C2408 C 0.48804 0.99482 0.03671 0.0
C2409 C 0.47163 1.00551 0.04971 0.0
C2410 C 0.55143 0.96437 1.00173 0.0
C2411 C 0.55668 0.9796 0.98694 0.0
C2412 C 0.53457 0.97489 0.01454 0.0
C2413 C 0.52209 1.00073 0.01273 0.0
C2414 C 0.52712 0.01571 0.99771 0.0
C2415 C 0.54444 1.00539 0.98507 0.0
H2416 H 0.28175 0.81469 0.22281 0.0
H2417 H 0.20102 0.78507 0.23581 0.0
H2418 H 0.30158 0.7847 0.24415 0.0
H2419 H 0.22102 0.75332 0.25586 0.0
H2420 H 0.25996 0.71882 0.30344 0.0
H2421 H 0.24067 0.75003 0.28243 0.0
H2422 H 0.31312 0.74025 0.25138 0.0
H2423 H 0.33282 0.71028 0.273 0.0
C2424 C 0.26816 0.80171 0.2301 0.0
C2425 C 0.23965 0.80256 0.22745 0.0
C2426 C 0.27964 0.78407 0.24222 0.0
C2427 C 0.26303 0.7664 0.25188 0.0
C2428 C 0.23459 0.76688 0.24899 0.0
C2429 C 0.22307 0.78484 0.23711 0.0
C2430 C 0.27168 0.72343 0.2921 0.0
C2431 C 0.29786 0.7122 0.28984 0.0
C2432 C 0.26058 0.74119 0.27994 0.0
C2433 C 0.27516 0.74774 0.26501 0.0
C2434 C 0.30138 0.73624 0.26278 0.0
C2435 C 0.31268 0.7189 0.27512 0.0
H2436 H 0.52315 0.07057 0.5388 0.0
H2437 H 0.5803 1.00586 0.52746 0.0
H2438 H 0.49179 0.05295 0.5173 0.0
H2439 H 0.5496 0.98874 0.50538 0.0
H2440 H 0.4784 0.94911 0.47779 0.0
H2441 H 0.50881 0.96611 0.49973 0.0
H2442 H 0.48408 0.04894 0.48806 0.0
H2443 H 0.45192 0.03167 0.46696 0.0
C2444 C 0.52906 0.05263 0.5316 0.0
C2445 C 0.55418 0.03958 0.53483 0.0
C2446 C 0.51116 0.0426 0.51914 0.0
C2447 C 0.51805 0.01944 0.50938 0.0
C2448 C 0.54321 1.00632 0.51275 0.0
C2449 C 0.56093 0.01614 0.5254 0.0
C2450 C 0.47901 0.97094 0.48003 0.0
C2451 C 0.46223 0.98891 0.47063 0.0
C2452 C 0.49694 0.98079 0.49251 0.0
C2453 C 0.49907 1.00899 0.49584 0.0
C2454 C 0.48276 0.02704 0.48616 0.0
C2455 C 0.46454 0.01714 0.4738 0.0
H2456 H 0.27371 0.29143 0.79759 0.0
H2457 H 0.19198 0.26731 0.78267 0.0
H2458 H 0.2927 0.26046 0.77655 0.0
H2459 H 0.21099 0.23468 0.76272 0.0
H2460 H 0.25136 0.1994 0.71547 0.0
H2461 H 0.23225 0.2306 0.7365 0.0
H2462 H 0.30148 0.21512 0.76953 0.0
H2463 H 0.32102 0.18493 0.74805 0.0
C2464 C 0.25971 0.27949 0.78991 0.0
C2465 C 0.23119 0.28214 0.79195 0.0
C2466 C 0.27068 0.26127 0.77796 0.0
C2467 C 0.2535 0.24482 0.76781 0.0
C2468 C 0.225 0.2472 0.77003 0.0
C2469 C 0.21403 0.26569 0.7818 0.0
C2470 C 0.26238 0.2026 0.72728 0.0
C2471 C 0.2877 0.18974 0.73009 0.0
C2472 C 0.25138 0.22043 0.73943 0.0
C2473 C 0.2652 0.22557 0.75487 0.0
C2474 C 0.29041 0.21228 0.75773 0.0
C2475 C 0.30159 0.19478 0.74544 0.0
H2476 H 0.97635 0.94699 0.04647 0.0
H2477 H 0.95345 0.02968 0.05989 0.0
H2478 H 1.00691 0.96447 0.02488 0.0
H2479 H 0.98197 0.04705 0.03708 0.0
H2480 H 0.05605 0.07298 1.00633 0.0
H2481 H 0.0263 0.05549 0.02866 0.0
H2482 H 1.00997 0.98355 0.99818 0.0
H2483 H 0.0412 1.00058 0.97641 0.0
C2484 C 0.97777 0.96894 0.0449 0.0
C2485 C 0.96243 0.98682 0.05521 0.0
C2486 C 0.995 0.97901 0.03216 0.0
C2487 C 0.99705 1.00729 0.02903 0.0
C2488 C 0.98144 0.02518 0.03919 0.0
C2489 C 0.96461 0.01512 0.05217 0.0
C2490 C 0.046 0.05345 1.00447 0.0
C2491 C 0.05086 0.03811 0.98968 0.0
C2492 C 0.02876 0.04343 0.01722 0.0
C2493 C 0.01546 0.01802 0.01536 0.0
C2494 C 0.02017 1.00289 1.00036 0.0
C2495 C 0.03791 0.01269 0.98777 0.0
H2496 H 0.76278 0.78207 0.70556 0.0
H2497 H 0.80124 0.83085 0.74478 0.0
H2498 H 0.74432 0.75162 0.72747 0.0
H2499 H 0.78374 0.79989 0.76637 0.0
H2500 H 0.77467 0.72047 0.7976 0.0
H2501 H 0.79165 0.75043 0.775 0.0
H2502 H 0.71088 0.75304 0.75271 0.0
H2503 H 0.69386 0.72311 0.77535 0.0
C2504 C 0.76722 0.78648 0.71879 0.0
C2505 C 0.7839 0.80888 0.72326 0.0
C2506 C 0.75671 0.76892 0.73134 0.0
C2507 C 0.76286 0.77315 0.74865 0.0
C2508 C 0.77909 0.79573 0.75314 0.0
C2509 C 0.78924 0.81343 0.74067 0.0
C2510 C 0.76057 0.72735 0.78784 0.0
C2511 C 0.73289 0.71954 0.78834 0.0
C2512 C 0.77025 0.74463 0.77495 0.0
C2513 C 0.75259 0.75417 0.76208 0.0
C2514 C 0.72502 0.74594 0.76238 0.0
C2515 C 0.71524 0.729 0.77544 0.0
H2516 H 0.77194 0.29416 0.31426 0.0
H2517 H 0.80088 0.35117 0.27639 0.0
H2518 H 0.75478 0.26414 0.29168 0.0
H2519 H 0.78354 0.32123 0.25381 0.0
H2520 H 0.71965 0.27271 0.22075 0.0
H2521 H 0.73707 0.30351 0.2429 0.0
H2522 H 0.77592 0.23513 0.26793 0.0
H2523 H 0.75872 0.20443 0.24578 0.0
C2524 C 0.77444 0.30037 0.30112 0.0
C2525 C 0.78777 0.32505 0.29712 0.0
C2526 C 0.76481 0.28309 0.28819 0.0
C2527 C 0.76785 0.29028 0.27095 0.0
C2528 C 0.78076 0.31518 0.26696 0.0
C2529 C 0.79083 0.33223 0.27988 0.0
C2530 C 0.73201 0.26431 0.23095 0.0
C2531 C 0.73789 0.23614 0.23146 0.0
C2532 C 0.74207 0.28195 0.24359 0.0
C2533 C 0.75779 0.27174 0.25721 0.0
C2534 C 0.7637 0.24359 0.25769 0.0
C2535 C 0.75406 0.22606 0.24491 0.0
H2536 H 0.82955 0.22235 0.78956 0.0
H2537 H 0.75024 0.18378 0.79349 0.0
H2538 H 0.8126 0.25131 0.7668 0.0
H2539 H 0.73273 0.21407 0.77133 0.0
H2540 H 0.71654 0.25301 0.71938 0.0
H2541 H 0.73408 0.22301 0.74169 0.0
H2542 H 0.78458 0.28898 0.76057 0.0
H2543 H 0.76748 0.31864 0.73803 0.0
C2544 C 0.80844 0.21997 0.7856 0.0
C2545 C 0.79142 0.20035 0.79337 0.0
C2546 C 0.79856 0.23699 0.77263 0.0
C2547 C 0.7712 0.2352 0.76707 0.0
C2548 C 0.75402 0.21586 0.77501 0.0
C2549 C 0.76399 0.19868 0.78795 0.0
C2550 C 0.73143 0.26108 0.72828 0.0
C2551 C 0.74064 0.28826 0.72682 0.0
C2552 C 0.74141 0.24389 0.74118 0.0
C2553 C 0.76076 0.25343 0.75311 0.0
C2554 C 0.77009 0.2806 0.75153 0.0
C2555 C 0.76027 0.2977 0.73855 0.0
H2556 H 0.75595 0.81343 0.27932 0.0
H2557 H 0.71768 0.74609 0.30568 0.0
H2558 H 0.77115 0.78212 0.25693 0.0
H2559 H 0.73297 0.71475 0.28332 0.0
H2560 H 0.79404 0.66545 0.24931 0.0
H2561 H 0.7779 0.69606 0.27179 0.0
H2562 H 0.74885 0.75289 0.23377 0.0
H2563 H 0.76493 0.72216 0.21125 0.0
C2564 C 0.75103 0.79189 0.28041 0.0
C2565 C 0.73567 0.78223 0.2943 0.0
C2566 C 0.75948 0.77402 0.26751 0.0
C2567 C 0.75316 0.74597 0.26831 0.0
C2568 C 0.73825 0.73622 0.28236 0.0
C2569 C 0.72941 0.75418 0.29513 0.0
C2570 C 0.78409 0.68443 0.24576 0.0
C2571 C 0.78075 0.69138 0.2285 0.0
C2572 C 0.77474 0.70189 0.25863 0.0
C2573 C 0.7622 0.72696 0.25457 0.0
C2574 C 0.75864 0.73383 0.23731 0.0
C2575 C 0.76761 0.71613 0.22442 0.0
H2576 H 0.48347 0.51341 0.95382 0.0
H2577 H 0.42514 0.53929 0.99175 0.0
H2578 H 0.5139 0.49666 0.97638 0.0
H2579 H 0.45546 0.52246 0.01426 0.0
H2580 H 0.505 0.46007 0.04712 0.0
H2581 H 0.47425 0.47678 0.02476 0.0
H2582 H 0.54209 0.5178 1.00059 0.0
H2583 H 0.57281 0.5012 0.023 0.0
C2584 C 0.47706 0.5153 0.96696 0.0
C2585 C 0.45191 0.52767 0.971 0.0
C2586 C 0.49457 0.50594 0.97987 0.0
C2587 C 0.48712 0.50831 0.99711 0.0
C2588 C 0.46173 0.52022 1.00111 0.0
C2589 C 0.44445 0.52998 0.98823 0.0
C2590 C 0.51331 0.47272 0.03705 0.0
C2591 C 0.54133 0.47936 0.03684 0.0
C2592 C 0.49569 0.48238 0.0243 0.0
C2593 C 0.50576 0.49851 1.01087 0.0
C2594 C 0.53376 0.50522 1.01068 0.0
C2595 C 0.55129 0.49594 0.0236 0.0
H2596 H 0.08408 0.53042 0.48882 0.0
H2597 H 0.04684 0.45027 0.48956 0.0
H2598 H 0.0541 0.54476 0.51198 0.0
H2599 H 0.01807 0.46405 0.51322 0.0
H2600 H 0.95128 0.50585 0.54468 0.0
H2601 H 0.98016 0.49142 0.52104 0.0
H2602 H 0.04739 0.53829 0.54179 0.0
H2603 H 0.01826 0.55309 0.56522 0.0
C2604 C 0.06946 0.51587 0.49385 0.0
C2605 C 0.06811 0.48911 0.48734 0.0
C2606 C 0.0525 0.52397 0.50733 0.0
C2607 C 0.03374 0.50552 0.51466 0.0
C2608 C 0.03205 0.47894 0.50789 0.0
C2609 C 0.04888 0.47091 0.49441 0.0
C2610 C 0.97236 0.51272 0.54433 0.0
C2611 C 0.98244 0.53063 0.55685 0.0
C2612 C 0.98896 0.5045 0.53073 0.0
C2613 C 0.01616 0.51382 0.52935 0.0
C2614 C 0.02641 0.53117 0.54216 0.0
C2615 C 1.00976 0.53952 0.55569 0.0
H2616 H 0.03068 0.58579 0.03243 0.0
H2617 H 0.07522 0.50978 0.03647 0.0
H2618 H 1.00081 0.56549 1.01092 0.0
H2619 H 0.04512 0.48934 0.01498 0.0
H2620 H 1.00644 0.47598 0.96138 0.0
H2621 H 0.03571 0.49491 0.98364 0.0
H2622 H 0.96484 0.52943 1.00834 0.0
H2623 H 0.9354 0.50989 0.98647 0.0
C2624 C 0.03407 0.56471 0.02873 0.0
C2625 C 0.05541 0.54943 0.03613 0.0
C2626 C 0.01681 0.55302 0.01649 0.0
C2627 C 0.02061 0.52581 1.01118 0.0
C2628 C 0.04181 0.51043 0.01867 0.0
C2629 C 0.05889 0.52204 0.03109 0.0
C2630 C 0.99696 0.48732 0.97163 0.0
C2631 C 0.9684 0.49139 0.97196 0.0
C2632 C 0.01381 0.49821 0.98441 0.0
C2633 C 1.00264 0.51371 0.99777 0.0
C2634 C 0.97417 0.51789 0.99811 0.0
C2635 C 0.95728 0.50678 0.98545 0.0
H2636 H 0.53255 0.57711 0.49705 0.0
H2637 H 0.55824 0.49522 0.4837 0.0
H2638 H 0.5002 0.55846 0.51723 0.0
H2639 H 0.5279 0.47671 0.50515 0.0
H2640 H 0.45406 0.4475 0.5344 0.0
H2641 H 0.48344 0.46688 0.51245 0.0
H2642 H 0.49565 0.53884 0.54365 0.0
H2643 H 0.46477 0.51991 0.56498 0.0
C2644 C 0.53137 0.5551 0.49832 0.0
C2645 C 0.54815 0.53779 0.48851 0.0
C2646 C 0.51306 0.54435 0.51025 0.0
C2647 C 0.51131 0.51596 0.51305 0.0
C2648 C 0.52815 0.49865 0.50328 0.0
C2649 C 0.54607 0.50937 0.4911 0.0
C2650 C 0.46298 0.46753 0.53644 0.0
C2651 C 0.45719 0.48226 0.55133 0.0
C2652 C 0.48005 0.47862 0.52393 0.0
C2653 C 0.49227 0.50449 0.52617 0.0
C2654 C 0.48633 0.51915 0.54118 0.0
C2655 C 0.46876 0.50828 0.55351 0.0
loop_
_geom_bond_atom_site_label_1
_geom_bond_atom_site_label_2
_geom_bond_distance
_geom_bond_site_symmetry_2
_ccdc_geom_bond_type
Co0 N4 2.148 . S
Co0 N10 2.128 . S
Co0 N20 2.194 . S
Co0 O25 2.351 . S
Co0 O26 2.155 . S
Co0 O27 2.096 . S
C1 N4 1.301 . S
C1 N5 1.328 . S
C1 H6 0.930 . S
C2 C3 1.333 . S
C2 N4 1.317 . S
C2 H7 0.930 . S
C3 C2 1.333 . S
C3 N5 1.350 . S
C3 H29 0.931 . S
N4 Co0 2.148 . S
N4 C1 1.301 . S
N4 C2 1.317 . S
N5 C1 1.328 . S
N5 C3 1.350 . S
H6 C1 0.930 . S
H7 C2 0.930 . S
C8 O9 1.224 . S
C8 O27 1.247 . S
O9 C8 1.224 . S
N10 Co0 2.128 . S
N10 C11 1.355 . S
N10 C13 1.311 . S
C11 N10 1.355 . S
C11 C12 1.363 . S
C11 H23 0.929 . S
C12 C11 1.363 . S
C12 N14 1.375 . S
C12 H30 0.931 . S
C13 N10 1.311 . S
C13 N14 1.347 . S
C13 H24 0.929 . S
N14 C12 1.375 . S
N14 C13 1.347 . S
C15 C18 1.365 . S
C15 N20 1.328 . S
C15 H21 0.929 . S
C16 C17 1.362 . S
C16 C19 1.378 . S
C16 H31 0.929 . S
C17 C16 1.362 . S
C17 C18 1.366 . S
C18 C15 1.365 . S
C18 C17 1.366 . S
C18 H32 0.930 . S
C19 C16 1.378 . S
C19 N20 1.315 . S
C19 H22 0.930 . S
N20 Co0 2.194 . S
N20 C15 1.328 . S
N20 C19 1.315 . S
H21 C15 0.929 . S
H22 C19 0.930 . S
H23 C11 0.929 . S
H24 C13 0.929 . S
O25 Co0 2.351 . S
O25 C28 1.244 . S
O26 Co0 2.155 . S
O26 C28 1.240 . S
O27 Co0 2.096 . S
O27 C8 1.247 . S
C28 O25 1.244 . S
C28 O26 1.240 . S
H29 C3 0.931 . S
H30 C12 0.931 . S
H31 C16 0.929 . S
H32 C18 0.930 . S
Co33 N37 2.148 . S
Co33 N43 2.128 . S
Co33 N53 2.194 . S
Co33 O58 2.351 . S
Co33 O59 2.155 . S
Co33 O60 2.096 . S
C34 N37 1.301 . S
C34 N38 1.328 . S
C34 H39 0.930 . S
C35 C36 1.333 . S
C35 N37 1.317 . S
C35 H40 0.930 . S
C36 C35 1.333 . S
C36 N38 1.350 . S
C36 H62 0.931 . S
N37 Co33 2.148 . S
N37 C34 1.301 . S
N37 C35 1.317 . S
N38 C34 1.328 . S
N38 C36 1.350 . S
H39 C34 0.930 . S
H40 C35 0.930 . S
C41 O42 1.224 . S
C41 O60 1.247 . S
O42 C41 1.224 . S
N43 Co33 2.128 . S
N43 C44 1.355 . S
N43 C46 1.311 . S
C44 N43 1.355 . S
C44 C45 1.363 . S
C44 H56 0.929 . S
C45 C44 1.363 . S
C45 N47 1.375 . S
C45 H63 0.931 . S
C46 N43 1.311 . S
C46 N47 1.347 . S
C46 H57 0.929 . S
N47 C45 1.375 . S
N47 C46 1.347 . S
C48 C51 1.365 . S
C48 N53 1.328 . S
C48 H54 0.929 . S
C49 C50 1.362 . S
C49 C52 1.378 . S
C49 H64 0.929 . S
C50 C49 1.362 . S
C50 C51 1.366 . S
C51 C48 1.365 . S
C51 C50 1.366 . S
C51 H65 0.930 . S
C52 C49 1.378 . S
C52 N53 1.315 . S
C52 H55 0.930 . S
N53 Co33 2.194 . S
N53 C48 1.328 . S
N53 C52 1.315 . S
H54 C48 0.929 . S
H55 C52 0.930 . S
H56 C44 0.929 . S
H57 C46 0.929 . S
O58 Co33 2.351 . S
O58 C61 1.244 . S
O59 Co33 2.155 . S
O59 C61 1.240 . S
O60 Co33 2.096 . S
O60 C41 1.247 . S
C61 O58 1.244 . S
C61 O59 1.240 . S
H62 C36 0.931 . S
H63 C45 0.931 . S
H64 C49 0.929 . S
H65 C51 0.930 . S
Co66 N70 2.148 . S
Co66 N76 2.128 . S
Co66 N86 2.194 . S
Co66 O91 2.351 . S
Co66 O92 2.155 . S
Co66 O93 2.096 . S
C67 N70 1.301 . S
C67 N71 1.328 . S
C67 H72 0.930 . S
C68 C69 1.333 . S
C68 N70 1.317 . S
C68 H73 0.930 . S
C69 C68 1.333 . S
C69 N71 1.350 . S
C69 H95 0.931 . S
N70 Co66 2.148 . S
N70 C67 1.301 . S
N70 C68 1.317 . S
N71 C67 1.328 . S
N71 C69 1.350 . S
H72 C67 0.930 . S
H73 C68 0.930 . S
C74 O75 1.224 . S
C74 O93 1.247 . S
O75 C74 1.224 . S
N76 Co66 2.128 . S
N76 C77 1.355 . S
N76 C79 1.311 . S
C77 N76 1.355 . S
C77 C78 1.363 . S
C77 H89 0.929 . S
C78 C77 1.363 . S
C78 N80 1.375 . S
C78 H96 0.931 . S
C79 N76 1.311 . S
C79 N80 1.347 . S
C79 H90 0.929 . S
N80 C78 1.375 . S
N80 C79 1.347 . S
C81 C84 1.365 . S
C81 N86 1.328 . S
C81 H87 0.929 . S
C82 C83 1.362 . S
C82 C85 1.378 . S
C82 H97 0.929 . S
C83 C82 1.362 . S
C83 C84 1.366 . S
C84 C81 1.365 . S
C84 C83 1.366 . S
C84 H98 0.930 . S
C85 C82 1.378 . S
C85 N86 1.315 . S
C85 H88 0.930 . S
N86 Co66 2.194 . S
N86 C81 1.328 . S
N86 C85 1.315 . S
H87 C81 0.929 . S
H88 C85 0.930 . S
H89 C77 0.929 . S
H90 C79 0.929 . S
O91 Co66 2.351 . S
O91 C94 1.244 . S
O92 Co66 2.155 . S
O92 C94 1.240 . S
O93 Co66 2.096 . S
O93 C74 1.247 . S
C94 O91 1.244 . S
C94 O92 1.240 . S
H95 C69 0.931 . S
H96 C78 0.931 . S
H97 C82 0.929 . S
H98 C84 0.930 . S
Co99 N103 2.148 . S
Co99 N109 2.128 . S
Co99 N119 2.194 . S
Co99 O124 2.351 . S
Co99 O125 2.155 . S
Co99 O126 2.096 . S
C100 N103 1.301 . S
C100 N104 1.328 . S
C100 H105 0.930 . S
C101 C102 1.333 . S
C101 N103 1.317 . S
C101 H106 0.930 . S
C102 C101 1.333 . S
C102 N104 1.350 . S
C102 H128 0.931 . S
N103 Co99 2.148 . S
N103 C100 1.301 . S
N103 C101 1.317 . S
N104 C100 1.328 . S
N104 C102 1.350 . S
H105 C100 0.930 . S
H106 C101 0.930 . S
C107 O108 1.224 . S
C107 O126 1.247 . S
O108 C107 1.224 . S
N109 Co99 2.128 . S
N109 C110 1.355 . S
N109 C112 1.311 . S
C110 N109 1.355 . S
C110 C111 1.363 . S
C110 H122 0.929 . S
C111 C110 1.363 . S
C111 N113 1.375 . S
C111 H129 0.931 . S
C112 N109 1.311 . S
C112 N113 1.347 . S
C112 H123 0.929 . S
N113 C111 1.375 . S
N113 C112 1.347 . S
C114 C117 1.365 . S
C114 N119 1.328 . S
C114 H120 0.929 . S
C115 C116 1.362 . S
C115 C118 1.378 . S
C115 H130 0.929 . S
C116 C115 1.362 . S
C116 C117 1.366 . S
C117 C114 1.365 . S
C117 C116 1.366 . S
C117 H131 0.930 . S
C118 C115 1.378 . S
C118 N119 1.315 . S
C118 H121 0.930 . S
N119 Co99 2.194 . S
N119 C114 1.328 . S
N119 C118 1.315 . S
H120 C114 0.929 . S
H121 C118 0.930 . S
H122 C110 0.929 . S
H123 C112 0.929 . S
O124 Co99 2.351 . S
O124 C127 1.244 . S
O125 Co99 2.155 . S
O125 C127 1.240 . S
O126 Co99 2.096 . S
O126 C107 1.247 . S
C127 O124 1.244 . S
C127 O125 1.240 . S
H128 C102 0.931 . S
H129 C111 0.931 . S
H130 C115 0.929 . S
H131 C117 0.930 . S
Co132 N136 2.148 . S
Co132 N142 2.128 . S
Co132 N152 2.194 . S
Co132 O157 2.351 . S
Co132 O158 2.155 . S
Co132 O159 2.096 . S
C133 N136 1.301 . S
C133 N137 1.328 . S
C133 H138 0.930 . S
C134 C135 1.333 . S
C134 N136 1.317 . S
C134 H139 0.930 . S
C135 C134 1.333 . S
C135 N137 1.350 . S
C135 H161 0.931 . S
N136 Co132 2.148 . S
N136 C133 1.301 . S
N136 C134 1.317 . S
N137 C133 1.328 . S
N137 C135 1.350 . S
H138 C133 0.930 . S
H139 C134 0.930 . S
C140 O141 1.224 . S
C140 O159 1.247 . S
O141 C140 1.224 . S
N142 Co132 2.128 . S
N142 C143 1.355 . S
N142 C145 1.311 . S
C143 N142 1.355 . S
C143 C144 1.363 . S
C143 H155 0.929 . S
C144 C143 1.363 . S
C144 N146 1.375 . S
C144 H162 0.931 . S
C145 N142 1.311 . S
C145 N146 1.347 . S
C145 H156 0.929 . S
N146 C144 1.375 . S
N146 C145 1.347 . S
C147 C150 1.365 . S
C147 N152 1.328 . S
C147 H153 0.929 . S
C148 C149 1.362 . S
C148 C151 1.378 . S
C148 H163 0.929 . S
C149 C148 1.362 . S
C149 C150 1.366 . S
C150 C147 1.365 . S
C150 C149 1.366 . S
C150 H164 0.930 . S
C151 C148 1.378 . S
C151 N152 1.315 . S
C151 H154 0.930 . S
N152 Co132 2.194 . S
N152 C147 1.328 . S
N152 C151 1.315 . S
H153 C147 0.929 . S
H154 C151 0.930 . S
H155 C143 0.929 . S
H156 C145 0.929 . S
O157 Co132 2.351 . S
O157 C160 1.244 . S
O158 Co132 2.155 . S
O158 C160 1.240 . S
O159 Co132 2.096 . S
O159 C140 1.247 . S
C160 O157 1.244 . S
C160 O158 1.240 . S
H161 C135 0.931 . S
H162 C144 0.931 . S
H163 C148 0.929 . S
H164 C150 0.930 . S
Co165 N169 2.148 . S
Co165 N175 2.128 . S
Co165 N185 2.194 . S
Co165 O190 2.351 . S
Co165 O191 2.155 . S
Co165 O192 2.096 . S
C166 N169 1.301 . S
C166 N170 1.328 . S
C166 H171 0.930 . S
C167 C168 1.333 . S
C167 N169 1.317 . S
C167 H172 0.930 . S
C168 C167 1.333 . S
C168 N170 1.350 . S
C168 H194 0.931 . S
N169 Co165 2.148 . S
N169 C166 1.301 . S
N169 C167 1.317 . S
N170 C166 1.328 . S
N170 C168 1.350 . S
H171 C166 0.930 . S
H172 C167 0.930 . S
C173 O174 1.224 . S
C173 O192 1.247 . S
O174 C173 1.224 . S
N175 Co165 2.128 . S
N175 C176 1.355 . S
N175 C178 1.311 . S
C176 N175 1.355 . S
C176 C177 1.363 . S
C176 H188 0.929 . S
C177 C176 1.363 . S
C177 N179 1.375 . S
C177 H195 0.931 . S
C178 N175 1.311 . S
C178 N179 1.347 . S
C178 H189 0.929 . S
N179 C177 1.375 . S
N179 C178 1.347 . S
C180 C183 1.365 . S
C180 N185 1.328 . S
C180 H186 0.929 . S
C181 C182 1.362 . S
C181 C184 1.378 . S
C181 H196 0.929 . S
C182 C181 1.362 . S
C182 C183 1.366 . S
C183 C180 1.365 . S
C183 C182 1.366 . S
C183 H197 0.930 . S
C184 C181 1.378 . S
C184 N185 1.315 . S
C184 H187 0.930 . S
N185 Co165 2.194 . S
N185 C180 1.328 . S
N185 C184 1.315 . S
H186 C180 0.929 . S
H187 C184 0.930 . S
H188 C176 0.929 . S
H189 C178 0.929 . S
O190 Co165 2.351 . S
O190 C193 1.244 . S
O191 Co165 2.155 . S
O191 C193 1.240 . S
O192 Co165 2.096 . S
O192 C173 1.247 . S
C193 O190 1.244 . S
C193 O191 1.240 . S
H194 C168 0.931 . S
H195 C177 0.931 . S
H196 C181 0.929 . S
H197 C183 0.930 . S
Co198 N202 2.148 . S
Co198 N208 2.128 . S
Co198 N218 2.194 . S
Co198 O223 2.351 . S
Co198 O224 2.155 . S
Co198 O225 2.096 . S
C199 N202 1.301 . S
C199 N203 1.328 . S
C199 H204 0.930 . S
C200 C201 1.333 . S
C200 N202 1.317 . S
C200 H205 0.930 . S
C201 C200 1.333 . S
C201 N203 1.350 . S
C201 H227 0.931 . S
N202 Co198 2.148 . S
N202 C199 1.301 . S
N202 C200 1.317 . S
N203 C199 1.328 . S
N203 C201 1.350 . S
H204 C199 0.930 . S
H205 C200 0.930 . S
C206 O207 1.224 . S
C206 O225 1.247 . S
O207 C206 1.224 . S
N208 Co198 2.128 . S
N208 C209 1.355 . S
N208 C211 1.311 . S
C209 N208 1.355 . S
C209 C210 1.363 . S
C209 H221 0.929 . S
C210 C209 1.363 . S
C210 N212 1.375 . S
C210 H228 0.931 . S
C211 N208 1.311 . S
C211 N212 1.347 . S
C211 H222 0.929 . S
N212 C210 1.375 . S
N212 C211 1.347 . S
C213 C216 1.365 . S
C213 N218 1.328 . S
C213 H219 0.929 . S
C214 C215 1.362 . S
C214 C217 1.378 . S
C214 H229 0.929 . S
C215 C214 1.362 . S
C215 C216 1.366 . S
C216 C213 1.365 . S
C216 C215 1.366 . S
C216 H230 0.930 . S
C217 C214 1.378 . S
C217 N218 1.315 . S
C217 H220 0.930 . S
N218 Co198 2.194 . S
N218 C213 1.328 . S
N218 C217 1.315 . S
H219 C213 0.929 . S
H220 C217 0.930 . S
H221 C209 0.929 . S
H222 C211 0.929 . S
O223 Co198 2.351 . S
O223 C226 1.244 . S
O224 Co198 2.155 . S
O224 C226 1.240 . S
O225 Co198 2.096 . S
O225 C206 1.247 . S
C226 O223 1.244 . S
C226 O224 1.240 . S
H227 C201 0.931 . S
H228 C210 0.931 . S
H229 C214 0.929 . S
H230 C216 0.930 . S
Co231 N235 2.148 . S
Co231 N241 2.128 . S
Co231 N251 2.194 . S
Co231 O256 2.351 . S
Co231 O257 2.155 . S
Co231 O258 2.096 . S
C232 N235 1.301 . S
C232 N236 1.328 . S
C232 H237 0.930 . S
C233 C234 1.333 . S
C233 N235 1.317 . S
C233 H238 0.930 . S
C234 C233 1.333 . S
C234 N236 1.350 . S
C234 H260 0.931 . S
N235 Co231 2.148 . S
N235 C232 1.301 . S
N235 C233 1.317 . S
N236 C232 1.328 . S
N236 C234 1.350 . S
H237 C232 0.930 . S
H238 C233 0.930 . S
C239 O240 1.224 . S
C239 O258 1.247 . S
O240 C239 1.224 . S
N241 Co231 2.128 . S
N241 C242 1.355 . S
N241 C244 1.311 . S
C242 N241 1.355 . S
C242 C243 1.363 . S
C242 H254 0.929 . S
C243 C242 1.363 . S
C243 N245 1.375 . S
C243 H261 0.931 . S
C244 N241 1.311 . S
C244 N245 1.347 . S
C244 H255 0.929 . S
N245 C243 1.375 . S
N245 C244 1.347 . S
C246 C249 1.365 . S
C246 N251 1.328 . S
C246 H252 0.929 . S
C247 C248 1.362 . S
C247 C250 1.378 . S
C247 H262 0.929 . S
C248 C247 1.362 . S
C248 C249 1.366 . S
C249 C246 1.365 . S
C249 C248 1.366 . S
C249 H263 0.930 . S
C250 C247 1.378 . S
C250 N251 1.315 . S
C250 H253 0.930 . S
N251 Co231 2.194 . S
N251 C246 1.328 . S
N251 C250 1.315 . S
H252 C246 0.929 . S
H253 C250 0.930 . S
H254 C242 0.929 . S
H255 C244 0.929 . S
O256 Co231 2.351 . S
O256 C259 1.244 . S
O257 Co231 2.155 . S
O257 C259 1.240 . S
O258 Co231 2.096 . S
O258 C239 1.247 . S
C259 O256 1.244 . S
C259 O257 1.240 . S
H260 C234 0.931 . S
H261 C243 0.931 . S
H262 C247 0.929 . S
H263 C249 0.930 . S
Co264 N268 2.148 . S
Co264 N274 2.128 . S
Co264 N284 2.194 . S
Co264 O289 2.351 . S
Co264 O290 2.155 . S
Co264 O291 2.096 . S
C265 N268 1.301 . S
C265 N269 1.328 . S
C265 H270 0.930 . S
C266 C267 1.333 . S
C266 N268 1.317 . S
C266 H271 0.930 . S
C267 C266 1.333 . S
C267 N269 1.350 . S
C267 H293 0.931 . S
N268 Co264 2.148 . S
N268 C265 1.301 . S
N268 C266 1.317 . S
N269 C265 1.328 . S
N269 C267 1.350 . S
H270 C265 0.930 . S
H271 C266 0.930 . S
C272 O273 1.224 . S
C272 O291 1.247 . S
O273 C272 1.224 . S
N274 Co264 2.128 . S
N274 C275 1.355 . S
N274 C277 1.311 . S
C275 N274 1.355 . S
C275 C276 1.363 . S
C275 H287 0.929 . S
C276 C275 1.363 . S
C276 N278 1.375 . S
C276 H294 0.931 . S
C277 N274 1.311 . S
C277 N278 1.347 . S
C277 H288 0.929 . S
N278 C276 1.375 . S
N278 C277 1.347 . S
C279 C282 1.365 . S
C279 N284 1.328 . S
C279 H285 0.929 . S
C280 C281 1.362 . S
C280 C283 1.378 . S
C280 H295 0.929 . S
C281 C280 1.362 . S
C281 C282 1.366 . S
C282 C279 1.365 . S
C282 C281 1.366 . S
C282 H296 0.930 . S
C283 C280 1.378 . S
C283 N284 1.315 . S
C283 H286 0.930 . S
N284 Co264 2.194 . S
N284 C279 1.328 . S
N284 C283 1.315 . S
H285 C279 0.929 . S
H286 C283 0.930 . S
H287 C275 0.929 . S
H288 C277 0.929 . S
O289 Co264 2.351 . S
O289 C292 1.244 . S
O290 Co264 2.155 . S
O290 C292 1.240 . S
O291 Co264 2.096 . S
O291 C272 1.247 . S
C292 O289 1.244 . S
C292 O290 1.240 . S
H293 C267 0.931 . S
H294 C276 0.931 . S
H295 C280 0.929 . S
H296 C282 0.930 . S
Co297 N301 2.148 . S
Co297 N307 2.128 . S
Co297 N317 2.194 . S
Co297 O322 2.351 . S
Co297 O323 2.155 . S
Co297 O324 2.096 . S
C298 N301 1.301 . S
C298 N302 1.328 . S
C298 H303 0.930 . S
C299 C300 1.333 . S
C299 N301 1.317 . S
C299 H304 0.930 . S
C300 C299 1.333 . S
C300 N302 1.350 . S
C300 H326 0.931 . S
N301 Co297 2.148 . S
N301 C298 1.301 . S
N301 C299 1.317 . S
N302 C298 1.328 . S
N302 C300 1.350 . S
H303 C298 0.930 . S
H304 C299 0.930 . S
C305 O306 1.224 . S
C305 O324 1.247 . S
O306 C305 1.224 . S
N307 Co297 2.128 . S
N307 C308 1.355 . S
N307 C310 1.311 . S
C308 N307 1.355 . S
C308 C309 1.363 . S
C308 H320 0.929 . S
C309 C308 1.363 . S
C309 N311 1.375 . S
C309 H327 0.931 . S
C310 N307 1.311 . S
C310 N311 1.347 . S
C310 H321 0.929 . S
N311 C309 1.375 . S
N311 C310 1.347 . S
C312 C315 1.365 . S
C312 N317 1.328 . S
C312 H318 0.929 . S
C313 C314 1.362 . S
C313 C316 1.378 . S
C313 H328 0.929 . S
C314 C313 1.362 . S
C314 C315 1.366 . S
C315 C312 1.365 . S
C315 C314 1.366 . S
C315 H329 0.930 . S
C316 C313 1.378 . S
C316 N317 1.315 . S
C316 H319 0.930 . S
N317 Co297 2.194 . S
N317 C312 1.328 . S
N317 C316 1.315 . S
H318 C312 0.929 . S
H319 C316 0.930 . S
H320 C308 0.929 . S
H321 C310 0.929 . S
O322 Co297 2.351 . S
O322 C325 1.244 . S
O323 Co297 2.155 . S
O323 C325 1.240 . S
O324 Co297 2.096 . S
O324 C305 1.247 . S
C325 O322 1.244 . S
C325 O323 1.240 . S
H326 C300 0.931 . S
H327 C309 0.931 . S
H328 C313 0.929 . S
H329 C315 0.930 . S
Co330 N334 2.148 . S
Co330 N340 2.128 . S
Co330 N350 2.194 . S
Co330 O355 2.351 . S
Co330 O356 2.155 . S
Co330 O357 2.096 . S
C331 N334 1.301 . S
C331 N335 1.328 . S
C331 H336 0.930 . S
C332 C333 1.333 . S
C332 N334 1.317 . S
C332 H337 0.930 . S
C333 C332 1.333 . S
C333 N335 1.350 . S
C333 H359 0.931 . S
N334 Co330 2.148 . S
N334 C331 1.301 . S
N334 C332 1.317 . S
N335 C331 1.328 . S
N335 C333 1.350 . S
H336 C331 0.930 . S
H337 C332 0.930 . S
C338 O339 1.224 . S
C338 O357 1.247 . S
O339 C338 1.224 . S
N340 Co330 2.128 . S
N340 C341 1.355 . S
N340 C343 1.311 . S
C341 N340 1.355 . S
C341 C342 1.363 . S
C341 H353 0.929 . S
C342 C341 1.363 . S
C342 N344 1.375 . S
C342 H360 0.931 . S
C343 N340 1.311 . S
C343 N344 1.347 . S
C343 H354 0.929 . S
N344 C342 1.375 . S
N344 C343 1.347 . S
C345 C348 1.365 . S
C345 N350 1.328 . S
C345 H351 0.929 . S
C346 C347 1.362 . S
C346 C349 1.378 . S
C346 H361 0.929 . S
C347 C346 1.362 . S
C347 C348 1.366 . S
C348 C345 1.365 . S
C348 C347 1.366 . S
C348 H362 0.930 . S
C349 C346 1.378 . S
C349 N350 1.315 . S
C349 H352 0.930 . S
N350 Co330 2.194 . S
N350 C345 1.328 . S
N350 C349 1.315 . S
H351 C345 0.929 . S
H352 C349 0.930 . S
H353 C341 0.929 . S
H354 C343 0.929 . S
O355 Co330 2.351 . S
O355 C358 1.244 . S
O356 Co330 2.155 . S
O356 C358 1.240 . S
O357 Co330 2.096 . S
O357 C338 1.247 . S
C358 O355 1.244 . S
C358 O356 1.240 . S
H359 C333 0.931 . S
H360 C342 0.931 . S
H361 C346 0.929 . S
H362 C348 0.930 . S
Co363 N367 2.148 . S
Co363 N373 2.128 . S
Co363 N383 2.194 . S
Co363 O388 2.351 . S
Co363 O389 2.155 . S
Co363 O390 2.096 . S
C364 N367 1.301 . S
C364 N368 1.328 . S
C364 H369 0.930 . S
C365 C366 1.333 . S
C365 N367 1.317 . S
C365 H370 0.930 . S
C366 C365 1.333 . S
C366 N368 1.350 . S
C366 H392 0.931 . S
N367 Co363 2.148 . S
N367 C364 1.301 . S
N367 C365 1.317 . S
N368 C364 1.328 . S
N368 C366 1.350 . S
H369 C364 0.930 . S
H370 C365 0.930 . S
C371 O372 1.224 . S
C371 O390 1.247 . S
O372 C371 1.224 . S
N373 Co363 2.128 . S
N373 C374 1.355 . S
N373 C376 1.311 . S
C374 N373 1.355 . S
C374 C375 1.363 . S
C374 H386 0.929 . S
C375 C374 1.363 . S
C375 N377 1.375 . S
C375 H393 0.931 . S
C376 N373 1.311 . S
C376 N377 1.347 . S
C376 H387 0.929 . S
N377 C375 1.375 . S
N377 C376 1.347 . S
C378 C381 1.365 . S
C378 N383 1.328 . S
C378 H384 0.929 . S
C379 C380 1.362 . S
C379 C382 1.378 . S
C379 H394 0.929 . S
C380 C379 1.362 . S
C380 C381 1.366 . S
C381 C378 1.365 . S
C381 C380 1.366 . S
C381 H395 0.930 . S
C382 C379 1.378 . S
C382 N383 1.315 . S
C382 H385 0.930 . S
N383 Co363 2.194 . S
N383 C378 1.328 . S
N383 C382 1.315 . S
H384 C378 0.929 . S
H385 C382 0.930 . S
H386 C374 0.929 . S
H387 C376 0.929 . S
O388 Co363 2.351 . S
O388 C391 1.244 . S
O389 Co363 2.155 . S
O389 C391 1.240 . S
O390 Co363 2.096 . S
O390 C371 1.247 . S
C391 O388 1.244 . S
C391 O389 1.240 . S
H392 C366 0.931 . S
H393 C375 0.931 . S
H394 C379 0.929 . S
H395 C381 0.930 . S
Co396 N400 2.148 . S
Co396 N406 2.128 . S
Co396 N416 2.194 . S
Co396 O421 2.351 . S
Co396 O422 2.155 . S
Co396 O423 2.096 . S
C397 N400 1.301 . S
C397 N401 1.328 . S
C397 H402 0.930 . S
C398 C399 1.333 . S
C398 N400 1.317 . S
C398 H403 0.930 . S
C399 C398 1.333 . S
C399 N401 1.350 . S
C399 H425 0.931 . S
N400 Co396 2.148 . S
N400 C397 1.301 . S
N400 C398 1.317 . S
N401 C397 1.328 . S
N401 C399 1.350 . S
H402 C397 0.930 . S
H403 C398 0.930 . S
C404 O405 1.224 . S
C404 O423 1.247 . S
O405 C404 1.224 . S
N406 Co396 2.128 . S
N406 C407 1.355 . S
N406 C409 1.311 . S
C407 N406 1.355 . S
C407 C408 1.363 . S
C407 H419 0.929 . S
C408 C407 1.363 . S
C408 N410 1.375 . S
C408 H426 0.931 . S
C409 N406 1.311 . S
C409 N410 1.347 . S
C409 H420 0.929 . S
N410 C408 1.375 . S
N410 C409 1.347 . S
C411 C414 1.365 . S
C411 N416 1.328 . S
C411 H417 0.929 . S
C412 C413 1.362 . S
C412 C415 1.378 . S
C412 H427 0.929 . S
C413 C412 1.362 . S
C413 C414 1.366 . S
C414 C411 1.365 . S
C414 C413 1.366 . S
C414 H428 0.930 . S
C415 C412 1.378 . S
C415 N416 1.315 . S
C415 H418 0.930 . S
N416 Co396 2.194 . S
N416 C411 1.328 . S
N416 C415 1.315 . S
H417 C411 0.929 . S
H418 C415 0.930 . S
H419 C407 0.929 . S
H420 C409 0.929 . S
O421 Co396 2.351 . S
O421 C424 1.244 . S
O422 Co396 2.155 . S
O422 C424 1.240 . S
O423 Co396 2.096 . S
O423 C404 1.247 . S
C424 O421 1.244 . S
C424 O422 1.240 . S
H425 C399 0.931 . S
H426 C408 0.931 . S
H427 C412 0.929 . S
H428 C414 0.930 . S
Co429 N433 2.148 . S
Co429 N439 2.128 . S
Co429 N449 2.194 . S
Co429 O454 2.351 . S
Co429 O455 2.155 . S
Co429 O456 2.096 . S
C430 N433 1.301 . S
C430 N434 1.328 . S
C430 H435 0.930 . S
C431 C432 1.333 . S
C431 N433 1.317 . S
C431 H436 0.930 . S
C432 C431 1.333 . S
C432 N434 1.350 . S
C432 H458 0.931 . S
N433 Co429 2.148 . S
N433 C430 1.301 . S
N433 C431 1.317 . S
N434 C430 1.328 . S
N434 C432 1.350 . S
H435 C430 0.930 . S
H436 C431 0.930 . S
C437 O438 1.224 . S
C437 O456 1.247 . S
O438 C437 1.224 . S
N439 Co429 2.128 . S
N439 C440 1.355 . S
N439 C442 1.311 . S
C440 N439 1.355 . S
C440 C441 1.363 . S
C440 H452 0.929 . S
C441 C440 1.363 . S
C441 N443 1.375 . S
C441 H459 0.931 . S
C442 N439 1.311 . S
C442 N443 1.347 . S
C442 H453 0.929 . S
N443 C441 1.375 . S
N443 C442 1.347 . S
C444 C447 1.365 . S
C444 N449 1.328 . S
C444 H450 0.929 . S
C445 C446 1.362 . S
C445 C448 1.378 . S
C445 H460 0.929 . S
C446 C445 1.362 . S
C446 C447 1.366 . S
C447 C444 1.365 . S
C447 C446 1.366 . S
C447 H461 0.930 . S
C448 C445 1.378 . S
C448 N449 1.315 . S
C448 H451 0.930 . S
N449 Co429 2.194 . S
N449 C444 1.328 . S
N449 C448 1.315 . S
H450 C444 0.929 . S
H451 C448 0.930 . S
H452 C440 0.929 . S
H453 C442 0.929 . S
O454 Co429 2.351 . S
O454 C457 1.244 . S
O455 Co429 2.155 . S
O455 C457 1.240 . S
O456 Co429 2.096 . S
O456 C437 1.247 . S
C457 O454 1.244 . S
C457 O455 1.240 . S
H458 C432 0.931 . S
H459 C441 0.931 . S
H460 C445 0.929 . S
H461 C447 0.930 . S
Co462 N466 2.148 . S
Co462 N472 2.128 . S
Co462 N482 2.194 . S
Co462 O487 2.351 . S
Co462 O488 2.155 . S
Co462 O489 2.096 . S
C463 N466 1.301 . S
C463 N467 1.328 . S
C463 H468 0.930 . S
C464 C465 1.333 . S
C464 N466 1.317 . S
C464 H469 0.930 . S
C465 C464 1.333 . S
C465 N467 1.350 . S
C465 H491 0.931 . S
N466 Co462 2.148 . S
N466 C463 1.301 . S
N466 C464 1.317 . S
N467 C463 1.328 . S
N467 C465 1.350 . S
H468 C463 0.930 . S
H469 C464 0.930 . S
C470 O471 1.224 . S
C470 O489 1.247 . S
O471 C470 1.224 . S
N472 Co462 2.128 . S
N472 C473 1.355 . S
N472 C475 1.311 . S
C473 N472 1.355 . S
C473 C474 1.363 . S
C473 H485 0.929 . S
C474 C473 1.363 . S
C474 N476 1.375 . S
C474 H492 0.931 . S
C475 N472 1.311 . S
C475 N476 1.347 . S
C475 H486 0.929 . S
N476 C474 1.375 . S
N476 C475 1.347 . S
C477 C480 1.365 . S
C477 N482 1.328 . S
C477 H483 0.929 . S
C478 C479 1.362 . S
C478 C481 1.378 . S
C478 H493 0.929 . S
C479 C478 1.362 . S
C479 C480 1.366 . S
C480 C477 1.365 . S
C480 C479 1.366 . S
C480 H494 0.930 . S
C481 C478 1.378 . S
C481 N482 1.315 . S
C481 H484 0.930 . S
N482 Co462 2.194 . S
N482 C477 1.328 . S
N482 C481 1.315 . S
H483 C477 0.929 . S
H484 C481 0.930 . S
H485 C473 0.929 . S
H486 C475 0.929 . S
O487 Co462 2.351 . S
O487 C490 1.244 . S
O488 Co462 2.155 . S
O488 C490 1.240 . S
O489 Co462 2.096 . S
O489 C470 1.247 . S
C490 O487 1.244 . S
C490 O488 1.240 . S
H491 C465 0.931 . S
H492 C474 0.931 . S
H493 C478 0.929 . S
H494 C480 0.930 . S
Co495 N499 2.148 . S
Co495 N505 2.128 . S
Co495 N515 2.194 . S
Co495 O520 2.351 . S
Co495 O521 2.155 . S
Co495 O522 2.096 . S
C496 N499 1.301 . S
C496 N500 1.328 . S
C496 H501 0.930 . S
C497 C498 1.333 . S
C497 N499 1.317 . S
C497 H502 0.930 . S
C498 C497 1.333 . S
C498 N500 1.350 . S
C498 H524 0.931 . S
N499 Co495 2.148 . S
N499 C496 1.301 . S
N499 C497 1.317 . S
N500 C496 1.328 . S
N500 C498 1.350 . S
H501 C496 0.930 . S
H502 C497 0.930 . S
C503 O504 1.224 . S
C503 O522 1.247 . S
O504 C503 1.224 . S
N505 Co495 2.128 . S
N505 C506 1.355 . S
N505 C508 1.311 . S
C506 N505 1.355 . S
C506 C507 1.363 . S
C506 H518 0.929 . S
C507 C506 1.363 . S
C507 N509 1.375 . S
C507 H525 0.931 . S
C508 N505 1.311 . S
C508 N509 1.347 . S
C508 H519 0.929 . S
N509 C507 1.375 . S
N509 C508 1.347 . S
C510 C513 1.365 . S
C510 N515 1.328 . S
C510 H516 0.929 . S
C511 C512 1.362 . S
C511 C514 1.378 . S
C511 H526 0.929 . S
C512 C511 1.362 . S
C512 C513 1.366 . S
C513 C510 1.365 . S
C513 C512 1.366 . S
C513 H527 0.930 . S
C514 C511 1.378 . S
C514 N515 1.315 . S
C514 H517 0.930 . S
N515 Co495 2.194 . S
N515 C510 1.328 . S
N515 C514 1.315 . S
H516 C510 0.929 . S
H517 C514 0.930 . S
H518 C506 0.929 . S
H519 C508 0.929 . S
O520 Co495 2.351 . S
O520 C523 1.244 . S
O521 Co495 2.155 . S
O521 C523 1.240 . S
O522 Co495 2.096 . S
O522 C503 1.247 . S
C523 O520 1.244 . S
C523 O521 1.240 . S
H524 C498 0.931 . S
H525 C507 0.931 . S
H526 C511 0.929 . S
H527 C513 0.930 . S
Co528 N532 2.148 . S
Co528 N538 2.128 . S
Co528 N548 2.194 . S
Co528 O553 2.351 . S
Co528 O554 2.155 . S
Co528 O555 2.096 . S
C529 N532 1.301 . S
C529 N533 1.328 . S
C529 H534 0.930 . S
C530 C531 1.333 . S
C530 N532 1.317 . S
C530 H535 0.930 . S
C531 C530 1.333 . S
C531 N533 1.350 . S
C531 H557 0.931 . S
N532 Co528 2.148 . S
N532 C529 1.301 . S
N532 C530 1.317 . S
N533 C529 1.328 . S
N533 C531 1.350 . S
H534 C529 0.930 . S
H535 C530 0.930 . S
C536 O537 1.224 . S
C536 O555 1.247 . S
O537 C536 1.224 . S
N538 Co528 2.128 . S
N538 C539 1.355 . S
N538 C541 1.311 . S
C539 N538 1.355 . S
C539 C540 1.363 . S
C539 H551 0.929 . S
C540 C539 1.363 . S
C540 N542 1.375 . S
C540 H558 0.931 . S
C541 N538 1.311 . S
C541 N542 1.347 . S
C541 H552 0.929 . S
N542 C540 1.375 . S
N542 C541 1.347 . S
C543 C546 1.365 . S
C543 N548 1.328 . S
C543 H549 0.929 . S
C544 C545 1.362 . S
C544 C547 1.378 . S
C544 H559 0.929 . S
C545 C544 1.362 . S
C545 C546 1.366 . S
C546 C543 1.365 . S
C546 C545 1.366 . S
C546 H560 0.930 . S
C547 C544 1.378 . S
C547 N548 1.315 . S
C547 H550 0.930 . S
N548 Co528 2.194 . S
N548 C543 1.328 . S
N548 C547 1.315 . S
H549 C543 0.929 . S
H550 C547 0.930 . S
H551 C539 0.929 . S
H552 C541 0.929 . S
O553 Co528 2.351 . S
O553 C556 1.244 . S
O554 Co528 2.155 . S
O554 C556 1.240 . S
O555 Co528 2.096 . S
O555 C536 1.247 . S
C556 O553 1.244 . S
C556 O554 1.240 . S
H557 C531 0.931 . S
H558 C540 0.931 . S
H559 C544 0.929 . S
H560 C546 0.930 . S
Co561 N565 2.148 . S
Co561 N571 2.128 . S
Co561 N581 2.194 . S
Co561 O586 2.351 . S
Co561 O587 2.155 . S
Co561 O588 2.096 . S
C562 N565 1.301 . S
C562 N566 1.328 . S
C562 H567 0.930 . S
C563 C564 1.333 . S
C563 N565 1.317 . S
C563 H568 0.930 . S
C564 C563 1.333 . S
C564 N566 1.350 . S
C564 H590 0.931 . S
N565 Co561 2.148 . S
N565 C562 1.301 . S
N565 C563 1.317 . S
N566 C562 1.328 . S
N566 C564 1.350 . S
H567 C562 0.930 . S
H568 C563 0.930 . S
C569 O570 1.224 . S
C569 O588 1.247 . S
O570 C569 1.224 . S
N571 Co561 2.128 . S
N571 C572 1.355 . S
N571 C574 1.311 . S
C572 N571 1.355 . S
C572 C573 1.363 . S
C572 H584 0.929 . S
C573 C572 1.363 . S
C573 N575 1.375 . S
C573 H591 0.931 . S
C574 N571 1.311 . S
C574 N575 1.347 . S
C574 H585 0.929 . S
N575 C573 1.375 . S
N575 C574 1.347 . S
C576 C579 1.365 . S
C576 N581 1.328 . S
C576 H582 0.929 . S
C577 C578 1.362 . S
C577 C580 1.378 . S
C577 H592 0.929 . S
C578 C577 1.362 . S
C578 C579 1.366 . S
C579 C576 1.365 . S
C579 C578 1.366 . S
C579 H593 0.930 . S
C580 C577 1.378 . S
C580 N581 1.315 . S
C580 H583 0.930 . S
N581 Co561 2.194 . S
N581 C576 1.328 . S
N581 C580 1.315 . S
H582 C576 0.929 . S
H583 C580 0.930 . S
H584 C572 0.929 . S
H585 C574 0.929 . S
O586 Co561 2.351 . S
O586 C589 1.244 . S
O587 Co561 2.155 . S
O587 C589 1.240 . S
O588 Co561 2.096 . S
O588 C569 1.247 . S
C589 O586 1.244 . S
C589 O587 1.240 . S
H590 C564 0.931 . S
H591 C573 0.931 . S
H592 C577 0.929 . S
H593 C579 0.930 . S
Co594 N598 2.148 . S
Co594 N604 2.128 . S
Co594 N614 2.194 . S
Co594 O619 2.351 . S
Co594 O620 2.155 . S
Co594 O621 2.096 . S
C595 N598 1.301 . S
C595 N599 1.328 . S
C595 H600 0.930 . S
C596 C597 1.333 . S
C596 N598 1.317 . S
C596 H601 0.930 . S
C597 C596 1.333 . S
C597 N599 1.350 . S
C597 H623 0.931 . S
N598 Co594 2.148 . S
N598 C595 1.301 . S
N598 C596 1.317 . S
N599 C595 1.328 . S
N599 C597 1.350 . S
H600 C595 0.930 . S
H601 C596 0.930 . S
C602 O603 1.224 . S
C602 O621 1.247 . S
O603 C602 1.224 . S
N604 Co594 2.128 . S
N604 C605 1.355 . S
N604 C607 1.311 . S
C605 N604 1.355 . S
C605 C606 1.363 . S
C605 H617 0.929 . S
C606 C605 1.363 . S
C606 N608 1.375 . S
C606 H624 0.931 . S
C607 N604 1.311 . S
C607 N608 1.347 . S
C607 H618 0.929 . S
N608 C606 1.375 . S
N608 C607 1.347 . S
C609 C612 1.365 . S
C609 N614 1.328 . S
C609 H615 0.929 . S
C610 C611 1.362 . S
C610 C613 1.378 . S
C610 H625 0.929 . S
C611 C610 1.362 . S
C611 C612 1.366 . S
C612 C609 1.365 . S
C612 C611 1.366 . S
C612 H626 0.930 . S
C613 C610 1.378 . S
C613 N614 1.315 . S
C613 H616 0.930 . S
N614 Co594 2.194 . S
N614 C609 1.328 . S
N614 C613 1.315 . S
H615 C609 0.929 . S
H616 C613 0.930 . S
H617 C605 0.929 . S
H618 C607 0.929 . S
O619 Co594 2.351 . S
O619 C622 1.244 . S
O620 Co594 2.155 . S
O620 C622 1.240 . S
O621 Co594 2.096 . S
O621 C602 1.247 . S
C622 O619 1.244 . S
C622 O620 1.240 . S
H623 C597 0.931 . S
H624 C606 0.931 . S
H625 C610 0.929 . S
H626 C612 0.930 . S
Co627 N631 2.148 . S
Co627 N637 2.128 . S
Co627 N647 2.194 . S
Co627 O652 2.351 . S
Co627 O653 2.155 . S
Co627 O654 2.096 . S
C628 N631 1.301 . S
C628 N632 1.328 . S
C628 H633 0.930 . S
C629 C630 1.333 . S
C629 N631 1.317 . S
C629 H634 0.930 . S
C630 C629 1.333 . S
C630 N632 1.350 . S
C630 H656 0.931 . S
N631 Co627 2.148 . S
N631 C628 1.301 . S
N631 C629 1.317 . S
N632 C628 1.328 . S
N632 C630 1.350 . S
H633 C628 0.930 . S
H634 C629 0.930 . S
C635 O636 1.224 . S
C635 O654 1.247 . S
O636 C635 1.224 . S
N637 Co627 2.128 . S
N637 C638 1.355 . S
N637 C640 1.311 . S
C638 N637 1.355 . S
C638 C639 1.363 . S
C638 H650 0.929 . S
C639 C638 1.363 . S
C639 N641 1.375 . S
C639 H657 0.931 . S
C640 N637 1.311 . S
C640 N641 1.347 . S
C640 H651 0.929 . S
N641 C639 1.375 . S
N641 C640 1.347 . S
C642 C645 1.365 . S
C642 N647 1.328 . S
C642 H648 0.929 . S
C643 C644 1.362 . S
C643 C646 1.378 . S
C643 H658 0.929 . S
C644 C643 1.362 . S
C644 C645 1.366 . S
C645 C642 1.365 . S
C645 C644 1.366 . S
C645 H659 0.930 . S
C646 C643 1.378 . S
C646 N647 1.315 . S
C646 H649 0.930 . S
N647 Co627 2.194 . S
N647 C642 1.328 . S
N647 C646 1.315 . S
H648 C642 0.929 . S
H649 C646 0.930 . S
H650 C638 0.929 . S
H651 C640 0.929 . S
O652 Co627 2.351 . S
O652 C655 1.244 . S
O653 Co627 2.155 . S
O653 C655 1.240 . S
O654 Co627 2.096 . S
O654 C635 1.247 . S
C655 O652 1.244 . S
C655 O653 1.240 . S
H656 C630 0.931 . S
H657 C639 0.931 . S
H658 C643 0.929 . S
H659 C645 0.930 . S
Co660 N664 2.148 . S
Co660 N670 2.128 . S
Co660 N680 2.194 . S
Co660 O685 2.351 . S
Co660 O686 2.155 . S
Co660 O687 2.096 . S
C661 N664 1.301 . S
C661 N665 1.328 . S
C661 H666 0.930 . S
C662 C663 1.333 . S
C662 N664 1.317 . S
C662 H667 0.930 . S
C663 C662 1.333 . S
C663 N665 1.350 . S
C663 H689 0.931 . S
N664 Co660 2.148 . S
N664 C661 1.301 . S
N664 C662 1.317 . S
N665 C661 1.328 . S
N665 C663 1.350 . S
H666 C661 0.930 . S
H667 C662 0.930 . S
C668 O669 1.224 . S
C668 O687 1.247 . S
O669 C668 1.224 . S
N670 Co660 2.128 . S
N670 C671 1.355 . S
N670 C673 1.311 . S
C671 N670 1.355 . S
C671 C672 1.363 . S
C671 H683 0.929 . S
C672 C671 1.363 . S
C672 N674 1.375 . S
C672 H690 0.931 . S
C673 N670 1.311 . S
C673 N674 1.347 . S
C673 H684 0.929 . S
N674 C672 1.375 . S
N674 C673 1.347 . S
C675 C678 1.365 . S
C675 N680 1.328 . S
C675 H681 0.929 . S
C676 C677 1.362 . S
C676 C679 1.378 . S
C676 H691 0.929 . S
C677 C676 1.362 . S
C677 C678 1.366 . S
C678 C675 1.365 . S
C678 C677 1.366 . S
C678 H692 0.930 . S
C679 C676 1.378 . S
C679 N680 1.315 . S
C679 H682 0.930 . S
N680 Co660 2.194 . S
N680 C675 1.328 . S
N680 C679 1.315 . S
H681 C675 0.929 . S
H682 C679 0.930 . S
H683 C671 0.929 . S
H684 C673 0.929 . S
O685 Co660 2.351 . S
O685 C688 1.244 . S
O686 Co660 2.155 . S
O686 C688 1.240 . S
O687 Co660 2.096 . S
O687 C668 1.247 . S
C688 O685 1.244 . S
C688 O686 1.240 . S
H689 C663 0.931 . S
H690 C672 0.931 . S
H691 C676 0.929 . S
H692 C678 0.930 . S
Co693 N697 2.148 . S
Co693 N703 2.128 . S
Co693 N713 2.194 . S
Co693 O718 2.351 . S
Co693 O719 2.155 . S
Co693 O720 2.096 . S
C694 N697 1.301 . S
C694 N698 1.328 . S
C694 H699 0.930 . S
C695 C696 1.333 . S
C695 N697 1.317 . S
C695 H700 0.930 . S
C696 C695 1.333 . S
C696 N698 1.350 . S
C696 H722 0.931 . S
N697 Co693 2.148 . S
N697 C694 1.301 . S
N697 C695 1.317 . S
N698 C694 1.328 . S
N698 C696 1.350 . S
H699 C694 0.930 . S
H700 C695 0.930 . S
C701 O702 1.224 . S
C701 O720 1.247 . S
O702 C701 1.224 . S
N703 Co693 2.128 . S
N703 C704 1.355 . S
N703 C706 1.311 . S
C704 N703 1.355 . S
C704 C705 1.363 . S
C704 H716 0.929 . S
C705 C704 1.363 . S
C705 N707 1.375 . S
C705 H723 0.931 . S
C706 N703 1.311 . S
C706 N707 1.347 . S
C706 H717 0.929 . S
N707 C705 1.375 . S
N707 C706 1.347 . S
C708 C711 1.365 . S
C708 N713 1.328 . S
C708 H714 0.929 . S
C709 C710 1.362 . S
C709 C712 1.378 . S
C709 H724 0.929 . S
C710 C709 1.362 . S
C710 C711 1.366 . S
C711 C708 1.365 . S
C711 C710 1.366 . S
C711 H725 0.930 . S
C712 C709 1.378 . S
C712 N713 1.315 . S
C712 H715 0.930 . S
N713 Co693 2.194 . S
N713 C708 1.328 . S
N713 C712 1.315 . S
H714 C708 0.929 . S
H715 C712 0.930 . S
H716 C704 0.929 . S
H717 C706 0.929 . S
O718 Co693 2.351 . S
O718 C721 1.244 . S
O719 Co693 2.155 . S
O719 C721 1.240 . S
O720 Co693 2.096 . S
O720 C701 1.247 . S
C721 O718 1.244 . S
C721 O719 1.240 . S
H722 C696 0.931 . S
H723 C705 0.931 . S
H724 C709 0.929 . S
H725 C711 0.930 . S
Co726 N730 2.148 . S
Co726 N736 2.128 . S
Co726 N746 2.194 . S
Co726 O751 2.351 . S
Co726 O752 2.155 . S
Co726 O753 2.096 . S
C727 N730 1.301 . S
C727 N731 1.328 . S
C727 H732 0.930 . S
C728 C729 1.333 . S
C728 N730 1.317 . S
C728 H733 0.930 . S
C729 C728 1.333 . S
C729 N731 1.350 . S
C729 H755 0.931 . S
N730 Co726 2.148 . S
N730 C727 1.301 . S
N730 C728 1.317 . S
N731 C727 1.328 . S
N731 C729 1.350 . S
H732 C727 0.930 . S
H733 C728 0.930 . S
C734 O735 1.224 . S
C734 O753 1.247 . S
O735 C734 1.224 . S
N736 Co726 2.128 . S
N736 C737 1.355 . S
N736 C739 1.311 . S
C737 N736 1.355 . S
C737 C738 1.363 . S
C737 H749 0.929 . S
C738 C737 1.363 . S
C738 N740 1.375 . S
C738 H756 0.931 . S
C739 N736 1.311 . S
C739 N740 1.347 . S
C739 H750 0.929 . S
N740 C738 1.375 . S
N740 C739 1.347 . S
C741 C744 1.365 . S
C741 N746 1.328 . S
C741 H747 0.929 . S
C742 C743 1.362 . S
C742 C745 1.378 . S
C742 H757 0.929 . S
C743 C742 1.362 . S
C743 C744 1.366 . S
C744 C741 1.365 . S
C744 C743 1.366 . S
C744 H758 0.930 . S
C745 C742 1.378 . S
C745 N746 1.315 . S
C745 H748 0.930 . S
N746 Co726 2.194 . S
N746 C741 1.328 . S
N746 C745 1.315 . S
H747 C741 0.929 . S
H748 C745 0.930 . S
H749 C737 0.929 . S
H750 C739 0.929 . S
O751 Co726 2.351 . S
O751 C754 1.244 . S
O752 Co726 2.155 . S
O752 C754 1.240 . S
O753 Co726 2.096 . S
O753 C734 1.247 . S
C754 O751 1.244 . S
C754 O752 1.240 . S
H755 C729 0.931 . S
H756 C738 0.931 . S
H757 C742 0.929 . S
H758 C744 0.930 . S
Co759 N763 2.148 . S
Co759 N769 2.128 . S
Co759 N779 2.194 . S
Co759 O784 2.351 . S
Co759 O785 2.155 . S
Co759 O786 2.096 . S
C760 N763 1.301 . S
C760 N764 1.328 . S
C760 H765 0.930 . S
C761 C762 1.333 . S
C761 N763 1.317 . S
C761 H766 0.930 . S
C762 C761 1.333 . S
C762 N764 1.350 . S
C762 H788 0.931 . S
N763 Co759 2.148 . S
N763 C760 1.301 . S
N763 C761 1.317 . S
N764 C760 1.328 . S
N764 C762 1.350 . S
H765 C760 0.930 . S
H766 C761 0.930 . S
C767 O768 1.224 . S
C767 O786 1.247 . S
O768 C767 1.224 . S
N769 Co759 2.128 . S
N769 C770 1.355 . S
N769 C772 1.311 . S
C770 N769 1.355 . S
C770 C771 1.363 . S
C770 H782 0.929 . S
C771 C770 1.363 . S
C771 N773 1.375 . S
C771 H789 0.931 . S
C772 N769 1.311 . S
C772 N773 1.347 . S
C772 H783 0.929 . S
N773 C771 1.375 . S
N773 C772 1.347 . S
C774 C777 1.365 . S
C774 N779 1.328 . S
C774 H780 0.929 . S
C775 C776 1.362 . S
C775 C778 1.378 . S
C775 H790 0.929 . S
C776 C775 1.362 . S
C776 C777 1.366 . S
C777 C774 1.365 . S
C777 C776 1.366 . S
C777 H791 0.930 . S
C778 C775 1.378 . S
C778 N779 1.315 . S
C778 H781 0.930 . S
N779 Co759 2.194 . S
N779 C774 1.328 . S
N779 C778 1.315 . S
H780 C774 0.929 . S
H781 C778 0.930 . S
H782 C770 0.929 . S
H783 C772 0.929 . S
O784 Co759 2.351 . S
O784 C787 1.244 . S
O785 Co759 2.155 . S
O785 C787 1.240 . S
O786 Co759 2.096 . S
O786 C767 1.247 . S
C787 O784 1.244 . S
C787 O785 1.240 . S
H788 C762 0.931 . S
H789 C771 0.931 . S
H790 C775 0.929 . S
H791 C777 0.930 . S
Co792 N796 2.148 . S
Co792 N802 2.128 . S
Co792 N812 2.194 . S
Co792 O817 2.351 . S
Co792 O818 2.155 . S
Co792 O819 2.096 . S
C793 N796 1.301 . S
C793 N797 1.328 . S
C793 H798 0.930 . S
C794 C795 1.333 . S
C794 N796 1.317 . S
C794 H799 0.930 . S
C795 C794 1.333 . S
C795 N797 1.350 . S
C795 H821 0.931 . S
N796 Co792 2.148 . S
N796 C793 1.301 . S
N796 C794 1.317 . S
N797 C793 1.328 . S
N797 C795 1.350 . S
H798 C793 0.930 . S
H799 C794 0.930 . S
C800 O801 1.224 . S
C800 O819 1.247 . S
O801 C800 1.224 . S
N802 Co792 2.128 . S
N802 C803 1.355 . S
N802 C805 1.311 . S
C803 N802 1.355 . S
C803 C804 1.363 . S
C803 H815 0.929 . S
C804 C803 1.363 . S
C804 N806 1.375 . S
C804 H822 0.931 . S
C805 N802 1.311 . S
C805 N806 1.347 . S
C805 H816 0.929 . S
N806 C804 1.375 . S
N806 C805 1.347 . S
C807 C810 1.365 . S
C807 N812 1.328 . S
C807 H813 0.929 . S
C808 C809 1.362 . S
C808 C811 1.378 . S
C808 H823 0.929 . S
C809 C808 1.362 . S
C809 C810 1.366 . S
C810 C807 1.365 . S
C810 C809 1.366 . S
C810 H824 0.930 . S
C811 C808 1.378 . S
C811 N812 1.315 . S
C811 H814 0.930 . S
N812 Co792 2.194 . S
N812 C807 1.328 . S
N812 C811 1.315 . S
H813 C807 0.929 . S
H814 C811 0.930 . S
H815 C803 0.929 . S
H816 C805 0.929 . S
O817 Co792 2.351 . S
O817 C820 1.244 . S
O818 Co792 2.155 . S
O818 C820 1.240 . S
O819 Co792 2.096 . S
O819 C800 1.247 . S
C820 O817 1.244 . S
C820 O818 1.240 . S
H821 C795 0.931 . S
H822 C804 0.931 . S
H823 C808 0.929 . S
H824 C810 0.930 . S
Co825 N829 2.148 . S
Co825 N835 2.128 . S
Co825 N845 2.194 . S
Co825 O850 2.351 . S
Co825 O851 2.155 . S
Co825 O852 2.096 . S
C826 N829 1.301 . S
C826 N830 1.328 . S
C826 H831 0.930 . S
C827 C828 1.333 . S
C827 N829 1.317 . S
C827 H832 0.930 . S
C828 C827 1.333 . S
C828 N830 1.350 . S
C828 H854 0.931 . S
N829 Co825 2.148 . S
N829 C826 1.301 . S
N829 C827 1.317 . S
N830 C826 1.328 . S
N830 C828 1.350 . S
H831 C826 0.930 . S
H832 C827 0.930 . S
C833 O834 1.224 . S
C833 O852 1.247 . S
O834 C833 1.224 . S
N835 Co825 2.128 . S
N835 C836 1.355 . S
N835 C838 1.311 . S
C836 N835 1.355 . S
C836 C837 1.363 . S
C836 H848 0.929 . S
C837 C836 1.363 . S
C837 N839 1.375 . S
C837 H855 0.931 . S
C838 N835 1.311 . S
C838 N839 1.347 . S
C838 H849 0.929 . S
N839 C837 1.375 . S
N839 C838 1.347 . S
C840 C843 1.365 . S
C840 N845 1.328 . S
C840 H846 0.929 . S
C841 C842 1.362 . S
C841 C844 1.378 . S
C841 H856 0.929 . S
C842 C841 1.362 . S
C842 C843 1.366 . S
C843 C840 1.365 . S
C843 C842 1.366 . S
C843 H857 0.930 . S
C844 C841 1.378 . S
C844 N845 1.315 . S
C844 H847 0.930 . S
N845 Co825 2.194 . S
N845 C840 1.328 . S
N845 C844 1.315 . S
H846 C840 0.929 . S
H847 C844 0.930 . S
H848 C836 0.929 . S
H849 C838 0.929 . S
O850 Co825 2.351 . S
O850 C853 1.244 . S
O851 Co825 2.155 . S
O851 C853 1.240 . S
O852 Co825 2.096 . S
O852 C833 1.247 . S
C853 O850 1.244 . S
C853 O851 1.240 . S
H854 C828 0.931 . S
H855 C837 0.931 . S
H856 C841 0.929 . S
H857 C843 0.930 . S
Co858 N862 2.148 . S
Co858 N868 2.128 . S
Co858 N878 2.194 . S
Co858 O883 2.351 . S
Co858 O884 2.155 . S
Co858 O885 2.096 . S
C859 N862 1.301 . S
C859 N863 1.328 . S
C859 H864 0.930 . S
C860 C861 1.333 . S
C860 N862 1.317 . S
C860 H865 0.930 . S
C861 C860 1.333 . S
C861 N863 1.350 . S
C861 H887 0.931 . S
N862 Co858 2.148 . S
N862 C859 1.301 . S
N862 C860 1.317 . S
N863 C859 1.328 . S
N863 C861 1.350 . S
H864 C859 0.930 . S
H865 C860 0.930 . S
C866 O867 1.224 . S
C866 O885 1.247 . S
O867 C866 1.224 . S
N868 Co858 2.128 . S
N868 C869 1.355 . S
N868 C871 1.311 . S
C869 N868 1.355 . S
C869 C870 1.363 . S
C869 H881 0.929 . S
C870 C869 1.363 . S
C870 N872 1.375 . S
C870 H888 0.931 . S
C871 N868 1.311 . S
C871 N872 1.347 . S
C871 H882 0.929 . S
N872 C870 1.375 . S
N872 C871 1.347 . S
C873 C876 1.365 . S
C873 N878 1.328 . S
C873 H879 0.929 . S
C874 C875 1.362 . S
C874 C877 1.378 . S
C874 H889 0.929 . S
C875 C874 1.362 . S
C875 C876 1.366 . S
C876 C873 1.365 . S
C876 C875 1.366 . S
C876 H890 0.930 . S
C877 C874 1.378 . S
C877 N878 1.315 . S
C877 H880 0.930 . S
N878 Co858 2.194 . S
N878 C873 1.328 . S
N878 C877 1.315 . S
H879 C873 0.929 . S
H880 C877 0.930 . S
H881 C869 0.929 . S
H882 C871 0.929 . S
O883 Co858 2.351 . S
O883 C886 1.244 . S
O884 Co858 2.155 . S
O884 C886 1.240 . S
O885 Co858 2.096 . S
O885 C866 1.247 . S
C886 O883 1.244 . S
C886 O884 1.240 . S
H887 C861 0.931 . S
H888 C870 0.931 . S
H889 C874 0.929 . S
H890 C876 0.930 . S
Co891 N895 2.148 . S
Co891 N901 2.128 . S
Co891 N911 2.194 . S
Co891 O916 2.351 . S
Co891 O917 2.155 . S
Co891 O918 2.096 . S
C892 N895 1.301 . S
C892 N896 1.328 . S
C892 H897 0.930 . S
C893 C894 1.333 . S
C893 N895 1.317 . S
C893 H898 0.930 . S
C894 C893 1.333 . S
C894 N896 1.350 . S
C894 H920 0.931 . S
N895 Co891 2.148 . S
N895 C892 1.301 . S
N895 C893 1.317 . S
N896 C892 1.328 . S
N896 C894 1.350 . S
H897 C892 0.930 . S
H898 C893 0.930 . S
C899 O900 1.224 . S
C899 O918 1.247 . S
O900 C899 1.224 . S
N901 Co891 2.128 . S
N901 C902 1.355 . S
N901 C904 1.311 . S
C902 N901 1.355 . S
C902 C903 1.363 . S
C902 H914 0.929 . S
C903 C902 1.363 . S
C903 N905 1.375 . S
C903 H921 0.931 . S
C904 N901 1.311 . S
C904 N905 1.347 . S
C904 H915 0.929 . S
N905 C903 1.375 . S
N905 C904 1.347 . S
C906 C909 1.365 . S
C906 N911 1.328 . S
C906 H912 0.929 . S
C907 C908 1.362 . S
C907 C910 1.378 . S
C907 H922 0.929 . S
C908 C907 1.362 . S
C908 C909 1.366 . S
C909 C906 1.365 . S
C909 C908 1.366 . S
C909 H923 0.930 . S
C910 C907 1.378 . S
C910 N911 1.315 . S
C910 H913 0.930 . S
N911 Co891 2.194 . S
N911 C906 1.328 . S
N911 C910 1.315 . S
H912 C906 0.929 . S
H913 C910 0.930 . S
H914 C902 0.929 . S
H915 C904 0.929 . S
O916 Co891 2.351 . S
O916 C919 1.244 . S
O917 Co891 2.155 . S
O917 C919 1.240 . S
O918 Co891 2.096 . S
O918 C899 1.247 . S
C919 O916 1.244 . S
C919 O917 1.240 . S
H920 C894 0.931 . S
H921 C903 0.931 . S
H922 C907 0.929 . S
H923 C909 0.930 . S
Co924 N928 2.148 . S
Co924 N934 2.128 . S
Co924 N944 2.194 . S
Co924 O949 2.351 . S
Co924 O950 2.155 . S
Co924 O951 2.096 . S
C925 N928 1.301 . S
C925 N929 1.328 . S
C925 H930 0.930 . S
C926 C927 1.333 . S
C926 N928 1.317 . S
C926 H931 0.930 . S
C927 C926 1.333 . S
C927 N929 1.350 . S
C927 H953 0.931 . S
N928 Co924 2.148 . S
N928 C925 1.301 . S
N928 C926 1.317 . S
N929 C925 1.328 . S
N929 C927 1.350 . S
H930 C925 0.930 . S
H931 C926 0.930 . S
C932 O933 1.224 . S
C932 O951 1.247 . S
O933 C932 1.224 . S
N934 Co924 2.128 . S
N934 C935 1.355 . S
N934 C937 1.311 . S
C935 N934 1.355 . S
C935 C936 1.363 . S
C935 H947 0.929 . S
C936 C935 1.363 . S
C936 N938 1.375 . S
C936 H954 0.931 . S
C937 N934 1.311 . S
C937 N938 1.347 . S
C937 H948 0.929 . S
N938 C936 1.375 . S
N938 C937 1.347 . S
C939 C942 1.365 . S
C939 N944 1.328 . S
C939 H945 0.929 . S
C940 C941 1.362 . S
C940 C943 1.378 . S
C940 H955 0.929 . S
C941 C940 1.362 . S
C941 C942 1.366 . S
C942 C939 1.365 . S
C942 C941 1.366 . S
C942 H956 0.930 . S
C943 C940 1.378 . S
C943 N944 1.315 . S
C943 H946 0.930 . S
N944 Co924 2.194 . S
N944 C939 1.328 . S
N944 C943 1.315 . S
H945 C939 0.929 . S
H946 C943 0.930 . S
H947 C935 0.929 . S
H948 C937 0.929 . S
O949 Co924 2.351 . S
O949 C952 1.244 . S
O950 Co924 2.155 . S
O950 C952 1.240 . S
O951 Co924 2.096 . S
O951 C932 1.247 . S
C952 O949 1.244 . S
C952 O950 1.240 . S
H953 C927 0.931 . S
H954 C936 0.931 . S
H955 C940 0.929 . S
H956 C942 0.930 . S
Co957 N961 2.148 . S
Co957 N967 2.128 . S
Co957 N977 2.194 . S
Co957 O982 2.351 . S
Co957 O983 2.155 . S
Co957 O984 2.096 . S
C958 N961 1.301 . S
C958 N962 1.328 . S
C958 H963 0.930 . S
C959 C960 1.333 . S
C959 N961 1.317 . S
C959 H964 0.930 . S
C960 C959 1.333 . S
C960 N962 1.350 . S
C960 H986 0.931 . S
N961 Co957 2.148 . S
N961 C958 1.301 . S
N961 C959 1.317 . S
N962 C958 1.328 . S
N962 C960 1.350 . S
H963 C958 0.930 . S
H964 C959 0.930 . S
C965 O966 1.224 . S
C965 O984 1.247 . S
O966 C965 1.224 . S
N967 Co957 2.128 . S
N967 C968 1.355 . S
N967 C970 1.311 . S
C968 N967 1.355 . S
C968 C969 1.363 . S
C968 H980 0.929 . S
C969 C968 1.363 . S
C969 N971 1.375 . S
C969 H987 0.931 . S
C970 N967 1.311 . S
C970 N971 1.347 . S
C970 H981 0.929 . S
N971 C969 1.375 . S
N971 C970 1.347 . S
C972 C975 1.365 . S
C972 N977 1.328 . S
C972 H978 0.929 . S
C973 C974 1.362 . S
C973 C976 1.378 . S
C973 H988 0.929 . S
C974 C973 1.362 . S
C974 C975 1.366 . S
C975 C972 1.365 . S
C975 C974 1.366 . S
C975 H989 0.930 . S
C976 C973 1.378 . S
C976 N977 1.315 . S
C976 H979 0.930 . S
N977 Co957 2.194 . S
N977 C972 1.328 . S
N977 C976 1.315 . S
H978 C972 0.929 . S
H979 C976 0.930 . S
H980 C968 0.929 . S
H981 C970 0.929 . S
O982 Co957 2.351 . S
O982 C985 1.244 . S
O983 Co957 2.155 . S
O983 C985 1.240 . S
O984 Co957 2.096 . S
O984 C965 1.247 . S
C985 O982 1.244 . S
C985 O983 1.240 . S
H986 C960 0.931 . S
H987 C969 0.931 . S
H988 C973 0.929 . S
H989 C975 0.930 . S
Co990 N994 2.148 . S
Co990 N1000 2.128 . S
Co990 N1010 2.194 . S
Co990 O1015 2.351 . S
Co990 O1016 2.155 . S
Co990 O1017 2.096 . S
C991 N994 1.301 . S
C991 N995 1.328 . S
C991 H996 0.930 . S
C992 C993 1.333 . S
C992 N994 1.317 . S
C992 H997 0.930 . S
C993 C992 1.333 . S
C993 N995 1.350 . S
C993 H1019 0.931 . S
N994 Co990 2.148 . S
N994 C991 1.301 . S
N994 C992 1.317 . S
N995 C991 1.328 . S
N995 C993 1.350 . S
H996 C991 0.930 . S
H997 C992 0.930 . S
C998 O999 1.224 . S
C998 O1017 1.247 . S
O999 C998 1.224 . S
N1000 Co990 2.128 . S
N1000 C1001 1.355 . S
N1000 C1003 1.311 . S
C1001 N1000 1.355 . S
C1001 C1002 1.363 . S
C1001 H1013 0.929 . S
C1002 C1001 1.363 . S
C1002 N1004 1.375 . S
C1002 H1020 0.931 . S
C1003 N1000 1.311 . S
C1003 N1004 1.347 . S
C1003 H1014 0.929 . S
N1004 C1002 1.375 . S
N1004 C1003 1.347 . S
C1005 C1008 1.365 . S
C1005 N1010 1.328 . S
C1005 H1011 0.929 . S
C1006 C1007 1.362 . S
C1006 C1009 1.378 . S
C1006 H1021 0.929 . S
C1007 C1006 1.362 . S
C1007 C1008 1.366 . S
C1008 C1005 1.365 . S
C1008 C1007 1.366 . S
C1008 H1022 0.930 . S
C1009 C1006 1.378 . S
C1009 N1010 1.315 . S
C1009 H1012 0.930 . S
N1010 Co990 2.194 . S
N1010 C1005 1.328 . S
N1010 C1009 1.315 . S
H1011 C1005 0.929 . S
H1012 C1009 0.930 . S
H1013 C1001 0.929 . S
H1014 C1003 0.929 . S
O1015 Co990 2.351 . S
O1015 C1018 1.244 . S
O1016 Co990 2.155 . S
O1016 C1018 1.240 . S
O1017 Co990 2.096 . S
O1017 C998 1.247 . S
C1018 O1015 1.244 . S
C1018 O1016 1.240 . S
H1019 C993 0.931 . S
H1020 C1002 0.931 . S
H1021 C1006 0.929 . S
H1022 C1008 0.930 . S
Co1023 N1027 2.148 . S
Co1023 N1033 2.128 . S
Co1023 N1043 2.194 . S
Co1023 O1048 2.351 . S
Co1023 O1049 2.155 . S
Co1023 O1050 2.096 . S
C1024 N1027 1.301 . S
C1024 N1028 1.328 . S
C1024 H1029 0.930 . S
C1025 C1026 1.333 . S
C1025 N1027 1.317 . S
C1025 H1030 0.930 . S
C1026 C1025 1.333 . S
C1026 N1028 1.350 . S
C1026 H1052 0.931 . S
N1027 Co1023 2.148 . S
N1027 C1024 1.301 . S
N1027 C1025 1.317 . S
N1028 C1024 1.328 . S
N1028 C1026 1.350 . S
H1029 C1024 0.930 . S
H1030 C1025 0.930 . S
C1031 O1032 1.224 . S
C1031 O1050 1.247 . S
O1032 C1031 1.224 . S
N1033 Co1023 2.128 . S
N1033 C1034 1.355 . S
N1033 C1036 1.311 . S
C1034 N1033 1.355 . S
C1034 C1035 1.363 . S
C1034 H1046 0.929 . S
C1035 C1034 1.363 . S
C1035 N1037 1.375 . S
C1035 H1053 0.931 . S
C1036 N1033 1.311 . S
C1036 N1037 1.347 . S
C1036 H1047 0.929 . S
N1037 C1035 1.375 . S
N1037 C1036 1.347 . S
C1038 C1041 1.365 . S
C1038 N1043 1.328 . S
C1038 H1044 0.929 . S
C1039 C1040 1.362 . S
C1039 C1042 1.378 . S
C1039 H1054 0.929 . S
C1040 C1039 1.362 . S
C1040 C1041 1.366 . S
C1041 C1038 1.365 . S
C1041 C1040 1.366 . S
C1041 H1055 0.930 . S
C1042 C1039 1.378 . S
C1042 N1043 1.315 . S
C1042 H1045 0.930 . S
N1043 Co1023 2.194 . S
N1043 C1038 1.328 . S
N1043 C1042 1.315 . S
H1044 C1038 0.929 . S
H1045 C1042 0.930 . S
H1046 C1034 0.929 . S
H1047 C1036 0.929 . S
O1048 Co1023 2.351 . S
O1048 C1051 1.244 . S
O1049 Co1023 2.155 . S
O1049 C1051 1.240 . S
O1050 Co1023 2.096 . S
O1050 C1031 1.247 . S
C1051 O1048 1.244 . S
C1051 O1049 1.240 . S
H1052 C1026 0.931 . S
H1053 C1035 0.931 . S
H1054 C1039 0.929 . S
H1055 C1041 0.930 . S
H1056 C1064 0.950 . S
H1057 C1069 0.950 . S
H1058 C1066 0.950 . S
H1059 C1068 0.950 . S
H1060 C1070 0.950 . S
H1061 C1072 0.950 . S
H1062 C1074 0.950 . S
H1063 C1075 0.950 . S
C1064 H1056 0.950 . S
C1064 C1065 1.386 . S
C1064 C1066 1.391 . S
C1065 C1064 1.386 . S
C1065 C1069 1.393 . S
C1066 H1058 0.950 . S
C1066 C1064 1.391 . S
C1066 C1067 1.400 . S
C1067 C1066 1.400 . S
C1067 C1068 1.398 . S
C1067 C1073 1.491 . S
C1068 H1059 0.950 . S
C1068 C1067 1.398 . S
C1068 C1069 1.391 . S
C1069 H1057 0.950 . S
C1069 C1065 1.393 . S
C1069 C1068 1.391 . S
C1070 H1060 0.950 . S
C1070 C1071 1.386 . S
C1070 C1072 1.391 . S
C1071 C1070 1.386 . S
C1071 C1075 1.393 . S
C1072 H1061 0.950 . S
C1072 C1070 1.391 . S
C1072 C1073 1.400 . S
C1073 C1067 1.491 . S
C1073 C1072 1.400 . S
C1073 C1074 1.398 . S
C1074 H1062 0.950 . S
C1074 C1073 1.398 . S
C1074 C1075 1.391 . S
C1075 H1063 0.950 . S
C1075 C1071 1.393 . S
C1075 C1074 1.391 . S
H1076 C1084 0.950 . S
H1077 C1089 0.950 . S
H1078 C1086 0.949 1_655 S
H1079 C1088 0.950 . S
H1080 C1090 0.950 . S
H1081 C1092 0.950 . S
H1082 C1094 0.950 . S
H1083 C1095 0.950 . S
C1084 H1076 0.950 . S
C1084 C1085 1.386 . S
C1084 C1086 1.407 . S
C1085 C1084 1.386 . S
C1085 C1089 1.393 . S
C1086 H1078 0.949 1_455 S
C1086 C1084 1.407 . S
C1086 C1087 1.385 1_455 S
C1087 C1086 1.385 1_655 S
C1087 C1088 1.398 . S
C1087 C1093 1.491 . S
C1088 H1079 0.950 . S
C1088 C1087 1.398 . S
C1088 C1089 1.391 1_655 S
C1089 H1077 0.950 . S
C1089 C1085 1.393 . S
C1089 C1088 1.391 1_455 S
C1090 H1080 0.950 . S
C1090 C1091 1.386 . S
C1090 C1092 1.391 . S
C1091 C1090 1.386 . S
C1091 C1095 1.393 . S
C1092 H1081 0.950 . S
C1092 C1090 1.391 . S
C1092 C1093 1.400 . S
C1093 C1087 1.491 . S
C1093 C1092 1.400 . S
C1093 C1094 1.398 . S
C1094 H1082 0.950 . S
C1094 C1093 1.398 . S
C1094 C1095 1.391 . S
C1095 H1083 0.950 . S
C1095 C1091 1.393 . S
C1095 C1094 1.391 . S
H1096 C1104 0.950 . S
H1097 C1109 0.950 . S
H1098 C1106 0.950 . S
H1099 C1108 0.950 . S
H1100 C1110 0.950 . S
H1101 C1112 0.950 . S
H1102 C1114 0.950 . S
H1103 C1115 0.950 . S
C1104 H1096 0.950 . S
C1104 C1105 1.386 . S
C1104 C1106 1.391 . S
C1105 C1104 1.386 . S
C1105 C1109 1.393 . S
C1106 H1098 0.950 . S
C1106 C1104 1.391 . S
C1106 C1107 1.400 . S
C1107 C1106 1.400 . S
C1107 C1108 1.398 . S
C1107 C1113 1.491 . S
C1108 H1099 0.950 . S
C1108 C1107 1.398 . S
C1108 C1109 1.391 . S
C1109 H1097 0.950 . S
C1109 C1105 1.393 . S
C1109 C1108 1.391 . S
C1110 H1100 0.950 . S
C1110 C1111 1.386 . S
C1110 C1112 1.391 . S
C1111 C1110 1.386 . S
C1111 C1115 1.393 . S
C1112 H1101 0.950 . S
C1112 C1110 1.391 . S
C1112 C1113 1.400 . S
C1113 C1107 1.491 . S
C1113 C1112 1.400 . S
C1113 C1114 1.398 . S
C1114 H1102 0.950 . S
C1114 C1113 1.398 . S
C1114 C1115 1.391 . S
C1115 H1103 0.950 . S
C1115 C1111 1.393 . S
C1115 C1114 1.391 . S
H1116 C1124 0.950 . S
H1117 C1129 0.950 . S
H1118 C1126 0.950 . S
H1119 C1128 0.950 . S
H1120 C1130 0.950 . S
H1121 C1132 0.950 . S
H1122 C1134 0.950 . S
H1123 C1135 0.950 . S
C1124 H1116 0.950 . S
C1124 C1125 1.386 . S
C1124 C1126 1.391 . S
C1125 C1124 1.386 . S
C1125 C1129 1.393 . S
C1126 H1118 0.950 . S
C1126 C1124 1.391 . S
C1126 C1127 1.400 . S
C1127 C1126 1.400 . S
C1127 C1128 1.398 . S
C1127 C1133 1.491 . S
C1128 H1119 0.950 . S
C1128 C1127 1.398 . S
C1128 C1129 1.391 . S
C1129 H1117 0.950 . S
C1129 C1125 1.393 . S
C1129 C1128 1.391 . S
C1130 H1120 0.950 . S
C1130 C1131 1.386 . S
C1130 C1132 1.391 . S
C1131 C1130 1.386 . S
C1131 C1135 1.393 . S
C1132 H1121 0.950 . S
C1132 C1130 1.391 . S
C1132 C1133 1.400 . S
C1133 C1127 1.491 . S
C1133 C1132 1.400 . S
C1133 C1134 1.398 . S
C1134 H1122 0.950 . S
C1134 C1133 1.398 . S
C1134 C1135 1.391 . S
C1135 H1123 0.950 . S
C1135 C1131 1.393 . S
C1135 C1134 1.391 . S
H1136 C1144 0.950 . S
H1137 C1149 0.950 . S
H1138 C1146 0.950 . S
H1139 C1148 0.950 . S
H1140 C1150 0.950 . S
H1141 C1152 0.950 . S
H1142 C1154 0.950 . S
H1143 C1155 0.950 . S
C1144 H1136 0.950 . S
C1144 C1145 1.386 . S
C1144 C1146 1.391 . S
C1145 C1144 1.386 . S
C1145 C1149 1.393 . S
C1146 H1138 0.950 . S
C1146 C1144 1.391 . S
C1146 C1147 1.400 . S
C1147 C1146 1.400 . S
C1147 C1148 1.398 . S
C1147 C1153 1.491 . S
C1148 H1139 0.950 . S
C1148 C1147 1.398 . S
C1148 C1149 1.391 . S
C1149 H1137 0.950 . S
C1149 C1145 1.393 . S
C1149 C1148 1.391 . S
C1150 H1140 0.950 . S
C1150 C1151 1.386 . S
C1150 C1152 1.391 . S
C1151 C1150 1.386 . S
C1151 C1155 1.393 . S
C1152 H1141 0.950 . S
C1152 C1150 1.391 . S
C1152 C1153 1.400 . S
C1153 C1147 1.491 . S
C1153 C1152 1.400 . S
C1153 C1154 1.398 . S
C1154 H1142 0.950 . S
C1154 C1153 1.398 . S
C1154 C1155 1.391 . S
C1155 H1143 0.950 . S
C1155 C1151 1.393 . S
C1155 C1154 1.391 . S
H1156 C1164 0.950 . S
H1157 C1169 0.950 . S
H1158 C1166 0.950 . S
H1159 C1168 0.950 . S
H1160 C1170 0.950 . S
H1161 C1172 0.950 . S
H1162 C1174 0.950 . S
H1163 C1175 0.950 . S
C1164 H1156 0.950 . S
C1164 C1165 1.386 . S
C1164 C1166 1.391 . S
C1165 C1164 1.386 . S
C1165 C1169 1.393 . S
C1166 H1158 0.950 . S
C1166 C1164 1.391 . S
C1166 C1167 1.400 . S
C1167 C1166 1.400 . S
C1167 C1168 1.398 . S
C1167 C1173 1.491 . S
C1168 H1159 0.950 . S
C1168 C1167 1.398 . S
C1168 C1169 1.391 . S
C1169 H1157 0.950 . S
C1169 C1165 1.393 . S
C1169 C1168 1.391 . S
C1170 H1160 0.950 . S
C1170 C1171 1.386 . S
C1170 C1172 1.391 . S
C1171 C1170 1.386 . S
C1171 C1175 1.393 . S
C1172 H1161 0.950 . S
C1172 C1170 1.391 . S
C1172 C1173 1.400 . S
C1173 C1167 1.491 . S
C1173 C1172 1.400 . S
C1173 C1174 1.398 . S
C1174 H1162 0.950 . S
C1174 C1173 1.398 . S
C1174 C1175 1.391 . S
C1175 H1163 0.950 . S
C1175 C1171 1.393 . S
C1175 C1174 1.391 . S
H1176 C1184 0.950 . S
H1177 C1189 0.950 . S
H1178 C1186 0.950 . S
H1179 C1188 0.950 . S
H1180 C1190 0.950 . S
H1181 C1192 0.950 . S
H1182 C1194 0.950 . S
H1183 C1195 0.950 . S
C1184 H1176 0.950 . S
C1184 C1185 1.386 . S
C1184 C1186 1.391 . S
C1185 C1184 1.386 . S
C1185 C1189 1.393 . S
C1186 H1178 0.950 . S
C1186 C1184 1.391 . S
C1186 C1187 1.400 . S
C1187 C1186 1.400 . S
C1187 C1188 1.398 . S
C1187 C1193 1.491 . S
C1188 H1179 0.950 . S
C1188 C1187 1.398 . S
C1188 C1189 1.391 . S
C1189 H1177 0.950 . S
C1189 C1185 1.393 . S
C1189 C1188 1.391 . S
C1190 H1180 0.950 . S
C1190 C1191 1.386 . S
C1190 C1192 1.391 . S
C1191 C1190 1.386 . S
C1191 C1195 1.393 . S
C1192 H1181 0.950 . S
C1192 C1190 1.391 . S
C1192 C1193 1.400 . S
C1193 C1187 1.491 . S
C1193 C1192 1.400 . S
C1193 C1194 1.398 . S
C1194 H1182 0.950 . S
C1194 C1193 1.398 . S
C1194 C1195 1.391 . S
C1195 H1183 0.950 . S
C1195 C1191 1.393 . S
C1195 C1194 1.391 . S
H1196 C1204 0.950 . S
H1197 C1209 0.950 . S
H1198 C1206 0.950 . S
H1199 C1208 0.950 . S
H1200 C1210 0.950 . S
H1201 C1212 0.950 1_655 S
H1202 C1214 0.950 . S
H1203 C1215 0.950 . S
C1204 H1196 0.950 . S
C1204 C1205 1.386 . S
C1204 C1206 1.391 . S
C1205 C1204 1.386 . S
C1205 C1209 1.393 . S
C1206 H1198 0.950 . S
C1206 C1204 1.391 . S
C1206 C1207 1.400 . S
C1207 C1206 1.400 . S
C1207 C1208 1.398 . S
C1207 C1213 1.491 . S
C1208 H1199 0.950 . S
C1208 C1207 1.398 . S
C1208 C1209 1.391 . S
C1209 H1197 0.950 . S
C1209 C1205 1.393 . S
C1209 C1208 1.391 . S
C1210 H1200 0.950 . S
C1210 C1211 1.386 . S
C1210 C1212 1.392 . S
C1211 C1210 1.386 . S
C1211 C1215 1.393 . S
C1212 H1201 0.950 1_455 S
C1212 C1210 1.392 . S
C1212 C1213 1.400 1_455 S
C1213 C1207 1.491 . S
C1213 C1212 1.400 1_655 S
C1213 C1214 1.398 . S
C1214 H1202 0.950 . S
C1214 C1213 1.398 . S
C1214 C1215 1.391 1_655 S
C1215 H1203 0.950 . S
C1215 C1211 1.393 . S
C1215 C1214 1.391 1_455 S
H1216 C1224 0.950 . S
H1217 C1229 0.950 . S
H1218 C1226 0.950 . S
H1219 C1228 0.950 . S
H1220 C1230 0.950 . S
H1221 C1232 0.950 . S
H1222 C1234 0.950 . S
H1223 C1235 0.950 . S
C1224 H1216 0.950 . S
C1224 C1225 1.386 . S
C1224 C1226 1.391 . S
C1225 C1224 1.386 . S
C1225 C1229 1.393 . S
C1226 H1218 0.950 . S
C1226 C1224 1.391 . S
C1226 C1227 1.400 . S
C1227 C1226 1.400 . S
C1227 C1228 1.398 . S
C1227 C1233 1.491 . S
C1228 H1219 0.950 . S
C1228 C1227 1.398 . S
C1228 C1229 1.391 . S
C1229 H1217 0.950 . S
C1229 C1225 1.393 . S
C1229 C1228 1.391 . S
C1230 H1220 0.950 . S
C1230 C1231 1.386 . S
C1230 C1232 1.391 . S
C1231 C1230 1.386 . S
C1231 C1235 1.393 . S
C1232 H1221 0.950 . S
C1232 C1230 1.391 . S
C1232 C1233 1.400 . S
C1233 C1227 1.491 . S
C1233 C1232 1.400 . S
C1233 C1234 1.398 . S
C1234 H1222 0.950 . S
C1234 C1233 1.398 . S
C1234 C1235 1.391 . S
C1235 H1223 0.950 . S
C1235 C1231 1.393 . S
C1235 C1234 1.391 . S
H1236 C1244 0.950 . S
H1237 C1249 0.950 . S
H1238 C1246 0.950 . S
H1239 C1248 0.950 . S
H1240 C1250 0.950 . S
H1241 C1252 0.950 . S
H1242 C1254 0.950 . S
H1243 C1255 0.950 . S
C1244 H1236 0.950 . S
C1244 C1245 1.386 . S
C1244 C1246 1.391 1_655 S
C1245 C1244 1.386 . S
C1245 C1249 1.393 . S
C1246 H1238 0.950 . S
C1246 C1244 1.391 1_455 S
C1246 C1247 1.400 . S
C1247 C1246 1.400 . S
C1247 C1248 1.398 . S
C1247 C1253 1.491 . S
C1248 H1239 0.950 . S
C1248 C1247 1.398 . S
C1248 C1249 1.391 1_455 S
C1249 H1237 0.950 . S
C1249 C1245 1.393 . S
C1249 C1248 1.391 1_655 S
C1250 H1240 0.950 . S
C1250 C1251 1.386 . S
C1250 C1252 1.391 . S
C1251 C1250 1.386 . S
C1251 C1255 1.393 . S
C1252 H1241 0.950 . S
C1252 C1250 1.391 . S
C1252 C1253 1.400 . S
C1253 C1247 1.491 . S
C1253 C1252 1.400 . S
C1253 C1254 1.398 . S
C1254 H1242 0.950 . S
C1254 C1253 1.398 . S
C1254 C1255 1.391 . S
C1255 H1243 0.950 . S
C1255 C1251 1.393 . S
C1255 C1254 1.391 . S
H1256 C1264 0.950 . S
H1257 C1269 0.950 . S
H1258 C1266 0.950 . S
H1259 C1268 0.950 . S
H1260 C1270 0.950 . S
H1261 C1272 0.950 . S
H1262 C1274 0.950 . S
H1263 C1275 0.950 . S
C1264 H1256 0.950 . S
C1264 C1265 1.386 . S
C1264 C1266 1.391 . S
C1265 C1264 1.386 . S
C1265 C1269 1.393 . S
C1266 H1258 0.950 . S
C1266 C1264 1.391 . S
C1266 C1267 1.400 . S
C1267 C1266 1.400 . S
C1267 C1268 1.398 . S
C1267 C1273 1.491 . S
C1268 H1259 0.950 . S
C1268 C1267 1.398 . S
C1268 C1269 1.391 . S
C1269 H1257 0.950 . S
C1269 C1265 1.393 . S
C1269 C1268 1.391 . S
C1270 H1260 0.950 . S
C1270 C1271 1.386 . S
C1270 C1272 1.391 . S
C1271 C1270 1.386 . S
C1271 C1275 1.393 . S
C1272 H1261 0.950 . S
C1272 C1270 1.391 . S
C1272 C1273 1.400 . S
C1273 C1267 1.491 . S
C1273 C1272 1.400 . S
C1273 C1274 1.398 . S
C1274 H1262 0.950 . S
C1274 C1273 1.398 . S
C1274 C1275 1.391 . S
C1275 H1263 0.950 . S
C1275 C1271 1.393 . S
C1275 C1274 1.391 . S
H1276 C1284 0.950 . S
H1277 C1289 0.950 . S
H1278 C1286 0.950 . S
H1279 C1288 0.950 . S
H1280 C1290 0.950 . S
H1281 C1292 0.950 . S
H1282 C1294 0.950 . S
H1283 C1295 0.950 . S
C1284 H1276 0.950 . S
C1284 C1285 1.386 . S
C1284 C1286 1.391 . S
C1285 C1284 1.386 . S
C1285 C1289 1.393 . S
C1286 H1278 0.950 . S
C1286 C1284 1.391 . S
C1286 C1287 1.400 . S
C1287 C1286 1.400 . S
C1287 C1288 1.398 . S
C1287 C1293 1.491 . S
C1288 H1279 0.950 . S
C1288 C1287 1.398 . S
C1288 C1289 1.391 . S
C1289 H1277 0.950 . S
C1289 C1285 1.393 . S
C1289 C1288 1.391 . S
C1290 H1280 0.950 . S
C1290 C1291 1.386 . S
C1290 C1292 1.391 . S
C1291 C1290 1.386 . S
C1291 C1295 1.393 . S
C1292 H1281 0.950 . S
C1292 C1290 1.391 . S
C1292 C1293 1.400 . S
C1293 C1287 1.491 . S
C1293 C1292 1.400 . S
C1293 C1294 1.398 . S
C1294 H1282 0.950 . S
C1294 C1293 1.398 . S
C1294 C1295 1.391 . S
C1295 H1283 0.950 . S
C1295 C1291 1.393 . S
C1295 C1294 1.391 . S
H1296 C1304 0.950 . S
H1297 C1309 0.950 . S
H1298 C1306 0.950 . S
H1299 C1308 0.950 . S
H1300 C1310 0.950 . S
H1301 C1312 0.950 . S
H1302 C1314 0.950 . S
H1303 C1315 0.950 . S
C1304 H1296 0.950 . S
C1304 C1305 1.386 . S
C1304 C1306 1.391 . S
C1305 C1304 1.386 . S
C1305 C1309 1.393 . S
C1306 H1298 0.950 . S
C1306 C1304 1.391 . S
C1306 C1307 1.400 . S
C1307 C1306 1.400 . S
C1307 C1308 1.398 . S
C1307 C1313 1.491 . S
C1308 H1299 0.950 . S
C1308 C1307 1.398 . S
C1308 C1309 1.391 . S
C1309 H1297 0.950 . S
C1309 C1305 1.393 . S
C1309 C1308 1.391 . S
C1310 H1300 0.950 . S
C1310 C1311 1.386 . S
C1310 C1312 1.391 . S
C1311 C1310 1.386 . S
C1311 C1315 1.393 . S
C1312 H1301 0.950 . S
C1312 C1310 1.391 . S
C1312 C1313 1.400 . S
C1313 C1307 1.491 . S
C1313 C1312 1.400 . S
C1313 C1314 1.398 . S
C1314 H1302 0.950 . S
C1314 C1313 1.398 . S
C1314 C1315 1.391 . S
C1315 H1303 0.950 . S
C1315 C1311 1.393 . S
C1315 C1314 1.391 . S
H1316 C1324 0.950 . S
H1317 C1329 0.950 . S
H1318 C1326 0.950 . S
H1319 C1328 0.950 . S
H1320 C1330 0.950 . S
H1321 C1332 0.950 . S
H1322 C1334 0.950 . S
H1323 C1335 0.950 . S
C1324 H1316 0.950 . S
C1324 C1325 1.386 . S
C1324 C1326 1.391 . S
C1325 C1324 1.386 . S
C1325 C1329 1.393 . S
C1326 H1318 0.950 . S
C1326 C1324 1.391 . S
C1326 C1327 1.400 . S
C1327 C1326 1.400 . S
C1327 C1328 1.398 . S
C1327 C1333 1.491 . S
C1328 H1319 0.950 . S
C1328 C1327 1.398 . S
C1328 C1329 1.391 . S
C1329 H1317 0.950 . S
C1329 C1325 1.393 . S
C1329 C1328 1.391 . S
C1330 H1320 0.950 . S
C1330 C1331 1.386 . S
C1330 C1332 1.391 . S
C1331 C1330 1.386 . S
C1331 C1335 1.393 . S
C1332 H1321 0.950 . S
C1332 C1330 1.391 . S
C1332 C1333 1.400 . S
C1333 C1327 1.491 . S
C1333 C1332 1.400 . S
C1333 C1334 1.398 . S
C1334 H1322 0.950 . S
C1334 C1333 1.398 . S
C1334 C1335 1.391 . S
C1335 H1323 0.950 . S
C1335 C1331 1.393 . S
C1335 C1334 1.391 . S
H1336 C1344 0.950 . S
H1337 C1349 0.950 . S
H1338 C1346 0.950 . S
H1339 C1348 0.950 . S
H1340 C1350 0.950 . S
H1341 C1352 0.950 . S
H1342 C1354 0.950 . S
H1343 C1355 0.950 . S
C1344 H1336 0.950 . S
C1344 C1345 1.386 . S
C1344 C1346 1.391 . S
C1345 C1344 1.386 . S
C1345 C1349 1.393 . S
C1346 H1338 0.950 . S
C1346 C1344 1.391 . S
C1346 C1347 1.400 . S
C1347 C1346 1.400 . S
C1347 C1348 1.398 . S
C1347 C1353 1.491 . S
C1348 H1339 0.950 . S
C1348 C1347 1.398 . S
C1348 C1349 1.391 . S
C1349 H1337 0.950 . S
C1349 C1345 1.393 . S
C1349 C1348 1.391 . S
C1350 H1340 0.950 . S
C1350 C1351 1.386 . S
C1350 C1352 1.391 . S
C1351 C1350 1.386 . S
C1351 C1355 1.393 . S
C1352 H1341 0.950 . S
C1352 C1350 1.391 . S
C1352 C1353 1.400 . S
C1353 C1347 1.491 . S
C1353 C1352 1.400 . S
C1353 C1354 1.398 . S
C1354 H1342 0.950 . S
C1354 C1353 1.398 . S
C1354 C1355 1.391 . S
C1355 H1343 0.950 . S
C1355 C1351 1.393 . S
C1355 C1354 1.391 . S
H1356 C1364 0.950 . S
H1357 C1369 0.950 . S
H1358 C1366 0.950 . S
H1359 C1368 0.950 . S
H1360 C1370 0.950 . S
H1361 C1372 0.950 . S
H1362 C1374 0.950 . S
H1363 C1375 0.950 . S
C1364 H1356 0.950 . S
C1364 C1365 1.386 . S
C1364 C1366 1.391 1_655 S
C1365 C1364 1.386 . S
C1365 C1369 1.393 . S
C1366 H1358 0.950 . S
C1366 C1364 1.391 1_455 S
C1366 C1367 1.400 . S
C1367 C1366 1.400 . S
C1367 C1368 1.398 . S
C1367 C1373 1.491 . S
C1368 H1359 0.950 . S
C1368 C1367 1.398 . S
C1368 C1369 1.391 1_455 S
C1369 H1357 0.950 . S
C1369 C1365 1.393 . S
C1369 C1368 1.391 1_655 S
C1370 H1360 0.950 . S
C1370 C1371 1.386 . S
C1370 C1372 1.391 . S
C1371 C1370 1.386 . S
C1371 C1375 1.393 . S
C1372 H1361 0.950 . S
C1372 C1370 1.391 . S
C1372 C1373 1.400 . S
C1373 C1367 1.491 . S
C1373 C1372 1.400 . S
C1373 C1374 1.398 . S
C1374 H1362 0.950 . S
C1374 C1373 1.398 . S
C1374 C1375 1.391 . S
C1375 H1363 0.950 . S
C1375 C1371 1.393 . S
C1375 C1374 1.391 . S
H1376 C1384 0.950 . S
H1377 C1389 0.950 . S
H1378 C1386 0.950 . S
H1379 C1388 0.950 . S
H1380 C1390 0.950 . S
H1381 C1392 0.950 . S
H1382 C1394 0.950 . S
H1383 C1395 0.950 . S
C1384 H1376 0.950 . S
C1384 C1385 1.386 . S
C1384 C1386 1.391 . S
C1385 C1384 1.386 . S
C1385 C1389 1.393 . S
C1386 H1378 0.950 . S
C1386 C1384 1.391 . S
C1386 C1387 1.400 . S
C1387 C1386 1.400 . S
C1387 C1388 1.398 . S
C1387 C1393 1.491 . S
C1388 H1379 0.950 . S
C1388 C1387 1.398 . S
C1388 C1389 1.391 . S
C1389 H1377 0.950 . S
C1389 C1385 1.393 . S
C1389 C1388 1.391 . S
C1390 H1380 0.950 . S
C1390 C1391 1.386 . S
C1390 C1392 1.391 . S
C1391 C1390 1.386 . S
C1391 C1395 1.393 . S
C1392 H1381 0.950 . S
C1392 C1390 1.391 . S
C1392 C1393 1.400 . S
C1393 C1387 1.491 . S
C1393 C1392 1.400 . S
C1393 C1394 1.398 . S
C1394 H1382 0.950 . S
C1394 C1393 1.398 . S
C1394 C1395 1.391 . S
C1395 H1383 0.950 . S
C1395 C1391 1.393 . S
C1395 C1394 1.391 . S
H1396 C1404 0.950 . S
H1397 C1409 0.950 . S
H1398 C1406 0.950 . S
H1399 C1408 0.950 . S
H1400 C1410 0.950 . S
H1401 C1412 0.950 . S
H1402 C1414 0.950 . S
H1403 C1415 0.950 . S
C1404 H1396 0.950 . S
C1404 C1405 1.386 . S
C1404 C1406 1.391 . S
C1405 C1404 1.386 . S
C1405 C1409 1.393 . S
C1406 H1398 0.950 . S
C1406 C1404 1.391 . S
C1406 C1407 1.400 . S
C1407 C1406 1.400 . S
C1407 C1408 1.398 . S
C1407 C1413 1.491 . S
C1408 H1399 0.950 . S
C1408 C1407 1.398 . S
C1408 C1409 1.391 . S
C1409 H1397 0.950 . S
C1409 C1405 1.393 . S
C1409 C1408 1.391 . S
C1410 H1400 0.950 . S
C1410 C1411 1.386 . S
C1410 C1412 1.391 . S
C1411 C1410 1.386 . S
C1411 C1415 1.393 . S
C1412 H1401 0.950 . S
C1412 C1410 1.391 . S
C1412 C1413 1.400 . S
C1413 C1407 1.491 . S
C1413 C1412 1.400 . S
C1413 C1414 1.398 . S
C1414 H1402 0.950 . S
C1414 C1413 1.398 . S
C1414 C1415 1.391 . S
C1415 H1403 0.950 . S
C1415 C1411 1.393 . S
C1415 C1414 1.391 . S
H1416 C1424 0.950 . S
H1417 C1429 0.950 . S
H1418 C1426 0.950 . S
H1419 C1428 0.950 . S
H1420 C1430 0.950 . S
H1421 C1432 0.950 . S
H1422 C1434 0.950 . S
H1423 C1435 0.950 . S
C1424 H1416 0.950 . S
C1424 C1425 1.386 . S
C1424 C1426 1.391 . S
C1425 C1424 1.386 . S
C1425 C1429 1.393 . S
C1426 H1418 0.950 . S
C1426 C1424 1.391 . S
C1426 C1427 1.400 . S
C1427 C1426 1.400 . S
C1427 C1428 1.398 . S
C1427 C1433 1.491 . S
C1428 H1419 0.950 . S
C1428 C1427 1.398 . S
C1428 C1429 1.391 . S
C1429 H1417 0.950 . S
C1429 C1425 1.393 . S
C1429 C1428 1.391 . S
C1430 H1420 0.950 . S
C1430 C1431 1.386 . S
C1430 C1432 1.391 . S
C1431 C1430 1.386 . S
C1431 C1435 1.393 . S
C1432 H1421 0.950 . S
C1432 C1430 1.391 . S
C1432 C1433 1.400 . S
C1433 C1427 1.491 . S
C1433 C1432 1.400 . S
C1433 C1434 1.398 . S
C1434 H1422 0.950 . S
C1434 C1433 1.398 . S
C1434 C1435 1.391 . S
C1435 H1423 0.950 . S
C1435 C1431 1.393 . S
C1435 C1434 1.391 . S
H1436 C1444 0.950 . S
H1437 C1449 0.950 . S
H1438 C1446 0.950 . S
H1439 C1448 0.950 . S
H1440 C1450 0.950 . S
H1441 C1452 0.950 . S
H1442 C1454 0.950 . S
H1443 C1455 0.950 . S
C1444 H1436 0.950 . S
C1444 C1445 1.386 . S
C1444 C1446 1.391 1_655 S
C1445 C1444 1.386 . S
C1445 C1449 1.393 . S
C1446 H1438 0.950 . S
C1446 C1444 1.391 1_455 S
C1446 C1447 1.400 . S
C1447 C1446 1.400 . S
C1447 C1448 1.398 . S
C1447 C1453 1.491 . S
C1448 H1439 0.950 . S
C1448 C1447 1.398 . S
C1448 C1449 1.391 1_455 S
C1449 H1437 0.950 . S
C1449 C1445 1.393 . S
C1449 C1448 1.391 1_655 S
C1450 H1440 0.950 . S
C1450 C1451 1.386 . S
C1450 C1452 1.391 . S
C1451 C1450 1.386 . S
C1451 C1455 1.393 . S
C1452 H1441 0.950 . S
C1452 C1450 1.391 . S
C1452 C1453 1.400 . S
C1453 C1447 1.491 . S
C1453 C1452 1.400 . S
C1453 C1454 1.398 . S
C1454 H1442 0.950 . S
C1454 C1453 1.398 . S
C1454 C1455 1.391 . S
C1455 H1443 0.950 . S
C1455 C1451 1.393 . S
C1455 C1454 1.391 . S
H1456 C1464 0.950 . S
H1457 C1469 0.950 . S
H1458 C1466 0.950 . S
H1459 C1468 0.950 . S
H1460 C1470 0.950 . S
H1461 C1472 0.950 . S
H1462 C1474 0.950 . S
H1463 C1475 0.950 . S
C1464 H1456 0.950 . S
C1464 C1465 1.386 . S
C1464 C1466 1.391 . S
C1465 C1464 1.386 . S
C1465 C1469 1.393 . S
C1466 H1458 0.950 . S
C1466 C1464 1.391 . S
C1466 C1467 1.400 . S
C1467 C1466 1.400 . S
C1467 C1468 1.398 . S
C1467 C1473 1.491 . S
C1468 H1459 0.950 . S
C1468 C1467 1.398 . S
C1468 C1469 1.391 . S
C1469 H1457 0.950 . S
C1469 C1465 1.393 . S
C1469 C1468 1.391 . S
C1470 H1460 0.950 . S
C1470 C1471 1.386 . S
C1470 C1472 1.391 . S
C1471 C1470 1.386 . S
C1471 C1475 1.393 . S
C1472 H1461 0.950 . S
C1472 C1470 1.391 . S
C1472 C1473 1.400 . S
C1473 C1467 1.491 . S
C1473 C1472 1.400 . S
C1473 C1474 1.398 . S
C1474 H1462 0.950 . S
C1474 C1473 1.398 . S
C1474 C1475 1.391 . S
C1475 H1463 0.950 . S
C1475 C1471 1.393 . S
C1475 C1474 1.391 . S
H1476 C1484 0.950 . S
H1477 C1489 0.950 . S
H1478 C1486 0.950 . S
H1479 C1488 0.950 . S
H1480 C1490 0.950 . S
H1481 C1492 0.950 . S
H1482 C1494 0.950 . S
H1483 C1495 0.950 . S
C1484 H1476 0.950 . S
C1484 C1485 1.386 . S
C1484 C1486 1.391 . S
C1485 C1484 1.386 . S
C1485 C1489 1.393 . S
C1486 H1478 0.950 . S
C1486 C1484 1.391 . S
C1486 C1487 1.400 . S
C1487 C1486 1.400 . S
C1487 C1488 1.398 . S
C1487 C1493 1.491 . S
C1488 H1479 0.950 . S
C1488 C1487 1.398 . S
C1488 C1489 1.391 . S
C1489 H1477 0.950 . S
C1489 C1485 1.393 . S
C1489 C1488 1.391 . S
C1490 H1480 0.950 . S
C1490 C1491 1.386 . S
C1490 C1492 1.391 1_655 S
C1491 C1490 1.386 . S
C1491 C1495 1.393 . S
C1492 H1481 0.950 . S
C1492 C1490 1.391 1_455 S
C1492 C1493 1.400 . S
C1493 C1487 1.491 . S
C1493 C1492 1.400 . S
C1493 C1494 1.398 1_455 S
C1494 H1482 0.950 . S
C1494 C1493 1.398 1_655 S
C1494 C1495 1.391 . S
C1495 H1483 0.950 . S
C1495 C1491 1.393 . S
C1495 C1494 1.391 . S
H1496 C1504 0.950 . S
H1497 C1509 0.950 . S
H1498 C1506 0.950 . S
H1499 C1508 0.950 . S
H1500 C1510 0.950 . S
H1501 C1512 0.950 . S
H1502 C1514 0.950 . S
H1503 C1515 0.950 . S
C1504 H1496 0.950 . S
C1504 C1505 1.386 . S
C1504 C1506 1.391 . S
C1505 C1504 1.386 . S
C1505 C1509 1.393 . S
C1506 H1498 0.950 . S
C1506 C1504 1.391 . S
C1506 C1507 1.400 . S
C1507 C1506 1.400 . S
C1507 C1508 1.398 . S
C1507 C1513 1.491 . S
C1508 H1499 0.950 . S
C1508 C1507 1.398 . S
C1508 C1509 1.391 . S
C1509 H1497 0.950 . S
C1509 C1505 1.393 . S
C1509 C1508 1.391 . S
C1510 H1500 0.950 . S
C1510 C1511 1.386 . S
C1510 C1512 1.391 . S
C1511 C1510 1.386 . S
C1511 C1515 1.393 . S
C1512 H1501 0.950 . S
C1512 C1510 1.391 . S
C1512 C1513 1.400 . S
C1513 C1507 1.491 . S
C1513 C1512 1.400 . S
C1513 C1514 1.398 . S
C1514 H1502 0.950 . S
C1514 C1513 1.398 . S
C1514 C1515 1.391 . S
C1515 H1503 0.950 . S
C1515 C1511 1.393 . S
C1515 C1514 1.391 . S
H1516 C1524 0.950 . S
H1517 C1529 0.950 . S
H1518 C1526 0.950 . S
H1519 C1528 0.950 . S
H1520 C1530 0.950 . S
H1521 C1532 0.950 . S
H1522 C1534 0.950 . S
H1523 C1535 0.950 . S
C1524 H1516 0.950 . S
C1524 C1525 1.386 . S
C1524 C1526 1.391 . S
C1525 C1524 1.386 . S
C1525 C1529 1.393 . S
C1526 H1518 0.950 . S
C1526 C1524 1.391 . S
C1526 C1527 1.400 . S
C1527 C1526 1.400 . S
C1527 C1528 1.398 . S
C1527 C1533 1.491 . S
C1528 H1519 0.950 . S
C1528 C1527 1.398 . S
C1528 C1529 1.391 . S
C1529 H1517 0.950 . S
C1529 C1525 1.393 . S
C1529 C1528 1.391 . S
C1530 H1520 0.950 . S
C1530 C1531 1.386 . S
C1530 C1532 1.391 . S
C1531 C1530 1.386 . S
C1531 C1535 1.393 . S
C1532 H1521 0.950 . S
C1532 C1530 1.391 . S
C1532 C1533 1.400 . S
C1533 C1527 1.491 . S
C1533 C1532 1.400 . S
C1533 C1534 1.398 . S
C1534 H1522 0.950 . S
C1534 C1533 1.398 . S
C1534 C1535 1.391 . S
C1535 H1523 0.950 . S
C1535 C1531 1.393 . S
C1535 C1534 1.391 . S
H1536 C1544 0.950 . S
H1537 C1549 0.950 . S
H1538 C1546 0.950 . S
H1539 C1548 0.950 . S
H1540 C1550 0.950 . S
H1541 C1552 0.950 . S
H1542 C1554 0.950 . S
H1543 C1555 0.950 . S
C1544 H1536 0.950 . S
C1544 C1545 1.386 . S
C1544 C1546 1.391 . S
C1545 C1544 1.386 . S
C1545 C1549 1.393 . S
C1546 H1538 0.950 . S
C1546 C1544 1.391 . S
C1546 C1547 1.400 . S
C1547 C1546 1.400 . S
C1547 C1548 1.398 . S
C1547 C1553 1.491 . S
C1548 H1539 0.950 . S
C1548 C1547 1.398 . S
C1548 C1549 1.391 . S
C1549 H1537 0.950 . S
C1549 C1545 1.393 . S
C1549 C1548 1.391 . S
C1550 H1540 0.950 . S
C1550 C1551 1.386 . S
C1550 C1552 1.391 . S
C1551 C1550 1.386 . S
C1551 C1555 1.393 . S
C1552 H1541 0.950 . S
C1552 C1550 1.391 . S
C1552 C1553 1.400 . S
C1553 C1547 1.491 . S
C1553 C1552 1.400 . S
C1553 C1554 1.398 . S
C1554 H1542 0.950 . S
C1554 C1553 1.398 . S
C1554 C1555 1.391 . S
C1555 H1543 0.950 . S
C1555 C1551 1.393 . S
C1555 C1554 1.391 . S
H1556 C1564 0.950 . S
H1557 C1569 0.950 . S
H1558 C1566 0.950 . S
H1559 C1568 0.950 . S
H1560 C1570 0.950 . S
H1561 C1572 0.950 . S
H1562 C1574 0.950 . S
H1563 C1575 0.950 . S
C1564 H1556 0.950 . S
C1564 C1565 1.386 . S
C1564 C1566 1.391 . S
C1565 C1564 1.386 . S
C1565 C1569 1.393 . S
C1566 H1558 0.950 . S
C1566 C1564 1.391 . S
C1566 C1567 1.400 . S
C1567 C1566 1.400 . S
C1567 C1568 1.398 . S
C1567 C1573 1.491 . S
C1568 H1559 0.950 . S
C1568 C1567 1.398 . S
C1568 C1569 1.391 . S
C1569 H1557 0.950 . S
C1569 C1565 1.393 . S
C1569 C1568 1.391 . S
C1570 H1560 0.950 . S
C1570 C1571 1.386 . S
C1570 C1572 1.391 . S
C1571 C1570 1.386 . S
C1571 C1575 1.393 . S
C1572 H1561 0.950 . S
C1572 C1570 1.391 . S
C1572 C1573 1.400 . S
C1573 C1567 1.491 . S
C1573 C1572 1.400 . S
C1573 C1574 1.398 . S
C1574 H1562 0.950 . S
C1574 C1573 1.398 . S
C1574 C1575 1.391 . S
C1575 H1563 0.950 . S
C1575 C1571 1.393 . S
C1575 C1574 1.391 . S
H1576 C1584 0.950 . S
H1577 C1589 0.950 . S
H1578 C1586 0.950 . S
H1579 C1588 0.950 . S
H1580 C1590 0.950 . S
H1581 C1592 0.950 . S
H1582 C1594 0.950 . S
H1583 C1595 0.950 . S
C1584 H1576 0.950 . S
C1584 C1585 1.386 . S
C1584 C1586 1.391 . S
C1585 C1584 1.386 . S
C1585 C1589 1.393 . S
C1586 H1578 0.950 . S
C1586 C1584 1.391 . S
C1586 C1587 1.400 . S
C1587 C1586 1.400 . S
C1587 C1588 1.398 . S
C1587 C1593 1.491 . S
C1588 H1579 0.950 . S
C1588 C1587 1.398 . S
C1588 C1589 1.391 . S
C1589 H1577 0.950 . S
C1589 C1585 1.393 . S
C1589 C1588 1.391 . S
C1590 H1580 0.950 . S
C1590 C1591 1.386 . S
C1590 C1592 1.391 . S
C1591 C1590 1.386 . S
C1591 C1595 1.393 . S
C1592 H1581 0.950 . S
C1592 C1590 1.391 . S
C1592 C1593 1.400 . S
C1593 C1587 1.491 . S
C1593 C1592 1.400 . S
C1593 C1594 1.398 . S
C1594 H1582 0.950 . S
C1594 C1593 1.398 . S
C1594 C1595 1.391 . S
C1595 H1583 0.950 . S
C1595 C1591 1.393 . S
C1595 C1594 1.391 . S
H1596 C1604 0.950 . S
H1597 C1609 0.950 . S
H1598 C1606 0.950 . S
H1599 C1608 0.950 . S
H1600 C1610 0.950 . S
H1601 C1612 0.949 1_655 S
H1602 C1614 0.950 . S
H1603 C1615 0.950 . S
C1604 H1596 0.950 . S
C1604 C1605 1.386 . S
C1604 C1606 1.391 . S
C1605 C1604 1.386 . S
C1605 C1609 1.393 . S
C1606 H1598 0.950 . S
C1606 C1604 1.391 . S
C1606 C1607 1.400 . S
C1607 C1606 1.400 . S
C1607 C1608 1.398 . S
C1607 C1613 1.491 . S
C1608 H1599 0.950 . S
C1608 C1607 1.398 . S
C1608 C1609 1.391 . S
C1609 H1597 0.950 . S
C1609 C1605 1.393 . S
C1609 C1608 1.391 . S
C1610 H1600 0.950 . S
C1610 C1611 1.386 . S
C1610 C1612 1.416 . S
C1611 C1610 1.386 . S
C1611 C1615 1.393 . S
C1612 H1601 0.949 1_455 S
C1612 C1610 1.416 . S
C1612 C1613 1.377 1_455 S
C1613 C1607 1.491 . S
C1613 C1612 1.377 1_655 S
C1613 C1614 1.398 . S
C1614 H1602 0.950 . S
C1614 C1613 1.398 . S
C1614 C1615 1.391 1_655 S
C1615 H1603 0.950 . S
C1615 C1611 1.393 . S
C1615 C1614 1.391 1_455 S
H1616 C1624 0.950 . S
H1617 C1629 0.950 . S
H1618 C1626 0.950 . S
H1619 C1628 0.950 . S
H1620 C1630 0.950 . S
H1621 C1632 0.950 . S
H1622 C1634 0.950 . S
H1623 C1635 0.950 . S
C1624 H1616 0.950 . S
C1624 C1625 1.386 . S
C1624 C1626 1.391 . S
C1625 C1624 1.386 . S
C1625 C1629 1.393 . S
C1626 H1618 0.950 . S
C1626 C1624 1.391 . S
C1626 C1627 1.400 . S
C1627 C1626 1.400 . S
C1627 C1628 1.398 . S
C1627 C1633 1.491 . S
C1628 H1619 0.950 . S
C1628 C1627 1.398 . S
C1628 C1629 1.391 . S
C1629 H1617 0.950 . S
C1629 C1625 1.393 . S
C1629 C1628 1.391 . S
C1630 H1620 0.950 . S
C1630 C1631 1.386 . S
C1630 C1632 1.391 . S
C1631 C1630 1.386 . S
C1631 C1635 1.393 . S
C1632 H1621 0.950 . S
C1632 C1630 1.391 . S
C1632 C1633 1.400 . S
C1633 C1627 1.491 . S
C1633 C1632 1.400 . S
C1633 C1634 1.398 . S
C1634 H1622 0.950 . S
C1634 C1633 1.398 . S
C1634 C1635 1.391 . S
C1635 H1623 0.950 . S
C1635 C1631 1.393 . S
C1635 C1634 1.391 . S
H1636 C1644 0.950 . S
H1637 C1649 0.950 . S
H1638 C1646 0.950 . S
H1639 C1648 0.950 . S
H1640 C1650 0.950 . S
H1641 C1652 0.950 . S
H1642 C1654 0.950 . S
H1643 C1655 0.950 . S
C1644 H1636 0.950 . S
C1644 C1645 1.386 . S
C1644 C1646 1.391 . S
C1645 C1644 1.386 . S
C1645 C1649 1.393 . S
C1646 H1638 0.950 . S
C1646 C1644 1.391 . S
C1646 C1647 1.400 . S
C1647 C1646 1.400 . S
C1647 C1648 1.398 . S
C1647 C1653 1.491 . S
C1648 H1639 0.950 . S
C1648 C1647 1.398 . S
C1648 C1649 1.391 . S
C1649 H1637 0.950 . S
C1649 C1645 1.393 . S
C1649 C1648 1.391 . S
C1650 H1640 0.950 . S
C1650 C1651 1.386 . S
C1650 C1652 1.391 . S
C1651 C1650 1.386 . S
C1651 C1655 1.393 . S
C1652 H1641 0.950 . S
C1652 C1650 1.391 . S
C1652 C1653 1.400 1_455 S
C1653 C1647 1.491 . S
C1653 C1652 1.400 1_655 S
C1653 C1654 1.398 . S
C1654 H1642 0.950 . S
C1654 C1653 1.398 . S
C1654 C1655 1.391 1_655 S
C1655 H1643 0.950 . S
C1655 C1651 1.393 . S
C1655 C1654 1.391 1_455 S
H1656 C1664 0.950 . S
H1657 C1669 0.950 . S
H1658 C1666 0.950 . S
H1659 C1668 0.950 . S
H1660 C1670 0.950 . S
H1661 C1672 0.950 . S
H1662 C1674 0.950 . S
H1663 C1675 0.950 . S
C1664 H1656 0.950 . S
C1664 C1665 1.386 . S
C1664 C1666 1.391 . S
C1665 C1664 1.386 . S
C1665 C1669 1.393 . S
C1666 H1658 0.950 . S
C1666 C1664 1.391 . S
C1666 C1667 1.400 . S
C1667 C1666 1.400 . S
C1667 C1668 1.398 . S
C1667 C1673 1.491 . S
C1668 H1659 0.950 . S
C1668 C1667 1.398 . S
C1668 C1669 1.391 . S
C1669 H1657 0.950 . S
C1669 C1665 1.393 . S
C1669 C1668 1.391 . S
C1670 H1660 0.950 . S
C1670 C1671 1.386 . S
C1670 C1672 1.391 . S
C1671 C1670 1.386 . S
C1671 C1675 1.393 . S
C1672 H1661 0.950 . S
C1672 C1670 1.391 . S
C1672 C1673 1.400 . S
C1673 C1667 1.491 . S
C1673 C1672 1.400 . S
C1673 C1674 1.398 . S
C1674 H1662 0.950 . S
C1674 C1673 1.398 . S
C1674 C1675 1.391 . S
C1675 H1663 0.950 . S
C1675 C1671 1.393 . S
C1675 C1674 1.391 . S
H1676 C1684 0.950 . S
H1677 C1689 0.950 . S
H1678 C1686 0.950 . S
H1679 C1688 0.950 . S
H1680 C1690 0.950 . S
H1681 C1692 0.950 . S
H1682 C1694 0.950 . S
H1683 C1695 0.950 . S
C1684 H1676 0.950 . S
C1684 C1685 1.386 . S
C1684 C1686 1.391 . S
C1685 C1684 1.386 . S
C1685 C1689 1.393 . S
C1686 H1678 0.950 . S
C1686 C1684 1.391 . S
C1686 C1687 1.400 . S
C1687 C1686 1.400 . S
C1687 C1688 1.398 . S
C1687 C1693 1.491 . S
C1688 H1679 0.950 . S
C1688 C1687 1.398 . S
C1688 C1689 1.391 . S
C1689 H1677 0.950 . S
C1689 C1685 1.393 . S
C1689 C1688 1.391 . S
C1690 H1680 0.950 . S
C1690 C1691 1.386 . S
C1690 C1692 1.391 . S
C1691 C1690 1.386 . S
C1691 C1695 1.393 . S
C1692 H1681 0.950 . S
C1692 C1690 1.391 . S
C1692 C1693 1.400 . S
C1693 C1687 1.491 . S
C1693 C1692 1.400 . S
C1693 C1694 1.398 . S
C1694 H1682 0.950 . S
C1694 C1693 1.398 . S
C1694 C1695 1.391 . S
C1695 H1683 0.950 . S
C1695 C1691 1.393 . S
C1695 C1694 1.391 . S
H1696 C1704 0.950 . S
H1697 C1709 0.950 . S
H1698 C1706 0.950 . S
H1699 C1708 0.950 . S
H1700 C1710 0.950 . S
H1701 C1712 0.950 . S
H1702 C1714 0.950 . S
H1703 C1715 0.950 . S
C1704 H1696 0.950 . S
C1704 C1705 1.386 . S
C1704 C1706 1.391 . S
C1705 C1704 1.386 . S
C1705 C1709 1.393 . S
C1706 H1698 0.950 . S
C1706 C1704 1.391 . S
C1706 C1707 1.400 . S
C1707 C1706 1.400 . S
C1707 C1708 1.398 . S
C1707 C1713 1.491 1_545 S
C1708 H1699 0.950 . S
C1708 C1707 1.398 . S
C1708 C1709 1.391 . S
C1709 H1697 0.950 . S
C1709 C1705 1.393 . S
C1709 C1708 1.391 . S
C1710 H1700 0.950 . S
C1710 C1711 1.386 . S
C1710 C1712 1.391 . S
C1711 C1710 1.386 . S
C1711 C1715 1.393 . S
C1712 H1701 0.950 . S
C1712 C1710 1.391 . S
C1712 C1713 1.400 . S
C1713 C1707 1.491 1_565 S
C1713 C1712 1.400 . S
C1713 C1714 1.398 . S
C1714 H1702 0.950 . S
C1714 C1713 1.398 . S
C1714 C1715 1.391 . S
C1715 H1703 0.950 . S
C1715 C1711 1.393 . S
C1715 C1714 1.391 . S
H1716 C1724 0.950 . S
H1717 C1729 0.950 . S
H1718 C1726 0.950 . S
H1719 C1728 0.950 . S
H1720 C1730 0.950 . S
H1721 C1732 0.950 . S
H1722 C1734 0.950 . S
H1723 C1735 0.950 . S
C1724 H1716 0.950 . S
C1724 C1725 1.386 . S
C1724 C1726 1.391 . S
C1725 C1724 1.386 . S
C1725 C1729 1.393 . S
C1726 H1718 0.950 . S
C1726 C1724 1.391 . S
C1726 C1727 1.400 . S
C1727 C1726 1.400 . S
C1727 C1728 1.398 . S
C1727 C1733 1.491 . S
C1728 H1719 0.950 . S
C1728 C1727 1.398 . S
C1728 C1729 1.391 . S
C1729 H1717 0.950 . S
C1729 C1725 1.393 . S
C1729 C1728 1.391 . S
C1730 H1720 0.950 . S
C1730 C1731 1.386 . S
C1730 C1732 1.391 . S
C1731 C1730 1.386 . S
C1731 C1735 1.393 . S
C1732 H1721 0.950 . S
C1732 C1730 1.391 . S
C1732 C1733 1.400 . S
C1733 C1727 1.491 . S
C1733 C1732 1.400 . S
C1733 C1734 1.398 . S
C1734 H1722 0.950 . S
C1734 C1733 1.398 . S
C1734 C1735 1.391 . S
C1735 H1723 0.950 . S
C1735 C1731 1.393 . S
C1735 C1734 1.391 . S
H1736 C1744 0.950 . S
H1737 C1749 0.950 . S
H1738 C1746 0.942 1_565 S
H1739 C1748 0.950 . S
H1740 C1750 0.950 . S
H1741 C1752 0.942 1_545 S
H1742 C1754 0.950 . S
H1743 C1755 0.950 . S
C1744 H1736 0.950 . S
C1744 C1745 1.386 . S
C1744 C1746 1.391 . S
C1745 C1744 1.386 . S
C1745 C1749 1.393 . S
C1746 H1738 0.942 1_545 S
C1746 C1744 1.391 . S
C1746 C1747 1.400 . S
C1747 C1746 1.400 . S
C1747 C1748 1.398 . S
C1747 C1753 1.491 1_545 S
C1748 H1739 0.950 . S
C1748 C1747 1.398 . S
C1748 C1749 1.391 . S
C1749 H1737 0.950 . S
C1749 C1745 1.393 . S
C1749 C1748 1.391 . S
C1750 H1740 0.950 . S
C1750 C1751 1.386 . S
C1750 C1752 1.391 . S
C1751 C1750 1.386 . S
C1751 C1755 1.393 . S
C1752 H1741 0.942 1_565 S
C1752 C1750 1.391 . S
C1752 C1753 1.400 . S
C1753 C1747 1.491 1_565 S
C1753 C1752 1.400 . S
C1753 C1754 1.398 . S
C1754 H1742 0.950 . S
C1754 C1753 1.398 . S
C1754 C1755 1.391 . S
C1755 H1743 0.950 . S
C1755 C1751 1.393 . S
C1755 C1754 1.391 . S
H1756 C1764 0.950 . S
H1757 C1769 0.950 . S
H1758 C1766 0.950 . S
H1759 C1768 0.950 . S
H1760 C1770 0.950 . S
H1761 C1772 0.950 . S
H1762 C1774 0.950 . S
H1763 C1775 0.950 . S
C1764 H1756 0.950 . S
C1764 C1765 1.386 . S
C1764 C1766 1.391 . S
C1765 C1764 1.386 . S
C1765 C1769 1.393 . S
C1766 H1758 0.950 . S
C1766 C1764 1.391 . S
C1766 C1767 1.400 . S
C1767 C1766 1.400 . S
C1767 C1768 1.398 . S
C1767 C1773 1.491 1_554 S
C1768 H1759 0.950 . S
C1768 C1767 1.398 . S
C1768 C1769 1.391 . S
C1769 H1757 0.950 . S
C1769 C1765 1.393 . S
C1769 C1768 1.391 . S
C1770 H1760 0.950 . S
C1770 C1771 1.386 . S
C1770 C1772 1.391 . S
C1771 C1770 1.386 . S
C1771 C1775 1.393 . S
C1772 H1761 0.950 . S
C1772 C1770 1.391 . S
C1772 C1773 1.400 . S
C1773 C1767 1.491 1_556 S
C1773 C1772 1.400 . S
C1773 C1774 1.398 . S
C1774 H1762 0.950 . S
C1774 C1773 1.398 . S
C1774 C1775 1.391 . S
C1775 H1763 0.950 . S
C1775 C1771 1.393 . S
C1775 C1774 1.391 . S
H1776 C1784 0.950 . S
H1777 C1789 0.950 . S
H1778 C1786 0.950 1_545 S
H1779 C1788 0.950 . S
H1780 C1790 0.950 . S
H1781 C1792 0.950 1_565 S
H1782 C1794 0.950 . S
H1783 C1795 0.950 . S
C1784 H1776 0.950 . S
C1784 C1785 1.386 . S
C1784 C1786 1.391 . S
C1785 C1784 1.386 . S
C1785 C1789 1.393 . S
C1786 H1778 0.950 1_565 S
C1786 C1784 1.391 . S
C1786 C1787 1.400 . S
C1787 C1786 1.400 . S
C1787 C1788 1.398 . S
C1787 C1793 1.491 1_565 S
C1788 H1779 0.950 . S
C1788 C1787 1.398 . S
C1788 C1789 1.391 . S
C1789 H1777 0.950 . S
C1789 C1785 1.393 . S
C1789 C1788 1.391 . S
C1790 H1780 0.950 . S
C1790 C1791 1.386 . S
C1790 C1792 1.391 . S
C1791 C1790 1.386 . S
C1791 C1795 1.393 . S
C1792 H1781 0.950 1_545 S
C1792 C1790 1.391 . S
C1792 C1793 1.400 . S
C1793 C1787 1.491 1_545 S
C1793 C1792 1.400 . S
C1793 C1794 1.398 . S
C1794 H1782 0.950 . S
C1794 C1793 1.398 . S
C1794 C1795 1.391 . S
C1795 H1783 0.950 . S
C1795 C1791 1.393 . S
C1795 C1794 1.391 . S
H1796 C1804 0.950 . S
H1797 C1809 0.950 . S
H1798 C1806 0.950 . S
H1799 C1808 0.950 . S
H1800 C1810 0.950 . S
H1801 C1812 0.950 . S
H1802 C1814 0.950 . S
H1803 C1815 0.950 . S
C1804 H1796 0.950 . S
C1804 C1805 1.386 . S
C1804 C1806 1.391 . S
C1805 C1804 1.386 . S
C1805 C1809 1.393 . S
C1806 H1798 0.950 . S
C1806 C1804 1.391 . S
C1806 C1807 1.400 . S
C1807 C1806 1.400 . S
C1807 C1808 1.398 . S
C1807 C1813 1.491 . S
C1808 H1799 0.950 . S
C1808 C1807 1.398 . S
C1808 C1809 1.391 . S
C1809 H1797 0.950 . S
C1809 C1805 1.393 . S
C1809 C1808 1.391 . S
C1810 H1800 0.950 . S
C1810 C1811 1.386 . S
C1810 C1812 1.391 . S
C1811 C1810 1.386 . S
C1811 C1815 1.393 . S
C1812 H1801 0.950 . S
C1812 C1810 1.391 . S
C1812 C1813 1.400 . S
C1813 C1807 1.491 . S
C1813 C1812 1.400 . S
C1813 C1814 1.398 . S
C1814 H1802 0.950 . S
C1814 C1813 1.398 . S
C1814 C1815 1.391 . S
C1815 H1803 0.950 . S
C1815 C1811 1.393 . S
C1815 C1814 1.391 . S
H1816 C1824 0.950 . S
H1817 C1829 0.950 . S
H1818 C1826 0.950 . S
H1819 C1828 0.950 . S
H1820 C1830 0.950 . S
H1821 C1832 0.950 . S
H1822 C1834 0.950 . S
H1823 C1835 0.950 . S
C1824 H1816 0.950 . S
C1824 C1825 1.386 . S
C1824 C1826 1.391 . S
C1825 C1824 1.386 . S
C1825 C1829 1.393 . S
C1826 H1818 0.950 . S
C1826 C1824 1.391 . S
C1826 C1827 1.400 . S
C1827 C1826 1.400 . S
C1827 C1828 1.398 . S
C1827 C1833 1.491 1_545 S
C1828 H1819 0.950 . S
C1828 C1827 1.398 . S
C1828 C1829 1.391 . S
C1829 H1817 0.950 . S
C1829 C1825 1.393 . S
C1829 C1828 1.391 . S
C1830 H1820 0.950 . S
C1830 C1831 1.386 . S
C1830 C1832 1.391 . S
C1831 C1830 1.386 . S
C1831 C1835 1.393 . S
C1832 H1821 0.950 . S
C1832 C1830 1.391 . S
C1832 C1833 1.400 . S
C1833 C1827 1.491 1_565 S
C1833 C1832 1.400 . S
C1833 C1834 1.398 . S
C1834 H1822 0.950 . S
C1834 C1833 1.398 . S
C1834 C1835 1.391 . S
C1835 H1823 0.950 . S
C1835 C1831 1.393 . S
C1835 C1834 1.391 . S
H1836 C1844 0.950 . S
H1837 C1849 0.950 . S
H1838 C1846 0.950 . S
H1839 C1848 0.950 . S
H1840 C1850 0.950 . S
H1841 C1852 0.950 . S
H1842 C1854 0.950 . S
H1843 C1855 0.950 . S
C1844 H1836 0.950 . S
C1844 C1845 1.386 . S
C1844 C1846 1.391 . S
C1845 C1844 1.386 . S
C1845 C1849 1.393 . S
C1846 H1838 0.950 . S
C1846 C1844 1.391 . S
C1846 C1847 1.400 . S
C1847 C1846 1.400 . S
C1847 C1848 1.398 . S
C1847 C1853 1.491 1_556 S
C1848 H1839 0.950 . S
C1848 C1847 1.398 . S
C1848 C1849 1.391 . S
C1849 H1837 0.950 . S
C1849 C1845 1.393 . S
C1849 C1848 1.391 . S
C1850 H1840 0.950 . S
C1850 C1851 1.386 . S
C1850 C1852 1.391 . S
C1851 C1850 1.386 . S
C1851 C1855 1.393 . S
C1852 H1841 0.950 . S
C1852 C1850 1.391 . S
C1852 C1853 1.400 . S
C1853 C1847 1.491 1_554 S
C1853 C1852 1.400 . S
C1853 C1854 1.398 . S
C1854 H1842 0.950 . S
C1854 C1853 1.398 . S
C1854 C1855 1.391 . S
C1855 H1843 0.950 . S
C1855 C1851 1.393 . S
C1855 C1854 1.391 . S
H1856 C1864 0.950 . S
H1857 C1869 0.950 . S
H1858 C1866 0.950 . S
H1859 C1868 0.950 . S
H1860 C1870 0.950 . S
H1861 C1872 0.950 . S
H1862 C1874 0.950 . S
H1863 C1875 0.950 . S
C1864 H1856 0.950 . S
C1864 C1865 1.386 . S
C1864 C1866 1.391 . S
C1865 C1864 1.386 . S
C1865 C1869 1.393 . S
C1866 H1858 0.950 . S
C1866 C1864 1.391 . S
C1866 C1867 1.400 . S
C1867 C1866 1.400 . S
C1867 C1868 1.398 . S
C1867 C1873 1.491 . S
C1868 H1859 0.950 . S
C1868 C1867 1.398 . S
C1868 C1869 1.391 . S
C1869 H1857 0.950 . S
C1869 C1865 1.393 . S
C1869 C1868 1.391 . S
C1870 H1860 0.950 . S
C1870 C1871 1.386 . S
C1870 C1872 1.391 . S
C1871 C1870 1.386 . S
C1871 C1875 1.393 . S
C1872 H1861 0.950 . S
C1872 C1870 1.391 . S
C1872 C1873 1.400 . S
C1873 C1867 1.491 . S
C1873 C1872 1.400 . S
C1873 C1874 1.398 . S
C1874 H1862 0.950 . S
C1874 C1873 1.398 . S
C1874 C1875 1.391 . S
C1875 H1863 0.950 . S
C1875 C1871 1.393 . S
C1875 C1874 1.391 . S
H1876 C1884 0.950 . S
H1877 C1889 0.950 . S
H1878 C1886 0.950 1_554 S
H1879 C1888 0.950 . S
H1880 C1890 0.950 . S
H1881 C1892 0.950 1_556 S
H1882 C1894 0.950 . S
H1883 C1895 0.950 . S
C1884 H1876 0.950 . S
C1884 C1885 1.386 . S
C1884 C1886 1.391 . S
C1885 C1884 1.386 . S
C1885 C1889 1.393 . S
C1886 H1878 0.950 1_556 S
C1886 C1884 1.391 . S
C1886 C1887 1.400 . S
C1887 C1886 1.400 . S
C1887 C1888 1.398 . S
C1887 C1893 1.491 1_556 S
C1888 H1879 0.950 . S
C1888 C1887 1.398 . S
C1888 C1889 1.391 . S
C1889 H1877 0.950 . S
C1889 C1885 1.393 . S
C1889 C1888 1.391 . S
C1890 H1880 0.950 . S
C1890 C1891 1.386 . S
C1890 C1892 1.391 . S
C1891 C1890 1.386 . S
C1891 C1895 1.393 . S
C1892 H1881 0.950 1_554 S
C1892 C1890 1.391 . S
C1892 C1893 1.400 . S
C1893 C1887 1.491 1_554 S
C1893 C1892 1.400 . S
C1893 C1894 1.398 . S
C1894 H1882 0.950 . S
C1894 C1893 1.398 . S
C1894 C1895 1.391 . S
C1895 H1883 0.950 . S
C1895 C1891 1.393 . S
C1895 C1894 1.391 . S
H1896 C1904 0.950 . S
H1897 C1909 0.950 . S
H1898 C1906 0.950 . S
H1899 C1908 0.950 . S
H1900 C1910 0.950 . S
H1901 C1912 0.950 . S
H1902 C1914 0.950 . S
H1903 C1915 0.950 . S
C1904 H1896 0.950 . S
C1904 C1905 1.386 . S
C1904 C1906 1.391 . S
C1905 C1904 1.386 . S
C1905 C1909 1.393 . S
C1906 H1898 0.950 . S
C1906 C1904 1.391 . S
C1906 C1907 1.400 . S
C1907 C1906 1.400 . S
C1907 C1908 1.398 . S
C1907 C1913 1.491 . S
C1908 H1899 0.950 . S
C1908 C1907 1.398 . S
C1908 C1909 1.391 . S
C1909 H1897 0.950 . S
C1909 C1905 1.393 . S
C1909 C1908 1.391 . S
C1910 H1900 0.950 . S
C1910 C1911 1.386 . S
C1910 C1912 1.391 . S
C1911 C1910 1.386 . S
C1911 C1915 1.393 . S
C1912 H1901 0.950 . S
C1912 C1910 1.391 . S
C1912 C1913 1.400 . S
C1913 C1907 1.491 . S
C1913 C1912 1.400 . S
C1913 C1914 1.398 . S
C1914 H1902 0.950 . S
C1914 C1913 1.398 . S
C1914 C1915 1.391 . S
C1915 H1903 0.950 . S
C1915 C1911 1.393 . S
C1915 C1914 1.391 . S
H1916 C1924 0.950 . S
H1917 C1929 0.950 . S
H1918 C1926 0.950 . S
H1919 C1928 0.950 . S
H1920 C1930 0.950 . S
H1921 C1932 0.950 . S
H1922 C1934 0.950 . S
H1923 C1935 0.950 . S
C1924 H1916 0.950 . S
C1924 C1925 1.386 . S
C1924 C1926 1.391 . S
C1925 C1924 1.386 . S
C1925 C1929 1.393 . S
C1926 H1918 0.950 . S
C1926 C1924 1.391 . S
C1926 C1927 1.400 . S
C1927 C1926 1.400 . S
C1927 C1928 1.398 . S
C1927 C1933 1.491 . S
C1928 H1919 0.950 . S
C1928 C1927 1.398 . S
C1928 C1929 1.391 . S
C1929 H1917 0.950 . S
C1929 C1925 1.393 . S
C1929 C1928 1.391 . S
C1930 H1920 0.950 . S
C1930 C1931 1.386 . S
C1930 C1932 1.391 . S
C1931 C1930 1.386 . S
C1931 C1935 1.393 . S
C1932 H1921 0.950 . S
C1932 C1930 1.391 . S
C1932 C1933 1.400 . S
C1933 C1927 1.491 . S
C1933 C1932 1.400 . S
C1933 C1934 1.398 . S
C1934 H1922 0.950 . S
C1934 C1933 1.398 . S
C1934 C1935 1.391 . S
C1935 H1923 0.950 . S
C1935 C1931 1.393 . S
C1935 C1934 1.391 . S
H1936 C1944 0.950 . S
H1937 C1949 0.950 . S
H1938 C1946 0.950 . S
H1939 C1948 0.950 . S
H1940 C1950 0.950 . S
H1941 C1952 0.950 . S
H1942 C1954 0.950 . S
H1943 C1955 0.950 . S
C1944 H1936 0.950 . S
C1944 C1945 1.386 . S
C1944 C1946 1.391 . S
C1945 C1944 1.386 . S
C1945 C1949 1.393 . S
C1946 H1938 0.950 . S
C1946 C1944 1.391 . S
C1946 C1947 1.400 . S
C1947 C1946 1.400 . S
C1947 C1948 1.398 . S
C1947 C1953 1.491 . S
C1948 H1939 0.950 . S
C1948 C1947 1.398 . S
C1948 C1949 1.391 . S
C1949 H1937 0.950 . S
C1949 C1945 1.393 . S
C1949 C1948 1.391 . S
C1950 H1940 0.950 . S
C1950 C1951 1.386 . S
C1950 C1952 1.391 . S
C1951 C1950 1.386 . S
C1951 C1955 1.393 . S
C1952 H1941 0.950 . S
C1952 C1950 1.391 . S
C1952 C1953 1.400 . S
C1953 C1947 1.491 . S
C1953 C1952 1.400 . S
C1953 C1954 1.398 . S
C1954 H1942 0.950 . S
C1954 C1953 1.398 . S
C1954 C1955 1.391 . S
C1955 H1943 0.950 . S
C1955 C1951 1.393 . S
C1955 C1954 1.391 . S
H1956 C1964 0.950 . S
H1957 C1969 0.950 . S
H1958 C1966 0.950 . S
H1959 C1968 0.950 . S
H1960 C1970 0.950 . S
H1961 C1972 0.950 . S
H1962 C1974 0.950 . S
H1963 C1975 0.950 . S
C1964 H1956 0.950 . S
C1964 C1965 1.386 . S
C1964 C1966 1.391 . S
C1965 C1964 1.386 . S
C1965 C1969 1.393 . S
C1966 H1958 0.950 . S
C1966 C1964 1.391 . S
C1966 C1967 1.400 . S
C1967 C1966 1.400 . S
C1967 C1968 1.398 . S
C1967 C1973 1.491 1_556 S
C1968 H1959 0.950 . S
C1968 C1967 1.398 . S
C1968 C1969 1.391 . S
C1969 H1957 0.950 . S
C1969 C1965 1.393 . S
C1969 C1968 1.391 . S
C1970 H1960 0.950 . S
C1970 C1971 1.386 . S
C1970 C1972 1.391 . S
C1971 C1970 1.386 . S
C1971 C1975 1.393 . S
C1972 H1961 0.950 . S
C1972 C1970 1.391 . S
C1972 C1973 1.400 . S
C1973 C1967 1.491 1_554 S
C1973 C1972 1.400 . S
C1973 C1974 1.398 . S
C1974 H1962 0.950 . S
C1974 C1973 1.398 . S
C1974 C1975 1.391 . S
C1975 H1963 0.950 . S
C1975 C1971 1.393 . S
C1975 C1974 1.391 . S
H1976 C1984 0.950 . S
H1977 C1989 0.950 . S
H1978 C1986 0.950 . S
H1979 C1988 0.950 . S
H1980 C1990 0.950 . S
H1981 C1992 0.950 . S
H1982 C1994 0.950 . S
H1983 C1995 0.950 . S
C1984 H1976 0.950 . S
C1984 C1985 1.386 . S
C1984 C1986 1.391 . S
C1985 C1984 1.386 . S
C1985 C1989 1.393 . S
C1986 H1978 0.950 . S
C1986 C1984 1.391 . S
C1986 C1987 1.400 . S
C1987 C1986 1.400 . S
C1987 C1988 1.398 . S
C1987 C1993 1.491 . S
C1988 H1979 0.950 . S
C1988 C1987 1.398 . S
C1988 C1989 1.391 . S
C1989 H1977 0.950 . S
C1989 C1985 1.393 . S
C1989 C1988 1.391 . S
C1990 H1980 0.950 . S
C1990 C1991 1.386 . S
C1990 C1992 1.391 . S
C1991 C1990 1.386 . S
C1991 C1995 1.393 . S
C1992 H1981 0.950 . S
C1992 C1990 1.391 . S
C1992 C1993 1.400 . S
C1993 C1987 1.491 . S
C1993 C1992 1.400 . S
C1993 C1994 1.398 . S
C1994 H1982 0.950 . S
C1994 C1993 1.398 . S
C1994 C1995 1.391 . S
C1995 H1983 0.950 . S
C1995 C1991 1.393 . S
C1995 C1994 1.391 . S
H1996 C2004 0.950 . S
H1997 C2009 0.950 . S
H1998 C2006 0.950 . S
H1999 C2008 0.950 . S
H2000 C2010 0.950 . S
H2001 C2012 0.950 . S
H2002 C2014 0.950 . S
H2003 C2015 0.950 . S
C2004 H1996 0.950 . S
C2004 C2005 1.386 . S
C2004 C2006 1.391 . S
C2005 C2004 1.386 . S
C2005 C2009 1.393 . S
C2006 H1998 0.950 . S
C2006 C2004 1.391 . S
C2006 C2007 1.400 . S
C2007 C2006 1.400 . S
C2007 C2008 1.398 . S
C2007 C2013 1.491 . S
C2008 H1999 0.950 . S
C2008 C2007 1.398 . S
C2008 C2009 1.391 . S
C2009 H1997 0.950 . S
C2009 C2005 1.393 . S
C2009 C2008 1.391 . S
C2010 H2000 0.950 . S
C2010 C2011 1.386 . S
C2010 C2012 1.391 . S
C2011 C2010 1.386 . S
C2011 C2015 1.393 . S
C2012 H2001 0.950 . S
C2012 C2010 1.391 . S
C2012 C2013 1.400 . S
C2013 C2007 1.491 . S
C2013 C2012 1.400 . S
C2013 C2014 1.398 . S
C2014 H2002 0.950 . S
C2014 C2013 1.398 . S
C2014 C2015 1.391 . S
C2015 H2003 0.950 . S
C2015 C2011 1.393 . S
C2015 C2014 1.391 . S
H2016 C2024 0.950 . S
H2017 C2029 0.950 . S
H2018 C2026 0.950 . S
H2019 C2028 0.950 . S
H2020 C2030 0.950 . S
H2021 C2032 0.950 . S
H2022 C2034 0.950 . S
H2023 C2035 0.950 . S
C2024 H2016 0.950 . S
C2024 C2025 1.386 . S
C2024 C2026 1.391 1_565 S
C2025 C2024 1.386 . S
C2025 C2029 1.393 1_565 S
C2026 H2018 0.950 . S
C2026 C2024 1.391 1_545 S
C2026 C2027 1.400 . S
C2027 C2026 1.400 . S
C2027 C2028 1.398 . S
C2027 C2033 1.491 . S
C2028 H2019 0.950 . S
C2028 C2027 1.398 . S
C2028 C2029 1.391 . S
C2029 H2017 0.950 . S
C2029 C2025 1.393 1_545 S
C2029 C2028 1.391 . S
C2030 H2020 0.950 . S
C2030 C2031 1.386 . S
C2030 C2032 1.391 . S
C2031 C2030 1.386 . S
C2031 C2035 1.393 . S
C2032 H2021 0.950 . S
C2032 C2030 1.391 . S
C2032 C2033 1.400 . S
C2033 C2027 1.491 . S
C2033 C2032 1.400 . S
C2033 C2034 1.398 . S
C2034 H2022 0.950 . S
C2034 C2033 1.398 . S
C2034 C2035 1.391 . S
C2035 H2023 0.950 . S
C2035 C2031 1.393 . S
C2035 C2034 1.391 . S
H2036 C2044 0.950 . S
H2037 C2049 0.950 . S
H2038 C2046 0.950 . S
H2039 C2048 0.950 . S
H2040 C2050 0.950 . S
H2041 C2052 0.950 . S
H2042 C2054 0.950 . S
H2043 C2055 0.950 . S
C2044 H2036 0.950 . S
C2044 C2045 1.386 . S
C2044 C2046 1.391 . S
C2045 C2044 1.386 . S
C2045 C2049 1.393 . S
C2046 H2038 0.950 . S
C2046 C2044 1.391 . S
C2046 C2047 1.400 . S
C2047 C2046 1.400 . S
C2047 C2048 1.398 . S
C2047 C2053 1.491 . S
C2048 H2039 0.950 . S
C2048 C2047 1.398 . S
C2048 C2049 1.391 . S
C2049 H2037 0.950 . S
C2049 C2045 1.393 . S
C2049 C2048 1.391 . S
C2050 H2040 0.950 . S
C2050 C2051 1.386 1_545 S
C2050 C2052 1.391 . S
C2051 C2050 1.386 1_565 S
C2051 C2055 1.393 . S
C2052 H2041 0.950 . S
C2052 C2050 1.391 . S
C2052 C2053 1.400 . S
C2053 C2047 1.491 . S
C2053 C2052 1.400 . S
C2053 C2054 1.398 . S
C2054 H2042 0.950 . S
C2054 C2053 1.398 . S
C2054 C2055 1.391 1_545 S
C2055 H2043 0.950 . S
C2055 C2051 1.393 . S
C2055 C2054 1.391 1_565 S
H2056 C2064 0.937 1_545 S
H2057 C2069 0.950 . S
H2058 C2066 0.950 . S
H2059 C2068 0.950 . S
H2060 C2070 0.950 . S
H2061 C2072 0.950 . S
H2062 C2074 0.950 . S
H2063 C2075 0.950 . S
C2064 H2056 0.937 1_565 S
C2064 C2065 1.380 1_565 S
C2064 C2066 1.410 . S
C2065 C2064 1.380 1_545 S
C2065 C2069 1.393 1_545 S
C2066 H2058 0.950 . S
C2066 C2064 1.410 . S
C2066 C2067 1.400 . S
C2067 C2066 1.400 . S
C2067 C2068 1.398 . S
C2067 C2073 1.491 . S
C2068 H2059 0.950 . S
C2068 C2067 1.398 . S
C2068 C2069 1.391 . S
C2069 H2057 0.950 . S
C2069 C2065 1.393 1_565 S
C2069 C2068 1.391 . S
C2070 H2060 0.950 . S
C2070 C2071 1.386 . S
C2070 C2072 1.391 . S
C2071 C2070 1.386 . S
C2071 C2075 1.393 . S
C2072 H2061 0.950 . S
C2072 C2070 1.391 . S
C2072 C2073 1.400 . S
C2073 C2067 1.491 . S
C2073 C2072 1.400 . S
C2073 C2074 1.398 . S
C2074 H2062 0.950 . S
C2074 C2073 1.398 . S
C2074 C2075 1.391 . S
C2075 H2063 0.950 . S
C2075 C2071 1.393 . S
C2075 C2074 1.391 . S
H2076 C2084 0.950 . S
H2077 C2089 0.950 . S
H2078 C2086 0.950 . S
H2079 C2088 0.950 . S
H2080 C2090 0.950 . S
H2081 C2092 0.950 1_545 S
H2082 C2094 0.950 . S
H2083 C2095 0.950 . S
C2084 H2076 0.950 . S
C2084 C2085 1.386 . S
C2084 C2086 1.391 . S
C2085 C2084 1.386 . S
C2085 C2089 1.393 . S
C2086 H2078 0.950 . S
C2086 C2084 1.391 . S
C2086 C2087 1.400 . S
C2087 C2086 1.400 . S
C2087 C2088 1.398 . S
C2087 C2093 1.491 . S
C2088 H2079 0.950 . S
C2088 C2087 1.398 . S
C2088 C2089 1.391 . S
C2089 H2077 0.950 . S
C2089 C2085 1.393 . S
C2089 C2088 1.391 . S
C2090 H2080 0.950 . S
C2090 C2091 1.386 . S
C2090 C2092 1.391 1_545 S
C2091 C2090 1.386 . S
C2091 C2095 1.393 1_545 S
C2092 H2081 0.950 1_565 S
C2092 C2090 1.391 1_565 S
C2092 C2093 1.400 . S
C2093 C2087 1.491 . S
C2093 C2092 1.400 . S
C2093 C2094 1.398 . S
C2094 H2082 0.950 . S
C2094 C2093 1.398 . S
C2094 C2095 1.391 . S
C2095 H2083 0.950 . S
C2095 C2091 1.393 1_565 S
C2095 C2094 1.391 . S
H2096 C2104 0.950 . S
H2097 C2109 0.950 . S
H2098 C2106 0.950 . S
H2099 C2108 0.950 . S
H2100 C2110 0.950 . S
H2101 C2112 0.950 . S
H2102 C2114 0.950 . S
H2103 C2115 0.950 . S
C2104 H2096 0.950 . S
C2104 C2105 1.386 1_565 S
C2104 C2106 1.391 . S
C2105 C2104 1.386 1_545 S
C2105 C2109 1.393 . S
C2106 H2098 0.950 . S
C2106 C2104 1.391 . S
C2106 C2107 1.400 . S
C2107 C2106 1.400 . S
C2107 C2108 1.398 . S
C2107 C2113 1.491 . S
C2108 H2099 0.950 . S
C2108 C2107 1.398 . S
C2108 C2109 1.391 1_565 S
C2109 H2097 0.950 . S
C2109 C2105 1.393 . S
C2109 C2108 1.391 1_545 S
C2110 H2100 0.950 . S
C2110 C2111 1.386 . S
C2110 C2112 1.391 . S
C2111 C2110 1.386 . S
C2111 C2115 1.393 . S
C2112 H2101 0.950 . S
C2112 C2110 1.391 . S
C2112 C2113 1.400 . S
C2113 C2107 1.491 . S
C2113 C2112 1.400 . S
C2113 C2114 1.398 . S
C2114 H2102 0.950 . S
C2114 C2113 1.398 . S
C2114 C2115 1.391 . S
C2115 H2103 0.950 . S
C2115 C2111 1.393 . S
C2115 C2114 1.391 . S
H2116 C2124 0.950 . S
H2117 C2129 0.950 . S
H2118 C2126 0.950 . S
H2119 C2128 0.950 . S
H2120 C2130 0.950 . S
H2121 C2132 0.950 . S
H2122 C2134 0.950 . S
H2123 C2135 0.950 . S
C2124 H2116 0.950 . S
C2124 C2125 1.386 . S
C2124 C2126 1.391 . S
C2125 C2124 1.386 . S
C2125 C2129 1.393 . S
C2126 H2118 0.950 . S
C2126 C2124 1.391 . S
C2126 C2127 1.400 . S
C2127 C2126 1.400 . S
C2127 C2128 1.398 . S
C2127 C2133 1.491 . S
C2128 H2119 0.950 . S
C2128 C2127 1.398 . S
C2128 C2129 1.391 . S
C2129 H2117 0.950 . S
C2129 C2125 1.393 . S
C2129 C2128 1.391 . S
C2130 H2120 0.950 . S
C2130 C2131 1.386 1_565 S
C2130 C2132 1.391 . S
C2131 C2130 1.386 1_545 S
C2131 C2135 1.393 . S
C2132 H2121 0.950 . S
C2132 C2130 1.391 . S
C2132 C2133 1.400 . S
C2133 C2127 1.491 . S
C2133 C2132 1.400 . S
C2133 C2134 1.398 . S
C2134 H2122 0.950 . S
C2134 C2133 1.398 . S
C2134 C2135 1.391 1_565 S
C2135 H2123 0.950 . S
C2135 C2131 1.393 . S
C2135 C2134 1.391 1_545 S
H2136 C2144 0.950 . S
H2137 C2149 0.950 . S
H2138 C2146 0.950 . S
H2139 C2148 0.950 . S
H2140 C2150 0.950 . S
H2141 C2152 0.950 . S
H2142 C2154 0.950 . S
H2143 C2155 0.950 . S
C2144 H2136 0.950 . S
C2144 C2145 1.386 . S
C2144 C2146 1.391 . S
C2145 C2144 1.386 . S
C2145 C2149 1.393 . S
C2146 H2138 0.950 . S
C2146 C2144 1.391 . S
C2146 C2147 1.400 . S
C2147 C2146 1.400 . S
C2147 C2148 1.398 . S
C2147 C2153 1.491 . S
C2148 H2139 0.950 . S
C2148 C2147 1.398 . S
C2148 C2149 1.391 . S
C2149 H2137 0.950 . S
C2149 C2145 1.393 . S
C2149 C2148 1.391 . S
C2150 H2140 0.950 . S
C2150 C2151 1.386 1_545 S
C2150 C2152 1.391 . S
C2151 C2150 1.386 1_565 S
C2151 C2155 1.393 . S
C2152 H2141 0.950 . S
C2152 C2150 1.391 . S
C2152 C2153 1.400 . S
C2153 C2147 1.491 . S
C2153 C2152 1.400 . S
C2153 C2154 1.398 . S
C2154 H2142 0.950 . S
C2154 C2153 1.398 . S
C2154 C2155 1.391 1_545 S
C2155 H2143 0.950 . S
C2155 C2151 1.393 . S
C2155 C2154 1.391 1_565 S
H2156 C2164 0.950 . S
H2157 C2169 0.950 1_565 S
H2158 C2166 0.950 . S
H2159 C2168 0.950 . S
H2160 C2170 0.950 . S
H2161 C2172 0.950 . S
H2162 C2174 0.950 . S
H2163 C2175 0.950 . S
C2164 H2156 0.950 . S
C2164 C2165 1.386 1_545 S
C2164 C2166 1.391 . S
C2165 C2164 1.386 1_565 S
C2165 C2169 1.393 1_565 S
C2166 H2158 0.950 . S
C2166 C2164 1.391 . S
C2166 C2167 1.400 . S
C2167 C2166 1.400 . S
C2167 C2168 1.398 . S
C2167 C2173 1.491 . S
C2168 H2159 0.950 . S
C2168 C2167 1.398 . S
C2168 C2169 1.391 . S
C2169 H2157 0.950 1_545 S
C2169 C2165 1.393 1_545 S
C2169 C2168 1.391 . S
C2170 H2160 0.950 . S
C2170 C2171 1.386 . S
C2170 C2172 1.391 . S
C2171 C2170 1.386 . S
C2171 C2175 1.393 . S
C2172 H2161 0.950 . S
C2172 C2170 1.391 . S
C2172 C2173 1.400 . S
C2173 C2167 1.491 . S
C2173 C2172 1.400 . S
C2173 C2174 1.398 . S
C2174 H2162 0.950 . S
C2174 C2173 1.398 . S
C2174 C2175 1.391 . S
C2175 H2163 0.950 . S
C2175 C2171 1.393 . S
C2175 C2174 1.391 . S
H2176 C2184 0.950 . S
H2177 C2189 0.950 . S
H2178 C2186 0.950 . S
H2179 C2188 0.950 . S
H2180 C2190 0.950 . S
H2181 C2192 0.950 . S
H2182 C2194 0.950 . S
H2183 C2195 0.950 . S
C2184 H2176 0.950 . S
C2184 C2185 1.386 . S
C2184 C2186 1.391 . S
C2185 C2184 1.386 . S
C2185 C2189 1.393 . S
C2186 H2178 0.950 . S
C2186 C2184 1.391 . S
C2186 C2187 1.400 . S
C2187 C2186 1.400 . S
C2187 C2188 1.398 . S
C2187 C2193 1.491 . S
C2188 H2179 0.950 . S
C2188 C2187 1.398 . S
C2188 C2189 1.391 . S
C2189 H2177 0.950 . S
C2189 C2185 1.393 . S
C2189 C2188 1.391 . S
C2190 H2180 0.950 . S
C2190 C2191 1.386 . S
C2190 C2192 1.391 . S
C2191 C2190 1.386 . S
C2191 C2195 1.393 . S
C2192 H2181 0.950 . S
C2192 C2190 1.391 . S
C2192 C2193 1.400 . S
C2193 C2187 1.491 . S
C2193 C2192 1.400 . S
C2193 C2194 1.398 . S
C2194 H2182 0.950 . S
C2194 C2193 1.398 . S
C2194 C2195 1.391 . S
C2195 H2183 0.950 . S
C2195 C2191 1.393 . S
C2195 C2194 1.391 . S
H2196 C2204 0.950 . S
H2197 C2209 0.950 . S
H2198 C2206 0.950 . S
H2199 C2208 0.950 . S
H2200 C2210 0.950 . S
H2201 C2212 0.950 . S
H2202 C2214 0.950 . S
H2203 C2215 0.950 . S
C2204 H2196 0.950 . S
C2204 C2205 1.386 . S
C2204 C2206 1.391 . S
C2205 C2204 1.386 . S
C2205 C2209 1.393 . S
C2206 H2198 0.950 . S
C2206 C2204 1.391 . S
C2206 C2207 1.400 . S
C2207 C2206 1.400 . S
C2207 C2208 1.398 . S
C2207 C2213 1.491 . S
C2208 H2199 0.950 . S
C2208 C2207 1.398 . S
C2208 C2209 1.391 . S
C2209 H2197 0.950 . S
C2209 C2205 1.393 . S
C2209 C2208 1.391 . S
C2210 H2200 0.950 . S
C2210 C2211 1.386 . S
C2210 C2212 1.391 . S
C2211 C2210 1.386 . S
C2211 C2215 1.393 . S
C2212 H2201 0.950 . S
C2212 C2210 1.391 . S
C2212 C2213 1.400 . S
C2213 C2207 1.491 . S
C2213 C2212 1.400 . S
C2213 C2214 1.398 . S
C2214 H2202 0.950 . S
C2214 C2213 1.398 . S
C2214 C2215 1.391 . S
C2215 H2203 0.950 . S
C2215 C2211 1.393 . S
C2215 C2214 1.391 . S
H2216 C2224 0.950 . S
H2217 C2229 0.950 . S
H2218 C2226 0.950 . S
H2219 C2228 0.950 . S
H2220 C2230 0.950 . S
H2221 C2232 0.950 . S
H2222 C2234 0.950 . S
H2223 C2235 0.950 . S
C2224 H2216 0.950 . S
C2224 C2225 1.386 . S
C2224 C2226 1.391 . S
C2225 C2224 1.386 . S
C2225 C2229 1.393 . S
C2226 H2218 0.950 . S
C2226 C2224 1.391 . S
C2226 C2227 1.400 . S
C2227 C2226 1.400 . S
C2227 C2228 1.398 . S
C2227 C2233 1.491 . S
C2228 H2219 0.950 . S
C2228 C2227 1.398 . S
C2228 C2229 1.391 . S
C2229 H2217 0.950 . S
C2229 C2225 1.393 . S
C2229 C2228 1.391 . S
C2230 H2220 0.950 . S
C2230 C2231 1.386 . S
C2230 C2232 1.391 . S
C2231 C2230 1.386 . S
C2231 C2235 1.393 . S
C2232 H2221 0.950 . S
C2232 C2230 1.391 . S
C2232 C2233 1.400 . S
C2233 C2227 1.491 . S
C2233 C2232 1.400 . S
C2233 C2234 1.398 . S
C2234 H2222 0.950 . S
C2234 C2233 1.398 . S
C2234 C2235 1.391 . S
C2235 H2223 0.950 . S
C2235 C2231 1.393 . S
C2235 C2234 1.391 . S
H2236 C2244 0.950 . S
H2237 C2249 0.950 . S
H2238 C2246 0.950 . S
H2239 C2248 0.950 . S
H2240 C2250 0.950 . S
H2241 C2252 0.950 . S
H2242 C2254 0.950 . S
H2243 C2255 0.950 . S
C2244 H2236 0.950 . S
C2244 C2245 1.386 . S
C2244 C2246 1.391 . S
C2245 C2244 1.386 . S
C2245 C2249 1.393 . S
C2246 H2238 0.950 . S
C2246 C2244 1.391 . S
C2246 C2247 1.400 . S
C2247 C2246 1.400 . S
C2247 C2248 1.398 . S
C2247 C2253 1.491 . S
C2248 H2239 0.950 . S
C2248 C2247 1.398 . S
C2248 C2249 1.391 . S
C2249 H2237 0.950 . S
C2249 C2245 1.393 . S
C2249 C2248 1.391 . S
C2250 H2240 0.950 . S
C2250 C2251 1.386 . S
C2250 C2252 1.391 . S
C2251 C2250 1.386 . S
C2251 C2255 1.393 . S
C2252 H2241 0.950 . S
C2252 C2250 1.391 . S
C2252 C2253 1.400 . S
C2253 C2247 1.491 . S
C2253 C2252 1.400 . S
C2253 C2254 1.398 . S
C2254 H2242 0.950 . S
C2254 C2253 1.398 . S
C2254 C2255 1.391 . S
C2255 H2243 0.950 . S
C2255 C2251 1.393 . S
C2255 C2254 1.391 . S
H2256 C2264 0.950 . S
H2257 C2269 0.950 . S
H2258 C2266 0.950 . S
H2259 C2268 0.950 . S
H2260 C2270 0.950 . S
H2261 C2272 0.950 . S
H2262 C2274 0.950 . S
H2263 C2275 0.950 . S
C2264 H2256 0.950 . S
C2264 C2265 1.386 . S
C2264 C2266 1.391 . S
C2265 C2264 1.386 . S
C2265 C2269 1.393 . S
C2266 H2258 0.950 . S
C2266 C2264 1.391 . S
C2266 C2267 1.400 . S
C2267 C2266 1.400 . S
C2267 C2268 1.398 . S
C2267 C2273 1.491 . S
C2268 H2259 0.950 . S
C2268 C2267 1.398 . S
C2268 C2269 1.391 . S
C2269 H2257 0.950 . S
C2269 C2265 1.393 . S
C2269 C2268 1.391 . S
C2270 H2260 0.950 . S
C2270 C2271 1.386 . S
C2270 C2272 1.391 . S
C2271 C2270 1.386 . S
C2271 C2275 1.393 . S
C2272 H2261 0.950 . S
C2272 C2270 1.391 . S
C2272 C2273 1.400 . S
C2273 C2267 1.491 . S
C2273 C2272 1.400 . S
C2273 C2274 1.398 . S
C2274 H2262 0.950 . S
C2274 C2273 1.398 . S
C2274 C2275 1.391 . S
C2275 H2263 0.950 . S
C2275 C2271 1.393 . S
C2275 C2274 1.391 . S
H2276 C2284 0.950 . S
H2277 C2289 0.950 . S
H2278 C2286 0.950 . S
H2279 C2288 0.950 . S
H2280 C2290 0.950 . S
H2281 C2292 0.950 . S
H2282 C2294 0.950 . S
H2283 C2295 0.950 . S
C2284 H2276 0.950 . S
C2284 C2285 1.386 . S
C2284 C2286 1.391 . S
C2285 C2284 1.386 . S
C2285 C2289 1.393 . S
C2286 H2278 0.950 . S
C2286 C2284 1.391 . S
C2286 C2287 1.400 . S
C2287 C2286 1.400 . S
C2287 C2288 1.398 . S
C2287 C2293 1.491 . S
C2288 H2279 0.950 . S
C2288 C2287 1.398 . S
C2288 C2289 1.391 . S
C2289 H2277 0.950 . S
C2289 C2285 1.393 . S
C2289 C2288 1.391 . S
C2290 H2280 0.950 . S
C2290 C2291 1.386 . S
C2290 C2292 1.391 . S
C2291 C2290 1.386 . S
C2291 C2295 1.393 . S
C2292 H2281 0.950 . S
C2292 C2290 1.391 . S
C2292 C2293 1.400 . S
C2293 C2287 1.491 . S
C2293 C2292 1.400 . S
C2293 C2294 1.398 . S
C2294 H2282 0.950 . S
C2294 C2293 1.398 . S
C2294 C2295 1.391 . S
C2295 H2283 0.950 . S
C2295 C2291 1.393 . S
C2295 C2294 1.391 . S
H2296 C2304 0.950 . S
H2297 C2309 0.950 . S
H2298 C2306 0.950 . S
H2299 C2308 0.950 . S
H2300 C2310 0.950 . S
H2301 C2312 0.950 . S
H2302 C2314 0.950 . S
H2303 C2315 0.950 . S
C2304 H2296 0.950 . S
C2304 C2305 1.386 . S
C2304 C2306 1.391 . S
C2305 C2304 1.386 . S
C2305 C2309 1.393 . S
C2306 H2298 0.950 . S
C2306 C2304 1.391 . S
C2306 C2307 1.400 . S
C2307 C2306 1.400 . S
C2307 C2308 1.398 . S
C2307 C2313 1.491 . S
C2308 H2299 0.950 . S
C2308 C2307 1.398 . S
C2308 C2309 1.391 . S
C2309 H2297 0.950 . S
C2309 C2305 1.393 . S
C2309 C2308 1.391 . S
C2310 H2300 0.950 . S
C2310 C2311 1.386 . S
C2310 C2312 1.391 . S
C2311 C2310 1.386 . S
C2311 C2315 1.393 . S
C2312 H2301 0.950 . S
C2312 C2310 1.391 . S
C2312 C2313 1.400 . S
C2313 C2307 1.491 . S
C2313 C2312 1.400 . S
C2313 C2314 1.398 . S
C2314 H2302 0.950 . S
C2314 C2313 1.398 . S
C2314 C2315 1.391 . S
C2315 H2303 0.950 . S
C2315 C2311 1.393 . S
C2315 C2314 1.391 . S
H2316 C2324 0.950 . S
H2317 C2329 0.950 . S
H2318 C2326 0.950 . S
H2319 C2328 0.950 . S
H2320 C2330 0.950 . S
H2321 C2332 0.950 . S
H2322 C2334 0.950 . S
H2323 C2335 0.950 . S
C2324 H2316 0.950 . S
C2324 C2325 1.386 . S
C2324 C2326 1.391 . S
C2325 C2324 1.386 . S
C2325 C2329 1.393 . S
C2326 H2318 0.950 . S
C2326 C2324 1.391 . S
C2326 C2327 1.400 . S
C2327 C2326 1.400 . S
C2327 C2328 1.398 . S
C2327 C2333 1.491 . S
C2328 H2319 0.950 . S
C2328 C2327 1.398 . S
C2328 C2329 1.391 . S
C2329 H2317 0.950 . S
C2329 C2325 1.393 . S
C2329 C2328 1.391 . S
C2330 H2320 0.950 . S
C2330 C2331 1.386 . S
C2330 C2332 1.391 . S
C2331 C2330 1.386 . S
C2331 C2335 1.393 . S
C2332 H2321 0.950 . S
C2332 C2330 1.391 . S
C2332 C2333 1.400 . S
C2333 C2327 1.491 . S
C2333 C2332 1.400 . S
C2333 C2334 1.398 . S
C2334 H2322 0.950 . S
C2334 C2333 1.398 . S
C2334 C2335 1.391 . S
C2335 H2323 0.950 . S
C2335 C2331 1.393 . S
C2335 C2334 1.391 . S
H2336 C2344 0.950 . S
H2337 C2349 0.950 . S
H2338 C2346 0.950 . S
H2339 C2348 0.950 . S
H2340 C2350 0.950 . S
H2341 C2352 0.950 . S
H2342 C2354 0.950 . S
H2343 C2355 0.950 . S
C2344 H2336 0.950 . S
C2344 C2345 1.386 . S
C2344 C2346 1.391 . S
C2345 C2344 1.386 . S
C2345 C2349 1.393 . S
C2346 H2338 0.950 . S
C2346 C2344 1.391 . S
C2346 C2347 1.400 . S
C2347 C2346 1.400 . S
C2347 C2348 1.398 . S
C2347 C2353 1.491 . S
C2348 H2339 0.950 . S
C2348 C2347 1.398 . S
C2348 C2349 1.391 . S
C2349 H2337 0.950 . S
C2349 C2345 1.393 . S
C2349 C2348 1.391 . S
C2350 H2340 0.950 . S
C2350 C2351 1.386 . S
C2350 C2352 1.391 . S
C2351 C2350 1.386 . S
C2351 C2355 1.393 . S
C2352 H2341 0.950 . S
C2352 C2350 1.391 . S
C2352 C2353 1.400 . S
C2353 C2347 1.491 . S
C2353 C2352 1.400 . S
C2353 C2354 1.398 . S
C2354 H2342 0.950 . S
C2354 C2353 1.398 . S
C2354 C2355 1.391 . S
C2355 H2343 0.950 . S
C2355 C2351 1.393 . S
C2355 C2354 1.391 . S
H2356 C2364 0.950 . S
H2357 C2369 0.950 . S
H2358 C2366 0.950 . S
H2359 C2368 0.950 1_655 S
H2360 C2370 0.950 . S
H2361 C2372 0.950 . S
H2362 C2374 0.950 1_455 S
H2363 C2375 0.950 . S
C2364 H2356 0.950 . S
C2364 C2365 1.386 . S
C2364 C2366 1.391 1_565 S
C2365 C2364 1.386 . S
C2365 C2369 1.393 . S
C2366 H2358 0.950 . S
C2366 C2364 1.391 1_545 S
C2366 C2367 1.400 1_545 S
C2367 C2366 1.400 1_565 S
C2367 C2368 1.398 . S
C2367 C2373 1.491 1_465 S
C2368 H2359 0.950 1_455 S
C2368 C2367 1.398 . S
C2368 C2369 1.391 . S
C2369 H2357 0.950 . S
C2369 C2365 1.393 . S
C2369 C2368 1.391 . S
C2370 H2360 0.950 . S
C2370 C2371 1.386 . S
C2370 C2372 1.391 1_545 S
C2371 C2370 1.386 . S
C2371 C2375 1.393 . S
C2372 H2361 0.950 . S
C2372 C2370 1.391 1_565 S
C2372 C2373 1.400 1_565 S
C2373 C2367 1.491 1_645 S
C2373 C2372 1.400 1_545 S
C2373 C2374 1.398 . S
C2374 H2362 0.950 1_655 S
C2374 C2373 1.398 . S
C2374 C2375 1.391 . S
C2375 H2363 0.950 . S
C2375 C2371 1.393 . S
C2375 C2374 1.391 . S
H2376 C2384 0.950 . S
H2377 C2389 0.950 . S
H2378 C2386 0.950 . S
H2379 C2388 0.950 . S
H2380 C2390 0.950 . S
H2381 C2392 0.950 . S
H2382 C2394 0.950 . S
H2383 C2395 0.950 . S
C2384 H2376 0.950 . S
C2384 C2385 1.386 . S
C2384 C2386 1.391 . S
C2385 C2384 1.386 . S
C2385 C2389 1.393 . S
C2386 H2378 0.950 . S
C2386 C2384 1.391 . S
C2386 C2387 1.400 . S
C2387 C2386 1.400 . S
C2387 C2388 1.398 . S
C2387 C2393 1.491 . S
C2388 H2379 0.950 . S
C2388 C2387 1.398 . S
C2388 C2389 1.391 . S
C2389 H2377 0.950 . S
C2389 C2385 1.393 . S
C2389 C2388 1.391 . S
C2390 H2380 0.950 . S
C2390 C2391 1.386 . S
C2390 C2392 1.391 . S
C2391 C2390 1.386 . S
C2391 C2395 1.393 . S
C2392 H2381 0.950 . S
C2392 C2390 1.391 . S
C2392 C2393 1.400 . S
C2393 C2387 1.491 . S
C2393 C2392 1.400 . S
C2393 C2394 1.398 . S
C2394 H2382 0.950 . S
C2394 C2393 1.398 . S
C2394 C2395 1.391 . S
C2395 H2383 0.950 . S
C2395 C2391 1.393 . S
C2395 C2394 1.391 . S
H2396 C2404 0.950 . S
H2397 C2409 0.950 . S
H2398 C2406 0.950 1_556 S
H2399 C2408 0.950 . S
H2400 C2410 0.950 . S
H2401 C2412 0.950 1_554 S
H2402 C2414 0.950 . S
H2403 C2415 0.950 . S
C2404 H2396 0.950 . S
C2404 C2405 1.386 . S
C2404 C2406 1.391 . S
C2405 C2404 1.386 . S
C2405 C2409 1.393 . S
C2406 H2398 0.950 1_554 S
C2406 C2404 1.391 . S
C2406 C2407 1.400 . S
C2407 C2406 1.400 . S
C2407 C2408 1.398 1_545 S
C2407 C2413 1.491 1_544 S
C2408 H2399 0.950 . S
C2408 C2407 1.398 1_565 S
C2408 C2409 1.391 1_565 S
C2409 H2397 0.950 . S
C2409 C2405 1.393 . S
C2409 C2408 1.391 1_545 S
C2410 H2400 0.950 . S
C2410 C2411 1.386 . S
C2410 C2412 1.391 . S
C2411 C2410 1.386 . S
C2411 C2415 1.393 . S
C2412 H2401 0.950 1_556 S
C2412 C2410 1.391 . S
C2412 C2413 1.400 . S
C2413 C2407 1.491 1_566 S
C2413 C2412 1.400 . S
C2413 C2414 1.398 1_565 S
C2414 H2402 0.950 . S
C2414 C2413 1.398 1_545 S
C2414 C2415 1.391 1_545 S
C2415 H2403 0.950 . S
C2415 C2411 1.393 . S
C2415 C2414 1.391 1_565 S
H2416 C2424 0.950 . S
H2417 C2429 0.950 . S
H2418 C2426 0.950 . S
H2419 C2428 0.950 . S
H2420 C2430 0.950 . S
H2421 C2432 0.950 . S
H2422 C2434 0.950 . S
H2423 C2435 0.950 . S
C2424 H2416 0.950 . S
C2424 C2425 1.386 . S
C2424 C2426 1.391 . S
C2425 C2424 1.386 . S
C2425 C2429 1.393 . S
C2426 H2418 0.950 . S
C2426 C2424 1.391 . S
C2426 C2427 1.400 . S
C2427 C2426 1.400 . S
C2427 C2428 1.398 . S
C2427 C2433 1.491 . S
C2428 H2419 0.950 . S
C2428 C2427 1.398 . S
C2428 C2429 1.391 . S
C2429 H2417 0.950 . S
C2429 C2425 1.393 . S
C2429 C2428 1.391 . S
C2430 H2420 0.950 . S
C2430 C2431 1.386 . S
C2430 C2432 1.391 . S
C2431 C2430 1.386 . S
C2431 C2435 1.393 . S
C2432 H2421 0.950 . S
C2432 C2430 1.391 . S
C2432 C2433 1.400 . S
C2433 C2427 1.491 . S
C2433 C2432 1.400 . S
C2433 C2434 1.398 . S
C2434 H2422 0.950 . S
C2434 C2433 1.398 . S
C2434 C2435 1.391 . S
C2435 H2423 0.950 . S
C2435 C2431 1.393 . S
C2435 C2434 1.391 . S
H2436 C2444 0.950 . S
H2437 C2449 0.950 . S
H2438 C2446 0.950 . S
H2439 C2448 0.950 . S
H2440 C2450 0.950 . S
H2441 C2452 0.950 . S
H2442 C2454 0.950 . S
H2443 C2455 0.950 . S
C2444 H2436 0.950 . S
C2444 C2445 1.386 . S
C2444 C2446 1.391 . S
C2445 C2444 1.386 . S
C2445 C2449 1.393 . S
C2446 H2438 0.950 . S
C2446 C2444 1.391 . S
C2446 C2447 1.400 . S
C2447 C2446 1.400 . S
C2447 C2448 1.398 1_545 S
C2447 C2453 1.491 1_545 S
C2448 H2439 0.950 . S
C2448 C2447 1.398 1_565 S
C2448 C2449 1.391 1_565 S
C2449 H2437 0.950 . S
C2449 C2445 1.393 . S
C2449 C2448 1.391 1_545 S
C2450 H2440 0.950 . S
C2450 C2451 1.386 . S
C2450 C2452 1.391 . S
C2451 C2450 1.386 . S
C2451 C2455 1.393 . S
C2452 H2441 0.950 . S
C2452 C2450 1.391 . S
C2452 C2453 1.400 . S
C2453 C2447 1.491 1_565 S
C2453 C2452 1.400 . S
C2453 C2454 1.398 1_565 S
C2454 H2442 0.950 . S
C2454 C2453 1.398 1_545 S
C2454 C2455 1.391 1_545 S
C2455 H2443 0.950 . S
C2455 C2451 1.393 . S
C2455 C2454 1.391 1_565 S
H2456 C2464 0.950 . S
H2457 C2469 0.950 . S
H2458 C2466 0.950 . S
H2459 C2468 0.950 . S
H2460 C2470 0.950 . S
H2461 C2472 0.950 . S
H2462 C2474 0.950 . S
H2463 C2475 0.950 . S
C2464 H2456 0.950 . S
C2464 C2465 1.386 . S
C2464 C2466 1.391 . S
C2465 C2464 1.386 . S
C2465 C2469 1.393 . S
C2466 H2458 0.950 . S
C2466 C2464 1.391 . S
C2466 C2467 1.400 . S
C2467 C2466 1.400 . S
C2467 C2468 1.398 . S
C2467 C2473 1.491 . S
C2468 H2459 0.950 . S
C2468 C2467 1.398 . S
C2468 C2469 1.391 . S
C2469 H2457 0.950 . S
C2469 C2465 1.393 . S
C2469 C2468 1.391 . S
C2470 H2460 0.950 . S
C2470 C2471 1.386 . S
C2470 C2472 1.391 . S
C2471 C2470 1.386 . S
C2471 C2475 1.393 . S
C2472 H2461 0.950 . S
C2472 C2470 1.391 . S
C2472 C2473 1.400 . S
C2473 C2467 1.491 . S
C2473 C2472 1.400 . S
C2473 C2474 1.398 . S
C2474 H2462 0.950 . S
C2474 C2473 1.398 . S
C2474 C2475 1.391 . S
C2475 H2463 0.950 . S
C2475 C2471 1.393 . S
C2475 C2474 1.391 . S
H2476 C2484 0.950 . S
H2477 C2489 0.968 . S
H2478 C2486 0.969 1_556 S
H2479 C2488 0.950 . S
H2480 C2490 0.950 . S
H2481 C2492 0.969 1_554 S
H2482 C2494 0.950 . S
H2483 C2495 0.968 . S
C2484 H2476 0.950 . S
C2484 C2485 1.386 . S
C2484 C2486 1.391 . S
C2485 C2484 1.386 . S
C2485 C2489 1.393 . S
C2486 H2478 0.969 1_554 S
C2486 C2484 1.391 . S
C2486 C2487 1.400 . S
C2487 C2486 1.400 . S
C2487 C2488 1.398 1_565 S
C2487 C2493 1.491 1_664 S
C2488 H2479 0.950 . S
C2488 C2487 1.398 1_545 S
C2488 C2489 1.391 1_545 S
C2489 H2477 0.968 . S
C2489 C2485 1.393 . S
C2489 C2488 1.391 1_565 S
C2490 H2480 0.950 . S
C2490 C2491 1.386 . S
C2490 C2492 1.391 . S
C2491 C2490 1.386 . S
C2491 C2495 1.393 . S
C2492 H2481 0.969 1_556 S
C2492 C2490 1.391 . S
C2492 C2493 1.400 . S
C2493 C2487 1.491 1_446 S
C2493 C2492 1.400 . S
C2493 C2494 1.398 1_545 S
C2494 H2482 0.950 . S
C2494 C2493 1.398 1_565 S
C2494 C2495 1.391 1_565 S
C2495 H2483 0.968 . S
C2495 C2491 1.393 . S
C2495 C2494 1.391 1_545 S
H2496 C2504 0.950 . S
H2497 C2509 0.950 . S
H2498 C2506 0.950 . S
H2499 C2508 0.950 . S
H2500 C2510 0.950 . S
H2501 C2512 0.950 . S
H2502 C2514 0.950 . S
H2503 C2515 0.950 . S
C2504 H2496 0.950 . S
C2504 C2505 1.386 . S
C2504 C2506 1.391 . S
C2505 C2504 1.386 . S
C2505 C2509 1.393 . S
C2506 H2498 0.950 . S
C2506 C2504 1.391 . S
C2506 C2507 1.400 . S
C2507 C2506 1.400 . S
C2507 C2508 1.398 . S
C2507 C2513 1.491 . S
C2508 H2499 0.950 . S
C2508 C2507 1.398 . S
C2508 C2509 1.391 . S
C2509 H2497 0.950 . S
C2509 C2505 1.393 . S
C2509 C2508 1.391 . S
C2510 H2500 0.950 . S
C2510 C2511 1.386 . S
C2510 C2512 1.391 . S
C2511 C2510 1.386 . S
C2511 C2515 1.393 . S
C2512 H2501 0.950 . S
C2512 C2510 1.391 . S
C2512 C2513 1.400 . S
C2513 C2507 1.491 . S
C2513 C2512 1.400 . S
C2513 C2514 1.398 . S
C2514 H2502 0.950 . S
C2514 C2513 1.398 . S
C2514 C2515 1.391 . S
C2515 H2503 0.950 . S
C2515 C2511 1.393 . S
C2515 C2514 1.391 . S
H2516 C2524 0.950 . S
H2517 C2529 0.950 . S
H2518 C2526 0.950 . S
H2519 C2528 0.950 . S
H2520 C2530 0.950 . S
H2521 C2532 0.950 . S
H2522 C2534 0.950 . S
H2523 C2535 0.950 . S
C2524 H2516 0.950 . S
C2524 C2525 1.386 . S
C2524 C2526 1.391 . S
C2525 C2524 1.386 . S
C2525 C2529 1.393 . S
C2526 H2518 0.950 . S
C2526 C2524 1.391 . S
C2526 C2527 1.400 . S
C2527 C2526 1.400 . S
C2527 C2528 1.398 . S
C2527 C2533 1.491 . S
C2528 H2519 0.950 . S
C2528 C2527 1.398 . S
C2528 C2529 1.391 . S
C2529 H2517 0.950 . S
C2529 C2525 1.393 . S
C2529 C2528 1.391 . S
C2530 H2520 0.950 . S
C2530 C2531 1.386 . S
C2530 C2532 1.391 . S
C2531 C2530 1.386 . S
C2531 C2535 1.393 . S
C2532 H2521 0.950 . S
C2532 C2530 1.391 . S
C2532 C2533 1.400 . S
C2533 C2527 1.491 . S
C2533 C2532 1.400 . S
C2533 C2534 1.398 . S
C2534 H2522 0.950 . S
C2534 C2533 1.398 . S
C2534 C2535 1.391 . S
C2535 H2523 0.950 . S
C2535 C2531 1.393 . S
C2535 C2534 1.391 . S
H2536 C2544 0.950 . S
H2537 C2549 0.950 . S
H2538 C2546 0.950 . S
H2539 C2548 0.950 . S
H2540 C2550 0.950 . S
H2541 C2552 0.950 . S
H2542 C2554 0.950 . S
H2543 C2555 0.950 . S
C2544 H2536 0.950 . S
C2544 C2545 1.386 . S
C2544 C2546 1.391 . S
C2545 C2544 1.386 . S
C2545 C2549 1.393 . S
C2546 H2538 0.950 . S
C2546 C2544 1.391 . S
C2546 C2547 1.400 . S
C2547 C2546 1.400 . S
C2547 C2548 1.398 . S
C2547 C2553 1.491 . S
C2548 H2539 0.950 . S
C2548 C2547 1.398 . S
C2548 C2549 1.391 . S
C2549 H2537 0.950 . S
C2549 C2545 1.393 . S
C2549 C2548 1.391 . S
C2550 H2540 0.950 . S
C2550 C2551 1.386 . S
C2550 C2552 1.391 . S
C2551 C2550 1.386 . S
C2551 C2555 1.393 . S
C2552 H2541 0.950 . S
C2552 C2550 1.391 . S
C2552 C2553 1.400 . S
C2553 C2547 1.491 . S
C2553 C2552 1.400 . S
C2553 C2554 1.398 . S
C2554 H2542 0.950 . S
C2554 C2553 1.398 . S
C2554 C2555 1.391 . S
C2555 H2543 0.950 . S
C2555 C2551 1.393 . S
C2555 C2554 1.391 . S
H2556 C2564 0.950 . S
H2557 C2569 0.950 . S
H2558 C2566 0.950 . S
H2559 C2568 0.950 . S
H2560 C2570 0.950 . S
H2561 C2572 0.950 . S
H2562 C2574 0.950 . S
H2563 C2575 0.950 . S
C2564 H2556 0.950 . S
C2564 C2565 1.386 . S
C2564 C2566 1.391 . S
C2565 C2564 1.386 . S
C2565 C2569 1.393 . S
C2566 H2558 0.950 . S
C2566 C2564 1.391 . S
C2566 C2567 1.400 . S
C2567 C2566 1.400 . S
C2567 C2568 1.398 . S
C2567 C2573 1.491 . S
C2568 H2559 0.950 . S
C2568 C2567 1.398 . S
C2568 C2569 1.391 . S
C2569 H2557 0.950 . S
C2569 C2565 1.393 . S
C2569 C2568 1.391 . S
C2570 H2560 0.950 . S
C2570 C2571 1.386 . S
C2570 C2572 1.391 . S
C2571 C2570 1.386 . S
C2571 C2575 1.393 . S
C2572 H2561 0.950 . S
C2572 C2570 1.391 . S
C2572 C2573 1.400 . S
C2573 C2567 1.491 . S
C2573 C2572 1.400 . S
C2573 C2574 1.398 . S
C2574 H2562 0.950 . S
C2574 C2573 1.398 . S
C2574 C2575 1.391 . S
C2575 H2563 0.950 . S
C2575 C2571 1.393 . S
C2575 C2574 1.391 . S
H2576 C2584 0.950 . S
H2577 C2589 0.950 . S
H2578 C2586 0.950 . S
H2579 C2588 1.016 . S
H2580 C2590 0.950 . S
H2581 C2592 0.950 . S
H2582 C2594 1.016 . S
H2583 C2595 0.950 . S
C2584 H2576 0.950 . S
C2584 C2585 1.386 . S
C2584 C2586 1.391 . S
C2585 C2584 1.386 . S
C2585 C2589 1.393 . S
C2586 H2578 0.950 . S
C2586 C2584 1.391 . S
C2586 C2587 1.400 . S
C2587 C2586 1.400 . S
C2587 C2588 1.375 1_556 S
C2587 C2593 1.491 1_556 S
C2588 H2579 1.016 . S
C2588 C2587 1.375 1_554 S
C2588 C2589 1.352 1_554 S
C2589 H2577 0.950 . S
C2589 C2585 1.393 . S
C2589 C2588 1.352 1_556 S
C2590 H2580 0.950 . S
C2590 C2591 1.386 . S
C2590 C2592 1.391 . S
C2591 C2590 1.386 . S
C2591 C2595 1.393 . S
C2592 H2581 0.950 . S
C2592 C2590 1.391 . S
C2592 C2593 1.400 . S
C2593 C2587 1.491 1_554 S
C2593 C2592 1.400 . S
C2593 C2594 1.375 1_554 S
C2594 H2582 1.016 . S
C2594 C2593 1.375 1_556 S
C2594 C2595 1.352 1_556 S
C2595 H2583 0.950 . S
C2595 C2591 1.393 . S
C2595 C2594 1.352 1_554 S
H2596 C2604 0.950 . S
H2597 C2609 0.950 . S
H2598 C2606 0.950 . S
H2599 C2608 0.949 1_655 S
H2600 C2610 0.950 . S
H2601 C2612 0.950 . S
H2602 C2614 0.949 1_455 S
H2603 C2615 0.950 . S
C2604 H2596 0.950 . S
C2604 C2605 1.386 . S
C2604 C2606 1.391 . S
C2605 C2604 1.386 . S
C2605 C2609 1.393 . S
C2606 H2598 0.950 . S
C2606 C2604 1.391 . S
C2606 C2607 1.400 . S
C2607 C2606 1.400 . S
C2607 C2608 1.399 . S
C2607 C2613 1.491 1_455 S
C2608 H2599 0.949 1_455 S
C2608 C2607 1.399 . S
C2608 C2609 1.392 . S
C2609 H2597 0.950 . S
C2609 C2605 1.393 . S
C2609 C2608 1.392 . S
C2610 H2600 0.950 . S
C2610 C2611 1.386 . S
C2610 C2612 1.391 . S
C2611 C2610 1.386 . S
C2611 C2615 1.393 . S
C2612 H2601 0.950 . S
C2612 C2610 1.391 . S
C2612 C2613 1.400 . S
C2613 C2607 1.491 1_655 S
C2613 C2612 1.400 . S
C2613 C2614 1.399 . S
C2614 H2602 0.949 1_655 S
C2614 C2613 1.399 . S
C2614 C2615 1.392 . S
C2615 H2603 0.950 . S
C2615 C2611 1.393 . S
C2615 C2614 1.392 . S
H2616 C2624 0.950 . S
H2617 C2629 0.950 . S
H2618 C2626 0.970 . S
H2619 C2628 0.950 1_556 S
H2620 C2630 0.950 . S
H2621 C2632 0.970 . S
H2622 C2634 0.950 1_554 S
H2623 C2635 0.950 . S
C2624 H2616 0.950 . S
C2624 C2625 1.386 . S
C2624 C2626 1.379 1_455 S
C2625 C2624 1.386 . S
C2625 C2629 1.393 . S
C2626 H2618 0.970 . S
C2626 C2624 1.379 1_655 S
C2626 C2627 1.393 1_655 S
C2627 C2626 1.393 1_455 S
C2627 C2628 1.398 . S
C2627 C2633 1.491 1_454 S
C2628 H2619 0.950 1_554 S
C2628 C2627 1.398 . S
C2628 C2629 1.391 . S
C2629 H2617 0.950 . S
C2629 C2625 1.393 . S
C2629 C2628 1.391 . S
C2630 H2620 0.950 . S
C2630 C2631 1.386 . S
C2630 C2632 1.379 1_655 S
C2631 C2630 1.386 . S
C2631 C2635 1.393 . S
C2632 H2621 0.970 . S
C2632 C2630 1.379 1_455 S
C2632 C2633 1.393 1_455 S
C2633 C2627 1.491 1_656 S
C2633 C2632 1.393 1_655 S
C2633 C2634 1.398 . S
C2634 H2622 0.950 1_556 S
C2634 C2633 1.398 . S
C2634 C2635 1.391 . S
C2635 H2623 0.950 . S
C2635 C2631 1.393 . S
C2635 C2634 1.391 . S
H2636 C2644 0.950 . S
H2637 C2649 0.950 . S
H2638 C2646 0.950 . S
H2639 C2648 0.950 . S
H2640 C2650 0.950 . S
H2641 C2652 0.950 . S
H2642 C2654 0.950 . S
H2643 C2655 0.950 . S
C2644 H2636 0.950 . S
C2644 C2645 1.386 . S
C2644 C2646 1.391 . S
C2645 C2644 1.386 . S
C2645 C2649 1.393 . S
C2646 H2638 0.950 . S
C2646 C2644 1.391 . S
C2646 C2647 1.400 . S
C2647 C2646 1.400 . S
C2647 C2648 1.398 . S
C2647 C2653 1.491 . S
C2648 H2639 0.950 . S
C2648 C2647 1.398 . S
C2648 C2649 1.391 . S
C2649 H2637 0.950 . S
C2649 C2645 1.393 . S
C2649 C2648 1.391 . S
C2650 H2640 0.950 . S
C2650 C2651 1.386 . S
C2650 C2652 1.391 . S
C2651 C2650 1.386 . S
C2651 C2655 1.393 . S
C2652 H2641 0.950 . S
C2652 C2650 1.391 . S
C2652 C2653 1.400 . S
C2653 C2647 1.491 . S
C2653 C2652 1.400 . S
C2653 C2654 1.398 . S
C2654 H2642 0.950 . S
C2654 C2653 1.398 . S
C2654 C2655 1.391 . S
C2655 H2643 0.950 . S
C2655 C2651 1.393 . S
C2655 C2654 1.391 . S
C1065 N5 1.479 . S
C1071 C919 1.455 . S
C1085 N38 1.476 . S
C1091 C292 1.462 . S
C1105 C853 1.451 . S
C1111 N71 1.475 . S
C1125 C358 1.457 . S
C1131 N104 1.475 . S
C1145 C985 1.449 . S
C1151 N137 1.476 . S
C1165 N170 1.478 . S
C1171 C490 1.446 . S
C1185 N203 1.477 . S
C1191 C1051 1.445 . S
C1205 C424 1.447 . S
C1211 N236 1.478 . S
C1225 N269 1.475 . S
C1231 C655 1.453 . S
C1245 N302 1.476 . S
C1251 C28 1.463 . S
C1265 N335 1.476 . S
C1271 C589 1.462 . S
C1285 C94 1.449 . S
C1291 N368 1.479 . S
C1305 N401 1.477 . S
C1311 C721 1.463 . S
C1325 N434 1.475 . S
C1331 C226 1.457 . S
C1345 C787 1.452 . S
C1351 N467 1.479 . S
C1365 N500 1.476 . S
C1371 C160 1.447 . S
C1385 N533 1.476 . S
C1391 C391 1.461 . S
C1405 C820 1.453 . S
C1411 N566 1.475 . S
C1425 C325 1.450 . S
C1431 N599 1.479 . S
C1445 N632 1.477 . S
C1451 C886 1.445 . S
C1465 N665 1.477 . S
C1471 C457 1.446 . S
C1485 C1018 1.456 . S
C1491 N698 1.475 . S
C1505 N731 1.478 . S
C1511 C523 1.459 . S
C1525 C952 1.446 . S
C1531 N764 1.477 . S
C1545 N797 1.478 . S
C1551 C127 1.446 . S
C1565 C556 1.463 . S
C1571 N830 1.476 . S
C1585 N863 1.475 . S
C1591 C61 1.450 . S
C1605 C622 1.455 . S
C1611 N896 1.475 . S
C1625 N929 1.476 . S
C1631 C193 1.463 . S
C1645 C754 1.460 . S
C1651 N962 1.475 . S
C1665 C259 1.463 . S
C1671 N995 1.476 . S
C1685 N1028 1.479 . S
C1691 C688 1.449 . S
C1705 N14 1.455 . S
C1711 N146 1.447 . S
C1725 N47 1.476 . S
C1731 N179 1.475 . S
C1745 N212 1.447 . S
C1751 N80 1.452 . S
C1765 N113 1.456 . S
C1771 N245 1.447 . S
C1785 N278 1.477 . S
C1791 N410 1.462 . S
C1805 N311 1.449 . S
C1811 N443 1.465 . S
C1825 N344 1.448 . S
C1831 N476 1.451 . S
C1845 N377 1.471 . S
C1851 N509 1.478 . S
C1865 N542 1.473 . S
C1871 N674 1.477 . S
C1885 N707 1.478 . S
C1891 N575 1.466 . S
C1905 N740 1.449 . S
C1911 N608 1.465 . S
C1925 N773 1.456 . S
C1931 N641 1.447 . S
C1945 N938 1.474 . S
C1951 N806 1.458 . S
C1965 N839 1.452 . S
C1971 N971 1.448 . S
C1985 N872 1.465 . S
C1991 N1004 1.449 . S
C2005 N1037 1.454 . S
C2011 N905 1.472 . S
C2025 C173 1.866 . S
C2031 C8 1.869 . S
C2045 C206 1.869 . S
C2051 C41 1.866 . S
C2065 C239 1.869 . S
C2071 C74 1.866 . S
C2085 C140 1.868 . S
C2091 C107 1.868 . S
C2105 C437 1.868 . S
C2111 C272 1.867 . S
C2125 C470 1.866 . S
C2131 C305 1.869 . S
C2145 C338 1.869 . S
C2151 C503 1.866 . S
C2165 C371 1.869 . S
C2171 C404 1.866 . S
C2185 C701 1.867 . S
C2191 C536 1.868 . S
C2205 C569 1.869 . S
C2211 C734 1.866 . S
C2225 C767 1.867 . S
C2231 C602 1.869 . S
C2245 C635 1.869 . S
C2251 C668 1.867 . S
C2265 C965 1.866 . S
C2271 C800 1.869 . S
C2285 C833 1.867 . S
C2291 C998 1.868 . S
C2305 C866 1.866 . S
C2311 C1031 1.869 . S
C2325 C932 1.867 . S
C2331 C899 1.868 . S
C2345 C809 1.117 . S
C2351 C17 1.117 . S
C2365 C50 1.120 . S
C2371 C314 1.120 . S
C2385 C83 1.102 . S
C2391 C875 1.102 . S
C2405 C116 1.104 . S
C2411 C380 1.104 . S
C2425 C149 1.116 . S
C2431 C941 1.116 . S
C2445 C446 1.121 . S
C2451 C182 1.121 . S
C2465 C1007 1.109 . S
C2471 C215 1.109 . S
C2485 C512 1.116 . S
C2491 C248 1.116 . S
C2505 C281 1.106 . S
C2511 C545 1.106 . S
C2525 C611 1.103 . S
C2531 C347 1.103 . S
C2545 C413 1.122 . S
C2551 C677 1.122 . S
C2565 C479 1.103 . S
C2571 C743 1.103 . S
C2585 C842 1.120 . S
C2591 C578 1.120 . S
C2605 C908 1.100 . S
C2611 C644 1.100 . S
C2625 C974 1.122 . S
C2631 C710 1.122 . S
C2645 C776 1.107 . S
C2651 C1040 1.107 . S
