# Generated by pormake.
# Topology smn, (6)-cn, num edge types: 1
# Building blocks:
#     Node 0, Type 0, BuildingBlock: IZENUY_clean_sbu_0, # of connection points: 6
#     Node 1, Type 0, BuildingBlock: IZENUY_clean_sbu_0, # of connection points: 6
#     Node 2, Type 0, BuildingBlock: IZENUY_clean_sbu_0, # of connection points: 6
#     Node 3, Type 0, BuildingBlock: IZENUY_clean_sbu_0, # of connection points: 6
#     Node 4, Type 0, BuildingBlock: IZENUY_clean_sbu_0, # of connection points: 6
#     Node 5, Type 0, BuildingBlock: IZENUY_clean_sbu_0, # of connection points: 6
#     Node 6, Type 0, BuildingBlock: IZENUY_clean_sbu_0, # of connection points: 6
#     Node 7, Type 0, BuildingBlock: IZENUY_clean_sbu_0, # of connection points: 6
#     Node 8, Type 0, BuildingBlock: IZENUY_clean_sbu_0, # of connection points: 6
#     Node 9, Type 0, BuildingBlock: IZENUY_clean_sbu_0, # of connection points: 6
#     Node 10, Type 0, BuildingBlock: IZENUY_clean_sbu_0, # of connection points: 6
#     Node 11, Type 0, BuildingBlock: IZENUY_clean_sbu_0, # of connection points: 6
#     Node 12, Type 0, BuildingBlock: IZENUY_clean_sbu_0, # of connection points: 6
#     Node 13, Type 0, BuildingBlock: IZENUY_clean_sbu_0, # of connection points: 6
#     Node 14, Type 0, BuildingBlock: IZENUY_clean_sbu_0, # of connection points: 6
#     Node 15, Type 0, BuildingBlock: IZENUY_clean_sbu_0, # of connection points: 6
#     Node 16, Type 0, BuildingBlock: IZENUY_clean_sbu_0, # of connection points: 6
#     Node 17, Type 0, BuildingBlock: IZENUY_clean_sbu_0, # of connection points: 6
#     Edge 18, Type (0, 0), BuildingBlock: EZIPEK_clean_linker_0, # of connection points: 2
#     Edge 19, Type (0, 0), BuildingBlock: EZIPEK_clean_linker_0, # of connection points: 2
#     Edge 20, Type (0, 0), BuildingBlock: EZIPEK_clean_linker_0, # of connection points: 2
#     Edge 21, Type (0, 0), BuildingBlock: EZIPEK_clean_linker_0, # of connection points: 2
#     Edge 22, Type (0, 0), BuildingBlock: EZIPEK_clean_linker_0, # of connection points: 2
#     Edge 23, Type (0, 0), BuildingBlock: EZIPEK_clean_linker_0, # of connection points: 2
#     Edge 24, Type (0, 0), BuildingBlock: EZIPEK_clean_linker_0, # of connection points: 2
#     Edge 25, Type (0, 0), BuildingBlock: EZIPEK_clean_linker_0, # of connection points: 2
#     Edge 26, Type (0, 0), BuildingBlock: EZIPEK_clean_linker_0, # of connection points: 2
#     Edge 27, Type (0, 0), BuildingBlock: EZIPEK_clean_linker_0, # of connection points: 2
#     Edge 28, Type (0, 0), BuildingBlock: EZIPEK_clean_linker_0, # of connection points: 2
#     Edge 29, Type (0, 0), BuildingBlock: EZIPEK_clean_linker_0, # of connection points: 2
#     Edge 30, Type (0, 0), BuildingBlock: EZIPEK_clean_linker_0, # of connection points: 2
#     Edge 31, Type (0, 0), BuildingBlock: EZIPEK_clean_linker_0, # of connection points: 2
#     Edge 32, Type (0, 0), BuildingBlock: EZIPEK_clean_linker_0, # of connection points: 2
#     Edge 33, Type (0, 0), BuildingBlock: EZIPEK_clean_linker_0, # of connection points: 2
#     Edge 34, Type (0, 0), BuildingBlock: EZIPEK_clean_linker_0, # of connection points: 2
#     Edge 35, Type (0, 0), BuildingBlock: EZIPEK_clean_linker_0, # of connection points: 2
#     Edge 36, Type (0, 0), BuildingBlock: EZIPEK_clean_linker_0, # of connection points: 2
#     Edge 37, Type (0, 0), BuildingBlock: EZIPEK_clean_linker_0, # of connection points: 2
#     Edge 38, Type (0, 0), BuildingBlock: EZIPEK_clean_linker_0, # of connection points: 2
#     Edge 39, Type (0, 0), BuildingBlock: EZIPEK_clean_linker_0, # of connection points: 2
#     Edge 40, Type (0, 0), BuildingBlock: EZIPEK_clean_linker_0, # of connection points: 2
#     Edge 41, Type (0, 0), BuildingBlock: EZIPEK_clean_linker_0, # of connection points: 2
#     Edge 42, Type (0, 0), BuildingBlock: EZIPEK_clean_linker_0, # of connection points: 2
#     Edge 43, Type (0, 0), BuildingBlock: EZIPEK_clean_linker_0, # of connection points: 2
#     Edge 44, Type (0, 0), BuildingBlock: EZIPEK_clean_linker_0, # of connection points: 2
#     Edge 45, Type (0, 0), BuildingBlock: EZIPEK_clean_linker_0, # of connection points: 2
#     Edge 46, Type (0, 0), BuildingBlock: EZIPEK_clean_linker_0, # of connection points: 2
#     Edge 47, Type (0, 0), BuildingBlock: EZIPEK_clean_linker_0, # of connection points: 2
#     Edge 48, Type (0, 0), BuildingBlock: EZIPEK_clean_linker_0, # of connection points: 2
#     Edge 49, Type (0, 0), BuildingBlock: EZIPEK_clean_linker_0, # of connection points: 2
#     Edge 50, Type (0, 0), BuildingBlock: EZIPEK_clean_linker_0, # of connection points: 2
#     Edge 51, Type (0, 0), BuildingBlock: EZIPEK_clean_linker_0, # of connection points: 2
#     Edge 52, Type (0, 0), BuildingBlock: EZIPEK_clean_linker_0, # of connection points: 2
#     Edge 53, Type (0, 0), BuildingBlock: EZIPEK_clean_linker_0, # of connection points: 2
#     Edge 54, Type (0, 0), BuildingBlock: EZIPEK_clean_linker_0, # of connection points: 2
#     Edge 55, Type (0, 0), BuildingBlock: EZIPEK_clean_linker_0, # of connection points: 2
#     Edge 56, Type (0, 0), BuildingBlock: EZIPEK_clean_linker_0, # of connection points: 2
#     Edge 57, Type (0, 0), BuildingBlock: EZIPEK_clean_linker_0, # of connection points: 2
#     Edge 58, Type (0, 0), BuildingBlock: EZIPEK_clean_linker_0, # of connection points: 2
#     Edge 59, Type (0, 0), BuildingBlock: EZIPEK_clean_linker_0, # of connection points: 2
#     Edge 60, Type (0, 0), BuildingBlock: EZIPEK_clean_linker_0, # of connection points: 2
#     Edge 61, Type (0, 0), BuildingBlock: EZIPEK_clean_linker_0, # of connection points: 2
#     Edge 62, Type (0, 0), BuildingBlock: EZIPEK_clean_linker_0, # of connection points: 2
#     Edge 63, Type (0, 0), BuildingBlock: EZIPEK_clean_linker_0, # of connection points: 2
#     Edge 64, Type (0, 0), BuildingBlock: EZIPEK_clean_linker_0, # of connection points: 2
#     Edge 65, Type (0, 0), BuildingBlock: EZIPEK_clean_linker_0, # of connection points: 2
#     Edge 66, Type (0, 0), BuildingBlock: EZIPEK_clean_linker_0, # of connection points: 2
#     Edge 67, Type (0, 0), BuildingBlock: EZIPEK_clean_linker_0, # of connection points: 2
#     Edge 68, Type (0, 0), BuildingBlock: EZIPEK_clean_linker_0, # of connection points: 2
#     Edge 69, Type (0, 0), BuildingBlock: EZIPEK_clean_linker_0, # of connection points: 2
#     Edge 70, Type (0, 0), BuildingBlock: EZIPEK_clean_linker_0, # of connection points: 2
#     Edge 71, Type (0, 0), BuildingBlock: EZIPEK_clean_linker_0, # of connection points: 2
# Relax obj value: 0.165
# Max RMSD: 0.234
# Mean RMSD: 0.233
data_MOF--net-smn--node1-IZENUY_clean_sbu_0--edge1-EZIPEK_clean_linker_0
_symmetry_space_group_name_H-M    P1
_symmetry_Int_Tables_number       1
_symmetry_cell_setting            triclinic
loop_
_symmetry_equiv_pos_as_xyz
'x, y, z'
_cell_length_a     45.998586
_cell_length_b     46.054638
_cell_length_c     13.909916
_cell_angle_alpha  90.159867
_cell_angle_beta   90.013668
_cell_angle_gamma 120.16373
loop_
_atom_site_label
_atom_site_type_symbol
_atom_site_fract_x
_atom_site_fract_y
_atom_site_fract_z
_atom_type_partial_charge
Fe0 Fe 1.02462 0.24088 0.65812 0.0
Fe1 Fe 0.03984 0.19137 0.76041 0.0
O2 O 0.04124 0.23072 0.75962 0.0
Fe3 Fe 0.05818 0.2576 0.86134 0.0
O4 O 1.02242 0.26311 0.87568 0.0
O5 O 1.0028 0.25868 0.7283 0.0
O6 O 0.98483 0.20125 0.66269 0.0
C7 C 0.98206 0.17298 0.65217 0.0
C8 C 0.08174 0.30327 0.69802 0.0
O9 O 1.00678 0.16951 0.67039 0.0
C10 C 0.09834 0.2297 0.87201 0.0
O11 O 0.04609 0.22552 0.574 0.0
O12 O 0.07115 0.20571 0.66929 0.0
O13 O 0.08149 0.29679 0.78767 0.0
O14 O 0.06091 0.28167 0.64103 0.0
C15 C 1.01146 0.19121 0.93187 0.0
O16 O 0.07281 0.20217 0.85007 0.0
O17 O 0.09711 0.25612 0.86228 0.0
C18 C 0.06922 0.21814 0.59035 0.0
O19 O 1.00831 0.17715 0.85132 0.0
O20 O 0.03575 0.22134 0.94752 0.0
C21 C 1.00241 0.26462 0.81759 0.0
Fe22 Fe 0.81743 0.81881 0.8643 0.0
Fe23 Fe 0.88243 0.86852 0.76419 0.0
O24 O 0.84404 0.83003 0.76167 0.0
Fe25 Fe 0.83402 0.80456 0.65664 0.0
O26 O 0.79317 0.80076 0.64326 0.0
O27 O 0.77786 0.80161 0.79347 0.0
O28 O 0.81745 0.85877 0.86736 0.0
C29 C 0.84378 0.88683 0.87715 0.0
C30 C 0.81095 0.7569 0.81243 0.0
O31 O 0.87145 0.88941 0.85608 0.0
C32 C 0.90236 0.83147 0.6495 0.0
O33 O 0.85387 0.83376 0.94959 0.0
O34 O 0.89802 0.8516 0.85347 0.0
O35 O 0.81621 0.76439 0.72357 0.0
O36 O 0.81369 0.778 0.87465 0.0
C37 C 0.85577 0.8716 0.59281 0.0
O38 O 0.9045 0.85874 0.67297 0.0
O39 O 0.87428 0.80492 0.65605 0.0
C40 C 0.88413 0.8404 0.93423 0.0
O41 O 0.86628 0.88487 0.67484 0.0
O42 O 0.84967 0.8417 0.57502 0.0
C43 C 0.77145 0.79766 0.70365 0.0
Fe44 Fe 0.24778 1.01318 0.85577 0.0
Fe45 Fe 0.19831 0.03025 0.75835 0.0
O46 O 0.23827 0.03194 0.75936 0.0
Fe47 Fe 0.26666 0.05224 0.66351 0.0
O48 O 0.27701 0.01985 0.64429 0.0
O49 O 0.26239 0.99015 0.77735 0.0
O50 O 0.2074 0.97457 0.85086 0.0
C51 C 0.1795 0.97213 0.86413 0.0
C52 C 0.31106 0.07145 0.82627 0.0
O53 O 0.17618 0.99692 0.84715 0.0
C54 C 0.23563 0.08957 0.65503 0.0
O55 O 0.23479 0.03612 0.94318 0.0
O56 O 0.21284 0.06064 0.85223 0.0
O57 O 0.30456 0.07625 0.74061 0.0
O58 O 0.28995 0.04722 0.87532 0.0
C59 C 0.20073 1.00365 0.58744 0.0
O60 O 0.20819 0.06329 0.66953 0.0
O61 O 0.26227 0.08931 0.66976 0.0
C62 C 0.22669 0.05897 0.92914 0.0
O63 O 0.18441 0.99974 0.66427 0.0
O64 O 0.23106 0.02845 0.5753 0.0
C65 C 0.27399 0.99537 0.69177 0.0
Fe66 Fe 1.02686 0.80578 0.16736 0.0
Fe67 Fe 0.06143 0.82418 0.36843 0.0
O68 O 0.04447 0.83364 0.26685 0.0
Fe69 Fe 0.0455 0.87273 0.26555 0.0
O70 O 0.07544 0.88686 0.16966 0.0
O71 O 0.0478 0.84106 0.07894 0.0
O72 O 0.06311 0.80143 0.15014 0.0
C73 C 0.08202 0.79828 0.20859 0.0
C74 C 0.9863 0.83342 0.15929 0.0
O75 O 0.0811 0.80369 0.29825 0.0
C76 C 1.01823 0.84737 0.44016 0.0
O77 O 1.00574 0.7667 0.24299 0.0
O78 O 1.02391 0.78503 0.38985 0.0
O79 O 1.01152 0.86106 0.1808 0.0
O80 O 0.98743 0.80682 0.16973 0.0
C81 C 0.10567 0.89186 0.36294 0.0
O82 O 0.0427 0.84195 0.45461 0.0
O83 O 1.01501 0.85821 0.35988 0.0
C84 C 1.00557 0.76161 0.33364 0.0
O85 O 0.10166 0.86292 0.35721 0.0
O86 O 0.08038 0.89515 0.35096 0.0
C87 C 0.07212 0.87127 0.09161 0.0
Fe88 Fe 0.26534 0.23713 0.16202 0.0
Fe89 Fe 0.19805 0.18937 0.25703 0.0
O90 O 0.23731 0.22803 0.25916 0.0
Fe91 Fe 0.24632 0.25571 0.35787 0.0
O92 O 0.28812 0.26322 0.37807 0.0
O93 O 0.30337 0.2522 0.23921 0.0
O94 O 0.26297 0.19649 0.16798 0.0
C95 C 0.23676 0.16891 0.15487 0.0
C96 C 0.27117 0.3003 0.19691 0.0
O97 O 0.20893 0.16697 0.16807 0.0
C98 C 0.17808 0.22789 0.3611 0.0
O99 O 0.22977 0.22362 0.07285 0.0
O100 O 0.18403 0.20599 0.16378 0.0
O101 O 0.26245 0.29433 0.28463 0.0
O102 O 0.2727 0.27899 0.14393 0.0
C103 C 0.2253 0.1888 0.42879 0.0
O104 O 0.17554 0.2 0.34554 0.0
O105 O 0.20593 0.25383 0.34982 0.0
C106 C 0.19941 0.21758 0.08512 0.0
O107 O 0.21275 0.17356 0.35043 0.0
O108 O 0.2323 0.21936 0.4436 0.0
C109 C 0.30976 0.26171 0.32672 0.0
Fe110 Fe 0.88461 0.03189 0.25962 0.0
Fe111 Fe 0.81951 1.01212 0.36533 0.0
O112 O 0.84489 0.02917 0.26178 0.0
Fe113 Fe 0.83201 0.04348 0.16052 0.0
O114 O 0.87047 0.08497 0.15936 0.0
O115 O 0.90398 0.06487 0.17015 0.0
O116 O 0.89956 0.06381 0.35172 0.0
C117 C 0.88506 0.0602 0.43191 0.0
C118 C 0.85655 1.00124 0.08914 0.0
O119 O 0.85625 0.03432 0.44842 0.0
C120 C 0.77186 0.98648 0.20747 0.0
O121 O 0.87569 0.99946 0.34753 0.0
O122 O 0.82145 0.9734 0.36128 0.0
O123 O 0.84901 0.02422 0.07378 0.0
O124 O 0.86925 0.99995 0.16864 0.0
C125 C 0.80777 0.0641 0.32548 0.0
O126 O 0.77883 0.98927 0.29718 0.0
O127 O 0.79317 1.00488 0.14685 0.0
C128 C 0.84876 0.97351 0.3697 0.0
O129 O 0.8156 0.04828 0.38256 0.0
O130 O 0.81131 0.06247 0.23446 0.0
C131 C 0.89936 0.0887 0.14853 0.0
Fe132 Fe 0.72433 0.58965 0.19162 0.0
Fe133 Fe 0.7086 0.52265 0.10271 0.0
O134 O 0.70706 0.56027 0.09612 0.0
Fe135 Fe 0.68811 0.56678 0.99414 0.0
O136 O 0.72432 0.60647 0.96743 0.0
O137 O 0.7422 0.6277 0.11202 0.0
O138 O 0.765 0.59187 0.18308 0.0
C139 C 0.76835 0.56692 0.19954 0.0
C140 C 0.66662 0.59213 0.15282 0.0
O141 O 0.74365 0.53783 0.1879 0.0
C142 C 0.64704 0.49862 1.01042 0.0
O143 O 0.70701 0.55536 0.28487 0.0
O144 O 0.67879 0.50861 0.19888 0.0
O145 O 0.66752 0.58658 0.06311 0.0
O146 O 0.68655 0.59072 0.21111 0.0
C147 C 0.73372 0.54629 0.92621 0.0
O148 O 0.67409 0.49835 0.01881 0.0
O149 O 0.64891 0.52679 1.00987 0.0
C150 C 0.68317 0.52465 0.27658 0.0
O151 O 0.73843 0.53687 1.0069 0.0
O152 O 0.70799 0.54965 0.91066 0.0
C153 C 0.74239 0.63104 0.02064 0.0
Fe154 Fe 0.48348 0.15353 0.1957 0.0
Fe155 Fe 0.55057 0.2046 0.10684 0.0
O156 O 0.51239 0.16545 0.0991 0.0
Fe157 Fe 0.50442 0.14041 0.9941 0.0
O158 O 0.46426 0.13655 0.97252 0.0
O159 O 0.44505 0.13564 0.11815 0.0
O160 O 0.48315 0.19317 0.19342 0.0
C161 C 0.50869 0.22138 0.20885 0.0
C162 C 0.47741 0.09178 0.14859 0.0
O163 O 0.53725 0.2249 0.19588 0.0
C164 C 0.57254 0.16784 0.99644 0.0
O165 O 0.51836 0.16816 0.287 0.0
O166 O 0.56516 0.18829 0.19983 0.0
O167 O 0.48496 0.09948 0.06028 0.0
O168 O 0.47964 0.11304 0.20928 0.0
C169 C 0.52575 0.20742 0.93167 0.0
O170 O 0.57443 0.19509 0.02023 0.0
O171 O 0.54455 0.14118 1.00131 0.0
C172 C 0.54904 0.17524 0.27626 0.0
O173 O 0.5356 0.22061 0.01389 0.0
O174 O 0.52113 0.17803 0.91336 0.0
C175 C 0.44058 0.13134 0.02745 0.0
Fe176 Fe 0.91552 0.3458 0.19978 0.0
Fe177 Fe 0.86513 0.36098 0.0997 0.0
O178 O 0.90487 0.36298 0.1006 0.0
Fe179 Fe 0.93231 0.38239 1.00249 0.0
O180 O 0.93946 0.34809 0.98177 0.0
O181 O 0.93567 0.32671 0.126 0.0
O182 O 0.8765 0.30533 0.18992 0.0
C183 C 0.84778 0.30183 0.20047 0.0
C184 C 0.97708 0.40534 0.16647 0.0
O185 O 0.84364 0.3263 0.18461 0.0
C186 C 0.90298 0.42107 0.99807 0.0
O187 O 0.89772 0.36399 0.2884 0.0
O188 O 0.87925 0.39066 0.19594 0.0
O189 O 0.97075 0.40564 0.07752 0.0
O190 O 0.95557 0.3832 0.22114 0.0
C191 C 0.86698 0.33525 0.92622 0.0
O192 O 0.87532 0.39507 0.01387 0.0
O193 O 0.92945 0.4203 1.01127 0.0
C194 C 0.88828 0.38579 0.27756 0.0
O195 O 0.85121 0.33109 1.00396 0.0
O196 O 0.8969 0.36018 0.91397 0.0
C197 C 0.94252 0.32824 0.03661 0.0
Fe198 Fe 0.69008 0.13882 0.49958 0.0
Fe199 Fe 0.72749 0.15677 0.69607 0.0
O200 O 0.70896 0.16628 0.59868 0.0
Fe201 Fe 0.70884 0.20502 0.60119 0.0
O202 O 0.73907 0.22072 0.50665 0.0
O203 O 0.71195 0.17516 0.41361 0.0
O204 O 0.72477 0.13214 0.477 0.0
C205 C 0.74667 0.13192 0.53017 0.0
C206 C 0.64949 0.16639 0.49898 0.0
O207 O 0.74876 0.13981 0.61901 0.0
C208 C 0.68304 0.17791 0.77514 0.0
O209 O 0.66799 0.09988 0.5727 0.0
O210 O 0.69162 0.11558 0.71611 0.0
O211 O 0.67509 0.19433 0.51412 0.0
O212 O 0.6514 0.14046 0.51011 0.0
C213 C 0.7686 0.2248 0.70141 0.0
O214 O 0.70734 0.17191 0.78606 0.0
O215 O 0.67854 0.18864 0.69593 0.0
C216 C 0.66958 0.09397 0.66144 0.0
O217 O 0.76661 0.19694 0.68799 0.0
O218 O 0.74294 0.22724 0.68849 0.0
C219 C 0.73629 0.20544 0.42847 0.0
Fe220 Fe 0.86357 0.5193 0.59586 0.0
Fe221 Fe 0.92991 0.56715 0.49429 0.0
O222 O 0.90285 0.5581 0.59452 0.0
Fe223 Fe 0.91267 0.58599 0.69295 0.0
O224 O 0.87191 0.58372 0.68944 0.0
O225 O 0.84198 0.52984 0.68809 0.0
O226 O 0.84782 0.53541 0.50592 0.0
C227 C 0.86274 0.54898 0.42841 0.0
C228 C 0.89272 0.51924 0.76431 0.0
O229 O 0.89282 0.55458 0.41008 0.0
C230 C 0.976 0.59222 0.65621 0.0
O231 O 0.87345 0.49725 0.50408 0.0
O232 O 0.92728 0.52596 0.49528 0.0
O233 O 0.8996 0.54982 0.77925 0.0
O234 O 0.8798 0.50387 0.68627 0.0
C235 C 0.93741 0.63101 0.53058 0.0
O236 O 0.96901 0.58227 0.56864 0.0
O237 O 0.95478 0.59368 0.70963 0.0
C238 C 0.90071 0.49823 0.48766 0.0
O239 O 0.93827 0.60941 0.47751 0.0
O240 O 0.92801 0.62457 0.61815 0.0
C241 C 0.84425 0.55766 0.70326 0.0
Fe242 Fe 0.48296 0.34636 0.69337 0.0
Fe243 Fe 0.55057 0.36399 0.60444 0.0
O244 O 0.51211 0.36442 0.59724 0.0
Fe245 Fe 0.50453 0.38276 0.49438 0.0
O246 O 0.46164 0.34963 0.47727 0.0
O247 O 0.446 0.32203 0.61394 0.0
O248 O 0.48503 0.30775 0.69986 0.0
C249 C 0.51118 0.30658 0.71516 0.0
C250 C 0.47886 0.40446 0.64879 0.0
O251 O 0.53882 0.33178 0.69532 0.0
C252 C 0.57376 0.42115 0.49013 0.0
O253 O 0.51761 0.36969 0.78368 0.0
O254 O 0.56488 0.39578 0.69697 0.0
O255 O 0.49059 0.408 0.56404 0.0
O256 O 0.47485 0.38073 0.70213 0.0
C257 C 0.5231 0.33408 0.43161 0.0
O258 O 0.57489 0.39595 0.5167 0.0
O259 O 0.54627 0.42051 0.49447 0.0
C260 C 0.54865 0.39291 0.77372 0.0
O261 O 0.5355 0.33227 0.51168 0.0
O262 O 0.51659 0.35773 0.41331 0.0
C263 C 0.43987 0.32602 0.5272 0.0
Fe264 Fe 0.39611 0.92368 0.52383 0.0
Fe265 Fe 0.35641 0.90267 0.33046 0.0
O266 O 0.37678 0.89512 0.42719 0.0
Fe267 Fe 0.3778 0.8569 0.42662 0.0
O268 O 0.34753 0.8413 0.52163 0.0
O269 O 0.37376 0.88799 0.61194 0.0
O270 O 0.36218 0.93168 0.54355 0.0
C271 C 0.33816 0.92889 0.49378 0.0
C272 C 0.43667 0.89609 0.53075 0.0
O273 O 0.33363 0.91754 0.4081 0.0
C274 C 0.40322 0.88423 0.25255 0.0
O275 O 0.41846 0.96144 0.44682 0.0
O276 O 0.39034 0.94484 0.30957 0.0
O277 O 0.41143 0.86805 0.51448 0.0
O278 O 0.4347 0.92182 0.51729 0.0
C279 C 0.31693 0.83372 0.33382 0.0
O280 O 0.37821 0.88922 0.2409 0.0
O281 O 0.40799 0.87343 0.3315 0.0
C282 C 0.41411 0.96666 0.35956 0.0
O283 O 0.31828 0.86145 0.3394 0.0
O284 O 0.34429 0.83418 0.3388 0.0
C285 C 0.35012 0.85719 0.59879 0.0
Fe286 Fe 0.15248 0.49618 0.52434 0.0
Fe287 Fe 0.21873 0.54133 0.42648 0.0
O288 O 0.17935 0.50372 0.4252 0.0
Fe289 Fe 0.16843 0.4758 0.32552 0.0
O290 O 0.12808 0.47231 0.30705 0.0
O291 O 0.11331 0.47922 0.45161 0.0
O292 O 0.1547 0.53671 0.51258 0.0
C293 C 0.18129 0.56394 0.5272 0.0
C294 C 0.1428 0.43198 0.49193 0.0
O295 O 0.20877 0.56505 0.51378 0.0
C296 C 0.23659 0.50087 0.31855 0.0
O297 O 0.18825 0.51109 0.61283 0.0
O298 O 0.2325 0.52465 0.52053 0.0
O299 O 0.1491 0.43676 0.40163 0.0
O300 O 0.14701 0.45557 0.54604 0.0
C301 C 0.19413 0.54316 0.24999 0.0
O302 O 0.24011 0.52883 0.34078 0.0
O303 O 0.20809 0.47502 0.32838 0.0
C304 C 0.21763 0.5148 0.60045 0.0
O305 O 0.20433 0.55708 0.3315 0.0
O306 O 0.18499 0.51192 0.23756 0.0
C307 C 0.10655 0.47213 0.36296 0.0
Fe308 Fe 0.60096 0.71276 0.32765 0.0
Fe309 Fe 0.58125 0.67729 0.52718 0.0
O310 O 0.5727 0.69497 0.42518 0.0
Fe311 Fe 0.53434 0.6956 0.42126 0.0
O312 O 0.51909 0.66438 0.32844 0.0
O313 O 0.56527 0.69151 0.23854 0.0
O314 O 0.60575 0.67686 0.31083 0.0
C315 C 0.60706 0.65652 0.36802 0.0
C316 C 0.57469 0.7544 0.31877 0.0
O317 O 0.5991 0.65528 0.45651 0.0
C318 C 0.56104 0.72358 0.59473 0.0
O319 O 0.63992 0.73428 0.40336 0.0
O320 O 0.62204 0.71281 0.54726 0.0
O321 O 0.54642 0.72891 0.33194 0.0
O322 O 0.60047 0.75225 0.33293 0.0
C323 C 0.5131 0.63704 0.53064 0.0
O324 O 0.56613 0.69898 0.61112 0.0
O325 O 0.55019 0.72677 0.51409 0.0
C326 C 0.64501 0.73301 0.49312 0.0
O327 O 0.54078 0.63815 0.52166 0.0
O328 O 0.51132 0.66257 0.50936 0.0
C329 C 0.53479 0.66738 0.25106 0.0
Fe330 Fe 0.39297 0.48871 0.02066 0.0
Fe331 Fe 0.37483 0.53709 0.92881 0.0
O332 O 0.37382 0.49812 0.92477 0.0
Fe333 Fe 0.35447 0.47115 0.82465 0.0
O334 O 0.38891 0.46423 0.80257 0.0
O335 O 0.41427 0.4719 0.94281 0.0
O336 O 0.4322 0.52905 1.0123 0.0
C337 C 0.43422 0.55678 0.02804 0.0
C338 C 0.3354 0.42597 0.98637 0.0
O339 O 0.40832 0.5588 0.01784 0.0
C340 C 0.31572 0.50063 0.82166 0.0
O341 O 0.37198 0.50304 0.11154 0.0
O342 O 0.34395 0.52095 0.02192 0.0
O343 O 0.33209 0.43208 0.89861 0.0
O344 O 0.35779 0.44767 0.03978 0.0
C345 C 0.40148 0.53752 0.75445 0.0
O346 O 0.3419 0.52761 0.84142 0.0
O347 O 0.31592 0.47366 0.83152 0.0
C348 C 0.34748 0.50889 0.09999 0.0
O349 O 0.40554 0.55188 0.8353 0.0
O350 O 0.37657 0.5076 0.7391 0.0
C351 C 0.41103 0.46376 0.85403 0.0
Fe352 Fe 0.60171 0.90466 0.82877 0.0
Fe353 Fe 0.53495 0.85581 0.92641 0.0
O354 O 0.57397 0.89444 0.92898 0.0
Fe355 Fe 0.58356 0.9212 0.03154 0.0
O356 O 0.62479 0.92698 0.0473 0.0
O357 O 0.64076 0.92046 0.90304 0.0
O358 O 0.59977 0.86397 0.82535 0.0
C359 C 0.57319 0.83627 0.81466 0.0
C360 C 0.60904 0.96783 0.87218 0.0
O361 O 0.54593 0.8338 0.83936 0.0
C362 C 0.51482 0.8934 0.03915 0.0
O363 O 0.56623 0.89181 0.74148 0.0
O364 O 0.52027 0.87217 0.83247 0.0
O365 O 0.60049 0.96103 0.9604 0.0
O366 O 0.60799 0.94606 0.81573 0.0
C367 C 0.56265 0.85433 0.09928 0.0
O368 O 0.51226 0.86627 0.01271 0.0
O369 O 0.54296 0.91976 0.0327 0.0
C370 C 0.53589 0.88528 0.75495 0.0
O371 O 0.54986 0.83964 0.02019 0.0
O372 O 0.56956 0.88468 0.11557 0.0
C373 C 0.64682 0.92804 0.99203 0.0
Fe374 Fe 0.21889 0.70154 0.92932 0.0
Fe375 Fe 0.1511 0.68131 0.02327 0.0
O376 O 0.17953 0.70028 0.92626 0.0
Fe377 Fe 0.17074 0.71845 0.82659 0.0
O378 O 0.21045 0.75813 0.83817 0.0
O379 O 0.24157 0.73546 0.84271 0.0
O380 O 0.2326 0.73205 0.0249 0.0
C381 C 0.21671 0.7272 0.10316 0.0
C382 C 0.19305 0.6742 0.75555 0.0
O383 O 0.18646 0.70231 0.113 0.0
C384 C 0.10704 0.66238 0.8563 0.0
O385 O 0.20721 0.66788 0.01585 0.0
O386 O 0.15288 0.64219 0.01767 0.0
O387 O 0.1872 0.6984 0.74098 0.0
O388 O 0.20469 0.67096 0.83463 0.0
C389 C 0.14437 0.73746 0.98791 0.0
O390 O 0.11226 0.66027 0.94591 0.0
O391 O 0.13053 0.68221 0.80258 0.0
C392 C 0.17967 0.64154 0.03052 0.0
O393 O 0.14537 0.71651 0.0429 0.0
O394 O 0.15171 0.73895 0.89891 0.0
C395 C 0.23864 0.76061 0.82686 0.0
C396 C 0.13029 0.2441 0.55643 0.0
C397 C 0.09678 0.22588 0.5209 0.0
C398 C 0.11825 0.21599 0.37011 0.0
C399 C 0.15069 0.22957 0.4126 0.0
N400 N 0.186 0.25175 0.55386 0.0
N401 N 0.0582 0.19192 0.39599 0.0
C402 C 0.1564 0.24266 0.50733 0.0
C403 C 0.09052 0.21144 0.42762 0.0
N404 N 0.13746 0.26346 0.63715 0.0
N405 N 0.1141 0.20801 0.27454 0.0
H406 H 0.03743 0.18816 0.43593 0.0
H407 H 0.05188 0.17762 0.33324 0.0
H408 H 0.13393 0.21144 0.23059 0.0
H409 H 0.09191 0.20102 0.23715 0.0
H410 H 0.16199 0.28123 0.65636 0.0
H411 H 0.11917 0.26517 0.67692 0.0
H412 H 0.18945 0.25705 0.62727 0.0
H413 H 0.20616 0.2511 0.52239 0.0
C414 C 0.82853 0.91142 0.39516 0.0
C415 C 0.85082 0.94575 0.41906 0.0
C416 C 0.8829 0.92829 0.52001 0.0
C417 C 0.85655 0.8945 0.51547 0.0
N418 N 0.80405 0.85307 0.44272 0.0
N419 N 0.89641 0.98563 0.52182 0.0
C420 C 0.82937 0.88564 0.45051 0.0
C421 C 0.8774 0.95388 0.48565 0.0
N422 N 0.80762 0.90343 0.31755 0.0
N423 N 0.91345 0.93609 0.55753 0.0
H424 H 0.8926 1.00536 0.50483 0.0
H425 H 0.91351 0.99144 0.57797 0.0
H426 H 0.91875 0.91785 0.58177 0.0
H427 H 0.93444 0.96015 0.55409 0.0
H428 H 0.79323 0.87909 0.29085 0.0
H429 H 0.80721 0.92151 0.27359 0.0
H430 H 0.78192 0.8458 0.40469 0.0
H431 H 0.80423 0.83333 0.47812 0.0
C432 C 0.17696 0.94386 0.535 0.0
C433 C 0.18351 0.97682 0.51355 0.0
C434 C 0.1471 0.95458 0.37119 0.0
C435 C 0.13808 0.92131 0.39902 0.0
N436 N 0.15948 0.88839 0.47416 0.0
N437 N 0.17597 1.01434 0.41055 0.0
C438 C 0.15752 0.91701 0.47071 0.0
C439 C 0.16951 0.98255 0.42997 0.0
N440 N 0.18864 0.93785 0.61861 0.0
N441 N 0.13564 0.95933 0.28548 0.0
H442 H 0.1929 0.03521 0.4508 0.0
H443 H 0.16372 0.02012 0.35767 0.0
H444 H 0.12171 0.93958 0.23817 0.0
H445 H 0.14264 0.98269 0.25625 0.0
H446 H 0.18062 0.91377 0.64443 0.0
H447 H 0.20466 0.95685 0.66547 0.0
H448 H 0.17538 0.88532 0.52111 0.0
H449 H 0.15007 0.87018 0.42047 0.0
C450 C 0.22117 0.08117 0.09167 0.0
C451 C 0.23541 0.08695 0.99843 0.0
C452 C 0.25136 0.14646 1.00933 0.0
C453 C 0.23832 0.14119 0.10404 0.0
N454 N 0.21667 0.1052 0.24269 0.0
N455 N 0.2717 0.1268 0.87929 0.0
C456 C 0.2251 0.10903 0.1476 0.0
C457 C 0.25303 0.12022 0.96124 0.0
N458 N 0.20226 0.04905 0.1246 0.0
N459 N 0.26023 0.17579 0.96222 0.0
H460 H 0.27405 0.10834 0.84268 0.0
H461 H 0.28791 0.15095 0.85406 0.0
H462 H 0.25963 0.19601 0.99353 0.0
H463 H 0.26534 0.17906 0.88883 0.0
H464 H 0.1879 0.04284 0.18699 0.0
H465 H 0.19918 0.02823 0.08613 0.0
H466 H 0.21034 0.08349 0.28139 0.0
H467 H 0.21877 0.12484 0.28497 0.0
C468 C 0.93838 0.15193 0.11336 0.0
C469 C 0.92696 0.11742 0.09306 0.0
C470 C 0.97855 0.13438 1.00234 0.0
C471 C 0.98778 0.16868 1.00828 0.0
N472 N 0.9768 0.21074 0.07398 0.0
N473 N 0.9319 0.07833 0.98765 0.0
C474 C 0.96797 0.17777 0.06603 0.0
C475 C 0.94591 0.10944 0.02895 0.0
N476 N 0.92121 0.16008 0.17756 0.0
N477 N 1.0009 0.12543 0.96909 0.0
H478 H 0.90656 0.0605 0.99537 0.0
H479 H 0.94408 0.07208 0.93533 0.0
H480 H 1.02537 0.14306 0.94932 0.0
H481 H 0.99613 0.10077 0.97111 0.0
H482 H 0.9302 0.18412 0.20528 0.0
H483 H 0.8981 0.14236 0.20569 0.0
H484 H 0.96187 0.21899 0.1065 0.0
H485 H 0.99888 0.23016 0.04521 0.0
C486 C 0.89772 0.81396 0.07851 0.0
C487 C 0.90679 0.8409 0.01282 0.0
C488 C 0.9661 0.86053 0.04064 0.0
C489 C 0.95801 0.83426 0.10782 0.0
N490 N 0.91577 0.7914 0.20928 0.0
N491 N 0.949 0.89752 0.97218 0.0
C492 C 0.92362 0.81246 0.13248 0.0
C493 C 0.94077 0.86673 1.00808 0.0
N494 N 0.86481 0.78976 0.08905 0.0
N495 N 0.99762 0.87864 1.00265 0.0
H496 H 0.93088 0.90341 0.95051 0.0
H497 H 0.97338 0.91807 0.97486 0.0
H498 H 1.01684 0.87382 0.01789 0.0
H499 H 1.0034 0.89573 0.94673 0.0
H500 H 0.85694 0.76791 0.12863 0.0
H501 H 0.84517 0.79063 0.05481 0.0
H502 H 0.89158 0.77731 0.23696 0.0
H503 H 0.93394 0.79023 0.25116 0.0
C504 C 0.94512 0.8117 0.62247 0.0
C505 C 0.93205 0.83306 0.59896 0.0
C506 C 0.98406 0.86954 0.51202 0.0
C507 C 0.99418 0.84522 0.51705 0.0
N508 N 0.98306 0.79152 0.57833 0.0
N509 N 0.93599 0.87624 0.4922 0.0
C510 C 0.97448 0.81582 0.57325 0.0
C511 C 0.95073 0.86035 0.53568 0.0
N512 N 0.93048 0.78843 0.69362 0.0
N513 N 1.0062 0.90138 0.48212 0.0
H514 H 0.91034 0.86762 0.49799 0.0
H515 H 0.94822 0.89483 0.4404 0.0
H516 H 0.03134 0.90916 0.4675 0.0
H517 H 1.00038 0.92055 0.48282 0.0
H518 H 0.94088 0.77452 0.72026 0.0
H519 H 0.90943 0.78499 0.73149 0.0
H520 H 0.96725 0.76777 0.60684 0.0
H521 H 1.00564 0.79487 0.55169 0.0
C522 C 0.2204 0.1353 0.64511 0.0
C523 C 0.23645 0.11852 0.60454 0.0
C524 C 0.25411 0.15685 0.46729 0.0
C525 C 0.23358 0.16984 0.49973 0.0
N526 N 0.19531 0.17012 0.61713 0.0
N527 N 0.26375 0.11001 0.46745 0.0
C528 C 0.21653 0.15907 0.58877 0.0
C529 C 0.25238 0.12865 0.51358 0.0
N530 N 0.20934 0.12893 0.73793 0.0
N531 N 0.27531 0.17149 0.39122 0.0
H532 H 0.26213 0.0884 0.49613 0.0
H533 H 0.27172 0.11398 0.39614 0.0
H534 H 0.27705 0.19202 0.35473 0.0
H535 H 0.29345 0.16549 0.37069 0.0
H536 H 0.20071 0.14281 0.77497 0.0
H537 H 0.21152 0.11162 0.78074 0.0
H538 H 0.1791 0.16022 0.67552 0.0
H539 H 0.19242 0.18789 0.57852 0.0
C540 C 0.91404 0.12145 0.46724 0.0
C541 C 0.90191 0.08851 0.50248 0.0
C542 C 0.93377 0.11309 0.65138 0.0
C543 C 0.95179 0.14488 0.60523 0.0
N544 N 0.96036 0.17831 0.46267 0.0
N545 N 0.89641 0.05286 0.63609 0.0
C546 C 0.94194 0.14899 0.51205 0.0
C547 C 0.91033 0.08422 0.5975 0.0
N548 N 0.89815 0.12656 0.39209 0.0
N549 N 0.93801 0.11083 0.74764 0.0
H550 H 0.87591 0.03208 0.60514 0.0
H551 H 0.90528 0.04745 0.69845 0.0
H552 H 0.95362 0.13175 0.78942 0.0
H553 H 0.92348 0.08924 0.78774 0.0
H554 H 0.90301 0.15046 0.37296 0.0
H555 H 0.87735 0.10691 0.358 0.0
H556 H 0.95601 0.18084 0.39041 0.0
H557 H 0.98179 0.19908 0.49024 0.0
C558 C 0.87955 0.96741 0.01918 0.0
C559 C 0.85474 0.97692 0.01343 0.0
C560 C 0.82277 0.92854 0.90397 0.0
C561 C 0.84441 0.91587 0.9286 0.0
N562 N 0.88719 0.91996 0.03804 0.0
N563 N 0.80098 0.96507 0.94852 0.0
C564 C 0.87107 0.93442 0.99424 0.0
C565 C 0.82582 0.95721 0.95472 0.0
N566 N 0.91132 0.98984 0.04979 0.0
N567 N 0.80027 0.91418 0.83042 0.0
H568 H 0.80297 0.98666 0.97862 0.0
H569 H 0.77774 0.94928 0.91659 0.0
H570 H 0.79764 0.89365 0.79134 0.0
H571 H 0.78631 0.92441 0.80296 0.0
H572 H 0.93074 0.98435 0.04937 0.0
H573 H 0.91888 1.0149 0.06448 0.0
H574 H 0.90536 0.93217 0.09131 0.0
H575 H 0.87917 0.89449 0.0308 0.0
C576 C 0.15836 0.93496 1.0095 0.0
C577 C 0.1525 0.94226 0.91486 0.0
C578 C 0.09381 0.89544 0.92372 0.0
C579 C 0.09972 0.88927 0.01974 0.0
N580 N 0.14035 0.89408 0.13703 0.0
N581 N 0.1175 0.92484 0.77329 0.0
C582 C 0.133 0.90612 0.0566 0.0
C583 C 0.121 0.92107 0.86925 0.0
N584 N 0.18733 0.95655 0.05727 0.0
N585 N 0.06237 0.87737 0.88513 0.0
H586 H 0.13692 0.94307 0.73181 0.0
H587 H 0.09649 0.90843 0.73297 0.0
H588 H 0.04334 0.85586 0.91758 0.0
H589 H 0.05503 0.8837 0.82148 0.0
H590 H 0.1908 0.95461 0.1305 0.0
H591 H 0.2068 0.97818 0.02662 0.0
H592 H 0.16467 0.90336 0.16318 0.0
H593 H 0.12233 0.87228 0.17111 0.0
C594 C 0.16172 0.2537 0.90903 0.0
C595 C 0.12702 0.22915 0.92324 0.0
C596 C 0.14441 0.19326 1.00405 0.0
C597 C 0.17829 0.2194 1.00594 0.0
N598 N 0.21995 0.2753 0.95798 0.0
N599 N 0.08811 0.18256 0.02172 0.0
C600 C 0.18731 0.2498 0.95671 0.0
C601 C 0.1191 0.20072 0.98072 0.0
N602 N 0.17051 0.28061 0.85066 0.0
N603 N 0.13627 0.16142 0.02903 0.0
H604 H 0.07054 0.19052 0.01995 0.0
H605 H 0.08209 0.1629 0.06945 0.0
H606 H 0.15465 0.15515 0.04461 0.0
H607 H 0.11181 0.1411 0.02364 0.0
H608 H 0.19498 0.29657 0.82728 0.0
H609 H 0.15328 0.28642 0.8216 0.0
H610 H 0.22774 0.2995 0.93395 0.0
H611 H 0.23937 0.27247 0.98577 0.0
C612 C 0.78279 0.54133 0.71112 0.0
C613 C 0.8159 0.55922 0.75062 0.0
C614 C 0.7942 0.57823 0.88227 0.0
C615 C 0.76068 0.55515 0.85361 0.0
N616 N 0.72274 0.5129 0.74237 0.0
N617 N 0.85155 0.59014 0.88535 0.0
C618 C 0.75479 0.53645 0.76767 0.0
C619 C 0.82134 0.5769 0.83863 0.0
N620 N 0.77813 0.52971 0.61884 0.0
N621 N 0.8001 0.60121 0.95285 0.0
H622 H 0.87182 0.58823 0.85998 0.0
H623 H 0.85533 0.59986 0.95492 0.0
H624 H 0.78072 0.60248 0.98747 0.0
H625 H 0.82407 0.62077 0.97025 0.0
H626 H 0.75511 0.51933 0.58319 0.0
H627 H 0.79804 0.53376 0.57467 0.0
H628 H 0.7172 0.49572 0.68667 0.0
H629 H 0.70172 0.50916 0.78106 0.0
C630 C 0.49414 0.2192 0.79959 0.0
C631 C 0.52355 0.22959 0.85667 0.0
C632 C 0.53797 0.28789 0.83719 0.0
C633 C 0.51132 0.27871 0.77108 0.0
N634 N 0.46395 0.23435 0.68585 0.0
N635 N 0.57889 0.27484 0.89871 0.0
C636 C 0.48929 0.24395 0.75112 0.0
C637 C 0.54735 0.26429 0.86395 0.0
N638 N 0.47021 0.18603 0.7941 0.0
N639 N 0.55269 0.31855 0.88108 0.0
H640 H 0.587 0.25812 0.91706 0.0
H641 H 0.59775 0.30005 0.899 0.0
H642 H 0.54311 0.3347 0.87379 0.0
H643 H 0.57103 0.32568 0.9343 0.0
H644 H 0.44608 0.17739 0.76729 0.0
H645 H 0.47423 0.167 0.81805 0.0
H646 H 0.45028 0.21011 0.65793 0.0
H647 H 0.45711 0.25087 0.65735 0.0
C648 C 0.83853 0.27485 0.88323 0.0
C649 C 0.84971 0.30822 0.85308 0.0
C650 C 0.81448 0.28593 0.70891 0.0
C651 C 0.79876 0.25298 0.74889 0.0
N652 N 0.79282 0.21756 0.88464 0.0
N653 N 0.84755 0.34609 0.7384 0.0
C654 C 0.8103 0.24767 0.83816 0.0
C655 C 0.83789 0.31399 0.76534 0.0
N656 N 0.85467 0.26922 0.95689 0.0
N657 N 0.80743 0.29036 0.61664 0.0
H658 H 0.86519 0.36706 0.77691 0.0
H659 H 0.83672 0.35184 0.68122 0.0
H660 H 0.79066 0.27049 0.57344 0.0
H661 H 0.82048 0.31309 0.58019 0.0
H662 H 0.8497 0.24533 0.97644 0.0
H663 H 0.87522 0.28872 0.9921 0.0
H664 H 0.79797 0.2139 0.95508 0.0
H665 H 0.77097 0.19712 0.85783 0.0
C666 C 0.91786 0.4528 0.47042 0.0
C667 C 0.89951 0.4684 0.43853 0.0
C668 C 0.86376 0.41871 0.34185 0.0
C669 C 0.88529 0.40581 0.35867 0.0
N670 N 0.92107 0.40143 0.47588 0.0
N671 N 0.8646 0.47016 0.31427 0.0
C672 C 0.90908 0.42008 0.43422 0.0
C673 C 0.87462 0.45211 0.36732 0.0
N674 N 0.94511 0.47013 0.52852 0.0
N675 N 0.8334 0.39924 0.29819 0.0
H676 H 0.87813 0.49635 0.31682 0.0
H677 H 0.84693 0.45962 0.25914 0.0
H678 H 0.82464 0.37403 0.28159 0.0
H679 H 0.8159 0.40712 0.28922 0.0
H680 H 0.96075 0.46108 0.55014 0.0
H681 H 0.95425 0.49523 0.54579 0.0
H682 H 0.9357 0.40877 0.53803 0.0
H683 H 0.91315 0.37689 0.45403 0.0
C684 C 0.62777 0.44412 0.39422 0.0
C685 C 0.60477 0.45022 0.44723 0.0
C686 C 0.64019 0.51064 0.41044 0.0
C687 C 0.66287 0.50381 0.35969 0.0
N688 N 0.68535 0.46701 0.34255 0.0
N689 N 0.59628 0.4915 0.53125 0.0
C690 C 0.65913 0.47156 0.36657 0.0
C691 C 0.61308 0.48421 0.4632 0.0
N692 N 0.61903 0.41265 0.36246 0.0
N693 N 0.64399 0.54194 0.40696 0.0
H694 H 0.578 0.47331 0.57564 0.0
H695 H 0.60312 0.51593 0.55119 0.0
H696 H 0.66474 0.56214 0.37509 0.0
H697 H 0.62608 0.54746 0.43298 0.0
H698 H 0.63424 0.40811 0.31655 0.0
H699 H 0.59519 0.39182 0.37033 0.0
H700 H 0.68478 0.4443 0.35275 0.0
H701 H 0.70878 0.48711 0.32304 0.0
C702 C 0.60418 0.1824 0.49092 0.0
C703 C 0.61945 0.16459 0.4519 0.0
C704 C 0.57802 0.14422 0.32196 0.0
C705 C 0.56708 0.16675 0.34994 0.0
N706 N 0.57065 0.2088 0.45987 0.0
N707 N 0.62431 0.13384 0.31712 0.0
C708 C 0.58011 0.18605 0.43492 0.0
C709 C 0.60701 0.14649 0.36462 0.0
N710 N 0.61211 0.19518 0.58198 0.0
N711 N 0.5608 0.12068 0.25309 0.0
H712 H 0.64711 0.13679 0.34073 0.0
H713 H 0.61799 0.12372 0.24804 0.0
H714 H 0.54007 0.11907 0.21801 0.0
H715 H 0.56526 0.10105 0.23849 0.0
H716 H 0.59969 0.20575 0.61744 0.0
H717 H 0.62887 0.19224 0.62552 0.0
H718 H 0.58215 0.22643 0.51466 0.0
H719 H 0.55237 0.21114 0.42189 0.0
C720 C 0.62156 0.19672 0.88399 0.0
C721 C 0.60218 0.16923 0.94621 0.0
C722 C 0.64199 0.14898 0.91449 0.0
C723 C 0.66159 0.17773 0.85646 0.0
N724 N 0.67713 0.23506 0.82489 0.0
N725 N 0.59798 0.12221 0.03482 0.0
C726 C 0.65384 0.20375 0.85581 0.0
C727 C 0.61361 0.14618 0.96602 0.0
N728 N 0.60821 0.21454 0.84435 0.0
N729 N 0.64991 0.12417 0.91907 0.0
H730 H 0.57702 0.11908 0.07204 0.0
H731 H 0.60709 0.107 0.05985 0.0
H732 H 0.67136 0.12627 0.88732 0.0
H733 H 0.63473 0.10105 0.95175 0.0
H734 H 0.62092 0.23331 0.79337 0.0
H735 H 0.58294 0.2073 0.8512 0.0
H736 H 0.67325 0.25549 0.82871 0.0
H737 H 0.70152 0.24106 0.80619 0.0
C738 C 0.88887 0.46754 0.98474 0.0
C739 C 0.90403 0.44978 0.94527 0.0
C740 C 0.92039 0.48614 0.80389 0.0
C741 C 0.90063 0.50006 0.83571 0.0
N742 N 0.86352 0.50198 0.95436 0.0
N743 N 0.92996 0.43936 0.80811 0.0
C744 C 0.88446 0.49054 0.92625 0.0
C745 C 0.91902 0.45859 0.85297 0.0
N746 N 0.87958 0.46321 0.07898 0.0
N747 N 0.94113 0.4996 0.72665 0.0
H748 H 0.9291 0.41842 0.83903 0.0
H749 H 0.93706 0.44236 0.73602 0.0
H750 H 0.94203 0.51886 0.68522 0.0
H751 H 0.9604 0.49456 0.71223 0.0
H752 H 0.87237 0.47857 0.11406 0.0
H753 H 0.88253 0.44679 0.12398 0.0
H754 H 0.84787 0.49277 0.01416 0.0
H755 H 0.8601 0.51911 0.91415 0.0
C756 C 0.58503 0.46583 0.95378 0.0
C757 C 0.61561 0.46689 0.97867 0.0
C758 C 0.59782 0.41496 0.88882 0.0
C759 C 0.56846 0.41491 0.85645 0.0
N760 N 0.52869 0.43347 0.88703 0.0
N761 N 0.63692 0.43017 0.02051 0.0
C762 C 0.56022 0.43815 0.89825 0.0
C763 C 0.61763 0.43757 0.9623 0.0
N764 N 0.57923 0.49066 0.9842 0.0
N765 N 0.60751 0.39398 0.84926 0.0
H766 H 0.64814 0.44382 0.08308 0.0
H767 H 0.6373 0.40777 0.01497 0.0
H768 H 0.59376 0.37612 0.79686 0.0
H769 H 0.63067 0.39603 0.86468 0.0
H770 H 0.56055 0.49453 0.95543 0.0
H771 H 0.59273 0.50698 0.04018 0.0
H772 H 0.52 0.44738 0.92361 0.0
H773 H 0.51001 0.41366 0.84774 0.0
C774 C 0.52095 0.28146 0.21299 0.0
C775 C 0.50614 0.24919 0.25671 0.0
C776 C 0.49246 0.27231 0.39694 0.0
C777 C 0.51348 0.30549 0.36271 0.0
N778 N 0.54682 0.34187 0.23397 0.0
N779 N 0.48032 0.2149 0.39705 0.0
C780 C 0.52718 0.31018 0.2689 0.0
C781 C 0.49212 0.24474 0.34992 0.0
N782 N 0.52787 0.2844 0.117 0.0
N783 N 0.47163 0.26687 0.47288 0.0
H784 H 0.47987 0.19395 0.36699 0.0
H785 H 0.47358 0.21192 0.46945 0.0
H786 H 0.47099 0.28635 0.50922 0.0
H787 H 0.45223 0.24294 0.49082 0.0
H788 H 0.53555 0.30645 0.07872 0.0
H789 H 0.52208 0.26368 0.07377 0.0
H790 H 0.56118 0.34717 0.17172 0.0
H791 H 0.5498 0.36312 0.26957 0.0
C792 C 0.78789 0.25358 0.20707 0.0
C793 C 0.82034 0.27189 0.25029 0.0
C794 C 0.79795 0.23769 0.39515 0.0
C795 C 0.76457 0.22368 0.3589 0.0
N796 N 0.72745 0.21976 0.23105 0.0
N797 N 0.85483 0.28424 0.39295 0.0
C798 C 0.75941 0.23159 0.26432 0.0
C799 C 0.82512 0.26446 0.34589 0.0
N800 N 0.78441 0.25702 0.11099 0.0
N801 N 0.80381 0.22495 0.47675 0.0
H802 H 0.87577 0.30421 0.3612 0.0
H803 H 0.85779 0.28267 0.46669 0.0
H804 H 0.78472 0.20461 0.51328 0.0
H805 H 0.82782 0.23178 0.50136 0.0
H806 H 0.76224 0.24212 0.07298 0.0
H807 H 0.80473 0.27267 0.06751 0.0
H808 H 0.72199 0.22771 0.16704 0.0
H809 H 0.70617 0.20357 0.27065 0.0
C810 C 0.83126 0.54241 0.27219 0.0
C811 C 0.8435 0.55881 0.36151 0.0
C812 C 0.80744 0.58401 0.34314 0.0
C813 C 0.79874 0.57044 0.24863 0.0
N814 N 0.81011 0.54416 0.11508 0.0
N815 N 0.84581 0.5991 0.47773 0.0
C816 C 0.81389 0.55276 0.21 0.0
C817 C 0.83252 0.58102 0.39523 0.0
N818 N 0.83088 0.51329 0.25374 0.0
N819 N 0.79027 0.59758 0.3863 0.0
H820 H 0.86422 0.59769 0.51751 0.0
H821 H 0.84139 0.61807 0.50078 0.0
H822 H 0.77197 0.60068 0.35168 0.0
H823 H 0.79234 0.60347 0.45926 0.0
H824 H 0.82076 0.49915 0.1913 0.0
H825 H 0.83361 0.5003 0.31042 0.0
H826 H 0.82262 0.53307 0.08275 0.0
H827 H 0.79738 0.55136 0.06769 0.0
C828 C 0.42981 0.85737 0.16418 0.0
C829 C 0.4249 0.88509 0.17136 0.0
C830 C 0.47617 0.91796 0.07463 0.0
C831 C 0.48465 0.8922 0.0868 0.0
N832 N 0.471 0.84029 0.16962 0.0
N833 N 0.44183 0.94171 0.12653 0.0
C834 C 0.46171 0.86253 0.13804 0.0
C835 C 0.44747 0.91535 0.12365 0.0
N836 N 0.40402 0.82601 0.18581 0.0
N837 N 0.49474 0.9444 0.01502 0.0
H838 H 0.42004 0.93965 0.15574 0.0
H839 H 0.45892 0.96571 0.10218 0.0
H840 H 0.51615 0.94793 0.98001 0.0
H841 H 0.48762 0.96165 0.99442 0.0
H842 H 0.40543 0.80434 0.17481 0.0
H843 H 0.38013 0.82169 0.20394 0.0
H844 H 0.45593 0.82019 0.21462 0.0
H845 H 0.49515 0.84416 0.16273 0.0
C846 C 0.21578 0.60097 0.18779 0.0
C847 C 0.1951 0.56617 0.17086 0.0
C848 C 0.1642 0.57962 0.04975 0.0
C849 C 0.1809 0.61359 0.08317 0.0
N850 N 0.21561 0.6525 0.20666 0.0
N851 N 0.16032 0.52463 0.05376 0.0
C852 C 0.20487 0.62308 0.15817 0.0
C853 C 0.1721 0.55584 0.09245 0.0
N854 N 0.24637 0.613 0.23115 0.0
N855 N 0.14031 0.56999 0.97973 0.0
H856 H 0.16818 0.50831 0.07784 0.0
H857 H 0.14556 0.51605 0.99209 0.0
H858 H 0.13412 0.58668 0.94852 0.0
H859 H 0.12501 0.5453 0.95711 0.0
H860 H 0.26348 0.63861 0.23882 0.0
H861 H 0.25601 0.59738 0.24807 0.0
H862 H 0.23244 0.66006 0.26395 0.0
H863 H 0.20451 0.66715 0.19718 0.0
C864 C 0.47952 0.6183 0.0366 0.0
C865 C 0.46466 0.58511 0.07466 0.0
C866 C 0.50581 0.60691 0.20566 0.0
C867 C 0.51642 0.64039 0.17796 0.0
N868 N 0.51218 0.6784 0.06858 0.0
N869 N 0.46066 0.54934 0.20722 0.0
C870 C 0.50325 0.64628 0.09304 0.0
C871 C 0.47731 0.57968 0.16157 0.0
N872 N 0.47158 0.62304 0.94571 0.0
N873 N 0.52297 0.60105 0.27535 0.0
H874 H 0.43861 0.52887 0.18144 0.0
H875 H 0.46674 0.5455 0.2764 0.0
H876 H 0.5432 0.62042 0.31173 0.0
H877 H 0.51898 0.57713 0.28972 0.0
H878 H 0.48379 0.64612 0.91083 0.0
H879 H 0.45521 0.60319 0.9017 0.0
H880 H 0.50044 0.68422 0.01408 0.0
H881 H 0.53018 0.69926 0.10681 0.0
C882 C 0.59633 0.79697 0.77421 0.0
C883 C 0.57182 0.80703 0.76152 0.0
C884 C 0.53638 0.75455 0.67324 0.0
C885 C 0.56275 0.74718 0.67158 0.0
N886 N 0.61915 0.76249 0.71885 0.0
N887 N 0.52294 0.79838 0.67057 0.0
C888 C 0.59301 0.76852 0.72242 0.0
C889 C 0.54299 0.78653 0.70366 0.0
N890 N 0.62228 0.81373 0.83728 0.0
N891 N 0.50487 0.73114 0.64303 0.0
H892 H 0.52791 0.82268 0.68272 0.0
H893 H 0.50387 0.78556 0.62011 0.0
H894 H 0.49904 0.70755 0.61755 0.0
H895 H 0.48399 0.73409 0.65225 0.0
H896 H 0.63814 0.8049 0.85877 0.0
H897 H 0.62682 0.83534 0.87328 0.0
H898 H 0.64351 0.77988 0.74063 0.0
H899 H 0.61663 0.74035 0.69154 0.0
C900 C 0.28877 0.82621 0.63536 0.0
C901 C 0.3222 0.83908 0.66932 0.0
C902 C 0.29934 0.80744 0.81903 0.0
C903 C 0.26659 0.79023 0.77714 0.0
N904 N 0.23159 0.78022 0.63674 0.0
N905 N 0.35973 0.84079 0.79257 0.0
C906 C 0.26156 0.79909 0.68351 0.0
C907 C 0.32766 0.82975 0.76164 0.0
N908 N 0.28291 0.84023 0.55678 0.0
N909 N 0.30323 0.80285 0.91409 0.0
H910 H 0.38082 0.85748 0.75302 0.0
H911 H 0.36541 0.83187 0.85431 0.0
H912 H 0.28297 0.78737 0.95811 0.0
H913 H 0.32579 0.81675 0.95123 0.0
H914 H 0.25889 0.83456 0.53549 0.0
H915 H 0.30217 0.86031 0.51994 0.0
H916 H 0.22828 0.78313 0.56399 0.0
H917 H 0.21085 0.75956 0.66696 0.0
C918 C 0.27297 0.5382 0.67876 0.0
C919 C 0.2386 0.51335 0.68059 0.0
C920 C 0.25327 0.48082 0.79138 0.0
C921 C 0.28799 0.5025 0.77032 0.0
N922 N 0.32784 0.54511 0.66253 0.0
N923 N 0.19557 0.45923 0.73863 0.0
C924 C 0.29707 0.5295 0.70566 0.0
C925 C 0.22842 0.48413 0.73761 0.0
N926 N 0.28269 0.56982 0.64714 0.0
N927 N 0.24396 0.458 0.86397 0.0
H928 H 0.17661 0.46176 0.70608 0.0
H929 H 0.1875 0.4357 0.76882 0.0
H930 H 0.26132 0.45554 0.90611 0.0
H931 H 0.21923 0.44373 0.88778 0.0
H932 H 0.30768 0.58926 0.64949 0.0
H933 H 0.26524 0.57711 0.62914 0.0
H934 H 0.33445 0.56354 0.61012 0.0
H935 H 0.34452 0.53616 0.66848 0.0
C936 C 0.28712 0.52919 0.21047 0.0
C937 C 0.26554 0.50079 0.26752 0.0
C938 C 0.30213 0.47731 0.22815 0.0
C939 C 0.32494 0.5076 0.18002 0.0
N940 N 0.34438 0.5665 0.16174 0.0
N941 N 0.25788 0.45087 0.34787 0.0
C942 C 0.31931 0.53501 0.18528 0.0
C943 C 0.27455 0.4756 0.28167 0.0
N944 N 0.27609 0.54929 0.17271 0.0
N945 N 0.30603 0.44995 0.22085 0.0
H946 H 0.23865 0.44948 0.39067 0.0
H947 H 0.26538 0.43372 0.36662 0.0
H948 H 0.32682 0.45099 0.18781 0.0
H949 H 0.28792 0.4261 0.24399 0.0
H950 H 0.29057 0.56898 0.12578 0.0
H951 H 0.25104 0.54322 0.17606 0.0
H952 H 0.34188 0.58767 0.16989 0.0
H953 H 0.36858 0.57152 0.14469 0.0
C954 C 0.56166 0.80177 0.31509 0.0
C955 C 0.57683 0.7846 0.27147 0.0
C956 C 0.59263 0.82287 0.13432 0.0
C957 C 0.57215 0.83557 0.16878 0.0
N958 N 0.53791 0.83803 0.29531 0.0
N959 N 0.60317 0.77656 0.13134 0.0
C960 C 0.55717 0.82557 0.26072 0.0
C961 C 0.59179 0.79484 0.17947 0.0
N962 N 0.55276 0.79634 0.40978 0.0
N963 N 0.61366 0.83819 0.05888 0.0
H964 H 0.6024 0.75527 0.15949 0.0
H965 H 0.61049 0.78074 0.05944 0.0
H966 H 0.61484 0.8587 0.02374 0.0
H967 H 0.63242 0.83293 0.03955 0.0
H968 H 0.54438 0.81013 0.44835 0.0
H969 H 0.55705 0.78031 0.45233 0.0
H970 H 0.52115 0.827 0.35194 0.0
H971 H 0.53786 0.85859 0.26456 0.0
C972 C 0.28732 0.77242 0.28653 0.0
C973 C 0.28537 0.80187 0.30264 0.0
C974 C 0.22888 0.77205 0.22838 0.0
C975 C 0.2366 0.74852 0.18672 0.0
N976 N 0.2753 0.72745 0.17604 0.0
N977 N 0.24892 0.82587 0.30659 0.0
C978 C 0.26638 0.74894 0.21605 0.0
C979 C 0.25443 0.80053 0.27951 0.0
N980 N 0.30769 0.76574 0.34228 0.0
N981 N 0.19699 0.76673 0.22168 0.0
H982 H 0.26274 0.84325 0.35991 0.0
H983 H 0.22995 0.82916 0.27714 0.0
H984 H 0.17766 0.74552 0.1888 0.0
H985 H 0.18879 0.78115 0.25775 0.0
H986 H 0.30815 0.74339 0.33693 0.0
H987 H 0.31983 0.77993 0.40327 0.0
H988 H 0.29863 0.72951 0.18858 0.0
H989 H 0.26053 0.7091 0.12582 0.0
C990 C 0.16023 0.61431 0.70445 0.0
C991 C 0.18529 0.6477 0.68207 0.0
C992 C 0.20225 0.62625 0.54423 0.0
C993 C 0.18078 0.59265 0.57635 0.0
N994 N 0.14467 0.55599 0.70233 0.0
N995 N 0.23201 0.68586 0.58435 0.0
C996 C 0.16076 0.5869 0.65966 0.0
C997 C 0.20669 0.65386 0.60232 0.0
N998 N 0.13601 0.60866 0.77031 0.0
N999 N 0.21787 0.6318 0.45731 0.0
H1000 H 0.23498 0.70657 0.62335 0.0
H1001 H 0.25117 0.69169 0.53496 0.0
H1002 H 0.21406 0.61239 0.41101 0.0
H1003 H 0.23214 0.65555 0.4275 0.0
H1004 H 0.11453 0.58525 0.77984 0.0
H1005 H 0.13614 0.62795 0.80948 0.0
H1006 H 0.13271 0.55162 0.76869 0.0
H1007 H 0.14642 0.53549 0.67848 0.0
C1008 C 0.43421 0.59376 0.68047 0.0
C1009 C 0.42468 0.55935 0.67679 0.0
C1010 C 0.47198 0.57453 0.56531 0.0
C1011 C 0.4843 0.60922 0.58447 0.0
N1012 N 0.48209 0.64902 0.69314 0.0
N1013 N 0.43691 0.51704 0.6192 0.0
C1014 C 0.46669 0.61808 0.65083 0.0
C1015 C 0.44404 0.54958 0.61939 0.0
N1016 N 0.41273 0.60349 0.71599 0.0
N1017 N 0.48631 0.56524 0.49488 0.0
H1018 H 0.41573 0.4978 0.6521 0.0
H1019 H 0.45291 0.50948 0.58987 0.0
H1020 H 0.50714 0.58254 0.4561 0.0
H1021 H 0.47608 0.54058 0.47063 0.0
H1022 H 0.41803 0.62832 0.71331 0.0
H1023 H 0.38847 0.58635 0.7388 0.0
H1024 H 0.47069 0.65589 0.74629 0.0
H1025 H 0.50771 0.66579 0.68535 0.0
C1026 C 0.47629 0.91328 0.67197 0.0
C1027 C 0.46662 0.89831 0.57954 0.0
C1028 C 0.50964 0.88133 0.58988 0.0
C1029 C 0.51812 0.89529 0.68366 0.0
N1030 N 0.51948 0.93614 0.79381 0.0
N1031 N 0.47945 0.87536 0.44064 0.0
C1032 C 0.50458 0.91497 0.71795 0.0
C1033 C 0.48491 0.88443 0.53544 0.0
N1034 N 0.45723 0.92383 0.71965 0.0
N1035 N 0.52481 0.86482 0.55332 0.0
H1036 H 0.46226 0.87814 0.39864 0.0
H1037 H 0.49379 0.86783 0.40135 0.0
H1038 H 0.54624 0.86653 0.58418 0.0
H1039 H 0.51584 0.84914 0.49361 0.0
H1040 H 0.46117 0.93118 0.79165 0.0
H1041 H 0.43561 0.92233 0.69105 0.0
H1042 H 0.51362 0.95449 0.81315 0.0
H1043 H 0.54033 0.93797 0.82907 0.0
C1044 C 0.10147 0.36546 0.68879 0.0
C1045 C 0.10406 0.33785 0.65489 0.0
C1046 C 0.13736 0.37376 0.51727 0.0
C1047 C 0.12826 0.39809 0.54138 0.0
N1048 N 0.09052 0.40883 0.63742 0.0
N1049 N 0.12076 0.31513 0.52183 0.0
C1050 C 0.10726 0.39165 0.62388 0.0
C1051 C 0.12097 0.34185 0.5647 0.0
N1052 N 0.09268 0.36681 0.78163 0.0
N1053 N 0.1622 0.38101 0.45192 0.0
H1054 H 0.10917 0.29146 0.55223 0.0
H1055 H 0.12955 0.31595 0.45222 0.0
H1056 H 0.17572 0.40426 0.41846 0.0
H1057 H 0.17179 0.3651 0.43908 0.0
H1058 H 0.09308 0.38801 0.80998 0.0
H1059 H 0.0886 0.3487 0.83267 0.0
H1060 H 0.07342 0.40343 0.69315 0.0
H1061 H 0.08995 0.42484 0.58579 0.0
C1062 C 0.72914 0.80365 0.59958 0.0
C1063 C 0.7365 0.7844 0.66494 0.0
C1064 C 0.68846 0.73314 0.60219 0.0
C1065 C 0.6792 0.75184 0.5404 0.0
N1066 N 0.68798 0.80597 0.4936 0.0
N1067 N 0.7148 0.73261 0.75166 0.0
C1068 C 0.69882 0.78755 0.54263 0.0
C1069 C 0.71344 0.74979 0.67377 0.0
N1070 N 0.75093 0.83739 0.5935 0.0
N1071 N 0.67439 0.69926 0.59001 0.0
H1072 H 0.73248 0.74397 0.80645 0.0
H1073 H 0.69596 0.70809 0.76656 0.0
H1074 H 0.65782 0.68621 0.53408 0.0
H1075 H 0.68234 0.68502 0.62808 0.0
H1076 H 0.74894 0.85281 0.54256 0.0
H1077 H 0.77191 0.84976 0.63836 0.0
H1078 H 0.69917 0.83195 0.49931 0.0
H1079 H 0.66628 0.79494 0.45141 0.0
C1080 C 0.30207 0.95913 0.69309 0.0
C1081 C 0.28536 0.97323 0.64215 0.0
C1082 C 0.30184 0.95698 0.4894 0.0
C1083 C 0.31597 0.94048 0.54105 0.0
N1084 N 0.31659 0.91567 0.69409 0.0
N1085 N 0.26351 0.97684 0.48448 0.0
C1086 C 0.31194 0.93832 0.64339 0.0
C1087 C 0.28319 0.96922 0.53923 0.0
N1088 N 0.31112 0.96725 0.78718 0.0
N1089 N 0.30606 0.96183 0.39227 0.0
H1090 H 0.24703 0.98398 0.51173 0.0
H1091 H 0.24703 0.98398 0.51173 0.0
H1092 H 0.32101 0.95585 0.35046 0.0
H1093 H 0.29609 0.97421 0.35348 0.0
H1094 H 0.32619 0.95988 0.82349 0.0
H1095 H 0.30754 0.98461 0.82561 0.0
H1096 H 0.31109 0.9112 0.76715 0.0
H1097 H 0.32156 0.89841 0.66099 0.0
C1098 C 0.37035 0.08312 0.84366 0.0
C1099 C 0.34558 0.09128 0.87031 0.0
C1100 C 0.38363 0.12774 0.99966 0.0
C1101 C 0.40643 0.11625 0.98023 0.0
N1102 N 0.41434 0.07371 0.90184 0.0
N1103 N 0.3255 0.11354 0.99492 0.0
C1104 C 0.39786 0.09143 0.90685 0.0
C1105 C 0.35131 0.11142 0.9544 0.0
N1106 N 0.36713 0.06622 0.75982 0.0
N1107 N 0.39274 0.15454 0.05934 0.0
H1108 H 0.30113 0.09986 0.96881 0.0
H1109 H 0.32757 0.12547 0.06047 0.0
H1110 H 0.41625 0.16751 0.09235 0.0
H1111 H 0.37806 0.16572 0.06842 0.0
H1112 H 0.38615 0.06247 0.73288 0.0
H1113 H 0.34692 0.05869 0.71286 0.0
H1114 H 0.40708 0.0533 0.85581 0.0
H1115 H 0.4322 0.07628 0.95237 0.0
C1116 C 0.95402 0.25828 0.92011 0.0
C1117 C 0.98161 0.27834 0.85838 0.0
C1118 C 0.98723 0.32907 0.93311 0.0
C1119 C 0.9582 0.30971 0.99049 0.0
N1120 N 0.91297 0.25534 0.03712 0.0
N1121 N 1.01743 0.33222 0.78766 0.0
C1122 C 0.94124 0.27401 0.9837 0.0
C1123 C 0.99586 0.31352 0.85906 0.0
N1124 N 0.94012 0.2242 0.91692 0.0
N1125 N 1.00768 0.36243 0.95272 0.0
H1126 H 1.02385 0.32146 0.73149 0.0
H1127 H 1.02574 0.35766 0.77867 0.0
H1128 H 1.00345 0.37407 1.0111 0.0
H1129 H 0.03075 0.37729 0.91898 0.0
H1130 H 0.92148 0.20758 0.96333 0.0
H1131 H 0.94807 0.21246 0.86772 0.0
H1132 H 0.89749 0.22948 0.03043 0.0
H1133 H 0.90437 0.26607 0.08748 0.0
C1134 C 0.76483 0.69682 0.82483 0.0
C1135 C 0.79793 0.72173 0.84822 0.0
C1136 C 0.79737 0.68574 0.98163 0.0
C1137 C 0.762 0.66427 0.96908 0.0
N1138 N 0.71134 0.65418 0.88545 0.0
N1139 N 0.84838 0.7379 0.93729 0.0
C1140 C 0.74565 0.67113 0.89223 0.0
C1141 C 0.81498 0.71555 0.92377 0.0
N1142 N 0.75174 0.69697 0.73695 0.0
N1143 N 0.81418 0.67721 0.04627 0.0
H1144 H 0.86181 0.75839 0.89175 0.0
H1145 H 0.86291 0.73647 0.99226 0.0
H1146 H 0.80226 0.6558 0.08882 0.0
H1147 H 0.84013 0.69015 0.0551 0.0
H1148 H 0.72898 0.6771 0.71222 0.0
H1149 H 0.76517 0.71496 0.68477 0.0
H1150 H 0.69836 0.6605 0.83622 0.0
H1151 H 0.69555 0.63632 0.93499 0.0
C1152 C 0.98335 0.6918 0.51811 0.0
C1153 C 0.95151 0.66562 0.48708 0.0
C1154 C 0.95305 0.70323 0.3567 0.0
C1155 C 0.9868 0.72719 0.37967 0.0
N1156 N 0.03696 0.73673 0.46439 0.0
N1157 N 0.91112 0.64441 0.35629 0.0
C1158 C 1.00272 0.71944 0.45581 0.0
C1159 C 0.93776 0.67075 0.40044 0.0
N1160 N 0.99609 0.68998 0.60511 0.0
N1161 N 0.93511 0.71131 0.29515 0.0
H1162 H 0.90066 0.62006 0.38153 0.0
H1163 H 0.9021 0.64624 0.28913 0.0
H1164 H 0.94503 0.73489 0.26352 0.0
H1165 H 0.90941 0.69561 0.28338 0.0
H1166 H 1.01787 0.71005 0.63412 0.0
H1167 H 0.98363 0.6698 0.6519 0.0
H1168 H 0.04987 0.73014 0.51315 0.0
H1169 H 0.05263 0.75437 0.41414 0.0
C1170 C 0.34461 0.26938 0.47724 0.0
C1171 C 0.34338 0.27229 0.3749 0.0
C1172 C 0.40499 0.29849 0.37689 0.0
C1173 C 0.40624 0.30346 0.47877 0.0
N1174 N 0.37381 0.29736 0.62274 0.0
N1175 N 0.37626 0.29635 0.22983 0.0
C1176 C 0.37513 0.28979 0.52842 0.0
C1177 C 0.3746 0.2885 0.32503 0.0
N1178 N 0.3169 0.24646 0.52649 0.0
N1179 N 0.43259 0.30239 0.32895 0.0
H1180 H 0.3556 0.29146 0.18793 0.0
H1181 H 0.39906 0.31123 0.19475 0.0
H1182 H 0.45447 0.30729 0.36434 0.0
H1183 H 0.43204 0.29633 0.25641 0.0
H1184 H 0.31753 0.24168 0.5995 0.0
H1185 H 0.29478 0.22926 0.49233 0.0
H1186 H 0.35115 0.29034 0.65757 0.0
H1187 H 0.39472 0.31358 0.66344 0.0
C1188 C 0.79933 0.11508 0.3437 0.0
C1189 C 0.79224 0.08272 0.37292 0.0
C1190 C 0.76709 0.09004 0.52187 0.0
C1191 C 0.76799 0.11904 0.48442 0.0
N1192 N 0.78163 0.15624 0.34736 0.0
N1193 N 0.75899 0.03581 0.48028 0.0
C1194 C 0.78309 0.13065 0.39157 0.0
C1195 C 0.77318 0.06921 0.45932 0.0
N1196 N 0.82247 0.13183 0.2734 0.0
N1197 N 0.76007 0.08162 0.61647 0.0
H1198 H 0.75982 1.01838 0.43434 0.0
H1199 H 0.74263 0.02464 0.53792 0.0
H1200 H 0.7556 0.09576 0.66631 0.0
H1201 H 0.76222 0.06218 0.64747 0.0
H1202 H 0.83104 0.15691 0.25677 0.0
H1203 H 0.83572 0.12202 0.23875 0.0
H1204 H 0.78878 0.16303 0.2761 0.0
H1205 H 0.77093 0.16893 0.37934 0.0
C1206 C 0.69908 0.92541 0.04546 0.0
C1207 C 0.6814 0.94327 0.03666 0.0
C1208 C 0.7177 0.98278 0.16256 0.0
C1209 C 0.73681 0.96648 0.16799 0.0
N1210 N 0.7477 0.92373 0.10952 0.0
N1211 N 0.681 0.99461 0.06715 0.0
C1212 C 0.72794 0.93807 0.1079 0.0
C1213 C 0.69286 0.97357 0.08977 0.0
N1214 N 0.6882 0.89636 0.99477 0.0
N1215 N 0.72339 1.00744 0.22722 0.0
H1216 H 0.66404 0.98961 1.01126 0.0
H1217 H 0.69079 0.01867 0.09574 0.0
H1218 H 0.74144 1.01487 0.28099 0.0
H1219 H 0.70805 1.01797 0.2338 0.0
H1220 H 0.69724 0.87993 1.00493 0.0
H1221 H 0.6692 0.88826 0.94339 0.0
H1222 H 0.74529 0.90528 0.0615 0.0
H1223 H 0.76766 0.93143 0.15777 0.0
C1224 C 0.08117 0.74947 0.12806 0.0
C1225 C 0.10079 0.78219 0.1673 0.0
C1226 C 0.15002 0.7882 0.07749 0.0
C1227 C 0.12925 0.75664 0.03183 0.0
N1228 N 0.07379 0.71015 1.00123 0.0
N1229 N 0.15419 0.83273 0.1828 0.0
C1230 C 0.09442 0.73828 0.05349 0.0
C1231 C 0.13542 0.8016 0.14293 0.0
N1232 N 0.04998 0.72855 0.1651 0.0
N1233 N 0.18379 0.80482 0.05975 0.0
H1234 H 0.14483 0.84122 0.23767 0.0
H1235 H 0.17856 0.85008 0.16175 0.0
H1236 H 0.19457 0.79616 1.00955 0.0
H1237 H 0.20123 0.82631 0.09636 0.0
H1238 H 0.03534 0.7033 0.1464 0.0
H1239 H 0.04048 0.73554 0.22314 0.0
H1240 H 0.04768 0.69726 1.0067 0.0
H1241 H 0.08267 0.70174 0.94501 0.0
C1242 C 0.32131 0.35286 0.14244 0.0
C1243 C 0.28609 0.33481 0.15544 0.0
C1244 C 0.28149 0.37606 0.05239 0.0
C1245 C 0.31638 0.3916 0.03052 0.0
N1246 N 0.36798 0.38995 0.04189 0.0
N1247 N 0.23175 0.32757 0.11913 0.0
C1248 C 0.33572 0.37844 0.07181 0.0
C1249 C 0.26586 0.34598 0.10938 0.0
N1250 N 0.34123 0.34603 0.1999 0.0
N1251 N 0.26365 0.39068 0.02196 0.0
H1252 H 0.22003 0.30647 0.16335 0.0
H1253 H 0.21516 0.33206 0.07978 0.0
H1254 H 0.2742 0.41207 0.97891 0.0
H1255 H 0.23915 0.38284 0.0438 0.0
H1256 H 0.36738 0.36049 0.20076 0.0
H1257 H 0.33144 0.32819 0.25455 0.0
H1258 H 0.38199 0.37879 0.06127 0.0
H1259 H 0.37965 0.40851 0.99005 0.0
C1260 C 0.04179 0.44834 0.16351 0.0
C1261 C 1.01048 0.43063 0.21264 0.0
C1262 C 0.04145 0.44573 0.36714 0.0
C1263 C 0.07274 0.46269 0.31821 0.0
N1264 N 0.0982 0.49557 0.17627 0.0
N1265 N 0.98405 0.43323 0.35922 0.0
C1266 C 0.07161 0.46866 0.2181 0.0
C1267 C 1.01131 0.4355 0.31407 0.0
N1268 N 0.04416 0.4462 0.06628 0.0
N1269 N 0.03945 0.43859 0.46279 0.0
H1270 H 0.96314 0.42996 0.32075 0.0
H1271 H 0.98498 0.44019 0.43099 0.0
H1272 H 0.06009 0.44604 0.50728 0.0
H1273 H 1.01648 0.42324 0.49665 0.0
H1274 H 0.06735 0.45611 0.0317 0.0
H1275 H 1.02382 0.43356 0.02025 0.0
H1276 H 0.09694 0.50315 0.10658 0.0
H1277 H 0.11892 0.51288 0.21637 0.0
C1278 C 0.66393 0.64229 0.20486 0.0
C1279 C 0.64689 0.60692 0.19402 0.0
C1280 C 0.60491 0.60214 0.31439 0.0
C1281 C 0.62293 0.6376 0.32653 0.0
N1282 N 0.67503 0.68952 0.30604 0.0
N1283 N 0.6027 0.55248 0.24287 0.0
C1284 C 0.65403 0.65701 0.27815 0.0
C1285 C 0.61769 0.58661 0.25019 0.0
N1286 N 0.68991 0.66202 0.14485 0.0
N1287 N 0.57582 0.58348 0.36443 0.0
H1288 H 0.61085 0.54088 0.19385 0.0
H1289 H 0.58311 0.53562 0.28638 0.0
H1290 H 0.56751 0.59407 0.41614 0.0
H1291 H 0.55961 0.5579 0.35417 0.0
H1292 H 0.70109 0.68806 0.14193 0.0
H1293 H 0.69813 0.65205 0.09138 0.0
H1294 H 0.69949 0.70421 0.28076 0.0
H1295 H 0.66939 0.70046 0.36329 0.0
C1296 C 0.41657 1.0185 0.29816 0.0
C1297 C 0.43372 1.00064 0.31423 0.0
C1298 C 0.47868 0.03939 0.20334 0.0
C1299 C 0.46049 0.05628 0.1854 0.0
N1300 N 0.40759 0.05485 0.19251 0.0
N1301 N 0.48109 0.9934 0.2842 0.0
C1302 C 0.42806 0.0436 0.22608 0.0
C1303 C 0.46491 1.01094 0.26725 0.0
N1304 N 0.38963 1.01206 0.35438 0.0
N1305 N 0.5087 0.05037 0.15796 0.0
H1306 H 0.47182 0.97339 0.33243 0.0
H1307 H 0.50322 0.99807 0.25078 0.0
H1308 H 0.5177 0.06951 0.10699 0.0
H1309 H 0.52455 0.0407 0.16913 0.0
H1310 H 0.37788 0.02637 0.35265 0.0
H1311 H 0.38145 0.99472 0.4104 0.0
H1312 H 0.38253 0.04463 0.21275 0.0
H1313 H 0.41454 0.07149 0.13513 0.0
C1314 C 0.60812 0.02169 0.82536 0.0
C1315 C 0.62483 1.00271 0.82929 0.0
C1316 C 0.66304 0.03829 0.70066 0.0
C1317 C 0.6491 0.05943 0.70343 0.0
N1318 N 0.60841 0.0721 0.76858 0.0
N1319 N 0.67462 1.00021 0.78852 0.0
C1320 C 0.62159 0.05135 0.76619 0.0
C1321 C 0.65417 1.01326 0.77204 0.0
N1322 N 0.57922 1.01111 0.87641 0.0
N1323 N 0.68448 0.04166 0.62816 0.0
H1324 H 0.67023 0.98321 0.84355 0.0
H1325 H 0.6979 1.00924 0.75528 0.0
H1326 H 0.69101 0.05934 0.57357 0.0
H1327 H 0.69258 0.02448 0.61646 0.0
H1328 H 0.56368 0.02135 0.86964 0.0
H1329 H 0.57012 0.99098 0.92385 0.0
H1330 H 0.5903 0.06983 0.8176 0.0
H1331 H 0.61675 0.09267 0.7227 0.0
C1332 C 0.06452 0.65837 0.73163 0.0
C1333 C 0.07275 0.64286 0.80794 0.0
C1334 C 1.01642 0.59333 0.78638 0.0
C1335 C 1.01092 0.6066 0.69943 0.0
N1336 N 0.03477 0.65099 0.58176 0.0
N1337 N 0.05759 0.591 0.89004 0.0
C1338 C 0.03687 0.63855 0.66882 0.0
C1339 C 0.04911 0.60891 0.8298 0.0
N1340 N 0.08122 0.69257 0.72328 0.0
N1341 N 0.99024 0.56701 0.83164 0.0
H1342 H 0.08136 0.60084 0.92076 0.0
H1343 H 0.04202 0.56528 0.90088 0.0
H1344 H 0.96563 0.55672 0.80806 0.0
H1345 H 0.99252 0.55834 0.89881 0.0
H1346 H 0.07418 0.70505 0.67443 0.0
H1347 H 0.09881 0.70863 0.7735 0.0
H1348 H 0.05459 0.67291 0.55303 0.0
H1349 H 1.01462 0.63811 0.53471 0.0
C1350 C 0.48256 0.45525 0.73496 0.0
C1351 C 0.46333 0.42429 0.68517 0.0
C1352 C 0.41181 0.41774 0.75849 0.0
C1353 C 0.43046 0.4494 0.80601 0.0
N1354 N 0.48313 0.50104 0.82532 0.0
N1355 N 0.40931 0.38162 0.62789 0.0
C1356 C 0.46582 0.46898 0.79038 0.0
C1357 C 0.42785 0.40739 0.69037 0.0
N1358 N 0.5168 0.47124 0.73 0.0
N1359 N 0.37871 0.39681 0.78062 0.0
H1360 H 0.42043 0.37428 0.5751 0.0
H1361 H 0.38329 0.37023 0.62108 0.0
H1362 H 0.36567 0.40296 0.83006 0.0
H1363 H 0.365 0.37199 0.757 0.0
H1364 H 0.53272 0.49203 0.77183 0.0
H1365 H 0.52926 0.4624 0.68677 0.0
H1366 H 0.50813 0.51792 0.80861 0.0
H1367 H 0.47177 0.51152 0.86658 0.0
loop_
_geom_bond_atom_site_label_1
_geom_bond_atom_site_label_2
_geom_bond_distance
_geom_bond_site_symmetry_2
_ccdc_geom_bond_type
Fe0 O2 1.918 . S
Fe0 O5 1.997 1_455 S
Fe0 O6 2.002 1_455 S
Fe0 O11 1.976 . S
Fe0 O14 1.996 . S
Fe1 O2 1.918 . S
Fe1 O9 1.997 1_455 S
Fe1 O12 1.996 . S
Fe1 O16 1.976 . S
Fe1 O19 2.002 1_455 S
O2 Fe0 1.918 . S
O2 Fe1 1.918 . S
O2 Fe3 1.918 . S
Fe3 O2 1.918 . S
Fe3 O4 2.002 1_455 S
Fe3 O13 1.976 . S
Fe3 O17 1.996 . S
Fe3 O20 1.997 1_455 S
O4 Fe3 2.002 1_655 S
O4 C21 1.295 . S
O5 Fe0 1.997 1_655 S
O5 C21 1.235 . S
O6 Fe0 2.002 1_655 S
O6 C7 1.295 . S
C7 O6 1.295 . S
C7 O9 1.235 . S
C8 O13 1.287 . S
C8 O14 1.255 . S
O9 Fe1 1.997 1_655 S
O9 C7 1.235 . S
C10 O16 1.287 . S
C10 O17 1.255 . S
O11 Fe0 1.976 . S
O11 C18 1.287 . S
O12 Fe1 1.996 . S
O12 C18 1.255 . S
O13 Fe3 1.976 . S
O13 C8 1.287 . S
O14 Fe0 1.996 . S
O14 C8 1.255 . S
C15 O19 1.295 . S
C15 O20 1.235 . S
O16 Fe1 1.976 . S
O16 C10 1.287 . S
O17 Fe3 1.996 . S
O17 C10 1.255 . S
C18 O11 1.287 . S
C18 O12 1.255 . S
O19 Fe1 2.002 1_655 S
O19 C15 1.295 . S
O20 Fe3 1.997 1_655 S
O20 C15 1.235 . S
C21 O4 1.295 . S
C21 O5 1.235 . S
Fe22 O24 1.918 . S
Fe22 O27 1.997 . S
Fe22 O28 2.002 . S
Fe22 O33 1.976 . S
Fe22 O36 1.996 . S
Fe23 O24 1.918 . S
Fe23 O31 1.997 . S
Fe23 O34 1.996 . S
Fe23 O38 1.976 . S
Fe23 O41 2.002 . S
O24 Fe22 1.918 . S
O24 Fe23 1.918 . S
O24 Fe25 1.918 . S
Fe25 O24 1.918 . S
Fe25 O26 2.002 . S
Fe25 O35 1.976 . S
Fe25 O39 1.996 . S
Fe25 O42 1.997 . S
O26 Fe25 2.002 . S
O26 C43 1.295 . S
O27 Fe22 1.997 . S
O27 C43 1.235 . S
O28 Fe22 2.002 . S
O28 C29 1.295 . S
C29 O28 1.295 . S
C29 O31 1.235 . S
C30 O35 1.287 . S
C30 O36 1.255 . S
O31 Fe23 1.997 . S
O31 C29 1.235 . S
C32 O38 1.287 . S
C32 O39 1.255 . S
O33 Fe22 1.976 . S
O33 C40 1.287 . S
O34 Fe23 1.996 . S
O34 C40 1.255 . S
O35 Fe25 1.976 . S
O35 C30 1.287 . S
O36 Fe22 1.996 . S
O36 C30 1.255 . S
C37 O41 1.295 . S
C37 O42 1.235 . S
O38 Fe23 1.976 . S
O38 C32 1.287 . S
O39 Fe25 1.996 . S
O39 C32 1.255 . S
C40 O33 1.287 . S
C40 O34 1.255 . S
O41 Fe23 2.002 . S
O41 C37 1.295 . S
O42 Fe25 1.997 . S
O42 C37 1.235 . S
C43 O26 1.295 . S
C43 O27 1.235 . S
Fe44 O46 1.918 . S
Fe44 O49 1.997 1_545 S
Fe44 O50 2.002 1_545 S
Fe44 O55 1.976 . S
Fe44 O58 1.996 . S
Fe45 O46 1.918 . S
Fe45 O53 1.997 1_545 S
Fe45 O56 1.996 . S
Fe45 O60 1.976 . S
Fe45 O63 2.002 1_545 S
O46 Fe44 1.918 . S
O46 Fe45 1.918 . S
O46 Fe47 1.918 . S
Fe47 O46 1.918 . S
Fe47 O48 2.002 1_545 S
Fe47 O57 1.976 . S
Fe47 O61 1.996 . S
Fe47 O64 1.997 1_545 S
O48 Fe47 2.002 1_565 S
O48 C65 1.295 . S
O49 Fe44 1.997 1_565 S
O49 C65 1.235 . S
O50 Fe44 2.002 1_565 S
O50 C51 1.295 . S
C51 O50 1.295 . S
C51 O53 1.235 . S
C52 O57 1.287 . S
C52 O58 1.255 . S
O53 Fe45 1.997 1_565 S
O53 C51 1.235 . S
C54 O60 1.287 . S
C54 O61 1.255 . S
O55 Fe44 1.976 . S
O55 C62 1.287 . S
O56 Fe45 1.996 . S
O56 C62 1.255 . S
O57 Fe47 1.976 . S
O57 C52 1.287 . S
O58 Fe44 1.996 . S
O58 C52 1.255 . S
C59 O63 1.295 . S
C59 O64 1.235 . S
O60 Fe45 1.976 . S
O60 C54 1.287 . S
O61 Fe47 1.996 . S
O61 C54 1.255 . S
C62 O55 1.287 . S
C62 O56 1.255 . S
O63 Fe45 2.002 1_565 S
O63 C59 1.295 . S
O64 Fe47 1.997 1_565 S
O64 C59 1.235 . S
C65 O48 1.295 . S
C65 O49 1.235 . S
Fe66 O68 1.918 . S
Fe66 O71 1.997 . S
Fe66 O72 2.002 . S
Fe66 O77 1.976 1_455 S
Fe66 O80 1.996 1_455 S
Fe67 O68 1.918 . S
Fe67 O75 1.997 . S
Fe67 O78 1.996 1_455 S
Fe67 O82 1.976 1_455 S
Fe67 O85 2.002 . S
O68 Fe66 1.918 . S
O68 Fe67 1.918 . S
O68 Fe69 1.918 . S
Fe69 O68 1.918 . S
Fe69 O70 2.002 . S
Fe69 O79 1.976 1_455 S
Fe69 O83 1.996 1_455 S
Fe69 O86 1.997 . S
O70 Fe69 2.002 . S
O70 C87 1.295 . S
O71 Fe66 1.997 . S
O71 C87 1.235 . S
O72 Fe66 2.002 . S
O72 C73 1.295 . S
C73 O72 1.295 . S
C73 O75 1.235 . S
C74 O79 1.287 . S
C74 O80 1.255 . S
O75 Fe67 1.997 . S
O75 C73 1.235 . S
C76 O82 1.287 . S
C76 O83 1.255 . S
O77 Fe66 1.976 1_655 S
O77 C84 1.287 . S
O78 Fe67 1.996 1_655 S
O78 C84 1.255 . S
O79 Fe69 1.976 1_655 S
O79 C74 1.287 . S
O80 Fe66 1.996 1_655 S
O80 C74 1.255 . S
C81 O85 1.295 . S
C81 O86 1.235 . S
O82 Fe67 1.976 1_655 S
O82 C76 1.287 . S
O83 Fe69 1.996 1_655 S
O83 C76 1.255 . S
C84 O77 1.287 . S
C84 O78 1.255 . S
O85 Fe67 2.002 . S
O85 C81 1.295 . S
O86 Fe69 1.997 . S
O86 C81 1.235 . S
C87 O70 1.295 . S
C87 O71 1.235 . S
Fe88 O90 1.918 . S
Fe88 O93 1.997 . S
Fe88 O94 2.002 . S
Fe88 O99 1.976 . S
Fe88 O102 1.996 . S
Fe89 O90 1.918 . S
Fe89 O97 1.997 . S
Fe89 O100 1.996 . S
Fe89 O104 1.976 . S
Fe89 O107 2.002 . S
O90 Fe88 1.918 . S
O90 Fe89 1.918 . S
O90 Fe91 1.918 . S
Fe91 O90 1.918 . S
Fe91 O92 2.002 . S
Fe91 O101 1.976 . S
Fe91 O105 1.996 . S
Fe91 O108 1.997 . S
O92 Fe91 2.002 . S
O92 C109 1.295 . S
O93 Fe88 1.997 . S
O93 C109 1.235 . S
O94 Fe88 2.002 . S
O94 C95 1.295 . S
C95 O94 1.295 . S
C95 O97 1.235 . S
C96 O101 1.287 . S
C96 O102 1.255 . S
O97 Fe89 1.997 . S
O97 C95 1.235 . S
C98 O104 1.287 . S
C98 O105 1.255 . S
O99 Fe88 1.976 . S
O99 C106 1.287 . S
O100 Fe89 1.996 . S
O100 C106 1.255 . S
O101 Fe91 1.976 . S
O101 C96 1.287 . S
O102 Fe88 1.996 . S
O102 C96 1.255 . S
C103 O107 1.295 . S
C103 O108 1.235 . S
O104 Fe89 1.976 . S
O104 C98 1.287 . S
O105 Fe91 1.996 . S
O105 C98 1.255 . S
C106 O99 1.287 . S
C106 O100 1.255 . S
O107 Fe89 2.002 . S
O107 C103 1.295 . S
O108 Fe91 1.997 . S
O108 C103 1.235 . S
C109 O92 1.295 . S
C109 O93 1.235 . S
Fe110 O112 1.918 . S
Fe110 O115 1.997 . S
Fe110 O116 2.002 . S
Fe110 O121 1.976 1_545 S
Fe110 O124 1.996 1_545 S
Fe111 O112 1.918 . S
Fe111 O119 1.997 . S
Fe111 O122 1.996 1_545 S
Fe111 O126 1.976 1_545 S
Fe111 O129 2.002 . S
O112 Fe110 1.918 . S
O112 Fe111 1.918 . S
O112 Fe113 1.918 . S
Fe113 O112 1.918 . S
Fe113 O114 2.002 . S
Fe113 O123 1.976 1_545 S
Fe113 O127 1.996 1_545 S
Fe113 O130 1.997 . S
O114 Fe113 2.002 . S
O114 C131 1.295 . S
O115 Fe110 1.997 . S
O115 C131 1.235 . S
O116 Fe110 2.002 . S
O116 C117 1.295 . S
C117 O116 1.295 . S
C117 O119 1.235 . S
C118 O123 1.287 . S
C118 O124 1.255 . S
O119 Fe111 1.997 . S
O119 C117 1.235 . S
C120 O126 1.287 . S
C120 O127 1.255 . S
O121 Fe110 1.976 1_565 S
O121 C128 1.287 . S
O122 Fe111 1.996 1_565 S
O122 C128 1.255 . S
O123 Fe113 1.976 1_565 S
O123 C118 1.287 . S
O124 Fe110 1.996 1_565 S
O124 C118 1.255 . S
C125 O129 1.295 . S
C125 O130 1.235 . S
O126 Fe111 1.976 1_565 S
O126 C120 1.287 . S
O127 Fe113 1.996 1_565 S
O127 C120 1.255 . S
C128 O121 1.287 . S
C128 O122 1.255 . S
O129 Fe111 2.002 . S
O129 C125 1.295 . S
O130 Fe113 1.997 . S
O130 C125 1.235 . S
C131 O114 1.295 . S
C131 O115 1.235 . S
Fe132 O134 1.918 . S
Fe132 O137 1.997 . S
Fe132 O138 2.002 . S
Fe132 O143 1.976 . S
Fe132 O146 1.996 . S
Fe133 O134 1.918 . S
Fe133 O141 1.997 . S
Fe133 O144 1.996 . S
Fe133 O148 1.976 1_554 S
Fe133 O151 2.002 1_554 S
O134 Fe132 1.918 . S
O134 Fe133 1.918 . S
O134 Fe135 1.918 1_554 S
Fe135 O134 1.918 1_556 S
Fe135 O136 2.002 . S
Fe135 O145 1.976 1_556 S
Fe135 O149 1.996 . S
Fe135 O152 1.997 . S
O136 Fe135 2.002 . S
O136 C153 1.295 1_556 S
O137 Fe132 1.997 . S
O137 C153 1.235 . S
O138 Fe132 2.002 . S
O138 C139 1.295 . S
C139 O138 1.295 . S
C139 O141 1.235 . S
C140 O145 1.287 . S
C140 O146 1.255 . S
O141 Fe133 1.997 . S
O141 C139 1.235 . S
C142 O148 1.287 . S
C142 O149 1.255 . S
O143 Fe132 1.976 . S
O143 C150 1.287 . S
O144 Fe133 1.996 . S
O144 C150 1.255 . S
O145 Fe135 1.976 1_554 S
O145 C140 1.287 . S
O146 Fe132 1.996 . S
O146 C140 1.255 . S
C147 O151 1.295 . S
C147 O152 1.235 . S
O148 Fe133 1.976 1_556 S
O148 C142 1.287 . S
O149 Fe135 1.996 . S
O149 C142 1.255 . S
C150 O143 1.287 . S
C150 O144 1.255 . S
O151 Fe133 2.002 1_556 S
O151 C147 1.295 . S
O152 Fe135 1.997 . S
O152 C147 1.235 . S
C153 O136 1.295 1_554 S
C153 O137 1.235 . S
Fe154 O156 1.918 . S
Fe154 O159 1.997 . S
Fe154 O160 2.002 . S
Fe154 O165 1.976 . S
Fe154 O168 1.996 . S
Fe155 O156 1.918 . S
Fe155 O163 1.997 . S
Fe155 O166 1.996 . S
Fe155 O170 1.976 1_554 S
Fe155 O173 2.002 1_554 S
O156 Fe154 1.918 . S
O156 Fe155 1.918 . S
O156 Fe157 1.918 1_554 S
Fe157 O156 1.918 1_556 S
Fe157 O158 2.002 . S
Fe157 O167 1.976 1_556 S
Fe157 O171 1.996 . S
Fe157 O174 1.997 . S
O158 Fe157 2.002 . S
O158 C175 1.295 1_556 S
O159 Fe154 1.997 . S
O159 C175 1.235 . S
O160 Fe154 2.002 . S
O160 C161 1.295 . S
C161 O160 1.295 . S
C161 O163 1.235 . S
C162 O167 1.287 . S
C162 O168 1.255 . S
O163 Fe155 1.997 . S
O163 C161 1.235 . S
C164 O170 1.287 . S
C164 O171 1.255 . S
O165 Fe154 1.976 . S
O165 C172 1.287 . S
O166 Fe155 1.996 . S
O166 C172 1.255 . S
O167 Fe157 1.976 1_554 S
O167 C162 1.287 . S
O168 Fe154 1.996 . S
O168 C162 1.255 . S
C169 O173 1.295 . S
C169 O174 1.235 . S
O170 Fe155 1.976 1_556 S
O170 C164 1.287 . S
O171 Fe157 1.996 . S
O171 C164 1.255 . S
C172 O165 1.287 . S
C172 O166 1.255 . S
O173 Fe155 2.002 1_556 S
O173 C169 1.295 . S
O174 Fe157 1.997 . S
O174 C169 1.235 . S
C175 O158 1.295 1_554 S
C175 O159 1.235 . S
Fe176 O178 1.918 . S
Fe176 O181 1.997 . S
Fe176 O182 2.002 . S
Fe176 O187 1.976 . S
Fe176 O190 1.996 . S
Fe177 O178 1.918 . S
Fe177 O185 1.997 . S
Fe177 O188 1.996 . S
Fe177 O192 1.976 1_554 S
Fe177 O195 2.002 1_554 S
O178 Fe176 1.918 . S
O178 Fe177 1.918 . S
O178 Fe179 1.918 1_554 S
Fe179 O178 1.918 1_556 S
Fe179 O180 2.002 . S
Fe179 O189 1.976 1_556 S
Fe179 O193 1.996 . S
Fe179 O196 1.997 . S
O180 Fe179 2.002 . S
O180 C197 1.295 1_556 S
O181 Fe176 1.997 . S
O181 C197 1.235 . S
O182 Fe176 2.002 . S
O182 C183 1.295 . S
C183 O182 1.295 . S
C183 O185 1.235 . S
C184 O189 1.287 . S
C184 O190 1.255 . S
O185 Fe177 1.997 . S
O185 C183 1.235 . S
C186 O192 1.287 . S
C186 O193 1.255 . S
O187 Fe176 1.976 . S
O187 C194 1.287 . S
O188 Fe177 1.996 . S
O188 C194 1.255 . S
O189 Fe179 1.976 1_554 S
O189 C184 1.287 . S
O190 Fe176 1.996 . S
O190 C184 1.255 . S
C191 O195 1.295 . S
C191 O196 1.235 . S
O192 Fe177 1.976 1_556 S
O192 C186 1.287 . S
O193 Fe179 1.996 . S
O193 C186 1.255 . S
C194 O187 1.287 . S
C194 O188 1.255 . S
O195 Fe177 2.002 1_556 S
O195 C191 1.295 . S
O196 Fe179 1.997 . S
O196 C191 1.235 . S
C197 O180 1.295 1_554 S
C197 O181 1.235 . S
Fe198 O200 1.918 . S
Fe198 O203 1.997 . S
Fe198 O204 2.002 . S
Fe198 O209 1.976 . S
Fe198 O212 1.996 . S
Fe199 O200 1.918 . S
Fe199 O207 1.997 . S
Fe199 O210 1.996 . S
Fe199 O214 1.976 . S
Fe199 O217 2.002 . S
O200 Fe198 1.918 . S
O200 Fe199 1.918 . S
O200 Fe201 1.918 . S
Fe201 O200 1.918 . S
Fe201 O202 2.002 . S
Fe201 O211 1.976 . S
Fe201 O215 1.996 . S
Fe201 O218 1.997 . S
O202 Fe201 2.002 . S
O202 C219 1.295 . S
O203 Fe198 1.997 . S
O203 C219 1.235 . S
O204 Fe198 2.002 . S
O204 C205 1.295 . S
C205 O204 1.295 . S
C205 O207 1.235 . S
C206 O211 1.287 . S
C206 O212 1.255 . S
O207 Fe199 1.997 . S
O207 C205 1.235 . S
C208 O214 1.287 . S
C208 O215 1.255 . S
O209 Fe198 1.976 . S
O209 C216 1.287 . S
O210 Fe199 1.996 . S
O210 C216 1.255 . S
O211 Fe201 1.976 . S
O211 C206 1.287 . S
O212 Fe198 1.996 . S
O212 C206 1.255 . S
C213 O217 1.295 . S
C213 O218 1.235 . S
O214 Fe199 1.976 . S
O214 C208 1.287 . S
O215 Fe201 1.996 . S
O215 C208 1.255 . S
C216 O209 1.287 . S
C216 O210 1.255 . S
O217 Fe199 2.002 . S
O217 C213 1.295 . S
O218 Fe201 1.997 . S
O218 C213 1.235 . S
C219 O202 1.295 . S
C219 O203 1.235 . S
Fe220 O222 1.918 . S
Fe220 O225 1.997 . S
Fe220 O226 2.002 . S
Fe220 O231 1.976 . S
Fe220 O234 1.996 . S
Fe221 O222 1.918 . S
Fe221 O229 1.997 . S
Fe221 O232 1.996 . S
Fe221 O236 1.976 . S
Fe221 O239 2.002 . S
O222 Fe220 1.918 . S
O222 Fe221 1.918 . S
O222 Fe223 1.918 . S
Fe223 O222 1.918 . S
Fe223 O224 2.002 . S
Fe223 O233 1.976 . S
Fe223 O237 1.996 . S
Fe223 O240 1.997 . S
O224 Fe223 2.002 . S
O224 C241 1.295 . S
O225 Fe220 1.997 . S
O225 C241 1.235 . S
O226 Fe220 2.002 . S
O226 C227 1.295 . S
C227 O226 1.295 . S
C227 O229 1.235 . S
C228 O233 1.287 . S
C228 O234 1.255 . S
O229 Fe221 1.997 . S
O229 C227 1.235 . S
C230 O236 1.287 . S
C230 O237 1.255 . S
O231 Fe220 1.976 . S
O231 C238 1.287 . S
O232 Fe221 1.996 . S
O232 C238 1.255 . S
O233 Fe223 1.976 . S
O233 C228 1.287 . S
O234 Fe220 1.996 . S
O234 C228 1.255 . S
C235 O239 1.295 . S
C235 O240 1.235 . S
O236 Fe221 1.976 . S
O236 C230 1.287 . S
O237 Fe223 1.996 . S
O237 C230 1.255 . S
C238 O231 1.287 . S
C238 O232 1.255 . S
O239 Fe221 2.002 . S
O239 C235 1.295 . S
O240 Fe223 1.997 . S
O240 C235 1.235 . S
C241 O224 1.295 . S
C241 O225 1.235 . S
Fe242 O244 1.918 . S
Fe242 O247 1.997 . S
Fe242 O248 2.002 . S
Fe242 O253 1.976 . S
Fe242 O256 1.996 . S
Fe243 O244 1.918 . S
Fe243 O251 1.997 . S
Fe243 O254 1.996 . S
Fe243 O258 1.976 . S
Fe243 O261 2.002 . S
O244 Fe242 1.918 . S
O244 Fe243 1.918 . S
O244 Fe245 1.918 . S
Fe245 O244 1.918 . S
Fe245 O246 2.002 . S
Fe245 O255 1.976 . S
Fe245 O259 1.996 . S
Fe245 O262 1.997 . S
O246 Fe245 2.002 . S
O246 C263 1.295 . S
O247 Fe242 1.997 . S
O247 C263 1.235 . S
O248 Fe242 2.002 . S
O248 C249 1.295 . S
C249 O248 1.295 . S
C249 O251 1.235 . S
C250 O255 1.287 . S
C250 O256 1.255 . S
O251 Fe243 1.997 . S
O251 C249 1.235 . S
C252 O258 1.287 . S
C252 O259 1.255 . S
O253 Fe242 1.976 . S
O253 C260 1.287 . S
O254 Fe243 1.996 . S
O254 C260 1.255 . S
O255 Fe245 1.976 . S
O255 C250 1.287 . S
O256 Fe242 1.996 . S
O256 C250 1.255 . S
C257 O261 1.295 . S
C257 O262 1.235 . S
O258 Fe243 1.976 . S
O258 C252 1.287 . S
O259 Fe245 1.996 . S
O259 C252 1.255 . S
C260 O253 1.287 . S
C260 O254 1.255 . S
O261 Fe243 2.002 . S
O261 C257 1.295 . S
O262 Fe245 1.997 . S
O262 C257 1.235 . S
C263 O246 1.295 . S
C263 O247 1.235 . S
Fe264 O266 1.918 . S
Fe264 O269 1.997 . S
Fe264 O270 2.002 . S
Fe264 O275 1.976 . S
Fe264 O278 1.996 . S
Fe265 O266 1.918 . S
Fe265 O273 1.997 . S
Fe265 O276 1.996 . S
Fe265 O280 1.976 . S
Fe265 O283 2.002 . S
O266 Fe264 1.918 . S
O266 Fe265 1.918 . S
O266 Fe267 1.918 . S
Fe267 O266 1.918 . S
Fe267 O268 2.002 . S
Fe267 O277 1.976 . S
Fe267 O281 1.996 . S
Fe267 O284 1.997 . S
O268 Fe267 2.002 . S
O268 C285 1.295 . S
O269 Fe264 1.997 . S
O269 C285 1.235 . S
O270 Fe264 2.002 . S
O270 C271 1.295 . S
C271 O270 1.295 . S
C271 O273 1.235 . S
C272 O277 1.287 . S
C272 O278 1.255 . S
O273 Fe265 1.997 . S
O273 C271 1.235 . S
C274 O280 1.287 . S
C274 O281 1.255 . S
O275 Fe264 1.976 . S
O275 C282 1.287 . S
O276 Fe265 1.996 . S
O276 C282 1.255 . S
O277 Fe267 1.976 . S
O277 C272 1.287 . S
O278 Fe264 1.996 . S
O278 C272 1.255 . S
C279 O283 1.295 . S
C279 O284 1.235 . S
O280 Fe265 1.976 . S
O280 C274 1.287 . S
O281 Fe267 1.996 . S
O281 C274 1.255 . S
C282 O275 1.287 . S
C282 O276 1.255 . S
O283 Fe265 2.002 . S
O283 C279 1.295 . S
O284 Fe267 1.997 . S
O284 C279 1.235 . S
C285 O268 1.295 . S
C285 O269 1.235 . S
Fe286 O288 1.918 . S
Fe286 O291 1.997 . S
Fe286 O292 2.002 . S
Fe286 O297 1.976 . S
Fe286 O300 1.996 . S
Fe287 O288 1.918 . S
Fe287 O295 1.997 . S
Fe287 O298 1.996 . S
Fe287 O302 1.976 . S
Fe287 O305 2.002 . S
O288 Fe286 1.918 . S
O288 Fe287 1.918 . S
O288 Fe289 1.918 . S
Fe289 O288 1.918 . S
Fe289 O290 2.002 . S
Fe289 O299 1.976 . S
Fe289 O303 1.996 . S
Fe289 O306 1.997 . S
O290 Fe289 2.002 . S
O290 C307 1.295 . S
O291 Fe286 1.997 . S
O291 C307 1.235 . S
O292 Fe286 2.002 . S
O292 C293 1.295 . S
C293 O292 1.295 . S
C293 O295 1.235 . S
C294 O299 1.287 . S
C294 O300 1.255 . S
O295 Fe287 1.997 . S
O295 C293 1.235 . S
C296 O302 1.287 . S
C296 O303 1.255 . S
O297 Fe286 1.976 . S
O297 C304 1.287 . S
O298 Fe287 1.996 . S
O298 C304 1.255 . S
O299 Fe289 1.976 . S
O299 C294 1.287 . S
O300 Fe286 1.996 . S
O300 C294 1.255 . S
C301 O305 1.295 . S
C301 O306 1.235 . S
O302 Fe287 1.976 . S
O302 C296 1.287 . S
O303 Fe289 1.996 . S
O303 C296 1.255 . S
C304 O297 1.287 . S
C304 O298 1.255 . S
O305 Fe287 2.002 . S
O305 C301 1.295 . S
O306 Fe289 1.997 . S
O306 C301 1.235 . S
C307 O290 1.295 . S
C307 O291 1.235 . S
Fe308 O310 1.918 . S
Fe308 O313 1.997 . S
Fe308 O314 2.002 . S
Fe308 O319 1.976 . S
Fe308 O322 1.996 . S
Fe309 O310 1.918 . S
Fe309 O317 1.997 . S
Fe309 O320 1.996 . S
Fe309 O324 1.976 . S
Fe309 O327 2.002 . S
O310 Fe308 1.918 . S
O310 Fe309 1.918 . S
O310 Fe311 1.918 . S
Fe311 O310 1.918 . S
Fe311 O312 2.002 . S
Fe311 O321 1.976 . S
Fe311 O325 1.996 . S
Fe311 O328 1.997 . S
O312 Fe311 2.002 . S
O312 C329 1.295 . S
O313 Fe308 1.997 . S
O313 C329 1.235 . S
O314 Fe308 2.002 . S
O314 C315 1.295 . S
C315 O314 1.295 . S
C315 O317 1.235 . S
C316 O321 1.287 . S
C316 O322 1.255 . S
O317 Fe309 1.997 . S
O317 C315 1.235 . S
C318 O324 1.287 . S
C318 O325 1.255 . S
O319 Fe308 1.976 . S
O319 C326 1.287 . S
O320 Fe309 1.996 . S
O320 C326 1.255 . S
O321 Fe311 1.976 . S
O321 C316 1.287 . S
O322 Fe308 1.996 . S
O322 C316 1.255 . S
C323 O327 1.295 . S
C323 O328 1.235 . S
O324 Fe309 1.976 . S
O324 C318 1.287 . S
O325 Fe311 1.996 . S
O325 C318 1.255 . S
C326 O319 1.287 . S
C326 O320 1.255 . S
O327 Fe309 2.002 . S
O327 C323 1.295 . S
O328 Fe311 1.997 . S
O328 C323 1.235 . S
C329 O312 1.295 . S
C329 O313 1.235 . S
Fe330 O332 1.918 1_554 S
Fe330 O335 1.997 1_554 S
Fe330 O336 2.002 . S
Fe330 O341 1.976 . S
Fe330 O344 1.996 . S
Fe331 O332 1.918 . S
Fe331 O339 1.997 1_556 S
Fe331 O342 1.996 1_556 S
Fe331 O346 1.976 . S
Fe331 O349 2.002 . S
O332 Fe330 1.918 1_556 S
O332 Fe331 1.918 . S
O332 Fe333 1.918 . S
Fe333 O332 1.918 . S
Fe333 O334 2.002 . S
Fe333 O343 1.976 . S
Fe333 O347 1.996 . S
Fe333 O350 1.997 . S
O334 Fe333 2.002 . S
O334 C351 1.295 . S
O335 Fe330 1.997 1_556 S
O335 C351 1.235 . S
O336 Fe330 2.002 . S
O336 C337 1.295 . S
C337 O336 1.295 . S
C337 O339 1.235 . S
C338 O343 1.287 . S
C338 O344 1.255 1_556 S
O339 Fe331 1.997 1_554 S
O339 C337 1.235 . S
C340 O346 1.287 . S
C340 O347 1.255 . S
O341 Fe330 1.976 . S
O341 C348 1.287 . S
O342 Fe331 1.996 1_554 S
O342 C348 1.255 . S
O343 Fe333 1.976 . S
O343 C338 1.287 . S
O344 Fe330 1.996 . S
O344 C338 1.255 1_554 S
C345 O349 1.295 . S
C345 O350 1.235 . S
O346 Fe331 1.976 . S
O346 C340 1.287 . S
O347 Fe333 1.996 . S
O347 C340 1.255 . S
C348 O341 1.287 . S
C348 O342 1.255 . S
O349 Fe331 2.002 . S
O349 C345 1.295 . S
O350 Fe333 1.997 . S
O350 C345 1.235 . S
C351 O334 1.295 . S
C351 O335 1.235 . S
Fe352 O354 1.918 . S
Fe352 O357 1.997 . S
Fe352 O358 2.002 . S
Fe352 O363 1.976 . S
Fe352 O366 1.996 . S
Fe353 O354 1.918 . S
Fe353 O361 1.997 . S
Fe353 O364 1.996 . S
Fe353 O368 1.969 1_556 S
Fe353 O371 2.002 1_556 S
O354 Fe352 1.918 . S
O354 Fe353 1.918 . S
O354 Fe355 1.918 1_556 S
Fe355 O354 1.918 1_554 S
Fe355 O356 2.002 . S
Fe355 O365 1.976 1_554 S
Fe355 O369 1.996 . S
Fe355 O372 1.997 . S
O356 Fe355 2.002 . S
O356 C373 1.295 1_554 S
O357 Fe352 1.997 . S
O357 C373 1.235 . S
O358 Fe352 2.002 . S
O358 C359 1.295 . S
C359 O358 1.295 . S
C359 O361 1.235 . S
C360 O365 1.287 . S
C360 O366 1.255 . S
O361 Fe353 1.997 . S
O361 C359 1.235 . S
C362 O368 1.295 . S
C362 O369 1.255 . S
O363 Fe352 1.976 . S
O363 C370 1.287 . S
O364 Fe353 1.996 . S
O364 C370 1.255 . S
O365 Fe355 1.976 1_556 S
O365 C360 1.287 . S
O366 Fe352 1.996 . S
O366 C360 1.255 . S
C367 O371 1.295 . S
C367 O372 1.235 . S
O368 Fe353 1.969 1_554 S
O368 C362 1.295 . S
O369 Fe355 1.996 . S
O369 C362 1.255 . S
C370 O363 1.287 . S
C370 O364 1.255 . S
O371 Fe353 2.002 1_554 S
O371 C367 1.295 . S
O372 Fe355 1.997 . S
O372 C367 1.235 . S
C373 O356 1.295 1_556 S
C373 O357 1.235 . S
Fe374 O376 1.918 . S
Fe374 O379 1.997 . S
Fe374 O380 2.002 1_556 S
Fe374 O385 1.970 1_556 S
Fe374 O388 1.996 . S
Fe375 O376 1.918 1_554 S
Fe375 O383 1.997 . S
Fe375 O386 1.996 . S
Fe375 O390 1.976 1_554 S
Fe375 O393 2.002 . S
O376 Fe374 1.918 . S
O376 Fe375 1.918 1_556 S
O376 Fe377 1.918 . S
Fe377 O376 1.918 . S
Fe377 O378 2.002 . S
Fe377 O387 1.976 . S
Fe377 O391 1.996 . S
Fe377 O394 1.997 . S
O378 Fe377 2.002 . S
O378 C395 1.295 . S
O379 Fe374 1.997 . S
O379 C395 1.235 . S
O380 Fe374 2.002 1_554 S
O380 C381 1.295 . S
C381 O380 1.295 . S
C381 O383 1.235 . S
C382 O387 1.287 . S
C382 O388 1.255 . S
O383 Fe375 1.997 . S
O383 C381 1.235 . S
C384 O390 1.287 . S
C384 O391 1.255 . S
O385 Fe374 1.970 1_554 S
O385 C392 1.293 . S
O386 Fe375 1.996 . S
O386 C392 1.255 . S
O387 Fe377 1.976 . S
O387 C382 1.287 . S
O388 Fe374 1.996 . S
O388 C382 1.255 . S
C389 O393 1.295 1_556 S
C389 O394 1.235 . S
O390 Fe375 1.976 1_556 S
O390 C384 1.287 . S
O391 Fe377 1.996 . S
O391 C384 1.255 . S
C392 O385 1.293 . S
C392 O386 1.255 . S
O393 Fe375 2.002 . S
O393 C389 1.295 1_554 S
O394 Fe377 1.997 . S
O394 C389 1.235 . S
C395 O378 1.295 . S
C395 O379 1.235 . S
C396 C397 1.363 . S
C396 C402 1.379 . S
C396 N404 1.356 . S
C397 C396 1.363 . S
C397 C403 1.363 . S
C398 C399 1.363 . S
C398 C403 1.379 . S
C398 N405 1.356 . S
C399 C398 1.363 . S
C399 C402 1.363 . S
N400 C402 1.356 . S
N400 H412 0.984 . S
N400 H413 0.985 . S
N401 C403 1.356 . S
N401 H406 0.984 . S
N401 H407 0.985 . S
C402 C396 1.379 . S
C402 C399 1.363 . S
C402 N400 1.356 . S
C403 C397 1.363 . S
C403 C398 1.379 . S
C403 N401 1.356 . S
N404 C396 1.356 . S
N404 H410 0.984 . S
N404 H411 0.984 . S
N405 C398 1.356 . S
N405 H408 0.984 . S
N405 H409 0.985 . S
H406 N401 0.984 . S
H407 N401 0.985 . S
H408 N405 0.984 . S
H409 N405 0.985 . S
H410 N404 0.984 . S
H411 N404 0.984 . S
H412 N400 0.984 . S
H413 N400 0.985 . S
C414 C415 1.363 . S
C414 C420 1.379 . S
C414 N422 1.356 . S
C415 C414 1.363 . S
C415 C421 1.363 . S
C416 C417 1.363 . S
C416 C421 1.379 . S
C416 N423 1.356 . S
C417 C416 1.363 . S
C417 C420 1.363 . S
N418 C420 1.356 . S
N418 H430 0.984 . S
N418 H431 0.985 . S
N419 C421 1.356 . S
N419 H424 0.984 . S
N419 H425 0.985 . S
C420 C414 1.379 . S
C420 C417 1.363 . S
C420 N418 1.356 . S
C421 C415 1.363 . S
C421 C416 1.379 . S
C421 N419 1.356 . S
N422 C414 1.356 . S
N422 H428 0.984 . S
N422 H429 0.984 . S
N423 C416 1.356 . S
N423 H426 0.984 . S
N423 H427 0.985 . S
H424 N419 0.984 . S
H425 N419 0.985 . S
H426 N423 0.984 . S
H427 N423 0.985 . S
H428 N422 0.984 . S
H429 N422 0.984 . S
H430 N418 0.984 . S
H431 N418 0.985 . S
C432 C433 1.363 . S
C432 C438 1.379 . S
C432 N440 1.356 . S
C433 C432 1.363 . S
C433 C439 1.363 . S
C434 C435 1.363 . S
C434 C439 1.379 . S
C434 N441 1.356 . S
C435 C434 1.363 . S
C435 C438 1.363 . S
N436 C438 1.356 . S
N436 H448 0.984 . S
N436 H449 0.985 . S
N437 C439 1.356 . S
N437 H442 0.984 . S
N437 H443 0.985 . S
C438 C432 1.379 . S
C438 C435 1.363 . S
C438 N436 1.356 . S
C439 C433 1.363 . S
C439 C434 1.379 . S
C439 N437 1.356 . S
N440 C432 1.356 . S
N440 H446 0.984 . S
N440 H447 0.984 . S
N441 C434 1.356 . S
N441 H444 0.984 . S
N441 H445 0.985 . S
H442 N437 0.984 . S
H443 N437 0.985 . S
H444 N441 0.984 . S
H445 N441 0.985 . S
H446 N440 0.984 . S
H447 N440 0.984 . S
H448 N436 0.984 . S
H449 N436 0.985 . S
C450 C451 1.363 1_554 S
C450 C456 1.379 . S
C450 N458 1.356 . S
C451 C450 1.363 1_556 S
C451 C457 1.363 . S
C452 C453 1.363 1_556 S
C452 C457 1.379 . S
C452 N459 1.356 . S
C453 C452 1.363 1_554 S
C453 C456 1.363 . S
N454 C456 1.356 . S
N454 H466 0.984 . S
N454 H467 0.985 . S
N455 C457 1.356 . S
N455 H460 0.984 . S
N455 H461 0.985 . S
C456 C450 1.379 . S
C456 C453 1.363 . S
C456 N454 1.356 . S
C457 C451 1.363 . S
C457 C452 1.379 . S
C457 N455 1.356 . S
N458 C450 1.356 . S
N458 H464 0.984 . S
N458 H465 0.984 . S
N459 C452 1.356 . S
N459 H462 0.984 1_556 S
N459 H463 0.985 . S
H460 N455 0.984 . S
H461 N455 0.985 . S
H462 N459 0.984 1_554 S
H463 N459 0.985 . S
H464 N458 0.984 . S
H465 N458 0.984 . S
H466 N454 0.984 . S
H467 N454 0.985 . S
C468 C469 1.363 . S
C468 C474 1.379 . S
C468 N476 1.356 . S
C469 C468 1.363 . S
C469 C475 1.363 1_554 S
C470 C471 1.363 . S
C470 C475 1.379 . S
C470 N477 1.356 . S
C471 C470 1.363 . S
C471 C474 1.363 1_556 S
N472 C474 1.356 . S
N472 H484 0.984 . S
N472 H485 0.985 . S
N473 C475 1.356 . S
N473 H478 0.984 1_556 S
N473 H479 0.985 . S
C474 C468 1.379 . S
C474 C471 1.363 1_554 S
C474 N472 1.356 . S
C475 C469 1.363 1_556 S
C475 C470 1.379 . S
C475 N473 1.356 . S
N476 C468 1.356 . S
N476 H482 0.984 . S
N476 H483 0.984 . S
N477 C470 1.356 . S
N477 H480 0.984 . S
N477 H481 0.985 . S
H478 N473 0.984 1_554 S
H479 N473 0.985 . S
H480 N477 0.984 . S
H481 N477 0.985 . S
H482 N476 0.984 . S
H483 N476 0.984 . S
H484 N472 0.984 . S
H485 N472 0.985 . S
C486 C487 1.363 1_554 S
C486 C492 1.379 . S
C486 N494 1.356 . S
C487 C486 1.363 1_556 S
C487 C493 1.363 . S
C488 C489 1.363 . S
C488 C493 1.379 1_554 S
C488 N495 1.356 . S
C489 C488 1.363 . S
C489 C492 1.363 . S
N490 C492 1.356 . S
N490 H502 0.984 . S
N490 H503 0.985 . S
N491 C493 1.356 . S
N491 H496 0.984 . S
N491 H497 0.985 . S
C492 C486 1.379 . S
C492 C489 1.363 . S
C492 N490 1.356 . S
C493 C487 1.363 . S
C493 C488 1.379 1_556 S
C493 N491 1.356 . S
N494 C486 1.356 . S
N494 H500 0.984 . S
N494 H501 0.984 1_554 S
N495 C488 1.356 . S
N495 H498 0.984 . S
N495 H499 0.985 1_554 S
H496 N491 0.984 . S
H497 N491 0.985 . S
H498 N495 0.984 . S
H499 N495 0.985 1_556 S
H500 N494 0.984 . S
H501 N494 0.984 1_556 S
H502 N490 0.984 . S
H503 N490 0.985 . S
C504 C505 1.363 . S
C504 C510 1.379 . S
C504 N512 1.356 . S
C505 C504 1.363 . S
C505 C511 1.363 . S
C506 C507 1.363 . S
C506 C511 1.379 . S
C506 N513 1.356 . S
C507 C506 1.363 . S
C507 C510 1.363 . S
N508 C510 1.356 . S
N508 H520 0.984 . S
N508 H521 0.985 . S
N509 C511 1.356 . S
N509 H514 0.984 . S
N509 H515 0.985 . S
C510 C504 1.379 . S
C510 C507 1.363 . S
C510 N508 1.356 . S
C511 C505 1.363 . S
C511 C506 1.379 . S
C511 N509 1.356 . S
N512 C504 1.356 . S
N512 H518 0.984 . S
N512 H519 0.984 . S
N513 C506 1.356 . S
N513 H516 0.984 . S
N513 H517 0.985 . S
H514 N509 0.984 . S
H515 N509 0.985 . S
H516 N513 0.984 . S
H517 N513 0.985 . S
H518 N512 0.984 . S
H519 N512 0.984 . S
H520 N508 0.984 . S
H521 N508 0.985 . S
C522 C523 1.363 . S
C522 C528 1.379 . S
C522 N530 1.356 . S
C523 C522 1.363 . S
C523 C529 1.363 . S
C524 C525 1.363 . S
C524 C529 1.379 . S
C524 N531 1.356 . S
C525 C524 1.363 . S
C525 C528 1.363 . S
N526 C528 1.356 . S
N526 H538 0.984 . S
N526 H539 0.985 . S
N527 C529 1.356 . S
N527 H532 0.984 . S
N527 H533 0.985 . S
C528 C522 1.379 . S
C528 C525 1.363 . S
C528 N526 1.356 . S
C529 C523 1.363 . S
C529 C524 1.379 . S
C529 N527 1.356 . S
N530 C522 1.356 . S
N530 H536 0.984 . S
N530 H537 0.984 . S
N531 C524 1.356 . S
N531 H534 0.984 . S
N531 H535 0.985 . S
H532 N527 0.984 . S
H533 N527 0.985 . S
H534 N531 0.984 . S
H535 N531 0.985 . S
H536 N530 0.984 . S
H537 N530 0.984 . S
H538 N526 0.984 . S
H539 N526 0.985 . S
C540 C541 1.363 . S
C540 C546 1.379 . S
C540 N548 1.356 . S
C541 C540 1.363 . S
C541 C547 1.363 . S
C542 C543 1.363 . S
C542 C547 1.379 . S
C542 N549 1.356 . S
C543 C542 1.363 . S
C543 C546 1.363 . S
N544 C546 1.356 . S
N544 H556 0.984 . S
N544 H557 0.985 . S
N545 C547 1.356 . S
N545 H550 0.984 . S
N545 H551 0.985 . S
C546 C540 1.379 . S
C546 C543 1.363 . S
C546 N544 1.356 . S
C547 C541 1.363 . S
C547 C542 1.379 . S
C547 N545 1.356 . S
N548 C540 1.356 . S
N548 H554 0.984 . S
N548 H555 0.984 . S
N549 C542 1.356 . S
N549 H552 0.984 . S
N549 H553 0.985 . S
H550 N545 0.984 . S
H551 N545 0.985 . S
H552 N549 0.984 . S
H553 N549 0.985 . S
H554 N548 0.984 . S
H555 N548 0.984 . S
H556 N544 0.984 . S
H557 N544 0.985 . S
C558 C559 1.363 . S
C558 C564 1.379 . S
C558 N566 1.356 . S
C559 C558 1.363 . S
C559 C565 1.363 1_554 S
C560 C561 1.363 . S
C560 C565 1.379 . S
C560 N567 1.356 . S
C561 C560 1.363 . S
C561 C564 1.363 1_556 S
N562 C564 1.356 . S
N562 H574 0.984 . S
N562 H575 0.985 1_554 S
N563 C565 1.356 . S
N563 H568 0.984 . S
N563 H569 0.985 . S
C564 C558 1.379 . S
C564 C561 1.363 1_554 S
C564 N562 1.356 . S
C565 C559 1.363 1_556 S
C565 C560 1.379 . S
C565 N563 1.356 . S
N566 C558 1.356 . S
N566 H572 0.984 . S
N566 H573 0.984 . S
N567 C560 1.356 . S
N567 H570 0.984 . S
N567 H571 0.985 . S
H568 N563 0.984 . S
H569 N563 0.985 . S
H570 N567 0.984 . S
H571 N567 0.985 . S
H572 N566 0.984 . S
H573 N566 0.984 . S
H574 N562 0.984 . S
H575 N562 0.985 1_556 S
C576 C577 1.363 1_554 S
C576 C582 1.379 . S
C576 N584 1.356 . S
C577 C576 1.363 1_556 S
C577 C583 1.363 . S
C578 C579 1.363 1_556 S
C578 C583 1.379 . S
C578 N585 1.356 . S
C579 C578 1.363 1_554 S
C579 C582 1.363 . S
N580 C582 1.356 . S
N580 H592 0.984 . S
N580 H593 0.985 . S
N581 C583 1.356 . S
N581 H586 0.984 . S
N581 H587 0.985 . S
C582 C576 1.379 . S
C582 C579 1.363 . S
C582 N580 1.356 . S
C583 C577 1.363 . S
C583 C578 1.379 . S
C583 N581 1.356 . S
N584 C576 1.356 . S
N584 H590 0.984 . S
N584 H591 0.984 . S
N585 C578 1.356 . S
N585 H588 0.984 . S
N585 H589 0.985 . S
H586 N581 0.984 . S
H587 N581 0.985 . S
H588 N585 0.984 . S
H589 N585 0.985 . S
H590 N584 0.984 . S
H591 N584 0.984 . S
H592 N580 0.984 . S
H593 N580 0.985 . S
C594 C595 1.363 . S
C594 C600 1.379 . S
C594 N602 1.356 . S
C595 C594 1.363 . S
C595 C601 1.363 1_556 S
C596 C597 1.363 . S
C596 C601 1.379 . S
C596 N603 1.356 . S
C597 C596 1.363 . S
C597 C600 1.363 1_554 S
N598 C600 1.356 . S
N598 H610 0.984 . S
N598 H611 0.985 . S
N599 C601 1.356 . S
N599 H604 0.984 . S
N599 H605 0.985 . S
C600 C594 1.379 . S
C600 C597 1.363 1_556 S
C600 N598 1.356 . S
C601 C595 1.363 1_554 S
C601 C596 1.379 . S
C601 N599 1.356 . S
N602 C594 1.356 . S
N602 H608 0.984 . S
N602 H609 0.984 . S
N603 C596 1.356 . S
N603 H606 0.984 . S
N603 H607 0.985 . S
H604 N599 0.984 . S
H605 N599 0.985 . S
H606 N603 0.984 . S
H607 N603 0.985 . S
H608 N602 0.984 . S
H609 N602 0.984 . S
H610 N598 0.984 . S
H611 N598 0.985 . S
C612 C613 1.363 . S
C612 C618 1.379 . S
C612 N620 1.356 . S
C613 C612 1.363 . S
C613 C619 1.363 . S
C614 C615 1.363 . S
C614 C619 1.379 . S
C614 N621 1.356 . S
C615 C614 1.363 . S
C615 C618 1.363 . S
N616 C618 1.356 . S
N616 H628 0.984 . S
N616 H629 0.985 . S
N617 C619 1.356 . S
N617 H622 0.984 . S
N617 H623 0.985 . S
C618 C612 1.379 . S
C618 C615 1.363 . S
C618 N616 1.356 . S
C619 C613 1.363 . S
C619 C614 1.379 . S
C619 N617 1.356 . S
N620 C612 1.356 . S
N620 H626 0.984 . S
N620 H627 0.984 . S
N621 C614 1.356 . S
N621 H624 0.984 . S
N621 H625 0.985 . S
H622 N617 0.984 . S
H623 N617 0.985 . S
H624 N621 0.984 . S
H625 N621 0.985 . S
H626 N620 0.984 . S
H627 N620 0.984 . S
H628 N616 0.984 . S
H629 N616 0.985 . S
C630 C631 1.363 . S
C630 C636 1.379 . S
C630 N638 1.356 . S
C631 C630 1.363 . S
C631 C637 1.363 . S
C632 C633 1.363 . S
C632 C637 1.379 . S
C632 N639 1.356 . S
C633 C632 1.363 . S
C633 C636 1.363 . S
N634 C636 1.356 . S
N634 H646 0.984 . S
N634 H647 0.985 . S
N635 C637 1.356 . S
N635 H640 0.984 . S
N635 H641 0.985 . S
C636 C630 1.379 . S
C636 C633 1.363 . S
C636 N634 1.356 . S
C637 C631 1.363 . S
C637 C632 1.379 . S
C637 N635 1.356 . S
N638 C630 1.356 . S
N638 H644 0.984 . S
N638 H645 0.984 . S
N639 C632 1.356 . S
N639 H642 0.984 . S
N639 H643 0.985 . S
H640 N635 0.984 . S
H641 N635 0.985 . S
H642 N639 0.984 . S
H643 N639 0.985 . S
H644 N638 0.984 . S
H645 N638 0.984 . S
H646 N634 0.984 . S
H647 N634 0.985 . S
C648 C649 1.363 . S
C648 C654 1.379 . S
C648 N656 1.356 . S
C649 C648 1.363 . S
C649 C655 1.363 . S
C650 C651 1.363 . S
C650 C655 1.379 . S
C650 N657 1.356 . S
C651 C650 1.363 . S
C651 C654 1.363 . S
N652 C654 1.356 . S
N652 H664 0.984 . S
N652 H665 0.985 . S
N653 C655 1.356 . S
N653 H658 0.984 . S
N653 H659 0.985 . S
C654 C648 1.379 . S
C654 C651 1.363 . S
C654 N652 1.356 . S
C655 C649 1.363 . S
C655 C650 1.379 . S
C655 N653 1.356 . S
N656 C648 1.356 . S
N656 H662 0.984 1_556 S
N656 H663 0.984 . S
N657 C650 1.356 . S
N657 H660 0.984 . S
N657 H661 0.985 . S
H658 N653 0.984 . S
H659 N653 0.985 . S
H660 N657 0.984 . S
H661 N657 0.985 . S
H662 N656 0.984 1_554 S
H663 N656 0.984 . S
H664 N652 0.984 . S
H665 N652 0.985 . S
C666 C667 1.363 . S
C666 C672 1.379 . S
C666 N674 1.356 . S
C667 C666 1.363 . S
C667 C673 1.363 . S
C668 C669 1.363 . S
C668 C673 1.379 . S
C668 N675 1.356 . S
C669 C668 1.363 . S
C669 C672 1.363 . S
N670 C672 1.356 . S
N670 H682 0.984 . S
N670 H683 0.985 . S
N671 C673 1.356 . S
N671 H676 0.984 . S
N671 H677 0.985 . S
C672 C666 1.379 . S
C672 C669 1.363 . S
C672 N670 1.356 . S
C673 C667 1.363 . S
C673 C668 1.379 . S
C673 N671 1.356 . S
N674 C666 1.356 . S
N674 H680 0.984 . S
N674 H681 0.984 . S
N675 C668 1.356 . S
N675 H678 0.984 . S
N675 H679 0.985 . S
H676 N671 0.984 . S
H677 N671 0.985 . S
H678 N675 0.984 . S
H679 N675 0.985 . S
H680 N674 0.984 . S
H681 N674 0.984 . S
H682 N670 0.984 . S
H683 N670 0.985 . S
C684 C685 1.363 . S
C684 C690 1.379 . S
C684 N692 1.356 . S
C685 C684 1.363 . S
C685 C691 1.363 . S
C686 C687 1.363 . S
C686 C691 1.379 . S
C686 N693 1.356 . S
C687 C686 1.363 . S
C687 C690 1.363 . S
N688 C690 1.356 . S
N688 H700 0.984 . S
N688 H701 0.985 . S
N689 C691 1.356 . S
N689 H694 0.984 . S
N689 H695 0.985 . S
C690 C684 1.379 . S
C690 C687 1.363 . S
C690 N688 1.356 . S
C691 C685 1.363 . S
C691 C686 1.379 . S
C691 N689 1.356 . S
N692 C684 1.356 . S
N692 H698 0.984 . S
N692 H699 0.984 . S
N693 C686 1.356 . S
N693 H696 0.984 . S
N693 H697 0.985 . S
H694 N689 0.984 . S
H695 N689 0.985 . S
H696 N693 0.984 . S
H697 N693 0.985 . S
H698 N692 0.984 . S
H699 N692 0.984 . S
H700 N688 0.984 . S
H701 N688 0.985 . S
C702 C703 1.363 . S
C702 C708 1.379 . S
C702 N710 1.356 . S
C703 C702 1.363 . S
C703 C709 1.363 . S
C704 C705 1.363 . S
C704 C709 1.379 . S
C704 N711 1.356 . S
C705 C704 1.363 . S
C705 C708 1.363 . S
N706 C708 1.356 . S
N706 H718 0.984 . S
N706 H719 0.985 . S
N707 C709 1.356 . S
N707 H712 0.984 . S
N707 H713 0.985 . S
C708 C702 1.379 . S
C708 C705 1.363 . S
C708 N706 1.356 . S
C709 C703 1.363 . S
C709 C704 1.379 . S
C709 N707 1.356 . S
N710 C702 1.356 . S
N710 H716 0.984 . S
N710 H717 0.984 . S
N711 C704 1.356 . S
N711 H714 0.984 . S
N711 H715 0.985 . S
H712 N707 0.984 . S
H713 N707 0.985 . S
H714 N711 0.984 . S
H715 N711 0.985 . S
H716 N710 0.984 . S
H717 N710 0.984 . S
H718 N706 0.984 . S
H719 N706 0.985 . S
C720 C721 1.363 . S
C720 C726 1.379 . S
C720 N728 1.356 . S
C721 C720 1.363 . S
C721 C727 1.363 . S
C722 C723 1.363 . S
C722 C727 1.379 . S
C722 N729 1.356 . S
C723 C722 1.363 . S
C723 C726 1.363 . S
N724 C726 1.356 . S
N724 H736 0.984 . S
N724 H737 0.985 . S
N725 C727 1.356 . S
N725 H730 0.984 . S
N725 H731 0.985 . S
C726 C720 1.379 . S
C726 C723 1.363 . S
C726 N724 1.356 . S
C727 C721 1.363 . S
C727 C722 1.379 . S
C727 N725 1.356 . S
N728 C720 1.356 . S
N728 H734 0.984 . S
N728 H735 0.984 . S
N729 C722 1.356 . S
N729 H732 0.984 . S
N729 H733 0.985 . S
H730 N725 0.984 . S
H731 N725 0.985 . S
H732 N729 0.984 . S
H733 N729 0.985 . S
H734 N728 0.984 . S
H735 N728 0.984 . S
H736 N724 0.984 . S
H737 N724 0.985 . S
C738 C739 1.363 . S
C738 C744 1.379 . S
C738 N746 1.356 1_556 S
C739 C738 1.363 . S
C739 C745 1.363 . S
C740 C741 1.363 . S
C740 C745 1.379 . S
C740 N747 1.356 . S
C741 C740 1.363 . S
C741 C744 1.363 . S
N742 C744 1.356 . S
N742 H754 0.984 . S
N742 H755 0.985 . S
N743 C745 1.356 . S
N743 H748 0.984 . S
N743 H749 0.985 . S
C744 C738 1.379 . S
C744 C741 1.363 . S
C744 N742 1.356 . S
C745 C739 1.363 . S
C745 C740 1.379 . S
C745 N743 1.356 . S
N746 C738 1.356 1_554 S
N746 H752 0.984 . S
N746 H753 0.984 . S
N747 C740 1.356 . S
N747 H750 0.984 . S
N747 H751 0.985 . S
H748 N743 0.984 . S
H749 N743 0.985 . S
H750 N747 0.984 . S
H751 N747 0.985 . S
H752 N746 0.984 . S
H753 N746 0.984 . S
H754 N742 0.984 . S
H755 N742 0.985 . S
C756 C757 1.363 . S
C756 C762 1.379 . S
C756 N764 1.356 . S
C757 C756 1.363 . S
C757 C763 1.363 . S
C758 C759 1.363 . S
C758 C763 1.379 . S
C758 N765 1.356 . S
C759 C758 1.363 . S
C759 C762 1.363 . S
N760 C762 1.356 . S
N760 H772 0.984 . S
N760 H773 0.985 . S
N761 C763 1.356 . S
N761 H766 0.984 . S
N761 H767 0.985 . S
C762 C756 1.379 . S
C762 C759 1.363 . S
C762 N760 1.356 . S
C763 C757 1.363 . S
C763 C758 1.379 . S
C763 N761 1.356 . S
N764 C756 1.356 . S
N764 H770 0.984 . S
N764 H771 0.984 . S
N765 C758 1.356 . S
N765 H768 0.984 . S
N765 H769 0.985 . S
H766 N761 0.984 . S
H767 N761 0.985 . S
H768 N765 0.984 . S
H769 N765 0.985 . S
H770 N764 0.984 . S
H771 N764 0.984 . S
H772 N760 0.984 . S
H773 N760 0.985 . S
C774 C775 1.363 . S
C774 C780 1.379 . S
C774 N782 1.356 . S
C775 C774 1.363 . S
C775 C781 1.363 . S
C776 C777 1.363 . S
C776 C781 1.379 . S
C776 N783 1.356 . S
C777 C776 1.363 . S
C777 C780 1.363 . S
N778 C780 1.356 . S
N778 H790 0.984 . S
N778 H791 0.985 . S
N779 C781 1.356 . S
N779 H784 0.984 . S
N779 H785 0.985 . S
C780 C774 1.379 . S
C780 C777 1.363 . S
C780 N778 1.356 . S
C781 C775 1.363 . S
C781 C776 1.379 . S
C781 N779 1.356 . S
N782 C774 1.356 . S
N782 H788 0.984 . S
N782 H789 0.984 . S
N783 C776 1.356 . S
N783 H786 0.984 . S
N783 H787 0.985 . S
H784 N779 0.984 . S
H785 N779 0.985 . S
H786 N783 0.984 . S
H787 N783 0.985 . S
H788 N782 0.984 . S
H789 N782 0.984 . S
H790 N778 0.984 . S
H791 N778 0.985 . S
C792 C793 1.363 . S
C792 C798 1.379 . S
C792 N800 1.356 . S
C793 C792 1.363 . S
C793 C799 1.363 . S
C794 C795 1.363 . S
C794 C799 1.379 . S
C794 N801 1.356 . S
C795 C794 1.363 . S
C795 C798 1.363 . S
N796 C798 1.356 . S
N796 H808 0.984 . S
N796 H809 0.985 . S
N797 C799 1.356 . S
N797 H802 0.984 . S
N797 H803 0.985 . S
C798 C792 1.379 . S
C798 C795 1.363 . S
C798 N796 1.356 . S
C799 C793 1.363 . S
C799 C794 1.379 . S
C799 N797 1.356 . S
N800 C792 1.356 . S
N800 H806 0.984 . S
N800 H807 0.984 . S
N801 C794 1.356 . S
N801 H804 0.984 . S
N801 H805 0.985 . S
H802 N797 0.984 . S
H803 N797 0.985 . S
H804 N801 0.984 . S
H805 N801 0.985 . S
H806 N800 0.984 . S
H807 N800 0.984 . S
H808 N796 0.984 . S
H809 N796 0.985 . S
C810 C811 1.363 . S
C810 C816 1.379 . S
C810 N818 1.356 . S
C811 C810 1.363 . S
C811 C817 1.363 . S
C812 C813 1.363 . S
C812 C817 1.379 . S
C812 N819 1.356 . S
C813 C812 1.363 . S
C813 C816 1.363 . S
N814 C816 1.356 . S
N814 H826 0.984 . S
N814 H827 0.985 . S
N815 C817 1.356 . S
N815 H820 0.984 . S
N815 H821 0.985 . S
C816 C810 1.379 . S
C816 C813 1.363 . S
C816 N814 1.356 . S
C817 C811 1.363 . S
C817 C812 1.379 . S
C817 N815 1.356 . S
N818 C810 1.356 . S
N818 H824 0.984 . S
N818 H825 0.984 . S
N819 C812 1.356 . S
N819 H822 0.984 . S
N819 H823 0.985 . S
H820 N815 0.984 . S
H821 N815 0.985 . S
H822 N819 0.984 . S
H823 N819 0.985 . S
H824 N818 0.984 . S
H825 N818 0.984 . S
H826 N814 0.984 . S
H827 N814 0.985 . S
C828 C829 1.363 . S
C828 C834 1.379 . S
C828 N836 1.356 . S
C829 C828 1.363 . S
C829 C835 1.363 . S
C830 C831 1.363 . S
C830 C835 1.379 . S
C830 N837 1.356 . S
C831 C830 1.363 . S
C831 C834 1.363 . S
N832 C834 1.356 . S
N832 H844 0.984 . S
N832 H845 0.985 . S
N833 C835 1.356 . S
N833 H838 0.984 . S
N833 H839 0.985 . S
C834 C828 1.379 . S
C834 C831 1.363 . S
C834 N832 1.356 . S
C835 C829 1.363 . S
C835 C830 1.379 . S
C835 N833 1.356 . S
N836 C828 1.356 . S
N836 H842 0.984 . S
N836 H843 0.984 . S
N837 C830 1.356 . S
N837 H840 0.984 . S
N837 H841 0.985 . S
H838 N833 0.984 . S
H839 N833 0.985 . S
H840 N837 0.984 . S
H841 N837 0.985 . S
H842 N836 0.984 . S
H843 N836 0.984 . S
H844 N832 0.984 . S
H845 N832 0.985 . S
C846 C847 1.363 . S
C846 C852 1.379 . S
C846 N854 1.356 . S
C847 C846 1.363 . S
C847 C853 1.363 . S
C848 C849 1.363 . S
C848 C853 1.379 . S
C848 N855 1.356 1_554 S
C849 C848 1.363 . S
C849 C852 1.363 . S
N850 C852 1.356 . S
N850 H862 0.984 . S
N850 H863 0.985 . S
N851 C853 1.356 . S
N851 H856 0.984 . S
N851 H857 0.985 . S
C852 C846 1.379 . S
C852 C849 1.363 . S
C852 N850 1.356 . S
C853 C847 1.363 . S
C853 C848 1.379 . S
C853 N851 1.356 . S
N854 C846 1.356 . S
N854 H860 0.984 . S
N854 H861 0.984 . S
N855 C848 1.356 1_556 S
N855 H858 0.984 . S
N855 H859 0.985 . S
H856 N851 0.984 . S
H857 N851 0.985 . S
H858 N855 0.984 . S
H859 N855 0.985 . S
H860 N854 0.984 . S
H861 N854 0.984 . S
H862 N850 0.984 . S
H863 N850 0.985 . S
C864 C865 1.363 . S
C864 C870 1.379 . S
C864 N872 1.356 1_554 S
C865 C864 1.363 . S
C865 C871 1.363 . S
C866 C867 1.363 . S
C866 C871 1.379 . S
C866 N873 1.356 . S
C867 C866 1.363 . S
C867 C870 1.363 . S
N868 C870 1.356 . S
N868 H880 0.984 . S
N868 H881 0.985 . S
N869 C871 1.356 . S
N869 H874 0.984 . S
N869 H875 0.985 . S
C870 C864 1.379 . S
C870 C867 1.363 . S
C870 N868 1.356 . S
C871 C865 1.363 . S
C871 C866 1.379 . S
C871 N869 1.356 . S
N872 C864 1.356 1_556 S
N872 H878 0.984 . S
N872 H879 0.984 . S
N873 C866 1.356 . S
N873 H876 0.984 . S
N873 H877 0.985 . S
H874 N869 0.984 . S
H875 N869 0.985 . S
H876 N873 0.984 . S
H877 N873 0.985 . S
H878 N872 0.984 . S
H879 N872 0.984 . S
H880 N868 0.984 . S
H881 N868 0.985 . S
C882 C883 1.363 . S
C882 C888 1.379 . S
C882 N890 1.356 . S
C883 C882 1.363 . S
C883 C889 1.363 . S
C884 C885 1.363 . S
C884 C889 1.379 . S
C884 N891 1.356 . S
C885 C884 1.363 . S
C885 C888 1.363 . S
N886 C888 1.356 . S
N886 H898 0.984 . S
N886 H899 0.985 . S
N887 C889 1.356 . S
N887 H892 0.984 . S
N887 H893 0.985 . S
C888 C882 1.379 . S
C888 C885 1.363 . S
C888 N886 1.356 . S
C889 C883 1.363 . S
C889 C884 1.379 . S
C889 N887 1.356 . S
N890 C882 1.356 . S
N890 H896 0.984 . S
N890 H897 0.984 . S
N891 C884 1.356 . S
N891 H894 0.984 . S
N891 H895 0.985 . S
H892 N887 0.984 . S
H893 N887 0.985 . S
H894 N891 0.984 . S
H895 N891 0.985 . S
H896 N890 0.984 . S
H897 N890 0.984 . S
H898 N886 0.984 . S
H899 N886 0.985 . S
C900 C901 1.363 . S
C900 C906 1.379 . S
C900 N908 1.356 . S
C901 C900 1.363 . S
C901 C907 1.363 . S
C902 C903 1.363 . S
C902 C907 1.379 . S
C902 N909 1.356 . S
C903 C902 1.363 . S
C903 C906 1.363 . S
N904 C906 1.356 . S
N904 H916 0.984 . S
N904 H917 0.985 . S
N905 C907 1.356 . S
N905 H910 0.984 . S
N905 H911 0.985 . S
C906 C900 1.379 . S
C906 C903 1.363 . S
C906 N904 1.356 . S
C907 C901 1.363 . S
C907 C902 1.379 . S
C907 N905 1.356 . S
N908 C900 1.356 . S
N908 H914 0.984 . S
N908 H915 0.984 . S
N909 C902 1.356 . S
N909 H912 0.984 . S
N909 H913 0.985 . S
H910 N905 0.984 . S
H911 N905 0.985 . S
H912 N909 0.984 . S
H913 N909 0.985 . S
H914 N908 0.984 . S
H915 N908 0.984 . S
H916 N904 0.984 . S
H917 N904 0.985 . S
C918 C919 1.363 . S
C918 C924 1.379 . S
C918 N926 1.356 . S
C919 C918 1.363 . S
C919 C925 1.363 . S
C920 C921 1.363 . S
C920 C925 1.379 . S
C920 N927 1.356 . S
C921 C920 1.363 . S
C921 C924 1.363 . S
N922 C924 1.356 . S
N922 H934 0.984 . S
N922 H935 0.985 . S
N923 C925 1.356 . S
N923 H928 0.984 . S
N923 H929 0.985 . S
C924 C918 1.379 . S
C924 C921 1.363 . S
C924 N922 1.356 . S
C925 C919 1.363 . S
C925 C920 1.379 . S
C925 N923 1.356 . S
N926 C918 1.356 . S
N926 H932 0.984 . S
N926 H933 0.984 . S
N927 C920 1.356 . S
N927 H930 0.984 . S
N927 H931 0.985 . S
H928 N923 0.984 . S
H929 N923 0.985 . S
H930 N927 0.984 . S
H931 N927 0.985 . S
H932 N926 0.984 . S
H933 N926 0.984 . S
H934 N922 0.984 . S
H935 N922 0.985 . S
C936 C937 1.363 . S
C936 C942 1.379 . S
C936 N944 1.356 . S
C937 C936 1.363 . S
C937 C943 1.363 . S
C938 C939 1.363 . S
C938 C943 1.379 . S
C938 N945 1.356 . S
C939 C938 1.363 . S
C939 C942 1.363 . S
N940 C942 1.356 . S
N940 H952 0.984 . S
N940 H953 0.985 . S
N941 C943 1.356 . S
N941 H946 0.984 . S
N941 H947 0.985 . S
C942 C936 1.379 . S
C942 C939 1.363 . S
C942 N940 1.356 . S
C943 C937 1.363 . S
C943 C938 1.379 . S
C943 N941 1.356 . S
N944 C936 1.356 . S
N944 H950 0.984 . S
N944 H951 0.984 . S
N945 C938 1.356 . S
N945 H948 0.984 . S
N945 H949 0.985 . S
H946 N941 0.984 . S
H947 N941 0.985 . S
H948 N945 0.984 . S
H949 N945 0.985 . S
H950 N944 0.984 . S
H951 N944 0.984 . S
H952 N940 0.984 . S
H953 N940 0.985 . S
C954 C955 1.363 . S
C954 C960 1.379 . S
C954 N962 1.356 . S
C955 C954 1.363 . S
C955 C961 1.363 . S
C956 C957 1.363 . S
C956 C961 1.379 . S
C956 N963 1.356 . S
C957 C956 1.363 . S
C957 C960 1.363 . S
N958 C960 1.356 . S
N958 H970 0.984 . S
N958 H971 0.985 . S
N959 C961 1.356 . S
N959 H964 0.984 . S
N959 H965 0.985 . S
C960 C954 1.379 . S
C960 C957 1.363 . S
C960 N958 1.356 . S
C961 C955 1.363 . S
C961 C956 1.379 . S
C961 N959 1.356 . S
N962 C954 1.356 . S
N962 H968 0.984 . S
N962 H969 0.984 . S
N963 C956 1.356 . S
N963 H966 0.984 . S
N963 H967 0.985 1_554 S
H964 N959 0.984 . S
H965 N959 0.985 . S
H966 N963 0.984 . S
H967 N963 0.985 1_556 S
H968 N962 0.984 . S
H969 N962 0.984 . S
H970 N958 0.984 . S
H971 N958 0.985 . S
C972 C973 1.363 . S
C972 C978 1.379 . S
C972 N980 1.356 . S
C973 C972 1.363 . S
C973 C979 1.363 . S
C974 C975 1.363 . S
C974 C979 1.379 . S
C974 N981 1.356 . S
C975 C974 1.363 . S
C975 C978 1.363 . S
N976 C978 1.356 . S
N976 H988 0.984 . S
N976 H989 0.985 . S
N977 C979 1.356 . S
N977 H982 0.984 . S
N977 H983 0.985 . S
C978 C972 1.379 . S
C978 C975 1.363 . S
C978 N976 1.356 . S
C979 C973 1.363 . S
C979 C974 1.379 . S
C979 N977 1.356 . S
N980 C972 1.356 . S
N980 H986 0.984 . S
N980 H987 0.984 . S
N981 C974 1.356 . S
N981 H984 0.984 . S
N981 H985 0.985 . S
H982 N977 0.984 . S
H983 N977 0.985 . S
H984 N981 0.984 . S
H985 N981 0.985 . S
H986 N980 0.984 . S
H987 N980 0.984 . S
H988 N976 0.984 . S
H989 N976 0.985 . S
C990 C991 1.363 . S
C990 C996 1.379 . S
C990 N998 1.356 . S
C991 C990 1.363 . S
C991 C997 1.363 . S
C992 C993 1.363 . S
C992 C997 1.379 . S
C992 N999 1.356 . S
C993 C992 1.363 . S
C993 C996 1.363 . S
N994 C996 1.356 . S
N994 H1006 0.984 . S
N994 H1007 0.985 . S
N995 C997 1.356 . S
N995 H1000 0.984 . S
N995 H1001 0.985 . S
C996 C990 1.379 . S
C996 C993 1.363 . S
C996 N994 1.356 . S
C997 C991 1.363 . S
C997 C992 1.379 . S
C997 N995 1.356 . S
N998 C990 1.356 . S
N998 H1004 0.984 . S
N998 H1005 0.984 . S
N999 C992 1.356 . S
N999 H1002 0.984 . S
N999 H1003 0.985 . S
H1000 N995 0.984 . S
H1001 N995 0.985 . S
H1002 N999 0.984 . S
H1003 N999 0.985 . S
H1004 N998 0.984 . S
H1005 N998 0.984 . S
H1006 N994 0.984 . S
H1007 N994 0.985 . S
C1008 C1009 1.363 . S
C1008 C1014 1.379 . S
C1008 N1016 1.356 . S
C1009 C1008 1.363 . S
C1009 C1015 1.363 . S
C1010 C1011 1.363 . S
C1010 C1015 1.379 . S
C1010 N1017 1.356 . S
C1011 C1010 1.363 . S
C1011 C1014 1.363 . S
N1012 C1014 1.356 . S
N1012 H1024 0.984 . S
N1012 H1025 0.985 . S
N1013 C1015 1.356 . S
N1013 H1018 0.984 . S
N1013 H1019 0.985 . S
C1014 C1008 1.379 . S
C1014 C1011 1.363 . S
C1014 N1012 1.356 . S
C1015 C1009 1.363 . S
C1015 C1010 1.379 . S
C1015 N1013 1.356 . S
N1016 C1008 1.356 . S
N1016 H1022 0.984 . S
N1016 H1023 0.984 . S
N1017 C1010 1.356 . S
N1017 H1020 0.984 . S
N1017 H1021 0.985 . S
H1018 N1013 0.984 . S
H1019 N1013 0.985 . S
H1020 N1017 0.984 . S
H1021 N1017 0.985 . S
H1022 N1016 0.984 . S
H1023 N1016 0.984 . S
H1024 N1012 0.984 . S
H1025 N1012 0.985 . S
C1026 C1027 1.363 . S
C1026 C1032 1.379 . S
C1026 N1034 1.356 . S
C1027 C1026 1.363 . S
C1027 C1033 1.363 . S
C1028 C1029 1.363 . S
C1028 C1033 1.379 . S
C1028 N1035 1.356 . S
C1029 C1028 1.363 . S
C1029 C1032 1.363 . S
N1030 C1032 1.356 . S
N1030 H1042 0.984 . S
N1030 H1043 0.985 . S
N1031 C1033 1.356 . S
N1031 H1036 0.984 . S
N1031 H1037 0.985 . S
C1032 C1026 1.379 . S
C1032 C1029 1.363 . S
C1032 N1030 1.356 . S
C1033 C1027 1.363 . S
C1033 C1028 1.379 . S
C1033 N1031 1.356 . S
N1034 C1026 1.356 . S
N1034 H1040 0.984 . S
N1034 H1041 0.984 . S
N1035 C1028 1.356 . S
N1035 H1038 0.984 . S
N1035 H1039 0.985 . S
H1036 N1031 0.984 . S
H1037 N1031 0.985 . S
H1038 N1035 0.984 . S
H1039 N1035 0.985 . S
H1040 N1034 0.984 . S
H1041 N1034 0.984 . S
H1042 N1030 0.984 . S
H1043 N1030 0.985 . S
C1044 C1045 1.363 . S
C1044 C1050 1.379 . S
C1044 N1052 1.356 . S
C1045 C1044 1.363 . S
C1045 C1051 1.363 . S
C1046 C1047 1.363 . S
C1046 C1051 1.379 . S
C1046 N1053 1.356 . S
C1047 C1046 1.363 . S
C1047 C1050 1.363 . S
N1048 C1050 1.356 . S
N1048 H1060 0.984 . S
N1048 H1061 0.985 . S
N1049 C1051 1.356 . S
N1049 H1054 0.984 . S
N1049 H1055 0.985 . S
C1050 C1044 1.379 . S
C1050 C1047 1.363 . S
C1050 N1048 1.356 . S
C1051 C1045 1.363 . S
C1051 C1046 1.379 . S
C1051 N1049 1.356 . S
N1052 C1044 1.356 . S
N1052 H1058 0.984 . S
N1052 H1059 0.984 . S
N1053 C1046 1.356 . S
N1053 H1056 0.984 . S
N1053 H1057 0.985 . S
H1054 N1049 0.984 . S
H1055 N1049 0.985 . S
H1056 N1053 0.984 . S
H1057 N1053 0.985 . S
H1058 N1052 0.984 . S
H1059 N1052 0.984 . S
H1060 N1048 0.984 . S
H1061 N1048 0.985 . S
C1062 C1063 1.363 . S
C1062 C1068 1.379 . S
C1062 N1070 1.356 . S
C1063 C1062 1.363 . S
C1063 C1069 1.363 . S
C1064 C1065 1.363 . S
C1064 C1069 1.379 . S
C1064 N1071 1.356 . S
C1065 C1064 1.363 . S
C1065 C1068 1.363 . S
N1066 C1068 1.356 . S
N1066 H1078 0.984 . S
N1066 H1079 0.985 . S
N1067 C1069 1.356 . S
N1067 H1072 0.984 . S
N1067 H1073 0.985 . S
C1068 C1062 1.379 . S
C1068 C1065 1.363 . S
C1068 N1066 1.356 . S
C1069 C1063 1.363 . S
C1069 C1064 1.379 . S
C1069 N1067 1.356 . S
N1070 C1062 1.356 . S
N1070 H1076 0.984 . S
N1070 H1077 0.984 . S
N1071 C1064 1.356 . S
N1071 H1074 0.984 . S
N1071 H1075 0.985 . S
H1072 N1067 0.984 . S
H1073 N1067 0.985 . S
H1074 N1071 0.984 . S
H1075 N1071 0.985 . S
H1076 N1070 0.984 . S
H1077 N1070 0.984 . S
H1078 N1066 0.984 . S
H1079 N1066 0.985 . S
C1080 C1081 1.363 . S
C1080 C1086 1.379 . S
C1080 N1088 1.356 . S
C1081 C1080 1.363 . S
C1081 C1087 1.363 . S
C1082 C1083 1.363 . S
C1082 C1087 1.379 . S
C1082 N1089 1.356 . S
C1083 C1082 1.363 . S
C1083 C1086 1.363 . S
N1084 C1086 1.356 . S
N1084 H1096 0.984 . S
N1084 H1097 0.985 . S
N1085 C1087 1.356 . S
N1085 H1090 0.984 . S
N1085 H1091 0.985 . S
C1086 C1080 1.379 . S
C1086 C1083 1.363 . S
C1086 N1084 1.356 . S
C1087 C1081 1.363 . S
C1087 C1082 1.379 . S
C1087 N1085 1.356 . S
N1088 C1080 1.356 . S
N1088 H1094 0.984 . S
N1088 H1095 0.984 . S
N1089 C1082 1.356 . S
N1089 H1092 0.984 . S
N1089 H1093 0.985 . S
H1090 N1085 0.984 . S
H1091 N1085 0.985 . S
H1092 N1089 0.984 . S
H1093 N1089 0.985 . S
H1094 N1088 0.984 . S
H1095 N1088 0.984 . S
H1096 N1084 0.984 . S
H1097 N1084 0.985 . S
C1098 C1099 1.363 . S
C1098 C1104 1.379 . S
C1098 N1106 1.356 . S
C1099 C1098 1.363 . S
C1099 C1105 1.363 . S
C1100 C1101 1.363 . S
C1100 C1105 1.379 . S
C1100 N1107 1.356 1_556 S
C1101 C1100 1.363 . S
C1101 C1104 1.363 . S
N1102 C1104 1.356 . S
N1102 H1114 0.984 . S
N1102 H1115 0.985 1_556 S
N1103 C1105 1.356 . S
N1103 H1108 0.984 . S
N1103 H1109 0.985 . S
C1104 C1098 1.379 . S
C1104 C1101 1.363 . S
C1104 N1102 1.356 . S
C1105 C1099 1.363 . S
C1105 C1100 1.379 . S
C1105 N1103 1.356 . S
N1106 C1098 1.356 . S
N1106 H1112 0.984 . S
N1106 H1113 0.984 . S
N1107 C1100 1.356 1_554 S
N1107 H1110 0.984 . S
N1107 H1111 0.985 . S
H1108 N1103 0.984 . S
H1109 N1103 0.985 . S
H1110 N1107 0.984 . S
H1111 N1107 0.985 . S
H1112 N1106 0.984 . S
H1113 N1106 0.984 . S
H1114 N1102 0.984 . S
H1115 N1102 0.985 1_554 S
C1116 C1117 1.363 . S
C1116 C1122 1.379 . S
C1116 N1124 1.356 . S
C1117 C1116 1.363 . S
C1117 C1123 1.363 . S
C1118 C1119 1.363 . S
C1118 C1123 1.379 . S
C1118 N1125 1.356 1_556 S
C1119 C1118 1.363 . S
C1119 C1122 1.363 . S
N1120 C1122 1.356 . S
N1120 H1132 0.984 . S
N1120 H1133 0.985 1_556 S
N1121 C1123 1.356 . S
N1121 H1126 0.984 . S
N1121 H1127 0.985 1_655 S
C1122 C1116 1.379 . S
C1122 C1119 1.363 . S
C1122 N1120 1.356 . S
C1123 C1117 1.363 . S
C1123 C1118 1.379 . S
C1123 N1121 1.356 . S
N1124 C1116 1.356 . S
N1124 H1130 0.984 . S
N1124 H1131 0.984 . S
N1125 C1118 1.356 1_554 S
N1125 H1128 0.984 . S
N1125 H1129 0.985 . S
H1126 N1121 0.984 . S
H1127 N1121 0.985 1_455 S
H1128 N1125 0.984 . S
H1129 N1125 0.985 . S
H1130 N1124 0.984 . S
H1131 N1124 0.984 . S
H1132 N1120 0.984 . S
H1133 N1120 0.985 1_554 S
C1134 C1135 1.363 . S
C1134 C1140 1.379 . S
C1134 N1142 1.356 . S
C1135 C1134 1.363 . S
C1135 C1141 1.363 . S
C1136 C1137 1.363 . S
C1136 C1141 1.379 . S
C1136 N1143 1.356 1_556 S
C1137 C1136 1.363 . S
C1137 C1140 1.363 . S
N1138 C1140 1.356 . S
N1138 H1150 0.984 . S
N1138 H1151 0.985 . S
N1139 C1141 1.356 . S
N1139 H1144 0.984 . S
N1139 H1145 0.985 . S
C1140 C1134 1.379 . S
C1140 C1137 1.363 . S
C1140 N1138 1.356 . S
C1141 C1135 1.363 . S
C1141 C1136 1.379 . S
C1141 N1139 1.356 . S
N1142 C1134 1.356 . S
N1142 H1148 0.984 . S
N1142 H1149 0.984 . S
N1143 C1136 1.356 1_554 S
N1143 H1146 0.984 . S
N1143 H1147 0.985 . S
H1144 N1139 0.984 . S
H1145 N1139 0.985 . S
H1146 N1143 0.984 . S
H1147 N1143 0.985 . S
H1148 N1142 0.984 . S
H1149 N1142 0.984 . S
H1150 N1138 0.984 . S
H1151 N1138 0.985 . S
C1152 C1153 1.363 . S
C1152 C1158 1.379 . S
C1152 N1160 1.356 . S
C1153 C1152 1.363 . S
C1153 C1159 1.363 . S
C1154 C1155 1.363 . S
C1154 C1159 1.379 . S
C1154 N1161 1.356 . S
C1155 C1154 1.363 . S
C1155 C1158 1.363 . S
N1156 C1158 1.356 . S
N1156 H1168 0.984 . S
N1156 H1169 0.985 . S
N1157 C1159 1.356 . S
N1157 H1162 0.984 . S
N1157 H1163 0.985 . S
C1158 C1152 1.379 . S
C1158 C1155 1.363 . S
C1158 N1156 1.356 . S
C1159 C1153 1.363 . S
C1159 C1154 1.379 . S
C1159 N1157 1.356 . S
N1160 C1152 1.356 . S
N1160 H1166 0.984 . S
N1160 H1167 0.984 . S
N1161 C1154 1.356 . S
N1161 H1164 0.984 . S
N1161 H1165 0.985 . S
H1162 N1157 0.984 . S
H1163 N1157 0.985 . S
H1164 N1161 0.984 . S
H1165 N1161 0.985 . S
H1166 N1160 0.984 . S
H1167 N1160 0.984 . S
H1168 N1156 0.984 . S
H1169 N1156 0.985 . S
C1170 C1171 1.363 . S
C1170 C1176 1.379 . S
C1170 N1178 1.356 . S
C1171 C1170 1.363 . S
C1171 C1177 1.363 . S
C1172 C1173 1.363 . S
C1172 C1177 1.379 . S
C1172 N1179 1.356 . S
C1173 C1172 1.363 . S
C1173 C1176 1.363 . S
N1174 C1176 1.356 . S
N1174 H1186 0.984 . S
N1174 H1187 0.985 . S
N1175 C1177 1.356 . S
N1175 H1180 0.984 . S
N1175 H1181 0.985 . S
C1176 C1170 1.379 . S
C1176 C1173 1.363 . S
C1176 N1174 1.356 . S
C1177 C1171 1.363 . S
C1177 C1172 1.379 . S
C1177 N1175 1.356 . S
N1178 C1170 1.356 . S
N1178 H1184 0.984 . S
N1178 H1185 0.984 . S
N1179 C1172 1.356 . S
N1179 H1182 0.984 . S
N1179 H1183 0.985 . S
H1180 N1175 0.984 . S
H1181 N1175 0.985 . S
H1182 N1179 0.984 . S
H1183 N1179 0.985 . S
H1184 N1178 0.984 . S
H1185 N1178 0.984 . S
H1186 N1174 0.984 . S
H1187 N1174 0.985 . S
C1188 C1189 1.363 . S
C1188 C1194 1.379 . S
C1188 N1196 1.356 . S
C1189 C1188 1.363 . S
C1189 C1195 1.363 . S
C1190 C1191 1.363 . S
C1190 C1195 1.379 . S
C1190 N1197 1.356 . S
C1191 C1190 1.363 . S
C1191 C1194 1.363 . S
N1192 C1194 1.356 . S
N1192 H1204 0.984 . S
N1192 H1205 0.985 . S
N1193 C1195 1.356 . S
N1193 H1198 0.984 . S
N1193 H1199 0.985 . S
C1194 C1188 1.379 . S
C1194 C1191 1.363 . S
C1194 N1192 1.356 . S
C1195 C1189 1.363 . S
C1195 C1190 1.379 . S
C1195 N1193 1.356 . S
N1196 C1188 1.356 . S
N1196 H1202 0.984 . S
N1196 H1203 0.984 . S
N1197 C1190 1.356 . S
N1197 H1200 0.984 . S
N1197 H1201 0.985 . S
H1198 N1193 0.984 . S
H1199 N1193 0.985 . S
H1200 N1197 0.984 . S
H1201 N1197 0.985 . S
H1202 N1196 0.984 . S
H1203 N1196 0.984 . S
H1204 N1192 0.984 . S
H1205 N1192 0.985 . S
C1206 C1207 1.363 . S
C1206 C1212 1.379 . S
C1206 N1214 1.356 . S
C1207 C1206 1.363 . S
C1207 C1213 1.363 1_554 S
C1208 C1209 1.363 . S
C1208 C1213 1.379 1_554 S
C1208 N1215 1.356 . S
C1209 C1208 1.363 . S
C1209 C1212 1.363 . S
N1210 C1212 1.356 . S
N1210 H1222 0.984 . S
N1210 H1223 0.985 . S
N1211 C1213 1.356 . S
N1211 H1216 0.984 . S
N1211 H1217 0.985 . S
C1212 C1206 1.379 . S
C1212 C1209 1.363 . S
C1212 N1210 1.356 . S
C1213 C1207 1.363 1_556 S
C1213 C1208 1.379 1_556 S
C1213 N1211 1.356 . S
N1214 C1206 1.356 . S
N1214 H1220 0.984 . S
N1214 H1221 0.984 . S
N1215 C1208 1.356 . S
N1215 H1218 0.984 . S
N1215 H1219 0.985 . S
H1216 N1211 0.984 . S
H1217 N1211 0.985 . S
H1218 N1215 0.984 . S
H1219 N1215 0.985 . S
H1220 N1214 0.984 . S
H1221 N1214 0.984 . S
H1222 N1210 0.984 . S
H1223 N1210 0.985 . S
C1224 C1225 1.363 . S
C1224 C1230 1.379 . S
C1224 N1232 1.356 . S
C1225 C1224 1.363 . S
C1225 C1231 1.363 . S
C1226 C1227 1.363 . S
C1226 C1231 1.379 . S
C1226 N1233 1.356 1_554 S
C1227 C1226 1.363 . S
C1227 C1230 1.363 . S
N1228 C1230 1.356 . S
N1228 H1240 0.984 . S
N1228 H1241 0.985 . S
N1229 C1231 1.356 . S
N1229 H1234 0.984 . S
N1229 H1235 0.985 . S
C1230 C1224 1.379 . S
C1230 C1227 1.363 . S
C1230 N1228 1.356 . S
C1231 C1225 1.363 . S
C1231 C1226 1.379 . S
C1231 N1229 1.356 . S
N1232 C1224 1.356 . S
N1232 H1238 0.984 . S
N1232 H1239 0.984 . S
N1233 C1226 1.356 1_556 S
N1233 H1236 0.984 . S
N1233 H1237 0.985 . S
H1234 N1229 0.984 . S
H1235 N1229 0.985 . S
H1236 N1233 0.984 . S
H1237 N1233 0.985 . S
H1238 N1232 0.984 . S
H1239 N1232 0.984 . S
H1240 N1228 0.984 . S
H1241 N1228 0.985 . S
C1242 C1243 1.363 . S
C1242 C1248 1.379 . S
C1242 N1250 1.356 . S
C1243 C1242 1.363 . S
C1243 C1249 1.363 . S
C1244 C1245 1.363 1_556 S
C1244 C1249 1.378 1_556 S
C1244 N1251 1.357 . S
C1245 C1244 1.363 1_554 S
C1245 C1248 1.363 . S
N1246 C1248 1.356 . S
N1246 H1258 0.984 . S
N1246 H1259 0.985 . S
N1247 C1249 1.356 . S
N1247 H1252 0.984 . S
N1247 H1253 0.985 . S
C1248 C1242 1.379 . S
C1248 C1245 1.363 . S
C1248 N1246 1.356 . S
C1249 C1243 1.363 . S
C1249 C1244 1.378 1_554 S
C1249 N1247 1.356 . S
N1250 C1242 1.356 . S
N1250 H1256 0.984 . S
N1250 H1257 0.984 . S
N1251 C1244 1.357 . S
N1251 H1254 0.984 . S
N1251 H1255 0.985 . S
H1252 N1247 0.984 . S
H1253 N1247 0.985 . S
H1254 N1251 0.984 . S
H1255 N1251 0.985 . S
H1256 N1250 0.984 . S
H1257 N1250 0.984 . S
H1258 N1246 0.984 . S
H1259 N1246 0.985 . S
C1260 C1261 1.363 1_455 S
C1260 C1266 1.379 . S
C1260 N1268 1.356 . S
C1261 C1260 1.363 1_655 S
C1261 C1267 1.363 . S
C1262 C1263 1.363 . S
C1262 C1267 1.379 1_455 S
C1262 N1269 1.356 . S
C1263 C1262 1.363 . S
C1263 C1266 1.363 . S
N1264 C1266 1.356 . S
N1264 H1276 0.984 . S
N1264 H1277 0.985 . S
N1265 C1267 1.356 . S
N1265 H1270 0.984 . S
N1265 H1271 0.985 . S
C1266 C1260 1.379 . S
C1266 C1263 1.363 . S
C1266 N1264 1.356 . S
C1267 C1261 1.363 . S
C1267 C1262 1.379 1_655 S
C1267 N1265 1.356 . S
N1268 C1260 1.356 . S
N1268 H1274 0.984 . S
N1268 H1275 0.984 . S
N1269 C1262 1.356 . S
N1269 H1272 0.984 . S
N1269 H1273 0.985 1_455 S
H1270 N1265 0.984 . S
H1271 N1265 0.985 . S
H1272 N1269 0.984 . S
H1273 N1269 0.985 1_655 S
H1274 N1268 0.984 . S
H1275 N1268 0.984 . S
H1276 N1264 0.984 . S
H1277 N1264 0.985 . S
C1278 C1279 1.363 . S
C1278 C1284 1.379 . S
C1278 N1286 1.356 . S
C1279 C1278 1.363 . S
C1279 C1285 1.363 . S
C1280 C1281 1.363 . S
C1280 C1285 1.379 . S
C1280 N1287 1.356 . S
C1281 C1280 1.363 . S
C1281 C1284 1.363 . S
N1282 C1284 1.356 . S
N1282 H1294 0.984 . S
N1282 H1295 0.985 . S
N1283 C1285 1.356 . S
N1283 H1288 0.984 . S
N1283 H1289 0.985 . S
C1284 C1278 1.379 . S
C1284 C1281 1.363 . S
C1284 N1282 1.356 . S
C1285 C1279 1.363 . S
C1285 C1280 1.379 . S
C1285 N1283 1.356 . S
N1286 C1278 1.356 . S
N1286 H1292 0.984 . S
N1286 H1293 0.984 . S
N1287 C1280 1.356 . S
N1287 H1290 0.984 . S
N1287 H1291 0.985 . S
H1288 N1283 0.984 . S
H1289 N1283 0.985 . S
H1290 N1287 0.984 . S
H1291 N1287 0.985 . S
H1292 N1286 0.984 . S
H1293 N1286 0.984 . S
H1294 N1282 0.984 . S
H1295 N1282 0.985 . S
C1296 C1297 1.363 1_545 S
C1296 C1302 1.379 . S
C1296 N1304 1.356 . S
C1297 C1296 1.363 1_565 S
C1297 C1303 1.363 . S
C1298 C1299 1.363 . S
C1298 C1303 1.379 1_545 S
C1298 N1305 1.356 . S
C1299 C1298 1.363 . S
C1299 C1302 1.363 . S
N1300 C1302 1.356 . S
N1300 H1312 0.984 . S
N1300 H1313 0.985 . S
N1301 C1303 1.356 . S
N1301 H1306 0.984 . S
N1301 H1307 0.985 . S
C1302 C1296 1.379 . S
C1302 C1299 1.363 . S
C1302 N1300 1.356 . S
C1303 C1297 1.363 . S
C1303 C1298 1.379 1_565 S
C1303 N1301 1.356 . S
N1304 C1296 1.356 . S
N1304 H1310 0.984 . S
N1304 H1311 0.984 1_545 S
N1305 C1298 1.356 . S
N1305 H1308 0.984 . S
N1305 H1309 0.985 . S
H1306 N1301 0.984 . S
H1307 N1301 0.985 . S
H1308 N1305 0.984 . S
H1309 N1305 0.985 . S
H1310 N1304 0.984 . S
H1311 N1304 0.984 1_565 S
H1312 N1300 0.984 . S
H1313 N1300 0.985 . S
C1314 C1315 1.363 1_545 S
C1314 C1320 1.379 . S
C1314 N1322 1.356 . S
C1315 C1314 1.363 1_565 S
C1315 C1321 1.363 . S
C1316 C1317 1.363 . S
C1316 C1321 1.379 1_545 S
C1316 N1323 1.356 . S
C1317 C1316 1.363 . S
C1317 C1320 1.363 . S
N1318 C1320 1.356 . S
N1318 H1330 0.984 . S
N1318 H1331 0.985 . S
N1319 C1321 1.356 . S
N1319 H1324 0.984 . S
N1319 H1325 0.985 . S
C1320 C1314 1.379 . S
C1320 C1317 1.363 . S
C1320 N1318 1.356 . S
C1321 C1315 1.363 . S
C1321 C1316 1.379 1_565 S
C1321 N1319 1.356 . S
N1322 C1314 1.356 . S
N1322 H1328 0.984 . S
N1322 H1329 0.989 . S
N1323 C1316 1.356 . S
N1323 H1326 0.984 . S
N1323 H1327 0.985 1_545 S
H1324 N1319 0.984 . S
H1325 N1319 0.985 . S
H1326 N1323 0.984 . S
H1327 N1323 0.985 1_565 S
H1328 N1322 0.984 . S
H1329 N1322 0.989 . S
H1330 N1318 0.984 . S
H1331 N1318 0.985 . S
C1332 C1333 1.363 . S
C1332 C1338 1.379 . S
C1332 N1340 1.356 . S
C1333 C1332 1.363 . S
C1333 C1339 1.363 . S
C1334 C1335 1.363 . S
C1334 C1339 1.379 1_655 S
C1334 N1341 1.356 . S
C1335 C1334 1.363 . S
C1335 C1338 1.363 1_655 S
N1336 C1338 1.356 . S
N1336 H1348 0.984 . S
N1336 H1349 0.985 1_455 S
N1337 C1339 1.356 . S
N1337 H1342 0.984 . S
N1337 H1343 0.985 . S
C1338 C1332 1.379 . S
C1338 C1335 1.363 1_455 S
C1338 N1336 1.356 . S
C1339 C1333 1.363 . S
C1339 C1334 1.379 1_455 S
C1339 N1337 1.356 . S
N1340 C1332 1.356 . S
N1340 H1346 0.984 . S
N1340 H1347 0.984 . S
N1341 C1334 1.356 . S
N1341 H1344 0.984 . S
N1341 H1345 0.985 . S
H1342 N1337 0.984 . S
H1343 N1337 0.985 . S
H1344 N1341 0.984 . S
H1345 N1341 0.985 . S
H1346 N1340 0.984 . S
H1347 N1340 0.984 . S
H1348 N1336 0.984 . S
H1349 N1336 0.985 1_655 S
C1350 C1351 1.363 . S
C1350 C1356 1.379 . S
C1350 N1358 1.356 . S
C1351 C1350 1.363 . S
C1351 C1357 1.363 . S
C1352 C1353 1.363 . S
C1352 C1357 1.379 . S
C1352 N1359 1.356 . S
C1353 C1352 1.363 . S
C1353 C1356 1.363 . S
N1354 C1356 1.356 . S
N1354 H1366 0.984 . S
N1354 H1367 0.985 . S
N1355 C1357 1.356 . S
N1355 H1360 0.984 . S
N1355 H1361 0.985 . S
C1356 C1350 1.379 . S
C1356 C1353 1.363 . S
C1356 N1354 1.356 . S
C1357 C1351 1.363 . S
C1357 C1352 1.379 . S
C1357 N1355 1.356 . S
N1358 C1350 1.356 . S
N1358 H1364 0.984 . S
N1358 H1365 0.984 . S
N1359 C1352 1.356 . S
N1359 H1362 0.984 . S
N1359 H1363 0.985 . S
H1360 N1355 0.984 . S
H1361 N1355 0.985 . S
H1362 N1359 0.984 . S
H1363 N1359 0.985 . S
H1364 N1358 0.984 . S
H1365 N1358 0.984 . S
H1366 N1354 0.984 . S
H1367 N1354 0.985 . S
C397 C18 1.288 . S
C399 C98 1.307 . S
C415 C128 1.328 . S
C417 C37 1.323 . S
C433 C59 1.336 . S
C435 C81 1.335 . S
C451 C62 1.296 . S
C453 C95 1.308 . S
C469 C131 1.339 . S
C471 C15 1.339 . S
C487 C40 1.269 . S
C489 C74 1.288 . S
C505 C32 1.285 . S
C507 C76 1.267 . S
C523 C54 1.315 . S
C525 C103 1.310 . S
C541 C117 1.337 . S
C543 C7 1.336 . S
C559 C118 1.304 . S
C561 C29 1.317 . S
C577 C51 1.339 . S
C579 C87 1.340 . S
C595 C10 1.311 . S
C597 C106 1.291 . S
C613 C241 1.345 . S
C615 C147 1.345 . S
C631 C169 1.350 . S
C633 C249 1.349 . S
C649 C191 1.327 . S
C651 C213 1.326 . S
C667 C238 1.288 . S
C669 C194 1.269 . S
C685 C252 1.292 . S
C687 C150 1.274 . S
C703 C206 1.312 . S
C705 C172 1.292 . S
C721 C164 1.305 . S
C723 C208 1.285 . S
C739 C186 1.309 . S
C741 C228 1.290 . S
C757 C142 1.285 . S
C759 C260 1.267 . S
C775 C161 1.329 . S
C777 C257 1.329 . S
C793 C183 1.333 . S
C795 C219 1.333 . S
C811 C227 1.352 . S
C813 C139 1.352 . S
C829 C274 1.280 . S
C831 C362 1.299 . S
C847 C301 1.323 . S
C849 C392 1.329 . S
C865 C337 1.349 . S
C867 C329 1.350 . S
C883 C359 1.309 . S
C885 C318 1.295 . S
C901 C285 1.331 . S
C903 C395 1.331 . S
C919 C304 1.283 . S
C921 C340 1.302 . S
C937 C296 1.298 . S
C939 C348 1.279 . S
C955 C316 1.320 . S
C957 C367 1.315 . S
C973 C279 1.327 . S
C975 C381 1.327 . S
C991 C382 1.308 . S
C993 C293 1.322 . S
C1009 C345 1.352 . S
C1011 C323 1.352 . S
C1027 C272 1.302 . S
C1029 C370 1.282 . S
C1045 C8 1.945 . S
C1047 C294 1.943 . S
C1063 C43 1.947 . S
C1065 C326 1.960 . S
C1081 C65 1.964 . S
C1083 C271 1.962 . S
C1099 C52 1.948 . S
C1101 C175 1.931 1_556 S
C1117 C21 1.966 . S
C1119 C197 1.968 1_556 S
C1135 C30 1.960 . S
C1137 C153 1.945 1_556 S
C1153 C235 1.945 . S
C1155 C84 1.964 . S
C1171 C109 1.982 . S
C1173 C263 1.981 . S
C1189 C125 1.971 . S
C1191 C205 1.967 . S
C1207 C373 1.946 1_554 S
C1209 C120 1.961 . S
C1225 C73 1.963 . S
C1227 C389 1.963 1_554 S
C1243 C96 1.944 . S
C1245 C338 1.944 1_554 S
C1261 C184 1.975 . S
C1263 C307 1.958 . S
C1279 C140 1.961 . S
C1281 C315 1.947 . S
C1297 C282 1.941 . S
C1299 C162 1.939 . S
C1315 C360 1.937 . S
C1317 C216 1.940 . S
C1333 C384 1.925 . S
C1335 C230 1.926 . S
C1351 C250 1.962 . S
C1353 C351 1.943 . S
