# Generated by pormake.
# Topology unb, (4)-cn, num edge types: 1
# Building blocks:
#     Node 0, Type 0, BuildingBlock: ICAMEG_clean_sbu_1, # of connection points: 4
#     Node 1, Type 0, BuildingBlock: ICAMEG_clean_sbu_1, # of connection points: 4
#     Node 2, Type 0, BuildingBlock: ICAMEG_clean_sbu_1, # of connection points: 4
#     Node 3, Type 0, BuildingBlock: ICAMEG_clean_sbu_1, # of connection points: 4
#     Node 4, Type 0, BuildingBlock: ICAMEG_clean_sbu_1, # of connection points: 4
#     Node 5, Type 0, BuildingBlock: ICAMEG_clean_sbu_1, # of connection points: 4
#     Node 6, Type 0, BuildingBlock: ICAMEG_clean_sbu_1, # of connection points: 4
#     Node 7, Type 0, BuildingBlock: ICAMEG_clean_sbu_1, # of connection points: 4
#     Node 8, Type 0, BuildingBlock: ICAMEG_clean_sbu_1, # of connection points: 4
#     Node 9, Type 0, BuildingBlock: ICAMEG_clean_sbu_1, # of connection points: 4
#     Node 10, Type 0, BuildingBlock: ICAMEG_clean_sbu_1, # of connection points: 4
#     Node 11, Type 0, BuildingBlock: ICAMEG_clean_sbu_1, # of connection points: 4
#     Node 12, Type 0, BuildingBlock: ICAMEG_clean_sbu_1, # of connection points: 4
#     Node 13, Type 0, BuildingBlock: ICAMEG_clean_sbu_1, # of connection points: 4
#     Node 14, Type 0, BuildingBlock: ICAMEG_clean_sbu_1, # of connection points: 4
#     Node 15, Type 0, BuildingBlock: ICAMEG_clean_sbu_1, # of connection points: 4
#     Node 16, Type 0, BuildingBlock: ICAMEG_clean_sbu_1, # of connection points: 4
#     Node 17, Type 0, BuildingBlock: ICAMEG_clean_sbu_1, # of connection points: 4
#     Edge 18, Type (0, 0), BuildingBlock: OJICUG_clean_linker_0, # of connection points: 2
#     Edge 19, Type (0, 0), BuildingBlock: OJICUG_clean_linker_0, # of connection points: 2
#     Edge 20, Type (0, 0), BuildingBlock: OJICUG_clean_linker_0, # of connection points: 2
#     Edge 21, Type (0, 0), BuildingBlock: OJICUG_clean_linker_0, # of connection points: 2
#     Edge 22, Type (0, 0), BuildingBlock: OJICUG_clean_linker_0, # of connection points: 2
#     Edge 23, Type (0, 0), BuildingBlock: OJICUG_clean_linker_0, # of connection points: 2
#     Edge 24, Type (0, 0), BuildingBlock: OJICUG_clean_linker_0, # of connection points: 2
#     Edge 25, Type (0, 0), BuildingBlock: OJICUG_clean_linker_0, # of connection points: 2
#     Edge 26, Type (0, 0), BuildingBlock: OJICUG_clean_linker_0, # of connection points: 2
#     Edge 27, Type (0, 0), BuildingBlock: OJICUG_clean_linker_0, # of connection points: 2
#     Edge 28, Type (0, 0), BuildingBlock: OJICUG_clean_linker_0, # of connection points: 2
#     Edge 29, Type (0, 0), BuildingBlock: OJICUG_clean_linker_0, # of connection points: 2
#     Edge 30, Type (0, 0), BuildingBlock: OJICUG_clean_linker_0, # of connection points: 2
#     Edge 31, Type (0, 0), BuildingBlock: OJICUG_clean_linker_0, # of connection points: 2
#     Edge 32, Type (0, 0), BuildingBlock: OJICUG_clean_linker_0, # of connection points: 2
#     Edge 33, Type (0, 0), BuildingBlock: OJICUG_clean_linker_0, # of connection points: 2
#     Edge 34, Type (0, 0), BuildingBlock: OJICUG_clean_linker_0, # of connection points: 2
#     Edge 35, Type (0, 0), BuildingBlock: OJICUG_clean_linker_0, # of connection points: 2
#     Edge 36, Type (0, 0), BuildingBlock: OJICUG_clean_linker_0, # of connection points: 2
#     Edge 37, Type (0, 0), BuildingBlock: OJICUG_clean_linker_0, # of connection points: 2
#     Edge 38, Type (0, 0), BuildingBlock: OJICUG_clean_linker_0, # of connection points: 2
#     Edge 39, Type (0, 0), BuildingBlock: OJICUG_clean_linker_0, # of connection points: 2
#     Edge 40, Type (0, 0), BuildingBlock: OJICUG_clean_linker_0, # of connection points: 2
#     Edge 41, Type (0, 0), BuildingBlock: OJICUG_clean_linker_0, # of connection points: 2
#     Edge 42, Type (0, 0), BuildingBlock: OJICUG_clean_linker_0, # of connection points: 2
#     Edge 43, Type (0, 0), BuildingBlock: OJICUG_clean_linker_0, # of connection points: 2
#     Edge 44, Type (0, 0), BuildingBlock: OJICUG_clean_linker_0, # of connection points: 2
#     Edge 45, Type (0, 0), BuildingBlock: OJICUG_clean_linker_0, # of connection points: 2
#     Edge 46, Type (0, 0), BuildingBlock: OJICUG_clean_linker_0, # of connection points: 2
#     Edge 47, Type (0, 0), BuildingBlock: OJICUG_clean_linker_0, # of connection points: 2
#     Edge 48, Type (0, 0), BuildingBlock: OJICUG_clean_linker_0, # of connection points: 2
#     Edge 49, Type (0, 0), BuildingBlock: OJICUG_clean_linker_0, # of connection points: 2
#     Edge 50, Type (0, 0), BuildingBlock: OJICUG_clean_linker_0, # of connection points: 2
#     Edge 51, Type (0, 0), BuildingBlock: OJICUG_clean_linker_0, # of connection points: 2
#     Edge 52, Type (0, 0), BuildingBlock: OJICUG_clean_linker_0, # of connection points: 2
#     Edge 53, Type (0, 0), BuildingBlock: OJICUG_clean_linker_0, # of connection points: 2
# Relax obj value: 0.086
# Max RMSD: 0.091
# Mean RMSD: 0.091
data_MOF--net-unb--node1-ICAMEG_clean_sbu_1--edge1-OJICUG_clean_linker_0
_symmetry_space_group_name_H-M    P1
_symmetry_Int_Tables_number       1
_symmetry_cell_setting            triclinic
loop_
_symmetry_equiv_pos_as_xyz
'x, y, z'
_cell_length_a     47.31555
_cell_length_b     47.235309
_cell_length_c     22.012171
_cell_angle_alpha  90.041369
_cell_angle_beta   89.98296
_cell_angle_gamma 120.05222
loop_
_atom_site_label
_atom_site_type_symbol
_atom_site_fract_x
_atom_site_fract_y
_atom_site_fract_z
_atom_type_partial_charge
Co0 Co 0.18712 0.3195 0.06122 0.0
Co1 Co 0.13123 0.23966 0.02069 0.0
O2 O 0.14664 0.27758 0.07563 0.0
C3 C 0.19607 0.30605 0.19089 0.0
O4 O 0.18605 0.27537 0.17735 0.0
C5 C 0.07021 0.2441 0.01842 0.0
O6 O 0.08766 0.27517 0.00387 0.0
O7 O 0.13483 0.26685 0.94911 0.0
O8 O 0.17781 0.31604 0.97259 0.0
H9 H 0.13355 0.18126 0.83136 0.0
H10 H 0.1373 0.31409 0.14924 0.0
O11 O 0.19745 0.32567 0.15005 0.0
H12 H 0.15094 0.39989 0.00502 0.0
H13 H 0.27147 0.43695 0.10478 0.0
H14 H 0.23954 0.34267 0.9688 0.0
H15 H 0.18382 0.3729 0.99476 0.0
H16 H 0.22051 0.3849 0.12265 0.0
O17 O 0.08432 0.22793 0.03213 0.0
H18 H 0.15373 0.22768 0.90258 0.0
H19 H 0.07625 0.17062 0.02448 0.0
H20 H 0.29049 0.39444 0.94877 0.0
H21 H 0.10415 0.34069 0.16175 0.0
H22 H 0.30678 0.44202 0.01711 0.0
H23 H 0.11078 0.38383 0.08914 0.0
O24 O 0.21296 0.29655 0.05101 0.0
H25 H 0.09885 0.19752 0.23358 0.0
H26 H 0.15458 0.19284 0.0477 0.0
H27 H 0.15231 0.16034 0.13704 0.0
H28 H 0.12424 0.1625 0.23083 0.0
H29 H 0.10197 0.22991 0.14319 0.0
H30 H 0.05534 0.12343 0.9549 0.0
H31 H 0.08398 0.12864 0.85736 0.0
O32 O 0.17678 0.24946 0.00591 0.0
C33 C 0.15608 0.29623 0.93591 0.0
C34 C 0.1207 0.17876 0.8735 0.0
C35 C 0.07684 0.1463 0.94285 0.0
N36 N 0.11587 0.20211 0.96711 0.0
C37 C 0.132 0.205 0.91395 0.0
C38 C 0.08872 0.17315 0.98197 0.0
C39 C 0.09291 0.14923 0.88814 0.0
C40 C 0.14034 0.33288 0.11752 0.0
N41 N 0.16222 0.3417 0.0709 0.0
C42 C 0.1215 0.34784 0.12482 0.0
C43 C 0.12522 0.37203 0.08405 0.0
C44 C 0.14771 0.38102 0.0368 0.0
C45 C 0.16611 0.36551 0.03093 0.0
C46 C 0.26465 0.41638 0.0747 0.0
C47 C 0.24637 0.36331 0.99859 0.0
C48 C 0.23589 0.38677 0.08478 0.0
N49 N 0.227 0.36073 0.04677 0.0
C50 C 0.27529 0.39254 0.98709 0.0
C51 C 0.28443 0.41922 0.02547 0.0
C52 C 0.20569 0.27035 0.02188 0.0
C53 C 0.11107 0.1963 0.19292 0.0
C54 C 0.14241 0.19402 0.08839 0.0
C55 C 0.14114 0.17548 0.1388 0.0
C56 C 0.12537 0.17669 0.19138 0.0
N57 N 0.12829 0.21316 0.09025 0.0
C58 C 0.1128 0.21448 0.1416 0.0
Co59 Co 0.75977 0.88241 0.01671 0.0
Co60 Co 0.68575 0.85968 0.08463 0.0
O61 O 0.72816 0.86131 0.08305 0.0
C62 C 0.7558 0.81726 0.01378 0.0
O63 O 0.72383 0.80316 0.01147 0.0
C64 C 0.68344 0.88297 0.20915 0.0
O65 O 0.68237 0.90764 0.1841 0.0
O66 O 0.70826 0.90853 0.07526 0.0
O67 O 0.74785 0.91717 0.00892 0.0
H68 H 0.60366 0.89008 0.01259 0.0
H69 H 0.78218 0.8678 0.13192 0.0
O70 O 0.77314 0.84816 0.02081 0.0
H71 H 0.8489 0.98738 0.10657 0.0
H72 H 0.86775 0.92323 0.91085 0.0
H73 H 0.75867 0.9123 0.89868 0.0
H74 H 0.80767 0.95365 0.03007 0.0
H75 H 0.8281 0.89732 0.99414 0.0
O76 O 0.68801 0.86336 0.17611 0.0
H77 H 0.65619 0.89094 0.01192 0.0
H78 H 0.62513 0.82479 0.16052 0.0
H79 H 0.79766 0.93861 0.81465 0.0
H80 H 0.82345 0.90067 0.20953 0.0
H81 H 0.85265 0.94418 0.82035 0.0
H82 H 0.85711 0.96093 0.19708 0.0
O83 O 0.72609 0.856 0.95555 0.0
H84 H 0.67186 0.75514 0.17158 0.0
H85 H 0.62868 0.80281 0.02497 0.0
H86 H 0.60283 0.74288 0.03291 0.0
H87 H 0.62436 0.71865 0.10687 0.0
H88 H 0.69723 0.81498 0.16144 0.0
H89 H 0.57238 0.82342 0.16312 0.0
H90 H 0.56134 0.85621 0.0887 0.0
O91 O 0.68149 0.85459 0.99429 0.0
C92 C 0.73006 0.92623 0.03636 0.0
C93 C 0.6082 0.87573 0.04532 0.0
C94 C 0.59065 0.83833 0.12981 0.0
N95 N 0.64385 0.85807 0.08634 0.0
C96 C 0.63791 0.87612 0.04518 0.0
C97 C 0.62062 0.83928 0.12824 0.0
C98 C 0.58446 0.85672 0.08803 0.0
C99 C 0.7969 0.89399 0.12615 0.0
N100 N 0.79263 0.90876 0.0765 0.0
C101 C 0.82015 0.91248 0.17026 0.0
C102 C 0.839 0.9463 0.16328 0.0
C103 C 0.83441 0.96118 0.11257 0.0
C104 C 0.81094 0.94193 0.06945 0.0
C105 C 0.84384 0.92087 0.90775 0.0
C106 C 0.78255 0.91465 0.9016 0.0
C107 C 0.82122 0.90609 0.95467 0.0
N108 N 0.79102 0.90316 0.95124 0.0
C109 C 0.80451 0.92953 0.85379 0.0
C110 C 0.83535 0.93262 0.85699 0.0
C111 C 0.69689 0.85036 0.9509 0.0
C112 C 0.66224 0.7654 0.13921 0.0
C113 C 0.63841 0.79249 0.05669 0.0
C114 C 0.62355 0.75852 0.06129 0.0
C115 C 0.63562 0.74494 0.10284 0.0
N116 N 0.66449 0.81243 0.09254 0.0
C117 C 0.67645 0.79927 0.13337 0.0
Co118 Co 0.11025 0.864 0.03412 0.0
Co119 Co 0.13033 0.80817 0.09244 0.0
O120 O 0.13029 0.84992 0.09717 0.0
C121 C 0.17584 0.92525 0.03295 0.0
O122 O 0.1897 0.90768 0.02175 0.0
C123 C 0.12181 0.81677 0.22712 0.0
O124 O 0.12339 0.84497 0.21806 0.0
O125 O 0.08192 0.78339 0.07838 0.0
O126 O 0.07476 0.81813 0.01991 0.0
H127 H 0.09985 0.69981 0.99727 0.0
H128 H 0.12526 0.89774 0.15315 0.0
O129 O 0.1453 0.91121 0.04439 0.0
H130 H 0.00591 0.84641 0.12957 0.0
H131 H 0.07292 0.93782 0.94406 0.0
H132 H 0.08055 0.83849 0.91305 0.0
H133 H 0.03924 0.84098 0.04938 0.0
H134 H 0.09717 0.91939 0.02275 0.0
O135 O 0.12255 0.7999 0.18258 0.0
H136 H 0.10227 0.75306 0.00496 0.0
H137 H 0.15667 0.77403 0.16878 0.0
H138 H 0.05611 0.856 0.83322 0.0
H139 H 0.09285 0.90412 0.23433 0.0
H140 H 0.0521 0.90598 0.84848 0.0
H141 H 0.03271 0.87824 0.22283 0.0
O142 O 0.13624 0.85817 0.96992 0.0
H143 H 0.23617 0.89559 0.18462 0.0
H144 H 0.18604 0.80364 0.04027 0.0
H145 H 0.24568 0.83385 0.05297 0.0
H146 H 0.27122 0.88012 0.12595 0.0
H147 H 0.17686 0.86518 0.1698 0.0
H148 H 0.15432 0.72077 0.16332 0.0
H149 H 0.12588 0.68329 0.07697 0.0
O150 O 0.13886 0.81444 0.00303 0.0
C151 C 0.06506 0.78981 0.04158 0.0
C152 C 0.11239 0.71596 0.03504 0.0
C153 C 0.1429 0.7277 0.12829 0.0
N154 N 0.12974 0.76678 0.08705 0.0
C155 C 0.11395 0.74622 0.03952 0.0
C156 C 0.14401 0.75778 0.13127 0.0
C157 C 0.12697 0.70669 0.0798 0.0
C158 C 0.09913 0.8866 0.14775 0.0
N159 N 0.08419 0.86898 0.09671 0.0
C160 C 0.08089 0.89021 0.19389 0.0
C161 C 0.04714 0.87565 0.18745 0.0
C162 C 0.03208 0.85776 0.13517 0.0
C163 C 0.05109 0.85465 0.09001 0.0
C164 C 0.07462 0.91606 0.93677 0.0
C165 C 0.07908 0.86035 0.91997 0.0
C166 C 0.08848 0.90559 0.98106 0.0
N167 N 0.09061 0.87806 0.97233 0.0
C168 C 0.06518 0.87015 0.87458 0.0
C169 C 0.06294 0.89819 0.88317 0.0
C170 C 0.14311 0.83553 0.96248 0.0
C171 C 0.22532 0.87526 0.15312 0.0
C172 C 0.19679 0.82366 0.07217 0.0
C173 C 0.23068 0.84071 0.07919 0.0
C174 C 0.24498 0.86664 0.1201 0.0
N175 N 0.17748 0.8319 0.10527 0.0
C176 C 0.1915 0.85763 0.14489 0.0
Co177 Co 0.2418 0.12727 0.98388 0.0
Co178 Co 0.31499 0.17902 0.91439 0.0
O179 O 0.27297 0.13767 0.91686 0.0
C180 C 0.24509 0.0655 0.98712 0.0
O181 O 0.27708 0.08302 0.99006 0.0
C182 C 0.31711 0.20318 0.78869 0.0
O183 O 0.3179 0.22907 0.81248 0.0
O184 O 0.29158 0.20455 0.92225 0.0
O185 O 0.25367 0.17409 0.99159 0.0
H186 H 0.39542 0.29317 0.98272 0.0
H187 H 0.21888 0.09001 0.86894 0.0
O188 O 0.22822 0.0795 0.97985 0.0
H189 H 0.15142 0.14158 0.89721 0.0
H190 H 0.13439 0.0607 0.09218 0.0
H191 H 0.2441 0.15845 0.10234 0.0
H192 H 0.1935 0.15002 0.97215 0.0
H193 H 0.17348 0.07394 0.00807 0.0
O194 O 0.3126 0.17939 0.82281 0.0
H195 H 0.34355 0.24068 0.9849 0.0
H196 H 0.37571 0.20518 0.83864 0.0
H197 H 0.20567 0.14634 0.18711 0.0
H198 H 0.17686 0.08086 0.79261 0.0
H199 H 0.15034 0.09716 0.18238 0.0
H200 H 0.14277 0.10681 0.80655 0.0
O201 O 0.27601 0.13483 0.04382 0.0
H202 H 0.33089 0.08883 0.83151 0.0
H203 H 0.37278 0.18129 0.9749 0.0
H204 H 0.39966 0.1482 0.96872 0.0
H205 H 0.37878 0.10162 0.89639 0.0
H206 H 0.30448 0.12235 0.83986 0.0
H207 H 0.42781 0.25735 0.8346 0.0
H208 H 0.43796 0.30181 0.90704 0.0
O209 O 0.31948 0.1792 0.00496 0.0
C210 C 0.27034 0.20062 0.96229 0.0
C211 C 0.39127 0.274 0.95084 0.0
C212 C 0.40944 0.25391 0.86771 0.0
N213 N 0.35646 0.2199 0.91172 0.0
C214 C 0.36193 0.24422 0.95183 0.0
C215 C 0.37984 0.22444 0.8701 0.0
C216 C 0.41513 0.27884 0.90837 0.0
C217 C 0.20403 0.10126 0.87527 0.0
N218 N 0.20851 0.12038 0.92498 0.0
C219 C 0.18035 0.09606 0.83191 0.0
C220 C 0.16126 0.11065 0.83971 0.0
C221 C 0.1661 0.13022 0.89046 0.0
C222 C 0.19004 0.13495 0.93275 0.0
C223 C 0.15844 0.08219 0.09482 0.0
C224 C 0.22007 0.13702 0.09984 0.0
C225 C 0.18074 0.08972 0.04745 0.0
N226 N 0.21109 0.11692 0.05025 0.0
C227 C 0.19842 0.13026 0.14806 0.0
C228 C 0.1674 0.10265 0.1454 0.0
C229 C 0.30488 0.15913 0.04825 0.0
C230 C 0.34023 0.10907 0.86318 0.0
C231 C 0.36333 0.1609 0.94387 0.0
C232 C 0.37877 0.14233 0.94028 0.0
C233 C 0.36707 0.11623 0.89964 0.0
N234 N 0.33704 0.15377 0.90793 0.0
C235 C 0.32543 0.12819 0.86801 0.0
Co236 Co 0.86913 0.10548 0.97899 0.0
Co237 Co 0.81281 0.12518 0.92179 0.0
O238 O 0.85472 0.12559 0.91654 0.0
C239 C 0.92962 0.17173 0.97905 0.0
O240 O 0.91164 0.18536 0.98784 0.0
C241 C 0.82093 0.1167 0.78678 0.0
O242 O 0.84921 0.11848 0.79532 0.0
O243 O 0.78843 0.07664 0.93536 0.0
O244 O 0.82355 0.06952 0.99261 0.0
H245 H 0.70487 0.09406 0.01856 0.0
H246 H 0.90286 0.12158 0.85999 0.0
O247 O 0.91609 0.14101 0.96941 0.0
H248 H 0.85285 1.00203 0.88095 0.0
H249 H 0.94337 0.06813 0.06659 0.0
H250 H 0.84366 0.07454 0.09924 0.0
H251 H 0.8469 0.03463 0.962 0.0
H252 H 0.92483 0.09294 0.98923 0.0
O253 O 0.8043 0.11748 0.83165 0.0
H254 H 0.75803 0.09655 0.00965 0.0
H255 H 0.77823 0.15141 0.8465 0.0
H256 H 0.86116 0.04931 0.1776 0.0
H257 H 0.9097 0.08988 0.77785 0.0
H258 H 0.91139 0.04601 0.16157 0.0
H259 H 0.88448 0.02962 0.78802 0.0
O260 O 0.86297 0.13092 0.04408 0.0
H261 H 0.89902 0.23157 0.82929 0.0
H262 H 0.80815 0.18063 0.97538 0.0
H263 H 0.83793 0.24041 0.96308 0.0
H264 H 0.88364 0.26635 0.88926 0.0
H265 H 0.86905 0.17212 0.84371 0.0
H266 H 0.72506 0.14899 0.85317 0.0
H267 H 0.68803 0.12032 0.93984 0.0
O268 O 0.81926 0.13356 0.01121 0.0
C269 C 0.79517 0.05968 0.97134 0.0
C270 C 0.72083 0.1067 0.98066 0.0
C271 C 0.73213 0.13747 0.88778 0.0
N272 N 0.77135 0.12425 0.92783 0.0
C273 C 0.75102 0.10829 0.97548 0.0
C274 C 0.76216 0.13861 0.88411 0.0
C275 C 0.71138 0.1214 0.93644 0.0
C276 C 0.892 0.09539 0.86479 0.0
N277 N 0.87448 0.08 0.9156 0.0
C278 C 0.89587 0.07756 0.81811 0.0
C279 C 0.88168 0.04375 0.82381 0.0
C280 C 0.86389 0.02824 0.87587 0.0
C281 C 0.86049 0.04684 0.92154 0.0
C282 C 0.92155 0.06959 0.07428 0.0
C283 C 0.86563 0.07338 0.09203 0.0
C284 C 0.91103 0.0838 0.03078 0.0
N285 N 0.88342 0.08564 0.04001 0.0
C286 C 0.87541 0.05902 0.13657 0.0
C287 C 0.90359 0.05718 0.12754 0.0
C288 C 0.84028 0.13766 0.05174 0.0
C289 C 0.87893 0.22055 0.86118 0.0
C290 C 0.82794 0.19157 0.9431 0.0
C291 C 0.84473 0.22553 0.93632 0.0
C292 C 0.87036 0.24006 0.89493 0.0
N293 N 0.83615 0.17242 0.90932 0.0
C294 C 0.86156 0.18666 0.86919 0.0
Co295 Co 0.86836 0.67182 0.91706 0.0
Co296 Co 0.88749 0.74776 0.97054 0.0
O297 O 0.86821 0.71332 0.9081 0.0
C298 C 0.891 0.69006 0.78812 0.0
O299 O 0.91023 0.72069 0.80401 0.0
C300 C 0.82258 0.7443 0.96663 0.0
O301 O 0.80814 0.7128 0.97788 0.0
O302 O 0.85976 0.71632 0.03369 0.0
O303 O 0.86211 0.67181 0.00663 0.0
H304 H 0.93753 0.79368 0.1743 0.0
H305 H 0.82328 0.67718 0.83093 0.0
O306 O 0.87334 0.6689 0.82748 0.0
H307 H 0.7524 0.58765 0.97003 0.0
H308 H 0.83951 0.55721 0.8586 0.0
H309 H 0.89946 0.64761 0.00355 0.0
H310 H 0.81224 0.61625 0.98128 0.0
H311 H 0.83816 0.60851 0.84889 0.0
O312 O 0.85324 0.76047 0.95632 0.0
H313 H 0.91338 0.75131 0.09485 0.0
H314 H 0.90212 0.81694 0.97919 0.0
H315 H 0.90114 0.59657 0.01535 0.0
H316 H 0.76351 0.64902 0.81755 0.0
H317 H 0.87108 0.55094 0.94244 0.0
H318 H 0.72763 0.60396 0.88754 0.0
O319 O 0.91699 0.69632 0.92795 0.0
H320 H 0.90948 0.80307 0.76729 0.0
H321 H 0.95879 0.79591 0.95982 0.0
H322 H 0.99387 0.83401 0.88037 0.0
H323 H 0.96929 0.83786 0.78325 0.0
H324 H 0.87524 0.76502 0.84803 0.0
H325 H 0.92584 0.85992 0.05769 0.0
H326 H 0.94391 0.84846 0.15597 0.0
O327 O 0.92244 0.73702 0.98841 0.0
C328 C 0.85508 0.6878 0.04434 0.0
C329 C 0.92976 0.79897 0.13166 0.0
C330 C 0.92317 0.83614 0.06623 0.0
N331 N 0.90634 0.78162 0.03234 0.0
C332 C 0.91611 0.77509 0.08641 0.0
C333 C 0.90962 0.81165 0.02204 0.0
C334 C 0.93331 0.82969 0.12136 0.0
C335 C 0.80783 0.65749 0.86138 0.0
N336 N 0.82126 0.64841 0.9069 0.0
C337 C 0.774 0.64168 0.85365 0.0
C338 C 0.75388 0.61642 0.89297 0.0
C339 C 0.76776 0.60728 0.93929 0.0
C340 C 0.80168 0.62366 0.94564 0.0
C341 C 0.85272 0.57692 0.89064 0.0
C342 C 0.88618 0.62782 0.9718 0.0
C343 C 0.85216 0.6061 0.88523 0.0
N344 N 0.86871 0.63107 0.92563 0.0
C345 C 0.88727 0.59899 0.97866 0.0
C346 C 0.87042 0.57341 0.93771 0.0
C347 C 0.93319 0.71948 0.96562 0.0
C348 C 0.92049 0.80168 0.80945 0.0
C349 C 0.94788 0.79729 0.91761 0.0
C350 C 0.96789 0.819 0.87282 0.0
C351 C 0.95405 0.82116 0.81839 0.0
N352 N 0.91497 0.77834 0.90856 0.0
C353 C 0.90121 0.78028 0.85534 0.0
Co354 Co 0.85872 0.6611 0.40989 0.0
Co355 Co 0.80291 0.58043 0.37251 0.0
O356 O 0.81861 0.61901 0.42562 0.0
C357 C 0.86866 0.64657 0.53767 0.0
O358 O 0.8578 0.61592 0.52255 0.0
C359 C 0.74275 0.58604 0.36582 0.0
O360 O 0.76079 0.61689 0.35023 0.0
O361 O 0.80744 0.60687 0.29908 0.0
O362 O 0.84796 0.65755 0.32216 0.0
H363 H 0.80519 0.52002 0.18645 0.0
H364 H 0.81046 0.65528 0.50209 0.0
O365 O 0.87043 0.66695 0.4981 0.0
H366 H 0.8201 0.74026 0.35979 0.0
H367 H 0.94283 0.77869 0.45258 0.0
H368 H 0.90953 0.68511 0.31414 0.0
H369 H 0.85329 0.71384 0.34566 0.0
H370 H 0.89261 0.7262 0.47212 0.0
O371 O 0.75623 0.56962 0.38185 0.0
H372 H 0.82537 0.56714 0.25582 0.0
H373 H 0.74741 0.51162 0.37794 0.0
H374 H 0.95969 0.73732 0.29244 0.0
H375 H 0.77706 0.68133 0.51849 0.0
H376 H 0.97667 0.78456 0.362 0.0
H377 H 0.78168 0.72406 0.44687 0.0
O378 O 0.88498 0.63882 0.39624 0.0
H379 H 0.7684 0.54114 0.58626 0.0
H380 H 0.82489 0.53304 0.40446 0.0
H381 H 0.82125 0.50133 0.49598 0.0
H382 H 0.7928 0.50524 0.58774 0.0
H383 H 0.77284 0.57266 0.49374 0.0
H384 H 0.72668 0.46359 0.31043 0.0
H385 H 0.75564 0.46761 0.21383 0.0
O386 O 0.84816 0.58927 0.36022 0.0
C387 C 0.82725 0.63662 0.28549 0.0
C388 C 0.7924 0.51788 0.22849 0.0
C389 C 0.7483 0.48627 0.29798 0.0
N390 N 0.78743 0.54226 0.3206 0.0
C391 C 0.80366 0.54455 0.26785 0.0
C392 C 0.7601 0.51357 0.33595 0.0
C393 C 0.76456 0.48853 0.24382 0.0
C394 C 0.81265 0.67391 0.47082 0.0
N395 N 0.83359 0.68283 0.42262 0.0
C396 C 0.79366 0.68855 0.48031 0.0
C397 C 0.79624 0.71251 0.44008 0.0
C398 C 0.81776 0.72158 0.39118 0.0
C399 C 0.83634 0.70639 0.38313 0.0
C400 C 0.93569 0.75828 0.42194 0.0
C401 C 0.91665 0.7056 0.34446 0.0
C402 C 0.90735 0.72844 0.43293 0.0
N403 N 0.89807 0.7026 0.39423 0.0
C404 C 0.94513 0.73508 0.33201 0.0
C405 C 0.95465 0.76157 0.37108 0.0
C406 C 0.87729 0.61131 0.37193 0.0
C407 C 0.78078 0.53917 0.54651 0.0
C408 C 0.81255 0.53496 0.44425 0.0
C409 C 0.81051 0.51688 0.4959 0.0
C410 C 0.79452 0.51907 0.54734 0.0
N411 N 0.79895 0.55458 0.44377 0.0
C412 C 0.78325 0.55685 0.49399 0.0
Co413 Co 0.42936 0.22685 0.35302 0.0
Co414 Co 0.35363 0.20725 0.41135 0.0
O415 O 0.39517 0.20691 0.41611 0.0
C416 C 0.42395 0.16077 0.35395 0.0
O417 O 0.39228 0.14702 0.3457 0.0
C418 C 0.37027 0.21533 0.5464 0.0
O419 O 0.39667 0.21336 0.5377 0.0
O420 O 0.37776 0.25579 0.39768 0.0
O421 O 0.4194 0.26257 0.33897 0.0
H422 H 0.27659 0.23843 0.31583 0.0
H423 H 0.44771 0.21167 0.47216 0.0
O424 O 0.44111 0.19156 0.36299 0.0
H425 H 0.51667 0.33112 0.44839 0.0
H426 H 0.5406 0.26424 0.26355 0.0
H427 H 0.43402 0.25701 0.23224 0.0
H428 H 0.47782 0.29787 0.36827 0.0
H429 H 0.49766 0.23966 0.34175 0.0
O430 O 0.35303 0.21494 0.50159 0.0
H431 H 0.32721 0.23581 0.32394 0.0
H432 H 0.29304 0.18112 0.48738 0.0
H433 H 0.47632 0.28198 0.15305 0.0
H434 H 0.48656 0.24403 0.5534 0.0
H435 H 0.53008 0.28571 0.1684 0.0
H436 H 0.52131 0.30425 0.54181 0.0
O437 O 0.39748 0.2009 0.28873 0.0
H438 H 0.33395 0.10078 0.50273 0.0
H439 H 0.29317 0.1518 0.35873 0.0
H440 H 0.26321 0.09204 0.37099 0.0
H441 H 0.28341 0.06605 0.44377 0.0
H442 H 0.36338 0.16021 0.48836 0.0
H443 H 0.24235 0.18368 0.48152 0.0
H444 H 0.23377 0.21234 0.39512 0.0
O445 O 0.35143 0.1988 0.32187 0.0
C446 C 0.40108 0.27256 0.36082 0.0
C447 C 0.28001 0.2258 0.35362 0.0
C448 C 0.26082 0.19513 0.44667 0.0
N449 N 0.31308 0.20819 0.40586 0.0
C450 C 0.30858 0.22412 0.35834 0.0
C451 C 0.28968 0.19391 0.44989 0.0
C452 C 0.25601 0.21118 0.39816 0.0
C453 C 0.46289 0.23783 0.46676 0.0
N454 N 0.46045 0.25283 0.41566 0.0
C455 C 0.48478 0.25604 0.51292 0.0
C456 C 0.50425 0.28982 0.50643 0.0
C457 C 0.50163 0.30494 0.45409 0.0
C458 C 0.47946 0.28596 0.40895 0.0
C459 C 0.51721 0.2626 0.25616 0.0
C460 C 0.45725 0.25836 0.23918 0.0
C461 C 0.49272 0.24853 0.30015 0.0
N462 N 0.46315 0.24648 0.29131 0.0
C463 C 0.48114 0.27256 0.19416 0.0
C464 C 0.5113 0.27465 0.20281 0.0
C465 C 0.36809 0.19432 0.28129 0.0
C466 C 0.32469 0.11182 0.47133 0.0
C467 C 0.30221 0.14086 0.39059 0.0
C468 C 0.28506 0.1069 0.39734 0.0
C469 C 0.2964 0.09234 0.43814 0.0
N470 N 0.32976 0.15999 0.42385 0.0
C471 C 0.34118 0.14572 0.46336 0.0
Co472 Co 0.78029 0.20371 0.34919 0.0
Co473 Co 0.80121 0.15169 0.4186 0.0
O474 O 0.80081 0.19316 0.41634 0.0
C475 C 0.8454 0.26539 0.34814 0.0
O476 O 0.85987 0.24784 0.34668 0.0
C477 C 0.77931 0.12777 0.54451 0.0
O478 O 0.7541 0.10187 0.52104 0.0
O479 O 0.75227 0.12646 0.41099 0.0
O480 O 0.74534 0.15689 0.34089 0.0
H481 H 0.76663 0.03731 0.35035 0.0
H482 H 0.79407 0.24059 0.46449 0.0
O483 O 0.81444 0.25144 0.35375 0.0
H484 H 0.67519 0.18914 0.43439 0.0
H485 H 0.73982 0.27052 0.24066 0.0
H486 H 0.75202 0.1729 0.23019 0.0
H487 H 0.70918 0.18096 0.35985 0.0
H488 H 0.76535 0.25708 0.32502 0.0
O489 O 0.79859 0.15142 0.51014 0.0
H490 H 0.76771 0.09003 0.34815 0.0
H491 H 0.83549 0.12517 0.49416 0.0
H492 H 0.72603 0.18523 0.14516 0.0
H493 H 0.76084 0.24947 0.54047 0.0
H494 H 0.71976 0.23434 0.15006 0.0
H495 H 0.70088 0.22359 0.5256 0.0
O496 O 0.80725 0.19636 0.28968 0.0
H497 H 0.90769 0.24137 0.50112 0.0
H498 H 0.85642 0.14897 0.35768 0.0
H499 H 0.91641 0.18169 0.36363 0.0
H500 H 0.94247 0.22823 0.43598 0.0
H501 H 0.84774 0.20823 0.49302 0.0
H502 H 0.83497 0.07277 0.49822 0.0
H503 H 0.80035 0.02836 0.42593 0.0
O504 O 0.80542 0.15146 0.32797 0.0
C505 C 0.73517 0.13042 0.37056 0.0
C506 C 0.78177 0.05645 0.38216 0.0
C507 C 0.82011 0.07633 0.46515 0.0
N508 N 0.80149 0.11065 0.4212 0.0
C509 C 0.78248 0.08637 0.38115 0.0
C510 C 0.82024 0.10594 0.46274 0.0
C511 C 0.8007 0.05144 0.42457 0.0
C512 C 0.76801 0.22938 0.45776 0.0
N513 N 0.75361 0.21043 0.40777 0.0
C514 C 0.74932 0.23442 0.50093 0.0
C515 C 0.71568 0.21986 0.49261 0.0
C516 C 0.7012 0.20048 0.44155 0.0
C517 C 0.72062 0.1959 0.39949 0.0
C518 C 0.74244 0.24907 0.23796 0.0
C519 C 0.74936 0.1943 0.23277 0.0
C520 C 0.75702 0.24142 0.28548 0.0
N521 N 0.76021 0.21424 0.2826 0.0
C522 C 0.73466 0.20118 0.1844 0.0
C523 C 0.73118 0.22876 0.18715 0.0
C524 C 0.81147 0.17185 0.285 0.0
C525 C 0.89663 0.22114 0.46945 0.0
C526 C 0.86752 0.16935 0.38874 0.0
C527 C 0.90153 0.1877 0.39219 0.0
C528 C 0.91613 0.21378 0.43284 0.0
N529 N 0.84853 0.17666 0.42484 0.0
C530 C 0.86269 0.20222 0.46476 0.0
Co531 Co 0.91084 0.46632 0.30077 0.0
Co532 Co 0.98683 0.52408 0.24498 0.0
O533 O 0.94578 0.48166 0.23919 0.0
C534 C 0.9168 0.40585 0.30525 0.0
O535 O 0.9477 0.42365 0.32043 0.0
C536 C 0.97026 0.51569 0.11018 0.0
O537 O 0.94383 0.48732 0.11916 0.0
O538 O 0.96216 0.54788 0.25942 0.0
O539 O 0.91942 0.51162 0.31448 0.0
H540 H 0.06227 0.63243 0.34283 0.0
H541 H 0.89487 0.43257 0.18189 0.0
O542 O 0.90039 0.41959 0.29086 0.0
H543 H 0.82185 0.47839 0.20033 0.0
H544 H 0.79888 0.39014 0.38554 0.0
H545 H 0.90422 0.49057 0.42143 0.0
H546 H 0.86094 0.48663 0.28187 0.0
H547 H 0.84294 0.40948 0.3095 0.0
O548 O 0.98758 0.53271 0.15486 0.0
H549 H 0.01225 0.57857 0.3337 0.0
H550 H 0.04757 0.55993 0.16976 0.0
H551 H 0.86071 0.47241 0.49834 0.0
H552 H 0.8561 0.4238 0.09923 0.0
H553 H 0.80753 0.42183 0.48064 0.0
H554 H 0.81924 0.44688 0.1082 0.0
O555 O 0.9423 0.47331 0.36656 0.0
H556 H 0.0088 0.43927 0.15131 0.0
H557 H 0.04737 0.52987 0.29817 0.0
H558 H 0.07824 0.5011 0.2853 0.0
H559 H 0.05914 0.45552 0.21108 0.0
H560 H 0.97846 0.46823 0.16627 0.0
H561 H 0.09767 0.6138 0.17666 0.0
H562 H 0.10535 0.65041 0.2638 0.0
O563 O 0.98874 0.51731 0.33424 0.0
C564 C 0.93804 0.54043 0.29479 0.0
C565 C 0.05924 0.61666 0.30471 0.0
C566 C 0.07908 0.60623 0.21139 0.0
N567 N 0.02699 0.566 0.25144 0.0
C568 C 0.03101 0.58607 0.29941 0.0
C569 C 0.05055 0.5758 0.2076 0.0
C570 C 0.08339 0.62675 0.26033 0.0
C571 C 0.87886 0.44262 0.18612 0.0
N572 N 0.88021 0.46011 0.23655 0.0
C573 C 0.85701 0.43763 0.13914 0.0
C574 C 0.83638 0.45062 0.14415 0.0
C575 C 0.83788 0.46841 0.19579 0.0
C576 C 0.86016 0.47306 0.24172 0.0
C577 C 0.82196 0.41219 0.39386 0.0
C578 C 0.8812 0.46856 0.41336 0.0
C579 C 0.84708 0.42316 0.35109 0.0
N580 N 0.87625 0.45109 0.36106 0.0
C581 C 0.85663 0.45837 0.45712 0.0
C582 C 0.82681 0.42999 0.44717 0.0
C583 C 0.97171 0.49613 0.37453 0.0
C584 C 0.01757 0.45931 0.18336 0.0
C585 C 0.03882 0.51015 0.26569 0.0
C586 C 0.05647 0.49392 0.25859 0.0
C587 C 0.04576 0.46837 0.21699 0.0
N588 N 0.01137 0.50148 0.232 0.0
C589 C 1.00055 0.47611 0.19169 0.0
Co590 Co 0.54181 0.44983 0.3145 0.0
Co591 Co 0.49062 0.47217 0.24569 0.0
O592 O 0.53143 0.47061 0.24747 0.0
C593 C 0.60339 0.51467 0.31537 0.0
O594 O 0.58584 0.52914 0.31646 0.0
C595 C 0.46545 0.4492 0.1208 0.0
O596 O 0.4396 0.42445 0.14542 0.0
O597 O 0.46445 0.42329 0.25482 0.0
O598 O 0.49502 0.41543 0.32322 0.0
H599 H 0.37783 0.44128 0.31676 0.0
H600 H 0.57837 0.46297 0.19897 0.0
O601 O 0.5895 0.48367 0.30959 0.0
H602 H 0.52463 0.3436 0.22847 0.0
H603 H 0.60828 0.4088 0.42223 0.0
H604 H 0.51111 0.42146 0.43354 0.0
H605 H 0.51782 0.37834 0.30367 0.0
H606 H 0.59469 0.43425 0.3379 0.0
O607 O 0.4895 0.46866 0.15421 0.0
H608 H 0.4296 0.44061 0.31784 0.0
H609 H 0.46496 0.50709 0.16974 0.0
H610 H 0.52362 0.39561 0.51859 0.0
H611 H 0.58609 0.42907 0.1226 0.0
H612 H 0.57254 0.38917 0.51333 0.0
H613 H 0.55903 0.3689 0.13715 0.0
O614 O 0.5351 0.4771 0.37448 0.0
H615 H 0.58122 0.57697 0.15943 0.0
H616 H 0.49014 0.52887 0.30561 0.0
H617 H 0.52406 0.58881 0.29794 0.0
H618 H 0.56995 0.61327 0.22421 0.0
H619 H 0.5469 0.51711 0.16928 0.0
H620 H 0.4135 0.50828 0.16675 0.0
H621 H 0.36948 0.47523 0.24071 0.0
O622 O 0.49119 0.47717 0.33612 0.0
C623 C 0.46835 0.40596 0.29484 0.0
C624 C 0.3968 0.45575 0.28422 0.0
C625 C 0.41681 0.49333 0.20003 0.0
N626 N 0.45026 0.47364 0.24369 0.0
C627 C 0.42618 0.45546 0.2846 0.0
C628 C 0.44588 0.49248 0.20183 0.0
C629 C 0.39213 0.4748 0.24155 0.0
C630 C 0.56671 0.43683 0.20564 0.0
N631 N 0.54781 0.42269 0.25574 0.0
C632 C 0.57108 0.41775 0.16224 0.0
C633 C 0.55587 0.38399 0.17038 0.0
C634 C 0.53653 0.36975 0.22155 0.0
C635 C 0.5327 0.38957 0.26393 0.0
C636 C 0.58694 0.41154 0.42513 0.0
C637 C 0.53242 0.41872 0.43079 0.0
C638 C 0.5792 0.42606 0.37762 0.0
N639 N 0.5522 0.42946 0.38081 0.0
C640 C 0.53941 0.4041 0.47918 0.0
C641 C 0.56688 0.40053 0.47623 0.0
C642 C 0.51124 0.48228 0.37919 0.0
C643 C 0.56128 0.56662 0.19169 0.0
C644 C 0.51022 0.53928 0.27395 0.0
C645 C 0.52926 0.57327 0.26952 0.0
C646 C 0.55497 0.58697 0.2281 0.0
N647 N 0.51651 0.51945 0.23805 0.0
C648 C 0.5417 0.53273 0.19736 0.0
Co649 Co 0.53299 0.0125 0.27114 0.0
Co650 Co 0.55736 0.09234 0.31259 0.0
O651 O 0.53485 0.05465 0.25715 0.0
C652 C 0.55607 0.02622 0.1418 0.0
O653 O 0.57692 0.0568 0.15569 0.0
C654 C 0.49207 0.08826 0.31472 0.0
O655 O 0.47831 0.05714 0.32892 0.0
O656 O 0.53353 0.06496 0.38384 0.0
O657 O 0.52684 0.01566 0.35977 0.0
H658 H 0.61782 0.14982 0.50269 0.0
H659 H 0.48925 0.01877 0.18283 0.0
O660 O 0.53747 0.00661 0.18231 0.0
H661 H 0.41597 0.93247 0.3252 0.0
H662 H 0.4992 0.89499 0.22626 0.0
H663 H 0.56154 0.98862 0.36359 0.0
H664 H 0.47576 0.95897 0.33632 0.0
H665 H 0.50082 0.94734 0.20885 0.0
O666 O 0.52238 0.10437 0.30125 0.0
H667 H 0.59159 0.10371 0.43083 0.0
H668 H 0.57173 0.16149 0.30978 0.0
H669 H 0.56016 0.93654 0.38319 0.0
H670 H 0.4296 0.99266 0.16943 0.0
H671 H 0.52887 0.88928 0.31418 0.0
H672 H 0.39252 0.94927 0.24111 0.0
O673 O 0.58173 0.03509 0.28199 0.0
H674 H 0.5679 0.13527 0.10017 0.0
H675 H 0.62766 0.139 0.28629 0.0
H676 H 0.65822 0.17171 0.19737 0.0
H677 H 0.62832 0.17003 0.10346 0.0
H678 H 0.53828 0.10266 0.19015 0.0
H679 H 0.59803 0.20839 0.38001 0.0
H680 H 0.62118 0.20266 0.47745 0.0
O681 O 0.59291 0.08224 0.32725 0.0
C682 C 0.5251 0.03548 0.39673 0.0
C683 C 0.60761 0.15255 0.46059 0.0
C684 C 0.59653 0.18543 0.39173 0.0
N685 N 0.57958 0.12967 0.36667 0.0
C686 C 0.59267 0.12649 0.41977 0.0
C687 C 0.58156 0.15875 0.35223 0.0
C688 C 0.6095 0.1822 0.44639 0.0
C689 C 0.47326 0.99988 0.21416 0.0
N690 N 0.48596 0.99066 0.26079 0.0
C691 C 0.43952 0.98519 0.20636 0.0
C692 C 0.41872 0.96086 0.24661 0.0
C693 C 0.43186 0.95146 0.29384 0.0
C694 C 0.46572 0.96671 0.30023 0.0
C695 C 0.51294 0.91541 0.25663 0.0
C696 C 0.54773 0.96812 0.33351 0.0
C697 C 0.51409 0.94519 0.24682 0.0
N698 N 0.53124 0.97104 0.2852 0.0
C699 C 0.54711 0.93871 0.34477 0.0
C700 C 0.52957 0.91221 0.306 0.0
C701 C 0.60075 0.06122 0.31122 0.0
C702 C 0.58119 0.13628 0.14088 0.0
C703 C 0.61445 0.13804 0.24554 0.0
C704 C 0.63191 0.15669 0.19537 0.0
C705 C 0.6151 0.15574 0.14272 0.0
N706 N 0.58119 0.11904 0.24339 0.0
C707 C 0.56454 0.11797 0.19197 0.0
Co708 Co 0.53074 0.99629 0.7629 0.0
Co709 Co 0.47374 0.92106 0.70787 0.0
O710 O 0.48881 0.955 0.77146 0.0
C711 C 0.53372 0.97867 0.89351 0.0
O712 O 0.52094 0.9476 0.87956 0.0
C713 C 0.41109 0.92259 0.71107 0.0
O714 O 0.42708 0.95379 0.69696 0.0
O715 O 0.47719 0.95308 0.64619 0.0
O716 O 0.52496 0.99637 0.6731 0.0
H717 H 0.47739 0.87747 0.50133 0.0
H718 H 0.47986 0.99132 0.84741 0.0
O719 O 0.53838 0.99953 0.85265 0.0
H720 H 0.50091 0.08183 0.70895 0.0
H721 H 0.61741 0.11058 0.82133 0.0
H722 H 0.58641 0.01963 0.67742 0.0
H723 H 0.53165 0.05266 0.69872 0.0
H724 H 0.56423 0.05984 0.83048 0.0
O725 O 0.42664 0.90766 0.72323 0.0
H726 H 0.49583 0.9189 0.58256 0.0
H727 H 0.41963 0.85173 0.69772 0.0
H728 H 0.63966 0.07012 0.66616 0.0
H729 H 0.44875 0.02006 0.85983 0.0
H730 H 0.65552 0.11601 0.73859 0.0
H731 H 0.45914 0.06562 0.79015 0.0
O732 O 0.55423 0.97108 0.75303 0.0
H733 H 0.44147 0.86386 0.90958 0.0
H734 H 0.49723 0.87306 0.71513 0.0
H735 H 0.49483 0.83443 0.79268 0.0
H736 H 0.46675 0.82951 0.89079 0.0
H737 H 0.44472 0.90254 0.83069 0.0
H738 H 0.40016 0.80967 0.61747 0.0
H739 H 0.42919 0.8224 0.51847 0.0
O740 O 0.51952 0.93223 0.68901 0.0
C741 C 0.50155 0.98129 0.6357 0.0
C742 C 0.46451 0.87164 0.54424 0.0
C743 C 0.42115 0.8336 0.6094 0.0
N744 N 0.4588 0.8878 0.64489 0.0
C745 C 0.47487 0.89499 0.5905 0.0
C746 C 0.43221 0.85757 0.6546 0.0
C747 C 0.43745 0.84076 0.55387 0.0
C748 C 0.48461 0.0112 0.81707 0.0
N749 N 0.5075 0.02022 0.77223 0.0
C750 C 0.46688 0.02735 0.82426 0.0
C751 C 0.4727 0.05289 0.78512 0.0
C752 C 0.4961 0.06198 0.73953 0.0
C753 C 0.51334 0.04525 0.73371 0.0
C754 C 0.6108 0.09075 0.78952 0.0
C755 C 0.59304 0.03954 0.70894 0.0
C756 C 0.58076 0.06188 0.79462 0.0
N757 N 0.57218 0.03673 0.75455 0.0
C758 C 0.62326 0.06806 0.70239 0.0
C759 C 0.63215 0.09379 0.74306 0.0
C760 C 0.54742 0.94856 0.71393 0.0
C761 C 0.45372 0.86571 0.86699 0.0
C762 C 0.4851 0.87125 0.75778 0.0
C763 C 0.48374 0.84922 0.8015 0.0
C764 C 0.46795 0.84648 0.85647 0.0
N765 N 0.47103 0.88998 0.7684 0.0
C766 C 0.45553 0.88747 0.82214 0.0
Co767 Co 0.09737 0.55248 0.6725 0.0
Co768 Co 0.02435 0.53183 0.74195 0.0
O769 O 0.06602 0.53194 0.7394 0.0
C770 C 0.09156 0.48653 0.67042 0.0
O771 O 0.05965 0.47327 0.67021 0.0
C772 C 0.02305 0.55468 0.86731 0.0
O773 O 0.02278 0.57995 0.84314 0.0
O774 O 0.04834 0.58076 0.73388 0.0
O775 O 0.08642 0.58799 0.66515 0.0
H776 H 0.94499 0.56666 0.6737 0.0
H777 H 0.12 0.53742 0.787 0.0
O778 O 0.10974 0.51745 0.67596 0.0
H779 H 0.18806 0.65692 0.76138 0.0
H780 H 0.20485 0.59222 0.56542 0.0
H781 H 0.09615 0.58226 0.55443 0.0
H782 H 0.14637 0.62351 0.68522 0.0
H783 H 0.16512 0.56602 0.64852 0.0
O784 O 0.0269 0.53486 0.83348 0.0
H785 H 0.99644 0.56539 0.67135 0.0
H786 H 0.96373 0.498 0.81808 0.0
H787 H 0.13524 0.60893 0.47068 0.0
H788 H 0.16178 0.56991 0.86411 0.0
H789 H 0.19009 0.61413 0.4759 0.0
H790 H 0.19608 0.63011 0.85155 0.0
O791 O 0.06304 0.52639 0.6122 0.0
H792 H 0.00666 0.42525 0.82578 0.0
H793 H 0.96631 0.47653 0.68118 0.0
H794 H 0.93864 0.41642 0.68769 0.0
H795 H 0.95874 0.39038 0.76061 0.0
H796 H 0.03386 0.4853 0.81711 0.0
H797 H 0.91205 0.49872 0.82231 0.0
H798 H 0.90239 0.53324 0.74972 0.0
O799 O 0.01977 0.52742 0.65147 0.0
C800 C 0.06982 0.59799 0.69414 0.0
C801 C 0.94893 0.55156 0.70564 0.0
C802 C 0.93044 0.51345 0.78904 0.0
N803 N 0.98322 0.53177 0.74472 0.0
C804 C 0.97803 0.55074 0.70454 0.0
C805 C 0.95981 0.5132 0.78653 0.0
C806 C 0.92503 0.5328 0.74829 0.0
C807 C 0.13503 0.56358 0.78113 0.0
N808 N 0.13085 0.5785 0.73164 0.0
C809 C 0.15856 0.58186 0.82496 0.0
C810 C 0.17778 0.61564 0.81792 0.0
C811 C 0.17329 0.63071 0.76737 0.0
C812 C 0.14955 0.61165 0.72448 0.0
C813 C 0.18103 0.59011 0.56262 0.0
C814 C 0.11996 0.58443 0.55712 0.0
C815 C 0.15838 0.57516 0.60941 0.0
N816 N 0.12834 0.57264 0.60644 0.0
C817 C 0.14199 0.59953 0.50948 0.0
C818 C 0.17274 0.60241 0.51241 0.0
C819 C 0.03428 0.52204 0.60793 0.0
C820 C 0.99764 0.43631 0.79387 0.0
C821 C 0.97541 0.46542 0.71252 0.0
C822 C 0.95953 0.43135 0.71628 0.0
C823 C 0.97079 0.41675 0.75725 0.0
N824 N 1.00171 0.48446 0.74864 0.0
C825 C 0.01289 0.4703 0.78888 0.0
Co826 Co 0.44041 0.53481 0.68429 0.0
Co827 Co 0.46283 0.48076 0.74291 0.0
O828 O 0.46102 0.52158 0.74768 0.0
C829 C 0.50533 0.59652 0.68585 0.0
O830 O 0.51964 0.57907 0.67812 0.0
C831 C 0.45271 0.48823 0.87739 0.0
O832 O 0.45315 0.51589 0.86832 0.0
O833 O 0.41456 0.45452 0.72783 0.0
O834 O 0.40588 0.4885 0.66999 0.0
H835 H 0.43745 0.37409 0.6465 0.0
H836 H 0.45428 0.56853 0.80323 0.0
O837 O 0.47454 0.58233 0.6945 0.0
H838 H 0.33476 0.51404 0.77867 0.0
H839 H 0.40039 0.60625 0.59339 0.0
H840 H 0.41149 0.50887 0.56294 0.0
H841 H 0.36899 0.50981 0.6989 0.0
H842 H 0.4254 0.58889 0.67248 0.0
O843 O 0.45468 0.47201 0.83292 0.0
H844 H 0.43701 0.42592 0.6549 0.0
H845 H 0.49096 0.44842 0.8195 0.0
H846 H 0.3864 0.52537 0.48265 0.0
H847 H 0.42094 0.57374 0.88399 0.0
H848 H 0.38062 0.57435 0.49765 0.0
H849 H 0.3607 0.54627 0.872 0.0
O850 O 0.46719 0.53006 0.62035 0.0
H851 H 0.56649 0.57021 0.83797 0.0
H852 H 0.52026 0.47925 0.69121 0.0
H853 H 0.57978 0.51138 0.70512 0.0
H854 H 0.60335 0.55716 0.77931 0.0
H855 H 0.50734 0.53792 0.82192 0.0
H856 H 0.49152 0.39659 0.81329 0.0
H857 H 0.46479 0.35909 0.72614 0.0
O858 O 0.47174 0.48749 0.65369 0.0
C859 C 0.39713 0.46026 0.6912 0.0
C860 C 0.44926 0.39027 0.68461 0.0
C861 C 0.47954 0.40286 0.77828 0.0
N862 N 0.46409 0.44032 0.73742 0.0
C863 C 0.44919 0.41971 0.68951 0.0
C864 C 0.479 0.43212 0.78168 0.0
C865 C 0.46456 0.38185 0.72935 0.0
C866 C 0.42811 0.5567 0.79762 0.0
N867 N 0.41363 0.53886 0.74655 0.0
C868 C 0.40935 0.55965 0.84352 0.0
C869 C 0.37554 0.5442 0.8368 0.0
C870 C 0.36096 0.52608 0.78449 0.0
C871 C 0.38049 0.52365 0.73958 0.0
C872 C 0.40284 0.58491 0.58623 0.0
C873 C 0.40923 0.53029 0.56976 0.0
C874 C 0.41711 0.57503 0.63077 0.0
N875 N 0.42016 0.54801 0.62221 0.0
C876 C 0.39499 0.53952 0.52409 0.0
C877 C 0.39175 0.567 0.53254 0.0
C878 C 0.4752 0.50824 0.61305 0.0
C879 C 0.55651 0.55011 0.80595 0.0
C880 C 0.53016 0.49905 0.72361 0.0
C881 C 0.56398 0.51719 0.73132 0.0
C882 C 0.57719 0.54285 0.77292 0.0
N883 N 0.50987 0.50596 0.75671 0.0
C884 C 0.5228 0.53141 0.79702 0.0
Co885 Co 0.57341 0.79918 0.64697 0.0
Co886 Co 0.64946 0.85326 0.58717 0.0
O887 O 0.6069 0.81234 0.58291 0.0
C888 C 0.57614 0.73719 0.64447 0.0
O889 O 0.60791 0.75441 0.65209 0.0
C890 C 0.63162 0.84515 0.45282 0.0
O891 O 0.60449 0.81746 0.46229 0.0
O892 O 0.62724 0.87933 0.60213 0.0
O893 O 0.58544 0.84554 0.66187 0.0
H894 H 0.73056 0.96048 0.68205 0.0
H895 H 0.55284 0.76574 0.52789 0.0
O896 O 0.55973 0.75162 0.63618 0.0
H897 H 0.48832 0.82056 0.55571 0.0
H898 H 0.46242 0.72808 0.73993 0.0
H899 H 0.5714 0.82494 0.76907 0.0
H900 H 0.52712 0.82445 0.63438 0.0
H901 H 0.50426 0.7454 0.65978 0.0
O902 O 0.6498 0.86167 0.49707 0.0
H903 H 0.67848 0.90839 0.67455 0.0
H904 H 0.70971 0.88562 0.50991 0.0
H905 H 0.53034 0.80846 0.85042 0.0
H906 H 0.51395 0.76088 0.44817 0.0
H907 H 0.47534 0.75974 0.83609 0.0
H908 H 0.48144 0.78854 0.4618 0.0
O909 O 0.60528 0.8037 0.70987 0.0
H910 H 0.66386 0.76369 0.49308 0.0
H911 H 0.7088 0.85536 0.63827 0.0
H912 H 0.73642 0.82345 0.62444 0.0
H913 H 0.71412 0.77731 0.55103 0.0
H914 H 0.63677 0.79576 0.50904 0.0
H915 H 0.76188 0.9377 0.51521 0.0
H916 H 0.77266 0.97547 0.6019 0.0
O917 O 0.65194 0.84685 0.67651 0.0
C918 C 0.6045 0.87369 0.63981 0.0
C919 C 0.72618 0.94418 0.64413 0.0
C920 C 0.74373 0.93143 0.55043 0.0
N921 N 0.69106 0.89384 0.59207 0.0
C922 C 0.69677 0.91459 0.63974 0.0
C923 C 0.71405 0.90203 0.54755 0.0
C924 C 0.74978 0.9526 0.59911 0.0
C925 C 0.53862 0.77765 0.5342 0.0
N926 N 0.5423 0.79539 0.58559 0.0
C927 C 0.51671 0.7749 0.48889 0.0
C928 C 0.4985 0.79045 0.49653 0.0
C929 C 0.50236 0.80845 0.54916 0.0
C930 C 0.52451 0.81068 0.59346 0.0
C931 C 0.48632 0.74931 0.74679 0.0
C932 C 0.54759 0.80364 0.76252 0.0
C933 C 0.51016 0.75917 0.70164 0.0
N934 N 0.54037 0.78604 0.70984 0.0
C935 C 0.52443 0.79441 0.8088 0.0
C936 C 0.49358 0.76708 0.80072 0.0
C937 C 0.63501 0.82581 0.71706 0.0
C938 C 0.67403 0.78395 0.52475 0.0
C939 C 0.69885 0.8354 0.6062 0.0
C940 C 0.71467 0.8174 0.59854 0.0
C941 C 0.70216 0.79153 0.55738 0.0
N942 N 0.67146 0.82819 0.57347 0.0
C943 C 0.65888 0.80253 0.53362 0.0
Co944 Co 0.21149 0.77838 0.66356 0.0
Co945 Co 0.15947 0.79984 0.595 0.0
O946 O 0.20077 0.79923 0.59713 0.0
C947 C 0.2715 0.84428 0.66562 0.0
O948 O 0.25273 0.8574 0.66576 0.0
C949 C 0.13496 0.77718 0.46978 0.0
O950 O 0.10928 0.75208 0.494 0.0
O951 O 0.13407 0.75091 0.60318 0.0
O952 O 0.16499 0.74298 0.67066 0.0
H953 H 0.04576 0.76625 0.66454 0.0
H954 H 0.24921 0.79379 0.549 0.0
O955 O 0.25889 0.81337 0.66026 0.0
H956 H 0.19743 0.67416 0.57293 0.0
H957 H 0.27911 0.73811 0.76933 0.0
H958 H 0.18033 0.74797 0.7812 0.0
H959 H 0.18923 0.70736 0.64972 0.0
H960 H 0.26568 0.76474 0.68688 0.0
O961 O 0.15878 0.79678 0.50351 0.0
H962 H 0.09817 0.76686 0.66616 0.0
H963 H 0.13304 0.83416 0.51931 0.0
H964 H 0.19264 0.72087 0.86428 0.0
H965 H 0.25843 0.76151 0.47126 0.0
H966 H 0.24231 0.71572 0.85862 0.0
H967 H 0.23235 0.70125 0.48298 0.0
O968 O 0.20337 0.80428 0.72451 0.0
H969 H 0.24904 0.90591 0.51079 0.0
H970 H 0.15742 0.85557 0.65557 0.0
H971 H 0.1904 0.91563 0.64896 0.0
H972 H 0.23655 0.94121 0.57594 0.0
H973 H 0.21566 0.84591 0.5196 0.0
H974 H 0.08095 0.8341 0.5158 0.0
H975 H 0.03685 0.79998 0.58885 0.0
O976 O 0.15957 0.80434 0.68546 0.0
C977 C 0.13828 0.73339 0.64231 0.0
C978 C 0.06477 0.78118 0.63241 0.0
C979 C 0.08451 0.81925 0.54894 0.0
N980 N 0.11864 0.80039 0.59268 0.0
C981 C 0.09451 0.78163 0.6331 0.0
C982 C 0.11394 0.81912 0.55103 0.0
C983 C 0.05979 0.80011 0.58994 0.0
C984 C 0.23801 0.7676 0.5545 0.0
N985 N 0.21885 0.75252 0.60386 0.0
C986 C 0.24322 0.74945 0.51032 0.0
C987 C 0.22856 0.71562 0.51688 0.0
C988 C 0.20895 0.7004 0.56731 0.0
C989 C 0.20432 0.71934 0.61056 0.0
C990 C 0.25739 0.7402 0.77232 0.0
C991 C 0.20198 0.74583 0.77831 0.0
C992 C 0.24974 0.75539 0.72589 0.0
N993 N 0.22221 0.75788 0.72911 0.0
C994 C 0.20884 0.73048 0.82557 0.0
C995 C 0.23673 0.72763 0.8224 0.0
C996 C 0.1793 0.80915 0.72896 0.0
C997 C 0.22898 0.89506 0.54276 0.0
C998 C 0.17764 0.86647 0.62425 0.0
C999 C 0.19613 0.90052 0.6204 0.0
C1000 C 0.22199 0.91486 0.57938 0.0
N1001 N 0.18461 0.84719 0.58817 0.0
C1002 C 0.20993 0.8611 0.54784 0.0
Co1003 Co 0.20081 0.33635 0.56989 0.0
Co1004 Co 0.21816 0.41119 0.62533 0.0
O1005 O 0.19939 0.37725 0.56173 0.0
C1006 C 0.22083 0.3539 0.43904 0.0
O1007 O 0.23928 0.38496 0.45291 0.0
C1008 C 0.15362 0.40902 0.62358 0.0
O1009 O 0.1387 0.37786 0.63799 0.0
O1010 O 0.18999 0.37894 0.6871 0.0
O1011 O 0.19552 0.33631 0.65986 0.0
H1012 H 0.26604 0.45503 0.83137 0.0
H1013 H 0.15381 0.34023 0.48671 0.0
O1014 O 0.20469 0.33308 0.48 0.0
H1015 H 0.08637 0.24963 0.62658 0.0
H1016 H 0.1747 0.22255 0.51106 0.0
H1017 H 0.23449 0.31396 0.65414 0.0
H1018 H 0.14635 0.27967 0.63533 0.0
H1019 H 0.17114 0.27271 0.50266 0.0
O1020 O 0.18403 0.42412 0.61072 0.0
H1021 H 0.24287 0.41353 0.75028 0.0
H1022 H 0.23271 0.4803 0.63596 0.0
H1023 H 0.23837 0.26405 0.66464 0.0
H1024 H 0.09386 0.31061 0.47579 0.0
H1025 H 0.20845 0.21795 0.59261 0.0
H1026 H 0.05971 0.265 0.54618 0.0
O1027 O 0.24953 0.36222 0.57861 0.0
H1028 H 0.24186 0.46833 0.4237 0.0
H1029 H 0.28946 0.45984 0.61735 0.0
H1030 H 0.32518 0.4987 0.53952 0.0
H1031 H 0.30148 0.50325 0.44182 0.0
H1032 H 0.20696 0.42945 0.50286 0.0
H1033 H 0.25543 0.52241 0.71611 0.0
H1034 H 0.27243 0.50993 0.81458 0.0
O1035 O 0.2532 0.40053 0.64349 0.0
C1036 C 0.18675 0.35096 0.69741 0.0
C1037 C 0.25871 0.46076 0.78867 0.0
C1038 C 0.25272 0.49856 0.72401 0.0
N1039 N 0.23638 0.44443 0.68836 0.0
C1040 C 0.24561 0.43736 0.7425 0.0
C1041 C 0.23972 0.47455 0.67888 0.0
C1042 C 0.26225 0.49154 0.77924 0.0
C1043 C 0.13912 0.32033 0.51735 0.0
N1044 N 0.1536 0.31176 0.56175 0.0
C1045 C 0.10518 0.30368 0.51101 0.0
C1046 C 0.08604 0.27811 0.55055 0.0
C1047 C 0.10097 0.2695 0.5957 0.0
C1048 C 0.13497 0.28671 0.60067 0.0
C1049 C 0.18789 0.24249 0.54269 0.0
C1050 C 0.22124 0.29395 0.6228 0.0
C1051 C 0.18608 0.27103 0.538 0.0
N1052 N 0.20263 0.29632 0.57782 0.0
C1053 C 0.22358 0.26576 0.62892 0.0
C1054 C 0.2068 0.23991 0.58848 0.0
C1055 C 0.26511 0.38467 0.61788 0.0
C1056 C 0.25249 0.46664 0.46611 0.0
C1057 C 0.27891 0.4615 0.57488 0.0
C1058 C 0.29929 0.48365 0.531 0.0
C1059 C 0.28594 0.48619 0.47626 0.0
N1060 N 0.24611 0.44246 0.56464 0.0
C1061 C 0.23284 0.44477 0.51111 0.0
C1062 C 0.2026 0.30844 0.36295 0.0
C1063 C 0.217 0.34219 0.37525 0.0
H1064 H 0.18496 0.27055 0.29557 0.0
C1065 C 0.22608 0.36397 0.32622 0.0
H1066 H 0.19557 0.29092 0.3996 0.0
C1067 C 0.21981 0.35218 0.26645 0.0
C1068 C 0.2046 0.31835 0.25424 0.0
H1069 H 0.23721 0.39005 0.33399 0.0
H1070 H 0.22657 0.36967 0.22979 0.0
C1071 C 0.1966 0.29668 0.30322 0.0
C1072 C 0.64028 0.83127 0.34731 0.0
C1073 C 0.64432 0.85501 0.39024 0.0
H1074 H 0.65077 0.82155 0.25756 0.0
C1075 C 0.66269 0.88823 0.37415 0.0
H1076 H 0.62679 0.80552 0.35884 0.0
C1077 C 0.67585 0.89746 0.31557 0.0
C1078 C 0.672 0.8737 0.27271 0.0
H1079 H 0.66649 0.90706 0.40666 0.0
H1080 H 0.68913 0.92318 0.30384 0.0
C1081 C 0.6544 0.84051 0.28956 0.0
C1082 C 0.11331 0.76348 0.36301 0.0
C1083 C 0.13301 0.78693 0.40648 0.0
H1084 H 0.09469 0.75454 0.27174 0.0
C1085 C 0.14858 0.82024 0.39053 0.0
H1086 H 0.10088 0.73767 0.37403 0.0
C1087 C 0.14392 0.82991 0.33303 0.0
C1088 C 0.12442 0.80648 0.28948 0.0
H1089 H 0.16374 0.83898 0.42304 0.0
H1090 H 0.15618 0.85575 0.32222 0.0
C1091 C 0.10956 0.77314 0.30471 0.0
C1092 C 0.33902 0.22808 0.62345 0.0
C1093 C 0.35723 0.21293 0.60865 0.0
H1094 H 0.31234 0.23724 0.69227 0.0
C1095 C 0.3608 0.19339 0.65258 0.0
H1096 H 0.33557 0.243 0.59022 0.0
C1097 C 0.34638 0.18899 0.70997 0.0
C1098 C 0.32889 0.20485 0.72547 0.0
H1099 H 0.37418 0.18092 0.64215 0.0
H1100 H 0.3497 0.17381 0.74276 0.0
C1101 C 0.32551 0.22458 0.68163 0.0
C1102 C 0.76655 0.10688 0.65192 0.0
C1103 C 0.78957 0.1263 0.60767 0.0
H1104 H 0.75843 0.08901 0.7437 0.0
C1105 C 0.82296 0.14211 0.62277 0.0
H1106 H 0.74069 0.09427 0.64158 0.0
C1107 C 0.83312 0.13799 0.6802 0.0
C1108 C 0.81012 0.1188 0.72455 0.0
H1109 H 0.84137 0.15705 0.58965 0.0
H1110 H 0.859 0.15043 0.69032 0.0
C1111 C 0.7767 0.10367 0.71014 0.0
C1112 C 0.87276 0.6458 0.70967 0.0
C1113 C 0.88804 0.6794 0.72384 0.0
H1114 H 0.85496 0.60907 0.64013 0.0
C1115 C 0.89876 0.7021 0.67612 0.0
H1116 H 0.86445 0.6276 0.74533 0.0
C1117 C 0.89313 0.69137 0.61567 0.0
C1118 C 0.87696 0.65772 0.60159 0.0
H1119 H 0.9106 0.72809 0.6854 0.0
H1120 H 0.90103 0.70953 0.57996 0.0
C1121 C 0.86742 0.6351 0.64929 0.0
C1122 C 1.00196 0.55918 0.03243 0.0
C1123 C 0.98332 0.52588 0.04785 0.0
H1124 H 0.02887 0.59447 0.9629 0.0
C1125 C 0.97925 0.50233 0.00442 0.0
H1126 H 0.00579 0.57787 0.06528 0.0
C1127 C 0.99355 0.51183 0.94687 0.0
C1128 C 0.01144 0.5451 0.93072 0.0
H1129 H 0.96553 0.47651 0.01534 0.0
H1130 H 0.98981 0.493 0.91445 0.0
C1131 C 0.01537 0.56868 0.97408 0.0
C1132 C 0.44387 0.43522 0.01397 0.0
C1133 C 0.46358 0.45876 0.0573 0.0
H1134 H 0.42539 0.42609 0.92254 0.0
C1135 C 0.47931 0.49203 0.04097 0.0
H1136 H 0.43133 0.40944 0.02528 0.0
C1137 C 0.47476 0.50157 0.98327 0.0
C1138 C 0.45525 0.47805 0.93986 0.0
H1139 H 0.4945 0.51083 0.07334 0.0
H1140 H 0.48711 0.52737 0.97216 0.0
C1141 C 0.44027 0.44474 0.95543 0.0
C1142 C 0.56652 0.03572 0.02959 0.0
C1143 C 0.55257 0.01401 0.07843 0.0
H1144 H 0.57163 0.04158 0.93323 0.0
C1145 C 0.53392 0.9802 0.06606 0.0
H1146 H 0.58104 0.06183 0.03737 0.0
C1147 C 0.52861 0.96847 0.00626 0.0
C1148 C 0.54155 0.9903 0.95734 0.0
H1149 H 0.523 0.96268 0.10261 0.0
H1150 H 0.5136 0.94242 0.99836 0.0
C1151 C 0.56096 0.02403 0.9698 0.0
C1152 C 0.1631 0.33939 0.86309 0.0
C1153 C 0.15781 0.3078 0.87361 0.0
H1154 H 0.17597 0.37783 0.79874 0.0
C1155 C 0.15896 0.28936 0.82494 0.0
H1156 H 0.16183 0.35385 0.8999 0.0
C1157 C 0.16762 0.30319 0.76729 0.0
C1158 C 0.17449 0.33545 0.75706 0.0
H1159 H 0.1552 0.26506 0.83199 0.0
H1160 H 0.17009 0.2889 0.73143 0.0
C1161 C 0.17111 0.35305 0.80515 0.0
C1162 C 0.63153 0.82008 0.82982 0.0
C1163 C 0.65035 0.82866 0.77662 0.0
H1164 H 0.63155 0.82112 0.92664 0.0
C1165 C 0.68429 0.84202 0.78117 0.0
H1166 H 0.60533 0.80965 0.8278 0.0
C1167 C 0.69927 0.84753 0.83786 0.0
C1168 C 0.68068 0.84071 0.89117 0.0
H1169 H 0.6994 0.84865 0.74101 0.0
H1170 H 0.72554 0.85832 0.83977 0.0
C1171 C 0.64661 0.82658 0.88656 0.0
C1172 C 0.14321 0.8388 0.84947 0.0
C1173 C 0.15507 0.83216 0.90275 0.0
H1174 H 0.14065 0.83568 0.75281 0.0
C1175 C 0.17673 0.82009 0.89836 0.0
H1176 H 0.12652 0.84814 0.85145 0.0
C1177 C 0.18575 0.81394 0.84175 0.0
C1178 C 0.17255 0.81892 0.78843 0.0
H1179 H 0.1865 0.81506 0.93862 0.0
H1180 H 0.20214 0.80419 0.84 0.0
C1181 C 0.15142 0.8317 0.79287 0.0
C1182 C 0.37096 0.19531 0.1682 0.0
C1183 C 0.35272 0.18257 0.22152 0.0
H1184 H 0.37001 0.19887 0.07174 0.0
C1185 C 0.31909 0.16034 0.21726 0.0
H1186 H 0.39691 0.21247 0.17011 0.0
C1187 C 0.30375 0.15164 0.16077 0.0
C1188 C 0.32164 0.16572 0.10747 0.0
H1189 H 0.30451 0.14987 0.25757 0.0
H1190 H 0.27769 0.13477 0.15915 0.0
C1191 C 0.35548 0.18742 0.11176 0.0
C1192 C 0.84102 0.13544 0.16478 0.0
C1193 C 0.83663 0.14917 0.11172 0.0
H1194 H 0.83538 0.13088 0.26102 0.0
C1195 C 0.82609 0.17207 0.11631 0.0
H1196 H 0.84909 0.11771 0.16257 0.0
C1197 C 0.81917 0.18046 0.17286 0.0
C1198 C 0.82187 0.16544 0.22584 0.0
H1199 H 0.82287 0.18331 0.07619 0.0
H1200 H 0.81064 0.19787 0.17471 0.0
C1201 C 0.83318 0.14307 0.22126 0.0
C1202 C 0.83436 0.64046 0.11575 0.0
C1203 C 0.84318 0.67323 0.1047 0.0
H1204 H 0.82132 0.6028 0.18193 0.0
C1205 C 0.84248 0.69236 0.15281 0.0
H1206 H 0.83463 0.62498 0.07975 0.0
C1207 C 0.83534 0.67967 0.21145 0.0
C1208 C 0.82829 0.64754 0.22284 0.0
H1209 H 0.84888 0.71758 0.1458 0.0
H1210 H 0.83629 0.69534 0.24813 0.0
C1211 C 0.8266 0.62761 0.17427 0.0
C1212 C 0.02027 0.50998 0.43875 0.0
C1213 C 0.98682 0.49935 0.43436 0.0
H1214 H 0.06139 0.52469 0.49704 0.0
C1215 C 0.96857 0.49402 0.48759 0.0
H1216 H 0.03481 0.51388 0.39848 0.0
C1217 C 0.9839 0.50095 0.54416 0.0
C1218 C 0.01758 0.51235 0.54859 0.0
H1219 H 0.94276 0.48585 0.4855 0.0
H1220 H 0.9694 0.49798 0.58419 0.0
C1221 C 0.03544 0.51604 0.49532 0.0
C1222 C 0.50914 0.49333 0.54859 0.0
C1223 C 0.48742 0.50533 0.55325 0.0
H1224 H 0.53455 0.4776 0.48992 0.0
C1225 C 0.47563 0.51217 0.50008 0.0
H1226 H 0.51885 0.48812 0.58874 0.0
C1227 C 0.48384 0.50523 0.44336 0.0
C1228 C 0.50489 0.49237 0.43869 0.0
H1229 H 0.45893 0.5215 0.50224 0.0
H1230 H 0.47306 0.50928 0.40339 0.0
C1231 C 0.51817 0.48735 0.49186 0.0
C1232 C 0.48415 0.97828 0.52755 0.0
C1233 C 0.50442 0.99654 0.57593 0.0
H1234 H 0.47461 0.97677 0.4325 0.0
C1235 C 0.52889 0.02921 0.56579 0.0
H1236 H 0.46494 0.95315 0.53388 0.0
C1237 C 0.53391 0.04284 0.50798 0.0
C1238 C 0.51518 0.0238 0.45902 0.0
H1239 H 0.54508 0.04401 0.60188 0.0
H1240 H 0.55374 0.06755 0.50111 0.0
C1241 C 0.48971 0.99174 0.46946 0.0
C1242 C 0.23554 0.25652 0.94516 0.0
C1243 C 0.231 0.262 0.00636 0.0
H1244 H 0.25295 0.23361 0.88275 0.0
C1245 C 0.24456 0.25184 0.05201 0.0
H1246 H 0.22459 0.26352 0.90926 0.0
C1247 C 0.26009 0.23414 0.03688 0.0
C1248 C 0.26287 0.22687 0.97585 0.0
H1249 H 0.24064 0.255 0.09943 0.0
H1250 H 0.26807 0.22426 0.07316 0.0
C1251 C 0.25176 0.23946 0.92994 0.0
C1252 C 0.76691 0.01702 0.05049 0.0
C1253 C 0.77 0.02625 0.98894 0.0
H1254 H 0.75036 0.97746 0.11434 0.0
C1255 C 0.7542 1.00199 0.94466 0.0
H1256 H 0.77924 0.03537 0.08539 0.0
C1257 C 0.7382 0.96891 0.96122 0.0
C1258 C 0.73708 0.95966 0.02238 0.0
H1259 H 0.75676 0.00844 0.89695 0.0
H1260 H 0.72868 0.95049 0.9258 0.0
C1261 C 0.75026 0.98397 0.06718 0.0
C1262 C 0.99192 0.74208 0.94068 0.0
C1263 C 0.96666 0.7284 0.98353 0.0
H1264 H 0.04345 0.77257 0.92627 0.0
C1265 C 0.97457 0.73068 0.04568 0.0
H1266 H 0.9864 0.74137 0.89274 0.0
C1267 C 0.00719 0.74801 0.06491 0.0
C1268 C 0.03227 0.76402 0.02225 0.0
H1269 H 0.95537 0.72088 0.07957 0.0
H1270 H 0.01253 0.75124 0.1131 0.0
C1271 C 0.02446 0.76006 0.95995 0.0
C1272 C 0.77092 0.74599 0.9881 0.0
C1273 C 0.80458 0.76241 0.97495 0.0
H1274 H 0.72902 0.75028 0.01081 0.0
C1275 C 0.82168 0.79682 0.97459 0.0
H1276 H 0.75697 0.71952 0.98905 0.0
C1277 C 0.80589 0.81433 0.98822 0.0
C1278 C 0.77234 0.79804 0.00179 0.0
H1279 H 0.84756 0.81044 0.96478 0.0
H1280 H 0.8201 0.84077 0.98763 0.0
C1281 C 0.75493 0.76362 0.00096 0.0
C1282 C 0.17786 0.97921 0.02445 0.0
C1283 C 0.19442 0.96143 0.02434 0.0
H1284 H 0.18044 0.02523 0.01175 0.0
C1285 C 0.22815 0.9783 0.01174 0.0
H1286 H 0.15195 0.96726 0.03381 0.0
C1287 C 0.24475 0.01205 0.99938 0.0
C1288 C 0.22791 0.02958 0.99847 0.0
H1289 H 0.2417 0.96541 0.011 0.0
H1290 H 0.27071 0.02432 0.99005 0.0
C1291 C 0.19427 0.01264 0.0113 0.0
C1292 C 0.98327 0.17455 0.99691 0.0
C1293 C 0.96569 0.19095 0.98784 0.0
H1294 H 0.02916 0.17808 0.01523 0.0
C1295 C 0.98274 0.22536 0.99063 0.0
H1296 H 0.97113 0.14813 0.99572 0.0
C1297 C 0.01662 0.24283 0.00136 0.0
C1298 C 0.03404 0.22623 0.01072 0.0
H1299 H 0.96997 0.2388 0.98419 0.0
H1300 H 0.02915 0.26931 0.00231 0.0
C1301 C 0.01676 0.19185 0.0087 0.0
C1302 C 0.91318 0.60525 0.29658 0.0
C1303 C 0.90244 0.60277 0.35703 0.0
H1304 H 0.9338 0.58777 0.22909 0.0
C1305 C 0.90805 0.58347 0.39801 0.0
H1306 H 0.90811 0.61921 0.26373 0.0
C1307 C 0.92209 0.56519 0.37811 0.0
C1308 C 0.93079 0.56578 0.31676 0.0
H1309 H 0.89913 0.58042 0.44428 0.0
H1310 H 0.92444 0.54909 0.4101 0.0
C1311 C 0.92764 0.58713 0.27666 0.0
C1312 C 0.43382 0.36325 0.37 0.0
C1313 C 0.44211 0.37244 0.30885 0.0
H1314 H 0.41304 0.32384 0.43456 0.0
C1315 C 0.43146 0.34804 0.26427 0.0
H1316 H 0.44235 0.38173 0.40528 0.0
C1317 C 0.41541 0.31503 0.28122 0.0
C1318 C 0.40914 0.3059 0.34282 0.0
H1319 H 0.43821 0.35449 0.21714 0.0
H1320 H 0.40976 0.29666 0.24652 0.0
C1321 C 0.41707 0.33019 0.38682 0.0
C1322 C 0.64443 0.07471 0.38777 0.0
C1323 C 0.63437 0.06939 0.32659 0.0
H1324 H 0.68478 0.09738 0.45011 0.0
C1325 C 0.65808 0.07962 0.28087 0.0
H1326 H 0.6265 0.06767 0.42374 0.0
C1327 C 0.69131 0.09721 0.29592 0.0
C1328 C 0.7014 0.10433 0.35695 0.0
H1329 H 0.65097 0.07658 0.23346 0.0
H1330 H 0.70914 0.10712 0.2596 0.0
C1331 C 0.67771 0.09166 0.40291 0.0
C1332 C 0.43983 0.08964 0.33194 0.0
C1333 C 0.47384 0.10621 0.32242 0.0
H1334 H 0.39724 0.09372 0.34922 0.0
C1335 C 0.49096 0.14059 0.3243 0.0
H1336 H 0.42586 0.06317 0.33111 0.0
C1337 C 0.47479 0.15793 0.33604 0.0
C1338 C 0.44082 0.14156 0.34526 0.0
H1339 H 0.51712 0.15432 0.31764 0.0
H1340 H 0.48907 0.18435 0.33709 0.0
C1341 C 0.42345 0.10714 0.34267 0.0
C1342 C 0.89864 0.31913 0.34068 0.0
C1343 C 0.86433 0.30132 0.33708 0.0
H1344 H 0.94228 0.36611 0.33355 0.0
C1345 C 0.84789 0.318 0.32028 0.0
H1346 H 0.9121 0.30702 0.35312 0.0
C1347 C 0.86509 0.35149 0.30785 0.0
C1348 C 0.89932 0.3696 0.31277 0.0
H1349 H 0.82156 0.30516 0.31615 0.0
H1350 H 0.85131 0.36322 0.2953 0.0
C1351 C 0.91594 0.35297 0.32913 0.0
C1352 C 0.65558 0.51699 0.34498 0.0
C1353 C 0.63908 0.53356 0.32789 0.0
H1354 H 0.70041 0.52031 0.37195 0.0
C1355 C 0.65676 0.56797 0.32582 0.0
H1356 H 0.64282 0.49057 0.34789 0.0
C1357 C 0.69032 0.58526 0.33934 0.0
C1358 C 0.70675 0.56852 0.35618 0.0
H1359 H 0.64476 0.58152 0.31321 0.0
H1360 H 0.7034 0.6117 0.33617 0.0
C1361 C 0.68877 0.53418 0.35935 0.0
C1362 C 0.59223 0.91834 0.61689 0.0
C1363 C 0.59861 0.90022 0.65951 0.0
H1364 H 0.57075 0.94842 0.60153 0.0
C1365 C 0.59357 0.90341 0.72161 0.0
H1366 H 0.59538 0.91587 0.5688 0.0
C1367 C 0.58037 0.92268 0.74049 0.0
C1368 C 0.57134 0.93853 0.69743 0.0
H1369 H 0.59808 0.88941 0.75529 0.0
H1370 H 0.57448 0.92275 0.78805 0.0
C1371 C 0.57824 0.93699 0.63567 0.0
C1372 C 0.09925 0.67656 0.60778 0.0
C1373 C 0.11233 0.6995 0.65494 0.0
H1374 H 0.07516 0.62571 0.58388 0.0
C1375 C 0.10583 0.68849 0.71554 0.0
H1376 H 0.1044 0.68439 0.56084 0.0
C1377 C 0.08852 0.65499 0.72882 0.0
C1378 C 0.07819 0.63202 0.68164 0.0
H1379 H 0.11601 0.7058 0.75269 0.0
H1380 H 0.0859 0.64714 0.77575 0.0
C1381 C 0.08265 0.64305 0.62106 0.0
C1382 C 0.34039 0.41529 0.71425 0.0
C1383 C 0.36475 0.43368 0.67156 0.0
H1384 H 0.28891 0.3848 0.7299 0.0
C1385 C 0.35641 0.43062 0.60954 0.0
H1386 H 0.34611 0.41766 0.76229 0.0
C1387 C 0.32393 0.41119 0.59084 0.0
C1388 C 0.29918 0.39505 0.63402 0.0
H1389 H 0.37481 0.44481 0.57582 0.0
H1390 H 0.31786 0.41119 0.54338 0.0
C1391 C 0.30775 0.39648 0.69567 0.0
C1392 C 0.15444 0.46256 0.627 0.0
C1393 C 0.13668 0.42823 0.63138 0.0
H1394 H 0.15452 0.50759 0.63691 0.0
C1395 C 0.10354 0.41306 0.64825 0.0
H1396 H 0.17993 0.47523 0.61406 0.0
C1397 C 0.08875 0.43183 0.66102 0.0
C1398 C 0.10688 0.4662 0.65808 0.0
H1399 H 0.08911 0.38671 0.65233 0.0
H1400 H 0.06323 0.41943 0.67392 0.0
C1401 C 0.13986 0.48124 0.64059 0.0
C1402 C 0.50733 0.65018 0.67116 0.0
C1403 C 0.52402 0.63267 0.67708 0.0
H1404 H 0.51032 0.69615 0.65488 0.0
C1405 C 0.55824 0.64982 0.6708 0.0
H1406 H 0.48102 0.63794 0.67521 0.0
C1407 C 0.57527 0.68365 0.65936 0.0
C1408 C 0.55842 0.70103 0.6531 0.0
H1409 H 0.5719 0.63712 0.67474 0.0
H1410 H 0.60161 0.69617 0.65546 0.0
C1411 C 0.52422 0.68373 0.65896 0.0
C1412 C 0.32315 0.89915 0.67476 0.0
C1413 C 0.30714 0.86479 0.67767 0.0
H1414 H 0.36845 0.94446 0.68316 0.0
C1415 C 0.32532 0.84996 0.69479 0.0
H1416 H 0.30985 0.9114 0.66214 0.0
C1417 C 0.35861 0.86883 0.70803 0.0
C1418 C 0.37494 0.90316 0.70368 0.0
H1419 H 0.31382 0.82362 0.69843 0.0
H1420 H 0.37162 0.85632 0.72067 0.0
C1421 C 0.35672 0.91812 0.68721 0.0
loop_
_geom_bond_atom_site_label_1
_geom_bond_atom_site_label_2
_geom_bond_distance
_geom_bond_site_symmetry_2
_ccdc_geom_bond_type
Co0 O2 2.143 . S
Co0 O8 2.074 1_554 S
Co0 O11 2.093 . S
Co0 O24 2.097 . S
Co0 N41 2.151 . S
Co0 N49 2.214 . S
Co1 O2 2.160 . S
Co1 O7 2.058 1_554 S
Co1 O17 2.057 . S
Co1 O32 2.037 . S
Co1 N36 2.145 1_554 S
Co1 N57 2.257 . S
O2 Co0 2.143 . S
O2 Co1 2.160 . S
C3 O4 1.278 . S
C3 O11 1.224 . S
O4 C3 1.278 . S
C5 O6 1.245 . S
C5 O17 1.232 . S
O6 C5 1.245 . S
O7 Co1 2.058 1_556 S
O7 C33 1.269 . S
O8 Co0 2.074 1_556 S
O8 C33 1.257 . S
H9 C34 0.930 . S
H10 C40 0.930 . S
O11 Co0 2.093 . S
O11 C3 1.224 . S
H12 C44 0.929 . S
H13 C46 0.930 . S
H14 C47 0.934 . S
H15 C45 0.929 . S
H16 C48 0.928 . S
O17 Co1 2.057 . S
O17 C5 1.232 . S
H18 C37 0.929 . S
H19 C38 0.929 . S
H20 C50 0.931 1_556 S
H21 C42 0.929 . S
H22 C51 0.930 . S
H23 C43 0.931 . S
O24 Co0 2.097 . S
O24 C52 1.214 . S
H25 C53 0.929 . S
H26 C54 0.929 . S
H27 C55 0.930 . S
H28 C56 0.929 . S
H29 C58 0.930 . S
H30 C35 0.930 . S
H31 C39 0.930 . S
O32 Co1 2.037 . S
O32 C52 1.234 . S
C33 O7 1.269 . S
C33 O8 1.257 . S
C34 H9 0.930 . S
C34 C37 1.388 . S
C34 C39 1.418 . S
C35 H30 0.930 . S
C35 C38 1.404 . S
C35 C39 1.353 . S
N36 Co1 2.145 1_556 S
N36 C37 1.397 . S
N36 C38 1.334 . S
C37 H18 0.929 . S
C37 C34 1.388 . S
C37 N36 1.397 . S
C38 H19 0.929 . S
C38 C35 1.404 . S
C38 N36 1.334 . S
C39 H31 0.930 . S
C39 C34 1.418 . S
C39 C35 1.353 . S
C40 H10 0.930 . S
C40 N41 1.330 . S
C40 C42 1.446 . S
N41 Co0 2.151 . S
N41 C40 1.330 . S
N41 C45 1.418 . S
C42 H21 0.929 . S
C42 C40 1.446 . S
C42 C43 1.332 . S
C43 H23 0.931 . S
C43 C42 1.332 . S
C43 C44 1.267 . S
C44 H12 0.929 . S
C44 C43 1.267 . S
C44 C45 1.251 . S
C45 H15 0.929 . S
C45 N41 1.418 . S
C45 C44 1.251 . S
C46 H13 0.930 . S
C46 C48 1.406 . S
C46 C51 1.261 . S
C47 H14 0.934 . S
C47 N49 1.325 . S
C47 C50 1.357 . S
C48 H16 0.928 . S
C48 C46 1.406 . S
C48 N49 1.261 . S
N49 Co0 2.214 . S
N49 C47 1.325 . S
N49 C48 1.261 . S
C50 H20 0.931 1_554 S
C50 C47 1.357 . S
C50 C51 1.312 . S
C51 H22 0.930 . S
C51 C46 1.261 . S
C51 C50 1.312 . S
C52 O24 1.214 . S
C52 O32 1.234 . S
C53 H25 0.929 . S
C53 C56 1.391 . S
C53 C58 1.391 . S
C54 H26 0.929 . S
C54 C55 1.390 . S
C54 N57 1.391 . S
C55 H27 0.930 . S
C55 C54 1.390 . S
C55 C56 1.392 . S
C56 H28 0.929 . S
C56 C53 1.391 . S
C56 C55 1.392 . S
N57 Co1 2.257 . S
N57 C54 1.391 . S
N57 C58 1.388 . S
C58 H29 0.930 . S
C58 C53 1.391 . S
C58 N57 1.388 . S
Co59 O61 2.143 1_556 S
Co59 O67 2.074 . S
Co59 O70 2.093 . S
Co59 O83 2.097 . S
Co59 N100 2.151 1_556 S
Co59 N108 2.214 . S
Co60 O61 2.160 . S
Co60 O66 2.058 . S
Co60 O76 2.057 . S
Co60 O91 2.037 1_554 S
Co60 N95 2.145 . S
Co60 N116 2.257 . S
O61 Co59 2.143 1_554 S
O61 Co60 2.160 . S
C62 O63 1.278 . S
C62 O70 1.224 1_554 S
O63 C62 1.278 . S
C64 O65 1.245 . S
C64 O76 1.232 . S
O65 C64 1.245 . S
O66 Co60 2.058 . S
O66 C92 1.269 . S
O67 Co59 2.074 . S
O67 C92 1.257 1_556 S
H68 C93 0.930 1_556 S
H69 C99 0.930 . S
O70 Co59 2.093 . S
O70 C62 1.224 1_556 S
H71 C103 0.929 . S
H72 C105 0.930 . S
H73 C106 0.930 . S
H74 C104 0.929 . S
H75 C107 0.928 . S
O76 Co60 2.057 . S
O76 C64 1.232 . S
H77 C96 0.929 1_556 S
H78 C97 0.929 . S
H79 C109 0.931 . S
H80 C101 0.929 . S
H81 C110 0.930 . S
H82 C102 0.931 . S
O83 Co59 2.097 . S
O83 C111 1.214 . S
H84 C112 0.929 . S
H85 C113 0.929 1_556 S
H86 C114 0.930 1_556 S
H87 C115 0.929 . S
H88 C117 0.930 . S
H89 C94 0.930 . S
H90 C98 0.930 . S
O91 Co60 2.037 1_556 S
O91 C111 1.234 . S
C92 O66 1.269 . S
C92 O67 1.257 1_554 S
C93 H68 0.930 1_554 S
C93 C96 1.388 . S
C93 C98 1.418 . S
C94 H89 0.930 . S
C94 C97 1.404 . S
C94 C98 1.353 . S
N95 Co60 2.145 . S
N95 C96 1.397 . S
N95 C97 1.334 . S
C96 H77 0.929 1_554 S
C96 C93 1.388 . S
C96 N95 1.397 . S
C97 H78 0.929 . S
C97 C94 1.404 . S
C97 N95 1.334 . S
C98 H90 0.930 . S
C98 C93 1.418 . S
C98 C94 1.353 . S
C99 H69 0.930 . S
C99 N100 1.330 . S
C99 C101 1.446 . S
N100 Co59 2.151 1_554 S
N100 C99 1.330 . S
N100 C104 1.418 . S
C101 H80 0.929 . S
C101 C99 1.446 . S
C101 C102 1.332 . S
C102 H82 0.931 . S
C102 C101 1.332 . S
C102 C103 1.267 . S
C103 H71 0.929 . S
C103 C102 1.267 . S
C103 C104 1.251 . S
C104 H74 0.929 . S
C104 N100 1.418 . S
C104 C103 1.251 . S
C105 H72 0.930 . S
C105 C107 1.406 . S
C105 C110 1.261 . S
C106 H73 0.930 . S
C106 N108 1.325 . S
C106 C109 1.357 . S
C107 H75 0.928 . S
C107 C105 1.406 . S
C107 N108 1.261 . S
N108 Co59 2.214 . S
N108 C106 1.325 . S
N108 C107 1.261 . S
C109 H79 0.931 . S
C109 C106 1.357 . S
C109 C110 1.312 . S
C110 H81 0.930 . S
C110 C105 1.261 . S
C110 C109 1.312 . S
C111 O83 1.214 . S
C111 O91 1.234 . S
C112 H84 0.929 . S
C112 C115 1.391 . S
C112 C117 1.391 . S
C113 H85 0.929 1_554 S
C113 C114 1.390 . S
C113 N116 1.391 . S
C114 H86 0.930 1_554 S
C114 C113 1.390 . S
C114 C115 1.392 . S
C115 H87 0.929 . S
C115 C112 1.391 . S
C115 C114 1.392 . S
N116 Co60 2.257 . S
N116 C113 1.391 . S
N116 C117 1.388 . S
C117 H88 0.930 . S
C117 C112 1.391 . S
C117 N116 1.388 . S
Co118 O120 2.143 1_556 S
Co118 O126 2.074 . S
Co118 O129 2.093 . S
Co118 O142 2.097 . S
Co118 N159 2.151 1_556 S
Co118 N167 2.214 . S
Co119 O120 2.160 . S
Co119 O125 2.058 . S
Co119 O135 2.057 . S
Co119 O150 2.037 1_554 S
Co119 N154 2.145 . S
Co119 N175 2.257 . S
O120 Co118 2.143 1_554 S
O120 Co119 2.160 . S
C121 O122 1.278 . S
C121 O129 1.224 1_554 S
O122 C121 1.278 . S
C123 O124 1.245 . S
C123 O135 1.232 . S
O124 C123 1.245 . S
O125 Co119 2.058 . S
O125 C151 1.269 . S
O126 Co118 2.074 . S
O126 C151 1.257 1_556 S
H127 C152 0.930 1_556 S
H128 C158 0.930 . S
O129 Co118 2.093 . S
O129 C121 1.224 1_556 S
H130 C162 0.929 . S
H131 C164 0.930 . S
H132 C165 0.930 . S
H133 C163 0.929 . S
H134 C166 0.928 . S
O135 Co119 2.057 . S
O135 C123 1.232 . S
H136 C155 0.929 1_556 S
H137 C156 0.929 . S
H138 C168 0.931 . S
H139 C160 0.929 . S
H140 C169 0.930 . S
H141 C161 0.931 . S
O142 Co118 2.097 . S
O142 C170 1.214 . S
H143 C171 0.929 . S
H144 C172 0.929 1_556 S
H145 C173 0.930 1_556 S
H146 C174 0.929 . S
H147 C176 0.930 . S
H148 C153 0.930 . S
H149 C157 0.930 . S
O150 Co119 2.037 1_556 S
O150 C170 1.234 . S
C151 O125 1.269 . S
C151 O126 1.257 1_554 S
C152 H127 0.930 1_554 S
C152 C155 1.388 . S
C152 C157 1.418 . S
C153 H148 0.930 . S
C153 C156 1.404 . S
C153 C157 1.353 . S
N154 Co119 2.145 . S
N154 C155 1.397 . S
N154 C156 1.334 . S
C155 H136 0.929 1_554 S
C155 C152 1.388 . S
C155 N154 1.397 . S
C156 H137 0.929 . S
C156 C153 1.404 . S
C156 N154 1.334 . S
C157 H149 0.930 . S
C157 C152 1.418 . S
C157 C153 1.353 . S
C158 H128 0.930 . S
C158 N159 1.330 . S
C158 C160 1.446 . S
N159 Co118 2.151 1_554 S
N159 C158 1.330 . S
N159 C163 1.418 . S
C160 H139 0.929 . S
C160 C158 1.446 . S
C160 C161 1.332 . S
C161 H141 0.931 . S
C161 C160 1.332 . S
C161 C162 1.267 . S
C162 H130 0.929 . S
C162 C161 1.267 . S
C162 C163 1.251 . S
C163 H133 0.929 . S
C163 N159 1.418 . S
C163 C162 1.251 . S
C164 H131 0.930 . S
C164 C166 1.406 . S
C164 C169 1.261 . S
C165 H132 0.930 . S
C165 N167 1.325 . S
C165 C168 1.357 . S
C166 H134 0.928 . S
C166 C164 1.406 . S
C166 N167 1.261 . S
N167 Co118 2.214 . S
N167 C165 1.325 . S
N167 C166 1.261 . S
C168 H138 0.931 . S
C168 C165 1.357 . S
C168 C169 1.312 . S
C169 H140 0.930 . S
C169 C164 1.261 . S
C169 C168 1.312 . S
C170 O142 1.214 . S
C170 O150 1.234 . S
C171 H143 0.929 . S
C171 C174 1.391 . S
C171 C176 1.391 . S
C172 H144 0.929 1_554 S
C172 C173 1.390 . S
C172 N175 1.391 . S
C173 H145 0.930 1_554 S
C173 C172 1.390 . S
C173 C174 1.392 . S
C174 H146 0.929 . S
C174 C171 1.391 . S
C174 C173 1.392 . S
N175 Co119 2.257 . S
N175 C172 1.391 . S
N175 C176 1.388 . S
C176 H147 0.930 . S
C176 C171 1.391 . S
C176 N175 1.388 . S
Co177 O179 2.143 1_554 S
Co177 O185 2.074 . S
Co177 O188 2.093 . S
Co177 O201 2.097 . S
Co177 N218 2.151 1_554 S
Co177 N226 2.214 . S
Co178 O179 2.160 . S
Co178 O184 2.058 . S
Co178 O194 2.057 . S
Co178 O209 2.037 1_556 S
Co178 N213 2.145 . S
Co178 N234 2.257 . S
O179 Co177 2.143 1_556 S
O179 Co178 2.160 . S
C180 O181 1.278 . S
C180 O188 1.224 1_556 S
O181 C180 1.278 . S
C182 O183 1.245 . S
C182 O194 1.232 . S
O183 C182 1.245 . S
O184 Co178 2.058 . S
O184 C210 1.269 . S
O185 Co177 2.074 . S
O185 C210 1.257 1_554 S
H186 C211 0.930 1_554 S
H187 C217 0.930 . S
O188 Co177 2.093 . S
O188 C180 1.224 1_554 S
H189 C221 0.929 . S
H190 C223 0.930 . S
H191 C224 0.930 . S
H192 C222 0.929 . S
H193 C225 0.928 . S
O194 Co178 2.057 . S
O194 C182 1.232 . S
H195 C214 0.929 1_554 S
H196 C215 0.929 . S
H197 C227 0.931 . S
H198 C219 0.929 . S
H199 C228 0.930 . S
H200 C220 0.931 . S
O201 Co177 2.097 . S
O201 C229 1.214 . S
H202 C230 0.929 . S
H203 C231 0.929 1_554 S
H204 C232 0.930 1_554 S
H205 C233 0.929 . S
H206 C235 0.930 . S
H207 C212 0.930 . S
H208 C216 0.930 . S
O209 Co178 2.037 1_554 S
O209 C229 1.234 . S
C210 O184 1.269 . S
C210 O185 1.257 1_556 S
C211 H186 0.930 1_556 S
C211 C214 1.388 . S
C211 C216 1.418 . S
C212 H207 0.930 . S
C212 C215 1.404 . S
C212 C216 1.353 . S
N213 Co178 2.145 . S
N213 C214 1.397 . S
N213 C215 1.334 . S
C214 H195 0.929 1_556 S
C214 C211 1.388 . S
C214 N213 1.397 . S
C215 H196 0.929 . S
C215 C212 1.404 . S
C215 N213 1.334 . S
C216 H208 0.930 . S
C216 C211 1.418 . S
C216 C212 1.353 . S
C217 H187 0.930 . S
C217 N218 1.330 . S
C217 C219 1.446 . S
N218 Co177 2.151 1_556 S
N218 C217 1.330 . S
N218 C222 1.418 . S
C219 H198 0.929 . S
C219 C217 1.446 . S
C219 C220 1.332 . S
C220 H200 0.931 . S
C220 C219 1.332 . S
C220 C221 1.267 . S
C221 H189 0.929 . S
C221 C220 1.267 . S
C221 C222 1.251 . S
C222 H192 0.929 . S
C222 N218 1.418 . S
C222 C221 1.251 . S
C223 H190 0.930 . S
C223 C225 1.406 . S
C223 C228 1.261 . S
C224 H191 0.930 . S
C224 N226 1.325 . S
C224 C227 1.357 . S
C225 H193 0.928 . S
C225 C223 1.406 . S
C225 N226 1.261 . S
N226 Co177 2.214 . S
N226 C224 1.325 . S
N226 C225 1.261 . S
C227 H197 0.931 . S
C227 C224 1.357 . S
C227 C228 1.312 . S
C228 H199 0.930 . S
C228 C223 1.261 . S
C228 C227 1.312 . S
C229 O201 1.214 . S
C229 O209 1.234 . S
C230 H202 0.929 . S
C230 C233 1.391 . S
C230 C235 1.391 . S
C231 H203 0.929 1_556 S
C231 C232 1.390 . S
C231 N234 1.391 . S
C232 H204 0.930 1_556 S
C232 C231 1.390 . S
C232 C233 1.392 . S
C233 H205 0.929 . S
C233 C230 1.391 . S
C233 C232 1.392 . S
N234 Co178 2.257 . S
N234 C231 1.391 . S
N234 C235 1.388 . S
C235 H206 0.930 . S
C235 C230 1.391 . S
C235 N234 1.388 . S
Co236 O238 2.143 1_554 S
Co236 O244 2.074 . S
Co236 O247 2.093 . S
Co236 O260 2.097 . S
Co236 N277 2.151 1_554 S
Co236 N285 2.214 . S
Co237 O238 2.160 . S
Co237 O243 2.058 . S
Co237 O253 2.057 . S
Co237 O268 2.037 1_556 S
Co237 N272 2.145 . S
Co237 N293 2.257 . S
O238 Co236 2.143 1_556 S
O238 Co237 2.160 . S
C239 O240 1.278 . S
C239 O247 1.224 1_556 S
O240 C239 1.278 . S
C241 O242 1.245 . S
C241 O253 1.232 . S
O242 C241 1.245 . S
O243 Co237 2.058 . S
O243 C269 1.269 . S
O244 Co236 2.074 . S
O244 C269 1.257 1_554 S
H245 C270 0.930 1_554 S
H246 C276 0.930 . S
O247 Co236 2.093 . S
O247 C239 1.224 1_554 S
H248 C280 0.929 . S
H249 C282 0.930 . S
H250 C283 0.930 . S
H251 C281 0.929 . S
H252 C284 0.928 . S
O253 Co237 2.057 . S
O253 C241 1.232 . S
H254 C273 0.929 1_554 S
H255 C274 0.929 . S
H256 C286 0.931 . S
H257 C278 0.929 . S
H258 C287 0.930 . S
H259 C279 0.931 . S
O260 Co236 2.097 . S
O260 C288 1.214 . S
H261 C289 0.929 . S
H262 C290 0.929 1_554 S
H263 C291 0.930 1_554 S
H264 C292 0.929 . S
H265 C294 0.930 . S
H266 C271 0.930 . S
H267 C275 0.930 . S
O268 Co237 2.037 1_554 S
O268 C288 1.234 . S
C269 O243 1.269 . S
C269 O244 1.257 1_556 S
C270 H245 0.930 1_556 S
C270 C273 1.388 . S
C270 C275 1.418 . S
C271 H266 0.930 . S
C271 C274 1.404 . S
C271 C275 1.353 . S
N272 Co237 2.145 . S
N272 C273 1.397 . S
N272 C274 1.334 . S
C273 H254 0.929 1_556 S
C273 C270 1.388 . S
C273 N272 1.397 . S
C274 H255 0.929 . S
C274 C271 1.404 . S
C274 N272 1.334 . S
C275 H267 0.930 . S
C275 C270 1.418 . S
C275 C271 1.353 . S
C276 H246 0.930 . S
C276 N277 1.330 . S
C276 C278 1.446 . S
N277 Co236 2.151 1_556 S
N277 C276 1.330 . S
N277 C281 1.418 . S
C278 H257 0.929 . S
C278 C276 1.446 . S
C278 C279 1.332 . S
C279 H259 0.931 . S
C279 C278 1.332 . S
C279 C280 1.267 . S
C280 H248 0.929 . S
C280 C279 1.267 . S
C280 C281 1.251 . S
C281 H251 0.929 . S
C281 N277 1.418 . S
C281 C280 1.251 . S
C282 H249 0.930 . S
C282 C284 1.406 . S
C282 C287 1.261 . S
C283 H250 0.930 . S
C283 N285 1.325 . S
C283 C286 1.357 . S
C284 H252 0.928 . S
C284 C282 1.406 . S
C284 N285 1.261 . S
N285 Co236 2.214 . S
N285 C283 1.325 . S
N285 C284 1.261 . S
C286 H256 0.931 . S
C286 C283 1.357 . S
C286 C287 1.312 . S
C287 H258 0.930 . S
C287 C282 1.261 . S
C287 C286 1.312 . S
C288 O260 1.214 . S
C288 O268 1.234 . S
C289 H261 0.929 . S
C289 C292 1.391 . S
C289 C294 1.391 . S
C290 H262 0.929 1_556 S
C290 C291 1.390 . S
C290 N293 1.391 . S
C291 H263 0.930 1_556 S
C291 C290 1.390 . S
C291 C292 1.392 . S
C292 H264 0.929 . S
C292 C289 1.391 . S
C292 C291 1.392 . S
N293 Co237 2.257 . S
N293 C290 1.391 . S
N293 C294 1.388 . S
C294 H265 0.930 . S
C294 C289 1.391 . S
C294 N293 1.388 . S
Co295 O297 2.143 . S
Co295 O303 2.074 1_556 S
Co295 O306 2.093 . S
Co295 O319 2.097 . S
Co295 N336 2.151 . S
Co295 N344 2.214 . S
Co296 O297 2.160 . S
Co296 O302 2.058 1_556 S
Co296 O312 2.057 . S
Co296 O327 2.037 . S
Co296 N331 2.145 1_556 S
Co296 N352 2.257 . S
O297 Co295 2.143 . S
O297 Co296 2.160 . S
C298 O299 1.278 . S
C298 O306 1.224 . S
O299 C298 1.278 . S
C300 O301 1.245 . S
C300 O312 1.232 . S
O301 C300 1.245 . S
O302 Co296 2.058 1_554 S
O302 C328 1.269 . S
O303 Co295 2.074 1_554 S
O303 C328 1.257 . S
H304 C329 0.930 . S
H305 C335 0.930 . S
O306 Co295 2.093 . S
O306 C298 1.224 . S
H307 C339 0.929 . S
H308 C341 0.930 . S
H309 C342 0.934 . S
H310 C340 0.929 . S
H311 C343 0.928 . S
O312 Co296 2.057 . S
O312 C300 1.232 . S
H313 C332 0.929 . S
H314 C333 0.929 . S
H315 C345 0.931 1_554 S
H316 C337 0.929 . S
H317 C346 0.930 . S
H318 C338 0.931 . S
O319 Co295 2.097 . S
O319 C347 1.214 . S
H320 C348 0.929 . S
H321 C349 0.929 . S
H322 C350 0.930 . S
H323 C351 0.929 . S
H324 C353 0.930 . S
H325 C330 0.930 . S
H326 C334 0.930 . S
O327 Co296 2.037 . S
O327 C347 1.234 . S
C328 O302 1.269 . S
C328 O303 1.257 . S
C329 H304 0.930 . S
C329 C332 1.388 . S
C329 C334 1.418 . S
C330 H325 0.930 . S
C330 C333 1.404 . S
C330 C334 1.353 . S
N331 Co296 2.145 1_554 S
N331 C332 1.397 . S
N331 C333 1.334 . S
C332 H313 0.929 . S
C332 C329 1.388 . S
C332 N331 1.397 . S
C333 H314 0.929 . S
C333 C330 1.404 . S
C333 N331 1.334 . S
C334 H326 0.930 . S
C334 C329 1.418 . S
C334 C330 1.353 . S
C335 H305 0.930 . S
C335 N336 1.330 . S
C335 C337 1.446 . S
N336 Co295 2.151 . S
N336 C335 1.330 . S
N336 C340 1.418 . S
C337 H316 0.929 . S
C337 C335 1.446 . S
C337 C338 1.332 . S
C338 H318 0.931 . S
C338 C337 1.332 . S
C338 C339 1.267 . S
C339 H307 0.929 . S
C339 C338 1.267 . S
C339 C340 1.251 . S
C340 H310 0.929 . S
C340 N336 1.418 . S
C340 C339 1.251 . S
C341 H308 0.930 . S
C341 C343 1.406 . S
C341 C346 1.261 . S
C342 H309 0.934 . S
C342 N344 1.325 . S
C342 C345 1.357 . S
C343 H311 0.928 . S
C343 C341 1.406 . S
C343 N344 1.261 . S
N344 Co295 2.214 . S
N344 C342 1.325 . S
N344 C343 1.261 . S
C345 H315 0.931 1_556 S
C345 C342 1.357 . S
C345 C346 1.312 . S
C346 H317 0.930 . S
C346 C341 1.261 . S
C346 C345 1.312 . S
C347 O319 1.214 . S
C347 O327 1.234 . S
C348 H320 0.929 . S
C348 C351 1.391 . S
C348 C353 1.391 . S
C349 H321 0.929 . S
C349 C350 1.390 . S
C349 N352 1.391 . S
C350 H322 0.930 . S
C350 C349 1.390 . S
C350 C351 1.392 . S
C351 H323 0.929 . S
C351 C348 1.391 . S
C351 C350 1.392 . S
N352 Co296 2.257 . S
N352 C349 1.391 . S
N352 C353 1.388 . S
C353 H324 0.930 . S
C353 C348 1.391 . S
C353 N352 1.388 . S
Co354 O356 2.143 . S
Co354 O362 2.074 . S
Co354 O365 2.093 . S
Co354 O378 2.097 . S
Co354 N395 2.151 . S
Co354 N403 2.214 . S
Co355 O356 2.160 . S
Co355 O361 2.058 . S
Co355 O371 2.057 . S
Co355 O386 2.037 . S
Co355 N390 2.145 . S
Co355 N411 2.257 . S
O356 Co354 2.143 . S
O356 Co355 2.160 . S
C357 O358 1.278 . S
C357 O365 1.224 . S
O358 C357 1.278 . S
C359 O360 1.245 . S
C359 O371 1.232 . S
O360 C359 1.245 . S
O361 Co355 2.058 . S
O361 C387 1.269 . S
O362 Co354 2.074 . S
O362 C387 1.257 . S
H363 C388 0.930 . S
H364 C394 0.930 . S
O365 Co354 2.093 . S
O365 C357 1.224 . S
H366 C398 0.929 . S
H367 C400 0.930 . S
H368 C401 0.930 . S
H369 C399 0.929 . S
H370 C402 0.928 . S
O371 Co355 2.057 . S
O371 C359 1.232 . S
H372 C391 0.929 . S
H373 C392 0.929 . S
H374 C404 0.931 . S
H375 C396 0.929 . S
H376 C405 0.930 . S
H377 C397 0.931 . S
O378 Co354 2.097 . S
O378 C406 1.214 . S
H379 C407 0.929 . S
H380 C408 0.929 . S
H381 C409 0.930 . S
H382 C410 0.929 . S
H383 C412 0.930 . S
H384 C389 0.930 . S
H385 C393 0.930 . S
O386 Co355 2.037 . S
O386 C406 1.234 . S
C387 O361 1.269 . S
C387 O362 1.257 . S
C388 H363 0.930 . S
C388 C391 1.388 . S
C388 C393 1.418 . S
C389 H384 0.930 . S
C389 C392 1.404 . S
C389 C393 1.353 . S
N390 Co355 2.145 . S
N390 C391 1.397 . S
N390 C392 1.334 . S
C391 H372 0.929 . S
C391 C388 1.388 . S
C391 N390 1.397 . S
C392 H373 0.929 . S
C392 C389 1.404 . S
C392 N390 1.334 . S
C393 H385 0.930 . S
C393 C388 1.418 . S
C393 C389 1.353 . S
C394 H364 0.930 . S
C394 N395 1.330 . S
C394 C396 1.446 . S
N395 Co354 2.151 . S
N395 C394 1.330 . S
N395 C399 1.418 . S
C396 H375 0.929 . S
C396 C394 1.446 . S
C396 C397 1.332 . S
C397 H377 0.931 . S
C397 C396 1.332 . S
C397 C398 1.267 . S
C398 H366 0.929 . S
C398 C397 1.267 . S
C398 C399 1.251 . S
C399 H369 0.929 . S
C399 N395 1.418 . S
C399 C398 1.251 . S
C400 H367 0.930 . S
C400 C402 1.406 . S
C400 C405 1.261 . S
C401 H368 0.930 . S
C401 N403 1.325 . S
C401 C404 1.357 . S
C402 H370 0.928 . S
C402 C400 1.406 . S
C402 N403 1.261 . S
N403 Co354 2.214 . S
N403 C401 1.325 . S
N403 C402 1.261 . S
C404 H374 0.931 . S
C404 C401 1.357 . S
C404 C405 1.312 . S
C405 H376 0.930 . S
C405 C400 1.261 . S
C405 C404 1.312 . S
C406 O378 1.214 . S
C406 O386 1.234 . S
C407 H379 0.929 . S
C407 C410 1.391 . S
C407 C412 1.391 . S
C408 H380 0.929 . S
C408 C409 1.390 . S
C408 N411 1.391 . S
C409 H381 0.930 . S
C409 C408 1.390 . S
C409 C410 1.392 . S
C410 H382 0.929 . S
C410 C407 1.391 . S
C410 C409 1.392 . S
N411 Co355 2.257 . S
N411 C408 1.391 . S
N411 C412 1.388 . S
C412 H383 0.930 . S
C412 C407 1.391 . S
C412 N411 1.388 . S
Co413 O415 2.143 . S
Co413 O421 2.074 . S
Co413 O424 2.093 . S
Co413 O437 2.097 . S
Co413 N454 2.151 . S
Co413 N462 2.214 . S
Co414 O415 2.160 . S
Co414 O420 2.058 . S
Co414 O430 2.057 . S
Co414 O445 2.037 . S
Co414 N449 2.145 . S
Co414 N470 2.257 . S
O415 Co413 2.143 . S
O415 Co414 2.160 . S
C416 O417 1.278 . S
C416 O424 1.224 . S
O417 C416 1.278 . S
C418 O419 1.245 . S
C418 O430 1.232 . S
O419 C418 1.245 . S
O420 Co414 2.058 . S
O420 C446 1.269 . S
O421 Co413 2.074 . S
O421 C446 1.257 . S
H422 C447 0.930 . S
H423 C453 0.930 . S
O424 Co413 2.093 . S
O424 C416 1.224 . S
H425 C457 0.929 . S
H426 C459 0.930 . S
H427 C460 0.930 . S
H428 C458 0.929 . S
H429 C461 0.928 . S
O430 Co414 2.057 . S
O430 C418 1.232 . S
H431 C450 0.929 . S
H432 C451 0.929 . S
H433 C463 0.931 . S
H434 C455 0.929 . S
H435 C464 0.930 . S
H436 C456 0.931 . S
O437 Co413 2.097 . S
O437 C465 1.214 . S
H438 C466 0.929 . S
H439 C467 0.929 . S
H440 C468 0.930 . S
H441 C469 0.929 . S
H442 C471 0.930 . S
H443 C448 0.930 . S
H444 C452 0.930 . S
O445 Co414 2.037 . S
O445 C465 1.234 . S
C446 O420 1.269 . S
C446 O421 1.257 . S
C447 H422 0.930 . S
C447 C450 1.388 . S
C447 C452 1.418 . S
C448 H443 0.930 . S
C448 C451 1.404 . S
C448 C452 1.353 . S
N449 Co414 2.145 . S
N449 C450 1.397 . S
N449 C451 1.334 . S
C450 H431 0.929 . S
C450 C447 1.388 . S
C450 N449 1.397 . S
C451 H432 0.929 . S
C451 C448 1.404 . S
C451 N449 1.334 . S
C452 H444 0.930 . S
C452 C447 1.418 . S
C452 C448 1.353 . S
C453 H423 0.930 . S
C453 N454 1.330 . S
C453 C455 1.446 . S
N454 Co413 2.151 . S
N454 C453 1.330 . S
N454 C458 1.418 . S
C455 H434 0.929 . S
C455 C453 1.446 . S
C455 C456 1.332 . S
C456 H436 0.931 . S
C456 C455 1.332 . S
C456 C457 1.267 . S
C457 H425 0.929 . S
C457 C456 1.267 . S
C457 C458 1.251 . S
C458 H428 0.929 . S
C458 N454 1.418 . S
C458 C457 1.251 . S
C459 H426 0.930 . S
C459 C461 1.406 . S
C459 C464 1.261 . S
C460 H427 0.930 . S
C460 N462 1.325 . S
C460 C463 1.357 . S
C461 H429 0.928 . S
C461 C459 1.406 . S
C461 N462 1.261 . S
N462 Co413 2.214 . S
N462 C460 1.325 . S
N462 C461 1.261 . S
C463 H433 0.931 . S
C463 C460 1.357 . S
C463 C464 1.312 . S
C464 H435 0.930 . S
C464 C459 1.261 . S
C464 C463 1.312 . S
C465 O437 1.214 . S
C465 O445 1.234 . S
C466 H438 0.929 . S
C466 C469 1.391 . S
C466 C471 1.391 . S
C467 H439 0.929 . S
C467 C468 1.390 . S
C467 N470 1.391 . S
C468 H440 0.930 . S
C468 C467 1.390 . S
C468 C469 1.392 . S
C469 H441 0.929 . S
C469 C466 1.391 . S
C469 C468 1.392 . S
N470 Co414 2.257 . S
N470 C467 1.391 . S
N470 C471 1.388 . S
C471 H442 0.930 . S
C471 C466 1.391 . S
C471 N470 1.388 . S
Co472 O474 2.143 . S
Co472 O480 2.074 . S
Co472 O483 2.093 . S
Co472 O496 2.097 . S
Co472 N513 2.151 . S
Co472 N521 2.214 . S
Co473 O474 2.160 . S
Co473 O479 2.058 . S
Co473 O489 2.057 . S
Co473 O504 2.037 . S
Co473 N508 2.145 . S
Co473 N529 2.257 . S
O474 Co472 2.143 . S
O474 Co473 2.160 . S
C475 O476 1.278 . S
C475 O483 1.224 . S
O476 C475 1.278 . S
C477 O478 1.245 . S
C477 O489 1.232 . S
O478 C477 1.245 . S
O479 Co473 2.058 . S
O479 C505 1.269 . S
O480 Co472 2.074 . S
O480 C505 1.257 . S
H481 C506 0.930 . S
H482 C512 0.930 . S
O483 Co472 2.093 . S
O483 C475 1.224 . S
H484 C516 0.929 . S
H485 C518 0.930 . S
H486 C519 0.930 . S
H487 C517 0.929 . S
H488 C520 0.928 . S
O489 Co473 2.057 . S
O489 C477 1.232 . S
H490 C509 0.929 . S
H491 C510 0.929 . S
H492 C522 0.931 . S
H493 C514 0.929 . S
H494 C523 0.930 . S
H495 C515 0.931 . S
O496 Co472 2.097 . S
O496 C524 1.214 . S
H497 C525 0.929 . S
H498 C526 0.929 . S
H499 C527 0.930 . S
H500 C528 0.929 . S
H501 C530 0.930 . S
H502 C507 0.930 . S
H503 C511 0.930 . S
O504 Co473 2.037 . S
O504 C524 1.234 . S
C505 O479 1.269 . S
C505 O480 1.257 . S
C506 H481 0.930 . S
C506 C509 1.388 . S
C506 C511 1.418 . S
C507 H502 0.930 . S
C507 C510 1.404 . S
C507 C511 1.353 . S
N508 Co473 2.145 . S
N508 C509 1.397 . S
N508 C510 1.334 . S
C509 H490 0.929 . S
C509 C506 1.388 . S
C509 N508 1.397 . S
C510 H491 0.929 . S
C510 C507 1.404 . S
C510 N508 1.334 . S
C511 H503 0.930 . S
C511 C506 1.418 . S
C511 C507 1.353 . S
C512 H482 0.930 . S
C512 N513 1.330 . S
C512 C514 1.446 . S
N513 Co472 2.151 . S
N513 C512 1.330 . S
N513 C517 1.418 . S
C514 H493 0.929 . S
C514 C512 1.446 . S
C514 C515 1.332 . S
C515 H495 0.931 . S
C515 C514 1.332 . S
C515 C516 1.267 . S
C516 H484 0.929 . S
C516 C515 1.267 . S
C516 C517 1.251 . S
C517 H487 0.929 . S
C517 N513 1.418 . S
C517 C516 1.251 . S
C518 H485 0.930 . S
C518 C520 1.406 . S
C518 C523 1.261 . S
C519 H486 0.930 . S
C519 N521 1.325 . S
C519 C522 1.357 . S
C520 H488 0.928 . S
C520 C518 1.406 . S
C520 N521 1.261 . S
N521 Co472 2.214 . S
N521 C519 1.325 . S
N521 C520 1.261 . S
C522 H492 0.931 . S
C522 C519 1.357 . S
C522 C523 1.312 . S
C523 H494 0.930 . S
C523 C518 1.261 . S
C523 C522 1.312 . S
C524 O496 1.214 . S
C524 O504 1.234 . S
C525 H497 0.929 . S
C525 C528 1.391 . S
C525 C530 1.391 . S
C526 H498 0.929 . S
C526 C527 1.390 . S
C526 N529 1.391 . S
C527 H499 0.930 . S
C527 C526 1.390 . S
C527 C528 1.392 . S
C528 H500 0.929 . S
C528 C525 1.391 . S
C528 C527 1.392 . S
N529 Co473 2.257 . S
N529 C526 1.391 . S
N529 C530 1.388 . S
C530 H501 0.930 . S
C530 C525 1.391 . S
C530 N529 1.388 . S
Co531 O533 2.143 . S
Co531 O539 2.074 . S
Co531 O542 2.093 . S
Co531 O555 2.097 . S
Co531 N572 2.151 . S
Co531 N580 2.214 . S
Co532 O533 2.160 . S
Co532 O538 2.058 . S
Co532 O548 2.057 . S
Co532 O563 2.037 . S
Co532 N567 2.145 1_655 S
Co532 N588 2.257 1_655 S
O533 Co531 2.143 . S
O533 Co532 2.160 . S
C534 O535 1.278 . S
C534 O542 1.224 . S
O535 C534 1.278 . S
C536 O537 1.245 . S
C536 O548 1.232 . S
O537 C536 1.245 . S
O538 Co532 2.058 . S
O538 C564 1.269 . S
O539 Co531 2.074 . S
O539 C564 1.257 . S
H540 C565 0.930 . S
H541 C571 0.930 . S
O542 Co531 2.093 . S
O542 C534 1.224 . S
H543 C575 0.929 . S
H544 C577 0.930 . S
H545 C578 0.930 . S
H546 C576 0.929 . S
H547 C579 0.928 . S
O548 Co532 2.057 . S
O548 C536 1.232 . S
H549 C568 0.929 . S
H550 C569 0.929 . S
H551 C581 0.931 . S
H552 C573 0.929 . S
H553 C582 0.930 . S
H554 C574 0.931 . S
O555 Co531 2.097 . S
O555 C583 1.214 . S
H556 C584 0.929 . S
H557 C585 0.929 . S
H558 C586 0.930 . S
H559 C587 0.929 . S
H560 C589 0.930 . S
H561 C566 0.930 . S
H562 C570 0.930 . S
O563 Co532 2.037 . S
O563 C583 1.234 . S
C564 O538 1.269 . S
C564 O539 1.257 . S
C565 H540 0.930 . S
C565 C568 1.388 . S
C565 C570 1.418 . S
C566 H561 0.930 . S
C566 C569 1.404 . S
C566 C570 1.353 . S
N567 Co532 2.145 1_455 S
N567 C568 1.397 . S
N567 C569 1.334 . S
C568 H549 0.929 . S
C568 C565 1.388 . S
C568 N567 1.397 . S
C569 H550 0.929 . S
C569 C566 1.404 . S
C569 N567 1.334 . S
C570 H562 0.930 . S
C570 C565 1.418 . S
C570 C566 1.353 . S
C571 H541 0.930 . S
C571 N572 1.330 . S
C571 C573 1.446 . S
N572 Co531 2.151 . S
N572 C571 1.330 . S
N572 C576 1.418 . S
C573 H552 0.929 . S
C573 C571 1.446 . S
C573 C574 1.332 . S
C574 H554 0.931 . S
C574 C573 1.332 . S
C574 C575 1.267 . S
C575 H543 0.929 . S
C575 C574 1.267 . S
C575 C576 1.251 . S
C576 H546 0.929 . S
C576 N572 1.418 . S
C576 C575 1.251 . S
C577 H544 0.930 . S
C577 C579 1.406 . S
C577 C582 1.261 . S
C578 H545 0.930 . S
C578 N580 1.325 . S
C578 C581 1.357 . S
C579 H547 0.928 . S
C579 C577 1.406 . S
C579 N580 1.261 . S
N580 Co531 2.214 . S
N580 C578 1.325 . S
N580 C579 1.261 . S
C581 H551 0.931 . S
C581 C578 1.357 . S
C581 C582 1.312 . S
C582 H553 0.930 . S
C582 C577 1.261 . S
C582 C581 1.312 . S
C583 O555 1.214 . S
C583 O563 1.234 . S
C584 H556 0.929 . S
C584 C587 1.391 . S
C584 C589 1.391 . S
C585 H557 0.929 . S
C585 C586 1.390 . S
C585 N588 1.391 . S
C586 H558 0.930 . S
C586 C585 1.390 . S
C586 C587 1.392 . S
C587 H559 0.929 . S
C587 C584 1.391 . S
C587 C586 1.392 . S
N588 Co532 2.257 1_455 S
N588 C585 1.391 . S
N588 C589 1.388 . S
C589 H560 0.930 . S
C589 C584 1.391 . S
C589 N588 1.388 . S
Co590 O592 2.143 . S
Co590 O598 2.074 . S
Co590 O601 2.093 . S
Co590 O614 2.097 . S
Co590 N631 2.151 . S
Co590 N639 2.214 . S
Co591 O592 2.160 . S
Co591 O597 2.058 . S
Co591 O607 2.057 . S
Co591 O622 2.037 . S
Co591 N626 2.145 . S
Co591 N647 2.257 . S
O592 Co590 2.143 . S
O592 Co591 2.160 . S
C593 O594 1.278 . S
C593 O601 1.224 . S
O594 C593 1.278 . S
C595 O596 1.245 . S
C595 O607 1.232 . S
O596 C595 1.245 . S
O597 Co591 2.058 . S
O597 C623 1.269 . S
O598 Co590 2.074 . S
O598 C623 1.257 . S
H599 C624 0.930 . S
H600 C630 0.930 . S
O601 Co590 2.093 . S
O601 C593 1.224 . S
H602 C634 0.929 . S
H603 C636 0.930 . S
H604 C637 0.930 . S
H605 C635 0.929 . S
H606 C638 0.928 . S
O607 Co591 2.057 . S
O607 C595 1.232 . S
H608 C627 0.929 . S
H609 C628 0.929 . S
H610 C640 0.931 . S
H611 C632 0.929 . S
H612 C641 0.930 . S
H613 C633 0.931 . S
O614 Co590 2.097 . S
O614 C642 1.214 . S
H615 C643 0.929 . S
H616 C644 0.929 . S
H617 C645 0.930 . S
H618 C646 0.929 . S
H619 C648 0.930 . S
H620 C625 0.930 . S
H621 C629 0.930 . S
O622 Co591 2.037 . S
O622 C642 1.234 . S
C623 O597 1.269 . S
C623 O598 1.257 . S
C624 H599 0.930 . S
C624 C627 1.388 . S
C624 C629 1.418 . S
C625 H620 0.930 . S
C625 C628 1.404 . S
C625 C629 1.353 . S
N626 Co591 2.145 . S
N626 C627 1.397 . S
N626 C628 1.334 . S
C627 H608 0.929 . S
C627 C624 1.388 . S
C627 N626 1.397 . S
C628 H609 0.929 . S
C628 C625 1.404 . S
C628 N626 1.334 . S
C629 H621 0.930 . S
C629 C624 1.418 . S
C629 C625 1.353 . S
C630 H600 0.930 . S
C630 N631 1.330 . S
C630 C632 1.446 . S
N631 Co590 2.151 . S
N631 C630 1.330 . S
N631 C635 1.418 . S
C632 H611 0.929 . S
C632 C630 1.446 . S
C632 C633 1.332 . S
C633 H613 0.931 . S
C633 C632 1.332 . S
C633 C634 1.267 . S
C634 H602 0.929 . S
C634 C633 1.267 . S
C634 C635 1.251 . S
C635 H605 0.929 . S
C635 N631 1.418 . S
C635 C634 1.251 . S
C636 H603 0.930 . S
C636 C638 1.406 . S
C636 C641 1.261 . S
C637 H604 0.930 . S
C637 N639 1.325 . S
C637 C640 1.357 . S
C638 H606 0.928 . S
C638 C636 1.406 . S
C638 N639 1.261 . S
N639 Co590 2.214 . S
N639 C637 1.325 . S
N639 C638 1.261 . S
C640 H610 0.931 . S
C640 C637 1.357 . S
C640 C641 1.312 . S
C641 H612 0.930 . S
C641 C636 1.261 . S
C641 C640 1.312 . S
C642 O614 1.214 . S
C642 O622 1.234 . S
C643 H615 0.929 . S
C643 C646 1.391 . S
C643 C648 1.391 . S
C644 H616 0.929 . S
C644 C645 1.390 . S
C644 N647 1.391 . S
C645 H617 0.930 . S
C645 C644 1.390 . S
C645 C646 1.392 . S
C646 H618 0.929 . S
C646 C643 1.391 . S
C646 C645 1.392 . S
N647 Co591 2.257 . S
N647 C644 1.391 . S
N647 C648 1.388 . S
C648 H619 0.930 . S
C648 C643 1.391 . S
C648 N647 1.388 . S
Co649 O651 2.143 1_565 S
Co649 O657 2.074 . S
Co649 O660 2.093 . S
Co649 O673 2.097 1_565 S
Co649 N690 2.151 . S
Co649 N698 2.214 . S
Co650 O651 2.160 . S
Co650 O656 2.058 . S
Co650 O666 2.057 . S
Co650 O681 2.037 . S
Co650 N685 2.145 . S
Co650 N706 2.257 . S
O651 Co649 2.143 1_545 S
O651 Co650 2.160 . S
C652 O653 1.278 . S
C652 O660 1.224 1_545 S
O653 C652 1.278 . S
C654 O655 1.245 . S
C654 O666 1.232 . S
O655 C654 1.245 . S
O656 Co650 2.058 . S
O656 C682 1.269 . S
O657 Co649 2.074 . S
O657 C682 1.257 1_565 S
H658 C683 0.930 . S
H659 C689 0.930 . S
O660 Co649 2.093 . S
O660 C652 1.224 1_565 S
H661 C693 0.929 . S
H662 C695 0.930 . S
H663 C696 0.930 . S
H664 C694 0.929 . S
H665 C697 0.928 . S
O666 Co650 2.057 . S
O666 C654 1.232 . S
H667 C686 0.929 . S
H668 C687 0.929 . S
H669 C699 0.931 . S
H670 C691 0.929 . S
H671 C700 0.930 . S
H672 C692 0.931 . S
O673 Co649 2.097 1_545 S
O673 C701 1.214 . S
H674 C702 0.929 . S
H675 C703 0.929 . S
H676 C704 0.930 . S
H677 C705 0.929 . S
H678 C707 0.930 . S
H679 C684 0.930 . S
H680 C688 0.930 . S
O681 Co650 2.037 . S
O681 C701 1.234 . S
C682 O656 1.269 . S
C682 O657 1.257 1_545 S
C683 H658 0.930 . S
C683 C686 1.388 . S
C683 C688 1.418 . S
C684 H679 0.930 . S
C684 C687 1.404 . S
C684 C688 1.353 . S
N685 Co650 2.145 . S
N685 C686 1.397 . S
N685 C687 1.334 . S
C686 H667 0.929 . S
C686 C683 1.388 . S
C686 N685 1.397 . S
C687 H668 0.929 . S
C687 C684 1.404 . S
C687 N685 1.334 . S
C688 H680 0.930 . S
C688 C683 1.418 . S
C688 C684 1.353 . S
C689 H659 0.930 . S
C689 N690 1.330 . S
C689 C691 1.446 . S
N690 Co649 2.151 . S
N690 C689 1.330 . S
N690 C694 1.418 . S
C691 H670 0.929 . S
C691 C689 1.446 . S
C691 C692 1.332 . S
C692 H672 0.931 . S
C692 C691 1.332 . S
C692 C693 1.267 . S
C693 H661 0.929 . S
C693 C692 1.267 . S
C693 C694 1.251 . S
C694 H664 0.929 . S
C694 N690 1.418 . S
C694 C693 1.251 . S
C695 H662 0.930 . S
C695 C697 1.406 . S
C695 C700 1.261 . S
C696 H663 0.930 . S
C696 N698 1.325 . S
C696 C699 1.357 . S
C697 H665 0.928 . S
C697 C695 1.406 . S
C697 N698 1.261 . S
N698 Co649 2.214 . S
N698 C696 1.325 . S
N698 C697 1.261 . S
C699 H669 0.931 . S
C699 C696 1.357 . S
C699 C700 1.312 . S
C700 H671 0.930 . S
C700 C695 1.261 . S
C700 C699 1.312 . S
C701 O673 1.214 . S
C701 O681 1.234 . S
C702 H674 0.929 . S
C702 C705 1.391 . S
C702 C707 1.391 . S
C703 H675 0.929 . S
C703 C704 1.390 . S
C703 N706 1.391 . S
C704 H676 0.930 . S
C704 C703 1.390 . S
C704 C705 1.392 . S
C705 H677 0.929 . S
C705 C702 1.391 . S
C705 C704 1.392 . S
N706 Co650 2.257 . S
N706 C703 1.391 . S
N706 C707 1.388 . S
C707 H678 0.930 . S
C707 C702 1.391 . S
C707 N706 1.388 . S
Co708 O710 2.143 . S
Co708 O716 2.074 . S
Co708 O719 2.093 . S
Co708 O732 2.097 . S
Co708 N749 2.151 1_565 S
Co708 N757 2.214 1_565 S
Co709 O710 2.160 . S
Co709 O715 2.058 . S
Co709 O725 2.057 . S
Co709 O740 2.037 . S
Co709 N744 2.145 . S
Co709 N765 2.257 . S
O710 Co708 2.143 . S
O710 Co709 2.160 . S
C711 O712 1.278 . S
C711 O719 1.224 . S
O712 C711 1.278 . S
C713 O714 1.245 . S
C713 O725 1.232 . S
O714 C713 1.245 . S
O715 Co709 2.058 . S
O715 C741 1.269 . S
O716 Co708 2.074 . S
O716 C741 1.257 . S
H717 C742 0.930 . S
H718 C748 0.930 . S
O719 Co708 2.093 . S
O719 C711 1.224 . S
H720 C752 0.929 . S
H721 C754 0.930 . S
H722 C755 0.930 . S
H723 C753 0.929 . S
H724 C756 0.928 . S
O725 Co709 2.057 . S
O725 C713 1.232 . S
H726 C745 0.929 . S
H727 C746 0.929 . S
H728 C758 0.931 . S
H729 C750 0.929 . S
H730 C759 0.930 . S
H731 C751 0.931 . S
O732 Co708 2.097 . S
O732 C760 1.214 . S
H733 C761 0.929 . S
H734 C762 0.929 . S
H735 C763 0.930 . S
H736 C764 0.929 . S
H737 C766 0.930 . S
H738 C743 0.930 . S
H739 C747 0.930 . S
O740 Co709 2.037 . S
O740 C760 1.234 . S
C741 O715 1.269 . S
C741 O716 1.257 . S
C742 H717 0.930 . S
C742 C745 1.388 . S
C742 C747 1.418 . S
C743 H738 0.930 . S
C743 C746 1.404 . S
C743 C747 1.353 . S
N744 Co709 2.145 . S
N744 C745 1.397 . S
N744 C746 1.334 . S
C745 H726 0.929 . S
C745 C742 1.388 . S
C745 N744 1.397 . S
C746 H727 0.929 . S
C746 C743 1.404 . S
C746 N744 1.334 . S
C747 H739 0.930 . S
C747 C742 1.418 . S
C747 C743 1.353 . S
C748 H718 0.930 . S
C748 N749 1.330 . S
C748 C750 1.446 . S
N749 Co708 2.151 1_545 S
N749 C748 1.330 . S
N749 C753 1.418 . S
C750 H729 0.929 . S
C750 C748 1.446 . S
C750 C751 1.332 . S
C751 H731 0.931 . S
C751 C750 1.332 . S
C751 C752 1.267 . S
C752 H720 0.929 . S
C752 C751 1.267 . S
C752 C753 1.251 . S
C753 H723 0.929 . S
C753 N749 1.418 . S
C753 C752 1.251 . S
C754 H721 0.930 . S
C754 C756 1.406 . S
C754 C759 1.261 . S
C755 H722 0.930 . S
C755 N757 1.325 . S
C755 C758 1.357 . S
C756 H724 0.928 . S
C756 C754 1.406 . S
C756 N757 1.261 . S
N757 Co708 2.214 1_545 S
N757 C755 1.325 . S
N757 C756 1.261 . S
C758 H728 0.931 . S
C758 C755 1.357 . S
C758 C759 1.312 . S
C759 H730 0.930 . S
C759 C754 1.261 . S
C759 C758 1.312 . S
C760 O732 1.214 . S
C760 O740 1.234 . S
C761 H733 0.929 . S
C761 C764 1.391 . S
C761 C766 1.391 . S
C762 H734 0.929 . S
C762 C763 1.390 . S
C762 N765 1.391 . S
C763 H735 0.930 . S
C763 C762 1.390 . S
C763 C764 1.392 . S
C764 H736 0.929 . S
C764 C761 1.391 . S
C764 C763 1.392 . S
N765 Co709 2.257 . S
N765 C762 1.391 . S
N765 C766 1.388 . S
C766 H737 0.930 . S
C766 C761 1.391 . S
C766 N765 1.388 . S
Co767 O769 2.143 . S
Co767 O775 2.074 . S
Co767 O778 2.093 . S
Co767 O791 2.097 . S
Co767 N808 2.151 . S
Co767 N816 2.214 . S
Co768 O769 2.160 1_655 S
Co768 O774 2.058 1_655 S
Co768 O784 2.057 . S
Co768 O799 2.037 . S
Co768 N803 2.145 . S
Co768 N824 2.257 . S
O769 Co767 2.143 . S
O769 Co768 2.160 1_455 S
C770 O771 1.278 . S
C770 O778 1.224 . S
O771 C770 1.278 . S
C772 O773 1.245 . S
C772 O784 1.232 1_455 S
O773 C772 1.245 . S
O774 Co768 2.058 1_455 S
O774 C800 1.269 . S
O775 Co767 2.074 . S
O775 C800 1.257 . S
H776 C801 0.930 . S
H777 C807 0.930 . S
O778 Co767 2.093 . S
O778 C770 1.224 . S
H779 C811 0.929 . S
H780 C813 0.930 . S
H781 C814 0.930 . S
H782 C812 0.929 . S
H783 C815 0.928 . S
O784 Co768 2.057 . S
O784 C772 1.232 1_655 S
H785 C804 0.929 . S
H786 C805 0.929 . S
H787 C817 0.931 . S
H788 C809 0.929 . S
H789 C818 0.930 . S
H790 C810 0.931 . S
O791 Co767 2.097 . S
O791 C819 1.214 . S
H792 C820 0.929 . S
H793 C821 0.929 . S
H794 C822 0.930 . S
H795 C823 0.929 . S
H796 C825 0.930 . S
H797 C802 0.930 . S
H798 C806 0.930 . S
O799 Co768 2.037 . S
O799 C819 1.234 1_655 S
C800 O774 1.269 . S
C800 O775 1.257 . S
C801 H776 0.930 . S
C801 C804 1.388 . S
C801 C806 1.418 . S
C802 H797 0.930 . S
C802 C805 1.404 . S
C802 C806 1.353 . S
N803 Co768 2.145 . S
N803 C804 1.397 . S
N803 C805 1.334 . S
C804 H785 0.929 . S
C804 C801 1.388 . S
C804 N803 1.397 . S
C805 H786 0.929 . S
C805 C802 1.404 . S
C805 N803 1.334 . S
C806 H798 0.930 . S
C806 C801 1.418 . S
C806 C802 1.353 . S
C807 H777 0.930 . S
C807 N808 1.330 . S
C807 C809 1.446 . S
N808 Co767 2.151 . S
N808 C807 1.330 . S
N808 C812 1.418 . S
C809 H788 0.929 . S
C809 C807 1.446 . S
C809 C810 1.332 . S
C810 H790 0.931 . S
C810 C809 1.332 . S
C810 C811 1.267 . S
C811 H779 0.929 . S
C811 C810 1.267 . S
C811 C812 1.251 . S
C812 H782 0.929 . S
C812 N808 1.418 . S
C812 C811 1.251 . S
C813 H780 0.930 . S
C813 C815 1.406 . S
C813 C818 1.261 . S
C814 H781 0.930 . S
C814 N816 1.325 . S
C814 C817 1.357 . S
C815 H783 0.928 . S
C815 C813 1.406 . S
C815 N816 1.261 . S
N816 Co767 2.214 . S
N816 C814 1.325 . S
N816 C815 1.261 . S
C817 H787 0.931 . S
C817 C814 1.357 . S
C817 C818 1.312 . S
C818 H789 0.930 . S
C818 C813 1.261 . S
C818 C817 1.312 . S
C819 O791 1.214 . S
C819 O799 1.234 1_455 S
C820 H792 0.929 . S
C820 C823 1.391 . S
C820 C825 1.391 . S
C821 H793 0.929 . S
C821 C822 1.390 . S
C821 N824 1.391 . S
C822 H794 0.930 . S
C822 C821 1.390 . S
C822 C823 1.392 . S
C823 H795 0.929 . S
C823 C820 1.391 . S
C823 C822 1.392 . S
N824 Co768 2.257 . S
N824 C821 1.391 . S
N824 C825 1.388 . S
C825 H796 0.930 . S
C825 C820 1.391 . S
C825 N824 1.388 . S
Co826 O828 2.143 . S
Co826 O834 2.074 . S
Co826 O837 2.093 . S
Co826 O850 2.097 . S
Co826 N867 2.151 . S
Co826 N875 2.214 . S
Co827 O828 2.160 . S
Co827 O833 2.058 . S
Co827 O843 2.057 . S
Co827 O858 2.037 . S
Co827 N862 2.145 . S
Co827 N883 2.257 . S
O828 Co826 2.143 . S
O828 Co827 2.160 . S
C829 O830 1.278 . S
C829 O837 1.224 . S
O830 C829 1.278 . S
C831 O832 1.245 . S
C831 O843 1.232 . S
O832 C831 1.245 . S
O833 Co827 2.058 . S
O833 C859 1.269 . S
O834 Co826 2.074 . S
O834 C859 1.257 . S
H835 C860 0.930 . S
H836 C866 0.930 . S
O837 Co826 2.093 . S
O837 C829 1.224 . S
H838 C870 0.929 . S
H839 C872 0.930 . S
H840 C873 0.930 . S
H841 C871 0.929 . S
H842 C874 0.928 . S
O843 Co827 2.057 . S
O843 C831 1.232 . S
H844 C863 0.929 . S
H845 C864 0.929 . S
H846 C876 0.931 . S
H847 C868 0.929 . S
H848 C877 0.930 . S
H849 C869 0.931 . S
O850 Co826 2.097 . S
O850 C878 1.214 . S
H851 C879 0.929 . S
H852 C880 0.929 . S
H853 C881 0.930 . S
H854 C882 0.929 . S
H855 C884 0.930 . S
H856 C861 0.930 . S
H857 C865 0.930 . S
O858 Co827 2.037 . S
O858 C878 1.234 . S
C859 O833 1.269 . S
C859 O834 1.257 . S
C860 H835 0.930 . S
C860 C863 1.388 . S
C860 C865 1.418 . S
C861 H856 0.930 . S
C861 C864 1.404 . S
C861 C865 1.353 . S
N862 Co827 2.145 . S
N862 C863 1.397 . S
N862 C864 1.334 . S
C863 H844 0.929 . S
C863 C860 1.388 . S
C863 N862 1.397 . S
C864 H845 0.929 . S
C864 C861 1.404 . S
C864 N862 1.334 . S
C865 H857 0.930 . S
C865 C860 1.418 . S
C865 C861 1.353 . S
C866 H836 0.930 . S
C866 N867 1.330 . S
C866 C868 1.446 . S
N867 Co826 2.151 . S
N867 C866 1.330 . S
N867 C871 1.418 . S
C868 H847 0.929 . S
C868 C866 1.446 . S
C868 C869 1.332 . S
C869 H849 0.931 . S
C869 C868 1.332 . S
C869 C870 1.267 . S
C870 H838 0.929 . S
C870 C869 1.267 . S
C870 C871 1.251 . S
C871 H841 0.929 . S
C871 N867 1.418 . S
C871 C870 1.251 . S
C872 H839 0.930 . S
C872 C874 1.406 . S
C872 C877 1.261 . S
C873 H840 0.930 . S
C873 N875 1.325 . S
C873 C876 1.357 . S
C874 H842 0.928 . S
C874 C872 1.406 . S
C874 N875 1.261 . S
N875 Co826 2.214 . S
N875 C873 1.325 . S
N875 C874 1.261 . S
C876 H846 0.931 . S
C876 C873 1.357 . S
C876 C877 1.312 . S
C877 H848 0.930 . S
C877 C872 1.261 . S
C877 C876 1.312 . S
C878 O850 1.214 . S
C878 O858 1.234 . S
C879 H851 0.929 . S
C879 C882 1.391 . S
C879 C884 1.391 . S
C880 H852 0.929 . S
C880 C881 1.390 . S
C880 N883 1.391 . S
C881 H853 0.930 . S
C881 C880 1.390 . S
C881 C882 1.392 . S
C882 H854 0.929 . S
C882 C879 1.391 . S
C882 C881 1.392 . S
N883 Co827 2.257 . S
N883 C880 1.391 . S
N883 C884 1.388 . S
C884 H855 0.930 . S
C884 C879 1.391 . S
C884 N883 1.388 . S
Co885 O887 2.143 . S
Co885 O893 2.074 . S
Co885 O896 2.093 . S
Co885 O909 2.097 . S
Co885 N926 2.151 . S
Co885 N934 2.214 . S
Co886 O887 2.160 . S
Co886 O892 2.058 . S
Co886 O902 2.057 . S
Co886 O917 2.037 . S
Co886 N921 2.145 . S
Co886 N942 2.257 . S
O887 Co885 2.143 . S
O887 Co886 2.160 . S
C888 O889 1.278 . S
C888 O896 1.224 . S
O889 C888 1.278 . S
C890 O891 1.245 . S
C890 O902 1.232 . S
O891 C890 1.245 . S
O892 Co886 2.058 . S
O892 C918 1.269 . S
O893 Co885 2.074 . S
O893 C918 1.257 . S
H894 C919 0.930 . S
H895 C925 0.930 . S
O896 Co885 2.093 . S
O896 C888 1.224 . S
H897 C929 0.929 . S
H898 C931 0.930 . S
H899 C932 0.930 . S
H900 C930 0.929 . S
H901 C933 0.928 . S
O902 Co886 2.057 . S
O902 C890 1.232 . S
H903 C922 0.929 . S
H904 C923 0.929 . S
H905 C935 0.931 . S
H906 C927 0.929 . S
H907 C936 0.930 . S
H908 C928 0.931 . S
O909 Co885 2.097 . S
O909 C937 1.214 . S
H910 C938 0.929 . S
H911 C939 0.929 . S
H912 C940 0.930 . S
H913 C941 0.929 . S
H914 C943 0.930 . S
H915 C920 0.930 . S
H916 C924 0.930 . S
O917 Co886 2.037 . S
O917 C937 1.234 . S
C918 O892 1.269 . S
C918 O893 1.257 . S
C919 H894 0.930 . S
C919 C922 1.388 . S
C919 C924 1.418 . S
C920 H915 0.930 . S
C920 C923 1.404 . S
C920 C924 1.353 . S
N921 Co886 2.145 . S
N921 C922 1.397 . S
N921 C923 1.334 . S
C922 H903 0.929 . S
C922 C919 1.388 . S
C922 N921 1.397 . S
C923 H904 0.929 . S
C923 C920 1.404 . S
C923 N921 1.334 . S
C924 H916 0.930 . S
C924 C919 1.418 . S
C924 C920 1.353 . S
C925 H895 0.930 . S
C925 N926 1.330 . S
C925 C927 1.446 . S
N926 Co885 2.151 . S
N926 C925 1.330 . S
N926 C930 1.418 . S
C927 H906 0.929 . S
C927 C925 1.446 . S
C927 C928 1.332 . S
C928 H908 0.931 . S
C928 C927 1.332 . S
C928 C929 1.267 . S
C929 H897 0.929 . S
C929 C928 1.267 . S
C929 C930 1.251 . S
C930 H900 0.929 . S
C930 N926 1.418 . S
C930 C929 1.251 . S
C931 H898 0.930 . S
C931 C933 1.406 . S
C931 C936 1.261 . S
C932 H899 0.930 . S
C932 N934 1.325 . S
C932 C935 1.357 . S
C933 H901 0.928 . S
C933 C931 1.406 . S
C933 N934 1.261 . S
N934 Co885 2.214 . S
N934 C932 1.325 . S
N934 C933 1.261 . S
C935 H905 0.931 . S
C935 C932 1.357 . S
C935 C936 1.312 . S
C936 H907 0.930 . S
C936 C931 1.261 . S
C936 C935 1.312 . S
C937 O909 1.214 . S
C937 O917 1.234 . S
C938 H910 0.929 . S
C938 C941 1.391 . S
C938 C943 1.391 . S
C939 H911 0.929 . S
C939 C940 1.390 . S
C939 N942 1.391 . S
C940 H912 0.930 . S
C940 C939 1.390 . S
C940 C941 1.392 . S
C941 H913 0.929 . S
C941 C938 1.391 . S
C941 C940 1.392 . S
N942 Co886 2.257 . S
N942 C939 1.391 . S
N942 C943 1.388 . S
C943 H914 0.930 . S
C943 C938 1.391 . S
C943 N942 1.388 . S
Co944 O946 2.143 . S
Co944 O952 2.074 . S
Co944 O955 2.093 . S
Co944 O968 2.097 . S
Co944 N985 2.151 . S
Co944 N993 2.214 . S
Co945 O946 2.160 . S
Co945 O951 2.058 . S
Co945 O961 2.057 . S
Co945 O976 2.037 . S
Co945 N980 2.145 . S
Co945 N1001 2.257 . S
O946 Co944 2.143 . S
O946 Co945 2.160 . S
C947 O948 1.278 . S
C947 O955 1.224 . S
O948 C947 1.278 . S
C949 O950 1.245 . S
C949 O961 1.232 . S
O950 C949 1.245 . S
O951 Co945 2.058 . S
O951 C977 1.269 . S
O952 Co944 2.074 . S
O952 C977 1.257 . S
H953 C978 0.930 . S
H954 C984 0.930 . S
O955 Co944 2.093 . S
O955 C947 1.224 . S
H956 C988 0.929 . S
H957 C990 0.930 . S
H958 C991 0.930 . S
H959 C989 0.929 . S
H960 C992 0.928 . S
O961 Co945 2.057 . S
O961 C949 1.232 . S
H962 C981 0.929 . S
H963 C982 0.929 . S
H964 C994 0.931 . S
H965 C986 0.929 . S
H966 C995 0.930 . S
H967 C987 0.931 . S
O968 Co944 2.097 . S
O968 C996 1.214 . S
H969 C997 0.929 . S
H970 C998 0.929 . S
H971 C999 0.930 . S
H972 C1000 0.929 . S
H973 C1002 0.930 . S
H974 C979 0.930 . S
H975 C983 0.930 . S
O976 Co945 2.037 . S
O976 C996 1.234 . S
C977 O951 1.269 . S
C977 O952 1.257 . S
C978 H953 0.930 . S
C978 C981 1.388 . S
C978 C983 1.418 . S
C979 H974 0.930 . S
C979 C982 1.404 . S
C979 C983 1.353 . S
N980 Co945 2.145 . S
N980 C981 1.397 . S
N980 C982 1.334 . S
C981 H962 0.929 . S
C981 C978 1.388 . S
C981 N980 1.397 . S
C982 H963 0.929 . S
C982 C979 1.404 . S
C982 N980 1.334 . S
C983 H975 0.930 . S
C983 C978 1.418 . S
C983 C979 1.353 . S
C984 H954 0.930 . S
C984 N985 1.330 . S
C984 C986 1.446 . S
N985 Co944 2.151 . S
N985 C984 1.330 . S
N985 C989 1.418 . S
C986 H965 0.929 . S
C986 C984 1.446 . S
C986 C987 1.332 . S
C987 H967 0.931 . S
C987 C986 1.332 . S
C987 C988 1.267 . S
C988 H956 0.929 . S
C988 C987 1.267 . S
C988 C989 1.251 . S
C989 H959 0.929 . S
C989 N985 1.418 . S
C989 C988 1.251 . S
C990 H957 0.930 . S
C990 C992 1.406 . S
C990 C995 1.261 . S
C991 H958 0.930 . S
C991 N993 1.325 . S
C991 C994 1.357 . S
C992 H960 0.928 . S
C992 C990 1.406 . S
C992 N993 1.261 . S
N993 Co944 2.214 . S
N993 C991 1.325 . S
N993 C992 1.261 . S
C994 H964 0.931 . S
C994 C991 1.357 . S
C994 C995 1.312 . S
C995 H966 0.930 . S
C995 C990 1.261 . S
C995 C994 1.312 . S
C996 O968 1.214 . S
C996 O976 1.234 . S
C997 H969 0.929 . S
C997 C1000 1.391 . S
C997 C1002 1.391 . S
C998 H970 0.929 . S
C998 C999 1.390 . S
C998 N1001 1.391 . S
C999 H971 0.930 . S
C999 C998 1.390 . S
C999 C1000 1.392 . S
C1000 H972 0.929 . S
C1000 C997 1.391 . S
C1000 C999 1.392 . S
N1001 Co945 2.257 . S
N1001 C998 1.391 . S
N1001 C1002 1.388 . S
C1002 H973 0.930 . S
C1002 C997 1.391 . S
C1002 N1001 1.388 . S
Co1003 O1005 2.143 . S
Co1003 O1011 2.074 . S
Co1003 O1014 2.093 . S
Co1003 O1027 2.097 . S
Co1003 N1044 2.151 . S
Co1003 N1052 2.214 . S
Co1004 O1005 2.160 . S
Co1004 O1010 2.058 . S
Co1004 O1020 2.057 . S
Co1004 O1035 2.037 . S
Co1004 N1039 2.145 . S
Co1004 N1060 2.257 . S
O1005 Co1003 2.143 . S
O1005 Co1004 2.160 . S
C1006 O1007 1.278 . S
C1006 O1014 1.224 . S
O1007 C1006 1.278 . S
C1008 O1009 1.245 . S
C1008 O1020 1.232 . S
O1009 C1008 1.245 . S
O1010 Co1004 2.058 . S
O1010 C1036 1.269 . S
O1011 Co1003 2.074 . S
O1011 C1036 1.257 . S
H1012 C1037 0.930 . S
H1013 C1043 0.930 . S
O1014 Co1003 2.093 . S
O1014 C1006 1.224 . S
H1015 C1047 0.929 . S
H1016 C1049 0.930 . S
H1017 C1050 0.930 . S
H1018 C1048 0.929 . S
H1019 C1051 0.928 . S
O1020 Co1004 2.057 . S
O1020 C1008 1.232 . S
H1021 C1040 0.929 . S
H1022 C1041 0.929 . S
H1023 C1053 0.931 . S
H1024 C1045 0.929 . S
H1025 C1054 0.930 . S
H1026 C1046 0.931 . S
O1027 Co1003 2.097 . S
O1027 C1055 1.214 . S
H1028 C1056 0.929 . S
H1029 C1057 0.929 . S
H1030 C1058 0.930 . S
H1031 C1059 0.929 . S
H1032 C1061 0.930 . S
H1033 C1038 0.930 . S
H1034 C1042 0.930 . S
O1035 Co1004 2.037 . S
O1035 C1055 1.234 . S
C1036 O1010 1.269 . S
C1036 O1011 1.257 . S
C1037 H1012 0.930 . S
C1037 C1040 1.388 . S
C1037 C1042 1.418 . S
C1038 H1033 0.930 . S
C1038 C1041 1.404 . S
C1038 C1042 1.353 . S
N1039 Co1004 2.145 . S
N1039 C1040 1.397 . S
N1039 C1041 1.334 . S
C1040 H1021 0.929 . S
C1040 C1037 1.388 . S
C1040 N1039 1.397 . S
C1041 H1022 0.929 . S
C1041 C1038 1.404 . S
C1041 N1039 1.334 . S
C1042 H1034 0.930 . S
C1042 C1037 1.418 . S
C1042 C1038 1.353 . S
C1043 H1013 0.930 . S
C1043 N1044 1.330 . S
C1043 C1045 1.446 . S
N1044 Co1003 2.151 . S
N1044 C1043 1.330 . S
N1044 C1048 1.418 . S
C1045 H1024 0.929 . S
C1045 C1043 1.446 . S
C1045 C1046 1.332 . S
C1046 H1026 0.931 . S
C1046 C1045 1.332 . S
C1046 C1047 1.267 . S
C1047 H1015 0.929 . S
C1047 C1046 1.267 . S
C1047 C1048 1.251 . S
C1048 H1018 0.929 . S
C1048 N1044 1.418 . S
C1048 C1047 1.251 . S
C1049 H1016 0.930 . S
C1049 C1051 1.406 . S
C1049 C1054 1.261 . S
C1050 H1017 0.930 . S
C1050 N1052 1.325 . S
C1050 C1053 1.357 . S
C1051 H1019 0.928 . S
C1051 C1049 1.406 . S
C1051 N1052 1.261 . S
N1052 Co1003 2.214 . S
N1052 C1050 1.325 . S
N1052 C1051 1.261 . S
C1053 H1023 0.931 . S
C1053 C1050 1.357 . S
C1053 C1054 1.312 . S
C1054 H1025 0.930 . S
C1054 C1049 1.261 . S
C1054 C1053 1.312 . S
C1055 O1027 1.214 . S
C1055 O1035 1.234 . S
C1056 H1028 0.929 . S
C1056 C1059 1.391 . S
C1056 C1061 1.391 . S
C1057 H1029 0.929 . S
C1057 C1058 1.390 . S
C1057 N1060 1.391 . S
C1058 H1030 0.930 . S
C1058 C1057 1.390 . S
C1058 C1059 1.392 . S
C1059 H1031 0.929 . S
C1059 C1056 1.391 . S
C1059 C1058 1.392 . S
N1060 Co1004 2.257 . S
N1060 C1057 1.391 . S
N1060 C1061 1.388 . S
C1061 H1032 0.930 . S
C1061 C1056 1.391 . S
C1061 N1060 1.388 . S
C1062 C1063 1.387 . S
C1062 H1066 0.950 . S
C1062 C1071 1.390 . S
C1063 C1062 1.387 . S
C1063 C1065 1.387 . S
H1064 C1071 0.950 . S
C1065 C1063 1.387 . S
C1065 C1067 1.390 . S
C1065 H1069 0.950 . S
H1066 C1062 0.950 . S
C1067 C1065 1.390 . S
C1067 C1068 1.387 . S
C1067 H1070 0.950 . S
C1068 C1067 1.387 . S
C1068 C1071 1.387 . S
H1069 C1065 0.950 . S
H1070 C1067 0.950 . S
C1071 C1062 1.390 . S
C1071 H1064 0.950 . S
C1071 C1068 1.387 . S
C1072 C1073 1.387 . S
C1072 H1076 0.950 . S
C1072 C1081 1.390 . S
C1073 C1072 1.387 . S
C1073 C1075 1.387 . S
H1074 C1081 0.950 . S
C1075 C1073 1.387 . S
C1075 C1077 1.390 . S
C1075 H1079 0.950 . S
H1076 C1072 0.950 . S
C1077 C1075 1.390 . S
C1077 C1078 1.387 . S
C1077 H1080 0.950 . S
C1078 C1077 1.387 . S
C1078 C1081 1.387 . S
H1079 C1075 0.950 . S
H1080 C1077 0.950 . S
C1081 C1072 1.390 . S
C1081 H1074 0.950 . S
C1081 C1078 1.387 . S
C1082 C1083 1.387 . S
C1082 H1086 0.950 . S
C1082 C1091 1.390 . S
C1083 C1082 1.387 . S
C1083 C1085 1.387 . S
H1084 C1091 0.950 . S
C1085 C1083 1.387 . S
C1085 C1087 1.390 . S
C1085 H1089 0.950 . S
H1086 C1082 0.950 . S
C1087 C1085 1.390 . S
C1087 C1088 1.387 . S
C1087 H1090 0.950 . S
C1088 C1087 1.387 . S
C1088 C1091 1.387 . S
H1089 C1085 0.950 . S
H1090 C1087 0.950 . S
C1091 C1082 1.390 . S
C1091 H1084 0.950 . S
C1091 C1088 1.387 . S
C1092 C1093 1.387 . S
C1092 H1096 0.950 . S
C1092 C1101 1.390 . S
C1093 C1092 1.387 . S
C1093 C1095 1.387 . S
H1094 C1101 0.950 . S
C1095 C1093 1.387 . S
C1095 C1097 1.390 . S
C1095 H1099 0.950 . S
H1096 C1092 0.950 . S
C1097 C1095 1.390 . S
C1097 C1098 1.387 . S
C1097 H1100 0.950 . S
C1098 C1097 1.387 . S
C1098 C1101 1.387 . S
H1099 C1095 0.950 . S
H1100 C1097 0.950 . S
C1101 C1092 1.390 . S
C1101 H1094 0.950 . S
C1101 C1098 1.387 . S
C1102 C1103 1.387 . S
C1102 H1106 0.950 . S
C1102 C1111 1.390 . S
C1103 C1102 1.387 . S
C1103 C1105 1.387 . S
H1104 C1111 0.950 . S
C1105 C1103 1.387 . S
C1105 C1107 1.390 . S
C1105 H1109 0.950 . S
H1106 C1102 0.950 . S
C1107 C1105 1.390 . S
C1107 C1108 1.387 . S
C1107 H1110 0.950 . S
C1108 C1107 1.387 . S
C1108 C1111 1.387 . S
H1109 C1105 0.950 . S
H1110 C1107 0.950 . S
C1111 C1102 1.390 . S
C1111 H1104 0.950 . S
C1111 C1108 1.387 . S
C1112 C1113 1.387 . S
C1112 H1116 0.950 . S
C1112 C1121 1.390 . S
C1113 C1112 1.387 . S
C1113 C1115 1.387 . S
H1114 C1121 0.950 . S
C1115 C1113 1.387 . S
C1115 C1117 1.390 . S
C1115 H1119 0.950 . S
H1116 C1112 0.950 . S
C1117 C1115 1.390 . S
C1117 C1118 1.387 . S
C1117 H1120 0.950 . S
C1118 C1117 1.387 . S
C1118 C1121 1.387 . S
H1119 C1115 0.950 . S
H1120 C1117 0.950 . S
C1121 C1112 1.390 . S
C1121 H1114 0.950 . S
C1121 C1118 1.387 . S
C1122 C1123 1.387 1_455 S
C1122 H1126 0.950 . S
C1122 C1131 1.390 1_554 S
C1123 C1122 1.387 1_655 S
C1123 C1125 1.387 . S
H1124 C1131 0.950 . S
C1125 C1123 1.387 . S
C1125 C1127 1.390 1_554 S
C1125 H1129 0.950 . S
H1126 C1122 0.950 . S
C1127 C1125 1.390 1_556 S
C1127 C1128 1.387 1_655 S
C1127 H1130 0.950 . S
C1128 C1127 1.387 1_455 S
C1128 C1131 1.387 . S
H1129 C1125 0.950 . S
H1130 C1127 0.950 . S
C1131 C1122 1.390 1_556 S
C1131 H1124 0.950 . S
C1131 C1128 1.387 . S
C1132 C1133 1.387 . S
C1132 H1136 0.950 . S
C1132 C1141 1.390 1_554 S
C1133 C1132 1.387 . S
C1133 C1135 1.387 . S
H1134 C1141 0.950 . S
C1135 C1133 1.387 . S
C1135 C1137 1.390 1_554 S
C1135 H1139 0.950 . S
H1136 C1132 0.950 . S
C1137 C1135 1.390 1_556 S
C1137 C1138 1.387 . S
C1137 H1140 0.950 . S
C1138 C1137 1.387 . S
C1138 C1141 1.387 . S
H1139 C1135 0.950 . S
H1140 C1137 0.950 . S
C1141 C1132 1.390 1_556 S
C1141 H1134 0.950 . S
C1141 C1138 1.387 . S
C1142 C1143 1.374 1_565 S
C1142 H1146 0.959 1_565 S
C1142 C1151 1.395 1_554 S
C1143 C1142 1.374 1_545 S
C1143 C1145 1.402 1_545 S
H1144 C1151 0.950 . S
C1145 C1143 1.402 1_565 S
C1145 C1147 1.398 1_554 S
C1145 H1149 0.930 1_565 S
H1146 C1142 0.959 1_545 S
C1147 C1145 1.398 1_556 S
C1147 C1148 1.387 . S
C1147 H1150 0.950 . S
C1148 C1147 1.387 . S
C1148 C1151 1.387 . S
H1149 C1145 0.930 1_545 S
H1150 C1147 0.950 . S
C1151 C1142 1.395 1_556 S
C1151 H1144 0.950 . S
C1151 C1148 1.387 . S
C1152 C1153 1.387 . S
C1152 H1156 0.950 . S
C1152 C1161 1.390 . S
C1153 C1152 1.387 . S
C1153 C1155 1.387 . S
H1154 C1161 0.950 . S
C1155 C1153 1.387 . S
C1155 C1157 1.390 . S
C1155 H1159 0.950 . S
H1156 C1152 0.950 . S
C1157 C1155 1.390 . S
C1157 C1158 1.387 . S
C1157 H1160 0.950 . S
C1158 C1157 1.387 . S
C1158 C1161 1.387 . S
H1159 C1155 0.950 . S
H1160 C1157 0.950 . S
C1161 C1152 1.390 . S
C1161 H1154 0.950 . S
C1161 C1158 1.387 . S
C1162 C1163 1.387 . S
C1162 H1166 0.950 . S
C1162 C1171 1.390 . S
C1163 C1162 1.387 . S
C1163 C1165 1.387 . S
H1164 C1171 0.950 . S
C1165 C1163 1.387 . S
C1165 C1167 1.390 . S
C1165 H1169 0.950 . S
H1166 C1162 0.950 . S
C1167 C1165 1.390 . S
C1167 C1168 1.387 . S
C1167 H1170 0.950 . S
C1168 C1167 1.387 . S
C1168 C1171 1.387 . S
H1169 C1165 0.950 . S
H1170 C1167 0.950 . S
C1171 C1162 1.390 . S
C1171 H1164 0.950 . S
C1171 C1168 1.387 . S
C1172 C1173 1.387 . S
C1172 H1176 0.950 . S
C1172 C1181 1.390 . S
C1173 C1172 1.387 . S
C1173 C1175 1.387 . S
H1174 C1181 0.950 . S
C1175 C1173 1.387 . S
C1175 C1177 1.390 . S
C1175 H1179 0.950 . S
H1176 C1172 0.950 . S
C1177 C1175 1.390 . S
C1177 C1178 1.387 . S
C1177 H1180 0.950 . S
C1178 C1177 1.387 . S
C1178 C1181 1.387 . S
H1179 C1175 0.950 . S
H1180 C1177 0.950 . S
C1181 C1172 1.390 . S
C1181 H1174 0.950 . S
C1181 C1178 1.387 . S
C1182 C1183 1.387 . S
C1182 H1186 0.950 . S
C1182 C1191 1.390 . S
C1183 C1182 1.387 . S
C1183 C1185 1.387 . S
H1184 C1191 0.950 . S
C1185 C1183 1.387 . S
C1185 C1187 1.390 . S
C1185 H1189 0.950 . S
H1186 C1182 0.950 . S
C1187 C1185 1.390 . S
C1187 C1188 1.387 . S
C1187 H1190 0.950 . S
C1188 C1187 1.387 . S
C1188 C1191 1.387 . S
H1189 C1185 0.950 . S
H1190 C1187 0.950 . S
C1191 C1182 1.390 . S
C1191 H1184 0.950 . S
C1191 C1188 1.387 . S
C1192 C1193 1.387 . S
C1192 H1196 0.950 . S
C1192 C1201 1.390 . S
C1193 C1192 1.387 . S
C1193 C1195 1.387 . S
H1194 C1201 0.950 . S
C1195 C1193 1.387 . S
C1195 C1197 1.390 . S
C1195 H1199 0.950 . S
H1196 C1192 0.950 . S
C1197 C1195 1.390 . S
C1197 C1198 1.387 . S
C1197 H1200 0.950 . S
C1198 C1197 1.387 . S
C1198 C1201 1.387 . S
H1199 C1195 0.950 . S
H1200 C1197 0.950 . S
C1201 C1192 1.390 . S
C1201 H1194 0.950 . S
C1201 C1198 1.387 . S
C1202 C1203 1.387 . S
C1202 H1206 0.950 . S
C1202 C1211 1.390 . S
C1203 C1202 1.387 . S
C1203 C1205 1.387 . S
H1204 C1211 0.950 . S
C1205 C1203 1.387 . S
C1205 C1207 1.390 . S
C1205 H1209 0.950 . S
H1206 C1202 0.950 . S
C1207 C1205 1.390 . S
C1207 C1208 1.387 . S
C1207 H1210 0.950 . S
C1208 C1207 1.387 . S
C1208 C1211 1.387 . S
H1209 C1205 0.950 . S
H1210 C1207 0.950 . S
C1211 C1202 1.390 . S
C1211 H1204 0.950 . S
C1211 C1208 1.387 . S
C1212 C1213 1.387 . S
C1212 H1216 0.950 . S
C1212 C1221 1.390 . S
C1213 C1212 1.387 . S
C1213 C1215 1.387 . S
H1214 C1221 0.951 1_455 S
C1215 C1213 1.387 . S
C1215 C1217 1.390 . S
C1215 H1219 0.950 . S
H1216 C1212 0.950 . S
C1217 C1215 1.390 . S
C1217 C1218 1.387 1_655 S
C1217 H1220 0.950 . S
C1218 C1217 1.387 1_455 S
C1218 C1221 1.386 1_455 S
H1219 C1215 0.950 . S
H1220 C1217 0.950 . S
C1221 C1212 1.390 . S
C1221 H1214 0.951 1_655 S
C1221 C1218 1.386 1_655 S
C1222 C1223 1.387 . S
C1222 H1226 0.950 . S
C1222 C1231 1.390 . S
C1223 C1222 1.387 . S
C1223 C1225 1.387 . S
H1224 C1231 0.950 . S
C1225 C1223 1.387 . S
C1225 C1227 1.390 . S
C1225 H1229 0.950 . S
H1226 C1222 0.950 . S
C1227 C1225 1.390 . S
C1227 C1228 1.387 . S
C1227 H1230 0.950 . S
C1228 C1227 1.387 . S
C1228 C1231 1.387 . S
H1229 C1225 0.950 . S
H1230 C1227 0.950 . S
C1231 C1222 1.390 . S
C1231 H1224 0.950 . S
C1231 C1228 1.387 . S
C1232 C1233 1.387 . S
C1232 H1236 0.950 . S
C1232 C1241 1.390 . S
C1233 C1232 1.387 . S
C1233 C1235 1.387 . S
H1234 C1241 0.967 . S
C1235 C1233 1.387 . S
C1235 C1237 1.390 . S
C1235 H1239 0.950 . S
H1236 C1232 0.950 . S
C1237 C1235 1.390 . S
C1237 C1238 1.385 . S
C1237 H1240 0.948 . S
C1238 C1237 1.385 . S
C1238 C1241 1.389 . S
H1239 C1235 0.950 . S
H1240 C1237 0.948 . S
C1241 C1232 1.390 . S
C1241 H1234 0.967 . S
C1241 C1238 1.389 . S
C1242 C1243 1.387 1_556 S
C1242 H1246 0.950 . S
C1242 C1251 1.390 . S
C1243 C1242 1.387 1_554 S
C1243 C1245 1.387 . S
H1244 C1251 0.950 . S
C1245 C1243 1.387 . S
C1245 C1247 1.390 . S
C1245 H1249 0.950 . S
H1246 C1242 0.950 . S
C1247 C1245 1.390 . S
C1247 C1248 1.387 1_554 S
C1247 H1250 0.950 . S
C1248 C1247 1.387 1_556 S
C1248 C1251 1.387 . S
H1249 C1245 0.950 . S
H1250 C1247 0.950 . S
C1251 C1242 1.390 . S
C1251 H1244 0.950 . S
C1251 C1248 1.387 . S
C1252 C1253 1.387 . S
C1252 H1256 0.950 . S
C1252 C1261 1.390 1_546 S
C1253 C1252 1.387 . S
C1253 C1255 1.387 . S
H1254 C1261 0.950 . S
C1255 C1253 1.387 . S
C1255 C1257 1.390 1_546 S
C1255 H1259 0.950 . S
H1256 C1252 0.950 . S
C1257 C1255 1.390 1_564 S
C1257 C1258 1.387 . S
C1257 H1260 0.950 . S
C1258 C1257 1.387 . S
C1258 C1261 1.387 . S
H1259 C1255 0.950 . S
H1260 C1257 0.950 . S
C1261 C1252 1.390 1_564 S
C1261 H1254 0.950 . S
C1261 C1258 1.387 . S
C1262 C1263 1.387 . S
C1262 H1266 0.950 . S
C1262 C1271 1.390 1_655 S
C1263 C1262 1.387 . S
C1263 C1265 1.387 1_556 S
H1264 C1271 0.950 . S
C1265 C1263 1.387 1_554 S
C1265 C1267 1.390 1_655 S
C1265 H1269 0.950 . S
H1266 C1262 0.950 . S
C1267 C1265 1.390 1_455 S
C1267 C1268 1.387 . S
C1267 H1270 0.950 . S
C1268 C1267 1.387 . S
C1268 C1271 1.387 1_554 S
H1269 C1265 0.950 . S
H1270 C1267 0.950 . S
C1271 C1262 1.390 1_455 S
C1271 H1264 0.950 . S
C1271 C1268 1.387 1_556 S
C1272 C1273 1.387 1_554 S
C1272 H1276 0.950 . S
C1272 C1281 1.390 . S
C1273 C1272 1.387 1_556 S
C1273 C1275 1.387 . S
H1274 C1281 0.950 . S
C1275 C1273 1.387 . S
C1275 C1277 1.390 . S
C1275 H1279 0.950 . S
H1276 C1272 0.950 . S
C1277 C1275 1.390 . S
C1277 C1278 1.387 1_556 S
C1277 H1280 0.950 . S
C1278 C1277 1.387 1_554 S
C1278 C1281 1.387 . S
H1279 C1275 0.950 . S
H1280 C1277 0.950 . S
C1281 C1272 1.390 . S
C1281 H1274 0.950 . S
C1281 C1278 1.387 . S
C1282 C1283 1.387 . S
C1282 H1286 0.950 . S
C1282 C1291 1.390 1_564 S
C1283 C1282 1.387 . S
C1283 C1285 1.387 . S
H1284 C1291 0.950 . S
C1285 C1283 1.387 . S
C1285 C1287 1.390 1_564 S
C1285 H1289 0.950 . S
H1286 C1282 0.950 . S
C1287 C1285 1.390 1_546 S
C1287 C1288 1.387 . S
C1287 H1290 0.950 . S
C1288 C1287 1.387 . S
C1288 C1291 1.387 . S
H1289 C1285 0.950 . S
H1290 C1287 0.950 . S
C1291 C1282 1.390 1_546 S
C1291 H1284 0.950 . S
C1291 C1288 1.387 . S
C1292 C1293 1.387 1_554 S
C1292 H1296 0.950 . S
C1292 C1301 1.390 1_655 S
C1293 C1292 1.387 1_556 S
C1293 C1295 1.387 . S
H1294 C1301 0.950 . S
C1295 C1293 1.387 . S
C1295 C1297 1.390 1_655 S
C1295 H1299 0.950 . S
H1296 C1292 0.950 . S
C1297 C1295 1.390 1_455 S
C1297 C1298 1.387 1_556 S
C1297 H1300 0.950 . S
C1298 C1297 1.387 1_554 S
C1298 C1301 1.387 . S
H1299 C1295 0.950 . S
H1300 C1297 0.950 . S
C1301 C1292 1.390 1_455 S
C1301 H1294 0.950 . S
C1301 C1298 1.387 . S
C1302 C1303 1.387 . S
C1302 H1306 0.950 . S
C1302 C1311 1.390 . S
C1303 C1302 1.387 . S
C1303 C1305 1.387 . S
H1304 C1311 0.950 . S
C1305 C1303 1.387 . S
C1305 C1307 1.390 . S
C1305 H1309 0.950 . S
H1306 C1302 0.950 . S
C1307 C1305 1.390 . S
C1307 C1308 1.387 . S
C1307 H1310 0.950 . S
C1308 C1307 1.387 . S
C1308 C1311 1.387 . S
H1309 C1305 0.950 . S
H1310 C1307 0.950 . S
C1311 C1302 1.390 . S
C1311 H1304 0.950 . S
C1311 C1308 1.387 . S
C1312 C1313 1.387 . S
C1312 H1316 0.950 . S
C1312 C1321 1.390 . S
C1313 C1312 1.387 . S
C1313 C1315 1.387 . S
H1314 C1321 0.950 . S
C1315 C1313 1.387 . S
C1315 C1317 1.390 . S
C1315 H1319 0.950 . S
H1316 C1312 0.950 . S
C1317 C1315 1.390 . S
C1317 C1318 1.387 . S
C1317 H1320 0.950 . S
C1318 C1317 1.387 . S
C1318 C1321 1.387 . S
H1319 C1315 0.950 . S
H1320 C1317 0.950 . S
C1321 C1312 1.390 . S
C1321 H1314 0.950 . S
C1321 C1318 1.387 . S
C1322 C1323 1.387 . S
C1322 H1326 0.950 . S
C1322 C1331 1.390 . S
C1323 C1322 1.387 . S
C1323 C1325 1.387 . S
H1324 C1331 0.950 . S
C1325 C1323 1.387 . S
C1325 C1327 1.390 . S
C1325 H1329 0.950 . S
H1326 C1322 0.950 . S
C1327 C1325 1.390 . S
C1327 C1328 1.387 . S
C1327 H1330 0.950 . S
C1328 C1327 1.387 . S
C1328 C1331 1.387 . S
H1329 C1325 0.950 . S
H1330 C1327 0.950 . S
C1331 C1322 1.390 . S
C1331 H1324 0.950 . S
C1331 C1328 1.387 . S
C1332 C1333 1.387 . S
C1332 H1336 0.950 . S
C1332 C1341 1.390 . S
C1333 C1332 1.387 . S
C1333 C1335 1.387 . S
H1334 C1341 0.950 . S
C1335 C1333 1.387 . S
C1335 C1337 1.390 . S
C1335 H1339 0.950 . S
H1336 C1332 0.950 . S
C1337 C1335 1.390 . S
C1337 C1338 1.387 . S
C1337 H1340 0.950 . S
C1338 C1337 1.387 . S
C1338 C1341 1.387 . S
H1339 C1335 0.950 . S
H1340 C1337 0.950 . S
C1341 C1332 1.390 . S
C1341 H1334 0.950 . S
C1341 C1338 1.387 . S
C1342 C1343 1.387 . S
C1342 H1346 0.950 . S
C1342 C1351 1.390 . S
C1343 C1342 1.387 . S
C1343 C1345 1.387 . S
H1344 C1351 0.950 . S
C1345 C1343 1.387 . S
C1345 C1347 1.390 . S
C1345 H1349 0.950 . S
H1346 C1342 0.950 . S
C1347 C1345 1.390 . S
C1347 C1348 1.387 . S
C1347 H1350 0.950 . S
C1348 C1347 1.387 . S
C1348 C1351 1.387 . S
H1349 C1345 0.950 . S
H1350 C1347 0.950 . S
C1351 C1342 1.390 . S
C1351 H1344 0.950 . S
C1351 C1348 1.387 . S
C1352 C1353 1.387 . S
C1352 H1356 0.950 . S
C1352 C1361 1.390 . S
C1353 C1352 1.387 . S
C1353 C1355 1.387 . S
H1354 C1361 0.950 . S
C1355 C1353 1.387 . S
C1355 C1357 1.390 . S
C1355 H1359 0.950 . S
H1356 C1352 0.950 . S
C1357 C1355 1.390 . S
C1357 C1358 1.387 . S
C1357 H1360 0.950 . S
C1358 C1357 1.387 . S
C1358 C1361 1.387 . S
H1359 C1355 0.950 . S
H1360 C1357 0.950 . S
C1361 C1352 1.390 . S
C1361 H1354 0.950 . S
C1361 C1358 1.387 . S
C1362 C1363 1.387 . S
C1362 H1366 0.950 . S
C1362 C1371 1.390 . S
C1363 C1362 1.387 . S
C1363 C1365 1.387 . S
H1364 C1371 0.950 . S
C1365 C1363 1.387 . S
C1365 C1367 1.390 . S
C1365 H1369 0.950 . S
H1366 C1362 0.950 . S
C1367 C1365 1.390 . S
C1367 C1368 1.387 . S
C1367 H1370 0.950 . S
C1368 C1367 1.387 . S
C1368 C1371 1.387 . S
H1369 C1365 0.950 . S
H1370 C1367 0.950 . S
C1371 C1362 1.390 . S
C1371 H1364 0.950 . S
C1371 C1368 1.387 . S
C1372 C1373 1.387 . S
C1372 H1376 0.950 . S
C1372 C1381 1.390 . S
C1373 C1372 1.387 . S
C1373 C1375 1.387 . S
H1374 C1381 0.950 . S
C1375 C1373 1.387 . S
C1375 C1377 1.390 . S
C1375 H1379 0.950 . S
H1376 C1372 0.950 . S
C1377 C1375 1.390 . S
C1377 C1378 1.387 . S
C1377 H1380 0.950 . S
C1378 C1377 1.387 . S
C1378 C1381 1.387 . S
H1379 C1375 0.950 . S
H1380 C1377 0.950 . S
C1381 C1372 1.390 . S
C1381 H1374 0.950 . S
C1381 C1378 1.387 . S
C1382 C1383 1.387 . S
C1382 H1386 0.950 . S
C1382 C1391 1.390 . S
C1383 C1382 1.387 . S
C1383 C1385 1.387 . S
H1384 C1391 0.950 . S
C1385 C1383 1.387 . S
C1385 C1387 1.390 . S
C1385 H1389 0.950 . S
H1386 C1382 0.950 . S
C1387 C1385 1.390 . S
C1387 C1388 1.387 . S
C1387 H1390 0.950 . S
C1388 C1387 1.387 . S
C1388 C1391 1.387 . S
H1389 C1385 0.950 . S
H1390 C1387 0.950 . S
C1391 C1382 1.390 . S
C1391 H1384 0.950 . S
C1391 C1388 1.387 . S
C1392 C1393 1.387 . S
C1392 H1396 0.950 . S
C1392 C1401 1.390 . S
C1393 C1392 1.387 . S
C1393 C1395 1.387 . S
H1394 C1401 0.950 . S
C1395 C1393 1.387 . S
C1395 C1397 1.390 . S
C1395 H1399 0.950 . S
H1396 C1392 0.950 . S
C1397 C1395 1.390 . S
C1397 C1398 1.387 . S
C1397 H1400 0.950 . S
C1398 C1397 1.387 . S
C1398 C1401 1.387 . S
H1399 C1395 0.950 . S
H1400 C1397 0.950 . S
C1401 C1392 1.390 . S
C1401 H1394 0.950 . S
C1401 C1398 1.387 . S
C1402 C1403 1.387 . S
C1402 H1406 0.950 . S
C1402 C1411 1.390 . S
C1403 C1402 1.387 . S
C1403 C1405 1.387 . S
H1404 C1411 0.950 . S
C1405 C1403 1.387 . S
C1405 C1407 1.390 . S
C1405 H1409 0.950 . S
H1406 C1402 0.950 . S
C1407 C1405 1.390 . S
C1407 C1408 1.387 . S
C1407 H1410 0.950 . S
C1408 C1407 1.387 . S
C1408 C1411 1.387 . S
H1409 C1405 0.950 . S
H1410 C1407 0.950 . S
C1411 C1402 1.390 . S
C1411 H1404 0.950 . S
C1411 C1408 1.387 . S
C1412 C1413 1.387 . S
C1412 H1416 0.950 . S
C1412 C1421 1.390 . S
C1413 C1412 1.387 . S
C1413 C1415 1.387 . S
H1414 C1421 0.950 . S
C1415 C1413 1.387 . S
C1415 C1417 1.390 . S
C1415 H1419 0.950 . S
H1416 C1412 0.950 . S
C1417 C1415 1.390 . S
C1417 C1418 1.387 . S
C1417 H1420 0.950 . S
C1418 C1417 1.387 . S
C1418 C1421 1.387 . S
H1419 C1415 0.950 . S
H1420 C1417 0.950 . S
C1421 C1412 1.390 . S
C1421 H1414 0.950 . S
C1421 C1418 1.387 . S
C1063 C1006 1.662 . S
C1068 C3 1.662 . S
C1073 C890 1.657 . S
C1078 C64 1.657 . S
C1083 C949 1.656 . S
C1088 C123 1.656 . S
C1093 C418 1.657 . S
C1098 C182 1.657 . S
C1103 C477 1.657 . S
C1108 C241 1.657 . S
C1113 C298 1.661 . S
C1118 C357 1.661 . S
C1123 C536 1.656 . S
C1128 C772 1.656 . S
C1133 C595 1.656 . S
C1138 C831 1.656 . S
C1143 C652 1.661 . S
C1148 C711 1.661 . S
C1153 C33 0.899 . S
C1158 C1036 0.899 . S
C1163 C937 0.889 . S
C1168 C111 0.889 . S
C1173 C170 0.889 . S
C1178 C996 0.888 . S
C1183 C465 0.889 . S
C1188 C229 0.888 . S
C1193 C288 0.889 . S
C1198 C524 0.888 . S
C1203 C328 0.902 . S
C1208 C387 0.902 . S
C1213 C583 0.886 . S
C1218 C819 0.886 . S
C1223 C878 0.886 . S
C1228 C642 0.886 . S
C1233 C741 0.899 . S
C1238 C682 0.901 1_565 S
C1243 C52 1.787 . S
C1248 C210 1.788 . S
C1253 C269 1.786 . S
C1258 C92 1.786 . S
C1263 C347 1.788 . S
C1268 C151 1.788 . S
C1273 C300 1.749 . S
C1278 C62 1.725 . S
C1283 C121 1.724 . S
C1288 C180 1.724 . S
C1293 C239 1.725 . S
C1298 C5 1.748 . S
C1303 C406 1.787 . S
C1308 C564 1.788 . S
C1313 C623 1.786 . S
C1318 C446 1.786 . S
C1323 C701 1.787 . S
C1328 C505 1.788 . S
C1333 C654 1.749 . S
C1338 C416 1.726 . S
C1343 C475 1.726 . S
C1348 C534 1.726 . S
C1353 C593 1.725 . S
C1358 C359 1.748 . S
C1363 C918 1.788 . S
C1368 C760 1.787 . S
C1373 C977 1.786 . S
C1378 C800 1.786 . S
C1383 C859 1.789 . S
C1388 C1055 1.787 . S
C1393 C1008 1.748 . S
C1398 C770 1.724 . S
C1403 C829 1.724 . S
C1408 C888 1.724 . S
C1413 C947 1.725 . S
C1418 C713 1.749 . S
