# Generated by pormake.
# Topology zft, (5)-cn, num edge types: 1
# Building blocks:
#     Node 0, Type 0, BuildingBlock: BEQFEK_clean_sbu_0, # of connection points: 5
#     Node 1, Type 0, BuildingBlock: BEQFEK_clean_sbu_0, # of connection points: 5
#     Node 2, Type 0, BuildingBlock: BEQFEK_clean_sbu_0, # of connection points: 5
#     Node 3, Type 0, BuildingBlock: BEQFEK_clean_sbu_0, # of connection points: 5
#     Node 4, Type 0, BuildingBlock: BEQFEK_clean_sbu_0, # of connection points: 5
#     Node 5, Type 0, BuildingBlock: BEQFEK_clean_sbu_0, # of connection points: 5
#     Node 6, Type 0, BuildingBlock: BEQFEK_clean_sbu_0, # of connection points: 5
#     Node 7, Type 0, BuildingBlock: BEQFEK_clean_sbu_0, # of connection points: 5
#     Edge 8, Type (0, 0), BuildingBlock: CIFDUS_clean_linker_0, # of connection points: 2
#     Edge 9, Type (0, 0), BuildingBlock: CIFDUS_clean_linker_0, # of connection points: 2
#     Edge 10, Type (0, 0), BuildingBlock: CIFDUS_clean_linker_0, # of connection points: 2
#     Edge 11, Type (0, 0), BuildingBlock: CIFDUS_clean_linker_0, # of connection points: 2
#     Edge 12, Type (0, 0), BuildingBlock: CIFDUS_clean_linker_0, # of connection points: 2
#     Edge 13, Type (0, 0), BuildingBlock: CIFDUS_clean_linker_0, # of connection points: 2
#     Edge 14, Type (0, 0), BuildingBlock: CIFDUS_clean_linker_0, # of connection points: 2
#     Edge 15, Type (0, 0), BuildingBlock: CIFDUS_clean_linker_0, # of connection points: 2
#     Edge 16, Type (0, 0), BuildingBlock: CIFDUS_clean_linker_0, # of connection points: 2
#     Edge 17, Type (0, 0), BuildingBlock: CIFDUS_clean_linker_0, # of connection points: 2
#     Edge 18, Type (0, 0), BuildingBlock: CIFDUS_clean_linker_0, # of connection points: 2
#     Edge 19, Type (0, 0), BuildingBlock: CIFDUS_clean_linker_0, # of connection points: 2
#     Edge 20, Type (0, 0), BuildingBlock: CIFDUS_clean_linker_0, # of connection points: 2
#     Edge 21, Type (0, 0), BuildingBlock: CIFDUS_clean_linker_0, # of connection points: 2
#     Edge 22, Type (0, 0), BuildingBlock: CIFDUS_clean_linker_0, # of connection points: 2
#     Edge 23, Type (0, 0), BuildingBlock: CIFDUS_clean_linker_0, # of connection points: 2
#     Edge 24, Type (0, 0), BuildingBlock: CIFDUS_clean_linker_0, # of connection points: 2
#     Edge 25, Type (0, 0), BuildingBlock: CIFDUS_clean_linker_0, # of connection points: 2
#     Edge 26, Type (0, 0), BuildingBlock: CIFDUS_clean_linker_0, # of connection points: 2
#     Edge 27, Type (0, 0), BuildingBlock: CIFDUS_clean_linker_0, # of connection points: 2
# Relax obj value: 0.048
# Max RMSD: 0.118
# Mean RMSD: 0.118
data_MOF--net-zft--node1-BEQFEK_clean_sbu_0--edge1-CIFDUS_clean_linker_0
_symmetry_space_group_name_H-M    P1
_symmetry_Int_Tables_number       1
_symmetry_cell_setting            triclinic
loop_
_symmetry_equiv_pos_as_xyz
'x, y, z'
_cell_length_a     25.492369
_cell_length_b     25.442179
_cell_length_c     48.232149
_cell_angle_alpha  90.08344
_cell_angle_beta   89.76616
_cell_angle_gamma 89.984687
loop_
_atom_site_label
_atom_site_type_symbol
_atom_site_fract_x
_atom_site_fract_y
_atom_site_fract_z
_atom_type_partial_charge
Co0 Co 0.03711 0.29505 0.18554 0.0
Co1 Co 0.14118 0.34227 0.16134 0.0
C2 C 0.03653 0.35494 0.13266 0.0
O3 O 0.01107 0.33017 0.15132 0.0
O4 O 0.08582 0.36185 0.13464 0.0
C5 C 0.95574 0.22519 0.20248 0.0
O6 O 0.97237 0.19813 0.18094 0.0
C7 C 0.20682 0.42956 0.14322 0.0
C8 C 0.2843 0.39211 0.13774 0.0
C9 C 0.25837 0.43988 0.13509 0.0
N10 N 0.20303 0.37855 0.15012 0.0
N11 N 0.24939 0.35628 0.14673 0.0
C12 C 0.16191 0.46713 0.14608 0.0
H13 H 0.13123 0.45058 0.15993 0.0
H14 H 0.17555 0.50532 0.15454 0.0
H15 H 0.1441 0.47371 0.12542 0.0
C16 C 0.0717 0.3555 0.23468 0.0
N17 N 0.07746 0.34096 0.20797 0.0
N18 N 0.12214 0.35951 0.19837 0.0
C19 C 0.1467 0.38586 0.21885 0.0
C20 C 0.11537 0.3844 0.24251 0.0
C21 C 0.02745 0.33776 0.25289 0.0
H22 H 0.02719 0.29418 0.25375 0.0
H23 H 0.98969 0.35067 0.24378 0.0
H24 H 0.03084 0.35337 0.27428 0.0
O25 O 0.08001 0.23251 0.17488 0.0
O26 O 0.15394 0.26587 0.15789 0.0
H27 H 0.22712 0.38366 0.20582 0.0
H28 H 0.21525 0.42471 0.23593 0.0
C29 C 0.19927 0.41145 0.21577 0.0
H30 H 0.1955 0.44625 0.20216 0.0
H31 H 0.25713 0.31665 0.15049 0.0
O32 O 0.97673 0.26933 0.20772 0.0
C33 C 0.12536 0.22649 0.16409 0.0
Co34 Co 0.21556 0.54366 0.43582 0.0
Co35 Co 0.14893 0.64014 0.41658 0.0
C36 C 0.14621 0.53872 0.38542 0.0
O37 O 0.17903 0.51774 0.40192 0.0
O38 O 0.13024 0.58567 0.38901 0.0
C39 C 0.23024 0.4391 0.45758 0.0
O40 O 0.18087 0.43181 0.45087 0.0
C41 C 0.06204 0.70668 0.39759 0.0
C42 C 0.08824 0.78552 0.41107 0.0
C43 C 0.04799 0.75941 0.39768 0.0
N44 N 0.10818 0.70188 0.41069 0.0
N45 N 0.12372 0.74911 0.41861 0.0
C46 C 0.0357 0.66216 0.38286 0.0
H47 H 0.06206 0.64813 0.36608 0.0
H48 H 0.02947 0.62913 0.39752 0.0
H49 H 0.99803 0.67365 0.3733 0.0
C50 C 0.16053 0.56821 0.48913 0.0
N51 N 0.16909 0.57587 0.46179 0.0
N52 N 0.13957 0.61509 0.4533 0.0
C53 C 0.11011 0.63244 0.47471 0.0
C54 C 0.12266 0.60354 0.49811 0.0
C55 C 0.18868 0.52851 0.50642 0.0
H56 H 0.23107 0.52856 0.50114 0.0
H57 H 0.17269 0.48892 0.50186 0.0
H58 H 0.18352 0.53647 0.52889 0.0
O59 O 0.27049 0.59408 0.4244 0.0
O60 O 0.22262 0.6616 0.41024 0.0
H61 H 0.09549 0.7146 0.47039 0.0
H62 H 0.04871 0.68138 0.49227 0.0
C63 C 0.07285 0.67778 0.47317 0.0
H64 H 0.04672 0.67282 0.45503 0.0
H65 H 0.15875 0.7565 0.42903 0.0
O66 O 0.25158 0.4834 0.45301 0.0
C67 C 0.26701 0.64005 0.4142 0.0
Co68 Co 0.95446 0.71995 0.68742 0.0
Co69 Co 0.85277 0.66366 0.66639 0.0
C70 C 0.95805 0.65757 0.63604 0.0
O71 O 0.98359 0.68384 0.65401 0.0
O72 O 0.90915 0.64918 0.63905 0.0
C73 C 0.05807 0.74944 0.71029 0.0
O74 O 0.07756 0.70555 0.70023 0.0
C75 C 0.79994 0.5647 0.65357 0.0
C76 C 0.71893 0.59015 0.64474 0.0
C77 C 0.751 0.5461 0.64564 0.0
N78 N 0.79668 0.61703 0.65734 0.0
N79 N 0.74809 0.63198 0.65214 0.0
C80 C 0.84987 0.53404 0.65602 0.0
H81 H 0.88434 0.56042 0.65666 0.0
H82 H 0.84936 0.51125 0.6756 0.0
H83 H 0.85374 0.50599 0.63848 0.0
C84 C 0.92646 0.66132 0.73884 0.0
N85 N 0.91925 0.67316 0.71187 0.0
N86 N 0.87504 0.65188 0.70343 0.0
C87 C 0.85209 0.62691 0.72492 0.0
C88 C 0.88402 0.63181 0.74801 0.0
C89 C 0.97084 0.68166 0.75596 0.0
H90 H 0.00856 0.66955 0.74634 0.0
H91 H 0.96892 0.66689 0.77757 0.0
H92 H 0.96963 0.72525 0.7562 0.0
O93 O 0.90453 0.77554 0.67559 0.0
O94 O 0.83054 0.73788 0.66169 0.0
H95 H 0.78351 0.59201 0.74438 0.0
H96 H 0.80433 0.56219 0.71251 0.0
C97 C 0.79983 0.60018 0.72351 0.0
H98 H 0.77186 0.62487 0.71173 0.0
H99 H 0.73508 0.67083 0.65317 0.0
O100 O 0.00969 0.7597 0.70713 0.0
C101 C 0.8579 0.77887 0.66633 0.0
Co102 Co 0.76963 0.45379 0.93515 0.0
Co103 Co 0.84296 0.36156 0.91488 0.0
C104 C 0.84055 0.46734 0.8863 0.0
O105 O 0.80671 0.48683 0.90296 0.0
O106 O 0.85661 0.42024 0.88896 0.0
C107 C 0.7349 0.55407 0.95944 0.0
O108 O 0.78087 0.57309 0.95221 0.0
C109 C 0.94451 0.31014 0.90176 0.0
C110 C 0.91987 0.22739 0.89716 0.0
C111 C 0.96325 0.2601 0.8954 0.0
N112 N 0.89265 0.3068 0.90704 0.0
N113 N 0.87836 0.25715 0.90437 0.0
C114 C 0.9745 0.36073 0.90126 0.0
H115 H 0.94773 0.39493 0.90139 0.0
H116 H 0.99937 0.36344 0.92 0.0
H117 H 0.00048 0.36221 0.88275 0.0
C118 C 0.82583 0.43169 0.98807 0.0
N119 N 0.81741 0.42317 0.96082 0.0
N120 N 0.84803 0.38457 0.95233 0.0
C121 C 0.87708 0.36771 0.97386 0.0
C122 C 0.86415 0.39712 0.99712 0.0
C123 C 0.7981 0.47247 0.00502 0.0
H124 H 0.80946 0.51199 0.99744 0.0
H125 H 0.8082 0.46959 0.02731 0.0
H126 H 0.7551 0.46808 1.0025 0.0
O127 O 0.72083 0.39913 0.92127 0.0
O128 O 0.77155 0.33319 0.90736 0.0
H129 H 0.9254 0.30888 0.99377 0.0
H130 H 0.95011 0.33399 0.96134 0.0
C131 C 0.91416 0.32215 0.9727 0.0
H132 H 0.89577 0.28896 0.96145 0.0
H133 H 0.84001 0.24368 0.90703 0.0
O134 O 0.72407 0.50636 0.95406 0.0
C135 C 0.72623 0.35334 0.91093 0.0
Co136 Co 0.53203 0.22326 0.56299 0.0
Co137 Co 0.62708 0.16418 0.58975 0.0
C138 C 0.51697 0.16438 0.61479 0.0
O139 O 0.49639 0.19003 0.59497 0.0
O140 O 0.56578 0.15364 0.61486 0.0
C141 C 0.4326 0.25445 0.53723 0.0
O142 O 0.41019 0.2148 0.55006 0.0
C143 C 0.67693 0.06505 0.60655 0.0
C144 C 0.75871 0.08958 0.61406 0.0
C145 C 0.72589 0.04608 0.61438 0.0
N146 N 0.68105 0.11696 0.60154 0.0
N147 N 0.73004 0.13135 0.60613 0.0
C148 C 0.6265 0.03505 0.60474 0.0
H149 H 0.59235 0.06179 0.60559 0.0
H150 H 0.62495 0.0138 0.58467 0.0
H151 H 0.62376 0.00587 0.62177 0.0
C152 C 0.56555 0.16175 0.51403 0.0
N153 N 0.56912 0.1742 0.5411 0.0
N154 N 0.61046 0.15094 0.55178 0.0
C155 C 0.63518 0.12361 0.53159 0.0
C156 C 0.60737 0.1294 0.50704 0.0
C157 C 0.52561 0.18451 0.49481 0.0
H158 H 0.5293 0.22796 0.49476 0.0
H159 H 0.48574 0.17456 0.50246 0.0
H160 H 0.53047 0.16981 0.4733 0.0
O161 O 0.58107 0.27772 0.57645 0.0
O162 O 0.65077 0.23826 0.59447 0.0
H163 H 0.71362 0.11786 0.54709 0.0
H164 H 0.70241 0.08024 0.51578 0.0
C165 C 0.68492 0.09334 0.53568 0.0
H166 H 0.67646 0.05798 0.54828 0.0
H167 H 0.7439 0.16969 0.60383 0.0
O168 O 0.48143 0.26242 0.54015 0.0
C169 C 0.62585 0.27992 0.58799 0.0
Co170 Co 0.28446 0.02998 0.81499 0.0
Co171 Co 0.34172 0.12651 0.84248 0.0
C172 C 0.3444 0.0178 0.86747 0.0
O173 O 0.31782 0.99771 0.84783 0.0
O174 O 0.35535 0.06665 0.86786 0.0
C175 C 0.2674 0.92687 0.79039 0.0
O176 O 0.31169 0.91345 0.80229 0.0
C177 C 0.43221 0.18887 0.86346 0.0
C178 C 0.39788 0.26857 0.86395 0.0
C179 C 0.44355 0.24115 0.8697 0.0
N180 N 0.38238 0.18601 0.85427 0.0
N181 N 0.36226 0.23386 0.85465 0.0
C182 C 0.46709 0.14213 0.86737 0.0
H183 H 0.44405 0.10538 0.86826 0.0
H184 H 0.49458 0.13904 0.84957 0.0
H185 H 0.49043 0.14641 0.88662 0.0
C186 C 0.35097 0.06199 0.76732 0.0
N187 N 0.33408 0.0679 0.79365 0.0
N188 N 0.35819 0.10829 0.80501 0.0
C189 C 0.39134 0.12926 0.78617 0.0
C190 C 0.38797 0.10053 0.76176 0.0
C191 C 0.33356 0.01876 0.74842 0.0
H192 H 0.29019 0.01948 0.74666 0.0
H193 H 0.34496 0.98044 0.7575 0.0
H194 H 0.3514 0.02213 0.72749 0.0
O195 O 0.2269 0.07718 0.82712 0.0
O196 O 0.26626 0.14612 0.8461 0.0
H197 H 0.39973 0.20827 0.8009 0.0
H198 H 0.44039 0.19282 0.77126 0.0
C199 C 0.42393 0.17731 0.79095 0.0
H200 H 0.4567 0.16742 0.80503 0.0
H201 H 0.32402 0.24282 0.84862 0.0
O202 O 0.25068 0.97375 0.79284 0.0
C203 C 0.22468 0.1218 0.83908 0.0
Co204 Co 0.45752 0.77831 0.07005 0.0
Co205 Co 0.35712 0.84017 0.08999 0.0
C206 C 0.45811 0.83514 0.12331 0.0
O207 O 0.48397 0.80979 0.105 0.0
O208 O 0.41013 0.84696 0.11964 0.0
C209 C 0.56299 0.75431 0.05008 0.0
O210 O 0.57719 0.79714 0.06332 0.0
C211 C 0.305 0.939 0.1057 0.0
C212 C 0.22149 0.91597 0.10666 0.0
C213 C 0.25479 0.9584 0.11061 0.0
N214 N 0.30129 0.88781 0.09885 0.0
N215 N 0.25125 0.87431 0.09952 0.0
C216 C 0.35597 0.96771 0.10883 0.0
H217 H 0.38907 0.94002 0.1111 0.0
H218 H 0.36361 0.99163 0.09006 0.0
H219 H 0.35433 0.99449 0.127 0.0
C220 C 0.44153 0.84707 0.02075 0.0
N221 N 0.42829 0.83039 0.04639 0.0
N222 N 0.3861 0.85592 0.05472 0.0
C223 C 0.37108 0.88932 0.03459 0.0
C224 C 0.40598 0.88521 0.01266 0.0
C225 C 0.48749 0.82721 0.00447 0.0
H226 H 0.48535 0.78377 0.00285 0.0
H227 H 0.52413 0.8375 0.01553 0.0
H228 H 0.48883 0.84448 0.98336 0.0
O229 O 0.40397 0.72426 0.07985 0.0
O230 O 0.33054 0.76717 0.09056 0.0
H231 H 0.28968 0.89913 0.04497 0.0
H232 H 0.31014 0.93352 0.01403 0.0
C233 C 0.32203 0.92167 0.03523 0.0
H234 H 0.32899 0.95778 0.04752 0.0
H235 H 0.23743 0.8366 0.09516 0.0
O236 O 0.5151 0.74032 0.05056 0.0
C237 C 0.35573 0.72443 0.08697 0.0
Co238 Co 0.71923 0.95179 0.31869 0.0
Co239 Co 0.65094 0.85974 0.34313 0.0
C240 C 0.64749 0.96882 0.36723 0.0
O241 O 0.68141 0.98686 0.35014 0.0
O242 O 0.63221 0.92114 0.36627 0.0
C243 C 0.7695 0.0503 0.29873 0.0
O244 O 0.75275 0.0748 0.32106 0.0
C245 C 0.56312 0.79707 0.36591 0.0
C246 C 0.58944 0.71652 0.35557 0.0
C247 C 0.54906 0.74442 0.36801 0.0
N248 N 0.60934 0.79994 0.35246 0.0
N249 N 0.62494 0.75167 0.34652 0.0
C250 C 0.53633 0.84364 0.37862 0.0
H251 H 0.56453 0.86464 0.39209 0.0
H252 H 0.52406 0.87107 0.36199 0.0
H253 H 0.50202 0.83242 0.39147 0.0
C254 C 0.66256 0.91965 0.26779 0.0
N255 N 0.67249 0.91477 0.29509 0.0
N256 N 0.64343 0.8766 0.30526 0.0
C257 C 0.61346 0.85656 0.28485 0.0
C258 C 0.625 0.88292 0.26043 0.0
C259 C 0.68768 0.95958 0.24928 0.0
H260 H 0.73004 0.95038 0.2472 0.0
H261 H 0.68388 0.99915 0.25876 0.0
H262 H 0.66961 0.96001 0.2284 0.0
O263 O 0.77229 0.90364 0.33422 0.0
O264 O 0.72377 0.83913 0.35142 0.0
H265 H 0.59824 0.77577 0.29353 0.0
H266 H 0.55262 0.80453 0.26955 0.0
C267 C 0.57591 0.81189 0.28852 0.0
H268 H 0.54904 0.82048 0.3061 0.0
H269 H 0.65997 0.74275 0.33627 0.0
O270 O 0.75901 0.00192 0.29535 0.0
C271 C 0.76828 0.86001 0.34689 0.0
H272 H 0.05809 0.45514 0.27143 0.0
H273 H 0.1981 0.36081 0.27565 0.0
H274 H 0.21823 0.39741 0.32143 0.0
H275 H 0.19757 0.45895 0.35933 0.0
H276 H 0.0581 0.55458 0.35457 0.0
H277 H 0.03569 0.51439 0.31018 0.0
C278 C 0.09284 0.44261 0.28254 0.0
C279 C 0.12695 0.40595 0.27029 0.0
C280 C 0.10408 0.46392 0.30873 0.0
C281 C 0.17181 0.38966 0.28468 0.0
C282 C 0.18311 0.41034 0.31084 0.0
C283 C 0.1619 0.47048 0.34876 0.0
C284 C 0.12971 0.50997 0.36019 0.0
C285 C 0.14973 0.44783 0.32298 0.0
C286 C 0.08387 0.52475 0.3461 0.0
C287 C 0.07099 0.50176 0.3207 0.0
H288 H 0.06103 0.66869 0.62019 0.0
H289 H 0.9129 0.60379 0.59351 0.0
H290 H 0.95141 0.57951 0.54916 0.0
H291 H 0.02552 0.58119 0.51651 0.0
H292 H 0.1741 0.64401 0.54253 0.0
H293 H 0.1374 0.66438 0.58848 0.0
C294 C 0.03732 0.64884 0.60478 0.0
C295 C 0.98394 0.63873 0.61022 0.0
C296 C 0.05975 0.63475 0.57908 0.0
C297 C 0.95396 0.61257 0.58997 0.0
C298 C 0.97589 0.59862 0.56449 0.0
C299 C 0.04978 0.59882 0.53245 0.0
C300 C 0.10211 0.61127 0.52645 0.0
C301 C 0.02842 0.61024 0.55864 0.0
C302 C 0.13361 0.63407 0.54698 0.0
C303 C 0.1126 0.64581 0.57313 0.0
H304 H 0.79693 0.55528 0.86354 0.0
H305 H 0.92752 0.44835 0.85484 0.0
H306 H 0.95497 0.49269 0.81245 0.0
H307 H 0.93815 0.55757 0.77569 0.0
H308 H 0.80589 0.66192 0.78302 0.0
H309 H 0.78293 0.62337 0.82804 0.0
C310 C 0.83179 0.54216 0.85258 0.0
C311 C 0.85987 0.49834 0.86233 0.0
C312 C 0.84685 0.5672 0.8278 0.0
C313 C 0.90485 0.4817 0.84774 0.0
C314 C 0.92065 0.50702 0.82344 0.0
C315 C 0.90475 0.57211 0.78743 0.0
C316 C 0.87346 0.61206 0.77626 0.0
C317 C 0.89138 0.5491 0.81297 0.0
C318 C 0.83018 0.63083 0.79137 0.0
C319 C 0.8171 0.6088 0.81701 0.0
H320 H 0.96405 0.41553 0.01192 0.0
H321 H 0.81427 0.36718 0.04451 0.0
H322 H 0.85354 0.35241 0.09025 0.0
H323 H 0.93198 0.34864 0.12003 0.0
H324 H 0.08133 0.39963 0.087 0.0
H325 H 0.04071 0.4186 0.04259 0.0
C326 C 0.94014 0.40221 0.0292 0.0
C327 C 0.88667 0.39223 0.02513 0.0
C328 C 0.96292 0.39424 0.0553 0.0
C329 C 0.85562 0.37517 0.04743 0.0
C330 C 0.87808 0.36664 0.07347 0.0
C331 C 0.95555 0.36441 0.10323 0.0
C332 C 0.00981 0.37209 0.10691 0.0
C333 C 0.93191 0.3754 0.07756 0.0
C334 C 0.03957 0.39297 0.08486 0.0
C335 C 0.01643 0.40375 0.05934 0.0
H336 H 0.54822 0.06483 0.47573 0.0
H337 H 0.69561 0.14736 0.4766 0.0
H338 H 0.71913 0.10911 0.43153 0.0
H339 H 0.6998 0.04754 0.3934 0.0
H340 H 0.55326 0.96282 0.39363 0.0
H341 H 0.5268 0.00711 0.43639 0.0
C342 C 0.58526 0.07457 0.46584 0.0
C343 C 0.62052 0.10813 0.47937 0.0
C344 C 0.59849 0.05217 0.44013 0.0
C345 C 0.66835 0.12087 0.46656 0.0
C346 C 0.68163 0.09923 0.44082 0.0
C347 C 0.66169 0.03958 0.40256 0.0
C348 C 0.62863 0.00181 0.39047 0.0
C349 C 0.64729 0.06424 0.42757 0.0
C350 C 0.57959 0.99139 0.40271 0.0
C351 C 0.56446 0.01663 0.42718 0.0
H352 H 0.35146 0.12157 0.71027 0.0
H353 H 0.49353 0.09677 0.75648 0.0
H354 H 0.54606 0.11117 0.71455 0.0
H355 H 0.55147 0.1335 0.66532 0.0
H356 H 0.40973 0.16296 0.61918 0.0
H357 H 0.35701 0.1436 0.66041 0.0
C358 C 0.39391 0.11902 0.71094 0.0
C359 C 0.4189 0.10801 0.73616 0.0
C360 C 0.42374 0.12815 0.68685 0.0
C361 C 0.47379 0.10529 0.73714 0.0
C362 C 0.50369 0.11344 0.71323 0.0
C363 C 0.50902 0.13527 0.66415 0.0
C364 C 0.48461 0.14958 0.63915 0.0
C365 C 0.47909 0.12522 0.68803 0.0
C366 C 0.42955 0.15213 0.63816 0.0
C367 C 0.39937 0.14112 0.66173 0.0
H368 H 0.38373 0.84923 0.96127 0.0
H369 H 0.42338 0.98917 0.00688 0.0
H370 H 0.41218 0.04251 0.96507 0.0
H371 H 0.38495 0.04983 0.91667 0.0
H372 H 0.33935 0.91056 0.87152 0.0
H373 H 0.3592 0.85634 0.91189 0.0
C374 C 0.39064 0.89129 0.96174 0.0
C375 C 0.40473 0.91558 0.98674 0.0
C376 C 0.38261 0.92172 0.93785 0.0
C377 C 0.41283 0.97003 0.98761 0.0
C378 C 0.40625 1.00039 0.96381 0.0
C379 C 0.3798 0.00757 0.91551 0.0
C380 C 0.36042 0.9844 0.89111 0.0
C381 C 0.39021 0.97678 0.93895 0.0
C382 C 0.35393 0.92952 0.89007 0.0
C383 C 0.36527 0.89843 0.91316 0.0
H384 H 0.5245 0.89609 0.24513 0.0
H385 H 0.67621 0.84974 0.21416 0.0
H386 H 0.6385 0.83156 0.16839 0.0
H387 H 0.56143 0.82671 0.13775 0.0
H388 H 0.41014 0.87603 0.16907 0.0
H389 H 0.44855 0.8954 0.214 0.0
C390 C 0.54905 0.88203 0.22825 0.0
C391 C 0.60263 0.87366 0.23275 0.0
C392 C 0.5272 0.87222 0.20212 0.0
C393 C 0.63467 0.85614 0.21091 0.0
C394 C 0.61314 0.84575 0.18486 0.0
C395 C 0.53692 0.84185 0.15437 0.0
C396 C 0.4829 0.84947 0.15 0.0
C397 C 0.55931 0.8533 0.18027 0.0
C398 C 0.45182 0.86959 0.17176 0.0
C399 C 0.47368 0.88065 0.19755 0.0
H400 H 0.17392 0.98557 0.14426 0.0
H401 H 0.29658 0.05263 0.09361 0.0
H402 H 0.26952 0.14069 0.10719 0.0
H403 H 0.20962 0.19912 0.13242 0.0
H404 H 0.08344 0.13281 0.18105 0.0
H405 H 0.11298 0.04428 0.1691 0.0
C406 C 0.19479 0.0195 0.13625 0.0
C407 C 0.23836 0.01226 0.11866 0.0
C408 C 0.17817 0.0703 0.14367 0.0
C409 C 0.26453 0.05665 0.10817 0.0
C410 C 0.24856 0.10725 0.11563 0.0
C411 C 0.18871 0.16536 0.14058 0.0
C412 C 0.14443 0.17274 0.15768 0.0
C413 C 0.20547 0.11455 0.13337 0.0
C414 C 0.11762 0.12839 0.16783 0.0
C415 C 0.13446 0.07769 0.161 0.0
H416 H 0.44842 0.7788 0.36342 0.0
H417 H 0.54282 0.65506 0.39837 0.0
H418 H 0.464 0.61227 0.41653 0.0
H419 H 0.36831 0.60925 0.42157 0.0
H420 H 0.2741 0.73422 0.38723 0.0
H421 H 0.35303 0.77814 0.37048 0.0
C422 C 0.45184 0.74332 0.37571 0.0
C423 C 0.50137 0.72078 0.38019 0.0
C424 C 0.40644 0.71914 0.38616 0.0
C425 C 0.50503 0.67335 0.39492 0.0
C426 C 0.46005 0.64894 0.40531 0.0
C427 C 0.36498 0.64624 0.41057 0.0
C428 C 0.31524 0.66818 0.4056 0.0
C429 C 0.41052 0.67135 0.40093 0.0
C430 C 0.31181 0.71629 0.39136 0.0
C431 C 0.35694 0.74146 0.3817 0.0
H432 H 0.80082 0.0183 0.65093 0.0
H433 H 0.68945 0.95157 0.59372 0.0
H434 H 0.71726 0.86337 0.60645 0.0
H435 H 0.77604 0.80462 0.63255 0.0
H436 H 0.8916 0.87224 0.68721 0.0
H437 H 0.85971 0.96018 0.67658 0.0
C438 C 0.78248 0.98446 0.64129 0.0
C439 C 0.7419 0.99185 0.62203 0.0
C440 C 0.79975 0.93373 0.64812 0.0
C441 C 0.71904 0.94747 0.60952 0.0
C442 C 0.73552 0.89676 0.6165 0.0
C443 C 0.79392 0.83859 0.64229 0.0
C444 C 0.83615 0.83176 0.66064 0.0
C445 C 0.77598 0.88938 0.63573 0.0
C446 C 0.85921 0.87628 0.67289 0.0
C447 C 0.841 0.92668 0.66686 0.0
H448 H 0.54636 0.21263 0.85998 0.0
H449 H 0.45045 0.32584 0.90357 0.0
H450 H 0.52896 0.36984 0.92052 0.0
H451 H 0.6245 0.37734 0.92236 0.0
H452 H 0.72102 0.26295 0.87999 0.0
H453 H 0.64243 0.2173 0.86389 0.0
C454 C 0.54239 0.24586 0.87383 0.0
C455 C 0.49227 0.26514 0.88088 0.0
C456 C 0.58787 0.27092 0.88371 0.0
C457 C 0.48843 0.31 0.89784 0.0
C458 C 0.53334 0.33519 0.90761 0.0
C459 C 0.62851 0.34232 0.90967 0.0
C460 C 0.67874 0.32386 0.9023 0.0
C461 C 0.58323 0.3162 0.90054 0.0
C462 C 0.68294 0.27813 0.886 0.0
C463 C 0.63797 0.25204 0.87672 0.0
H464 H 0.7016 0.30502 0.62578 0.0
H465 H 0.5986 0.3731 0.56471 0.0
H466 H 0.62902 0.46079 0.57688 0.0
H467 H 0.68263 0.51868 0.60569 0.0
H468 H 0.78229 0.45195 0.66851 0.0
H469 H 0.75595 0.36363 0.6547 0.0
C470 C 0.68626 0.33903 0.61497 0.0
C471 C 0.64782 0.33241 0.5944 0.0
C472 C 0.70334 0.38974 0.62237 0.0
C473 C 0.62799 0.37698 0.58075 0.0
C474 C 0.64533 0.42725 0.58768 0.0
C475 C 0.69864 0.4848 0.61635 0.0
C476 C 0.73538 0.49204 0.63764 0.0
C477 C 0.68251 0.43414 0.60866 0.0
C478 C 0.75553 0.44771 0.65135 0.0
C479 C 0.73995 0.39704 0.64367 0.0
H480 H 0.20206 0.20529 0.87289 0.0
H481 H 0.12947 0.08922 0.82005 0.0
H482 H 0.043 0.12292 0.83229 0.0
H483 H 0.98756 0.18338 0.85889 0.0
H484 H 0.0592 0.29678 0.91345 0.0
H485 H 0.14609 0.26662 0.89937 0.0
C486 C 0.16736 0.1876 0.86389 0.0
C487 C 0.17246 0.14465 0.8456 0.0
C488 C 0.11742 0.20682 0.87125 0.0
C489 C 0.12691 0.12212 0.83427 0.0
C490 C 0.07731 0.14136 0.84125 0.0
C491 C 0.02219 0.20164 0.86767 0.0
C492 C 0.01663 0.24318 0.88673 0.0
C493 C 0.07208 0.18332 0.8599 0.0
C494 C 0.06197 0.26617 0.89798 0.0
C495 C 0.11187 0.2484 0.89019 0.0
H496 H 0.401 0.63516 0.10553 0.0
H497 H 0.25157 0.70087 0.08227 0.0
H498 H 0.20816 0.61781 0.09381 0.0
H499 H 0.21322 0.52704 0.11045 0.0
H500 H 0.36166 0.46486 0.13821 0.0
H501 H 0.40522 0.54563 0.12402 0.0
C502 C 0.35897 0.63115 0.10278 0.0
C503 C 0.32953 0.67386 0.09288 0.0
C504 C 0.33417 0.58399 0.11023 0.0
C505 C 0.27502 0.66846 0.08986 0.0
C506 C 0.25024 0.62102 0.09645 0.0
C507 C 0.25465 0.53136 0.11436 0.0
C508 C 0.28354 0.48997 0.12627 0.0
C509 C 0.27939 0.57867 0.1069 0.0
C510 C 0.33811 0.49596 0.12933 0.0
C511 C 0.36318 0.54227 0.12127 0.0
H512 H 0.86952 0.89268 0.34153 0.0
H513 H 0.77427 0.76846 0.37623 0.0
H514 H 0.85234 0.7268 0.3952 0.0
H515 H 0.94732 0.72673 0.40302 0.0
H516 H 0.04299 0.84938 0.3677 0.0
H517 H 0.96479 0.89145 0.34847 0.0
C518 C 0.86578 0.85638 0.35314 0.0
C519 C 0.81602 0.83383 0.35743 0.0
C520 C 0.91082 0.83257 0.36404 0.0
C521 C 0.81202 0.78676 0.37257 0.0
C522 C 0.85664 0.76289 0.3835 0.0
C523 C 0.95107 0.76199 0.39055 0.0
C524 C 0.00073 0.78423 0.38604 0.0
C525 C 0.90616 0.78552 0.37942 0.0
C526 C 0.00501 0.83134 0.3711 0.0
C527 C 0.96043 0.85526 0.36008 0.0
H528 H 0.80493 0.15193 0.2994 0.0
H529 H 0.80649 0.01 0.25013 0.0
H530 H 0.86119 0.05258 0.2155 0.0
H531 H 0.91161 0.12842 0.19983 0.0
H532 H 0.91311 0.2702 0.24907 0.0
H533 H 0.8541 0.22948 0.28284 0.0
C534 C 0.81704 0.13043 0.28103 0.0
C535 C 0.80151 0.07777 0.2775 0.0
C536 C 0.84918 0.15506 0.26112 0.0
C537 C 0.81767 0.05053 0.25351 0.0
C538 C 0.8491 0.07483 0.23361 0.0
C539 C 0.89877 0.15067 0.21782 0.0
C540 C 0.91688 0.20223 0.22189 0.0
C541 C 0.86546 0.12686 0.23731 0.0
C542 C 0.89982 0.23037 0.24539 0.0
C543 C 0.86614 0.20707 0.26478 0.0
H544 H 0.32778 0.25052 0.52529 0.0
H545 H 0.46818 0.3417 0.5107 0.0
H546 H 0.4181 0.40556 0.48438 0.0
H547 H 0.3347 0.43738 0.46669 0.0
H548 H 0.19351 0.34734 0.48025 0.0
H549 H 0.24375 0.28112 0.50563 0.0
C550 C 0.34739 0.28425 0.51626 0.0
C551 C 0.40162 0.29136 0.52018 0.0
C552 C 0.31829 0.32113 0.50099 0.0
C553 C 0.42648 0.3352 0.50817 0.0
C554 C 0.39789 0.37189 0.49309 0.0
C555 C 0.31481 0.40324 0.47513 0.0
C556 C 0.26042 0.39748 0.47173 0.0
C557 C 0.3438 0.36551 0.48959 0.0
C558 C 0.23541 0.35272 0.48258 0.0
C559 C 0.26408 0.31491 0.49715 0.0
H560 H 0.1598 0.73732 0.72723 0.0
H561 H 0.03163 0.84843 0.72636 0.0
H562 H 0.08543 0.91289 0.75025 0.0
H563 H 0.16804 0.93802 0.77173 0.0
H564 H 0.29635 0.82751 0.77435 0.0
H565 H 0.24339 0.76274 0.7494 0.0
C566 C 0.14373 0.77565 0.73224 0.0
C567 C 0.09171 0.78787 0.72496 0.0
C568 C 0.17487 0.81276 0.74629 0.0
C569 C 0.07144 0.83773 0.73174 0.0
C570 C 0.10221 0.8748 0.74539 0.0
C571 C 0.18463 0.89986 0.76677 0.0
C572 C 0.23613 0.88771 0.77484 0.0
C573 C 0.15387 0.86274 0.75278 0.0
C574 C 0.25676 0.83788 0.7684 0.0
C575 C 0.22649 0.80082 0.75413 0.0
H576 H 0.75117 0.64936 0.98418 0.0
H577 H 0.63235 0.53154 0.96999 0.0
H578 H 0.56907 0.5831 0.9965 0.0
H579 H 0.54733 0.66091 0.02405 0.0
H580 H 0.66591 0.77831 0.03949 0.0
H581 H 0.72927 0.7276 0.01224 0.0
C582 C 0.71137 0.63511 0.98678 0.0
C583 C 0.6966 0.58666 0.97503 0.0
C584 C 0.67511 0.66477 1.00237 0.0
C585 C 0.64491 0.56861 0.97881 0.0
C586 C 0.60861 0.59808 0.99399 0.0
C587 C 0.58702 0.67553 0.02148 0.0
C588 C 0.60175 0.7234 0.03383 0.0
C589 C 0.62329 0.64608 0.00593 0.0
C590 C 0.65346 0.74154 0.03029 0.0
C591 C 0.68974 0.71259 0.01466 0.0
loop_
_geom_bond_atom_site_label_1
_geom_bond_atom_site_label_2
_geom_bond_distance
_geom_bond_site_symmetry_2
_ccdc_geom_bond_type
Co0 O3 1.970 . S
Co0 N17 1.989 . S
Co0 O25 1.967 . S
Co0 O32 1.920 . S
Co1 O4 1.966 . S
Co1 N10 2.022 . S
Co1 N18 1.993 . S
Co1 O26 1.941 . S
C2 O3 1.258 . S
C2 O4 1.263 . S
O3 Co0 1.970 . S
O3 C2 1.258 . S
O4 Co1 1.966 . S
O4 C2 1.263 . S
C5 O6 1.235 . S
C5 O32 1.289 1_655 S
O6 C5 1.235 . S
C7 C9 1.400 . S
C7 N10 1.351 . S
C7 C12 1.501 . S
C8 C9 1.387 . S
C8 N11 1.341 . S
C9 C7 1.400 . S
C9 C8 1.387 . S
N10 Co1 2.022 . S
N10 C7 1.351 . S
N10 N11 1.365 . S
N11 C8 1.341 . S
N11 N10 1.365 . S
N11 H31 0.862 . S
C12 C7 1.501 . S
C12 H13 0.961 . S
C12 H14 0.961 . S
C12 H15 0.960 . S
H13 C12 0.961 . S
H14 C12 0.961 . S
H15 C12 0.960 . S
C16 N17 1.342 . S
C16 C20 1.401 . S
C16 C21 1.499 . S
N17 Co0 1.989 . S
N17 C16 1.342 . S
N17 N18 1.388 . S
N18 Co1 1.993 . S
N18 N17 1.388 . S
N18 C19 1.346 . S
C19 N18 1.346 . S
C19 C20 1.396 . S
C19 C29 1.510 . S
C20 C16 1.401 . S
C20 C19 1.396 . S
C21 C16 1.499 . S
C21 H22 0.959 . S
C21 H23 0.960 . S
C21 H24 0.961 . S
H22 C21 0.959 . S
H23 C21 0.960 . S
H24 C21 0.961 . S
O25 Co0 1.967 . S
O25 C33 1.258 . S
O26 Co1 1.941 . S
O26 C33 1.266 . S
H27 C29 0.959 . S
H28 C29 0.961 . S
C29 C19 1.510 . S
C29 H27 0.959 . S
C29 H28 0.961 . S
C29 H30 0.960 . S
H30 C29 0.960 . S
H31 N11 0.862 . S
O32 Co0 1.920 . S
O32 C5 1.289 1_455 S
C33 O25 1.258 . S
C33 O26 1.266 . S
Co34 O37 1.970 . S
Co34 N51 1.989 . S
Co34 O59 1.967 . S
Co34 O66 1.920 . S
Co35 O38 1.966 . S
Co35 N44 2.022 . S
Co35 N52 1.993 . S
Co35 O60 1.941 . S
C36 O37 1.258 . S
C36 O38 1.263 . S
O37 Co34 1.970 . S
O37 C36 1.258 . S
O38 Co35 1.966 . S
O38 C36 1.263 . S
C39 O40 1.235 . S
C39 O66 1.289 . S
O40 C39 1.235 . S
C41 C43 1.400 1_455 S
C41 N44 1.351 . S
C41 C46 1.501 . S
C42 C43 1.387 1_455 S
C42 N45 1.341 . S
C43 C41 1.400 1_655 S
C43 C42 1.387 1_655 S
N44 Co35 2.022 . S
N44 C41 1.351 . S
N44 N45 1.365 . S
N45 C42 1.341 . S
N45 N44 1.365 . S
N45 H65 0.862 . S
C46 C41 1.501 . S
C46 H47 0.961 . S
C46 H48 0.961 1_455 S
C46 H49 0.960 . S
H47 C46 0.961 . S
H48 C46 0.961 1_655 S
H49 C46 0.960 . S
C50 N51 1.342 . S
C50 C54 1.401 . S
C50 C55 1.499 . S
N51 Co34 1.989 . S
N51 C50 1.342 . S
N51 N52 1.388 . S
N52 Co35 1.993 . S
N52 N51 1.388 . S
N52 C53 1.346 . S
C53 N52 1.346 . S
C53 C54 1.396 . S
C53 C63 1.510 . S
C54 C50 1.401 . S
C54 C53 1.396 . S
C55 C50 1.499 . S
C55 H56 0.959 . S
C55 H57 0.960 . S
C55 H58 0.961 . S
H56 C55 0.959 . S
H57 C55 0.960 . S
H58 C55 0.961 . S
O59 Co34 1.967 . S
O59 C67 1.258 . S
O60 Co35 1.941 . S
O60 C67 1.266 . S
H61 C63 0.959 . S
H62 C63 0.961 . S
C63 C53 1.510 . S
C63 H61 0.959 . S
C63 H62 0.961 . S
C63 H64 0.960 . S
H64 C63 0.960 . S
H65 N45 0.862 . S
O66 Co34 1.920 . S
O66 C39 1.289 . S
C67 O59 1.258 . S
C67 O60 1.266 . S
Co68 O71 1.970 . S
Co68 N85 1.989 . S
Co68 O93 1.967 . S
Co68 O100 1.920 . S
Co69 O72 1.966 . S
Co69 N78 2.022 . S
Co69 N86 1.993 . S
Co69 O94 1.941 . S
C70 O71 1.258 . S
C70 O72 1.263 . S
O71 Co68 1.970 . S
O71 C70 1.258 . S
O72 Co69 1.966 . S
O72 C70 1.263 . S
C73 O74 1.235 . S
C73 O100 1.289 1_455 S
O74 C73 1.235 . S
C75 C77 1.400 . S
C75 N78 1.351 . S
C75 C80 1.501 . S
C76 C77 1.387 . S
C76 N79 1.341 . S
C77 C75 1.400 . S
C77 C76 1.387 . S
N78 Co69 2.022 . S
N78 C75 1.351 . S
N78 N79 1.365 . S
N79 C76 1.341 . S
N79 N78 1.365 . S
N79 H99 0.862 . S
C80 C75 1.501 . S
C80 H81 0.961 . S
C80 H82 0.961 . S
C80 H83 0.960 . S
H81 C80 0.961 . S
H82 C80 0.961 . S
H83 C80 0.960 . S
C84 N85 1.342 . S
C84 C88 1.401 . S
C84 C89 1.499 . S
N85 Co68 1.989 . S
N85 C84 1.342 . S
N85 N86 1.388 . S
N86 Co69 1.993 . S
N86 N85 1.388 . S
N86 C87 1.346 . S
C87 N86 1.346 . S
C87 C88 1.396 . S
C87 C97 1.510 . S
C88 C84 1.401 . S
C88 C87 1.396 . S
C89 C84 1.499 . S
C89 H90 0.959 . S
C89 H91 0.960 . S
C89 H92 0.961 . S
H90 C89 0.959 . S
H91 C89 0.960 . S
H92 C89 0.961 . S
O93 Co68 1.967 . S
O93 C101 1.258 . S
O94 Co69 1.941 . S
O94 C101 1.266 . S
H95 C97 0.959 . S
H96 C97 0.961 . S
C97 C87 1.510 . S
C97 H95 0.959 . S
C97 H96 0.961 . S
C97 H98 0.960 . S
H98 C97 0.960 . S
H99 N79 0.862 . S
O100 Co68 1.920 . S
O100 C73 1.289 1_655 S
C101 O93 1.258 . S
C101 O94 1.266 . S
Co102 O105 1.970 . S
Co102 N119 1.989 . S
Co102 O127 1.967 . S
Co102 O134 1.920 . S
Co103 O106 1.966 . S
Co103 N112 2.022 . S
Co103 N120 1.993 . S
Co103 O128 1.941 . S
C104 O105 1.258 . S
C104 O106 1.263 . S
O105 Co102 1.970 . S
O105 C104 1.258 . S
O106 Co103 1.966 . S
O106 C104 1.263 . S
C107 O108 1.235 . S
C107 O134 1.289 . S
O108 C107 1.235 . S
C109 C111 1.400 1_655 S
C109 N112 1.351 . S
C109 C114 1.501 . S
C110 C111 1.387 1_655 S
C110 N113 1.341 . S
C111 C109 1.400 1_455 S
C111 C110 1.387 1_455 S
N112 Co103 2.022 . S
N112 C109 1.351 . S
N112 N113 1.365 . S
N113 C110 1.341 . S
N113 N112 1.365 . S
N113 H133 0.862 . S
C114 C109 1.501 . S
C114 H115 0.961 . S
C114 H116 0.961 1_655 S
C114 H117 0.960 . S
H115 C114 0.961 . S
H116 C114 0.961 1_455 S
H117 C114 0.960 . S
C118 N119 1.342 . S
C118 C122 1.406 . S
C118 C123 1.499 1_556 S
N119 Co102 1.989 . S
N119 C118 1.342 . S
N119 N120 1.388 . S
N120 Co103 1.993 . S
N120 N119 1.388 . S
N120 C121 1.346 . S
C121 N120 1.346 . S
C121 C122 1.412 . S
C121 C131 1.510 . S
C122 C118 1.406 . S
C122 C121 1.412 . S
C123 C118 1.499 1_554 S
C123 H124 0.946 1_554 S
C123 H125 0.960 . S
C123 H126 0.961 . S
H124 C123 0.946 1_556 S
H125 C123 0.960 . S
H126 C123 0.961 . S
O127 Co102 1.967 . S
O127 C135 1.258 . S
O128 Co103 1.941 . S
O128 C135 1.266 . S
H129 C131 0.959 . S
H130 C131 0.961 . S
C131 C121 1.510 . S
C131 H129 0.959 . S
C131 H130 0.961 . S
C131 H132 0.960 . S
H132 C131 0.960 . S
H133 N113 0.862 . S
O134 Co102 1.920 . S
O134 C107 1.289 . S
C135 O127 1.258 . S
C135 O128 1.266 . S
Co136 O139 1.970 . S
Co136 N153 1.989 . S
Co136 O161 1.967 . S
Co136 O168 1.920 . S
Co137 O140 1.966 . S
Co137 N146 2.022 . S
Co137 N154 1.993 . S
Co137 O162 1.941 . S
C138 O139 1.258 . S
C138 O140 1.263 . S
O139 Co136 1.970 . S
O139 C138 1.258 . S
O140 Co137 1.966 . S
O140 C138 1.263 . S
C141 O142 1.235 . S
C141 O168 1.289 . S
O142 C141 1.235 . S
C143 C145 1.400 1_545 S
C143 N146 1.351 . S
C143 C148 1.501 . S
C144 C145 1.387 1_545 S
C144 N147 1.341 . S
C145 C143 1.400 1_565 S
C145 C144 1.387 1_565 S
N146 Co137 2.022 . S
N146 C143 1.351 . S
N146 N147 1.365 . S
N147 C144 1.341 . S
N147 N146 1.365 . S
N147 H167 0.862 . S
C148 C143 1.501 . S
C148 H149 0.961 . S
C148 H150 0.961 1_545 S
C148 H151 0.960 . S
H149 C148 0.961 . S
H150 C148 0.961 1_565 S
H151 C148 0.960 . S
C152 N153 1.342 . S
C152 C156 1.401 . S
C152 C157 1.499 . S
N153 Co136 1.989 . S
N153 C152 1.342 . S
N153 N154 1.388 . S
N154 Co137 1.993 . S
N154 N153 1.388 . S
N154 C155 1.346 . S
C155 N154 1.346 . S
C155 C156 1.396 . S
C155 C165 1.510 . S
C156 C152 1.401 . S
C156 C155 1.396 . S
C157 C152 1.499 . S
C157 H158 0.959 . S
C157 H159 0.960 . S
C157 H160 0.961 . S
H158 C157 0.959 . S
H159 C157 0.960 . S
H160 C157 0.961 . S
O161 Co136 1.967 . S
O161 C169 1.258 . S
O162 Co137 1.941 . S
O162 C169 1.266 . S
H163 C165 0.959 . S
H164 C165 0.961 . S
C165 C155 1.510 . S
C165 H163 0.959 . S
C165 H164 0.961 . S
C165 H166 0.960 . S
H166 C165 0.960 . S
H167 N147 0.862 . S
O168 Co136 1.920 . S
O168 C141 1.289 . S
C169 O161 1.258 . S
C169 O162 1.266 . S
Co170 O173 1.970 . S
Co170 N187 1.989 . S
Co170 O195 1.967 . S
Co170 O202 1.920 . S
Co171 O174 1.966 . S
Co171 N180 2.022 . S
Co171 N188 1.993 . S
Co171 O196 1.941 . S
C172 O173 1.258 . S
C172 O174 1.263 . S
O173 Co170 1.970 . S
O173 C172 1.258 . S
O174 Co171 1.966 . S
O174 C172 1.263 . S
C175 O176 1.235 . S
C175 O202 1.289 1_565 S
O176 C175 1.235 . S
C177 C179 1.400 . S
C177 N180 1.351 . S
C177 C182 1.501 . S
C178 C179 1.387 . S
C178 N181 1.341 . S
C179 C177 1.400 . S
C179 C178 1.387 . S
N180 Co171 2.022 . S
N180 C177 1.351 . S
N180 N181 1.365 . S
N181 C178 1.341 . S
N181 N180 1.365 . S
N181 H201 0.862 . S
C182 C177 1.501 . S
C182 H183 0.961 . S
C182 H184 0.961 . S
C182 H185 0.960 . S
H183 C182 0.961 . S
H184 C182 0.961 . S
H185 C182 0.960 . S
C186 N187 1.342 . S
C186 C190 1.401 . S
C186 C191 1.499 . S
N187 Co170 1.989 . S
N187 C186 1.342 . S
N187 N188 1.388 . S
N188 Co171 1.993 . S
N188 N187 1.388 . S
N188 C189 1.346 . S
C189 N188 1.346 . S
C189 C190 1.396 . S
C189 C199 1.510 . S
C190 C186 1.401 . S
C190 C189 1.396 . S
C191 C186 1.499 . S
C191 H192 0.959 . S
C191 H193 0.960 . S
C191 H194 0.961 . S
H192 C191 0.959 . S
H193 C191 0.960 . S
H194 C191 0.961 . S
O195 Co170 1.967 . S
O195 C203 1.258 . S
O196 Co171 1.941 . S
O196 C203 1.266 . S
H197 C199 0.959 . S
H198 C199 0.961 . S
C199 C189 1.510 . S
C199 H197 0.959 . S
C199 H198 0.961 . S
C199 H200 0.960 . S
H200 C199 0.960 . S
H201 N181 0.862 . S
O202 Co170 1.920 . S
O202 C175 1.289 1_545 S
C203 O195 1.258 . S
C203 O196 1.266 . S
Co204 O207 1.970 . S
Co204 N221 1.989 . S
Co204 O229 1.967 . S
Co204 O236 1.920 . S
Co205 O208 1.966 . S
Co205 N214 2.022 . S
Co205 N222 1.993 . S
Co205 O230 1.941 . S
C206 O207 1.258 . S
C206 O208 1.263 . S
O207 Co204 1.970 . S
O207 C206 1.258 . S
O208 Co205 1.966 . S
O208 C206 1.263 . S
C209 O210 1.235 . S
C209 O236 1.289 . S
O210 C209 1.235 . S
C211 C213 1.400 1_565 S
C211 N214 1.351 . S
C211 C216 1.501 . S
C212 C213 1.387 1_565 S
C212 N215 1.341 . S
C213 C211 1.400 1_545 S
C213 C212 1.387 1_545 S
N214 Co205 2.022 . S
N214 C211 1.351 . S
N214 N215 1.365 . S
N215 C212 1.341 . S
N215 N214 1.365 . S
N215 H235 0.862 . S
C216 C211 1.501 . S
C216 H217 0.961 . S
C216 H218 0.961 1_565 S
C216 H219 0.960 . S
H217 C216 0.961 . S
H218 C216 0.961 1_545 S
H219 C216 0.960 . S
C220 N221 1.342 . S
C220 C224 1.406 . S
C220 C225 1.499 1_554 S
N221 Co204 1.989 . S
N221 C220 1.342 . S
N221 N222 1.388 . S
N222 Co205 1.993 . S
N222 N221 1.388 . S
N222 C223 1.346 . S
C223 N222 1.346 . S
C223 C224 1.412 . S
C223 C233 1.510 . S
C224 C220 1.406 . S
C224 C223 1.412 . S
C225 C220 1.499 1_556 S
C225 H226 0.946 1_556 S
C225 H227 0.960 . S
C225 H228 0.961 . S
H226 C225 0.946 1_554 S
H227 C225 0.960 . S
H228 C225 0.961 . S
O229 Co204 1.967 . S
O229 C237 1.258 . S
O230 Co205 1.941 . S
O230 C237 1.266 . S
H231 C233 0.959 . S
H232 C233 0.961 . S
C233 C223 1.510 . S
C233 H231 0.959 . S
C233 H232 0.961 . S
C233 H234 0.960 . S
H234 C233 0.960 . S
H235 N215 0.862 . S
O236 Co204 1.920 . S
O236 C209 1.289 . S
C237 O229 1.258 . S
C237 O230 1.266 . S
Co238 O241 1.970 . S
Co238 N255 1.989 . S
Co238 O263 1.967 . S
Co238 O270 1.920 . S
Co239 O242 1.966 . S
Co239 N248 2.022 . S
Co239 N256 1.993 . S
Co239 O264 1.941 . S
C240 O241 1.258 . S
C240 O242 1.263 . S
O241 Co238 1.970 . S
O241 C240 1.258 . S
O242 Co239 1.966 . S
O242 C240 1.263 . S
C243 O244 1.235 . S
C243 O270 1.289 1_545 S
O244 C243 1.235 . S
C245 C247 1.400 . S
C245 N248 1.351 . S
C245 C250 1.501 . S
C246 C247 1.387 . S
C246 N249 1.341 . S
C247 C245 1.400 . S
C247 C246 1.387 . S
N248 Co239 2.022 . S
N248 C245 1.351 . S
N248 N249 1.365 . S
N249 C246 1.341 . S
N249 N248 1.365 . S
N249 H269 0.862 . S
C250 C245 1.501 . S
C250 H251 0.961 . S
C250 H252 0.961 . S
C250 H253 0.960 . S
H251 C250 0.961 . S
H252 C250 0.961 . S
H253 C250 0.960 . S
C254 N255 1.342 . S
C254 C258 1.401 . S
C254 C259 1.499 . S
N255 Co238 1.989 . S
N255 C254 1.342 . S
N255 N256 1.388 . S
N256 Co239 1.993 . S
N256 N255 1.388 . S
N256 C257 1.346 . S
C257 N256 1.346 . S
C257 C258 1.396 . S
C257 C267 1.510 . S
C258 C254 1.401 . S
C258 C257 1.396 . S
C259 C254 1.499 . S
C259 H260 0.959 . S
C259 H261 0.960 . S
C259 H262 0.961 . S
H260 C259 0.959 . S
H261 C259 0.960 . S
H262 C259 0.961 . S
O263 Co238 1.967 . S
O263 C271 1.258 . S
O264 Co239 1.941 . S
O264 C271 1.266 . S
H265 C267 0.959 . S
H266 C267 0.961 . S
C267 C257 1.510 . S
C267 H265 0.959 . S
C267 H266 0.961 . S
C267 H268 0.960 . S
H268 C267 0.960 . S
H269 N249 0.862 . S
O270 Co238 1.920 . S
O270 C243 1.289 1_565 S
C271 O263 1.258 . S
C271 O264 1.266 . S
H272 C278 0.930 . S
H273 C281 0.930 . S
H274 C282 0.930 . S
H275 C283 0.930 . S
H276 C286 0.930 . S
H277 C287 0.930 . S
C278 H272 0.930 . S
C278 C279 1.355 . S
C278 C280 1.415 . S
C279 C278 1.355 . S
C279 C281 1.419 . S
C280 C278 1.415 . S
C280 C285 1.425 . S
C280 C287 1.409 . S
C281 H273 0.930 . S
C281 C279 1.419 . S
C281 C282 1.362 . S
C282 H274 0.930 . S
C282 C281 1.362 . S
C282 C285 1.409 . S
C283 H275 0.930 . S
C283 C284 1.355 . S
C283 C285 1.415 . S
C284 C283 1.355 . S
C284 C286 1.419 . S
C285 C280 1.425 . S
C285 C282 1.409 . S
C285 C283 1.415 . S
C286 H276 0.930 . S
C286 C284 1.419 . S
C286 C287 1.362 . S
C287 H277 0.930 . S
C287 C280 1.409 . S
C287 C286 1.362 . S
H288 C294 0.930 . S
H289 C297 0.930 . S
H290 C298 0.930 . S
H291 C299 0.930 . S
H292 C302 0.930 . S
H293 C303 0.930 . S
C294 H288 0.930 . S
C294 C295 1.355 1_455 S
C294 C296 1.415 . S
C295 C294 1.355 1_655 S
C295 C297 1.419 . S
C296 C294 1.415 . S
C296 C301 1.425 . S
C296 C303 1.409 . S
C297 H289 0.930 . S
C297 C295 1.419 . S
C297 C298 1.362 . S
C298 H290 0.930 . S
C298 C297 1.362 . S
C298 C301 1.409 1_655 S
C299 H291 0.930 . S
C299 C300 1.355 . S
C299 C301 1.415 . S
C300 C299 1.355 . S
C300 C302 1.419 . S
C301 C296 1.425 . S
C301 C298 1.409 1_455 S
C301 C299 1.415 . S
C302 H292 0.930 . S
C302 C300 1.419 . S
C302 C303 1.362 . S
C303 H293 0.930 . S
C303 C296 1.409 . S
C303 C302 1.362 . S
H304 C310 0.930 . S
H305 C313 0.930 . S
H306 C314 0.930 . S
H307 C315 0.930 . S
H308 C318 0.930 . S
H309 C319 0.930 . S
C310 H304 0.930 . S
C310 C311 1.355 . S
C310 C312 1.415 . S
C311 C310 1.355 . S
C311 C313 1.419 . S
C312 C310 1.415 . S
C312 C317 1.425 . S
C312 C319 1.409 . S
C313 H305 0.930 . S
C313 C311 1.419 . S
C313 C314 1.362 . S
C314 H306 0.930 . S
C314 C313 1.362 . S
C314 C317 1.409 . S
C315 H307 0.930 . S
C315 C316 1.355 . S
C315 C317 1.415 . S
C316 C315 1.355 . S
C316 C318 1.419 . S
C317 C312 1.425 . S
C317 C314 1.409 . S
C317 C315 1.415 . S
C318 H308 0.930 . S
C318 C316 1.419 . S
C318 C319 1.362 . S
C319 H309 0.930 . S
C319 C312 1.409 . S
C319 C318 1.362 . S
H320 C326 0.930 . S
H321 C329 0.930 . S
H322 C330 0.930 . S
H323 C331 0.930 . S
H324 C334 0.930 . S
H325 C335 0.930 . S
C326 H320 0.930 . S
C326 C327 1.355 . S
C326 C328 1.415 . S
C327 C326 1.355 . S
C327 C329 1.419 . S
C328 C326 1.415 . S
C328 C333 1.425 . S
C328 C335 1.409 1_655 S
C329 H321 0.930 . S
C329 C327 1.419 . S
C329 C330 1.362 . S
C330 H322 0.930 . S
C330 C329 1.362 . S
C330 C333 1.409 . S
C331 H323 0.930 . S
C331 C332 1.355 1_655 S
C331 C333 1.415 . S
C332 C331 1.355 1_455 S
C332 C334 1.419 . S
C333 C328 1.425 . S
C333 C330 1.409 . S
C333 C331 1.415 . S
C334 H324 0.930 . S
C334 C332 1.419 . S
C334 C335 1.362 . S
C335 H325 0.930 . S
C335 C328 1.409 1_455 S
C335 C334 1.362 . S
H336 C342 0.930 . S
H337 C345 0.930 . S
H338 C346 0.930 1_565 S
H339 C347 0.930 . S
H340 C350 0.930 . S
H341 C351 0.930 . S
C342 H336 0.930 . S
C342 C343 1.355 . S
C342 C344 1.415 . S
C343 C342 1.355 . S
C343 C345 1.419 . S
C344 C342 1.415 . S
C344 C349 1.425 . S
C344 C351 1.409 . S
C345 H337 0.930 . S
C345 C343 1.419 . S
C345 C346 1.362 . S
C346 H338 0.930 1_545 S
C346 C345 1.362 . S
C346 C349 1.409 . S
C347 H339 0.930 . S
C347 C348 1.355 . S
C347 C349 1.415 1_565 S
C348 C347 1.355 . S
C348 C350 1.419 1_565 S
C349 C344 1.425 . S
C349 C346 1.409 . S
C349 C347 1.415 1_545 S
C350 H340 0.930 . S
C350 C348 1.419 1_545 S
C350 C351 1.362 . S
C351 H341 0.930 . S
C351 C344 1.409 . S
C351 C350 1.362 . S
H352 C358 0.930 . S
H353 C361 0.930 . S
H354 C362 0.930 . S
H355 C363 0.930 . S
H356 C366 0.930 . S
H357 C367 0.930 . S
C358 H352 0.930 . S
C358 C359 1.355 . S
C358 C360 1.415 . S
C359 C358 1.355 . S
C359 C361 1.419 . S
C360 C358 1.415 . S
C360 C365 1.425 . S
C360 C367 1.409 . S
C361 H353 0.930 . S
C361 C359 1.419 . S
C361 C362 1.362 . S
C362 H354 0.930 . S
C362 C361 1.362 . S
C362 C365 1.409 . S
C363 H355 0.930 . S
C363 C364 1.355 . S
C363 C365 1.415 . S
C364 C363 1.355 . S
C364 C366 1.419 . S
C365 C360 1.425 . S
C365 C362 1.409 . S
C365 C363 1.415 . S
C366 H356 0.930 . S
C366 C364 1.419 . S
C366 C367 1.362 . S
C367 H357 0.930 . S
C367 C360 1.409 . S
C367 C366 1.362 . S
H368 C374 0.930 . S
H369 C377 0.930 . S
H370 C378 0.930 . S
H371 C379 0.930 . S
H372 C382 0.930 . S
H373 C383 0.930 1_545 S
C374 H368 0.930 . S
C374 C375 1.355 . S
C374 C376 1.415 . S
C375 C374 1.355 . S
C375 C377 1.419 . S
C376 C374 1.415 . S
C376 C381 1.425 . S
C376 C383 1.409 . S
C377 H369 0.930 . S
C377 C375 1.419 . S
C377 C378 1.362 . S
C378 H370 0.930 . S
C378 C377 1.362 . S
C378 C381 1.409 . S
C379 H371 0.930 . S
C379 C380 1.355 1_565 S
C379 C381 1.415 . S
C380 C379 1.355 1_545 S
C380 C382 1.419 . S
C381 C376 1.425 . S
C381 C378 1.409 . S
C381 C379 1.415 . S
C382 H372 0.930 . S
C382 C380 1.419 . S
C382 C383 1.362 1_545 S
C383 H373 0.930 1_565 S
C383 C376 1.409 . S
C383 C382 1.362 1_565 S
H384 C390 0.930 . S
H385 C393 0.930 . S
H386 C394 0.930 . S
H387 C395 0.930 . S
H388 C398 0.930 . S
H389 C399 0.930 . S
C390 H384 0.930 . S
C390 C391 1.355 . S
C390 C392 1.415 . S
C391 C390 1.355 . S
C391 C393 1.419 . S
C392 C390 1.415 . S
C392 C397 1.425 . S
C392 C399 1.409 . S
C393 H385 0.930 . S
C393 C391 1.419 . S
C393 C394 1.362 . S
C394 H386 0.930 . S
C394 C393 1.362 . S
C394 C397 1.409 . S
C395 H387 0.930 . S
C395 C396 1.355 . S
C395 C397 1.415 . S
C396 C395 1.355 . S
C396 C398 1.419 . S
C397 C392 1.425 . S
C397 C394 1.409 . S
C397 C395 1.415 . S
C398 H388 0.930 . S
C398 C396 1.419 . S
C398 C399 1.362 . S
C399 H389 0.930 . S
C399 C392 1.409 . S
C399 C398 1.362 . S
H400 C406 0.930 . S
H401 C409 0.930 . S
H402 C410 0.930 . S
H403 C411 0.930 . S
H404 C414 0.930 . S
H405 C415 0.930 . S
C406 H400 0.930 . S
C406 C407 1.355 . S
C406 C408 1.415 . S
C407 C406 1.355 . S
C407 C409 1.419 . S
C408 C406 1.415 . S
C408 C413 1.425 . S
C408 C415 1.409 . S
C409 H401 0.930 . S
C409 C407 1.419 . S
C409 C410 1.362 . S
C410 H402 0.930 . S
C410 C409 1.362 . S
C410 C413 1.409 . S
C411 H403 0.930 . S
C411 C412 1.355 . S
C411 C413 1.415 . S
C412 C411 1.355 . S
C412 C414 1.419 . S
C413 C408 1.425 . S
C413 C410 1.409 . S
C413 C411 1.415 . S
C414 H404 0.930 . S
C414 C412 1.419 . S
C414 C415 1.362 . S
C415 H405 0.930 . S
C415 C408 1.409 . S
C415 C414 1.362 . S
H416 C422 0.930 . S
H417 C425 0.930 . S
H418 C426 0.930 . S
H419 C427 0.930 . S
H420 C430 0.930 . S
H421 C431 0.930 . S
C422 H416 0.930 . S
C422 C423 1.355 . S
C422 C424 1.415 . S
C423 C422 1.355 . S
C423 C425 1.419 . S
C424 C422 1.415 . S
C424 C429 1.425 . S
C424 C431 1.409 . S
C425 H417 0.930 . S
C425 C423 1.419 . S
C425 C426 1.362 . S
C426 H418 0.930 . S
C426 C425 1.362 . S
C426 C429 1.409 . S
C427 H419 0.930 . S
C427 C428 1.355 . S
C427 C429 1.415 . S
C428 C427 1.355 . S
C428 C430 1.419 . S
C429 C424 1.425 . S
C429 C426 1.409 . S
C429 C427 1.415 . S
C430 H420 0.930 . S
C430 C428 1.419 . S
C430 C431 1.362 . S
C431 H421 0.930 . S
C431 C424 1.409 . S
C431 C430 1.362 . S
H432 C438 0.930 . S
H433 C441 0.930 . S
H434 C442 0.930 . S
H435 C443 0.930 . S
H436 C446 0.930 . S
H437 C447 0.930 . S
C438 H432 0.930 . S
C438 C439 1.355 . S
C438 C440 1.415 . S
C439 C438 1.355 . S
C439 C441 1.419 . S
C440 C438 1.415 . S
C440 C445 1.425 . S
C440 C447 1.409 . S
C441 H433 0.930 . S
C441 C439 1.419 . S
C441 C442 1.362 . S
C442 H434 0.930 . S
C442 C441 1.362 . S
C442 C445 1.409 . S
C443 H435 0.930 . S
C443 C444 1.355 . S
C443 C445 1.415 . S
C444 C443 1.355 . S
C444 C446 1.419 . S
C445 C440 1.425 . S
C445 C442 1.409 . S
C445 C443 1.415 . S
C446 H436 0.930 . S
C446 C444 1.419 . S
C446 C447 1.362 . S
C447 H437 0.930 . S
C447 C440 1.409 . S
C447 C446 1.362 . S
H448 C454 0.930 . S
H449 C457 0.930 . S
H450 C458 0.930 . S
H451 C459 0.930 . S
H452 C462 0.930 . S
H453 C463 0.930 . S
C454 H448 0.930 . S
C454 C455 1.355 . S
C454 C456 1.415 . S
C455 C454 1.355 . S
C455 C457 1.419 . S
C456 C454 1.415 . S
C456 C461 1.425 . S
C456 C463 1.409 . S
C457 H449 0.930 . S
C457 C455 1.419 . S
C457 C458 1.362 . S
C458 H450 0.930 . S
C458 C457 1.362 . S
C458 C461 1.409 . S
C459 H451 0.930 . S
C459 C460 1.355 . S
C459 C461 1.415 . S
C460 C459 1.355 . S
C460 C462 1.419 . S
C461 C456 1.425 . S
C461 C458 1.409 . S
C461 C459 1.415 . S
C462 H452 0.930 . S
C462 C460 1.419 . S
C462 C463 1.362 . S
C463 H453 0.930 . S
C463 C456 1.409 . S
C463 C462 1.362 . S
H464 C470 0.930 . S
H465 C473 0.930 . S
H466 C474 0.930 . S
H467 C475 0.930 . S
H468 C478 0.930 . S
H469 C479 0.930 . S
C470 H464 0.930 . S
C470 C471 1.355 . S
C470 C472 1.415 . S
C471 C470 1.355 . S
C471 C473 1.419 . S
C472 C470 1.415 . S
C472 C477 1.425 . S
C472 C479 1.409 . S
C473 H465 0.930 . S
C473 C471 1.419 . S
C473 C474 1.362 . S
C474 H466 0.930 . S
C474 C473 1.362 . S
C474 C477 1.409 . S
C475 H467 0.930 . S
C475 C476 1.355 . S
C475 C477 1.415 . S
C476 C475 1.355 . S
C476 C478 1.419 . S
C477 C472 1.425 . S
C477 C474 1.409 . S
C477 C475 1.415 . S
C478 H468 0.930 . S
C478 C476 1.419 . S
C478 C479 1.362 . S
C479 H469 0.930 . S
C479 C472 1.409 . S
C479 C478 1.362 . S
H480 C486 0.930 . S
H481 C489 0.930 . S
H482 C490 0.930 . S
H483 C491 0.930 . S
H484 C494 0.930 . S
H485 C495 0.930 . S
C486 H480 0.930 . S
C486 C487 1.355 . S
C486 C488 1.415 . S
C487 C486 1.355 . S
C487 C489 1.419 . S
C488 C486 1.415 . S
C488 C493 1.425 . S
C488 C495 1.409 . S
C489 H481 0.930 . S
C489 C487 1.419 . S
C489 C490 1.362 . S
C490 H482 0.930 . S
C490 C489 1.362 . S
C490 C493 1.409 . S
C491 H483 0.930 . S
C491 C492 1.355 . S
C491 C493 1.415 . S
C492 C491 1.355 . S
C492 C494 1.419 . S
C493 C488 1.425 . S
C493 C490 1.409 . S
C493 C491 1.415 . S
C494 H484 0.930 . S
C494 C492 1.419 . S
C494 C495 1.362 . S
C495 H485 0.930 . S
C495 C488 1.409 . S
C495 C494 1.362 . S
H496 C502 0.930 . S
H497 C505 0.930 . S
H498 C506 0.930 . S
H499 C507 0.930 . S
H500 C510 0.930 . S
H501 C511 0.930 . S
C502 H496 0.930 . S
C502 C503 1.355 . S
C502 C504 1.415 . S
C503 C502 1.355 . S
C503 C505 1.419 . S
C504 C502 1.415 . S
C504 C509 1.425 . S
C504 C511 1.409 . S
C505 H497 0.930 . S
C505 C503 1.419 . S
C505 C506 1.362 . S
C506 H498 0.930 . S
C506 C505 1.362 . S
C506 C509 1.409 . S
C507 H499 0.930 . S
C507 C508 1.355 . S
C507 C509 1.415 . S
C508 C507 1.355 . S
C508 C510 1.419 . S
C509 C504 1.425 . S
C509 C506 1.409 . S
C509 C507 1.415 . S
C510 H500 0.930 . S
C510 C508 1.419 . S
C510 C511 1.362 . S
C511 H501 0.930 . S
C511 C504 1.409 . S
C511 C510 1.362 . S
H512 C518 0.930 . S
H513 C521 0.930 . S
H514 C522 0.930 . S
H515 C523 0.930 . S
H516 C526 0.930 . S
H517 C527 0.930 . S
C518 H512 0.930 . S
C518 C519 1.355 . S
C518 C520 1.415 . S
C519 C518 1.355 . S
C519 C521 1.419 . S
C520 C518 1.415 . S
C520 C525 1.425 . S
C520 C527 1.409 . S
C521 H513 0.930 . S
C521 C519 1.419 . S
C521 C522 1.362 . S
C522 H514 0.930 . S
C522 C521 1.362 . S
C522 C525 1.409 . S
C523 H515 0.930 . S
C523 C524 1.355 . S
C523 C525 1.415 . S
C524 C523 1.355 . S
C524 C526 1.419 . S
C525 C520 1.425 . S
C525 C522 1.409 . S
C525 C523 1.415 . S
C526 H516 0.930 . S
C526 C524 1.419 . S
C526 C527 1.362 . S
C527 H517 0.930 . S
C527 C520 1.409 . S
C527 C526 1.362 . S
H528 C534 0.930 . S
H529 C537 0.930 . S
H530 C538 0.930 . S
H531 C539 0.930 . S
H532 C542 0.930 . S
H533 C543 0.930 . S
C534 H528 0.930 . S
C534 C535 1.355 . S
C534 C536 1.415 . S
C535 C534 1.355 . S
C535 C537 1.419 . S
C536 C534 1.415 . S
C536 C541 1.425 . S
C536 C543 1.409 . S
C537 H529 0.930 . S
C537 C535 1.419 . S
C537 C538 1.362 . S
C538 H530 0.930 . S
C538 C537 1.362 . S
C538 C541 1.409 . S
C539 H531 0.930 . S
C539 C540 1.355 . S
C539 C541 1.415 . S
C540 C539 1.355 . S
C540 C542 1.419 . S
C541 C536 1.425 . S
C541 C538 1.409 . S
C541 C539 1.415 . S
C542 H532 0.930 . S
C542 C540 1.419 . S
C542 C543 1.362 . S
C543 H533 0.930 . S
C543 C536 1.409 . S
C543 C542 1.362 . S
H544 C550 0.930 . S
H545 C553 0.930 . S
H546 C554 0.930 . S
H547 C555 0.930 . S
H548 C558 0.930 . S
H549 C559 0.930 . S
C550 H544 0.930 . S
C550 C551 1.355 . S
C550 C552 1.415 . S
C551 C550 1.355 . S
C551 C553 1.419 . S
C552 C550 1.415 . S
C552 C557 1.425 . S
C552 C559 1.409 . S
C553 H545 0.930 . S
C553 C551 1.419 . S
C553 C554 1.362 . S
C554 H546 0.930 . S
C554 C553 1.362 . S
C554 C557 1.409 . S
C555 H547 0.930 . S
C555 C556 1.355 . S
C555 C557 1.415 . S
C556 C555 1.355 . S
C556 C558 1.419 . S
C557 C552 1.425 . S
C557 C554 1.409 . S
C557 C555 1.415 . S
C558 H548 0.930 . S
C558 C556 1.419 . S
C558 C559 1.362 . S
C559 H549 0.930 . S
C559 C552 1.409 . S
C559 C558 1.362 . S
H560 C566 0.930 . S
H561 C569 0.930 . S
H562 C570 0.930 . S
H563 C571 0.930 . S
H564 C574 0.930 . S
H565 C575 0.930 . S
C566 H560 0.930 . S
C566 C567 1.355 . S
C566 C568 1.415 . S
C567 C566 1.355 . S
C567 C569 1.419 . S
C568 C566 1.415 . S
C568 C573 1.425 . S
C568 C575 1.409 . S
C569 H561 0.930 . S
C569 C567 1.419 . S
C569 C570 1.362 . S
C570 H562 0.930 . S
C570 C569 1.362 . S
C570 C573 1.409 . S
C571 H563 0.930 . S
C571 C572 1.355 . S
C571 C573 1.415 . S
C572 C571 1.355 . S
C572 C574 1.419 . S
C573 C568 1.425 . S
C573 C570 1.409 . S
C573 C571 1.415 . S
C574 H564 0.930 . S
C574 C572 1.419 . S
C574 C575 1.362 . S
C575 H565 0.930 . S
C575 C568 1.409 . S
C575 C574 1.362 . S
H576 C582 0.930 1_554 S
H577 C585 0.930 . S
H578 C586 0.930 . S
H579 C587 0.930 1_556 S
H580 C590 0.930 . S
H581 C591 0.930 . S
C582 H576 0.930 1_556 S
C582 C583 1.355 . S
C582 C584 1.415 1_556 S
C583 C582 1.355 . S
C583 C585 1.419 . S
C584 C582 1.415 1_554 S
C584 C589 1.425 1_554 S
C584 C591 1.409 . S
C585 H577 0.930 . S
C585 C583 1.419 . S
C585 C586 1.362 . S
C586 H578 0.930 . S
C586 C585 1.362 . S
C586 C589 1.409 . S
C587 H579 0.930 1_554 S
C587 C588 1.355 . S
C587 C589 1.415 1_554 S
C588 C587 1.355 . S
C588 C590 1.419 . S
C589 C584 1.425 1_556 S
C589 C586 1.409 . S
C589 C587 1.415 1_556 S
C590 H580 0.930 . S
C590 C588 1.419 . S
C590 C591 1.362 . S
C591 H581 0.930 . S
C591 C584 1.409 . S
C591 C590 1.362 . S
C279 C20 1.326 . S
C284 C36 1.326 . S
C295 C70 1.326 . S
C300 C54 1.335 . S
C311 C104 1.327 . S
C316 C88 1.334 . S
C327 C122 1.317 1_554 S
C332 C2 1.326 . S
C343 C156 1.318 . S
C348 C240 1.330 . S
C359 C190 1.334 . S
C364 C138 1.327 . S
C375 C224 1.313 1_556 S
C380 C172 1.329 . S
C391 C258 1.334 . S
C396 C206 1.324 . S
C407 C213 1.401 . S
C412 C33 1.401 . S
C423 C247 1.371 . S
C428 C67 1.388 . S
C439 C145 1.400 . S
C444 C101 1.401 . S
C455 C179 1.333 . S
C460 C135 1.398 . S
C471 C169 1.394 . S
C476 C77 1.399 . S
C487 C203 1.409 . S
C492 C111 1.391 . S
C503 C237 1.415 . S
C508 C9 1.367 . S
C519 C271 1.396 . S
C524 C43 1.337 . S
C535 C243 1.639 . S
C540 C5 1.649 . S
C551 C141 1.646 . S
C556 C39 1.642 . S
C567 C73 1.647 . S
C572 C175 1.641 . S
C583 C107 1.661 . S
C588 C209 1.637 . S
