# Generated by pormake.
# Topology uku, (4)-cn, num edge types: 1
# Building blocks:
#     Node 0, Type 0, BuildingBlock: CEKHIL_clean_sbu_0, # of connection points: 4
#     Node 1, Type 0, BuildingBlock: CEKHIL_clean_sbu_0, # of connection points: 4
#     Node 2, Type 0, BuildingBlock: CEKHIL_clean_sbu_0, # of connection points: 4
#     Node 3, Type 0, BuildingBlock: CEKHIL_clean_sbu_0, # of connection points: 4
#     Node 4, Type 0, BuildingBlock: CEKHIL_clean_sbu_0, # of connection points: 4
#     Node 5, Type 0, BuildingBlock: CEKHIL_clean_sbu_0, # of connection points: 4
#     Node 6, Type 0, BuildingBlock: CEKHIL_clean_sbu_0, # of connection points: 4
#     Node 7, Type 0, BuildingBlock: CEKHIL_clean_sbu_0, # of connection points: 4
#     Node 8, Type 0, BuildingBlock: CEKHIL_clean_sbu_0, # of connection points: 4
#     Node 9, Type 0, BuildingBlock: CEKHIL_clean_sbu_0, # of connection points: 4
#     Node 10, Type 0, BuildingBlock: CEKHIL_clean_sbu_0, # of connection points: 4
#     Node 11, Type 0, BuildingBlock: CEKHIL_clean_sbu_0, # of connection points: 4
#     Edge 12, Type (0, 0), BuildingBlock: ZUJKAS_clean_linker_0, # of connection points: 2
#     Edge 13, Type (0, 0), BuildingBlock: ZUJKAS_clean_linker_0, # of connection points: 2
#     Edge 14, Type (0, 0), BuildingBlock: ZUJKAS_clean_linker_0, # of connection points: 2
#     Edge 15, Type (0, 0), BuildingBlock: ZUJKAS_clean_linker_0, # of connection points: 2
#     Edge 16, Type (0, 0), BuildingBlock: ZUJKAS_clean_linker_0, # of connection points: 2
#     Edge 17, Type (0, 0), BuildingBlock: ZUJKAS_clean_linker_0, # of connection points: 2
#     Edge 18, Type (0, 0), BuildingBlock: ZUJKAS_clean_linker_0, # of connection points: 2
#     Edge 19, Type (0, 0), BuildingBlock: ZUJKAS_clean_linker_0, # of connection points: 2
#     Edge 20, Type (0, 0), BuildingBlock: ZUJKAS_clean_linker_0, # of connection points: 2
#     Edge 21, Type (0, 0), BuildingBlock: ZUJKAS_clean_linker_0, # of connection points: 2
#     Edge 22, Type (0, 0), BuildingBlock: ZUJKAS_clean_linker_0, # of connection points: 2
#     Edge 23, Type (0, 0), BuildingBlock: ZUJKAS_clean_linker_0, # of connection points: 2
#     Edge 24, Type (0, 0), BuildingBlock: ZUJKAS_clean_linker_0, # of connection points: 2
#     Edge 25, Type (0, 0), BuildingBlock: ZUJKAS_clean_linker_0, # of connection points: 2
#     Edge 26, Type (0, 0), BuildingBlock: ZUJKAS_clean_linker_0, # of connection points: 2
#     Edge 27, Type (0, 0), BuildingBlock: ZUJKAS_clean_linker_0, # of connection points: 2
#     Edge 28, Type (0, 0), BuildingBlock: ZUJKAS_clean_linker_0, # of connection points: 2
#     Edge 29, Type (0, 0), BuildingBlock: ZUJKAS_clean_linker_0, # of connection points: 2
#     Edge 30, Type (0, 0), BuildingBlock: ZUJKAS_clean_linker_0, # of connection points: 2
#     Edge 31, Type (0, 0), BuildingBlock: ZUJKAS_clean_linker_0, # of connection points: 2
#     Edge 32, Type (0, 0), BuildingBlock: ZUJKAS_clean_linker_0, # of connection points: 2
#     Edge 33, Type (0, 0), BuildingBlock: ZUJKAS_clean_linker_0, # of connection points: 2
#     Edge 34, Type (0, 0), BuildingBlock: ZUJKAS_clean_linker_0, # of connection points: 2
#     Edge 35, Type (0, 0), BuildingBlock: ZUJKAS_clean_linker_0, # of connection points: 2
# Relax obj value: 0.371
# Max RMSD: 0.261
# Mean RMSD: 0.261
data_MOF--net-uku--node1-CEKHIL_clean_sbu_0--edge1-ZUJKAS_clean_linker_0
_symmetry_space_group_name_H-M    P1
_symmetry_Int_Tables_number       1
_symmetry_cell_setting            triclinic
loop_
_symmetry_equiv_pos_as_xyz
'x, y, z'
_cell_length_a     53.183538
_cell_length_b     53.246153
_cell_length_c     53.235842
_cell_angle_alpha  89.859279
_cell_angle_beta   89.773172
_cell_angle_gamma 90.091402
loop_
_atom_site_label
_atom_site_type_symbol
_atom_site_fract_x
_atom_site_fract_y
_atom_site_fract_z
_atom_type_partial_charge
Co0 Co 0.02962 0.16794 0.65943 0.0
O1 O 0.00024 0.17796 0.64082 0.0
O2 O 0.03538 0.16248 0.62441 0.0
C3 C 0.0329 0.20146 0.68485 0.0
O4 O 0.06376 0.15629 0.6715 0.0
Co5 Co 0.02787 0.15772 0.71687 0.0
O6 O 0.06512 0.15936 0.71358 0.0
C7 C 0.00882 0.11932 0.68186 0.0
C8 C 0.01282 0.1711 0.62099 0.0
C9 C 0.07575 0.15604 0.69235 0.0
O10 O 0.01602 0.13283 0.6631 0.0
O11 O 0.01027 0.12667 0.7047 0.0
O12 O 0.04106 0.20267 0.66182 0.0
O13 O 0.02017 0.18152 0.69047 0.0
Co14 Co 0.93356 0.81414 0.6491 0.0
O15 O 0.95742 0.80645 0.62324 0.0
O16 O 0.92206 0.82801 0.61788 0.0
C17 C 0.931 0.77659 0.66785 0.0
O18 O 0.90418 0.82492 0.6709 0.0
Co19 Co 0.94961 0.81286 0.70492 0.0
O20 O 0.91301 0.81694 0.71139 0.0
C21 C 0.96451 0.85586 0.6739 0.0
C22 C 0.94279 0.81915 0.60841 0.0
C23 C 0.89781 0.82369 0.6942 0.0
O24 O 0.95146 0.84658 0.65596 0.0
O25 O 0.96775 0.84451 0.69485 0.0
O26 O 0.91889 0.78081 0.64708 0.0
O27 O 0.94726 0.79359 0.67403 0.0
Co28 Co 0.0588 0.80992 0.33 0.0
O29 O 0.03239 0.80419 0.3538 0.0
O30 O 0.06708 0.8264 0.36098 0.0
C31 C 0.06285 0.77091 0.31508 0.0
O32 O 0.09026 0.81882 0.31029 0.0
Co33 Co 0.04797 0.80385 0.27326 0.0
O34 O 0.08534 0.80507 0.27069 0.0
C35 C 0.02984 0.84875 0.29896 0.0
C36 C 0.04548 0.81803 0.36898 0.0
C37 C 0.09895 0.81386 0.28829 0.0
O38 O 0.04196 0.84157 0.31847 0.0
O39 O 0.02788 0.83537 0.27912 0.0
O40 O 0.07301 0.77692 0.33643 0.0
O41 O 0.04744 0.78729 0.30587 0.0
Co42 Co 0.93521 0.15453 0.32347 0.0
O43 O 0.96086 0.15916 0.34841 0.0
O44 O 0.92236 0.14465 0.35571 0.0
C45 C 0.93881 0.19174 0.30379 0.0
O46 O 0.9034 0.14848 0.30367 0.0
Co47 Co 0.94709 0.15279 0.26641 0.0
O48 O 0.91009 0.15706 0.26285 0.0
C49 C 0.95791 0.10862 0.29793 0.0
C50 C 0.94407 0.15143 0.36451 0.0
C51 C 0.89541 0.15228 0.28124 0.0
O52 O 0.94694 0.11922 0.31668 0.0
O53 O 0.96185 0.11965 0.27687 0.0
O54 O 0.92678 0.18998 0.325 0.0
O55 O 0.95115 0.17188 0.29714 0.0
Co56 Co 0.63751 0.06591 0.17617 0.0
O57 O 0.61021 0.04416 0.18487 0.0
O58 O 0.60774 0.07742 0.15958 0.0
C59 C 0.65474 0.07115 0.21398 0.0
O60 O 0.66111 0.09301 0.16364 0.0
Co61 Co 0.69235 0.04754 0.18124 0.0
O62 O 0.70103 0.08296 0.17297 0.0
C63 C 0.66253 0.02968 0.1389 0.0
C64 C 0.59697 0.05788 0.16963 0.0
C65 C 0.68466 0.09829 0.16462 0.0
O66 O 0.64499 0.04464 0.14594 0.0
O67 O 0.68274 0.02651 0.15146 0.0
O68 O 0.63479 0.08385 0.20781 0.0
O69 O 0.66073 0.05302 0.19896 0.0
Co70 Co 0.33939 0.91856 0.15337 0.0
O71 O 0.36536 0.94235 0.1601 0.0
O72 O 0.36984 0.90768 0.13719 0.0
C73 C 0.32339 0.91515 0.19217 0.0
O74 O 0.31748 0.88917 0.14361 0.0
Co75 Co 0.28335 0.93314 0.15913 0.0
O76 O 0.27744 0.89649 0.1551 0.0
C77 C 0.31114 0.95033 0.11459 0.0
C78 C 0.37966 0.92799 0.14647 0.0
C79 C 0.29463 0.88198 0.14685 0.0
O80 O 0.33002 0.93724 0.12188 0.0
O81 O 0.29107 0.95275 0.12771 0.0
O82 O 0.34382 0.90313 0.18617 0.0
O83 O 0.31574 0.93149 0.17588 0.0
Co84 Co 0.65616 0.93689 0.83345 0.0
O85 O 0.63456 0.96403 0.82365 0.0
O86 O 0.62189 0.92807 0.84087 0.0
C87 C 0.68021 0.93544 0.79881 0.0
O88 O 0.67238 0.90429 0.84457 0.0
Co89 Co 0.71325 0.9455 0.84153 0.0
O90 O 0.71444 0.90824 0.84286 0.0
C91 C 0.67769 0.96148 0.88068 0.0
C92 C 0.6162 0.94994 0.83163 0.0
C93 C 0.69464 0.89499 0.84572 0.0
O94 O 0.65971 0.95136 0.86818 0.0
O95 O 0.70028 0.96289 0.8724 0.0
O96 O 0.658 0.92522 0.79894 0.0
O97 O 0.68553 0.94905 0.81819 0.0
Co98 Co 0.32208 0.0499 0.81108 0.0
O99 O 0.34435 0.02286 0.80227 0.0
O100 O 0.35555 0.05819 0.82139 0.0
C101 C 0.30087 0.05235 0.77479 0.0
O102 O 0.30539 0.08221 0.82221 0.0
Co103 Co 0.26441 0.04266 0.81462 0.0
O104 O 0.26378 0.08001 0.81562 0.0
C105 C 0.2963 0.02482 0.85609 0.0
C106 C 0.36192 0.03644 0.81241 0.0
C107 C 0.28351 0.09235 0.82128 0.0
O108 O 0.31559 0.03431 0.84495 0.0
O109 O 0.2743 0.02471 0.84638 0.0
O110 O 0.32294 0.06271 0.77678 0.0
O111 O 0.29396 0.03841 0.79352 0.0
Co112 Co 0.15658 0.6453 0.05079 0.0
O113 O 0.15745 0.62109 0.02442 0.0
O114 O 0.14275 0.61426 0.06308 0.0
C115 C 0.19523 0.66116 0.04617 0.0
O116 O 0.15387 0.66525 0.08302 0.0
Co117 Co 0.15919 0.70206 0.03856 0.0
O118 O 0.16319 0.7058 0.0755 0.0
C119 C 0.11266 0.67459 0.02845 0.0
C120 C 0.14683 0.60598 0.04048 0.0
C121 C 0.1586 0.68768 0.09054 0.0
O122 O 0.12197 0.65568 0.04015 0.0
O123 O 0.12521 0.6946 0.02387 0.0
O124 O 0.19197 0.63996 0.05797 0.0
O125 O 0.17575 0.66974 0.0345 0.0
Co126 Co 0.17473 0.33711 0.93166 0.0
O127 O 0.17994 0.36465 0.95415 0.0
O128 O 0.15706 0.36577 0.91922 0.0
C129 C 0.21397 0.32234 0.92877 0.0
O130 O 0.16544 0.3135 0.9036 0.0
Co131 Co 0.18207 0.28219 0.94896 0.0
O132 O 0.17492 0.2736 0.91334 0.0
C133 C 0.13658 0.30884 0.96454 0.0
C134 C 0.16481 0.37695 0.93942 0.0
C135 C 0.16693 0.29014 0.89799 0.0
O136 O 0.14365 0.32736 0.95077 0.0
O137 O 0.15009 0.28927 0.96792 0.0
O138 O 0.20739 0.34207 0.91589 0.0
O139 O 0.19805 0.31501 0.94572 0.0
Co140 Co 0.81215 0.645 0.92717 0.0
O141 O 0.80818 0.61842 0.95115 0.0
O142 O 0.82728 0.61509 0.91405 0.0
C143 C 0.77325 0.66085 0.92847 0.0
O144 O 0.81903 0.66755 0.89729 0.0
Co145 Co 0.80813 0.70069 0.94309 0.0
O146 O 0.8099 0.7077 0.90639 0.0
C147 C 0.85336 0.67229 0.95625 0.0
C148 C 0.82085 0.60481 0.9353 0.0
C149 C 0.81625 0.69065 0.89086 0.0
O150 O 0.84525 0.65414 0.94268 0.0
O151 O 0.84046 0.6921 0.96056 0.0
O152 O 0.77783 0.64075 0.91536 0.0
O153 O 0.79125 0.66822 0.94297 0.0
Co154 Co 0.82896 0.32624 0.04156 0.0
O155 O 0.82441 0.3494 0.01444 0.0
O156 O 0.84216 0.35837 0.05113 0.0
C157 C 0.79091 0.30834 0.04154 0.0
O158 O 0.83603 0.30761 0.07404 0.0
Co159 Co 0.82815 0.26899 0.03162 0.0
O160 O 0.82802 0.26651 0.06889 0.0
C161 C 0.87308 0.29786 0.0179 0.0
C162 C 0.83574 0.3656 0.02871 0.0
C163 C 0.83357 0.28519 0.08275 0.0
O164 O 0.86298 0.31717 0.02812 0.0
O165 O 0.86162 0.27683 0.01566 0.0
O166 O 0.79417 0.3301 0.05212 0.0
O167 O 0.80963 0.30025 0.02826 0.0
H168 H 0.91007 0.14345 0.40216 0.0
H169 H 0.9164 0.14973 0.44718 0.0
H170 H -0.00563 0.16777 0.43347 0.0
H171 H 0.98807 0.16214 0.38837 0.0
H172 H 0.94753 0.12685 0.48045 0.0
H173 H 0.97081 0.22798 0.47365 0.0
H174 H 0.9573 0.21069 0.44787 0.0
H175 H -0.00942 0.20925 0.45381 0.0
C176 C 0.92861 0.14863 0.40875 0.0
C177 C 0.94856 0.1525 0.39176 0.0
C178 C 0.93214 0.15228 0.43444 0.0
C179 C 0.95566 0.15985 0.44352 0.0
C180 C 0.97587 0.16268 0.42671 0.0
H181 H 0.03724 0.16401 0.57675 0.0
H182 H 0.01923 0.16344 0.53467 0.0
C183 C 0.97232 0.15921 0.40101 0.0
C184 C 0.9593 0.16436 0.47062 0.0
H185 H 0.98241 0.20721 0.51217 0.0
C186 C 0.9547 0.14456 0.48748 0.0
C187 C 0.96829 0.18764 0.47975 0.0
C188 C 0.97177 0.21018 0.46284 0.0
C189 C 0.96041 0.14694 0.51304 0.0
C190 C 0.97097 0.16961 0.52175 0.0
C191 C 0.97438 0.18983 0.50523 0.0
C192 C 0.98139 0.17149 0.54719 0.0
C193 C 0.95634 0.12491 0.53045 0.0
C194 C 0.96594 0.17656 0.56795 0.0
C195 C 0.9762 0.17702 0.5921 0.0
C196 C 0.00195 0.17224 0.59563 0.0
C197 C 0.01733 0.16764 0.57463 0.0
C198 C 0.00712 0.16736 0.55061 0.0
H199 H 0.94755 0.10866 0.52078 0.0
H200 H 0.97463 0.11887 0.53843 0.0
H201 H 0.94408 0.13061 0.54636 0.0
H202 H 0.946 0.1798 0.56547 0.0
H203 H 0.96393 0.18059 0.60798 0.0
H204 H 0.00939 0.79384 0.3956 0.0
H205 H 0.99021 0.8069 0.43503 0.0
H206 H 0.03793 0.87256 0.43643 0.0
H207 H 0.05804 0.85887 0.39723 0.0
H208 H 0.03651 0.85231 0.48051 0.0
H209 H 0.93872 0.85908 0.44892 0.0
H210 H 0.95023 0.82877 0.44015 0.0
H211 H 0.96458 0.85663 0.42698 0.0
C212 C 0.01579 0.81106 0.40431 0.0
C213 C 0.03513 0.82538 0.39346 0.0
C214 C 0.00456 0.81872 0.42663 0.0
C215 C 0.01198 0.8412 0.43817 0.0
C216 C 0.03164 0.85537 0.42759 0.0
H217 H 0.92426 0.85592 0.57781 0.0
H218 H 0.94103 0.86897 0.53681 0.0
C219 C 0.04322 0.84745 0.40537 0.0
C220 C 0.00049 0.84832 0.46243 0.0
H221 H 0.94426 0.84565 0.49318 0.0
C222 C 0.0163 0.85159 0.48319 0.0
C223 C 0.9741 0.84849 0.46594 0.0
C224 C 0.95601 0.84838 0.44418 0.0
C225 C 0.00649 0.85195 0.50761 0.0
C226 C 0.98042 0.84796 0.51122 0.0
C227 C 0.96436 0.8478 0.4904 0.0
C228 C 0.97012 0.84059 0.53594 0.0
C229 C 0.02428 0.85553 0.52931 0.0
C230 C 0.98034 0.81978 0.54847 0.0
C231 C 0.97094 0.8124 0.57176 0.0
C232 C 0.95079 0.82537 0.5827 0.0
C233 C 0.93979 0.84555 0.56969 0.0
C234 C 0.94943 0.85313 0.54642 0.0
H235 H 0.04017 0.868 0.52387 0.0
H236 H 0.0146 0.86371 0.54589 0.0
H237 H 0.03235 0.83709 0.53472 0.0
H238 H -0.00434 0.80922 0.54022 0.0
H239 H 0.9796 0.79664 0.58128 0.0
H240 H 0.4058 0.92033 0.10294 0.0
H241 H 0.44639 0.93974 0.09142 0.0
H242 H 0.45142 0.97196 0.16551 0.0
H243 H 0.41099 0.95332 0.17682 0.0
H244 H 0.45188 0.00474 0.11292 0.0
H245 H 0.52255 0.92955 0.12859 0.0
H246 H 0.49175 0.92336 0.11563 0.0
H247 H 0.49513 0.92928 0.14861 0.0
C248 C 0.41596 0.93113 0.11683 0.0
C249 C 0.40545 0.93559 0.14068 0.0
C250 C 0.43893 0.9422 0.11021 0.0
C251 C 0.45154 0.95727 0.12764 0.0
C252 C 0.44172 0.9604 0.15187 0.0
H253 H 0.56418 0.02757 0.19423 0.0
H254 H 0.52924 0.00444 0.17567 0.0
C255 C 0.41873 0.9498 0.1583 0.0
C256 C 0.47394 0.97185 0.12083 0.0
H257 H 0.53632 0.97191 0.13422 0.0
C258 C 0.47063 -0.00238 0.11654 0.0
C259 C 0.4981 0.96221 0.12547 0.0
C260 C 0.50229 0.93453 0.12969 0.0
C261 C 0.49048 0.01453 0.12008 0.0
C262 C 0.51405 0.00508 0.12765 0.0
C263 C 0.51803 0.97903 0.12875 0.0
C264 C 0.53325 0.02147 0.13887 0.0
C265 C 0.48546 0.04236 0.11829 0.0
C266 C 0.54619 0.03946 0.12455 0.0
C267 C 0.56576 0.05316 0.13536 0.0
C268 C 0.5728 0.04858 0.16039 0.0
C269 C 0.55902 0.03144 0.17494 0.0
C270 C 0.53928 0.0181 0.16429 0.0
H271 H 0.46538 0.04652 0.11441 0.0
H272 H 0.49088 0.0518 0.13604 0.0
H273 H 0.49699 0.05057 0.10291 0.0
H274 H 0.54192 0.04213 0.10486 0.0
H275 H 0.57645 0.06601 0.12365 0.0
H276 H 0.59638 0.98274 0.79807 0.0
H277 H 0.5527 -0.00342 0.79524 0.0
H278 H 0.53369 0.95095 0.85976 0.0
H279 H 0.57712 0.93589 0.86164 0.0
H280 H 0.49888 0.94666 0.82649 0.0
H281 H 0.5192 0.0479 0.83718 0.0
H282 H 0.53544 0.03524 0.81056 0.0
H283 H 0.54293 0.02422 0.8417 0.0
C284 C 0.58284 0.97575 0.81166 0.0
C285 C 0.59001 0.95843 0.83018 0.0
C286 C 0.55796 0.9838 0.81016 0.0
C287 C 0.54006 0.97536 0.82772 0.0
C288 C 0.54721 0.95784 0.84611 0.0
H289 H 0.39682 0.05067 0.84656 0.0
H290 H 0.43948 0.03448 0.85132 0.0
C291 C 0.57198 0.94928 0.8472 0.0
C292 C 0.51376 0.98435 0.82655 0.0
H293 H 0.47809 0.03733 0.82254 0.0
C294 C 0.49431 0.9665 0.82587 0.0
C295 C 0.50775 0.01023 0.82624 0.0
C296 C 0.52744 0.03046 0.82925 0.0
C297 C 0.46904 0.97381 0.82447 0.0
C298 C 0.46317 -0.00034 0.82256 0.0
C299 C 0.48261 0.0175 0.82363 0.0
C300 C 0.43703 0.00879 0.81991 0.0
C301 C 0.44899 0.95374 0.82568 0.0
C302 C 0.42152 -0.00011 0.80056 0.0
C303 C 0.39694 0.00872 0.79819 0.0
C304 C 0.38781 0.02717 0.81463 0.0
C305 C 0.4035 0.03652 0.83357 0.0
C306 C 0.42784 0.02727 0.8363 0.0
H307 H 0.45591 0.9366 0.83537 0.0
H308 H 0.43193 0.96049 0.83567 0.0
H309 H 0.44365 0.9483 0.80632 0.0
H310 H 0.42847 0.98627 0.78717 0.0
H311 H 0.38523 0.00143 0.78328 0.0
H312 H 0.11933 0.39585 0.92608 0.0
H313 H 0.09807 0.43226 0.94439 0.0
H314 H 0.16385 0.44777 0.98907 0.0
H315 H 0.18465 0.41081 0.97173 0.0
H316 H 0.11989 0.44892 0.01659 0.0
H317 H 0.11026 0.50544 0.92871 0.0
H318 H 0.0963 0.4747 0.92991 0.0
H319 H 0.12991 0.4779 0.92972 0.0
C320 C 0.12936 0.40734 0.93951 0.0
C321 C 0.1537 0.40079 0.94741 0.0
C322 C 0.11715 0.42803 0.94999 0.0
C323 C 0.1294 0.44267 0.96802 0.0
C324 C 0.15398 0.43649 0.97533 0.0
H325 H 0.16761 0.57725 0.00446 0.0
H326 H 0.15234 0.53718 0.98879 0.0
C327 C 0.16596 0.41559 0.96528 0.0
C328 C 0.11735 0.46479 0.97947 0.0
H329 H 0.10675 0.52649 0.96682 0.0
C330 C 0.11633 0.46584 0.0058 0.0
C331 C 0.11191 0.48648 0.96518 0.0
C332 C 0.11216 0.48629 0.93682 0.0
C333 C 0.11402 0.48885 0.01826 0.0
C334 C 0.11203 0.51102 0.00379 0.0
C335 C 0.10882 0.50936 0.97769 0.0
C336 C 0.12018 0.53542 0.01392 0.0
C337 C 0.11661 0.48948 0.04647 0.0
C338 C 0.10746 0.54743 0.03364 0.0
C339 C 0.11669 0.5701 0.04314 0.0
C340 C 0.13833 0.58111 0.03256 0.0
C341 C 0.15089 0.56908 0.01286 0.0
C342 C 0.14204 0.54633 0.0038 0.0
H343 H 0.1195 0.47049 0.05463 0.0
H344 H 0.13273 0.50157 0.05186 0.0
H345 H 0.09934 0.49757 0.05492 0.0
H346 H 0.09041 0.53945 0.04148 0.0
H347 H 0.10651 0.57938 0.05813 0.0
H348 H 0.8021 0.57449 0.97178 0.0
H349 H 0.81933 0.5347 0.98631 0.0
H350 H 0.87826 0.53956 0.9305 0.0
H351 H 0.8604 0.57913 0.91517 0.0
H352 H 0.86099 0.49395 0.93242 0.0
H353 H 0.87923 0.52254 0.02944 0.0
H354 H 0.84728 0.5304 0.02259 0.0
H355 H 0.87245 0.54516 0.00506 0.0
C356 C 0.81866 0.56703 0.96255 0.0
C357 C 0.82996 0.57981 0.94243 0.0
C358 C 0.82873 0.54451 0.9711 0.0
C359 C 0.85065 0.53469 0.96011 0.0
C360 C 0.8616 0.54707 0.9395 0.0
H361 H 0.87431 0.39553 0.04411 0.0
H362 H 0.8876 0.4356 0.0255 0.0
C363 C 0.85126 0.5695 0.93066 0.0
C364 C 0.86068 0.51057 0.96936 0.0
H365 H 0.86617 0.47806 0.02412 0.0
C366 C 0.86288 0.49056 0.95243 0.0
C367 C 0.86454 0.50623 -0.00473 0.0
C368 C 0.86608 0.52738 0.01401 0.0
C369 C 0.8654 0.46587 0.96113 0.0
C370 C 0.86451 0.46122 0.9873 0.0
C371 C 0.86585 0.48149 0.00403 0.0
C372 C 0.85814 0.43617 -0.00249 0.0
C373 C 0.86782 0.44499 0.94217 0.0
C374 C 0.83687 0.42353 0.98836 0.0
C375 C 0.82949 0.40066 -0.00129 0.0
C376 C 0.84278 0.39039 0.01893 0.0
C377 C 0.86366 0.40326 0.02862 0.0
C378 C 0.87137 0.42598 0.01789 0.0
H379 H 0.87933 0.45124 0.92584 0.0
H380 H 0.87658 0.42797 0.95044 0.0
H381 H 0.84891 0.44004 0.93495 0.0
H382 H 0.82564 0.43155 0.97345 0.0
H383 H 0.81321 0.39116 -0.00893 0.0
H384 H 0.11323 0.18129 0.71493 0.0
H385 H 0.15694 0.16763 0.72018 0.0
H386 H 0.14171 0.1027 0.67418 0.0
H387 H 0.09825 0.11688 0.6687 0.0
H388 H 0.16745 0.1257 0.74414 0.0
H389 H 0.21115 0.12095 0.64981 0.0
H390 H 0.18246 0.13808 0.65582 0.0
H391 H 0.18164 0.10463 0.65104 0.0
C392 C 0.11952 0.16433 0.70583 0.0
C393 C 0.1026 0.14987 0.69197 0.0
C394 C 0.14441 0.15664 0.70853 0.0
C395 C 0.15267 0.13418 0.69745 0.0
C396 C 0.13599 0.12037 0.68241 0.0
H397 H 0.25517 0.03203 0.76474 0.0
H398 H 0.22086 0.05185 0.74166 0.0
C399 C 0.11114 0.12834 0.67946 0.0
C400 C 0.17716 0.12333 0.70486 0.0
H401 H 0.23096 0.09628 0.68239 0.0
C402 C 0.18146 0.11964 0.73059 0.0
C403 C 0.19551 0.11548 0.68721 0.0
C404 C 0.19259 0.12022 0.65945 0.0
C405 C 0.20314 0.10762 0.73915 0.0
C406 C 0.22077 0.0985 0.72149 0.0
C407 C 0.2171 0.10294 0.69579 0.0
C408 C 0.24282 0.08405 0.72993 0.0
C409 C 0.20688 0.10452 0.76709 0.0
C410 C 0.26678 0.09505 0.72977 0.0
C411 C 0.2865 0.0837 0.74286 0.0
C412 C 0.28233 0.06131 0.75634 0.0
C413 C 0.25884 0.04938 0.75469 0.0
C414 C 0.23925 0.06063 0.74151 0.0
H415 H 0.1953 0.11801 0.77802 0.0
H416 H 0.20126 0.08523 0.77272 0.0
H417 H 0.22692 0.10719 0.77217 0.0
H418 H 0.2698 0.11317 0.72095 0.0
H419 H 0.30443 0.09331 0.74381 0.0
H420 H 0.72948 0.94973 0.79722 0.0
H421 H 0.76328 0.93004 0.77314 0.0
H422 H 0.70941 0.88147 0.73718 0.0
H423 H 0.6755 0.90083 0.76144 0.0
H424 H 0.74884 0.85588 0.75947 0.0
H425 H 0.78446 0.93325 0.69924 0.0
H426 H 0.78191 0.94179 0.73175 0.0
H427 H 0.754 0.93421 0.71434 0.0
C428 C 0.72476 0.93522 0.78381 0.0
C429 C 0.69988 0.92673 0.7813 0.0
C430 C 0.74407 0.92407 0.76998 0.0
C431 C 0.73878 0.90444 0.75327 0.0
C432 C 0.71382 0.89666 0.74994 0.0
H433 H 0.85982 0.83947 0.66342 0.0
H434 H 0.81895 0.85627 0.67593 0.0
C435 C 0.69449 0.9078 0.76376 0.0
C436 C 0.75954 0.89048 0.74122 0.0
H437 H 0.8119 0.89802 0.70486 0.0
C438 C 0.76245 0.86497 0.74723 0.0
C439 C 0.77706 0.90234 0.72508 0.0
C440 C 0.77411 0.92935 0.717 0.0
C441 C 0.78309 0.85122 0.73833 0.0
C442 C 0.8014 0.86349 0.72339 0.0
C443 C 0.7979 0.88871 0.7165 0.0
C444 C 0.825 0.851 0.71575 0.0
C445 C 0.78517 0.82378 0.74518 0.0
C446 C 0.8418 0.84229 0.73402 0.0
C447 C 0.86514 0.8326 0.72698 0.0
C448 C 0.87221 0.83175 0.70151 0.0
C449 C 0.85503 0.83993 0.68321 0.0
C450 C 0.83166 0.84955 0.69029 0.0
H451 H 0.76647 0.81555 0.74965 0.0
H452 H 0.79388 0.81281 0.72972 0.0
H453 H 0.79712 0.82182 0.76211 0.0
H454 H 0.83722 0.84373 0.75381 0.0
H455 H 0.87788 0.82648 0.74158 0.0
H456 H 0.32587 0.86975 0.21603 0.0
H457 H 0.29128 0.84872 0.23809 0.0
H458 H 0.24677 0.91613 0.23276 0.0
H459 H 0.28106 0.93717 0.21034 0.0
H460 H 0.25879 0.85899 0.28135 0.0
H461 H 0.21023 0.86201 0.18932 0.0
H462 H 0.24342 0.86813 0.19266 0.0
H463 H 0.22088 0.89215 0.20004 0.0
C464 C 0.30901 0.88034 0.22024 0.0
C465 C 0.30593 0.90497 0.21114 0.0
C466 C 0.28929 0.86828 0.2328 0.0
C467 C 0.26641 0.88077 0.23649 0.0
C468 C 0.26423 0.90612 0.22966 0.0
H469 H 0.12958 0.84654 0.31297 0.0
H470 H 0.17234 0.85874 0.30156 0.0
C471 C 0.28382 0.91812 0.21696 0.0
C472 C 0.24391 0.86669 0.2446 0.0
H473 H 0.18558 0.84975 0.22458 0.0
C474 C 0.24279 0.85676 0.26898 0.0
C475 C 0.22352 0.86312 0.22804 0.0
C476 C 0.22457 0.87166 0.20097 0.0
C477 C 0.22111 0.84437 0.27769 0.0
C478 C 0.19998 0.84247 0.2617 0.0
C479 C 0.20167 0.85141 0.23693 0.0
C480 C 0.17536 0.83276 0.27046 0.0
C481 C 0.22113 0.83339 0.30384 0.0
C482 C 0.16266 0.81432 0.25655 0.0
C483 C 0.13796 0.80775 0.26266 0.0
C484 C 0.1256 0.81941 0.28288 0.0
C485 C 0.13867 0.83714 0.29736 0.0
C486 C 0.16322 0.84396 0.29102 0.0
H487 H 0.24048 0.82833 0.30979 0.0
H488 H 0.21389 0.8476 0.31724 0.0
H489 H 0.20905 0.81641 0.3051 0.0
H490 H 0.17164 0.80549 0.24056 0.0
H491 H 0.12843 0.79381 0.25135 0.0
H492 H 0.65788 0.1197 0.23023 0.0
H493 H 0.69593 0.14034 0.24573 0.0
H494 H 0.73345 0.0687 0.24922 0.0
H495 H 0.69569 0.04797 0.23339 0.0
H496 H 0.73117 0.13362 0.2878 0.0
H497 H 0.77077 0.11131 0.19399 0.0
H498 H 0.73757 0.10977 0.20099 0.0
H499 H 0.75796 0.08444 0.21006 0.0
C500 C 0.67394 0.10823 0.23515 0.0
C501 C 0.67403 0.08227 0.2303 0.0
C502 C 0.69566 0.12009 0.24389 0.0
C503 C 0.71752 0.10604 0.24801 0.0
C504 C 0.71678 0.07983 0.2457 0.0
H505 H 0.86089 0.12817 0.31038 0.0
H506 H 0.81633 0.12241 0.30215 0.0
C507 C 0.6952 0.06801 0.23681 0.0
C508 C 0.74186 0.11873 0.25176 0.0
H509 H 0.8 0.12425 0.22527 0.0
C510 C 0.74621 0.13187 0.27409 0.0
C511 C 0.76103 0.11719 0.23337 0.0
C512 C 0.7566 0.10515 0.20812 0.0
C513 C 0.76996 0.14213 0.27922 0.0
C514 C 0.78984 0.13849 0.26181 0.0
C515 C 0.78489 0.12677 0.23878 0.0
C516 C 0.81631 0.14442 0.26788 0.0
C517 C 0.77353 0.15656 0.30329 0.0
C518 C 0.83137 0.15818 0.25099 0.0
C519 C 0.85712 0.16099 0.25534 0.0
C520 C 0.86815 0.15016 0.27672 0.0
C521 C 0.85292 0.1369 0.29384 0.0
C522 C 0.82733 0.13383 0.28931 0.0
H523 H 0.75576 0.16584 0.30918 0.0
H524 H 0.77896 0.14334 0.31847 0.0
H525 H 0.78842 0.17108 0.30135 0.0
H526 H 0.82327 0.16634 0.23421 0.0
H527 H 0.86838 0.17151 0.24195 0.0
H528 H 0.65586 0.13964 0.15554 0.0
H529 H 0.66899 0.17899 0.13578 0.0
H530 H 0.74514 0.1516 0.13087 0.0
H531 H 0.73232 0.11235 0.15111 0.0
H532 H 0.74267 0.20081 0.14559 0.0
H533 H 0.684 0.18452 0.06101 0.0
H534 H 0.6668 0.18448 0.0901 0.0
H535 H 0.68972 0.16041 0.08414 0.0
C536 C 0.67544 0.14202 0.15035 0.0
C537 C 0.69302 0.12277 0.15459 0.0
C538 C 0.68286 0.16447 0.13897 0.0
C539 C 0.70788 0.1679 0.13135 0.0
C540 C 0.72568 0.14918 0.13648 0.0
H541 H 0.78108 0.26123 0.02451 0.0
H542 H 0.75677 0.22887 0.04634 0.0
C543 C 0.71833 0.12679 0.14805 0.0
C544 C 0.71549 0.19074 0.11749 0.0
H545 H 0.70607 0.22302 0.06285 0.0
C546 C 0.73458 0.2058 0.12759 0.0
C547 C 0.70504 0.19691 0.09386 0.0
C548 C 0.68542 0.18064 0.08147 0.0
C549 C 0.74377 0.22678 0.11453 0.0
C550 C 0.73308 0.23312 0.09106 0.0
C551 C 0.71382 0.21825 0.08106 0.0
C552 C 0.74347 0.25369 0.07562 0.0
C553 C 0.76553 0.24135 0.12542 0.0
C554 C 0.74281 0.27856 0.08418 0.0
C555 C 0.75671 0.29709 0.07176 0.0
C556 C 0.7714 0.2909 0.05067 0.0
C557 C 0.77013 0.26646 0.04087 0.0
C558 C 0.75626 0.24797 0.0533 0.0
H559 H 0.77471 0.23111 0.14111 0.0
H560 H 0.77992 0.24537 0.11076 0.0
H561 H 0.75861 0.25957 0.13275 0.0
H562 H 0.73263 0.28332 0.10117 0.0
H563 H 0.7572 0.31582 0.07964 0.0
H564 H 0.22997 0.65493 0.08338 0.0
H565 H 0.25551 0.68827 0.10199 0.0
H566 H 0.23165 0.73937 0.0438 0.0
H567 H 0.20652 0.70614 0.02486 0.0
H568 H 0.2813 0.747 0.05918 0.0
H569 H 0.21375 0.74192 0.13926 0.0
H570 H 0.23075 0.71354 0.1326 0.0
H571 H 0.2087 0.72552 0.11012 0.0
C572 C 0.23086 0.67303 0.07407 0.0
C573 C 0.2159 0.67817 0.05297 0.0
C574 C 0.24528 0.69207 0.08484 0.0
C575 C 0.24482 0.71635 0.07461 0.0
C576 C 0.23201 0.72075 0.05208 0.0
H577 H 0.24795 0.86284 0.13714 0.0
H578 H 0.23797 0.82083 0.12161 0.0
C579 C 0.21766 0.70177 0.04128 0.0
C580 C 0.255 0.7379 0.08862 0.0
H581 H 0.24416 0.77395 0.14042 0.0
C582 C 0.2735 0.75278 0.07712 0.0
C583 C 0.24421 0.74553 0.11172 0.0
C584 C 0.22311 0.73098 0.12413 0.0
C585 C 0.28118 0.77554 0.08781 0.0
C586 C 0.2705 0.78313 0.11098 0.0
C587 C 0.25242 0.7679 0.12278 0.0
C588 C 0.27648 0.80769 0.12232 0.0
C589 C 0.29964 0.79181 0.07353 0.0
C590 C 0.30129 0.81387 0.12856 0.0
C591 C 0.30709 0.83793 0.13705 0.0
C592 C 0.28807 0.85604 0.13986 0.0
C593 C 0.26302 0.84933 0.13499 0.0
C594 C 0.25729 0.82536 0.12616 0.0
H595 H 0.30112 0.78623 0.05348 0.0
H596 H 0.29413 0.81189 0.07439 0.0
H597 H 0.31855 0.78986 0.08203 0.0
H598 H 0.31624 0.80024 0.12643 0.0
H599 H 0.32652 0.8424 0.14115 0.0
H600 H 0.7426 0.65856 0.88733 0.0
H601 H 0.71832 0.69351 0.86988 0.0
H602 H 0.73554 0.73811 0.93514 0.0
H603 H 0.7593 0.70327 0.95287 0.0
H604 H 0.68757 0.74743 0.91558 0.0
H605 H 0.763 0.75075 0.84265 0.0
H606 H 0.74528 0.72206 0.84482 0.0
H607 H 0.7653 0.73128 0.87028 0.0
C608 C 0.74048 0.67552 0.89833 0.0
C609 C 0.75322 0.67844 0.92123 0.0
C610 C 0.72677 0.69549 0.88825 0.0
C611 C 0.72574 0.71852 0.90097 0.0
C612 C 0.73628 0.72052 0.92497 0.0
H613 H 0.73703 0.87026 0.86044 0.0
H614 H 0.74116 0.82593 0.87115 0.0
C615 C 0.7499 0.70061 0.93505 0.0
C616 C 0.71691 0.74154 0.88832 0.0
H617 H 0.7343 0.78398 0.84337 0.0
C618 C 0.69741 0.75531 0.8995 0.0
C619 C 0.73021 0.75181 0.86762 0.0
C620 C 0.75224 0.73839 0.85567 0.0
C621 C 0.69153 0.77963 0.89123 0.0
C622 C 0.70517 0.79008 0.87084 0.0
C623 C 0.72385 0.77581 0.85892 0.0
C624 C 0.70232 0.81668 0.86332 0.0
C625 C 0.67191 0.79444 0.9054 0.0
C626 C 0.67918 0.8261 0.85503 0.0
C627 C 0.67666 0.85157 0.84918 0.0
C628 C 0.69737 0.86792 0.85117 0.0
C629 C 0.7207 0.85821 0.85873 0.0
C630 C 0.72311 0.83286 0.86482 0.0
H631 H 0.6671 0.78563 0.92375 0.0
H632 H 0.67848 0.81393 0.90885 0.0
H633 H 0.65448 0.7954 0.89406 0.0
H634 H 0.66306 0.8138 0.85317 0.0
H635 H 0.65851 0.85841 0.84308 0.0
H636 H 0.24513 0.12459 0.81029 0.0
H637 H 0.23998 0.16778 0.82478 0.0
H638 H 0.3103 0.16278 0.86466 0.0
H639 H 0.31615 0.12012 0.84921 0.0
H640 H 0.23376 0.18154 0.87067 0.0
H641 H 0.31816 0.2309 0.83483 0.0
H642 H 0.3092 0.20011 0.82393 0.0
H643 H 0.32649 0.20364 0.85275 0.0
C644 C 0.25972 0.13288 0.82173 0.0
C645 C 0.28105 0.11898 0.82855 0.0
C646 C 0.25678 0.15756 0.83 0.0
C647 C 0.27494 0.1687 0.84552 0.0
C648 C 0.29642 0.15494 0.85208 0.0
H649 H 0.2342 0.28207 0.95266 0.0
H650 H 0.25386 0.24588 0.9324 0.0
C651 C 0.29961 0.13043 0.84341 0.0
C652 C 0.27005 0.19356 0.857 0.0
H653 H 0.29569 0.25133 0.86841 0.0
C654 C 0.24725 0.19683 0.86994 0.0
C655 C 0.28754 0.21365 0.85589 0.0
C656 C 0.31158 0.212 0.84086 0.0
C657 C 0.2416 0.21937 0.8821 0.0
C658 C 0.25965 0.23891 0.88218 0.0
C659 C 0.28221 0.23602 0.8688 0.0
C660 C 0.25455 0.26271 0.89538 0.0
C661 C 0.2161 0.22229 0.89433 0.0
C662 C 0.25037 0.28475 0.88157 0.0
C663 C 0.23948 0.3056 0.89317 0.0
C664 C 0.23248 0.30445 0.91865 0.0
C665 C 0.2392 0.28333 0.93295 0.0
C666 C 0.25031 0.26264 0.9214 0.0
H667 H 0.2025 0.20795 0.88764 0.0
H668 H 0.21797 0.22013 0.91497 0.0
H669 H 0.20824 0.24119 0.89043 0.0
H670 H 0.25369 0.28515 0.86148 0.0
H671 H 0.23455 0.32165 0.88168 0.0
H672 H 0.04481 0.75288 0.27101 0.0
H673 H 0.06847 0.72976 0.2393 0.0
H674 H 0.13131 0.72373 0.28994 0.0
H675 H 0.10774 0.74702 0.32181 0.0
H676 H 0.14377 0.74564 0.24464 0.0
H677 H 0.09131 0.65762 0.22859 0.0
H678 H 0.07066 0.68421 0.22868 0.0
H679 H 0.08754 0.67605 0.25681 0.0
C680 C 0.06335 0.74592 0.27569 0.0
C681 C 0.07445 0.7518 0.29881 0.0
C682 C 0.07683 0.73263 0.2576 0.0
C683 C 0.10157 0.7249 0.26237 0.0
C684 C 0.11218 0.72942 0.286 0.0
H685 H 0.16464 0.65415 0.12879 0.0
H686 H 0.15802 0.66149 0.17363 0.0
C687 C 0.09862 0.7426 0.30421 0.0
C688 C 0.11712 0.71524 0.24149 0.0
H689 H 0.11514 0.67373 0.19306 0.0
C690 C 0.13794 0.72953 0.23364 0.0
C691 C 0.10981 0.69401 0.22747 0.0
C692 C 0.08876 0.67694 0.23599 0.0
C693 C 0.15042 0.72427 0.211 0.0
C694 C 0.14141 0.70456 0.19568 0.0
C695 C 0.12188 0.68908 0.20459 0.0
C696 C 0.14997 0.70112 0.16941 0.0
C697 C 0.17264 0.74031 0.20352 0.0
C698 C 0.1482 0.72107 0.15218 0.0
C699 C 0.15226 0.71698 0.12661 0.0
C700 C 0.15753 0.69273 0.11774 0.0
C701 C 0.16026 0.67298 0.13508 0.0
C702 C 0.1566 0.67717 0.1607 0.0
H703 H 0.18293 0.74702 0.22036 0.0
H704 H 0.18594 0.72994 0.19123 0.0
H705 H 0.16585 0.75714 0.19326 0.0
H706 H 0.14242 0.73956 0.1583 0.0
H707 H 0.14998 0.73255 0.11368 0.0
H708 H 0.07233 0.23431 0.68091 0.0
H709 H 0.09567 0.25336 0.71558 0.0
H710 H 0.04262 0.22216 0.76861 0.0
H711 H 0.0191 0.20316 0.73411 0.0
H712 H 0.05955 0.27406 0.77824 0.0
H713 H 0.13727 0.20565 0.76297 0.0
H714 H 0.12458 0.22121 0.73579 0.0
H715 H 0.10531 0.19963 0.75349 0.0
C716 C 0.06529 0.232 0.69989 0.0
C717 C 0.044 0.21708 0.70484 0.0
C718 C 0.07874 0.24273 0.71966 0.0
C719 C 0.07105 0.23874 0.74459 0.0
C720 C 0.04889 0.22529 0.74946 0.0
H721 H 0.15374 0.24271 0.88318 0.0
H722 H 0.131 0.23117 0.84504 0.0
C723 C 0.03549 0.21449 0.72974 0.0
C724 C 0.08692 0.24712 0.7657 0.0
H725 H 0.1424 0.23485 0.79527 0.0
C726 C 0.07775 0.26568 0.78192 0.0
C727 C 0.11035 0.23567 0.77069 0.0
C728 C 0.12007 0.21431 0.75496 0.0
C729 C 0.09153 0.27319 0.80305 0.0
C730 C 0.11528 0.26212 0.80765 0.0
C731 C 0.12436 0.24352 0.79145 0.0
C732 C 0.1306 0.26887 0.82972 0.0
C733 C 0.08019 0.29227 0.82067 0.0
C734 C 0.13878 0.29364 0.83313 0.0
C735 C 0.15164 0.3003 0.85489 0.0
C736 C 0.1568 0.28222 0.87348 0.0
C737 C 0.14998 0.25708 0.86926 0.0
C738 C 0.13691 0.25048 0.84755 0.0
H739 H 0.05954 0.29395 0.81809 0.0
H740 H 0.08396 0.28727 0.84056 0.0
H741 H 0.0887 0.31094 0.81686 0.0
H742 H 0.13478 0.30793 0.8192 0.0
H743 H 0.157 0.31977 0.8574 0.0
H744 H 0.82712 0.73741 0.87225 0.0
H745 H 0.84307 0.7476 0.83035 0.0
H746 H 0.83471 0.67011 0.80832 0.0
H747 H 0.81943 0.65964 0.85034 0.0
H748 H 0.88099 0.68711 0.79866 0.0
H749 H 0.81159 0.75539 0.76218 0.0
H750 H 0.82365 0.76431 0.79226 0.0
H751 H 0.80535 0.73599 0.78938 0.0
C752 C 0.82822 0.72264 0.85835 0.0
C753 C 0.82229 0.69768 0.86467 0.0
C754 C 0.8372 0.72852 0.83434 0.0
C755 C 0.83989 0.70964 0.81616 0.0
C756 C 0.8328 0.68495 0.82209 0.0
H757 H 0.88853 0.748 0.66439 0.0
H758 H 0.86649 0.72718 0.69903 0.0
C759 C 0.8241 0.67901 0.84612 0.0
C760 C 0.85247 0.71506 0.79191 0.0
H761 H 0.85167 0.75434 0.74124 0.0
C762 C 0.87436 0.70156 0.78592 0.0
C763 C 0.84371 0.73377 0.77523 0.0
C764 C 0.81964 0.74801 0.77995 0.0
C765 C 0.88823 0.70688 0.76411 0.0
C766 C 0.88018 0.72645 0.74814 0.0
C767 C 0.85783 0.73937 0.75363 0.0
C768 C 0.89535 0.73497 0.72645 0.0
C769 C 0.91145 0.69164 0.75844 0.0
C770 C 0.91924 0.74546 0.7303 0.0
C771 C 0.93193 0.75728 0.71055 0.0
C772 C 0.92077 0.75901 0.68674 0.0
C773 C 0.89761 0.74699 0.68254 0.0
C774 C 0.88493 0.73519 0.70231 0.0
H775 H 0.9109 0.6731 0.76805 0.0
H776 H 0.91365 0.68856 0.73792 0.0
H777 H 0.92825 0.70193 0.76523 0.0
H778 H 0.92744 0.74578 0.74889 0.0
H779 H 0.94975 0.76636 0.71433 0.0
H780 H 0.95639 0.19721 0.25587 0.0
H781 H 0.9372 0.22206 0.22251 0.0
H782 H 0.8857 0.25452 0.27612 0.0
H783 H 0.90449 0.22935 0.30955 0.0
H784 H 0.86179 0.23179 0.23699 0.0
H785 H 0.9361 0.29524 0.20083 0.0
H786 H 0.94664 0.26332 0.20304 0.0
H787 H 0.93811 0.28007 0.23114 0.0
C788 C 0.94145 0.21015 0.26069 0.0
C789 C 0.93174 0.21109 0.28525 0.0
C790 C 0.93058 0.22446 0.24162 0.0
C791 C 0.91008 0.24019 0.24688 0.0
C792 C 0.90153 0.2425 0.27171 0.0
H793 H 0.84542 0.31985 0.11877 0.0
H794 H 0.86011 0.31162 0.16142 0.0
C795 C 0.91236 0.22816 0.29079 0.0
C796 C 0.89562 0.25143 0.22605 0.0
H797 H 0.90207 0.28598 0.17246 0.0
C798 C 0.87043 0.24407 0.22312 0.0
C799 C 0.90683 0.26758 0.20814 0.0
C800 C 0.93334 0.27722 0.21106 0.0
C801 C 0.85654 0.2514 0.20204 0.0
C802 C 0.86834 0.26606 0.1832 0.0
C803 C 0.89309 0.27454 0.18681 0.0
C804 C 0.8562 0.27127 0.15879 0.0
C805 C 0.8295 0.24303 0.2 0.0
C806 C 0.84872 0.25132 0.14334 0.0
C807 C 0.84019 0.25592 0.11902 0.0
C808 C 0.83936 0.28058 0.10953 0.0
C809 C 0.84596 0.30061 0.1254 0.0
C810 C 0.85437 0.29597 0.14979 0.0
H811 H 0.821 0.23995 0.21886 0.0
H812 H 0.81798 0.25699 0.18966 0.0
H813 H 0.82872 0.22492 0.18976 0.0
H814 H 0.8505 0.23206 0.14968 0.0
H815 H 0.83524 0.24004 0.10735 0.0
H816 H 0.98826 0.08591 0.71531 0.0
H817 H 0.98113 0.04106 0.70897 0.0
H818 H 0.00452 0.04814 0.63167 0.0
H819 H 0.01177 0.09311 0.63768 0.0
H820 H 0.95047 0.01446 0.67064 0.0
H821 H 0.05341 -0.00452 0.6658 0.0
H822 H 0.04088 0.02407 0.67904 0.0
H823 H 0.04109 0.01967 0.64565 0.0
C824 C -0.00841 0.07808 0.69684 0.0
C825 C 0.00084 0.09311 0.67708 0.0
C826 C 0.98749 0.05244 0.69328 0.0
C827 C -0.0073 0.04136 0.66999 0.0
C828 C 0.00072 0.05641 0.64986 0.0
H829 H 0.96126 0.8856 0.63209 0.0
H830 H 0.97 0.93049 0.62908 0.0
C831 C 0.0047 0.08211 0.65334 0.0
C832 C -0.00921 0.01385 0.6673 0.0
H833 H 0.02624 0.96058 0.66312 0.0
C834 C 0.96697 0.00265 0.66876 0.0
C835 C 0.01246 -0.00136 0.66506 0.0
C836 C 0.03848 0.00993 0.66393 0.0
C837 C 0.96425 0.97646 0.66825 0.0
C838 C 0.98593 0.96126 0.66627 0.0
C839 C 0.00974 0.97243 0.66456 0.0
C840 C 0.98402 0.93365 0.66697 0.0
C841 C 0.93831 0.96512 0.67042 0.0
C842 C 0.98994 0.92054 0.68903 0.0
C843 C 0.98489 0.89483 0.69096 0.0
C844 C 0.97388 0.8819 0.67077 0.0
C845 C 0.96951 0.89495 0.64813 0.0
C846 C 0.97447 0.92062 0.6463 0.0
H847 H 0.92376 0.9794 0.67484 0.0
H848 H 0.93331 0.95599 0.65239 0.0
H849 H 0.93799 0.95043 0.68527 0.0
H850 H -0.00258 0.93043 0.70514 0.0
H851 H 0.98859 0.88539 0.7086 0.0
H852 H 0.93374 0.07235 0.3249 0.0
H853 H 0.94263 0.02736 0.32544 0.0
H854 H 0.00682 0.0396 0.27702 0.0
H855 H -0.00302 0.08442 0.27518 0.0
H856 H 0.98229 0.00134 0.26119 0.0
H857 H -0.00696 0.98938 0.36392 0.0
H858 H 0.96267 0.0014 0.3559 0.0
H859 H 0.99039 0.01989 0.34949 0.0
C860 C 0.94993 0.06545 0.31463 0.0
C861 C 0.96479 0.08186 0.30014 0.0
C862 C 0.95508 0.03972 0.31505 0.0
C863 C 0.97572 0.03004 0.3017 0.0
C864 C -0.0092 0.04656 0.28751 0.0
H865 H 0.04726 0.88835 0.32554 0.0
H866 H 0.03206 0.93136 0.32529 0.0
C867 C 0.98525 0.07218 0.28654 0.0
C868 C 0.98116 0.00266 0.30163 0.0
H869 H -0.00882 0.95205 0.33974 0.0
C870 C 0.98438 -0.00941 0.27839 0.0
C871 C 0.98397 0.9886 0.32406 0.0
C872 C 0.9826 0.00054 0.34972 0.0
C873 C -0.00912 0.9651 0.27691 0.0
C874 C -0.00691 0.95091 0.29932 0.0
C875 C 0.98927 0.96284 0.32254 0.0
C876 C 0.00156 0.92431 0.29938 0.0
C877 C -0.00363 0.95405 0.25138 0.0
C878 C 0.9894 0.90578 0.28504 0.0
C879 C -0.00146 0.88111 0.28463 0.0
C880 C 0.01946 0.87446 0.29922 0.0
C881 C 0.03101 0.89284 0.31417 0.0
C882 C 0.0223 0.91749 0.31408 0.0
H883 H 0.00063 0.96886 0.23725 0.0
H884 H 0.01255 0.94092 0.25213 0.0
H885 H 0.97963 0.94356 0.24478 0.0
H886 H 0.97288 0.91036 0.27415 0.0
H887 H 0.98911 0.86722 0.27319 0.0
H888 H 0.635 0.95363 0.90858 0.0
H889 H 0.62799 0.96423 0.95271 0.0
H890 H 0.70115 -0.00102 0.95586 0.0
H891 H 0.70851 0.98844 0.91178 0.0
H892 H 0.66147 0.94804 -0.00614 0.0
H893 H 0.65038 0.05156 0.98616 0.0
H894 H 0.64567 0.03066 0.95989 0.0
H895 H 0.67694 0.03859 0.96971 0.0
C896 C 0.64952 0.96383 0.9185 0.0
C897 C 0.67237 0.97015 0.90659 0.0
C898 C 0.64547 0.96976 0.94375 0.0
C899 C 0.66401 0.98243 0.95741 0.0
C900 C 0.68654 0.98938 0.94549 0.0
H901 H 0.69695 0.00052 0.11377 0.0
H902 H 0.6946 0.98629 0.07018 0.0
C903 C 0.69071 0.98328 0.92032 0.0
C904 C 0.6604 0.9874 0.98447 0.0
H905 H 0.65566 0.03478 0.02718 0.0
C906 C 0.65999 0.96697 0.00119 0.0
C907 C 0.65822 0.01208 -0.00616 0.0
C908 C 0.6576 0.03454 0.97651 0.0
C909 C 0.65831 0.9707 0.02725 0.0
C910 C 0.65717 -0.00454 0.03665 0.0
C911 C 0.65672 0.01581 0.01986 0.0
C912 C 0.6572 0.00088 0.06387 0.0
C913 C 0.6578 0.94822 0.04452 0.0
C914 C 0.6368 0.01344 0.07479 0.0
C915 C 0.63804 0.02157 0.09965 0.0
C916 C 0.65989 0.01756 0.114 0.0
C917 C 0.67986 0.00393 0.10331 0.0
C918 C 0.67853 -0.00429 0.07841 0.0
H919 H 0.65285 0.93072 0.03433 0.0
H920 H 0.67669 0.94568 0.05293 0.0
H921 H 0.64411 0.95104 0.06006 0.0
H922 H 0.62019 0.0176 0.06383 0.0
H923 H 0.62219 0.03185 0.10726 0.0
H924 H 0.27554 0.97945 0.0913 0.0
H925 H 0.27515 -0.00698 0.04734 0.0
H926 H 0.34795 0.95947 0.03577 0.0
H927 H 0.34871 0.94587 0.07958 0.0
H928 H 0.3139 0.02259 0.01777 0.0
H929 H 0.29726 0.9248 0.98483 0.0
H930 H 0.29103 0.93446 0.01676 0.0
H931 H 0.32278 0.92949 0.00644 0.0
C932 C 0.29162 0.9752 0.07954 0.0
C933 C 0.31202 0.96131 0.08897 0.0
C934 C 0.29135 0.98298 0.05444 0.0
C935 C 0.31136 0.97689 0.03836 0.0
C936 C 0.33222 0.96406 0.0479 0.0
H937 H 0.33888 0.02579 0.88486 0.0
H938 H 0.34303 0.01378 0.92894 0.0
C939 C 0.3326 0.95637 0.07299 0.0
C940 C 0.30989 0.98292 0.01131 0.0
H941 H 0.30226 0.95605 0.95367 0.0
C942 C 0.31141 0.0081 0.00371 0.0
C943 C 0.30644 0.9639 -0.00684 0.0
C944 C 0.3041 0.93662 0.00057 0.0
C945 C 0.30976 0.01476 0.97824 0.0
C946 C 0.30656 -0.0043 0.96006 0.0
C947 C 0.30485 0.97055 0.96771 0.0
C948 C 0.30442 0.00164 0.93303 0.0
C949 C 0.31104 0.04213 0.97093 0.0
C950 C 0.28151 -0.00198 0.92059 0.0
C951 C 0.279 0.00485 0.89536 0.0
C952 C 0.29946 0.01526 0.88208 0.0
C953 C 0.32267 0.01794 0.89446 0.0
C954 C 0.32509 0.01121 0.91971 0.0
H955 H 0.30887 0.0547 0.98743 0.0
H956 H 0.32954 0.04609 0.96205 0.0
H957 H 0.2962 0.0467 0.95704 0.0
H958 H 0.26539 -0.00953 0.9306 0.0
H959 H 0.26089 0.00243 0.88645 0.0
H960 H 0.88667 0.63372 0.94995 0.0
H961 H 0.9303 0.63181 0.96374 0.0
H962 H 0.92271 0.70444 -0.00146 0.0
H963 H 0.87891 0.70663 0.98491 0.0
H964 H 0.96804 0.66714 0.95014 0.0
H965 H 0.95527 0.65971 0.05349 0.0
H966 H 0.93045 0.65273 0.0315 0.0
H967 H 0.93799 0.68476 0.03889 0.0
C968 C 0.89412 0.64925 0.96074 0.0
C969 C 0.87924 0.67042 0.96623 0.0
C970 C 0.91908 0.64807 0.96858 0.0
C971 C 0.9296 0.66789 0.98227 0.0
C972 C 0.91476 0.6888 0.98827 0.0
H973 H 0.08524 0.70933 0.00204 0.0
H974 H 0.04094 0.70659 -0.00993 0.0
C975 C 0.88977 0.69007 0.98037 0.0
C976 C 0.95651 0.66731 0.98897 0.0
H977 H -0.00327 0.66802 0.0387 0.0
C978 C 0.97436 0.66723 0.96949 0.0
C979 C 0.96457 0.66705 0.01422 0.0
C980 C 0.94612 0.66584 0.03578 0.0
C981 C 0.00019 0.66758 0.97462 0.0
C982 C 0.00824 0.66838 -0.00014 0.0
C983 C 0.99041 0.66775 0.01936 0.0
C984 C 0.03514 0.6698 0.00646 0.0
C985 C 0.01867 0.66688 0.95306 0.0
C986 C 0.04634 0.65012 0.01983 0.0
C987 C 0.07158 0.65162 0.02669 0.0
C988 C 0.08604 0.67295 0.02053 0.0
C989 C 0.0747 0.69266 0.00706 0.0
C990 C 0.04943 0.69106 0.00012 0.0
H991 H 0.0097 0.66046 0.93539 0.0
H992 H 0.0263 0.68603 0.94984 0.0
H993 H 0.03468 0.65425 0.95743 0.0
H994 H 0.03555 0.6336 0.02492 0.0
H995 H 0.07965 0.63604 0.03704 0.0
H996 H 0.11088 0.27139 0.9893 0.0
H997 H 0.06596 0.27069 -0.00036 0.0
H998 H 0.0585 0.34666 0.97259 0.0
H999 H 0.1032 0.34775 0.9623 0.0
H1000 H 0.03431 0.30711 0.03009 0.0
H1001 H 0.01046 0.3006 0.92853 0.0
H1002 H 0.0413 0.293 0.94041 0.0
H1003 H 0.03182 0.3252 0.93752 0.0
C1004 C 0.09981 0.28811 0.98596 0.0
C1005 C 0.11062 0.30948 0.97465 0.0
C1006 C 0.07417 0.28765 -0.00817 0.0
C1007 C 0.05902 0.30847 0.98642 0.0
C1008 C 0.06994 0.33031 0.97654 0.0
H1009 H 0.90356 0.33905 0.02133 0.0
H1010 H 0.9486 0.34142 0.01304 0.0
C1011 C 0.09552 0.33085 0.97074 0.0
C1012 C 0.03153 0.30693 0.98979 0.0
H1013 H 0.9765 0.30372 0.95713 0.0
C1014 C 0.02163 0.30633 0.01421 0.0
C1015 C 0.01521 0.30584 0.96891 0.0
C1016 C 0.02512 0.30602 0.94231 0.0
C1017 C -0.0044 0.30493 0.0183 0.0
C1018 C 0.97928 0.30406 -0.00257 0.0
C1019 C 0.98919 0.30441 0.97302 0.0
C1020 C 0.95178 0.30292 0.00071 0.0
C1021 C 0.98564 0.30428 0.04487 0.0
C1022 C 0.93866 0.28064 -0.00427 0.0
C1023 C 0.91283 0.27909 0.0005 0.0
C1024 C 0.89978 0.29992 0.01017 0.0
C1025 C 0.91297 0.32254 0.01406 0.0
C1026 C 0.93874 0.32399 0.00941 0.0
H1027 H 0.00079 0.30093 0.05879 0.0
H1028 H 0.97661 0.32253 0.04926 0.0
H1029 H 0.97115 0.28937 0.04697 0.0
H1030 H 0.94854 0.26425 0.98882 0.0
H1031 H 0.90327 0.26144 -0.00279 0.0
loop_
_geom_bond_atom_site_label_1
_geom_bond_atom_site_label_2
_geom_bond_distance
_geom_bond_site_symmetry_2
_ccdc_geom_bond_type
Co0 O1 2.216 . S
Co0 O2 2.091 . S
Co0 O4 2.004 . S
Co0 O10 2.021 . S
Co0 O12 2.137 . S
Co0 O13 2.244 . S
O1 Co0 2.216 . S
O1 C8 1.247 . S
O2 Co0 2.091 . S
O2 C8 1.261 . S
C3 O12 1.247 . S
C3 O13 1.272 . S
O4 Co0 2.004 . S
O4 C9 1.259 . S
Co5 O6 2.061 . S
Co5 O11 2.052 . S
Co5 O13 2.135 . S
O6 Co5 2.061 . S
O6 C9 1.235 . S
C7 O10 1.238 . S
C7 O11 1.241 . S
C8 O1 1.247 . S
C8 O2 1.261 . S
C9 O4 1.259 . S
C9 O6 1.235 . S
O10 Co0 2.021 . S
O10 C7 1.238 . S
O11 Co5 2.052 . S
O11 C7 1.241 . S
O12 Co0 2.137 . S
O12 C3 1.247 . S
O13 Co0 2.244 . S
O13 C3 1.272 . S
O13 Co5 2.135 . S
Co14 O15 2.216 . S
Co14 O16 2.091 . S
Co14 O18 2.004 . S
Co14 O24 2.021 . S
Co14 O26 2.137 . S
Co14 O27 2.244 . S
O15 Co14 2.216 . S
O15 C22 1.247 . S
O16 Co14 2.091 . S
O16 C22 1.261 . S
C17 O26 1.247 . S
C17 O27 1.272 . S
O18 Co14 2.004 . S
O18 C23 1.259 . S
Co19 O20 2.061 . S
Co19 O25 2.052 . S
Co19 O27 2.135 . S
O20 Co19 2.061 . S
O20 C23 1.235 . S
C21 O24 1.238 . S
C21 O25 1.241 . S
C22 O15 1.247 . S
C22 O16 1.261 . S
C23 O18 1.259 . S
C23 O20 1.235 . S
O24 Co14 2.021 . S
O24 C21 1.238 . S
O25 Co19 2.052 . S
O25 C21 1.241 . S
O26 Co14 2.137 . S
O26 C17 1.247 . S
O27 Co14 2.244 . S
O27 C17 1.272 . S
O27 Co19 2.135 . S
Co28 O29 2.216 . S
Co28 O30 2.091 . S
Co28 O32 2.004 . S
Co28 O38 2.021 . S
Co28 O40 2.137 . S
Co28 O41 2.244 . S
O29 Co28 2.216 . S
O29 C36 1.247 . S
O30 Co28 2.091 . S
O30 C36 1.261 . S
C31 O40 1.247 . S
C31 O41 1.272 . S
O32 Co28 2.004 . S
O32 C37 1.259 . S
Co33 O34 2.061 . S
Co33 O39 2.052 . S
Co33 O41 2.135 . S
O34 Co33 2.061 . S
O34 C37 1.235 . S
C35 O38 1.238 . S
C35 O39 1.241 . S
C36 O29 1.247 . S
C36 O30 1.261 . S
C37 O32 1.259 . S
C37 O34 1.235 . S
O38 Co28 2.021 . S
O38 C35 1.238 . S
O39 Co33 2.052 . S
O39 C35 1.241 . S
O40 Co28 2.137 . S
O40 C31 1.247 . S
O41 Co28 2.244 . S
O41 C31 1.272 . S
O41 Co33 2.135 . S
Co42 O43 2.216 . S
Co42 O44 2.091 . S
Co42 O46 2.004 . S
Co42 O52 2.021 . S
Co42 O54 2.137 . S
Co42 O55 2.244 . S
O43 Co42 2.216 . S
O43 C50 1.247 . S
O44 Co42 2.091 . S
O44 C50 1.261 . S
C45 O54 1.247 . S
C45 O55 1.272 . S
O46 Co42 2.004 . S
O46 C51 1.259 . S
Co47 O48 2.061 . S
Co47 O53 2.052 . S
Co47 O55 2.135 . S
O48 Co47 2.061 . S
O48 C51 1.235 . S
C49 O52 1.238 . S
C49 O53 1.241 . S
C50 O43 1.247 . S
C50 O44 1.261 . S
C51 O46 1.259 . S
C51 O48 1.235 . S
O52 Co42 2.021 . S
O52 C49 1.238 . S
O53 Co47 2.052 . S
O53 C49 1.241 . S
O54 Co42 2.137 . S
O54 C45 1.247 . S
O55 Co42 2.244 . S
O55 C45 1.272 . S
O55 Co47 2.135 . S
Co56 O57 2.216 . S
Co56 O58 2.091 . S
Co56 O60 2.004 . S
Co56 O66 2.021 . S
Co56 O68 2.137 . S
Co56 O69 2.244 . S
O57 Co56 2.216 . S
O57 C64 1.247 . S
O58 Co56 2.091 . S
O58 C64 1.261 . S
C59 O68 1.247 . S
C59 O69 1.272 . S
O60 Co56 2.004 . S
O60 C65 1.259 . S
Co61 O62 2.061 . S
Co61 O67 2.052 . S
Co61 O69 2.135 . S
O62 Co61 2.061 . S
O62 C65 1.235 . S
C63 O66 1.238 . S
C63 O67 1.241 . S
C64 O57 1.247 . S
C64 O58 1.261 . S
C65 O60 1.259 . S
C65 O62 1.235 . S
O66 Co56 2.021 . S
O66 C63 1.238 . S
O67 Co61 2.052 . S
O67 C63 1.241 . S
O68 Co56 2.137 . S
O68 C59 1.247 . S
O69 Co56 2.244 . S
O69 C59 1.272 . S
O69 Co61 2.135 . S
Co70 O71 2.216 . S
Co70 O72 2.091 . S
Co70 O74 2.004 . S
Co70 O80 2.021 . S
Co70 O82 2.137 . S
Co70 O83 2.244 . S
O71 Co70 2.216 . S
O71 C78 1.247 . S
O72 Co70 2.091 . S
O72 C78 1.261 . S
C73 O82 1.247 . S
C73 O83 1.272 . S
O74 Co70 2.004 . S
O74 C79 1.259 . S
Co75 O76 2.061 . S
Co75 O81 2.052 . S
Co75 O83 2.135 . S
O76 Co75 2.061 . S
O76 C79 1.235 . S
C77 O80 1.238 . S
C77 O81 1.241 . S
C78 O71 1.247 . S
C78 O72 1.261 . S
C79 O74 1.259 . S
C79 O76 1.235 . S
O80 Co70 2.021 . S
O80 C77 1.238 . S
O81 Co75 2.052 . S
O81 C77 1.241 . S
O82 Co70 2.137 . S
O82 C73 1.247 . S
O83 Co70 2.244 . S
O83 C73 1.272 . S
O83 Co75 2.135 . S
Co84 O85 2.216 . S
Co84 O86 2.091 . S
Co84 O88 2.004 . S
Co84 O94 2.021 . S
Co84 O96 2.137 . S
Co84 O97 2.244 . S
O85 Co84 2.216 . S
O85 C92 1.247 . S
O86 Co84 2.091 . S
O86 C92 1.261 . S
C87 O96 1.247 . S
C87 O97 1.272 . S
O88 Co84 2.004 . S
O88 C93 1.259 . S
Co89 O90 2.061 . S
Co89 O95 2.052 . S
Co89 O97 2.135 . S
O90 Co89 2.061 . S
O90 C93 1.235 . S
C91 O94 1.238 . S
C91 O95 1.241 . S
C92 O85 1.247 . S
C92 O86 1.261 . S
C93 O88 1.259 . S
C93 O90 1.235 . S
O94 Co84 2.021 . S
O94 C91 1.238 . S
O95 Co89 2.052 . S
O95 C91 1.241 . S
O96 Co84 2.137 . S
O96 C87 1.247 . S
O97 Co84 2.244 . S
O97 C87 1.272 . S
O97 Co89 2.135 . S
Co98 O99 2.216 . S
Co98 O100 2.091 . S
Co98 O102 2.004 . S
Co98 O108 2.021 . S
Co98 O110 2.137 . S
Co98 O111 2.244 . S
O99 Co98 2.216 . S
O99 C106 1.247 . S
O100 Co98 2.091 . S
O100 C106 1.261 . S
C101 O110 1.247 . S
C101 O111 1.272 . S
O102 Co98 2.004 . S
O102 C107 1.259 . S
Co103 O104 2.061 . S
Co103 O109 2.052 . S
Co103 O111 2.135 . S
O104 Co103 2.061 . S
O104 C107 1.235 . S
C105 O108 1.238 . S
C105 O109 1.241 . S
C106 O99 1.247 . S
C106 O100 1.261 . S
C107 O102 1.259 . S
C107 O104 1.235 . S
O108 Co98 2.021 . S
O108 C105 1.238 . S
O109 Co103 2.052 . S
O109 C105 1.241 . S
O110 Co98 2.137 . S
O110 C101 1.247 . S
O111 Co98 2.244 . S
O111 C101 1.272 . S
O111 Co103 2.135 . S
Co112 O113 2.216 . S
Co112 O114 2.091 . S
Co112 O116 2.004 . S
Co112 O122 2.021 . S
Co112 O124 2.137 . S
Co112 O125 2.244 . S
O113 Co112 2.216 . S
O113 C120 1.247 . S
O114 Co112 2.091 . S
O114 C120 1.261 . S
C115 O124 1.247 . S
C115 O125 1.272 . S
O116 Co112 2.004 . S
O116 C121 1.259 . S
Co117 O118 2.061 . S
Co117 O123 2.052 . S
Co117 O125 2.135 . S
O118 Co117 2.061 . S
O118 C121 1.235 . S
C119 O122 1.238 . S
C119 O123 1.241 . S
C120 O113 1.247 . S
C120 O114 1.261 . S
C121 O116 1.259 . S
C121 O118 1.235 . S
O122 Co112 2.021 . S
O122 C119 1.238 . S
O123 Co117 2.052 . S
O123 C119 1.241 . S
O124 Co112 2.137 . S
O124 C115 1.247 . S
O125 Co112 2.244 . S
O125 C115 1.272 . S
O125 Co117 2.135 . S
Co126 O127 2.216 . S
Co126 O128 2.091 . S
Co126 O130 2.004 . S
Co126 O136 2.021 . S
Co126 O138 2.137 . S
Co126 O139 2.244 . S
O127 Co126 2.216 . S
O127 C134 1.247 . S
O128 Co126 2.091 . S
O128 C134 1.261 . S
C129 O138 1.247 . S
C129 O139 1.272 . S
O130 Co126 2.004 . S
O130 C135 1.259 . S
Co131 O132 2.061 . S
Co131 O137 2.052 . S
Co131 O139 2.135 . S
O132 Co131 2.061 . S
O132 C135 1.235 . S
C133 O136 1.238 . S
C133 O137 1.241 . S
C134 O127 1.247 . S
C134 O128 1.261 . S
C135 O130 1.259 . S
C135 O132 1.235 . S
O136 Co126 2.021 . S
O136 C133 1.238 . S
O137 Co131 2.052 . S
O137 C133 1.241 . S
O138 Co126 2.137 . S
O138 C129 1.247 . S
O139 Co126 2.244 . S
O139 C129 1.272 . S
O139 Co131 2.135 . S
Co140 O141 2.216 . S
Co140 O142 2.091 . S
Co140 O144 2.004 . S
Co140 O150 2.021 . S
Co140 O152 2.137 . S
Co140 O153 2.244 . S
O141 Co140 2.216 . S
O141 C148 1.247 . S
O142 Co140 2.091 . S
O142 C148 1.261 . S
C143 O152 1.247 . S
C143 O153 1.272 . S
O144 Co140 2.004 . S
O144 C149 1.259 . S
Co145 O146 2.061 . S
Co145 O151 2.052 . S
Co145 O153 2.135 . S
O146 Co145 2.061 . S
O146 C149 1.235 . S
C147 O150 1.238 . S
C147 O151 1.241 . S
C148 O141 1.247 . S
C148 O142 1.261 . S
C149 O144 1.259 . S
C149 O146 1.235 . S
O150 Co140 2.021 . S
O150 C147 1.238 . S
O151 Co145 2.052 . S
O151 C147 1.241 . S
O152 Co140 2.137 . S
O152 C143 1.247 . S
O153 Co140 2.244 . S
O153 C143 1.272 . S
O153 Co145 2.135 . S
Co154 O155 2.216 . S
Co154 O156 2.091 . S
Co154 O158 2.004 . S
Co154 O164 2.021 . S
Co154 O166 2.137 . S
Co154 O167 2.244 . S
O155 Co154 2.216 . S
O155 C162 1.247 . S
O156 Co154 2.091 . S
O156 C162 1.261 . S
C157 O166 1.247 . S
C157 O167 1.272 . S
O158 Co154 2.004 . S
O158 C163 1.259 . S
Co159 O160 2.061 . S
Co159 O165 2.052 . S
Co159 O167 2.135 . S
O160 Co159 2.061 . S
O160 C163 1.235 . S
C161 O164 1.238 . S
C161 O165 1.241 . S
C162 O155 1.247 . S
C162 O156 1.261 . S
C163 O158 1.259 . S
C163 O160 1.235 . S
O164 Co154 2.021 . S
O164 C161 1.238 . S
O165 Co159 2.052 . S
O165 C161 1.241 . S
O166 Co154 2.137 . S
O166 C157 1.247 . S
O167 Co154 2.244 . S
O167 C157 1.272 . S
O167 Co159 2.135 . S
H168 C176 0.929 . S
H169 C178 0.930 . S
H170 C180 0.930 . S
H171 C183 0.929 . S
H172 C186 0.930 . S
H173 C188 0.960 . S
H174 C188 0.960 . S
H175 C188 0.960 . S
C176 H168 0.929 . S
C176 C177 1.377 . S
C176 C178 1.384 . S
C177 C176 1.377 . S
C177 C183 1.390 . S
C178 H169 0.930 . S
C178 C176 1.384 . S
C178 C179 1.372 . S
C179 C178 1.372 . S
C179 C180 1.400 . S
C179 C184 1.490 . S
C180 H170 0.930 . S
C180 C179 1.400 . S
C180 C183 1.386 . S
H181 C197 0.930 . S
H182 C198 0.931 . S
C183 H171 0.929 . S
C183 C177 1.390 . S
C183 C180 1.386 . S
C184 C179 1.490 . S
C184 C186 1.395 . S
C184 C187 1.403 1_655 S
H185 C191 0.930 . S
C186 H172 0.930 . S
C186 C184 1.395 . S
C186 C189 1.403 . S
C187 C184 1.403 1_455 S
C187 C188 1.524 . S
C187 C191 1.400 . S
C188 H173 0.960 . S
C188 H174 0.960 . S
C188 H175 0.960 . S
C188 C187 1.524 . S
C189 C186 1.403 . S
C189 C190 1.392 1_655 S
C189 C193 1.495 . S
C190 C189 1.392 1_455 S
C190 C191 1.385 . S
C190 C192 1.478 . S
C191 H185 0.930 . S
C191 C187 1.400 . S
C191 C190 1.385 . S
C192 C190 1.478 . S
C192 C194 1.381 . S
C192 C198 1.383 . S
C193 C189 1.495 . S
C193 H199 0.959 . S
C193 H200 0.961 . S
C193 H201 0.960 . S
C194 C192 1.381 . S
C194 C195 1.394 . S
C194 H202 0.930 . S
C195 C194 1.394 . S
C195 C196 1.383 . S
C195 H203 0.929 . S
C196 C195 1.383 . S
C196 C197 1.377 . S
C197 H181 0.930 . S
C197 C196 1.377 . S
C197 C198 1.379 . S
C198 H182 0.931 . S
C198 C192 1.383 . S
C198 C197 1.379 . S
H199 C193 0.959 . S
H200 C193 0.961 . S
H201 C193 0.960 . S
H202 C194 0.930 . S
H203 C195 0.929 . S
H204 C212 0.929 . S
H205 C214 0.930 . S
H206 C216 0.930 . S
H207 C219 0.929 . S
H208 C222 0.930 . S
H209 C224 0.960 . S
H210 C224 0.960 . S
H211 C224 0.960 . S
C212 H204 0.929 . S
C212 C213 1.377 . S
C212 C214 1.384 . S
C213 C212 1.377 . S
C213 C219 1.390 . S
C214 H205 0.930 . S
C214 C212 1.384 . S
C214 C215 1.372 . S
C215 C214 1.372 . S
C215 C216 1.400 . S
C215 C220 1.490 . S
C216 H206 0.930 . S
C216 C215 1.400 . S
C216 C219 1.386 . S
H217 C233 0.930 . S
H218 C234 0.931 . S
C219 H207 0.929 . S
C219 C213 1.390 . S
C219 C216 1.386 . S
C220 C215 1.490 . S
C220 C222 1.395 . S
C220 C223 1.403 1_455 S
H221 C227 0.930 . S
C222 H208 0.930 . S
C222 C220 1.395 . S
C222 C225 1.403 . S
C223 C220 1.403 1_655 S
C223 C224 1.524 . S
C223 C227 1.400 . S
C224 H209 0.960 . S
C224 H210 0.960 . S
C224 H211 0.960 . S
C224 C223 1.524 . S
C225 C222 1.403 . S
C225 C226 1.392 1_455 S
C225 C229 1.495 . S
C226 C225 1.392 1_655 S
C226 C227 1.385 . S
C226 C228 1.478 . S
C227 H221 0.930 . S
C227 C223 1.400 . S
C227 C226 1.385 . S
C228 C226 1.478 . S
C228 C230 1.381 . S
C228 C234 1.383 . S
C229 C225 1.495 . S
C229 H235 0.959 . S
C229 H236 0.961 . S
C229 H237 0.960 . S
C230 C228 1.381 . S
C230 C231 1.394 . S
C230 H238 0.930 . S
C231 C230 1.394 . S
C231 C232 1.383 . S
C231 H239 0.929 . S
C232 C231 1.383 . S
C232 C233 1.377 . S
C233 H217 0.930 . S
C233 C232 1.377 . S
C233 C234 1.379 . S
C234 H218 0.931 . S
C234 C228 1.383 . S
C234 C233 1.379 . S
H235 C229 0.959 . S
H236 C229 0.961 . S
H237 C229 0.960 . S
H238 C230 0.930 . S
H239 C231 0.929 . S
H240 C248 0.929 . S
H241 C250 0.930 . S
H242 C252 0.930 . S
H243 C255 0.929 . S
H244 C258 0.930 . S
H245 C260 0.960 . S
H246 C260 0.960 . S
H247 C260 0.960 . S
C248 H240 0.929 . S
C248 C249 1.377 . S
C248 C250 1.384 . S
C249 C248 1.377 . S
C249 C255 1.390 . S
C250 H241 0.930 . S
C250 C248 1.384 . S
C250 C251 1.372 . S
C251 C250 1.372 . S
C251 C252 1.400 . S
C251 C256 1.490 . S
C252 H242 0.930 . S
C252 C251 1.400 . S
C252 C255 1.386 . S
H253 C269 0.930 . S
H254 C270 0.931 . S
C255 H243 0.929 . S
C255 C249 1.390 . S
C255 C252 1.386 . S
C256 C251 1.490 . S
C256 C258 1.395 1_565 S
C256 C259 1.403 . S
H257 C263 0.930 . S
C258 H244 0.930 . S
C258 C256 1.395 1_545 S
C258 C261 1.403 . S
C259 C256 1.403 . S
C259 C260 1.524 . S
C259 C263 1.400 . S
C260 H245 0.960 . S
C260 H246 0.960 . S
C260 H247 0.960 . S
C260 C259 1.524 . S
C261 C258 1.403 . S
C261 C262 1.392 . S
C261 C265 1.495 . S
C262 C261 1.392 . S
C262 C263 1.385 1_545 S
C262 C264 1.478 . S
C263 H257 0.930 . S
C263 C259 1.400 . S
C263 C262 1.385 1_565 S
C264 C262 1.478 . S
C264 C266 1.381 . S
C264 C270 1.383 . S
C265 C261 1.495 . S
C265 H271 0.959 . S
C265 H272 0.961 . S
C265 H273 0.960 . S
C266 C264 1.381 . S
C266 C267 1.394 . S
C266 H274 0.930 . S
C267 C266 1.394 . S
C267 C268 1.383 . S
C267 H275 0.929 . S
C268 C267 1.383 . S
C268 C269 1.377 . S
C269 H253 0.930 . S
C269 C268 1.377 . S
C269 C270 1.379 . S
C270 H254 0.931 . S
C270 C264 1.383 . S
C270 C269 1.379 . S
H271 C265 0.959 . S
H272 C265 0.961 . S
H273 C265 0.960 . S
H274 C266 0.930 . S
H275 C267 0.929 . S
H276 C284 0.929 . S
H277 C286 0.930 . S
H278 C288 0.930 . S
H279 C291 0.929 . S
H280 C294 0.930 . S
H281 C296 0.960 . S
H282 C296 0.960 . S
H283 C296 0.960 . S
C284 H276 0.929 . S
C284 C285 1.377 . S
C284 C286 1.384 . S
C285 C284 1.377 . S
C285 C291 1.390 . S
C286 H277 0.930 . S
C286 C284 1.384 . S
C286 C287 1.372 . S
C287 C286 1.372 . S
C287 C288 1.400 . S
C287 C292 1.490 . S
C288 H278 0.930 . S
C288 C287 1.400 . S
C288 C291 1.386 . S
H289 C305 0.930 . S
H290 C306 0.931 . S
C291 H279 0.929 . S
C291 C285 1.390 . S
C291 C288 1.386 . S
C292 C287 1.490 . S
C292 C294 1.395 . S
C292 C295 1.403 1_565 S
H293 C299 0.930 . S
C294 H280 0.930 . S
C294 C292 1.395 . S
C294 C297 1.403 . S
C295 C292 1.403 1_545 S
C295 C296 1.524 . S
C295 C299 1.400 . S
C296 H281 0.960 . S
C296 H282 0.960 . S
C296 H283 0.960 . S
C296 C295 1.524 . S
C297 C294 1.403 . S
C297 C298 1.392 1_565 S
C297 C301 1.495 . S
C298 C297 1.392 1_545 S
C298 C299 1.385 . S
C298 C300 1.478 . S
C299 H293 0.930 . S
C299 C295 1.400 . S
C299 C298 1.385 . S
C300 C298 1.478 . S
C300 C302 1.381 . S
C300 C306 1.383 . S
C301 C297 1.495 . S
C301 H307 0.959 . S
C301 H308 0.961 . S
C301 H309 0.960 . S
C302 C300 1.381 . S
C302 C303 1.394 . S
C302 H310 0.930 . S
C303 C302 1.394 . S
C303 C304 1.383 . S
C303 H311 0.929 . S
C304 C303 1.383 . S
C304 C305 1.377 . S
C305 H289 0.930 . S
C305 C304 1.377 . S
C305 C306 1.379 . S
C306 H290 0.931 . S
C306 C300 1.383 . S
C306 C305 1.379 . S
H307 C301 0.959 . S
H308 C301 0.961 . S
H309 C301 0.960 . S
H310 C302 0.930 . S
H311 C303 0.929 . S
H312 C320 0.929 . S
H313 C322 0.930 . S
H314 C324 0.930 . S
H315 C327 0.929 . S
H316 C330 0.930 . S
H317 C332 0.960 . S
H318 C332 0.960 . S
H319 C332 0.960 . S
C320 H312 0.929 . S
C320 C321 1.377 . S
C320 C322 1.384 . S
C321 C320 1.377 . S
C321 C327 1.390 . S
C322 H313 0.930 . S
C322 C320 1.384 . S
C322 C323 1.372 . S
C323 C322 1.372 . S
C323 C324 1.400 . S
C323 C328 1.490 . S
C324 H314 0.930 . S
C324 C323 1.400 . S
C324 C327 1.386 . S
H325 C341 0.930 . S
H326 C342 0.931 . S
C327 H315 0.929 . S
C327 C321 1.390 . S
C327 C324 1.386 . S
C328 C323 1.490 . S
C328 C330 1.395 1_556 S
C328 C331 1.403 . S
H329 C335 0.930 . S
C330 H316 0.930 . S
C330 C328 1.395 1_554 S
C330 C333 1.403 . S
C331 C328 1.403 . S
C331 C332 1.524 . S
C331 C335 1.400 . S
C332 H317 0.960 . S
C332 H318 0.960 . S
C332 H319 0.960 . S
C332 C331 1.524 . S
C333 C330 1.403 . S
C333 C334 1.392 . S
C333 C337 1.495 . S
C334 C333 1.392 . S
C334 C335 1.385 1_554 S
C334 C336 1.478 . S
C335 H329 0.930 . S
C335 C331 1.400 . S
C335 C334 1.385 1_556 S
C336 C334 1.478 . S
C336 C338 1.381 . S
C336 C342 1.383 . S
C337 C333 1.495 . S
C337 H343 0.959 . S
C337 H344 0.961 . S
C337 H345 0.960 . S
C338 C336 1.381 . S
C338 C339 1.394 . S
C338 H346 0.930 . S
C339 C338 1.394 . S
C339 C340 1.383 . S
C339 H347 0.929 . S
C340 C339 1.383 . S
C340 C341 1.377 . S
C341 H325 0.930 . S
C341 C340 1.377 . S
C341 C342 1.379 . S
C342 H326 0.931 . S
C342 C336 1.383 . S
C342 C341 1.379 . S
H343 C337 0.959 . S
H344 C337 0.961 . S
H345 C337 0.960 . S
H346 C338 0.930 . S
H347 C339 0.929 . S
H348 C356 0.929 . S
H349 C358 0.930 . S
H350 C360 0.930 . S
H351 C363 0.929 . S
H352 C366 0.930 . S
H353 C368 0.960 . S
H354 C368 0.960 . S
H355 C368 0.960 . S
C356 H348 0.929 . S
C356 C357 1.377 . S
C356 C358 1.384 . S
C357 C356 1.377 . S
C357 C363 1.390 . S
C358 H349 0.930 . S
C358 C356 1.384 . S
C358 C359 1.372 . S
C359 C358 1.372 . S
C359 C360 1.400 . S
C359 C364 1.490 . S
C360 H350 0.930 . S
C360 C359 1.400 . S
C360 C363 1.386 . S
H361 C377 0.930 . S
H362 C378 0.931 . S
C363 H351 0.929 . S
C363 C357 1.390 . S
C363 C360 1.386 . S
C364 C359 1.490 . S
C364 C366 1.395 . S
C364 C367 1.403 1_556 S
H365 C371 0.930 . S
C366 H352 0.930 . S
C366 C364 1.395 . S
C366 C369 1.403 . S
C367 C364 1.403 1_554 S
C367 C368 1.524 . S
C367 C371 1.400 . S
C368 H353 0.960 . S
C368 H354 0.960 . S
C368 H355 0.960 . S
C368 C367 1.524 . S
C369 C366 1.403 . S
C369 C370 1.392 1_556 S
C369 C373 1.495 . S
C370 C369 1.392 1_554 S
C370 C371 1.385 . S
C370 C372 1.478 . S
C371 H365 0.930 . S
C371 C367 1.400 . S
C371 C370 1.385 . S
C372 C370 1.478 . S
C372 C374 1.381 . S
C372 C378 1.383 . S
C373 C369 1.495 . S
C373 H379 0.959 . S
C373 H380 0.961 . S
C373 H381 0.960 . S
C374 C372 1.381 . S
C374 C375 1.394 . S
C374 H382 0.930 . S
C375 C374 1.394 . S
C375 C376 1.383 . S
C375 H383 0.929 . S
C376 C375 1.383 . S
C376 C377 1.377 . S
C377 H361 0.930 . S
C377 C376 1.377 . S
C377 C378 1.379 . S
C378 H362 0.931 . S
C378 C372 1.383 . S
C378 C377 1.379 . S
H379 C373 0.959 . S
H380 C373 0.961 . S
H381 C373 0.960 . S
H382 C374 0.930 . S
H383 C375 0.929 . S
H384 C392 0.929 . S
H385 C394 0.930 . S
H386 C396 0.930 . S
H387 C399 0.929 . S
H388 C402 0.930 . S
H389 C404 0.960 . S
H390 C404 0.960 . S
H391 C404 0.960 . S
C392 H384 0.929 . S
C392 C393 1.377 . S
C392 C394 1.384 . S
C393 C392 1.377 . S
C393 C399 1.390 . S
C394 H385 0.930 . S
C394 C392 1.384 . S
C394 C395 1.372 . S
C395 C394 1.372 . S
C395 C396 1.400 . S
C395 C400 1.490 . S
C396 H386 0.930 . S
C396 C395 1.400 . S
C396 C399 1.386 . S
H397 C413 0.930 . S
H398 C414 0.931 . S
C399 H387 0.929 . S
C399 C393 1.390 . S
C399 C396 1.386 . S
C400 C395 1.490 . S
C400 C402 1.395 . S
C400 C403 1.403 . S
H401 C407 0.930 . S
C402 H388 0.930 . S
C402 C400 1.395 . S
C402 C405 1.403 . S
C403 C400 1.403 . S
C403 C404 1.524 . S
C403 C407 1.400 . S
C404 H389 0.960 . S
C404 H390 0.960 . S
C404 H391 0.960 . S
C404 C403 1.524 . S
C405 C402 1.403 . S
C405 C406 1.392 . S
C405 C409 1.495 . S
C406 C405 1.392 . S
C406 C407 1.385 . S
C406 C408 1.478 . S
C407 H401 0.930 . S
C407 C403 1.400 . S
C407 C406 1.385 . S
C408 C406 1.478 . S
C408 C410 1.381 . S
C408 C414 1.383 . S
C409 C405 1.495 . S
C409 H415 0.959 . S
C409 H416 0.961 . S
C409 H417 0.960 . S
C410 C408 1.381 . S
C410 C411 1.394 . S
C410 H418 0.930 . S
C411 C410 1.394 . S
C411 C412 1.383 . S
C411 H419 0.929 . S
C412 C411 1.383 . S
C412 C413 1.377 . S
C413 H397 0.930 . S
C413 C412 1.377 . S
C413 C414 1.379 . S
C414 H398 0.931 . S
C414 C408 1.383 . S
C414 C413 1.379 . S
H415 C409 0.959 . S
H416 C409 0.961 . S
H417 C409 0.960 . S
H418 C410 0.930 . S
H419 C411 0.929 . S
H420 C428 0.929 . S
H421 C430 0.930 . S
H422 C432 0.930 . S
H423 C435 0.929 . S
H424 C438 0.930 . S
H425 C440 0.960 . S
H426 C440 0.960 . S
H427 C440 0.960 . S
C428 H420 0.929 . S
C428 C429 1.377 . S
C428 C430 1.384 . S
C429 C428 1.377 . S
C429 C435 1.390 . S
C430 H421 0.930 . S
C430 C428 1.384 . S
C430 C431 1.372 . S
C431 C430 1.372 . S
C431 C432 1.400 . S
C431 C436 1.490 . S
C432 H422 0.930 . S
C432 C431 1.400 . S
C432 C435 1.386 . S
H433 C449 0.930 . S
H434 C450 0.931 . S
C435 H423 0.929 . S
C435 C429 1.390 . S
C435 C432 1.386 . S
C436 C431 1.490 . S
C436 C438 1.395 . S
C436 C439 1.403 . S
H437 C443 0.930 . S
C438 H424 0.930 . S
C438 C436 1.395 . S
C438 C441 1.403 . S
C439 C436 1.403 . S
C439 C440 1.524 . S
C439 C443 1.400 . S
C440 H425 0.960 . S
C440 H426 0.960 . S
C440 H427 0.960 . S
C440 C439 1.524 . S
C441 C438 1.403 . S
C441 C442 1.392 . S
C441 C445 1.495 . S
C442 C441 1.392 . S
C442 C443 1.385 . S
C442 C444 1.478 . S
C443 H437 0.930 . S
C443 C439 1.400 . S
C443 C442 1.385 . S
C444 C442 1.478 . S
C444 C446 1.381 . S
C444 C450 1.383 . S
C445 C441 1.495 . S
C445 H451 0.959 . S
C445 H452 0.961 . S
C445 H453 0.960 . S
C446 C444 1.381 . S
C446 C447 1.394 . S
C446 H454 0.930 . S
C447 C446 1.394 . S
C447 C448 1.383 . S
C447 H455 0.929 . S
C448 C447 1.383 . S
C448 C449 1.377 . S
C449 H433 0.930 . S
C449 C448 1.377 . S
C449 C450 1.379 . S
C450 H434 0.931 . S
C450 C444 1.383 . S
C450 C449 1.379 . S
H451 C445 0.959 . S
H452 C445 0.961 . S
H453 C445 0.960 . S
H454 C446 0.930 . S
H455 C447 0.929 . S
H456 C464 0.929 . S
H457 C466 0.930 . S
H458 C468 0.930 . S
H459 C471 0.929 . S
H460 C474 0.930 . S
H461 C476 0.960 . S
H462 C476 0.960 . S
H463 C476 0.960 . S
C464 H456 0.929 . S
C464 C465 1.377 . S
C464 C466 1.384 . S
C465 C464 1.377 . S
C465 C471 1.390 . S
C466 H457 0.930 . S
C466 C464 1.384 . S
C466 C467 1.372 . S
C467 C466 1.372 . S
C467 C468 1.400 . S
C467 C472 1.490 . S
C468 H458 0.930 . S
C468 C467 1.400 . S
C468 C471 1.386 . S
H469 C485 0.930 . S
H470 C486 0.931 . S
C471 H459 0.929 . S
C471 C465 1.390 . S
C471 C468 1.386 . S
C472 C467 1.490 . S
C472 C474 1.395 . S
C472 C475 1.403 . S
H473 C479 0.930 . S
C474 H460 0.930 . S
C474 C472 1.395 . S
C474 C477 1.403 . S
C475 C472 1.403 . S
C475 C476 1.524 . S
C475 C479 1.400 . S
C476 H461 0.960 . S
C476 H462 0.960 . S
C476 H463 0.960 . S
C476 C475 1.524 . S
C477 C474 1.403 . S
C477 C478 1.392 . S
C477 C481 1.495 . S
C478 C477 1.392 . S
C478 C479 1.385 . S
C478 C480 1.478 . S
C479 H473 0.930 . S
C479 C475 1.400 . S
C479 C478 1.385 . S
C480 C478 1.478 . S
C480 C482 1.381 . S
C480 C486 1.383 . S
C481 C477 1.495 . S
C481 H487 0.959 . S
C481 H488 0.961 . S
C481 H489 0.960 . S
C482 C480 1.381 . S
C482 C483 1.394 . S
C482 H490 0.930 . S
C483 C482 1.394 . S
C483 C484 1.383 . S
C483 H491 0.929 . S
C484 C483 1.383 . S
C484 C485 1.377 . S
C485 H469 0.930 . S
C485 C484 1.377 . S
C485 C486 1.379 . S
C486 H470 0.931 . S
C486 C480 1.383 . S
C486 C485 1.379 . S
H487 C481 0.959 . S
H488 C481 0.961 . S
H489 C481 0.960 . S
H490 C482 0.930 . S
H491 C483 0.929 . S
H492 C500 0.929 . S
H493 C502 0.930 . S
H494 C504 0.930 . S
H495 C507 0.929 . S
H496 C510 0.930 . S
H497 C512 0.960 . S
H498 C512 0.960 . S
H499 C512 0.960 . S
C500 H492 0.929 . S
C500 C501 1.377 . S
C500 C502 1.384 . S
C501 C500 1.377 . S
C501 C507 1.390 . S
C502 H493 0.930 . S
C502 C500 1.384 . S
C502 C503 1.372 . S
C503 C502 1.372 . S
C503 C504 1.400 . S
C503 C508 1.490 . S
C504 H494 0.930 . S
C504 C503 1.400 . S
C504 C507 1.386 . S
H505 C521 0.930 . S
H506 C522 0.931 . S
C507 H495 0.929 . S
C507 C501 1.390 . S
C507 C504 1.386 . S
C508 C503 1.490 . S
C508 C510 1.395 . S
C508 C511 1.403 . S
H509 C515 0.930 . S
C510 H496 0.930 . S
C510 C508 1.395 . S
C510 C513 1.403 . S
C511 C508 1.403 . S
C511 C512 1.524 . S
C511 C515 1.400 . S
C512 H497 0.960 . S
C512 H498 0.960 . S
C512 H499 0.960 . S
C512 C511 1.524 . S
C513 C510 1.403 . S
C513 C514 1.392 . S
C513 C517 1.495 . S
C514 C513 1.392 . S
C514 C515 1.385 . S
C514 C516 1.478 . S
C515 H509 0.930 . S
C515 C511 1.400 . S
C515 C514 1.385 . S
C516 C514 1.478 . S
C516 C518 1.381 . S
C516 C522 1.383 . S
C517 C513 1.495 . S
C517 H523 0.959 . S
C517 H524 0.961 . S
C517 H525 0.960 . S
C518 C516 1.381 . S
C518 C519 1.394 . S
C518 H526 0.930 . S
C519 C518 1.394 . S
C519 C520 1.383 . S
C519 H527 0.929 . S
C520 C519 1.383 . S
C520 C521 1.377 . S
C521 H505 0.930 . S
C521 C520 1.377 . S
C521 C522 1.379 . S
C522 H506 0.931 . S
C522 C516 1.383 . S
C522 C521 1.379 . S
H523 C517 0.959 . S
H524 C517 0.961 . S
H525 C517 0.960 . S
H526 C518 0.930 . S
H527 C519 0.929 . S
H528 C536 0.929 . S
H529 C538 0.930 . S
H530 C540 0.930 . S
H531 C543 0.929 . S
H532 C546 0.930 . S
H533 C548 0.960 . S
H534 C548 0.960 . S
H535 C548 0.960 . S
C536 H528 0.929 . S
C536 C537 1.377 . S
C536 C538 1.384 . S
C537 C536 1.377 . S
C537 C543 1.390 . S
C538 H529 0.930 . S
C538 C536 1.384 . S
C538 C539 1.372 . S
C539 C538 1.372 . S
C539 C540 1.400 . S
C539 C544 1.490 . S
C540 H530 0.930 . S
C540 C539 1.400 . S
C540 C543 1.386 . S
H541 C557 0.930 . S
H542 C558 0.931 . S
C543 H531 0.929 . S
C543 C537 1.390 . S
C543 C540 1.386 . S
C544 C539 1.490 . S
C544 C546 1.395 . S
C544 C547 1.403 . S
H545 C551 0.930 . S
C546 H532 0.930 . S
C546 C544 1.395 . S
C546 C549 1.403 . S
C547 C544 1.403 . S
C547 C548 1.524 . S
C547 C551 1.400 . S
C548 H533 0.960 . S
C548 H534 0.960 . S
C548 H535 0.960 . S
C548 C547 1.524 . S
C549 C546 1.403 . S
C549 C550 1.392 . S
C549 C553 1.495 . S
C550 C549 1.392 . S
C550 C551 1.385 . S
C550 C552 1.478 . S
C551 H545 0.930 . S
C551 C547 1.400 . S
C551 C550 1.385 . S
C552 C550 1.478 . S
C552 C554 1.381 . S
C552 C558 1.383 . S
C553 C549 1.495 . S
C553 H559 0.959 . S
C553 H560 0.961 . S
C553 H561 0.960 . S
C554 C552 1.381 . S
C554 C555 1.394 . S
C554 H562 0.930 . S
C555 C554 1.394 . S
C555 C556 1.383 . S
C555 H563 0.929 . S
C556 C555 1.383 . S
C556 C557 1.377 . S
C557 H541 0.930 . S
C557 C556 1.377 . S
C557 C558 1.379 . S
C558 H542 0.931 . S
C558 C552 1.383 . S
C558 C557 1.379 . S
H559 C553 0.959 . S
H560 C553 0.961 . S
H561 C553 0.960 . S
H562 C554 0.930 . S
H563 C555 0.929 . S
H564 C572 0.929 . S
H565 C574 0.930 . S
H566 C576 0.930 . S
H567 C579 0.929 . S
H568 C582 0.930 . S
H569 C584 0.960 . S
H570 C584 0.960 . S
H571 C584 0.960 . S
C572 H564 0.929 . S
C572 C573 1.377 . S
C572 C574 1.384 . S
C573 C572 1.377 . S
C573 C579 1.390 . S
C574 H565 0.930 . S
C574 C572 1.384 . S
C574 C575 1.372 . S
C575 C574 1.372 . S
C575 C576 1.400 . S
C575 C580 1.490 . S
C576 H566 0.930 . S
C576 C575 1.400 . S
C576 C579 1.386 . S
H577 C593 0.930 . S
H578 C594 0.931 . S
C579 H567 0.929 . S
C579 C573 1.390 . S
C579 C576 1.386 . S
C580 C575 1.490 . S
C580 C582 1.395 . S
C580 C583 1.403 . S
H581 C587 0.930 . S
C582 H568 0.930 . S
C582 C580 1.395 . S
C582 C585 1.403 . S
C583 C580 1.403 . S
C583 C584 1.524 . S
C583 C587 1.400 . S
C584 H569 0.960 . S
C584 H570 0.960 . S
C584 H571 0.960 . S
C584 C583 1.524 . S
C585 C582 1.403 . S
C585 C586 1.392 . S
C585 C589 1.495 . S
C586 C585 1.392 . S
C586 C587 1.385 . S
C586 C588 1.478 . S
C587 H581 0.930 . S
C587 C583 1.400 . S
C587 C586 1.385 . S
C588 C586 1.478 . S
C588 C590 1.381 . S
C588 C594 1.383 . S
C589 C585 1.495 . S
C589 H595 0.959 . S
C589 H596 0.961 . S
C589 H597 0.960 . S
C590 C588 1.381 . S
C590 C591 1.394 . S
C590 H598 0.930 . S
C591 C590 1.394 . S
C591 C592 1.383 . S
C591 H599 0.929 . S
C592 C591 1.383 . S
C592 C593 1.377 . S
C593 H577 0.930 . S
C593 C592 1.377 . S
C593 C594 1.379 . S
C594 H578 0.931 . S
C594 C588 1.383 . S
C594 C593 1.379 . S
H595 C589 0.959 . S
H596 C589 0.961 . S
H597 C589 0.960 . S
H598 C590 0.930 . S
H599 C591 0.929 . S
H600 C608 0.929 . S
H601 C610 0.930 . S
H602 C612 0.930 . S
H603 C615 0.929 . S
H604 C618 0.930 . S
H605 C620 0.960 . S
H606 C620 0.960 . S
H607 C620 0.960 . S
C608 H600 0.929 . S
C608 C609 1.377 . S
C608 C610 1.384 . S
C609 C608 1.377 . S
C609 C615 1.390 . S
C610 H601 0.930 . S
C610 C608 1.384 . S
C610 C611 1.372 . S
C611 C610 1.372 . S
C611 C612 1.400 . S
C611 C616 1.490 . S
C612 H602 0.930 . S
C612 C611 1.400 . S
C612 C615 1.386 . S
H613 C629 0.930 . S
H614 C630 0.931 . S
C615 H603 0.929 . S
C615 C609 1.390 . S
C615 C612 1.386 . S
C616 C611 1.490 . S
C616 C618 1.395 . S
C616 C619 1.403 . S
H617 C623 0.930 . S
C618 H604 0.930 . S
C618 C616 1.395 . S
C618 C621 1.403 . S
C619 C616 1.403 . S
C619 C620 1.524 . S
C619 C623 1.400 . S
C620 H605 0.960 . S
C620 H606 0.960 . S
C620 H607 0.960 . S
C620 C619 1.524 . S
C621 C618 1.403 . S
C621 C622 1.392 . S
C621 C625 1.495 . S
C622 C621 1.392 . S
C622 C623 1.385 . S
C622 C624 1.478 . S
C623 H617 0.930 . S
C623 C619 1.400 . S
C623 C622 1.385 . S
C624 C622 1.478 . S
C624 C626 1.381 . S
C624 C630 1.383 . S
C625 C621 1.495 . S
C625 H631 0.959 . S
C625 H632 0.961 . S
C625 H633 0.960 . S
C626 C624 1.381 . S
C626 C627 1.394 . S
C626 H634 0.930 . S
C627 C626 1.394 . S
C627 C628 1.383 . S
C627 H635 0.929 . S
C628 C627 1.383 . S
C628 C629 1.377 . S
C629 H613 0.930 . S
C629 C628 1.377 . S
C629 C630 1.379 . S
C630 H614 0.931 . S
C630 C624 1.383 . S
C630 C629 1.379 . S
H631 C625 0.959 . S
H632 C625 0.961 . S
H633 C625 0.960 . S
H634 C626 0.930 . S
H635 C627 0.929 . S
H636 C644 0.929 . S
H637 C646 0.930 . S
H638 C648 0.930 . S
H639 C651 0.929 . S
H640 C654 0.930 . S
H641 C656 0.960 . S
H642 C656 0.960 . S
H643 C656 0.960 . S
C644 H636 0.929 . S
C644 C645 1.377 . S
C644 C646 1.384 . S
C645 C644 1.377 . S
C645 C651 1.390 . S
C646 H637 0.930 . S
C646 C644 1.384 . S
C646 C647 1.372 . S
C647 C646 1.372 . S
C647 C648 1.400 . S
C647 C652 1.490 . S
C648 H638 0.930 . S
C648 C647 1.400 . S
C648 C651 1.386 . S
H649 C665 0.930 . S
H650 C666 0.931 . S
C651 H639 0.929 . S
C651 C645 1.390 . S
C651 C648 1.386 . S
C652 C647 1.490 . S
C652 C654 1.395 . S
C652 C655 1.403 . S
H653 C659 0.930 . S
C654 H640 0.930 . S
C654 C652 1.395 . S
C654 C657 1.403 . S
C655 C652 1.403 . S
C655 C656 1.524 . S
C655 C659 1.400 . S
C656 H641 0.960 . S
C656 H642 0.960 . S
C656 H643 0.960 . S
C656 C655 1.524 . S
C657 C654 1.403 . S
C657 C658 1.392 . S
C657 C661 1.495 . S
C658 C657 1.392 . S
C658 C659 1.385 . S
C658 C660 1.478 . S
C659 H653 0.930 . S
C659 C655 1.400 . S
C659 C658 1.385 . S
C660 C658 1.478 . S
C660 C662 1.381 . S
C660 C666 1.383 . S
C661 C657 1.495 . S
C661 H667 0.959 . S
C661 H668 0.961 . S
C661 H669 0.960 . S
C662 C660 1.381 . S
C662 C663 1.394 . S
C662 H670 0.930 . S
C663 C662 1.394 . S
C663 C664 1.383 . S
C663 H671 0.929 . S
C664 C663 1.383 . S
C664 C665 1.377 . S
C665 H649 0.930 . S
C665 C664 1.377 . S
C665 C666 1.379 . S
C666 H650 0.931 . S
C666 C660 1.383 . S
C666 C665 1.379 . S
H667 C661 0.959 . S
H668 C661 0.961 . S
H669 C661 0.960 . S
H670 C662 0.930 . S
H671 C663 0.929 . S
H672 C680 0.929 . S
H673 C682 0.930 . S
H674 C684 0.930 . S
H675 C687 0.929 . S
H676 C690 0.930 . S
H677 C692 0.960 . S
H678 C692 0.960 . S
H679 C692 0.960 . S
C680 H672 0.929 . S
C680 C681 1.377 . S
C680 C682 1.384 . S
C681 C680 1.377 . S
C681 C687 1.390 . S
C682 H673 0.930 . S
C682 C680 1.384 . S
C682 C683 1.372 . S
C683 C682 1.372 . S
C683 C684 1.400 . S
C683 C688 1.490 . S
C684 H674 0.930 . S
C684 C683 1.400 . S
C684 C687 1.386 . S
H685 C701 0.930 . S
H686 C702 0.931 . S
C687 H675 0.929 . S
C687 C681 1.390 . S
C687 C684 1.386 . S
C688 C683 1.490 . S
C688 C690 1.395 . S
C688 C691 1.403 . S
H689 C695 0.930 . S
C690 H676 0.930 . S
C690 C688 1.395 . S
C690 C693 1.403 . S
C691 C688 1.403 . S
C691 C692 1.524 . S
C691 C695 1.400 . S
C692 H677 0.960 . S
C692 H678 0.960 . S
C692 H679 0.960 . S
C692 C691 1.524 . S
C693 C690 1.403 . S
C693 C694 1.392 . S
C693 C697 1.495 . S
C694 C693 1.392 . S
C694 C695 1.385 . S
C694 C696 1.478 . S
C695 H689 0.930 . S
C695 C691 1.400 . S
C695 C694 1.385 . S
C696 C694 1.478 . S
C696 C698 1.381 . S
C696 C702 1.383 . S
C697 C693 1.495 . S
C697 H703 0.959 . S
C697 H704 0.961 . S
C697 H705 0.960 . S
C698 C696 1.381 . S
C698 C699 1.394 . S
C698 H706 0.930 . S
C699 C698 1.394 . S
C699 C700 1.383 . S
C699 H707 0.929 . S
C700 C699 1.383 . S
C700 C701 1.377 . S
C701 H685 0.930 . S
C701 C700 1.377 . S
C701 C702 1.379 . S
C702 H686 0.931 . S
C702 C696 1.383 . S
C702 C701 1.379 . S
H703 C697 0.959 . S
H704 C697 0.961 . S
H705 C697 0.960 . S
H706 C698 0.930 . S
H707 C699 0.929 . S
H708 C716 0.929 . S
H709 C718 0.930 . S
H710 C720 0.930 . S
H711 C723 0.929 . S
H712 C726 0.930 . S
H713 C728 0.960 . S
H714 C728 0.960 . S
H715 C728 0.960 . S
C716 H708 0.929 . S
C716 C717 1.377 . S
C716 C718 1.384 . S
C717 C716 1.377 . S
C717 C723 1.390 . S
C718 H709 0.930 . S
C718 C716 1.384 . S
C718 C719 1.372 . S
C719 C718 1.372 . S
C719 C720 1.400 . S
C719 C724 1.490 . S
C720 H710 0.930 . S
C720 C719 1.400 . S
C720 C723 1.386 . S
H721 C737 0.930 . S
H722 C738 0.931 . S
C723 H711 0.929 . S
C723 C717 1.390 . S
C723 C720 1.386 . S
C724 C719 1.490 . S
C724 C726 1.395 . S
C724 C727 1.403 . S
H725 C731 0.930 . S
C726 H712 0.930 . S
C726 C724 1.395 . S
C726 C729 1.403 . S
C727 C724 1.403 . S
C727 C728 1.524 . S
C727 C731 1.400 . S
C728 H713 0.960 . S
C728 H714 0.960 . S
C728 H715 0.960 . S
C728 C727 1.524 . S
C729 C726 1.403 . S
C729 C730 1.392 . S
C729 C733 1.495 . S
C730 C729 1.392 . S
C730 C731 1.385 . S
C730 C732 1.478 . S
C731 H725 0.930 . S
C731 C727 1.400 . S
C731 C730 1.385 . S
C732 C730 1.478 . S
C732 C734 1.381 . S
C732 C738 1.383 . S
C733 C729 1.495 . S
C733 H739 0.959 . S
C733 H740 0.961 . S
C733 H741 0.960 . S
C734 C732 1.381 . S
C734 C735 1.394 . S
C734 H742 0.930 . S
C735 C734 1.394 . S
C735 C736 1.383 . S
C735 H743 0.929 . S
C736 C735 1.383 . S
C736 C737 1.377 . S
C737 H721 0.930 . S
C737 C736 1.377 . S
C737 C738 1.379 . S
C738 H722 0.931 . S
C738 C732 1.383 . S
C738 C737 1.379 . S
H739 C733 0.959 . S
H740 C733 0.961 . S
H741 C733 0.960 . S
H742 C734 0.930 . S
H743 C735 0.929 . S
H744 C752 0.929 . S
H745 C754 0.930 . S
H746 C756 0.930 . S
H747 C759 0.929 . S
H748 C762 0.930 . S
H749 C764 0.960 . S
H750 C764 0.960 . S
H751 C764 0.960 . S
C752 H744 0.929 . S
C752 C753 1.377 . S
C752 C754 1.384 . S
C753 C752 1.377 . S
C753 C759 1.390 . S
C754 H745 0.930 . S
C754 C752 1.384 . S
C754 C755 1.372 . S
C755 C754 1.372 . S
C755 C756 1.400 . S
C755 C760 1.490 . S
C756 H746 0.930 . S
C756 C755 1.400 . S
C756 C759 1.386 . S
H757 C773 0.930 . S
H758 C774 0.931 . S
C759 H747 0.929 . S
C759 C753 1.390 . S
C759 C756 1.386 . S
C760 C755 1.490 . S
C760 C762 1.395 . S
C760 C763 1.403 . S
H761 C767 0.930 . S
C762 H748 0.930 . S
C762 C760 1.395 . S
C762 C765 1.403 . S
C763 C760 1.403 . S
C763 C764 1.524 . S
C763 C767 1.400 . S
C764 H749 0.960 . S
C764 H750 0.960 . S
C764 H751 0.960 . S
C764 C763 1.524 . S
C765 C762 1.403 . S
C765 C766 1.392 . S
C765 C769 1.495 . S
C766 C765 1.392 . S
C766 C767 1.385 . S
C766 C768 1.478 . S
C767 H761 0.930 . S
C767 C763 1.400 . S
C767 C766 1.385 . S
C768 C766 1.478 . S
C768 C770 1.381 . S
C768 C774 1.383 . S
C769 C765 1.495 . S
C769 H775 0.959 . S
C769 H776 0.961 . S
C769 H777 0.960 . S
C770 C768 1.381 . S
C770 C771 1.394 . S
C770 H778 0.930 . S
C771 C770 1.394 . S
C771 C772 1.383 . S
C771 H779 0.929 . S
C772 C771 1.383 . S
C772 C773 1.377 . S
C773 H757 0.930 . S
C773 C772 1.377 . S
C773 C774 1.379 . S
C774 H758 0.931 . S
C774 C768 1.383 . S
C774 C773 1.379 . S
H775 C769 0.959 . S
H776 C769 0.961 . S
H777 C769 0.960 . S
H778 C770 0.930 . S
H779 C771 0.929 . S
H780 C788 0.929 . S
H781 C790 0.930 . S
H782 C792 0.930 . S
H783 C795 0.929 . S
H784 C798 0.930 . S
H785 C800 0.960 . S
H786 C800 0.960 . S
H787 C800 0.960 . S
C788 H780 0.929 . S
C788 C789 1.377 . S
C788 C790 1.384 . S
C789 C788 1.377 . S
C789 C795 1.390 . S
C790 H781 0.930 . S
C790 C788 1.384 . S
C790 C791 1.372 . S
C791 C790 1.372 . S
C791 C792 1.400 . S
C791 C796 1.490 . S
C792 H782 0.930 . S
C792 C791 1.400 . S
C792 C795 1.386 . S
H793 C809 0.930 . S
H794 C810 0.931 . S
C795 H783 0.929 . S
C795 C789 1.390 . S
C795 C792 1.386 . S
C796 C791 1.490 . S
C796 C798 1.395 . S
C796 C799 1.403 . S
H797 C803 0.930 . S
C798 H784 0.930 . S
C798 C796 1.395 . S
C798 C801 1.403 . S
C799 C796 1.403 . S
C799 C800 1.524 . S
C799 C803 1.400 . S
C800 H785 0.960 . S
C800 H786 0.960 . S
C800 H787 0.960 . S
C800 C799 1.524 . S
C801 C798 1.403 . S
C801 C802 1.392 . S
C801 C805 1.495 . S
C802 C801 1.392 . S
C802 C803 1.385 . S
C802 C804 1.478 . S
C803 H797 0.930 . S
C803 C799 1.400 . S
C803 C802 1.385 . S
C804 C802 1.478 . S
C804 C806 1.381 . S
C804 C810 1.383 . S
C805 C801 1.495 . S
C805 H811 0.959 . S
C805 H812 0.961 . S
C805 H813 0.960 . S
C806 C804 1.381 . S
C806 C807 1.394 . S
C806 H814 0.930 . S
C807 C806 1.394 . S
C807 C808 1.383 . S
C807 H815 0.929 . S
C808 C807 1.383 . S
C808 C809 1.377 . S
C809 H793 0.930 . S
C809 C808 1.377 . S
C809 C810 1.379 . S
C810 H794 0.931 . S
C810 C804 1.383 . S
C810 C809 1.379 . S
H811 C805 0.959 . S
H812 C805 0.961 . S
H813 C805 0.960 . S
H814 C806 0.930 . S
H815 C807 0.929 . S
H816 C824 0.929 . S
H817 C826 0.930 . S
H818 C828 0.930 . S
H819 C831 0.929 . S
H820 C834 0.930 . S
H821 C836 0.960 1_565 S
H822 C836 0.960 . S
H823 C836 0.960 . S
C824 H816 0.929 . S
C824 C825 1.377 . S
C824 C826 1.384 . S
C825 C824 1.377 . S
C825 C831 1.390 . S
C826 H817 0.930 . S
C826 C824 1.384 . S
C826 C827 1.372 . S
C827 C826 1.372 . S
C827 C828 1.400 . S
C827 C832 1.490 . S
C828 H818 0.930 . S
C828 C827 1.400 . S
C828 C831 1.386 . S
H829 C845 0.930 . S
H830 C846 0.931 . S
C831 H819 0.929 . S
C831 C825 1.390 . S
C831 C828 1.386 . S
C832 C827 1.490 . S
C832 C834 1.395 1_455 S
C832 C835 1.403 . S
H833 C839 0.930 . S
C834 H820 0.930 . S
C834 C832 1.395 1_655 S
C834 C837 1.403 1_545 S
C835 C832 1.403 . S
C835 C836 1.524 . S
C835 C839 1.400 1_545 S
C836 H821 0.960 1_545 S
C836 H822 0.960 . S
C836 H823 0.960 . S
C836 C835 1.524 . S
C837 C834 1.403 1_565 S
C837 C838 1.392 . S
C837 C841 1.495 . S
C838 C837 1.392 . S
C838 C839 1.385 1_655 S
C838 C840 1.478 . S
C839 H833 0.930 . S
C839 C835 1.400 1_565 S
C839 C838 1.385 1_455 S
C840 C838 1.478 . S
C840 C842 1.381 . S
C840 C846 1.383 . S
C841 C837 1.495 . S
C841 H847 0.959 1_565 S
C841 H848 0.961 . S
C841 H849 0.960 . S
C842 C840 1.381 . S
C842 C843 1.394 . S
C842 H850 0.930 . S
C843 C842 1.394 . S
C843 C844 1.383 . S
C843 H851 0.929 . S
C844 C843 1.383 . S
C844 C845 1.377 . S
C845 H829 0.930 . S
C845 C844 1.377 . S
C845 C846 1.379 . S
C846 H830 0.931 . S
C846 C840 1.383 . S
C846 C845 1.379 . S
H847 C841 0.959 1_545 S
H848 C841 0.961 . S
H849 C841 0.960 . S
H850 C842 0.930 . S
H851 C843 0.929 . S
H852 C860 0.929 . S
H853 C862 0.930 . S
H854 C864 0.930 1_455 S
H855 C867 0.929 . S
H856 C870 0.930 . S
H857 C872 0.960 1_455 S
H858 C872 0.960 . S
H859 C872 0.960 1_455 S
C860 H852 0.929 . S
C860 C861 1.377 . S
C860 C862 1.384 . S
C861 C860 1.377 . S
C861 C867 1.390 . S
C862 H853 0.930 . S
C862 C860 1.384 . S
C862 C863 1.372 . S
C863 C862 1.372 . S
C863 C864 1.400 . S
C863 C868 1.490 . S
C864 H854 0.930 1_655 S
C864 C863 1.400 . S
C864 C867 1.386 . S
H865 C881 0.930 . S
H866 C882 0.931 . S
C867 H855 0.929 . S
C867 C861 1.390 . S
C867 C864 1.386 . S
C868 C863 1.490 . S
C868 C870 1.395 . S
C868 C871 1.403 . S
H869 C875 0.930 . S
C870 H856 0.930 . S
C870 C868 1.395 . S
C870 C873 1.403 1_545 S
C871 C868 1.403 . S
C871 C872 1.524 . S
C871 C875 1.400 1_645 S
C872 H857 0.960 1_655 S
C872 H858 0.960 . S
C872 H859 0.960 1_655 S
C872 C871 1.524 . S
C873 C870 1.403 1_565 S
C873 C874 1.392 1_655 S
C873 C877 1.495 . S
C874 C873 1.392 1_455 S
C874 C875 1.385 . S
C874 C876 1.478 . S
C875 H869 0.930 . S
C875 C871 1.400 1_465 S
C875 C874 1.385 . S
C876 C874 1.478 . S
C876 C878 1.381 . S
C876 C882 1.383 . S
C877 C873 1.495 . S
C877 H883 0.959 . S
C877 H884 0.961 1_655 S
C877 H885 0.960 . S
C878 C876 1.381 . S
C878 C879 1.394 . S
C878 H886 0.930 1_455 S
C879 C878 1.394 . S
C879 C880 1.383 . S
C879 H887 0.929 . S
C880 C879 1.383 . S
C880 C881 1.377 . S
C881 H865 0.930 . S
C881 C880 1.377 . S
C881 C882 1.379 . S
C882 H866 0.931 . S
C882 C876 1.383 . S
C882 C881 1.379 . S
H883 C877 0.959 . S
H884 C877 0.961 1_455 S
H885 C877 0.960 . S
H886 C878 0.930 1_655 S
H887 C879 0.929 . S
H888 C896 0.929 . S
H889 C898 0.930 . S
H890 C900 0.930 1_545 S
H891 C903 0.929 . S
H892 C906 0.930 . S
H893 C908 0.960 . S
H894 C908 0.960 . S
H895 C908 0.960 . S
C896 H888 0.929 . S
C896 C897 1.377 . S
C896 C898 1.384 . S
C897 C896 1.377 . S
C897 C903 1.390 . S
C898 H889 0.930 . S
C898 C896 1.384 . S
C898 C899 1.372 . S
C899 C898 1.372 . S
C899 C900 1.400 . S
C899 C904 1.490 . S
C900 H890 0.930 1_565 S
C900 C899 1.400 . S
C900 C903 1.386 . S
H901 C917 0.930 . S
H902 C918 0.931 . S
C903 H891 0.929 . S
C903 C897 1.390 . S
C903 C900 1.386 . S
C904 C899 1.490 . S
C904 C906 1.395 . S
C904 C907 1.403 1_565 S
H905 C911 0.930 . S
C906 H892 0.930 . S
C906 C904 1.395 . S
C906 C909 1.403 1_556 S
C907 C904 1.403 1_545 S
C907 C908 1.524 . S
C907 C911 1.400 1_556 S
C908 H893 0.960 . S
C908 H894 0.960 . S
C908 H895 0.960 . S
C908 C907 1.524 . S
C909 C906 1.403 1_554 S
C909 C910 1.392 1_565 S
C909 C913 1.495 . S
C910 C909 1.392 1_545 S
C910 C911 1.385 . S
C910 C912 1.478 . S
C911 H905 0.930 . S
C911 C907 1.400 1_554 S
C911 C910 1.385 . S
C912 C910 1.478 . S
C912 C914 1.381 . S
C912 C918 1.383 . S
C913 C909 1.495 . S
C913 H919 0.959 . S
C913 H920 0.961 . S
C913 H921 0.960 . S
C914 C912 1.381 . S
C914 C915 1.394 . S
C914 H922 0.930 1_545 S
C915 C914 1.394 . S
C915 C916 1.383 . S
C915 H923 0.929 . S
C916 C915 1.383 . S
C916 C917 1.377 . S
C917 H901 0.930 . S
C917 C916 1.377 . S
C917 C918 1.379 . S
C918 H902 0.931 . S
C918 C912 1.383 . S
C918 C917 1.379 . S
H919 C913 0.959 . S
H920 C913 0.961 . S
H921 C913 0.960 . S
H922 C914 0.930 1_565 S
H923 C915 0.929 . S
H924 C932 0.929 . S
H925 C934 0.930 . S
H926 C936 0.930 . S
H927 C939 0.929 . S
H928 C942 0.930 . S
H929 C944 0.973 . S
H930 C944 0.953 1_554 S
H931 C944 0.955 1_554 S
C932 H924 0.929 . S
C932 C933 1.377 . S
C932 C934 1.384 . S
C933 C932 1.377 . S
C933 C939 1.390 . S
C934 H925 0.930 . S
C934 C932 1.384 . S
C934 C935 1.372 . S
C935 C934 1.372 . S
C935 C936 1.400 . S
C935 C940 1.490 . S
C936 H926 0.930 . S
C936 C935 1.400 . S
C936 C939 1.386 . S
H937 C953 0.930 . S
H938 C954 0.931 . S
C939 H927 0.929 . S
C939 C933 1.390 . S
C939 C936 1.386 . S
C940 C935 1.490 . S
C940 C942 1.395 1_565 S
C940 C943 1.403 . S
H941 C947 0.930 . S
C942 H928 0.930 . S
C942 C940 1.395 1_545 S
C942 C945 1.403 . S
C943 C940 1.403 . S
C943 C944 1.523 1_554 S
C943 C947 1.400 1_554 S
C944 H929 0.973 . S
C944 H930 0.953 1_556 S
C944 H931 0.955 1_556 S
C944 C943 1.523 1_556 S
C945 C942 1.403 . S
C945 C946 1.392 1_554 S
C945 C949 1.495 . S
C946 C945 1.392 1_556 S
C946 C947 1.385 1_545 S
C946 C948 1.478 . S
C947 H941 0.930 . S
C947 C943 1.400 1_556 S
C947 C946 1.385 1_565 S
C948 C946 1.478 . S
C948 C950 1.381 . S
C948 C954 1.383 . S
C949 C945 1.495 . S
C949 H955 0.959 . S
C949 H956 0.961 1_554 S
C949 H957 0.960 1_554 S
C950 C948 1.381 . S
C950 C951 1.394 . S
C950 H958 0.930 . S
C951 C950 1.394 . S
C951 C952 1.383 . S
C951 H959 0.929 . S
C952 C951 1.383 . S
C952 C953 1.377 . S
C953 H937 0.930 . S
C953 C952 1.377 . S
C953 C954 1.379 . S
C954 H938 0.931 . S
C954 C948 1.383 . S
C954 C953 1.379 . S
H955 C949 0.959 . S
H956 C949 0.961 1_556 S
H957 C949 0.960 1_556 S
H958 C950 0.930 . S
H959 C951 0.929 . S
H960 C968 0.929 . S
H961 C970 0.930 . S
H962 C972 0.930 . S
H963 C975 0.929 . S
H964 C978 0.930 . S
H965 C980 0.960 . S
H966 C980 0.960 . S
H967 C980 0.960 . S
C968 H960 0.929 . S
C968 C969 1.377 . S
C968 C970 1.384 . S
C969 C968 1.377 . S
C969 C975 1.390 . S
C970 H961 0.930 . S
C970 C968 1.384 . S
C970 C971 1.372 . S
C971 C970 1.372 . S
C971 C972 1.400 . S
C971 C976 1.490 . S
C972 H962 0.930 . S
C972 C971 1.400 . S
C972 C975 1.386 . S
H973 C989 0.930 . S
H974 C990 0.931 . S
C975 H963 0.929 . S
C975 C969 1.390 . S
C975 C972 1.386 . S
C976 C971 1.490 . S
C976 C978 1.395 . S
C976 C979 1.403 1_556 S
H977 C983 0.930 . S
C978 H964 0.930 . S
C978 C976 1.395 . S
C978 C981 1.403 1_655 S
C979 C976 1.403 1_554 S
C979 C980 1.524 . S
C979 C983 1.400 1_655 S
C980 H965 0.960 . S
C980 H966 0.960 . S
C980 H967 0.960 . S
C980 C979 1.524 . S
C981 C978 1.403 1_455 S
C981 C982 1.392 1_556 S
C981 C985 1.495 . S
C982 C981 1.392 1_554 S
C982 C983 1.385 . S
C982 C984 1.478 . S
C983 H977 0.930 . S
C983 C979 1.400 1_455 S
C983 C982 1.385 . S
C984 C982 1.478 . S
C984 C986 1.381 . S
C984 C990 1.383 . S
C985 C981 1.495 . S
C985 H991 0.959 . S
C985 H992 0.961 . S
C985 H993 0.960 . S
C986 C984 1.381 . S
C986 C987 1.394 . S
C986 H994 0.930 . S
C987 C986 1.394 . S
C987 C988 1.383 . S
C987 H995 0.929 . S
C988 C987 1.383 . S
C988 C989 1.377 . S
C989 H973 0.930 . S
C989 C988 1.377 . S
C989 C990 1.379 . S
C990 H974 0.931 . S
C990 C984 1.383 . S
C990 C989 1.379 . S
H991 C985 0.959 . S
H992 C985 0.961 . S
H993 C985 0.960 . S
H994 C986 0.930 . S
H995 C987 0.929 . S
H996 C1004 0.929 . S
H997 C1006 0.930 . S
H998 C1008 0.930 . S
H999 C1011 0.929 . S
H1000 C1014 0.930 . S
H1001 C1016 0.960 1_655 S
H1002 C1016 0.960 . S
H1003 C1016 0.960 . S
C1004 H996 0.929 . S
C1004 C1005 1.377 . S
C1004 C1006 1.384 . S
C1005 C1004 1.377 . S
C1005 C1011 1.390 . S
C1006 H997 0.930 . S
C1006 C1004 1.384 . S
C1006 C1007 1.372 . S
C1007 C1006 1.372 . S
C1007 C1008 1.400 . S
C1007 C1012 1.490 . S
C1008 H998 0.930 . S
C1008 C1007 1.400 . S
C1008 C1011 1.386 . S
H1009 C1025 0.930 . S
H1010 C1026 0.931 . S
C1011 H999 0.929 . S
C1011 C1005 1.390 . S
C1011 C1008 1.386 . S
C1012 C1007 1.490 . S
C1012 C1014 1.395 1_556 S
C1012 C1015 1.403 . S
H1013 C1019 0.930 . S
C1014 H1000 0.930 . S
C1014 C1012 1.395 1_554 S
C1014 C1017 1.403 1_455 S
C1015 C1012 1.403 . S
C1015 C1016 1.524 . S
C1015 C1019 1.406 1_455 S
C1016 H1001 0.960 1_455 S
C1016 H1002 0.960 . S
C1016 H1003 0.960 . S
C1016 C1015 1.524 . S
C1017 C1014 1.403 1_655 S
C1017 C1018 1.392 . S
C1017 C1021 1.495 . S
C1018 C1017 1.392 . S
C1018 C1019 1.379 1_554 S
C1018 C1020 1.478 . S
C1019 H1013 0.930 . S
C1019 C1015 1.406 1_655 S
C1019 C1018 1.379 1_556 S
C1020 C1018 1.478 . S
C1020 C1022 1.381 . S
C1020 C1026 1.383 . S
C1021 C1017 1.495 . S
C1021 H1027 0.959 1_655 S
C1021 H1028 0.961 . S
C1021 H1029 0.960 . S
C1022 C1020 1.381 . S
C1022 C1023 1.394 . S
C1022 H1030 0.930 . S
C1023 C1022 1.394 . S
C1023 C1024 1.383 . S
C1023 H1031 0.929 . S
C1024 C1023 1.383 . S
C1024 C1025 1.377 . S
C1025 H1009 0.930 . S
C1025 C1024 1.377 . S
C1025 C1026 1.379 . S
C1026 H1010 0.931 . S
C1026 C1020 1.383 . S
C1026 C1025 1.379 . S
H1027 C1021 0.959 1_455 S
H1028 C1021 0.961 . S
H1029 C1021 0.960 . S
H1030 C1022 0.930 . S
H1031 C1023 0.929 . S
C177 C50 0.723 . S
C196 C8 0.686 . S
C213 C36 0.721 . S
C232 C22 0.694 . S
C249 C78 0.712 . S
C268 C64 0.736 . S
C285 C92 0.723 . S
C304 C106 0.687 . S
C321 C134 0.718 . S
C340 C120 0.710 . S
C357 C148 0.718 . S
C376 C162 0.709 . S
C393 C9 0.747 . S
C412 C101 0.719 . S
C429 C87 0.749 . S
C448 C23 0.702 . S
C465 C73 0.733 . S
C484 C37 0.787 . S
C501 C59 0.734 . S
C520 C51 0.779 . S
C537 C65 0.752 . S
C556 C157 0.698 . S
C573 C115 0.736 . S
C592 C79 0.780 . S
C609 C143 0.732 . S
C628 C93 0.795 . S
C645 C107 0.744 . S
C664 C129 0.731 . S
C681 C31 0.751 . S
C700 C121 0.690 . S
C717 C3 0.737 . S
C736 C135 0.775 . S
C753 C149 0.734 . S
C772 C17 0.780 . S
C789 C45 0.749 . S
C808 C163 0.699 . S
C825 C7 1.165 . S
C844 C21 1.145 . S
C861 C49 1.169 . S
C880 C35 1.147 . S
C897 C91 1.172 . S
C916 C63 1.161 . S
C933 C77 1.163 . S
C952 C105 1.162 . S
C969 C147 1.172 . S
C988 C119 1.169 . S
C1005 C133 1.166 . S
C1024 C161 1.144 . S
