# Generated by pormake.
# Topology mon, (4)-cn, num edge types: 1
# Building blocks:
#     Node 0, Type 0, BuildingBlock: KUFVIS_clean_sbu_0, # of connection points: 4
#     Node 1, Type 0, BuildingBlock: KUFVIS_clean_sbu_0, # of connection points: 4
#     Node 2, Type 0, BuildingBlock: KUFVIS_clean_sbu_0, # of connection points: 4
#     Node 3, Type 0, BuildingBlock: KUFVIS_clean_sbu_0, # of connection points: 4
#     Node 4, Type 0, BuildingBlock: KUFVIS_clean_sbu_0, # of connection points: 4
#     Node 5, Type 0, BuildingBlock: KUFVIS_clean_sbu_0, # of connection points: 4
#     Node 6, Type 0, BuildingBlock: KUFVIS_clean_sbu_0, # of connection points: 4
#     Node 7, Type 0, BuildingBlock: KUFVIS_clean_sbu_0, # of connection points: 4
#     Node 8, Type 0, BuildingBlock: KUFVIS_clean_sbu_0, # of connection points: 4
#     Node 9, Type 0, BuildingBlock: KUFVIS_clean_sbu_0, # of connection points: 4
#     Node 10, Type 0, BuildingBlock: KUFVIS_clean_sbu_0, # of connection points: 4
#     Node 11, Type 0, BuildingBlock: KUFVIS_clean_sbu_0, # of connection points: 4
#     Node 12, Type 0, BuildingBlock: KUFVIS_clean_sbu_0, # of connection points: 4
#     Node 13, Type 0, BuildingBlock: KUFVIS_clean_sbu_0, # of connection points: 4
#     Node 14, Type 0, BuildingBlock: KUFVIS_clean_sbu_0, # of connection points: 4
#     Node 15, Type 0, BuildingBlock: KUFVIS_clean_sbu_0, # of connection points: 4
#     Edge 16, Type (0, 0), BuildingBlock: MIFKUJ_clean_linker_0, # of connection points: 2
#     Edge 17, Type (0, 0), BuildingBlock: MIFKUJ_clean_linker_0, # of connection points: 2
#     Edge 18, Type (0, 0), BuildingBlock: MIFKUJ_clean_linker_0, # of connection points: 2
#     Edge 19, Type (0, 0), BuildingBlock: MIFKUJ_clean_linker_0, # of connection points: 2
#     Edge 20, Type (0, 0), BuildingBlock: MIFKUJ_clean_linker_0, # of connection points: 2
#     Edge 21, Type (0, 0), BuildingBlock: MIFKUJ_clean_linker_0, # of connection points: 2
#     Edge 22, Type (0, 0), BuildingBlock: MIFKUJ_clean_linker_0, # of connection points: 2
#     Edge 23, Type (0, 0), BuildingBlock: MIFKUJ_clean_linker_0, # of connection points: 2
#     Edge 24, Type (0, 0), BuildingBlock: MIFKUJ_clean_linker_0, # of connection points: 2
#     Edge 25, Type (0, 0), BuildingBlock: MIFKUJ_clean_linker_0, # of connection points: 2
#     Edge 26, Type (0, 0), BuildingBlock: MIFKUJ_clean_linker_0, # of connection points: 2
#     Edge 27, Type (0, 0), BuildingBlock: MIFKUJ_clean_linker_0, # of connection points: 2
#     Edge 28, Type (0, 0), BuildingBlock: MIFKUJ_clean_linker_0, # of connection points: 2
#     Edge 29, Type (0, 0), BuildingBlock: MIFKUJ_clean_linker_0, # of connection points: 2
#     Edge 30, Type (0, 0), BuildingBlock: MIFKUJ_clean_linker_0, # of connection points: 2
#     Edge 31, Type (0, 0), BuildingBlock: MIFKUJ_clean_linker_0, # of connection points: 2
#     Edge 32, Type (0, 0), BuildingBlock: MIFKUJ_clean_linker_0, # of connection points: 2
#     Edge 33, Type (0, 0), BuildingBlock: MIFKUJ_clean_linker_0, # of connection points: 2
#     Edge 34, Type (0, 0), BuildingBlock: MIFKUJ_clean_linker_0, # of connection points: 2
#     Edge 35, Type (0, 0), BuildingBlock: MIFKUJ_clean_linker_0, # of connection points: 2
#     Edge 36, Type (0, 0), BuildingBlock: MIFKUJ_clean_linker_0, # of connection points: 2
#     Edge 37, Type (0, 0), BuildingBlock: MIFKUJ_clean_linker_0, # of connection points: 2
#     Edge 38, Type (0, 0), BuildingBlock: MIFKUJ_clean_linker_0, # of connection points: 2
#     Edge 39, Type (0, 0), BuildingBlock: MIFKUJ_clean_linker_0, # of connection points: 2
#     Edge 40, Type (0, 0), BuildingBlock: MIFKUJ_clean_linker_0, # of connection points: 2
#     Edge 41, Type (0, 0), BuildingBlock: MIFKUJ_clean_linker_0, # of connection points: 2
#     Edge 42, Type (0, 0), BuildingBlock: MIFKUJ_clean_linker_0, # of connection points: 2
#     Edge 43, Type (0, 0), BuildingBlock: MIFKUJ_clean_linker_0, # of connection points: 2
#     Edge 44, Type (0, 0), BuildingBlock: MIFKUJ_clean_linker_0, # of connection points: 2
#     Edge 45, Type (0, 0), BuildingBlock: MIFKUJ_clean_linker_0, # of connection points: 2
#     Edge 46, Type (0, 0), BuildingBlock: MIFKUJ_clean_linker_0, # of connection points: 2
#     Edge 47, Type (0, 0), BuildingBlock: MIFKUJ_clean_linker_0, # of connection points: 2
# Relax obj value: 0.170
# Max RMSD: 0.160
# Mean RMSD: 0.160
data_MOF--net-mon--node1-KUFVIS_clean_sbu_0--edge1-MIFKUJ_clean_linker_0
_symmetry_space_group_name_H-M    P1
_symmetry_Int_Tables_number       1
_symmetry_cell_setting            triclinic
loop_
_symmetry_equiv_pos_as_xyz
'x, y, z'
_cell_length_a     43.542054
_cell_length_b     43.540178
_cell_length_c     109.80777
_cell_angle_alpha  89.993314
_cell_angle_beta   89.992314
_cell_angle_gamma 90.013227
loop_
_atom_site_label
_atom_site_type_symbol
_atom_site_fract_x
_atom_site_fract_y
_atom_site_fract_z
_atom_type_partial_charge
Mn0 Mn 0.01454 0.02148 0.58778 0.0
Mn1 Mn 0.94734 0.038 0.57401 0.0
C2 C 0.96825 0.01354 0.59773 0.0
C3 C 0.054 0.98764 0.59279 0.0
C4 C 0.98955 0.08678 0.58425 0.0
O5 O 0.02681 0.02312 0.56987 0.0
O6 O 0.98051 0.03394 0.56168 0.0
C7 C 0.93925 0.97887 0.56107 0.0
N8 N 0.92867 1.00019 0.56912 0.0
C9 C 0.8835 0.97007 0.57325 0.0
C10 C 0.89383 0.94788 0.56496 0.0
C11 C 0.92185 0.95229 0.55886 0.0
C12 C 0.90179 0.99612 0.57508 0.0
H13 H 0.96085 0.98205 0.55641 0.0
C14 C 0.00938 0.02851 0.56074 0.0
O15 O 0.05803 0.01718 0.5931 0.0
O16 O 0.02746 0.97781 0.58908 0.0
N17 N 0.91336 0.04195 0.58497 0.0
C18 C 0.90711 0.06508 0.59295 0.0
C19 C 0.87998 0.06404 0.59986 0.0
C20 C 0.85955 0.03931 0.59847 0.0
C21 C 0.86635 0.01591 0.59012 0.0
C22 C 0.89356 0.01836 0.58339 0.0
H23 H 0.92278 0.08409 0.59408 0.0
O24 O 0.99328 0.01745 0.60395 0.0
O25 O 0.97116 0.01513 0.58601 0.0
O26 O 0.01008 0.0682 0.58802 0.0
O27 O 0.96478 0.07809 0.57903 0.0
C28 C 0.8474 0.99006 0.58833 0.0
C29 C 0.85599 0.96714 0.57992 0.0
H30 H 0.88055 0.92728 0.56326 0.0
H31 H 0.93006 0.9352 0.55248 0.0
H32 H 0.8749 0.08218 0.60629 0.0
H33 H 0.83881 0.03843 0.60391 0.0
H34 H 0.82634 0.98741 0.59348 0.0
H35 H 0.8414 0.94721 0.57872 0.0
Mn36 Mn 0.24657 0.74634 0.84028 0.0
Mn37 Mn 0.23124 0.68102 0.82488 0.0
C38 C 0.25312 0.69893 0.84945 0.0
C39 C 0.28055 0.78457 0.8466 0.0
C40 C 0.18165 0.72312 0.83484 0.0
O41 O 0.24692 0.76059 0.82259 0.0
O42 O 0.23916 0.715 0.81312 0.0
C43 C 0.29194 0.6708 0.81341 0.0
N44 N 0.26888 0.66084 0.8208 0.0
C45 C 0.29606 0.61398 0.82518 0.0
C46 C 0.32001 0.6237 0.81756 0.0
C47 C 0.31793 0.65223 0.81165 0.0
C48 C 0.27058 0.63334 0.82648 0.0
H49 H 0.29055 0.69278 0.80891 0.0
C50 C 0.24422 0.74404 0.81304 0.0
O51 O 0.25107 0.78909 0.84654 0.0
O52 O 0.29027 0.75841 0.84248 0.0
N53 N 0.22397 0.64667 0.8354 0.0
C54 C 0.19991 0.6416 0.84308 0.0
C55 C 0.19896 0.61446 0.84998 0.0
C56 C 0.22275 0.59283 0.84893 0.0
C57 C 0.24724 0.59851 0.84095 0.0
C58 C 0.24677 0.6258 0.8342 0.0
H59 H 0.1817 0.65826 0.84402 0.0
O60 O 0.2487 0.72322 0.85607 0.0
O61 O 0.25275 0.70318 0.83777 0.0
O62 O 0.1998 0.74244 0.83978 0.0
O63 O 0.19096 0.69958 0.82895 0.0
C64 C 0.27243 0.57847 0.83965 0.0
C65 C 0.29683 0.58621 0.83177 0.0
H66 H 0.34023 0.60957 0.81628 0.0
H67 H 0.33639 0.65997 0.80581 0.0
H68 H 0.18005 0.61031 0.85616 0.0
H69 H 0.22213 0.5721 0.85438 0.0
H70 H 0.27349 0.55726 0.84479 0.0
H71 H 0.31628 0.57083 0.83097 0.0
Mn72 Mn 0.53038 0.97506 0.09025 0.0
Mn73 Mn 0.59449 0.96068 0.07408 0.0
C74 C 0.57838 0.98056 0.09955 0.0
C75 C 0.49226 0.00912 0.09668 0.0
C76 C 0.55104 0.91085 0.08312 0.0
O77 O 0.51545 0.97635 0.07258 0.0
O78 O 0.5612 0.9742 0.06297 0.0
C79 C 0.60888 0.02334 0.06529 0.0
N80 N 0.61736 0.99754 0.07144 0.0
C81 C 0.66804 0.01768 0.07495 0.0
C82 C 0.66012 0.04408 0.06836 0.0
C83 C 0.63031 0.04705 0.06361 0.0
C84 C 0.64574 0.99478 0.07629 0.0
H85 H 0.58598 0.02573 0.06167 0.0
C86 C 0.53201 0.97802 0.06299 0.0
O87 O 0.48776 0.97964 0.09662 0.0
O88 O 0.51853 0.01882 0.09265 0.0
N89 N 0.62881 0.94762 0.08366 0.0
C90 C 0.63323 0.92013 0.08935 0.0
C91 C 0.66189 0.91354 0.09461 0.0
C92 C 0.68582 0.9351 0.09385 0.0
C93 C 0.68096 0.96295 0.08774 0.0
C94 C 0.65195 0.96817 0.08261 0.0
H95 H 0.6151 0.9033 0.08987 0.0
O96 O 0.55373 0.97647 0.10598 0.0
O97 O 0.574 0.98073 0.08785 0.0
O98 O 0.53387 0.92833 0.08945 0.0
O99 O 0.57313 0.9209 0.07656 0.0
C100 C 0.70371 0.98576 0.08655 0.0
C101 C 0.69724 0.01315 0.08019 0.0
H102 H 0.67668 0.06232 0.06699 0.0
H103 H 0.6239 0.06754 0.05865 0.0
H104 H 0.66553 0.89188 0.09923 0.0
H105 H 0.70785 0.92999 0.09796 0.0
H106 H 0.72627 0.98248 0.0905 0.0
H107 H 0.71491 0.03053 0.07933 0.0
Mn108 Mn 0.29367 0.25423 0.33928 0.0
Mn109 Mn 0.31086 0.32179 0.32583 0.0
C110 C 0.28398 0.30029 0.34905 0.0
C111 C 0.2597 0.21453 0.34398 0.0
C112 C 0.359 0.28024 0.33689 0.0
O113 O 0.29691 0.24209 0.32138 0.0
O114 O 0.30865 0.28854 0.31344 0.0
C115 C 0.25359 0.32962 0.31162 0.0
N116 N 0.27369 0.34025 0.32014 0.0
C117 C 0.24302 0.38545 0.32352 0.0
C118 C 0.2221 0.37505 0.31473 0.0
C119 C 0.22741 0.347 0.30877 0.0
C120 C 0.26884 0.36726 0.32591 0.0
H121 H 0.25745 0.30799 0.30707 0.0
C122 C 0.30329 0.25966 0.3124 0.0
O123 O 0.28923 0.21076 0.34468 0.0
O124 O 0.25003 0.24082 0.33996 0.0
N125 N 0.31304 0.35568 0.33691 0.0
C126 C 0.33448 0.36158 0.34564 0.0
C127 C 0.33203 0.3884 0.35268 0.0
C128 C 0.30763 0.40887 0.35067 0.0
C129 C 0.28594 0.40241 0.34158 0.0
C130 C 0.28974 0.37549 0.33476 0.0
H131 H 0.35316 0.34581 0.34729 0.0
O132 O 0.28792 0.27538 0.35535 0.0
O133 O 0.28681 0.29754 0.33736 0.0
O134 O 0.34043 0.2592 0.34022 0.0
O135 O 0.3504 0.30492 0.33161 0.0
C136 C 0.26038 0.42131 0.33919 0.0
C137 C 0.23892 0.41282 0.33018 0.0
H138 H 0.20175 0.38827 0.31257 0.0
H139 H 0.21128 0.33875 0.30202 0.0
H140 H 0.34881 0.39318 0.3597 0.0
H141 H 0.30561 0.42935 0.35621 0.0
H142 H 0.25679 0.44222 0.34434 0.0
H143 H 0.21914 0.42732 0.32854 0.0
Mn144 Mn 0.0097 0.97868 0.41004 0.0
Mn145 Mn 0.94387 0.96009 0.42441 0.0
C146 C 0.96238 0.9871 0.40075 0.0
C147 C 0.04876 0.01295 0.4049 0.0
C148 C 0.98624 0.91279 0.41325 0.0
O149 O 0.02334 0.97597 0.4278 0.0
O150 O 0.97762 0.96484 0.43643 0.0
C151 C 0.9337 0.01746 0.43829 0.0
N152 N 0.92395 0.99667 0.42986 0.0
C153 C 0.87525 0.02223 0.42788 0.0
C154 C 0.88467 0.04378 0.43661 0.0
C155 C 0.91414 0.04156 0.44174 0.0
C156 C 0.89596 0.99907 0.42463 0.0
H157 H 0.95611 0.01548 0.44243 0.0
C158 C 0.0065 0.9704 0.43709 0.0
O159 O 0.05273 0.98346 0.40428 0.0
O160 O 0.02248 0.02257 0.40898 0.0
N161 N 0.9094 0.95517 0.41379 0.0
C162 C 0.90335 0.93178 0.4059 0.0
C163 C 0.87497 0.93089 0.39983 0.0
C164 C 0.85293 0.95372 0.40211 0.0
C165 C 0.85943 0.97716 0.41048 0.0
C166 C 0.88823 0.97705 0.41615 0.0
H167 H 0.92006 0.91398 0.40422 0.0
O168 O 0.98707 0.98376 0.39425 0.0
O169 O 0.96617 0.98462 0.41241 0.0
O170 O 0.00595 0.93188 0.40924 0.0
O171 O 0.9621 0.92086 0.419 0.0
C172 C 0.83817 1.00017 0.41364 0.0
C173 C 0.84594 0.02244 0.42243 0.0
H174 H 0.86945 0.06203 0.4395 0.0
H175 H 0.92158 0.05812 0.44847 0.0
H176 H 0.87005 0.91257 0.39347 0.0
H177 H 0.83099 0.95285 0.39747 0.0
H178 H 0.8156 0.00069 0.40949 0.0
H179 H 0.82904 0.03945 0.42501 0.0
Mn180 Mn 0.29157 0.74432 0.66172 0.0
Mn181 Mn 0.30719 0.6785 0.67666 0.0
C182 C 0.28447 0.69721 0.65237 0.0
C183 C 0.25833 0.78332 0.65566 0.0
C184 C 0.35665 0.71979 0.66639 0.0
O185 O 0.2914 0.75811 0.67946 0.0
O186 O 0.30246 0.71279 0.6885 0.0
C187 C 0.24716 0.67161 0.68906 0.0
N188 N 0.26905 0.66027 0.68143 0.0
C189 C 0.23899 0.61494 0.6775 0.0
C190 C 0.21623 0.62605 0.68538 0.0
C191 C 0.22031 0.65454 0.69116 0.0
C192 C 0.2653 0.63293 0.67578 0.0
H193 H 0.25007 0.69359 0.69347 0.0
C194 C 0.29652 0.74165 0.68888 0.0
O195 O 0.28789 0.78725 0.65571 0.0
O196 O 0.24807 0.75716 0.65961 0.0
N197 N 0.31178 0.64361 0.6662 0.0
C198 C 0.33525 0.63682 0.65845 0.0
C199 C 0.33445 0.60929 0.6518 0.0
C200 C 0.30957 0.58904 0.65319 0.0
C201 C 0.28579 0.59642 0.66129 0.0
C202 C 0.28803 0.624 0.66779 0.0
H203 H 0.35433 0.65239 0.6573 0.0
O204 O 0.28905 0.72163 0.64584 0.0
O205 O 0.28507 0.70116 0.66407 0.0
O206 O 0.33828 0.73997 0.66219 0.0
O207 O 0.34763 0.69542 0.67181 0.0
C208 C 0.25973 0.57773 0.66302 0.0
C209 C 0.23633 0.587 0.67111 0.0
H210 H 0.1954 0.61303 0.68698 0.0
H211 H 0.2027 0.66337 0.69717 0.0
H212 H 0.35286 0.60378 0.64555 0.0
H213 H 0.30886 0.56799 0.64794 0.0
H214 H 0.25725 0.55638 0.65805 0.0
H215 H 0.21621 0.57264 0.67223 0.0
Mn216 Mn 0.52661 0.02174 0.91477 0.0
Mn217 Mn 0.59091 0.04063 0.93025 0.0
C218 C 0.5745 0.01243 0.90627 0.0
C219 C 0.48769 0.98768 0.90922 0.0
C220 C 0.55055 0.0876 0.91774 0.0
O221 O 0.51095 0.02534 0.93223 0.0
O222 O 0.55551 0.03726 0.94159 0.0
C223 C 0.59831 0.98416 0.945 0.0
N224 N 0.60988 0.00474 0.93686 0.0
C225 C 0.6584 0.97834 0.93626 0.0
C226 C 0.64706 0.95695 0.94468 0.0
C227 C 0.61686 0.95984 0.94905 0.0
C228 C 0.63893 0.00224 0.93263 0.0
H229 H 0.57511 0.98629 0.94837 0.0
C230 C 0.52659 0.03163 0.94176 0.0
O231 O 0.4842 0.01718 0.9083 0.0
O232 O 0.51338 0.97796 0.91381 0.0
N233 N 0.62691 0.04417 0.92038 0.0
C234 C 0.63339 0.06518 0.91155 0.0
C235 C 0.66243 0.06492 0.90598 0.0
C236 C 0.68444 0.04315 0.90958 0.0
C237 C 0.67708 0.0215 0.91856 0.0
C238 C 0.64795 0.02314 0.9239 0.0
H239 H 0.61657 0.08206 0.90882 0.0
O240 O 0.55048 0.016 0.89941 0.0
O241 O 0.56992 0.01535 0.91793 0.0
O242 O 0.53101 0.0685 0.9136 0.0
O243 O 0.57394 0.07953 0.92395 0.0
C244 C 0.69735 0.9981 0.92229 0.0
C245 C 0.68799 0.97648 0.93111 0.0
H246 H 0.66122 0.93802 0.94776 0.0
H247 H 0.6079 0.94334 0.9555 0.0
H248 H 0.6679 0.08155 0.89899 0.0
H249 H 0.70693 0.04318 0.9054 0.0
H250 H 0.72001 0.99623 0.91828 0.0
H251 H 0.70357 0.95827 0.93375 0.0
Mn252 Mn 0.25059 0.25799 0.16094 0.0
Mn253 Mn 0.23191 0.3222 0.17652 0.0
C254 C 0.259 0.306 0.15239 0.0
C255 C 0.28447 0.21922 0.15504 0.0
C256 C 0.18472 0.28225 0.16414 0.0
O257 O 0.24833 0.24225 0.17839 0.0
O258 O 0.23436 0.28633 0.1877 0.0
C259 C 0.28907 0.32729 0.19099 0.0
N260 N 0.26825 0.34002 0.18324 0.0
C261 C 0.29576 0.38795 0.18301 0.0
C262 C 0.31729 0.37549 0.19112 0.0
C263 C 0.31403 0.34497 0.19506 0.0
C264 C 0.27131 0.36927 0.1793 0.0
H265 H 0.28665 0.30385 0.19406 0.0
C266 C 0.24087 0.25762 0.18784 0.0
O267 O 0.25494 0.21574 0.1543 0.0
O268 O 0.29438 0.24488 0.1596 0.0
N269 N 0.22911 0.3588 0.16697 0.0
C270 C 0.20808 0.3663 0.15828 0.0
C271 C 0.20871 0.39575 0.15308 0.0
C272 C 0.23087 0.41714 0.15689 0.0
C273 C 0.25255 0.40874 0.16571 0.0
C274 C 0.25048 0.37926 0.17071 0.0
H275 H 0.19089 0.34997 0.15539 0.0
O276 O 0.25516 0.282 0.14555 0.0
O277 O 0.25689 0.30136 0.16408 0.0
O278 O 0.20369 0.2621 0.16036 0.0
O279 O 0.19288 0.30624 0.16996 0.0
C280 C 0.27639 0.42831 0.16959 0.0
C281 C 0.29807 0.41787 0.1782 0.0
H282 H 0.33664 0.389 0.19424 0.0
H283 H 0.33067 0.3351 0.20125 0.0
H284 H 0.19206 0.40203 0.1462 0.0
H285 H 0.23113 0.43995 0.15299 0.0
H286 H 0.27859 0.45122 0.16585 0.0
H287 H 0.31668 0.43288 0.18092 0.0
Mn288 Mn 0.79458 0.23733 0.16181 0.0
Mn289 Mn 0.81521 0.17595 0.17868 0.0
C290 C 0.79012 0.18786 0.15391 0.0
C291 C 0.7593 0.2738 0.1549 0.0
C292 C 0.86128 0.21787 0.16654 0.0
O293 O 0.7945 0.2549 0.17907 0.0
O294 O 0.8081 0.21213 0.18931 0.0
C295 C 0.75588 0.1672 0.19145 0.0
N296 N 0.77931 0.15568 0.18461 0.0
C297 C 0.75648 0.10537 0.18451 0.0
C298 C 0.73225 0.11657 0.19164 0.0
C299 C 0.73174 0.14771 0.19497 0.0
C300 C 0.77955 0.12598 0.18105 0.0
H301 H 0.75552 0.1911 0.19408 0.0
C302 C 0.80068 0.2406 0.18894 0.0
O303 O 0.78865 0.27872 0.15457 0.0
O304 O 0.75027 0.24791 0.15958 0.0
N305 N 0.82258 0.13922 0.16964 0.0
C306 C 0.84567 0.13296 0.16164 0.0
C307 C 0.84886 0.10306 0.15704 0.0
C308 C 0.82846 0.07993 0.1608 0.0
C309 C 0.80462 0.08706 0.1689 0.0
C310 C 0.80265 0.11721 0.1732 0.0
H311 H 0.86163 0.15059 0.15886 0.0
O312 O 0.79282 0.21141 0.14673 0.0
O313 O 0.79066 0.19393 0.1655 0.0
O314 O 0.84157 0.23596 0.16187 0.0
O315 O 0.85397 0.19449 0.1729 0.0
C316 C 0.78272 0.0655 0.17288 0.0
C317 C 0.75837 0.07471 0.18051 0.0
H318 H 0.71367 0.10161 0.19444 0.0
H319 H 0.7127 0.1566 0.2002 0.0
H320 H 0.86719 0.09777 0.15073 0.0
H321 H 0.83136 0.05682 0.15739 0.0
H322 H 0.78432 0.04182 0.17009 0.0
H323 H 0.74118 0.05805 0.18321 0.0
Mn324 Mn 0.74626 0.75623 0.66047 0.0
Mn325 Mn 0.73136 0.82401 0.6741 0.0
C326 C 0.75458 0.80218 0.6503 0.0
C327 C 0.77911 0.71602 0.65542 0.0
C328 C 0.68153 0.78188 0.66455 0.0
O329 O 0.74519 0.74447 0.67847 0.0
O330 O 0.7365 0.79135 0.68656 0.0
C331 C 0.79132 0.83285 0.68635 0.0
N332 N 0.76949 0.84293 0.67841 0.0
C333 C 0.79902 0.88816 0.67373 0.0
C334 C 0.82175 0.87832 0.68189 0.0
C335 C 0.81788 0.85054 0.68822 0.0
C336 C 0.77301 0.8696 0.67226 0.0
H337 H 0.78854 0.81146 0.6912 0.0
C338 C 0.74137 0.76239 0.68758 0.0
O339 O 0.7495 0.71268 0.65519 0.0
O340 O 0.78966 0.74236 0.65905 0.0
N341 N 0.72659 0.85744 0.66292 0.0
C342 C 0.70301 0.86316 0.65509 0.0
C343 C 0.70352 0.88996 0.64797 0.0
C344 C 0.72819 0.91059 0.649 0.0
C345 C 0.75209 0.90431 0.65718 0.0
C346 C 0.75019 0.8774 0.66413 0.0
H347 H 0.68404 0.84734 0.65424 0.0
O348 O 0.75007 0.77706 0.6442 0.0
O349 O 0.75335 0.79955 0.66204 0.0
O350 O 0.69968 0.76136 0.66047 0.0
O351 O 0.69079 0.80648 0.66974 0.0
C352 C 0.7779 0.92351 0.65862 0.0
C353 C 0.80134 0.91544 0.66689 0.0
H354 H 0.84232 0.89184 0.68333 0.0
H355 H 0.83536 0.84276 0.69451 0.0
H356 H 0.68501 0.89462 0.64166 0.0
H357 H 0.72864 0.93109 0.6434 0.0
H358 H 0.78011 0.94438 0.65332 0.0
H359 H 0.8212 0.93024 0.66783 0.0
Mn360 Mn 0.75105 0.2489 0.33729 0.0
Mn361 Mn 0.73002 0.19048 0.31898 0.0
C362 C 0.75783 0.19823 0.34337 0.0
C363 C 0.78621 0.28458 0.3449 0.0
C364 C 0.68437 0.2275 0.33343 0.0
O365 O 0.74907 0.26994 0.32072 0.0
O366 O 0.73282 0.22943 0.3096 0.0
C367 C 0.7857 0.18824 0.30351 0.0
N368 N 0.76568 0.17409 0.31121 0.0
C369 C 0.79098 0.12548 0.30853 0.0
C370 C 0.81184 0.13947 0.30054 0.0
C371 C 0.80931 0.17104 0.29808 0.0
C372 C 0.76826 0.14389 0.31382 0.0
H373 H 0.78358 0.2124 0.30146 0.0
C374 C 0.74038 0.25774 0.31072 0.0
O375 O 0.75681 0.28877 0.34582 0.0
O376 O 0.79526 0.26006 0.3392 0.0
N377 N 0.72676 0.15145 0.32682 0.0
C378 C 0.70574 0.14182 0.33519 0.0
C379 C 0.70583 0.11101 0.33897 0.0
C380 C 0.72708 0.09035 0.33392 0.0
C381 C 0.74833 0.10083 0.32527 0.0
C382 C 0.74756 0.13187 0.32204 0.0
H383 H 0.68909 0.15754 0.33896 0.0
O384 O 0.75498 0.21998 0.35138 0.0
O385 O 0.75596 0.20666 0.33206 0.0
O386 O 0.70395 0.24619 0.33786 0.0
O387 O 0.69174 0.20509 0.32657 0.0
C388 C 0.77002 0.08161 0.31961 0.0
C389 C 0.79157 0.09394 0.31135 0.0
H390 H 0.82989 0.12621 0.29624 0.0
H391 H 0.82533 0.18202 0.29193 0.0
H392 H 0.68936 0.10313 0.34566 0.0
H393 H 0.72691 0.06652 0.33676 0.0
H394 H 0.76996 0.05726 0.32145 0.0
H395 H 0.80832 0.07894 0.30714 0.0
Mn396 Mn 0.7902 0.75619 0.83874 0.0
Mn397 Mn 0.80854 0.82577 0.82729 0.0
C398 C 0.78104 0.80046 0.84993 0.0
C399 C 0.75566 0.71612 0.84215 0.0
C400 C 0.85593 0.78081 0.83684 0.0
O401 O 0.79377 0.74741 0.82053 0.0
O402 O 0.80408 0.79542 0.81388 0.0
C403 C 0.75124 0.83939 0.81381 0.0
N404 N 0.77226 0.84724 0.82245 0.0
C405 C 0.74562 0.89443 0.82677 0.0
C406 C 0.72378 0.88693 0.81787 0.0
C407 C 0.72657 0.85925 0.81139 0.0
C408 C 0.7698 0.87382 0.82874 0.0
H409 H 0.75326 0.81813 0.80881 0.0
C410 C 0.79882 0.76678 0.81199 0.0
O411 O 0.78513 0.71194 0.84285 0.0
O412 O 0.74633 0.74319 0.83887 0.0
N413 N 0.81278 0.85703 0.83943 0.0
C414 C 0.83415 0.8595 0.84844 0.0
C415 C 0.83369 0.88519 0.85617 0.0
C416 C 0.8114 0.90814 0.8545 0.0
C417 C 0.78966 0.9051 0.84516 0.0
C418 C 0.79126 0.879 0.83775 0.0
H419 H 0.85129 0.84189 0.84976 0.0
O420 O 0.78449 0.77427 0.85539 0.0
O421 O 0.78394 0.80002 0.83817 0.0
O422 O 0.83697 0.75998 0.83998 0.0
O423 O 0.84771 0.80627 0.83209 0.0
C424 C 0.76615 0.92668 0.84306 0.0
C425 C 0.74404 0.92127 0.83392 0.0
H426 H 0.70463 0.9021 0.81602 0.0
H427 H 0.70972 0.85322 0.80455 0.0
H428 H 0.85045 0.88729 0.86339 0.0
H429 H 0.81102 0.92784 0.86052 0.0
H430 H 0.76459 0.9473 0.84854 0.0
H431 H 0.72569 0.93772 0.83257 0.0
Mn432 Mn 0.51843 0.51782 0.08711 0.0
Mn433 Mn 0.45256 0.53717 0.07287 0.0
C434 C 0.47159 0.51181 0.09675 0.0
C435 C 0.55584 0.48222 0.0928 0.0
C436 C 0.49591 0.58418 0.08351 0.0
O437 O 0.53142 0.51794 0.06931 0.0
O438 O 0.48654 0.53277 0.06079 0.0
C439 C 0.44311 0.47941 0.05911 0.0
N440 N 0.43274 0.50062 0.06725 0.0
C441 C 0.38555 0.47271 0.07013 0.0
C442 C 0.39566 0.4507 0.06172 0.0
C443 C 0.42459 0.45403 0.05621 0.0
C444 C 0.40489 0.49767 0.07258 0.0
H445 H 0.4654 0.48174 0.0549 0.0
C446 C 0.515 0.52515 0.0601 0.0
O447 O 0.56146 0.51151 0.09286 0.0
O448 O 0.52911 0.47363 0.08887 0.0
N449 N 0.41804 0.54148 0.08354 0.0
C450 C 0.41296 0.56309 0.09228 0.0
C451 C 0.38564 0.56217 0.09908 0.0
C452 C 0.36385 0.53908 0.09681 0.0
C453 C 0.36957 0.5171 0.08776 0.0
C454 C 0.39709 0.51933 0.08121 0.0
H455 H 0.4298 0.58065 0.09417 0.0
O456 O 0.49644 0.51557 0.1031 0.0
O457 O 0.47482 0.51295 0.085 0.0
O458 O 0.51628 0.565 0.08698 0.0
O459 O 0.47068 0.57625 0.0785 0.0
C460 C 0.34943 0.4926 0.08521 0.0
C461 C 0.35743 0.4704 0.07642 0.0
H462 H 0.38158 0.43094 0.05954 0.0
H463 H 0.43265 0.43695 0.04981 0.0
H464 H 0.38149 0.5791 0.1061 0.0
H465 H 0.34298 0.53823 0.10217 0.0
H466 H 0.32796 0.49032 0.09012 0.0
H467 H 0.34201 0.45135 0.07471 0.0
Mn468 Mn 0.02605 0.47639 0.59014 0.0
Mn469 Mn 0.09286 0.46139 0.57579 0.0
C470 C 0.07261 0.48455 0.59984 0.0
C471 C 0.98619 0.5093 0.59559 0.0
C472 C 0.05161 0.4116 0.5859 0.0
O473 O 0.01306 0.47532 0.5723 0.0
O474 O 0.05922 0.46587 0.56368 0.0
C475 C 0.10006 0.52136 0.56338 0.0
N476 N 0.11106 0.49964 0.57117 0.0
C477 C 0.15606 0.52994 0.5754 0.0
C478 C 0.14529 0.55254 0.56737 0.0
C479 C 0.11715 0.54824 0.56135 0.0
C480 C 0.13807 0.5036 0.57704 0.0
H481 H 0.07835 0.51826 0.55878 0.0
C482 C 0.03021 0.47082 0.56302 0.0
O483 O 0.98282 0.47968 0.59584 0.0
O484 O 0.01234 0.51979 0.59173 0.0
N485 N 0.1272 0.45707 0.58654 0.0
C486 C 0.13388 0.43352 0.59428 0.0
C487 C 0.16119 0.43439 0.60107 0.0
C488 C 0.18135 0.45939 0.59983 0.0
C489 C 0.1741 0.48324 0.59174 0.0
C490 C 0.14675 0.48093 0.5851 0.0
H491 H 0.11841 0.4143 0.59529 0.0
O492 O 0.04788 0.4801 0.60619 0.0
O493 O 0.06925 0.48343 0.58812 0.0
O494 O 0.03122 0.42977 0.59008 0.0
O495 O 0.07594 0.42082 0.58051 0.0
C496 C 0.19274 0.50938 0.59013 0.0
C497 C 0.18371 0.53273 0.58198 0.0
H498 H 0.15833 0.57337 0.56582 0.0
H499 H 0.10862 0.56565 0.55519 0.0
H500 H 0.1666 0.41591 0.60731 0.0
H501 H 0.20222 0.46014 0.60519 0.0
H502 H 0.21391 0.51192 0.59521 0.0
H503 H 0.19807 0.55288 0.58092 0.0
Mn504 Mn 0.50899 0.47738 0.90951 0.0
Mn505 Mn 0.44939 0.46036 0.92788 0.0
C506 C 0.45892 0.48417 0.90263 0.0
C507 C 0.54596 0.51146 0.9021 0.0
C508 C 0.49 0.4122 0.91594 0.0
O509 O 0.52832 0.47638 0.92653 0.0
O510 O 0.48538 0.47168 0.93803 0.0
C511 C 0.4369 0.52034 0.93959 0.0
N512 N 0.42719 0.49619 0.93271 0.0
C513 C 0.37615 0.51712 0.93141 0.0
C514 C 0.38561 0.54222 0.93847 0.0
C515 C 0.41615 0.54387 0.94255 0.0
C516 C 0.39787 0.49439 0.92874 0.0
H517 H 0.46029 0.52162 0.94277 0.0
C518 C 0.51436 0.47584 0.93678 0.0
O519 O 0.54964 0.48194 0.90147 0.0
O520 O 0.52113 0.52128 0.90737 0.0
N521 N 0.41332 0.44967 0.91889 0.0
C522 C 0.40849 0.42508 0.91146 0.0
C523 C 0.37933 0.42046 0.90635 0.0
C524 C 0.35543 0.44106 0.90897 0.0
C525 C 0.36101 0.46639 0.91655 0.0
C526 C 0.39054 0.46977 0.9214 0.0
H527 H 0.42669 0.409 0.9095 0.0
O528 O 0.48134 0.48073 0.89495 0.0
O529 O 0.46657 0.48305 0.91405 0.0
O530 O 0.50538 0.43065 0.90935 0.0
O531 O 0.46975 0.42117 0.92355 0.0
C532 C 0.33851 0.48846 0.91945 0.0
C533 C 0.34613 0.51394 0.92679 0.0
H534 H 0.36968 0.56044 0.94076 0.0
H535 H 0.42365 0.5632 0.94798 0.0
H536 H 0.37521 0.40094 0.90047 0.0
H537 H 0.33292 0.43713 0.90512 0.0
H538 H 0.31532 0.48618 0.91603 0.0
H539 H 0.32876 0.53102 0.92877 0.0
Mn540 Mn 0.03221 0.52258 0.41246 0.0
Mn541 Mn 0.09804 0.54463 0.42611 0.0
C542 C 0.07912 0.51623 0.4027 0.0
C543 C 0.99448 0.48643 0.40771 0.0
C544 C 0.05315 0.58956 0.41499 0.0
O545 O 0.01957 0.52494 0.43035 0.0
O546 O 0.06501 0.53933 0.43841 0.0
C547 C 0.11077 0.48832 0.44037 0.0
N548 N 0.11973 0.50942 0.43193 0.0
C549 C 0.16876 0.48471 0.42949 0.0
C550 C 0.16012 0.46278 0.4382 0.0
C551 C 0.13096 0.46456 0.44363 0.0
C552 C 0.14771 0.50791 0.42663 0.0
H553 H 0.08839 0.48959 0.44458 0.0
C554 C 0.03658 0.532 0.43943 0.0
O555 O 0.9891 0.5157 0.40712 0.0
O556 O 0.0214 0.4781 0.41157 0.0
N557 N 0.13178 0.54993 0.41516 0.0
C558 C 0.13556 0.57141 0.40627 0.0
C559 C 0.16313 0.5722 0.39965 0.0
C560 C 0.18651 0.55102 0.4023 0.0
C561 C 0.182 0.52897 0.41144 0.0
C562 C 0.1541 0.5294 0.41776 0.0
H563 H 0.11767 0.58778 0.40423 0.0
O564 O 0.05394 0.51854 0.39643 0.0
O565 O 0.07612 0.51865 0.41442 0.0
O566 O 0.03374 0.56951 0.41152 0.0
O567 O 0.07817 0.58274 0.42038 0.0
C568 C 0.20392 0.50641 0.41444 0.0
C569 C 0.19724 0.48417 0.4234 0.0
H570 H 0.17559 0.44435 0.44071 0.0
H571 H 0.12407 0.44765 0.45033 0.0
H572 H 0.16642 0.58915 0.39257 0.0
H573 H 0.20779 0.55193 0.39726 0.0
H574 H 0.2259 0.50578 0.40986 0.0
H575 H 0.21408 0.46663 0.42547 0.0
H576 H 0.9478 0.13393 0.58375 0.0
H577 H 0.95826 0.18899 0.58511 0.0
H578 H 0.05522 0.1702 0.58848 0.0
H579 H 0.04478 0.11521 0.58766 0.0
H580 H 0.04215 0.21435 0.6029 0.0
H581 H 0.02033 0.19447 0.56096 0.0
H582 H 0.9906 0.17529 0.54343 0.0
H583 H 0.9163 0.23589 0.55256 0.0
H584 H 0.94544 0.25515 0.57026 0.0
H585 H 0.09324 0.36449 0.58387 0.0
H586 H 0.08274 0.30917 0.58463 0.0
H587 H 0.98664 0.3277 0.59057 0.0
H588 H 0.99687 0.38283 0.59 0.0
H589 H 0.99967 0.28439 0.5715 0.0
H590 H 0.02524 0.30463 0.61357 0.0
H591 H 0.05827 0.32399 0.63011 0.0
H592 H 0.13016 0.26242 0.61914 0.0
H593 H 0.09769 0.243 0.60241 0.0
C594 C 0.97133 0.14153 0.58484 0.0
C595 C 0.99545 0.12015 0.58555 0.0
C596 C 0.97732 0.17305 0.58555 0.0
C597 C 0.00763 0.18388 0.58666 0.0
C598 C 0.03165 0.16251 0.58762 0.0
C599 C 0.02563 0.13102 0.58713 0.0
C600 C 0.01444 0.21741 0.58666 0.0
C601 C 0.03312 0.22953 0.59593 0.0
C602 C 0.00251 0.23747 0.57766 0.0
C603 C 0.98494 0.22602 0.567 0.0
C604 C 0.99756 0.20354 0.55928 0.0
C605 C 0.98083 0.19268 0.54931 0.0
C606 C 0.95154 0.2043 0.5469 0.0
C607 C 0.93896 0.22688 0.55445 0.0
C608 C 0.95559 0.23779 0.56444 0.0
C609 C 0.06991 0.35679 0.58541 0.0
C610 C 0.04591 0.37811 0.5869 0.0
C611 C 0.06397 0.32521 0.58587 0.0
C612 C 0.03392 0.31443 0.58767 0.0
C613 C 0.00998 0.3356 0.58917 0.0
C614 C 0.01593 0.3671 0.5889 0.0
C615 C 0.0272 0.28107 0.58771 0.0
C616 C 0.0086 0.26907 0.57844 0.0
C617 C 0.0397 0.26108 0.59656 0.0
C618 C 0.05915 0.27259 0.60666 0.0
C619 C 0.04819 0.29541 0.61461 0.0
C620 C 0.06679 0.30635 0.62404 0.0
C621 C 0.09633 0.2945 0.62565 0.0
C622 C 0.10729 0.27161 0.61787 0.0
C623 C 0.08879 0.26061 0.60842 0.0
H624 H 0.1107 0.303 0.63296 0.0
H625 H 0.93862 0.19587 0.53917 0.0
H626 H 0.88478 0.72515 0.83836 0.0
H627 H 0.93992 0.71517 0.83894 0.0
H628 H 0.95771 0.8127 0.83933 0.0
H629 H 0.90259 0.82278 0.83819 0.0
H630 H 0.99451 0.7881 0.82425 0.0
H631 H 0.96692 0.76356 0.86525 0.0
H632 H 0.93789 0.73815 0.8817 0.0
H633 H 0.96766 0.64993 0.86882 0.0
H634 H 0.99655 0.67479 0.85219 0.0
H635 H 0.15221 0.77649 0.84095 0.0
H636 H 0.09688 0.78563 0.84214 0.0
H637 H 0.07961 0.69124 0.83248 0.0
H638 H 0.13497 0.68187 0.83112 0.0
H639 H 0.04343 0.71409 0.8526 0.0
H640 H 0.07113 0.74108 0.8114 0.0
H641 H 0.10142 0.76837 0.79581 0.0
H642 H 0.07223 0.85502 0.81045 0.0
H643 H 0.04214 0.82823 0.82626 0.0
C644 C 0.90042 0.74448 0.83871 0.0
C645 C 0.88926 0.77477 0.83825 0.0
C646 C 0.93202 0.73874 0.83909 0.0
C647 C 0.95316 0.76315 0.83935 0.0
C648 C 0.94198 0.79343 0.83912 0.0
C649 C 0.91041 0.79918 0.8385 0.0
C650 C 0.9869 0.75719 0.83931 0.0
C651 C 0.00516 0.77228 0.8306 0.0
C652 C 0.00097 0.73607 0.8474 0.0
C653 C 0.98366 0.72104 0.85741 0.0
C654 C 0.96709 0.73873 0.86587 0.0
C655 C 0.95069 0.72442 0.87524 0.0
C656 C 0.95087 0.69244 0.87629 0.0
C657 C 0.96751 0.6747 0.86799 0.0
C658 C 0.98393 0.68889 0.8586 0.0
C659 C 0.1367 0.75759 0.83912 0.0
C660 C 0.14808 0.72845 0.8359 0.0
C661 C 0.10508 0.7629 0.83979 0.0
C662 C 0.08419 0.73914 0.83735 0.0
C663 C 0.09539 0.70986 0.8344 0.0
C664 C 0.12703 0.70461 0.83357 0.0
C665 C 0.05066 0.7451 0.83762 0.0
C666 C 0.03256 0.72998 0.84632 0.0
C667 C 0.03678 0.76651 0.82965 0.0
C668 C 0.05464 0.78264 0.82009 0.0
C669 C 0.07138 0.76595 0.81136 0.0
C670 C 0.08847 0.78133 0.80247 0.0
C671 C 0.08882 0.81341 0.80216 0.0
C672 C 0.07198 0.83018 0.81071 0.0
C673 C 0.05489 0.8149 0.81963 0.0
H674 H 0.10206 0.82528 0.79527 0.0
H675 H 0.93815 0.68141 0.88354 0.0
H676 H 0.45456 0.62994 0.0879 0.0
H677 H 0.46425 0.68508 0.08893 0.0
H678 H 0.56067 0.66897 0.08231 0.0
H679 H 0.55124 0.61354 0.08213 0.0
H680 H 0.55722 0.71293 0.09709 0.0
H681 H 0.50613 0.69361 0.0593 0.0
H682 H 0.46544 0.67393 0.04577 0.0
H683 H 0.39912 0.73128 0.06366 0.0
H684 H 0.43936 0.75102 0.07741 0.0
H685 H 0.58889 0.86464 0.07517 0.0
H686 H 0.57972 0.80927 0.07602 0.0
H687 H 0.49121 0.8252 0.09243 0.0
H688 H 0.50024 0.88066 0.09177 0.0
H689 H 0.49102 0.78227 0.07267 0.0
H690 H 0.54642 0.8023 0.11003 0.0
H691 H 0.58994 0.82265 0.12192 0.0
H692 H 0.65199 0.76394 0.10238 0.0
H693 H 0.60887 0.74357 0.09024 0.0
C694 C 0.47786 0.63815 0.08679 0.0
C695 C 0.50213 0.61743 0.08489 0.0
C696 C 0.48338 0.66976 0.08726 0.0
C697 C 0.5131 0.68148 0.08534 0.0
C698 C 0.5375 0.66068 0.08377 0.0
C699 C 0.53211 0.62897 0.08366 0.0
C700 C 0.51864 0.71532 0.0848 0.0
C701 C 0.54293 0.72792 0.09161 0.0
C702 C 0.49992 0.73526 0.07776 0.0
C703 C 0.4757 0.72357 0.06946 0.0
C704 C 0.48283 0.70188 0.0604 0.0
C705 C 0.45986 0.69073 0.05268 0.0
C706 C 0.4297 0.70129 0.05387 0.0
C707 C 0.42248 0.72309 0.06276 0.0
C708 C 0.44536 0.73429 0.07051 0.0
C709 C 0.56745 0.85645 0.07897 0.0
C710 C 0.54535 0.8772 0.08345 0.0
C711 C 0.56231 0.82476 0.07948 0.0
C712 C 0.53488 0.81315 0.08436 0.0
C713 C 0.51256 0.83371 0.08865 0.0
C714 C 0.51783 0.86541 0.0883 0.0
C715 C 0.5294 0.77953 0.08494 0.0
C716 C 0.50519 0.76708 0.07813 0.0
C717 C 0.5486 0.7597 0.09173 0.0
C718 C 0.57445 0.77161 0.09915 0.0
C719 C 0.56937 0.79389 0.1082 0.0
C720 C 0.59397 0.80541 0.115 0.0
C721 C 0.62373 0.79465 0.11288 0.0
C722 C 0.62894 0.77228 0.104 0.0
C723 C 0.60442 0.76071 0.09717 0.0
H724 H 0.64274 0.80361 0.11815 0.0
H725 H 0.41194 0.69262 0.04789 0.0
H726 H 0.6557 0.28104 0.33993 0.0
H727 H 0.60058 0.2899 0.34223 0.0
H728 H 0.5832 0.1939 0.33524 0.0
H729 H 0.63809 0.18525 0.33239 0.0
H730 H 0.54544 0.22496 0.32274 0.0
H731 H 0.57579 0.22914 0.36453 0.0
H732 H 0.6057 0.24631 0.38234 0.0
H733 H 0.57399 0.3387 0.37697 0.0
H734 H 0.54419 0.32215 0.35902 0.0
H735 H 0.38881 0.22581 0.34081 0.0
H736 H 0.44424 0.21715 0.34201 0.0
H737 H 0.4603 0.31441 0.33835 0.0
H738 H 0.40487 0.32334 0.33697 0.0
H739 H 0.49778 0.28271 0.3568 0.0
H740 H 0.46809 0.27612 0.31439 0.0
H741 H 0.43687 0.25646 0.29735 0.0
H742 H 0.46681 0.16457 0.30514 0.0
H743 H 0.49784 0.18366 0.32236 0.0
C744 C 0.64015 0.26176 0.33902 0.0
C745 C 0.6513 0.23245 0.33597 0.0
C746 C 0.60859 0.26682 0.3404 0.0
C747 C 0.58757 0.24252 0.33904 0.0
C748 C 0.59882 0.21308 0.33629 0.0
C749 C 0.63027 0.20814 0.3347 0.0
C750 C 0.55382 0.24794 0.33983 0.0
C751 C 0.53511 0.23716 0.33032 0.0
C752 C 0.54012 0.26441 0.34957 0.0
C753 C 0.558 0.27445 0.36036 0.0
C754 C 0.57538 0.25316 0.36709 0.0
C755 C 0.59228 0.26278 0.37722 0.0
C756 C 0.59181 0.29359 0.38077 0.0
C757 C 0.57436 0.31484 0.37421 0.0
C758 C 0.55744 0.30535 0.36406 0.0
C759 C 0.40407 0.24544 0.3404 0.0
C760 C 0.39239 0.27527 0.33872 0.0
C761 C 0.43573 0.24042 0.34107 0.0
C762 C 0.4563 0.26514 0.34021 0.0
C763 C 0.44476 0.29506 0.33905 0.0
C764 C 0.41309 0.30007 0.3382 0.0
C765 C 0.48986 0.25953 0.33979 0.0
C766 C 0.50837 0.27037 0.34931 0.0
C767 C 0.50339 0.24273 0.33018 0.0
C768 C 0.48502 0.23128 0.31974 0.0
C769 C 0.46781 0.2517 0.31253 0.0
C770 C 0.45018 0.24066 0.30283 0.0
C771 C 0.44979 0.20928 0.30019 0.0
C772 C 0.4671 0.18887 0.30721 0.0
C773 C 0.48472 0.19979 0.31694 0.0
H774 H 0.43612 0.20078 0.29267 0.0
H775 H 0.6049 0.30099 0.38861 0.0
H776 H 0.94464 0.86567 0.41383 0.0
H777 H 0.95497 0.8107 0.41235 0.0
H778 H 0.05173 0.82946 0.40815 0.0
H779 H 0.04134 0.88456 0.40905 0.0
H780 H 0.03786 0.78436 0.39415 0.0
H781 H 0.01813 0.8065 0.43611 0.0
H782 H 0.98921 0.82667 0.45368 0.0
H783 H 0.91435 0.76582 0.44556 0.0
H784 H 0.94267 0.74556 0.42783 0.0
H785 H 0.09289 0.63832 0.41518 0.0
H786 H 0.08036 0.69286 0.41312 0.0
H787 H 0.98466 0.67007 0.40868 0.0
H788 H 0.99695 0.61542 0.41058 0.0
H789 H 0.99711 0.71621 0.42656 0.0
H790 H 0.02134 0.69252 0.38478 0.0
H791 H 0.05381 0.67219 0.36825 0.0
H792 H 0.12503 0.73623 0.37758 0.0
H793 H 0.09314 0.75665 0.39429 0.0
C794 C 0.96809 0.85812 0.4125 0.0
C795 C 0.99219 0.87952 0.41163 0.0
C796 C 0.97401 0.82662 0.41172 0.0
C797 C 0.00424 0.81579 0.41042 0.0
C798 C 0.02822 0.83716 0.40919 0.0
C799 C 0.02224 0.8687 0.40972 0.0
C800 C 0.01098 0.78225 0.41062 0.0
C801 C 0.02919 0.76958 0.40132 0.0
C802 C 0.99944 0.7627 0.41989 0.0
C803 C 0.98239 0.77475 0.43057 0.0
C804 C 0.99541 0.79757 0.43802 0.0
C805 C 0.97914 0.809 0.44802 0.0
C806 C 0.94993 0.79759 0.45072 0.0
C807 C 0.93696 0.77467 0.44344 0.0
C808 C 0.95311 0.76319 0.43343 0.0
C809 C 0.06919 0.64486 0.41368 0.0
C810 C 0.04591 0.62248 0.41305 0.0
C811 C 0.06211 0.67603 0.41247 0.0
C812 C 0.03161 0.68544 0.41072 0.0
C813 C 0.00834 0.66323 0.41001 0.0
C814 C 0.01545 0.63201 0.41105 0.0
C815 C 0.02386 0.71856 0.41012 0.0
C816 C 0.00557 0.73108 0.41938 0.0
C817 C 0.03584 0.73802 0.40097 0.0
C818 C 0.05495 0.72592 0.39086 0.0
C819 C 0.04402 0.70209 0.38338 0.0
C820 C 0.0623 0.69059 0.37396 0.0
C821 C 0.09149 0.70286 0.37188 0.0
C822 C 0.10243 0.72673 0.3792 0.0
C823 C 0.08424 0.73829 0.38864 0.0
H824 H 0.10562 0.69392 0.36459 0.0
H825 H 0.93737 0.80646 0.45846 0.0
H826 H 0.40389 0.67846 0.66861 0.0
H827 H 0.45899 0.68883 0.66742 0.0
H828 H 0.44021 0.78478 0.66096 0.0
H829 H 0.38522 0.77439 0.66167 0.0
H830 H 0.48495 0.76867 0.64715 0.0
H831 H 0.46333 0.75597 0.68952 0.0
H832 H 0.44344 0.73015 0.70788 0.0
H833 H 0.50455 0.65431 0.70177 0.0
H834 H 0.52451 0.6795 0.68326 0.0
H835 H 0.6344 0.8237 0.6656 0.0
H836 H 0.57907 0.81304 0.66499 0.0
H837 H 0.59773 0.71623 0.66145 0.0
H838 H 0.65288 0.7266 0.66181 0.0
H839 H 0.55377 0.73325 0.6803 0.0
H840 H 0.57544 0.74934 0.6376 0.0
H841 H 0.59545 0.77853 0.62007 0.0
H842 H 0.53386 0.85276 0.62819 0.0
H843 H 0.51379 0.82418 0.6459 0.0
C844 C 0.41149 0.70174 0.66689 0.0
C845 C 0.3901 0.7256 0.66528 0.0
C846 C 0.44304 0.7077 0.66627 0.0
C847 C 0.45387 0.73773 0.66432 0.0
C848 C 0.43252 0.76143 0.66248 0.0
C849 C 0.40101 0.75543 0.66291 0.0
C850 C 0.48738 0.74459 0.66429 0.0
C851 C 0.49986 0.76121 0.65449 0.0
C852 C 0.50708 0.73468 0.67379 0.0
C853 C 0.49518 0.71948 0.68493 0.0
C854 C 0.47236 0.73368 0.69204 0.0
C855 C 0.4611 0.71918 0.70248 0.0
C856 C 0.47266 0.69057 0.70597 0.0
C857 C 0.49558 0.67645 0.69904 0.0
C858 C 0.50689 0.69084 0.68858 0.0
C859 C 0.62672 0.80017 0.66462 0.0
C860 C 0.64806 0.77602 0.66372 0.0
C861 C 0.59514 0.79414 0.66426 0.0
C862 C 0.58441 0.76386 0.66317 0.0
C863 C 0.6056 0.73974 0.66229 0.0
C864 C 0.6371 0.74577 0.66244 0.0
C865 C 0.55106 0.75714 0.66318 0.0
C866 C 0.53871 0.74062 0.67299 0.0
C867 C 0.53143 0.76763 0.65382 0.0
C868 C 0.54336 0.78476 0.64315 0.0
C869 C 0.56637 0.77201 0.63572 0.0
C870 C 0.57767 0.78842 0.62574 0.0
C871 C 0.566 0.81752 0.62304 0.0
C872 C 0.54292 0.83024 0.6303 0.0
C873 C 0.53155 0.81393 0.64031 0.0
H874 H 0.57478 0.83019 0.6153 0.0
H875 H 0.46392 0.67938 0.71406 0.0
H876 H 0.52204 0.38232 0.89799 0.0
H877 H 0.53142 0.32718 0.89608 0.0
H878 H 0.48172 0.3113 0.92949 0.0
H879 H 0.47139 0.36617 0.93124 0.0
H880 H 0.56159 0.28812 0.90893 0.0
H881 H 0.44679 0.24286 0.92947 0.0
H882 H 0.39235 0.25835 0.93044 0.0
H883 H 0.40319 0.31132 0.89773 0.0
H884 H 0.45754 0.29576 0.89646 0.0
H885 H 0.57892 0.13584 0.92905 0.0
H886 H 0.56839 0.19042 0.92664 0.0
H887 H 0.50034 0.16991 0.89926 0.0
H888 H 0.51001 0.11497 0.90194 0.0
H889 H 0.47843 0.21109 0.91355 0.0
H890 H 0.57237 0.20129 0.89202 0.0
H891 H 0.62609 0.18576 0.88849 0.0
H892 H 0.65551 0.24272 0.9182 0.0
H893 H 0.60189 0.25826 0.92203 0.0
C894 C 0.51298 0.36709 0.90491 0.0
C895 C 0.49582 0.37873 0.91474 0.0
C896 C 0.51843 0.33553 0.90382 0.0
C897 C 0.50696 0.31493 0.91255 0.0
C898 C 0.49022 0.32657 0.92247 0.0
C899 C 0.48444 0.35804 0.92349 0.0
C900 C 0.51299 0.28137 0.91145 0.0
C901 C 0.54338 0.2713 0.9099 0.0
C902 C 0.48918 0.2593 0.91237 0.0
C903 C 0.45633 0.26833 0.91294 0.0
C904 C 0.43751 0.25767 0.92245 0.0
C905 C 0.40668 0.26649 0.92306 0.0
C906 C 0.39435 0.28587 0.91417 0.0
C907 C 0.41279 0.29638 0.90463 0.0
C908 C 0.44362 0.28758 0.90397 0.0
C909 C 0.56186 0.14286 0.92243 0.0
C910 C 0.54536 0.12092 0.91567 0.0
C911 C 0.55595 0.17419 0.92102 0.0
C912 C 0.53386 0.18445 0.91264 0.0
C913 C 0.51751 0.16263 0.90579 0.0
C914 C 0.52314 0.1312 0.9073 0.0
C915 C 0.52715 0.21785 0.91137 0.0
C916 C 0.49662 0.2279 0.91249 0.0
C917 C 0.55072 0.23988 0.90967 0.0
C918 C 0.58306 0.23076 0.90736 0.0
C919 C 0.59027 0.21035 0.89785 0.0
C920 C 0.62071 0.20157 0.89579 0.0
C921 C 0.64419 0.2132 0.90313 0.0
C922 C 0.63729 0.23371 0.91253 0.0
C923 C 0.60688 0.24255 0.91464 0.0
H924 H 0.66775 0.20637 0.90153 0.0
H925 H 0.37048 0.29271 0.91467 0.0
H926 H 0.15587 0.22803 0.15882 0.0
H927 H 0.10076 0.2184 0.15762 0.0
H928 H 0.08291 0.31465 0.16378 0.0
H929 H 0.13804 0.32424 0.16544 0.0
H930 H 0.04694 0.28346 0.1774 0.0
H931 H 0.07201 0.27834 0.13525 0.0
H932 H 0.10005 0.26172 0.1169 0.0
H933 H 0.07206 0.16849 0.1232 0.0
H934 H 0.04418 0.18449 0.1417 0.0
H935 H 0.88772 0.2733 0.16132 0.0
H936 H 0.94257 0.28493 0.15943 0.0
H937 H 0.96439 0.18963 0.16559 0.0
H938 H 0.90964 0.17784 0.16779 0.0
H939 H 0.99702 0.22185 0.14495 0.0
H940 H 0.97368 0.22959 0.18805 0.0
H941 H 0.94416 0.24891 0.20561 0.0
H942 H 0.96788 0.34159 0.19609 0.0
H943 H 0.99715 0.3228 0.17833 0.0
C944 C 0.14025 0.24723 0.15977 0.0
C945 C 0.15141 0.27691 0.16224 0.0
C946 C 0.10867 0.24171 0.15903 0.0
C947 C 0.08753 0.26584 0.16047 0.0
C948 C 0.09868 0.29562 0.16266 0.0
C949 C 0.13024 0.30108 0.16358 0.0
C950 C 0.05386 0.25975 0.16036 0.0
C951 C 0.03606 0.27042 0.17017 0.0
C952 C 0.03949 0.24233 0.15105 0.0
C953 C 0.05623 0.23259 0.13993 0.0
C954 C 0.07203 0.25426 0.13278 0.0
C955 C 0.08787 0.24495 0.12234 0.0
C956 C 0.08791 0.21406 0.1189 0.0
C957 C 0.07204 0.19241 0.12588 0.0
C958 C 0.05619 0.20159 0.13634 0.0
C959 C 0.90416 0.25475 0.16218 0.0
C960 C 0.89432 0.22465 0.16474 0.0
C961 C 0.93545 0.26146 0.16112 0.0
C962 C 0.95742 0.23812 0.16238 0.0
C963 C 0.94771 0.20791 0.16456 0.0
C964 C 0.91645 0.20127 0.16587 0.0
C965 C 0.9906 0.24549 0.16195 0.0
C966 C 0.00814 0.23503 0.15208 0.0
C967 C 0.00468 0.26352 0.17107 0.0
C968 C 0.98729 0.27481 0.18179 0.0
C969 C 0.97234 0.2541 0.18963 0.0
C970 C 0.95571 0.26495 0.19963 0.0
C971 C 0.95406 0.29647 0.20194 0.0
C972 C 0.96913 0.31719 0.19427 0.0
C973 C 0.98575 0.30645 0.18424 0.0
H974 H 0.94118 0.30482 0.20969 0.0
H975 H 0.10018 0.2069 0.11081 0.0
H976 H 0.98218 0.94757 0.45802 0.0
H977 H 0.99932 0.9566 0.47872 0.0
H978 H 0.07867 0.00532 0.46526 0.0
H979 H 0.06117 0.99683 0.44427 0.0
H980 H 0.04697 0.94448 0.49273 0.0
H981 H 0.08966 0.06698 0.48466 0.0
H982 H 0.08491 0.10881 0.46958 0.0
H983 H 0.99489 0.07681 0.45983 0.0
H984 H 0.999 0.03511 0.47495 0.0
H985 H 0.06342 0.00173 0.55314 0.0
H986 H 0.07988 0.99316 0.53202 0.0
H987 H 1.00034 0.04252 0.51915 0.0
H988 H 0.98414 0.05152 0.54001 0.0
H989 H 0.04813 0.05426 0.50483 0.0
H990 H 0.99881 0.9648 0.52279 0.0
H991 H 0.99407 0.92325 0.53795 0.0
H992 H 0.08301 0.88907 0.52784 0.0
H993 H 0.08842 0.93075 0.51273 0.0
C994 C 0.00351 0.95991 0.45939 0.0
C995 C 0.02003 0.97192 0.44946 0.0
C996 C 0.01344 0.96482 0.47128 0.0
C997 C 0.04011 0.9819 0.47358 0.0
C998 C 0.05784 0.99231 0.46369 0.0
C999 C 0.04786 0.98736 0.45171 0.0
C1000 C 0.04687 0.99125 0.48631 0.0
C1001 C 0.04796 0.96848 0.49536 0.0
C1002 C 0.04775 0.02255 0.48979 0.0
C1003 C 0.04486 0.04774 0.4808 0.0
C1004 C 0.06887 0.06895 0.4793 0.0
C1005 C 0.06627 0.09262 0.47075 0.0
C1006 C 0.03967 0.09539 0.46371 0.0
C1007 C 0.01553 0.07458 0.46525 0.0
C1008 C 0.01799 0.05093 0.4738 0.0
C1009 C 0.04984 0.01131 0.5458 0.0
C1010 C 0.02223 0.02692 0.54826 0.0
C1011 C 0.05924 0.00634 0.53375 0.0
C1012 C 0.04116 0.01692 0.524 0.0
C1013 C 0.01471 0.03418 0.5265 0.0
C1014 C 0.00532 0.03907 0.53847 0.0
C1015 C 0.04729 0.0075 0.51124 0.0
C1016 C 0.0486 0.03025 0.50219 0.0
C1017 C 0.04749 0.97619 0.50776 0.0
C1018 C 0.0442 0.95107 0.51677 0.0
C1019 C 0.01744 0.94854 0.52387 0.0
C1020 C 0.01462 0.92497 0.53244 0.0
C1021 C 0.03827 0.90359 0.53389 0.0
C1022 C 0.06475 0.9057 0.52673 0.0
C1023 C 0.06772 0.92929 0.51817 0.0
H1024 H 0.03605 0.88534 0.54052 0.0
H1025 H 0.03774 0.11369 0.45709 0.0
H1026 H 0.29728 0.74457 0.80048 0.0
H1027 H 0.30467 0.75933 0.77924 0.0
H1028 H 0.21034 0.78963 0.77737 0.0
H1029 H 0.20278 0.7737 0.79867 0.0
H1030 H 0.2219 0.75374 0.75915 0.0
H1031 H 0.27229 0.84134 0.7749 0.0
H1032 H 0.30735 0.87115 0.78797 0.0
H1033 H 0.38481 0.82418 0.77253 0.0
H1034 H 0.35021 0.79374 0.75948 0.0
H1035 H 0.25498 0.78454 0.69653 0.0
H1036 H 0.245 0.80016 0.71768 0.0
H1037 H 0.32195 0.74574 0.72973 0.0
H1038 H 0.33145 0.72943 0.70874 0.0
H1039 H 0.31341 0.80635 0.74207 0.0
H1040 H 0.26045 0.711 0.73102 0.0
H1041 H 0.22585 0.68082 0.71789 0.0
H1042 H 0.15291 0.74504 0.72459 0.0
H1043 H 0.1873 0.77576 0.7377 0.0
C1044 C 0.27836 0.75498 0.79558 0.0
C1045 C 0.24957 0.75824 0.80112 0.0
C1046 C 0.28262 0.76365 0.78347 0.0
C1047 C 0.25819 0.77605 0.77669 0.0
C1048 C 0.22958 0.78032 0.78241 0.0
C1049 C 0.22529 0.77142 0.79456 0.0
C1050 C 0.26187 0.78108 0.76337 0.0
C1051 C 0.24143 0.7661 0.75545 0.0
C1052 C 0.28757 0.79679 0.75844 0.0
C1053 C 0.30859 0.81514 0.76623 0.0
C1054 C 0.29679 0.83721 0.77434 0.0
C1055 C 0.31659 0.85425 0.78174 0.0
C1056 C 0.34828 0.84954 0.78109 0.0
C1057 C 0.36025 0.82782 0.77301 0.0
C1058 C 0.34055 0.8107 0.7656 0.0
C1059 C 0.27019 0.77659 0.70367 0.0
C1060 C 0.29387 0.75568 0.70105 0.0
C1061 C 0.26446 0.78547 0.71571 0.0
C1062 C 0.28276 0.77406 0.72522 0.0
C1063 C 0.30771 0.75492 0.7225 0.0
C1064 C 0.313 0.7455 0.71053 0.0
C1065 C 0.27385 0.77855 0.73811 0.0
C1066 C 0.29339 0.79503 0.74586 0.0
C1067 C 0.24727 0.76443 0.74291 0.0
C1068 C 0.22649 0.74584 0.73519 0.0
C1069 C 0.2371 0.71879 0.72961 0.0
C1070 C 0.21752 0.70158 0.72218 0.0
C1071 C 0.18723 0.71108 0.72035 0.0
C1072 C 0.17641 0.73775 0.72599 0.0
C1073 C 0.19591 0.75506 0.73343 0.0
H1074 H 0.1721 0.69773 0.71459 0.0
H1075 H 0.36357 0.86275 0.78683 0.0
H1076 H 0.47307 0.9659 0.05505 0.0
H1077 H 0.45161 0.97721 0.03472 0.0
H1078 H 0.53694 0.02018 0.02439 0.0
H1079 H 0.55863 0.00817 0.04418 0.0
H1080 H 0.47856 0.05382 0.01824 0.0
H1081 H 0.53106 0.95221 0.01629 0.0
H1082 H 0.53532 0.89805 0.02269 0.0
H1083 H 0.44172 0.88221 0.01207 0.0
H1084 H 0.43685 0.93645 0.00576 0.0
H1085 H 0.54689 0.05859 0.96254 0.0
H1086 H 0.52699 0.05243 0.983 0.0
H1087 H 0.45235 0.99722 0.96924 0.0
H1088 H 0.47267 0.00299 0.94846 0.0
H1089 H 0.48012 0.96929 0.98795 0.0
H1090 H 0.43618 0.06652 0.98262 0.0
H1091 H 0.43185 0.12047 0.97604 0.0
H1092 H 0.50486 0.14577 0.00032 0.0
H1093 H 0.51002 0.09193 0.00692 0.0
C1094 C 0.48705 0.97797 0.04844 0.0
C1095 C 0.51757 0.98606 0.05121 0.0
C1096 C 0.47479 0.98442 0.03689 0.0
C1097 C 0.49269 0.99971 0.02814 0.0
C1098 C 0.52269 0.0086 0.03106 0.0
C1099 C 0.53511 0.00155 0.04239 0.0
C1100 C 0.48185 0.00504 0.01555 0.0
C1101 C 0.47837 0.03543 0.01158 0.0
C1102 C 0.48042 0.98088 0.00699 0.0
C1103 C 0.48346 0.94837 0.01072 0.0
C1104 C 0.51133 0.93722 0.01543 0.0
C1105 C 0.51387 0.90652 0.01901 0.0
C1106 C 0.48877 0.88672 0.01783 0.0
C1107 C 0.46111 0.89759 0.01301 0.0
C1108 C 0.45845 0.92829 0.00943 0.0
C1109 C 0.52596 0.04549 0.96377 0.0
C1110 C 0.51148 0.03115 0.95385 0.0
C1111 C 0.51439 0.04223 0.97551 0.0
C1112 C 0.48788 0.02471 0.97768 0.0
C1113 C 0.47269 0.01106 0.96777 0.0
C1114 C 0.48426 0.01447 0.95591 0.0
C1115 C 0.4787 0.01842 0.99048 0.0
C1116 C 0.4786 0.98781 0.99453 0.0
C1117 C 0.47646 0.04247 0.99912 0.0
C1118 C 0.47344 0.07508 0.99528 0.0
C1119 C 0.45142 0.08355 0.98652 0.0
C1120 C 0.44882 0.11413 0.98279 0.0
C1121 C 0.46806 0.13653 0.98776 0.0
C1122 C 0.48993 0.1284 0.99649 0.0
C1123 C 0.49264 0.09784 0.00026 0.0
H1124 H 0.46602 0.1602 0.98485 0.0
H1125 H 0.49078 0.86296 0.0206 0.0
H1126 H 0.19987 0.26267 0.20629 0.0
H1127 H 0.2088 0.25005 0.2277 0.0
H1128 H 0.29623 0.20994 0.21825 0.0
H1129 H 0.28652 0.22114 0.1967 0.0
H1130 H 0.27264 0.18179 0.23819 0.0
H1131 H 0.29101 0.28757 0.22547 0.0
H1132 H 0.27678 0.33765 0.21657 0.0
H1133 H 0.20234 0.34593 0.24195 0.0
H1134 H 0.2162 0.296 0.25108 0.0
H1135 H 0.33535 0.27995 0.29281 0.0
H1136 H 0.3262 0.26749 0.27149 0.0
H1137 H 0.25884 0.19992 0.2821 0.0
H1138 H 0.26833 0.21202 0.30362 0.0
H1139 H 0.27179 0.27915 0.26166 0.0
H1140 H 0.25129 0.14857 0.25705 0.0
H1141 H 0.26958 0.10009 0.26615 0.0
H1142 H 0.35528 0.14292 0.27543 0.0
H1143 H 0.33769 0.1915 0.26623 0.0
C1144 C 0.22046 0.25015 0.20875 0.0
C1145 C 0.24262 0.24303 0.19991 0.0
C1146 C 0.22563 0.24309 0.22098 0.0
C1147 C 0.25359 0.22987 0.22462 0.0
C1148 C 0.27456 0.22027 0.21566 0.0
C1149 C 0.269 0.22665 0.20336 0.0
C1150 C 0.26273 0.23026 0.23766 0.0
C1151 C 0.27234 0.20301 0.24337 0.0
C1152 C 0.2628 0.25802 0.24438 0.0
C1153 C 0.25445 0.28797 0.23887 0.0
C1154 C 0.27151 0.30001 0.2291 0.0
C1155 C 0.26353 0.32835 0.22402 0.0
C1156 C 0.23857 0.34483 0.22862 0.0
C1157 C 0.22163 0.3331 0.23837 0.0
C1158 C 0.22958 0.30485 0.24353 0.0
C1159 C 0.31909 0.26192 0.29064 0.0
C1160 C 0.30226 0.24723 0.29987 0.0
C1161 C 0.3139 0.25481 0.27844 0.0
C1162 C 0.29162 0.23302 0.27519 0.0
C1163 C 0.27628 0.21669 0.28441 0.0
C1164 C 0.28171 0.22362 0.29669 0.0
C1165 C 0.2819 0.23074 0.26227 0.0
C1166 C 0.27198 0.25779 0.25657 0.0
C1167 C 0.28204 0.20291 0.25561 0.0
C1168 C 0.293 0.17376 0.26107 0.0
C1169 C 0.27407 0.14761 0.261 0.0
C1170 C 0.28431 0.12012 0.26618 0.0
C1171 C 0.31352 0.11846 0.2714 0.0
C1172 C 0.3326 0.14427 0.27143 0.0
C1173 C 0.32248 0.17181 0.26625 0.0
H1174 H 0.3214 0.09716 0.27541 0.0
H1175 H 0.23244 0.36675 0.22465 0.0
H1176 H 0.82911 0.22596 0.21015 0.0
H1177 H 0.81697 0.24469 0.23047 0.0
H1178 H 0.75263 0.3094 0.21526 0.0
H1179 H 0.76484 0.29075 0.19467 0.0
H1180 H 0.78883 0.33002 0.2378 0.0
H1181 H 0.72025 0.25012 0.22322 0.0
H1182 H 0.70764 0.20049 0.21371 0.0
H1183 H 0.76258 0.15345 0.24031 0.0
H1184 H 0.77556 0.20296 0.24997 0.0
H1185 H 0.69492 0.26361 0.29417 0.0
H1186 H 0.70104 0.27876 0.2729 0.0
H1187 H 0.79519 0.30408 0.27999 0.0
H1188 H 0.78857 0.29006 0.30146 0.0
H1189 H 0.73765 0.24525 0.26017 0.0
H1190 H 0.82356 0.34697 0.25586 0.0
H1191 H 0.8339 0.39679 0.26572 0.0
H1192 H 0.73989 0.40229 0.27732 0.0
H1193 H 0.72885 0.35274 0.26738 0.0
C1194 C 0.81284 0.24464 0.21105 0.0
C1195 C 0.79754 0.25652 0.2008 0.0
C1196 C 0.80608 0.25544 0.22269 0.0
C1197 C 0.78372 0.2782 0.22436 0.0
C1198 C 0.77006 0.29189 0.21413 0.0
C1199 C 0.77699 0.28115 0.20238 0.0
C1200 C 0.77167 0.28374 0.23679 0.0
C1201 C 0.7774 0.31171 0.24273 0.0
C1202 C 0.75645 0.25994 0.24312 0.0
C1203 C 0.74902 0.23021 0.23725 0.0
C1204 C 0.72983 0.2292 0.22697 0.0
C1205 C 0.72258 0.20107 0.22157 0.0
C1206 C 0.73438 0.17378 0.22638 0.0
C1207 C 0.75347 0.17459 0.2366 0.0
C1208 C 0.76071 0.20267 0.24206 0.0
C1209 C 0.71645 0.27378 0.29129 0.0
C1210 C 0.74128 0.27571 0.29938 0.0
C1211 C 0.71999 0.28233 0.27913 0.0
C1212 C 0.74866 0.29229 0.27478 0.0
C1213 C 0.77274 0.29685 0.28313 0.0
C1214 C 0.76898 0.28883 0.2954 0.0
C1215 C 0.75486 0.2916 0.26146 0.0
C1216 C 0.74842 0.2641 0.25531 0.0
C1217 C 0.76913 0.31599 0.25504 0.0
C1218 C 0.77546 0.34598 0.26095 0.0
C1219 C 0.80505 0.35887 0.26046 0.0
C1220 C 0.81104 0.38706 0.26608 0.0
C1221 C 0.78759 0.40265 0.27217 0.0
C1222 C 0.75806 0.39013 0.27264 0.0
C1223 C 0.75195 0.36196 0.26703 0.0
H1224 H 0.79227 0.42447 0.27652 0.0
H1225 H 0.72865 0.15198 0.22224 0.0
H1226 H 0.72588 0.79093 0.70875 0.0
H1227 H 0.73887 0.77543 0.72937 0.0
H1228 H 0.77758 0.69098 0.71586 0.0
H1229 H 0.76497 0.70649 0.6949 0.0
H1230 H 0.73196 0.70054 0.74205 0.0
H1231 H 0.83062 0.7183 0.72112 0.0
H1232 H 0.86149 0.74694 0.70607 0.0
H1233 H 0.84157 0.83141 0.72464 0.0
H1234 H 0.81026 0.80326 0.7397 0.0
H1235 H 0.79481 0.70768 0.80292 0.0
H1236 H 0.78978 0.69232 0.78149 0.0
H1237 H 0.79267 0.78761 0.77072 0.0
H1238 H 0.79859 0.80292 0.79177 0.0
H1239 H 0.82532 0.75623 0.75563 0.0
H1240 H 0.72381 0.74436 0.7741 0.0
H1241 H 0.68702 0.7217 0.78864 0.0
H1242 H 0.70705 0.63162 0.77484 0.0
H1243 H 0.74422 0.65377 0.7603 0.0
C1244 C 0.73672 0.76879 0.71008 0.0
C1245 C 0.74475 0.75014 0.70011 0.0
C1246 C 0.74394 0.75992 0.72191 0.0
C1247 C 0.75922 0.73219 0.72408 0.0
C1248 C 0.76565 0.71246 0.71431 0.0
C1249 C 0.75846 0.72139 0.70237 0.0
C1250 C 0.77149 0.72656 0.73642 0.0
C1251 C 0.75293 0.71171 0.74503 0.0
C1252 C 0.79837 0.74188 0.74026 0.0
C1253 C 0.81805 0.7587 0.73149 0.0
C1254 C 0.83275 0.74299 0.72195 0.0
C1255 C 0.85032 0.75913 0.71343 0.0
C1256 C 0.85348 0.79098 0.71439 0.0
C1257 C 0.83913 0.80674 0.72391 0.0
C1258 C 0.82153 0.7907 0.73246 0.0
C1259 C 0.79463 0.72529 0.79596 0.0
C1260 C 0.7971 0.75654 0.79911 0.0
C1261 C 0.79166 0.71648 0.78372 0.0
C1262 C 0.79067 0.73881 0.77447 0.0
C1263 C 0.79362 0.76988 0.77764 0.0
C1264 C 0.79691 0.77862 0.78976 0.0
C1265 C 0.78544 0.73076 0.76147 0.0
C1266 C 0.80518 0.74355 0.7527 0.0
C1267 C 0.75941 0.71387 0.75755 0.0
C1268 C 0.73704 0.70065 0.76624 0.0
C1269 C 0.7205 0.7197 0.77423 0.0
C1270 C 0.69957 0.70696 0.78246 0.0
C1271 C 0.69478 0.67523 0.7827 0.0
C1272 C 0.71084 0.65618 0.77467 0.0
C1273 C 0.73183 0.66881 0.76644 0.0
H1274 H 0.67857 0.6654 0.78907 0.0
H1275 H 0.86707 0.80343 0.70778 0.0
H1276 H 0.51266 0.52851 0.94948 0.0
H1277 H 0.52989 0.53647 0.97035 0.0
H1278 H 0.57088 0.44616 0.97048 0.0
H1279 H 0.55254 0.43792 0.94952 0.0
H1280 H 0.53512 0.45215 0.98925 0.0
H1281 H 0.61556 0.51319 0.97362 0.0
H1282 H 0.64076 0.55218 0.96076 0.0
H1283 H 0.586 0.62289 0.97722 0.0
H1284 H 0.56011 0.5843 0.99005 0.0
H1285 H 0.56019 0.48622 0.05222 0.0
H1286 H 0.57667 0.47779 0.03109 0.0
H1287 H 0.51688 0.55075 0.01916 0.0
H1288 H 0.49989 0.55886 0.04013 0.0
H1289 H 0.57675 0.54834 0.007 0.0
H1290 H 0.48849 0.48435 0.01779 0.0
H1291 H 0.46244 0.44584 0.0306 0.0
H1292 H 0.53401 0.38072 0.02303 0.0
H1293 H 0.56066 0.41909 0.01025 0.0
C1294 C 0.52608 0.51073 0.95386 0.0
C1295 C 0.5315 0.48273 0.94796 0.0
C1296 C 0.53616 0.51534 0.96578 0.0
C1297 C 0.55205 0.49207 0.97201 0.0
C1298 C 0.55885 0.46454 0.96585 0.0
C1299 C 0.54862 0.4599 0.95388 0.0
C1300 C 0.55754 0.49524 0.98533 0.0
C1301 C 0.54519 0.47277 0.9931 0.0
C1302 C 0.57022 0.52233 0.99044 0.0
C1303 C 0.58581 0.54577 0.98278 0.0
C1304 C 0.60874 0.53703 0.97445 0.0
C1305 C 0.62317 0.55907 0.96717 0.0
C1306 C 0.61497 0.58998 0.96817 0.0
C1307 C 0.59235 0.59893 0.97646 0.0
C1308 C 0.57783 0.57698 0.98376 0.0
C1309 C 0.55109 0.50087 0.04512 0.0
C1310 C 0.5286 0.52305 0.04779 0.0
C1311 C 0.5605 0.49602 0.03307 0.0
C1312 C 0.54794 0.51365 0.02359 0.0
C1313 C 0.52694 0.53704 0.02636 0.0
C1314 C 0.51712 0.5415 0.03833 0.0
C1315 C 0.55366 0.50569 0.01068 0.0
C1316 C 0.56784 0.5273 0.00306 0.0
C1317 C 0.54284 0.47781 0.00568 0.0
C1318 C 0.52673 0.45465 0.01321 0.0
C1319 C 0.49877 0.4619 0.01894 0.0
C1320 C 0.48389 0.44009 0.02618 0.0
C1321 C 0.49662 0.41088 0.02768 0.0
C1322 C 0.52421 0.40338 0.02189 0.0
C1323 C 0.53921 0.42514 0.01464 0.0
H1324 H 0.48507 0.39403 0.0333 0.0
H1325 H 0.62616 0.60701 0.96252 0.0
H1326 H 0.05137 0.4438 0.54238 0.0
H1327 H 0.03558 0.45416 0.52152 0.0
H1328 H 0.96345 0.51353 0.53459 0.0
H1329 H 0.9793 0.50322 0.55567 0.0
H1330 H 0.9845 0.44957 0.50727 0.0
H1331 H 0.96648 0.57788 0.51581 0.0
H1332 H 0.97955 0.61755 0.53104 0.0
H1333 H 0.06169 0.56832 0.54039 0.0
H1334 H 0.04933 0.52871 0.52511 0.0
H1335 H 0.97947 0.51149 0.44686 0.0
H1336 H 0.96199 0.50349 0.46788 0.0
H1337 H 0.04813 0.5391 0.48122 0.0
H1338 H 0.06525 0.5479 0.46055 0.0
H1339 H 0.00427 0.55778 0.49548 0.0
H1340 H 0.0342 0.46016 0.47685 0.0
H1341 H 0.02935 0.41882 0.4616 0.0
H1342 H 0.93567 0.40397 0.47233 0.0
H1343 H 0.93991 0.44549 0.48756 0.0
C1344 C 0.03176 0.45862 0.54085 0.0
C1345 C 0.01684 0.47303 0.55066 0.0
C1346 C 0.02259 0.46432 0.52891 0.0
C1347 C 0.99851 0.4848 0.52649 0.0
C1348 C 0.98218 0.49772 0.53627 0.0
C1349 C 0.99122 0.49178 0.5483 0.0
C1350 C 0.99369 0.49531 0.51378 0.0
C1351 C 0.98813 0.47335 0.50469 0.0
C1352 C 0.99882 0.52625 0.5104 0.0
C1353 C 0.00671 0.55017 0.51946 0.0
C1354 C 0.98734 0.57561 0.52112 0.0
C1355 C 0.99464 0.59807 0.52974 0.0
C1356 C 0.02136 0.59539 0.53672 0.0
C1357 C 0.04094 0.57033 0.53503 0.0
C1358 C 0.03379 0.54786 0.52639 0.0
C1359 C 0.99444 0.51809 0.45429 0.0
C1360 C 0.02392 0.53004 0.45197 0.0
C1361 C 0.98445 0.51341 0.4663 0.0
C1362 C 0.00387 0.52038 0.47615 0.0
C1363 C 0.03263 0.53363 0.47381 0.0
C1364 C 0.0425 0.53845 0.46191 0.0
C1365 C 0.99604 0.51187 0.48889 0.0
C1366 C 0.99925 0.53423 0.49803 0.0
C1367 C 0.98971 0.48112 0.49229 0.0
C1368 C 0.98724 0.45612 0.48321 0.0
C1369 C 0.01253 0.44818 0.47589 0.0
C1370 C 0.0099 0.42472 0.46727 0.0
C1371 C 0.98219 0.40884 0.46597 0.0
C1372 C 0.95709 0.41633 0.47333 0.0
C1373 C 0.95959 0.43982 0.48195 0.0
H1374 H 0.98019 0.39069 0.45928 0.0
H1375 H 0.02694 0.61277 0.54341 0.0
H1376 H 0.19685 0.77771 0.65138 0.0
H1377 H 0.16368 0.81354 0.64039 0.0
H1378 H 0.2394 0.8767 0.6366 0.0
H1379 H 0.27281 0.84095 0.6476 0.0
H1380 H 0.18378 0.9054 0.6427 0.0
H1381 H 0.22202 0.83242 0.61339 0.0
H1382 H 0.23199 0.78032 0.60551 0.0
H1383 H 0.13517 0.76163 0.6051 0.0
H1384 H 0.12464 0.81348 0.61315 0.0
H1385 H 0.11384 1.00014 0.59852 0.0
H1386 H 0.15062 0.96596 0.60852 0.0
H1387 H 0.08324 0.89324 0.60846 0.0
H1388 H 0.04688 0.92689 0.59806 0.0
H1389 H 0.13674 0.86982 0.60402 0.0
H1390 H 0.09738 0.93969 0.63406 0.0
H1391 H 0.08542 0.99031 0.64294 0.0
H1392 H 0.18131 0.01338 0.64309 0.0
H1393 H 0.1938 0.96301 0.63405 0.0
C1394 C 0.20638 0.79939 0.64835 0.0
C1395 C 0.23749 0.80645 0.6503 0.0
C1396 C 0.18743 0.81975 0.64201 0.0
C1397 C 0.19923 0.84754 0.63753 0.0
C1398 C 0.22991 0.85529 0.63994 0.0
C1399 C 0.24895 0.83484 0.64622 0.0
C1400 C 0.17981 0.868 0.62999 0.0
C1401 C 0.17382 0.89784 0.63416 0.0
C1402 C 0.1663 0.85777 0.619 0.0
C1403 C 0.17257 0.82675 0.61397 0.0
C1404 C 0.20287 0.81713 0.61169 0.0
C1405 C 0.20862 0.78765 0.60719 0.0
C1406 C 0.18423 0.76765 0.60483 0.0
C1407 C 0.15404 0.77714 0.60694 0.0
C1408 C 0.14817 0.80658 0.61146 0.0
C1409 C 0.10704 0.97673 0.60049 0.0
C1410 C 0.07742 0.96625 0.59757 0.0
C1411 C 0.128 0.95728 0.60629 0.0
C1412 C 0.11948 0.92721 0.60951 0.0
C1413 C 0.09034 0.91635 0.60613 0.0
C1414 C 0.06955 0.93564 0.60018 0.0
C1415 C 0.14042 0.90734 0.61675 0.0
C1416 C 0.14675 0.87755 0.61254 0.0
C1417 C 0.15392 0.91747 0.62779 0.0
C1418 C 0.14648 0.94772 0.63326 0.0
C1419 C 0.11589 0.95565 0.6359 0.0
C1420 C 0.10902 0.98428 0.64098 0.0
C1421 C 0.13259 0.00508 0.64355 0.0
C1422 C 0.16308 0.99726 0.64108 0.0
C1423 C 0.17007 0.96867 0.63598 0.0
H1424 H 0.12722 0.02723 0.64748 0.0
H1425 H 0.18873 0.74483 0.60136 0.0
H1426 H 0.34113 0.77612 0.85195 0.0
H1427 H 0.37528 0.81105 0.86292 0.0
H1428 H 0.3027 0.87822 0.86502 0.0
H1429 H 0.26823 0.84327 0.85408 0.0
H1430 H 0.36002 0.9033 0.85868 0.0
H1431 H 0.31724 0.83617 0.8892 0.0
H1432 H 0.30461 0.78638 0.89868 0.0
H1433 H 0.40038 0.76328 0.90016 0.0
H1434 H 0.41358 0.81278 0.89054 0.0
H1435 H 0.42907 0.00071 0.90203 0.0
H1436 H 0.39279 0.96639 0.89187 0.0
H1437 H 0.45828 0.89227 0.89438 0.0
H1438 H 0.49422 0.92624 0.90493 0.0
H1439 H 0.40363 0.87072 0.89839 0.0
H1440 H 0.44765 0.93511 0.86767 0.0
H1441 H 0.46241 0.9839 0.85788 0.0
H1442 H 0.3676 0.01052 0.85581 0.0
H1443 H 0.3523 0.96204 0.86575 0.0
C1444 C 0.33249 0.79845 0.85462 0.0
C1445 C 0.30195 0.80694 0.85216 0.0
C1446 C 0.352 0.8183 0.86096 0.0
C1447 C 0.34139 0.84705 0.8649 0.0
C1448 C 0.31127 0.85607 0.86208 0.0
C1449 C 0.29163 0.83609 0.85584 0.0
C1450 C 0.3616 0.86747 0.87216 0.0
C1451 C 0.36924 0.89641 0.86745 0.0
C1452 C 0.3743 0.85803 0.88342 0.0
C1453 C 0.36637 0.82809 0.88906 0.0
C1454 C 0.33559 0.82036 0.89144 0.0
C1455 C 0.32833 0.79222 0.89687 0.0
C1456 C 0.35169 0.77172 0.90004 0.0
C1457 C 0.38233 0.77923 0.89773 0.0
C1458 C 0.38971 0.80732 0.89229 0.0
C1459 C 0.4356 0.977 0.90054 0.0
C1460 C 0.46456 0.96621 0.90422 0.0
C1461 C 0.41492 0.95745 0.89465 0.0
C1462 C 0.42304 0.92689 0.89209 0.0
C1463 C 0.45151 0.91577 0.89619 0.0
C1464 C 0.47205 0.93522 0.90222 0.0
C1465 C 0.4022 0.9067 0.88492 0.0
C1466 C 0.39443 0.87774 0.88964 0.0
C1467 C 0.38975 0.91594 0.87357 0.0
C1468 C 0.39886 0.94509 0.86757 0.0
C1469 C 0.42997 0.95147 0.86521 0.0
C1470 C 0.43843 0.97905 0.85962 0.0
C1471 C 0.41596 1.00033 0.85625 0.0
C1472 C 0.38498 0.99404 0.85844 0.0
C1473 C 0.3764 0.9665 0.86404 0.0
H1474 H 0.42256 0.02167 0.85192 0.0
H1475 H 0.34604 0.75003 0.9043 0.0
H1476 H 0.49304 0.07183 0.09592 0.0
H1477 H 0.45748 0.10732 0.10593 0.0
H1478 H 0.40465 0.03066 0.11934 0.0
H1479 H 0.43999 0.99499 0.1093 0.0
H1480 H 0.39423 0.11619 0.10375 0.0
H1481 H 0.38325 0.0494 0.14888 0.0
H1482 H 0.41304 0.01263 0.16124 0.0
H1483 H 0.49708 0.04843 0.14649 0.0
H1484 H 0.46782 0.08568 0.13418 0.0
H1485 H 0.27055 0.17124 0.14008 0.0
H1486 H 0.30624 0.1355 0.13031 0.0
H1487 H 0.3821 0.17857 0.14888 0.0
H1488 H 0.34655 0.21488 0.15855 0.0
H1489 H 0.38296 0.11163 0.14872 0.0
H1490 H 0.37367 0.19824 0.12169 0.0
H1491 H 0.3453 0.23633 0.10946 0.0
H1492 H 0.30536 0.16388 0.08818 0.0
H1493 H 0.33315 0.1253 0.10041 0.0
C1494 C 0.47368 0.06252 0.1009 0.0
C1495 C 0.46937 0.0306 0.10185 0.0
C1496 C 0.45337 0.08283 0.1066 0.0
C1497 C 0.42863 0.07161 0.11347 0.0
C1498 C 0.42379 0.03978 0.11417 0.0
C1499 C 0.44393 0.01945 0.10839 0.0
C1500 C 0.40842 0.09319 0.12018 0.0
C1501 C 0.39172 0.11514 0.11358 0.0
C1502 C 0.40543 0.09206 0.13302 0.0
C1503 C 0.42331 0.07009 0.14052 0.0
C1504 C 0.40809 0.04949 0.14831 0.0
C1505 C 0.42488 0.02856 0.15531 0.0
C1506 C 0.45692 0.02812 0.15462 0.0
C1507 C 0.47225 0.04871 0.14698 0.0
C1508 C 0.45557 0.0697 0.13998 0.0
C1509 C 0.29479 0.17293 0.14219 0.0
C1510 C 0.30578 0.19592 0.15006 0.0
C1511 C 0.31513 0.15255 0.13657 0.0
C1512 C 0.34677 0.15455 0.13883 0.0
C1513 C 0.35773 0.17671 0.14703 0.0
C1514 C 0.33743 0.19744 0.15252 0.0
C1515 C 0.36846 0.13423 0.13226 0.0
C1516 C 0.3854 0.11256 0.13889 0.0
C1517 C 0.37184 0.13574 0.11946 0.0
C1518 C 0.35524 0.15888 0.11205 0.0
C1519 C 0.35862 0.19041 0.11447 0.0
C1520 C 0.34269 0.2121 0.10753 0.0
C1521 C 0.32347 0.20253 0.09807 0.0
C1522 C 0.32022 0.17125 0.09552 0.0
C1523 C 0.33607 0.14947 0.10245 0.0
H1524 H 0.31117 0.21935 0.0927 0.0
H1525 H 0.46988 0.01188 0.16004 0.0
H1526 H 0.04053 0.07273 0.39824 0.0
H1527 H 0.07742 0.10621 0.38786 0.0
H1528 H 0.14629 0.03533 0.39018 0.0
H1529 H 0.10934 0.00143 0.40036 0.0
H1530 H 0.16666 0.09839 0.3961 0.0
H1531 H 0.11408 0.03999 0.36504 0.0
H1532 H 0.06825 0.02004 0.35449 0.0
H1533 H 0.03862 0.11216 0.34694 0.0
H1534 H 0.08408 0.13267 0.35762 0.0
H1535 H 0.2732 0.15843 0.35385 0.0
H1536 H 0.23784 0.1232 0.36409 0.0
H1537 H 0.16209 0.18342 0.35567 0.0
H1538 H 0.19719 0.21846 0.34525 0.0
H1539 H 0.14524 0.12506 0.35297 0.0
H1540 H 0.19526 0.18452 0.38365 0.0
H1541 H 0.23902 0.20687 0.39481 0.0
H1542 H 0.27115 0.11647 0.40386 0.0
H1543 H 0.22779 0.09355 0.39259 0.0
C1544 C 0.06366 0.06443 0.3967 0.0
C1545 C 0.07206 0.03444 0.40008 0.0
C1546 C 0.08463 0.08352 0.39073 0.0
C1547 C 0.11444 0.0731 0.38819 0.0
C1548 C 0.12335 0.04373 0.39206 0.0
C1549 C 0.10223 0.02441 0.39785 0.0
C1550 C 0.13582 0.09233 0.38099 0.0
C1551 C 0.16228 0.10391 0.38662 0.0
C1552 C 0.12954 0.10013 0.36874 0.0
C1553 C 0.1023 0.08786 0.36224 0.0
C1554 C 0.09765 0.05599 0.36123 0.0
C1555 C 0.07177 0.04459 0.3552 0.0
C1556 C 0.05049 0.06482 0.35007 0.0
C1557 C 0.0551 0.09651 0.35093 0.0
C1558 C 0.08093 0.10804 0.35696 0.0
C1559 C 0.24895 0.16395 0.35402 0.0
C1560 C 0.23802 0.19131 0.34879 0.0
C1561 C 0.22879 0.1439 0.35995 0.0
C1562 C 0.19738 0.15095 0.36084 0.0
C1563 C 0.18623 0.17755 0.35514 0.0
C1564 C 0.20635 0.19757 0.34918 0.0
C1565 C 0.17632 0.13117 0.36805 0.0
C1566 C 0.14981 0.11951 0.36243 0.0
C1567 C 0.18236 0.12365 0.38038 0.0
C1568 C 0.20848 0.13732 0.38716 0.0
C1569 C 0.21181 0.1694 0.38793 0.0
C1570 C 0.23651 0.18217 0.39429 0.0
C1571 C 0.25791 0.1631 0.4 0.0
C1572 C 0.25459 0.13121 0.3994 0.0
C1573 C 0.22995 0.11832 0.39303 0.0
H1574 H 0.27701 0.17304 0.40493 0.0
H1575 H 0.03047 0.05595 0.34541 0.0
H1576 H 0.95454 0.04769 0.40383 0.0
H1577 H 0.9184 0.0811 0.39352 0.0
H1578 H 0.87508 0.00162 0.37725 0.0
H1579 H 0.91563 0.96928 0.38566 0.0
H1580 H 0.87442 0.03698 0.36165 0.0
H1581 H 0.83393 0.06946 0.40413 0.0
H1582 H 0.84039 0.09229 0.42466 0.0
H1583 H 0.89858 0.16233 0.40979 0.0
H1584 H 0.89129 0.14086 0.38918 0.0
H1585 H 0.74164 0.16153 0.36239 0.0
H1586 H 0.77153 0.11894 0.3709 0.0
H1587 H 0.83752 0.12847 0.34183 0.0
H1588 H 0.80716 0.17018 0.33316 0.0
H1589 H 0.8261 0.12927 0.37962 0.0
H1590 H 0.87362 0.08389 0.33774 0.0
H1591 H 0.86667 0.05623 0.3183 0.0
H1592 H 0.79142 0.00563 0.3337 0.0
H1593 H 0.79723 0.03397 0.35304 0.0
C1594 C 0.93701 0.0375 0.3981 0.0
C1595 C 0.93714 0.00583 0.39581 0.0
C1596 C 0.91567 0.05666 0.39238 0.0
C1597 C 0.89261 0.04438 0.38482 0.0
C1598 C 0.8924 0.01226 0.38292 0.0
C1599 C 0.91519 0.99344 0.38794 0.0
C1600 C 0.87066 0.06464 0.37794 0.0
C1601 C 0.86353 0.05675 0.36582 0.0
C1602 C 0.8569 0.09154 0.38284 0.0
C1603 C 0.86289 0.10298 0.39526 0.0
C1604 C 0.84854 0.08936 0.40533 0.0
C1605 C 0.85214 0.10217 0.41693 0.0
C1606 C 0.87045 0.1282 0.41856 0.0
C1607 C 0.88469 0.14195 0.40855 0.0
C1608 C 0.8806 0.12967 0.39691 0.0
C1609 C 0.76194 0.15367 0.3576 0.0
C1610 C 0.77185 0.16874 0.34703 0.0
C1611 C 0.77902 0.12934 0.36245 0.0
C1612 C 0.80675 0.12006 0.35697 0.0
C1613 C 0.81585 0.13425 0.34605 0.0
C1614 C 0.79852 0.15831 0.34112 0.0
C1615 C 0.82847 0.10004 0.36383 0.0
C1616 C 0.83623 0.10868 0.37576 0.0
C1617 C 0.84262 0.07375 0.35882 0.0
C1618 C 0.8352 0.06169 0.34664 0.0
C1619 C 0.85497 0.06758 0.33681 0.0
C1620 C 0.85141 0.05162 0.32586 0.0
C1621 C 0.82864 0.02916 0.32477 0.0
C1622 C 0.80901 0.02306 0.33455 0.0
C1623 C 0.81206 0.03946 0.34542 0.0
H1624 H 0.82612 0.01657 0.31633 0.0
H1625 H 0.87328 0.13794 0.42756 0.0
H1626 H 0.57665 0.0407 0.10492 0.0
H1627 H 0.61596 0.0717 0.11469 0.0
H1628 H 0.6768 0.99305 0.11475 0.0
H1629 H 0.63421 0.96108 0.10812 0.0
H1630 H 0.69315 0.01789 0.13123 0.0
H1631 H 0.67494 0.07326 0.09267 0.0
H1632 H 0.64458 0.10252 0.07749 0.0
H1633 H 0.61653 0.166 0.10515 0.0
H1634 H 0.6468 0.13757 0.12043 0.0
H1635 H 0.80545 0.15877 0.13272 0.0
H1636 H 0.77734 0.11644 0.12291 0.0
H1637 H 0.71766 0.11 0.1541 0.0
H1638 H 0.74392 0.15364 0.1634 0.0
H1639 H 0.70808 0.12721 0.12045 0.0
H1640 H 0.71001 0.02026 0.15333 0.0
H1641 H 0.74663 0.98419 0.16275 0.0
H1642 H 0.8187 0.01852 0.13979 0.0
H1643 H 0.78251 0.05454 0.13016 0.0
C1644 C 0.59854 0.03022 0.10711 0.0
C1645 C 0.60334 0.99884 0.10497 0.0
C1646 C 0.62152 0.04823 0.11242 0.0
C1647 C 0.65079 0.03585 0.11485 0.0
C1648 C 0.65498 0.00402 0.11293 0.0
C1649 C 0.63096 0.98558 0.10868 0.0
C1650 C 0.67633 0.05515 0.12006 0.0
C1651 C 0.69633 0.04165 0.12862 0.0
C1652 C 0.68138 0.08647 0.11687 0.0
C1653 C 0.66285 0.1031 0.10768 0.0
C1654 C 0.66212 0.09333 0.0955 0.0
C1655 C 0.645 0.10976 0.0869 0.0
C1656 C 0.6285 0.13582 0.09038 0.0
C1657 C 0.62924 0.14574 0.10247 0.0
C1658 C 0.64645 0.12959 0.11108 0.0
C1659 C 0.78687 0.1477 0.1376 0.0
C1660 C 0.77765 0.1587 0.14906 0.0
C1661 C 0.77098 0.12345 0.13203 0.0
C1662 C 0.74592 0.10956 0.13792 0.0
C1663 C 0.73752 0.11971 0.14956 0.0
C1664 C 0.75278 0.14447 0.15495 0.0
C1665 C 0.72459 0.08933 0.13111 0.0
C1666 C 0.705 0.10307 0.1226 0.0
C1667 C 0.72083 0.05795 0.13388 0.0
C1668 C 0.74359 0.04049 0.14115 0.0
C1669 C 0.73379 0.02046 0.15043 0.0
C1670 C 0.7544 0.99976 0.15571 0.0
C1671 C 0.78496 0.99898 0.15184 0.0
C1672 C 0.79504 0.01919 0.1428 0.0
C1673 C 0.77453 0.03995 0.1375 0.0
H1674 H 0.80087 0.98287 0.1559 0.0
H1675 H 0.61527 0.14842 0.0837 0.0
H1676 H 0.79194 0.82377 0.87268 0.0
H1677 H 0.76155 0.86329 0.88337 0.0
H1678 H 0.70275 0.87194 0.85197 0.0
H1679 H 0.7317 0.8315 0.84166 0.0
H1680 H 0.7293 0.93102 0.86452 0.0
H1681 H 0.67338 0.83403 0.87032 0.0
H1682 H 0.66918 0.78047 0.87748 0.0
H1683 H 0.69423 0.80871 0.9136 0.0
H1684 H 0.69915 0.86235 0.90659 0.0
H1685 H 0.59894 0.01715 0.88343 0.0
H1686 H 0.63786 0.98408 0.8743 0.0
H1687 H 0.65077 0.93901 0.90903 0.0
H1688 H 0.60742 0.96735 0.91709 0.0
H1689 H 0.65309 0.89882 0.89543 0.0
H1690 H 0.70656 0.99639 0.89097 0.0
H1691 H 0.71468 0.05002 0.88417 0.0
H1692 H 0.69997 0.02299 0.84708 0.0
H1693 H 0.69173 0.96943 0.85358 0.0
C1694 C 0.77268 0.8344 0.86808 0.0
C1695 C 0.76487 0.82565 0.85617 0.0
C1696 C 0.75545 0.85689 0.87415 0.0
C1697 C 0.73025 0.87073 0.86835 0.0
C1698 C 0.72243 0.86186 0.85649 0.0
C1699 C 0.73915 0.83902 0.85058 0.0
C1700 C 0.71081 0.89338 0.87474 0.0
C1701 C 0.7126 0.92428 0.87132 0.0
C1702 C 0.68967 0.88442 0.88378 0.0
C1703 C 0.68705 0.8521 0.88789 0.0
C1704 C 0.67841 0.82875 0.87974 0.0
C1705 C 0.6758 0.79839 0.88378 0.0
C1706 C 0.68148 0.7912 0.89598 0.0
C1707 C 0.68988 0.81431 0.90415 0.0
C1708 C 0.6926 0.84467 0.90015 0.0
C1709 C 0.61048 1.00037 0.8891 0.0
C1710 C 0.6016 0.99629 0.90128 0.0
C1711 C 0.63324 0.9817 0.88393 0.0
C1712 C 0.64866 0.95946 0.891 0.0
C1713 C 0.63982 0.95591 0.90325 0.0
C1714 C 0.6157 0.97305 0.90809 0.0
C1715 C 0.67152 0.93771 0.8855 0.0
C1716 C 0.6702 0.9065 0.88894 0.0
C1717 C 0.69363 0.94667 0.87665 0.0
C1718 C 0.69816 0.97901 0.8728 0.0
C1719 C 0.70479 0.00199 0.88139 0.0
C1720 C 0.70946 0.03232 0.87759 0.0
C1721 C 0.70762 0.03988 0.86525 0.0
C1722 C 0.70128 0.01713 0.85664 0.0
C1723 C 0.69668 0.98679 0.86037 0.0
H1724 H 0.71124 0.06336 0.86234 0.0
H1725 H 0.67923 0.76775 0.89912 0.0
H1726 H 0.73714 0.84044 0.63166 0.0
H1727 H 0.76736 0.88279 0.62294 0.0
H1728 H 0.84276 0.85956 0.64686 0.0
H1729 H 0.81157 0.81965 0.65618 0.0
H1730 H 0.84274 0.91483 0.6461 0.0
H1731 H 0.83499 0.83965 0.61413 0.0
H1732 H 0.80911 0.80604 0.59924 0.0
H1733 H 0.76764 0.88475 0.58235 0.0
H1734 H 0.79301 0.9188 0.59725 0.0
H1735 H 0.94988 0.95701 0.59152 0.0
H1736 H 0.90937 0.92619 0.60064 0.0
H1737 H 0.88696 0.00135 0.6248 0.0
H1738 H 0.9299 0.03112 0.61631 0.0
H1739 H 0.85409 0.92649 0.60149 0.0
H1740 H 0.85074 0.97591 0.65037 0.0
H1741 H 0.88499 0.00084 0.66531 0.0
H1742 H 0.96334 0.95877 0.6484 0.0
H1743 H 0.92952 0.93332 0.63347 0.0
C1744 C 0.76008 0.84482 0.63505 0.0
C1745 C 0.77196 0.82741 0.6447 0.0
C1746 C 0.7775 0.86876 0.63002 0.0
C1747 C 0.80768 0.8744 0.6341 0.0
C1748 C 0.81953 0.85623 0.64358 0.0
C1749 C 0.80179 0.83323 0.64888 0.0
C1750 C 0.82748 0.89866 0.62856 0.0
C1751 C 0.84505 0.91739 0.63633 0.0
C1752 C 0.83096 0.90213 0.6158 0.0
C1753 C 0.81547 0.8817 0.60692 0.0
C1754 C 0.82012 0.84975 0.60731 0.0
C1755 C 0.80559 0.83063 0.59886 0.0
C1756 C 0.78663 0.84324 0.58989 0.0
C1757 C 0.78224 0.87501 0.58933 0.0
C1758 C 0.79667 0.89422 0.59778 0.0
C1759 C 0.93634 0.96682 0.59884 0.0
C1760 C 0.94259 0.99643 0.60316 0.0
C1761 C 0.91299 0.94929 0.60401 0.0
C1762 C 0.89492 0.96116 0.61352 0.0
C1763 C 0.90092 0.99118 0.61771 0.0
C1764 C 0.92521 0.00834 0.61281 0.0
C1765 C 0.87051 0.94148 0.61904 0.0
C1766 C 0.8516 0.9241 0.61126 0.0
C1767 C 0.86709 0.93792 0.63179 0.0
C1768 C 0.88766 0.95318 0.64069 0.0
C1769 C 0.87529 0.97203 0.64985 0.0
C1770 C 0.89461 0.98621 0.65832 0.0
C1771 C 0.92633 0.98153 0.65776 0.0
C1772 C 0.93878 0.96252 0.64878 0.0
C1773 C 0.91956 0.94823 0.6403 0.0
H1774 H 0.94126 0.99254 0.66433 0.0
H1775 H 0.77542 0.8284 0.58335 0.0
H1776 H 0.77228 0.33 0.1452 0.0
H1777 H 0.73713 0.36513 0.13491 0.0
H1778 H 0.66184 0.30318 0.14189 0.0
H1779 H 0.69704 0.26764 0.15213 0.0
H1780 H 0.66259 0.32261 0.11834 0.0
H1781 H 0.66867 0.3697 0.15781 0.0
H1782 H 0.69499 0.39153 0.17571 0.0
H1783 H 0.73665 0.46046 0.15314 0.0
H1784 H 0.71091 0.43878 0.13507 0.0
H1785 H 0.54355 0.42385 0.10024 0.0
H1786 H 0.57774 0.38853 0.11086 0.0
H1787 H 0.65165 0.45422 0.10791 0.0
H1788 H 0.61694 0.49031 0.09774 0.0
H1789 H 0.6513 0.43232 0.12965 0.0
H1790 H 0.64677 0.38545 0.09013 0.0
H1791 H 0.62164 0.36365 0.07196 0.0
H1792 H 0.57877 0.29448 0.09406 0.0
H1793 H 0.60334 0.31611 0.1124 0.0
C1794 C 0.74819 0.32393 0.14465 0.0
C1795 C 0.73744 0.29603 0.14951 0.0
C1796 C 0.7281 0.34411 0.13879 0.0
C1797 C 0.69679 0.33691 0.1377 0.0
C1798 C 0.6859 0.3092 0.14264 0.0
C1799 C 0.70601 0.28899 0.14854 0.0
C1800 C 0.67571 0.35788 0.13105 0.0
C1801 C 0.65974 0.34651 0.12091 0.0
C1802 C 0.67271 0.38926 0.13419 0.0
C1803 C 0.68806 0.40244 0.14507 0.0
C1804 C 0.68363 0.38937 0.15665 0.0
C1805 C 0.69841 0.40174 0.16683 0.0
C1806 C 0.71753 0.42732 0.16556 0.0
C1807 C 0.72185 0.44063 0.15411 0.0
C1808 C 0.70714 0.42833 0.14389 0.0
C1809 C 0.5672 0.43063 0.1017 0.0
C1810 C 0.57763 0.45979 0.09808 0.0
C1811 C 0.58681 0.41033 0.10776 0.0
C1812 C 0.61752 0.41841 0.11006 0.0
C1813 C 0.62809 0.44739 0.10626 0.0
C1814 C 0.6083 0.46795 0.10038 0.0
C1815 C 0.6382 0.39716 0.11684 0.0
C1816 C 0.65411 0.40846 0.12703 0.0
C1817 C 0.64133 0.36575 0.11368 0.0
C1818 C 0.62669 0.35258 0.10265 0.0
C1819 C 0.63183 0.36572 0.09113 0.0
C1820 C 0.61771 0.35337 0.08079 0.0
C1821 C 0.59857 0.32775 0.08186 0.0
C1822 C 0.59358 0.31435 0.09325 0.0
C1823 C 0.60763 0.32662 0.10361 0.0
H1824 H 0.58764 0.31823 0.07385 0.0
H1825 H 0.72896 0.43686 0.17345 0.0
H1826 H 0.84829 0.27733 0.3476 0.0
H1827 H 0.88381 0.31092 0.35865 0.0
H1828 H 0.80946 0.3732 0.36659 0.0
H1829 H 0.77384 0.33981 0.35558 0.0
H1830 H 0.86214 0.40322 0.3592 0.0
H1831 H 0.83369 0.32423 0.38798 0.0
H1832 H 0.82781 0.27072 0.39498 0.0
H1833 H 0.92491 0.25639 0.3912 0.0
H1834 H 0.93131 0.30972 0.38402 0.0
H1835 H 0.93331 0.49511 0.40349 0.0
H1836 H 0.89767 0.45976 0.39353 0.0
H1837 H 0.96973 0.39209 0.39067 0.0
H1838 H 0.00506 0.4269 0.40112 0.0
H1839 H 0.91875 0.36404 0.39521 0.0
H1840 H 0.94861 0.44081 0.36631 0.0
H1841 H 0.95631 0.49331 0.35845 0.0
H1842 H 0.85949 0.51069 0.36122 0.0
H1843 H 0.85126 0.4584 0.36925 0.0
C1844 C 0.83955 0.2983 0.35162 0.0
C1845 C 0.80824 0.30588 0.35075 0.0
C1846 C 0.85985 0.31737 0.35798 0.0
C1847 C 0.84919 0.34437 0.36356 0.0
C1848 C 0.81814 0.35243 0.36239 0.0
C1849 C 0.79781 0.3333 0.3561 0.0
C1850 C 0.87027 0.36414 0.37075 0.0
C1851 C 0.87425 0.39479 0.36716 0.0
C1852 C 0.88673 0.35285 0.38092 0.0
C1853 C 0.88293 0.32087 0.38535 0.0
C1854 C 0.85375 0.3096 0.38855 0.0
C1855 C 0.85033 0.27931 0.39257 0.0
C1856 C 0.87596 0.26014 0.3935 0.0
C1857 C 0.90508 0.27125 0.39046 0.0
C1858 C 0.90862 0.30151 0.38642 0.0
C1859 C 0.94142 0.47253 0.40089 0.0
C1860 C 0.97202 0.46384 0.40302 0.0
C1861 C 0.9211 0.45241 0.3951 0.0
C1862 C 0.93118 0.4235 0.39103 0.0
C1863 C 0.96139 0.41429 0.39364 0.0
C1864 C 0.98159 0.43422 0.39963 0.0
C1865 C 0.91058 0.40333 0.38371 0.0
C1866 C 0.9067 0.37256 0.38725 0.0
C1867 C 0.89451 0.41438 0.37337 0.0
C1868 C 0.89937 0.44579 0.36849 0.0
C1869 C 0.92899 0.4559 0.36531 0.0
C1870 C 0.93345 0.48561 0.36082 0.0
C1871 C 0.90842 0.50535 0.35936 0.0
C1872 C 0.87886 0.49539 0.36237 0.0
C1873 C 0.87428 0.46571 0.36688 0.0
H1874 H 0.91192 0.52834 0.35588 0.0
H1875 H 0.87327 0.2367 0.39661 0.0
H1876 H 0.9846 0.57196 0.59438 0.0
H1877 H 0.94829 0.60643 0.60453 0.0
H1878 H 0.89826 0.52831 0.61829 0.0
H1879 H 0.93432 0.49366 0.60812 0.0
H1880 H 0.8843 0.61361 0.60318 0.0
H1881 H 0.88012 0.54578 0.64827 0.0
H1882 H 0.91238 0.50985 0.66003 0.0
H1883 H 0.99358 0.54871 0.64404 0.0
H1884 H 0.96184 0.58514 0.63233 0.0
H1885 H 0.76376 0.66654 0.64148 0.0
H1886 H 0.79872 0.63056 0.63142 0.0
H1887 H 0.87609 0.67524 0.64836 0.0
H1888 H 0.8413 0.71176 0.65829 0.0
H1889 H 0.87792 0.60817 0.64829 0.0
H1890 H 0.86428 0.69487 0.62159 0.0
H1891 H 0.83392 0.73266 0.60998 0.0
H1892 H 0.79261 0.65981 0.58932 0.0
H1893 H 0.8224 0.62154 0.60096 0.0
C1894 C 0.96563 0.56212 0.59943 0.0
C1895 C 0.96238 0.5301 0.6005 0.0
C1896 C 0.9449 0.58184 0.6052 0.0
C1897 C 0.92084 0.56989 0.61226 0.0
C1898 C 0.91687 0.53795 0.61297 0.0
C1899 C 0.93742 0.51822 0.60712 0.0
C1900 C 0.90075 0.59079 0.61931 0.0
C1901 C 0.88282 0.61235 0.61303 0.0
C1902 C 0.8992 0.58941 0.63218 0.0
C1903 C 0.91856 0.56794 0.63933 0.0
C1904 C 0.90486 0.54672 0.6473 0.0
C1905 C 0.92306 0.52626 0.65395 0.0
C1906 C 0.95501 0.52692 0.65275 0.0
C1907 C 0.96883 0.54813 0.64493 0.0
C1908 C 0.95074 0.56866 0.63827 0.0
C1909 C 0.78817 0.66844 0.64321 0.0
C1910 C 0.79983 0.69202 0.65064 0.0
C1911 C 0.80809 0.64795 0.63743 0.0
C1912 C 0.83992 0.65044 0.6391 0.0
C1913 C 0.85155 0.67301 0.64697 0.0
C1914 C 0.83168 0.69384 0.65261 0.0
C1915 C 0.86112 0.63056 0.63213 0.0
C1916 C 0.87926 0.60924 0.63843 0.0
C1917 C 0.86311 0.63237 0.61929 0.0
C1918 C 0.84531 0.65533 0.61224 0.0
C1919 C 0.8485 0.68689 0.61465 0.0
C1920 C 0.83145 0.7084 0.60805 0.0
C1921 C 0.81128 0.69864 0.59894 0.0
C1922 C 0.8082 0.66734 0.5964 0.0
C1923 C 0.82518 0.64573 0.60299 0.0
H1924 H 0.7981 0.71533 0.59384 0.0
H1925 H 0.96905 0.51105 0.6579 0.0
H1926 H 0.6933 0.71536 0.8392 0.0
H1927 H 0.65661 0.67992 0.84865 0.0
H1928 H 0.73153 0.62868 0.86432 0.0
H1929 H 0.76836 0.66366 0.85478 0.0
H1930 H 0.64899 0.61409 0.848 0.0
H1931 H 0.70888 0.61709 0.89497 0.0
H1932 H 0.74344 0.65113 0.90658 0.0
H1933 H 0.70923 0.72928 0.88698 0.0
H1934 H 0.67371 0.69593 0.87558 0.0
H1935 H 0.59391 0.49688 0.8872 0.0
H1936 H 0.6284 0.53207 0.87651 0.0
H1937 H 0.58298 0.60931 0.89322 0.0
H1938 H 0.54807 0.57419 0.90389 0.0
H1939 H 0.64773 0.61401 0.89322 0.0
H1940 H 0.56537 0.59399 0.86531 0.0
H1941 H 0.52994 0.56139 0.85349 0.0
H1942 H 0.60633 0.52081 0.83471 0.0
H1943 H 0.64226 0.55287 0.84656 0.0
C1944 C 0.70197 0.6962 0.84447 0.0
C1945 C 0.73371 0.69236 0.84629 0.0
C1946 C 0.68099 0.67596 0.84984 0.0
C1947 C 0.69139 0.65192 0.85728 0.0
C1948 C 0.72308 0.64724 0.85867 0.0
C1949 C 0.74407 0.66719 0.85318 0.0
C1950 C 0.66918 0.63301 0.86424 0.0
C1951 C 0.64874 0.614 0.85788 0.0
C1952 C 0.66853 0.63339 0.87713 0.0
C1953 C 0.68891 0.6539 0.8843 0.0
C1954 C 0.70854 0.64158 0.89322 0.0
C1955 C 0.72825 0.66077 0.89978 0.0
C1956 C 0.72853 0.69236 0.89752 0.0
C1957 C 0.70894 0.70484 0.88875 0.0
C1958 C 0.689 0.68579 0.88223 0.0
C1959 C 0.59136 0.52134 0.88868 0.0
C1960 C 0.56819 0.53277 0.89637 0.0
C1961 C 0.61103 0.54141 0.88253 0.0
C1962 C 0.60805 0.57328 0.88399 0.0
C1963 C 0.5856 0.58477 0.89196 0.0
C1964 C 0.56566 0.5647 0.89802 0.0
C1965 C 0.628 0.59452 0.87699 0.0
C1966 C 0.64801 0.61403 0.88334 0.0
C1967 C 0.62807 0.59481 0.86409 0.0
C1968 C 0.60652 0.57563 0.85691 0.0
C1969 C 0.57463 0.57793 0.85873 0.0
C1970 C 0.55445 0.55959 0.85201 0.0
C1971 C 0.56588 0.53899 0.84337 0.0
C1972 C 0.59751 0.53676 0.84142 0.0
C1973 C 0.61779 0.55503 0.84812 0.0
H1974 H 0.55023 0.52481 0.83818 0.0
H1975 H 0.74392 0.70716 0.90257 0.0
H1976 H 0.43136 0.5333 0.91285 0.0
H1977 H 0.38834 0.56292 0.90509 0.0
H1978 H 0.38334 0.50311 0.87379 0.0
H1979 H 0.42456 0.47137 0.88237 0.0
H1980 H 0.39109 0.59575 0.88668 0.0
H1981 H 0.32696 0.50966 0.85856 0.0
H1982 H 0.30565 0.45706 0.85891 0.0
H1983 H 0.28869 0.46518 0.89729 0.0
H1984 H 0.311 0.51745 0.89718 0.0
H1985 H 0.3078 0.67645 0.84253 0.0
H1986 H 0.33704 0.63473 0.85185 0.0
H1987 H 0.26457 0.62103 0.87809 0.0
H1988 H 0.23501 0.6631 0.86865 0.0
H1989 H 0.29205 0.56456 0.86808 0.0
H1990 H 0.3198 0.66051 0.88684 0.0
H1991 H 0.33561 0.71479 0.88621 0.0
H1992 H 0.41986 0.68954 0.86853 0.0
H1993 H 0.40404 0.63511 0.86867 0.0
C1994 C 0.41982 0.52532 0.90472 0.0
C1995 C 0.43028 0.49915 0.89854 0.0
C1996 C 0.39556 0.54268 0.90012 0.0
C1997 C 0.38213 0.53529 0.88886 0.0
C1998 C 0.39243 0.50891 0.88267 0.0
C1999 C 0.41624 0.49092 0.8875 0.0
C2000 C 0.36069 0.55761 0.88303 0.0
C2001 C 0.36936 0.58874 0.88272 0.0
C2002 C 0.33242 0.5489 0.87766 0.0
C2003 C 0.32109 0.51699 0.87792 0.0
C2004 C 0.31909 0.49995 0.86709 0.0
C2005 C 0.30697 0.47022 0.86725 0.0
C2006 C 0.29621 0.45763 0.87816 0.0
C2007 C 0.29762 0.47474 0.88891 0.0
C2008 C 0.31028 0.50425 0.88883 0.0
C2009 C 0.29787 0.66412 0.85014 0.0
C2010 C 0.26895 0.67233 0.85474 0.0
C2011 C 0.3146 0.64042 0.85547 0.0
C2012 C 0.3029 0.62481 0.86562 0.0
C2013 C 0.27378 0.63268 0.87018 0.0
C2014 C 0.25707 0.6567 0.86487 0.0
C2015 C 0.32244 0.60223 0.87202 0.0
C2016 C 0.31365 0.57129 0.87222 0.0
C2017 C 0.35053 0.61114 0.87742 0.0
C2018 C 0.36059 0.64374 0.87767 0.0
C2019 C 0.34161 0.66654 0.88274 0.0
C2020 C 0.35058 0.69735 0.88248 0.0
C2021 C 0.37876 0.70564 0.87735 0.0
C2022 C 0.39803 0.68309 0.87249 0.0
C2023 C 0.38904 0.65225 0.87265 0.0
H2024 H 0.38565 0.72952 0.87715 0.0
H2025 H 0.28654 0.43473 0.87825 0.0
H2026 H 0.11185 0.46632 0.618 0.0
H2027 H 0.15467 0.49611 0.62656 0.0
H2028 H 0.13051 0.57243 0.60325 0.0
H2029 H 0.09015 0.54162 0.59402 0.0
H2030 H 0.18567 0.57297 0.60382 0.0
H2031 H 0.11157 0.56296 0.63613 0.0
H2032 H 0.07859 0.53603 0.65096 0.0
H2033 H 0.15804 0.49392 0.66701 0.0
H2034 H 0.19147 0.52033 0.65218 0.0
H2035 H 0.22805 0.67845 0.65861 0.0
H2036 H 0.1975 0.6377 0.6495 0.0
H2037 H 0.27276 0.61573 0.62534 0.0
H2038 H 0.30252 0.65855 0.63397 0.0
H2039 H 0.19865 0.5818 0.64848 0.0
H2040 H 0.24636 0.58245 0.5992 0.0
H2041 H 0.27016 0.6183 0.58456 0.0
H2042 H 0.22776 0.69459 0.60277 0.0
H2043 H 0.20343 0.65917 0.61742 0.0
C2044 C 0.11615 0.48935 0.61469 0.0
C2045 C 0.09832 0.50161 0.60524 0.0
C2046 C 0.14036 0.50653 0.61964 0.0
C2047 C 0.14583 0.53688 0.61571 0.0
C2048 C 0.12731 0.54908 0.60641 0.0
C2049 C 0.10406 0.53155 0.60117 0.0
C2050 C 0.17015 0.55654 0.62131 0.0
C2051 C 0.1885 0.57472 0.6136 0.0
C2052 C 0.174 0.55931 0.63408 0.0
C2053 C 0.15394 0.54321 0.64292 0.0
C2054 C 0.12196 0.54774 0.64276 0.0
C2055 C 0.1032 0.53261 0.65117 0.0
C2056 C 0.1162 0.51316 0.65989 0.0
C2057 C 0.148 0.50889 0.66023 0.0
C2058 C 0.16686 0.52391 0.65182 0.0
C2059 C 0.23801 0.66486 0.65135 0.0
C2060 C 0.26767 0.67118 0.64707 0.0
C2061 C 0.22062 0.64143 0.64616 0.0
C2062 C 0.23259 0.62349 0.63665 0.0
C2063 C 0.26262 0.62955 0.63248 0.0
C2064 C 0.27974 0.65378 0.63745 0.0
C2065 C 0.21293 0.59929 0.63101 0.0
C2066 C 0.19596 0.57983 0.6387 0.0
C2067 C 0.20894 0.59671 0.61825 0.0
C2068 C 0.22355 0.6182 0.60952 0.0
C2069 C 0.24217 0.60688 0.60008 0.0
C2070 C 0.25571 0.62712 0.59178 0.0
C2071 C 0.25061 0.65871 0.59278 0.0
C2072 C 0.23183 0.67013 0.60205 0.0
C2073 C 0.21819 0.64999 0.61036 0.0
H2074 H 0.26113 0.67433 0.58634 0.0
H2075 H 0.10164 0.50149 0.6664 0.0
H2076 H 0.11154 0.46926 0.41221 0.0
H2077 H 0.15264 0.43987 0.40273 0.0
H2078 H 0.14413 0.49483 0.37024 0.0
H2079 H 0.10483 0.52641 0.38028 0.0
H2080 H 0.13869 0.40735 0.38162 0.0
H2081 H 0.19193 0.4985 0.36035 0.0
H2082 H 0.21683 0.5494 0.36089 0.0
H2083 H 0.27016 0.52162 0.39188 0.0
H2084 H 0.24467 0.47092 0.39174 0.0
H2085 H 0.23061 0.32289 0.3407 0.0
H2086 H 0.19964 0.36431 0.34933 0.0
H2087 H 0.26576 0.37555 0.37825 0.0
H2088 H 0.29709 0.33384 0.3695 0.0
H2089 H 0.24432 0.43224 0.36784 0.0
H2090 H 0.20406 0.33798 0.38445 0.0
H2091 H 0.18393 0.28514 0.38313 0.0
H2092 H 0.10863 0.31675 0.36122 0.0
H2093 H 0.12861 0.36974 0.36224 0.0
C2094 C 0.11974 0.4763 0.40334 0.0
C2095 C 0.10615 0.50111 0.39722 0.0
C2096 C 0.14299 0.45922 0.39785 0.0
C2097 C 0.15231 0.46567 0.38589 0.0
C2098 C 0.13856 0.49031 0.37966 0.0
C2099 C 0.11575 0.50804 0.38533 0.0
C2100 C 0.17241 0.44326 0.37955 0.0
C2101 C 0.16166 0.41295 0.37848 0.0
C2102 C 0.20248 0.45031 0.37555 0.0
C2103 C 0.21556 0.4815 0.37634 0.0
C2104 C 0.20823 0.50365 0.36751 0.0
C2105 C 0.22264 0.53235 0.36768 0.0
C2106 C 0.24494 0.53882 0.37646 0.0
C2107 C 0.25278 0.51664 0.38512 0.0
C2108 C 0.23815 0.48805 0.38507 0.0
C2109 C 0.2387 0.3345 0.34881 0.0
C2110 C 0.26649 0.32589 0.35431 0.0
C2111 C 0.22096 0.35799 0.35376 0.0
C2112 C 0.23046 0.37297 0.3644 0.0
C2113 C 0.25822 0.36436 0.36997 0.0
C2114 C 0.27595 0.34057 0.36504 0.0
C2115 C 0.21047 0.3966 0.36996 0.0
C2116 C 0.22124 0.42684 0.3709 0.0
C2117 C 0.1803 0.38954 0.37379 0.0
C2118 C 0.16798 0.35778 0.37333 0.0
C2119 C 0.18333 0.33363 0.37928 0.0
C2120 C 0.17194 0.30366 0.37859 0.0
C2121 C 0.14506 0.29758 0.37207 0.0
C2122 C 0.12947 0.32149 0.36625 0.0
C2123 C 0.1408 0.3515 0.36689 0.0
H2124 H 0.13629 0.27435 0.37155 0.0
H2125 H 0.25621 0.56098 0.37653 0.0
H2126 H 0.44335 0.52519 0.11837 0.0
H2127 H 0.40209 0.49544 0.12828 0.0
H2128 H 0.40009 0.43342 0.0977 0.0
H2129 H 0.44227 0.4617 0.08822 0.0
H2130 H 0.33697 0.46283 0.1105 0.0
H2131 H 0.4318 0.39957 0.11409 0.0
H2132 H 0.48653 0.39519 0.11967 0.0
H2133 H 0.46627 0.42821 0.15564 0.0
H2134 H 0.41147 0.43327 0.15017 0.0
H2135 H 0.25199 0.33104 0.12974 0.0
H2136 H 0.28399 0.3705 0.1203 0.0
H2137 H 0.33236 0.38248 0.15437 0.0
H2138 H 0.30463 0.33908 0.16274 0.0
H2139 H 0.37136 0.38352 0.13987 0.0
H2140 H 0.27438 0.43944 0.1377 0.0
H2141 H 0.2201 0.44841 0.13194 0.0
H2142 H 0.24258 0.4343 0.09433 0.0
H2143 H 0.29675 0.42527 0.09981 0.0
C2144 C 0.43372 0.50543 0.11375 0.0
C2145 C 0.44499 0.49638 0.10233 0.0
C2146 C 0.4102 0.48862 0.11936 0.0
C2147 C 0.39783 0.46265 0.11358 0.0
C2148 C 0.409 0.45375 0.10217 0.0
C2149 C 0.43286 0.47006 0.09673 0.0
C2150 C 0.37535 0.44286 0.11986 0.0
C2151 C 0.34417 0.44544 0.11698 0.0
C2152 C 0.38497 0.42066 0.12835 0.0
C2153 C 0.41772 0.41714 0.13168 0.0
C2154 C 0.4391 0.40616 0.12315 0.0
C2155 C 0.4701 0.4035 0.12629 0.0
C2156 C 0.47989 0.41151 0.13799 0.0
C2157 C 0.45867 0.42209 0.14657 0.0
C2158 C 0.42765 0.42485 0.14346 0.0
C2159 C 0.26925 0.34251 0.1352 0.0
C2160 C 0.27451 0.33332 0.14727 0.0
C2161 C 0.28731 0.36553 0.12986 0.0
C2162 C 0.31025 0.3807 0.13665 0.0
C2163 C 0.31489 0.37166 0.14881 0.0
C2164 C 0.29821 0.34744 0.15383 0.0
C2165 C 0.33171 0.40341 0.1309 0.0
C2166 C 0.36325 0.40121 0.13371 0.0
C2167 C 0.32211 0.42625 0.12244 0.0
C2168 C 0.28947 0.4313 0.1192 0.0
C2169 C 0.2676 0.43798 0.12823 0.0
C2170 C 0.23694 0.44313 0.12501 0.0
C2171 C 0.22792 0.4417 0.11282 0.0
C2172 C 0.24956 0.4353 0.10378 0.0
C2173 C 0.28024 0.43024 0.10693 0.0
H2174 H 0.20418 0.44569 0.11037 0.0
H2175 H 0.50389 0.40944 0.14041 0.0
loop_
_geom_bond_atom_site_label_1
_geom_bond_atom_site_label_2
_geom_bond_distance
_geom_bond_site_symmetry_2
_ccdc_geom_bond_type
Mn0 O5 2.095 . S
Mn0 O15 2.162 . S
Mn0 O16 2.297 1_545 S
Mn0 O24 2.385 1_455 S
Mn0 O25 2.209 1_455 S
Mn0 O26 2.094 . S
Mn1 O6 2.121 . S
Mn1 N8 2.257 . S
Mn1 N17 2.282 . S
Mn1 O25 2.215 . S
Mn1 O27 2.117 . S
C2 O24 1.234 . S
C2 O25 1.283 . S
C3 O15 1.281 1_565 S
C3 O16 1.236 . S
C4 O26 1.240 . S
C4 O27 1.264 1_455 S
O5 Mn0 2.095 . S
O5 C14 1.250 . S
O6 Mn1 2.121 . S
O6 C14 1.258 1_655 S
C7 N8 1.326 1_565 S
C7 C11 1.460 . S
C7 H13 0.929 . S
N8 Mn1 2.257 . S
N8 C7 1.326 1_545 S
N8 C12 1.362 . S
C9 C10 1.258 1_545 S
C9 C12 1.431 . S
C9 C29 1.449 . S
C10 C9 1.258 1_565 S
C10 C11 1.477 . S
C10 H30 0.931 . S
C11 C7 1.460 . S
C11 C10 1.477 . S
C11 H31 0.930 . S
C12 N8 1.362 . S
C12 C9 1.431 . S
C12 C22 1.476 . S
H13 C7 0.929 . S
C14 O5 1.250 . S
C14 O6 1.258 1_455 S
O15 Mn0 2.162 . S
O15 C3 1.281 1_545 S
O16 Mn0 2.297 1_565 S
O16 C3 1.236 . S
N17 Mn1 2.282 . S
N17 C18 1.328 . S
N17 C22 1.318 . S
C18 N17 1.328 . S
C18 C19 1.457 . S
C18 H23 0.929 . S
C19 C18 1.457 . S
C19 C20 1.291 . S
C19 H32 0.931 . S
C20 C19 1.291 . S
C20 C21 1.373 . S
C20 H33 0.929 . S
C21 C20 1.373 . S
C21 C22 1.396 . S
C21 C28 1.403 . S
C22 C12 1.476 . S
C22 N17 1.318 . S
C22 C21 1.396 . S
H23 C18 0.929 . S
O24 Mn0 2.385 1_655 S
O24 C2 1.234 . S
O25 Mn0 2.209 1_655 S
O25 Mn1 2.215 . S
O25 C2 1.283 . S
O26 Mn0 2.094 . S
O26 C4 1.240 . S
O27 Mn1 2.117 . S
O27 C4 1.264 1_655 S
C28 C21 1.403 . S
C28 C29 1.399 . S
C28 H34 0.929 . S
C29 C9 1.449 . S
C29 C28 1.399 . S
C29 H35 0.930 1_545 S
H30 C10 0.931 . S
H31 C11 0.930 . S
H32 C19 0.931 . S
H33 C20 0.929 . S
H34 C28 0.929 . S
H35 C29 0.930 1_565 S
Mn36 O41 2.095 . S
Mn36 O51 2.162 . S
Mn36 O52 2.297 . S
Mn36 O60 2.385 . S
Mn36 O61 2.209 . S
Mn36 O62 2.094 . S
Mn37 O42 2.121 . S
Mn37 N44 2.257 . S
Mn37 N53 2.282 . S
Mn37 O61 2.215 . S
Mn37 O63 2.117 . S
C38 O60 1.234 . S
C38 O61 1.283 . S
C39 O51 1.281 . S
C39 O52 1.236 . S
C40 O62 1.240 . S
C40 O63 1.264 . S
O41 Mn36 2.095 . S
O41 C50 1.250 . S
O42 Mn37 2.121 . S
O42 C50 1.258 . S
C43 N44 1.326 . S
C43 C47 1.460 . S
C43 H49 0.929 . S
N44 Mn37 2.257 . S
N44 C43 1.326 . S
N44 C48 1.362 . S
C45 C46 1.258 . S
C45 C48 1.431 . S
C45 C65 1.449 . S
C46 C45 1.258 . S
C46 C47 1.477 . S
C46 H66 0.931 . S
C47 C43 1.460 . S
C47 C46 1.477 . S
C47 H67 0.930 . S
C48 N44 1.362 . S
C48 C45 1.431 . S
C48 C58 1.476 . S
H49 C43 0.929 . S
C50 O41 1.250 . S
C50 O42 1.258 . S
O51 Mn36 2.162 . S
O51 C39 1.281 . S
O52 Mn36 2.297 . S
O52 C39 1.236 . S
N53 Mn37 2.282 . S
N53 C54 1.328 . S
N53 C58 1.318 . S
C54 N53 1.328 . S
C54 C55 1.457 . S
C54 H59 0.929 . S
C55 C54 1.457 . S
C55 C56 1.291 . S
C55 H68 0.931 . S
C56 C55 1.291 . S
C56 C57 1.373 . S
C56 H69 0.929 . S
C57 C56 1.373 . S
C57 C58 1.396 . S
C57 C64 1.403 . S
C58 C48 1.476 . S
C58 N53 1.318 . S
C58 C57 1.396 . S
H59 C54 0.929 . S
O60 Mn36 2.385 . S
O60 C38 1.234 . S
O61 Mn36 2.209 . S
O61 Mn37 2.215 . S
O61 C38 1.283 . S
O62 Mn36 2.094 . S
O62 C40 1.240 . S
O63 Mn37 2.117 . S
O63 C40 1.264 . S
C64 C57 1.403 . S
C64 C65 1.399 . S
C64 H70 0.929 . S
C65 C45 1.449 . S
C65 C64 1.399 . S
C65 H71 0.930 . S
H66 C46 0.931 . S
H67 C47 0.930 . S
H68 C55 0.931 . S
H69 C56 0.929 . S
H70 C64 0.929 . S
H71 C65 0.930 . S
Mn72 O77 2.095 . S
Mn72 O87 2.162 . S
Mn72 O88 2.297 1_565 S
Mn72 O96 2.385 . S
Mn72 O97 2.209 . S
Mn72 O98 2.094 . S
Mn73 O78 2.121 . S
Mn73 N80 2.257 . S
Mn73 N89 2.282 . S
Mn73 O97 2.215 . S
Mn73 O99 2.117 . S
C74 O96 1.234 . S
C74 O97 1.283 . S
C75 O87 1.281 1_545 S
C75 O88 1.236 . S
C76 O98 1.240 . S
C76 O99 1.264 . S
O77 Mn72 2.095 . S
O77 C86 1.250 . S
O78 Mn73 2.121 . S
O78 C86 1.258 . S
C79 N80 1.326 1_545 S
C79 C83 1.460 . S
C79 H85 0.929 . S
N80 Mn73 2.257 . S
N80 C79 1.326 1_565 S
N80 C84 1.362 . S
C81 C82 1.258 1_565 S
C81 C84 1.431 . S
C81 C101 1.449 . S
C82 C81 1.258 1_545 S
C82 C83 1.477 . S
C82 H102 0.931 . S
C83 C79 1.460 . S
C83 C82 1.477 . S
C83 H103 0.930 . S
C84 N80 1.362 . S
C84 C81 1.431 . S
C84 C94 1.476 . S
H85 C79 0.929 . S
C86 O77 1.250 . S
C86 O78 1.258 . S
O87 Mn72 2.162 . S
O87 C75 1.281 1_565 S
O88 Mn72 2.297 1_545 S
O88 C75 1.236 . S
N89 Mn73 2.282 . S
N89 C90 1.328 . S
N89 C94 1.318 . S
C90 N89 1.328 . S
C90 C91 1.457 . S
C90 H95 0.929 . S
C91 C90 1.457 . S
C91 C92 1.291 . S
C91 H104 0.931 . S
C92 C91 1.291 . S
C92 C93 1.373 . S
C92 H105 0.929 . S
C93 C92 1.373 . S
C93 C94 1.396 . S
C93 C100 1.403 . S
C94 C84 1.476 . S
C94 N89 1.318 . S
C94 C93 1.396 . S
H95 C90 0.929 . S
O96 Mn72 2.385 . S
O96 C74 1.234 . S
O97 Mn72 2.209 . S
O97 Mn73 2.215 . S
O97 C74 1.283 . S
O98 Mn72 2.094 . S
O98 C76 1.240 . S
O99 Mn73 2.117 . S
O99 C76 1.264 . S
C100 C93 1.403 . S
C100 C101 1.399 . S
C100 H106 0.929 . S
C101 C81 1.449 . S
C101 C100 1.399 . S
C101 H107 0.930 1_565 S
H102 C82 0.931 . S
H103 C83 0.930 . S
H104 C91 0.931 . S
H105 C92 0.929 . S
H106 C100 0.929 . S
H107 C101 0.930 1_545 S
Mn108 O113 2.095 . S
Mn108 O123 2.162 . S
Mn108 O124 2.297 . S
Mn108 O132 2.385 . S
Mn108 O133 2.209 . S
Mn108 O134 2.094 . S
Mn109 O114 2.121 . S
Mn109 N116 2.257 . S
Mn109 N125 2.282 . S
Mn109 O133 2.215 . S
Mn109 O135 2.117 . S
C110 O132 1.234 . S
C110 O133 1.283 . S
C111 O123 1.281 . S
C111 O124 1.236 . S
C112 O134 1.240 . S
C112 O135 1.264 . S
O113 Mn108 2.095 . S
O113 C122 1.250 . S
O114 Mn109 2.121 . S
O114 C122 1.258 . S
C115 N116 1.326 . S
C115 C119 1.460 . S
C115 H121 0.929 . S
N116 Mn109 2.257 . S
N116 C115 1.326 . S
N116 C120 1.362 . S
C117 C118 1.258 . S
C117 C120 1.431 . S
C117 C137 1.449 . S
C118 C117 1.258 . S
C118 C119 1.477 . S
C118 H138 0.931 . S
C119 C115 1.460 . S
C119 C118 1.477 . S
C119 H139 0.930 . S
C120 N116 1.362 . S
C120 C117 1.431 . S
C120 C130 1.476 . S
H121 C115 0.929 . S
C122 O113 1.250 . S
C122 O114 1.258 . S
O123 Mn108 2.162 . S
O123 C111 1.281 . S
O124 Mn108 2.297 . S
O124 C111 1.236 . S
N125 Mn109 2.282 . S
N125 C126 1.328 . S
N125 C130 1.318 . S
C126 N125 1.328 . S
C126 C127 1.457 . S
C126 H131 0.929 . S
C127 C126 1.457 . S
C127 C128 1.291 . S
C127 H140 0.931 . S
C128 C127 1.291 . S
C128 C129 1.373 . S
C128 H141 0.929 . S
C129 C128 1.373 . S
C129 C130 1.396 . S
C129 C136 1.403 . S
C130 C120 1.476 . S
C130 N125 1.318 . S
C130 C129 1.396 . S
H131 C126 0.929 . S
O132 Mn108 2.385 . S
O132 C110 1.234 . S
O133 Mn108 2.209 . S
O133 Mn109 2.215 . S
O133 C110 1.283 . S
O134 Mn108 2.094 . S
O134 C112 1.240 . S
O135 Mn109 2.117 . S
O135 C112 1.264 . S
C136 C129 1.403 . S
C136 C137 1.399 . S
C136 H142 0.929 . S
C137 C117 1.449 . S
C137 C136 1.399 . S
C137 H143 0.930 . S
H138 C118 0.931 . S
H139 C119 0.930 . S
H140 C127 0.931 . S
H141 C128 0.929 . S
H142 C136 0.929 . S
H143 C137 0.930 . S
Mn144 O149 2.095 . S
Mn144 O159 2.162 . S
Mn144 O160 2.297 1_565 S
Mn144 O168 2.385 1_455 S
Mn144 O169 2.209 1_455 S
Mn144 O170 2.094 . S
Mn145 O150 2.121 . S
Mn145 N152 2.257 . S
Mn145 N161 2.282 . S
Mn145 O169 2.215 . S
Mn145 O171 2.117 . S
C146 O168 1.234 . S
C146 O169 1.283 . S
C147 O159 1.281 1_545 S
C147 O160 1.236 . S
C148 O170 1.240 . S
C148 O171 1.264 1_455 S
O149 Mn144 2.095 . S
O149 C158 1.250 . S
O150 Mn145 2.121 . S
O150 C158 1.258 1_655 S
C151 N152 1.326 1_545 S
C151 C155 1.460 . S
C151 H157 0.929 . S
N152 Mn145 2.257 . S
N152 C151 1.326 1_565 S
N152 C156 1.362 . S
C153 C154 1.258 1_565 S
C153 C156 1.431 . S
C153 C173 1.449 . S
C154 C153 1.258 1_545 S
C154 C155 1.477 . S
C154 H174 0.931 . S
C155 C151 1.460 . S
C155 C154 1.477 . S
C155 H175 0.930 . S
C156 N152 1.362 . S
C156 C153 1.431 . S
C156 C166 1.476 . S
H157 C151 0.929 . S
C158 O149 1.250 . S
C158 O150 1.258 1_455 S
O159 Mn144 2.162 . S
O159 C147 1.281 1_565 S
O160 Mn144 2.297 1_545 S
O160 C147 1.236 . S
N161 Mn145 2.282 . S
N161 C162 1.328 . S
N161 C166 1.318 . S
C162 N161 1.328 . S
C162 C163 1.457 . S
C162 H167 0.929 . S
C163 C162 1.457 . S
C163 C164 1.291 . S
C163 H176 0.931 . S
C164 C163 1.291 . S
C164 C165 1.373 . S
C164 H177 0.929 . S
C165 C164 1.373 . S
C165 C166 1.396 . S
C165 C172 1.403 . S
C166 C156 1.476 . S
C166 N161 1.318 . S
C166 C165 1.396 . S
H167 C162 0.929 . S
O168 Mn144 2.385 1_655 S
O168 C146 1.234 . S
O169 Mn144 2.209 1_655 S
O169 Mn145 2.215 . S
O169 C146 1.283 . S
O170 Mn144 2.094 . S
O170 C148 1.240 . S
O171 Mn145 2.117 . S
O171 C148 1.264 1_655 S
C172 C165 1.403 . S
C172 C173 1.399 . S
C172 H178 0.929 . S
C173 C153 1.449 . S
C173 C172 1.399 . S
C173 H179 0.930 1_565 S
H174 C154 0.931 . S
H175 C155 0.930 . S
H176 C163 0.931 . S
H177 C164 0.929 . S
H178 C172 0.929 . S
H179 C173 0.930 1_545 S
Mn180 O185 2.095 . S
Mn180 O195 2.162 . S
Mn180 O196 2.297 . S
Mn180 O204 2.385 . S
Mn180 O205 2.209 . S
Mn180 O206 2.094 . S
Mn181 O186 2.121 . S
Mn181 N188 2.257 . S
Mn181 N197 2.282 . S
Mn181 O205 2.215 . S
Mn181 O207 2.117 . S
C182 O204 1.234 . S
C182 O205 1.283 . S
C183 O195 1.281 . S
C183 O196 1.236 . S
C184 O206 1.240 . S
C184 O207 1.264 . S
O185 Mn180 2.095 . S
O185 C194 1.250 . S
O186 Mn181 2.121 . S
O186 C194 1.258 . S
C187 N188 1.326 . S
C187 C191 1.460 . S
C187 H193 0.929 . S
N188 Mn181 2.257 . S
N188 C187 1.326 . S
N188 C192 1.362 . S
C189 C190 1.258 . S
C189 C192 1.431 . S
C189 C209 1.449 . S
C190 C189 1.258 . S
C190 C191 1.477 . S
C190 H210 0.931 . S
C191 C187 1.460 . S
C191 C190 1.477 . S
C191 H211 0.930 . S
C192 N188 1.362 . S
C192 C189 1.431 . S
C192 C202 1.476 . S
H193 C187 0.929 . S
C194 O185 1.250 . S
C194 O186 1.258 . S
O195 Mn180 2.162 . S
O195 C183 1.281 . S
O196 Mn180 2.297 . S
O196 C183 1.236 . S
N197 Mn181 2.282 . S
N197 C198 1.328 . S
N197 C202 1.318 . S
C198 N197 1.328 . S
C198 C199 1.457 . S
C198 H203 0.929 . S
C199 C198 1.457 . S
C199 C200 1.291 . S
C199 H212 0.931 . S
C200 C199 1.291 . S
C200 C201 1.373 . S
C200 H213 0.929 . S
C201 C200 1.373 . S
C201 C202 1.396 . S
C201 C208 1.403 . S
C202 C192 1.476 . S
C202 N197 1.318 . S
C202 C201 1.396 . S
H203 C198 0.929 . S
O204 Mn180 2.385 . S
O204 C182 1.234 . S
O205 Mn180 2.209 . S
O205 Mn181 2.215 . S
O205 C182 1.283 . S
O206 Mn180 2.094 . S
O206 C184 1.240 . S
O207 Mn181 2.117 . S
O207 C184 1.264 . S
C208 C201 1.403 . S
C208 C209 1.399 . S
C208 H214 0.929 . S
C209 C189 1.449 . S
C209 C208 1.399 . S
C209 H215 0.930 . S
H210 C190 0.931 . S
H211 C191 0.930 . S
H212 C199 0.931 . S
H213 C200 0.929 . S
H214 C208 0.929 . S
H215 C209 0.930 . S
Mn216 O221 2.095 . S
Mn216 O231 2.162 . S
Mn216 O232 2.297 1_545 S
Mn216 O240 2.385 . S
Mn216 O241 2.209 . S
Mn216 O242 2.094 . S
Mn217 O222 2.121 . S
Mn217 N224 2.257 . S
Mn217 N233 2.282 . S
Mn217 O241 2.215 . S
Mn217 O243 2.117 . S
C218 O240 1.234 . S
C218 O241 1.283 . S
C219 O231 1.281 1_565 S
C219 O232 1.236 . S
C220 O242 1.240 . S
C220 O243 1.264 . S
O221 Mn216 2.095 . S
O221 C230 1.250 . S
O222 Mn217 2.121 . S
O222 C230 1.258 . S
C223 N224 1.326 1_565 S
C223 C227 1.460 . S
C223 H229 0.929 . S
N224 Mn217 2.257 . S
N224 C223 1.326 1_545 S
N224 C228 1.362 . S
C225 C226 1.258 1_545 S
C225 C228 1.431 . S
C225 C245 1.449 . S
C226 C225 1.258 1_565 S
C226 C227 1.477 . S
C226 H246 0.931 . S
C227 C223 1.460 . S
C227 C226 1.477 . S
C227 H247 0.930 . S
C228 N224 1.362 . S
C228 C225 1.431 . S
C228 C238 1.476 . S
H229 C223 0.929 . S
C230 O221 1.250 . S
C230 O222 1.258 . S
O231 Mn216 2.162 . S
O231 C219 1.281 1_545 S
O232 Mn216 2.297 1_565 S
O232 C219 1.236 . S
N233 Mn217 2.282 . S
N233 C234 1.328 . S
N233 C238 1.318 . S
C234 N233 1.328 . S
C234 C235 1.457 . S
C234 H239 0.929 . S
C235 C234 1.457 . S
C235 C236 1.291 . S
C235 H248 0.931 . S
C236 C235 1.291 . S
C236 C237 1.373 . S
C236 H249 0.929 . S
C237 C236 1.373 . S
C237 C238 1.396 . S
C237 C244 1.403 . S
C238 C228 1.476 . S
C238 N233 1.318 . S
C238 C237 1.396 . S
H239 C234 0.929 . S
O240 Mn216 2.385 . S
O240 C218 1.234 . S
O241 Mn216 2.209 . S
O241 Mn217 2.215 . S
O241 C218 1.283 . S
O242 Mn216 2.094 . S
O242 C220 1.240 . S
O243 Mn217 2.117 . S
O243 C220 1.264 . S
C244 C237 1.403 . S
C244 C245 1.399 . S
C244 H250 0.929 . S
C245 C225 1.449 . S
C245 C244 1.399 . S
C245 H251 0.930 1_545 S
H246 C226 0.931 . S
H247 C227 0.930 . S
H248 C235 0.931 . S
H249 C236 0.929 . S
H250 C244 0.929 . S
H251 C245 0.930 1_565 S
Mn252 O257 2.095 . S
Mn252 O267 2.162 . S
Mn252 O268 2.297 . S
Mn252 O276 2.385 . S
Mn252 O277 2.209 . S
Mn252 O278 2.094 . S
Mn253 O258 2.121 . S
Mn253 N260 2.257 . S
Mn253 N269 2.282 . S
Mn253 O277 2.215 . S
Mn253 O279 2.117 . S
C254 O276 1.234 . S
C254 O277 1.283 . S
C255 O267 1.281 . S
C255 O268 1.236 . S
C256 O278 1.240 . S
C256 O279 1.264 . S
O257 Mn252 2.095 . S
O257 C266 1.250 . S
O258 Mn253 2.121 . S
O258 C266 1.258 . S
C259 N260 1.326 . S
C259 C263 1.460 . S
C259 H265 0.929 . S
N260 Mn253 2.257 . S
N260 C259 1.326 . S
N260 C264 1.362 . S
C261 C262 1.258 . S
C261 C264 1.431 . S
C261 C281 1.449 . S
C262 C261 1.258 . S
C262 C263 1.477 . S
C262 H282 0.931 . S
C263 C259 1.460 . S
C263 C262 1.477 . S
C263 H283 0.930 . S
C264 N260 1.362 . S
C264 C261 1.431 . S
C264 C274 1.476 . S
H265 C259 0.929 . S
C266 O257 1.250 . S
C266 O258 1.258 . S
O267 Mn252 2.162 . S
O267 C255 1.281 . S
O268 Mn252 2.297 . S
O268 C255 1.236 . S
N269 Mn253 2.282 . S
N269 C270 1.328 . S
N269 C274 1.318 . S
C270 N269 1.328 . S
C270 C271 1.457 . S
C270 H275 0.929 . S
C271 C270 1.457 . S
C271 C272 1.291 . S
C271 H284 0.931 . S
C272 C271 1.291 . S
C272 C273 1.373 . S
C272 H285 0.929 . S
C273 C272 1.373 . S
C273 C274 1.396 . S
C273 C280 1.403 . S
C274 C264 1.476 . S
C274 N269 1.318 . S
C274 C273 1.396 . S
H275 C270 0.929 . S
O276 Mn252 2.385 . S
O276 C254 1.234 . S
O277 Mn252 2.209 . S
O277 Mn253 2.215 . S
O277 C254 1.283 . S
O278 Mn252 2.094 . S
O278 C256 1.240 . S
O279 Mn253 2.117 . S
O279 C256 1.264 . S
C280 C273 1.403 . S
C280 C281 1.399 . S
C280 H286 0.929 . S
C281 C261 1.449 . S
C281 C280 1.399 . S
C281 H287 0.930 . S
H282 C262 0.931 . S
H283 C263 0.930 . S
H284 C271 0.931 . S
H285 C272 0.929 . S
H286 C280 0.929 . S
H287 C281 0.930 . S
Mn288 O293 2.095 . S
Mn288 O303 2.162 . S
Mn288 O304 2.297 . S
Mn288 O312 2.385 . S
Mn288 O313 2.209 . S
Mn288 O314 2.094 . S
Mn289 O294 2.121 . S
Mn289 N296 2.257 . S
Mn289 N305 2.282 . S
Mn289 O313 2.215 . S
Mn289 O315 2.117 . S
C290 O312 1.234 . S
C290 O313 1.283 . S
C291 O303 1.281 . S
C291 O304 1.236 . S
C292 O314 1.240 . S
C292 O315 1.264 . S
O293 Mn288 2.095 . S
O293 C302 1.250 . S
O294 Mn289 2.121 . S
O294 C302 1.258 . S
C295 N296 1.326 . S
C295 C299 1.460 . S
C295 H301 0.929 . S
N296 Mn289 2.257 . S
N296 C295 1.326 . S
N296 C300 1.362 . S
C297 C298 1.258 . S
C297 C300 1.431 . S
C297 C317 1.449 . S
C298 C297 1.258 . S
C298 C299 1.477 . S
C298 H318 0.931 . S
C299 C295 1.460 . S
C299 C298 1.477 . S
C299 H319 0.930 . S
C300 N296 1.362 . S
C300 C297 1.431 . S
C300 C310 1.476 . S
H301 C295 0.929 . S
C302 O293 1.250 . S
C302 O294 1.258 . S
O303 Mn288 2.162 . S
O303 C291 1.281 . S
O304 Mn288 2.297 . S
O304 C291 1.236 . S
N305 Mn289 2.282 . S
N305 C306 1.328 . S
N305 C310 1.318 . S
C306 N305 1.328 . S
C306 C307 1.457 . S
C306 H311 0.929 . S
C307 C306 1.457 . S
C307 C308 1.291 . S
C307 H320 0.931 . S
C308 C307 1.291 . S
C308 C309 1.373 . S
C308 H321 0.929 . S
C309 C308 1.373 . S
C309 C310 1.396 . S
C309 C316 1.403 . S
C310 C300 1.476 . S
C310 N305 1.318 . S
C310 C309 1.396 . S
H311 C306 0.929 . S
O312 Mn288 2.385 . S
O312 C290 1.234 . S
O313 Mn288 2.209 . S
O313 Mn289 2.215 . S
O313 C290 1.283 . S
O314 Mn288 2.094 . S
O314 C292 1.240 . S
O315 Mn289 2.117 . S
O315 C292 1.264 . S
C316 C309 1.403 . S
C316 C317 1.399 . S
C316 H322 0.929 . S
C317 C297 1.449 . S
C317 C316 1.399 . S
C317 H323 0.930 . S
H318 C298 0.931 . S
H319 C299 0.930 . S
H320 C307 0.931 . S
H321 C308 0.929 . S
H322 C316 0.929 . S
H323 C317 0.930 . S
Mn324 O329 2.095 . S
Mn324 O339 2.162 . S
Mn324 O340 2.297 . S
Mn324 O348 2.385 . S
Mn324 O349 2.209 . S
Mn324 O350 2.094 . S
Mn325 O330 2.121 . S
Mn325 N332 2.257 . S
Mn325 N341 2.282 . S
Mn325 O349 2.215 . S
Mn325 O351 2.117 . S
C326 O348 1.234 . S
C326 O349 1.283 . S
C327 O339 1.281 . S
C327 O340 1.236 . S
C328 O350 1.240 . S
C328 O351 1.264 . S
O329 Mn324 2.095 . S
O329 C338 1.250 . S
O330 Mn325 2.121 . S
O330 C338 1.258 . S
C331 N332 1.326 . S
C331 C335 1.460 . S
C331 H337 0.929 . S
N332 Mn325 2.257 . S
N332 C331 1.326 . S
N332 C336 1.362 . S
C333 C334 1.258 . S
C333 C336 1.431 . S
C333 C353 1.449 . S
C334 C333 1.258 . S
C334 C335 1.477 . S
C334 H354 0.931 . S
C335 C331 1.460 . S
C335 C334 1.477 . S
C335 H355 0.930 . S
C336 N332 1.362 . S
C336 C333 1.431 . S
C336 C346 1.476 . S
H337 C331 0.929 . S
C338 O329 1.250 . S
C338 O330 1.258 . S
O339 Mn324 2.162 . S
O339 C327 1.281 . S
O340 Mn324 2.297 . S
O340 C327 1.236 . S
N341 Mn325 2.282 . S
N341 C342 1.328 . S
N341 C346 1.318 . S
C342 N341 1.328 . S
C342 C343 1.457 . S
C342 H347 0.929 . S
C343 C342 1.457 . S
C343 C344 1.291 . S
C343 H356 0.931 . S
C344 C343 1.291 . S
C344 C345 1.373 . S
C344 H357 0.929 . S
C345 C344 1.373 . S
C345 C346 1.396 . S
C345 C352 1.403 . S
C346 C336 1.476 . S
C346 N341 1.318 . S
C346 C345 1.396 . S
H347 C342 0.929 . S
O348 Mn324 2.385 . S
O348 C326 1.234 . S
O349 Mn324 2.209 . S
O349 Mn325 2.215 . S
O349 C326 1.283 . S
O350 Mn324 2.094 . S
O350 C328 1.240 . S
O351 Mn325 2.117 . S
O351 C328 1.264 . S
C352 C345 1.403 . S
C352 C353 1.399 . S
C352 H358 0.929 . S
C353 C333 1.449 . S
C353 C352 1.399 . S
C353 H359 0.930 . S
H354 C334 0.931 . S
H355 C335 0.930 . S
H356 C343 0.931 . S
H357 C344 0.929 . S
H358 C352 0.929 . S
H359 C353 0.930 . S
Mn360 O365 2.095 . S
Mn360 O375 2.162 . S
Mn360 O376 2.297 . S
Mn360 O384 2.385 . S
Mn360 O385 2.209 . S
Mn360 O386 2.094 . S
Mn361 O366 2.121 . S
Mn361 N368 2.257 . S
Mn361 N377 2.282 . S
Mn361 O385 2.215 . S
Mn361 O387 2.117 . S
C362 O384 1.234 . S
C362 O385 1.283 . S
C363 O375 1.281 . S
C363 O376 1.236 . S
C364 O386 1.240 . S
C364 O387 1.264 . S
O365 Mn360 2.095 . S
O365 C374 1.250 . S
O366 Mn361 2.121 . S
O366 C374 1.258 . S
C367 N368 1.326 . S
C367 C371 1.460 . S
C367 H373 0.929 . S
N368 Mn361 2.257 . S
N368 C367 1.326 . S
N368 C372 1.362 . S
C369 C370 1.258 . S
C369 C372 1.431 . S
C369 C389 1.449 . S
C370 C369 1.258 . S
C370 C371 1.477 . S
C370 H390 0.931 . S
C371 C367 1.460 . S
C371 C370 1.477 . S
C371 H391 0.930 . S
C372 N368 1.362 . S
C372 C369 1.431 . S
C372 C382 1.476 . S
H373 C367 0.929 . S
C374 O365 1.250 . S
C374 O366 1.258 . S
O375 Mn360 2.162 . S
O375 C363 1.281 . S
O376 Mn360 2.297 . S
O376 C363 1.236 . S
N377 Mn361 2.282 . S
N377 C378 1.328 . S
N377 C382 1.318 . S
C378 N377 1.328 . S
C378 C379 1.457 . S
C378 H383 0.929 . S
C379 C378 1.457 . S
C379 C380 1.291 . S
C379 H392 0.931 . S
C380 C379 1.291 . S
C380 C381 1.373 . S
C380 H393 0.929 . S
C381 C380 1.373 . S
C381 C382 1.396 . S
C381 C388 1.403 . S
C382 C372 1.476 . S
C382 N377 1.318 . S
C382 C381 1.396 . S
H383 C378 0.929 . S
O384 Mn360 2.385 . S
O384 C362 1.234 . S
O385 Mn360 2.209 . S
O385 Mn361 2.215 . S
O385 C362 1.283 . S
O386 Mn360 2.094 . S
O386 C364 1.240 . S
O387 Mn361 2.117 . S
O387 C364 1.264 . S
C388 C381 1.403 . S
C388 C389 1.399 . S
C388 H394 0.929 . S
C389 C369 1.449 . S
C389 C388 1.399 . S
C389 H395 0.930 . S
H390 C370 0.931 . S
H391 C371 0.930 . S
H392 C379 0.931 . S
H393 C380 0.929 . S
H394 C388 0.929 . S
H395 C389 0.930 . S
Mn396 O401 2.095 . S
Mn396 O411 2.162 . S
Mn396 O412 2.297 . S
Mn396 O420 2.385 . S
Mn396 O421 2.209 . S
Mn396 O422 2.094 . S
Mn397 O402 2.121 . S
Mn397 N404 2.257 . S
Mn397 N413 2.282 . S
Mn397 O421 2.215 . S
Mn397 O423 2.117 . S
C398 O420 1.234 . S
C398 O421 1.283 . S
C399 O411 1.281 . S
C399 O412 1.236 . S
C400 O422 1.240 . S
C400 O423 1.264 . S
O401 Mn396 2.095 . S
O401 C410 1.250 . S
O402 Mn397 2.121 . S
O402 C410 1.258 . S
C403 N404 1.326 . S
C403 C407 1.460 . S
C403 H409 0.929 . S
N404 Mn397 2.257 . S
N404 C403 1.326 . S
N404 C408 1.362 . S
C405 C406 1.258 . S
C405 C408 1.431 . S
C405 C425 1.449 . S
C406 C405 1.258 . S
C406 C407 1.477 . S
C406 H426 0.931 . S
C407 C403 1.460 . S
C407 C406 1.477 . S
C407 H427 0.930 . S
C408 N404 1.362 . S
C408 C405 1.431 . S
C408 C418 1.476 . S
H409 C403 0.929 . S
C410 O401 1.250 . S
C410 O402 1.258 . S
O411 Mn396 2.162 . S
O411 C399 1.281 . S
O412 Mn396 2.297 . S
O412 C399 1.236 . S
N413 Mn397 2.282 . S
N413 C414 1.328 . S
N413 C418 1.318 . S
C414 N413 1.328 . S
C414 C415 1.457 . S
C414 H419 0.929 . S
C415 C414 1.457 . S
C415 C416 1.291 . S
C415 H428 0.931 . S
C416 C415 1.291 . S
C416 C417 1.373 . S
C416 H429 0.929 . S
C417 C416 1.373 . S
C417 C418 1.396 . S
C417 C424 1.403 . S
C418 C408 1.476 . S
C418 N413 1.318 . S
C418 C417 1.396 . S
H419 C414 0.929 . S
O420 Mn396 2.385 . S
O420 C398 1.234 . S
O421 Mn396 2.209 . S
O421 Mn397 2.215 . S
O421 C398 1.283 . S
O422 Mn396 2.094 . S
O422 C400 1.240 . S
O423 Mn397 2.117 . S
O423 C400 1.264 . S
C424 C417 1.403 . S
C424 C425 1.399 . S
C424 H430 0.929 . S
C425 C405 1.449 . S
C425 C424 1.399 . S
C425 H431 0.930 . S
H426 C406 0.931 . S
H427 C407 0.930 . S
H428 C415 0.931 . S
H429 C416 0.929 . S
H430 C424 0.929 . S
H431 C425 0.930 . S
Mn432 O437 2.095 . S
Mn432 O447 2.162 . S
Mn432 O448 2.297 . S
Mn432 O456 2.385 . S
Mn432 O457 2.209 . S
Mn432 O458 2.094 . S
Mn433 O438 2.121 . S
Mn433 N440 2.257 . S
Mn433 N449 2.282 . S
Mn433 O457 2.215 . S
Mn433 O459 2.117 . S
C434 O456 1.234 . S
C434 O457 1.283 . S
C435 O447 1.281 . S
C435 O448 1.236 . S
C436 O458 1.240 . S
C436 O459 1.264 . S
O437 Mn432 2.095 . S
O437 C446 1.250 . S
O438 Mn433 2.121 . S
O438 C446 1.258 . S
C439 N440 1.326 . S
C439 C443 1.460 . S
C439 H445 0.929 . S
N440 Mn433 2.257 . S
N440 C439 1.326 . S
N440 C444 1.362 . S
C441 C442 1.258 . S
C441 C444 1.431 . S
C441 C461 1.449 . S
C442 C441 1.258 . S
C442 C443 1.477 . S
C442 H462 0.931 . S
C443 C439 1.460 . S
C443 C442 1.477 . S
C443 H463 0.930 . S
C444 N440 1.362 . S
C444 C441 1.431 . S
C444 C454 1.476 . S
H445 C439 0.929 . S
C446 O437 1.250 . S
C446 O438 1.258 . S
O447 Mn432 2.162 . S
O447 C435 1.281 . S
O448 Mn432 2.297 . S
O448 C435 1.236 . S
N449 Mn433 2.282 . S
N449 C450 1.328 . S
N449 C454 1.318 . S
C450 N449 1.328 . S
C450 C451 1.457 . S
C450 H455 0.929 . S
C451 C450 1.457 . S
C451 C452 1.291 . S
C451 H464 0.931 . S
C452 C451 1.291 . S
C452 C453 1.373 . S
C452 H465 0.929 . S
C453 C452 1.373 . S
C453 C454 1.396 . S
C453 C460 1.403 . S
C454 C444 1.476 . S
C454 N449 1.318 . S
C454 C453 1.396 . S
H455 C450 0.929 . S
O456 Mn432 2.385 . S
O456 C434 1.234 . S
O457 Mn432 2.209 . S
O457 Mn433 2.215 . S
O457 C434 1.283 . S
O458 Mn432 2.094 . S
O458 C436 1.240 . S
O459 Mn433 2.117 . S
O459 C436 1.264 . S
C460 C453 1.403 . S
C460 C461 1.399 . S
C460 H466 0.929 . S
C461 C441 1.449 . S
C461 C460 1.399 . S
C461 H467 0.930 . S
H462 C442 0.931 . S
H463 C443 0.930 . S
H464 C451 0.931 . S
H465 C452 0.929 . S
H466 C460 0.929 . S
H467 C461 0.930 . S
Mn468 O473 2.095 . S
Mn468 O483 2.162 1_455 S
Mn468 O484 2.297 . S
Mn468 O492 2.385 . S
Mn468 O493 2.209 . S
Mn468 O494 2.094 . S
Mn469 O474 2.121 . S
Mn469 N476 2.257 . S
Mn469 N485 2.282 . S
Mn469 O493 2.215 . S
Mn469 O495 2.117 . S
C470 O492 1.234 . S
C470 O493 1.283 . S
C471 O483 1.281 . S
C471 O484 1.236 1_655 S
C472 O494 1.240 . S
C472 O495 1.264 . S
O473 Mn468 2.095 . S
O473 C482 1.250 . S
O474 Mn469 2.121 . S
O474 C482 1.258 . S
C475 N476 1.326 . S
C475 C479 1.460 . S
C475 H481 0.929 . S
N476 Mn469 2.257 . S
N476 C475 1.326 . S
N476 C480 1.362 . S
C477 C478 1.258 . S
C477 C480 1.431 . S
C477 C497 1.449 . S
C478 C477 1.258 . S
C478 C479 1.477 . S
C478 H498 0.931 . S
C479 C475 1.460 . S
C479 C478 1.477 . S
C479 H499 0.930 . S
C480 N476 1.362 . S
C480 C477 1.431 . S
C480 C490 1.476 . S
H481 C475 0.929 . S
C482 O473 1.250 . S
C482 O474 1.258 . S
O483 Mn468 2.162 1_655 S
O483 C471 1.281 . S
O484 Mn468 2.297 . S
O484 C471 1.236 1_455 S
N485 Mn469 2.282 . S
N485 C486 1.328 . S
N485 C490 1.318 . S
C486 N485 1.328 . S
C486 C487 1.457 . S
C486 H491 0.929 . S
C487 C486 1.457 . S
C487 C488 1.291 . S
C487 H500 0.931 . S
C488 C487 1.291 . S
C488 C489 1.373 . S
C488 H501 0.929 . S
C489 C488 1.373 . S
C489 C490 1.396 . S
C489 C496 1.403 . S
C490 C480 1.476 . S
C490 N485 1.318 . S
C490 C489 1.396 . S
H491 C486 0.929 . S
O492 Mn468 2.385 . S
O492 C470 1.234 . S
O493 Mn468 2.209 . S
O493 Mn469 2.215 . S
O493 C470 1.283 . S
O494 Mn468 2.094 . S
O494 C472 1.240 . S
O495 Mn469 2.117 . S
O495 C472 1.264 . S
C496 C489 1.403 . S
C496 C497 1.399 . S
C496 H502 0.929 . S
C497 C477 1.449 . S
C497 C496 1.399 . S
C497 H503 0.930 . S
H498 C478 0.931 . S
H499 C479 0.930 . S
H500 C487 0.931 . S
H501 C488 0.929 . S
H502 C496 0.929 . S
H503 C497 0.930 . S
Mn504 O509 2.095 . S
Mn504 O519 2.162 . S
Mn504 O520 2.297 . S
Mn504 O528 2.385 . S
Mn504 O529 2.209 . S
Mn504 O530 2.094 . S
Mn505 O510 2.121 . S
Mn505 N512 2.257 . S
Mn505 N521 2.282 . S
Mn505 O529 2.215 . S
Mn505 O531 2.117 . S
C506 O528 1.234 . S
C506 O529 1.283 . S
C507 O519 1.281 . S
C507 O520 1.236 . S
C508 O530 1.240 . S
C508 O531 1.264 . S
O509 Mn504 2.095 . S
O509 C518 1.250 . S
O510 Mn505 2.121 . S
O510 C518 1.258 . S
C511 N512 1.326 . S
C511 C515 1.460 . S
C511 H517 0.929 . S
N512 Mn505 2.257 . S
N512 C511 1.326 . S
N512 C516 1.362 . S
C513 C514 1.258 . S
C513 C516 1.431 . S
C513 C533 1.449 . S
C514 C513 1.258 . S
C514 C515 1.477 . S
C514 H534 0.931 . S
C515 C511 1.460 . S
C515 C514 1.477 . S
C515 H535 0.930 . S
C516 N512 1.362 . S
C516 C513 1.431 . S
C516 C526 1.476 . S
H517 C511 0.929 . S
C518 O509 1.250 . S
C518 O510 1.258 . S
O519 Mn504 2.162 . S
O519 C507 1.281 . S
O520 Mn504 2.297 . S
O520 C507 1.236 . S
N521 Mn505 2.282 . S
N521 C522 1.328 . S
N521 C526 1.318 . S
C522 N521 1.328 . S
C522 C523 1.457 . S
C522 H527 0.929 . S
C523 C522 1.457 . S
C523 C524 1.291 . S
C523 H536 0.931 . S
C524 C523 1.291 . S
C524 C525 1.373 . S
C524 H537 0.929 . S
C525 C524 1.373 . S
C525 C526 1.396 . S
C525 C532 1.403 . S
C526 C516 1.476 . S
C526 N521 1.318 . S
C526 C525 1.396 . S
H527 C522 0.929 . S
O528 Mn504 2.385 . S
O528 C506 1.234 . S
O529 Mn504 2.209 . S
O529 Mn505 2.215 . S
O529 C506 1.283 . S
O530 Mn504 2.094 . S
O530 C508 1.240 . S
O531 Mn505 2.117 . S
O531 C508 1.264 . S
C532 C525 1.403 . S
C532 C533 1.399 . S
C532 H538 0.929 . S
C533 C513 1.449 . S
C533 C532 1.399 . S
C533 H539 0.930 . S
H534 C514 0.931 . S
H535 C515 0.930 . S
H536 C523 0.931 . S
H537 C524 0.929 . S
H538 C532 0.929 . S
H539 C533 0.930 . S
Mn540 O545 2.095 . S
Mn540 O555 2.162 1_455 S
Mn540 O556 2.297 . S
Mn540 O564 2.385 . S
Mn540 O565 2.209 . S
Mn540 O566 2.094 . S
Mn541 O546 2.121 . S
Mn541 N548 2.257 . S
Mn541 N557 2.282 . S
Mn541 O565 2.215 . S
Mn541 O567 2.117 . S
C542 O564 1.234 . S
C542 O565 1.283 . S
C543 O555 1.281 . S
C543 O556 1.236 1_655 S
C544 O566 1.240 . S
C544 O567 1.264 . S
O545 Mn540 2.095 . S
O545 C554 1.250 . S
O546 Mn541 2.121 . S
O546 C554 1.258 . S
C547 N548 1.326 . S
C547 C551 1.460 . S
C547 H553 0.929 . S
N548 Mn541 2.257 . S
N548 C547 1.326 . S
N548 C552 1.362 . S
C549 C550 1.258 . S
C549 C552 1.431 . S
C549 C569 1.449 . S
C550 C549 1.258 . S
C550 C551 1.477 . S
C550 H570 0.931 . S
C551 C547 1.460 . S
C551 C550 1.477 . S
C551 H571 0.930 . S
C552 N548 1.362 . S
C552 C549 1.431 . S
C552 C562 1.476 . S
H553 C547 0.929 . S
C554 O545 1.250 . S
C554 O546 1.258 . S
O555 Mn540 2.162 1_655 S
O555 C543 1.281 . S
O556 Mn540 2.297 . S
O556 C543 1.236 1_455 S
N557 Mn541 2.282 . S
N557 C558 1.328 . S
N557 C562 1.318 . S
C558 N557 1.328 . S
C558 C559 1.457 . S
C558 H563 0.929 . S
C559 C558 1.457 . S
C559 C560 1.291 . S
C559 H572 0.931 . S
C560 C559 1.291 . S
C560 C561 1.373 . S
C560 H573 0.929 . S
C561 C560 1.373 . S
C561 C562 1.396 . S
C561 C568 1.403 . S
C562 C552 1.476 . S
C562 N557 1.318 . S
C562 C561 1.396 . S
H563 C558 0.929 . S
O564 Mn540 2.385 . S
O564 C542 1.234 . S
O565 Mn540 2.209 . S
O565 Mn541 2.215 . S
O565 C542 1.283 . S
O566 Mn540 2.094 . S
O566 C544 1.240 . S
O567 Mn541 2.117 . S
O567 C544 1.264 . S
C568 C561 1.403 . S
C568 C569 1.399 . S
C568 H574 0.929 . S
C569 C549 1.449 . S
C569 C568 1.399 . S
C569 H575 0.930 . S
H570 C550 0.931 . S
H571 C551 0.930 . S
H572 C559 0.931 . S
H573 C560 0.929 . S
H574 C568 0.929 . S
H575 C569 0.930 . S
H576 C594 0.951 . S
H577 C596 0.951 . S
H578 C598 0.950 . S
H579 C599 0.950 . S
H580 C601 0.950 . S
H581 C604 0.950 1_455 S
H582 C605 0.950 . S
H583 C607 0.950 . S
H584 C608 0.950 . S
H585 C609 0.951 . S
H586 C611 0.951 . S
H587 C613 0.950 1_655 S
H588 C614 0.950 1_655 S
H589 C616 0.950 1_655 S
H590 C619 0.950 . S
H591 C620 0.950 . S
H592 C622 0.950 . S
H593 C623 0.950 . S
C594 H576 0.951 . S
C594 C595 1.366 1_655 S
C594 C596 1.388 . S
C595 C594 1.366 1_455 S
C595 C599 1.385 . S
C596 H577 0.951 . S
C596 C594 1.388 . S
C596 C597 1.366 1_655 S
C597 C596 1.366 1_455 S
C597 C598 1.414 . S
C597 C600 1.499 . S
C598 H578 0.950 . S
C598 C597 1.414 . S
C598 C599 1.374 . S
C599 H579 0.950 . S
C599 C595 1.385 . S
C599 C598 1.374 . S
C600 C597 1.499 . S
C600 C601 1.373 . S
C600 C602 1.405 . S
C601 H580 0.950 . S
C601 C600 1.373 . S
C601 C617 1.377 . S
C602 C600 1.405 . S
C602 C603 1.507 1_455 S
C602 C616 1.380 . S
C603 C602 1.507 1_655 S
C603 C604 1.397 . S
C603 C608 1.363 . S
C604 H581 0.950 1_655 S
C604 C603 1.397 . S
C604 C605 1.334 . S
C605 H582 0.950 . S
C605 C604 1.334 . S
C605 C606 1.287 . S
C606 C605 1.287 . S
C606 C607 1.524 . S
C606 H625 0.913 . S
C607 H583 0.950 . S
C607 C606 1.524 . S
C607 C608 1.415 . S
C608 H584 0.950 . S
C608 C603 1.363 . S
C608 C607 1.415 . S
C609 H585 0.951 . S
C609 C610 1.366 . S
C609 C611 1.388 . S
C610 C609 1.366 . S
C610 C614 1.385 . S
C611 H586 0.951 . S
C611 C609 1.388 . S
C611 C612 1.366 . S
C612 C611 1.366 . S
C612 C613 1.414 . S
C612 C615 1.499 . S
C613 H587 0.950 1_455 S
C613 C612 1.414 . S
C613 C614 1.374 . S
C614 H588 0.950 1_455 S
C614 C610 1.385 . S
C614 C613 1.374 . S
C615 C612 1.499 . S
C615 C616 1.373 . S
C615 C617 1.389 . S
C616 H589 0.950 1_455 S
C616 C602 1.380 . S
C616 C615 1.373 . S
C617 C601 1.377 . S
C617 C615 1.389 . S
C617 C618 1.524 . S
C618 C617 1.524 . S
C618 C619 1.397 . S
C618 C623 1.363 . S
C619 H590 0.950 . S
C619 C618 1.397 . S
C619 C620 1.334 . S
C620 H591 0.950 . S
C620 C619 1.334 . S
C620 C621 1.287 . S
C621 C620 1.287 . S
C621 C622 1.524 . S
C621 H624 0.999 . S
C622 H592 0.950 . S
C622 C621 1.524 . S
C622 C623 1.415 . S
C623 H593 0.950 . S
C623 C618 1.363 . S
C623 C622 1.415 . S
H624 C621 0.999 . S
H625 C606 0.913 . S
H626 C644 0.951 . S
H627 C646 0.951 . S
H628 C648 0.950 . S
H629 C649 0.950 . S
H630 C651 0.950 1_655 S
H631 C654 0.950 . S
H632 C655 0.950 . S
H633 C657 0.950 . S
H634 C658 0.950 1_455 S
H635 C659 0.951 . S
H636 C661 0.951 . S
H637 C663 0.950 . S
H638 C664 0.950 . S
H639 C666 0.950 . S
H640 C669 0.950 . S
H641 C670 0.950 . S
H642 C672 0.950 . S
H643 C673 0.950 . S
C644 H626 0.951 . S
C644 C645 1.366 . S
C644 C646 1.388 . S
C645 C644 1.366 . S
C645 C649 1.385 . S
C646 H627 0.951 . S
C646 C644 1.388 . S
C646 C647 1.366 . S
C647 C646 1.366 . S
C647 C648 1.414 . S
C647 C650 1.499 . S
C648 H628 0.950 . S
C648 C647 1.414 . S
C648 C649 1.374 . S
C649 H629 0.950 . S
C649 C645 1.385 . S
C649 C648 1.374 . S
C650 C647 1.499 . S
C650 C651 1.373 1_655 S
C650 C652 1.389 1_655 S
C651 H630 0.950 1_455 S
C651 C650 1.373 1_455 S
C651 C667 1.377 . S
C652 C650 1.389 1_455 S
C652 C653 1.524 1_455 S
C652 C666 1.377 . S
C653 C652 1.524 1_655 S
C653 C654 1.397 . S
C653 C658 1.363 . S
C654 H631 0.950 . S
C654 C653 1.397 . S
C654 C655 1.334 . S
C655 H632 0.950 . S
C655 C654 1.334 . S
C655 C656 1.287 . S
C656 C655 1.287 . S
C656 C657 1.524 . S
C656 H675 0.913 . S
C657 H633 0.950 . S
C657 C656 1.524 . S
C657 C658 1.415 . S
C658 H634 0.950 1_655 S
C658 C653 1.363 . S
C658 C657 1.415 . S
C659 H635 0.951 . S
C659 C660 1.366 . S
C659 C661 1.388 . S
C660 C659 1.366 . S
C660 C664 1.385 . S
C661 H636 0.951 . S
C661 C659 1.388 . S
C661 C662 1.366 . S
C662 C661 1.366 . S
C662 C663 1.414 . S
C662 C665 1.499 . S
C663 H637 0.950 . S
C663 C662 1.414 . S
C663 C664 1.374 . S
C664 H638 0.950 . S
C664 C660 1.385 . S
C664 C663 1.374 . S
C665 C662 1.499 . S
C665 C666 1.373 . S
C665 C667 1.389 . S
C666 H639 0.950 . S
C666 C652 1.377 . S
C666 C665 1.373 . S
C667 C651 1.377 . S
C667 C665 1.389 . S
C667 C668 1.524 . S
C668 C667 1.524 . S
C668 C669 1.397 . S
C668 C673 1.363 . S
C669 H640 0.950 . S
C669 C668 1.397 . S
C669 C670 1.334 . S
C670 H641 0.950 . S
C670 C669 1.334 . S
C670 C671 1.287 . S
C671 C670 1.287 . S
C671 C672 1.524 . S
C671 H674 0.999 . S
C672 H642 0.950 . S
C672 C671 1.524 . S
C672 C673 1.415 . S
C673 H643 0.950 . S
C673 C668 1.363 . S
C673 C672 1.415 . S
H674 C671 0.999 . S
H675 C656 0.913 . S
H676 C694 0.951 . S
H677 C696 0.951 . S
H678 C698 0.950 . S
H679 C699 0.950 . S
H680 C701 0.950 . S
H681 C704 0.950 . S
H682 C705 0.950 . S
H683 C707 0.950 . S
H684 C708 0.950 . S
H685 C709 0.951 . S
H686 C711 0.951 . S
H687 C713 0.950 . S
H688 C714 0.950 . S
H689 C716 0.950 . S
H690 C719 0.950 . S
H691 C720 0.950 . S
H692 C722 0.950 . S
H693 C723 0.950 . S
C694 H676 0.951 . S
C694 C695 1.366 . S
C694 C696 1.388 . S
C695 C694 1.366 . S
C695 C699 1.385 . S
C696 H677 0.951 . S
C696 C694 1.388 . S
C696 C697 1.366 . S
C697 C696 1.366 . S
C697 C698 1.414 . S
C697 C700 1.499 . S
C698 H678 0.950 . S
C698 C697 1.414 . S
C698 C699 1.374 . S
C699 H679 0.950 . S
C699 C695 1.385 . S
C699 C698 1.374 . S
C700 C697 1.499 . S
C700 C701 1.373 . S
C700 C702 1.389 . S
C701 H680 0.950 . S
C701 C700 1.373 . S
C701 C717 1.377 . S
C702 C700 1.389 . S
C702 C703 1.524 . S
C702 C716 1.377 . S
C703 C702 1.524 . S
C703 C704 1.397 . S
C703 C708 1.363 . S
C704 H681 0.950 . S
C704 C703 1.397 . S
C704 C705 1.334 . S
C705 H682 0.950 . S
C705 C704 1.334 . S
C705 C706 1.287 . S
C706 C705 1.287 . S
C706 C707 1.524 . S
C706 H725 0.913 . S
C707 H683 0.950 . S
C707 C706 1.524 . S
C707 C708 1.415 . S
C708 H684 0.950 . S
C708 C703 1.363 . S
C708 C707 1.415 . S
C709 H685 0.951 . S
C709 C710 1.366 . S
C709 C711 1.388 . S
C710 C709 1.366 . S
C710 C714 1.385 . S
C711 H686 0.951 . S
C711 C709 1.388 . S
C711 C712 1.366 . S
C712 C711 1.366 . S
C712 C713 1.414 . S
C712 C715 1.499 . S
C713 H687 0.950 . S
C713 C712 1.414 . S
C713 C714 1.374 . S
C714 H688 0.950 . S
C714 C710 1.385 . S
C714 C713 1.374 . S
C715 C712 1.499 . S
C715 C716 1.373 . S
C715 C717 1.389 . S
C716 H689 0.950 . S
C716 C702 1.377 . S
C716 C715 1.373 . S
C717 C701 1.377 . S
C717 C715 1.389 . S
C717 C718 1.524 . S
C718 C717 1.524 . S
C718 C719 1.397 . S
C718 C723 1.363 . S
C719 H690 0.950 . S
C719 C718 1.397 . S
C719 C720 1.334 . S
C720 H691 0.950 . S
C720 C719 1.334 . S
C720 C721 1.287 . S
C721 C720 1.287 . S
C721 C722 1.524 . S
C721 H724 0.999 . S
C722 H692 0.950 . S
C722 C721 1.524 . S
C722 C723 1.415 . S
C723 H693 0.950 . S
C723 C718 1.363 . S
C723 C722 1.415 . S
H724 C721 0.999 . S
H725 C706 0.913 . S
H726 C744 0.951 . S
H727 C746 0.951 . S
H728 C748 0.950 . S
H729 C749 0.950 . S
H730 C751 0.950 . S
H731 C754 0.950 . S
H732 C755 0.950 . S
H733 C757 0.950 . S
H734 C758 0.950 . S
H735 C759 0.951 . S
H736 C761 0.951 . S
H737 C763 0.950 . S
H738 C764 0.950 . S
H739 C766 0.950 . S
H740 C769 0.950 . S
H741 C770 0.950 . S
H742 C772 0.950 . S
H743 C773 0.950 . S
C744 H726 0.951 . S
C744 C745 1.366 . S
C744 C746 1.388 . S
C745 C744 1.366 . S
C745 C749 1.385 . S
C746 H727 0.951 . S
C746 C744 1.388 . S
C746 C747 1.366 . S
C747 C746 1.366 . S
C747 C748 1.414 . S
C747 C750 1.499 . S
C748 H728 0.950 . S
C748 C747 1.414 . S
C748 C749 1.374 . S
C749 H729 0.950 . S
C749 C745 1.385 . S
C749 C748 1.374 . S
C750 C747 1.499 . S
C750 C751 1.373 . S
C750 C752 1.389 . S
C751 H730 0.950 . S
C751 C750 1.373 . S
C751 C767 1.377 . S
C752 C750 1.389 . S
C752 C753 1.524 . S
C752 C766 1.377 . S
C753 C752 1.524 . S
C753 C754 1.397 . S
C753 C758 1.363 . S
C754 H731 0.950 . S
C754 C753 1.397 . S
C754 C755 1.334 . S
C755 H732 0.950 . S
C755 C754 1.334 . S
C755 C756 1.287 . S
C756 C755 1.287 . S
C756 C757 1.524 . S
C756 H775 0.913 . S
C757 H733 0.950 . S
C757 C756 1.524 . S
C757 C758 1.415 . S
C758 H734 0.950 . S
C758 C753 1.363 . S
C758 C757 1.415 . S
C759 H735 0.951 . S
C759 C760 1.366 . S
C759 C761 1.388 . S
C760 C759 1.366 . S
C760 C764 1.385 . S
C761 H736 0.951 . S
C761 C759 1.388 . S
C761 C762 1.366 . S
C762 C761 1.366 . S
C762 C763 1.414 . S
C762 C765 1.499 . S
C763 H737 0.950 . S
C763 C762 1.414 . S
C763 C764 1.374 . S
C764 H738 0.950 . S
C764 C760 1.385 . S
C764 C763 1.374 . S
C765 C762 1.499 . S
C765 C766 1.373 . S
C765 C767 1.389 . S
C766 H739 0.950 . S
C766 C752 1.377 . S
C766 C765 1.373 . S
C767 C751 1.377 . S
C767 C765 1.389 . S
C767 C768 1.524 . S
C768 C767 1.524 . S
C768 C769 1.397 . S
C768 C773 1.363 . S
C769 H740 0.950 . S
C769 C768 1.397 . S
C769 C770 1.334 . S
C770 H741 0.950 . S
C770 C769 1.334 . S
C770 C771 1.287 . S
C771 C770 1.287 . S
C771 C772 1.524 . S
C771 H774 0.999 . S
C772 H742 0.950 . S
C772 C771 1.524 . S
C772 C773 1.415 . S
C773 H743 0.950 . S
C773 C768 1.363 . S
C773 C772 1.415 . S
H774 C771 0.999 . S
H775 C756 0.913 . S
H776 C794 0.951 . S
H777 C796 0.951 . S
H778 C798 0.950 . S
H779 C799 0.950 . S
H780 C801 0.950 . S
H781 C804 0.945 1_455 S
H782 C805 0.950 . S
H783 C807 0.950 . S
H784 C808 0.950 . S
H785 C809 0.951 . S
H786 C811 0.951 . S
H787 C813 0.950 1_655 S
H788 C814 0.950 1_655 S
H789 C816 0.949 . S
H790 C819 0.950 . S
H791 C820 0.950 . S
H792 C822 0.950 . S
H793 C823 0.950 . S
C794 H776 0.951 . S
C794 C795 1.366 1_655 S
C794 C796 1.388 . S
C795 C794 1.366 1_455 S
C795 C799 1.385 . S
C796 H777 0.951 . S
C796 C794 1.388 . S
C796 C797 1.366 1_655 S
C797 C796 1.366 1_455 S
C797 C798 1.414 . S
C797 C800 1.499 . S
C798 H778 0.950 . S
C798 C797 1.414 . S
C798 C799 1.374 . S
C799 H779 0.950 . S
C799 C795 1.385 . S
C799 C798 1.374 . S
C800 C797 1.499 . S
C800 C801 1.373 . S
C800 C802 1.389 1_455 S
C801 H780 0.950 . S
C801 C800 1.373 . S
C801 C817 1.377 . S
C802 C800 1.389 1_655 S
C802 C803 1.524 . S
C802 C816 1.376 . S
C803 C802 1.524 . S
C803 C804 1.397 . S
C803 C808 1.363 . S
C804 H781 0.945 1_655 S
C804 C803 1.397 . S
C804 C805 1.334 . S
C805 H782 0.950 . S
C805 C804 1.334 . S
C805 C806 1.287 . S
C806 C805 1.287 . S
C806 C807 1.524 . S
C806 H825 0.913 . S
C807 H783 0.950 . S
C807 C806 1.524 . S
C807 C808 1.415 . S
C808 H784 0.950 . S
C808 C803 1.363 . S
C808 C807 1.415 . S
C809 H785 0.951 . S
C809 C810 1.366 . S
C809 C811 1.388 . S
C810 C809 1.366 . S
C810 C814 1.385 . S
C811 H786 0.951 . S
C811 C809 1.388 . S
C811 C812 1.366 . S
C812 C811 1.366 . S
C812 C813 1.414 . S
C812 C815 1.499 . S
C813 H787 0.950 1_455 S
C813 C812 1.414 . S
C813 C814 1.374 . S
C814 H788 0.950 1_455 S
C814 C810 1.385 . S
C814 C813 1.374 . S
C815 C812 1.499 . S
C815 C816 1.375 1_455 S
C815 C817 1.389 . S
C816 H789 0.949 . S
C816 C802 1.376 . S
C816 C815 1.375 1_655 S
C817 C801 1.377 . S
C817 C815 1.389 . S
C817 C818 1.524 . S
C818 C817 1.524 . S
C818 C819 1.397 . S
C818 C823 1.363 . S
C819 H790 0.950 . S
C819 C818 1.397 . S
C819 C820 1.334 . S
C820 H791 0.950 . S
C820 C819 1.334 . S
C820 C821 1.287 . S
C821 C820 1.287 . S
C821 C822 1.524 . S
C821 H824 0.999 . S
C822 H792 0.950 . S
C822 C821 1.524 . S
C822 C823 1.415 . S
C823 H793 0.950 . S
C823 C818 1.363 . S
C823 C822 1.415 . S
H824 C821 0.999 . S
H825 C806 0.913 . S
H826 C844 0.951 . S
H827 C846 0.951 . S
H828 C848 0.950 . S
H829 C849 0.950 . S
H830 C851 0.950 . S
H831 C854 0.950 . S
H832 C855 0.950 . S
H833 C857 0.950 . S
H834 C858 0.950 . S
H835 C859 0.951 . S
H836 C861 0.951 . S
H837 C863 0.950 . S
H838 C864 0.950 . S
H839 C866 0.950 . S
H840 C869 0.950 . S
H841 C870 0.950 . S
H842 C872 0.950 . S
H843 C873 0.950 . S
C844 H826 0.951 . S
C844 C845 1.366 . S
C844 C846 1.388 . S
C845 C844 1.366 . S
C845 C849 1.385 . S
C846 H827 0.951 . S
C846 C844 1.388 . S
C846 C847 1.366 . S
C847 C846 1.366 . S
C847 C848 1.414 . S
C847 C850 1.499 . S
C848 H828 0.950 . S
C848 C847 1.414 . S
C848 C849 1.374 . S
C849 H829 0.950 . S
C849 C845 1.385 . S
C849 C848 1.374 . S
C850 C847 1.499 . S
C850 C851 1.373 . S
C850 C852 1.389 . S
C851 H830 0.950 . S
C851 C850 1.373 . S
C851 C867 1.377 . S
C852 C850 1.389 . S
C852 C853 1.524 . S
C852 C866 1.377 . S
C853 C852 1.524 . S
C853 C854 1.397 . S
C853 C858 1.363 . S
C854 H831 0.950 . S
C854 C853 1.397 . S
C854 C855 1.334 . S
C855 H832 0.950 . S
C855 C854 1.334 . S
C855 C856 1.287 . S
C856 C855 1.287 . S
C856 C857 1.524 . S
C856 H875 0.913 . S
C857 H833 0.950 . S
C857 C856 1.524 . S
C857 C858 1.415 . S
C858 H834 0.950 . S
C858 C853 1.363 . S
C858 C857 1.415 . S
C859 H835 0.951 . S
C859 C860 1.366 . S
C859 C861 1.388 . S
C860 C859 1.366 . S
C860 C864 1.385 . S
C861 H836 0.951 . S
C861 C859 1.388 . S
C861 C862 1.366 . S
C862 C861 1.366 . S
C862 C863 1.414 . S
C862 C865 1.499 . S
C863 H837 0.950 . S
C863 C862 1.414 . S
C863 C864 1.374 . S
C864 H838 0.950 . S
C864 C860 1.385 . S
C864 C863 1.374 . S
C865 C862 1.499 . S
C865 C866 1.373 . S
C865 C867 1.389 . S
C866 H839 0.950 . S
C866 C852 1.377 . S
C866 C865 1.373 . S
C867 C851 1.377 . S
C867 C865 1.389 . S
C867 C868 1.524 . S
C868 C867 1.524 . S
C868 C869 1.397 . S
C868 C873 1.363 . S
C869 H840 0.950 . S
C869 C868 1.397 . S
C869 C870 1.334 . S
C870 H841 0.950 . S
C870 C869 1.334 . S
C870 C871 1.287 . S
C871 C870 1.287 . S
C871 C872 1.524 . S
C871 H874 0.999 . S
C872 H842 0.950 . S
C872 C871 1.524 . S
C872 C873 1.415 . S
C873 H843 0.950 . S
C873 C868 1.363 . S
C873 C872 1.415 . S
H874 C871 0.999 . S
H875 C856 0.913 . S
H876 C894 0.951 . S
H877 C896 0.951 . S
H878 C898 0.950 . S
H879 C899 0.950 . S
H880 C901 0.950 . S
H881 C904 0.950 . S
H882 C905 0.950 . S
H883 C907 0.950 . S
H884 C908 0.950 . S
H885 C909 0.951 . S
H886 C911 0.951 . S
H887 C913 0.950 . S
H888 C914 0.950 . S
H889 C916 0.950 . S
H890 C919 0.950 . S
H891 C920 0.950 . S
H892 C922 0.950 . S
H893 C923 0.950 . S
C894 H876 0.951 . S
C894 C895 1.366 . S
C894 C896 1.388 . S
C895 C894 1.366 . S
C895 C899 1.385 . S
C896 H877 0.951 . S
C896 C894 1.388 . S
C896 C897 1.366 . S
C897 C896 1.366 . S
C897 C898 1.414 . S
C897 C900 1.499 . S
C898 H878 0.950 . S
C898 C897 1.414 . S
C898 C899 1.374 . S
C899 H879 0.950 . S
C899 C895 1.385 . S
C899 C898 1.374 . S
C900 C897 1.499 . S
C900 C901 1.373 . S
C900 C902 1.389 . S
C901 H880 0.950 . S
C901 C900 1.373 . S
C901 C917 1.377 . S
C902 C900 1.389 . S
C902 C903 1.524 . S
C902 C916 1.377 . S
C903 C902 1.524 . S
C903 C904 1.397 . S
C903 C908 1.363 . S
C904 H881 0.950 . S
C904 C903 1.397 . S
C904 C905 1.334 . S
C905 H882 0.950 . S
C905 C904 1.334 . S
C905 C906 1.287 . S
C906 C905 1.287 . S
C906 C907 1.524 . S
C906 H925 0.913 . S
C907 H883 0.950 . S
C907 C906 1.524 . S
C907 C908 1.415 . S
C908 H884 0.950 . S
C908 C903 1.363 . S
C908 C907 1.415 . S
C909 H885 0.951 . S
C909 C910 1.366 . S
C909 C911 1.388 . S
C910 C909 1.366 . S
C910 C914 1.385 . S
C911 H886 0.951 . S
C911 C909 1.388 . S
C911 C912 1.366 . S
C912 C911 1.366 . S
C912 C913 1.414 . S
C912 C915 1.499 . S
C913 H887 0.950 . S
C913 C912 1.414 . S
C913 C914 1.374 . S
C914 H888 0.950 . S
C914 C910 1.385 . S
C914 C913 1.374 . S
C915 C912 1.499 . S
C915 C916 1.373 . S
C915 C917 1.389 . S
C916 H889 0.950 . S
C916 C902 1.377 . S
C916 C915 1.373 . S
C917 C901 1.377 . S
C917 C915 1.389 . S
C917 C918 1.524 . S
C918 C917 1.524 . S
C918 C919 1.397 . S
C918 C923 1.363 . S
C919 H890 0.950 . S
C919 C918 1.397 . S
C919 C920 1.334 . S
C920 H891 0.950 . S
C920 C919 1.334 . S
C920 C921 1.287 . S
C921 C920 1.287 . S
C921 C922 1.524 . S
C921 H924 0.999 . S
C922 H892 0.950 . S
C922 C921 1.524 . S
C922 C923 1.415 . S
C923 H893 0.950 . S
C923 C918 1.363 . S
C923 C922 1.415 . S
H924 C921 0.999 . S
H925 C906 0.913 . S
H926 C944 0.951 . S
H927 C946 0.951 . S
H928 C948 0.950 . S
H929 C949 0.950 . S
H930 C951 0.950 . S
H931 C954 0.950 . S
H932 C955 0.950 . S
H933 C957 0.950 . S
H934 C958 0.950 . S
H935 C959 0.951 . S
H936 C961 0.951 . S
H937 C963 0.950 . S
H938 C964 0.950 . S
H939 C966 0.950 1_655 S
H940 C969 0.950 . S
H941 C970 0.950 . S
H942 C972 0.950 . S
H943 C973 0.950 1_455 S
C944 H926 0.951 . S
C944 C945 1.366 . S
C944 C946 1.388 . S
C945 C944 1.366 . S
C945 C949 1.385 . S
C946 H927 0.951 . S
C946 C944 1.388 . S
C946 C947 1.366 . S
C947 C946 1.366 . S
C947 C948 1.414 . S
C947 C950 1.499 . S
C948 H928 0.950 . S
C948 C947 1.414 . S
C948 C949 1.374 . S
C949 H929 0.950 . S
C949 C945 1.385 . S
C949 C948 1.374 . S
C950 C947 1.499 . S
C950 C951 1.373 . S
C950 C952 1.389 . S
C951 H930 0.950 . S
C951 C950 1.373 . S
C951 C967 1.377 . S
C952 C950 1.389 . S
C952 C953 1.524 . S
C952 C966 1.377 . S
C953 C952 1.524 . S
C953 C954 1.397 . S
C953 C958 1.363 . S
C954 H931 0.950 . S
C954 C953 1.397 . S
C954 C955 1.334 . S
C955 H932 0.950 . S
C955 C954 1.334 . S
C955 C956 1.287 . S
C956 C955 1.287 . S
C956 C957 1.524 . S
C956 H975 0.913 . S
C957 H933 0.950 . S
C957 C956 1.524 . S
C957 C958 1.415 . S
C958 H934 0.950 . S
C958 C953 1.363 . S
C958 C957 1.415 . S
C959 H935 0.951 . S
C959 C960 1.366 . S
C959 C961 1.388 . S
C960 C959 1.366 . S
C960 C964 1.385 . S
C961 H936 0.951 . S
C961 C959 1.388 . S
C961 C962 1.366 . S
C962 C961 1.366 . S
C962 C963 1.414 . S
C962 C965 1.499 . S
C963 H937 0.950 . S
C963 C962 1.414 . S
C963 C964 1.374 . S
C964 H938 0.950 . S
C964 C960 1.385 . S
C964 C963 1.374 . S
C965 C962 1.499 . S
C965 C966 1.373 1_655 S
C965 C967 1.389 1_655 S
C966 H939 0.950 1_455 S
C966 C952 1.377 . S
C966 C965 1.373 1_455 S
C967 C951 1.377 . S
C967 C965 1.389 1_455 S
C967 C968 1.524 1_455 S
C968 C967 1.524 1_655 S
C968 C969 1.397 . S
C968 C973 1.363 . S
C969 H940 0.950 . S
C969 C968 1.397 . S
C969 C970 1.334 . S
C970 H941 0.950 . S
C970 C969 1.334 . S
C970 C971 1.287 . S
C971 C970 1.287 . S
C971 C972 1.524 . S
C971 H974 0.999 . S
C972 H942 0.950 . S
C972 C971 1.524 . S
C972 C973 1.415 . S
C973 H943 0.950 1_655 S
C973 C968 1.363 . S
C973 C972 1.415 . S
H974 C971 0.999 . S
H975 C956 0.913 . S
H976 C994 0.951 1_545 S
H977 C996 0.951 . S
H978 C998 0.950 . S
H979 C999 0.950 . S
H980 C1001 0.950 . S
H981 C1004 0.950 . S
H982 C1005 0.950 . S
H983 C1007 0.950 . S
H984 C1008 0.950 . S
H985 C1009 0.951 1_565 S
H986 C1011 0.951 . S
H987 C1013 0.950 . S
H988 C1014 0.950 . S
H989 C1016 0.950 . S
H990 C1019 0.950 . S
H991 C1020 0.950 . S
H992 C1022 0.950 . S
H993 C1023 0.950 . S
C994 H976 0.951 1_565 S
C994 C995 1.366 1_655 S
C994 C996 1.388 1_565 S
C995 C994 1.366 1_455 S
C995 C999 1.385 . S
C996 H977 0.951 . S
C996 C994 1.388 1_545 S
C996 C997 1.366 1_645 S
C997 C996 1.366 1_465 S
C997 C998 1.414 . S
C997 C1000 1.499 . S
C998 H978 0.950 . S
C998 C997 1.414 . S
C998 C999 1.374 . S
C999 H979 0.950 . S
C999 C995 1.385 . S
C999 C998 1.374 . S
C1000 C997 1.499 . S
C1000 C1001 1.373 . S
C1000 C1002 1.389 1_565 S
C1001 H980 0.950 . S
C1001 C1000 1.373 . S
C1001 C1017 1.377 . S
C1002 C1000 1.389 1_545 S
C1002 C1003 1.524 . S
C1002 C1016 1.377 . S
C1003 C1002 1.524 . S
C1003 C1004 1.397 . S
C1003 C1008 1.363 1_455 S
C1004 H981 0.950 . S
C1004 C1003 1.397 . S
C1004 C1005 1.334 . S
C1005 H982 0.950 . S
C1005 C1004 1.334 . S
C1005 C1006 1.287 . S
C1006 C1005 1.287 . S
C1006 C1007 1.524 1_455 S
C1006 H1025 0.913 . S
C1007 H983 0.950 . S
C1007 C1006 1.524 1_655 S
C1007 C1008 1.415 . S
C1008 H984 0.950 . S
C1008 C1003 1.363 1_655 S
C1008 C1007 1.415 . S
C1009 H985 0.951 1_545 S
C1009 C1010 1.366 . S
C1009 C1011 1.388 1_545 S
C1010 C1009 1.366 . S
C1010 C1014 1.385 1_455 S
C1011 H986 0.951 . S
C1011 C1009 1.388 1_565 S
C1011 C1012 1.366 1_565 S
C1012 C1011 1.366 1_545 S
C1012 C1013 1.414 1_455 S
C1012 C1015 1.499 . S
C1013 H987 0.950 . S
C1013 C1012 1.414 1_655 S
C1013 C1014 1.374 . S
C1014 H988 0.950 . S
C1014 C1010 1.385 1_655 S
C1014 C1013 1.374 . S
C1015 C1012 1.499 . S
C1015 C1016 1.373 . S
C1015 C1017 1.389 1_545 S
C1016 H989 0.950 . S
C1016 C1002 1.377 . S
C1016 C1015 1.373 . S
C1017 C1001 1.377 . S
C1017 C1015 1.389 1_565 S
C1017 C1018 1.524 . S
C1018 C1017 1.524 . S
C1018 C1019 1.397 1_455 S
C1018 C1023 1.363 . S
C1019 H990 0.950 . S
C1019 C1018 1.397 1_655 S
C1019 C1020 1.334 . S
C1020 H991 0.950 . S
C1020 C1019 1.334 . S
C1020 C1021 1.287 1_655 S
C1021 C1020 1.287 1_455 S
C1021 C1022 1.524 . S
C1021 H1024 0.999 . S
C1022 H992 0.950 . S
C1022 C1021 1.524 . S
C1022 C1023 1.415 . S
C1023 H993 0.950 . S
C1023 C1018 1.363 . S
C1023 C1022 1.415 . S
H1024 C1021 0.999 . S
H1025 C1006 0.913 . S
H1026 C1044 0.951 . S
H1027 C1046 0.951 . S
H1028 C1048 0.950 . S
H1029 C1049 0.950 . S
H1030 C1051 0.950 . S
H1031 C1054 0.950 . S
H1032 C1055 0.950 . S
H1033 C1057 0.950 . S
H1034 C1058 0.950 . S
H1035 C1059 0.951 . S
H1036 C1061 0.951 . S
H1037 C1063 0.950 . S
H1038 C1064 0.950 . S
H1039 C1066 0.950 . S
H1040 C1069 0.950 . S
H1041 C1070 0.950 . S
H1042 C1072 0.950 . S
H1043 C1073 0.950 . S
C1044 H1026 0.951 . S
C1044 C1045 1.366 . S
C1044 C1046 1.388 . S
C1045 C1044 1.366 . S
C1045 C1049 1.385 . S
C1046 H1027 0.951 . S
C1046 C1044 1.388 . S
C1046 C1047 1.366 . S
C1047 C1046 1.366 . S
C1047 C1048 1.414 . S
C1047 C1050 1.499 . S
C1048 H1028 0.950 . S
C1048 C1047 1.414 . S
C1048 C1049 1.374 . S
C1049 H1029 0.950 . S
C1049 C1045 1.385 . S
C1049 C1048 1.374 . S
C1050 C1047 1.499 . S
C1050 C1051 1.373 . S
C1050 C1052 1.389 . S
C1051 H1030 0.950 . S
C1051 C1050 1.373 . S
C1051 C1067 1.377 . S
C1052 C1050 1.389 . S
C1052 C1053 1.524 . S
C1052 C1066 1.377 . S
C1053 C1052 1.524 . S
C1053 C1054 1.397 . S
C1053 C1058 1.363 . S
C1054 H1031 0.950 . S
C1054 C1053 1.397 . S
C1054 C1055 1.334 . S
C1055 H1032 0.950 . S
C1055 C1054 1.334 . S
C1055 C1056 1.287 . S
C1056 C1055 1.287 . S
C1056 C1057 1.524 . S
C1056 H1075 0.913 . S
C1057 H1033 0.950 . S
C1057 C1056 1.524 . S
C1057 C1058 1.415 . S
C1058 H1034 0.950 . S
C1058 C1053 1.363 . S
C1058 C1057 1.415 . S
C1059 H1035 0.951 . S
C1059 C1060 1.366 . S
C1059 C1061 1.388 . S
C1060 C1059 1.366 . S
C1060 C1064 1.385 . S
C1061 H1036 0.951 . S
C1061 C1059 1.388 . S
C1061 C1062 1.366 . S
C1062 C1061 1.366 . S
C1062 C1063 1.414 . S
C1062 C1065 1.499 . S
C1063 H1037 0.950 . S
C1063 C1062 1.414 . S
C1063 C1064 1.374 . S
C1064 H1038 0.950 . S
C1064 C1060 1.385 . S
C1064 C1063 1.374 . S
C1065 C1062 1.499 . S
C1065 C1066 1.373 . S
C1065 C1067 1.389 . S
C1066 H1039 0.950 . S
C1066 C1052 1.377 . S
C1066 C1065 1.373 . S
C1067 C1051 1.377 . S
C1067 C1065 1.389 . S
C1067 C1068 1.524 . S
C1068 C1067 1.524 . S
C1068 C1069 1.397 . S
C1068 C1073 1.363 . S
C1069 H1040 0.950 . S
C1069 C1068 1.397 . S
C1069 C1070 1.334 . S
C1070 H1041 0.950 . S
C1070 C1069 1.334 . S
C1070 C1071 1.287 . S
C1071 C1070 1.287 . S
C1071 C1072 1.524 . S
C1071 H1074 0.999 . S
C1072 H1042 0.950 . S
C1072 C1071 1.524 . S
C1072 C1073 1.415 . S
C1073 H1043 0.950 . S
C1073 C1068 1.363 . S
C1073 C1072 1.415 . S
H1074 C1071 0.999 . S
H1075 C1056 0.913 . S
H1076 C1094 0.951 . S
H1077 C1096 0.951 . S
H1078 C1098 0.950 . S
H1079 C1099 0.950 . S
H1080 C1101 0.950 . S
H1081 C1104 0.950 . S
H1082 C1105 0.950 . S
H1083 C1107 0.950 . S
H1084 C1108 0.950 1_556 S
H1085 C1109 0.951 . S
H1086 C1111 0.951 . S
H1087 C1113 0.950 . S
H1088 C1114 0.950 . S
H1089 C1116 0.950 . S
H1090 C1119 0.950 . S
H1091 C1120 0.950 . S
H1092 C1122 0.950 . S
H1093 C1123 0.950 1_554 S
C1094 H1076 0.951 . S
C1094 C1095 1.366 . S
C1094 C1096 1.388 . S
C1095 C1094 1.366 . S
C1095 C1099 1.385 1_565 S
C1096 H1077 0.951 . S
C1096 C1094 1.388 . S
C1096 C1097 1.366 . S
C1097 C1096 1.366 . S
C1097 C1098 1.414 1_565 S
C1097 C1100 1.499 . S
C1098 H1078 0.950 . S
C1098 C1097 1.414 1_545 S
C1098 C1099 1.374 . S
C1099 H1079 0.950 . S
C1099 C1095 1.385 1_545 S
C1099 C1098 1.374 . S
C1100 C1097 1.499 . S
C1100 C1101 1.373 1_565 S
C1100 C1102 1.389 . S
C1101 H1080 0.950 . S
C1101 C1100 1.373 1_545 S
C1101 C1117 1.377 1_554 S
C1102 C1100 1.389 . S
C1102 C1103 1.524 . S
C1102 C1116 1.377 1_554 S
C1103 C1102 1.524 . S
C1103 C1104 1.397 . S
C1103 C1108 1.363 . S
C1104 H1081 0.950 . S
C1104 C1103 1.397 . S
C1104 C1105 1.334 . S
C1105 H1082 0.950 . S
C1105 C1104 1.334 . S
C1105 C1106 1.287 . S
C1106 C1105 1.287 . S
C1106 C1107 1.524 . S
C1106 H1125 0.913 . S
C1107 H1083 0.950 . S
C1107 C1106 1.524 . S
C1107 C1108 1.415 . S
C1108 H1084 0.950 1_554 S
C1108 C1103 1.363 . S
C1108 C1107 1.415 . S
C1109 H1085 0.951 . S
C1109 C1110 1.366 . S
C1109 C1111 1.388 . S
C1110 C1109 1.366 . S
C1110 C1114 1.385 1_545 S
C1111 H1086 0.951 . S
C1111 C1109 1.388 . S
C1111 C1112 1.366 . S
C1112 C1111 1.366 . S
C1112 C1113 1.414 1_545 S
C1112 C1115 1.499 . S
C1113 H1087 0.950 . S
C1113 C1112 1.414 1_565 S
C1113 C1114 1.374 . S
C1114 H1088 0.950 . S
C1114 C1110 1.385 1_565 S
C1114 C1113 1.374 . S
C1115 C1112 1.499 . S
C1115 C1116 1.373 1_545 S
C1115 C1117 1.389 . S
C1116 H1089 0.950 . S
C1116 C1102 1.377 1_556 S
C1116 C1115 1.373 1_565 S
C1117 C1101 1.377 1_556 S
C1117 C1115 1.389 . S
C1117 C1118 1.524 . S
C1118 C1117 1.524 . S
C1118 C1119 1.397 . S
C1118 C1123 1.363 . S
C1119 H1090 0.950 . S
C1119 C1118 1.397 . S
C1119 C1120 1.334 . S
C1120 H1091 0.950 . S
C1120 C1119 1.334 . S
C1120 C1121 1.287 . S
C1121 C1120 1.287 . S
C1121 C1122 1.524 . S
C1121 H1124 0.999 . S
C1122 H1092 0.950 . S
C1122 C1121 1.524 . S
C1122 C1123 1.415 . S
C1123 H1093 0.950 1_556 S
C1123 C1118 1.363 . S
C1123 C1122 1.415 . S
H1124 C1121 0.999 . S
H1125 C1106 0.913 . S
H1126 C1144 0.951 . S
H1127 C1146 0.951 . S
H1128 C1148 0.950 . S
H1129 C1149 0.950 . S
H1130 C1151 0.950 . S
H1131 C1154 0.950 . S
H1132 C1155 0.950 . S
H1133 C1157 0.950 . S
H1134 C1158 0.950 . S
H1135 C1159 0.951 . S
H1136 C1161 0.951 . S
H1137 C1163 0.950 . S
H1138 C1164 0.950 . S
H1139 C1166 0.950 . S
H1140 C1169 0.950 . S
H1141 C1170 0.950 . S
H1142 C1172 0.950 . S
H1143 C1173 0.950 . S
C1144 H1126 0.951 . S
C1144 C1145 1.366 . S
C1144 C1146 1.388 . S
C1145 C1144 1.366 . S
C1145 C1149 1.385 . S
C1146 H1127 0.951 . S
C1146 C1144 1.388 . S
C1146 C1147 1.366 . S
C1147 C1146 1.366 . S
C1147 C1148 1.414 . S
C1147 C1150 1.499 . S
C1148 H1128 0.950 . S
C1148 C1147 1.414 . S
C1148 C1149 1.374 . S
C1149 H1129 0.950 . S
C1149 C1145 1.385 . S
C1149 C1148 1.374 . S
C1150 C1147 1.499 . S
C1150 C1151 1.373 . S
C1150 C1152 1.389 . S
C1151 H1130 0.950 . S
C1151 C1150 1.373 . S
C1151 C1167 1.377 . S
C1152 C1150 1.389 . S
C1152 C1153 1.524 . S
C1152 C1166 1.377 . S
C1153 C1152 1.524 . S
C1153 C1154 1.397 . S
C1153 C1158 1.363 . S
C1154 H1131 0.950 . S
C1154 C1153 1.397 . S
C1154 C1155 1.334 . S
C1155 H1132 0.950 . S
C1155 C1154 1.334 . S
C1155 C1156 1.287 . S
C1156 C1155 1.287 . S
C1156 C1157 1.524 . S
C1156 H1175 0.913 . S
C1157 H1133 0.950 . S
C1157 C1156 1.524 . S
C1157 C1158 1.415 . S
C1158 H1134 0.950 . S
C1158 C1153 1.363 . S
C1158 C1157 1.415 . S
C1159 H1135 0.951 . S
C1159 C1160 1.366 . S
C1159 C1161 1.388 . S
C1160 C1159 1.366 . S
C1160 C1164 1.385 . S
C1161 H1136 0.951 . S
C1161 C1159 1.388 . S
C1161 C1162 1.366 . S
C1162 C1161 1.366 . S
C1162 C1163 1.414 . S
C1162 C1165 1.499 . S
C1163 H1137 0.950 . S
C1163 C1162 1.414 . S
C1163 C1164 1.374 . S
C1164 H1138 0.950 . S
C1164 C1160 1.385 . S
C1164 C1163 1.374 . S
C1165 C1162 1.499 . S
C1165 C1166 1.373 . S
C1165 C1167 1.389 . S
C1166 H1139 0.950 . S
C1166 C1152 1.377 . S
C1166 C1165 1.373 . S
C1167 C1151 1.377 . S
C1167 C1165 1.389 . S
C1167 C1168 1.524 . S
C1168 C1167 1.524 . S
C1168 C1169 1.397 . S
C1168 C1173 1.363 . S
C1169 H1140 0.950 . S
C1169 C1168 1.397 . S
C1169 C1170 1.334 . S
C1170 H1141 0.950 . S
C1170 C1169 1.334 . S
C1170 C1171 1.287 . S
C1171 C1170 1.287 . S
C1171 C1172 1.524 . S
C1171 H1174 0.999 . S
C1172 H1142 0.950 . S
C1172 C1171 1.524 . S
C1172 C1173 1.415 . S
C1173 H1143 0.950 . S
C1173 C1168 1.363 . S
C1173 C1172 1.415 . S
H1174 C1171 0.999 . S
H1175 C1156 0.913 . S
H1176 C1194 0.951 . S
H1177 C1196 0.951 . S
H1178 C1198 0.950 . S
H1179 C1199 0.950 . S
H1180 C1201 0.950 . S
H1181 C1204 0.950 . S
H1182 C1205 0.950 . S
H1183 C1207 0.950 . S
H1184 C1208 0.950 . S
H1185 C1209 0.951 . S
H1186 C1211 0.951 . S
H1187 C1213 0.950 . S
H1188 C1214 0.950 . S
H1189 C1216 0.950 . S
H1190 C1219 0.950 . S
H1191 C1220 0.950 . S
H1192 C1222 0.950 . S
H1193 C1223 0.950 . S
C1194 H1176 0.951 . S
C1194 C1195 1.366 . S
C1194 C1196 1.388 . S
C1195 C1194 1.366 . S
C1195 C1199 1.385 . S
C1196 H1177 0.951 . S
C1196 C1194 1.388 . S
C1196 C1197 1.366 . S
C1197 C1196 1.366 . S
C1197 C1198 1.414 . S
C1197 C1200 1.499 . S
C1198 H1178 0.950 . S
C1198 C1197 1.414 . S
C1198 C1199 1.374 . S
C1199 H1179 0.950 . S
C1199 C1195 1.385 . S
C1199 C1198 1.374 . S
C1200 C1197 1.499 . S
C1200 C1201 1.373 . S
C1200 C1202 1.389 . S
C1201 H1180 0.950 . S
C1201 C1200 1.373 . S
C1201 C1217 1.377 . S
C1202 C1200 1.389 . S
C1202 C1203 1.524 . S
C1202 C1216 1.377 . S
C1203 C1202 1.524 . S
C1203 C1204 1.397 . S
C1203 C1208 1.363 . S
C1204 H1181 0.950 . S
C1204 C1203 1.397 . S
C1204 C1205 1.334 . S
C1205 H1182 0.950 . S
C1205 C1204 1.334 . S
C1205 C1206 1.287 . S
C1206 C1205 1.287 . S
C1206 C1207 1.524 . S
C1206 H1225 0.913 . S
C1207 H1183 0.950 . S
C1207 C1206 1.524 . S
C1207 C1208 1.415 . S
C1208 H1184 0.950 . S
C1208 C1203 1.363 . S
C1208 C1207 1.415 . S
C1209 H1185 0.951 . S
C1209 C1210 1.366 . S
C1209 C1211 1.388 . S
C1210 C1209 1.366 . S
C1210 C1214 1.385 . S
C1211 H1186 0.951 . S
C1211 C1209 1.388 . S
C1211 C1212 1.366 . S
C1212 C1211 1.366 . S
C1212 C1213 1.414 . S
C1212 C1215 1.499 . S
C1213 H1187 0.950 . S
C1213 C1212 1.414 . S
C1213 C1214 1.374 . S
C1214 H1188 0.950 . S
C1214 C1210 1.385 . S
C1214 C1213 1.374 . S
C1215 C1212 1.499 . S
C1215 C1216 1.373 . S
C1215 C1217 1.389 . S
C1216 H1189 0.950 . S
C1216 C1202 1.377 . S
C1216 C1215 1.373 . S
C1217 C1201 1.377 . S
C1217 C1215 1.389 . S
C1217 C1218 1.524 . S
C1218 C1217 1.524 . S
C1218 C1219 1.397 . S
C1218 C1223 1.363 . S
C1219 H1190 0.950 . S
C1219 C1218 1.397 . S
C1219 C1220 1.334 . S
C1220 H1191 0.950 . S
C1220 C1219 1.334 . S
C1220 C1221 1.287 . S
C1221 C1220 1.287 . S
C1221 C1222 1.524 . S
C1221 H1224 0.999 . S
C1222 H1192 0.950 . S
C1222 C1221 1.524 . S
C1222 C1223 1.415 . S
C1223 H1193 0.950 . S
C1223 C1218 1.363 . S
C1223 C1222 1.415 . S
H1224 C1221 0.999 . S
H1225 C1206 0.913 . S
H1226 C1244 0.951 . S
H1227 C1246 0.951 . S
H1228 C1248 0.950 . S
H1229 C1249 0.950 . S
H1230 C1251 0.950 . S
H1231 C1254 0.950 . S
H1232 C1255 0.950 . S
H1233 C1257 0.950 . S
H1234 C1258 0.950 . S
H1235 C1259 0.951 . S
H1236 C1261 0.951 . S
H1237 C1263 0.950 . S
H1238 C1264 0.950 . S
H1239 C1266 0.950 . S
H1240 C1269 0.950 . S
H1241 C1270 0.950 . S
H1242 C1272 0.950 . S
H1243 C1273 0.950 . S
C1244 H1226 0.951 . S
C1244 C1245 1.366 . S
C1244 C1246 1.388 . S
C1245 C1244 1.366 . S
C1245 C1249 1.385 . S
C1246 H1227 0.951 . S
C1246 C1244 1.388 . S
C1246 C1247 1.366 . S
C1247 C1246 1.366 . S
C1247 C1248 1.414 . S
C1247 C1250 1.499 . S
C1248 H1228 0.950 . S
C1248 C1247 1.414 . S
C1248 C1249 1.374 . S
C1249 H1229 0.950 . S
C1249 C1245 1.385 . S
C1249 C1248 1.374 . S
C1250 C1247 1.499 . S
C1250 C1251 1.373 . S
C1250 C1252 1.389 . S
C1251 H1230 0.950 . S
C1251 C1250 1.373 . S
C1251 C1267 1.377 . S
C1252 C1250 1.389 . S
C1252 C1253 1.524 . S
C1252 C1266 1.377 . S
C1253 C1252 1.524 . S
C1253 C1254 1.397 . S
C1253 C1258 1.363 . S
C1254 H1231 0.950 . S
C1254 C1253 1.397 . S
C1254 C1255 1.334 . S
C1255 H1232 0.950 . S
C1255 C1254 1.334 . S
C1255 C1256 1.287 . S
C1256 C1255 1.287 . S
C1256 C1257 1.524 . S
C1256 H1275 0.913 . S
C1257 H1233 0.950 . S
C1257 C1256 1.524 . S
C1257 C1258 1.415 . S
C1258 H1234 0.950 . S
C1258 C1253 1.363 . S
C1258 C1257 1.415 . S
C1259 H1235 0.951 . S
C1259 C1260 1.366 . S
C1259 C1261 1.388 . S
C1260 C1259 1.366 . S
C1260 C1264 1.385 . S
C1261 H1236 0.951 . S
C1261 C1259 1.388 . S
C1261 C1262 1.366 . S
C1262 C1261 1.366 . S
C1262 C1263 1.414 . S
C1262 C1265 1.499 . S
C1263 H1237 0.950 . S
C1263 C1262 1.414 . S
C1263 C1264 1.374 . S
C1264 H1238 0.950 . S
C1264 C1260 1.385 . S
C1264 C1263 1.374 . S
C1265 C1262 1.499 . S
C1265 C1266 1.373 . S
C1265 C1267 1.389 . S
C1266 H1239 0.950 . S
C1266 C1252 1.377 . S
C1266 C1265 1.373 . S
C1267 C1251 1.377 . S
C1267 C1265 1.389 . S
C1267 C1268 1.524 . S
C1268 C1267 1.524 . S
C1268 C1269 1.397 . S
C1268 C1273 1.363 . S
C1269 H1240 0.950 . S
C1269 C1268 1.397 . S
C1269 C1270 1.334 . S
C1270 H1241 0.950 . S
C1270 C1269 1.334 . S
C1270 C1271 1.287 . S
C1271 C1270 1.287 . S
C1271 C1272 1.524 . S
C1271 H1274 0.999 . S
C1272 H1242 0.950 . S
C1272 C1271 1.524 . S
C1272 C1273 1.415 . S
C1273 H1243 0.950 . S
C1273 C1268 1.363 . S
C1273 C1272 1.415 . S
H1274 C1271 0.999 . S
H1275 C1256 0.913 . S
H1276 C1294 0.951 . S
H1277 C1296 0.951 . S
H1278 C1298 0.950 . S
H1279 C1299 0.950 . S
H1280 C1301 0.950 . S
H1281 C1304 0.950 . S
H1282 C1305 0.950 . S
H1283 C1307 0.950 . S
H1284 C1308 0.950 . S
H1285 C1309 0.951 . S
H1286 C1311 0.951 . S
H1287 C1313 0.950 . S
H1288 C1314 0.950 . S
H1289 C1316 0.950 . S
H1290 C1319 0.950 . S
H1291 C1320 0.950 . S
H1292 C1322 0.950 . S
H1293 C1323 0.950 . S
C1294 H1276 0.951 . S
C1294 C1295 1.366 . S
C1294 C1296 1.388 . S
C1295 C1294 1.366 . S
C1295 C1299 1.385 . S
C1296 H1277 0.951 . S
C1296 C1294 1.388 . S
C1296 C1297 1.366 . S
C1297 C1296 1.366 . S
C1297 C1298 1.414 . S
C1297 C1300 1.499 . S
C1298 H1278 0.950 . S
C1298 C1297 1.414 . S
C1298 C1299 1.374 . S
C1299 H1279 0.950 . S
C1299 C1295 1.385 . S
C1299 C1298 1.374 . S
C1300 C1297 1.499 . S
C1300 C1301 1.373 . S
C1300 C1302 1.389 . S
C1301 H1280 0.950 . S
C1301 C1300 1.373 . S
C1301 C1317 1.377 1_556 S
C1302 C1300 1.389 . S
C1302 C1303 1.524 . S
C1302 C1316 1.377 1_556 S
C1303 C1302 1.524 . S
C1303 C1304 1.397 . S
C1303 C1308 1.363 . S
C1304 H1281 0.950 . S
C1304 C1303 1.397 . S
C1304 C1305 1.334 . S
C1305 H1282 0.950 . S
C1305 C1304 1.334 . S
C1305 C1306 1.287 . S
C1306 C1305 1.287 . S
C1306 C1307 1.524 . S
C1306 H1325 0.913 . S
C1307 H1283 0.950 . S
C1307 C1306 1.524 . S
C1307 C1308 1.415 . S
C1308 H1284 0.950 . S
C1308 C1303 1.363 . S
C1308 C1307 1.415 . S
C1309 H1285 0.951 . S
C1309 C1310 1.366 . S
C1309 C1311 1.388 . S
C1310 C1309 1.366 . S
C1310 C1314 1.385 . S
C1311 H1286 0.951 . S
C1311 C1309 1.388 . S
C1311 C1312 1.366 . S
C1312 C1311 1.366 . S
C1312 C1313 1.414 . S
C1312 C1315 1.499 . S
C1313 H1287 0.950 . S
C1313 C1312 1.414 . S
C1313 C1314 1.374 . S
C1314 H1288 0.950 . S
C1314 C1310 1.385 . S
C1314 C1313 1.374 . S
C1315 C1312 1.499 . S
C1315 C1316 1.373 . S
C1315 C1317 1.389 . S
C1316 H1289 0.950 . S
C1316 C1302 1.377 1_554 S
C1316 C1315 1.373 . S
C1317 C1301 1.377 1_554 S
C1317 C1315 1.389 . S
C1317 C1318 1.524 . S
C1318 C1317 1.524 . S
C1318 C1319 1.397 . S
C1318 C1323 1.363 . S
C1319 H1290 0.950 . S
C1319 C1318 1.397 . S
C1319 C1320 1.334 . S
C1320 H1291 0.950 . S
C1320 C1319 1.334 . S
C1320 C1321 1.287 . S
C1321 C1320 1.287 . S
C1321 C1322 1.524 . S
C1321 H1324 0.999 . S
C1322 H1292 0.950 . S
C1322 C1321 1.524 . S
C1322 C1323 1.415 . S
C1323 H1293 0.950 . S
C1323 C1318 1.363 . S
C1323 C1322 1.415 . S
H1324 C1321 0.999 . S
H1325 C1306 0.913 . S
H1326 C1344 0.951 . S
H1327 C1346 0.951 . S
H1328 C1348 0.950 . S
H1329 C1349 0.950 . S
H1330 C1351 0.950 1_655 S
H1331 C1354 0.950 . S
H1332 C1355 0.950 . S
H1333 C1357 0.950 . S
H1334 C1358 0.950 . S
H1335 C1359 0.951 . S
H1336 C1361 0.951 . S
H1337 C1363 0.950 . S
H1338 C1364 0.950 . S
H1339 C1366 0.950 . S
H1340 C1369 0.974 . S
H1341 C1370 0.950 . S
H1342 C1372 0.950 . S
H1343 C1373 0.950 . S
C1344 H1326 0.951 . S
C1344 C1345 1.366 . S
C1344 C1346 1.388 . S
C1345 C1344 1.366 . S
C1345 C1349 1.385 1_455 S
C1346 H1327 0.951 . S
C1346 C1344 1.388 . S
C1346 C1347 1.366 . S
C1347 C1346 1.366 . S
C1347 C1348 1.414 1_455 S
C1347 C1350 1.499 . S
C1348 H1328 0.950 . S
C1348 C1347 1.414 1_655 S
C1348 C1349 1.374 . S
C1349 H1329 0.950 . S
C1349 C1345 1.385 1_655 S
C1349 C1348 1.374 . S
C1350 C1347 1.499 . S
C1350 C1351 1.373 . S
C1350 C1352 1.389 . S
C1351 H1330 0.950 1_455 S
C1351 C1350 1.373 . S
C1351 C1367 1.377 . S
C1352 C1350 1.389 . S
C1352 C1353 1.524 . S
C1352 C1366 1.377 . S
C1353 C1352 1.524 . S
C1353 C1354 1.397 . S
C1353 C1358 1.363 . S
C1354 H1331 0.950 . S
C1354 C1353 1.397 . S
C1354 C1355 1.334 . S
C1355 H1332 0.950 . S
C1355 C1354 1.334 . S
C1355 C1356 1.287 . S
C1356 C1355 1.287 . S
C1356 C1357 1.524 . S
C1356 H1375 0.913 . S
C1357 H1333 0.950 . S
C1357 C1356 1.524 . S
C1357 C1358 1.415 . S
C1358 H1334 0.950 . S
C1358 C1353 1.363 . S
C1358 C1357 1.415 . S
C1359 H1335 0.951 . S
C1359 C1360 1.366 1_655 S
C1359 C1361 1.388 . S
C1360 C1359 1.366 1_455 S
C1360 C1364 1.385 . S
C1361 H1336 0.951 . S
C1361 C1359 1.388 . S
C1361 C1362 1.366 1_655 S
C1362 C1361 1.366 1_455 S
C1362 C1363 1.414 . S
C1362 C1365 1.499 . S
C1363 H1337 0.950 . S
C1363 C1362 1.414 . S
C1363 C1364 1.374 . S
C1364 H1338 0.950 . S
C1364 C1360 1.385 . S
C1364 C1363 1.374 . S
C1365 C1362 1.499 . S
C1365 C1366 1.373 . S
C1365 C1367 1.389 . S
C1366 H1339 0.950 . S
C1366 C1352 1.377 . S
C1366 C1365 1.373 . S
C1367 C1351 1.377 . S
C1367 C1365 1.389 . S
C1367 C1368 1.524 1_455 S
C1368 C1367 1.524 1_655 S
C1368 C1369 1.385 1_655 S
C1368 C1373 1.363 . S
C1369 H1340 0.974 . S
C1369 C1368 1.385 1_455 S
C1369 C1370 1.323 1_455 S
C1370 H1341 0.950 . S
C1370 C1369 1.323 1_655 S
C1370 C1371 1.287 . S
C1371 C1370 1.287 . S
C1371 C1372 1.524 . S
C1371 H1374 0.999 . S
C1372 H1342 0.950 . S
C1372 C1371 1.524 . S
C1372 C1373 1.415 . S
C1373 H1343 0.950 . S
C1373 C1368 1.363 . S
C1373 C1372 1.415 . S
H1374 C1371 0.999 . S
H1375 C1356 0.913 . S
H1376 C1394 0.951 . S
H1377 C1396 0.951 . S
H1378 C1398 0.950 . S
H1379 C1399 0.950 . S
H1380 C1401 0.950 . S
H1381 C1404 0.950 . S
H1382 C1405 0.950 . S
H1383 C1407 0.950 . S
H1384 C1408 0.950 . S
H1385 C1409 0.951 . S
H1386 C1411 0.951 . S
H1387 C1413 0.950 . S
H1388 C1414 0.950 . S
H1389 C1416 0.950 . S
H1390 C1419 0.950 . S
H1391 C1420 0.950 . S
H1392 C1422 0.950 1_545 S
H1393 C1423 0.950 . S
C1394 H1376 0.951 . S
C1394 C1395 1.366 . S
C1394 C1396 1.388 . S
C1395 C1394 1.366 . S
C1395 C1399 1.385 . S
C1396 H1377 0.951 . S
C1396 C1394 1.388 . S
C1396 C1397 1.366 . S
C1397 C1396 1.366 . S
C1397 C1398 1.414 . S
C1397 C1400 1.499 . S
C1398 H1378 0.950 . S
C1398 C1397 1.414 . S
C1398 C1399 1.374 . S
C1399 H1379 0.950 . S
C1399 C1395 1.385 . S
C1399 C1398 1.374 . S
C1400 C1397 1.499 . S
C1400 C1401 1.373 . S
C1400 C1402 1.389 . S
C1401 H1380 0.950 . S
C1401 C1400 1.373 . S
C1401 C1417 1.377 . S
C1402 C1400 1.389 . S
C1402 C1403 1.524 . S
C1402 C1416 1.377 . S
C1403 C1402 1.524 . S
C1403 C1404 1.397 . S
C1403 C1408 1.363 . S
C1404 H1381 0.950 . S
C1404 C1403 1.397 . S
C1404 C1405 1.334 . S
C1405 H1382 0.950 . S
C1405 C1404 1.334 . S
C1405 C1406 1.287 . S
C1406 C1405 1.287 . S
C1406 C1407 1.524 . S
C1406 H1425 0.913 . S
C1407 H1383 0.950 . S
C1407 C1406 1.524 . S
C1407 C1408 1.415 . S
C1408 H1384 0.950 . S
C1408 C1403 1.363 . S
C1408 C1407 1.415 . S
C1409 H1385 0.951 . S
C1409 C1410 1.366 . S
C1409 C1411 1.388 . S
C1410 C1409 1.366 . S
C1410 C1414 1.385 . S
C1411 H1386 0.951 . S
C1411 C1409 1.388 . S
C1411 C1412 1.366 . S
C1412 C1411 1.366 . S
C1412 C1413 1.414 . S
C1412 C1415 1.499 . S
C1413 H1387 0.950 . S
C1413 C1412 1.414 . S
C1413 C1414 1.374 . S
C1414 H1388 0.950 . S
C1414 C1410 1.385 . S
C1414 C1413 1.374 . S
C1415 C1412 1.499 . S
C1415 C1416 1.373 . S
C1415 C1417 1.389 . S
C1416 H1389 0.950 . S
C1416 C1402 1.377 . S
C1416 C1415 1.373 . S
C1417 C1401 1.377 . S
C1417 C1415 1.389 . S
C1417 C1418 1.524 . S
C1418 C1417 1.524 . S
C1418 C1419 1.397 . S
C1418 C1423 1.363 . S
C1419 H1390 0.950 . S
C1419 C1418 1.397 . S
C1419 C1420 1.334 1_565 S
C1420 H1391 0.950 . S
C1420 C1419 1.334 1_545 S
C1420 C1421 1.287 . S
C1421 C1420 1.287 . S
C1421 C1422 1.524 1_545 S
C1421 H1424 0.999 . S
C1422 H1392 0.950 1_565 S
C1422 C1421 1.524 1_565 S
C1422 C1423 1.415 . S
C1423 H1393 0.950 . S
C1423 C1418 1.363 . S
C1423 C1422 1.415 . S
H1424 C1421 0.999 . S
H1425 C1406 0.913 . S
H1426 C1444 0.951 . S
H1427 C1446 0.951 . S
H1428 C1448 0.950 . S
H1429 C1449 0.950 . S
H1430 C1451 0.950 . S
H1431 C1454 0.950 . S
H1432 C1455 0.950 . S
H1433 C1457 0.950 . S
H1434 C1458 0.950 . S
H1435 C1459 0.951 1_545 S
H1436 C1461 0.951 . S
H1437 C1463 0.950 . S
H1438 C1464 0.950 . S
H1439 C1466 0.950 . S
H1440 C1469 0.950 . S
H1441 C1470 0.950 . S
H1442 C1472 0.950 . S
H1443 C1473 0.950 . S
C1444 H1426 0.951 . S
C1444 C1445 1.366 . S
C1444 C1446 1.388 . S
C1445 C1444 1.366 . S
C1445 C1449 1.385 . S
C1446 H1427 0.951 . S
C1446 C1444 1.388 . S
C1446 C1447 1.366 . S
C1447 C1446 1.366 . S
C1447 C1448 1.414 . S
C1447 C1450 1.499 . S
C1448 H1428 0.950 . S
C1448 C1447 1.414 . S
C1448 C1449 1.374 . S
C1449 H1429 0.950 . S
C1449 C1445 1.385 . S
C1449 C1448 1.374 . S
C1450 C1447 1.499 . S
C1450 C1451 1.373 . S
C1450 C1452 1.389 . S
C1451 H1430 0.950 . S
C1451 C1450 1.373 . S
C1451 C1467 1.377 . S
C1452 C1450 1.389 . S
C1452 C1453 1.524 . S
C1452 C1466 1.377 . S
C1453 C1452 1.524 . S
C1453 C1454 1.397 . S
C1453 C1458 1.363 . S
C1454 H1431 0.950 . S
C1454 C1453 1.397 . S
C1454 C1455 1.334 . S
C1455 H1432 0.950 . S
C1455 C1454 1.334 . S
C1455 C1456 1.287 . S
C1456 C1455 1.287 . S
C1456 C1457 1.524 . S
C1456 H1475 0.913 . S
C1457 H1433 0.950 . S
C1457 C1456 1.524 . S
C1457 C1458 1.415 . S
C1458 H1434 0.950 . S
C1458 C1453 1.363 . S
C1458 C1457 1.415 . S
C1459 H1435 0.951 1_565 S
C1459 C1460 1.366 . S
C1459 C1461 1.388 . S
C1460 C1459 1.366 . S
C1460 C1464 1.385 . S
C1461 H1436 0.951 . S
C1461 C1459 1.388 . S
C1461 C1462 1.366 . S
C1462 C1461 1.366 . S
C1462 C1463 1.414 . S
C1462 C1465 1.499 . S
C1463 H1437 0.950 . S
C1463 C1462 1.414 . S
C1463 C1464 1.374 . S
C1464 H1438 0.950 . S
C1464 C1460 1.385 . S
C1464 C1463 1.374 . S
C1465 C1462 1.499 . S
C1465 C1466 1.373 . S
C1465 C1467 1.389 . S
C1466 H1439 0.950 . S
C1466 C1452 1.377 . S
C1466 C1465 1.373 . S
C1467 C1451 1.377 . S
C1467 C1465 1.389 . S
C1467 C1468 1.524 . S
C1468 C1467 1.524 . S
C1468 C1469 1.397 . S
C1468 C1473 1.363 . S
C1469 H1440 0.950 . S
C1469 C1468 1.397 . S
C1469 C1470 1.334 . S
C1470 H1441 0.950 . S
C1470 C1469 1.334 . S
C1470 C1471 1.287 . S
C1471 C1470 1.287 . S
C1471 C1472 1.524 . S
C1471 H1474 0.999 . S
C1472 H1442 0.950 . S
C1472 C1471 1.524 . S
C1472 C1473 1.415 . S
C1473 H1443 0.950 . S
C1473 C1468 1.363 . S
C1473 C1472 1.415 . S
H1474 C1471 0.999 . S
H1475 C1456 0.913 . S
H1476 C1494 0.951 . S
H1477 C1496 0.951 . S
H1478 C1498 0.950 . S
H1479 C1499 0.950 . S
H1480 C1501 0.950 . S
H1481 C1504 0.950 . S
H1482 C1505 0.950 . S
H1483 C1507 0.950 . S
H1484 C1508 0.950 . S
H1485 C1509 0.951 . S
H1486 C1511 0.951 . S
H1487 C1513 0.950 . S
H1488 C1514 0.950 . S
H1489 C1516 0.950 . S
H1490 C1519 0.950 . S
H1491 C1520 0.950 . S
H1492 C1522 0.950 . S
H1493 C1523 0.950 . S
C1494 H1476 0.951 . S
C1494 C1495 1.366 . S
C1494 C1496 1.388 . S
C1495 C1494 1.366 . S
C1495 C1499 1.385 . S
C1496 H1477 0.951 . S
C1496 C1494 1.388 . S
C1496 C1497 1.366 . S
C1497 C1496 1.366 . S
C1497 C1498 1.414 . S
C1497 C1500 1.499 . S
C1498 H1478 0.950 . S
C1498 C1497 1.414 . S
C1498 C1499 1.374 . S
C1499 H1479 0.950 . S
C1499 C1495 1.385 . S
C1499 C1498 1.374 . S
C1500 C1497 1.499 . S
C1500 C1501 1.373 . S
C1500 C1502 1.389 . S
C1501 H1480 0.950 . S
C1501 C1500 1.373 . S
C1501 C1517 1.377 . S
C1502 C1500 1.389 . S
C1502 C1503 1.524 . S
C1502 C1516 1.377 . S
C1503 C1502 1.524 . S
C1503 C1504 1.397 . S
C1503 C1508 1.363 . S
C1504 H1481 0.950 . S
C1504 C1503 1.397 . S
C1504 C1505 1.334 1_545 S
C1505 H1482 0.950 . S
C1505 C1504 1.334 1_565 S
C1505 C1506 1.287 . S
C1506 C1505 1.287 . S
C1506 C1507 1.524 1_565 S
C1506 H1525 0.913 . S
C1507 H1483 0.950 . S
C1507 C1506 1.524 1_545 S
C1507 C1508 1.415 . S
C1508 H1484 0.950 . S
C1508 C1503 1.363 . S
C1508 C1507 1.415 . S
C1509 H1485 0.951 . S
C1509 C1510 1.366 . S
C1509 C1511 1.388 . S
C1510 C1509 1.366 . S
C1510 C1514 1.385 . S
C1511 H1486 0.951 . S
C1511 C1509 1.388 . S
C1511 C1512 1.366 . S
C1512 C1511 1.366 . S
C1512 C1513 1.414 . S
C1512 C1515 1.499 . S
C1513 H1487 0.950 . S
C1513 C1512 1.414 . S
C1513 C1514 1.374 . S
C1514 H1488 0.950 . S
C1514 C1510 1.385 . S
C1514 C1513 1.374 . S
C1515 C1512 1.499 . S
C1515 C1516 1.373 . S
C1515 C1517 1.389 . S
C1516 H1489 0.950 . S
C1516 C1502 1.377 . S
C1516 C1515 1.373 . S
C1517 C1501 1.377 . S
C1517 C1515 1.389 . S
C1517 C1518 1.524 . S
C1518 C1517 1.524 . S
C1518 C1519 1.397 . S
C1518 C1523 1.363 . S
C1519 H1490 0.950 . S
C1519 C1518 1.397 . S
C1519 C1520 1.334 . S
C1520 H1491 0.950 . S
C1520 C1519 1.334 . S
C1520 C1521 1.287 . S
C1521 C1520 1.287 . S
C1521 C1522 1.524 . S
C1521 H1524 0.999 . S
C1522 H1492 0.950 . S
C1522 C1521 1.524 . S
C1522 C1523 1.415 . S
C1523 H1493 0.950 . S
C1523 C1518 1.363 . S
C1523 C1522 1.415 . S
H1524 C1521 0.999 . S
H1525 C1506 0.913 . S
H1526 C1544 0.951 . S
H1527 C1546 0.951 . S
H1528 C1548 0.950 . S
H1529 C1549 0.950 . S
H1530 C1551 0.950 . S
H1531 C1554 0.950 . S
H1532 C1555 0.950 1_565 S
H1533 C1557 0.950 . S
H1534 C1558 0.950 . S
H1535 C1559 0.951 . S
H1536 C1561 0.951 . S
H1537 C1563 0.950 . S
H1538 C1564 0.950 . S
H1539 C1566 0.950 . S
H1540 C1569 0.950 . S
H1541 C1570 0.950 . S
H1542 C1572 0.950 . S
H1543 C1573 0.950 . S
C1544 H1526 0.951 . S
C1544 C1545 1.366 . S
C1544 C1546 1.388 . S
C1545 C1544 1.366 . S
C1545 C1549 1.385 . S
C1546 H1527 0.951 . S
C1546 C1544 1.388 . S
C1546 C1547 1.366 . S
C1547 C1546 1.366 . S
C1547 C1548 1.414 . S
C1547 C1550 1.499 . S
C1548 H1528 0.950 . S
C1548 C1547 1.414 . S
C1548 C1549 1.374 . S
C1549 H1529 0.950 . S
C1549 C1545 1.385 . S
C1549 C1548 1.374 . S
C1550 C1547 1.499 . S
C1550 C1551 1.373 . S
C1550 C1552 1.389 . S
C1551 H1530 0.950 . S
C1551 C1550 1.373 . S
C1551 C1567 1.377 . S
C1552 C1550 1.389 . S
C1552 C1553 1.524 . S
C1552 C1566 1.377 . S
C1553 C1552 1.524 . S
C1553 C1554 1.397 . S
C1553 C1558 1.363 . S
C1554 H1531 0.950 . S
C1554 C1553 1.397 . S
C1554 C1555 1.334 . S
C1555 H1532 0.950 1_545 S
C1555 C1554 1.334 . S
C1555 C1556 1.287 . S
C1556 C1555 1.287 . S
C1556 C1557 1.524 . S
C1556 H1575 0.913 1_545 S
C1557 H1533 0.950 . S
C1557 C1556 1.524 . S
C1557 C1558 1.415 . S
C1558 H1534 0.950 . S
C1558 C1553 1.363 . S
C1558 C1557 1.415 . S
C1559 H1535 0.951 . S
C1559 C1560 1.366 . S
C1559 C1561 1.388 . S
C1560 C1559 1.366 . S
C1560 C1564 1.385 . S
C1561 H1536 0.951 . S
C1561 C1559 1.388 . S
C1561 C1562 1.366 . S
C1562 C1561 1.366 . S
C1562 C1563 1.414 . S
C1562 C1565 1.499 . S
C1563 H1537 0.950 . S
C1563 C1562 1.414 . S
C1563 C1564 1.374 . S
C1564 H1538 0.950 . S
C1564 C1560 1.385 . S
C1564 C1563 1.374 . S
C1565 C1562 1.499 . S
C1565 C1566 1.373 . S
C1565 C1567 1.389 . S
C1566 H1539 0.950 . S
C1566 C1552 1.377 . S
C1566 C1565 1.373 . S
C1567 C1551 1.377 . S
C1567 C1565 1.389 . S
C1567 C1568 1.524 . S
C1568 C1567 1.524 . S
C1568 C1569 1.397 . S
C1568 C1573 1.363 . S
C1569 H1540 0.950 . S
C1569 C1568 1.397 . S
C1569 C1570 1.334 . S
C1570 H1541 0.950 . S
C1570 C1569 1.334 . S
C1570 C1571 1.287 . S
C1571 C1570 1.287 . S
C1571 C1572 1.524 . S
C1571 H1574 0.999 . S
C1572 H1542 0.950 . S
C1572 C1571 1.524 . S
C1572 C1573 1.415 . S
C1573 H1543 0.950 . S
C1573 C1568 1.363 . S
C1573 C1572 1.415 . S
H1574 C1571 0.999 . S
H1575 C1556 0.913 1_565 S
H1576 C1594 0.951 . S
H1577 C1596 0.951 . S
H1578 C1598 0.950 . S
H1579 C1599 0.950 . S
H1580 C1601 0.950 . S
H1581 C1604 0.950 . S
H1582 C1605 0.950 . S
H1583 C1607 0.950 . S
H1584 C1608 0.950 . S
H1585 C1609 0.951 . S
H1586 C1611 0.951 . S
H1587 C1613 0.950 . S
H1588 C1614 0.950 . S
H1589 C1616 0.950 . S
H1590 C1619 0.950 . S
H1591 C1620 0.950 . S
H1592 C1622 0.950 . S
H1593 C1623 0.950 . S
C1594 H1576 0.951 . S
C1594 C1595 1.366 . S
C1594 C1596 1.388 . S
C1595 C1594 1.366 . S
C1595 C1599 1.385 1_545 S
C1596 H1577 0.951 . S
C1596 C1594 1.388 . S
C1596 C1597 1.366 . S
C1597 C1596 1.366 . S
C1597 C1598 1.414 . S
C1597 C1600 1.499 . S
C1598 H1578 0.950 . S
C1598 C1597 1.414 . S
C1598 C1599 1.374 1_545 S
C1599 H1579 0.950 . S
C1599 C1595 1.385 1_565 S
C1599 C1598 1.374 1_565 S
C1600 C1597 1.499 . S
C1600 C1601 1.373 . S
C1600 C1602 1.389 . S
C1601 H1580 0.950 . S
C1601 C1600 1.373 . S
C1601 C1617 1.377 . S
C1602 C1600 1.389 . S
C1602 C1603 1.524 . S
C1602 C1616 1.377 . S
C1603 C1602 1.524 . S
C1603 C1604 1.397 . S
C1603 C1608 1.363 . S
C1604 H1581 0.950 . S
C1604 C1603 1.397 . S
C1604 C1605 1.334 . S
C1605 H1582 0.950 . S
C1605 C1604 1.334 . S
C1605 C1606 1.287 . S
C1606 C1605 1.287 . S
C1606 C1607 1.524 . S
C1606 H1625 0.913 . S
C1607 H1583 0.950 . S
C1607 C1606 1.524 . S
C1607 C1608 1.415 . S
C1608 H1584 0.950 . S
C1608 C1603 1.363 . S
C1608 C1607 1.415 . S
C1609 H1585 0.951 . S
C1609 C1610 1.366 . S
C1609 C1611 1.388 . S
C1610 C1609 1.366 . S
C1610 C1614 1.385 . S
C1611 H1586 0.951 . S
C1611 C1609 1.388 . S
C1611 C1612 1.366 . S
C1612 C1611 1.366 . S
C1612 C1613 1.414 . S
C1612 C1615 1.499 . S
C1613 H1587 0.950 . S
C1613 C1612 1.414 . S
C1613 C1614 1.374 . S
C1614 H1588 0.950 . S
C1614 C1610 1.385 . S
C1614 C1613 1.374 . S
C1615 C1612 1.499 . S
C1615 C1616 1.373 . S
C1615 C1617 1.389 . S
C1616 H1589 0.950 . S
C1616 C1602 1.377 . S
C1616 C1615 1.373 . S
C1617 C1601 1.377 . S
C1617 C1615 1.389 . S
C1617 C1618 1.524 . S
C1618 C1617 1.524 . S
C1618 C1619 1.397 . S
C1618 C1623 1.363 . S
C1619 H1590 0.950 . S
C1619 C1618 1.397 . S
C1619 C1620 1.334 . S
C1620 H1591 0.950 . S
C1620 C1619 1.334 . S
C1620 C1621 1.287 . S
C1621 C1620 1.287 . S
C1621 C1622 1.524 . S
C1621 H1624 0.999 . S
C1622 H1592 0.950 . S
C1622 C1621 1.524 . S
C1622 C1623 1.415 . S
C1623 H1593 0.950 . S
C1623 C1618 1.363 . S
C1623 C1622 1.415 . S
H1624 C1621 0.999 . S
H1625 C1606 0.913 . S
H1626 C1644 0.951 . S
H1627 C1646 0.951 . S
H1628 C1648 0.950 . S
H1629 C1649 0.950 1_565 S
H1630 C1651 0.950 . S
H1631 C1654 0.950 . S
H1632 C1655 0.950 . S
H1633 C1657 0.950 . S
H1634 C1658 0.950 . S
H1635 C1659 0.951 . S
H1636 C1661 0.951 . S
H1637 C1663 0.950 . S
H1638 C1664 0.950 . S
H1639 C1666 0.950 . S
H1640 C1669 0.950 . S
H1641 C1670 0.950 . S
H1642 C1672 0.950 . S
H1643 C1673 0.950 . S
C1644 H1626 0.951 . S
C1644 C1645 1.366 . S
C1644 C1646 1.388 . S
C1645 C1644 1.366 . S
C1645 C1649 1.385 . S
C1646 H1627 0.951 . S
C1646 C1644 1.388 . S
C1646 C1647 1.366 . S
C1647 C1646 1.366 . S
C1647 C1648 1.414 . S
C1647 C1650 1.499 . S
C1648 H1628 0.950 . S
C1648 C1647 1.414 . S
C1648 C1649 1.374 . S
C1649 H1629 0.950 1_545 S
C1649 C1645 1.385 . S
C1649 C1648 1.374 . S
C1650 C1647 1.499 . S
C1650 C1651 1.373 . S
C1650 C1652 1.389 . S
C1651 H1630 0.950 . S
C1651 C1650 1.373 . S
C1651 C1667 1.377 . S
C1652 C1650 1.389 . S
C1652 C1653 1.524 . S
C1652 C1666 1.377 . S
C1653 C1652 1.524 . S
C1653 C1654 1.397 . S
C1653 C1658 1.363 . S
C1654 H1631 0.950 . S
C1654 C1653 1.397 . S
C1654 C1655 1.334 . S
C1655 H1632 0.950 . S
C1655 C1654 1.334 . S
C1655 C1656 1.287 . S
C1656 C1655 1.287 . S
C1656 C1657 1.524 . S
C1656 H1675 0.913 . S
C1657 H1633 0.950 . S
C1657 C1656 1.524 . S
C1657 C1658 1.415 . S
C1658 H1634 0.950 . S
C1658 C1653 1.363 . S
C1658 C1657 1.415 . S
C1659 H1635 0.951 . S
C1659 C1660 1.366 . S
C1659 C1661 1.388 . S
C1660 C1659 1.366 . S
C1660 C1664 1.385 . S
C1661 H1636 0.951 . S
C1661 C1659 1.388 . S
C1661 C1662 1.366 . S
C1662 C1661 1.366 . S
C1662 C1663 1.414 . S
C1662 C1665 1.499 . S
C1663 H1637 0.950 . S
C1663 C1662 1.414 . S
C1663 C1664 1.374 . S
C1664 H1638 0.950 . S
C1664 C1660 1.385 . S
C1664 C1663 1.374 . S
C1665 C1662 1.499 . S
C1665 C1666 1.373 . S
C1665 C1667 1.389 . S
C1666 H1639 0.950 . S
C1666 C1652 1.377 . S
C1666 C1665 1.373 . S
C1667 C1651 1.377 . S
C1667 C1665 1.389 . S
C1667 C1668 1.524 . S
C1668 C1667 1.524 . S
C1668 C1669 1.397 . S
C1668 C1673 1.363 . S
C1669 H1640 0.950 . S
C1669 C1668 1.397 . S
C1669 C1670 1.334 . S
C1670 H1641 0.950 . S
C1670 C1669 1.334 . S
C1670 C1671 1.287 . S
C1671 C1670 1.287 . S
C1671 C1672 1.524 . S
C1671 H1674 0.999 . S
C1672 H1642 0.950 . S
C1672 C1671 1.524 . S
C1672 C1673 1.415 . S
C1673 H1643 0.950 . S
C1673 C1668 1.363 . S
C1673 C1672 1.415 . S
H1674 C1671 0.999 . S
H1675 C1656 0.913 . S
H1676 C1694 0.951 . S
H1677 C1696 0.951 . S
H1678 C1698 0.950 . S
H1679 C1699 0.950 . S
H1680 C1701 0.950 . S
H1681 C1704 0.950 . S
H1682 C1705 0.950 . S
H1683 C1707 0.950 . S
H1684 C1708 0.950 . S
H1685 C1709 0.951 . S
H1686 C1711 0.951 . S
H1687 C1713 0.950 . S
H1688 C1714 0.950 1_545 S
H1689 C1716 0.950 . S
H1690 C1719 0.950 . S
H1691 C1720 0.950 1_545 S
H1692 C1722 0.950 . S
H1693 C1723 0.950 . S
C1694 H1676 0.951 . S
C1694 C1695 1.366 . S
C1694 C1696 1.388 . S
C1695 C1694 1.366 . S
C1695 C1699 1.385 . S
C1696 H1677 0.951 . S
C1696 C1694 1.388 . S
C1696 C1697 1.366 . S
C1697 C1696 1.366 . S
C1697 C1698 1.414 . S
C1697 C1700 1.499 . S
C1698 H1678 0.950 . S
C1698 C1697 1.414 . S
C1698 C1699 1.374 . S
C1699 H1679 0.950 . S
C1699 C1695 1.385 . S
C1699 C1698 1.374 . S
C1700 C1697 1.499 . S
C1700 C1701 1.373 . S
C1700 C1702 1.389 . S
C1701 H1680 0.950 . S
C1701 C1700 1.373 . S
C1701 C1717 1.377 . S
C1702 C1700 1.389 . S
C1702 C1703 1.524 . S
C1702 C1716 1.377 . S
C1703 C1702 1.524 . S
C1703 C1704 1.397 . S
C1703 C1708 1.363 . S
C1704 H1681 0.950 . S
C1704 C1703 1.397 . S
C1704 C1705 1.334 . S
C1705 H1682 0.950 . S
C1705 C1704 1.334 . S
C1705 C1706 1.287 . S
C1706 C1705 1.287 . S
C1706 C1707 1.524 . S
C1706 H1725 0.913 . S
C1707 H1683 0.950 . S
C1707 C1706 1.524 . S
C1707 C1708 1.415 . S
C1708 H1684 0.950 . S
C1708 C1703 1.363 . S
C1708 C1707 1.415 . S
C1709 H1685 0.951 . S
C1709 C1710 1.366 . S
C1709 C1711 1.388 . S
C1710 C1709 1.366 . S
C1710 C1714 1.385 . S
C1711 H1686 0.951 . S
C1711 C1709 1.388 . S
C1711 C1712 1.366 . S
C1712 C1711 1.366 . S
C1712 C1713 1.414 . S
C1712 C1715 1.499 . S
C1713 H1687 0.950 . S
C1713 C1712 1.414 . S
C1713 C1714 1.374 . S
C1714 H1688 0.950 1_565 S
C1714 C1710 1.385 . S
C1714 C1713 1.374 . S
C1715 C1712 1.499 . S
C1715 C1716 1.373 . S
C1715 C1717 1.389 . S
C1716 H1689 0.950 . S
C1716 C1702 1.377 . S
C1716 C1715 1.373 . S
C1717 C1701 1.377 . S
C1717 C1715 1.389 . S
C1717 C1718 1.524 . S
C1718 C1717 1.524 . S
C1718 C1719 1.397 . S
C1718 C1723 1.363 . S
C1719 H1690 0.950 . S
C1719 C1718 1.397 . S
C1719 C1720 1.334 . S
C1720 H1691 0.950 1_565 S
C1720 C1719 1.334 . S
C1720 C1721 1.287 . S
C1721 C1720 1.287 . S
C1721 C1722 1.524 . S
C1721 H1724 0.999 . S
C1722 H1692 0.950 . S
C1722 C1721 1.524 . S
C1722 C1723 1.415 . S
C1723 H1693 0.950 . S
C1723 C1718 1.363 . S
C1723 C1722 1.415 . S
H1724 C1721 0.999 . S
H1725 C1706 0.913 . S
H1726 C1744 0.951 . S
H1727 C1746 0.951 . S
H1728 C1748 0.950 . S
H1729 C1749 0.950 . S
H1730 C1751 0.950 . S
H1731 C1754 0.950 . S
H1732 C1755 0.950 . S
H1733 C1757 0.950 . S
H1734 C1758 0.950 . S
H1735 C1759 0.951 . S
H1736 C1761 0.951 . S
H1737 C1763 0.950 . S
H1738 C1764 0.950 . S
H1739 C1766 0.950 . S
H1740 C1769 0.950 . S
H1741 C1770 0.950 . S
H1742 C1772 0.950 . S
H1743 C1773 0.950 . S
C1744 H1726 0.951 . S
C1744 C1745 1.366 . S
C1744 C1746 1.388 . S
C1745 C1744 1.366 . S
C1745 C1749 1.385 . S
C1746 H1727 0.951 . S
C1746 C1744 1.388 . S
C1746 C1747 1.366 . S
C1747 C1746 1.366 . S
C1747 C1748 1.414 . S
C1747 C1750 1.499 . S
C1748 H1728 0.950 . S
C1748 C1747 1.414 . S
C1748 C1749 1.374 . S
C1749 H1729 0.950 . S
C1749 C1745 1.385 . S
C1749 C1748 1.374 . S
C1750 C1747 1.499 . S
C1750 C1751 1.373 . S
C1750 C1752 1.389 . S
C1751 H1730 0.950 . S
C1751 C1750 1.373 . S
C1751 C1767 1.377 . S
C1752 C1750 1.389 . S
C1752 C1753 1.524 . S
C1752 C1766 1.377 . S
C1753 C1752 1.524 . S
C1753 C1754 1.397 . S
C1753 C1758 1.363 . S
C1754 H1731 0.950 . S
C1754 C1753 1.397 . S
C1754 C1755 1.334 . S
C1755 H1732 0.950 . S
C1755 C1754 1.334 . S
C1755 C1756 1.287 . S
C1756 C1755 1.287 . S
C1756 C1757 1.524 . S
C1756 H1775 0.913 . S
C1757 H1733 0.950 . S
C1757 C1756 1.524 . S
C1757 C1758 1.415 . S
C1758 H1734 0.950 . S
C1758 C1753 1.363 . S
C1758 C1757 1.415 . S
C1759 H1735 0.951 . S
C1759 C1760 1.366 . S
C1759 C1761 1.388 . S
C1760 C1759 1.366 . S
C1760 C1764 1.385 1_565 S
C1761 H1736 0.951 . S
C1761 C1759 1.388 . S
C1761 C1762 1.366 . S
C1762 C1761 1.366 . S
C1762 C1763 1.414 . S
C1762 C1765 1.499 . S
C1763 H1737 0.950 . S
C1763 C1762 1.414 . S
C1763 C1764 1.374 1_565 S
C1764 H1738 0.950 . S
C1764 C1760 1.385 1_545 S
C1764 C1763 1.374 1_545 S
C1765 C1762 1.499 . S
C1765 C1766 1.373 . S
C1765 C1767 1.389 . S
C1766 H1739 0.950 . S
C1766 C1752 1.377 . S
C1766 C1765 1.373 . S
C1767 C1751 1.377 . S
C1767 C1765 1.389 . S
C1767 C1768 1.524 . S
C1768 C1767 1.524 . S
C1768 C1769 1.397 . S
C1768 C1773 1.363 . S
C1769 H1740 0.950 . S
C1769 C1768 1.397 . S
C1769 C1770 1.334 . S
C1770 H1741 0.950 . S
C1770 C1769 1.334 . S
C1770 C1771 1.287 . S
C1771 C1770 1.287 . S
C1771 C1772 1.524 . S
C1771 H1774 0.999 . S
C1772 H1742 0.950 . S
C1772 C1771 1.524 . S
C1772 C1773 1.415 . S
C1773 H1743 0.950 . S
C1773 C1768 1.363 . S
C1773 C1772 1.415 . S
H1774 C1771 0.999 . S
H1775 C1756 0.913 . S
H1776 C1794 0.951 . S
H1777 C1796 0.951 . S
H1778 C1798 0.950 . S
H1779 C1799 0.950 . S
H1780 C1801 0.950 . S
H1781 C1804 0.950 . S
H1782 C1805 0.950 . S
H1783 C1807 0.950 . S
H1784 C1808 0.950 . S
H1785 C1809 0.951 . S
H1786 C1811 0.951 . S
H1787 C1813 0.950 . S
H1788 C1814 0.950 . S
H1789 C1816 0.950 . S
H1790 C1819 0.950 . S
H1791 C1820 0.950 . S
H1792 C1822 0.950 . S
H1793 C1823 0.950 . S
C1794 H1776 0.951 . S
C1794 C1795 1.366 . S
C1794 C1796 1.388 . S
C1795 C1794 1.366 . S
C1795 C1799 1.385 . S
C1796 H1777 0.951 . S
C1796 C1794 1.388 . S
C1796 C1797 1.366 . S
C1797 C1796 1.366 . S
C1797 C1798 1.414 . S
C1797 C1800 1.499 . S
C1798 H1778 0.950 . S
C1798 C1797 1.414 . S
C1798 C1799 1.374 . S
C1799 H1779 0.950 . S
C1799 C1795 1.385 . S
C1799 C1798 1.374 . S
C1800 C1797 1.499 . S
C1800 C1801 1.373 . S
C1800 C1802 1.389 . S
C1801 H1780 0.950 . S
C1801 C1800 1.373 . S
C1801 C1817 1.377 . S
C1802 C1800 1.389 . S
C1802 C1803 1.524 . S
C1802 C1816 1.377 . S
C1803 C1802 1.524 . S
C1803 C1804 1.397 . S
C1803 C1808 1.363 . S
C1804 H1781 0.950 . S
C1804 C1803 1.397 . S
C1804 C1805 1.334 . S
C1805 H1782 0.950 . S
C1805 C1804 1.334 . S
C1805 C1806 1.287 . S
C1806 C1805 1.287 . S
C1806 C1807 1.524 . S
C1806 H1825 0.913 . S
C1807 H1783 0.950 . S
C1807 C1806 1.524 . S
C1807 C1808 1.415 . S
C1808 H1784 0.950 . S
C1808 C1803 1.363 . S
C1808 C1807 1.415 . S
C1809 H1785 0.951 . S
C1809 C1810 1.366 . S
C1809 C1811 1.388 . S
C1810 C1809 1.366 . S
C1810 C1814 1.385 . S
C1811 H1786 0.951 . S
C1811 C1809 1.388 . S
C1811 C1812 1.366 . S
C1812 C1811 1.366 . S
C1812 C1813 1.414 . S
C1812 C1815 1.499 . S
C1813 H1787 0.950 . S
C1813 C1812 1.414 . S
C1813 C1814 1.374 . S
C1814 H1788 0.950 . S
C1814 C1810 1.385 . S
C1814 C1813 1.374 . S
C1815 C1812 1.499 . S
C1815 C1816 1.373 . S
C1815 C1817 1.389 . S
C1816 H1789 0.950 . S
C1816 C1802 1.377 . S
C1816 C1815 1.373 . S
C1817 C1801 1.377 . S
C1817 C1815 1.389 . S
C1817 C1818 1.524 . S
C1818 C1817 1.524 . S
C1818 C1819 1.397 . S
C1818 C1823 1.363 . S
C1819 H1790 0.950 . S
C1819 C1818 1.397 . S
C1819 C1820 1.334 . S
C1820 H1791 0.950 . S
C1820 C1819 1.334 . S
C1820 C1821 1.287 . S
C1821 C1820 1.287 . S
C1821 C1822 1.524 . S
C1821 H1824 0.999 . S
C1822 H1792 0.950 . S
C1822 C1821 1.524 . S
C1822 C1823 1.415 . S
C1823 H1793 0.950 . S
C1823 C1818 1.363 . S
C1823 C1822 1.415 . S
H1824 C1821 0.999 . S
H1825 C1806 0.913 . S
H1826 C1844 0.951 . S
H1827 C1846 0.951 . S
H1828 C1848 0.950 . S
H1829 C1849 0.950 . S
H1830 C1851 0.950 . S
H1831 C1854 0.950 . S
H1832 C1855 0.950 . S
H1833 C1857 0.950 . S
H1834 C1858 0.950 . S
H1835 C1859 0.951 . S
H1836 C1861 0.951 . S
H1837 C1863 0.950 . S
H1838 C1864 0.950 . S
H1839 C1866 0.950 . S
H1840 C1869 0.950 . S
H1841 C1870 0.950 . S
H1842 C1872 0.950 . S
H1843 C1873 0.950 . S
C1844 H1826 0.951 . S
C1844 C1845 1.366 . S
C1844 C1846 1.388 . S
C1845 C1844 1.366 . S
C1845 C1849 1.385 . S
C1846 H1827 0.951 . S
C1846 C1844 1.388 . S
C1846 C1847 1.366 . S
C1847 C1846 1.366 . S
C1847 C1848 1.414 . S
C1847 C1850 1.499 . S
C1848 H1828 0.950 . S
C1848 C1847 1.414 . S
C1848 C1849 1.374 . S
C1849 H1829 0.950 . S
C1849 C1845 1.385 . S
C1849 C1848 1.374 . S
C1850 C1847 1.499 . S
C1850 C1851 1.373 . S
C1850 C1852 1.389 . S
C1851 H1830 0.950 . S
C1851 C1850 1.373 . S
C1851 C1867 1.377 . S
C1852 C1850 1.389 . S
C1852 C1853 1.524 . S
C1852 C1866 1.377 . S
C1853 C1852 1.524 . S
C1853 C1854 1.397 . S
C1853 C1858 1.363 . S
C1854 H1831 0.950 . S
C1854 C1853 1.397 . S
C1854 C1855 1.334 . S
C1855 H1832 0.950 . S
C1855 C1854 1.334 . S
C1855 C1856 1.287 . S
C1856 C1855 1.287 . S
C1856 C1857 1.524 . S
C1856 H1875 0.913 . S
C1857 H1833 0.950 . S
C1857 C1856 1.524 . S
C1857 C1858 1.415 . S
C1858 H1834 0.950 . S
C1858 C1853 1.363 . S
C1858 C1857 1.415 . S
C1859 H1835 0.951 . S
C1859 C1860 1.366 . S
C1859 C1861 1.388 . S
C1860 C1859 1.366 . S
C1860 C1864 1.385 . S
C1861 H1836 0.951 . S
C1861 C1859 1.388 . S
C1861 C1862 1.366 . S
C1862 C1861 1.366 . S
C1862 C1863 1.414 . S
C1862 C1865 1.499 . S
C1863 H1837 0.950 . S
C1863 C1862 1.414 . S
C1863 C1864 1.374 . S
C1864 H1838 0.950 . S
C1864 C1860 1.385 . S
C1864 C1863 1.374 . S
C1865 C1862 1.499 . S
C1865 C1866 1.373 . S
C1865 C1867 1.389 . S
C1866 H1839 0.950 . S
C1866 C1852 1.377 . S
C1866 C1865 1.373 . S
C1867 C1851 1.377 . S
C1867 C1865 1.389 . S
C1867 C1868 1.524 . S
C1868 C1867 1.524 . S
C1868 C1869 1.397 . S
C1868 C1873 1.363 . S
C1869 H1840 0.950 . S
C1869 C1868 1.397 . S
C1869 C1870 1.334 . S
C1870 H1841 0.950 . S
C1870 C1869 1.334 . S
C1870 C1871 1.287 . S
C1871 C1870 1.287 . S
C1871 C1872 1.524 . S
C1871 H1874 0.999 . S
C1872 H1842 0.950 . S
C1872 C1871 1.524 . S
C1872 C1873 1.415 . S
C1873 H1843 0.950 . S
C1873 C1868 1.363 . S
C1873 C1872 1.415 . S
H1874 C1871 0.999 . S
H1875 C1856 0.913 . S
H1876 C1894 0.951 . S
H1877 C1896 0.951 . S
H1878 C1898 0.950 . S
H1879 C1899 0.950 . S
H1880 C1901 0.950 . S
H1881 C1904 0.950 . S
H1882 C1905 0.950 . S
H1883 C1907 0.950 . S
H1884 C1908 0.950 . S
H1885 C1909 0.951 . S
H1886 C1911 0.951 . S
H1887 C1913 0.950 . S
H1888 C1914 0.950 . S
H1889 C1916 0.950 . S
H1890 C1919 0.950 . S
H1891 C1920 0.950 . S
H1892 C1922 0.950 . S
H1893 C1923 0.950 . S
C1894 H1876 0.951 . S
C1894 C1895 1.366 . S
C1894 C1896 1.388 . S
C1895 C1894 1.366 . S
C1895 C1899 1.385 . S
C1896 H1877 0.951 . S
C1896 C1894 1.388 . S
C1896 C1897 1.366 . S
C1897 C1896 1.366 . S
C1897 C1898 1.414 . S
C1897 C1900 1.499 . S
C1898 H1878 0.950 . S
C1898 C1897 1.414 . S
C1898 C1899 1.374 . S
C1899 H1879 0.950 . S
C1899 C1895 1.385 . S
C1899 C1898 1.374 . S
C1900 C1897 1.499 . S
C1900 C1901 1.373 . S
C1900 C1902 1.389 . S
C1901 H1880 0.950 . S
C1901 C1900 1.373 . S
C1901 C1917 1.377 . S
C1902 C1900 1.389 . S
C1902 C1903 1.524 . S
C1902 C1916 1.377 . S
C1903 C1902 1.524 . S
C1903 C1904 1.397 . S
C1903 C1908 1.363 . S
C1904 H1881 0.950 . S
C1904 C1903 1.397 . S
C1904 C1905 1.334 . S
C1905 H1882 0.950 . S
C1905 C1904 1.334 . S
C1905 C1906 1.287 . S
C1906 C1905 1.287 . S
C1906 C1907 1.524 . S
C1906 H1925 0.913 . S
C1907 H1883 0.950 . S
C1907 C1906 1.524 . S
C1907 C1908 1.415 . S
C1908 H1884 0.950 . S
C1908 C1903 1.363 . S
C1908 C1907 1.415 . S
C1909 H1885 0.951 . S
C1909 C1910 1.366 . S
C1909 C1911 1.388 . S
C1910 C1909 1.366 . S
C1910 C1914 1.385 . S
C1911 H1886 0.951 . S
C1911 C1909 1.388 . S
C1911 C1912 1.366 . S
C1912 C1911 1.366 . S
C1912 C1913 1.414 . S
C1912 C1915 1.499 . S
C1913 H1887 0.950 . S
C1913 C1912 1.414 . S
C1913 C1914 1.374 . S
C1914 H1888 0.950 . S
C1914 C1910 1.385 . S
C1914 C1913 1.374 . S
C1915 C1912 1.499 . S
C1915 C1916 1.373 . S
C1915 C1917 1.389 . S
C1916 H1889 0.950 . S
C1916 C1902 1.377 . S
C1916 C1915 1.373 . S
C1917 C1901 1.377 . S
C1917 C1915 1.389 . S
C1917 C1918 1.524 . S
C1918 C1917 1.524 . S
C1918 C1919 1.397 . S
C1918 C1923 1.363 . S
C1919 H1890 0.950 . S
C1919 C1918 1.397 . S
C1919 C1920 1.334 . S
C1920 H1891 0.950 . S
C1920 C1919 1.334 . S
C1920 C1921 1.287 . S
C1921 C1920 1.287 . S
C1921 C1922 1.524 . S
C1921 H1924 0.999 . S
C1922 H1892 0.950 . S
C1922 C1921 1.524 . S
C1922 C1923 1.415 . S
C1923 H1893 0.950 . S
C1923 C1918 1.363 . S
C1923 C1922 1.415 . S
H1924 C1921 0.999 . S
H1925 C1906 0.913 . S
H1926 C1944 0.951 . S
H1927 C1946 0.951 . S
H1928 C1948 0.950 . S
H1929 C1949 0.950 . S
H1930 C1951 0.950 . S
H1931 C1954 0.950 . S
H1932 C1955 0.950 . S
H1933 C1957 0.950 . S
H1934 C1958 0.950 . S
H1935 C1959 0.951 . S
H1936 C1961 0.951 . S
H1937 C1963 0.950 . S
H1938 C1964 0.950 . S
H1939 C1966 0.950 . S
H1940 C1969 0.950 . S
H1941 C1970 0.950 . S
H1942 C1972 0.950 . S
H1943 C1973 0.950 . S
C1944 H1926 0.951 . S
C1944 C1945 1.366 . S
C1944 C1946 1.388 . S
C1945 C1944 1.366 . S
C1945 C1949 1.385 . S
C1946 H1927 0.951 . S
C1946 C1944 1.388 . S
C1946 C1947 1.366 . S
C1947 C1946 1.366 . S
C1947 C1948 1.414 . S
C1947 C1950 1.499 . S
C1948 H1928 0.950 . S
C1948 C1947 1.414 . S
C1948 C1949 1.374 . S
C1949 H1929 0.950 . S
C1949 C1945 1.385 . S
C1949 C1948 1.374 . S
C1950 C1947 1.499 . S
C1950 C1951 1.373 . S
C1950 C1952 1.389 . S
C1951 H1930 0.950 . S
C1951 C1950 1.373 . S
C1951 C1967 1.377 . S
C1952 C1950 1.389 . S
C1952 C1953 1.524 . S
C1952 C1966 1.377 . S
C1953 C1952 1.524 . S
C1953 C1954 1.397 . S
C1953 C1958 1.363 . S
C1954 H1931 0.950 . S
C1954 C1953 1.397 . S
C1954 C1955 1.334 . S
C1955 H1932 0.950 . S
C1955 C1954 1.334 . S
C1955 C1956 1.287 . S
C1956 C1955 1.287 . S
C1956 C1957 1.524 . S
C1956 H1975 0.913 . S
C1957 H1933 0.950 . S
C1957 C1956 1.524 . S
C1957 C1958 1.415 . S
C1958 H1934 0.950 . S
C1958 C1953 1.363 . S
C1958 C1957 1.415 . S
C1959 H1935 0.951 . S
C1959 C1960 1.366 . S
C1959 C1961 1.388 . S
C1960 C1959 1.366 . S
C1960 C1964 1.385 . S
C1961 H1936 0.951 . S
C1961 C1959 1.388 . S
C1961 C1962 1.366 . S
C1962 C1961 1.366 . S
C1962 C1963 1.414 . S
C1962 C1965 1.499 . S
C1963 H1937 0.950 . S
C1963 C1962 1.414 . S
C1963 C1964 1.374 . S
C1964 H1938 0.950 . S
C1964 C1960 1.385 . S
C1964 C1963 1.374 . S
C1965 C1962 1.499 . S
C1965 C1966 1.373 . S
C1965 C1967 1.389 . S
C1966 H1939 0.950 . S
C1966 C1952 1.377 . S
C1966 C1965 1.373 . S
C1967 C1951 1.377 . S
C1967 C1965 1.389 . S
C1967 C1968 1.524 . S
C1968 C1967 1.524 . S
C1968 C1969 1.397 . S
C1968 C1973 1.363 . S
C1969 H1940 0.950 . S
C1969 C1968 1.397 . S
C1969 C1970 1.334 . S
C1970 H1941 0.950 . S
C1970 C1969 1.334 . S
C1970 C1971 1.287 . S
C1971 C1970 1.287 . S
C1971 C1972 1.524 . S
C1971 H1974 0.999 . S
C1972 H1942 0.950 . S
C1972 C1971 1.524 . S
C1972 C1973 1.415 . S
C1973 H1943 0.950 . S
C1973 C1968 1.363 . S
C1973 C1972 1.415 . S
H1974 C1971 0.999 . S
H1975 C1956 0.913 . S
H1976 C1994 0.951 . S
H1977 C1996 0.951 . S
H1978 C1998 0.950 . S
H1979 C1999 0.950 . S
H1980 C2001 0.950 . S
H1981 C2004 0.950 . S
H1982 C2005 0.950 . S
H1983 C2007 0.950 . S
H1984 C2008 0.950 . S
H1985 C2009 0.951 . S
H1986 C2011 0.951 . S
H1987 C2013 0.950 . S
H1988 C2014 0.950 . S
H1989 C2016 0.950 . S
H1990 C2019 0.950 . S
H1991 C2020 0.950 . S
H1992 C2022 0.950 . S
H1993 C2023 0.950 . S
C1994 H1976 0.951 . S
C1994 C1995 1.366 . S
C1994 C1996 1.388 . S
C1995 C1994 1.366 . S
C1995 C1999 1.385 . S
C1996 H1977 0.951 . S
C1996 C1994 1.388 . S
C1996 C1997 1.366 . S
C1997 C1996 1.366 . S
C1997 C1998 1.414 . S
C1997 C2000 1.499 . S
C1998 H1978 0.950 . S
C1998 C1997 1.414 . S
C1998 C1999 1.374 . S
C1999 H1979 0.950 . S
C1999 C1995 1.385 . S
C1999 C1998 1.374 . S
C2000 C1997 1.499 . S
C2000 C2001 1.373 . S
C2000 C2002 1.389 . S
C2001 H1980 0.950 . S
C2001 C2000 1.373 . S
C2001 C2017 1.377 . S
C2002 C2000 1.389 . S
C2002 C2003 1.524 . S
C2002 C2016 1.377 . S
C2003 C2002 1.524 . S
C2003 C2004 1.397 . S
C2003 C2008 1.363 . S
C2004 H1981 0.950 . S
C2004 C2003 1.397 . S
C2004 C2005 1.334 . S
C2005 H1982 0.950 . S
C2005 C2004 1.334 . S
C2005 C2006 1.287 . S
C2006 C2005 1.287 . S
C2006 C2007 1.524 . S
C2006 H2025 0.913 . S
C2007 H1983 0.950 . S
C2007 C2006 1.524 . S
C2007 C2008 1.415 . S
C2008 H1984 0.950 . S
C2008 C2003 1.363 . S
C2008 C2007 1.415 . S
C2009 H1985 0.951 . S
C2009 C2010 1.366 . S
C2009 C2011 1.388 . S
C2010 C2009 1.366 . S
C2010 C2014 1.385 . S
C2011 H1986 0.951 . S
C2011 C2009 1.388 . S
C2011 C2012 1.366 . S
C2012 C2011 1.366 . S
C2012 C2013 1.414 . S
C2012 C2015 1.499 . S
C2013 H1987 0.950 . S
C2013 C2012 1.414 . S
C2013 C2014 1.374 . S
C2014 H1988 0.950 . S
C2014 C2010 1.385 . S
C2014 C2013 1.374 . S
C2015 C2012 1.499 . S
C2015 C2016 1.373 . S
C2015 C2017 1.389 . S
C2016 H1989 0.950 . S
C2016 C2002 1.377 . S
C2016 C2015 1.373 . S
C2017 C2001 1.377 . S
C2017 C2015 1.389 . S
C2017 C2018 1.524 . S
C2018 C2017 1.524 . S
C2018 C2019 1.397 . S
C2018 C2023 1.363 . S
C2019 H1990 0.950 . S
C2019 C2018 1.397 . S
C2019 C2020 1.334 . S
C2020 H1991 0.950 . S
C2020 C2019 1.334 . S
C2020 C2021 1.287 . S
C2021 C2020 1.287 . S
C2021 C2022 1.524 . S
C2021 H2024 0.999 . S
C2022 H1992 0.950 . S
C2022 C2021 1.524 . S
C2022 C2023 1.415 . S
C2023 H1993 0.950 . S
C2023 C2018 1.363 . S
C2023 C2022 1.415 . S
H2024 C2021 0.999 . S
H2025 C2006 0.913 . S
H2026 C2044 0.951 . S
H2027 C2046 0.951 . S
H2028 C2048 0.950 . S
H2029 C2049 0.950 . S
H2030 C2051 0.950 . S
H2031 C2054 0.950 . S
H2032 C2055 0.950 . S
H2033 C2057 0.950 . S
H2034 C2058 0.950 . S
H2035 C2059 0.951 . S
H2036 C2061 0.951 . S
H2037 C2063 0.950 . S
H2038 C2064 0.950 . S
H2039 C2066 0.950 . S
H2040 C2069 0.950 . S
H2041 C2070 0.950 . S
H2042 C2072 0.950 . S
H2043 C2073 0.950 . S
C2044 H2026 0.951 . S
C2044 C2045 1.366 . S
C2044 C2046 1.388 . S
C2045 C2044 1.366 . S
C2045 C2049 1.385 . S
C2046 H2027 0.951 . S
C2046 C2044 1.388 . S
C2046 C2047 1.366 . S
C2047 C2046 1.366 . S
C2047 C2048 1.414 . S
C2047 C2050 1.499 . S
C2048 H2028 0.950 . S
C2048 C2047 1.414 . S
C2048 C2049 1.374 . S
C2049 H2029 0.950 . S
C2049 C2045 1.385 . S
C2049 C2048 1.374 . S
C2050 C2047 1.499 . S
C2050 C2051 1.373 . S
C2050 C2052 1.389 . S
C2051 H2030 0.950 . S
C2051 C2050 1.373 . S
C2051 C2067 1.377 . S
C2052 C2050 1.389 . S
C2052 C2053 1.524 . S
C2052 C2066 1.377 . S
C2053 C2052 1.524 . S
C2053 C2054 1.397 . S
C2053 C2058 1.363 . S
C2054 H2031 0.950 . S
C2054 C2053 1.397 . S
C2054 C2055 1.334 . S
C2055 H2032 0.950 . S
C2055 C2054 1.334 . S
C2055 C2056 1.287 . S
C2056 C2055 1.287 . S
C2056 C2057 1.524 . S
C2056 H2075 0.913 . S
C2057 H2033 0.950 . S
C2057 C2056 1.524 . S
C2057 C2058 1.415 . S
C2058 H2034 0.950 . S
C2058 C2053 1.363 . S
C2058 C2057 1.415 . S
C2059 H2035 0.951 . S
C2059 C2060 1.366 . S
C2059 C2061 1.388 . S
C2060 C2059 1.366 . S
C2060 C2064 1.385 . S
C2061 H2036 0.951 . S
C2061 C2059 1.388 . S
C2061 C2062 1.366 . S
C2062 C2061 1.366 . S
C2062 C2063 1.414 . S
C2062 C2065 1.499 . S
C2063 H2037 0.950 . S
C2063 C2062 1.414 . S
C2063 C2064 1.374 . S
C2064 H2038 0.950 . S
C2064 C2060 1.385 . S
C2064 C2063 1.374 . S
C2065 C2062 1.499 . S
C2065 C2066 1.373 . S
C2065 C2067 1.389 . S
C2066 H2039 0.950 . S
C2066 C2052 1.377 . S
C2066 C2065 1.373 . S
C2067 C2051 1.377 . S
C2067 C2065 1.389 . S
C2067 C2068 1.524 . S
C2068 C2067 1.524 . S
C2068 C2069 1.397 . S
C2068 C2073 1.363 . S
C2069 H2040 0.950 . S
C2069 C2068 1.397 . S
C2069 C2070 1.334 . S
C2070 H2041 0.950 . S
C2070 C2069 1.334 . S
C2070 C2071 1.287 . S
C2071 C2070 1.287 . S
C2071 C2072 1.524 . S
C2071 H2074 0.999 . S
C2072 H2042 0.950 . S
C2072 C2071 1.524 . S
C2072 C2073 1.415 . S
C2073 H2043 0.950 . S
C2073 C2068 1.363 . S
C2073 C2072 1.415 . S
H2074 C2071 0.999 . S
H2075 C2056 0.913 . S
H2076 C2094 0.951 . S
H2077 C2096 0.951 . S
H2078 C2098 0.950 . S
H2079 C2099 0.950 . S
H2080 C2101 0.950 . S
H2081 C2104 0.950 . S
H2082 C2105 0.950 . S
H2083 C2107 0.950 . S
H2084 C2108 0.950 . S
H2085 C2109 0.951 . S
H2086 C2111 0.951 . S
H2087 C2113 0.950 . S
H2088 C2114 0.950 . S
H2089 C2116 0.950 . S
H2090 C2119 0.950 . S
H2091 C2120 0.950 . S
H2092 C2122 0.950 . S
H2093 C2123 0.950 . S
C2094 H2076 0.951 . S
C2094 C2095 1.366 . S
C2094 C2096 1.388 . S
C2095 C2094 1.366 . S
C2095 C2099 1.385 . S
C2096 H2077 0.951 . S
C2096 C2094 1.388 . S
C2096 C2097 1.366 . S
C2097 C2096 1.366 . S
C2097 C2098 1.414 . S
C2097 C2100 1.499 . S
C2098 H2078 0.950 . S
C2098 C2097 1.414 . S
C2098 C2099 1.374 . S
C2099 H2079 0.950 . S
C2099 C2095 1.385 . S
C2099 C2098 1.374 . S
C2100 C2097 1.499 . S
C2100 C2101 1.373 . S
C2100 C2102 1.389 . S
C2101 H2080 0.950 . S
C2101 C2100 1.373 . S
C2101 C2117 1.377 . S
C2102 C2100 1.389 . S
C2102 C2103 1.524 . S
C2102 C2116 1.377 . S
C2103 C2102 1.524 . S
C2103 C2104 1.397 . S
C2103 C2108 1.363 . S
C2104 H2081 0.950 . S
C2104 C2103 1.397 . S
C2104 C2105 1.334 . S
C2105 H2082 0.950 . S
C2105 C2104 1.334 . S
C2105 C2106 1.287 . S
C2106 C2105 1.287 . S
C2106 C2107 1.524 . S
C2106 H2125 0.913 . S
C2107 H2083 0.950 . S
C2107 C2106 1.524 . S
C2107 C2108 1.415 . S
C2108 H2084 0.950 . S
C2108 C2103 1.363 . S
C2108 C2107 1.415 . S
C2109 H2085 0.951 . S
C2109 C2110 1.366 . S
C2109 C2111 1.388 . S
C2110 C2109 1.366 . S
C2110 C2114 1.385 . S
C2111 H2086 0.951 . S
C2111 C2109 1.388 . S
C2111 C2112 1.366 . S
C2112 C2111 1.366 . S
C2112 C2113 1.414 . S
C2112 C2115 1.499 . S
C2113 H2087 0.950 . S
C2113 C2112 1.414 . S
C2113 C2114 1.374 . S
C2114 H2088 0.950 . S
C2114 C2110 1.385 . S
C2114 C2113 1.374 . S
C2115 C2112 1.499 . S
C2115 C2116 1.373 . S
C2115 C2117 1.389 . S
C2116 H2089 0.950 . S
C2116 C2102 1.377 . S
C2116 C2115 1.373 . S
C2117 C2101 1.377 . S
C2117 C2115 1.389 . S
C2117 C2118 1.524 . S
C2118 C2117 1.524 . S
C2118 C2119 1.397 . S
C2118 C2123 1.363 . S
C2119 H2090 0.950 . S
C2119 C2118 1.397 . S
C2119 C2120 1.334 . S
C2120 H2091 0.950 . S
C2120 C2119 1.334 . S
C2120 C2121 1.287 . S
C2121 C2120 1.287 . S
C2121 C2122 1.524 . S
C2121 H2124 0.999 . S
C2122 H2092 0.950 . S
C2122 C2121 1.524 . S
C2122 C2123 1.415 . S
C2123 H2093 0.950 . S
C2123 C2118 1.363 . S
C2123 C2122 1.415 . S
H2124 C2121 0.999 . S
H2125 C2106 0.913 . S
H2126 C2144 0.951 . S
H2127 C2146 0.951 . S
H2128 C2148 0.950 . S
H2129 C2149 0.950 . S
H2130 C2151 0.950 . S
H2131 C2154 0.950 . S
H2132 C2155 0.950 . S
H2133 C2157 0.950 . S
H2134 C2158 0.950 . S
H2135 C2159 0.951 . S
H2136 C2161 0.951 . S
H2137 C2163 0.950 . S
H2138 C2164 0.950 . S
H2139 C2166 0.950 . S
H2140 C2169 0.950 . S
H2141 C2170 0.950 . S
H2142 C2172 0.950 . S
H2143 C2173 0.950 . S
C2144 H2126 0.951 . S
C2144 C2145 1.366 . S
C2144 C2146 1.388 . S
C2145 C2144 1.366 . S
C2145 C2149 1.385 . S
C2146 H2127 0.951 . S
C2146 C2144 1.388 . S
C2146 C2147 1.366 . S
C2147 C2146 1.366 . S
C2147 C2148 1.414 . S
C2147 C2150 1.499 . S
C2148 H2128 0.950 . S
C2148 C2147 1.414 . S
C2148 C2149 1.374 . S
C2149 H2129 0.950 . S
C2149 C2145 1.385 . S
C2149 C2148 1.374 . S
C2150 C2147 1.499 . S
C2150 C2151 1.373 . S
C2150 C2152 1.389 . S
C2151 H2130 0.950 . S
C2151 C2150 1.373 . S
C2151 C2167 1.377 . S
C2152 C2150 1.389 . S
C2152 C2153 1.524 . S
C2152 C2166 1.377 . S
C2153 C2152 1.524 . S
C2153 C2154 1.397 . S
C2153 C2158 1.363 . S
C2154 H2131 0.950 . S
C2154 C2153 1.397 . S
C2154 C2155 1.334 . S
C2155 H2132 0.950 . S
C2155 C2154 1.334 . S
C2155 C2156 1.287 . S
C2156 C2155 1.287 . S
C2156 C2157 1.524 . S
C2156 H2175 0.913 . S
C2157 H2133 0.950 . S
C2157 C2156 1.524 . S
C2157 C2158 1.415 . S
C2158 H2134 0.950 . S
C2158 C2153 1.363 . S
C2158 C2157 1.415 . S
C2159 H2135 0.951 . S
C2159 C2160 1.366 . S
C2159 C2161 1.388 . S
C2160 C2159 1.366 . S
C2160 C2164 1.385 . S
C2161 H2136 0.951 . S
C2161 C2159 1.388 . S
C2161 C2162 1.366 . S
C2162 C2161 1.366 . S
C2162 C2163 1.414 . S
C2162 C2165 1.499 . S
C2163 H2137 0.950 . S
C2163 C2162 1.414 . S
C2163 C2164 1.374 . S
C2164 H2138 0.950 . S
C2164 C2160 1.385 . S
C2164 C2163 1.374 . S
C2165 C2162 1.499 . S
C2165 C2166 1.373 . S
C2165 C2167 1.389 . S
C2166 H2139 0.950 . S
C2166 C2152 1.377 . S
C2166 C2165 1.373 . S
C2167 C2151 1.377 . S
C2167 C2165 1.389 . S
C2167 C2168 1.524 . S
C2168 C2167 1.524 . S
C2168 C2169 1.397 . S
C2168 C2173 1.363 . S
C2169 H2140 0.950 . S
C2169 C2168 1.397 . S
C2169 C2170 1.334 . S
C2170 H2141 0.950 . S
C2170 C2169 1.334 . S
C2170 C2171 1.287 . S
C2171 C2170 1.287 . S
C2171 C2172 1.524 . S
C2171 H2174 0.999 . S
C2172 H2142 0.950 . S
C2172 C2171 1.524 . S
C2172 C2173 1.415 . S
C2173 H2143 0.950 . S
C2173 C2168 1.363 . S
C2173 C2172 1.415 . S
H2174 C2171 0.999 . S
H2175 C2156 0.913 . S
C595 C4 1.147 . S
C610 C472 1.146 . S
C645 C400 1.146 . S
C660 C40 1.147 . S
C695 C436 1.146 . S
C710 C76 1.146 . S
C745 C364 1.146 . S
C760 C112 1.147 . S
C795 C148 1.147 . S
C810 C544 1.146 . S
C845 C184 1.147 . S
C860 C328 1.146 . S
C895 C508 1.146 . S
C910 C220 1.146 . S
C945 C256 1.146 . S
C960 C292 1.147 . S
C995 C158 1.593 . S
C1010 C14 1.593 . S
C1045 C50 1.593 . S
C1060 C194 1.593 . S
C1095 C86 1.594 . S
C1110 C230 1.593 . S
C1145 C266 1.594 . S
C1160 C122 1.593 . S
C1195 C302 1.594 . S
C1210 C374 1.593 . S
C1245 C338 1.593 . S
C1260 C410 1.593 . S
C1295 C518 1.593 . S
C1310 C446 1.593 . S
C1345 C482 1.593 . S
C1360 C554 1.593 . S
C1395 C183 1.118 . S
C1410 C3 1.118 . S
C1445 C39 1.118 . S
C1460 C219 1.118 . S
C1495 C75 1.118 . S
C1510 C255 1.118 . S
C1545 C147 1.118 . S
C1560 C111 1.118 . S
C1595 C146 1.318 1_545 S
C1610 C362 1.318 . S
C1645 C74 1.319 1_545 S
C1660 C290 1.318 . S
C1695 C398 1.319 . S
C1710 C218 1.318 1_565 S
C1745 C326 1.318 . S
C1760 C2 1.318 1_565 S
C1795 C291 1.117 . S
C1810 C435 1.118 . S
C1845 C363 1.118 . S
C1860 C543 1.118 . S
C1895 C471 1.118 . S
C1910 C327 1.118 . S
C1945 C399 1.118 . S
C1960 C507 1.118 . S
C1995 C506 1.318 . S
C2010 C38 1.319 . S
C2045 C470 1.318 . S
C2060 C182 1.319 . S
C2095 C542 1.318 . S
C2110 C110 1.319 . S
C2145 C434 1.319 . S
C2160 C254 1.318 . S
