# Generated by pormake.
# Topology can, (4)-cn, num edge types: 1
# Building blocks:
#     Node 0, Type 0, BuildingBlock: ICAMEG_clean_sbu_1, # of connection points: 4
#     Node 1, Type 0, BuildingBlock: ICAMEG_clean_sbu_1, # of connection points: 4
#     Node 2, Type 0, BuildingBlock: ICAMEG_clean_sbu_1, # of connection points: 4
#     Node 3, Type 0, BuildingBlock: ICAMEG_clean_sbu_1, # of connection points: 4
#     Node 4, Type 0, BuildingBlock: ICAMEG_clean_sbu_1, # of connection points: 4
#     Node 5, Type 0, BuildingBlock: ICAMEG_clean_sbu_1, # of connection points: 4
#     Node 6, Type 0, BuildingBlock: ICAMEG_clean_sbu_1, # of connection points: 4
#     Node 7, Type 0, BuildingBlock: ICAMEG_clean_sbu_1, # of connection points: 4
#     Node 8, Type 0, BuildingBlock: ICAMEG_clean_sbu_1, # of connection points: 4
#     Node 9, Type 0, BuildingBlock: ICAMEG_clean_sbu_1, # of connection points: 4
#     Node 10, Type 0, BuildingBlock: ICAMEG_clean_sbu_1, # of connection points: 4
#     Node 11, Type 0, BuildingBlock: ICAMEG_clean_sbu_1, # of connection points: 4
#     Edge 12, Type (0, 0), BuildingBlock: XUDNAN_clean_linker_2, # of connection points: 2
#     Edge 13, Type (0, 0), BuildingBlock: XUDNAN_clean_linker_2, # of connection points: 2
#     Edge 14, Type (0, 0), BuildingBlock: XUDNAN_clean_linker_2, # of connection points: 2
#     Edge 15, Type (0, 0), BuildingBlock: XUDNAN_clean_linker_2, # of connection points: 2
#     Edge 16, Type (0, 0), BuildingBlock: XUDNAN_clean_linker_2, # of connection points: 2
#     Edge 17, Type (0, 0), BuildingBlock: XUDNAN_clean_linker_2, # of connection points: 2
#     Edge 18, Type (0, 0), BuildingBlock: XUDNAN_clean_linker_2, # of connection points: 2
#     Edge 19, Type (0, 0), BuildingBlock: XUDNAN_clean_linker_2, # of connection points: 2
#     Edge 20, Type (0, 0), BuildingBlock: XUDNAN_clean_linker_2, # of connection points: 2
#     Edge 21, Type (0, 0), BuildingBlock: XUDNAN_clean_linker_2, # of connection points: 2
#     Edge 22, Type (0, 0), BuildingBlock: XUDNAN_clean_linker_2, # of connection points: 2
#     Edge 23, Type (0, 0), BuildingBlock: XUDNAN_clean_linker_2, # of connection points: 2
#     Edge 24, Type (0, 0), BuildingBlock: XUDNAN_clean_linker_2, # of connection points: 2
#     Edge 25, Type (0, 0), BuildingBlock: XUDNAN_clean_linker_2, # of connection points: 2
#     Edge 26, Type (0, 0), BuildingBlock: XUDNAN_clean_linker_2, # of connection points: 2
#     Edge 27, Type (0, 0), BuildingBlock: XUDNAN_clean_linker_2, # of connection points: 2
#     Edge 28, Type (0, 0), BuildingBlock: XUDNAN_clean_linker_2, # of connection points: 2
#     Edge 29, Type (0, 0), BuildingBlock: XUDNAN_clean_linker_2, # of connection points: 2
#     Edge 30, Type (0, 0), BuildingBlock: XUDNAN_clean_linker_2, # of connection points: 2
#     Edge 31, Type (0, 0), BuildingBlock: XUDNAN_clean_linker_2, # of connection points: 2
#     Edge 32, Type (0, 0), BuildingBlock: XUDNAN_clean_linker_2, # of connection points: 2
#     Edge 33, Type (0, 0), BuildingBlock: XUDNAN_clean_linker_2, # of connection points: 2
#     Edge 34, Type (0, 0), BuildingBlock: XUDNAN_clean_linker_2, # of connection points: 2
#     Edge 35, Type (0, 0), BuildingBlock: XUDNAN_clean_linker_2, # of connection points: 2
# Relax obj value: 0.056
# Max RMSD: 0.076
# Mean RMSD: 0.076
data_MOF--net-can--node1-ICAMEG_clean_sbu_1--edge1-XUDNAN_clean_linker_2
_symmetry_space_group_name_H-M    P1
_symmetry_Int_Tables_number       1
_symmetry_cell_setting            triclinic
loop_
_symmetry_equiv_pos_as_xyz
'x, y, z'
_cell_length_a     56.588794
_cell_length_b     56.531364
_cell_length_c     29.922614
_cell_angle_alpha  90.023822
_cell_angle_beta   89.967458
_cell_angle_gamma 119.96854
loop_
_atom_site_label
_atom_site_type_symbol
_atom_site_fract_x
_atom_site_fract_y
_atom_site_fract_z
_atom_type_partial_charge
Co0 Co 0.03377 0.38628 0.2689 0.0
Co1 Co 0.09376 0.43179 0.21473 0.0
O2 O 0.07368 0.40462 0.26156 0.0
C3 C 0.05471 0.41028 0.35784 0.0
O4 O 0.07335 0.43235 0.3376 0.0
C5 C 0.12106 0.39682 0.22069 0.0
O6 O 0.10027 0.37726 0.24214 0.0
O7 O 0.06852 0.40654 0.16737 0.0
O8 O 0.02845 0.38261 0.20295 0.0
H9 H 0.10037 0.48569 0.07723 0.0
H10 H 0.06393 0.36505 0.32039 0.0
O11 O 0.03772 0.38964 0.33535 0.0
H12 H 1.00064 0.28878 0.22397 0.0
H13 H 0.9443 0.32123 0.34218 0.0
H14 H 0.98914 0.38984 0.22323 0.0
H15 H 1.00157 0.33283 0.22197 0.0
H16 H 0.99412 0.34397 0.33153 0.0
O17 O 0.11978 0.41734 0.2056 0.0
H18 H 0.0767 0.45285 0.13818 0.0
H19 H 0.15264 0.46813 0.19114 0.0
H20 H 0.93922 0.36739 0.23243 0.0
H21 H 0.06339 0.32118 0.32401 0.0
H22 H 0.91649 0.33282 0.29228 0.0
H23 H 0.03166 0.28271 0.27539 0.0
O24 O 0.03432 0.42172 0.26725 0.0
H25 H 0.15208 0.45599 0.35298 0.0
H26 H 0.1178 0.49123 0.23396 0.0
H27 H 0.14747 0.52246 0.29273 0.0
H28 H 0.16496 0.50492 0.35274 0.0
H29 H 0.12191 0.42538 0.29423 0.0
H30 H 0.17715 0.50093 0.13056 0.0
H31 H 0.15097 0.50997 0.07312 0.0
O32 O 0.07012 0.44864 0.2235 0.0
C33 C 0.04276 0.38994 0.1674 0.0
C34 C 0.11201 0.48192 0.10205 0.0
C35 C 0.15509 0.49042 0.1319 0.0
N36 N 0.11326 0.45843 0.16806 0.0
C37 C 0.09873 0.46336 0.13666 0.0
C38 C 0.1411 0.47166 0.16596 0.0
C39 C 0.1404 0.49551 0.09973 0.0
C40 C 0.0499 0.34832 0.29944 0.0
N41 N 0.03288 0.35154 0.2709 0.0
C42 C 0.04976 0.32357 0.30149 0.0
C43 C 0.03198 0.302 0.27415 0.0
C44 C 0.01461 0.30541 0.24524 0.0
C45 C 0.01534 0.33047 0.24406 0.0
C46 C 0.95396 0.33621 0.31591 0.0
C47 C 0.97937 0.37469 0.24916 0.0
C48 C 0.98218 0.3492 0.30977 0.0
N49 N 0.99451 0.36808 0.27657 0.0
C50 C 0.95111 0.3621 0.25429 0.0
C51 C 0.93837 0.34272 0.2879 0.0
C52 C 0.04918 0.44395 0.2464 0.0
C53 C 0.14471 0.46392 0.32691 0.0
C54 C 0.12516 0.48336 0.26007 0.0
C55 C 0.14206 0.5012 0.29319 0.0
C56 C 0.15188 0.49135 0.32681 0.0
N57 N 0.11814 0.45645 0.26035 0.0
C58 C 0.12773 0.44668 0.29326 0.0
Co59 Co 0.64988 0.01778 0.74663 0.0
Co60 Co 0.66965 0.08546 0.72606 0.0
O61 O 0.67312 0.05715 0.75894 0.0
C62 C 0.64347 0.02051 0.84458 0.0
O63 O 0.64204 0.04275 0.83856 0.0
C64 C 0.73095 0.11048 0.74313 0.0
O65 O 0.72747 0.0894 0.76663 0.0
O66 O 0.67207 0.06946 0.66762 0.0
O67 O 0.65045 0.02448 0.68115 0.0
H68 H 0.63031 0.11823 0.6069 0.0
H69 H 0.69949 0.03573 0.80142 0.0
O70 O 0.64795 0.00899 0.81174 0.0
H71 H 0.71222 0.99105 0.66936 0.0
H72 H 0.61905 0.91798 0.76605 0.0
H73 H 0.60203 0.98496 0.68838 0.0
H74 H 0.67036 0.99382 0.67813 0.0
H75 H 0.64819 0.96728 0.78053 0.0
O76 O 0.71072 0.11078 0.7247 0.0
H77 H 0.63531 0.08387 0.65021 0.0
H78 H 0.69693 0.14643 0.72998 0.0
H79 H 0.57259 0.93588 0.67252 0.0
H80 H 0.7416 0.03317 0.79421 0.0
H81 H 0.58102 0.90201 0.71152 0.0
H82 H 0.74819 0.01077 0.72772 0.0
O83 O 0.61644 0.02051 0.75333 0.0
H84 H 0.69334 0.11507 0.88711 0.0
H85 H 0.63485 0.10735 0.75974 0.0
H86 H 0.62961 0.12588 0.83099 0.0
H87 H 0.65916 0.1301 0.89537 0.0
H88 H 0.69734 0.09602 0.81585 0.0
H89 H 0.69283 0.18147 0.68715 0.0
H90 H 0.65921 0.16743 0.62529 0.0
O91 O 0.62868 0.06216 0.72655 0.0
C92 C 0.66116 0.04469 0.65448 0.0
C93 C 0.64497 0.12459 0.63387 0.0
C94 C 0.6801 0.16009 0.67885 0.0
N95 N 0.66623 0.11309 0.69279 0.0
C96 C 0.64784 0.10523 0.6586 0.0
C97 C 0.68241 0.14016 0.70286 0.0
C98 C 0.66122 0.1522 0.64417 0.0
C99 C 0.70217 0.02583 0.77253 0.0
N100 N 0.68254 0.01503 0.74023 0.0
C101 C 0.72608 0.0245 0.76857 0.0
C102 C 0.72977 0.01195 0.73123 0.0
C103 C 0.70961 1.00091 0.69845 0.0
C104 C 0.68599 1.00266 0.70351 0.0
C105 C 0.61521 0.93255 0.74877 0.0
C106 C 0.60595 0.97036 0.70527 0.0
C107 C 0.63162 0.96049 0.75689 0.0
N108 N 0.62698 0.97901 0.735 0.0
C109 C 0.58915 0.94259 0.69625 0.0
C110 C 0.59388 0.9236 0.71816 0.0
C111 C 0.61078 0.03871 0.7412 0.0
C112 C 0.68057 0.11366 0.85915 0.0
C113 C 0.64781 0.10904 0.78739 0.0
C114 C 0.64476 0.11963 0.82776 0.0
C115 C 0.66133 0.12199 0.86383 0.0
N116 N 0.66694 0.10114 0.7827 0.0
C117 C 0.68301 0.10315 0.81824 0.0
Co118 Co 0.63996 0.65031 0.24387 0.0
Co119 Co 0.59113 0.66945 0.22718 0.0
O120 O 0.62299 0.6724 0.2586 0.0
C121 C 0.62779 0.63987 0.34036 0.0
O122 O 0.60458 0.63914 0.33301 0.0
C123 C 0.63153 0.72991 0.22697 0.0
O124 O 0.65134 0.72486 0.21841 0.0
O125 O 0.60875 0.6724 0.16745 0.0
O126 O 0.63553 0.65416 0.17888 0.0
H127 H 0.51801 0.63283 0.10969 0.0
H128 H 0.66863 0.69738 0.30515 0.0
O129 O 0.64476 0.64519 0.30872 0.0
H130 H 0.73067 0.71789 0.1769 0.0
H131 H 0.70967 0.62036 0.26105 0.0
H132 H 0.62804 0.60607 0.17893 0.0
H133 H 0.6865 0.67498 0.17948 0.0
H134 H 0.68805 0.6478 0.27886 0.0
O135 O 0.60702 0.71029 0.22967 0.0
H136 H 0.55764 0.63674 0.15064 0.0
H137 H 0.55746 0.69646 0.23659 0.0
H138 H 0.64921 0.57843 0.15963 0.0
H139 H 0.71275 0.74046 0.30413 0.0
H140 H 0.69033 0.58548 0.20087 0.0
H141 H 0.74407 0.75097 0.23958 0.0
O142 O 0.60407 0.616 0.24519 0.0
H143 H 0.58904 0.69582 0.38697 0.0
H144 H 0.53564 0.6332 0.26497 0.0
H145 H 0.51421 0.6283 0.33873 0.0
H146 H 0.54097 0.65982 0.40037 0.0
H147 H 0.60977 0.69965 0.31288 0.0
H148 H 0.51804 0.69342 0.19629 0.0
H149 H 0.49797 0.66133 0.13246 0.0
O150 O 0.57345 0.62853 0.22588 0.0
C151 C 0.62428 0.66359 0.15322 0.0
C152 C 0.52654 0.64684 0.13751 0.0
C153 C 0.52658 0.68088 0.18606 0.0
N154 N 0.55978 0.6667 0.19607 0.0
C155 C 0.54893 0.64909 0.16089 0.0
C156 C 0.54898 0.68259 0.20865 0.0
C157 C 0.51532 0.66286 0.15027 0.0
C158 C 0.68228 0.70172 0.27717 0.0
N159 N 0.67506 0.68366 0.24253 0.0
C160 C 0.70717 0.72618 0.27668 0.0
C161 C 0.72472 0.73208 0.24042 0.0
C162 C 0.7172 0.71354 0.20521 0.0
C163 C 0.69213 0.68931 0.20681 0.0
C164 C 0.6918 0.61713 0.24278 0.0
C165 C 0.64603 0.60939 0.19682 0.0
C166 C 0.67943 0.63257 0.25278 0.0
N167 N 0.65694 0.62872 0.22967 0.0
C168 C 0.65788 0.59361 0.18584 0.0
C169 C 0.68094 0.59757 0.20901 0.0
C170 C 0.57991 0.61049 0.23564 0.0
C171 C 0.57717 0.68196 0.3604 0.0
C172 C 0.54748 0.64678 0.29175 0.0
C173 C 0.5352 0.64403 0.33337 0.0
C174 C 0.55021 0.66174 0.36791 0.0
N175 N 0.57399 0.66653 0.28471 0.0
C176 C 0.58878 0.68409 0.31833 0.0
Co177 Co 0.98671 0.63642 0.74717 0.0
Co178 Co 0.92013 0.58753 0.72401 0.0
O179 O 0.94739 0.61913 0.75774 0.0
C180 C 0.98264 0.62414 0.8436 0.0
O181 O 0.96347 0.59918 0.83384 0.0
C182 C 0.89967 0.62738 0.72118 0.0
O183 O 0.92447 0.64702 0.71182 0.0
O184 O 0.93646 0.60646 0.66582 0.0
O185 O 0.98115 0.63145 0.6815 0.0
H186 H 0.88841 0.5161 0.6038 0.0
H187 H 0.96539 0.66519 0.80226 0.0
O188 O 0.99358 0.64192 0.81285 0.0
H189 H 0.01179 0.7264 0.67488 0.0
H190 H 0.0851 0.70721 0.77317 0.0
H191 H 0.0219 0.62439 0.68908 0.0
H192 H 0.01088 0.6825 0.68184 0.0
H193 H 0.03541 0.68517 0.78522 0.0
O194 O 0.89476 0.60289 0.72502 0.0
H195 H 0.92236 0.55554 0.64745 0.0
H196 H 0.85939 0.55302 0.7282 0.0
H197 H 0.07139 0.64595 0.67556 0.0
H198 H 0.96604 0.70906 0.79682 0.0
H199 H 0.10336 0.68767 0.7178 0.0
H200 H 0.98929 0.73996 0.73269 0.0
O201 O 0.98525 0.60063 0.75162 0.0
H202 H 0.88753 0.58254 0.88186 0.0
H203 H 0.9002 0.53135 0.75987 0.0
H204 H 0.88209 0.5087 0.83227 0.0
H205 H 0.87557 0.53435 0.89393 0.0
H206 H 0.90606 0.6045 0.80911 0.0
H207 H 0.82475 0.51379 0.68512 0.0
H208 H 0.83921 0.49497 0.62256 0.0
O209 O 0.94402 0.57045 0.72417 0.0
C210 C 0.96139 0.62136 0.65392 0.0
C211 C 0.88186 0.52407 0.63106 0.0
C212 C 0.84613 0.5228 0.67665 0.0
N213 N 0.89289 0.55646 0.69048 0.0
C214 C 0.901 0.54634 0.65595 0.0
C215 C 0.86584 0.54509 0.70081 0.0
C216 C 0.85426 0.51224 0.64157 0.0
C217 C 0.97578 0.67866 0.7745 0.0
N218 N 0.98816 0.67134 0.74253 0.0
C219 C 0.97598 0.70342 0.77149 0.0
C220 C 0.98899 0.72072 0.73546 0.0
C221 C 1.0016 0.71312 0.70299 0.0
C222 C 1.00095 0.68819 0.70705 0.0
C223 C 0.07137 0.68908 0.75448 0.0
C224 C 0.03567 0.64265 0.70735 0.0
C225 C 0.04322 0.67648 0.76123 0.0
N226 N 0.02576 0.65368 0.73753 0.0
C227 C 0.06368 0.65472 0.69966 0.0
C228 C 0.0816 0.67811 0.7234 0.0
C229 C 0.96769 0.57667 0.7387 0.0
C230 C 0.89032 0.57116 0.8553 0.0
C231 C 0.8978 0.54273 0.78666 0.0
C232 C 0.88733 0.52975 0.82752 0.0
C233 C 0.88364 0.54413 0.86206 0.0
N234 N 0.90448 0.5693 0.78033 0.0
C235 C 0.90075 0.58347 0.81397 0.0
Co236 Co 0.36392 0.98417 0.27909 0.0
Co237 Co 0.34411 0.92238 0.22674 0.0
O238 O 0.34064 0.94444 0.27419 0.0
C239 C 0.36827 0.96417 0.36852 0.0
O240 O 0.3697 0.94416 0.34887 0.0
C241 C 0.28451 0.90495 0.22937 0.0
O242 O 0.29092 0.93067 0.23173 0.0
O243 O 0.34421 0.94758 0.17894 0.0
O244 O 0.36348 0.98833 0.21318 0.0
H245 H 0.38351 0.90772 0.08601 0.0
H246 H 0.3137 0.95598 0.33374 0.0
O247 O 0.36536 0.98147 0.34557 0.0
H248 H 0.30197 0.02127 0.24043 0.0
H249 H 0.39548 0.0762 0.34916 0.0
H250 H 0.41146 0.02634 0.22855 0.0
H251 H 0.34394 0.01836 0.23523 0.0
H252 H 0.36595 0.02635 0.34149 0.0
O253 O 0.30316 0.89885 0.22379 0.0
H254 H 0.37936 0.93479 0.14703 0.0
H255 H 0.31512 0.86273 0.2052 0.0
H256 H 0.44131 0.07623 0.23473 0.0
H257 H 0.27149 0.95839 0.34039 0.0
H258 H 0.43341 0.10149 0.2954 0.0
H259 H 0.2654 0.99116 0.29338 0.0
O260 O 0.39742 0.98125 0.2739 0.0
H261 H 0.31095 0.86593 0.36684 0.0
H262 H 0.37743 0.89578 0.24335 0.0
H263 H 0.37864 0.86584 0.30212 0.0
H264 H 0.34513 0.85061 0.36437 0.0
H265 H 0.31088 0.89635 0.30792 0.0
H266 H 0.31847 0.83491 0.14471 0.0
H267 H 0.35292 0.8574 0.08464 0.0
O268 O 0.38509 0.94416 0.23081 0.0
C269 C 0.35474 0.97358 0.17821 0.0
C270 C 0.36848 0.89768 0.11208 0.0
C271 C 0.33194 0.85682 0.14498 0.0
N272 N 0.34714 0.90036 0.17977 0.0
C273 C 0.36608 0.91289 0.14677 0.0
C274 C 0.33008 0.8727 0.17908 0.0
C275 C 0.35129 0.86945 0.1113 0.0
C276 C 0.31129 0.97047 0.31349 0.0
N277 N 0.33127 0.98704 0.28418 0.0
C278 C 0.28731 0.97166 0.31726 0.0
C279 C 0.28388 0.99002 0.29083 0.0
C280 C 0.30438 0.0069 0.26107 0.0
C281 C 0.32806 1.00509 0.25814 0.0
C282 C 0.3991 0.06543 0.32253 0.0
C283 C 0.40779 0.03721 0.25489 0.0
C284 C 0.38249 0.03719 0.31808 0.0
N285 N 0.38689 0.02346 0.28444 0.0
C286 C 0.4248 0.06545 0.25828 0.0
C287 C 0.42037 0.07961 0.29235 0.0
C288 C 0.40289 0.96518 0.2521 0.0
C289 C 0.32567 0.87244 0.33992 0.0
C290 C 0.36304 0.88954 0.27063 0.0
C291 C 0.36369 0.87243 0.30366 0.0
C292 C 0.34487 0.86387 0.33854 0.0
N293 N 0.34428 0.89802 0.27235 0.0
C294 C 0.32568 0.8896 0.30635 0.0
Co295 Co 0.37956 0.35831 0.74239 0.0
Co296 Co 0.42686 0.33749 0.72421 0.0
O297 O 0.39522 0.33493 0.75591 0.0
C298 C 0.39001 0.36616 0.83968 0.0
O299 O 0.41299 0.36628 0.83302 0.0
C300 C 0.38564 0.27719 0.72356 0.0
O301 O 0.36604 0.28264 0.71569 0.0
O302 O 0.40932 0.3352 0.66471 0.0
O303 O 0.3849 0.35592 0.67721 0.0
H304 H 0.50023 0.37374 0.607 0.0
H305 H 0.34859 0.30991 0.80016 0.0
O306 O 0.37378 0.36201 0.80737 0.0
H307 H 0.28935 0.29472 0.66982 0.0
H308 H 0.31193 0.39092 0.76018 0.0
H309 H 0.39428 0.40473 0.68083 0.0
H310 H 0.3342 0.33665 0.67578 0.0
H311 H 0.33174 0.36166 0.77654 0.0
O312 O 0.41029 0.29655 0.72604 0.0
H313 H 0.46073 0.37021 0.64791 0.0
H314 H 0.45967 0.30952 0.73291 0.0
H315 H 0.37496 0.43421 0.66302 0.0
H316 H 0.30374 0.26777 0.79577 0.0
H317 H 0.33349 0.4274 0.70286 0.0
H318 H 0.27384 0.25995 0.73015 0.0
O319 O 0.41598 0.39174 0.74661 0.0
H320 H 0.42806 0.3095 0.88323 0.0
H321 H 0.48249 0.37271 0.76264 0.0
H322 H 0.5036 0.37661 0.83629 0.0
H323 H 0.47632 0.34476 0.89724 0.0
H324 H 0.40766 0.30674 0.80926 0.0
H325 H 0.49891 0.31214 0.69258 0.0
H326 H 0.51956 0.34454 0.62928 0.0
O327 O 0.44534 0.37855 0.72321 0.0
C328 C 0.39506 0.3456 0.65102 0.0
C329 C 0.49144 0.35958 0.63458 0.0
C330 C 0.49068 0.32498 0.68257 0.0
N331 N 0.45797 0.33978 0.69287 0.0
C332 C 0.46912 0.35755 0.65794 0.0
C333 C 0.46837 0.32351 0.70516 0.0
C334 C 0.50226 0.34318 0.64707 0.0
C335 C 0.33555 0.30674 0.77173 0.0
N336 N 0.34394 0.32573 0.73838 0.0
C337 C 0.31024 0.28281 0.76933 0.0
C338 C 0.29349 0.27841 0.73247 0.0
C339 C 0.3022 0.2979 0.69858 0.0
C340 C 0.32765 0.32157 0.70208 0.0
C341 C 0.32996 0.39404 0.74251 0.0
C342 C 0.37611 0.4015 0.69807 0.0
C343 C 0.3413 0.37757 0.75169 0.0
N344 N 0.36398 0.3813 0.72932 0.0
C345 C 0.36532 0.41833 0.68795 0.0
C346 C 0.34207 0.41451 0.71034 0.0
C347 C 0.43983 0.39693 0.73542 0.0
C348 C 0.44015 0.32351 0.85697 0.0
C349 C 0.4704 0.35908 0.78911 0.0
C350 C 0.48251 0.36122 0.83068 0.0
C351 C 0.46722 0.34332 0.86483 0.0
N352 N 0.4438 0.33973 0.7817 0.0
C353 C 0.42874 0.32199 0.81495 0.0
Co354 Co 0.633 0.97971 0.24737 0.0
Co355 Co 0.5892 0.91843 0.29922 0.0
O356 O 0.61576 0.93998 0.25266 0.0
C357 C 0.61007 0.96 0.15719 0.0
O358 O 0.5882 0.9402 0.17614 0.0
C359 C 0.63059 0.90006 0.30025 0.0
O360 O 0.65002 0.92574 0.29876 0.0
O361 O 0.61379 0.94326 0.34774 0.0
O362 O 0.63644 0.98389 0.3134 0.0
H363 H 0.53283 0.90499 0.43662 0.0
H364 H 0.65502 0.95047 0.19537 0.0
O365 O 0.63005 0.97703 0.18078 0.0
H366 H 0.73086 0.01472 0.2915 0.0
H367 H 0.69615 0.07129 0.17829 0.0
H368 H 0.62748 0.02252 0.29566 0.0
H369 H 0.6865 0.01307 0.29355 0.0
H370 H 0.67487 0.02136 0.18642 0.0
O371 O 0.60579 0.89415 0.30393 0.0
H372 H 0.56562 0.93163 0.37715 0.0
H373 H 0.55702 0.85885 0.3204 0.0
H374 H 0.64846 0.07251 0.289 0.0
H375 H 0.69914 0.9516 0.19189 0.0
H376 H 0.68304 0.09722 0.22995 0.0
H377 H 0.7374 0.98384 0.24033 0.0
O378 O 0.59692 0.97762 0.25014 0.0
H379 H 0.56724 0.86163 0.15969 0.0
H380 H 0.52982 0.89349 0.27905 0.0
H381 H 0.49945 0.86412 0.21915 0.0
H382 H 0.51813 0.84787 0.15895 0.0
H383 H 0.59697 0.89154 0.21969 0.0
H384 H 0.52427 0.83144 0.3794 0.0
H385 H 0.5119 0.85451 0.43796 0.0
O386 O 0.57105 0.94122 0.29368 0.0
C387 C 0.6296 0.96918 0.34849 0.0
C388 C 0.53799 0.89469 0.41121 0.0
C389 C 0.53323 0.85342 0.37914 0.0
N390 N 0.5631 0.89681 0.3452 0.0
C391 C 0.55649 0.90966 0.37739 0.0
C392 C 0.55185 0.86906 0.34589 0.0
C393 C 0.52628 0.86637 0.41197 0.0
C394 C 0.67167 0.96473 0.21622 0.0
N395 N 0.6682 0.98171 0.24459 0.0
C396 C 0.69656 0.96521 0.21424 0.0
C397 C 0.71801 0.98326 0.24149 0.0
C398 C 0.71434 1.00057 0.27024 0.0
C399 C 0.68914 0.99948 0.27139 0.0
C400 C 0.68115 0.06076 0.20423 0.0
C401 C 0.64267 0.03315 0.27009 0.0
C402 C 0.66899 0.03248 0.20895 0.0
N403 N 0.65011 0.01906 0.24172 0.0
C404 C 0.65441 0.06145 0.26639 0.0
C405 C 0.67379 0.0753 0.23323 0.0
C406 C 0.57503 0.96232 0.27169 0.0
C407 C 0.55886 0.86859 0.18569 0.0
C408 C 0.53817 0.88688 0.25265 0.0
C409 C 0.52084 0.87006 0.21898 0.0
C410 C 0.53132 0.86091 0.18527 0.0
N411 N 0.5652 0.89448 0.25275 0.0
C412 C 0.57558 0.88547 0.21989 0.0
Co413 Co 0.6521 0.62888 0.74403 0.0
Co414 Co 0.6707 0.58617 0.79698 0.0
O415 O 0.67509 0.6122 0.74984 0.0
C416 C 0.64894 0.60498 0.65469 0.0
O417 O 0.64718 0.58344 0.67444 0.0
C418 C 0.7302 0.62837 0.79684 0.0
O419 O 0.7237 0.64759 0.79374 0.0
O420 O 0.66989 0.61088 0.84477 0.0
O421 O 0.65161 0.63309 0.80992 0.0
H422 H 0.62867 0.53074 0.93553 0.0
H423 H 0.70304 0.65112 0.69118 0.0
O424 O 0.6516 0.62513 0.67757 0.0
H425 H 0.71395 0.7275 0.78549 0.0
H426 H 0.62211 0.69025 0.67271 0.0
H427 H 0.60384 0.62332 0.79246 0.0
H428 H 0.67176 0.68273 0.78895 0.0
H429 H 0.65131 0.66965 0.68162 0.0
O430 O 0.71155 0.60358 0.80196 0.0
H431 H 0.63398 0.56257 0.87486 0.0
H432 H 0.69933 0.55536 0.81991 0.0
H433 H 0.57428 0.64363 0.78503 0.0
H434 H 0.74548 0.69565 0.68631 0.0
H435 H 0.58334 0.67734 0.72478 0.0
H436 H 0.75117 0.73419 0.73382 0.0
O437 O 0.61846 0.59256 0.74783 0.0
H438 H 0.70624 0.56442 0.65804 0.0
H439 H 0.63817 0.52632 0.77904 0.0
H440 H 0.63797 0.49579 0.71999 0.0
H441 H 0.67231 0.51482 0.65899 0.0
H442 H 0.70521 0.59426 0.71716 0.0
H443 H 0.69485 0.52361 0.88013 0.0
H444 H 0.65924 0.51102 0.9384 0.0
O445 O 0.62976 0.56704 0.79092 0.0
C446 C 0.65971 0.62664 0.84515 0.0
C447 C 0.6442 0.53599 0.91024 0.0
C448 C 0.68138 0.53204 0.8792 0.0
N449 N 0.66681 0.56068 0.84372 0.0
C450 C 0.64725 0.55394 0.87575 0.0
C451 C 0.68387 0.5501 0.84526 0.0
C452 C 0.66138 0.52497 0.91187 0.0
C453 C 0.70526 0.66788 0.71162 0.0
N454 N 0.68493 0.66435 0.74023 0.0
C455 C 0.72938 0.69301 0.70886 0.0
C456 C 0.73258 0.71461 0.73559 0.0
C457 C 0.71172 0.71086 0.76462 0.0
C458 C 0.6879 0.68543 0.76655 0.0
C459 C 0.61799 0.67563 0.69916 0.0
C460 C 0.60801 0.63811 0.76634 0.0
C461 C 0.63442 0.66385 0.70432 0.0
N462 N 0.62939 0.64544 0.73774 0.0
C463 C 0.59116 0.64948 0.76222 0.0
C464 C 0.59624 0.66838 0.72838 0.0
C465 C 0.61239 0.57068 0.76904 0.0
C466 C 0.69113 0.55589 0.68437 0.0
C467 C 0.6528 0.53481 0.75218 0.0
C468 C 0.65278 0.51739 0.71905 0.0
C469 C 0.67207 0.52807 0.68489 0.0
N470 N 0.67138 0.5621 0.75127 0.0
C471 C 0.69049 0.57268 0.71804 0.0
Co472 Co 0.03597 0.65943 0.25253 0.0
Co473 Co 0.09553 0.6754 0.30871 0.0
O474 O 0.07553 0.68034 0.25957 0.0
C475 C 0.02917 0.6372 0.16167 0.0
O476 O 0.01391 0.61313 0.18003 0.0
C477 C 0.11457 0.73526 0.30737 0.0
O478 O 0.08897 0.72924 0.3058 0.0
O479 O 0.06996 0.6764 0.3547 0.0
O480 O 0.0303 0.65982 0.31785 0.0
H481 H 0.10469 0.63357 0.45098 0.0
H482 H 0.06798 0.70944 0.19849 0.0
O483 O 0.04093 0.65848 0.18623 0.0
H484 H 1.0052 0.72702 0.28809 0.0
H485 H 0.94639 0.63585 0.18003 0.0
H486 H 0.99105 0.61204 0.29917 0.0
H487 H 1.00421 0.68305 0.29404 0.0
H488 H 0.99633 0.66226 0.18969 0.0
O489 O 0.12027 0.71625 0.31211 0.0
H490 H 0.07992 0.63944 0.38809 0.0
H491 H 0.15443 0.70226 0.33404 0.0
H492 H 0.94106 0.58512 0.29076 0.0
H493 H 0.06945 0.7536 0.19111 0.0
H494 H 0.91841 0.59697 0.23082 0.0
H495 H 0.03796 0.76266 0.23624 0.0
O496 O 0.0365 0.62468 0.2593 0.0
H497 H 0.15505 0.70686 0.17179 0.0
H498 H 0.12032 0.64013 0.295 0.0
H499 H 0.15078 0.63764 0.23864 0.0
H500 H 0.16852 0.67131 0.17657 0.0
H501 H 0.12405 0.70818 0.22835 0.0
H502 H 0.17999 0.69719 0.39647 0.0
H503 H 0.1551 0.66257 0.45542 0.0
O504 O 0.0722 0.63449 0.3041 0.0
C505 C 0.04423 0.66738 0.3537 0.0
C506 C 0.11578 0.64866 0.42542 0.0
C507 C 0.15803 0.68441 0.39487 0.0
N508 N 0.11572 0.67104 0.3573 0.0
C509 C 0.10187 0.65203 0.38967 0.0
C510 C 0.14343 0.68724 0.35967 0.0
C511 C 0.14406 0.66496 0.42792 0.0
C512 C 0.05399 0.7131 0.21786 0.0
N513 N 0.03595 0.69361 0.24652 0.0
C514 C 0.05501 0.7382 0.2137 0.0
C515 C 0.03738 0.74329 0.2391 0.0
C516 C 0.01902 0.72332 0.26823 0.0
C517 C 0.01862 0.69848 0.27159 0.0
C518 C 0.95602 0.63051 0.20632 0.0
C519 C 0.98134 0.61737 0.27308 0.0
C520 C 0.98428 0.6454 0.21197 0.0
N521 N 0.99659 0.63876 0.24507 0.0
C522 C 0.95302 0.60204 0.26845 0.0
C523 C 0.94033 0.6087 0.23481 0.0
C524 C 0.05109 0.61763 0.28189 0.0
C525 C 0.14741 0.69204 0.19861 0.0
C526 C 0.12755 0.65452 0.26772 0.0
C527 C 0.14499 0.65317 0.23607 0.0
C528 C 0.15495 0.67208 0.2013 0.0
N529 N 0.12016 0.67408 0.26482 0.0
C530 C 0.12987 0.6927 0.23081 0.0
Co531 Co 0.37911 0.01923 0.77956 0.0
Co532 Co 0.42642 0.0875 0.79767 0.0
O533 O 0.39492 0.0583 0.76585 0.0
C534 C 0.3907 0.02174 0.68251 0.0
O535 O 0.41362 0.0446 0.68951 0.0
C536 C 0.38492 0.10632 0.79764 0.0
O537 O 0.36518 0.08113 0.8041 0.0
O538 O 0.40893 0.07206 0.85719 0.0
O539 O 0.38363 0.02697 0.84481 0.0
H540 H 0.49952 0.12463 0.9152 0.0
H541 H 0.34885 0.03659 0.71999 0.0
O542 O 0.37413 0.00974 0.71449 0.0
H543 H 0.288 0.99262 0.84874 0.0
H544 H 0.31172 0.919 0.76105 0.0
H545 H 0.39296 0.98754 0.84262 0.0
H546 H 0.33293 0.99558 0.84475 0.0
H547 H 0.33176 0.96806 0.74442 0.0
O548 O 0.40961 0.11167 0.79621 0.0
H549 H 0.46038 0.08863 0.8737 0.0
H550 H 0.45878 0.14839 0.78976 0.0
H551 H 0.37338 0.93873 0.86072 0.0
H552 H 0.30394 0.03383 0.7224 0.0
H553 H 0.33247 0.90407 0.81976 0.0
H554 H 0.27322 0.01179 0.78722 0.0
O555 O 0.41557 0.02219 0.77683 0.0
H556 H 0.42715 0.11623 0.63849 0.0
H557 H 0.48239 0.10954 0.75974 0.0
H558 H 0.50348 0.127 0.68611 0.0
H559 H 0.47578 0.13053 0.62483 0.0
H560 H 0.40681 0.09833 0.71243 0.0
H561 H 0.49764 0.18503 0.83069 0.0
H562 H 0.51839 0.17323 0.89377 0.0
O563 O 0.44519 0.0652 0.79805 0.0
C564 C 0.3941 0.04748 0.87093 0.0
C565 C 0.4907 0.13002 0.88771 0.0
C566 C 0.48962 0.16393 0.84033 0.0
N567 N 0.45737 0.11637 0.82923 0.0
C568 C 0.46859 0.10973 0.86402 0.0
C569 C 0.46752 0.14309 0.8174 0.0
C570 C 0.50126 0.15729 0.8757 0.0
C571 C 0.33546 0.02674 0.74807 0.0
N572 N 0.34345 0.01619 0.78208 0.0
C573 C 0.31012 0.02534 0.74936 0.0
C574 C 0.29291 0.01301 0.78577 0.0
C575 C 0.3012 1.00227 0.82032 0.0
C576 C 0.3267 1.00409 0.81794 0.0
C577 C 0.32951 0.93391 0.7792 0.0
C578 C 0.37504 0.9726 0.82487 0.0
C579 C 0.34098 0.96171 0.76987 0.0
N580 N 0.36335 0.98067 0.79283 0.0
C581 C 0.3641 0.94498 0.83517 0.0
C582 C 0.34116 0.92555 0.81215 0.0
C583 C 0.43953 0.04109 0.78692 0.0
C584 C 0.43942 0.11473 0.66487 0.0
C585 C 0.47012 0.11053 0.73307 0.0
C586 C 0.48222 0.12069 0.69153 0.0
C587 C 0.46669 0.12271 0.65721 0.0
N588 N 0.44331 0.10251 0.74025 0.0
C589 C 0.42802 0.10467 0.70686 0.0
Co590 Co 0.3652 0.38064 0.24352 0.0
Co591 Co 0.35381 0.42767 0.29748 0.0
O592 O 0.34561 0.40084 0.2497 0.0
C593 C 0.36926 0.40326 0.15307 0.0
O594 O 0.37513 0.42654 0.1718 0.0
C595 C 0.29159 0.39619 0.29161 0.0
O596 O 0.2904 0.37248 0.28799 0.0
O597 O 0.34813 0.39966 0.34412 0.0
O598 O 0.36725 0.37806 0.30975 0.0
H599 H 0.39832 0.47661 0.44002 0.0
H600 H 0.31315 0.36137 0.19524 0.0
O601 O 0.36398 0.38258 0.17691 0.0
H602 H 0.29821 0.28476 0.29267 0.0
H603 H 0.38508 0.31127 0.17407 0.0
H604 H 0.41296 0.38306 0.28871 0.0
H605 H 0.34265 0.3274 0.29173 0.0
H606 H 0.35981 0.33602 0.18349 0.0
O607 O 0.3143 0.41784 0.29919 0.0
H608 H 0.38853 0.44402 0.37843 0.0
H609 H 0.33492 0.46726 0.31927 0.0
H610 H 0.43864 0.3586 0.28074 0.0
H611 H 0.26843 0.31897 0.19471 0.0
H612 H 0.42474 0.32244 0.22306 0.0
H613 H 0.26073 0.28032 0.2438 0.0
O614 O 0.40066 0.41535 0.24334 0.0
H615 H 0.33258 0.46091 0.15543 0.0
H616 H 0.39533 0.48652 0.28347 0.0
H617 H 0.40394 0.52059 0.22509 0.0
H618 H 0.37232 0.5079 0.16051 0.0
H619 H 0.32515 0.42733 0.21409 0.0
H620 H 0.34403 0.49998 0.38038 0.0
H621 H 0.37602 0.50491 0.44123 0.0
O622 O 0.39395 0.44009 0.29509 0.0
C623 C 0.35828 0.38385 0.34476 0.0
C624 C 0.38441 0.47472 0.41362 0.0
C625 C 0.3539 0.48779 0.3802 0.0
N626 N 0.36129 0.45381 0.34513 0.0
C627 C 0.37882 0.45633 0.3786 0.0
C628 C 0.34874 0.46914 0.34575 0.0
C629 C 0.37186 0.49056 0.41431 0.0
C630 C 0.30999 0.34455 0.21642 0.0
N631 N 0.33048 0.34684 0.24346 0.0
C632 C 0.28461 0.32063 0.2161 0.0
C633 C 0.28029 0.29897 0.2437 0.0
C634 C 0.3013 0.30146 0.27116 0.0
C635 C 0.3264 0.3257 0.27063 0.0
C636 C 0.39129 0.32694 0.19941 0.0
C637 C 0.40666 0.3672 0.26376 0.0
C638 C 0.37709 0.34106 0.20486 0.0
N639 N 0.38476 0.3608 0.2369 0.0
C640 C 0.42133 0.35348 0.25931 0.0
C641 C 0.41354 0.33321 0.22691 0.0
C642 C 0.40944 0.43619 0.26866 0.0
C643 C 0.3465 0.4667 0.1834 0.0
C644 C 0.38173 0.48071 0.25527 0.0
C645 C 0.38658 0.50016 0.22241 0.0
C646 C 0.36882 0.49305 0.18624 0.0
N647 N 0.35986 0.45486 0.25226 0.0
C648 C 0.34234 0.44779 0.21687 0.0
Co649 Co 1.00133 0.37256 0.77023 0.0
Co650 Co 0.9321 0.34682 0.78376 0.0
O651 O 0.9633 0.34752 0.75388 0.0
C652 C 1.0003 0.38169 0.6732 0.0
O653 O 0.97702 0.38104 0.67928 0.0
C654 C 0.89596 0.2869 0.80355 0.0
O655 O 0.89555 0.29275 0.84594 0.0
O656 O 0.94628 0.34362 0.8439 0.0
O657 O 0.99169 0.36827 0.8347 0.0
H658 H 0.88651 0.37305 0.90219 0.0
H659 H 0.98823 0.32556 0.71119 0.0
O660 O 0.01241 0.37791 0.70587 0.0
H661 H 0.03326 0.31311 0.8429 0.0
H662 H 0.10306 0.41242 0.75903 0.0
H663 H 0.02868 0.41806 0.83502 0.0
H664 H 0.02653 0.35288 0.83755 0.0
H665 H 0.05504 0.38081 0.73901 0.0
O666 O 0.91114 0.30579 0.77615 0.0
H667 H 0.92541 0.37388 0.86343 0.0
H668 H 0.87176 0.31719 0.76731 0.0
H669 H 0.07637 0.44982 0.8565 0.0
H670 H 0.99476 0.28557 0.71498 0.0
H671 H 0.11396 0.44713 0.81837 0.0
H672 H 0.0174 0.27916 0.78124 0.0
O673 O 0.9954 0.40424 0.76649 0.0
H674 H 0.91022 0.32452 0.62097 0.0
H675 H 0.90962 0.38063 0.74651 0.0
H676 H 0.89455 0.38634 0.67208 0.0
H677 H 0.89469 0.35805 0.60863 0.0
H678 H 0.92573 0.31997 0.69579 0.0
H679 H 0.83229 0.31565 0.80513 0.0
H680 H 0.83955 0.34376 0.87305 0.0
O681 O 0.95211 0.38795 0.78923 0.0
C682 C 0.97066 0.3556 0.85934 0.0
C683 C 0.88308 0.3607 0.87263 0.0
C684 C 0.85265 0.32848 0.81817 0.0
N685 N 0.90088 0.34558 0.81321 0.0
C686 C 0.90503 0.36109 0.85055 0.0
C687 C 0.87508 0.32941 0.79694 0.0
C688 C 0.85674 0.34426 0.85627 0.0
C689 C 0.99824 0.32296 0.73998 0.0
N690 N 1.0071 0.34157 0.77397 0.0
C691 C 1.00182 0.30026 0.74201 0.0
C692 C 0.0145 0.29666 0.77922 0.0
C693 C 0.02339 0.31569 0.81384 0.0
C694 C 0.01945 0.33813 0.81067 0.0
C695 C 0.08686 0.41376 0.77596 0.0
C696 C 0.04491 0.41664 0.81848 0.0
C697 C 0.05964 0.39596 0.76468 0.0
N698 N 0.03907 0.39743 0.78611 0.0
C699 C 0.07188 0.43474 0.83069 0.0
C700 C 0.09296 0.43323 0.80926 0.0
C701 C 0.97559 0.40763 0.77794 0.0
C702 C 0.91006 0.33696 0.64834 0.0
C703 C 0.91017 0.3686 0.719 0.0
C704 C 0.90137 0.37173 0.67696 0.0
C705 C 0.9014 0.35581 0.64141 0.0
N706 N 0.9188 0.3502 0.72554 0.0
C707 C 0.91871 0.3344 0.69086 0.0
H708 H 0.06243 0.4039 0.08064 0.0
H709 H 0.98865 0.35232 0.15626 0.0
H710 H 0.96242 0.33715 0.0865 0.0
H711 H 0.03139 0.42549 0.99945 0.0
H712 H 0.05163 0.42498 0.95333 0.0
H713 H 0.06518 0.43094 0.00924 0.0
H714 H 0.07398 0.39032 1.00136 0.0
H715 H 0.06052 0.38435 0.94535 0.0
H716 H 0.04624 0.35716 0.98592 0.0
H717 H 0.94314 0.32917 1.00804 0.0
H718 H 0.93351 0.32801 0.927 0.0
H719 H 0.01967 0.38388 0.90295 0.0
C720 C 0.04086 0.38912 0.08256 0.0
C721 C 0.02782 0.37934 0.12432 0.0
C722 C 0.99937 0.3602 0.12499 0.0
C723 C 0.98414 0.35139 0.0854 0.0
C724 C 0.99748 0.36172 0.04498 0.0
C725 C 0.02524 0.38 0.04319 0.0
C726 C 0.03446 0.38836 0.99535 0.0
C727 C 0.04636 0.41928 0.98899 0.0
C728 C 0.05501 0.37951 0.98117 0.0
C729 C 1.00756 0.37213 0.97081 0.0
C730 C 0.98643 0.35689 0.99991 0.0
C731 C 0.95959 0.34087 0.98484 0.0
C732 C 0.95428 0.34034 0.93875 0.0
C733 C 0.97572 0.35567 0.90824 0.0
C734 C 1.00267 0.3717 0.92496 0.0
H735 H 0.61443 0.94965 0.43548 0.0
H736 H 0.6675 0.02302 0.35985 0.0
H737 H 0.68164 0.04962 0.42907 0.0
H738 H 0.59193 0.98151 0.51371 0.0
H739 H 0.59172 0.96178 0.56119 0.0
H740 H 0.58657 0.94755 0.50579 0.0
H741 H 0.62696 0.93881 0.51705 0.0
H742 H 0.63209 0.95288 0.57259 0.0
H743 H 0.65986 0.96671 0.53309 0.0
H744 H 0.68818 0.06958 0.50568 0.0
H745 H 0.68857 0.08044 0.5858 0.0
H746 H 0.63243 0.99466 0.61301 0.0
C747 C 0.62938 0.97119 0.43355 0.0
C748 C 0.63982 0.984 0.39178 0.0
C749 C 0.65911 0.01243 0.39104 0.0
C750 C 0.66734 0.0279 0.43035 0.0
C751 C 0.6563 0.01485 0.47066 0.0
C752 C 0.63796 0.9871 0.47278 0.0
C753 C 0.62889 0.97844 0.52069 0.0
C754 C 0.59794 0.96662 0.52561 0.0
C755 C 0.63747 0.958 0.5368 0.0
C756 C 0.64479 1.00566 0.54473 0.0
C757 C 0.66042 0.0264 0.51521 0.0
C758 C 0.67622 0.05346 0.52927 0.0
C759 C 0.67626 0.05947 0.57486 0.0
C760 C 0.66071 0.0385 0.606 0.0
C761 C 0.64477 0.01125 0.59036 0.0
H762 H 0.64786 0.63751 0.11055 0.0
H763 H 0.61145 0.68802 0.08486 0.0
H764 H 0.61897 0.68587 1.00379 0.0
H765 H 0.69927 0.66488 0.02395 0.0
H766 H 0.69567 0.63217 0.01036 0.0
H767 H 0.68873 0.63886 0.06632 0.0
H768 H 0.64047 0.59631 0.06251 0.0
H769 H 0.64719 0.58941 1.00658 0.0
H770 H 0.61789 0.59315 0.01752 0.0
H771 H 0.6298 0.67757 0.92582 0.0
H772 H 0.64055 0.66213 0.85617 0.0
H773 H 0.66864 0.61533 0.93214 0.0
C774 C 0.6416 0.64836 0.08811 0.0
C775 C 0.62918 0.66315 0.10438 0.0
C776 C 0.62107 0.67668 0.07343 0.0
C777 C 0.62532 0.6756 0.02731 0.0
C778 C 0.63752 0.66075 0.01261 0.0
C779 C 0.64539 0.64723 0.04209 0.0
C780 C 0.65692 0.63166 0.01762 0.0
C781 C 0.68693 0.64255 0.03032 0.0
C782 C 0.63958 0.6008 0.0266 0.0
C783 C 0.65425 0.63843 0.96951 0.0
C784 C 0.64323 0.65543 0.96755 0.0
C785 C 0.63846 0.6643 0.92702 0.0
C786 C 0.64473 0.65534 0.88747 0.0
C787 C 0.65557 0.63742 0.88824 0.0
C788 C 0.66059 0.62912 0.93013 0.0
H789 H 0.06137 0.67044 0.4418 0.0
H790 H 0.99086 0.65402 0.36128 0.0
H791 H 0.96253 0.64145 0.42862 0.0
H792 H 0.0264 0.61542 0.5168 0.0
H793 H 0.04512 0.63372 0.56582 0.0
H794 H 0.06086 0.64343 0.51154 0.0
H795 H 0.07074 0.69289 0.52423 0.0
H796 H 0.0552 0.68331 0.57872 0.0
H797 H 0.0431 0.69868 0.53875 0.0
H798 H 0.94035 0.62681 0.50394 0.0
H799 H 0.92737 0.61498 0.5833 0.0
H800 H 0.01193 0.64195 0.6155 0.0
C801 C 0.04014 0.66477 0.43842 0.0
C802 C 0.02859 0.66339 0.39586 0.0
C803 C 1.00048 0.6554 0.39318 0.0
C804 C 0.98403 0.64811 0.43138 0.0
C805 C 0.99581 0.64899 0.47251 0.0
C806 C 0.02328 0.65745 0.47648 0.0
C807 C 0.03053 0.6559 0.52478 0.0
C808 C 0.04136 0.63592 0.53002 0.0
C809 C 0.05111 0.6844 0.54267 0.0
C810 C 1.00283 0.64493 0.54689 0.0
C811 C 0.98304 0.641 0.51616 0.0
C812 C 0.95573 0.6301 0.52849 0.0
C813 C 0.9485 0.62332 0.57359 0.0
C814 C 0.96854 0.62765 0.60587 0.0
C815 C 0.99604 0.63858 0.59195 0.0
H816 H 0.37162 0.99761 0.91298 0.0
H817 H 0.4046 0.08402 0.9396 0.0
H818 H 0.39553 0.07375 0.02025 0.0
H819 H 0.31814 0.97161 0.99612 0.0
H820 H 0.32246 0.94308 0.01078 0.0
H821 H 0.33048 0.95702 0.95507 0.0
H822 H 0.37924 0.96434 0.96265 0.0
H823 H 0.37142 0.95038 0.01831 0.0
H824 H 0.40031 0.98392 0.00898 0.0
H825 H 0.38341 0.05418 0.09767 0.0
H826 H 0.37197 0.02779 0.1671 0.0
H827 H 0.34777 0.95361 0.09103 0.0
C828 C 0.37684 0.01447 0.93557 0.0
C829 C 0.38873 0.04173 0.91963 0.0
C830 C 0.39545 0.06304 0.95075 0.0
C831 C 0.39029 0.05736 0.99664 0.0
C832 C 0.37855 0.03029 0.01099 0.0
C833 C 0.37209 0.00921 0.98142 0.0
C834 C 0.36068 0.98203 1.00567 0.0
C835 C 0.33119 0.96227 0.99103 0.0
C836 C 0.37901 0.96943 0.99847 0.0
C837 C 0.36181 0.9911 0.05376 0.0
C838 C 0.37199 0.019 0.05585 0.0
C839 C 0.3754 0.03234 0.09636 0.0
C840 C 0.36872 0.01699 0.1358 0.0
C841 C 0.35878 0.98838 0.135 0.0
C842 C 0.35502 0.9753 0.09307 0.0
H843 H 0.35138 0.39656 0.43216 0.0
H844 H 0.37427 0.3459 0.35507 0.0
H845 H 0.3849 0.32994 0.42412 0.0
H846 H 0.4035 0.41719 0.51389 0.0
H847 H 0.38264 0.41604 0.56033 0.0
H848 H 0.37505 0.42258 0.50478 0.0
H849 H 0.3258 0.38171 0.51181 0.0
H850 H 0.33329 0.37517 0.56748 0.0
H851 H 0.3206 0.34845 0.52607 0.0
H852 H 0.39639 0.32148 0.50125 0.0
H853 H 0.40504 0.31944 0.58186 0.0
H854 H 0.37386 0.37428 0.60958 0.0
C855 C 0.35815 0.38175 0.42983 0.0
C856 C 0.36178 0.37253 0.38774 0.0
C857 C 0.37111 0.35338 0.38652 0.0
C858 C 0.37732 0.34411 0.42573 0.0
C859 C 0.37406 0.35396 0.46643 0.0
C860 C 0.36445 0.37214 0.46894 0.0
C861 C 0.36347 0.37991 0.51718 0.0
C862 C 0.38229 0.41076 0.52446 0.0
C863 C 0.33403 0.37075 0.53147 0.0
C864 C 0.37428 0.36349 0.54099 0.0
C865 C 0.38033 0.34871 0.51112 0.0
C866 C 0.39146 0.33276 0.5251 0.0
C867 C 0.39638 0.33176 0.57096 0.0
C868 C 0.39002 0.34649 0.60236 0.0
C869 C 0.37878 0.36251 0.58677 0.0
H870 H 0.96835 0.59043 0.91687 0.0
H871 H 0.02091 0.67441 0.87464 0.0
H872 H 0.04018 0.6864 0.95057 0.0
H873 H 0.95399 0.60592 0.02659 0.0
H874 H 0.95426 0.57731 0.05262 0.0
H875 H 0.94473 0.57542 0.99478 0.0
H876 H 0.98213 0.5638 0.97301 0.0
H877 H 0.99197 0.56595 0.03077 0.0
H878 H 0.01699 0.58656 0.98936 0.0
H879 H 0.05349 0.68949 0.03122 0.0
H880 H 0.05844 0.68366 0.11185 0.0
H881 H 0.99782 0.59761 0.10091 0.0
C882 C 0.98383 0.61136 0.92359 0.0
C883 C 0.99311 0.63145 0.88976 0.0
C884 C 0.01347 0.65862 0.89997 0.0
C885 C 0.02462 0.66565 0.94298 0.0
C886 C 0.01527 0.6453 0.97539 0.0
C887 C 0.99527 0.61874 0.96631 0.0
C888 C 0.98861 0.60083 1.00729 0.0
C889 C 0.95862 0.5892 0.02114 0.0
C890 C 0.99533 0.57793 0.99963 0.0
C891 C 1.00786 0.62152 0.04087 0.0
C892 C 0.02313 0.64703 0.02179 0.0
C893 C 0.04175 0.66958 0.04654 0.0
C894 C 0.04446 0.66605 0.09227 0.0
C895 C 0.02864 0.64017 0.11267 0.0
C896 C 0.01044 0.6176 0.0863 0.0
H897 H 0.38971 0.01151 0.41622 0.0
H898 H 0.35138 0.92364 0.43112 0.0
H899 H 0.3527 0.92889 0.51349 0.0
H900 H 0.43581 0.02799 0.51035 0.0
H901 H 0.43385 0.05779 0.52574 0.0
H902 H 0.42946 0.04694 0.46825 0.0
H903 H 0.38272 0.04491 0.46632 0.0
H904 H 0.38689 0.05564 0.52385 0.0
H905 H 0.35701 0.02442 0.50694 0.0
H906 H 0.35533 0.94373 0.59363 0.0
H907 H 0.36402 0.96713 0.66654 0.0
H908 H 0.40445 0.04567 0.59956 0.0
C909 C 0.38162 0.99338 0.43688 0.0
C910 C 0.37021 0.96712 0.41755 0.0
C911 C 0.3602 0.9439 0.44546 0.0
C912 C 0.36078 0.9467 0.49215 0.0
C913 C 0.37195 0.9729 0.51017 0.0
C914 C 0.38264 0.99586 0.48342 0.0
C915 C 0.39431 0.02174 0.51114 0.0
C916 C 0.42519 0.03966 0.50341 0.0
C917 C 0.37933 0.03761 0.50148 0.0
C918 C 0.38817 0.00975 0.55777 0.0
C919 C 0.37494 0.98152 0.55641 0.0
C920 C 0.36597 0.96581 0.59512 0.0
C921 C 0.37087 0.97927 0.63631 0.0
C922 C 0.38505 0.00817 0.63854 0.0
C923 C 0.39387 0.02357 0.59874 0.0
H924 H 0.40187 0.35424 0.92272 0.0
H925 H 0.36465 0.39536 0.85524 0.0
H926 H 0.35593 0.41013 0.92809 0.0
H927 H 0.35329 0.32888 0.01426 0.0
H928 H 0.3783 0.33274 0.05525 0.0
H929 H 0.38252 0.32623 0.99769 0.0
H930 H 0.43033 0.36969 0.99652 0.0
H931 H 0.42621 0.37636 0.05403 0.0
H932 H 0.43377 0.40208 0.01213 0.0
H933 H 0.35391 0.42286 1.00807 0.0
H934 H 0.35341 0.42763 0.09042 0.0
H935 H 0.38748 0.37436 0.10592 0.0
C936 C 0.39191 0.36637 0.92345 0.0
C937 C 0.38407 0.37385 0.88356 0.0
C938 C 0.37074 0.38939 0.88558 0.0
C939 C 0.36582 0.39797 0.92673 0.0
C940 C 0.37386 0.39036 0.96555 0.0
C941 C 0.38615 0.37448 0.96436 0.0
C942 C 0.39157 0.36805 0.01109 0.0
C943 C 0.37545 0.33714 0.02009 0.0
C944 C 0.4223 0.37975 0.01888 0.0
C945 C 0.3807 0.38305 0.0386 0.0
C946 C 0.37096 0.39615 0.01171 0.0
C947 C 0.36113 0.4124 0.02953 0.0
C948 C 0.361 0.41508 0.07616 0.0
C949 C 0.37007 0.40109 0.10417 0.0
C950 C 0.38 0.38489 0.08509 0.0
H951 H 0.9758 0.36882 0.59095 0.0
H952 H 0.05478 0.40986 0.65617 0.0
H953 H 0.07753 0.4226 0.58247 0.0
H954 H 0.99685 0.34044 0.50145 0.0
H955 H 0.97566 0.34399 0.46015 0.0
H956 H 0.96559 0.33914 0.51805 0.0
H957 H 0.96257 0.38339 0.51632 0.0
H958 H 0.97267 0.38839 0.45843 0.0
H959 H 0.99179 0.41496 0.49862 0.0
H960 H 0.09151 0.43288 0.50155 0.0
H961 H 0.09584 0.43529 0.41896 0.0
H962 H 1.0081 0.38386 0.40694 0.0
C963 C 0.99787 0.38057 0.58957 0.0
C964 C 0.01359 0.38859 0.62903 0.0
C965 C 0.04242 0.40353 0.62616 0.0
C966 C 0.0555 0.41095 0.58453 0.0
C967 C 0.03945 0.40279 0.54614 0.0
C968 C 0.01129 0.38754 0.54825 0.0
C969 C 0.99888 0.38022 0.50198 0.0
C970 C 0.98333 0.3491 0.49501 0.0
C971 C 0.98039 0.39248 0.49334 0.0
C972 C 0.02443 0.39396 0.47359 0.0
C973 C 0.04761 0.40722 0.49963 0.0
C974 C 0.07354 0.42231 0.48078 0.0
C975 C 0.07582 0.42365 0.434 0.0
C976 C 0.05236 0.40951 0.40689 0.0
C977 C 0.02641 0.39451 0.42702 0.0
H978 H 0.65366 0.04373 0.92822 0.0
H979 H 0.61774 0.96585 0.85932 0.0
H980 H 0.60427 0.94173 0.93169 0.0
H981 H 0.6817 0.0231 0.0193 0.0
H982 H 0.67572 0.04269 0.06071 0.0
H983 H 0.68172 0.05386 1.00337 0.0
H984 H 0.63615 0.0543 1.00239 0.0
H985 H 0.62998 0.04303 0.05968 0.0
H986 H 0.60495 0.02379 0.01743 0.0
H987 H 0.59237 0.92599 0.0114 0.0
H988 H 0.58803 0.91995 0.09364 0.0
H989 H 0.63537 0.0078 0.11078 0.0
C990 C 0.64295 0.02162 0.92852 0.0
C991 C 0.6366 1.00661 0.88832 0.0
C992 C 0.62288 0.97771 0.88985 0.0
C993 C 0.61501 0.96382 0.93074 0.0
C994 C 0.62147 0.97914 0.96985 0.0
C995 C 0.63555 0.0074 0.96919 0.0
C996 C 0.64105 0.01892 0.01617 0.0
C997 C 0.67188 0.03562 0.02542 0.0
C998 C 0.6272 0.03602 0.02439 0.0
C999 C 0.62764 0.99276 0.04318 0.0
C1000 C 0.61609 0.97003 0.01586 0.0
C1001 C 0.6016 0.94362 0.03319 0.0
C1002 C 0.59913 0.94036 0.07979 0.0
C1003 C 0.61159 0.96337 0.10827 0.0
C1004 C 0.62597 0.98984 0.08964 0.0
H1005 H 0.61304 0.64935 0.42286 0.0
H1006 H 0.65552 0.61304 0.35683 0.0
H1007 H 0.6642 0.59858 0.42999 0.0
H1008 H 0.65973 0.67632 0.51589 0.0
H1009 H 0.63358 0.67053 0.55596 0.0
H1010 H 0.62951 0.67679 0.49824 0.0
H1011 H 0.58328 0.63147 0.49554 0.0
H1012 H 0.58727 0.62505 0.55323 0.0
H1013 H 0.58192 0.60002 0.51117 0.0
H1014 H 0.66649 0.58632 0.51028 0.0
H1015 H 0.66718 0.58222 0.59272 0.0
H1016 H 0.62709 0.63019 0.60643 0.0
C1017 C 0.62407 0.63827 0.42395 0.0
C1018 C 0.63346 0.6321 0.38438 0.0
C1019 C 0.64821 0.61798 0.38692 0.0
C1020 C 0.65312 0.60957 0.42823 0.0
C1021 C 0.64357 0.6159 0.46673 0.0
C1022 C 0.62978 0.63034 0.46504 0.0
C1023 C 0.62307 0.63585 0.51151 0.0
C1024 C 0.63733 0.66671 0.52095 0.0
C1025 C 0.59204 0.62228 0.51824 0.0
C1026 C 0.63506 0.6221 0.53948 0.0
C1027 C 0.6464 0.61032 0.51304 0.0
C1028 C 0.6579 0.59568 0.53138 0.0
C1029 C 0.65813 0.59336 0.57809 0.0
C1030 C 0.64743 0.60609 0.60566 0.0
C1031 C 0.63572 0.62054 0.58601 0.0
H1032 H 0.08459 0.59629 0.29765 0.0
H1033 H 1.00176 0.57302 0.25997 0.0
H1034 H 0.99128 0.52532 0.24986 0.0
H1035 H 0.09305 0.55621 0.21576 0.0
H1036 H 0.11373 0.54765 0.25046 0.0
H1037 H 0.11378 0.57916 0.25948 0.0
H1038 H 0.09995 0.56586 0.34222 0.0
H1039 H 0.10009 0.5344 0.33345 0.0
H1040 H 0.07 0.53368 0.35509 0.0
H1041 H 0.99031 0.47972 0.24268 0.0
H1042 H 1.00001 0.44161 0.23471 0.0
H1043 H 0.08416 0.49637 0.2714 0.0
C1044 C 0.06415 0.58122 0.28785 0.0
C1045 C 0.04401 0.58853 0.27984 0.0
C1046 C 0.01756 0.56798 0.26647 0.0
C1047 C 0.01139 0.5408 0.26067 0.0
C1048 C 0.03197 0.53448 0.26784 0.0
C1049 C 0.05786 0.5542 0.28093 0.0
C1050 C 0.07694 0.54272 0.28342 0.0
C1051 C 0.10077 0.55731 0.2503 0.0
C1052 C 0.08735 0.54425 0.3314 0.0
C1053 C 0.05781 0.51349 0.26945 0.0
C1054 C 0.03183 0.50892 0.26125 0.0
C1055 C 0.01064 0.48317 0.24875 0.0
C1056 C 0.01628 0.46168 0.2443 0.0
C1057 C 0.04298 0.46629 0.25136 0.0
C1058 C 0.06382 0.49248 0.26437 0.0
H1059 H 0.49377 0.07702 0.7707 0.0
H1060 H 0.4365 0.99124 0.79406 0.0
H1061 H 0.47384 0.9809 0.78432 0.0
H1062 H 0.53029 0.06584 0.68311 0.0
H1063 H 0.56286 0.09441 0.6987 0.0
H1064 H 0.53197 0.09514 0.71015 0.0
H1065 H 0.54496 0.10401 0.79397 0.0
H1066 H 0.57593 0.1034 0.78277 0.0
H1067 H 0.55229 0.08084 0.82421 0.0
H1068 H 0.51819 0.98037 0.77319 0.0
H1069 H 0.56499 0.98933 0.75911 0.0
H1070 H 0.59166 0.07488 0.73608 0.0
C1071 C 0.489 0.0561 0.77413 0.0
C1072 C 0.46215 0.03501 0.78345 0.0
C1073 C 0.4569 0.00779 0.78703 0.0
C1074 C 0.47799 1.00172 0.78154 0.0
C1075 C 0.50414 0.02302 0.77169 0.0
C1076 C 0.50962 0.04963 0.76767 0.0
C1077 C 0.53912 0.06867 0.75493 0.0
C1078 C 0.54117 0.08178 0.70899 0.0
C1079 C 0.55394 0.09051 0.79114 0.0
C1080 C 0.54955 0.04869 0.75307 0.0
C1081 C 0.52915 0.02249 0.76313 0.0
C1082 C 0.53425 1.00079 0.76499 0.0
C1083 C 0.56094 1.0061 0.7569 0.0
C1084 C 0.58221 0.03287 0.74657 0.0
C1085 C 0.57609 0.05423 0.74398 0.0
H1086 H 0.53104 0.58995 0.27849 0.0
H1087 H 0.57961 0.56602 0.19892 0.0
H1088 H 0.5422 0.51776 0.20185 0.0
H1089 H 0.50213 0.53067 0.35095 0.0
H1090 H 0.46956 0.52901 0.35503 0.0
H1091 H 0.5001 0.5614 0.34629 0.0
H1092 H 0.47887 0.56951 0.27529 0.0
H1093 H 0.44823 0.53726 0.28408 0.0
H1094 H 0.46612 0.54414 0.2316 0.0
H1095 H 0.49741 0.47258 0.20892 0.0
H1096 H 0.45076 0.43437 0.22289 0.0
H1097 H 0.43423 0.48777 0.30509 0.0
C1098 C 0.53369 0.57461 0.26134 0.0
C1099 C 0.55792 0.58168 0.23772 0.0
C1100 C 0.56106 0.56093 0.21692 0.0
C1101 C 0.53995 0.53353 0.21845 0.0
C1102 C 0.51616 0.52724 0.24184 0.0
C1103 C 0.51314 0.5472 0.26344 0.0
C1104 C 0.48587 0.53519 0.28699 0.0
C1105 C 0.48966 0.53931 0.33783 0.0
C1106 C 0.46877 0.54724 0.26836 0.0
C1107 C 0.47368 0.5054 0.2745 0.0
C1108 C 0.49132 0.50119 0.24818 0.0
C1109 C 0.48361 0.47561 0.23001 0.0
C1110 C 0.45703 0.454 0.23819 0.0
C1111 C 0.43854 0.45797 0.26479 0.0
C1112 C 0.44752 0.48391 0.28419 0.0
H1113 H 0.93275 0.521 0.73988 0.0
H1114 H 0.01855 0.58237 0.74787 0.0
H1115 H 0.02997 0.54597 0.75968 0.0
H1116 H 0.93469 0.4792 0.82835 0.0
H1117 H 0.91018 0.44754 0.80243 0.0
H1118 H 0.90894 0.47827 0.79177 0.0
H1119 H 0.91207 0.47192 0.70661 0.0
H1120 H 0.91325 0.44114 0.717 0.0
H1121 H 0.93992 0.46843 0.68498 0.0
H1122 H 0.03196 0.50248 0.7693 0.0
H1123 H 0.02432 0.45576 0.7784 0.0
H1124 H 0.93687 0.42362 0.77226 0.0
C1125 C 0.95394 0.52691 0.74405 0.0
C1126 C 0.9747 0.55468 0.74299 0.0
C1127 C 1.00222 0.5613 0.74857 0.0
C1128 C 1.00893 0.54075 0.75533 0.0
C1129 C 0.98787 0.51367 0.75713 0.0
C1130 C 0.96092 0.50675 0.75195 0.0
C1131 C 0.94202 0.47624 0.7571 0.0
C1132 C 0.92283 0.46995 0.79731 0.0
C1133 C 0.92587 0.4637 0.71384 0.0
C1134 C 0.96258 0.46702 0.76557 0.0
C1135 C 0.98893 0.48887 0.76502 0.0
C1136 C 0.0114 0.48525 0.77012 0.0
C1137 C 1.00682 0.4586 0.77529 0.0
C1138 C 0.97995 0.43583 0.77599 0.0
C1139 C 0.95763 0.44037 0.77188 0.0
H1140 H 0.42025 0.929 0.27029 0.0
H1141 H 0.4496 0.01388 0.238 0.0
H1142 H 0.49723 0.02293 0.24039 0.0
H1143 H 0.47343 0.94206 0.34896 0.0
H1144 H 0.47509 0.91206 0.33383 0.0
H1145 H 0.44351 0.91226 0.32795 0.0
H1146 H 0.44117 0.89934 0.24439 0.0
H1147 H 0.47269 0.89899 0.24998 0.0
H1148 H 0.46956 0.92022 0.2082 0.0
H1149 H 0.54161 0.02174 0.24291 0.0
H1150 H 0.57903 0.01142 0.25037 0.0
H1151 H 0.52023 0.9281 0.28748 0.0
C1152 C 0.43664 0.94936 0.26303 0.0
C1153 C 0.43129 0.97063 0.25297 0.0
C1154 C 0.45335 0.99729 0.24538 0.0
C1155 C 0.48041 1.00257 0.24665 0.0
C1156 C 0.485 0.98107 0.25654 0.0
C1157 C 0.4637 0.95506 0.26516 0.0
C1158 C 0.47404 0.93573 0.27672 0.0
C1159 C 0.46604 0.9249 0.32472 0.0
C1160 C 0.46376 0.91218 0.24279 0.0
C1161 C 0.50451 0.95478 0.27255 0.0
C1162 C 0.51045 0.98079 0.26054 0.0
C1163 C 0.53718 1.00151 0.25275 0.0
C1164 C 0.55831 0.99543 0.25703 0.0
C1165 C 0.55269 0.96892 0.26962 0.0
C1166 C 0.52538 0.94856 0.27803 0.0
H1167 H 0.59438 0.51577 0.76568 0.0
H1168 H 0.56585 0.57406 0.76415 0.0
H1169 H 0.51836 0.53608 0.75553 0.0
H1170 H 0.54927 0.47279 0.68052 0.0
H1171 H 0.54446 0.44161 0.70524 0.0
H1172 H 0.57581 0.47318 0.71438 0.0
H1173 H 0.56896 0.46648 0.8 0.0
H1174 H 0.53764 0.43482 0.79117 0.0
H1175 H 0.53767 0.46132 0.82472 0.0
H1176 H 0.47369 0.49109 0.74854 0.0
H1177 H 0.43611 0.44352 0.73969 0.0
H1178 H 0.49505 0.41569 0.73854 0.0
C1179 C 0.5782 0.52058 0.76427 0.0
C1180 C 0.58383 0.54788 0.76632 0.0
C1181 C 0.56198 0.55327 0.76298 0.0
C1182 C 0.53497 0.53184 0.75809 0.0
C1183 C 0.53019 0.50515 0.75575 0.0
C1184 C 0.55127 0.49952 0.75833 0.0
C1185 C 0.54096 0.46928 0.75257 0.0
C1186 C 0.55336 0.46391 0.71068 0.0
C1187 C 0.54664 0.45727 0.79462 0.0
C1188 C 0.51073 0.4587 0.74673 0.0
C1189 C 0.50484 0.47962 0.74915 0.0
C1190 C 0.47812 0.47459 0.74631 0.0
C1191 C 0.4569 0.44747 0.74128 0.0
C1192 C 0.46249 0.42569 0.73846 0.0
C1193 C 0.4899 0.43166 0.74061 0.0
H1194 H 0.13504 0.35954 0.25548 0.0
H1195 H 0.16924 0.438 0.18831 0.0
H1196 H 0.21525 0.44545 0.20007 0.0
H1197 H 0.18612 0.37791 0.33757 0.0
H1198 H 0.18766 0.34685 0.33522 0.0
H1199 H 0.15656 0.34641 0.32061 0.0
H1200 H 0.15631 0.32569 0.24337 0.0
H1201 H 0.18724 0.32573 0.25794 0.0
H1202 H 0.1859 0.34269 0.20781 0.0
H1203 H 0.25733 0.44791 0.22754 0.0
H1204 H 0.29429 0.44155 0.25594 0.0
H1205 H 0.23547 0.35895 0.29719 0.0
C1206 C 0.15218 0.37806 0.24252 0.0
C1207 C 0.14824 0.39841 0.22157 0.0
C1208 C 0.17138 0.42225 0.20507 0.0
C1209 C 0.19778 0.42672 0.21158 0.0
C1210 C 0.20099 0.40687 0.23365 0.0
C1211 C 0.17894 0.38262 0.24775 0.0
C1212 C 0.18865 0.36463 0.26977 0.0
C1213 C 0.17918 0.3586 0.3187 0.0
C1214 C 0.17895 0.33811 0.24313 0.0
C1215 C 0.21953 0.38296 0.26671 0.0
C1216 C 0.22592 0.40736 0.24629 0.0
C1217 C 0.25266 0.42862 0.24248 0.0
C1218 C 0.27359 0.42477 0.25897 0.0
C1219 C 0.26804 0.39953 0.27808 0.0
C1220 C 0.24048 0.3783 0.28207 0.0
H1221 H 0.86171 0.2393 0.84985 0.0
H1222 H 0.88165 0.27339 0.716 0.0
H1223 H 0.84335 0.23113 0.68578 0.0
H1224 H 0.84098 0.16842 0.81588 0.0
H1225 H 0.81392 0.15351 0.8566 0.0
H1226 H 0.84399 0.18592 0.86778 0.0
H1227 H 0.81376 0.20767 0.88142 0.0
H1228 H 0.78364 0.17541 0.87007 0.0
H1229 H 0.79025 0.20529 0.83861 0.0
H1230 H 0.79943 0.18759 0.67087 0.0
H1231 H 0.75591 0.14358 0.67171 0.0
H1232 H 0.76601 0.13527 0.81332 0.0
C1233 C 0.85834 0.23769 0.81409 0.0
C1234 C 0.87492 0.25985 0.78543 0.0
C1235 C 0.86956 0.25682 0.73882 0.0
C1236 C 0.84769 0.23284 0.72123 0.0
C1237 C 0.83146 0.21166 0.75039 0.0
C1238 C 0.83678 0.21359 0.79574 0.0
C1239 C 0.81584 0.18786 0.81972 0.0
C1240 C 0.8295 0.17305 0.84126 0.0
C1241 C 0.79993 0.19446 0.8545 0.0
C1242 C 0.79764 0.1715 0.78093 0.0
C1243 C 0.80694 0.18575 0.74127 0.0
C1244 C 0.79233 0.17595 0.70151 0.0
C1245 C 0.76763 0.15098 0.70225 0.0
C1246 C 0.75801 0.13574 0.74223 0.0
C1247 C 0.77338 0.1461 0.78197 0.0
H1248 H 0.59484 0.74706 0.24578 0.0
H1249 H 0.68155 0.77716 0.2305 0.0
H1250 H 0.69107 0.82376 0.24933 0.0
H1251 H 0.59481 0.80567 0.19831 0.0
H1252 H 0.56947 0.80406 0.23664 0.0
H1253 H 0.56974 0.77334 0.22166 0.0
H1254 H 0.57263 0.76342 0.30538 0.0
H1255 H 0.57253 0.79419 0.32063 0.0
H1256 H 0.59981 0.78886 0.33923 0.0
H1257 H 0.69088 0.86761 0.27027 0.0
H1258 H 0.68094 0.90438 0.28924 0.0
H1259 H 0.59436 0.84502 0.29138 0.0
C1260 C 0.61587 0.7634 0.24617 0.0
C1261 C 0.63745 0.7583 0.23647 0.0
C1262 C 0.66464 0.78044 0.23757 0.0
C1263 C 0.67025 0.80702 0.24837 0.0
C1264 C 0.64848 0.81124 0.25805 0.0
C1265 C 0.62182 0.78999 0.25685 0.0
C1266 C 0.60203 0.79981 0.26841 0.0
C1267 C 0.58289 0.79546 0.2289 0.0
C1268 C 0.5858 0.78573 0.31094 0.0
C1269 C 0.62166 0.82992 0.27643 0.0
C1270 C 0.64838 0.83617 0.27031 0.0
C1271 C 0.67001 0.86285 0.27524 0.0
C1272 C 0.66416 0.88363 0.28618 0.0
C1273 C 0.63689 0.87772 0.29223 0.0
C1274 C 0.61548 0.85035 0.28751 0.0
H1275 H 0.84639 0.59129 0.74377 0.0
H1276 H 0.90247 0.67749 0.72078 0.0
H1277 H 0.8658 0.68758 0.73963 0.0
H1278 H 0.78673 0.58956 0.69771 0.0
H1279 H 0.76397 0.5655 0.73849 0.0
H1280 H 0.79462 0.56534 0.72283 0.0
H1281 H 0.80933 0.57108 0.80594 0.0
H1282 H 0.7788 0.57144 0.82183 0.0
H1283 H 0.81175 0.59937 0.83754 0.0
H1284 H 0.82218 0.68799 0.76128 0.0
H1285 H 0.77583 0.67852 0.78159 0.0
H1286 H 0.74909 0.59213 0.79118 0.0
C1287 C 0.85104 0.61232 0.74243 0.0
C1288 C 0.87743 0.63359 0.73056 0.0
C1289 C 0.88247 0.6608 0.72953 0.0
C1290 C 0.86175 0.66675 0.74033 0.0
C1291 C 0.83604 0.64529 0.75219 0.0
C1292 C 0.83066 0.6186 0.75313 0.0
C1293 C 0.8014 0.59917 0.76685 0.0
C1294 C 0.78576 0.57869 0.72923 0.0
C1295 C 0.80027 0.5844 0.81064 0.0
C1296 C 0.79107 0.61903 0.77353 0.0
C1297 C 0.8113 0.64555 0.76496 0.0
C1298 C 0.80626 0.66729 0.7682 0.0
C1299 C 0.77985 0.66172 0.77993 0.0
C1300 C 0.75873 0.63462 0.78842 0.0
C1301 C 0.76472 0.61314 0.78544 0.0
H1302 H 0.26652 0.85044 0.24304 0.0
H1303 H 0.23814 0.90892 0.23833 0.0
H1304 H 0.19168 0.87223 0.25856 0.0
H1305 H 0.20572 0.79271 0.19785 0.0
H1306 H 0.20794 0.76843 0.23408 0.0
H1307 H 0.23849 0.79913 0.21765 0.0
H1308 H 0.25125 0.81138 0.30094 0.0
H1309 H 0.22065 0.7808 0.31764 0.0
H1310 H 0.22729 0.81357 0.33802 0.0
H1311 H 0.14782 0.8284 0.27981 0.0
H1312 H 0.11104 0.78193 0.29974 0.0
H1313 H 0.16893 0.7529 0.29288 0.0
C1314 C 0.25052 0.85557 0.24568 0.0
C1315 C 0.25606 0.88266 0.23858 0.0
C1316 C 0.23447 0.88838 0.24322 0.0
C1317 C 0.20799 0.86764 0.25483 0.0
C1318 C 0.20336 0.84124 0.26203 0.0
C1319 C 0.22408 0.83521 0.25758 0.0
C1320 C 0.21404 0.80541 0.26806 0.0
C1321 C 0.21671 0.79055 0.22696 0.0
C1322 C 0.22921 0.80264 0.30857 0.0
C1323 C 0.18438 0.79552 0.27904 0.0
C1324 C 0.17853 0.81643 0.27527 0.0
C1325 C 0.15227 0.81196 0.28301 0.0
C1326 C 0.13148 0.78546 0.29445 0.0
C1327 C 0.137 0.76368 0.29839 0.0
C1328 C 0.16396 0.76905 0.29077 0.0
H1329 H 0.42191 0.25918 0.73953 0.0
H1330 H 0.33523 0.23049 0.72936 0.0
H1331 H 0.32524 0.18372 0.74824 0.0
H1332 H 0.41985 0.19966 0.69148 0.0
H1333 H 0.44573 0.20112 0.72833 0.0
H1334 H 0.44574 0.232 0.71357 0.0
H1335 H 0.44473 0.24276 0.79749 0.0
H1336 H 0.44458 0.21183 0.81249 0.0
H1337 H 0.41804 0.21786 0.83273 0.0
H1338 H 0.32501 0.13961 0.76977 0.0
H1339 H 0.33462 0.10262 0.78897 0.0
H1340 H 0.42145 0.16088 0.7847 0.0
C1341 C 0.40078 0.24311 0.74101 0.0
C1342 C 0.37936 0.24866 0.73279 0.0
C1343 C 0.35204 0.22686 0.73528 0.0
C1344 C 0.34616 0.2002 0.74613 0.0
C1345 C 0.3678 0.19555 0.75439 0.0
C1346 C 0.39457 0.21646 0.75171 0.0
C1347 C 0.41421 0.20628 0.762 0.0
C1348 C 0.43245 0.20998 0.72143 0.0
C1349 C 0.4314 0.22053 0.80366 0.0
C1350 C 0.39437 0.17635 0.77096 0.0
C1351 C 0.36767 0.17048 0.76655 0.0
C1352 C 0.34587 0.14406 0.77326 0.0
C1353 C 0.35153 0.12315 0.78431 0.0
C1354 C 0.37879 0.12868 0.78851 0.0
C1355 C 0.40036 0.15579 0.7819 0.0
loop_
_geom_bond_atom_site_label_1
_geom_bond_atom_site_label_2
_geom_bond_distance
_geom_bond_site_symmetry_2
_ccdc_geom_bond_type
Co0 O2 2.143 . S
Co0 O8 2.074 . S
Co0 O11 2.093 1_455 S
Co0 O24 2.097 . S
Co0 N41 2.151 1_455 S
Co0 N49 2.214 1_455 S
Co1 O2 2.160 . S
Co1 O7 2.058 . S
Co1 O17 2.057 . S
Co1 O32 2.037 . S
Co1 N36 2.145 . S
Co1 N57 2.257 . S
O2 Co0 2.143 . S
O2 Co1 2.160 . S
C3 O4 1.278 . S
C3 O11 1.224 1_455 S
O4 C3 1.278 . S
C5 O6 1.245 . S
C5 O17 1.232 . S
O6 C5 1.245 . S
O7 Co1 2.058 . S
O7 C33 1.269 . S
O8 Co0 2.074 . S
O8 C33 1.257 . S
H9 C34 0.930 . S
H10 C40 0.930 1_455 S
O11 Co0 2.093 1_655 S
O11 C3 1.224 1_655 S
H12 C44 0.929 . S
H13 C46 0.930 . S
H14 C47 0.930 . S
H15 C45 0.929 . S
H16 C48 0.928 . S
O17 Co1 2.057 . S
O17 C5 1.232 . S
H18 C37 0.929 . S
H19 C38 0.929 . S
H20 C50 0.931 . S
H21 C42 0.929 . S
H22 C51 0.930 . S
H23 C43 0.931 . S
O24 Co0 2.097 . S
O24 C52 1.214 . S
H25 C53 0.929 . S
H26 C54 0.929 . S
H27 C55 0.930 . S
H28 C56 0.929 . S
H29 C58 0.930 . S
H30 C35 0.930 . S
H31 C39 0.930 . S
O32 Co1 2.037 . S
O32 C52 1.234 . S
C33 O7 1.269 . S
C33 O8 1.257 . S
C34 H9 0.930 . S
C34 C37 1.388 . S
C34 C39 1.418 . S
C35 H30 0.930 . S
C35 C38 1.404 . S
C35 C39 1.353 . S
N36 Co1 2.145 . S
N36 C37 1.397 . S
N36 C38 1.334 . S
C37 H18 0.929 . S
C37 C34 1.388 . S
C37 N36 1.397 . S
C38 H19 0.929 . S
C38 C35 1.404 . S
C38 N36 1.334 . S
C39 H31 0.930 . S
C39 C34 1.418 . S
C39 C35 1.353 . S
C40 H10 0.930 1_655 S
C40 N41 1.330 . S
C40 C42 1.446 . S
N41 Co0 2.151 1_655 S
N41 C40 1.330 . S
N41 C45 1.418 . S
C42 H21 0.929 . S
C42 C40 1.446 . S
C42 C43 1.332 . S
C43 H23 0.931 . S
C43 C42 1.332 . S
C43 C44 1.267 . S
C44 H12 0.929 . S
C44 C43 1.267 . S
C44 C45 1.251 . S
C45 H15 0.929 . S
C45 N41 1.418 . S
C45 C44 1.251 . S
C46 H13 0.930 . S
C46 C48 1.406 . S
C46 C51 1.261 . S
C47 H14 0.930 . S
C47 N49 1.325 . S
C47 C50 1.357 . S
C48 H16 0.928 . S
C48 C46 1.406 . S
C48 N49 1.261 . S
N49 Co0 2.214 1_655 S
N49 C47 1.325 . S
N49 C48 1.261 . S
C50 H20 0.931 . S
C50 C47 1.357 . S
C50 C51 1.312 . S
C51 H22 0.930 . S
C51 C46 1.261 . S
C51 C50 1.312 . S
C52 O24 1.214 . S
C52 O32 1.234 . S
C53 H25 0.929 . S
C53 C56 1.391 . S
C53 C58 1.391 . S
C54 H26 0.929 . S
C54 C55 1.390 . S
C54 N57 1.391 . S
C55 H27 0.930 . S
C55 C54 1.390 . S
C55 C56 1.392 . S
C56 H28 0.929 . S
C56 C53 1.391 . S
C56 C55 1.392 . S
N57 Co1 2.257 . S
N57 C54 1.391 . S
N57 C58 1.388 . S
C58 H29 0.930 . S
C58 C53 1.391 . S
C58 N57 1.388 . S
Co59 O61 2.143 . S
Co59 O67 2.074 . S
Co59 O70 2.093 1_545 S
Co59 O83 2.097 . S
Co59 N100 2.151 1_545 S
Co59 N108 2.214 1_545 S
Co60 O61 2.160 . S
Co60 O66 2.058 . S
Co60 O76 2.057 . S
Co60 O91 2.037 . S
Co60 N95 2.145 . S
Co60 N116 2.257 . S
O61 Co59 2.143 . S
O61 Co60 2.160 . S
C62 O63 1.278 . S
C62 O70 1.224 1_545 S
O63 C62 1.278 . S
C64 O65 1.245 . S
C64 O76 1.232 . S
O65 C64 1.245 . S
O66 Co60 2.058 . S
O66 C92 1.269 . S
O67 Co59 2.074 . S
O67 C92 1.257 . S
H68 C93 0.930 . S
H69 C99 0.930 1_545 S
O70 Co59 2.093 1_565 S
O70 C62 1.224 1_565 S
H71 C103 0.929 . S
H72 C105 0.930 . S
H73 C106 0.930 . S
H74 C104 0.929 . S
H75 C107 0.928 . S
O76 Co60 2.057 . S
O76 C64 1.232 . S
H77 C96 0.929 . S
H78 C97 0.929 . S
H79 C109 0.931 . S
H80 C101 0.929 . S
H81 C110 0.930 . S
H82 C102 0.931 . S
O83 Co59 2.097 . S
O83 C111 1.214 . S
H84 C112 0.929 . S
H85 C113 0.929 . S
H86 C114 0.930 . S
H87 C115 0.929 . S
H88 C117 0.930 . S
H89 C94 0.930 . S
H90 C98 0.930 . S
O91 Co60 2.037 . S
O91 C111 1.234 . S
C92 O66 1.269 . S
C92 O67 1.257 . S
C93 H68 0.930 . S
C93 C96 1.388 . S
C93 C98 1.418 . S
C94 H89 0.930 . S
C94 C97 1.404 . S
C94 C98 1.353 . S
N95 Co60 2.145 . S
N95 C96 1.397 . S
N95 C97 1.334 . S
C96 H77 0.929 . S
C96 C93 1.388 . S
C96 N95 1.397 . S
C97 H78 0.929 . S
C97 C94 1.404 . S
C97 N95 1.334 . S
C98 H90 0.930 . S
C98 C93 1.418 . S
C98 C94 1.353 . S
C99 H69 0.930 1_565 S
C99 N100 1.330 . S
C99 C101 1.446 . S
N100 Co59 2.151 1_565 S
N100 C99 1.330 . S
N100 C104 1.418 . S
C101 H80 0.929 . S
C101 C99 1.446 . S
C101 C102 1.332 . S
C102 H82 0.931 . S
C102 C101 1.332 . S
C102 C103 1.267 . S
C103 H71 0.929 . S
C103 C102 1.267 . S
C103 C104 1.251 . S
C104 H74 0.929 . S
C104 N100 1.418 . S
C104 C103 1.251 . S
C105 H72 0.930 . S
C105 C107 1.406 . S
C105 C110 1.261 . S
C106 H73 0.930 . S
C106 N108 1.325 . S
C106 C109 1.357 . S
C107 H75 0.928 . S
C107 C105 1.406 . S
C107 N108 1.261 . S
N108 Co59 2.214 1_565 S
N108 C106 1.325 . S
N108 C107 1.261 . S
C109 H79 0.931 . S
C109 C106 1.357 . S
C109 C110 1.312 . S
C110 H81 0.930 . S
C110 C105 1.261 . S
C110 C109 1.312 . S
C111 O83 1.214 . S
C111 O91 1.234 . S
C112 H84 0.929 . S
C112 C115 1.391 . S
C112 C117 1.391 . S
C113 H85 0.929 . S
C113 C114 1.390 . S
C113 N116 1.391 . S
C114 H86 0.930 . S
C114 C113 1.390 . S
C114 C115 1.392 . S
C115 H87 0.929 . S
C115 C112 1.391 . S
C115 C114 1.392 . S
N116 Co60 2.257 . S
N116 C113 1.391 . S
N116 C117 1.388 . S
C117 H88 0.930 . S
C117 C112 1.391 . S
C117 N116 1.388 . S
Co118 O120 2.143 . S
Co118 O126 2.074 . S
Co118 O129 2.093 . S
Co118 O142 2.097 . S
Co118 N159 2.151 . S
Co118 N167 2.214 . S
Co119 O120 2.160 . S
Co119 O125 2.058 . S
Co119 O135 2.057 . S
Co119 O150 2.037 . S
Co119 N154 2.145 . S
Co119 N175 2.257 . S
O120 Co118 2.143 . S
O120 Co119 2.160 . S
C121 O122 1.278 . S
C121 O129 1.224 . S
O122 C121 1.278 . S
C123 O124 1.245 . S
C123 O135 1.232 . S
O124 C123 1.245 . S
O125 Co119 2.058 . S
O125 C151 1.269 . S
O126 Co118 2.074 . S
O126 C151 1.257 . S
H127 C152 0.930 . S
H128 C158 0.930 . S
O129 Co118 2.093 . S
O129 C121 1.224 . S
H130 C162 0.929 . S
H131 C164 0.930 . S
H132 C165 0.930 . S
H133 C163 0.929 . S
H134 C166 0.928 . S
O135 Co119 2.057 . S
O135 C123 1.232 . S
H136 C155 0.929 . S
H137 C156 0.929 . S
H138 C168 0.931 . S
H139 C160 0.929 . S
H140 C169 0.930 . S
H141 C161 0.931 . S
O142 Co118 2.097 . S
O142 C170 1.214 . S
H143 C171 0.929 . S
H144 C172 0.929 . S
H145 C173 0.930 . S
H146 C174 0.929 . S
H147 C176 0.930 . S
H148 C153 0.930 . S
H149 C157 0.930 . S
O150 Co119 2.037 . S
O150 C170 1.234 . S
C151 O125 1.269 . S
C151 O126 1.257 . S
C152 H127 0.930 . S
C152 C155 1.388 . S
C152 C157 1.418 . S
C153 H148 0.930 . S
C153 C156 1.404 . S
C153 C157 1.353 . S
N154 Co119 2.145 . S
N154 C155 1.397 . S
N154 C156 1.334 . S
C155 H136 0.929 . S
C155 C152 1.388 . S
C155 N154 1.397 . S
C156 H137 0.929 . S
C156 C153 1.404 . S
C156 N154 1.334 . S
C157 H149 0.930 . S
C157 C152 1.418 . S
C157 C153 1.353 . S
C158 H128 0.930 . S
C158 N159 1.330 . S
C158 C160 1.446 . S
N159 Co118 2.151 . S
N159 C158 1.330 . S
N159 C163 1.418 . S
C160 H139 0.929 . S
C160 C158 1.446 . S
C160 C161 1.332 . S
C161 H141 0.931 . S
C161 C160 1.332 . S
C161 C162 1.267 . S
C162 H130 0.929 . S
C162 C161 1.267 . S
C162 C163 1.251 . S
C163 H133 0.929 . S
C163 N159 1.418 . S
C163 C162 1.251 . S
C164 H131 0.930 . S
C164 C166 1.406 . S
C164 C169 1.261 . S
C165 H132 0.930 . S
C165 N167 1.325 . S
C165 C168 1.357 . S
C166 H134 0.928 . S
C166 C164 1.406 . S
C166 N167 1.261 . S
N167 Co118 2.214 . S
N167 C165 1.325 . S
N167 C166 1.261 . S
C168 H138 0.931 . S
C168 C165 1.357 . S
C168 C169 1.312 . S
C169 H140 0.930 . S
C169 C164 1.261 . S
C169 C168 1.312 . S
C170 O142 1.214 . S
C170 O150 1.234 . S
C171 H143 0.929 . S
C171 C174 1.391 . S
C171 C176 1.391 . S
C172 H144 0.929 . S
C172 C173 1.390 . S
C172 N175 1.391 . S
C173 H145 0.930 . S
C173 C172 1.390 . S
C173 C174 1.392 . S
C174 H146 0.929 . S
C174 C171 1.391 . S
C174 C173 1.392 . S
N175 Co119 2.257 . S
N175 C172 1.391 . S
N175 C176 1.388 . S
C176 H147 0.930 . S
C176 C171 1.391 . S
C176 N175 1.388 . S
Co177 O179 2.143 . S
Co177 O185 2.074 . S
Co177 O188 2.093 1_655 S
Co177 O201 2.097 . S
Co177 N218 2.151 1_655 S
Co177 N226 2.214 1_655 S
Co178 O179 2.160 . S
Co178 O184 2.058 . S
Co178 O194 2.057 . S
Co178 O209 2.037 . S
Co178 N213 2.145 . S
Co178 N234 2.257 . S
O179 Co177 2.143 . S
O179 Co178 2.160 . S
C180 O181 1.278 . S
C180 O188 1.224 1_655 S
O181 C180 1.278 . S
C182 O183 1.245 . S
C182 O194 1.232 . S
O183 C182 1.245 . S
O184 Co178 2.058 . S
O184 C210 1.269 . S
O185 Co177 2.074 . S
O185 C210 1.257 . S
H186 C211 0.930 . S
H187 C217 0.930 1_655 S
O188 Co177 2.093 1_455 S
O188 C180 1.224 1_455 S
H189 C221 0.929 . S
H190 C223 0.930 . S
H191 C224 0.930 . S
H192 C222 0.929 . S
H193 C225 0.928 . S
O194 Co178 2.057 . S
O194 C182 1.232 . S
H195 C214 0.929 . S
H196 C215 0.929 . S
H197 C227 0.931 . S
H198 C219 0.929 . S
H199 C228 0.930 . S
H200 C220 0.931 . S
O201 Co177 2.097 . S
O201 C229 1.214 . S
H202 C230 0.929 . S
H203 C231 0.929 . S
H204 C232 0.930 . S
H205 C233 0.929 . S
H206 C235 0.930 . S
H207 C212 0.930 . S
H208 C216 0.930 . S
O209 Co178 2.037 . S
O209 C229 1.234 . S
C210 O184 1.269 . S
C210 O185 1.257 . S
C211 H186 0.930 . S
C211 C214 1.388 . S
C211 C216 1.418 . S
C212 H207 0.930 . S
C212 C215 1.404 . S
C212 C216 1.353 . S
N213 Co178 2.145 . S
N213 C214 1.397 . S
N213 C215 1.334 . S
C214 H195 0.929 . S
C214 C211 1.388 . S
C214 N213 1.397 . S
C215 H196 0.929 . S
C215 C212 1.404 . S
C215 N213 1.334 . S
C216 H208 0.930 . S
C216 C211 1.418 . S
C216 C212 1.353 . S
C217 H187 0.930 1_455 S
C217 N218 1.330 . S
C217 C219 1.446 . S
N218 Co177 2.151 1_455 S
N218 C217 1.330 . S
N218 C222 1.418 . S
C219 H198 0.929 . S
C219 C217 1.446 . S
C219 C220 1.332 . S
C220 H200 0.931 . S
C220 C219 1.332 . S
C220 C221 1.267 . S
C221 H189 0.929 . S
C221 C220 1.267 . S
C221 C222 1.251 . S
C222 H192 0.929 . S
C222 N218 1.418 . S
C222 C221 1.251 . S
C223 H190 0.930 . S
C223 C225 1.406 . S
C223 C228 1.261 . S
C224 H191 0.930 . S
C224 N226 1.325 . S
C224 C227 1.357 . S
C225 H193 0.928 . S
C225 C223 1.406 . S
C225 N226 1.261 . S
N226 Co177 2.214 1_455 S
N226 C224 1.325 . S
N226 C225 1.261 . S
C227 H197 0.931 . S
C227 C224 1.357 . S
C227 C228 1.312 . S
C228 H199 0.930 . S
C228 C223 1.261 . S
C228 C227 1.312 . S
C229 O201 1.214 . S
C229 O209 1.234 . S
C230 H202 0.929 . S
C230 C233 1.391 . S
C230 C235 1.391 . S
C231 H203 0.929 . S
C231 C232 1.390 . S
C231 N234 1.391 . S
C232 H204 0.930 . S
C232 C231 1.390 . S
C232 C233 1.392 . S
C233 H205 0.929 . S
C233 C230 1.391 . S
C233 C232 1.392 . S
N234 Co178 2.257 . S
N234 C231 1.391 . S
N234 C235 1.388 . S
C235 H206 0.930 . S
C235 C230 1.391 . S
C235 N234 1.388 . S
Co236 O238 2.143 . S
Co236 O244 2.074 . S
Co236 O247 2.093 1_565 S
Co236 O260 2.097 . S
Co236 N277 2.151 1_565 S
Co236 N285 2.214 1_565 S
Co237 O238 2.160 . S
Co237 O243 2.058 . S
Co237 O253 2.057 . S
Co237 O268 2.037 . S
Co237 N272 2.145 . S
Co237 N293 2.257 . S
O238 Co236 2.143 . S
O238 Co237 2.160 . S
C239 O240 1.278 . S
C239 O247 1.224 1_565 S
O240 C239 1.278 . S
C241 O242 1.245 . S
C241 O253 1.232 . S
O242 C241 1.245 . S
O243 Co237 2.058 . S
O243 C269 1.269 . S
O244 Co236 2.074 . S
O244 C269 1.257 . S
H245 C270 0.930 . S
H246 C276 0.930 1_565 S
O247 Co236 2.093 1_545 S
O247 C239 1.224 1_545 S
H248 C280 0.929 . S
H249 C282 0.930 . S
H250 C283 0.930 . S
H251 C281 0.929 . S
H252 C284 0.928 . S
O253 Co237 2.057 . S
O253 C241 1.232 . S
H254 C273 0.929 . S
H255 C274 0.929 . S
H256 C286 0.931 . S
H257 C278 0.929 . S
H258 C287 0.930 . S
H259 C279 0.931 . S
O260 Co236 2.097 . S
O260 C288 1.214 . S
H261 C289 0.929 . S
H262 C290 0.929 . S
H263 C291 0.930 . S
H264 C292 0.929 . S
H265 C294 0.930 . S
H266 C271 0.930 . S
H267 C275 0.930 . S
O268 Co237 2.037 . S
O268 C288 1.234 . S
C269 O243 1.269 . S
C269 O244 1.257 . S
C270 H245 0.930 . S
C270 C273 1.388 . S
C270 C275 1.418 . S
C271 H266 0.930 . S
C271 C274 1.404 . S
C271 C275 1.353 . S
N272 Co237 2.145 . S
N272 C273 1.397 . S
N272 C274 1.334 . S
C273 H254 0.929 . S
C273 C270 1.388 . S
C273 N272 1.397 . S
C274 H255 0.929 . S
C274 C271 1.404 . S
C274 N272 1.334 . S
C275 H267 0.930 . S
C275 C270 1.418 . S
C275 C271 1.353 . S
C276 H246 0.930 1_545 S
C276 N277 1.330 . S
C276 C278 1.446 . S
N277 Co236 2.151 1_545 S
N277 C276 1.330 . S
N277 C281 1.418 . S
C278 H257 0.929 . S
C278 C276 1.446 . S
C278 C279 1.332 . S
C279 H259 0.931 . S
C279 C278 1.332 . S
C279 C280 1.267 . S
C280 H248 0.929 . S
C280 C279 1.267 . S
C280 C281 1.251 . S
C281 H251 0.929 . S
C281 N277 1.418 . S
C281 C280 1.251 . S
C282 H249 0.930 . S
C282 C284 1.406 . S
C282 C287 1.261 . S
C283 H250 0.930 . S
C283 N285 1.325 . S
C283 C286 1.357 . S
C284 H252 0.928 . S
C284 C282 1.406 . S
C284 N285 1.261 . S
N285 Co236 2.214 1_545 S
N285 C283 1.325 . S
N285 C284 1.261 . S
C286 H256 0.931 . S
C286 C283 1.357 . S
C286 C287 1.312 . S
C287 H258 0.930 . S
C287 C282 1.261 . S
C287 C286 1.312 . S
C288 O260 1.214 . S
C288 O268 1.234 . S
C289 H261 0.929 . S
C289 C292 1.391 . S
C289 C294 1.391 . S
C290 H262 0.929 . S
C290 C291 1.390 . S
C290 N293 1.391 . S
C291 H263 0.930 . S
C291 C290 1.390 . S
C291 C292 1.392 . S
C292 H264 0.929 . S
C292 C289 1.391 . S
C292 C291 1.392 . S
N293 Co237 2.257 . S
N293 C290 1.391 . S
N293 C294 1.388 . S
C294 H265 0.930 . S
C294 C289 1.391 . S
C294 N293 1.388 . S
Co295 O297 2.143 . S
Co295 O303 2.074 . S
Co295 O306 2.093 . S
Co295 O319 2.097 . S
Co295 N336 2.151 . S
Co295 N344 2.214 . S
Co296 O297 2.160 . S
Co296 O302 2.058 . S
Co296 O312 2.057 . S
Co296 O327 2.037 . S
Co296 N331 2.145 . S
Co296 N352 2.257 . S
O297 Co295 2.143 . S
O297 Co296 2.160 . S
C298 O299 1.278 . S
C298 O306 1.224 . S
O299 C298 1.278 . S
C300 O301 1.245 . S
C300 O312 1.232 . S
O301 C300 1.245 . S
O302 Co296 2.058 . S
O302 C328 1.269 . S
O303 Co295 2.074 . S
O303 C328 1.257 . S
H304 C329 0.930 . S
H305 C335 0.930 . S
O306 Co295 2.093 . S
O306 C298 1.224 . S
H307 C339 0.929 . S
H308 C341 0.930 . S
H309 C342 0.930 . S
H310 C340 0.929 . S
H311 C343 0.928 . S
O312 Co296 2.057 . S
O312 C300 1.232 . S
H313 C332 0.929 . S
H314 C333 0.929 . S
H315 C345 0.931 . S
H316 C337 0.929 . S
H317 C346 0.930 . S
H318 C338 0.931 . S
O319 Co295 2.097 . S
O319 C347 1.214 . S
H320 C348 0.929 . S
H321 C349 0.929 . S
H322 C350 0.930 . S
H323 C351 0.929 . S
H324 C353 0.930 . S
H325 C330 0.930 . S
H326 C334 0.930 . S
O327 Co296 2.037 . S
O327 C347 1.234 . S
C328 O302 1.269 . S
C328 O303 1.257 . S
C329 H304 0.930 . S
C329 C332 1.388 . S
C329 C334 1.418 . S
C330 H325 0.930 . S
C330 C333 1.404 . S
C330 C334 1.353 . S
N331 Co296 2.145 . S
N331 C332 1.397 . S
N331 C333 1.334 . S
C332 H313 0.929 . S
C332 C329 1.388 . S
C332 N331 1.397 . S
C333 H314 0.929 . S
C333 C330 1.404 . S
C333 N331 1.334 . S
C334 H326 0.930 . S
C334 C329 1.418 . S
C334 C330 1.353 . S
C335 H305 0.930 . S
C335 N336 1.330 . S
C335 C337 1.446 . S
N336 Co295 2.151 . S
N336 C335 1.330 . S
N336 C340 1.418 . S
C337 H316 0.929 . S
C337 C335 1.446 . S
C337 C338 1.332 . S
C338 H318 0.931 . S
C338 C337 1.332 . S
C338 C339 1.267 . S
C339 H307 0.929 . S
C339 C338 1.267 . S
C339 C340 1.251 . S
C340 H310 0.929 . S
C340 N336 1.418 . S
C340 C339 1.251 . S
C341 H308 0.930 . S
C341 C343 1.406 . S
C341 C346 1.261 . S
C342 H309 0.930 . S
C342 N344 1.325 . S
C342 C345 1.357 . S
C343 H311 0.928 . S
C343 C341 1.406 . S
C343 N344 1.261 . S
N344 Co295 2.214 . S
N344 C342 1.325 . S
N344 C343 1.261 . S
C345 H315 0.931 . S
C345 C342 1.357 . S
C345 C346 1.312 . S
C346 H317 0.930 . S
C346 C341 1.261 . S
C346 C345 1.312 . S
C347 O319 1.214 . S
C347 O327 1.234 . S
C348 H320 0.929 . S
C348 C351 1.391 . S
C348 C353 1.391 . S
C349 H321 0.929 . S
C349 C350 1.390 . S
C349 N352 1.391 . S
C350 H322 0.930 . S
C350 C349 1.390 . S
C350 C351 1.392 . S
C351 H323 0.929 . S
C351 C348 1.391 . S
C351 C350 1.392 . S
N352 Co296 2.257 . S
N352 C349 1.391 . S
N352 C353 1.388 . S
C353 H324 0.930 . S
C353 C348 1.391 . S
C353 N352 1.388 . S
Co354 O356 2.143 . S
Co354 O362 2.074 . S
Co354 O365 2.093 1_565 S
Co354 O378 2.097 . S
Co354 N395 2.151 1_565 S
Co354 N403 2.214 1_565 S
Co355 O356 2.160 . S
Co355 O361 2.058 . S
Co355 O371 2.057 . S
Co355 O386 2.037 . S
Co355 N390 2.145 . S
Co355 N411 2.257 . S
O356 Co354 2.143 . S
O356 Co355 2.160 . S
C357 O358 1.278 . S
C357 O365 1.224 1_565 S
O358 C357 1.278 . S
C359 O360 1.245 . S
C359 O371 1.232 . S
O360 C359 1.245 . S
O361 Co355 2.058 . S
O361 C387 1.269 . S
O362 Co354 2.074 . S
O362 C387 1.257 . S
H363 C388 0.930 . S
H364 C394 0.930 1_565 S
O365 Co354 2.093 1_545 S
O365 C357 1.224 1_545 S
H366 C398 0.929 . S
H367 C400 0.930 . S
H368 C401 0.930 . S
H369 C399 0.929 . S
H370 C402 0.928 . S
O371 Co355 2.057 . S
O371 C359 1.232 . S
H372 C391 0.929 . S
H373 C392 0.929 . S
H374 C404 0.931 . S
H375 C396 0.929 . S
H376 C405 0.930 . S
H377 C397 0.931 . S
O378 Co354 2.097 . S
O378 C406 1.214 . S
H379 C407 0.929 . S
H380 C408 0.929 . S
H381 C409 0.930 . S
H382 C410 0.929 . S
H383 C412 0.930 . S
H384 C389 0.930 . S
H385 C393 0.930 . S
O386 Co355 2.037 . S
O386 C406 1.234 . S
C387 O361 1.269 . S
C387 O362 1.257 . S
C388 H363 0.930 . S
C388 C391 1.388 . S
C388 C393 1.418 . S
C389 H384 0.930 . S
C389 C392 1.404 . S
C389 C393 1.353 . S
N390 Co355 2.145 . S
N390 C391 1.397 . S
N390 C392 1.334 . S
C391 H372 0.929 . S
C391 C388 1.388 . S
C391 N390 1.397 . S
C392 H373 0.929 . S
C392 C389 1.404 . S
C392 N390 1.334 . S
C393 H385 0.930 . S
C393 C388 1.418 . S
C393 C389 1.353 . S
C394 H364 0.930 1_545 S
C394 N395 1.330 . S
C394 C396 1.446 . S
N395 Co354 2.151 1_545 S
N395 C394 1.330 . S
N395 C399 1.418 . S
C396 H375 0.929 . S
C396 C394 1.446 . S
C396 C397 1.332 . S
C397 H377 0.931 . S
C397 C396 1.332 . S
C397 C398 1.267 . S
C398 H366 0.929 . S
C398 C397 1.267 . S
C398 C399 1.251 . S
C399 H369 0.929 . S
C399 N395 1.418 . S
C399 C398 1.251 . S
C400 H367 0.930 . S
C400 C402 1.406 . S
C400 C405 1.261 . S
C401 H368 0.930 . S
C401 N403 1.325 . S
C401 C404 1.357 . S
C402 H370 0.928 . S
C402 C400 1.406 . S
C402 N403 1.261 . S
N403 Co354 2.214 1_545 S
N403 C401 1.325 . S
N403 C402 1.261 . S
C404 H374 0.931 . S
C404 C401 1.357 . S
C404 C405 1.312 . S
C405 H376 0.930 . S
C405 C400 1.261 . S
C405 C404 1.312 . S
C406 O378 1.214 . S
C406 O386 1.234 . S
C407 H379 0.929 . S
C407 C410 1.391 . S
C407 C412 1.391 . S
C408 H380 0.929 . S
C408 C409 1.390 . S
C408 N411 1.391 . S
C409 H381 0.930 . S
C409 C408 1.390 . S
C409 C410 1.392 . S
C410 H382 0.929 . S
C410 C407 1.391 . S
C410 C409 1.392 . S
N411 Co355 2.257 . S
N411 C408 1.391 . S
N411 C412 1.388 . S
C412 H383 0.930 . S
C412 C407 1.391 . S
C412 N411 1.388 . S
Co413 O415 2.143 . S
Co413 O421 2.074 . S
Co413 O424 2.093 . S
Co413 O437 2.097 . S
Co413 N454 2.151 . S
Co413 N462 2.214 . S
Co414 O415 2.160 . S
Co414 O420 2.058 . S
Co414 O430 2.057 . S
Co414 O445 2.037 . S
Co414 N449 2.145 . S
Co414 N470 2.257 . S
O415 Co413 2.143 . S
O415 Co414 2.160 . S
C416 O417 1.278 . S
C416 O424 1.224 . S
O417 C416 1.278 . S
C418 O419 1.245 . S
C418 O430 1.232 . S
O419 C418 1.245 . S
O420 Co414 2.058 . S
O420 C446 1.269 . S
O421 Co413 2.074 . S
O421 C446 1.257 . S
H422 C447 0.930 . S
H423 C453 0.930 . S
O424 Co413 2.093 . S
O424 C416 1.224 . S
H425 C457 0.929 . S
H426 C459 0.930 . S
H427 C460 0.930 . S
H428 C458 0.929 . S
H429 C461 0.928 . S
O430 Co414 2.057 . S
O430 C418 1.232 . S
H431 C450 0.929 . S
H432 C451 0.929 . S
H433 C463 0.931 . S
H434 C455 0.929 . S
H435 C464 0.930 . S
H436 C456 0.931 . S
O437 Co413 2.097 . S
O437 C465 1.214 . S
H438 C466 0.929 . S
H439 C467 0.929 . S
H440 C468 0.930 . S
H441 C469 0.929 . S
H442 C471 0.930 . S
H443 C448 0.930 . S
H444 C452 0.930 . S
O445 Co414 2.037 . S
O445 C465 1.234 . S
C446 O420 1.269 . S
C446 O421 1.257 . S
C447 H422 0.930 . S
C447 C450 1.388 . S
C447 C452 1.418 . S
C448 H443 0.930 . S
C448 C451 1.404 . S
C448 C452 1.353 . S
N449 Co414 2.145 . S
N449 C450 1.397 . S
N449 C451 1.334 . S
C450 H431 0.929 . S
C450 C447 1.388 . S
C450 N449 1.397 . S
C451 H432 0.929 . S
C451 C448 1.404 . S
C451 N449 1.334 . S
C452 H444 0.930 . S
C452 C447 1.418 . S
C452 C448 1.353 . S
C453 H423 0.930 . S
C453 N454 1.330 . S
C453 C455 1.446 . S
N454 Co413 2.151 . S
N454 C453 1.330 . S
N454 C458 1.418 . S
C455 H434 0.929 . S
C455 C453 1.446 . S
C455 C456 1.332 . S
C456 H436 0.931 . S
C456 C455 1.332 . S
C456 C457 1.267 . S
C457 H425 0.929 . S
C457 C456 1.267 . S
C457 C458 1.251 . S
C458 H428 0.929 . S
C458 N454 1.418 . S
C458 C457 1.251 . S
C459 H426 0.930 . S
C459 C461 1.406 . S
C459 C464 1.261 . S
C460 H427 0.930 . S
C460 N462 1.325 . S
C460 C463 1.357 . S
C461 H429 0.928 . S
C461 C459 1.406 . S
C461 N462 1.261 . S
N462 Co413 2.214 . S
N462 C460 1.325 . S
N462 C461 1.261 . S
C463 H433 0.931 . S
C463 C460 1.357 . S
C463 C464 1.312 . S
C464 H435 0.930 . S
C464 C459 1.261 . S
C464 C463 1.312 . S
C465 O437 1.214 . S
C465 O445 1.234 . S
C466 H438 0.929 . S
C466 C469 1.391 . S
C466 C471 1.391 . S
C467 H439 0.929 . S
C467 C468 1.390 . S
C467 N470 1.391 . S
C468 H440 0.930 . S
C468 C467 1.390 . S
C468 C469 1.392 . S
C469 H441 0.929 . S
C469 C466 1.391 . S
C469 C468 1.392 . S
N470 Co414 2.257 . S
N470 C467 1.391 . S
N470 C471 1.388 . S
C471 H442 0.930 . S
C471 C466 1.391 . S
C471 N470 1.388 . S
Co472 O474 2.143 . S
Co472 O480 2.074 . S
Co472 O483 2.093 1_455 S
Co472 O496 2.097 . S
Co472 N513 2.151 1_455 S
Co472 N521 2.214 1_455 S
Co473 O474 2.160 . S
Co473 O479 2.058 . S
Co473 O489 2.057 . S
Co473 O504 2.037 . S
Co473 N508 2.145 . S
Co473 N529 2.257 . S
O474 Co472 2.143 . S
O474 Co473 2.160 . S
C475 O476 1.278 . S
C475 O483 1.224 1_455 S
O476 C475 1.278 . S
C477 O478 1.245 . S
C477 O489 1.232 . S
O478 C477 1.245 . S
O479 Co473 2.058 . S
O479 C505 1.269 . S
O480 Co472 2.074 . S
O480 C505 1.257 . S
H481 C506 0.930 . S
H482 C512 0.930 1_455 S
O483 Co472 2.093 1_655 S
O483 C475 1.224 1_655 S
H484 C516 0.929 . S
H485 C518 0.930 . S
H486 C519 0.930 . S
H487 C517 0.929 . S
H488 C520 0.928 . S
O489 Co473 2.057 . S
O489 C477 1.232 . S
H490 C509 0.929 . S
H491 C510 0.929 . S
H492 C522 0.931 . S
H493 C514 0.929 . S
H494 C523 0.930 . S
H495 C515 0.931 . S
O496 Co472 2.097 . S
O496 C524 1.214 . S
H497 C525 0.929 . S
H498 C526 0.929 . S
H499 C527 0.930 . S
H500 C528 0.929 . S
H501 C530 0.930 . S
H502 C507 0.930 . S
H503 C511 0.930 . S
O504 Co473 2.037 . S
O504 C524 1.234 . S
C505 O479 1.269 . S
C505 O480 1.257 . S
C506 H481 0.930 . S
C506 C509 1.388 . S
C506 C511 1.418 . S
C507 H502 0.930 . S
C507 C510 1.404 . S
C507 C511 1.353 . S
N508 Co473 2.145 . S
N508 C509 1.397 . S
N508 C510 1.334 . S
C509 H490 0.929 . S
C509 C506 1.388 . S
C509 N508 1.397 . S
C510 H491 0.929 . S
C510 C507 1.404 . S
C510 N508 1.334 . S
C511 H503 0.930 . S
C511 C506 1.418 . S
C511 C507 1.353 . S
C512 H482 0.930 1_655 S
C512 N513 1.330 . S
C512 C514 1.446 . S
N513 Co472 2.151 1_655 S
N513 C512 1.330 . S
N513 C517 1.418 . S
C514 H493 0.929 . S
C514 C512 1.446 . S
C514 C515 1.332 . S
C515 H495 0.931 . S
C515 C514 1.332 . S
C515 C516 1.267 . S
C516 H484 0.929 . S
C516 C515 1.267 . S
C516 C517 1.251 . S
C517 H487 0.929 . S
C517 N513 1.418 . S
C517 C516 1.251 . S
C518 H485 0.930 . S
C518 C520 1.406 . S
C518 C523 1.261 . S
C519 H486 0.930 . S
C519 N521 1.325 . S
C519 C522 1.357 . S
C520 H488 0.928 . S
C520 C518 1.406 . S
C520 N521 1.261 . S
N521 Co472 2.214 1_655 S
N521 C519 1.325 . S
N521 C520 1.261 . S
C522 H492 0.931 . S
C522 C519 1.357 . S
C522 C523 1.312 . S
C523 H494 0.930 . S
C523 C518 1.261 . S
C523 C522 1.312 . S
C524 O496 1.214 . S
C524 O504 1.234 . S
C525 H497 0.929 . S
C525 C528 1.391 . S
C525 C530 1.391 . S
C526 H498 0.929 . S
C526 C527 1.390 . S
C526 N529 1.391 . S
C527 H499 0.930 . S
C527 C526 1.390 . S
C527 C528 1.392 . S
C528 H500 0.929 . S
C528 C525 1.391 . S
C528 C527 1.392 . S
N529 Co473 2.257 . S
N529 C526 1.391 . S
N529 C530 1.388 . S
C530 H501 0.930 . S
C530 C525 1.391 . S
C530 N529 1.388 . S
Co531 O533 2.143 . S
Co531 O539 2.074 . S
Co531 O542 2.093 1_545 S
Co531 O555 2.097 . S
Co531 N572 2.151 1_545 S
Co531 N580 2.214 1_545 S
Co532 O533 2.160 . S
Co532 O538 2.058 . S
Co532 O548 2.057 . S
Co532 O563 2.037 . S
Co532 N567 2.145 . S
Co532 N588 2.257 . S
O533 Co531 2.143 . S
O533 Co532 2.160 . S
C534 O535 1.278 . S
C534 O542 1.224 1_545 S
O535 C534 1.278 . S
C536 O537 1.245 . S
C536 O548 1.232 . S
O537 C536 1.245 . S
O538 Co532 2.058 . S
O538 C564 1.269 . S
O539 Co531 2.074 . S
O539 C564 1.257 . S
H540 C565 0.930 . S
H541 C571 0.930 1_545 S
O542 Co531 2.093 1_565 S
O542 C534 1.224 1_565 S
H543 C575 0.929 . S
H544 C577 0.930 . S
H545 C578 0.930 . S
H546 C576 0.929 . S
H547 C579 0.928 . S
O548 Co532 2.057 . S
O548 C536 1.232 . S
H549 C568 0.929 . S
H550 C569 0.929 . S
H551 C581 0.931 . S
H552 C573 0.929 . S
H553 C582 0.930 . S
H554 C574 0.931 . S
O555 Co531 2.097 . S
O555 C583 1.214 . S
H556 C584 0.929 . S
H557 C585 0.929 . S
H558 C586 0.930 . S
H559 C587 0.929 . S
H560 C589 0.930 . S
H561 C566 0.930 . S
H562 C570 0.930 . S
O563 Co532 2.037 . S
O563 C583 1.234 . S
C564 O538 1.269 . S
C564 O539 1.257 . S
C565 H540 0.930 . S
C565 C568 1.388 . S
C565 C570 1.418 . S
C566 H561 0.930 . S
C566 C569 1.404 . S
C566 C570 1.353 . S
N567 Co532 2.145 . S
N567 C568 1.397 . S
N567 C569 1.334 . S
C568 H549 0.929 . S
C568 C565 1.388 . S
C568 N567 1.397 . S
C569 H550 0.929 . S
C569 C566 1.404 . S
C569 N567 1.334 . S
C570 H562 0.930 . S
C570 C565 1.418 . S
C570 C566 1.353 . S
C571 H541 0.930 1_565 S
C571 N572 1.330 . S
C571 C573 1.446 . S
N572 Co531 2.151 1_565 S
N572 C571 1.330 . S
N572 C576 1.418 . S
C573 H552 0.929 . S
C573 C571 1.446 . S
C573 C574 1.332 . S
C574 H554 0.931 . S
C574 C573 1.332 . S
C574 C575 1.267 . S
C575 H543 0.929 . S
C575 C574 1.267 . S
C575 C576 1.251 . S
C576 H546 0.929 . S
C576 N572 1.418 . S
C576 C575 1.251 . S
C577 H544 0.930 . S
C577 C579 1.406 . S
C577 C582 1.261 . S
C578 H545 0.930 . S
C578 N580 1.325 . S
C578 C581 1.357 . S
C579 H547 0.928 . S
C579 C577 1.406 . S
C579 N580 1.261 . S
N580 Co531 2.214 1_565 S
N580 C578 1.325 . S
N580 C579 1.261 . S
C581 H551 0.931 . S
C581 C578 1.357 . S
C581 C582 1.312 . S
C582 H553 0.930 . S
C582 C577 1.261 . S
C582 C581 1.312 . S
C583 O555 1.214 . S
C583 O563 1.234 . S
C584 H556 0.929 . S
C584 C587 1.391 . S
C584 C589 1.391 . S
C585 H557 0.929 . S
C585 C586 1.390 . S
C585 N588 1.391 . S
C586 H558 0.930 . S
C586 C585 1.390 . S
C586 C587 1.392 . S
C587 H559 0.929 . S
C587 C584 1.391 . S
C587 C586 1.392 . S
N588 Co532 2.257 . S
N588 C585 1.391 . S
N588 C589 1.388 . S
C589 H560 0.930 . S
C589 C584 1.391 . S
C589 N588 1.388 . S
Co590 O592 2.143 . S
Co590 O598 2.074 . S
Co590 O601 2.093 . S
Co590 O614 2.097 . S
Co590 N631 2.151 . S
Co590 N639 2.214 . S
Co591 O592 2.160 . S
Co591 O597 2.058 . S
Co591 O607 2.057 . S
Co591 O622 2.037 . S
Co591 N626 2.145 . S
Co591 N647 2.257 . S
O592 Co590 2.143 . S
O592 Co591 2.160 . S
C593 O594 1.278 . S
C593 O601 1.224 . S
O594 C593 1.278 . S
C595 O596 1.245 . S
C595 O607 1.232 . S
O596 C595 1.245 . S
O597 Co591 2.058 . S
O597 C623 1.269 . S
O598 Co590 2.074 . S
O598 C623 1.257 . S
H599 C624 0.930 . S
H600 C630 0.930 . S
O601 Co590 2.093 . S
O601 C593 1.224 . S
H602 C634 0.929 . S
H603 C636 0.930 . S
H604 C637 0.930 . S
H605 C635 0.929 . S
H606 C638 0.928 . S
O607 Co591 2.057 . S
O607 C595 1.232 . S
H608 C627 0.929 . S
H609 C628 0.929 . S
H610 C640 0.931 . S
H611 C632 0.929 . S
H612 C641 0.930 . S
H613 C633 0.931 . S
O614 Co590 2.097 . S
O614 C642 1.214 . S
H615 C643 0.929 . S
H616 C644 0.929 . S
H617 C645 0.930 . S
H618 C646 0.929 . S
H619 C648 0.930 . S
H620 C625 0.930 . S
H621 C629 0.930 . S
O622 Co591 2.037 . S
O622 C642 1.234 . S
C623 O597 1.269 . S
C623 O598 1.257 . S
C624 H599 0.930 . S
C624 C627 1.388 . S
C624 C629 1.418 . S
C625 H620 0.930 . S
C625 C628 1.404 . S
C625 C629 1.353 . S
N626 Co591 2.145 . S
N626 C627 1.397 . S
N626 C628 1.334 . S
C627 H608 0.929 . S
C627 C624 1.388 . S
C627 N626 1.397 . S
C628 H609 0.929 . S
C628 C625 1.404 . S
C628 N626 1.334 . S
C629 H621 0.930 . S
C629 C624 1.418 . S
C629 C625 1.353 . S
C630 H600 0.930 . S
C630 N631 1.330 . S
C630 C632 1.446 . S
N631 Co590 2.151 . S
N631 C630 1.330 . S
N631 C635 1.418 . S
C632 H611 0.929 . S
C632 C630 1.446 . S
C632 C633 1.332 . S
C633 H613 0.931 . S
C633 C632 1.332 . S
C633 C634 1.267 . S
C634 H602 0.929 . S
C634 C633 1.267 . S
C634 C635 1.251 . S
C635 H605 0.929 . S
C635 N631 1.418 . S
C635 C634 1.251 . S
C636 H603 0.930 . S
C636 C638 1.406 . S
C636 C641 1.261 . S
C637 H604 0.930 . S
C637 N639 1.325 . S
C637 C640 1.357 . S
C638 H606 0.928 . S
C638 C636 1.406 . S
C638 N639 1.261 . S
N639 Co590 2.214 . S
N639 C637 1.325 . S
N639 C638 1.261 . S
C640 H610 0.931 . S
C640 C637 1.357 . S
C640 C641 1.312 . S
C641 H612 0.930 . S
C641 C636 1.261 . S
C641 C640 1.312 . S
C642 O614 1.214 . S
C642 O622 1.234 . S
C643 H615 0.929 . S
C643 C646 1.391 . S
C643 C648 1.391 . S
C644 H616 0.929 . S
C644 C645 1.390 . S
C644 N647 1.391 . S
C645 H617 0.930 . S
C645 C644 1.390 . S
C645 C646 1.392 . S
C646 H618 0.929 . S
C646 C643 1.391 . S
C646 C645 1.392 . S
N647 Co591 2.257 . S
N647 C644 1.391 . S
N647 C648 1.388 . S
C648 H619 0.930 . S
C648 C643 1.391 . S
C648 N647 1.388 . S
Co649 O651 2.143 . S
Co649 O657 2.074 . S
Co649 O660 2.093 1_655 S
Co649 O673 2.097 . S
Co649 N690 2.151 1_655 S
Co649 N698 2.214 1_655 S
Co650 O651 2.160 . S
Co650 O656 2.058 . S
Co650 O666 2.057 . S
Co650 O681 2.037 . S
Co650 N685 2.145 . S
Co650 N706 2.257 . S
O651 Co649 2.143 . S
O651 Co650 2.160 . S
C652 O653 1.278 . S
C652 O660 1.224 1_655 S
O653 C652 1.278 . S
C654 O655 1.245 . S
C654 O666 1.232 . S
O655 C654 1.245 . S
O656 Co650 2.058 . S
O656 C682 1.269 . S
O657 Co649 2.074 . S
O657 C682 1.257 . S
H658 C683 0.930 . S
H659 C689 0.930 1_655 S
O660 Co649 2.093 1_455 S
O660 C652 1.224 1_455 S
H661 C693 0.929 . S
H662 C695 0.930 . S
H663 C696 0.930 . S
H664 C694 0.929 . S
H665 C697 0.928 . S
O666 Co650 2.057 . S
O666 C654 1.232 . S
H667 C686 0.929 . S
H668 C687 0.929 . S
H669 C699 0.931 . S
H670 C691 0.929 . S
H671 C700 0.930 . S
H672 C692 0.931 . S
O673 Co649 2.097 . S
O673 C701 1.214 . S
H674 C702 0.929 . S
H675 C703 0.929 . S
H676 C704 0.930 . S
H677 C705 0.929 . S
H678 C707 0.930 . S
H679 C684 0.930 . S
H680 C688 0.930 . S
O681 Co650 2.037 . S
O681 C701 1.234 . S
C682 O656 1.269 . S
C682 O657 1.257 . S
C683 H658 0.930 . S
C683 C686 1.388 . S
C683 C688 1.418 . S
C684 H679 0.930 . S
C684 C687 1.404 . S
C684 C688 1.353 . S
N685 Co650 2.145 . S
N685 C686 1.397 . S
N685 C687 1.334 . S
C686 H667 0.929 . S
C686 C683 1.388 . S
C686 N685 1.397 . S
C687 H668 0.929 . S
C687 C684 1.404 . S
C687 N685 1.334 . S
C688 H680 0.930 . S
C688 C683 1.418 . S
C688 C684 1.353 . S
C689 H659 0.930 1_455 S
C689 N690 1.330 . S
C689 C691 1.446 . S
N690 Co649 2.151 1_455 S
N690 C689 1.330 . S
N690 C694 1.418 . S
C691 H670 0.929 . S
C691 C689 1.446 . S
C691 C692 1.332 . S
C692 H672 0.931 . S
C692 C691 1.332 . S
C692 C693 1.267 . S
C693 H661 0.929 . S
C693 C692 1.267 . S
C693 C694 1.251 . S
C694 H664 0.929 . S
C694 N690 1.418 . S
C694 C693 1.251 . S
C695 H662 0.930 . S
C695 C697 1.406 . S
C695 C700 1.261 . S
C696 H663 0.930 . S
C696 N698 1.325 . S
C696 C699 1.357 . S
C697 H665 0.928 . S
C697 C695 1.406 . S
C697 N698 1.261 . S
N698 Co649 2.214 1_455 S
N698 C696 1.325 . S
N698 C697 1.261 . S
C699 H669 0.931 . S
C699 C696 1.357 . S
C699 C700 1.312 . S
C700 H671 0.930 . S
C700 C695 1.261 . S
C700 C699 1.312 . S
C701 O673 1.214 . S
C701 O681 1.234 . S
C702 H674 0.929 . S
C702 C705 1.391 . S
C702 C707 1.391 . S
C703 H675 0.929 . S
C703 C704 1.390 . S
C703 N706 1.391 . S
C704 H676 0.930 . S
C704 C703 1.390 . S
C704 C705 1.392 . S
C705 H677 0.929 . S
C705 C702 1.391 . S
C705 C704 1.392 . S
N706 Co650 2.257 . S
N706 C703 1.391 . S
N706 C707 1.388 . S
C707 H678 0.930 . S
C707 C702 1.391 . S
C707 N706 1.388 . S
H708 C720 0.930 . S
H709 C722 0.930 . S
H710 C723 0.930 . S
H711 C727 0.959 . S
H712 C727 0.959 . S
H713 C727 0.961 1_554 S
H714 C728 0.960 . S
H715 C728 0.961 1_556 S
H716 C728 0.959 . S
H717 C731 0.929 . S
H718 C732 0.931 . S
H719 C734 0.930 . S
C720 H708 0.930 . S
C720 C721 1.399 . S
C720 C725 1.399 . S
C721 C720 1.399 . S
C721 C722 1.376 . S
C722 H709 0.930 . S
C722 C721 1.376 . S
C722 C723 1.388 . S
C723 H710 0.930 . S
C723 C722 1.388 . S
C723 C724 1.389 . S
C724 C723 1.389 . S
C724 C725 1.395 . S
C724 C730 1.465 1_454 S
C725 C720 1.399 . S
C725 C724 1.395 . S
C725 C726 1.516 1_455 S
C726 C725 1.516 1_655 S
C726 C727 1.502 1_654 S
C726 C728 1.561 . S
C726 C729 1.526 1_554 S
C727 H711 0.959 . S
C727 H712 0.959 . S
C727 H713 0.961 1_556 S
C727 C726 1.502 1_456 S
C728 H714 0.960 . S
C728 H715 0.961 1_554 S
C728 H716 0.959 . S
C728 C726 1.561 . S
C729 C726 1.526 1_556 S
C729 C730 1.396 . S
C729 C734 1.390 . S
C730 C724 1.465 1_656 S
C730 C729 1.396 . S
C730 C731 1.399 . S
C731 H717 0.929 . S
C731 C730 1.399 . S
C731 C732 1.385 . S
C732 H718 0.931 . S
C732 C731 1.385 . S
C732 C733 1.389 . S
C733 C732 1.389 . S
C733 C734 1.387 . S
C734 H719 0.930 . S
C734 C729 1.390 . S
C734 C733 1.387 . S
H735 C747 0.930 . S
H736 C749 0.930 . S
H737 C750 0.930 . S
H738 C754 0.959 . S
H739 C754 0.959 . S
H740 C754 0.961 . S
H741 C755 0.960 . S
H742 C755 0.961 . S
H743 C755 0.959 . S
H744 C758 0.929 . S
H745 C759 0.931 . S
H746 C761 0.930 . S
C747 H735 0.930 . S
C747 C748 1.399 . S
C747 C752 1.399 . S
C748 C747 1.399 . S
C748 C749 1.376 1_565 S
C749 H736 0.930 . S
C749 C748 1.376 1_545 S
C749 C750 1.388 . S
C750 H737 0.930 . S
C750 C749 1.388 . S
C750 C751 1.390 . S
C751 C750 1.390 . S
C751 C752 1.394 1_545 S
C751 C757 1.465 . S
C752 C747 1.399 . S
C752 C751 1.394 1_565 S
C752 C753 1.516 . S
C753 C752 1.516 . S
C753 C754 1.502 . S
C753 C755 1.561 . S
C753 C756 1.526 . S
C754 H738 0.959 . S
C754 H739 0.959 . S
C754 H740 0.961 . S
C754 C753 1.502 . S
C755 H741 0.960 . S
C755 H742 0.961 . S
C755 H743 0.959 . S
C755 C753 1.561 . S
C756 C753 1.526 . S
C756 C757 1.396 1_565 S
C756 C761 1.390 . S
C757 C751 1.465 . S
C757 C756 1.396 1_545 S
C757 C758 1.399 . S
C758 H744 0.929 . S
C758 C757 1.399 . S
C758 C759 1.385 . S
C759 H745 0.931 . S
C759 C758 1.385 . S
C759 C760 1.389 . S
C760 C759 1.389 . S
C760 C761 1.387 1_545 S
C761 H746 0.930 . S
C761 C756 1.390 . S
C761 C760 1.387 1_565 S
H762 C774 0.930 . S
H763 C776 0.930 . S
H764 C777 0.930 . S
H765 C781 0.959 . S
H766 C781 0.959 1_556 S
H767 C781 0.961 . S
H768 C782 0.960 . S
H769 C782 0.961 1_556 S
H770 C782 0.959 1_556 S
H771 C785 0.929 . S
H772 C786 0.931 . S
H773 C788 0.930 . S
C774 H762 0.930 . S
C774 C775 1.399 . S
C774 C779 1.399 . S
C775 C774 1.399 . S
C775 C776 1.376 . S
C776 H763 0.930 . S
C776 C775 1.376 . S
C776 C777 1.388 . S
C777 H764 0.930 . S
C777 C776 1.388 . S
C777 C778 1.390 . S
C778 C777 1.390 . S
C778 C779 1.394 . S
C778 C784 1.465 1_554 S
C779 C774 1.399 . S
C779 C778 1.394 . S
C779 C780 1.516 . S
C780 C779 1.516 . S
C780 C781 1.502 . S
C780 C782 1.561 . S
C780 C783 1.526 1_554 S
C781 H765 0.959 . S
C781 H766 0.959 1_554 S
C781 H767 0.961 . S
C781 C780 1.502 . S
C782 H768 0.960 . S
C782 H769 0.961 1_554 S
C782 H770 0.959 1_554 S
C782 C780 1.561 . S
C783 C780 1.526 1_556 S
C783 C784 1.396 . S
C783 C788 1.390 . S
C784 C778 1.465 1_556 S
C784 C783 1.396 . S
C784 C785 1.399 . S
C785 H771 0.929 . S
C785 C784 1.399 . S
C785 C786 1.385 . S
C786 H772 0.931 . S
C786 C785 1.385 . S
C786 C787 1.389 . S
C787 C786 1.389 . S
C787 C788 1.387 . S
C788 H773 0.930 . S
C788 C783 1.390 . S
C788 C787 1.387 . S
H789 C801 0.930 . S
H790 C803 0.930 . S
H791 C804 0.930 . S
H792 C808 0.959 . S
H793 C808 0.959 . S
H794 C808 0.961 . S
H795 C809 0.960 . S
H796 C809 0.961 . S
H797 C809 0.959 1_655 S
H798 C812 0.929 . S
H799 C813 0.931 . S
H800 C815 0.931 . S
C801 H789 0.930 . S
C801 C802 1.399 . S
C801 C806 1.399 . S
C802 C801 1.399 . S
C802 C803 1.376 1_455 S
C803 H790 0.930 . S
C803 C802 1.376 1_655 S
C803 C804 1.388 . S
C804 H791 0.930 . S
C804 C803 1.388 . S
C804 C805 1.390 . S
C805 C804 1.390 . S
C805 C806 1.394 1_655 S
C805 C811 1.465 . S
C806 C801 1.399 . S
C806 C805 1.394 1_455 S
C806 C807 1.516 . S
C807 C806 1.516 . S
C807 C808 1.502 . S
C807 C809 1.561 . S
C807 C810 1.526 . S
C808 H792 0.959 . S
C808 H793 0.959 . S
C808 H794 0.961 . S
C808 C807 1.502 . S
C809 H795 0.960 . S
C809 H796 0.961 . S
C809 H797 0.959 1_455 S
C809 C807 1.561 . S
C810 C807 1.526 . S
C810 C811 1.396 1_455 S
C810 C815 1.391 . S
C811 C805 1.465 . S
C811 C810 1.396 1_655 S
C811 C812 1.399 . S
C812 H798 0.929 . S
C812 C811 1.399 . S
C812 C813 1.385 . S
C813 H799 0.931 . S
C813 C812 1.385 . S
C813 C814 1.389 . S
C814 C813 1.389 . S
C814 C815 1.384 1_655 S
C815 H800 0.931 . S
C815 C810 1.391 . S
C815 C814 1.384 1_455 S
H816 C828 0.930 . S
H817 C830 0.930 . S
H818 C831 0.930 . S
H819 C835 0.967 . S
H820 C835 0.959 1_554 S
H821 C835 0.961 . S
H822 C836 0.960 . S
H823 C836 0.957 1_554 S
H824 C836 0.959 . S
H825 C839 0.929 . S
H826 C840 0.931 . S
H827 C842 0.930 . S
C828 H816 0.930 . S
C828 C829 1.399 1_565 S
C828 C833 1.399 . S
C829 C828 1.399 1_545 S
C829 C830 1.376 . S
C830 H817 0.930 . S
C830 C829 1.376 . S
C830 C831 1.388 . S
C831 H818 0.930 . S
C831 C830 1.388 . S
C831 C832 1.390 . S
C832 C831 1.390 . S
C832 C833 1.394 1_545 S
C832 C838 1.465 1_556 S
C833 C828 1.399 . S
C833 C832 1.394 1_565 S
C833 C834 1.516 . S
C834 C833 1.516 . S
C834 C835 1.502 . S
C834 C836 1.561 . S
C834 C837 1.526 1_556 S
C835 H819 0.967 . S
C835 H820 0.959 1_556 S
C835 H821 0.961 . S
C835 C834 1.502 . S
C836 H822 0.960 . S
C836 H823 0.957 1_556 S
C836 H824 0.959 . S
C836 C834 1.561 . S
C837 C834 1.526 1_554 S
C837 C838 1.396 1_565 S
C837 C842 1.390 . S
C838 C832 1.465 1_554 S
C838 C837 1.396 1_545 S
C838 C839 1.399 . S
C839 H825 0.929 . S
C839 C838 1.399 . S
C839 C840 1.385 . S
C840 H826 0.931 . S
C840 C839 1.385 . S
C840 C841 1.389 1_545 S
C841 C840 1.389 1_565 S
C841 C842 1.387 . S
C842 H827 0.930 . S
C842 C837 1.390 . S
C842 C841 1.387 . S
H843 C855 0.930 . S
H844 C857 0.930 . S
H845 C858 0.930 . S
H846 C862 0.959 . S
H847 C862 0.959 . S
H848 C862 0.961 . S
H849 C863 0.960 . S
H850 C863 0.961 . S
H851 C863 0.959 . S
H852 C866 0.929 . S
H853 C867 0.931 . S
H854 C869 0.930 . S
C855 H843 0.930 . S
C855 C856 1.399 . S
C855 C860 1.399 . S
C856 C855 1.399 . S
C856 C857 1.376 . S
C857 H844 0.930 . S
C857 C856 1.376 . S
C857 C858 1.388 . S
C858 H845 0.930 . S
C858 C857 1.388 . S
C858 C859 1.390 . S
C859 C858 1.390 . S
C859 C860 1.394 . S
C859 C865 1.465 . S
C860 C855 1.399 . S
C860 C859 1.394 . S
C860 C861 1.516 . S
C861 C860 1.516 . S
C861 C862 1.502 . S
C861 C863 1.561 . S
C861 C864 1.526 . S
C862 H846 0.959 . S
C862 H847 0.959 . S
C862 H848 0.961 . S
C862 C861 1.502 . S
C863 H849 0.960 . S
C863 H850 0.961 . S
C863 H851 0.959 . S
C863 C861 1.561 . S
C864 C861 1.526 . S
C864 C865 1.396 . S
C864 C869 1.390 . S
C865 C859 1.465 . S
C865 C864 1.396 . S
C865 C866 1.399 . S
C866 H852 0.929 . S
C866 C865 1.399 . S
C866 C867 1.385 . S
C867 H853 0.931 . S
C867 C866 1.385 . S
C867 C868 1.389 . S
C868 C867 1.389 . S
C868 C869 1.387 . S
C869 H854 0.930 . S
C869 C864 1.390 . S
C869 C868 1.387 . S
H870 C882 0.930 . S
H871 C884 0.930 . S
H872 C885 0.930 . S
H873 C889 0.959 . S
H874 C889 0.959 . S
H875 C889 0.961 1_556 S
H876 C890 0.960 . S
H877 C890 0.961 1_554 S
H878 C890 0.959 . S
H879 C893 0.929 . S
H880 C894 0.931 . S
H881 C896 0.930 . S
C882 H870 0.930 . S
C882 C883 1.399 . S
C882 C887 1.399 . S
C883 C882 1.399 . S
C883 C884 1.376 . S
C884 H871 0.930 . S
C884 C883 1.376 . S
C884 C885 1.388 1_655 S
C885 H872 0.930 . S
C885 C884 1.388 1_455 S
C885 C886 1.390 . S
C886 C885 1.390 . S
C886 C887 1.394 1_455 S
C886 C892 1.465 1_556 S
C887 C882 1.399 . S
C887 C886 1.394 1_655 S
C887 C888 1.499 1_556 S
C888 C887 1.499 1_554 S
C888 C889 1.505 . S
C888 C890 1.559 1_654 S
C888 C891 1.542 1_655 S
C889 H873 0.959 . S
C889 H874 0.959 . S
C889 H875 0.961 1_554 S
C889 C888 1.505 . S
C890 H876 0.960 . S
C890 H877 0.961 1_556 S
C890 H878 0.959 . S
C890 C888 1.559 1_456 S
C891 C888 1.542 1_455 S
C891 C892 1.396 . S
C891 C896 1.390 . S
C892 C886 1.465 1_554 S
C892 C891 1.396 . S
C892 C893 1.399 . S
C893 H879 0.929 . S
C893 C892 1.399 . S
C893 C894 1.385 . S
C894 H880 0.931 . S
C894 C893 1.385 . S
C894 C895 1.389 . S
C895 C894 1.389 . S
C895 C896 1.387 . S
C896 H881 0.930 . S
C896 C891 1.390 . S
C896 C895 1.387 . S
H897 C909 0.930 . S
H898 C911 0.930 . S
H899 C912 0.930 . S
H900 C916 0.959 . S
H901 C916 0.959 . S
H902 C916 0.961 . S
H903 C917 0.960 . S
H904 C917 0.961 . S
H905 C917 0.959 . S
H906 C920 0.929 . S
H907 C921 0.931 . S
H908 C923 0.930 . S
C909 H897 0.930 . S
C909 C910 1.399 1_545 S
C909 C914 1.399 . S
C910 C909 1.399 1_565 S
C910 C911 1.376 . S
C911 H898 0.930 . S
C911 C910 1.376 . S
C911 C912 1.388 . S
C912 H899 0.930 . S
C912 C911 1.388 . S
C912 C913 1.390 . S
C913 C912 1.390 . S
C913 C914 1.394 1_565 S
C913 C919 1.465 . S
C914 C909 1.399 . S
C914 C913 1.394 1_545 S
C914 C915 1.516 . S
C915 C914 1.516 . S
C915 C916 1.502 . S
C915 C917 1.561 . S
C915 C918 1.526 . S
C916 H900 0.959 . S
C916 H901 0.959 . S
C916 H902 0.961 . S
C916 C915 1.502 . S
C917 H903 0.960 . S
C917 H904 0.961 . S
C917 H905 0.959 . S
C917 C915 1.561 . S
C918 C915 1.526 . S
C918 C919 1.396 1_545 S
C918 C923 1.390 . S
C919 C913 1.465 . S
C919 C918 1.396 1_565 S
C919 C920 1.399 . S
C920 H906 0.929 . S
C920 C919 1.399 . S
C920 C921 1.385 . S
C921 H907 0.931 . S
C921 C920 1.385 . S
C921 C922 1.389 1_565 S
C922 C921 1.389 1_545 S
C922 C923 1.387 . S
C923 H908 0.930 . S
C923 C918 1.390 . S
C923 C922 1.387 . S
H924 C936 0.930 . S
H925 C938 0.930 . S
H926 C939 0.930 . S
H927 C943 0.959 . S
H928 C943 0.959 1_554 S
H929 C943 0.961 . S
H930 C944 0.960 1_556 S
H931 C944 0.961 . S
H932 C944 0.959 . S
H933 C947 0.929 . S
H934 C948 0.931 . S
H935 C950 0.930 . S
C936 H924 0.930 . S
C936 C937 1.399 . S
C936 C941 1.399 . S
C937 C936 1.399 . S
C937 C938 1.376 . S
C938 H925 0.930 . S
C938 C937 1.376 . S
C938 C939 1.388 . S
C939 H926 0.930 . S
C939 C938 1.388 . S
C939 C940 1.390 . S
C940 C939 1.390 . S
C940 C941 1.394 . S
C940 C946 1.465 1_556 S
C941 C936 1.399 . S
C941 C940 1.394 . S
C941 C942 1.516 1_556 S
C942 C941 1.516 1_554 S
C942 C943 1.502 1_554 S
C942 C944 1.561 . S
C942 C945 1.526 . S
C943 H927 0.959 . S
C943 H928 0.959 1_556 S
C943 H929 0.961 . S
C943 C942 1.502 1_556 S
C944 H930 0.960 1_554 S
C944 H931 0.961 . S
C944 H932 0.959 . S
C944 C942 1.561 . S
C945 C942 1.526 . S
C945 C946 1.396 . S
C945 C950 1.390 . S
C946 C940 1.465 1_554 S
C946 C945 1.396 . S
C946 C947 1.399 . S
C947 H933 0.929 . S
C947 C946 1.399 . S
C947 C948 1.385 . S
C948 H934 0.931 . S
C948 C947 1.385 . S
C948 C949 1.389 . S
C949 C948 1.389 . S
C949 C950 1.387 . S
C950 H935 0.930 . S
C950 C945 1.390 . S
C950 C949 1.387 . S
H951 C963 0.930 . S
H952 C965 0.930 . S
H953 C966 0.930 . S
H954 C970 0.959 . S
H955 C970 0.959 . S
H956 C970 0.961 . S
H957 C971 0.960 . S
H958 C971 0.961 . S
H959 C971 0.959 . S
H960 C974 0.929 . S
H961 C975 0.931 . S
H962 C977 0.930 . S
C963 H951 0.930 . S
C963 C964 1.399 . S
C963 C968 1.399 . S
C964 C963 1.399 . S
C964 C965 1.376 . S
C965 H952 0.930 . S
C965 C964 1.376 . S
C965 C966 1.388 . S
C966 H953 0.930 . S
C966 C965 1.388 . S
C966 C967 1.390 . S
C967 C966 1.390 . S
C967 C968 1.394 . S
C967 C973 1.465 1_655 S
C968 C963 1.399 . S
C968 C967 1.394 . S
C968 C969 1.516 . S
C969 C968 1.516 . S
C969 C970 1.502 1_655 S
C969 C971 1.561 . S
C969 C972 1.531 1_655 S
C970 H954 0.959 . S
C970 H955 0.959 . S
C970 H956 0.961 . S
C970 C969 1.502 1_455 S
C971 H957 0.960 . S
C971 H958 0.961 . S
C971 H959 0.959 . S
C971 C969 1.561 . S
C972 C969 1.531 1_455 S
C972 C973 1.377 . S
C972 C977 1.401 . S
C973 C967 1.465 1_455 S
C973 C972 1.377 . S
C973 C974 1.399 . S
C974 H960 0.929 . S
C974 C973 1.399 . S
C974 C975 1.385 . S
C975 H961 0.931 . S
C975 C974 1.385 . S
C975 C976 1.389 . S
C976 C975 1.389 . S
C976 C977 1.387 . S
C977 H962 0.930 . S
C977 C972 1.401 . S
C977 C976 1.387 . S
H978 C990 0.930 . S
H979 C992 0.930 . S
H980 C993 0.930 . S
H981 C997 0.959 . S
H982 C997 0.959 . S
H983 C997 0.961 1_556 S
H984 C998 0.960 1_556 S
H985 C998 0.961 . S
H986 C998 0.959 . S
H987 C1001 0.929 . S
H988 C1002 0.931 . S
H989 C1004 0.930 . S
C990 H978 0.930 . S
C990 C991 1.399 . S
C990 C995 1.399 . S
C991 C990 1.399 . S
C991 C992 1.376 1_545 S
C992 H979 0.930 . S
C992 C991 1.376 1_565 S
C992 C993 1.388 . S
C993 H980 0.930 . S
C993 C992 1.388 . S
C993 C994 1.390 . S
C994 C993 1.390 . S
C994 C995 1.394 1_565 S
C994 C1000 1.465 1_556 S
C995 C990 1.399 . S
C995 C994 1.394 1_545 S
C995 C996 1.516 1_556 S
C996 C995 1.516 1_554 S
C996 C997 1.502 . S
C996 C998 1.561 . S
C996 C999 1.526 . S
C997 H981 0.959 . S
C997 H982 0.959 . S
C997 H983 0.961 1_554 S
C997 C996 1.502 . S
C998 H984 0.960 1_554 S
C998 H985 0.961 . S
C998 H986 0.959 . S
C998 C996 1.561 . S
C999 C996 1.526 . S
C999 C1000 1.396 1_545 S
C999 C1004 1.390 . S
C1000 C994 1.465 1_554 S
C1000 C999 1.396 1_565 S
C1000 C1001 1.399 . S
C1001 H987 0.929 . S
C1001 C1000 1.399 . S
C1001 C1002 1.385 . S
C1002 H988 0.931 . S
C1002 C1001 1.385 . S
C1002 C1003 1.389 . S
C1003 C1002 1.389 . S
C1003 C1004 1.387 1_565 S
C1004 H989 0.930 . S
C1004 C999 1.390 . S
C1004 C1003 1.387 1_545 S
H1005 C1017 0.930 . S
H1006 C1019 0.930 . S
H1007 C1020 0.930 . S
H1008 C1024 0.959 . S
H1009 C1024 0.959 . S
H1010 C1024 0.961 . S
H1011 C1025 0.960 . S
H1012 C1025 0.961 . S
H1013 C1025 0.959 . S
H1014 C1028 0.929 . S
H1015 C1029 0.931 . S
H1016 C1031 0.930 . S
C1017 H1005 0.930 . S
C1017 C1018 1.399 . S
C1017 C1022 1.399 . S
C1018 C1017 1.399 . S
C1018 C1019 1.376 . S
C1019 H1006 0.930 . S
C1019 C1018 1.376 . S
C1019 C1020 1.388 . S
C1020 H1007 0.930 . S
C1020 C1019 1.388 . S
C1020 C1021 1.390 . S
C1021 C1020 1.390 . S
C1021 C1022 1.394 . S
C1021 C1027 1.465 . S
C1022 C1017 1.399 . S
C1022 C1021 1.394 . S
C1022 C1023 1.516 . S
C1023 C1022 1.516 . S
C1023 C1024 1.502 . S
C1023 C1025 1.561 . S
C1023 C1026 1.526 . S
C1024 H1008 0.959 . S
C1024 H1009 0.959 . S
C1024 H1010 0.961 . S
C1024 C1023 1.502 . S
C1025 H1011 0.960 . S
C1025 H1012 0.961 . S
C1025 H1013 0.959 . S
C1025 C1023 1.561 . S
C1026 C1023 1.526 . S
C1026 C1027 1.396 . S
C1026 C1031 1.390 . S
C1027 C1021 1.465 . S
C1027 C1026 1.396 . S
C1027 C1028 1.399 . S
C1028 H1014 0.929 . S
C1028 C1027 1.399 . S
C1028 C1029 1.385 . S
C1029 H1015 0.931 . S
C1029 C1028 1.385 . S
C1029 C1030 1.389 . S
C1030 C1029 1.389 . S
C1030 C1031 1.387 . S
C1031 H1016 0.930 . S
C1031 C1026 1.390 . S
C1031 C1030 1.387 . S
H1032 C1044 0.930 . S
H1033 C1046 0.930 . S
H1034 C1047 0.930 . S
H1035 C1051 0.959 . S
H1036 C1051 0.959 . S
H1037 C1051 0.961 . S
H1038 C1052 0.960 . S
H1039 C1052 0.961 . S
H1040 C1052 0.959 1_655 S
H1041 C1055 0.929 . S
H1042 C1056 0.931 . S
H1043 C1058 0.930 . S
C1044 H1032 0.930 . S
C1044 C1045 1.399 . S
C1044 C1049 1.399 . S
C1045 C1044 1.399 . S
C1045 C1046 1.376 . S
C1046 H1033 0.930 . S
C1046 C1045 1.376 . S
C1046 C1047 1.388 . S
C1047 H1034 0.930 . S
C1047 C1046 1.388 . S
C1047 C1048 1.390 . S
C1048 C1047 1.390 . S
C1048 C1049 1.394 . S
C1048 C1054 1.465 . S
C1049 C1044 1.399 . S
C1049 C1048 1.394 . S
C1049 C1050 1.516 . S
C1050 C1049 1.516 . S
C1050 C1051 1.502 . S
C1050 C1052 1.561 . S
C1050 C1053 1.526 . S
C1051 H1035 0.959 . S
C1051 H1036 0.959 . S
C1051 H1037 0.961 . S
C1051 C1050 1.502 . S
C1052 H1038 0.960 . S
C1052 H1039 0.961 . S
C1052 H1040 0.959 1_455 S
C1052 C1050 1.561 . S
C1053 C1050 1.526 . S
C1053 C1054 1.396 . S
C1053 C1058 1.390 . S
C1054 C1048 1.465 . S
C1054 C1053 1.396 . S
C1054 C1055 1.399 . S
C1055 H1041 0.929 . S
C1055 C1054 1.399 . S
C1055 C1056 1.385 . S
C1056 H1042 0.931 . S
C1056 C1055 1.385 . S
C1056 C1057 1.389 . S
C1057 C1056 1.389 . S
C1057 C1058 1.387 . S
C1058 H1043 0.930 . S
C1058 C1053 1.390 . S
C1058 C1057 1.387 . S
H1059 C1071 0.930 1_565 S
H1060 C1073 0.930 . S
H1061 C1074 0.930 . S
H1062 C1078 0.959 . S
H1063 C1078 0.959 . S
H1064 C1078 0.961 . S
H1065 C1079 0.960 . S
H1066 C1079 0.961 . S
H1067 C1079 0.959 . S
H1068 C1082 0.929 . S
H1069 C1083 0.931 . S
H1070 C1085 0.930 1_565 S
C1071 H1059 0.930 1_545 S
C1071 C1072 1.399 . S
C1071 C1076 1.399 . S
C1072 C1071 1.399 . S
C1072 C1073 1.376 . S
C1073 H1060 0.930 . S
C1073 C1072 1.376 . S
C1073 C1074 1.388 . S
C1074 H1061 0.930 . S
C1074 C1073 1.388 . S
C1074 C1075 1.390 . S
C1075 C1074 1.390 . S
C1075 C1076 1.394 . S
C1075 C1081 1.465 . S
C1076 C1071 1.399 . S
C1076 C1075 1.394 . S
C1076 C1077 1.516 1_545 S
C1077 C1076 1.516 1_565 S
C1077 C1078 1.502 . S
C1077 C1079 1.561 . S
C1077 C1080 1.526 1_565 S
C1078 H1062 0.959 . S
C1078 H1063 0.959 . S
C1078 H1064 0.961 . S
C1078 C1077 1.502 . S
C1079 H1065 0.960 . S
C1079 H1066 0.961 . S
C1079 H1067 0.959 . S
C1079 C1077 1.561 . S
C1080 C1077 1.526 1_545 S
C1080 C1081 1.396 . S
C1080 C1085 1.390 . S
C1081 C1075 1.465 . S
C1081 C1080 1.396 . S
C1081 C1082 1.399 . S
C1082 H1068 0.929 . S
C1082 C1081 1.399 . S
C1082 C1083 1.385 . S
C1083 H1069 0.931 . S
C1083 C1082 1.385 . S
C1083 C1084 1.389 . S
C1084 C1083 1.389 . S
C1084 C1085 1.387 . S
C1085 H1070 0.930 1_545 S
C1085 C1080 1.390 . S
C1085 C1084 1.387 . S
H1086 C1098 0.930 . S
H1087 C1100 0.930 . S
H1088 C1101 0.930 . S
H1089 C1105 0.959 . S
H1090 C1105 0.959 . S
H1091 C1105 0.961 . S
H1092 C1106 0.960 . S
H1093 C1106 0.961 . S
H1094 C1106 0.959 . S
H1095 C1109 0.929 . S
H1096 C1110 0.931 . S
H1097 C1112 0.930 . S
C1098 H1086 0.930 . S
C1098 C1099 1.399 . S
C1098 C1103 1.399 . S
C1099 C1098 1.399 . S
C1099 C1100 1.376 . S
C1100 H1087 0.930 . S
C1100 C1099 1.376 . S
C1100 C1101 1.388 . S
C1101 H1088 0.930 . S
C1101 C1100 1.388 . S
C1101 C1102 1.390 . S
C1102 C1101 1.390 . S
C1102 C1103 1.394 . S
C1102 C1108 1.465 . S
C1103 C1098 1.399 . S
C1103 C1102 1.394 . S
C1103 C1104 1.516 . S
C1104 C1103 1.516 . S
C1104 C1105 1.502 . S
C1104 C1106 1.561 . S
C1104 C1107 1.526 . S
C1105 H1089 0.959 . S
C1105 H1090 0.959 . S
C1105 H1091 0.961 . S
C1105 C1104 1.502 . S
C1106 H1092 0.960 . S
C1106 H1093 0.961 . S
C1106 H1094 0.959 . S
C1106 C1104 1.561 . S
C1107 C1104 1.526 . S
C1107 C1108 1.396 . S
C1107 C1112 1.390 . S
C1108 C1102 1.465 . S
C1108 C1107 1.396 . S
C1108 C1109 1.399 . S
C1109 H1095 0.929 . S
C1109 C1108 1.399 . S
C1109 C1110 1.385 . S
C1110 H1096 0.931 . S
C1110 C1109 1.385 . S
C1110 C1111 1.389 . S
C1111 C1110 1.389 . S
C1111 C1112 1.387 . S
C1112 H1097 0.930 . S
C1112 C1107 1.390 . S
C1112 C1111 1.387 . S
H1113 C1125 0.930 . S
H1114 C1127 0.930 . S
H1115 C1128 0.930 . S
H1116 C1132 0.959 . S
H1117 C1132 0.959 . S
H1118 C1132 0.961 . S
H1119 C1133 0.960 . S
H1120 C1133 0.961 . S
H1121 C1133 0.959 1_455 S
H1122 C1136 0.929 . S
H1123 C1137 0.931 . S
H1124 C1139 0.930 . S
C1125 H1113 0.930 . S
C1125 C1126 1.399 . S
C1125 C1130 1.399 . S
C1126 C1125 1.399 . S
C1126 C1127 1.376 . S
C1127 H1114 0.930 . S
C1127 C1126 1.376 . S
C1127 C1128 1.388 . S
C1128 H1115 0.930 . S
C1128 C1127 1.388 . S
C1128 C1129 1.390 . S
C1129 C1128 1.390 . S
C1129 C1130 1.394 . S
C1129 C1135 1.465 . S
C1130 C1125 1.399 . S
C1130 C1129 1.394 . S
C1130 C1131 1.516 . S
C1131 C1130 1.516 . S
C1131 C1132 1.502 . S
C1131 C1133 1.561 . S
C1131 C1134 1.526 . S
C1132 H1116 0.959 . S
C1132 H1117 0.959 . S
C1132 H1118 0.961 . S
C1132 C1131 1.502 . S
C1133 H1119 0.960 . S
C1133 H1120 0.961 . S
C1133 H1121 0.959 1_655 S
C1133 C1131 1.561 . S
C1134 C1131 1.526 . S
C1134 C1135 1.396 . S
C1134 C1139 1.390 . S
C1135 C1129 1.465 . S
C1135 C1134 1.396 . S
C1135 C1136 1.399 . S
C1136 H1122 0.929 . S
C1136 C1135 1.399 . S
C1136 C1137 1.385 . S
C1137 H1123 0.931 . S
C1137 C1136 1.385 . S
C1137 C1138 1.389 . S
C1138 C1137 1.389 . S
C1138 C1139 1.387 . S
C1139 H1124 0.930 . S
C1139 C1134 1.390 . S
C1139 C1138 1.387 . S
H1140 C1152 0.930 . S
H1141 C1154 0.930 . S
H1142 C1155 0.930 . S
H1143 C1159 0.959 1_545 S
H1144 C1159 0.959 . S
H1145 C1159 0.961 . S
H1146 C1160 0.960 . S
H1147 C1160 0.961 . S
H1148 C1160 0.959 . S
H1149 C1163 0.929 . S
H1150 C1164 0.931 . S
H1151 C1166 0.930 . S
C1152 H1140 0.930 . S
C1152 C1153 1.399 . S
C1152 C1157 1.399 . S
C1153 C1152 1.399 . S
C1153 C1154 1.376 . S
C1154 H1141 0.930 . S
C1154 C1153 1.376 . S
C1154 C1155 1.388 . S
C1155 H1142 0.930 . S
C1155 C1154 1.388 . S
C1155 C1156 1.390 . S
C1156 C1155 1.390 . S
C1156 C1157 1.394 . S
C1156 C1162 1.465 . S
C1157 C1152 1.399 . S
C1157 C1156 1.394 . S
C1157 C1158 1.516 . S
C1158 C1157 1.516 . S
C1158 C1159 1.502 . S
C1158 C1160 1.561 . S
C1158 C1161 1.526 . S
C1159 H1143 0.959 1_565 S
C1159 H1144 0.959 . S
C1159 H1145 0.961 . S
C1159 C1158 1.502 . S
C1160 H1146 0.960 . S
C1160 H1147 0.961 . S
C1160 H1148 0.959 . S
C1160 C1158 1.561 . S
C1161 C1158 1.526 . S
C1161 C1162 1.396 . S
C1161 C1166 1.390 . S
C1162 C1156 1.465 . S
C1162 C1161 1.396 . S
C1162 C1163 1.399 . S
C1163 H1149 0.929 . S
C1163 C1162 1.399 . S
C1163 C1164 1.385 . S
C1164 H1150 0.931 . S
C1164 C1163 1.385 . S
C1164 C1165 1.389 . S
C1165 C1164 1.389 . S
C1165 C1166 1.387 . S
C1166 H1151 0.930 . S
C1166 C1161 1.390 . S
C1166 C1165 1.387 . S
H1167 C1179 0.930 . S
H1168 C1181 0.930 . S
H1169 C1182 0.930 . S
H1170 C1186 0.959 . S
H1171 C1186 0.959 . S
H1172 C1186 0.961 . S
H1173 C1187 0.960 . S
H1174 C1187 0.961 . S
H1175 C1187 0.959 . S
H1176 C1190 0.929 . S
H1177 C1191 0.931 . S
H1178 C1193 0.930 . S
C1179 H1167 0.930 . S
C1179 C1180 1.399 . S
C1179 C1184 1.399 . S
C1180 C1179 1.399 . S
C1180 C1181 1.376 . S
C1181 H1168 0.930 . S
C1181 C1180 1.376 . S
C1181 C1182 1.388 . S
C1182 H1169 0.930 . S
C1182 C1181 1.388 . S
C1182 C1183 1.390 . S
C1183 C1182 1.390 . S
C1183 C1184 1.394 . S
C1183 C1189 1.465 . S
C1184 C1179 1.399 . S
C1184 C1183 1.394 . S
C1184 C1185 1.516 . S
C1185 C1184 1.516 . S
C1185 C1186 1.502 . S
C1185 C1187 1.561 . S
C1185 C1188 1.526 . S
C1186 H1170 0.959 . S
C1186 H1171 0.959 . S
C1186 H1172 0.961 . S
C1186 C1185 1.502 . S
C1187 H1173 0.960 . S
C1187 H1174 0.961 . S
C1187 H1175 0.959 . S
C1187 C1185 1.561 . S
C1188 C1185 1.526 . S
C1188 C1189 1.396 . S
C1188 C1193 1.390 . S
C1189 C1183 1.465 . S
C1189 C1188 1.396 . S
C1189 C1190 1.399 . S
C1190 H1176 0.929 . S
C1190 C1189 1.399 . S
C1190 C1191 1.385 . S
C1191 H1177 0.931 . S
C1191 C1190 1.385 . S
C1191 C1192 1.389 . S
C1192 C1191 1.389 . S
C1192 C1193 1.387 . S
C1193 H1178 0.930 . S
C1193 C1188 1.390 . S
C1193 C1192 1.387 . S
H1194 C1206 0.930 . S
H1195 C1208 0.930 . S
H1196 C1209 0.930 . S
H1197 C1213 0.959 . S
H1198 C1213 0.959 . S
H1199 C1213 0.961 . S
H1200 C1214 0.960 . S
H1201 C1214 0.961 . S
H1202 C1214 0.959 . S
H1203 C1217 0.929 . S
H1204 C1218 0.931 . S
H1205 C1220 0.930 . S
C1206 H1194 0.930 . S
C1206 C1207 1.399 . S
C1206 C1211 1.399 . S
C1207 C1206 1.399 . S
C1207 C1208 1.376 . S
C1208 H1195 0.930 . S
C1208 C1207 1.376 . S
C1208 C1209 1.388 . S
C1209 H1196 0.930 . S
C1209 C1208 1.388 . S
C1209 C1210 1.390 . S
C1210 C1209 1.390 . S
C1210 C1211 1.394 . S
C1210 C1216 1.465 . S
C1211 C1206 1.399 . S
C1211 C1210 1.394 . S
C1211 C1212 1.516 . S
C1212 C1211 1.516 . S
C1212 C1213 1.502 . S
C1212 C1214 1.561 . S
C1212 C1215 1.526 . S
C1213 H1197 0.959 . S
C1213 H1198 0.959 . S
C1213 H1199 0.961 . S
C1213 C1212 1.502 . S
C1214 H1200 0.960 . S
C1214 H1201 0.961 . S
C1214 H1202 0.959 . S
C1214 C1212 1.561 . S
C1215 C1212 1.526 . S
C1215 C1216 1.396 . S
C1215 C1220 1.390 . S
C1216 C1210 1.465 . S
C1216 C1215 1.396 . S
C1216 C1217 1.399 . S
C1217 H1203 0.929 . S
C1217 C1216 1.399 . S
C1217 C1218 1.385 . S
C1218 H1204 0.931 . S
C1218 C1217 1.385 . S
C1218 C1219 1.389 . S
C1219 C1218 1.389 . S
C1219 C1220 1.387 . S
C1220 H1205 0.930 . S
C1220 C1215 1.390 . S
C1220 C1219 1.387 . S
H1221 C1233 0.930 . S
H1222 C1235 0.930 . S
H1223 C1236 0.930 . S
H1224 C1240 0.959 . S
H1225 C1240 0.959 . S
H1226 C1240 0.961 . S
H1227 C1241 0.960 . S
H1228 C1241 0.961 . S
H1229 C1241 0.959 . S
H1230 C1244 0.929 . S
H1231 C1245 0.931 . S
H1232 C1247 0.930 . S
C1233 H1221 0.930 . S
C1233 C1234 1.399 . S
C1233 C1238 1.399 . S
C1234 C1233 1.399 . S
C1234 C1235 1.376 . S
C1235 H1222 0.930 . S
C1235 C1234 1.376 . S
C1235 C1236 1.388 . S
C1236 H1223 0.930 . S
C1236 C1235 1.388 . S
C1236 C1237 1.390 . S
C1237 C1236 1.390 . S
C1237 C1238 1.394 . S
C1237 C1243 1.465 . S
C1238 C1233 1.399 . S
C1238 C1237 1.394 . S
C1238 C1239 1.516 . S
C1239 C1238 1.516 . S
C1239 C1240 1.502 . S
C1239 C1241 1.561 . S
C1239 C1242 1.526 . S
C1240 H1224 0.959 . S
C1240 H1225 0.959 . S
C1240 H1226 0.961 . S
C1240 C1239 1.502 . S
C1241 H1227 0.960 . S
C1241 H1228 0.961 . S
C1241 H1229 0.959 . S
C1241 C1239 1.561 . S
C1242 C1239 1.526 . S
C1242 C1243 1.396 . S
C1242 C1247 1.390 . S
C1243 C1237 1.465 . S
C1243 C1242 1.396 . S
C1243 C1244 1.399 . S
C1244 H1230 0.929 . S
C1244 C1243 1.399 . S
C1244 C1245 1.385 . S
C1245 H1231 0.931 . S
C1245 C1244 1.385 . S
C1245 C1246 1.389 . S
C1246 C1245 1.389 . S
C1246 C1247 1.387 . S
C1247 H1232 0.930 . S
C1247 C1242 1.390 . S
C1247 C1246 1.387 . S
H1248 C1260 0.930 . S
H1249 C1262 0.930 . S
H1250 C1263 0.930 . S
H1251 C1267 0.959 . S
H1252 C1267 0.959 . S
H1253 C1267 0.961 . S
H1254 C1268 0.960 . S
H1255 C1268 0.961 . S
H1256 C1268 0.959 . S
H1257 C1271 0.929 . S
H1258 C1272 0.931 . S
H1259 C1274 0.930 . S
C1260 H1248 0.930 . S
C1260 C1261 1.399 . S
C1260 C1265 1.399 . S
C1261 C1260 1.399 . S
C1261 C1262 1.376 . S
C1262 H1249 0.930 . S
C1262 C1261 1.376 . S
C1262 C1263 1.388 . S
C1263 H1250 0.930 . S
C1263 C1262 1.388 . S
C1263 C1264 1.390 . S
C1264 C1263 1.390 . S
C1264 C1265 1.394 . S
C1264 C1270 1.465 . S
C1265 C1260 1.399 . S
C1265 C1264 1.394 . S
C1265 C1266 1.516 . S
C1266 C1265 1.516 . S
C1266 C1267 1.502 . S
C1266 C1268 1.561 . S
C1266 C1269 1.526 . S
C1267 H1251 0.959 . S
C1267 H1252 0.959 . S
C1267 H1253 0.961 . S
C1267 C1266 1.502 . S
C1268 H1254 0.960 . S
C1268 H1255 0.961 . S
C1268 H1256 0.959 . S
C1268 C1266 1.561 . S
C1269 C1266 1.526 . S
C1269 C1270 1.396 . S
C1269 C1274 1.390 . S
C1270 C1264 1.465 . S
C1270 C1269 1.396 . S
C1270 C1271 1.399 . S
C1271 H1257 0.929 . S
C1271 C1270 1.399 . S
C1271 C1272 1.385 . S
C1272 H1258 0.931 . S
C1272 C1271 1.385 . S
C1272 C1273 1.389 . S
C1273 C1272 1.389 . S
C1273 C1274 1.387 . S
C1274 H1259 0.930 . S
C1274 C1269 1.390 . S
C1274 C1273 1.387 . S
H1275 C1287 0.930 . S
H1276 C1289 0.930 . S
H1277 C1290 0.930 . S
H1278 C1294 0.959 . S
H1279 C1294 0.959 . S
H1280 C1294 0.961 . S
H1281 C1295 0.960 . S
H1282 C1295 0.961 . S
H1283 C1295 0.959 . S
H1284 C1298 0.929 . S
H1285 C1299 0.931 . S
H1286 C1301 0.930 . S
C1287 H1275 0.930 . S
C1287 C1288 1.399 . S
C1287 C1292 1.399 . S
C1288 C1287 1.399 . S
C1288 C1289 1.376 . S
C1289 H1276 0.930 . S
C1289 C1288 1.376 . S
C1289 C1290 1.388 . S
C1290 H1277 0.930 . S
C1290 C1289 1.388 . S
C1290 C1291 1.390 . S
C1291 C1290 1.390 . S
C1291 C1292 1.394 . S
C1291 C1297 1.465 . S
C1292 C1287 1.399 . S
C1292 C1291 1.394 . S
C1292 C1293 1.516 . S
C1293 C1292 1.516 . S
C1293 C1294 1.502 . S
C1293 C1295 1.561 . S
C1293 C1296 1.526 . S
C1294 H1278 0.959 . S
C1294 H1279 0.959 . S
C1294 H1280 0.961 . S
C1294 C1293 1.502 . S
C1295 H1281 0.960 . S
C1295 H1282 0.961 . S
C1295 H1283 0.959 . S
C1295 C1293 1.561 . S
C1296 C1293 1.526 . S
C1296 C1297 1.396 . S
C1296 C1301 1.390 . S
C1297 C1291 1.465 . S
C1297 C1296 1.396 . S
C1297 C1298 1.399 . S
C1298 H1284 0.929 . S
C1298 C1297 1.399 . S
C1298 C1299 1.385 . S
C1299 H1285 0.931 . S
C1299 C1298 1.385 . S
C1299 C1300 1.389 . S
C1300 C1299 1.389 . S
C1300 C1301 1.387 . S
C1301 H1286 0.930 . S
C1301 C1296 1.390 . S
C1301 C1300 1.387 . S
H1302 C1314 0.930 . S
H1303 C1316 0.930 . S
H1304 C1317 0.930 . S
H1305 C1321 0.959 . S
H1306 C1321 0.959 . S
H1307 C1321 0.961 . S
H1308 C1322 0.960 . S
H1309 C1322 0.961 . S
H1310 C1322 0.959 . S
H1311 C1325 0.929 . S
H1312 C1326 0.931 . S
H1313 C1328 0.930 . S
C1314 H1302 0.930 . S
C1314 C1315 1.399 . S
C1314 C1319 1.399 . S
C1315 C1314 1.399 . S
C1315 C1316 1.376 . S
C1316 H1303 0.930 . S
C1316 C1315 1.376 . S
C1316 C1317 1.388 . S
C1317 H1304 0.930 . S
C1317 C1316 1.388 . S
C1317 C1318 1.390 . S
C1318 C1317 1.390 . S
C1318 C1319 1.394 . S
C1318 C1324 1.465 . S
C1319 C1314 1.399 . S
C1319 C1318 1.394 . S
C1319 C1320 1.516 . S
C1320 C1319 1.516 . S
C1320 C1321 1.502 . S
C1320 C1322 1.561 . S
C1320 C1323 1.526 . S
C1321 H1305 0.959 . S
C1321 H1306 0.959 . S
C1321 H1307 0.961 . S
C1321 C1320 1.502 . S
C1322 H1308 0.960 . S
C1322 H1309 0.961 . S
C1322 H1310 0.959 . S
C1322 C1320 1.561 . S
C1323 C1320 1.526 . S
C1323 C1324 1.396 . S
C1323 C1328 1.390 . S
C1324 C1318 1.465 . S
C1324 C1323 1.396 . S
C1324 C1325 1.399 . S
C1325 H1311 0.929 . S
C1325 C1324 1.399 . S
C1325 C1326 1.385 . S
C1326 H1312 0.931 . S
C1326 C1325 1.385 . S
C1326 C1327 1.389 . S
C1327 C1326 1.389 . S
C1327 C1328 1.387 . S
C1328 H1313 0.930 . S
C1328 C1323 1.390 . S
C1328 C1327 1.387 . S
H1329 C1341 0.930 . S
H1330 C1343 0.930 . S
H1331 C1344 0.930 . S
H1332 C1348 0.959 . S
H1333 C1348 0.959 . S
H1334 C1348 0.961 . S
H1335 C1349 0.960 . S
H1336 C1349 0.961 . S
H1337 C1349 0.959 . S
H1338 C1352 0.929 . S
H1339 C1353 0.931 . S
H1340 C1355 0.930 . S
C1341 H1329 0.930 . S
C1341 C1342 1.399 . S
C1341 C1346 1.399 . S
C1342 C1341 1.399 . S
C1342 C1343 1.376 . S
C1343 H1330 0.930 . S
C1343 C1342 1.376 . S
C1343 C1344 1.388 . S
C1344 H1331 0.930 . S
C1344 C1343 1.388 . S
C1344 C1345 1.390 . S
C1345 C1344 1.390 . S
C1345 C1346 1.394 . S
C1345 C1351 1.465 . S
C1346 C1341 1.399 . S
C1346 C1345 1.394 . S
C1346 C1347 1.516 . S
C1347 C1346 1.516 . S
C1347 C1348 1.502 . S
C1347 C1349 1.561 . S
C1347 C1350 1.526 . S
C1348 H1332 0.959 . S
C1348 H1333 0.959 . S
C1348 H1334 0.961 . S
C1348 C1347 1.502 . S
C1349 H1335 0.960 . S
C1349 H1336 0.961 . S
C1349 H1337 0.959 . S
C1349 C1347 1.561 . S
C1350 C1347 1.526 . S
C1350 C1351 1.396 . S
C1350 C1355 1.390 . S
C1351 C1345 1.465 . S
C1351 C1350 1.396 . S
C1351 C1352 1.399 . S
C1352 H1338 0.929 . S
C1352 C1351 1.399 . S
C1352 C1353 1.385 . S
C1353 H1339 0.931 . S
C1353 C1352 1.385 . S
C1353 C1354 1.389 . S
C1354 C1353 1.389 . S
C1354 C1355 1.387 . S
C1355 H1340 0.930 . S
C1355 C1350 1.390 . S
C1355 C1354 1.387 . S
C721 C33 1.700 . S
C733 C682 1.695 . S
C748 C387 1.715 . S
C760 C92 1.700 . S
C775 C151 1.696 . S
C787 C446 1.714 . S
C802 C505 1.708 . S
C814 C210 1.692 . S
C829 C564 1.692 . S
C841 C269 1.704 . S
C856 C623 1.709 . S
C868 C328 1.710 . S
C883 C180 1.112 . S
C895 C475 1.108 . S
C910 C239 1.092 . S
C922 C534 1.098 . S
C937 C298 1.044 . S
C949 C593 1.046 . S
C964 C652 1.044 . S
C976 C3 1.046 . S
C991 C62 1.058 . S
C1003 C357 1.053 . S
C1018 C121 1.112 . S
C1030 C416 1.109 . S
C1045 C524 1.820 . S
C1057 C52 1.839 . S
C1072 C583 1.809 . S
C1084 C111 1.815 . S
C1099 C170 1.827 . S
C1111 C642 1.809 . S
C1126 C229 1.822 . S
C1138 C701 1.840 . S
C1153 C288 1.829 . S
C1165 C406 1.809 . S
C1180 C465 1.837 . S
C1192 C347 1.816 . S
C1207 C5 1.755 . S
C1219 C595 1.752 . S
C1234 C654 1.752 . S
C1246 C64 1.757 . S
C1261 C123 1.752 . S
C1273 C359 1.758 . S
C1288 C182 1.767 . S
C1300 C418 1.770 . S
C1315 C241 1.753 . S
C1327 C477 1.759 . S
C1342 C300 1.769 . S
C1354 C536 1.766 . S
