# Generated by pormake.
# Topology smc, (6)-cn, num edge types: 1
# Building blocks:
#     Node 0, Type 0, BuildingBlock: JUFBIX_clean_sbu_0, # of connection points: 6
#     Node 1, Type 0, BuildingBlock: JUFBIX_clean_sbu_0, # of connection points: 6
#     Node 2, Type 0, BuildingBlock: JUFBIX_clean_sbu_0, # of connection points: 6
#     Node 3, Type 0, BuildingBlock: JUFBIX_clean_sbu_0, # of connection points: 6
#     Node 4, Type 0, BuildingBlock: JUFBIX_clean_sbu_0, # of connection points: 6
#     Node 5, Type 0, BuildingBlock: JUFBIX_clean_sbu_0, # of connection points: 6
#     Node 6, Type 0, BuildingBlock: JUFBIX_clean_sbu_0, # of connection points: 6
#     Node 7, Type 0, BuildingBlock: JUFBIX_clean_sbu_0, # of connection points: 6
#     Node 8, Type 0, BuildingBlock: JUFBIX_clean_sbu_0, # of connection points: 6
#     Edge 9, Type (0, 0), BuildingBlock: OJICUG_clean_linker_0, # of connection points: 2
#     Edge 10, Type (0, 0), BuildingBlock: OJICUG_clean_linker_0, # of connection points: 2
#     Edge 11, Type (0, 0), BuildingBlock: OJICUG_clean_linker_0, # of connection points: 2
#     Edge 12, Type (0, 0), BuildingBlock: OJICUG_clean_linker_0, # of connection points: 2
#     Edge 13, Type (0, 0), BuildingBlock: OJICUG_clean_linker_0, # of connection points: 2
#     Edge 14, Type (0, 0), BuildingBlock: OJICUG_clean_linker_0, # of connection points: 2
#     Edge 15, Type (0, 0), BuildingBlock: OJICUG_clean_linker_0, # of connection points: 2
#     Edge 16, Type (0, 0), BuildingBlock: OJICUG_clean_linker_0, # of connection points: 2
#     Edge 17, Type (0, 0), BuildingBlock: OJICUG_clean_linker_0, # of connection points: 2
#     Edge 18, Type (0, 0), BuildingBlock: OJICUG_clean_linker_0, # of connection points: 2
#     Edge 19, Type (0, 0), BuildingBlock: OJICUG_clean_linker_0, # of connection points: 2
#     Edge 20, Type (0, 0), BuildingBlock: OJICUG_clean_linker_0, # of connection points: 2
#     Edge 21, Type (0, 0), BuildingBlock: OJICUG_clean_linker_0, # of connection points: 2
#     Edge 22, Type (0, 0), BuildingBlock: OJICUG_clean_linker_0, # of connection points: 2
#     Edge 23, Type (0, 0), BuildingBlock: OJICUG_clean_linker_0, # of connection points: 2
#     Edge 24, Type (0, 0), BuildingBlock: OJICUG_clean_linker_0, # of connection points: 2
#     Edge 25, Type (0, 0), BuildingBlock: OJICUG_clean_linker_0, # of connection points: 2
#     Edge 26, Type (0, 0), BuildingBlock: OJICUG_clean_linker_0, # of connection points: 2
#     Edge 27, Type (0, 0), BuildingBlock: OJICUG_clean_linker_0, # of connection points: 2
#     Edge 28, Type (0, 0), BuildingBlock: OJICUG_clean_linker_0, # of connection points: 2
#     Edge 29, Type (0, 0), BuildingBlock: OJICUG_clean_linker_0, # of connection points: 2
#     Edge 30, Type (0, 0), BuildingBlock: OJICUG_clean_linker_0, # of connection points: 2
#     Edge 31, Type (0, 0), BuildingBlock: OJICUG_clean_linker_0, # of connection points: 2
#     Edge 32, Type (0, 0), BuildingBlock: OJICUG_clean_linker_0, # of connection points: 2
#     Edge 33, Type (0, 0), BuildingBlock: OJICUG_clean_linker_0, # of connection points: 2
#     Edge 34, Type (0, 0), BuildingBlock: OJICUG_clean_linker_0, # of connection points: 2
#     Edge 35, Type (0, 0), BuildingBlock: OJICUG_clean_linker_0, # of connection points: 2
# Relax obj value: 0.561
# Max RMSD: 0.328
# Mean RMSD: 0.317
data_MOF--net-smc--node1-JUFBIX_clean_sbu_0--edge1-OJICUG_clean_linker_0
_symmetry_space_group_name_H-M    P1
_symmetry_Int_Tables_number       1
_symmetry_cell_setting            triclinic
loop_
_symmetry_equiv_pos_as_xyz
'x, y, z'
_cell_length_a     21.553395
_cell_length_b     25.903792
_cell_length_c     28.726156
_cell_angle_alpha  89.803242
_cell_angle_beta   89.874167
_cell_angle_gamma 120.28864
loop_
_atom_site_label
_atom_site_type_symbol
_atom_site_fract_x
_atom_site_fract_y
_atom_site_fract_z
_atom_type_partial_charge
Co0 Co 0.11707 0.52997 1.02653 0.0
C1 C 1.03911 0.43961 0.961 0.0
Co2 Co 0.05079 0.44321 0.05884 0.0
C3 C 0.18156 0.65907 1.01116 0.0
C4 C 0.21581 0.61663 0.96199 0.0
N5 N 0.17569 0.60582 1.00074 0.0
N6 N 0.22351 0.70259 0.98018 0.0
C7 C 0.2455 0.6756 0.94959 0.0
H8 H 0.15372 0.66512 1.04011 0.0
H9 H 0.22178 0.58332 0.94313 0.0
C10 C 0.13073 0.51796 0.12612 0.0
N11 N 0.98483 0.36697 0.08204 0.0
C12 C 0.91556 0.33833 0.06764 0.0
C13 C 0.98341 0.33905 0.12205 0.0
N14 N 0.87024 0.2954 0.09756 0.0
C15 C 0.91322 0.29491 0.13153 0.0
C16 C 0.19621 0.474 1.03612 0.0
O17 O 0.15997 0.55518 0.09183 0.0
O18 O 0.07332 0.46989 0.11866 0.0
O19 O 0.14039 0.43268 0.05824 0.0
O20 O 0.18874 0.51308 1.01495 0.0
O21 O 1.02577 0.41091 0.99873 0.0
H22 H 1.02886 0.35336 0.14503 0.0
H23 H 0.89807 0.35184 1.03706 0.0
O24 O 0.07551 0.497 0.96329 0.0
O25 O 1.04594 0.55244 1.03767 0.0
O26 O 0.9706 0.46205 0.06038 0.0
C27 C 0.98335 0.51504 0.05152 0.0
H28 H 0.2809 0.69659 0.92015 0.0
H29 H 0.89495 0.26765 0.16274 0.0
Co30 Co 0.61916 0.53737 0.08655 0.0
C31 C 0.64687 0.63048 0.14977 0.0
Co32 Co 0.66083 0.62312 0.05368 0.0
C33 C 0.52109 0.41412 0.10083 0.0
C34 C 0.59111 0.4528 0.15897 0.0
N35 N 0.58018 0.46407 0.11483 0.0
N36 N 0.49259 0.37257 0.13495 0.0
C37 C 0.53737 0.39647 0.17145 0.0
H38 H 0.49803 0.40988 0.0667 0.0
H39 H 0.63258 0.4849 0.18161 0.0
C40 C 0.64289 0.54214 0.9882 0.0
N41 N 0.69844 0.69787 1.02713 0.0
C42 C 0.67208 0.7348 1.03282 0.0
C43 C 0.75285 0.72592 0.99637 0.0
N44 N 0.70715 0.78474 1.0066 0.0
C45 C 0.75827 0.77941 0.98357 0.0
C46 C 0.76494 0.5881 0.07838 0.0
O47 O 0.6274 0.50618 1.02312 0.0
O48 O 0.65072 0.59284 0.99529 0.0
O49 O 0.75976 0.62932 0.05641 0.0
O50 O 0.70989 0.54948 0.10001 0.0
O51 O 0.67405 0.65969 0.11271 0.0
H52 H 0.78515 0.70796 0.98322 0.0
H53 H 0.62615 0.72404 0.05468 0.0
O54 O 0.61577 0.57343 0.14745 0.0
O55 O 0.52395 0.51931 0.07388 0.0
O56 O 0.55899 0.6092 0.04946 0.0
C57 C 0.50702 0.55629 0.05909 0.0
H58 H 0.53066 0.37598 0.20535 0.0
H59 H 0.79639 0.81141 0.9589 0.0
Co60 Co 0.50239 0.03398 1.01387 0.0
C61 C 0.48036 0.10794 0.94975 0.0
Co62 Co 0.42957 0.06362 1.03925 0.0
C63 C 0.56871 0.96173 1.00411 0.0
C64 C 0.62392 0.04332 0.96511 0.0
N65 N 0.56622 1.01125 0.99282 0.0
N66 N 0.62584 0.96173 0.98472 0.0
C67 C 0.66048 1.01291 0.95991 0.0
H68 H 0.52951 0.92645 1.02631 0.0
H69 H 0.63965 0.08685 0.95065 0.0
C70 C 0.44694 0.99304 0.10456 0.0
N71 N 0.36463 0.08406 0.06086 0.0
C72 C 0.37323 0.13898 0.06192 0.0
C73 C 0.30453 0.04961 0.08612 0.0
N74 N 0.32242 0.1409 0.08793 0.0
C75 C 0.27932 0.08496 0.10375 0.0
C76 C 0.36277 0.95317 0.9935 0.0
O77 O 0.48663 0.98853 0.07349 0.0
O78 O 0.41994 1.02524 0.09594 0.0
O79 O 0.35013 0.98957 1.01544 0.0
O80 O 0.42713 0.96639 0.9868 0.0
O81 O 0.43773 0.10397 0.98198 0.0
H82 H 0.28424 1.00306 0.09468 0.0
H83 H 0.42064 0.17824 0.0485 0.0
O84 O 0.51542 0.08053 0.95551 0.0
O85 O 0.57872 0.09986 1.04076 0.0
O86 O 0.51265 0.13712 0.06444 0.0
C87 C 0.57395 0.14056 0.06145 0.0
H88 H 0.71 0.02825 0.94063 0.0
H89 H 0.23724 0.07199 0.12954 0.0
Co90 Co 0.78267 0.84913 0.38657 0.0
C91 C 0.68106 0.76523 0.32176 0.0
Co92 Co 0.7053 0.75905 0.41522 0.0
C93 C 0.84837 0.9813 0.37365 0.0
C94 C 0.87814 0.94112 0.31986 0.0
N95 N 0.84254 0.92816 0.36075 0.0
N96 N 0.88469 1.02622 0.34205 0.0
C97 C 0.90392 1.00046 0.30851 0.0
H98 H 0.82362 0.9863 0.40473 0.0
H99 H 0.88255 0.9088 0.29848 0.0
C100 C 0.80906 0.83206 0.47911 0.0
N101 N 0.64487 0.68595 0.44095 0.0
C102 C 0.57298 0.6569 0.43823 0.0
C103 C 0.66051 0.64932 0.46524 0.0
N104 N 0.54267 0.60328 0.45944 0.0
C105 C 0.59736 0.59787 0.47636 0.0
C106 C 0.82113 0.76592 0.37047 0.0
O107 O 0.8324 0.87276 0.44746 0.0
O108 O 0.75545 0.7813 0.47075 0.0
O109 O 0.76431 0.73098 0.39274 0.0
O110 O 0.84279 0.82157 0.36677 0.0
O111 O 0.65492 0.73419 0.35845 0.0
H112 H 0.71428 0.65887 0.47332 0.0
H113 H 0.54359 0.67363 0.41895 0.0
O114 O 0.73234 0.81966 0.32607 0.0
O115 O 0.72114 0.87449 0.40639 0.0
O116 O 0.6456 0.78791 0.43776 0.0
C117 C 0.66581 0.84249 0.43068 0.0
H118 H 0.93407 1.02256 0.27735 0.0
H119 H 0.59211 0.559 0.49426 0.0
Co120 Co 0.23655 0.9135 0.35643 0.0
C121 C 0.34127 0.92308 0.29098 0.0
Co122 Co 0.33969 0.94178 0.38505 0.0
C123 C 0.09154 0.83222 0.33586 0.0
C124 C 0.1438 0.89649 0.28164 0.0
N125 N 0.15064 0.88482 0.3266 0.0
N126 N 1.04961 0.80873 0.29808 0.0
C127 C 0.08174 0.84982 0.26403 0.0
H128 H 0.0807 0.81076 0.36966 0.0
H129 H 0.18449 0.93377 0.26167 0.0
C130 C 0.24797 0.94596 0.45049 0.0
N131 N 0.42621 0.96872 0.41306 0.0
C132 C 0.45868 0.9364 0.41542 0.0
C133 C 0.46057 1.01307 0.44436 0.0
N134 N 0.5094 0.95658 0.44826 0.0
C135 C 0.51288 1.0059 0.46603 0.0
C136 C 0.31475 0.0355 0.35388 0.0
O137 O 0.20366 0.93153 0.41643 0.0
O138 O 0.30314 0.94171 0.44438 0.0
O139 O 0.35972 1.02641 0.37651 0.0
O140 O 0.26029 0.99065 0.33725 0.0
O141 O 0.38253 0.94534 0.32559 0.0
H142 H 0.44511 0.04557 0.45331 0.0
H143 H 0.44349 0.89695 0.39476 0.0
O144 O 0.27429 0.90151 0.29786 0.0
O145 O 0.20623 0.83172 0.3759 0.0
O146 O 0.31391 0.85409 0.39401 0.0
C147 C 0.24795 0.81344 0.38886 0.0
H148 H 0.0623 0.84627 0.22883 0.0
H149 H 0.54768 0.03249 0.49409 0.0
Co150 Co 0.16111 0.334 0.3624 0.0
C151 C 0.16738 0.41951 0.29656 0.0
Co152 Co 0.11264 0.38841 0.38865 0.0
C153 C 0.22106 0.2501 0.36451 0.0
C154 C 0.21453 0.28039 0.29649 0.0
N155 N 0.19962 0.28478 0.34151 0.0
N156 N 0.2496 0.22561 0.33552 0.0
C157 C 0.2451 0.24498 0.29281 0.0
H158 H 0.21677 0.24358 0.40187 0.0
H159 H 0.20368 0.30137 0.26754 0.0
C160 C 0.09511 0.30391 0.45494 0.0
N161 N 0.09068 0.45147 0.40512 0.0
C162 C 0.13809 0.51141 0.39646 0.0
C163 C 1.03441 0.45204 0.42506 0.0
N164 N 0.11428 0.54901 0.40992 0.0
C165 C 1.04841 0.51079 0.42786 0.0
C166 C 1.01453 0.27788 0.34696 0.0
O167 O 0.1265 0.28924 0.42352 0.0
O168 O 0.08954 0.35036 0.44822 0.0
O169 O 1.01504 0.32254 0.36794 0.0
O170 O 0.07352 0.28068 0.33728 0.0
O171 O 0.13228 0.42427 0.32972 0.0
H172 H 0.98607 0.41246 0.43686 0.0
H173 H 0.18947 0.52738 0.37944 0.0
O174 O 0.19013 0.38247 0.3019 0.0
O175 O 0.24922 0.38603 0.38836 0.0
O176 O 0.2073 0.44375 0.40943 0.0
C177 C 0.25855 0.43301 0.40787 0.0
H178 H 0.26117 0.23315 0.26069 0.0
H179 H 1.01234 0.52404 0.44262 0.0
Co180 Co 0.42585 0.19436 0.6756 0.0
C181 C 0.34001 0.09924 0.61381 0.0
Co182 Co 0.36185 0.10867 0.71016 0.0
C183 C 0.50022 0.32236 0.66706 0.0
C184 C 0.5059 0.28088 0.60414 0.0
N185 N 0.4798 0.26862 0.64795 0.0
N186 N 0.53838 0.36787 0.63701 0.0
C187 C 0.54209 0.34182 0.59734 0.0
H188 H 0.48867 0.32795 0.70276 0.0
H189 H 0.49951 0.24769 0.57888 0.0
C190 C 0.44356 0.1911 0.77426 0.0
N191 N 0.3018 0.03463 0.73936 0.0
C192 C 0.22913 1.00427 0.73562 0.0
C193 C 0.31484 1.01119 0.77745 0.0
N194 N 0.19576 0.96456 0.77073 0.0
C195 C 0.25019 0.96829 0.79665 0.0
C196 C 0.50808 0.1418 0.68504 0.0
O197 O 0.4719 0.22559 0.73867 0.0
O198 O 0.38872 0.1409 0.76817 0.0
O199 O 0.45336 0.10095 0.70831 0.0
O200 O 0.49918 0.17969 0.66302 0.0
O201 O 0.33066 0.07111 0.6517 0.0
H202 H 0.36736 0.02797 0.79276 0.0
H203 H 0.20122 1.01405 0.70894 0.0
O204 O 0.37904 0.15662 0.61472 0.0
O205 O 0.35474 0.21482 0.68703 0.0
O206 O 0.28088 0.12507 0.71228 0.0
C207 C 0.29293 0.17735 0.70172 0.0
H208 H 0.56941 0.36506 0.56571 0.0
H209 H 0.24436 0.9447 0.82897 0.0
Co210 Co 0.92894 0.19853 0.72659 0.0
C211 C 0.96453 0.2918 0.79117 0.0
Co212 Co 0.9731 0.28429 0.69421 0.0
C213 C 0.8256 0.0749 0.74305 0.0
C214 C 0.9089 0.11125 0.79419 0.0
N215 N 0.88848 0.12414 0.75353 0.0
N216 N 0.80521 0.03221 0.77607 0.0
C217 C 0.85809 0.05469 0.80799 0.0
H218 H 0.79383 0.0716 0.71289 0.0
H219 H 0.95626 0.14196 0.81354 0.0
C220 C 0.95214 0.20572 0.62703 0.0
N221 N 1.01442 0.35886 0.66933 0.0
C222 C 0.99746 0.39948 0.68289 0.0
C223 C 0.07004 0.3878 0.63941 0.0
N224 N 1.04113 0.45332 0.66395 0.0
C225 C 0.0865 0.44652 0.63579 0.0
C226 C 0.0737 0.24716 0.71863 0.0
O227 O 0.93494 0.16819 0.66117 0.0
O228 O 0.96162 0.25645 0.63574 0.0
O229 O 0.06991 0.28854 0.69629 0.0
O230 O 1.01768 0.20794 0.73861 0.0
O231 O 0.98903 0.31957 0.75342 0.0
H232 H 0.098 0.36803 0.62259 0.0
H233 H 0.95455 0.38984 0.70729 0.0
O234 O 0.93006 0.23448 0.78934 0.0
O235 O 0.83473 0.18346 0.71582 0.0
O236 O 0.87237 0.27378 0.69119 0.0
C237 C 0.8193 0.22165 0.70174 0.0
H238 H 0.86017 0.032 0.83913 0.0
H239 H 0.12963 0.48166 0.61554 0.0
Co240 Co 0.84145 0.68888 0.73087 0.0
C241 C 0.82772 0.76334 0.66298 0.0
Co242 Co 0.76202 0.71433 0.74725 0.0
C243 C 0.92025 0.62706 0.71393 0.0
C244 C 0.97821 0.72013 0.69645 0.0
N245 N 0.91488 0.67644 0.71409 0.0
N246 N 0.98402 0.63852 0.69634 0.0
C247 C 1.0206 0.69672 0.6851 0.0
H248 H 0.87789 0.58347 0.72536 0.0
H249 H 0.99267 0.76635 0.69182 0.0
C250 C 0.76866 0.63706 0.81447 0.0
N251 N 0.69286 0.73333 0.76297 0.0
C252 C 0.69632 0.78458 0.75021 0.0
C253 C 0.63581 0.70659 0.79213 0.0
N254 N 0.64484 0.79178 0.7702 0.0
C255 C 0.60703 0.74335 0.79748 0.0
C256 C 0.70954 0.60863 0.69686 0.0
O257 O 0.8156 0.63681 0.78709 0.0
O258 O 0.74458 0.6716 0.80469 0.0
O259 O 0.68978 0.64089 0.71856 0.0
O260 O 0.77537 0.62367 0.69644 0.0
O261 O 0.77693 0.75564 0.68955 0.0
H262 H 0.61917 0.66521 0.81069 0.0
H263 H 0.74055 0.81934 0.73036 0.0
O264 O 0.86434 0.73943 0.67484 0.0
O265 O 0.90845 0.75258 0.76483 0.0
O266 O 0.83857 0.78967 0.77531 0.0
C267 C 0.90027 0.7944 0.77936 0.0
H268 H 0.07407 0.72035 0.67011 0.0
H269 H 0.56532 0.73713 0.82177 0.0
C270 C 0.4031 0.56501 1.025 0.0
C271 C 0.4273 0.53452 0.05302 0.0
H272 H 0.31471 0.56899 0.99632 0.0
C273 C 0.37357 0.4798 0.07358 0.0
H274 H 0.44152 0.6063 1.00785 0.0
C275 C 0.29874 0.4576 0.06741 0.0
C276 C 0.27452 0.48883 1.03976 0.0
H277 H 0.38942 0.4541 0.09521 0.0
H278 H 0.26021 0.41677 0.085 0.0
C279 C 0.32899 0.5425 1.01818 0.0
C280 C 0.63 0.88338 1.03168 0.0
C281 C 0.64724 0.91769 0.99071 0.0
H282 H 0.63754 0.81569 0.06953 0.0
C283 C 0.68641 0.90879 0.95574 0.0
H284 H 0.60117 0.89001 0.05973 0.0
C285 C 0.707 0.86594 0.96107 0.0
C286 C 0.68917 0.8311 1.00183 0.0
H287 H 0.69982 0.93427 0.92387 0.0
H288 H 0.73536 0.85926 0.93277 0.0
C289 C 0.65099 0.84078 1.03727 0.0
C290 C 0.26488 0.85461 1.02175 0.0
C291 C 0.30668 0.89087 0.98455 0.0
H292 H 0.20703 0.76621 0.05034 0.0
C293 C 0.31037 0.86365 0.94341 0.0
H294 H 0.26195 0.87465 0.05407 0.0
C295 C 0.27831 0.80158 0.94085 0.0
C296 C 0.24354 0.76514 0.97994 0.0
H297 H 0.34258 0.89071 0.9143 0.0
H298 H 0.28453 0.78286 0.90884 0.0
C299 C 0.23402 0.79229 1.01966 0.0
C300 C 0.33767 0.23973 0.08162 0.0
C301 C 0.33534 0.19464 0.10962 0.0
H302 H 0.38761 0.33309 0.06894 0.0
C303 C 0.37042 0.20923 0.15266 0.0
H304 H 0.31045 0.22882 0.04837 0.0
C305 C 0.41796 0.26881 0.16351 0.0
C306 C 0.42955 0.31417 0.13163 0.0
H307 H 0.36909 0.17455 0.17456 0.0
H308 H 0.45047 0.27826 0.19437 0.0
C309 C 0.38371 0.29934 0.09292 0.0
C310 C 0.6785 0.1709 0.11267 0.0
C311 C 0.64128 0.18835 0.08216 0.0
H312 H 0.77973 0.19024 0.14101 0.0
C313 C 0.6792 0.24473 0.06081 0.0
H314 H 0.65096 0.12687 0.12861 0.0
C315 C 0.75371 0.28111 0.06749 0.0
C316 C 0.79215 0.26157 0.0953 0.0
H317 H 0.65249 0.25866 1.03612 0.0
H318 H 0.78131 0.32354 0.04935 0.0
C319 C 0.75273 0.207 0.11931 0.0
C320 C 0.93816 0.58886 1.03852 0.0
C321 C 0.92844 0.5349 0.05837 0.0
H322 H 0.89601 0.64844 1.02833 0.0
C323 C 0.86722 0.50188 0.08628 0.0
H324 H 0.98472 0.61605 1.01683 0.0
C325 C 0.81784 0.52158 0.09405 0.0
C326 C 0.82608 0.57477 0.07355 0.0
H327 H 0.85751 0.46068 0.10262 0.0
H328 H 0.77154 0.49358 0.1157 0.0
C329 C 0.88751 0.60808 0.04548 0.0
C330 C 0.86558 0.75731 0.29476 0.0
C331 C 0.85527 0.74146 0.34198 0.0
H332 H 0.94007 0.78663 0.23885 0.0
C333 C 0.89339 0.71712 0.36262 0.0
H334 H 0.83355 0.77324 0.2777 0.0
C335 C 0.95373 0.72348 0.33952 0.0
C336 C 0.97743 0.75917 0.29895 0.0
H337 H 0.88356 0.702 0.39852 0.0
H338 H 0.98955 0.71316 0.35844 0.0
C339 C 0.92637 0.76432 0.27234 0.0
C340 C 0.24226 0.13954 0.37983 0.0
C341 C 0.2754 0.18423 0.34558 0.0
H342 H 0.22803 0.05757 0.40831 0.0
C343 C 0.3294 0.18355 0.31776 0.0
H344 H 0.19968 0.13755 0.40121 0.0
C345 C 0.34754 0.1384 0.32289 0.0
C346 C 0.31215 0.09238 0.35593 0.0
H347 H 0.35623 0.21706 0.29087 0.0
H348 H 0.38634 0.13768 0.29928 0.0
C349 C 0.25931 0.09387 0.38421 0.0
C350 C 0.92673 0.18002 0.38452 0.0
C351 C 0.95169 0.21522 0.34364 0.0
H352 H 0.8876 0.09369 0.41682 0.0
C353 C 0.94294 0.18437 0.30158 0.0
H354 H 0.93417 0.20158 0.41769 0.0
C355 C 0.91733 0.12236 0.30091 0.0
C356 C 0.89947 0.08821 0.3424 0.0
H357 H 0.96307 0.2094 0.26938 0.0
H358 H 0.91511 0.10193 0.26773 0.0
C359 C 0.90113 0.1177 0.38403 0.0
C360 C 0.25821 0.71708 0.39769 0.0
C361 C 0.21674 0.7456 0.39642 0.0
H362 H 0.25975 0.63406 0.40222 0.0
C363 C 0.14132 0.70713 0.40002 0.0
H364 H 0.31613 0.74389 0.39479 0.0
C365 C 0.10888 0.64416 0.40466 0.0
C366 C 0.14964 0.61519 0.40532 0.0
H367 H 0.10635 0.72583 0.39918 0.0
H368 H 0.05091 0.61797 0.40689 0.0
C369 C 0.2254 0.65335 0.40164 0.0
C370 C 0.38076 0.45755 0.43259 0.0
C371 C 0.32888 0.47483 0.42771 0.0
H372 H 0.49029 0.48545 0.44745 0.0
C373 C 0.34603 0.53286 0.44003 0.0
H374 H 0.36854 0.41268 0.42404 0.0
C375 C 0.41565 0.57425 0.4537 0.0
C376 C 0.46875 0.55804 0.45547 0.0
H377 H 0.30674 0.54707 0.43712 0.0
H378 H 0.42893 0.61967 0.46101 0.0
C379 C 0.45016 0.49883 0.44658 0.0
C380 C 0.51336 0.86531 0.46167 0.0
C381 C 0.54884 0.92816 0.46064 0.0
H382 H 0.52352 0.78791 0.45261 0.0
C383 C 0.6237 0.96145 0.46089 0.0
H384 H 0.45521 0.83913 0.46234 0.0
C385 C 0.6625 0.93237 0.45518 0.0
C386 C 0.62641 0.86995 0.44938 0.0
H387 H 0.65161 1.00985 0.46041 0.0
H388 H 0.72034 0.95911 0.45188 0.0
C389 C 0.55211 0.83613 0.45604 0.0
C390 C 0.71438 0.22967 0.66782 0.0
C391 C 0.73969 0.20172 0.69784 0.0
H392 H 0.62443 0.23151 0.63885 0.0
C393 C 0.6867 0.15016 0.72232 0.0
H394 H 0.75212 0.26845 0.64775 0.0
C395 C 0.61174 0.12843 0.71776 0.0
C396 C 0.58641 0.1566 0.68762 0.0
H397 H 0.70331 0.1266 0.74576 0.0
H398 H 0.57398 0.09034 0.73842 0.0
C399 C 0.63989 0.20737 0.66252 0.0
C400 C 1.01343 0.5118 0.71779 0.0
C401 C 1.03855 0.5061 0.67401 0.0
H402 H 0.97499 0.55872 0.75869 0.0
C403 C 0.05339 0.54895 0.63928 0.0
H404 H 1.00393 0.48044 0.7457 0.0
C405 C 1.0382 0.59448 0.64729 0.0
C406 C 1.00748 0.59673 0.68981 0.0
H407 H 0.07277 0.54528 0.60535 0.0
H408 H 1.04669 0.62591 0.61963 0.0
C409 C 0.99705 0.55633 0.72539 0.0
C410 C 0.68059 0.52951 0.63845 0.0
C411 C 0.65777 0.55106 0.67562 0.0
H412 H 0.6607 0.45457 0.59708 0.0
C413 C 0.59072 0.51331 0.69642 0.0
H414 H 0.73212 0.55781 0.62176 0.0
C415 C 0.54973 0.45352 0.68244 0.0
C416 C 0.5749 0.43093 0.64715 0.0
H417 H 0.57222 0.52878 0.72537 0.0
H418 H 0.49953 0.42453 0.70023 0.0
C419 C 0.63949 0.47028 0.62421 0.0
C420 C 0.67297 0.8788 0.81681 0.0
C421 C 0.65196 0.84943 0.77395 0.0
H422 H 0.74013 0.96199 0.85071 0.0
C423 C 0.66557 0.88331 0.73305 0.0
H424 H 0.66298 0.85347 0.84878 0.0
C425 C 0.71121 0.94506 0.734 0.0
C426 C 0.74274 0.9734 0.77611 0.0
H427 H 0.64961 0.86113 0.69967 0.0
H428 H 0.72767 0.96907 0.70125 0.0
C429 C 0.71852 0.94059 0.81779 0.0
C430 C 0.99409 0.89913 0.7606 0.0
C431 C 0.96784 0.84992 0.79102 0.0
H432 H 0.08621 0.97408 0.73008 0.0
C433 C 1.01746 0.84427 0.81916 0.0
H434 H 0.95763 0.90383 0.73741 0.0
C435 C 0.09159 0.8831 0.81391 0.0
C436 C 0.11877 0.92923 0.78034 0.0
H437 H 0.99914 0.80589 0.84206 0.0
H438 H 0.12726 0.87414 0.83426 0.0
C439 C 0.06855 0.9384 0.75539 0.0
C440 C 0.17834 0.1656 0.73595 0.0
C441 C 0.23801 0.1965 0.70663 0.0
H442 H 0.08317 0.15893 0.76427 0.0
C443 C 0.24658 0.248 0.68314 0.0
H444 H 0.17018 0.12648 0.75503 0.0
C445 C 0.19562 0.2668 0.68781 0.0
C446 C 0.1354 0.23534 0.71694 0.0
H447 H 0.29225 0.2733 0.66028 0.0
H448 H 0.20256 0.30494 0.6679 0.0
C449 C 0.1286 0.18499 0.74141 0.0
C450 C 0.20515 0.45147 0.21083 0.0
C451 C 0.17596 0.45664 0.25319 0.0
H452 H 0.21844 0.47129 0.13758 0.0
C453 C 0.14821 0.49613 0.25362 0.0
H454 H 0.22709 0.42206 0.20844 0.0
C455 C 0.14342 0.52446 0.21288 0.0
C456 C 0.168 0.51624 0.16985 0.0
H457 H 0.12556 0.50257 0.28525 0.0
H458 H 0.11472 0.54877 0.21442 0.0
C459 C 0.20138 0.48096 0.17007 0.0
C460 C 0.70089 0.761 0.23461 0.0
C461 C 0.66422 0.73243 0.27587 0.0
H462 H 0.7245 0.7519 0.16356 0.0
C463 C 0.61954 0.66933 0.27471 0.0
H464 H 0.73665 0.80898 0.23388 0.0
C465 C 0.61365 0.63601 0.23444 0.0
C466 C 0.6517 0.66454 0.19358 0.0
H467 H 0.59075 0.64502 0.30569 0.0
H468 H 0.57973 0.58782 0.2355 0.0
C469 C 0.69443 0.72775 0.19424 0.0
C470 C 0.47263 0.97865 0.18771 0.0
C471 C 0.42546 0.95976 0.14964 0.0
H472 H 0.48339 0.98143 0.26226 0.0
C473 C 0.35153 0.92221 0.15857 0.0
H474 H 0.5295 1.00927 0.18228 0.0
C475 C 0.32478 0.90689 0.2042 0.0
C476 C 0.37114 0.9291 0.24263 0.0
H477 H 0.31351 0.9084 0.13023 0.0
H478 H 0.26715 0.88065 0.20936 0.0
C479 C 0.44583 0.96324 0.23367 0.0
C480 C 0.44531 0.17201 0.90249 0.0
C481 C 0.48599 0.14319 0.90624 0.0
H482 H 0.40321 0.21362 0.85781 0.0
C483 C 0.52791 0.14647 0.8674 0.0
H484 H 0.4127 0.17138 0.93148 0.0
C485 C 0.5242 0.17313 0.82518 0.0
C486 C 0.47839 0.19713 0.82035 0.0
H487 H 0.56033 0.1254 0.86867 0.0
H488 H 0.55142 0.16924 0.79484 0.0
C489 C 0.44122 0.19801 0.86034 0.0
C490 C 1.03736 0.42877 0.87212 0.0
C491 C 1.01533 0.40322 0.91657 0.0
H492 H 1.03883 0.41437 0.79879 0.0
C493 C 0.97341 0.33978 0.91919 0.0
H494 H 0.06973 0.47685 0.8682 0.0
C495 C 0.95584 0.30334 0.87927 0.0
C496 C 0.97926 0.32882 0.83494 0.0
H497 H 0.95488 0.31766 0.95261 0.0
H498 H 0.92473 0.25521 0.88329 0.0
C499 C 1.01958 0.39232 0.83216 0.0
C500 C 0.7742 0.58688 0.89033 0.0
C501 C 0.73444 0.59428 0.85478 0.0
H502 H 0.77427 0.56005 0.96145 0.0
C503 C 0.65938 0.56641 0.86101 0.0
H504 H 0.83202 0.60795 0.8871 0.0
C505 C 0.62597 0.53732 0.90294 0.0
C506 C 0.6663 0.53547 0.94067 0.0
H507 H 0.62669 0.57064 0.83436 0.0
H508 H 0.56957 0.52264 0.90778 0.0
C509 C 0.74056 0.55813 0.93281 0.0
C510 C 0.8033 0.84882 0.5633 0.0
C511 C 0.83944 0.83949 0.52646 0.0
H512 H 0.77126 0.83233 0.63503 0.0
C513 C 0.88073 0.81267 0.53668 0.0
H514 H 0.76885 0.8672 0.55634 0.0
C515 C 0.88144 0.79166 0.58184 0.0
C516 C 0.83977 0.79607 0.61771 0.0
H517 H 0.90686 0.80268 0.50875 0.0
H518 H 0.91016 0.76792 0.58769 0.0
C519 C 0.80349 0.8275 0.6083 0.0
C520 C 0.22718 0.964 0.53452 0.0
C521 C 0.25368 0.98651 0.48981 0.0
H522 H 0.23233 0.98155 0.60786 0.0
C523 C 0.30547 0.0482 0.48619 0.0
H524 H 0.19007 0.91665 0.5394 0.0
C525 C 0.33043 0.0859 0.52545 0.0
C526 C 0.30622 0.06288 0.57033 0.0
H527 H 0.33107 0.06687 0.45316 0.0
H528 H 0.37208 0.13217 0.52084 0.0
C529 C 0.25266 1.00152 0.57397 0.0
C530 C 0.94288 0.21847 0.5428 0.0
C531 C 0.97372 0.20085 0.57816 0.0
H532 H 0.9581 0.26783 0.47971 0.0
C533 C 1.04343 0.21031 0.56914 0.0
H534 H 0.89098 0.21458 0.54868 0.0
C535 C 0.08203 0.23978 0.52779 0.0
C536 C 0.05314 0.2629 0.49523 0.0
H537 H 0.07102 0.20041 0.59609 0.0
H538 H 0.1365 0.24878 0.52331 0.0
C539 C 0.98238 0.2504 0.50327 0.0
loop_
_geom_bond_atom_site_label_1
_geom_bond_atom_site_label_2
_geom_bond_distance
_geom_bond_site_symmetry_2
_ccdc_geom_bond_type
Co0 N5 2.057 1_554 S
Co0 O17 2.021 . S
Co0 O20 2.062 . S
Co0 O24 2.117 1_554 S
Co0 O25 2.020 1_455 S
C1 O21 1.259 . S
C1 O24 1.258 1_655 S
Co2 N11 2.057 . S
Co2 O18 2.117 . S
Co2 O19 2.020 1_655 S
Co2 O21 2.021 1_554 S
Co2 O26 2.062 . S
C3 N5 1.316 1_554 S
C3 N6 1.347 1_554 S
C3 H8 0.931 . S
C4 N5 1.375 . S
C4 C7 1.350 . S
C4 H9 0.930 . S
N5 Co0 2.057 1_556 S
N5 C3 1.316 1_556 S
N5 C4 1.375 . S
N6 C3 1.347 1_556 S
N6 C7 1.373 . S
C7 C4 1.350 . S
C7 N6 1.373 . S
C7 H28 0.931 . S
H8 C3 0.931 . S
H9 C4 0.930 . S
C10 O17 1.259 . S
C10 O18 1.258 1_455 S
N11 Co2 2.057 . S
N11 C12 1.316 1_554 S
N11 C13 1.375 . S
C12 N11 1.316 1_556 S
C12 N14 1.347 1_556 S
C12 H23 0.931 . S
C13 N11 1.375 . S
C13 C15 1.350 . S
C13 H22 0.930 . S
N14 C12 1.347 1_554 S
N14 C15 1.373 . S
C15 C13 1.350 . S
C15 N14 1.373 . S
C15 H29 0.931 . S
C16 O19 1.255 . S
C16 O20 1.256 . S
O17 Co0 2.021 . S
O17 C10 1.259 . S
O18 Co2 2.117 . S
O18 C10 1.258 1_655 S
O19 Co2 2.020 1_455 S
O19 C16 1.255 . S
O20 Co0 2.062 . S
O20 C16 1.256 . S
O21 C1 1.259 . S
O21 Co2 2.021 1_556 S
H22 C13 0.930 . S
H23 C12 0.931 . S
O24 Co0 2.117 1_556 S
O24 C1 1.258 1_455 S
O25 Co0 2.020 1_655 S
O25 C27 1.256 . S
O26 Co2 2.062 . S
O26 C27 1.255 . S
C27 O25 1.256 . S
C27 O26 1.255 . S
H28 C7 0.931 . S
H29 C15 0.931 . S
Co30 N35 2.057 . S
Co30 O47 2.021 1_554 S
Co30 O50 2.062 . S
Co30 O54 2.117 . S
Co30 O55 2.020 . S
C31 O51 1.259 . S
C31 O54 1.258 . S
Co32 N41 2.057 1_554 S
Co32 O48 2.117 1_554 S
Co32 O49 2.020 . S
Co32 O51 2.021 . S
Co32 O56 2.062 . S
C33 N35 1.316 . S
C33 N36 1.347 . S
C33 H38 0.931 1_554 S
C34 N35 1.375 . S
C34 C37 1.350 . S
C34 H39 0.930 . S
N35 Co30 2.057 . S
N35 C33 1.316 . S
N35 C34 1.375 . S
N36 C33 1.347 . S
N36 C37 1.373 . S
C37 C34 1.350 . S
C37 N36 1.373 . S
C37 H58 0.931 . S
H38 C33 0.931 1_556 S
H39 C34 0.930 . S
C40 O47 1.259 . S
C40 O48 1.258 . S
N41 Co32 2.057 1_556 S
N41 C42 1.316 1_556 S
N41 C43 1.375 . S
C42 N41 1.316 1_554 S
C42 N44 1.347 1_554 S
C42 H53 0.931 . S
C43 N41 1.375 . S
C43 C45 1.350 . S
C43 H52 0.930 . S
N44 C42 1.347 1_556 S
N44 C45 1.373 . S
C45 C43 1.350 . S
C45 N44 1.373 . S
C45 H59 0.931 . S
C46 O49 1.256 . S
C46 O50 1.255 . S
O47 Co30 2.021 1_556 S
O47 C40 1.259 . S
O48 Co32 2.117 1_556 S
O48 C40 1.258 . S
O49 Co32 2.020 . S
O49 C46 1.256 . S
O50 Co30 2.062 . S
O50 C46 1.255 . S
O51 C31 1.259 . S
O51 Co32 2.021 . S
H52 C43 0.930 . S
H53 C42 0.931 . S
O54 Co30 2.117 . S
O54 C31 1.258 . S
O55 Co30 2.020 . S
O55 C57 1.256 . S
O56 Co32 2.062 . S
O56 C57 1.255 . S
C57 O55 1.256 . S
C57 O56 1.255 . S
H58 C37 0.931 . S
H59 C45 0.931 . S
Co60 N65 2.057 1_554 S
Co60 O77 2.021 . S
Co60 O80 2.062 . S
Co60 O84 2.117 1_554 S
Co60 O85 2.020 1_565 S
C61 O81 1.259 . S
C61 O84 1.258 1_545 S
Co62 N71 2.057 . S
Co62 O78 2.117 . S
Co62 O79 2.019 1_544 S
Co62 O81 2.021 1_554 S
Co62 O86 2.062 . S
C63 N65 1.316 1_554 S
C63 N66 1.347 1_554 S
C63 H68 0.931 . S
C64 N65 1.375 . S
C64 C67 1.350 . S
C64 H69 0.930 . S
N65 Co60 2.057 1_556 S
N65 C63 1.316 1_556 S
N65 C64 1.375 . S
N66 C63 1.347 1_556 S
N66 C67 1.373 . S
C67 C64 1.350 . S
C67 N66 1.373 . S
C67 H88 0.931 . S
H68 C63 0.931 . S
H69 C64 0.930 . S
C70 O77 1.259 . S
C70 O78 1.258 1_565 S
N71 Co62 2.057 . S
N71 C72 1.316 1_554 S
N71 C73 1.375 . S
C72 N71 1.316 1_556 S
C72 N74 1.347 1_556 S
C72 H83 0.931 . S
C73 N71 1.375 . S
C73 C75 1.350 . S
C73 H82 0.930 . S
N74 C72 1.347 1_554 S
N74 C75 1.373 . S
C75 C73 1.350 . S
C75 N74 1.373 . S
C75 H89 0.931 . S
C76 O79 1.256 . S
C76 O80 1.255 1_556 S
O77 Co60 2.021 . S
O77 C70 1.259 . S
O78 Co62 2.117 . S
O78 C70 1.258 1_545 S
O79 Co62 2.019 1_566 S
O79 C76 1.256 . S
O80 Co60 2.062 . S
O80 C76 1.255 1_554 S
O81 C61 1.259 . S
O81 Co62 2.021 1_556 S
H82 C73 0.930 . S
H83 C72 0.931 . S
O84 Co60 2.117 1_556 S
O84 C61 1.258 1_565 S
O85 Co60 2.020 1_545 S
O85 C87 1.256 . S
O86 Co62 2.062 . S
O86 C87 1.255 . S
C87 O85 1.256 . S
C87 O86 1.255 . S
H88 C67 0.931 . S
H89 C75 0.931 . S
Co90 N95 2.057 . S
Co90 O107 2.021 . S
Co90 O110 2.062 . S
Co90 O114 2.117 . S
Co90 O115 2.020 . S
C91 O111 1.259 . S
C91 O114 1.258 . S
Co92 N101 2.057 . S
Co92 O108 2.117 . S
Co92 O109 2.020 . S
Co92 O111 2.021 . S
Co92 O116 2.062 . S
C93 N95 1.316 . S
C93 N96 1.347 1_565 S
C93 H98 0.931 . S
C94 N95 1.375 . S
C94 C97 1.350 1_565 S
C94 H99 0.930 . S
N95 Co90 2.057 . S
N95 C93 1.316 . S
N95 C94 1.375 . S
N96 C93 1.347 1_545 S
N96 C97 1.373 . S
C97 C94 1.350 1_545 S
C97 N96 1.373 . S
C97 H118 0.931 . S
H98 C93 0.931 . S
H99 C94 0.930 . S
C100 O107 1.259 . S
C100 O108 1.258 . S
N101 Co92 2.057 . S
N101 C102 1.316 . S
N101 C103 1.375 . S
C102 N101 1.316 . S
C102 N104 1.347 . S
C102 H113 0.931 . S
C103 N101 1.375 . S
C103 C105 1.350 . S
C103 H112 0.930 . S
N104 C102 1.347 . S
N104 C105 1.373 . S
C105 C103 1.350 . S
C105 N104 1.373 . S
C105 H119 0.931 . S
C106 O109 1.256 . S
C106 O110 1.255 . S
O107 Co90 2.021 . S
O107 C100 1.259 . S
O108 Co92 2.117 . S
O108 C100 1.258 . S
O109 Co92 2.020 . S
O109 C106 1.256 . S
O110 Co90 2.062 . S
O110 C106 1.255 . S
O111 C91 1.259 . S
O111 Co92 2.021 . S
H112 C103 0.930 . S
H113 C102 0.931 . S
O114 Co90 2.117 . S
O114 C91 1.258 . S
O115 Co90 2.020 . S
O115 C117 1.256 . S
O116 Co92 2.062 . S
O116 C117 1.255 . S
C117 O115 1.256 . S
C117 O116 1.255 . S
H118 C97 0.931 . S
H119 C105 0.931 . S
Co120 N125 2.057 . S
Co120 O137 2.021 . S
Co120 O140 2.062 . S
Co120 O144 2.117 . S
Co120 O145 2.020 . S
C121 O141 1.259 . S
C121 O144 1.258 . S
Co122 N131 2.057 . S
Co122 O138 2.117 . S
Co122 O139 2.020 . S
Co122 O141 2.021 . S
Co122 O146 2.062 . S
C123 N125 1.316 . S
C123 N126 1.347 1_455 S
C123 H128 0.931 . S
C124 N125 1.375 . S
C124 C127 1.350 1_455 S
C124 H129 0.930 . S
N125 Co120 2.057 . S
N125 C123 1.316 . S
N125 C124 1.375 . S
N126 C123 1.347 1_655 S
N126 C127 1.373 . S
C127 C124 1.350 1_655 S
C127 N126 1.373 . S
C127 H148 0.931 . S
H128 C123 0.931 . S
H129 C124 0.930 . S
C130 O137 1.259 . S
C130 O138 1.258 . S
N131 Co122 2.057 . S
N131 C132 1.316 . S
N131 C133 1.375 . S
C132 N131 1.316 . S
C132 N134 1.347 . S
C132 H143 0.931 . S
C133 N131 1.375 . S
C133 C135 1.350 . S
C133 H142 0.930 . S
N134 C132 1.347 . S
N134 C135 1.373 . S
C135 C133 1.350 . S
C135 N134 1.373 . S
C135 H149 0.931 . S
C136 O139 1.256 . S
C136 O140 1.255 . S
O137 Co120 2.021 . S
O137 C130 1.259 . S
O138 Co122 2.117 . S
O138 C130 1.258 . S
O139 Co122 2.020 . S
O139 C136 1.256 . S
O140 Co120 2.062 . S
O140 C136 1.255 . S
O141 C121 1.259 . S
O141 Co122 2.021 . S
H142 C133 0.930 . S
H143 C132 0.931 . S
O144 Co120 2.117 . S
O144 C121 1.258 . S
O145 Co120 2.020 . S
O145 C147 1.256 . S
O146 Co122 2.062 . S
O146 C147 1.255 . S
C147 O145 1.256 . S
C147 O146 1.255 . S
H148 C127 0.931 . S
H149 C135 0.931 . S
Co150 N155 2.057 . S
Co150 O167 2.021 . S
Co150 O170 2.062 . S
Co150 O174 2.117 . S
Co150 O175 2.020 . S
C151 O171 1.259 . S
C151 O174 1.258 . S
Co152 N161 2.057 . S
Co152 O168 2.117 . S
Co152 O169 2.020 1_455 S
Co152 O171 2.021 . S
Co152 O176 2.062 . S
C153 N155 1.316 . S
C153 N156 1.347 . S
C153 H158 0.931 . S
C154 N155 1.375 . S
C154 C157 1.350 . S
C154 H159 0.930 . S
N155 Co150 2.057 . S
N155 C153 1.316 . S
N155 C154 1.375 . S
N156 C153 1.347 . S
N156 C157 1.373 . S
C157 C154 1.350 . S
C157 N156 1.373 . S
C157 H178 0.931 . S
H158 C153 0.931 . S
H159 C154 0.930 . S
C160 O167 1.259 . S
C160 O168 1.258 . S
N161 Co152 2.057 . S
N161 C162 1.316 . S
N161 C163 1.375 . S
C162 N161 1.316 . S
C162 N164 1.347 . S
C162 H173 0.931 . S
C163 N161 1.375 . S
C163 C165 1.350 . S
C163 H172 0.930 . S
N164 C162 1.347 . S
N164 C165 1.373 . S
C165 C163 1.350 . S
C165 N164 1.373 . S
C165 H179 0.931 . S
C166 O169 1.256 . S
C166 O170 1.255 1_655 S
O167 Co150 2.021 . S
O167 C160 1.259 . S
O168 Co152 2.117 . S
O168 C160 1.258 . S
O169 Co152 2.020 1_655 S
O169 C166 1.256 . S
O170 Co150 2.062 . S
O170 C166 1.255 1_455 S
O171 C151 1.259 . S
O171 Co152 2.021 . S
H172 C163 0.930 . S
H173 C162 0.931 . S
O174 Co150 2.117 . S
O174 C151 1.258 . S
O175 Co150 2.020 . S
O175 C177 1.256 . S
O176 Co152 2.062 . S
O176 C177 1.255 . S
C177 O175 1.256 . S
C177 O176 1.255 . S
H178 C157 0.931 . S
H179 C165 0.931 . S
Co180 N185 2.057 . S
Co180 O197 2.021 . S
Co180 O200 2.062 . S
Co180 O204 2.117 . S
Co180 O205 2.020 . S
C181 O201 1.259 . S
C181 O204 1.258 . S
Co182 N191 2.057 1_545 S
Co182 O198 2.117 . S
Co182 O199 2.020 . S
Co182 O201 2.021 . S
Co182 O206 2.062 . S
C183 N185 1.316 . S
C183 N186 1.347 . S
C183 H188 0.931 . S
C184 N185 1.375 . S
C184 C187 1.350 . S
C184 H189 0.930 . S
N185 Co180 2.057 . S
N185 C183 1.316 . S
N185 C184 1.375 . S
N186 C183 1.347 . S
N186 C187 1.373 . S
C187 C184 1.350 . S
C187 N186 1.373 . S
C187 H208 0.931 . S
H188 C183 0.931 . S
H189 C184 0.930 . S
C190 O197 1.259 . S
C190 O198 1.258 . S
N191 Co182 2.057 1_565 S
N191 C192 1.316 . S
N191 C193 1.375 . S
C192 N191 1.316 . S
C192 N194 1.347 . S
C192 H203 0.931 . S
C193 N191 1.375 . S
C193 C195 1.350 . S
C193 H202 0.930 . S
N194 C192 1.347 . S
N194 C195 1.373 . S
C195 C193 1.350 . S
C195 N194 1.373 . S
C195 H209 0.931 . S
C196 O199 1.256 . S
C196 O200 1.255 . S
O197 Co180 2.021 . S
O197 C190 1.259 . S
O198 Co182 2.117 . S
O198 C190 1.258 . S
O199 Co182 2.020 . S
O199 C196 1.256 . S
O200 Co180 2.062 . S
O200 C196 1.255 . S
O201 C181 1.259 . S
O201 Co182 2.021 . S
H202 C193 0.930 . S
H203 C192 0.931 . S
O204 Co180 2.117 . S
O204 C181 1.258 . S
O205 Co180 2.020 . S
O205 C207 1.256 . S
O206 Co182 2.062 . S
O206 C207 1.255 . S
C207 O205 1.256 . S
C207 O206 1.255 . S
H208 C187 0.931 . S
H209 C195 0.931 . S
Co210 N215 2.057 . S
Co210 O227 2.021 . S
Co210 O230 2.062 . S
Co210 O234 2.117 . S
Co210 O235 2.020 . S
C211 O231 1.259 . S
C211 O234 1.258 . S
Co212 N221 2.057 . S
Co212 O228 2.117 . S
Co212 O229 2.020 1_655 S
Co212 O231 2.021 . S
Co212 O236 2.062 . S
C213 N215 1.316 . S
C213 N216 1.347 . S
C213 H218 0.931 . S
C214 N215 1.375 . S
C214 C217 1.350 . S
C214 H219 0.930 . S
N215 Co210 2.057 . S
N215 C213 1.316 . S
N215 C214 1.375 . S
N216 C213 1.347 . S
N216 C217 1.373 . S
C217 C214 1.350 . S
C217 N216 1.373 . S
C217 H238 0.931 1_545 S
H218 C213 0.931 . S
H219 C214 0.930 . S
C220 O227 1.259 . S
C220 O228 1.258 . S
N221 Co212 2.057 . S
N221 C222 1.316 . S
N221 C223 1.375 . S
C222 N221 1.316 . S
C222 N224 1.347 . S
C222 H233 0.931 . S
C223 N221 1.375 . S
C223 C225 1.350 . S
C223 H232 0.930 . S
N224 C222 1.347 . S
N224 C225 1.373 . S
C225 C223 1.350 . S
C225 N224 1.373 . S
C225 H239 0.931 . S
C226 O229 1.256 . S
C226 O230 1.255 1_455 S
O227 Co210 2.021 . S
O227 C220 1.259 . S
O228 Co212 2.117 . S
O228 C220 1.258 . S
O229 Co212 2.020 1_455 S
O229 C226 1.256 . S
O230 Co210 2.062 . S
O230 C226 1.255 1_655 S
O231 C211 1.259 . S
O231 Co212 2.021 . S
H232 C223 0.930 . S
H233 C222 0.931 . S
O234 Co210 2.117 . S
O234 C211 1.258 . S
O235 Co210 2.020 . S
O235 C237 1.256 . S
O236 Co212 2.062 . S
O236 C237 1.255 . S
C237 O235 1.256 . S
C237 O236 1.255 . S
H238 C217 0.931 1_565 S
H239 C225 0.931 . S
Co240 N245 2.057 . S
Co240 O257 2.021 . S
Co240 O260 2.062 . S
Co240 O264 2.117 . S
Co240 O265 2.020 . S
C241 O261 1.259 . S
C241 O264 1.258 . S
Co242 N251 2.057 . S
Co242 O258 2.117 . S
Co242 O259 2.020 . S
Co242 O261 2.021 . S
Co242 O266 2.062 . S
C243 N245 1.316 . S
C243 N246 1.347 . S
C243 H248 0.931 . S
C244 N245 1.375 . S
C244 C247 1.350 . S
C244 H249 0.930 . S
N245 Co240 2.057 . S
N245 C243 1.316 . S
N245 C244 1.375 . S
N246 C243 1.347 . S
N246 C247 1.373 . S
C247 C244 1.350 . S
C247 N246 1.373 . S
C247 H268 0.931 . S
H248 C243 0.931 . S
H249 C244 0.930 . S
C250 O257 1.259 . S
C250 O258 1.258 . S
N251 Co242 2.057 . S
N251 C252 1.316 . S
N251 C253 1.375 . S
C252 N251 1.316 . S
C252 N254 1.347 . S
C252 H263 0.931 . S
C253 N251 1.375 . S
C253 C255 1.350 . S
C253 H262 0.930 . S
N254 C252 1.347 . S
N254 C255 1.373 . S
C255 C253 1.350 . S
C255 N254 1.373 . S
C255 H269 0.931 . S
C256 O259 1.256 . S
C256 O260 1.255 . S
O257 Co240 2.021 . S
O257 C250 1.259 . S
O258 Co242 2.117 . S
O258 C250 1.258 . S
O259 Co242 2.020 . S
O259 C256 1.256 . S
O260 Co240 2.062 . S
O260 C256 1.255 . S
O261 C241 1.259 . S
O261 Co242 2.021 . S
H262 C253 0.930 . S
H263 C252 0.931 . S
O264 Co240 2.117 . S
O264 C241 1.258 . S
O265 Co240 2.020 . S
O265 C267 1.256 . S
O266 Co242 2.062 . S
O266 C267 1.255 . S
C267 O265 1.256 . S
C267 O266 1.255 . S
H268 C247 0.931 . S
H269 C255 0.931 . S
C270 C271 1.387 1_556 S
C270 H274 0.950 . S
C270 C279 1.390 . S
C271 C270 1.387 1_554 S
C271 C273 1.387 . S
H272 C279 0.950 . S
C273 C271 1.387 . S
C273 C275 1.390 . S
C273 H277 0.950 . S
H274 C270 0.950 . S
C275 C273 1.390 . S
C275 C276 1.389 1_554 S
C275 H278 0.950 . S
C276 C275 1.389 1_556 S
C276 C279 1.386 . S
H277 C273 0.950 . S
H278 C275 0.950 . S
C279 C270 1.390 . S
C279 H272 0.950 . S
C279 C276 1.386 . S
C280 C281 1.387 1_554 S
C280 H284 0.950 . S
C280 C289 1.390 . S
C281 C280 1.387 1_556 S
C281 C283 1.387 . S
H282 C289 0.950 . S
C283 C281 1.387 . S
C283 C285 1.390 . S
C283 H287 0.950 . S
H284 C280 0.950 . S
C285 C283 1.390 . S
C285 C286 1.387 . S
C285 H288 0.950 . S
C286 C285 1.387 . S
C286 C289 1.387 1_556 S
H287 C283 0.950 . S
H288 C285 0.950 . S
C289 C280 1.390 . S
C289 H282 0.950 . S
C289 C286 1.387 1_554 S
C290 C291 1.387 1_554 S
C290 H294 0.950 . S
C290 C299 1.390 . S
C291 C290 1.387 1_556 S
C291 C293 1.387 . S
H292 C299 0.950 . S
C293 C291 1.387 . S
C293 C295 1.390 . S
C293 H297 0.950 . S
H294 C290 0.950 . S
C295 C293 1.390 . S
C295 C296 1.387 . S
C295 H298 0.950 . S
C296 C295 1.387 . S
C296 C299 1.387 1_556 S
H297 C293 0.950 . S
H298 C295 0.950 . S
C299 C290 1.390 . S
C299 H292 0.950 . S
C299 C296 1.387 1_554 S
C300 C301 1.387 1_556 S
C300 H304 0.950 . S
C300 C309 1.390 . S
C301 C300 1.387 1_554 S
C301 C303 1.387 . S
H302 C309 0.950 . S
C303 C301 1.387 . S
C303 C305 1.390 . S
C303 H307 0.950 . S
H304 C300 0.950 . S
C305 C303 1.390 . S
C305 C306 1.387 . S
C305 H308 0.950 . S
C306 C305 1.387 . S
C306 C309 1.387 1_554 S
H307 C303 0.950 . S
H308 C305 0.950 . S
C309 C300 1.390 . S
C309 H302 0.950 . S
C309 C306 1.387 1_556 S
C310 C311 1.387 . S
C310 H314 0.950 . S
C310 C319 1.390 . S
C311 C310 1.387 . S
C311 C313 1.387 1_554 S
H312 C319 0.950 . S
C313 C311 1.387 1_556 S
C313 C315 1.390 . S
C313 H317 0.950 . S
H314 C310 0.950 . S
C315 C313 1.390 . S
C315 C316 1.387 1_556 S
C315 H318 0.950 . S
C316 C315 1.387 1_554 S
C316 C319 1.387 . S
H317 C313 0.950 . S
H318 C315 0.950 . S
C319 C310 1.390 . S
C319 H312 0.950 . S
C319 C316 1.387 . S
C320 C321 1.387 1_556 S
C320 H324 0.950 . S
C320 C329 1.390 . S
C321 C320 1.387 1_554 S
C321 C323 1.387 . S
H322 C329 0.950 . S
C323 C321 1.387 . S
C323 C325 1.390 . S
C323 H327 0.950 . S
H324 C320 0.950 . S
C325 C323 1.390 . S
C325 C326 1.387 . S
C325 H328 0.950 . S
C326 C325 1.387 . S
C326 C329 1.387 1_554 S
H327 C323 0.950 . S
H328 C325 0.950 . S
C329 C320 1.390 . S
C329 H322 0.950 . S
C329 C326 1.387 1_556 S
C330 C331 1.387 . S
C330 H334 0.950 . S
C330 C339 1.390 . S
C331 C330 1.387 . S
C331 C333 1.387 . S
H332 C339 0.950 . S
C333 C331 1.387 . S
C333 C335 1.390 . S
C333 H337 0.950 . S
H334 C330 0.950 . S
C335 C333 1.390 . S
C335 C336 1.387 . S
C335 H338 0.950 . S
C336 C335 1.387 . S
C336 C339 1.387 . S
H337 C333 0.950 . S
H338 C335 0.950 . S
C339 C330 1.390 . S
C339 H332 0.950 . S
C339 C336 1.387 . S
C340 C341 1.387 . S
C340 H344 0.950 . S
C340 C349 1.390 . S
C341 C340 1.387 . S
C341 C343 1.387 . S
H342 C349 0.950 . S
C343 C341 1.387 . S
C343 C345 1.390 . S
C343 H347 0.950 . S
H344 C340 0.950 . S
C345 C343 1.390 . S
C345 C346 1.387 . S
C345 H348 0.950 . S
C346 C345 1.387 . S
C346 C349 1.387 . S
H347 C343 0.950 . S
H348 C345 0.950 . S
C349 C340 1.390 . S
C349 H342 0.950 . S
C349 C346 1.387 . S
C350 C351 1.387 . S
C350 H354 0.950 . S
C350 C359 1.390 . S
C351 C350 1.387 . S
C351 C353 1.387 . S
H352 C359 0.950 . S
C353 C351 1.387 . S
C353 C355 1.390 . S
C353 H357 0.950 . S
H354 C350 0.950 . S
C355 C353 1.390 . S
C355 C356 1.387 . S
C355 H358 0.950 . S
C356 C355 1.387 . S
C356 C359 1.387 . S
H357 C353 0.950 . S
H358 C355 0.950 . S
C359 C350 1.390 . S
C359 H352 0.950 . S
C359 C356 1.387 . S
C360 C361 1.387 . S
C360 H364 0.950 . S
C360 C369 1.390 . S
C361 C360 1.387 . S
C361 C363 1.387 . S
H362 C369 0.950 . S
C363 C361 1.387 . S
C363 C365 1.390 . S
C363 H367 0.950 . S
H364 C360 0.950 . S
C365 C363 1.390 . S
C365 C366 1.387 . S
C365 H368 0.950 . S
C366 C365 1.387 . S
C366 C369 1.387 . S
H367 C363 0.950 . S
H368 C365 0.950 . S
C369 C360 1.390 . S
C369 H362 0.950 . S
C369 C366 1.387 . S
C370 C371 1.387 . S
C370 H374 0.950 . S
C370 C379 1.390 . S
C371 C370 1.387 . S
C371 C373 1.387 . S
H372 C379 0.950 . S
C373 C371 1.387 . S
C373 C375 1.390 . S
C373 H377 0.950 . S
H374 C370 0.950 . S
C375 C373 1.390 . S
C375 C376 1.387 . S
C375 H378 0.950 . S
C376 C375 1.387 . S
C376 C379 1.387 . S
H377 C373 0.950 . S
H378 C375 0.950 . S
C379 C370 1.390 . S
C379 H372 0.950 . S
C379 C376 1.387 . S
C380 C381 1.387 . S
C380 H384 0.950 . S
C380 C389 1.390 . S
C381 C380 1.387 . S
C381 C383 1.387 . S
H382 C389 0.950 . S
C383 C381 1.387 . S
C383 C385 1.390 . S
C383 H387 0.950 . S
H384 C380 0.950 . S
C385 C383 1.390 . S
C385 C386 1.387 . S
C385 H388 0.950 . S
C386 C385 1.387 . S
C386 C389 1.387 . S
H387 C383 0.950 . S
H388 C385 0.950 . S
C389 C380 1.390 . S
C389 H382 0.950 . S
C389 C386 1.387 . S
C390 C391 1.387 . S
C390 H394 0.950 . S
C390 C399 1.390 . S
C391 C390 1.387 . S
C391 C393 1.387 . S
H392 C399 0.950 . S
C393 C391 1.387 . S
C393 C395 1.390 . S
C393 H397 0.950 . S
H394 C390 0.950 . S
C395 C393 1.390 . S
C395 C396 1.387 . S
C395 H398 0.950 . S
C396 C395 1.387 . S
C396 C399 1.387 . S
H397 C393 0.950 . S
H398 C395 0.950 . S
C399 C390 1.390 . S
C399 H392 0.950 . S
C399 C396 1.387 . S
C400 C401 1.387 . S
C400 H404 0.950 . S
C400 C409 1.390 . S
C401 C400 1.387 . S
C401 C403 1.387 . S
H402 C409 0.950 . S
C403 C401 1.387 . S
C403 C405 1.390 . S
C403 H407 0.950 . S
H404 C400 0.950 . S
C405 C403 1.390 . S
C405 C406 1.387 . S
C405 H408 0.950 . S
C406 C405 1.387 . S
C406 C409 1.387 . S
H407 C403 0.950 . S
H408 C405 0.950 . S
C409 C400 1.390 . S
C409 H402 0.950 . S
C409 C406 1.387 . S
C410 C411 1.387 . S
C410 H414 0.950 . S
C410 C419 1.390 . S
C411 C410 1.387 . S
C411 C413 1.387 . S
H412 C419 0.950 . S
C413 C411 1.387 . S
C413 C415 1.390 . S
C413 H417 0.950 . S
H414 C410 0.950 . S
C415 C413 1.390 . S
C415 C416 1.387 . S
C415 H418 0.950 . S
C416 C415 1.387 . S
C416 C419 1.387 . S
H417 C413 0.950 . S
H418 C415 0.950 . S
C419 C410 1.390 . S
C419 H412 0.950 . S
C419 C416 1.387 . S
C420 C421 1.387 . S
C420 H424 0.950 . S
C420 C429 1.390 . S
C421 C420 1.387 . S
C421 C423 1.387 . S
H422 C429 0.950 . S
C423 C421 1.387 . S
C423 C425 1.390 . S
C423 H427 0.950 . S
H424 C420 0.950 . S
C425 C423 1.390 . S
C425 C426 1.387 . S
C425 H428 0.950 . S
C426 C425 1.387 . S
C426 C429 1.387 . S
H427 C423 0.950 . S
H428 C425 0.950 . S
C429 C420 1.390 . S
C429 H422 0.950 . S
C429 C426 1.387 . S
C430 C431 1.387 . S
C430 H434 0.950 . S
C430 C439 1.390 1_655 S
C431 C430 1.387 . S
C431 C433 1.387 . S
H432 C439 0.950 . S
C433 C431 1.387 . S
C433 C435 1.390 1_655 S
C433 H437 0.950 . S
H434 C430 0.950 . S
C435 C433 1.390 1_455 S
C435 C436 1.387 . S
C435 H438 0.950 . S
C436 C435 1.387 . S
C436 C439 1.387 . S
H437 C433 0.950 . S
H438 C435 0.950 . S
C439 C430 1.390 1_455 S
C439 H432 0.950 . S
C439 C436 1.387 . S
C440 C441 1.387 . S
C440 H444 0.950 . S
C440 C449 1.390 . S
C441 C440 1.387 . S
C441 C443 1.387 . S
H442 C449 0.950 . S
C443 C441 1.387 . S
C443 C445 1.390 . S
C443 H447 0.950 . S
H444 C440 0.950 . S
C445 C443 1.390 . S
C445 C446 1.387 . S
C445 H448 0.950 . S
C446 C445 1.387 . S
C446 C449 1.387 . S
H447 C443 0.950 . S
H448 C445 0.950 . S
C449 C440 1.390 . S
C449 H442 0.950 . S
C449 C446 1.387 . S
C450 C451 1.387 . S
C450 H454 0.950 . S
C450 C459 1.390 . S
C451 C450 1.387 . S
C451 C453 1.387 . S
H452 C459 0.950 . S
C453 C451 1.387 . S
C453 C455 1.390 . S
C453 H457 0.950 . S
H454 C450 0.950 . S
C455 C453 1.390 . S
C455 C456 1.387 . S
C455 H458 0.950 . S
C456 C455 1.387 . S
C456 C459 1.387 . S
H457 C453 0.950 . S
H458 C455 0.950 . S
C459 C450 1.390 . S
C459 H452 0.950 . S
C459 C456 1.387 . S
C460 C461 1.387 . S
C460 H464 0.950 . S
C460 C469 1.390 . S
C461 C460 1.387 . S
C461 C463 1.387 . S
H462 C469 0.950 . S
C463 C461 1.387 . S
C463 C465 1.390 . S
C463 H467 0.950 . S
H464 C460 0.950 . S
C465 C463 1.390 . S
C465 C466 1.387 . S
C465 H468 0.950 . S
C466 C465 1.387 . S
C466 C469 1.387 . S
H467 C463 0.950 . S
H468 C465 0.950 . S
C469 C460 1.390 . S
C469 H462 0.950 . S
C469 C466 1.387 . S
C470 C471 1.387 . S
C470 H474 0.950 1_565 S
C470 C479 1.390 . S
C471 C470 1.387 . S
C471 C473 1.387 . S
H472 C479 0.950 . S
C473 C471 1.387 . S
C473 C475 1.390 . S
C473 H477 0.950 . S
H474 C470 0.950 1_545 S
C475 C473 1.390 . S
C475 C476 1.387 . S
C475 H478 0.950 . S
C476 C475 1.387 . S
C476 C479 1.387 . S
H477 C473 0.950 . S
H478 C475 0.950 . S
C479 C470 1.390 . S
C479 H472 0.950 . S
C479 C476 1.387 . S
C480 C481 1.387 . S
C480 H484 0.950 . S
C480 C489 1.390 . S
C481 C480 1.387 . S
C481 C483 1.387 . S
H482 C489 0.950 . S
C483 C481 1.387 . S
C483 C485 1.390 . S
C483 H487 0.950 . S
H484 C480 0.950 . S
C485 C483 1.390 . S
C485 C486 1.387 . S
C485 H488 0.950 . S
C486 C485 1.387 . S
C486 C489 1.387 . S
H487 C483 0.950 . S
H488 C485 0.950 . S
C489 C480 1.390 . S
C489 H482 0.950 . S
C489 C486 1.387 . S
C490 C491 1.387 . S
C490 H494 0.950 . S
C490 C499 1.390 . S
C491 C490 1.387 . S
C491 C493 1.387 . S
H492 C499 0.950 . S
C493 C491 1.387 . S
C493 C495 1.390 . S
C493 H497 0.950 1_655 S
H494 C490 0.950 . S
C495 C493 1.390 . S
C495 C496 1.387 . S
C495 H498 0.935 1_655 S
C496 C495 1.387 . S
C496 C499 1.387 . S
H497 C493 0.950 1_455 S
H498 C495 0.935 1_455 S
C499 C490 1.390 . S
C499 H492 0.950 . S
C499 C496 1.387 . S
C500 C501 1.387 . S
C500 H504 0.950 . S
C500 C509 1.390 . S
C501 C500 1.387 . S
C501 C503 1.387 . S
H502 C509 0.950 . S
C503 C501 1.387 . S
C503 C505 1.390 . S
C503 H507 0.950 . S
H504 C500 0.950 . S
C505 C503 1.390 . S
C505 C506 1.387 . S
C505 H508 0.950 . S
C506 C505 1.387 . S
C506 C509 1.387 . S
H507 C503 0.950 . S
H508 C505 0.950 . S
C509 C500 1.390 . S
C509 H502 0.950 . S
C509 C506 1.387 . S
C510 C511 1.387 . S
C510 H514 0.950 . S
C510 C519 1.390 . S
C511 C510 1.387 . S
C511 C513 1.387 . S
H512 C519 0.950 . S
C513 C511 1.387 . S
C513 C515 1.390 . S
C513 H517 0.950 . S
H514 C510 0.950 . S
C515 C513 1.390 . S
C515 C516 1.387 . S
C515 H518 0.950 . S
C516 C515 1.387 . S
C516 C519 1.387 . S
H517 C513 0.950 . S
H518 C515 0.950 . S
C519 C510 1.390 . S
C519 H512 0.950 . S
C519 C516 1.387 . S
C520 C521 1.387 . S
C520 H524 0.950 . S
C520 C529 1.390 1_565 S
C521 C520 1.387 . S
C521 C523 1.387 1_565 S
H522 C529 0.950 1_565 S
C523 C521 1.387 1_545 S
C523 C525 1.390 . S
C523 H527 0.950 . S
H524 C520 0.950 . S
C525 C523 1.390 . S
C525 C526 1.387 . S
C525 H528 0.950 . S
C526 C525 1.387 . S
C526 C529 1.387 . S
H527 C523 0.950 . S
H528 C525 0.950 . S
C529 C520 1.390 1_545 S
C529 H522 0.950 1_545 S
C529 C526 1.387 . S
C530 C531 1.387 1_455 S
C530 H534 0.950 . S
C530 C539 1.390 . S
C531 C530 1.387 1_655 S
C531 C533 1.387 . S
H532 C539 0.950 . S
C533 C531 1.387 . S
C533 C535 1.390 1_655 S
C533 H537 0.950 . S
H534 C530 0.950 . S
C535 C533 1.390 1_455 S
C535 C536 1.387 . S
C535 H538 0.950 1_455 S
C536 C535 1.387 . S
C536 C539 1.387 . S
H537 C533 0.950 . S
H538 C535 0.950 1_655 S
C539 C530 1.390 . S
C539 H532 0.950 . S
C539 C536 1.387 . S
C271 C57 1.966 . S
C276 C16 1.915 1_556 S
C281 N66 0.689 . S
C286 N44 0.689 . S
C291 C76 1.370 . S
C296 N6 1.397 . S
C301 N74 0.913 . S
C306 N36 0.908 . S
C311 C87 1.184 . S
C316 N14 1.164 . S
C321 C27 2.227 . S
C326 C46 2.148 . S
C331 C106 0.654 . S
C336 N126 0.654 . S
C341 N156 1.562 . S
C346 C136 1.543 1_545 S
C351 C166 1.426 . S
C356 N96 1.452 . S
C361 C147 2.130 . S
C366 N164 2.068 . S
C371 C177 1.072 . S
C376 N104 1.055 . S
C381 N134 1.294 . S
C386 C117 1.313 . S
C391 C237 1.991 . S
C396 C196 1.939 . S
C401 N224 0.689 . S
C406 N246 0.690 . S
C411 C256 1.369 . S
C416 N186 1.395 . S
C421 N254 0.930 . S
C426 N216 0.927 1_565 S
C431 C267 1.164 . S
C436 N194 1.144 . S
C441 C207 2.214 . S
C446 C226 2.135 . S
C451 C151 2.085 . S
C456 C10 2.169 . S
C461 C91 2.194 . S
C466 C31 2.209 . S
C471 C70 1.952 . S
C476 C121 1.857 . S
C481 C61 2.062 . S
C486 C190 2.145 . S
C491 C1 2.215 . S
C496 C211 2.229 . S
C501 C250 1.930 . S
C506 C40 1.928 . S
C511 C100 2.132 . S
C516 C241 2.050 . S
C521 C130 2.328 . S
C526 C181 2.211 . S
C531 C220 1.963 . S
C536 C160 1.965 . S
