# Generated by pormake.
# Topology vbj, (5)-cn, num edge types: 1
# Building blocks:
#     Node 0, Type 0, BuildingBlock: XOMCOT_clean_sbu_0, # of connection points: 5
#     Node 1, Type 0, BuildingBlock: XOMCOT_clean_sbu_0, # of connection points: 5
#     Node 2, Type 0, BuildingBlock: XOMCOT_clean_sbu_0, # of connection points: 5
#     Node 3, Type 0, BuildingBlock: XOMCOT_clean_sbu_0, # of connection points: 5
#     Node 4, Type 0, BuildingBlock: XOMCOT_clean_sbu_0, # of connection points: 5
#     Node 5, Type 0, BuildingBlock: XOMCOT_clean_sbu_0, # of connection points: 5
#     Node 6, Type 0, BuildingBlock: XOMCOT_clean_sbu_0, # of connection points: 5
#     Node 7, Type 0, BuildingBlock: XOMCOT_clean_sbu_0, # of connection points: 5
#     Node 8, Type 0, BuildingBlock: XOMCOT_clean_sbu_0, # of connection points: 5
#     Node 9, Type 0, BuildingBlock: XOMCOT_clean_sbu_0, # of connection points: 5
#     Node 10, Type 0, BuildingBlock: XOMCOT_clean_sbu_0, # of connection points: 5
#     Node 11, Type 0, BuildingBlock: XOMCOT_clean_sbu_0, # of connection points: 5
#     Node 12, Type 0, BuildingBlock: XOMCOT_clean_sbu_0, # of connection points: 5
#     Node 13, Type 0, BuildingBlock: XOMCOT_clean_sbu_0, # of connection points: 5
#     Node 14, Type 0, BuildingBlock: XOMCOT_clean_sbu_0, # of connection points: 5
#     Node 15, Type 0, BuildingBlock: XOMCOT_clean_sbu_0, # of connection points: 5
#     Edge 16, Type (0, 0), BuildingBlock: KIFKEQ_clean_linker_1, # of connection points: 2
#     Edge 17, Type (0, 0), BuildingBlock: KIFKEQ_clean_linker_1, # of connection points: 2
#     Edge 18, Type (0, 0), BuildingBlock: KIFKEQ_clean_linker_1, # of connection points: 2
#     Edge 19, Type (0, 0), BuildingBlock: KIFKEQ_clean_linker_1, # of connection points: 2
#     Edge 20, Type (0, 0), BuildingBlock: KIFKEQ_clean_linker_1, # of connection points: 2
#     Edge 21, Type (0, 0), BuildingBlock: KIFKEQ_clean_linker_1, # of connection points: 2
#     Edge 22, Type (0, 0), BuildingBlock: KIFKEQ_clean_linker_1, # of connection points: 2
#     Edge 23, Type (0, 0), BuildingBlock: KIFKEQ_clean_linker_1, # of connection points: 2
#     Edge 24, Type (0, 0), BuildingBlock: KIFKEQ_clean_linker_1, # of connection points: 2
#     Edge 25, Type (0, 0), BuildingBlock: KIFKEQ_clean_linker_1, # of connection points: 2
#     Edge 26, Type (0, 0), BuildingBlock: KIFKEQ_clean_linker_1, # of connection points: 2
#     Edge 27, Type (0, 0), BuildingBlock: KIFKEQ_clean_linker_1, # of connection points: 2
#     Edge 28, Type (0, 0), BuildingBlock: KIFKEQ_clean_linker_1, # of connection points: 2
#     Edge 29, Type (0, 0), BuildingBlock: KIFKEQ_clean_linker_1, # of connection points: 2
#     Edge 30, Type (0, 0), BuildingBlock: KIFKEQ_clean_linker_1, # of connection points: 2
#     Edge 31, Type (0, 0), BuildingBlock: KIFKEQ_clean_linker_1, # of connection points: 2
#     Edge 32, Type (0, 0), BuildingBlock: KIFKEQ_clean_linker_1, # of connection points: 2
#     Edge 33, Type (0, 0), BuildingBlock: KIFKEQ_clean_linker_1, # of connection points: 2
#     Edge 34, Type (0, 0), BuildingBlock: KIFKEQ_clean_linker_1, # of connection points: 2
#     Edge 35, Type (0, 0), BuildingBlock: KIFKEQ_clean_linker_1, # of connection points: 2
#     Edge 36, Type (0, 0), BuildingBlock: KIFKEQ_clean_linker_1, # of connection points: 2
#     Edge 37, Type (0, 0), BuildingBlock: KIFKEQ_clean_linker_1, # of connection points: 2
#     Edge 38, Type (0, 0), BuildingBlock: KIFKEQ_clean_linker_1, # of connection points: 2
#     Edge 39, Type (0, 0), BuildingBlock: KIFKEQ_clean_linker_1, # of connection points: 2
#     Edge 40, Type (0, 0), BuildingBlock: KIFKEQ_clean_linker_1, # of connection points: 2
#     Edge 41, Type (0, 0), BuildingBlock: KIFKEQ_clean_linker_1, # of connection points: 2
#     Edge 42, Type (0, 0), BuildingBlock: KIFKEQ_clean_linker_1, # of connection points: 2
#     Edge 43, Type (0, 0), BuildingBlock: KIFKEQ_clean_linker_1, # of connection points: 2
#     Edge 44, Type (0, 0), BuildingBlock: KIFKEQ_clean_linker_1, # of connection points: 2
#     Edge 45, Type (0, 0), BuildingBlock: KIFKEQ_clean_linker_1, # of connection points: 2
#     Edge 46, Type (0, 0), BuildingBlock: KIFKEQ_clean_linker_1, # of connection points: 2
#     Edge 47, Type (0, 0), BuildingBlock: KIFKEQ_clean_linker_1, # of connection points: 2
#     Edge 48, Type (0, 0), BuildingBlock: KIFKEQ_clean_linker_1, # of connection points: 2
#     Edge 49, Type (0, 0), BuildingBlock: KIFKEQ_clean_linker_1, # of connection points: 2
#     Edge 50, Type (0, 0), BuildingBlock: KIFKEQ_clean_linker_1, # of connection points: 2
#     Edge 51, Type (0, 0), BuildingBlock: KIFKEQ_clean_linker_1, # of connection points: 2
#     Edge 52, Type (0, 0), BuildingBlock: KIFKEQ_clean_linker_1, # of connection points: 2
#     Edge 53, Type (0, 0), BuildingBlock: KIFKEQ_clean_linker_1, # of connection points: 2
#     Edge 54, Type (0, 0), BuildingBlock: KIFKEQ_clean_linker_1, # of connection points: 2
#     Edge 55, Type (0, 0), BuildingBlock: KIFKEQ_clean_linker_1, # of connection points: 2
# Relax obj value: 0.090
# Max RMSD: 0.164
# Mean RMSD: 0.158
data_MOF--net-vbj--node1-XOMCOT_clean_sbu_0--edge1-KIFKEQ_clean_linker_1
_symmetry_space_group_name_H-M    P1
_symmetry_Int_Tables_number       1
_symmetry_cell_setting            triclinic
loop_
_symmetry_equiv_pos_as_xyz
'x, y, z'
_cell_length_a     25.348535
_cell_length_b     66.312331
_cell_length_c     51.609459
_cell_angle_alpha  89.555036
_cell_angle_beta   90.487561
_cell_angle_gamma 90.102831
loop_
_atom_site_label
_atom_site_type_symbol
_atom_site_fract_x
_atom_site_fract_y
_atom_site_fract_z
_atom_type_partial_charge
Co0 Co 0.09098 0.12692 0.06421 0.0
C1 C 0.13363 0.08623 0.07812 0.0
C2 C 0.05464 0.08443 0.06328 0.0
C3 C 0.07416 0.06517 0.0661 0.0
N4 N 0.09189 0.09778 0.07075 0.0
N5 N 0.12416 0.06626 0.07514 0.0
H6 H 0.17113 0.09229 0.08444 0.0
H7 H 0.01672 0.08825 0.05491 0.0
C8 C 0.9792 0.1358 0.04924 0.0
O9 O 0.97756 0.14869 0.06837 0.0
N10 N 0.09059 0.15604 0.05622 0.0
C11 C 0.1057 0.16385 0.03318 0.0
C12 C 0.09664 0.18419 0.03267 0.0
C13 C 0.07193 0.17221 0.06939 0.0
N14 N 0.0749 0.18954 0.0553 0.0
C15 C 0.09155 0.14122 0.11607 0.0
C16 C 1.00464 0.11965 0.13271 0.0
C17 C 0.03526 0.13006 0.15107 0.0
C18 C 0.07861 0.14127 0.14229 0.0
C19 C 0.01878 0.12011 0.10658 0.0
N20 N 0.0617 0.13086 0.0985 0.0
H21 H 0.12644 0.14924 0.10987 0.0
H22 H 0.99634 0.11114 0.09302 0.0
H23 H 0.12105 0.15539 0.01714 0.0
H24 H 0.05373 0.17131 0.0882 0.0
O25 O 0.1647 0.12884 0.07373 0.0
O26 O 0.13391 0.12206 0.03429 0.0
O27 O 0.01996 0.12477 0.04623 0.0
C28 C 0.17427 0.12474 0.04964 0.0
H29 H 0.05411 0.05153 0.06018 0.0
H30 H 0.10498 0.19422 0.01658 0.0
H31 H 0.97139 0.11046 0.13858 0.0
H32 H 0.10308 0.14978 0.15561 0.0
Co33 Co 0.42325 0.89013 0.08092 0.0
C34 C 0.37938 0.93213 0.07985 0.0
C35 C 0.42666 0.926 0.04674 0.0
C36 C 0.40408 0.94474 0.04356 0.0
N37 N 0.41246 0.91818 0.06987 0.0
N38 N 0.37409 0.94863 0.0644 0.0
H39 H 0.35687 0.92985 0.09716 0.0
H40 H 0.44931 0.91814 0.03232 0.0
C41 C 0.52996 0.90325 0.06343 0.0
O42 O 0.5251 0.91884 0.07879 0.0
N43 N 0.43199 0.86225 0.09158 0.0
C44 C 0.41319 0.8545 0.11386 0.0
C45 C 0.42821 0.83468 0.1159 0.0
C46 C 0.45773 0.84691 0.08005 0.0
N47 N 0.4562 0.82988 0.09473 0.0
C48 C 0.422 0.90664 0.13207 0.0
C49 C 0.52069 0.89328 0.14742 0.0
C50 C 0.48773 0.90205 0.16586 0.0
C51 C 0.43827 0.90913 0.1577 0.0
C52 C 0.50277 0.89109 0.12182 0.0
N53 N 0.45414 0.89803 0.11421 0.0
H54 H 0.38174 0.91018 0.12738 0.0
H55 H 0.52681 0.88262 0.10861 0.0
H56 H 0.39073 0.86283 0.12792 0.0
H57 H 0.47823 0.84829 0.06181 0.0
O58 O 0.35006 0.88877 0.09092 0.0
O59 O 0.38051 0.88169 0.05187 0.0
O60 O 0.49396 0.88971 0.06288 0.0
C61 C 0.34026 0.88337 0.06719 0.0
H62 H 0.40704 0.95415 0.02642 0.0
H63 H 0.41936 0.82454 0.13182 0.0
H64 H 0.55859 0.88705 0.15305 0.0
H65 H 0.41117 0.91576 0.17132 0.0
Co66 Co 0.57237 0.90863 0.45041 0.0
C67 C 0.54581 0.86382 0.44659 0.0
C68 C 0.59845 0.87145 0.47771 0.0
C69 C 0.58964 0.85104 0.47855 0.0
N70 N 0.5717 0.87961 0.45752 0.0
N71 N 0.55661 0.84616 0.45898 0.0
H72 H 0.51985 0.86493 0.43002 0.0
H73 H 0.62279 0.8799 0.49111 0.0
C74 C 0.6843 0.89536 0.44401 0.0
O75 O 0.66726 0.88003 0.43027 0.0
N76 N 0.5745 0.93756 0.44441 0.0
C77 C 0.53849 0.94881 0.43156 0.0
C78 C 0.55724 0.96831 0.4295 0.0
C79 C 0.61457 0.95035 0.44998 0.0
N80 N 0.60528 0.96925 0.44096 0.0
C81 C 0.52618 0.89834 0.40154 0.0
C82 C 0.60789 0.91167 0.37066 0.0
C83 C 0.56162 0.90452 0.3588 0.0
C84 C 0.52061 0.89771 0.37466 0.0
C85 C 0.61174 0.91214 0.39774 0.0
N86 N 0.57179 0.90492 0.41292 0.0
H87 H 0.49275 0.89417 0.41321 0.0
H88 H 0.64594 0.91921 0.40635 0.0
H89 H 0.50193 0.94308 0.42352 0.0
H90 H 0.65008 0.9459 0.46023 0.0
O91 O 0.49706 0.90985 0.45608 0.0
O92 O 0.55788 0.91294 0.48683 0.0
O93 O 0.65177 0.90833 0.45261 0.0
C94 C 0.50809 0.91219 0.4805 0.0
H95 H 0.60557 0.84064 0.49285 0.0
H96 H 0.5378 0.98064 0.41945 0.0
H97 H 0.63984 0.91771 0.35914 0.0
H98 H 0.4839 0.89225 0.36639 0.0
Co99 Co 0.90682 0.14598 0.42692 0.0
C100 C 0.85383 0.1058 0.43229 0.0
C101 C 0.90881 0.11154 0.46317 0.0
C102 C 0.88482 0.09324 0.46772 0.0
N103 N 0.88988 0.11939 0.44084 0.0
N104 N 0.85015 0.08953 0.44831 0.0
H105 H 0.83017 0.1079 0.415 0.0
H106 H 0.93688 0.11887 0.47585 0.0
C107 C 0.02114 0.15437 0.44247 0.0
O108 O 0.0273 0.16733 0.42336 0.0
N109 N 0.92235 0.1728 0.4132 0.0
C110 C 0.92176 0.1787 0.38814 0.0
C111 C 0.93207 0.19904 0.38676 0.0
C112 C 0.93186 0.18986 0.42675 0.0
N113 N 0.93852 0.20612 0.41103 0.0
C114 C 0.89049 0.12952 0.37666 0.0
C115 C 0.99468 0.12743 0.36187 0.0
C116 C 0.95499 0.12545 0.34296 0.0
C117 C 0.90244 0.12546 0.35096 0.0
C118 C 0.98094 0.13135 0.38762 0.0
N119 N 0.92927 0.13368 0.39442 0.0
H120 H 0.84946 0.13061 0.38164 0.0
H121 H 0.0123 0.1332 0.40146 0.0
H122 H 0.91412 0.16908 0.37177 0.0
H123 H 0.93392 0.1903 0.44769 0.0
O124 O 0.83331 0.15024 0.41838 0.0
O125 O 0.87135 0.15814 0.45579 0.0
O126 O 0.97877 0.14395 0.44433 0.0
C127 C 0.82894 0.15764 0.44147 0.0
H128 H 0.89125 0.08379 0.48463 0.0
H129 H 0.93535 0.20782 0.3691 0.0
H130 H 0.03595 0.12708 0.35664 0.0
H131 H 0.87047 0.12328 0.33719 0.0
Co132 Co 0.9017 0.904 0.89331 0.0
C133 C 0.93536 0.86113 0.89247 0.0
C134 C 0.85129 0.86454 0.88902 0.0
C135 C 0.86332 0.84439 0.88731 0.0
N136 N 0.89636 0.87498 0.89229 0.0
N137 N 0.91614 0.84225 0.8894 0.0
H138 H 0.97684 0.86487 0.89405 0.0
H139 H 0.81243 0.87116 0.88747 0.0
C140 C 0.82564 0.9153 0.93406 0.0
O141 O 0.8629 0.92748 0.94246 0.0
N142 N 0.90468 0.93349 0.89287 0.0
C143 C 0.94583 0.9458 0.88759 0.0
C144 C 0.928 0.96533 0.88519 0.0
C145 C 0.86209 0.94577 0.89182 0.0
N146 N 0.87519 0.96531 0.88798 0.0
C147 C 0.99146 0.91002 0.92656 0.0
C148 C 0.95769 0.88577 0.96697 0.0
C149 C 0.00725 0.895 0.96858 0.0
C150 C 0.02391 0.90732 0.94816 0.0
C151 C 0.92567 0.88934 0.94518 0.0
N152 N 0.9423 0.90169 0.92547 0.0
H153 H 0.00748 0.91785 0.9102 0.0
H154 H 0.8882 0.8816 0.94378 0.0
H155 H 0.98561 0.94109 0.88364 0.0
H156 H 0.82188 0.94036 0.89248 0.0
O157 O 0.95988 0.90293 0.86987 0.0
O158 O 0.87625 0.90536 0.85748 0.0
O159 O 0.83314 0.90482 0.91362 0.0
C160 C 0.92592 0.90417 0.85103 0.0
H161 H 0.83525 0.83224 0.88467 0.0
H162 H 0.95212 0.97841 0.88099 0.0
H163 H 0.94426 0.87568 0.98216 0.0
H164 H 0.06302 0.91396 0.94827 0.0
Co165 Co 0.61007 0.1466 0.87783 0.0
C166 C 0.58385 0.19124 0.88109 0.0
C167 C 0.65758 0.1849 0.86298 0.0
C168 C 0.65076 0.20546 0.86323 0.0
N169 N 0.61588 0.17586 0.87433 0.0
N170 N 0.60432 0.2094 0.87457 0.0
H171 H 0.54699 0.18967 0.89099 0.0
H172 H 0.69101 0.17698 0.85512 0.0
C173 C 0.69586 0.15825 0.91396 0.0
O174 O 0.66482 0.17321 0.92039 0.0
N175 N 0.60707 0.11758 0.88021 0.0
C176 C 0.56478 0.10574 0.88444 0.0
C177 C 0.58146 0.08595 0.88572 0.0
C178 C 0.64853 0.10499 0.87872 0.0
N179 N 0.63423 0.08551 0.88219 0.0
C180 C 0.52194 0.15468 0.90949 0.0
C181 C 0.55589 0.13344 0.95277 0.0
C182 C 0.50338 0.13985 0.95112 0.0
C183 C 0.48736 0.15136 0.92971 0.0
C184 C 0.58994 0.13744 0.93207 0.0
N185 N 0.57269 0.14789 0.91061 0.0
H186 H 0.50596 0.16129 0.89201 0.0
H187 H 0.62839 0.13046 0.93241 0.0
H188 H 0.52491 0.11114 0.88693 0.0
H189 H 0.68836 0.11007 0.87507 0.0
O190 O 0.54894 0.14664 0.85582 0.0
O191 O 0.63035 0.14438 0.8413 0.0
O192 O 0.68115 0.14597 0.89626 0.0
C193 C 0.57978 0.14518 0.83616 0.0
H194 H 0.67748 0.21662 0.8553 0.0
H195 H 0.55669 0.07299 0.88959 0.0
H196 H 0.56927 0.1241 0.96883 0.0
H197 H 0.44696 0.1565 0.92768 0.0
Co198 Co 0.39153 0.14654 0.61444 0.0
C199 C 0.4244 0.18947 0.61497 0.0
C200 C 0.34009 0.18606 0.61451 0.0
C201 C 0.35195 0.20631 0.61488 0.0
N202 N 0.38548 0.17557 0.61435 0.0
N203 N 0.40492 0.20844 0.61518 0.0
H204 H 0.46596 0.18576 0.61501 0.0
H205 H 0.30106 0.17946 0.61467 0.0
C206 C 0.31946 0.13505 0.57162 0.0
O207 O 0.35837 0.12342 0.5642 0.0
N208 N 0.39511 0.11707 0.61595 0.0
C209 C 0.43514 0.10519 0.62437 0.0
C210 C 0.41729 0.08565 0.62693 0.0
C211 C 0.35283 0.10457 0.61526 0.0
N212 N 0.36538 0.08528 0.62113 0.0
C213 C 0.48255 0.13991 0.58363 0.0
C214 C 0.45575 0.16607 0.54369 0.0
C215 C 0.50659 0.15787 0.54472 0.0
C216 C 0.51905 0.1441 0.56447 0.0
C217 C 0.41992 0.16129 0.5633 0.0
N218 N 0.43373 0.14845 0.58316 0.0
H219 H 0.49548 0.13095 0.59979 0.0
H220 H 0.38211 0.1688 0.5633 0.0
H221 H 0.4737 0.11034 0.63043 0.0
H222 H 0.31305 0.10965 0.61154 0.0
O223 O 0.44918 0.14849 0.63833 0.0
O224 O 0.36566 0.14583 0.65015 0.0
O225 O 0.32391 0.14491 0.59285 0.0
C226 C 0.41538 0.14756 0.6569 0.0
H227 H 0.32369 0.21851 0.61553 0.0
H228 H 0.44017 0.07298 0.63405 0.0
H229 H 0.44485 0.17692 0.52879 0.0
H230 H 0.55784 0.13732 0.56586 0.0
Co231 Co 0.10333 0.9038 0.62792 0.0
C232 C 0.07479 0.8597 0.63067 0.0
C233 C 0.15231 0.86617 0.64518 0.0
C234 C 0.14301 0.84585 0.64819 0.0
N235 N 0.10994 0.87487 0.63375 0.0
N236 N 0.09417 0.84183 0.6391 0.0
H237 H 0.03571 0.86138 0.62278 0.0
H238 H 0.18748 0.87418 0.65121 0.0
C239 C 0.19621 0.89158 0.59615 0.0
O240 O 0.1702 0.87513 0.58997 0.0
N241 N 0.09894 0.93257 0.62318 0.0
C242 C 0.05675 0.9439 0.61678 0.0
C243 C 0.07251 0.96384 0.61563 0.0
C244 C 0.13936 0.94557 0.62603 0.0
N245 N 0.12454 0.96483 0.6215 0.0
C246 C 0.01712 0.89331 0.59476 0.0
C247 C 0.06002 0.90604 0.54843 0.0
C248 C 0.00943 0.89747 0.54842 0.0
C249 C 0.98799 0.89125 0.57202 0.0
C250 C 0.08847 0.90747 0.57179 0.0
N251 N 0.06781 0.90027 0.5945 0.0
H252 H 0.99784 0.88974 0.61273 0.0
H253 H 0.12612 0.91507 0.5716 0.0
H254 H 0.01747 0.93809 0.61322 0.0
H255 H 0.17904 0.94088 0.631 0.0
O256 O 0.04163 0.9042 0.64941 0.0
O257 O 0.12315 0.90789 0.66416 0.0
O258 O 0.17551 0.90455 0.61122 0.0
C259 C 0.07282 0.90677 0.66912 0.0
H260 H 0.16954 0.835 0.65707 0.0
H261 H 0.04738 0.97658 0.61113 0.0
H262 H 0.07708 0.91179 0.53067 0.0
H263 H 0.94793 0.88558 0.57309 0.0
Co264 Co 0.59804 0.62761 0.07367 0.0
C265 C 0.63489 0.58507 0.06902 0.0
C266 C 0.58556 0.59361 0.03705 0.0
C267 C 0.6058 0.57468 0.03241 0.0
N268 N 0.60259 0.60003 0.06043 0.0
N269 N 0.63719 0.56932 0.05253 0.0
H270 H 0.65939 0.58618 0.08602 0.0
H271 H 0.56294 0.60258 0.02337 0.0
C272 C 0.48753 0.62041 0.05327 0.0
O273 O 0.4864 0.60284 0.06521 0.0
N274 N 0.59572 0.65496 0.08653 0.0
C275 C 0.61704 0.66089 0.10921 0.0
C276 C 0.61141 0.68139 0.11132 0.0
C277 C 0.5773 0.672 0.07503 0.0
N278 N 0.58668 0.68845 0.08984 0.0
C279 C 0.598 0.6082 0.12332 0.0
C280 C 0.50439 0.62435 0.14047 0.0
C281 C 0.53725 0.6142 0.1583 0.0
C282 C 0.58357 0.60545 0.14908 0.0
C283 C 0.52002 0.6265 0.11456 0.0
N284 N 0.56668 0.61858 0.10623 0.0
H285 H 0.63689 0.60354 0.11807 0.0
H286 H 0.49663 0.636 0.10189 0.0
H287 H 0.63597 0.65097 0.12316 0.0
H288 H 0.55878 0.67242 0.05606 0.0
O289 O 0.67179 0.6262 0.08356 0.0
O290 O 0.64111 0.6366 0.04535 0.0
O291 O 0.52754 0.63198 0.05589 0.0
C292 C 0.6815 0.63312 0.06043 0.0
H293 H 0.60059 0.5662 0.01474 0.0
H294 H 0.62431 0.69041 0.12758 0.0
H295 H 0.46876 0.63176 0.14678 0.0
H296 H 0.61026 0.59744 0.162 0.0
Co297 Co 0.92855 0.39109 0.08161 0.0
C298 C 0.87373 0.43027 0.06922 0.0
C299 C 0.95715 0.43182 0.06317 0.0
C300 C 0.93591 0.45055 0.05839 0.0
N301 N 0.91826 0.41891 0.0697 0.0
N302 N 0.88336 0.44971 0.06234 0.0
H303 H 0.83544 0.42473 0.07491 0.0
H304 H 0.99866 0.42815 0.06277 0.0
C305 C 0.99739 0.39041 0.03666 0.0
O306 O 0.95292 0.39197 0.02359 0.0
N307 N 0.93888 0.36371 0.09404 0.0
C308 C 0.92744 0.35718 0.1181 0.0
C309 C 0.93872 0.33696 0.11992 0.0
C310 C 0.95675 0.34733 0.0814 0.0
N311 N 0.95701 0.33065 0.09685 0.0
C312 C 0.93804 0.41255 0.12893 0.0
C313 C 0.03715 0.39831 0.14242 0.0
C314 C 0.00839 0.40918 0.16078 0.0
C315 C 0.95877 0.41682 0.15342 0.0
C316 C 0.01481 0.39429 0.11814 0.0
N317 N 0.96532 0.40096 0.11199 0.0
H318 H 0.89874 0.41767 0.124 0.0
H319 H 0.03608 0.3848 0.1049 0.0
H320 H 0.91199 0.36654 0.13333 0.0
H321 H 0.96837 0.34758 0.06128 0.0
O322 O 0.85687 0.39033 0.09489 0.0
O323 O 0.88086 0.38113 0.05554 0.0
O324 O 0.99634 0.3897 0.06143 0.0
C325 C 0.84354 0.38321 0.07233 0.0
H326 H 0.95805 0.46382 0.0528 0.0
H327 H 0.93431 0.32772 0.13713 0.0
H328 H 0.07587 0.39234 0.14703 0.0
H329 H 0.93468 0.42506 0.16693 0.0
Co330 Co 0.07231 0.40941 0.44515 0.0
C331 C 0.04989 0.3646 0.44014 0.0
C332 C 0.10102 0.37216 0.47189 0.0
C333 C 0.09295 0.35168 0.47226 0.0
N334 N 0.07487 0.38036 0.45155 0.0
N335 N 0.0608 0.34688 0.45231 0.0
H336 H 0.02405 0.36582 0.42355 0.0
H337 H 0.12404 0.38063 0.48582 0.0
C338 C 0.18692 0.39876 0.44203 0.0
O339 O 0.1745 0.38279 0.42835 0.0
N340 N 0.07109 0.43839 0.43992 0.0
C341 C 0.03866 0.44905 0.42426 0.0
C342 C 0.05659 0.46872 0.42309 0.0
C343 C 0.10778 0.4517 0.44827 0.0
N344 N 0.10036 0.47035 0.43809 0.0
C345 C 0.03368 0.39936 0.39462 0.0
C346 C 0.11744 0.41489 0.3669 0.0
C347 C 0.07329 0.4076 0.35339 0.0
C348 C 0.03124 0.39963 0.36762 0.0
C349 C 0.11806 0.4145 0.39402 0.0
N350 N 0.0771 0.40628 0.40765 0.0
H351 H 0.99922 0.39443 0.40501 0.0
H352 H 0.15029 0.42191 0.40387 0.0
H353 H 1.00569 0.44279 0.41356 0.0
H354 H 0.14078 0.44756 0.46057 0.0
O355 O 0.9966 0.40868 0.44841 0.0
O356 O 0.05247 0.41302 0.48114 0.0
O357 O 0.15116 0.41085 0.44962 0.0
C358 C 1.00389 0.41095 0.47316 0.0
H359 H 0.10842 0.34122 0.4866 0.0
H360 H 0.03926 0.48074 0.41158 0.0
H361 H 0.14999 0.4218 0.35664 0.0
H362 H 0.99605 0.39408 0.35797 0.0
Co363 Co 0.4118 0.64366 0.43415 0.0
C364 C 0.35726 0.60409 0.43869 0.0
C365 C 0.42261 0.60599 0.4652 0.0
C366 C 0.39804 0.58761 0.46863 0.0
N367 N 0.39723 0.61633 0.4463 0.0
N368 N 0.3568 0.58641 0.45199 0.0
H369 H 0.32878 0.60807 0.42383 0.0
H370 H 0.45597 0.61146 0.47625 0.0
C371 C 0.52445 0.65391 0.45091 0.0
O372 O 0.52877 0.66708 0.43191 0.0
N373 N 0.42431 0.67107 0.42165 0.0
C374 C 0.42295 0.67729 0.39672 0.0
C375 C 0.43093 0.69777 0.39575 0.0
C376 C 0.43181 0.68812 0.43558 0.0
N377 N 0.43664 0.70467 0.42014 0.0
C378 C 0.39955 0.62727 0.38352 0.0
C379 C 0.50441 0.62601 0.36985 0.0
C380 C 0.46583 0.62206 0.35087 0.0
C381 C 0.41292 0.62213 0.3583 0.0
C382 C 0.48929 0.63092 0.39511 0.0
N383 N 0.43717 0.63252 0.40142 0.0
H384 H 0.35826 0.62788 0.38809 0.0
H385 H 0.51991 0.63364 0.40908 0.0
H386 H 0.41636 0.66776 0.38016 0.0
H387 H 0.43397 0.68833 0.45652 0.0
O388 O 0.33824 0.64691 0.42484 0.0
O389 O 0.37285 0.65417 0.46315 0.0
O390 O 0.48349 0.64261 0.45247 0.0
C391 C 0.33117 0.65311 0.44833 0.0
H392 H 0.40891 0.57626 0.48287 0.0
H393 H 0.43332 0.7068 0.37824 0.0
H394 H 0.54595 0.62554 0.36515 0.0
H395 H 0.38162 0.61919 0.34441 0.0
Co396 Co 0.41091 0.40533 0.89471 0.0
C397 C 0.44756 0.36271 0.89424 0.0
C398 C 0.36317 0.36536 0.89161 0.0
C399 C 0.37603 0.34525 0.89167 0.0
N400 N 0.40785 0.37627 0.89351 0.0
N401 N 0.42897 0.3436 0.89334 0.0
H402 H 0.48886 0.36674 0.89579 0.0
H403 H 0.32387 0.37159 0.89012 0.0
C404 C 0.33213 0.41411 0.93559 0.0
O405 O 0.36761 0.42632 0.94561 0.0
N406 N 0.41144 0.43483 0.89468 0.0
C407 C 0.45124 0.44749 0.88836 0.0
C408 C 0.43221 0.46688 0.88667 0.0
C409 C 0.36823 0.4468 0.89509 0.0
N410 N 0.37987 0.46645 0.891 0.0
C411 C 0.49971 0.41222 0.92792 0.0
C412 C 0.46992 0.38635 0.96748 0.0
C413 C 0.52027 0.39504 0.96809 0.0
C414 C 0.53439 0.40851 0.94836 0.0
C415 C 0.43611 0.39052 0.94651 0.0
N416 N 0.45112 0.40341 0.92702 0.0
H417 H 0.51391 0.42103 0.91196 0.0
H418 H 0.39898 0.38254 0.94529 0.0
H419 H 0.49071 0.44306 0.88321 0.0
H420 H 0.32859 0.44114 0.89741 0.0
O421 O 0.46986 0.4052 0.87169 0.0
O422 O 0.38638 0.40637 0.85873 0.0
O423 O 0.34172 0.40507 0.91428 0.0
C424 C 0.43635 0.40606 0.85263 0.0
H425 H 0.34859 0.33279 0.89008 0.0
H426 H 0.4548 0.48008 0.8812 0.0
H427 H 0.45809 0.37553 0.98215 0.0
H428 H 0.57322 0.41537 0.94803 0.0
Co429 Co 0.11165 0.64639 0.8883 0.0
C430 C 0.08365 0.69079 0.88882 0.0
C431 C 0.15969 0.68463 0.87306 0.0
C432 C 0.15103 0.70509 0.87163 0.0
N433 N 0.1177 0.67557 0.88407 0.0
N434 N 0.10311 0.70897 0.88154 0.0
H435 H 0.0455 0.68896 0.89734 0.0
H436 H 0.19423 0.67678 0.86627 0.0
C437 C 0.19975 0.658 0.9239 0.0
O438 O 0.17102 0.67374 0.92986 0.0
N439 N 0.1081 0.61746 0.89146 0.0
C440 C 0.06586 0.60569 0.89612 0.0
C441 C 0.08216 0.58583 0.89654 0.0
C442 C 0.1491 0.60478 0.88892 0.0
N443 N 0.13459 0.5853 0.89197 0.0
C444 C 0.02433 0.65562 0.9205 0.0
C445 C 0.06431 0.63994 0.96633 0.0
C446 C 0.01416 0.64875 0.9661 0.0
C447 C 0.99414 0.65648 0.94276 0.0
C448 C 0.09387 0.63978 0.94351 0.0
N449 N 0.07477 0.6485 0.92118 0.0
H450 H 1.0061 0.66022 0.90248 0.0
H451 H 0.13106 0.63189 0.94367 0.0
H452 H 0.02617 0.61116 0.89896 0.0
H453 H 0.18892 0.60984 0.88519 0.0
O454 O 0.05056 0.64627 0.86592 0.0
O455 O 0.13232 0.64339 0.85201 0.0
O456 O 0.18301 0.64567 0.90665 0.0
C457 C 0.08195 0.64421 0.8465 0.0
H458 H 0.1775 0.71614 0.86328 0.0
H459 H 0.05713 0.57281 0.89964 0.0
H460 H 0.08004 0.63296 0.98379 0.0
H461 H 0.9543 0.66233 0.94142 0.0
Co462 Co 0.89773 0.64642 0.62302 0.0
C463 C 0.92883 0.69019 0.62869 0.0
C464 C 0.84952 0.68387 0.64014 0.0
C465 C 0.85931 0.70404 0.644 0.0
N466 N 0.89277 0.67517 0.63011 0.0
N467 N 0.90922 0.70799 0.63672 0.0
H468 H 0.96906 0.68837 0.62285 0.0
H469 H 0.81312 0.67601 0.64434 0.0
C470 C 0.81332 0.66155 0.58746 0.0
O471 O 0.84476 0.67702 0.5835 0.0
N472 N 0.90037 0.61781 0.61709 0.0
C473 C 0.94281 0.60631 0.61223 0.0
C474 C 0.92663 0.58646 0.61072 0.0
C475 C 0.85924 0.60499 0.61854 0.0
N476 N 0.87403 0.58569 0.61466 0.0
C477 C 0.98793 0.65765 0.59366 0.0
C478 C 0.95065 0.64714 0.54521 0.0
C479 C 1.00073 0.65599 0.54755 0.0
C480 C 0.01945 0.66092 0.57222 0.0
C481 C 0.9197 0.64444 0.56741 0.0
N482 N 0.93738 0.65079 0.59115 0.0
H483 H 1.00524 0.66028 0.61244 0.0
H484 H 0.88228 0.63678 0.56549 0.0
H485 H 0.98266 0.61193 0.61022 0.0
H486 H 0.81954 0.60968 0.6231 0.0
O487 O 0.95724 0.6444 0.64609 0.0
O488 O 0.87481 0.64123 0.65882 0.0
O489 O 0.82745 0.64757 0.60341 0.0
C490 C 0.92494 0.64167 0.66501 0.0
H491 H 0.8316 0.71493 0.65138 0.0
H492 H 0.95165 0.57363 0.60694 0.0
H493 H 0.93583 0.64225 0.52654 0.0
H494 H 0.05918 0.6666 0.57509 0.0
Co495 Co 0.6094 0.40321 0.62878 0.0
C496 C 0.57595 0.35934 0.62661 0.0
C497 C 0.65431 0.36394 0.64128 0.0
C498 C 0.6441 0.34358 0.64128 0.0
N499 N 0.61192 0.37391 0.63179 0.0
N500 N 0.59481 0.3407 0.63206 0.0
H501 H 0.53705 0.36192 0.61887 0.0
H502 H 0.69043 0.37108 0.64774 0.0
C503 C 0.69205 0.39088 0.59181 0.0
O504 O 0.65848 0.37699 0.58413 0.0
N505 N 0.60909 0.43226 0.62659 0.0
C506 C 0.56684 0.44442 0.62429 0.0
C507 C 0.58424 0.46411 0.62293 0.0
C508 C 0.65146 0.44457 0.62667 0.0
N509 N 0.63748 0.46416 0.62436 0.0
C510 C 0.5179 0.3968 0.59743 0.0
C511 C 0.55599 0.41308 0.55181 0.0
C512 C 0.50361 0.40648 0.55284 0.0
C513 C 0.48471 0.39827 0.57596 0.0
C514 C 0.58793 0.41156 0.57404 0.0
N515 N 0.5695 0.40263 0.59624 0.0
H516 H 0.50098 0.39167 0.61539 0.0
H517 H 0.62656 0.41841 0.5736 0.0
H518 H 0.52632 0.43932 0.62338 0.0
H519 H 0.69167 0.43928 0.6286 0.0
O520 O 0.55019 0.40403 0.65173 0.0
O521 O 0.63339 0.40478 0.66486 0.0
O522 O 0.67962 0.40281 0.61014 0.0
C523 C 0.58342 0.40497 0.67084 0.0
H524 H 0.67062 0.33183 0.64797 0.0
H525 H 0.5596 0.47731 0.62052 0.0
H526 H 0.57121 0.42023 0.53447 0.0
H527 H 0.44396 0.39349 0.57765 0.0
H528 H 0.50384 0.14101 1.00447 0.0
H529 H 0.41153 0.12196 0.93838 0.0
H530 H 0.42967 0.1327 0.03301 0.0
H531 H 0.33755 0.11479 0.96599 0.0
H532 H 0.21039 0.09695 0.01624 0.0
H533 H 0.29804 0.09515 0.99739 0.0
H534 H 0.34615 0.14702 0.04226 0.0
H535 H 0.25936 0.14765 0.06245 0.0
C536 C 0.46796 0.13483 0.99617 0.0
C537 C 0.46279 0.13251 0.96927 0.0
C538 C 0.4254 0.13023 0.01238 0.0
C539 C 0.37731 0.1232 1.00185 0.0
C540 C 0.37387 0.11984 0.97504 0.0
C541 C 0.41613 0.12427 0.95905 0.0
C542 C 0.24015 0.10774 0.02224 0.0
C543 C 0.2283 0.1227 0.04024 0.0
C544 C 0.29029 0.10678 0.01147 0.0
C545 C 0.32893 0.12127 0.01777 0.0
C546 C 0.31769 0.13553 0.03702 0.0
C547 C 0.26786 0.13607 0.0484 0.0
H548 H 0.05298 0.9218 1.00123 0.0
H549 H 0.04696 0.85849 0.98284 0.0
H550 H 0.12846 0.91573 0.03002 0.0
H551 H 0.12319 0.85236 0.01144 0.0
H552 H 0.25005 0.89666 0.08968 0.0
H553 H 0.16112 0.8967 0.07089 0.0
H554 H 0.21875 0.865 1.00411 0.0
H555 H 0.3077 0.86513 0.0227 0.0
C556 C 0.06703 0.90651 1.004 0.0
C557 C 0.04441 0.89059 0.99 0.0
C558 C 0.11004 0.90301 0.02047 0.0
C559 C 0.13171 0.88359 0.02282 0.0
C560 C 0.10723 0.86747 0.00987 0.0
C561 C 0.06355 0.87093 0.99372 0.0
C562 C 0.24349 0.88936 0.07122 0.0
C563 C 0.28575 0.88099 0.05753 0.0
C564 C 0.19269 0.88944 0.06049 0.0
C565 C 0.18317 0.88084 0.03611 0.0
C566 C 0.22492 0.87152 0.02308 0.0
C567 C 0.27585 0.87173 0.03362 0.0
H568 H 0.73359 0.92648 0.46874 0.0
H569 H 0.76273 0.86768 0.43634 0.0
H570 H 0.82225 0.92698 0.48685 0.0
H571 H 0.85228 0.86836 0.45417 0.0
H572 H 0.98806 0.92753 0.51331 0.0
H573 H 0.91753 0.92765 0.48058 0.0
H574 H 0.88359 0.86524 0.4987 0.0
H575 H 0.95444 0.86511 0.53079 0.0
C576 C 0.75925 0.9138 0.46504 0.0
C577 C 0.74071 0.89688 0.45146 0.0
C578 C 0.81043 0.91419 0.47523 0.0
C579 C 0.84433 0.89765 0.47212 0.0
C580 C 0.82689 0.88124 0.45717 0.0
C581 C 0.77563 0.88088 0.44689 0.0
C582 C 0.96664 0.91369 0.50959 0.0
C583 C 0.97621 0.89637 0.52472 0.0
C584 C 0.92595 0.91379 0.49106 0.0
C585 C 0.89443 0.89654 0.48727 0.0
C586 C 0.90719 0.87876 0.50093 0.0
C587 C 0.94756 0.8787 0.51947 0.0
H588 H 0.8102 0.18588 0.47805 0.0
H589 H 0.73254 0.14331 0.42765 0.0
H590 H 0.72649 0.19283 0.49908 0.0
H591 H 0.6495 0.1491 0.44966 0.0
H592 H 0.50175 0.16196 0.49171 0.0
H593 H 0.57596 0.16828 0.46258 0.0
H594 H 0.67981 0.17404 0.52914 0.0
H595 H 0.60595 0.16898 0.55763 0.0
C596 C 0.77499 0.17813 0.47142 0.0
C597 C 0.77766 0.16386 0.45161 0.0
C598 C 0.72708 0.18201 0.48348 0.0
C599 C 0.68132 0.17119 0.47652 0.0
C600 C 0.68361 0.15787 0.45545 0.0
C601 C 0.73131 0.1544 0.44295 0.0
C602 C 0.54033 0.16512 0.49991 0.0
C603 C 0.54852 0.1645 0.52683 0.0
C604 C 0.5829 0.16857 0.48331 0.0
C605 C 0.63416 0.17143 0.49343 0.0
C606 C 0.64111 0.17215 0.52046 0.0
C607 C 0.5988 0.16889 0.53689 0.0
H608 H 0.76351 0.88168 0.9408 0.0
H609 H 0.77948 0.94395 0.96314 0.0
H610 H 0.69229 0.8773 0.97219 0.0
H611 H 0.70734 0.94002 0.99341 0.0
H612 H 0.62307 0.9237 0.06617 0.0
H613 H 0.69219 0.92559 0.03394 0.0
H614 H 0.60458 0.88452 0.98509 0.0
H615 H 0.53635 0.88197 0.01813 0.0
C616 C 0.75091 0.89453 0.95199 0.0
C617 C 0.77725 0.91311 0.9497 0.0
C618 C 0.71012 0.89205 0.97003 0.0
C619 C 0.69451 0.90819 0.98588 0.0
C620 C 0.71924 0.92703 0.98233 0.0
C621 C 0.76032 0.92938 0.96471 0.0
C622 C 0.61876 0.91492 0.04867 0.0
C623 C 0.57408 0.90276 0.04471 0.0
C624 C 0.65822 0.91615 0.02996 0.0
C625 C 0.65376 0.90554 0.00649 0.0
C626 C 0.60972 0.89285 1.00289 0.0
C627 C 0.57047 0.8914 0.02185 0.0
H628 H 0.74679 0.1845 0.9455 0.0
H629 H 0.7504 0.12258 0.92023 0.0
H630 H 0.81518 0.17726 0.97742 0.0
H631 H 0.8189 0.11517 0.95281 0.0
H632 H 0.88417 0.15475 0.05202 0.0
H633 H 0.81826 0.15884 0.01797 0.0
H634 H 0.91109 0.1219 0.9671 0.0
H635 H 0.97708 0.11744 1.0016 0.0
C636 C 0.76249 0.16933 0.94664 0.0
C637 C 0.74284 0.15409 0.93044 0.0
C638 C 0.80146 0.16513 0.96514 0.0
C639 C 0.82174 0.14552 0.96812 0.0
C640 C 0.80407 0.13043 0.95105 0.0
C641 C 0.76494 0.13468 0.93235 0.0
C642 C 0.89043 0.14729 0.03371 0.0
C643 C 0.93622 0.13591 0.02951 0.0
C644 C 0.85276 0.14977 0.01406 0.0
C645 C 0.85987 0.14105 0.98957 0.0
C646 C 0.90439 0.12883 0.98571 0.0
C647 C 0.94221 0.12629 1.00549 0.0
H648 H 0.12543 0.16423 0.43771 0.0
H649 H 0.01372 0.13855 0.49146 0.0
H650 H 0.19578 0.16 0.46997 0.0
H651 H 0.0842 0.1345 0.52379 0.0
H652 H 0.22285 0.15247 0.58163 0.0
H653 H 0.14911 0.15735 0.55091 0.0
H654 H 0.23972 0.129 0.49094 0.0
H655 H 0.31235 0.12389 0.52124 0.0
C656 C 0.11586 0.15769 0.45638 0.0
C657 C 0.06406 0.15152 0.46188 0.0
C658 C 0.15615 0.15525 0.47484 0.0
C659 C 0.14543 0.14692 0.49939 0.0
C660 C 0.09351 0.14107 0.50509 0.0
C661 C 0.05333 0.1432 0.48646 0.0
C662 C 0.22677 0.14721 0.56192 0.0
C663 C 0.27345 0.13774 0.55395 0.0
C664 C 0.18461 0.14996 0.54439 0.0
C665 C 0.18889 0.14366 0.51849 0.0
C666 C 0.23548 0.1342 0.51066 0.0
C667 C 0.27699 0.13116 0.52816 0.0
H668 H 0.2693 0.86481 0.5792 0.0
H669 H 0.23595 0.92856 0.58268 0.0
H670 H 0.34856 0.87196 0.55384 0.0
H671 H 0.31442 0.93559 0.55648 0.0
H672 H 0.40621 0.92439 0.47411 0.0
H673 H 0.33397 0.92124 0.50519 0.0
H674 H 0.44154 0.89569 0.56163 0.0
H675 H 0.51438 0.89949 0.53087 0.0
C676 C 0.27918 0.88034 0.57473 0.0
C677 C 0.24655 0.89612 0.58295 0.0
C678 C 0.32454 0.88442 0.56031 0.0
C679 C 0.33742 0.90431 0.55327 0.0
C680 C 0.30527 0.92014 0.56174 0.0
C681 C 0.26062 0.91611 0.57679 0.0
C682 C 0.41459 0.91846 0.49332 0.0
C683 C 0.46588 0.91225 0.50013 0.0
C684 C 0.37336 0.91671 0.51107 0.0
C685 C 0.38236 0.90824 0.53573 0.0
C686 C 0.43375 0.90232 0.54273 0.0
C687 C 0.47533 0.90457 0.5252 0.0
H688 H 0.77373 0.61936 0.08206 0.0
H689 H 0.71134 0.65528 0.01872 0.0
H690 H 0.86341 0.62473 0.06577 0.0
H691 H 0.80016 0.66065 1.00266 0.0
H692 H 0.96071 0.68007 0.98673 0.0
H693 H 0.88491 0.67773 0.01545 0.0
H694 H 0.91147 0.61375 0.02457 0.0
H695 H 0.98769 0.61616 0.99589 0.0
C696 C 0.77926 0.62855 0.06485 0.0
C697 C 0.73571 0.63687 0.05157 0.0
C698 C 0.83042 0.63157 0.05556 0.0
C699 C 0.8387 0.64327 0.03314 0.0
C700 C 0.79508 0.65188 0.02026 0.0
C701 C 0.74415 0.64864 0.0293 0.0
C702 C 0.95127 0.66564 0.99556 0.0
C703 C 0.97939 0.64825 0.9889 0.0
C704 C 0.90787 0.66429 0.01186 0.0
C705 C 0.89177 0.64549 0.02174 0.0
C706 C 0.92311 0.62843 0.01723 0.0
C707 C 0.96674 0.6298 1.00088 0.0
H708 H 0.80856 0.35397 0.04046 0.0
H709 H 0.75518 0.40369 0.0868 0.0
H710 H 0.72205 0.35182 0.01982 0.0
H711 H 0.66907 0.40239 0.06505 0.0
H712 H 0.51355 0.3937 0.02128 0.0
H713 H 0.58547 0.386 0.05213 0.0
H714 H 0.68939 0.37474 0.98783 0.0
H715 H 0.61816 0.38182 0.95768 0.0
C716 C 0.77784 0.36422 0.04651 0.0
C717 C 0.78852 0.37922 0.0648 0.0
C718 C 0.72841 0.36307 0.03463 0.0
C719 C 0.68917 0.37731 0.04023 0.0
C720 C 0.6984 0.39119 0.06029 0.0
C721 C 0.74774 0.39201 0.07267 0.0
C722 C 0.55166 0.3892 0.01399 0.0
C723 C 0.56071 0.38859 0.98719 0.0
C724 C 0.59278 0.38491 0.03155 0.0
C725 C 0.64314 0.37968 0.02247 0.0
C726 C 0.65102 0.37832 0.99562 0.0
C727 C 0.61036 0.38266 0.97826 0.0
H728 H 0.26678 0.37123 0.44635 0.0
H729 H 0.23126 0.43431 0.45677 0.0
H730 H 0.35201 0.37606 0.46789 0.0
H731 H 0.31668 0.43926 0.47766 0.0
H732 H 0.41305 0.42768 0.55322 0.0
H733 H 0.34369 0.42809 0.52047 0.0
H734 H 0.44053 0.39194 0.47032 0.0
H735 H 0.51031 0.39144 0.50373 0.0
C736 C 0.27778 0.38622 0.45261 0.0
C737 C 0.24194 0.40228 0.45045 0.0
C738 C 0.32673 0.38903 0.46482 0.0
C739 C 0.3407 0.40799 0.47486 0.0
C740 C 0.30655 0.42438 0.47065 0.0
C741 C 0.2576 0.42153 0.4587 0.0
C742 C 0.41985 0.42018 0.53497 0.0
C743 C 0.46661 0.40944 0.53094 0.0
C744 C 0.38033 0.42051 0.5161 0.0
C745 C 0.38654 0.41002 0.49276 0.0
C746 C 0.43453 0.40005 0.48819 0.0
C747 C 0.4745 0.39988 0.50713 0.0
H748 H 0.23702 0.64337 0.42569 0.0
H749 H 0.30506 0.67125 0.49361 0.0
H750 H 0.14902 0.64665 0.44426 0.0
H751 H 0.21736 0.67451 0.51211 0.0
H752 H 0.05511 0.68976 0.53438 0.0
H753 H 0.13089 0.69183 0.50564 0.0
H754 H 0.10444 0.63013 0.48258 0.0
H755 H 0.02836 0.62812 0.51138 0.0
C756 C 0.23307 0.65049 0.44439 0.0
C757 C 0.27784 0.65704 0.45827 0.0
C758 C 0.18277 0.65227 0.45503 0.0
C759 C 0.17632 0.66087 0.47957 0.0
C760 C 0.221 0.66807 0.49298 0.0
C761 C 0.27127 0.66609 0.48249 0.0
C762 C 0.06472 0.67683 0.52262 0.0
C763 C 0.03644 0.6587 0.52528 0.0
C764 C 0.10817 0.67798 0.5063 0.0
C765 C 0.12413 0.66103 0.49229 0.0
C766 C 0.09294 0.64346 0.49312 0.0
C767 C 0.04933 0.6423 0.50953 0.0
H768 H 0.29908 0.43186 0.98014 0.0
H769 H 0.25396 0.3868 0.92408 0.0
H770 H 0.22003 0.42453 1.00491 0.0
H771 H 0.17513 0.37918 0.94923 0.0
H772 H 0.011 0.38946 0.98442 0.0
H773 H 0.09188 0.39435 0.9603 0.0
H774 H 0.17971 0.39879 0.03214 0.0
H775 H 0.09802 0.39429 0.05646 0.0
C776 C 0.27234 0.42035 0.97309 0.0
C777 C 0.28283 0.40999 0.95002 0.0
C778 C 0.22719 0.41601 0.98747 0.0
C779 C 0.19128 0.40118 0.9792 0.0
C780 C 0.20167 0.39084 0.95606 0.0
C781 C 0.24691 0.39519 0.94164 0.0
C782 C 0.04754 0.39135 0.99516 0.0
C783 C 0.04792 0.3916 0.02242 0.0
C784 C 0.09409 0.39402 0.98126 0.0
C785 C 0.14238 0.39704 0.99422 0.0
C786 C 0.14306 0.39679 0.02153 0.0
C787 C 0.09634 0.39405 0.03549 0.0
H788 H 0.25421 0.62213 0.92712 0.0
H789 H 0.24919 0.68206 0.95921 0.0
H790 H 0.32409 0.61304 0.95806 0.0
H791 H 0.31795 0.67292 0.99023 0.0
H792 H 0.47645 0.656 0.02658 0.0
H793 H 0.41033 0.66484 0.99399 0.0
H794 H 0.33562 0.60683 1.0047 0.0
H795 H 0.40254 0.59779 0.03711 0.0
C796 C 0.26836 0.63344 0.94054 0.0
C797 C 0.24606 0.65286 0.94059 0.0
C798 C 0.30803 0.62816 0.95849 0.0
C799 C 0.32659 0.6422 0.9768 0.0
C800 C 0.30515 0.66175 0.97632 0.0
C801 C 0.26546 0.66698 0.95852 0.0
C802 C 0.44585 0.64511 0.02212 0.0
C803 C 0.4449 0.62617 0.0346 0.0
C804 C 0.40774 0.65023 1.00342 0.0
C805 C 0.36755 0.63655 0.99659 0.0
C806 C 0.36638 0.61764 0.00917 0.0
C807 C 0.40448 0.61253 0.02798 0.0
H808 H 0.62018 0.67286 0.45062 0.0
H809 H 0.52554 0.63232 0.49688 0.0
H810 H 0.68711 0.67339 0.48455 0.0
H811 H 0.59269 0.63312 0.53124 0.0
H812 H 0.76533 0.69098 0.55912 0.0
H813 H 0.69544 0.68768 0.52705 0.0
H814 H 0.68426 0.62394 0.54397 0.0
H815 H 0.7545 0.62735 0.57676 0.0
C816 C 0.61363 0.66396 0.46799 0.0
C817 C 0.56715 0.65261 0.47093 0.0
C818 C 0.652 0.66439 0.48761 0.0
C819 C 0.6451 0.65356 0.51091 0.0
C820 C 0.59947 0.6416 0.51357 0.0
C821 C 0.5609 0.64116 0.49383 0.0
C822 C 0.74783 0.67624 0.55624 0.0
C823 C 0.76594 0.65941 0.57044 0.0
C824 C 0.70788 0.67432 0.53762 0.0
C825 C 0.6848 0.65546 0.53243 0.0
C826 C 0.70114 0.6387 0.54743 0.0
C827 C 0.74134 0.64065 0.56625 0.0
H828 H 0.91536 0.38893 0.46637 0.0
H829 H 0.99249 0.42829 0.521 0.0
H830 H 0.84273 0.38421 0.49587 0.0
H831 H 0.91724 0.42499 0.55018 0.0
H832 H 0.79288 0.40065 0.60718 0.0
H833 H 0.86957 0.40583 0.57929 0.0
H834 H 0.76914 0.39815 0.51178 0.0
H835 H 0.69482 0.39139 0.53968 0.0
C836 C 0.91609 0.39695 0.48458 0.0
C837 C 0.95926 0.40914 0.49128 0.0
C838 C 0.87404 0.3944 0.50156 0.0
C839 C 0.87293 0.4045 0.52549 0.0
C840 C 0.91649 0.41675 0.53217 0.0
C841 C 0.95952 0.41883 0.51537 0.0
C842 C 0.78779 0.39998 0.58634 0.0
C843 C 0.73838 0.39522 0.57554 0.0
C844 C 0.83157 0.40311 0.57027 0.0
C845 C 0.82637 0.4021 0.54303 0.0
C846 C 0.77588 0.39827 0.53251 0.0
C847 C 0.73285 0.39454 0.54852 0.0
H848 H 0.23155 0.0683 0.07231 0.0
H849 H 0.10226 0.02644 0.08171 0.0
H850 H 0.29335 0.04029 0.07221 0.0
H851 H 0.16365 0.99839 0.08016 0.0
H852 H 0.28892 0.95158 0.09638 0.0
H853 H 0.23134 0.98041 0.10178 0.0
H854 H 0.3214 1.01382 0.04514 0.0
H855 H 0.38087 0.9854 0.04082 0.0
C856 C 0.21615 0.05318 0.0746 0.0
C857 C 0.16154 0.04976 0.07697 0.0
C858 C 0.25171 0.037 0.07414 0.0
C859 C 0.23376 1.01692 0.07594 0.0
C860 C 0.1793 1.01357 0.07897 0.0
C861 C 0.14382 0.02972 0.07955 0.0
C862 C 0.29722 0.96511 0.08532 0.0
C863 C 0.33995 0.96593 0.06806 0.0
C864 C 0.26352 0.98167 0.0882 0.0
C865 C 0.27124 0.99955 0.07383 0.0
C866 C 0.31432 1.00047 0.05682 0.0
C867 C 0.34818 0.98396 0.05404 0.0
H868 H 0.71247 0.96889 0.4432 0.0
H869 H 0.57848 1.00892 0.44031 0.0
H870 H 0.77174 0.9978 0.4437 0.0
H871 H 0.63766 0.03794 0.44129 0.0
H872 H 0.75879 0.08628 0.42007 0.0
H873 H 0.70032 0.05713 0.41735 0.0
H874 H 0.80266 0.02426 0.46995 0.0
H875 H 0.86219 0.05284 0.47156 0.0
C876 C 0.69555 0.98386 0.443 0.0
C877 C 0.64051 0.98649 0.4418 0.0
C878 C 0.72965 1.00053 0.44329 0.0
C879 C 0.7098 1.02037 0.44258 0.0
C880 C 0.65468 0.02297 0.4414 0.0
C881 C 0.62059 1.00629 0.44095 0.0
C882 C 0.76928 0.07278 0.4308 0.0
C883 C 0.81549 0.07214 0.44613 0.0
C884 C 0.73525 0.05606 0.4295 0.0
C885 C 0.74637 0.0382 0.44349 0.0
C886 C 0.7928 0.03755 0.45861 0.0
C887 C 0.82682 0.05418 0.45983 0.0
H888 H 0.7398 0.08481 0.8921 0.0
H889 H 0.6069 0.04639 0.87383 0.0
H890 H 0.79749 0.05556 0.89283 0.0
H891 H 0.66479 1.01706 0.87496 0.0
H892 H 0.777 0.96816 0.90834 0.0
H893 H 0.71799 0.9971 0.90643 0.0
H894 H 0.83399 0.03049 0.86278 0.0
H895 H 0.89278 1.00152 0.86432 0.0
C896 C 0.7228 0.0702 0.88797 0.0
C897 C 0.66847 0.06808 0.88276 0.0
C898 C 0.75601 0.05339 0.88845 0.0
C899 C 0.7358 0.03398 0.88388 0.0
C900 C 0.68151 0.03179 0.87884 0.0
C901 C 0.64828 0.04863 0.87822 0.0
C902 C 0.78976 0.98154 0.89801 0.0
C903 C 0.83985 0.98239 0.88646 0.0
C904 C 0.75588 0.99817 0.89697 0.0
C905 C 0.77131 1.01612 0.8845 0.0
C906 C 0.82121 1.01698 0.87287 0.0
C907 C 0.855 1.00033 0.87378 0.0
H908 H 0.10839 1.00082 0.59706 0.0
H909 H 0.21682 0.96925 0.64806 0.0
H910 H 0.16632 0.03022 0.59758 0.0
H911 H 0.27476 0.99849 0.64827 0.0
H912 H 0.39186 0.04578 0.61734 0.0
H913 H 0.33271 1.01681 0.61805 0.0
H914 H 0.19956 0.05653 0.62728 0.0
H915 H 0.25852 0.08549 0.62693 0.0
C916 C 0.14422 1.00015 0.60856 0.0
C917 C 0.15788 0.98253 0.62238 0.0
C918 C 0.17749 1.01702 0.60883 0.0
C919 C 0.22531 1.01665 0.62285 0.0
C920 C 0.23868 0.99914 0.6369 0.0
C921 C 0.20537 0.98233 0.63673 0.0
C922 C 0.3501 0.04838 0.61983 0.0
C923 C 0.33025 0.06808 0.62204 0.0
C924 C 0.31614 0.03174 0.6202 0.0
C925 C 0.26139 0.03436 0.62268 0.0
C926 C 0.24145 0.05402 0.62495 0.0
C927 C 0.27542 0.07066 0.62471 0.0
H928 H 0.77581 0.44813 0.05785 0.0
H929 H 0.90646 0.48983 0.06413 0.0
H930 H 0.71461 0.47653 0.05633 0.0
H931 H 0.84603 0.5179 0.06129 0.0
H932 H 0.72611 0.56456 0.08226 0.0
H933 H 0.78229 0.53519 0.0855 0.0
H934 H 0.68373 0.50426 0.02984 0.0
H935 H 0.62545 0.53347 0.02757 0.0
C936 C 0.79169 0.46326 0.05889 0.0
C937 C 0.84652 0.46647 0.06111 0.0
C938 C 0.7565 0.47962 0.05772 0.0
C939 C 0.77511 0.49964 0.05877 0.0
C940 C 0.82987 0.50278 0.06086 0.0
C941 C 0.86488 0.48652 0.06211 0.0
C942 C 0.71554 0.5515 0.07094 0.0
C943 C 0.67072 0.55161 0.05461 0.0
C944 C 0.74851 0.53461 0.07255 0.0
C945 C 0.73812 0.51727 0.05777 0.0
C946 C 0.69296 0.51722 0.04169 0.0
C947 C 0.65977 0.53414 0.04014 0.0
H948 H 0.37287 0.54698 0.46425 0.0
H949 H 0.25518 0.58828 0.43451 0.0
H950 H 0.30982 0.51937 0.4612 0.0
H951 H 0.1919 0.56063 0.43152 0.0
H952 H 0.11079 0.50205 0.40458 0.0
H953 H 0.17199 0.53026 0.40791 0.0
H954 H 0.23082 0.50638 0.48066 0.0
H955 H 0.16968 0.47815 0.47732 0.0
C956 C 0.33343 0.55024 0.45725 0.0
C957 C 0.31934 0.56996 0.44968 0.0
C958 C 0.2971 0.53436 0.45553 0.0
C959 C 0.24547 0.53768 0.44621 0.0
C960 C 0.23143 0.55739 0.43847 0.0
C961 C 0.26784 0.57329 0.44017 0.0
C962 C 0.1362 0.50289 0.42148 0.0
C963 C 0.13507 0.48766 0.44064 0.0
C964 C 0.17148 0.51913 0.42338 0.0
C965 C 0.20672 0.52065 0.44451 0.0
C966 C 0.20507 0.50558 0.46385 0.0
C967 C 0.16981 0.48934 0.46195 0.0
H968 H 0.27334 0.46562 0.88287 0.0
H969 H 0.40397 0.50593 0.89816 0.0
H970 H 0.21306 0.49414 0.88281 0.0
H971 H 0.34363 0.53441 0.89774 0.0
H972 H 0.22878 0.58227 0.86755 0.0
H973 H 0.28746 0.55335 0.86705 0.0
H974 H 0.17644 0.51929 0.91295 0.0
H975 H 0.1177 0.54837 0.91375 0.0
C976 C 0.28936 0.48048 0.88639 0.0
C977 C 0.34385 0.48336 0.8905 0.0
C978 C 0.25464 0.49686 0.88632 0.0
C979 C 0.27352 0.51656 0.89021 0.0
C980 C 0.32789 0.51947 0.89427 0.0
C981 C 0.36256 0.50309 0.89446 0.0
C982 C 0.21689 0.56874 0.87777 0.0
C983 C 0.16845 0.56781 0.89087 0.0
C984 C 0.25063 0.55211 0.87744 0.0
C985 C 0.23679 0.53404 0.89007 0.0
C986 C 0.18803 0.53293 0.9028 0.0
C987 C 0.1543 0.54962 0.90323 0.0
H988 H 0.76965 0.58371 0.60319 0.0
H989 H 0.90254 0.54751 0.62785 0.0
H990 H 0.71274 0.55413 0.60536 0.0
H991 H 0.84558 0.51791 0.63029 0.0
H992 H 0.73811 0.46529 0.60685 0.0
H993 H 0.7959 0.49463 0.60405 0.0
H994 H 0.67325 0.5317 0.63639 0.0
H995 H 0.61543 0.50239 0.63892 0.0
C996 C 0.78666 0.56947 0.60929 0.0
C997 C 0.84067 0.56803 0.61542 0.0
C998 C 0.75399 0.55248 0.61057 0.0
C999 C 0.77442 0.5336 0.61812 0.0
C1000 C 0.82858 0.53213 0.62406 0.0
C1001 C 0.8613 0.54912 0.62267 0.0
C1002 C 0.72364 0.47966 0.61357 0.0
C1003 C 0.67205 0.48147 0.62309 0.0
C1004 C 0.75681 0.49651 0.61198 0.0
C1005 C 0.73929 0.51559 0.61994 0.0
C1006 C 0.68779 0.51734 0.62962 0.0
C1007 C 0.65459 0.50051 0.63112 0.0
H1008 H 0.02302 0.31884 0.05843 0.0
H1009 H 0.92741 0.29584 0.12099 0.0
H1010 H 0.05141 0.28456 0.04889 0.0
H1011 H 0.95612 0.26177 0.1116 0.0
H1012 H 0.06234 0.20554 0.10336 0.0
H1013 H 0.03386 0.23981 0.11363 0.0
H1014 H 0.01601 0.25305 0.03198 0.0
H1015 H 0.04375 0.21907 0.0218 0.0
C1016 C 0.00772 0.30655 0.07005 0.0
C1017 C 0.97304 0.3103 0.09058 0.0
C1018 C 0.02409 0.28684 0.06461 0.0
C1019 C 1.00627 0.27035 0.07957 0.0
C1020 C 0.97145 0.27409 0.09999 0.0
C1021 C 0.95495 0.29374 0.10536 0.0
C1022 C 0.05194 0.21571 0.08764 0.0
C1023 C 0.05608 0.2095 0.06175 0.0
C1024 C 0.03565 0.23539 0.0935 0.0
C1025 C 0.02315 0.24931 0.0736 0.0
C1026 C 0.02648 0.24294 0.04779 0.0
C1027 C 0.04251 0.22336 0.04196 0.0
H1028 H 0.46212 0.80927 0.04945 0.0
H1029 H 0.5056 0.80687 0.13034 0.0
H1030 H 0.49755 0.77496 0.04377 0.0
H1031 H 0.54054 0.77306 0.12489 0.0
H1032 H 0.64195 0.72112 0.10518 0.0
H1033 H 0.61464 0.75621 0.10256 0.0
H1034 H 0.47466 0.73878 0.06006 0.0
H1035 H 0.50224 0.70328 0.0628 0.0
C1036 C 0.47988 0.80151 0.06585 0.0
C1037 C 0.48107 0.81067 0.09034 0.0
C1038 C 0.49967 0.78187 0.0627 0.0
C1039 C 0.52198 0.7713 0.08387 0.0
C1040 C 0.52422 0.7808 0.10811 0.0
C1041 C 0.50389 0.80014 0.1113 0.0
C1042 C 0.60544 0.72471 0.09516 0.0
C1043 C 0.57369 0.70933 0.0847 0.0
C1044 C 0.58986 0.74486 0.09359 0.0
C1045 C 0.54205 0.75027 0.08149 0.0
C1046 C 0.51179 0.73509 0.06948 0.0
C1047 C 0.52751 0.71478 0.07106 0.0
H1048 H 0.46271 0.83586 0.4367 0.0
H1049 H 0.60676 0.81079 0.46817 0.0
H1050 H 0.4293 0.8018 0.4289 0.0
H1051 H 0.57409 0.77693 0.46015 0.0
H1052 H 0.48654 0.71769 0.46388 0.0
H1053 H 0.51203 0.75225 0.47416 0.0
H1054 H 0.44101 0.77298 0.4024 0.0
H1055 H 0.41342 0.73875 0.39284 0.0
C1056 C 0.48745 0.82311 0.44172 0.0
C1057 C 0.53731 0.82612 0.4532 0.0
C1058 C 0.46832 0.80354 0.43729 0.0
C1059 C 0.49872 0.78647 0.44409 0.0
C1060 C 0.54886 0.78958 0.45525 0.0
C1061 C 0.56778 0.80908 0.45976 0.0
C1062 C 0.47554 0.72966 0.45053 0.0
C1063 C 0.4483 0.72528 0.4274 0.0
C1064 C 0.49077 0.7495 0.45625 0.0
C1065 C 0.4792 0.76552 0.43899 0.0
C1066 C 0.45044 0.76118 0.41629 0.0
C1067 C 0.43514 0.7414 0.41062 0.0
H1068 H 0.96792 0.33686 0.42885 0.0
H1069 H 0.11026 0.31139 0.46172 0.0
H1070 H 0.93486 0.30294 0.42001 0.0
H1071 H 0.07782 0.27763 0.4527 0.0
H1072 H 0.98748 0.2188 0.45517 0.0
H1073 H 0.014 0.25313 0.4658 0.0
H1074 H 0.94855 0.27434 0.39301 0.0
H1075 H 0.91991 0.24029 0.38301 0.0
C1076 C 0.99239 0.32406 0.43396 0.0
C1077 C 0.04167 0.3269 0.44611 0.0
C1078 C 0.97345 0.30457 0.42892 0.0
C1079 C 1.00344 0.28743 0.43579 0.0
C1080 C 0.05297 0.29036 0.44767 0.0
C1081 C 0.07173 0.30979 0.45278 0.0
C1082 C 0.97797 0.2308 0.44162 0.0
C1083 C 0.95181 0.22662 0.41812 0.0
C1084 C 0.9938 0.25052 0.44756 0.0
C1085 C 0.98393 0.26659 0.43017 0.0
C1086 C 0.95658 0.26246 0.407 0.0
C1087 C 0.9407 0.24279 0.40109 0.0
H1088 H 0.00951 0.83308 0.91279 0.0
H1089 H 0.88893 0.80919 0.86204 0.0
H1090 H 0.05622 0.80084 0.91139 0.0
H1091 H 0.93551 0.77725 0.86028 0.0
H1092 H 0.99775 0.71627 0.88445 0.0
H1093 H 0.95449 0.74875 0.88717 0.0
H1094 H 0.10583 0.77866 0.88376 0.0
H1095 H 0.14954 0.746 0.8824 0.0
C1096 C 0.99331 0.82102 0.90113 0.0
C1097 C 0.94524 0.82363 0.88775 0.0
C1098 C 0.02004 0.80255 0.90029 0.0
C1099 C 0.99939 0.78633 0.88593 0.0
C1100 C 0.95196 0.78919 0.87208 0.0
C1101 C 0.92522 0.80755 0.87304 0.0
C1102 C 0.02208 0.72968 0.88466 0.0
C1103 C 0.07735 0.72836 0.8832 0.0
C1104 C 0.99709 0.74841 0.88585 0.0
C1105 C 0.02656 0.7664 0.88548 0.0
C1106 C 0.08186 0.76514 0.88428 0.0
C1107 C 0.10692 0.74636 0.88317 0.0
H1108 H 0.65538 0.24471 0.88309 0.0
H1109 H 0.50038 0.21842 0.87478 0.0
H1110 H 0.61572 0.2778 0.88964 0.0
H1111 H 0.46064 0.25139 0.88076 0.0
H1112 H 0.40029 0.30841 0.91552 0.0
H1113 H 0.44519 0.27612 0.91261 0.0
H1114 H 0.56864 0.30428 0.86767 0.0
H1115 H 0.52391 0.33679 0.87135 0.0
C1116 C 0.61284 0.24604 0.88248 0.0
C1117 C 0.58099 0.22894 0.87853 0.0
C1118 C 0.59007 0.26501 0.88619 0.0
C1119 C 0.53491 0.26731 0.88587 0.0
C1120 C 0.5032 0.25016 0.88175 0.0
C1121 C 0.52594 0.23122 0.87825 0.0
C1122 C 0.43712 0.30768 0.90511 0.0
C1123 C 0.45837 0.32504 0.89344 0.0
C1124 C 0.4628 0.28916 0.90332 0.0
C1125 C 0.51017 0.28746 0.88953 0.0
C1126 C 0.53244 0.30502 0.8786 0.0
C1127 C 0.50689 0.32365 0.88066 0.0
H1128 H 0.37468 0.24456 0.59548 0.0
H1129 H 0.50088 0.21481 0.63732 0.0
H1130 H 0.42144 0.27654 0.59875 0.0
H1131 H 0.54756 0.2469 0.64101 0.0
H1132 H 0.63919 0.3045 0.62199 0.0
H1133 H 0.59425 0.27223 0.6169 0.0
H1134 H 0.44463 0.30136 0.63022 0.0
H1135 H 0.48966 0.33362 0.63493 0.0
C1136 C 0.4123 0.24489 0.60554 0.0
C1137 C 0.43392 0.22716 0.61625 0.0
C1138 C 0.43911 0.26325 0.60748 0.0
C1139 C 0.48816 0.26439 0.62032 0.0
C1140 C 0.5102 0.24657 0.6307 0.0
C1141 C 0.48345 0.22815 0.62861 0.0
C1142 C 0.59674 0.30398 0.62397 0.0
C1143 C 0.56802 0.32165 0.62886 0.0
C1144 C 0.57094 0.28546 0.62109 0.0
C1145 C 0.51575 0.28413 0.62314 0.0
C1146 C 0.48706 0.30184 0.62804 0.0
C1147 C 0.51286 0.32037 0.63078 0.0
H1148 H 0.99132 0.72001 0.60687 0.0
H1149 H 0.88828 0.73975 0.6679 0.0
H1150 H 0.03651 0.75243 0.60779 0.0
H1151 H 0.93328 0.77224 0.66863 0.0
H1152 H 0.98883 0.83494 0.64196 0.0
H1153 H 0.94409 0.80238 0.64119 0.0
H1154 H 0.09464 0.77232 0.63616 0.0
H1155 H 0.1393 0.80494 0.63613 0.0
C1156 C 0.9786 0.73115 0.62067 0.0
C1157 C 0.93615 0.72719 0.63736 0.0
C1158 C 1.0045 0.74977 0.62116 0.0
C1159 C 0.9885 0.76491 0.63828 0.0
C1160 C 0.94609 0.76099 0.65496 0.0
C1161 C 0.92026 0.74235 0.65452 0.0
C1162 C 0.01238 0.82141 0.64044 0.0
C1163 C 0.06768 0.82256 0.63901 0.0
C1164 C 0.98676 0.80273 0.6403 0.0
C1165 C 0.0158 0.78476 0.63864 0.0
C1166 C 0.07109 0.7859 0.63722 0.0
C1167 C 0.09673 0.80458 0.63747 0.0
H1168 H 0.93843 0.12927 0.17447 0.0
H1169 H 0.1055 0.1272 0.19166 0.0
H1170 H 0.91949 0.12654 0.22053 0.0
H1171 H 0.08658 0.12558 0.23778 0.0
H1172 H 0.03269 0.10423 0.31809 0.0
H1173 H 0.05191 0.10432 0.27167 0.0
H1174 H 0.92527 0.14682 0.2584 0.0
H1175 H 0.90586 0.14646 0.30435 0.0
C1176 C 0.97115 0.12823 0.18804 0.0
C1177 C 0.02349 0.12858 0.17927 0.0
C1178 C 0.96031 0.12689 0.21452 0.0
C1179 C 1.00152 0.12596 0.23295 0.0
C1180 C 0.05385 0.12609 0.22417 0.0
C1181 C 0.06469 0.12734 0.19769 0.0
C1182 C 0.00907 0.11355 0.30518 0.0
C1183 C 0.96736 0.12512 0.31486 0.0
C1184 C 0.02009 0.11367 0.2786 0.0
C1185 C 0.98986 0.12547 0.2612 0.0
C1186 C 0.94856 0.13717 0.27105 0.0
C1187 C 0.93744 0.13697 0.29746 0.0
H1188 H 0.58258 0.91234 0.18862 0.0
H1189 H 0.42548 0.89147 0.20642 0.0
H1190 H 0.60352 0.91357 0.23509 0.0
H1191 H 0.44627 0.89244 0.25237 0.0
H1192 H 0.47541 0.91753 0.33167 0.0
H1193 H 0.46083 0.91729 0.28508 0.0
H1194 H 0.61693 0.89286 0.27422 0.0
H1195 H 0.63179 0.89339 0.3212 0.0
C1196 C 0.55271 0.90791 0.20244 0.0
C1197 C 0.50209 0.90217 0.19387 0.0
C1198 C 0.56468 0.90856 0.22902 0.0
C1199 C 0.52632 0.9034 0.24752 0.0
C1200 C 0.47633 0.89708 0.23877 0.0
C1201 C 0.46438 0.89651 0.21237 0.0
C1202 C 0.50658 0.91201 0.31938 0.0
C1203 C 0.55445 0.90519 0.33017 0.0
C1204 C 0.49822 0.91185 0.29263 0.0
C1205 C 0.53738 0.90476 0.27587 0.0
C1206 C 0.58601 0.8985 0.28655 0.0
C1207 C 0.5945 0.89876 0.31345 0.0
H1208 H 0.87272 0.91599 0.80662 0.0
H1209 H 0.02232 0.89299 0.83425 0.0
H1210 H 0.90815 0.9181 0.76264 0.0
H1211 H 0.05694 0.89434 0.79066 0.0
H1212 H 0.12412 0.91609 0.71465 0.0
H1213 H 0.08698 0.91653 0.7582 0.0
H1214 H 0.93535 0.89866 0.72693 0.0
H1215 H 0.97191 0.89902 0.68361 0.0
C1216 C 0.91287 0.91118 0.80324 0.0
C1217 C 0.9447 0.90441 0.82391 0.0
C1218 C 0.93328 0.91234 0.77805 0.0
C1219 C 0.98578 0.90656 0.77299 0.0
C1220 C 0.01694 0.89943 0.79374 0.0
C1221 C 0.9968 0.89847 0.8188 0.0
C1222 C 0.08283 0.91237 0.71714 0.0
C1223 C 0.05108 0.90751 0.69568 0.0
C1224 C 0.06148 0.91249 0.74212 0.0
C1225 C 0.00799 0.90754 0.74625 0.0
C1226 C 0.97633 0.90287 0.72462 0.0
C1227 C 0.99752 0.90294 0.69971 0.0
H1228 H 0.62906 0.13969 0.78915 0.0
H1229 H 0.47673 0.15008 0.82344 0.0
H1230 H 0.58732 0.13958 0.74611 0.0
H1231 H 0.43574 0.15061 0.78096 0.0
H1232 H 0.3693 0.13265 0.70145 0.0
H1233 H 0.40996 0.13076 0.74475 0.0
H1234 H 0.54711 0.16233 0.71599 0.0
H1235 H 0.5074 0.16367 0.67315 0.0
C1236 C 0.58688 0.142 0.78751 0.0
C1237 C 0.55641 0.1449 0.80972 0.0
C1238 C 0.56285 0.14204 0.76288 0.0
C1239 C 0.50794 0.1451 0.75999 0.0
C1240 C 0.47777 0.14786 0.78233 0.0
C1241 C 0.5016 0.14772 0.80678 0.0
C1242 C 0.40781 0.13934 0.70459 0.0
C1243 C 0.43516 0.14822 0.68394 0.0
C1244 C 0.4313 0.13824 0.72933 0.0
C1245 C 0.48234 0.14615 0.73385 0.0
C1246 C 0.50859 0.15557 0.7132 0.0
C1247 C 0.48543 0.15652 0.68864 0.0
H1248 H 0.53835 0.643 0.32243 0.0
H1249 H 0.42383 0.59494 0.31644 0.0
H1250 H 0.55501 0.64072 0.27615 0.0
H1251 H 0.44077 0.59251 0.27009 0.0
H1252 H 0.4422 0.60997 0.18337 0.0
H1253 H 0.4262 0.6112 0.23001 0.0
H1254 H 0.59303 0.61968 0.24397 0.0
H1255 H 0.60857 0.61944 0.19768 0.0
C1256 C 0.51747 0.63167 0.31133 0.0
C1257 C 0.47979 0.61915 0.32318 0.0
C1258 C 0.52689 0.63038 0.28472 0.0
C1259 C 0.49905 0.61648 0.26928 0.0
C1260 C 0.46221 0.60364 0.28126 0.0
C1261 C 0.45269 0.60497 0.30787 0.0
C1262 C 0.47534 0.61221 0.19642 0.0
C1263 C 0.52669 0.61442 0.1867 0.0
C1264 C 0.46629 0.6127 0.22318 0.0
C1265 C 0.50836 0.6155 0.24082 0.0
C1266 C 0.5596 0.6177 0.23103 0.0
C1267 C 0.56859 0.61725 0.20439 0.0
H1268 H 0.99016 0.42185 0.325 0.0
H1269 H 0.14731 0.39777 0.31721 0.0
H1270 H 0.98129 0.42388 0.27799 0.0
H1271 H 0.13857 0.39995 0.26989 0.0
H1272 H 0.0612 0.38094 0.19013 0.0
H1273 H 0.08295 0.38228 0.23612 0.0
H1274 H 0.01873 0.44242 0.23986 0.0
H1275 H 0.99804 0.44137 0.19362 0.0
C1276 C 0.02284 0.417 0.3132 0.0
C1277 C 0.06925 0.40947 0.32476 0.0
C1278 C 0.01799 0.41838 0.28628 0.0
C1279 C 0.05928 0.41212 0.27025 0.0
C1280 C 0.10602 0.4048 0.28178 0.0
C1281 C 0.11112 0.40364 0.3088 0.0
C1282 C 0.05297 0.3947 0.2005 0.0
C1283 C 0.02749 0.41101 0.18808 0.0
C1284 C 0.06533 0.39541 0.22694 0.0
C1285 C 0.05213 0.41238 0.24164 0.0
C1286 C 0.02863 0.42901 0.22908 0.0
C1287 C 0.01667 0.42837 0.2026 0.0
H1288 H 0.38334 0.39718 0.8073 0.0
H1289 H 0.53431 0.41675 0.83723 0.0
H1290 H 0.41983 0.39664 0.76355 0.0
H1291 H 0.57009 0.41712 0.79381 0.0
H1292 H 0.63602 0.39656 0.71654 0.0
H1293 H 0.59936 0.39654 0.76025 0.0
H1294 H 0.44945 0.41673 0.72907 0.0
H1295 H 0.48541 0.41586 0.6857 0.0
C1296 C 0.42404 0.40161 0.80447 0.0
C1297 C 0.45593 0.4069 0.82569 0.0
C1298 C 0.44508 0.40139 0.77939 0.0
C1299 C 0.49827 0.40673 0.77499 0.0
C1300 C 0.52952 0.41243 0.79633 0.0
C1301 C 0.50875 0.41239 0.82129 0.0
C1302 C 0.59537 0.40106 0.71916 0.0
C1303 C 0.56365 0.40615 0.6977 0.0
C1304 C 0.57423 0.40112 0.74421 0.0
C1305 C 0.5211 0.40656 0.74835 0.0
C1306 C 0.48999 0.41201 0.72677 0.0
C1307 C 0.51086 0.41168 0.70183 0.0
H1308 H 0.13058 0.63163 0.80189 0.0
H1309 H 0.98255 0.65379 0.83087 0.0
H1310 H 0.09124 0.62881 0.75862 0.0
H1311 H 0.94395 0.65187 0.78779 0.0
H1312 H 0.87299 0.63237 0.71066 0.0
H1313 H 0.91115 0.63123 0.7545 0.0
H1314 H 0.06291 0.64824 0.72348 0.0
H1315 H 0.0257 0.64849 0.6803 0.0
C1316 C 0.08986 0.63607 0.79896 0.0
C1317 C 0.05985 0.64296 0.81981 0.0
C1318 C 0.06715 0.63453 0.77413 0.0
C1319 C 0.01409 0.64011 0.76948 0.0
C1320 C 0.98439 0.64702 0.79049 0.0
C1321 C 0.00684 0.64832 0.81526 0.0
C1322 C 0.91452 0.63569 0.71332 0.0
C1323 C 0.94615 0.64044 0.69193 0.0
C1324 C 0.9365 0.63517 0.73846 0.0
C1325 C 0.99047 0.6396 0.74275 0.0
C1326 C 0.0217 0.64428 0.72117 0.0
C1327 C 1.00001 0.64459 0.69624 0.0
loop_
_geom_bond_atom_site_label_1
_geom_bond_atom_site_label_2
_geom_bond_distance
_geom_bond_site_symmetry_2
_ccdc_geom_bond_type
Co0 N4 2.148 . S
Co0 N10 2.128 . S
Co0 N20 2.194 . S
Co0 O25 2.351 . S
Co0 O26 2.155 . S
Co0 O27 2.096 . S
C1 N4 1.301 . S
C1 N5 1.328 . S
C1 H6 0.930 . S
C2 C3 1.333 . S
C2 N4 1.317 . S
C2 H7 0.930 . S
C3 C2 1.333 . S
C3 N5 1.350 . S
C3 H29 0.931 . S
N4 Co0 2.148 . S
N4 C1 1.301 . S
N4 C2 1.317 . S
N5 C1 1.328 . S
N5 C3 1.350 . S
H6 C1 0.930 . S
H7 C2 0.930 . S
C8 O9 1.224 . S
C8 O27 1.247 1_655 S
O9 C8 1.224 . S
N10 Co0 2.128 . S
N10 C11 1.355 . S
N10 C13 1.311 . S
C11 N10 1.355 . S
C11 C12 1.363 . S
C11 H23 0.929 . S
C12 C11 1.363 . S
C12 N14 1.375 . S
C12 H30 0.931 . S
C13 N10 1.311 . S
C13 N14 1.347 . S
C13 H24 0.929 . S
N14 C12 1.375 . S
N14 C13 1.347 . S
C15 C18 1.365 . S
C15 N20 1.328 . S
C15 H21 0.929 . S
C16 C17 1.362 . S
C16 C19 1.378 . S
C16 H31 0.929 1_455 S
C17 C16 1.362 . S
C17 C18 1.366 . S
C18 C15 1.365 . S
C18 C17 1.366 . S
C18 H32 0.930 . S
C19 C16 1.378 . S
C19 N20 1.315 . S
C19 H22 0.930 1_455 S
N20 Co0 2.194 . S
N20 C15 1.328 . S
N20 C19 1.315 . S
H21 C15 0.929 . S
H22 C19 0.930 1_655 S
H23 C11 0.929 . S
H24 C13 0.929 . S
O25 Co0 2.351 . S
O25 C28 1.244 . S
O26 Co0 2.155 . S
O26 C28 1.240 . S
O27 Co0 2.096 . S
O27 C8 1.247 1_455 S
C28 O25 1.244 . S
C28 O26 1.240 . S
H29 C3 0.931 . S
H30 C12 0.931 . S
H31 C16 0.929 1_655 S
H32 C18 0.930 . S
Co33 N37 2.148 . S
Co33 N43 2.128 . S
Co33 N53 2.194 . S
Co33 O58 2.351 . S
Co33 O59 2.155 . S
Co33 O60 2.096 . S
C34 N37 1.301 . S
C34 N38 1.328 . S
C34 H39 0.930 . S
C35 C36 1.333 . S
C35 N37 1.317 . S
C35 H40 0.930 . S
C36 C35 1.333 . S
C36 N38 1.350 . S
C36 H62 0.931 . S
N37 Co33 2.148 . S
N37 C34 1.301 . S
N37 C35 1.317 . S
N38 C34 1.328 . S
N38 C36 1.350 . S
H39 C34 0.930 . S
H40 C35 0.930 . S
C41 O42 1.224 . S
C41 O60 1.247 . S
O42 C41 1.224 . S
N43 Co33 2.128 . S
N43 C44 1.355 . S
N43 C46 1.311 . S
C44 N43 1.355 . S
C44 C45 1.363 . S
C44 H56 0.929 . S
C45 C44 1.363 . S
C45 N47 1.375 . S
C45 H63 0.931 . S
C46 N43 1.311 . S
C46 N47 1.347 . S
C46 H57 0.929 . S
N47 C45 1.375 . S
N47 C46 1.347 . S
C48 C51 1.365 . S
C48 N53 1.328 . S
C48 H54 0.929 . S
C49 C50 1.362 . S
C49 C52 1.378 . S
C49 H64 0.929 . S
C50 C49 1.362 . S
C50 C51 1.366 . S
C51 C48 1.365 . S
C51 C50 1.366 . S
C51 H65 0.930 . S
C52 C49 1.378 . S
C52 N53 1.315 . S
C52 H55 0.930 . S
N53 Co33 2.194 . S
N53 C48 1.328 . S
N53 C52 1.315 . S
H54 C48 0.929 . S
H55 C52 0.930 . S
H56 C44 0.929 . S
H57 C46 0.929 . S
O58 Co33 2.351 . S
O58 C61 1.244 . S
O59 Co33 2.155 . S
O59 C61 1.240 . S
O60 Co33 2.096 . S
O60 C41 1.247 . S
C61 O58 1.244 . S
C61 O59 1.240 . S
H62 C36 0.931 . S
H63 C45 0.931 . S
H64 C49 0.929 . S
H65 C51 0.930 . S
Co66 N70 2.148 . S
Co66 N76 2.128 . S
Co66 N86 2.194 . S
Co66 O91 2.351 . S
Co66 O92 2.155 . S
Co66 O93 2.096 . S
C67 N70 1.301 . S
C67 N71 1.328 . S
C67 H72 0.930 . S
C68 C69 1.333 . S
C68 N70 1.317 . S
C68 H73 0.930 . S
C69 C68 1.333 . S
C69 N71 1.350 . S
C69 H95 0.931 . S
N70 Co66 2.148 . S
N70 C67 1.301 . S
N70 C68 1.317 . S
N71 C67 1.328 . S
N71 C69 1.350 . S
H72 C67 0.930 . S
H73 C68 0.930 . S
C74 O75 1.224 . S
C74 O93 1.247 . S
O75 C74 1.224 . S
N76 Co66 2.128 . S
N76 C77 1.355 . S
N76 C79 1.311 . S
C77 N76 1.355 . S
C77 C78 1.363 . S
C77 H89 0.929 . S
C78 C77 1.363 . S
C78 N80 1.375 . S
C78 H96 0.931 . S
C79 N76 1.311 . S
C79 N80 1.347 . S
C79 H90 0.929 . S
N80 C78 1.375 . S
N80 C79 1.347 . S
C81 C84 1.365 . S
C81 N86 1.328 . S
C81 H87 0.929 . S
C82 C83 1.362 . S
C82 C85 1.378 . S
C82 H97 0.929 . S
C83 C82 1.362 . S
C83 C84 1.366 . S
C84 C81 1.365 . S
C84 C83 1.366 . S
C84 H98 0.930 . S
C85 C82 1.378 . S
C85 N86 1.315 . S
C85 H88 0.930 . S
N86 Co66 2.194 . S
N86 C81 1.328 . S
N86 C85 1.315 . S
H87 C81 0.929 . S
H88 C85 0.930 . S
H89 C77 0.929 . S
H90 C79 0.929 . S
O91 Co66 2.351 . S
O91 C94 1.244 . S
O92 Co66 2.155 . S
O92 C94 1.240 . S
O93 Co66 2.096 . S
O93 C74 1.247 . S
C94 O91 1.244 . S
C94 O92 1.240 . S
H95 C69 0.931 . S
H96 C78 0.931 . S
H97 C82 0.929 . S
H98 C84 0.930 . S
Co99 N103 2.148 . S
Co99 N109 2.128 . S
Co99 N119 2.194 . S
Co99 O124 2.351 . S
Co99 O125 2.155 . S
Co99 O126 2.096 . S
C100 N103 1.301 . S
C100 N104 1.328 . S
C100 H105 0.930 . S
C101 C102 1.333 . S
C101 N103 1.317 . S
C101 H106 0.930 . S
C102 C101 1.333 . S
C102 N104 1.350 . S
C102 H128 0.931 . S
N103 Co99 2.148 . S
N103 C100 1.301 . S
N103 C101 1.317 . S
N104 C100 1.328 . S
N104 C102 1.350 . S
H105 C100 0.930 . S
H106 C101 0.930 . S
C107 O108 1.224 . S
C107 O126 1.247 1_455 S
O108 C107 1.224 . S
N109 Co99 2.128 . S
N109 C110 1.355 . S
N109 C112 1.311 . S
C110 N109 1.355 . S
C110 C111 1.363 . S
C110 H122 0.929 . S
C111 C110 1.363 . S
C111 N113 1.375 . S
C111 H129 0.931 . S
C112 N109 1.311 . S
C112 N113 1.347 . S
C112 H123 0.929 . S
N113 C111 1.375 . S
N113 C112 1.347 . S
C114 C117 1.365 . S
C114 N119 1.328 . S
C114 H120 0.929 . S
C115 C116 1.362 . S
C115 C118 1.378 . S
C115 H130 0.929 1_655 S
C116 C115 1.362 . S
C116 C117 1.366 . S
C117 C114 1.365 . S
C117 C116 1.366 . S
C117 H131 0.930 . S
C118 C115 1.378 . S
C118 N119 1.315 . S
C118 H121 0.930 1_655 S
N119 Co99 2.194 . S
N119 C114 1.328 . S
N119 C118 1.315 . S
H120 C114 0.929 . S
H121 C118 0.930 1_455 S
H122 C110 0.929 . S
H123 C112 0.929 . S
O124 Co99 2.351 . S
O124 C127 1.244 . S
O125 Co99 2.155 . S
O125 C127 1.240 . S
O126 Co99 2.096 . S
O126 C107 1.247 1_655 S
C127 O124 1.244 . S
C127 O125 1.240 . S
H128 C102 0.931 . S
H129 C111 0.931 . S
H130 C115 0.929 1_455 S
H131 C117 0.930 . S
Co132 N136 2.148 . S
Co132 N142 2.128 . S
Co132 N152 2.194 . S
Co132 O157 2.351 . S
Co132 O158 2.155 . S
Co132 O159 2.096 . S
C133 N136 1.301 . S
C133 N137 1.328 . S
C133 H138 0.930 . S
C134 C135 1.333 . S
C134 N136 1.317 . S
C134 H139 0.930 . S
C135 C134 1.333 . S
C135 N137 1.350 . S
C135 H161 0.931 . S
N136 Co132 2.148 . S
N136 C133 1.301 . S
N136 C134 1.317 . S
N137 C133 1.328 . S
N137 C135 1.350 . S
H138 C133 0.930 . S
H139 C134 0.930 . S
C140 O141 1.224 . S
C140 O159 1.247 . S
O141 C140 1.224 . S
N142 Co132 2.128 . S
N142 C143 1.355 . S
N142 C145 1.311 . S
C143 N142 1.355 . S
C143 C144 1.363 . S
C143 H155 0.929 . S
C144 C143 1.363 . S
C144 N146 1.375 . S
C144 H162 0.931 . S
C145 N142 1.311 . S
C145 N146 1.347 . S
C145 H156 0.929 . S
N146 C144 1.375 . S
N146 C145 1.347 . S
C147 C150 1.365 . S
C147 N152 1.328 1_455 S
C147 H153 0.929 . S
C148 C149 1.362 . S
C148 C151 1.378 1_455 S
C148 H163 0.929 . S
C149 C148 1.362 . S
C149 C150 1.366 . S
C150 C147 1.365 . S
C150 C149 1.366 . S
C150 H164 0.930 . S
C151 C148 1.378 1_655 S
C151 N152 1.315 . S
C151 H154 0.930 . S
N152 Co132 2.194 . S
N152 C147 1.328 1_655 S
N152 C151 1.315 . S
H153 C147 0.929 . S
H154 C151 0.930 . S
H155 C143 0.929 . S
H156 C145 0.929 . S
O157 Co132 2.351 . S
O157 C160 1.244 . S
O158 Co132 2.155 . S
O158 C160 1.240 . S
O159 Co132 2.096 . S
O159 C140 1.247 . S
C160 O157 1.244 . S
C160 O158 1.240 . S
H161 C135 0.931 . S
H162 C144 0.931 . S
H163 C148 0.929 . S
H164 C150 0.930 . S
Co165 N169 2.148 . S
Co165 N175 2.128 . S
Co165 N185 2.194 . S
Co165 O190 2.351 . S
Co165 O191 2.155 . S
Co165 O192 2.096 . S
C166 N169 1.301 . S
C166 N170 1.328 . S
C166 H171 0.930 . S
C167 C168 1.333 . S
C167 N169 1.317 . S
C167 H172 0.930 . S
C168 C167 1.333 . S
C168 N170 1.350 . S
C168 H194 0.931 . S
N169 Co165 2.148 . S
N169 C166 1.301 . S
N169 C167 1.317 . S
N170 C166 1.328 . S
N170 C168 1.350 . S
H171 C166 0.930 . S
H172 C167 0.930 . S
C173 O174 1.224 . S
C173 O192 1.247 . S
O174 C173 1.224 . S
N175 Co165 2.128 . S
N175 C176 1.355 . S
N175 C178 1.311 . S
C176 N175 1.355 . S
C176 C177 1.363 . S
C176 H188 0.929 . S
C177 C176 1.363 . S
C177 N179 1.375 . S
C177 H195 0.931 . S
C178 N175 1.311 . S
C178 N179 1.347 . S
C178 H189 0.929 . S
N179 C177 1.375 . S
N179 C178 1.347 . S
C180 C183 1.365 . S
C180 N185 1.328 . S
C180 H186 0.929 . S
C181 C182 1.362 . S
C181 C184 1.378 . S
C181 H196 0.929 . S
C182 C181 1.362 . S
C182 C183 1.366 . S
C183 C180 1.365 . S
C183 C182 1.366 . S
C183 H197 0.930 . S
C184 C181 1.378 . S
C184 N185 1.315 . S
C184 H187 0.930 . S
N185 Co165 2.194 . S
N185 C180 1.328 . S
N185 C184 1.315 . S
H186 C180 0.929 . S
H187 C184 0.930 . S
H188 C176 0.929 . S
H189 C178 0.929 . S
O190 Co165 2.351 . S
O190 C193 1.244 . S
O191 Co165 2.155 . S
O191 C193 1.240 . S
O192 Co165 2.096 . S
O192 C173 1.247 . S
C193 O190 1.244 . S
C193 O191 1.240 . S
H194 C168 0.931 . S
H195 C177 0.931 . S
H196 C181 0.929 . S
H197 C183 0.930 . S
Co198 N202 2.148 . S
Co198 N208 2.128 . S
Co198 N218 2.194 . S
Co198 O223 2.351 . S
Co198 O224 2.155 . S
Co198 O225 2.096 . S
C199 N202 1.301 . S
C199 N203 1.328 . S
C199 H204 0.930 . S
C200 C201 1.333 . S
C200 N202 1.317 . S
C200 H205 0.930 . S
C201 C200 1.333 . S
C201 N203 1.350 . S
C201 H227 0.931 . S
N202 Co198 2.148 . S
N202 C199 1.301 . S
N202 C200 1.317 . S
N203 C199 1.328 . S
N203 C201 1.350 . S
H204 C199 0.930 . S
H205 C200 0.930 . S
C206 O207 1.224 . S
C206 O225 1.247 . S
O207 C206 1.224 . S
N208 Co198 2.128 . S
N208 C209 1.355 . S
N208 C211 1.311 . S
C209 N208 1.355 . S
C209 C210 1.363 . S
C209 H221 0.929 . S
C210 C209 1.363 . S
C210 N212 1.375 . S
C210 H228 0.931 . S
C211 N208 1.311 . S
C211 N212 1.347 . S
C211 H222 0.929 . S
N212 C210 1.375 . S
N212 C211 1.347 . S
C213 C216 1.365 . S
C213 N218 1.328 . S
C213 H219 0.929 . S
C214 C215 1.362 . S
C214 C217 1.378 . S
C214 H229 0.929 . S
C215 C214 1.362 . S
C215 C216 1.366 . S
C216 C213 1.365 . S
C216 C215 1.366 . S
C216 H230 0.930 . S
C217 C214 1.378 . S
C217 N218 1.315 . S
C217 H220 0.930 . S
N218 Co198 2.194 . S
N218 C213 1.328 . S
N218 C217 1.315 . S
H219 C213 0.929 . S
H220 C217 0.930 . S
H221 C209 0.929 . S
H222 C211 0.929 . S
O223 Co198 2.351 . S
O223 C226 1.244 . S
O224 Co198 2.155 . S
O224 C226 1.240 . S
O225 Co198 2.096 . S
O225 C206 1.247 . S
C226 O223 1.244 . S
C226 O224 1.240 . S
H227 C201 0.931 . S
H228 C210 0.931 . S
H229 C214 0.929 . S
H230 C216 0.930 . S
Co231 N235 2.148 . S
Co231 N241 2.128 . S
Co231 N251 2.194 . S
Co231 O256 2.351 . S
Co231 O257 2.155 . S
Co231 O258 2.096 . S
C232 N235 1.301 . S
C232 N236 1.328 . S
C232 H237 0.930 . S
C233 C234 1.333 . S
C233 N235 1.317 . S
C233 H238 0.930 . S
C234 C233 1.333 . S
C234 N236 1.350 . S
C234 H260 0.931 . S
N235 Co231 2.148 . S
N235 C232 1.301 . S
N235 C233 1.317 . S
N236 C232 1.328 . S
N236 C234 1.350 . S
H237 C232 0.930 . S
H238 C233 0.930 . S
C239 O240 1.224 . S
C239 O258 1.247 . S
O240 C239 1.224 . S
N241 Co231 2.128 . S
N241 C242 1.355 . S
N241 C244 1.311 . S
C242 N241 1.355 . S
C242 C243 1.363 . S
C242 H254 0.929 . S
C243 C242 1.363 . S
C243 N245 1.375 . S
C243 H261 0.931 . S
C244 N241 1.311 . S
C244 N245 1.347 . S
C244 H255 0.929 . S
N245 C243 1.375 . S
N245 C244 1.347 . S
C246 C249 1.365 . S
C246 N251 1.328 1_655 S
C246 H252 0.929 . S
C247 C248 1.362 . S
C247 C250 1.378 1_655 S
C247 H262 0.929 . S
C248 C247 1.362 . S
C248 C249 1.366 . S
C249 C246 1.365 . S
C249 C248 1.366 . S
C249 H263 0.930 . S
C250 C247 1.378 1_455 S
C250 N251 1.315 . S
C250 H253 0.930 . S
N251 Co231 2.194 . S
N251 C246 1.328 1_455 S
N251 C250 1.315 . S
H252 C246 0.929 . S
H253 C250 0.930 . S
H254 C242 0.929 . S
H255 C244 0.929 . S
O256 Co231 2.351 . S
O256 C259 1.244 . S
O257 Co231 2.155 . S
O257 C259 1.240 . S
O258 Co231 2.096 . S
O258 C239 1.247 . S
C259 O256 1.244 . S
C259 O257 1.240 . S
H260 C234 0.931 . S
H261 C243 0.931 . S
H262 C247 0.929 . S
H263 C249 0.930 . S
Co264 N268 2.148 . S
Co264 N274 2.128 . S
Co264 N284 2.194 . S
Co264 O289 2.351 . S
Co264 O290 2.155 . S
Co264 O291 2.096 . S
C265 N268 1.301 . S
C265 N269 1.328 . S
C265 H270 0.930 . S
C266 C267 1.333 . S
C266 N268 1.317 . S
C266 H271 0.930 . S
C267 C266 1.333 . S
C267 N269 1.350 . S
C267 H293 0.931 . S
N268 Co264 2.148 . S
N268 C265 1.301 . S
N268 C266 1.317 . S
N269 C265 1.328 . S
N269 C267 1.350 . S
H270 C265 0.930 . S
H271 C266 0.930 . S
C272 O273 1.224 . S
C272 O291 1.247 . S
O273 C272 1.224 . S
N274 Co264 2.128 . S
N274 C275 1.355 . S
N274 C277 1.311 . S
C275 N274 1.355 . S
C275 C276 1.363 . S
C275 H287 0.929 . S
C276 C275 1.363 . S
C276 N278 1.375 . S
C276 H294 0.931 . S
C277 N274 1.311 . S
C277 N278 1.347 . S
C277 H288 0.929 . S
N278 C276 1.375 . S
N278 C277 1.347 . S
C279 C282 1.365 . S
C279 N284 1.328 . S
C279 H285 0.929 . S
C280 C281 1.362 . S
C280 C283 1.378 . S
C280 H295 0.929 . S
C281 C280 1.362 . S
C281 C282 1.366 . S
C282 C279 1.365 . S
C282 C281 1.366 . S
C282 H296 0.930 . S
C283 C280 1.378 . S
C283 N284 1.315 . S
C283 H286 0.930 . S
N284 Co264 2.194 . S
N284 C279 1.328 . S
N284 C283 1.315 . S
H285 C279 0.929 . S
H286 C283 0.930 . S
H287 C275 0.929 . S
H288 C277 0.929 . S
O289 Co264 2.351 . S
O289 C292 1.244 . S
O290 Co264 2.155 . S
O290 C292 1.240 . S
O291 Co264 2.096 . S
O291 C272 1.247 . S
C292 O289 1.244 . S
C292 O290 1.240 . S
H293 C267 0.931 . S
H294 C276 0.931 . S
H295 C280 0.929 . S
H296 C282 0.930 . S
Co297 N301 2.148 . S
Co297 N307 2.128 . S
Co297 N317 2.194 . S
Co297 O322 2.351 . S
Co297 O323 2.155 . S
Co297 O324 2.096 . S
C298 N301 1.301 . S
C298 N302 1.328 . S
C298 H303 0.930 . S
C299 C300 1.333 . S
C299 N301 1.317 . S
C299 H304 0.930 . S
C300 C299 1.333 . S
C300 N302 1.350 . S
C300 H326 0.931 . S
N301 Co297 2.148 . S
N301 C298 1.301 . S
N301 C299 1.317 . S
N302 C298 1.328 . S
N302 C300 1.350 . S
H303 C298 0.930 . S
H304 C299 0.930 . S
C305 O306 1.224 . S
C305 O324 1.247 1_455 S
O306 C305 1.224 . S
N307 Co297 2.128 . S
N307 C308 1.355 . S
N307 C310 1.311 . S
C308 N307 1.355 . S
C308 C309 1.363 . S
C308 H320 0.929 . S
C309 C308 1.363 . S
C309 N311 1.375 . S
C309 H327 0.931 . S
C310 N307 1.311 . S
C310 N311 1.347 . S
C310 H321 0.929 . S
N311 C309 1.375 . S
N311 C310 1.347 . S
C312 C315 1.365 . S
C312 N317 1.328 . S
C312 H318 0.929 . S
C313 C314 1.362 . S
C313 C316 1.378 . S
C313 H328 0.929 1_655 S
C314 C313 1.362 . S
C314 C315 1.366 . S
C315 C312 1.365 . S
C315 C314 1.366 . S
C315 H329 0.930 . S
C316 C313 1.378 . S
C316 N317 1.315 . S
C316 H319 0.930 1_655 S
N317 Co297 2.194 . S
N317 C312 1.328 . S
N317 C316 1.315 . S
H318 C312 0.929 . S
H319 C316 0.930 1_455 S
H320 C308 0.929 . S
H321 C310 0.929 . S
O322 Co297 2.351 . S
O322 C325 1.244 . S
O323 Co297 2.155 . S
O323 C325 1.240 . S
O324 Co297 2.096 . S
O324 C305 1.247 1_655 S
C325 O322 1.244 . S
C325 O323 1.240 . S
H326 C300 0.931 . S
H327 C309 0.931 . S
H328 C313 0.929 1_455 S
H329 C315 0.930 . S
Co330 N334 2.148 . S
Co330 N340 2.128 . S
Co330 N350 2.194 . S
Co330 O355 2.351 1_455 S
Co330 O356 2.155 . S
Co330 O357 2.096 . S
C331 N334 1.301 . S
C331 N335 1.328 . S
C331 H336 0.930 1_455 S
C332 C333 1.333 . S
C332 N334 1.317 . S
C332 H337 0.930 . S
C333 C332 1.333 . S
C333 N335 1.350 . S
C333 H359 0.931 . S
N334 Co330 2.148 . S
N334 C331 1.301 . S
N334 C332 1.317 . S
N335 C331 1.328 . S
N335 C333 1.350 . S
H336 C331 0.930 1_655 S
H337 C332 0.930 . S
C338 O339 1.224 . S
C338 O357 1.247 . S
O339 C338 1.224 . S
N340 Co330 2.128 . S
N340 C341 1.355 . S
N340 C343 1.311 . S
C341 N340 1.355 . S
C341 C342 1.363 . S
C341 H353 0.929 . S
C342 C341 1.363 . S
C342 N344 1.375 . S
C342 H360 0.931 . S
C343 N340 1.311 . S
C343 N344 1.347 . S
C343 H354 0.929 . S
N344 C342 1.375 . S
N344 C343 1.347 . S
C345 C348 1.365 . S
C345 N350 1.328 . S
C345 H351 0.929 1_455 S
C346 C347 1.362 . S
C346 C349 1.378 . S
C346 H361 0.929 . S
C347 C346 1.362 . S
C347 C348 1.366 . S
C348 C345 1.365 . S
C348 C347 1.366 . S
C348 H362 0.930 1_455 S
C349 C346 1.378 . S
C349 N350 1.315 . S
C349 H352 0.930 . S
N350 Co330 2.194 . S
N350 C345 1.328 . S
N350 C349 1.315 . S
H351 C345 0.929 1_655 S
H352 C349 0.930 . S
H353 C341 0.929 . S
H354 C343 0.929 . S
O355 Co330 2.351 1_655 S
O355 C358 1.244 . S
O356 Co330 2.155 . S
O356 C358 1.240 1_455 S
O357 Co330 2.096 . S
O357 C338 1.247 . S
C358 O355 1.244 . S
C358 O356 1.240 1_655 S
H359 C333 0.931 . S
H360 C342 0.931 . S
H361 C346 0.929 . S
H362 C348 0.930 1_655 S
Co363 N367 2.148 . S
Co363 N373 2.128 . S
Co363 N383 2.194 . S
Co363 O388 2.351 . S
Co363 O389 2.155 . S
Co363 O390 2.096 . S
C364 N367 1.301 . S
C364 N368 1.328 . S
C364 H369 0.930 . S
C365 C366 1.333 . S
C365 N367 1.317 . S
C365 H370 0.930 . S
C366 C365 1.333 . S
C366 N368 1.350 . S
C366 H392 0.931 . S
N367 Co363 2.148 . S
N367 C364 1.301 . S
N367 C365 1.317 . S
N368 C364 1.328 . S
N368 C366 1.350 . S
H369 C364 0.930 . S
H370 C365 0.930 . S
C371 O372 1.224 . S
C371 O390 1.247 . S
O372 C371 1.224 . S
N373 Co363 2.128 . S
N373 C374 1.355 . S
N373 C376 1.311 . S
C374 N373 1.355 . S
C374 C375 1.363 . S
C374 H386 0.929 . S
C375 C374 1.363 . S
C375 N377 1.375 . S
C375 H393 0.931 . S
C376 N373 1.311 . S
C376 N377 1.347 . S
C376 H387 0.929 . S
N377 C375 1.375 . S
N377 C376 1.347 . S
C378 C381 1.365 . S
C378 N383 1.328 . S
C378 H384 0.929 . S
C379 C380 1.362 . S
C379 C382 1.378 . S
C379 H394 0.929 . S
C380 C379 1.362 . S
C380 C381 1.366 . S
C381 C378 1.365 . S
C381 C380 1.366 . S
C381 H395 0.930 . S
C382 C379 1.378 . S
C382 N383 1.315 . S
C382 H385 0.930 . S
N383 Co363 2.194 . S
N383 C378 1.328 . S
N383 C382 1.315 . S
H384 C378 0.929 . S
H385 C382 0.930 . S
H386 C374 0.929 . S
H387 C376 0.929 . S
O388 Co363 2.351 . S
O388 C391 1.244 . S
O389 Co363 2.155 . S
O389 C391 1.240 . S
O390 Co363 2.096 . S
O390 C371 1.247 . S
C391 O388 1.244 . S
C391 O389 1.240 . S
H392 C366 0.931 . S
H393 C375 0.931 . S
H394 C379 0.929 . S
H395 C381 0.930 . S
Co396 N400 2.148 . S
Co396 N406 2.128 . S
Co396 N416 2.194 . S
Co396 O421 2.351 . S
Co396 O422 2.155 . S
Co396 O423 2.096 . S
C397 N400 1.301 . S
C397 N401 1.328 . S
C397 H402 0.930 . S
C398 C399 1.333 . S
C398 N400 1.317 . S
C398 H403 0.930 . S
C399 C398 1.333 . S
C399 N401 1.350 . S
C399 H425 0.931 . S
N400 Co396 2.148 . S
N400 C397 1.301 . S
N400 C398 1.317 . S
N401 C397 1.328 . S
N401 C399 1.350 . S
H402 C397 0.930 . S
H403 C398 0.930 . S
C404 O405 1.224 . S
C404 O423 1.247 . S
O405 C404 1.224 . S
N406 Co396 2.128 . S
N406 C407 1.355 . S
N406 C409 1.311 . S
C407 N406 1.355 . S
C407 C408 1.363 . S
C407 H419 0.929 . S
C408 C407 1.363 . S
C408 N410 1.375 . S
C408 H426 0.931 . S
C409 N406 1.311 . S
C409 N410 1.347 . S
C409 H420 0.929 . S
N410 C408 1.375 . S
N410 C409 1.347 . S
C411 C414 1.365 . S
C411 N416 1.328 . S
C411 H417 0.929 . S
C412 C413 1.362 . S
C412 C415 1.378 . S
C412 H427 0.929 . S
C413 C412 1.362 . S
C413 C414 1.366 . S
C414 C411 1.365 . S
C414 C413 1.366 . S
C414 H428 0.930 . S
C415 C412 1.378 . S
C415 N416 1.315 . S
C415 H418 0.930 . S
N416 Co396 2.194 . S
N416 C411 1.328 . S
N416 C415 1.315 . S
H417 C411 0.929 . S
H418 C415 0.930 . S
H419 C407 0.929 . S
H420 C409 0.929 . S
O421 Co396 2.351 . S
O421 C424 1.244 . S
O422 Co396 2.155 . S
O422 C424 1.240 . S
O423 Co396 2.096 . S
O423 C404 1.247 . S
C424 O421 1.244 . S
C424 O422 1.240 . S
H425 C399 0.931 . S
H426 C408 0.931 . S
H427 C412 0.929 . S
H428 C414 0.930 . S
Co429 N433 2.148 . S
Co429 N439 2.128 . S
Co429 N449 2.194 . S
Co429 O454 2.351 . S
Co429 O455 2.155 . S
Co429 O456 2.096 . S
C430 N433 1.301 . S
C430 N434 1.328 . S
C430 H435 0.930 . S
C431 C432 1.333 . S
C431 N433 1.317 . S
C431 H436 0.930 . S
C432 C431 1.333 . S
C432 N434 1.350 . S
C432 H458 0.931 . S
N433 Co429 2.148 . S
N433 C430 1.301 . S
N433 C431 1.317 . S
N434 C430 1.328 . S
N434 C432 1.350 . S
H435 C430 0.930 . S
H436 C431 0.930 . S
C437 O438 1.224 . S
C437 O456 1.247 . S
O438 C437 1.224 . S
N439 Co429 2.128 . S
N439 C440 1.355 . S
N439 C442 1.311 . S
C440 N439 1.355 . S
C440 C441 1.363 . S
C440 H452 0.929 . S
C441 C440 1.363 . S
C441 N443 1.375 . S
C441 H459 0.931 . S
C442 N439 1.311 . S
C442 N443 1.347 . S
C442 H453 0.929 . S
N443 C441 1.375 . S
N443 C442 1.347 . S
C444 C447 1.365 . S
C444 N449 1.328 1_655 S
C444 H450 0.929 . S
C445 C446 1.362 . S
C445 C448 1.378 1_655 S
C445 H460 0.929 . S
C446 C445 1.362 . S
C446 C447 1.366 . S
C447 C444 1.365 . S
C447 C446 1.366 . S
C447 H461 0.930 . S
C448 C445 1.378 1_455 S
C448 N449 1.315 . S
C448 H451 0.930 . S
N449 Co429 2.194 . S
N449 C444 1.328 1_455 S
N449 C448 1.315 . S
H450 C444 0.929 . S
H451 C448 0.930 . S
H452 C440 0.929 . S
H453 C442 0.929 . S
O454 Co429 2.351 . S
O454 C457 1.244 . S
O455 Co429 2.155 . S
O455 C457 1.240 . S
O456 Co429 2.096 . S
O456 C437 1.247 . S
C457 O454 1.244 . S
C457 O455 1.240 . S
H458 C432 0.931 . S
H459 C441 0.931 . S
H460 C445 0.929 . S
H461 C447 0.930 . S
Co462 N466 2.148 . S
Co462 N472 2.128 . S
Co462 N482 2.194 . S
Co462 O487 2.351 . S
Co462 O488 2.155 . S
Co462 O489 2.096 . S
C463 N466 1.301 . S
C463 N467 1.328 . S
C463 H468 0.930 . S
C464 C465 1.333 . S
C464 N466 1.317 . S
C464 H469 0.930 . S
C465 C464 1.333 . S
C465 N467 1.350 . S
C465 H491 0.931 . S
N466 Co462 2.148 . S
N466 C463 1.301 . S
N466 C464 1.317 . S
N467 C463 1.328 . S
N467 C465 1.350 . S
H468 C463 0.930 . S
H469 C464 0.930 . S
C470 O471 1.224 . S
C470 O489 1.247 . S
O471 C470 1.224 . S
N472 Co462 2.128 . S
N472 C473 1.355 . S
N472 C475 1.311 . S
C473 N472 1.355 . S
C473 C474 1.363 . S
C473 H485 0.929 . S
C474 C473 1.363 . S
C474 N476 1.375 . S
C474 H492 0.931 . S
C475 N472 1.311 . S
C475 N476 1.347 . S
C475 H486 0.929 . S
N476 C474 1.375 . S
N476 C475 1.347 . S
C477 C480 1.365 . S
C477 N482 1.328 1_455 S
C477 H483 0.929 . S
C478 C479 1.362 . S
C478 C481 1.378 1_455 S
C478 H493 0.929 . S
C479 C478 1.362 . S
C479 C480 1.366 . S
C480 C477 1.365 . S
C480 C479 1.366 . S
C480 H494 0.930 . S
C481 C478 1.378 1_655 S
C481 N482 1.315 . S
C481 H484 0.930 . S
N482 Co462 2.194 . S
N482 C477 1.328 1_655 S
N482 C481 1.315 . S
H483 C477 0.929 . S
H484 C481 0.930 . S
H485 C473 0.929 . S
H486 C475 0.929 . S
O487 Co462 2.351 . S
O487 C490 1.244 . S
O488 Co462 2.155 . S
O488 C490 1.240 . S
O489 Co462 2.096 . S
O489 C470 1.247 . S
C490 O487 1.244 . S
C490 O488 1.240 . S
H491 C465 0.931 . S
H492 C474 0.931 . S
H493 C478 0.929 . S
H494 C480 0.930 . S
Co495 N499 2.148 . S
Co495 N505 2.128 . S
Co495 N515 2.194 . S
Co495 O520 2.351 . S
Co495 O521 2.155 . S
Co495 O522 2.096 . S
C496 N499 1.301 . S
C496 N500 1.328 . S
C496 H501 0.930 . S
C497 C498 1.333 . S
C497 N499 1.317 . S
C497 H502 0.930 . S
C498 C497 1.333 . S
C498 N500 1.350 . S
C498 H524 0.931 . S
N499 Co495 2.148 . S
N499 C496 1.301 . S
N499 C497 1.317 . S
N500 C496 1.328 . S
N500 C498 1.350 . S
H501 C496 0.930 . S
H502 C497 0.930 . S
C503 O504 1.224 . S
C503 O522 1.247 . S
O504 C503 1.224 . S
N505 Co495 2.128 . S
N505 C506 1.355 . S
N505 C508 1.311 . S
C506 N505 1.355 . S
C506 C507 1.363 . S
C506 H518 0.929 . S
C507 C506 1.363 . S
C507 N509 1.375 . S
C507 H525 0.931 . S
C508 N505 1.311 . S
C508 N509 1.347 . S
C508 H519 0.929 . S
N509 C507 1.375 . S
N509 C508 1.347 . S
C510 C513 1.365 . S
C510 N515 1.328 . S
C510 H516 0.929 . S
C511 C512 1.362 . S
C511 C514 1.378 . S
C511 H526 0.929 . S
C512 C511 1.362 . S
C512 C513 1.366 . S
C513 C510 1.365 . S
C513 C512 1.366 . S
C513 H527 0.930 . S
C514 C511 1.378 . S
C514 N515 1.315 . S
C514 H517 0.930 . S
N515 Co495 2.194 . S
N515 C510 1.328 . S
N515 C514 1.315 . S
H516 C510 0.929 . S
H517 C514 0.930 . S
H518 C506 0.929 . S
H519 C508 0.929 . S
O520 Co495 2.351 . S
O520 C523 1.244 . S
O521 Co495 2.155 . S
O521 C523 1.240 . S
O522 Co495 2.096 . S
O522 C503 1.247 . S
C523 O520 1.244 . S
C523 O521 1.240 . S
H524 C498 0.931 . S
H525 C507 0.931 . S
H526 C511 0.929 . S
H527 C513 0.930 . S
H528 C536 0.950 . S
H529 C541 0.950 . S
H530 C538 0.950 1_554 S
H531 C540 0.950 . S
H532 C542 0.950 . S
H533 C544 0.950 . S
H534 C546 0.950 . S
H535 C547 0.950 . S
C536 H528 0.950 . S
C536 C537 1.386 . S
C536 C538 1.391 . S
C537 C536 1.386 . S
C537 C541 1.393 . S
C538 H530 0.950 1_556 S
C538 C536 1.391 . S
C538 C539 1.400 . S
C539 C538 1.400 . S
C539 C540 1.398 . S
C539 C545 1.491 1_556 S
C540 H531 0.950 . S
C540 C539 1.398 . S
C540 C541 1.391 . S
C541 H529 0.950 . S
C541 C537 1.393 . S
C541 C540 1.391 . S
C542 H532 0.950 . S
C542 C543 1.386 . S
C542 C544 1.391 1_554 S
C543 C542 1.386 . S
C543 C547 1.393 . S
C544 H533 0.950 . S
C544 C542 1.391 1_556 S
C544 C545 1.400 1_556 S
C545 C539 1.491 1_554 S
C545 C544 1.400 1_554 S
C545 C546 1.398 . S
C546 H534 0.950 . S
C546 C545 1.398 . S
C546 C547 1.391 . S
C547 H535 0.950 . S
C547 C543 1.393 . S
C547 C546 1.391 . S
H548 C556 0.950 . S
H549 C561 0.950 . S
H550 C558 0.950 . S
H551 C560 0.950 1_554 S
H552 C562 0.950 . S
H553 C564 0.950 . S
H554 C566 0.950 . S
H555 C567 0.950 . S
C556 H548 0.950 . S
C556 C557 1.386 . S
C556 C558 1.391 . S
C557 C556 1.386 . S
C557 C561 1.393 . S
C558 H550 0.950 . S
C558 C556 1.391 . S
C558 C559 1.400 . S
C559 C558 1.400 . S
C559 C560 1.398 . S
C559 C565 1.491 1_556 S
C560 H551 0.950 1_556 S
C560 C559 1.398 . S
C560 C561 1.391 . S
C561 H549 0.950 . S
C561 C557 1.393 . S
C561 C560 1.391 . S
C562 H552 0.950 . S
C562 C563 1.386 . S
C562 C564 1.391 . S
C563 C562 1.386 . S
C563 C567 1.393 . S
C564 H553 0.950 . S
C564 C562 1.391 . S
C564 C565 1.400 . S
C565 C559 1.491 1_554 S
C565 C564 1.400 . S
C565 C566 1.398 1_554 S
C566 H554 0.950 . S
C566 C565 1.398 1_556 S
C566 C567 1.391 1_556 S
C567 H555 0.950 . S
C567 C563 1.393 . S
C567 C566 1.391 1_554 S
H568 C576 0.950 . S
H569 C581 0.950 . S
H570 C578 0.950 . S
H571 C580 0.950 . S
H572 C582 0.950 . S
H573 C584 0.950 . S
H574 C586 0.950 . S
H575 C587 0.950 . S
C576 H568 0.950 . S
C576 C577 1.386 . S
C576 C578 1.391 . S
C577 C576 1.386 . S
C577 C581 1.393 . S
C578 H570 0.950 . S
C578 C576 1.391 . S
C578 C579 1.400 . S
C579 C578 1.400 . S
C579 C580 1.398 . S
C579 C585 1.491 . S
C580 H571 0.950 . S
C580 C579 1.398 . S
C580 C581 1.391 . S
C581 H569 0.950 . S
C581 C577 1.393 . S
C581 C580 1.391 . S
C582 H572 0.950 . S
C582 C583 1.386 . S
C582 C584 1.391 . S
C583 C582 1.386 . S
C583 C587 1.393 . S
C584 H573 0.950 . S
C584 C582 1.391 . S
C584 C585 1.400 . S
C585 C579 1.491 . S
C585 C584 1.400 . S
C585 C586 1.398 . S
C586 H574 0.950 . S
C586 C585 1.398 . S
C586 C587 1.391 . S
C587 H575 0.950 . S
C587 C583 1.393 . S
C587 C586 1.391 . S
H588 C596 0.950 . S
H589 C601 0.950 . S
H590 C598 0.950 . S
H591 C600 0.950 . S
H592 C602 0.950 . S
H593 C604 0.950 . S
H594 C606 0.950 . S
H595 C607 0.950 . S
C596 H588 0.950 . S
C596 C597 1.386 . S
C596 C598 1.391 . S
C597 C596 1.386 . S
C597 C601 1.393 . S
C598 H590 0.950 . S
C598 C596 1.391 . S
C598 C599 1.400 . S
C599 C598 1.400 . S
C599 C600 1.398 . S
C599 C605 1.491 . S
C600 H591 0.950 . S
C600 C599 1.398 . S
C600 C601 1.391 . S
C601 H589 0.950 . S
C601 C597 1.393 . S
C601 C600 1.391 . S
C602 H592 0.950 . S
C602 C603 1.386 . S
C602 C604 1.391 . S
C603 C602 1.386 . S
C603 C607 1.393 . S
C604 H593 0.950 . S
C604 C602 1.391 . S
C604 C605 1.400 . S
C605 C599 1.491 . S
C605 C604 1.400 . S
C605 C606 1.398 . S
C606 H594 0.950 . S
C606 C605 1.398 . S
C606 C607 1.391 . S
C607 H595 0.950 . S
C607 C603 1.393 . S
C607 C606 1.391 . S
H608 C616 0.950 . S
H609 C621 0.950 . S
H610 C618 0.950 . S
H611 C620 0.950 . S
H612 C622 0.951 . S
H613 C624 0.950 . S
H614 C626 0.950 . S
H615 C627 0.950 . S
C616 H608 0.950 . S
C616 C617 1.386 . S
C616 C618 1.391 . S
C617 C616 1.386 . S
C617 C621 1.393 . S
C618 H610 0.950 . S
C618 C616 1.391 . S
C618 C619 1.400 . S
C619 C618 1.400 . S
C619 C620 1.398 . S
C619 C625 1.491 . S
C620 H611 0.950 . S
C620 C619 1.398 . S
C620 C621 1.391 . S
C621 H609 0.950 . S
C621 C617 1.393 . S
C621 C620 1.391 . S
C622 H612 0.951 . S
C622 C623 1.386 . S
C622 C624 1.391 1_554 S
C623 C622 1.386 . S
C623 C627 1.393 . S
C624 H613 0.950 . S
C624 C622 1.391 1_556 S
C624 C625 1.400 . S
C625 C619 1.491 . S
C625 C624 1.400 . S
C625 C626 1.398 1_556 S
C626 H614 0.950 . S
C626 C625 1.398 1_554 S
C626 C627 1.391 . S
C627 H615 0.950 . S
C627 C623 1.393 . S
C627 C626 1.391 . S
H628 C636 0.950 . S
H629 C641 0.950 . S
H630 C638 0.950 . S
H631 C640 0.950 . S
H632 C642 0.950 . S
H633 C644 0.950 . S
H634 C646 0.950 . S
H635 C647 0.950 . S
C636 H628 0.950 . S
C636 C637 1.386 . S
C636 C638 1.391 . S
C637 C636 1.386 . S
C637 C641 1.393 . S
C638 H630 0.950 . S
C638 C636 1.391 . S
C638 C639 1.400 . S
C639 C638 1.400 . S
C639 C640 1.398 . S
C639 C645 1.491 . S
C640 H631 0.950 . S
C640 C639 1.398 . S
C640 C641 1.391 . S
C641 H629 0.950 . S
C641 C637 1.393 . S
C641 C640 1.391 . S
C642 H632 0.950 . S
C642 C643 1.386 . S
C642 C644 1.391 . S
C643 C642 1.386 . S
C643 C647 1.393 . S
C644 H633 0.950 . S
C644 C642 1.391 . S
C644 C645 1.400 1_554 S
C645 C639 1.491 . S
C645 C644 1.400 1_556 S
C645 C646 1.398 . S
C646 H634 0.950 . S
C646 C645 1.398 . S
C646 C647 1.391 1_556 S
C647 H635 0.950 . S
C647 C643 1.393 . S
C647 C646 1.391 1_554 S
H648 C656 0.950 . S
H649 C661 0.950 . S
H650 C658 0.950 . S
H651 C660 0.950 . S
H652 C662 0.950 . S
H653 C664 0.950 . S
H654 C666 0.950 . S
H655 C667 0.950 . S
C656 H648 0.950 . S
C656 C657 1.386 . S
C656 C658 1.391 . S
C657 C656 1.386 . S
C657 C661 1.393 . S
C658 H650 0.950 . S
C658 C656 1.391 . S
C658 C659 1.400 . S
C659 C658 1.400 . S
C659 C660 1.398 . S
C659 C665 1.491 . S
C660 H651 0.950 . S
C660 C659 1.398 . S
C660 C661 1.391 . S
C661 H649 0.950 . S
C661 C657 1.393 . S
C661 C660 1.391 . S
C662 H652 0.950 . S
C662 C663 1.386 . S
C662 C664 1.391 . S
C663 C662 1.386 . S
C663 C667 1.393 . S
C664 H653 0.950 . S
C664 C662 1.391 . S
C664 C665 1.400 . S
C665 C659 1.491 . S
C665 C664 1.400 . S
C665 C666 1.398 . S
C666 H654 0.950 . S
C666 C665 1.398 . S
C666 C667 1.391 . S
C667 H655 0.950 . S
C667 C663 1.393 . S
C667 C666 1.391 . S
H668 C676 0.950 . S
H669 C681 0.950 . S
H670 C678 0.950 . S
H671 C680 0.950 . S
H672 C682 0.950 . S
H673 C684 0.950 . S
H674 C686 0.950 . S
H675 C687 0.950 . S
C676 H668 0.950 . S
C676 C677 1.386 . S
C676 C678 1.391 . S
C677 C676 1.386 . S
C677 C681 1.393 . S
C678 H670 0.950 . S
C678 C676 1.391 . S
C678 C679 1.400 . S
C679 C678 1.400 . S
C679 C680 1.398 . S
C679 C685 1.491 . S
C680 H671 0.950 . S
C680 C679 1.398 . S
C680 C681 1.391 . S
C681 H669 0.950 . S
C681 C677 1.393 . S
C681 C680 1.391 . S
C682 H672 0.950 . S
C682 C683 1.386 . S
C682 C684 1.391 . S
C683 C682 1.386 . S
C683 C687 1.393 . S
C684 H673 0.950 . S
C684 C682 1.391 . S
C684 C685 1.400 . S
C685 C679 1.491 . S
C685 C684 1.400 . S
C685 C686 1.398 . S
C686 H674 0.950 . S
C686 C685 1.398 . S
C686 C687 1.391 . S
C687 H675 0.950 . S
C687 C683 1.393 . S
C687 C686 1.391 . S
H688 C696 0.950 . S
H689 C701 0.950 . S
H690 C698 0.950 . S
H691 C700 0.950 . S
H692 C702 0.950 . S
H693 C704 0.950 . S
H694 C706 0.950 . S
H695 C707 0.950 . S
C696 H688 0.950 . S
C696 C697 1.386 . S
C696 C698 1.391 . S
C697 C696 1.386 . S
C697 C701 1.393 . S
C698 H690 0.950 . S
C698 C696 1.391 . S
C698 C699 1.400 . S
C699 C698 1.400 . S
C699 C700 1.398 . S
C699 C705 1.491 1_554 S
C700 H691 0.950 . S
C700 C699 1.398 . S
C700 C701 1.391 . S
C701 H689 0.950 . S
C701 C697 1.393 . S
C701 C700 1.391 . S
C702 H692 0.950 . S
C702 C703 1.386 . S
C702 C704 1.391 . S
C703 C702 1.386 . S
C703 C707 1.393 . S
C704 H693 0.950 . S
C704 C702 1.391 . S
C704 C705 1.400 . S
C705 C699 1.491 1_556 S
C705 C704 1.400 . S
C705 C706 1.398 . S
C706 H694 0.950 . S
C706 C705 1.398 . S
C706 C707 1.391 . S
C707 H695 0.950 . S
C707 C703 1.393 . S
C707 C706 1.391 . S
H708 C716 0.950 . S
H709 C721 0.950 . S
H710 C718 0.920 1_556 S
H711 C720 0.950 . S
H712 C722 0.950 . S
H713 C724 0.950 1_554 S
H714 C726 0.950 . S
H715 C727 0.950 . S
C716 H708 0.950 . S
C716 C717 1.386 . S
C716 C718 1.414 . S
C717 C716 1.386 . S
C717 C721 1.393 . S
C718 H710 0.920 1_554 S
C718 C716 1.414 . S
C718 C719 1.408 . S
C719 C718 1.408 . S
C719 C720 1.398 . S
C719 C725 1.491 1_554 S
C720 H711 0.950 . S
C720 C719 1.398 . S
C720 C721 1.391 . S
C721 H709 0.950 . S
C721 C717 1.393 . S
C721 C720 1.391 . S
C722 H712 0.950 . S
C722 C723 1.386 . S
C722 C724 1.391 . S
C723 C722 1.386 . S
C723 C727 1.393 . S
C724 H713 0.950 1_556 S
C724 C722 1.391 . S
C724 C725 1.400 . S
C725 C719 1.491 1_556 S
C725 C724 1.400 . S
C725 C726 1.398 . S
C726 H714 0.950 . S
C726 C725 1.398 . S
C726 C727 1.391 . S
C727 H715 0.950 . S
C727 C723 1.393 . S
C727 C726 1.391 . S
H728 C736 0.950 . S
H729 C741 0.950 . S
H730 C738 0.950 . S
H731 C740 0.950 . S
H732 C742 0.950 . S
H733 C744 0.950 . S
H734 C746 0.950 . S
H735 C747 0.950 . S
C736 H728 0.950 . S
C736 C737 1.386 . S
C736 C738 1.391 . S
C737 C736 1.386 . S
C737 C741 1.393 . S
C738 H730 0.950 . S
C738 C736 1.391 . S
C738 C739 1.400 . S
C739 C738 1.400 . S
C739 C740 1.398 . S
C739 C745 1.491 . S
C740 H731 0.950 . S
C740 C739 1.398 . S
C740 C741 1.391 . S
C741 H729 0.950 . S
C741 C737 1.393 . S
C741 C740 1.391 . S
C742 H732 0.950 . S
C742 C743 1.386 . S
C742 C744 1.391 . S
C743 C742 1.386 . S
C743 C747 1.393 . S
C744 H733 0.950 . S
C744 C742 1.391 . S
C744 C745 1.400 . S
C745 C739 1.491 . S
C745 C744 1.400 . S
C745 C746 1.398 . S
C746 H734 0.950 . S
C746 C745 1.398 . S
C746 C747 1.391 . S
C747 H735 0.950 . S
C747 C743 1.393 . S
C747 C746 1.391 . S
H748 C756 0.950 . S
H749 C761 0.950 . S
H750 C758 0.950 . S
H751 C760 0.950 . S
H752 C762 0.950 . S
H753 C764 0.950 . S
H754 C766 0.950 . S
H755 C767 0.950 . S
C756 H748 0.950 . S
C756 C757 1.386 . S
C756 C758 1.391 . S
C757 C756 1.386 . S
C757 C761 1.393 . S
C758 H750 0.950 . S
C758 C756 1.391 . S
C758 C759 1.400 . S
C759 C758 1.400 . S
C759 C760 1.398 . S
C759 C765 1.491 . S
C760 H751 0.950 . S
C760 C759 1.398 . S
C760 C761 1.391 . S
C761 H749 0.950 . S
C761 C757 1.393 . S
C761 C760 1.391 . S
C762 H752 0.950 . S
C762 C763 1.386 . S
C762 C764 1.391 . S
C763 C762 1.386 . S
C763 C767 1.393 . S
C764 H753 0.950 . S
C764 C762 1.391 . S
C764 C765 1.400 . S
C765 C759 1.491 . S
C765 C764 1.400 . S
C765 C766 1.398 . S
C766 H754 0.950 . S
C766 C765 1.398 . S
C766 C767 1.391 . S
C767 H755 0.950 . S
C767 C763 1.393 . S
C767 C766 1.391 . S
H768 C776 0.950 . S
H769 C781 0.950 . S
H770 C778 0.950 . S
H771 C780 0.950 . S
H772 C782 0.950 . S
H773 C784 0.950 . S
H774 C786 0.950 . S
H775 C787 0.950 . S
C776 H768 0.950 . S
C776 C777 1.386 . S
C776 C778 1.391 . S
C777 C776 1.386 . S
C777 C781 1.393 . S
C778 H770 0.950 . S
C778 C776 1.391 . S
C778 C779 1.400 . S
C779 C778 1.400 . S
C779 C780 1.398 . S
C779 C785 1.491 . S
C780 H771 0.950 . S
C780 C779 1.398 . S
C780 C781 1.391 . S
C781 H769 0.950 . S
C781 C777 1.393 . S
C781 C780 1.391 . S
C782 H772 0.950 . S
C782 C783 1.386 . S
C782 C784 1.391 . S
C783 C782 1.386 . S
C783 C787 1.393 . S
C784 H773 0.950 . S
C784 C782 1.391 . S
C784 C785 1.400 1_554 S
C785 C779 1.491 . S
C785 C784 1.400 1_556 S
C785 C786 1.398 . S
C786 H774 0.950 . S
C786 C785 1.398 . S
C786 C787 1.391 1_556 S
C787 H775 0.950 . S
C787 C783 1.393 . S
C787 C786 1.391 1_554 S
H788 C796 0.950 . S
H789 C801 0.950 . S
H790 C798 0.950 . S
H791 C800 0.950 . S
H792 C802 0.950 . S
H793 C804 0.950 . S
H794 C806 0.950 . S
H795 C807 0.950 . S
C796 H788 0.950 . S
C796 C797 1.386 . S
C796 C798 1.391 . S
C797 C796 1.386 . S
C797 C801 1.393 . S
C798 H790 0.950 . S
C798 C796 1.391 . S
C798 C799 1.400 . S
C799 C798 1.400 . S
C799 C800 1.398 . S
C799 C805 1.491 . S
C800 H791 0.950 . S
C800 C799 1.398 . S
C800 C801 1.391 . S
C801 H789 0.950 . S
C801 C797 1.393 . S
C801 C800 1.391 . S
C802 H792 0.950 . S
C802 C803 1.386 . S
C802 C804 1.391 1_554 S
C803 C802 1.386 . S
C803 C807 1.393 . S
C804 H793 0.950 . S
C804 C802 1.391 1_556 S
C804 C805 1.400 . S
C805 C799 1.491 . S
C805 C804 1.400 . S
C805 C806 1.398 1_556 S
C806 H794 0.950 . S
C806 C805 1.398 1_554 S
C806 C807 1.391 . S
C807 H795 0.950 . S
C807 C803 1.393 . S
C807 C806 1.391 . S
H808 C816 0.950 . S
H809 C821 0.950 . S
H810 C818 0.950 . S
H811 C820 0.950 . S
H812 C822 0.950 . S
H813 C824 0.950 . S
H814 C826 0.950 . S
H815 C827 0.950 . S
C816 H808 0.950 . S
C816 C817 1.386 . S
C816 C818 1.391 . S
C817 C816 1.386 . S
C817 C821 1.393 . S
C818 H810 0.950 . S
C818 C816 1.391 . S
C818 C819 1.400 . S
C819 C818 1.400 . S
C819 C820 1.398 . S
C819 C825 1.491 . S
C820 H811 0.950 . S
C820 C819 1.398 . S
C820 C821 1.391 . S
C821 H809 0.950 . S
C821 C817 1.393 . S
C821 C820 1.391 . S
C822 H812 0.950 . S
C822 C823 1.386 . S
C822 C824 1.391 . S
C823 C822 1.386 . S
C823 C827 1.393 . S
C824 H813 0.950 . S
C824 C822 1.391 . S
C824 C825 1.400 . S
C825 C819 1.491 . S
C825 C824 1.400 . S
C825 C826 1.398 . S
C826 H814 0.950 . S
C826 C825 1.398 . S
C826 C827 1.391 . S
C827 H815 0.950 . S
C827 C823 1.393 . S
C827 C826 1.391 . S
H828 C836 0.950 . S
H829 C841 0.950 . S
H830 C838 0.950 . S
H831 C840 0.950 . S
H832 C842 0.950 . S
H833 C844 0.950 . S
H834 C846 0.950 . S
H835 C847 0.950 . S
C836 H828 0.950 . S
C836 C837 1.386 . S
C836 C838 1.391 . S
C837 C836 1.386 . S
C837 C841 1.393 . S
C838 H830 0.950 . S
C838 C836 1.391 . S
C838 C839 1.400 . S
C839 C838 1.400 . S
C839 C840 1.398 . S
C839 C845 1.491 . S
C840 H831 0.950 . S
C840 C839 1.398 . S
C840 C841 1.391 . S
C841 H829 0.950 . S
C841 C837 1.393 . S
C841 C840 1.391 . S
C842 H832 0.950 . S
C842 C843 1.386 . S
C842 C844 1.391 . S
C843 C842 1.386 . S
C843 C847 1.393 . S
C844 H833 0.950 . S
C844 C842 1.391 . S
C844 C845 1.400 . S
C845 C839 1.491 . S
C845 C844 1.400 . S
C845 C846 1.398 . S
C846 H834 0.950 . S
C846 C845 1.398 . S
C846 C847 1.391 . S
C847 H835 0.950 . S
C847 C843 1.393 . S
C847 C846 1.391 . S
H848 C856 0.950 . S
H849 C861 0.950 . S
H850 C858 0.950 . S
H851 C860 0.950 1_565 S
H852 C862 0.950 . S
H853 C864 0.950 . S
H854 C866 0.950 1_545 S
H855 C867 0.950 . S
C856 H848 0.950 . S
C856 C857 1.386 . S
C856 C858 1.391 . S
C857 C856 1.386 . S
C857 C861 1.393 . S
C858 H850 0.950 . S
C858 C856 1.391 . S
C858 C859 1.400 . S
C859 C858 1.400 . S
C859 C860 1.398 . S
C859 C865 1.491 1_545 S
C860 H851 0.950 1_545 S
C860 C859 1.398 . S
C860 C861 1.391 . S
C861 H849 0.950 . S
C861 C857 1.393 . S
C861 C860 1.391 . S
C862 H852 0.950 . S
C862 C863 1.386 . S
C862 C864 1.391 . S
C863 C862 1.386 . S
C863 C867 1.393 . S
C864 H853 0.950 . S
C864 C862 1.391 . S
C864 C865 1.400 . S
C865 C859 1.491 1_565 S
C865 C864 1.400 . S
C865 C866 1.398 . S
C866 H854 0.950 1_565 S
C866 C865 1.398 . S
C866 C867 1.391 . S
C867 H855 0.950 . S
C867 C863 1.393 . S
C867 C866 1.391 . S
H868 C876 0.950 . S
H869 C881 0.950 . S
H870 C878 0.950 . S
H871 C880 0.950 1_545 S
H872 C882 0.950 . S
H873 C884 0.950 . S
H874 C886 0.950 1_565 S
H875 C887 0.950 . S
C876 H868 0.950 . S
C876 C877 1.386 . S
C876 C878 1.391 . S
C877 C876 1.386 . S
C877 C881 1.393 . S
C878 H870 0.950 . S
C878 C876 1.391 . S
C878 C879 1.400 . S
C879 C878 1.400 . S
C879 C880 1.398 . S
C879 C885 1.491 1_565 S
C880 H871 0.950 1_565 S
C880 C879 1.398 . S
C880 C881 1.391 . S
C881 H869 0.950 . S
C881 C877 1.393 . S
C881 C880 1.391 . S
C882 H872 0.950 . S
C882 C883 1.386 . S
C882 C884 1.391 . S
C883 C882 1.386 . S
C883 C887 1.393 . S
C884 H873 0.950 . S
C884 C882 1.391 . S
C884 C885 1.400 . S
C885 C879 1.491 1_545 S
C885 C884 1.400 . S
C885 C886 1.398 . S
C886 H874 0.950 1_545 S
C886 C885 1.398 . S
C886 C887 1.391 . S
C887 H875 0.950 . S
C887 C883 1.393 . S
C887 C886 1.391 . S
H888 C896 0.950 . S
H889 C901 0.950 . S
H890 C898 0.950 . S
H891 C900 0.950 1_565 S
H892 C902 0.950 . S
H893 C904 0.950 . S
H894 C906 0.950 1_545 S
H895 C907 0.950 . S
C896 H888 0.950 . S
C896 C897 1.386 . S
C896 C898 1.391 . S
C897 C896 1.386 . S
C897 C901 1.393 . S
C898 H890 0.950 . S
C898 C896 1.391 . S
C898 C899 1.400 . S
C899 C898 1.400 . S
C899 C900 1.398 . S
C899 C905 1.491 1_545 S
C900 H891 0.950 1_545 S
C900 C899 1.398 . S
C900 C901 1.391 . S
C901 H889 0.950 . S
C901 C897 1.393 . S
C901 C900 1.391 . S
C902 H892 0.950 . S
C902 C903 1.386 . S
C902 C904 1.391 . S
C903 C902 1.386 . S
C903 C907 1.393 . S
C904 H893 0.950 . S
C904 C902 1.391 . S
C904 C905 1.400 . S
C905 C899 1.491 1_565 S
C905 C904 1.400 . S
C905 C906 1.398 . S
C906 H894 0.950 1_565 S
C906 C905 1.398 . S
C906 C907 1.391 . S
C907 H895 0.950 . S
C907 C903 1.393 . S
C907 C906 1.391 . S
H908 C916 0.950 . S
H909 C921 0.950 . S
H910 C918 0.950 1_545 S
H911 C920 0.950 . S
H912 C922 0.950 . S
H913 C924 0.950 1_565 S
H914 C926 0.950 . S
H915 C927 0.950 . S
C916 H908 0.950 . S
C916 C917 1.386 . S
C916 C918 1.391 . S
C917 C916 1.386 . S
C917 C921 1.393 . S
C918 H910 0.950 1_565 S
C918 C916 1.391 . S
C918 C919 1.400 . S
C919 C918 1.400 . S
C919 C920 1.398 . S
C919 C925 1.491 1_565 S
C920 H911 0.950 . S
C920 C919 1.398 . S
C920 C921 1.391 . S
C921 H909 0.950 . S
C921 C917 1.393 . S
C921 C920 1.391 . S
C922 H912 0.950 . S
C922 C923 1.386 . S
C922 C924 1.391 . S
C923 C922 1.386 . S
C923 C927 1.393 . S
C924 H913 0.950 1_545 S
C924 C922 1.391 . S
C924 C925 1.400 . S
C925 C919 1.491 1_545 S
C925 C924 1.400 . S
C925 C926 1.398 . S
C926 H914 0.950 . S
C926 C925 1.398 . S
C926 C927 1.391 . S
C927 H915 0.950 . S
C927 C923 1.393 . S
C927 C926 1.391 . S
H928 C936 0.950 . S
H929 C941 0.950 . S
H930 C938 0.950 . S
H931 C940 0.950 . S
H932 C942 0.950 . S
H933 C944 0.950 . S
H934 C946 0.950 . S
H935 C947 0.950 . S
C936 H928 0.950 . S
C936 C937 1.386 . S
C936 C938 1.391 . S
C937 C936 1.386 . S
C937 C941 1.393 . S
C938 H930 0.950 . S
C938 C936 1.391 . S
C938 C939 1.400 . S
C939 C938 1.400 . S
C939 C940 1.398 . S
C939 C945 1.491 . S
C940 H931 0.950 . S
C940 C939 1.398 . S
C940 C941 1.391 . S
C941 H929 0.950 . S
C941 C937 1.393 . S
C941 C940 1.391 . S
C942 H932 0.950 . S
C942 C943 1.386 . S
C942 C944 1.391 . S
C943 C942 1.386 . S
C943 C947 1.393 . S
C944 H933 0.950 . S
C944 C942 1.391 . S
C944 C945 1.400 . S
C945 C939 1.491 . S
C945 C944 1.400 . S
C945 C946 1.398 . S
C946 H934 0.950 . S
C946 C945 1.398 . S
C946 C947 1.391 . S
C947 H935 0.950 . S
C947 C943 1.393 . S
C947 C946 1.391 . S
H948 C956 0.950 . S
H949 C961 0.950 . S
H950 C958 0.950 . S
H951 C960 0.950 . S
H952 C962 0.950 . S
H953 C964 0.950 . S
H954 C966 0.950 . S
H955 C967 0.950 . S
C956 H948 0.950 . S
C956 C957 1.386 . S
C956 C958 1.391 . S
C957 C956 1.386 . S
C957 C961 1.393 . S
C958 H950 0.950 . S
C958 C956 1.391 . S
C958 C959 1.400 . S
C959 C958 1.400 . S
C959 C960 1.398 . S
C959 C965 1.491 . S
C960 H951 0.950 . S
C960 C959 1.398 . S
C960 C961 1.391 . S
C961 H949 0.950 . S
C961 C957 1.393 . S
C961 C960 1.391 . S
C962 H952 0.950 . S
C962 C963 1.386 . S
C962 C964 1.391 . S
C963 C962 1.386 . S
C963 C967 1.393 . S
C964 H953 0.950 . S
C964 C962 1.391 . S
C964 C965 1.400 . S
C965 C959 1.491 . S
C965 C964 1.400 . S
C965 C966 1.398 . S
C966 H954 0.950 . S
C966 C965 1.398 . S
C966 C967 1.391 . S
C967 H955 0.950 . S
C967 C963 1.393 . S
C967 C966 1.391 . S
H968 C976 0.950 . S
H969 C981 0.950 . S
H970 C978 0.950 . S
H971 C980 0.950 . S
H972 C982 0.950 . S
H973 C984 0.950 . S
H974 C986 0.950 . S
H975 C987 0.950 . S
C976 H968 0.950 . S
C976 C977 1.386 . S
C976 C978 1.391 . S
C977 C976 1.386 . S
C977 C981 1.393 . S
C978 H970 0.950 . S
C978 C976 1.391 . S
C978 C979 1.400 . S
C979 C978 1.400 . S
C979 C980 1.398 . S
C979 C985 1.491 . S
C980 H971 0.950 . S
C980 C979 1.398 . S
C980 C981 1.391 . S
C981 H969 0.950 . S
C981 C977 1.393 . S
C981 C980 1.391 . S
C982 H972 0.950 . S
C982 C983 1.386 . S
C982 C984 1.391 . S
C983 C982 1.386 . S
C983 C987 1.393 . S
C984 H973 0.950 . S
C984 C982 1.391 . S
C984 C985 1.400 . S
C985 C979 1.491 . S
C985 C984 1.400 . S
C985 C986 1.398 . S
C986 H974 0.950 . S
C986 C985 1.398 . S
C986 C987 1.391 . S
C987 H975 0.950 . S
C987 C983 1.393 . S
C987 C986 1.391 . S
H988 C996 0.950 . S
H989 C1001 0.950 . S
H990 C998 0.950 . S
H991 C1000 0.950 . S
H992 C1002 0.950 . S
H993 C1004 0.950 . S
H994 C1006 0.950 . S
H995 C1007 0.950 . S
C996 H988 0.950 . S
C996 C997 1.386 . S
C996 C998 1.391 . S
C997 C996 1.386 . S
C997 C1001 1.393 . S
C998 H990 0.950 . S
C998 C996 1.391 . S
C998 C999 1.400 . S
C999 C998 1.400 . S
C999 C1000 1.398 . S
C999 C1005 1.491 . S
C1000 H991 0.950 . S
C1000 C999 1.398 . S
C1000 C1001 1.391 . S
C1001 H989 0.950 . S
C1001 C997 1.393 . S
C1001 C1000 1.391 . S
C1002 H992 0.950 . S
C1002 C1003 1.386 . S
C1002 C1004 1.391 . S
C1003 C1002 1.386 . S
C1003 C1007 1.393 . S
C1004 H993 0.950 . S
C1004 C1002 1.391 . S
C1004 C1005 1.400 . S
C1005 C999 1.491 . S
C1005 C1004 1.400 . S
C1005 C1006 1.398 . S
C1006 H994 0.950 . S
C1006 C1005 1.398 . S
C1006 C1007 1.391 . S
C1007 H995 0.950 . S
C1007 C1003 1.393 . S
C1007 C1006 1.391 . S
H1008 C1016 0.950 . S
H1009 C1021 0.950 . S
H1010 C1018 0.950 . S
H1011 C1020 0.950 . S
H1012 C1022 0.950 . S
H1013 C1024 0.950 . S
H1014 C1026 0.950 . S
H1015 C1027 0.950 . S
C1016 H1008 0.950 . S
C1016 C1017 1.386 1_455 S
C1016 C1018 1.391 . S
C1017 C1016 1.386 1_655 S
C1017 C1021 1.393 . S
C1018 H1010 0.950 . S
C1018 C1016 1.391 . S
C1018 C1019 1.400 1_455 S
C1019 C1018 1.400 1_655 S
C1019 C1020 1.398 . S
C1019 C1025 1.491 1_655 S
C1020 H1011 0.950 . S
C1020 C1019 1.398 . S
C1020 C1021 1.391 . S
C1021 H1009 0.950 . S
C1021 C1017 1.393 . S
C1021 C1020 1.391 . S
C1022 H1012 0.950 . S
C1022 C1023 1.386 1_655 S
C1022 C1024 1.391 . S
C1023 C1022 1.386 1_455 S
C1023 C1027 1.393 . S
C1024 H1013 0.950 . S
C1024 C1022 1.391 . S
C1024 C1025 1.400 1_655 S
C1025 C1019 1.491 1_455 S
C1025 C1024 1.400 1_455 S
C1025 C1026 1.398 . S
C1026 H1014 0.950 . S
C1026 C1025 1.398 . S
C1026 C1027 1.391 . S
C1027 H1015 0.950 . S
C1027 C1023 1.393 . S
C1027 C1026 1.391 . S
H1028 C1036 0.950 . S
H1029 C1041 0.950 . S
H1030 C1038 0.950 . S
H1031 C1040 0.950 . S
H1032 C1042 0.950 . S
H1033 C1044 0.950 . S
H1034 C1046 0.950 . S
H1035 C1047 0.950 . S
C1036 H1028 0.950 . S
C1036 C1037 1.386 . S
C1036 C1038 1.391 . S
C1037 C1036 1.386 . S
C1037 C1041 1.393 . S
C1038 H1030 0.950 . S
C1038 C1036 1.391 . S
C1038 C1039 1.400 . S
C1039 C1038 1.400 . S
C1039 C1040 1.398 . S
C1039 C1045 1.491 . S
C1040 H1031 0.950 . S
C1040 C1039 1.398 . S
C1040 C1041 1.391 . S
C1041 H1029 0.950 . S
C1041 C1037 1.393 . S
C1041 C1040 1.391 . S
C1042 H1032 0.950 . S
C1042 C1043 1.386 . S
C1042 C1044 1.391 . S
C1043 C1042 1.386 . S
C1043 C1047 1.393 . S
C1044 H1033 0.950 . S
C1044 C1042 1.391 . S
C1044 C1045 1.400 . S
C1045 C1039 1.491 . S
C1045 C1044 1.400 . S
C1045 C1046 1.398 . S
C1046 H1034 0.950 . S
C1046 C1045 1.398 . S
C1046 C1047 1.391 . S
C1047 H1035 0.950 . S
C1047 C1043 1.393 . S
C1047 C1046 1.391 . S
H1048 C1056 0.950 . S
H1049 C1061 0.950 . S
H1050 C1058 0.950 . S
H1051 C1060 0.950 . S
H1052 C1062 0.950 . S
H1053 C1064 0.950 . S
H1054 C1066 0.950 . S
H1055 C1067 0.950 . S
C1056 H1048 0.950 . S
C1056 C1057 1.386 . S
C1056 C1058 1.391 . S
C1057 C1056 1.386 . S
C1057 C1061 1.393 . S
C1058 H1050 0.950 . S
C1058 C1056 1.391 . S
C1058 C1059 1.400 . S
C1059 C1058 1.400 . S
C1059 C1060 1.398 . S
C1059 C1065 1.491 . S
C1060 H1051 0.950 . S
C1060 C1059 1.398 . S
C1060 C1061 1.391 . S
C1061 H1049 0.950 . S
C1061 C1057 1.393 . S
C1061 C1060 1.391 . S
C1062 H1052 0.950 . S
C1062 C1063 1.386 . S
C1062 C1064 1.391 . S
C1063 C1062 1.386 . S
C1063 C1067 1.393 . S
C1064 H1053 0.950 . S
C1064 C1062 1.391 . S
C1064 C1065 1.400 . S
C1065 C1059 1.491 . S
C1065 C1064 1.400 . S
C1065 C1066 1.398 . S
C1066 H1054 0.950 . S
C1066 C1065 1.398 . S
C1066 C1067 1.391 . S
C1067 H1055 0.950 . S
C1067 C1063 1.393 . S
C1067 C1066 1.391 . S
H1068 C1076 0.950 . S
H1069 C1081 0.950 . S
H1070 C1078 0.950 . S
H1071 C1080 0.950 . S
H1072 C1082 0.950 . S
H1073 C1084 0.950 . S
H1074 C1086 0.950 . S
H1075 C1087 0.950 . S
C1076 H1068 0.950 . S
C1076 C1077 1.386 1_655 S
C1076 C1078 1.391 . S
C1077 C1076 1.386 1_455 S
C1077 C1081 1.393 . S
C1078 H1070 0.950 . S
C1078 C1076 1.391 . S
C1078 C1079 1.400 1_655 S
C1079 C1078 1.400 1_455 S
C1079 C1080 1.398 . S
C1079 C1085 1.490 1_455 S
C1080 H1071 0.950 . S
C1080 C1079 1.398 . S
C1080 C1081 1.391 . S
C1081 H1069 0.950 . S
C1081 C1077 1.393 . S
C1081 C1080 1.391 . S
C1082 H1072 0.950 . S
C1082 C1083 1.386 1_455 S
C1082 C1084 1.391 . S
C1083 C1082 1.386 1_655 S
C1083 C1087 1.393 . S
C1084 H1073 0.950 . S
C1084 C1082 1.391 . S
C1084 C1085 1.387 1_455 S
C1085 C1079 1.490 1_655 S
C1085 C1084 1.387 1_655 S
C1085 C1086 1.413 . S
C1086 H1074 0.950 . S
C1086 C1085 1.413 . S
C1086 C1087 1.391 . S
C1087 H1075 0.950 . S
C1087 C1083 1.393 . S
C1087 C1086 1.391 . S
H1088 C1096 0.950 . S
H1089 C1101 0.950 . S
H1090 C1098 0.950 . S
H1091 C1100 0.950 . S
H1092 C1102 0.950 . S
H1093 C1104 0.950 . S
H1094 C1106 0.950 . S
H1095 C1107 0.950 . S
C1096 H1088 0.950 . S
C1096 C1097 1.386 1_455 S
C1096 C1098 1.391 . S
C1097 C1096 1.386 1_655 S
C1097 C1101 1.393 . S
C1098 H1090 0.950 . S
C1098 C1096 1.391 . S
C1098 C1099 1.400 1_455 S
C1099 C1098 1.400 1_655 S
C1099 C1100 1.398 . S
C1099 C1105 1.491 1_655 S
C1100 H1091 0.950 . S
C1100 C1099 1.398 . S
C1100 C1101 1.391 . S
C1101 H1089 0.950 . S
C1101 C1097 1.393 . S
C1101 C1100 1.391 . S
C1102 H1092 0.950 . S
C1102 C1103 1.386 1_655 S
C1102 C1104 1.391 . S
C1103 C1102 1.386 1_455 S
C1103 C1107 1.393 . S
C1104 H1093 0.950 . S
C1104 C1102 1.391 . S
C1104 C1105 1.400 1_655 S
C1105 C1099 1.491 1_455 S
C1105 C1104 1.400 1_455 S
C1105 C1106 1.398 . S
C1106 H1094 0.950 . S
C1106 C1105 1.398 . S
C1106 C1107 1.391 . S
C1107 H1095 0.950 . S
C1107 C1103 1.393 . S
C1107 C1106 1.391 . S
H1108 C1116 0.950 . S
H1109 C1121 0.950 . S
H1110 C1118 0.950 . S
H1111 C1120 0.950 . S
H1112 C1122 0.950 . S
H1113 C1124 0.950 . S
H1114 C1126 0.950 . S
H1115 C1127 0.950 . S
C1116 H1108 0.950 . S
C1116 C1117 1.386 . S
C1116 C1118 1.391 . S
C1117 C1116 1.386 . S
C1117 C1121 1.393 . S
C1118 H1110 0.950 . S
C1118 C1116 1.391 . S
C1118 C1119 1.400 . S
C1119 C1118 1.400 . S
C1119 C1120 1.398 . S
C1119 C1125 1.491 . S
C1120 H1111 0.950 . S
C1120 C1119 1.398 . S
C1120 C1121 1.391 . S
C1121 H1109 0.950 . S
C1121 C1117 1.393 . S
C1121 C1120 1.391 . S
C1122 H1112 0.950 . S
C1122 C1123 1.386 . S
C1122 C1124 1.391 . S
C1123 C1122 1.386 . S
C1123 C1127 1.393 . S
C1124 H1113 0.950 . S
C1124 C1122 1.391 . S
C1124 C1125 1.400 . S
C1125 C1119 1.491 . S
C1125 C1124 1.400 . S
C1125 C1126 1.398 . S
C1126 H1114 0.950 . S
C1126 C1125 1.398 . S
C1126 C1127 1.391 . S
C1127 H1115 0.950 . S
C1127 C1123 1.393 . S
C1127 C1126 1.391 . S
H1128 C1136 0.950 . S
H1129 C1141 0.950 . S
H1130 C1138 0.950 . S
H1131 C1140 0.950 . S
H1132 C1142 0.950 . S
H1133 C1144 0.950 . S
H1134 C1146 0.950 . S
H1135 C1147 0.950 . S
C1136 H1128 0.950 . S
C1136 C1137 1.386 . S
C1136 C1138 1.391 . S
C1137 C1136 1.386 . S
C1137 C1141 1.393 . S
C1138 H1130 0.950 . S
C1138 C1136 1.391 . S
C1138 C1139 1.400 . S
C1139 C1138 1.400 . S
C1139 C1140 1.398 . S
C1139 C1145 1.491 . S
C1140 H1131 0.950 . S
C1140 C1139 1.398 . S
C1140 C1141 1.391 . S
C1141 H1129 0.950 . S
C1141 C1137 1.393 . S
C1141 C1140 1.391 . S
C1142 H1132 0.950 . S
C1142 C1143 1.386 . S
C1142 C1144 1.391 . S
C1143 C1142 1.386 . S
C1143 C1147 1.393 . S
C1144 H1133 0.950 . S
C1144 C1142 1.391 . S
C1144 C1145 1.400 . S
C1145 C1139 1.491 . S
C1145 C1144 1.400 . S
C1145 C1146 1.398 . S
C1146 H1134 0.950 . S
C1146 C1145 1.398 . S
C1146 C1147 1.391 . S
C1147 H1135 0.950 . S
C1147 C1143 1.393 . S
C1147 C1146 1.391 . S
H1148 C1156 0.950 . S
H1149 C1161 0.950 . S
H1150 C1158 0.950 . S
H1151 C1160 0.950 . S
H1152 C1162 0.950 . S
H1153 C1164 0.950 . S
H1154 C1166 0.950 . S
H1155 C1167 0.950 . S
C1156 H1148 0.950 . S
C1156 C1157 1.386 1_455 S
C1156 C1158 1.391 . S
C1157 C1156 1.386 1_655 S
C1157 C1161 1.393 . S
C1158 H1150 0.950 . S
C1158 C1156 1.391 . S
C1158 C1159 1.400 1_455 S
C1159 C1158 1.400 1_655 S
C1159 C1160 1.398 . S
C1159 C1165 1.491 1_655 S
C1160 H1151 0.950 . S
C1160 C1159 1.398 . S
C1160 C1161 1.391 . S
C1161 H1149 0.950 . S
C1161 C1157 1.393 . S
C1161 C1160 1.391 . S
C1162 H1152 0.950 . S
C1162 C1163 1.386 1_655 S
C1162 C1164 1.391 . S
C1163 C1162 1.386 1_455 S
C1163 C1167 1.393 . S
C1164 H1153 0.950 . S
C1164 C1162 1.391 . S
C1164 C1165 1.400 1_655 S
C1165 C1159 1.491 1_455 S
C1165 C1164 1.400 1_455 S
C1165 C1166 1.398 . S
C1166 H1154 0.950 . S
C1166 C1165 1.398 . S
C1166 C1167 1.391 . S
C1167 H1155 0.950 . S
C1167 C1163 1.393 . S
C1167 C1166 1.391 . S
H1168 C1176 0.950 1_655 S
H1169 C1181 0.950 . S
H1170 C1178 0.950 . S
H1171 C1180 0.950 . S
H1172 C1182 0.950 1_455 S
H1173 C1184 0.950 . S
H1174 C1186 0.950 . S
H1175 C1187 0.950 . S
C1176 H1168 0.950 1_455 S
C1176 C1177 1.386 . S
C1176 C1178 1.391 1_455 S
C1177 C1176 1.386 . S
C1177 C1181 1.393 . S
C1178 H1170 0.950 . S
C1178 C1176 1.391 1_655 S
C1178 C1179 1.400 1_655 S
C1179 C1178 1.400 1_455 S
C1179 C1180 1.398 . S
C1179 C1185 1.491 1_455 S
C1180 H1171 0.950 . S
C1180 C1179 1.398 . S
C1180 C1181 1.391 . S
C1181 H1169 0.950 . S
C1181 C1177 1.393 . S
C1181 C1180 1.391 . S
C1182 H1172 0.950 1_655 S
C1182 C1183 1.386 . S
C1182 C1184 1.391 1_655 S
C1183 C1182 1.386 . S
C1183 C1187 1.393 . S
C1184 H1173 0.950 . S
C1184 C1182 1.391 1_455 S
C1184 C1185 1.400 1_455 S
C1185 C1179 1.491 1_655 S
C1185 C1184 1.400 1_655 S
C1185 C1186 1.398 . S
C1186 H1174 0.950 . S
C1186 C1185 1.398 . S
C1186 C1187 1.391 . S
C1187 H1175 0.950 . S
C1187 C1183 1.393 . S
C1187 C1186 1.391 . S
H1188 C1196 0.950 . S
H1189 C1201 0.950 . S
H1190 C1198 0.950 . S
H1191 C1200 0.950 . S
H1192 C1202 0.950 . S
H1193 C1204 0.950 . S
H1194 C1206 0.950 . S
H1195 C1207 0.950 . S
C1196 H1188 0.950 . S
C1196 C1197 1.386 . S
C1196 C1198 1.391 . S
C1197 C1196 1.386 . S
C1197 C1201 1.393 . S
C1198 H1190 0.950 . S
C1198 C1196 1.391 . S
C1198 C1199 1.400 . S
C1199 C1198 1.400 . S
C1199 C1200 1.398 . S
C1199 C1205 1.491 . S
C1200 H1191 0.950 . S
C1200 C1199 1.398 . S
C1200 C1201 1.391 . S
C1201 H1189 0.950 . S
C1201 C1197 1.393 . S
C1201 C1200 1.391 . S
C1202 H1192 0.950 . S
C1202 C1203 1.386 . S
C1202 C1204 1.391 . S
C1203 C1202 1.386 . S
C1203 C1207 1.393 . S
C1204 H1193 0.950 . S
C1204 C1202 1.391 . S
C1204 C1205 1.400 . S
C1205 C1199 1.491 . S
C1205 C1204 1.400 . S
C1205 C1206 1.398 . S
C1206 H1194 0.950 . S
C1206 C1205 1.398 . S
C1206 C1207 1.391 . S
C1207 H1195 0.950 . S
C1207 C1203 1.393 . S
C1207 C1206 1.391 . S
H1208 C1216 0.950 . S
H1209 C1221 0.950 1_455 S
H1210 C1218 0.950 . S
H1211 C1220 0.950 . S
H1212 C1222 0.950 . S
H1213 C1224 0.950 . S
H1214 C1226 0.950 . S
H1215 C1227 0.948 1_655 S
C1216 H1208 0.950 . S
C1216 C1217 1.386 . S
C1216 C1218 1.391 . S
C1217 C1216 1.386 . S
C1217 C1221 1.393 . S
C1218 H1210 0.950 . S
C1218 C1216 1.391 . S
C1218 C1219 1.400 . S
C1219 C1218 1.400 . S
C1219 C1220 1.398 1_655 S
C1219 C1225 1.491 1_655 S
C1220 H1211 0.950 . S
C1220 C1219 1.398 1_455 S
C1220 C1221 1.391 1_455 S
C1221 H1209 0.950 1_655 S
C1221 C1217 1.393 . S
C1221 C1220 1.391 1_655 S
C1222 H1212 0.950 . S
C1222 C1223 1.386 . S
C1222 C1224 1.391 . S
C1223 C1222 1.386 . S
C1223 C1227 1.396 . S
C1224 H1213 0.950 . S
C1224 C1222 1.391 . S
C1224 C1225 1.400 . S
C1225 C1219 1.491 1_455 S
C1225 C1224 1.400 . S
C1225 C1226 1.398 1_455 S
C1226 H1214 0.950 . S
C1226 C1225 1.398 1_655 S
C1226 C1227 1.389 1_655 S
C1227 H1215 0.948 1_455 S
C1227 C1223 1.396 . S
C1227 C1226 1.389 1_455 S
H1228 C1236 0.950 . S
H1229 C1241 0.950 . S
H1230 C1238 0.950 . S
H1231 C1240 0.950 . S
H1232 C1242 0.950 . S
H1233 C1244 0.950 . S
H1234 C1246 0.950 . S
H1235 C1247 0.950 . S
C1236 H1228 0.950 . S
C1236 C1237 1.386 . S
C1236 C1238 1.391 . S
C1237 C1236 1.386 . S
C1237 C1241 1.393 . S
C1238 H1230 0.950 . S
C1238 C1236 1.391 . S
C1238 C1239 1.400 . S
C1239 C1238 1.400 . S
C1239 C1240 1.398 . S
C1239 C1245 1.491 . S
C1240 H1231 0.950 . S
C1240 C1239 1.398 . S
C1240 C1241 1.391 . S
C1241 H1229 0.950 . S
C1241 C1237 1.393 . S
C1241 C1240 1.391 . S
C1242 H1232 0.950 . S
C1242 C1243 1.386 . S
C1242 C1244 1.391 . S
C1243 C1242 1.386 . S
C1243 C1247 1.393 . S
C1244 H1233 0.950 . S
C1244 C1242 1.391 . S
C1244 C1245 1.400 . S
C1245 C1239 1.491 . S
C1245 C1244 1.400 . S
C1245 C1246 1.398 . S
C1246 H1234 0.950 . S
C1246 C1245 1.398 . S
C1246 C1247 1.391 . S
C1247 H1235 0.950 . S
C1247 C1243 1.393 . S
C1247 C1246 1.391 . S
H1248 C1256 0.950 . S
H1249 C1261 0.950 . S
H1250 C1258 0.950 . S
H1251 C1260 0.950 . S
H1252 C1262 0.950 . S
H1253 C1264 0.950 . S
H1254 C1266 0.950 . S
H1255 C1267 0.950 . S
C1256 H1248 0.950 . S
C1256 C1257 1.386 . S
C1256 C1258 1.391 . S
C1257 C1256 1.386 . S
C1257 C1261 1.393 . S
C1258 H1250 0.950 . S
C1258 C1256 1.391 . S
C1258 C1259 1.400 . S
C1259 C1258 1.400 . S
C1259 C1260 1.398 . S
C1259 C1265 1.491 . S
C1260 H1251 0.950 . S
C1260 C1259 1.398 . S
C1260 C1261 1.391 . S
C1261 H1249 0.950 . S
C1261 C1257 1.393 . S
C1261 C1260 1.391 . S
C1262 H1252 0.950 . S
C1262 C1263 1.386 . S
C1262 C1264 1.391 . S
C1263 C1262 1.386 . S
C1263 C1267 1.393 . S
C1264 H1253 0.950 . S
C1264 C1262 1.391 . S
C1264 C1265 1.400 . S
C1265 C1259 1.491 . S
C1265 C1264 1.400 . S
C1265 C1266 1.398 . S
C1266 H1254 0.950 . S
C1266 C1265 1.398 . S
C1266 C1267 1.391 . S
C1267 H1255 0.950 . S
C1267 C1263 1.393 . S
C1267 C1266 1.391 . S
H1268 C1276 0.943 1_655 S
H1269 C1281 0.950 . S
H1270 C1278 0.950 . S
H1271 C1280 0.950 . S
H1272 C1282 0.950 1_455 S
H1273 C1284 0.950 . S
H1274 C1286 0.950 . S
H1275 C1287 0.950 . S
C1276 H1268 0.943 1_455 S
C1276 C1277 1.386 . S
C1276 C1278 1.391 1_455 S
C1277 C1276 1.386 . S
C1277 C1281 1.393 . S
C1278 H1270 0.950 . S
C1278 C1276 1.391 1_655 S
C1278 C1279 1.400 1_655 S
C1279 C1278 1.400 1_455 S
C1279 C1280 1.398 . S
C1279 C1285 1.491 1_455 S
C1280 H1271 0.950 . S
C1280 C1279 1.398 . S
C1280 C1281 1.391 . S
C1281 H1269 0.950 . S
C1281 C1277 1.393 . S
C1281 C1280 1.391 . S
C1282 H1272 0.950 1_655 S
C1282 C1283 1.386 . S
C1282 C1284 1.391 1_655 S
C1283 C1282 1.386 . S
C1283 C1287 1.393 . S
C1284 H1273 0.950 . S
C1284 C1282 1.391 1_455 S
C1284 C1285 1.400 1_455 S
C1285 C1279 1.491 1_655 S
C1285 C1284 1.400 1_655 S
C1285 C1286 1.398 . S
C1286 H1274 0.950 . S
C1286 C1285 1.398 . S
C1286 C1287 1.391 . S
C1287 H1275 0.950 . S
C1287 C1283 1.393 . S
C1287 C1286 1.391 . S
H1288 C1296 0.950 . S
H1289 C1301 0.950 . S
H1290 C1298 0.950 . S
H1291 C1300 0.950 . S
H1292 C1302 0.950 . S
H1293 C1304 0.950 . S
H1294 C1306 0.950 . S
H1295 C1307 0.950 . S
C1296 H1288 0.950 . S
C1296 C1297 1.386 . S
C1296 C1298 1.391 . S
C1297 C1296 1.386 . S
C1297 C1301 1.393 . S
C1298 H1290 0.950 . S
C1298 C1296 1.391 . S
C1298 C1299 1.400 . S
C1299 C1298 1.400 . S
C1299 C1300 1.398 . S
C1299 C1305 1.491 . S
C1300 H1291 0.950 . S
C1300 C1299 1.398 . S
C1300 C1301 1.391 . S
C1301 H1289 0.950 . S
C1301 C1297 1.393 . S
C1301 C1300 1.391 . S
C1302 H1292 0.950 . S
C1302 C1303 1.386 . S
C1302 C1304 1.391 . S
C1303 C1302 1.386 . S
C1303 C1307 1.393 . S
C1304 H1293 0.950 . S
C1304 C1302 1.391 . S
C1304 C1305 1.400 . S
C1305 C1299 1.491 . S
C1305 C1304 1.400 . S
C1305 C1306 1.398 . S
C1306 H1294 0.950 . S
C1306 C1305 1.398 . S
C1306 C1307 1.391 . S
C1307 H1295 0.950 . S
C1307 C1303 1.393 . S
C1307 C1306 1.391 . S
H1308 C1316 0.950 . S
H1309 C1321 0.950 1_655 S
H1310 C1318 0.950 . S
H1311 C1320 0.950 . S
H1312 C1322 0.950 . S
H1313 C1324 0.950 . S
H1314 C1326 0.950 . S
H1315 C1327 0.950 1_455 S
C1316 H1308 0.950 . S
C1316 C1317 1.386 . S
C1316 C1318 1.391 . S
C1317 C1316 1.386 . S
C1317 C1321 1.393 . S
C1318 H1310 0.950 . S
C1318 C1316 1.391 . S
C1318 C1319 1.400 . S
C1319 C1318 1.400 . S
C1319 C1320 1.398 1_455 S
C1319 C1325 1.491 1_455 S
C1320 H1311 0.950 . S
C1320 C1319 1.398 1_655 S
C1320 C1321 1.391 1_655 S
C1321 H1309 0.950 1_455 S
C1321 C1317 1.393 . S
C1321 C1320 1.391 1_455 S
C1322 H1312 0.950 . S
C1322 C1323 1.386 . S
C1322 C1324 1.391 . S
C1323 C1322 1.386 . S
C1323 C1327 1.393 . S
C1324 H1313 0.950 . S
C1324 C1322 1.391 . S
C1324 C1325 1.400 . S
C1325 C1319 1.491 1_655 S
C1325 C1324 1.400 . S
C1325 C1326 1.398 1_655 S
C1326 H1314 0.950 . S
C1326 C1325 1.398 1_455 S
C1326 C1327 1.391 1_455 S
C1327 H1315 0.950 1_655 S
C1327 C1323 1.393 . S
C1327 C1326 1.391 1_655 S
C537 C182 0.835 . S
C543 C28 0.846 . S
C557 C149 0.864 . S
C563 C61 0.851 . S
C577 C74 0.886 . S
C583 C248 0.884 . S
C597 C127 0.871 . S
C603 C215 0.871 . S
C617 C140 1.291 . S
C623 C41 1.312 . S
C637 C173 1.300 . S
C643 C8 1.321 . S
C657 C107 1.303 . S
C663 C206 1.281 . S
C677 C239 1.280 . S
C683 C94 1.295 . S
C697 C292 0.842 . S
C703 C446 0.852 . S
C717 C325 0.867 . S
C723 C413 0.862 . S
C737 C338 0.886 . S
C743 C512 0.883 . S
C757 C391 0.848 . S
C763 C479 0.853 . S
C777 C404 1.310 . S
C783 C305 1.321 . S
C797 C437 1.309 . S
C803 C272 1.320 . S
C817 C371 1.304 . S
C823 C470 1.291 . S
C837 C358 1.297 . S
C843 C503 1.283 . S
C857 N5 1.731 . S
C863 N38 1.728 . S
C877 N80 1.748 . S
C883 N104 1.746 . S
C897 N179 1.747 . S
C903 N146 1.739 . S
C917 N245 1.717 . S
C923 N212 1.728 . S
C937 N302 1.732 . S
C943 N269 1.723 . S
C957 N368 1.741 . S
C963 N344 1.744 . S
C977 N410 1.747 . S
C983 N443 1.737 . S
C997 N476 1.726 . S
C1003 N509 1.721 . S
C1017 N311 1.729 . S
C1023 N14 1.738 . S
C1037 N47 1.740 . S
C1043 N278 1.727 . S
C1057 N71 1.742 . S
C1063 N377 1.739 . S
C1077 N335 1.745 . S
C1083 N113 1.741 . S
C1097 N137 1.343 . S
C1103 N434 1.355 . S
C1117 N170 1.350 . S
C1123 N401 1.342 . S
C1137 N203 1.410 . S
C1143 N500 1.399 . S
C1157 N467 1.389 . S
C1163 N236 1.398 . S
C1177 C17 1.519 . S
C1183 C116 1.521 . S
C1197 C50 1.527 . S
C1203 C83 1.517 . S
C1217 C160 1.555 . S
C1223 C259 1.562 . S
C1237 C193 1.556 . S
C1243 C226 1.562 . S
C1257 C380 1.520 . S
C1263 C281 1.524 . S
C1277 C347 1.525 . S
C1283 C314 1.532 . S
C1297 C424 1.553 . S
C1303 C523 1.555 . S
C1317 C457 1.557 . S
C1323 C490 1.563 . S
