# Generated by pormake.
# Topology qtz-e, (6)-cn, num edge types: 1
# Building blocks:
#     Node 0, Type 0, BuildingBlock: CUKXOW_clean_sbu_0, # of connection points: 6
#     Node 1, Type 0, BuildingBlock: CUKXOW_clean_sbu_0, # of connection points: 6
#     Node 2, Type 0, BuildingBlock: CUKXOW_clean_sbu_0, # of connection points: 6
#     Node 3, Type 0, BuildingBlock: CUKXOW_clean_sbu_0, # of connection points: 6
#     Node 4, Type 0, BuildingBlock: CUKXOW_clean_sbu_0, # of connection points: 6
#     Node 5, Type 0, BuildingBlock: CUKXOW_clean_sbu_0, # of connection points: 6
#     Edge 6, Type (0, 0), BuildingBlock: AJUNOK_clean_linker_0, # of connection points: 2
#     Edge 7, Type (0, 0), BuildingBlock: AJUNOK_clean_linker_0, # of connection points: 2
#     Edge 8, Type (0, 0), BuildingBlock: AJUNOK_clean_linker_0, # of connection points: 2
#     Edge 9, Type (0, 0), BuildingBlock: AJUNOK_clean_linker_0, # of connection points: 2
#     Edge 10, Type (0, 0), BuildingBlock: AJUNOK_clean_linker_0, # of connection points: 2
#     Edge 11, Type (0, 0), BuildingBlock: AJUNOK_clean_linker_0, # of connection points: 2
#     Edge 12, Type (0, 0), BuildingBlock: AJUNOK_clean_linker_0, # of connection points: 2
#     Edge 13, Type (0, 0), BuildingBlock: AJUNOK_clean_linker_0, # of connection points: 2
#     Edge 14, Type (0, 0), BuildingBlock: AJUNOK_clean_linker_0, # of connection points: 2
#     Edge 15, Type (0, 0), BuildingBlock: AJUNOK_clean_linker_0, # of connection points: 2
#     Edge 16, Type (0, 0), BuildingBlock: AJUNOK_clean_linker_0, # of connection points: 2
#     Edge 17, Type (0, 0), BuildingBlock: AJUNOK_clean_linker_0, # of connection points: 2
#     Edge 18, Type (0, 0), BuildingBlock: AJUNOK_clean_linker_0, # of connection points: 2
#     Edge 19, Type (0, 0), BuildingBlock: AJUNOK_clean_linker_0, # of connection points: 2
#     Edge 20, Type (0, 0), BuildingBlock: AJUNOK_clean_linker_0, # of connection points: 2
#     Edge 21, Type (0, 0), BuildingBlock: AJUNOK_clean_linker_0, # of connection points: 2
#     Edge 22, Type (0, 0), BuildingBlock: AJUNOK_clean_linker_0, # of connection points: 2
#     Edge 23, Type (0, 0), BuildingBlock: AJUNOK_clean_linker_0, # of connection points: 2
# Relax obj value: 0.108
# Max RMSD: 0.162
# Mean RMSD: 0.162
data_MOF--net-qtz-e--node1-CUKXOW_clean_sbu_0--edge1-AJUNOK_clean_linker_0
_symmetry_space_group_name_H-M    P1
_symmetry_Int_Tables_number       1
_symmetry_cell_setting            triclinic
loop_
_symmetry_equiv_pos_as_xyz
'x, y, z'
_cell_length_a     20.162888
_cell_length_b     20.15801
_cell_length_c     27.501708
_cell_angle_alpha  90.084222
_cell_angle_beta   89.426198
_cell_angle_gamma 119.67944
loop_
_atom_site_label
_atom_site_type_symbol
_atom_site_fract_x
_atom_site_fract_y
_atom_site_fract_z
_atom_type_partial_charge
Tb0 Tb 0.13003 0.32937 0.09399 0.0
C1 C 0.3023 0.38314 0.0808 0.0
Tb2 Tb 0.21855 0.43445 1.00701 0.0
O3 O 0.13601 0.23373 0.05998 0.0
O4 O 0.13478 0.31817 1.01726 0.0
O5 O 0.2474 0.36573 0.11363 0.0
C6 C 0.29687 0.50039 0.92554 0.0
O7 O 0.29493 0.39612 1.03443 0.0
C8 C 0.20889 0.50513 0.08492 0.0
C9 C 0.05877 0.40989 1.02942 0.0
O10 O 0.31718 0.5265 0.96921 0.0
O11 O 0.23283 0.43625 0.92784 0.0
O12 O 0.21821 0.53299 1.04127 0.0
O13 O 0.21323 0.44515 0.08313 0.0
O14 O 0.10731 0.42044 0.9936 0.0
O15 O 0.06146 0.38093 0.07232 0.0
C16 C 0.04616 0.26703 0.17493 0.0
O17 O 0.02034 0.25577 0.13087 0.0
O18 O 0.11944 0.31248 0.17323 0.0
C19 C 0.14298 0.26017 1.01604 0.0
Tb20 Tb 0.76541 0.13935 0.42628 0.0
C21 C 0.88455 0.31296 0.42284 0.0
Tb22 Tb 0.75784 0.24334 0.34593 0.0
O23 O 0.87029 0.15109 0.39212 0.0
O24 O 0.78836 0.15728 0.35058 0.0
O25 O 0.84292 0.25453 0.45215 0.0
C26 C 0.75892 0.31428 0.2641 0.0
O27 O 0.87029 0.31242 0.37595 0.0
C28 C 0.70573 0.25299 0.43269 0.0
C29 C 0.62046 0.07706 0.35673 0.0
O30 O 0.80473 0.28797 0.27321 0.0
O31 O 0.7125 0.29976 0.30061 0.0
O32 O 0.73435 0.30858 0.40124 0.0
O33 O 0.70295 0.19569 0.41286 0.0
O34 O 0.65557 0.13794 0.32818 0.0
O35 O 0.65018 0.06777 0.39756 0.0
C36 C 0.74476 0.05458 0.50567 0.0
O37 O 0.73949 0.03082 0.46104 0.0
O38 O 0.76141 0.12557 0.5052 0.0
C39 C 0.85389 0.16472 0.34908 0.0
Tb40 Tb 0.61439 0.7864 0.75912 0.0
C41 C 0.54795 0.8947 0.74751 0.0
Tb42 Tb 0.50596 0.76052 0.67323 0.0
O43 O 0.70451 0.88994 0.7234 0.0
O44 O 0.62357 0.80014 0.68245 0.0
O45 O 0.57183 0.86255 0.77965 0.0
C46 C 0.43777 0.77086 0.59306 0.0
O47 O 0.53297 0.87208 0.70164 0.0
C48 C 0.43809 0.67854 0.75098 0.0
C49 C 0.54149 0.63278 0.69693 0.0
O50 O 0.5028 0.77208 0.59388 0.0
O51 O 0.41208 0.76422 0.63721 0.0
O52 O 0.41098 0.65978 0.70739 0.0
O53 O 0.49571 0.74463 0.74957 0.0
O54 O 0.52628 0.66628 0.66072 0.0
O55 O 0.57243 0.66834 0.73822 0.0
C56 C 0.68086 0.77213 0.83955 0.0
O57 O 0.69506 0.75945 0.79539 0.0
O58 O 0.63035 0.79408 0.8381 0.0
C59 C 0.67801 0.86756 0.67996 0.0
Tb60 Tb 0.79565 0.62666 0.09453 0.0
C61 C 0.62131 0.55264 0.0776 0.0
Tb62 Tb 0.72325 0.52068 1.00699 0.0
O63 O 0.78988 0.7208 0.05862 0.0
O64 O 0.79897 0.63865 1.01785 0.0
O65 O 0.67367 0.57311 0.11192 0.0
C66 C 0.64373 0.44679 0.92879 0.0
O67 O 0.63903 0.55135 1.0313 0.0
C68 C 0.7373 0.45644 0.08653 0.0
C69 C 0.89109 0.5728 1.02603 0.0
O70 O 0.63075 0.42019 0.97279 0.0
O71 O 0.70215 0.51546 0.92861 0.0
O72 O 0.73849 0.43169 1.04311 0.0
O73 O 0.72169 0.50929 0.0835 0.0
O74 O 0.8389 0.54902 0.9917 0.0
O75 O 0.88525 0.60398 0.06742 0.0
C76 C 0.87254 0.67691 0.17795 0.0
O77 O 0.86764 0.6217 0.15143 0.0
O78 O 0.83361 0.7048 0.15751 0.0
C79 C 0.78727 0.69433 1.01512 0.0
Tb80 Tb 0.14945 0.80448 0.42646 0.0
C81 C 0.05379 0.62657 0.42035 0.0
Tb82 Tb 0.17867 0.71872 0.34205 0.0
O83 O 0.04535 0.79272 0.39273 0.0
O84 O 0.13037 0.79053 0.35078 0.0
O85 O 0.08566 0.68523 0.45078 0.0
C86 C 0.17305 0.64332 0.26087 0.0
O87 O 0.06993 0.63416 0.37318 0.0
C88 C 0.26533 0.74529 0.41916 0.0
C89 C 0.2959 0.88737 0.35636 0.0
O90 O 0.17689 0.62171 0.3047 0.0
O91 O 0.17236 0.70727 0.26286 0.0
O92 O 0.28416 0.73408 0.37585 0.0
O93 O 0.19776 0.73263 0.41787 0.0
O94 O 0.26301 0.83348 0.32333 0.0
O95 O 0.26512 0.88369 0.39996 0.0
C96 C 0.16973 0.89432 0.50373 0.0
O97 O 0.20174 0.91684 0.46135 0.0
O98 O 0.12452 0.8209 0.50233 0.0
C99 C 0.06287 0.77831 0.34996 0.0
Tb100 Tb 0.31056 0.15444 0.76151 0.0
C101 C 0.41022 0.07608 0.74754 0.0
Tb102 Tb 0.42456 0.2059 0.67572 0.0
O103 O 0.23041 0.04961 0.72355 0.0
O104 O 0.3041 0.14737 0.68418 0.0
O105 O 0.36763 0.0895 0.77886 0.0
C106 C 0.50439 0.22107 0.59423 0.0
O107 O 0.43086 0.10864 0.70399 0.0
C108 C 0.48278 0.28315 0.75611 0.0
C109 C 0.35643 0.30403 0.70106 0.0
O110 O 0.45486 0.15648 0.61391 0.0
O111 O 0.50725 0.27633 0.61981 0.0
O112 O 0.51013 0.30815 0.71302 0.0
O113 O 0.43177 0.21417 0.75262 0.0
O114 O 0.36635 0.26945 0.6632 0.0
O115 O 0.33836 0.27029 0.74412 0.0
C116 C 0.23555 0.16075 0.84147 0.0
O117 O 0.22747 0.17914 0.79767 0.0
O118 O 0.28368 0.13566 0.83983 0.0
C119 C 0.2569 0.07717 0.68051 0.0
C120 C 0.19328 0.54554 0.21789 0.0
C121 C 0.17589 0.60496 0.21577 0.0
C122 C 0.20269 0.51262 0.17531 0.0
C123 C 0.1951 0.53807 0.12923 0.0
H124 H 0.2015 0.52552 0.25263 0.0
H125 H 0.21785 0.46826 0.17854 0.0
S126 S 0.14169 0.68621 0.1041 0.0
N127 N 0.14541 0.68369 0.16398 0.0
N128 N 0.16381 0.62229 0.08399 0.0
C129 C 0.17513 0.59558 0.12664 0.0
C130 C 0.16523 0.62885 0.16996 0.0
C131 C 0.56291 0.16855 0.53662 0.0
C132 C 0.55571 0.23078 0.55286 0.0
C133 C 0.61393 0.1772 0.49895 0.0
C134 C 0.65854 0.24807 0.4755 0.0
H135 H 0.52939 0.11284 0.55338 0.0
H136 H 0.61708 0.1274 0.48742 0.0
S137 S 0.66161 0.42907 0.50499 0.0
N138 N 0.59862 0.36612 0.54352 0.0
N139 N 0.69309 0.38181 0.47184 0.0
C140 C 0.65232 0.31088 0.49165 0.0
C141 C 0.60106 0.30231 0.53046 0.0
C142 C 0.39778 0.61699 0.88334 0.0
C143 C 0.33536 0.54229 0.88051 0.0
C144 C 0.43133 0.66062 0.84126 0.0
C145 C 0.40385 0.63101 0.79492 0.0
H146 H 0.4199 0.64267 0.91835 0.0
H147 H 0.4781 0.71842 0.84518 0.0
S148 S 0.2458 0.43612 0.76759 0.0
N149 N 0.25017 0.43907 0.82752 0.0
N150 N 0.31317 0.52078 0.74849 0.0
C151 C 0.34272 0.55564 0.79152 0.0
C152 C 0.30859 0.51132 0.83435 0.0
C153 C 0.78188 0.33922 0.17468 0.0
C154 C 0.75872 0.35472 0.21963 0.0
C155 C 0.77536 0.37292 0.13161 0.0
C156 C 0.74696 0.42418 0.13242 0.0
H157 H 0.80288 0.29913 0.17259 0.0
H158 H 0.7922 0.35836 0.09749 0.0
S159 S 0.68707 0.48963 0.24215 0.0
N160 N 0.71159 0.42822 0.26308 0.0
N161 N 0.70071 0.49247 0.18277 0.0
C162 C 0.72692 0.44242 0.1776 0.0
C163 C 0.73245 0.40738 0.22111 0.0
C164 C 0.42693 0.77443 0.50244 0.0
C165 C 0.39578 0.77012 0.5491 0.0
C166 C 0.38492 0.76802 0.46047 0.0
C167 C 0.31033 0.75681 0.46378 0.0
H168 H 0.48359 0.78156 0.49829 0.0
H169 H 0.41065 0.77068 0.42523 0.0
S170 S 0.20405 0.74403 0.57763 0.0
N171 N 0.28706 0.75671 0.59613 0.0
N172 N 0.20819 0.74336 0.51771 0.0
C173 C 0.27948 0.75412 0.51027 0.0
C174 C 0.32221 0.7611 0.55283 0.0
C175 C 0.61964 0.43937 0.8397 0.0
C176 C 0.60008 0.40457 0.88577 0.0
C177 C 0.58054 0.39951 0.79814 0.0
C178 C 0.52052 0.32349 0.80117 0.0
H179 H 0.66563 0.4977 0.83563 0.0
H180 H 0.59757 0.42865 0.76334 0.0
S181 S 0.44751 0.20661 0.9134 0.0
N182 N 0.51639 0.29002 0.93225 0.0
N183 N 0.44402 0.21492 0.85392 0.0
C184 C 0.50018 0.28822 0.84704 0.0
C185 C 0.53972 0.32889 0.88943 0.0
C186 C 0.42385 0.38526 0.07089 0.0
C187 C 0.38045 0.41074 0.09643 0.0
C188 C 0.50298 0.43017 0.06827 0.0
C189 C 0.54095 0.50239 0.09047 0.0
H190 H 0.39607 0.33358 0.04938 0.0
H191 H 0.53426 0.4102 1.04614 0.0
S192 S 0.45347 0.58985 0.16703 0.0
N193 N 0.38073 0.50806 0.149 0.0
N194 N 0.53094 0.59318 0.14365 0.0
C195 C 0.49918 0.52522 0.12008 0.0
C196 C 0.41816 0.47897 0.12313 0.0
C197 C 0.94656 0.51139 0.45937 0.0
C198 C 0.02026 0.54862 0.43913 0.0
C199 C 0.90526 0.43134 0.46163 0.0
C200 C 0.93668 0.38764 0.44301 0.0
H201 H 0.91829 0.54346 0.46896 0.0
H202 H 0.84575 0.4037 0.47262 0.0
S203 S 0.13263 0.45979 0.39552 0.0
N204 N 0.12775 0.5373 0.40845 0.0
N205 N 0.04849 0.38697 0.4107 0.0
C206 C 0.01304 0.42468 0.42807 0.0
C207 C 0.05537 0.50557 0.42658 0.0
C208 C 0.4059 0.95667 0.77456 0.0
C209 C 0.44838 0.03453 0.76322 0.0
C210 C 0.44144 0.91205 0.77492 0.0
C211 C 0.51988 0.94474 0.76431 0.0
H212 H 0.34441 0.92909 0.77875 0.0
H213 H 0.40635 0.85074 0.7793 0.0
S214 S 0.65707 0.14828 0.74098 0.0
N215 N 0.57384 0.14454 0.74807 0.0
N216 N 0.64008 0.05984 0.74827 0.0
C217 C 0.56381 0.02349 0.75766 0.0
C218 C 0.52798 0.06882 0.75735 0.0
C219 C 0.47019 0.5071 0.65487 0.0
C220 C 0.5008 0.54853 0.69788 0.0
C221 C 0.41981 0.42821 0.65616 0.0
C222 C 0.39654 0.3883 0.70059 0.0
H223 H 0.48479 0.5359 0.61993 0.0
H224 H 0.39965 0.39817 0.62206 0.0
S225 S 0.45829 0.47087 0.82419 0.0
N226 N 0.50492 0.54309 0.78645 0.0
N227 N 0.40613 0.39722 0.78913 0.0
C228 C 0.42538 0.42959 0.74405 0.0
C229 C 0.479 0.50891 0.74261 0.0
C230 C -0.00912 0.46963 0.06958 0.0
C231 C 0.01397 0.44949 1.02622 0.0
C232 C 0.95715 0.51547 0.06904 0.0
C233 C 0.94351 0.54186 1.02506 0.0
H234 H 4e-05 0.4512 0.10462 0.0
H235 H 0.93856 0.52724 0.10348 0.0
S236 S -0.00581 0.50714 0.9014 0.0
N237 N 0.02286 0.46156 0.93793 0.0
N238 N 0.95664 0.54619 0.93706 0.0
C239 C -0.03331 0.52296 0.98138 0.0
C240 C 0.00239 0.47704 0.98191 0.0
C241 C 0.42399 0.92012 0.32408 0.0
C242 C 0.37713 0.94274 0.34929 0.0
C243 C 0.50364 0.96429 0.32564 0.0
C244 C 0.538 0.03244 0.35186 0.0
H245 H 0.39927 0.86585 0.30535 0.0
H246 H 0.53828 0.94422 0.30746 0.0
S247 S 0.4419 0.12129 0.41903 0.0
N248 N 0.37141 0.04039 0.39814 0.0
N249 N 0.52128 0.1246 0.39966 0.0
C250 C 0.49222 0.05789 0.37474 0.0
C251 C 0.41149 0.01267 0.3738 0.0
C252 C 0.17216 0.22551 0.88335 0.0
C253 C 0.20649 0.17948 0.88634 0.0
C254 C 0.15101 0.25062 0.92541 0.0
C255 C 0.16298 0.23039 0.97211 0.0
H256 H 0.16314 0.24392 0.84826 0.0
H257 H 0.12527 0.28636 0.92127 0.0
S258 S 0.24898 0.1093 0.99995 0.0
N259 N 0.24995 0.11341 0.93996 0.0
N260 N 0.21002 0.16021 1.0188 0.0
C261 C 0.19566 0.183 0.97561 0.0
C262 C 0.21757 0.15777 0.9328 0.0
C263 C 0.87252 0.17923 0.25892 0.0
C264 C 0.90431 0.18821 0.30542 0.0
C265 C 0.91876 0.20338 0.21691 0.0
C266 C -0.0013 0.23814 0.2198 0.0
H267 H 0.81128 0.15344 0.25491 0.0
H268 H 0.89162 0.19594 0.18198 0.0
S269 S 0.11024 0.27393 0.33286 0.0
N270 N 0.02053 0.23277 0.35184 0.0
N271 N 0.10764 0.27941 0.27305 0.0
C272 C 0.03122 0.24684 0.26605 0.0
C273 C -0.01603 0.2214 0.30881 0.0
C274 C 0.68023 0.88315 0.58954 0.0
C275 C 0.69973 0.91655 0.63594 0.0
C276 C 0.69619 0.92813 0.5474 0.0
C277 C 0.73178 0.00815 0.5502 0.0
H278 H 0.65233 0.82169 0.58575 0.0
H279 H 0.67932 0.89989 0.51251 0.0
S280 S 0.79842 0.12389 0.66269 0.0
N281 N 0.75983 0.03469 0.68191 0.0
N282 N 0.78896 0.11911 0.60303 0.0
C283 C 0.753 0.04231 0.59629 0.0
C284 C 0.73742 -0.00344 0.63908 0.0
C285 C 0.75301 0.7179 0.88204 0.0
C286 C 0.71153 0.7571 0.88447 0.0
C287 C 0.77825 0.69867 0.92444 0.0
C288 C 0.76348 0.71846 0.97076 0.0
H289 H 0.76486 0.70061 0.8472 0.0
H290 H 0.8094 0.66789 0.9209 0.0
S291 S 0.65861 0.8227 0.99694 0.0
N292 N 0.6578 0.81594 0.93708 0.0
N293 N 0.70582 0.78059 1.01646 0.0
C294 C 0.72345 0.75901 0.97362 0.0
C295 C 0.6972 0.77799 0.93055 0.0
C296 C 0.00853 0.69467 0.2776 0.0
C297 C 0.0124 0.75317 0.30717 0.0
C298 C 0.96258 0.6704 0.23628 0.0
C299 C 0.91836 0.70368 0.22284 0.0
H300 H 0.03967 0.66591 0.28704 0.0
H301 H 0.96199 0.62513 0.21465 0.0
S302 S 0.90511 0.85658 0.28979 0.0
N303 N -0.03428 0.84188 0.32169 0.0
N304 N 0.87925 0.79664 0.24357 0.0
C305 C 0.92026 0.76126 0.2527 0.0
C306 C -0.03299 0.78566 0.29512 0.0
C307 C 0.18248 0.95357 0.63618 0.0
C308 C 0.23298 0.0329 0.63456 0.0
C309 C 0.1607 0.90948 0.5936 0.0
C310 C 0.18894 0.94294 0.54773 0.0
H311 H 0.16017 0.92497 0.67073 0.0
H312 H 0.12256 0.8485 0.5968 0.0
S313 S 0.31981 0.14895 0.52318 0.0
N314 N 0.30769 0.14357 0.58281 0.0
N315 N 0.2684 0.06072 0.50307 0.0
C316 C 0.23847 0.02239 0.54547 0.0
C317 C 0.2601 0.06737 0.58878 0.0
loop_
_geom_bond_atom_site_label_1
_geom_bond_atom_site_label_2
_geom_bond_distance
_geom_bond_site_symmetry_2
_ccdc_geom_bond_type
Tb0 O3 2.453 1_554 S
Tb0 O4 2.596 1_554 S
Tb0 O5 2.374 . S
Tb0 O13 2.343 . S
Tb0 O15 2.353 1_554 S
Tb0 O17 2.427 . S
Tb0 O18 2.513 . S
C1 O5 1.251 . S
C1 O7 1.263 . S
Tb2 O4 2.343 . S
Tb2 O7 2.353 1_556 S
Tb2 O10 2.427 . S
Tb2 O11 2.513 . S
Tb2 O12 2.453 1_556 S
Tb2 O13 2.596 1_556 S
Tb2 O14 2.374 . S
O3 Tb0 2.453 1_556 S
O3 C19 1.245 . S
O4 Tb0 2.596 1_556 S
O4 Tb2 2.343 . S
O4 C19 1.259 . S
O5 Tb0 2.374 . S
O5 C1 1.251 . S
C6 O10 1.275 . S
C6 O11 1.246 . S
O7 C1 1.263 . S
O7 Tb2 2.353 1_554 S
C8 O12 1.245 . S
C8 O13 1.259 . S
C9 O14 1.250 . S
C9 O15 1.263 . S
O10 Tb2 2.427 . S
O10 C6 1.275 . S
O11 Tb2 2.513 . S
O11 C6 1.246 . S
O12 Tb2 2.453 1_554 S
O12 C8 1.245 . S
O13 Tb0 2.343 . S
O13 Tb2 2.596 1_554 S
O13 C8 1.259 . S
O14 Tb2 2.374 . S
O14 C9 1.250 . S
O15 Tb0 2.353 1_556 S
O15 C9 1.263 . S
C16 O17 1.275 . S
C16 O18 1.246 . S
O17 Tb0 2.427 . S
O17 C16 1.275 . S
O18 Tb0 2.513 . S
O18 C16 1.246 . S
C19 O3 1.245 . S
C19 O4 1.259 . S
Tb20 O23 2.453 . S
Tb20 O24 2.596 . S
Tb20 O25 2.374 . S
Tb20 O33 2.343 . S
Tb20 O35 2.353 . S
Tb20 O37 2.427 . S
Tb20 O38 2.513 . S
C21 O25 1.251 . S
C21 O27 1.263 . S
Tb22 O24 2.343 . S
Tb22 O27 2.353 . S
Tb22 O30 2.427 . S
Tb22 O31 2.513 . S
Tb22 O32 2.453 . S
Tb22 O33 2.596 . S
Tb22 O34 2.374 . S
O23 Tb20 2.453 . S
O23 C39 1.245 . S
O24 Tb20 2.596 . S
O24 Tb22 2.343 . S
O24 C39 1.259 . S
O25 Tb20 2.374 . S
O25 C21 1.251 . S
C26 O30 1.275 . S
C26 O31 1.246 . S
O27 C21 1.263 . S
O27 Tb22 2.353 . S
C28 O32 1.245 . S
C28 O33 1.259 . S
C29 O34 1.250 . S
C29 O35 1.263 . S
O30 Tb22 2.427 . S
O30 C26 1.275 . S
O31 Tb22 2.513 . S
O31 C26 1.246 . S
O32 Tb22 2.453 . S
O32 C28 1.245 . S
O33 Tb20 2.343 . S
O33 Tb22 2.596 . S
O33 C28 1.259 . S
O34 Tb22 2.374 . S
O34 C29 1.250 . S
O35 Tb20 2.353 . S
O35 C29 1.263 . S
C36 O37 1.275 . S
C36 O38 1.246 . S
O37 Tb20 2.427 . S
O37 C36 1.275 . S
O38 Tb20 2.513 . S
O38 C36 1.246 . S
C39 O23 1.245 . S
C39 O24 1.259 . S
Tb40 O43 2.453 . S
Tb40 O44 2.596 . S
Tb40 O45 2.374 . S
Tb40 O53 2.343 . S
Tb40 O55 2.353 . S
Tb40 O57 2.427 . S
Tb40 O58 2.513 . S
C41 O45 1.251 . S
C41 O47 1.263 . S
Tb42 O44 2.343 . S
Tb42 O47 2.353 . S
Tb42 O50 2.427 . S
Tb42 O51 2.513 . S
Tb42 O52 2.453 . S
Tb42 O53 2.596 . S
Tb42 O54 2.374 . S
O43 Tb40 2.453 . S
O43 C59 1.245 . S
O44 Tb40 2.596 . S
O44 Tb42 2.343 . S
O44 C59 1.259 . S
O45 Tb40 2.374 . S
O45 C41 1.251 . S
C46 O50 1.275 . S
C46 O51 1.246 . S
O47 C41 1.263 . S
O47 Tb42 2.353 . S
C48 O52 1.245 . S
C48 O53 1.259 . S
C49 O54 1.250 . S
C49 O55 1.263 . S
O50 Tb42 2.427 . S
O50 C46 1.275 . S
O51 Tb42 2.513 . S
O51 C46 1.246 . S
O52 Tb42 2.453 . S
O52 C48 1.245 . S
O53 Tb40 2.343 . S
O53 Tb42 2.596 . S
O53 C48 1.259 . S
O54 Tb42 2.374 . S
O54 C49 1.250 . S
O55 Tb40 2.353 . S
O55 C49 1.263 . S
C56 O57 1.275 . S
C56 O58 1.246 . S
O57 Tb40 2.427 . S
O57 C56 1.275 . S
O58 Tb40 2.513 . S
O58 C56 1.246 . S
C59 O43 1.245 . S
C59 O44 1.259 . S
Tb60 O63 2.453 1_554 S
Tb60 O64 2.596 1_554 S
Tb60 O65 2.374 . S
Tb60 O73 2.343 . S
Tb60 O75 2.353 1_554 S
Tb60 O77 2.427 . S
Tb60 O78 2.513 . S
C61 O65 1.251 . S
C61 O67 1.263 . S
Tb62 O64 2.343 . S
Tb62 O67 2.353 1_556 S
Tb62 O70 2.427 . S
Tb62 O71 2.513 . S
Tb62 O72 2.453 1_556 S
Tb62 O73 2.596 1_556 S
Tb62 O74 2.374 . S
O63 Tb60 2.453 1_556 S
O63 C79 1.245 . S
O64 Tb60 2.596 1_556 S
O64 Tb62 2.343 . S
O64 C79 1.259 . S
O65 Tb60 2.374 . S
O65 C61 1.251 . S
C66 O70 1.275 . S
C66 O71 1.246 . S
O67 C61 1.263 . S
O67 Tb62 2.353 1_554 S
C68 O72 1.245 . S
C68 O73 1.259 . S
C69 O74 1.250 . S
C69 O75 1.263 . S
O70 Tb62 2.427 . S
O70 C66 1.275 . S
O71 Tb62 2.513 . S
O71 C66 1.246 . S
O72 Tb62 2.453 1_554 S
O72 C68 1.245 . S
O73 Tb60 2.343 . S
O73 Tb62 2.596 1_554 S
O73 C68 1.259 . S
O74 Tb62 2.374 . S
O74 C69 1.250 . S
O75 Tb60 2.353 1_556 S
O75 C69 1.263 . S
C76 O77 1.275 . S
C76 O78 1.246 . S
O77 Tb60 2.427 . S
O77 C76 1.275 . S
O78 Tb60 2.513 . S
O78 C76 1.246 . S
C79 O63 1.245 . S
C79 O64 1.259 . S
Tb80 O83 2.453 . S
Tb80 O84 2.596 . S
Tb80 O85 2.374 . S
Tb80 O93 2.343 . S
Tb80 O95 2.353 . S
Tb80 O97 2.427 . S
Tb80 O98 2.513 . S
C81 O85 1.251 . S
C81 O87 1.263 . S
Tb82 O84 2.343 . S
Tb82 O87 2.353 . S
Tb82 O90 2.427 . S
Tb82 O91 2.513 . S
Tb82 O92 2.453 . S
Tb82 O93 2.596 . S
Tb82 O94 2.374 . S
O83 Tb80 2.453 . S
O83 C99 1.245 . S
O84 Tb80 2.596 . S
O84 Tb82 2.343 . S
O84 C99 1.259 . S
O85 Tb80 2.374 . S
O85 C81 1.251 . S
C86 O90 1.275 . S
C86 O91 1.246 . S
O87 C81 1.263 . S
O87 Tb82 2.353 . S
C88 O92 1.245 . S
C88 O93 1.259 . S
C89 O94 1.250 . S
C89 O95 1.263 . S
O90 Tb82 2.427 . S
O90 C86 1.275 . S
O91 Tb82 2.513 . S
O91 C86 1.246 . S
O92 Tb82 2.453 . S
O92 C88 1.245 . S
O93 Tb80 2.343 . S
O93 Tb82 2.596 . S
O93 C88 1.259 . S
O94 Tb82 2.374 . S
O94 C89 1.250 . S
O95 Tb80 2.353 . S
O95 C89 1.263 . S
C96 O97 1.275 . S
C96 O98 1.246 . S
O97 Tb80 2.427 . S
O97 C96 1.275 . S
O98 Tb80 2.513 . S
O98 C96 1.246 . S
C99 O83 1.245 . S
C99 O84 1.259 . S
Tb100 O103 2.453 . S
Tb100 O104 2.596 . S
Tb100 O105 2.374 . S
Tb100 O113 2.343 . S
Tb100 O115 2.353 . S
Tb100 O117 2.427 . S
Tb100 O118 2.513 . S
C101 O105 1.251 . S
C101 O107 1.263 . S
Tb102 O104 2.343 . S
Tb102 O107 2.353 . S
Tb102 O110 2.427 . S
Tb102 O111 2.513 . S
Tb102 O112 2.453 . S
Tb102 O113 2.596 . S
Tb102 O114 2.374 . S
O103 Tb100 2.453 . S
O103 C119 1.245 . S
O104 Tb100 2.596 . S
O104 Tb102 2.343 . S
O104 C119 1.259 . S
O105 Tb100 2.374 . S
O105 C101 1.251 . S
C106 O110 1.275 . S
C106 O111 1.246 . S
O107 C101 1.263 . S
O107 Tb102 2.353 . S
C108 O112 1.245 . S
C108 O113 1.259 . S
C109 O114 1.250 . S
C109 O115 1.263 . S
O110 Tb102 2.427 . S
O110 C106 1.275 . S
O111 Tb102 2.513 . S
O111 C106 1.246 . S
O112 Tb102 2.453 . S
O112 C108 1.245 . S
O113 Tb100 2.343 . S
O113 Tb102 2.596 . S
O113 C108 1.259 . S
O114 Tb102 2.374 . S
O114 C109 1.250 . S
O115 Tb100 2.353 . S
O115 C109 1.263 . S
C116 O117 1.275 . S
C116 O118 1.246 . S
O117 Tb100 2.427 . S
O117 C116 1.275 . S
O118 Tb100 2.513 . S
O118 C116 1.246 . S
C119 O103 1.245 . S
C119 O104 1.259 . S
C120 C121 1.369 . S
C120 C122 1.419 . S
C120 H124 0.930 . S
C121 C120 1.369 . S
C121 C130 1.429 . S
C122 C120 1.419 . S
C122 C123 1.363 . S
C122 H125 0.929 . S
C123 C122 1.363 . S
C123 C129 1.428 . S
H124 C120 0.930 . S
H125 C122 0.929 . S
S126 N127 1.613 . S
S126 N128 1.610 . S
N127 S126 1.613 . S
N127 C130 1.350 . S
N128 S126 1.610 . S
N128 C129 1.351 . S
C129 C123 1.428 . S
C129 N128 1.351 . S
C129 C130 1.434 . S
C130 C121 1.429 . S
C130 N127 1.350 . S
C130 C129 1.434 . S
C131 C132 1.369 . S
C131 C133 1.419 . S
C131 H135 0.930 . S
C132 C131 1.369 . S
C132 C141 1.429 . S
C133 C131 1.419 . S
C133 C134 1.363 . S
C133 H136 0.929 . S
C134 C133 1.363 . S
C134 C140 1.428 . S
H135 C131 0.930 . S
H136 C133 0.929 . S
S137 N138 1.613 . S
S137 N139 1.610 . S
N138 S137 1.613 . S
N138 C141 1.350 . S
N139 S137 1.610 . S
N139 C140 1.351 . S
C140 C134 1.428 . S
C140 N139 1.351 . S
C140 C141 1.434 . S
C141 C132 1.429 . S
C141 N138 1.350 . S
C141 C140 1.434 . S
C142 C143 1.369 . S
C142 C144 1.419 . S
C142 H146 0.930 . S
C143 C142 1.369 . S
C143 C152 1.429 . S
C144 C142 1.419 . S
C144 C145 1.363 . S
C144 H147 0.929 . S
C145 C144 1.363 . S
C145 C151 1.428 . S
H146 C142 0.930 . S
H147 C144 0.929 . S
S148 N149 1.613 . S
S148 N150 1.610 . S
N149 S148 1.613 . S
N149 C152 1.350 . S
N150 S148 1.610 . S
N150 C151 1.351 . S
C151 C145 1.428 . S
C151 N150 1.351 . S
C151 C152 1.434 . S
C152 C143 1.429 . S
C152 N149 1.350 . S
C152 C151 1.434 . S
C153 C154 1.369 . S
C153 C155 1.419 . S
C153 H157 0.930 . S
C154 C153 1.369 . S
C154 C163 1.429 . S
C155 C153 1.419 . S
C155 C156 1.363 . S
C155 H158 0.929 . S
C156 C155 1.363 . S
C156 C162 1.428 . S
H157 C153 0.930 . S
H158 C155 0.929 . S
S159 N160 1.613 . S
S159 N161 1.610 . S
N160 S159 1.613 . S
N160 C163 1.350 . S
N161 S159 1.610 . S
N161 C162 1.351 . S
C162 C156 1.428 . S
C162 N161 1.351 . S
C162 C163 1.434 . S
C163 C154 1.429 . S
C163 N160 1.350 . S
C163 C162 1.434 . S
C164 C165 1.369 . S
C164 C166 1.419 . S
C164 H168 0.930 . S
C165 C164 1.369 . S
C165 C174 1.429 . S
C166 C164 1.419 . S
C166 C167 1.363 . S
C166 H169 0.929 . S
C167 C166 1.363 . S
C167 C173 1.428 . S
H168 C164 0.930 . S
H169 C166 0.929 . S
S170 N171 1.613 . S
S170 N172 1.610 . S
N171 S170 1.613 . S
N171 C174 1.350 . S
N172 S170 1.610 . S
N172 C173 1.351 . S
C173 C167 1.428 . S
C173 N172 1.351 . S
C173 C174 1.434 . S
C174 C165 1.429 . S
C174 N171 1.350 . S
C174 C173 1.434 . S
C175 C176 1.369 . S
C175 C177 1.419 . S
C175 H179 0.930 . S
C176 C175 1.369 . S
C176 C185 1.429 . S
C177 C175 1.419 . S
C177 C178 1.363 . S
C177 H180 0.929 . S
C178 C177 1.363 . S
C178 C184 1.428 . S
H179 C175 0.930 . S
H180 C177 0.929 . S
S181 N182 1.613 . S
S181 N183 1.610 . S
N182 S181 1.613 . S
N182 C185 1.350 . S
N183 S181 1.610 . S
N183 C184 1.351 . S
C184 C178 1.428 . S
C184 N183 1.351 . S
C184 C185 1.434 . S
C185 C176 1.429 . S
C185 N182 1.350 . S
C185 C184 1.434 . S
C186 C187 1.369 . S
C186 C188 1.419 . S
C186 H190 0.930 . S
C187 C186 1.369 . S
C187 C196 1.429 . S
C188 C186 1.419 . S
C188 C189 1.363 . S
C188 H191 0.929 . S
C189 C188 1.363 . S
C189 C195 1.428 . S
H190 C186 0.930 . S
H191 C188 0.929 . S
S192 N193 1.613 . S
S192 N194 1.610 . S
N193 S192 1.613 . S
N193 C196 1.350 . S
N194 S192 1.610 . S
N194 C195 1.351 . S
C195 C189 1.428 . S
C195 N194 1.351 . S
C195 C196 1.434 . S
C196 C187 1.429 . S
C196 N193 1.350 . S
C196 C195 1.434 . S
C197 C198 1.369 1_655 S
C197 C199 1.419 . S
C197 H201 0.930 . S
C198 C197 1.369 1_455 S
C198 C207 1.429 . S
C199 C197 1.419 . S
C199 C200 1.363 . S
C199 H202 0.929 . S
C200 C199 1.363 . S
C200 C206 1.428 1_655 S
H201 C197 0.930 . S
H202 C199 0.929 . S
S203 N204 1.613 . S
S203 N205 1.610 . S
N204 S203 1.613 . S
N204 C207 1.350 . S
N205 S203 1.610 . S
N205 C206 1.351 . S
C206 C200 1.428 1_455 S
C206 N205 1.351 . S
C206 C207 1.434 . S
C207 C198 1.429 . S
C207 N204 1.350 . S
C207 C206 1.434 . S
C208 C209 1.369 1_565 S
C208 C210 1.419 . S
C208 H212 0.930 . S
C209 C208 1.369 1_545 S
C209 C218 1.429 . S
C210 C208 1.419 . S
C210 C211 1.363 . S
C210 H213 0.929 . S
C211 C210 1.363 . S
C211 C217 1.428 1_565 S
H212 C208 0.930 . S
H213 C210 0.929 . S
S214 N215 1.613 . S
S214 N216 1.610 . S
N215 S214 1.613 . S
N215 C218 1.350 . S
N216 S214 1.610 . S
N216 C217 1.351 . S
C217 C211 1.428 1_545 S
C217 N216 1.351 . S
C217 C218 1.434 . S
C218 C209 1.429 . S
C218 N215 1.350 . S
C218 C217 1.434 . S
C219 C220 1.369 . S
C219 C221 1.419 . S
C219 H223 0.930 . S
C220 C219 1.369 . S
C220 C229 1.429 . S
C221 C219 1.419 . S
C221 C222 1.363 . S
C221 H224 0.929 . S
C222 C221 1.363 . S
C222 C228 1.428 . S
H223 C219 0.930 . S
H224 C221 0.929 . S
S225 N226 1.613 . S
S225 N227 1.610 . S
N226 S225 1.613 . S
N226 C229 1.350 . S
N227 S225 1.610 . S
N227 C228 1.351 . S
C228 C222 1.428 . S
C228 N227 1.351 . S
C228 C229 1.434 . S
C229 C220 1.429 . S
C229 N226 1.350 . S
C229 C228 1.434 . S
C230 C231 1.369 1_654 S
C230 C232 1.418 . S
C230 H234 0.931 . S
C231 C230 1.369 1_456 S
C231 C240 1.429 . S
C232 C230 1.418 . S
C232 C233 1.361 1_554 S
C232 H235 0.932 . S
C233 C232 1.361 1_556 S
C233 C239 1.428 1_655 S
H234 C230 0.931 . S
H235 C232 0.932 . S
S236 N237 1.613 . S
S236 N238 1.610 . S
N237 S236 1.613 . S
N237 C240 1.350 . S
N238 S236 1.610 . S
N238 C239 1.351 . S
C239 C233 1.428 1_455 S
C239 N238 1.351 . S
C239 C240 1.434 . S
C240 C231 1.429 . S
C240 N237 1.350 . S
C240 C239 1.434 . S
C241 C242 1.369 . S
C241 C243 1.419 . S
C241 H245 0.930 . S
C242 C241 1.369 . S
C242 C251 1.429 1_565 S
C243 C241 1.419 . S
C243 C244 1.363 1_565 S
C243 H246 0.929 . S
C244 C243 1.363 1_545 S
C244 C250 1.428 . S
H245 C241 0.930 . S
H246 C243 0.929 . S
S247 N248 1.613 . S
S247 N249 1.610 . S
N248 S247 1.613 . S
N248 C251 1.350 . S
N249 S247 1.610 . S
N249 C250 1.351 . S
C250 C244 1.428 . S
C250 N249 1.351 . S
C250 C251 1.434 . S
C251 C242 1.429 1_545 S
C251 N248 1.350 . S
C251 C250 1.434 . S
C252 C253 1.369 . S
C252 C254 1.419 . S
C252 H256 0.930 . S
C253 C252 1.369 . S
C253 C262 1.429 . S
C254 C252 1.419 . S
C254 C255 1.363 . S
C254 H257 0.929 . S
C255 C254 1.363 . S
C255 C261 1.428 . S
H256 C252 0.930 . S
H257 C254 0.929 . S
S258 N259 1.613 . S
S258 N260 1.610 . S
N259 S258 1.613 . S
N259 C262 1.350 . S
N260 S258 1.610 . S
N260 C261 1.351 . S
C261 C255 1.428 . S
C261 N260 1.351 . S
C261 C262 1.434 . S
C262 C253 1.429 . S
C262 N259 1.350 . S
C262 C261 1.434 . S
C263 C264 1.369 . S
C263 C265 1.419 . S
C263 H267 0.930 . S
C264 C263 1.369 . S
C264 C273 1.429 1_655 S
C265 C263 1.419 . S
C265 C266 1.363 1_655 S
C265 H268 0.929 . S
C266 C265 1.363 1_455 S
C266 C272 1.428 . S
H267 C263 0.930 . S
H268 C265 0.929 . S
S269 N270 1.613 . S
S269 N271 1.610 . S
N270 S269 1.613 . S
N270 C273 1.350 . S
N271 S269 1.610 . S
N271 C272 1.351 . S
C272 C266 1.428 . S
C272 N271 1.351 . S
C272 C273 1.434 . S
C273 C264 1.429 1_455 S
C273 N270 1.350 . S
C273 C272 1.434 . S
C274 C275 1.369 . S
C274 C276 1.419 . S
C274 H278 0.930 . S
C275 C274 1.369 . S
C275 C284 1.429 1_565 S
C276 C274 1.419 . S
C276 C277 1.363 1_565 S
C276 H279 0.929 . S
C277 C276 1.363 1_545 S
C277 C283 1.428 . S
H278 C274 0.930 . S
H279 C276 0.929 . S
S280 N281 1.613 . S
S280 N282 1.610 . S
N281 S280 1.613 . S
N281 C284 1.350 . S
N282 S280 1.610 . S
N282 C283 1.351 . S
C283 C277 1.428 . S
C283 N282 1.351 . S
C283 C284 1.434 . S
C284 C275 1.429 1_545 S
C284 N281 1.350 . S
C284 C283 1.434 . S
C285 C286 1.369 . S
C285 C287 1.419 . S
C285 H289 0.930 . S
C286 C285 1.369 . S
C286 C295 1.429 . S
C287 C285 1.419 . S
C287 C288 1.363 . S
C287 H290 0.929 . S
C288 C287 1.363 . S
C288 C294 1.428 . S
H289 C285 0.930 . S
H290 C287 0.929 . S
S291 N292 1.613 . S
S291 N293 1.610 . S
N292 S291 1.613 . S
N292 C295 1.350 . S
N293 S291 1.610 . S
N293 C294 1.351 . S
C294 C288 1.428 . S
C294 N293 1.351 . S
C294 C295 1.434 . S
C295 C286 1.429 . S
C295 N292 1.350 . S
C295 C294 1.434 . S
C296 C297 1.369 . S
C296 C298 1.419 1_455 S
C296 H300 0.930 . S
C297 C296 1.369 . S
C297 C306 1.429 . S
C298 C296 1.419 1_655 S
C298 C299 1.363 . S
C298 H301 0.929 . S
C299 C298 1.363 . S
C299 C305 1.428 . S
H300 C296 0.930 . S
H301 C298 0.929 . S
S302 N303 1.613 1_655 S
S302 N304 1.610 . S
N303 S302 1.613 1_455 S
N303 C306 1.350 . S
N304 S302 1.610 . S
N304 C305 1.351 . S
C305 C299 1.428 . S
C305 N304 1.351 . S
C305 C306 1.434 1_655 S
C306 C297 1.429 . S
C306 N303 1.350 . S
C306 C305 1.434 1_455 S
C307 C308 1.369 1_565 S
C307 C309 1.419 . S
C307 H311 0.930 . S
C308 C307 1.369 1_545 S
C308 C317 1.429 . S
C309 C307 1.419 . S
C309 C310 1.363 . S
C309 H312 0.929 . S
C310 C309 1.363 . S
C310 C316 1.428 1_565 S
H311 C307 0.930 . S
H312 C309 0.929 . S
S313 N314 1.613 . S
S313 N315 1.610 . S
N314 S313 1.613 . S
N314 C317 1.350 . S
N315 S313 1.610 . S
N315 C316 1.351 . S
C316 C310 1.428 1_545 S
C316 N315 1.351 . S
C316 C317 1.434 . S
C317 C308 1.429 . S
C317 N314 1.350 . S
C317 C316 1.434 . S
C121 C86 1.394 . S
C123 C8 1.331 . S
C132 C106 1.390 . S
C134 C28 1.328 . S
C143 C6 1.394 . S
C145 C48 1.329 . S
C154 C26 1.388 . S
C156 C68 1.330 . S
C165 C46 1.388 . S
C167 C88 1.330 . S
C176 C66 1.387 . S
C178 C108 1.335 . S
C187 C1 1.133 . S
C189 C61 1.148 . S
C198 C81 1.138 . S
C200 C21 1.145 . S
C209 C101 1.132 . S
C211 C41 1.148 . S
C220 C49 1.122 . S
C222 C109 1.118 . S
C231 C9 1.113 . S
C233 C69 1.123 . S
C242 C89 1.125 . S
C244 C29 1.115 . S
C253 C116 1.565 . S
C255 C19 1.532 . S
C264 C39 1.535 . S
C266 C16 1.563 . S
C275 C59 1.532 . S
C277 C36 1.565 . S
C286 C56 1.565 . S
C288 C79 1.529 . S
C297 C99 1.529 . S
C299 C76 1.565 . S
C308 C119 1.535 . S
C310 C96 1.560 . S
