# Generated by pormake.
# Topology wjb, (6)-cn, num edge types: 1
# Building blocks:
#     Node 0, Type 0, BuildingBlock: OJICUG_clean_sbu_0, # of connection points: 6
#     Node 1, Type 0, BuildingBlock: OJICUG_clean_sbu_0, # of connection points: 6
#     Node 2, Type 0, BuildingBlock: OJICUG_clean_sbu_0, # of connection points: 6
#     Node 3, Type 0, BuildingBlock: OJICUG_clean_sbu_0, # of connection points: 6
#     Node 4, Type 0, BuildingBlock: OJICUG_clean_sbu_0, # of connection points: 6
#     Node 5, Type 0, BuildingBlock: OJICUG_clean_sbu_0, # of connection points: 6
#     Node 6, Type 0, BuildingBlock: OJICUG_clean_sbu_0, # of connection points: 6
#     Node 7, Type 0, BuildingBlock: OJICUG_clean_sbu_0, # of connection points: 6
#     Node 8, Type 0, BuildingBlock: OJICUG_clean_sbu_0, # of connection points: 6
#     Node 9, Type 0, BuildingBlock: OJICUG_clean_sbu_0, # of connection points: 6
#     Node 10, Type 0, BuildingBlock: OJICUG_clean_sbu_0, # of connection points: 6
#     Node 11, Type 0, BuildingBlock: OJICUG_clean_sbu_0, # of connection points: 6
#     Node 12, Type 0, BuildingBlock: OJICUG_clean_sbu_0, # of connection points: 6
#     Node 13, Type 0, BuildingBlock: OJICUG_clean_sbu_0, # of connection points: 6
#     Node 14, Type 0, BuildingBlock: OJICUG_clean_sbu_0, # of connection points: 6
#     Node 15, Type 0, BuildingBlock: OJICUG_clean_sbu_0, # of connection points: 6
#     Node 16, Type 0, BuildingBlock: OJICUG_clean_sbu_0, # of connection points: 6
#     Node 17, Type 0, BuildingBlock: OJICUG_clean_sbu_0, # of connection points: 6
#     Node 18, Type 0, BuildingBlock: OJICUG_clean_sbu_0, # of connection points: 6
#     Node 19, Type 0, BuildingBlock: OJICUG_clean_sbu_0, # of connection points: 6
#     Node 20, Type 0, BuildingBlock: OJICUG_clean_sbu_0, # of connection points: 6
#     Node 21, Type 0, BuildingBlock: OJICUG_clean_sbu_0, # of connection points: 6
#     Node 22, Type 0, BuildingBlock: OJICUG_clean_sbu_0, # of connection points: 6
#     Node 23, Type 0, BuildingBlock: OJICUG_clean_sbu_0, # of connection points: 6
#     Edge 24, Type (0, 0), BuildingBlock: XIVTED_clean_linker_0, # of connection points: 2
#     Edge 25, Type (0, 0), BuildingBlock: XIVTED_clean_linker_0, # of connection points: 2
#     Edge 26, Type (0, 0), BuildingBlock: XIVTED_clean_linker_0, # of connection points: 2
#     Edge 27, Type (0, 0), BuildingBlock: XIVTED_clean_linker_0, # of connection points: 2
#     Edge 28, Type (0, 0), BuildingBlock: XIVTED_clean_linker_0, # of connection points: 2
#     Edge 29, Type (0, 0), BuildingBlock: XIVTED_clean_linker_0, # of connection points: 2
#     Edge 30, Type (0, 0), BuildingBlock: XIVTED_clean_linker_0, # of connection points: 2
#     Edge 31, Type (0, 0), BuildingBlock: XIVTED_clean_linker_0, # of connection points: 2
#     Edge 32, Type (0, 0), BuildingBlock: XIVTED_clean_linker_0, # of connection points: 2
#     Edge 33, Type (0, 0), BuildingBlock: XIVTED_clean_linker_0, # of connection points: 2
#     Edge 34, Type (0, 0), BuildingBlock: XIVTED_clean_linker_0, # of connection points: 2
#     Edge 35, Type (0, 0), BuildingBlock: XIVTED_clean_linker_0, # of connection points: 2
#     Edge 36, Type (0, 0), BuildingBlock: XIVTED_clean_linker_0, # of connection points: 2
#     Edge 37, Type (0, 0), BuildingBlock: XIVTED_clean_linker_0, # of connection points: 2
#     Edge 38, Type (0, 0), BuildingBlock: XIVTED_clean_linker_0, # of connection points: 2
#     Edge 39, Type (0, 0), BuildingBlock: XIVTED_clean_linker_0, # of connection points: 2
#     Edge 40, Type (0, 0), BuildingBlock: XIVTED_clean_linker_0, # of connection points: 2
#     Edge 41, Type (0, 0), BuildingBlock: XIVTED_clean_linker_0, # of connection points: 2
#     Edge 42, Type (0, 0), BuildingBlock: XIVTED_clean_linker_0, # of connection points: 2
#     Edge 43, Type (0, 0), BuildingBlock: XIVTED_clean_linker_0, # of connection points: 2
#     Edge 44, Type (0, 0), BuildingBlock: XIVTED_clean_linker_0, # of connection points: 2
#     Edge 45, Type (0, 0), BuildingBlock: XIVTED_clean_linker_0, # of connection points: 2
#     Edge 46, Type (0, 0), BuildingBlock: XIVTED_clean_linker_0, # of connection points: 2
#     Edge 47, Type (0, 0), BuildingBlock: XIVTED_clean_linker_0, # of connection points: 2
#     Edge 48, Type (0, 0), BuildingBlock: XIVTED_clean_linker_0, # of connection points: 2
#     Edge 49, Type (0, 0), BuildingBlock: XIVTED_clean_linker_0, # of connection points: 2
#     Edge 50, Type (0, 0), BuildingBlock: XIVTED_clean_linker_0, # of connection points: 2
#     Edge 51, Type (0, 0), BuildingBlock: XIVTED_clean_linker_0, # of connection points: 2
#     Edge 52, Type (0, 0), BuildingBlock: XIVTED_clean_linker_0, # of connection points: 2
#     Edge 53, Type (0, 0), BuildingBlock: XIVTED_clean_linker_0, # of connection points: 2
#     Edge 54, Type (0, 0), BuildingBlock: XIVTED_clean_linker_0, # of connection points: 2
#     Edge 55, Type (0, 0), BuildingBlock: XIVTED_clean_linker_0, # of connection points: 2
#     Edge 56, Type (0, 0), BuildingBlock: XIVTED_clean_linker_0, # of connection points: 2
#     Edge 57, Type (0, 0), BuildingBlock: XIVTED_clean_linker_0, # of connection points: 2
#     Edge 58, Type (0, 0), BuildingBlock: XIVTED_clean_linker_0, # of connection points: 2
#     Edge 59, Type (0, 0), BuildingBlock: XIVTED_clean_linker_0, # of connection points: 2
#     Edge 60, Type (0, 0), BuildingBlock: XIVTED_clean_linker_0, # of connection points: 2
#     Edge 61, Type (0, 0), BuildingBlock: XIVTED_clean_linker_0, # of connection points: 2
#     Edge 62, Type (0, 0), BuildingBlock: XIVTED_clean_linker_0, # of connection points: 2
#     Edge 63, Type (0, 0), BuildingBlock: XIVTED_clean_linker_0, # of connection points: 2
#     Edge 64, Type (0, 0), BuildingBlock: XIVTED_clean_linker_0, # of connection points: 2
#     Edge 65, Type (0, 0), BuildingBlock: XIVTED_clean_linker_0, # of connection points: 2
#     Edge 66, Type (0, 0), BuildingBlock: XIVTED_clean_linker_0, # of connection points: 2
#     Edge 67, Type (0, 0), BuildingBlock: XIVTED_clean_linker_0, # of connection points: 2
#     Edge 68, Type (0, 0), BuildingBlock: XIVTED_clean_linker_0, # of connection points: 2
#     Edge 69, Type (0, 0), BuildingBlock: XIVTED_clean_linker_0, # of connection points: 2
#     Edge 70, Type (0, 0), BuildingBlock: XIVTED_clean_linker_0, # of connection points: 2
#     Edge 71, Type (0, 0), BuildingBlock: XIVTED_clean_linker_0, # of connection points: 2
#     Edge 72, Type (0, 0), BuildingBlock: XIVTED_clean_linker_0, # of connection points: 2
#     Edge 73, Type (0, 0), BuildingBlock: XIVTED_clean_linker_0, # of connection points: 2
#     Edge 74, Type (0, 0), BuildingBlock: XIVTED_clean_linker_0, # of connection points: 2
#     Edge 75, Type (0, 0), BuildingBlock: XIVTED_clean_linker_0, # of connection points: 2
#     Edge 76, Type (0, 0), BuildingBlock: XIVTED_clean_linker_0, # of connection points: 2
#     Edge 77, Type (0, 0), BuildingBlock: XIVTED_clean_linker_0, # of connection points: 2
#     Edge 78, Type (0, 0), BuildingBlock: XIVTED_clean_linker_0, # of connection points: 2
#     Edge 79, Type (0, 0), BuildingBlock: XIVTED_clean_linker_0, # of connection points: 2
#     Edge 80, Type (0, 0), BuildingBlock: XIVTED_clean_linker_0, # of connection points: 2
#     Edge 81, Type (0, 0), BuildingBlock: XIVTED_clean_linker_0, # of connection points: 2
#     Edge 82, Type (0, 0), BuildingBlock: XIVTED_clean_linker_0, # of connection points: 2
#     Edge 83, Type (0, 0), BuildingBlock: XIVTED_clean_linker_0, # of connection points: 2
#     Edge 84, Type (0, 0), BuildingBlock: XIVTED_clean_linker_0, # of connection points: 2
#     Edge 85, Type (0, 0), BuildingBlock: XIVTED_clean_linker_0, # of connection points: 2
#     Edge 86, Type (0, 0), BuildingBlock: XIVTED_clean_linker_0, # of connection points: 2
#     Edge 87, Type (0, 0), BuildingBlock: XIVTED_clean_linker_0, # of connection points: 2
#     Edge 88, Type (0, 0), BuildingBlock: XIVTED_clean_linker_0, # of connection points: 2
#     Edge 89, Type (0, 0), BuildingBlock: XIVTED_clean_linker_0, # of connection points: 2
#     Edge 90, Type (0, 0), BuildingBlock: XIVTED_clean_linker_0, # of connection points: 2
#     Edge 91, Type (0, 0), BuildingBlock: XIVTED_clean_linker_0, # of connection points: 2
#     Edge 92, Type (0, 0), BuildingBlock: XIVTED_clean_linker_0, # of connection points: 2
#     Edge 93, Type (0, 0), BuildingBlock: XIVTED_clean_linker_0, # of connection points: 2
#     Edge 94, Type (0, 0), BuildingBlock: XIVTED_clean_linker_0, # of connection points: 2
#     Edge 95, Type (0, 0), BuildingBlock: XIVTED_clean_linker_0, # of connection points: 2
# Relax obj value: 0.482
# Max RMSD: 0.212
# Mean RMSD: 0.212
data_MOF--net-wjb--node1-OJICUG_clean_sbu_0--edge1-XIVTED_clean_linker_0
_symmetry_space_group_name_H-M    P1
_symmetry_Int_Tables_number       1
_symmetry_cell_setting            triclinic
loop_
_symmetry_equiv_pos_as_xyz
'x, y, z'
_cell_length_a     52.698383
_cell_length_b     52.635801
_cell_length_c     57.365525
_cell_angle_alpha  90.011285
_cell_angle_beta   89.885108
_cell_angle_gamma 119.95905
loop_
_atom_site_label
_atom_site_type_symbol
_atom_site_fract_x
_atom_site_fract_y
_atom_site_fract_z
_atom_type_partial_charge
Sc0 Sc 0.11602 0.4846 0.11571 0.0
Sc1 Sc 0.15757 0.44824 0.117 0.0
Sc2 Sc 0.16776 0.49784 0.0723 0.0
O3 O 0.14705 0.47685 0.10177 0.0
C4 C 0.10636 0.49181 0.06127 0.0
C5 C 0.0881 0.41523 0.11701 0.0
C6 C 0.16017 0.43522 0.06289 0.0
C7 C 0.14299 0.47367 0.16216 0.0
C8 C 0.16715 0.54818 0.10354 0.0
C9 C 0.2197 0.49991 0.10288 0.0
O10 O 0.09922 0.49013 0.08264 0.0
O11 O 0.11224 0.41543 0.11853 0.0
O12 O 0.16111 0.45849 0.05576 0.0
O13 O 0.12733 0.48186 0.15134 0.0
O14 O 0.17601 0.53893 0.08661 0.0
O15 O 0.20377 0.47905 0.11664 0.0
O16 O 0.14582 0.53135 0.11677 0.0
O17 O 0.15626 0.46235 0.15188 0.0
O18 O 0.20946 0.50754 0.08596 0.0
O19 O 0.08558 0.43806 0.11518 0.0
O20 O 0.12926 0.49171 0.0547 0.0
O21 O 0.16061 0.42951 0.08435 0.0
Sc22 Sc 0.62438 0.12224 0.62184 0.0
Sc23 Sc 0.70198 0.15872 0.62338 0.0
Sc24 Sc 0.66644 0.17187 0.57808 0.0
O25 O 0.66403 0.15072 0.60789 0.0
C26 C 0.60725 0.1118 0.56802 0.0
C27 C 0.66215 0.09 0.62601 0.0
C28 C 0.71618 0.15772 0.56914 0.0
C29 C 0.66176 0.14931 0.6681 0.0
C30 C 0.61847 0.17761 0.60744 0.0
C31 C 0.72013 0.22159 0.60734 0.0
O32 O 0.60316 0.10249 0.58892 0.0
O33 O 0.68711 0.1129 0.62398 0.0
O34 O 0.69283 0.15649 0.56197 0.0
O35 O 0.63787 0.13755 0.65686 0.0
O36 O 0.63956 0.1877 0.59286 0.0
O37 O 0.71912 0.20516 0.62389 0.0
O38 O 0.6096 0.15366 0.61859 0.0
O39 O 0.68627 0.15717 0.65842 0.0
O40 O 0.70458 0.21174 0.58909 0.0
O41 O 0.6378 0.08982 0.62616 0.0
O42 O 0.62895 0.13615 0.56207 0.0
O43 O 0.72393 0.16198 0.59045 0.0
Sc44 Sc 0.50034 0.62481 0.10961 0.0
Sc45 Sc 0.53493 0.70221 0.11224 0.0
Sc46 Sc 0.48586 0.66301 0.06721 0.0
O47 O 0.50705 0.66344 0.09644 0.0
C48 C 0.49205 0.60842 0.05502 0.0
C49 C 0.56891 0.66647 0.11023 0.0
C50 C 0.54854 0.71874 0.05836 0.0
C51 C 0.51063 0.66175 0.15675 0.0
C52 C 0.43675 0.61184 0.09917 0.0
C53 C 0.48246 0.71188 0.09815 0.0
O54 O 0.49235 0.60213 0.07636 0.0
O55 O 0.56774 0.6895 0.1149 0.0
O56 O 0.52465 0.69729 0.05117 0.0
O57 O 0.5055 0.63878 0.14567 0.0
O58 O 0.44537 0.62869 0.08141 0.0
O59 O 0.50434 0.71802 0.11105 0.0
O60 O 0.45399 0.60848 0.11274 0.0
O61 O 0.51885 0.68605 0.14662 0.0
O62 O 0.47425 0.69326 0.08175 0.0
O63 O 0.54662 0.64132 0.10628 0.0
O64 O 0.49418 0.63247 0.04874 0.0
O65 O 0.55491 0.72399 0.07983 0.0
Sc66 Sc 0.86737 0.50339 0.61721 0.0
Sc67 Sc 0.82283 0.536 0.61917 0.0
Sc68 Sc 0.81545 0.48762 0.57415 0.0
O69 O 0.83509 0.50901 0.6036 0.0
C70 C 0.87687 0.49668 0.56241 0.0
C71 C 0.89239 0.57172 0.61898 0.0
C72 C 0.81965 0.54948 0.5657 0.0
C73 C 0.83777 0.511 0.66368 0.0
C74 C 0.82089 0.43922 0.60472 0.0
C75 C 0.76185 0.48178 0.60435 0.0
O76 O 0.88291 0.49624 0.58383 0.0
O77 O 0.86776 0.56975 0.62309 0.0
O78 O 0.81683 0.52534 0.55867 0.0
O79 O 0.85684 0.5072 0.65312 0.0
O80 O 0.81269 0.4478 0.58694 0.0
O81 O 0.77689 0.50465 0.61653 0.0
O82 O 0.83897 0.45678 0.61968 0.0
O83 O 0.82174 0.51894 0.65322 0.0
O84 O 0.77295 0.47305 0.58881 0.0
O85 O 0.89611 0.54999 0.61474 0.0
O86 O 0.85553 0.4997 0.5561 0.0
O87 O 0.82186 0.55657 0.58705 0.0
Sc88 Sc 0.35937 0.86965 0.11206 0.0
Sc89 Sc 0.28191 0.82854 0.11424 0.0
Sc90 Sc 0.32079 0.81854 0.06883 0.0
O91 O 0.32059 0.8388 0.09848 0.0
C92 C 0.37589 0.87919 0.05748 0.0
C93 C 0.31907 0.89826 0.11334 0.0
C94 C 0.26591 0.82712 0.06053 0.0
C95 C 0.3216 0.84245 0.15883 0.0
C96 C 0.37153 0.81876 0.1001 0.0
C97 C 0.27126 0.76613 0.09924 0.0
O98 O 0.38227 0.88497 0.0789 0.0
O99 O 0.29556 0.87431 0.11754 0.0
O100 O 0.28696 0.82406 0.05315 0.0
O101 O 0.34497 0.85995 0.14801 0.0
O102 O 0.35478 0.81138 0.08235 0.0
O103 O 0.26527 0.78194 0.11231 0.0
O104 O 0.37489 0.83885 0.11429 0.0
O105 O 0.29735 0.82737 0.1485 0.0
O106 O 0.2901 0.77657 0.08295 0.0
O107 O 0.34395 0.90039 0.10954 0.0
O108 O 0.3517 0.85775 0.05096 0.0
O109 O 0.26072 0.8281 0.08203 0.0
Sc110 Sc 0.48217 0.36189 0.61787 0.0
Sc111 Sc 0.44689 0.28476 0.62113 0.0
Sc112 Sc 0.49151 0.32279 0.57342 0.0
O113 O 0.47349 0.32296 0.60422 0.0
C114 C 0.48641 0.37777 0.56327 0.0
C115 C 0.41387 0.32148 0.62196 0.0
C116 C 0.42815 0.26681 0.56824 0.0
C117 C 0.47479 0.32548 0.66472 0.0
C118 C 0.54392 0.37372 0.60308 0.0
C119 C 0.49787 0.27471 0.60288 0.0
O120 O 0.48936 0.38471 0.58471 0.0
O121 O 0.41502 0.29838 0.62651 0.0
O122 O 0.45144 0.28786 0.55975 0.0
O123 O 0.47861 0.34817 0.6539 0.0
O124 O 0.53335 0.35779 0.58496 0.0
O125 O 0.47704 0.26875 0.61704 0.0
O126 O 0.52822 0.37651 0.6187 0.0
O127 O 0.4664 0.30124 0.65451 0.0
O128 O 0.5048 0.29313 0.58639 0.0
O129 O 0.43596 0.34629 0.61665 0.0
O130 O 0.48063 0.35251 0.55666 0.0
O131 O 0.42363 0.26234 0.58999 0.0
Sc132 Sc 0.49288 0.82006 0.92697 0.0
Sc133 Sc 0.53607 0.82384 0.87923 0.0
Sc134 Sc 0.50019 0.86577 0.88023 0.0
O135 O 0.50978 0.83668 0.89537 0.0
C136 C 0.43871 0.81722 0.89925 0.0
C137 C 0.48582 0.76413 0.89893 0.0
C138 C 0.50581 0.83377 0.8347 0.0
C139 C 0.55522 0.82655 0.93251 0.0
C140 C 0.50017 0.88266 0.93422 0.0
C141 C 0.56919 0.89294 0.87363 0.0
O142 O 0.45008 0.81031 0.91588 0.0
O143 O 0.50405 0.77815 0.88276 0.0
O144 O 0.49763 0.84951 0.84541 0.0
O145 O 0.53401 0.82857 0.94084 0.0
O146 O 0.49928 0.88713 0.91252 0.0
O147 O 0.56923 0.86882 0.87479 0.0
O148 O 0.50131 0.86073 0.94195 0.0
O149 O 0.55753 0.82257 0.91095 0.0
O150 O 0.54643 0.89557 0.87561 0.0
O151 O 0.48155 0.77665 0.91622 0.0
O152 O 0.45377 0.83643 0.8839 0.0
O153 O 0.51934 0.82261 0.84477 0.0
Sc154 Sc 0.6627 0.48622 0.42409 0.0
Sc155 Sc 0.70461 0.53859 0.3816 0.0
Sc156 Sc 0.62695 0.50514 0.38231 0.0
O157 O 0.66476 0.51002 0.39593 0.0
C158 C 0.61085 0.43984 0.39131 0.0
C159 C 0.71189 0.48391 0.39282 0.0
C160 C 0.66555 0.51615 0.33605 0.0
C161 C 0.71878 0.54751 0.4359 0.0
C162 C 0.60958 0.49543 0.43672 0.0
C163 C 0.67058 0.57405 0.38352 0.0
O164 O 0.62857 0.44698 0.40835 0.0
O165 O 0.71896 0.50685 0.38094 0.0
O166 O 0.64174 0.50923 0.34659 0.0
O167 O 0.69658 0.52346 0.44199 0.0
O168 O 0.60444 0.4986 0.41558 0.0
O169 O 0.69389 0.57286 0.3809 0.0
O170 O 0.63178 0.49369 0.44272 0.0
O171 O 0.7252 0.5553 0.41478 0.0
O172 O 0.64493 0.55177 0.38518 0.0
O173 O 0.69291 0.47495 0.40901 0.0
O174 O 0.60779 0.45832 0.37908 0.0
O175 O 0.68974 0.52585 0.3466 0.0
Sc176 Sc 0.16325 0.66829 0.93119 0.0
Sc177 Sc 0.16077 0.70903 0.88364 0.0
Sc178 Sc 0.11644 0.63207 0.88537 0.0
O179 O 0.14705 0.67001 0.89996 0.0
C180 C 0.1615 0.61481 0.90243 0.0
C181 C 0.21994 0.71573 0.9036 0.0
C182 C 0.14873 0.66927 0.83952 0.0
C183 C 0.15885 0.72623 0.93651 0.0
C184 C 0.10166 0.61549 0.93966 0.0
C185 C 0.0913 0.6748 0.87986 0.0
O186 O 0.16708 0.63102 0.92041 0.0
O187 O 0.20625 0.7233 0.88956 0.0
O188 O 0.12902 0.64662 0.84983 0.0
O189 O 0.16059 0.70479 0.94478 0.0
O190 O 0.09853 0.60892 0.91813 0.0
O191 O 0.11621 0.69748 0.87646 0.0
O192 O 0.12118 0.64049 0.94669 0.0
O193 O 0.15888 0.73092 0.9148 0.0
O194 O 0.0873 0.64949 0.88522 0.0
O195 O 0.20721 0.69616 0.91918 0.0
O196 O 0.14575 0.6148 0.88559 0.0
O197 O 0.16488 0.69307 0.8502 0.0
Sc198 Sc 0.4916 0.17484 0.42927 0.0
Sc199 Sc 0.43834 0.1609 0.38672 0.0
Sc200 Sc 0.47518 0.12 0.38834 0.0
O201 O 0.46833 0.15194 0.40137 0.0
C202 C 0.53913 0.17147 0.39616 0.0
C203 C 0.49135 0.22431 0.39701 0.0
C204 C 0.46146 0.14449 0.34149 0.0
C205 C 0.42895 0.1669 0.44082 0.0
C206 C 0.48653 0.11474 0.44289 0.0
C207 C 0.40622 0.09142 0.39059 0.0
O208 O 0.53146 0.18096 0.4137 0.0
O209 O 0.46821 0.20756 0.38573 0.0
O210 O 0.46867 0.128 0.35234 0.0
O211 O 0.45376 0.17068 0.4469 0.0
O212 O 0.48457 0.10669 0.42174 0.0
O213 O 0.406 0.115 0.38621 0.0
O214 O 0.48542 0.13736 0.44874 0.0
O215 O 0.42068 0.16402 0.41975 0.0
O216 O 0.42936 0.08966 0.39301 0.0
O217 O 0.50137 0.21533 0.41315 0.0
O218 O 0.52121 0.1499 0.38373 0.0
O219 O 0.45191 0.15929 0.35186 0.0
Sc220 Sc 0.31064 0.49154 0.92641 0.0
Sc221 Sc 0.27141 0.44548 0.88033 0.0
Sc222 Sc 0.34907 0.48468 0.87925 0.0
O223 O 0.31055 0.47388 0.89524 0.0
C224 C 0.35921 0.54606 0.89766 0.0
C225 C 0.25735 0.49223 0.89998 0.0
C226 C 0.30954 0.47744 0.83501 0.0
C227 C 0.25857 0.42805 0.93434 0.0
C228 C 0.3684 0.48701 0.9324 0.0
C229 C 0.30939 0.41504 0.87296 0.0
O230 O 0.33946 0.53489 0.91334 0.0
O231 O 0.25571 0.47597 0.88302 0.0
O232 O 0.33404 0.4885 0.84532 0.0
O233 O 0.28235 0.44951 0.94164 0.0
O234 O 0.37174 0.4841 0.91078 0.0
O235 O 0.2848 0.41342 0.87655 0.0
O236 O 0.34707 0.48916 0.94023 0.0
O237 O 0.25065 0.42541 0.91313 0.0
O238 O 0.334 0.4389 0.87305 0.0
O239 O 0.27419 0.49713 0.91729 0.0
O240 O 0.36563 0.53086 0.88416 0.0
O241 O 0.28547 0.46103 0.84534 0.0
Sc242 Sc 0.80631 0.31532 0.42582 0.0
Sc243 Sc 0.81648 0.27389 0.38274 0.0
Sc244 Sc 0.86077 0.35162 0.38396 0.0
O245 O 0.82788 0.31359 0.39741 0.0
C246 C 0.81109 0.36693 0.39297 0.0
C247 C 0.75477 0.26661 0.39437 0.0
C248 C 0.83428 0.31368 0.33729 0.0
C249 C 0.81118 0.25898 0.43711 0.0
C250 C 0.86822 0.36883 0.43839 0.0
C251 C 0.88588 0.30784 0.38533 0.0
O252 O 0.80087 0.34933 0.41019 0.0
O253 O 0.77057 0.26007 0.38184 0.0
O254 O 0.85091 0.33728 0.34813 0.0
O255 O 0.81016 0.28156 0.44344 0.0
O256 O 0.8764 0.37421 0.41721 0.0
O257 O 0.86141 0.28455 0.38242 0.0
O258 O 0.84456 0.34632 0.44441 0.0
O259 O 0.81178 0.25244 0.41588 0.0
O260 O 0.88932 0.33356 0.38707 0.0
O261 O 0.76486 0.28489 0.41101 0.0
O262 O 0.83266 0.37024 0.38063 0.0
O263 O 0.81938 0.28931 0.34765 0.0
Sc264 Sc 0.86026 0.49798 0.88361 0.0
Sc265 Sc 0.82483 0.5401 0.88229 0.0
Sc266 Sc 0.81448 0.49438 0.92938 0.0
O267 O 0.83342 0.5108 0.89832 0.0
C268 C 0.80602 0.43826 0.90192 0.0
C269 C 0.8309 0.50649 0.83805 0.0
C270 C 0.76306 0.49698 0.90157 0.0
C271 C 0.89297 0.5676 0.87612 0.0
C272 C 0.87463 0.49465 0.93716 0.0
C273 C 0.82938 0.55897 0.93594 0.0
O274 O 0.82873 0.45235 0.88918 0.0
O275 O 0.82388 0.5238 0.8477 0.0
O276 O 0.774 0.4922 0.91962 0.0
O277 O 0.89267 0.54318 0.87681 0.0
O278 O 0.85123 0.49336 0.94418 0.0
O279 O 0.82413 0.56113 0.91461 0.0
O280 O 0.8821 0.49805 0.91578 0.0
O281 O 0.87059 0.57041 0.87914 0.0
O282 O 0.83097 0.53726 0.94381 0.0
O283 O 0.84286 0.49439 0.84913 0.0
O284 O 0.79744 0.4505 0.91666 0.0
O285 O 0.77841 0.51132 0.88416 0.0
Sc286 Sc 0.35344 0.86629 0.38078 0.0
Sc287 Sc 0.27568 0.82375 0.37914 0.0
Sc288 Sc 0.31553 0.81147 0.42218 0.0
O289 O 0.31489 0.83388 0.39395 0.0
C290 C 0.36631 0.81465 0.38926 0.0
C291 C 0.31586 0.84084 0.33391 0.0
C292 C 0.2658 0.76098 0.39057 0.0
C293 C 0.31128 0.89328 0.38199 0.0
C294 C 0.37023 0.87273 0.43516 0.0
C295 C 0.26068 0.81872 0.43355 0.0
O296 O 0.37092 0.83711 0.37751 0.0
O297 O 0.29126 0.82652 0.34405 0.0
O298 O 0.28382 0.77047 0.40737 0.0
O299 O 0.33667 0.89601 0.38375 0.0
O300 O 0.34771 0.84893 0.44095 0.0
O301 O 0.25429 0.81941 0.4123 0.0
O302 O 0.37561 0.88142 0.41412 0.0
O303 O 0.28766 0.86909 0.37915 0.0
O304 O 0.28285 0.81704 0.43993 0.0
O305 O 0.33944 0.85679 0.34495 0.0
O306 O 0.34826 0.8043 0.40618 0.0
O307 O 0.26042 0.77748 0.37788 0.0
Sc308 Sc 0.48228 0.36553 0.88554 0.0
Sc309 Sc 0.45039 0.28861 0.88394 0.0
Sc310 Sc 0.49518 0.32976 0.93056 0.0
O311 O 0.47601 0.32776 0.89989 0.0
C312 C 0.54532 0.38354 0.90098 0.0
C313 C 0.47672 0.32838 0.83954 0.0
C314 C 0.50356 0.28203 0.9025 0.0
C315 C 0.41445 0.32234 0.88158 0.0
C316 C 0.48581 0.38222 0.93984 0.0
C317 C 0.43325 0.27183 0.93721 0.0
O318 O 0.52895 0.38334 0.88456 0.0
O319 O 0.46962 0.30462 0.85019 0.0
O320 O 0.51114 0.30196 0.91785 0.0
O321 O 0.43566 0.34771 0.88678 0.0
O322 O 0.48119 0.35744 0.94679 0.0
O323 O 0.42761 0.26693 0.91562 0.0
O324 O 0.48835 0.38871 0.9183 0.0
O325 O 0.41702 0.29995 0.87754 0.0
O326 O 0.45678 0.29327 0.94491 0.0
O327 O 0.47935 0.35086 0.84995 0.0
O328 O 0.53549 0.36718 0.91897 0.0
O329 O 0.48172 0.27428 0.88909 0.0
Sc330 Sc 0.11198 0.48104 0.38426 0.0
Sc331 Sc 0.15165 0.44299 0.38178 0.0
Sc332 Sc 0.16697 0.49631 0.42471 0.0
O333 O 0.14358 0.47344 0.39684 0.0
C334 C 0.16469 0.54464 0.39191 0.0
C335 C 0.13567 0.46717 0.33704 0.0
C336 C 0.21556 0.49454 0.39227 0.0
C337 C 0.08244 0.41188 0.38616 0.0
C338 C 0.10755 0.49273 0.43877 0.0
C339 C 0.15717 0.43284 0.43584 0.0
O340 O 0.14251 0.52708 0.37985 0.0
O341 O 0.1502 0.4571 0.34708 0.0
O342 O 0.20711 0.50475 0.40867 0.0
O343 O 0.08109 0.43524 0.38887 0.0
O344 O 0.13018 0.49158 0.44439 0.0
O345 O 0.15448 0.42484 0.41468 0.0
O346 O 0.09914 0.49051 0.41774 0.0
O347 O 0.10574 0.41134 0.38142 0.0
O348 O 0.16134 0.45778 0.44215 0.0
O349 O 0.11954 0.47459 0.34819 0.0
O350 O 0.17431 0.53659 0.4091 0.0
O351 O 0.19827 0.47195 0.38063 0.0
Sc352 Sc 0.62059 0.11857 0.88821 0.0
Sc353 Sc 0.69766 0.15966 0.8871 0.0
Sc354 Sc 0.65794 0.16384 0.93464 0.0
O355 O 0.65894 0.14755 0.90322 0.0
C356 C 0.60801 0.16738 0.90496 0.0
C357 C 0.6592 0.15025 0.84275 0.0
C358 C 0.70749 0.21979 0.90766 0.0
C359 C 0.66044 0.09015 0.883 0.0
C360 C 0.60266 0.10349 0.9422 0.0
C361 C 0.71335 0.15535 0.93999 0.0
O362 O 0.60636 0.1504 0.88843 0.0
O363 O 0.68293 0.16537 0.85375 0.0
O364 O 0.68805 0.20756 0.92337 0.0
O365 O 0.63559 0.08734 0.88832 0.0
O366 O 0.62783 0.12207 0.94955 0.0
O367 O 0.71836 0.15602 0.91828 0.0
O368 O 0.59641 0.10112 0.92063 0.0
O369 O 0.68378 0.11455 0.87959 0.0
O370 O 0.69242 0.15791 0.94835 0.0
O371 O 0.63598 0.13094 0.85272 0.0
O372 O 0.62314 0.17131 0.92336 0.0
O373 O 0.71398 0.20553 0.89327 0.0
Sc374 Sc 0.49493 0.62147 0.37961 0.0
Sc375 Sc 0.53034 0.69913 0.3769 0.0
Sc376 Sc 0.47697 0.65998 0.41951 0.0
O377 O 0.50073 0.66023 0.39191 0.0
C378 C 0.4305 0.60852 0.38643 0.0
C379 C 0.50848 0.6587 0.33213 0.0
C380 C 0.47736 0.70959 0.38694 0.0
C381 C 0.56369 0.66314 0.382 0.0
C382 C 0.48282 0.60546 0.43418 0.0
C383 C 0.5391 0.71506 0.43103 0.0
O384 O 0.44869 0.60435 0.37477 0.0
O385 O 0.51729 0.68318 0.3421 0.0
O386 O 0.46749 0.69089 0.40332 0.0
O387 O 0.54091 0.63799 0.38467 0.0
O388 O 0.48262 0.62872 0.43948 0.0
O389 O 0.54734 0.72051 0.4099 0.0
O390 O 0.48573 0.59934 0.41326 0.0
O391 O 0.56326 0.68646 0.37704 0.0
O392 O 0.51453 0.69366 0.43724 0.0
O393 O 0.50167 0.63536 0.34341 0.0
O394 O 0.43767 0.62631 0.40349 0.0
O395 O 0.50018 0.71545 0.37533 0.0
Sc396 Sc 0.4931 0.17454 0.07719 0.0
Sc397 Sc 0.44263 0.16542 0.12099 0.0
Sc398 Sc 0.47633 0.12119 0.11983 0.0
O399 O 0.47063 0.15367 0.10612 0.0
C400 C 0.48352 0.11177 0.06534 0.0
C401 C 0.43193 0.16979 0.06668 0.0
C402 C 0.40728 0.09583 0.12031 0.0
C403 C 0.49678 0.2269 0.10831 0.0
C404 C 0.54109 0.17044 0.10874 0.0
C405 C 0.46607 0.14873 0.16634 0.0
O406 O 0.48543 0.13575 0.05913 0.0
O407 O 0.42543 0.16992 0.088 0.0
O408 O 0.42962 0.09248 0.11892 0.0
O409 O 0.50445 0.21636 0.0916 0.0
O410 O 0.52332 0.149 0.12143 0.0
O411 O 0.45535 0.16263 0.15614 0.0
O412 O 0.53303 0.18056 0.09196 0.0
O413 O 0.47486 0.21148 0.12135 0.0
O414 O 0.4739 0.13281 0.15541 0.0
O415 O 0.45512 0.17021 0.06008 0.0
O416 O 0.48097 0.10396 0.08659 0.0
O417 O 0.40832 0.12043 0.12171 0.0
Sc418 Sc 0.30876 0.4896 0.56932 0.0
Sc419 Sc 0.26986 0.44457 0.61653 0.0
Sc420 Sc 0.34767 0.48194 0.61535 0.0
O421 O 0.30879 0.47193 0.60048 0.0
C422 C 0.36464 0.48377 0.56105 0.0
C423 C 0.25401 0.42616 0.5632 0.0
C424 C 0.30724 0.41275 0.62129 0.0
C425 C 0.25907 0.49459 0.598 0.0
C426 C 0.35955 0.54353 0.59771 0.0
C427 C 0.30961 0.47535 0.66094 0.0
O428 O 0.34114 0.48184 0.55363 0.0
O429 O 0.24792 0.42267 0.58479 0.0
O430 O 0.33234 0.43574 0.6189 0.0
O431 O 0.27663 0.50039 0.58099 0.0
O432 O 0.36376 0.52828 0.6128 0.0
O433 O 0.28504 0.46189 0.65078 0.0
O434 O 0.34158 0.53234 0.58089 0.0
O435 O 0.25449 0.47527 0.61326 0.0
O436 O 0.33359 0.48328 0.65039 0.0
O437 O 0.2763 0.44861 0.55503 0.0
O438 O 0.37019 0.48448 0.58271 0.0
O439 O 0.28291 0.41234 0.621 0.0
Sc440 Sc 0.80926 0.31277 0.07209 0.0
Sc441 Sc 0.81995 0.2745 0.11763 0.0
Sc442 Sc 0.86086 0.35212 0.11481 0.0
O443 O 0.82996 0.31306 0.10162 0.0
C444 C 0.86966 0.36815 0.06008 0.0
C445 C 0.81739 0.25764 0.06391 0.0
C446 C 0.88946 0.3116 0.11579 0.0
C447 C 0.75751 0.2637 0.10344 0.0
C448 C 0.80978 0.36404 0.10296 0.0
C449 C 0.83476 0.31517 0.16205 0.0
O450 O 0.84788 0.3441 0.05372 0.0
O451 O 0.81794 0.25239 0.08545 0.0
O452 O 0.89144 0.33653 0.11256 0.0
O453 O 0.76768 0.28174 0.08659 0.0
O454 O 0.83032 0.36793 0.11678 0.0
O455 O 0.82025 0.29054 0.15206 0.0
O456 O 0.80176 0.34657 0.08562 0.0
O457 O 0.77349 0.25839 0.11683 0.0
O458 O 0.85135 0.33854 0.15088 0.0
O459 O 0.81517 0.27913 0.05641 0.0
O460 O 0.87606 0.3744 0.08145 0.0
O461 O 0.86567 0.28784 0.11972 0.0
Sc462 Sc 0.48611 0.81635 0.56966 0.0
Sc463 Sc 0.53315 0.8212 0.61482 0.0
Sc464 Sc 0.5007 0.86595 0.61426 0.0
O465 O 0.50674 0.83437 0.59968 0.0
C466 C 0.49479 0.87788 0.55999 0.0
C467 C 0.54756 0.81997 0.5611 0.0
C468 C 0.5688 0.89102 0.61612 0.0
C469 C 0.47868 0.76127 0.59858 0.0
C470 C 0.43714 0.81882 0.60147 0.0
C471 C 0.50843 0.83531 0.66 0.0
O472 O 0.49886 0.85741 0.55296 0.0
O473 O 0.55404 0.82099 0.58251 0.0
O474 O 0.54716 0.89487 0.61192 0.0
O475 O 0.47097 0.77333 0.58314 0.0
O476 O 0.45431 0.83674 0.61669 0.0
O477 O 0.51582 0.81906 0.64909 0.0
O478 O 0.44602 0.8125 0.58282 0.0
O479 O 0.50134 0.77527 0.61118 0.0
O480 O 0.50494 0.85477 0.64981 0.0
O481 O 0.52392 0.8182 0.55405 0.0
O482 O 0.49318 0.88239 0.58159 0.0
O483 O 0.56676 0.86621 0.61987 0.0
Sc484 Sc 0.66861 0.49449 0.0706 0.0
Sc485 Sc 0.70873 0.54096 0.11672 0.0
Sc486 Sc 0.63125 0.50776 0.1149 0.0
O487 O 0.66953 0.51447 0.10083 0.0
C488 C 0.61524 0.504 0.06044 0.0
C489 C 0.72578 0.55598 0.06298 0.0
C490 C 0.67498 0.57671 0.11797 0.0
C491 C 0.7161 0.48778 0.10092 0.0
C492 C 0.61588 0.44393 0.10045 0.0
C493 C 0.66777 0.51487 0.16135 0.0
O494 O 0.63794 0.50373 0.05354 0.0
O495 O 0.73157 0.56036 0.08457 0.0
O496 O 0.64924 0.55459 0.11583 0.0
O497 O 0.69884 0.48193 0.08375 0.0
O498 O 0.61266 0.4608 0.11459 0.0
O499 O 0.69252 0.52599 0.15136 0.0
O500 O 0.634 0.45335 0.08352 0.0
O501 O 0.72164 0.5082 0.11536 0.0
O502 O 0.64438 0.50801 0.15037 0.0
O503 O 0.70291 0.53382 0.0552 0.0
O504 O 0.6097 0.50472 0.08193 0.0
O505 O 0.69838 0.57539 0.11906 0.0
Sc506 Sc 0.16717 0.67041 0.5747 0.0
Sc507 Sc 0.1584 0.71025 0.62003 0.0
Sc508 Sc 0.11619 0.63259 0.61813 0.0
O509 O 0.14736 0.6712 0.60442 0.0
C510 C 0.1065 0.61588 0.56361 0.0
C511 C 0.16087 0.72659 0.5662 0.0
C512 C 0.08882 0.67419 0.61915 0.0
C513 C 0.21998 0.71908 0.60516 0.0
C514 C 0.16562 0.61869 0.60566 0.0
C515 C 0.14384 0.67006 0.66476 0.0
O516 O 0.12774 0.64015 0.55694 0.0
O517 O 0.16024 0.73217 0.58766 0.0
O518 O 0.08629 0.64902 0.61584 0.0
O519 O 0.20919 0.70041 0.58881 0.0
O520 O 0.14604 0.61594 0.62015 0.0
O521 O 0.15868 0.69452 0.65452 0.0
O522 O 0.17323 0.63566 0.58801 0.0
O523 O 0.20465 0.72557 0.61835 0.0
O524 O 0.12639 0.64678 0.65391 0.0
O525 O 0.16275 0.7048 0.55901 0.0
O526 O 0.10068 0.60969 0.58507 0.0
O527 O 0.11291 0.6977 0.62288 0.0
H528 H 0.0933 0.62051 0.98634 0.0
H529 H 0.10039 0.47951 0.01457 0.0
H530 H 0.07929 0.55648 0.93349 0.0
H531 H 0.07937 0.52428 0.06751 0.0
H532 H 0.08776 0.50432 0.9846 0.0
H533 H 0.08314 0.58356 0.01633 0.0
C534 C 0.08728 0.59846 0.98101 0.0
C535 C 0.08745 0.59175 0.95732 0.0
C536 C 0.08517 0.50819 0.00276 0.0
C537 C 0.07659 0.5495 0.99165 0.0
C538 C 0.09232 0.49394 0.0199 0.0
C539 C 0.09108 0.49991 0.0436 0.0
C540 C 0.07748 0.5292 0.00932 0.0
C541 C 0.08056 0.51893 0.04946 0.0
C542 C 0.08154 0.57736 0.99817 0.0
C543 C 0.07948 0.56275 0.9515 0.0
N544 N 0.07486 0.53344 0.03245 0.0
N545 N 0.07509 0.54294 0.96853 0.0
H546 H 0.54818 0.08733 0.57432 0.0
H547 H 0.51893 0.08752 0.43736 0.0
H548 H 0.61323 0.10517 0.52145 0.0
H549 H 0.47594 0.11131 0.48994 0.0
H550 H 0.54369 0.07594 0.46827 0.0
H551 H 0.51215 0.07785 0.54354 0.0
C552 C 0.55457 0.08807 0.55627 0.0
C553 C 0.58375 0.09707 0.55042 0.0
C554 C 0.52827 0.08302 0.473 0.0
C555 C 0.54278 0.08653 0.51521 0.0
C556 C 0.51393 0.0894 0.45539 0.0
C557 C 0.49547 0.10063 0.46105 0.0
C558 C 0.52377 0.08742 0.49646 0.0
C559 C 0.49015 0.10294 0.48477 0.0
C560 C 0.5341 0.08301 0.53873 0.0
C561 C 0.59096 0.09831 0.5267 0.0
N562 N 0.5044 0.09664 0.50158 0.0
N563 N 0.57073 0.09337 0.50998 0.0
H564 H 0.42718 0.52093 0.92436 0.0
H565 H 0.46025 0.54878 0.06082 0.0
H566 H 0.3647 0.47199 0.97841 0.0
H567 H 0.50289 0.61525 0.00795 0.0
H568 H 0.4354 0.51227 0.03011 0.0
H569 H 0.46467 0.5464 0.95433 0.0
C570 C 0.42166 0.51462 0.94244 0.0
C571 C 0.39273 0.4944 0.94891 0.0
C572 C 0.45077 0.53472 0.02526 0.0
C573 C 0.43537 0.52369 0.98324 0.0
C574 C 0.46517 0.55557 0.04278 0.0
C575 C 0.48346 0.58525 0.03699 0.0
C576 C 0.45497 0.54351 0.00178 0.0
C577 C 0.48874 0.59269 0.01324 0.0
C578 C 0.44298 0.52944 0.95955 0.0
C579 C 0.38671 0.48752 0.97268 0.0
N580 N 0.47433 0.57206 0.99653 0.0
N581 N 0.40772 0.50237 0.98899 0.0
H582 H 0.90579 0.46582 0.56855 0.0
H583 H 0.87371 0.36071 0.48474 0.0
H584 H 0.87783 0.50392 0.51494 0.0
H585 H 0.89562 0.42854 0.43354 0.0
H586 H 0.88689 0.39704 0.51562 0.0
H587 H 0.91486 0.4382 0.53857 0.0
C588 C 0.90227 0.46901 0.55044 0.0
C589 C 0.8905 0.48689 0.54436 0.0
C590 C 0.88991 0.40433 0.49767 0.0
C591 C 0.89998 0.45454 0.50997 0.0
C592 C 0.88226 0.38349 0.47999 0.0
C593 C 0.88364 0.39158 0.45651 0.0
C594 C 0.89846 0.4335 0.4919 0.0
C595 C 0.89451 0.42137 0.45139 0.0
C596 C 0.90701 0.45282 0.53334 0.0
C597 C 0.88646 0.49007 0.52053 0.0
N598 N 0.90076 0.44109 0.46895 0.0
N599 N 0.89082 0.47378 0.50427 0.0
H600 H 0.51681 0.89429 0.97995 0.0
H601 H 0.3688 0.88558 0.01093 0.0
H602 H 0.46437 0.90587 0.92806 0.0
H603 H 0.43547 0.90583 0.0627 0.0
H604 H 0.40572 0.89902 0.98035 0.0
H605 H 0.49111 0.90519 0.01039 0.0
C606 C 0.50057 0.90013 0.97491 0.0
C607 C 0.49262 0.89896 0.9514 0.0
C608 C 0.41247 0.90123 0.9984 0.0
C609 C 0.46226 0.91037 0.98627 0.0
C610 C 0.39136 0.89356 0.0159 0.0
C611 C 0.39895 0.8943 0.03945 0.0
C612 C 0.44131 0.90903 0.00441 0.0
C613 C 0.42858 0.90488 0.04481 0.0
C614 C 0.48575 0.90619 0.99232 0.0
C615 C 0.47129 0.90658 0.94592 0.0
N616 N 0.44852 0.91115 0.02743 0.0
N617 N 0.45632 0.91117 0.96324 0.0
H618 H 0.55006 0.46414 0.43132 0.0
H619 H 0.52309 0.43691 0.56861 0.0
H620 H 0.61705 0.508 0.48333 0.0
H621 H 0.47302 0.37175 0.51659 0.0
H622 H 0.549 0.47244 0.53746 0.0
H623 H 0.51384 0.44018 0.46256 0.0
C624 C 0.55697 0.46958 0.44929 0.0
C625 C 0.58667 0.48797 0.45474 0.0
C626 C 0.53184 0.45055 0.53292 0.0
C627 C 0.54541 0.46052 0.49048 0.0
C628 C 0.51682 0.43028 0.55069 0.0
C629 C 0.49603 0.40112 0.54524 0.0
C630 C 0.52579 0.44177 0.50952 0.0
C631 C 0.48909 0.39387 0.52162 0.0
C632 C 0.53634 0.45566 0.46709 0.0
C633 C 0.59442 0.49384 0.47835 0.0
N634 N 0.50414 0.41394 0.50464 0.0
N635 N 0.574 0.47997 0.49534 0.0
H636 H 0.89783 0.45907 0.92969 0.0
H637 H 0.89833 0.42777 0.06614 0.0
H638 H 0.8837 0.50776 0.9836 0.0
H639 H 0.87347 0.36166 0.01289 0.0
H640 H 0.91107 0.46482 0.03565 0.0
H641 H 0.90729 0.43175 0.95983 0.0
C642 C 0.89794 0.46489 0.94781 0.0
C643 C 0.88987 0.48567 0.95415 0.0
C644 C 0.90348 0.44231 0.03067 0.0
C645 C 0.90034 0.4543 0.98866 0.0
C646 C 0.89641 0.42114 0.04806 0.0
C647 C 0.88448 0.39143 0.04211 0.0
C648 C 0.89902 0.43383 0.00714 0.0
C649 C 0.8823 0.38422 0.01831 0.0
C650 C 0.90297 0.44902 0.965 0.0
C651 C 0.88977 0.49187 0.97796 0.0
N652 N 0.88919 0.40519 0.00172 0.0
N653 N 0.89458 0.47606 0.99434 0.0
H654 H 0.45779 0.89974 0.5664 0.0
H655 H 0.42981 0.90193 0.42956 0.0
H656 H 0.50817 0.88648 0.51336 0.0
H657 H 0.36265 0.87599 0.48207 0.0
H658 H 0.46623 0.91422 0.46049 0.0
H659 H 0.4312 0.90923 0.5358 0.0
C660 C 0.46402 0.89985 0.54838 0.0
C661 C 0.4851 0.89201 0.54245 0.0
C662 C 0.44363 0.90655 0.46521 0.0
C663 C 0.45457 0.90269 0.50738 0.0
C664 C 0.42286 0.89979 0.44758 0.0
C665 C 0.39309 0.8877 0.45324 0.0
C666 C 0.43461 0.90163 0.48864 0.0
C667 C 0.38533 0.88503 0.47693 0.0
C668 C 0.4486 0.90498 0.53092 0.0
C669 C 0.49194 0.89218 0.51873 0.0
N670 N 0.40589 0.89167 0.49374 0.0
N671 N 0.47651 0.89708 0.50207 0.0
H672 H 0.62152 0.51668 0.01373 0.0
H673 H 0.47305 0.37725 0.98662 0.0
H674 H 0.55587 0.47348 0.06706 0.0
H675 H 0.52202 0.44119 0.93338 0.0
H676 H 0.5001 0.41431 0.01639 0.0
H677 H 0.58367 0.49264 0.984 0.0
C678 C 0.59899 0.50281 0.0192 0.0
C679 C 0.59193 0.49695 0.04294 0.0
C680 C 0.5044 0.42048 0.99819 0.0
C681 C 0.54859 0.46855 0.00895 0.0
C682 C 0.4889 0.39931 0.98117 0.0
C683 C 0.49542 0.40598 0.95743 0.0
C684 C 0.52712 0.44832 0.99148 0.0
C685 C 0.51623 0.43498 0.95143 0.0
C686 C 0.57736 0.489 0.0022 0.0
C687 C 0.56234 0.47869 0.04899 0.0
N688 N 0.53184 0.45484 0.96833 0.0
N689 N 0.5419 0.46455 0.03211 0.0
H690 H 0.08062 0.52536 0.43325 0.0
H691 H 0.08286 0.55677 0.56992 0.0
H692 H 0.1049 0.48295 0.48589 0.0
H693 H 0.09984 0.62135 0.51676 0.0
H694 H 0.07296 0.52044 0.53938 0.0
H695 H 0.0699 0.55095 0.46408 0.0
C696 C 0.08279 0.52067 0.45129 0.0
C697 C 0.09391 0.50213 0.45699 0.0
C698 C 0.07813 0.54238 0.53445 0.0
C699 C 0.08169 0.53138 0.49227 0.0
C700 C 0.08351 0.56309 0.55187 0.0
C701 C 0.09245 0.59227 0.5459 0.0
C702 C 0.08125 0.55077 0.51092 0.0
C703 C 0.09325 0.59919 0.52215 0.0
C704 C 0.0769 0.53549 0.46885 0.0
C705 C 0.0966 0.49721 0.4807 0.0
N706 N 0.08803 0.57868 0.50553 0.0
N707 N 0.09078 0.51192 0.49745 0.0
H708 H 0.60681 0.09261 0.98842 0.0
H709 H 0.4704 0.10661 0.01888 0.0
H710 H 0.54417 0.08383 0.93616 0.0
H711 H 0.51337 0.08196 0.07063 0.0
H712 H 0.49336 0.09263 0.98824 0.0
H713 H 0.57024 0.08285 0.01863 0.0
C714 C 0.5851 0.08782 0.98324 0.0
C715 C 0.57872 0.08938 0.95969 0.0
C716 C 0.49721 0.08952 0.00628 0.0
C717 C 0.53694 0.07898 0.9943 0.0
C718 C 0.48401 0.09744 0.02379 0.0
C719 C 0.4901 0.09562 0.04735 0.0
C720 C 0.51731 0.08046 0.01232 0.0
C721 C 0.508 0.08366 0.0527 0.0
C722 C 0.56421 0.0823 0.00053 0.0
C723 C 0.55016 0.08293 0.95405 0.0
N724 N 0.52156 0.07724 0.03533 0.0
N725 N 0.5306 0.07875 0.97125 0.0
H726 H 0.42342 0.52073 0.56712 0.0
H727 H 0.45229 0.5456 0.42974 0.0
H728 H 0.35989 0.46808 0.515 0.0
H729 H 0.49324 0.61414 0.4811 0.0
H730 H 0.4287 0.50979 0.4613 0.0
H731 H 0.45913 0.54686 0.53606 0.0
C732 C 0.41731 0.51382 0.54923 0.0
C733 C 0.3885 0.49227 0.54367 0.0
C734 C 0.44342 0.53258 0.46563 0.0
C735 C 0.42922 0.52236 0.50805 0.0
C736 C 0.4571 0.55301 0.44764 0.0
C737 C 0.47461 0.58298 0.45277 0.0
C738 C 0.44765 0.54211 0.48891 0.0
C739 C 0.47972 0.5913 0.47634 0.0
C740 C 0.43762 0.52902 0.53149 0.0
C741 C 0.38178 0.48465 0.52008 0.0
N742 N 0.46614 0.57105 0.4935 0.0
N743 N 0.40184 0.49988 0.50314 0.0
H744 H 0.25482 0.48355 0.12649 0.0
H745 H 0.39921 0.631 0.08891 0.0
H746 H 0.25697 0.55519 0.08811 0.0
H747 H 0.40279 0.5589 0.12142 0.0
H748 H 0.3466 0.60519 0.09408 0.0
H749 H 0.30849 0.51218 0.12989 0.0
C750 C 0.26654 0.50532 0.11896 0.0
C751 C 0.25155 0.51686 0.10667 0.0
C752 C 0.35873 0.59487 0.10018 0.0
C753 C 0.31236 0.54952 0.11064 0.0
C754 C 0.38882 0.6096 0.09715 0.0
C755 C 0.40523 0.59675 0.10432 0.0
C756 C 0.34468 0.5668 0.1102 0.0
C757 C 0.39076 0.56936 0.11547 0.0
C758 C 0.29706 0.52157 0.12089 0.0
C759 C 0.26765 0.54517 0.09734 0.0
N760 N 0.36108 0.555 0.11781 0.0
N761 N 0.29711 0.5604 0.09946 0.0
H762 H 0.82676 0.40934 0.64195 0.0
H763 H 0.74562 0.25478 0.64657 0.0
H764 H 0.78844 0.39651 0.57338 0.0
H765 H 0.73878 0.26117 0.57203 0.0
H766 H 0.77356 0.30833 0.64878 0.0
H767 H 0.80656 0.35631 0.64516 0.0
C768 C 0.81399 0.39539 0.62766 0.0
C769 C 0.80906 0.4074 0.60746 0.0
C770 C 0.76651 0.29806 0.6319 0.0
C771 C 0.78564 0.34685 0.61108 0.0
C772 C 0.75043 0.26745 0.63065 0.0
C773 C 0.73956 0.25355 0.60913 0.0
C774 C 0.77179 0.31462 0.61139 0.0
C775 C 0.74629 0.27092 0.58906 0.0
C776 C 0.80229 0.36507 0.62956 0.0
C777 C 0.79261 0.38837 0.5894 0.0
N778 N 0.76175 0.30047 0.59074 0.0
N779 N 0.78158 0.35916 0.59167 0.0
H780 H 0.42618 0.69207 0.0854 0.0
H781 H 0.42253 0.83586 0.12463 0.0
H782 H 0.49874 0.76399 0.12082 0.0
H783 H 0.35535 0.76404 0.08503 0.0
H784 H 0.44893 0.80847 0.128 0.0
H785 H 0.39796 0.71658 0.0899 0.0
C786 C 0.43622 0.71314 0.09412 0.0
C787 C 0.46504 0.72628 0.10238 0.0
C788 C 0.42831 0.79875 0.11873 0.0
C789 C 0.43272 0.7547 0.10756 0.0
C790 C 0.41326 0.8143 0.11685 0.0
C791 C 0.38702 0.80238 0.1042 0.0
C792 C 0.41674 0.77113 0.10806 0.0
C793 C 0.37582 0.77435 0.09453 0.0
C794 C 0.42002 0.72712 0.09677 0.0
C795 C 0.47664 0.75326 0.11403 0.0
N796 N 0.39079 0.75981 0.09659 0.0
N797 N 0.4605 0.76684 0.11606 0.0
H798 H 0.72691 0.49692 0.6296 0.0
H799 H 0.58097 0.35833 0.5833 0.0
H800 H 0.72392 0.42763 0.58715 0.0
H801 H 0.57948 0.42199 0.62996 0.0
H802 H 0.63372 0.38292 0.58671 0.0
H803 H 0.67335 0.46923 0.63231 0.0
C804 C 0.71506 0.47583 0.62102 0.0
C805 C 0.72989 0.46475 0.60785 0.0
C806 C 0.622 0.39161 0.5963 0.0
C807 C 0.66892 0.43317 0.6109 0.0
C808 C 0.59181 0.37764 0.59424 0.0
C809 C 0.57587 0.38843 0.60609 0.0
C810 C 0.63661 0.41682 0.61015 0.0
C811 C 0.59104 0.41312 0.62042 0.0
C812 C 0.68453 0.46008 0.62258 0.0
C813 C 0.71347 0.43729 0.59719 0.0
N814 N 0.62075 0.42674 0.62189 0.0
N815 N 0.68392 0.42258 0.59885 0.0
H816 H 0.14754 0.582 0.12527 0.0
H817 H 0.29087 0.7295 0.08615 0.0
H818 H 0.22298 0.5869 0.09116 0.0
H819 H 0.21911 0.73029 0.12198 0.0
H820 H 0.26681 0.67691 0.09114 0.0
H821 H 0.17387 0.63588 0.12776 0.0
C822 C 0.16969 0.59436 0.11857 0.0
C823 C 0.18294 0.58006 0.10764 0.0
C824 C 0.25619 0.68841 0.098 0.0
C825 C 0.21294 0.64117 0.11042 0.0
C826 C 0.26991 0.71854 0.09504 0.0
C827 C 0.25675 0.73426 0.10334 0.0
C828 C 0.22884 0.67357 0.10917 0.0
C829 C 0.22988 0.71891 0.11518 0.0
C830 C 0.18463 0.62502 0.11993 0.0
C831 C 0.21166 0.59701 0.0993 0.0
N832 N 0.21657 0.68923 0.11755 0.0
N833 N 0.22555 0.62657 0.10075 0.0
H834 H 0.63509 0.23285 0.59222 0.0
H835 H 0.48632 0.22706 0.63012 0.0
H836 H 0.56604 0.15973 0.62978 0.0
H837 H 0.55081 0.29102 0.58317 0.0
H838 H 0.5173 0.20481 0.63458 0.0
H839 H 0.60679 0.25769 0.59384 0.0
C840 C 0.614 0.22203 0.60091 0.0
C841 C 0.60272 0.19395 0.61057 0.0
C842 C 0.52457 0.22375 0.62336 0.0
C843 C 0.57006 0.2223 0.61236 0.0
C844 C 0.50694 0.23642 0.62079 0.0
C845 C 0.51584 0.26072 0.60605 0.0
C846 C 0.55129 0.23568 0.61126 0.0
C847 C 0.54282 0.27207 0.59447 0.0
C848 C 0.59782 0.23625 0.60182 0.0
C849 C 0.57547 0.18128 0.62195 0.0
N850 N 0.55952 0.25943 0.59731 0.0
N851 N 0.55989 0.19547 0.62235 0.0
H852 H 0.35104 0.58601 0.92199 0.0
H853 H 0.4894 0.7267 0.86721 0.0
H854 H 0.40634 0.57972 0.86923 0.0
H855 H 0.44027 0.72815 0.92713 0.0
H856 H 0.45742 0.67336 0.8651 0.0
H857 H 0.38135 0.639 0.92099 0.0
C858 C 0.3695 0.59574 0.91011 0.0
C859 C 0.37628 0.57831 0.89583 0.0
C860 C 0.45377 0.68548 0.87869 0.0
C861 C 0.41128 0.63921 0.89469 0.0
C862 C 0.472 0.71587 0.87992 0.0
C863 C 0.46761 0.73194 0.89742 0.0
C864 C 0.43099 0.67127 0.89497 0.0
C865 C 0.44467 0.71677 0.9134 0.0
C866 C 0.38687 0.62607 0.90958 0.0
C867 C 0.40038 0.5923 0.88064 0.0
N868 N 0.42726 0.68736 0.91175 0.0
N869 N 0.41715 0.622 0.88055 0.0
H870 H 0.6875 0.42542 0.39882 0.0
H871 H 0.834 0.42124 0.3722 0.0
H872 H 0.76641 0.50135 0.37424 0.0
H873 H 0.75414 0.34973 0.40032 0.0
H874 H 0.80865 0.44945 0.36691 0.0
H875 H 0.71039 0.39579 0.39326 0.0
C876 C 0.70975 0.43586 0.39223 0.0
C877 C 0.72535 0.46596 0.38744 0.0
C878 C 0.79671 0.42746 0.374 0.0
C879 C 0.75195 0.43214 0.38118 0.0
C880 C 0.8111 0.4114 0.37696 0.0
C881 C 0.79623 0.38343 0.38713 0.0
C882 C 0.76734 0.41515 0.38107 0.0
C883 C 0.76661 0.37151 0.39291 0.0
C884 C 0.72282 0.4189 0.38896 0.0
C885 C 0.75382 0.47821 0.37836 0.0
N886 N 0.75325 0.38749 0.38993 0.0
N887 N 0.76647 0.46128 0.37584 0.0
H888 H 0.25638 0.70359 0.92891 0.0
H889 H 0.40391 0.82851 0.8702 0.0
H890 H 0.25697 0.76064 0.87445 0.0
H891 H 0.39988 0.77113 0.92576 0.0
H892 H 0.35027 0.80331 0.87003 0.0
H893 H 0.30929 0.72763 0.92657 0.0
C894 C 0.26761 0.72121 0.91643 0.0
C895 C 0.25214 0.73017 0.90192 0.0
C896 C 0.36124 0.79629 0.88219 0.0
C897 C 0.31306 0.75792 0.89914 0.0
C898 C 0.39182 0.81062 0.88228 0.0
C899 C 0.40645 0.80205 0.89811 0.0
C900 C 0.34536 0.77329 0.89798 0.0
C901 C 0.38966 0.77871 0.91336 0.0
C902 C 0.29792 0.73495 0.91508 0.0
C903 C 0.26801 0.75305 0.88601 0.0
N904 N 0.36009 0.76524 0.91292 0.0
N905 N 0.2977 0.76623 0.88508 0.0
H906 H 0.555 0.40895 0.37342 0.0
H907 H 0.55012 0.25757 0.39862 0.0
H908 H 0.62779 0.39955 0.39646 0.0
H909 H 0.47276 0.26138 0.38013 0.0
H910 H 0.57984 0.30964 0.39113 0.0
H911 H 0.52548 0.35527 0.36933 0.0
C912 C 0.56484 0.39562 0.37724 0.0
C913 C 0.59361 0.40847 0.38569 0.0
C914 C 0.55639 0.29927 0.3886 0.0
C915 C 0.56039 0.34772 0.381 0.0
C916 C 0.53939 0.2695 0.39298 0.0
C917 C 0.50892 0.25539 0.39048 0.0
C918 C 0.54288 0.31536 0.38204 0.0
C919 C 0.49622 0.27168 0.38249 0.0
C920 C 0.54803 0.3651 0.37498 0.0
C921 C 0.60548 0.39044 0.39036 0.0
N922 N 0.51327 0.30109 0.3789 0.0
N923 N 0.58877 0.36104 0.3881 0.0
H924 H 0.18781 0.60241 0.93785 0.0
H925 H 0.22692 0.4983 0.86338 0.0
H926 H 0.16231 0.58129 0.86574 0.0
H927 H 0.24761 0.51963 0.93616 0.0
H928 H 0.20101 0.52623 0.86355 0.0
H929 H 0.20809 0.57015 0.93711 0.0
C930 C 0.18651 0.59102 0.92177 0.0
C931 C 0.1735 0.59478 0.90175 0.0
C932 C 0.21113 0.52458 0.87946 0.0
C933 C 0.19683 0.55746 0.90082 0.0
C934 C 0.22583 0.50862 0.8794 0.0
C935 C 0.23972 0.50689 0.89972 0.0
C936 C 0.21035 0.53872 0.89999 0.0
C937 C 0.2376 0.52063 0.91998 0.0
C938 C 0.19805 0.57243 0.9214 0.0
C939 C 0.17223 0.57909 0.88155 0.0
N940 N 0.22335 0.53602 0.91954 0.0
N941 N 0.18393 0.56116 0.88155 0.0
H942 H 0.57827 0.22868 0.40348 0.0
H943 H 0.71814 0.21427 0.37237 0.0
H944 H 0.57095 0.14934 0.37512 0.0
H945 H 0.72007 0.28942 0.4045 0.0
H946 H 0.66486 0.19201 0.36744 0.0
H947 H 0.63083 0.25341 0.39764 0.0
C948 C 0.58782 0.21649 0.39594 0.0
C949 C 0.57042 0.18682 0.39018 0.0
C950 C 0.67711 0.21348 0.37536 0.0
C951 C 0.6308 0.2149 0.38369 0.0
C952 C 0.70741 0.22615 0.37816 0.0
C953 C 0.72334 0.25341 0.38929 0.0
C954 C 0.66301 0.22844 0.38355 0.0
C955 C 0.70855 0.26805 0.39632 0.0
C956 C 0.61787 0.23063 0.39254 0.0
C957 C 0.58378 0.17222 0.37996 0.0
N958 N 0.67927 0.25531 0.39345 0.0
N959 N 0.6134 0.18632 0.37736 0.0
H960 H 0.57958 0.41249 0.86277 0.0
H961 H 0.726 0.47925 0.93861 0.0
H962 H 0.58348 0.40149 0.93706 0.0
H963 H 0.72743 0.4873 0.86363 0.0
H964 H 0.67307 0.45566 0.93801 0.0
H965 H 0.63311 0.44446 0.86233 0.0
C966 C 0.59163 0.41692 0.87895 0.0
C967 C 0.57714 0.40399 0.89992 0.0
C968 C 0.68484 0.46262 0.92163 0.0
C969 C 0.63786 0.44041 0.89956 0.0
C970 C 0.71514 0.47608 0.92197 0.0
C971 C 0.73111 0.48486 0.9011 0.0
C972 C 0.67018 0.45755 0.90024 0.0
C973 C 0.71586 0.48067 0.8801 0.0
C974 C 0.62209 0.43509 0.87868 0.0
C975 C 0.59372 0.41052 0.9204 0.0
N976 N 0.68609 0.46697 0.88016 0.0
N977 N 0.62311 0.42814 0.91966 0.0
H978 H 0.21311 0.72574 0.36859 0.0
H979 H 0.22248 0.58236 0.39781 0.0
H980 H 0.28653 0.72455 0.40074 0.0
H981 H 0.14341 0.57792 0.3722 0.0
H982 H 0.24843 0.63505 0.39215 0.0
H983 H 0.18914 0.67222 0.36359 0.0
C984 C 0.22425 0.71427 0.37437 0.0
C985 C 0.25155 0.72941 0.38549 0.0
C986 C 0.22544 0.62269 0.38763 0.0
C987 C 0.22465 0.66882 0.37966 0.0
C988 C 0.2106 0.59258 0.39091 0.0
C989 C 0.18067 0.57595 0.3859 0.0
C990 C 0.21018 0.63649 0.37961 0.0
C991 C 0.16649 0.59014 0.37646 0.0
C992 C 0.2106 0.68384 0.37153 0.0
C993 C 0.2652 0.71368 0.39254 0.0
N994 N 0.18131 0.61982 0.37394 0.0
N995 N 0.25155 0.68431 0.3896 0.0
H996 H 0.55252 0.29345 0.92695 0.0
H997 H 0.56697 0.16146 0.87237 0.0
H998 H 0.49334 0.23558 0.87427 0.0
H999 H 0.61428 0.21208 0.93269 0.0
H1000 H 0.54239 0.19055 0.86989 0.0
H1001 H 0.57857 0.26635 0.92594 0.0
C1002 C 0.545 0.27507 0.9151 0.0
C1003 C 0.52048 0.26664 0.90083 0.0
C1004 C 0.55817 0.19517 0.88363 0.0
C1005 C 0.55033 0.23532 0.89966 0.0
C1006 C 0.57219 0.17862 0.88506 0.0
C1007 C 0.59258 0.18419 0.90285 0.0
C1008 C 0.56485 0.2175 0.89998 0.0
C1009 C 0.59856 0.20674 0.91878 0.0
C1010 C 0.55991 0.25954 0.91456 0.0
C1011 C 0.51202 0.24276 0.88568 0.0
N1012 N 0.58479 0.22251 0.91694 0.0
N1013 N 0.52687 0.22779 0.88557 0.0
H1014 H 0.24914 0.47422 0.37133 0.0
H1015 H 0.39368 0.63004 0.38676 0.0
H1016 H 0.25276 0.55245 0.39853 0.0
H1017 H 0.39703 0.5515 0.3716 0.0
H1018 H 0.34085 0.60278 0.38212 0.0
H1019 H 0.30217 0.50281 0.36356 0.0
C1020 C 0.26104 0.49739 0.37547 0.0
C1021 C 0.24678 0.51093 0.38599 0.0
C1022 C 0.35301 0.5914 0.37962 0.0
C1023 C 0.3067 0.54352 0.37689 0.0
C1024 C 0.38316 0.60698 0.38227 0.0
C1025 C 0.39945 0.59275 0.38002 0.0
C1026 C 0.3389 0.56118 0.37513 0.0
C1027 C 0.385 0.56307 0.37366 0.0
C1028 C 0.29116 0.51362 0.37104 0.0
C1029 C 0.26299 0.54098 0.39088 0.0
N1030 N 0.35528 0.54798 0.37185 0.0
N1031 N 0.29204 0.55617 0.38637 0.0
H1032 H 0.75519 0.40043 0.9244 0.0
H1033 H 0.75271 0.25591 0.87845 0.0
H1034 H 0.81942 0.40243 0.8763 0.0
H1035 H 0.69555 0.25708 0.93208 0.0
H1036 H 0.77555 0.30921 0.87509 0.0
H1037 H 0.73058 0.34722 0.92452 0.0
C1038 C 0.76408 0.38971 0.91376 0.0
C1039 C 0.7896 0.40598 0.90049 0.0
C1040 C 0.75801 0.29771 0.88757 0.0
C1041 C 0.76152 0.34491 0.90067 0.0
C1042 C 0.745 0.26732 0.88954 0.0
C1043 C 0.72226 0.25199 0.90565 0.0
C1044 C 0.74809 0.31274 0.90174 0.0
C1045 C 0.71311 0.26791 0.91951 0.0
C1046 C 0.75001 0.35927 0.91388 0.0
C1047 C 0.79989 0.39079 0.88689 0.0
N1048 N 0.72605 0.29738 0.91721 0.0
N1049 N 0.78588 0.36104 0.88743 0.0
H1050 H 0.3448 0.75631 0.39234 0.0
H1051 H 0.49754 0.76419 0.36735 0.0
H1052 H 0.42195 0.83644 0.37138 0.0
H1053 H 0.41946 0.68866 0.39356 0.0
H1054 H 0.4694 0.78963 0.3623 0.0
H1055 H 0.37074 0.72971 0.38594 0.0
C1056 C 0.3673 0.76829 0.38631 0.0
C1057 C 0.38151 0.79866 0.38283 0.0
C1058 C 0.45847 0.76738 0.36891 0.0
C1059 C 0.41163 0.76837 0.3757 0.0
C1060 C 0.47446 0.75289 0.37175 0.0
C1061 C 0.46087 0.72455 0.38129 0.0
C1062 C 0.4288 0.75315 0.37546 0.0
C1063 C 0.43095 0.71075 0.38661 0.0
C1064 C 0.38212 0.75309 0.38259 0.0
C1065 C 0.4104 0.81301 0.37445 0.0
N1066 N 0.41603 0.72524 0.38375 0.0
N1067 N 0.42479 0.79777 0.37152 0.0
H1068 H 0.55555 0.25843 0.10509 0.0
H1069 H 0.62256 0.40242 0.07754 0.0
H1070 H 0.48018 0.26679 0.12166 0.0
H1071 H 0.56987 0.41211 0.13082 0.0
H1072 H 0.59485 0.34991 0.08269 0.0
H1073 H 0.58631 0.31145 0.10673 0.0
C1074 C 0.54551 0.27157 0.10904 0.0
C1075 C 0.51527 0.25845 0.11268 0.0
C1076 C 0.58969 0.36345 0.09367 0.0
C1077 C 0.55009 0.31918 0.11356 0.0
C1078 C 0.60528 0.39356 0.09051 0.0
C1079 C 0.59868 0.41185 0.10386 0.0
C1080 C 0.5673 0.35124 0.11043 0.0
C1081 C 0.57582 0.39883 0.12028 0.0
C1082 C 0.56301 0.30181 0.10978 0.0
C1083 C 0.50343 0.27629 0.11847 0.0
N1084 N 0.56073 0.36915 0.12302 0.0
N1085 N 0.52089 0.30601 0.1184 0.0
H1086 H 0.2723 0.54443 0.57438 0.0
H1087 H 0.14667 0.56722 0.63021 0.0
H1088 H 0.21425 0.48627 0.62766 0.0
H1089 H 0.21814 0.63089 0.58793 0.0
H1090 H 0.16989 0.53664 0.63041 0.0
H1091 H 0.2507 0.5752 0.57907 0.0
C1092 C 0.25483 0.53798 0.58703 0.0
C1093 C 0.24497 0.51258 0.60057 0.0
C1094 C 0.18049 0.55745 0.62131 0.0
C1095 C 0.22011 0.54816 0.60619 0.0
C1096 C 0.16735 0.5749 0.62124 0.0
C1097 C 0.18027 0.60133 0.60869 0.0
C1098 C 0.20658 0.56671 0.60874 0.0
C1099 C 0.20706 0.61037 0.59742 0.0
C1100 C 0.24261 0.55576 0.58983 0.0
C1101 C 0.22246 0.50565 0.61684 0.0
N1102 N 0.21916 0.593 0.59759 0.0
N1103 N 0.21062 0.52333 0.61915 0.0
H1104 H 0.72174 0.21294 0.128 0.0
H1105 H 0.58075 0.22729 0.10087 0.0
H1106 H 0.72123 0.2833 0.08965 0.0
H1107 H 0.57328 0.14701 0.1272 0.0
H1108 H 0.63355 0.25078 0.10377 0.0
H1109 H 0.66849 0.19059 0.13387 0.0
C1110 C 0.71049 0.2237 0.12093 0.0
C1111 C 0.72581 0.24977 0.10803 0.0
C1112 C 0.62051 0.22805 0.10902 0.0
C1113 C 0.66556 0.22477 0.11493 0.0
C1114 C 0.59031 0.21462 0.10737 0.0
C1115 C 0.57272 0.18504 0.1134 0.0
C1116 C 0.63345 0.21175 0.11647 0.0
C1117 C 0.58622 0.16985 0.12222 0.0
C1118 C 0.68022 0.21097 0.12427 0.0
C1119 C 0.71031 0.26293 0.09934 0.0
N1120 N 0.61598 0.1833 0.12319 0.0
N1121 N 0.68114 0.25027 0.10293 0.0
H1122 H 0.42034 0.72964 0.59093 0.0
H1123 H 0.35176 0.58246 0.57192 0.0
H1124 H 0.49338 0.72107 0.61472 0.0
H1125 H 0.40474 0.57818 0.62753 0.0
H1126 H 0.37906 0.63534 0.57411 0.0
H1127 H 0.38902 0.67685 0.59348 0.0
C1128 C 0.42984 0.71652 0.59647 0.0
C1129 C 0.45963 0.72957 0.60202 0.0
C1130 C 0.38433 0.62295 0.58628 0.0
C1131 C 0.42412 0.66895 0.60414 0.0
C1132 C 0.36896 0.59262 0.58482 0.0
C1133 C 0.37587 0.57577 0.59963 0.0
C1134 C 0.40673 0.63675 0.6028 0.0
C1135 C 0.39857 0.59034 0.61587 0.0
C1136 C 0.41199 0.68635 0.59775 0.0
C1137 C 0.47057 0.7117 0.60995 0.0
N1138 N 0.4134 0.62013 0.61693 0.0
N1139 N 0.4528 0.68207 0.61053 0.0
H1140 H 0.75559 0.34943 0.08753 0.0
H1141 H 0.76292 0.49797 0.12865 0.0
H1142 H 0.82834 0.41568 0.12696 0.0
H1143 H 0.69909 0.43482 0.08109 0.0
H1144 H 0.78457 0.4663 0.13271 0.0
H1145 H 0.7315 0.3783 0.09015 0.0
C1146 C 0.76651 0.37012 0.09679 0.0
C1147 C 0.79425 0.38045 0.10669 0.0
C1148 C 0.76577 0.45947 0.12148 0.0
C1149 C 0.76675 0.41384 0.10965 0.0
C1150 C 0.75342 0.47747 0.11915 0.0
C1151 C 0.72939 0.46918 0.1043 0.0
C1152 C 0.75373 0.433 0.10903 0.0
C1153 C 0.71786 0.44237 0.09248 0.0
C1154 C 0.7527 0.38661 0.09831 0.0
C1155 C 0.80703 0.40707 0.11894 0.0
N1156 N 0.73017 0.42534 0.09508 0.0
N1157 N 0.79328 0.42311 0.11987 0.0
H1158 H 0.39775 0.76521 0.58543 0.0
H1159 H 0.25661 0.77082 0.628 0.0
H1160 H 0.40451 0.83655 0.62723 0.0
H1161 H 0.25566 0.69881 0.59108 0.0
H1162 H 0.31025 0.79451 0.63083 0.0
H1163 H 0.34514 0.73972 0.59015 0.0
C1164 C 0.38805 0.77556 0.5956 0.0
C1165 C 0.40539 0.80322 0.60564 0.0
C1166 C 0.29814 0.77342 0.6223 0.0
C1167 C 0.34481 0.77409 0.61112 0.0
C1168 C 0.26763 0.75993 0.62068 0.0
C1169 C 0.25179 0.73312 0.60889 0.0
C1170 C 0.31256 0.75979 0.61214 0.0
C1171 C 0.267 0.7198 0.59986 0.0
C1172 C 0.35794 0.76091 0.59841 0.0
C1173 C 0.39175 0.81529 0.61909 0.0
N1174 N 0.29647 0.73335 0.60158 0.0
N1175 N 0.36205 0.80075 0.62122 0.0
H1176 H 0.17535 0.46016 0.19177 0.0
H1177 H 0.10749 0.48677 0.30803 0.0
H1178 H 0.114 0.49198 0.19154 0.0
H1179 H 0.16864 0.4547 0.30721 0.0
H1180 H 0.11097 0.49085 0.26553 0.0
H1181 H 0.17485 0.46047 0.23423 0.0
C1182 C 0.16188 0.46738 0.2006 0.0
C1183 C 0.14457 0.47591 0.18796 0.0
C1184 C 0.12367 0.483 0.27469 0.0
C1185 C 0.14379 0.47614 0.23678 0.0
C1186 C 0.12168 0.48062 0.29897 0.0
C1187 C 0.13769 0.47024 0.3113 0.0
C1188 C 0.1418 0.47494 0.26261 0.0
C1189 C 0.15577 0.4627 0.29854 0.0
C1190 C 0.16158 0.46751 0.22491 0.0
C1191 C 0.12766 0.48515 0.20049 0.0
N1192 N 0.15726 0.46514 0.27495 0.0
N1193 N 0.12758 0.48487 0.2242 0.0
H1194 H 0.70581 0.18495 0.81433 0.0
H1195 H 0.61331 0.12907 0.69629 0.0
H1196 H 0.61271 0.12396 0.81248 0.0
H1197 H 0.70787 0.1773 0.6985 0.0
H1198 H 0.61215 0.13221 0.7387 0.0
H1199 H 0.70618 0.18761 0.77186 0.0
C1200 C 0.68537 0.17228 0.80505 0.0
C1201 C 0.6592 0.15401 0.8171 0.0
C1202 C 0.63314 0.14221 0.72989 0.0
C1203 C 0.65958 0.15696 0.7683 0.0
C1204 C 0.63385 0.14051 0.70563 0.0
C1205 C 0.66076 0.15277 0.69372 0.0
C1206 C 0.65949 0.1564 0.74242 0.0
C1207 C 0.68661 0.16733 0.70688 0.0
C1208 C 0.68565 0.17376 0.78075 0.0
C1209 C 0.63344 0.13819 0.80401 0.0
N1210 N 0.68532 0.16866 0.73049 0.0
N1211 N 0.63431 0.13995 0.78034 0.0
H1212 H 0.51866 0.70582 0.18664 0.0
H1213 H 0.49394 0.61176 0.30294 0.0
H1214 H 0.49649 0.61496 0.18596 0.0
H1215 H 0.51872 0.70335 0.30213 0.0
H1216 H 0.4925 0.61151 0.26027 0.0
H1217 H 0.51637 0.70423 0.22905 0.0
C1218 C 0.51321 0.68546 0.19536 0.0
C1219 C 0.50789 0.66051 0.18258 0.0
C1220 C 0.49818 0.63161 0.26947 0.0
C1221 C 0.5053 0.65859 0.23144 0.0
C1222 C 0.499 0.63179 0.29386 0.0
C1223 C 0.50659 0.65765 0.30626 0.0
C1224 C 0.50496 0.65746 0.25736 0.0
C1225 C 0.51287 0.68289 0.29344 0.0
C1226 C 0.51192 0.68458 0.21966 0.0
C1227 C 0.50083 0.63477 0.19501 0.0
N1228 N 0.51197 0.68215 0.26977 0.0
N1229 N 0.49984 0.63451 0.21873 0.0
H1230 H 0.86522 0.49101 0.69309 0.0
H1231 H 0.8008 0.52292 0.8085 0.0
H1232 H 0.80252 0.52113 0.69281 0.0
H1233 H 0.85328 0.48089 0.80912 0.0
H1234 H 0.79999 0.5209 0.76602 0.0
H1235 H 0.8604 0.48603 0.7355 0.0
C1236 C 0.85038 0.49649 0.70189 0.0
C1237 C 0.83441 0.50669 0.68929 0.0
C1238 C 0.81147 0.51188 0.77544 0.0
C1239 C 0.82882 0.50105 0.73787 0.0
C1240 C 0.81194 0.51302 0.79974 0.0
C1241 C 0.8273 0.50225 0.81247 0.0
C1242 C 0.82671 0.50015 0.76369 0.0
C1243 C 0.84118 0.48952 0.80008 0.0
C1244 C 0.84758 0.49356 0.72611 0.0
C1245 C 0.81539 0.51329 0.7017 0.0
N1246 N 0.8408 0.48909 0.77639 0.0
N1247 N 0.81329 0.51053 0.72526 0.0
H1248 H 0.27087 0.8076 0.30382 0.0
H1249 H 0.3683 0.87252 0.1885 0.0
H1250 H 0.36355 0.87039 0.30502 0.0
H1251 H 0.27614 0.80786 0.18816 0.0
H1252 H 0.36762 0.87079 0.23111 0.0
H1253 H 0.27298 0.80635 0.26141 0.0
C1254 C 0.2917 0.82111 0.29522 0.0
C1255 C 0.31705 0.83924 0.30812 0.0
C1256 C 0.34759 0.8569 0.22168 0.0
C1257 C 0.31959 0.83789 0.25934 0.0
C1258 C 0.34796 0.85783 0.19732 0.0
C1259 C 0.3222 0.84042 0.18462 0.0
C1260 C 0.32128 0.83846 0.23348 0.0
C1261 C 0.29653 0.8218 0.19711 0.0
C1262 C 0.29289 0.82035 0.27094 0.0
C1263 C 0.34341 0.85612 0.29587 0.0
N1264 N 0.29672 0.82143 0.22078 0.0
N1265 N 0.34397 0.85512 0.27219 0.0
H1266 H 0.46956 0.28194 0.69409 0.0
H1267 H 0.49162 0.37499 0.8102 0.0
H1268 H 0.4894 0.3721 0.69406 0.0
H1269 H 0.47057 0.28445 0.81008 0.0
H1270 H 0.49442 0.37542 0.76773 0.0
H1271 H 0.47333 0.28361 0.73648 0.0
C1272 C 0.47487 0.30217 0.70294 0.0
C1273 C 0.47897 0.32688 0.69038 0.0
C1274 C 0.48935 0.3555 0.777 0.0
C1275 C 0.48324 0.32886 0.73913 0.0
C1276 C 0.48776 0.35522 0.8013 0.0
C1277 C 0.48064 0.32956 0.81384 0.0
C1278 C 0.48374 0.32994 0.76503 0.0
C1279 C 0.476 0.30471 0.80123 0.0
C1280 C 0.47701 0.30309 0.72721 0.0
C1281 C 0.48594 0.35247 0.70294 0.0
N1282 N 0.47747 0.30549 0.77755 0.0
N1283 N 0.48769 0.35273 0.72659 0.0
H1284 H 0.48223 0.85821 0.80588 0.0
H1285 H 0.51774 0.79907 0.68876 0.0
H1286 H 0.51957 0.80148 0.8049 0.0
H1287 H 0.49039 0.86395 0.68997 0.0
H1288 H 0.51353 0.79564 0.73116 0.0
H1289 H 0.47977 0.85613 0.76341 0.0
C1290 C 0.48966 0.84507 0.7968 0.0
C1291 C 0.50135 0.83018 0.80909 0.0
C1292 C 0.50834 0.81054 0.72214 0.0
C1293 C 0.49869 0.82786 0.76028 0.0
C1294 C 0.51071 0.81252 0.69788 0.0
C1295 C 0.5046 0.83199 0.68568 0.0
C1296 C 0.49972 0.82809 0.73439 0.0
C1297 C 0.49551 0.84876 0.69857 0.0
C1298 C 0.48833 0.844 0.77249 0.0
C1299 C 0.51056 0.81348 0.79624 0.0
N1300 N 0.49345 0.84648 0.72219 0.0
N1301 N 0.50918 0.81291 0.77256 0.0
H1302 H 0.6194 0.49416 0.18969 0.0
H1303 H 0.71175 0.52769 0.3074 0.0
H1304 H 0.71272 0.52743 0.19173 0.0
H1305 H 0.61909 0.49796 0.30591 0.0
H1306 H 0.71166 0.52443 0.26507 0.0
H1307 H 0.61809 0.4919 0.23218 0.0
C1308 C 0.63961 0.50081 0.19902 0.0
C1309 C 0.66628 0.51121 0.18703 0.0
C1310 C 0.69131 0.51853 0.27399 0.0
C1311 C 0.66486 0.50874 0.23579 0.0
C1312 C 0.69132 0.5204 0.29822 0.0
C1313 C 0.66539 0.51326 0.31033 0.0
C1314 C 0.66521 0.50948 0.26164 0.0
C1315 C 0.63963 0.50381 0.29737 0.0
C1316 C 0.63882 0.49955 0.22332 0.0
C1317 C 0.69168 0.51941 0.20015 0.0
N1318 N 0.64022 0.5023 0.27372 0.0
N1319 N 0.69035 0.51813 0.2238 0.0
H1320 H 0.18606 0.71388 0.81038 0.0
H1321 H 0.11454 0.62245 0.69371 0.0
H1322 H 0.11756 0.62302 0.8098 0.0
H1323 H 0.17946 0.71461 0.69451 0.0
H1324 H 0.11817 0.62126 0.73607 0.0
H1325 H 0.18697 0.71337 0.76785 0.0
C1326 C 0.17137 0.69372 0.80137 0.0
C1327 C 0.15155 0.6685 0.8138 0.0
C1328 C 0.1317 0.64171 0.72697 0.0
C1329 C 0.1524 0.66786 0.76494 0.0
C1330 C 0.12964 0.64244 0.70273 0.0
C1331 C 0.14659 0.66873 0.69043 0.0
C1332 C 0.15084 0.66745 0.73908 0.0
C1333 C 0.16583 0.69386 0.70318 0.0
C1334 C 0.17186 0.69349 0.77704 0.0
C1335 C 0.13312 0.64305 0.80105 0.0
N1336 N 0.16735 0.6926 0.72677 0.0
N1337 N 0.13389 0.64345 0.77735 0.0
H1338 H 0.44864 0.17779 0.31238 0.0
H1339 H 0.48563 0.12038 0.19508 0.0
H1340 H 0.47999 0.11602 0.31156 0.0
H1341 H 0.45139 0.17976 0.19668 0.0
H1342 H 0.48625 0.12043 0.23763 0.0
H1343 H 0.45185 0.18042 0.27005 0.0
C1344 C 0.45625 0.16476 0.30335 0.0
C1345 C 0.46394 0.14654 0.31568 0.0
C1346 C 0.47871 0.13353 0.22866 0.0
C1347 C 0.46768 0.14953 0.26691 0.0
C1348 C 0.47839 0.13358 0.20432 0.0
C1349 C 0.46831 0.15001 0.19216 0.0
C1350 C 0.4689 0.15002 0.24103 0.0
C1351 C 0.45926 0.16667 0.2052 0.0
C1352 C 0.45808 0.16631 0.2791 0.0
C1353 C 0.47374 0.13031 0.30286 0.0
N1354 N 0.45968 0.16616 0.22888 0.0
N1355 N 0.47525 0.13214 0.27918 0.0
H1356 H 0.35753 0.50368 0.68956 0.0
H1357 H 0.26185 0.45884 0.80632 0.0
H1358 H 0.26296 0.45899 0.69053 0.0
H1359 H 0.35646 0.50659 0.80544 0.0
H1360 H 0.26192 0.46237 0.76392 0.0
H1361 H 0.35765 0.50849 0.73188 0.0
C1362 C 0.33678 0.49505 0.69861 0.0
C1363 C 0.31017 0.48065 0.68639 0.0
C1364 C 0.28267 0.47229 0.77301 0.0
C1365 C 0.3102 0.48602 0.73498 0.0
C1366 C 0.28266 0.47029 0.79727 0.0
C1367 C 0.3092 0.48217 0.80954 0.0
C1368 C 0.3094 0.48612 0.76084 0.0
C1369 C 0.33545 0.49692 0.79678 0.0
C1370 C 0.33688 0.49782 0.72281 0.0
C1371 C 0.28401 0.47009 0.69914 0.0
N1372 N 0.33487 0.49824 0.77314 0.0
N1373 N 0.2847 0.47279 0.72272 0.0
H1374 H 0.86461 0.36275 0.19102 0.0
H1375 H 0.80025 0.26827 0.30778 0.0
H1376 H 0.80112 0.27017 0.19211 0.0
H1377 H 0.86436 0.36068 0.30772 0.0
H1378 H 0.79885 0.26936 0.26537 0.0
H1379 H 0.86324 0.3632 0.23363 0.0
C1380 C 0.85026 0.34255 0.20015 0.0
C1381 C 0.83306 0.31635 0.18785 0.0
C1382 C 0.81318 0.28944 0.27461 0.0
C1383 C 0.83148 0.31674 0.23672 0.0
C1384 C 0.81402 0.28885 0.2989 0.0
C1385 C 0.83257 0.3144 0.31147 0.0
C1386 C 0.83105 0.31576 0.26263 0.0
C1387 C 0.84978 0.3404 0.29884 0.0
C1388 C 0.84953 0.34283 0.22452 0.0
C1389 C 0.81489 0.29089 0.20074 0.0
N1390 N 0.84867 0.34038 0.27514 0.0
N1391 N 0.81467 0.29173 0.22441 0.0
H1392 H 0.91525 0.29682 0.15003 0.0
H1393 H 0.0626 0.38172 0.07923 0.0
H1394 H 0.92409 0.32372 0.07815 0.0
H1395 H 0.0542 0.38498 0.15372 0.0
H1396 H 0.01306 0.33903 0.07763 0.0
H1397 H 0.96626 0.30736 0.14952 0.0
C1398 C 0.92775 0.30401 0.13398 0.0
C1399 C 0.91631 0.31035 0.11429 0.0
C1400 C 0.0224 0.34854 0.0944 0.0
C1401 C 0.97362 0.32207 0.11348 0.0
C1402 C 0.05041 0.37286 0.09526 0.0
C1403 C 0.06155 0.38689 0.11653 0.0
C1404 C 0.00566 0.33886 0.11494 0.0
C1405 C 0.04564 0.3748 0.13698 0.0
C1406 C 0.95663 0.30992 0.13365 0.0
C1407 C 0.93278 0.31936 0.09378 0.0
N1408 N 0.01804 0.35165 0.13565 0.0
N1409 N 0.96092 0.32544 0.09398 0.0
H1410 H 0.59909 0.91253 0.65597 0.0
H1411 H 0.68929 0.06942 0.59793 0.0
H1412 H 0.60185 0.92868 0.58213 0.0
H1413 H 0.63389 0.04798 0.65862 0.0
H1414 H 0.68147 0.01925 0.59798 0.0
H1415 H 0.63776 0.96365 0.66176 0.0
C1416 C 0.60887 0.92658 0.64094 0.0
C1417 C 0.59731 0.91712 0.61865 0.0
C1418 C 0.67195 0.026 0.61171 0.0
C1419 C 0.64093 0.97456 0.62501 0.0
C1420 C 0.67614 0.0543 0.61158 0.0
C1421 C 0.66142 0.06208 0.62791 0.0
C1422 C 0.65357 0.00603 0.62861 0.0
C1423 C 0.64487 0.04223 0.64542 0.0
C1424 C 0.63081 0.95553 0.64422 0.0
C1425 C 0.61022 0.93572 0.59959 0.0
N1426 N 0.64112 0.01485 0.6452 0.0
N1427 N 0.63118 0.96395 0.60324 0.0
H1428 H 0.68799 0.61224 0.08075 0.0
H1429 H 0.61107 0.68909 0.14352 0.0
H1430 H 0.66747 0.6055 0.15401 0.0
H1431 H 0.59171 0.65004 0.07512 0.0
H1432 H 0.65498 0.684 0.14485 0.0
H1433 H 0.67766 0.65267 0.07748 0.0
C1434 C 0.68242 0.62018 0.09628 0.0
C1435 C 0.67775 0.60553 0.11753 0.0
C1436 C 0.64165 0.67762 0.12925 0.0
C1437 C 0.66599 0.65094 0.11398 0.0
C1438 C 0.61665 0.68027 0.12856 0.0
C1439 C 0.59767 0.669 0.10951 0.0
C1440 C 0.64753 0.66409 0.11059 0.0
C1441 C 0.60562 0.6581 0.09036 0.0
C1442 C 0.67669 0.64318 0.09445 0.0
C1443 C 0.67067 0.61623 0.13728 0.0
N1444 N 0.62988 0.65556 0.09149 0.0
N1445 N 0.66437 0.6381 0.13496 0.0
H1446 H 0.06223 0.68837 0.65333 0.0
H1447 H 0.91907 0.60242 0.5803 0.0
H1448 H 0.05609 0.66459 0.58085 0.0
H1449 H 0.92288 0.60654 0.65527 0.0
H1450 H 0.96787 0.64589 0.57846 0.0
H1451 H 0.01175 0.67925 0.65181 0.0
C1452 C 0.05043 0.68211 0.63696 0.0
C1453 C 0.06241 0.6762 0.61736 0.0
C1454 C 0.95777 0.63782 0.59534 0.0
C1455 C 0.0056 0.66593 0.61543 0.0
C1456 C 0.93012 0.61305 0.59634 0.0
C1457 C 0.9179 0.60085 0.61794 0.0
C1458 C 0.97342 0.64946 0.61612 0.0
C1459 C 0.93231 0.61528 0.63833 0.0
C1460 C 0.02182 0.67702 0.63606 0.0
C1461 C 0.04691 0.66851 0.59644 0.0
N1462 N 0.95986 0.63856 0.63697 0.0
N1463 N 0.01899 0.6631 0.59609 0.0
H1464 H 0.37556 0.07191 0.08152 0.0
H1465 H 0.29608 0.91889 0.14574 0.0
H1466 H 0.37548 0.06031 0.15585 0.0
H1467 H 0.33758 0.93747 0.07821 0.0
H1468 H 0.3015 0.96814 0.14607 0.0
H1469 H 0.33653 0.02069 0.07777 0.0
C1470 C 0.36639 0.05876 0.09709 0.0
C1471 C 0.37871 0.06959 0.11894 0.0
C1472 C 0.30848 0.96095 0.13089 0.0
C1473 C 0.33505 0.01172 0.11484 0.0
C1474 C 0.30561 0.93314 0.13078 0.0
C1475 C 0.31733 0.92497 0.11225 0.0
C1476 C 0.32265 0.98004 0.11216 0.0
C1477 C 0.32912 0.94363 0.09307 0.0
C1478 C 0.34421 0.02972 0.09498 0.0
C1479 C 0.36649 0.05219 0.13871 0.0
N1480 N 0.33181 0.97055 0.09362 0.0
N1481 N 0.34558 0.02367 0.13617 0.0
H1482 H 0.37732 0.30822 0.65902 0.0
H1483 H 0.29038 0.36967 0.58928 0.0
H1484 H 0.386 0.32925 0.58579 0.0
H1485 H 0.32251 0.39362 0.65946 0.0
H1486 H 0.30145 0.32956 0.5908 0.0
H1487 H 0.33406 0.31443 0.66073 0.0
C1488 C 0.36948 0.3133 0.64323 0.0
C1489 C 0.38529 0.31924 0.62241 0.0
C1490 C 0.30492 0.34288 0.60616 0.0
C1491 C 0.33625 0.32545 0.62405 0.0
C1492 C 0.29881 0.3657 0.60525 0.0
C1493 C 0.30643 0.38498 0.62407 0.0
C1494 C 0.31868 0.33978 0.62601 0.0
C1495 C 0.31707 0.37929 0.6445 0.0
C1496 C 0.34486 0.31658 0.64416 0.0
C1497 C 0.37453 0.32536 0.60226 0.0
N1498 N 0.3234 0.35734 0.64483 0.0
N1499 N 0.35075 0.32873 0.60362 0.0
H1500 H 0.61428 0.91577 0.90408 0.0
H1501 H 0.67396 0.07039 0.84397 0.0
H1502 H 0.58671 0.93046 0.83722 0.0
H1503 H 0.6516 0.0507 0.91657 0.0
H1504 H 0.6678 0.02122 0.83868 0.0
H1505 H 0.65417 0.96704 0.90434 0.0
C1506 C 0.61748 0.92957 0.88907 0.0
C1507 C 0.59717 0.91968 0.87087 0.0
C1508 C 0.66537 0.0282 0.8559 0.0
C1509 C 0.6422 0.97722 0.87091 0.0
C1510 C 0.66859 0.05591 0.85887 0.0
C1511 C 0.66231 0.06369 0.88053 0.0
C1512 C 0.6563 0.00879 0.87488 0.0
C1513 C 0.65578 0.0448 0.89949 0.0
C1514 C 0.64016 0.95858 0.88918 0.0
C1515 C 0.60185 0.93789 0.85173 0.0
N1516 N 0.65256 0.01789 0.89617 0.0
N1517 N 0.62375 0.96616 0.85239 0.0
H1518 H 0.61122 0.68776 0.35321 0.0
H1519 H 0.6707 0.60067 0.42355 0.0
H1520 H 0.58034 0.64444 0.41949 0.0
H1521 H 0.676 0.61156 0.34897 0.0
H1522 H 0.66035 0.64096 0.42703 0.0
H1523 H 0.65502 0.68276 0.35705 0.0
C1524 C 0.61416 0.67791 0.3688 0.0
C1525 C 0.59206 0.66545 0.3857 0.0
C1526 C 0.66483 0.63526 0.40996 0.0
C1527 C 0.64166 0.66044 0.39045 0.0
C1528 C 0.6706 0.61233 0.40801 0.0
C1529 C 0.67329 0.60273 0.38594 0.0
C1530 C 0.66078 0.64764 0.38962 0.0
C1531 C 0.67339 0.61832 0.36622 0.0
C1532 C 0.63908 0.67527 0.37106 0.0
C1533 C 0.59668 0.65336 0.40579 0.0
N1534 N 0.66634 0.6397 0.36844 0.0
N1535 N 0.62089 0.6508 0.40749 0.0
H1536 H 0.93252 0.57459 0.84308 0.0
H1537 H 0.05626 0.67811 0.91264 0.0
H1538 H 0.91548 0.62058 0.89757 0.0
H1539 H 0.06764 0.67559 0.83848 0.0
H1540 H 0.00548 0.66561 0.90628 0.0
H1541 H 0.98144 0.61685 0.83816 0.0
C1542 C 0.93914 0.59384 0.85381 0.0
C1543 C 0.92069 0.59408 0.87121 0.0
C1544 C 0.01937 0.66904 0.89129 0.0
C1545 C 0.97625 0.64211 0.86592 0.0
C1546 C 0.0482 0.67601 0.89497 0.0
C1547 C 0.0654 0.67717 0.87602 0.0
C1548 C 0.0078 0.662 0.86865 0.0
C1549 C 0.0545 0.67438 0.85343 0.0
C1550 C 0.96678 0.61811 0.85077 0.0
C1551 C 0.92961 0.61962 0.88429 0.0
N1552 N 0.02588 0.66594 0.85033 0.0
N1553 N 0.9573 0.64246 0.88192 0.0
H1554 H 0.30904 0.91689 0.42292 0.0
H1555 H 0.36151 0.06736 0.35937 0.0
H1556 H 0.30804 0.92805 0.34861 0.0
H1557 H 0.38813 0.0547 0.42733 0.0
H1558 H 0.32111 0.01629 0.36002 0.0
H1559 H 0.3158 0.966 0.42859 0.0
C1560 C 0.30958 0.92961 0.40787 0.0
C1561 C 0.30891 0.91933 0.38531 0.0
C1562 C 0.33519 0.02507 0.37511 0.0
C1563 C 0.31702 0.97499 0.39149 0.0
C1564 C 0.35814 0.05402 0.37471 0.0
C1565 C 0.37829 0.06444 0.39304 0.0
C1566 C 0.33273 0.00701 0.39401 0.0
C1567 C 0.37325 0.04685 0.41265 0.0
C1568 C 0.31324 0.9574 0.41106 0.0
C1569 C 0.30916 0.93591 0.36624 0.0
N1570 N 0.35113 0.01872 0.4125 0.0
N1571 N 0.31393 0.96344 0.36972 0.0
H1572 H 0.28025 0.36448 0.89795 0.0
H1573 H 0.38123 0.3254 0.91609 0.0
H1574 H 0.33932 0.40412 0.83994 0.0
H1575 H 0.38301 0.31255 0.84208 0.0
H1576 H 0.33861 0.33152 0.91092 0.0
H1577 H 0.29123 0.32423 0.89769 0.0
C1578 C 0.2948 0.36415 0.88474 0.0
C1579 C 0.3098 0.38783 0.86945 0.0
C1580 C 0.34739 0.32602 0.8959 0.0
C1581 C 0.32206 0.34249 0.86895 0.0
C1582 C 0.3719 0.32297 0.89885 0.0
C1583 C 0.38553 0.31909 0.87939 0.0
C1584 C 0.33749 0.32633 0.87323 0.0
C1585 C 0.37297 0.31592 0.85738 0.0
C1586 C 0.30099 0.34131 0.8846 0.0
C1587 C 0.32814 0.38652 0.85245 0.0
N1588 N 0.35012 0.32068 0.85473 0.0
N1589 N 0.33411 0.36435 0.85285 0.0
H1590 H 0.91135 0.30774 0.42581 0.0
H1591 H 0.05918 0.3642 0.35758 0.0
H1592 H 0.91841 0.30183 0.35143 0.0
H1593 H 0.04597 0.39633 0.42298 0.0
H1594 H 0.00979 0.32115 0.36103 0.0
H1595 H 0.96157 0.3173 0.43009 0.0
C1596 C 0.92334 0.30757 0.41049 0.0
C1597 C 0.91162 0.30492 0.38824 0.0
C1598 C 0.01817 0.3372 0.37494 0.0
C1599 C 0.96855 0.31652 0.39281 0.0
C1600 C 0.04606 0.3617 0.3729 0.0
C1601 C 0.05571 0.38396 0.38963 0.0
C1602 C 0.00046 0.33518 0.39398 0.0
C1603 C 0.03858 0.37989 0.40938 0.0
C1604 C 0.9518 0.31288 0.4129 0.0
C1605 C 0.92737 0.30443 0.36881 0.0
N1606 N 0.01152 0.35607 0.41089 0.0
N1607 N 0.95557 0.31104 0.37147 0.0
H1608 H 0.26939 0.41493 0.97799 0.0
H1609 H 0.13782 0.42398 0.01891 0.0
H1610 H 0.19886 0.39894 0.93131 0.0
H1611 H 0.1883 0.40368 0.06667 0.0
H1612 H 0.15309 0.40394 0.98705 0.0
H1613 H 0.23513 0.39922 0.01061 0.0
C1614 C 0.24647 0.40721 0.97453 0.0
C1615 C 0.23711 0.40914 0.95207 0.0
C1616 C 0.1602 0.40302 0.00457 0.0
C1617 C 0.19799 0.39196 0.98932 0.0
C1618 C 0.15155 0.41459 0.02274 0.0
C1619 C 0.16246 0.41613 0.04526 0.0
C1620 C 0.18068 0.3939 0.00888 0.0
C1621 C 0.17977 0.40326 0.04944 0.0
C1622 C 0.22686 0.39819 0.99317 0.0
C1623 C 0.20712 0.39835 0.94845 0.0
N1624 N 0.18912 0.39348 0.03126 0.0
N1625 N 0.18876 0.39114 0.96702 0.0
H1626 H 0.83413 0.27198 0.48078 0.0
H1627 H 0.70445 0.13202 0.52623 0.0
H1628 H 0.78221 0.19911 0.43516 0.0
H1629 H 0.77587 0.1897 0.57098 0.0
H1630 H 0.73758 0.14974 0.49287 0.0
H1631 H 0.81976 0.23818 0.51363 0.0
C1632 C 0.82021 0.2487 0.47765 0.0
C1633 C 0.80871 0.23831 0.45543 0.0
C1634 C 0.74634 0.15788 0.51006 0.0
C1635 C 0.79157 0.19957 0.49294 0.0
C1636 C 0.72738 0.14774 0.52912 0.0
C1637 C 0.73731 0.16007 0.55122 0.0
C1638 C 0.7751 0.1811 0.51312 0.0
C1639 C 0.76725 0.17999 0.55413 0.0
C1640 C 0.8121 0.22935 0.49637 0.0
C1641 C 0.7912 0.20798 0.45214 0.0
N1642 N 0.78494 0.19064 0.53513 0.0
N1643 N 0.78241 0.18969 0.47086 0.0
H1644 H 0.5591 0.70767 0.01414 0.0
H1645 H 0.57113 0.85065 0.97589 0.0
H1646 H 0.58131 0.77829 0.06263 0.0
H1647 H 0.58242 0.79423 0.92761 0.0
H1648 H 0.5874 0.83131 0.00749 0.0
H1649 H 0.57943 0.74322 0.98249 0.0
C1650 C 0.56899 0.73081 0.01816 0.0
C1651 C 0.56789 0.7401 0.04084 0.0
C1652 C 0.58729 0.82378 0.9899 0.0
C1653 C 0.59041 0.78084 0.0047 0.0
C1654 C 0.57796 0.83485 0.97184 0.0
C1655 C 0.57455 0.82331 0.94929 0.0
C1656 C 0.5923 0.80042 0.9854 0.0
C1657 C 0.5842 0.8033 0.94487 0.0
C1658 C 0.58071 0.75116 0.00011 0.0
C1659 C 0.58138 0.77027 0.04526 0.0
N1660 N 0.59172 0.79172 0.96293 0.0
N1661 N 0.59129 0.78958 0.0272 0.0
H1662 H 0.78969 0.579 0.57014 0.0
H1663 H 0.77827 0.58103 0.43264 0.0
H1664 H 0.84145 0.56123 0.52157 0.0
H1665 H 0.70634 0.5544 0.48079 0.0
H1666 H 0.81241 0.59932 0.46553 0.0
H1667 H 0.77166 0.59584 0.53765 0.0
C1668 C 0.79816 0.57979 0.55277 0.0
C1669 C 0.81642 0.56808 0.54827 0.0
C1670 C 0.78922 0.59038 0.46873 0.0
C1671 C 0.79616 0.58727 0.51142 0.0
C1672 C 0.76976 0.57996 0.45004 0.0
C1673 C 0.73949 0.56545 0.45421 0.0
C1674 C 0.77819 0.58648 0.49154 0.0
C1675 C 0.72954 0.56476 0.477 0.0
C1676 C 0.78782 0.5893 0.53429 0.0
C1677 C 0.82682 0.56953 0.52555 0.0
N1678 N 0.74886 0.57467 0.49492 0.0
N1679 N 0.81613 0.57845 0.50783 0.0
H1680 H 0.13571 0.71794 0.98017 0.0
H1681 H 0.27705 0.84815 0.01609 0.0
H1682 H 0.18903 0.78558 0.93077 0.0
H1683 H 0.20672 0.80274 0.0655 0.0
H1684 H 0.2412 0.83341 0.98483 0.0
H1685 H 0.15444 0.75422 0.01132 0.0
C1686 C 0.15066 0.74069 0.97581 0.0
C1687 C 0.16155 0.74874 0.95309 0.0
C1688 C 0.23343 0.82739 0.00257 0.0
C1689 C 0.18386 0.79011 0.98862 0.0
C1690 C 0.25395 0.83571 0.0204 0.0
C1691 C 0.24477 0.82586 0.04321 0.0
C1692 C 0.20369 0.80823 0.00754 0.0
C1693 C 0.21466 0.81031 0.04801 0.0
C1694 C 0.16136 0.76147 0.99358 0.0
C1695 C 0.18051 0.77847 0.9482 0.0
N1696 N 0.19514 0.80111 0.03017 0.0
N1697 N 0.1919 0.798 0.966 0.0
H1698 H 0.39851 0.20754 0.57422 0.0
H1699 H 0.39375 0.19101 0.43718 0.0
H1700 H 0.41286 0.27521 0.52482 0.0
H1701 H 0.42256 0.1482 0.48581 0.0
H1702 H 0.37462 0.20649 0.46989 0.0
H1703 H 0.38045 0.17163 0.5425 0.0
C1704 C 0.39664 0.21459 0.55688 0.0
C1705 C 0.40792 0.2444 0.55186 0.0
C1706 C 0.38419 0.1928 0.47325 0.0
C1707 C 0.38746 0.20373 0.51583 0.0
C1708 C 0.3951 0.18398 0.45466 0.0
C1709 C 0.41046 0.1691 0.45901 0.0
C1710 C 0.3885 0.18633 0.49614 0.0
C1711 C 0.41152 0.16037 0.48189 0.0
C1712 C 0.38645 0.19413 0.53882 0.0
C1713 C 0.405 0.25246 0.52918 0.0
N1714 N 0.40113 0.16955 0.4997 0.0
N1715 N 0.39557 0.23229 0.51183 0.0
H1716 H 0.78525 0.58623 0.06837 0.0
H1717 H 0.80135 0.59058 0.93142 0.0
H1718 H 0.71711 0.56883 0.01867 0.0
H1719 H 0.85258 0.57202 0.97985 0.0
H1720 H 0.78383 0.60785 0.96383 0.0
H1721 H 0.82131 0.60555 0.03671 0.0
C1722 C 0.77802 0.58742 0.05094 0.0
C1723 C 0.74811 0.57514 0.04592 0.0
C1724 C 0.79971 0.60096 0.96722 0.0
C1725 C 0.78907 0.59721 0.0099 0.0
C1726 C 0.80984 0.5912 0.94872 0.0
C1727 C 0.82761 0.57887 0.95313 0.0
C1728 C 0.80756 0.59841 0.9901 0.0
C1729 C 0.83814 0.58053 0.97584 0.0
C1730 C 0.79859 0.5984 0.03292 0.0
C1731 C 0.73992 0.57738 0.02311 0.0
N1732 N 0.82741 0.58943 0.99362 0.0
N1733 N 0.76025 0.58768 0.00583 0.0
H1734 H 0.19303 0.7862 0.569 0.0
H1735 H 0.20101 0.79225 0.43109 0.0
H1736 H 0.13645 0.71571 0.52304 0.0
H1737 H 0.27379 0.84053 0.47766 0.0
H1738 H 0.16748 0.77839 0.46445 0.0
H1739 H 0.21121 0.81944 0.53541 0.0
C1740 C 0.18353 0.77804 0.552 0.0
C1741 C 0.16381 0.74814 0.54855 0.0
C1742 C 0.19073 0.7928 0.46719 0.0
C1743 C 0.18446 0.78571 0.51036 0.0
C1744 C 0.20984 0.80073 0.44821 0.0
C1745 C 0.24018 0.81684 0.45184 0.0
C1746 C 0.20217 0.80134 0.48975 0.0
C1747 C 0.25052 0.82741 0.47429 0.0
C1748 C 0.19401 0.79694 0.53286 0.0
C1749 C 0.15217 0.73858 0.52622 0.0
N1750 N 0.23157 0.81908 0.4925 0.0
N1751 N 0.16309 0.7572 0.50784 0.0
H1752 H 0.42157 0.14724 0.02278 0.0
H1753 H 0.41874 0.28211 0.98026 0.0
H1754 H 0.402 0.19973 0.06911 0.0
H1755 H 0.40484 0.21221 0.93352 0.0
H1756 H 0.40086 0.24729 0.01253 0.0
H1757 H 0.40407 0.16375 0.99003 0.0
C1758 C 0.41284 0.16168 0.0261 0.0
C1759 C 0.41391 0.17279 0.0485 0.0
C1760 C 0.40077 0.23925 0.99513 0.0
C1761 C 0.3946 0.1924 0.01112 0.0
C1762 C 0.411 0.25917 0.97672 0.0
C1763 C 0.41384 0.25003 0.95441 0.0
C1764 C 0.39438 0.21029 0.99127 0.0
C1765 C 0.40327 0.22011 0.95059 0.0
C1766 C 0.40274 0.17105 0.00741 0.0
C1767 C 0.40191 0.19101 0.052 0.0
N1768 N 0.39486 0.20139 0.96902 0.0
N1769 N 0.39356 0.201 0.03335 0.0
H1770 H 0.1367 0.42546 0.48031 0.0
H1771 H 0.26353 0.41091 0.52002 0.0
H1772 H 0.181 0.39734 0.43249 0.0
H1773 H 0.19454 0.39731 0.56776 0.0
H1774 H 0.2284 0.39407 0.48811 0.0
H1775 H 0.1503 0.40441 0.51245 0.0
C1776 C 0.14871 0.41417 0.47657 0.0
C1777 C 0.15847 0.41376 0.45393 0.0
C1778 C 0.22061 0.39373 0.50566 0.0
C1779 C 0.17477 0.39033 0.49056 0.0
C1780 C 0.24072 0.40339 0.52387 0.0
C1781 C 0.23202 0.40635 0.54634 0.0
C1782 C 0.19198 0.38805 0.50994 0.0
C1783 C 0.2022 0.39588 0.55055 0.0
C1784 C 0.15633 0.40197 0.49488 0.0
C1785 C 0.17348 0.39846 0.44984 0.0
N1786 N 0.18337 0.38815 0.53233 0.0
N1787 N 0.18203 0.38814 0.46813 0.0
H1788 H 0.83912 0.26782 0.01968 0.0
H1789 H 0.70355 0.13185 0.98362 0.0
H1790 H 0.7902 0.19818 0.0689 0.0
H1791 H 0.77257 0.18185 0.93421 0.0
H1792 H 0.73979 0.14807 0.01468 0.0
H1793 H 0.82255 0.23184 0.98833 0.0
C1794 C 0.82553 0.24479 0.02393 0.0
C1795 C 0.81525 0.23595 0.0467 0.0
C1796 C 0.74727 0.15475 0.99696 0.0
C1797 C 0.79547 0.19478 0.01094 0.0
C1798 C 0.72652 0.14551 0.97924 0.0
C1799 C 0.73508 0.15631 0.95655 0.0
C1800 C 0.77651 0.17575 0.99199 0.0
C1801 C 0.76506 0.1735 0.95163 0.0
C1802 C 0.81614 0.22418 0.00605 0.0
C1803 C 0.79816 0.20588 0.05144 0.0
N1804 N 0.78468 0.18357 0.96939 0.0
N1805 N 0.78795 0.18639 0.03355 0.0
H1806 H 0.57344 0.77452 0.42734 0.0
H1807 H 0.57525 0.78816 0.56501 0.0
H1808 H 0.5458 0.70295 0.47599 0.0
H1809 H 0.55987 0.84209 0.51703 0.0
H1810 H 0.58972 0.7684 0.53213 0.0
H1811 H 0.59297 0.80915 0.45997 0.0
C1812 C 0.57238 0.76617 0.44479 0.0
C1813 C 0.55737 0.73591 0.44918 0.0
C1814 C 0.58425 0.78539 0.52896 0.0
C1815 C 0.57981 0.77515 0.48622 0.0
C1816 C 0.57615 0.79677 0.54768 0.0
C1817 C 0.56571 0.81618 0.54351 0.0
C1818 C 0.58209 0.7938 0.50616 0.0
C1819 C 0.56722 0.82664 0.52079 0.0
C1820 C 0.58349 0.7859 0.46333 0.0
C1821 C 0.55663 0.72616 0.47203 0.0
N1822 N 0.57469 0.81489 0.50284 0.0
N1823 N 0.56729 0.74574 0.48979 0.0
loop_
_geom_bond_atom_site_label_1
_geom_bond_atom_site_label_2
_geom_bond_distance
_geom_bond_site_symmetry_2
_ccdc_geom_bond_type
Sc0 O3 2.025 . S
Sc0 O10 2.105 . S
Sc0 O13 2.105 . S
Sc0 O16 2.105 . S
Sc0 O19 2.105 . S
Sc1 O3 2.025 . S
Sc1 O11 2.105 . S
Sc1 O15 2.105 . S
Sc1 O17 2.105 . S
Sc1 O21 2.105 . S
Sc2 O3 2.025 . S
Sc2 O12 2.105 . S
Sc2 O14 2.105 . S
Sc2 O18 2.105 . S
Sc2 O20 2.105 . S
O3 Sc0 2.025 . S
O3 Sc1 2.025 . S
O3 Sc2 2.025 . S
C4 O10 1.268 . S
C4 O20 1.268 . S
C5 O11 1.268 . S
C5 O19 1.268 . S
C6 O12 1.268 . S
C6 O21 1.268 . S
C7 O13 1.268 . S
C7 O17 1.268 . S
C8 O14 1.268 . S
C8 O16 1.268 . S
C9 O15 1.268 . S
C9 O18 1.268 . S
O10 Sc0 2.105 . S
O10 C4 1.268 . S
O11 Sc1 2.105 . S
O11 C5 1.268 . S
O12 Sc2 2.105 . S
O12 C6 1.268 . S
O13 Sc0 2.105 . S
O13 C7 1.268 . S
O14 Sc2 2.105 . S
O14 C8 1.268 . S
O15 Sc1 2.105 . S
O15 C9 1.268 . S
O16 Sc0 2.105 . S
O16 C8 1.268 . S
O17 Sc1 2.105 . S
O17 C7 1.268 . S
O18 Sc2 2.105 . S
O18 C9 1.268 . S
O19 Sc0 2.105 . S
O19 C5 1.268 . S
O20 Sc2 2.105 . S
O20 C4 1.268 . S
O21 Sc1 2.105 . S
O21 C6 1.268 . S
Sc22 O25 2.025 . S
Sc22 O32 2.105 . S
Sc22 O35 2.105 . S
Sc22 O38 2.105 . S
Sc22 O41 2.105 . S
Sc23 O25 2.025 . S
Sc23 O33 2.105 . S
Sc23 O37 2.105 . S
Sc23 O39 2.105 . S
Sc23 O43 2.105 . S
Sc24 O25 2.025 . S
Sc24 O34 2.105 . S
Sc24 O36 2.105 . S
Sc24 O40 2.105 . S
Sc24 O42 2.105 . S
O25 Sc22 2.025 . S
O25 Sc23 2.025 . S
O25 Sc24 2.025 . S
C26 O32 1.268 . S
C26 O42 1.268 . S
C27 O33 1.268 . S
C27 O41 1.268 . S
C28 O34 1.268 . S
C28 O43 1.268 . S
C29 O35 1.268 . S
C29 O39 1.268 . S
C30 O36 1.268 . S
C30 O38 1.268 . S
C31 O37 1.268 . S
C31 O40 1.268 . S
O32 Sc22 2.105 . S
O32 C26 1.268 . S
O33 Sc23 2.105 . S
O33 C27 1.268 . S
O34 Sc24 2.105 . S
O34 C28 1.268 . S
O35 Sc22 2.105 . S
O35 C29 1.268 . S
O36 Sc24 2.105 . S
O36 C30 1.268 . S
O37 Sc23 2.105 . S
O37 C31 1.268 . S
O38 Sc22 2.105 . S
O38 C30 1.268 . S
O39 Sc23 2.105 . S
O39 C29 1.268 . S
O40 Sc24 2.105 . S
O40 C31 1.268 . S
O41 Sc22 2.105 . S
O41 C27 1.268 . S
O42 Sc24 2.105 . S
O42 C26 1.268 . S
O43 Sc23 2.105 . S
O43 C28 1.268 . S
Sc44 O47 2.025 . S
Sc44 O54 2.105 . S
Sc44 O57 2.105 . S
Sc44 O60 2.105 . S
Sc44 O63 2.105 . S
Sc45 O47 2.025 . S
Sc45 O55 2.105 . S
Sc45 O59 2.105 . S
Sc45 O61 2.105 . S
Sc45 O65 2.105 . S
Sc46 O47 2.025 . S
Sc46 O56 2.105 . S
Sc46 O58 2.105 . S
Sc46 O62 2.105 . S
Sc46 O64 2.105 . S
O47 Sc44 2.025 . S
O47 Sc45 2.025 . S
O47 Sc46 2.025 . S
C48 O54 1.268 . S
C48 O64 1.268 . S
C49 O55 1.268 . S
C49 O63 1.268 . S
C50 O56 1.268 . S
C50 O65 1.268 . S
C51 O57 1.268 . S
C51 O61 1.268 . S
C52 O58 1.268 . S
C52 O60 1.268 . S
C53 O59 1.268 . S
C53 O62 1.268 . S
O54 Sc44 2.105 . S
O54 C48 1.268 . S
O55 Sc45 2.105 . S
O55 C49 1.268 . S
O56 Sc46 2.105 . S
O56 C50 1.268 . S
O57 Sc44 2.105 . S
O57 C51 1.268 . S
O58 Sc46 2.105 . S
O58 C52 1.268 . S
O59 Sc45 2.105 . S
O59 C53 1.268 . S
O60 Sc44 2.105 . S
O60 C52 1.268 . S
O61 Sc45 2.105 . S
O61 C51 1.268 . S
O62 Sc46 2.105 . S
O62 C53 1.268 . S
O63 Sc44 2.105 . S
O63 C49 1.268 . S
O64 Sc46 2.105 . S
O64 C48 1.268 . S
O65 Sc45 2.105 . S
O65 C50 1.268 . S
Sc66 O69 2.025 . S
Sc66 O76 2.105 . S
Sc66 O79 2.105 . S
Sc66 O82 2.105 . S
Sc66 O85 2.105 . S
Sc67 O69 2.025 . S
Sc67 O77 2.105 . S
Sc67 O81 2.105 . S
Sc67 O83 2.105 . S
Sc67 O87 2.105 . S
Sc68 O69 2.025 . S
Sc68 O78 2.105 . S
Sc68 O80 2.105 . S
Sc68 O84 2.105 . S
Sc68 O86 2.105 . S
O69 Sc66 2.025 . S
O69 Sc67 2.025 . S
O69 Sc68 2.025 . S
C70 O76 1.268 . S
C70 O86 1.268 . S
C71 O77 1.268 . S
C71 O85 1.268 . S
C72 O78 1.268 . S
C72 O87 1.268 . S
C73 O79 1.268 . S
C73 O83 1.268 . S
C74 O80 1.268 . S
C74 O82 1.268 . S
C75 O81 1.268 . S
C75 O84 1.268 . S
O76 Sc66 2.105 . S
O76 C70 1.268 . S
O77 Sc67 2.105 . S
O77 C71 1.268 . S
O78 Sc68 2.105 . S
O78 C72 1.268 . S
O79 Sc66 2.105 . S
O79 C73 1.268 . S
O80 Sc68 2.105 . S
O80 C74 1.268 . S
O81 Sc67 2.105 . S
O81 C75 1.268 . S
O82 Sc66 2.105 . S
O82 C74 1.268 . S
O83 Sc67 2.105 . S
O83 C73 1.268 . S
O84 Sc68 2.105 . S
O84 C75 1.268 . S
O85 Sc66 2.105 . S
O85 C71 1.268 . S
O86 Sc68 2.105 . S
O86 C70 1.268 . S
O87 Sc67 2.105 . S
O87 C72 1.268 . S
Sc88 O91 2.025 . S
Sc88 O98 2.105 . S
Sc88 O101 2.105 . S
Sc88 O104 2.105 . S
Sc88 O107 2.105 . S
Sc89 O91 2.025 . S
Sc89 O99 2.105 . S
Sc89 O103 2.105 . S
Sc89 O105 2.105 . S
Sc89 O109 2.105 . S
Sc90 O91 2.025 . S
Sc90 O100 2.105 . S
Sc90 O102 2.105 . S
Sc90 O106 2.105 . S
Sc90 O108 2.105 . S
O91 Sc88 2.025 . S
O91 Sc89 2.025 . S
O91 Sc90 2.025 . S
C92 O98 1.268 . S
C92 O108 1.268 . S
C93 O99 1.268 . S
C93 O107 1.268 . S
C94 O100 1.268 . S
C94 O109 1.268 . S
C95 O101 1.268 . S
C95 O105 1.268 . S
C96 O102 1.268 . S
C96 O104 1.268 . S
C97 O103 1.268 . S
C97 O106 1.268 . S
O98 Sc88 2.105 . S
O98 C92 1.268 . S
O99 Sc89 2.105 . S
O99 C93 1.268 . S
O100 Sc90 2.105 . S
O100 C94 1.268 . S
O101 Sc88 2.105 . S
O101 C95 1.268 . S
O102 Sc90 2.105 . S
O102 C96 1.268 . S
O103 Sc89 2.105 . S
O103 C97 1.268 . S
O104 Sc88 2.105 . S
O104 C96 1.268 . S
O105 Sc89 2.105 . S
O105 C95 1.268 . S
O106 Sc90 2.105 . S
O106 C97 1.268 . S
O107 Sc88 2.105 . S
O107 C93 1.268 . S
O108 Sc90 2.105 . S
O108 C92 1.268 . S
O109 Sc89 2.105 . S
O109 C94 1.268 . S
Sc110 O113 2.025 . S
Sc110 O120 2.105 . S
Sc110 O123 2.105 . S
Sc110 O126 2.105 . S
Sc110 O129 2.105 . S
Sc111 O113 2.025 . S
Sc111 O121 2.105 . S
Sc111 O125 2.105 . S
Sc111 O127 2.105 . S
Sc111 O131 2.105 . S
Sc112 O113 2.025 . S
Sc112 O122 2.105 . S
Sc112 O124 2.105 . S
Sc112 O128 2.105 . S
Sc112 O130 2.105 . S
O113 Sc110 2.025 . S
O113 Sc111 2.025 . S
O113 Sc112 2.025 . S
C114 O120 1.268 . S
C114 O130 1.268 . S
C115 O121 1.268 . S
C115 O129 1.268 . S
C116 O122 1.268 . S
C116 O131 1.268 . S
C117 O123 1.268 . S
C117 O127 1.268 . S
C118 O124 1.268 . S
C118 O126 1.268 . S
C119 O125 1.268 . S
C119 O128 1.268 . S
O120 Sc110 2.105 . S
O120 C114 1.268 . S
O121 Sc111 2.105 . S
O121 C115 1.268 . S
O122 Sc112 2.105 . S
O122 C116 1.268 . S
O123 Sc110 2.105 . S
O123 C117 1.268 . S
O124 Sc112 2.105 . S
O124 C118 1.268 . S
O125 Sc111 2.105 . S
O125 C119 1.268 . S
O126 Sc110 2.105 . S
O126 C118 1.268 . S
O127 Sc111 2.105 . S
O127 C117 1.268 . S
O128 Sc112 2.105 . S
O128 C119 1.268 . S
O129 Sc110 2.105 . S
O129 C115 1.268 . S
O130 Sc112 2.105 . S
O130 C114 1.268 . S
O131 Sc111 2.105 . S
O131 C116 1.268 . S
Sc132 O135 2.025 . S
Sc132 O142 2.105 . S
Sc132 O145 2.105 . S
Sc132 O148 2.105 . S
Sc132 O151 2.105 . S
Sc133 O135 2.025 . S
Sc133 O143 2.105 . S
Sc133 O147 2.105 . S
Sc133 O149 2.105 . S
Sc133 O153 2.105 . S
Sc134 O135 2.025 . S
Sc134 O144 2.105 . S
Sc134 O146 2.105 . S
Sc134 O150 2.105 . S
Sc134 O152 2.105 . S
O135 Sc132 2.025 . S
O135 Sc133 2.025 . S
O135 Sc134 2.025 . S
C136 O142 1.268 . S
C136 O152 1.268 . S
C137 O143 1.268 . S
C137 O151 1.268 . S
C138 O144 1.268 . S
C138 O153 1.268 . S
C139 O145 1.268 . S
C139 O149 1.268 . S
C140 O146 1.268 . S
C140 O148 1.268 . S
C141 O147 1.268 . S
C141 O150 1.268 . S
O142 Sc132 2.105 . S
O142 C136 1.268 . S
O143 Sc133 2.105 . S
O143 C137 1.268 . S
O144 Sc134 2.105 . S
O144 C138 1.268 . S
O145 Sc132 2.105 . S
O145 C139 1.268 . S
O146 Sc134 2.105 . S
O146 C140 1.268 . S
O147 Sc133 2.105 . S
O147 C141 1.268 . S
O148 Sc132 2.105 . S
O148 C140 1.268 . S
O149 Sc133 2.105 . S
O149 C139 1.268 . S
O150 Sc134 2.105 . S
O150 C141 1.268 . S
O151 Sc132 2.105 . S
O151 C137 1.268 . S
O152 Sc134 2.105 . S
O152 C136 1.268 . S
O153 Sc133 2.105 . S
O153 C138 1.268 . S
Sc154 O157 2.025 . S
Sc154 O164 2.105 . S
Sc154 O167 2.105 . S
Sc154 O170 2.105 . S
Sc154 O173 2.105 . S
Sc155 O157 2.025 . S
Sc155 O165 2.105 . S
Sc155 O169 2.105 . S
Sc155 O171 2.105 . S
Sc155 O175 2.105 . S
Sc156 O157 2.025 . S
Sc156 O166 2.105 . S
Sc156 O168 2.105 . S
Sc156 O172 2.105 . S
Sc156 O174 2.105 . S
O157 Sc154 2.025 . S
O157 Sc155 2.025 . S
O157 Sc156 2.025 . S
C158 O164 1.268 . S
C158 O174 1.268 . S
C159 O165 1.268 . S
C159 O173 1.268 . S
C160 O166 1.268 . S
C160 O175 1.268 . S
C161 O167 1.268 . S
C161 O171 1.268 . S
C162 O168 1.268 . S
C162 O170 1.268 . S
C163 O169 1.268 . S
C163 O172 1.268 . S
O164 Sc154 2.105 . S
O164 C158 1.268 . S
O165 Sc155 2.105 . S
O165 C159 1.268 . S
O166 Sc156 2.105 . S
O166 C160 1.268 . S
O167 Sc154 2.105 . S
O167 C161 1.268 . S
O168 Sc156 2.105 . S
O168 C162 1.268 . S
O169 Sc155 2.105 . S
O169 C163 1.268 . S
O170 Sc154 2.105 . S
O170 C162 1.268 . S
O171 Sc155 2.105 . S
O171 C161 1.268 . S
O172 Sc156 2.105 . S
O172 C163 1.268 . S
O173 Sc154 2.105 . S
O173 C159 1.268 . S
O174 Sc156 2.105 . S
O174 C158 1.268 . S
O175 Sc155 2.105 . S
O175 C160 1.268 . S
Sc176 O179 2.025 . S
Sc176 O186 2.105 . S
Sc176 O189 2.105 . S
Sc176 O192 2.105 . S
Sc176 O195 2.105 . S
Sc177 O179 2.025 . S
Sc177 O187 2.105 . S
Sc177 O191 2.105 . S
Sc177 O193 2.105 . S
Sc177 O197 2.105 . S
Sc178 O179 2.025 . S
Sc178 O188 2.105 . S
Sc178 O190 2.105 . S
Sc178 O194 2.105 . S
Sc178 O196 2.105 . S
O179 Sc176 2.025 . S
O179 Sc177 2.025 . S
O179 Sc178 2.025 . S
C180 O186 1.268 . S
C180 O196 1.268 . S
C181 O187 1.268 . S
C181 O195 1.268 . S
C182 O188 1.268 . S
C182 O197 1.268 . S
C183 O189 1.268 . S
C183 O193 1.268 . S
C184 O190 1.268 . S
C184 O192 1.268 . S
C185 O191 1.268 . S
C185 O194 1.268 . S
O186 Sc176 2.105 . S
O186 C180 1.268 . S
O187 Sc177 2.105 . S
O187 C181 1.268 . S
O188 Sc178 2.105 . S
O188 C182 1.268 . S
O189 Sc176 2.105 . S
O189 C183 1.268 . S
O190 Sc178 2.105 . S
O190 C184 1.268 . S
O191 Sc177 2.105 . S
O191 C185 1.268 . S
O192 Sc176 2.105 . S
O192 C184 1.268 . S
O193 Sc177 2.105 . S
O193 C183 1.268 . S
O194 Sc178 2.105 . S
O194 C185 1.268 . S
O195 Sc176 2.105 . S
O195 C181 1.268 . S
O196 Sc178 2.105 . S
O196 C180 1.268 . S
O197 Sc177 2.105 . S
O197 C182 1.268 . S
Sc198 O201 2.025 . S
Sc198 O208 2.105 . S
Sc198 O211 2.105 . S
Sc198 O214 2.105 . S
Sc198 O217 2.105 . S
Sc199 O201 2.025 . S
Sc199 O209 2.105 . S
Sc199 O213 2.105 . S
Sc199 O215 2.105 . S
Sc199 O219 2.105 . S
Sc200 O201 2.025 . S
Sc200 O210 2.105 . S
Sc200 O212 2.105 . S
Sc200 O216 2.105 . S
Sc200 O218 2.105 . S
O201 Sc198 2.025 . S
O201 Sc199 2.025 . S
O201 Sc200 2.025 . S
C202 O208 1.268 . S
C202 O218 1.268 . S
C203 O209 1.268 . S
C203 O217 1.268 . S
C204 O210 1.268 . S
C204 O219 1.268 . S
C205 O211 1.268 . S
C205 O215 1.268 . S
C206 O212 1.268 . S
C206 O214 1.268 . S
C207 O213 1.268 . S
C207 O216 1.268 . S
O208 Sc198 2.105 . S
O208 C202 1.268 . S
O209 Sc199 2.105 . S
O209 C203 1.268 . S
O210 Sc200 2.105 . S
O210 C204 1.268 . S
O211 Sc198 2.105 . S
O211 C205 1.268 . S
O212 Sc200 2.105 . S
O212 C206 1.268 . S
O213 Sc199 2.105 . S
O213 C207 1.268 . S
O214 Sc198 2.105 . S
O214 C206 1.268 . S
O215 Sc199 2.105 . S
O215 C205 1.268 . S
O216 Sc200 2.105 . S
O216 C207 1.268 . S
O217 Sc198 2.105 . S
O217 C203 1.268 . S
O218 Sc200 2.105 . S
O218 C202 1.268 . S
O219 Sc199 2.105 . S
O219 C204 1.268 . S
Sc220 O223 2.025 . S
Sc220 O230 2.105 . S
Sc220 O233 2.105 . S
Sc220 O236 2.105 . S
Sc220 O239 2.105 . S
Sc221 O223 2.025 . S
Sc221 O231 2.105 . S
Sc221 O235 2.105 . S
Sc221 O237 2.105 . S
Sc221 O241 2.105 . S
Sc222 O223 2.025 . S
Sc222 O232 2.105 . S
Sc222 O234 2.105 . S
Sc222 O238 2.105 . S
Sc222 O240 2.105 . S
O223 Sc220 2.025 . S
O223 Sc221 2.025 . S
O223 Sc222 2.025 . S
C224 O230 1.268 . S
C224 O240 1.268 . S
C225 O231 1.268 . S
C225 O239 1.268 . S
C226 O232 1.268 . S
C226 O241 1.268 . S
C227 O233 1.268 . S
C227 O237 1.268 . S
C228 O234 1.268 . S
C228 O236 1.268 . S
C229 O235 1.268 . S
C229 O238 1.268 . S
O230 Sc220 2.105 . S
O230 C224 1.268 . S
O231 Sc221 2.105 . S
O231 C225 1.268 . S
O232 Sc222 2.105 . S
O232 C226 1.268 . S
O233 Sc220 2.105 . S
O233 C227 1.268 . S
O234 Sc222 2.105 . S
O234 C228 1.268 . S
O235 Sc221 2.105 . S
O235 C229 1.268 . S
O236 Sc220 2.105 . S
O236 C228 1.268 . S
O237 Sc221 2.105 . S
O237 C227 1.268 . S
O238 Sc222 2.105 . S
O238 C229 1.268 . S
O239 Sc220 2.105 . S
O239 C225 1.268 . S
O240 Sc222 2.105 . S
O240 C224 1.268 . S
O241 Sc221 2.105 . S
O241 C226 1.268 . S
Sc242 O245 2.025 . S
Sc242 O252 2.105 . S
Sc242 O255 2.105 . S
Sc242 O258 2.105 . S
Sc242 O261 2.105 . S
Sc243 O245 2.025 . S
Sc243 O253 2.105 . S
Sc243 O257 2.105 . S
Sc243 O259 2.105 . S
Sc243 O263 2.105 . S
Sc244 O245 2.025 . S
Sc244 O254 2.105 . S
Sc244 O256 2.105 . S
Sc244 O260 2.105 . S
Sc244 O262 2.105 . S
O245 Sc242 2.025 . S
O245 Sc243 2.025 . S
O245 Sc244 2.025 . S
C246 O252 1.268 . S
C246 O262 1.268 . S
C247 O253 1.268 . S
C247 O261 1.268 . S
C248 O254 1.268 . S
C248 O263 1.268 . S
C249 O255 1.268 . S
C249 O259 1.268 . S
C250 O256 1.268 . S
C250 O258 1.268 . S
C251 O257 1.268 . S
C251 O260 1.268 . S
O252 Sc242 2.105 . S
O252 C246 1.268 . S
O253 Sc243 2.105 . S
O253 C247 1.268 . S
O254 Sc244 2.105 . S
O254 C248 1.268 . S
O255 Sc242 2.105 . S
O255 C249 1.268 . S
O256 Sc244 2.105 . S
O256 C250 1.268 . S
O257 Sc243 2.105 . S
O257 C251 1.268 . S
O258 Sc242 2.105 . S
O258 C250 1.268 . S
O259 Sc243 2.105 . S
O259 C249 1.268 . S
O260 Sc244 2.105 . S
O260 C251 1.268 . S
O261 Sc242 2.105 . S
O261 C247 1.268 . S
O262 Sc244 2.105 . S
O262 C246 1.268 . S
O263 Sc243 2.105 . S
O263 C248 1.268 . S
Sc264 O267 2.025 . S
Sc264 O274 2.105 . S
Sc264 O277 2.105 . S
Sc264 O280 2.105 . S
Sc264 O283 2.105 . S
Sc265 O267 2.025 . S
Sc265 O275 2.105 . S
Sc265 O279 2.105 . S
Sc265 O281 2.105 . S
Sc265 O285 2.105 . S
Sc266 O267 2.025 . S
Sc266 O276 2.105 . S
Sc266 O278 2.105 . S
Sc266 O282 2.105 . S
Sc266 O284 2.105 . S
O267 Sc264 2.025 . S
O267 Sc265 2.025 . S
O267 Sc266 2.025 . S
C268 O274 1.268 . S
C268 O284 1.268 . S
C269 O275 1.268 . S
C269 O283 1.268 . S
C270 O276 1.268 . S
C270 O285 1.268 . S
C271 O277 1.268 . S
C271 O281 1.268 . S
C272 O278 1.268 . S
C272 O280 1.268 . S
C273 O279 1.268 . S
C273 O282 1.268 . S
O274 Sc264 2.105 . S
O274 C268 1.268 . S
O275 Sc265 2.105 . S
O275 C269 1.268 . S
O276 Sc266 2.105 . S
O276 C270 1.268 . S
O277 Sc264 2.105 . S
O277 C271 1.268 . S
O278 Sc266 2.105 . S
O278 C272 1.268 . S
O279 Sc265 2.105 . S
O279 C273 1.268 . S
O280 Sc264 2.105 . S
O280 C272 1.268 . S
O281 Sc265 2.105 . S
O281 C271 1.268 . S
O282 Sc266 2.105 . S
O282 C273 1.268 . S
O283 Sc264 2.105 . S
O283 C269 1.268 . S
O284 Sc266 2.105 . S
O284 C268 1.268 . S
O285 Sc265 2.105 . S
O285 C270 1.268 . S
Sc286 O289 2.025 . S
Sc286 O296 2.105 . S
Sc286 O299 2.105 . S
Sc286 O302 2.105 . S
Sc286 O305 2.105 . S
Sc287 O289 2.025 . S
Sc287 O297 2.105 . S
Sc287 O301 2.105 . S
Sc287 O303 2.105 . S
Sc287 O307 2.105 . S
Sc288 O289 2.025 . S
Sc288 O298 2.105 . S
Sc288 O300 2.105 . S
Sc288 O304 2.105 . S
Sc288 O306 2.105 . S
O289 Sc286 2.025 . S
O289 Sc287 2.025 . S
O289 Sc288 2.025 . S
C290 O296 1.268 . S
C290 O306 1.268 . S
C291 O297 1.268 . S
C291 O305 1.268 . S
C292 O298 1.268 . S
C292 O307 1.268 . S
C293 O299 1.268 . S
C293 O303 1.268 . S
C294 O300 1.268 . S
C294 O302 1.268 . S
C295 O301 1.268 . S
C295 O304 1.268 . S
O296 Sc286 2.105 . S
O296 C290 1.268 . S
O297 Sc287 2.105 . S
O297 C291 1.268 . S
O298 Sc288 2.105 . S
O298 C292 1.268 . S
O299 Sc286 2.105 . S
O299 C293 1.268 . S
O300 Sc288 2.105 . S
O300 C294 1.268 . S
O301 Sc287 2.105 . S
O301 C295 1.268 . S
O302 Sc286 2.105 . S
O302 C294 1.268 . S
O303 Sc287 2.105 . S
O303 C293 1.268 . S
O304 Sc288 2.105 . S
O304 C295 1.268 . S
O305 Sc286 2.105 . S
O305 C291 1.268 . S
O306 Sc288 2.105 . S
O306 C290 1.268 . S
O307 Sc287 2.105 . S
O307 C292 1.268 . S
Sc308 O311 2.025 . S
Sc308 O318 2.105 . S
Sc308 O321 2.105 . S
Sc308 O324 2.105 . S
Sc308 O327 2.105 . S
Sc309 O311 2.025 . S
Sc309 O319 2.105 . S
Sc309 O323 2.105 . S
Sc309 O325 2.105 . S
Sc309 O329 2.105 . S
Sc310 O311 2.025 . S
Sc310 O320 2.105 . S
Sc310 O322 2.105 . S
Sc310 O326 2.105 . S
Sc310 O328 2.105 . S
O311 Sc308 2.025 . S
O311 Sc309 2.025 . S
O311 Sc310 2.025 . S
C312 O318 1.268 . S
C312 O328 1.268 . S
C313 O319 1.268 . S
C313 O327 1.268 . S
C314 O320 1.268 . S
C314 O329 1.268 . S
C315 O321 1.268 . S
C315 O325 1.268 . S
C316 O322 1.268 . S
C316 O324 1.268 . S
C317 O323 1.268 . S
C317 O326 1.268 . S
O318 Sc308 2.105 . S
O318 C312 1.268 . S
O319 Sc309 2.105 . S
O319 C313 1.268 . S
O320 Sc310 2.105 . S
O320 C314 1.268 . S
O321 Sc308 2.105 . S
O321 C315 1.268 . S
O322 Sc310 2.105 . S
O322 C316 1.268 . S
O323 Sc309 2.105 . S
O323 C317 1.268 . S
O324 Sc308 2.105 . S
O324 C316 1.268 . S
O325 Sc309 2.105 . S
O325 C315 1.268 . S
O326 Sc310 2.105 . S
O326 C317 1.268 . S
O327 Sc308 2.105 . S
O327 C313 1.268 . S
O328 Sc310 2.105 . S
O328 C312 1.268 . S
O329 Sc309 2.105 . S
O329 C314 1.268 . S
Sc330 O333 2.025 . S
Sc330 O340 2.105 . S
Sc330 O343 2.105 . S
Sc330 O346 2.105 . S
Sc330 O349 2.105 . S
Sc331 O333 2.025 . S
Sc331 O341 2.105 . S
Sc331 O345 2.105 . S
Sc331 O347 2.105 . S
Sc331 O351 2.105 . S
Sc332 O333 2.025 . S
Sc332 O342 2.105 . S
Sc332 O344 2.105 . S
Sc332 O348 2.105 . S
Sc332 O350 2.105 . S
O333 Sc330 2.025 . S
O333 Sc331 2.025 . S
O333 Sc332 2.025 . S
C334 O340 1.268 . S
C334 O350 1.268 . S
C335 O341 1.268 . S
C335 O349 1.268 . S
C336 O342 1.268 . S
C336 O351 1.268 . S
C337 O343 1.268 . S
C337 O347 1.268 . S
C338 O344 1.268 . S
C338 O346 1.268 . S
C339 O345 1.268 . S
C339 O348 1.268 . S
O340 Sc330 2.105 . S
O340 C334 1.268 . S
O341 Sc331 2.105 . S
O341 C335 1.268 . S
O342 Sc332 2.105 . S
O342 C336 1.268 . S
O343 Sc330 2.105 . S
O343 C337 1.268 . S
O344 Sc332 2.105 . S
O344 C338 1.268 . S
O345 Sc331 2.105 . S
O345 C339 1.268 . S
O346 Sc330 2.105 . S
O346 C338 1.268 . S
O347 Sc331 2.105 . S
O347 C337 1.268 . S
O348 Sc332 2.105 . S
O348 C339 1.268 . S
O349 Sc330 2.105 . S
O349 C335 1.268 . S
O350 Sc332 2.105 . S
O350 C334 1.268 . S
O351 Sc331 2.105 . S
O351 C336 1.268 . S
Sc352 O355 2.025 . S
Sc352 O362 2.105 . S
Sc352 O365 2.105 . S
Sc352 O368 2.105 . S
Sc352 O371 2.105 . S
Sc353 O355 2.025 . S
Sc353 O363 2.105 . S
Sc353 O367 2.105 . S
Sc353 O369 2.105 . S
Sc353 O373 2.105 . S
Sc354 O355 2.025 . S
Sc354 O364 2.105 . S
Sc354 O366 2.105 . S
Sc354 O370 2.105 . S
Sc354 O372 2.105 . S
O355 Sc352 2.025 . S
O355 Sc353 2.025 . S
O355 Sc354 2.025 . S
C356 O362 1.268 . S
C356 O372 1.268 . S
C357 O363 1.268 . S
C357 O371 1.268 . S
C358 O364 1.268 . S
C358 O373 1.268 . S
C359 O365 1.268 . S
C359 O369 1.268 . S
C360 O366 1.268 . S
C360 O368 1.268 . S
C361 O367 1.268 . S
C361 O370 1.268 . S
O362 Sc352 2.105 . S
O362 C356 1.268 . S
O363 Sc353 2.105 . S
O363 C357 1.268 . S
O364 Sc354 2.105 . S
O364 C358 1.268 . S
O365 Sc352 2.105 . S
O365 C359 1.268 . S
O366 Sc354 2.105 . S
O366 C360 1.268 . S
O367 Sc353 2.105 . S
O367 C361 1.268 . S
O368 Sc352 2.105 . S
O368 C360 1.268 . S
O369 Sc353 2.105 . S
O369 C359 1.268 . S
O370 Sc354 2.105 . S
O370 C361 1.268 . S
O371 Sc352 2.105 . S
O371 C357 1.268 . S
O372 Sc354 2.105 . S
O372 C356 1.268 . S
O373 Sc353 2.105 . S
O373 C358 1.268 . S
Sc374 O377 2.025 . S
Sc374 O384 2.105 . S
Sc374 O387 2.105 . S
Sc374 O390 2.105 . S
Sc374 O393 2.105 . S
Sc375 O377 2.025 . S
Sc375 O385 2.105 . S
Sc375 O389 2.105 . S
Sc375 O391 2.105 . S
Sc375 O395 2.105 . S
Sc376 O377 2.025 . S
Sc376 O386 2.105 . S
Sc376 O388 2.105 . S
Sc376 O392 2.105 . S
Sc376 O394 2.105 . S
O377 Sc374 2.025 . S
O377 Sc375 2.025 . S
O377 Sc376 2.025 . S
C378 O384 1.268 . S
C378 O394 1.268 . S
C379 O385 1.268 . S
C379 O393 1.268 . S
C380 O386 1.268 . S
C380 O395 1.268 . S
C381 O387 1.268 . S
C381 O391 1.268 . S
C382 O388 1.268 . S
C382 O390 1.268 . S
C383 O389 1.268 . S
C383 O392 1.268 . S
O384 Sc374 2.105 . S
O384 C378 1.268 . S
O385 Sc375 2.105 . S
O385 C379 1.268 . S
O386 Sc376 2.105 . S
O386 C380 1.268 . S
O387 Sc374 2.105 . S
O387 C381 1.268 . S
O388 Sc376 2.105 . S
O388 C382 1.268 . S
O389 Sc375 2.105 . S
O389 C383 1.268 . S
O390 Sc374 2.105 . S
O390 C382 1.268 . S
O391 Sc375 2.105 . S
O391 C381 1.268 . S
O392 Sc376 2.105 . S
O392 C383 1.268 . S
O393 Sc374 2.105 . S
O393 C379 1.268 . S
O394 Sc376 2.105 . S
O394 C378 1.268 . S
O395 Sc375 2.105 . S
O395 C380 1.268 . S
Sc396 O399 2.025 . S
Sc396 O406 2.105 . S
Sc396 O409 2.105 . S
Sc396 O412 2.105 . S
Sc396 O415 2.105 . S
Sc397 O399 2.025 . S
Sc397 O407 2.105 . S
Sc397 O411 2.105 . S
Sc397 O413 2.105 . S
Sc397 O417 2.105 . S
Sc398 O399 2.025 . S
Sc398 O408 2.105 . S
Sc398 O410 2.105 . S
Sc398 O414 2.105 . S
Sc398 O416 2.105 . S
O399 Sc396 2.025 . S
O399 Sc397 2.025 . S
O399 Sc398 2.025 . S
C400 O406 1.268 . S
C400 O416 1.268 . S
C401 O407 1.268 . S
C401 O415 1.268 . S
C402 O408 1.268 . S
C402 O417 1.268 . S
C403 O409 1.268 . S
C403 O413 1.268 . S
C404 O410 1.268 . S
C404 O412 1.268 . S
C405 O411 1.268 . S
C405 O414 1.268 . S
O406 Sc396 2.105 . S
O406 C400 1.268 . S
O407 Sc397 2.105 . S
O407 C401 1.268 . S
O408 Sc398 2.105 . S
O408 C402 1.268 . S
O409 Sc396 2.105 . S
O409 C403 1.268 . S
O410 Sc398 2.105 . S
O410 C404 1.268 . S
O411 Sc397 2.105 . S
O411 C405 1.268 . S
O412 Sc396 2.105 . S
O412 C404 1.268 . S
O413 Sc397 2.105 . S
O413 C403 1.268 . S
O414 Sc398 2.105 . S
O414 C405 1.268 . S
O415 Sc396 2.105 . S
O415 C401 1.268 . S
O416 Sc398 2.105 . S
O416 C400 1.268 . S
O417 Sc397 2.105 . S
O417 C402 1.268 . S
Sc418 O421 2.025 . S
Sc418 O428 2.105 . S
Sc418 O431 2.105 . S
Sc418 O434 2.105 . S
Sc418 O437 2.105 . S
Sc419 O421 2.025 . S
Sc419 O429 2.105 . S
Sc419 O433 2.105 . S
Sc419 O435 2.105 . S
Sc419 O439 2.105 . S
Sc420 O421 2.025 . S
Sc420 O430 2.105 . S
Sc420 O432 2.105 . S
Sc420 O436 2.105 . S
Sc420 O438 2.105 . S
O421 Sc418 2.025 . S
O421 Sc419 2.025 . S
O421 Sc420 2.025 . S
C422 O428 1.268 . S
C422 O438 1.268 . S
C423 O429 1.268 . S
C423 O437 1.268 . S
C424 O430 1.268 . S
C424 O439 1.268 . S
C425 O431 1.268 . S
C425 O435 1.268 . S
C426 O432 1.268 . S
C426 O434 1.268 . S
C427 O433 1.268 . S
C427 O436 1.268 . S
O428 Sc418 2.105 . S
O428 C422 1.268 . S
O429 Sc419 2.105 . S
O429 C423 1.268 . S
O430 Sc420 2.105 . S
O430 C424 1.268 . S
O431 Sc418 2.105 . S
O431 C425 1.268 . S
O432 Sc420 2.105 . S
O432 C426 1.268 . S
O433 Sc419 2.105 . S
O433 C427 1.268 . S
O434 Sc418 2.105 . S
O434 C426 1.268 . S
O435 Sc419 2.105 . S
O435 C425 1.268 . S
O436 Sc420 2.105 . S
O436 C427 1.268 . S
O437 Sc418 2.105 . S
O437 C423 1.268 . S
O438 Sc420 2.105 . S
O438 C422 1.268 . S
O439 Sc419 2.105 . S
O439 C424 1.268 . S
Sc440 O443 2.025 . S
Sc440 O450 2.105 . S
Sc440 O453 2.105 . S
Sc440 O456 2.105 . S
Sc440 O459 2.105 . S
Sc441 O443 2.025 . S
Sc441 O451 2.105 . S
Sc441 O455 2.105 . S
Sc441 O457 2.105 . S
Sc441 O461 2.105 . S
Sc442 O443 2.025 . S
Sc442 O452 2.105 . S
Sc442 O454 2.105 . S
Sc442 O458 2.105 . S
Sc442 O460 2.105 . S
O443 Sc440 2.025 . S
O443 Sc441 2.025 . S
O443 Sc442 2.025 . S
C444 O450 1.268 . S
C444 O460 1.268 . S
C445 O451 1.268 . S
C445 O459 1.268 . S
C446 O452 1.268 . S
C446 O461 1.268 . S
C447 O453 1.268 . S
C447 O457 1.268 . S
C448 O454 1.268 . S
C448 O456 1.268 . S
C449 O455 1.268 . S
C449 O458 1.268 . S
O450 Sc440 2.105 . S
O450 C444 1.268 . S
O451 Sc441 2.105 . S
O451 C445 1.268 . S
O452 Sc442 2.105 . S
O452 C446 1.268 . S
O453 Sc440 2.105 . S
O453 C447 1.268 . S
O454 Sc442 2.105 . S
O454 C448 1.268 . S
O455 Sc441 2.105 . S
O455 C449 1.268 . S
O456 Sc440 2.105 . S
O456 C448 1.268 . S
O457 Sc441 2.105 . S
O457 C447 1.268 . S
O458 Sc442 2.105 . S
O458 C449 1.268 . S
O459 Sc440 2.105 . S
O459 C445 1.268 . S
O460 Sc442 2.105 . S
O460 C444 1.268 . S
O461 Sc441 2.105 . S
O461 C446 1.268 . S
Sc462 O465 2.025 . S
Sc462 O472 2.105 . S
Sc462 O475 2.105 . S
Sc462 O478 2.105 . S
Sc462 O481 2.105 . S
Sc463 O465 2.025 . S
Sc463 O473 2.105 . S
Sc463 O477 2.105 . S
Sc463 O479 2.105 . S
Sc463 O483 2.105 . S
Sc464 O465 2.025 . S
Sc464 O474 2.105 . S
Sc464 O476 2.105 . S
Sc464 O480 2.105 . S
Sc464 O482 2.105 . S
O465 Sc462 2.025 . S
O465 Sc463 2.025 . S
O465 Sc464 2.025 . S
C466 O472 1.268 . S
C466 O482 1.268 . S
C467 O473 1.268 . S
C467 O481 1.268 . S
C468 O474 1.268 . S
C468 O483 1.268 . S
C469 O475 1.268 . S
C469 O479 1.268 . S
C470 O476 1.268 . S
C470 O478 1.268 . S
C471 O477 1.268 . S
C471 O480 1.268 . S
O472 Sc462 2.105 . S
O472 C466 1.268 . S
O473 Sc463 2.105 . S
O473 C467 1.268 . S
O474 Sc464 2.105 . S
O474 C468 1.268 . S
O475 Sc462 2.105 . S
O475 C469 1.268 . S
O476 Sc464 2.105 . S
O476 C470 1.268 . S
O477 Sc463 2.105 . S
O477 C471 1.268 . S
O478 Sc462 2.105 . S
O478 C470 1.268 . S
O479 Sc463 2.105 . S
O479 C469 1.268 . S
O480 Sc464 2.105 . S
O480 C471 1.268 . S
O481 Sc462 2.105 . S
O481 C467 1.268 . S
O482 Sc464 2.105 . S
O482 C466 1.268 . S
O483 Sc463 2.105 . S
O483 C468 1.268 . S
Sc484 O487 2.025 . S
Sc484 O494 2.105 . S
Sc484 O497 2.105 . S
Sc484 O500 2.105 . S
Sc484 O503 2.105 . S
Sc485 O487 2.025 . S
Sc485 O495 2.105 . S
Sc485 O499 2.105 . S
Sc485 O501 2.105 . S
Sc485 O505 2.105 . S
Sc486 O487 2.025 . S
Sc486 O496 2.105 . S
Sc486 O498 2.105 . S
Sc486 O502 2.105 . S
Sc486 O504 2.105 . S
O487 Sc484 2.025 . S
O487 Sc485 2.025 . S
O487 Sc486 2.025 . S
C488 O494 1.268 . S
C488 O504 1.268 . S
C489 O495 1.268 . S
C489 O503 1.268 . S
C490 O496 1.268 . S
C490 O505 1.268 . S
C491 O497 1.268 . S
C491 O501 1.268 . S
C492 O498 1.268 . S
C492 O500 1.268 . S
C493 O499 1.268 . S
C493 O502 1.268 . S
O494 Sc484 2.105 . S
O494 C488 1.268 . S
O495 Sc485 2.105 . S
O495 C489 1.268 . S
O496 Sc486 2.105 . S
O496 C490 1.268 . S
O497 Sc484 2.105 . S
O497 C491 1.268 . S
O498 Sc486 2.105 . S
O498 C492 1.268 . S
O499 Sc485 2.105 . S
O499 C493 1.268 . S
O500 Sc484 2.105 . S
O500 C492 1.268 . S
O501 Sc485 2.105 . S
O501 C491 1.268 . S
O502 Sc486 2.105 . S
O502 C493 1.268 . S
O503 Sc484 2.105 . S
O503 C489 1.268 . S
O504 Sc486 2.105 . S
O504 C488 1.268 . S
O505 Sc485 2.105 . S
O505 C490 1.268 . S
Sc506 O509 2.025 . S
Sc506 O516 2.105 . S
Sc506 O519 2.105 . S
Sc506 O522 2.105 . S
Sc506 O525 2.105 . S
Sc507 O509 2.025 . S
Sc507 O517 2.105 . S
Sc507 O521 2.105 . S
Sc507 O523 2.105 . S
Sc507 O527 2.105 . S
Sc508 O509 2.025 . S
Sc508 O518 2.105 . S
Sc508 O520 2.105 . S
Sc508 O524 2.105 . S
Sc508 O526 2.105 . S
O509 Sc506 2.025 . S
O509 Sc507 2.025 . S
O509 Sc508 2.025 . S
C510 O516 1.268 . S
C510 O526 1.268 . S
C511 O517 1.268 . S
C511 O525 1.268 . S
C512 O518 1.268 . S
C512 O527 1.268 . S
C513 O519 1.268 . S
C513 O523 1.268 . S
C514 O520 1.268 . S
C514 O522 1.268 . S
C515 O521 1.268 . S
C515 O524 1.268 . S
O516 Sc506 2.105 . S
O516 C510 1.268 . S
O517 Sc507 2.105 . S
O517 C511 1.268 . S
O518 Sc508 2.105 . S
O518 C512 1.268 . S
O519 Sc506 2.105 . S
O519 C513 1.268 . S
O520 Sc508 2.105 . S
O520 C514 1.268 . S
O521 Sc507 2.105 . S
O521 C515 1.268 . S
O522 Sc506 2.105 . S
O522 C514 1.268 . S
O523 Sc507 2.105 . S
O523 C513 1.268 . S
O524 Sc508 2.105 . S
O524 C515 1.268 . S
O525 Sc506 2.105 . S
O525 C511 1.268 . S
O526 Sc508 2.105 . S
O526 C510 1.268 . S
O527 Sc507 2.105 . S
O527 C512 1.268 . S
H528 C534 0.930 . S
H529 C538 0.930 . S
H530 C543 0.929 . S
H531 C541 0.929 . S
H532 C536 0.929 1_556 S
H533 C542 0.929 1_554 S
C534 H528 0.930 . S
C534 C535 1.367 . S
C534 C542 1.378 . S
C535 C534 1.367 . S
C535 C543 1.433 . S
C536 H532 0.929 1_554 S
C536 C538 1.378 . S
C536 C540 1.350 . S
C537 C540 1.463 1_556 S
C537 C542 1.350 . S
C537 N545 1.427 . S
C538 H529 0.930 . S
C538 C536 1.378 . S
C538 C539 1.367 . S
C539 C538 1.367 . S
C539 C541 1.433 . S
C540 C536 1.350 . S
C540 C537 1.463 1_554 S
C540 N544 1.427 . S
C541 H531 0.929 . S
C541 C539 1.433 . S
C541 N544 1.384 . S
C542 H533 0.929 1_556 S
C542 C534 1.378 . S
C542 C537 1.350 . S
C543 H530 0.929 . S
C543 C535 1.433 . S
C543 N545 1.384 . S
N544 C540 1.427 . S
N544 C541 1.384 . S
N545 C537 1.427 . S
N545 C543 1.384 . S
H546 C552 0.930 . S
H547 C556 0.930 . S
H548 C561 0.929 . S
H549 C559 0.929 . S
H550 C554 0.929 . S
H551 C560 0.929 . S
C552 H546 0.930 . S
C552 C553 1.367 . S
C552 C560 1.378 . S
C553 C552 1.367 . S
C553 C561 1.433 . S
C554 H550 0.929 . S
C554 C556 1.378 . S
C554 C558 1.350 . S
C555 C558 1.463 . S
C555 C560 1.350 . S
C555 N563 1.427 . S
C556 H547 0.930 . S
C556 C554 1.378 . S
C556 C557 1.367 . S
C557 C556 1.367 . S
C557 C559 1.433 . S
C558 C554 1.350 . S
C558 C555 1.463 . S
C558 N562 1.427 . S
C559 H549 0.929 . S
C559 C557 1.433 . S
C559 N562 1.384 . S
C560 H551 0.929 . S
C560 C552 1.378 . S
C560 C555 1.350 . S
C561 H548 0.929 . S
C561 C553 1.433 . S
C561 N563 1.384 . S
N562 C558 1.427 . S
N562 C559 1.384 . S
N563 C555 1.427 . S
N563 C561 1.384 . S
H564 C570 0.930 . S
H565 C574 0.930 . S
H566 C579 0.929 . S
H567 C577 0.929 . S
H568 C572 0.929 . S
H569 C578 0.929 . S
C570 H564 0.930 . S
C570 C571 1.367 . S
C570 C578 1.378 . S
C571 C570 1.367 . S
C571 C579 1.433 . S
C572 H568 0.929 . S
C572 C574 1.378 . S
C572 C576 1.350 . S
C573 C576 1.463 1_556 S
C573 C578 1.350 . S
C573 N581 1.427 . S
C574 H565 0.930 . S
C574 C572 1.378 . S
C574 C575 1.367 . S
C575 C574 1.367 . S
C575 C577 1.433 . S
C576 C572 1.350 . S
C576 C573 1.463 1_554 S
C576 N580 1.427 . S
C577 H567 0.929 . S
C577 C575 1.433 . S
C577 N580 1.384 . S
C578 H569 0.929 . S
C578 C570 1.378 . S
C578 C573 1.350 . S
C579 H566 0.929 . S
C579 C571 1.433 . S
C579 N581 1.384 . S
N580 C576 1.427 . S
N580 C577 1.384 . S
N581 C573 1.427 . S
N581 C579 1.384 . S
H582 C588 0.930 . S
H583 C592 0.930 . S
H584 C597 0.929 . S
H585 C595 0.929 . S
H586 C590 0.929 . S
H587 C596 0.929 . S
C588 H582 0.930 . S
C588 C589 1.367 . S
C588 C596 1.378 . S
C589 C588 1.367 . S
C589 C597 1.433 . S
C590 H586 0.929 . S
C590 C592 1.378 . S
C590 C594 1.350 . S
C591 C594 1.463 . S
C591 C596 1.350 . S
C591 N599 1.427 . S
C592 H583 0.930 . S
C592 C590 1.378 . S
C592 C593 1.367 . S
C593 C592 1.367 . S
C593 C595 1.433 . S
C594 C590 1.350 . S
C594 C591 1.463 . S
C594 N598 1.427 . S
C595 H585 0.929 . S
C595 C593 1.433 . S
C595 N598 1.384 . S
C596 H587 0.929 . S
C596 C588 1.378 . S
C596 C591 1.350 . S
C597 H584 0.929 . S
C597 C589 1.433 . S
C597 N599 1.384 . S
N598 C594 1.427 . S
N598 C595 1.384 . S
N599 C591 1.427 . S
N599 C597 1.384 . S
H600 C606 0.930 . S
H601 C610 0.930 . S
H602 C615 0.929 . S
H603 C613 0.929 . S
H604 C608 0.929 1_556 S
H605 C614 0.929 1_554 S
C606 H600 0.930 . S
C606 C607 1.367 . S
C606 C614 1.378 . S
C607 C606 1.367 . S
C607 C615 1.433 . S
C608 H604 0.929 1_554 S
C608 C610 1.378 . S
C608 C612 1.350 . S
C609 C612 1.463 1_556 S
C609 C614 1.350 . S
C609 N617 1.427 . S
C610 H601 0.930 . S
C610 C608 1.378 . S
C610 C611 1.367 . S
C611 C610 1.367 . S
C611 C613 1.433 . S
C612 C608 1.350 . S
C612 C609 1.463 1_554 S
C612 N616 1.427 . S
C613 H603 0.929 . S
C613 C611 1.433 . S
C613 N616 1.384 . S
C614 H605 0.929 1_556 S
C614 C606 1.378 . S
C614 C609 1.350 . S
C615 H602 0.929 . S
C615 C607 1.433 . S
C615 N617 1.384 . S
N616 C612 1.427 . S
N616 C613 1.384 . S
N617 C609 1.427 . S
N617 C615 1.384 . S
H618 C624 0.930 . S
H619 C628 0.930 . S
H620 C633 0.929 . S
H621 C631 0.929 . S
H622 C626 0.929 . S
H623 C632 0.929 . S
C624 H618 0.930 . S
C624 C625 1.367 . S
C624 C632 1.378 . S
C625 C624 1.367 . S
C625 C633 1.433 . S
C626 H622 0.929 . S
C626 C628 1.378 . S
C626 C630 1.350 . S
C627 C630 1.463 . S
C627 C632 1.350 . S
C627 N635 1.427 . S
C628 H619 0.930 . S
C628 C626 1.378 . S
C628 C629 1.367 . S
C629 C628 1.367 . S
C629 C631 1.433 . S
C630 C626 1.350 . S
C630 C627 1.463 . S
C630 N634 1.427 . S
C631 H621 0.929 . S
C631 C629 1.433 . S
C631 N634 1.384 . S
C632 H623 0.929 . S
C632 C624 1.378 . S
C632 C627 1.350 . S
C633 H620 0.929 . S
C633 C625 1.433 . S
C633 N635 1.384 . S
N634 C630 1.427 . S
N634 C631 1.384 . S
N635 C627 1.427 . S
N635 C633 1.384 . S
H636 C642 0.930 . S
H637 C646 0.930 . S
H638 C651 0.929 . S
H639 C649 0.929 . S
H640 C644 0.929 . S
H641 C650 0.929 . S
C642 H636 0.930 . S
C642 C643 1.367 . S
C642 C650 1.378 . S
C643 C642 1.367 . S
C643 C651 1.433 . S
C644 H640 0.929 . S
C644 C646 1.378 . S
C644 C648 1.350 . S
C645 C648 1.463 1_556 S
C645 C650 1.350 . S
C645 N653 1.427 . S
C646 H637 0.930 . S
C646 C644 1.378 . S
C646 C647 1.367 . S
C647 C646 1.367 . S
C647 C649 1.433 . S
C648 C644 1.350 . S
C648 C645 1.463 1_554 S
C648 N652 1.427 . S
C649 H639 0.929 . S
C649 C647 1.433 . S
C649 N652 1.384 . S
C650 H641 0.929 . S
C650 C642 1.378 . S
C650 C645 1.350 . S
C651 H638 0.929 . S
C651 C643 1.433 . S
C651 N653 1.384 . S
N652 C648 1.427 . S
N652 C649 1.384 . S
N653 C645 1.427 . S
N653 C651 1.384 . S
H654 C660 0.930 . S
H655 C664 0.930 . S
H656 C669 0.929 . S
H657 C667 0.929 . S
H658 C662 0.929 . S
H659 C668 0.929 . S
C660 H654 0.930 . S
C660 C661 1.367 . S
C660 C668 1.378 . S
C661 C660 1.367 . S
C661 C669 1.433 . S
C662 H658 0.929 . S
C662 C664 1.378 . S
C662 C666 1.350 . S
C663 C666 1.463 . S
C663 C668 1.350 . S
C663 N671 1.427 . S
C664 H655 0.930 . S
C664 C662 1.378 . S
C664 C665 1.367 . S
C665 C664 1.367 . S
C665 C667 1.433 . S
C666 C662 1.350 . S
C666 C663 1.463 . S
C666 N670 1.427 . S
C667 H657 0.929 . S
C667 C665 1.433 . S
C667 N670 1.384 . S
C668 H659 0.929 . S
C668 C660 1.378 . S
C668 C663 1.350 . S
C669 H656 0.929 . S
C669 C661 1.433 . S
C669 N671 1.384 . S
N670 C666 1.427 . S
N670 C667 1.384 . S
N671 C663 1.427 . S
N671 C669 1.384 . S
H672 C678 0.930 . S
H673 C682 0.930 . S
H674 C687 0.929 . S
H675 C685 0.929 . S
H676 C680 0.929 1_554 S
H677 C686 0.929 1_556 S
C678 H672 0.930 . S
C678 C679 1.367 . S
C678 C686 1.378 . S
C679 C678 1.367 . S
C679 C687 1.433 . S
C680 H676 0.929 1_556 S
C680 C682 1.378 . S
C680 C684 1.350 . S
C681 C684 1.463 1_554 S
C681 C686 1.350 . S
C681 N689 1.427 . S
C682 H673 0.930 . S
C682 C680 1.378 . S
C682 C683 1.367 . S
C683 C682 1.367 . S
C683 C685 1.433 . S
C684 C680 1.350 . S
C684 C681 1.463 1_556 S
C684 N688 1.427 . S
C685 H675 0.929 . S
C685 C683 1.433 . S
C685 N688 1.384 . S
C686 H677 0.929 1_554 S
C686 C678 1.378 . S
C686 C681 1.350 . S
C687 H674 0.929 . S
C687 C679 1.433 . S
C687 N689 1.384 . S
N688 C684 1.427 . S
N688 C685 1.384 . S
N689 C681 1.427 . S
N689 C687 1.384 . S
H690 C696 0.930 . S
H691 C700 0.930 . S
H692 C705 0.929 . S
H693 C703 0.929 . S
H694 C698 0.929 . S
H695 C704 0.929 . S
C696 H690 0.930 . S
C696 C697 1.367 . S
C696 C704 1.378 . S
C697 C696 1.367 . S
C697 C705 1.433 . S
C698 H694 0.929 . S
C698 C700 1.378 . S
C698 C702 1.350 . S
C699 C702 1.463 . S
C699 C704 1.350 . S
C699 N707 1.427 . S
C700 H691 0.930 . S
C700 C698 1.378 . S
C700 C701 1.367 . S
C701 C700 1.367 . S
C701 C703 1.433 . S
C702 C698 1.350 . S
C702 C699 1.463 . S
C702 N706 1.427 . S
C703 H693 0.929 . S
C703 C701 1.433 . S
C703 N706 1.384 . S
C704 H695 0.929 . S
C704 C696 1.378 . S
C704 C699 1.350 . S
C705 H692 0.929 . S
C705 C697 1.433 . S
C705 N707 1.384 . S
N706 C702 1.427 . S
N706 C703 1.384 . S
N707 C699 1.427 . S
N707 C705 1.384 . S
H708 C714 0.930 . S
H709 C718 0.930 . S
H710 C723 0.929 . S
H711 C721 0.929 . S
H712 C716 0.929 1_556 S
H713 C722 0.929 1_554 S
C714 H708 0.930 . S
C714 C715 1.367 . S
C714 C722 1.378 . S
C715 C714 1.367 . S
C715 C723 1.433 . S
C716 H712 0.929 1_554 S
C716 C718 1.378 . S
C716 C720 1.350 . S
C717 C720 1.463 1_556 S
C717 C722 1.350 . S
C717 N725 1.427 . S
C718 H709 0.930 . S
C718 C716 1.378 . S
C718 C719 1.367 . S
C719 C718 1.367 . S
C719 C721 1.433 . S
C720 C716 1.350 . S
C720 C717 1.463 1_554 S
C720 N724 1.427 . S
C721 H711 0.929 . S
C721 C719 1.433 . S
C721 N724 1.384 . S
C722 H713 0.929 1_556 S
C722 C714 1.378 . S
C722 C717 1.350 . S
C723 H710 0.929 . S
C723 C715 1.433 . S
C723 N725 1.384 . S
N724 C720 1.427 . S
N724 C721 1.384 . S
N725 C717 1.427 . S
N725 C723 1.384 . S
H726 C732 0.930 . S
H727 C736 0.930 . S
H728 C741 0.929 . S
H729 C739 0.929 . S
H730 C734 0.929 . S
H731 C740 0.929 . S
C732 H726 0.930 . S
C732 C733 1.367 . S
C732 C740 1.378 . S
C733 C732 1.367 . S
C733 C741 1.433 . S
C734 H730 0.929 . S
C734 C736 1.378 . S
C734 C738 1.350 . S
C735 C738 1.463 . S
C735 C740 1.350 . S
C735 N743 1.427 . S
C736 H727 0.930 . S
C736 C734 1.378 . S
C736 C737 1.367 . S
C737 C736 1.367 . S
C737 C739 1.433 . S
C738 C734 1.350 . S
C738 C735 1.463 . S
C738 N742 1.427 . S
C739 H729 0.929 . S
C739 C737 1.433 . S
C739 N742 1.384 . S
C740 H731 0.929 . S
C740 C732 1.378 . S
C740 C735 1.350 . S
C741 H728 0.929 . S
C741 C733 1.433 . S
C741 N743 1.384 . S
N742 C738 1.427 . S
N742 C739 1.384 . S
N743 C735 1.427 . S
N743 C741 1.384 . S
H744 C750 0.930 . S
H745 C754 0.930 . S
H746 C759 0.929 . S
H747 C757 0.929 . S
H748 C752 0.929 . S
H749 C758 0.929 . S
C750 H744 0.930 . S
C750 C751 1.367 . S
C750 C758 1.378 . S
C751 C750 1.367 . S
C751 C759 1.433 . S
C752 H748 0.929 . S
C752 C754 1.378 . S
C752 C756 1.350 . S
C753 C756 1.463 . S
C753 C758 1.350 . S
C753 N761 1.427 . S
C754 H745 0.930 . S
C754 C752 1.378 . S
C754 C755 1.367 . S
C755 C754 1.367 . S
C755 C757 1.433 . S
C756 C752 1.350 . S
C756 C753 1.463 . S
C756 N760 1.427 . S
C757 H747 0.929 . S
C757 C755 1.433 . S
C757 N760 1.384 . S
C758 H749 0.929 . S
C758 C750 1.378 . S
C758 C753 1.350 . S
C759 H746 0.929 . S
C759 C751 1.433 . S
C759 N761 1.384 . S
N760 C756 1.427 . S
N760 C757 1.384 . S
N761 C753 1.427 . S
N761 C759 1.384 . S
H762 C768 0.930 . S
H763 C772 0.930 . S
H764 C777 0.929 . S
H765 C775 0.929 . S
H766 C770 0.929 . S
H767 C776 0.929 . S
C768 H762 0.930 . S
C768 C769 1.367 . S
C768 C776 1.378 . S
C769 C768 1.367 . S
C769 C777 1.433 . S
C770 H766 0.929 . S
C770 C772 1.378 . S
C770 C774 1.350 . S
C771 C774 1.463 . S
C771 C776 1.350 . S
C771 N779 1.427 . S
C772 H763 0.930 . S
C772 C770 1.378 . S
C772 C773 1.367 . S
C773 C772 1.367 . S
C773 C775 1.433 . S
C774 C770 1.350 . S
C774 C771 1.463 . S
C774 N778 1.427 . S
C775 H765 0.929 . S
C775 C773 1.433 . S
C775 N778 1.384 . S
C776 H767 0.929 . S
C776 C768 1.378 . S
C776 C771 1.350 . S
C777 H764 0.929 . S
C777 C769 1.433 . S
C777 N779 1.384 . S
N778 C774 1.427 . S
N778 C775 1.384 . S
N779 C771 1.427 . S
N779 C777 1.384 . S
H780 C786 0.930 . S
H781 C790 0.930 . S
H782 C795 0.929 . S
H783 C793 0.929 . S
H784 C788 0.929 . S
H785 C794 0.929 . S
C786 H780 0.930 . S
C786 C787 1.367 . S
C786 C794 1.378 . S
C787 C786 1.367 . S
C787 C795 1.433 . S
C788 H784 0.929 . S
C788 C790 1.378 . S
C788 C792 1.350 . S
C789 C792 1.463 . S
C789 C794 1.350 . S
C789 N797 1.427 . S
C790 H781 0.930 . S
C790 C788 1.378 . S
C790 C791 1.367 . S
C791 C790 1.367 . S
C791 C793 1.433 . S
C792 C788 1.350 . S
C792 C789 1.463 . S
C792 N796 1.427 . S
C793 H783 0.929 . S
C793 C791 1.433 . S
C793 N796 1.384 . S
C794 H785 0.929 . S
C794 C786 1.378 . S
C794 C789 1.350 . S
C795 H782 0.929 . S
C795 C787 1.433 . S
C795 N797 1.384 . S
N796 C792 1.427 . S
N796 C793 1.384 . S
N797 C789 1.427 . S
N797 C795 1.384 . S
H798 C804 0.930 . S
H799 C808 0.930 . S
H800 C813 0.929 . S
H801 C811 0.929 . S
H802 C806 0.929 . S
H803 C812 0.929 . S
C804 H798 0.930 . S
C804 C805 1.367 . S
C804 C812 1.378 . S
C805 C804 1.367 . S
C805 C813 1.433 . S
C806 H802 0.929 . S
C806 C808 1.378 . S
C806 C810 1.350 . S
C807 C810 1.463 . S
C807 C812 1.350 . S
C807 N815 1.427 . S
C808 H799 0.930 . S
C808 C806 1.378 . S
C808 C809 1.367 . S
C809 C808 1.367 . S
C809 C811 1.433 . S
C810 C806 1.350 . S
C810 C807 1.463 . S
C810 N814 1.427 . S
C811 H801 0.929 . S
C811 C809 1.433 . S
C811 N814 1.384 . S
C812 H803 0.929 . S
C812 C804 1.378 . S
C812 C807 1.350 . S
C813 H800 0.929 . S
C813 C805 1.433 . S
C813 N815 1.384 . S
N814 C810 1.427 . S
N814 C811 1.384 . S
N815 C807 1.427 . S
N815 C813 1.384 . S
H816 C822 0.930 . S
H817 C826 0.930 . S
H818 C831 0.929 . S
H819 C829 0.929 . S
H820 C824 0.929 . S
H821 C830 0.929 . S
C822 H816 0.930 . S
C822 C823 1.367 . S
C822 C830 1.378 . S
C823 C822 1.367 . S
C823 C831 1.433 . S
C824 H820 0.929 . S
C824 C826 1.378 . S
C824 C828 1.350 . S
C825 C828 1.463 . S
C825 C830 1.350 . S
C825 N833 1.427 . S
C826 H817 0.930 . S
C826 C824 1.378 . S
C826 C827 1.367 . S
C827 C826 1.367 . S
C827 C829 1.433 . S
C828 C824 1.350 . S
C828 C825 1.463 . S
C828 N832 1.427 . S
C829 H819 0.929 . S
C829 C827 1.433 . S
C829 N832 1.384 . S
C830 H821 0.929 . S
C830 C822 1.378 . S
C830 C825 1.350 . S
C831 H818 0.929 . S
C831 C823 1.433 . S
C831 N833 1.384 . S
N832 C828 1.427 . S
N832 C829 1.384 . S
N833 C825 1.427 . S
N833 C831 1.384 . S
H834 C840 0.930 . S
H835 C844 0.930 . S
H836 C849 0.929 . S
H837 C847 0.929 . S
H838 C842 0.929 . S
H839 C848 0.929 . S
C840 H834 0.930 . S
C840 C841 1.367 . S
C840 C848 1.378 . S
C841 C840 1.367 . S
C841 C849 1.433 . S
C842 H838 0.929 . S
C842 C844 1.378 . S
C842 C846 1.350 . S
C843 C846 1.463 . S
C843 C848 1.350 . S
C843 N851 1.427 . S
C844 H835 0.930 . S
C844 C842 1.378 . S
C844 C845 1.367 . S
C845 C844 1.367 . S
C845 C847 1.433 . S
C846 C842 1.350 . S
C846 C843 1.463 . S
C846 N850 1.427 . S
C847 H837 0.929 . S
C847 C845 1.433 . S
C847 N850 1.384 . S
C848 H839 0.929 . S
C848 C840 1.378 . S
C848 C843 1.350 . S
C849 H836 0.929 . S
C849 C841 1.433 . S
C849 N851 1.384 . S
N850 C846 1.427 . S
N850 C847 1.384 . S
N851 C843 1.427 . S
N851 C849 1.384 . S
H852 C858 0.930 . S
H853 C862 0.930 . S
H854 C867 0.929 . S
H855 C865 0.929 . S
H856 C860 0.929 . S
H857 C866 0.929 . S
C858 H852 0.930 . S
C858 C859 1.367 . S
C858 C866 1.378 . S
C859 C858 1.367 . S
C859 C867 1.433 . S
C860 H856 0.929 . S
C860 C862 1.378 . S
C860 C864 1.350 . S
C861 C864 1.463 . S
C861 C866 1.350 . S
C861 N869 1.427 . S
C862 H853 0.930 . S
C862 C860 1.378 . S
C862 C863 1.367 . S
C863 C862 1.367 . S
C863 C865 1.433 . S
C864 C860 1.350 . S
C864 C861 1.463 . S
C864 N868 1.427 . S
C865 H855 0.929 . S
C865 C863 1.433 . S
C865 N868 1.384 . S
C866 H857 0.929 . S
C866 C858 1.378 . S
C866 C861 1.350 . S
C867 H854 0.929 . S
C867 C859 1.433 . S
C867 N869 1.384 . S
N868 C864 1.427 . S
N868 C865 1.384 . S
N869 C861 1.427 . S
N869 C867 1.384 . S
H870 C876 0.930 . S
H871 C880 0.930 . S
H872 C885 0.929 . S
H873 C883 0.929 . S
H874 C878 0.929 . S
H875 C884 0.929 . S
C876 H870 0.930 . S
C876 C877 1.367 . S
C876 C884 1.378 . S
C877 C876 1.367 . S
C877 C885 1.433 . S
C878 H874 0.929 . S
C878 C880 1.378 . S
C878 C882 1.350 . S
C879 C882 1.463 . S
C879 C884 1.350 . S
C879 N887 1.427 . S
C880 H871 0.930 . S
C880 C878 1.378 . S
C880 C881 1.367 . S
C881 C880 1.367 . S
C881 C883 1.433 . S
C882 C878 1.350 . S
C882 C879 1.463 . S
C882 N886 1.427 . S
C883 H873 0.929 . S
C883 C881 1.433 . S
C883 N886 1.384 . S
C884 H875 0.929 . S
C884 C876 1.378 . S
C884 C879 1.350 . S
C885 H872 0.929 . S
C885 C877 1.433 . S
C885 N887 1.384 . S
N886 C882 1.427 . S
N886 C883 1.384 . S
N887 C879 1.427 . S
N887 C885 1.384 . S
H888 C894 0.930 . S
H889 C898 0.930 . S
H890 C903 0.929 . S
H891 C901 0.929 . S
H892 C896 0.929 . S
H893 C902 0.929 . S
C894 H888 0.930 . S
C894 C895 1.367 . S
C894 C902 1.378 . S
C895 C894 1.367 . S
C895 C903 1.433 . S
C896 H892 0.929 . S
C896 C898 1.378 . S
C896 C900 1.350 . S
C897 C900 1.463 . S
C897 C902 1.350 . S
C897 N905 1.427 . S
C898 H889 0.930 . S
C898 C896 1.378 . S
C898 C899 1.367 . S
C899 C898 1.367 . S
C899 C901 1.433 . S
C900 C896 1.350 . S
C900 C897 1.463 . S
C900 N904 1.427 . S
C901 H891 0.929 . S
C901 C899 1.433 . S
C901 N904 1.384 . S
C902 H893 0.929 . S
C902 C894 1.378 . S
C902 C897 1.350 . S
C903 H890 0.929 . S
C903 C895 1.433 . S
C903 N905 1.384 . S
N904 C900 1.427 . S
N904 C901 1.384 . S
N905 C897 1.427 . S
N905 C903 1.384 . S
H906 C912 0.930 . S
H907 C916 0.930 . S
H908 C921 0.929 . S
H909 C919 0.929 . S
H910 C914 0.929 . S
H911 C920 0.929 . S
C912 H906 0.930 . S
C912 C913 1.367 . S
C912 C920 1.378 . S
C913 C912 1.367 . S
C913 C921 1.433 . S
C914 H910 0.929 . S
C914 C916 1.378 . S
C914 C918 1.350 . S
C915 C918 1.463 . S
C915 C920 1.350 . S
C915 N923 1.427 . S
C916 H907 0.930 . S
C916 C914 1.378 . S
C916 C917 1.367 . S
C917 C916 1.367 . S
C917 C919 1.433 . S
C918 C914 1.350 . S
C918 C915 1.463 . S
C918 N922 1.427 . S
C919 H909 0.929 . S
C919 C917 1.433 . S
C919 N922 1.384 . S
C920 H911 0.929 . S
C920 C912 1.378 . S
C920 C915 1.350 . S
C921 H908 0.929 . S
C921 C913 1.433 . S
C921 N923 1.384 . S
N922 C918 1.427 . S
N922 C919 1.384 . S
N923 C915 1.427 . S
N923 C921 1.384 . S
H924 C930 0.930 . S
H925 C934 0.930 . S
H926 C939 0.929 . S
H927 C937 0.929 . S
H928 C932 0.929 . S
H929 C938 0.929 . S
C930 H924 0.930 . S
C930 C931 1.367 . S
C930 C938 1.378 . S
C931 C930 1.367 . S
C931 C939 1.433 . S
C932 H928 0.929 . S
C932 C934 1.378 . S
C932 C936 1.350 . S
C933 C936 1.463 . S
C933 C938 1.350 . S
C933 N941 1.427 . S
C934 H925 0.930 . S
C934 C932 1.378 . S
C934 C935 1.367 . S
C935 C934 1.367 . S
C935 C937 1.433 . S
C936 C932 1.350 . S
C936 C933 1.463 . S
C936 N940 1.427 . S
C937 H927 0.929 . S
C937 C935 1.433 . S
C937 N940 1.384 . S
C938 H929 0.929 . S
C938 C930 1.378 . S
C938 C933 1.350 . S
C939 H926 0.929 . S
C939 C931 1.433 . S
C939 N941 1.384 . S
N940 C936 1.427 . S
N940 C937 1.384 . S
N941 C933 1.427 . S
N941 C939 1.384 . S
H942 C948 0.930 . S
H943 C952 0.930 . S
H944 C957 0.929 . S
H945 C955 0.929 . S
H946 C950 0.929 . S
H947 C956 0.929 . S
C948 H942 0.930 . S
C948 C949 1.367 . S
C948 C956 1.378 . S
C949 C948 1.367 . S
C949 C957 1.433 . S
C950 H946 0.929 . S
C950 C952 1.378 . S
C950 C954 1.350 . S
C951 C954 1.463 . S
C951 C956 1.350 . S
C951 N959 1.427 . S
C952 H943 0.930 . S
C952 C950 1.378 . S
C952 C953 1.367 . S
C953 C952 1.367 . S
C953 C955 1.433 . S
C954 C950 1.350 . S
C954 C951 1.463 . S
C954 N958 1.427 . S
C955 H945 0.929 . S
C955 C953 1.433 . S
C955 N958 1.384 . S
C956 H947 0.929 . S
C956 C948 1.378 . S
C956 C951 1.350 . S
C957 H944 0.929 . S
C957 C949 1.433 . S
C957 N959 1.384 . S
N958 C954 1.427 . S
N958 C955 1.384 . S
N959 C951 1.427 . S
N959 C957 1.384 . S
H960 C966 0.930 . S
H961 C970 0.930 . S
H962 C975 0.929 . S
H963 C973 0.929 . S
H964 C968 0.929 . S
H965 C974 0.929 . S
C966 H960 0.930 . S
C966 C967 1.367 . S
C966 C974 1.378 . S
C967 C966 1.367 . S
C967 C975 1.433 . S
C968 H964 0.929 . S
C968 C970 1.378 . S
C968 C972 1.350 . S
C969 C972 1.463 . S
C969 C974 1.350 . S
C969 N977 1.427 . S
C970 H961 0.930 . S
C970 C968 1.378 . S
C970 C971 1.367 . S
C971 C970 1.367 . S
C971 C973 1.433 . S
C972 C968 1.350 . S
C972 C969 1.463 . S
C972 N976 1.427 . S
C973 H963 0.929 . S
C973 C971 1.433 . S
C973 N976 1.384 . S
C974 H965 0.929 . S
C974 C966 1.378 . S
C974 C969 1.350 . S
C975 H962 0.929 . S
C975 C967 1.433 . S
C975 N977 1.384 . S
N976 C972 1.427 . S
N976 C973 1.384 . S
N977 C969 1.427 . S
N977 C975 1.384 . S
H978 C984 0.930 . S
H979 C988 0.930 . S
H980 C993 0.929 . S
H981 C991 0.929 . S
H982 C986 0.929 . S
H983 C992 0.929 . S
C984 H978 0.930 . S
C984 C985 1.367 . S
C984 C992 1.378 . S
C985 C984 1.367 . S
C985 C993 1.433 . S
C986 H982 0.929 . S
C986 C988 1.378 . S
C986 C990 1.350 . S
C987 C990 1.463 . S
C987 C992 1.350 . S
C987 N995 1.427 . S
C988 H979 0.930 . S
C988 C986 1.378 . S
C988 C989 1.367 . S
C989 C988 1.367 . S
C989 C991 1.433 . S
C990 C986 1.350 . S
C990 C987 1.463 . S
C990 N994 1.427 . S
C991 H981 0.929 . S
C991 C989 1.433 . S
C991 N994 1.384 . S
C992 H983 0.929 . S
C992 C984 1.378 . S
C992 C987 1.350 . S
C993 H980 0.929 . S
C993 C985 1.433 . S
C993 N995 1.384 . S
N994 C990 1.427 . S
N994 C991 1.384 . S
N995 C987 1.427 . S
N995 C993 1.384 . S
H996 C1002 0.930 . S
H997 C1006 0.930 . S
H998 C1011 0.929 . S
H999 C1009 0.929 . S
H1000 C1004 0.929 . S
H1001 C1010 0.929 . S
C1002 H996 0.930 . S
C1002 C1003 1.367 . S
C1002 C1010 1.378 . S
C1003 C1002 1.367 . S
C1003 C1011 1.433 . S
C1004 H1000 0.929 . S
C1004 C1006 1.378 . S
C1004 C1008 1.350 . S
C1005 C1008 1.463 . S
C1005 C1010 1.350 . S
C1005 N1013 1.427 . S
C1006 H997 0.930 . S
C1006 C1004 1.378 . S
C1006 C1007 1.367 . S
C1007 C1006 1.367 . S
C1007 C1009 1.433 . S
C1008 C1004 1.350 . S
C1008 C1005 1.463 . S
C1008 N1012 1.427 . S
C1009 H999 0.929 . S
C1009 C1007 1.433 . S
C1009 N1012 1.384 . S
C1010 H1001 0.929 . S
C1010 C1002 1.378 . S
C1010 C1005 1.350 . S
C1011 H998 0.929 . S
C1011 C1003 1.433 . S
C1011 N1013 1.384 . S
N1012 C1008 1.427 . S
N1012 C1009 1.384 . S
N1013 C1005 1.427 . S
N1013 C1011 1.384 . S
H1014 C1020 0.930 . S
H1015 C1024 0.930 . S
H1016 C1029 0.929 . S
H1017 C1027 0.929 . S
H1018 C1022 0.929 . S
H1019 C1028 0.929 . S
C1020 H1014 0.930 . S
C1020 C1021 1.367 . S
C1020 C1028 1.378 . S
C1021 C1020 1.367 . S
C1021 C1029 1.433 . S
C1022 H1018 0.929 . S
C1022 C1024 1.378 . S
C1022 C1026 1.350 . S
C1023 C1026 1.463 . S
C1023 C1028 1.350 . S
C1023 N1031 1.427 . S
C1024 H1015 0.930 . S
C1024 C1022 1.378 . S
C1024 C1025 1.367 . S
C1025 C1024 1.367 . S
C1025 C1027 1.433 . S
C1026 C1022 1.350 . S
C1026 C1023 1.463 . S
C1026 N1030 1.427 . S
C1027 H1017 0.929 . S
C1027 C1025 1.433 . S
C1027 N1030 1.384 . S
C1028 H1019 0.929 . S
C1028 C1020 1.378 . S
C1028 C1023 1.350 . S
C1029 H1016 0.929 . S
C1029 C1021 1.433 . S
C1029 N1031 1.384 . S
N1030 C1026 1.427 . S
N1030 C1027 1.384 . S
N1031 C1023 1.427 . S
N1031 C1029 1.384 . S
H1032 C1038 0.930 . S
H1033 C1042 0.930 . S
H1034 C1047 0.929 . S
H1035 C1045 0.929 . S
H1036 C1040 0.929 . S
H1037 C1046 0.929 . S
C1038 H1032 0.930 . S
C1038 C1039 1.367 . S
C1038 C1046 1.378 . S
C1039 C1038 1.367 . S
C1039 C1047 1.433 . S
C1040 H1036 0.929 . S
C1040 C1042 1.378 . S
C1040 C1044 1.350 . S
C1041 C1044 1.463 . S
C1041 C1046 1.350 . S
C1041 N1049 1.427 . S
C1042 H1033 0.930 . S
C1042 C1040 1.378 . S
C1042 C1043 1.367 . S
C1043 C1042 1.367 . S
C1043 C1045 1.433 . S
C1044 C1040 1.350 . S
C1044 C1041 1.463 . S
C1044 N1048 1.427 . S
C1045 H1035 0.929 . S
C1045 C1043 1.433 . S
C1045 N1048 1.384 . S
C1046 H1037 0.929 . S
C1046 C1038 1.378 . S
C1046 C1041 1.350 . S
C1047 H1034 0.929 . S
C1047 C1039 1.433 . S
C1047 N1049 1.384 . S
N1048 C1044 1.427 . S
N1048 C1045 1.384 . S
N1049 C1041 1.427 . S
N1049 C1047 1.384 . S
H1050 C1056 0.930 . S
H1051 C1060 0.930 . S
H1052 C1065 0.929 . S
H1053 C1063 0.929 . S
H1054 C1058 0.929 . S
H1055 C1064 0.929 . S
C1056 H1050 0.930 . S
C1056 C1057 1.367 . S
C1056 C1064 1.378 . S
C1057 C1056 1.367 . S
C1057 C1065 1.433 . S
C1058 H1054 0.929 . S
C1058 C1060 1.378 . S
C1058 C1062 1.350 . S
C1059 C1062 1.463 . S
C1059 C1064 1.350 . S
C1059 N1067 1.427 . S
C1060 H1051 0.930 . S
C1060 C1058 1.378 . S
C1060 C1061 1.367 . S
C1061 C1060 1.367 . S
C1061 C1063 1.433 . S
C1062 C1058 1.350 . S
C1062 C1059 1.463 . S
C1062 N1066 1.427 . S
C1063 H1053 0.929 . S
C1063 C1061 1.433 . S
C1063 N1066 1.384 . S
C1064 H1055 0.929 . S
C1064 C1056 1.378 . S
C1064 C1059 1.350 . S
C1065 H1052 0.929 . S
C1065 C1057 1.433 . S
C1065 N1067 1.384 . S
N1066 C1062 1.427 . S
N1066 C1063 1.384 . S
N1067 C1059 1.427 . S
N1067 C1065 1.384 . S
H1068 C1074 0.930 . S
H1069 C1078 0.930 . S
H1070 C1083 0.929 . S
H1071 C1081 0.929 . S
H1072 C1076 0.929 . S
H1073 C1082 0.929 . S
C1074 H1068 0.930 . S
C1074 C1075 1.367 . S
C1074 C1082 1.378 . S
C1075 C1074 1.367 . S
C1075 C1083 1.433 . S
C1076 H1072 0.929 . S
C1076 C1078 1.378 . S
C1076 C1080 1.350 . S
C1077 C1080 1.463 . S
C1077 C1082 1.350 . S
C1077 N1085 1.427 . S
C1078 H1069 0.930 . S
C1078 C1076 1.378 . S
C1078 C1079 1.367 . S
C1079 C1078 1.367 . S
C1079 C1081 1.433 . S
C1080 C1076 1.350 . S
C1080 C1077 1.463 . S
C1080 N1084 1.427 . S
C1081 H1071 0.929 . S
C1081 C1079 1.433 . S
C1081 N1084 1.384 . S
C1082 H1073 0.929 . S
C1082 C1074 1.378 . S
C1082 C1077 1.350 . S
C1083 H1070 0.929 . S
C1083 C1075 1.433 . S
C1083 N1085 1.384 . S
N1084 C1080 1.427 . S
N1084 C1081 1.384 . S
N1085 C1077 1.427 . S
N1085 C1083 1.384 . S
H1086 C1092 0.930 . S
H1087 C1096 0.930 . S
H1088 C1101 0.929 . S
H1089 C1099 0.929 . S
H1090 C1094 0.929 . S
H1091 C1100 0.929 . S
C1092 H1086 0.930 . S
C1092 C1093 1.367 . S
C1092 C1100 1.378 . S
C1093 C1092 1.367 . S
C1093 C1101 1.433 . S
C1094 H1090 0.929 . S
C1094 C1096 1.378 . S
C1094 C1098 1.350 . S
C1095 C1098 1.463 . S
C1095 C1100 1.350 . S
C1095 N1103 1.427 . S
C1096 H1087 0.930 . S
C1096 C1094 1.378 . S
C1096 C1097 1.367 . S
C1097 C1096 1.367 . S
C1097 C1099 1.433 . S
C1098 C1094 1.350 . S
C1098 C1095 1.463 . S
C1098 N1102 1.427 . S
C1099 H1089 0.929 . S
C1099 C1097 1.433 . S
C1099 N1102 1.384 . S
C1100 H1091 0.929 . S
C1100 C1092 1.378 . S
C1100 C1095 1.350 . S
C1101 H1088 0.929 . S
C1101 C1093 1.433 . S
C1101 N1103 1.384 . S
N1102 C1098 1.427 . S
N1102 C1099 1.384 . S
N1103 C1095 1.427 . S
N1103 C1101 1.384 . S
H1104 C1110 0.930 . S
H1105 C1114 0.930 . S
H1106 C1119 0.929 . S
H1107 C1117 0.929 . S
H1108 C1112 0.929 . S
H1109 C1118 0.929 . S
C1110 H1104 0.930 . S
C1110 C1111 1.367 . S
C1110 C1118 1.378 . S
C1111 C1110 1.367 . S
C1111 C1119 1.433 . S
C1112 H1108 0.929 . S
C1112 C1114 1.378 . S
C1112 C1116 1.350 . S
C1113 C1116 1.463 . S
C1113 C1118 1.350 . S
C1113 N1121 1.427 . S
C1114 H1105 0.930 . S
C1114 C1112 1.378 . S
C1114 C1115 1.367 . S
C1115 C1114 1.367 . S
C1115 C1117 1.433 . S
C1116 C1112 1.350 . S
C1116 C1113 1.463 . S
C1116 N1120 1.427 . S
C1117 H1107 0.929 . S
C1117 C1115 1.433 . S
C1117 N1120 1.384 . S
C1118 H1109 0.929 . S
C1118 C1110 1.378 . S
C1118 C1113 1.350 . S
C1119 H1106 0.929 . S
C1119 C1111 1.433 . S
C1119 N1121 1.384 . S
N1120 C1116 1.427 . S
N1120 C1117 1.384 . S
N1121 C1113 1.427 . S
N1121 C1119 1.384 . S
H1122 C1128 0.930 . S
H1123 C1132 0.930 . S
H1124 C1137 0.929 . S
H1125 C1135 0.929 . S
H1126 C1130 0.929 . S
H1127 C1136 0.929 . S
C1128 H1122 0.930 . S
C1128 C1129 1.367 . S
C1128 C1136 1.378 . S
C1129 C1128 1.367 . S
C1129 C1137 1.433 . S
C1130 H1126 0.929 . S
C1130 C1132 1.378 . S
C1130 C1134 1.350 . S
C1131 C1134 1.463 . S
C1131 C1136 1.350 . S
C1131 N1139 1.427 . S
C1132 H1123 0.930 . S
C1132 C1130 1.378 . S
C1132 C1133 1.367 . S
C1133 C1132 1.367 . S
C1133 C1135 1.433 . S
C1134 C1130 1.350 . S
C1134 C1131 1.463 . S
C1134 N1138 1.427 . S
C1135 H1125 0.929 . S
C1135 C1133 1.433 . S
C1135 N1138 1.384 . S
C1136 H1127 0.929 . S
C1136 C1128 1.378 . S
C1136 C1131 1.350 . S
C1137 H1124 0.929 . S
C1137 C1129 1.433 . S
C1137 N1139 1.384 . S
N1138 C1134 1.427 . S
N1138 C1135 1.384 . S
N1139 C1131 1.427 . S
N1139 C1137 1.384 . S
H1140 C1146 0.930 . S
H1141 C1150 0.930 . S
H1142 C1155 0.929 . S
H1143 C1153 0.929 . S
H1144 C1148 0.929 . S
H1145 C1154 0.929 . S
C1146 H1140 0.930 . S
C1146 C1147 1.367 . S
C1146 C1154 1.378 . S
C1147 C1146 1.367 . S
C1147 C1155 1.433 . S
C1148 H1144 0.929 . S
C1148 C1150 1.378 . S
C1148 C1152 1.350 . S
C1149 C1152 1.463 . S
C1149 C1154 1.350 . S
C1149 N1157 1.427 . S
C1150 H1141 0.930 . S
C1150 C1148 1.378 . S
C1150 C1151 1.367 . S
C1151 C1150 1.367 . S
C1151 C1153 1.433 . S
C1152 C1148 1.350 . S
C1152 C1149 1.463 . S
C1152 N1156 1.427 . S
C1153 H1143 0.929 . S
C1153 C1151 1.433 . S
C1153 N1156 1.384 . S
C1154 H1145 0.929 . S
C1154 C1146 1.378 . S
C1154 C1149 1.350 . S
C1155 H1142 0.929 . S
C1155 C1147 1.433 . S
C1155 N1157 1.384 . S
N1156 C1152 1.427 . S
N1156 C1153 1.384 . S
N1157 C1149 1.427 . S
N1157 C1155 1.384 . S
H1158 C1164 0.930 . S
H1159 C1168 0.930 . S
H1160 C1173 0.929 . S
H1161 C1171 0.929 . S
H1162 C1166 0.929 . S
H1163 C1172 0.929 . S
C1164 H1158 0.930 . S
C1164 C1165 1.367 . S
C1164 C1172 1.378 . S
C1165 C1164 1.367 . S
C1165 C1173 1.433 . S
C1166 H1162 0.929 . S
C1166 C1168 1.378 . S
C1166 C1170 1.350 . S
C1167 C1170 1.463 . S
C1167 C1172 1.350 . S
C1167 N1175 1.427 . S
C1168 H1159 0.930 . S
C1168 C1166 1.378 . S
C1168 C1169 1.367 . S
C1169 C1168 1.367 . S
C1169 C1171 1.433 . S
C1170 C1166 1.350 . S
C1170 C1167 1.463 . S
C1170 N1174 1.427 . S
C1171 H1161 0.929 . S
C1171 C1169 1.433 . S
C1171 N1174 1.384 . S
C1172 H1163 0.929 . S
C1172 C1164 1.378 . S
C1172 C1167 1.350 . S
C1173 H1160 0.929 . S
C1173 C1165 1.433 . S
C1173 N1175 1.384 . S
N1174 C1170 1.427 . S
N1174 C1171 1.384 . S
N1175 C1167 1.427 . S
N1175 C1173 1.384 . S
H1176 C1182 0.930 . S
H1177 C1186 0.930 . S
H1178 C1191 0.929 . S
H1179 C1189 0.929 . S
H1180 C1184 0.929 . S
H1181 C1190 0.929 . S
C1182 H1176 0.930 . S
C1182 C1183 1.367 . S
C1182 C1190 1.378 . S
C1183 C1182 1.367 . S
C1183 C1191 1.433 . S
C1184 H1180 0.929 . S
C1184 C1186 1.378 . S
C1184 C1188 1.350 . S
C1185 C1188 1.463 . S
C1185 C1190 1.350 . S
C1185 N1193 1.427 . S
C1186 H1177 0.930 . S
C1186 C1184 1.378 . S
C1186 C1187 1.367 . S
C1187 C1186 1.367 . S
C1187 C1189 1.433 . S
C1188 C1184 1.350 . S
C1188 C1185 1.463 . S
C1188 N1192 1.427 . S
C1189 H1179 0.929 . S
C1189 C1187 1.433 . S
C1189 N1192 1.384 . S
C1190 H1181 0.929 . S
C1190 C1182 1.378 . S
C1190 C1185 1.350 . S
C1191 H1178 0.929 . S
C1191 C1183 1.433 . S
C1191 N1193 1.384 . S
N1192 C1188 1.427 . S
N1192 C1189 1.384 . S
N1193 C1185 1.427 . S
N1193 C1191 1.384 . S
H1194 C1200 0.930 . S
H1195 C1204 0.930 . S
H1196 C1209 0.929 . S
H1197 C1207 0.929 . S
H1198 C1202 0.929 . S
H1199 C1208 0.929 . S
C1200 H1194 0.930 . S
C1200 C1201 1.367 . S
C1200 C1208 1.378 . S
C1201 C1200 1.367 . S
C1201 C1209 1.433 . S
C1202 H1198 0.929 . S
C1202 C1204 1.378 . S
C1202 C1206 1.350 . S
C1203 C1206 1.463 . S
C1203 C1208 1.350 . S
C1203 N1211 1.427 . S
C1204 H1195 0.930 . S
C1204 C1202 1.378 . S
C1204 C1205 1.367 . S
C1205 C1204 1.367 . S
C1205 C1207 1.433 . S
C1206 C1202 1.350 . S
C1206 C1203 1.463 . S
C1206 N1210 1.427 . S
C1207 H1197 0.929 . S
C1207 C1205 1.433 . S
C1207 N1210 1.384 . S
C1208 H1199 0.929 . S
C1208 C1200 1.378 . S
C1208 C1203 1.350 . S
C1209 H1196 0.929 . S
C1209 C1201 1.433 . S
C1209 N1211 1.384 . S
N1210 C1206 1.427 . S
N1210 C1207 1.384 . S
N1211 C1203 1.427 . S
N1211 C1209 1.384 . S
H1212 C1218 0.930 . S
H1213 C1222 0.930 . S
H1214 C1227 0.929 . S
H1215 C1225 0.929 . S
H1216 C1220 0.929 . S
H1217 C1226 0.929 . S
C1218 H1212 0.930 . S
C1218 C1219 1.367 . S
C1218 C1226 1.378 . S
C1219 C1218 1.367 . S
C1219 C1227 1.433 . S
C1220 H1216 0.929 . S
C1220 C1222 1.378 . S
C1220 C1224 1.350 . S
C1221 C1224 1.463 . S
C1221 C1226 1.350 . S
C1221 N1229 1.427 . S
C1222 H1213 0.930 . S
C1222 C1220 1.378 . S
C1222 C1223 1.367 . S
C1223 C1222 1.367 . S
C1223 C1225 1.433 . S
C1224 C1220 1.350 . S
C1224 C1221 1.463 . S
C1224 N1228 1.427 . S
C1225 H1215 0.929 . S
C1225 C1223 1.433 . S
C1225 N1228 1.384 . S
C1226 H1217 0.929 . S
C1226 C1218 1.378 . S
C1226 C1221 1.350 . S
C1227 H1214 0.929 . S
C1227 C1219 1.433 . S
C1227 N1229 1.384 . S
N1228 C1224 1.427 . S
N1228 C1225 1.384 . S
N1229 C1221 1.427 . S
N1229 C1227 1.384 . S
H1230 C1236 0.930 . S
H1231 C1240 0.930 . S
H1232 C1245 0.929 . S
H1233 C1243 0.929 . S
H1234 C1238 0.929 . S
H1235 C1244 0.929 . S
C1236 H1230 0.930 . S
C1236 C1237 1.367 . S
C1236 C1244 1.378 . S
C1237 C1236 1.367 . S
C1237 C1245 1.433 . S
C1238 H1234 0.929 . S
C1238 C1240 1.378 . S
C1238 C1242 1.350 . S
C1239 C1242 1.463 . S
C1239 C1244 1.350 . S
C1239 N1247 1.427 . S
C1240 H1231 0.930 . S
C1240 C1238 1.378 . S
C1240 C1241 1.367 . S
C1241 C1240 1.367 . S
C1241 C1243 1.433 . S
C1242 C1238 1.350 . S
C1242 C1239 1.463 . S
C1242 N1246 1.427 . S
C1243 H1233 0.929 . S
C1243 C1241 1.433 . S
C1243 N1246 1.384 . S
C1244 H1235 0.929 . S
C1244 C1236 1.378 . S
C1244 C1239 1.350 . S
C1245 H1232 0.929 . S
C1245 C1237 1.433 . S
C1245 N1247 1.384 . S
N1246 C1242 1.427 . S
N1246 C1243 1.384 . S
N1247 C1239 1.427 . S
N1247 C1245 1.384 . S
H1248 C1254 0.930 . S
H1249 C1258 0.930 . S
H1250 C1263 0.929 . S
H1251 C1261 0.929 . S
H1252 C1256 0.929 . S
H1253 C1262 0.929 . S
C1254 H1248 0.930 . S
C1254 C1255 1.367 . S
C1254 C1262 1.378 . S
C1255 C1254 1.367 . S
C1255 C1263 1.433 . S
C1256 H1252 0.929 . S
C1256 C1258 1.378 . S
C1256 C1260 1.350 . S
C1257 C1260 1.463 . S
C1257 C1262 1.350 . S
C1257 N1265 1.427 . S
C1258 H1249 0.930 . S
C1258 C1256 1.378 . S
C1258 C1259 1.367 . S
C1259 C1258 1.367 . S
C1259 C1261 1.433 . S
C1260 C1256 1.350 . S
C1260 C1257 1.463 . S
C1260 N1264 1.427 . S
C1261 H1251 0.929 . S
C1261 C1259 1.433 . S
C1261 N1264 1.384 . S
C1262 H1253 0.929 . S
C1262 C1254 1.378 . S
C1262 C1257 1.350 . S
C1263 H1250 0.929 . S
C1263 C1255 1.433 . S
C1263 N1265 1.384 . S
N1264 C1260 1.427 . S
N1264 C1261 1.384 . S
N1265 C1257 1.427 . S
N1265 C1263 1.384 . S
H1266 C1272 0.930 . S
H1267 C1276 0.930 . S
H1268 C1281 0.929 . S
H1269 C1279 0.929 . S
H1270 C1274 0.929 . S
H1271 C1280 0.929 . S
C1272 H1266 0.930 . S
C1272 C1273 1.367 . S
C1272 C1280 1.378 . S
C1273 C1272 1.367 . S
C1273 C1281 1.433 . S
C1274 H1270 0.929 . S
C1274 C1276 1.378 . S
C1274 C1278 1.350 . S
C1275 C1278 1.463 . S
C1275 C1280 1.350 . S
C1275 N1283 1.427 . S
C1276 H1267 0.930 . S
C1276 C1274 1.378 . S
C1276 C1277 1.367 . S
C1277 C1276 1.367 . S
C1277 C1279 1.433 . S
C1278 C1274 1.350 . S
C1278 C1275 1.463 . S
C1278 N1282 1.427 . S
C1279 H1269 0.929 . S
C1279 C1277 1.433 . S
C1279 N1282 1.384 . S
C1280 H1271 0.929 . S
C1280 C1272 1.378 . S
C1280 C1275 1.350 . S
C1281 H1268 0.929 . S
C1281 C1273 1.433 . S
C1281 N1283 1.384 . S
N1282 C1278 1.427 . S
N1282 C1279 1.384 . S
N1283 C1275 1.427 . S
N1283 C1281 1.384 . S
H1284 C1290 0.930 . S
H1285 C1294 0.930 . S
H1286 C1299 0.929 . S
H1287 C1297 0.929 . S
H1288 C1292 0.929 . S
H1289 C1298 0.929 . S
C1290 H1284 0.930 . S
C1290 C1291 1.367 . S
C1290 C1298 1.378 . S
C1291 C1290 1.367 . S
C1291 C1299 1.433 . S
C1292 H1288 0.929 . S
C1292 C1294 1.378 . S
C1292 C1296 1.350 . S
C1293 C1296 1.463 . S
C1293 C1298 1.350 . S
C1293 N1301 1.427 . S
C1294 H1285 0.930 . S
C1294 C1292 1.378 . S
C1294 C1295 1.367 . S
C1295 C1294 1.367 . S
C1295 C1297 1.433 . S
C1296 C1292 1.350 . S
C1296 C1293 1.463 . S
C1296 N1300 1.427 . S
C1297 H1287 0.929 . S
C1297 C1295 1.433 . S
C1297 N1300 1.384 . S
C1298 H1289 0.929 . S
C1298 C1290 1.378 . S
C1298 C1293 1.350 . S
C1299 H1286 0.929 . S
C1299 C1291 1.433 . S
C1299 N1301 1.384 . S
N1300 C1296 1.427 . S
N1300 C1297 1.384 . S
N1301 C1293 1.427 . S
N1301 C1299 1.384 . S
H1302 C1308 0.930 . S
H1303 C1312 0.930 . S
H1304 C1317 0.929 . S
H1305 C1315 0.929 . S
H1306 C1310 0.929 . S
H1307 C1316 0.929 . S
C1308 H1302 0.930 . S
C1308 C1309 1.367 . S
C1308 C1316 1.378 . S
C1309 C1308 1.367 . S
C1309 C1317 1.433 . S
C1310 H1306 0.929 . S
C1310 C1312 1.378 . S
C1310 C1314 1.350 . S
C1311 C1314 1.463 . S
C1311 C1316 1.350 . S
C1311 N1319 1.427 . S
C1312 H1303 0.930 . S
C1312 C1310 1.378 . S
C1312 C1313 1.367 . S
C1313 C1312 1.367 . S
C1313 C1315 1.433 . S
C1314 C1310 1.350 . S
C1314 C1311 1.463 . S
C1314 N1318 1.427 . S
C1315 H1305 0.929 . S
C1315 C1313 1.433 . S
C1315 N1318 1.384 . S
C1316 H1307 0.929 . S
C1316 C1308 1.378 . S
C1316 C1311 1.350 . S
C1317 H1304 0.929 . S
C1317 C1309 1.433 . S
C1317 N1319 1.384 . S
N1318 C1314 1.427 . S
N1318 C1315 1.384 . S
N1319 C1311 1.427 . S
N1319 C1317 1.384 . S
H1320 C1326 0.930 . S
H1321 C1330 0.930 . S
H1322 C1335 0.929 . S
H1323 C1333 0.929 . S
H1324 C1328 0.929 . S
H1325 C1334 0.929 . S
C1326 H1320 0.930 . S
C1326 C1327 1.367 . S
C1326 C1334 1.378 . S
C1327 C1326 1.367 . S
C1327 C1335 1.433 . S
C1328 H1324 0.929 . S
C1328 C1330 1.378 . S
C1328 C1332 1.350 . S
C1329 C1332 1.463 . S
C1329 C1334 1.350 . S
C1329 N1337 1.427 . S
C1330 H1321 0.930 . S
C1330 C1328 1.378 . S
C1330 C1331 1.367 . S
C1331 C1330 1.367 . S
C1331 C1333 1.433 . S
C1332 C1328 1.350 . S
C1332 C1329 1.463 . S
C1332 N1336 1.427 . S
C1333 H1323 0.929 . S
C1333 C1331 1.433 . S
C1333 N1336 1.384 . S
C1334 H1325 0.929 . S
C1334 C1326 1.378 . S
C1334 C1329 1.350 . S
C1335 H1322 0.929 . S
C1335 C1327 1.433 . S
C1335 N1337 1.384 . S
N1336 C1332 1.427 . S
N1336 C1333 1.384 . S
N1337 C1329 1.427 . S
N1337 C1335 1.384 . S
H1338 C1344 0.930 . S
H1339 C1348 0.930 . S
H1340 C1353 0.929 . S
H1341 C1351 0.929 . S
H1342 C1346 0.929 . S
H1343 C1352 0.929 . S
C1344 H1338 0.930 . S
C1344 C1345 1.367 . S
C1344 C1352 1.378 . S
C1345 C1344 1.367 . S
C1345 C1353 1.433 . S
C1346 H1342 0.929 . S
C1346 C1348 1.378 . S
C1346 C1350 1.350 . S
C1347 C1350 1.463 . S
C1347 C1352 1.350 . S
C1347 N1355 1.427 . S
C1348 H1339 0.930 . S
C1348 C1346 1.378 . S
C1348 C1349 1.367 . S
C1349 C1348 1.367 . S
C1349 C1351 1.433 . S
C1350 C1346 1.350 . S
C1350 C1347 1.463 . S
C1350 N1354 1.427 . S
C1351 H1341 0.929 . S
C1351 C1349 1.433 . S
C1351 N1354 1.384 . S
C1352 H1343 0.929 . S
C1352 C1344 1.378 . S
C1352 C1347 1.350 . S
C1353 H1340 0.929 . S
C1353 C1345 1.433 . S
C1353 N1355 1.384 . S
N1354 C1350 1.427 . S
N1354 C1351 1.384 . S
N1355 C1347 1.427 . S
N1355 C1353 1.384 . S
H1356 C1362 0.930 . S
H1357 C1366 0.930 . S
H1358 C1371 0.929 . S
H1359 C1369 0.929 . S
H1360 C1364 0.929 . S
H1361 C1370 0.929 . S
C1362 H1356 0.930 . S
C1362 C1363 1.367 . S
C1362 C1370 1.378 . S
C1363 C1362 1.367 . S
C1363 C1371 1.433 . S
C1364 H1360 0.929 . S
C1364 C1366 1.378 . S
C1364 C1368 1.350 . S
C1365 C1368 1.463 . S
C1365 C1370 1.350 . S
C1365 N1373 1.427 . S
C1366 H1357 0.930 . S
C1366 C1364 1.378 . S
C1366 C1367 1.367 . S
C1367 C1366 1.367 . S
C1367 C1369 1.433 . S
C1368 C1364 1.350 . S
C1368 C1365 1.463 . S
C1368 N1372 1.427 . S
C1369 H1359 0.929 . S
C1369 C1367 1.433 . S
C1369 N1372 1.384 . S
C1370 H1361 0.929 . S
C1370 C1362 1.378 . S
C1370 C1365 1.350 . S
C1371 H1358 0.929 . S
C1371 C1363 1.433 . S
C1371 N1373 1.384 . S
N1372 C1368 1.427 . S
N1372 C1369 1.384 . S
N1373 C1365 1.427 . S
N1373 C1371 1.384 . S
H1374 C1380 0.930 . S
H1375 C1384 0.930 . S
H1376 C1389 0.929 . S
H1377 C1387 0.929 . S
H1378 C1382 0.929 . S
H1379 C1388 0.929 . S
C1380 H1374 0.930 . S
C1380 C1381 1.367 . S
C1380 C1388 1.378 . S
C1381 C1380 1.367 . S
C1381 C1389 1.433 . S
C1382 H1378 0.929 . S
C1382 C1384 1.378 . S
C1382 C1386 1.350 . S
C1383 C1386 1.463 . S
C1383 C1388 1.350 . S
C1383 N1391 1.427 . S
C1384 H1375 0.930 . S
C1384 C1382 1.378 . S
C1384 C1385 1.367 . S
C1385 C1384 1.367 . S
C1385 C1387 1.433 . S
C1386 C1382 1.350 . S
C1386 C1383 1.463 . S
C1386 N1390 1.427 . S
C1387 H1377 0.929 . S
C1387 C1385 1.433 . S
C1387 N1390 1.384 . S
C1388 H1379 0.929 . S
C1388 C1380 1.378 . S
C1388 C1383 1.350 . S
C1389 H1376 0.929 . S
C1389 C1381 1.433 . S
C1389 N1391 1.384 . S
N1390 C1386 1.427 . S
N1390 C1387 1.384 . S
N1391 C1383 1.427 . S
N1391 C1389 1.384 . S
H1392 C1398 0.930 . S
H1393 C1402 0.930 . S
H1394 C1407 0.929 . S
H1395 C1405 0.929 . S
H1396 C1400 0.929 . S
H1397 C1406 0.929 . S
C1398 H1392 0.930 . S
C1398 C1399 1.367 . S
C1398 C1406 1.378 . S
C1399 C1398 1.367 . S
C1399 C1407 1.433 . S
C1400 H1396 0.929 . S
C1400 C1402 1.378 . S
C1400 C1404 1.350 . S
C1401 C1404 1.463 1_655 S
C1401 C1406 1.350 . S
C1401 N1409 1.427 . S
C1402 H1393 0.930 . S
C1402 C1400 1.378 . S
C1402 C1403 1.367 . S
C1403 C1402 1.367 . S
C1403 C1405 1.433 . S
C1404 C1400 1.350 . S
C1404 C1401 1.463 1_455 S
C1404 N1408 1.427 . S
C1405 H1395 0.929 . S
C1405 C1403 1.433 . S
C1405 N1408 1.384 . S
C1406 H1397 0.929 . S
C1406 C1398 1.378 . S
C1406 C1401 1.350 . S
C1407 H1394 0.929 . S
C1407 C1399 1.433 . S
C1407 N1409 1.384 . S
N1408 C1404 1.427 . S
N1408 C1405 1.384 . S
N1409 C1401 1.427 . S
N1409 C1407 1.384 . S
H1410 C1416 0.930 . S
H1411 C1420 0.930 . S
H1412 C1425 0.929 . S
H1413 C1423 0.929 . S
H1414 C1418 0.929 . S
H1415 C1424 0.929 . S
C1416 H1410 0.930 . S
C1416 C1417 1.367 . S
C1416 C1424 1.378 . S
C1417 C1416 1.367 . S
C1417 C1425 1.433 . S
C1418 H1414 0.929 . S
C1418 C1420 1.378 . S
C1418 C1422 1.350 . S
C1419 C1422 1.463 1_565 S
C1419 C1424 1.350 . S
C1419 N1427 1.427 . S
C1420 H1411 0.930 . S
C1420 C1418 1.378 . S
C1420 C1421 1.367 . S
C1421 C1420 1.367 . S
C1421 C1423 1.433 . S
C1422 C1418 1.350 . S
C1422 C1419 1.463 1_545 S
C1422 N1426 1.427 . S
C1423 H1413 0.929 . S
C1423 C1421 1.433 . S
C1423 N1426 1.384 . S
C1424 H1415 0.929 . S
C1424 C1416 1.378 . S
C1424 C1419 1.350 . S
C1425 H1412 0.929 . S
C1425 C1417 1.433 . S
C1425 N1427 1.384 . S
N1426 C1422 1.427 . S
N1426 C1423 1.384 . S
N1427 C1419 1.427 . S
N1427 C1425 1.384 . S
H1428 C1434 0.930 . S
H1429 C1438 0.930 . S
H1430 C1443 0.929 . S
H1431 C1441 0.929 . S
H1432 C1436 0.929 . S
H1433 C1442 0.929 . S
C1434 H1428 0.930 . S
C1434 C1435 1.367 . S
C1434 C1442 1.378 . S
C1435 C1434 1.367 . S
C1435 C1443 1.433 . S
C1436 H1432 0.929 . S
C1436 C1438 1.378 . S
C1436 C1440 1.350 . S
C1437 C1440 1.463 . S
C1437 C1442 1.350 . S
C1437 N1445 1.427 . S
C1438 H1429 0.930 . S
C1438 C1436 1.378 . S
C1438 C1439 1.367 . S
C1439 C1438 1.367 . S
C1439 C1441 1.433 . S
C1440 C1436 1.350 . S
C1440 C1437 1.463 . S
C1440 N1444 1.427 . S
C1441 H1431 0.929 . S
C1441 C1439 1.433 . S
C1441 N1444 1.384 . S
C1442 H1433 0.929 . S
C1442 C1434 1.378 . S
C1442 C1437 1.350 . S
C1443 H1430 0.929 . S
C1443 C1435 1.433 . S
C1443 N1445 1.384 . S
N1444 C1440 1.427 . S
N1444 C1441 1.384 . S
N1445 C1437 1.427 . S
N1445 C1443 1.384 . S
H1446 C1452 0.930 . S
H1447 C1456 0.930 . S
H1448 C1461 0.929 . S
H1449 C1459 0.929 . S
H1450 C1454 0.929 . S
H1451 C1460 0.929 . S
C1452 H1446 0.930 . S
C1452 C1453 1.367 . S
C1452 C1460 1.378 . S
C1453 C1452 1.367 . S
C1453 C1461 1.433 . S
C1454 H1450 0.929 . S
C1454 C1456 1.378 . S
C1454 C1458 1.350 . S
C1455 C1458 1.463 1_455 S
C1455 C1460 1.350 . S
C1455 N1463 1.427 . S
C1456 H1447 0.930 . S
C1456 C1454 1.378 . S
C1456 C1457 1.367 . S
C1457 C1456 1.367 . S
C1457 C1459 1.433 . S
C1458 C1454 1.350 . S
C1458 C1455 1.463 1_655 S
C1458 N1462 1.427 . S
C1459 H1449 0.929 . S
C1459 C1457 1.433 . S
C1459 N1462 1.384 . S
C1460 H1451 0.929 . S
C1460 C1452 1.378 . S
C1460 C1455 1.350 . S
C1461 H1448 0.929 . S
C1461 C1453 1.433 . S
C1461 N1463 1.384 . S
N1462 C1458 1.427 . S
N1462 C1459 1.384 . S
N1463 C1455 1.427 . S
N1463 C1461 1.384 . S
H1464 C1470 0.930 . S
H1465 C1474 0.930 . S
H1466 C1479 0.929 . S
H1467 C1477 0.929 . S
H1468 C1472 0.929 . S
H1469 C1478 0.929 . S
C1470 H1464 0.930 . S
C1470 C1471 1.367 . S
C1470 C1478 1.378 . S
C1471 C1470 1.367 . S
C1471 C1479 1.433 . S
C1472 H1468 0.929 . S
C1472 C1474 1.378 . S
C1472 C1476 1.350 . S
C1473 C1476 1.463 1_545 S
C1473 C1478 1.350 . S
C1473 N1481 1.427 . S
C1474 H1465 0.930 . S
C1474 C1472 1.378 . S
C1474 C1475 1.367 . S
C1475 C1474 1.367 . S
C1475 C1477 1.433 . S
C1476 C1472 1.350 . S
C1476 C1473 1.463 1_565 S
C1476 N1480 1.427 . S
C1477 H1467 0.929 . S
C1477 C1475 1.433 . S
C1477 N1480 1.384 . S
C1478 H1469 0.929 . S
C1478 C1470 1.378 . S
C1478 C1473 1.350 . S
C1479 H1466 0.929 . S
C1479 C1471 1.433 . S
C1479 N1481 1.384 . S
N1480 C1476 1.427 . S
N1480 C1477 1.384 . S
N1481 C1473 1.427 . S
N1481 C1479 1.384 . S
H1482 C1488 0.930 . S
H1483 C1492 0.930 . S
H1484 C1497 0.929 . S
H1485 C1495 0.929 . S
H1486 C1490 0.929 . S
H1487 C1496 0.929 . S
C1488 H1482 0.930 . S
C1488 C1489 1.367 . S
C1488 C1496 1.378 . S
C1489 C1488 1.367 . S
C1489 C1497 1.433 . S
C1490 H1486 0.929 . S
C1490 C1492 1.378 . S
C1490 C1494 1.350 . S
C1491 C1494 1.463 . S
C1491 C1496 1.350 . S
C1491 N1499 1.427 . S
C1492 H1483 0.930 . S
C1492 C1490 1.378 . S
C1492 C1493 1.367 . S
C1493 C1492 1.367 . S
C1493 C1495 1.433 . S
C1494 C1490 1.350 . S
C1494 C1491 1.463 . S
C1494 N1498 1.427 . S
C1495 H1485 0.929 . S
C1495 C1493 1.433 . S
C1495 N1498 1.384 . S
C1496 H1487 0.929 . S
C1496 C1488 1.378 . S
C1496 C1491 1.350 . S
C1497 H1484 0.929 . S
C1497 C1489 1.433 . S
C1497 N1499 1.384 . S
N1498 C1494 1.427 . S
N1498 C1495 1.384 . S
N1499 C1491 1.427 . S
N1499 C1497 1.384 . S
H1500 C1506 0.930 . S
H1501 C1510 0.930 . S
H1502 C1515 0.929 . S
H1503 C1513 0.929 . S
H1504 C1508 0.929 . S
H1505 C1514 0.929 . S
C1506 H1500 0.930 . S
C1506 C1507 1.367 . S
C1506 C1514 1.378 . S
C1507 C1506 1.367 . S
C1507 C1515 1.433 . S
C1508 H1504 0.929 . S
C1508 C1510 1.378 . S
C1508 C1512 1.350 . S
C1509 C1512 1.463 1_565 S
C1509 C1514 1.350 . S
C1509 N1517 1.427 . S
C1510 H1501 0.930 . S
C1510 C1508 1.378 . S
C1510 C1511 1.367 . S
C1511 C1510 1.367 . S
C1511 C1513 1.433 . S
C1512 C1508 1.350 . S
C1512 C1509 1.463 1_545 S
C1512 N1516 1.427 . S
C1513 H1503 0.929 . S
C1513 C1511 1.433 . S
C1513 N1516 1.384 . S
C1514 H1505 0.929 . S
C1514 C1506 1.378 . S
C1514 C1509 1.350 . S
C1515 H1502 0.929 . S
C1515 C1507 1.433 . S
C1515 N1517 1.384 . S
N1516 C1512 1.427 . S
N1516 C1513 1.384 . S
N1517 C1509 1.427 . S
N1517 C1515 1.384 . S
H1518 C1524 0.930 . S
H1519 C1528 0.930 . S
H1520 C1533 0.929 . S
H1521 C1531 0.929 . S
H1522 C1526 0.929 . S
H1523 C1532 0.929 . S
C1524 H1518 0.930 . S
C1524 C1525 1.367 . S
C1524 C1532 1.378 . S
C1525 C1524 1.367 . S
C1525 C1533 1.433 . S
C1526 H1522 0.929 . S
C1526 C1528 1.378 . S
C1526 C1530 1.350 . S
C1527 C1530 1.463 . S
C1527 C1532 1.350 . S
C1527 N1535 1.427 . S
C1528 H1519 0.930 . S
C1528 C1526 1.378 . S
C1528 C1529 1.367 . S
C1529 C1528 1.367 . S
C1529 C1531 1.433 . S
C1530 C1526 1.350 . S
C1530 C1527 1.463 . S
C1530 N1534 1.427 . S
C1531 H1521 0.929 . S
C1531 C1529 1.433 . S
C1531 N1534 1.384 . S
C1532 H1523 0.929 . S
C1532 C1524 1.378 . S
C1532 C1527 1.350 . S
C1533 H1520 0.929 . S
C1533 C1525 1.433 . S
C1533 N1535 1.384 . S
N1534 C1530 1.427 . S
N1534 C1531 1.384 . S
N1535 C1527 1.427 . S
N1535 C1533 1.384 . S
H1536 C1542 0.930 . S
H1537 C1546 0.930 . S
H1538 C1551 0.929 . S
H1539 C1549 0.929 . S
H1540 C1544 0.929 . S
H1541 C1550 0.929 . S
C1542 H1536 0.930 . S
C1542 C1543 1.367 . S
C1542 C1550 1.378 . S
C1543 C1542 1.367 . S
C1543 C1551 1.433 . S
C1544 H1540 0.929 . S
C1544 C1546 1.378 . S
C1544 C1548 1.350 . S
C1545 C1548 1.463 1_655 S
C1545 C1550 1.350 . S
C1545 N1553 1.427 . S
C1546 H1537 0.930 . S
C1546 C1544 1.378 . S
C1546 C1547 1.367 . S
C1547 C1546 1.367 . S
C1547 C1549 1.433 . S
C1548 C1544 1.350 . S
C1548 C1545 1.463 1_455 S
C1548 N1552 1.427 . S
C1549 H1539 0.929 . S
C1549 C1547 1.433 . S
C1549 N1552 1.384 . S
C1550 H1541 0.929 . S
C1550 C1542 1.378 . S
C1550 C1545 1.350 . S
C1551 H1538 0.929 . S
C1551 C1543 1.433 . S
C1551 N1553 1.384 . S
N1552 C1548 1.427 . S
N1552 C1549 1.384 . S
N1553 C1545 1.427 . S
N1553 C1551 1.384 . S
H1554 C1560 0.930 . S
H1555 C1564 0.930 . S
H1556 C1569 0.929 . S
H1557 C1567 0.929 . S
H1558 C1562 0.929 . S
H1559 C1568 0.929 . S
C1560 H1554 0.930 . S
C1560 C1561 1.367 . S
C1560 C1568 1.378 . S
C1561 C1560 1.367 . S
C1561 C1569 1.433 . S
C1562 H1558 0.929 . S
C1562 C1564 1.378 . S
C1562 C1566 1.350 . S
C1563 C1566 1.463 1_565 S
C1563 C1568 1.350 . S
C1563 N1571 1.427 . S
C1564 H1555 0.930 . S
C1564 C1562 1.378 . S
C1564 C1565 1.367 . S
C1565 C1564 1.367 . S
C1565 C1567 1.433 . S
C1566 C1562 1.350 . S
C1566 C1563 1.463 1_545 S
C1566 N1570 1.427 . S
C1567 H1557 0.929 . S
C1567 C1565 1.433 . S
C1567 N1570 1.384 . S
C1568 H1559 0.929 . S
C1568 C1560 1.378 . S
C1568 C1563 1.350 . S
C1569 H1556 0.929 . S
C1569 C1561 1.433 . S
C1569 N1571 1.384 . S
N1570 C1566 1.427 . S
N1570 C1567 1.384 . S
N1571 C1563 1.427 . S
N1571 C1569 1.384 . S
H1572 C1578 0.930 . S
H1573 C1582 0.930 . S
H1574 C1587 0.929 . S
H1575 C1585 0.929 . S
H1576 C1580 0.929 . S
H1577 C1586 0.929 . S
C1578 H1572 0.930 . S
C1578 C1579 1.367 . S
C1578 C1586 1.378 . S
C1579 C1578 1.367 . S
C1579 C1587 1.433 . S
C1580 H1576 0.929 . S
C1580 C1582 1.378 . S
C1580 C1584 1.350 . S
C1581 C1584 1.463 . S
C1581 C1586 1.350 . S
C1581 N1589 1.427 . S
C1582 H1573 0.930 . S
C1582 C1580 1.378 . S
C1582 C1583 1.367 . S
C1583 C1582 1.367 . S
C1583 C1585 1.433 . S
C1584 C1580 1.350 . S
C1584 C1581 1.463 . S
C1584 N1588 1.427 . S
C1585 H1575 0.929 . S
C1585 C1583 1.433 . S
C1585 N1588 1.384 . S
C1586 H1577 0.929 . S
C1586 C1578 1.378 . S
C1586 C1581 1.350 . S
C1587 H1574 0.929 . S
C1587 C1579 1.433 . S
C1587 N1589 1.384 . S
N1588 C1584 1.427 . S
N1588 C1585 1.384 . S
N1589 C1581 1.427 . S
N1589 C1587 1.384 . S
H1590 C1596 0.930 . S
H1591 C1600 0.930 . S
H1592 C1605 0.929 . S
H1593 C1603 0.929 . S
H1594 C1598 0.929 . S
H1595 C1604 0.929 . S
C1596 H1590 0.930 . S
C1596 C1597 1.367 . S
C1596 C1604 1.378 . S
C1597 C1596 1.367 . S
C1597 C1605 1.433 . S
C1598 H1594 0.929 . S
C1598 C1600 1.378 . S
C1598 C1602 1.350 . S
C1599 C1602 1.463 1_655 S
C1599 C1604 1.350 . S
C1599 N1607 1.427 . S
C1600 H1591 0.930 . S
C1600 C1598 1.378 . S
C1600 C1601 1.367 . S
C1601 C1600 1.367 . S
C1601 C1603 1.433 . S
C1602 C1598 1.350 . S
C1602 C1599 1.463 1_455 S
C1602 N1606 1.427 . S
C1603 H1593 0.929 . S
C1603 C1601 1.433 . S
C1603 N1606 1.384 . S
C1604 H1595 0.929 . S
C1604 C1596 1.378 . S
C1604 C1599 1.350 . S
C1605 H1592 0.929 . S
C1605 C1597 1.433 . S
C1605 N1607 1.384 . S
N1606 C1602 1.427 . S
N1606 C1603 1.384 . S
N1607 C1599 1.427 . S
N1607 C1605 1.384 . S
H1608 C1614 0.930 . S
H1609 C1618 0.930 . S
H1610 C1623 0.929 . S
H1611 C1621 0.929 . S
H1612 C1616 0.929 . S
H1613 C1622 0.929 . S
C1614 H1608 0.930 . S
C1614 C1615 1.367 . S
C1614 C1622 1.378 . S
C1615 C1614 1.367 . S
C1615 C1623 1.433 . S
C1616 H1612 0.929 . S
C1616 C1618 1.378 . S
C1616 C1620 1.350 . S
C1617 C1620 1.463 1_556 S
C1617 C1622 1.350 . S
C1617 N1625 1.427 . S
C1618 H1609 0.930 . S
C1618 C1616 1.378 . S
C1618 C1619 1.367 . S
C1619 C1618 1.367 . S
C1619 C1621 1.433 . S
C1620 C1616 1.350 . S
C1620 C1617 1.463 1_554 S
C1620 N1624 1.427 . S
C1621 H1611 0.929 . S
C1621 C1619 1.433 . S
C1621 N1624 1.384 . S
C1622 H1613 0.929 . S
C1622 C1614 1.378 . S
C1622 C1617 1.350 . S
C1623 H1610 0.929 . S
C1623 C1615 1.433 . S
C1623 N1625 1.384 . S
N1624 C1620 1.427 . S
N1624 C1621 1.384 . S
N1625 C1617 1.427 . S
N1625 C1623 1.384 . S
H1626 C1632 0.930 . S
H1627 C1636 0.930 . S
H1628 C1641 0.929 . S
H1629 C1639 0.929 . S
H1630 C1634 0.929 . S
H1631 C1640 0.929 . S
C1632 H1626 0.930 . S
C1632 C1633 1.367 . S
C1632 C1640 1.378 . S
C1633 C1632 1.367 . S
C1633 C1641 1.433 . S
C1634 H1630 0.929 . S
C1634 C1636 1.378 . S
C1634 C1638 1.350 . S
C1635 C1638 1.463 . S
C1635 C1640 1.350 . S
C1635 N1643 1.427 . S
C1636 H1627 0.930 . S
C1636 C1634 1.378 . S
C1636 C1637 1.367 . S
C1637 C1636 1.367 . S
C1637 C1639 1.433 . S
C1638 C1634 1.350 . S
C1638 C1635 1.463 . S
C1638 N1642 1.427 . S
C1639 H1629 0.929 . S
C1639 C1637 1.433 . S
C1639 N1642 1.384 . S
C1640 H1631 0.929 . S
C1640 C1632 1.378 . S
C1640 C1635 1.350 . S
C1641 H1628 0.929 . S
C1641 C1633 1.433 . S
C1641 N1643 1.384 . S
N1642 C1638 1.427 . S
N1642 C1639 1.384 . S
N1643 C1635 1.427 . S
N1643 C1641 1.384 . S
H1644 C1650 0.930 . S
H1645 C1654 0.930 . S
H1646 C1659 0.929 . S
H1647 C1657 0.929 . S
H1648 C1652 0.929 . S
H1649 C1658 0.929 . S
C1650 H1644 0.930 . S
C1650 C1651 1.367 . S
C1650 C1658 1.378 . S
C1651 C1650 1.367 . S
C1651 C1659 1.433 . S
C1652 H1648 0.929 . S
C1652 C1654 1.378 . S
C1652 C1656 1.350 . S
C1653 C1656 1.463 1_554 S
C1653 C1658 1.350 . S
C1653 N1661 1.427 . S
C1654 H1645 0.930 . S
C1654 C1652 1.378 . S
C1654 C1655 1.367 . S
C1655 C1654 1.367 . S
C1655 C1657 1.433 . S
C1656 C1652 1.350 . S
C1656 C1653 1.463 1_556 S
C1656 N1660 1.427 . S
C1657 H1647 0.929 . S
C1657 C1655 1.433 . S
C1657 N1660 1.384 . S
C1658 H1649 0.929 . S
C1658 C1650 1.378 . S
C1658 C1653 1.350 . S
C1659 H1646 0.929 . S
C1659 C1651 1.433 . S
C1659 N1661 1.384 . S
N1660 C1656 1.427 . S
N1660 C1657 1.384 . S
N1661 C1653 1.427 . S
N1661 C1659 1.384 . S
H1662 C1668 0.930 . S
H1663 C1672 0.930 . S
H1664 C1677 0.929 . S
H1665 C1675 0.929 . S
H1666 C1670 0.929 . S
H1667 C1676 0.929 . S
C1668 H1662 0.930 . S
C1668 C1669 1.367 . S
C1668 C1676 1.378 . S
C1669 C1668 1.367 . S
C1669 C1677 1.433 . S
C1670 H1666 0.929 . S
C1670 C1672 1.378 . S
C1670 C1674 1.350 . S
C1671 C1674 1.463 . S
C1671 C1676 1.350 . S
C1671 N1679 1.427 . S
C1672 H1663 0.930 . S
C1672 C1670 1.378 . S
C1672 C1673 1.367 . S
C1673 C1672 1.367 . S
C1673 C1675 1.433 . S
C1674 C1670 1.350 . S
C1674 C1671 1.463 . S
C1674 N1678 1.427 . S
C1675 H1665 0.929 . S
C1675 C1673 1.433 . S
C1675 N1678 1.384 . S
C1676 H1667 0.929 . S
C1676 C1668 1.378 . S
C1676 C1671 1.350 . S
C1677 H1664 0.929 . S
C1677 C1669 1.433 . S
C1677 N1679 1.384 . S
N1678 C1674 1.427 . S
N1678 C1675 1.384 . S
N1679 C1671 1.427 . S
N1679 C1677 1.384 . S
H1680 C1686 0.930 . S
H1681 C1690 0.930 . S
H1682 C1695 0.929 . S
H1683 C1693 0.929 . S
H1684 C1688 0.929 1_556 S
H1685 C1694 0.929 1_554 S
C1686 H1680 0.930 . S
C1686 C1687 1.367 . S
C1686 C1694 1.378 . S
C1687 C1686 1.367 . S
C1687 C1695 1.433 . S
C1688 H1684 0.929 1_554 S
C1688 C1690 1.378 . S
C1688 C1692 1.350 . S
C1689 C1692 1.463 1_556 S
C1689 C1694 1.350 . S
C1689 N1697 1.427 . S
C1690 H1681 0.930 . S
C1690 C1688 1.378 . S
C1690 C1691 1.367 . S
C1691 C1690 1.367 . S
C1691 C1693 1.433 . S
C1692 C1688 1.350 . S
C1692 C1689 1.463 1_554 S
C1692 N1696 1.427 . S
C1693 H1683 0.929 . S
C1693 C1691 1.433 . S
C1693 N1696 1.384 . S
C1694 H1685 0.929 1_556 S
C1694 C1686 1.378 . S
C1694 C1689 1.350 . S
C1695 H1682 0.929 . S
C1695 C1687 1.433 . S
C1695 N1697 1.384 . S
N1696 C1692 1.427 . S
N1696 C1693 1.384 . S
N1697 C1689 1.427 . S
N1697 C1695 1.384 . S
H1698 C1704 0.930 . S
H1699 C1708 0.930 . S
H1700 C1713 0.929 . S
H1701 C1711 0.929 . S
H1702 C1706 0.929 . S
H1703 C1712 0.929 . S
C1704 H1698 0.930 . S
C1704 C1705 1.367 . S
C1704 C1712 1.378 . S
C1705 C1704 1.367 . S
C1705 C1713 1.433 . S
C1706 H1702 0.929 . S
C1706 C1708 1.378 . S
C1706 C1710 1.350 . S
C1707 C1710 1.463 . S
C1707 C1712 1.350 . S
C1707 N1715 1.427 . S
C1708 H1699 0.930 . S
C1708 C1706 1.378 . S
C1708 C1709 1.367 . S
C1709 C1708 1.367 . S
C1709 C1711 1.433 . S
C1710 C1706 1.350 . S
C1710 C1707 1.463 . S
C1710 N1714 1.427 . S
C1711 H1701 0.929 . S
C1711 C1709 1.433 . S
C1711 N1714 1.384 . S
C1712 H1703 0.929 . S
C1712 C1704 1.378 . S
C1712 C1707 1.350 . S
C1713 H1700 0.929 . S
C1713 C1705 1.433 . S
C1713 N1715 1.384 . S
N1714 C1710 1.427 . S
N1714 C1711 1.384 . S
N1715 C1707 1.427 . S
N1715 C1713 1.384 . S
H1716 C1722 0.930 . S
H1717 C1726 0.930 . S
H1718 C1731 0.929 . S
H1719 C1729 0.929 . S
H1720 C1724 0.929 . S
H1721 C1730 0.929 . S
C1722 H1716 0.930 . S
C1722 C1723 1.367 . S
C1722 C1730 1.378 . S
C1723 C1722 1.367 . S
C1723 C1731 1.433 . S
C1724 H1720 0.929 . S
C1724 C1726 1.378 . S
C1724 C1728 1.350 . S
C1725 C1728 1.463 1_554 S
C1725 C1730 1.350 . S
C1725 N1733 1.427 . S
C1726 H1717 0.930 . S
C1726 C1724 1.378 . S
C1726 C1727 1.367 . S
C1727 C1726 1.367 . S
C1727 C1729 1.433 . S
C1728 C1724 1.350 . S
C1728 C1725 1.463 1_556 S
C1728 N1732 1.427 . S
C1729 H1719 0.929 . S
C1729 C1727 1.433 . S
C1729 N1732 1.384 . S
C1730 H1721 0.929 . S
C1730 C1722 1.378 . S
C1730 C1725 1.350 . S
C1731 H1718 0.929 . S
C1731 C1723 1.433 . S
C1731 N1733 1.384 . S
N1732 C1728 1.427 . S
N1732 C1729 1.384 . S
N1733 C1725 1.427 . S
N1733 C1731 1.384 . S
H1734 C1740 0.930 . S
H1735 C1744 0.930 . S
H1736 C1749 0.929 . S
H1737 C1747 0.929 . S
H1738 C1742 0.929 . S
H1739 C1748 0.929 . S
C1740 H1734 0.930 . S
C1740 C1741 1.367 . S
C1740 C1748 1.378 . S
C1741 C1740 1.367 . S
C1741 C1749 1.433 . S
C1742 H1738 0.929 . S
C1742 C1744 1.378 . S
C1742 C1746 1.350 . S
C1743 C1746 1.463 . S
C1743 C1748 1.350 . S
C1743 N1751 1.427 . S
C1744 H1735 0.930 . S
C1744 C1742 1.378 . S
C1744 C1745 1.367 . S
C1745 C1744 1.367 . S
C1745 C1747 1.433 . S
C1746 C1742 1.350 . S
C1746 C1743 1.463 . S
C1746 N1750 1.427 . S
C1747 H1737 0.929 . S
C1747 C1745 1.433 . S
C1747 N1750 1.384 . S
C1748 H1739 0.929 . S
C1748 C1740 1.378 . S
C1748 C1743 1.350 . S
C1749 H1736 0.929 . S
C1749 C1741 1.433 . S
C1749 N1751 1.384 . S
N1750 C1746 1.427 . S
N1750 C1747 1.384 . S
N1751 C1743 1.427 . S
N1751 C1749 1.384 . S
H1752 C1758 0.930 . S
H1753 C1762 0.930 . S
H1754 C1767 0.929 . S
H1755 C1765 0.929 . S
H1756 C1760 0.929 . S
H1757 C1766 0.929 . S
C1758 H1752 0.930 . S
C1758 C1759 1.367 . S
C1758 C1766 1.378 . S
C1759 C1758 1.367 . S
C1759 C1767 1.433 . S
C1760 H1756 0.929 . S
C1760 C1762 1.378 . S
C1760 C1764 1.350 . S
C1761 C1764 1.463 1_554 S
C1761 C1766 1.350 . S
C1761 N1769 1.427 . S
C1762 H1753 0.930 . S
C1762 C1760 1.378 . S
C1762 C1763 1.367 . S
C1763 C1762 1.367 . S
C1763 C1765 1.433 . S
C1764 C1760 1.350 . S
C1764 C1761 1.463 1_556 S
C1764 N1768 1.427 . S
C1765 H1755 0.929 . S
C1765 C1763 1.433 . S
C1765 N1768 1.384 . S
C1766 H1757 0.929 . S
C1766 C1758 1.378 . S
C1766 C1761 1.350 . S
C1767 H1754 0.929 . S
C1767 C1759 1.433 . S
C1767 N1769 1.384 . S
N1768 C1764 1.427 . S
N1768 C1765 1.384 . S
N1769 C1761 1.427 . S
N1769 C1767 1.384 . S
H1770 C1776 0.930 . S
H1771 C1780 0.930 . S
H1772 C1785 0.929 . S
H1773 C1783 0.929 . S
H1774 C1778 0.929 . S
H1775 C1784 0.929 . S
C1776 H1770 0.930 . S
C1776 C1777 1.367 . S
C1776 C1784 1.378 . S
C1777 C1776 1.367 . S
C1777 C1785 1.433 . S
C1778 H1774 0.929 . S
C1778 C1780 1.378 . S
C1778 C1782 1.350 . S
C1779 C1782 1.463 . S
C1779 C1784 1.350 . S
C1779 N1787 1.427 . S
C1780 H1771 0.930 . S
C1780 C1778 1.378 . S
C1780 C1781 1.367 . S
C1781 C1780 1.367 . S
C1781 C1783 1.433 . S
C1782 C1778 1.350 . S
C1782 C1779 1.463 . S
C1782 N1786 1.427 . S
C1783 H1773 0.929 . S
C1783 C1781 1.433 . S
C1783 N1786 1.384 . S
C1784 H1775 0.929 . S
C1784 C1776 1.378 . S
C1784 C1779 1.350 . S
C1785 H1772 0.929 . S
C1785 C1777 1.433 . S
C1785 N1787 1.384 . S
N1786 C1782 1.427 . S
N1786 C1783 1.384 . S
N1787 C1779 1.427 . S
N1787 C1785 1.384 . S
H1788 C1794 0.930 . S
H1789 C1798 0.930 . S
H1790 C1803 0.929 . S
H1791 C1801 0.929 . S
H1792 C1796 0.929 1_554 S
H1793 C1802 0.929 1_556 S
C1794 H1788 0.930 . S
C1794 C1795 1.367 . S
C1794 C1802 1.378 . S
C1795 C1794 1.367 . S
C1795 C1803 1.433 . S
C1796 H1792 0.929 1_556 S
C1796 C1798 1.378 . S
C1796 C1800 1.350 . S
C1797 C1800 1.463 1_554 S
C1797 C1802 1.350 . S
C1797 N1805 1.427 . S
C1798 H1789 0.930 . S
C1798 C1796 1.378 . S
C1798 C1799 1.367 . S
C1799 C1798 1.367 . S
C1799 C1801 1.433 . S
C1800 C1796 1.350 . S
C1800 C1797 1.463 1_556 S
C1800 N1804 1.427 . S
C1801 H1791 0.929 . S
C1801 C1799 1.433 . S
C1801 N1804 1.384 . S
C1802 H1793 0.929 1_554 S
C1802 C1794 1.378 . S
C1802 C1797 1.350 . S
C1803 H1790 0.929 . S
C1803 C1795 1.433 . S
C1803 N1805 1.384 . S
N1804 C1800 1.427 . S
N1804 C1801 1.384 . S
N1805 C1797 1.427 . S
N1805 C1803 1.384 . S
H1806 C1812 0.930 . S
H1807 C1816 0.930 . S
H1808 C1821 0.929 . S
H1809 C1819 0.929 . S
H1810 C1814 0.929 . S
H1811 C1820 0.929 . S
C1812 H1806 0.930 . S
C1812 C1813 1.367 . S
C1812 C1820 1.378 . S
C1813 C1812 1.367 . S
C1813 C1821 1.433 . S
C1814 H1810 0.929 . S
C1814 C1816 1.378 . S
C1814 C1818 1.350 . S
C1815 C1818 1.463 . S
C1815 C1820 1.350 . S
C1815 N1823 1.427 . S
C1816 H1807 0.930 . S
C1816 C1814 1.378 . S
C1816 C1817 1.367 . S
C1817 C1816 1.367 . S
C1817 C1819 1.433 . S
C1818 C1814 1.350 . S
C1818 C1815 1.463 . S
C1818 N1822 1.427 . S
C1819 H1809 0.929 . S
C1819 C1817 1.433 . S
C1819 N1822 1.384 . S
C1820 H1811 0.929 . S
C1820 C1812 1.378 . S
C1820 C1815 1.350 . S
C1821 H1808 0.929 . S
C1821 C1813 1.433 . S
C1821 N1823 1.384 . S
N1822 C1818 1.427 . S
N1822 C1819 1.384 . S
N1823 C1815 1.427 . S
N1823 C1821 1.384 . S
C535 C184 1.188 . S
C539 C4 1.177 . S
C553 C26 1.180 . S
C557 C206 1.169 . S
C571 C228 1.174 . S
C575 C48 1.172 . S
C589 C70 1.188 . S
C593 C250 1.170 . S
C607 C140 1.186 . S
C611 C92 1.180 . S
C625 C162 1.168 . S
C629 C114 1.181 . S
C643 C272 1.174 . S
C647 C444 1.172 . S
C661 C466 1.168 . S
C665 C294 1.181 . S
C679 C488 1.182 . S
C683 C316 1.184 . S
C697 C338 1.170 . S
C701 C510 1.176 . S
C715 C360 1.186 . S
C719 C400 1.180 . S
C733 C422 1.168 . S
C737 C382 1.182 . S
C751 C9 0.954 . S
C755 C52 0.976 . S
C769 C74 0.956 . S
C773 C31 0.975 . S
C787 C53 0.954 . S
C791 C96 0.974 . S
C805 C75 0.963 . S
C809 C118 0.980 . S
C823 C8 0.957 . S
C827 C97 0.971 . S
C841 C30 0.957 . S
C845 C119 0.977 . S
C859 C224 0.957 . S
C863 C137 0.977 . S
C877 C159 0.978 . S
C881 C246 0.958 . S
C895 C181 0.956 . S
C899 C136 0.980 . S
C913 C158 0.967 . S
C917 C203 0.958 . S
C931 C180 0.977 . S
C935 C225 0.970 . S
C949 C202 0.980 . S
C953 C247 0.956 . S
C967 C312 0.979 . S
C971 C270 0.955 . S
C985 C292 0.963 . S
C989 C334 0.981 . S
C1003 C314 0.965 . S
C1007 C356 0.959 . S
C1021 C336 0.956 . S
C1025 C378 0.980 . S
C1039 C268 0.961 . S
C1043 C358 0.980 . S
C1057 C290 0.980 . S
C1061 C380 0.956 . S
C1075 C403 0.978 . S
C1079 C492 0.958 . S
C1093 C425 0.955 . S
C1097 C514 0.979 . S
C1111 C447 0.960 . S
C1115 C404 0.981 . S
C1129 C469 0.979 . S
C1133 C426 0.961 . S
C1147 C448 0.981 . S
C1151 C491 0.963 . S
C1165 C470 0.964 . S
C1169 C513 0.979 . S
C1183 C7 1.451 . S
C1187 C335 1.450 . S
C1201 C357 1.452 . S
C1205 C29 1.449 . S
C1219 C51 1.452 . S
C1223 C379 1.449 . S
C1237 C73 1.453 . S
C1241 C269 1.448 . S
C1255 C291 1.451 . S
C1259 C95 1.450 . S
C1273 C117 1.452 . S
C1277 C313 1.449 . S
C1291 C138 1.453 . S
C1295 C471 1.448 . S
C1309 C493 1.452 . S
C1313 C160 1.449 . S
C1327 C182 1.452 . S
C1331 C515 1.449 . S
C1345 C204 1.453 . S
C1349 C405 1.448 . S
C1363 C427 1.448 . S
C1367 C226 1.453 . S
C1381 C449 1.451 . S
C1385 C248 1.450 . S
C1399 C446 1.283 . S
C1403 C5 1.275 . S
C1417 C468 1.273 . S
C1421 C27 1.285 . S
C1435 C490 1.278 . S
C1439 C49 1.278 . S
C1453 C512 1.279 . S
C1457 C71 1.278 . S
C1471 C402 1.285 . S
C1475 C93 1.272 . S
C1489 C115 1.270 . S
C1493 C424 1.286 . S
C1507 C141 1.273 . S
C1511 C359 1.284 . S
C1525 C381 1.277 . S
C1529 C163 1.279 . S
C1543 C271 1.271 . S
C1547 C185 1.287 . S
C1561 C293 1.273 . S
C1565 C207 1.284 . S
C1579 C229 1.286 . S
C1583 C315 1.270 . S
C1597 C251 1.287 . S
C1601 C337 1.270 . S
C1615 C227 1.187 . S
C1619 C6 1.167 . S
C1633 C249 1.176 . S
C1637 C28 1.188 . S
C1651 C50 1.171 . S
C1655 C139 1.189 . S
C1669 C72 1.166 . S
C1673 C161 1.185 . S
C1687 C183 1.179 . S
C1691 C94 1.188 . S
C1705 C116 1.166 . S
C1709 C205 1.176 . S
C1723 C489 1.182 . S
C1727 C273 1.165 . S
C1741 C511 1.169 . S
C1745 C295 1.172 . S
C1759 C401 1.172 . S
C1763 C317 1.189 . S
C1777 C339 1.173 . S
C1781 C423 1.189 . S
C1795 C445 1.184 . S
C1799 C361 1.183 . S
C1813 C383 1.183 . S
C1817 C467 1.165 . S
