# Generated by pormake.
# Topology snz, (6)-cn, num edge types: 1
# Building blocks:
#     Node 0, Type 0, BuildingBlock: BETDAH_clean_sbu_0, # of connection points: 6
#     Node 1, Type 0, BuildingBlock: BETDAH_clean_sbu_0, # of connection points: 6
#     Node 2, Type 0, BuildingBlock: BETDAH_clean_sbu_0, # of connection points: 6
#     Node 3, Type 0, BuildingBlock: BETDAH_clean_sbu_0, # of connection points: 6
#     Node 4, Type 0, BuildingBlock: BETDAH_clean_sbu_0, # of connection points: 6
#     Node 5, Type 0, BuildingBlock: BETDAH_clean_sbu_0, # of connection points: 6
#     Node 6, Type 0, BuildingBlock: BETDAH_clean_sbu_0, # of connection points: 6
#     Node 7, Type 0, BuildingBlock: BETDAH_clean_sbu_0, # of connection points: 6
#     Node 8, Type 0, BuildingBlock: BETDAH_clean_sbu_0, # of connection points: 6
#     Edge 9, Type (0, 0), BuildingBlock: CIFDUS_clean_linker_0, # of connection points: 2
#     Edge 10, Type (0, 0), BuildingBlock: CIFDUS_clean_linker_0, # of connection points: 2
#     Edge 11, Type (0, 0), BuildingBlock: CIFDUS_clean_linker_0, # of connection points: 2
#     Edge 12, Type (0, 0), BuildingBlock: CIFDUS_clean_linker_0, # of connection points: 2
#     Edge 13, Type (0, 0), BuildingBlock: CIFDUS_clean_linker_0, # of connection points: 2
#     Edge 14, Type (0, 0), BuildingBlock: CIFDUS_clean_linker_0, # of connection points: 2
#     Edge 15, Type (0, 0), BuildingBlock: CIFDUS_clean_linker_0, # of connection points: 2
#     Edge 16, Type (0, 0), BuildingBlock: CIFDUS_clean_linker_0, # of connection points: 2
#     Edge 17, Type (0, 0), BuildingBlock: CIFDUS_clean_linker_0, # of connection points: 2
#     Edge 18, Type (0, 0), BuildingBlock: CIFDUS_clean_linker_0, # of connection points: 2
#     Edge 19, Type (0, 0), BuildingBlock: CIFDUS_clean_linker_0, # of connection points: 2
#     Edge 20, Type (0, 0), BuildingBlock: CIFDUS_clean_linker_0, # of connection points: 2
#     Edge 21, Type (0, 0), BuildingBlock: CIFDUS_clean_linker_0, # of connection points: 2
#     Edge 22, Type (0, 0), BuildingBlock: CIFDUS_clean_linker_0, # of connection points: 2
#     Edge 23, Type (0, 0), BuildingBlock: CIFDUS_clean_linker_0, # of connection points: 2
#     Edge 24, Type (0, 0), BuildingBlock: CIFDUS_clean_linker_0, # of connection points: 2
#     Edge 25, Type (0, 0), BuildingBlock: CIFDUS_clean_linker_0, # of connection points: 2
#     Edge 26, Type (0, 0), BuildingBlock: CIFDUS_clean_linker_0, # of connection points: 2
#     Edge 27, Type (0, 0), BuildingBlock: CIFDUS_clean_linker_0, # of connection points: 2
#     Edge 28, Type (0, 0), BuildingBlock: CIFDUS_clean_linker_0, # of connection points: 2
#     Edge 29, Type (0, 0), BuildingBlock: CIFDUS_clean_linker_0, # of connection points: 2
#     Edge 30, Type (0, 0), BuildingBlock: CIFDUS_clean_linker_0, # of connection points: 2
#     Edge 31, Type (0, 0), BuildingBlock: CIFDUS_clean_linker_0, # of connection points: 2
#     Edge 32, Type (0, 0), BuildingBlock: CIFDUS_clean_linker_0, # of connection points: 2
#     Edge 33, Type (0, 0), BuildingBlock: CIFDUS_clean_linker_0, # of connection points: 2
#     Edge 34, Type (0, 0), BuildingBlock: CIFDUS_clean_linker_0, # of connection points: 2
#     Edge 35, Type (0, 0), BuildingBlock: CIFDUS_clean_linker_0, # of connection points: 2
# Relax obj value: 0.499
# Max RMSD: 0.277
# Mean RMSD: 0.183
data_MOF--net-snz--node1-BETDAH_clean_sbu_0--edge1-CIFDUS_clean_linker_0
_symmetry_space_group_name_H-M    P1
_symmetry_Int_Tables_number       1
_symmetry_cell_setting            triclinic
loop_
_symmetry_equiv_pos_as_xyz
'x, y, z'
_cell_length_a     61.247446
_cell_length_b     48.37667
_cell_length_c     14.190138
_cell_angle_alpha  96.552355
_cell_angle_beta   97.481878
_cell_angle_gamma 121.40663
loop_
_atom_site_label
_atom_site_type_symbol
_atom_site_fract_x
_atom_site_fract_y
_atom_site_fract_z
_atom_type_partial_charge
Ho0 Ho 0.13427 0.49508 0.23183 0.0
Ho1 Ho 0.09928 0.50704 0.24414 0.0
C2 C 0.07416 0.43271 0.1509 0.0
C3 C 0.1623 0.46893 0.25202 0.0
C4 C 0.18013 0.46325 0.31631 0.0
C5 C 0.17997 0.46312 0.41536 0.0
C6 C 0.19352 0.4517 0.46919 0.0
C7 C 0.20711 0.43965 0.42462 0.0
C8 C 0.20796 0.44106 0.32655 0.0
C9 C 0.19473 0.45279 0.27338 0.0
C10 C 0.12263 0.50526 1.04303 0.0
C11 C 0.15672 0.5716 0.29316 0.0
C12 C 0.06874 0.52947 0.24489 0.0
C13 C 0.04998 0.53395 0.18297 0.0
C14 C 0.05455 0.54501 0.09593 0.0
C15 C 0.03811 0.55318 1.0459 0.0
C16 C 1.01682 0.55037 1.0819 0.0
C17 C 1.01191 0.53825 0.16736 0.0
C18 C 1.02833 0.53017 0.21725 0.0
C19 C 0.11263 0.49663 0.43159 0.0
O20 O 0.09787 0.44133 0.19415 0.0
O21 O 0.07024 0.45677 0.14791 0.0
O22 O 0.13832 0.45516 0.26334 0.0
O23 O 0.17107 0.49774 0.22938 0.0
O24 O 0.14551 0.5153 0.09473 0.0
O25 O 0.10615 0.49073 0.09711 0.0
O26 O 0.13232 0.55975 0.25111 0.0
O27 O 0.1629 0.54978 0.30699 0.0
O28 O 0.09325 0.54713 0.23968 0.0
O29 O 0.06139 0.49951 0.25353 0.0
O30 O 0.08942 0.48368 0.37832 0.0
O31 O 0.12833 0.51292 0.37754 0.0
H32 H 0.16859 0.47065 0.45006 0.0
H33 H 0.19235 0.45085 0.5444 0.0
H34 H 0.21846 0.43241 0.29015 0.0
H35 H 0.19498 0.45231 0.197 0.0
H36 H 0.07115 0.54815 1.06795 0.0
H37 H 0.04224 0.56205 0.97965 0.0
H38 H 0.99595 0.53621 0.19795 0.0
H39 H 1.02461 0.522 0.28474 0.0
Ho40 Ho 0.63958 0.51327 1.08393 0.0
Ho41 Ho 0.60006 0.5123 1.04696 0.0
C42 C 0.64662 0.58414 0.12088 0.0
C43 C 0.68686 0.52478 0.0995 0.0
C44 C 0.71116 0.54313 1.06208 0.0
C45 C 0.72676 0.57802 1.08109 0.0
C46 C 0.7509 0.59461 1.05326 0.0
C47 C 0.76009 0.57678 1.00565 0.0
C48 C 0.74416 0.54189 0.98518 0.0
C49 C 0.72012 0.52535 1.01327 0.0
C50 C 0.6218 0.50435 0.26142 0.0
C51 C 0.5896 0.44028 1.0348 0.0
C52 C 0.55338 0.50173 1.02698 0.0
C53 C 0.53621 0.49509 0.09577 0.0
C54 C 0.54656 0.50178 0.19583 0.0
C55 C 0.53001 0.49336 0.26099 0.0
C56 C 0.50281 0.47781 0.22703 0.0
C57 C 0.49257 0.47144 0.12671 0.0
C58 C 0.50919 0.48006 1.06155 0.0
C59 C 0.61838 0.52082 0.86966 0.0
O60 O 0.65702 0.56863 1.08414 0.0
O61 O 0.62258 0.56508 0.1304 0.0
O62 O 0.68091 0.54179 0.15593 0.0
O63 O 0.66608 0.49968 1.03956 0.0
O64 O 0.62998 0.48829 0.21426 0.0
O65 O 0.62144 0.52378 0.20636 0.0
O66 O 0.57989 0.45799 1.05816 0.0
O67 O 0.61434 0.45711 1.02887 0.0
O68 O 0.5578 0.47867 1.00255 0.0
O69 O 0.57479 0.53113 1.04723 0.0
O70 O 0.61084 0.53752 0.91727 0.0
O71 O 0.61793 0.5011 0.92483 0.0
H72 H 0.72055 0.59257 0.11888 0.0
H73 H 0.76242 0.62146 1.0693 0.0
H74 H 0.75065 0.52725 0.95001 0.0
H75 H 0.70875 0.49849 0.99878 0.0
H76 H 0.56738 0.51295 0.22333 0.0
H77 H 0.53842 0.49813 0.33762 0.0
H78 H 0.47171 0.45971 0.09865 0.0
H79 H 0.5009 0.47453 0.98442 0.0
Ho80 Ho 0.5943 0.05062 0.86292 0.0
Ho81 Ho 0.63819 0.10181 0.91872 0.0
C82 C 0.59254 0.1145 0.89839 0.0
C83 C 0.5451 1.00255 0.82472 0.0
C84 C 0.52607 0.98643 0.88505 0.0
C85 C 0.52991 1.0029 0.97967 0.0
C86 C 0.51108 0.98814 1.03473 0.0
C87 C 0.48812 0.9565 0.99657 0.0
C88 C 0.48475 0.93982 0.90247 0.0
C89 C 0.50353 0.95471 0.8472 0.0
C90 C 0.61347 0.06552 0.68838 0.0
C91 C 0.63497 0.03422 0.92383 0.0
C92 C 0.68853 0.14599 0.93468 0.0
C93 C 0.7127 0.146 0.92585 0.0
C94 C 0.71127 0.11735 0.88168 0.0
C95 C 0.73418 0.11791 0.87338 0.0
C96 C 0.75922 0.14745 0.90589 0.0
C97 C 0.76059 0.1763 0.94806 0.0
C98 C 0.73768 0.17548 0.95873 0.0
C99 C 0.62011 0.08954 0.09484 0.0
O100 O 0.58107 0.08435 0.91334 0.0
O101 O 0.61684 0.12814 0.88687 0.0
O102 O 0.55322 0.03336 0.82544 0.0
O103 O 0.56428 0.99788 0.8318 0.0
O104 O 0.60405 0.03799 0.71828 0.0
O105 O 0.61474 0.08563 0.76053 0.0
O106 O 0.64836 0.06269 0.89816 0.0
O107 O 0.61111 0.02431 0.93067 0.0
O108 O 0.67806 0.13579 1.0077 0.0
O109 O 0.67047 0.13459 0.85565 0.0
O110 O 0.63122 0.11749 1.06569 0.0
O111 O 0.61719 0.06785 1.02281 0.0
H112 H 0.54728 0.02742 1.01034 0.0
H113 H 0.51424 1.00193 0.10626 0.0
H114 H 0.46758 0.9152 0.87137 0.0
H115 H 0.50033 0.94157 0.77452 0.0
H116 H 0.69242 0.09456 0.8523 0.0
H117 H 0.73227 0.09531 0.83941 0.0
H118 H 0.77946 0.19947 0.97409 0.0
H119 H 0.73951 0.19809 0.99208 0.0
Ho120 Ho 0.79087 0.85796 0.29946 0.0
Ho121 Ho 0.74988 0.85904 0.30648 0.0
C122 C 0.73897 0.78685 0.27684 0.0
C123 C 0.82755 0.8455 0.30278 0.0
C124 C 0.83944 0.8299 0.35451 0.0
C125 C 0.83492 0.79954 0.30792 0.0
C126 C 0.8484 0.78625 0.34966 0.0
C127 C 0.86688 0.80316 0.43875 0.0
C128 C 0.87078 0.83303 0.48685 0.0
C129 C 0.85728 0.8463 0.44514 0.0
C130 C 0.77483 0.86482 0.11023 0.0
C131 C 0.80539 0.92999 0.36661 0.0
C132 C 0.71155 0.869 0.27926 0.0
C133 C 0.70287 0.88925 0.23638 0.0
C134 C 0.71197 0.904 0.15814 0.0
C135 C 0.70158 0.92082 0.11529 0.0
C136 C 0.68175 0.92298 0.14936 0.0
C137 C 0.67335 0.90886 0.22944 0.0
C138 C 0.68374 0.89226 0.27209 0.0
C139 C 0.76491 0.85232 0.49637 0.0
O140 O 0.76429 0.80506 0.31495 0.0
O141 O 0.72737 0.80267 0.25712 0.0
O142 O 0.80375 0.82586 0.25058 0.0
O143 O 0.83145 0.87325 0.34775 0.0
O144 O 0.79823 0.88177 0.16512 0.0
O145 O 0.76015 0.84653 0.16401 0.0
O146 O 0.78032 0.91485 0.32358 0.0
O147 O 0.81487 0.91146 0.3764 0.0
O148 O 0.71319 0.84794 0.21997 0.0
O149 O 0.73068 0.88353 0.356 0.0
O150 O 0.74133 0.83663 0.44228 0.0
O151 O 0.78029 0.86994 0.44272 0.0
H152 H 0.82154 0.78652 0.23741 0.0
H153 H 0.84509 0.7634 0.31015 0.0
H154 H 0.88458 0.84644 0.55634 0.0
H155 H 0.86133 0.8698 0.48286 0.0
H156 H 0.72672 0.90201 0.12912 0.0
H157 H 0.7085 0.93124 1.05369 0.0
H158 H 0.65857 0.91051 0.25926 0.0
H159 H 0.67643 0.88118 0.33241 0.0
Ho160 Ho 0.28904 0.84513 0.51894 0.0
Ho161 Ho 0.24861 0.84648 0.47281 0.0
C162 C 0.30001 0.91782 0.52534 0.0
C163 C 0.33525 0.85392 0.53967 0.0
C164 C 0.35553 0.86682 0.48261 0.0
C165 C 0.35268 0.88038 0.4032 0.0
C166 C 0.3721 0.89292 0.34952 0.0
C167 C 0.39469 0.89193 0.37383 0.0
C168 C 0.39732 0.8781 0.45336 0.0
C169 C 0.37791 0.8657 0.50732 0.0
C170 C 0.26978 0.84103 0.69323 0.0
C171 C 0.23869 0.77395 0.45837 0.0
C172 C 0.20217 0.83777 0.45151 0.0
C173 C 0.17925 0.82489 0.49719 0.0
C174 C 0.1744 0.80295 0.56048 0.0
C175 C 0.15201 0.79075 0.60036 0.0
C176 C 0.13416 0.80042 0.5781 0.0
C177 C 0.1392 0.82225 0.51418 0.0
C178 C 0.16144 0.83432 0.47453 0.0
C179 C 0.26776 0.85065 0.29848 0.0
O180 O 0.30927 0.89935 0.50296 0.0
O181 O 0.27526 0.90197 0.5309 0.0
O182 O 0.33085 0.87532 0.58161 0.0
O183 O 0.31353 0.82597 0.49748 0.0
O184 O 0.27851 0.82401 0.65619 0.0
O185 O 0.27041 0.85903 0.6314 0.0
O186 O 0.22953 0.79227 0.48448 0.0
O187 O 0.26347 0.78988 0.45431 0.0
O188 O 0.20669 0.81639 0.41037 0.0
O189 O 0.22378 0.86497 0.4992 0.0
O190 O 0.25882 0.86746 0.33516 0.0
O191 O 0.26715 0.83265 0.36032 0.0
H192 H 0.33547 0.88139 0.383 0.0
H193 H 0.36956 0.90381 0.2898 0.0
H194 H 0.41424 0.8765 0.47332 0.0
H195 H 0.38034 0.85517 0.56821 0.0
H196 H 0.18786 0.79525 0.5789 0.0
H197 H 0.14885 0.77411 0.64949 0.0
H198 H 0.12571 0.82973 0.49343 0.0
H199 H 0.16462 0.85095 0.42525 0.0
Ho200 Ho 0.25085 0.25757 0.63715 0.0
Ho201 Ho 0.29632 0.30945 0.70638 0.0
C202 C 0.25675 0.32801 0.62696 0.0
C203 C 0.20152 0.22553 0.64101 0.0
C204 C 0.17381 0.20832 0.65283 0.0
C205 C 0.16854 0.20813 0.7465 0.0
C206 C 0.14386 0.20057 0.76109 0.0
C207 C 0.12396 0.19407 0.68286 0.0
C208 C 0.12898 0.19337 0.58872 0.0
C209 C 0.15346 0.20003 0.57382 0.0
C210 C 0.26978 0.27329 0.46668 0.0
C211 C 0.29518 0.24324 0.65853 0.0
C212 C 0.34615 0.35467 0.74419 0.0
C213 C 0.36344 0.36871 0.67711 0.0
C214 C 0.35253 0.36167 0.57747 0.0
C215 C 0.36875 0.3733 0.51194 0.0
C216 C 0.3962 0.39202 0.54478 0.0
C217 C 0.40704 0.39923 0.645 0.0
C218 C 0.39074 0.3876 0.71068 0.0
C219 C 0.27533 0.28903 0.87237 0.0
O220 O 0.24107 0.29576 0.61294 0.0
O221 O 0.28172 0.34136 0.66233 0.0
O222 O 0.21062 0.21311 0.58173 0.0
O223 O 0.21961 0.25313 0.70192 0.0
O224 O 0.25481 0.24357 0.48257 0.0
O225 O 0.27466 0.29417 0.54545 0.0
O226 O 0.30733 0.27398 0.64752 0.0
O227 O 0.27073 0.22962 0.66893 0.0
O228 O 0.33676 0.32348 0.7421 0.0
O229 O 0.32808 0.36128 0.74305 0.0
O230 O 0.28713 0.31866 0.8559 0.0
O231 O 0.27387 0.27088 0.79434 0.0
H232 H 0.18393 0.21527 0.8093 0.0
H233 H 0.1408 0.20143 0.83456 0.0
H234 H 0.1141 0.18827 0.52669 0.0
H235 H 0.15708 0.20095 0.50116 0.0
H236 H 0.33143 0.34688 0.55028 0.0
H237 H 0.35976 0.36766 0.43554 0.0
H238 H 0.42811 0.41321 0.6724 0.0
H239 H 0.39943 0.39292 0.78728 0.0
Ho240 Ho 0.45634 0.19429 0.72528 0.0
Ho241 Ho 0.43234 0.16593 0.83806 0.0
C242 C 0.40425 0.19459 0.73023 0.0
C243 C 0.47722 0.22949 0.60035 0.0
C244 C 0.46786 0.23103 0.50442 0.0
C245 C 0.43328 0.19981 0.44695 0.0
C246 C 0.41937 0.19553 0.32052 0.0
C247 C 0.44291 0.22652 0.24515 0.0
C248 C 0.48035 0.25847 0.30775 0.0
C249 C 0.49121 0.25991 0.43726 0.0
C250 C 0.48382 0.23933 0.89868 0.0
C251 C 0.48306 0.1624 0.82092 0.0
C252 C 0.41827 0.1397 0.98455 0.0
C253 C 0.43427 0.15093 1.08125 0.0
C254 C 0.47 0.18361 0.10185 0.0
C255 C 0.49239 0.1971 0.2218 0.0
C256 C 0.47744 0.17467 0.32629 0.0
C257 C 0.43894 0.14127 0.30058 0.0
C258 C 0.41943 0.13102 0.17811 0.0
C259 C 0.40458 0.119 0.6689 0.0
O260 O 0.41869 0.19291 0.67127 0.0
O261 O 0.40799 0.18807 0.81557 0.0
O262 O 0.4682 0.23824 0.66729 0.0
O263 O 0.47536 0.20169 0.60589 0.0
O264 O 0.49302 0.22687 0.84386 0.0
O265 O 0.45892 0.22181 0.86923 0.0
O266 O 0.46873 0.16354 0.88102 0.0
O267 O 0.47997 0.17091 0.73852 0.0
O268 O 0.42703 0.12908 0.92092 0.0
O269 O 0.41229 0.15991 0.9557 0.0
O270 O 0.39502 0.12978 0.72733 0.0
O271 O 0.42962 0.13789 0.69433 0.0
H272 H 0.42073 0.1833 0.48872 0.0
H273 H 0.39843 0.17929 0.29135 0.0
H274 H 0.49327 0.27733 0.27214 0.0
H275 H 0.51146 0.27766 0.47436 0.0
H276 H 0.47795 0.19506 1.04341 0.0
H277 H 0.51337 0.21349 0.23026 0.0
H278 H 0.43036 0.12658 0.35315 0.0
H279 H 0.39876 0.11175 0.16141 0.0
Ho280 Ho 0.9434 0.16284 0.83423 0.0
Ho281 Ho 0.94142 0.19468 0.69473 0.0
C282 C 0.8939 0.17124 0.79423 0.0
C283 C 0.9486 0.14062 0.98719 0.0
C284 C 0.97295 0.14646 1.04487 0.0
C285 C 0.97726 0.15256 0.14625 0.0
C286 C 1.00276 0.16907 0.20246 0.0
C287 C 1.02435 0.18061 0.15774 0.0
C288 C 1.0197 0.17089 1.05666 0.0
C289 C 0.99403 0.15323 1.00072 0.0
C290 C 0.91825 0.11805 0.65939 0.0
C291 C 0.99085 0.18669 0.73259 0.0
C292 C 0.94559 0.222 0.54608 0.0
C293 C 0.96939 0.2465 0.51761 0.0
C294 C 0.99379 0.26358 0.5842 0.0
C295 C 1.01707 0.28132 0.55227 0.0
C296 C 1.01628 0.28188 0.45306 0.0
C297 C 0.99161 0.26744 0.38888 0.0
C298 C 0.9684 0.24978 0.42092 0.0
C299 C 0.96956 0.24002 0.86863 0.0
O300 O 0.9089 0.16723 0.85984 0.0
O301 O 0.90081 0.17771 0.71169 0.0
O302 O 0.94765 0.16706 0.99018 0.0
O303 O 0.94074 0.12305 0.899 0.0
O304 O 0.93781 0.12229 0.7205 0.0
O305 O 0.91397 0.14026 0.68968 0.0
O306 O 0.97532 0.18974 0.66709 0.0
O307 O 0.98434 0.18091 0.81587 0.0
O308 O 0.94134 0.23237 0.62617 0.0
O309 O 0.94221 0.19289 0.54203 0.0
O310 O 0.95031 0.23755 0.81056 0.0
O311 O 0.97162 0.21619 0.83539 0.0
H312 H 0.96131 0.14747 0.18177 0.0
H313 H 1.00575 0.17659 0.28039 0.0
H314 H 0.03593 0.17958 1.02052 0.0
H315 H 0.99096 0.14754 0.92252 0.0
H316 H 0.9949 0.26137 0.65957 0.0
H317 H 0.03563 0.29226 0.60365 0.0
H318 H 0.99003 0.26685 0.31168 0.0
H319 H 0.94975 0.23678 0.36869 0.0
Ho320 Ho 0.93073 0.64748 0.67086 0.0
Ho321 Ho 0.95321 0.70382 0.83002 0.0
C322 C 0.99307 0.70453 0.70957 0.0
C323 C 0.91868 0.60774 0.50799 0.0
C324 C 0.93647 0.60235 0.46022 0.0
C325 C 0.93371 0.59936 0.35942 0.0
C326 C 0.95495 0.60597 0.31778 0.0
C327 C 0.97927 0.61608 0.37695 0.0
C328 C 0.98069 0.6143 0.47541 0.0
C329 C 0.95949 0.60776 0.51704 0.0
C330 C 0.95084 0.63808 0.83722 0.0
C331 C 0.89147 0.64521 0.79789 0.0
C332 C 0.97326 0.74659 0.99301 0.0
C333 C 0.99856 0.76078 1.06087 0.0
C334 C 1.01943 0.76139 1.02767 0.0
C335 C 0.03908 0.76209 0.0922 0.0
C336 C 0.03793 0.76209 0.19039 0.0
C337 C 1.0195 0.76727 0.22532 0.0
C338 C 0.99979 0.76626 0.16069 0.0
C339 C 0.93333 0.71322 0.66251 0.0
O340 O 0.97182 0.68094 0.64434 0.0
O341 O 0.99113 0.71431 0.79643 0.0
O342 O 0.91519 0.5979 0.58982 0.0
O343 O 0.92308 0.63747 0.51354 0.0
O344 O 0.92839 0.61625 0.7795 0.0
O345 O 0.96104 0.66433 0.80526 0.0
O346 O 0.91289 0.66967 0.86105 0.0
O347 O 0.89289 0.63494 0.71001 0.0
O348 O 0.95695 0.71475 0.98536 0.0
O349 O 0.97423 0.75489 0.90862 0.0
O350 O 0.95535 0.73509 0.72211 0.0
O351 O 0.92281 0.68704 0.69476 0.0
H352 H 0.91614 0.5953 0.31452 0.0
H353 H 0.95326 0.60728 0.24168 0.0
H354 H 0.99914 0.62179 0.52233 0.0
H355 H 0.96214 0.61028 0.59525 0.0
H356 H 1.01925 0.75805 0.9509 0.0
H357 H 0.05327 0.75873 1.06339 0.0
H358 H 1.01792 0.7675 0.30049 0.0
H359 H 0.98397 0.76609 0.18769 0.0
H360 H 0.15706 0.52823 0.90906 0.0
H361 H 0.07448 0.47268 0.90564 0.0
H362 H 0.06441 0.46514 0.72767 0.0
H363 H 0.07826 0.47365 0.56555 0.0
H364 H 0.16082 0.52968 0.56902 0.0
H365 H 0.17091 0.5371 0.74698 0.0
C366 C 0.13669 0.5144 0.87046 0.0
C367 C 0.1167 0.50119 0.92717 0.0
C368 C 0.13077 0.51001 0.76407 0.0
C369 C 0.09071 0.4835 0.86972 0.0
C370 C 0.08484 0.47907 0.7656 0.0
C371 C 0.09863 0.48759 0.60417 0.0
C372 C 0.11861 0.50094 0.5475 0.0
C373 C 0.10455 0.49208 0.71058 0.0
C374 C 0.1446 0.51881 0.60496 0.0
C375 C 0.15048 0.52313 0.70906 0.0
H376 H 0.62381 0.47949 0.7132 0.0
H377 H 0.61392 0.56151 0.75922 0.0
H378 H 0.61352 0.56478 0.58891 0.0
H379 H 0.61596 0.54525 0.41739 0.0
H380 H 0.62606 0.46341 0.37142 0.0
H381 H 0.62628 0.45997 0.54162 0.0
C382 C 0.62158 0.49828 0.68735 0.0
C383 C 0.61887 0.52026 0.75629 0.0
C384 C 0.62135 0.50036 0.58419 0.0
C385 C 0.61605 0.54387 0.71384 0.0
C386 C 0.6158 0.54589 0.61371 0.0
C387 C 0.61819 0.52646 0.44326 0.0
C388 C 0.62103 0.50459 0.37443 0.0
C389 C 0.61841 0.52437 0.54638 0.0
C390 C 0.62385 0.48097 0.4168 0.0
C391 C 0.62399 0.47887 0.51685 0.0
H392 H 0.62452 0.11742 0.5713 0.0
H393 H 0.60377 0.01643 0.5376 0.0
H394 H 0.60326 1.01302 0.3644 0.0
H395 H 0.60861 0.03772 0.21179 0.0
H396 H 0.62968 0.13881 0.24531 0.0
H397 H 0.62997 0.14219 0.41852 0.0
C398 C 0.61985 0.09442 0.52734 0.0
C399 C 0.61413 0.06708 0.57525 0.0
C400 C 0.61957 0.09229 0.42208 0.0
C401 C 0.6083 0.03829 0.50957 0.0
C402 C 0.60798 0.03618 0.40749 0.0
C403 C 0.61327 0.06072 0.25569 0.0
C404 C 0.61914 0.08809 0.2078 0.0
C405 C 0.61355 0.06287 0.3609 0.0
C406 C 0.62502 0.11693 0.2734 0.0
C407 C 0.62522 0.119 0.37545 0.0
H408 H 0.73108 0.82345 0.62946 0.0
H409 H 0.81235 0.89429 0.63665 0.0
H410 H 0.82227 0.90429 0.81526 0.0
H411 H 0.80867 0.89373 0.97719 0.0
H412 H 0.72744 0.82268 0.96996 0.0
H413 H 0.7175 0.81274 0.79135 0.0
C414 C 0.75114 0.84117 0.66899 0.0
C415 C 0.77079 0.85787 0.61294 0.0
C416 C 0.75699 0.84708 0.77591 0.0
C417 C 0.79638 0.88059 0.67182 0.0
C418 C 0.80216 0.88645 0.77639 0.0
C419 C 0.78862 0.87596 0.93764 0.0
C420 C 0.76898 0.85919 0.99366 0.0
C421 C 0.78278 0.87001 0.83071 0.0
C422 C 0.7434 0.8364 0.93478 0.0
C423 C 0.73761 0.83059 0.83022 0.0
H424 H 0.27766 0.81109 0.84885 0.0
H425 H 0.25873 0.88321 0.80051 0.0
H426 H 0.25658 0.89236 0.9721 0.0
H427 H 0.25993 0.88062 0.14293 0.0
H428 H 0.27894 0.80858 0.19137 0.0
H429 H 0.28109 0.79942 1.01977 0.0
C430 C 0.27302 0.82895 0.87467 0.0
C431 C 0.2684 0.84629 0.80542 0.0
C432 C 0.27179 0.83437 0.97739 0.0
C433 C 0.26249 0.86911 0.84661 0.0
C434 C 0.26124 0.87445 0.94702 0.0
C435 C 0.26458 0.86278 0.11712 0.0
C436 C 0.2692 0.84543 0.18636 0.0
C437 C 0.26583 0.85737 1.01443 0.0
C438 C 0.27516 0.82266 0.14524 0.0
C439 C 0.27641 0.81732 1.04483 0.0
H440 H 0.28963 0.33107 1.06179 0.0
H441 H 0.25484 0.22818 0.93218 0.0
H442 H 0.2501 0.21447 0.09293 0.0
H443 H 0.25539 0.23067 0.27694 0.0
H444 H 0.29091 0.33379 0.40629 0.0
H445 H 0.2955 0.34735 0.24559 0.0
C446 C 0.28095 0.30544 1.06732 0.0
C447 C 0.27266 0.28093 0.97855 0.0
C448 C 0.2783 0.29738 0.16377 0.0
C449 C 0.26161 0.24818 0.99405 0.0
C450 C 0.25884 0.24018 0.08822 0.0
C451 C 0.26423 0.25631 0.27136 0.0
C452 C 0.2727 0.28093 0.36012 0.0
C453 C 0.26704 0.26437 0.17486 0.0
C454 C 0.28403 0.31371 0.34452 0.0
C455 C 0.28668 0.32163 0.25035 0.0
H456 H 0.43767 0.20216 0.093 0.0
H457 H 0.4311 0.27211 0.31001 0.0
H458 H 0.45337 0.26544 0.46565 0.0
H459 H 0.49489 0.21163 0.46748 0.0
H460 H 0.48577 0.12538 0.2642 0.0
H461 H 0.45674 0.12494 0.11428 0.0
C462 C 0.44095 0.20759 0.17466 0.0
C463 C 0.43326 0.23613 0.19966 0.0
C464 C 0.4521 0.18662 0.23269 0.0
C465 C 0.43698 0.2545 0.30252 0.0
C466 C 0.44965 0.24934 0.3964 0.0
C467 C 0.48138 0.19557 0.39465 0.0
C468 C 0.48939 0.16737 0.36959 0.0
C469 C 0.4613 0.20734 0.3439 0.0
C470 C 0.47938 0.14246 0.27207 0.0
C471 C 0.46104 0.14172 0.18291 0.0
H472 H 0.05128 0.26515 0.50769 0.0
H473 H 0.03315 0.31342 0.30263 0.0
H474 H 0.04878 0.2924 0.18201 0.0
H475 H 0.04704 0.24172 0.12073 0.0
H476 H 0.05784 0.18762 0.32192 0.0
H477 H 0.06867 0.23118 0.4576 0.0
C478 C 0.0522 0.27283 0.43884 0.0
C479 C 0.03928 0.2887 0.41147 0.0
C480 C 0.05968 0.2589 0.36781 0.0
C481 C 0.04172 0.29966 0.32351 0.0
C482 C 0.05049 0.28742 0.25401 0.0
C483 C 0.05341 0.24058 0.19446 0.0
C484 C 0.04951 0.2105 0.21268 0.0
C485 C 0.05639 0.26388 0.27211 0.0
C486 C 0.05938 0.20996 0.30684 0.0
C487 C 0.06478 0.23456 0.38493 0.0
H488 H 1.01821 0.67704 0.47151 0.0
H489 H 0.99341 0.60546 0.20626 0.0
H490 H 1.02195 0.6502 0.12981 0.0
H491 H 0.03868 0.70777 0.12273 0.0
H492 H 0.06008 0.77898 0.3857 0.0
H493 H 0.04729 0.73584 0.47721 0.0
C494 C 1.02024 0.67088 0.39892 0.0
C495 C 1.00349 0.63814 0.34442 0.0
C496 C 0.03516 0.69667 0.3535 0.0
C497 C 1.00584 0.63057 0.2493 0.0
C498 C 1.02186 0.6561 0.20514 0.0
C499 C 0.04248 0.71456 0.20138 0.0
C500 C 0.04865 0.74606 0.24668 0.0
C501 C 0.03458 0.68929 0.25388 0.0
C502 C 0.05437 0.75455 0.34869 0.0
C503 C 0.04706 0.72974 0.40161 0.0
H504 H 0.265 0.38951 0.69693 0.0
H505 H 0.22594 0.30758 0.44843 0.0
H506 H 0.20803 0.33491 0.36368 0.0
H507 H 0.20238 0.38128 0.3597 0.0
H508 H 0.23846 0.46225 0.60943 0.0
H509 H 0.25814 0.4362 0.69406 0.0
C510 C 0.25262 0.37781 0.62424 0.0
C511 C 0.24678 0.34644 0.57927 0.0
C512 C 0.24164 0.39343 0.57611 0.0
C513 C 0.23054 0.3315 0.48521 0.0
C514 C 0.22031 0.34716 0.43639 0.0
C515 C 0.21472 0.39341 0.43241 0.0
C516 C 0.21909 0.4239 0.47754 0.0
C517 C 0.22556 0.37801 0.48111 0.0
C518 C 0.2347 0.43879 0.57278 0.0
C519 C 0.24605 0.42392 0.62113 0.0
H520 H 0.7002 0.63318 0.16829 0.0
H521 H 0.62428 0.62032 0.13342 0.0
H522 H 0.64505 0.68036 0.17626 0.0
H523 H 0.68514 0.7378 0.22484 0.0
H524 H 0.76103 0.75025 0.27009 0.0
H525 H 0.74023 0.69041 0.22339 0.0
C526 C 0.68817 0.64347 0.16968 0.0
C527 C 0.66047 0.62164 0.14657 0.0
C528 C 0.70039 0.67855 0.19716 0.0
C529 C 0.64551 0.63599 0.15049 0.0
C530 C 0.65745 0.67061 0.17517 0.0
C531 C 0.69717 0.72749 0.22493 0.0
C532 C 0.72488 0.74926 0.25159 0.0
C533 C 0.68493 0.69235 0.19901 0.0
C534 C 0.73979 0.73474 0.25091 0.0
C535 C 0.72784 0.70019 0.22362 0.0
H536 H 0.49484 0.95869 0.19228 0.0
H537 H 0.43478 0.92039 0.92911 0.0
H538 H 0.40085 0.89624 1.02166 0.0
H539 H 0.38809 0.88663 0.17729 0.0
H540 H 0.44806 0.92767 0.44192 0.0
H541 H 0.48206 0.95006 0.34867 0.0
C542 C 0.47435 0.94533 0.15512 0.0
C543 C 0.4675 0.94137 1.05356 0.0
C544 C 0.45485 0.93193 0.20905 0.0
C545 C 0.44075 0.92342 1.0068 0.0
C546 C 0.42127 0.90979 1.05981 0.0
C547 C 0.40859 0.90076 0.21486 0.0
C548 C 0.41541 0.9054 0.31666 0.0
C549 C 0.42809 0.91401 0.16098 0.0
C550 C 0.44214 0.92326 0.36358 0.0
C551 C 0.46165 0.93629 0.31035 0.0
H552 H 0.54885 0.1013 0.9676 0.0
H553 H 0.59975 0.16224 0.79395 0.0
H554 H 0.57065 0.18179 0.75233 0.0
H555 H 0.52918 0.17988 0.75941 0.0
H556 H 0.48071 0.1223 0.94488 0.0
H557 H 0.51003 0.10338 0.98689 0.0
C558 C 0.55385 0.11922 0.9216 0.0
C559 C 0.57676 0.13017 0.88426 0.0
C560 C 0.53709 0.1308 0.89897 0.0
C561 C 0.5826 0.15347 0.82484 0.0
C562 C 0.56574 0.1645 0.80028 0.0
C563 C 0.52504 0.16322 0.80913 0.0
C564 C 0.50228 0.15229 0.84769 0.0
C565 C 0.54267 0.15306 0.83578 0.0
C566 C 0.49777 0.13113 0.9134 0.0
C567 C 0.51464 0.12023 0.93761 0.0
H568 H 0.96897 0.29537 0.92952 0.0
H569 H 1.02085 0.26029 0.94611 0.0
H570 H 0.05761 0.31582 1.03401 0.0
H571 H 0.07554 0.37554 0.10665 0.0
H572 H 1.02257 0.4092 1.08485 0.0
H573 H 0.98631 0.35368 1.0018 0.0
C574 C 0.98823 0.29964 0.95333 0.0
C575 C 0.99181 0.27318 0.93095 0.0
C576 C 1.00939 0.33178 1.00437 0.0
C577 C 1.01718 0.27974 0.9624 0.0
C578 C 0.03834 0.31171 1.01278 0.0
C579 C 0.05605 0.37073 1.08429 0.0
C580 C 0.0522 0.39721 0.10302 0.0
C581 C 0.03479 0.33812 1.03453 0.0
C582 C 1.02657 0.38992 1.07217 0.0
C583 C 1.0056 0.3579 1.02426 0.0
H584 H 0.87856 0.66299 0.96325 0.0
H585 H 0.84501 0.59157 0.69018 0.0
H586 H 0.80196 0.56482 0.72913 0.0
H587 H 0.77342 0.56112 0.84009 0.0
H588 H 0.80633 0.63201 0.1136 0.0
H589 H 0.84958 0.65957 1.07438 0.0
C590 C 0.86185 0.64158 0.91226 0.0
C591 C 0.86527 0.62942 0.82381 0.0
C592 C 0.83681 0.62617 0.93489 0.0
C593 C 0.8432 0.60166 0.75873 0.0
C594 C 0.81843 0.58622 0.78092 0.0
C595 C 0.79005 0.58247 0.89156 0.0
C596 C 0.78642 0.5943 0.97987 0.0
C597 C 0.81498 0.59817 0.86878 0.0
C598 C 0.80829 0.62245 1.04456 0.0
C599 C 0.83316 0.63815 1.02247 0.0
H600 H 0.93375 0.5827 0.91093 0.0
H601 H 1.00406 0.66916 0.87432 0.0
H602 H 1.03021 0.64809 0.93771 0.0
H603 H 0.03342 0.60587 1.00781 0.0
H604 H 0.96346 0.52016 1.04967 0.0
H605 H 0.93703 0.54043 0.98203 0.0
C606 C 0.95485 0.59708 0.91818 0.0
C607 C 0.96692 0.62748 0.88844 0.0
C608 C 0.96987 0.58497 0.95576 0.0
C609 C 0.99426 0.64582 0.89754 0.0
C610 C 1.00922 0.6336 0.93272 0.0
C611 C 1.01233 0.59129 1.00051 0.0
C612 C 1.00049 0.5615 1.03383 0.0
C613 C 0.99725 0.60321 0.96214 0.0
C614 C 0.97317 0.54336 1.02572 0.0
C615 C 0.95801 0.5549 0.98685 0.0
H616 H 0.53666 0.39673 1.0368 0.0
H617 H 0.60487 0.39738 0.98628 0.0
H618 H 0.57916 0.33684 0.9477 0.0
H619 H 0.53698 0.28296 0.9214 0.0
H620 H 0.46806 0.28083 0.96821 0.0
H621 H 0.49414 0.34175 1.01583 0.0
C622 C 0.54601 0.38371 1.01786 0.0
C623 C 0.57309 0.40243 1.01476 0.0
C624 C 0.53082 0.34816 0.99504 0.0
C625 C 0.58438 0.3844 0.98965 0.0
C626 C 0.56955 0.34946 0.96739 0.0
C627 C 0.52756 0.29563 0.94312 0.0
C628 C 0.50024 0.27658 0.94113 0.0
C629 C 0.54272 0.33096 0.96907 0.0
C630 C 0.48884 0.29418 0.9693 0.0
C631 C 0.50385 0.3293 0.99606 0.0
H632 H 0.85597 0.13087 0.88985 0.0
H633 H 0.87837 0.21127 0.74048 0.0
H634 H 0.84007 0.21227 0.76501 0.0
H635 H 0.79929 0.18978 0.82558 0.0
H636 H 0.77418 0.10621 0.96204 0.0
H637 H 0.81382 0.10683 0.94583 0.0
C638 C 0.85251 0.14869 0.86322 0.0
C639 C 0.87031 0.17111 0.81366 0.0
C640 C 0.82967 0.14846 0.8749 0.0
C641 C 0.86513 0.19367 0.77853 0.0
C642 C 0.84315 0.1943 0.79265 0.0
C643 C 0.80255 0.1718 0.85221 0.0
C644 C 0.78368 0.1481 0.89559 0.0
C645 C 0.82515 0.17174 0.84021 0.0
C646 C 0.7882 0.12469 0.92818 0.0
C647 C 0.81098 0.1251 0.91908 0.0
H648 H 0.61156 0.97424 0.9765 0.0
H649 H 0.6864 0.05328 0.94274 0.0
H650 H 0.70733 0.02574 1.00529 0.0
H651 H 0.70488 0.9802 1.07786 0.0
H652 H 0.62973 0.9012 0.11036 0.0
H653 H 0.60872 0.92767 1.04114 0.0
C654 C 0.63242 0.98535 0.98193 0.0
C655 C 0.64728 1.0159 0.95429 0.0
C656 C 0.64444 0.96942 1.01897 0.0
C657 C 0.67432 0.02978 0.9624 0.0
C658 C 0.68639 1.01405 0.99882 0.0
C659 C 0.68387 0.96857 1.06885 0.0
C660 C 0.6691 0.93883 0.10096 0.0
C661 C 0.67172 0.98398 1.02839 0.0
C662 C 0.64184 0.92438 0.08872 0.0
C663 C 0.6297 0.93943 1.04841 0.0
H664 H 0.25099 0.72565 0.43086 0.0
H665 H 0.18517 0.73649 0.42035 0.0
H666 H 0.15486 0.67658 0.36769 0.0
H667 H 0.14621 0.62034 0.32221 0.0
H668 H 0.21116 0.60772 0.34114 0.0
H669 H 0.24209 0.66813 0.39222 0.0
C670 C 0.23003 0.71495 0.41743 0.0
C671 C 0.2207 0.73631 0.42999 0.0
C672 C 0.21228 0.67971 0.38805 0.0
C673 C 0.19328 0.72134 0.41217 0.0
C674 C 0.17576 0.68678 0.38152 0.0
C675 C 0.16714 0.63065 0.33729 0.0
C676 C 0.17607 0.6089 0.32653 0.0
C677 C 0.18492 0.66561 0.36877 0.0
C678 C 0.20343 0.62334 0.34816 0.0
C679 C 0.22122 0.65812 0.37749 0.0
H680 H 0.45694 0.4187 0.20456 0.0
H681 H 0.50938 0.51311 0.40452 0.0
H682 H 0.48108 0.49493 0.52065 0.0
H683 H 0.44142 0.45217 0.56509 0.0
H684 H 0.38954 0.35736 0.36594 0.0
H685 H 0.41737 0.37599 0.24898 0.0
C686 C 0.46199 0.43542 0.27309 0.0
C687 C 0.48515 0.46722 0.29584 0.0
C688 C 0.44572 0.42476 0.33953 0.0
C689 C 0.49173 0.48841 0.38568 0.0
C690 C 0.47554 0.47807 0.45193 0.0
C691 C 0.43633 0.43549 0.49646 0.0
C692 C 0.41338 0.40346 0.47432 0.0
C693 C 0.45255 0.44624 0.42979 0.0
C694 C 0.40687 0.38232 0.38435 0.0
C695 C 0.42285 0.39287 0.31758 0.0
H696 H 0.95008 0.77478 0.63264 0.0
H697 H 0.88209 0.67462 0.56163 0.0
H698 H 0.85548 0.69336 0.48336 0.0
H699 H 0.85102 0.73906 0.44536 0.0
H700 H 0.91929 0.83921 0.52099 0.0
H701 H 0.94614 0.81969 0.58896 0.0
C702 C 0.9295 0.75694 0.59905 0.0
C703 C 0.91805 0.72337 0.60316 0.0
C704 C 0.91425 0.76802 0.55659 0.0
C705 C 0.89136 0.7006 0.5593 0.0
C706 C 0.87612 0.71135 0.51512 0.0
C707 C 0.87182 0.75656 0.47593 0.0
C708 C 0.88301 0.79065 0.47895 0.0
C709 C 0.88725 0.74513 0.51498 0.0
C710 C 0.90999 0.81297 0.51952 0.0
C711 C 0.92544 0.8018 0.55768 0.0
H712 H 0.35148 0.07473 0.63611 0.0
H713 H 0.42194 0.07846 0.60521 0.0
H714 H 0.39648 0.01751 0.55639 0.0
H715 H 0.35381 0.96186 0.53052 0.0
H716 H 0.2843 0.96041 0.56591 0.0
H717 H 0.30955 0.02073 0.60461 0.0
C718 C 0.3614 0.06242 0.61751 0.0
C719 C 0.38891 0.08191 0.62428 0.0
C720 C 0.3466 0.02714 0.591 0.0
C721 C 0.40096 0.06476 0.60008 0.0
C722 C 0.3863 0.02962 0.57277 0.0
C723 C 0.3441 0.97468 0.54614 0.0
C724 C 0.31674 0.9557 0.54503 0.0
C725 C 0.35906 1.01029 0.56921 0.0
C726 C 0.30501 0.97351 0.56591 0.0
C727 C 0.31956 1.00838 0.58824 0.0
H728 H 1.01547 0.15601 0.79581 0.0
H729 H 1.02397 0.2298 0.63371 0.0
H730 H 0.06642 0.24045 0.61136 0.0
H731 H 0.09928 0.22491 0.62129 0.0
H732 H 0.09132 0.15191 0.78612 0.0
H733 H 0.04994 0.14319 0.81681 0.0
C734 C 1.0264 0.17405 0.75404 0.0
C735 C 1.0162 0.19175 0.71536 0.0
C736 C 0.05038 0.17898 0.73697 0.0
C737 C 1.03087 0.21521 0.6622 0.0
C738 C 0.05504 0.22098 0.64795 0.0
C739 C 0.08842 0.20695 0.66346 0.0
C740 C 0.09842 0.18881 0.7003 0.0
C741 C 0.06469 0.20239 0.68228 0.0
C742 C 0.08419 0.16614 0.75649 0.0
C743 C 0.06044 0.16111 0.77401 0.0
H744 H 0.35825 0.17706 0.79195 0.0
H745 H 0.40578 0.23346 0.60245 0.0
H746 H 0.37638 0.25244 0.56157 0.0
H747 H 0.33802 0.25532 0.5845 0.0
H748 H 0.28805 0.19533 0.7621 0.0
H749 H 0.31698 0.17536 0.80113 0.0
C750 C 0.36212 0.19337 0.74127 0.0
C751 C 0.38465 0.20399 0.70134 0.0
C752 C 0.34447 0.20356 0.71544 0.0
C753 C 0.38885 0.22479 0.63472 0.0
C754 C 0.37197 0.23576 0.6113 0.0
C755 C 0.33316 0.23747 0.63066 0.0
C756 C 0.31058 0.22695 0.67003 0.0
C757 C 0.34981 0.2256 0.65171 0.0
C758 C 0.30491 0.20374 0.72964 0.0
C759 C 0.32169 0.19248 0.75273 0.0
H760 H 0.85909 0.96934 0.42127 0.0
H761 H 0.79078 0.97461 0.4101 0.0
H762 H 0.81878 0.03336 0.49363 0.0
H763 H 0.86344 0.08346 0.58062 0.0
H764 H 0.93082 0.07622 0.58372 0.0
H765 H 0.90279 0.01914 0.49327 0.0
C766 C 0.8502 0.98329 0.43609 0.0
C767 C 0.8226 0.96701 0.40899 0.0
C768 C 0.86651 0.01728 0.48372 0.0
C769 C 0.81183 0.98608 0.42918 0.0
C770 C 0.82794 0.01987 0.47762 0.0
C771 C 0.87201 0.0696 0.55993 0.0
C772 C 0.89956 0.08469 0.59024 0.0
C773 C 0.85544 0.03587 0.50664 0.0
C774 C 0.90992 0.06572 0.5626 0.0
C775 C 0.89381 0.03277 0.51067 0.0
H776 H 1.03052 0.76841 0.71581 0.0
H777 H 1.01525 0.66989 0.66629 0.0
H778 H 0.05921 0.6913 0.6348 0.0
H779 H 0.10022 0.73747 0.6042 0.0
H780 H 0.11413 0.83561 0.64691 0.0
H781 H 0.07264 0.81506 0.69661 0.0
C782 C 0.03691 0.75173 0.698 0.0
C783 C 1.01954 0.71755 0.69036 0.0
C784 C 0.062 0.76421 0.6783 0.0
C785 C 1.02811 0.69618 0.66955 0.0
C786 C 0.05335 0.70851 0.65274 0.0
C787 C 0.09448 0.75452 0.62648 0.0
C788 C 0.11025 0.78803 0.62001 0.0
C789 C 0.07029 0.74242 0.65457 0.0
C790 C 0.1022 0.80957 0.64853 0.0
C791 C 0.07848 0.79787 0.67764 0.0
loop_
_geom_bond_atom_site_label_1
_geom_bond_atom_site_label_2
_geom_bond_distance
_geom_bond_site_symmetry_2
_ccdc_geom_bond_type
Ho0 C3 2.811 . S
Ho0 O20 2.322 . S
Ho0 O22 2.378 . S
Ho0 O23 2.524 . S
Ho0 O24 2.381 1_554 S
Ho0 O25 2.669 1_554 S
Ho0 O27 2.346 . S
Ho0 O31 2.305 . S
Ho1 C12 2.826 . S
Ho1 O21 2.346 . S
Ho1 O25 2.305 1_554 S
Ho1 O26 2.322 . S
Ho1 O28 2.378 1_455 S
Ho1 O29 2.524 1_554 S
Ho1 O30 2.381 . S
Ho1 O31 2.669 . S
C2 O20 1.259 . S
C2 O21 1.268 . S
C3 Ho0 2.811 . S
C3 C4 1.488 . S
C3 O22 1.215 . S
C3 O23 1.289 . S
C4 C3 1.488 . S
C4 C5 1.348 . S
C4 C9 1.413 . S
C5 C4 1.348 . S
C5 C6 1.442 . S
C5 H32 0.930 . S
C6 C5 1.442 . S
C6 C7 1.381 . S
C6 H33 0.931 . S
C7 C6 1.381 . S
C7 C8 1.321 . S
C8 C7 1.321 . S
C8 C9 1.403 . S
C8 H34 0.934 . S
C9 C4 1.413 . S
C9 C8 1.403 . S
C9 H35 0.930 . S
C10 O24 1.275 . S
C10 O25 1.256 . S
C11 O26 1.259 . S
C11 O27 1.268 . S
C12 Ho1 2.826 . S
C12 C13 1.473 1_455 S
C12 O28 1.213 1_455 S
C12 O29 1.307 1_554 S
C13 C12 1.473 1_655 S
C13 C14 1.348 1_654 S
C13 C18 1.413 . S
C14 C13 1.348 1_456 S
C14 C15 1.442 1_455 S
C14 H36 0.930 . S
C15 C14 1.442 1_655 S
C15 C16 1.381 . S
C15 H37 0.927 1_655 S
C16 C15 1.381 . S
C16 C17 1.321 1_556 S
C17 C16 1.321 1_554 S
C17 C18 1.403 . S
C17 H38 0.934 . S
C18 C13 1.413 . S
C18 C17 1.403 . S
C18 H39 0.930 . S
C19 O30 1.275 . S
C19 O31 1.256 . S
O20 Ho0 2.322 . S
O20 C2 1.259 . S
O21 Ho1 2.346 . S
O21 C2 1.268 . S
O22 Ho0 2.378 . S
O22 C3 1.215 . S
O23 Ho0 2.524 . S
O23 C3 1.289 . S
O24 Ho0 2.381 1_556 S
O24 C10 1.275 . S
O25 Ho0 2.669 1_556 S
O25 Ho1 2.305 1_556 S
O25 C10 1.256 . S
O26 Ho1 2.322 . S
O26 C11 1.259 . S
O27 Ho0 2.346 . S
O27 C11 1.268 . S
O28 Ho1 2.378 1_655 S
O28 C12 1.213 1_655 S
O29 Ho1 2.524 1_556 S
O29 C12 1.307 1_556 S
O30 Ho1 2.381 . S
O30 C19 1.275 . S
O31 Ho0 2.305 . S
O31 Ho1 2.669 . S
O31 C19 1.256 . S
H32 C5 0.930 . S
H33 C6 0.931 . S
H34 C8 0.934 . S
H35 C9 0.930 . S
H36 C14 0.930 . S
H37 C15 0.927 1_455 S
H38 C17 0.934 . S
H39 C18 0.930 . S
Ho40 C43 2.811 . S
Ho40 O60 2.322 . S
Ho40 O62 2.378 . S
Ho40 O63 2.524 . S
Ho40 O64 2.381 . S
Ho40 O65 2.669 . S
Ho40 O67 2.346 . S
Ho40 O71 2.305 . S
Ho41 C52 2.811 . S
Ho41 O61 2.346 . S
Ho41 O65 2.305 . S
Ho41 O66 2.322 . S
Ho41 O68 2.378 . S
Ho41 O69 2.524 . S
Ho41 O70 2.381 1_554 S
Ho41 O71 2.669 . S
C42 O60 1.259 . S
C42 O61 1.268 . S
C43 Ho40 2.811 . S
C43 C44 1.488 . S
C43 O62 1.215 . S
C43 O63 1.289 . S
C44 C43 1.488 . S
C44 C45 1.348 . S
C44 C49 1.413 . S
C45 C44 1.348 . S
C45 C46 1.442 . S
C45 H72 0.930 . S
C46 C45 1.442 . S
C46 C47 1.381 . S
C46 H73 0.931 . S
C47 C46 1.381 . S
C47 C48 1.321 . S
C48 C47 1.321 . S
C48 C49 1.403 . S
C48 H74 0.934 . S
C49 C44 1.413 . S
C49 C48 1.403 . S
C49 H75 0.930 . S
C50 O64 1.275 . S
C50 O65 1.256 . S
C51 O66 1.259 . S
C51 O67 1.268 . S
C52 Ho41 2.811 . S
C52 C53 1.488 . S
C52 O68 1.215 . S
C52 O69 1.289 . S
C53 C52 1.488 . S
C53 C54 1.348 . S
C53 C58 1.413 . S
C54 C53 1.348 . S
C54 C55 1.442 . S
C54 H76 0.930 . S
C55 C54 1.442 . S
C55 C56 1.381 . S
C55 H77 0.931 . S
C56 C55 1.381 . S
C56 C57 1.321 . S
C57 C56 1.321 . S
C57 C58 1.403 . S
C57 H78 0.934 . S
C58 C53 1.413 . S
C58 C57 1.403 . S
C58 H79 0.930 . S
C59 O70 1.275 . S
C59 O71 1.256 1_556 S
O60 Ho40 2.322 . S
O60 C42 1.259 . S
O61 Ho41 2.346 . S
O61 C42 1.268 . S
O62 Ho40 2.378 . S
O62 C43 1.215 . S
O63 Ho40 2.524 . S
O63 C43 1.289 . S
O64 Ho40 2.381 . S
O64 C50 1.275 . S
O65 Ho40 2.669 . S
O65 Ho41 2.305 . S
O65 C50 1.256 . S
O66 Ho41 2.322 . S
O66 C51 1.259 . S
O67 Ho40 2.346 . S
O67 C51 1.268 . S
O68 Ho41 2.378 . S
O68 C52 1.215 . S
O69 Ho41 2.524 . S
O69 C52 1.289 . S
O70 Ho41 2.381 1_556 S
O70 C59 1.275 . S
O71 Ho40 2.305 . S
O71 Ho41 2.669 . S
O71 C59 1.256 1_554 S
H72 C45 0.930 . S
H73 C46 0.931 . S
H74 C48 0.934 . S
H75 C49 0.930 . S
H76 C54 0.930 . S
H77 C55 0.931 . S
H78 C57 0.934 . S
H79 C58 0.930 . S
Ho80 C83 2.811 . S
Ho80 O100 2.322 . S
Ho80 O102 2.378 . S
Ho80 O103 2.524 . S
Ho80 O104 2.393 . S
Ho80 O105 2.669 . S
Ho80 O107 2.346 . S
Ho80 O111 2.305 . S
Ho81 C92 2.811 . S
Ho81 O101 2.346 . S
Ho81 O105 2.305 . S
Ho81 O106 2.322 . S
Ho81 O108 2.378 . S
Ho81 O109 2.524 . S
Ho81 O110 2.381 . S
Ho81 O111 2.669 . S
C82 O100 1.259 . S
C82 O101 1.268 . S
C83 Ho80 2.811 . S
C83 C84 1.488 . S
C83 O102 1.215 . S
C83 O103 1.289 . S
C84 C83 1.488 . S
C84 C85 1.348 . S
C84 C89 1.413 . S
C85 C84 1.348 . S
C85 C86 1.442 . S
C85 H112 0.930 . S
C86 C85 1.442 . S
C86 C87 1.381 . S
C86 H113 0.931 . S
C87 C86 1.381 . S
C87 C88 1.321 . S
C88 C87 1.321 . S
C88 C89 1.403 . S
C88 H114 0.934 1_545 S
C89 C84 1.413 . S
C89 C88 1.403 . S
C89 H115 0.930 . S
C90 O104 1.272 . S
C90 O105 1.256 . S
C91 O106 1.259 . S
C91 O107 1.268 . S
C92 Ho81 2.811 . S
C92 C93 1.488 . S
C92 O108 1.215 . S
C92 O109 1.289 . S
C93 C92 1.488 . S
C93 C94 1.348 . S
C93 C98 1.413 . S
C94 C93 1.348 . S
C94 C95 1.442 . S
C94 H116 0.930 . S
C95 C94 1.442 . S
C95 C96 1.381 . S
C95 H117 0.931 . S
C96 C95 1.381 . S
C96 C97 1.321 . S
C97 C96 1.321 . S
C97 C98 1.403 . S
C97 H118 0.934 . S
C98 C93 1.413 . S
C98 C97 1.403 . S
C98 H119 0.930 . S
C99 O110 1.275 . S
C99 O111 1.256 . S
O100 Ho80 2.322 . S
O100 C82 1.259 . S
O101 Ho81 2.346 . S
O101 C82 1.268 . S
O102 Ho80 2.378 . S
O102 C83 1.215 . S
O103 Ho80 2.524 . S
O103 C83 1.289 . S
O104 Ho80 2.393 . S
O104 C90 1.272 . S
O105 Ho80 2.669 . S
O105 Ho81 2.305 . S
O105 C90 1.256 . S
O106 Ho81 2.322 . S
O106 C91 1.259 . S
O107 Ho80 2.346 . S
O107 C91 1.268 . S
O108 Ho81 2.378 . S
O108 C92 1.215 . S
O109 Ho81 2.524 . S
O109 C92 1.289 . S
O110 Ho81 2.381 . S
O110 C99 1.275 . S
O111 Ho80 2.305 . S
O111 Ho81 2.669 . S
O111 C99 1.256 . S
H112 C85 0.930 . S
H113 C86 0.931 . S
H114 C88 0.934 1_565 S
H115 C89 0.930 . S
H116 C94 0.930 . S
H117 C95 0.931 . S
H118 C97 0.934 . S
H119 C98 0.930 . S
Ho120 C123 2.811 . S
Ho120 O140 2.322 . S
Ho120 O142 2.378 . S
Ho120 O143 2.524 . S
Ho120 O144 2.381 . S
Ho120 O145 2.669 . S
Ho120 O147 2.346 . S
Ho120 O151 2.305 . S
Ho121 C132 2.811 . S
Ho121 O141 2.346 . S
Ho121 O145 2.305 . S
Ho121 O146 2.322 . S
Ho121 O148 2.378 . S
Ho121 O149 2.524 . S
Ho121 O150 2.381 . S
Ho121 O151 2.669 . S
C122 O140 1.259 . S
C122 O141 1.268 . S
C123 Ho120 2.811 . S
C123 C124 1.488 . S
C123 O142 1.215 . S
C123 O143 1.289 . S
C124 C123 1.488 . S
C124 C125 1.348 . S
C124 C129 1.413 . S
C125 C124 1.348 . S
C125 C126 1.442 . S
C125 H152 0.930 . S
C126 C125 1.442 . S
C126 C127 1.381 . S
C126 H153 0.931 . S
C127 C126 1.381 . S
C127 C128 1.321 . S
C128 C127 1.321 . S
C128 C129 1.403 . S
C128 H154 0.934 . S
C129 C124 1.413 . S
C129 C128 1.403 . S
C129 H155 0.930 . S
C130 O144 1.275 . S
C130 O145 1.256 . S
C131 O146 1.259 . S
C131 O147 1.268 . S
C132 Ho121 2.811 . S
C132 C133 1.488 . S
C132 O148 1.215 . S
C132 O149 1.289 . S
C133 C132 1.488 . S
C133 C134 1.348 . S
C133 C138 1.413 . S
C134 C133 1.348 . S
C134 C135 1.442 . S
C134 H156 0.930 . S
C135 C134 1.442 . S
C135 C136 1.381 . S
C135 H157 0.931 . S
C136 C135 1.381 . S
C136 C137 1.321 . S
C137 C136 1.321 . S
C137 C138 1.403 . S
C137 H158 0.934 . S
C138 C133 1.413 . S
C138 C137 1.403 . S
C138 H159 0.930 . S
C139 O150 1.275 . S
C139 O151 1.256 . S
O140 Ho120 2.322 . S
O140 C122 1.259 . S
O141 Ho121 2.346 . S
O141 C122 1.268 . S
O142 Ho120 2.378 . S
O142 C123 1.215 . S
O143 Ho120 2.524 . S
O143 C123 1.289 . S
O144 Ho120 2.381 . S
O144 C130 1.275 . S
O145 Ho120 2.669 . S
O145 Ho121 2.305 . S
O145 C130 1.256 . S
O146 Ho121 2.322 . S
O146 C131 1.259 . S
O147 Ho120 2.346 . S
O147 C131 1.268 . S
O148 Ho121 2.378 . S
O148 C132 1.215 . S
O149 Ho121 2.524 . S
O149 C132 1.289 . S
O150 Ho121 2.381 . S
O150 C139 1.275 . S
O151 Ho120 2.305 . S
O151 Ho121 2.669 . S
O151 C139 1.256 . S
H152 C125 0.930 . S
H153 C126 0.931 . S
H154 C128 0.934 . S
H155 C129 0.930 . S
H156 C134 0.930 . S
H157 C135 0.931 . S
H158 C137 0.934 . S
H159 C138 0.930 . S
Ho160 C163 2.811 . S
Ho160 O180 2.322 . S
Ho160 O182 2.378 . S
Ho160 O183 2.524 . S
Ho160 O184 2.381 . S
Ho160 O185 2.669 . S
Ho160 O187 2.346 . S
Ho160 O191 2.305 . S
Ho161 C172 2.811 . S
Ho161 O181 2.346 . S
Ho161 O185 2.305 . S
Ho161 O186 2.322 . S
Ho161 O188 2.378 . S
Ho161 O189 2.524 . S
Ho161 O190 2.381 . S
Ho161 O191 2.669 . S
C162 O180 1.259 . S
C162 O181 1.268 . S
C163 Ho160 2.811 . S
C163 C164 1.488 . S
C163 O182 1.215 . S
C163 O183 1.289 . S
C164 C163 1.488 . S
C164 C165 1.348 . S
C164 C169 1.413 . S
C165 C164 1.348 . S
C165 C166 1.442 . S
C165 H192 0.930 . S
C166 C165 1.442 . S
C166 C167 1.381 . S
C166 H193 0.931 . S
C167 C166 1.381 . S
C167 C168 1.321 . S
C168 C167 1.321 . S
C168 C169 1.403 . S
C168 H194 0.934 . S
C169 C164 1.413 . S
C169 C168 1.403 . S
C169 H195 0.930 . S
C170 O184 1.275 . S
C170 O185 1.256 . S
C171 O186 1.259 . S
C171 O187 1.268 . S
C172 Ho161 2.811 . S
C172 C173 1.488 . S
C172 O188 1.215 . S
C172 O189 1.289 . S
C173 C172 1.488 . S
C173 C174 1.348 . S
C173 C178 1.413 . S
C174 C173 1.348 . S
C174 C175 1.442 . S
C174 H196 0.930 . S
C175 C174 1.442 . S
C175 C176 1.381 . S
C175 H197 0.931 . S
C176 C175 1.381 . S
C176 C177 1.321 . S
C177 C176 1.321 . S
C177 C178 1.403 . S
C177 H198 0.934 . S
C178 C173 1.413 . S
C178 C177 1.403 . S
C178 H199 0.930 . S
C179 O190 1.275 . S
C179 O191 1.256 . S
O180 Ho160 2.322 . S
O180 C162 1.259 . S
O181 Ho161 2.346 . S
O181 C162 1.268 . S
O182 Ho160 2.378 . S
O182 C163 1.215 . S
O183 Ho160 2.524 . S
O183 C163 1.289 . S
O184 Ho160 2.381 . S
O184 C170 1.275 . S
O185 Ho160 2.669 . S
O185 Ho161 2.305 . S
O185 C170 1.256 . S
O186 Ho161 2.322 . S
O186 C171 1.259 . S
O187 Ho160 2.346 . S
O187 C171 1.268 . S
O188 Ho161 2.378 . S
O188 C172 1.215 . S
O189 Ho161 2.524 . S
O189 C172 1.289 . S
O190 Ho161 2.381 . S
O190 C179 1.275 . S
O191 Ho160 2.305 . S
O191 Ho161 2.669 . S
O191 C179 1.256 . S
H192 C165 0.930 . S
H193 C166 0.931 . S
H194 C168 0.934 . S
H195 C169 0.930 . S
H196 C174 0.930 . S
H197 C175 0.931 . S
H198 C177 0.934 . S
H199 C178 0.930 . S
Ho200 C203 2.811 . S
Ho200 O220 2.322 . S
Ho200 O222 2.378 . S
Ho200 O223 2.524 . S
Ho200 O224 2.381 . S
Ho200 O225 2.669 . S
Ho200 O227 2.346 . S
Ho200 O231 2.305 . S
Ho201 C212 2.811 . S
Ho201 O221 2.346 . S
Ho201 O225 2.305 . S
Ho201 O226 2.322 . S
Ho201 O228 2.378 . S
Ho201 O229 2.524 . S
Ho201 O230 2.381 . S
Ho201 O231 2.669 . S
C202 O220 1.259 . S
C202 O221 1.268 . S
C203 Ho200 2.811 . S
C203 C204 1.488 . S
C203 O222 1.215 . S
C203 O223 1.289 . S
C204 C203 1.488 . S
C204 C205 1.348 . S
C204 C209 1.413 . S
C205 C204 1.348 . S
C205 C206 1.442 . S
C205 H232 0.930 . S
C206 C205 1.442 . S
C206 C207 1.381 . S
C206 H233 0.931 . S
C207 C206 1.381 . S
C207 C208 1.321 . S
C208 C207 1.321 . S
C208 C209 1.403 . S
C208 H234 0.934 . S
C209 C204 1.413 . S
C209 C208 1.403 . S
C209 H235 0.930 . S
C210 O224 1.275 . S
C210 O225 1.256 . S
C211 O226 1.259 . S
C211 O227 1.268 . S
C212 Ho201 2.811 . S
C212 C213 1.488 . S
C212 O228 1.215 . S
C212 O229 1.289 . S
C213 C212 1.488 . S
C213 C214 1.348 . S
C213 C218 1.413 . S
C214 C213 1.348 . S
C214 C215 1.442 . S
C214 H236 0.930 . S
C215 C214 1.442 . S
C215 C216 1.381 . S
C215 H237 0.931 . S
C216 C215 1.381 . S
C216 C217 1.321 . S
C217 C216 1.321 . S
C217 C218 1.403 . S
C217 H238 0.934 . S
C218 C213 1.413 . S
C218 C217 1.403 . S
C218 H239 0.930 . S
C219 O230 1.275 . S
C219 O231 1.256 . S
O220 Ho200 2.322 . S
O220 C202 1.259 . S
O221 Ho201 2.346 . S
O221 C202 1.268 . S
O222 Ho200 2.378 . S
O222 C203 1.215 . S
O223 Ho200 2.524 . S
O223 C203 1.289 . S
O224 Ho200 2.381 . S
O224 C210 1.275 . S
O225 Ho200 2.669 . S
O225 Ho201 2.305 . S
O225 C210 1.256 . S
O226 Ho201 2.322 . S
O226 C211 1.259 . S
O227 Ho200 2.346 . S
O227 C211 1.268 . S
O228 Ho201 2.378 . S
O228 C212 1.215 . S
O229 Ho201 2.524 . S
O229 C212 1.289 . S
O230 Ho201 2.381 . S
O230 C219 1.275 . S
O231 Ho200 2.305 . S
O231 Ho201 2.669 . S
O231 C219 1.256 . S
H232 C205 0.930 . S
H233 C206 0.931 . S
H234 C208 0.934 . S
H235 C209 0.930 . S
H236 C214 0.930 . S
H237 C215 0.931 . S
H238 C217 0.934 . S
H239 C218 0.930 . S
Ho240 C243 2.811 . S
Ho240 O260 2.322 . S
Ho240 O262 2.378 . S
Ho240 O263 2.524 . S
Ho240 O264 2.381 . S
Ho240 O265 2.669 . S
Ho240 O267 2.346 . S
Ho240 O271 2.305 . S
Ho241 C252 2.811 . S
Ho241 O261 2.346 . S
Ho241 O265 2.305 . S
Ho241 O266 2.322 . S
Ho241 O268 2.378 . S
Ho241 O269 2.524 . S
Ho241 O270 2.381 . S
Ho241 O271 2.669 . S
C242 O260 1.259 . S
C242 O261 1.268 . S
C243 Ho240 2.811 . S
C243 C244 1.488 . S
C243 O262 1.215 . S
C243 O263 1.289 . S
C244 C243 1.488 . S
C244 C245 1.348 . S
C244 C249 1.413 . S
C245 C244 1.348 . S
C245 C246 1.442 . S
C245 H272 0.930 . S
C246 C245 1.442 . S
C246 C247 1.381 . S
C246 H273 0.931 . S
C247 C246 1.381 . S
C247 C248 1.321 . S
C248 C247 1.321 . S
C248 C249 1.403 . S
C248 H274 0.934 . S
C249 C244 1.413 . S
C249 C248 1.403 . S
C249 H275 0.930 . S
C250 O264 1.275 . S
C250 O265 1.256 . S
C251 O266 1.259 . S
C251 O267 1.268 . S
C252 Ho241 2.811 . S
C252 C253 1.488 1_556 S
C252 O268 1.215 . S
C252 O269 1.289 . S
C253 C252 1.488 1_554 S
C253 C254 1.348 . S
C253 C258 1.413 . S
C254 C253 1.348 . S
C254 C255 1.442 . S
C254 H276 0.930 . S
C255 C254 1.442 . S
C255 C256 1.381 . S
C255 H277 0.931 . S
C256 C255 1.381 . S
C256 C257 1.321 . S
C257 C256 1.321 . S
C257 C258 1.403 . S
C257 H278 0.934 . S
C258 C253 1.413 . S
C258 C257 1.403 . S
C258 H279 0.930 . S
C259 O270 1.275 . S
C259 O271 1.256 . S
O260 Ho240 2.322 . S
O260 C242 1.259 . S
O261 Ho241 2.346 . S
O261 C242 1.268 . S
O262 Ho240 2.378 . S
O262 C243 1.215 . S
O263 Ho240 2.524 . S
O263 C243 1.289 . S
O264 Ho240 2.381 . S
O264 C250 1.275 . S
O265 Ho240 2.669 . S
O265 Ho241 2.305 . S
O265 C250 1.256 . S
O266 Ho241 2.322 . S
O266 C251 1.259 . S
O267 Ho240 2.346 . S
O267 C251 1.268 . S
O268 Ho241 2.378 . S
O268 C252 1.215 . S
O269 Ho241 2.524 . S
O269 C252 1.289 . S
O270 Ho241 2.381 . S
O270 C259 1.275 . S
O271 Ho240 2.305 . S
O271 Ho241 2.669 . S
O271 C259 1.256 . S
H272 C245 0.930 . S
H273 C246 0.931 . S
H274 C248 0.934 . S
H275 C249 0.930 . S
H276 C254 0.930 . S
H277 C255 0.931 . S
H278 C257 0.934 . S
H279 C258 0.930 . S
Ho280 C283 2.811 . S
Ho280 O300 2.322 . S
Ho280 O302 2.378 . S
Ho280 O303 2.524 . S
Ho280 O304 2.381 . S
Ho280 O305 2.669 . S
Ho280 O307 2.346 . S
Ho280 O311 2.305 . S
Ho281 C292 2.811 . S
Ho281 O301 2.346 . S
Ho281 O305 2.305 . S
Ho281 O306 2.322 . S
Ho281 O308 2.378 . S
Ho281 O309 2.524 . S
Ho281 O310 2.381 . S
Ho281 O311 2.669 . S
C282 O300 1.259 . S
C282 O301 1.268 . S
C283 Ho280 2.811 . S
C283 C284 1.488 1_556 S
C283 O302 1.215 . S
C283 O303 1.289 . S
C284 C283 1.488 1_554 S
C284 C285 1.348 . S
C284 C289 1.413 . S
C285 C284 1.348 . S
C285 C286 1.442 . S
C285 H312 0.930 . S
C286 C285 1.442 . S
C286 C287 1.381 . S
C286 H313 0.931 . S
C287 C286 1.381 . S
C287 C288 1.321 . S
C288 C287 1.321 . S
C288 C289 1.403 . S
C288 H314 0.934 . S
C289 C284 1.413 . S
C289 C288 1.403 . S
C289 H315 0.930 . S
C290 O304 1.275 . S
C290 O305 1.256 . S
C291 O306 1.259 . S
C291 O307 1.268 . S
C292 Ho281 2.811 . S
C292 C293 1.488 . S
C292 O308 1.215 . S
C292 O309 1.289 . S
C293 C292 1.488 . S
C293 C294 1.348 . S
C293 C298 1.413 . S
C294 C293 1.348 . S
C294 C295 1.442 . S
C294 H316 0.930 . S
C295 C294 1.442 . S
C295 C296 1.381 . S
C295 H317 0.931 . S
C296 C295 1.381 . S
C296 C297 1.321 . S
C297 C296 1.321 . S
C297 C298 1.403 . S
C297 H318 0.934 . S
C298 C293 1.413 . S
C298 C297 1.403 . S
C298 H319 0.930 . S
C299 O310 1.275 . S
C299 O311 1.256 . S
O300 Ho280 2.322 . S
O300 C282 1.259 . S
O301 Ho281 2.346 . S
O301 C282 1.268 . S
O302 Ho280 2.378 . S
O302 C283 1.215 . S
O303 Ho280 2.524 . S
O303 C283 1.289 . S
O304 Ho280 2.381 . S
O304 C290 1.275 . S
O305 Ho280 2.669 . S
O305 Ho281 2.305 . S
O305 C290 1.256 . S
O306 Ho281 2.322 . S
O306 C291 1.259 . S
O307 Ho280 2.346 . S
O307 C291 1.268 . S
O308 Ho281 2.378 . S
O308 C292 1.215 . S
O309 Ho281 2.524 . S
O309 C292 1.289 . S
O310 Ho281 2.381 . S
O310 C299 1.275 . S
O311 Ho280 2.305 . S
O311 Ho281 2.669 . S
O311 C299 1.256 . S
H312 C285 0.930 . S
H313 C286 0.931 . S
H314 C288 0.934 . S
H315 C289 0.930 . S
H316 C294 0.930 . S
H317 C295 0.931 . S
H318 C297 0.934 . S
H319 C298 0.930 . S
Ho320 C323 2.811 . S
Ho320 O340 2.322 . S
Ho320 O342 2.378 . S
Ho320 O343 2.524 . S
Ho320 O344 2.381 . S
Ho320 O345 2.669 . S
Ho320 O347 2.346 . S
Ho320 O351 2.305 . S
Ho321 C332 2.811 . S
Ho321 O341 2.346 . S
Ho321 O345 2.305 . S
Ho321 O346 2.322 . S
Ho321 O348 2.378 . S
Ho321 O349 2.524 . S
Ho321 O350 2.381 . S
Ho321 O351 2.669 . S
C322 O340 1.259 . S
C322 O341 1.268 . S
C323 Ho320 2.811 . S
C323 C324 1.488 . S
C323 O342 1.215 . S
C323 O343 1.289 . S
C324 C323 1.488 . S
C324 C325 1.348 . S
C324 C329 1.413 . S
C325 C324 1.348 . S
C325 C326 1.442 . S
C325 H352 0.930 . S
C326 C325 1.442 . S
C326 C327 1.381 . S
C326 H353 0.931 . S
C327 C326 1.381 . S
C327 C328 1.321 . S
C328 C327 1.321 . S
C328 C329 1.403 . S
C328 H354 0.934 . S
C329 C324 1.413 . S
C329 C328 1.403 . S
C329 H355 0.930 . S
C330 O344 1.275 . S
C330 O345 1.256 . S
C331 O346 1.259 . S
C331 O347 1.268 . S
C332 Ho321 2.811 . S
C332 C333 1.488 1_556 S
C332 O348 1.215 . S
C332 O349 1.289 . S
C333 C332 1.488 1_554 S
C333 C334 1.348 . S
C333 C338 1.413 . S
C334 C333 1.348 . S
C334 C335 1.442 . S
C334 H356 0.930 . S
C335 C334 1.442 . S
C335 C336 1.381 . S
C335 H357 0.931 . S
C336 C335 1.381 . S
C336 C337 1.321 . S
C337 C336 1.321 . S
C337 C338 1.403 . S
C337 H358 0.934 . S
C338 C333 1.413 . S
C338 C337 1.403 . S
C338 H359 0.930 . S
C339 O350 1.275 . S
C339 O351 1.256 . S
O340 Ho320 2.322 . S
O340 C322 1.259 . S
O341 Ho321 2.346 . S
O341 C322 1.268 . S
O342 Ho320 2.378 . S
O342 C323 1.215 . S
O343 Ho320 2.524 . S
O343 C323 1.289 . S
O344 Ho320 2.381 . S
O344 C330 1.275 . S
O345 Ho320 2.669 . S
O345 Ho321 2.305 . S
O345 C330 1.256 . S
O346 Ho321 2.322 . S
O346 C331 1.259 . S
O347 Ho320 2.346 . S
O347 C331 1.268 . S
O348 Ho321 2.378 . S
O348 C332 1.215 . S
O349 Ho321 2.524 . S
O349 C332 1.289 . S
O350 Ho321 2.381 . S
O350 C339 1.275 . S
O351 Ho320 2.305 . S
O351 Ho321 2.669 . S
O351 C339 1.256 . S
H352 C325 0.930 . S
H353 C326 0.931 . S
H354 C328 0.934 . S
H355 C329 0.930 . S
H356 C334 0.930 . S
H357 C335 0.931 . S
H358 C337 0.934 . S
H359 C338 0.930 . S
H360 C366 0.930 . S
H361 C369 0.930 . S
H362 C370 0.930 1_655 S
H363 C371 0.930 . S
H364 C374 0.930 . S
H365 C375 0.930 . S
C366 H360 0.930 . S
C366 C367 1.355 . S
C366 C368 1.415 . S
C367 C366 1.355 . S
C367 C369 1.419 . S
C368 C366 1.415 . S
C368 C373 1.425 . S
C368 C375 1.409 . S
C369 H361 0.930 . S
C369 C367 1.419 . S
C369 C370 1.362 . S
C370 H362 0.930 1_455 S
C370 C369 1.362 . S
C370 C373 1.409 . S
C371 H363 0.930 . S
C371 C372 1.355 . S
C371 C373 1.415 . S
C372 C371 1.355 . S
C372 C374 1.419 . S
C373 C368 1.425 . S
C373 C370 1.409 . S
C373 C371 1.415 . S
C374 H364 0.930 . S
C374 C372 1.419 . S
C374 C375 1.362 . S
C375 H365 0.930 . S
C375 C368 1.409 . S
C375 C374 1.362 . S
H376 C382 0.930 . S
H377 C385 0.930 . S
H378 C386 0.930 . S
H379 C387 0.930 . S
H380 C390 0.930 . S
H381 C391 0.930 . S
C382 H376 0.930 . S
C382 C383 1.355 . S
C382 C384 1.415 . S
C383 C382 1.355 . S
C383 C385 1.419 . S
C384 C382 1.415 . S
C384 C389 1.425 . S
C384 C391 1.409 . S
C385 H377 0.930 . S
C385 C383 1.419 . S
C385 C386 1.362 . S
C386 H378 0.930 . S
C386 C385 1.362 . S
C386 C389 1.409 . S
C387 H379 0.930 . S
C387 C388 1.355 . S
C387 C389 1.415 . S
C388 C387 1.355 . S
C388 C390 1.419 . S
C389 C384 1.425 . S
C389 C386 1.409 . S
C389 C387 1.415 . S
C390 H380 0.930 . S
C390 C388 1.419 . S
C390 C391 1.362 . S
C391 H381 0.930 . S
C391 C384 1.409 . S
C391 C390 1.362 . S
H392 C398 0.930 . S
H393 C401 0.930 . S
H394 C402 0.930 . S
H395 C403 0.930 . S
H396 C406 0.930 . S
H397 C407 0.930 . S
C398 H392 0.930 . S
C398 C399 1.355 . S
C398 C400 1.415 . S
C399 C398 1.355 . S
C399 C401 1.419 . S
C400 C398 1.415 . S
C400 C405 1.425 . S
C400 C407 1.409 . S
C401 H393 0.930 . S
C401 C399 1.419 . S
C401 C402 1.362 . S
C402 H394 0.930 . S
C402 C401 1.362 . S
C402 C405 1.409 . S
C403 H395 0.930 . S
C403 C404 1.355 . S
C403 C405 1.415 . S
C404 C403 1.355 . S
C404 C406 1.419 . S
C405 C400 1.425 . S
C405 C402 1.409 . S
C405 C403 1.415 . S
C406 H396 0.930 . S
C406 C404 1.419 . S
C406 C407 1.362 . S
C407 H397 0.930 . S
C407 C400 1.409 . S
C407 C406 1.362 . S
H408 C414 0.930 . S
H409 C417 0.930 . S
H410 C418 0.930 . S
H411 C419 0.930 . S
H412 C422 0.930 . S
H413 C423 0.930 . S
C414 H408 0.930 . S
C414 C415 1.355 . S
C414 C416 1.415 . S
C415 C414 1.355 . S
C415 C417 1.419 . S
C416 C414 1.415 . S
C416 C421 1.425 . S
C416 C423 1.409 . S
C417 H409 0.930 . S
C417 C415 1.419 . S
C417 C418 1.362 . S
C418 H410 0.930 . S
C418 C417 1.362 . S
C418 C421 1.409 . S
C419 H411 0.930 . S
C419 C420 1.355 . S
C419 C421 1.415 . S
C420 C419 1.355 . S
C420 C422 1.419 . S
C421 C416 1.425 . S
C421 C418 1.409 . S
C421 C419 1.415 . S
C422 H412 0.930 . S
C422 C420 1.419 . S
C422 C423 1.362 . S
C423 H413 0.930 . S
C423 C416 1.409 . S
C423 C422 1.362 . S
H424 C430 0.930 . S
H425 C433 0.930 . S
H426 C434 0.930 . S
H427 C435 0.930 . S
H428 C438 0.930 . S
H429 C439 0.930 . S
C430 H424 0.930 . S
C430 C431 1.355 . S
C430 C432 1.415 . S
C431 C430 1.355 . S
C431 C433 1.419 . S
C432 C430 1.415 . S
C432 C437 1.425 . S
C432 C439 1.409 . S
C433 H425 0.930 . S
C433 C431 1.419 . S
C433 C434 1.362 . S
C434 H426 0.930 . S
C434 C433 1.362 . S
C434 C437 1.409 . S
C435 H427 0.930 . S
C435 C436 1.355 . S
C435 C437 1.415 . S
C436 C435 1.355 . S
C436 C438 1.419 . S
C437 C432 1.425 . S
C437 C434 1.409 . S
C437 C435 1.415 . S
C438 H428 0.930 . S
C438 C436 1.419 . S
C438 C439 1.362 . S
C439 H429 0.930 . S
C439 C432 1.409 . S
C439 C438 1.362 . S
H440 C446 0.930 . S
H441 C449 0.930 . S
H442 C450 0.930 . S
H443 C451 0.930 . S
H444 C454 0.930 . S
H445 C455 0.930 . S
C446 H440 0.930 . S
C446 C447 1.355 . S
C446 C448 1.415 . S
C447 C446 1.355 . S
C447 C449 1.419 . S
C448 C446 1.415 . S
C448 C453 1.425 . S
C448 C455 1.409 . S
C449 H441 0.930 . S
C449 C447 1.419 . S
C449 C450 1.362 . S
C450 H442 0.930 . S
C450 C449 1.362 . S
C450 C453 1.409 . S
C451 H443 0.930 . S
C451 C452 1.355 . S
C451 C453 1.415 . S
C452 C451 1.355 . S
C452 C454 1.419 . S
C453 C448 1.425 . S
C453 C450 1.409 . S
C453 C451 1.415 . S
C454 H444 0.930 . S
C454 C452 1.419 . S
C454 C455 1.362 . S
C455 H445 0.930 . S
C455 C448 1.409 . S
C455 C454 1.362 . S
H456 C462 0.930 . S
H457 C465 0.930 . S
H458 C466 0.930 . S
H459 C467 0.930 . S
H460 C470 0.930 . S
H461 C471 0.930 . S
C462 H456 0.930 . S
C462 C463 1.355 . S
C462 C464 1.415 . S
C463 C462 1.355 . S
C463 C465 1.419 . S
C464 C462 1.415 . S
C464 C469 1.425 . S
C464 C471 1.409 . S
C465 H457 0.930 . S
C465 C463 1.419 . S
C465 C466 1.362 . S
C466 H458 0.930 . S
C466 C465 1.362 . S
C466 C469 1.409 . S
C467 H459 0.930 . S
C467 C468 1.355 . S
C467 C469 1.415 . S
C468 C467 1.355 . S
C468 C470 1.419 . S
C469 C464 1.425 . S
C469 C466 1.409 . S
C469 C467 1.415 . S
C470 H460 0.930 . S
C470 C468 1.419 . S
C470 C471 1.362 . S
C471 H461 0.930 . S
C471 C464 1.409 . S
C471 C470 1.362 . S
H472 C478 0.930 . S
H473 C481 0.930 . S
H474 C482 0.930 . S
H475 C483 0.930 . S
H476 C486 0.930 . S
H477 C487 0.930 . S
C478 H472 0.930 . S
C478 C479 1.355 . S
C478 C480 1.415 . S
C479 C478 1.355 . S
C479 C481 1.419 . S
C480 C478 1.415 . S
C480 C485 1.425 . S
C480 C487 1.409 . S
C481 H473 0.930 . S
C481 C479 1.419 . S
C481 C482 1.362 . S
C482 H474 0.930 . S
C482 C481 1.362 . S
C482 C485 1.409 . S
C483 H475 0.930 . S
C483 C484 1.355 . S
C483 C485 1.415 . S
C484 C483 1.355 . S
C484 C486 1.419 . S
C485 C480 1.425 . S
C485 C482 1.409 . S
C485 C483 1.415 . S
C486 H476 0.930 . S
C486 C484 1.419 . S
C486 C487 1.362 . S
C487 H477 0.930 . S
C487 C480 1.409 . S
C487 C486 1.362 . S
H488 C494 0.930 . S
H489 C497 0.930 . S
H490 C498 0.930 . S
H491 C499 0.930 . S
H492 C502 0.930 . S
H493 C503 0.930 . S
C494 H488 0.930 . S
C494 C495 1.355 . S
C494 C496 1.415 . S
C495 C494 1.355 . S
C495 C497 1.419 . S
C496 C494 1.415 . S
C496 C501 1.425 . S
C496 C503 1.409 . S
C497 H489 0.930 . S
C497 C495 1.419 . S
C497 C498 1.362 . S
C498 H490 0.930 . S
C498 C497 1.362 . S
C498 C501 1.409 . S
C499 H491 0.930 . S
C499 C500 1.355 . S
C499 C501 1.415 . S
C500 C499 1.355 . S
C500 C502 1.419 . S
C501 C496 1.425 . S
C501 C498 1.409 . S
C501 C499 1.415 . S
C502 H492 0.930 . S
C502 C500 1.419 . S
C502 C503 1.362 . S
C503 H493 0.930 . S
C503 C496 1.409 . S
C503 C502 1.362 . S
H504 C510 0.930 . S
H505 C513 0.930 . S
H506 C514 0.930 . S
H507 C515 0.930 . S
H508 C518 0.930 . S
H509 C519 0.930 . S
C510 H504 0.930 . S
C510 C511 1.355 . S
C510 C512 1.415 . S
C511 C510 1.355 . S
C511 C513 1.419 . S
C512 C510 1.415 . S
C512 C517 1.425 . S
C512 C519 1.409 . S
C513 H505 0.930 . S
C513 C511 1.419 . S
C513 C514 1.362 . S
C514 H506 0.930 . S
C514 C513 1.362 . S
C514 C517 1.409 . S
C515 H507 0.930 . S
C515 C516 1.355 . S
C515 C517 1.415 . S
C516 C515 1.355 . S
C516 C518 1.419 . S
C517 C512 1.425 . S
C517 C514 1.409 . S
C517 C515 1.415 . S
C518 H508 0.930 . S
C518 C516 1.419 . S
C518 C519 1.362 . S
C519 H509 0.930 . S
C519 C512 1.409 . S
C519 C518 1.362 . S
H520 C526 0.930 . S
H521 C529 0.930 . S
H522 C530 0.930 . S
H523 C531 0.930 . S
H524 C534 0.930 . S
H525 C535 0.930 . S
C526 H520 0.930 . S
C526 C527 1.355 . S
C526 C528 1.415 . S
C527 C526 1.355 . S
C527 C529 1.419 . S
C528 C526 1.415 . S
C528 C533 1.425 . S
C528 C535 1.409 . S
C529 H521 0.930 . S
C529 C527 1.419 . S
C529 C530 1.362 . S
C530 H522 0.930 . S
C530 C529 1.362 . S
C530 C533 1.409 . S
C531 H523 0.930 . S
C531 C532 1.355 . S
C531 C533 1.415 . S
C532 C531 1.355 . S
C532 C534 1.419 . S
C533 C528 1.425 . S
C533 C530 1.409 . S
C533 C531 1.415 . S
C534 H524 0.930 . S
C534 C532 1.419 . S
C534 C535 1.362 . S
C535 H525 0.930 . S
C535 C528 1.409 . S
C535 C534 1.362 . S
H536 C542 0.930 . S
H537 C545 0.930 . S
H538 C546 0.930 . S
H539 C547 0.930 . S
H540 C550 0.930 . S
H541 C551 0.930 1_545 S
C542 H536 0.930 . S
C542 C543 1.355 . S
C542 C544 1.415 1_545 S
C543 C542 1.355 . S
C543 C545 1.419 1_545 S
C544 C542 1.415 1_565 S
C544 C549 1.425 . S
C544 C551 1.409 . S
C545 H537 0.930 . S
C545 C543 1.419 1_565 S
C545 C546 1.362 . S
C546 H538 0.930 . S
C546 C545 1.362 . S
C546 C549 1.409 . S
C547 H539 0.930 . S
C547 C548 1.355 . S
C547 C549 1.415 . S
C548 C547 1.355 . S
C548 C550 1.419 . S
C549 C544 1.425 . S
C549 C546 1.409 . S
C549 C547 1.415 . S
C550 H540 0.930 . S
C550 C548 1.419 . S
C550 C551 1.362 . S
C551 H541 0.930 1_565 S
C551 C544 1.409 . S
C551 C550 1.362 . S
H552 C558 0.930 . S
H553 C561 0.930 . S
H554 C562 0.930 . S
H555 C563 0.930 . S
H556 C566 0.930 . S
H557 C567 0.930 . S
C558 H552 0.930 . S
C558 C559 1.355 1_556 S
C558 C560 1.415 . S
C559 C558 1.355 1_554 S
C559 C561 1.419 . S
C560 C558 1.415 . S
C560 C565 1.417 1_556 S
C560 C567 1.409 . S
C561 H553 0.930 . S
C561 C559 1.419 . S
C561 C562 1.362 . S
C562 H554 0.930 . S
C562 C561 1.362 . S
C562 C565 1.421 . S
C563 H555 0.930 . S
C563 C564 1.355 . S
C563 C565 1.411 1_556 S
C564 C563 1.355 . S
C564 C566 1.419 . S
C565 C560 1.417 1_554 S
C565 C562 1.421 . S
C565 C563 1.411 1_554 S
C566 H556 0.930 . S
C566 C564 1.419 . S
C566 C567 1.362 . S
C567 H557 0.930 . S
C567 C560 1.409 . S
C567 C566 1.362 . S
H568 C574 0.930 . S
H569 C577 0.930 . S
H570 C578 0.938 . S
H571 C579 0.930 1_455 S
H572 C582 0.930 . S
H573 C583 0.930 . S
C574 H568 0.930 . S
C574 C575 1.355 . S
C574 C576 1.415 . S
C575 C574 1.355 . S
C575 C577 1.419 . S
C576 C574 1.415 . S
C576 C581 1.425 . S
C576 C583 1.409 . S
C577 H569 0.930 . S
C577 C575 1.419 . S
C577 C578 1.362 . S
C578 H570 0.938 . S
C578 C577 1.362 . S
C578 C581 1.409 . S
C579 H571 0.930 1_655 S
C579 C580 1.355 1_654 S
C579 C581 1.415 1_554 S
C580 C579 1.355 1_456 S
C580 C582 1.419 . S
C581 C576 1.425 . S
C581 C578 1.409 . S
C581 C579 1.415 1_556 S
C582 H572 0.930 . S
C582 C580 1.419 . S
C582 C583 1.362 1_455 S
C583 H573 0.930 . S
C583 C576 1.409 . S
C583 C582 1.362 1_655 S
H584 C590 0.930 . S
H585 C593 0.930 . S
H586 C594 0.930 . S
H587 C595 0.930 1_556 S
H588 C598 0.930 . S
H589 C599 0.930 . S
C590 H584 0.930 . S
C590 C591 1.355 . S
C590 C592 1.415 . S
C591 C590 1.355 . S
C591 C593 1.419 . S
C592 C590 1.415 . S
C592 C597 1.425 . S
C592 C599 1.409 1_556 S
C593 H585 0.930 . S
C593 C591 1.419 . S
C593 C594 1.362 . S
C594 H586 0.930 . S
C594 C593 1.362 . S
C594 C597 1.409 . S
C595 H587 0.930 1_554 S
C595 C596 1.355 . S
C595 C597 1.415 1_554 S
C596 C595 1.355 . S
C596 C598 1.419 . S
C597 C592 1.425 . S
C597 C594 1.409 . S
C597 C595 1.415 1_556 S
C598 H588 0.930 . S
C598 C596 1.419 . S
C598 C599 1.362 . S
C599 H589 0.930 . S
C599 C592 1.409 1_554 S
C599 C598 1.362 . S
H600 C606 0.930 . S
H601 C609 0.930 . S
H602 C610 0.930 . S
H603 C611 0.900 1_455 S
H604 C614 0.923 1_554 S
H605 C615 0.930 . S
C606 H600 0.930 . S
C606 C607 1.355 . S
C606 C608 1.415 . S
C607 C606 1.355 . S
C607 C609 1.419 . S
C608 C606 1.415 . S
C608 C613 1.425 . S
C608 C615 1.409 . S
C609 H601 0.930 . S
C609 C607 1.419 . S
C609 C610 1.362 . S
C610 H602 0.930 . S
C610 C609 1.362 . S
C610 C613 1.409 . S
C611 H603 0.900 1_655 S
C611 C612 1.355 . S
C611 C613 1.415 . S
C612 C611 1.355 . S
C612 C614 1.419 . S
C613 C608 1.425 . S
C613 C610 1.409 . S
C613 C611 1.415 . S
C614 H604 0.923 1_556 S
C614 C612 1.419 . S
C614 C615 1.362 . S
C615 H605 0.930 . S
C615 C608 1.409 . S
C615 C614 1.362 . S
H616 C622 0.930 . S
H617 C625 0.930 . S
H618 C626 0.930 . S
H619 C627 0.930 . S
H620 C630 0.930 . S
H621 C631 0.930 . S
C622 H616 0.930 . S
C622 C623 1.355 . S
C622 C624 1.415 1_554 S
C623 C622 1.355 . S
C623 C625 1.419 1_554 S
C624 C622 1.415 1_556 S
C624 C629 1.425 . S
C624 C631 1.409 . S
C625 H617 0.930 . S
C625 C623 1.419 1_556 S
C625 C626 1.362 . S
C626 H618 0.930 . S
C626 C625 1.362 . S
C626 C629 1.409 . S
C627 H619 0.930 . S
C627 C628 1.355 . S
C627 C629 1.415 . S
C628 C627 1.355 . S
C628 C630 1.419 . S
C629 C624 1.425 . S
C629 C626 1.409 . S
C629 C627 1.415 . S
C630 H620 0.930 . S
C630 C628 1.419 . S
C630 C631 1.362 . S
C631 H621 0.930 . S
C631 C624 1.409 . S
C631 C630 1.362 . S
H632 C638 0.930 . S
H633 C641 0.930 . S
H634 C642 0.930 . S
H635 C643 0.930 . S
H636 C646 0.930 . S
H637 C647 0.930 1_556 S
C638 H632 0.930 . S
C638 C639 1.355 . S
C638 C640 1.415 . S
C639 C638 1.355 . S
C639 C641 1.419 . S
C640 C638 1.415 . S
C640 C645 1.425 . S
C640 C647 1.409 1_556 S
C641 H633 0.930 . S
C641 C639 1.419 . S
C641 C642 1.362 . S
C642 H634 0.930 . S
C642 C641 1.362 . S
C642 C645 1.409 . S
C643 H635 0.930 . S
C643 C644 1.355 . S
C643 C645 1.415 1_554 S
C644 C643 1.355 . S
C644 C646 1.419 . S
C645 C640 1.425 . S
C645 C642 1.409 . S
C645 C643 1.415 1_556 S
C646 H636 0.930 . S
C646 C644 1.419 . S
C646 C647 1.362 . S
C647 H637 0.930 1_554 S
C647 C640 1.409 1_554 S
C647 C646 1.362 . S
H648 C654 0.930 . S
H649 C657 0.930 . S
H650 C658 0.930 . S
H651 C659 0.930 . S
H652 C662 0.930 . S
H653 C663 0.930 . S
C654 H648 0.930 . S
C654 C655 1.355 . S
C654 C656 1.415 . S
C655 C654 1.355 . S
C655 C657 1.419 . S
C656 C654 1.415 . S
C656 C661 1.425 . S
C656 C663 1.409 . S
C657 H649 0.930 . S
C657 C655 1.419 . S
C657 C658 1.362 . S
C658 H650 0.930 . S
C658 C657 1.362 . S
C658 C661 1.409 . S
C659 H651 0.930 . S
C659 C660 1.355 . S
C659 C661 1.415 . S
C660 C659 1.355 . S
C660 C662 1.419 1_545 S
C661 C656 1.425 . S
C661 C658 1.409 . S
C661 C659 1.415 . S
C662 H652 0.930 . S
C662 C660 1.419 1_565 S
C662 C663 1.362 1_565 S
C663 H653 0.930 . S
C663 C656 1.409 . S
C663 C662 1.362 1_545 S
H664 C670 0.930 . S
H665 C673 0.930 . S
H666 C674 0.930 . S
H667 C675 0.930 . S
H668 C678 0.930 . S
H669 C679 0.930 . S
C670 H664 0.930 . S
C670 C671 1.355 . S
C670 C672 1.415 . S
C671 C670 1.355 . S
C671 C673 1.419 . S
C672 C670 1.415 . S
C672 C677 1.425 . S
C672 C679 1.409 . S
C673 H665 0.930 . S
C673 C671 1.419 . S
C673 C674 1.362 . S
C674 H666 0.930 . S
C674 C673 1.362 . S
C674 C677 1.409 . S
C675 H667 0.930 . S
C675 C676 1.355 . S
C675 C677 1.415 . S
C676 C675 1.355 . S
C676 C678 1.419 . S
C677 C672 1.425 . S
C677 C674 1.409 . S
C677 C675 1.415 . S
C678 H668 0.930 . S
C678 C676 1.419 . S
C678 C679 1.362 . S
C679 H669 0.930 . S
C679 C672 1.409 . S
C679 C678 1.362 . S
H680 C686 0.930 . S
H681 C689 0.930 . S
H682 C690 0.930 . S
H683 C691 0.930 . S
H684 C694 0.930 . S
H685 C695 0.930 . S
C686 H680 0.930 . S
C686 C687 1.355 . S
C686 C688 1.415 . S
C687 C686 1.355 . S
C687 C689 1.419 . S
C688 C686 1.415 . S
C688 C693 1.425 . S
C688 C695 1.409 . S
C689 H681 0.930 . S
C689 C687 1.419 . S
C689 C690 1.362 . S
C690 H682 0.930 . S
C690 C689 1.362 . S
C690 C693 1.409 . S
C691 H683 0.930 . S
C691 C692 1.355 . S
C691 C693 1.415 . S
C692 C691 1.355 . S
C692 C694 1.419 . S
C693 C688 1.425 . S
C693 C690 1.409 . S
C693 C691 1.415 . S
C694 H684 0.930 . S
C694 C692 1.419 . S
C694 C695 1.362 . S
C695 H685 0.930 . S
C695 C688 1.409 . S
C695 C694 1.362 . S
H696 C702 0.930 . S
H697 C705 0.930 . S
H698 C706 0.930 . S
H699 C707 0.930 . S
H700 C710 0.930 . S
H701 C711 0.930 . S
C702 H696 0.930 . S
C702 C703 1.355 . S
C702 C704 1.415 . S
C703 C702 1.355 . S
C703 C705 1.419 . S
C704 C702 1.415 . S
C704 C709 1.425 . S
C704 C711 1.409 . S
C705 H697 0.930 . S
C705 C703 1.419 . S
C705 C706 1.362 . S
C706 H698 0.930 . S
C706 C705 1.362 . S
C706 C709 1.409 . S
C707 H699 0.930 . S
C707 C708 1.355 . S
C707 C709 1.415 . S
C708 C707 1.355 . S
C708 C710 1.419 . S
C709 C704 1.425 . S
C709 C706 1.409 . S
C709 C707 1.415 . S
C710 H700 0.930 . S
C710 C708 1.419 . S
C710 C711 1.362 . S
C711 H701 0.930 . S
C711 C704 1.409 . S
C711 C710 1.362 . S
H712 C718 0.930 . S
H713 C721 0.930 . S
H714 C722 0.930 1_565 S
H715 C723 0.930 . S
H716 C726 0.930 . S
H717 C727 0.930 . S
C718 H712 0.930 . S
C718 C719 1.355 . S
C718 C720 1.415 . S
C719 C718 1.355 . S
C719 C721 1.419 . S
C720 C718 1.415 . S
C720 C725 1.425 1_545 S
C720 C727 1.409 . S
C721 H713 0.930 . S
C721 C719 1.419 . S
C721 C722 1.362 . S
C722 H714 0.930 1_545 S
C722 C721 1.362 . S
C722 C725 1.409 1_545 S
C723 H715 0.930 . S
C723 C724 1.355 . S
C723 C725 1.415 . S
C724 C723 1.355 . S
C724 C726 1.419 . S
C725 C720 1.425 1_565 S
C725 C722 1.409 1_565 S
C725 C723 1.415 . S
C726 H716 0.930 . S
C726 C724 1.419 . S
C726 C727 1.362 1_565 S
C727 H717 0.930 . S
C727 C720 1.409 . S
C727 C726 1.362 1_545 S
H728 C734 0.930 . S
H729 C737 0.930 . S
H730 C738 0.930 . S
H731 C739 0.930 . S
H732 C742 0.930 . S
H733 C743 0.930 . S
C734 H728 0.930 . S
C734 C735 1.355 1_455 S
C734 C736 1.415 . S
C735 C734 1.355 1_655 S
C735 C737 1.419 . S
C736 C734 1.415 . S
C736 C741 1.425 1_455 S
C736 C743 1.409 . S
C737 H729 0.930 . S
C737 C735 1.419 . S
C737 C738 1.362 . S
C738 H730 0.930 . S
C738 C737 1.362 . S
C738 C741 1.409 . S
C739 H731 0.930 . S
C739 C740 1.355 1_655 S
C739 C741 1.415 . S
C740 C739 1.355 1_455 S
C740 C742 1.419 . S
C741 C736 1.425 1_655 S
C741 C738 1.409 . S
C741 C739 1.415 . S
C742 H732 0.930 . S
C742 C740 1.419 . S
C742 C743 1.362 . S
C743 H733 0.930 . S
C743 C736 1.409 . S
C743 C742 1.362 . S
H744 C750 0.930 . S
H745 C753 0.930 . S
H746 C754 0.930 . S
H747 C755 0.930 . S
H748 C758 0.930 . S
H749 C759 0.930 . S
C750 H744 0.930 . S
C750 C751 1.355 . S
C750 C752 1.415 . S
C751 C750 1.355 . S
C751 C753 1.419 . S
C752 C750 1.415 . S
C752 C757 1.425 . S
C752 C759 1.409 . S
C753 H745 0.930 . S
C753 C751 1.419 . S
C753 C754 1.362 . S
C754 H746 0.930 . S
C754 C753 1.362 . S
C754 C757 1.409 . S
C755 H747 0.930 . S
C755 C756 1.355 . S
C755 C757 1.415 . S
C756 C755 1.355 . S
C756 C758 1.419 . S
C757 C752 1.425 . S
C757 C754 1.409 . S
C757 C755 1.415 . S
C758 H748 0.930 . S
C758 C756 1.419 . S
C758 C759 1.362 . S
C759 H749 0.930 . S
C759 C752 1.409 . S
C759 C758 1.362 . S
H760 C766 0.930 . S
H761 C769 0.930 . S
H762 C770 0.930 . S
H763 C771 0.930 . S
H764 C774 0.930 . S
H765 C775 0.930 . S
C766 H760 0.930 . S
C766 C767 1.355 . S
C766 C768 1.415 1_565 S
C767 C766 1.355 . S
C767 C769 1.419 . S
C768 C766 1.415 1_545 S
C768 C773 1.425 . S
C768 C775 1.409 . S
C769 H761 0.930 . S
C769 C767 1.419 . S
C769 C770 1.362 1_565 S
C770 H762 0.930 . S
C770 C769 1.362 1_545 S
C770 C773 1.409 . S
C771 H763 0.930 . S
C771 C772 1.355 . S
C771 C773 1.415 . S
C772 C771 1.355 . S
C772 C774 1.419 . S
C773 C768 1.425 . S
C773 C770 1.409 . S
C773 C771 1.415 . S
C774 H764 0.930 . S
C774 C772 1.419 . S
C774 C775 1.362 . S
C775 H765 0.930 . S
C775 C768 1.409 . S
C775 C774 1.362 . S
H776 C782 0.930 . S
H777 C785 0.930 . S
H778 C786 0.930 . S
H779 C787 0.930 . S
H780 C790 0.930 . S
H781 C791 0.930 . S
C782 H776 0.930 . S
C782 C783 1.355 . S
C782 C784 1.415 . S
C783 C782 1.355 . S
C783 C785 1.419 1_655 S
C784 C782 1.415 . S
C784 C789 1.425 1_655 S
C784 C791 1.409 . S
C785 H777 0.930 . S
C785 C783 1.419 1_455 S
C785 C786 1.362 . S
C786 H778 0.930 . S
C786 C785 1.362 . S
C786 C789 1.409 . S
C787 H779 0.930 . S
C787 C788 1.355 . S
C787 C789 1.415 . S
C788 C787 1.355 . S
C788 C790 1.419 1_455 S
C789 C784 1.425 1_455 S
C789 C786 1.409 . S
C789 C787 1.415 . S
C790 H780 0.930 . S
C790 C788 1.419 1_655 S
C790 C791 1.362 . S
C791 H781 0.930 . S
C791 C784 1.409 . S
C791 C790 1.362 . S
C367 C10 3.476 . S
C372 C19 3.476 . S
C383 C59 3.547 . S
C388 C50 3.547 . S
C399 C90 3.586 1_556 S
C404 C99 3.586 . S
C415 C139 3.459 . S
C420 C130 3.459 1_556 S
C431 C170 3.555 . S
C436 C179 3.555 1_556 S
C447 C219 3.598 . S
C452 C210 3.598 1_556 S
C463 C247 1.625 . S
C468 C256 1.625 . S
C479 C296 1.959 . S
C484 C287 1.959 . S
C495 C327 1.125 . S
C500 C336 1.125 . S
C511 C202 1.667 . S
C516 C7 1.699 . S
C527 C42 2.702 . S
C532 C122 2.744 . S
C543 C87 1.228 . S
C548 C167 1.240 . S
C559 C82 3.034 . S
C564 C251 3.176 . S
C575 C299 1.267 . S
C580 C2 1.131 1_556 S
C591 C331 2.079 . S
C596 C47 1.932 . S
C607 C330 0.957 . S
C612 C16 0.907 . S
C623 C51 2.266 . S
C628 C250 2.358 . S
C639 C282 3.016 . S
C644 C96 2.800 . S
C655 C91 1.694 . S
C660 C136 1.698 1_545 S
C671 C171 2.726 . S
C676 C11 2.745 . S
C687 C56 1.206 . S
C692 C216 1.207 . S
C703 C339 0.966 . S
C708 C127 0.982 . S
C719 C259 2.328 . S
C724 C162 2.286 . S
C735 C291 3.010 . S
C740 C207 2.782 . S
C751 C242 3.184 . S
C756 C211 2.990 . S
C767 C131 1.190 . S
C772 C290 1.239 . S
C783 C322 2.055 . S
C788 C176 1.936 . S
