# Generated by pormake.
# Topology ukm, (4)-cn, num edge types: 1
# Building blocks:
#     Node 0, Type 0, BuildingBlock: QUQFOY_clean_sbu_3, # of connection points: 4
#     Node 1, Type 0, BuildingBlock: QUQFOY_clean_sbu_3, # of connection points: 4
#     Node 2, Type 0, BuildingBlock: QUQFOY_clean_sbu_3, # of connection points: 4
#     Node 3, Type 0, BuildingBlock: QUQFOY_clean_sbu_3, # of connection points: 4
#     Node 4, Type 0, BuildingBlock: QUQFOY_clean_sbu_3, # of connection points: 4
#     Node 5, Type 0, BuildingBlock: QUQFOY_clean_sbu_3, # of connection points: 4
#     Node 6, Type 0, BuildingBlock: QUQFOY_clean_sbu_3, # of connection points: 4
#     Node 7, Type 0, BuildingBlock: QUQFOY_clean_sbu_3, # of connection points: 4
#     Node 8, Type 0, BuildingBlock: QUQFOY_clean_sbu_3, # of connection points: 4
#     Node 9, Type 0, BuildingBlock: QUQFOY_clean_sbu_3, # of connection points: 4
#     Node 10, Type 0, BuildingBlock: QUQFOY_clean_sbu_3, # of connection points: 4
#     Node 11, Type 0, BuildingBlock: QUQFOY_clean_sbu_3, # of connection points: 4
#     Node 12, Type 0, BuildingBlock: QUQFOY_clean_sbu_3, # of connection points: 4
#     Node 13, Type 0, BuildingBlock: QUQFOY_clean_sbu_3, # of connection points: 4
#     Node 14, Type 0, BuildingBlock: QUQFOY_clean_sbu_3, # of connection points: 4
#     Node 15, Type 0, BuildingBlock: QUQFOY_clean_sbu_3, # of connection points: 4
#     Node 16, Type 0, BuildingBlock: QUQFOY_clean_sbu_3, # of connection points: 4
#     Node 17, Type 0, BuildingBlock: QUQFOY_clean_sbu_3, # of connection points: 4
#     Node 18, Type 0, BuildingBlock: QUQFOY_clean_sbu_3, # of connection points: 4
#     Node 19, Type 0, BuildingBlock: QUQFOY_clean_sbu_3, # of connection points: 4
#     Node 20, Type 0, BuildingBlock: QUQFOY_clean_sbu_3, # of connection points: 4
#     Node 21, Type 0, BuildingBlock: QUQFOY_clean_sbu_3, # of connection points: 4
#     Node 22, Type 0, BuildingBlock: QUQFOY_clean_sbu_3, # of connection points: 4
#     Node 23, Type 0, BuildingBlock: QUQFOY_clean_sbu_3, # of connection points: 4
#     Node 24, Type 0, BuildingBlock: QUQFOY_clean_sbu_3, # of connection points: 4
#     Node 25, Type 0, BuildingBlock: QUQFOY_clean_sbu_3, # of connection points: 4
#     Node 26, Type 0, BuildingBlock: QUQFOY_clean_sbu_3, # of connection points: 4
#     Node 27, Type 0, BuildingBlock: QUQFOY_clean_sbu_3, # of connection points: 4
#     Node 28, Type 0, BuildingBlock: QUQFOY_clean_sbu_3, # of connection points: 4
#     Node 29, Type 0, BuildingBlock: QUQFOY_clean_sbu_3, # of connection points: 4
#     Node 30, Type 0, BuildingBlock: QUQFOY_clean_sbu_3, # of connection points: 4
#     Node 31, Type 0, BuildingBlock: QUQFOY_clean_sbu_3, # of connection points: 4
#     Edge 32, Type (0, 0), BuildingBlock: MIFKUJ_clean_linker_0, # of connection points: 2
#     Edge 33, Type (0, 0), BuildingBlock: MIFKUJ_clean_linker_0, # of connection points: 2
#     Edge 34, Type (0, 0), BuildingBlock: MIFKUJ_clean_linker_0, # of connection points: 2
#     Edge 35, Type (0, 0), BuildingBlock: MIFKUJ_clean_linker_0, # of connection points: 2
#     Edge 36, Type (0, 0), BuildingBlock: MIFKUJ_clean_linker_0, # of connection points: 2
#     Edge 37, Type (0, 0), BuildingBlock: MIFKUJ_clean_linker_0, # of connection points: 2
#     Edge 38, Type (0, 0), BuildingBlock: MIFKUJ_clean_linker_0, # of connection points: 2
#     Edge 39, Type (0, 0), BuildingBlock: MIFKUJ_clean_linker_0, # of connection points: 2
#     Edge 40, Type (0, 0), BuildingBlock: MIFKUJ_clean_linker_0, # of connection points: 2
#     Edge 41, Type (0, 0), BuildingBlock: MIFKUJ_clean_linker_0, # of connection points: 2
#     Edge 42, Type (0, 0), BuildingBlock: MIFKUJ_clean_linker_0, # of connection points: 2
#     Edge 43, Type (0, 0), BuildingBlock: MIFKUJ_clean_linker_0, # of connection points: 2
#     Edge 44, Type (0, 0), BuildingBlock: MIFKUJ_clean_linker_0, # of connection points: 2
#     Edge 45, Type (0, 0), BuildingBlock: MIFKUJ_clean_linker_0, # of connection points: 2
#     Edge 46, Type (0, 0), BuildingBlock: MIFKUJ_clean_linker_0, # of connection points: 2
#     Edge 47, Type (0, 0), BuildingBlock: MIFKUJ_clean_linker_0, # of connection points: 2
#     Edge 48, Type (0, 0), BuildingBlock: MIFKUJ_clean_linker_0, # of connection points: 2
#     Edge 49, Type (0, 0), BuildingBlock: MIFKUJ_clean_linker_0, # of connection points: 2
#     Edge 50, Type (0, 0), BuildingBlock: MIFKUJ_clean_linker_0, # of connection points: 2
#     Edge 51, Type (0, 0), BuildingBlock: MIFKUJ_clean_linker_0, # of connection points: 2
#     Edge 52, Type (0, 0), BuildingBlock: MIFKUJ_clean_linker_0, # of connection points: 2
#     Edge 53, Type (0, 0), BuildingBlock: MIFKUJ_clean_linker_0, # of connection points: 2
#     Edge 54, Type (0, 0), BuildingBlock: MIFKUJ_clean_linker_0, # of connection points: 2
#     Edge 55, Type (0, 0), BuildingBlock: MIFKUJ_clean_linker_0, # of connection points: 2
#     Edge 56, Type (0, 0), BuildingBlock: MIFKUJ_clean_linker_0, # of connection points: 2
#     Edge 57, Type (0, 0), BuildingBlock: MIFKUJ_clean_linker_0, # of connection points: 2
#     Edge 58, Type (0, 0), BuildingBlock: MIFKUJ_clean_linker_0, # of connection points: 2
#     Edge 59, Type (0, 0), BuildingBlock: MIFKUJ_clean_linker_0, # of connection points: 2
#     Edge 60, Type (0, 0), BuildingBlock: MIFKUJ_clean_linker_0, # of connection points: 2
#     Edge 61, Type (0, 0), BuildingBlock: MIFKUJ_clean_linker_0, # of connection points: 2
#     Edge 62, Type (0, 0), BuildingBlock: MIFKUJ_clean_linker_0, # of connection points: 2
#     Edge 63, Type (0, 0), BuildingBlock: MIFKUJ_clean_linker_0, # of connection points: 2
#     Edge 64, Type (0, 0), BuildingBlock: MIFKUJ_clean_linker_0, # of connection points: 2
#     Edge 65, Type (0, 0), BuildingBlock: MIFKUJ_clean_linker_0, # of connection points: 2
#     Edge 66, Type (0, 0), BuildingBlock: MIFKUJ_clean_linker_0, # of connection points: 2
#     Edge 67, Type (0, 0), BuildingBlock: MIFKUJ_clean_linker_0, # of connection points: 2
#     Edge 68, Type (0, 0), BuildingBlock: MIFKUJ_clean_linker_0, # of connection points: 2
#     Edge 69, Type (0, 0), BuildingBlock: MIFKUJ_clean_linker_0, # of connection points: 2
#     Edge 70, Type (0, 0), BuildingBlock: MIFKUJ_clean_linker_0, # of connection points: 2
#     Edge 71, Type (0, 0), BuildingBlock: MIFKUJ_clean_linker_0, # of connection points: 2
#     Edge 72, Type (0, 0), BuildingBlock: MIFKUJ_clean_linker_0, # of connection points: 2
#     Edge 73, Type (0, 0), BuildingBlock: MIFKUJ_clean_linker_0, # of connection points: 2
#     Edge 74, Type (0, 0), BuildingBlock: MIFKUJ_clean_linker_0, # of connection points: 2
#     Edge 75, Type (0, 0), BuildingBlock: MIFKUJ_clean_linker_0, # of connection points: 2
#     Edge 76, Type (0, 0), BuildingBlock: MIFKUJ_clean_linker_0, # of connection points: 2
#     Edge 77, Type (0, 0), BuildingBlock: MIFKUJ_clean_linker_0, # of connection points: 2
#     Edge 78, Type (0, 0), BuildingBlock: MIFKUJ_clean_linker_0, # of connection points: 2
#     Edge 79, Type (0, 0), BuildingBlock: MIFKUJ_clean_linker_0, # of connection points: 2
#     Edge 80, Type (0, 0), BuildingBlock: MIFKUJ_clean_linker_0, # of connection points: 2
#     Edge 81, Type (0, 0), BuildingBlock: MIFKUJ_clean_linker_0, # of connection points: 2
#     Edge 82, Type (0, 0), BuildingBlock: MIFKUJ_clean_linker_0, # of connection points: 2
#     Edge 83, Type (0, 0), BuildingBlock: MIFKUJ_clean_linker_0, # of connection points: 2
#     Edge 84, Type (0, 0), BuildingBlock: MIFKUJ_clean_linker_0, # of connection points: 2
#     Edge 85, Type (0, 0), BuildingBlock: MIFKUJ_clean_linker_0, # of connection points: 2
#     Edge 86, Type (0, 0), BuildingBlock: MIFKUJ_clean_linker_0, # of connection points: 2
#     Edge 87, Type (0, 0), BuildingBlock: MIFKUJ_clean_linker_0, # of connection points: 2
#     Edge 88, Type (0, 0), BuildingBlock: MIFKUJ_clean_linker_0, # of connection points: 2
#     Edge 89, Type (0, 0), BuildingBlock: MIFKUJ_clean_linker_0, # of connection points: 2
#     Edge 90, Type (0, 0), BuildingBlock: MIFKUJ_clean_linker_0, # of connection points: 2
#     Edge 91, Type (0, 0), BuildingBlock: MIFKUJ_clean_linker_0, # of connection points: 2
#     Edge 92, Type (0, 0), BuildingBlock: MIFKUJ_clean_linker_0, # of connection points: 2
#     Edge 93, Type (0, 0), BuildingBlock: MIFKUJ_clean_linker_0, # of connection points: 2
#     Edge 94, Type (0, 0), BuildingBlock: MIFKUJ_clean_linker_0, # of connection points: 2
#     Edge 95, Type (0, 0), BuildingBlock: MIFKUJ_clean_linker_0, # of connection points: 2
# Relax obj value: 0.272
# Max RMSD: 0.197
# Mean RMSD: 0.197
data_MOF--net-ukm--node1-QUQFOY_clean_sbu_3--edge1-MIFKUJ_clean_linker_0
_symmetry_space_group_name_H-M    P1
_symmetry_Int_Tables_number       1
_symmetry_cell_setting            triclinic
loop_
_symmetry_equiv_pos_as_xyz
'x, y, z'
_cell_length_a     33.338395
_cell_length_b     134.8849
_cell_length_c     54.329225
_cell_angle_alpha  89.878377
_cell_angle_beta   90.000105
_cell_angle_gamma 89.985798
loop_
_atom_site_label
_atom_site_type_symbol
_atom_site_fract_x
_atom_site_fract_y
_atom_site_fract_z
_atom_type_partial_charge
C0 C 0.04062 0.28518 0.30376 0.0
O1 O 0.0132 0.29148 0.29922 0.0
Cd2 Cd 0.02261 0.30836 0.28833 0.0
O3 O 0.07757 0.28766 0.30365 0.0
Cd4 Cd 0.12015 0.30251 0.29843 0.0
C5 C 0.08671 0.30486 0.23905 0.0
O6 O 0.07173 0.31254 0.31782 0.0
O7 O 0.12229 0.32078 0.30426 0.0
O8 O 0.16662 0.29677 0.33033 0.0
C9 C 0.08849 0.32083 0.31498 0.0
O10 O 0.05201 0.30731 0.24685 0.0
C11 C 0.19734 0.29714 0.31649 0.0
O12 O 0.11491 0.30271 0.25393 0.0
O13 O 0.19191 0.30004 0.29448 0.0
C14 C 0.20886 0.94726 0.31375 0.0
O15 O 0.23554 0.94055 0.3126 0.0
Cd16 Cd 0.22087 0.92324 0.30962 0.0
O17 O 0.1719 0.94499 0.31523 0.0
Cd18 Cd 0.12899 0.93035 0.31692 0.0
C19 C 0.15955 0.92528 0.25898 0.0
O20 O 0.17164 0.91927 0.34005 0.0
O21 O 0.12495 0.91248 0.31826 0.0
O22 O 0.08278 0.93661 0.34814 0.0
C23 C 0.15303 0.9115 0.33379 0.0
O24 O 0.19244 0.92202 0.26785 0.0
C25 C 0.05223 0.9362 0.33416 0.0
O26 O 0.13307 0.92913 0.27284 0.0
O27 O 0.0578 0.93313 0.31236 0.0
C28 C 0.05131 0.94587 0.93872 0.0
O29 O 0.02078 0.94027 0.93994 0.0
Cd30 Cd 0.02603 0.92284 0.94722 0.0
O31 O 0.08647 0.94221 0.9393 0.0
Cd32 Cd 0.11968 0.9261 0.94163 0.0
C33 C 0.08384 0.9237 -0.00065 0.0
O34 O 0.07299 0.91589 0.91853 0.0
O35 O 0.11444 0.90833 0.94281 0.0
O36 O 0.17092 0.92965 0.91055 0.0
C37 C 0.08773 0.90779 0.92627 0.0
O38 O 0.04946 0.92189 0.99014 0.0
C39 C 0.20014 0.92867 0.92539 0.0
O40 O 0.11355 0.92584 0.98568 0.0
O41 O 0.19164 0.9266 0.94758 0.0
C42 C 0.23431 0.28168 0.91624 0.0
O43 O 0.25688 0.28902 0.92111 0.0
Cd44 Cd 0.2329 0.3054 0.93075 0.0
O45 O 0.19631 0.28265 0.91585 0.0
Cd46 Cd 0.14198 0.29455 0.92129 0.0
C47 C 0.17327 0.29921 0.98045 0.0
O48 O 0.17836 0.30788 0.90323 0.0
O49 O 0.12029 0.31182 0.91746 0.0
O50 O 0.09783 0.28676 0.89084 0.0
C51 C 0.1531 0.31462 0.90791 0.0
O52 O 0.20478 0.3035 0.97241 0.0
C53 C 0.0705 0.28484 0.90651 0.0
O54 O 0.14811 0.29528 0.96577 0.0
O55 O 0.07677 0.2875 0.92858 0.0
C56 C 0.97034 0.69311 0.6771 0.0
O57 O 0.9899 0.68511 0.67972 0.0
Cd58 Cd 0.95812 0.66941 0.6861 0.0
O59 O 0.93214 0.69313 0.67754 0.0
Cd60 Cd 0.87528 0.68192 0.68236 0.0
C61 C 0.90731 0.67528 0.7392 0.0
O62 O 0.90213 0.66867 0.65871 0.0
O63 O 0.85432 0.66456 0.68337 0.0
O64 O 0.83061 0.68957 0.65214 0.0
C65 C 0.87858 0.66204 0.66654 0.0
O66 O 0.93433 0.66997 0.72907 0.0
C67 C 0.80347 0.69164 0.66773 0.0
O68 O 0.88436 0.68077 0.72634 0.0
O69 O 0.81042 0.68941 0.69003 0.0
C70 C 0.75015 0.03255 0.6867 0.0
O71 O 0.73337 0.04087 0.69045 0.0
Cd72 Cd 0.76857 0.05618 0.69522 0.0
O73 O 0.78826 0.03186 0.68556 0.0
Cd74 Cd 0.84675 0.04282 0.68936 0.0
C75 C 0.82132 0.05011 0.74685 0.0
O76 O 0.81987 0.05599 0.66454 0.0
O77 O 0.871 0.05991 0.68677 0.0
O78 O 0.88973 0.03441 0.65926 0.0
C79 C 0.84654 0.06228 0.6699 0.0
O80 O 0.796 0.05606 0.73729 0.0
C81 C 0.91833 0.03298 0.67434 0.0
O82 O 0.8407 0.044 0.73362 0.0
O83 O 0.91251 0.03568 0.69641 0.0
C84 C 0.00086 0.03295 0.06289 0.0
O85 O 0.02275 0.04047 0.05871 0.0
Cd86 Cd 0.99689 0.05672 0.0507 0.0
O87 O 0.96283 0.03376 0.06351 0.0
Cd88 Cd 0.91167 0.04663 0.05871 0.0
C89 C 0.93993 0.05081 0.00032 0.0
O90 O 0.94544 0.0598 0.08011 0.0
O91 O 0.89925 0.06439 0.0547 0.0
O92 O 0.86888 0.04014 0.0915 0.0
C93 C 0.92412 0.06671 0.07135 0.0
O94 O 0.96805 0.05619 0.00892 0.0
C95 C 0.83788 0.03938 0.07803 0.0
O96 O 0.91761 0.04568 0.01443 0.0
O97 O 0.84161 0.04184 0.05558 0.0
C98 C 0.75185 0.69698 0.05625 0.0
O99 O 0.73111 0.68922 0.05277 0.0
Cd100 Cd 0.76159 0.67312 0.0488 0.0
O101 O 0.78987 0.6965 0.05731 0.0
Cd102 Cd 0.84311 0.68436 0.05373 0.0
C103 C 0.81553 0.67754 0.99661 0.0
O104 O 0.81465 0.67115 0.07843 0.0
O105 O 0.86247 0.66714 0.05337 0.0
O106 O 0.88638 0.69188 0.08482 0.0
C107 C 0.83963 0.66473 0.07103 0.0
O108 O 0.78806 0.67235 0.00664 0.0
C109 C 0.91554 0.6933 0.07019 0.0
O110 O 0.83727 0.68331 0.00943 0.0
O111 O 0.91032 0.69084 0.04789 0.0
C112 C 0.01049 0.7794 0.79906 0.0
O113 O 0.98572 0.78612 0.79294 0.0
Cd114 Cd 0.00633 0.80293 0.78542 0.0
O115 O 0.04765 0.78133 0.80104 0.0
Cd116 Cd 0.09467 0.79492 0.79692 0.0
C117 C 0.07022 0.79925 0.73713 0.0
O118 O 0.05307 0.80691 0.81759 0.0
O119 O 0.10593 0.81265 0.79938 0.0
O120 O 0.13746 0.78854 0.83003 0.0
C121 C 0.07579 0.81421 0.81306 0.0
O122 O 0.03737 0.80311 0.74429 0.0
C123 C 0.16787 0.78739 0.81624 0.0
O124 O 0.09417 0.79531 0.7525 0.0
O125 O 0.16404 0.78982 0.79379 0.0
C126 C 0.21373 0.44382 0.81345 0.0
O127 O 0.23862 0.43668 0.81339 0.0
Cd128 Cd 0.21934 0.41964 0.81749 0.0
O129 O 0.17634 0.44227 0.81631 0.0
Cd130 Cd 0.12786 0.42897 0.82261 0.0
C131 C 0.15701 0.41894 0.76732 0.0
O132 O 0.1711 0.4201 0.85027 0.0
O133 O 0.11455 0.41303 0.84238 0.0
O134 O 0.08429 0.43969 0.84732 0.0
C135 C 0.14765 0.41287 0.85386 0.0
O136 O 0.19068 0.41647 0.77656 0.0
C137 C 0.05391 0.43845 0.8335 0.0
O138 O 0.1308 0.42343 0.78015 0.0
O139 O 0.05839 0.43288 0.81489 0.0
C140 C 0.02621 0.44329 0.44817 0.0
O141 O 0.9958 0.43793 0.45282 0.0
Cd142 Cd 0.00279 0.42052 0.46001 0.0
O143 O 0.06105 0.43948 0.44697 0.0
Cd144 Cd 0.09702 0.42388 0.4495 0.0
C145 C 0.06773 0.42088 0.50904 0.0
O146 O 0.04593 0.41514 0.42725 0.0
O147 O 0.09306 0.40601 0.44243 0.0
O148 O 0.14289 0.42973 0.41745 0.0
C149 C 0.06146 0.40664 0.4295 0.0
O150 O 0.03225 0.41916 0.50145 0.0
C151 C 0.17414 0.42882 0.43064 0.0
O152 O 0.09551 0.42305 0.49395 0.0
O153 O 0.16946 0.42537 0.45221 0.0
C154 C 0.25033 0.78002 0.43062 0.0
O155 O 0.27436 0.78721 0.43376 0.0
Cd156 Cd 0.25277 0.80415 0.43467 0.0
O157 O 0.21311 0.78157 0.42711 0.0
Cd158 Cd 0.16518 0.79516 0.42419 0.0
C159 C 0.18731 0.80203 0.48287 0.0
O160 O 0.20709 0.80634 0.40084 0.0
O161 O 0.15483 0.81278 0.4181 0.0
O162 O 0.12129 0.78783 0.39273 0.0
C163 C 0.18466 0.81381 0.40386 0.0
O164 O 0.22029 0.80572 0.4753 0.0
C165 C 0.09108 0.78733 0.40698 0.0
O166 O 0.16408 0.79751 0.46814 0.0
O167 O 0.09581 0.79039 0.42884 0.0
C168 C 0.95745 0.19388 0.19764 0.0
O169 O 0.98601 0.18765 0.19769 0.0
Cd170 Cd 0.97585 0.17026 0.1976 0.0
O171 O 0.92115 0.19103 0.19564 0.0
Cd172 Cd 0.88319 0.17555 0.18998 0.0
C173 C 0.91256 0.16892 0.24735 0.0
O174 O 0.9315 0.1677 0.16337 0.0
O175 O 0.88621 0.15809 0.17879 0.0
O176 O 0.83528 0.1832 0.16132 0.0
C177 C 0.91524 0.15924 0.16399 0.0
O178 O 0.94778 0.16741 0.23907 0.0
C179 C 0.80468 0.18069 0.17384 0.0
O180 O 0.88471 0.17199 0.23334 0.0
O181 O 0.811 0.1759 0.19357 0.0
C182 C 0.76965 0.53501 0.1848 0.0
O183 O 0.74969 0.54285 0.18885 0.0
Cd184 Cd 0.78097 0.55881 0.19315 0.0
O185 O 0.80773 0.53526 0.18344 0.0
Cd186 Cd 0.86234 0.54709 0.18707 0.0
C187 C 0.83545 0.55371 0.24463 0.0
O188 O 0.83217 0.55992 0.16229 0.0
O189 O 0.88327 0.56431 0.18416 0.0
O190 O 0.90286 0.53867 0.15612 0.0
C191 C 0.85813 0.56644 0.16747 0.0
O192 O 0.80874 0.55927 0.23506 0.0
C193 C 0.93358 0.53783 0.1698 0.0
O194 O 0.85633 0.54789 0.23145 0.0
O195 O 0.93037 0.54094 0.19175 0.0
C196 C 0.00355 0.53466 0.5573 0.0
O197 O 0.02688 0.54194 0.55352 0.0
Cd198 Cd 0.00279 0.55854 0.55023 0.0
O199 O 0.96596 0.53598 0.5598 0.0
Cd200 Cd 0.91637 0.54924 0.56032 0.0
C201 C 0.93935 0.55548 0.50139 0.0
O202 O 0.95743 0.56016 0.58447 0.0
O203 O 0.90526 0.56683 0.56762 0.0
O204 O 0.87267 0.54116 0.59085 0.0
C205 C 0.93456 0.56758 0.58237 0.0
O206 O 0.97191 0.55938 0.50893 0.0
C207 C 0.84233 0.54103 0.57667 0.0
O208 O 0.91601 0.5511 0.51634 0.0
O209 O 0.84688 0.54467 0.55531 0.0
C210 C 0.75634 0.19586 0.56871 0.0
O211 O 0.73197 0.18888 0.56409 0.0
Cd212 Cd 0.75459 0.17242 0.55431 0.0
O213 O 0.79394 0.19429 0.56844 0.0
Cd214 Cd 0.84125 0.1809 0.56119 0.0
C215 C 0.81001 0.17719 0.50274 0.0
O216 O 0.80635 0.16767 0.58293 0.0
O217 O 0.85463 0.1634 0.55856 0.0
O218 O 0.88873 0.18625 0.59282 0.0
C219 C 0.82939 0.16094 0.57489 0.0
O220 O 0.77915 0.1729 0.51158 0.0
C221 C 0.91745 0.1876 0.57781 0.0
O222 O 0.83537 0.18131 0.51687 0.0
O223 O 0.91022 0.18603 0.55523 0.0
C224 C 0.51469 0.28426 0.81516 0.0
O225 O 0.49975 0.29266 0.80977 0.0
Cd226 Cd 0.53866 0.30729 0.80146 0.0
O227 O 0.55258 0.28301 0.81595 0.0
Cd228 Cd 0.61547 0.29209 0.81008 0.0
C229 C 0.59055 0.29878 0.75119 0.0
O230 O 0.5909 0.30631 0.83131 0.0
O231 O 0.6503 0.308 0.81637 0.0
O232 O 0.65079 0.28171 0.8401 0.0
C233 C 0.62142 0.31173 0.82835 0.0
O234 O 0.56508 0.30496 0.75959 0.0
C235 C 0.67964 0.27971 0.82561 0.0
O236 O 0.61011 0.29311 0.76558 0.0
O237 O 0.6775 0.2832 0.80393 0.0
C238 C 0.73479 0.9482 0.81107 0.0
O239 O 0.76746 0.94378 0.8063 0.0
Cd240 Cd 0.7688 0.92615 0.80111 0.0
O241 O 0.7029 0.94325 0.81453 0.0
Cd242 Cd 0.68196 0.92602 0.81467 0.0
C243 C 0.70203 0.92465 0.75426 0.0
O244 O 0.73737 0.91798 0.83597 0.0
O245 O 0.69998 0.90868 0.81303 0.0
O246 O 0.63541 0.92852 0.84904 0.0
C247 C 0.72628 0.90935 0.8298 0.0
O248 O 0.73867 0.92336 0.76009 0.0
C249 C 0.60463 0.926 0.83676 0.0
O250 O 0.67606 0.92636 0.77077 0.0
O251 O 0.61026 0.92331 0.81467 0.0
C252 C 0.49764 0.94497 0.4482 0.0
O253 O 0.47246 0.93823 0.45339 0.0
Cd254 Cd 0.49224 0.92129 0.45862 0.0
O255 O 0.53435 0.94283 0.44479 0.0
Cd256 Cd 0.57775 0.9283 0.44484 0.0
C257 C 0.55992 0.92377 0.50501 0.0
O258 O 0.53388 0.91653 0.42409 0.0
O259 O 0.5852 0.91054 0.44342 0.0
O260 O 0.62165 0.93405 0.41127 0.0
C261 C 0.55625 0.90916 0.42873 0.0
O262 O 0.52527 0.92056 0.49923 0.0
C263 C 0.65269 0.93435 0.42484 0.0
O264 O 0.58314 0.92734 0.48876 0.0
O265 O 0.64831 0.9319 0.44721 0.0
C266 C 0.74995 0.28052 0.43667 0.0
O267 O 0.77477 0.28736 0.4418 0.0
Cd268 Cd 0.75631 0.3044 0.44681 0.0
O269 O 0.71303 0.2825 0.4332 0.0
Cd270 Cd 0.66748 0.29664 0.43334 0.0
C271 C 0.68967 0.30072 0.49374 0.0
O272 O 0.71285 0.30799 0.41289 0.0
O273 O 0.65893 0.31437 0.42823 0.0
O274 O 0.62528 0.29006 0.40017 0.0
C275 C 0.69048 0.31549 0.41552 0.0
O276 O 0.72287 0.30459 0.4872 0.0
C277 C 0.59316 0.29038 0.41277 0.0
O278 O 0.66609 0.29698 0.47787 0.0
O279 O 0.59615 0.29337 0.43482 0.0
C280 C 0.45998 0.6923 0.18875 0.0
O281 O 0.48566 0.68541 0.19106 0.0
Cd282 Cd 0.46474 0.66884 0.1991 0.0
O283 O 0.42264 0.69033 0.18848 0.0
Cd284 Cd 0.37518 0.6765 0.18933 0.0
C285 C 0.40226 0.67343 0.24856 0.0
O286 O 0.41627 0.66466 0.16821 0.0
O287 O 0.36755 0.65845 0.18944 0.0
O288 O 0.33589 0.68341 0.15549 0.0
C289 C 0.39622 0.6571 0.17451 0.0
O290 O 0.43555 0.67 0.24074 0.0
C291 C 0.30334 0.6838 0.1676 0.0
O292 O 0.37571 0.67657 0.23367 0.0
O293 O 0.30428 0.68067 0.18966 0.0
C294 C 0.27843 0.03255 0.18036 0.0
O295 O 0.25503 0.03991 0.18289 0.0
Cd296 Cd 0.27898 0.05624 0.19141 0.0
O297 O 0.31631 0.03371 0.18138 0.0
Cd298 Cd 0.36627 0.04686 0.1868 0.0
C299 C 0.33142 0.05092 0.2443 0.0
O300 O 0.3328 0.05946 0.16323 0.0
O301 O 0.37825 0.06472 0.18833 0.0
O302 O 0.4124 0.04017 0.15601 0.0
C303 C 0.35386 0.06659 0.17104 0.0
O304 O 0.30177 0.05545 0.2346 0.0
C305 C 0.44174 0.0394 0.17082 0.0
O306 O 0.3575 0.04665 0.23091 0.0
O307 O 0.43558 0.04198 0.19295 0.0
C308 C 0.47008 0.03579 0.56328 0.0
O309 O 0.49475 0.04271 0.55836 0.0
Cd310 Cd 0.47687 0.05969 0.55131 0.0
O311 O 0.43272 0.03756 0.56561 0.0
Cd312 Cd 0.38303 0.05091 0.56449 0.0
C313 C 0.4094 0.05513 0.50425 0.0
O314 O 0.42798 0.06263 0.58195 0.0
O315 O 0.37069 0.06865 0.57147 0.0
O316 O 0.34366 0.04323 0.59746 0.0
C317 C 0.4057 0.07016 0.57978 0.0
O318 O 0.44283 0.05874 0.51132 0.0
C319 C 0.31151 0.04283 0.58488 0.0
O320 O 0.38427 0.05163 0.51966 0.0
O321 O 0.31294 0.0462 0.56305 0.0
C322 C 0.25211 0.695 0.56666 0.0
O323 O 0.22536 0.68858 0.56203 0.0
Cd324 Cd 0.24332 0.6716 0.55509 0.0
O325 O 0.2888 0.6925 0.56822 0.0
Cd326 Cd 0.3331 0.67823 0.56623 0.0
C327 C 0.30814 0.67474 0.50653 0.0
O328 O 0.2887 0.66695 0.58766 0.0
O329 O 0.33921 0.66036 0.5688 0.0
O330 O 0.37519 0.68513 0.59889 0.0
C331 C 0.30932 0.6593 0.58298 0.0
O332 O 0.27419 0.67152 0.5138 0.0
C333 C 0.40712 0.68496 0.58613 0.0
O334 O 0.33365 0.67801 0.52186 0.0
O335 O 0.40444 0.68151 0.56449 0.0
C336 C 0.5299 0.78001 0.31041 0.0
O337 O 0.50525 0.78713 0.30799 0.0
Cd338 Cd 0.52631 0.80383 0.30054 0.0
O339 O 0.56754 0.78158 0.30967 0.0
Cd340 Cd 0.61604 0.79505 0.30537 0.0
C341 C 0.58167 0.7999 0.24798 0.0
O342 O 0.5794 0.80718 0.32891 0.0
O343 O 0.62806 0.81284 0.30685 0.0
O344 O 0.66086 0.78785 0.33616 0.0
C345 C 0.60066 0.81451 0.32243 0.0
O346 O 0.55094 0.80387 0.25786 0.0
C347 C 0.69113 0.78752 0.32197 0.0
O348 O 0.60827 0.79567 0.2611 0.0
O349 O 0.68617 0.7906 0.30009 0.0
C350 C 0.71931 0.44605 0.30548 0.0
O351 O 0.74543 0.43932 0.3022 0.0
Cd352 Cd 0.73014 0.422 0.29968 0.0
O353 O 0.68246 0.44389 0.30844 0.0
Cd354 Cd 0.6369 0.42978 0.3109 0.0
C355 C 0.66217 0.42354 0.25192 0.0
O356 O 0.68352 0.41924 0.33221 0.0
O357 O 0.62791 0.41239 0.32124 0.0
O358 O 0.5967 0.43751 0.34316 0.0
C359 C 0.66185 0.41155 0.33156 0.0
O360 O 0.6968 0.42095 0.25953 0.0
C361 C 0.56414 0.43715 0.33102 0.0
O362 O 0.6361 0.42709 0.2666 0.0
O363 O 0.56589 0.43355 0.30946 0.0
C364 C 0.49952 0.43929 0.93502 0.0
O365 O 0.48375 0.43078 0.93758 0.0
Cd366 Cd 0.52333 0.41603 0.9417 0.0
O367 O 0.53747 0.4403 0.93403 0.0
Cd368 Cd 0.59966 0.43071 0.935 0.0
C369 C 0.57715 0.42276 0.99288 0.0
O370 O 0.57467 0.41707 0.91072 0.0
O371 O 0.633 0.41505 0.92739 0.0
O372 O 0.63249 0.44114 0.90424 0.0
C373 C 0.60579 0.41177 0.91332 0.0
O374 O 0.54951 0.41737 0.98379 0.0
C375 C 0.66245 0.44317 0.91779 0.0
O376 O 0.59841 0.42835 0.97925 0.0
O377 O 0.66203 0.43976 0.93958 0.0
C378 C 0.71821 0.78359 0.92865 0.0
O379 O 0.74 0.79119 0.93191 0.0
Cd380 Cd 0.71205 0.80751 0.9363 0.0
O381 O 0.68021 0.78433 0.92762 0.0
Cd382 Cd 0.62628 0.79644 0.93007 0.0
C383 C 0.656 0.80238 0.98772 0.0
O384 O 0.65921 0.80907 0.90679 0.0
O385 O 0.60828 0.81404 0.92781 0.0
O386 O 0.58708 0.78774 0.89907 0.0
C387 C 0.63595 0.8161 0.91263 0.0
O388 O 0.68424 0.8075 0.97828 0.0
C389 C 0.55602 0.78689 0.91248 0.0
O390 O 0.63305 0.7971 0.9744 0.0
O391 O 0.55796 0.79046 0.93407 0.0
C392 C 0.46323 0.19886 0.69261 0.0
O393 O 0.49311 0.19316 0.69582 0.0
Cd394 Cd 0.48519 0.17548 0.69748 0.0
O395 O 0.42841 0.1953 0.68918 0.0
Cd396 Cd 0.39365 0.1796 0.68581 0.0
C397 C 0.41875 0.17458 0.74522 0.0
O398 O 0.44507 0.17104 0.66219 0.0
O399 O 0.3953 0.16225 0.67561 0.0
O400 O 0.34964 0.18662 0.6543 0.0
C401 C 0.42659 0.16283 0.66242 0.0
O402 O 0.45446 0.17283 0.73813 0.0
C403 C 0.31755 0.18478 0.66608 0.0
O404 O 0.39218 0.17735 0.72991 0.0
O405 O 0.32116 0.18051 0.68681 0.0
C406 C 0.28133 0.5293 0.67845 0.0
O407 O 0.25874 0.53684 0.68038 0.0
Cd408 Cd 0.28306 0.55337 0.68446 0.0
O409 O 0.31934 0.53025 0.67783 0.0
Cd410 Cd 0.37037 0.54336 0.67863 0.0
C411 C 0.34151 0.55009 0.73603 0.0
O412 O 0.33432 0.55517 0.65402 0.0
O413 O 0.38322 0.56114 0.67517 0.0
O414 O 0.41417 0.5356 0.64811 0.0
C415 C 0.35608 0.56253 0.65922 0.0
O416 O 0.3104 0.55407 0.72658 0.0
C417 C 0.44449 0.53525 0.66227 0.0
O418 O 0.36633 0.54534 0.72275 0.0
O419 O 0.43983 0.53849 0.68398 0.0
C420 C 0.46816 0.52738 0.05127 0.0
O421 O 0.49976 0.53244 0.04778 0.0
Cd422 Cd 0.49588 0.55008 0.04333 0.0
O423 O 0.43435 0.53165 0.05331 0.0
Cd424 Cd 0.40478 0.54814 0.05356 0.0
C425 C 0.43192 0.55141 0.99428 0.0
O426 O 0.45647 0.55659 0.07709 0.0
O427 O 0.41389 0.56586 0.05763 0.0
O428 O 0.35837 0.54312 0.08616 0.0
C429 C 0.44222 0.56516 0.07311 0.0
O430 O 0.46779 0.55256 0.00182 0.0
C431 C 0.32703 0.54479 0.07352 0.0
O432 O 0.40396 0.54936 0.00931 0.0
O433 O 0.33206 0.54826 0.05201 0.0
C434 C 0.25448 0.1989 0.05649 0.0
O435 O 0.22673 0.1926 0.05324 0.0
Cd436 Cd 0.24164 0.17536 0.04866 0.0
O437 O 0.29062 0.19606 0.059 0.0
Cd438 Cd 0.32993 0.18084 0.06028 0.0
C439 C 0.30801 0.1767 0.00064 0.0
O440 O 0.28392 0.17 0.08217 0.0
O441 O 0.3309 0.16294 0.06098 0.0
O442 O 0.37289 0.18544 0.09499 0.0
C443 C 0.30303 0.16218 0.07675 0.0
O444 O 0.27301 0.17415 0.00765 0.0
C445 C 0.4049 0.18564 0.08232 0.0
O446 O 0.33372 0.17981 0.01606 0.0
O447 O 0.40177 0.18371 0.05956 0.0
H448 H 0.9973 0.40628 0.39835 0.0
H449 H 0.97065 0.39192 0.37623 0.0
H450 H 0.05804 0.37317 0.41196 0.0
H451 H 0.08458 0.38739 0.43412 0.0
H452 H 0.01144 0.38128 0.34356 0.0
H453 H 0.02501 0.35107 0.42159 0.0
H454 H 0.00601 0.34942 0.46523 0.0
H455 H 0.91677 0.3721 0.45624 0.0
H456 H 0.93478 0.37379 0.41245 0.0
H457 H 0.11781 0.33971 0.31419 0.0
H458 H 0.08353 0.3547 0.32789 0.0
H459 H 0.97653 0.3377 0.3429 0.0
H460 H 0.01095 0.32265 0.32978 0.0
H461 H 0.99435 0.34796 0.3809 0.0
H462 H 0.97336 0.35605 0.29891 0.0
H463 H 0.9865 0.35786 0.25449 0.0
H464 H 0.07776 0.37946 0.26952 0.0
H465 H 0.06569 0.37768 0.31405 0.0
C466 C 0.01039 0.39905 0.40174 0.0
C467 C 0.04324 0.39793 0.41777 0.0
C468 C 0.99503 0.39088 0.38916 0.0
C469 C 0.01201 0.38149 0.39272 0.0
C470 C 0.0439 0.38033 0.40937 0.0
C471 C 0.05936 0.38847 0.42183 0.0
C472 C 0.0007 0.37307 0.37698 0.0
C473 C 0.00688 0.37399 0.35154 0.0
C474 C 0.99255 0.36367 0.38731 0.0
C475 C 0.98128 0.36255 0.41365 0.0
C476 C 0.00107 0.35564 0.42882 0.0
C477 C 0.99055 0.35472 0.45363 0.0
C478 C 0.96022 0.36065 0.46351 0.0
C479 C 0.94031 0.36752 0.44859 0.0
C480 C 0.95071 0.36847 0.42377 0.0
C481 C 0.08684 0.3392 0.32009 0.0
C482 C 0.06722 0.33003 0.32123 0.0
C483 C 0.06707 0.34778 0.32763 0.0
C484 C 0.02725 0.34732 0.33611 0.0
C485 C 0.00714 0.33821 0.33633 0.0
C486 C 0.02697 0.32963 0.32895 0.0
C487 C 0.00926 0.35611 0.34794 0.0
C488 C 0.99726 0.35524 0.37261 0.0
C489 C 0.01093 0.36556 0.33672 0.0
C490 C 0.01853 0.36673 0.30991 0.0
C491 C 0.99639 0.36115 0.29277 0.0
C492 C 0.00364 0.36218 0.26756 0.0
C493 C 0.03293 0.36878 0.25919 0.0
C494 C 0.05502 0.37437 0.27603 0.0
C495 C 0.0479 0.37337 0.30128 0.0
H496 H 0.03851 0.36956 0.23966 0.0
H497 H 0.95215 0.35993 0.48273 0.0
H498 H 0.17837 0.89854 0.29944 0.0
H499 H 0.20543 0.88189 0.30636 0.0
H500 H 0.19261 0.88594 0.38486 0.0
H501 H 0.16834 0.90288 0.37785 0.0
H502 H 0.25521 0.87523 0.37697 0.0
H503 H 0.11792 0.87464 0.34678 0.0
H504 H 0.06384 0.87819 0.31703 0.0
H505 H 0.12771 0.86223 0.26105 0.0
H506 H 0.18238 0.85868 0.29045 0.0
H507 H 0.16589 0.83172 0.42323 0.0
H508 H 0.18291 0.84803 0.40665 0.0
H509 H 0.24513 0.83428 0.34606 0.0
H510 H 0.22929 0.81783 0.36306 0.0
H511 H 0.17548 0.84875 0.33682 0.0
H512 H 0.30294 0.84559 0.3754 0.0
H513 H 0.34936 0.84153 0.40927 0.0
H514 H 0.29622 0.8642 0.45399 0.0
H515 H 0.24876 0.86825 0.42066 0.0
C516 C 0.18181 0.89585 0.31814 0.0
C517 C 0.1707 0.90177 0.33819 0.0
C518 C 0.19724 0.88638 0.32208 0.0
C519 C 0.20007 0.88258 0.34608 0.0
C520 C 0.19061 0.88871 0.36617 0.0
C521 C 0.17642 0.89832 0.36222 0.0
C522 C 0.20913 0.87198 0.35034 0.0
C523 C 0.23788 0.86944 0.36815 0.0
C524 C 0.18725 0.86439 0.33832 0.0
C525 C 0.15442 0.86651 0.32068 0.0
C526 C 0.12051 0.87195 0.32808 0.0
C527 C 0.08976 0.87395 0.31129 0.0
C528 C 0.09241 0.87047 0.28714 0.0
C529 C 0.12576 0.86494 0.27975 0.0
C530 C 0.15662 0.86293 0.29645 0.0
C531 C 0.18354 0.83217 0.40652 0.0
C532 C 0.19604 0.82357 0.39424 0.0
C533 C 0.19356 0.84146 0.39725 0.0
C534 C 0.21558 0.84227 0.37538 0.0
C535 C 0.22854 0.83372 0.36315 0.0
C536 C 0.21933 0.82439 0.37278 0.0
C537 C 0.22017 0.8521 0.3641 0.0
C538 C 0.19385 0.85452 0.34497 0.0
C539 C 0.2434 0.85955 0.37542 0.0
C540 C 0.2721 0.85719 0.39551 0.0
C541 C 0.30088 0.84966 0.39253 0.0
C542 C 0.32744 0.84737 0.41162 0.0
C543 C 0.32578 0.85261 0.43375 0.0
C544 C 0.29751 0.86015 0.43683 0.0
C545 C 0.27077 0.86245 0.41783 0.0
H546 H 0.34639 0.85083 0.4485 0.0
H547 H 0.06857 0.87203 0.27417 0.0
H548 H 0.04321 0.90405 0.88514 0.0
H549 H 0.0281 0.88776 0.86762 0.0
H550 H 0.0844 0.87364 0.93008 0.0
H551 H 0.10041 0.88982 0.9473 0.0
H552 H 0.11732 0.86791 0.88879 0.0
H553 H 0.98448 0.87135 0.91986 0.0
H554 H 0.91844 0.87906 0.92683 0.0
H555 H 0.89433 0.87833 0.84923 0.0
H556 H 0.96054 0.87076 0.84172 0.0
H557 H 0.02279 0.81894 0.84928 0.0
H558 H 0.01361 0.83514 0.86858 0.0
H559 H 0.09831 0.84798 0.81759 0.0
H560 H 0.10862 0.83176 0.79872 0.0
H561 H 0.99135 0.85375 0.85526 0.0
H562 H 0.16031 0.86275 0.84855 0.0
H563 H 0.22493 0.85394 0.8449 0.0
H564 H 0.17442 0.82852 0.88111 0.0
H565 H 0.1097 0.83722 0.88526 0.0
C566 C 0.0517 0.89746 0.89528 0.0
C567 C 0.07362 0.89816 0.91729 0.0
C568 C 0.04278 0.88818 0.88538 0.0
C569 C 0.05525 0.87953 0.89758 0.0
C570 C 0.07475 0.88025 0.92036 0.0
C571 C 0.08402 0.88949 0.9301 0.0
C572 C 0.05336 0.86985 0.88512 0.0
C573 C 0.08968 0.86481 0.88158 0.0
C574 C 0.01727 0.86583 0.87582 0.0
C575 C 0.97773 0.87057 0.88021 0.0
C576 C 0.96533 0.87294 0.90424 0.0
C577 C 0.9278 0.87726 0.9083 0.0
C578 C 0.90224 0.87921 0.88849 0.0
C579 C 0.91418 0.87683 0.86456 0.0
C580 C 0.95171 0.87252 0.8604 0.0
C581 C 0.03912 0.82525 0.84203 0.0
C582 C 0.06701 0.8241 0.82287 0.0
C583 C 0.03361 0.83449 0.85294 0.0
C584 C 0.05575 0.84267 0.8447 0.0
C585 C 0.08148 0.84168 0.82442 0.0
C586 C 0.08744 0.83242 0.81374 0.0
C587 C 0.05529 0.85195 0.85888 0.0
C588 C 0.01878 0.85691 0.86259 0.0
C589 C 0.09105 0.85584 0.86893 0.0
C590 C 0.13009 0.85061 0.86699 0.0
C591 C 0.16308 0.8553 0.85583 0.0
C592 C 0.1997 0.85032 0.85366 0.0
C593 C 0.20373 0.84066 0.8627 0.0
C594 C 0.17121 0.83598 0.87404 0.0
C595 C 0.13455 0.84093 0.87629 0.0
H596 H 0.23209 0.83681 0.86096 0.0
H597 H 0.87315 0.88254 0.89167 0.0
H598 H 0.2237 0.4074 0.86659 0.0
H599 H 0.24416 0.39175 0.88597 0.0
H600 H 0.1199 0.3833 0.89317 0.0
H601 H 0.09932 0.39878 0.87355 0.0
H602 H 0.17124 0.37794 0.93467 0.0
H603 H 0.16549 0.37685 0.84312 0.0
H604 H 0.18873 0.38266 0.80244 0.0
H605 H 0.31024 0.37559 0.82203 0.0
H606 H 0.28766 0.36986 0.86296 0.0
H607 H 0.10485 0.33046 0.91671 0.0
H608 H 0.12377 0.34788 0.91747 0.0
H609 H 0.24605 0.34005 0.89998 0.0
H610 H 0.22701 0.32253 0.89862 0.0
H611 H 0.22263 0.35445 0.87195 0.0
H612 H 0.22303 0.34968 0.95724 0.0
H613 H 0.20178 0.34409 -0.00153 0.0
H614 H 0.09603 0.36214 0.99341 0.0
H615 H 0.11617 0.36771 0.95201 0.0
C616 C 0.2008 0.40227 0.87278 0.0
C617 C 0.15996 0.40419 0.86834 0.0
C618 C 0.21253 0.39339 0.88388 0.0
C619 C 0.18347 0.38643 0.89093 0.0
C620 C 0.14266 0.38864 0.88797 0.0
C621 C 0.13098 0.39742 0.87657 0.0
C622 C 0.19474 0.37629 0.89807 0.0
C623 C 0.18284 0.37275 0.9212 0.0
C624 C 0.21162 0.3697 0.88075 0.0
C625 C 0.225 0.37306 0.85613 0.0
C626 C 0.19718 0.37661 0.83878 0.0
C627 C 0.21022 0.37987 0.81569 0.0
C628 C 0.25096 0.37953 0.80968 0.0
C629 C 0.27872 0.37588 0.82673 0.0
C630 C 0.26583 0.37263 0.84987 0.0
C631 C 0.13579 0.33244 0.91308 0.0
C632 C 0.16441 0.32516 0.9075 0.0
C633 C 0.14672 0.34239 0.91387 0.0
C634 C 0.18657 0.34524 0.90941 0.0
C635 C 0.21525 0.33799 0.90376 0.0
C636 C 0.20426 0.32801 0.90282 0.0
C637 C 0.19667 0.3559 0.90816 0.0
C638 C 0.21267 0.35957 0.88607 0.0
C639 C 0.18404 0.36259 0.92665 0.0
C640 C 0.1712 0.35912 0.95143 0.0
C641 C 0.19507 0.3524 0.96481 0.0
C642 C 0.18324 0.34924 0.98824 0.0
C643 C 0.14763 0.35278 -0.00144 0.0
C644 C 0.12367 0.35943 0.98542 0.0
C645 C 0.13532 0.36261 0.96198 0.0
H646 H 0.13863 0.35039 0.01675 0.0
H647 H 0.261 0.38206 0.79179 0.0
H648 H 0.91442 0.58614 0.56775 0.0
H649 H 0.92632 0.60159 0.59002 0.0
H650 H 0.98575 0.58539 0.64805 0.0
H651 H 0.97514 0.56986 0.62537 0.0
H652 H 0.91226 0.59815 0.65939 0.0
H653 H 0.04377 0.5995 0.62717 0.0
H654 H 0.09685 0.598 0.5958 0.0
H655 H 0.04184 0.62113 0.55319 0.0
H656 H 0.98809 0.62269 0.5841 0.0
H657 H 0.89161 0.64822 0.70181 0.0
H658 H 0.91963 0.63161 0.69584 0.0
H659 H 0.91739 0.63616 0.61706 0.0
H660 H 0.89214 0.65299 0.62325 0.0
H661 H 0.98402 0.62792 0.62873 0.0
H662 H 0.84332 0.62209 0.65222 0.0
H663 H 0.78574 0.62307 0.68068 0.0
H664 H 0.85388 0.60801 0.73646 0.0
H665 H 0.91196 0.60702 0.70837 0.0
C666 C 0.93049 0.5859 0.58508 0.0
C667 C 0.94362 0.57688 0.59502 0.0
C668 C 0.9376 0.59469 0.59762 0.0
C669 C 0.95723 0.59454 0.62043 0.0
C670 C 0.97102 0.58558 0.63028 0.0
C671 C 0.96479 0.57677 0.6174 0.0
C672 C 0.95795 0.60368 0.63497 0.0
C673 C 0.92884 0.60465 0.65336 0.0
C674 C 0.97943 0.61204 0.6267 0.0
C675 C 0.01175 0.61118 0.60798 0.0
C676 C 0.04279 0.60422 0.61103 0.0
C677 C 0.07306 0.60337 0.59334 0.0
C678 C 0.07265 0.60945 0.5725 0.0
C679 C 0.0421 0.61643 0.56935 0.0
C680 C 0.01177 0.61731 0.58699 0.0
C681 C 0.89659 0.64555 0.68326 0.0
C682 C 0.88916 0.65168 0.66287 0.0
C683 C 0.91276 0.63612 0.67987 0.0
C684 C 0.92031 0.63261 0.656 0.0
C685 C 0.9121 0.63874 0.63566 0.0
C686 C 0.89718 0.64826 0.63911 0.0
C687 C 0.93596 0.62252 0.65173 0.0
C688 C 0.96841 0.6214 0.63547 0.0
C689 C 0.91696 0.61401 0.66156 0.0
C690 C 0.88206 0.6146 0.67836 0.0
C691 C 0.84605 0.61905 0.67062 0.0
C692 C 0.81334 0.6196 0.68666 0.0
C693 C 0.81621 0.61564 0.7104 0.0
C694 C 0.85174 0.6111 0.7181 0.0
C695 C 0.88455 0.61054 0.70214 0.0
H696 H 0.79085 0.61607 0.72279 0.0
H697 H 0.09596 0.60874 0.55877 0.0
H698 H 0.80736 0.06828 0.6288 0.0
H699 H 0.80227 0.0851 0.6125 0.0
H700 H 0.87401 0.09592 0.67292 0.0
H701 H 0.88053 0.07901 0.6888 0.0
H702 H 0.77048 0.10127 0.62988 0.0
H703 H 0.92909 0.11542 0.65426 0.0
H704 H 0.9974 0.10882 0.66049 0.0
H705 H 0.9712 0.08445 0.61239 0.0
H706 H 0.90295 0.09097 0.60563 0.0
H707 H 0.7861 0.15384 0.6138 0.0
H708 H 0.78533 0.1368 0.62945 0.0
H709 H 0.86424 0.12784 0.57055 0.0
H710 H 0.86594 0.14482 0.55522 0.0
H711 H 0.8915 0.12153 0.61282 0.0
H712 H 0.76482 0.12165 0.57126 0.0
H713 H 0.69637 0.1272 0.56097 0.0
H714 H 0.65867 0.12169 0.63531 0.0
H715 H 0.72712 0.11628 0.64619 0.0
C716 C 0.82224 0.07424 0.63851 0.0
C717 C 0.84457 0.07238 0.65992 0.0
C718 C 0.81911 0.08384 0.62927 0.0
C719 C 0.83796 0.09172 0.64142 0.0
C720 C 0.85982 0.08989 0.66305 0.0
C721 C 0.86352 0.08026 0.67209 0.0
C722 C 0.83507 0.10183 0.63117 0.0
C723 C 0.79689 0.10573 0.62616 0.0
C724 C 0.86961 0.10754 0.62606 0.0
C725 C 0.9108 0.10363 0.62966 0.0
C726 C 0.93798 0.10867 0.64495 0.0
C727 C 0.97667 0.10494 0.64858 0.0
C728 C 0.98858 0.0962 0.63691 0.0
C729 C 0.96189 0.09119 0.62149 0.0
C730 C 0.92319 0.0949 0.61777 0.0
C731 C 0.80299 0.1482 0.60411 0.0
C732 C 0.82633 0.15063 0.58344 0.0
C733 C 0.80237 0.13849 0.61299 0.0
C734 C 0.82466 0.13109 0.60109 0.0
C735 C 0.84702 0.13347 0.58004 0.0
C736 C 0.84793 0.14316 0.57131 0.0
C737 C 0.82689 0.12098 0.6113 0.0
C738 C 0.86501 0.1171 0.61654 0.0
C739 C 0.7923 0.11521 0.61598 0.0
C740 C 0.75129 0.11868 0.60962 0.0
C741 C 0.74209 0.12174 0.5855 0.0
C742 C 0.70325 0.12484 0.57955 0.0
C743 C 0.67323 0.12483 0.59749 0.0
C744 C 0.68199 0.12172 0.62144 0.0
C745 C 0.72081 0.11864 0.62751 0.0
H746 H 0.64315 0.1272 0.59283 0.0
H747 H 0.01852 0.09332 0.63978 0.0
H748 H 0.95945 0.15999 0.12189 0.0
H749 H 0.98423 0.14585 0.09781 0.0
H750 H 0.93545 0.12574 0.15191 0.0
H751 H 0.90967 0.13974 0.17555 0.0
H752 H 0.01984 0.12145 0.1304 0.0
H753 H 0.87538 0.12975 0.10939 0.0
H754 H 0.82682 0.14201 0.09345 0.0
H755 H 0.89941 0.14623 0.02895 0.0
H756 H 0.94853 0.13405 0.0447 0.0
H757 H 0.94268 0.07518 0.11476 0.0
H758 H 0.96248 0.09232 0.12193 0.0
H759 H 0.95538 0.09824 0.0438 0.0
H760 H 0.93226 0.08122 0.03699 0.0
H761 H 0.92383 0.11235 0.06442 0.0
H762 H 0.04957 0.09802 0.07789 0.0
H763 H 0.09911 0.08581 0.09265 0.0
H764 H 0.07233 0.09352 0.16749 0.0
H765 H 0.02214 0.10565 0.15327 0.0
C766 C 0.95449 0.15254 0.1287 0.0
C767 C 0.93234 0.15089 0.15035 0.0
C768 C 0.96886 0.14452 0.11507 0.0
C769 C 0.96194 0.13484 0.12336 0.0
C770 C 0.94142 0.13322 0.14551 0.0
C771 C 0.92633 0.14118 0.1588 0.0
C772 C 0.97068 0.12625 0.10775 0.0
C773 C -0.00047 0.11941 0.11565 0.0
C774 C 0.94541 0.12393 0.08781 0.0
C775 C 0.91562 0.13108 0.07825 0.0
C776 C 0.88098 0.13333 0.09186 0.0
C777 C 0.85339 0.14026 0.08287 0.0
C778 C 0.86007 0.14491 0.06022 0.0
C779 C 0.8943 0.14263 0.0465 0.0
C780 C 0.92201 0.13572 0.05544 0.0
C781 C 0.94531 0.08019 0.09921 0.0
C782 C 0.93559 0.07703 0.07545 0.0
C783 C 0.95739 0.08992 0.10318 0.0
C784 C 0.96175 0.09654 0.0833 0.0
C785 C 0.95254 0.09328 0.05941 0.0
C786 C 0.9391 0.08361 0.05555 0.0
C787 C 0.97147 0.10707 0.0881 0.0
C788 C 0.946 0.11435 0.07815 0.0
C789 C 0.00087 0.10984 0.10567 0.0
C790 C 0.03197 0.10276 0.11445 0.0
C791 C 0.05416 0.09711 0.09751 0.0
C792 C 0.08236 0.09019 0.10579 0.0
C793 C 0.08877 0.08888 0.13099 0.0
C794 C 0.06731 0.09455 0.14797 0.0
C795 C 0.03906 0.10147 0.1398 0.0
H796 H 0.11024 0.08344 0.1374 0.0
H797 H 0.83869 0.15028 0.05329 0.0
H798 H 0.89413 0.58324 0.18422 0.0
H799 H 0.88845 0.59995 0.16682 0.0
H800 H 0.81284 0.58873 0.10884 0.0
H801 H 0.81741 0.57204 0.12641 0.0
H802 H 0.90469 0.60456 0.10972 0.0
H803 H 0.75281 0.59881 0.11932 0.0
H804 H 0.69772 0.59296 0.14606 0.0
H805 H 0.74231 0.61088 0.20532 0.0
H806 H 0.798 0.61669 0.17896 0.0
H807 H 0.85486 0.64798 0.04535 0.0
H808 H 0.85485 0.63099 0.06092 0.0
H809 H 0.82477 0.64173 0.13349 0.0
H810 H 0.82211 0.6587 0.11746 0.0
H811 H 0.78594 0.62579 0.12596 0.0
H812 H 0.92394 0.63509 0.1153 0.0
H813 H 0.98287 0.64138 0.09267 0.0
H814 H 0.9728 0.61747 0.04101 0.0
H815 H 0.91349 0.61111 0.06313 0.0
C816 C 0.87629 0.58434 0.16778 0.0
C817 C 0.856 0.57639 0.15669 0.0
C818 C 0.87304 0.59385 0.15795 0.0
C819 C 0.84979 0.59548 0.13688 0.0
C820 C 0.83027 0.58756 0.12542 0.0
C821 C 0.83304 0.57806 0.1354 0.0
C822 C 0.84652 0.6055 0.12665 0.0
C823 C 0.87862 0.60921 0.11288 0.0
C824 C 0.81304 0.61153 0.13164 0.0
C825 C 0.77967 0.60806 0.14735 0.0
C826 C 0.75102 0.60141 0.13813 0.0
C827 C 0.71969 0.59812 0.15319 0.0
C828 C 0.71659 0.60152 0.1774 0.0
C829 C 0.7448 0.60823 0.18659 0.0
C830 C 0.77625 0.61151 0.17162 0.0
C831 C 0.84813 0.64668 0.0646 0.0
C832 C 0.83887 0.65457 0.08036 0.0
C833 C 0.84831 0.637 0.07349 0.0
C834 C 0.84083 0.63512 0.0985 0.0
C835 C 0.83077 0.64302 0.11415 0.0
C836 C 0.82939 0.65268 0.10506 0.0
C837 C 0.84399 0.62495 0.10838 0.0
C838 C 0.81201 0.62119 0.12237 0.0
C839 C 0.87808 0.61893 0.10389 0.0
C840 C 0.91408 0.62267 0.09075 0.0
C841 C 0.93418 0.6312 0.09903 0.0
C842 C 0.96765 0.63478 0.08631 0.0
C843 C 0.98151 0.62984 0.06539 0.0
C844 C 0.96201 0.62129 0.0572 0.0
C845 C 0.92849 0.61769 0.06984 0.0
H846 H 0.00741 0.63262 0.05555 0.0
H847 H 0.69229 0.59898 0.18902 0.0
H848 H 0.54593 0.40104 0.89212 0.0
H849 H 0.55044 0.38422 0.87557 0.0
H850 H 0.67691 0.38351 0.89225 0.0
H851 H 0.67268 0.40031 0.90902 0.0
H852 H 0.65421 0.37582 0.84419 0.0
H853 H 0.62002 0.37282 0.93073 0.0
H854 H 0.5792 0.37648 0.96747 0.0
H855 H 0.4747 0.36486 0.93146 0.0
H856 H 0.51481 0.36127 0.89436 0.0
H857 H 0.68576 0.3239 0.83507 0.0
H858 H 0.68455 0.34129 0.84792 0.0
H859 H 0.55507 0.34049 0.84995 0.0
H860 H 0.55627 0.32306 0.83827 0.0
H861 H 0.58026 0.34927 0.88838 0.0
H862 H 0.60977 0.35211 0.8025 0.0
H863 H 0.64636 0.3489 0.76388 0.0
H864 H 0.75354 0.36118 0.79527 0.0
H865 H 0.71771 0.36435 0.83421 0.0
C866 C 0.57475 0.39733 0.89208 0.0
C867 C 0.6089 0.40191 0.90202 0.0
C868 C 0.57724 0.38775 0.88266 0.0
C869 C 0.61394 0.38268 0.88292 0.0
C870 C 0.64839 0.38736 0.89197 0.0
C871 C 0.64585 0.3969 0.90164 0.0
C872 C 0.61588 0.37229 0.87485 0.0
C873 C 0.63849 0.36996 0.85392 0.0
C874 C 0.59436 0.36479 0.8873 0.0
C875 C 0.57034 0.36687 0.9097 0.0
C876 C 0.58827 0.37112 0.93058 0.0
C877 C 0.56528 0.37317 0.95148 0.0
C878 C 0.52436 0.37093 0.95177 0.0
C879 C 0.50638 0.36661 0.93119 0.0
C880 C 0.52924 0.36455 0.91024 0.0
C881 C 0.65712 0.32747 0.83827 0.0
C882 C 0.62114 0.32218 0.83577 0.0
C883 C 0.65642 0.3374 0.84544 0.0
C884 C 0.61967 0.34222 0.84956 0.0
C885 C 0.58375 0.33691 0.84691 0.0
C886 C 0.58448 0.32696 0.84024 0.0
C887 C 0.61844 0.3527 0.85743 0.0
C888 C 0.59602 0.35508 0.87846 0.0
C889 C 0.63951 0.36026 0.84475 0.0
C890 C 0.66115 0.35837 0.82136 0.0
C891 C 0.64122 0.35405 0.80123 0.0
C892 C 0.66181 0.35225 0.77927 0.0
C893 C 0.70228 0.35481 0.77715 0.0
C894 C 0.72221 0.35919 0.79696 0.0
C895 C 0.70177 0.361 0.81897 0.0
H896 H 0.71816 0.35341 0.76013 0.0
H897 H 0.50661 0.37252 0.96797 0.0
H898 H 0.67722 0.82296 0.8733 0.0
H899 H 0.70438 0.8396 0.86746 0.0
H900 H 0.65198 0.84876 0.93648 0.0
H901 H 0.62292 0.83222 0.94169 0.0
H902 H 0.64328 0.8627 0.90535 0.0
H903 H 0.75537 0.84374 0.93022 0.0
H904 H 0.80256 0.82967 0.93087 0.0
H905 H 0.83824 0.83626 0.85669 0.0
H906 H 0.79078 0.85027 0.85541 0.0
H907 H 0.74016 0.90783 0.8789 0.0
H908 H 0.74056 0.89233 0.90263 0.0
H909 H 0.74016 0.8756 0.83503 0.0
H910 H 0.7384 0.89101 0.81136 0.0
H911 H 0.7844 0.86668 0.87779 0.0
H912 H 0.65521 0.88212 0.85227 0.0
H913 H 0.60876 0.89637 0.85222 0.0
H914 H 0.60807 0.8964 0.93125 0.0
H915 H 0.6552 0.88226 0.93172 0.0
C916 C 0.67114 0.82858 0.88704 0.0
C917 C 0.64806 0.82637 0.90789 0.0
C918 C 0.68711 0.83803 0.8839 0.0
C919 C 0.68137 0.84533 0.90197 0.0
C920 C 0.65716 0.84321 0.92246 0.0
C921 C 0.64038 0.8338 0.92533 0.0
C922 C 0.69959 0.85524 0.89883 0.0
C923 C 0.67446 0.86357 0.90005 0.0
C924 C 0.74038 0.85643 0.89201 0.0
C925 C 0.76934 0.84805 0.89271 0.0
C926 C 0.7731 0.84216 0.91399 0.0
C927 C 0.79992 0.83419 0.91447 0.0
C928 C 0.82336 0.83207 0.89383 0.0
C929 C 0.82008 0.83792 0.87267 0.0
C930 C 0.79326 0.84589 0.87207 0.0
C931 C 0.74179 0.90083 0.86919 0.0
C932 C 0.73872 0.90051 0.84343 0.0
C933 C 0.74206 0.89202 0.88272 0.0
C934 C 0.7401 0.8829 0.87047 0.0
C935 C 0.74185 0.88261 0.84471 0.0
C936 C 0.7406 0.89138 0.83124 0.0
C937 C 0.72768 0.87388 0.88356 0.0
C938 C 0.75375 0.86576 0.88411 0.0
C939 C 0.68798 0.87288 0.89236 0.0
C940 C 0.65914 0.88125 0.89203 0.0
C941 C 0.64541 0.88522 0.86962 0.0
C942 C 0.61896 0.89327 0.86951 0.0
C943 C 0.60565 0.89732 0.89171 0.0
C944 C 0.61857 0.89329 0.91407 0.0
C945 C 0.64518 0.88526 0.91427 0.0
H946 H 0.58526 0.90357 0.89159 0.0
H947 H 0.8441 0.8259 0.89424 0.0
H948 H 0.5502 0.82005 0.35929 0.0
H949 H 0.53357 0.83692 0.37194 0.0
H950 H 0.60881 0.84862 0.3141 0.0
H951 H 0.62665 0.83178 0.30196 0.0
H952 H 0.62573 0.85726 0.35431 0.0
H953 H 0.50467 0.85052 0.31231 0.0
H954 H 0.44366 0.84142 0.30028 0.0
H955 H 0.3978 0.84401 0.37381 0.0
H956 H 0.45883 0.85297 0.38644 0.0
H957 H 0.51206 0.90499 0.3877 0.0
H958 H 0.51069 0.88922 0.36528 0.0
H959 H 0.58392 0.8758 0.42174 0.0
H960 H 0.58632 0.8915 0.44378 0.0
H961 H 0.48953 0.86974 0.37437 0.0
H962 H 0.65848 0.86357 0.39541 0.0
H963 H 0.71858 0.87363 0.40415 0.0
H964 H 0.66741 0.89818 0.36468 0.0
H965 H 0.6073 0.88821 0.35538 0.0
C966 C 0.56307 0.82624 0.34921 0.0
C967 C 0.59 0.82464 0.32978 0.0
C968 C 0.55314 0.83586 0.3563 0.0
C969 C 0.56948 0.84402 0.34375 0.0
C970 C 0.5958 0.84241 0.324 0.0
C971 C 0.60617 0.8328 0.31711 0.0
C972 C 0.56228 0.85418 0.35282 0.0
C973 C 0.59588 0.86 0.35843 0.0
C974 C 0.52328 0.85784 0.35778 0.0
C975 C 0.48656 0.85237 0.35037 0.0
C976 C 0.48177 0.84907 0.32599 0.0
C977 C 0.44713 0.84395 0.31906 0.0
C978 C 0.4169 0.84212 0.33629 0.0
C979 C 0.42125 0.84542 0.3605 0.0
C980 C 0.45586 0.85053 0.36755 0.0
C981 C 0.5273 0.89861 0.39546 0.0
C982 C 0.54995 0.89947 0.41716 0.0
C983 C 0.52637 0.88964 0.38271 0.0
C984 C 0.54789 0.88146 0.39167 0.0
C985 C 0.56781 0.88211 0.41434 0.0
C986 C 0.56918 0.89107 0.42687 0.0
C987 C 0.553 0.87252 0.37651 0.0
C988 C 0.51918 0.86698 0.36983 0.0
C989 C 0.59172 0.86919 0.36989 0.0
C990 C 0.62827 0.87516 0.37485 0.0
C991 C 0.66017 0.87109 0.38846 0.0
C992 C 0.69422 0.87678 0.39354 0.0
C993 C 0.69677 0.88654 0.38503 0.0
C994 C 0.66535 0.89062 0.37132 0.0
C995 C 0.63128 0.88496 0.36615 0.0
H996 H 0.72311 0.89094 0.38902 0.0
H997 H 0.39008 0.83817 0.33088 0.0
H998 H 0.64226 0.33155 0.41069 0.0
H999 H 0.65878 0.34741 0.39158 0.0
H1000 H 0.7793 0.33726 0.37759 0.0
H1001 H 0.76283 0.32118 0.39644 0.0
H1002 H 0.76132 0.35861 0.40158 0.0
H1003 H 0.74311 0.33814 0.33063 0.0
H1004 H 0.71048 0.32493 0.30654 0.0
H1005 H 0.59945 0.34106 0.30782 0.0
H1006 H 0.63124 0.35429 0.33226 0.0
H1007 H 0.73995 0.40612 0.33909 0.0
H1008 H 0.76502 0.38944 0.34863 0.0
H1009 H 0.64322 0.37859 0.35091 0.0
H1010 H 0.61831 0.39504 0.34067 0.0
H1011 H 0.6889 0.36672 0.32434 0.0
H1012 H 0.70146 0.38434 0.4035 0.0
H1013 H 0.7301 0.39715 0.43067 0.0
H1014 H 0.84879 0.38631 0.4158 0.0
H1015 H 0.82081 0.37352 0.38829 0.0
C1016 C 0.67233 0.33269 0.40367 0.0
C1017 C 0.70122 0.32515 0.40491 0.0
C1018 C 0.68169 0.34172 0.39279 0.0
C1019 C 0.72012 0.34339 0.3832 0.0
C1020 C 0.74951 0.33602 0.38493 0.0
C1021 C 0.73998 0.32688 0.39557 0.0
C1022 C 0.72806 0.35286 0.37082 0.0
C1023 C 0.74673 0.3604 0.38427 0.0
C1024 C 0.7088 0.35506 0.34836 0.0
C1025 C 0.68959 0.34719 0.33334 0.0
C1026 C 0.71168 0.33884 0.32591 0.0
C1027 C 0.69333 0.33135 0.31217 0.0
C1028 C 0.65291 0.33215 0.30566 0.0
C1029 C 0.63077 0.34045 0.31285 0.0
C1030 C 0.64897 0.34796 0.32661 0.0
C1031 C 0.71865 0.40016 0.3418 0.0
C1032 C 0.67722 0.40182 0.33911 0.0
C1033 C 0.733 0.39066 0.3472 0.0
C1034 C 0.70597 0.3828 0.35037 0.0
C1035 C 0.66461 0.38454 0.34822 0.0
C1036 C 0.65037 0.39395 0.3425 0.0
C1037 C 0.71971 0.37264 0.35596 0.0
C1038 C 0.70517 0.36495 0.34108 0.0
C1039 C 0.74249 0.37034 0.37721 0.0
C1040 C 0.75912 0.37809 0.39357 0.0
C1041 C 0.73368 0.38476 0.40585 0.0
C1042 C 0.74978 0.392 0.42134 0.0
C1043 C 0.79124 0.39258 0.42487 0.0
C1044 C 0.81669 0.38589 0.41297 0.0
C1045 C 0.80073 0.37864 0.39743 0.0
H1046 H 0.80364 0.39818 0.43689 0.0
H1047 H 0.63876 0.32635 0.29504 0.0
H1048 H 0.47539 0.56571 0.11891 0.0
H1049 H 0.48798 0.5806 0.1437 0.0
H1050 H 0.45447 0.599 0.08202 0.0
H1051 H 0.44073 0.58423 0.05749 0.0
H1052 H 0.52344 0.60607 0.11478 0.0
H1053 H 0.38205 0.59332 0.11504 0.0
H1054 H 0.33431 0.57974 0.12344 0.0
H1055 H 0.37854 0.57742 0.19748 0.0
H1056 H 0.42689 0.59091 0.18935 0.0
H1057 H 0.42881 0.65097 0.13166 0.0
H1058 H 0.45418 0.6345 0.1219 0.0
H1059 H 0.42616 0.62469 0.19573 0.0
H1060 H 0.39774 0.64103 0.2048 0.0
H1061 H 0.40459 0.61145 0.16811 0.0
H1062 H 0.52788 0.62805 0.17288 0.0
H1063 H 0.5784 0.64115 0.16668 0.0
H1064 H 0.57706 0.63581 0.08881 0.0
H1065 H 0.52608 0.62278 0.09445 0.0
C1066 C 0.47172 0.57295 0.11052 0.0
C1067 C 0.4566 0.57389 0.08649 0.0
C1068 C 0.47908 0.5814 0.12462 0.0
C1069 C 0.47219 0.59083 0.11456 0.0
C1070 C 0.46024 0.59176 0.08994 0.0
C1071 C 0.45204 0.58334 0.07606 0.0
C1072 C 0.47022 0.59964 0.13036 0.0
C1073 C 0.49783 0.60731 0.1267 0.0
C1074 C 0.43769 0.60099 0.14661 0.0
C1075 C 0.40825 0.59301 0.15153 0.0
C1076 C 0.38171 0.58986 0.13305 0.0
C1077 C 0.35455 0.58219 0.13777 0.0
C1078 C 0.35346 0.5777 0.16096 0.0
C1079 C 0.37946 0.58089 0.17951 0.0
C1080 C 0.40674 0.58854 0.17486 0.0
C1081 C 0.42808 0.64527 0.14571 0.0
C1082 C 0.41113 0.64716 0.16881 0.0
C1083 C 0.4432 0.6359 0.14032 0.0
C1084 C 0.44325 0.62839 0.1583 0.0
C1085 C 0.42668 0.63036 0.18157 0.0
C1086 C 0.41031 0.63965 0.18669 0.0
C1087 C 0.45699 0.61827 0.15186 0.0
C1088 C 0.43139 0.61028 0.15717 0.0
C1089 C 0.49213 0.6166 0.13772 0.0
C1090 C 0.523 0.62443 0.13412 0.0
C1091 C 0.53817 0.6297 0.15441 0.0
C1092 C 0.56692 0.63712 0.15099 0.0
C1093 C 0.58091 0.63932 0.12736 0.0
C1094 C 0.56622 0.63409 0.1071 0.0
C1095 C 0.53745 0.62667 0.11041 0.0
H1096 H 0.60317 0.64506 0.12476 0.0
H1097 H 0.33242 0.57176 0.16458 0.0
H1098 H 0.26999 0.15887 0.12185 0.0
H1099 H 0.26368 0.14281 0.14287 0.0
H1100 H 0.3075 0.128 0.0779 0.0
H1101 H 0.31497 0.14398 0.05712 0.0
H1102 H 0.23922 0.11827 0.10642 0.0
H1103 H 0.37473 0.13335 0.11396 0.0
H1104 H 0.41832 0.14725 0.1264 0.0
H1105 H 0.37112 0.14576 0.19987 0.0
H1106 H 0.32683 0.13193 0.18771 0.0
H1107 H 0.33469 0.0733 0.12571 0.0
H1108 H 0.31422 0.09007 0.11432 0.0
H1109 H 0.326 0.09925 0.19015 0.0
H1110 H 0.34953 0.08262 0.20112 0.0
H1111 H 0.35271 0.1129 0.1641 0.0
H1112 H 0.23162 0.09484 0.1603 0.0
H1113 H 0.18676 0.08103 0.14927 0.0
H1114 H 0.19892 0.08834 0.07269 0.0
H1115 H 0.24471 0.10204 0.08317 0.0
C1116 C 0.27744 0.15216 0.11195 0.0
C1117 C 0.2934 0.1526 0.08805 0.0
C1118 C 0.27371 0.14303 0.12391 0.0
C1119 C 0.28511 0.13431 0.11181 0.0
C1120 C 0.29834 0.1347 0.08736 0.0
C1121 C 0.30292 0.14381 0.07563 0.0
C1122 C 0.28895 0.12493 0.12535 0.0
C1123 C 0.26376 0.11703 0.11917 0.0
C1124 C 0.32016 0.12353 0.14254 0.0
C1125 C 0.34721 0.13171 0.14988 0.0
C1126 C 0.37346 0.13605 0.13271 0.0
C1127 C 0.39831 0.1439 0.13971 0.0
C1128 C 0.3974 0.14741 0.16389 0.0
C1129 C 0.37173 0.14305 0.18113 0.0
C1130 C 0.34676 0.13521 0.1742 0.0
C1131 C 0.33317 0.07896 0.13982 0.0
C1132 C 0.34369 0.07677 0.16418 0.0
C1133 C 0.32094 0.08849 0.13343 0.0
C1134 C 0.31727 0.09586 0.15153 0.0
C1135 C 0.3283 0.09368 0.1759 0.0
C1136 C 0.34185 0.08421 0.18214 0.0
C1137 C 0.30371 0.10595 0.14465 0.0
C1138 C 0.32718 0.11405 0.15204 0.0
C1139 C 0.27025 0.10754 0.12898 0.0
C1140 C 0.24186 0.09945 0.12255 0.0
C1141 C 0.22493 0.09347 0.14109 0.0
C1142 C 0.1994 0.08565 0.13493 0.0
C1143 C 0.19013 0.08379 0.11029 0.0
C1144 C 0.20621 0.08978 0.09176 0.0
C1145 C 0.23197 0.09758 0.09781 0.0
H1146 H 0.17038 0.07772 0.10556 0.0
H1147 H 0.41666 0.15349 0.16928 0.0
H1148 H 0.48433 0.07584 0.57893 0.0
H1149 H 0.51064 0.09277 0.58096 0.0
H1150 H 0.38986 0.10396 0.5886 0.0
H1151 H 0.36352 0.08717 0.58532 0.0
H1152 H 0.43038 0.11541 0.55869 0.0
H1153 H 0.46023 0.09884 0.63903 0.0
H1154 H 0.49616 0.08642 0.66418 0.0
H1155 H 0.60894 0.09715 0.63672 0.0
H1156 H 0.57358 0.10956 0.61124 0.0
H1157 H 0.38241 0.14682 0.64987 0.0
H1158 H 0.40248 0.13295 0.62413 0.0
H1159 H 0.51987 0.14584 0.61462 0.0
H1160 H 0.4996 0.16002 0.6403 0.0
H1161 H 0.51353 0.12437 0.631 0.0
H1162 H 0.47782 0.14538 0.56539 0.0
H1163 H 0.43868 0.15824 0.54382 0.0
H1164 H 0.33454 0.13953 0.54536 0.0
H1165 H 0.37279 0.12662 0.56728 0.0
C1166 C 0.46348 0.08194 0.581 0.0
C1167 C 0.42188 0.08024 0.58211 0.0
C1168 C 0.47856 0.09159 0.58211 0.0
C1169 C 0.45227 0.09962 0.58501 0.0
C1170 C 0.41074 0.09788 0.58608 0.0
C1171 C 0.39567 0.08829 0.58444 0.0
C1172 C 0.46701 0.10987 0.58836 0.0
C1173 C 0.449 0.11739 0.57429 0.0
C1174 C 0.49331 0.11248 0.60777 0.0
C1175 C 0.5143 0.10499 0.62299 0.0
C1176 C 0.49267 0.09849 0.63825 0.0
C1177 C 0.51292 0.09146 0.65257 0.0
C1178 C 0.55479 0.09096 0.65196 0.0
C1179 C 0.57651 0.09751 0.63709 0.0
C1180 C 0.55639 0.10453 0.62271 0.0
C1181 C 0.41247 0.14675 0.6423 0.0
C1182 C 0.43949 0.15447 0.64707 0.0
C1183 C 0.42379 0.13886 0.62747 0.0
C1184 C 0.4624 0.1385 0.61731 0.0
C1185 C 0.48982 0.14611 0.62218 0.0
C1186 C 0.47823 0.15414 0.6368 0.0
C1187 C 0.47344 0.12971 0.6029 0.0
C1188 C 0.49665 0.12245 0.6146 0.0
C1189 C 0.45159 0.12732 0.58148 0.0
C1190 C 0.42834 0.135 0.56792 0.0
C1191 C 0.44654 0.14401 0.5612 0.0
C1192 C 0.42449 0.15132 0.54891 0.0
C1193 C 0.38417 0.1497 0.54319 0.0
C1194 C 0.36582 0.14077 0.54974 0.0
C1195 C 0.38772 0.13343 0.56204 0.0
H1196 H 0.36714 0.15537 0.5337 0.0
H1197 H 0.57041 0.08552 0.66307 0.0
H1198 H 0.32742 0.64146 0.56296 0.0
H1199 H 0.31279 0.62511 0.58005 0.0
H1200 H 0.25131 0.63864 0.64124 0.0
H1201 H 0.26497 0.65512 0.62382 0.0
H1202 H 0.31899 0.62572 0.65241 0.0
H1203 H 0.1948 0.62509 0.61013 0.0
H1204 H 0.14848 0.62746 0.57523 0.0
H1205 H 0.21449 0.60615 0.53285 0.0
H1206 H 0.26145 0.60371 0.56739 0.0
H1207 H 0.32859 0.57572 0.69232 0.0
H1208 H 0.30019 0.59213 0.68385 0.0
H1209 H 0.32293 0.58799 0.60622 0.0
H1210 H 0.34866 0.57129 0.61469 0.0
H1211 H 0.25524 0.59694 0.61135 0.0
H1212 H 0.38822 0.60137 0.64747 0.0
H1213 H 0.43911 0.59948 0.68013 0.0
H1214 H 0.36144 0.6142 0.73144 0.0
H1215 H 0.30993 0.61609 0.6991 0.0
C1216 C 0.31023 0.64095 0.57985 0.0
C1217 C 0.29763 0.6495 0.59226 0.0
C1218 C 0.30154 0.63162 0.58942 0.0
C1219 C 0.28068 0.63073 0.61171 0.0
C1220 C 0.26704 0.63924 0.62385 0.0
C1221 C 0.27499 0.6486 0.61397 0.0
C1222 C 0.27892 0.62097 0.6237 0.0
C1223 C 0.30406 0.61943 0.64399 0.0
C1224 C 0.26 0.61285 0.61224 0.0
C1225 C 0.23178 0.61425 0.59136 0.0
C1226 C 0.19962 0.62095 0.59331 0.0
C1227 C 0.17322 0.62231 0.5736 0.0
C1228 C 0.17864 0.61699 0.55181 0.0
C1229 C 0.21035 0.61027 0.54974 0.0
C1230 C 0.23681 0.60888 0.56941 0.0
C1231 C 0.32754 0.5784 0.67351 0.0
C1232 C 0.34143 0.57249 0.65411 0.0
C1233 C 0.31129 0.58772 0.66867 0.0
C1234 C 0.31015 0.59136 0.64446 0.0
C1235 C 0.3235 0.58532 0.62505 0.0
C1236 C 0.33859 0.57588 0.62984 0.0
C1237 C 0.29712 0.60163 0.63925 0.0
C1238 C 0.26916 0.60324 0.62031 0.0
C1239 C 0.31407 0.60985 0.65164 0.0
C1240 C 0.34509 0.60876 0.671 0.0
C1241 C 0.38194 0.60415 0.66576 0.0
C1242 C 0.41089 0.60308 0.6842 0.0
C1243 C 0.40345 0.60668 0.70787 0.0
C1244 C 0.36711 0.61139 0.71312 0.0
C1245 C 0.33804 0.61247 0.69475 0.0
H1246 H 0.4259 0.60585 0.72212 0.0
H1247 H 0.15819 0.61806 0.53656 0.0
H1248 H 0.52172 0.28868 0.43676 0.0
H1249 H 0.45513 0.28715 0.41851 0.0
H1250 H 0.50807 0.28562 0.34616 0.0
H1251 H 0.57502 0.28718 0.36433 0.0
H1252 H 0.45049 0.29997 0.3499 0.0
H1253 H 0.4627 0.26553 0.37 0.0
H1254 H 0.47615 0.25114 0.39681 0.0
H1255 H 0.37992 0.25986 0.44463 0.0
H1256 H 0.36623 0.27439 0.41829 0.0
H1257 H 0.26537 0.29471 0.28937 0.0
H1258 H 0.3329 0.29117 0.30435 0.0
H1259 H 0.28859 0.29031 0.37895 0.0
H1260 H 0.22057 0.29358 0.36399 0.0
H1261 H 0.34311 0.2761 0.37205 0.0
H1262 H 0.33482 0.31102 0.35592 0.0
H1263 H 0.32131 0.32602 0.33125 0.0
H1264 H 0.4103 0.3171 0.27861 0.0
H1265 H 0.42396 0.30197 0.30282 0.0
C1266 C 0.51928 0.28785 0.417 0.0
C1267 C 0.55358 0.28811 0.40195 0.0
C1268 C 0.48119 0.28692 0.40661 0.0
C1269 C 0.4767 0.28623 0.381 0.0
C1270 C 0.51097 0.28612 0.36598 0.0
C1271 C 0.54916 0.28699 0.37638 0.0
C1272 C 0.43618 0.28663 0.36989 0.0
C1273 C 0.42723 0.29463 0.3543 0.0
C1274 C 0.40557 0.27985 0.3764 0.0
C1275 C 0.41364 0.2711 0.39225 0.0
C1276 C 0.4446 0.26443 0.38634 0.0
C1277 C 0.45223 0.25624 0.40143 0.0
C1278 C 0.42896 0.2546 0.42244 0.0
C1279 C 0.39794 0.26114 0.42836 0.0
C1280 C 0.3902 0.26935 0.41333 0.0
C1281 C 0.26994 0.29372 0.30896 0.0
C1282 C 0.23775 0.29453 0.32555 0.0
C1283 C 0.30857 0.29171 0.3175 0.0
C1284 C 0.31591 0.29064 0.34281 0.0
C1285 C 0.28361 0.29112 0.35935 0.0
C1286 C 0.24481 0.29304 0.35079 0.0
C1287 C 0.35748 0.28945 0.35206 0.0
C1288 C 0.36654 0.28136 0.36739 0.0
C1289 C 0.3882 0.29622 0.34561 0.0
C1290 C 0.38009 0.30531 0.33104 0.0
C1291 C 0.35128 0.31222 0.33898 0.0
C1292 C 0.34363 0.32075 0.3251 0.0
C1293 C 0.36485 0.3225 0.30334 0.0
C1294 C 0.39384 0.31573 0.29545 0.0
C1295 C 0.40156 0.30718 0.30925 0.0
H1296 H 0.3589 0.32911 0.29262 0.0
H1297 H 0.43492 0.24825 0.4341 0.0
H1298 H 0.02921 0.94042 0.38125 0.0
H1299 H 0.96066 0.94261 0.39642 0.0
H1300 H 0.9152 0.93964 0.32248 0.0
H1301 H 0.98355 0.93747 0.30713 0.0
H1302 H 0.87461 0.95417 0.35007 0.0
H1303 H 0.91559 0.92001 0.3567 0.0
H1304 H 0.96035 0.90635 0.36929 0.0
H1305 H 0.94507 0.91438 0.44516 0.0
H1306 H 0.90065 0.92819 0.43296 0.0
H1307 H 0.67491 0.93727 0.37677 0.0
H1308 H 0.74296 0.94008 0.36116 0.0
H1309 H 0.78819 0.94036 0.43558 0.0
H1310 H 0.72075 0.9374 0.45122 0.0
H1311 H 0.82938 0.92786 0.40772 0.0
H1312 H 0.78426 0.96152 0.40106 0.0
H1313 H 0.73941 0.97509 0.38804 0.0
H1314 H 0.76141 0.96801 0.31221 0.0
H1315 H 0.80598 0.9543 0.32478 0.0
C1316 C 0.00468 0.94038 0.36818 0.0
C1317 C 0.01165 0.93865 0.34306 0.0
C1318 C 0.9656 0.94163 0.37687 0.0
C1319 C 0.933 0.94118 0.36056 0.0
C1320 C 0.94003 0.94001 0.33531 0.0
C1321 C 0.97906 0.93871 0.32662 0.0
C1322 C 0.89151 0.94101 0.37006 0.0
C1323 C 0.86449 0.94839 0.36254 0.0
C1324 C 0.87869 0.93353 0.38651 0.0
C1325 C 0.90518 0.92519 0.3939 0.0
C1326 C 0.92205 0.91891 0.37605 0.0
C1327 C 0.94731 0.91114 0.38312 0.0
C1328 C 0.95565 0.90952 0.40801 0.0
C1329 C 0.93864 0.91565 0.42588 0.0
C1330 C 0.91341 0.92345 0.41891 0.0
C1331 C 0.69933 0.93806 0.38978 0.0
C1332 C 0.6926 0.93704 0.41519 0.0
C1333 C 0.73812 0.93971 0.38085 0.0
C1334 C 0.77057 0.94045 0.39724 0.0
C1335 C 0.76357 0.93978 0.42263 0.0
C1336 C 0.725 0.93809 0.43152 0.0
C1337 C 0.81226 0.9411 0.38804 0.0
C1338 C 0.83938 0.93372 0.39546 0.0
C1339 C 0.82497 0.94858 0.37149 0.0
C1340 C 0.79815 0.95682 0.36387 0.0
C1341 C 0.77926 0.9628 0.38161 0.0
C1342 C 0.75395 0.97053 0.37431 0.0
C1343 C 0.74748 0.97239 0.34932 0.0
C1344 C 0.7664 0.96655 0.33157 0.0
C1345 C 0.79173 0.9588 0.33877 0.0
H1346 H 0.72788 0.97838 0.34371 0.0
H1347 H 0.9752 0.90349 0.41344 0.0
H1348 H 0.58324 0.92852 0.88498 0.0
H1349 H 0.51508 0.92984 0.90167 0.0
H1350 H 0.46624 0.92615 0.82874 0.0
H1351 H 0.53397 0.92477 0.81197 0.0
H1352 H 0.43171 0.94196 0.85546 0.0
H1353 H 0.46444 0.90723 0.86554 0.0
H1354 H 0.50686 0.89343 0.88005 0.0
H1355 H 0.49218 0.90314 0.95472 0.0
H1356 H 0.45011 0.9171 0.9406 0.0
H1357 H 0.2282 0.93028 0.87829 0.0
H1358 H 0.29818 0.93078 0.86493 0.0
H1359 H 0.33697 0.92977 0.94069 0.0
H1360 H 0.26713 0.929 0.95413 0.0
H1361 H 0.37868 0.91717 0.9147 0.0
H1362 H 0.34317 0.95125 0.90595 0.0
H1363 H 0.30289 0.96558 0.8923 0.0
H1364 H 0.32444 0.95788 0.8168 0.0
H1365 H 0.36441 0.94342 0.83 0.0
C1366 C 0.55794 0.92798 0.87254 0.0
C1367 C 0.56386 0.92652 0.8472 0.0
C1368 C 0.51913 0.92873 0.88208 0.0
C1369 C 0.48579 0.92809 0.86638 0.0
C1370 C 0.49166 0.92669 0.8411 0.0
C1371 C 0.53035 0.92584 0.8316 0.0
C1372 C 0.44461 0.92873 0.87625 0.0
C1373 C 0.41987 0.93651 0.86825 0.0
C1374 C 0.42983 0.92176 0.89344 0.0
C1375 C 0.45445 0.91326 0.90199 0.0
C1376 C 0.47046 0.90646 0.88504 0.0
C1377 C 0.49438 0.8986 0.89319 0.0
C1378 C 0.50227 0.89742 0.91829 0.0
C1379 C 0.48609 0.90407 0.93528 0.0
C1380 C 0.46216 0.91195 0.92722 0.0
C1381 C 0.25164 0.93024 0.89209 0.0
C1382 C 0.24221 0.92959 0.91724 0.0
C1383 C 0.29162 0.93057 0.88445 0.0
C1384 C 0.32283 0.93041 0.90184 0.0
C1385 C 0.31339 0.92989 0.92697 0.0
C1386 C 0.27347 0.92948 0.93461 0.0
C1387 C 0.3653 0.93037 0.89376 0.0
C1388 C 0.3904 0.9227 0.90208 0.0
C1389 C 0.3805 0.9375 0.87702 0.0
C1390 C 0.3565 0.9462 0.86898 0.0
C1391 C 0.33906 0.95257 0.88644 0.0
C1392 C 0.31633 0.96072 0.87878 0.0
C1393 C 0.31103 0.96262 0.8537 0.0
C1394 C 0.32854 0.95639 0.83622 0.0
C1395 C 0.35127 0.94822 0.84378 0.0
H1396 H 0.29343 0.96894 0.84781 0.0
H1397 H 0.52088 0.89134 0.92456 0.0
H1398 H 0.69552 0.27245 0.87169 0.0
H1399 H 0.76148 0.26792 0.88793 0.0
H1400 H 0.81299 0.27156 0.81563 0.0
H1401 H 0.74724 0.27583 0.79917 0.0
H1402 H 0.85336 0.2575 0.84173 0.0
H1403 H 0.80617 0.29118 0.85342 0.0
H1404 H 0.75835 0.30385 0.86792 0.0
H1405 H 0.77212 0.29339 0.94216 0.0
H1406 H 0.81963 0.28056 0.92799 0.0
H1407 H 0.04283 0.28081 0.86013 0.0
H1408 H 0.97587 0.27491 0.8489 0.0
H1409 H 0.94511 0.27228 0.92578 0.0
H1410 H 0.01154 0.27831 0.93711 0.0
H1411 H 0.89263 0.28338 0.90187 0.0
H1412 H 0.95265 0.25169 0.88917 0.0
H1413 H 0.00205 0.2398 0.87282 0.0
H1414 H 0.96697 0.24716 0.79896 0.0
H1415 H 0.91773 0.25921 0.81485 0.0
C1416 C 0.72066 0.27198 0.85912 0.0
C1417 C 0.71643 0.27472 0.83428 0.0
C1418 C 0.75831 0.26939 0.86842 0.0
C1419 C 0.79222 0.26964 0.85308 0.0
C1420 C 0.78726 0.27137 0.82781 0.0
C1421 C 0.74964 0.27388 0.81847 0.0
C1422 C 0.8331 0.2698 0.86368 0.0
C1423 C 0.86208 0.26313 0.85493 0.0
C1424 C 0.84427 0.27709 0.88105 0.0
C1425 C 0.81601 0.28485 0.88962 0.0
C1426 C 0.79877 0.29155 0.87281 0.0
C1427 C 0.77176 0.29876 0.88096 0.0
C1428 C 0.7621 0.2994 0.90594 0.0
C1429 C 0.77955 0.29286 0.92281 0.0
C1430 C 0.80651 0.28562 0.91473 0.0
C1431 C 0.02201 0.27881 0.87462 0.0
C1432 C 0.03222 0.28014 0.89948 0.0
C1433 C 0.98387 0.27537 0.86819 0.0
C1434 C 0.95558 0.27311 0.88653 0.0
C1435 C 0.96649 0.27398 0.91135 0.0
C1436 C 0.00443 0.27745 0.91778 0.0
C1437 C 0.91328 0.2711 0.8799 0.0
C1438 C 0.88396 0.27754 0.88923 0.0
C1439 C 0.90216 0.26367 0.86287 0.0
C1440 C 0.93165 0.25641 0.85322 0.0
C1441 C 0.95566 0.25083 0.86943 0.0
C1442 C 0.98361 0.24405 0.86025 0.0
C1443 C 0.9877 0.24274 0.83487 0.0
C1444 C 0.96378 0.24819 0.81862 0.0
C1445 C 0.9358 0.25498 0.82771 0.0
H1446 H 0.00935 0.23749 0.82779 0.0
H1447 H 0.74119 0.30499 0.91222 0.0
H1448 H 0.74422 0.69896 0.69717 0.0
H1449 H 0.6747 0.70226 0.68546 0.0
H1450 H 0.70344 0.69586 0.60971 0.0
H1451 H 0.77323 0.69283 0.62116 0.0
H1452 H 0.64643 0.71006 0.61266 0.0
H1453 H 0.6709 0.67758 0.64845 0.0
H1454 H 0.69422 0.66622 0.68112 0.0
H1455 H 0.61098 0.67926 0.73196 0.0
H1456 H 0.58753 0.69078 0.69963 0.0
H1457 H 0.47839 0.68617 0.56183 0.0
H1458 H 0.54301 0.69144 0.57821 0.0
H1459 H 0.4882 0.69728 0.64864 0.0
H1460 H 0.4232 0.6919 0.63241 0.0
H1461 H 0.5544 0.68611 0.65306 0.0
H1462 H 0.52076 0.71639 0.61308 0.0
H1463 H 0.49763 0.72711 0.57915 0.0
H1464 H 0.5974 0.71783 0.53485 0.0
H1465 H 0.62083 0.70692 0.56838 0.0
C1466 C 0.73592 0.69848 0.67793 0.0
C1467 C 0.76393 0.69547 0.66012 0.0
C1468 C 0.69621 0.70037 0.67129 0.0
C1469 C 0.68377 0.69907 0.64683 0.0
C1470 C 0.7124 0.69686 0.62871 0.0
C1471 C 0.75224 0.69509 0.63529 0.0
C1472 C 0.64059 0.69878 0.64054 0.0
C1473 C 0.62622 0.70483 0.62144 0.0
C1474 C 0.61409 0.6921 0.6524 0.0
C1475 C 0.62782 0.68511 0.67174 0.0
C1476 C 0.65775 0.67806 0.66664 0.0
C1477 C 0.67097 0.67159 0.68508 0.0
C1478 C 0.65418 0.67204 0.70862 0.0
C1479 C 0.62402 0.67894 0.71374 0.0
C1480 C 0.61075 0.68543 0.69537 0.0
C1481 C 0.47996 0.68864 0.58076 0.0
C1482 C 0.44576 0.68857 0.59588 0.0
C1483 C 0.51687 0.69174 0.59003 0.0
C1484 C 0.52028 0.69488 0.61454 0.0
C1485 C 0.4861 0.69494 0.62962 0.0
C1486 C 0.44906 0.69185 0.62034 0.0
C1487 C 0.56025 0.69725 0.62481 0.0
C1488 C 0.57415 0.69154 0.64463 0.0
C1489 C 0.58626 0.70418 0.61344 0.0
C1490 C 0.57243 0.71078 0.59324 0.0
C1491 C 0.53763 0.71657 0.59605 0.0
C1492 C 0.52449 0.7227 0.57689 0.0
C1493 C 0.546 0.72314 0.55485 0.0
C1494 C 0.58077 0.71748 0.55194 0.0
C1495 C 0.59403 0.71133 0.57103 0.0
H1496 H 0.53577 0.72789 0.54003 0.0
H1497 H 0.66447 0.66704 0.72288 0.0
H1498 H 0.98231 0.028 0.70309 0.0
H1499 H 0.05175 0.02587 0.68976 0.0
H1500 H 0.01472 0.02863 0.61398 0.0
H1501 H 0.94501 0.03057 0.62714 0.0
H1502 H 0.07729 0.01567 0.61886 0.0
H1503 H 0.04404 0.04884 0.64513 0.0
H1504 H 0.01882 0.06144 0.67411 0.0
H1505 H 0.10879 0.05299 0.7267 0.0
H1506 H 0.1342 0.04025 0.69812 0.0
H1507 H 0.24113 0.03956 0.56069 0.0
H1508 H 0.17734 0.03415 0.57817 0.0
H1509 H 0.2323 0.03175 0.64982 0.0
H1510 H 0.29645 0.03721 0.63244 0.0
H1511 H 0.164 0.04268 0.65059 0.0
H1512 H 0.20361 0.01107 0.62 0.0
H1513 H 0.22845 -0.00093 0.58941 0.0
H1514 H 0.12684 0.00511 0.54318 0.0
H1515 H 0.10166 0.01726 0.57333 0.0
C1516 C 0.98879 0.02791 0.68355 0.0
C1517 C 0.95831 0.0296 0.66616 0.0
C1518 C 0.0285 0.02671 0.67598 0.0
C1519 C 0.03845 0.02732 0.65093 0.0
C1520 C 0.00768 0.02819 0.63342 0.0
C1521 C 0.96786 0.02931 0.64097 0.0
C1522 C 0.08091 0.02822 0.64317 0.0
C1523 C 0.09628 0.02158 0.6257 0.0
C1524 C 0.10584 0.03585 0.65245 0.0
C1525 C 0.09069 0.04352 0.66962 0.0
C1526 C 0.05823 0.04962 0.66295 0.0
C1527 C 0.04394 0.05679 0.67929 0.0
C1528 C 0.06211 0.05799 0.70227 0.0
C1529 C 0.09469 0.05204 0.70892 0.0
C1530 C 0.10906 0.04484 0.69266 0.0
C1531 C 0.23981 0.03778 0.58013 0.0
C1532 C 0.27377 0.03886 0.59523 0.0
C1533 C 0.20337 0.03462 0.59005 0.0
C1534 C 0.20019 0.03246 0.61525 0.0
C1535 C 0.23422 0.03334 0.6303 0.0
C1536 C 0.2708 0.03645 0.62035 0.0
C1537 C 0.16048 0.03018 0.6261 0.0
C1538 C 0.14543 0.03662 0.64408 0.0
C1539 C 0.13587 0.02244 0.61708 0.0
C1540 C 0.15089 0.01513 0.59888 0.0
C1541 C 0.18671 0.0099 0.60322 0.0
C1542 C 0.20083 0.00306 0.58598 0.0
C1543 C 0.17927 0.00134 0.56435 0.0
C1544 C 0.14351 0.00645 0.55994 0.0
C1545 C 0.12928 0.0133 0.57713 0.0
H1546 H 0.19025 -0.00396 0.55102 0.0
H1547 H 0.05101 0.06355 0.71489 0.0
H1548 H 0.46671 0.03595 0.12368 0.0
H1549 H 0.5352 0.03274 0.1098 0.0
H1550 H 0.57583 0.03241 0.18522 0.0
H1551 H 0.50761 0.03583 0.1992 0.0
H1552 H 0.6193 0.04465 0.15859 0.0
H1553 H 0.57522 0.01117 0.14986 0.0
H1554 H 0.53103 -0.0024 0.13616 0.0
H1555 H 0.55368 0.00527 0.06069 0.0
H1556 H 0.59759 0.01898 0.07393 0.0
H1557 H 0.81982 0.03488 0.12584 0.0
H1558 H 0.75332 0.03177 0.14326 0.0
H1559 H 0.7009 0.03415 0.07089 0.0
H1560 H 0.76724 0.03716 0.05329 0.0
H1561 H 0.66532 0.01942 0.09857 0.0
H1562 H 0.7018 0.05388 0.10727 0.0
H1563 H 0.74482 0.06778 0.1203 0.0
H1564 H 0.73475 0.05839 0.19562 0.0
H1565 H 0.69209 0.04434 0.18297 0.0
C1566 C 0.49012 0.03503 0.13732 0.0
C1567 C 0.48188 0.03623 0.16251 0.0
C1568 C 0.52923 0.03314 0.12937 0.0
C1569 C 0.5606 0.03228 0.1465 0.0
C1570 C 0.55206 0.03305 0.17171 0.0
C1571 C 0.51307 0.03501 0.17965 0.0
C1572 C 0.60277 0.03162 0.13804 0.0
C1573 C 0.62955 0.03899 0.14591 0.0
C1574 C 0.61583 0.0244 0.12095 0.0
C1575 C 0.58947 0.01615 0.11291 0.0
C1576 C 0.57054 0.01001 0.13034 0.0
C1577 C 0.54558 0.00229 0.12266 0.0
C1578 C 0.53949 0.00059 0.09758 0.0
C1579 C 0.55841 0.0066 0.08012 0.0
C1580 C 0.58338 0.01434 0.0877 0.0
C1581 C 0.79422 0.0346 0.11359 0.0
C1582 C 0.79867 0.03638 0.08824 0.0
C1583 C 0.75628 0.03283 0.12357 0.0
C1584 C 0.72222 0.03286 0.10838 0.0
C1585 C 0.72684 0.0341 0.08291 0.0
C1586 C 0.76474 0.03587 0.07291 0.0
C1587 C 0.68152 0.03243 0.11918 0.0
C1588 C 0.65507 0.02494 0.11162 0.0
C1589 C 0.66855 0.03955 0.13651 0.0
C1590 C 0.69419 0.04799 0.14414 0.0
C1591 C 0.70906 0.05473 0.12658 0.0
C1592 C 0.73332 0.06264 0.1339 0.0
C1593 C 0.74262 0.06395 0.15876 0.0
C1594 C 0.72759 0.05735 0.17636 0.0
C1595 C 0.70337 0.04942 0.16913 0.0
H1596 H 0.7614 0.07008 0.16439 0.0
H1597 H 0.52016 -0.0054 0.09167 0.0
H1598 H 0.98128 0.69794 0.04262 0.0
H1599 H 0.04984 0.70021 0.05742 0.0
H1600 H 0.00826 0.69809 0.13244 0.0
H1601 H 0.93944 0.69599 0.1178 0.0
H1602 H 0.07175 0.71108 0.12787 0.0
H1603 H 0.03823 0.67761 0.10415 0.0
H1604 H 0.01335 0.66473 0.07583 0.0
H1605 H 0.10548 0.67224 0.02379 0.0
H1606 H 0.13061 0.68525 0.05172 0.0
H1607 H 0.23194 0.68723 0.19058 0.0
H1608 H 0.16897 0.69261 0.17183 0.0
H1609 H 0.22697 0.69436 0.10097 0.0
H1610 H 0.2902 0.68896 0.1196 0.0
H1611 H 0.15843 0.68333 0.10014 0.0
H1612 H 0.19826 0.71526 0.12882 0.0
H1613 H 0.2222 0.72757 0.15889 0.0
H1614 H 0.11808 0.72244 0.20365 0.0
H1615 H 0.09376 0.70998 0.17403 0.0
C1616 C 0.98658 0.69819 0.06228 0.0
C1617 C 0.95514 0.69661 0.07907 0.0
C1618 C 0.02575 0.69949 0.07069 0.0
C1619 C 0.03412 0.69911 0.09598 0.0
C1620 C 0.00238 0.69837 0.11283 0.0
C1621 C 0.96311 0.69713 0.10444 0.0
C1622 C 0.07598 0.69819 0.1047 0.0
C1623 C 0.09077 0.70501 0.12191 0.0
C1624 C 0.10083 0.69034 0.09661 0.0
C1625 C 0.08599 0.68247 0.07988 0.0
C1626 C 0.05299 0.67656 0.08659 0.0
C1627 C 0.03887 0.66923 0.07063 0.0
C1628 C 0.05774 0.66769 0.04799 0.0
C1629 C 0.09085 0.67345 0.04131 0.0
C1630 C 0.10506 0.6808 0.0572 0.0
C1631 C 0.23141 0.68884 0.17105 0.0
C1632 C 0.26592 0.6876 0.15652 0.0
C1633 C 0.19549 0.692 0.16041 0.0
C1634 C 0.19346 0.69396 0.13507 0.0
C1635 C 0.22805 0.69292 0.12059 0.0
C1636 C 0.26407 0.68982 0.13125 0.0
C1637 C 0.15438 0.6962 0.12344 0.0
C1638 C 0.1399 0.68954 0.10577 0.0
C1639 C 0.12982 0.70413 0.13137 0.0
C1640 C 0.14434 0.71162 0.14927 0.0
C1641 C 0.18062 0.71669 0.14518 0.0
C1642 C 0.19423 0.72371 0.16212 0.0
C1643 C 0.17171 0.72577 0.18319 0.0
C1644 C 0.1355 0.72083 0.18733 0.0
C1645 C 0.12176 0.7138 0.17044 0.0
H1646 H 0.1823 0.73121 0.19629 0.0
H1647 H 0.04677 0.66201 0.03565 0.0
H1648 H 0.48552 0.78421 0.93711 0.0
H1649 H 0.42068 0.77975 0.91947 0.0
H1650 H 0.47638 0.77556 0.84857 0.0
H1651 H 0.5414 0.7801 0.86603 0.0
H1652 H 0.41682 0.78892 0.84714 0.0
H1653 H 0.43346 0.75611 0.87804 0.0
H1654 H 0.4483 0.74319 0.90886 0.0
H1655 H 0.34912 0.75301 0.95293 0.0
H1656 H 0.334 0.7661 0.92255 0.0
H1657 H 0.23252 0.78127 0.78975 0.0
H1658 H 0.29894 0.77694 0.80531 0.0
H1659 H 0.25746 0.7811 0.8798 0.0
H1660 H 0.19043 0.78521 0.86436 0.0
H1661 H 0.31153 0.76578 0.87665 0.0
H1662 H 0.30223 0.79987 0.8504 0.0
H1663 H 0.28744 0.81343 0.82126 0.0
H1664 H 0.37394 0.80171 0.77048 0.0
H1665 H 0.38884 0.788 0.79922 0.0
C1666 C 0.48414 0.78214 0.91787 0.0
C1667 C 0.5184 0.78265 0.90285 0.0
C1668 C 0.4471 0.77951 0.90787 0.0
C1669 C 0.44378 0.7773 0.88273 0.0
C1670 C 0.47839 0.77722 0.86803 0.0
C1671 C 0.51546 0.77984 0.87803 0.0
C1672 C 0.40371 0.77662 0.87119 0.0
C1673 C 0.39414 0.78368 0.85315 0.0
C1674 C 0.37379 0.77001 0.87971 0.0
C1675 C 0.38277 0.76215 0.89806 0.0
C1676 C 0.415 0.75558 0.89439 0.0
C1677 C 0.42342 0.74821 0.91177 0.0
C1678 C 0.39971 0.74729 0.93286 0.0
C1679 C 0.36747 0.75373 0.93659 0.0
C1680 C 0.35893 0.76112 0.91927 0.0
C1681 C 0.23736 0.78114 0.80947 0.0
C1682 C 0.20653 0.78374 0.82585 0.0
C1683 C 0.27529 0.77864 0.81831 0.0
C1684 C 0.28323 0.77887 0.84366 0.0
C1685 C 0.2519 0.78089 0.86016 0.0
C1686 C 0.21374 0.78329 0.85132 0.0
C1687 C 0.32495 0.77808 0.8527 0.0
C1688 C 0.33462 0.77085 0.87034 0.0
C1689 C 0.3551 0.7846 0.84408 0.0
C1690 C 0.34629 0.79285 0.82682 0.0
C1691 C 0.31786 0.80015 0.83294 0.0
C1692 C 0.3095 0.80786 0.81651 0.0
C1693 C 0.32965 0.80841 0.79399 0.0
C1694 C 0.35829 0.80126 0.7879 0.0
C1695 C 0.36672 0.79352 0.80425 0.0
H1696 H 0.32314 0.8144 0.7813 0.0
H1697 H 0.40628 0.74158 0.94629 0.0
H1698 H 0.67805 0.44788 0.86984 0.0
H1699 H 0.74377 0.45171 0.8523 0.0
H1700 H 0.79462 0.45295 0.92521 0.0
H1701 H 0.72906 0.44912 0.94294 0.0
H1702 H 0.83165 0.46632 0.89012 0.0
H1703 H 0.79425 0.43178 0.90047 0.0
H1704 H 0.7493 0.41742 0.89512 0.0
H1705 H 0.75788 0.42041 0.81659 0.0
H1706 H 0.80236 0.43491 0.82151 0.0
H1707 H 0.02951 0.44687 0.87674 0.0
H1708 H 0.96135 0.45193 0.8877 0.0
H1709 H 0.92135 0.44502 0.81415 0.0
H1710 H 0.98902 0.4397 0.80334 0.0
H1711 H 0.87666 0.43603 0.84635 0.0
H1712 H 0.92369 0.46922 0.83638 0.0
H1713 H 0.96894 0.48346 0.84247 0.0
H1714 H 0.94394 0.48309 0.92 0.0
H1715 H 0.89895 0.46875 0.91444 0.0
C1716 C 0.7029 0.44929 0.88219 0.0
C1717 C 0.69864 0.448 0.90773 0.0
C1718 C 0.74039 0.45149 0.87213 0.0
C1719 C 0.774 0.45245 0.88749 0.0
C1720 C 0.76897 0.45222 0.91309 0.0
C1721 C 0.73154 0.44997 0.92317 0.0
C1722 C 0.81481 0.45187 0.87702 0.0
C1723 C 0.84171 0.45973 0.88054 0.0
C1724 C 0.82752 0.44328 0.86435 0.0
C1725 C 0.80118 0.4345 0.86136 0.0
C1726 C 0.78626 0.42942 0.88207 0.0
C1727 C 0.76092 0.42126 0.87912 0.0
C1728 C 0.75064 0.41802 0.85553 0.0
C1729 C 0.7658 0.42294 0.83485 0.0
C1730 C 0.79106 0.43113 0.83771 0.0
C1731 C 0.0063 0.4466 0.86281 0.0
C1732 C 0.01443 0.4428 0.83928 0.0
C1733 C 0.96741 0.44955 0.86904 0.0
C1734 C 0.93625 0.44889 0.8517 0.0
C1735 C 0.94489 0.44557 0.82783 0.0
C1736 C 0.98357 0.44252 0.82169 0.0
C1737 C 0.89402 0.45054 0.85917 0.0
C1738 C 0.86673 0.44277 0.85537 0.0
C1739 C 0.88123 0.45921 0.87158 0.0
C1740 C 0.90817 0.46785 0.87501 0.0
C1741 C 0.92807 0.47212 0.85476 0.0
C1742 C 0.95364 0.48022 0.85811 0.0
C1743 C 0.95938 0.48416 0.88161 0.0
C1744 C 0.93948 0.48002 0.90181 0.0
C1745 C 0.9139 0.47192 0.89856 0.0
H1746 H 0.97918 0.49043 0.88417 0.0
H1747 H 0.73102 0.4117 0.85328 0.0
H1748 H 0.49178 0.43878 0.308 0.0
H1749 H 0.4262 0.44084 0.32732 0.0
H1750 H 0.48295 0.44378 0.39829 0.0
H1751 H 0.54883 0.44173 0.37907 0.0
H1752 H 0.42723 0.42894 0.39674 0.0
H1753 H 0.43377 0.46314 0.37459 0.0
H1754 H 0.44414 0.47745 0.34704 0.0
H1755 H 0.3468 0.46774 0.30132 0.0
H1756 H 0.33619 0.45328 0.32839 0.0
H1757 H 0.24171 0.43187 0.4577 0.0
H1758 H 0.3083 0.43639 0.44276 0.0
H1759 H 0.2638 0.43673 0.36815 0.0
H1760 H 0.1966 0.43256 0.38314 0.0
H1761 H 0.3152 0.45148 0.37461 0.0
H1762 H 0.31458 0.41647 0.39216 0.0
H1763 H 0.30452 0.40155 0.41775 0.0
H1764 H 0.39146 0.41218 0.46968 0.0
H1765 H 0.40166 0.42723 0.44454 0.0
C1766 C 0.49038 0.44007 0.32765 0.0
C1767 C 0.52538 0.43999 0.34207 0.0
C1768 C 0.45289 0.44131 0.33864 0.0
C1769 C 0.44979 0.44248 0.36422 0.0
C1770 C 0.48481 0.44291 0.3785 0.0
C1771 C 0.52237 0.44174 0.36749 0.0
C1772 C 0.41003 0.44194 0.37621 0.0
C1773 C 0.40297 0.43401 0.39236 0.0
C1774 C 0.37816 0.44837 0.36978 0.0
C1775 C 0.38438 0.45707 0.35345 0.0
C1776 C 0.41478 0.464 0.35855 0.0
C1777 C 0.42065 0.47216 0.34304 0.0
C1778 C 0.39619 0.4735 0.32242 0.0
C1779 C 0.36574 0.46669 0.3173 0.0
C1780 C 0.35974 0.45852 0.33274 0.0
C1781 C 0.24608 0.43293 0.43812 0.0
C1782 C 0.21412 0.43174 0.42153 0.0
C1783 C 0.28414 0.43552 0.4296 0.0
C1784 C 0.2912 0.43672 0.4043 0.0
C1785 C 0.25904 0.43582 0.38776 0.0
C1786 C 0.22075 0.43338 0.39631 0.0
C1787 C 0.33243 0.43843 0.39499 0.0
C1788 C 0.33968 0.44652 0.37928 0.0
C1789 C 0.36453 0.43208 0.40153 0.0
C1790 C 0.35855 0.42302 0.41662 0.0
C1791 C 0.33133 0.41566 0.40913 0.0
C1792 C 0.32564 0.40717 0.42354 0.0
C1793 C 0.34725 0.40593 0.44537 0.0
C1794 C 0.37469 0.41316 0.4528 0.0
C1795 C 0.38046 0.42167 0.43847 0.0
H1796 H 0.3428 0.39936 0.45649 0.0
H1797 H 0.40079 0.47981 0.31043 0.0
H1798 H 0.76028 0.78591 0.29542 0.0
H1799 H 0.82746 0.78237 0.31102 0.0
H1800 H 0.77931 0.7783 0.38405 0.0
H1801 H 0.71194 0.78192 0.36862 0.0
H1802 H 0.83985 0.79137 0.38344 0.0
H1803 H 0.81773 0.75875 0.35258 0.0
H1804 H 0.79888 0.74611 0.32199 0.0
H1805 H 0.89404 0.75585 0.27449 0.0
H1806 H 0.91313 0.76865 0.30465 0.0
H1807 H 0.02752 0.78179 0.43517 0.0
H1808 H 0.95921 0.77835 0.42147 0.0
H1809 H 0.99611 0.78213 0.34591 0.0
H1810 H 0.06501 0.78529 0.35951 0.0
H1811 H 0.93983 0.7677 0.35003 0.0
H1812 H 0.9562 0.80139 0.37785 0.0
H1813 H 0.97489 0.81445 0.40742 0.0
H1814 H 0.88952 0.80303 0.45942 0.0
H1815 H 0.87071 0.78981 0.43026 0.0
C1816 C 0.76388 0.78411 0.31474 0.0
C1817 C 0.73088 0.78427 0.33084 0.0
C1818 C 0.80228 0.78203 0.32359 0.0
C1819 C 0.80833 0.78002 0.34866 0.0
C1820 C 0.77523 0.77981 0.36462 0.0
C1821 C 0.73678 0.78188 0.35577 0.0
C1822 C 0.84957 0.77918 0.35859 0.0
C1823 C 0.86144 0.78604 0.37652 0.0
C1824 C 0.87801 0.77242 0.349 0.0
C1825 C 0.86666 0.76472 0.33081 0.0
C1826 C 0.83444 0.75826 0.33553 0.0
C1827 C 0.82375 0.75105 0.31828 0.0
C1828 C 0.84519 0.75019 0.29629 0.0
C1829 C 0.87744 0.75653 0.29153 0.0
C1830 C 0.88824 0.76375 0.30871 0.0
C1831 C 0.02124 0.78173 0.41561 0.0
C1832 C 0.0514 0.78395 0.3984 0.0
C1833 C 0.9822 0.77977 0.40782 0.0
C1834 C 0.97243 0.7802 0.38272 0.0
C1835 C 0.003 0.7818 0.36538 0.0
C1836 C 0.04229 0.78364 0.37316 0.0
C1837 C 0.92993 0.7799 0.37479 0.0
C1838 C 0.91796 0.7729 0.35718 0.0
C1839 C 0.90128 0.78658 0.38451 0.0
C1840 C 0.91237 0.79456 0.40199 0.0
C1841 C 0.94162 0.80163 0.39566 0.0
C1842 C 0.95221 0.80906 0.41233 0.0
C1843 C 0.93349 0.80955 0.43531 0.0
C1844 C 0.90405 0.80263 0.44163 0.0
C1845 C 0.8934 0.79517 0.42504 0.0
H1846 H 0.94172 0.81531 0.44819 0.0
H1847 H 0.83687 0.74461 0.28296 0.0
H1848 H 0.73536 0.1771 0.19871 0.0
H1849 H 0.66687 0.17978 0.18447 0.0
H1850 H 0.71175 0.19191 0.11628 0.0
H1851 H 0.78075 0.18937 0.1306 0.0
H1852 H 0.64728 0.20235 0.13327 0.0
H1853 H 0.68034 0.16849 0.11785 0.0
H1854 H 0.70485 0.15168 0.12755 0.0
H1855 H 0.61178 0.14822 0.18153 0.0
H1856 H 0.58706 0.16508 0.1724 0.0
H1857 H 0.47362 0.19136 0.05925 0.0
H1858 H 0.54069 0.19275 0.07727 0.0
H1859 H 0.4927 0.18513 0.14855 0.0
H1860 H 0.42529 0.18392 0.13076 0.0
H1861 H 0.55802 0.17292 0.13056 0.0
H1862 H 0.52336 0.20706 0.14307 0.0
H1863 H 0.49936 0.22364 0.13089 0.0
H1864 H 0.59594 0.22622 0.07898 0.0
H1865 H 0.6202 0.20958 0.0906 0.0
C1866 C 0.73074 0.1804 0.18074 0.0
C1867 C 0.76344 0.18294 0.16566 0.0
C1868 C 0.69156 0.18191 0.17262 0.0
C1869 C 0.68428 0.1859 0.14918 0.0
C1870 C 0.7168 0.18879 0.13441 0.0
C1871 C 0.75614 0.18731 0.14258 0.0
C1872 C 0.6427 0.18663 0.13982 0.0
C1873 C 0.62786 0.1959 0.13241 0.0
C1874 C 0.6173 0.17823 0.13902 0.0
C1875 C 0.63213 0.16809 0.14463 0.0
C1876 C 0.66532 0.16418 0.13195 0.0
C1877 C 0.67921 0.15464 0.13731 0.0
C1878 C 0.65995 0.1489 0.15519 0.0
C1879 C 0.62671 0.15269 0.16771 0.0
C1880 C 0.61273 0.16223 0.16244 0.0
C1881 C 0.47727 0.19014 0.07884 0.0
C1882 C 0.44437 0.18749 0.09362 0.0
C1883 C 0.5155 0.19098 0.08909 0.0
C1884 C 0.52144 0.18906 0.11419 0.0
C1885 C 0.48852 0.18667 0.12914 0.0
C1886 C 0.45012 0.186 0.11898 0.0
C1887 C 0.56252 0.18864 0.12425 0.0
C1888 C 0.57735 0.17938 0.13161 0.0
C1889 C 0.58795 0.19702 0.12463 0.0
C1890 C 0.57335 0.20702 0.11753 0.0
C1891 C 0.53925 0.21111 0.12887 0.0
C1892 C 0.52565 0.22054 0.12212 0.0
C1893 C 0.54605 0.22597 0.10413 0.0
C1894 C 0.58014 0.222 0.09289 0.0
C1895 C 0.59385 0.21257 0.09958 0.0
H1896 H 0.53549 0.23327 0.09893 0.0
H1897 H 0.67073 0.14151 0.15931 0.0
H1898 H 0.30571 0.53992 0.12063 0.0
H1899 H 0.23838 0.53624 0.13603 0.0
H1900 H 0.19015 0.54052 0.06304 0.0
H1901 H 0.25704 0.54451 0.04774 0.0
H1902 H 0.14598 0.54974 0.09463 0.0
H1903 H 0.20086 0.51703 0.08984 0.0
H1904 H 0.24997 0.5037 0.09748 0.0
H1905 H 0.23054 0.50627 0.17533 0.0
H1906 H 0.18171 0.51972 0.16819 0.0
H1907 H 0.9522 0.5336 0.12204 0.0
H1908 H 0.01943 0.53181 0.10466 0.0
H1909 H 0.07047 0.53316 0.17751 0.0
H1910 H 0.00336 0.53494 0.19509 0.0
H1911 H 0.112 0.52008 0.14466 0.0
H1912 H 0.06165 0.55378 0.14863 0.0
H1913 H 0.01164 0.56687 0.14058 0.0
H1914 H 0.02271 0.56197 0.0628 0.0
H1915 H 0.07235 0.54873 0.07044 0.0
C1916 C 0.28072 0.54006 0.10789 0.0
C1917 C 0.28658 0.54254 0.08301 0.0
C1918 C 0.24232 0.53788 0.11666 0.0
C1919 C 0.20928 0.53796 0.10061 0.0
C1920 C 0.2152 0.5404 0.07575 0.0
C1921 C 0.25344 0.54269 0.06704 0.0
C1922 C 0.16821 0.53603 0.1099 0.0
C1923 C 0.13851 0.54315 0.10516 0.0
C1924 C 0.15854 0.52754 0.12411 0.0
C1925 C 0.18789 0.51945 0.12848 0.0
C1926 C 0.20729 0.51481 0.1086 0.0
C1927 C 0.23504 0.50722 0.11284 0.0
C1928 C 0.24344 0.50416 0.13688 0.0
C1929 C 0.22404 0.50866 0.15672 0.0
C1930 C 0.19629 0.51626 0.15259 0.0
C1931 C 0.97761 0.53325 0.13442 0.0
C1932 C 0.97261 0.53458 0.15989 0.0
C1933 C 0.01597 0.53223 0.12446 0.0
C1934 C 0.04978 0.53251 0.13982 0.0
C1935 C 0.04467 0.53294 0.1654 0.0
C1936 C 0.00633 0.53401 0.17538 0.0
C1937 C 0.09022 0.53374 0.12916 0.0
C1938 C 0.11967 0.52657 0.13381 0.0
C1939 C 0.09977 0.54216 0.11473 0.0
C1940 C 0.07035 0.5502 0.11011 0.0
C1941 C 0.05318 0.55545 0.12982 0.0
C1942 C 0.02494 0.5629 0.12534 0.0
C1943 C 0.01392 0.56523 0.1012 0.0
C1944 C 0.03122 0.56014 0.08149 0.0
C1945 C 0.05942 0.55267 0.08588 0.0
H1946 H 0.99205 0.571 0.09776 0.0
H1947 H 0.26492 0.49828 0.14012 0.0
H1948 H 0.81772 0.53667 0.62354 0.0
H1949 H 0.74985 0.53226 0.6368 0.0
H1950 H 0.71049 0.5323 0.56111 0.0
H1951 H 0.77778 0.53697 0.54786 0.0
H1952 H 0.66301 0.54321 0.58756 0.0
H1953 H 0.71739 0.5106 0.59565 0.0
H1954 H 0.76533 0.49783 0.60947 0.0
H1955 H 0.73755 0.50439 0.68487 0.0
H1956 H 0.68982 0.5173 0.67152 0.0
H1957 H 0.46545 0.52977 0.61559 0.0
H1958 H 0.53335 0.52708 0.59988 0.0
H1959 H 0.58117 0.5309 0.67301 0.0
H1960 H 0.51346 0.53351 0.68892 0.0
H1961 H 0.62295 0.51658 0.64574 0.0
H1962 H 0.57568 0.55039 0.63729 0.0
H1963 H 0.52777 0.56323 0.62381 0.0
H1964 H 0.54332 0.55425 0.54863 0.0
H1965 H 0.59092 0.54124 0.56174 0.0
C1966 C 0.7947 0.53559 0.60974 0.0
C1967 C 0.80291 0.53725 0.5847 0.0
C1968 C 0.75599 0.53301 0.61731 0.0
C1969 C 0.72511 0.53189 0.59992 0.0
C1970 C 0.7338 0.53315 0.57484 0.0
C1971 C 0.77228 0.53582 0.56731 0.0
C1972 C 0.68303 0.53038 0.60791 0.0
C1973 C 0.6542 0.53724 0.59985 0.0
C1974 C 0.67165 0.52276 0.62446 0.0
C1975 C 0.70025 0.51498 0.63257 0.0
C1976 C 0.72172 0.50937 0.61518 0.0
C1977 C 0.74882 0.5021 0.62293 0.0
C1978 C 0.75455 0.50031 0.64803 0.0
C1979 C 0.73311 0.50578 0.66543 0.0
C1980 C 0.70599 0.51307 0.65778 0.0
C1981 C 0.49033 0.52983 0.62841 0.0
C1982 C 0.48424 0.53202 0.65341 0.0
C1983 C 0.52906 0.52828 0.61941 0.0
C1984 C 0.56221 0.52893 0.63526 0.0
C1985 C 0.55594 0.53038 0.66051 0.0
C1986 C 0.51725 0.53193 0.66952 0.0
C1987 C 0.60338 0.52937 0.62522 0.0
C1988 C 0.63192 0.5224 0.63307 0.0
C1989 C 0.6147 0.53689 0.60845 0.0
C1990 C 0.58648 0.54478 0.60051 0.0
C1991 C 0.56865 0.55111 0.61791 0.0
C1992 C 0.54159 0.55842 0.61033 0.0
C1993 C 0.53241 0.55953 0.58538 0.0
C1994 C 0.55039 0.55336 0.56795 0.0
C1995 C 0.57743 0.54602 0.57544 0.0
H1996 H 0.51145 0.5652 0.57955 0.0
H1997 H 0.77555 0.49468 0.65399 0.0
H1998 H 0.98193 0.19253 0.54947 0.0
H1999 H 0.05116 0.19484 0.563 0.0
H2000 H 0.01457 0.19056 0.63846 0.0
H2001 H 0.94502 0.18846 0.62511 0.0
H2002 H 0.07167 0.20463 0.63508 0.0
H2003 H 0.05176 0.17141 0.60518 0.0
H2004 H 0.032 0.1587 0.57495 0.0
H2005 H 0.11941 0.16988 0.5239 0.0
H2006 H 0.13931 0.18275 0.55374 0.0
H2007 H 0.24604 0.18437 0.69024 0.0
H2008 H 0.17955 0.18774 0.67333 0.0
H2009 H 0.23219 0.19418 0.60255 0.0
H2010 H 0.29909 0.19085 0.61939 0.0
H2011 H 0.16947 0.18062 0.60063 0.0
H2012 H 0.19465 0.21271 0.63429 0.0
H2013 H 0.21446 0.2247 0.66623 0.0
H2014 H 0.11737 0.2149 0.71216 0.0
H2015 H 0.0973 0.20274 0.68063 0.0
C2016 C 0.98852 0.19222 0.56898 0.0
C2017 C 0.95817 0.1902 0.58623 0.0
C2018 C 0.02809 0.19352 0.57666 0.0
C2019 C 0.03806 0.19268 0.60167 0.0
C2020 C 0.00749 0.1912 0.61906 0.0
C2021 C 0.96781 0.18998 0.6114 0.0
C2022 C 0.08055 0.19263 0.60955 0.0
C2023 C 0.09304 0.19935 0.62767 0.0
C2024 C 0.10854 0.18586 0.59951 0.0
C2025 C 0.09668 0.17811 0.58156 0.0
C2026 C 0.06653 0.17121 0.58743 0.0
C2027 C 0.05535 0.16397 0.57038 0.0
C2028 C 0.07434 0.16351 0.54749 0.0
C2029 C 0.10466 0.17026 0.54162 0.0
C2030 C 0.11591 0.17753 0.55859 0.0
C2031 C 0.24354 0.18658 0.67112 0.0
C2032 C 0.27772 0.18732 0.65609 0.0
C2033 C 0.20557 0.18856 0.66154 0.0
C2034 C 0.2011 0.19128 0.63677 0.0
C2035 C 0.23516 0.19213 0.62175 0.0
C2036 C 0.27327 0.19024 0.63139 0.0
C2037 C 0.16053 0.19256 0.6263 0.0
C2038 C 0.14832 0.18602 0.60775 0.0
C2039 C 0.13279 0.19942 0.63616 0.0
C2040 C 0.14466 0.20676 0.65515 0.0
C2041 C 0.1777 0.21305 0.65128 0.0
C2042 C 0.18894 0.21989 0.6693 0.0
C2043 C 0.16723 0.22055 0.69123 0.0
C2044 C 0.13417 0.21438 0.69516 0.0
C2045 C 0.12282 0.20752 0.67721 0.0
H2046 H 0.17598 0.22585 0.70516 0.0
H2047 H 0.06565 0.15789 0.53431 0.0
H2048 H 0.9035 0.20886 0.2046 0.0
H2049 H 0.91652 0.22462 0.22495 0.0
H2050 H 0.04326 0.21816 0.22585 0.0
H2051 H 0.03064 0.20234 0.20566 0.0
H2052 H 0.01375 0.22174 0.27157 0.0
H2053 H 0.0101 0.23729 0.19227 0.0
H2054 H 0.98335 0.24165 0.15134 0.0
H2055 H 0.87805 0.25403 0.18487 0.0
H2056 H 0.90407 0.24967 0.22602 0.0
H2057 H 0.09096 0.2692 0.30286 0.0
H2058 H 0.07212 0.25245 0.29094 0.0
H2059 H 0.947 0.26045 0.29507 0.0
H2060 H 0.96548 0.27726 0.30684 0.0
H2061 H 0.97156 0.25577 0.24871 0.0
H2062 H 0.98099 0.24154 0.32902 0.0
H2063 H 0.01173 0.23781 0.36925 0.0
H2064 H 0.11026 0.22336 0.33321 0.0
H2065 H 0.08042 0.22712 0.29273 0.0
C2066 C 0.93427 0.21089 0.20851 0.0
C2067 C 0.96598 0.20427 0.20395 0.0
C2068 C 0.94163 0.21991 0.22011 0.0
C2069 C 0.98077 0.22245 0.2271 0.0
C2070 C 0.01281 0.21624 0.22077 0.0
C2071 C 0.00552 0.20723 0.20915 0.0
C2072 C 0.98768 0.23099 0.24336 0.0
C2073 C 0.00506 0.22923 0.26651 0.0
C2074 C 0.975 0.24063 0.23694 0.0
C2075 C 0.95881 0.24304 0.2122 0.0
C2076 C 0.98103 0.24084 0.1909 0.0
C2077 C 0.96607 0.24335 0.16767 0.0
C2078 C 0.92896 0.24808 0.1655 0.0
C2079 C 0.90676 0.25034 0.18657 0.0
C2080 C 0.92162 0.24787 0.20986 0.0
C2081 C 0.05941 0.26731 0.30217 0.0
C2082 C 0.0297 0.27462 0.30495 0.0
C2083 C 0.04869 0.25771 0.29548 0.0
C2084 C 0.00822 0.25531 0.29178 0.0
C2085 C 0.97841 0.26224 0.29765 0.0
C2086 C 0.98907 0.27184 0.3043 0.0
C2087 C 0.99786 0.24657 0.27695 0.0
C2088 C 0.97986 0.24828 0.25396 0.0
C2089 C 0.0104 0.23692 0.28345 0.0
C2090 C 0.02857 0.23468 0.3078 0.0
C2091 C 0.00939 0.23764 0.32964 0.0
C2092 C 0.02662 0.2355 0.35251 0.0
C2093 C 0.06296 0.23037 0.35379 0.0
C2094 C 0.08212 0.22734 0.3322 0.0
C2095 C 0.06503 0.22947 0.30928 0.0
H2096 H 0.07624 0.22871 0.37151 0.0
H2097 H 0.91745 0.25003 0.1475 0.0
H2098 H 0.28053 0.95409 0.29638 0.0
H2099 H 0.28984 0.96919 0.27259 0.0
H2100 H 0.17059 0.97883 0.2921 0.0
H2101 H 0.16061 0.9636 0.31559 0.0
H2102 H 0.17857 0.97802 0.2438 0.0
H2103 H 0.25343 -0.00796 0.30958 0.0
H2104 H 0.30457 -0.00702 0.34226 0.0
H2105 H 0.39791 -0.01048 0.28851 0.0
H2106 H 0.34731 -0.01157 0.25551 0.0
H2107 H 0.20295 0.02693 0.19412 0.0
H2108 H 0.18652 0.01103 0.21281 0.0
H2109 H 0.30076 -0.0007 0.18961 0.0
H2110 H 0.31775 0.01523 0.17111 0.0
H2111 H 0.29374 0.00117 0.23949 0.0
H2112 H 0.21446 0.98762 0.17329 0.0
H2113 H 0.16069 -0.0122 0.14208 0.0
H2114 H 0.07251 -0.00822 0.19879 0.0
H2115 H 0.12572 -0.00828 0.23031 0.0
C2116 C 0.25678 0.95957 0.29641 0.0
C2117 C 0.21948 0.95755 0.30739 0.0
C2118 C 0.26216 0.96822 0.28274 0.0
C2119 C 0.23064 0.97504 0.28029 0.0
C2120 C 0.19503 0.97357 0.29352 0.0
C2121 C 0.18952 0.96489 0.30707 0.0
C2122 C 0.23301 0.98294 0.26149 0.0
C2123 C 0.20342 0.9832 0.24305 0.0
C2124 C 0.26592 -0.0105 0.26025 0.0
C2125 C 0.29651 -0.00994 0.28008 0.0
C2126 C 0.28484 -0.00861 0.30474 0.0
C2127 C 0.31375 -0.00803 0.32332 0.0
C2128 C 0.35446 -0.00871 0.31748 0.0
C2129 C 0.36636 -0.00996 0.29302 0.0
C2130 C 0.33758 -0.01055 0.27436 0.0
C2131 C 0.22385 0.02085 0.19196 0.0
C2132 C 0.26224 0.02241 0.18195 0.0
C2133 C 0.21432 0.01173 0.20263 0.0
C2134 C 0.24283 0.00409 0.203 0.0
C2135 C 0.27862 0.00518 0.18972 0.0
C2136 C 0.28826 0.01429 0.17917 0.0
C2137 C 0.23962 -0.00383 0.22163 0.0
C2138 C 0.26902 -0.00406 0.24015 0.0
C2139 C 0.2062 -0.01021 0.22313 0.0
C2140 C 0.17416 -0.01024 0.20415 0.0
C2141 C 0.18364 -0.01138 0.17909 0.0
C2142 C 0.15325 -0.01132 0.16134 0.0
C2143 C 0.11324 -0.01014 0.16845 0.0
C2144 C 0.10352 -0.0091 0.19331 0.0
C2145 C 0.13377 -0.00917 0.21113 0.0
H2146 H 0.08973 -0.01008 0.15473 0.0
H2147 H 0.37679 -0.00825 0.33189 0.0
H2148 H 0.96287 0.01526 0.06968 0.0
H2149 H 0.98431 -0.0004 0.05229 0.0
H2150 H 0.10044 0.01211 0.03585 0.0
H2151 H 0.07876 0.02797 0.05273 0.0
H2152 H 0.06416 0.00706 0.99537 0.0
H2153 H 0.09243 -0.0099 0.0695 0.0
H2154 H 0.08457 0.98407 0.11205 0.0
H2155 H 0.97491 0.96944 0.09223 0.0
H2156 H 0.98208 0.97538 0.04949 0.0
H2157 H 0.10906 0.96019 0.93583 0.0
H2158 H 0.10732 0.97595 0.95778 0.0
H2159 H 0.98207 0.97147 0.97418 0.0
H2160 H 0.98332 0.95573 0.95223 0.0
H2161 H 0.03451 0.972 0.01577 0.0
H2162 H 0.00619 -0.00943 0.94159 0.0
H2163 H 0.01828 -0.00384 0.899 0.0
H2164 H 0.13349 0.00756 0.92005 0.0
H2165 H 0.12231 0.00191 0.96273 0.0
C2166 C 0.99352 0.0146 0.06325 0.0
C2167 C 0.01862 0.02295 0.06171 0.0
C2168 C 0.00591 0.00558 0.05346 0.0
C2169 C 0.04377 0.00474 0.04237 0.0
C2170 C 0.07091 0.01266 0.04407 0.0
C2171 C 0.05845 0.02172 0.05377 0.0
C2172 C 0.05083 -0.00333 0.02456 0.0
C2173 C 0.05879 -0.00065 0.0 0.0
C2174 C 0.04282 0.98666 0.03045 0.0
C2175 C 0.0377 0.98325 0.05628 0.0
C2176 C 0.06642 0.98567 0.07424 0.0
C2177 C 0.06214 0.98225 0.0984 0.0
C2178 C 0.02917 0.97641 0.10489 0.0
C2179 C 0.00043 0.97397 0.08719 0.0
C2180 C 0.00467 0.97733 0.06296 0.0
C2181 C 0.08072 0.96273 0.94325 0.0
C2182 C 0.0466 0.95659 0.94293 0.0
C2183 C 0.07983 0.97174 0.9558 0.0
C2184 C 0.04481 0.97469 0.96797 0.0
C2185 C 0.00947 0.96919 0.96508 0.0
C2186 C 0.01023 0.96023 0.95239 0.0
C2187 C 0.04662 0.98251 0.98678 0.0
C2188 C 0.04046 0.97972 0.01139 0.0
C2189 C 0.05677 -0.00762 0.981 0.0
C2190 C 0.06361 -0.00429 0.95529 0.0
C2191 C 0.03429 -0.00583 0.93709 0.0
C2192 C 0.04093 -0.00263 0.91294 0.0
C2193 C 0.07669 0.00218 0.9068 0.0
C2194 C 0.10584 0.00382 0.92482 0.0
C2195 C 0.09935 0.00062 0.94899 0.0
H2196 H 0.08176 0.00466 0.8881 0.0
H2197 H 0.02594 0.97377 0.12361 0.0
H2198 H 0.30521 0.21446 0.06401 0.0
H2199 H 0.30448 0.2298 0.04022 0.0
H2200 H 0.18741 0.22237 0.01187 0.0
H2201 H 0.18763 0.20711 0.03576 0.0
H2202 H 0.30572 0.22739 0.99125 0.0
H2203 H 0.14243 0.24277 0.98805 0.0
H2204 H 0.08651 0.24625 0.01647 0.0
H2205 H 0.16937 0.2487 0.07665 0.0
H2206 H 0.22584 0.24538 0.04856 0.0
H2207 H 0.19771 0.26459 0.90188 0.0
H2208 H 0.20764 0.24882 0.92292 0.0
H2209 H 0.31664 0.25993 0.95542 0.0
H2210 H 0.30686 0.27577 0.93465 0.0
H2211 H 0.20415 0.25333 0.97426 0.0
H2212 H 0.36759 0.2389 0.97705 0.0
H2213 H 0.42346 0.23543 0.94853 0.0
H2214 H 0.33972 0.2311 0.88948 0.0
H2215 H 0.28346 0.23458 0.91757 0.0
C2216 C 0.27855 0.21629 0.05354 0.0
C2217 C 0.24701 0.20945 0.05111 0.0
C2218 C 0.2783 0.22504 0.03988 0.0
C2219 C 0.24635 0.22708 0.0239 0.0
C2220 C 0.21241 0.22093 0.0241 0.0
C2221 C 0.21258 0.21219 0.03782 0.0
C2222 C 0.25139 0.23443 0.00401 0.0
C2223 C 0.28394 0.23321 0.98781 0.0
C2224 C 0.22219 0.24174 -0.00091 0.0
C2225 C 0.18837 0.24372 0.0162 0.0
C2226 C 0.14875 0.24408 0.00733 0.0
C2227 C 0.11694 0.24602 0.02339 0.0
C2228 C 0.12437 0.24767 0.04836 0.0
C2229 C 0.16364 0.24738 0.05732 0.0
C2230 C 0.19556 0.24545 0.04134 0.0
C2231 C 0.2249 0.26352 0.91249 0.0
C2232 C 0.25053 0.27153 0.91759 0.0
C2233 C 0.2305 0.25449 0.92448 0.0
C2234 C 0.26215 0.25339 0.94121 0.0
C2235 C 0.29183 0.26072 0.94268 0.0
C2236 C 0.28617 0.26978 0.93075 0.0
C2237 C 0.25816 0.2462 0.96147 0.0
C2238 C 0.22589 0.24751 0.97778 0.0
C2239 C 0.28763 0.239 0.96651 0.0
C2240 C 0.32137 0.23711 0.94937 0.0
C2241 C 0.36114 0.23724 0.95796 0.0
C2242 C 0.39288 0.23528 0.94185 0.0
C2243 C 0.38518 0.23311 0.91716 0.0
C2244 C 0.34571 0.23289 0.90853 0.0
C2245 C 0.3139 0.23489 0.92451 0.0
H2246 H 0.40977 0.23156 0.90474 0.0
H2247 H 0.09971 0.24918 0.06076 0.0
H2248 H 0.94359 0.71128 0.66294 0.0
H2249 H 0.9587 0.72643 0.68546 0.0
H2250 H 0.05681 0.71169 0.72213 0.0
H2251 H 0.04214 0.69653 0.69953 0.0
H2252 H 0.94682 0.72257 0.73599 0.0
H2253 H 0.1147 0.73095 0.74918 0.0
H2254 H 0.1777 0.73089 0.72536 0.0
H2255 H 0.11161 0.73598 0.65868 0.0
H2256 H 0.0483 0.7362 0.68213 0.0
H2257 H 0.05095 0.76366 0.81834 0.0
H2258 H 0.04641 0.74675 0.80284 0.0
H2259 H 0.93984 0.75463 0.76214 0.0
H2260 H 0.94383 0.77145 0.77781 0.0
H2261 H 0.059 0.74537 0.75507 0.0
H2262 H 0.88955 0.73477 0.74329 0.0
H2263 H 0.8279 0.73438 0.76833 0.0
H2264 H 0.8984 0.73306 0.83439 0.0
H2265 H 0.96049 0.73329 0.80978 0.0
C2266 C 0.96971 0.71142 0.67481 0.0
C2267 C 0.9908 0.70267 0.68021 0.0
C2268 C 0.97819 0.72006 0.68772 0.0
C2269 C 0.00802 0.72002 0.70589 0.0
C2270 C 0.03347 0.7118 0.70825 0.0
C2271 C 0.0251 0.70315 0.69523 0.0
C2272 C 0.00616 0.72741 0.72571 0.0
C2273 C 0.97106 0.72768 0.74001 0.0
C2274 C 0.03885 0.73355 0.73175 0.0
C2275 C 0.07671 0.73346 0.71741 0.0
C2276 C 0.11362 0.73207 0.72944 0.0
C2277 C 0.14939 0.73201 0.71601 0.0
C2278 C 0.14864 0.73339 0.69051 0.0
C2279 C 0.11213 0.73486 0.67841 0.0
C2280 C 0.07628 0.73493 0.69177 0.0
C2281 C 0.02551 0.76166 0.80698 0.0
C2282 C 0.99847 0.76892 0.79858 0.0
C2283 C 0.02304 0.752 0.79813 0.0
C2284 C 0.99338 0.74952 0.78095 0.0
C2285 C 0.96298 0.75638 0.77543 0.0
C2286 C 0.96531 0.76603 0.7844 0.0
C2287 C 0.99888 0.74084 0.76485 0.0
C2288 C 0.0348 0.74021 0.75133 0.0
C2289 C 0.96707 0.73428 0.75967 0.0
C2290 C 0.92975 0.73412 0.77464 0.0
C2291 C 0.89194 0.73434 0.76315 0.0
C2292 C 0.8569 0.73416 0.77728 0.0
C2293 C 0.85923 0.73371 0.80294 0.0
C2294 C 0.89663 0.73344 0.81452 0.0
C2295 C 0.93177 0.73362 0.80048 0.0
H2296 H 0.83207 0.73357 0.81384 0.0
H2297 H 0.17636 0.73335 0.68014 0.0
H2298 H 0.78917 0.96031 0.78866 0.0
H2299 H 0.77259 0.97564 0.76716 0.0
H2300 H 0.65511 0.97565 0.80028 0.0
H2301 H 0.67115 0.96021 0.82183 0.0
H2302 H 0.69838 0.97337 0.73466 0.0
H2303 H 0.63465 0.00295 0.79763 0.0
H2304 H 0.63909 0.00866 0.84069 0.0
H2305 H 0.76125 -0.00131 0.84454 0.0
H2306 H 0.75768 -0.00696 0.80144 0.0
H2307 H 0.67245 0.0306 0.70227 0.0
H2308 H 0.64381 0.01554 0.71989 0.0
H2309 H 0.74602 -0.00114 0.69411 0.0
H2310 H 0.7742 0.01375 0.67616 0.0
H2311 H 0.6837 0.00878 0.75704 0.0
H2312 H 0.73542 0.97506 0.6955 0.0
H2313 H 0.72698 0.96932 0.65281 0.0
H2314 H 0.6226 0.98768 0.64474 0.0
H2315 H 0.62997 -0.00656 0.68752 0.0
C2316 C 0.76039 0.96375 0.79222 0.0
C2317 C 0.73107 0.95892 0.80641 0.0
C2318 C 0.75089 0.97247 0.77976 0.0
C2319 C 0.7124 0.97656 0.78182 0.0
C2320 C 0.68484 0.97249 0.79841 0.0
C2321 C 0.69417 0.9637 0.81073 0.0
C2322 C 0.69964 0.98409 0.76393 0.0
C2323 C 0.69521 0.98115 0.73933 0.0
C2324 C 0.69285 -0.00597 0.77061 0.0
C2325 C 0.69562 -0.00258 0.79648 0.0
C2326 C 0.66244 0.00197 0.80769 0.0
C2327 C 0.66481 0.0052 0.83209 0.0
C2328 C 0.70032 0.00396 0.8454 0.0
C2329 C 0.73365 -0.00044 0.83428 0.0
C2330 C 0.73143 -0.00368 0.80988 0.0
C2331 C 0.68788 0.02364 0.69935 0.0
C2332 C 0.72629 0.02339 0.68864 0.0
C2333 C 0.67141 0.01503 0.70945 0.0
C2334 C 0.69304 0.00611 0.70873 0.0
C2335 C 0.72852 0.00562 0.69484 0.0
C2336 C 0.74494 0.0142 0.68476 0.0
C2337 C 0.68527 -0.00176 0.72709 0.0
C2338 C 0.68549 0.00101 0.75206 0.0
C2339 C 0.68768 -0.01189 0.72072 0.0
C2340 C 0.68331 0.9847 0.69483 0.0
C2341 C 0.71047 0.97783 0.68473 0.0
C2342 C 0.70593 0.97458 0.66046 0.0
C2343 C 0.67429 0.97813 0.64607 0.0
C2344 C 0.64716 0.98495 0.65589 0.0
C2345 C 0.65157 -0.01177 0.68015 0.0
H2346 H 0.67079 0.9756 0.6273 0.0
H2347 H 0.70205 0.00645 0.86429 0.0
H2348 H 0.78355 0.77853 0.95584 0.0
H2349 H 0.79144 0.76261 0.9764 0.0
H2350 H 0.69807 0.75019 0.9309 0.0
H2351 H 0.68927 0.76622 0.91072 0.0
H2352 H 0.67682 0.75033 0.97781 0.0
H2353 H 0.79294 0.74 0.93302 0.0
H2354 H 0.86051 0.74146 0.91494 0.0
H2355 H 0.9109 0.74574 0.98686 0.0
H2356 H 0.84356 0.74445 0.00537 0.0
H2357 H 0.6862 0.70166 0.02889 0.0
H2358 H 0.67744 0.71752 0.00813 0.0
H2359 H 0.76917 0.73042 0.05404 0.0
H2360 H 0.77869 0.71448 0.07453 0.0
H2361 H 0.79116 0.72996 0.00678 0.0
H2362 H 0.67499 0.74035 0.05149 0.0
H2363 H 0.60741 0.73889 0.06956 0.0
H2364 H 0.55715 0.73445 0.99766 0.0
H2365 H 0.62451 0.73574 0.97917 0.0
C2366 C 0.76615 0.77228 0.94931 0.0
C2367 C 0.73508 0.77363 0.93218 0.0
C2368 C 0.77064 0.76317 0.96115 0.0
C2369 C 0.7447 0.7553 0.95551 0.0
C2370 C 0.71792 0.75624 0.93574 0.0
C2371 C 0.71309 0.76537 0.92413 0.0
C2372 C 0.73976 0.74706 0.97317 0.0
C2373 C 0.70167 0.74572 0.98379 0.0
C2374 C 0.77252 0.74138 0.98167 0.0
C2375 C 0.81309 0.74221 0.97057 0.0
C2376 C 0.81837 0.74135 0.94497 0.0
C2377 C 0.85665 0.74212 0.93465 0.0
C2378 C 0.88997 0.74371 0.94973 0.0
C2379 C 0.88507 0.74452 0.97519 0.0
C2380 C 0.84685 0.74375 0.98561 0.0
C2381 C 0.70297 0.708 0.03548 0.0
C2382 C 0.73388 0.70682 0.0528 0.0
C2383 C 0.69802 0.71708 0.02352 0.0
C2384 C 0.72337 0.72506 0.02921 0.0
C2385 C 0.7498 0.72428 0.04918 0.0
C2386 C 0.75502 0.7152 0.06096 0.0
C2387 C 0.72824 0.73324 0.0114 0.0
C2388 C 0.76632 0.73457 0.00076 0.0
C2389 C 0.69547 0.7389 0.00287 0.0
C2390 C 0.6549 0.73805 0.01396 0.0
C2391 C 0.64959 0.73896 0.03954 0.0
C2392 C 0.6113 0.73819 0.04986 0.0
C2393 C 0.57802 0.73655 0.03477 0.0
C2394 C 0.58296 0.73571 0.00933 0.0
C2395 C 0.62119 0.73647 -0.00108 0.0
H2396 H 0.5484 0.73596 0.0428 0.0
H2397 H 0.91958 0.74431 0.9417 0.0
H2398 H 0.31843 0.51151 0.6713 0.0
H2399 H 0.29911 0.49593 0.6907 0.0
H2400 H 0.18706 0.50895 0.71369 0.0
H2401 H 0.206 0.52457 0.69426 0.0
H2402 H 0.23722 0.50398 0.75207 0.0
H2403 H 0.18333 0.48871 0.68092 0.0
H2404 H 0.1791 0.4829 0.63802 0.0
H2405 H 0.28254 0.46447 0.64915 0.0
H2406 H 0.28782 0.47027 0.69204 0.0
H2407 H 0.17227 0.46111 0.8178 0.0
H2408 H 0.18348 0.47609 0.79367 0.0
H2409 H 0.29461 0.46397 0.7663 0.0
H2410 H 0.28348 0.44887 0.79025 0.0
H2411 H 0.24072 0.46839 0.72966 0.0
H2412 H 0.29736 0.48501 0.79994 0.0
H2413 H 0.29991 0.49066 0.84306 0.0
H2414 H 0.18882 0.50629 0.83326 0.0
H2415 H 0.18568 0.50075 0.79004 0.0
C2416 C 0.28899 0.51095 0.67962 0.0
C2417 C 0.26425 0.51933 0.68194 0.0
C2418 C 0.2779 0.50202 0.69059 0.0
C2419 C 0.242 0.50139 0.70392 0.0
C2420 C 0.21503 0.50936 0.70357 0.0
C2421 C 0.22593 0.51828 0.69243 0.0
C2422 C 0.23718 0.49343 0.72224 0.0
C2423 C 0.23711 0.49618 0.74717 0.0
C2424 C 0.2385 0.48332 0.71573 0.0
C2425 C 0.2362 0.48001 0.68969 0.0
C2426 C 0.20551 0.48351 0.67416 0.0
C2427 C 0.20284 0.48019 0.64985 0.0
C2428 C 0.23057 0.47334 0.64085 0.0
C2429 C 0.26109 0.46979 0.65614 0.0
C2430 C 0.26392 0.47309 0.68047 0.0
C2431 C 0.19976 0.46175 0.80727 0.0
C2432 C 0.22662 0.45375 0.80551 0.0
C2433 C 0.20616 0.47033 0.79355 0.0
C2434 C 0.2396 0.47104 0.77803 0.0
C2435 C 0.26846 0.46348 0.77809 0.0
C2436 C 0.26218 0.4549 0.79191 0.0
C2437 C 0.24131 0.47896 0.75938 0.0
C2438 C 0.24075 0.47619 0.73447 0.0
C2439 C 0.23936 0.48906 0.76585 0.0
C2440 C 0.24114 0.4924 0.79183 0.0
C2441 C 0.27337 0.4896 0.80703 0.0
C2442 C 0.27499 0.49282 0.83146 0.0
C2443 C 0.24452 0.49882 0.8409 0.0
C2444 C 0.2124 0.50164 0.82592 0.0
C2445 C 0.21078 0.4985 0.80142 0.0
H2446 H 0.24583 0.50131 0.85981 0.0
H2447 H 0.22837 0.47075 0.62205 0.0
H2448 H 0.08475 0.45668 0.43748 0.0
H2449 H 0.0868 0.47371 0.45219 0.0
H2450 H 0.96293 0.47161 0.47443 0.0
H2451 H 0.96055 0.45447 0.46009 0.0
H2452 H 0.99052 0.4914 0.45936 0.0
H2453 H 0.02144 0.46386 0.51365 0.0
H2454 H 0.05655 0.44843 0.52514 0.0
H2455 H 0.16989 0.46339 0.51995 0.0
H2456 H 0.13543 0.47887 0.50787 0.0
H2457 H 0.9625 0.51752 0.56514 0.0
H2458 H 0.97663 0.50183 0.54491 0.0
H2459 H 0.09154 0.51292 0.52112 0.0
H2460 H 0.07755 0.5288 0.54097 0.0
H2461 H 0.07582 0.48953 0.53435 0.0
H2462 H 0.03958 0.51801 0.48266 0.0
H2463 H 0.99932 0.53302 0.47463 0.0
H2464 H 0.89129 0.51574 0.47751 0.0
H2465 H 0.93087 0.50067 0.48629 0.0
C2466 C 0.05746 0.45993 0.44471 0.0
C2467 C 0.02288 0.45415 0.44852 0.0
C2468 C 0.05873 0.46967 0.45298 0.0
C2469 C 0.02535 0.47372 0.46488 0.0
C2470 C 0.98903 0.46849 0.46541 0.0
C2471 C 0.98778 0.45871 0.45728 0.0
C2472 C 0.03054 0.48235 0.48092 0.0
C2473 C 0.00935 0.49104 0.47563 0.0
C2474 C 0.05512 0.48176 0.50216 0.0
C2475 C 0.07591 0.47247 0.50945 0.0
C2476 C 0.05388 0.46382 0.51463 0.0
C2477 C 0.07364 0.45507 0.52129 0.0
C2478 C 0.11543 0.45491 0.52312 0.0
C2479 C 0.13752 0.46351 0.51839 0.0
C2480 C 0.1179 0.47228 0.51162 0.0
C2481 C 0.99145 0.51653 0.55641 0.0
C2482 C 0.01833 0.52449 0.55383 0.0
C2483 C 0.99947 0.50755 0.54496 0.0
C2484 C 0.03459 0.50642 0.53117 0.0
C2485 C 0.06415 0.51378 0.53163 0.0
C2486 C 0.05603 0.52283 0.54295 0.0
C2487 C 0.03612 0.49858 0.51264 0.0
C2488 C 0.05809 0.48999 0.51764 0.0
C2489 C 0.01197 0.49922 0.49127 0.0
C2490 C 0.98817 0.50824 0.48544 0.0
C2491 C 0.00721 0.51743 0.4819 0.0
C2492 C 0.98452 0.52595 0.47722 0.0
C2493 C 0.94277 0.52534 0.47565 0.0
C2494 C 0.92363 0.51621 0.47877 0.0
C2495 C 0.94618 0.50768 0.48364 0.0
H2496 H 0.92528 0.53193 0.47188 0.0
H2497 H 0.13067 0.44814 0.52836 0.0
H2498 H 0.18639 0.70357 0.54545 0.0
H2499 H 0.18698 0.71994 0.52634 0.0
H2500 H 0.29796 0.72678 0.56332 0.0
H2501 H 0.29772 0.71044 0.58253 0.0
H2502 H 0.2007 0.74082 0.53461 0.0
H2503 H 0.36442 0.73025 0.51769 0.0
H2504 H 0.40775 0.7154 0.51937 0.0
H2505 H 0.30723 0.69699 0.50062 0.0
H2506 H 0.26357 0.71172 0.49866 0.0
H2507 H 0.31861 0.77432 0.45473 0.0
H2508 H 0.32378 0.7594 0.48008 0.0
H2509 H 0.21532 0.74804 0.44746 0.0
H2510 H 0.20987 0.76285 0.42196 0.0
H2511 H 0.31516 0.73718 0.47657 0.0
H2512 H 0.15055 0.74637 0.49769 0.0
H2513 H 0.10359 0.76045 0.49424 0.0
H2514 H 0.20149 0.78089 0.50184 0.0
H2515 H 0.24881 0.76696 0.50587 0.0
C2516 C 0.20982 0.70873 0.55055 0.0
C2517 C 0.24283 0.70563 0.56468 0.0
C2518 C 0.21009 0.71809 0.5396 0.0
C2519 C 0.24322 0.72435 0.54288 0.0
C2520 C 0.27256 0.72192 0.56032 0.0
C2521 C 0.27236 0.71258 0.57123 0.0
C2522 C 0.2517 0.73199 0.52428 0.0
C2523 C 0.22569 0.74007 0.52196 0.0
C2524 C 0.28438 0.73092 0.5078 0.0
C2525 C 0.31074 0.72206 0.50829 0.0
C2526 C 0.35169 0.72303 0.51385 0.0
C2527 C 0.37627 0.71463 0.51488 0.0
C2528 C 0.36023 0.70524 0.51021 0.0
C2529 C 0.31962 0.70425 0.50436 0.0
C2530 C 0.29495 0.71261 0.50331 0.0
C2531 C 0.29693 0.76844 0.45203 0.0
C2532 C 0.26301 0.76988 0.43704 0.0
C2533 C 0.29995 0.75993 0.46658 0.0
C2534 C 0.26919 0.75287 0.46606 0.0
C2535 C 0.23889 0.75356 0.4483 0.0
C2536 C 0.23587 0.76202 0.43375 0.0
C2537 C 0.26409 0.74601 0.48687 0.0
C2538 C 0.29064 0.73806 0.48952 0.0
C2539 C 0.23161 0.74715 0.50346 0.0
C2540 C 0.20328 0.75561 0.5017 0.0
C2541 C 0.16201 0.75387 0.4987 0.0
C2542 C 0.13533 0.76183 0.49666 0.0
C2543 C 0.14957 0.77156 0.49765 0.0
C2544 C 0.1905 0.77336 0.50086 0.0
C2545 C 0.21728 0.76543 0.50301 0.0
H2546 H 0.12884 0.77769 0.49597 0.0
H2547 H 0.37927 0.69875 0.51106 0.0
H2548 H 0.78574 0.45315 0.28215 0.0
H2549 H 0.79131 0.46931 0.26258 0.0
H2550 H 0.68205 0.47873 0.29821 0.0
H2551 H 0.6757 0.46244 0.31742 0.0
H2552 H 0.67518 0.48017 0.25014 0.0
H2553 H 0.77223 0.49047 0.3091 0.0
H2554 H 0.83284 0.48941 0.33496 0.0
H2555 H 0.90652 0.48776 0.27029 0.0
H2556 H 0.84631 0.48867 0.24401 0.0
H2557 H 0.69865 0.5306 0.20734 0.0
H2558 H 0.68308 0.51455 0.2258 0.0
H2559 H 0.78228 0.50134 0.18686 0.0
H2560 H 0.79814 0.51734 0.16836 0.0
H2561 H 0.79192 0.50236 0.23788 0.0
H2562 H 0.69323 0.49185 0.17918 0.0
H2563 H 0.63197 0.49323 0.154 0.0
H2564 H 0.56065 0.49589 0.21946 0.0
H2565 H 0.62158 0.49466 0.24505 0.0
C2566 C 0.7637 0.45877 0.28659 0.0
C2567 C 0.72981 0.45648 0.30086 0.0
C2568 C 0.76693 0.46803 0.27538 0.0
C2569 C 0.73678 0.47517 0.27873 0.0
C2570 C 0.70534 0.47326 0.29519 0.0
C2571 C 0.70187 0.46397 0.30622 0.0
C2572 C 0.73497 0.48388 0.26232 0.0
C2573 C 0.70041 0.48516 0.24781 0.0
C2574 C 0.76832 0.49017 0.25882 0.0
C2575 C 0.80466 0.48956 0.27458 0.0
C2576 C 0.80131 0.48979 0.30038 0.0
C2577 C 0.83562 0.48924 0.31512 0.0
C2578 C 0.8735 0.4885 0.30428 0.0
C2579 C 0.87716 0.48833 0.27866 0.0
C2580 C 0.84295 0.48888 0.26384 0.0
C2581 C 0.7159 0.52419 0.20173 0.0
C2582 C 0.75038 0.52524 0.18708 0.0
C2583 C 0.70697 0.51502 0.21233 0.0
C2584 C 0.73218 0.50688 0.20806 0.0
C2585 C 0.76287 0.50761 0.19054 0.0
C2586 C 0.77184 0.51675 0.18 0.0
C2587 C 0.73244 0.49854 0.22554 0.0
C2588 C 0.76668 0.49738 0.24032 0.0
C2589 C 0.69871 0.49243 0.2294 0.0
C2590 C 0.66206 0.49327 0.21403 0.0
C2591 C 0.66455 0.49284 0.18821 0.0
C2592 C 0.62986 0.49357 0.17386 0.0
C2593 C 0.59245 0.49468 0.18512 0.0
C2594 C 0.58965 0.49504 0.21076 0.0
C2595 C 0.62425 0.49432 0.2252 0.0
H2596 H 0.56563 0.49523 0.17398 0.0
H2597 H 0.90002 0.48807 0.31572 0.0
H2598 H 0.79766 0.21226 0.58315 0.0
H2599 H 0.79034 0.22834 0.56348 0.0
H2600 H 0.6771 0.21916 0.5326 0.0
H2601 H 0.68456 0.20295 0.55191 0.0
H2602 H 0.73511 0.22093 0.49835 0.0
H2603 H 0.68473 0.24113 0.56364 0.0
H2604 H 0.68068 0.24845 0.60511 0.0
H2605 H 0.79926 0.26041 0.59688 0.0
H2606 H 0.80418 0.25311 0.55543 0.0
H2607 H 0.70625 0.26402 0.42583 0.0
H2608 H 0.70951 0.24868 0.44919 0.0
H2609 H 0.82156 0.25797 0.4815 0.0
H2610 H 0.81818 0.27348 0.45848 0.0
H2611 H 0.7633 0.25632 0.51526 0.0
H2612 H 0.81466 0.23611 0.45073 0.0
H2613 H 0.81958 0.22897 0.40911 0.0
H2614 H 0.70102 0.21688 0.41619 0.0
H2615 H 0.69512 0.22407 0.45773 0.0
C2616 C 0.7702 0.21383 0.5732 0.0
C2617 C 0.74256 0.20623 0.56809 0.0
C2618 C 0.76595 0.22307 0.56204 0.0
C2619 C 0.73374 0.22481 0.54602 0.0
C2620 C 0.70249 0.21786 0.54464 0.0
C2621 C 0.70676 0.2086 0.55577 0.0
C2622 C 0.73848 0.23226 0.52631 0.0
C2623 C 0.74029 0.22874 0.50198 0.0
C2624 C 0.74741 0.24228 0.53126 0.0
C2625 C 0.74493 0.24649 0.55646 0.0
C2626 C 0.71012 0.24523 0.57075 0.0
C2627 C 0.70761 0.24942 0.59423 0.0
C2628 C 0.7397 0.25489 0.60363 0.0
C2629 C 0.77441 0.25617 0.58958 0.0
C2630 C 0.77703 0.25204 0.56607 0.0
C2631 C 0.73251 0.26263 0.43706 0.0
C2632 C 0.76114 0.2701 0.44109 0.0
C2633 C 0.73439 0.25382 0.45039 0.0
C2634 C 0.76527 0.25233 0.46751 0.0
C2635 C 0.79716 0.2591 0.46862 0.0
C2636 C 0.79527 0.26793 0.45531 0.0
C2637 C 0.75977 0.24499 0.48736 0.0
C2638 C 0.75795 0.24852 0.51167 0.0
C2639 C 0.75107 0.23496 0.48244 0.0
C2640 C 0.75432 0.23071 0.4573 0.0
C2641 C 0.78946 0.23202 0.44333 0.0
C2642 C 0.79247 0.22794 0.41976 0.0
C2643 C 0.7606 0.2225 0.40999 0.0
C2644 C 0.72567 0.22111 0.42377 0.0
C2645 C 0.7225 0.22517 0.44735 0.0
H2646 H 0.76301 0.21934 0.39175 0.0
H2647 H 0.73766 0.25814 0.62178 0.0
H2648 H 0.43898 0.28242 0.79639 0.0
H2649 H 0.41277 0.26702 0.77935 0.0
H2650 H 0.50665 0.25063 0.8157 0.0
H2651 H 0.53298 0.26593 0.83297 0.0
H2652 H 0.50635 0.25731 0.75799 0.0
H2653 H 0.44144 0.24001 0.82543 0.0
H2654 H 0.39054 0.23751 0.85769 0.0
H2655 H 0.29707 0.23892 0.80341 0.0
H2656 H 0.34751 0.24159 0.77082 0.0
H2657 H 0.52768 0.20871 0.71175 0.0
H2658 H 0.52522 0.22476 0.73223 0.0
H2659 H 0.40395 0.2291 0.70666 0.0
H2660 H 0.40604 0.21306 0.68609 0.0
H2661 H 0.40944 0.22947 0.75671 0.0
H2662 H 0.47489 0.24488 0.68869 0.0
H2663 H 0.52575 0.24724 0.65626 0.0
H2664 H 0.61792 0.24957 0.71114 0.0
H2665 H 0.56773 0.24707 0.7439 0.0
C2666 C 0.45266 0.27549 0.80198 0.0
C2667 C 0.48901 0.27538 0.81512 0.0
C2668 C 0.43744 0.26668 0.79231 0.0
C2669 C 0.45826 0.25778 0.79603 0.0
C2670 C 0.49024 0.25747 0.81273 0.0
C2671 C 0.50546 0.26624 0.82238 0.0
C2672 C 0.45697 0.25023 0.77665 0.0
C2673 C 0.48538 0.25115 0.75772 0.0
C2674 C 0.42859 0.24252 0.7761 0.0
C2675 C 0.39822 0.2412 0.79575 0.0
C2676 C 0.41001 0.23997 0.82041 0.0
C2677 C 0.38123 0.23846 0.83875 0.0
C2678 C 0.34055 0.23811 0.83264 0.0
C2679 C 0.32858 0.23924 0.80814 0.0
C2680 C 0.35726 0.24075 0.78973 0.0
C2681 C 0.50102 0.21323 0.70969 0.0
C2682 C 0.46675 0.20953 0.69781 0.0
C2683 C 0.49963 0.2224 0.72143 0.0
C2684 C 0.46416 0.228 0.72119 0.0
C2685 C 0.43139 0.2248 0.70721 0.0
C2686 C 0.43276 0.21565 0.69543 0.0
C2687 C 0.45961 0.23638 0.73828 0.0
C2688 C 0.43009 0.23569 0.75672 0.0
C2689 C 0.48708 0.24433 0.73846 0.0
C2690 C 0.51751 0.24571 0.71877 0.0
C2691 C 0.50605 0.2458 0.69385 0.0
C2692 C 0.53476 0.24718 0.6754 0.0
C2693 C 0.57505 0.24854 0.68163 0.0
C2694 C 0.58671 0.24851 0.70633 0.0
C2695 C 0.55812 0.24713 0.72485 0.0
H2696 H 0.59722 0.24962 0.66732 0.0
H2697 H 0.31829 0.23692 0.84683 0.0
H2698 H 0.42768 0.01922 0.57554 0.0
H2699 H 0.43745 0.00291 0.55749 0.0
H2700 H 0.55054 0.01244 0.52694 0.0
H2701 H 0.54089 0.02884 0.54476 0.0
H2702 H 0.49556 0.00771 0.49193 0.0
H2703 H 0.5473 -0.00701 0.56513 0.0
H2704 H 0.55003 -0.01139 0.60917 0.0
H2705 H 0.43853 0.97291 0.60266 0.0
H2706 H 0.43468 0.97736 0.55869 0.0
H2707 H 0.54224 0.96122 0.43616 0.0
H2708 H 0.53554 0.97752 0.45484 0.0
H2709 H 0.42229 0.96884 0.48667 0.0
H2710 H 0.42885 0.95245 0.46824 0.0
H2711 H 0.47919 0.97312 0.52108 0.0
H2712 H 0.4272 -0.01199 0.44794 0.0
H2713 H 0.42387 -0.00731 0.40413 0.0
H2714 H 0.53573 0.00822 0.4106 0.0
H2715 H 0.54024 0.00346 0.45434 0.0
C2716 C 0.4554 0.01774 0.5658 0.0
C2717 C 0.48293 0.02539 0.56089 0.0
C2718 C 0.461 0.00839 0.55557 0.0
C2719 C 0.49435 0.00657 0.54054 0.0
C2720 C 0.52441 0.01378 0.53832 0.0
C2721 C 0.51889 0.02314 0.5486 0.0
C2722 C 0.49367 -0.00195 0.52361 0.0
C2723 C 0.49289 0.0001 0.49824 0.0
C2724 C 0.48845 -0.01176 0.53204 0.0
C2725 C 0.4905 0.98561 0.5586 0.0
C2726 C 0.52309 -0.01129 0.57313 0.0
C2727 C 0.52486 0.9862 0.5981 0.0
C2728 C 0.49436 0.98053 0.60873 0.0
C2729 C 0.46207 0.97734 0.59442 0.0
C2730 C 0.46009 0.97984 0.56946 0.0
C2731 C 0.51515 0.96289 0.44636 0.0
C2732 C 0.48663 0.95547 0.45136 0.0
C2733 C 0.51133 0.97223 0.45696 0.0
C2734 C 0.47879 0.97428 0.47246 0.0
C2735 C 0.44782 0.96732 0.47493 0.0
C2736 C 0.45155 0.95797 0.46429 0.0
C2737 C 0.48094 0.98278 0.4894 0.0
C2738 C 0.48201 0.98072 0.51476 0.0
C2739 C 0.48646 -0.00741 0.48096 0.0
C2740 C 0.48429 -0.00474 0.45443 0.0
C2741 C 0.45143 -0.00771 0.43997 0.0
C2742 C 0.44928 -0.00502 0.41513 0.0
C2743 C 0.47963 0.00072 0.40456 0.0
C2744 C 0.51226 0.00376 0.4188 0.0
C2745 C 0.51463 0.00106 0.44361 0.0
H2746 H 0.47779 0.00284 0.38537 0.0
H2747 H 0.49587 0.97856 0.62804 0.0
H2748 H 0.57318 0.76314 0.31796 0.0
H2749 H 0.55776 0.7471 0.2998 0.0
H2750 H 0.43939 0.75742 0.28071 0.0
H2751 H 0.45443 0.77355 0.29877 0.0
H2752 H 0.45003 0.73526 0.28955 0.0
H2753 H 0.50006 0.76347 0.24163 0.0
H2754 H 0.54685 0.77744 0.23564 0.0
H2755 H 0.64664 0.75732 0.23745 0.0
H2756 H 0.6004 0.74325 0.24389 0.0
H2757 H 0.41349 0.70882 0.18422 0.0
H2758 H 0.42639 0.72456 0.20464 0.0
H2759 H 0.54669 0.71507 0.22177 0.0
H2760 H 0.53422 0.69925 0.20143 0.0
H2761 H 0.53483 0.73668 0.21424 0.0
H2762 H 0.48706 0.7087 0.26306 0.0
H2763 H 0.44189 0.69438 0.26864 0.0
H2764 H 0.33962 0.71367 0.26452 0.0
H2765 H 0.38431 0.72811 0.25885 0.0
C2766 C 0.54326 0.76189 0.31085 0.0
C2767 C 0.51553 0.7697 0.30891 0.0
C2768 C 0.53448 0.7527 0.30059 0.0
C2769 C 0.49792 0.75125 0.28843 0.0
C2770 C 0.46788 0.75848 0.28992 0.0
C2771 C 0.47663 0.76771 0.30018 0.0
C2772 C 0.49498 0.74348 0.26962 0.0
C2773 C 0.46824 0.7356 0.27302 0.0
C2774 C 0.51914 0.74393 0.24818 0.0
C2775 C 0.54684 0.75233 0.24347 0.0
C2776 C 0.53199 0.76204 0.24089 0.0
C2777 C 0.5584 0.76997 0.23741 0.0
C2778 C 0.59969 0.76827 0.23624 0.0
C2779 C 0.61464 0.75863 0.23841 0.0
C2780 C 0.58836 0.75067 0.24195 0.0
C2781 C 0.44324 0.71021 0.19145 0.0
C2782 C 0.47242 0.70268 0.19198 0.0
C2783 C 0.4505 0.71921 0.20309 0.0
C2784 C 0.48703 0.72077 0.21519 0.0
C2785 C 0.5182 0.71389 0.21265 0.0
C2786 C 0.51096 0.70486 0.20102 0.0
C2787 C 0.48981 0.7285 0.23411 0.0
C2788 C 0.51656 0.73636 0.23075 0.0
C2789 C 0.46581 0.728 0.25559 0.0
C2790 C 0.43895 0.71946 0.2604 0.0
C2791 C 0.45492 0.70988 0.26336 0.0
C2792 C 0.42943 0.70175 0.2665 0.0
C2793 C 0.38789 0.70311 0.26678 0.0
C2794 C 0.3718 0.71263 0.26418 0.0
C2795 C 0.39719 0.72079 0.26113 0.0
H2796 H 0.36819 0.6968 0.26919 0.0
H2797 H 0.6201 0.77441 0.23361 0.0
H2798 H 0.51855 0.45812 0.9216 0.0
H2799 H 0.49326 0.47296 0.94163 0.0
H2800 H 0.40051 0.45573 0.97685 0.0
H2801 H 0.42608 0.44075 0.95708 0.0
H2802 H 0.42805 0.48431 0.95193 0.0
H2803 H 0.40788 0.46013 0.03684 0.0
H2804 H 0.42554 0.44338 0.05185 0.0
H2805 H 0.53413 0.44405 0.00938 0.0
H2806 H 0.5171 0.4608 0.99419 0.0
H2807 H 0.41096 0.51411 0.0655 0.0
H2808 H 0.40172 0.49753 0.04822 0.0
H2809 H 0.51603 0.49983 0.01159 0.0
H2810 H 0.52592 0.51631 0.02897 0.0
H2811 H 0.46056 0.4784 0.04005 0.0
H2812 H 0.48086 0.5 0.95113 0.0
H2813 H 0.47405 0.51717 0.93584 0.0
H2814 H 0.37683 0.52222 0.98611 0.0
H2815 H 0.38253 0.50503 0.0013 0.0
C2816 C 0.49175 0.45755 0.9328 0.0
C2817 C 0.47507 0.44826 0.93846 0.0
C2818 C 0.47719 0.46605 0.94416 0.0
C2819 C 0.44587 0.46534 0.96128 0.0
C2820 C 0.42521 0.45634 0.96399 0.0
C2821 C 0.43978 0.44781 0.95258 0.0
C2822 C 0.44136 0.47332 0.97958 0.0
C2823 C 0.43435 0.483 0.97126 0.0
C2824 C 0.45007 0.4716 0.00479 0.0
C2825 C 0.46099 0.46164 0.01423 0.0
C2826 C 0.43551 0.45669 0.03075 0.0
C2827 C 0.44534 0.44719 0.0392 0.0
C2828 C 0.4808 0.44263 0.03144 0.0
C2829 C 0.50659 0.44757 0.01527 0.0
C2830 C 0.49684 0.45706 0.00672 0.0
C2831 C 0.43485 0.51092 0.05456 0.0
C2832 C 0.4688 0.51656 0.04813 0.0
C2833 C 0.42952 0.50145 0.04479 0.0
C2834 C 0.45788 0.49764 0.02839 0.0
C2835 C 0.49382 0.50276 0.02419 0.0
C2836 C 0.49943 0.51216 0.03417 0.0
C2837 C 0.44739 0.48932 0.01228 0.0
C2838 C 0.45224 0.47963 0.02098 0.0
C2839 C 0.43736 0.49105 0.98735 0.0
C2840 C 0.43238 0.50126 0.97749 0.0
C2841 C 0.45783 0.50476 0.95877 0.0
C2842 C 0.45419 0.51449 0.95014 0.0
C2843 C 0.42511 0.52079 0.96005 0.0
C2844 C 0.39943 0.51734 0.9785 0.0
C2845 C 0.40286 0.5076 0.98713 0.0
H2846 H 0.42242 0.52834 0.9534 0.0
H2847 H 0.48841 0.4353 0.03811 0.0
H2848 H 0.03194 0.3032 0.20172 0.0
H2849 H 0.04579 0.30175 0.15753 0.0
H2850 H 0.17267 0.30398 0.1719 0.0
H2851 H 0.15926 0.30528 0.216 0.0
H2852 H 0.14202 0.31665 0.13298 0.0
H2853 H 0.13872 0.28242 0.16085 0.0
H2854 H 0.10735 0.26795 0.18091 0.0
H2855 H 0.00957 0.26919 0.12956 0.0
H2856 H 0.04008 0.28377 0.10941 0.0
H2857 H 0.22413 0.30387 0.0183 0.0
H2858 H 0.20867 0.30423 0.06226 0.0
H2859 H 0.08749 0.29485 0.04693 0.0
H2860 H 0.10304 0.29415 0.00311 0.0
H2861 H 0.11257 0.28587 0.08646 0.0
H2862 H 0.11041 0.31921 0.05839 0.0
H2863 H 0.13577 0.33412 0.03734 0.0
H2864 H 0.23455 0.33562 0.08793 0.0
H2865 H 0.21017 0.32056 0.10901 0.0
C2866 C 0.06276 0.30342 0.19544 0.0
C2867 C 0.09452 0.30434 0.21232 0.0
C2868 C 0.0706 0.30254 0.17026 0.0
C2869 C 0.11023 0.30271 0.16159 0.0
C2870 C 0.1419 0.30382 0.17831 0.0
C2871 C 0.13416 0.30454 0.20348 0.0
C2872 C 0.11891 0.30177 0.13504 0.0
C2873 C 0.13608 0.30989 0.12282 0.0
C2874 C 0.10969 0.29306 0.12176 0.0
C2875 C 0.09147 0.28426 0.1338 0.0
C2876 C 0.11034 0.27967 0.15398 0.0
C2877 C 0.09275 0.27143 0.16533 0.0
C2878 C 0.05642 0.26767 0.15656 0.0
C2879 C 0.03767 0.27212 0.13636 0.0
C2880 C 0.05512 0.28037 0.12496 0.0
C2881 C 0.19425 0.30183 0.0243 0.0
C2882 C 0.16475 0.29906 0.00718 0.0
C2883 C 0.18541 0.30207 0.04943 0.0
C2884 C 0.14669 0.29973 0.05786 0.0
C2885 C 0.11753 0.2967 0.04087 0.0
C2886 C 0.12648 0.29634 0.01579 0.0
C2887 C 0.13626 0.30072 0.0843 0.0
C2888 C 0.1186 0.29264 0.09653 0.0
C2889 C 0.1441 0.30956 0.09751 0.0
C2890 C 0.15868 0.31869 0.08512 0.0
C2891 C 0.13771 0.32268 0.06493 0.0
C2892 C 0.1519 0.33116 0.05299 0.0
C2893 C 0.1868 0.33582 0.06125 0.0
C2894 C 0.20754 0.332 0.08152 0.0
C2895 C 0.19355 0.32348 0.09348 0.0
H2896 H 0.19774 0.34239 0.05197 0.0
H2897 H 0.04284 0.2613 0.16537 0.0
H2898 H 0.15383 0.92056 0.02374 0.0
H2899 H 0.16479 0.92046 0.0682 0.0
H2900 H 0.0391 0.92625 0.08019 0.0
H2901 H 0.02758 0.92616 0.03552 0.0
H2902 H 0.09939 0.93911 0.10651 0.0
H2903 H 0.06289 0.90495 0.0921 0.0
H2904 H 0.06795 0.88884 0.07097 0.0
H2905 H 0.19139 0.88637 0.09271 0.0
H2906 H 0.18722 0.90255 0.11367 0.0
H2907 H 0.09208 0.93115 0.23457 0.0
H2908 H 0.07947 0.93072 0.19046 0.0
H2909 H 0.19661 0.91803 0.17839 0.0
H2910 H 0.20944 0.9183 0.22276 0.0
H2911 H 0.14057 0.90872 0.15162 0.0
H2912 H 0.17966 0.94205 0.16628 0.0
H2913 H 0.17917 0.95841 0.18642 0.0
H2914 H 0.05774 0.96311 0.16286 0.0
H2915 H 0.05716 0.94668 0.14296 0.0
C2916 C 0.12846 0.92178 0.03582 0.0
C2917 C 0.08982 0.92337 0.02622 0.0
C2918 C 0.13479 0.9217 0.06116 0.0
C2919 C 0.10273 0.92334 0.0773 0.0
C2920 C 0.06413 0.92497 0.06788 0.0
C2921 C 0.05759 0.92487 0.04246 0.0
C2922 C 0.10997 0.92341 0.10405 0.0
C2923 C 0.10769 0.93246 0.11657 0.0
C2924 C 0.12234 0.91477 0.11669 0.0
C2925 C 0.12485 0.90501 0.10424 0.0
C2926 C 0.09122 0.90102 0.09218 0.0
C2927 C 0.0939 0.89186 0.08028 0.0
C2928 C 0.13 0.8866 0.08044 0.0
C2929 C 0.16346 0.89046 0.09257 0.0
C2930 C 0.16094 0.89962 0.10449 0.0
C2931 C 0.11526 0.92825 0.22261 0.0
C2932 C 0.15189 0.92479 0.23221 0.0
C2933 C 0.10801 0.92806 0.19736 0.0
C2934 C 0.13732 0.92447 0.18116 0.0
C2935 C 0.17367 0.92085 0.19063 0.0
C2936 C 0.18096 0.92103 0.21596 0.0
C2937 C 0.12964 0.92443 0.15435 0.0
C2938 C 0.13205 0.91539 0.14172 0.0
C2939 C 0.11801 0.93313 0.14154 0.0
C2940 C 0.11819 0.94305 0.15341 0.0
C2941 C 0.15269 0.94651 0.1656 0.0
C2942 C 0.15263 0.95581 0.17694 0.0
C2943 C 0.11837 0.96176 0.17604 0.0
C2944 C 0.08419 0.95847 0.16363 0.0
C2945 C 0.08404 0.94916 0.15231 0.0
H2946 H 0.11834 0.96892 0.18497 0.0
H2947 H 0.13202 0.87951 0.07122 0.0
H2948 H 0.94243 0.66267 0.7726 0.0
H2949 H 0.92799 0.66138 0.81673 0.0
H2950 H 0.84429 0.68566 0.81071 0.0
H2951 H 0.85794 0.68691 0.76681 0.0
H2952 H 0.93577 0.67389 0.85472 0.0
H2953 H 0.76431 0.68153 0.84649 0.0
H2954 H 0.70961 0.6786 0.8168 0.0
H2955 H 0.7742 0.65393 0.78651 0.0
H2956 H 0.82899 0.65662 0.81623 0.0
H2957 H 0.85922 0.69004 0.96767 0.0
H2958 H 0.87586 0.68809 0.92426 0.0
H2959 H 0.80851 0.66078 0.92206 0.0
H2960 H 0.79061 0.66286 0.96543 0.0
H2961 H 0.79437 0.6709 0.88239 0.0
H2962 H 0.91266 0.66085 0.92442 0.0
H2963 H 0.96814 0.66214 0.95426 0.0
H2964 H 0.01148 0.68822 0.91746 0.0
H2965 H 0.95593 0.68717 0.88759 0.0
C2966 C 0.92109 0.66775 0.78071 0.0
C2967 C 0.90107 0.67483 0.76614 0.0
C2968 C 0.9129 0.66701 0.80591 0.0
C2969 C 0.88454 0.6733 0.81686 0.0
C2970 C 0.86563 0.68058 0.80251 0.0
C2971 C 0.87362 0.68131 0.77741 0.0
C2972 C 0.87428 0.67231 0.84327 0.0
C2973 C 0.90491 0.67319 0.86081 0.0
C2974 C 0.8341 0.67111 0.85116 0.0
C2975 C 0.80091 0.66933 0.83348 0.0
C2976 C 0.76674 0.67544 0.83359 0.0
C2977 C 0.73574 0.67383 0.81673 0.0
C2978 C 0.73848 0.6661 0.79973 0.0
C2979 C 0.77217 0.65994 0.79962 0.0
C2980 C 0.80323 0.66151 0.81645 0.0
C2981 C 0.84782 0.68363 0.95795 0.0
C2982 C 0.82375 0.67658 0.97 0.0
C2983 C 0.85759 0.68249 0.93316 0.0
C2984 C 0.84419 0.67417 0.92004 0.0
C2985 C 0.81937 0.66723 0.93186 0.0
C2986 C 0.80914 0.66843 0.95663 0.0
C2987 C 0.85572 0.67284 0.8939 0.0
C2988 C 0.8253 0.6715 0.87637 0.0
C2989 C 0.89621 0.67335 0.88607 0.0
C2990 C 0.92995 0.67396 0.90385 0.0
C2991 C 0.93388 0.6669 0.92277 0.0
C2992 C 0.96536 0.66758 0.93969 0.0
C2993 C 0.99327 0.67527 0.93778 0.0
C2994 C 0.98983 0.68227 0.91891 0.0
C2995 C 0.95838 0.68163 0.90196 0.0
H2996 H 0.01761 0.67579 0.9509 0.0
H2997 H 0.71447 0.66487 0.78668 0.0
H2998 H 0.84904 0.0351 0.77566 0.0
H2999 H 0.86707 0.03582 0.81928 0.0
H3000 H 0.83214 0.06657 0.82167 0.0
H3001 H 0.81296 0.06586 0.77804 0.0
H3002 H 0.9169 0.05997 0.84027 0.0
H3003 H 0.77324 0.05405 0.84836 0.0
H3004 H 0.71114 0.04483 0.83921 0.0
H3005 H 0.76411 0.01816 0.86777 0.0
H3006 H 0.82668 0.02719 0.87674 0.0
H3007 H 0.94324 0.06649 0.96881 0.0
H3008 H 0.92188 0.06686 0.92577 0.0
H3009 H 0.89787 0.0354 0.92884 0.0
H3010 H 0.9164 0.03522 0.97236 0.0
H3011 H 0.84094 0.04302 0.90662 0.0
H3012 H 0.98238 0.04669 0.89725 0.0
H3013 H 0.04961 0.05381 0.90399 0.0
H3014 H 0.0094 0.08181 0.87548 0.0
H3015 H 0.94175 0.0749 0.86885 0.0
C3016 C 0.84488 0.042 0.78552 0.0
C3017 C 0.82963 0.05043 0.7735 0.0
C3018 C 0.85515 0.04238 0.81038 0.0
C3019 C 0.85094 0.05125 0.82351 0.0
C3020 C 0.83552 0.05968 0.8117 0.0
C3021 C 0.82442 0.05924 0.7869 0.0
C3022 C 0.86383 0.0517 0.84944 0.0
C3023 C 0.9001 0.05643 0.85497 0.0
C3024 C 0.84261 0.04667 0.86815 0.0
C3025 C 0.80476 0.04128 0.86301 0.0
C3026 C 0.77175 0.0462 0.85249 0.0
C3027 C 0.73643 0.04101 0.84737 0.0
C3028 C 0.73369 0.03091 0.85283 0.0
C3029 C 0.76623 0.02598 0.8635 0.0
C3030 C 0.80161 0.03113 0.86864 0.0
C3031 C 0.93379 0.05965 0.96013 0.0
C3032 C 0.9315 0.05082 0.97375 0.0
C3033 C 0.92175 0.05984 0.9355 0.0
C3034 C 0.90869 0.05112 0.92381 0.0
C3035 C 0.90755 0.04224 0.93738 0.0
C3036 C 0.91836 0.04212 0.96218 0.0
C3037 C 0.89455 0.05129 0.89784 0.0
C3038 C 0.85796 0.04664 0.89216 0.0
C3039 C 0.91627 0.05611 0.87881 0.0
C3040 C 0.95689 0.0603 0.8828 0.0
C3041 C 0.98779 0.05439 0.8926 0.0
C3042 C 0.02599 0.05839 0.89636 0.0
C3043 C 0.03374 0.06827 0.89023 0.0
C3044 C 0.00333 0.07417 0.88026 0.0
C3045 C 0.96507 0.07021 0.87647 0.0
H3046 H 0.06333 0.07134 0.89316 0.0
H3047 H 0.70632 0.0269 0.84885 0.0
H3048 H 0.13645 0.79101 0.71594 0.0
H3049 H 0.15743 0.79201 0.67308 0.0
H3050 H 0.05149 0.80899 0.65561 0.0
H3051 H 0.03031 0.80814 0.69873 0.0
H3052 H 0.12341 0.78547 0.63167 0.0
H3053 H 0.07684 0.82585 0.61064 0.0
H3054 H 0.06717 0.84166 0.63262 0.0
H3055 H 0.15265 0.83265 0.68739 0.0
H3056 H 0.16321 0.81685 0.66557 0.0
H3057 H 0.11853 0.79529 0.50423 0.0
H3058 H 0.1014 0.79509 0.54779 0.0
H3059 H 0.21205 0.81011 0.56489 0.0
H3060 H 0.23016 0.81015 0.5211 0.0
H3061 H 0.14265 0.81782 0.58957 0.0
H3062 H 0.21138 0.78693 0.57737 0.0
H3063 H 0.22648 0.77091 0.5576 0.0
H3064 H 0.10603 0.76107 0.57115 0.0
H3065 H 0.09021 0.77703 0.59107 0.0
C3066 C 0.11747 0.79496 0.70304 0.0
C3067 C 0.08173 0.79954 0.71082 0.0
C3068 C 0.12951 0.79549 0.67851 0.0
C3069 C 0.10624 0.80064 0.66123 0.0
C3070 C 0.07016 0.80508 0.66876 0.0
C3071 C 0.05802 0.80455 0.69337 0.0
C3072 C 0.12001 0.80135 0.63538 0.0
C3073 C 0.12751 0.79254 0.62247 0.0
C3074 C 0.12609 0.81059 0.62353 0.0
C3075 C 0.12049 0.82013 0.63659 0.0
C3076 C 0.09368 0.82727 0.62732 0.0
C3077 C 0.08802 0.83622 0.63976 0.0
C3078 C 0.10918 0.83815 0.66143 0.0
C3079 C 0.13617 0.83114 0.67066 0.0
C3080 C 0.14196 0.82217 0.65828 0.0
C3081 C 0.13944 0.79853 0.51718 0.0
C3082 C 0.17603 0.80262 0.50918 0.0
C3083 C 0.12948 0.79841 0.54207 0.0
C3084 C 0.15565 0.80249 0.55949 0.0
C3085 C 0.19156 0.8069 0.55163 0.0
C3086 C 0.20184 0.80691 0.52665 0.0
C3087 C 0.14545 0.80194 0.58591 0.0
C3088 C 0.13849 0.81076 0.59884 0.0
C3089 C 0.14045 0.79273 0.59795 0.0
C3090 C 0.14955 0.78319 0.58555 0.0
C3091 C 0.18802 0.78138 0.57596 0.0
C3092 C 0.19676 0.77229 0.56483 0.0
C3093 C 0.16723 0.76498 0.56312 0.0
C3094 C 0.12888 0.76674 0.57253 0.0
C3095 C 0.12005 0.77578 0.58381 0.0
H3096 H 0.17408 0.75795 0.55457 0.0
H3097 H 0.10473 0.84508 0.67105 0.0
H3098 H 0.0844 0.4179 0.74443 0.0
H3099 H 0.07135 0.41731 0.70015 0.0
H3100 H 0.19853 0.41648 0.68588 0.0
H3101 H 0.21192 0.41688 0.73027 0.0
H3102 H 0.15265 0.43164 0.6593 0.0
H3103 H 0.15285 0.3966 0.67576 0.0
H3104 H 0.13264 0.38138 0.6977 0.0
H3105 H 0.00987 0.38639 0.67725 0.0
H3106 H 0.02929 0.40173 0.65548 0.0
H3107 H 0.14083 0.42323 0.53099 0.0
H3108 H 0.15668 0.42237 0.57472 0.0
H3109 H 0.03211 0.41683 0.5913 0.0
H3110 H 0.01603 0.41746 0.54739 0.0
H3111 H 0.0784 0.40475 0.61695 0.0
H3112 H 0.07552 0.43951 0.60093 0.0
H3113 H 0.0927 0.45517 0.57998 0.0
H3114 H 0.21615 0.45156 0.60065 0.0
H3115 H 0.19985 0.43577 0.62137 0.0
C3116 C 0.1096 0.41745 0.73189 0.0
C3117 C 0.14919 0.41742 0.74081 0.0
C3118 C 0.10208 0.41712 0.70663 0.0
C3119 C 0.134 0.41687 0.68984 0.0
C3120 C 0.17355 0.41667 0.69863 0.0
C3121 C 0.18111 0.41683 0.72395 0.0
C3122 C 0.12581 0.41721 0.6631 0.0
C3123 C 0.13705 0.42571 0.64985 0.0
C3124 C 0.10424 0.4096 0.65117 0.0
C3125 C 0.09248 0.40037 0.6642 0.0
C3126 C 0.1215 0.39451 0.67613 0.0
C3127 C 0.11019 0.38585 0.6885 0.0
C3128 C 0.06998 0.38294 0.68892 0.0
C3129 C 0.041 0.38867 0.67693 0.0
C3130 C 0.05215 0.39734 0.66455 0.0
C3131 C 0.11671 0.42183 0.54389 0.0
C3132 C 0.07711 0.42041 0.53566 0.0
C3133 C 0.12584 0.4214 0.56893 0.0
C3134 C 0.09552 0.41966 0.58632 0.0
C3135 C 0.05598 0.41819 0.57819 0.0
C3136 C 0.04682 0.41857 0.55309 0.0
C3137 C 0.10524 0.4192 0.61294 0.0
C3138 C 0.09419 0.41069 0.62624 0.0
C3139 C 0.12655 0.42688 0.62498 0.0
C3140 C 0.13652 0.43638 0.61247 0.0
C3141 C 0.10641 0.44199 0.60081 0.0
C3142 C 0.11598 0.45091 0.589 0.0
C3143 C 0.15552 0.45433 0.58889 0.0
C3144 C 0.18555 0.44887 0.60068 0.0
C3145 C 0.17616 0.43994 0.61247 0.0
H3146 H 0.16286 0.46123 0.57973 0.0
H3147 H 0.06129 0.37623 0.6985 0.0
H3148 H 0.84212 0.16355 0.26858 0.0
H3149 H 0.82484 0.16418 0.31223 0.0
H3150 H 0.94556 0.17348 0.32936 0.0
H3151 H 0.96349 0.17231 0.28574 0.0
H3152 H 0.92087 0.16212 0.36404 0.0
H3153 H 0.86436 0.19028 0.32332 0.0
H3154 H 0.82468 0.19922 0.29204 0.0
H3155 H 0.71781 0.18444 0.31657 0.0
H3156 H 0.75696 0.17531 0.3478 0.0
H3157 H 0.8759 0.1843 0.47863 0.0
H3158 H 0.89252 0.18251 0.43517 0.0
H3159 H 0.78017 0.16752 0.42257 0.0
H3160 H 0.76307 0.16928 0.46621 0.0
H3161 H 0.80032 0.18179 0.38614 0.0
H3162 H 0.8617 0.15402 0.42855 0.0
H3163 H 0.90434 0.14649 0.46063 0.0
H3164 H 0.00628 0.16257 0.43334 0.0
H3165 H 0.9641 0.1703 0.4013 0.0
C3166 C 0.86511 0.16556 0.28175 0.0
C3167 C 0.90405 0.16794 0.27385 0.0
C3168 C 0.85514 0.16601 0.30665 0.0
C3169 C 0.88353 0.16918 0.32403 0.0
C3170 C 0.92304 0.17108 0.31629 0.0
C3171 C 0.93331 0.1704 0.2914 0.0
C3172 C 0.87164 0.17083 0.35005 0.0
C3173 C 0.89477 0.16652 0.36882 0.0
C3174 C 0.83736 0.17651 0.3564 0.0
C3175 C 0.81367 0.18204 0.33773 0.0
C3176 C 0.83244 0.18888 0.32193 0.0
C3177 C 0.81004 0.19399 0.30423 0.0
C3178 C 0.76877 0.19237 0.30227 0.0
C3179 C 0.74979 0.18567 0.31808 0.0
C3180 C 0.77206 0.18053 0.3358 0.0
C3181 C 0.85447 0.18069 0.46665 0.0
C3182 C 0.81824 0.17686 0.47597 0.0
C3183 C 0.86414 0.17965 0.44182 0.0
C3184 C 0.83783 0.17476 0.4258 0.0
C3185 C 0.80093 0.17128 0.43474 0.0
C3186 C 0.79126 0.17227 0.45966 0.0
C3187 C 0.84944 0.17305 0.39988 0.0
C3188 C 0.8263 0.17738 0.38121 0.0
C3189 C 0.88418 0.16758 0.39365 0.0
C3190 C 0.90967 0.1628 0.41266 0.0
C3191 C 0.89315 0.156 0.42949 0.0
C3192 C 0.91725 0.15169 0.44765 0.0
C3193 C 0.95798 0.15407 0.44906 0.0
C3194 C 0.97472 0.16074 0.43225 0.0
C3195 C 0.95075 0.16508 0.41407 0.0
H3196 H 0.97657 0.15072 0.46314 0.0
H3197 H 0.75148 0.19633 0.28855 0.0
H3198 H 0.86925 0.5493 0.48069 0.0
H3199 H 0.85099 0.54925 0.43733 0.0
H3200 H 0.9649 0.56249 0.41885 0.0
H3201 H 0.98386 0.56243 0.46243 0.0
H3202 H 0.84031 0.56343 0.4046 0.0
H3203 H 0.99636 0.55324 0.36493 0.0
H3204 H 0.05608 0.54346 0.37655 0.0
H3205 H 0.98371 0.52517 0.42363 0.0
H3206 H 0.92369 0.53488 0.41251 0.0
H3207 H 0.83004 0.56973 0.27503 0.0
H3208 H 0.84734 0.57044 0.31876 0.0
H3209 H 0.8733 0.53906 0.31815 0.0
H3210 H 0.8586 0.53851 0.27416 0.0
H3211 H 0.92714 0.5471 0.34263 0.0
H3212 H 0.78412 0.54997 0.34452 0.0
H3213 H 0.71785 0.55689 0.33388 0.0
H3214 H 0.75238 0.58504 0.36396 0.0
H3215 H 0.81905 0.57831 0.37451 0.0
C3216 C 0.89052 0.55223 0.46747 0.0
C3217 C 0.92814 0.55585 0.47505 0.0
C3218 C 0.87989 0.55223 0.44267 0.0
C3219 C 0.90662 0.55581 0.42486 0.0
C3220 C 0.94399 0.55958 0.43231 0.0
C3221 C 0.95471 0.55959 0.45721 0.0
C3222 C 0.89539 0.55546 0.39849 0.0
C3223 C 0.8593 0.55989 0.39099 0.0
C3224 C 0.91959 0.5506 0.3809 0.0
C3225 C 0.95569 0.54486 0.38807 0.0
C3226 C 0.99326 0.54715 0.37783 0.0
C3227 C 0.02716 0.54163 0.38439 0.0
C3228 C 0.02374 0.53375 0.40098 0.0
C3229 C 0.9864 0.53135 0.41104 0.0
C3230 C 0.95247 0.53688 0.40468 0.0
C3231 C 0.83924 0.56299 0.28435 0.0
C3232 C 0.843 0.55407 0.27132 0.0
C3233 C 0.84895 0.56338 0.30936 0.0
C3234 C 0.86118 0.55478 0.32195 0.0
C3235 C 0.86421 0.54582 0.30891 0.0
C3236 C 0.85563 0.54549 0.2838 0.0
C3237 C 0.87187 0.55509 0.34851 0.0
C3238 C 0.90805 0.55068 0.3561 0.0
C3239 C 0.8468 0.5596 0.36634 0.0
C3240 C 0.8067 0.56366 0.36008 0.0
C3241 C 0.77766 0.55765 0.34871 0.0
C3242 C 0.74002 0.56154 0.34272 0.0
C3243 C 0.73095 0.57141 0.34818 0.0
C3244 C 0.75947 0.5774 0.35971 0.0
C3245 C 0.79718 0.57355 0.36572 0.0
H3246 H 0.7018 0.5744 0.34352 0.0
H3247 H 0.04998 0.52946 0.40596 0.0
H3248 H 0.72374 0.31065 0.53246 0.0
H3249 H 0.7055 0.30946 0.57598 0.0
H3250 H 0.61367 0.2881 0.55812 0.0
H3251 H 0.63077 0.2895 0.51465 0.0
H3252 H 0.58501 0.30013 0.58973 0.0
H3253 H 0.70419 0.28115 0.58432 0.0
H3254 H 0.77438 0.27746 0.57342 0.0
H3255 H 0.81493 0.30066 0.62133 0.0
H3256 H 0.74488 0.30467 0.63205 0.0
H3257 H 0.63045 0.28426 0.72625 0.0
H3258 H 0.6449 0.28352 0.68226 0.0
H3259 H 0.58422 0.31148 0.67167 0.0
H3260 H 0.56854 0.31211 0.71557 0.0
H3261 H 0.6881 0.29436 0.65403 0.0
H3262 H 0.54225 0.31277 0.61563 0.0
H3263 H 0.47006 0.3134 0.62552 0.0
H3264 H 0.47953 0.28576 0.66442 0.0
H3265 H 0.5516 0.28489 0.65449 0.0
C3266 C 0.69963 0.30572 0.53782 0.0
C3267 C 0.67871 0.30018 0.52009 0.0
C3268 C 0.68936 0.305 0.56271 0.0
C3269 C 0.65851 0.2986 0.57039 0.0
C3270 C 0.63749 0.29311 0.55268 0.0
C3271 C 0.64737 0.29391 0.5278 0.0
C3272 C 0.64784 0.29767 0.59682 0.0
C3273 C 0.60757 0.29887 0.60378 0.0
C3274 C 0.67701 0.29568 0.61512 0.0
C3275 C 0.71923 0.29328 0.6088 0.0
C3276 C 0.72804 0.28552 0.59238 0.0
C3277 C 0.76781 0.28336 0.58626 0.0
C3278 C 0.79909 0.28881 0.59669 0.0
C3279 C 0.79066 0.29645 0.61325 0.0
C3280 C 0.75092 0.29868 0.61934 0.0
C3281 C 0.61996 0.29023 0.71454 0.0
C3282 C 0.59828 0.29824 0.72441 0.0
C3283 C 0.62836 0.28981 0.68939 0.0
C3284 C 0.61545 0.29741 0.67359 0.0
C3285 C 0.59386 0.30543 0.6834 0.0
C3286 C 0.58503 0.3058 0.70853 0.0
C3287 C 0.6254 0.29706 0.64696 0.0
C3288 C 0.66554 0.29561 0.63997 0.0
C3289 C 0.59584 0.29838 0.62855 0.0
C3290 C 0.55244 0.29883 0.63452 0.0
C3291 C 0.5289 0.30682 0.62623 0.0
C3292 C 0.488 0.30722 0.63185 0.0
C3293 C 0.47025 0.29964 0.64566 0.0
C3294 C 0.49334 0.29164 0.65381 0.0
C3295 C 0.53423 0.2912 0.64823 0.0
H3296 H 0.43859 0.29997 0.64999 0.0
H3297 H 0.82987 0.28712 0.59195 0.0
H3298 H 0.51537 0.92403 0.54739 0.0
H3299 H 0.54091 0.92416 0.58985 0.0
H3300 H 0.66216 0.92235 0.56259 0.0
H3301 H 0.63712 0.92246 0.52032 0.0
H3302 H 0.64151 0.90875 0.6027 0.0
H3303 H 0.63854 0.94313 0.57953 0.0
H3304 H 0.60708 0.95829 0.56303 0.0
H3305 H 0.51933 0.95753 0.62084 0.0
H3306 H 0.54995 0.94225 0.63749 0.0
H3307 H 0.74731 0.92075 0.71306 0.0
H3308 H 0.72428 0.92049 0.67019 0.0
H3309 H 0.60425 0.92759 0.69401 0.0
H3310 H 0.6268 0.92796 0.73657 0.0
H3311 H 0.62559 0.93865 0.65489 0.0
H3312 H 0.62823 0.90421 0.67811 0.0
H3313 H 0.65862 0.88881 0.69399 0.0
H3314 H 0.7461 0.8895 0.636 0.0
H3315 H 0.71653 0.905 0.61996 0.0
C3316 C 0.54741 0.9236 0.55052 0.0
C3317 C 0.57429 0.92328 0.53063 0.0
C3318 C 0.56192 0.92371 0.57468 0.0
C3319 C 0.60336 0.92329 0.57918 0.0
C3320 C 0.63011 0.92267 0.55939 0.0
C3321 C 0.61573 0.92278 0.53531 0.0
C3322 C 0.61908 0.92369 0.60454 0.0
C3323 C 0.63847 0.9153 0.61409 0.0
C3324 C 0.61449 0.93222 0.6193 0.0
C3325 C 0.5962 0.94146 0.60954 0.0
C3326 C 0.6123 0.94614 0.58858 0.0
C3327 C 0.59468 0.95476 0.57924 0.0
C3328 C 0.56112 0.95884 0.59081 0.0
C3329 C 0.54527 0.95434 0.61186 0.0
C3330 C 0.56275 0.9457 0.62127 0.0
C3331 C 0.71603 0.92225 0.70914 0.0
C3332 C 0.68891 0.92434 0.72825 0.0
C3333 C 0.70291 0.92207 0.68468 0.0
C3334 C 0.66249 0.92397 0.67899 0.0
C3335 C 0.63555 0.92613 0.698 0.0
C3336 C 0.64855 0.92629 0.72236 0.0
C3337 C 0.64788 0.92365 0.65327 0.0
C3338 C 0.6287 0.93207 0.64358 0.0
C3339 C 0.65259 0.91513 0.63839 0.0
C3340 C 0.67045 0.90583 0.64801 0.0
C3341 C 0.65417 0.90113 0.66888 0.0
C3342 C 0.6712 0.89237 0.67788 0.0
C3343 C 0.70435 0.8882 0.66606 0.0
C3344 C 0.72047 0.89276 0.64517 0.0
C3345 C 0.70357 0.90152 0.6361 0.0
H3346 H 0.71748 0.88141 0.67305 0.0
H3347 H 0.54745 0.96549 0.58344 0.0
H3348 H 0.25901 0.6706 0.46742 0.0
H3349 H 0.27678 0.67053 0.42378 0.0
H3350 H 0.39853 0.67847 0.44213 0.0
H3351 H 0.38074 0.67888 0.48564 0.0
H3352 H 0.37632 0.68867 0.40407 0.0
H3353 H 0.37205 0.65444 0.42571 0.0
H3354 H 0.34397 0.639 0.44286 0.0
H3355 H 0.24681 0.64031 0.39108 0.0
H3356 H 0.27402 0.65585 0.37382 0.0
H3357 H 0.45634 0.67306 0.28645 0.0
H3358 H 0.44174 0.67365 0.3307 0.0
H3359 H 0.31509 0.67497 0.31502 0.0
H3360 H 0.32929 0.67458 0.27088 0.0
H3361 H 0.34315 0.65977 0.35147 0.0
H3362 H 0.34647 0.69551 0.33431 0.0
H3363 H 0.37801 0.71063 0.31751 0.0
H3364 H 0.48399 0.70498 0.36017 0.0
H3365 H 0.4526 0.68996 0.37773 0.0
C3366 C 0.28956 0.67232 0.46217 0.0
C3367 C 0.31849 0.67467 0.48004 0.0
C3368 C 0.29975 0.67224 0.43721 0.0
C3369 C 0.33919 0.67433 0.42968 0.0
C3370 C 0.36795 0.67681 0.44748 0.0
C3371 C 0.35771 0.677 0.47238 0.0
C3372 C 0.35042 0.674 0.40325 0.0
C3373 C 0.36949 0.68228 0.39272 0.0
C3374 C 0.34142 0.6657 0.38828 0.0
C3375 C 0.32487 0.65637 0.39864 0.0
C3376 C 0.34451 0.65148 0.41811 0.0
C3377 C 0.32879 0.6427 0.42783 0.0
C3378 C 0.29357 0.63869 0.41811 0.0
C3379 C 0.27406 0.64344 0.39861 0.0
C3380 C 0.28963 0.65223 0.38884 0.0
C3381 C 0.4254 0.67346 0.29245 0.0
C3382 C 0.39394 0.67373 0.27523 0.0
C3383 C 0.41716 0.67384 0.31766 0.0
C3384 C 0.37738 0.67434 0.32596 0.0
C3385 C 0.34596 0.67457 0.30886 0.0
C3386 C 0.35417 0.67437 0.2837 0.0
C3387 C 0.36834 0.67444 0.35254 0.0
C3388 C 0.34991 0.66611 0.36301 0.0
C3389 C 0.37853 0.68258 0.36753 0.0
C3390 C 0.39737 0.6916 0.35715 0.0
C3391 C 0.37656 0.69749 0.34002 0.0
C3392 C 0.39436 0.70604 0.33041 0.0
C3393 C 0.43314 0.70871 0.33753 0.0
C3394 C 0.454 0.70289 0.35459 0.0
C3395 C 0.43612 0.6944 0.36452 0.0
H3396 H 0.44695 0.7153 0.32991 0.0
H3397 H 0.28145 0.63189 0.42565 0.0
H3398 H 0.34443 0.04652 0.48208 0.0
H3399 H 0.33011 0.04547 0.43807 0.0
H3400 H 0.43877 0.06159 0.42209 0.0
H3401 H 0.45331 0.06275 0.46607 0.0
H3402 H 0.37614 0.06846 0.39538 0.0
H3403 H 0.43636 0.03695 0.41385 0.0
H3404 H 0.44421 0.02117 0.4364 0.0
H3405 H 0.32544 0.01243 0.41496 0.0
H3406 H 0.31673 0.02819 0.39248 0.0
H3407 H 0.38959 0.0414 0.27068 0.0
H3408 H 0.40055 0.04183 0.31501 0.0
H3409 H 0.29589 0.06029 0.32383 0.0
H3410 H 0.28488 0.06003 0.27928 0.0
H3411 H 0.35753 0.036 0.35408 0.0
H3412 H 0.31574 0.07709 0.36942 0.0
H3413 H 0.31422 0.09285 0.34627 0.0
H3414 H 0.40798 0.08231 0.29886 0.0
H3415 H 0.41042 0.06655 0.32193 0.0
C3416 C 0.36528 0.04988 0.46924 0.0
C3417 C 0.40008 0.05471 0.47762 0.0
C3418 C 0.35711 0.04922 0.44409 0.0
C3419 C 0.38357 0.05338 0.42685 0.0
C3420 C 0.41799 0.05833 0.43513 0.0
C3421 C 0.42628 0.05897 0.46027 0.0
C3422 C 0.3753 0.0526 0.40015 0.0
C3423 C 0.37195 0.06136 0.38636 0.0
C3424 C 0.37041 0.04333 0.38837 0.0
C3425 C 0.37572 0.03381 0.40172 0.0
C3426 C 0.4118 0.0317 0.4141 0.0
C3427 C 0.41644 0.02275 0.42683 0.0
C3428 C 0.38525 0.01583 0.42723 0.0
C3429 C 0.34951 0.01781 0.41471 0.0
C3430 C 0.34473 0.02674 0.40194 0.0
C3431 C 0.36873 0.04554 0.282 0.0
C3432 C 0.33651 0.05076 0.27138 0.0
C3433 C 0.37498 0.04572 0.30737 0.0
C3434 C 0.34928 0.05116 0.32267 0.0
C3435 C 0.31638 0.05615 0.31228 0.0
C3436 C 0.31008 0.05597 0.28684 0.0
C3437 C 0.35796 0.05187 0.34935 0.0
C3438 C 0.3614 0.04309 0.36315 0.0
C3439 C 0.36378 0.06112 0.36106 0.0
C3440 C 0.36291 0.07061 0.34723 0.0
C3441 C 0.3361 0.07815 0.3541 0.0
C3442 C 0.33508 0.08708 0.34099 0.0
C3443 C 0.36089 0.08856 0.32105 0.0
C3444 C 0.38789 0.08114 0.31424 0.0
C3445 C 0.38907 0.0722 0.32731 0.0
H3446 H 0.36002 0.09548 0.31091 0.0
H3447 H 0.38876 0.00894 0.43722 0.0
H3448 H 0.62546 0.78764 0.01624 0.0
H3449 H 0.61252 0.78801 0.06044 0.0
H3450 H 0.65642 0.8181 0.06364 0.0
H3451 H 0.6716 0.81752 0.01956 0.0
H3452 H 0.68113 0.80912 0.10158 0.0
H3453 H 0.55218 0.81185 0.06408 0.0
H3454 H 0.49689 0.80722 0.03621 0.0
H3455 H 0.48509 0.7792 0.07313 0.0
H3456 H 0.54066 0.7836 0.10102 0.0
H3457 H 0.53429 0.80936 0.21401 0.0
H3458 H 0.54592 0.81085 0.16971 0.0
H3459 H 0.65282 0.79302 0.17657 0.0
H3460 H 0.64211 0.79171 0.22081 0.0
H3461 H 0.54928 0.79793 0.13363 0.0
H3462 H 0.72356 0.80091 0.13699 0.0
H3463 H 0.77591 0.80755 0.16449 0.0
H3464 H 0.69108 0.828 0.19539 0.0
H3465 H 0.63841 0.82159 0.16785 0.0
C3466 C 0.63243 0.79432 0.02642 0.0
C3467 C 0.64927 0.80258 0.01452 0.0
C3468 C 0.62477 0.79455 0.05164 0.0
C3469 C 0.6325 0.80317 0.06531 0.0
C3470 C 0.65002 0.81138 0.05349 0.0
C3471 C 0.65865 0.81105 0.02833 0.0
C3472 C 0.62257 0.80358 0.09194 0.0
C3473 C 0.65225 0.8067 0.10854 0.0
C3474 C 0.58453 0.80066 0.10109 0.0
C3475 C 0.55078 0.79803 0.08453 0.0
C3476 C 0.53793 0.80468 0.06617 0.0
C3477 C 0.50653 0.8021 0.05038 0.0
C3478 C 0.48754 0.79292 0.05287 0.0
C3479 C 0.49984 0.7863 0.07121 0.0
C3480 C 0.53125 0.78884 0.08704 0.0
C3481 C 0.56026 0.80575 0.20609 0.0
C3482 C 0.58736 0.80045 0.22099 0.0
C3483 C 0.56681 0.80659 0.18076 0.0
C3484 C 0.60055 0.80217 0.1699 0.0
C3485 C 0.62703 0.79667 0.18463 0.0
C3486 C 0.62068 0.79587 0.20993 0.0
C3487 C 0.60814 0.80326 0.14316 0.0
C3488 C 0.57805 0.8004 0.12659 0.0
C3489 C 0.64531 0.80674 0.13399 0.0
C3490 C 0.67695 0.81069 0.1505 0.0
C3491 C 0.71612 0.80685 0.14958 0.0
C3492 C 0.74585 0.81057 0.16519 0.0
C3493 C 0.73679 0.81817 0.18173 0.0
C3494 C 0.69802 0.82209 0.18264 0.0
C3495 C 0.66821 0.8184 0.16706 0.0
H3496 H 0.75984 0.82104 0.19381 0.0
H3497 H 0.46325 0.79093 0.04061 0.0
H3498 H 0.52522 0.41747 0.02957 0.0
H3499 H 0.53806 0.41751 0.07404 0.0
H3500 H 0.65907 0.42748 0.06092 0.0
H3501 H 0.64625 0.42771 0.01657 0.0
H3502 H 0.64903 0.41028 0.09403 0.0
H3503 H 0.60244 0.44368 0.07992 0.0
H3504 H 0.55534 0.45658 0.06572 0.0
H3505 H 0.46404 0.44491 0.11337 0.0
H3506 H 0.51043 0.43184 0.12759 0.0
H3507 H 0.71443 0.42297 0.21333 0.0
H3508 H 0.69834 0.42252 0.16953 0.0
H3509 H 0.57203 0.42156 0.18693 0.0
H3510 H 0.588 0.42251 0.23079 0.0
H3511 H 0.58236 0.4337 0.15122 0.0
H3512 H 0.62763 0.40056 0.16648 0.0
H3513 H 0.67372 0.38755 0.18128 0.0
H3514 H 0.76487 0.39793 0.13169 0.0
H3515 H 0.71949 0.41109 0.11681 0.0
C3516 C 0.55456 0.41966 0.03618 0.0
C3517 C 0.58476 0.42258 0.01964 0.0
C3518 C 0.56176 0.41971 0.06153 0.0
C3519 C 0.59946 0.4225 0.07061 0.0
C3520 C 0.6298 0.4253 0.05416 0.0
C3521 C 0.62238 0.42545 0.02889 0.0
C3522 C 0.60755 0.42242 0.09732 0.0
C3523 C 0.6348 0.41544 0.10659 0.0
C3524 C 0.588 0.42899 0.11358 0.0
C3525 C 0.5598 0.43671 0.10464 0.0
C3526 C 0.57218 0.44379 0.08716 0.0
C3527 C 0.54568 0.45116 0.0792 0.0
C3528 C 0.50679 0.45159 0.08871 0.0
C3529 C 0.49422 0.44459 0.10608 0.0
C3530 C 0.5206 0.4372 0.1141 0.0
C3531 C 0.68324 0.4226 0.20782 0.0
C3532 C 0.65247 0.42273 0.22547 0.0
C3533 C 0.67406 0.42229 0.18276 0.0
C3534 C 0.63395 0.42182 0.17487 0.0
C3535 C 0.60319 0.42191 0.19253 0.0
C3536 C 0.61234 0.42242 0.21759 0.0
C3537 C 0.62409 0.42153 0.14821 0.0
C3538 C 0.59645 0.42845 0.13884 0.0
C3539 C 0.64296 0.41481 0.13187 0.0
C3540 C 0.67025 0.40686 0.14068 0.0
C3541 C 0.65759 0.40011 0.15884 0.0
C3542 C 0.68358 0.3927 0.16723 0.0
C3543 C 0.72223 0.39193 0.15748 0.0
C3544 C 0.73493 0.39854 0.13925 0.0
C3545 C 0.70907 0.40597 0.13081 0.0
H3546 H 0.74231 0.38619 0.164 0.0
H3547 H 0.48638 0.45733 0.0826 0.0
H3548 H 0.34448 0.17644 0.7658 0.0
H3549 H 0.32734 0.17678 0.80936 0.0
H3550 H 0.45163 0.17213 0.82829 0.0
H3551 H 0.46908 0.17162 0.78453 0.0
H3552 H 0.40499 0.16112 0.85656 0.0
H3553 H 0.40947 0.19507 0.83375 0.0
H3554 H 0.39519 0.21024 0.80987 0.0
H3555 H 0.26981 0.20747 0.82653 0.0
H3556 H 0.28325 0.19222 0.8503 0.0
H3557 H 0.38334 0.17701 0.9812 0.0
H3558 H 0.40235 0.17636 0.93781 0.0
H3559 H 0.27768 0.17465 0.91715 0.0
H3560 H 0.25822 0.17518 0.96068 0.0
H3561 H 0.32647 0.18922 0.89049 0.0
H3562 H 0.32709 0.15455 0.91423 0.0
H3563 H 0.34721 0.14046 0.94047 0.0
H3564 H 0.47109 0.14603 0.9238 0.0
H3565 H 0.45172 0.16025 0.89772 0.0
C3566 C 0.36824 0.17544 0.77917 0.0
C3567 C 0.40822 0.17404 0.77166 0.0
C3568 C 0.35839 0.17571 0.8041 0.0
C3569 C 0.38831 0.17468 0.82208 0.0
C3570 C 0.4281 0.173 0.8147 0.0
C3571 C 0.43801 0.17269 0.78969 0.0
C3572 C 0.37776 0.17527 0.84854 0.0
C3573 C 0.38828 0.16733 0.86401 0.0
C3574 C 0.35572 0.18334 0.85826 0.0
C3575 C 0.34733 0.19242 0.84359 0.0
C3576 C 0.37879 0.19763 0.83212 0.0
C3577 C 0.37087 0.20626 0.81866 0.0
C3578 C 0.33161 0.20979 0.81662 0.0
C3579 C 0.3002 0.20471 0.82809 0.0
C3580 C 0.30796 0.19608 0.84158 0.0
C3581 C 0.3599 0.17648 0.96746 0.0
C3582 C 0.31924 0.17612 0.97436 0.0
C3583 C 0.37086 0.17609 0.9427 0.0
C3584 C 0.3414 0.17543 0.92439 0.0
C3585 C 0.30078 0.17516 0.93111 0.0
C3586 C 0.28977 0.17541 0.95594 0.0
C3587 C 0.35319 0.17503 0.8982 0.0
C3588 C 0.34306 0.18302 0.88288 0.0
C3589 C 0.37636 0.16713 0.88875 0.0
C3590 C 0.38797 0.15852 0.90421 0.0
C3591 C 0.35864 0.15282 0.91631 0.0
C3592 C 0.3699 0.1448 0.93113 0.0
C3593 C 0.41041 0.14237 0.93385 0.0
C3594 C 0.43973 0.14793 0.9217 0.0
C3595 C 0.42862 0.15596 0.90688 0.0
H3596 H 0.41907 0.13616 0.94533 0.0
H3597 H 0.32555 0.21647 0.80618 0.0
H3598 H 0.48351 0.55046 0.95514 0.0
H3599 H 0.46645 0.55115 0.9114 0.0
H3600 H 0.34168 0.55529 0.92999 0.0
H3601 H 0.35834 0.55422 0.97362 0.0
H3602 H 0.34617 0.54261 0.89512 0.0
H3603 H 0.40241 0.57463 0.90794 0.0
H3604 H 0.45238 0.58695 0.92139 0.0
H3605 H 0.53876 0.57474 0.87128 0.0
H3606 H 0.48946 0.56224 0.85775 0.0
H3607 H 0.29001 0.55635 0.7722 0.0
H3608 H 0.30377 0.55757 0.81643 0.0
H3609 H 0.42467 0.54732 0.80422 0.0
H3610 H 0.41128 0.54603 0.76019 0.0
H3611 H 0.41896 0.56403 0.83572 0.0
H3612 H 0.35897 0.53136 0.82514 0.0
H3613 H 0.30504 0.52018 0.81116 0.0
H3614 H 0.22062 0.53536 0.85735 0.0
H3615 H 0.27397 0.54669 0.87145 0.0
C3616 C 0.45251 0.55159 0.94988 0.0
C3617 C 0.4223 0.55231 0.96781 0.0
C3618 C 0.44278 0.55202 0.92488 0.0
C3619 C 0.40281 0.55341 0.91736 0.0
C3620 C 0.3727 0.5542 0.93529 0.0
C3621 C 0.38231 0.55362 0.96025 0.0
C3622 C 0.39214 0.55374 0.89084 0.0
C3623 C 0.36173 0.54741 0.88225 0.0
C3624 C 0.41255 0.55995 0.87391 0.0
C3625 C 0.44234 0.56744 0.882 0.0
C3626 C 0.43216 0.57452 0.89992 0.0
C3627 C 0.46035 0.58154 0.90754 0.0
C3628 C 0.49875 0.58161 0.89724 0.0
C3629 C 0.50901 0.57467 0.87926 0.0
C3630 C 0.48095 0.56762 0.87159 0.0
C3631 C 0.31954 0.55439 0.77893 0.0
C3632 C 0.34948 0.55105 0.7627 0.0
C3633 C 0.32731 0.55507 0.80417 0.0
C3634 C 0.36518 0.55249 0.81351 0.0
C3635 C 0.39528 0.54935 0.79732 0.0
C3636 C 0.38746 0.54857 0.77218 0.0
C3637 C 0.37345 0.55286 0.84022 0.0
C3638 C 0.40337 0.55929 0.84876 0.0
C3639 C 0.35212 0.5469 0.85717 0.0
C3640 C 0.32034 0.53994 0.84914 0.0
C3641 C 0.32886 0.53235 0.83221 0.0
C3642 C 0.29842 0.52597 0.82429 0.0
C3643 C 0.25941 0.5271 0.83327 0.0
C3644 C 0.25083 0.53452 0.85037 0.0
C3645 C 0.28116 0.54091 0.85836 0.0
H3646 H 0.23581 0.52223 0.82695 0.0
H3647 H 0.52053 0.58706 0.90315 0.0
loop_
_geom_bond_atom_site_label_1
_geom_bond_atom_site_label_2
_geom_bond_distance
_geom_bond_site_symmetry_2
_ccdc_geom_bond_type
C0 O1 1.306 . S
C0 O3 1.160 . S
O1 C0 1.306 . S
O1 Cd2 2.228 . S
Cd2 O1 2.228 . S
Cd2 O6 2.273 . S
Cd2 O10 2.277 . S
O3 C0 1.160 . S
O3 Cd4 2.203 . S
Cd4 O3 2.203 . S
Cd4 O6 2.411 . S
Cd4 O7 2.333 . S
Cd4 O8 2.352 . S
Cd4 O12 2.277 . S
Cd4 O13 2.356 . S
C5 O10 1.209 . S
C5 O12 1.226 . S
O6 Cd2 2.273 . S
O6 Cd4 2.411 . S
O6 C9 1.320 . S
O7 Cd4 2.333 . S
O7 C9 1.214 . S
O8 Cd4 2.352 . S
O8 C11 1.258 . S
C9 O6 1.320 . S
C9 O7 1.214 . S
O10 Cd2 2.277 . S
O10 C5 1.209 . S
C11 O8 1.258 . S
C11 O13 1.282 . S
O12 Cd4 2.277 . S
O12 C5 1.226 . S
O13 Cd4 2.356 . S
O13 C11 1.282 . S
C14 O15 1.306 . S
C14 O17 1.160 . S
O15 C14 1.306 . S
O15 Cd16 2.228 . S
Cd16 O15 2.228 . S
Cd16 O20 2.273 . S
Cd16 O24 2.277 . S
O17 C14 1.160 . S
O17 Cd18 2.203 . S
Cd18 O17 2.203 . S
Cd18 O20 2.411 . S
Cd18 O21 2.333 . S
Cd18 O22 2.352 . S
Cd18 O26 2.277 . S
Cd18 O27 2.356 . S
C19 O24 1.209 . S
C19 O26 1.226 . S
O20 Cd16 2.273 . S
O20 Cd18 2.411 . S
O20 C23 1.320 . S
O21 Cd18 2.333 . S
O21 C23 1.214 . S
O22 Cd18 2.352 . S
O22 C25 1.258 . S
C23 O20 1.320 . S
C23 O21 1.214 . S
O24 Cd16 2.277 . S
O24 C19 1.209 . S
C25 O22 1.258 . S
C25 O27 1.282 . S
O26 Cd18 2.277 . S
O26 C19 1.226 . S
O27 Cd18 2.356 . S
O27 C25 1.282 . S
C28 O29 1.306 . S
C28 O31 1.160 . S
O29 C28 1.306 . S
O29 Cd30 2.228 . S
Cd30 O29 2.228 . S
Cd30 O34 2.273 . S
Cd30 O38 2.277 . S
O31 C28 1.160 . S
O31 Cd32 2.203 . S
Cd32 O31 2.203 . S
Cd32 O34 2.411 . S
Cd32 O35 2.333 . S
Cd32 O36 2.352 . S
Cd32 O40 2.277 . S
Cd32 O41 2.356 . S
C33 O38 1.209 1_554 S
C33 O40 1.226 1_554 S
O34 Cd30 2.273 . S
O34 Cd32 2.411 . S
O34 C37 1.320 . S
O35 Cd32 2.333 . S
O35 C37 1.214 . S
O36 Cd32 2.352 . S
O36 C39 1.258 . S
C37 O34 1.320 . S
C37 O35 1.214 . S
O38 Cd30 2.277 . S
O38 C33 1.209 1_556 S
C39 O36 1.258 . S
C39 O41 1.282 . S
O40 Cd32 2.277 . S
O40 C33 1.226 1_556 S
O41 Cd32 2.356 . S
O41 C39 1.282 . S
C42 O43 1.306 . S
C42 O45 1.160 . S
O43 C42 1.306 . S
O43 Cd44 2.228 . S
Cd44 O43 2.228 . S
Cd44 O48 2.273 . S
Cd44 O52 2.277 . S
O45 C42 1.160 . S
O45 Cd46 2.203 . S
Cd46 O45 2.203 . S
Cd46 O48 2.411 . S
Cd46 O49 2.333 . S
Cd46 O50 2.352 . S
Cd46 O54 2.277 . S
Cd46 O55 2.356 . S
C47 O52 1.209 1_554 S
C47 O54 1.226 1_554 S
O48 Cd44 2.273 . S
O48 Cd46 2.411 . S
O48 C51 1.320 . S
O49 Cd46 2.333 . S
O49 C51 1.214 . S
O50 Cd46 2.352 . S
O50 C53 1.258 . S
C51 O48 1.320 . S
C51 O49 1.214 . S
O52 Cd44 2.277 . S
O52 C47 1.209 1_556 S
C53 O50 1.258 . S
C53 O55 1.282 . S
O54 Cd46 2.277 . S
O54 C47 1.226 1_556 S
O55 Cd46 2.356 . S
O55 C53 1.282 . S
C56 O57 1.306 . S
C56 O59 1.160 . S
O57 C56 1.306 . S
O57 Cd58 2.228 . S
Cd58 O57 2.228 . S
Cd58 O62 2.273 . S
Cd58 O66 2.277 . S
O59 C56 1.160 . S
O59 Cd60 2.203 . S
Cd60 O59 2.203 . S
Cd60 O62 2.411 . S
Cd60 O63 2.333 . S
Cd60 O64 2.352 . S
Cd60 O68 2.277 . S
Cd60 O69 2.356 . S
C61 O66 1.209 . S
C61 O68 1.226 . S
O62 Cd58 2.273 . S
O62 Cd60 2.411 . S
O62 C65 1.320 . S
O63 Cd60 2.333 . S
O63 C65 1.214 . S
O64 Cd60 2.352 . S
O64 C67 1.258 . S
C65 O62 1.320 . S
C65 O63 1.214 . S
O66 Cd58 2.277 . S
O66 C61 1.209 . S
C67 O64 1.258 . S
C67 O69 1.282 . S
O68 Cd60 2.277 . S
O68 C61 1.226 . S
O69 Cd60 2.356 . S
O69 C67 1.282 . S
C70 O71 1.306 . S
C70 O73 1.160 . S
O71 C70 1.306 . S
O71 Cd72 2.228 . S
Cd72 O71 2.228 . S
Cd72 O76 2.273 . S
Cd72 O80 2.277 . S
O73 C70 1.160 . S
O73 Cd74 2.203 . S
Cd74 O73 2.203 . S
Cd74 O76 2.411 . S
Cd74 O77 2.333 . S
Cd74 O78 2.352 . S
Cd74 O82 2.277 . S
Cd74 O83 2.356 . S
C75 O80 1.209 . S
C75 O82 1.226 . S
O76 Cd72 2.273 . S
O76 Cd74 2.411 . S
O76 C79 1.320 . S
O77 Cd74 2.333 . S
O77 C79 1.214 . S
O78 Cd74 2.352 . S
O78 C81 1.258 . S
C79 O76 1.320 . S
C79 O77 1.214 . S
O80 Cd72 2.277 . S
O80 C75 1.209 . S
C81 O78 1.258 . S
C81 O83 1.282 . S
O82 Cd74 2.277 . S
O82 C75 1.226 . S
O83 Cd74 2.356 . S
O83 C81 1.282 . S
C84 O85 1.306 . S
C84 O87 1.160 . S
O85 C84 1.306 . S
O85 Cd86 2.228 . S
Cd86 O85 2.228 . S
Cd86 O90 2.273 . S
Cd86 O94 2.277 . S
O87 C84 1.160 . S
O87 Cd88 2.203 . S
Cd88 O87 2.203 . S
Cd88 O90 2.411 . S
Cd88 O91 2.333 . S
Cd88 O92 2.352 . S
Cd88 O96 2.277 . S
Cd88 O97 2.356 . S
C89 O94 1.209 1_556 S
C89 O96 1.226 1_556 S
O90 Cd86 2.273 . S
O90 Cd88 2.411 . S
O90 C93 1.320 . S
O91 Cd88 2.333 . S
O91 C93 1.214 . S
O92 Cd88 2.352 . S
O92 C95 1.258 . S
C93 O90 1.320 . S
C93 O91 1.214 . S
O94 Cd86 2.277 . S
O94 C89 1.209 1_554 S
C95 O92 1.258 . S
C95 O97 1.282 . S
O96 Cd88 2.277 . S
O96 C89 1.226 1_554 S
O97 Cd88 2.356 . S
O97 C95 1.282 . S
C98 O99 1.306 . S
C98 O101 1.160 . S
O99 C98 1.306 . S
O99 Cd100 2.228 . S
Cd100 O99 2.228 . S
Cd100 O104 2.273 . S
Cd100 O108 2.277 . S
O101 C98 1.160 . S
O101 Cd102 2.203 . S
Cd102 O101 2.203 . S
Cd102 O104 2.411 . S
Cd102 O105 2.333 . S
Cd102 O106 2.352 . S
Cd102 O110 2.277 . S
Cd102 O111 2.356 . S
C103 O108 1.209 1_556 S
C103 O110 1.226 1_556 S
O104 Cd100 2.273 . S
O104 Cd102 2.411 . S
O104 C107 1.320 . S
O105 Cd102 2.333 . S
O105 C107 1.214 . S
O106 Cd102 2.352 . S
O106 C109 1.258 . S
C107 O104 1.320 . S
C107 O105 1.214 . S
O108 Cd100 2.277 . S
O108 C103 1.209 1_554 S
C109 O106 1.258 . S
C109 O111 1.282 . S
O110 Cd102 2.277 . S
O110 C103 1.226 1_554 S
O111 Cd102 2.356 . S
O111 C109 1.282 . S
C112 O113 1.306 . S
C112 O115 1.160 . S
O113 C112 1.306 . S
O113 Cd114 2.228 . S
Cd114 O113 2.228 . S
Cd114 O118 2.273 . S
Cd114 O122 2.277 . S
O115 C112 1.160 . S
O115 Cd116 2.203 . S
Cd116 O115 2.203 . S
Cd116 O118 2.411 . S
Cd116 O119 2.333 . S
Cd116 O120 2.352 . S
Cd116 O124 2.277 . S
Cd116 O125 2.356 . S
C117 O122 1.209 . S
C117 O124 1.226 . S
O118 Cd114 2.273 . S
O118 Cd116 2.411 . S
O118 C121 1.320 . S
O119 Cd116 2.333 . S
O119 C121 1.214 . S
O120 Cd116 2.352 . S
O120 C123 1.258 . S
C121 O118 1.320 . S
C121 O119 1.214 . S
O122 Cd114 2.277 . S
O122 C117 1.209 . S
C123 O120 1.258 . S
C123 O125 1.282 . S
O124 Cd116 2.277 . S
O124 C117 1.226 . S
O125 Cd116 2.356 . S
O125 C123 1.282 . S
C126 O127 1.306 . S
C126 O129 1.160 . S
O127 C126 1.306 . S
O127 Cd128 2.228 . S
Cd128 O127 2.228 . S
Cd128 O132 2.273 . S
Cd128 O136 2.277 . S
O129 C126 1.160 . S
O129 Cd130 2.203 . S
Cd130 O129 2.203 . S
Cd130 O132 2.411 . S
Cd130 O133 2.333 . S
Cd130 O134 2.352 . S
Cd130 O138 2.277 . S
Cd130 O139 2.356 . S
C131 O136 1.209 . S
C131 O138 1.226 . S
O132 Cd128 2.273 . S
O132 Cd130 2.411 . S
O132 C135 1.320 . S
O133 Cd130 2.333 . S
O133 C135 1.214 . S
O134 Cd130 2.352 . S
O134 C137 1.258 . S
C135 O132 1.320 . S
C135 O133 1.214 . S
O136 Cd128 2.277 . S
O136 C131 1.209 . S
C137 O134 1.258 . S
C137 O139 1.282 . S
O138 Cd130 2.277 . S
O138 C131 1.226 . S
O139 Cd130 2.356 . S
O139 C137 1.282 . S
C140 O141 1.306 . S
C140 O143 1.160 . S
O141 C140 1.306 . S
O141 Cd142 2.228 . S
Cd142 O141 2.228 . S
Cd142 O146 2.273 . S
Cd142 O150 2.277 . S
O143 C140 1.160 . S
O143 Cd144 2.203 . S
Cd144 O143 2.203 . S
Cd144 O146 2.411 . S
Cd144 O147 2.333 . S
Cd144 O148 2.352 . S
Cd144 O152 2.277 . S
Cd144 O153 2.356 . S
C145 O150 1.209 . S
C145 O152 1.226 . S
O146 Cd142 2.273 . S
O146 Cd144 2.411 . S
O146 C149 1.320 . S
O147 Cd144 2.333 . S
O147 C149 1.214 . S
O148 Cd144 2.352 . S
O148 C151 1.258 . S
C149 O146 1.320 . S
C149 O147 1.214 . S
O150 Cd142 2.277 . S
O150 C145 1.209 . S
C151 O148 1.258 . S
C151 O153 1.282 . S
O152 Cd144 2.277 . S
O152 C145 1.226 . S
O153 Cd144 2.356 . S
O153 C151 1.282 . S
C154 O155 1.306 . S
C154 O157 1.160 . S
O155 C154 1.306 . S
O155 Cd156 2.228 . S
Cd156 O155 2.228 . S
Cd156 O160 2.273 . S
Cd156 O164 2.277 . S
O157 C154 1.160 . S
O157 Cd158 2.203 . S
Cd158 O157 2.203 . S
Cd158 O160 2.411 . S
Cd158 O161 2.333 . S
Cd158 O162 2.352 . S
Cd158 O166 2.277 . S
Cd158 O167 2.356 . S
C159 O164 1.209 . S
C159 O166 1.226 . S
O160 Cd156 2.273 . S
O160 Cd158 2.411 . S
O160 C163 1.320 . S
O161 Cd158 2.333 . S
O161 C163 1.214 . S
O162 Cd158 2.352 . S
O162 C165 1.258 . S
C163 O160 1.320 . S
C163 O161 1.214 . S
O164 Cd156 2.277 . S
O164 C159 1.209 . S
C165 O162 1.258 . S
C165 O167 1.282 . S
O166 Cd158 2.277 . S
O166 C159 1.226 . S
O167 Cd158 2.356 . S
O167 C165 1.282 . S
C168 O169 1.306 . S
C168 O171 1.160 . S
O169 C168 1.306 . S
O169 Cd170 2.228 . S
Cd170 O169 2.228 . S
Cd170 O174 2.273 . S
Cd170 O178 2.277 . S
O171 C168 1.160 . S
O171 Cd172 2.203 . S
Cd172 O171 2.203 . S
Cd172 O174 2.411 . S
Cd172 O175 2.333 . S
Cd172 O176 2.352 . S
Cd172 O180 2.277 . S
Cd172 O181 2.356 . S
C173 O178 1.209 . S
C173 O180 1.226 . S
O174 Cd170 2.273 . S
O174 Cd172 2.411 . S
O174 C177 1.320 . S
O175 Cd172 2.333 . S
O175 C177 1.214 . S
O176 Cd172 2.352 . S
O176 C179 1.258 . S
C177 O174 1.320 . S
C177 O175 1.214 . S
O178 Cd170 2.277 . S
O178 C173 1.209 . S
C179 O176 1.258 . S
C179 O181 1.282 . S
O180 Cd172 2.277 . S
O180 C173 1.226 . S
O181 Cd172 2.356 . S
O181 C179 1.282 . S
C182 O183 1.306 . S
C182 O185 1.160 . S
O183 C182 1.306 . S
O183 Cd184 2.228 . S
Cd184 O183 2.228 . S
Cd184 O188 2.273 . S
Cd184 O192 2.277 . S
O185 C182 1.160 . S
O185 Cd186 2.203 . S
Cd186 O185 2.203 . S
Cd186 O188 2.411 . S
Cd186 O189 2.333 . S
Cd186 O190 2.352 . S
Cd186 O194 2.277 . S
Cd186 O195 2.356 . S
C187 O192 1.209 . S
C187 O194 1.226 . S
O188 Cd184 2.273 . S
O188 Cd186 2.411 . S
O188 C191 1.320 . S
O189 Cd186 2.333 . S
O189 C191 1.214 . S
O190 Cd186 2.352 . S
O190 C193 1.258 . S
C191 O188 1.320 . S
C191 O189 1.214 . S
O192 Cd184 2.277 . S
O192 C187 1.209 . S
C193 O190 1.258 . S
C193 O195 1.282 . S
O194 Cd186 2.277 . S
O194 C187 1.226 . S
O195 Cd186 2.356 . S
O195 C193 1.282 . S
C196 O197 1.306 . S
C196 O199 1.160 . S
O197 C196 1.306 . S
O197 Cd198 2.228 . S
Cd198 O197 2.228 . S
Cd198 O202 2.273 . S
Cd198 O206 2.277 . S
O199 C196 1.160 . S
O199 Cd200 2.203 . S
Cd200 O199 2.203 . S
Cd200 O202 2.411 . S
Cd200 O203 2.333 . S
Cd200 O204 2.352 . S
Cd200 O208 2.277 . S
Cd200 O209 2.356 . S
C201 O206 1.209 . S
C201 O208 1.226 . S
O202 Cd198 2.273 . S
O202 Cd200 2.411 . S
O202 C205 1.320 . S
O203 Cd200 2.333 . S
O203 C205 1.214 . S
O204 Cd200 2.352 . S
O204 C207 1.258 . S
C205 O202 1.320 . S
C205 O203 1.214 . S
O206 Cd198 2.277 . S
O206 C201 1.209 . S
C207 O204 1.258 . S
C207 O209 1.282 . S
O208 Cd200 2.277 . S
O208 C201 1.226 . S
O209 Cd200 2.356 . S
O209 C207 1.282 . S
C210 O211 1.306 . S
C210 O213 1.160 . S
O211 C210 1.306 . S
O211 Cd212 2.228 . S
Cd212 O211 2.228 . S
Cd212 O216 2.273 . S
Cd212 O220 2.277 . S
O213 C210 1.160 . S
O213 Cd214 2.203 . S
Cd214 O213 2.203 . S
Cd214 O216 2.411 . S
Cd214 O217 2.333 . S
Cd214 O218 2.352 . S
Cd214 O222 2.277 . S
Cd214 O223 2.356 . S
C215 O220 1.209 . S
C215 O222 1.226 . S
O216 Cd212 2.273 . S
O216 Cd214 2.411 . S
O216 C219 1.320 . S
O217 Cd214 2.333 . S
O217 C219 1.214 . S
O218 Cd214 2.352 . S
O218 C221 1.258 . S
C219 O216 1.320 . S
C219 O217 1.214 . S
O220 Cd212 2.277 . S
O220 C215 1.209 . S
C221 O218 1.258 . S
C221 O223 1.282 . S
O222 Cd214 2.277 . S
O222 C215 1.226 . S
O223 Cd214 2.356 . S
O223 C221 1.282 . S
C224 O225 1.306 . S
C224 O227 1.160 . S
O225 C224 1.306 . S
O225 Cd226 2.228 . S
Cd226 O225 2.228 . S
Cd226 O230 2.273 . S
Cd226 O234 2.277 . S
O227 C224 1.160 . S
O227 Cd228 2.203 . S
Cd228 O227 2.203 . S
Cd228 O230 2.411 . S
Cd228 O231 2.333 . S
Cd228 O232 2.352 . S
Cd228 O236 2.277 . S
Cd228 O237 2.356 . S
C229 O234 1.209 . S
C229 O236 1.226 . S
O230 Cd226 2.273 . S
O230 Cd228 2.411 . S
O230 C233 1.320 . S
O231 Cd228 2.333 . S
O231 C233 1.214 . S
O232 Cd228 2.352 . S
O232 C235 1.258 . S
C233 O230 1.320 . S
C233 O231 1.214 . S
O234 Cd226 2.277 . S
O234 C229 1.209 . S
C235 O232 1.258 . S
C235 O237 1.282 . S
O236 Cd228 2.277 . S
O236 C229 1.226 . S
O237 Cd228 2.356 . S
O237 C235 1.282 . S
C238 O239 1.306 . S
C238 O241 1.160 . S
O239 C238 1.306 . S
O239 Cd240 2.228 . S
Cd240 O239 2.228 . S
Cd240 O244 2.273 . S
Cd240 O248 2.277 . S
O241 C238 1.160 . S
O241 Cd242 2.203 . S
Cd242 O241 2.203 . S
Cd242 O244 2.411 . S
Cd242 O245 2.333 . S
Cd242 O246 2.352 . S
Cd242 O250 2.277 . S
Cd242 O251 2.356 . S
C243 O248 1.209 . S
C243 O250 1.226 . S
O244 Cd240 2.273 . S
O244 Cd242 2.411 . S
O244 C247 1.320 . S
O245 Cd242 2.333 . S
O245 C247 1.214 . S
O246 Cd242 2.352 . S
O246 C249 1.258 . S
C247 O244 1.320 . S
C247 O245 1.214 . S
O248 Cd240 2.277 . S
O248 C243 1.209 . S
C249 O246 1.258 . S
C249 O251 1.282 . S
O250 Cd242 2.277 . S
O250 C243 1.226 . S
O251 Cd242 2.356 . S
O251 C249 1.282 . S
C252 O253 1.306 . S
C252 O255 1.160 . S
O253 C252 1.306 . S
O253 Cd254 2.228 . S
Cd254 O253 2.228 . S
Cd254 O258 2.273 . S
Cd254 O262 2.277 . S
O255 C252 1.160 . S
O255 Cd256 2.203 . S
Cd256 O255 2.203 . S
Cd256 O258 2.411 . S
Cd256 O259 2.333 . S
Cd256 O260 2.352 . S
Cd256 O264 2.277 . S
Cd256 O265 2.356 . S
C257 O262 1.209 . S
C257 O264 1.226 . S
O258 Cd254 2.273 . S
O258 Cd256 2.411 . S
O258 C261 1.320 . S
O259 Cd256 2.333 . S
O259 C261 1.214 . S
O260 Cd256 2.352 . S
O260 C263 1.258 . S
C261 O258 1.320 . S
C261 O259 1.214 . S
O262 Cd254 2.277 . S
O262 C257 1.209 . S
C263 O260 1.258 . S
C263 O265 1.282 . S
O264 Cd256 2.277 . S
O264 C257 1.226 . S
O265 Cd256 2.356 . S
O265 C263 1.282 . S
C266 O267 1.306 . S
C266 O269 1.160 . S
O267 C266 1.306 . S
O267 Cd268 2.228 . S
Cd268 O267 2.228 . S
Cd268 O272 2.273 . S
Cd268 O276 2.277 . S
O269 C266 1.160 . S
O269 Cd270 2.203 . S
Cd270 O269 2.203 . S
Cd270 O272 2.411 . S
Cd270 O273 2.333 . S
Cd270 O274 2.352 . S
Cd270 O278 2.277 . S
Cd270 O279 2.356 . S
C271 O276 1.209 . S
C271 O278 1.226 . S
O272 Cd268 2.273 . S
O272 Cd270 2.411 . S
O272 C275 1.320 . S
O273 Cd270 2.333 . S
O273 C275 1.214 . S
O274 Cd270 2.352 . S
O274 C277 1.258 . S
C275 O272 1.320 . S
C275 O273 1.214 . S
O276 Cd268 2.277 . S
O276 C271 1.209 . S
C277 O274 1.258 . S
C277 O279 1.282 . S
O278 Cd270 2.277 . S
O278 C271 1.226 . S
O279 Cd270 2.356 . S
O279 C277 1.282 . S
C280 O281 1.306 . S
C280 O283 1.160 . S
O281 C280 1.306 . S
O281 Cd282 2.228 . S
Cd282 O281 2.228 . S
Cd282 O286 2.273 . S
Cd282 O290 2.277 . S
O283 C280 1.160 . S
O283 Cd284 2.203 . S
Cd284 O283 2.203 . S
Cd284 O286 2.411 . S
Cd284 O287 2.333 . S
Cd284 O288 2.352 . S
Cd284 O292 2.277 . S
Cd284 O293 2.356 . S
C285 O290 1.209 . S
C285 O292 1.226 . S
O286 Cd282 2.273 . S
O286 Cd284 2.411 . S
O286 C289 1.320 . S
O287 Cd284 2.333 . S
O287 C289 1.214 . S
O288 Cd284 2.352 . S
O288 C291 1.258 . S
C289 O286 1.320 . S
C289 O287 1.214 . S
O290 Cd282 2.277 . S
O290 C285 1.209 . S
C291 O288 1.258 . S
C291 O293 1.282 . S
O292 Cd284 2.277 . S
O292 C285 1.226 . S
O293 Cd284 2.356 . S
O293 C291 1.282 . S
C294 O295 1.306 . S
C294 O297 1.160 . S
O295 C294 1.306 . S
O295 Cd296 2.228 . S
Cd296 O295 2.228 . S
Cd296 O300 2.273 . S
Cd296 O304 2.277 . S
O297 C294 1.160 . S
O297 Cd298 2.203 . S
Cd298 O297 2.203 . S
Cd298 O300 2.411 . S
Cd298 O301 2.333 . S
Cd298 O302 2.352 . S
Cd298 O306 2.277 . S
Cd298 O307 2.356 . S
C299 O304 1.209 . S
C299 O306 1.226 . S
O300 Cd296 2.273 . S
O300 Cd298 2.411 . S
O300 C303 1.320 . S
O301 Cd298 2.333 . S
O301 C303 1.214 . S
O302 Cd298 2.352 . S
O302 C305 1.258 . S
C303 O300 1.320 . S
C303 O301 1.214 . S
O304 Cd296 2.277 . S
O304 C299 1.209 . S
C305 O302 1.258 . S
C305 O307 1.282 . S
O306 Cd298 2.277 . S
O306 C299 1.226 . S
O307 Cd298 2.356 . S
O307 C305 1.282 . S
C308 O309 1.306 . S
C308 O311 1.160 . S
O309 C308 1.306 . S
O309 Cd310 2.228 . S
Cd310 O309 2.228 . S
Cd310 O314 2.273 . S
Cd310 O318 2.277 . S
O311 C308 1.160 . S
O311 Cd312 2.203 . S
Cd312 O311 2.203 . S
Cd312 O314 2.411 . S
Cd312 O315 2.333 . S
Cd312 O316 2.352 . S
Cd312 O320 2.277 . S
Cd312 O321 2.356 . S
C313 O318 1.209 . S
C313 O320 1.226 . S
O314 Cd310 2.273 . S
O314 Cd312 2.411 . S
O314 C317 1.320 . S
O315 Cd312 2.333 . S
O315 C317 1.214 . S
O316 Cd312 2.352 . S
O316 C319 1.258 . S
C317 O314 1.320 . S
C317 O315 1.214 . S
O318 Cd310 2.277 . S
O318 C313 1.209 . S
C319 O316 1.258 . S
C319 O321 1.282 . S
O320 Cd312 2.277 . S
O320 C313 1.226 . S
O321 Cd312 2.356 . S
O321 C319 1.282 . S
C322 O323 1.306 . S
C322 O325 1.160 . S
O323 C322 1.306 . S
O323 Cd324 2.228 . S
Cd324 O323 2.228 . S
Cd324 O328 2.273 . S
Cd324 O332 2.277 . S
O325 C322 1.160 . S
O325 Cd326 2.203 . S
Cd326 O325 2.203 . S
Cd326 O328 2.411 . S
Cd326 O329 2.333 . S
Cd326 O330 2.352 . S
Cd326 O334 2.277 . S
Cd326 O335 2.356 . S
C327 O332 1.209 . S
C327 O334 1.226 . S
O328 Cd324 2.273 . S
O328 Cd326 2.411 . S
O328 C331 1.320 . S
O329 Cd326 2.333 . S
O329 C331 1.214 . S
O330 Cd326 2.352 . S
O330 C333 1.258 . S
C331 O328 1.320 . S
C331 O329 1.214 . S
O332 Cd324 2.277 . S
O332 C327 1.209 . S
C333 O330 1.258 . S
C333 O335 1.282 . S
O334 Cd326 2.277 . S
O334 C327 1.226 . S
O335 Cd326 2.356 . S
O335 C333 1.282 . S
C336 O337 1.306 . S
C336 O339 1.160 . S
O337 C336 1.306 . S
O337 Cd338 2.228 . S
Cd338 O337 2.228 . S
Cd338 O342 2.273 . S
Cd338 O346 2.277 . S
O339 C336 1.160 . S
O339 Cd340 2.203 . S
Cd340 O339 2.203 . S
Cd340 O342 2.411 . S
Cd340 O343 2.333 . S
Cd340 O344 2.352 . S
Cd340 O348 2.277 . S
Cd340 O349 2.356 . S
C341 O346 1.209 . S
C341 O348 1.226 . S
O342 Cd338 2.273 . S
O342 Cd340 2.411 . S
O342 C345 1.320 . S
O343 Cd340 2.333 . S
O343 C345 1.214 . S
O344 Cd340 2.352 . S
O344 C347 1.258 . S
C345 O342 1.320 . S
C345 O343 1.214 . S
O346 Cd338 2.277 . S
O346 C341 1.209 . S
C347 O344 1.258 . S
C347 O349 1.282 . S
O348 Cd340 2.277 . S
O348 C341 1.226 . S
O349 Cd340 2.356 . S
O349 C347 1.282 . S
C350 O351 1.306 . S
C350 O353 1.160 . S
O351 C350 1.306 . S
O351 Cd352 2.228 . S
Cd352 O351 2.228 . S
Cd352 O356 2.273 . S
Cd352 O360 2.277 . S
O353 C350 1.160 . S
O353 Cd354 2.203 . S
Cd354 O353 2.203 . S
Cd354 O356 2.411 . S
Cd354 O357 2.333 . S
Cd354 O358 2.352 . S
Cd354 O362 2.277 . S
Cd354 O363 2.356 . S
C355 O360 1.209 . S
C355 O362 1.226 . S
O356 Cd352 2.273 . S
O356 Cd354 2.411 . S
O356 C359 1.320 . S
O357 Cd354 2.333 . S
O357 C359 1.214 . S
O358 Cd354 2.352 . S
O358 C361 1.258 . S
C359 O356 1.320 . S
C359 O357 1.214 . S
O360 Cd352 2.277 . S
O360 C355 1.209 . S
C361 O358 1.258 . S
C361 O363 1.282 . S
O362 Cd354 2.277 . S
O362 C355 1.226 . S
O363 Cd354 2.356 . S
O363 C361 1.282 . S
C364 O365 1.306 . S
C364 O367 1.160 . S
O365 C364 1.306 . S
O365 Cd366 2.228 . S
Cd366 O365 2.228 . S
Cd366 O370 2.273 . S
Cd366 O374 2.277 . S
O367 C364 1.160 . S
O367 Cd368 2.203 . S
Cd368 O367 2.203 . S
Cd368 O370 2.411 . S
Cd368 O371 2.333 . S
Cd368 O372 2.352 . S
Cd368 O376 2.277 . S
Cd368 O377 2.356 . S
C369 O374 1.209 1_554 S
C369 O376 1.226 1_554 S
O370 Cd366 2.273 . S
O370 Cd368 2.411 . S
O370 C373 1.320 . S
O371 Cd368 2.333 . S
O371 C373 1.214 . S
O372 Cd368 2.352 . S
O372 C375 1.258 . S
C373 O370 1.320 . S
C373 O371 1.214 . S
O374 Cd366 2.277 . S
O374 C369 1.209 1_556 S
C375 O372 1.258 . S
C375 O377 1.282 . S
O376 Cd368 2.277 . S
O376 C369 1.226 1_556 S
O377 Cd368 2.356 . S
O377 C375 1.282 . S
C378 O379 1.306 . S
C378 O381 1.160 . S
O379 C378 1.306 . S
O379 Cd380 2.228 . S
Cd380 O379 2.228 . S
Cd380 O384 2.273 . S
Cd380 O388 2.277 . S
O381 C378 1.160 . S
O381 Cd382 2.203 . S
Cd382 O381 2.203 . S
Cd382 O384 2.411 . S
Cd382 O385 2.333 . S
Cd382 O386 2.352 . S
Cd382 O390 2.277 . S
Cd382 O391 2.356 . S
C383 O388 1.209 1_554 S
C383 O390 1.226 1_554 S
O384 Cd380 2.273 . S
O384 Cd382 2.411 . S
O384 C387 1.320 . S
O385 Cd382 2.333 . S
O385 C387 1.214 . S
O386 Cd382 2.352 . S
O386 C389 1.258 . S
C387 O384 1.320 . S
C387 O385 1.214 . S
O388 Cd380 2.277 . S
O388 C383 1.209 1_556 S
C389 O386 1.258 . S
C389 O391 1.282 . S
O390 Cd382 2.277 . S
O390 C383 1.226 1_556 S
O391 Cd382 2.356 . S
O391 C389 1.282 . S
C392 O393 1.306 . S
C392 O395 1.160 . S
O393 C392 1.306 . S
O393 Cd394 2.228 . S
Cd394 O393 2.228 . S
Cd394 O398 2.273 . S
Cd394 O402 2.277 . S
O395 C392 1.160 . S
O395 Cd396 2.203 . S
Cd396 O395 2.203 . S
Cd396 O398 2.411 . S
Cd396 O399 2.333 . S
Cd396 O400 2.352 . S
Cd396 O404 2.277 . S
Cd396 O405 2.356 . S
C397 O402 1.209 . S
C397 O404 1.226 . S
O398 Cd394 2.273 . S
O398 Cd396 2.411 . S
O398 C401 1.320 . S
O399 Cd396 2.333 . S
O399 C401 1.214 . S
O400 Cd396 2.352 . S
O400 C403 1.258 . S
C401 O398 1.320 . S
C401 O399 1.214 . S
O402 Cd394 2.277 . S
O402 C397 1.209 . S
C403 O400 1.258 . S
C403 O405 1.282 . S
O404 Cd396 2.277 . S
O404 C397 1.226 . S
O405 Cd396 2.356 . S
O405 C403 1.282 . S
C406 O407 1.306 . S
C406 O409 1.160 . S
O407 C406 1.306 . S
O407 Cd408 2.228 . S
Cd408 O407 2.228 . S
Cd408 O412 2.273 . S
Cd408 O416 2.277 . S
O409 C406 1.160 . S
O409 Cd410 2.203 . S
Cd410 O409 2.203 . S
Cd410 O412 2.411 . S
Cd410 O413 2.333 . S
Cd410 O414 2.352 . S
Cd410 O418 2.277 . S
Cd410 O419 2.356 . S
C411 O416 1.209 . S
C411 O418 1.226 . S
O412 Cd408 2.273 . S
O412 Cd410 2.411 . S
O412 C415 1.320 . S
O413 Cd410 2.333 . S
O413 C415 1.214 . S
O414 Cd410 2.352 . S
O414 C417 1.258 . S
C415 O412 1.320 . S
C415 O413 1.214 . S
O416 Cd408 2.277 . S
O416 C411 1.209 . S
C417 O414 1.258 . S
C417 O419 1.282 . S
O418 Cd410 2.277 . S
O418 C411 1.226 . S
O419 Cd410 2.356 . S
O419 C417 1.282 . S
C420 O421 1.306 . S
C420 O423 1.160 . S
O421 C420 1.306 . S
O421 Cd422 2.228 . S
Cd422 O421 2.228 . S
Cd422 O426 2.273 . S
Cd422 O430 2.277 . S
O423 C420 1.160 . S
O423 Cd424 2.203 . S
Cd424 O423 2.203 . S
Cd424 O426 2.411 . S
Cd424 O427 2.333 . S
Cd424 O428 2.352 . S
Cd424 O432 2.277 . S
Cd424 O433 2.356 . S
C425 O430 1.209 1_556 S
C425 O432 1.226 1_556 S
O426 Cd422 2.273 . S
O426 Cd424 2.411 . S
O426 C429 1.320 . S
O427 Cd424 2.333 . S
O427 C429 1.214 . S
O428 Cd424 2.352 . S
O428 C431 1.258 . S
C429 O426 1.320 . S
C429 O427 1.214 . S
O430 Cd422 2.277 . S
O430 C425 1.209 1_554 S
C431 O428 1.258 . S
C431 O433 1.282 . S
O432 Cd424 2.277 . S
O432 C425 1.226 1_554 S
O433 Cd424 2.356 . S
O433 C431 1.282 . S
C434 O435 1.306 . S
C434 O437 1.160 . S
O435 C434 1.306 . S
O435 Cd436 2.228 . S
Cd436 O435 2.228 . S
Cd436 O440 2.273 . S
Cd436 O444 2.277 . S
O437 C434 1.160 . S
O437 Cd438 2.203 . S
Cd438 O437 2.203 . S
Cd438 O440 2.411 . S
Cd438 O441 2.333 . S
Cd438 O442 2.352 . S
Cd438 O446 2.277 . S
Cd438 O447 2.356 . S
C439 O444 1.209 1_556 S
C439 O446 1.226 1_556 S
O440 Cd436 2.273 . S
O440 Cd438 2.411 . S
O440 C443 1.320 . S
O441 Cd438 2.333 . S
O441 C443 1.214 . S
O442 Cd438 2.352 . S
O442 C445 1.258 . S
C443 O440 1.320 . S
C443 O441 1.214 . S
O444 Cd436 2.277 . S
O444 C439 1.209 1_554 S
C445 O442 1.258 . S
C445 O447 1.282 . S
O446 Cd438 2.277 . S
O446 C439 1.226 1_554 S
O447 Cd438 2.356 . S
O447 C445 1.282 . S
H448 C466 0.951 . S
H449 C468 0.951 . S
H450 C470 0.950 . S
H451 C471 0.950 . S
H452 C473 0.950 . S
H453 C476 0.950 . S
H454 C477 0.950 . S
H455 C479 0.950 1_655 S
H456 C480 0.956 . S
H457 C481 0.951 . S
H458 C483 0.951 . S
H459 C485 0.950 . S
H460 C486 0.950 . S
H461 C488 0.950 . S
H462 C491 0.950 . S
H463 C492 0.950 . S
H464 C494 0.950 . S
H465 C495 0.950 . S
C466 H448 0.951 . S
C466 C467 1.366 . S
C466 C468 1.388 . S
C467 C466 1.366 . S
C467 C471 1.385 . S
C468 H449 0.951 . S
C468 C466 1.388 . S
C468 C469 1.366 . S
C469 C468 1.366 . S
C469 C470 1.414 . S
C469 C472 1.499 . S
C470 H450 0.950 . S
C470 C469 1.414 . S
C470 C471 1.374 . S
C471 H451 0.950 . S
C471 C467 1.385 . S
C471 C470 1.374 . S
C472 C469 1.499 . S
C472 C473 1.373 . S
C472 C474 1.389 . S
C473 H452 0.950 . S
C473 C472 1.373 . S
C473 C489 1.377 . S
C474 C472 1.389 . S
C474 C475 1.524 . S
C474 C488 1.377 . S
C475 C474 1.524 . S
C475 C476 1.397 . S
C475 C480 1.363 . S
C476 H453 0.950 . S
C476 C475 1.397 . S
C476 C477 1.334 . S
C477 H454 0.950 . S
C477 C476 1.334 . S
C477 C478 1.287 . S
C478 C477 1.287 . S
C478 C479 1.524 . S
C478 H497 0.913 . S
C479 H455 0.950 1_455 S
C479 C478 1.524 . S
C479 C480 1.415 . S
C480 H456 0.956 . S
C480 C475 1.363 . S
C480 C479 1.415 . S
C481 H457 0.951 . S
C481 C482 1.366 . S
C481 C483 1.388 . S
C482 C481 1.366 . S
C482 C486 1.385 . S
C483 H458 0.951 . S
C483 C481 1.388 . S
C483 C484 1.366 . S
C484 C483 1.366 . S
C484 C485 1.414 . S
C484 C487 1.499 . S
C485 H459 0.950 . S
C485 C484 1.414 . S
C485 C486 1.374 . S
C486 H460 0.950 . S
C486 C482 1.385 . S
C486 C485 1.374 . S
C487 C484 1.499 . S
C487 C488 1.373 . S
C487 C489 1.389 . S
C488 H461 0.950 . S
C488 C474 1.377 . S
C488 C487 1.373 . S
C489 C473 1.377 . S
C489 C487 1.389 . S
C489 C490 1.524 . S
C490 C489 1.524 . S
C490 C491 1.397 . S
C490 C495 1.363 . S
C491 H462 0.950 . S
C491 C490 1.397 . S
C491 C492 1.334 . S
C492 H463 0.950 . S
C492 C491 1.334 . S
C492 C493 1.287 . S
C493 C492 1.287 . S
C493 C494 1.524 . S
C493 H496 0.999 . S
C494 H464 0.950 . S
C494 C493 1.524 . S
C494 C495 1.415 . S
C495 H465 0.950 . S
C495 C490 1.363 . S
C495 C494 1.415 . S
H496 C493 0.999 . S
H497 C478 0.913 . S
H498 C516 0.951 . S
H499 C518 0.951 . S
H500 C520 0.950 . S
H501 C521 0.950 . S
H502 C523 0.950 . S
H503 C526 0.950 . S
H504 C527 0.950 . S
H505 C529 0.950 . S
H506 C530 0.950 . S
H507 C531 0.951 . S
H508 C533 0.951 . S
H509 C535 0.950 . S
H510 C536 0.950 . S
H511 C538 0.950 . S
H512 C541 0.950 . S
H513 C542 0.950 . S
H514 C544 0.950 . S
H515 C545 0.950 . S
C516 H498 0.951 . S
C516 C517 1.366 . S
C516 C518 1.388 . S
C517 C516 1.366 . S
C517 C521 1.385 . S
C518 H499 0.951 . S
C518 C516 1.388 . S
C518 C519 1.366 . S
C519 C518 1.366 . S
C519 C520 1.414 . S
C519 C522 1.499 . S
C520 H500 0.950 . S
C520 C519 1.414 . S
C520 C521 1.374 . S
C521 H501 0.950 . S
C521 C517 1.385 . S
C521 C520 1.374 . S
C522 C519 1.499 . S
C522 C523 1.373 . S
C522 C524 1.389 . S
C523 H502 0.950 . S
C523 C522 1.373 . S
C523 C539 1.377 . S
C524 C522 1.389 . S
C524 C525 1.524 . S
C524 C538 1.377 . S
C525 C524 1.524 . S
C525 C526 1.397 . S
C525 C530 1.363 . S
C526 H503 0.950 . S
C526 C525 1.397 . S
C526 C527 1.334 . S
C527 H504 0.950 . S
C527 C526 1.334 . S
C527 C528 1.287 . S
C528 C527 1.287 . S
C528 C529 1.524 . S
C528 H547 0.913 . S
C529 H505 0.950 . S
C529 C528 1.524 . S
C529 C530 1.415 . S
C530 H506 0.950 . S
C530 C525 1.363 . S
C530 C529 1.415 . S
C531 H507 0.951 . S
C531 C532 1.366 . S
C531 C533 1.388 . S
C532 C531 1.366 . S
C532 C536 1.385 . S
C533 H508 0.951 . S
C533 C531 1.388 . S
C533 C534 1.366 . S
C534 C533 1.366 . S
C534 C535 1.414 . S
C534 C537 1.499 . S
C535 H509 0.950 . S
C535 C534 1.414 . S
C535 C536 1.374 . S
C536 H510 0.950 . S
C536 C532 1.385 . S
C536 C535 1.374 . S
C537 C534 1.499 . S
C537 C538 1.373 . S
C537 C539 1.389 . S
C538 H511 0.950 . S
C538 C524 1.377 . S
C538 C537 1.373 . S
C539 C523 1.377 . S
C539 C537 1.389 . S
C539 C540 1.524 . S
C540 C539 1.524 . S
C540 C541 1.397 . S
C540 C545 1.363 . S
C541 H512 0.950 . S
C541 C540 1.397 . S
C541 C542 1.334 . S
C542 H513 0.950 . S
C542 C541 1.334 . S
C542 C543 1.287 . S
C543 C542 1.287 . S
C543 C544 1.524 . S
C543 H546 0.999 . S
C544 H514 0.950 . S
C544 C543 1.524 . S
C544 C545 1.415 . S
C545 H515 0.950 . S
C545 C540 1.363 . S
C545 C544 1.415 . S
H546 C543 0.999 . S
H547 C528 0.913 . S
H548 C566 0.951 . S
H549 C568 0.951 . S
H550 C570 0.950 . S
H551 C571 0.950 . S
H552 C573 0.950 . S
H553 C576 0.950 . S
H554 C577 0.950 . S
H555 C579 0.950 . S
H556 C580 0.950 . S
H557 C581 0.951 . S
H558 C583 0.951 . S
H559 C585 0.950 . S
H560 C586 0.950 . S
H561 C588 0.950 . S
H562 C591 0.950 . S
H563 C592 0.950 . S
H564 C594 0.950 . S
H565 C595 0.950 . S
C566 H548 0.951 . S
C566 C567 1.366 . S
C566 C568 1.388 . S
C567 C566 1.366 . S
C567 C571 1.385 . S
C568 H549 0.951 . S
C568 C566 1.388 . S
C568 C569 1.366 . S
C569 C568 1.366 . S
C569 C570 1.414 . S
C569 C572 1.499 . S
C570 H550 0.950 . S
C570 C569 1.414 . S
C570 C571 1.374 . S
C571 H551 0.950 . S
C571 C567 1.385 . S
C571 C570 1.374 . S
C572 C569 1.499 . S
C572 C573 1.373 . S
C572 C574 1.389 . S
C573 H552 0.950 . S
C573 C572 1.373 . S
C573 C589 1.377 . S
C574 C572 1.389 . S
C574 C575 1.524 . S
C574 C588 1.377 . S
C575 C574 1.524 . S
C575 C576 1.397 . S
C575 C580 1.363 1_455 S
C576 H553 0.950 . S
C576 C575 1.397 . S
C576 C577 1.334 1_455 S
C577 H554 0.950 . S
C577 C576 1.334 1_655 S
C577 C578 1.287 . S
C578 C577 1.287 . S
C578 C579 1.524 . S
C578 H597 0.913 . S
C579 H555 0.950 . S
C579 C578 1.524 . S
C579 C580 1.415 . S
C580 H556 0.950 . S
C580 C575 1.363 1_655 S
C580 C579 1.415 . S
C581 H557 0.951 . S
C581 C582 1.366 . S
C581 C583 1.388 . S
C582 C581 1.366 . S
C582 C586 1.385 . S
C583 H558 0.951 . S
C583 C581 1.388 . S
C583 C584 1.366 . S
C584 C583 1.366 . S
C584 C585 1.414 . S
C584 C587 1.499 . S
C585 H559 0.950 . S
C585 C584 1.414 . S
C585 C586 1.374 . S
C586 H560 0.950 . S
C586 C582 1.385 . S
C586 C585 1.374 . S
C587 C584 1.499 . S
C587 C588 1.373 . S
C587 C589 1.389 . S
C588 H561 0.950 . S
C588 C574 1.377 . S
C588 C587 1.373 . S
C589 C573 1.377 . S
C589 C587 1.389 . S
C589 C590 1.524 . S
C590 C589 1.524 . S
C590 C591 1.397 . S
C590 C595 1.363 . S
C591 H562 0.950 . S
C591 C590 1.397 . S
C591 C592 1.334 . S
C592 H563 0.950 . S
C592 C591 1.334 . S
C592 C593 1.287 . S
C593 C592 1.287 . S
C593 C594 1.524 . S
C593 H596 0.999 . S
C594 H564 0.950 . S
C594 C593 1.524 . S
C594 C595 1.415 . S
C595 H565 0.950 . S
C595 C590 1.363 . S
C595 C594 1.415 . S
H596 C593 0.999 . S
H597 C578 0.913 . S
H598 C616 0.951 . S
H599 C618 0.951 . S
H600 C620 0.950 . S
H601 C621 0.950 . S
H602 C623 0.950 . S
H603 C626 0.950 . S
H604 C627 0.950 . S
H605 C629 0.950 . S
H606 C630 0.950 . S
H607 C631 0.951 . S
H608 C633 0.951 . S
H609 C635 0.950 . S
H610 C636 0.950 . S
H611 C638 0.950 . S
H612 C641 0.950 . S
H613 C642 0.950 . S
H614 C644 0.950 . S
H615 C645 0.950 . S
C616 H598 0.951 . S
C616 C617 1.366 . S
C616 C618 1.388 . S
C617 C616 1.366 . S
C617 C621 1.385 . S
C618 H599 0.951 . S
C618 C616 1.388 . S
C618 C619 1.366 . S
C619 C618 1.366 . S
C619 C620 1.414 . S
C619 C622 1.499 . S
C620 H600 0.950 . S
C620 C619 1.414 . S
C620 C621 1.374 . S
C621 H601 0.950 . S
C621 C617 1.385 . S
C621 C620 1.374 . S
C622 C619 1.499 . S
C622 C623 1.373 . S
C622 C624 1.389 . S
C623 H602 0.950 . S
C623 C622 1.373 . S
C623 C639 1.377 . S
C624 C622 1.389 . S
C624 C625 1.524 . S
C624 C638 1.377 . S
C625 C624 1.524 . S
C625 C626 1.397 . S
C625 C630 1.363 . S
C626 H603 0.950 . S
C626 C625 1.397 . S
C626 C627 1.334 . S
C627 H604 0.950 . S
C627 C626 1.334 . S
C627 C628 1.287 . S
C628 C627 1.287 . S
C628 C629 1.524 . S
C628 H647 0.913 . S
C629 H605 0.950 . S
C629 C628 1.524 . S
C629 C630 1.415 . S
C630 H606 0.950 . S
C630 C625 1.363 . S
C630 C629 1.415 . S
C631 H607 0.951 . S
C631 C632 1.366 . S
C631 C633 1.388 . S
C632 C631 1.366 . S
C632 C636 1.385 . S
C633 H608 0.951 . S
C633 C631 1.388 . S
C633 C634 1.366 . S
C634 C633 1.366 . S
C634 C635 1.414 . S
C634 C637 1.499 . S
C635 H609 0.950 . S
C635 C634 1.414 . S
C635 C636 1.374 . S
C636 H610 0.950 . S
C636 C632 1.385 . S
C636 C635 1.374 . S
C637 C634 1.499 . S
C637 C638 1.373 . S
C637 C639 1.389 . S
C638 H611 0.950 . S
C638 C624 1.377 . S
C638 C637 1.373 . S
C639 C623 1.377 . S
C639 C637 1.389 . S
C639 C640 1.524 . S
C640 C639 1.524 . S
C640 C641 1.397 . S
C640 C645 1.363 . S
C641 H612 0.950 . S
C641 C640 1.397 . S
C641 C642 1.334 . S
C642 H613 0.950 . S
C642 C641 1.334 . S
C642 C643 1.287 . S
C643 C642 1.287 . S
C643 C644 1.524 . S
C643 H646 0.999 . S
C644 H614 0.950 . S
C644 C643 1.524 . S
C644 C645 1.415 . S
C645 H615 0.950 . S
C645 C640 1.363 . S
C645 C644 1.415 . S
H646 C643 0.999 . S
H647 C628 0.913 . S
H648 C666 0.951 . S
H649 C668 0.951 . S
H650 C670 0.950 . S
H651 C671 0.950 . S
H652 C673 0.950 . S
H653 C676 0.950 . S
H654 C677 0.950 . S
H655 C679 0.950 . S
H656 C680 0.950 . S
H657 C681 0.951 . S
H658 C683 0.951 . S
H659 C685 0.950 . S
H660 C686 0.950 . S
H661 C688 0.950 . S
H662 C691 0.950 . S
H663 C692 0.950 . S
H664 C694 0.950 . S
H665 C695 0.950 . S
C666 H648 0.951 . S
C666 C667 1.366 . S
C666 C668 1.388 . S
C667 C666 1.366 . S
C667 C671 1.385 . S
C668 H649 0.951 . S
C668 C666 1.388 . S
C668 C669 1.366 . S
C669 C668 1.366 . S
C669 C670 1.414 . S
C669 C672 1.499 . S
C670 H650 0.950 . S
C670 C669 1.414 . S
C670 C671 1.374 . S
C671 H651 0.950 . S
C671 C667 1.385 . S
C671 C670 1.374 . S
C672 C669 1.499 . S
C672 C673 1.373 . S
C672 C674 1.389 . S
C673 H652 0.950 . S
C673 C672 1.373 . S
C673 C689 1.377 . S
C674 C672 1.389 . S
C674 C675 1.524 . S
C674 C688 1.377 . S
C675 C674 1.524 . S
C675 C676 1.397 . S
C675 C680 1.363 . S
C676 H653 0.950 . S
C676 C675 1.397 . S
C676 C677 1.334 1_655 S
C677 H654 0.950 . S
C677 C676 1.334 1_455 S
C677 C678 1.287 1_455 S
C678 C677 1.287 1_655 S
C678 C679 1.524 . S
C678 H697 0.913 1_655 S
C679 H655 0.950 . S
C679 C678 1.524 . S
C679 C680 1.415 . S
C680 H656 0.950 . S
C680 C675 1.363 . S
C680 C679 1.415 . S
C681 H657 0.951 . S
C681 C682 1.366 . S
C681 C683 1.388 . S
C682 C681 1.366 . S
C682 C686 1.385 . S
C683 H658 0.951 . S
C683 C681 1.388 . S
C683 C684 1.366 . S
C684 C683 1.366 . S
C684 C685 1.414 . S
C684 C687 1.499 . S
C685 H659 0.950 . S
C685 C684 1.414 . S
C685 C686 1.374 . S
C686 H660 0.950 . S
C686 C682 1.385 . S
C686 C685 1.374 . S
C687 C684 1.499 . S
C687 C688 1.373 . S
C687 C689 1.389 . S
C688 H661 0.950 . S
C688 C674 1.377 . S
C688 C687 1.373 . S
C689 C673 1.377 . S
C689 C687 1.389 . S
C689 C690 1.524 . S
C690 C689 1.524 . S
C690 C691 1.397 . S
C690 C695 1.363 . S
C691 H662 0.950 . S
C691 C690 1.397 . S
C691 C692 1.334 . S
C692 H663 0.950 . S
C692 C691 1.334 . S
C692 C693 1.287 . S
C693 C692 1.287 . S
C693 C694 1.524 . S
C693 H696 0.999 . S
C694 H664 0.950 . S
C694 C693 1.524 . S
C694 C695 1.415 . S
C695 H665 0.950 . S
C695 C690 1.363 . S
C695 C694 1.415 . S
H696 C693 0.999 . S
H697 C678 0.913 1_455 S
H698 C716 0.951 . S
H699 C718 0.951 . S
H700 C720 0.950 . S
H701 C721 0.950 . S
H702 C723 0.950 . S
H703 C726 0.950 . S
H704 C727 0.950 . S
H705 C729 0.950 1_455 S
H706 C730 0.950 . S
H707 C731 0.951 . S
H708 C733 0.951 . S
H709 C735 0.950 . S
H710 C736 0.950 . S
H711 C738 0.950 . S
H712 C741 0.950 . S
H713 C742 0.950 . S
H714 C744 0.950 . S
H715 C745 0.950 . S
C716 H698 0.951 . S
C716 C717 1.366 . S
C716 C718 1.388 . S
C717 C716 1.366 . S
C717 C721 1.385 . S
C718 H699 0.951 . S
C718 C716 1.388 . S
C718 C719 1.366 . S
C719 C718 1.366 . S
C719 C720 1.414 . S
C719 C722 1.499 . S
C720 H700 0.950 . S
C720 C719 1.414 . S
C720 C721 1.374 . S
C721 H701 0.950 . S
C721 C717 1.385 . S
C721 C720 1.374 . S
C722 C719 1.499 . S
C722 C723 1.373 . S
C722 C724 1.389 . S
C723 H702 0.950 . S
C723 C722 1.373 . S
C723 C739 1.377 . S
C724 C722 1.389 . S
C724 C725 1.524 . S
C724 C738 1.377 . S
C725 C724 1.524 . S
C725 C726 1.397 . S
C725 C730 1.363 . S
C726 H703 0.950 . S
C726 C725 1.397 . S
C726 C727 1.334 . S
C727 H704 0.950 . S
C727 C726 1.334 . S
C727 C728 1.287 . S
C728 C727 1.287 . S
C728 C729 1.524 . S
C728 H747 0.913 . S
C729 H705 0.950 1_655 S
C729 C728 1.524 . S
C729 C730 1.415 . S
C730 H706 0.950 . S
C730 C725 1.363 . S
C730 C729 1.415 . S
C731 H707 0.951 . S
C731 C732 1.366 . S
C731 C733 1.388 . S
C732 C731 1.366 . S
C732 C736 1.385 . S
C733 H708 0.951 . S
C733 C731 1.388 . S
C733 C734 1.366 . S
C734 C733 1.366 . S
C734 C735 1.414 . S
C734 C737 1.499 . S
C735 H709 0.950 . S
C735 C734 1.414 . S
C735 C736 1.374 . S
C736 H710 0.950 . S
C736 C732 1.385 . S
C736 C735 1.374 . S
C737 C734 1.499 . S
C737 C738 1.373 . S
C737 C739 1.389 . S
C738 H711 0.950 . S
C738 C724 1.377 . S
C738 C737 1.373 . S
C739 C723 1.377 . S
C739 C737 1.389 . S
C739 C740 1.524 . S
C740 C739 1.524 . S
C740 C741 1.397 . S
C740 C745 1.363 . S
C741 H712 0.950 . S
C741 C740 1.397 . S
C741 C742 1.334 . S
C742 H713 0.950 . S
C742 C741 1.334 . S
C742 C743 1.287 . S
C743 C742 1.287 . S
C743 C744 1.524 . S
C743 H746 0.999 . S
C744 H714 0.950 . S
C744 C743 1.524 . S
C744 C745 1.415 . S
C745 H715 0.950 . S
C745 C740 1.363 . S
C745 C744 1.415 . S
H746 C743 0.999 . S
H747 C728 0.913 . S
H748 C766 0.951 . S
H749 C768 0.951 . S
H750 C770 0.950 . S
H751 C771 0.950 . S
H752 C773 0.950 . S
H753 C776 0.950 . S
H754 C777 0.950 . S
H755 C779 0.950 . S
H756 C780 0.950 . S
H757 C781 0.951 . S
H758 C783 0.951 . S
H759 C785 0.950 . S
H760 C786 0.950 . S
H761 C788 0.950 . S
H762 C791 0.950 . S
H763 C792 0.950 . S
H764 C794 0.950 . S
H765 C795 0.950 . S
C766 H748 0.951 . S
C766 C767 1.366 . S
C766 C768 1.388 . S
C767 C766 1.366 . S
C767 C771 1.385 . S
C768 H749 0.951 . S
C768 C766 1.388 . S
C768 C769 1.366 . S
C769 C768 1.366 . S
C769 C770 1.414 . S
C769 C772 1.499 . S
C770 H750 0.950 . S
C770 C769 1.414 . S
C770 C771 1.374 . S
C771 H751 0.950 . S
C771 C767 1.385 . S
C771 C770 1.374 . S
C772 C769 1.499 . S
C772 C773 1.373 . S
C772 C774 1.389 . S
C773 H752 0.950 . S
C773 C772 1.373 . S
C773 C789 1.377 . S
C774 C772 1.389 . S
C774 C775 1.524 . S
C774 C788 1.377 . S
C775 C774 1.524 . S
C775 C776 1.397 . S
C775 C780 1.363 . S
C776 H753 0.950 . S
C776 C775 1.397 . S
C776 C777 1.334 . S
C777 H754 0.950 . S
C777 C776 1.334 . S
C777 C778 1.287 . S
C778 C777 1.287 . S
C778 C779 1.524 . S
C778 H797 0.913 . S
C779 H755 0.950 . S
C779 C778 1.524 . S
C779 C780 1.415 . S
C780 H756 0.950 . S
C780 C775 1.363 . S
C780 C779 1.415 . S
C781 H757 0.951 . S
C781 C782 1.366 . S
C781 C783 1.388 . S
C782 C781 1.366 . S
C782 C786 1.385 . S
C783 H758 0.951 . S
C783 C781 1.388 . S
C783 C784 1.366 . S
C784 C783 1.366 . S
C784 C785 1.414 . S
C784 C787 1.499 . S
C785 H759 0.950 . S
C785 C784 1.414 . S
C785 C786 1.374 . S
C786 H760 0.950 . S
C786 C782 1.385 . S
C786 C785 1.374 . S
C787 C784 1.499 . S
C787 C788 1.373 . S
C787 C789 1.389 . S
C788 H761 0.950 . S
C788 C774 1.377 . S
C788 C787 1.373 . S
C789 C773 1.377 . S
C789 C787 1.389 . S
C789 C790 1.524 . S
C790 C789 1.524 . S
C790 C791 1.397 1_655 S
C790 C795 1.363 . S
C791 H762 0.950 . S
C791 C790 1.397 1_455 S
C791 C792 1.334 . S
C792 H763 0.950 . S
C792 C791 1.334 . S
C792 C793 1.287 . S
C793 C792 1.287 . S
C793 C794 1.524 . S
C793 H796 0.999 . S
C794 H764 0.950 . S
C794 C793 1.524 . S
C794 C795 1.415 1_455 S
C795 H765 0.950 . S
C795 C790 1.363 . S
C795 C794 1.415 1_655 S
H796 C793 0.999 . S
H797 C778 0.913 . S
H798 C816 0.951 . S
H799 C818 0.951 . S
H800 C820 0.950 . S
H801 C821 0.950 . S
H802 C823 0.950 . S
H803 C826 0.950 . S
H804 C827 0.950 . S
H805 C829 0.950 . S
H806 C830 0.950 . S
H807 C831 0.951 . S
H808 C833 0.951 . S
H809 C835 0.950 . S
H810 C836 0.950 . S
H811 C838 0.950 . S
H812 C841 0.950 . S
H813 C842 0.950 . S
H814 C844 0.950 . S
H815 C845 0.950 . S
C816 H798 0.951 . S
C816 C817 1.366 . S
C816 C818 1.388 . S
C817 C816 1.366 . S
C817 C821 1.385 . S
C818 H799 0.951 . S
C818 C816 1.388 . S
C818 C819 1.366 . S
C819 C818 1.366 . S
C819 C820 1.414 . S
C819 C822 1.499 . S
C820 H800 0.950 . S
C820 C819 1.414 . S
C820 C821 1.374 . S
C821 H801 0.950 . S
C821 C817 1.385 . S
C821 C820 1.374 . S
C822 C819 1.499 . S
C822 C823 1.373 . S
C822 C824 1.389 . S
C823 H802 0.950 . S
C823 C822 1.373 . S
C823 C839 1.377 . S
C824 C822 1.389 . S
C824 C825 1.524 . S
C824 C838 1.377 . S
C825 C824 1.524 . S
C825 C826 1.397 . S
C825 C830 1.363 . S
C826 H803 0.950 . S
C826 C825 1.397 . S
C826 C827 1.334 . S
C827 H804 0.950 . S
C827 C826 1.334 . S
C827 C828 1.287 . S
C828 C827 1.287 . S
C828 C829 1.524 . S
C828 H847 0.913 . S
C829 H805 0.950 . S
C829 C828 1.524 . S
C829 C830 1.415 . S
C830 H806 0.950 . S
C830 C825 1.363 . S
C830 C829 1.415 . S
C831 H807 0.951 . S
C831 C832 1.366 . S
C831 C833 1.388 . S
C832 C831 1.366 . S
C832 C836 1.385 . S
C833 H808 0.951 . S
C833 C831 1.388 . S
C833 C834 1.366 . S
C834 C833 1.366 . S
C834 C835 1.414 . S
C834 C837 1.499 . S
C835 H809 0.950 . S
C835 C834 1.414 . S
C835 C836 1.374 . S
C836 H810 0.950 . S
C836 C832 1.385 . S
C836 C835 1.374 . S
C837 C834 1.499 . S
C837 C838 1.373 . S
C837 C839 1.389 . S
C838 H811 0.950 . S
C838 C824 1.377 . S
C838 C837 1.373 . S
C839 C823 1.377 . S
C839 C837 1.389 . S
C839 C840 1.524 . S
C840 C839 1.524 . S
C840 C841 1.397 . S
C840 C845 1.363 . S
C841 H812 0.950 . S
C841 C840 1.397 . S
C841 C842 1.334 . S
C842 H813 0.950 . S
C842 C841 1.334 . S
C842 C843 1.287 . S
C843 C842 1.287 . S
C843 C844 1.524 . S
C843 H846 0.999 . S
C844 H814 0.950 . S
C844 C843 1.524 . S
C844 C845 1.415 . S
C845 H815 0.950 . S
C845 C840 1.363 . S
C845 C844 1.415 . S
H846 C843 0.999 . S
H847 C828 0.913 . S
H848 C866 0.951 . S
H849 C868 0.951 . S
H850 C870 0.950 . S
H851 C871 0.950 . S
H852 C873 0.950 . S
H853 C876 0.950 . S
H854 C877 0.950 . S
H855 C879 0.950 . S
H856 C880 0.950 . S
H857 C881 0.951 . S
H858 C883 0.951 . S
H859 C885 0.950 . S
H860 C886 0.950 . S
H861 C888 0.950 . S
H862 C891 0.950 . S
H863 C892 0.950 . S
H864 C894 0.950 . S
H865 C895 0.950 . S
C866 H848 0.951 . S
C866 C867 1.366 . S
C866 C868 1.388 . S
C867 C866 1.366 . S
C867 C871 1.385 . S
C868 H849 0.951 . S
C868 C866 1.388 . S
C868 C869 1.366 . S
C869 C868 1.366 . S
C869 C870 1.414 . S
C869 C872 1.499 . S
C870 H850 0.950 . S
C870 C869 1.414 . S
C870 C871 1.374 . S
C871 H851 0.950 . S
C871 C867 1.385 . S
C871 C870 1.374 . S
C872 C869 1.499 . S
C872 C873 1.373 . S
C872 C874 1.389 . S
C873 H852 0.950 . S
C873 C872 1.373 . S
C873 C889 1.377 . S
C874 C872 1.389 . S
C874 C875 1.524 . S
C874 C888 1.377 . S
C875 C874 1.524 . S
C875 C876 1.397 . S
C875 C880 1.363 . S
C876 H853 0.950 . S
C876 C875 1.397 . S
C876 C877 1.334 . S
C877 H854 0.950 . S
C877 C876 1.334 . S
C877 C878 1.287 . S
C878 C877 1.287 . S
C878 C879 1.524 . S
C878 H897 0.913 . S
C879 H855 0.950 . S
C879 C878 1.524 . S
C879 C880 1.415 . S
C880 H856 0.950 . S
C880 C875 1.363 . S
C880 C879 1.415 . S
C881 H857 0.951 . S
C881 C882 1.366 . S
C881 C883 1.388 . S
C882 C881 1.366 . S
C882 C886 1.385 . S
C883 H858 0.951 . S
C883 C881 1.388 . S
C883 C884 1.366 . S
C884 C883 1.366 . S
C884 C885 1.414 . S
C884 C887 1.499 . S
C885 H859 0.950 . S
C885 C884 1.414 . S
C885 C886 1.374 . S
C886 H860 0.950 . S
C886 C882 1.385 . S
C886 C885 1.374 . S
C887 C884 1.499 . S
C887 C888 1.373 . S
C887 C889 1.389 . S
C888 H861 0.950 . S
C888 C874 1.377 . S
C888 C887 1.373 . S
C889 C873 1.377 . S
C889 C887 1.389 . S
C889 C890 1.524 . S
C890 C889 1.524 . S
C890 C891 1.397 . S
C890 C895 1.363 . S
C891 H862 0.950 . S
C891 C890 1.397 . S
C891 C892 1.334 . S
C892 H863 0.950 . S
C892 C891 1.334 . S
C892 C893 1.287 . S
C893 C892 1.287 . S
C893 C894 1.524 . S
C893 H896 0.999 . S
C894 H864 0.950 . S
C894 C893 1.524 . S
C894 C895 1.415 . S
C895 H865 0.950 . S
C895 C890 1.363 . S
C895 C894 1.415 . S
H896 C893 0.999 . S
H897 C878 0.913 . S
H898 C916 0.951 . S
H899 C918 0.951 . S
H900 C920 0.950 . S
H901 C921 0.950 . S
H902 C923 0.950 . S
H903 C926 0.950 . S
H904 C927 0.950 . S
H905 C929 0.950 . S
H906 C930 0.950 . S
H907 C931 0.951 . S
H908 C933 0.951 . S
H909 C935 0.950 . S
H910 C936 0.950 . S
H911 C938 0.950 . S
H912 C941 0.950 . S
H913 C942 0.950 . S
H914 C944 0.950 . S
H915 C945 0.950 . S
C916 H898 0.951 . S
C916 C917 1.366 . S
C916 C918 1.388 . S
C917 C916 1.366 . S
C917 C921 1.385 . S
C918 H899 0.951 . S
C918 C916 1.388 . S
C918 C919 1.366 . S
C919 C918 1.366 . S
C919 C920 1.414 . S
C919 C922 1.499 . S
C920 H900 0.950 . S
C920 C919 1.414 . S
C920 C921 1.374 . S
C921 H901 0.950 . S
C921 C917 1.385 . S
C921 C920 1.374 . S
C922 C919 1.499 . S
C922 C923 1.373 . S
C922 C924 1.389 . S
C923 H902 0.950 . S
C923 C922 1.373 . S
C923 C939 1.377 . S
C924 C922 1.389 . S
C924 C925 1.524 . S
C924 C938 1.377 . S
C925 C924 1.524 . S
C925 C926 1.397 . S
C925 C930 1.363 . S
C926 H903 0.950 . S
C926 C925 1.397 . S
C926 C927 1.334 . S
C927 H904 0.950 . S
C927 C926 1.334 . S
C927 C928 1.287 . S
C928 C927 1.287 . S
C928 C929 1.524 . S
C928 H947 0.913 . S
C929 H905 0.950 . S
C929 C928 1.524 . S
C929 C930 1.415 . S
C930 H906 0.950 . S
C930 C925 1.363 . S
C930 C929 1.415 . S
C931 H907 0.951 . S
C931 C932 1.366 . S
C931 C933 1.388 . S
C932 C931 1.366 . S
C932 C936 1.385 . S
C933 H908 0.951 . S
C933 C931 1.388 . S
C933 C934 1.366 . S
C934 C933 1.366 . S
C934 C935 1.414 . S
C934 C937 1.499 . S
C935 H909 0.950 . S
C935 C934 1.414 . S
C935 C936 1.374 . S
C936 H910 0.950 . S
C936 C932 1.385 . S
C936 C935 1.374 . S
C937 C934 1.499 . S
C937 C938 1.373 . S
C937 C939 1.389 . S
C938 H911 0.950 . S
C938 C924 1.377 . S
C938 C937 1.373 . S
C939 C923 1.377 . S
C939 C937 1.389 . S
C939 C940 1.524 . S
C940 C939 1.524 . S
C940 C941 1.397 . S
C940 C945 1.363 . S
C941 H912 0.950 . S
C941 C940 1.397 . S
C941 C942 1.334 . S
C942 H913 0.950 . S
C942 C941 1.334 . S
C942 C943 1.287 . S
C943 C942 1.287 . S
C943 C944 1.524 . S
C943 H946 0.999 . S
C944 H914 0.950 . S
C944 C943 1.524 . S
C944 C945 1.415 . S
C945 H915 0.950 . S
C945 C940 1.363 . S
C945 C944 1.415 . S
H946 C943 0.999 . S
H947 C928 0.913 . S
H948 C966 0.951 . S
H949 C968 0.951 . S
H950 C970 0.950 . S
H951 C971 0.950 . S
H952 C973 0.950 . S
H953 C976 0.950 . S
H954 C977 0.950 . S
H955 C979 0.950 . S
H956 C980 0.950 . S
H957 C981 0.951 . S
H958 C983 0.951 . S
H959 C985 0.950 . S
H960 C986 0.950 . S
H961 C988 0.950 . S
H962 C991 0.950 . S
H963 C992 0.950 . S
H964 C994 0.950 . S
H965 C995 0.950 . S
C966 H948 0.951 . S
C966 C967 1.366 . S
C966 C968 1.388 . S
C967 C966 1.366 . S
C967 C971 1.385 . S
C968 H949 0.951 . S
C968 C966 1.388 . S
C968 C969 1.366 . S
C969 C968 1.366 . S
C969 C970 1.414 . S
C969 C972 1.499 . S
C970 H950 0.950 . S
C970 C969 1.414 . S
C970 C971 1.374 . S
C971 H951 0.950 . S
C971 C967 1.385 . S
C971 C970 1.374 . S
C972 C969 1.499 . S
C972 C973 1.373 . S
C972 C974 1.389 . S
C973 H952 0.950 . S
C973 C972 1.373 . S
C973 C989 1.377 . S
C974 C972 1.389 . S
C974 C975 1.524 . S
C974 C988 1.377 . S
C975 C974 1.524 . S
C975 C976 1.397 . S
C975 C980 1.363 . S
C976 H953 0.950 . S
C976 C975 1.397 . S
C976 C977 1.334 . S
C977 H954 0.950 . S
C977 C976 1.334 . S
C977 C978 1.287 . S
C978 C977 1.287 . S
C978 C979 1.524 . S
C978 H997 0.913 . S
C979 H955 0.950 . S
C979 C978 1.524 . S
C979 C980 1.415 . S
C980 H956 0.950 . S
C980 C975 1.363 . S
C980 C979 1.415 . S
C981 H957 0.951 . S
C981 C982 1.366 . S
C981 C983 1.388 . S
C982 C981 1.366 . S
C982 C986 1.385 . S
C983 H958 0.951 . S
C983 C981 1.388 . S
C983 C984 1.366 . S
C984 C983 1.366 . S
C984 C985 1.414 . S
C984 C987 1.499 . S
C985 H959 0.950 . S
C985 C984 1.414 . S
C985 C986 1.374 . S
C986 H960 0.950 . S
C986 C982 1.385 . S
C986 C985 1.374 . S
C987 C984 1.499 . S
C987 C988 1.373 . S
C987 C989 1.389 . S
C988 H961 0.950 . S
C988 C974 1.377 . S
C988 C987 1.373 . S
C989 C973 1.377 . S
C989 C987 1.389 . S
C989 C990 1.524 . S
C990 C989 1.524 . S
C990 C991 1.397 . S
C990 C995 1.363 . S
C991 H962 0.950 . S
C991 C990 1.397 . S
C991 C992 1.334 . S
C992 H963 0.950 . S
C992 C991 1.334 . S
C992 C993 1.287 . S
C993 C992 1.287 . S
C993 C994 1.524 . S
C993 H996 0.999 . S
C994 H964 0.950 . S
C994 C993 1.524 . S
C994 C995 1.415 . S
C995 H965 0.950 . S
C995 C990 1.363 . S
C995 C994 1.415 . S
H996 C993 0.999 . S
H997 C978 0.913 . S
H998 C1016 0.951 . S
H999 C1018 0.951 . S
H1000 C1020 0.950 . S
H1001 C1021 0.950 . S
H1002 C1023 0.950 . S
H1003 C1026 0.950 . S
H1004 C1027 0.950 . S
H1005 C1029 0.950 . S
H1006 C1030 0.950 . S
H1007 C1031 0.951 . S
H1008 C1033 0.951 . S
H1009 C1035 0.950 . S
H1010 C1036 0.950 . S
H1011 C1038 0.950 . S
H1012 C1041 0.950 . S
H1013 C1042 0.950 . S
H1014 C1044 0.950 . S
H1015 C1045 0.950 . S
C1016 H998 0.951 . S
C1016 C1017 1.366 . S
C1016 C1018 1.388 . S
C1017 C1016 1.366 . S
C1017 C1021 1.385 . S
C1018 H999 0.951 . S
C1018 C1016 1.388 . S
C1018 C1019 1.366 . S
C1019 C1018 1.366 . S
C1019 C1020 1.414 . S
C1019 C1022 1.499 . S
C1020 H1000 0.950 . S
C1020 C1019 1.414 . S
C1020 C1021 1.374 . S
C1021 H1001 0.950 . S
C1021 C1017 1.385 . S
C1021 C1020 1.374 . S
C1022 C1019 1.499 . S
C1022 C1023 1.373 . S
C1022 C1024 1.389 . S
C1023 H1002 0.950 . S
C1023 C1022 1.373 . S
C1023 C1039 1.377 . S
C1024 C1022 1.389 . S
C1024 C1025 1.524 . S
C1024 C1038 1.377 . S
C1025 C1024 1.524 . S
C1025 C1026 1.397 . S
C1025 C1030 1.363 . S
C1026 H1003 0.950 . S
C1026 C1025 1.397 . S
C1026 C1027 1.334 . S
C1027 H1004 0.950 . S
C1027 C1026 1.334 . S
C1027 C1028 1.287 . S
C1028 C1027 1.287 . S
C1028 C1029 1.524 . S
C1028 H1047 0.913 . S
C1029 H1005 0.950 . S
C1029 C1028 1.524 . S
C1029 C1030 1.415 . S
C1030 H1006 0.950 . S
C1030 C1025 1.363 . S
C1030 C1029 1.415 . S
C1031 H1007 0.951 . S
C1031 C1032 1.366 . S
C1031 C1033 1.388 . S
C1032 C1031 1.366 . S
C1032 C1036 1.385 . S
C1033 H1008 0.951 . S
C1033 C1031 1.388 . S
C1033 C1034 1.366 . S
C1034 C1033 1.366 . S
C1034 C1035 1.414 . S
C1034 C1037 1.499 . S
C1035 H1009 0.950 . S
C1035 C1034 1.414 . S
C1035 C1036 1.374 . S
C1036 H1010 0.950 . S
C1036 C1032 1.385 . S
C1036 C1035 1.374 . S
C1037 C1034 1.499 . S
C1037 C1038 1.373 . S
C1037 C1039 1.389 . S
C1038 H1011 0.950 . S
C1038 C1024 1.377 . S
C1038 C1037 1.373 . S
C1039 C1023 1.377 . S
C1039 C1037 1.389 . S
C1039 C1040 1.524 . S
C1040 C1039 1.524 . S
C1040 C1041 1.397 . S
C1040 C1045 1.363 . S
C1041 H1012 0.950 . S
C1041 C1040 1.397 . S
C1041 C1042 1.334 . S
C1042 H1013 0.950 . S
C1042 C1041 1.334 . S
C1042 C1043 1.287 . S
C1043 C1042 1.287 . S
C1043 C1044 1.524 . S
C1043 H1046 0.999 . S
C1044 H1014 0.950 . S
C1044 C1043 1.524 . S
C1044 C1045 1.415 . S
C1045 H1015 0.950 . S
C1045 C1040 1.363 . S
C1045 C1044 1.415 . S
H1046 C1043 0.999 . S
H1047 C1028 0.913 . S
H1048 C1066 0.951 . S
H1049 C1068 0.951 . S
H1050 C1070 0.950 . S
H1051 C1071 0.950 . S
H1052 C1073 0.950 . S
H1053 C1076 0.950 . S
H1054 C1077 0.950 . S
H1055 C1079 0.950 . S
H1056 C1080 0.950 . S
H1057 C1081 0.951 . S
H1058 C1083 0.951 . S
H1059 C1085 0.950 . S
H1060 C1086 0.950 . S
H1061 C1088 0.950 . S
H1062 C1091 0.950 . S
H1063 C1092 0.950 . S
H1064 C1094 0.950 . S
H1065 C1095 0.950 . S
C1066 H1048 0.951 . S
C1066 C1067 1.366 . S
C1066 C1068 1.388 . S
C1067 C1066 1.366 . S
C1067 C1071 1.385 . S
C1068 H1049 0.951 . S
C1068 C1066 1.388 . S
C1068 C1069 1.366 . S
C1069 C1068 1.366 . S
C1069 C1070 1.414 . S
C1069 C1072 1.499 . S
C1070 H1050 0.950 . S
C1070 C1069 1.414 . S
C1070 C1071 1.374 . S
C1071 H1051 0.950 . S
C1071 C1067 1.385 . S
C1071 C1070 1.374 . S
C1072 C1069 1.499 . S
C1072 C1073 1.373 . S
C1072 C1074 1.389 . S
C1073 H1052 0.950 . S
C1073 C1072 1.373 . S
C1073 C1089 1.377 . S
C1074 C1072 1.389 . S
C1074 C1075 1.524 . S
C1074 C1088 1.377 . S
C1075 C1074 1.524 . S
C1075 C1076 1.397 . S
C1075 C1080 1.363 . S
C1076 H1053 0.950 . S
C1076 C1075 1.397 . S
C1076 C1077 1.334 . S
C1077 H1054 0.950 . S
C1077 C1076 1.334 . S
C1077 C1078 1.287 . S
C1078 C1077 1.287 . S
C1078 C1079 1.524 . S
C1078 H1097 0.913 . S
C1079 H1055 0.950 . S
C1079 C1078 1.524 . S
C1079 C1080 1.415 . S
C1080 H1056 0.950 . S
C1080 C1075 1.363 . S
C1080 C1079 1.415 . S
C1081 H1057 0.951 . S
C1081 C1082 1.366 . S
C1081 C1083 1.388 . S
C1082 C1081 1.366 . S
C1082 C1086 1.385 . S
C1083 H1058 0.951 . S
C1083 C1081 1.388 . S
C1083 C1084 1.366 . S
C1084 C1083 1.366 . S
C1084 C1085 1.414 . S
C1084 C1087 1.499 . S
C1085 H1059 0.950 . S
C1085 C1084 1.414 . S
C1085 C1086 1.374 . S
C1086 H1060 0.950 . S
C1086 C1082 1.385 . S
C1086 C1085 1.374 . S
C1087 C1084 1.499 . S
C1087 C1088 1.373 . S
C1087 C1089 1.389 . S
C1088 H1061 0.950 . S
C1088 C1074 1.377 . S
C1088 C1087 1.373 . S
C1089 C1073 1.377 . S
C1089 C1087 1.389 . S
C1089 C1090 1.524 . S
C1090 C1089 1.524 . S
C1090 C1091 1.397 . S
C1090 C1095 1.363 . S
C1091 H1062 0.950 . S
C1091 C1090 1.397 . S
C1091 C1092 1.334 . S
C1092 H1063 0.950 . S
C1092 C1091 1.334 . S
C1092 C1093 1.287 . S
C1093 C1092 1.287 . S
C1093 C1094 1.524 . S
C1093 H1096 0.999 . S
C1094 H1064 0.950 . S
C1094 C1093 1.524 . S
C1094 C1095 1.415 . S
C1095 H1065 0.950 . S
C1095 C1090 1.363 . S
C1095 C1094 1.415 . S
H1096 C1093 0.999 . S
H1097 C1078 0.913 . S
H1098 C1116 0.951 . S
H1099 C1118 0.951 . S
H1100 C1120 0.950 . S
H1101 C1121 0.950 . S
H1102 C1123 0.950 . S
H1103 C1126 0.950 . S
H1104 C1127 0.950 . S
H1105 C1129 0.950 . S
H1106 C1130 0.950 . S
H1107 C1131 0.951 . S
H1108 C1133 0.951 . S
H1109 C1135 0.950 . S
H1110 C1136 0.950 . S
H1111 C1138 0.950 . S
H1112 C1141 0.950 . S
H1113 C1142 0.950 . S
H1114 C1144 0.950 . S
H1115 C1145 0.950 . S
C1116 H1098 0.951 . S
C1116 C1117 1.366 . S
C1116 C1118 1.388 . S
C1117 C1116 1.366 . S
C1117 C1121 1.385 . S
C1118 H1099 0.951 . S
C1118 C1116 1.388 . S
C1118 C1119 1.366 . S
C1119 C1118 1.366 . S
C1119 C1120 1.414 . S
C1119 C1122 1.499 . S
C1120 H1100 0.950 . S
C1120 C1119 1.414 . S
C1120 C1121 1.374 . S
C1121 H1101 0.950 . S
C1121 C1117 1.385 . S
C1121 C1120 1.374 . S
C1122 C1119 1.499 . S
C1122 C1123 1.373 . S
C1122 C1124 1.389 . S
C1123 H1102 0.950 . S
C1123 C1122 1.373 . S
C1123 C1139 1.377 . S
C1124 C1122 1.389 . S
C1124 C1125 1.524 . S
C1124 C1138 1.377 . S
C1125 C1124 1.524 . S
C1125 C1126 1.397 . S
C1125 C1130 1.363 . S
C1126 H1103 0.950 . S
C1126 C1125 1.397 . S
C1126 C1127 1.334 . S
C1127 H1104 0.950 . S
C1127 C1126 1.334 . S
C1127 C1128 1.287 . S
C1128 C1127 1.287 . S
C1128 C1129 1.524 . S
C1128 H1147 0.913 . S
C1129 H1105 0.950 . S
C1129 C1128 1.524 . S
C1129 C1130 1.415 . S
C1130 H1106 0.950 . S
C1130 C1125 1.363 . S
C1130 C1129 1.415 . S
C1131 H1107 0.951 . S
C1131 C1132 1.366 . S
C1131 C1133 1.388 . S
C1132 C1131 1.366 . S
C1132 C1136 1.385 . S
C1133 H1108 0.951 . S
C1133 C1131 1.388 . S
C1133 C1134 1.366 . S
C1134 C1133 1.366 . S
C1134 C1135 1.414 . S
C1134 C1137 1.499 . S
C1135 H1109 0.950 . S
C1135 C1134 1.414 . S
C1135 C1136 1.374 . S
C1136 H1110 0.950 . S
C1136 C1132 1.385 . S
C1136 C1135 1.374 . S
C1137 C1134 1.499 . S
C1137 C1138 1.373 . S
C1137 C1139 1.389 . S
C1138 H1111 0.950 . S
C1138 C1124 1.377 . S
C1138 C1137 1.373 . S
C1139 C1123 1.377 . S
C1139 C1137 1.389 . S
C1139 C1140 1.524 . S
C1140 C1139 1.524 . S
C1140 C1141 1.397 . S
C1140 C1145 1.363 . S
C1141 H1112 0.950 . S
C1141 C1140 1.397 . S
C1141 C1142 1.334 . S
C1142 H1113 0.950 . S
C1142 C1141 1.334 . S
C1142 C1143 1.287 . S
C1143 C1142 1.287 . S
C1143 C1144 1.524 . S
C1143 H1146 0.999 . S
C1144 H1114 0.950 . S
C1144 C1143 1.524 . S
C1144 C1145 1.415 . S
C1145 H1115 0.950 . S
C1145 C1140 1.363 . S
C1145 C1144 1.415 . S
H1146 C1143 0.999 . S
H1147 C1128 0.913 . S
H1148 C1166 0.951 . S
H1149 C1168 0.951 . S
H1150 C1170 0.950 . S
H1151 C1171 0.950 . S
H1152 C1173 0.950 . S
H1153 C1176 0.950 . S
H1154 C1177 0.950 . S
H1155 C1179 0.950 . S
H1156 C1180 0.950 . S
H1157 C1181 0.951 . S
H1158 C1183 0.951 . S
H1159 C1185 0.950 . S
H1160 C1186 0.950 . S
H1161 C1188 0.950 . S
H1162 C1191 0.950 . S
H1163 C1192 0.950 . S
H1164 C1194 0.950 . S
H1165 C1195 0.950 . S
C1166 H1148 0.951 . S
C1166 C1167 1.366 . S
C1166 C1168 1.388 . S
C1167 C1166 1.366 . S
C1167 C1171 1.385 . S
C1168 H1149 0.951 . S
C1168 C1166 1.388 . S
C1168 C1169 1.366 . S
C1169 C1168 1.366 . S
C1169 C1170 1.414 . S
C1169 C1172 1.499 . S
C1170 H1150 0.950 . S
C1170 C1169 1.414 . S
C1170 C1171 1.374 . S
C1171 H1151 0.950 . S
C1171 C1167 1.385 . S
C1171 C1170 1.374 . S
C1172 C1169 1.499 . S
C1172 C1173 1.373 . S
C1172 C1174 1.389 . S
C1173 H1152 0.950 . S
C1173 C1172 1.373 . S
C1173 C1189 1.377 . S
C1174 C1172 1.389 . S
C1174 C1175 1.524 . S
C1174 C1188 1.377 . S
C1175 C1174 1.524 . S
C1175 C1176 1.397 . S
C1175 C1180 1.363 . S
C1176 H1153 0.950 . S
C1176 C1175 1.397 . S
C1176 C1177 1.334 . S
C1177 H1154 0.950 . S
C1177 C1176 1.334 . S
C1177 C1178 1.287 . S
C1178 C1177 1.287 . S
C1178 C1179 1.524 . S
C1178 H1197 0.913 . S
C1179 H1155 0.950 . S
C1179 C1178 1.524 . S
C1179 C1180 1.415 . S
C1180 H1156 0.950 . S
C1180 C1175 1.363 . S
C1180 C1179 1.415 . S
C1181 H1157 0.951 . S
C1181 C1182 1.366 . S
C1181 C1183 1.388 . S
C1182 C1181 1.366 . S
C1182 C1186 1.385 . S
C1183 H1158 0.951 . S
C1183 C1181 1.388 . S
C1183 C1184 1.366 . S
C1184 C1183 1.366 . S
C1184 C1185 1.414 . S
C1184 C1187 1.499 . S
C1185 H1159 0.950 . S
C1185 C1184 1.414 . S
C1185 C1186 1.374 . S
C1186 H1160 0.950 . S
C1186 C1182 1.385 . S
C1186 C1185 1.374 . S
C1187 C1184 1.499 . S
C1187 C1188 1.373 . S
C1187 C1189 1.389 . S
C1188 H1161 0.950 . S
C1188 C1174 1.377 . S
C1188 C1187 1.373 . S
C1189 C1173 1.377 . S
C1189 C1187 1.389 . S
C1189 C1190 1.524 . S
C1190 C1189 1.524 . S
C1190 C1191 1.397 . S
C1190 C1195 1.363 . S
C1191 H1162 0.950 . S
C1191 C1190 1.397 . S
C1191 C1192 1.334 . S
C1192 H1163 0.950 . S
C1192 C1191 1.334 . S
C1192 C1193 1.287 . S
C1193 C1192 1.287 . S
C1193 C1194 1.524 . S
C1193 H1196 0.999 . S
C1194 H1164 0.950 . S
C1194 C1193 1.524 . S
C1194 C1195 1.415 . S
C1195 H1165 0.950 . S
C1195 C1190 1.363 . S
C1195 C1194 1.415 . S
H1196 C1193 0.999 . S
H1197 C1178 0.913 . S
H1198 C1216 0.951 . S
H1199 C1218 0.951 . S
H1200 C1220 0.950 . S
H1201 C1221 0.950 . S
H1202 C1223 0.950 . S
H1203 C1226 0.950 . S
H1204 C1227 0.950 . S
H1205 C1229 0.950 . S
H1206 C1230 0.950 . S
H1207 C1231 0.951 . S
H1208 C1233 0.951 . S
H1209 C1235 0.950 . S
H1210 C1236 0.950 . S
H1211 C1238 0.950 . S
H1212 C1241 0.950 . S
H1213 C1242 0.950 . S
H1214 C1244 0.950 . S
H1215 C1245 0.950 . S
C1216 H1198 0.951 . S
C1216 C1217 1.366 . S
C1216 C1218 1.388 . S
C1217 C1216 1.366 . S
C1217 C1221 1.385 . S
C1218 H1199 0.951 . S
C1218 C1216 1.388 . S
C1218 C1219 1.366 . S
C1219 C1218 1.366 . S
C1219 C1220 1.414 . S
C1219 C1222 1.499 . S
C1220 H1200 0.950 . S
C1220 C1219 1.414 . S
C1220 C1221 1.374 . S
C1221 H1201 0.950 . S
C1221 C1217 1.385 . S
C1221 C1220 1.374 . S
C1222 C1219 1.499 . S
C1222 C1223 1.373 . S
C1222 C1224 1.389 . S
C1223 H1202 0.950 . S
C1223 C1222 1.373 . S
C1223 C1239 1.377 . S
C1224 C1222 1.389 . S
C1224 C1225 1.524 . S
C1224 C1238 1.377 . S
C1225 C1224 1.524 . S
C1225 C1226 1.397 . S
C1225 C1230 1.363 . S
C1226 H1203 0.950 . S
C1226 C1225 1.397 . S
C1226 C1227 1.334 . S
C1227 H1204 0.950 . S
C1227 C1226 1.334 . S
C1227 C1228 1.287 . S
C1228 C1227 1.287 . S
C1228 C1229 1.524 . S
C1228 H1247 0.913 . S
C1229 H1205 0.950 . S
C1229 C1228 1.524 . S
C1229 C1230 1.415 . S
C1230 H1206 0.950 . S
C1230 C1225 1.363 . S
C1230 C1229 1.415 . S
C1231 H1207 0.951 . S
C1231 C1232 1.366 . S
C1231 C1233 1.388 . S
C1232 C1231 1.366 . S
C1232 C1236 1.385 . S
C1233 H1208 0.951 . S
C1233 C1231 1.388 . S
C1233 C1234 1.366 . S
C1234 C1233 1.366 . S
C1234 C1235 1.414 . S
C1234 C1237 1.499 . S
C1235 H1209 0.950 . S
C1235 C1234 1.414 . S
C1235 C1236 1.374 . S
C1236 H1210 0.950 . S
C1236 C1232 1.385 . S
C1236 C1235 1.374 . S
C1237 C1234 1.499 . S
C1237 C1238 1.373 . S
C1237 C1239 1.389 . S
C1238 H1211 0.950 . S
C1238 C1224 1.377 . S
C1238 C1237 1.373 . S
C1239 C1223 1.377 . S
C1239 C1237 1.389 . S
C1239 C1240 1.524 . S
C1240 C1239 1.524 . S
C1240 C1241 1.397 . S
C1240 C1245 1.363 . S
C1241 H1212 0.950 . S
C1241 C1240 1.397 . S
C1241 C1242 1.334 . S
C1242 H1213 0.950 . S
C1242 C1241 1.334 . S
C1242 C1243 1.287 . S
C1243 C1242 1.287 . S
C1243 C1244 1.524 . S
C1243 H1246 0.999 . S
C1244 H1214 0.950 . S
C1244 C1243 1.524 . S
C1244 C1245 1.415 . S
C1245 H1215 0.950 . S
C1245 C1240 1.363 . S
C1245 C1244 1.415 . S
H1246 C1243 0.999 . S
H1247 C1228 0.913 . S
H1248 C1266 0.951 . S
H1249 C1268 0.951 . S
H1250 C1270 0.950 . S
H1251 C1271 0.950 . S
H1252 C1273 0.950 . S
H1253 C1276 0.950 . S
H1254 C1277 0.950 . S
H1255 C1279 0.950 . S
H1256 C1280 0.950 . S
H1257 C1281 0.951 . S
H1258 C1283 0.951 . S
H1259 C1285 0.950 . S
H1260 C1286 0.950 . S
H1261 C1288 0.950 . S
H1262 C1291 0.950 . S
H1263 C1292 0.950 . S
H1264 C1294 0.950 . S
H1265 C1295 0.950 . S
C1266 H1248 0.951 . S
C1266 C1267 1.366 . S
C1266 C1268 1.388 . S
C1267 C1266 1.366 . S
C1267 C1271 1.385 . S
C1268 H1249 0.951 . S
C1268 C1266 1.388 . S
C1268 C1269 1.366 . S
C1269 C1268 1.366 . S
C1269 C1270 1.414 . S
C1269 C1272 1.499 . S
C1270 H1250 0.950 . S
C1270 C1269 1.414 . S
C1270 C1271 1.374 . S
C1271 H1251 0.950 . S
C1271 C1267 1.385 . S
C1271 C1270 1.374 . S
C1272 C1269 1.499 . S
C1272 C1273 1.373 . S
C1272 C1274 1.389 . S
C1273 H1252 0.950 . S
C1273 C1272 1.373 . S
C1273 C1289 1.377 . S
C1274 C1272 1.389 . S
C1274 C1275 1.524 . S
C1274 C1288 1.377 . S
C1275 C1274 1.524 . S
C1275 C1276 1.397 . S
C1275 C1280 1.363 . S
C1276 H1253 0.950 . S
C1276 C1275 1.397 . S
C1276 C1277 1.334 . S
C1277 H1254 0.950 . S
C1277 C1276 1.334 . S
C1277 C1278 1.287 . S
C1278 C1277 1.287 . S
C1278 C1279 1.524 . S
C1278 H1297 0.913 . S
C1279 H1255 0.950 . S
C1279 C1278 1.524 . S
C1279 C1280 1.415 . S
C1280 H1256 0.950 . S
C1280 C1275 1.363 . S
C1280 C1279 1.415 . S
C1281 H1257 0.951 . S
C1281 C1282 1.366 . S
C1281 C1283 1.388 . S
C1282 C1281 1.366 . S
C1282 C1286 1.385 . S
C1283 H1258 0.951 . S
C1283 C1281 1.388 . S
C1283 C1284 1.366 . S
C1284 C1283 1.366 . S
C1284 C1285 1.414 . S
C1284 C1287 1.499 . S
C1285 H1259 0.950 . S
C1285 C1284 1.414 . S
C1285 C1286 1.374 . S
C1286 H1260 0.950 . S
C1286 C1282 1.385 . S
C1286 C1285 1.374 . S
C1287 C1284 1.499 . S
C1287 C1288 1.373 . S
C1287 C1289 1.389 . S
C1288 H1261 0.950 . S
C1288 C1274 1.377 . S
C1288 C1287 1.373 . S
C1289 C1273 1.377 . S
C1289 C1287 1.389 . S
C1289 C1290 1.524 . S
C1290 C1289 1.524 . S
C1290 C1291 1.397 . S
C1290 C1295 1.363 . S
C1291 H1262 0.950 . S
C1291 C1290 1.397 . S
C1291 C1292 1.334 . S
C1292 H1263 0.950 . S
C1292 C1291 1.334 . S
C1292 C1293 1.287 . S
C1293 C1292 1.287 . S
C1293 C1294 1.524 . S
C1293 H1296 0.999 . S
C1294 H1264 0.950 . S
C1294 C1293 1.524 . S
C1294 C1295 1.415 . S
C1295 H1265 0.950 . S
C1295 C1290 1.363 . S
C1295 C1294 1.415 . S
H1296 C1293 0.999 . S
H1297 C1278 0.913 . S
H1298 C1316 0.951 . S
H1299 C1318 0.951 . S
H1300 C1320 0.950 . S
H1301 C1321 0.953 . S
H1302 C1323 0.950 . S
H1303 C1326 0.950 . S
H1304 C1327 0.950 . S
H1305 C1329 0.950 . S
H1306 C1330 0.950 . S
H1307 C1331 0.951 . S
H1308 C1333 0.951 . S
H1309 C1335 0.950 . S
H1310 C1336 0.950 . S
H1311 C1338 0.950 . S
H1312 C1341 0.950 . S
H1313 C1342 0.950 . S
H1314 C1344 0.950 . S
H1315 C1345 0.950 . S
C1316 H1298 0.951 . S
C1316 C1317 1.366 . S
C1316 C1318 1.388 1_455 S
C1317 C1316 1.366 . S
C1317 C1321 1.398 . S
C1318 H1299 0.951 . S
C1318 C1316 1.388 1_655 S
C1318 C1319 1.366 . S
C1319 C1318 1.366 . S
C1319 C1320 1.414 . S
C1319 C1322 1.499 . S
C1320 H1300 0.950 . S
C1320 C1319 1.414 . S
C1320 C1321 1.358 1_655 S
C1321 H1301 0.953 . S
C1321 C1317 1.398 . S
C1321 C1320 1.358 1_455 S
C1322 C1319 1.499 . S
C1322 C1323 1.373 . S
C1322 C1324 1.389 . S
C1323 H1302 0.950 . S
C1323 C1322 1.373 . S
C1323 C1339 1.377 . S
C1324 C1322 1.389 . S
C1324 C1325 1.524 . S
C1324 C1338 1.377 . S
C1325 C1324 1.524 . S
C1325 C1326 1.397 . S
C1325 C1330 1.363 . S
C1326 H1303 0.950 . S
C1326 C1325 1.397 . S
C1326 C1327 1.334 . S
C1327 H1304 0.950 . S
C1327 C1326 1.334 . S
C1327 C1328 1.287 . S
C1328 C1327 1.287 . S
C1328 C1329 1.524 . S
C1328 H1347 0.913 . S
C1329 H1305 0.950 . S
C1329 C1328 1.524 . S
C1329 C1330 1.415 . S
C1330 H1306 0.950 . S
C1330 C1325 1.363 . S
C1330 C1329 1.415 . S
C1331 H1307 0.951 . S
C1331 C1332 1.366 . S
C1331 C1333 1.388 . S
C1332 C1331 1.366 . S
C1332 C1336 1.385 . S
C1333 H1308 0.951 . S
C1333 C1331 1.388 . S
C1333 C1334 1.366 . S
C1334 C1333 1.366 . S
C1334 C1335 1.414 . S
C1334 C1337 1.499 . S
C1335 H1309 0.950 . S
C1335 C1334 1.414 . S
C1335 C1336 1.374 . S
C1336 H1310 0.950 . S
C1336 C1332 1.385 . S
C1336 C1335 1.374 . S
C1337 C1334 1.499 . S
C1337 C1338 1.373 . S
C1337 C1339 1.389 . S
C1338 H1311 0.950 . S
C1338 C1324 1.377 . S
C1338 C1337 1.373 . S
C1339 C1323 1.377 . S
C1339 C1337 1.389 . S
C1339 C1340 1.524 . S
C1340 C1339 1.524 . S
C1340 C1341 1.397 . S
C1340 C1345 1.363 . S
C1341 H1312 0.950 . S
C1341 C1340 1.397 . S
C1341 C1342 1.334 . S
C1342 H1313 0.950 . S
C1342 C1341 1.334 . S
C1342 C1343 1.287 . S
C1343 C1342 1.287 . S
C1343 C1344 1.524 . S
C1343 H1346 0.999 . S
C1344 H1314 0.950 . S
C1344 C1343 1.524 . S
C1344 C1345 1.415 . S
C1345 H1315 0.950 . S
C1345 C1340 1.363 . S
C1345 C1344 1.415 . S
H1346 C1343 0.999 . S
H1347 C1328 0.913 . S
H1348 C1366 0.951 . S
H1349 C1368 0.951 . S
H1350 C1370 0.950 . S
H1351 C1371 0.950 . S
H1352 C1373 0.950 . S
H1353 C1376 0.950 . S
H1354 C1377 0.950 . S
H1355 C1379 0.950 . S
H1356 C1380 0.950 . S
H1357 C1381 0.951 . S
H1358 C1383 0.951 . S
H1359 C1385 0.950 . S
H1360 C1386 0.950 . S
H1361 C1388 0.950 . S
H1362 C1391 0.950 . S
H1363 C1392 0.950 . S
H1364 C1394 0.950 . S
H1365 C1395 0.950 . S
C1366 H1348 0.951 . S
C1366 C1367 1.366 . S
C1366 C1368 1.388 . S
C1367 C1366 1.366 . S
C1367 C1371 1.385 . S
C1368 H1349 0.951 . S
C1368 C1366 1.388 . S
C1368 C1369 1.366 . S
C1369 C1368 1.366 . S
C1369 C1370 1.414 . S
C1369 C1372 1.499 . S
C1370 H1350 0.950 . S
C1370 C1369 1.414 . S
C1370 C1371 1.374 . S
C1371 H1351 0.950 . S
C1371 C1367 1.385 . S
C1371 C1370 1.374 . S
C1372 C1369 1.499 . S
C1372 C1373 1.373 . S
C1372 C1374 1.389 . S
C1373 H1352 0.950 . S
C1373 C1372 1.373 . S
C1373 C1389 1.377 . S
C1374 C1372 1.389 . S
C1374 C1375 1.524 . S
C1374 C1388 1.377 . S
C1375 C1374 1.524 . S
C1375 C1376 1.397 . S
C1375 C1380 1.363 . S
C1376 H1353 0.950 . S
C1376 C1375 1.397 . S
C1376 C1377 1.334 . S
C1377 H1354 0.950 . S
C1377 C1376 1.334 . S
C1377 C1378 1.287 . S
C1378 C1377 1.287 . S
C1378 C1379 1.524 . S
C1378 H1397 0.913 . S
C1379 H1355 0.950 . S
C1379 C1378 1.524 . S
C1379 C1380 1.415 . S
C1380 H1356 0.950 . S
C1380 C1375 1.363 . S
C1380 C1379 1.415 . S
C1381 H1357 0.951 . S
C1381 C1382 1.366 . S
C1381 C1383 1.388 . S
C1382 C1381 1.366 . S
C1382 C1386 1.385 . S
C1383 H1358 0.951 . S
C1383 C1381 1.388 . S
C1383 C1384 1.366 . S
C1384 C1383 1.366 . S
C1384 C1385 1.414 . S
C1384 C1387 1.499 . S
C1385 H1359 0.950 . S
C1385 C1384 1.414 . S
C1385 C1386 1.374 . S
C1386 H1360 0.950 . S
C1386 C1382 1.385 . S
C1386 C1385 1.374 . S
C1387 C1384 1.499 . S
C1387 C1388 1.373 . S
C1387 C1389 1.389 . S
C1388 H1361 0.950 . S
C1388 C1374 1.377 . S
C1388 C1387 1.373 . S
C1389 C1373 1.377 . S
C1389 C1387 1.389 . S
C1389 C1390 1.524 . S
C1390 C1389 1.524 . S
C1390 C1391 1.397 . S
C1390 C1395 1.363 . S
C1391 H1362 0.950 . S
C1391 C1390 1.397 . S
C1391 C1392 1.334 . S
C1392 H1363 0.950 . S
C1392 C1391 1.334 . S
C1392 C1393 1.287 . S
C1393 C1392 1.287 . S
C1393 C1394 1.524 . S
C1393 H1396 0.999 . S
C1394 H1364 0.950 . S
C1394 C1393 1.524 . S
C1394 C1395 1.415 . S
C1395 H1365 0.950 . S
C1395 C1390 1.363 . S
C1395 C1394 1.415 . S
H1396 C1393 0.999 . S
H1397 C1378 0.913 . S
H1398 C1416 0.951 . S
H1399 C1418 0.951 . S
H1400 C1420 0.950 . S
H1401 C1421 0.950 . S
H1402 C1423 0.950 . S
H1403 C1426 0.950 . S
H1404 C1427 0.950 . S
H1405 C1429 0.950 . S
H1406 C1430 0.950 . S
H1407 C1431 0.951 . S
H1408 C1433 0.951 . S
H1409 C1435 0.950 . S
H1410 C1436 0.950 . S
H1411 C1438 0.950 . S
H1412 C1441 0.950 . S
H1413 C1442 0.950 . S
H1414 C1444 0.950 . S
H1415 C1445 0.950 . S
C1416 H1398 0.951 . S
C1416 C1417 1.366 . S
C1416 C1418 1.388 . S
C1417 C1416 1.366 . S
C1417 C1421 1.385 . S
C1418 H1399 0.951 . S
C1418 C1416 1.388 . S
C1418 C1419 1.366 . S
C1419 C1418 1.366 . S
C1419 C1420 1.414 . S
C1419 C1422 1.499 . S
C1420 H1400 0.950 . S
C1420 C1419 1.414 . S
C1420 C1421 1.374 . S
C1421 H1401 0.950 . S
C1421 C1417 1.385 . S
C1421 C1420 1.374 . S
C1422 C1419 1.499 . S
C1422 C1423 1.373 . S
C1422 C1424 1.389 . S
C1423 H1402 0.950 . S
C1423 C1422 1.373 . S
C1423 C1439 1.377 . S
C1424 C1422 1.389 . S
C1424 C1425 1.524 . S
C1424 C1438 1.377 . S
C1425 C1424 1.524 . S
C1425 C1426 1.397 . S
C1425 C1430 1.363 . S
C1426 H1403 0.950 . S
C1426 C1425 1.397 . S
C1426 C1427 1.334 . S
C1427 H1404 0.950 . S
C1427 C1426 1.334 . S
C1427 C1428 1.287 . S
C1428 C1427 1.287 . S
C1428 C1429 1.524 . S
C1428 H1447 0.913 . S
C1429 H1405 0.950 . S
C1429 C1428 1.524 . S
C1429 C1430 1.415 . S
C1430 H1406 0.950 . S
C1430 C1425 1.363 . S
C1430 C1429 1.415 . S
C1431 H1407 0.951 . S
C1431 C1432 1.366 . S
C1431 C1433 1.388 1_455 S
C1432 C1431 1.366 . S
C1432 C1436 1.385 . S
C1433 H1408 0.951 . S
C1433 C1431 1.388 1_655 S
C1433 C1434 1.366 . S
C1434 C1433 1.366 . S
C1434 C1435 1.414 . S
C1434 C1437 1.499 . S
C1435 H1409 0.950 . S
C1435 C1434 1.414 . S
C1435 C1436 1.374 1_655 S
C1436 H1410 0.950 . S
C1436 C1432 1.385 . S
C1436 C1435 1.374 1_455 S
C1437 C1434 1.499 . S
C1437 C1438 1.373 . S
C1437 C1439 1.389 . S
C1438 H1411 0.950 . S
C1438 C1424 1.377 . S
C1438 C1437 1.373 . S
C1439 C1423 1.377 . S
C1439 C1437 1.389 . S
C1439 C1440 1.524 . S
C1440 C1439 1.524 . S
C1440 C1441 1.397 . S
C1440 C1445 1.363 . S
C1441 H1412 0.950 . S
C1441 C1440 1.397 . S
C1441 C1442 1.334 . S
C1442 H1413 0.950 . S
C1442 C1441 1.334 . S
C1442 C1443 1.287 . S
C1443 C1442 1.287 . S
C1443 C1444 1.524 . S
C1443 H1446 0.999 1_655 S
C1444 H1414 0.950 . S
C1444 C1443 1.524 . S
C1444 C1445 1.415 . S
C1445 H1415 0.950 . S
C1445 C1440 1.363 . S
C1445 C1444 1.415 . S
H1446 C1443 0.999 1_455 S
H1447 C1428 0.913 . S
H1448 C1466 0.951 . S
H1449 C1468 0.951 . S
H1450 C1470 0.950 . S
H1451 C1471 0.950 . S
H1452 C1473 0.950 . S
H1453 C1476 0.950 . S
H1454 C1477 0.950 . S
H1455 C1479 0.950 . S
H1456 C1480 0.950 . S
H1457 C1481 0.951 . S
H1458 C1483 0.951 . S
H1459 C1485 0.950 . S
H1460 C1486 0.950 . S
H1461 C1488 0.950 . S
H1462 C1491 0.950 . S
H1463 C1492 0.950 . S
H1464 C1494 0.950 . S
H1465 C1495 0.950 . S
C1466 H1448 0.951 . S
C1466 C1467 1.366 . S
C1466 C1468 1.388 . S
C1467 C1466 1.366 . S
C1467 C1471 1.385 . S
C1468 H1449 0.951 . S
C1468 C1466 1.388 . S
C1468 C1469 1.366 . S
C1469 C1468 1.366 . S
C1469 C1470 1.414 . S
C1469 C1472 1.499 . S
C1470 H1450 0.950 . S
C1470 C1469 1.414 . S
C1470 C1471 1.374 . S
C1471 H1451 0.950 . S
C1471 C1467 1.385 . S
C1471 C1470 1.374 . S
C1472 C1469 1.499 . S
C1472 C1473 1.373 . S
C1472 C1474 1.389 . S
C1473 H1452 0.950 . S
C1473 C1472 1.373 . S
C1473 C1489 1.377 . S
C1474 C1472 1.389 . S
C1474 C1475 1.524 . S
C1474 C1488 1.377 . S
C1475 C1474 1.524 . S
C1475 C1476 1.397 . S
C1475 C1480 1.363 . S
C1476 H1453 0.950 . S
C1476 C1475 1.397 . S
C1476 C1477 1.334 . S
C1477 H1454 0.950 . S
C1477 C1476 1.334 . S
C1477 C1478 1.287 . S
C1478 C1477 1.287 . S
C1478 C1479 1.524 . S
C1478 H1497 0.913 . S
C1479 H1455 0.950 . S
C1479 C1478 1.524 . S
C1479 C1480 1.415 . S
C1480 H1456 0.950 . S
C1480 C1475 1.363 . S
C1480 C1479 1.415 . S
C1481 H1457 0.951 . S
C1481 C1482 1.366 . S
C1481 C1483 1.388 . S
C1482 C1481 1.366 . S
C1482 C1486 1.385 . S
C1483 H1458 0.951 . S
C1483 C1481 1.388 . S
C1483 C1484 1.366 . S
C1484 C1483 1.366 . S
C1484 C1485 1.414 . S
C1484 C1487 1.499 . S
C1485 H1459 0.950 . S
C1485 C1484 1.414 . S
C1485 C1486 1.374 . S
C1486 H1460 0.950 . S
C1486 C1482 1.385 . S
C1486 C1485 1.374 . S
C1487 C1484 1.499 . S
C1487 C1488 1.373 . S
C1487 C1489 1.389 . S
C1488 H1461 0.950 . S
C1488 C1474 1.377 . S
C1488 C1487 1.373 . S
C1489 C1473 1.377 . S
C1489 C1487 1.389 . S
C1489 C1490 1.524 . S
C1490 C1489 1.524 . S
C1490 C1491 1.397 . S
C1490 C1495 1.363 . S
C1491 H1462 0.950 . S
C1491 C1490 1.397 . S
C1491 C1492 1.334 . S
C1492 H1463 0.950 . S
C1492 C1491 1.334 . S
C1492 C1493 1.287 . S
C1493 C1492 1.287 . S
C1493 C1494 1.524 . S
C1493 H1496 0.999 . S
C1494 H1464 0.950 . S
C1494 C1493 1.524 . S
C1494 C1495 1.415 . S
C1495 H1465 0.950 . S
C1495 C1490 1.363 . S
C1495 C1494 1.415 . S
H1496 C1493 0.999 . S
H1497 C1478 0.913 . S
H1498 C1516 0.953 . S
H1499 C1518 0.951 . S
H1500 C1520 0.950 . S
H1501 C1521 0.950 . S
H1502 C1523 0.950 . S
H1503 C1526 0.950 . S
H1504 C1527 0.950 . S
H1505 C1529 0.950 . S
H1506 C1530 0.950 . S
H1507 C1531 0.951 . S
H1508 C1533 0.951 . S
H1509 C1535 0.950 . S
H1510 C1536 0.950 . S
H1511 C1538 0.950 . S
H1512 C1541 0.950 . S
H1513 C1542 0.950 . S
H1514 C1544 0.950 . S
H1515 C1545 0.950 . S
C1516 H1498 0.953 . S
C1516 C1517 1.380 . S
C1516 C1518 1.371 1_655 S
C1517 C1516 1.380 . S
C1517 C1521 1.385 . S
C1518 H1499 0.951 . S
C1518 C1516 1.371 1_455 S
C1518 C1519 1.366 . S
C1519 C1518 1.366 . S
C1519 C1520 1.414 . S
C1519 C1522 1.499 . S
C1520 H1500 0.950 . S
C1520 C1519 1.414 . S
C1520 C1521 1.374 1_455 S
C1521 H1501 0.950 . S
C1521 C1517 1.385 . S
C1521 C1520 1.374 1_655 S
C1522 C1519 1.499 . S
C1522 C1523 1.373 . S
C1522 C1524 1.389 . S
C1523 H1502 0.950 . S
C1523 C1522 1.373 . S
C1523 C1539 1.377 . S
C1524 C1522 1.389 . S
C1524 C1525 1.524 . S
C1524 C1538 1.377 . S
C1525 C1524 1.524 . S
C1525 C1526 1.397 . S
C1525 C1530 1.363 . S
C1526 H1503 0.950 . S
C1526 C1525 1.397 . S
C1526 C1527 1.334 . S
C1527 H1504 0.950 . S
C1527 C1526 1.334 . S
C1527 C1528 1.287 . S
C1528 C1527 1.287 . S
C1528 C1529 1.524 . S
C1528 H1547 0.913 . S
C1529 H1505 0.950 . S
C1529 C1528 1.524 . S
C1529 C1530 1.415 . S
C1530 H1506 0.950 . S
C1530 C1525 1.363 . S
C1530 C1529 1.415 . S
C1531 H1507 0.951 . S
C1531 C1532 1.366 . S
C1531 C1533 1.388 . S
C1532 C1531 1.366 . S
C1532 C1536 1.385 . S
C1533 H1508 0.951 . S
C1533 C1531 1.388 . S
C1533 C1534 1.366 . S
C1534 C1533 1.366 . S
C1534 C1535 1.414 . S
C1534 C1537 1.499 . S
C1535 H1509 0.950 . S
C1535 C1534 1.414 . S
C1535 C1536 1.374 . S
C1536 H1510 0.950 . S
C1536 C1532 1.385 . S
C1536 C1535 1.374 . S
C1537 C1534 1.499 . S
C1537 C1538 1.373 . S
C1537 C1539 1.389 . S
C1538 H1511 0.950 . S
C1538 C1524 1.377 . S
C1538 C1537 1.373 . S
C1539 C1523 1.377 . S
C1539 C1537 1.389 . S
C1539 C1540 1.524 . S
C1540 C1539 1.524 . S
C1540 C1541 1.397 . S
C1540 C1545 1.363 . S
C1541 H1512 0.950 . S
C1541 C1540 1.397 . S
C1541 C1542 1.334 . S
C1542 H1513 0.950 . S
C1542 C1541 1.334 . S
C1542 C1543 1.287 . S
C1543 C1542 1.287 . S
C1543 C1544 1.524 . S
C1543 H1546 0.999 . S
C1544 H1514 0.950 . S
C1544 C1543 1.524 . S
C1544 C1545 1.415 . S
C1545 H1515 0.950 . S
C1545 C1540 1.363 . S
C1545 C1544 1.415 . S
H1546 C1543 0.999 . S
H1547 C1528 0.913 . S
H1548 C1566 0.951 . S
H1549 C1568 0.951 . S
H1550 C1570 0.950 . S
H1551 C1571 0.950 . S
H1552 C1573 0.950 . S
H1553 C1576 0.950 . S
H1554 C1577 0.950 . S
H1555 C1579 0.950 . S
H1556 C1580 0.950 . S
H1557 C1581 0.951 . S
H1558 C1583 0.951 . S
H1559 C1585 0.950 . S
H1560 C1586 0.950 . S
H1561 C1588 0.950 . S
H1562 C1591 0.950 . S
H1563 C1592 0.950 . S
H1564 C1594 0.950 . S
H1565 C1595 0.950 . S
C1566 H1548 0.951 . S
C1566 C1567 1.366 . S
C1566 C1568 1.388 . S
C1567 C1566 1.366 . S
C1567 C1571 1.385 . S
C1568 H1549 0.951 . S
C1568 C1566 1.388 . S
C1568 C1569 1.366 . S
C1569 C1568 1.366 . S
C1569 C1570 1.414 . S
C1569 C1572 1.499 . S
C1570 H1550 0.950 . S
C1570 C1569 1.414 . S
C1570 C1571 1.374 . S
C1571 H1551 0.950 . S
C1571 C1567 1.385 . S
C1571 C1570 1.374 . S
C1572 C1569 1.499 . S
C1572 C1573 1.373 . S
C1572 C1574 1.389 . S
C1573 H1552 0.950 . S
C1573 C1572 1.373 . S
C1573 C1589 1.377 . S
C1574 C1572 1.389 . S
C1574 C1575 1.524 . S
C1574 C1588 1.377 . S
C1575 C1574 1.524 . S
C1575 C1576 1.397 . S
C1575 C1580 1.363 . S
C1576 H1553 0.950 . S
C1576 C1575 1.397 . S
C1576 C1577 1.334 . S
C1577 H1554 0.950 . S
C1577 C1576 1.334 . S
C1577 C1578 1.287 . S
C1578 C1577 1.287 . S
C1578 C1579 1.524 . S
C1578 H1597 0.913 . S
C1579 H1555 0.950 . S
C1579 C1578 1.524 . S
C1579 C1580 1.415 . S
C1580 H1556 0.950 . S
C1580 C1575 1.363 . S
C1580 C1579 1.415 . S
C1581 H1557 0.951 . S
C1581 C1582 1.366 . S
C1581 C1583 1.388 . S
C1582 C1581 1.366 . S
C1582 C1586 1.385 . S
C1583 H1558 0.951 . S
C1583 C1581 1.388 . S
C1583 C1584 1.366 . S
C1584 C1583 1.366 . S
C1584 C1585 1.414 . S
C1584 C1587 1.499 . S
C1585 H1559 0.950 . S
C1585 C1584 1.414 . S
C1585 C1586 1.374 . S
C1586 H1560 0.950 . S
C1586 C1582 1.385 . S
C1586 C1585 1.374 . S
C1587 C1584 1.499 . S
C1587 C1588 1.373 . S
C1587 C1589 1.389 . S
C1588 H1561 0.950 . S
C1588 C1574 1.377 . S
C1588 C1587 1.373 . S
C1589 C1573 1.377 . S
C1589 C1587 1.389 . S
C1589 C1590 1.524 . S
C1590 C1589 1.524 . S
C1590 C1591 1.397 . S
C1590 C1595 1.363 . S
C1591 H1562 0.950 . S
C1591 C1590 1.397 . S
C1591 C1592 1.334 . S
C1592 H1563 0.950 . S
C1592 C1591 1.334 . S
C1592 C1593 1.287 . S
C1593 C1592 1.287 . S
C1593 C1594 1.524 . S
C1593 H1596 0.999 . S
C1594 H1564 0.950 . S
C1594 C1593 1.524 . S
C1594 C1595 1.415 . S
C1595 H1565 0.950 . S
C1595 C1590 1.363 . S
C1595 C1594 1.415 . S
H1596 C1593 0.999 . S
H1597 C1578 0.913 . S
H1598 C1616 0.955 . S
H1599 C1618 0.951 . S
H1600 C1620 0.950 . S
H1601 C1621 0.950 . S
H1602 C1623 0.950 . S
H1603 C1626 0.950 . S
H1604 C1627 0.950 . S
H1605 C1629 0.950 . S
H1606 C1630 0.950 . S
H1607 C1631 0.951 . S
H1608 C1633 0.951 . S
H1609 C1635 0.950 . S
H1610 C1636 0.950 . S
H1611 C1638 0.950 . S
H1612 C1641 0.950 . S
H1613 C1642 0.950 . S
H1614 C1644 0.950 . S
H1615 C1645 0.950 . S
C1616 H1598 0.955 . S
C1616 C1617 1.386 . S
C1616 C1618 1.364 1_655 S
C1617 C1616 1.386 . S
C1617 C1621 1.385 . S
C1618 H1599 0.951 . S
C1618 C1616 1.364 1_455 S
C1618 C1619 1.366 . S
C1619 C1618 1.366 . S
C1619 C1620 1.414 . S
C1619 C1622 1.499 . S
C1620 H1600 0.950 . S
C1620 C1619 1.414 . S
C1620 C1621 1.374 1_455 S
C1621 H1601 0.950 . S
C1621 C1617 1.385 . S
C1621 C1620 1.374 1_655 S
C1622 C1619 1.499 . S
C1622 C1623 1.373 . S
C1622 C1624 1.389 . S
C1623 H1602 0.950 . S
C1623 C1622 1.373 . S
C1623 C1639 1.377 . S
C1624 C1622 1.389 . S
C1624 C1625 1.524 . S
C1624 C1638 1.377 . S
C1625 C1624 1.524 . S
C1625 C1626 1.397 . S
C1625 C1630 1.363 . S
C1626 H1603 0.950 . S
C1626 C1625 1.397 . S
C1626 C1627 1.334 . S
C1627 H1604 0.950 . S
C1627 C1626 1.334 . S
C1627 C1628 1.287 . S
C1628 C1627 1.287 . S
C1628 C1629 1.524 . S
C1628 H1647 0.913 . S
C1629 H1605 0.950 . S
C1629 C1628 1.524 . S
C1629 C1630 1.415 . S
C1630 H1606 0.950 . S
C1630 C1625 1.363 . S
C1630 C1629 1.415 . S
C1631 H1607 0.951 . S
C1631 C1632 1.366 . S
C1631 C1633 1.388 . S
C1632 C1631 1.366 . S
C1632 C1636 1.385 . S
C1633 H1608 0.951 . S
C1633 C1631 1.388 . S
C1633 C1634 1.366 . S
C1634 C1633 1.366 . S
C1634 C1635 1.414 . S
C1634 C1637 1.499 . S
C1635 H1609 0.950 . S
C1635 C1634 1.414 . S
C1635 C1636 1.374 . S
C1636 H1610 0.950 . S
C1636 C1632 1.385 . S
C1636 C1635 1.374 . S
C1637 C1634 1.499 . S
C1637 C1638 1.373 . S
C1637 C1639 1.389 . S
C1638 H1611 0.950 . S
C1638 C1624 1.377 . S
C1638 C1637 1.373 . S
C1639 C1623 1.377 . S
C1639 C1637 1.389 . S
C1639 C1640 1.524 . S
C1640 C1639 1.524 . S
C1640 C1641 1.397 . S
C1640 C1645 1.363 . S
C1641 H1612 0.950 . S
C1641 C1640 1.397 . S
C1641 C1642 1.334 . S
C1642 H1613 0.950 . S
C1642 C1641 1.334 . S
C1642 C1643 1.287 . S
C1643 C1642 1.287 . S
C1643 C1644 1.524 . S
C1643 H1646 0.999 . S
C1644 H1614 0.950 . S
C1644 C1643 1.524 . S
C1644 C1645 1.415 . S
C1645 H1615 0.950 . S
C1645 C1640 1.363 . S
C1645 C1644 1.415 . S
H1646 C1643 0.999 . S
H1647 C1628 0.913 . S
H1648 C1666 0.951 . S
H1649 C1668 0.951 . S
H1650 C1670 0.950 . S
H1651 C1671 0.950 . S
H1652 C1673 0.950 . S
H1653 C1676 0.950 . S
H1654 C1677 0.950 . S
H1655 C1679 0.950 . S
H1656 C1680 0.950 . S
H1657 C1681 0.951 . S
H1658 C1683 0.951 . S
H1659 C1685 0.950 . S
H1660 C1686 0.950 . S
H1661 C1688 0.950 . S
H1662 C1691 0.950 . S
H1663 C1692 0.950 . S
H1664 C1694 0.950 . S
H1665 C1695 0.950 . S
C1666 H1648 0.951 . S
C1666 C1667 1.366 . S
C1666 C1668 1.388 . S
C1667 C1666 1.366 . S
C1667 C1671 1.385 . S
C1668 H1649 0.951 . S
C1668 C1666 1.388 . S
C1668 C1669 1.366 . S
C1669 C1668 1.366 . S
C1669 C1670 1.414 . S
C1669 C1672 1.499 . S
C1670 H1650 0.950 . S
C1670 C1669 1.414 . S
C1670 C1671 1.374 . S
C1671 H1651 0.950 . S
C1671 C1667 1.385 . S
C1671 C1670 1.374 . S
C1672 C1669 1.499 . S
C1672 C1673 1.373 . S
C1672 C1674 1.389 . S
C1673 H1652 0.950 . S
C1673 C1672 1.373 . S
C1673 C1689 1.377 . S
C1674 C1672 1.389 . S
C1674 C1675 1.524 . S
C1674 C1688 1.377 . S
C1675 C1674 1.524 . S
C1675 C1676 1.397 . S
C1675 C1680 1.363 . S
C1676 H1653 0.950 . S
C1676 C1675 1.397 . S
C1676 C1677 1.334 . S
C1677 H1654 0.950 . S
C1677 C1676 1.334 . S
C1677 C1678 1.287 . S
C1678 C1677 1.287 . S
C1678 C1679 1.524 . S
C1678 H1697 0.913 . S
C1679 H1655 0.950 . S
C1679 C1678 1.524 . S
C1679 C1680 1.415 . S
C1680 H1656 0.950 . S
C1680 C1675 1.363 . S
C1680 C1679 1.415 . S
C1681 H1657 0.951 . S
C1681 C1682 1.366 . S
C1681 C1683 1.388 . S
C1682 C1681 1.366 . S
C1682 C1686 1.385 . S
C1683 H1658 0.951 . S
C1683 C1681 1.388 . S
C1683 C1684 1.366 . S
C1684 C1683 1.366 . S
C1684 C1685 1.414 . S
C1684 C1687 1.499 . S
C1685 H1659 0.950 . S
C1685 C1684 1.414 . S
C1685 C1686 1.374 . S
C1686 H1660 0.950 . S
C1686 C1682 1.385 . S
C1686 C1685 1.374 . S
C1687 C1684 1.499 . S
C1687 C1688 1.373 . S
C1687 C1689 1.389 . S
C1688 H1661 0.950 . S
C1688 C1674 1.377 . S
C1688 C1687 1.373 . S
C1689 C1673 1.377 . S
C1689 C1687 1.389 . S
C1689 C1690 1.524 . S
C1690 C1689 1.524 . S
C1690 C1691 1.397 . S
C1690 C1695 1.363 . S
C1691 H1662 0.950 . S
C1691 C1690 1.397 . S
C1691 C1692 1.334 . S
C1692 H1663 0.950 . S
C1692 C1691 1.334 . S
C1692 C1693 1.287 . S
C1693 C1692 1.287 . S
C1693 C1694 1.524 . S
C1693 H1696 0.999 . S
C1694 H1664 0.950 . S
C1694 C1693 1.524 . S
C1694 C1695 1.415 . S
C1695 H1665 0.950 . S
C1695 C1690 1.363 . S
C1695 C1694 1.415 . S
H1696 C1693 0.999 . S
H1697 C1678 0.913 . S
H1698 C1716 0.951 . S
H1699 C1718 0.951 . S
H1700 C1720 0.950 . S
H1701 C1721 0.950 . S
H1702 C1723 0.950 . S
H1703 C1726 0.950 . S
H1704 C1727 0.950 . S
H1705 C1729 0.950 . S
H1706 C1730 0.950 . S
H1707 C1731 0.951 . S
H1708 C1733 0.951 . S
H1709 C1735 0.950 . S
H1710 C1736 0.950 . S
H1711 C1738 0.950 . S
H1712 C1741 0.950 . S
H1713 C1742 0.950 . S
H1714 C1744 0.950 . S
H1715 C1745 0.950 . S
C1716 H1698 0.951 . S
C1716 C1717 1.366 . S
C1716 C1718 1.388 . S
C1717 C1716 1.366 . S
C1717 C1721 1.385 . S
C1718 H1699 0.951 . S
C1718 C1716 1.388 . S
C1718 C1719 1.366 . S
C1719 C1718 1.366 . S
C1719 C1720 1.414 . S
C1719 C1722 1.499 . S
C1720 H1700 0.950 . S
C1720 C1719 1.414 . S
C1720 C1721 1.374 . S
C1721 H1701 0.950 . S
C1721 C1717 1.385 . S
C1721 C1720 1.374 . S
C1722 C1719 1.499 . S
C1722 C1723 1.373 . S
C1722 C1724 1.389 . S
C1723 H1702 0.950 . S
C1723 C1722 1.373 . S
C1723 C1739 1.377 . S
C1724 C1722 1.389 . S
C1724 C1725 1.524 . S
C1724 C1738 1.377 . S
C1725 C1724 1.524 . S
C1725 C1726 1.397 . S
C1725 C1730 1.363 . S
C1726 H1703 0.950 . S
C1726 C1725 1.397 . S
C1726 C1727 1.334 . S
C1727 H1704 0.950 . S
C1727 C1726 1.334 . S
C1727 C1728 1.287 . S
C1728 C1727 1.287 . S
C1728 C1729 1.524 . S
C1728 H1747 0.913 . S
C1729 H1705 0.950 . S
C1729 C1728 1.524 . S
C1729 C1730 1.415 . S
C1730 H1706 0.950 . S
C1730 C1725 1.363 . S
C1730 C1729 1.415 . S
C1731 H1707 0.951 . S
C1731 C1732 1.366 . S
C1731 C1733 1.388 1_455 S
C1732 C1731 1.366 . S
C1732 C1736 1.385 . S
C1733 H1708 0.951 . S
C1733 C1731 1.388 1_655 S
C1733 C1734 1.366 . S
C1734 C1733 1.366 . S
C1734 C1735 1.414 . S
C1734 C1737 1.499 . S
C1735 H1709 0.950 . S
C1735 C1734 1.414 . S
C1735 C1736 1.374 1_655 S
C1736 H1710 0.950 . S
C1736 C1732 1.385 . S
C1736 C1735 1.374 1_455 S
C1737 C1734 1.499 . S
C1737 C1738 1.373 . S
C1737 C1739 1.389 . S
C1738 H1711 0.950 . S
C1738 C1724 1.377 . S
C1738 C1737 1.373 . S
C1739 C1723 1.377 . S
C1739 C1737 1.389 . S
C1739 C1740 1.524 . S
C1740 C1739 1.524 . S
C1740 C1741 1.397 . S
C1740 C1745 1.363 . S
C1741 H1712 0.950 . S
C1741 C1740 1.397 . S
C1741 C1742 1.334 . S
C1742 H1713 0.950 . S
C1742 C1741 1.334 . S
C1742 C1743 1.287 . S
C1743 C1742 1.287 . S
C1743 C1744 1.524 . S
C1743 H1746 0.999 . S
C1744 H1714 0.950 . S
C1744 C1743 1.524 . S
C1744 C1745 1.415 . S
C1745 H1715 0.950 . S
C1745 C1740 1.363 . S
C1745 C1744 1.415 . S
H1746 C1743 0.999 . S
H1747 C1728 0.913 . S
H1748 C1766 0.951 . S
H1749 C1768 0.951 . S
H1750 C1770 0.950 . S
H1751 C1771 0.950 . S
H1752 C1773 0.950 . S
H1753 C1776 0.950 . S
H1754 C1777 0.950 . S
H1755 C1779 0.950 . S
H1756 C1780 0.950 . S
H1757 C1781 0.951 . S
H1758 C1783 0.951 . S
H1759 C1785 0.950 . S
H1760 C1786 0.950 . S
H1761 C1788 0.950 . S
H1762 C1791 0.950 . S
H1763 C1792 0.950 . S
H1764 C1794 0.950 . S
H1765 C1795 0.950 . S
C1766 H1748 0.951 . S
C1766 C1767 1.366 . S
C1766 C1768 1.388 . S
C1767 C1766 1.366 . S
C1767 C1771 1.385 . S
C1768 H1749 0.951 . S
C1768 C1766 1.388 . S
C1768 C1769 1.366 . S
C1769 C1768 1.366 . S
C1769 C1770 1.414 . S
C1769 C1772 1.499 . S
C1770 H1750 0.950 . S
C1770 C1769 1.414 . S
C1770 C1771 1.374 . S
C1771 H1751 0.950 . S
C1771 C1767 1.385 . S
C1771 C1770 1.374 . S
C1772 C1769 1.499 . S
C1772 C1773 1.373 . S
C1772 C1774 1.389 . S
C1773 H1752 0.950 . S
C1773 C1772 1.373 . S
C1773 C1789 1.377 . S
C1774 C1772 1.389 . S
C1774 C1775 1.524 . S
C1774 C1788 1.377 . S
C1775 C1774 1.524 . S
C1775 C1776 1.397 . S
C1775 C1780 1.363 . S
C1776 H1753 0.950 . S
C1776 C1775 1.397 . S
C1776 C1777 1.334 . S
C1777 H1754 0.950 . S
C1777 C1776 1.334 . S
C1777 C1778 1.287 . S
C1778 C1777 1.287 . S
C1778 C1779 1.524 . S
C1778 H1797 0.913 . S
C1779 H1755 0.950 . S
C1779 C1778 1.524 . S
C1779 C1780 1.415 . S
C1780 H1756 0.950 . S
C1780 C1775 1.363 . S
C1780 C1779 1.415 . S
C1781 H1757 0.951 . S
C1781 C1782 1.366 . S
C1781 C1783 1.388 . S
C1782 C1781 1.366 . S
C1782 C1786 1.385 . S
C1783 H1758 0.951 . S
C1783 C1781 1.388 . S
C1783 C1784 1.366 . S
C1784 C1783 1.366 . S
C1784 C1785 1.414 . S
C1784 C1787 1.499 . S
C1785 H1759 0.950 . S
C1785 C1784 1.414 . S
C1785 C1786 1.374 . S
C1786 H1760 0.950 . S
C1786 C1782 1.385 . S
C1786 C1785 1.374 . S
C1787 C1784 1.499 . S
C1787 C1788 1.373 . S
C1787 C1789 1.389 . S
C1788 H1761 0.950 . S
C1788 C1774 1.377 . S
C1788 C1787 1.373 . S
C1789 C1773 1.377 . S
C1789 C1787 1.389 . S
C1789 C1790 1.524 . S
C1790 C1789 1.524 . S
C1790 C1791 1.397 . S
C1790 C1795 1.363 . S
C1791 H1762 0.950 . S
C1791 C1790 1.397 . S
C1791 C1792 1.334 . S
C1792 H1763 0.950 . S
C1792 C1791 1.334 . S
C1792 C1793 1.287 . S
C1793 C1792 1.287 . S
C1793 C1794 1.524 . S
C1793 H1796 0.999 . S
C1794 H1764 0.950 . S
C1794 C1793 1.524 . S
C1794 C1795 1.415 . S
C1795 H1765 0.950 . S
C1795 C1790 1.363 . S
C1795 C1794 1.415 . S
H1796 C1793 0.999 . S
H1797 C1778 0.913 . S
H1798 C1816 0.951 . S
H1799 C1818 0.951 . S
H1800 C1820 0.950 . S
H1801 C1821 0.950 . S
H1802 C1823 0.950 . S
H1803 C1826 0.950 . S
H1804 C1827 0.950 . S
H1805 C1829 0.950 . S
H1806 C1830 0.950 . S
H1807 C1831 0.954 . S
H1808 C1833 0.951 . S
H1809 C1835 0.950 . S
H1810 C1836 0.950 . S
H1811 C1838 0.950 . S
H1812 C1841 0.950 . S
H1813 C1842 0.950 . S
H1814 C1844 0.950 . S
H1815 C1845 0.950 . S
C1816 H1798 0.951 . S
C1816 C1817 1.366 . S
C1816 C1818 1.388 . S
C1817 C1816 1.366 . S
C1817 C1821 1.385 . S
C1818 H1799 0.951 . S
C1818 C1816 1.388 . S
C1818 C1819 1.366 . S
C1819 C1818 1.366 . S
C1819 C1820 1.414 . S
C1819 C1822 1.499 . S
C1820 H1800 0.950 . S
C1820 C1819 1.414 . S
C1820 C1821 1.374 . S
C1821 H1801 0.950 . S
C1821 C1817 1.385 . S
C1821 C1820 1.374 . S
C1822 C1819 1.499 . S
C1822 C1823 1.373 . S
C1822 C1824 1.389 . S
C1823 H1802 0.950 . S
C1823 C1822 1.373 . S
C1823 C1839 1.377 . S
C1824 C1822 1.389 . S
C1824 C1825 1.524 . S
C1824 C1838 1.377 . S
C1825 C1824 1.524 . S
C1825 C1826 1.397 . S
C1825 C1830 1.363 . S
C1826 H1803 0.950 . S
C1826 C1825 1.397 . S
C1826 C1827 1.334 . S
C1827 H1804 0.950 . S
C1827 C1826 1.334 . S
C1827 C1828 1.287 . S
C1828 C1827 1.287 . S
C1828 C1829 1.524 . S
C1828 H1847 0.913 . S
C1829 H1805 0.950 . S
C1829 C1828 1.524 . S
C1829 C1830 1.415 . S
C1830 H1806 0.950 . S
C1830 C1825 1.363 . S
C1830 C1829 1.415 . S
C1831 H1807 0.954 . S
C1831 C1832 1.383 . S
C1831 C1833 1.367 1_455 S
C1832 C1831 1.383 . S
C1832 C1836 1.385 . S
C1833 H1808 0.951 . S
C1833 C1831 1.367 1_655 S
C1833 C1834 1.366 . S
C1834 C1833 1.366 . S
C1834 C1835 1.414 . S
C1834 C1837 1.499 . S
C1835 H1809 0.950 . S
C1835 C1834 1.414 . S
C1835 C1836 1.374 1_655 S
C1836 H1810 0.950 . S
C1836 C1832 1.385 . S
C1836 C1835 1.374 1_455 S
C1837 C1834 1.499 . S
C1837 C1838 1.373 . S
C1837 C1839 1.389 . S
C1838 H1811 0.950 . S
C1838 C1824 1.377 . S
C1838 C1837 1.373 . S
C1839 C1823 1.377 . S
C1839 C1837 1.389 . S
C1839 C1840 1.524 . S
C1840 C1839 1.524 . S
C1840 C1841 1.397 . S
C1840 C1845 1.363 . S
C1841 H1812 0.950 . S
C1841 C1840 1.397 . S
C1841 C1842 1.334 . S
C1842 H1813 0.950 . S
C1842 C1841 1.334 . S
C1842 C1843 1.287 . S
C1843 C1842 1.287 . S
C1843 C1844 1.524 . S
C1843 H1846 0.999 . S
C1844 H1814 0.950 . S
C1844 C1843 1.524 . S
C1844 C1845 1.415 . S
C1845 H1815 0.950 . S
C1845 C1840 1.363 . S
C1845 C1844 1.415 . S
H1846 C1843 0.999 . S
H1847 C1828 0.913 . S
H1848 C1866 0.951 . S
H1849 C1868 0.951 . S
H1850 C1870 0.950 . S
H1851 C1871 0.950 . S
H1852 C1873 0.950 . S
H1853 C1876 0.950 . S
H1854 C1877 0.950 . S
H1855 C1879 0.950 . S
H1856 C1880 0.950 . S
H1857 C1881 0.951 . S
H1858 C1883 0.951 . S
H1859 C1885 0.950 . S
H1860 C1886 0.950 . S
H1861 C1888 0.950 . S
H1862 C1891 0.950 . S
H1863 C1892 0.950 . S
H1864 C1894 0.950 . S
H1865 C1895 0.950 . S
C1866 H1848 0.951 . S
C1866 C1867 1.366 . S
C1866 C1868 1.388 . S
C1867 C1866 1.366 . S
C1867 C1871 1.385 . S
C1868 H1849 0.951 . S
C1868 C1866 1.388 . S
C1868 C1869 1.366 . S
C1869 C1868 1.366 . S
C1869 C1870 1.414 . S
C1869 C1872 1.499 . S
C1870 H1850 0.950 . S
C1870 C1869 1.414 . S
C1870 C1871 1.374 . S
C1871 H1851 0.950 . S
C1871 C1867 1.385 . S
C1871 C1870 1.374 . S
C1872 C1869 1.499 . S
C1872 C1873 1.373 . S
C1872 C1874 1.389 . S
C1873 H1852 0.950 . S
C1873 C1872 1.373 . S
C1873 C1889 1.377 . S
C1874 C1872 1.389 . S
C1874 C1875 1.524 . S
C1874 C1888 1.377 . S
C1875 C1874 1.524 . S
C1875 C1876 1.397 . S
C1875 C1880 1.363 . S
C1876 H1853 0.950 . S
C1876 C1875 1.397 . S
C1876 C1877 1.334 . S
C1877 H1854 0.950 . S
C1877 C1876 1.334 . S
C1877 C1878 1.287 . S
C1878 C1877 1.287 . S
C1878 C1879 1.524 . S
C1878 H1897 0.913 . S
C1879 H1855 0.950 . S
C1879 C1878 1.524 . S
C1879 C1880 1.415 . S
C1880 H1856 0.950 . S
C1880 C1875 1.363 . S
C1880 C1879 1.415 . S
C1881 H1857 0.951 . S
C1881 C1882 1.366 . S
C1881 C1883 1.388 . S
C1882 C1881 1.366 . S
C1882 C1886 1.385 . S
C1883 H1858 0.951 . S
C1883 C1881 1.388 . S
C1883 C1884 1.366 . S
C1884 C1883 1.366 . S
C1884 C1885 1.414 . S
C1884 C1887 1.499 . S
C1885 H1859 0.950 . S
C1885 C1884 1.414 . S
C1885 C1886 1.374 . S
C1886 H1860 0.950 . S
C1886 C1882 1.385 . S
C1886 C1885 1.374 . S
C1887 C1884 1.499 . S
C1887 C1888 1.373 . S
C1887 C1889 1.389 . S
C1888 H1861 0.950 . S
C1888 C1874 1.377 . S
C1888 C1887 1.373 . S
C1889 C1873 1.377 . S
C1889 C1887 1.389 . S
C1889 C1890 1.524 . S
C1890 C1889 1.524 . S
C1890 C1891 1.397 . S
C1890 C1895 1.363 . S
C1891 H1862 0.950 . S
C1891 C1890 1.397 . S
C1891 C1892 1.334 . S
C1892 H1863 0.950 . S
C1892 C1891 1.334 . S
C1892 C1893 1.287 . S
C1893 C1892 1.287 . S
C1893 C1894 1.524 . S
C1893 H1896 0.999 . S
C1894 H1864 0.950 . S
C1894 C1893 1.524 . S
C1894 C1895 1.415 . S
C1895 H1865 0.950 . S
C1895 C1890 1.363 . S
C1895 C1894 1.415 . S
H1896 C1893 0.999 . S
H1897 C1878 0.913 . S
H1898 C1916 0.951 . S
H1899 C1918 0.951 . S
H1900 C1920 0.950 . S
H1901 C1921 0.950 . S
H1902 C1923 0.950 . S
H1903 C1926 0.950 . S
H1904 C1927 0.950 . S
H1905 C1929 0.950 . S
H1906 C1930 0.950 . S
H1907 C1931 0.951 . S
H1908 C1933 0.951 . S
H1909 C1935 0.950 . S
H1910 C1936 0.953 . S
H1911 C1938 0.950 . S
H1912 C1941 0.950 . S
H1913 C1942 0.950 . S
H1914 C1944 0.950 . S
H1915 C1945 0.950 . S
C1916 H1898 0.951 . S
C1916 C1917 1.366 . S
C1916 C1918 1.388 . S
C1917 C1916 1.366 . S
C1917 C1921 1.385 . S
C1918 H1899 0.951 . S
C1918 C1916 1.388 . S
C1918 C1919 1.366 . S
C1919 C1918 1.366 . S
C1919 C1920 1.414 . S
C1919 C1922 1.499 . S
C1920 H1900 0.950 . S
C1920 C1919 1.414 . S
C1920 C1921 1.374 . S
C1921 H1901 0.950 . S
C1921 C1917 1.385 . S
C1921 C1920 1.374 . S
C1922 C1919 1.499 . S
C1922 C1923 1.373 . S
C1922 C1924 1.389 . S
C1923 H1902 0.950 . S
C1923 C1922 1.373 . S
C1923 C1939 1.377 . S
C1924 C1922 1.389 . S
C1924 C1925 1.524 . S
C1924 C1938 1.377 . S
C1925 C1924 1.524 . S
C1925 C1926 1.397 . S
C1925 C1930 1.363 . S
C1926 H1903 0.950 . S
C1926 C1925 1.397 . S
C1926 C1927 1.334 . S
C1927 H1904 0.950 . S
C1927 C1926 1.334 . S
C1927 C1928 1.287 . S
C1928 C1927 1.287 . S
C1928 C1929 1.524 . S
C1928 H1947 0.913 . S
C1929 H1905 0.950 . S
C1929 C1928 1.524 . S
C1929 C1930 1.415 . S
C1930 H1906 0.950 . S
C1930 C1925 1.363 . S
C1930 C1929 1.415 . S
C1931 H1907 0.951 . S
C1931 C1932 1.366 . S
C1931 C1933 1.388 1_655 S
C1932 C1931 1.366 . S
C1932 C1936 1.400 . S
C1933 H1908 0.951 . S
C1933 C1931 1.388 1_455 S
C1933 C1934 1.366 . S
C1934 C1933 1.366 . S
C1934 C1935 1.414 . S
C1934 C1937 1.499 . S
C1935 H1909 0.950 . S
C1935 C1934 1.414 . S
C1935 C1936 1.355 1_455 S
C1936 H1910 0.953 . S
C1936 C1932 1.400 . S
C1936 C1935 1.355 1_655 S
C1937 C1934 1.499 . S
C1937 C1938 1.373 . S
C1937 C1939 1.389 . S
C1938 H1911 0.950 . S
C1938 C1924 1.377 . S
C1938 C1937 1.373 . S
C1939 C1923 1.377 . S
C1939 C1937 1.389 . S
C1939 C1940 1.524 . S
C1940 C1939 1.524 . S
C1940 C1941 1.397 . S
C1940 C1945 1.363 . S
C1941 H1912 0.950 . S
C1941 C1940 1.397 . S
C1941 C1942 1.334 . S
C1942 H1913 0.950 . S
C1942 C1941 1.334 . S
C1942 C1943 1.287 . S
C1943 C1942 1.287 . S
C1943 C1944 1.524 . S
C1943 H1946 0.999 . S
C1944 H1914 0.950 . S
C1944 C1943 1.524 . S
C1944 C1945 1.415 . S
C1945 H1915 0.950 . S
C1945 C1940 1.363 . S
C1945 C1944 1.415 . S
H1946 C1943 0.999 . S
H1947 C1928 0.913 . S
H1948 C1966 0.951 . S
H1949 C1968 0.951 . S
H1950 C1970 0.950 . S
H1951 C1971 0.950 . S
H1952 C1973 0.950 . S
H1953 C1976 0.950 . S
H1954 C1977 0.950 . S
H1955 C1979 0.950 . S
H1956 C1980 0.950 . S
H1957 C1981 0.951 . S
H1958 C1983 0.951 . S
H1959 C1985 0.950 . S
H1960 C1986 0.950 . S
H1961 C1988 0.950 . S
H1962 C1991 0.950 . S
H1963 C1992 0.950 . S
H1964 C1994 0.950 . S
H1965 C1995 0.950 . S
C1966 H1948 0.951 . S
C1966 C1967 1.366 . S
C1966 C1968 1.388 . S
C1967 C1966 1.366 . S
C1967 C1971 1.385 . S
C1968 H1949 0.951 . S
C1968 C1966 1.388 . S
C1968 C1969 1.366 . S
C1969 C1968 1.366 . S
C1969 C1970 1.414 . S
C1969 C1972 1.499 . S
C1970 H1950 0.950 . S
C1970 C1969 1.414 . S
C1970 C1971 1.374 . S
C1971 H1951 0.950 . S
C1971 C1967 1.385 . S
C1971 C1970 1.374 . S
C1972 C1969 1.499 . S
C1972 C1973 1.373 . S
C1972 C1974 1.389 . S
C1973 H1952 0.950 . S
C1973 C1972 1.373 . S
C1973 C1989 1.377 . S
C1974 C1972 1.389 . S
C1974 C1975 1.524 . S
C1974 C1988 1.377 . S
C1975 C1974 1.524 . S
C1975 C1976 1.397 . S
C1975 C1980 1.363 . S
C1976 H1953 0.950 . S
C1976 C1975 1.397 . S
C1976 C1977 1.334 . S
C1977 H1954 0.950 . S
C1977 C1976 1.334 . S
C1977 C1978 1.287 . S
C1978 C1977 1.287 . S
C1978 C1979 1.524 . S
C1978 H1997 0.913 . S
C1979 H1955 0.950 . S
C1979 C1978 1.524 . S
C1979 C1980 1.415 . S
C1980 H1956 0.950 . S
C1980 C1975 1.363 . S
C1980 C1979 1.415 . S
C1981 H1957 0.951 . S
C1981 C1982 1.366 . S
C1981 C1983 1.388 . S
C1982 C1981 1.366 . S
C1982 C1986 1.385 . S
C1983 H1958 0.951 . S
C1983 C1981 1.388 . S
C1983 C1984 1.366 . S
C1984 C1983 1.366 . S
C1984 C1985 1.414 . S
C1984 C1987 1.499 . S
C1985 H1959 0.950 . S
C1985 C1984 1.414 . S
C1985 C1986 1.374 . S
C1986 H1960 0.950 . S
C1986 C1982 1.385 . S
C1986 C1985 1.374 . S
C1987 C1984 1.499 . S
C1987 C1988 1.373 . S
C1987 C1989 1.389 . S
C1988 H1961 0.950 . S
C1988 C1974 1.377 . S
C1988 C1987 1.373 . S
C1989 C1973 1.377 . S
C1989 C1987 1.389 . S
C1989 C1990 1.524 . S
C1990 C1989 1.524 . S
C1990 C1991 1.397 . S
C1990 C1995 1.363 . S
C1991 H1962 0.950 . S
C1991 C1990 1.397 . S
C1991 C1992 1.334 . S
C1992 H1963 0.950 . S
C1992 C1991 1.334 . S
C1992 C1993 1.287 . S
C1993 C1992 1.287 . S
C1993 C1994 1.524 . S
C1993 H1996 0.999 . S
C1994 H1964 0.950 . S
C1994 C1993 1.524 . S
C1994 C1995 1.415 . S
C1995 H1965 0.950 . S
C1995 C1990 1.363 . S
C1995 C1994 1.415 . S
H1996 C1993 0.999 . S
H1997 C1978 0.913 . S
H1998 C2016 0.953 . S
H1999 C2018 0.951 . S
H2000 C2020 0.950 . S
H2001 C2021 0.950 . S
H2002 C2023 0.950 . S
H2003 C2026 0.950 . S
H2004 C2027 0.950 . S
H2005 C2029 0.950 . S
H2006 C2030 0.950 . S
H2007 C2031 0.951 . S
H2008 C2033 0.951 . S
H2009 C2035 0.950 . S
H2010 C2036 0.950 . S
H2011 C2038 0.950 . S
H2012 C2041 0.950 . S
H2013 C2042 0.950 . S
H2014 C2044 0.950 . S
H2015 C2045 0.950 . S
C2016 H1998 0.953 . S
C2016 C2017 1.378 . S
C2016 C2018 1.373 1_655 S
C2017 C2016 1.378 . S
C2017 C2021 1.385 . S
C2018 H1999 0.951 . S
C2018 C2016 1.373 1_455 S
C2018 C2019 1.366 . S
C2019 C2018 1.366 . S
C2019 C2020 1.414 . S
C2019 C2022 1.499 . S
C2020 H2000 0.950 . S
C2020 C2019 1.414 . S
C2020 C2021 1.374 1_455 S
C2021 H2001 0.950 . S
C2021 C2017 1.385 . S
C2021 C2020 1.374 1_655 S
C2022 C2019 1.499 . S
C2022 C2023 1.373 . S
C2022 C2024 1.389 . S
C2023 H2002 0.950 . S
C2023 C2022 1.373 . S
C2023 C2039 1.377 . S
C2024 C2022 1.389 . S
C2024 C2025 1.524 . S
C2024 C2038 1.377 . S
C2025 C2024 1.524 . S
C2025 C2026 1.397 . S
C2025 C2030 1.363 . S
C2026 H2003 0.950 . S
C2026 C2025 1.397 . S
C2026 C2027 1.334 . S
C2027 H2004 0.950 . S
C2027 C2026 1.334 . S
C2027 C2028 1.287 . S
C2028 C2027 1.287 . S
C2028 C2029 1.524 . S
C2028 H2047 0.913 . S
C2029 H2005 0.950 . S
C2029 C2028 1.524 . S
C2029 C2030 1.415 . S
C2030 H2006 0.950 . S
C2030 C2025 1.363 . S
C2030 C2029 1.415 . S
C2031 H2007 0.951 . S
C2031 C2032 1.366 . S
C2031 C2033 1.388 . S
C2032 C2031 1.366 . S
C2032 C2036 1.385 . S
C2033 H2008 0.951 . S
C2033 C2031 1.388 . S
C2033 C2034 1.366 . S
C2034 C2033 1.366 . S
C2034 C2035 1.414 . S
C2034 C2037 1.499 . S
C2035 H2009 0.950 . S
C2035 C2034 1.414 . S
C2035 C2036 1.374 . S
C2036 H2010 0.950 . S
C2036 C2032 1.385 . S
C2036 C2035 1.374 . S
C2037 C2034 1.499 . S
C2037 C2038 1.373 . S
C2037 C2039 1.389 . S
C2038 H2011 0.950 . S
C2038 C2024 1.377 . S
C2038 C2037 1.373 . S
C2039 C2023 1.377 . S
C2039 C2037 1.389 . S
C2039 C2040 1.524 . S
C2040 C2039 1.524 . S
C2040 C2041 1.397 . S
C2040 C2045 1.363 . S
C2041 H2012 0.950 . S
C2041 C2040 1.397 . S
C2041 C2042 1.334 . S
C2042 H2013 0.950 . S
C2042 C2041 1.334 . S
C2042 C2043 1.287 . S
C2043 C2042 1.287 . S
C2043 C2044 1.524 . S
C2043 H2046 0.999 . S
C2044 H2014 0.950 . S
C2044 C2043 1.524 . S
C2044 C2045 1.415 . S
C2045 H2015 0.950 . S
C2045 C2040 1.363 . S
C2045 C2044 1.415 . S
H2046 C2043 0.999 . S
H2047 C2028 0.913 . S
H2048 C2066 0.951 . S
H2049 C2068 0.951 . S
H2050 C2070 0.950 1_455 S
H2051 C2071 0.950 . S
H2052 C2073 0.950 . S
H2053 C2076 0.950 . S
H2054 C2077 0.950 . S
H2055 C2079 0.950 . S
H2056 C2080 0.950 . S
H2057 C2081 0.951 . S
H2058 C2083 0.951 . S
H2059 C2085 0.950 1_655 S
H2060 C2086 0.950 . S
H2061 C2088 0.950 . S
H2062 C2091 0.950 . S
H2063 C2092 0.950 . S
H2064 C2094 0.950 . S
H2065 C2095 0.950 . S
C2066 H2048 0.951 . S
C2066 C2067 1.366 . S
C2066 C2068 1.388 . S
C2067 C2066 1.366 . S
C2067 C2071 1.385 . S
C2068 H2049 0.951 . S
C2068 C2066 1.388 . S
C2068 C2069 1.366 . S
C2069 C2068 1.366 . S
C2069 C2070 1.414 . S
C2069 C2072 1.499 . S
C2070 H2050 0.950 1_655 S
C2070 C2069 1.414 . S
C2070 C2071 1.374 . S
C2071 H2051 0.950 . S
C2071 C2067 1.385 . S
C2071 C2070 1.374 . S
C2072 C2069 1.499 . S
C2072 C2073 1.373 1_655 S
C2072 C2074 1.389 . S
C2073 H2052 0.950 . S
C2073 C2072 1.373 1_455 S
C2073 C2089 1.377 . S
C2074 C2072 1.389 . S
C2074 C2075 1.524 . S
C2074 C2088 1.377 . S
C2075 C2074 1.524 . S
C2075 C2076 1.397 . S
C2075 C2080 1.363 . S
C2076 H2053 0.950 . S
C2076 C2075 1.397 . S
C2076 C2077 1.334 . S
C2077 H2054 0.950 . S
C2077 C2076 1.334 . S
C2077 C2078 1.287 . S
C2078 C2077 1.287 . S
C2078 C2079 1.524 . S
C2078 H2097 0.913 . S
C2079 H2055 0.950 . S
C2079 C2078 1.524 . S
C2079 C2080 1.415 . S
C2080 H2056 0.950 . S
C2080 C2075 1.363 . S
C2080 C2079 1.415 . S
C2081 H2057 0.951 . S
C2081 C2082 1.366 . S
C2081 C2083 1.388 . S
C2082 C2081 1.366 . S
C2082 C2086 1.385 . S
C2083 H2058 0.951 . S
C2083 C2081 1.388 . S
C2083 C2084 1.366 . S
C2084 C2083 1.366 . S
C2084 C2085 1.414 . S
C2084 C2087 1.499 . S
C2085 H2059 0.950 1_455 S
C2085 C2084 1.414 . S
C2085 C2086 1.374 . S
C2086 H2060 0.950 . S
C2086 C2082 1.385 . S
C2086 C2085 1.374 . S
C2087 C2084 1.499 . S
C2087 C2088 1.373 1_455 S
C2087 C2089 1.389 . S
C2088 H2061 0.950 . S
C2088 C2074 1.377 . S
C2088 C2087 1.373 1_655 S
C2089 C2073 1.377 . S
C2089 C2087 1.389 . S
C2089 C2090 1.524 . S
C2090 C2089 1.524 . S
C2090 C2091 1.397 . S
C2090 C2095 1.363 . S
C2091 H2062 0.950 . S
C2091 C2090 1.397 . S
C2091 C2092 1.334 . S
C2092 H2063 0.950 . S
C2092 C2091 1.334 . S
C2092 C2093 1.287 . S
C2093 C2092 1.287 . S
C2093 C2094 1.524 . S
C2093 H2096 0.999 . S
C2094 H2064 0.950 . S
C2094 C2093 1.524 . S
C2094 C2095 1.415 . S
C2095 H2065 0.950 . S
C2095 C2090 1.363 . S
C2095 C2094 1.415 . S
H2096 C2093 0.999 . S
H2097 C2078 0.913 . S
H2098 C2116 0.951 . S
H2099 C2118 0.951 . S
H2100 C2120 0.950 . S
H2101 C2121 0.950 . S
H2102 C2123 0.950 . S
H2103 C2126 0.950 . S
H2104 C2127 0.950 . S
H2105 C2129 0.950 . S
H2106 C2130 0.950 . S
H2107 C2131 0.951 . S
H2108 C2133 0.951 . S
H2109 C2135 0.950 . S
H2110 C2136 0.950 . S
H2111 C2138 0.950 . S
H2112 C2141 0.950 . S
H2113 C2142 0.950 . S
H2114 C2144 0.950 . S
H2115 C2145 0.950 . S
C2116 H2098 0.951 . S
C2116 C2117 1.366 . S
C2116 C2118 1.388 . S
C2117 C2116 1.366 . S
C2117 C2121 1.385 . S
C2118 H2099 0.951 . S
C2118 C2116 1.388 . S
C2118 C2119 1.366 . S
C2119 C2118 1.366 . S
C2119 C2120 1.414 . S
C2119 C2122 1.499 . S
C2120 H2100 0.950 . S
C2120 C2119 1.414 . S
C2120 C2121 1.374 . S
C2121 H2101 0.950 . S
C2121 C2117 1.385 . S
C2121 C2120 1.374 . S
C2122 C2119 1.499 . S
C2122 C2123 1.373 . S
C2122 C2124 1.389 . S
C2123 H2102 0.950 . S
C2123 C2122 1.373 . S
C2123 C2139 1.377 1_565 S
C2124 C2122 1.389 . S
C2124 C2125 1.524 . S
C2124 C2138 1.377 1_565 S
C2125 C2124 1.524 . S
C2125 C2126 1.397 . S
C2125 C2130 1.363 . S
C2126 H2103 0.950 . S
C2126 C2125 1.397 . S
C2126 C2127 1.334 . S
C2127 H2104 0.950 . S
C2127 C2126 1.334 . S
C2127 C2128 1.287 . S
C2128 C2127 1.287 . S
C2128 C2129 1.524 . S
C2128 H2147 0.913 . S
C2129 H2105 0.950 . S
C2129 C2128 1.524 . S
C2129 C2130 1.415 . S
C2130 H2106 0.950 . S
C2130 C2125 1.363 . S
C2130 C2129 1.415 . S
C2131 H2107 0.951 . S
C2131 C2132 1.366 . S
C2131 C2133 1.388 . S
C2132 C2131 1.366 . S
C2132 C2136 1.385 . S
C2133 H2108 0.951 . S
C2133 C2131 1.388 . S
C2133 C2134 1.366 . S
C2134 C2133 1.366 . S
C2134 C2135 1.414 . S
C2134 C2137 1.499 . S
C2135 H2109 0.950 . S
C2135 C2134 1.414 . S
C2135 C2136 1.374 . S
C2136 H2110 0.950 . S
C2136 C2132 1.385 . S
C2136 C2135 1.374 . S
C2137 C2134 1.499 . S
C2137 C2138 1.373 . S
C2137 C2139 1.389 . S
C2138 H2111 0.950 . S
C2138 C2124 1.377 1_545 S
C2138 C2137 1.373 . S
C2139 C2123 1.377 1_545 S
C2139 C2137 1.389 . S
C2139 C2140 1.524 . S
C2140 C2139 1.524 . S
C2140 C2141 1.397 . S
C2140 C2145 1.363 . S
C2141 H2112 0.950 . S
C2141 C2140 1.397 . S
C2141 C2142 1.334 . S
C2142 H2113 0.950 . S
C2142 C2141 1.334 . S
C2142 C2143 1.287 . S
C2143 C2142 1.287 . S
C2143 C2144 1.524 . S
C2143 H2146 0.999 . S
C2144 H2114 0.950 . S
C2144 C2143 1.524 . S
C2144 C2145 1.415 . S
C2145 H2115 0.950 . S
C2145 C2140 1.363 . S
C2145 C2144 1.415 . S
H2146 C2143 0.999 . S
H2147 C2128 0.913 . S
H2148 C2166 0.951 . S
H2149 C2168 0.951 1_556 S
H2150 C2170 0.950 1_455 S
H2151 C2171 0.950 . S
H2152 C2173 0.950 . S
H2153 C2176 0.950 . S
H2154 C2177 0.950 . S
H2155 C2179 0.973 . S
H2156 C2180 0.968 . S
H2157 C2181 0.951 . S
H2158 C2183 0.951 1_554 S
H2159 C2185 0.950 1_655 S
H2160 C2186 0.950 . S
H2161 C2188 0.950 . S
H2162 C2191 0.950 . S
H2163 C2192 0.950 . S
H2164 C2194 0.973 . S
H2165 C2195 0.968 . S
C2166 H2148 0.951 . S
C2166 C2167 1.366 . S
C2166 C2168 1.388 . S
C2167 C2166 1.366 . S
C2167 C2171 1.385 . S
C2168 H2149 0.951 1_554 S
C2168 C2166 1.388 . S
C2168 C2169 1.366 . S
C2169 C2168 1.366 . S
C2169 C2170 1.414 . S
C2169 C2172 1.499 . S
C2170 H2150 0.950 1_655 S
C2170 C2169 1.414 . S
C2170 C2171 1.374 . S
C2171 H2151 0.950 . S
C2171 C2167 1.385 . S
C2171 C2170 1.374 . S
C2172 C2169 1.499 . S
C2172 C2173 1.373 1_655 S
C2172 C2174 1.389 . S
C2173 H2152 0.950 . S
C2173 C2172 1.373 1_455 S
C2173 C2189 1.377 1_544 S
C2174 C2172 1.389 . S
C2174 C2175 1.524 . S
C2174 C2188 1.377 1_544 S
C2175 C2174 1.524 . S
C2175 C2176 1.397 . S
C2175 C2180 1.349 1_544 S
C2176 H2153 0.950 . S
C2176 C2175 1.397 . S
C2176 C2177 1.334 . S
C2177 H2154 0.950 . S
C2177 C2176 1.334 . S
C2177 C2178 1.303 . S
C2178 C2177 1.303 . S
C2178 C2179 1.510 1_544 S
C2178 H2197 0.912 . S
C2179 H2155 0.973 . S
C2179 C2178 1.510 1_566 S
C2179 C2180 1.414 . S
C2180 H2156 0.968 . S
C2180 C2175 1.349 1_566 S
C2180 C2179 1.414 . S
C2181 H2157 0.951 . S
C2181 C2182 1.366 . S
C2181 C2183 1.388 . S
C2182 C2181 1.366 . S
C2182 C2186 1.385 . S
C2183 H2158 0.951 1_556 S
C2183 C2181 1.388 . S
C2183 C2184 1.366 . S
C2184 C2183 1.366 . S
C2184 C2185 1.414 . S
C2184 C2187 1.499 . S
C2185 H2159 0.950 1_455 S
C2185 C2184 1.414 . S
C2185 C2186 1.374 . S
C2186 H2160 0.950 . S
C2186 C2182 1.385 . S
C2186 C2185 1.374 . S
C2187 C2184 1.499 . S
C2187 C2188 1.373 1_455 S
C2187 C2189 1.389 . S
C2188 H2161 0.950 . S
C2188 C2174 1.377 1_566 S
C2188 C2187 1.373 1_655 S
C2189 C2173 1.377 1_566 S
C2189 C2187 1.389 . S
C2189 C2190 1.524 . S
C2190 C2189 1.524 . S
C2190 C2191 1.397 . S
C2190 C2195 1.349 1_566 S
C2191 H2162 0.950 . S
C2191 C2190 1.397 . S
C2191 C2192 1.334 . S
C2192 H2163 0.950 . S
C2192 C2191 1.334 . S
C2192 C2193 1.303 . S
C2193 C2192 1.303 . S
C2193 C2194 1.510 1_566 S
C2193 H2196 0.999 . S
C2194 H2164 0.973 . S
C2194 C2193 1.510 1_544 S
C2194 C2195 1.414 . S
C2195 H2165 0.968 . S
C2195 C2190 1.349 1_544 S
C2195 C2194 1.414 . S
H2196 C2193 0.999 . S
H2197 C2178 0.912 . S
H2198 C2216 0.951 . S
H2199 C2218 0.951 . S
H2200 C2220 0.950 1_556 S
H2201 C2221 0.950 . S
H2202 C2223 0.950 . S
H2203 C2226 0.950 . S
H2204 C2227 0.950 . S
H2205 C2229 0.950 . S
H2206 C2230 0.950 . S
H2207 C2231 0.951 . S
H2208 C2233 0.951 . S
H2209 C2235 0.950 1_554 S
H2210 C2236 0.950 . S
H2211 C2238 0.950 . S
H2212 C2241 0.950 . S
H2213 C2242 0.950 . S
H2214 C2244 0.950 . S
H2215 C2245 0.950 . S
C2216 H2198 0.951 . S
C2216 C2217 1.366 . S
C2216 C2218 1.388 . S
C2217 C2216 1.366 . S
C2217 C2221 1.385 . S
C2218 H2199 0.951 . S
C2218 C2216 1.388 . S
C2218 C2219 1.366 . S
C2219 C2218 1.366 . S
C2219 C2220 1.414 . S
C2219 C2222 1.499 . S
C2220 H2200 0.950 1_554 S
C2220 C2219 1.414 . S
C2220 C2221 1.374 . S
C2221 H2201 0.950 . S
C2221 C2217 1.385 . S
C2221 C2220 1.374 . S
C2222 C2219 1.499 . S
C2222 C2223 1.373 1_554 S
C2222 C2224 1.389 . S
C2223 H2202 0.950 . S
C2223 C2222 1.373 1_556 S
C2223 C2239 1.377 . S
C2224 C2222 1.389 . S
C2224 C2225 1.524 . S
C2224 C2238 1.377 . S
C2225 C2224 1.524 . S
C2225 C2226 1.397 . S
C2225 C2230 1.363 . S
C2226 H2203 0.950 . S
C2226 C2225 1.397 . S
C2226 C2227 1.334 . S
C2227 H2204 0.950 . S
C2227 C2226 1.334 . S
C2227 C2228 1.287 . S
C2228 C2227 1.287 . S
C2228 C2229 1.524 . S
C2228 H2247 0.913 . S
C2229 H2205 0.950 . S
C2229 C2228 1.524 . S
C2229 C2230 1.415 . S
C2230 H2206 0.950 . S
C2230 C2225 1.363 . S
C2230 C2229 1.415 . S
C2231 H2207 0.951 . S
C2231 C2232 1.366 . S
C2231 C2233 1.388 . S
C2232 C2231 1.366 . S
C2232 C2236 1.385 . S
C2233 H2208 0.951 . S
C2233 C2231 1.388 . S
C2233 C2234 1.366 . S
C2234 C2233 1.366 . S
C2234 C2235 1.414 . S
C2234 C2237 1.499 . S
C2235 H2209 0.950 1_556 S
C2235 C2234 1.414 . S
C2235 C2236 1.374 . S
C2236 H2210 0.950 . S
C2236 C2232 1.385 . S
C2236 C2235 1.374 . S
C2237 C2234 1.499 . S
C2237 C2238 1.373 1_556 S
C2237 C2239 1.389 . S
C2238 H2211 0.950 . S
C2238 C2224 1.377 . S
C2238 C2237 1.373 1_554 S
C2239 C2223 1.377 . S
C2239 C2237 1.389 . S
C2239 C2240 1.524 . S
C2240 C2239 1.524 . S
C2240 C2241 1.397 . S
C2240 C2245 1.363 . S
C2241 H2212 0.950 . S
C2241 C2240 1.397 . S
C2241 C2242 1.334 . S
C2242 H2213 0.950 . S
C2242 C2241 1.334 . S
C2242 C2243 1.287 . S
C2243 C2242 1.287 . S
C2243 C2244 1.524 . S
C2243 H2246 0.999 . S
C2244 H2214 0.950 . S
C2244 C2243 1.524 . S
C2244 C2245 1.415 . S
C2245 H2215 0.950 . S
C2245 C2240 1.363 . S
C2245 C2244 1.415 . S
H2246 C2243 0.999 . S
H2247 C2228 0.913 . S
H2248 C2266 0.951 . S
H2249 C2268 0.951 . S
H2250 C2270 0.950 . S
H2251 C2271 0.950 . S
H2252 C2273 0.950 . S
H2253 C2276 0.950 . S
H2254 C2277 0.950 . S
H2255 C2279 0.950 . S
H2256 C2280 0.950 . S
H2257 C2281 0.951 . S
H2258 C2283 0.951 . S
H2259 C2285 0.950 . S
H2260 C2286 0.950 . S
H2261 C2288 0.950 . S
H2262 C2291 0.950 . S
H2263 C2292 0.950 . S
H2264 C2294 0.950 . S
H2265 C2295 0.950 . S
C2266 H2248 0.951 . S
C2266 C2267 1.366 . S
C2266 C2268 1.388 . S
C2267 C2266 1.366 . S
C2267 C2271 1.385 . S
C2268 H2249 0.951 . S
C2268 C2266 1.388 . S
C2268 C2269 1.366 . S
C2269 C2268 1.366 . S
C2269 C2270 1.414 . S
C2269 C2272 1.499 . S
C2270 H2250 0.950 . S
C2270 C2269 1.414 . S
C2270 C2271 1.374 . S
C2271 H2251 0.950 . S
C2271 C2267 1.385 . S
C2271 C2270 1.374 . S
C2272 C2269 1.499 . S
C2272 C2273 1.373 . S
C2272 C2274 1.389 1_655 S
C2273 H2252 0.950 . S
C2273 C2272 1.373 . S
C2273 C2289 1.377 . S
C2274 C2272 1.389 1_455 S
C2274 C2275 1.524 . S
C2274 C2288 1.377 . S
C2275 C2274 1.524 . S
C2275 C2276 1.397 . S
C2275 C2280 1.363 . S
C2276 H2253 0.950 . S
C2276 C2275 1.397 . S
C2276 C2277 1.334 . S
C2277 H2254 0.950 . S
C2277 C2276 1.334 . S
C2277 C2278 1.287 . S
C2278 C2277 1.287 . S
C2278 C2279 1.524 . S
C2278 H2297 0.913 . S
C2279 H2255 0.950 . S
C2279 C2278 1.524 . S
C2279 C2280 1.415 . S
C2280 H2256 0.950 . S
C2280 C2275 1.363 . S
C2280 C2279 1.415 . S
C2281 H2257 0.951 . S
C2281 C2282 1.366 . S
C2281 C2283 1.388 . S
C2282 C2281 1.366 . S
C2282 C2286 1.385 . S
C2283 H2258 0.951 . S
C2283 C2281 1.388 . S
C2283 C2284 1.366 . S
C2284 C2283 1.366 . S
C2284 C2285 1.414 . S
C2284 C2287 1.499 . S
C2285 H2259 0.950 . S
C2285 C2284 1.414 . S
C2285 C2286 1.374 . S
C2286 H2260 0.950 . S
C2286 C2282 1.385 . S
C2286 C2285 1.374 . S
C2287 C2284 1.499 . S
C2287 C2288 1.373 . S
C2287 C2289 1.389 1_455 S
C2288 H2261 0.950 . S
C2288 C2274 1.377 . S
C2288 C2287 1.373 . S
C2289 C2273 1.377 . S
C2289 C2287 1.389 1_655 S
C2289 C2290 1.524 . S
C2290 C2289 1.524 . S
C2290 C2291 1.397 . S
C2290 C2295 1.363 . S
C2291 H2262 0.950 . S
C2291 C2290 1.397 . S
C2291 C2292 1.334 . S
C2292 H2263 0.950 . S
C2292 C2291 1.334 . S
C2292 C2293 1.287 . S
C2293 C2292 1.287 . S
C2293 C2294 1.524 . S
C2293 H2296 0.999 . S
C2294 H2264 0.950 . S
C2294 C2293 1.524 . S
C2294 C2295 1.415 . S
C2295 H2265 0.950 . S
C2295 C2290 1.363 . S
C2295 C2294 1.415 . S
H2296 C2293 0.999 . S
H2297 C2278 0.913 . S
H2298 C2316 0.951 . S
H2299 C2318 0.951 . S
H2300 C2320 0.950 . S
H2301 C2321 0.950 . S
H2302 C2323 0.950 . S
H2303 C2326 0.950 . S
H2304 C2327 0.965 . S
H2305 C2329 0.950 . S
H2306 C2330 0.950 . S
H2307 C2331 0.951 . S
H2308 C2333 0.951 . S
H2309 C2335 0.950 . S
H2310 C2336 0.950 . S
H2311 C2338 0.950 . S
H2312 C2341 0.950 . S
H2313 C2342 0.965 . S
H2314 C2344 0.950 . S
H2315 C2345 0.950 . S
C2316 H2298 0.951 . S
C2316 C2317 1.366 . S
C2316 C2318 1.388 . S
C2317 C2316 1.366 . S
C2317 C2321 1.385 . S
C2318 H2299 0.951 . S
C2318 C2316 1.388 . S
C2318 C2319 1.366 . S
C2319 C2318 1.366 . S
C2319 C2320 1.414 . S
C2319 C2322 1.499 . S
C2320 H2300 0.950 . S
C2320 C2319 1.414 . S
C2320 C2321 1.374 . S
C2321 H2301 0.950 . S
C2321 C2317 1.385 . S
C2321 C2320 1.374 . S
C2322 C2319 1.499 . S
C2322 C2323 1.373 . S
C2322 C2324 1.370 1_565 S
C2323 H2302 0.950 . S
C2323 C2322 1.373 . S
C2323 C2339 1.395 . S
C2324 C2322 1.370 1_545 S
C2324 C2325 1.527 . S
C2324 C2338 1.395 . S
C2325 C2324 1.527 . S
C2325 C2326 1.397 1_545 S
C2325 C2330 1.363 . S
C2326 H2303 0.950 . S
C2326 C2325 1.397 1_565 S
C2326 C2327 1.339 . S
C2327 H2304 0.965 . S
C2327 C2326 1.339 . S
C2327 C2328 1.269 1_565 S
C2328 C2327 1.269 1_545 S
C2328 C2329 1.524 . S
C2328 H2347 0.913 . S
C2329 H2305 0.950 . S
C2329 C2328 1.524 . S
C2329 C2330 1.415 . S
C2330 H2306 0.950 . S
C2330 C2325 1.363 . S
C2330 C2329 1.415 . S
C2331 H2307 0.951 . S
C2331 C2332 1.366 . S
C2331 C2333 1.388 . S
C2332 C2331 1.366 . S
C2332 C2336 1.385 . S
C2333 H2308 0.951 . S
C2333 C2331 1.388 . S
C2333 C2334 1.366 . S
C2334 C2333 1.366 . S
C2334 C2335 1.414 . S
C2334 C2337 1.499 . S
C2335 H2309 0.950 . S
C2335 C2334 1.414 . S
C2335 C2336 1.374 . S
C2336 H2310 0.950 . S
C2336 C2332 1.385 . S
C2336 C2335 1.374 . S
C2337 C2334 1.499 . S
C2337 C2338 1.373 . S
C2337 C2339 1.370 1_545 S
C2338 H2311 0.950 . S
C2338 C2324 1.395 . S
C2338 C2337 1.373 . S
C2339 C2323 1.395 . S
C2339 C2337 1.370 1_565 S
C2339 C2340 1.527 . S
C2340 C2339 1.527 . S
C2340 C2341 1.397 1_565 S
C2340 C2345 1.363 . S
C2341 H2312 0.950 . S
C2341 C2340 1.397 1_545 S
C2341 C2342 1.339 . S
C2342 H2313 0.965 . S
C2342 C2341 1.339 . S
C2342 C2343 1.269 1_545 S
C2343 C2342 1.269 1_565 S
C2343 C2344 1.524 . S
C2343 H2346 0.999 . S
C2344 H2314 0.950 . S
C2344 C2343 1.524 . S
C2344 C2345 1.415 . S
C2345 H2315 0.950 . S
C2345 C2340 1.363 . S
C2345 C2344 1.415 . S
H2346 C2343 0.999 . S
H2347 C2328 0.913 . S
H2348 C2366 0.951 . S
H2349 C2368 0.951 1_554 S
H2350 C2370 0.950 . S
H2351 C2371 0.950 . S
H2352 C2373 0.950 . S
H2353 C2376 0.950 . S
H2354 C2377 0.950 . S
H2355 C2379 0.950 . S
H2356 C2380 0.950 . S
H2357 C2381 0.951 . S
H2358 C2383 0.951 1_556 S
H2359 C2385 0.950 . S
H2360 C2386 0.950 . S
H2361 C2388 0.950 . S
H2362 C2391 0.950 . S
H2363 C2392 0.950 . S
H2364 C2394 0.950 . S
H2365 C2395 0.950 . S
C2366 H2348 0.951 . S
C2366 C2367 1.366 . S
C2366 C2368 1.388 . S
C2367 C2366 1.366 . S
C2367 C2371 1.385 . S
C2368 H2349 0.951 1_556 S
C2368 C2366 1.388 . S
C2368 C2369 1.366 . S
C2369 C2368 1.366 . S
C2369 C2370 1.414 . S
C2369 C2372 1.499 . S
C2370 H2350 0.950 . S
C2370 C2369 1.414 . S
C2370 C2371 1.374 . S
C2371 H2351 0.950 . S
C2371 C2367 1.385 . S
C2371 C2370 1.374 . S
C2372 C2369 1.499 . S
C2372 C2373 1.373 . S
C2372 C2374 1.378 1_556 S
C2373 H2352 0.950 . S
C2373 C2372 1.373 . S
C2373 C2389 1.388 . S
C2374 C2372 1.378 1_554 S
C2374 C2375 1.524 . S
C2374 C2388 1.388 . S
C2375 C2374 1.524 . S
C2375 C2376 1.378 1_554 S
C2375 C2380 1.380 . S
C2376 H2353 0.950 . S
C2376 C2375 1.378 1_556 S
C2376 C2377 1.334 . S
C2377 H2354 0.950 . S
C2377 C2376 1.334 . S
C2377 C2378 1.287 . S
C2378 C2377 1.287 . S
C2378 C2379 1.524 1_556 S
C2378 H2397 0.913 . S
C2379 H2355 0.950 . S
C2379 C2378 1.524 1_554 S
C2379 C2380 1.415 . S
C2380 H2356 0.950 . S
C2380 C2375 1.380 . S
C2380 C2379 1.415 . S
C2381 H2357 0.951 . S
C2381 C2382 1.366 . S
C2381 C2383 1.388 . S
C2382 C2381 1.366 . S
C2382 C2386 1.385 . S
C2383 H2358 0.951 1_554 S
C2383 C2381 1.388 . S
C2383 C2384 1.366 . S
C2384 C2383 1.366 . S
C2384 C2385 1.414 . S
C2384 C2387 1.499 . S
C2385 H2359 0.950 . S
C2385 C2384 1.414 . S
C2385 C2386 1.374 . S
C2386 H2360 0.950 . S
C2386 C2382 1.385 . S
C2386 C2385 1.374 . S
C2387 C2384 1.499 . S
C2387 C2388 1.373 . S
C2387 C2389 1.378 1_554 S
C2388 H2361 0.950 . S
C2388 C2374 1.388 . S
C2388 C2387 1.373 . S
C2389 C2373 1.388 . S
C2389 C2387 1.378 1_556 S
C2389 C2390 1.524 . S
C2390 C2389 1.524 . S
C2390 C2391 1.378 1_556 S
C2390 C2395 1.380 . S
C2391 H2362 0.950 . S
C2391 C2390 1.378 1_554 S
C2391 C2392 1.334 . S
C2392 H2363 0.950 . S
C2392 C2391 1.334 . S
C2392 C2393 1.287 . S
C2393 C2392 1.287 . S
C2393 C2394 1.524 1_554 S
C2393 H2396 0.999 . S
C2394 H2364 0.950 . S
C2394 C2393 1.524 1_556 S
C2394 C2395 1.415 . S
C2395 H2365 0.950 . S
C2395 C2390 1.380 . S
C2395 C2394 1.415 . S
H2396 C2393 0.999 . S
H2397 C2378 0.913 . S
H2398 C2416 0.951 . S
H2399 C2418 0.951 . S
H2400 C2420 0.950 . S
H2401 C2421 0.950 . S
H2402 C2423 0.950 . S
H2403 C2426 0.950 . S
H2404 C2427 0.950 . S
H2405 C2429 0.950 . S
H2406 C2430 0.950 . S
H2407 C2431 0.951 . S
H2408 C2433 0.951 . S
H2409 C2435 0.950 . S
H2410 C2436 0.950 . S
H2411 C2438 0.950 . S
H2412 C2441 0.950 . S
H2413 C2442 0.950 . S
H2414 C2444 0.950 . S
H2415 C2445 0.950 . S
C2416 H2398 0.951 . S
C2416 C2417 1.366 . S
C2416 C2418 1.388 . S
C2417 C2416 1.366 . S
C2417 C2421 1.385 . S
C2418 H2399 0.951 . S
C2418 C2416 1.388 . S
C2418 C2419 1.366 . S
C2419 C2418 1.366 . S
C2419 C2420 1.414 . S
C2419 C2422 1.499 . S
C2420 H2400 0.950 . S
C2420 C2419 1.414 . S
C2420 C2421 1.374 . S
C2421 H2401 0.950 . S
C2421 C2417 1.385 . S
C2421 C2420 1.374 . S
C2422 C2419 1.499 . S
C2422 C2423 1.373 . S
C2422 C2424 1.389 . S
C2423 H2402 0.950 . S
C2423 C2422 1.373 . S
C2423 C2439 1.377 . S
C2424 C2422 1.389 . S
C2424 C2425 1.524 . S
C2424 C2438 1.377 . S
C2425 C2424 1.524 . S
C2425 C2426 1.397 . S
C2425 C2430 1.363 . S
C2426 H2403 0.950 . S
C2426 C2425 1.397 . S
C2426 C2427 1.334 . S
C2427 H2404 0.950 . S
C2427 C2426 1.334 . S
C2427 C2428 1.287 . S
C2428 C2427 1.287 . S
C2428 C2429 1.524 . S
C2428 H2447 0.913 . S
C2429 H2405 0.950 . S
C2429 C2428 1.524 . S
C2429 C2430 1.415 . S
C2430 H2406 0.950 . S
C2430 C2425 1.363 . S
C2430 C2429 1.415 . S
C2431 H2407 0.951 . S
C2431 C2432 1.366 . S
C2431 C2433 1.388 . S
C2432 C2431 1.366 . S
C2432 C2436 1.385 . S
C2433 H2408 0.951 . S
C2433 C2431 1.388 . S
C2433 C2434 1.366 . S
C2434 C2433 1.366 . S
C2434 C2435 1.414 . S
C2434 C2437 1.499 . S
C2435 H2409 0.950 . S
C2435 C2434 1.414 . S
C2435 C2436 1.374 . S
C2436 H2410 0.950 . S
C2436 C2432 1.385 . S
C2436 C2435 1.374 . S
C2437 C2434 1.499 . S
C2437 C2438 1.373 . S
C2437 C2439 1.389 . S
C2438 H2411 0.950 . S
C2438 C2424 1.377 . S
C2438 C2437 1.373 . S
C2439 C2423 1.377 . S
C2439 C2437 1.389 . S
C2439 C2440 1.524 . S
C2440 C2439 1.524 . S
C2440 C2441 1.397 . S
C2440 C2445 1.363 . S
C2441 H2412 0.950 . S
C2441 C2440 1.397 . S
C2441 C2442 1.334 . S
C2442 H2413 0.950 . S
C2442 C2441 1.334 . S
C2442 C2443 1.287 . S
C2443 C2442 1.287 . S
C2443 C2444 1.524 . S
C2443 H2446 0.999 . S
C2444 H2414 0.950 . S
C2444 C2443 1.524 . S
C2444 C2445 1.415 . S
C2445 H2415 0.950 . S
C2445 C2440 1.363 . S
C2445 C2444 1.415 . S
H2446 C2443 0.999 . S
H2447 C2428 0.913 . S
H2448 C2466 0.951 . S
H2449 C2468 0.951 . S
H2450 C2470 0.950 1_655 S
H2451 C2471 0.950 1_655 S
H2452 C2473 0.950 . S
H2453 C2476 0.950 . S
H2454 C2477 0.950 . S
H2455 C2479 0.950 . S
H2456 C2480 0.950 . S
H2457 C2481 0.951 . S
H2458 C2483 0.951 . S
H2459 C2485 0.950 1_455 S
H2460 C2486 0.950 1_455 S
H2461 C2488 0.950 . S
H2462 C2491 0.950 . S
H2463 C2492 0.950 . S
H2464 C2494 0.950 . S
H2465 C2495 0.950 . S
C2466 H2448 0.951 . S
C2466 C2467 1.366 . S
C2466 C2468 1.388 . S
C2467 C2466 1.366 . S
C2467 C2471 1.385 . S
C2468 H2449 0.951 . S
C2468 C2466 1.388 . S
C2468 C2469 1.366 . S
C2469 C2468 1.366 . S
C2469 C2470 1.414 . S
C2469 C2472 1.499 . S
C2470 H2450 0.950 1_455 S
C2470 C2469 1.414 . S
C2470 C2471 1.374 . S
C2471 H2451 0.950 1_455 S
C2471 C2467 1.385 . S
C2471 C2470 1.374 . S
C2472 C2469 1.499 . S
C2472 C2473 1.373 1_455 S
C2472 C2474 1.389 . S
C2473 H2452 0.950 . S
C2473 C2472 1.373 1_655 S
C2473 C2489 1.377 . S
C2474 C2472 1.389 . S
C2474 C2475 1.524 . S
C2474 C2488 1.377 . S
C2475 C2474 1.524 . S
C2475 C2476 1.397 . S
C2475 C2480 1.363 . S
C2476 H2453 0.950 . S
C2476 C2475 1.397 . S
C2476 C2477 1.334 . S
C2477 H2454 0.950 . S
C2477 C2476 1.334 . S
C2477 C2478 1.287 . S
C2478 C2477 1.287 . S
C2478 C2479 1.524 . S
C2478 H2497 0.913 . S
C2479 H2455 0.950 . S
C2479 C2478 1.524 . S
C2479 C2480 1.415 . S
C2480 H2456 0.950 . S
C2480 C2475 1.363 . S
C2480 C2479 1.415 . S
C2481 H2457 0.951 . S
C2481 C2482 1.366 . S
C2481 C2483 1.388 . S
C2482 C2481 1.366 . S
C2482 C2486 1.385 . S
C2483 H2458 0.951 . S
C2483 C2481 1.388 . S
C2483 C2484 1.366 . S
C2484 C2483 1.366 . S
C2484 C2485 1.414 . S
C2484 C2487 1.499 . S
C2485 H2459 0.950 1_655 S
C2485 C2484 1.414 . S
C2485 C2486 1.374 . S
C2486 H2460 0.950 1_655 S
C2486 C2482 1.385 . S
C2486 C2485 1.374 . S
C2487 C2484 1.499 . S
C2487 C2488 1.373 1_655 S
C2487 C2489 1.389 . S
C2488 H2461 0.950 . S
C2488 C2474 1.377 . S
C2488 C2487 1.373 1_455 S
C2489 C2473 1.377 . S
C2489 C2487 1.389 . S
C2489 C2490 1.524 . S
C2490 C2489 1.524 . S
C2490 C2491 1.397 . S
C2490 C2495 1.363 . S
C2491 H2462 0.950 . S
C2491 C2490 1.397 . S
C2491 C2492 1.334 . S
C2492 H2463 0.950 . S
C2492 C2491 1.334 . S
C2492 C2493 1.287 . S
C2493 C2492 1.287 . S
C2493 C2494 1.524 . S
C2493 H2496 0.999 . S
C2494 H2464 0.950 . S
C2494 C2493 1.524 . S
C2494 C2495 1.415 . S
C2495 H2465 0.950 . S
C2495 C2490 1.363 . S
C2495 C2494 1.415 . S
H2496 C2493 0.999 . S
H2497 C2478 0.913 . S
H2498 C2516 0.951 . S
H2499 C2518 0.951 . S
H2500 C2520 0.950 . S
H2501 C2521 0.950 . S
H2502 C2523 0.950 . S
H2503 C2526 0.950 . S
H2504 C2527 0.950 . S
H2505 C2529 0.950 . S
H2506 C2530 0.950 . S
H2507 C2531 0.951 . S
H2508 C2533 0.951 . S
H2509 C2535 0.950 . S
H2510 C2536 0.950 . S
H2511 C2538 0.950 . S
H2512 C2541 0.950 . S
H2513 C2542 0.950 . S
H2514 C2544 0.950 . S
H2515 C2545 0.950 . S
C2516 H2498 0.951 . S
C2516 C2517 1.366 . S
C2516 C2518 1.388 . S
C2517 C2516 1.366 . S
C2517 C2521 1.385 . S
C2518 H2499 0.951 . S
C2518 C2516 1.388 . S
C2518 C2519 1.366 . S
C2519 C2518 1.366 . S
C2519 C2520 1.414 . S
C2519 C2522 1.499 . S
C2520 H2500 0.950 . S
C2520 C2519 1.414 . S
C2520 C2521 1.374 . S
C2521 H2501 0.950 . S
C2521 C2517 1.385 . S
C2521 C2520 1.374 . S
C2522 C2519 1.499 . S
C2522 C2523 1.373 . S
C2522 C2524 1.389 . S
C2523 H2502 0.950 . S
C2523 C2522 1.373 . S
C2523 C2539 1.377 . S
C2524 C2522 1.389 . S
C2524 C2525 1.524 . S
C2524 C2538 1.377 . S
C2525 C2524 1.524 . S
C2525 C2526 1.397 . S
C2525 C2530 1.363 . S
C2526 H2503 0.950 . S
C2526 C2525 1.397 . S
C2526 C2527 1.334 . S
C2527 H2504 0.950 . S
C2527 C2526 1.334 . S
C2527 C2528 1.287 . S
C2528 C2527 1.287 . S
C2528 C2529 1.524 . S
C2528 H2547 0.913 . S
C2529 H2505 0.950 . S
C2529 C2528 1.524 . S
C2529 C2530 1.415 . S
C2530 H2506 0.950 . S
C2530 C2525 1.363 . S
C2530 C2529 1.415 . S
C2531 H2507 0.951 . S
C2531 C2532 1.366 . S
C2531 C2533 1.388 . S
C2532 C2531 1.366 . S
C2532 C2536 1.385 . S
C2533 H2508 0.951 . S
C2533 C2531 1.388 . S
C2533 C2534 1.366 . S
C2534 C2533 1.366 . S
C2534 C2535 1.414 . S
C2534 C2537 1.499 . S
C2535 H2509 0.950 . S
C2535 C2534 1.414 . S
C2535 C2536 1.374 . S
C2536 H2510 0.950 . S
C2536 C2532 1.385 . S
C2536 C2535 1.374 . S
C2537 C2534 1.499 . S
C2537 C2538 1.373 . S
C2537 C2539 1.389 . S
C2538 H2511 0.950 . S
C2538 C2524 1.377 . S
C2538 C2537 1.373 . S
C2539 C2523 1.377 . S
C2539 C2537 1.389 . S
C2539 C2540 1.524 . S
C2540 C2539 1.524 . S
C2540 C2541 1.397 . S
C2540 C2545 1.363 . S
C2541 H2512 0.950 . S
C2541 C2540 1.397 . S
C2541 C2542 1.334 . S
C2542 H2513 0.950 . S
C2542 C2541 1.334 . S
C2542 C2543 1.287 . S
C2543 C2542 1.287 . S
C2543 C2544 1.524 . S
C2543 H2546 0.999 . S
C2544 H2514 0.950 . S
C2544 C2543 1.524 . S
C2544 C2545 1.415 . S
C2545 H2515 0.950 . S
C2545 C2540 1.363 . S
C2545 C2544 1.415 . S
H2546 C2543 0.999 . S
H2547 C2528 0.913 . S
H2548 C2566 0.951 . S
H2549 C2568 0.951 . S
H2550 C2570 0.950 . S
H2551 C2571 0.950 . S
H2552 C2573 0.950 . S
H2553 C2576 0.950 . S
H2554 C2577 0.950 . S
H2555 C2579 0.950 . S
H2556 C2580 0.950 . S
H2557 C2581 0.951 . S
H2558 C2583 0.951 . S
H2559 C2585 0.950 . S
H2560 C2586 0.950 . S
H2561 C2588 0.950 . S
H2562 C2591 0.950 . S
H2563 C2592 0.950 . S
H2564 C2594 0.950 . S
H2565 C2595 0.950 . S
C2566 H2548 0.951 . S
C2566 C2567 1.366 . S
C2566 C2568 1.388 . S
C2567 C2566 1.366 . S
C2567 C2571 1.385 . S
C2568 H2549 0.951 . S
C2568 C2566 1.388 . S
C2568 C2569 1.366 . S
C2569 C2568 1.366 . S
C2569 C2570 1.414 . S
C2569 C2572 1.499 . S
C2570 H2550 0.950 . S
C2570 C2569 1.414 . S
C2570 C2571 1.374 . S
C2571 H2551 0.950 . S
C2571 C2567 1.385 . S
C2571 C2570 1.374 . S
C2572 C2569 1.499 . S
C2572 C2573 1.373 . S
C2572 C2574 1.389 . S
C2573 H2552 0.950 . S
C2573 C2572 1.373 . S
C2573 C2589 1.377 . S
C2574 C2572 1.389 . S
C2574 C2575 1.524 . S
C2574 C2588 1.377 . S
C2575 C2574 1.524 . S
C2575 C2576 1.397 . S
C2575 C2580 1.363 . S
C2576 H2553 0.950 . S
C2576 C2575 1.397 . S
C2576 C2577 1.334 . S
C2577 H2554 0.950 . S
C2577 C2576 1.334 . S
C2577 C2578 1.287 . S
C2578 C2577 1.287 . S
C2578 C2579 1.524 . S
C2578 H2597 0.913 . S
C2579 H2555 0.950 . S
C2579 C2578 1.524 . S
C2579 C2580 1.415 . S
C2580 H2556 0.950 . S
C2580 C2575 1.363 . S
C2580 C2579 1.415 . S
C2581 H2557 0.951 . S
C2581 C2582 1.366 . S
C2581 C2583 1.388 . S
C2582 C2581 1.366 . S
C2582 C2586 1.385 . S
C2583 H2558 0.951 . S
C2583 C2581 1.388 . S
C2583 C2584 1.366 . S
C2584 C2583 1.366 . S
C2584 C2585 1.414 . S
C2584 C2587 1.499 . S
C2585 H2559 0.950 . S
C2585 C2584 1.414 . S
C2585 C2586 1.374 . S
C2586 H2560 0.950 . S
C2586 C2582 1.385 . S
C2586 C2585 1.374 . S
C2587 C2584 1.499 . S
C2587 C2588 1.373 . S
C2587 C2589 1.389 . S
C2588 H2561 0.950 . S
C2588 C2574 1.377 . S
C2588 C2587 1.373 . S
C2589 C2573 1.377 . S
C2589 C2587 1.389 . S
C2589 C2590 1.524 . S
C2590 C2589 1.524 . S
C2590 C2591 1.397 . S
C2590 C2595 1.363 . S
C2591 H2562 0.950 . S
C2591 C2590 1.397 . S
C2591 C2592 1.334 . S
C2592 H2563 0.950 . S
C2592 C2591 1.334 . S
C2592 C2593 1.287 . S
C2593 C2592 1.287 . S
C2593 C2594 1.524 . S
C2593 H2596 0.999 . S
C2594 H2564 0.950 . S
C2594 C2593 1.524 . S
C2594 C2595 1.415 . S
C2595 H2565 0.950 . S
C2595 C2590 1.363 . S
C2595 C2594 1.415 . S
H2596 C2593 0.999 . S
H2597 C2578 0.913 . S
H2598 C2616 0.951 . S
H2599 C2618 0.951 . S
H2600 C2620 0.950 . S
H2601 C2621 0.950 . S
H2602 C2623 0.950 . S
H2603 C2626 0.950 . S
H2604 C2627 0.950 . S
H2605 C2629 0.950 . S
H2606 C2630 0.950 . S
H2607 C2631 0.951 . S
H2608 C2633 0.951 . S
H2609 C2635 0.950 . S
H2610 C2636 0.950 . S
H2611 C2638 0.950 . S
H2612 C2641 0.950 . S
H2613 C2642 0.950 . S
H2614 C2644 0.950 . S
H2615 C2645 0.950 . S
C2616 H2598 0.951 . S
C2616 C2617 1.366 . S
C2616 C2618 1.388 . S
C2617 C2616 1.366 . S
C2617 C2621 1.385 . S
C2618 H2599 0.951 . S
C2618 C2616 1.388 . S
C2618 C2619 1.366 . S
C2619 C2618 1.366 . S
C2619 C2620 1.414 . S
C2619 C2622 1.499 . S
C2620 H2600 0.950 . S
C2620 C2619 1.414 . S
C2620 C2621 1.374 . S
C2621 H2601 0.950 . S
C2621 C2617 1.385 . S
C2621 C2620 1.374 . S
C2622 C2619 1.499 . S
C2622 C2623 1.373 . S
C2622 C2624 1.389 . S
C2623 H2602 0.950 . S
C2623 C2622 1.373 . S
C2623 C2639 1.377 . S
C2624 C2622 1.389 . S
C2624 C2625 1.524 . S
C2624 C2638 1.377 . S
C2625 C2624 1.524 . S
C2625 C2626 1.397 . S
C2625 C2630 1.363 . S
C2626 H2603 0.950 . S
C2626 C2625 1.397 . S
C2626 C2627 1.334 . S
C2627 H2604 0.950 . S
C2627 C2626 1.334 . S
C2627 C2628 1.287 . S
C2628 C2627 1.287 . S
C2628 C2629 1.524 . S
C2628 H2647 0.913 . S
C2629 H2605 0.950 . S
C2629 C2628 1.524 . S
C2629 C2630 1.415 . S
C2630 H2606 0.950 . S
C2630 C2625 1.363 . S
C2630 C2629 1.415 . S
C2631 H2607 0.951 . S
C2631 C2632 1.366 . S
C2631 C2633 1.388 . S
C2632 C2631 1.366 . S
C2632 C2636 1.385 . S
C2633 H2608 0.951 . S
C2633 C2631 1.388 . S
C2633 C2634 1.366 . S
C2634 C2633 1.366 . S
C2634 C2635 1.414 . S
C2634 C2637 1.499 . S
C2635 H2609 0.950 . S
C2635 C2634 1.414 . S
C2635 C2636 1.374 . S
C2636 H2610 0.950 . S
C2636 C2632 1.385 . S
C2636 C2635 1.374 . S
C2637 C2634 1.499 . S
C2637 C2638 1.373 . S
C2637 C2639 1.389 . S
C2638 H2611 0.950 . S
C2638 C2624 1.377 . S
C2638 C2637 1.373 . S
C2639 C2623 1.377 . S
C2639 C2637 1.389 . S
C2639 C2640 1.524 . S
C2640 C2639 1.524 . S
C2640 C2641 1.397 . S
C2640 C2645 1.363 . S
C2641 H2612 0.950 . S
C2641 C2640 1.397 . S
C2641 C2642 1.334 . S
C2642 H2613 0.950 . S
C2642 C2641 1.334 . S
C2642 C2643 1.287 . S
C2643 C2642 1.287 . S
C2643 C2644 1.524 . S
C2643 H2646 0.999 . S
C2644 H2614 0.950 . S
C2644 C2643 1.524 . S
C2644 C2645 1.415 . S
C2645 H2615 0.950 . S
C2645 C2640 1.363 . S
C2645 C2644 1.415 . S
H2646 C2643 0.999 . S
H2647 C2628 0.913 . S
H2648 C2666 0.951 . S
H2649 C2668 0.951 . S
H2650 C2670 0.950 . S
H2651 C2671 0.950 . S
H2652 C2673 0.950 . S
H2653 C2676 0.950 . S
H2654 C2677 0.950 . S
H2655 C2679 0.950 . S
H2656 C2680 0.950 . S
H2657 C2681 0.951 . S
H2658 C2683 0.951 . S
H2659 C2685 0.950 . S
H2660 C2686 0.950 . S
H2661 C2688 0.950 . S
H2662 C2691 0.950 . S
H2663 C2692 0.950 . S
H2664 C2694 0.950 . S
H2665 C2695 0.950 . S
C2666 H2648 0.951 . S
C2666 C2667 1.366 . S
C2666 C2668 1.388 . S
C2667 C2666 1.366 . S
C2667 C2671 1.385 . S
C2668 H2649 0.951 . S
C2668 C2666 1.388 . S
C2668 C2669 1.366 . S
C2669 C2668 1.366 . S
C2669 C2670 1.414 . S
C2669 C2672 1.499 . S
C2670 H2650 0.950 . S
C2670 C2669 1.414 . S
C2670 C2671 1.374 . S
C2671 H2651 0.950 . S
C2671 C2667 1.385 . S
C2671 C2670 1.374 . S
C2672 C2669 1.499 . S
C2672 C2673 1.373 . S
C2672 C2674 1.389 . S
C2673 H2652 0.950 . S
C2673 C2672 1.373 . S
C2673 C2689 1.377 . S
C2674 C2672 1.389 . S
C2674 C2675 1.524 . S
C2674 C2688 1.377 . S
C2675 C2674 1.524 . S
C2675 C2676 1.397 . S
C2675 C2680 1.363 . S
C2676 H2653 0.950 . S
C2676 C2675 1.397 . S
C2676 C2677 1.334 . S
C2677 H2654 0.950 . S
C2677 C2676 1.334 . S
C2677 C2678 1.287 . S
C2678 C2677 1.287 . S
C2678 C2679 1.524 . S
C2678 H2697 0.913 . S
C2679 H2655 0.950 . S
C2679 C2678 1.524 . S
C2679 C2680 1.415 . S
C2680 H2656 0.950 . S
C2680 C2675 1.363 . S
C2680 C2679 1.415 . S
C2681 H2657 0.951 . S
C2681 C2682 1.366 . S
C2681 C2683 1.388 . S
C2682 C2681 1.366 . S
C2682 C2686 1.385 . S
C2683 H2658 0.951 . S
C2683 C2681 1.388 . S
C2683 C2684 1.366 . S
C2684 C2683 1.366 . S
C2684 C2685 1.414 . S
C2684 C2687 1.499 . S
C2685 H2659 0.950 . S
C2685 C2684 1.414 . S
C2685 C2686 1.374 . S
C2686 H2660 0.950 . S
C2686 C2682 1.385 . S
C2686 C2685 1.374 . S
C2687 C2684 1.499 . S
C2687 C2688 1.373 . S
C2687 C2689 1.389 . S
C2688 H2661 0.950 . S
C2688 C2674 1.377 . S
C2688 C2687 1.373 . S
C2689 C2673 1.377 . S
C2689 C2687 1.389 . S
C2689 C2690 1.524 . S
C2690 C2689 1.524 . S
C2690 C2691 1.397 . S
C2690 C2695 1.363 . S
C2691 H2662 0.950 . S
C2691 C2690 1.397 . S
C2691 C2692 1.334 . S
C2692 H2663 0.950 . S
C2692 C2691 1.334 . S
C2692 C2693 1.287 . S
C2693 C2692 1.287 . S
C2693 C2694 1.524 . S
C2693 H2696 0.999 . S
C2694 H2664 0.950 . S
C2694 C2693 1.524 . S
C2694 C2695 1.415 . S
C2695 H2665 0.950 . S
C2695 C2690 1.363 . S
C2695 C2694 1.415 . S
H2696 C2693 0.999 . S
H2697 C2678 0.913 . S
H2698 C2716 0.951 . S
H2699 C2718 0.951 . S
H2700 C2720 0.950 . S
H2701 C2721 0.950 . S
H2702 C2723 0.950 . S
H2703 C2726 0.950 . S
H2704 C2727 0.972 . S
H2705 C2729 0.950 . S
H2706 C2730 0.950 . S
H2707 C2731 0.951 . S
H2708 C2733 0.951 . S
H2709 C2735 0.950 . S
H2710 C2736 0.950 . S
H2711 C2738 0.950 . S
H2712 C2741 0.950 . S
H2713 C2742 0.972 . S
H2714 C2744 0.950 . S
H2715 C2745 0.950 . S
C2716 H2698 0.951 . S
C2716 C2717 1.366 . S
C2716 C2718 1.388 . S
C2717 C2716 1.366 . S
C2717 C2721 1.385 . S
C2718 H2699 0.951 . S
C2718 C2716 1.388 . S
C2718 C2719 1.366 . S
C2719 C2718 1.366 . S
C2719 C2720 1.414 . S
C2719 C2722 1.499 . S
C2720 H2700 0.950 . S
C2720 C2719 1.414 . S
C2720 C2721 1.374 . S
C2721 H2701 0.950 . S
C2721 C2717 1.385 . S
C2721 C2720 1.374 . S
C2722 C2719 1.499 . S
C2722 C2723 1.373 . S
C2722 C2724 1.383 . S
C2723 H2702 0.950 . S
C2723 C2722 1.373 . S
C2723 C2739 1.382 1_545 S
C2724 C2722 1.383 . S
C2724 C2725 1.520 1_545 S
C2724 C2738 1.382 1_545 S
C2725 C2724 1.520 1_565 S
C2725 C2726 1.378 1_565 S
C2725 C2730 1.404 . S
C2726 H2703 0.950 . S
C2726 C2725 1.378 1_545 S
C2726 C2727 1.342 . S
C2727 H2704 0.972 . S
C2727 C2726 1.342 . S
C2727 C2728 1.262 1_545 S
C2728 C2727 1.262 1_565 S
C2728 C2729 1.524 . S
C2728 H2747 0.913 . S
C2729 H2705 0.950 . S
C2729 C2728 1.524 . S
C2729 C2730 1.415 . S
C2730 H2706 0.950 . S
C2730 C2725 1.404 . S
C2730 C2729 1.415 . S
C2731 H2707 0.951 . S
C2731 C2732 1.366 . S
C2731 C2733 1.388 . S
C2732 C2731 1.366 . S
C2732 C2736 1.385 . S
C2733 H2708 0.951 . S
C2733 C2731 1.388 . S
C2733 C2734 1.366 . S
C2734 C2733 1.366 . S
C2734 C2735 1.414 . S
C2734 C2737 1.499 . S
C2735 H2709 0.950 . S
C2735 C2734 1.414 . S
C2735 C2736 1.374 . S
C2736 H2710 0.950 . S
C2736 C2732 1.385 . S
C2736 C2735 1.374 . S
C2737 C2734 1.499 . S
C2737 C2738 1.373 . S
C2737 C2739 1.383 . S
C2738 H2711 0.950 . S
C2738 C2724 1.382 1_565 S
C2738 C2737 1.373 . S
C2739 C2723 1.382 1_565 S
C2739 C2737 1.383 . S
C2739 C2740 1.520 1_565 S
C2740 C2739 1.520 1_545 S
C2740 C2741 1.378 1_545 S
C2740 C2745 1.404 . S
C2741 H2712 0.950 . S
C2741 C2740 1.378 1_565 S
C2741 C2742 1.342 . S
C2742 H2713 0.972 . S
C2742 C2741 1.342 . S
C2742 C2743 1.262 1_565 S
C2743 C2742 1.262 1_545 S
C2743 C2744 1.524 . S
C2743 H2746 0.999 . S
C2744 H2714 0.950 . S
C2744 C2743 1.524 . S
C2744 C2745 1.415 . S
C2745 H2715 0.950 . S
C2745 C2740 1.404 . S
C2745 C2744 1.415 . S
H2746 C2743 0.999 . S
H2747 C2728 0.913 . S
H2748 C2766 0.951 . S
H2749 C2768 0.951 . S
H2750 C2770 0.950 . S
H2751 C2771 0.950 . S
H2752 C2773 0.950 . S
H2753 C2776 0.950 . S
H2754 C2777 0.950 . S
H2755 C2779 0.950 . S
H2756 C2780 0.950 . S
H2757 C2781 0.951 . S
H2758 C2783 0.951 . S
H2759 C2785 0.950 . S
H2760 C2786 0.950 . S
H2761 C2788 0.950 . S
H2762 C2791 0.950 . S
H2763 C2792 0.950 . S
H2764 C2794 0.950 . S
H2765 C2795 0.950 . S
C2766 H2748 0.951 . S
C2766 C2767 1.366 . S
C2766 C2768 1.388 . S
C2767 C2766 1.366 . S
C2767 C2771 1.385 . S
C2768 H2749 0.951 . S
C2768 C2766 1.388 . S
C2768 C2769 1.366 . S
C2769 C2768 1.366 . S
C2769 C2770 1.414 . S
C2769 C2772 1.499 . S
C2770 H2750 0.950 . S
C2770 C2769 1.414 . S
C2770 C2771 1.374 . S
C2771 H2751 0.950 . S
C2771 C2767 1.385 . S
C2771 C2770 1.374 . S
C2772 C2769 1.499 . S
C2772 C2773 1.373 . S
C2772 C2774 1.389 . S
C2773 H2752 0.950 . S
C2773 C2772 1.373 . S
C2773 C2789 1.377 . S
C2774 C2772 1.389 . S
C2774 C2775 1.524 . S
C2774 C2788 1.377 . S
C2775 C2774 1.524 . S
C2775 C2776 1.397 . S
C2775 C2780 1.363 . S
C2776 H2753 0.950 . S
C2776 C2775 1.397 . S
C2776 C2777 1.334 . S
C2777 H2754 0.950 . S
C2777 C2776 1.334 . S
C2777 C2778 1.287 . S
C2778 C2777 1.287 . S
C2778 C2779 1.524 . S
C2778 H2797 0.913 . S
C2779 H2755 0.950 . S
C2779 C2778 1.524 . S
C2779 C2780 1.415 . S
C2780 H2756 0.950 . S
C2780 C2775 1.363 . S
C2780 C2779 1.415 . S
C2781 H2757 0.951 . S
C2781 C2782 1.366 . S
C2781 C2783 1.388 . S
C2782 C2781 1.366 . S
C2782 C2786 1.385 . S
C2783 H2758 0.951 . S
C2783 C2781 1.388 . S
C2783 C2784 1.366 . S
C2784 C2783 1.366 . S
C2784 C2785 1.414 . S
C2784 C2787 1.499 . S
C2785 H2759 0.950 . S
C2785 C2784 1.414 . S
C2785 C2786 1.374 . S
C2786 H2760 0.950 . S
C2786 C2782 1.385 . S
C2786 C2785 1.374 . S
C2787 C2784 1.499 . S
C2787 C2788 1.373 . S
C2787 C2789 1.389 . S
C2788 H2761 0.950 . S
C2788 C2774 1.377 . S
C2788 C2787 1.373 . S
C2789 C2773 1.377 . S
C2789 C2787 1.389 . S
C2789 C2790 1.524 . S
C2790 C2789 1.524 . S
C2790 C2791 1.397 . S
C2790 C2795 1.363 . S
C2791 H2762 0.950 . S
C2791 C2790 1.397 . S
C2791 C2792 1.334 . S
C2792 H2763 0.950 . S
C2792 C2791 1.334 . S
C2792 C2793 1.287 . S
C2793 C2792 1.287 . S
C2793 C2794 1.524 . S
C2793 H2796 0.999 . S
C2794 H2764 0.950 . S
C2794 C2793 1.524 . S
C2794 C2795 1.415 . S
C2795 H2765 0.950 . S
C2795 C2790 1.363 . S
C2795 C2794 1.415 . S
H2796 C2793 0.999 . S
H2797 C2778 0.913 . S
H2798 C2816 0.951 . S
H2799 C2818 0.951 1_554 S
H2800 C2820 0.950 . S
H2801 C2821 0.950 . S
H2802 C2823 0.950 . S
H2803 C2826 0.931 1_556 S
H2804 C2827 0.950 . S
H2805 C2829 0.950 . S
H2806 C2830 0.950 . S
H2807 C2831 0.951 . S
H2808 C2833 0.951 1_556 S
H2809 C2835 0.950 . S
H2810 C2836 0.950 . S
H2811 C2838 0.950 . S
H2812 C2841 0.931 1_554 S
H2813 C2842 0.950 . S
H2814 C2844 0.950 . S
H2815 C2845 0.950 . S
C2816 H2798 0.951 . S
C2816 C2817 1.366 . S
C2816 C2818 1.388 . S
C2817 C2816 1.366 . S
C2817 C2821 1.385 . S
C2818 H2799 0.951 1_556 S
C2818 C2816 1.388 . S
C2818 C2819 1.366 . S
C2819 C2818 1.366 . S
C2819 C2820 1.414 . S
C2819 C2822 1.499 . S
C2820 H2800 0.950 . S
C2820 C2819 1.414 . S
C2820 C2821 1.374 . S
C2821 H2801 0.950 . S
C2821 C2817 1.385 . S
C2821 C2820 1.374 . S
C2822 C2819 1.499 . S
C2822 C2823 1.373 . S
C2822 C2824 1.389 1_556 S
C2823 H2802 0.950 . S
C2823 C2822 1.373 . S
C2823 C2839 1.377 . S
C2824 C2822 1.389 1_554 S
C2824 C2825 1.524 . S
C2824 C2838 1.377 . S
C2825 C2824 1.524 . S
C2825 C2826 1.397 . S
C2825 C2830 1.363 . S
C2826 H2803 0.931 1_554 S
C2826 C2825 1.397 . S
C2826 C2827 1.334 . S
C2827 H2804 0.950 . S
C2827 C2826 1.334 . S
C2827 C2828 1.287 . S
C2828 C2827 1.287 . S
C2828 C2829 1.524 . S
C2828 H2847 0.913 . S
C2829 H2805 0.950 . S
C2829 C2828 1.524 . S
C2829 C2830 1.415 . S
C2830 H2806 0.950 . S
C2830 C2825 1.363 . S
C2830 C2829 1.415 . S
C2831 H2807 0.951 . S
C2831 C2832 1.366 . S
C2831 C2833 1.388 . S
C2832 C2831 1.366 . S
C2832 C2836 1.385 . S
C2833 H2808 0.951 1_554 S
C2833 C2831 1.388 . S
C2833 C2834 1.366 . S
C2834 C2833 1.366 . S
C2834 C2835 1.414 . S
C2834 C2837 1.499 . S
C2835 H2809 0.950 . S
C2835 C2834 1.414 . S
C2835 C2836 1.374 . S
C2836 H2810 0.950 . S
C2836 C2832 1.385 . S
C2836 C2835 1.374 . S
C2837 C2834 1.499 . S
C2837 C2838 1.373 . S
C2837 C2839 1.389 1_554 S
C2838 H2811 0.950 . S
C2838 C2824 1.377 . S
C2838 C2837 1.373 . S
C2839 C2823 1.377 . S
C2839 C2837 1.389 1_556 S
C2839 C2840 1.524 . S
C2840 C2839 1.524 . S
C2840 C2841 1.397 . S
C2840 C2845 1.363 . S
C2841 H2812 0.931 1_556 S
C2841 C2840 1.397 . S
C2841 C2842 1.334 . S
C2842 H2813 0.950 . S
C2842 C2841 1.334 . S
C2842 C2843 1.287 . S
C2843 C2842 1.287 . S
C2843 C2844 1.524 . S
C2843 H2846 0.999 . S
C2844 H2814 0.950 . S
C2844 C2843 1.524 . S
C2844 C2845 1.415 . S
C2845 H2815 0.950 . S
C2845 C2840 1.363 . S
C2845 C2844 1.415 . S
H2846 C2843 0.999 . S
H2847 C2828 0.913 . S
H2848 C2866 0.951 . S
H2849 C2868 0.951 . S
H2850 C2870 0.950 . S
H2851 C2871 0.950 . S
H2852 C2873 0.950 . S
H2853 C2876 0.950 . S
H2854 C2877 0.950 . S
H2855 C2879 0.950 . S
H2856 C2880 0.950 . S
H2857 C2881 0.951 . S
H2858 C2883 0.951 . S
H2859 C2885 0.950 . S
H2860 C2886 0.950 . S
H2861 C2888 0.950 . S
H2862 C2891 0.950 . S
H2863 C2892 0.950 . S
H2864 C2894 0.950 . S
H2865 C2895 0.950 . S
C2866 H2848 0.951 . S
C2866 C2867 1.366 . S
C2866 C2868 1.388 . S
C2867 C2866 1.366 . S
C2867 C2871 1.385 . S
C2868 H2849 0.951 . S
C2868 C2866 1.388 . S
C2868 C2869 1.366 . S
C2869 C2868 1.366 . S
C2869 C2870 1.414 . S
C2869 C2872 1.499 . S
C2870 H2850 0.950 . S
C2870 C2869 1.414 . S
C2870 C2871 1.374 . S
C2871 H2851 0.950 . S
C2871 C2867 1.385 . S
C2871 C2870 1.374 . S
C2872 C2869 1.499 . S
C2872 C2873 1.373 . S
C2872 C2874 1.389 . S
C2873 H2852 0.950 . S
C2873 C2872 1.373 . S
C2873 C2889 1.377 . S
C2874 C2872 1.389 . S
C2874 C2875 1.524 . S
C2874 C2888 1.377 . S
C2875 C2874 1.524 . S
C2875 C2876 1.397 . S
C2875 C2880 1.363 . S
C2876 H2853 0.950 . S
C2876 C2875 1.397 . S
C2876 C2877 1.334 . S
C2877 H2854 0.950 . S
C2877 C2876 1.334 . S
C2877 C2878 1.287 . S
C2878 C2877 1.287 . S
C2878 C2879 1.524 . S
C2878 H2897 0.913 . S
C2879 H2855 0.950 . S
C2879 C2878 1.524 . S
C2879 C2880 1.415 . S
C2880 H2856 0.950 . S
C2880 C2875 1.363 . S
C2880 C2879 1.415 . S
C2881 H2857 0.951 . S
C2881 C2882 1.366 . S
C2881 C2883 1.388 . S
C2882 C2881 1.366 . S
C2882 C2886 1.385 . S
C2883 H2858 0.951 . S
C2883 C2881 1.388 . S
C2883 C2884 1.366 . S
C2884 C2883 1.366 . S
C2884 C2885 1.414 . S
C2884 C2887 1.499 . S
C2885 H2859 0.950 . S
C2885 C2884 1.414 . S
C2885 C2886 1.374 . S
C2886 H2860 0.950 . S
C2886 C2882 1.385 . S
C2886 C2885 1.374 . S
C2887 C2884 1.499 . S
C2887 C2888 1.373 . S
C2887 C2889 1.389 . S
C2888 H2861 0.950 . S
C2888 C2874 1.377 . S
C2888 C2887 1.373 . S
C2889 C2873 1.377 . S
C2889 C2887 1.389 . S
C2889 C2890 1.524 . S
C2890 C2889 1.524 . S
C2890 C2891 1.397 . S
C2890 C2895 1.363 . S
C2891 H2862 0.950 . S
C2891 C2890 1.397 . S
C2891 C2892 1.334 . S
C2892 H2863 0.950 . S
C2892 C2891 1.334 . S
C2892 C2893 1.287 . S
C2893 C2892 1.287 . S
C2893 C2894 1.524 . S
C2893 H2896 0.999 . S
C2894 H2864 0.950 . S
C2894 C2893 1.524 . S
C2894 C2895 1.415 . S
C2895 H2865 0.950 . S
C2895 C2890 1.363 . S
C2895 C2894 1.415 . S
H2896 C2893 0.999 . S
H2897 C2878 0.913 . S
H2898 C2916 0.951 . S
H2899 C2918 0.951 . S
H2900 C2920 0.950 . S
H2901 C2921 0.950 . S
H2902 C2923 0.950 . S
H2903 C2926 0.950 . S
H2904 C2927 0.950 . S
H2905 C2929 0.950 . S
H2906 C2930 0.950 . S
H2907 C2931 0.951 . S
H2908 C2933 0.951 . S
H2909 C2935 0.950 . S
H2910 C2936 0.950 . S
H2911 C2938 0.950 . S
H2912 C2941 0.950 . S
H2913 C2942 0.950 . S
H2914 C2944 0.950 . S
H2915 C2945 0.950 . S
C2916 H2898 0.951 . S
C2916 C2917 1.366 . S
C2916 C2918 1.388 . S
C2917 C2916 1.366 . S
C2917 C2921 1.385 . S
C2918 H2899 0.951 . S
C2918 C2916 1.388 . S
C2918 C2919 1.366 . S
C2919 C2918 1.366 . S
C2919 C2920 1.414 . S
C2919 C2922 1.499 . S
C2920 H2900 0.950 . S
C2920 C2919 1.414 . S
C2920 C2921 1.374 . S
C2921 H2901 0.950 . S
C2921 C2917 1.385 . S
C2921 C2920 1.374 . S
C2922 C2919 1.499 . S
C2922 C2923 1.373 . S
C2922 C2924 1.389 . S
C2923 H2902 0.950 . S
C2923 C2922 1.373 . S
C2923 C2939 1.377 . S
C2924 C2922 1.389 . S
C2924 C2925 1.524 . S
C2924 C2938 1.377 . S
C2925 C2924 1.524 . S
C2925 C2926 1.397 . S
C2925 C2930 1.363 . S
C2926 H2903 0.950 . S
C2926 C2925 1.397 . S
C2926 C2927 1.334 . S
C2927 H2904 0.950 . S
C2927 C2926 1.334 . S
C2927 C2928 1.287 . S
C2928 C2927 1.287 . S
C2928 C2929 1.524 . S
C2928 H2947 0.913 . S
C2929 H2905 0.950 . S
C2929 C2928 1.524 . S
C2929 C2930 1.415 . S
C2930 H2906 0.950 . S
C2930 C2925 1.363 . S
C2930 C2929 1.415 . S
C2931 H2907 0.951 . S
C2931 C2932 1.366 . S
C2931 C2933 1.388 . S
C2932 C2931 1.366 . S
C2932 C2936 1.385 . S
C2933 H2908 0.951 . S
C2933 C2931 1.388 . S
C2933 C2934 1.366 . S
C2934 C2933 1.366 . S
C2934 C2935 1.414 . S
C2934 C2937 1.499 . S
C2935 H2909 0.950 . S
C2935 C2934 1.414 . S
C2935 C2936 1.374 . S
C2936 H2910 0.950 . S
C2936 C2932 1.385 . S
C2936 C2935 1.374 . S
C2937 C2934 1.499 . S
C2937 C2938 1.373 . S
C2937 C2939 1.389 . S
C2938 H2911 0.950 . S
C2938 C2924 1.377 . S
C2938 C2937 1.373 . S
C2939 C2923 1.377 . S
C2939 C2937 1.389 . S
C2939 C2940 1.524 . S
C2940 C2939 1.524 . S
C2940 C2941 1.397 . S
C2940 C2945 1.363 . S
C2941 H2912 0.950 . S
C2941 C2940 1.397 . S
C2941 C2942 1.334 . S
C2942 H2913 0.950 . S
C2942 C2941 1.334 . S
C2942 C2943 1.287 . S
C2943 C2942 1.287 . S
C2943 C2944 1.524 . S
C2943 H2946 0.999 . S
C2944 H2914 0.950 . S
C2944 C2943 1.524 . S
C2944 C2945 1.415 . S
C2945 H2915 0.950 . S
C2945 C2940 1.363 . S
C2945 C2944 1.415 . S
H2946 C2943 0.999 . S
H2947 C2928 0.913 . S
H2948 C2966 0.951 . S
H2949 C2968 0.951 . S
H2950 C2970 0.950 . S
H2951 C2971 0.950 . S
H2952 C2973 0.950 . S
H2953 C2976 0.950 . S
H2954 C2977 0.950 . S
H2955 C2979 0.950 . S
H2956 C2980 0.950 . S
H2957 C2981 0.951 . S
H2958 C2983 0.951 . S
H2959 C2985 0.950 . S
H2960 C2986 0.950 . S
H2961 C2988 0.950 . S
H2962 C2991 0.950 . S
H2963 C2992 0.950 . S
H2964 C2994 0.950 1_455 S
H2965 C2995 0.950 . S
C2966 H2948 0.951 . S
C2966 C2967 1.366 . S
C2966 C2968 1.388 . S
C2967 C2966 1.366 . S
C2967 C2971 1.385 . S
C2968 H2949 0.951 . S
C2968 C2966 1.388 . S
C2968 C2969 1.366 . S
C2969 C2968 1.366 . S
C2969 C2970 1.414 . S
C2969 C2972 1.499 . S
C2970 H2950 0.950 . S
C2970 C2969 1.414 . S
C2970 C2971 1.374 . S
C2971 H2951 0.950 . S
C2971 C2967 1.385 . S
C2971 C2970 1.374 . S
C2972 C2969 1.499 . S
C2972 C2973 1.373 . S
C2972 C2974 1.389 . S
C2973 H2952 0.950 . S
C2973 C2972 1.373 . S
C2973 C2989 1.377 . S
C2974 C2972 1.389 . S
C2974 C2975 1.524 . S
C2974 C2988 1.377 . S
C2975 C2974 1.524 . S
C2975 C2976 1.397 . S
C2975 C2980 1.363 . S
C2976 H2953 0.950 . S
C2976 C2975 1.397 . S
C2976 C2977 1.334 . S
C2977 H2954 0.950 . S
C2977 C2976 1.334 . S
C2977 C2978 1.287 . S
C2978 C2977 1.287 . S
C2978 C2979 1.524 . S
C2978 H2997 0.913 . S
C2979 H2955 0.950 . S
C2979 C2978 1.524 . S
C2979 C2980 1.415 . S
C2980 H2956 0.950 . S
C2980 C2975 1.363 . S
C2980 C2979 1.415 . S
C2981 H2957 0.951 . S
C2981 C2982 1.366 . S
C2981 C2983 1.388 . S
C2982 C2981 1.366 . S
C2982 C2986 1.385 . S
C2983 H2958 0.951 . S
C2983 C2981 1.388 . S
C2983 C2984 1.366 . S
C2984 C2983 1.366 . S
C2984 C2985 1.414 . S
C2984 C2987 1.499 . S
C2985 H2959 0.950 . S
C2985 C2984 1.414 . S
C2985 C2986 1.374 . S
C2986 H2960 0.950 . S
C2986 C2982 1.385 . S
C2986 C2985 1.374 . S
C2987 C2984 1.499 . S
C2987 C2988 1.373 . S
C2987 C2989 1.389 . S
C2988 H2961 0.950 . S
C2988 C2974 1.377 . S
C2988 C2987 1.373 . S
C2989 C2973 1.377 . S
C2989 C2987 1.389 . S
C2989 C2990 1.524 . S
C2990 C2989 1.524 . S
C2990 C2991 1.397 . S
C2990 C2995 1.363 . S
C2991 H2962 0.950 . S
C2991 C2990 1.397 . S
C2991 C2992 1.334 . S
C2992 H2963 0.950 . S
C2992 C2991 1.334 . S
C2992 C2993 1.287 1_655 S
C2993 C2992 1.287 1_455 S
C2993 C2994 1.524 1_455 S
C2993 H2996 0.999 . S
C2994 H2964 0.950 1_655 S
C2994 C2993 1.524 1_655 S
C2994 C2995 1.415 . S
C2995 H2965 0.950 . S
C2995 C2990 1.363 . S
C2995 C2994 1.415 . S
H2996 C2993 0.999 . S
H2997 C2978 0.913 . S
H2998 C3016 0.951 . S
H2999 C3018 0.951 . S
H3000 C3020 0.950 . S
H3001 C3021 0.950 . S
H3002 C3023 0.950 . S
H3003 C3026 0.950 . S
H3004 C3027 0.950 . S
H3005 C3029 0.950 . S
H3006 C3030 0.950 . S
H3007 C3031 0.951 . S
H3008 C3033 0.951 . S
H3009 C3035 0.950 . S
H3010 C3036 0.950 . S
H3011 C3038 0.950 . S
H3012 C3041 0.950 . S
H3013 C3042 0.950 . S
H3014 C3044 0.950 . S
H3015 C3045 0.950 . S
C3016 H2998 0.951 . S
C3016 C3017 1.366 . S
C3016 C3018 1.388 . S
C3017 C3016 1.366 . S
C3017 C3021 1.385 . S
C3018 H2999 0.951 . S
C3018 C3016 1.388 . S
C3018 C3019 1.366 . S
C3019 C3018 1.366 . S
C3019 C3020 1.414 . S
C3019 C3022 1.499 . S
C3020 H3000 0.950 . S
C3020 C3019 1.414 . S
C3020 C3021 1.374 . S
C3021 H3001 0.950 . S
C3021 C3017 1.385 . S
C3021 C3020 1.374 . S
C3022 C3019 1.499 . S
C3022 C3023 1.373 . S
C3022 C3024 1.389 . S
C3023 H3002 0.950 . S
C3023 C3022 1.373 . S
C3023 C3039 1.377 . S
C3024 C3022 1.389 . S
C3024 C3025 1.524 . S
C3024 C3038 1.377 . S
C3025 C3024 1.524 . S
C3025 C3026 1.397 . S
C3025 C3030 1.363 . S
C3026 H3003 0.950 . S
C3026 C3025 1.397 . S
C3026 C3027 1.334 . S
C3027 H3004 0.950 . S
C3027 C3026 1.334 . S
C3027 C3028 1.287 . S
C3028 C3027 1.287 . S
C3028 C3029 1.524 . S
C3028 H3047 0.913 . S
C3029 H3005 0.950 . S
C3029 C3028 1.524 . S
C3029 C3030 1.415 . S
C3030 H3006 0.950 . S
C3030 C3025 1.363 . S
C3030 C3029 1.415 . S
C3031 H3007 0.951 . S
C3031 C3032 1.366 . S
C3031 C3033 1.388 . S
C3032 C3031 1.366 . S
C3032 C3036 1.385 . S
C3033 H3008 0.951 . S
C3033 C3031 1.388 . S
C3033 C3034 1.366 . S
C3034 C3033 1.366 . S
C3034 C3035 1.414 . S
C3034 C3037 1.499 . S
C3035 H3009 0.950 . S
C3035 C3034 1.414 . S
C3035 C3036 1.374 . S
C3036 H3010 0.950 . S
C3036 C3032 1.385 . S
C3036 C3035 1.374 . S
C3037 C3034 1.499 . S
C3037 C3038 1.373 . S
C3037 C3039 1.389 . S
C3038 H3011 0.950 . S
C3038 C3024 1.377 . S
C3038 C3037 1.373 . S
C3039 C3023 1.377 . S
C3039 C3037 1.389 . S
C3039 C3040 1.524 . S
C3040 C3039 1.524 . S
C3040 C3041 1.397 . S
C3040 C3045 1.363 . S
C3041 H3012 0.950 . S
C3041 C3040 1.397 . S
C3041 C3042 1.334 1_655 S
C3042 H3013 0.950 . S
C3042 C3041 1.334 1_455 S
C3042 C3043 1.287 . S
C3043 C3042 1.287 . S
C3043 C3044 1.524 1_455 S
C3043 H3046 0.999 . S
C3044 H3014 0.950 . S
C3044 C3043 1.524 1_655 S
C3044 C3045 1.415 . S
C3045 H3015 0.950 . S
C3045 C3040 1.363 . S
C3045 C3044 1.415 . S
H3046 C3043 0.999 . S
H3047 C3028 0.913 . S
H3048 C3066 0.951 . S
H3049 C3068 0.951 . S
H3050 C3070 0.950 . S
H3051 C3071 0.950 . S
H3052 C3073 0.950 . S
H3053 C3076 0.950 . S
H3054 C3077 0.950 . S
H3055 C3079 0.950 . S
H3056 C3080 0.950 . S
H3057 C3081 0.951 . S
H3058 C3083 0.951 . S
H3059 C3085 0.950 . S
H3060 C3086 0.950 . S
H3061 C3088 0.950 . S
H3062 C3091 0.950 . S
H3063 C3092 0.950 . S
H3064 C3094 0.950 . S
H3065 C3095 0.950 . S
C3066 H3048 0.951 . S
C3066 C3067 1.366 . S
C3066 C3068 1.388 . S
C3067 C3066 1.366 . S
C3067 C3071 1.385 . S
C3068 H3049 0.951 . S
C3068 C3066 1.388 . S
C3068 C3069 1.366 . S
C3069 C3068 1.366 . S
C3069 C3070 1.414 . S
C3069 C3072 1.499 . S
C3070 H3050 0.950 . S
C3070 C3069 1.414 . S
C3070 C3071 1.374 . S
C3071 H3051 0.950 . S
C3071 C3067 1.385 . S
C3071 C3070 1.374 . S
C3072 C3069 1.499 . S
C3072 C3073 1.373 . S
C3072 C3074 1.389 . S
C3073 H3052 0.950 . S
C3073 C3072 1.373 . S
C3073 C3089 1.377 . S
C3074 C3072 1.389 . S
C3074 C3075 1.524 . S
C3074 C3088 1.377 . S
C3075 C3074 1.524 . S
C3075 C3076 1.397 . S
C3075 C3080 1.363 . S
C3076 H3053 0.950 . S
C3076 C3075 1.397 . S
C3076 C3077 1.334 . S
C3077 H3054 0.950 . S
C3077 C3076 1.334 . S
C3077 C3078 1.287 . S
C3078 C3077 1.287 . S
C3078 C3079 1.524 . S
C3078 H3097 0.913 . S
C3079 H3055 0.950 . S
C3079 C3078 1.524 . S
C3079 C3080 1.415 . S
C3080 H3056 0.950 . S
C3080 C3075 1.363 . S
C3080 C3079 1.415 . S
C3081 H3057 0.951 . S
C3081 C3082 1.366 . S
C3081 C3083 1.388 . S
C3082 C3081 1.366 . S
C3082 C3086 1.385 . S
C3083 H3058 0.951 . S
C3083 C3081 1.388 . S
C3083 C3084 1.366 . S
C3084 C3083 1.366 . S
C3084 C3085 1.414 . S
C3084 C3087 1.499 . S
C3085 H3059 0.950 . S
C3085 C3084 1.414 . S
C3085 C3086 1.374 . S
C3086 H3060 0.950 . S
C3086 C3082 1.385 . S
C3086 C3085 1.374 . S
C3087 C3084 1.499 . S
C3087 C3088 1.373 . S
C3087 C3089 1.389 . S
C3088 H3061 0.950 . S
C3088 C3074 1.377 . S
C3088 C3087 1.373 . S
C3089 C3073 1.377 . S
C3089 C3087 1.389 . S
C3089 C3090 1.524 . S
C3090 C3089 1.524 . S
C3090 C3091 1.397 . S
C3090 C3095 1.363 . S
C3091 H3062 0.950 . S
C3091 C3090 1.397 . S
C3091 C3092 1.334 . S
C3092 H3063 0.950 . S
C3092 C3091 1.334 . S
C3092 C3093 1.287 . S
C3093 C3092 1.287 . S
C3093 C3094 1.524 . S
C3093 H3096 0.999 . S
C3094 H3064 0.950 . S
C3094 C3093 1.524 . S
C3094 C3095 1.415 . S
C3095 H3065 0.950 . S
C3095 C3090 1.363 . S
C3095 C3094 1.415 . S
H3096 C3093 0.999 . S
H3097 C3078 0.913 . S
H3098 C3116 0.951 . S
H3099 C3118 0.951 . S
H3100 C3120 0.950 . S
H3101 C3121 0.950 . S
H3102 C3123 0.950 . S
H3103 C3126 0.950 . S
H3104 C3127 0.950 . S
H3105 C3129 0.950 . S
H3106 C3130 0.950 . S
H3107 C3131 0.951 . S
H3108 C3133 0.951 . S
H3109 C3135 0.950 . S
H3110 C3136 0.950 . S
H3111 C3138 0.950 . S
H3112 C3141 0.950 . S
H3113 C3142 0.950 . S
H3114 C3144 0.950 . S
H3115 C3145 0.950 . S
C3116 H3098 0.951 . S
C3116 C3117 1.366 . S
C3116 C3118 1.388 . S
C3117 C3116 1.366 . S
C3117 C3121 1.385 . S
C3118 H3099 0.951 . S
C3118 C3116 1.388 . S
C3118 C3119 1.366 . S
C3119 C3118 1.366 . S
C3119 C3120 1.414 . S
C3119 C3122 1.499 . S
C3120 H3100 0.950 . S
C3120 C3119 1.414 . S
C3120 C3121 1.374 . S
C3121 H3101 0.950 . S
C3121 C3117 1.385 . S
C3121 C3120 1.374 . S
C3122 C3119 1.499 . S
C3122 C3123 1.373 . S
C3122 C3124 1.389 . S
C3123 H3102 0.950 . S
C3123 C3122 1.373 . S
C3123 C3139 1.377 . S
C3124 C3122 1.389 . S
C3124 C3125 1.524 . S
C3124 C3138 1.377 . S
C3125 C3124 1.524 . S
C3125 C3126 1.397 . S
C3125 C3130 1.363 . S
C3126 H3103 0.950 . S
C3126 C3125 1.397 . S
C3126 C3127 1.334 . S
C3127 H3104 0.950 . S
C3127 C3126 1.334 . S
C3127 C3128 1.287 . S
C3128 C3127 1.287 . S
C3128 C3129 1.524 . S
C3128 H3147 0.913 . S
C3129 H3105 0.950 . S
C3129 C3128 1.524 . S
C3129 C3130 1.415 . S
C3130 H3106 0.950 . S
C3130 C3125 1.363 . S
C3130 C3129 1.415 . S
C3131 H3107 0.951 . S
C3131 C3132 1.366 . S
C3131 C3133 1.388 . S
C3132 C3131 1.366 . S
C3132 C3136 1.385 . S
C3133 H3108 0.951 . S
C3133 C3131 1.388 . S
C3133 C3134 1.366 . S
C3134 C3133 1.366 . S
C3134 C3135 1.414 . S
C3134 C3137 1.499 . S
C3135 H3109 0.950 . S
C3135 C3134 1.414 . S
C3135 C3136 1.374 . S
C3136 H3110 0.950 . S
C3136 C3132 1.385 . S
C3136 C3135 1.374 . S
C3137 C3134 1.499 . S
C3137 C3138 1.373 . S
C3137 C3139 1.389 . S
C3138 H3111 0.950 . S
C3138 C3124 1.377 . S
C3138 C3137 1.373 . S
C3139 C3123 1.377 . S
C3139 C3137 1.389 . S
C3139 C3140 1.524 . S
C3140 C3139 1.524 . S
C3140 C3141 1.397 . S
C3140 C3145 1.363 . S
C3141 H3112 0.950 . S
C3141 C3140 1.397 . S
C3141 C3142 1.334 . S
C3142 H3113 0.950 . S
C3142 C3141 1.334 . S
C3142 C3143 1.287 . S
C3143 C3142 1.287 . S
C3143 C3144 1.524 . S
C3143 H3146 0.999 . S
C3144 H3114 0.950 . S
C3144 C3143 1.524 . S
C3144 C3145 1.415 . S
C3145 H3115 0.950 . S
C3145 C3140 1.363 . S
C3145 C3144 1.415 . S
H3146 C3143 0.999 . S
H3147 C3128 0.913 . S
H3148 C3166 0.951 . S
H3149 C3168 0.951 . S
H3150 C3170 0.950 . S
H3151 C3171 0.950 . S
H3152 C3173 0.950 . S
H3153 C3176 0.950 . S
H3154 C3177 0.950 . S
H3155 C3179 0.950 . S
H3156 C3180 0.950 . S
H3157 C3181 0.951 . S
H3158 C3183 0.951 . S
H3159 C3185 0.950 . S
H3160 C3186 0.950 . S
H3161 C3188 0.950 . S
H3162 C3191 0.950 . S
H3163 C3192 0.950 . S
H3164 C3194 0.950 . S
H3165 C3195 0.950 . S
C3166 H3148 0.951 . S
C3166 C3167 1.366 . S
C3166 C3168 1.388 . S
C3167 C3166 1.366 . S
C3167 C3171 1.385 . S
C3168 H3149 0.951 . S
C3168 C3166 1.388 . S
C3168 C3169 1.366 . S
C3169 C3168 1.366 . S
C3169 C3170 1.414 . S
C3169 C3172 1.499 . S
C3170 H3150 0.950 . S
C3170 C3169 1.414 . S
C3170 C3171 1.374 . S
C3171 H3151 0.950 . S
C3171 C3167 1.385 . S
C3171 C3170 1.374 . S
C3172 C3169 1.499 . S
C3172 C3173 1.373 . S
C3172 C3174 1.389 . S
C3173 H3152 0.950 . S
C3173 C3172 1.373 . S
C3173 C3189 1.377 . S
C3174 C3172 1.389 . S
C3174 C3175 1.524 . S
C3174 C3188 1.377 . S
C3175 C3174 1.524 . S
C3175 C3176 1.397 . S
C3175 C3180 1.363 . S
C3176 H3153 0.950 . S
C3176 C3175 1.397 . S
C3176 C3177 1.334 . S
C3177 H3154 0.950 . S
C3177 C3176 1.334 . S
C3177 C3178 1.287 . S
C3178 C3177 1.287 . S
C3178 C3179 1.524 . S
C3178 H3197 0.913 . S
C3179 H3155 0.950 . S
C3179 C3178 1.524 . S
C3179 C3180 1.415 . S
C3180 H3156 0.950 . S
C3180 C3175 1.363 . S
C3180 C3179 1.415 . S
C3181 H3157 0.951 . S
C3181 C3182 1.366 . S
C3181 C3183 1.388 . S
C3182 C3181 1.366 . S
C3182 C3186 1.385 . S
C3183 H3158 0.951 . S
C3183 C3181 1.388 . S
C3183 C3184 1.366 . S
C3184 C3183 1.366 . S
C3184 C3185 1.414 . S
C3184 C3187 1.499 . S
C3185 H3159 0.950 . S
C3185 C3184 1.414 . S
C3185 C3186 1.374 . S
C3186 H3160 0.950 . S
C3186 C3182 1.385 . S
C3186 C3185 1.374 . S
C3187 C3184 1.499 . S
C3187 C3188 1.373 . S
C3187 C3189 1.389 . S
C3188 H3161 0.950 . S
C3188 C3174 1.377 . S
C3188 C3187 1.373 . S
C3189 C3173 1.377 . S
C3189 C3187 1.389 . S
C3189 C3190 1.524 . S
C3190 C3189 1.524 . S
C3190 C3191 1.397 . S
C3190 C3195 1.363 . S
C3191 H3162 0.950 . S
C3191 C3190 1.397 . S
C3191 C3192 1.334 . S
C3192 H3163 0.950 . S
C3192 C3191 1.334 . S
C3192 C3193 1.287 1_655 S
C3193 C3192 1.287 1_455 S
C3193 C3194 1.524 . S
C3193 H3196 0.999 . S
C3194 H3164 0.950 . S
C3194 C3193 1.524 . S
C3194 C3195 1.415 1_455 S
C3195 H3165 0.950 . S
C3195 C3190 1.363 . S
C3195 C3194 1.415 1_655 S
H3196 C3193 0.999 . S
H3197 C3178 0.913 . S
H3198 C3216 0.951 . S
H3199 C3218 0.951 . S
H3200 C3220 0.950 . S
H3201 C3221 0.950 . S
H3202 C3223 0.950 . S
H3203 C3226 0.950 . S
H3204 C3227 0.950 1_455 S
H3205 C3229 0.950 . S
H3206 C3230 0.950 . S
H3207 C3231 0.951 . S
H3208 C3233 0.951 . S
H3209 C3235 0.950 . S
H3210 C3236 0.950 . S
H3211 C3238 0.950 . S
H3212 C3241 0.950 . S
H3213 C3242 0.950 . S
H3214 C3244 0.950 . S
H3215 C3245 0.950 . S
C3216 H3198 0.951 . S
C3216 C3217 1.366 . S
C3216 C3218 1.388 . S
C3217 C3216 1.366 . S
C3217 C3221 1.385 . S
C3218 H3199 0.951 . S
C3218 C3216 1.388 . S
C3218 C3219 1.366 . S
C3219 C3218 1.366 . S
C3219 C3220 1.414 . S
C3219 C3222 1.499 . S
C3220 H3200 0.950 . S
C3220 C3219 1.414 . S
C3220 C3221 1.374 . S
C3221 H3201 0.950 . S
C3221 C3217 1.385 . S
C3221 C3220 1.374 . S
C3222 C3219 1.499 . S
C3222 C3223 1.373 . S
C3222 C3224 1.389 . S
C3223 H3202 0.950 . S
C3223 C3222 1.373 . S
C3223 C3239 1.377 . S
C3224 C3222 1.389 . S
C3224 C3225 1.524 . S
C3224 C3238 1.377 . S
C3225 C3224 1.524 . S
C3225 C3226 1.397 . S
C3225 C3230 1.363 . S
C3226 H3203 0.950 . S
C3226 C3225 1.397 . S
C3226 C3227 1.334 . S
C3227 H3204 0.950 1_655 S
C3227 C3226 1.334 . S
C3227 C3228 1.287 . S
C3228 C3227 1.287 . S
C3228 C3229 1.524 . S
C3228 H3247 0.913 1_655 S
C3229 H3205 0.950 . S
C3229 C3228 1.524 . S
C3229 C3230 1.415 . S
C3230 H3206 0.950 . S
C3230 C3225 1.363 . S
C3230 C3229 1.415 . S
C3231 H3207 0.951 . S
C3231 C3232 1.366 . S
C3231 C3233 1.388 . S
C3232 C3231 1.366 . S
C3232 C3236 1.385 . S
C3233 H3208 0.951 . S
C3233 C3231 1.388 . S
C3233 C3234 1.366 . S
C3234 C3233 1.366 . S
C3234 C3235 1.414 . S
C3234 C3237 1.499 . S
C3235 H3209 0.950 . S
C3235 C3234 1.414 . S
C3235 C3236 1.374 . S
C3236 H3210 0.950 . S
C3236 C3232 1.385 . S
C3236 C3235 1.374 . S
C3237 C3234 1.499 . S
C3237 C3238 1.373 . S
C3237 C3239 1.389 . S
C3238 H3211 0.950 . S
C3238 C3224 1.377 . S
C3238 C3237 1.373 . S
C3239 C3223 1.377 . S
C3239 C3237 1.389 . S
C3239 C3240 1.524 . S
C3240 C3239 1.524 . S
C3240 C3241 1.397 . S
C3240 C3245 1.363 . S
C3241 H3212 0.950 . S
C3241 C3240 1.397 . S
C3241 C3242 1.334 . S
C3242 H3213 0.950 . S
C3242 C3241 1.334 . S
C3242 C3243 1.287 . S
C3243 C3242 1.287 . S
C3243 C3244 1.524 . S
C3243 H3246 0.999 . S
C3244 H3214 0.950 . S
C3244 C3243 1.524 . S
C3244 C3245 1.415 . S
C3245 H3215 0.950 . S
C3245 C3240 1.363 . S
C3245 C3244 1.415 . S
H3246 C3243 0.999 . S
H3247 C3228 0.913 1_455 S
H3248 C3266 0.951 . S
H3249 C3268 0.951 . S
H3250 C3270 0.950 . S
H3251 C3271 0.950 . S
H3252 C3273 0.950 . S
H3253 C3276 0.950 . S
H3254 C3277 0.950 . S
H3255 C3279 0.950 . S
H3256 C3280 0.950 . S
H3257 C3281 0.951 . S
H3258 C3283 0.951 . S
H3259 C3285 0.950 . S
H3260 C3286 0.950 . S
H3261 C3288 0.950 . S
H3262 C3291 0.950 . S
H3263 C3292 0.950 . S
H3264 C3294 0.950 . S
H3265 C3295 0.950 . S
C3266 H3248 0.951 . S
C3266 C3267 1.366 . S
C3266 C3268 1.388 . S
C3267 C3266 1.366 . S
C3267 C3271 1.385 . S
C3268 H3249 0.951 . S
C3268 C3266 1.388 . S
C3268 C3269 1.366 . S
C3269 C3268 1.366 . S
C3269 C3270 1.414 . S
C3269 C3272 1.499 . S
C3270 H3250 0.950 . S
C3270 C3269 1.414 . S
C3270 C3271 1.374 . S
C3271 H3251 0.950 . S
C3271 C3267 1.385 . S
C3271 C3270 1.374 . S
C3272 C3269 1.499 . S
C3272 C3273 1.373 . S
C3272 C3274 1.389 . S
C3273 H3252 0.950 . S
C3273 C3272 1.373 . S
C3273 C3289 1.377 . S
C3274 C3272 1.389 . S
C3274 C3275 1.524 . S
C3274 C3288 1.377 . S
C3275 C3274 1.524 . S
C3275 C3276 1.397 . S
C3275 C3280 1.363 . S
C3276 H3253 0.950 . S
C3276 C3275 1.397 . S
C3276 C3277 1.334 . S
C3277 H3254 0.950 . S
C3277 C3276 1.334 . S
C3277 C3278 1.287 . S
C3278 C3277 1.287 . S
C3278 C3279 1.524 . S
C3278 H3297 0.913 . S
C3279 H3255 0.950 . S
C3279 C3278 1.524 . S
C3279 C3280 1.415 . S
C3280 H3256 0.950 . S
C3280 C3275 1.363 . S
C3280 C3279 1.415 . S
C3281 H3257 0.951 . S
C3281 C3282 1.366 . S
C3281 C3283 1.388 . S
C3282 C3281 1.366 . S
C3282 C3286 1.385 . S
C3283 H3258 0.951 . S
C3283 C3281 1.388 . S
C3283 C3284 1.366 . S
C3284 C3283 1.366 . S
C3284 C3285 1.414 . S
C3284 C3287 1.499 . S
C3285 H3259 0.950 . S
C3285 C3284 1.414 . S
C3285 C3286 1.374 . S
C3286 H3260 0.950 . S
C3286 C3282 1.385 . S
C3286 C3285 1.374 . S
C3287 C3284 1.499 . S
C3287 C3288 1.373 . S
C3287 C3289 1.389 . S
C3288 H3261 0.950 . S
C3288 C3274 1.377 . S
C3288 C3287 1.373 . S
C3289 C3273 1.377 . S
C3289 C3287 1.389 . S
C3289 C3290 1.524 . S
C3290 C3289 1.524 . S
C3290 C3291 1.397 . S
C3290 C3295 1.363 . S
C3291 H3262 0.950 . S
C3291 C3290 1.397 . S
C3291 C3292 1.334 . S
C3292 H3263 0.950 . S
C3292 C3291 1.334 . S
C3292 C3293 1.287 . S
C3293 C3292 1.287 . S
C3293 C3294 1.524 . S
C3293 H3296 0.999 . S
C3294 H3264 0.950 . S
C3294 C3293 1.524 . S
C3294 C3295 1.415 . S
C3295 H3265 0.950 . S
C3295 C3290 1.363 . S
C3295 C3294 1.415 . S
H3296 C3293 0.999 . S
H3297 C3278 0.913 . S
H3298 C3316 0.951 . S
H3299 C3318 0.951 . S
H3300 C3320 0.950 . S
H3301 C3321 0.950 . S
H3302 C3323 0.950 . S
H3303 C3326 0.950 . S
H3304 C3327 0.950 . S
H3305 C3329 0.950 . S
H3306 C3330 0.950 . S
H3307 C3331 0.951 . S
H3308 C3333 0.951 . S
H3309 C3335 0.950 . S
H3310 C3336 0.950 . S
H3311 C3338 0.950 . S
H3312 C3341 0.950 . S
H3313 C3342 0.950 . S
H3314 C3344 0.950 . S
H3315 C3345 0.950 . S
C3316 H3298 0.951 . S
C3316 C3317 1.366 . S
C3316 C3318 1.388 . S
C3317 C3316 1.366 . S
C3317 C3321 1.385 . S
C3318 H3299 0.951 . S
C3318 C3316 1.388 . S
C3318 C3319 1.366 . S
C3319 C3318 1.366 . S
C3319 C3320 1.414 . S
C3319 C3322 1.499 . S
C3320 H3300 0.950 . S
C3320 C3319 1.414 . S
C3320 C3321 1.374 . S
C3321 H3301 0.950 . S
C3321 C3317 1.385 . S
C3321 C3320 1.374 . S
C3322 C3319 1.499 . S
C3322 C3323 1.373 . S
C3322 C3324 1.389 . S
C3323 H3302 0.950 . S
C3323 C3322 1.373 . S
C3323 C3339 1.377 . S
C3324 C3322 1.389 . S
C3324 C3325 1.524 . S
C3324 C3338 1.377 . S
C3325 C3324 1.524 . S
C3325 C3326 1.397 . S
C3325 C3330 1.363 . S
C3326 H3303 0.950 . S
C3326 C3325 1.397 . S
C3326 C3327 1.334 . S
C3327 H3304 0.950 . S
C3327 C3326 1.334 . S
C3327 C3328 1.287 . S
C3328 C3327 1.287 . S
C3328 C3329 1.524 . S
C3328 H3347 0.913 . S
C3329 H3305 0.950 . S
C3329 C3328 1.524 . S
C3329 C3330 1.415 . S
C3330 H3306 0.950 . S
C3330 C3325 1.363 . S
C3330 C3329 1.415 . S
C3331 H3307 0.951 . S
C3331 C3332 1.366 . S
C3331 C3333 1.388 . S
C3332 C3331 1.366 . S
C3332 C3336 1.385 . S
C3333 H3308 0.951 . S
C3333 C3331 1.388 . S
C3333 C3334 1.366 . S
C3334 C3333 1.366 . S
C3334 C3335 1.414 . S
C3334 C3337 1.499 . S
C3335 H3309 0.950 . S
C3335 C3334 1.414 . S
C3335 C3336 1.374 . S
C3336 H3310 0.950 . S
C3336 C3332 1.385 . S
C3336 C3335 1.374 . S
C3337 C3334 1.499 . S
C3337 C3338 1.373 . S
C3337 C3339 1.389 . S
C3338 H3311 0.950 . S
C3338 C3324 1.377 . S
C3338 C3337 1.373 . S
C3339 C3323 1.377 . S
C3339 C3337 1.389 . S
C3339 C3340 1.524 . S
C3340 C3339 1.524 . S
C3340 C3341 1.397 . S
C3340 C3345 1.363 . S
C3341 H3312 0.950 . S
C3341 C3340 1.397 . S
C3341 C3342 1.334 . S
C3342 H3313 0.950 . S
C3342 C3341 1.334 . S
C3342 C3343 1.287 . S
C3343 C3342 1.287 . S
C3343 C3344 1.524 . S
C3343 H3346 0.999 . S
C3344 H3314 0.950 . S
C3344 C3343 1.524 . S
C3344 C3345 1.415 . S
C3345 H3315 0.950 . S
C3345 C3340 1.363 . S
C3345 C3344 1.415 . S
H3346 C3343 0.999 . S
H3347 C3328 0.913 . S
H3348 C3366 0.951 . S
H3349 C3368 0.951 . S
H3350 C3370 0.950 . S
H3351 C3371 0.950 . S
H3352 C3373 0.950 . S
H3353 C3376 0.950 . S
H3354 C3377 0.950 . S
H3355 C3379 0.950 . S
H3356 C3380 0.950 . S
H3357 C3381 0.951 . S
H3358 C3383 0.951 . S
H3359 C3385 0.950 . S
H3360 C3386 0.950 . S
H3361 C3388 0.950 . S
H3362 C3391 0.950 . S
H3363 C3392 0.950 . S
H3364 C3394 0.950 . S
H3365 C3395 0.950 . S
C3366 H3348 0.951 . S
C3366 C3367 1.366 . S
C3366 C3368 1.388 . S
C3367 C3366 1.366 . S
C3367 C3371 1.385 . S
C3368 H3349 0.951 . S
C3368 C3366 1.388 . S
C3368 C3369 1.366 . S
C3369 C3368 1.366 . S
C3369 C3370 1.414 . S
C3369 C3372 1.499 . S
C3370 H3350 0.950 . S
C3370 C3369 1.414 . S
C3370 C3371 1.374 . S
C3371 H3351 0.950 . S
C3371 C3367 1.385 . S
C3371 C3370 1.374 . S
C3372 C3369 1.499 . S
C3372 C3373 1.373 . S
C3372 C3374 1.389 . S
C3373 H3352 0.950 . S
C3373 C3372 1.373 . S
C3373 C3389 1.377 . S
C3374 C3372 1.389 . S
C3374 C3375 1.524 . S
C3374 C3388 1.377 . S
C3375 C3374 1.524 . S
C3375 C3376 1.397 . S
C3375 C3380 1.363 . S
C3376 H3353 0.950 . S
C3376 C3375 1.397 . S
C3376 C3377 1.334 . S
C3377 H3354 0.950 . S
C3377 C3376 1.334 . S
C3377 C3378 1.287 . S
C3378 C3377 1.287 . S
C3378 C3379 1.524 . S
C3378 H3397 0.913 . S
C3379 H3355 0.950 . S
C3379 C3378 1.524 . S
C3379 C3380 1.415 . S
C3380 H3356 0.950 . S
C3380 C3375 1.363 . S
C3380 C3379 1.415 . S
C3381 H3357 0.951 . S
C3381 C3382 1.366 . S
C3381 C3383 1.388 . S
C3382 C3381 1.366 . S
C3382 C3386 1.385 . S
C3383 H3358 0.951 . S
C3383 C3381 1.388 . S
C3383 C3384 1.366 . S
C3384 C3383 1.366 . S
C3384 C3385 1.414 . S
C3384 C3387 1.499 . S
C3385 H3359 0.950 . S
C3385 C3384 1.414 . S
C3385 C3386 1.374 . S
C3386 H3360 0.950 . S
C3386 C3382 1.385 . S
C3386 C3385 1.374 . S
C3387 C3384 1.499 . S
C3387 C3388 1.373 . S
C3387 C3389 1.389 . S
C3388 H3361 0.950 . S
C3388 C3374 1.377 . S
C3388 C3387 1.373 . S
C3389 C3373 1.377 . S
C3389 C3387 1.389 . S
C3389 C3390 1.524 . S
C3390 C3389 1.524 . S
C3390 C3391 1.397 . S
C3390 C3395 1.363 . S
C3391 H3362 0.950 . S
C3391 C3390 1.397 . S
C3391 C3392 1.334 . S
C3392 H3363 0.950 . S
C3392 C3391 1.334 . S
C3392 C3393 1.287 . S
C3393 C3392 1.287 . S
C3393 C3394 1.524 . S
C3393 H3396 0.999 . S
C3394 H3364 0.950 . S
C3394 C3393 1.524 . S
C3394 C3395 1.415 . S
C3395 H3365 0.950 . S
C3395 C3390 1.363 . S
C3395 C3394 1.415 . S
H3396 C3393 0.999 . S
H3397 C3378 0.913 . S
H3398 C3416 0.951 . S
H3399 C3418 0.951 . S
H3400 C3420 0.950 . S
H3401 C3421 0.950 . S
H3402 C3423 0.950 . S
H3403 C3426 0.950 . S
H3404 C3427 0.950 . S
H3405 C3429 0.950 . S
H3406 C3430 0.950 . S
H3407 C3431 0.951 . S
H3408 C3433 0.951 . S
H3409 C3435 0.950 . S
H3410 C3436 0.950 . S
H3411 C3438 0.950 . S
H3412 C3441 0.950 . S
H3413 C3442 0.950 . S
H3414 C3444 0.950 . S
H3415 C3445 0.950 . S
C3416 H3398 0.951 . S
C3416 C3417 1.366 . S
C3416 C3418 1.388 . S
C3417 C3416 1.366 . S
C3417 C3421 1.385 . S
C3418 H3399 0.951 . S
C3418 C3416 1.388 . S
C3418 C3419 1.366 . S
C3419 C3418 1.366 . S
C3419 C3420 1.414 . S
C3419 C3422 1.499 . S
C3420 H3400 0.950 . S
C3420 C3419 1.414 . S
C3420 C3421 1.374 . S
C3421 H3401 0.950 . S
C3421 C3417 1.385 . S
C3421 C3420 1.374 . S
C3422 C3419 1.499 . S
C3422 C3423 1.373 . S
C3422 C3424 1.389 . S
C3423 H3402 0.950 . S
C3423 C3422 1.373 . S
C3423 C3439 1.377 . S
C3424 C3422 1.389 . S
C3424 C3425 1.524 . S
C3424 C3438 1.377 . S
C3425 C3424 1.524 . S
C3425 C3426 1.397 . S
C3425 C3430 1.363 . S
C3426 H3403 0.950 . S
C3426 C3425 1.397 . S
C3426 C3427 1.334 . S
C3427 H3404 0.950 . S
C3427 C3426 1.334 . S
C3427 C3428 1.287 . S
C3428 C3427 1.287 . S
C3428 C3429 1.524 . S
C3428 H3447 0.913 . S
C3429 H3405 0.950 . S
C3429 C3428 1.524 . S
C3429 C3430 1.415 . S
C3430 H3406 0.950 . S
C3430 C3425 1.363 . S
C3430 C3429 1.415 . S
C3431 H3407 0.951 . S
C3431 C3432 1.366 . S
C3431 C3433 1.388 . S
C3432 C3431 1.366 . S
C3432 C3436 1.385 . S
C3433 H3408 0.951 . S
C3433 C3431 1.388 . S
C3433 C3434 1.366 . S
C3434 C3433 1.366 . S
C3434 C3435 1.414 . S
C3434 C3437 1.499 . S
C3435 H3409 0.950 . S
C3435 C3434 1.414 . S
C3435 C3436 1.374 . S
C3436 H3410 0.950 . S
C3436 C3432 1.385 . S
C3436 C3435 1.374 . S
C3437 C3434 1.499 . S
C3437 C3438 1.373 . S
C3437 C3439 1.389 . S
C3438 H3411 0.950 . S
C3438 C3424 1.377 . S
C3438 C3437 1.373 . S
C3439 C3423 1.377 . S
C3439 C3437 1.389 . S
C3439 C3440 1.524 . S
C3440 C3439 1.524 . S
C3440 C3441 1.397 . S
C3440 C3445 1.363 . S
C3441 H3412 0.950 . S
C3441 C3440 1.397 . S
C3441 C3442 1.334 . S
C3442 H3413 0.950 . S
C3442 C3441 1.334 . S
C3442 C3443 1.287 . S
C3443 C3442 1.287 . S
C3443 C3444 1.524 . S
C3443 H3446 0.999 . S
C3444 H3414 0.950 . S
C3444 C3443 1.524 . S
C3444 C3445 1.415 . S
C3445 H3415 0.950 . S
C3445 C3440 1.363 . S
C3445 C3444 1.415 . S
H3446 C3443 0.999 . S
H3447 C3428 0.913 . S
H3448 C3466 0.951 . S
H3449 C3468 0.951 . S
H3450 C3470 0.950 . S
H3451 C3471 0.950 . S
H3452 C3473 0.950 . S
H3453 C3476 0.950 . S
H3454 C3477 0.950 . S
H3455 C3479 0.950 . S
H3456 C3480 0.950 . S
H3457 C3481 0.951 . S
H3458 C3483 0.951 . S
H3459 C3485 0.950 . S
H3460 C3486 0.950 . S
H3461 C3488 0.950 . S
H3462 C3491 0.950 . S
H3463 C3492 0.950 . S
H3464 C3494 0.950 . S
H3465 C3495 0.950 . S
C3466 H3448 0.951 . S
C3466 C3467 1.366 . S
C3466 C3468 1.388 . S
C3467 C3466 1.366 . S
C3467 C3471 1.385 . S
C3468 H3449 0.951 . S
C3468 C3466 1.388 . S
C3468 C3469 1.366 . S
C3469 C3468 1.366 . S
C3469 C3470 1.414 . S
C3469 C3472 1.499 . S
C3470 H3450 0.950 . S
C3470 C3469 1.414 . S
C3470 C3471 1.374 . S
C3471 H3451 0.950 . S
C3471 C3467 1.385 . S
C3471 C3470 1.374 . S
C3472 C3469 1.499 . S
C3472 C3473 1.373 . S
C3472 C3474 1.389 . S
C3473 H3452 0.950 . S
C3473 C3472 1.373 . S
C3473 C3489 1.377 . S
C3474 C3472 1.389 . S
C3474 C3475 1.524 . S
C3474 C3488 1.377 . S
C3475 C3474 1.524 . S
C3475 C3476 1.397 . S
C3475 C3480 1.363 . S
C3476 H3453 0.950 . S
C3476 C3475 1.397 . S
C3476 C3477 1.334 . S
C3477 H3454 0.950 . S
C3477 C3476 1.334 . S
C3477 C3478 1.287 . S
C3478 C3477 1.287 . S
C3478 C3479 1.524 . S
C3478 H3497 0.913 . S
C3479 H3455 0.950 . S
C3479 C3478 1.524 . S
C3479 C3480 1.415 . S
C3480 H3456 0.950 . S
C3480 C3475 1.363 . S
C3480 C3479 1.415 . S
C3481 H3457 0.951 . S
C3481 C3482 1.366 . S
C3481 C3483 1.388 . S
C3482 C3481 1.366 . S
C3482 C3486 1.385 . S
C3483 H3458 0.951 . S
C3483 C3481 1.388 . S
C3483 C3484 1.366 . S
C3484 C3483 1.366 . S
C3484 C3485 1.414 . S
C3484 C3487 1.499 . S
C3485 H3459 0.950 . S
C3485 C3484 1.414 . S
C3485 C3486 1.374 . S
C3486 H3460 0.950 . S
C3486 C3482 1.385 . S
C3486 C3485 1.374 . S
C3487 C3484 1.499 . S
C3487 C3488 1.373 . S
C3487 C3489 1.389 . S
C3488 H3461 0.950 . S
C3488 C3474 1.377 . S
C3488 C3487 1.373 . S
C3489 C3473 1.377 . S
C3489 C3487 1.389 . S
C3489 C3490 1.524 . S
C3490 C3489 1.524 . S
C3490 C3491 1.397 . S
C3490 C3495 1.363 . S
C3491 H3462 0.950 . S
C3491 C3490 1.397 . S
C3491 C3492 1.334 . S
C3492 H3463 0.950 . S
C3492 C3491 1.334 . S
C3492 C3493 1.287 . S
C3493 C3492 1.287 . S
C3493 C3494 1.524 . S
C3493 H3496 0.999 . S
C3494 H3464 0.950 . S
C3494 C3493 1.524 . S
C3494 C3495 1.415 . S
C3495 H3465 0.950 . S
C3495 C3490 1.363 . S
C3495 C3494 1.415 . S
H3496 C3493 0.999 . S
H3497 C3478 0.913 . S
H3498 C3516 0.951 . S
H3499 C3518 0.951 . S
H3500 C3520 0.950 . S
H3501 C3521 0.950 . S
H3502 C3523 0.950 . S
H3503 C3526 0.950 . S
H3504 C3527 0.950 . S
H3505 C3529 0.950 . S
H3506 C3530 0.950 . S
H3507 C3531 0.951 . S
H3508 C3533 0.951 . S
H3509 C3535 0.950 . S
H3510 C3536 0.950 . S
H3511 C3538 0.950 . S
H3512 C3541 0.950 . S
H3513 C3542 0.950 . S
H3514 C3544 0.950 . S
H3515 C3545 0.950 . S
C3516 H3498 0.951 . S
C3516 C3517 1.366 . S
C3516 C3518 1.388 . S
C3517 C3516 1.366 . S
C3517 C3521 1.385 . S
C3518 H3499 0.951 . S
C3518 C3516 1.388 . S
C3518 C3519 1.366 . S
C3519 C3518 1.366 . S
C3519 C3520 1.414 . S
C3519 C3522 1.499 . S
C3520 H3500 0.950 . S
C3520 C3519 1.414 . S
C3520 C3521 1.374 . S
C3521 H3501 0.950 . S
C3521 C3517 1.385 . S
C3521 C3520 1.374 . S
C3522 C3519 1.499 . S
C3522 C3523 1.373 . S
C3522 C3524 1.389 . S
C3523 H3502 0.950 . S
C3523 C3522 1.373 . S
C3523 C3539 1.377 . S
C3524 C3522 1.389 . S
C3524 C3525 1.524 . S
C3524 C3538 1.377 . S
C3525 C3524 1.524 . S
C3525 C3526 1.397 . S
C3525 C3530 1.363 . S
C3526 H3503 0.950 . S
C3526 C3525 1.397 . S
C3526 C3527 1.334 . S
C3527 H3504 0.950 . S
C3527 C3526 1.334 . S
C3527 C3528 1.287 . S
C3528 C3527 1.287 . S
C3528 C3529 1.524 . S
C3528 H3547 0.913 . S
C3529 H3505 0.950 . S
C3529 C3528 1.524 . S
C3529 C3530 1.415 . S
C3530 H3506 0.950 . S
C3530 C3525 1.363 . S
C3530 C3529 1.415 . S
C3531 H3507 0.951 . S
C3531 C3532 1.366 . S
C3531 C3533 1.388 . S
C3532 C3531 1.366 . S
C3532 C3536 1.385 . S
C3533 H3508 0.951 . S
C3533 C3531 1.388 . S
C3533 C3534 1.366 . S
C3534 C3533 1.366 . S
C3534 C3535 1.414 . S
C3534 C3537 1.499 . S
C3535 H3509 0.950 . S
C3535 C3534 1.414 . S
C3535 C3536 1.374 . S
C3536 H3510 0.950 . S
C3536 C3532 1.385 . S
C3536 C3535 1.374 . S
C3537 C3534 1.499 . S
C3537 C3538 1.373 . S
C3537 C3539 1.389 . S
C3538 H3511 0.950 . S
C3538 C3524 1.377 . S
C3538 C3537 1.373 . S
C3539 C3523 1.377 . S
C3539 C3537 1.389 . S
C3539 C3540 1.524 . S
C3540 C3539 1.524 . S
C3540 C3541 1.397 . S
C3540 C3545 1.363 . S
C3541 H3512 0.950 . S
C3541 C3540 1.397 . S
C3541 C3542 1.334 . S
C3542 H3513 0.950 . S
C3542 C3541 1.334 . S
C3542 C3543 1.287 . S
C3543 C3542 1.287 . S
C3543 C3544 1.524 . S
C3543 H3546 0.999 . S
C3544 H3514 0.950 . S
C3544 C3543 1.524 . S
C3544 C3545 1.415 . S
C3545 H3515 0.950 . S
C3545 C3540 1.363 . S
C3545 C3544 1.415 . S
H3546 C3543 0.999 . S
H3547 C3528 0.913 . S
H3548 C3566 0.951 . S
H3549 C3568 0.951 . S
H3550 C3570 0.950 . S
H3551 C3571 0.950 . S
H3552 C3573 0.950 . S
H3553 C3576 0.950 . S
H3554 C3577 0.950 . S
H3555 C3579 0.950 . S
H3556 C3580 0.950 . S
H3557 C3581 0.951 . S
H3558 C3583 0.951 . S
H3559 C3585 0.950 . S
H3560 C3586 0.950 . S
H3561 C3588 0.950 . S
H3562 C3591 0.950 . S
H3563 C3592 0.950 . S
H3564 C3594 0.950 . S
H3565 C3595 0.950 . S
C3566 H3548 0.951 . S
C3566 C3567 1.366 . S
C3566 C3568 1.388 . S
C3567 C3566 1.366 . S
C3567 C3571 1.385 . S
C3568 H3549 0.951 . S
C3568 C3566 1.388 . S
C3568 C3569 1.366 . S
C3569 C3568 1.366 . S
C3569 C3570 1.414 . S
C3569 C3572 1.499 . S
C3570 H3550 0.950 . S
C3570 C3569 1.414 . S
C3570 C3571 1.374 . S
C3571 H3551 0.950 . S
C3571 C3567 1.385 . S
C3571 C3570 1.374 . S
C3572 C3569 1.499 . S
C3572 C3573 1.373 . S
C3572 C3574 1.389 . S
C3573 H3552 0.950 . S
C3573 C3572 1.373 . S
C3573 C3589 1.377 . S
C3574 C3572 1.389 . S
C3574 C3575 1.524 . S
C3574 C3588 1.377 . S
C3575 C3574 1.524 . S
C3575 C3576 1.397 . S
C3575 C3580 1.363 . S
C3576 H3553 0.950 . S
C3576 C3575 1.397 . S
C3576 C3577 1.334 . S
C3577 H3554 0.950 . S
C3577 C3576 1.334 . S
C3577 C3578 1.287 . S
C3578 C3577 1.287 . S
C3578 C3579 1.524 . S
C3578 H3597 0.913 . S
C3579 H3555 0.950 . S
C3579 C3578 1.524 . S
C3579 C3580 1.415 . S
C3580 H3556 0.950 . S
C3580 C3575 1.363 . S
C3580 C3579 1.415 . S
C3581 H3557 0.951 . S
C3581 C3582 1.366 . S
C3581 C3583 1.388 . S
C3582 C3581 1.366 . S
C3582 C3586 1.385 . S
C3583 H3558 0.951 . S
C3583 C3581 1.388 . S
C3583 C3584 1.366 . S
C3584 C3583 1.366 . S
C3584 C3585 1.414 . S
C3584 C3587 1.499 . S
C3585 H3559 0.950 . S
C3585 C3584 1.414 . S
C3585 C3586 1.374 . S
C3586 H3560 0.950 . S
C3586 C3582 1.385 . S
C3586 C3585 1.374 . S
C3587 C3584 1.499 . S
C3587 C3588 1.373 . S
C3587 C3589 1.389 . S
C3588 H3561 0.950 . S
C3588 C3574 1.377 . S
C3588 C3587 1.373 . S
C3589 C3573 1.377 . S
C3589 C3587 1.389 . S
C3589 C3590 1.524 . S
C3590 C3589 1.524 . S
C3590 C3591 1.397 . S
C3590 C3595 1.363 . S
C3591 H3562 0.950 . S
C3591 C3590 1.397 . S
C3591 C3592 1.334 . S
C3592 H3563 0.950 . S
C3592 C3591 1.334 . S
C3592 C3593 1.287 . S
C3593 C3592 1.287 . S
C3593 C3594 1.524 . S
C3593 H3596 0.999 . S
C3594 H3564 0.950 . S
C3594 C3593 1.524 . S
C3594 C3595 1.415 . S
C3595 H3565 0.950 . S
C3595 C3590 1.363 . S
C3595 C3594 1.415 . S
H3596 C3593 0.999 . S
H3597 C3578 0.913 . S
H3598 C3616 0.951 . S
H3599 C3618 0.951 . S
H3600 C3620 0.950 . S
H3601 C3621 0.950 . S
H3602 C3623 0.950 . S
H3603 C3626 0.950 . S
H3604 C3627 0.950 . S
H3605 C3629 0.950 . S
H3606 C3630 0.950 . S
H3607 C3631 0.951 . S
H3608 C3633 0.951 . S
H3609 C3635 0.950 . S
H3610 C3636 0.950 . S
H3611 C3638 0.950 . S
H3612 C3641 0.950 . S
H3613 C3642 0.950 . S
H3614 C3644 0.950 . S
H3615 C3645 0.950 . S
C3616 H3598 0.951 . S
C3616 C3617 1.366 . S
C3616 C3618 1.388 . S
C3617 C3616 1.366 . S
C3617 C3621 1.385 . S
C3618 H3599 0.951 . S
C3618 C3616 1.388 . S
C3618 C3619 1.366 . S
C3619 C3618 1.366 . S
C3619 C3620 1.414 . S
C3619 C3622 1.499 . S
C3620 H3600 0.950 . S
C3620 C3619 1.414 . S
C3620 C3621 1.374 . S
C3621 H3601 0.950 . S
C3621 C3617 1.385 . S
C3621 C3620 1.374 . S
C3622 C3619 1.499 . S
C3622 C3623 1.373 . S
C3622 C3624 1.389 . S
C3623 H3602 0.950 . S
C3623 C3622 1.373 . S
C3623 C3639 1.377 . S
C3624 C3622 1.389 . S
C3624 C3625 1.524 . S
C3624 C3638 1.377 . S
C3625 C3624 1.524 . S
C3625 C3626 1.397 . S
C3625 C3630 1.363 . S
C3626 H3603 0.950 . S
C3626 C3625 1.397 . S
C3626 C3627 1.334 . S
C3627 H3604 0.950 . S
C3627 C3626 1.334 . S
C3627 C3628 1.287 . S
C3628 C3627 1.287 . S
C3628 C3629 1.524 . S
C3628 H3647 0.913 . S
C3629 H3605 0.950 . S
C3629 C3628 1.524 . S
C3629 C3630 1.415 . S
C3630 H3606 0.950 . S
C3630 C3625 1.363 . S
C3630 C3629 1.415 . S
C3631 H3607 0.951 . S
C3631 C3632 1.366 . S
C3631 C3633 1.388 . S
C3632 C3631 1.366 . S
C3632 C3636 1.385 . S
C3633 H3608 0.951 . S
C3633 C3631 1.388 . S
C3633 C3634 1.366 . S
C3634 C3633 1.366 . S
C3634 C3635 1.414 . S
C3634 C3637 1.499 . S
C3635 H3609 0.950 . S
C3635 C3634 1.414 . S
C3635 C3636 1.374 . S
C3636 H3610 0.950 . S
C3636 C3632 1.385 . S
C3636 C3635 1.374 . S
C3637 C3634 1.499 . S
C3637 C3638 1.373 . S
C3637 C3639 1.389 . S
C3638 H3611 0.950 . S
C3638 C3624 1.377 . S
C3638 C3637 1.373 . S
C3639 C3623 1.377 . S
C3639 C3637 1.389 . S
C3639 C3640 1.524 . S
C3640 C3639 1.524 . S
C3640 C3641 1.397 . S
C3640 C3645 1.363 . S
C3641 H3612 0.950 . S
C3641 C3640 1.397 . S
C3641 C3642 1.334 . S
C3642 H3613 0.950 . S
C3642 C3641 1.334 . S
C3642 C3643 1.287 . S
C3643 C3642 1.287 . S
C3643 C3644 1.524 . S
C3643 H3646 0.999 . S
C3644 H3614 0.950 . S
C3644 C3643 1.524 . S
C3644 C3645 1.415 . S
C3645 H3615 0.950 . S
C3645 C3640 1.363 . S
C3645 C3644 1.415 . S
H3646 C3643 0.999 . S
H3647 C3628 0.913 . S
C467 C149 1.147 . S
C482 C9 1.147 . S
C517 C23 1.148 . S
C532 C163 1.147 . S
C567 C37 1.146 . S
C582 C121 1.147 . S
C617 C135 1.147 . S
C632 C51 1.147 . S
C667 C205 1.146 . S
C682 C65 1.147 . S
C717 C79 1.148 . S
C732 C219 1.147 . S
C767 C177 1.148 . S
C782 C93 1.146 . S
C817 C191 1.147 . S
C832 C107 1.148 . S
C867 C373 1.146 . S
C882 C233 1.147 . S
C917 C387 1.147 . S
C932 C247 1.148 . S
C967 C345 1.146 . S
C982 C261 1.147 . S
C1017 C275 1.148 . S
C1032 C359 1.147 . S
C1067 C429 1.148 . S
C1082 C289 1.146 . S
C1117 C443 1.148 . S
C1132 C303 1.147 . S
C1167 C317 1.147 . S
C1182 C401 1.147 . S
C1217 C331 1.147 . S
C1232 C415 1.148 . S
C1267 C277 1.211 . S
C1282 C11 1.212 . S
C1317 C25 1.212 . S
C1332 C263 1.211 . S
C1367 C249 1.212 . S
C1382 C39 1.211 . S
C1417 C235 1.211 . S
C1432 C53 1.211 . S
C1467 C67 1.212 . S
C1482 C333 1.211 . S
C1517 C81 1.212 . S
C1532 C319 1.211 . S
C1567 C305 1.211 . S
C1582 C95 1.212 . S
C1617 C109 1.212 . S
C1632 C291 1.211 . S
C1667 C389 1.211 . S
C1682 C123 1.212 . S
C1717 C375 1.212 . S
C1732 C137 1.211 . S
C1767 C361 1.211 . S
C1782 C151 1.212 . S
C1817 C347 1.211 . S
C1832 C165 1.212 . S
C1867 C179 1.211 . S
C1882 C445 1.211 . S
C1917 C431 1.211 . S
C1932 C193 1.212 . S
C1967 C207 1.211 . S
C1982 C417 1.211 . S
C2017 C221 1.212 . S
C2032 C403 1.211 . S
C2067 C168 1.200 . S
C2082 C0 1.200 . S
C2117 C14 1.200 . S
C2132 C294 1.200 . S
C2167 C84 1.200 . S
C2182 C28 1.200 . S
C2217 C434 1.200 . S
C2232 C42 1.200 . S
C2267 C56 1.200 . S
C2282 C112 1.200 . S
C2317 C238 1.200 . S
C2332 C70 1.200 . S
C2367 C378 1.200 . S
C2382 C98 1.200 . S
C2417 C406 1.200 . S
C2432 C126 1.200 . S
C2467 C140 1.200 . S
C2482 C196 1.200 . S
C2517 C322 1.200 . S
C2532 C154 1.200 . S
C2567 C350 1.200 . S
C2582 C182 1.200 . S
C2617 C210 1.200 . S
C2632 C266 1.200 . S
C2667 C224 1.199 . S
C2682 C392 1.199 . S
C2717 C308 1.199 . S
C2732 C252 1.199 . S
C2767 C336 1.201 . S
C2782 C280 1.201 . S
C2817 C364 1.200 . S
C2832 C420 1.200 . S
C2867 C5 0.875 . S
C2882 C47 0.874 . S
C2917 C33 0.874 . S
C2932 C19 0.874 . S
C2967 C61 0.875 . S
C2982 C103 0.875 . S
C3017 C75 0.874 . S
C3032 C89 0.874 . S
C3067 C117 0.874 . S
C3082 C159 0.874 . S
C3117 C131 0.874 . S
C3132 C145 0.875 . S
C3167 C173 0.875 . S
C3182 C215 0.875 . S
C3217 C201 0.874 . S
C3232 C187 0.874 . S
C3267 C271 0.874 . S
C3282 C229 0.874 . S
C3317 C257 0.875 . S
C3332 C243 0.874 . S
C3367 C327 0.874 . S
C3382 C285 0.875 . S
C3417 C313 0.875 . S
C3432 C299 0.874 . S
C3467 C383 0.875 . S
C3482 C341 0.874 . S
C3517 C369 0.874 . S
C3532 C355 0.874 . S
C3567 C397 0.875 . S
C3582 C439 0.874 . S
C3617 C425 0.874 . S
C3632 C411 0.875 . S
