# Generated by pormake.
# Topology pcb, (4)-cn, num edge types: 1
# Building blocks:
#     Node 0, Type 0, BuildingBlock: ICAMEG_clean_sbu_1, # of connection points: 4
#     Node 1, Type 0, BuildingBlock: ICAMEG_clean_sbu_1, # of connection points: 4
#     Node 2, Type 0, BuildingBlock: ICAMEG_clean_sbu_1, # of connection points: 4
#     Node 3, Type 0, BuildingBlock: ICAMEG_clean_sbu_1, # of connection points: 4
#     Node 4, Type 0, BuildingBlock: ICAMEG_clean_sbu_1, # of connection points: 4
#     Node 5, Type 0, BuildingBlock: ICAMEG_clean_sbu_1, # of connection points: 4
#     Node 6, Type 0, BuildingBlock: ICAMEG_clean_sbu_1, # of connection points: 4
#     Node 7, Type 0, BuildingBlock: ICAMEG_clean_sbu_1, # of connection points: 4
#     Node 8, Type 0, BuildingBlock: ICAMEG_clean_sbu_1, # of connection points: 4
#     Node 9, Type 0, BuildingBlock: ICAMEG_clean_sbu_1, # of connection points: 4
#     Node 10, Type 0, BuildingBlock: ICAMEG_clean_sbu_1, # of connection points: 4
#     Node 11, Type 0, BuildingBlock: ICAMEG_clean_sbu_1, # of connection points: 4
#     Node 12, Type 0, BuildingBlock: ICAMEG_clean_sbu_1, # of connection points: 4
#     Node 13, Type 0, BuildingBlock: ICAMEG_clean_sbu_1, # of connection points: 4
#     Node 14, Type 0, BuildingBlock: ICAMEG_clean_sbu_1, # of connection points: 4
#     Node 15, Type 0, BuildingBlock: ICAMEG_clean_sbu_1, # of connection points: 4
#     Edge 16, Type (0, 0), BuildingBlock: AJUNOK_clean_linker_0, # of connection points: 2
#     Edge 17, Type (0, 0), BuildingBlock: AJUNOK_clean_linker_0, # of connection points: 2
#     Edge 18, Type (0, 0), BuildingBlock: AJUNOK_clean_linker_0, # of connection points: 2
#     Edge 19, Type (0, 0), BuildingBlock: AJUNOK_clean_linker_0, # of connection points: 2
#     Edge 20, Type (0, 0), BuildingBlock: AJUNOK_clean_linker_0, # of connection points: 2
#     Edge 21, Type (0, 0), BuildingBlock: AJUNOK_clean_linker_0, # of connection points: 2
#     Edge 22, Type (0, 0), BuildingBlock: AJUNOK_clean_linker_0, # of connection points: 2
#     Edge 23, Type (0, 0), BuildingBlock: AJUNOK_clean_linker_0, # of connection points: 2
#     Edge 24, Type (0, 0), BuildingBlock: AJUNOK_clean_linker_0, # of connection points: 2
#     Edge 25, Type (0, 0), BuildingBlock: AJUNOK_clean_linker_0, # of connection points: 2
#     Edge 26, Type (0, 0), BuildingBlock: AJUNOK_clean_linker_0, # of connection points: 2
#     Edge 27, Type (0, 0), BuildingBlock: AJUNOK_clean_linker_0, # of connection points: 2
#     Edge 28, Type (0, 0), BuildingBlock: AJUNOK_clean_linker_0, # of connection points: 2
#     Edge 29, Type (0, 0), BuildingBlock: AJUNOK_clean_linker_0, # of connection points: 2
#     Edge 30, Type (0, 0), BuildingBlock: AJUNOK_clean_linker_0, # of connection points: 2
#     Edge 31, Type (0, 0), BuildingBlock: AJUNOK_clean_linker_0, # of connection points: 2
#     Edge 32, Type (0, 0), BuildingBlock: AJUNOK_clean_linker_0, # of connection points: 2
#     Edge 33, Type (0, 0), BuildingBlock: AJUNOK_clean_linker_0, # of connection points: 2
#     Edge 34, Type (0, 0), BuildingBlock: AJUNOK_clean_linker_0, # of connection points: 2
#     Edge 35, Type (0, 0), BuildingBlock: AJUNOK_clean_linker_0, # of connection points: 2
#     Edge 36, Type (0, 0), BuildingBlock: AJUNOK_clean_linker_0, # of connection points: 2
#     Edge 37, Type (0, 0), BuildingBlock: AJUNOK_clean_linker_0, # of connection points: 2
#     Edge 38, Type (0, 0), BuildingBlock: AJUNOK_clean_linker_0, # of connection points: 2
#     Edge 39, Type (0, 0), BuildingBlock: AJUNOK_clean_linker_0, # of connection points: 2
#     Edge 40, Type (0, 0), BuildingBlock: AJUNOK_clean_linker_0, # of connection points: 2
#     Edge 41, Type (0, 0), BuildingBlock: AJUNOK_clean_linker_0, # of connection points: 2
#     Edge 42, Type (0, 0), BuildingBlock: AJUNOK_clean_linker_0, # of connection points: 2
#     Edge 43, Type (0, 0), BuildingBlock: AJUNOK_clean_linker_0, # of connection points: 2
#     Edge 44, Type (0, 0), BuildingBlock: AJUNOK_clean_linker_0, # of connection points: 2
#     Edge 45, Type (0, 0), BuildingBlock: AJUNOK_clean_linker_0, # of connection points: 2
#     Edge 46, Type (0, 0), BuildingBlock: AJUNOK_clean_linker_0, # of connection points: 2
#     Edge 47, Type (0, 0), BuildingBlock: AJUNOK_clean_linker_0, # of connection points: 2
# Relax obj value: 0.342
# Max RMSD: 0.266
# Mean RMSD: 0.202
data_MOF--net-pcb--node1-ICAMEG_clean_sbu_1--edge1-AJUNOK_clean_linker_0
_symmetry_space_group_name_H-M    P1
_symmetry_Int_Tables_number       1
_symmetry_cell_setting            triclinic
loop_
_symmetry_equiv_pos_as_xyz
'x, y, z'
_cell_length_a     40.514071
_cell_length_b     32.867907
_cell_length_c     33.535024
_cell_angle_alpha  95.599083
_cell_angle_beta   94.158412
_cell_angle_gamma 99.519969
loop_
_atom_site_label
_atom_site_type_symbol
_atom_site_fract_x
_atom_site_fract_y
_atom_site_fract_z
_atom_type_partial_charge
Co0 Co 0.12906 0.11479 0.12694 0.0
Co1 Co 0.14488 0.21972 0.145 0.0
O2 O 0.15611 0.1656 0.15426 0.0
C3 C 0.11998 0.06249 0.19369 0.0
O4 O 0.08773 0.0637 0.18838 0.0
C5 C 0.21956 0.22856 0.14465 0.0
O6 O 0.21468 0.19517 0.11863 0.0
O7 O 0.14858 0.20674 0.08601 0.0
O8 O 0.1181 0.14271 0.07786 0.0
H9 H 0.08574 0.31758 0.0725 0.0
H10 H 0.1993 0.11464 0.15829 0.0
O11 O 0.14045 0.0852 0.17449 0.0
H12 H 0.19343 0.06514 0.01395 0.0
H13 H 0.10217 0.96105 0.08238 0.0
H14 H 0.06099 0.09416 0.08413 0.0
H15 H 0.14367 0.08436 0.04397 0.0
H16 H 0.13748 0.02561 0.115 0.0
O17 O 0.19432 0.2443 0.15514 0.0
H18 H 0.09877 0.24928 0.08607 0.0
H19 H 0.17021 0.30641 0.1826 0.0
H20 H 0.02452 0.03017 0.05204 0.0
H21 H 0.24947 0.0947 0.12973 0.0
H22 H 0.04517 0.96313 0.05055 0.0
H23 H 0.24676 0.06984 0.05701 0.0
O24 O 0.08937 0.13107 0.15179 0.0
H25 H 0.18045 0.22225 0.29215 0.0
H26 H 0.09459 0.25382 0.19351 0.0
H27 H 0.08808 0.26626 0.26595 0.0
H28 H 0.13127 0.2506 0.31586 0.0
H29 H 0.18571 0.2096 0.21941 0.0
H30 H 0.15815 0.3754 0.16989 0.0
H31 H 0.11554 0.38127 0.1146 0.0
O32 O 0.09483 0.19676 0.13707 0.0
C33 C 0.13185 0.17533 0.06343 0.0
C34 C 0.1043 0.31543 0.09675 0.0
C35 C 0.14497 0.34787 0.15138 0.0
N36 N 0.13506 0.27385 0.13525 0.0
C37 C 0.11173 0.27682 0.10463 0.0
C38 C 0.15177 0.30875 0.15836 0.0
C39 C 0.12105 0.35114 0.12036 0.0
C40 C 0.19778 0.10332 0.12675 0.0
N41 N 0.16844 0.10027 0.10298 0.0
C42 C 0.22635 0.09234 0.11068 0.0
C43 C 0.22483 0.07847 0.06987 0.0
C44 C 0.19493 0.07588 0.04569 0.0
C45 C 0.16686 0.08706 0.06283 0.0
C46 C 0.09291 0.9901 0.0826 0.0
C47 C 0.07011 0.06506 0.08381 0.0
C48 C 0.11283 0.02682 0.10094 0.0
N49 N 0.10145 0.06376 0.10106 0.0
C50 C 0.0494 0.02893 0.06546 0.0
C51 C 0.06101 0.99129 0.06471 0.0
C52 C 0.07768 0.1644 0.1486 0.0
C53 C 0.16151 0.22931 0.2707 0.0
C54 C 0.11348 0.24682 0.21499 0.0
C55 C 0.10967 0.25401 0.256 0.0
C56 C 0.1339 0.24519 0.28398 0.0
N57 N 0.14064 0.23123 0.20216 0.0
C58 C 0.16443 0.22238 0.22945 0.0
Co59 Co 0.86968 0.11645 0.15942 0.0
Co60 Co 0.88901 0.18147 0.2473 0.0
O61 O 0.86117 0.16181 0.19685 0.0
C62 C 0.86181 0.18224 0.10663 0.0
O63 O 0.88113 0.20913 0.1336 0.0
C64 C 0.81918 0.16704 0.26968 0.0
O65 O 0.81687 0.12993 0.25017 0.0
O66 O 0.88265 0.12423 0.26376 0.0
O67 O 0.88451 0.08607 0.20464 0.0
H68 H 0.97835 0.17724 0.35808 0.0
H69 H 0.80335 0.14283 0.15164 0.0
O70 O 0.85462 0.14454 0.11305 0.0
H71 H 0.77933 0.99689 0.17933 0.0
H72 H 0.84894 0.0258 0.0278 0.0
H73 H 0.92584 0.06962 0.15085 0.0
H74 H 0.83751 0.03069 0.17245 0.0
H75 H 0.8327 0.06954 0.08445 0.0
O76 O 0.84717 0.19205 0.27297 0.0
H77 H 0.94397 0.15267 0.29387 0.0
H78 H 0.88999 0.25225 0.31032 0.0
H79 H 0.94267 0.02433 0.09526 0.0
H80 H 0.74481 0.1096 0.15635 0.0
H81 H 0.90442 0.00294 0.03308 0.0
H82 H 0.73257 0.03619 0.17069 0.0
O83 O 0.91673 0.14534 0.15757 0.0
H84 H 0.85108 0.3049 0.19274 0.0
H85 H 0.94866 0.24747 0.24453 0.0
H86 H 0.95742 0.31759 0.22252 0.0
H87 H 0.9084 0.34679 0.19651 0.0
H88 H 0.8435 0.23469 0.21454 0.0
H89 H 0.92344 0.27777 0.37502 0.0
H90 H 0.96814 0.2403 0.39917 0.0
O91 O 0.93144 0.17125 0.22212 0.0
C92 C 0.88478 0.09033 0.24294 0.0
C93 C 0.9591 0.194 0.34779 0.0
C94 C 0.92824 0.25038 0.35731 0.0
N95 N 0.91548 0.20138 0.29803 0.0
C96 C 0.93971 0.18033 0.31134 0.0
C97 C 0.90937 0.23577 0.32068 0.0
C98 C 0.95332 0.22934 0.37084 0.0
C99 C 0.79817 0.11058 0.15694 0.0
N100 N 0.82382 0.08867 0.16156 0.0
C101 C 0.76498 0.09201 0.15983 0.0
C102 C 0.75814 0.05085 0.16793 0.0
C103 C 0.78441 0.02874 0.17271 0.0
C104 C 0.81728 0.04813 0.16906 0.0
C105 C 0.86593 0.03503 0.05478 0.0
C106 C 0.90864 0.05921 0.12432 0.0
C107 C 0.8568 0.05965 0.08705 0.0
N108 N 0.87846 0.07245 0.12078 0.0
C109 C 0.91842 0.03396 0.09288 0.0
C110 C 0.89704 0.0222 0.05776 0.0
C111 C 0.93887 0.16087 0.18643 0.0
C112 C 0.87263 0.29256 0.20413 0.0
C113 C 0.92721 0.25986 0.23303 0.0
C114 C 0.93232 0.29964 0.22074 0.0
C115 C 0.9048 0.31602 0.20619 0.0
N116 N 0.89558 0.23705 0.23095 0.0
C117 C 0.86847 0.2529 0.2167 0.0
Co118 Co 0.91161 0.89293 0.17703 0.0
Co119 Co 0.87797 0.79122 0.17052 0.0
O120 O 0.88039 0.84823 0.19446 0.0
C121 C 0.8984 0.92761 0.26043 0.0
O122 O 0.87498 0.89636 0.26562 0.0
C123 C 0.80164 0.76659 0.16081 0.0
O124 O 0.80128 0.75767 0.12173 0.0
O125 O 0.86689 0.80872 0.11607 0.0
O126 O 0.90788 0.86405 0.12091 0.0
H127 H 0.89819 0.6799 0.06616 0.0
H128 H 0.84291 0.89843 0.20479 0.0
O129 O 0.91732 0.92487 0.23195 0.0
H130 H 0.84599 0.96053 0.07794 0.0
H131 H 0.97115 0.04072 0.1824 0.0
H132 H 0.97042 0.89541 0.12888 0.0
H133 H 0.89707 0.9412 0.10897 0.0
H134 H 0.92399 0.98572 0.19208 0.0
O135 O 0.82928 0.78135 0.18199 0.0
H136 H 0.9033 0.75156 0.0986 0.0
H137 H 0.84365 0.70879 0.19011 0.0
H138 H 0.01709 0.94987 0.11681 0.0
H139 H 0.79328 0.9227 0.17769 0.0
H140 H 0.01795 0.02298 0.14421 0.0
H141 H 0.7941 0.95336 0.11293 0.0
O142 O 0.9486 0.86391 0.19362 0.0
H143 H 0.87449 0.79415 0.32041 0.0
H144 H 0.9244 0.73759 0.2019 0.0
H145 H 0.94098 0.71876 0.2689 0.0
H146 H 0.91587 0.74697 0.32877 0.0
H147 H 0.85863 0.81216 0.25285 0.0
H148 H 0.83766 0.63665 0.15854 0.0
H149 H 0.86513 0.62182 0.09614 0.0
O150 O 0.92748 0.80076 0.16184 0.0
C151 C 0.88564 0.8367 0.09996 0.0
C152 C 0.88614 0.68593 0.09337 0.0
C153 C 0.85213 0.66168 0.14518 0.0
N154 N 0.87384 0.73434 0.14621 0.0
C155 C 0.889 0.72644 0.1119 0.0
C156 C 0.85553 0.70259 0.16286 0.0
C157 C 0.86756 0.65338 0.11018 0.0
C158 C 0.84499 0.91453 0.17859 0.0
N159 N 0.87409 0.91978 0.15987 0.0
C160 C 0.81614 0.9274 0.16267 0.0
C161 C 0.81657 0.94448 0.12637 0.0
C162 C 0.84591 0.94923 0.10704 0.0
C163 C 0.87471 0.9376 0.12467 0.0
C164 C 0.97094 0.00898 0.17011 0.0
C165 C 0.97003 0.92733 0.13988 0.0
C166 C 0.9444 0.97764 0.17567 0.0
N167 N 0.9445 0.93725 0.16132 0.0
C168 C 0.99667 0.958 0.13315 0.0
C169 C 0.99722 0.99901 0.14867 0.0
C170 C 0.95204 0.82742 0.17985 0.0
C171 C 0.88546 0.78143 0.29454 0.0
C172 C 0.91317 0.74981 0.22774 0.0
C173 C 0.92274 0.73911 0.26563 0.0
C174 C 0.90869 0.75499 0.29921 0.0
N175 N 0.89 0.77533 0.22328 0.0
C176 C 0.87652 0.79147 0.25617 0.0
Co177 Co 0.13816 0.84155 0.12638 0.0
Co178 Co 0.163 0.82115 0.21984 0.0
O179 O 0.16828 0.81826 0.162 0.0
C180 C 0.15084 0.76479 0.07273 0.0
O181 O 0.17235 0.75204 0.09775 0.0
C182 C 0.23479 0.84964 0.25188 0.0
O183 O 0.22528 0.88065 0.27317 0.0
O184 O 0.16902 0.88299 0.22314 0.0
O185 O 0.13437 0.88692 0.16899 0.0
H186 H 0.12043 0.87256 0.34918 0.0
H187 H 0.20474 0.8285 0.10032 0.0
O188 O 0.13884 0.79745 0.08165 0.0
H189 H 0.2021 0.97706 0.09322 0.0
H190 H 0.09484 0.87161 0.9919 0.0
H191 H 0.07293 0.8714 0.13432 0.0
H192 H 0.15395 0.93134 0.11524 0.0
H193 H 0.13703 0.85686 0.04104 0.0
O194 O 0.21306 0.82366 0.22871 0.0
H195 H 0.12564 0.86758 0.27612 0.0
H196 H 0.19258 0.78177 0.28725 0.0
H197 H 0.02905 0.88574 0.08522 0.0
H198 H 0.25318 0.87289 0.07723 0.0
H199 H 0.03977 0.88555 0.01317 0.0
H200 H 0.25211 0.94781 0.07365 0.0
O201 O 0.09978 0.80543 0.1447 0.0
H202 H 0.19056 0.68097 0.1757 0.0
H203 H 0.11315 0.75553 0.24867 0.0
H204 H 0.10412 0.67906 0.24282 0.0
H205 H 0.14309 0.64126 0.20626 0.0
H206 H 0.19844 0.7574 0.18188 0.0
H207 H 0.18823 0.78596 0.36048 0.0
H208 H 0.15188 0.83156 0.39189 0.0
O209 O 0.11246 0.8183 0.21112 0.0
C210 C 0.15078 0.90263 0.20225 0.0
C211 C 0.13631 0.85253 0.33584 0.0
C212 C 0.17436 0.80394 0.34219 0.0
N213 N 0.15928 0.82429 0.27742 0.0
C214 C 0.13932 0.84954 0.29447 0.0
C215 C 0.17675 0.80171 0.30073 0.0
C216 C 0.15397 0.82953 0.35979 0.0
C217 C 0.20387 0.86085 0.09835 0.0
N218 N 0.17631 0.87704 0.1086 0.0
C219 C 0.23147 0.88595 0.08547 0.0
C220 C 0.23087 0.928 0.08351 0.0
C221 C 0.20284 0.94443 0.09448 0.0
C222 C 0.17567 0.91836 0.10705 0.0
C223 C 0.08963 0.87232 0.02294 0.0
C224 C 0.07783 0.87197 0.10313 0.0
C225 C 0.1137 0.86404 0.05116 0.0
N226 N 0.10743 0.8631 0.09055 0.0
C227 C 0.05292 0.88011 0.0755 0.0
C228 C 0.05888 0.87996 0.03507 0.0
C229 C 0.0911 0.80698 0.18035 0.0
C230 C 0.17347 0.69709 0.1918 0.0
C231 C 0.1301 0.73932 0.2325 0.0
C232 C 0.12492 0.69601 0.2294 0.0
C233 C 0.1468 0.67482 0.20891 0.0
N234 N 0.1564 0.76096 0.21579 0.0
C235 C 0.17786 0.74038 0.1955 0.0
Co236 Co 0.1241 0.8255 0.86239 0.0
Co237 Co 0.11953 0.72735 0.8173 0.0
O238 O 0.14037 0.7862 0.82433 0.0
C239 C 0.1184 0.89306 0.81169 0.0
O240 O 0.08573 0.88223 0.81149 0.0
C241 C 0.19284 0.72625 0.82541 0.0
O242 O 0.19472 0.75396 0.85677 0.0
O243 O 0.13066 0.72483 0.87557 0.0
O244 O 0.11088 0.78152 0.89896 0.0
H245 H 0.04704 0.59995 0.85482 0.0
H246 H 0.1937 0.8462 0.83926 0.0
O247 O 0.13792 0.87137 0.8279 0.0
H248 H 0.20537 0.84656 0.98676 0.0
H249 H 0.12775 0.96572 0.93923 0.0
H250 H 0.05977 0.82704 0.89964 0.0
H251 H 0.14937 0.83305 0.94931 0.0
H252 H 0.15181 0.91075 0.90264 0.0
O253 O 0.16441 0.71211 0.8058 0.0
H254 H 0.07183 0.67438 0.86162 0.0
H255 H 0.12624 0.65455 0.75997 0.0
H256 H 0.03387 0.88179 0.93357 0.0
H257 H 0.25029 0.86071 0.8757 0.0
H258 H 0.06836 0.95192 0.95425 0.0
H259 H 0.25637 0.86058 0.94993 0.0
O260 O 0.07904 0.80987 0.83198 0.0
H261 H 0.14526 0.76921 0.6813 0.0
H262 H 0.05832 0.70003 0.75956 0.0
H263 H 0.04444 0.70628 0.68785 0.0
H264 H 0.08812 0.74096 0.64818 0.0
H265 H 0.15794 0.76273 0.75327 0.0
H266 H 0.10227 0.57987 0.75225 0.0
H267 H 0.06225 0.55216 0.7998 0.0
O268 O 0.07346 0.74073 0.8282 0.0
C269 C 0.12215 0.7481 0.90424 0.0
C270 C 0.06435 0.61168 0.83382 0.0
C271 C 0.09538 0.60039 0.77628 0.0
N272 N 0.10018 0.66882 0.81101 0.0
C273 C 0.07838 0.6538 0.83746 0.0
C274 C 0.10892 0.64269 0.78085 0.0
C275 C 0.07292 0.58487 0.80297 0.0
C276 C 0.19616 0.84671 0.87162 0.0
N277 N 0.16826 0.83871 0.89205 0.0
C278 C 0.22826 0.85473 0.89208 0.0
C279 C 0.23166 0.85457 0.93373 0.0
C280 C 0.20308 0.84668 0.95441 0.0
C281 C 0.17142 0.83883 0.93297 0.0
C282 C 0.11254 0.93544 0.93036 0.0
C283 C 0.07461 0.85744 0.90774 0.0
C284 C 0.12615 0.90398 0.90997 0.0
N285 N 0.10711 0.86566 0.89841 0.0
C286 C 0.05981 0.88848 0.92703 0.0
C287 C 0.07904 0.92771 0.93851 0.0
C288 C 0.06096 0.77391 0.82676 0.0
C289 C 0.12604 0.75394 0.69824 0.0
C290 C 0.07744 0.7153 0.74255 0.0
C291 C 0.06945 0.71865 0.70192 0.0
C292 C 0.09396 0.73812 0.67968 0.0
N293 N 0.10898 0.73086 0.76052 0.0
C294 C 0.13311 0.75007 0.73895 0.0
Co295 Co 0.09776 0.13496 0.80568 0.0
Co296 Co 0.15996 0.22211 0.82235 0.0
O297 O 0.14174 0.16572 0.79517 0.0
C298 C 0.14132 0.06915 0.8132 0.0
O299 O 0.16487 0.09468 0.83651 0.0
C300 C 0.18186 0.22274 0.73707 0.0
O301 O 0.16382 0.18604 0.72529 0.0
O302 O 0.11816 0.24236 0.80314 0.0
O303 O 0.07848 0.18699 0.80846 0.0
H304 H 0.15524 0.35262 0.91181 0.0
H305 H 0.13055 0.10858 0.73381 0.0
O306 O 0.11462 0.0812 0.80067 0.0
H307 H 0.01769 0.12746 0.68196 0.0
H308 H 1.00171 0.01349 0.7929 0.0
H309 H 0.04807 0.15248 0.86265 0.0
H310 H 0.03528 0.13985 0.75468 0.0
H311 H 0.05453 0.05294 0.77442 0.0
O312 O 0.18157 0.23971 0.77286 0.0
H313 H 0.13411 0.28172 0.87907 0.0
H314 H 0.2247 0.28141 0.82296 0.0
H315 H 0.99483 0.11444 0.8815 0.0
H316 H 0.11401 0.09555 0.66082 0.0
H317 H 0.97176 0.04411 0.84714 0.0
H318 H 0.05722 0.1051 0.63443 0.0
O319 O 0.1115 0.14325 0.86459 0.0
H320 H 0.25547 0.14282 0.80771 0.0
H321 H 0.202 0.23195 0.90065 0.0
H322 H 0.25264 0.20628 0.92518 0.0
H323 H 0.2799 0.16154 0.87851 0.0
H324 H 0.20453 0.16859 0.78465 0.0
H325 H 0.24673 0.35239 0.85478 0.0
H326 H 0.21196 0.38851 0.89965 0.0
O327 O 0.14034 0.20802 0.87386 0.0
C328 C 0.08751 0.22454 0.80177 0.0
C329 C 0.17059 0.3373 0.89219 0.0
C330 C 0.22191 0.33717 0.86017 0.0
N331 N 0.17781 0.27757 0.84862 0.0
C332 C 0.15868 0.29717 0.87347 0.0
C333 C 0.20917 0.29702 0.84201 0.0
C334 C 0.20241 0.35741 0.88536 0.0
C335 C 0.10592 0.11316 0.72249 0.0
N336 N 0.0842 0.12592 0.74837 0.0
C337 C 0.09664 0.10559 0.68116 0.0
C338 C 0.06478 0.11092 0.66638 0.0
C339 C 0.04261 0.12352 0.693 0.0
C340 C 0.0528 0.1308 0.73413 0.0
C341 C 0.0117 0.04403 0.80829 0.0
C342 C 0.03788 0.12219 0.84696 0.0
C343 C 0.04173 0.06644 0.79808 0.0
N344 N 0.0546 0.10496 0.8175 0.0
C345 C 1.00779 0.10072 0.85794 0.0
C346 C 0.99481 0.06127 0.8386 0.0
C347 C 0.12538 0.17569 0.88752 0.0
C348 C 0.24396 0.16251 0.82828 0.0
C349 C 0.21357 0.21242 0.88013 0.0
C350 C 0.24233 0.19803 0.8942 0.0
C351 C 0.25761 0.17295 0.86802 0.0
N352 N 0.20042 0.20234 0.84101 0.0
C353 C 0.21515 0.17747 0.81528 0.0
Co354 Co 0.92509 0.23534 0.89471 0.0
Co355 Co 0.88855 0.20703 0.79855 0.0
O356 O 0.8882 0.23503 0.85338 0.0
C357 C 0.86729 0.20581 0.9411 0.0
O358 O 0.85507 0.17652 0.9118 0.0
C359 C 0.85828 0.28404 0.78871 0.0
O360 O 0.87986 0.3058 0.81708 0.0
O361 O 0.93237 0.24353 0.79225 0.0
O362 O 0.95862 0.24202 0.85344 0.0
H363 H 0.94158 0.13628 0.68637 0.0
H364 H 0.87781 0.29472 0.89987 0.0
O365 O 0.89353 0.23158 0.93728 0.0
H366 H 0.99026 0.38104 0.92844 0.0
H367 H 0.9886 0.26514 0.03282 0.0
H368 H 0.98496 0.19496 0.89536 0.0
H369 H 0.98363 0.30488 0.91636 0.0
H370 H 0.94319 0.27033 0.98151 0.0
O371 O 0.86152 0.24716 0.77609 0.0
H372 H 0.93919 0.16978 0.75476 0.0
H373 H 0.83854 0.18395 0.72596 0.0
H374 H 0.03124 0.18974 0.94549 0.0
H375 H 0.88301 0.37074 0.91247 0.0
H376 H 0.03323 0.22491 0.01486 0.0
H377 H 0.9396 0.41456 0.92651 0.0
O378 O 0.91793 0.17336 0.88544 0.0
H379 H 0.77219 0.1764 0.84372 0.0
H380 H 0.86129 0.11623 0.77925 0.0
H381 H 0.80886 0.07056 0.79 0.0
H382 H 0.76371 0.10063 0.8223 0.0
H383 H 0.82532 0.22081 0.83309 0.0
H384 H 0.83961 0.15093 0.65714 0.0
H385 H 0.89148 0.12665 0.63686 0.0
O386 O 0.91361 0.16417 0.81865 0.0
C387 C 0.95888 0.25033 0.81692 0.0
C388 C 0.91894 0.14716 0.69462 0.0
C389 C 0.86177 0.1554 0.67824 0.0
N390 N 0.8891 0.18023 0.74418 0.0
C391 C 0.91755 0.16651 0.73328 0.0
C392 C 0.86138 0.17462 0.7172 0.0
C393 C 0.89083 0.14171 0.6669 0.0
C394 C 0.90256 0.31356 0.90532 0.0
N395 N 0.93058 0.29543 0.90508 0.0
C396 C 0.90532 0.35662 0.91272 0.0
C397 C 0.93706 0.38117 0.92062 0.0
C398 C 0.96548 0.36241 0.92154 0.0
C399 C 0.96167 0.31927 0.91394 0.0
C400 C 0.98804 0.24975 1.00267 0.0
C401 C 0.98585 0.21082 0.92532 0.0
C402 C 0.96224 0.25236 0.97353 0.0
N403 N 0.96151 0.23329 0.93527 0.0
C404 C 0.01204 0.20754 0.95365 0.0
C405 C 0.0131 0.22721 0.99257 0.0
C406 C 0.91536 0.14985 0.85248 0.0
C407 C 0.79165 0.16292 0.82959 0.0
C408 C 0.84198 0.12955 0.79363 0.0
C409 C 0.81223 0.10353 0.79949 0.0
C410 C 0.78692 0.12041 0.81759 0.0
N411 N 0.84653 0.17124 0.80552 0.0
C412 C 0.82181 0.18795 0.82338 0.0
Co413 Co 0.91949 0.8967 0.86885 0.0
Co414 Co 0.85697 0.81394 0.8409 0.0
O415 O 0.87858 0.871 0.83438 0.0
C416 C 0.88491 0.96996 0.85179 0.0
O417 O 0.86125 0.94704 0.82657 0.0
C418 C 0.83573 0.77477 0.75687 0.0
O419 O 0.85457 0.74695 0.76423 0.0
O420 O 0.89947 0.79516 0.82541 0.0
O421 O 0.93498 0.84144 0.86896 0.0
H422 H 0.85567 0.6719 0.88479 0.0
H423 H 0.90342 0.92166 0.78667 0.0
O424 O 0.90703 0.95376 0.87039 0.0
H425 H 0.02156 0.90259 0.79089 0.0
H426 H 0.01208 0.01455 0.92227 0.0
H427 H 0.95334 0.87575 0.94401 0.0
H428 H 0.98853 0.8883 0.84826 0.0
H429 H 0.96946 0.97452 0.87105 0.0
O430 O 0.83738 0.80667 0.78259 0.0
H431 H 0.88056 0.74403 0.87682 0.0
H432 H 0.78893 0.76174 0.81666 0.0
H433 H 0.99377 0.91636 0.99761 0.0
H434 H 0.9355 0.9364 0.72881 0.0
H435 H 0.02366 0.9862 0.98657 0.0
H436 H 0.99521 0.92725 0.73071 0.0
O437 O 0.8944 0.88647 0.91666 0.0
H438 H 0.76682 0.90105 0.82737 0.0
H439 H 0.8106 0.79941 0.90605 0.0
H440 H 0.76049 0.82682 0.92592 0.0
H441 H 0.73808 0.87787 0.88627 0.0
H442 H 0.81726 0.87325 0.80906 0.0
H443 H 0.76315 0.68979 0.8238 0.0
H444 H 0.79656 0.64433 0.85816 0.0
O445 O 0.87385 0.81936 0.89999 0.0
C446 C 0.9287 0.80883 0.84359 0.0
C447 C 0.84087 0.6914 0.86974 0.0
C448 C 0.78893 0.70143 0.83555 0.0
N449 N 0.83629 0.75715 0.84631 0.0
C450 C 0.85484 0.73226 0.86511 0.0
C451 C 0.8037 0.74217 0.83159 0.0
C452 C 0.80769 0.67595 0.85481 0.0
C453 C 0.9294 0.91829 0.7883 0.0
N454 N 0.94431 0.90601 0.82186 0.0
C455 C 0.94745 0.92631 0.75513 0.0
C456 C 0.98092 0.92109 0.75616 0.0
C457 C 0.99573 0.90736 0.78994 0.0
C458 C 0.97684 0.89943 0.82242 0.0
C459 C 0.99928 0.98416 0.92738 0.0
C460 C 0.9662 0.9061 0.93912 0.0
C461 C 0.97534 0.96111 0.89829 0.0
N462 N 0.95868 0.92287 0.90463 0.0
C463 C 0.98919 0.92889 0.96951 0.0
C464 C 1.00568 0.96822 0.96353 0.0
C465 C 0.88235 0.85085 0.9264 0.0
C466 C 0.77628 0.87876 0.84486 0.0
C467 C 0.8013 0.82189 0.88892 0.0
C468 C 0.77276 0.83717 0.90018 0.0
C469 C 0.76019 0.86578 0.87791 0.0
N470 N 0.81685 0.83455 0.8563 0.0
C471 C 0.80478 0.86282 0.83455 0.0
Co472 Co 0.61801 0.6006 0.62285 0.0
Co473 Co 0.63602 0.70505 0.64951 0.0
O474 O 0.64635 0.6491 0.65374 0.0
C475 C 0.6414 0.56831 0.70089 0.0
O476 O 0.66186 0.60259 0.71551 0.0
C477 C 0.71169 0.71474 0.65203 0.0
O478 O 0.70834 0.68009 0.62792 0.0
O479 O 0.64009 0.69729 0.59024 0.0
O480 O 0.60995 0.63321 0.57633 0.0
H481 H 0.57995 0.81089 0.58548 0.0
H482 H 0.68925 0.5979 0.65237 0.0
O483 O 0.62434 0.56534 0.66704 0.0
H484 H 0.67921 0.54927 0.50774 0.0
H485 H 0.58287 0.44834 0.5761 0.0
H486 H 0.55195 0.58722 0.57487 0.0
H487 H 0.63108 0.57062 0.53965 0.0
H488 H 0.62134 0.51027 0.60901 0.0
O489 O 0.68559 0.72942 0.66108 0.0
H490 H 0.59158 0.7407 0.59345 0.0
H491 H 0.66055 0.78854 0.69516 0.0
H492 H 0.51247 0.5258 0.54189 0.0
H493 H 0.73772 0.57602 0.62201 0.0
H494 H 0.52762 0.45579 0.54347 0.0
H495 H 0.733 0.55141 0.54908 0.0
O496 O 0.57856 0.61612 0.64843 0.0
H497 H 0.67138 0.69565 0.79465 0.0
H498 H 0.58543 0.73457 0.7009 0.0
H499 H 0.57885 0.74094 0.7736 0.0
H500 H 0.62208 0.72155 0.82107 0.0
H501 H 0.67672 0.68916 0.72166 0.0
H502 H 0.64991 0.85933 0.68812 0.0
H503 H 0.60927 0.87085 0.633 0.0
O504 O 0.58582 0.68348 0.63998 0.0
C505 C 0.62373 0.66764 0.56521 0.0
C506 C 0.5977 0.80629 0.60963 0.0
C507 C 0.63701 0.83348 0.66718 0.0
N508 N 0.6268 0.76052 0.64468 0.0
C509 C 0.60437 0.76659 0.61433 0.0
C510 C 0.64306 0.79335 0.67092 0.0
C511 C 0.61418 0.83991 0.63628 0.0
C512 C 0.68659 0.58669 0.62091 0.0
N513 N 0.65693 0.58505 0.59816 0.0
C514 C 0.71435 0.57463 0.60371 0.0
C515 C 0.71173 0.56096 0.56279 0.0
C516 C 0.6816 0.55981 0.53959 0.0
C517 C 0.65442 0.57219 0.55784 0.0
C518 C 0.57593 0.47869 0.57553 0.0
C519 C 0.55893 0.55688 0.57485 0.0
C520 C 0.59761 0.51393 0.5941 0.0
N521 N 0.58898 0.55243 0.59362 0.0
C522 C 0.53648 0.52225 0.55623 0.0
C523 C 0.54507 0.48296 0.55682 0.0
C524 C 0.5678 0.65035 0.64869 0.0
C525 C 0.65239 0.70424 0.77428 0.0
C526 C 0.60427 0.7258 0.72128 0.0
C527 C 0.60045 0.72962 0.76246 0.0
C528 C 0.62471 0.71875 0.78908 0.0
N529 N 0.63148 0.7115 0.70697 0.0
C530 C 0.65533 0.70075 0.7329 0.0
Co531 Co 0.35954 0.6139 0.65907 0.0
Co532 Co 0.38142 0.67406 0.74933 0.0
O533 O 0.35328 0.65864 0.69855 0.0
C534 C 0.36016 0.6824 0.60799 0.0
O535 O 0.3825 0.70596 0.63441 0.0
C536 C 0.31129 0.66446 0.77081 0.0
O537 O 0.3068 0.62801 0.74944 0.0
O538 O 0.37177 0.61599 0.76309 0.0
O539 O 0.37155 0.57952 0.70249 0.0
H540 H 0.46903 0.65806 0.8579 0.0
H541 H 0.29557 0.64649 0.65535 0.0
O542 O 0.34713 0.64625 0.61488 0.0
H543 H 0.26353 0.49671 0.66546 0.0
H544 H 0.33696 0.53171 0.52287 0.0
H545 H 0.41191 0.56186 0.6485 0.0
H546 H 0.32306 0.52825 0.66388 0.0
H547 H 0.32231 0.57481 0.58103 0.0
O548 O 0.34045 0.68703 0.77547 0.0
H549 H 0.43448 0.63894 0.79305 0.0
H550 H 0.38557 0.74248 0.8156 0.0
H551 H 0.42774 0.51868 0.59062 0.0
H552 H 0.23577 0.61626 0.65691 0.0
H553 H 0.39061 0.50452 0.5271 0.0
H554 H 0.21948 0.54084 0.66208 0.0
O555 O 0.40764 0.63921 0.65853 0.0
H556 H 0.3516 0.80406 0.69992 0.0
H557 H 0.44399 0.73643 0.74979 0.0
H558 H 0.45682 0.8076 0.73086 0.0
H559 H 0.41041 0.84194 0.70583 0.0
H560 H 0.33992 0.73275 0.71873 0.0
H561 H 0.41928 0.7625 0.88095 0.0
H562 H 0.4615 0.72025 0.90237 0.0
O563 O 0.42297 0.66142 0.72375 0.0
C564 C 0.37185 0.58229 0.74084 0.0
C565 C 0.45079 0.67679 0.84885 0.0
C566 C 0.42284 0.73537 0.86182 0.0
N567 N 0.40825 0.68975 0.80044 0.0
C568 C 0.43124 0.66619 0.81211 0.0
C569 C 0.40375 0.72383 0.82485 0.0
C570 C 0.44653 0.71166 0.8738 0.0
C571 C 0.28861 0.61361 0.65737 0.0
N572 N 0.31271 0.58914 0.6595 0.0
C573 C 0.25475 0.59668 0.65833 0.0
C574 C 0.24563 0.55438 0.66129 0.0
C575 C 0.27035 0.52959 0.66321 0.0
C576 C 0.30399 0.54762 0.66236 0.0
C577 C 0.35347 0.53791 0.55041 0.0
C578 C 0.39517 0.55454 0.62129 0.0
C579 C 0.34515 0.56193 0.58363 0.0
N580 N 0.36631 0.57079 0.61819 0.0
C581 C 0.40438 0.53051 0.58859 0.0
C582 C 0.38361 0.52275 0.55277 0.0
C583 C 0.42997 0.65214 0.68772 0.0
C584 C 0.37202 0.78948 0.7109 0.0
C585 C 0.42366 0.75109 0.73877 0.0
C586 C 0.43108 0.79144 0.72819 0.0
C587 C 0.40503 0.81069 0.71417 0.0
N588 N 0.39121 0.73052 0.73557 0.0
C589 C 0.36555 0.74916 0.72176 0.0
Co590 Co 0.40355 0.38723 0.66789 0.0
Co591 Co 0.37214 0.28413 0.66187 0.0
O592 O 0.37053 0.34177 0.68263 0.0
C593 C 0.38563 0.41948 0.75071 0.0
O594 O 0.36394 0.38609 0.75482 0.0
C595 C 0.29885 0.29002 0.65907 0.0
O596 O 0.30565 0.32741 0.64793 0.0
O597 O 0.36615 0.29926 0.6058 0.0
O598 O 0.40561 0.35667 0.61318 0.0
H599 H 0.40956 0.17366 0.5703 0.0
H600 H 0.33647 0.40282 0.69238 0.0
O601 O 0.40344 0.42064 0.72099 0.0
H602 H 0.34382 0.44853 0.55785 0.0
H603 H 0.45982 0.53647 0.67346 0.0
H604 H 0.46657 0.39115 0.62825 0.0
H605 H 0.3916 0.42366 0.59131 0.0
H606 H 0.41298 0.4801 0.68063 0.0
O607 O 0.32206 0.26861 0.66343 0.0
H608 H 0.4079 0.24536 0.59848 0.0
H609 H 0.33792 0.20079 0.67923 0.0
H610 H 0.51332 0.44707 0.61883 0.0
H611 H 0.29026 0.43232 0.6623 0.0
H612 H 0.51016 0.52019 0.64177 0.0
H613 H 0.29351 0.45538 0.59414 0.0
O614 O 0.43997 0.361 0.6915 0.0
H615 H 0.34638 0.28497 0.80626 0.0
H616 H 0.41869 0.23808 0.70537 0.0
H617 H 0.42715 0.22176 0.77518 0.0
H618 H 0.39077 0.24514 0.82617 0.0
H619 H 0.339 0.301 0.73621 0.0
H620 H 0.33861 0.12859 0.65175 0.0
H621 H 0.37472 0.11464 0.59699 0.0
O622 O 0.42262 0.29663 0.66121 0.0
C623 C 0.38541 0.32783 0.59124 0.0
C624 C 0.39376 0.17932 0.59421 0.0
C625 C 0.35392 0.15404 0.63988 0.0
N626 N 0.37297 0.22729 0.64055 0.0
C627 C 0.39277 0.21987 0.61031 0.0
C628 C 0.35356 0.19501 0.65524 0.0
C629 C 0.3742 0.14623 0.60917 0.0
C630 C 0.3393 0.41495 0.66406 0.0
N631 N 0.36751 0.41262 0.64458 0.0
C632 C 0.31255 0.43095 0.64665 0.0
C633 C 0.31432 0.44367 0.60838 0.0
C634 C 0.34275 0.4404 0.58823 0.0
C635 C 0.36954 0.42565 0.60719 0.0
C636 C 0.46126 0.50474 0.66286 0.0
C637 C 0.4647 0.42306 0.63725 0.0
C638 C 0.43491 0.47259 0.66699 0.0
N639 N 0.43712 0.43222 0.65487 0.0
C640 C 0.49122 0.45453 0.63197 0.0
C641 C 0.48953 0.49559 0.64507 0.0
C642 C 0.44525 0.32455 0.68089 0.0
C643 C 0.36236 0.27455 0.78431 0.0
C644 C 0.40285 0.24856 0.7274 0.0
C645 C 0.40771 0.23912 0.76688 0.0
C646 C 0.38728 0.25223 0.79547 0.0
N647 N 0.3783 0.27042 0.71665 0.0
C648 C 0.35824 0.28346 0.74456 0.0
Co649 Co 0.62786 0.3344 0.63023 0.0
Co650 Co 0.65743 0.31798 0.72263 0.0
O651 O 0.6608 0.31363 0.6641 0.0
C652 C 0.64382 0.25963 0.57708 0.0
O653 O 0.66875 0.25275 0.60128 0.0
C654 C 0.731 0.34073 0.75029 0.0
O655 O 0.7253 0.375 0.77008 0.0
O656 O 0.66597 0.37946 0.7234 0.0
O657 O 0.62678 0.38156 0.67303 0.0
H658 H 0.62431 0.37882 0.85409 0.0
H659 H 0.6955 0.32645 0.60253 0.0
O660 O 0.62769 0.2888 0.58616 0.0
H661 H 0.6792 0.46818 0.58091 0.0
H662 H 0.56373 0.34305 0.49956 0.0
H663 H 0.56607 0.36853 0.64656 0.0
H664 H 0.63631 0.42161 0.61101 0.0
H665 H 0.61449 0.33896 0.54204 0.0
O666 O 0.70698 0.31642 0.72885 0.0
H667 H 0.62606 0.37056 0.78046 0.0
H668 H 0.68716 0.27803 0.78964 0.0
H669 H 0.51578 0.37608 0.60456 0.0
H670 H 0.73881 0.37171 0.57181 0.0
H671 H 0.51429 0.3641 0.53027 0.0
H672 H 0.73081 0.44319 0.56065 0.0
O673 O 0.59239 0.29751 0.65289 0.0
H674 H 0.67339 0.17315 0.67562 0.0
H675 H 0.60821 0.2571 0.75862 0.0
H676 H 0.59536 0.18075 0.75468 0.0
H677 H 0.62819 0.13822 0.71312 0.0
H678 H 0.68516 0.24957 0.68019 0.0
H679 H 0.68633 0.28552 0.86344 0.0
H680 H 0.65462 0.33611 0.89613 0.0
O681 O 0.60704 0.31845 0.71745 0.0
C682 C 0.64655 0.39881 0.70374 0.0
C683 C 0.63811 0.35656 0.8402 0.0
C684 C 0.67293 0.30422 0.84545 0.0
N685 N 0.65636 0.32354 0.78071 0.0
C686 C 0.63909 0.35165 0.79849 0.0
C687 C 0.67332 0.30013 0.80365 0.0
C688 C 0.65514 0.33261 0.86377 0.0
C689 C 0.69145 0.35707 0.59722 0.0
N690 N 0.6628 0.37066 0.60744 0.0
C691 C 0.71626 0.3828 0.58009 0.0
C692 C 0.7118 0.42293 0.5739 0.0
C693 C 0.68286 0.43696 0.58521 0.0
C694 C 0.6586 0.41033 0.60219 0.0
C695 C 0.56457 0.35086 0.53156 0.0
C696 C 0.56622 0.36447 0.6143 0.0
C697 C 0.5931 0.34767 0.55605 0.0
N698 N 0.59321 0.35286 0.597 0.0
C699 C 0.53754 0.36884 0.59062 0.0
C700 C 0.53666 0.36177 0.54894 0.0
C701 C 0.58457 0.30382 0.68856 0.0
C702 C 0.65903 0.19132 0.69403 0.0
C703 C 0.62264 0.23883 0.74048 0.0
C704 C 0.61524 0.1956 0.73838 0.0
C705 C 0.63365 0.17175 0.71504 0.0
N706 N 0.64787 0.25783 0.72019 0.0
C707 C 0.66569 0.23462 0.69686 0.0
Co708 Co 0.63401 0.32837 0.36712 0.0
Co709 Co 0.62754 0.22988 0.32081 0.0
O710 O 0.64909 0.28873 0.3281 0.0
C711 C 0.6253 0.39619 0.31811 0.0
O712 O 0.59301 0.38519 0.32098 0.0
C713 C 0.70088 0.22656 0.32787 0.0
O714 O 0.70436 0.25504 0.35888 0.0
O715 O 0.63829 0.22618 0.37913 0.0
O716 O 0.62172 0.28464 0.40388 0.0
H717 H 0.55381 0.10318 0.35783 0.0
H718 H 0.70219 0.35001 0.34058 0.0
O719 O 0.6461 0.37477 0.3324 0.0
H720 H 0.71952 0.34808 0.48745 0.0
H721 H 0.64161 0.46515 0.45276 0.0
H722 H 0.57117 0.32907 0.407 0.0
H723 H 0.6624 0.33387 0.45287 0.0
H724 H 0.66292 0.41327 0.40818 0.0
O725 O 0.67195 0.21346 0.30913 0.0
H726 H 0.57963 0.17725 0.36519 0.0
H727 H 0.63206 0.15739 0.26186 0.0
H728 H 0.548 0.38101 0.4483 0.0
H729 H 0.75985 0.36513 0.37413 0.0
H730 H 0.58369 0.44926 0.47336 0.0
H731 H 0.76877 0.36405 0.44807 0.0
O732 O 0.5884 0.31324 0.33851 0.0
H733 H 0.65474 0.27209 0.18536 0.0
H734 H 0.56633 0.2045 0.26263 0.0
H735 H 0.55312 0.2114 0.19094 0.0
H736 H 0.59753 0.24527 0.15176 0.0
H737 H 0.66677 0.26495 0.25728 0.0
H738 H 0.60716 0.083 0.25363 0.0
H739 H 0.56759 0.05548 0.30175 0.0
O740 O 0.58171 0.24395 0.33152 0.0
C741 C 0.6303 0.24955 0.40809 0.0
C742 C 0.57098 0.11479 0.33664 0.0
C743 C 0.60095 0.10345 0.27819 0.0
N744 N 0.60729 0.17161 0.31395 0.0
C745 C 0.58563 0.15672 0.34062 0.0
C746 C 0.61508 0.14556 0.28309 0.0
C747 C 0.57874 0.08805 0.30519 0.0
C748 C 0.7059 0.34998 0.37282 0.0
N749 N 0.67896 0.3412 0.39468 0.0
C750 C 0.73859 0.35835 0.39163 0.0
C751 C 0.74358 0.35766 0.43311 0.0
C752 C 0.71598 0.34866 0.45522 0.0
C753 C 0.68368 0.34041 0.4354 0.0
C754 C 0.62589 0.43548 0.44254 0.0
C755 C 0.58661 0.35901 0.41641 0.0
C756 C 0.6379 0.40583 0.41748 0.0
N757 N 0.61834 0.36806 0.40483 0.0
C758 C 0.57337 0.38845 0.44011 0.0
C759 C 0.59333 0.42665 0.45389 0.0
C760 C 0.56994 0.27769 0.33129 0.0
C761 C 0.63519 0.25719 0.20209 0.0
C762 C 0.58576 0.21947 0.24587 0.0
C763 C 0.57815 0.22318 0.20523 0.0
C764 C 0.60308 0.24217 0.18326 0.0
N765 N 0.61735 0.23419 0.26409 0.0
C766 C 0.64189 0.25295 0.24278 0.0
Co767 Co 0.5942 0.6357 0.30865 0.0
Co768 Co 0.65469 0.72219 0.32881 0.0
O769 O 0.63868 0.66603 0.30103 0.0
C770 C 0.63759 0.57103 0.3184 0.0
O771 O 0.65899 0.59732 0.34375 0.0
C772 C 0.68008 0.72797 0.24546 0.0
O773 O 0.65134 0.70882 0.22665 0.0
O774 O 0.61499 0.74187 0.30238 0.0
O775 O 0.57544 0.68815 0.31229 0.0
H776 H 0.64165 0.85644 0.40654 0.0
H777 H 0.6296 0.61158 0.23835 0.0
O778 O 0.61109 0.58185 0.30338 0.0
H779 H 0.51935 0.63456 0.18158 0.0
H780 H 0.49561 0.51747 0.28443 0.0
H781 H 0.54252 0.65157 0.36354 0.0
H782 H 0.5343 0.64513 0.25494 0.0
H783 H 0.55128 0.55531 0.27286 0.0
O784 O 0.68309 0.73633 0.28361 0.0
H785 H 0.62265 0.78539 0.37313 0.0
H786 H 0.72117 0.77945 0.3408 0.0
H787 H 0.48648 0.61505 0.37557 0.0
H788 H 0.61587 0.60123 0.16479 0.0
H789 H 0.46275 0.5475 0.33585 0.0
H790 H 0.56034 0.61266 0.13598 0.0
O791 O 0.60626 0.64269 0.36795 0.0
H792 H 0.74877 0.63988 0.33322 0.0
H793 H 0.6888 0.73364 0.41243 0.0
H794 H 0.73561 0.70682 0.44576 0.0
H795 H 0.76613 0.65971 0.40603 0.0
H796 H 0.70145 0.667 0.30125 0.0
H797 H 0.74127 0.85054 0.37344 0.0
H798 H 0.70143 0.88953 0.40685 0.0
O799 O 0.62883 0.71 0.37679 0.0
C800 C 0.58426 0.72479 0.30293 0.0
C801 C 0.65927 0.83981 0.39208 0.0
C802 C 0.71516 0.8365 0.37348 0.0
N803 N 0.67068 0.77814 0.35501 0.0
C804 C 0.64862 0.79953 0.37309 0.0
C805 C 0.70357 0.79626 0.35484 0.0
C806 C 0.6928 0.85834 0.39224 0.0
C807 C 0.60545 0.61678 0.22601 0.0
N808 N 0.58278 0.62889 0.2509 0.0
C809 C 0.59781 0.61085 0.18434 0.0
C810 C 0.56666 0.61729 0.1682 0.0
C811 C 0.54367 0.62967 0.19378 0.0
C812 C 0.55229 0.63561 0.23528 0.0
C813 C 0.50575 0.54686 0.30192 0.0
C814 C 0.53232 0.62225 0.34599 0.0
C815 C 0.53737 0.56833 0.29567 0.0
N816 N 0.55022 0.60569 0.31741 0.0
C817 C 0.50059 0.60169 0.35302 0.0
C818 C 0.48727 0.56377 0.33074 0.0
C819 C 0.61674 0.67646 0.39079 0.0
C820 C 0.73573 0.66045 0.35086 0.0
C821 C 0.70171 0.71297 0.39498 0.0
C822 C 0.72832 0.69797 0.414 0.0
C823 C 0.74544 0.67156 0.3917 0.0
N824 N 0.6924 0.70212 0.35485 0.0
C825 C 0.70894 0.676 0.3329 0.0
Co826 Co 0.41146 0.73283 0.39192 0.0
Co827 Co 0.38068 0.71056 0.29228 0.0
O828 O 0.37796 0.73508 0.34763 0.0
C829 C 0.35674 0.69405 0.43785 0.0
O830 O 0.35069 0.66074 0.4117 0.0
C831 C 0.36201 0.79436 0.28606 0.0
O832 O 0.38322 0.8099 0.31735 0.0
O833 O 0.42812 0.74103 0.29185 0.0
O834 O 0.44826 0.74068 0.35587 0.0
H835 H 0.43404 0.63789 0.18182 0.0
H836 H 0.36371 0.7915 0.40151 0.0
O837 O 0.37582 0.72655 0.43031 0.0
H838 H 0.47622 0.87854 0.42478 0.0
H839 H 0.46295 0.75981 0.53558 0.0
H840 H 0.47086 0.69143 0.3999 0.0
H841 H 0.46986 0.8026 0.40982 0.0
H842 H 0.42262 0.76673 0.479 0.0
O843 O 0.36146 0.75731 0.27051 0.0
H844 H 0.43013 0.66858 0.251 0.0
H845 H 0.33597 0.70108 0.21571 0.0
H846 H 0.51205 0.68433 0.45548 0.0
H847 H 0.36881 0.86723 0.4176 0.0
H848 H 0.50813 0.71847 0.524 0.0
H849 H 0.42538 0.91136 0.42891 0.0
O850 O 0.40629 0.67129 0.37919 0.0
H851 H 0.25946 0.69673 0.32135 0.0
H852 H 0.3457 0.62342 0.26637 0.0
H853 H 0.28831 0.5852 0.26822 0.0
H854 H 0.24459 0.62195 0.29565 0.0
H855 H 0.31734 0.73353 0.31965 0.0
H856 H 0.33897 0.67105 0.14605 0.0
H857 H 0.38821 0.63899 0.12874 0.0
O858 O 0.39782 0.66156 0.31196 0.0
C859 C 0.45249 0.74666 0.31948 0.0
C860 C 0.41245 0.65178 0.18895 0.0
C861 C 0.35914 0.67046 0.16888 0.0
N862 N 0.38293 0.68676 0.23742 0.0
C863 C 0.4101 0.66923 0.22809 0.0
C864 C 0.35766 0.68764 0.20836 0.0
C865 C 0.38675 0.65244 0.1592 0.0
C866 C 0.38843 0.81044 0.40678 0.0
N867 N 0.4165 0.79263 0.40422 0.0
C868 C 0.39115 0.85333 0.4157 0.0
C869 C 0.42289 0.87808 0.42202 0.0
C870 C 0.45141 0.85969 0.4196 0.0
C871 C 0.4477 0.81668 0.41072 0.0
C872 C 0.46499 0.74491 0.50584 0.0
C873 C 0.46923 0.70685 0.42949 0.0
C874 C 0.44218 0.74866 0.47367 0.0
N875 N 0.44449 0.72975 0.43605 0.0
C876 C 0.49255 0.70255 0.4609 0.0
C877 C 0.49032 0.72169 0.49933 0.0
C878 C 0.40286 0.648 0.34585 0.0
C879 C 0.27826 0.68037 0.30929 0.0
C880 C 0.32703 0.63954 0.27877 0.0
C881 C 0.29446 0.61777 0.27954 0.0
C882 C 0.26994 0.63841 0.2949 0.0
N883 N 0.33505 0.68073 0.29284 0.0
C884 C 0.31113 0.70109 0.30811 0.0
Co885 Co 0.42434 0.40029 0.36426 0.0
Co886 Co 0.36501 0.31377 0.33751 0.0
O887 O 0.38313 0.37209 0.33206 0.0
C888 C 0.38391 0.46872 0.35101 0.0
O889 O 0.36006 0.44341 0.32803 0.0
C890 C 0.34295 0.27786 0.25251 0.0
O891 O 0.36266 0.25046 0.25753 0.0
O892 O 0.40791 0.29866 0.31943 0.0
O893 O 0.44342 0.34727 0.36095 0.0
H894 H 0.37199 0.17128 0.37606 0.0
H895 H 0.40158 0.42466 0.28374 0.0
O896 O 0.4082 0.45524 0.36845 0.0
H897 H 0.52147 0.41702 0.27808 0.0
H898 H 0.51669 0.52128 0.41179 0.0
H899 H 0.46465 0.37984 0.4346 0.0
H900 H 0.49301 0.39982 0.33809 0.0
H901 H 0.46915 0.48236 0.3662 0.0
O902 O 0.34366 0.30769 0.28022 0.0
H903 H 0.39304 0.24511 0.37044 0.0
H904 H 0.29867 0.2578 0.31388 0.0
H905 H 0.51113 0.4182 0.48187 0.0
H906 H 0.42907 0.44247 0.22345 0.0
H907 H 0.53786 0.48949 0.47037 0.0
H908 H 0.48958 0.43884 0.22018 0.0
O909 O 0.40256 0.38639 0.4139 0.0
H910 H 0.26767 0.39073 0.33213 0.0
H911 H 0.32362 0.29477 0.40605 0.0
H912 H 0.27276 0.31688 0.43044 0.0
H913 H 0.2443 0.36507 0.3933 0.0
H914 H 0.31888 0.36824 0.30906 0.0
H915 H 0.27656 0.18413 0.31881 0.0
H916 H 0.31333 0.1403 0.35007 0.0
O917 O 0.38438 0.31865 0.39538 0.0
C918 C 0.43725 0.31394 0.3365 0.0
C919 C 0.35574 0.19003 0.3623 0.0
C920 C 0.30219 0.19724 0.3302 0.0
N921 N 0.34726 0.25574 0.34167 0.0
C922 C 0.36757 0.23184 0.35899 0.0
C923 C 0.31487 0.23895 0.32747 0.0
C924 C 0.32282 0.17267 0.34773 0.0
C925 C 0.42795 0.42393 0.28333 0.0
N926 N 0.4458 0.41307 0.31557 0.0
C927 C 0.44339 0.4336 0.2487 0.0
C928 C 0.4773 0.43144 0.24682 0.0
C929 C 0.49522 0.41934 0.2793 0.0
C930 C 0.47892 0.40986 0.31338 0.0
C931 C 0.50539 0.49029 0.4171 0.0
C932 C 0.47599 0.41077 0.42951 0.0
C933 C 0.4785 0.46802 0.39133 0.0
N934 N 0.46417 0.42872 0.39767 0.0
C935 C 0.50232 0.43248 0.45643 0.0
C936 C 0.51721 0.4724 0.45001 0.0
C937 C 0.39193 0.34976 0.42227 0.0
C938 C 0.27981 0.36968 0.34855 0.0
C939 C 0.31158 0.31599 0.38984 0.0
C940 C 0.28268 0.32827 0.40373 0.0
C941 C 0.26673 0.3553 0.38288 0.0
N942 N 0.32428 0.3302 0.35609 0.0
C943 C 0.30879 0.35677 0.33558 0.0
C944 C 0.28757 0.29121 0.22193 0.0
C945 C 0.31438 0.26882 0.22007 0.0
C946 C 0.25782 0.27917 0.19619 0.0
C947 C 0.25339 0.24427 0.16708 0.0
H948 H 0.28881 0.3173 0.24468 0.0
H949 H 0.23764 0.29666 0.20025 0.0
S950 S 0.31725 0.17757 0.14645 0.0
N951 N 0.33544 0.21188 0.18416 0.0
N952 N 0.27984 0.18949 0.13581 0.0
C953 C 0.28073 0.22301 0.16326 0.0
C954 C 0.31104 0.23518 0.18967 0.0
C955 C 0.76329 0.23342 0.32354 0.0
C956 C 0.73075 0.21012 0.31396 0.0
C957 C 0.79169 0.21917 0.30946 0.0
C958 C 0.78884 0.18072 0.28566 0.0
H959 H 0.76685 0.26334 0.34143 0.0
H960 H 0.81607 0.23864 0.31718 0.0
S961 S 0.70937 0.1066 0.25406 0.0
N962 N 0.69754 0.14591 0.28038 0.0
N963 N 0.75056 0.11896 0.25441 0.0
C964 C 0.75646 0.1567 0.27667 0.0
C965 C 0.72756 0.17142 0.29064 0.0
C966 C 0.73806 0.75059 0.16143 0.0
C967 C 0.77047 0.75622 0.18189 0.0
C968 C 0.70879 0.74124 0.18177 0.0
C969 C 0.71081 0.73743 0.22339 0.0
H970 H 0.73524 0.75379 0.12959 0.0
H971 H 0.68446 0.73751 0.16488 0.0
S972 S 0.78963 0.74419 0.28984 0.0
N973 N 0.80234 0.75318 0.24548 0.0
N974 N 0.74833 0.73715 0.28336 0.0
C975 C 0.74313 0.74206 0.24375 0.0
C976 C 0.77263 0.75103 0.22314 0.0
C977 C 0.31071 0.79674 0.24058 0.0
C978 C 0.33323 0.815 0.27399 0.0
C979 C 0.27977 0.80948 0.2328 0.0
C980 C 0.26981 0.84128 0.25793 0.0
H981 H 0.3163 0.77101 0.22103 0.0
H982 H 0.26306 0.79316 0.20751 0.0
S983 S 0.32115 0.90297 0.34659 0.0
N984 N 0.34462 0.86939 0.33032 0.0
N985 N 0.2865 0.8935 0.31564 0.0
C986 C 0.29298 0.86181 0.28991 0.0
C987 C 0.32464 0.8487 0.2979 0.0
C988 C 0.24901 0.66051 0.77196 0.0
C989 C 0.2818 0.6804 0.78649 0.0
C990 C 0.2206 0.67559 0.78463 0.0
C991 C 0.2236 0.71103 0.81276 0.0
H992 H 0.24512 0.63329 0.75006 0.0
H993 H 0.19603 0.65914 0.77224 0.0
S994 S 0.30373 0.77432 0.86081 0.0
N995 N 0.31554 0.7374 0.83101 0.0
N996 N 0.26226 0.76549 0.85511 0.0
C997 C 0.25623 0.73103 0.82794 0.0
C998 C 0.28524 0.71584 0.81473 0.0
C999 C 0.22409 0.21554 0.68687 0.0
C1000 C 0.20792 0.24137 0.71195 0.0
C1001 C 0.2527 0.2318 0.6684 0.0
C1002 C 0.2657 0.27463 0.67335 0.0
H1003 H 0.21579 0.18223 0.68328 0.0
H1004 H 0.26535 0.2105 0.65102 0.0
S1005 S 0.23133 0.35592 0.73373 0.0
N1006 N 0.2062 0.31224 0.73927 0.0
N1007 N 0.2593 0.34278 0.70369 0.0
C1008 C 0.24873 0.30106 0.69658 0.0
C1009 C 0.22004 0.28443 0.71611 0.0
C1010 C 0.82306 0.3408 0.78602 0.0
C1011 C 0.82686 0.29934 0.77547 0.0
C1012 C 0.79239 0.3544 0.77692 0.0
C1013 C 0.76422 0.3271 0.7569 0.0
H1014 H 0.84374 0.36282 0.80206 0.0
H1015 H 0.79064 0.3864 0.78623 0.0
S1016 S 0.76031 0.21492 0.72392 0.0
N1017 N 0.79899 0.23108 0.74448 0.0
N1018 N 0.74232 0.25637 0.72741 0.0
C1019 C 0.76789 0.28577 0.74581 0.0
C1020 C 0.79888 0.27199 0.75508 0.0
C1021 C 0.80092 0.72425 0.70204 0.0
C1022 C 0.80671 0.76358 0.72492 0.0
C1023 C 0.77099 0.70963 0.67703 0.0
C1024 C 0.74525 0.73351 0.67378 0.0
H1025 H 0.81904 0.70363 0.70467 0.0
H1026 H 0.76744 0.6785 0.66158 0.0
S1027 S 0.74936 0.84089 0.72266 0.0
N1028 N 0.78518 0.82785 0.73895 0.0
N1029 N 0.72918 0.80036 0.69248 0.0
C1030 C 0.75148 0.77382 0.69456 0.0
C1031 C 0.78207 0.78883 0.71986 0.0
C1032 C 0.14413 0.20902 0.95853 0.0
C1033 C 0.12495 0.17593 0.93227 0.0
C1034 C 0.14573 0.20902 1.00062 0.0
C1035 C 0.12798 0.17612 0.01864 0.0
H1036 H 0.15855 0.2351 0.9466 0.0
H1037 H 0.16149 0.23485 0.01911 0.0
S1038 S 0.07095 0.08393 0.96383 0.0
N1039 N 0.08596 0.11053 0.92793 0.0
N1040 N 0.08823 0.11093 0.0064 0.0
C1041 C 0.10754 0.14364 0.99275 0.0
C1042 C 0.10621 0.14344 0.9499 0.0
C1043 C 0.87189 0.23579 0.01287 0.0
C1044 C 0.85655 0.20429 0.98235 0.0
C1045 C 0.87106 0.23005 0.05357 0.0
C1046 C 0.8543 0.19288 0.06535 0.0
H1047 H 0.88683 0.26404 0.00539 0.0
H1048 H 0.88567 0.2537 0.07562 0.0
S1049 S 0.80099 0.10668 0.99787 0.0
N1050 N 0.81811 0.13859 0.96704 0.0
N1051 N 0.81498 0.12862 0.04369 0.0
C1052 C 0.83468 0.16387 0.03542 0.0
C1053 C 0.8361 0.16939 0.99383 0.0
C1054 C 0.89767 0.87814 0.99889 0.0
C1055 C 0.88149 0.84553 0.97022 0.0
C1056 C 0.8991 0.87426 0.04008 0.0
C1057 C 0.8831 0.83833 0.05537 0.0
H1058 H 0.91014 0.90697 0.98961 0.0
H1059 H 0.91333 0.90001 0.05996 0.0
S1060 S 0.8377 0.743 0.99352 0.0
N1061 N 0.85026 0.77472 0.96022 0.0
N1062 N 0.85084 0.76883 0.03811 0.0
C1063 C 0.86643 0.80542 0.02725 0.0
C1064 C 0.86605 0.80873 0.98477 0.0
C1065 C 0.10936 0.74587 0.01358 0.0
C1066 C 0.14205 0.74548 0.0309 0.0
C1067 C 0.10223 0.74287 0.9719 0.0
C1068 C 0.12732 0.73842 0.94596 0.0
H1069 H 0.08982 0.75228 0.0325 0.0
H1070 H 0.07753 0.74692 0.96 0.0
S1071 S 0.21585 0.73092 0.97568 0.0
N1072 N 0.19898 0.73691 0.01882 0.0
N1073 N 0.18524 0.72972 0.94002 0.0
C1074 C 0.15922 0.73378 0.96259 0.0
C1075 C 0.16667 0.73756 0.00528 0.0
C1076 C 0.01821 0.17328 0.13044 0.0
C1077 C 0.0429 0.16554 0.159 0.0
C1078 C 0.98471 0.17219 0.13968 0.0
C1079 C 0.97492 0.16463 0.17822 0.0
H1080 H 0.02464 0.1791 0.10046 0.0
H1081 H 0.96632 0.17727 0.11642 0.0
S1082 S 0.03105 0.1448 0.26408 0.0
N1083 N 0.05579 0.15094 0.22732 0.0
N1084 N 0.99349 0.15053 0.2453 0.0
C1085 C 0.99984 0.15814 0.20729 0.0
C1086 C 0.03363 0.15814 0.19751 0.0
C1087 C 0.863 0.98194 0.27033 0.0
C1088 C 0.89497 0.97055 0.27471 0.0
C1089 C 0.85966 0.0228 0.26428 0.0
C1090 C 0.88812 0.05343 0.26324 0.0
H1091 H 0.84055 0.95839 0.26663 0.0
H1092 H 0.83479 0.02951 0.25677 0.0
S1093 S 0.97697 0.04127 0.28103 0.0
N1094 N 0.95531 0.99462 0.28401 0.0
N1095 N 0.94886 0.07123 0.27245 0.0
C1096 C 0.91994 0.04359 0.27234 0.0
C1097 C 0.92339 0.00216 0.27854 0.0
C1098 C 1.01064 0.83799 0.21313 0.0
C1099 C 0.98636 0.81703 0.18254 0.0
C1100 C 0.04412 0.83176 0.21439 0.0
C1101 C 0.05473 0.80481 0.1847 0.0
H1102 H 1.00393 0.86026 0.23579 0.0
H1103 H 0.06216 0.85019 0.23732 0.0
S1104 S 1.00071 0.74001 0.09993 0.0
N1105 N 0.97494 0.76597 0.12347 0.0
N1106 N 0.03788 0.75476 0.12546 0.0
C1107 C 0.0304 0.78212 0.15511 0.0
C1108 C 0.99623 0.78809 0.15411 0.0
C1109 C 0.10624 0.9926 0.21772 0.0
C1110 C 0.13088 0.02585 0.21014 0.0
C1111 C 0.11398 0.9529 0.22019 0.0
C1112 C 0.1467 0.94514 0.21602 0.0
H1113 H 0.08014 0.99611 0.21803 0.0
H1114 H 0.09363 0.92733 0.22184 0.0
S1115 S 0.22163 0.02244 0.20383 0.0
N1116 N 0.19062 0.04931 0.20509 0.0
N1117 N 0.2047 0.97427 0.20934 0.0
C1118 C 0.17227 0.9787 0.21309 0.0
C1119 C 0.16448 0.01925 0.21039 0.0
C1120 C 0.9759 0.77387 0.86605 0.0
C1121 C 0.95761 0.78824 0.83464 0.0
C1122 C 1.00835 0.76505 0.86168 0.0
C1123 C 0.02415 0.77194 0.82635 0.0
H1124 H 0.96576 0.77162 0.89494 0.0
H1125 H 0.02218 0.75598 0.88727 0.0
S1126 S 0.98636 0.80668 0.73451 0.0
N1127 N 0.95666 0.80558 0.76589 0.0
N1128 N 0.01844 0.79157 0.75867 0.0
C1129 C 1.00561 0.78444 0.79415 0.0
C1130 C 0.97212 0.79196 0.79806 0.0
C1131 C 0.15728 0.96115 0.82978 0.0
C1132 C 0.13155 0.93588 0.80354 0.0
C1133 C 0.16236 0.00467 0.83102 0.0
C1134 C 0.14246 0.0241 0.80529 0.0
H1135 H 0.17178 0.94762 0.85167 0.0
H1136 H 0.18033 0.02308 0.85403 0.0
S1137 S 0.07904 0.97071 0.723 0.0
N1138 N 0.09058 0.93276 0.74645 0.0
N1139 N 0.10168 0.01392 0.74648 0.0
C1140 C 0.12002 0.99865 0.77524 0.0
C1141 C 0.11419 0.95467 0.77489 0.0
C1142 C 0.03377 0.23064 0.76433 0.0
C1143 C 0.05976 0.24765 0.79447 0.0
C1144 C 1.00067 0.23718 0.76791 0.0
C1145 C 0.99267 0.26066 0.802 0.0
H1146 H 0.03845 0.20927 0.73967 0.0
H1147 H 0.98113 0.22045 0.74597 0.0
S1148 S 0.05433 0.32706 0.87852 0.0
N1149 N 0.07716 0.29923 0.85199 0.0
N1150 N 0.0154 0.3131 0.85759 0.0
C1151 C 0.01963 0.2845 0.82738 0.0
C1152 C 0.0532 0.27756 0.82397 0.0
C1153 C 0.89307 0.04218 0.88733 0.0
C1154 C 0.89171 0.01556 0.85157 0.0
C1155 C 0.90199 0.08553 0.88787 0.0
C1156 C 0.91088 0.10378 0.85288 0.0
H1157 H 0.88676 0.02943 0.91496 0.0
H1158 H 0.90122 0.10485 0.91575 0.0
S1159 S 0.91741 0.04609 0.75345 0.0
N1160 N 0.90311 0.00967 0.78151 0.0
N1161 N 0.92193 0.09036 0.78276 0.0
C1162 C 0.91154 0.07687 0.81755 0.0
C1163 C 0.90142 0.03302 0.81682 0.0
C1164 C 0.60467 0.63934 0.45168 0.0
C1165 C 0.61589 0.67654 0.43544 0.0
C1166 C 0.60643 0.63735 0.49338 0.0
C1167 C 0.6202 0.67221 0.52113 0.0
H1168 H 0.59482 0.6111 0.43207 0.0
H1169 H 0.59728 0.60773 0.5037 0.0
S1170 S 0.64872 0.77878 0.4949 0.0
N1171 N 0.63739 0.75061 0.45109 0.0
N1172 N 0.64225 0.74623 0.52915 0.0
C1173 C 0.63018 0.7101 0.50548 0.0
C1174 C 0.62767 0.7124 0.46287 0.0
C1175 C 0.33828 0.71104 0.54681 0.0
C1176 C 0.36048 0.68858 0.56543 0.0
C1177 C 0.33614 0.71195 0.50483 0.0
C1178 C 0.35529 0.68924 0.4807 0.0
H1179 H 0.32242 0.72757 0.56465 0.0
H1180 H 0.31951 0.73036 0.49118 0.0
S1181 S 0.41841 0.62787 0.51597 0.0
N1182 N 0.40295 0.64504 0.55733 0.0
N1183 N 0.39843 0.64603 0.47878 0.0
C1184 C 0.3777 0.66714 0.49933 0.0
C1185 C 0.38036 0.66691 0.5417 0.0
C1186 C 0.36407 0.3549 0.48628 0.0
C1187 C 0.38987 0.34226 0.46485 0.0
C1188 C 0.36153 0.34766 0.5267 0.0
C1189 C 0.38515 0.32841 0.54721 0.0
H1190 H 0.34574 0.37045 0.47168 0.0
H1191 H 0.34153 0.35825 0.54234 0.0
S1192 S 0.45708 0.28902 0.50432 0.0
N1193 N 0.43858 0.308 0.46649 0.0
N1194 N 0.43505 0.29681 0.5431 0.0
C1195 C 0.41092 0.31547 0.52603 0.0
C1196 C 0.41295 0.32176 0.48462 0.0
C1197 C 0.66269 0.23566 0.46986 0.0
C1198 C 0.63155 0.23718 0.4491 0.0
C1199 C 0.66617 0.23783 0.51214 0.0
C1200 C 0.6385 0.24142 0.53454 0.0
H1201 H 0.68502 0.23685 0.45377 0.0
H1202 H 0.69112 0.24086 0.52734 0.0
S1203 S 0.55066 0.23887 0.49337 0.0
N1204 N 0.5721 0.2371 0.45338 0.0
N1205 N 0.57819 0.2397 0.53234 0.0
C1206 C 0.60667 0.23821 0.51355 0.0
C1207 C 0.60332 0.23666 0.4709 0.0
C1208 C 0.51183 0.67338 0.63795 0.0
C1209 C 0.53298 0.65154 0.65944 0.0
C1210 C 0.47851 0.67364 0.64732 0.0
C1211 C 0.46563 0.65352 0.67954 0.0
H1212 H 0.52082 0.68949 0.6131 0.0
H1213 H 0.46273 0.68983 0.62935 0.0
S1214 S 0.51088 0.59283 0.74565 0.0
N1215 N 0.53845 0.60914 0.71422 0.0
N1216 N 0.47663 0.61145 0.73292 0.0
C1217 C 0.48674 0.6324 0.70173 0.0
C1218 C 0.52019 0.63094 0.6914 0.0
C1219 C 0.40601 0.53399 0.76822 0.0
C1220 C 0.37423 0.54432 0.75976 0.0
C1221 C 0.40942 0.49295 0.77288 0.0
C1222 C 0.38114 0.46092 0.76849 0.0
H1223 H 0.42845 0.55682 0.76739 0.0
H1224 H 0.4345 0.48541 0.77476 0.0
S1225 S 0.29211 0.47452 0.75523 0.0
N1226 N 0.31387 0.52153 0.75424 0.0
N1227 N 0.32009 0.44413 0.76284 0.0
C1228 C 0.34908 0.47214 0.76561 0.0
C1229 C 0.34568 0.51398 0.76077 0.0
C1230 C 0.52432 0.28027 0.66324 0.0
C1231 C 0.54825 0.30304 0.69333 0.0
C1232 C 0.49083 0.28625 0.6605 0.0
C1233 C 0.47986 0.31561 0.68746 0.0
H1234 H 0.53188 0.25901 0.6403 0.0
H1235 H 0.47386 0.26912 0.6358 0.0
S1236 S 0.53087 0.37859 0.77548 0.0
N1237 N 0.55741 0.35246 0.75363 0.0
N1238 N 0.49452 0.36425 0.74804 0.0
C1239 C 0.50287 0.33667 0.71925 0.0
C1240 C 0.53697 0.33009 0.72242 0.0
C1241 C 0.6738 0.51505 0.72314 0.0
C1242 C 0.64283 0.52872 0.71747 0.0
C1243 C 0.67507 0.47245 0.72284 0.0
C1244 C 0.64539 0.44272 0.7166 0.0
H1245 H 0.69713 0.53674 0.72367 0.0
H1246 H 0.69932 0.46262 0.72367 0.0
S1247 S 0.55819 0.46368 0.70822 0.0
N1248 N 0.58203 0.50998 0.71172 0.0
N1249 N 0.58438 0.43035 0.71092 0.0
C1250 C 0.6144 0.45657 0.71524 0.0
C1251 C 0.61313 0.49956 0.71582 0.0
C1252 C 0.487 0.30818 0.29871 0.0
C1253 C 0.46634 0.29372 0.32806 0.0
C1254 C 0.52005 0.30044 0.29822 0.0
C1255 C 0.5332 0.27675 0.32623 0.0
H1256 H 0.47837 0.328 0.27772 0.0
H1257 H 0.53597 0.31472 0.277 0.0
S1258 S 0.48787 0.22786 0.40616 0.0
N1259 N 0.46055 0.25267 0.38422 0.0
N1260 N 0.52189 0.23569 0.38162 0.0
C1261 C 0.51181 0.25916 0.35349 0.0
C1262 C 0.47852 0.26824 0.35482 0.0
C1263 C 0.66095 0.46632 0.33524 0.0
C1264 C 0.63671 0.43898 0.30884 0.0
C1265 C 0.66295 0.50957 0.33648 0.0
C1266 C 0.64122 0.52671 0.3108 0.0
H1267 H 0.67646 0.45442 0.35737 0.0
H1268 H 0.68001 0.52939 0.35949 0.0
S1269 S 0.58024 0.46796 0.22859 0.0
N1270 N 0.5951 0.43183 0.25177 0.0
N1271 N 0.60006 0.5127 0.2522 0.0
C1272 C 0.62015 0.49954 0.28071 0.0
C1273 C 0.61764 0.45575 0.28015 0.0
C1274 C 0.54706 0.7648 0.33773 0.0
C1275 C 0.55691 0.74922 0.30093 0.0
C1276 C 0.51356 0.7683 0.34211 0.0
C1277 C 0.48826 0.75611 0.30992 0.0
H1278 H 0.56432 0.76943 0.36462 0.0
H1279 H 0.5072 0.77684 0.37214 0.0
S1280 S 0.50315 0.72383 0.20459 0.0
N1281 N 0.54048 0.72915 0.22982 0.0
N1282 N 0.47725 0.73629 0.23776 0.0
C1283 C 0.49871 0.74599 0.27162 0.0
C1284 C 0.53309 0.74228 0.26725 0.0
C1285 C 0.3952 0.54166 0.38473 0.0
C1286 C 0.38773 0.51402 0.34932 0.0
C1287 C 0.4013 0.58484 0.38332 0.0
C1288 C 0.40095 0.60216 0.34645 0.0
H1289 H 0.39603 0.5298 0.41376 0.0
H1290 H 0.40605 0.60473 0.41141 0.0
S1291 S 0.38998 0.54191 0.24504 0.0
N1292 N 0.38433 0.50625 0.27644 0.0
N1293 N 0.3977 0.5869 0.27347 0.0
C1294 C 0.39579 0.57436 0.31077 0.0
C1295 C 0.38861 0.53049 0.3123 0.0
loop_
_geom_bond_atom_site_label_1
_geom_bond_atom_site_label_2
_geom_bond_distance
_geom_bond_site_symmetry_2
_ccdc_geom_bond_type
Co0 O2 2.143 . S
Co0 O8 2.074 . S
Co0 O11 2.093 . S
Co0 O24 2.097 . S
Co0 N41 2.151 . S
Co0 N49 2.214 . S
Co1 O2 2.160 . S
Co1 O7 2.058 . S
Co1 O17 2.057 . S
Co1 O32 2.037 . S
Co1 N36 2.145 . S
Co1 N57 2.257 . S
O2 Co0 2.143 . S
O2 Co1 2.160 . S
C3 O4 1.278 . S
C3 O11 1.224 . S
O4 C3 1.278 . S
C5 O6 1.245 . S
C5 O17 1.232 . S
O6 C5 1.245 . S
O7 Co1 2.058 . S
O7 C33 1.269 . S
O8 Co0 2.074 . S
O8 C33 1.257 . S
H9 C34 0.930 . S
H10 C40 0.930 . S
O11 Co0 2.093 . S
O11 C3 1.224 . S
H12 C44 0.940 . S
H13 C46 0.930 1_565 S
H14 C47 0.930 . S
H15 C45 0.929 . S
H16 C48 0.928 . S
O17 Co1 2.057 . S
O17 C5 1.232 . S
H18 C37 0.929 . S
H19 C38 0.929 . S
H20 C50 0.931 . S
H21 C42 0.929 . S
H22 C51 0.930 1_556 S
H23 C43 0.931 . S
O24 Co0 2.097 . S
O24 C52 1.214 . S
H25 C53 0.929 . S
H26 C54 0.929 . S
H27 C55 0.930 . S
H28 C56 0.929 . S
H29 C58 0.930 . S
H30 C35 0.930 . S
H31 C39 0.930 . S
O32 Co1 2.037 . S
O32 C52 1.234 . S
C33 O7 1.269 . S
C33 O8 1.257 . S
C34 H9 0.930 . S
C34 C37 1.388 . S
C34 C39 1.418 . S
C35 H30 0.930 . S
C35 C38 1.404 . S
C35 C39 1.353 . S
N36 Co1 2.145 . S
N36 C37 1.397 . S
N36 C38 1.334 . S
C37 H18 0.929 . S
C37 C34 1.388 . S
C37 N36 1.397 . S
C38 H19 0.929 . S
C38 C35 1.404 . S
C38 N36 1.334 . S
C39 H31 0.930 . S
C39 C34 1.418 . S
C39 C35 1.353 . S
C40 H10 0.930 . S
C40 N41 1.330 . S
C40 C42 1.446 . S
N41 Co0 2.151 . S
N41 C40 1.330 . S
N41 C45 1.418 . S
C42 H21 0.929 . S
C42 C40 1.446 . S
C42 C43 1.332 . S
C43 H23 0.931 . S
C43 C42 1.332 . S
C43 C44 1.267 . S
C44 H12 0.940 . S
C44 C43 1.267 . S
C44 C45 1.251 . S
C45 H15 0.929 . S
C45 N41 1.418 . S
C45 C44 1.251 . S
C46 H13 0.930 1_545 S
C46 C48 1.406 . S
C46 C51 1.261 . S
C47 H14 0.930 . S
C47 N49 1.325 . S
C47 C50 1.357 . S
C48 H16 0.928 . S
C48 C46 1.406 . S
C48 N49 1.261 . S
N49 Co0 2.214 . S
N49 C47 1.325 . S
N49 C48 1.261 . S
C50 H20 0.931 . S
C50 C47 1.357 . S
C50 C51 1.312 . S
C51 H22 0.930 1_554 S
C51 C46 1.261 . S
C51 C50 1.312 . S
C52 O24 1.214 . S
C52 O32 1.234 . S
C53 H25 0.929 . S
C53 C56 1.391 . S
C53 C58 1.391 . S
C54 H26 0.929 . S
C54 C55 1.390 . S
C54 N57 1.391 . S
C55 H27 0.930 . S
C55 C54 1.390 . S
C55 C56 1.392 . S
C56 H28 0.929 . S
C56 C53 1.391 . S
C56 C55 1.392 . S
N57 Co1 2.257 . S
N57 C54 1.391 . S
N57 C58 1.388 . S
C58 H29 0.930 . S
C58 C53 1.391 . S
C58 N57 1.388 . S
Co59 O61 2.143 . S
Co59 O67 2.074 . S
Co59 O70 2.093 . S
Co59 O83 2.097 . S
Co59 N100 2.151 . S
Co59 N108 2.214 . S
Co60 O61 2.160 . S
Co60 O66 2.058 . S
Co60 O76 2.057 . S
Co60 O91 2.037 . S
Co60 N95 2.145 . S
Co60 N116 2.257 . S
O61 Co59 2.143 . S
O61 Co60 2.160 . S
C62 O63 1.278 . S
C62 O70 1.224 . S
O63 C62 1.278 . S
C64 O65 1.245 . S
C64 O76 1.232 . S
O65 C64 1.245 . S
O66 Co60 2.058 . S
O66 C92 1.269 . S
O67 Co59 2.074 . S
O67 C92 1.257 . S
H68 C93 0.930 . S
H69 C99 0.930 . S
O70 Co59 2.093 . S
O70 C62 1.224 . S
H71 C103 0.929 . S
H72 C105 0.930 . S
H73 C106 0.930 . S
H74 C104 0.929 . S
H75 C107 0.928 . S
O76 Co60 2.057 . S
O76 C64 1.232 . S
H77 C96 0.929 . S
H78 C97 0.929 . S
H79 C109 0.931 . S
H80 C101 0.929 . S
H81 C110 0.930 . S
H82 C102 0.931 . S
O83 Co59 2.097 . S
O83 C111 1.214 . S
H84 C112 0.929 . S
H85 C113 0.929 . S
H86 C114 0.930 . S
H87 C115 0.929 . S
H88 C117 0.930 . S
H89 C94 0.930 . S
H90 C98 0.930 . S
O91 Co60 2.037 . S
O91 C111 1.234 . S
C92 O66 1.269 . S
C92 O67 1.257 . S
C93 H68 0.930 . S
C93 C96 1.388 . S
C93 C98 1.418 . S
C94 H89 0.930 . S
C94 C97 1.404 . S
C94 C98 1.353 . S
N95 Co60 2.145 . S
N95 C96 1.397 . S
N95 C97 1.334 . S
C96 H77 0.929 . S
C96 C93 1.388 . S
C96 N95 1.397 . S
C97 H78 0.929 . S
C97 C94 1.404 . S
C97 N95 1.334 . S
C98 H90 0.930 . S
C98 C93 1.418 . S
C98 C94 1.353 . S
C99 H69 0.930 . S
C99 N100 1.330 . S
C99 C101 1.446 . S
N100 Co59 2.151 . S
N100 C99 1.330 . S
N100 C104 1.418 . S
C101 H80 0.929 . S
C101 C99 1.446 . S
C101 C102 1.332 . S
C102 H82 0.931 . S
C102 C101 1.332 . S
C102 C103 1.267 . S
C103 H71 0.929 . S
C103 C102 1.267 . S
C103 C104 1.251 . S
C104 H74 0.929 . S
C104 N100 1.418 . S
C104 C103 1.251 . S
C105 H72 0.930 . S
C105 C107 1.406 . S
C105 C110 1.261 . S
C106 H73 0.930 . S
C106 N108 1.325 . S
C106 C109 1.357 . S
C107 H75 0.928 . S
C107 C105 1.406 . S
C107 N108 1.261 . S
N108 Co59 2.214 . S
N108 C106 1.325 . S
N108 C107 1.261 . S
C109 H79 0.931 . S
C109 C106 1.357 . S
C109 C110 1.312 . S
C110 H81 0.930 . S
C110 C105 1.261 . S
C110 C109 1.312 . S
C111 O83 1.214 . S
C111 O91 1.234 . S
C112 H84 0.929 . S
C112 C115 1.391 . S
C112 C117 1.391 . S
C113 H85 0.929 . S
C113 C114 1.390 . S
C113 N116 1.391 . S
C114 H86 0.930 . S
C114 C113 1.390 . S
C114 C115 1.392 . S
C115 H87 0.929 . S
C115 C112 1.391 . S
C115 C114 1.392 . S
N116 Co60 2.257 . S
N116 C113 1.391 . S
N116 C117 1.388 . S
C117 H88 0.930 . S
C117 C112 1.391 . S
C117 N116 1.388 . S
Co118 O120 2.143 . S
Co118 O126 2.074 . S
Co118 O129 2.093 . S
Co118 O142 2.097 . S
Co118 N159 2.151 . S
Co118 N167 2.214 . S
Co119 O120 2.160 . S
Co119 O125 2.058 . S
Co119 O135 2.057 . S
Co119 O150 2.037 . S
Co119 N154 2.145 . S
Co119 N175 2.257 . S
O120 Co118 2.143 . S
O120 Co119 2.160 . S
C121 O122 1.278 . S
C121 O129 1.224 . S
O122 C121 1.278 . S
C123 O124 1.245 . S
C123 O135 1.232 . S
O124 C123 1.245 . S
O125 Co119 2.058 . S
O125 C151 1.269 . S
O126 Co118 2.074 . S
O126 C151 1.257 . S
H127 C152 0.930 . S
H128 C158 0.930 . S
O129 Co118 2.093 . S
O129 C121 1.224 . S
H130 C162 0.929 . S
H131 C164 0.930 1_545 S
H132 C165 0.930 . S
H133 C163 0.929 . S
H134 C166 0.928 . S
O135 Co119 2.057 . S
O135 C123 1.232 . S
H136 C155 0.929 . S
H137 C156 0.929 . S
H138 C168 0.931 . S
H139 C160 0.929 . S
H140 C169 0.930 . S
H141 C161 0.931 . S
O142 Co118 2.097 . S
O142 C170 1.214 . S
H143 C171 0.929 . S
H144 C172 0.929 . S
H145 C173 0.930 . S
H146 C174 0.929 . S
H147 C176 0.930 . S
H148 C153 0.930 . S
H149 C157 0.930 . S
O150 Co119 2.037 . S
O150 C170 1.234 . S
C151 O125 1.269 . S
C151 O126 1.257 . S
C152 H127 0.930 . S
C152 C155 1.388 . S
C152 C157 1.418 . S
C153 H148 0.930 . S
C153 C156 1.404 . S
C153 C157 1.353 . S
N154 Co119 2.145 . S
N154 C155 1.397 . S
N154 C156 1.334 . S
C155 H136 0.929 . S
C155 C152 1.388 . S
C155 N154 1.397 . S
C156 H137 0.929 . S
C156 C153 1.404 . S
C156 N154 1.334 . S
C157 H149 0.930 . S
C157 C152 1.418 . S
C157 C153 1.353 . S
C158 H128 0.930 . S
C158 N159 1.330 . S
C158 C160 1.446 . S
N159 Co118 2.151 . S
N159 C158 1.330 . S
N159 C163 1.418 . S
C160 H139 0.929 . S
C160 C158 1.446 . S
C160 C161 1.332 . S
C161 H141 0.931 . S
C161 C160 1.332 . S
C161 C162 1.267 . S
C162 H130 0.929 . S
C162 C161 1.267 . S
C162 C163 1.251 . S
C163 H133 0.929 . S
C163 N159 1.418 . S
C163 C162 1.251 . S
C164 H131 0.930 1_565 S
C164 C166 1.406 . S
C164 C169 1.261 . S
C165 H132 0.930 . S
C165 N167 1.325 . S
C165 C168 1.357 . S
C166 H134 0.928 . S
C166 C164 1.406 . S
C166 N167 1.261 . S
N167 Co118 2.214 . S
N167 C165 1.325 . S
N167 C166 1.261 . S
C168 H138 0.931 . S
C168 C165 1.357 . S
C168 C169 1.312 . S
C169 H140 0.930 . S
C169 C164 1.261 . S
C169 C168 1.312 . S
C170 O142 1.214 . S
C170 O150 1.234 . S
C171 H143 0.929 . S
C171 C174 1.391 . S
C171 C176 1.391 . S
C172 H144 0.929 . S
C172 C173 1.390 . S
C172 N175 1.391 . S
C173 H145 0.930 . S
C173 C172 1.390 . S
C173 C174 1.392 . S
C174 H146 0.929 . S
C174 C171 1.391 . S
C174 C173 1.392 . S
N175 Co119 2.257 . S
N175 C172 1.391 . S
N175 C176 1.388 . S
C176 H147 0.930 . S
C176 C171 1.391 . S
C176 N175 1.388 . S
Co177 O179 2.143 . S
Co177 O185 2.074 . S
Co177 O188 2.093 . S
Co177 O201 2.097 . S
Co177 N218 2.151 . S
Co177 N226 2.214 . S
Co178 O179 2.160 . S
Co178 O184 2.058 . S
Co178 O194 2.057 . S
Co178 O209 2.037 . S
Co178 N213 2.145 . S
Co178 N234 2.257 . S
O179 Co177 2.143 . S
O179 Co178 2.160 . S
C180 O181 1.278 . S
C180 O188 1.224 . S
O181 C180 1.278 . S
C182 O183 1.245 . S
C182 O194 1.232 . S
O183 C182 1.245 . S
O184 Co178 2.058 . S
O184 C210 1.269 . S
O185 Co177 2.074 . S
O185 C210 1.257 . S
H186 C211 0.930 . S
H187 C217 0.930 . S
O188 Co177 2.093 . S
O188 C180 1.224 . S
H189 C221 0.929 . S
H190 C223 0.930 1_556 S
H191 C224 0.930 . S
H192 C222 0.929 . S
H193 C225 0.928 . S
O194 Co178 2.057 . S
O194 C182 1.232 . S
H195 C214 0.929 . S
H196 C215 0.929 . S
H197 C227 0.931 . S
H198 C219 0.929 . S
H199 C228 0.930 . S
H200 C220 0.931 . S
O201 Co177 2.097 . S
O201 C229 1.214 . S
H202 C230 0.929 . S
H203 C231 0.929 . S
H204 C232 0.930 . S
H205 C233 0.929 . S
H206 C235 0.930 . S
H207 C212 0.930 . S
H208 C216 0.930 . S
O209 Co178 2.037 . S
O209 C229 1.234 . S
C210 O184 1.269 . S
C210 O185 1.257 . S
C211 H186 0.930 . S
C211 C214 1.388 . S
C211 C216 1.418 . S
C212 H207 0.930 . S
C212 C215 1.404 . S
C212 C216 1.353 . S
N213 Co178 2.145 . S
N213 C214 1.397 . S
N213 C215 1.334 . S
C214 H195 0.929 . S
C214 C211 1.388 . S
C214 N213 1.397 . S
C215 H196 0.929 . S
C215 C212 1.404 . S
C215 N213 1.334 . S
C216 H208 0.930 . S
C216 C211 1.418 . S
C216 C212 1.353 . S
C217 H187 0.930 . S
C217 N218 1.330 . S
C217 C219 1.446 . S
N218 Co177 2.151 . S
N218 C217 1.330 . S
N218 C222 1.418 . S
C219 H198 0.929 . S
C219 C217 1.446 . S
C219 C220 1.332 . S
C220 H200 0.931 . S
C220 C219 1.332 . S
C220 C221 1.267 . S
C221 H189 0.929 . S
C221 C220 1.267 . S
C221 C222 1.251 . S
C222 H192 0.929 . S
C222 N218 1.418 . S
C222 C221 1.251 . S
C223 H190 0.930 1_554 S
C223 C225 1.406 . S
C223 C228 1.261 . S
C224 H191 0.930 . S
C224 N226 1.325 . S
C224 C227 1.357 . S
C225 H193 0.928 . S
C225 C223 1.406 . S
C225 N226 1.261 . S
N226 Co177 2.214 . S
N226 C224 1.325 . S
N226 C225 1.261 . S
C227 H197 0.931 . S
C227 C224 1.357 . S
C227 C228 1.312 . S
C228 H199 0.930 . S
C228 C223 1.261 . S
C228 C227 1.312 . S
C229 O201 1.214 . S
C229 O209 1.234 . S
C230 H202 0.929 . S
C230 C233 1.391 . S
C230 C235 1.391 . S
C231 H203 0.929 . S
C231 C232 1.390 . S
C231 N234 1.391 . S
C232 H204 0.930 . S
C232 C231 1.390 . S
C232 C233 1.392 . S
C233 H205 0.929 . S
C233 C230 1.391 . S
C233 C232 1.392 . S
N234 Co178 2.257 . S
N234 C231 1.391 . S
N234 C235 1.388 . S
C235 H206 0.930 . S
C235 C230 1.391 . S
C235 N234 1.388 . S
Co236 O238 2.143 . S
Co236 O244 2.074 . S
Co236 O247 2.093 . S
Co236 O260 2.097 . S
Co236 N277 2.151 . S
Co236 N285 2.214 . S
Co237 O238 2.160 . S
Co237 O243 2.058 . S
Co237 O253 2.057 . S
Co237 O268 2.037 . S
Co237 N272 2.145 . S
Co237 N293 2.257 . S
O238 Co236 2.143 . S
O238 Co237 2.160 . S
C239 O240 1.278 . S
C239 O247 1.224 . S
O240 C239 1.278 . S
C241 O242 1.245 . S
C241 O253 1.232 . S
O242 C241 1.245 . S
O243 Co237 2.058 . S
O243 C269 1.269 . S
O244 Co236 2.074 . S
O244 C269 1.257 . S
H245 C270 0.930 . S
H246 C276 0.930 . S
O247 Co236 2.093 . S
O247 C239 1.224 . S
H248 C280 0.929 . S
H249 C282 0.930 . S
H250 C283 0.930 . S
H251 C281 0.929 . S
H252 C284 0.928 . S
O253 Co237 2.057 . S
O253 C241 1.232 . S
H254 C273 0.929 . S
H255 C274 0.929 . S
H256 C286 0.931 . S
H257 C278 0.929 . S
H258 C287 0.930 . S
H259 C279 0.931 . S
O260 Co236 2.097 . S
O260 C288 1.214 . S
H261 C289 0.929 . S
H262 C290 0.929 . S
H263 C291 0.930 . S
H264 C292 0.929 . S
H265 C294 0.930 . S
H266 C271 0.930 . S
H267 C275 0.930 . S
O268 Co237 2.037 . S
O268 C288 1.234 . S
C269 O243 1.269 . S
C269 O244 1.257 . S
C270 H245 0.930 . S
C270 C273 1.388 . S
C270 C275 1.418 . S
C271 H266 0.930 . S
C271 C274 1.404 . S
C271 C275 1.353 . S
N272 Co237 2.145 . S
N272 C273 1.397 . S
N272 C274 1.334 . S
C273 H254 0.929 . S
C273 C270 1.388 . S
C273 N272 1.397 . S
C274 H255 0.929 . S
C274 C271 1.404 . S
C274 N272 1.334 . S
C275 H267 0.930 . S
C275 C270 1.418 . S
C275 C271 1.353 . S
C276 H246 0.930 . S
C276 N277 1.330 . S
C276 C278 1.446 . S
N277 Co236 2.151 . S
N277 C276 1.330 . S
N277 C281 1.418 . S
C278 H257 0.929 . S
C278 C276 1.446 . S
C278 C279 1.332 . S
C279 H259 0.931 . S
C279 C278 1.332 . S
C279 C280 1.267 . S
C280 H248 0.929 . S
C280 C279 1.267 . S
C280 C281 1.251 . S
C281 H251 0.929 . S
C281 N277 1.418 . S
C281 C280 1.251 . S
C282 H249 0.930 . S
C282 C284 1.406 . S
C282 C287 1.261 . S
C283 H250 0.930 . S
C283 N285 1.325 . S
C283 C286 1.357 . S
C284 H252 0.928 . S
C284 C282 1.406 . S
C284 N285 1.261 . S
N285 Co236 2.214 . S
N285 C283 1.325 . S
N285 C284 1.261 . S
C286 H256 0.931 . S
C286 C283 1.357 . S
C286 C287 1.312 . S
C287 H258 0.930 . S
C287 C282 1.261 . S
C287 C286 1.312 . S
C288 O260 1.214 . S
C288 O268 1.234 . S
C289 H261 0.929 . S
C289 C292 1.391 . S
C289 C294 1.391 . S
C290 H262 0.929 . S
C290 C291 1.390 . S
C290 N293 1.391 . S
C291 H263 0.930 . S
C291 C290 1.390 . S
C291 C292 1.392 . S
C292 H264 0.929 . S
C292 C289 1.391 . S
C292 C291 1.392 . S
N293 Co237 2.257 . S
N293 C290 1.391 . S
N293 C294 1.388 . S
C294 H265 0.930 . S
C294 C289 1.391 . S
C294 N293 1.388 . S
Co295 O297 2.143 . S
Co295 O303 2.074 . S
Co295 O306 2.093 . S
Co295 O319 2.097 . S
Co295 N336 2.151 . S
Co295 N344 2.214 . S
Co296 O297 2.160 . S
Co296 O302 2.058 . S
Co296 O312 2.057 . S
Co296 O327 2.037 . S
Co296 N331 2.145 . S
Co296 N352 2.257 . S
O297 Co295 2.143 . S
O297 Co296 2.160 . S
C298 O299 1.278 . S
C298 O306 1.224 . S
O299 C298 1.278 . S
C300 O301 1.245 . S
C300 O312 1.232 . S
O301 C300 1.245 . S
O302 Co296 2.058 . S
O302 C328 1.269 . S
O303 Co295 2.074 . S
O303 C328 1.257 . S
H304 C329 0.930 . S
H305 C335 0.930 . S
O306 Co295 2.093 . S
O306 C298 1.224 . S
H307 C339 0.929 1_655 S
H308 C341 0.930 1_565 S
H309 C342 0.930 . S
H310 C340 0.929 . S
H311 C343 0.928 . S
O312 Co296 2.057 . S
O312 C300 1.232 . S
H313 C332 0.929 . S
H314 C333 0.929 . S
H315 C345 0.931 . S
H316 C337 0.929 . S
H317 C346 0.930 . S
H318 C338 0.931 . S
O319 Co295 2.097 . S
O319 C347 1.214 . S
H320 C348 0.929 . S
H321 C349 0.929 . S
H322 C350 0.930 . S
H323 C351 0.929 . S
H324 C353 0.930 . S
H325 C330 0.930 . S
H326 C334 0.930 . S
O327 Co296 2.037 . S
O327 C347 1.234 . S
C328 O302 1.269 . S
C328 O303 1.257 . S
C329 H304 0.930 . S
C329 C332 1.388 . S
C329 C334 1.418 . S
C330 H325 0.930 . S
C330 C333 1.404 . S
C330 C334 1.353 . S
N331 Co296 2.145 . S
N331 C332 1.397 . S
N331 C333 1.334 . S
C332 H313 0.929 . S
C332 C329 1.388 . S
C332 N331 1.397 . S
C333 H314 0.929 . S
C333 C330 1.404 . S
C333 N331 1.334 . S
C334 H326 0.930 . S
C334 C329 1.418 . S
C334 C330 1.353 . S
C335 H305 0.930 . S
C335 N336 1.330 . S
C335 C337 1.446 . S
N336 Co295 2.151 . S
N336 C335 1.330 . S
N336 C340 1.418 . S
C337 H316 0.929 . S
C337 C335 1.446 . S
C337 C338 1.332 . S
C338 H318 0.931 . S
C338 C337 1.332 . S
C338 C339 1.267 . S
C339 H307 0.929 1_455 S
C339 C338 1.267 . S
C339 C340 1.251 . S
C340 H310 0.929 . S
C340 N336 1.418 . S
C340 C339 1.251 . S
C341 H308 0.930 1_545 S
C341 C343 1.406 1_655 S
C341 C346 1.261 . S
C342 H309 0.930 . S
C342 N344 1.325 . S
C342 C345 1.357 1_455 S
C343 H311 0.928 . S
C343 C341 1.406 1_455 S
C343 N344 1.261 . S
N344 Co295 2.214 . S
N344 C342 1.325 . S
N344 C343 1.261 . S
C345 H315 0.931 . S
C345 C342 1.357 1_655 S
C345 C346 1.312 . S
C346 H317 0.930 . S
C346 C341 1.261 . S
C346 C345 1.312 . S
C347 O319 1.214 . S
C347 O327 1.234 . S
C348 H320 0.929 . S
C348 C351 1.391 . S
C348 C353 1.391 . S
C349 H321 0.929 . S
C349 C350 1.390 . S
C349 N352 1.391 . S
C350 H322 0.930 . S
C350 C349 1.390 . S
C350 C351 1.392 . S
C351 H323 0.929 . S
C351 C348 1.391 . S
C351 C350 1.392 . S
N352 Co296 2.257 . S
N352 C349 1.391 . S
N352 C353 1.388 . S
C353 H324 0.930 . S
C353 C348 1.391 . S
C353 N352 1.388 . S
Co354 O356 2.143 . S
Co354 O362 2.074 . S
Co354 O365 2.093 . S
Co354 O378 2.097 . S
Co354 N395 2.151 . S
Co354 N403 2.214 . S
Co355 O356 2.160 . S
Co355 O361 2.058 . S
Co355 O371 2.057 . S
Co355 O386 2.037 . S
Co355 N390 2.145 . S
Co355 N411 2.257 . S
O356 Co354 2.143 . S
O356 Co355 2.160 . S
C357 O358 1.278 . S
C357 O365 1.224 . S
O358 C357 1.278 . S
C359 O360 1.245 . S
C359 O371 1.232 . S
O360 C359 1.245 . S
O361 Co355 2.058 . S
O361 C387 1.269 . S
O362 Co354 2.074 . S
O362 C387 1.257 . S
H363 C388 0.930 . S
H364 C394 0.930 . S
O365 Co354 2.093 . S
O365 C357 1.224 . S
H366 C398 0.929 1_455 S
H367 C400 0.930 . S
H368 C401 0.930 . S
H369 C399 0.929 . S
H370 C402 0.928 . S
O371 Co355 2.057 . S
O371 C359 1.232 . S
H372 C391 0.929 . S
H373 C392 0.929 . S
H374 C404 0.931 . S
H375 C396 0.929 . S
H376 C405 0.930 . S
H377 C397 0.931 . S
O378 Co354 2.097 . S
O378 C406 1.214 . S
H379 C407 0.929 . S
H380 C408 0.929 . S
H381 C409 0.930 . S
H382 C410 0.929 . S
H383 C412 0.930 . S
H384 C389 0.930 . S
H385 C393 0.930 . S
O386 Co355 2.037 . S
O386 C406 1.234 . S
C387 O361 1.269 . S
C387 O362 1.257 . S
C388 H363 0.930 . S
C388 C391 1.388 . S
C388 C393 1.418 . S
C389 H384 0.930 . S
C389 C392 1.404 . S
C389 C393 1.353 . S
N390 Co355 2.145 . S
N390 C391 1.397 . S
N390 C392 1.334 . S
C391 H372 0.929 . S
C391 C388 1.388 . S
C391 N390 1.397 . S
C392 H373 0.929 . S
C392 C389 1.404 . S
C392 N390 1.334 . S
C393 H385 0.930 . S
C393 C388 1.418 . S
C393 C389 1.353 . S
C394 H364 0.930 . S
C394 N395 1.330 . S
C394 C396 1.446 . S
N395 Co354 2.151 . S
N395 C394 1.330 . S
N395 C399 1.418 . S
C396 H375 0.929 . S
C396 C394 1.446 . S
C396 C397 1.332 . S
C397 H377 0.931 . S
C397 C396 1.332 . S
C397 C398 1.267 . S
C398 H366 0.929 1_655 S
C398 C397 1.267 . S
C398 C399 1.251 . S
C399 H369 0.929 . S
C399 N395 1.418 . S
C399 C398 1.251 . S
C400 H367 0.930 . S
C400 C402 1.406 1_455 S
C400 C405 1.261 . S
C401 H368 0.930 . S
C401 N403 1.325 . S
C401 C404 1.357 1_655 S
C402 H370 0.928 . S
C402 C400 1.406 1_655 S
C402 N403 1.261 . S
N403 Co354 2.214 . S
N403 C401 1.325 . S
N403 C402 1.261 . S
C404 H374 0.931 . S
C404 C401 1.357 1_455 S
C404 C405 1.312 . S
C405 H376 0.930 . S
C405 C400 1.261 . S
C405 C404 1.312 . S
C406 O378 1.214 . S
C406 O386 1.234 . S
C407 H379 0.929 . S
C407 C410 1.391 . S
C407 C412 1.391 . S
C408 H380 0.929 . S
C408 C409 1.390 . S
C408 N411 1.391 . S
C409 H381 0.930 . S
C409 C408 1.390 . S
C409 C410 1.392 . S
C410 H382 0.929 . S
C410 C407 1.391 . S
C410 C409 1.392 . S
N411 Co355 2.257 . S
N411 C408 1.391 . S
N411 C412 1.388 . S
C412 H383 0.930 . S
C412 C407 1.391 . S
C412 N411 1.388 . S
Co413 O415 2.143 . S
Co413 O421 2.074 . S
Co413 O424 2.093 . S
Co413 O437 2.097 . S
Co413 N454 2.151 . S
Co413 N462 2.214 . S
Co414 O415 2.160 . S
Co414 O420 2.058 . S
Co414 O430 2.057 . S
Co414 O445 2.037 . S
Co414 N449 2.145 . S
Co414 N470 2.257 . S
O415 Co413 2.143 . S
O415 Co414 2.160 . S
C416 O417 1.278 . S
C416 O424 1.224 . S
O417 C416 1.278 . S
C418 O419 1.245 . S
C418 O430 1.232 . S
O419 C418 1.245 . S
O420 Co414 2.058 . S
O420 C446 1.269 . S
O421 Co413 2.074 . S
O421 C446 1.257 . S
H422 C447 0.930 . S
H423 C453 0.930 . S
O424 Co413 2.093 . S
O424 C416 1.224 . S
H425 C457 0.929 . S
H426 C459 0.930 . S
H427 C460 0.930 . S
H428 C458 0.929 . S
H429 C461 0.928 . S
O430 Co414 2.057 . S
O430 C418 1.232 . S
H431 C450 0.929 . S
H432 C451 0.929 . S
H433 C463 0.931 . S
H434 C455 0.929 . S
H435 C464 0.930 . S
H436 C456 0.931 . S
O437 Co413 2.097 . S
O437 C465 1.214 . S
H438 C466 0.929 . S
H439 C467 0.929 . S
H440 C468 0.930 . S
H441 C469 0.929 . S
H442 C471 0.930 . S
H443 C448 0.930 . S
H444 C452 0.930 . S
O445 Co414 2.037 . S
O445 C465 1.234 . S
C446 O420 1.269 . S
C446 O421 1.257 . S
C447 H422 0.930 . S
C447 C450 1.388 . S
C447 C452 1.418 . S
C448 H443 0.930 . S
C448 C451 1.404 . S
C448 C452 1.353 . S
N449 Co414 2.145 . S
N449 C450 1.397 . S
N449 C451 1.334 . S
C450 H431 0.929 . S
C450 C447 1.388 . S
C450 N449 1.397 . S
C451 H432 0.929 . S
C451 C448 1.404 . S
C451 N449 1.334 . S
C452 H444 0.930 . S
C452 C447 1.418 . S
C452 C448 1.353 . S
C453 H423 0.930 . S
C453 N454 1.330 . S
C453 C455 1.446 . S
N454 Co413 2.151 . S
N454 C453 1.330 . S
N454 C458 1.418 . S
C455 H434 0.929 . S
C455 C453 1.446 . S
C455 C456 1.332 . S
C456 H436 0.931 . S
C456 C455 1.332 . S
C456 C457 1.267 . S
C457 H425 0.929 . S
C457 C456 1.267 . S
C457 C458 1.251 . S
C458 H428 0.929 . S
C458 N454 1.418 . S
C458 C457 1.251 . S
C459 H426 0.930 . S
C459 C461 1.406 1_455 S
C459 C464 1.261 . S
C460 H427 0.930 . S
C460 N462 1.325 . S
C460 C463 1.357 1_655 S
C461 H429 0.928 . S
C461 C459 1.406 1_655 S
C461 N462 1.261 . S
N462 Co413 2.214 . S
N462 C460 1.325 . S
N462 C461 1.261 . S
C463 H433 0.931 . S
C463 C460 1.357 1_455 S
C463 C464 1.312 . S
C464 H435 0.930 . S
C464 C459 1.261 . S
C464 C463 1.312 . S
C465 O437 1.214 . S
C465 O445 1.234 . S
C466 H438 0.929 . S
C466 C469 1.391 . S
C466 C471 1.391 . S
C467 H439 0.929 . S
C467 C468 1.390 . S
C467 N470 1.391 . S
C468 H440 0.930 . S
C468 C467 1.390 . S
C468 C469 1.392 . S
C469 H441 0.929 . S
C469 C466 1.391 . S
C469 C468 1.392 . S
N470 Co414 2.257 . S
N470 C467 1.391 . S
N470 C471 1.388 . S
C471 H442 0.930 . S
C471 C466 1.391 . S
C471 N470 1.388 . S
Co472 O474 2.143 . S
Co472 O480 2.074 . S
Co472 O483 2.093 . S
Co472 O496 2.097 . S
Co472 N513 2.151 . S
Co472 N521 2.214 . S
Co473 O474 2.160 . S
Co473 O479 2.058 . S
Co473 O489 2.057 . S
Co473 O504 2.037 . S
Co473 N508 2.145 . S
Co473 N529 2.257 . S
O474 Co472 2.143 . S
O474 Co473 2.160 . S
C475 O476 1.278 . S
C475 O483 1.224 . S
O476 C475 1.278 . S
C477 O478 1.245 . S
C477 O489 1.232 . S
O478 C477 1.245 . S
O479 Co473 2.058 . S
O479 C505 1.269 . S
O480 Co472 2.074 . S
O480 C505 1.257 . S
H481 C506 0.930 . S
H482 C512 0.930 . S
O483 Co472 2.093 . S
O483 C475 1.224 . S
H484 C516 0.929 . S
H485 C518 0.930 . S
H486 C519 0.930 . S
H487 C517 0.929 . S
H488 C520 0.928 . S
O489 Co473 2.057 . S
O489 C477 1.232 . S
H490 C509 0.929 . S
H491 C510 0.929 . S
H492 C522 0.931 . S
H493 C514 0.929 . S
H494 C523 0.930 . S
H495 C515 0.931 . S
O496 Co472 2.097 . S
O496 C524 1.214 . S
H497 C525 0.929 . S
H498 C526 0.929 . S
H499 C527 0.930 . S
H500 C528 0.929 . S
H501 C530 0.930 . S
H502 C507 0.930 . S
H503 C511 0.930 . S
O504 Co473 2.037 . S
O504 C524 1.234 . S
C505 O479 1.269 . S
C505 O480 1.257 . S
C506 H481 0.930 . S
C506 C509 1.388 . S
C506 C511 1.418 . S
C507 H502 0.930 . S
C507 C510 1.404 . S
C507 C511 1.353 . S
N508 Co473 2.145 . S
N508 C509 1.397 . S
N508 C510 1.334 . S
C509 H490 0.929 . S
C509 C506 1.388 . S
C509 N508 1.397 . S
C510 H491 0.929 . S
C510 C507 1.404 . S
C510 N508 1.334 . S
C511 H503 0.930 . S
C511 C506 1.418 . S
C511 C507 1.353 . S
C512 H482 0.930 . S
C512 N513 1.330 . S
C512 C514 1.446 . S
N513 Co472 2.151 . S
N513 C512 1.330 . S
N513 C517 1.418 . S
C514 H493 0.929 . S
C514 C512 1.446 . S
C514 C515 1.332 . S
C515 H495 0.931 . S
C515 C514 1.332 . S
C515 C516 1.267 . S
C516 H484 0.929 . S
C516 C515 1.267 . S
C516 C517 1.251 . S
C517 H487 0.929 . S
C517 N513 1.418 . S
C517 C516 1.251 . S
C518 H485 0.930 . S
C518 C520 1.406 . S
C518 C523 1.261 . S
C519 H486 0.930 . S
C519 N521 1.325 . S
C519 C522 1.357 . S
C520 H488 0.928 . S
C520 C518 1.406 . S
C520 N521 1.261 . S
N521 Co472 2.214 . S
N521 C519 1.325 . S
N521 C520 1.261 . S
C522 H492 0.931 . S
C522 C519 1.357 . S
C522 C523 1.312 . S
C523 H494 0.930 . S
C523 C518 1.261 . S
C523 C522 1.312 . S
C524 O496 1.214 . S
C524 O504 1.234 . S
C525 H497 0.929 . S
C525 C528 1.391 . S
C525 C530 1.391 . S
C526 H498 0.929 . S
C526 C527 1.390 . S
C526 N529 1.391 . S
C527 H499 0.930 . S
C527 C526 1.390 . S
C527 C528 1.392 . S
C528 H500 0.929 . S
C528 C525 1.391 . S
C528 C527 1.392 . S
N529 Co473 2.257 . S
N529 C526 1.391 . S
N529 C530 1.388 . S
C530 H501 0.930 . S
C530 C525 1.391 . S
C530 N529 1.388 . S
Co531 O533 2.143 . S
Co531 O539 2.074 . S
Co531 O542 2.093 . S
Co531 O555 2.097 . S
Co531 N572 2.151 . S
Co531 N580 2.214 . S
Co532 O533 2.160 . S
Co532 O538 2.058 . S
Co532 O548 2.057 . S
Co532 O563 2.037 . S
Co532 N567 2.145 . S
Co532 N588 2.257 . S
O533 Co531 2.143 . S
O533 Co532 2.160 . S
C534 O535 1.278 . S
C534 O542 1.224 . S
O535 C534 1.278 . S
C536 O537 1.245 . S
C536 O548 1.232 . S
O537 C536 1.245 . S
O538 Co532 2.058 . S
O538 C564 1.269 . S
O539 Co531 2.074 . S
O539 C564 1.257 . S
H540 C565 0.930 . S
H541 C571 0.930 . S
O542 Co531 2.093 . S
O542 C534 1.224 . S
H543 C575 0.929 . S
H544 C577 0.930 . S
H545 C578 0.930 . S
H546 C576 0.929 . S
H547 C579 0.928 . S
O548 Co532 2.057 . S
O548 C536 1.232 . S
H549 C568 0.929 . S
H550 C569 0.929 . S
H551 C581 0.931 . S
H552 C573 0.929 . S
H553 C582 0.930 . S
H554 C574 0.931 . S
O555 Co531 2.097 . S
O555 C583 1.214 . S
H556 C584 0.929 . S
H557 C585 0.929 . S
H558 C586 0.930 . S
H559 C587 0.929 . S
H560 C589 0.930 . S
H561 C566 0.930 . S
H562 C570 0.930 . S
O563 Co532 2.037 . S
O563 C583 1.234 . S
C564 O538 1.269 . S
C564 O539 1.257 . S
C565 H540 0.930 . S
C565 C568 1.388 . S
C565 C570 1.418 . S
C566 H561 0.930 . S
C566 C569 1.404 . S
C566 C570 1.353 . S
N567 Co532 2.145 . S
N567 C568 1.397 . S
N567 C569 1.334 . S
C568 H549 0.929 . S
C568 C565 1.388 . S
C568 N567 1.397 . S
C569 H550 0.929 . S
C569 C566 1.404 . S
C569 N567 1.334 . S
C570 H562 0.930 . S
C570 C565 1.418 . S
C570 C566 1.353 . S
C571 H541 0.930 . S
C571 N572 1.330 . S
C571 C573 1.446 . S
N572 Co531 2.151 . S
N572 C571 1.330 . S
N572 C576 1.418 . S
C573 H552 0.929 . S
C573 C571 1.446 . S
C573 C574 1.332 . S
C574 H554 0.931 . S
C574 C573 1.332 . S
C574 C575 1.267 . S
C575 H543 0.929 . S
C575 C574 1.267 . S
C575 C576 1.251 . S
C576 H546 0.929 . S
C576 N572 1.418 . S
C576 C575 1.251 . S
C577 H544 0.930 . S
C577 C579 1.406 . S
C577 C582 1.261 . S
C578 H545 0.930 . S
C578 N580 1.325 . S
C578 C581 1.357 . S
C579 H547 0.928 . S
C579 C577 1.406 . S
C579 N580 1.261 . S
N580 Co531 2.214 . S
N580 C578 1.325 . S
N580 C579 1.261 . S
C581 H551 0.931 . S
C581 C578 1.357 . S
C581 C582 1.312 . S
C582 H553 0.930 . S
C582 C577 1.261 . S
C582 C581 1.312 . S
C583 O555 1.214 . S
C583 O563 1.234 . S
C584 H556 0.929 . S
C584 C587 1.391 . S
C584 C589 1.391 . S
C585 H557 0.929 . S
C585 C586 1.390 . S
C585 N588 1.391 . S
C586 H558 0.930 . S
C586 C585 1.390 . S
C586 C587 1.392 . S
C587 H559 0.929 . S
C587 C584 1.391 . S
C587 C586 1.392 . S
N588 Co532 2.257 . S
N588 C585 1.391 . S
N588 C589 1.388 . S
C589 H560 0.930 . S
C589 C584 1.391 . S
C589 N588 1.388 . S
Co590 O592 2.143 . S
Co590 O598 2.074 . S
Co590 O601 2.093 . S
Co590 O614 2.097 . S
Co590 N631 2.151 . S
Co590 N639 2.214 . S
Co591 O592 2.160 . S
Co591 O597 2.058 . S
Co591 O607 2.057 . S
Co591 O622 2.037 . S
Co591 N626 2.145 . S
Co591 N647 2.257 . S
O592 Co590 2.143 . S
O592 Co591 2.160 . S
C593 O594 1.278 . S
C593 O601 1.224 . S
O594 C593 1.278 . S
C595 O596 1.245 . S
C595 O607 1.232 . S
O596 C595 1.245 . S
O597 Co591 2.058 . S
O597 C623 1.269 . S
O598 Co590 2.074 . S
O598 C623 1.257 . S
H599 C624 0.930 . S
H600 C630 0.930 . S
O601 Co590 2.093 . S
O601 C593 1.224 . S
H602 C634 0.929 . S
H603 C636 0.930 . S
H604 C637 0.930 . S
H605 C635 0.929 . S
H606 C638 0.928 . S
O607 Co591 2.057 . S
O607 C595 1.232 . S
H608 C627 0.929 . S
H609 C628 0.929 . S
H610 C640 0.931 . S
H611 C632 0.929 . S
H612 C641 0.930 . S
H613 C633 0.931 . S
O614 Co590 2.097 . S
O614 C642 1.214 . S
H615 C643 0.929 . S
H616 C644 0.929 . S
H617 C645 0.930 . S
H618 C646 0.929 . S
H619 C648 0.930 . S
H620 C625 0.930 . S
H621 C629 0.930 . S
O622 Co591 2.037 . S
O622 C642 1.234 . S
C623 O597 1.269 . S
C623 O598 1.257 . S
C624 H599 0.930 . S
C624 C627 1.388 . S
C624 C629 1.418 . S
C625 H620 0.930 . S
C625 C628 1.404 . S
C625 C629 1.353 . S
N626 Co591 2.145 . S
N626 C627 1.397 . S
N626 C628 1.334 . S
C627 H608 0.929 . S
C627 C624 1.388 . S
C627 N626 1.397 . S
C628 H609 0.929 . S
C628 C625 1.404 . S
C628 N626 1.334 . S
C629 H621 0.930 . S
C629 C624 1.418 . S
C629 C625 1.353 . S
C630 H600 0.930 . S
C630 N631 1.330 . S
C630 C632 1.446 . S
N631 Co590 2.151 . S
N631 C630 1.330 . S
N631 C635 1.418 . S
C632 H611 0.929 . S
C632 C630 1.446 . S
C632 C633 1.332 . S
C633 H613 0.931 . S
C633 C632 1.332 . S
C633 C634 1.267 . S
C634 H602 0.929 . S
C634 C633 1.267 . S
C634 C635 1.251 . S
C635 H605 0.929 . S
C635 N631 1.418 . S
C635 C634 1.251 . S
C636 H603 0.930 . S
C636 C638 1.406 . S
C636 C641 1.261 . S
C637 H604 0.930 . S
C637 N639 1.325 . S
C637 C640 1.357 . S
C638 H606 0.928 . S
C638 C636 1.406 . S
C638 N639 1.261 . S
N639 Co590 2.214 . S
N639 C637 1.325 . S
N639 C638 1.261 . S
C640 H610 0.931 . S
C640 C637 1.357 . S
C640 C641 1.312 . S
C641 H612 0.930 . S
C641 C636 1.261 . S
C641 C640 1.312 . S
C642 O614 1.214 . S
C642 O622 1.234 . S
C643 H615 0.929 . S
C643 C646 1.391 . S
C643 C648 1.391 . S
C644 H616 0.929 . S
C644 C645 1.390 . S
C644 N647 1.391 . S
C645 H617 0.930 . S
C645 C644 1.390 . S
C645 C646 1.392 . S
C646 H618 0.929 . S
C646 C643 1.391 . S
C646 C645 1.392 . S
N647 Co591 2.257 . S
N647 C644 1.391 . S
N647 C648 1.388 . S
C648 H619 0.930 . S
C648 C643 1.391 . S
C648 N647 1.388 . S
Co649 O651 2.143 . S
Co649 O657 2.074 . S
Co649 O660 2.093 . S
Co649 O673 2.097 . S
Co649 N690 2.151 . S
Co649 N698 2.214 . S
Co650 O651 2.160 . S
Co650 O656 2.058 . S
Co650 O666 2.057 . S
Co650 O681 2.037 . S
Co650 N685 2.145 . S
Co650 N706 2.257 . S
O651 Co649 2.143 . S
O651 Co650 2.160 . S
C652 O653 1.278 . S
C652 O660 1.224 . S
O653 C652 1.278 . S
C654 O655 1.245 . S
C654 O666 1.232 . S
O655 C654 1.245 . S
O656 Co650 2.058 . S
O656 C682 1.269 . S
O657 Co649 2.074 . S
O657 C682 1.257 . S
H658 C683 0.930 . S
H659 C689 0.930 . S
O660 Co649 2.093 . S
O660 C652 1.224 . S
H661 C693 0.929 . S
H662 C695 0.930 . S
H663 C696 0.930 . S
H664 C694 0.929 . S
H665 C697 0.928 . S
O666 Co650 2.057 . S
O666 C654 1.232 . S
H667 C686 0.929 . S
H668 C687 0.929 . S
H669 C699 0.931 . S
H670 C691 0.929 . S
H671 C700 0.930 . S
H672 C692 0.931 . S
O673 Co649 2.097 . S
O673 C701 1.214 . S
H674 C702 0.929 . S
H675 C703 0.929 . S
H676 C704 0.930 . S
H677 C705 0.929 . S
H678 C707 0.930 . S
H679 C684 0.930 . S
H680 C688 0.930 . S
O681 Co650 2.037 . S
O681 C701 1.234 . S
C682 O656 1.269 . S
C682 O657 1.257 . S
C683 H658 0.930 . S
C683 C686 1.388 . S
C683 C688 1.418 . S
C684 H679 0.930 . S
C684 C687 1.404 . S
C684 C688 1.353 . S
N685 Co650 2.145 . S
N685 C686 1.397 . S
N685 C687 1.334 . S
C686 H667 0.929 . S
C686 C683 1.388 . S
C686 N685 1.397 . S
C687 H668 0.929 . S
C687 C684 1.404 . S
C687 N685 1.334 . S
C688 H680 0.930 . S
C688 C683 1.418 . S
C688 C684 1.353 . S
C689 H659 0.930 . S
C689 N690 1.330 . S
C689 C691 1.446 . S
N690 Co649 2.151 . S
N690 C689 1.330 . S
N690 C694 1.418 . S
C691 H670 0.929 . S
C691 C689 1.446 . S
C691 C692 1.332 . S
C692 H672 0.931 . S
C692 C691 1.332 . S
C692 C693 1.267 . S
C693 H661 0.929 . S
C693 C692 1.267 . S
C693 C694 1.251 . S
C694 H664 0.929 . S
C694 N690 1.418 . S
C694 C693 1.251 . S
C695 H662 0.930 . S
C695 C697 1.406 . S
C695 C700 1.261 . S
C696 H663 0.930 . S
C696 N698 1.325 . S
C696 C699 1.357 . S
C697 H665 0.928 . S
C697 C695 1.406 . S
C697 N698 1.261 . S
N698 Co649 2.214 . S
N698 C696 1.325 . S
N698 C697 1.261 . S
C699 H669 0.931 . S
C699 C696 1.357 . S
C699 C700 1.312 . S
C700 H671 0.930 . S
C700 C695 1.261 . S
C700 C699 1.312 . S
C701 O673 1.214 . S
C701 O681 1.234 . S
C702 H674 0.929 . S
C702 C705 1.391 . S
C702 C707 1.391 . S
C703 H675 0.929 . S
C703 C704 1.390 . S
C703 N706 1.391 . S
C704 H676 0.930 . S
C704 C703 1.390 . S
C704 C705 1.392 . S
C705 H677 0.929 . S
C705 C702 1.391 . S
C705 C704 1.392 . S
N706 Co650 2.257 . S
N706 C703 1.391 . S
N706 C707 1.388 . S
C707 H678 0.930 . S
C707 C702 1.391 . S
C707 N706 1.388 . S
Co708 O710 2.143 . S
Co708 O716 2.074 . S
Co708 O719 2.093 . S
Co708 O732 2.097 . S
Co708 N749 2.151 . S
Co708 N757 2.214 . S
Co709 O710 2.160 . S
Co709 O715 2.058 . S
Co709 O725 2.057 . S
Co709 O740 2.037 . S
Co709 N744 2.145 . S
Co709 N765 2.257 . S
O710 Co708 2.143 . S
O710 Co709 2.160 . S
C711 O712 1.278 . S
C711 O719 1.224 . S
O712 C711 1.278 . S
C713 O714 1.245 . S
C713 O725 1.232 . S
O714 C713 1.245 . S
O715 Co709 2.058 . S
O715 C741 1.269 . S
O716 Co708 2.074 . S
O716 C741 1.257 . S
H717 C742 0.930 . S
H718 C748 0.930 . S
O719 Co708 2.093 . S
O719 C711 1.224 . S
H720 C752 0.929 . S
H721 C754 0.930 . S
H722 C755 0.930 . S
H723 C753 0.929 . S
H724 C756 0.928 . S
O725 Co709 2.057 . S
O725 C713 1.232 . S
H726 C745 0.929 . S
H727 C746 0.929 . S
H728 C758 0.931 . S
H729 C750 0.929 . S
H730 C759 0.930 . S
H731 C751 0.931 . S
O732 Co708 2.097 . S
O732 C760 1.214 . S
H733 C761 0.929 . S
H734 C762 0.929 . S
H735 C763 0.930 . S
H736 C764 0.929 . S
H737 C766 0.930 . S
H738 C743 0.930 . S
H739 C747 0.930 . S
O740 Co709 2.037 . S
O740 C760 1.234 . S
C741 O715 1.269 . S
C741 O716 1.257 . S
C742 H717 0.930 . S
C742 C745 1.388 . S
C742 C747 1.418 . S
C743 H738 0.930 . S
C743 C746 1.404 . S
C743 C747 1.353 . S
N744 Co709 2.145 . S
N744 C745 1.397 . S
N744 C746 1.334 . S
C745 H726 0.929 . S
C745 C742 1.388 . S
C745 N744 1.397 . S
C746 H727 0.929 . S
C746 C743 1.404 . S
C746 N744 1.334 . S
C747 H739 0.930 . S
C747 C742 1.418 . S
C747 C743 1.353 . S
C748 H718 0.930 . S
C748 N749 1.330 . S
C748 C750 1.446 . S
N749 Co708 2.151 . S
N749 C748 1.330 . S
N749 C753 1.418 . S
C750 H729 0.929 . S
C750 C748 1.446 . S
C750 C751 1.332 . S
C751 H731 0.931 . S
C751 C750 1.332 . S
C751 C752 1.267 . S
C752 H720 0.929 . S
C752 C751 1.267 . S
C752 C753 1.251 . S
C753 H723 0.929 . S
C753 N749 1.418 . S
C753 C752 1.251 . S
C754 H721 0.930 . S
C754 C756 1.406 . S
C754 C759 1.261 . S
C755 H722 0.930 . S
C755 N757 1.325 . S
C755 C758 1.357 . S
C756 H724 0.928 . S
C756 C754 1.406 . S
C756 N757 1.261 . S
N757 Co708 2.214 . S
N757 C755 1.325 . S
N757 C756 1.261 . S
C758 H728 0.931 . S
C758 C755 1.357 . S
C758 C759 1.312 . S
C759 H730 0.930 . S
C759 C754 1.261 . S
C759 C758 1.312 . S
C760 O732 1.214 . S
C760 O740 1.234 . S
C761 H733 0.929 . S
C761 C764 1.391 . S
C761 C766 1.391 . S
C762 H734 0.929 . S
C762 C763 1.390 . S
C762 N765 1.391 . S
C763 H735 0.930 . S
C763 C762 1.390 . S
C763 C764 1.392 . S
C764 H736 0.929 . S
C764 C761 1.391 . S
C764 C763 1.392 . S
N765 Co709 2.257 . S
N765 C762 1.391 . S
N765 C766 1.388 . S
C766 H737 0.930 . S
C766 C761 1.391 . S
C766 N765 1.388 . S
Co767 O769 2.143 . S
Co767 O775 2.074 . S
Co767 O778 2.093 . S
Co767 O791 2.097 . S
Co767 N808 2.151 . S
Co767 N816 2.214 . S
Co768 O769 2.160 . S
Co768 O774 2.058 . S
Co768 O784 2.057 . S
Co768 O799 2.037 . S
Co768 N803 2.145 . S
Co768 N824 2.257 . S
O769 Co767 2.143 . S
O769 Co768 2.160 . S
C770 O771 1.278 . S
C770 O778 1.224 . S
O771 C770 1.278 . S
C772 O773 1.245 . S
C772 O784 1.232 . S
O773 C772 1.245 . S
O774 Co768 2.058 . S
O774 C800 1.269 . S
O775 Co767 2.074 . S
O775 C800 1.257 . S
H776 C801 0.930 . S
H777 C807 0.930 . S
O778 Co767 2.093 . S
O778 C770 1.224 . S
H779 C811 0.929 . S
H780 C813 0.930 . S
H781 C814 0.930 . S
H782 C812 0.929 . S
H783 C815 0.928 . S
O784 Co768 2.057 . S
O784 C772 1.232 . S
H785 C804 0.929 . S
H786 C805 0.929 . S
H787 C817 0.931 . S
H788 C809 0.929 . S
H789 C818 0.930 . S
H790 C810 0.931 . S
O791 Co767 2.097 . S
O791 C819 1.214 . S
H792 C820 0.929 . S
H793 C821 0.929 . S
H794 C822 0.930 . S
H795 C823 0.929 . S
H796 C825 0.930 . S
H797 C802 0.930 . S
H798 C806 0.930 . S
O799 Co768 2.037 . S
O799 C819 1.234 . S
C800 O774 1.269 . S
C800 O775 1.257 . S
C801 H776 0.930 . S
C801 C804 1.388 . S
C801 C806 1.418 . S
C802 H797 0.930 . S
C802 C805 1.404 . S
C802 C806 1.353 . S
N803 Co768 2.145 . S
N803 C804 1.397 . S
N803 C805 1.334 . S
C804 H785 0.929 . S
C804 C801 1.388 . S
C804 N803 1.397 . S
C805 H786 0.929 . S
C805 C802 1.404 . S
C805 N803 1.334 . S
C806 H798 0.930 . S
C806 C801 1.418 . S
C806 C802 1.353 . S
C807 H777 0.930 . S
C807 N808 1.330 . S
C807 C809 1.446 . S
N808 Co767 2.151 . S
N808 C807 1.330 . S
N808 C812 1.418 . S
C809 H788 0.929 . S
C809 C807 1.446 . S
C809 C810 1.332 . S
C810 H790 0.931 . S
C810 C809 1.332 . S
C810 C811 1.267 . S
C811 H779 0.929 . S
C811 C810 1.267 . S
C811 C812 1.251 . S
C812 H782 0.929 . S
C812 N808 1.418 . S
C812 C811 1.251 . S
C813 H780 0.930 . S
C813 C815 1.406 . S
C813 C818 1.261 . S
C814 H781 0.930 . S
C814 N816 1.325 . S
C814 C817 1.357 . S
C815 H783 0.928 . S
C815 C813 1.406 . S
C815 N816 1.261 . S
N816 Co767 2.214 . S
N816 C814 1.325 . S
N816 C815 1.261 . S
C817 H787 0.931 . S
C817 C814 1.357 . S
C817 C818 1.312 . S
C818 H789 0.930 . S
C818 C813 1.261 . S
C818 C817 1.312 . S
C819 O791 1.214 . S
C819 O799 1.234 . S
C820 H792 0.929 . S
C820 C823 1.391 . S
C820 C825 1.391 . S
C821 H793 0.929 . S
C821 C822 1.390 . S
C821 N824 1.391 . S
C822 H794 0.930 . S
C822 C821 1.390 . S
C822 C823 1.392 . S
C823 H795 0.929 . S
C823 C820 1.391 . S
C823 C822 1.392 . S
N824 Co768 2.257 . S
N824 C821 1.391 . S
N824 C825 1.388 . S
C825 H796 0.930 . S
C825 C820 1.391 . S
C825 N824 1.388 . S
Co826 O828 2.143 . S
Co826 O834 2.074 . S
Co826 O837 2.093 . S
Co826 O850 2.097 . S
Co826 N867 2.151 . S
Co826 N875 2.214 . S
Co827 O828 2.160 . S
Co827 O833 2.058 . S
Co827 O843 2.057 . S
Co827 O858 2.037 . S
Co827 N862 2.145 . S
Co827 N883 2.257 . S
O828 Co826 2.143 . S
O828 Co827 2.160 . S
C829 O830 1.278 . S
C829 O837 1.224 . S
O830 C829 1.278 . S
C831 O832 1.245 . S
C831 O843 1.232 . S
O832 C831 1.245 . S
O833 Co827 2.058 . S
O833 C859 1.269 . S
O834 Co826 2.074 . S
O834 C859 1.257 . S
H835 C860 0.930 . S
H836 C866 0.930 . S
O837 Co826 2.093 . S
O837 C829 1.224 . S
H838 C870 0.929 . S
H839 C872 0.930 . S
H840 C873 0.930 . S
H841 C871 0.929 . S
H842 C874 0.928 . S
O843 Co827 2.057 . S
O843 C831 1.232 . S
H844 C863 0.929 . S
H845 C864 0.929 . S
H846 C876 0.931 . S
H847 C868 0.929 . S
H848 C877 0.930 . S
H849 C869 0.931 . S
O850 Co826 2.097 . S
O850 C878 1.214 . S
H851 C879 0.929 . S
H852 C880 0.929 . S
H853 C881 0.930 . S
H854 C882 0.929 . S
H855 C884 0.930 . S
H856 C861 0.930 . S
H857 C865 0.930 . S
O858 Co827 2.037 . S
O858 C878 1.234 . S
C859 O833 1.269 . S
C859 O834 1.257 . S
C860 H835 0.930 . S
C860 C863 1.388 . S
C860 C865 1.418 . S
C861 H856 0.930 . S
C861 C864 1.404 . S
C861 C865 1.353 . S
N862 Co827 2.145 . S
N862 C863 1.397 . S
N862 C864 1.334 . S
C863 H844 0.929 . S
C863 C860 1.388 . S
C863 N862 1.397 . S
C864 H845 0.929 . S
C864 C861 1.404 . S
C864 N862 1.334 . S
C865 H857 0.930 . S
C865 C860 1.418 . S
C865 C861 1.353 . S
C866 H836 0.930 . S
C866 N867 1.330 . S
C866 C868 1.446 . S
N867 Co826 2.151 . S
N867 C866 1.330 . S
N867 C871 1.418 . S
C868 H847 0.929 . S
C868 C866 1.446 . S
C868 C869 1.332 . S
C869 H849 0.931 . S
C869 C868 1.332 . S
C869 C870 1.267 . S
C870 H838 0.929 . S
C870 C869 1.267 . S
C870 C871 1.251 . S
C871 H841 0.929 . S
C871 N867 1.418 . S
C871 C870 1.251 . S
C872 H839 0.930 . S
C872 C874 1.406 . S
C872 C877 1.261 . S
C873 H840 0.930 . S
C873 N875 1.325 . S
C873 C876 1.357 . S
C874 H842 0.928 . S
C874 C872 1.406 . S
C874 N875 1.261 . S
N875 Co826 2.214 . S
N875 C873 1.325 . S
N875 C874 1.261 . S
C876 H846 0.931 . S
C876 C873 1.357 . S
C876 C877 1.312 . S
C877 H848 0.930 . S
C877 C872 1.261 . S
C877 C876 1.312 . S
C878 O850 1.214 . S
C878 O858 1.234 . S
C879 H851 0.929 . S
C879 C882 1.391 . S
C879 C884 1.391 . S
C880 H852 0.929 . S
C880 C881 1.390 . S
C880 N883 1.391 . S
C881 H853 0.930 . S
C881 C880 1.390 . S
C881 C882 1.392 . S
C882 H854 0.929 . S
C882 C879 1.391 . S
C882 C881 1.392 . S
N883 Co827 2.257 . S
N883 C880 1.391 . S
N883 C884 1.388 . S
C884 H855 0.930 . S
C884 C879 1.391 . S
C884 N883 1.388 . S
Co885 O887 2.143 . S
Co885 O893 2.074 . S
Co885 O896 2.093 . S
Co885 O909 2.097 . S
Co885 N926 2.151 . S
Co885 N934 2.214 . S
Co886 O887 2.160 . S
Co886 O892 2.058 . S
Co886 O902 2.057 . S
Co886 O917 2.037 . S
Co886 N921 2.145 . S
Co886 N942 2.257 . S
O887 Co885 2.143 . S
O887 Co886 2.160 . S
C888 O889 1.278 . S
C888 O896 1.224 . S
O889 C888 1.278 . S
C890 O891 1.245 . S
C890 O902 1.232 . S
O891 C890 1.245 . S
O892 Co886 2.058 . S
O892 C918 1.269 . S
O893 Co885 2.074 . S
O893 C918 1.257 . S
H894 C919 0.930 . S
H895 C925 0.930 . S
O896 Co885 2.093 . S
O896 C888 1.224 . S
H897 C929 0.929 . S
H898 C931 0.930 . S
H899 C932 0.930 . S
H900 C930 0.929 . S
H901 C933 0.928 . S
O902 Co886 2.057 . S
O902 C890 1.232 . S
H903 C922 0.929 . S
H904 C923 0.929 . S
H905 C935 0.931 . S
H906 C927 0.929 . S
H907 C936 0.930 . S
H908 C928 0.931 . S
O909 Co885 2.097 . S
O909 C937 1.214 . S
H910 C938 0.929 . S
H911 C939 0.929 . S
H912 C940 0.930 . S
H913 C941 0.929 . S
H914 C943 0.930 . S
H915 C920 0.930 . S
H916 C924 0.930 . S
O917 Co886 2.037 . S
O917 C937 1.234 . S
C918 O892 1.269 . S
C918 O893 1.257 . S
C919 H894 0.930 . S
C919 C922 1.388 . S
C919 C924 1.418 . S
C920 H915 0.930 . S
C920 C923 1.404 . S
C920 C924 1.353 . S
N921 Co886 2.145 . S
N921 C922 1.397 . S
N921 C923 1.334 . S
C922 H903 0.929 . S
C922 C919 1.388 . S
C922 N921 1.397 . S
C923 H904 0.929 . S
C923 C920 1.404 . S
C923 N921 1.334 . S
C924 H916 0.930 . S
C924 C919 1.418 . S
C924 C920 1.353 . S
C925 H895 0.930 . S
C925 N926 1.330 . S
C925 C927 1.446 . S
N926 Co885 2.151 . S
N926 C925 1.330 . S
N926 C930 1.418 . S
C927 H906 0.929 . S
C927 C925 1.446 . S
C927 C928 1.332 . S
C928 H908 0.931 . S
C928 C927 1.332 . S
C928 C929 1.267 . S
C929 H897 0.929 . S
C929 C928 1.267 . S
C929 C930 1.251 . S
C930 H900 0.929 . S
C930 N926 1.418 . S
C930 C929 1.251 . S
C931 H898 0.930 . S
C931 C933 1.406 . S
C931 C936 1.261 . S
C932 H899 0.930 . S
C932 N934 1.325 . S
C932 C935 1.357 . S
C933 H901 0.928 . S
C933 C931 1.406 . S
C933 N934 1.261 . S
N934 Co885 2.214 . S
N934 C932 1.325 . S
N934 C933 1.261 . S
C935 H905 0.931 . S
C935 C932 1.357 . S
C935 C936 1.312 . S
C936 H907 0.930 . S
C936 C931 1.261 . S
C936 C935 1.312 . S
C937 O909 1.214 . S
C937 O917 1.234 . S
C938 H910 0.929 . S
C938 C941 1.391 . S
C938 C943 1.391 . S
C939 H911 0.929 . S
C939 C940 1.390 . S
C939 N942 1.391 . S
C940 H912 0.930 . S
C940 C939 1.390 . S
C940 C941 1.392 . S
C941 H913 0.929 . S
C941 C938 1.391 . S
C941 C940 1.392 . S
N942 Co886 2.257 . S
N942 C939 1.391 . S
N942 C943 1.388 . S
C943 H914 0.930 . S
C943 C938 1.391 . S
C943 N942 1.388 . S
C944 C945 1.369 . S
C944 C946 1.419 . S
C944 H948 0.930 . S
C945 C944 1.369 . S
C945 C954 1.429 . S
C946 C944 1.419 . S
C946 C947 1.363 . S
C946 H949 0.929 . S
C947 C946 1.363 . S
C947 C953 1.428 . S
H948 C944 0.930 . S
H949 C946 0.929 . S
S950 N951 1.613 . S
S950 N952 1.610 . S
N951 S950 1.613 . S
N951 C954 1.350 . S
N952 S950 1.610 . S
N952 C953 1.351 . S
C953 C947 1.428 . S
C953 N952 1.351 . S
C953 C954 1.434 . S
C954 C945 1.429 . S
C954 N951 1.350 . S
C954 C953 1.434 . S
C955 C956 1.369 . S
C955 C957 1.419 . S
C955 H959 0.930 . S
C956 C955 1.369 . S
C956 C965 1.429 . S
C957 C955 1.419 . S
C957 C958 1.363 . S
C957 H960 0.929 . S
C958 C957 1.363 . S
C958 C964 1.428 . S
H959 C955 0.930 . S
H960 C957 0.929 . S
S961 N962 1.613 . S
S961 N963 1.610 . S
N962 S961 1.613 . S
N962 C965 1.350 . S
N963 S961 1.610 . S
N963 C964 1.351 . S
C964 C958 1.428 . S
C964 N963 1.351 . S
C964 C965 1.434 . S
C965 C956 1.429 . S
C965 N962 1.350 . S
C965 C964 1.434 . S
C966 C967 1.369 . S
C966 C968 1.419 . S
C966 H970 0.930 . S
C967 C966 1.369 . S
C967 C976 1.429 . S
C968 C966 1.419 . S
C968 C969 1.363 . S
C968 H971 0.929 . S
C969 C968 1.363 . S
C969 C975 1.428 . S
H970 C966 0.930 . S
H971 C968 0.929 . S
S972 N973 1.613 . S
S972 N974 1.610 . S
N973 S972 1.613 . S
N973 C976 1.350 . S
N974 S972 1.610 . S
N974 C975 1.351 . S
C975 C969 1.428 . S
C975 N974 1.351 . S
C975 C976 1.434 . S
C976 C967 1.429 . S
C976 N973 1.350 . S
C976 C975 1.434 . S
C977 C978 1.369 . S
C977 C979 1.419 . S
C977 H981 0.930 . S
C978 C977 1.369 . S
C978 C987 1.429 . S
C979 C977 1.419 . S
C979 C980 1.363 . S
C979 H982 0.929 . S
C980 C979 1.363 . S
C980 C986 1.428 . S
H981 C977 0.930 . S
H982 C979 0.929 . S
S983 N984 1.613 . S
S983 N985 1.610 . S
N984 S983 1.613 . S
N984 C987 1.350 . S
N985 S983 1.610 . S
N985 C986 1.351 . S
C986 C980 1.428 . S
C986 N985 1.351 . S
C986 C987 1.434 . S
C987 C978 1.429 . S
C987 N984 1.350 . S
C987 C986 1.434 . S
C988 C989 1.369 . S
C988 C990 1.419 . S
C988 H992 0.930 . S
C989 C988 1.369 . S
C989 C998 1.429 . S
C990 C988 1.419 . S
C990 C991 1.363 . S
C990 H993 0.929 . S
C991 C990 1.363 . S
C991 C997 1.428 . S
H992 C988 0.930 . S
H993 C990 0.929 . S
S994 N995 1.613 . S
S994 N996 1.610 . S
N995 S994 1.613 . S
N995 C998 1.350 . S
N996 S994 1.610 . S
N996 C997 1.351 . S
C997 C991 1.428 . S
C997 N996 1.351 . S
C997 C998 1.434 . S
C998 C989 1.429 . S
C998 N995 1.350 . S
C998 C997 1.434 . S
C999 C1000 1.369 . S
C999 C1001 1.419 . S
C999 H1003 0.930 . S
C1000 C999 1.369 . S
C1000 C1009 1.429 . S
C1001 C999 1.419 . S
C1001 C1002 1.363 . S
C1001 H1004 0.929 . S
C1002 C1001 1.363 . S
C1002 C1008 1.428 . S
H1003 C999 0.930 . S
H1004 C1001 0.929 . S
S1005 N1006 1.613 . S
S1005 N1007 1.610 . S
N1006 S1005 1.613 . S
N1006 C1009 1.350 . S
N1007 S1005 1.610 . S
N1007 C1008 1.351 . S
C1008 C1002 1.428 . S
C1008 N1007 1.351 . S
C1008 C1009 1.434 . S
C1009 C1000 1.429 . S
C1009 N1006 1.350 . S
C1009 C1008 1.434 . S
C1010 C1011 1.369 . S
C1010 C1012 1.419 . S
C1010 H1014 0.930 . S
C1011 C1010 1.369 . S
C1011 C1020 1.429 . S
C1012 C1010 1.419 . S
C1012 C1013 1.363 . S
C1012 H1015 0.929 . S
C1013 C1012 1.363 . S
C1013 C1019 1.428 . S
H1014 C1010 0.930 . S
H1015 C1012 0.929 . S
S1016 N1017 1.613 . S
S1016 N1018 1.610 . S
N1017 S1016 1.613 . S
N1017 C1020 1.350 . S
N1018 S1016 1.610 . S
N1018 C1019 1.351 . S
C1019 C1013 1.428 . S
C1019 N1018 1.351 . S
C1019 C1020 1.434 . S
C1020 C1011 1.429 . S
C1020 N1017 1.350 . S
C1020 C1019 1.434 . S
C1021 C1022 1.369 . S
C1021 C1023 1.419 . S
C1021 H1025 0.930 . S
C1022 C1021 1.369 . S
C1022 C1031 1.429 . S
C1023 C1021 1.419 . S
C1023 C1024 1.363 . S
C1023 H1026 0.929 . S
C1024 C1023 1.363 . S
C1024 C1030 1.428 . S
H1025 C1021 0.930 . S
H1026 C1023 0.929 . S
S1027 N1028 1.613 . S
S1027 N1029 1.610 . S
N1028 S1027 1.613 . S
N1028 C1031 1.350 . S
N1029 S1027 1.610 . S
N1029 C1030 1.351 . S
C1030 C1024 1.428 . S
C1030 N1029 1.351 . S
C1030 C1031 1.434 . S
C1031 C1022 1.429 . S
C1031 N1028 1.350 . S
C1031 C1030 1.434 . S
C1032 C1033 1.369 . S
C1032 C1034 1.419 . S
C1032 H1036 0.930 . S
C1033 C1032 1.369 . S
C1033 C1042 1.429 . S
C1034 C1032 1.419 . S
C1034 C1035 1.363 1_556 S
C1034 H1037 0.929 1_556 S
C1035 C1034 1.363 1_554 S
C1035 C1041 1.432 . S
H1036 C1032 0.930 . S
H1037 C1034 0.929 1_554 S
S1038 N1039 1.613 . S
S1038 N1040 1.610 1_556 S
N1039 S1038 1.613 . S
N1039 C1042 1.350 . S
N1040 S1038 1.610 1_554 S
N1040 C1041 1.359 . S
C1041 C1035 1.432 . S
C1041 N1040 1.359 . S
C1041 C1042 1.422 1_554 S
C1042 C1033 1.429 . S
C1042 N1039 1.350 . S
C1042 C1041 1.422 1_556 S
C1043 C1044 1.369 1_554 S
C1043 C1045 1.419 . S
C1043 H1047 0.930 1_554 S
C1044 C1043 1.369 1_556 S
C1044 C1053 1.429 1_556 S
C1045 C1043 1.419 . S
C1045 C1046 1.363 . S
C1045 H1048 0.929 . S
C1046 C1045 1.363 . S
C1046 C1052 1.428 . S
H1047 C1043 0.930 1_556 S
H1048 C1045 0.929 . S
S1049 N1050 1.613 1_554 S
S1049 N1051 1.610 . S
N1050 S1049 1.613 1_556 S
N1050 C1053 1.350 1_556 S
N1051 S1049 1.610 . S
N1051 C1052 1.351 . S
C1052 C1046 1.428 . S
C1052 N1051 1.351 . S
C1052 C1053 1.434 . S
C1053 C1044 1.429 1_554 S
C1053 N1050 1.350 1_554 S
C1053 C1052 1.434 . S
C1054 C1055 1.369 1_554 S
C1054 C1056 1.419 . S
C1054 H1058 0.930 . S
C1055 C1054 1.369 1_556 S
C1055 C1064 1.429 . S
C1056 C1054 1.419 . S
C1056 C1057 1.363 . S
C1056 H1059 0.929 . S
C1057 C1056 1.363 . S
C1057 C1063 1.428 . S
H1058 C1054 0.930 . S
H1059 C1056 0.929 . S
S1060 N1061 1.613 . S
S1060 N1062 1.610 1_556 S
N1061 S1060 1.613 . S
N1061 C1064 1.350 . S
N1062 S1060 1.610 1_554 S
N1062 C1063 1.351 . S
C1063 C1057 1.428 . S
C1063 N1062 1.351 . S
C1063 C1064 1.434 1_554 S
C1064 C1055 1.429 . S
C1064 N1061 1.350 . S
C1064 C1063 1.434 1_556 S
C1065 C1066 1.369 . S
C1065 C1067 1.419 1_554 S
C1065 H1069 0.930 . S
C1066 C1065 1.369 . S
C1066 C1075 1.429 . S
C1067 C1065 1.419 1_556 S
C1067 C1068 1.363 . S
C1067 H1070 0.929 . S
C1068 C1067 1.363 . S
C1068 C1074 1.428 . S
H1069 C1065 0.930 . S
H1070 C1067 0.929 . S
S1071 N1072 1.613 1_556 S
S1071 N1073 1.610 . S
N1072 S1071 1.613 1_554 S
N1072 C1075 1.350 . S
N1073 S1071 1.610 . S
N1073 C1074 1.351 . S
C1074 C1068 1.428 . S
C1074 N1073 1.351 . S
C1074 C1075 1.434 1_556 S
C1075 C1066 1.429 . S
C1075 N1072 1.350 . S
C1075 C1074 1.434 1_554 S
C1076 C1077 1.369 1_655 S
C1076 C1078 1.419 . S
C1076 H1080 0.930 . S
C1077 C1076 1.369 1_455 S
C1077 C1086 1.429 . S
C1078 C1076 1.419 . S
C1078 C1079 1.363 . S
C1078 H1081 0.929 . S
C1079 C1078 1.363 . S
C1079 C1085 1.428 1_655 S
H1080 C1076 0.930 . S
H1081 C1078 0.929 . S
S1082 N1083 1.613 . S
S1082 N1084 1.610 . S
N1083 S1082 1.613 . S
N1083 C1086 1.350 . S
N1084 S1082 1.610 . S
N1084 C1085 1.351 . S
C1085 C1079 1.428 1_455 S
C1085 N1084 1.351 . S
C1085 C1086 1.434 . S
C1086 C1077 1.429 . S
C1086 N1083 1.350 . S
C1086 C1085 1.434 . S
C1087 C1088 1.369 1_545 S
C1087 C1089 1.419 . S
C1087 H1091 0.930 1_545 S
C1088 C1087 1.369 1_565 S
C1088 C1097 1.429 1_565 S
C1089 C1087 1.419 . S
C1089 C1090 1.363 . S
C1089 H1092 0.929 . S
C1090 C1089 1.363 . S
C1090 C1096 1.428 . S
H1091 C1087 0.930 1_565 S
H1092 C1089 0.929 . S
S1093 N1094 1.613 . S
S1093 N1095 1.610 . S
N1094 S1093 1.613 . S
N1094 C1097 1.350 . S
N1095 S1093 1.610 . S
N1095 C1096 1.351 . S
C1096 C1090 1.428 . S
C1096 N1095 1.351 . S
C1096 C1097 1.434 . S
C1097 C1088 1.429 1_545 S
C1097 N1094 1.350 . S
C1097 C1096 1.434 . S
C1098 C1099 1.369 1_455 S
C1098 C1100 1.419 . S
C1098 H1102 0.930 . S
C1099 C1098 1.369 1_655 S
C1099 C1108 1.429 . S
C1100 C1098 1.419 . S
C1100 C1101 1.363 . S
C1100 H1103 0.929 . S
C1101 C1100 1.363 . S
C1101 C1107 1.428 . S
H1102 C1098 0.930 . S
H1103 C1100 0.929 . S
S1104 N1105 1.613 . S
S1104 N1106 1.614 . S
N1105 S1104 1.613 . S
N1105 C1108 1.350 . S
N1106 S1104 1.614 . S
N1106 C1107 1.351 1_655 S
C1107 C1101 1.428 . S
C1107 N1106 1.351 1_455 S
C1107 C1108 1.434 1_455 S
C1108 C1099 1.429 . S
C1108 N1105 1.350 . S
C1108 C1107 1.434 1_655 S
C1109 C1110 1.369 1_565 S
C1109 C1111 1.419 . S
C1109 H1113 0.930 1_565 S
C1110 C1109 1.369 1_545 S
C1110 C1119 1.429 1_545 S
C1111 C1109 1.419 . S
C1111 C1112 1.363 . S
C1111 H1114 0.929 . S
C1112 C1111 1.363 . S
C1112 C1118 1.428 . S
H1113 C1109 0.930 1_545 S
H1114 C1111 0.929 . S
S1115 N1116 1.613 1_565 S
S1115 N1117 1.610 . S
N1116 S1115 1.613 1_545 S
N1116 C1119 1.350 1_545 S
N1117 S1115 1.610 . S
N1117 C1118 1.351 . S
C1118 C1112 1.428 . S
C1118 N1117 1.351 . S
C1118 C1119 1.434 . S
C1119 C1110 1.429 1_565 S
C1119 N1116 1.350 1_565 S
C1119 C1118 1.434 . S
C1120 C1121 1.369 . S
C1120 C1122 1.419 1_655 S
C1120 H1124 0.930 . S
C1121 C1120 1.369 . S
C1121 C1130 1.429 . S
C1122 C1120 1.419 1_455 S
C1122 C1123 1.363 . S
C1122 H1125 0.929 . S
C1123 C1122 1.363 . S
C1123 C1129 1.428 1_455 S
H1124 C1120 0.930 . S
H1125 C1122 0.929 . S
S1126 N1127 1.613 . S
S1126 N1128 1.610 . S
N1127 S1126 1.613 . S
N1127 C1130 1.350 . S
N1128 S1126 1.610 . S
N1128 C1129 1.351 . S
C1129 C1123 1.428 1_655 S
C1129 N1128 1.351 . S
C1129 C1130 1.434 . S
C1130 C1121 1.429 . S
C1130 N1127 1.350 . S
C1130 C1129 1.434 . S
C1131 C1132 1.369 . S
C1131 C1133 1.419 . S
C1131 H1135 0.930 . S
C1132 C1131 1.369 . S
C1132 C1141 1.429 . S
C1133 C1131 1.419 . S
C1133 C1134 1.363 1_565 S
C1133 H1136 0.929 1_565 S
C1134 C1133 1.363 1_545 S
C1134 C1140 1.428 1_545 S
H1135 C1131 0.930 . S
H1136 C1133 0.929 1_545 S
S1137 N1138 1.613 . S
S1137 N1139 1.610 . S
N1138 S1137 1.613 . S
N1138 C1141 1.350 . S
N1139 S1137 1.610 . S
N1139 C1140 1.351 . S
C1140 C1134 1.428 1_565 S
C1140 N1139 1.351 . S
C1140 C1141 1.434 . S
C1141 C1132 1.429 . S
C1141 N1138 1.350 . S
C1141 C1140 1.434 . S
C1142 C1143 1.369 . S
C1142 C1144 1.419 1_455 S
C1142 H1146 0.930 . S
C1143 C1142 1.369 . S
C1143 C1152 1.429 . S
C1144 C1142 1.419 1_655 S
C1144 C1145 1.363 . S
C1144 H1147 0.929 . S
C1145 C1144 1.363 . S
C1145 C1151 1.428 . S
H1146 C1142 0.930 . S
H1147 C1144 0.929 . S
S1148 N1149 1.613 . S
S1148 N1150 1.610 1_455 S
N1149 S1148 1.613 . S
N1149 C1152 1.350 . S
N1150 S1148 1.610 1_655 S
N1150 C1151 1.351 . S
C1151 C1145 1.428 . S
C1151 N1150 1.351 . S
C1151 C1152 1.434 1_655 S
C1152 C1143 1.429 . S
C1152 N1149 1.350 . S
C1152 C1151 1.434 1_455 S
C1153 C1154 1.369 1_545 S
C1153 C1155 1.419 . S
C1153 H1157 0.930 . S
C1154 C1153 1.369 1_565 S
C1154 C1163 1.429 1_565 S
C1155 C1153 1.419 . S
C1155 C1156 1.363 . S
C1155 H1158 0.929 . S
C1156 C1155 1.363 . S
C1156 C1162 1.428 . S
H1157 C1153 0.930 . S
H1158 C1155 0.929 . S
S1159 N1160 1.613 1_545 S
S1159 N1161 1.610 . S
N1160 S1159 1.613 1_565 S
N1160 C1163 1.350 1_565 S
N1161 S1159 1.610 . S
N1161 C1162 1.351 . S
C1162 C1156 1.428 . S
C1162 N1161 1.351 . S
C1162 C1163 1.434 . S
C1163 C1154 1.429 1_545 S
C1163 N1160 1.350 1_545 S
C1163 C1162 1.434 . S
C1164 C1165 1.369 . S
C1164 C1166 1.419 . S
C1164 H1168 0.930 . S
C1165 C1164 1.369 . S
C1165 C1174 1.429 . S
C1166 C1164 1.419 . S
C1166 C1167 1.363 . S
C1166 H1169 0.929 . S
C1167 C1166 1.363 . S
C1167 C1173 1.428 . S
H1168 C1164 0.930 . S
H1169 C1166 0.929 . S
S1170 N1171 1.613 . S
S1170 N1172 1.610 . S
N1171 S1170 1.613 . S
N1171 C1174 1.350 . S
N1172 S1170 1.610 . S
N1172 C1173 1.351 . S
C1173 C1167 1.428 . S
C1173 N1172 1.351 . S
C1173 C1174 1.434 . S
C1174 C1165 1.429 . S
C1174 N1171 1.350 . S
C1174 C1173 1.434 . S
C1175 C1176 1.369 . S
C1175 C1177 1.419 . S
C1175 H1179 0.930 . S
C1176 C1175 1.369 . S
C1176 C1185 1.429 . S
C1177 C1175 1.419 . S
C1177 C1178 1.363 . S
C1177 H1180 0.929 . S
C1178 C1177 1.363 . S
C1178 C1184 1.428 . S
H1179 C1175 0.930 . S
H1180 C1177 0.929 . S
S1181 N1182 1.613 . S
S1181 N1183 1.610 . S
N1182 S1181 1.613 . S
N1182 C1185 1.350 . S
N1183 S1181 1.610 . S
N1183 C1184 1.351 . S
C1184 C1178 1.428 . S
C1184 N1183 1.351 . S
C1184 C1185 1.434 . S
C1185 C1176 1.429 . S
C1185 N1182 1.350 . S
C1185 C1184 1.434 . S
C1186 C1187 1.369 . S
C1186 C1188 1.419 . S
C1186 H1190 0.930 . S
C1187 C1186 1.369 . S
C1187 C1196 1.429 . S
C1188 C1186 1.419 . S
C1188 C1189 1.363 . S
C1188 H1191 0.929 . S
C1189 C1188 1.363 . S
C1189 C1195 1.428 . S
H1190 C1186 0.930 . S
H1191 C1188 0.929 . S
S1192 N1193 1.613 . S
S1192 N1194 1.610 . S
N1193 S1192 1.613 . S
N1193 C1196 1.350 . S
N1194 S1192 1.610 . S
N1194 C1195 1.351 . S
C1195 C1189 1.428 . S
C1195 N1194 1.351 . S
C1195 C1196 1.434 . S
C1196 C1187 1.429 . S
C1196 N1193 1.350 . S
C1196 C1195 1.434 . S
C1197 C1198 1.369 . S
C1197 C1199 1.419 . S
C1197 H1201 0.930 . S
C1198 C1197 1.369 . S
C1198 C1207 1.429 . S
C1199 C1197 1.419 . S
C1199 C1200 1.363 . S
C1199 H1202 0.929 . S
C1200 C1199 1.363 . S
C1200 C1206 1.428 . S
H1201 C1197 0.930 . S
H1202 C1199 0.929 . S
S1203 N1204 1.613 . S
S1203 N1205 1.610 . S
N1204 S1203 1.613 . S
N1204 C1207 1.350 . S
N1205 S1203 1.610 . S
N1205 C1206 1.351 . S
C1206 C1200 1.428 . S
C1206 N1205 1.351 . S
C1206 C1207 1.434 . S
C1207 C1198 1.429 . S
C1207 N1204 1.350 . S
C1207 C1206 1.434 . S
C1208 C1209 1.369 . S
C1208 C1210 1.419 . S
C1208 H1212 0.930 . S
C1209 C1208 1.369 . S
C1209 C1218 1.429 . S
C1210 C1208 1.419 . S
C1210 C1211 1.363 . S
C1210 H1213 0.929 . S
C1211 C1210 1.363 . S
C1211 C1217 1.428 . S
H1212 C1208 0.930 . S
H1213 C1210 0.929 . S
S1214 N1215 1.613 . S
S1214 N1216 1.610 . S
N1215 S1214 1.613 . S
N1215 C1218 1.350 . S
N1216 S1214 1.610 . S
N1216 C1217 1.351 . S
C1217 C1211 1.428 . S
C1217 N1216 1.351 . S
C1217 C1218 1.434 . S
C1218 C1209 1.429 . S
C1218 N1215 1.350 . S
C1218 C1217 1.434 . S
C1219 C1220 1.369 . S
C1219 C1221 1.419 . S
C1219 H1223 0.930 . S
C1220 C1219 1.369 . S
C1220 C1229 1.429 . S
C1221 C1219 1.419 . S
C1221 C1222 1.363 . S
C1221 H1224 0.929 . S
C1222 C1221 1.363 . S
C1222 C1228 1.428 . S
H1223 C1219 0.930 . S
H1224 C1221 0.929 . S
S1225 N1226 1.613 . S
S1225 N1227 1.610 . S
N1226 S1225 1.613 . S
N1226 C1229 1.350 . S
N1227 S1225 1.610 . S
N1227 C1228 1.351 . S
C1228 C1222 1.428 . S
C1228 N1227 1.351 . S
C1228 C1229 1.434 . S
C1229 C1220 1.429 . S
C1229 N1226 1.350 . S
C1229 C1228 1.434 . S
C1230 C1231 1.369 . S
C1230 C1232 1.419 . S
C1230 H1234 0.930 . S
C1231 C1230 1.369 . S
C1231 C1240 1.429 . S
C1232 C1230 1.419 . S
C1232 C1233 1.363 . S
C1232 H1235 0.929 . S
C1233 C1232 1.363 . S
C1233 C1239 1.428 . S
H1234 C1230 0.930 . S
H1235 C1232 0.929 . S
S1236 N1237 1.613 . S
S1236 N1238 1.610 . S
N1237 S1236 1.613 . S
N1237 C1240 1.350 . S
N1238 S1236 1.610 . S
N1238 C1239 1.351 . S
C1239 C1233 1.428 . S
C1239 N1238 1.351 . S
C1239 C1240 1.434 . S
C1240 C1231 1.429 . S
C1240 N1237 1.350 . S
C1240 C1239 1.434 . S
C1241 C1242 1.369 . S
C1241 C1243 1.419 . S
C1241 H1245 0.930 . S
C1242 C1241 1.369 . S
C1242 C1251 1.429 . S
C1243 C1241 1.419 . S
C1243 C1244 1.363 . S
C1243 H1246 0.929 . S
C1244 C1243 1.363 . S
C1244 C1250 1.428 . S
H1245 C1241 0.930 . S
H1246 C1243 0.929 . S
S1247 N1248 1.613 . S
S1247 N1249 1.610 . S
N1248 S1247 1.613 . S
N1248 C1251 1.350 . S
N1249 S1247 1.610 . S
N1249 C1250 1.351 . S
C1250 C1244 1.428 . S
C1250 N1249 1.351 . S
C1250 C1251 1.434 . S
C1251 C1242 1.429 . S
C1251 N1248 1.350 . S
C1251 C1250 1.434 . S
C1252 C1253 1.369 . S
C1252 C1254 1.419 . S
C1252 H1256 0.930 . S
C1253 C1252 1.369 . S
C1253 C1262 1.429 . S
C1254 C1252 1.419 . S
C1254 C1255 1.363 . S
C1254 H1257 0.929 . S
C1255 C1254 1.363 . S
C1255 C1261 1.428 . S
H1256 C1252 0.930 . S
H1257 C1254 0.929 . S
S1258 N1259 1.613 . S
S1258 N1260 1.610 . S
N1259 S1258 1.613 . S
N1259 C1262 1.350 . S
N1260 S1258 1.610 . S
N1260 C1261 1.351 . S
C1261 C1255 1.428 . S
C1261 N1260 1.351 . S
C1261 C1262 1.434 . S
C1262 C1253 1.429 . S
C1262 N1259 1.350 . S
C1262 C1261 1.434 . S
C1263 C1264 1.369 . S
C1263 C1265 1.419 . S
C1263 H1267 0.930 . S
C1264 C1263 1.369 . S
C1264 C1273 1.429 . S
C1265 C1263 1.419 . S
C1265 C1266 1.363 . S
C1265 H1268 0.929 . S
C1266 C1265 1.363 . S
C1266 C1272 1.428 . S
H1267 C1263 0.930 . S
H1268 C1265 0.929 . S
S1269 N1270 1.613 . S
S1269 N1271 1.610 . S
N1270 S1269 1.613 . S
N1270 C1273 1.350 . S
N1271 S1269 1.610 . S
N1271 C1272 1.351 . S
C1272 C1266 1.428 . S
C1272 N1271 1.351 . S
C1272 C1273 1.434 . S
C1273 C1264 1.429 . S
C1273 N1270 1.350 . S
C1273 C1272 1.434 . S
C1274 C1275 1.369 . S
C1274 C1276 1.419 . S
C1274 H1278 0.930 . S
C1275 C1274 1.369 . S
C1275 C1284 1.429 . S
C1276 C1274 1.419 . S
C1276 C1277 1.363 . S
C1276 H1279 0.929 . S
C1277 C1276 1.363 . S
C1277 C1283 1.428 . S
H1278 C1274 0.930 . S
H1279 C1276 0.929 . S
S1280 N1281 1.613 . S
S1280 N1282 1.610 . S
N1281 S1280 1.613 . S
N1281 C1284 1.350 . S
N1282 S1280 1.610 . S
N1282 C1283 1.351 . S
C1283 C1277 1.428 . S
C1283 N1282 1.351 . S
C1283 C1284 1.434 . S
C1284 C1275 1.429 . S
C1284 N1281 1.350 . S
C1284 C1283 1.434 . S
C1285 C1286 1.369 . S
C1285 C1287 1.419 . S
C1285 H1289 0.930 . S
C1286 C1285 1.369 . S
C1286 C1295 1.429 . S
C1287 C1285 1.419 . S
C1287 C1288 1.363 . S
C1287 H1290 0.929 . S
C1288 C1287 1.363 . S
C1288 C1294 1.428 . S
H1289 C1285 0.930 . S
H1290 C1287 0.929 . S
S1291 N1292 1.613 . S
S1291 N1293 1.610 . S
N1292 S1291 1.613 . S
N1292 C1295 1.350 . S
N1293 S1291 1.610 . S
N1293 C1294 1.351 . S
C1294 C1288 1.428 . S
C1294 N1293 1.351 . S
C1294 C1295 1.434 . S
C1295 C1286 1.429 . S
C1295 N1292 1.350 . S
C1295 C1294 1.434 . S
C945 C890 1.345 . S
C947 C5 1.357 . S
C956 C713 1.350 . S
C958 C64 1.343 . S
C967 C123 1.670 . S
C969 C772 1.595 . S
C978 C831 1.536 . S
C980 C182 1.592 . S
C989 C536 1.352 . S
C991 C241 1.341 . S
C1000 C300 1.604 . S
C1002 C595 1.665 . S
C1011 C359 1.530 . S
C1013 C654 1.595 . S
C1022 C418 1.339 . S
C1024 C477 1.357 . S
C1033 C347 2.195 . S
C1035 C33 2.137 . S
C1044 C357 1.288 . S
C1046 C62 1.300 . S
C1055 C465 1.744 . S
C1057 C151 1.702 . S
C1066 C180 1.642 . S
C1068 C269 1.697 . S
C1077 C52 1.561 . S
C1079 C111 1.528 . S
C1088 C121 1.429 . S
C1090 C92 1.485 . S
C1099 C170 1.402 . S
C1101 C229 1.401 . S
C1110 C3 1.431 . S
C1112 C210 1.402 . S
C1121 C446 1.328 . S
C1123 C288 1.300 . S
C1132 C239 1.753 . S
C1134 C298 1.753 . S
C1143 C328 1.477 . S
C1145 C387 1.439 . S
C1154 C416 1.933 . S
C1156 C406 1.966 . S
C1165 C819 2.191 . S
C1167 C505 2.142 . S
C1176 C534 1.298 . S
C1178 C829 1.286 . S
C1187 C937 1.746 . S
C1189 C623 1.704 . S
C1198 C741 1.696 . S
C1200 C652 1.642 . S
C1209 C524 1.569 . S
C1211 C583 1.520 . S
C1220 C564 1.486 . S
C1222 C593 1.424 . S
C1231 C701 1.399 . S
C1233 C642 1.405 . S
C1242 C475 1.435 . S
C1244 C682 1.404 . S
C1253 C918 1.327 . S
C1255 C760 1.297 . S
C1264 C711 1.754 . S
C1266 C770 1.754 . S
C1275 C800 1.474 . S
C1277 C859 1.439 . S
C1286 C888 1.937 . S
C1288 C878 1.963 . S
