# Generated by pormake.
# Topology vmf, (6)-cn, num edge types: 1
# Building blocks:
#     Node 0, Type 0, BuildingBlock: IZENUY_clean_sbu_0, # of connection points: 6
#     Node 1, Type 0, BuildingBlock: IZENUY_clean_sbu_0, # of connection points: 6
#     Node 2, Type 0, BuildingBlock: IZENUY_clean_sbu_0, # of connection points: 6
#     Node 3, Type 0, BuildingBlock: IZENUY_clean_sbu_0, # of connection points: 6
#     Node 4, Type 0, BuildingBlock: IZENUY_clean_sbu_0, # of connection points: 6
#     Node 5, Type 0, BuildingBlock: IZENUY_clean_sbu_0, # of connection points: 6
#     Node 6, Type 0, BuildingBlock: IZENUY_clean_sbu_0, # of connection points: 6
#     Node 7, Type 0, BuildingBlock: IZENUY_clean_sbu_0, # of connection points: 6
#     Edge 8, Type (0, 0), BuildingBlock: MIFKUJ_clean_linker_0, # of connection points: 2
#     Edge 9, Type (0, 0), BuildingBlock: MIFKUJ_clean_linker_0, # of connection points: 2
#     Edge 10, Type (0, 0), BuildingBlock: MIFKUJ_clean_linker_0, # of connection points: 2
#     Edge 11, Type (0, 0), BuildingBlock: MIFKUJ_clean_linker_0, # of connection points: 2
#     Edge 12, Type (0, 0), BuildingBlock: MIFKUJ_clean_linker_0, # of connection points: 2
#     Edge 13, Type (0, 0), BuildingBlock: MIFKUJ_clean_linker_0, # of connection points: 2
#     Edge 14, Type (0, 0), BuildingBlock: MIFKUJ_clean_linker_0, # of connection points: 2
#     Edge 15, Type (0, 0), BuildingBlock: MIFKUJ_clean_linker_0, # of connection points: 2
#     Edge 16, Type (0, 0), BuildingBlock: MIFKUJ_clean_linker_0, # of connection points: 2
#     Edge 17, Type (0, 0), BuildingBlock: MIFKUJ_clean_linker_0, # of connection points: 2
#     Edge 18, Type (0, 0), BuildingBlock: MIFKUJ_clean_linker_0, # of connection points: 2
#     Edge 19, Type (0, 0), BuildingBlock: MIFKUJ_clean_linker_0, # of connection points: 2
#     Edge 20, Type (0, 0), BuildingBlock: MIFKUJ_clean_linker_0, # of connection points: 2
#     Edge 21, Type (0, 0), BuildingBlock: MIFKUJ_clean_linker_0, # of connection points: 2
#     Edge 22, Type (0, 0), BuildingBlock: MIFKUJ_clean_linker_0, # of connection points: 2
#     Edge 23, Type (0, 0), BuildingBlock: MIFKUJ_clean_linker_0, # of connection points: 2
#     Edge 24, Type (0, 0), BuildingBlock: MIFKUJ_clean_linker_0, # of connection points: 2
#     Edge 25, Type (0, 0), BuildingBlock: MIFKUJ_clean_linker_0, # of connection points: 2
#     Edge 26, Type (0, 0), BuildingBlock: MIFKUJ_clean_linker_0, # of connection points: 2
#     Edge 27, Type (0, 0), BuildingBlock: MIFKUJ_clean_linker_0, # of connection points: 2
#     Edge 28, Type (0, 0), BuildingBlock: MIFKUJ_clean_linker_0, # of connection points: 2
#     Edge 29, Type (0, 0), BuildingBlock: MIFKUJ_clean_linker_0, # of connection points: 2
#     Edge 30, Type (0, 0), BuildingBlock: MIFKUJ_clean_linker_0, # of connection points: 2
#     Edge 31, Type (0, 0), BuildingBlock: MIFKUJ_clean_linker_0, # of connection points: 2
# Relax obj value: 0.282
# Max RMSD: 0.266
# Mean RMSD: 0.266
data_MOF--net-vmf--node1-IZENUY_clean_sbu_0--edge1-MIFKUJ_clean_linker_0
_symmetry_space_group_name_H-M    P1
_symmetry_Int_Tables_number       1
_symmetry_cell_setting            triclinic
loop_
_symmetry_equiv_pos_as_xyz
'x, y, z'
_cell_length_a     36.70868
_cell_length_b     55.658324
_cell_length_c     36.223717
_cell_angle_alpha  89.957224
_cell_angle_beta   104.76964
_cell_angle_gamma 89.792379
loop_
_atom_site_label
_atom_site_type_symbol
_atom_site_fract_x
_atom_site_fract_y
_atom_site_fract_z
_atom_type_partial_charge
Fe0 Fe 0.21535 0.34739 0.21662 0.0
Fe1 Fe 0.20731 0.29683 0.24853 0.0
O2 O 0.19369 0.32753 0.24287 0.0
Fe3 Fe 0.15728 0.3383 0.26284 0.0
O4 O 0.12796 0.34549 0.21536 0.0
O5 O 0.17208 0.36454 0.19599 0.0
O6 O 0.2029 0.32882 0.17421 0.0
C7 C 0.2107 0.30683 0.17279 0.0
C8 C 0.20686 0.37827 0.27219 0.0
O9 O 0.21826 0.29398 0.20248 0.0
C10 C 0.19794 0.31009 0.3209 0.0
O11 O 0.262 0.3333 0.23203 0.0
O12 O 0.25602 0.30437 0.27159 0.0
O13 O 0.17489 0.36917 0.27008 0.0
O14 O 0.22977 0.36786 0.25679 0.0
C15 C 0.13072 0.29284 0.23577 0.0
O16 O 0.19929 0.29434 0.29608 0.0
O17 O 0.18468 0.33093 0.31129 0.0
C18 C 0.27652 0.31791 0.25736 0.0
O19 O 0.15965 0.28675 0.22526 0.0
O20 O 0.13225 0.30986 0.25907 0.0
C21 C 0.13809 0.358 0.19057 0.0
Fe22 Fe 0.78703 0.34645 0.80305 0.0
Fe23 Fe 0.79632 0.29857 0.7651 0.0
O24 O 0.80949 0.32913 0.77414 0.0
Fe25 Fe 0.84528 0.34195 0.75533 0.0
O26 O 0.8661 0.36 0.79872 0.0
O27 O 0.831 0.35092 0.83786 0.0
O28 O 0.77959 0.32124 0.83237 0.0
C29 C 0.7976 0.30176 0.84051 0.0
C30 C 0.79834 0.38109 0.74913 0.0
O31 O 0.81069 0.29103 0.8159 0.0
C32 C 0.80103 0.31296 0.6942 0.0
O33 O 0.74094 0.34251 0.77013 0.0
O34 O 0.74727 0.30337 0.76672 0.0
O35 O 0.81534 0.36674 0.73227 0.0
O36 O 0.79101 0.37516 0.78009 0.0
C37 C 0.87503 0.29681 0.77204 0.0
O38 O 0.78106 0.30424 0.71453 0.0
O39 O 0.83042 0.32528 0.70911 0.0
C40 C 0.72652 0.32195 0.76232 0.0
O41 O 0.84257 0.2878 0.7608 0.0
O42 O 0.87908 0.31904 0.77704 0.0
C43 C 0.86154 0.35836 0.83235 0.0
Fe44 Fe 0.79027 0.71989 0.75959 0.0
Fe45 Fe 0.78296 0.67321 0.80138 0.0
O46 O 0.80502 0.6899 0.77144 0.0
Fe47 Fe 0.84185 0.67707 0.75416 0.0
O48 O 0.87431 0.70087 0.77442 0.0
O49 O 0.83597 0.73106 0.7551 0.0
O50 O 0.80395 0.72895 0.80936 0.0
C51 C 0.79009 0.71938 0.8342 0.0
C52 C 0.79675 0.70364 0.69056 0.0
O53 O 0.77351 0.69936 0.82818 0.0
C54 C 0.79666 0.63746 0.75018 0.0
O55 O 0.74131 0.71475 0.76098 0.0
O56 O 0.7369 0.67573 0.76756 0.0
O57 O 0.82692 0.69235 0.70681 0.0
O58 O 0.77584 0.71251 0.70977 0.0
C59 C 0.85797 0.66272 0.83227 0.0
O60 O 0.78887 0.64388 0.78077 0.0
O61 O 0.81323 0.6516 0.73267 0.0
C62 C 0.72151 0.69588 0.75748 0.0
O63 O 0.827 0.6701 0.83713 0.0
O64 O 0.86283 0.66033 0.79888 0.0
C65 C 0.86893 0.72295 0.7679 0.0
Fe66 Fe 0.23053 0.66877 0.21182 0.0
Fe67 Fe 0.17053 0.67341 0.2574 0.0
O68 O 0.20742 0.68609 0.24022 0.0
Fe69 Fe 0.22136 0.71635 0.25019 0.0
O70 O 0.20923 0.72408 0.19955 0.0
O71 O 0.2417 0.69412 0.1851 0.0
O72 O 0.18718 0.66586 0.17511 0.0
C73 C 0.15583 0.6589 0.17942 0.0
C74 C 0.29075 0.69149 0.25708 0.0
O75 O 0.15033 0.65654 0.21264 0.0
C76 C 0.21368 0.70151 0.31998 0.0
O77 O 0.22338 0.63978 0.23207 0.0
O78 O 0.19942 0.64798 0.28 0.0
O79 O 0.271 0.71057 0.25145 0.0
O80 O 0.2757 0.67128 0.24706 0.0
C81 C 0.1422 0.71919 0.24097 0.0
O82 O 0.18466 0.68914 0.30429 0.0
O83 O 0.2342 0.71058 0.3006 0.0
C84 C 0.21558 0.63349 0.26255 0.0
O85 O 0.13761 0.69693 0.23643 0.0
O86 O 0.17488 0.7279 0.25205 0.0
C87 C 0.22475 0.71386 0.17645 0.0
Fe88 Fe 0.72761 0.84138 0.20914 0.0
Fe89 Fe 0.71891 0.79605 0.25362 0.0
O90 O 0.7053 0.82607 0.24031 0.0
Fe91 Fe 0.66957 0.84028 0.2576 0.0
O92 O 0.64811 0.85604 0.21177 0.0
O93 O 0.68354 0.84483 0.1739 0.0
O94 O 0.73466 0.81423 0.18326 0.0
C95 C 0.7169 0.79457 0.17861 0.0
C96 C 0.7162 0.87893 0.25862 0.0
O97 O 0.70349 0.78594 0.2045 0.0
C98 C 0.71528 0.81469 0.32212 0.0
O99 O 0.77399 0.83832 0.24236 0.0
O100 O 0.76763 0.79966 0.25019 0.0
O101 O 0.69935 0.8656 0.27696 0.0
O102 O 0.72378 0.8715 0.22844 0.0
C103 C 0.6405 0.79487 0.24861 0.0
O104 O 0.73507 0.80464 0.30279 0.0
O105 O 0.68523 0.82616 0.30589 0.0
C106 C 0.78858 0.81786 0.25166 0.0
O107 O 0.67324 0.7862 0.26036 0.0
O108 O 0.63598 0.8167 0.23986 0.0
C109 C 0.65279 0.85275 0.17842 0.0
Fe110 Fe 0.29033 0.79756 0.75817 0.0
Fe111 Fe 0.33954 0.84113 0.75064 0.0
O112 O 0.30411 0.82777 0.76935 0.0
Fe113 Fe 0.28214 0.84422 0.79982 0.0
O114 O 0.2745 0.81799 0.82716 0.0
O115 O 0.30532 0.78861 0.808 0.0
O116 O 0.33602 0.7868 0.75252 0.0
C117 C 0.36873 0.79555 0.76277 0.0
C118 C 0.22084 0.82061 0.75849 0.0
O119 O 0.37329 0.81763 0.76921 0.0
C120 C 0.29312 0.88032 0.74818 0.0
O121 O 0.27433 0.80471 0.70833 0.0
O122 O 0.32339 0.82614 0.70324 0.0
O123 O 0.2356 0.84105 0.7669 0.0
O124 O 0.24157 0.80212 0.76091 0.0
C125 C 0.3571 0.85544 0.82905 0.0
O126 O 0.30976 0.86649 0.73025 0.0
O127 O 0.28611 0.87367 0.77894 0.0
C128 C 0.29364 0.81425 0.68812 0.0
O129 O 0.36151 0.85752 0.79539 0.0
O130 O 0.32655 0.848 0.83471 0.0
C131 C 0.29081 0.7978 0.83272 0.0
Fe132 Fe 0.303 0.21759 0.76797 0.0
Fe133 Fe 0.29497 0.16774 0.80181 0.0
O134 O 0.31562 0.18679 0.77354 0.0
Fe135 Fe 0.35012 0.17508 0.75176 0.0
O136 O 0.37626 0.20307 0.75389 0.0
O137 O 0.35137 0.22712 0.78866 0.0
O138 O 0.29501 0.22111 0.81533 0.0
C139 C 0.30478 0.20853 0.84526 0.0
C140 C 0.3084 0.20344 0.69449 0.0
O141 O 0.31108 0.18638 0.84362 0.0
C142 C 0.29865 0.13611 0.74574 0.0
O143 O 0.25368 0.21056 0.74735 0.0
O144 O 0.24885 0.18281 0.78913 0.0
O145 O 0.32118 0.18247 0.70394 0.0
O146 O 0.30843 0.21942 0.71935 0.0
C147 C 0.37164 0.15609 0.82438 0.0
O148 O 0.27739 0.14731 0.76227 0.0
O149 O 0.33073 0.14449 0.74583 0.0
C150 C 0.23375 0.19789 0.76351 0.0
O151 O 0.33774 0.14971 0.82002 0.0
O152 O 0.38107 0.16796 0.79854 0.0
C153 C 0.37918 0.22052 0.77666 0.0
Fe154 Fe 0.71003 0.21718 0.24775 0.0
Fe155 Fe 0.71902 0.16943 0.20911 0.0
O156 O 0.69796 0.18635 0.23975 0.0
Fe157 Fe 0.6648 0.17279 0.26148 0.0
O158 O 0.62914 0.19503 0.24195 0.0
O159 O 0.66432 0.2271 0.25479 0.0
O160 O 0.69234 0.2244 0.19711 0.0
C161 C 0.70388 0.21388 0.17129 0.0
C162 C 0.71063 0.20272 0.32025 0.0
O163 O 0.72306 0.19478 0.17853 0.0
C164 C 0.71307 0.13452 0.26475 0.0
O165 O 0.7584 0.21335 0.24302 0.0
O166 O 0.76606 0.17434 0.23946 0.0
O167 O 0.6817 0.18961 0.30721 0.0
O168 O 0.72843 0.21194 0.29824 0.0
C169 C 0.64485 0.15577 0.18457 0.0
O170 O 0.71812 0.14064 0.2329 0.0
O171 O 0.69683 0.14853 0.28288 0.0
C172 C 0.77983 0.19512 0.24627 0.0
O173 O 0.67398 0.16387 0.17676 0.0
O174 O 0.6422 0.15453 0.21892 0.0
C175 C 0.63222 0.21736 0.24636 0.0
H176 H 0.55892 0.20377 0.21905 0.0
H177 H 0.50237 0.22544 0.22368 0.0
H178 H 0.57062 0.28461 0.27848 0.0
H179 H 0.62768 0.2629 0.27417 0.0
H180 H 0.51656 0.27159 0.31591 0.0
H181 H 0.52259 0.28866 0.18773 0.0
H182 H 0.52724 0.27853 0.12282 0.0
H183 H 0.42314 0.23978 0.1026 0.0
H184 H 0.41852 0.24888 0.1676 0.0
H185 H 0.32812 0.34214 0.22906 0.0
H186 H 0.39242 0.32993 0.23112 0.0
H187 H 0.3826 0.26972 0.30287 0.0
H188 H 0.31792 0.2818 0.30101 0.0
H189 H 0.41106 0.2883 0.20246 0.0
H190 H 0.47213 0.2556 0.35775 0.0
H191 H 0.46741 0.26554 0.42274 0.0
H192 H 0.43743 0.33824 0.38778 0.0
H193 H 0.44247 0.32884 0.32276 0.0
C194 C 0.562 0.22146 0.23187 0.0
C195 C 0.5979 0.2316 0.24622 0.0
C196 C 0.52958 0.23385 0.23445 0.0
C197 C 0.53223 0.25668 0.25133 0.0
C198 C 0.56794 0.26699 0.26538 0.0
C199 C 0.60049 0.25464 0.26262 0.0
C200 C 0.49759 0.26952 0.25461 0.0
C201 C 0.49353 0.27534 0.2911 0.0
C202 C 0.46767 0.27461 0.2222 0.0
C203 C 0.4704 0.26929 0.18279 0.0
C204 C 0.5009 0.27774 0.16958 0.0
C205 C 0.50356 0.27214 0.13271 0.0
C206 C 0.47562 0.25838 0.10858 0.0
C207 C 0.44493 0.25027 0.12126 0.0
C208 C 0.44229 0.25562 0.15815 0.0
C209 C 0.33971 0.32652 0.2459 0.0
C210 C 0.31756 0.31284 0.26461 0.0
C211 C 0.37654 0.31953 0.24691 0.0
C212 C 0.39232 0.29886 0.26696 0.0
C213 C 0.37111 0.28584 0.2874 0.0
C214 C 0.33409 0.29278 0.2863 0.0
C215 C 0.42966 0.28991 0.26379 0.0
C216 C 0.43418 0.28474 0.22728 0.0
C217 C 0.45995 0.28548 0.29612 0.0
C218 C 0.45735 0.29143 0.33528 0.0
C219 C 0.46469 0.27374 0.36398 0.0
C220 C 0.46193 0.27927 0.40081 0.0
C221 C 0.45201 0.30249 0.40935 0.0
C222 C 0.44496 0.32024 0.3811 0.0
C223 C 0.44771 0.3148 0.34423 0.0
H224 H 0.44986 0.30673 0.43788 0.0
H225 H 0.47768 0.25406 0.08005 0.0
H226 H 0.6756 0.35199 0.78346 0.0
H227 H 0.61166 0.34149 0.78695 0.0
H228 H 0.62223 0.27283 0.73533 0.0
H229 H 0.68534 0.28331 0.73118 0.0
H230 H 0.5539 0.2884 0.70973 0.0
H231 H 0.64175 0.2804 0.832 0.0
H232 H 0.6892 0.29294 0.88998 0.0
H233 H 0.61016 0.34284 0.91664 0.0
H234 H 0.56245 0.33097 0.85828 0.0
H235 H 0.44819 0.20447 0.77457 0.0
H236 H 0.50435 0.22823 0.77713 0.0
H237 H 0.44688 0.29197 0.80023 0.0
H238 H 0.39003 0.26807 0.79795 0.0
H239 H 0.5318 0.28622 0.83931 0.0
H240 H 0.43945 0.2811 0.7171 0.0
H241 H 0.39746 0.25546 0.66945 0.0
H242 H 0.49317 0.22052 0.64533 0.0
H243 H 0.53579 0.24423 0.69559 0.0
C244 C 0.66382 0.33495 0.7719 0.0
C245 C 0.68561 0.31839 0.7573 0.0
C246 C 0.62744 0.32887 0.77426 0.0
C247 C 0.61237 0.30619 0.76204 0.0
C248 C 0.6332 0.2904 0.74507 0.0
C249 C 0.66937 0.29641 0.74278 0.0
C250 C 0.57616 0.29789 0.76883 0.0
C251 C 0.549 0.28812 0.73802 0.0
C252 C 0.56972 0.29744 0.80584 0.0
C253 C 0.59873 0.30512 0.84036 0.0
C254 C 0.63465 0.29431 0.8499 0.0
C255 C 0.66156 0.30124 0.88291 0.0
C256 C 0.65274 0.31876 0.90689 0.0
C257 C 0.61699 0.32936 0.89792 0.0
C258 C 0.59003 0.32257 0.86485 0.0
C259 C 0.4476 0.22347 0.78087 0.0
C260 C 0.41444 0.23455 0.78512 0.0
C261 C 0.47984 0.23697 0.78263 0.0
C262 C 0.47947 0.26186 0.78823 0.0
C263 C 0.44756 0.27275 0.7958 0.0
C264 C 0.41512 0.25913 0.79428 0.0
C265 C 0.51027 0.27648 0.78038 0.0
C266 C 0.53626 0.28733 0.81087 0.0
C267 C 0.51647 0.27703 0.74334 0.0
C268 C 0.49093 0.26437 0.71059 0.0
C269 C 0.45164 0.26778 0.70203 0.0
C270 C 0.42767 0.25344 0.6747 0.0
C271 C 0.44261 0.23653 0.65411 0.0
C272 C 0.48161 0.23368 0.66123 0.0
C273 C 0.5057 0.24737 0.6895 0.0
H274 H 0.42396 0.22565 0.63266 0.0
H275 H 0.67355 0.32409 0.93247 0.0
H276 H 0.37532 0.74632 0.76711 0.0
H277 H 0.43012 0.72187 0.76287 0.0
H278 H 0.4911 0.78629 0.75137 0.0
H279 H 0.43736 0.81076 0.75663 0.0
H280 H 0.48709 0.74652 0.693 0.0
H281 H 0.51663 0.76424 0.82963 0.0
H282 H 0.50286 0.76342 0.89278 0.0
H283 H 0.49599 0.68643 0.88799 0.0
H284 H 0.50917 0.68685 0.82446 0.0
H285 H 0.68056 0.73458 0.72522 0.0
H286 H 0.61495 0.74335 0.72146 0.0
H287 H 0.60201 0.67323 0.7673 0.0
H288 H 0.66878 0.66449 0.7722 0.0
H289 H 0.57346 0.70658 0.8041 0.0
H290 H 0.55661 0.68794 0.67366 0.0
H291 H 0.56991 0.68799 0.61031 0.0
H292 H 0.55062 0.76414 0.60109 0.0
H293 H 0.53774 0.76464 0.66464 0.0
C294 C 0.40054 0.75524 0.76398 0.0
C295 C 0.40201 0.78048 0.76229 0.0
C296 C 0.43172 0.74127 0.76153 0.0
C297 C 0.46447 0.75233 0.75662 0.0
C298 C 0.46599 0.77745 0.75502 0.0
C299 C 0.4353 0.79139 0.75826 0.0
C300 C 0.49737 0.73802 0.75268 0.0
C301 C 0.50606 0.73773 0.71718 0.0
C302 C 0.52115 0.72583 0.78395 0.0
C303 C 0.5133 0.7256 0.82209 0.0
C304 C 0.51174 0.74716 0.84184 0.0
C305 C 0.50415 0.74677 0.87775 0.0
C306 C 0.4984 0.72489 0.89432 0.0
C307 C 0.50035 0.70336 0.87507 0.0
C308 C 0.50788 0.70367 0.83912 0.0
C309 C 0.66374 0.72079 0.73397 0.0
C310 C 0.68003 0.69885 0.74916 0.0
C311 C 0.62599 0.72579 0.73154 0.0
C312 C 0.60324 0.70889 0.74371 0.0
C313 C 0.61896 0.68654 0.75762 0.0
C314 C 0.65703 0.68149 0.76013 0.0
C315 C 0.56418 0.71572 0.74451 0.0
C316 C 0.55418 0.7147 0.77946 0.0
C317 C 0.53891 0.7265 0.71252 0.0
C318 C 0.54633 0.72632 0.67406 0.0
C319 C 0.5554 0.70473 0.65824 0.0
C320 C 0.56285 0.70466 0.62227 0.0
C321 C 0.56114 0.72606 0.6017 0.0
C322 C 0.5519 0.74757 0.61704 0.0
C323 C 0.54445 0.74775 0.65302 0.0
H324 H 0.56694 0.72596 0.57387 0.0
H325 H 0.49255 0.72462 0.92213 0.0
H326 H 0.33153 0.72715 0.29879 0.0
H327 H 0.39688 0.73765 0.30235 0.0
H328 H 0.40904 0.67363 0.23972 0.0
H329 H 0.34334 0.66282 0.23616 0.0
H330 H 0.47829 0.69802 0.31442 0.0
H331 H 0.4016 0.7084 0.1752 0.0
H332 H 0.34046 0.72018 0.13233 0.0
H333 H 0.34067 0.78514 0.19634 0.0
H334 H 0.40234 0.77392 0.23895 0.0
H335 H 0.63581 0.74579 0.25485 0.0
H336 H 0.58066 0.7223 0.25912 0.0
H337 H 0.5156 0.78768 0.25203 0.0
H338 H 0.56967 0.81093 0.24594 0.0
H339 H 0.47422 0.75732 0.21099 0.0
H340 H 0.55443 0.75456 0.33836 0.0
H341 H 0.61234 0.74619 0.38877 0.0
H342 H 0.60359 0.67118 0.36037 0.0
H343 H 0.54587 0.67917 0.3094 0.0
C344 C 0.34842 0.71488 0.2868 0.0
C345 C 0.33223 0.69423 0.26699 0.0
C346 C 0.3858 0.72086 0.28903 0.0
C347 C 0.40772 0.70638 0.2714 0.0
C348 C 0.39263 0.68485 0.25391 0.0
C349 C 0.35512 0.67871 0.2519 0.0
C350 C 0.44334 0.71614 0.26561 0.0
C351 C 0.47782 0.7106 0.29142 0.0
C352 C 0.44233 0.73315 0.23653 0.0
C353 C 0.40634 0.74039 0.21 0.0
C354 C 0.38862 0.72525 0.17986 0.0
C355 C 0.3539 0.73183 0.15567 0.0
C356 C 0.33653 0.75334 0.16174 0.0
C357 C 0.35413 0.76849 0.19167 0.0
C358 C 0.38907 0.76213 0.21565 0.0
C359 C 0.60962 0.75509 0.25395 0.0
C360 C 0.60714 0.78024 0.24991 0.0
C361 C 0.57817 0.74166 0.25672 0.0
C362 C 0.54391 0.75317 0.25641 0.0
C363 C 0.54152 0.77827 0.25218 0.0
C364 C 0.57259 0.7916 0.24872 0.0
C365 C 0.51014 0.73941 0.2599 0.0
C366 C 0.47553 0.74434 0.23366 0.0
C367 C 0.51125 0.72231 0.28934 0.0
C368 C 0.54606 0.7175 0.31978 0.0
C369 C 0.56503 0.73631 0.34265 0.0
C370 C 0.59778 0.73163 0.37137 0.0
C371 C 0.61163 0.70817 0.37775 0.0
C372 C 0.59281 0.68935 0.35538 0.0
C373 C 0.56008 0.69394 0.32658 0.0
H374 H 0.63693 0.70457 0.40006 0.0
H375 H 0.30952 0.75836 0.14323 0.0
H376 H 0.13965 0.76727 0.25791 0.0
H377 H 0.08368 0.79161 0.25705 0.0
H378 H 0.01279 0.73066 0.21571 0.0
H379 H 0.0682 0.70645 0.21576 0.0
H380 H 0.98184 0.77031 0.18058 0.0
H381 H 0.03878 0.74621 0.31099 0.0
H382 H 0.0907 0.74367 0.36952 0.0
H383 H 0.09401 0.82065 0.37721 0.0
H384 H 0.04248 0.82365 0.31832 0.0
H385 H 0.82428 0.77467 0.25562 0.0
H386 H 0.88803 0.76653 0.25117 0.0
H387 H 0.91002 0.84246 0.24994 0.0
H388 H 0.84501 0.85107 0.25328 0.0
H389 H 0.96911 0.80466 0.30308 0.0
H390 H 0.90229 0.82673 0.17543 0.0
H391 H 0.84948 0.82652 0.11759 0.0
H392 H 0.86361 0.75058 0.10552 0.0
H393 H 0.91579 0.75018 0.16397 0.0
C394 C 0.11212 0.75913 0.24819 0.0
C395 C 0.10852 0.73481 0.23723 0.0
C396 C 0.08014 0.77306 0.24788 0.0
C397 C 0.04399 0.7629 0.23681 0.0
C398 C 0.04032 0.73893 0.22441 0.0
C399 C 0.07215 0.72505 0.22463 0.0
C400 C 0.00987 0.77659 0.23962 0.0
C401 C 0.97914 0.77789 0.20734 0.0
C402 C 0.00651 0.78696 0.27436 0.0
C403 C 0.03713 0.78516 0.31 0.0
C404 C 0.05077 0.7626 0.32501 0.0
C405 C 0.0801 0.76107 0.35826 0.0
C406 C 0.09573 0.78198 0.377 0.0
C407 C 0.08194 0.80447 0.36261 0.0
C408 C 0.05269 0.80609 0.32929 0.0
C409 C 0.84253 0.78981 0.25484 0.0
C410 C 0.82924 0.81361 0.2546 0.0
C411 C 0.87904 0.78503 0.25219 0.0
C412 C 0.9035 0.80386 0.24984 0.0
C413 C 0.89135 0.8277 0.25156 0.0
C414 C 0.85429 0.83257 0.25354 0.0
C415 C 0.9411 0.79795 0.24422 0.0
C416 C 0.97229 0.7978 0.27605 0.0
C417 C 0.94477 0.78835 0.20918 0.0
C418 C 0.9128 0.78841 0.1744 0.0
C419 C 0.89379 0.80991 0.16083 0.0
C420 C 0.86402 0.80991 0.12784 0.0
C421 C 0.85324 0.78856 0.10787 0.0
C422 C 0.87205 0.76712 0.12099 0.0
C423 C 0.90168 0.76699 0.1541 0.0
H424 H 0.83031 0.78861 0.08224 0.0
H425 H 0.11844 0.78077 0.40273 0.0
H426 H 0.86921 0.76982 0.74432 0.0
H427 H 0.92403 0.79482 0.74482 0.0
H428 H 0.99777 0.73721 0.79827 0.0
H429 H 0.9433 0.71234 0.79863 0.0
H430 H 0.024 0.77943 0.82835 0.0
H431 H 0.97531 0.74725 0.70048 0.0
H432 H 0.92575 0.74118 0.64087 0.0
H433 H 0.91679 0.81746 0.6229 0.0
H434 H 0.966 0.82399 0.6827 0.0
H435 H 0.18561 0.77795 0.76041 0.0
H436 H 0.12137 0.77098 0.76381 0.0
H437 H 0.0981 0.84694 0.75273 0.0
H438 H 0.16374 0.85445 0.7506 0.0
H439 H 0.04151 0.8061 0.70326 0.0
H440 H 0.10125 0.83667 0.82667 0.0
H441 H 0.1513 0.8411 0.88614 0.0
H442 H 0.13877 0.76719 0.91395 0.0
H443 H 0.08988 0.76188 0.85374 0.0
C444 C 0.89709 0.76256 0.7566 0.0
C445 C 0.90183 0.73894 0.77103 0.0
C446 C 0.92841 0.77687 0.75671 0.0
C447 C 0.96506 0.76778 0.77105 0.0
C448 C 0.9698 0.7446 0.78694 0.0
C449 C 0.93857 0.73033 0.78691 0.0
C450 C 0.99867 0.78169 0.76794 0.0
C451 C 0.0278 0.78532 0.80103 0.0
C452 C 1.00319 0.79005 0.7324 0.0
C453 C 0.97405 0.78611 0.69621 0.0
C454 C 0.96262 0.76273 0.68391 0.0
C455 C 0.93462 0.7592 0.65009 0.0
C456 C 0.91812 0.77893 0.62814 0.0
C457 C 0.92959 0.80221 0.63995 0.0
C458 C 0.95755 0.80583 0.67378 0.0
C459 C 0.16701 0.79333 0.75829 0.0
C460 C 0.18009 0.81686 0.75539 0.0
C461 C 0.13021 0.78923 0.76038 0.0
C462 C 0.1052 0.80843 0.75891 0.0
C463 C 0.11721 0.8319 0.75412 0.0
C464 C 0.15461 0.83614 0.75284 0.0
C465 C 0.06707 0.80326 0.76356 0.0
C466 C 0.03724 0.80095 0.73074 0.0
C467 C 0.06196 0.79599 0.79935 0.0
C468 C 0.09219 0.79881 0.83522 0.0
C469 C 0.1097 0.82118 0.84499 0.0
C470 C 0.13785 0.82385 0.87891 0.0
C471 C 0.14836 0.80437 0.90371 0.0
C472 C 0.13075 0.78218 0.89458 0.0
C473 C 0.10292 0.77931 0.86046 0.0
H474 H 0.17007 0.80647 0.93003 0.0
H475 H 0.89657 0.77616 0.6019 0.0
H476 H 0.94471 0.30163 0.82044 0.0
H477 H 1.00273 0.281 0.8171 0.0
H478 H 0.94047 0.23978 0.72086 0.0
H479 H 0.882 0.25932 0.72577 0.0
H480 H 0.99269 0.21287 0.75974 0.0
H481 H 0.99144 0.29327 0.71195 0.0
H482 H 0.98604 0.33739 0.7145 0.0
H483 H 0.08241 0.3396 0.81096 0.0
H484 H 0.08809 0.29546 0.80929 0.0
H485 H 0.18986 0.22846 0.71058 0.0
H486 H 0.12537 0.24167 0.70701 0.0
H487 H 0.12215 0.19496 0.80123 0.0
H488 H 0.18576 0.18116 0.80416 0.0
H489 H 0.1003 0.26567 0.75607 0.0
H490 H 0.03408 0.17895 0.80051 0.0
H491 H 0.03697 0.1351 0.79168 0.0
H492 H 0.07177 0.14597 0.6884 0.0
H493 H 0.0686 0.18986 0.6963 0.0
C494 C 0.94338 0.28783 0.79905 0.0
C495 C 0.90894 0.28212 0.77327 0.0
C496 C 0.97659 0.27621 0.79689 0.0
C497 C 0.97633 0.25935 0.76793 0.0
C498 C 0.94159 0.25281 0.74332 0.0
C499 C 0.90815 0.26396 0.74616 0.0
C500 C 0.01233 0.2494 0.76226 0.0
C501 C 0.01619 0.22443 0.75892 0.0
C502 C 0.04285 0.26444 0.76013 0.0
C503 C 0.04001 0.29104 0.76066 0.0
C504 C 0.0114 0.30316 0.73378 0.0
C505 C 0.00828 0.32817 0.73509 0.0
C506 C 0.03382 0.34128 0.76293 0.0
C507 C 0.06264 0.32942 0.78941 0.0
C508 C 0.06586 0.30441 0.78827 0.0
C509 C 0.17514 0.22065 0.73004 0.0
C510 C 0.19312 0.20373 0.75765 0.0
C511 C 0.1383 0.22831 0.7281 0.0
C512 C 0.11865 0.21927 0.75371 0.0
C513 C 0.13623 0.20192 0.78061 0.0
C514 C 0.17284 0.19408 0.78233 0.0
C515 C 0.08091 0.22909 0.75418 0.0
C516 C 0.07675 0.25408 0.75665 0.0
C517 C 0.04985 0.2141 0.75446 0.0
C518 C 0.05141 0.18771 0.74921 0.0
C519 C 0.04218 0.17198 0.77582 0.0
C520 C 0.0439 0.14712 0.77099 0.0
C521 C 0.05465 0.13776 0.73956 0.0
C522 C 0.06358 0.15324 0.71281 0.0
C523 C 0.06188 0.17811 0.71748 0.0
H524 H 0.05599 0.1185 0.7359 0.0
H525 H 0.03131 0.36064 0.76394 0.0
H526 H 0.06069 0.30946 0.23132 0.0
H527 H 1.00381 0.28609 0.22676 0.0
H528 H 0.06308 0.22137 0.21138 0.0
H529 H 0.12086 0.2449 0.216 0.0
H530 H 0.97613 0.22864 0.16759 0.0
H531 H 0.06739 0.23099 0.29134 0.0
H532 H 0.11097 0.25546 0.33951 0.0
H533 H 0.01775 0.29496 0.36064 0.0
H534 H 0.97379 0.27227 0.30998 0.0
H535 H 0.83048 0.16501 0.22493 0.0
H536 H 0.89418 0.17523 0.22043 0.0
H537 H 0.88376 0.24492 0.26886 0.0
H538 H 0.82059 0.23483 0.27366 0.0
H539 H 0.9524 0.22798 0.29655 0.0
H540 H 0.8663 0.23752 0.17419 0.0
H541 H 0.81813 0.22589 0.11619 0.0
H542 H 0.894 0.17368 0.08964 0.0
H543 H 0.94243 0.18468 0.14801 0.0
C544 C 0.06155 0.29031 0.22619 0.0
C545 C 0.09543 0.27888 0.22494 0.0
C546 C 0.0289 0.27704 0.22327 0.0
C547 C 0.02946 0.25203 0.21929 0.0
C548 C 0.06221 0.24071 0.21444 0.0
C549 C 0.09517 0.25411 0.21726 0.0
C550 C 0.99786 0.23797 0.22667 0.0
C551 C 0.97135 0.22777 0.1959 0.0
C552 C 0.99113 0.23789 0.2635 0.0
C553 C 0.01723 0.25003 0.29641 0.0
C554 C 0.05614 0.24507 0.30588 0.0
C555 C 0.08097 0.25874 0.33351 0.0
C556 C 0.06715 0.27662 0.35336 0.0
C557 C 0.02844 0.28107 0.34528 0.0
C558 C 1.00356 0.26796 0.31679 0.0
C559 C 0.84212 0.1823 0.23539 0.0
C560 C 0.82039 0.19918 0.24946 0.0
C561 C 0.8784 0.18818 0.23249 0.0
C562 C 0.89356 0.21097 0.24382 0.0
C563 C 0.87269 0.22725 0.25987 0.0
C564 C 0.8365 0.22147 0.26253 0.0
C565 C 0.93022 0.21862 0.23738 0.0
C566 C 0.95767 0.22788 0.26841 0.0
C567 C 0.93709 0.21865 0.20056 0.0
C568 C 0.90776 0.2116 0.16589 0.0
C569 C 0.87255 0.22331 0.15631 0.0
C570 C 0.84523 0.21689 0.12329 0.0
C571 C 0.85294 0.19896 0.09937 0.0
C572 C 0.88802 0.18748 0.10833 0.0
C573 C 0.9154 0.19377 0.14141 0.0
H574 H 0.83176 0.19399 0.07386 0.0
H575 H 0.08645 0.28702 0.37501 0.0
H576 H 0.93368 0.375 0.83656 0.0
H577 H 0.98426 0.3819 0.89473 0.0
H578 H 0.90936 0.36121 0.96358 0.0
H579 H 0.85905 0.35532 0.90659 0.0
H580 H 0.94848 0.39694 0.99621 0.0
H581 H 0.98052 0.32071 0.94347 0.0
H582 H 0.99459 0.29627 0.89187 0.0
H583 H 0.08508 0.3438 0.88687 0.0
H584 H 0.07168 0.3684 0.93864 0.0
H585 H 0.06196 0.34927 0.16903 0.0
H586 H 0.01881 0.35556 0.10604 0.0
H587 H 0.10914 0.38589 0.06513 0.0
H588 H 0.15245 0.37984 0.128 0.0
H589 H 0.06858 0.35171 0.0154 0.0
H590 H 0.04329 0.42239 0.07955 0.0
H591 H 0.02834 0.44556 0.13183 0.0
H592 H 0.92311 0.40839 0.11498 0.0
H593 H 0.93761 0.38476 0.06288 0.0
C594 C 0.92795 0.37225 0.86414 0.0
C595 C 0.89218 0.36457 0.86667 0.0
C596 C 0.95699 0.376 0.89742 0.0
C597 C 0.95092 0.37177 0.93378 0.0
C598 C 0.91496 0.36471 0.93611 0.0
C599 C 0.88607 0.36125 0.90319 0.0
C600 C 0.98165 0.37379 0.96974 0.0
C601 C 0.97467 0.38697 1.00036 0.0
C602 C 0.0164 0.3614 0.97515 0.0
C603 C 0.02501 0.34641 0.9447 0.0
C604 C 1.00342 0.32591 0.93133 0.0
C605 C 0.01129 0.31203 0.90211 0.0
C606 C 0.04071 0.31849 0.88612 0.0
C607 C 0.06231 0.33883 0.8993 0.0
C608 C 0.05471 0.35268 0.92868 0.0
C609 C 0.07257 0.35762 0.14686 0.0
C610 C 0.11069 0.36417 0.15381 0.0
C611 C 0.04786 0.36117 0.11078 0.0
C612 C 0.06071 0.37125 0.08081 0.0
C613 C 0.0986 0.37806 0.08775 0.0
C614 C 0.12325 0.37473 0.12388 0.0
C615 C 0.03465 0.37414 0.04211 0.0
C616 C 0.04262 0.36197 0.01106 0.0
C617 C 1.00066 0.38734 0.03634 0.0
C618 C 0.99166 0.40169 0.06744 0.0
C619 C 0.01707 0.41904 0.08714 0.0
C620 C 0.00867 0.43227 0.11673 0.0
C621 C 0.97485 0.42841 0.12677 0.0
C622 C 0.9493 0.41136 0.10717 0.0
C623 C 0.95757 0.39806 0.07756 0.0
H624 H 0.9684 0.43867 0.1497 0.0
H625 H 0.04685 0.3077 0.86363 0.0
H626 H 0.07947 0.65526 0.17231 0.0
H627 H 0.02929 0.65265 0.11297 0.0
H628 H 0.1127 0.64962 0.04803 0.0
H629 H 0.16264 0.65264 0.10677 0.0
H630 H 0.06046 0.68088 0.01656 0.0
H631 H 0.05991 0.59954 0.06144 0.0
H632 H 0.05626 0.56771 0.10774 0.0
H633 H 0.94581 0.59208 0.11027 0.0
H634 H 0.94899 0.62427 0.06435 0.0
H635 H 0.93304 0.65402 0.83698 0.0
H636 H 0.98442 0.64976 0.89519 0.0
H637 H 0.90465 0.6561 0.96379 0.0
H638 H 0.85338 0.66003 0.90625 0.0
H639 H 0.9558 0.62216 0.99238 0.0
H640 H 0.95591 0.70331 0.94813 0.0
H641 H 0.95862 0.73537 0.90193 0.0
H642 H 0.06961 0.71239 0.89916 0.0
H643 H 0.06722 0.67971 0.94459 0.0
C644 C 0.08711 0.65359 0.14544 0.0
C645 C 0.12516 0.65409 0.14445 0.0
C646 C 0.05836 0.65214 0.11145 0.0
C647 C 0.06709 0.65084 0.07581 0.0
C648 C 0.10509 0.65071 0.07498 0.0
C649 C 0.1337 0.65232 0.10876 0.0
C650 C 0.03689 0.65052 0.03923 0.0
C651 C 0.03793 0.66776 0.01107 0.0
C652 C 0.00686 0.63384 0.03222 0.0
C653 C 0.00485 0.61446 0.05973 0.0
C654 C 0.03496 0.59822 0.07209 0.0
C655 C 0.03295 0.58009 0.09823 0.0
C656 C 1.00087 0.57791 0.11201 0.0
C657 C 0.97067 0.59381 0.09961 0.0
C658 C 0.97254 0.61199 0.0735 0.0
C659 C 0.92637 0.65412 0.86443 0.0
C660 C 0.889 0.65741 0.86678 0.0
C661 C 0.95581 0.65185 0.89772 0.0
C662 C 0.94846 0.65287 0.93397 0.0
C663 C 0.91105 0.65523 0.93625 0.0
C664 C 0.88174 0.65754 0.90316 0.0
C665 C 0.97954 0.65239 0.96973 0.0
C666 C 0.97855 0.63511 0.99777 0.0
C667 C 0.00955 0.6691 0.97667 0.0
C668 C 0.01115 0.6888 0.9494 0.0
C669 C 0.98074 0.70488 0.93736 0.0
C670 C 0.98223 0.72318 0.91131 0.0
C671 C 0.01422 0.72583 0.89749 0.0
C672 C 0.04481 0.71021 0.90976 0.0
C673 C 0.04337 0.69178 0.93562 0.0
H674 H 0.01537 0.74004 0.8774 0.0
H675 H 0.99937 0.56386 0.13225 0.0
H676 H 0.65505 0.84539 0.10466 0.0
H677 H 0.60495 0.84995 0.04682 0.0
H678 H 0.53005 0.87536 0.11276 0.0
H679 H 0.58046 0.87022 0.17182 0.0
H680 H 0.49617 0.84245 0.06054 0.0
H681 H 0.56815 0.9142 0.0556 0.0
H682 H 0.62669 0.93652 0.05825 0.0
H683 H 0.64341 0.89617 0.96287 0.0
H684 H 0.5852 0.87342 0.95992 0.0
H685 H 0.35095 0.87054 0.89873 0.0
H686 H 0.40078 0.8744 0.9575 0.0
H687 H 0.4836 0.85541 0.89665 0.0
H688 H 0.43359 0.85246 0.8371 0.0
H689 H 0.51298 0.88719 0.94753 0.0
H690 H 0.44862 0.81346 0.95375 0.0
H691 H 0.39505 0.78646 0.95186 0.0
H692 H 0.36814 0.82579 0.04341 0.0
H693 H 0.42157 0.85304 0.04587 0.0
C694 C 0.62815 0.85226 0.1072 0.0
C695 C 0.62209 0.85764 0.14324 0.0
C696 C 0.59942 0.85496 0.07377 0.0
C697 C 0.56377 0.86346 0.07508 0.0
C698 C 0.55741 0.86894 0.11091 0.0
C699 C 0.5863 0.8661 0.14468 0.0
C700 C 0.533 0.86549 0.03904 0.0
C701 C 0.49952 0.8527 0.03613 0.0
C702 C 0.53787 0.87797 0.00647 0.0
C703 C 0.57237 0.89206 0.00762 0.0
C704 C 0.58437 0.91005 0.03525 0.0
C705 C 0.61749 0.92277 0.03681 0.0
C706 C 0.63876 0.91776 0.01075 0.0
C707 C 0.62686 0.90008 0.98298 0.0
C708 C 0.59378 0.88729 0.98131 0.0
C709 C 0.37984 0.86752 0.89768 0.0
C710 C 0.38824 0.86111 0.86317 0.0
C711 C 0.40837 0.86951 0.93149 0.0
C712 C 0.44607 0.86453 0.93205 0.0
C713 C 0.4548 0.85922 0.89723 0.0
C714 C 0.42619 0.85761 0.8631 0.0
C715 C 0.47595 0.86423 0.96903 0.0
C716 C 0.50934 0.87722 0.97207 0.0
C717 C 0.47138 0.8515 1.00154 0.0
C718 C 0.43886 0.83541 0.99974 0.0
C719 C 0.43109 0.81646 0.97327 0.0
C720 C 0.40082 0.80107 0.97217 0.0
C721 C 0.3782 0.80443 0.99747 0.0
C722 C 0.38574 0.82319 0.02389 0.0
C723 C 0.41605 0.83858 0.02521 0.0
H724 H 0.35499 0.79241 0.99675 0.0
H725 H 0.66444 0.9276 0.01207 0.0
H726 H 0.64989 0.14221 0.11414 0.0
H727 H 0.59893 0.13809 0.05651 0.0
H728 H 0.51731 0.14948 0.12175 0.0
H729 H 0.5687 0.15381 0.18034 0.0
H730 H 0.5061 0.10888 0.0519 0.0
H731 H 0.51804 0.19649 0.08277 0.0
H732 H 0.56038 0.23053 0.10708 0.0
H733 H 0.62164 0.21636 0.02294 0.0
H734 H 0.57937 0.1826 0.99792 0.0
H735 H 0.35738 0.1385 0.88965 0.0
H736 H 0.40057 0.13532 0.95276 0.0
H737 H 0.49183 0.1596 0.90725 0.0
H738 H 0.44821 0.16373 0.84391 0.0
H739 H 0.49546 0.18189 0.9709 0.0
H740 H 0.48141 0.09951 0.93326 0.0
H741 H 0.44663 0.06258 0.90894 0.0
H742 H 0.39778 0.06183 1.00477 0.0
H743 H 0.43175 0.09903 0.02931 0.0
C744 C 0.62113 0.14333 0.11661 0.0
C745 C 0.61339 0.14844 0.15192 0.0
C746 C 0.59203 0.1409 0.08355 0.0
C747 C 0.55444 0.14352 0.08487 0.0
C748 C 0.54623 0.14722 0.12028 0.0
C749 C 0.57556 0.14963 0.1537 0.0
C750 C 0.52482 0.14517 0.0484 0.0
C751 C 0.50294 0.12498 0.03444 0.0
C752 C 0.52196 0.16581 0.02515 0.0
C753 C 0.54555 0.18717 0.03842 0.0
C754 C 0.54038 0.20084 0.06931 0.0
C755 C 0.56435 0.22009 0.08319 0.0
C756 C 0.59364 0.22572 0.06647 0.0
C757 C 0.59879 0.21222 0.03565 0.0
C758 C 0.57471 0.19311 0.02148 0.0
C759 C 0.38676 0.14281 0.89278 0.0
C760 C 0.39933 0.15116 0.86145 0.0
C761 C 0.41151 0.14097 0.92907 0.0
C762 C 0.4497 0.14694 0.93493 0.0
C763 C 0.46253 0.15488 0.90357 0.0
C764 C 0.43762 0.15703 0.86725 0.0
C765 C 0.47588 0.14558 0.97393 0.0
C766 C 0.49762 0.16585 0.98835 0.0
C767 C 0.47885 0.12478 0.99729 0.0
C768 C 0.45885 0.1022 0.98294 0.0
C769 C 0.46306 0.09156 0.94902 0.0
C770 C 0.4435 0.07057 0.9352 0.0
C771 C 0.41995 0.05989 0.95526 0.0
C772 C 0.416 0.07014 0.98924 0.0
C773 C 0.43541 0.09118 1.00313 0.0
H774 H 0.40482 0.04365 0.94451 0.0
H775 H 0.61241 0.24048 0.07744 0.0
H776 H 0.19874 0.61013 0.32383 0.0
H777 H 0.20117 0.5665 0.33602 0.0
H778 H 0.24438 0.55504 0.2374 0.0
H779 H 0.24294 0.59797 0.2255 0.0
H780 H 0.1787 0.52729 0.23907 0.0
H781 H 0.30263 0.54856 0.31664 0.0
H782 H 0.34657 0.57041 0.36847 0.0
H783 H 0.29389 0.53958 0.45042 0.0
H784 H 0.24925 0.51779 0.39893 0.0
H785 H 0.27023 0.40581 0.27755 0.0
H786 H 0.27581 0.44935 0.28774 0.0
H787 H 0.16408 0.45168 0.30526 0.0
H788 H 0.15833 0.40837 0.29576 0.0
H789 H 0.26315 0.48398 0.34784 0.0
H790 H 0.1197 0.49593 0.24116 0.0
H791 H 0.07684 0.47339 0.18921 0.0
H792 H 0.17147 0.43779 0.16371 0.0
H793 H 0.21486 0.46046 0.21494 0.0
C794 C 0.20927 0.59832 0.30512 0.0
C795 C 0.2204 0.60767 0.27355 0.0
C796 C 0.21057 0.57343 0.31208 0.0
C797 C 0.22266 0.55757 0.28736 0.0
C798 C 0.23471 0.56693 0.25664 0.0
C799 C 0.23393 0.59161 0.25 0.0
C800 C 0.22147 0.53109 0.29192 0.0
C801 C 0.19694 0.51788 0.26305 0.0
C802 C 0.24547 0.51877 0.32299 0.0
C803 C 0.27232 0.53179 0.3539 0.0
C804 C 0.30017 0.54663 0.34566 0.0
C805 C 0.32526 0.55896 0.37499 0.0
C806 C 0.32294 0.55645 0.41271 0.0
C807 C 0.2956 0.54154 0.42119 0.0
C808 C 0.27042 0.52919 0.39195 0.0
C809 C 0.24721 0.41547 0.28453 0.0
C810 C 0.21364 0.40356 0.2853 0.0
C811 C 0.25054 0.44034 0.29052 0.0
C812 C 0.22024 0.45371 0.29696 0.0
C813 C 0.18775 0.44167 0.30025 0.0
C814 C 0.18453 0.41687 0.29469 0.0
C815 C 0.22037 0.48034 0.29504 0.0
C816 C 0.24458 0.49349 0.32422 0.0
C817 C 0.1962 0.4927 0.26412 0.0
C818 C 0.17046 0.47968 0.2322 0.0
C819 C 0.13134 0.4834 0.2243 0.0
C820 C 0.10696 0.47059 0.19499 0.0
C821 C 0.12142 0.45409 0.17328 0.0
C822 C 0.1603 0.4505 0.18063 0.0
C823 C 0.18479 0.46332 0.20981 0.0
H824 H 0.10252 0.44413 0.1507 0.0
H825 H 0.3424 0.566 0.43537 0.0
H826 H 0.75096 0.60487 0.77199 0.0
H827 H 0.74895 0.56157 0.76173 0.0
H828 H 0.82858 0.56809 0.693 0.0
H829 H 0.83024 0.61179 0.7026 0.0
H830 H 0.77585 0.5328 0.66518 0.0
H831 H 0.85997 0.55307 0.78449 0.0
H832 H 0.87985 0.57311 0.84706 0.0
H833 H 0.79424 0.53555 0.88535 0.0
H834 H 0.7734 0.51558 0.82275 0.0
H835 H 0.8314 0.40694 0.70123 0.0
H836 H 0.82874 0.45069 0.69157 0.0
H837 H 0.7489 0.45661 0.76022 0.0
H838 H 0.75152 0.4133 0.77009 0.0
H839 H 0.80817 0.48585 0.7857 0.0
H840 H 0.72332 0.46648 0.66367 0.0
H841 H 0.70538 0.4466 0.60085 0.0
H842 H 0.7962 0.48183 0.56803 0.0
H843 H 0.81499 0.50168 0.63089 0.0
C844 C 0.76765 0.59722 0.75417 0.0
C845 C 0.79113 0.61183 0.73853 0.0
C846 C 0.76652 0.57239 0.74839 0.0
C847 C 0.78926 0.56146 0.7273 0.0
C848 C 0.81094 0.57609 0.70955 0.0
C849 C 0.81186 0.60109 0.71509 0.0
C850 C 0.7923 0.53474 0.72658 0.0
C851 C 0.7834 0.52251 0.69149 0.0
C852 C 0.80216 0.52124 0.76088 0.0
C853 C 0.81492 0.53297 0.79879 0.0
C854 C 0.84521 0.5492 0.80616 0.0
C855 C 0.85667 0.56054 0.84164 0.0
C856 C 0.83827 0.55564 0.87013 0.0
C857 C 0.80844 0.53934 0.86323 0.0
C858 C 0.79681 0.52799 0.82776 0.0
C859 C 0.81261 0.41751 0.71347 0.0
C860 C 0.79192 0.40659 0.7367 0.0
C861 C 0.81117 0.44255 0.70799 0.0
C862 C 0.7888 0.45702 0.72541 0.0
C863 C 0.76662 0.44591 0.74677 0.0
C864 C 0.76809 0.42107 0.7523 0.0
C865 C 0.79044 0.48378 0.72435 0.0
C866 C 0.80066 0.49607 0.7593 0.0
C867 C 0.7822 0.49719 0.68994 0.0
C868 C 0.77081 0.48535 0.65213 0.0
C869 C 0.73966 0.46983 0.64318 0.0
C870 C 0.7293 0.4586 0.60754 0.0
C871 C 0.74971 0.46289 0.58051 0.0
C872 C 0.78046 0.47849 0.58902 0.0
C873 C 0.79095 0.48975 0.62463 0.0
H874 H 0.74165 0.45418 0.55293 0.0
H875 H 0.84718 0.56444 0.89758 0.0
H876 H 0.69151 0.90396 0.31307 0.0
H877 H 0.69621 0.94719 0.32559 0.0
H878 H 0.75956 0.95558 0.24125 0.0
H879 H 0.75516 0.91242 0.22863 0.0
H880 H 0.78805 0.98346 0.30427 0.0
H881 H 0.66665 0.96715 0.21864 0.0
H882 H 0.60471 0.94741 0.19874 0.0
H883 H 0.57405 0.97664 0.29635 0.0
H884 H 0.63609 0.99628 0.31714 0.0
H885 H 0.75703 0.10259 0.23874 0.0
H886 H 0.76257 0.05951 0.25 0.0
H887 H 0.69312 0.06512 0.3294 0.0
H888 H 0.68679 0.1086 0.3176 0.0
H889 H 0.66863 0.02994 0.27916 0.0
H890 H 0.78806 0.05082 0.36002 0.0
H891 H 0.8498 0.0709 0.37827 0.0
H892 H 0.8844 0.03356 0.28915 0.0
H893 H 0.82266 0.0135 0.26999 0.0
C894 C 0.7069 0.91492 0.29752 0.0
C895 C 0.72273 0.90465 0.26961 0.0
C896 C 0.70941 0.93969 0.30461 0.0
C897 C 0.72784 0.95473 0.28403 0.0
C898 C 0.74515 0.94438 0.25746 0.0
C899 C 0.7425 0.91966 0.2502 0.0
C900 C 0.72754 0.98134 0.28859 0.0
C901 C 0.76196 0.99365 0.29863 0.0
C902 C 0.69351 0.99464 0.28223 0.0
C903 C 0.65617 0.98293 0.2697 0.0
C904 C 0.64682 0.9692 0.23604 0.0
C905 C 0.61168 0.95806 0.22457 0.0
C906 C 0.5855 0.96071 0.24634 0.0
C907 C 0.59439 0.97456 0.27957 0.0
C908 C 0.62953 0.98571 0.29121 0.0
C909 C 0.74339 0.09482 0.25914 0.0
C910 C 0.72136 0.10914 0.27719 0.0
C911 C 0.74677 0.07009 0.26572 0.0
C912 C 0.72852 0.05895 0.29079 0.0
C913 C 0.70755 0.07328 0.30997 0.0
C914 C 0.70418 0.09817 0.30343 0.0
C915 C 0.72921 0.03221 0.29434 0.0
C916 C 0.69481 0.01982 0.28562 0.0
C917 C 0.76328 0.01885 0.30184 0.0
C918 C 0.8006 0.03075 0.31343 0.0
C919 C 0.80873 0.047 0.34415 0.0
C920 C 0.84375 0.05836 0.35468 0.0
C921 C 0.87098 0.05353 0.33485 0.0
C922 C 0.86328 0.03728 0.30449 0.0
C923 C 0.82829 0.02588 0.29382 0.0
H924 H 0.89807 0.06236 0.34304 0.0
H925 H 0.5583 0.95208 0.23741 0.0
H926 H 0.24444 0.91185 0.76825 0.0
H927 H 0.23995 0.95522 0.75727 0.0
H928 H 0.32325 0.95046 0.69247 0.0
H929 H 0.32768 0.90688 0.70302 0.0
H930 H 0.33976 0.98464 0.75215 0.0
H931 H 0.23581 0.96335 0.64675 0.0
H932 H 0.17594 0.94328 0.61629 0.0
H933 H 0.12025 0.98236 0.68843 0.0
H934 H 0.17993 1.00243 0.71971 0.0
H935 H 0.33627 0.10708 0.7069 0.0
H936 H 0.32973 0.06372 0.69771 0.0
H937 H 0.23649 0.06383 0.74995 0.0
H938 H 0.24241 0.10735 0.7587 0.0
H939 H 0.22457 0.03171 0.69298 0.0
H940 H 0.32411 0.04976 0.80235 0.0
H941 H 0.38246 0.06904 0.83919 0.0
H942 H 0.44467 0.03538 0.76764 0.0
H943 H 0.38655 0.01611 0.73005 0.0
C944 C 0.26134 0.91994 0.75106 0.0
C945 C 0.28647 0.90589 0.73656 0.0
C946 C 0.25866 0.94475 0.74475 0.0
C947 C 0.28124 0.95609 0.72403 0.0
C948 C 0.30554 0.94205 0.7085 0.0
C949 C 0.30786 0.91714 0.71436 0.0
C950 C 0.28143 0.98274 0.72116 0.0
C951 C 0.3148 0.99493 0.73846 0.0
C952 C 0.24843 0.99616 0.70476 0.0
C953 C 0.21244 0.98426 0.68577 0.0
C954 C 0.21087 0.96753 0.65632 0.0
C955 C 0.17695 0.95618 0.63887 0.0
C956 C 0.14433 0.96151 0.65047 0.0
C957 C 0.14555 0.97824 0.67948 0.0
C958 C 0.1794 0.98964 0.69705 0.0
C959 C 0.31391 0.09799 0.71585 0.0
C960 C 0.29017 0.11073 0.73399 0.0
C961 C 0.31032 0.07314 0.71072 0.0
C962 C 0.28319 0.06039 0.72393 0.0
C963 C 0.2578 0.07323 0.73972 0.0
C964 C 0.26123 0.09816 0.74469 0.0
C965 C 0.28304 0.03362 0.72364 0.0
C966 C 0.24969 0.02143 0.70613 0.0
C967 C 0.31585 0.02012 0.74065 0.0
C968 C 0.35089 0.03171 0.7631 0.0
C969 C 0.35017 0.04663 0.79426 0.0
C970 C 0.3832 0.05753 0.81532 0.0
C971 C 0.41722 0.0535 0.80568 0.0
C972 C 0.41828 0.03852 0.77502 0.0
C973 C 0.3853 0.02759 0.75384 0.0
H974 H 0.44277 0.06193 0.82204 0.0
H975 H 0.1181 0.95269 0.63693 0.0
H976 H 0.34236 0.19624 0.63573 0.0
H977 H 0.32434 0.21544 0.5722 0.0
H978 H 0.22812 0.24797 0.60054 0.0
H979 H 0.24611 0.22917 0.66349 0.0
H980 H 0.20922 0.22936 0.52969 0.0
H981 H 0.30312 0.28365 0.60103 0.0
H982 H 0.36441 0.29889 0.63864 0.0
H983 H 0.41817 0.27141 0.55504 0.0
H984 H 0.35709 0.25623 0.51674 0.0
H985 H 0.16329 0.31792 0.3791 0.0
H986 H 0.18057 0.29916 0.443 0.0
H987 H 0.27645 0.26532 0.41591 0.0
H988 H 0.25926 0.2837 0.35267 0.0
H989 H 0.29508 0.28504 0.48641 0.0
H990 H 0.20079 0.22985 0.41595 0.0
H991 H 0.13888 0.21582 0.3779 0.0
H992 H 0.0856 0.2461 0.45991 0.0
H993 H 0.14734 0.25995 0.49877 0.0
C994 C 0.31698 0.20708 0.62789 0.0
C995 C 0.29534 0.21104 0.6542 0.0
C996 C 0.307 0.21831 0.59193 0.0
C997 C 0.27507 0.23337 0.58178 0.0
C998 C 0.25287 0.23652 0.60769 0.0
C999 C 0.26307 0.22567 0.64357 0.0
C1000 C 0.2641 0.24575 0.54414 0.0
C1001 C 0.2279 0.24175 0.52045 0.0
C1002 C 0.28852 0.26163 0.53167 0.0
C1003 C 0.32568 0.26858 0.5563 0.0
C1004 C 0.32811 0.28057 0.59096 0.0
C1005 C 0.36271 0.28944 0.61215 0.0
C1006 C 0.39509 0.28625 0.59909 0.0
C1007 C 0.39303 0.27396 0.56502 0.0
C1008 C 0.35843 0.26528 0.54352 0.0
C1009 C 0.1884 0.30684 0.38725 0.0
C1010 C 0.21016 0.30239 0.36121 0.0
C1011 C 0.19796 0.29588 0.42344 0.0
C1012 C 0.22962 0.28061 0.43406 0.0
C1013 C 0.2519 0.27693 0.40838 0.0
C1014 C 0.24212 0.28752 0.37231 0.0
C1015 C 0.24031 0.26858 0.47197 0.0
C1016 C 0.27644 0.27264 0.49569 0.0
C1017 C 0.21582 0.25281 0.48451 0.0
C1018 C 0.17851 0.24614 0.45996 0.0
C1019 C 0.17579 0.23373 0.42562 0.0
C1020 C 0.14082 0.2256 0.40414 0.0
C1021 C 0.10835 0.23002 0.41654 0.0
C1022 C 0.11077 0.24264 0.4504 0.0
C1023 C 0.14575 0.25054 0.47223 0.0
H1024 H 0.08129 0.22374 0.39984 0.0
H1025 H 0.42184 0.29318 0.61551 0.0
H1026 H 0.84749 0.31114 0.64487 0.0
H1027 H 0.83338 0.29253 0.58128 0.0
H1028 H 0.71989 0.27832 0.58819 0.0
H1029 H 0.73381 0.29651 0.65132 0.0
H1030 H 0.74867 0.23912 0.5662 0.0
H1031 H 0.74094 0.32227 0.52847 0.0
H1032 H 0.76389 0.36381 0.52759 0.0
H1033 H 0.85625 0.33871 0.48514 0.0
H1034 H 0.83412 0.29696 0.48625 0.0
H1035 H 0.66717 0.20387 0.37222 0.0
H1036 H 0.68325 0.22254 0.43563 0.0
H1037 H 0.7946 0.23832 0.42355 0.0
H1038 H 0.77844 0.22029 0.36017 0.0
H1039 H 0.76833 0.27647 0.44857 0.0
H1040 H 0.77611 0.19343 0.48559 0.0
H1041 H 0.75367 0.15179 0.48672 0.0
H1042 H 0.66213 0.17637 0.53091 0.0
H1043 H 0.68375 0.21821 0.52958 0.0
C1044 C 0.81934 0.30448 0.63248 0.0
C1045 C 0.79187 0.30532 0.65337 0.0
C1046 C 0.81128 0.29376 0.59611 0.0
C1047 C 0.77549 0.28387 0.57975 0.0
C1048 C 0.74778 0.28554 0.60011 0.0
C1049 C 0.7558 0.29611 0.63627 0.0
C1050 C 0.76692 0.27094 0.54225 0.0
C1051 C 0.75258 0.24743 0.5404 0.0
C1052 C 0.7728 0.2814 0.50859 0.0
C1053 C 0.7861 0.30647 0.50784 0.0
C1054 C 0.76632 0.32559 0.51924 0.0
C1055 C 0.77914 0.34917 0.51864 0.0
C1056 C 0.81156 0.35389 0.50642 0.0
C1057 C 0.83117 0.33503 0.49466 0.0
C1058 C 0.81849 0.31141 0.49524 0.0
C1059 C 0.69529 0.2109 0.3834 0.0
C1060 C 0.72146 0.21052 0.36099 0.0
C1061 C 0.70451 0.22164 0.41973 0.0
C1062 C 0.74029 0.2319 0.43472 0.0
C1063 C 0.76674 0.23077 0.41278 0.0
C1064 C 0.75748 0.22029 0.37649 0.0
C1065 C 0.74995 0.24463 0.47245 0.0
C1066 C 0.76449 0.26811 0.47437 0.0
C1067 C 0.74435 0.23412 0.50622 0.0
C1068 C 0.73134 0.20898 0.50713 0.0
C1069 C 0.75103 0.18998 0.49528 0.0
C1070 C 0.73849 0.16634 0.496 0.0
C1071 C 0.70643 0.16145 0.50878 0.0
C1072 C 0.68692 0.18019 0.52097 0.0
C1073 C 0.69933 0.20387 0.52027 0.0
H1074 H 0.69677 0.14314 0.50932 0.0
H1075 H 0.82145 0.37215 0.50597 0.0
H1076 H 0.78255 0.79864 0.36541 0.0
H1077 H 0.79559 0.78032 0.42843 0.0
H1078 H 0.68365 0.79841 0.43651 0.0
H1079 H 0.66975 0.8165 0.37231 0.0
H1080 H 0.75063 0.80439 0.50816 0.0
H1081 H 0.68833 0.74781 0.41217 0.0
H1082 H 0.67907 0.7267 0.3507 0.0
H1083 H 0.79006 0.69621 0.38756 0.0
H1084 H 0.80041 0.71773 0.44888 0.0
H1085 H 0.7306 0.72148 0.6473 0.0
H1086 H 0.71886 0.74038 0.58483 0.0
H1087 H 0.83049 0.72091 0.57742 0.0
H1088 H 0.84315 0.70222 0.64113 0.0
H1089 H 0.76443 0.7156 0.50548 0.0
H1090 H 0.82809 0.77164 0.59969 0.0
H1091 H 0.84037 0.7934 0.66082 0.0
H1092 H 0.7297 0.82476 0.62766 0.0
H1093 H 0.71663 0.80286 0.56647 0.0
C1094 C 0.76073 0.79915 0.38068 0.0
C1095 C 0.72485 0.8088 0.3635 0.0
C1096 C 0.76834 0.78864 0.41678 0.0
C1097 C 0.74047 0.78772 0.43684 0.0
C1098 C 0.70551 0.79893 0.42131 0.0
C1099 C 0.69765 0.80933 0.38473 0.0
C1100 C 0.74734 0.77323 0.47236 0.0
C1101 C 0.75306 0.78497 0.50757 0.0
C1102 C 0.75172 0.74793 0.47155 0.0
C1103 C 0.7453 0.73461 0.43497 0.0
C1104 C 0.71092 0.73682 0.40703 0.0
C1105 C 0.70545 0.72475 0.37222 0.0
C1106 C 0.73397 0.71013 0.36522 0.0
C1107 C 0.76801 0.70756 0.39302 0.0
C1108 C 0.77371 0.71971 0.42779 0.0
C1109 C 0.75267 0.72084 0.63236 0.0
C1110 C 0.78807 0.71053 0.64957 0.0
C1111 C 0.74579 0.73168 0.59655 0.0
C1112 C 0.7739 0.73228 0.57676 0.0
C1113 C 0.80844 0.72062 0.59239 0.0
C1114 C 0.81559 0.70989 0.6287 0.0
C1115 C 0.76755 0.74675 0.54125 0.0
C1116 C 0.76193 0.73501 0.50605 0.0
C1117 C 0.76352 0.77206 0.54206 0.0
C1118 C 0.77126 0.78542 0.57866 0.0
C1119 C 0.80627 0.78301 0.60557 0.0
C1120 C 0.8134 0.7954 0.6402 0.0
C1121 C 0.78578 0.81041 0.64817 0.0
C1122 C 0.75104 0.8131 0.62146 0.0
C1123 C 0.74378 0.80072 0.58677 0.0
H1124 H 0.79132 0.81999 0.67501 0.0
H1125 H 0.72966 0.70077 0.33828 0.0
H1126 H 0.33856 0.81409 0.6374 0.0
H1127 H 0.32342 0.7957 0.57361 0.0
H1128 H 0.21109 0.78033 0.58304 0.0
H1129 H 0.22575 0.79863 0.64608 0.0
H1130 H 0.24442 0.74054 0.56362 0.0
H1131 H 0.22441 0.82226 0.52192 0.0
H1132 H 0.24053 0.86498 0.5179 0.0
H1133 H 0.33359 0.84529 0.47238 0.0
H1134 H 0.31834 0.8024 0.47664 0.0
H1135 H 0.16571 0.70297 0.36771 0.0
H1136 H 0.17815 0.72232 0.43075 0.0
H1137 H 0.29217 0.73698 0.42615 0.0
H1138 H 0.28026 0.71769 0.36401 0.0
H1139 H 0.25641 0.77742 0.44267 0.0
H1140 H 0.27698 0.69567 0.48561 0.0
H1141 H 0.26073 0.65297 0.48961 0.0
H1142 H 0.16621 0.67287 0.53271 0.0
H1143 H 0.1816 0.71574 0.52844 0.0
C1144 C 0.31039 0.80734 0.62543 0.0
C1145 C 0.2835 0.8077 0.647 0.0
C1146 C 0.3018 0.79672 0.58906 0.0
C1147 C 0.26618 0.7864 0.57368 0.0
C1148 C 0.23885 0.78789 0.59442 0.0
C1149 C 0.24731 0.79849 0.63047 0.0
C1150 C 0.25772 0.77287 0.53703 0.0
C1151 C 0.24656 0.74872 0.53707 0.0
C1152 C 0.26114 0.78335 0.5025 0.0
C1153 C 0.27049 0.8091 0.50001 0.0
C1154 C 0.24854 0.82702 0.5114 0.0
C1155 C 0.25746 0.85127 0.50901 0.0
C1156 C 0.28813 0.85784 0.49501 0.0
C1157 C 0.30988 0.84017 0.48329 0.0
C1158 C 0.30109 0.81589 0.48566 0.0
C1159 C 0.19365 0.70979 0.38061 0.0
C1160 C 0.22189 0.70887 0.36069 0.0
C1161 C 0.20068 0.72097 0.41651 0.0
C1162 C 0.23603 0.73133 0.43298 0.0
C1163 C 0.2646 0.7294 0.41386 0.0
C1164 C 0.25771 0.71822 0.37833 0.0
C1165 C 0.24324 0.74509 0.46933 0.0
C1166 C 0.25417 0.76928 0.46922 0.0
C1167 C 0.23958 0.73467 0.50378 0.0
C1168 C 0.23017 0.70892 0.50625 0.0
C1169 C 0.2525 0.69095 0.49557 0.0
C1170 C 0.2435 0.66672 0.49797 0.0
C1171 C 0.21238 0.66021 0.51128 0.0
C1172 C 0.19026 0.67794 0.52232 0.0
C1173 C 0.19912 0.70221 0.51994 0.0
H1174 H 0.20548 0.64144 0.51314 0.0
H1175 H 0.29498 0.87663 0.49315 0.0
H1176 H 0.2135 0.33067 0.10739 0.0
H1177 H 0.23245 0.31409 0.05263 0.0
H1178 H 0.24209 0.24355 0.10379 0.0
H1179 H 0.22375 0.25994 0.15882 0.0
H1180 H 0.3029 0.25369 0.07776 0.0
H1181 H 0.16861 0.25608 0.02969 0.0
H1182 H 0.10579 0.27506 0.01655 0.0
H1183 H 0.13984 0.32763 0.94534 0.0
H1184 H 0.20293 0.30902 0.9582 0.0
H1185 H 0.306 0.18536 0.91219 0.0
H1186 H 0.29299 0.20292 0.96925 0.0
H1187 H 0.28594 0.27339 0.91809 0.0
H1188 H 0.29814 0.25598 0.86061 0.0
H1189 H 0.22525 0.26351 0.94471 0.0
H1190 H 0.36078 0.25818 0.99236 0.0
H1191 H 0.4207 0.23577 1.00324 0.0
H1192 H 0.38183 0.18541 0.07441 0.0
H1193 H 0.32156 0.20745 0.06375 0.0
C1194 C 0.21918 0.31158 0.10677 0.0
C1195 C 0.21723 0.29663 0.13747 0.0
C1196 C 0.23009 0.30215 0.07554 0.0
C1197 C 0.23873 0.27762 0.07433 0.0
C1198 C 0.23585 0.26256 0.10443 0.0
C1199 C 0.22511 0.27196 0.13568 0.0
C1200 C 0.25096 0.26763 0.0417 0.0
C1201 C 0.28583 0.25565 0.04868 0.0
C1202 C 0.2288 0.27042 1.00386 0.0
C1203 C 0.19057 0.28129 0.99518 0.0
C1204 C 0.16272 0.27174 0.01132 0.0
C1205 C 0.12705 0.2824 1.00388 0.0
C1206 C 0.11882 0.30255 0.98017 0.0
C1207 C 0.14619 0.31199 0.96364 0.0
C1208 C 0.1819 0.30136 0.97093 0.0
C1209 C 0.30229 0.20464 0.91331 0.0
C1210 C 0.30271 0.21928 0.88179 0.0
C1211 C 0.29494 0.21464 0.94595 0.0
C1212 C 0.28856 0.23943 0.94777 0.0
C1213 C 0.29063 0.2542 0.91705 0.0
C1214 C 0.29769 0.24422 0.88433 0.0
C1215 C 0.27732 0.24979 0.98067 0.0
C1216 C 0.24252 0.26176 0.97375 0.0
C1217 C 0.29937 0.24672 0.01852 0.0
C1218 C 0.33655 0.23438 0.02703 0.0
C1219 C 0.36502 0.24233 0.01033 0.0
C1220 C 0.399 0.22965 0.01637 0.0
C1221 C 0.40494 0.20904 0.0392 0.0
C1222 C 0.37711 0.20129 0.05653 0.0
C1223 C 0.34309 0.21393 0.05065 0.0
H1224 H 0.43123 0.19923 0.04376 0.0
H1225 H 0.09124 0.31081 0.97466 0.0
H1226 H 0.71099 0.26157 0.15473 0.0
H1227 H 0.72366 0.27718 0.09572 0.0
H1228 H 0.70469 0.20663 0.04534 0.0
H1229 H 0.69238 0.19108 0.10394 0.0
H1230 H 0.7735 0.22311 0.04602 0.0
H1231 H 0.64659 0.25269 0.00756 0.0
H1232 H 0.5902 0.27502 0.01351 0.0
H1233 H 0.65245 0.34099 0.02616 0.0
H1234 H 0.70938 0.31888 0.02116 0.0
H1235 H 0.78911 0.25408 0.85675 0.0
H1236 H 0.77364 0.23858 0.91454 0.0
H1237 H 0.78918 0.30943 0.96427 0.0
H1238 H 0.80402 0.32486 0.9069 0.0
H1239 H 0.72177 0.29268 0.96372 0.0
H1240 H 0.84865 0.26374 1.00254 0.0
H1241 H 0.90578 0.24161 0.99839 0.0
H1242 H 0.84457 0.17525 0.98537 0.0
H1243 H 0.78691 0.19704 0.98892 0.0
C1244 C 0.70822 0.24969 0.13051 0.0
C1245 C 0.70115 0.22512 0.13387 0.0
C1246 C 0.71558 0.25856 0.09689 0.0
C1247 C 0.71557 0.24296 0.06633 0.0
C1248 C 0.7053 0.2189 0.0687 0.0
C1249 C 0.69815 0.21007 0.10212 0.0
C1250 C 0.73072 0.25071 0.03401 0.0
C1251 C 0.76181 0.23811 0.0276 0.0
C1252 C 0.71623 0.27071 0.0108 0.0
C1253 C 0.68236 0.28403 0.01471 0.0
C1254 C 0.64836 0.27187 0.0123 0.0
C1255 C 0.61628 0.28451 0.01532 0.0
C1256 C 0.61778 0.30941 0.02039 0.0
C1257 C 0.65136 0.32169 0.02239 0.0
C1258 C 0.68355 0.3091 0.01951 0.0
C1259 C 0.79038 0.26607 0.88058 0.0
C1260 C 0.79751 0.29065 0.87741 0.0
C1261 C 0.78143 0.25727 0.91349 0.0
C1262 C 0.77993 0.27294 0.94357 0.0
C1263 C 0.78979 0.29708 0.94131 0.0
C1264 C 0.79843 0.30584 0.90859 0.0
C1265 C 0.76444 0.26504 0.9756 0.0
C1266 C 0.73337 0.27764 0.98202 0.0
C1267 C 0.77906 0.24512 0.99893 0.0
C1268 C 0.81334 0.23207 0.99549 0.0
C1269 C 0.84724 0.24447 0.99829 0.0
C1270 C 0.87976 0.23198 0.99618 0.0
C1271 C 0.87878 0.20705 0.9915 0.0
C1272 C 0.84526 0.19457 0.98888 0.0
C1273 C 0.81266 0.20698 0.99092 0.0
H1274 H 0.90401 0.19741 0.98999 0.0
H1275 H 0.5929 0.31919 0.02262 0.0
H1276 H 0.84465 0.73321 0.89631 0.0
H1277 H 0.83413 0.74794 0.95684 0.0
H1278 H 0.71436 0.75032 0.90551 0.0
H1279 H 0.72484 0.73543 0.84551 0.0
H1280 H 0.74085 0.78863 0.95705 0.0
H1281 H 0.74906 0.70142 0.94861 0.0
H1282 H 0.78117 0.66373 0.93942 0.0
H1283 H 0.87385 0.68117 0.03452 0.0
H1284 H 0.84249 0.71919 0.0439 0.0
H1285 H 0.66374 0.7856 0.1131 0.0
H1286 H 0.67637 0.77098 0.0536 0.0
H1287 H 0.79215 0.75717 0.11349 0.0
H1288 H 0.77948 0.77166 0.17265 0.0
H1289 H 0.77138 0.72621 0.05844 0.0
H1290 H 0.76451 0.81176 0.07031 0.0
H1291 H 0.73461 0.84992 0.08126 0.0
H1292 H 0.64387 0.83749 0.98192 0.0
H1293 H 0.67296 0.799 0.97068 0.0
C1294 C 0.81633 0.73772 0.89783 0.0
C1295 C 0.78549 0.7334 0.86671 0.0
C1296 C 0.81032 0.74596 0.93225 0.0
C1297 C 0.77344 0.74998 0.93552 0.0
C1298 C 0.74296 0.74739 0.90342 0.0
C1299 C 0.74893 0.7389 0.86931 0.0
C1300 C 0.76583 0.75387 0.97311 0.0
C1301 C 0.74732 0.77499 0.97921 0.0
C1302 C 0.77495 0.73617 1.00208 0.0
C1303 C 0.79361 0.71323 0.99672 0.0
C1304 C 0.7764 0.6973 0.96738 0.0
C1305 C 0.79444 0.67587 0.96216 0.0
C1306 C 0.82951 0.67007 0.98637 0.0
C1307 C 0.84667 0.6857 0.01581 0.0
C1308 C 0.82878 0.70718 0.02109 0.0
C1309 C 0.6914 0.77853 0.11359 0.0
C1310 C 0.72069 0.77954 0.14696 0.0
C1311 C 0.69875 0.77048 0.07969 0.0
C1312 C 0.73559 0.76386 0.07898 0.0
C1313 C 0.76381 0.76267 0.11329 0.0
C1314 C 0.75651 0.77073 0.14705 0.0
C1315 C 0.74588 0.76088 0.04236 0.0
C1316 C 0.76502 0.73996 0.03646 0.0
C1317 C 0.73784 0.77895 0.0138 0.0
C1318 C 0.72077 0.8024 0.01982 0.0
C1319 C 0.73812 0.81711 0.05086 0.0
C1320 C 0.72132 0.8388 0.05712 0.0
C1321 C 0.68736 0.84611 0.0323 0.0
C1322 C 0.67018 0.83179 1.0011 0.0
C1323 C 0.68683 0.81004 0.99475 0.0
H1324 H 0.67437 0.86287 0.03728 0.0
H1325 H 0.84332 0.65341 0.9824 0.0
H1326 H 0.276 0.7038 0.13703 0.0
H1327 H 0.28008 0.72017 0.07623 0.0
H1328 H 0.18414 0.7658 0.07282 0.0
H1329 H 0.18018 0.74972 0.13525 0.0
H1330 H 0.20075 0.72331 1.00493 0.0
H1331 H 0.22901 0.79989 0.07279 0.0
H1332 H 0.2616 0.82529 0.1268 0.0
H1333 H 0.36871 0.80193 0.11237 0.0
H1334 H 0.33674 0.77587 0.05898 0.0
H1335 H 0.22215 0.78609 0.83935 0.0
H1336 H 0.20642 0.76939 0.89556 0.0
H1337 H 0.32469 0.76027 0.95009 0.0
H1338 H 0.34059 0.777 0.89322 0.0
H1339 H 0.28899 0.78796 0.99148 0.0
H1340 H 0.26733 0.7138 0.9253 0.0
H1341 H 0.24086 0.68583 0.87279 0.0
H1342 H 0.12965 0.69909 0.88596 0.0
H1343 H 0.15529 0.72739 0.93835 0.0
C1344 C 0.25586 0.71751 0.12376 0.0
C1345 C 0.2278 0.72559 0.14098 0.0
C1346 C 0.25835 0.72682 0.08904 0.0
C1347 C 0.23272 0.74424 0.07057 0.0
C1348 C 0.20449 0.75254 0.08729 0.0
C1349 C 0.20231 0.74343 0.12275 0.0
C1350 C 0.23547 0.75238 0.03288 0.0
C1351 C 0.21915 0.73787 1.00142 0.0
C1352 C 0.26118 0.77048 0.02946 0.0
C1353 C 0.28043 0.78566 0.06224 0.0
C1354 C 0.25949 0.79983 0.08158 0.0
C1355 C 0.27787 0.81444 0.11197 0.0
C1356 C 0.3172 0.81522 0.12302 0.0
C1357 C 0.33824 0.80135 0.10375 0.0
C1358 C 0.32 0.78661 0.07348 0.0
C1359 C 0.2447 0.77984 0.86298 0.0
C1360 C 0.28252 0.78276 0.86247 0.0
C1361 C 0.23568 0.77037 0.89499 0.0
C1362 C 0.26435 0.76394 0.92704 0.0
C1363 C 0.30223 0.76537 0.92559 0.0
C1364 C 0.31131 0.77467 0.89323 0.0
C1365 C 0.25479 0.75865 0.96331 0.0
C1366 C 0.27008 0.7736 0.9945 0.0
C1367 C 0.22883 0.74054 0.96661 0.0
C1368 C 0.21321 0.72333 0.93518 0.0
C1369 C 0.23715 0.71111 0.91666 0.0
C1370 C 0.22229 0.69507 0.88701 0.0
C1371 C 0.18355 0.69085 0.87584 0.0
C1372 C 0.15961 0.70253 0.89449 0.0
C1373 C 0.17431 0.71859 0.92416 0.0
H1374 H 0.17211 0.67842 0.85289 0.0
H1375 H 0.33137 0.82656 0.14652 0.0
loop_
_geom_bond_atom_site_label_1
_geom_bond_atom_site_label_2
_geom_bond_distance
_geom_bond_site_symmetry_2
_ccdc_geom_bond_type
Fe0 O2 1.918 . S
Fe0 O5 1.997 . S
Fe0 O6 2.002 . S
Fe0 O11 1.976 . S
Fe0 O14 1.996 . S
Fe1 O2 1.918 . S
Fe1 O9 1.997 . S
Fe1 O12 1.996 . S
Fe1 O16 1.976 . S
Fe1 O19 2.002 . S
O2 Fe0 1.918 . S
O2 Fe1 1.918 . S
O2 Fe3 1.918 . S
Fe3 O2 1.918 . S
Fe3 O4 2.002 . S
Fe3 O13 1.976 . S
Fe3 O17 1.996 . S
Fe3 O20 1.997 . S
O4 Fe3 2.002 . S
O4 C21 1.295 . S
O5 Fe0 1.997 . S
O5 C21 1.235 . S
O6 Fe0 2.002 . S
O6 C7 1.295 . S
C7 O6 1.295 . S
C7 O9 1.235 . S
C8 O13 1.287 . S
C8 O14 1.255 . S
O9 Fe1 1.997 . S
O9 C7 1.235 . S
C10 O16 1.287 . S
C10 O17 1.255 . S
O11 Fe0 1.976 . S
O11 C18 1.287 . S
O12 Fe1 1.996 . S
O12 C18 1.255 . S
O13 Fe3 1.976 . S
O13 C8 1.287 . S
O14 Fe0 1.996 . S
O14 C8 1.255 . S
C15 O19 1.295 . S
C15 O20 1.235 . S
O16 Fe1 1.976 . S
O16 C10 1.287 . S
O17 Fe3 1.996 . S
O17 C10 1.255 . S
C18 O11 1.287 . S
C18 O12 1.255 . S
O19 Fe1 2.002 . S
O19 C15 1.295 . S
O20 Fe3 1.997 . S
O20 C15 1.235 . S
C21 O4 1.295 . S
C21 O5 1.235 . S
Fe22 O24 1.918 . S
Fe22 O27 1.997 . S
Fe22 O28 2.002 . S
Fe22 O33 1.976 . S
Fe22 O36 1.996 . S
Fe23 O24 1.918 . S
Fe23 O31 1.997 . S
Fe23 O34 1.996 . S
Fe23 O38 1.976 . S
Fe23 O41 2.002 . S
O24 Fe22 1.918 . S
O24 Fe23 1.918 . S
O24 Fe25 1.918 . S
Fe25 O24 1.918 . S
Fe25 O26 2.002 . S
Fe25 O35 1.976 . S
Fe25 O39 1.996 . S
Fe25 O42 1.997 . S
O26 Fe25 2.002 . S
O26 C43 1.295 . S
O27 Fe22 1.997 . S
O27 C43 1.235 . S
O28 Fe22 2.002 . S
O28 C29 1.295 . S
C29 O28 1.295 . S
C29 O31 1.235 . S
C30 O35 1.287 . S
C30 O36 1.255 . S
O31 Fe23 1.997 . S
O31 C29 1.235 . S
C32 O38 1.287 . S
C32 O39 1.255 . S
O33 Fe22 1.976 . S
O33 C40 1.287 . S
O34 Fe23 1.996 . S
O34 C40 1.255 . S
O35 Fe25 1.976 . S
O35 C30 1.287 . S
O36 Fe22 1.996 . S
O36 C30 1.255 . S
C37 O41 1.295 . S
C37 O42 1.235 . S
O38 Fe23 1.976 . S
O38 C32 1.287 . S
O39 Fe25 1.996 . S
O39 C32 1.255 . S
C40 O33 1.287 . S
C40 O34 1.255 . S
O41 Fe23 2.002 . S
O41 C37 1.295 . S
O42 Fe25 1.997 . S
O42 C37 1.235 . S
C43 O26 1.295 . S
C43 O27 1.235 . S
Fe44 O46 1.918 . S
Fe44 O49 1.997 . S
Fe44 O50 2.002 . S
Fe44 O55 1.976 . S
Fe44 O58 1.996 . S
Fe45 O46 1.918 . S
Fe45 O53 1.997 . S
Fe45 O56 1.996 . S
Fe45 O60 1.976 . S
Fe45 O63 2.002 . S
O46 Fe44 1.918 . S
O46 Fe45 1.918 . S
O46 Fe47 1.918 . S
Fe47 O46 1.918 . S
Fe47 O48 2.002 . S
Fe47 O57 1.976 . S
Fe47 O61 1.996 . S
Fe47 O64 1.997 . S
O48 Fe47 2.002 . S
O48 C65 1.295 . S
O49 Fe44 1.997 . S
O49 C65 1.235 . S
O50 Fe44 2.002 . S
O50 C51 1.295 . S
C51 O50 1.295 . S
C51 O53 1.235 . S
C52 O57 1.287 . S
C52 O58 1.255 . S
O53 Fe45 1.997 . S
O53 C51 1.235 . S
C54 O60 1.287 . S
C54 O61 1.255 . S
O55 Fe44 1.976 . S
O55 C62 1.287 . S
O56 Fe45 1.996 . S
O56 C62 1.255 . S
O57 Fe47 1.976 . S
O57 C52 1.287 . S
O58 Fe44 1.996 . S
O58 C52 1.255 . S
C59 O63 1.295 . S
C59 O64 1.235 . S
O60 Fe45 1.976 . S
O60 C54 1.287 . S
O61 Fe47 1.996 . S
O61 C54 1.255 . S
C62 O55 1.287 . S
C62 O56 1.255 . S
O63 Fe45 2.002 . S
O63 C59 1.295 . S
O64 Fe47 1.997 . S
O64 C59 1.235 . S
C65 O48 1.295 . S
C65 O49 1.235 . S
Fe66 O68 1.918 . S
Fe66 O71 1.997 . S
Fe66 O72 2.002 . S
Fe66 O77 1.976 . S
Fe66 O80 1.996 . S
Fe67 O68 1.918 . S
Fe67 O75 1.997 . S
Fe67 O78 1.996 . S
Fe67 O82 1.976 . S
Fe67 O85 2.002 . S
O68 Fe66 1.918 . S
O68 Fe67 1.918 . S
O68 Fe69 1.918 . S
Fe69 O68 1.918 . S
Fe69 O70 2.002 . S
Fe69 O79 1.976 . S
Fe69 O83 1.996 . S
Fe69 O86 1.997 . S
O70 Fe69 2.002 . S
O70 C87 1.295 . S
O71 Fe66 1.997 . S
O71 C87 1.235 . S
O72 Fe66 2.002 . S
O72 C73 1.295 . S
C73 O72 1.295 . S
C73 O75 1.235 . S
C74 O79 1.287 . S
C74 O80 1.255 . S
O75 Fe67 1.997 . S
O75 C73 1.235 . S
C76 O82 1.287 . S
C76 O83 1.255 . S
O77 Fe66 1.976 . S
O77 C84 1.287 . S
O78 Fe67 1.996 . S
O78 C84 1.255 . S
O79 Fe69 1.976 . S
O79 C74 1.287 . S
O80 Fe66 1.996 . S
O80 C74 1.255 . S
C81 O85 1.295 . S
C81 O86 1.235 . S
O82 Fe67 1.976 . S
O82 C76 1.287 . S
O83 Fe69 1.996 . S
O83 C76 1.255 . S
C84 O77 1.287 . S
C84 O78 1.255 . S
O85 Fe67 2.002 . S
O85 C81 1.295 . S
O86 Fe69 1.997 . S
O86 C81 1.235 . S
C87 O70 1.295 . S
C87 O71 1.235 . S
Fe88 O90 1.918 . S
Fe88 O93 1.997 . S
Fe88 O94 2.002 . S
Fe88 O99 1.976 . S
Fe88 O102 1.996 . S
Fe89 O90 1.918 . S
Fe89 O97 1.997 . S
Fe89 O100 1.996 . S
Fe89 O104 1.976 . S
Fe89 O107 2.002 . S
O90 Fe88 1.918 . S
O90 Fe89 1.918 . S
O90 Fe91 1.918 . S
Fe91 O90 1.918 . S
Fe91 O92 2.002 . S
Fe91 O101 1.976 . S
Fe91 O105 1.996 . S
Fe91 O108 1.997 . S
O92 Fe91 2.002 . S
O92 C109 1.295 . S
O93 Fe88 1.997 . S
O93 C109 1.235 . S
O94 Fe88 2.002 . S
O94 C95 1.295 . S
C95 O94 1.295 . S
C95 O97 1.235 . S
C96 O101 1.287 . S
C96 O102 1.255 . S
O97 Fe89 1.997 . S
O97 C95 1.235 . S
C98 O104 1.287 . S
C98 O105 1.255 . S
O99 Fe88 1.976 . S
O99 C106 1.287 . S
O100 Fe89 1.996 . S
O100 C106 1.255 . S
O101 Fe91 1.976 . S
O101 C96 1.287 . S
O102 Fe88 1.996 . S
O102 C96 1.255 . S
C103 O107 1.295 . S
C103 O108 1.235 . S
O104 Fe89 1.976 . S
O104 C98 1.287 . S
O105 Fe91 1.996 . S
O105 C98 1.255 . S
C106 O99 1.287 . S
C106 O100 1.255 . S
O107 Fe89 2.002 . S
O107 C103 1.295 . S
O108 Fe91 1.997 . S
O108 C103 1.235 . S
C109 O92 1.295 . S
C109 O93 1.235 . S
Fe110 O112 1.918 . S
Fe110 O115 1.997 . S
Fe110 O116 2.002 . S
Fe110 O121 1.976 . S
Fe110 O124 1.996 . S
Fe111 O112 1.918 . S
Fe111 O119 1.997 . S
Fe111 O122 1.996 . S
Fe111 O126 1.976 . S
Fe111 O129 2.002 . S
O112 Fe110 1.918 . S
O112 Fe111 1.918 . S
O112 Fe113 1.918 . S
Fe113 O112 1.918 . S
Fe113 O114 2.002 . S
Fe113 O123 1.976 . S
Fe113 O127 1.996 . S
Fe113 O130 1.997 . S
O114 Fe113 2.002 . S
O114 C131 1.295 . S
O115 Fe110 1.997 . S
O115 C131 1.235 . S
O116 Fe110 2.002 . S
O116 C117 1.295 . S
C117 O116 1.295 . S
C117 O119 1.235 . S
C118 O123 1.287 . S
C118 O124 1.255 . S
O119 Fe111 1.997 . S
O119 C117 1.235 . S
C120 O126 1.287 . S
C120 O127 1.255 . S
O121 Fe110 1.976 . S
O121 C128 1.287 . S
O122 Fe111 1.996 . S
O122 C128 1.255 . S
O123 Fe113 1.976 . S
O123 C118 1.287 . S
O124 Fe110 1.996 . S
O124 C118 1.255 . S
C125 O129 1.295 . S
C125 O130 1.235 . S
O126 Fe111 1.976 . S
O126 C120 1.287 . S
O127 Fe113 1.996 . S
O127 C120 1.255 . S
C128 O121 1.287 . S
C128 O122 1.255 . S
O129 Fe111 2.002 . S
O129 C125 1.295 . S
O130 Fe113 1.997 . S
O130 C125 1.235 . S
C131 O114 1.295 . S
C131 O115 1.235 . S
Fe132 O134 1.918 . S
Fe132 O137 1.997 . S
Fe132 O138 2.002 . S
Fe132 O143 1.976 . S
Fe132 O146 1.996 . S
Fe133 O134 1.918 . S
Fe133 O141 1.997 . S
Fe133 O144 1.996 . S
Fe133 O148 1.976 . S
Fe133 O151 2.002 . S
O134 Fe132 1.918 . S
O134 Fe133 1.918 . S
O134 Fe135 1.918 . S
Fe135 O134 1.918 . S
Fe135 O136 2.002 . S
Fe135 O145 1.976 . S
Fe135 O149 1.996 . S
Fe135 O152 1.997 . S
O136 Fe135 2.002 . S
O136 C153 1.295 . S
O137 Fe132 1.997 . S
O137 C153 1.235 . S
O138 Fe132 2.002 . S
O138 C139 1.295 . S
C139 O138 1.295 . S
C139 O141 1.235 . S
C140 O145 1.287 . S
C140 O146 1.255 . S
O141 Fe133 1.997 . S
O141 C139 1.235 . S
C142 O148 1.287 . S
C142 O149 1.255 . S
O143 Fe132 1.976 . S
O143 C150 1.287 . S
O144 Fe133 1.996 . S
O144 C150 1.255 . S
O145 Fe135 1.976 . S
O145 C140 1.287 . S
O146 Fe132 1.996 . S
O146 C140 1.255 . S
C147 O151 1.295 . S
C147 O152 1.235 . S
O148 Fe133 1.976 . S
O148 C142 1.287 . S
O149 Fe135 1.996 . S
O149 C142 1.255 . S
C150 O143 1.287 . S
C150 O144 1.255 . S
O151 Fe133 2.002 . S
O151 C147 1.295 . S
O152 Fe135 1.997 . S
O152 C147 1.235 . S
C153 O136 1.295 . S
C153 O137 1.235 . S
Fe154 O156 1.918 . S
Fe154 O159 1.997 . S
Fe154 O160 2.002 . S
Fe154 O165 1.976 . S
Fe154 O168 1.996 . S
Fe155 O156 1.918 . S
Fe155 O163 1.997 . S
Fe155 O166 1.996 . S
Fe155 O170 1.976 . S
Fe155 O173 2.002 . S
O156 Fe154 1.918 . S
O156 Fe155 1.918 . S
O156 Fe157 1.918 . S
Fe157 O156 1.918 . S
Fe157 O158 2.002 . S
Fe157 O167 1.976 . S
Fe157 O171 1.996 . S
Fe157 O174 1.997 . S
O158 Fe157 2.002 . S
O158 C175 1.295 . S
O159 Fe154 1.997 . S
O159 C175 1.235 . S
O160 Fe154 2.002 . S
O160 C161 1.295 . S
C161 O160 1.295 . S
C161 O163 1.235 . S
C162 O167 1.287 . S
C162 O168 1.255 . S
O163 Fe155 1.997 . S
O163 C161 1.235 . S
C164 O170 1.287 . S
C164 O171 1.255 . S
O165 Fe154 1.976 . S
O165 C172 1.287 . S
O166 Fe155 1.996 . S
O166 C172 1.255 . S
O167 Fe157 1.976 . S
O167 C162 1.287 . S
O168 Fe154 1.996 . S
O168 C162 1.255 . S
C169 O173 1.295 . S
C169 O174 1.235 . S
O170 Fe155 1.976 . S
O170 C164 1.287 . S
O171 Fe157 1.996 . S
O171 C164 1.255 . S
C172 O165 1.287 . S
C172 O166 1.255 . S
O173 Fe155 2.002 . S
O173 C169 1.295 . S
O174 Fe157 1.997 . S
O174 C169 1.235 . S
C175 O158 1.295 . S
C175 O159 1.235 . S
H176 C194 0.951 . S
H177 C196 0.951 . S
H178 C198 0.950 . S
H179 C199 0.950 . S
H180 C201 0.950 . S
H181 C204 0.950 . S
H182 C205 0.950 . S
H183 C207 0.950 . S
H184 C208 0.950 . S
H185 C209 0.951 . S
H186 C211 0.951 . S
H187 C213 0.950 . S
H188 C214 0.950 . S
H189 C216 0.950 . S
H190 C219 0.950 . S
H191 C220 0.950 . S
H192 C222 0.950 . S
H193 C223 0.950 . S
C194 H176 0.951 . S
C194 C195 1.366 . S
C194 C196 1.388 . S
C195 C194 1.366 . S
C195 C199 1.385 . S
C196 H177 0.951 . S
C196 C194 1.388 . S
C196 C197 1.366 . S
C197 C196 1.366 . S
C197 C198 1.414 . S
C197 C200 1.499 . S
C198 H178 0.950 . S
C198 C197 1.414 . S
C198 C199 1.374 . S
C199 H179 0.950 . S
C199 C195 1.385 . S
C199 C198 1.374 . S
C200 C197 1.499 . S
C200 C201 1.373 . S
C200 C202 1.389 . S
C201 H180 0.950 . S
C201 C200 1.373 . S
C201 C217 1.377 . S
C202 C200 1.389 . S
C202 C203 1.524 . S
C202 C216 1.377 . S
C203 C202 1.524 . S
C203 C204 1.397 . S
C203 C208 1.363 . S
C204 H181 0.950 . S
C204 C203 1.397 . S
C204 C205 1.334 . S
C205 H182 0.950 . S
C205 C204 1.334 . S
C205 C206 1.287 . S
C206 C205 1.287 . S
C206 C207 1.524 . S
C206 H225 0.913 . S
C207 H183 0.950 . S
C207 C206 1.524 . S
C207 C208 1.415 . S
C208 H184 0.950 . S
C208 C203 1.363 . S
C208 C207 1.415 . S
C209 H185 0.951 . S
C209 C210 1.366 . S
C209 C211 1.388 . S
C210 C209 1.366 . S
C210 C214 1.385 . S
C211 H186 0.951 . S
C211 C209 1.388 . S
C211 C212 1.366 . S
C212 C211 1.366 . S
C212 C213 1.414 . S
C212 C215 1.499 . S
C213 H187 0.950 . S
C213 C212 1.414 . S
C213 C214 1.374 . S
C214 H188 0.950 . S
C214 C210 1.385 . S
C214 C213 1.374 . S
C215 C212 1.499 . S
C215 C216 1.373 . S
C215 C217 1.389 . S
C216 H189 0.950 . S
C216 C202 1.377 . S
C216 C215 1.373 . S
C217 C201 1.377 . S
C217 C215 1.389 . S
C217 C218 1.524 . S
C218 C217 1.524 . S
C218 C219 1.397 . S
C218 C223 1.363 . S
C219 H190 0.950 . S
C219 C218 1.397 . S
C219 C220 1.334 . S
C220 H191 0.950 . S
C220 C219 1.334 . S
C220 C221 1.287 . S
C221 C220 1.287 . S
C221 C222 1.524 . S
C221 H224 0.999 . S
C222 H192 0.950 . S
C222 C221 1.524 . S
C222 C223 1.415 . S
C223 H193 0.950 . S
C223 C218 1.363 . S
C223 C222 1.415 . S
H224 C221 0.999 . S
H225 C206 0.913 . S
H226 C244 0.951 . S
H227 C246 0.951 . S
H228 C248 0.950 . S
H229 C249 0.950 . S
H230 C251 0.950 . S
H231 C254 0.950 . S
H232 C255 0.950 . S
H233 C257 0.950 . S
H234 C258 0.950 . S
H235 C259 0.951 . S
H236 C261 0.951 . S
H237 C263 0.950 . S
H238 C264 0.950 . S
H239 C266 0.950 . S
H240 C269 0.950 . S
H241 C270 0.950 . S
H242 C272 0.950 . S
H243 C273 0.950 . S
C244 H226 0.951 . S
C244 C245 1.366 . S
C244 C246 1.388 . S
C245 C244 1.366 . S
C245 C249 1.385 . S
C246 H227 0.951 . S
C246 C244 1.388 . S
C246 C247 1.366 . S
C247 C246 1.366 . S
C247 C248 1.414 . S
C247 C250 1.499 . S
C248 H228 0.950 . S
C248 C247 1.414 . S
C248 C249 1.374 . S
C249 H229 0.950 . S
C249 C245 1.385 . S
C249 C248 1.374 . S
C250 C247 1.499 . S
C250 C251 1.373 . S
C250 C252 1.389 . S
C251 H230 0.950 . S
C251 C250 1.373 . S
C251 C267 1.377 . S
C252 C250 1.389 . S
C252 C253 1.524 . S
C252 C266 1.377 . S
C253 C252 1.524 . S
C253 C254 1.397 . S
C253 C258 1.363 . S
C254 H231 0.950 . S
C254 C253 1.397 . S
C254 C255 1.334 . S
C255 H232 0.950 . S
C255 C254 1.334 . S
C255 C256 1.287 . S
C256 C255 1.287 . S
C256 C257 1.524 . S
C256 H275 0.913 . S
C257 H233 0.950 . S
C257 C256 1.524 . S
C257 C258 1.415 . S
C258 H234 0.950 . S
C258 C253 1.363 . S
C258 C257 1.415 . S
C259 H235 0.951 . S
C259 C260 1.366 . S
C259 C261 1.388 . S
C260 C259 1.366 . S
C260 C264 1.385 . S
C261 H236 0.951 . S
C261 C259 1.388 . S
C261 C262 1.366 . S
C262 C261 1.366 . S
C262 C263 1.414 . S
C262 C265 1.499 . S
C263 H237 0.950 . S
C263 C262 1.414 . S
C263 C264 1.374 . S
C264 H238 0.950 . S
C264 C260 1.385 . S
C264 C263 1.374 . S
C265 C262 1.499 . S
C265 C266 1.373 . S
C265 C267 1.389 . S
C266 H239 0.950 . S
C266 C252 1.377 . S
C266 C265 1.373 . S
C267 C251 1.377 . S
C267 C265 1.389 . S
C267 C268 1.524 . S
C268 C267 1.524 . S
C268 C269 1.397 . S
C268 C273 1.363 . S
C269 H240 0.950 . S
C269 C268 1.397 . S
C269 C270 1.334 . S
C270 H241 0.950 . S
C270 C269 1.334 . S
C270 C271 1.287 . S
C271 C270 1.287 . S
C271 C272 1.524 . S
C271 H274 0.999 . S
C272 H242 0.950 . S
C272 C271 1.524 . S
C272 C273 1.415 . S
C273 H243 0.950 . S
C273 C268 1.363 . S
C273 C272 1.415 . S
H274 C271 0.999 . S
H275 C256 0.913 . S
H276 C294 0.951 . S
H277 C296 0.951 . S
H278 C298 0.950 . S
H279 C299 0.950 . S
H280 C301 0.950 . S
H281 C304 0.950 . S
H282 C305 0.950 . S
H283 C307 0.950 . S
H284 C308 0.950 . S
H285 C309 0.951 . S
H286 C311 0.951 . S
H287 C313 0.950 . S
H288 C314 0.950 . S
H289 C316 0.950 . S
H290 C319 0.950 . S
H291 C320 0.950 . S
H292 C322 0.950 . S
H293 C323 0.950 . S
C294 H276 0.951 . S
C294 C295 1.366 . S
C294 C296 1.388 . S
C295 C294 1.366 . S
C295 C299 1.385 . S
C296 H277 0.951 . S
C296 C294 1.388 . S
C296 C297 1.366 . S
C297 C296 1.366 . S
C297 C298 1.414 . S
C297 C300 1.499 . S
C298 H278 0.950 . S
C298 C297 1.414 . S
C298 C299 1.374 . S
C299 H279 0.950 . S
C299 C295 1.385 . S
C299 C298 1.374 . S
C300 C297 1.499 . S
C300 C301 1.373 . S
C300 C302 1.389 . S
C301 H280 0.950 . S
C301 C300 1.373 . S
C301 C317 1.377 . S
C302 C300 1.389 . S
C302 C303 1.524 . S
C302 C316 1.377 . S
C303 C302 1.524 . S
C303 C304 1.397 . S
C303 C308 1.363 . S
C304 H281 0.950 . S
C304 C303 1.397 . S
C304 C305 1.334 . S
C305 H282 0.950 . S
C305 C304 1.334 . S
C305 C306 1.287 . S
C306 C305 1.287 . S
C306 C307 1.524 . S
C306 H325 0.913 . S
C307 H283 0.950 . S
C307 C306 1.524 . S
C307 C308 1.415 . S
C308 H284 0.950 . S
C308 C303 1.363 . S
C308 C307 1.415 . S
C309 H285 0.951 . S
C309 C310 1.366 . S
C309 C311 1.388 . S
C310 C309 1.366 . S
C310 C314 1.385 . S
C311 H286 0.951 . S
C311 C309 1.388 . S
C311 C312 1.366 . S
C312 C311 1.366 . S
C312 C313 1.414 . S
C312 C315 1.499 . S
C313 H287 0.950 . S
C313 C312 1.414 . S
C313 C314 1.374 . S
C314 H288 0.950 . S
C314 C310 1.385 . S
C314 C313 1.374 . S
C315 C312 1.499 . S
C315 C316 1.373 . S
C315 C317 1.389 . S
C316 H289 0.950 . S
C316 C302 1.377 . S
C316 C315 1.373 . S
C317 C301 1.377 . S
C317 C315 1.389 . S
C317 C318 1.524 . S
C318 C317 1.524 . S
C318 C319 1.397 . S
C318 C323 1.363 . S
C319 H290 0.950 . S
C319 C318 1.397 . S
C319 C320 1.334 . S
C320 H291 0.950 . S
C320 C319 1.334 . S
C320 C321 1.287 . S
C321 C320 1.287 . S
C321 C322 1.524 . S
C321 H324 0.999 . S
C322 H292 0.950 . S
C322 C321 1.524 . S
C322 C323 1.415 . S
C323 H293 0.950 . S
C323 C318 1.363 . S
C323 C322 1.415 . S
H324 C321 0.999 . S
H325 C306 0.913 . S
H326 C344 0.951 . S
H327 C346 0.951 . S
H328 C348 0.950 . S
H329 C349 0.950 . S
H330 C351 0.950 . S
H331 C354 0.950 . S
H332 C355 0.950 . S
H333 C357 0.950 . S
H334 C358 0.950 . S
H335 C359 0.951 . S
H336 C361 0.951 . S
H337 C363 0.950 . S
H338 C364 0.950 . S
H339 C366 0.950 . S
H340 C369 0.950 . S
H341 C370 0.950 . S
H342 C372 0.950 . S
H343 C373 0.950 . S
C344 H326 0.951 . S
C344 C345 1.366 . S
C344 C346 1.388 . S
C345 C344 1.366 . S
C345 C349 1.385 . S
C346 H327 0.951 . S
C346 C344 1.388 . S
C346 C347 1.366 . S
C347 C346 1.366 . S
C347 C348 1.414 . S
C347 C350 1.499 . S
C348 H328 0.950 . S
C348 C347 1.414 . S
C348 C349 1.374 . S
C349 H329 0.950 . S
C349 C345 1.385 . S
C349 C348 1.374 . S
C350 C347 1.499 . S
C350 C351 1.373 . S
C350 C352 1.389 . S
C351 H330 0.950 . S
C351 C350 1.373 . S
C351 C367 1.377 . S
C352 C350 1.389 . S
C352 C353 1.524 . S
C352 C366 1.377 . S
C353 C352 1.524 . S
C353 C354 1.397 . S
C353 C358 1.363 . S
C354 H331 0.950 . S
C354 C353 1.397 . S
C354 C355 1.334 . S
C355 H332 0.950 . S
C355 C354 1.334 . S
C355 C356 1.287 . S
C356 C355 1.287 . S
C356 C357 1.524 . S
C356 H375 0.913 . S
C357 H333 0.950 . S
C357 C356 1.524 . S
C357 C358 1.415 . S
C358 H334 0.950 . S
C358 C353 1.363 . S
C358 C357 1.415 . S
C359 H335 0.951 . S
C359 C360 1.366 . S
C359 C361 1.388 . S
C360 C359 1.366 . S
C360 C364 1.385 . S
C361 H336 0.951 . S
C361 C359 1.388 . S
C361 C362 1.366 . S
C362 C361 1.366 . S
C362 C363 1.414 . S
C362 C365 1.499 . S
C363 H337 0.950 . S
C363 C362 1.414 . S
C363 C364 1.374 . S
C364 H338 0.950 . S
C364 C360 1.385 . S
C364 C363 1.374 . S
C365 C362 1.499 . S
C365 C366 1.373 . S
C365 C367 1.389 . S
C366 H339 0.950 . S
C366 C352 1.377 . S
C366 C365 1.373 . S
C367 C351 1.377 . S
C367 C365 1.389 . S
C367 C368 1.524 . S
C368 C367 1.524 . S
C368 C369 1.397 . S
C368 C373 1.363 . S
C369 H340 0.950 . S
C369 C368 1.397 . S
C369 C370 1.334 . S
C370 H341 0.950 . S
C370 C369 1.334 . S
C370 C371 1.287 . S
C371 C370 1.287 . S
C371 C372 1.524 . S
C371 H374 0.999 . S
C372 H342 0.950 . S
C372 C371 1.524 . S
C372 C373 1.415 . S
C373 H343 0.950 . S
C373 C368 1.363 . S
C373 C372 1.415 . S
H374 C371 0.999 . S
H375 C356 0.913 . S
H376 C394 0.951 . S
H377 C396 0.951 . S
H378 C398 0.950 . S
H379 C399 0.950 . S
H380 C401 0.950 . S
H381 C404 0.950 . S
H382 C405 0.950 . S
H383 C407 0.950 . S
H384 C408 0.950 . S
H385 C409 0.951 . S
H386 C411 0.951 . S
H387 C413 0.950 . S
H388 C414 0.950 . S
H389 C416 0.950 . S
H390 C419 0.950 . S
H391 C420 0.950 . S
H392 C422 0.950 . S
H393 C423 0.950 . S
C394 H376 0.951 . S
C394 C395 1.366 . S
C394 C396 1.388 . S
C395 C394 1.366 . S
C395 C399 1.385 . S
C396 H377 0.951 . S
C396 C394 1.388 . S
C396 C397 1.366 . S
C397 C396 1.366 . S
C397 C398 1.414 . S
C397 C400 1.499 . S
C398 H378 0.950 . S
C398 C397 1.414 . S
C398 C399 1.374 . S
C399 H379 0.950 . S
C399 C395 1.385 . S
C399 C398 1.374 . S
C400 C397 1.499 . S
C400 C401 1.373 1_455 S
C400 C402 1.389 . S
C401 H380 0.950 . S
C401 C400 1.373 1_655 S
C401 C417 1.377 . S
C402 C400 1.389 . S
C402 C403 1.524 . S
C402 C416 1.377 1_455 S
C403 C402 1.524 . S
C403 C404 1.397 . S
C403 C408 1.363 . S
C404 H381 0.950 . S
C404 C403 1.397 . S
C404 C405 1.334 . S
C405 H382 0.950 . S
C405 C404 1.334 . S
C405 C406 1.287 . S
C406 C405 1.287 . S
C406 C407 1.524 . S
C406 H425 0.913 . S
C407 H383 0.950 . S
C407 C406 1.524 . S
C407 C408 1.415 . S
C408 H384 0.950 . S
C408 C403 1.363 . S
C408 C407 1.415 . S
C409 H385 0.951 . S
C409 C410 1.366 . S
C409 C411 1.388 . S
C410 C409 1.366 . S
C410 C414 1.385 . S
C411 H386 0.951 . S
C411 C409 1.388 . S
C411 C412 1.366 . S
C412 C411 1.366 . S
C412 C413 1.414 . S
C412 C415 1.499 . S
C413 H387 0.950 . S
C413 C412 1.414 . S
C413 C414 1.374 . S
C414 H388 0.950 . S
C414 C410 1.385 . S
C414 C413 1.374 . S
C415 C412 1.499 . S
C415 C416 1.373 . S
C415 C417 1.389 . S
C416 H389 0.950 . S
C416 C402 1.377 1_655 S
C416 C415 1.373 . S
C417 C401 1.377 . S
C417 C415 1.389 . S
C417 C418 1.524 . S
C418 C417 1.524 . S
C418 C419 1.397 . S
C418 C423 1.363 . S
C419 H390 0.950 . S
C419 C418 1.397 . S
C419 C420 1.334 . S
C420 H391 0.950 . S
C420 C419 1.334 . S
C420 C421 1.287 . S
C421 C420 1.287 . S
C421 C422 1.524 . S
C421 H424 0.999 . S
C422 H392 0.950 . S
C422 C421 1.524 . S
C422 C423 1.415 . S
C423 H393 0.950 . S
C423 C418 1.363 . S
C423 C422 1.415 . S
H424 C421 0.999 . S
H425 C406 0.913 . S
H426 C444 0.951 . S
H427 C446 0.951 . S
H428 C448 0.950 . S
H429 C449 0.950 . S
H430 C451 0.950 . S
H431 C454 0.950 . S
H432 C455 0.950 . S
H433 C457 0.950 . S
H434 C458 0.950 . S
H435 C459 0.951 . S
H436 C461 0.951 . S
H437 C463 0.950 . S
H438 C464 0.950 . S
H439 C466 0.950 . S
H440 C469 0.950 . S
H441 C470 0.950 . S
H442 C472 0.950 . S
H443 C473 0.950 . S
C444 H426 0.951 . S
C444 C445 1.366 . S
C444 C446 1.388 . S
C445 C444 1.366 . S
C445 C449 1.385 . S
C446 H427 0.951 . S
C446 C444 1.388 . S
C446 C447 1.366 . S
C447 C446 1.366 . S
C447 C448 1.414 . S
C447 C450 1.499 . S
C448 H428 0.950 . S
C448 C447 1.414 . S
C448 C449 1.374 . S
C449 H429 0.950 . S
C449 C445 1.385 . S
C449 C448 1.374 . S
C450 C447 1.499 . S
C450 C451 1.373 1_655 S
C450 C452 1.389 . S
C451 H430 0.950 . S
C451 C450 1.373 1_455 S
C451 C467 1.377 . S
C452 C450 1.389 . S
C452 C453 1.524 . S
C452 C466 1.377 1_655 S
C453 C452 1.524 . S
C453 C454 1.397 . S
C453 C458 1.363 . S
C454 H431 0.950 . S
C454 C453 1.397 . S
C454 C455 1.334 . S
C455 H432 0.950 . S
C455 C454 1.334 . S
C455 C456 1.287 . S
C456 C455 1.287 . S
C456 C457 1.524 . S
C456 H475 0.913 . S
C457 H433 0.950 . S
C457 C456 1.524 . S
C457 C458 1.415 . S
C458 H434 0.950 . S
C458 C453 1.363 . S
C458 C457 1.415 . S
C459 H435 0.951 . S
C459 C460 1.366 . S
C459 C461 1.388 . S
C460 C459 1.366 . S
C460 C464 1.385 . S
C461 H436 0.951 . S
C461 C459 1.388 . S
C461 C462 1.366 . S
C462 C461 1.366 . S
C462 C463 1.414 . S
C462 C465 1.499 . S
C463 H437 0.950 . S
C463 C462 1.414 . S
C463 C464 1.374 . S
C464 H438 0.950 . S
C464 C460 1.385 . S
C464 C463 1.374 . S
C465 C462 1.499 . S
C465 C466 1.373 . S
C465 C467 1.389 . S
C466 H439 0.950 . S
C466 C452 1.377 1_455 S
C466 C465 1.373 . S
C467 C451 1.377 . S
C467 C465 1.389 . S
C467 C468 1.524 . S
C468 C467 1.524 . S
C468 C469 1.397 . S
C468 C473 1.363 . S
C469 H440 0.950 . S
C469 C468 1.397 . S
C469 C470 1.334 . S
C470 H441 0.950 . S
C470 C469 1.334 . S
C470 C471 1.287 . S
C471 C470 1.287 . S
C471 C472 1.524 . S
C471 H474 0.999 . S
C472 H442 0.950 . S
C472 C471 1.524 . S
C472 C473 1.415 . S
C473 H443 0.950 . S
C473 C468 1.363 . S
C473 C472 1.415 . S
H474 C471 0.999 . S
H475 C456 0.913 . S
H476 C494 0.951 . S
H477 C496 0.951 . S
H478 C498 0.950 . S
H479 C499 0.950 . S
H480 C501 0.950 . S
H481 C504 0.950 . S
H482 C505 0.950 . S
H483 C507 0.950 . S
H484 C508 0.950 . S
H485 C509 0.951 . S
H486 C511 0.951 . S
H487 C513 0.950 . S
H488 C514 0.950 . S
H489 C516 0.950 . S
H490 C519 0.950 . S
H491 C520 0.950 . S
H492 C522 0.950 . S
H493 C523 0.950 . S
C494 H476 0.951 . S
C494 C495 1.366 . S
C494 C496 1.388 . S
C495 C494 1.366 . S
C495 C499 1.385 . S
C496 H477 0.951 . S
C496 C494 1.388 . S
C496 C497 1.366 . S
C497 C496 1.366 . S
C497 C498 1.414 . S
C497 C500 1.499 . S
C498 H478 0.950 . S
C498 C497 1.414 . S
C498 C499 1.374 . S
C499 H479 0.950 . S
C499 C495 1.385 . S
C499 C498 1.374 . S
C500 C497 1.499 . S
C500 C501 1.373 . S
C500 C502 1.389 1_655 S
C501 H480 0.950 . S
C501 C500 1.373 . S
C501 C517 1.377 1_655 S
C502 C500 1.389 1_455 S
C502 C503 1.524 . S
C502 C516 1.377 . S
C503 C502 1.524 . S
C503 C504 1.397 1_455 S
C503 C508 1.363 . S
C504 H481 0.950 . S
C504 C503 1.397 1_655 S
C504 C505 1.334 . S
C505 H482 0.950 . S
C505 C504 1.334 . S
C505 C506 1.287 1_655 S
C506 C505 1.287 1_455 S
C506 C507 1.524 . S
C506 H525 0.913 . S
C507 H483 0.950 . S
C507 C506 1.524 . S
C507 C508 1.415 . S
C508 H484 0.950 . S
C508 C503 1.363 . S
C508 C507 1.415 . S
C509 H485 0.951 . S
C509 C510 1.366 . S
C509 C511 1.388 . S
C510 C509 1.366 . S
C510 C514 1.385 . S
C511 H486 0.951 . S
C511 C509 1.388 . S
C511 C512 1.366 . S
C512 C511 1.366 . S
C512 C513 1.414 . S
C512 C515 1.499 . S
C513 H487 0.950 . S
C513 C512 1.414 . S
C513 C514 1.374 . S
C514 H488 0.950 . S
C514 C510 1.385 . S
C514 C513 1.374 . S
C515 C512 1.499 . S
C515 C516 1.373 . S
C515 C517 1.389 . S
C516 H489 0.950 . S
C516 C502 1.377 . S
C516 C515 1.373 . S
C517 C501 1.377 1_455 S
C517 C515 1.389 . S
C517 C518 1.524 . S
C518 C517 1.524 . S
C518 C519 1.397 . S
C518 C523 1.363 1_455 S
C519 H490 0.950 . S
C519 C518 1.397 . S
C519 C520 1.334 . S
C520 H491 0.950 . S
C520 C519 1.334 . S
C520 C521 1.287 . S
C521 C520 1.287 . S
C521 C522 1.524 1_455 S
C521 H524 0.999 . S
C522 H492 0.950 . S
C522 C521 1.524 1_655 S
C522 C523 1.415 . S
C523 H493 0.950 . S
C523 C518 1.363 1_655 S
C523 C522 1.415 . S
H524 C521 0.999 . S
H525 C506 0.913 . S
H526 C544 0.951 . S
H527 C546 0.951 . S
H528 C548 0.950 . S
H529 C549 0.950 . S
H530 C551 0.950 . S
H531 C554 0.950 . S
H532 C555 0.950 . S
H533 C557 0.950 . S
H534 C558 0.950 . S
H535 C559 0.951 . S
H536 C561 0.951 . S
H537 C563 0.950 . S
H538 C564 0.950 . S
H539 C566 0.950 . S
H540 C569 0.950 . S
H541 C570 0.950 . S
H542 C572 0.950 . S
H543 C573 0.950 1_455 S
C544 H526 0.951 . S
C544 C545 1.366 . S
C544 C546 1.388 . S
C545 C544 1.366 . S
C545 C549 1.385 . S
C546 H527 0.951 . S
C546 C544 1.388 . S
C546 C547 1.366 . S
C547 C546 1.366 . S
C547 C548 1.414 . S
C547 C550 1.499 . S
C548 H528 0.950 . S
C548 C547 1.414 . S
C548 C549 1.374 . S
C549 H529 0.950 . S
C549 C545 1.385 . S
C549 C548 1.374 . S
C550 C547 1.499 . S
C550 C551 1.373 . S
C550 C552 1.389 1_455 S
C551 H530 0.950 . S
C551 C550 1.373 . S
C551 C567 1.377 1_455 S
C552 C550 1.389 1_655 S
C552 C553 1.524 . S
C552 C566 1.377 . S
C553 C552 1.524 . S
C553 C554 1.398 1_655 S
C553 C558 1.361 . S
C554 H531 0.950 . S
C554 C553 1.398 1_455 S
C554 C555 1.334 . S
C555 H532 0.950 . S
C555 C554 1.334 . S
C555 C556 1.287 . S
C556 C555 1.287 . S
C556 C557 1.524 1_455 S
C556 H575 0.913 . S
C557 H533 0.950 . S
C557 C556 1.524 1_655 S
C557 C558 1.415 . S
C558 H534 0.950 . S
C558 C553 1.361 . S
C558 C557 1.415 . S
C559 H535 0.951 . S
C559 C560 1.366 . S
C559 C561 1.388 . S
C560 C559 1.366 . S
C560 C564 1.385 . S
C561 H536 0.951 . S
C561 C559 1.388 . S
C561 C562 1.366 . S
C562 C561 1.366 . S
C562 C563 1.414 . S
C562 C565 1.499 . S
C563 H537 0.950 . S
C563 C562 1.414 . S
C563 C564 1.374 . S
C564 H538 0.950 . S
C564 C560 1.385 . S
C564 C563 1.374 . S
C565 C562 1.499 . S
C565 C566 1.373 . S
C565 C567 1.389 . S
C566 H539 0.950 . S
C566 C552 1.377 . S
C566 C565 1.373 . S
C567 C551 1.377 1_655 S
C567 C565 1.389 . S
C567 C568 1.524 . S
C568 C567 1.524 . S
C568 C569 1.397 . S
C568 C573 1.363 . S
C569 H540 0.950 . S
C569 C568 1.397 . S
C569 C570 1.334 . S
C570 H541 0.950 . S
C570 C569 1.334 . S
C570 C571 1.287 . S
C571 C570 1.287 . S
C571 C572 1.524 . S
C571 H574 0.999 . S
C572 H542 0.950 . S
C572 C571 1.524 . S
C572 C573 1.415 . S
C573 H543 0.950 1_655 S
C573 C568 1.363 . S
C573 C572 1.415 . S
H574 C571 0.999 . S
H575 C556 0.913 . S
H576 C594 0.951 . S
H577 C596 0.951 . S
H578 C598 0.950 . S
H579 C599 0.950 . S
H580 C601 0.950 . S
H581 C604 0.950 . S
H582 C605 0.950 . S
H583 C607 0.950 . S
H584 C608 0.950 . S
H585 C609 0.951 . S
H586 C611 0.951 . S
H587 C613 0.950 . S
H588 C614 0.950 . S
H589 C616 0.950 . S
H590 C619 0.950 . S
H591 C620 0.950 . S
H592 C622 0.950 . S
H593 C623 0.950 . S
C594 H576 0.951 . S
C594 C595 1.366 . S
C594 C596 1.388 . S
C595 C594 1.366 . S
C595 C599 1.385 . S
C596 H577 0.951 . S
C596 C594 1.388 . S
C596 C597 1.366 . S
C597 C596 1.366 . S
C597 C598 1.414 . S
C597 C600 1.499 . S
C598 H578 0.950 . S
C598 C597 1.414 . S
C598 C599 1.374 . S
C599 H579 0.950 . S
C599 C595 1.385 . S
C599 C598 1.374 . S
C600 C597 1.499 . S
C600 C601 1.373 . S
C600 C602 1.389 1_655 S
C601 H580 0.950 . S
C601 C600 1.373 . S
C601 C617 1.377 1_556 S
C602 C600 1.389 1_455 S
C602 C603 1.524 . S
C602 C616 1.377 1_556 S
C603 C602 1.524 . S
C603 C604 1.397 1_455 S
C603 C608 1.363 . S
C604 H581 0.950 . S
C604 C603 1.397 1_655 S
C604 C605 1.334 . S
C605 H582 0.950 . S
C605 C604 1.334 . S
C605 C606 1.287 1_655 S
C606 C605 1.287 1_455 S
C606 C607 1.524 . S
C606 H625 0.913 . S
C607 H583 0.950 . S
C607 C606 1.524 . S
C607 C608 1.415 . S
C608 H584 0.950 . S
C608 C603 1.363 . S
C608 C607 1.415 . S
C609 H585 0.951 . S
C609 C610 1.366 . S
C609 C611 1.388 . S
C610 C609 1.366 . S
C610 C614 1.385 . S
C611 H586 0.951 . S
C611 C609 1.388 . S
C611 C612 1.366 . S
C612 C611 1.366 . S
C612 C613 1.414 . S
C612 C615 1.499 . S
C613 H587 0.950 . S
C613 C612 1.414 . S
C613 C614 1.374 . S
C614 H588 0.950 . S
C614 C610 1.385 . S
C614 C613 1.374 . S
C615 C612 1.499 . S
C615 C616 1.373 . S
C615 C617 1.389 1_455 S
C616 H589 0.950 . S
C616 C602 1.377 1_554 S
C616 C615 1.373 . S
C617 C601 1.377 1_554 S
C617 C615 1.389 1_655 S
C617 C618 1.524 . S
C618 C617 1.524 . S
C618 C619 1.397 1_655 S
C618 C623 1.363 . S
C619 H590 0.950 . S
C619 C618 1.397 1_455 S
C619 C620 1.334 . S
C620 H591 0.950 . S
C620 C619 1.334 . S
C620 C621 1.287 1_455 S
C621 C620 1.287 1_655 S
C621 C622 1.524 . S
C621 H624 0.999 . S
C622 H592 0.950 . S
C622 C621 1.524 . S
C622 C623 1.415 . S
C623 H593 0.950 . S
C623 C618 1.363 . S
C623 C622 1.415 . S
H624 C621 0.999 . S
H625 C606 0.913 . S
H626 C644 0.951 . S
H627 C646 0.951 . S
H628 C648 0.950 . S
H629 C649 0.950 . S
H630 C651 0.954 . S
H631 C654 0.950 . S
H632 C655 0.950 . S
H633 C657 0.950 . S
H634 C658 0.950 . S
H635 C659 0.951 . S
H636 C661 0.951 . S
H637 C663 0.950 . S
H638 C664 0.950 . S
H639 C666 0.954 . S
H640 C669 0.950 . S
H641 C670 0.950 . S
H642 C672 0.950 . S
H643 C673 0.950 . S
C644 H626 0.951 . S
C644 C645 1.366 . S
C644 C646 1.388 . S
C645 C644 1.366 . S
C645 C649 1.385 . S
C646 H627 0.951 . S
C646 C644 1.388 . S
C646 C647 1.366 . S
C647 C646 1.366 . S
C647 C648 1.414 . S
C647 C650 1.499 . S
C648 H628 0.950 . S
C648 C647 1.414 . S
C648 C649 1.374 . S
C649 H629 0.950 . S
C649 C645 1.385 . S
C649 C648 1.374 . S
C650 C647 1.499 . S
C650 C651 1.359 1_554 S
C650 C652 1.389 1_455 S
C651 H630 0.954 . S
C651 C650 1.359 1_556 S
C651 C667 1.386 . S
C652 C650 1.389 1_655 S
C652 C653 1.524 . S
C652 C666 1.386 . S
C653 C652 1.524 . S
C653 C654 1.397 1_655 S
C653 C658 1.363 . S
C654 H631 0.950 . S
C654 C653 1.397 1_455 S
C654 C655 1.334 . S
C655 H632 0.950 . S
C655 C654 1.334 . S
C655 C656 1.287 1_455 S
C656 C655 1.287 1_655 S
C656 C657 1.524 . S
C656 H675 0.913 . S
C657 H633 0.950 . S
C657 C656 1.524 . S
C657 C658 1.415 . S
C658 H634 0.950 . S
C658 C653 1.363 . S
C658 C657 1.415 . S
C659 H635 0.951 . S
C659 C660 1.366 . S
C659 C661 1.388 . S
C660 C659 1.366 . S
C660 C664 1.385 . S
C661 H636 0.951 . S
C661 C659 1.388 . S
C661 C662 1.366 . S
C662 C661 1.366 . S
C662 C663 1.414 . S
C662 C665 1.499 . S
C663 H637 0.950 . S
C663 C662 1.414 . S
C663 C664 1.374 . S
C664 H638 0.950 . S
C664 C660 1.385 . S
C664 C663 1.374 . S
C665 C662 1.499 . S
C665 C666 1.359 1_556 S
C665 C667 1.389 1_655 S
C666 H639 0.954 . S
C666 C652 1.386 . S
C666 C665 1.359 1_554 S
C667 C651 1.386 . S
C667 C665 1.389 1_455 S
C667 C668 1.524 . S
C668 C667 1.524 . S
C668 C669 1.397 1_455 S
C668 C673 1.363 . S
C669 H640 0.950 . S
C669 C668 1.397 1_655 S
C669 C670 1.334 . S
C670 H641 0.950 . S
C670 C669 1.334 . S
C670 C671 1.287 1_655 S
C671 C670 1.287 1_455 S
C671 C672 1.524 . S
C671 H674 0.999 . S
C672 H642 0.950 . S
C672 C671 1.524 . S
C672 C673 1.415 . S
C673 H643 0.950 . S
C673 C668 1.363 . S
C673 C672 1.415 . S
H674 C671 0.999 . S
H675 C656 0.913 . S
H676 C694 0.951 . S
H677 C696 0.951 . S
H678 C698 0.950 . S
H679 C699 0.950 . S
H680 C701 0.950 . S
H681 C704 0.950 . S
H682 C705 0.950 . S
H683 C707 0.950 . S
H684 C708 0.950 . S
H685 C709 0.951 . S
H686 C711 0.951 . S
H687 C713 0.950 . S
H688 C714 0.950 . S
H689 C716 0.950 . S
H690 C719 0.950 . S
H691 C720 0.950 . S
H692 C722 0.950 . S
H693 C723 0.950 . S
C694 H676 0.951 . S
C694 C695 1.366 . S
C694 C696 1.388 . S
C695 C694 1.366 . S
C695 C699 1.385 . S
C696 H677 0.951 . S
C696 C694 1.388 . S
C696 C697 1.366 . S
C697 C696 1.366 . S
C697 C698 1.414 . S
C697 C700 1.499 . S
C698 H678 0.950 . S
C698 C697 1.414 . S
C698 C699 1.374 . S
C699 H679 0.950 . S
C699 C695 1.385 . S
C699 C698 1.374 . S
C700 C697 1.499 . S
C700 C701 1.373 . S
C700 C702 1.389 1_554 S
C701 H680 0.950 . S
C701 C700 1.373 . S
C701 C717 1.377 . S
C702 C700 1.389 1_556 S
C702 C703 1.524 . S
C702 C716 1.377 . S
C703 C702 1.524 . S
C703 C704 1.397 1_556 S
C703 C708 1.363 . S
C704 H681 0.950 . S
C704 C703 1.397 1_554 S
C704 C705 1.334 . S
C705 H682 0.950 . S
C705 C704 1.334 . S
C705 C706 1.287 1_554 S
C706 C705 1.287 1_556 S
C706 C707 1.524 . S
C706 H725 0.913 . S
C707 H683 0.950 . S
C707 C706 1.524 . S
C707 C708 1.415 . S
C708 H684 0.950 . S
C708 C703 1.363 . S
C708 C707 1.415 . S
C709 H685 0.951 . S
C709 C710 1.366 . S
C709 C711 1.388 . S
C710 C709 1.366 . S
C710 C714 1.385 . S
C711 H686 0.951 . S
C711 C709 1.388 . S
C711 C712 1.366 . S
C712 C711 1.366 . S
C712 C713 1.414 . S
C712 C715 1.499 . S
C713 H687 0.950 . S
C713 C712 1.414 . S
C713 C714 1.374 . S
C714 H688 0.950 . S
C714 C710 1.385 . S
C714 C713 1.374 . S
C715 C712 1.499 . S
C715 C716 1.373 . S
C715 C717 1.389 1_556 S
C716 H689 0.950 . S
C716 C702 1.377 . S
C716 C715 1.373 . S
C717 C701 1.377 . S
C717 C715 1.389 1_554 S
C717 C718 1.524 . S
C718 C717 1.524 . S
C718 C719 1.397 1_554 S
C718 C723 1.363 . S
C719 H690 0.950 . S
C719 C718 1.397 1_556 S
C719 C720 1.334 . S
C720 H691 0.950 . S
C720 C719 1.334 . S
C720 C721 1.287 1_556 S
C721 C720 1.287 1_554 S
C721 C722 1.524 . S
C721 H724 0.999 . S
C722 H692 0.950 . S
C722 C721 1.524 . S
C722 C723 1.415 . S
C723 H693 0.950 . S
C723 C718 1.363 . S
C723 C722 1.415 . S
H724 C721 0.999 . S
H725 C706 0.913 . S
H726 C744 0.951 . S
H727 C746 0.951 . S
H728 C748 0.950 . S
H729 C749 0.950 . S
H730 C751 0.950 . S
H731 C754 0.950 . S
H732 C755 0.950 . S
H733 C757 0.950 1_556 S
H734 C758 0.950 . S
H735 C759 0.951 . S
H736 C761 0.951 . S
H737 C763 0.950 . S
H738 C764 0.950 . S
H739 C766 0.950 . S
H740 C769 0.950 . S
H741 C770 0.950 . S
H742 C772 0.950 1_554 S
H743 C773 0.950 . S
C744 H726 0.951 . S
C744 C745 1.366 . S
C744 C746 1.388 . S
C745 C744 1.366 . S
C745 C749 1.385 . S
C746 H727 0.951 . S
C746 C744 1.388 . S
C746 C747 1.366 . S
C747 C746 1.366 . S
C747 C748 1.414 . S
C747 C750 1.499 . S
C748 H728 0.950 . S
C748 C747 1.414 . S
C748 C749 1.374 . S
C749 H729 0.950 . S
C749 C745 1.385 . S
C749 C748 1.374 . S
C750 C747 1.499 . S
C750 C751 1.373 . S
C750 C752 1.389 . S
C751 H730 0.950 . S
C751 C750 1.373 . S
C751 C767 1.377 1_554 S
C752 C750 1.389 . S
C752 C753 1.524 . S
C752 C766 1.377 1_554 S
C753 C752 1.524 . S
C753 C754 1.397 . S
C753 C758 1.363 1_554 S
C754 H731 0.950 . S
C754 C753 1.397 . S
C754 C755 1.334 . S
C755 H732 0.950 . S
C755 C754 1.334 . S
C755 C756 1.287 . S
C756 C755 1.287 . S
C756 C757 1.524 . S
C756 H775 0.913 . S
C757 H733 0.950 1_554 S
C757 C756 1.524 . S
C757 C758 1.415 1_554 S
C758 H734 0.950 . S
C758 C753 1.363 1_556 S
C758 C757 1.415 1_556 S
C759 H735 0.951 . S
C759 C760 1.366 . S
C759 C761 1.388 . S
C760 C759 1.366 . S
C760 C764 1.385 . S
C761 H736 0.951 . S
C761 C759 1.388 . S
C761 C762 1.366 . S
C762 C761 1.366 . S
C762 C763 1.414 . S
C762 C765 1.499 . S
C763 H737 0.950 . S
C763 C762 1.414 . S
C763 C764 1.374 . S
C764 H738 0.950 . S
C764 C760 1.385 . S
C764 C763 1.374 . S
C765 C762 1.499 . S
C765 C766 1.373 . S
C765 C767 1.389 . S
C766 H739 0.950 . S
C766 C752 1.377 1_556 S
C766 C765 1.373 . S
C767 C751 1.377 1_556 S
C767 C765 1.389 . S
C767 C768 1.524 . S
C768 C767 1.524 . S
C768 C769 1.397 . S
C768 C773 1.363 1_556 S
C769 H740 0.950 . S
C769 C768 1.397 . S
C769 C770 1.334 . S
C770 H741 0.950 . S
C770 C769 1.334 . S
C770 C771 1.287 . S
C771 C770 1.287 . S
C771 C772 1.524 . S
C771 H774 0.999 . S
C772 H742 0.950 1_556 S
C772 C771 1.524 . S
C772 C773 1.415 1_556 S
C773 H743 0.950 . S
C773 C768 1.363 1_554 S
C773 C772 1.415 1_554 S
H774 C771 0.999 . S
H775 C756 0.913 . S
H776 C794 0.951 . S
H777 C796 0.951 . S
H778 C798 0.950 . S
H779 C799 0.950 . S
H780 C801 0.950 . S
H781 C804 0.950 . S
H782 C805 0.950 . S
H783 C807 0.950 . S
H784 C808 0.950 . S
H785 C809 0.951 . S
H786 C811 0.951 . S
H787 C813 0.950 . S
H788 C814 0.950 . S
H789 C816 0.950 . S
H790 C819 0.950 . S
H791 C820 0.950 . S
H792 C822 0.950 . S
H793 C823 0.950 . S
C794 H776 0.951 . S
C794 C795 1.366 . S
C794 C796 1.388 . S
C795 C794 1.366 . S
C795 C799 1.385 . S
C796 H777 0.951 . S
C796 C794 1.388 . S
C796 C797 1.366 . S
C797 C796 1.366 . S
C797 C798 1.414 . S
C797 C800 1.499 . S
C798 H778 0.950 . S
C798 C797 1.414 . S
C798 C799 1.374 . S
C799 H779 0.950 . S
C799 C795 1.385 . S
C799 C798 1.374 . S
C800 C797 1.499 . S
C800 C801 1.373 . S
C800 C802 1.389 . S
C801 H780 0.950 . S
C801 C800 1.373 . S
C801 C817 1.377 . S
C802 C800 1.389 . S
C802 C803 1.524 . S
C802 C816 1.377 . S
C803 C802 1.524 . S
C803 C804 1.397 . S
C803 C808 1.363 . S
C804 H781 0.950 . S
C804 C803 1.397 . S
C804 C805 1.334 . S
C805 H782 0.950 . S
C805 C804 1.334 . S
C805 C806 1.287 . S
C806 C805 1.287 . S
C806 C807 1.524 . S
C806 H825 0.913 . S
C807 H783 0.950 . S
C807 C806 1.524 . S
C807 C808 1.415 . S
C808 H784 0.950 . S
C808 C803 1.363 . S
C808 C807 1.415 . S
C809 H785 0.951 . S
C809 C810 1.366 . S
C809 C811 1.388 . S
C810 C809 1.366 . S
C810 C814 1.385 . S
C811 H786 0.951 . S
C811 C809 1.388 . S
C811 C812 1.366 . S
C812 C811 1.366 . S
C812 C813 1.414 . S
C812 C815 1.499 . S
C813 H787 0.950 . S
C813 C812 1.414 . S
C813 C814 1.374 . S
C814 H788 0.950 . S
C814 C810 1.385 . S
C814 C813 1.374 . S
C815 C812 1.499 . S
C815 C816 1.373 . S
C815 C817 1.389 . S
C816 H789 0.950 . S
C816 C802 1.377 . S
C816 C815 1.373 . S
C817 C801 1.377 . S
C817 C815 1.389 . S
C817 C818 1.524 . S
C818 C817 1.524 . S
C818 C819 1.397 . S
C818 C823 1.363 . S
C819 H790 0.950 . S
C819 C818 1.397 . S
C819 C820 1.334 . S
C820 H791 0.950 . S
C820 C819 1.334 . S
C820 C821 1.287 . S
C821 C820 1.287 . S
C821 C822 1.524 . S
C821 H824 0.999 . S
C822 H792 0.950 . S
C822 C821 1.524 . S
C822 C823 1.415 . S
C823 H793 0.950 . S
C823 C818 1.363 . S
C823 C822 1.415 . S
H824 C821 0.999 . S
H825 C806 0.913 . S
H826 C844 0.951 . S
H827 C846 0.951 . S
H828 C848 0.950 . S
H829 C849 0.950 . S
H830 C851 0.950 . S
H831 C854 0.950 . S
H832 C855 0.950 . S
H833 C857 0.950 . S
H834 C858 0.950 . S
H835 C859 0.951 . S
H836 C861 0.951 . S
H837 C863 0.950 . S
H838 C864 0.950 . S
H839 C866 0.950 . S
H840 C869 0.950 . S
H841 C870 0.950 . S
H842 C872 0.950 . S
H843 C873 0.950 . S
C844 H826 0.951 . S
C844 C845 1.366 . S
C844 C846 1.388 . S
C845 C844 1.366 . S
C845 C849 1.385 . S
C846 H827 0.951 . S
C846 C844 1.388 . S
C846 C847 1.366 . S
C847 C846 1.366 . S
C847 C848 1.414 . S
C847 C850 1.499 . S
C848 H828 0.950 . S
C848 C847 1.414 . S
C848 C849 1.374 . S
C849 H829 0.950 . S
C849 C845 1.385 . S
C849 C848 1.374 . S
C850 C847 1.499 . S
C850 C851 1.373 . S
C850 C852 1.389 . S
C851 H830 0.950 . S
C851 C850 1.373 . S
C851 C867 1.377 . S
C852 C850 1.389 . S
C852 C853 1.524 . S
C852 C866 1.377 . S
C853 C852 1.524 . S
C853 C854 1.397 . S
C853 C858 1.363 . S
C854 H831 0.950 . S
C854 C853 1.397 . S
C854 C855 1.334 . S
C855 H832 0.950 . S
C855 C854 1.334 . S
C855 C856 1.287 . S
C856 C855 1.287 . S
C856 C857 1.524 . S
C856 H875 0.913 . S
C857 H833 0.950 . S
C857 C856 1.524 . S
C857 C858 1.415 . S
C858 H834 0.950 . S
C858 C853 1.363 . S
C858 C857 1.415 . S
C859 H835 0.951 . S
C859 C860 1.366 . S
C859 C861 1.388 . S
C860 C859 1.366 . S
C860 C864 1.385 . S
C861 H836 0.951 . S
C861 C859 1.388 . S
C861 C862 1.366 . S
C862 C861 1.366 . S
C862 C863 1.414 . S
C862 C865 1.499 . S
C863 H837 0.950 . S
C863 C862 1.414 . S
C863 C864 1.374 . S
C864 H838 0.950 . S
C864 C860 1.385 . S
C864 C863 1.374 . S
C865 C862 1.499 . S
C865 C866 1.373 . S
C865 C867 1.389 . S
C866 H839 0.950 . S
C866 C852 1.377 . S
C866 C865 1.373 . S
C867 C851 1.377 . S
C867 C865 1.389 . S
C867 C868 1.524 . S
C868 C867 1.524 . S
C868 C869 1.397 . S
C868 C873 1.363 . S
C869 H840 0.950 . S
C869 C868 1.397 . S
C869 C870 1.334 . S
C870 H841 0.950 . S
C870 C869 1.334 . S
C870 C871 1.287 . S
C871 C870 1.287 . S
C871 C872 1.524 . S
C871 H874 0.999 . S
C872 H842 0.950 . S
C872 C871 1.524 . S
C872 C873 1.415 . S
C873 H843 0.950 . S
C873 C868 1.363 . S
C873 C872 1.415 . S
H874 C871 0.999 . S
H875 C856 0.913 . S
H876 C894 0.951 . S
H877 C896 0.951 . S
H878 C898 0.950 . S
H879 C899 0.950 . S
H880 C901 0.950 . S
H881 C904 0.950 . S
H882 C905 0.950 . S
H883 C907 0.950 . S
H884 C908 0.950 . S
H885 C909 0.951 . S
H886 C911 0.951 . S
H887 C913 0.950 . S
H888 C914 0.950 . S
H889 C916 0.950 . S
H890 C919 0.950 . S
H891 C920 0.950 . S
H892 C922 0.950 . S
H893 C923 0.950 . S
C894 H876 0.951 . S
C894 C895 1.366 . S
C894 C896 1.388 . S
C895 C894 1.366 . S
C895 C899 1.385 . S
C896 H877 0.951 . S
C896 C894 1.388 . S
C896 C897 1.366 . S
C897 C896 1.366 . S
C897 C898 1.414 . S
C897 C900 1.499 . S
C898 H878 0.950 . S
C898 C897 1.414 . S
C898 C899 1.374 . S
C899 H879 0.950 . S
C899 C895 1.385 . S
C899 C898 1.374 . S
C900 C897 1.499 . S
C900 C901 1.373 . S
C900 C902 1.389 . S
C901 H880 0.950 . S
C901 C900 1.373 . S
C901 C917 1.377 1_565 S
C902 C900 1.389 . S
C902 C903 1.524 . S
C902 C916 1.377 1_565 S
C903 C902 1.524 . S
C903 C904 1.397 . S
C903 C908 1.363 . S
C904 H881 0.950 . S
C904 C903 1.397 . S
C904 C905 1.334 . S
C905 H882 0.950 . S
C905 C904 1.334 . S
C905 C906 1.287 . S
C906 C905 1.287 . S
C906 C907 1.524 . S
C906 H925 0.913 . S
C907 H883 0.950 . S
C907 C906 1.524 . S
C907 C908 1.415 . S
C908 H884 0.950 . S
C908 C903 1.363 . S
C908 C907 1.415 . S
C909 H885 0.951 . S
C909 C910 1.366 . S
C909 C911 1.388 . S
C910 C909 1.366 . S
C910 C914 1.385 . S
C911 H886 0.951 . S
C911 C909 1.388 . S
C911 C912 1.366 . S
C912 C911 1.366 . S
C912 C913 1.414 . S
C912 C915 1.499 . S
C913 H887 0.950 . S
C913 C912 1.414 . S
C913 C914 1.374 . S
C914 H888 0.950 . S
C914 C910 1.385 . S
C914 C913 1.374 . S
C915 C912 1.499 . S
C915 C916 1.373 . S
C915 C917 1.389 . S
C916 H889 0.950 . S
C916 C902 1.377 1_545 S
C916 C915 1.373 . S
C917 C901 1.377 1_545 S
C917 C915 1.389 . S
C917 C918 1.524 . S
C918 C917 1.524 . S
C918 C919 1.397 . S
C918 C923 1.363 . S
C919 H890 0.950 . S
C919 C918 1.397 . S
C919 C920 1.334 . S
C920 H891 0.950 . S
C920 C919 1.334 . S
C920 C921 1.287 . S
C921 C920 1.287 . S
C921 C922 1.524 . S
C921 H924 0.999 . S
C922 H892 0.950 . S
C922 C921 1.524 . S
C922 C923 1.415 . S
C923 H893 0.950 . S
C923 C918 1.363 . S
C923 C922 1.415 . S
H924 C921 0.999 . S
H925 C906 0.913 . S
H926 C944 0.951 . S
H927 C946 0.951 . S
H928 C948 0.950 . S
H929 C949 0.950 . S
H930 C951 0.950 . S
H931 C954 0.950 . S
H932 C955 0.950 . S
H933 C957 0.950 . S
H934 C958 0.950 . S
H935 C959 0.951 . S
H936 C961 0.951 . S
H937 C963 0.950 . S
H938 C964 0.950 . S
H939 C966 0.950 . S
H940 C969 0.950 . S
H941 C970 0.950 . S
H942 C972 0.950 . S
H943 C973 0.950 . S
C944 H926 0.951 . S
C944 C945 1.366 . S
C944 C946 1.388 . S
C945 C944 1.366 . S
C945 C949 1.385 . S
C946 H927 0.951 . S
C946 C944 1.388 . S
C946 C947 1.366 . S
C947 C946 1.366 . S
C947 C948 1.414 . S
C947 C950 1.499 . S
C948 H928 0.950 . S
C948 C947 1.414 . S
C948 C949 1.374 . S
C949 H929 0.950 . S
C949 C945 1.385 . S
C949 C948 1.374 . S
C950 C947 1.499 . S
C950 C951 1.373 . S
C950 C952 1.389 . S
C951 H930 0.950 . S
C951 C950 1.373 . S
C951 C967 1.377 1_565 S
C952 C950 1.389 . S
C952 C953 1.524 . S
C952 C966 1.377 1_565 S
C953 C952 1.524 . S
C953 C954 1.397 . S
C953 C958 1.363 . S
C954 H931 0.950 . S
C954 C953 1.397 . S
C954 C955 1.334 . S
C955 H932 0.950 . S
C955 C954 1.334 . S
C955 C956 1.287 . S
C956 C955 1.287 . S
C956 C957 1.524 . S
C956 H975 0.913 . S
C957 H933 0.950 . S
C957 C956 1.524 . S
C957 C958 1.415 . S
C958 H934 0.950 . S
C958 C953 1.363 . S
C958 C957 1.415 . S
C959 H935 0.951 . S
C959 C960 1.366 . S
C959 C961 1.388 . S
C960 C959 1.366 . S
C960 C964 1.385 . S
C961 H936 0.951 . S
C961 C959 1.388 . S
C961 C962 1.366 . S
C962 C961 1.366 . S
C962 C963 1.414 . S
C962 C965 1.499 . S
C963 H937 0.950 . S
C963 C962 1.414 . S
C963 C964 1.374 . S
C964 H938 0.950 . S
C964 C960 1.385 . S
C964 C963 1.374 . S
C965 C962 1.499 . S
C965 C966 1.373 . S
C965 C967 1.389 . S
C966 H939 0.950 . S
C966 C952 1.377 1_545 S
C966 C965 1.373 . S
C967 C951 1.377 1_545 S
C967 C965 1.389 . S
C967 C968 1.524 . S
C968 C967 1.524 . S
C968 C969 1.397 . S
C968 C973 1.363 . S
C969 H940 0.950 . S
C969 C968 1.397 . S
C969 C970 1.334 . S
C970 H941 0.950 . S
C970 C969 1.334 . S
C970 C971 1.287 . S
C971 C970 1.287 . S
C971 C972 1.524 . S
C971 H974 0.999 . S
C972 H942 0.950 . S
C972 C971 1.524 . S
C972 C973 1.415 . S
C973 H943 0.950 . S
C973 C968 1.363 . S
C973 C972 1.415 . S
H974 C971 0.999 . S
H975 C956 0.913 . S
H976 C994 0.951 . S
H977 C996 0.951 . S
H978 C998 0.950 . S
H979 C999 0.950 . S
H980 C1001 0.950 . S
H981 C1004 0.950 . S
H982 C1005 0.950 . S
H983 C1007 0.950 . S
H984 C1008 0.950 . S
H985 C1009 0.951 . S
H986 C1011 0.951 . S
H987 C1013 0.950 . S
H988 C1014 0.950 . S
H989 C1016 0.950 . S
H990 C1019 0.950 . S
H991 C1020 0.950 . S
H992 C1022 0.950 . S
H993 C1023 0.950 . S
C994 H976 0.951 . S
C994 C995 1.366 . S
C994 C996 1.388 . S
C995 C994 1.366 . S
C995 C999 1.385 . S
C996 H977 0.951 . S
C996 C994 1.388 . S
C996 C997 1.366 . S
C997 C996 1.366 . S
C997 C998 1.414 . S
C997 C1000 1.499 . S
C998 H978 0.950 . S
C998 C997 1.414 . S
C998 C999 1.374 . S
C999 H979 0.950 . S
C999 C995 1.385 . S
C999 C998 1.374 . S
C1000 C997 1.499 . S
C1000 C1001 1.373 . S
C1000 C1002 1.389 . S
C1001 H980 0.950 . S
C1001 C1000 1.373 . S
C1001 C1017 1.377 . S
C1002 C1000 1.389 . S
C1002 C1003 1.524 . S
C1002 C1016 1.377 . S
C1003 C1002 1.524 . S
C1003 C1004 1.397 . S
C1003 C1008 1.363 . S
C1004 H981 0.950 . S
C1004 C1003 1.397 . S
C1004 C1005 1.334 . S
C1005 H982 0.950 . S
C1005 C1004 1.334 . S
C1005 C1006 1.287 . S
C1006 C1005 1.287 . S
C1006 C1007 1.524 . S
C1006 H1025 0.913 . S
C1007 H983 0.950 . S
C1007 C1006 1.524 . S
C1007 C1008 1.415 . S
C1008 H984 0.950 . S
C1008 C1003 1.363 . S
C1008 C1007 1.415 . S
C1009 H985 0.951 . S
C1009 C1010 1.366 . S
C1009 C1011 1.388 . S
C1010 C1009 1.366 . S
C1010 C1014 1.385 . S
C1011 H986 0.951 . S
C1011 C1009 1.388 . S
C1011 C1012 1.366 . S
C1012 C1011 1.366 . S
C1012 C1013 1.414 . S
C1012 C1015 1.499 . S
C1013 H987 0.950 . S
C1013 C1012 1.414 . S
C1013 C1014 1.374 . S
C1014 H988 0.950 . S
C1014 C1010 1.385 . S
C1014 C1013 1.374 . S
C1015 C1012 1.499 . S
C1015 C1016 1.373 . S
C1015 C1017 1.389 . S
C1016 H989 0.950 . S
C1016 C1002 1.377 . S
C1016 C1015 1.373 . S
C1017 C1001 1.377 . S
C1017 C1015 1.389 . S
C1017 C1018 1.524 . S
C1018 C1017 1.524 . S
C1018 C1019 1.397 . S
C1018 C1023 1.363 . S
C1019 H990 0.950 . S
C1019 C1018 1.397 . S
C1019 C1020 1.334 . S
C1020 H991 0.950 . S
C1020 C1019 1.334 . S
C1020 C1021 1.287 . S
C1021 C1020 1.287 . S
C1021 C1022 1.524 . S
C1021 H1024 0.999 . S
C1022 H992 0.950 . S
C1022 C1021 1.524 . S
C1022 C1023 1.415 . S
C1023 H993 0.950 . S
C1023 C1018 1.363 . S
C1023 C1022 1.415 . S
H1024 C1021 0.999 . S
H1025 C1006 0.913 . S
H1026 C1044 0.951 . S
H1027 C1046 0.951 . S
H1028 C1048 0.950 . S
H1029 C1049 0.950 . S
H1030 C1051 0.950 . S
H1031 C1054 0.950 . S
H1032 C1055 0.950 . S
H1033 C1057 0.950 . S
H1034 C1058 0.950 . S
H1035 C1059 0.951 . S
H1036 C1061 0.951 . S
H1037 C1063 0.950 . S
H1038 C1064 0.950 . S
H1039 C1066 0.950 . S
H1040 C1069 0.950 . S
H1041 C1070 0.950 . S
H1042 C1072 0.950 . S
H1043 C1073 0.950 . S
C1044 H1026 0.951 . S
C1044 C1045 1.366 . S
C1044 C1046 1.388 . S
C1045 C1044 1.366 . S
C1045 C1049 1.385 . S
C1046 H1027 0.951 . S
C1046 C1044 1.388 . S
C1046 C1047 1.366 . S
C1047 C1046 1.366 . S
C1047 C1048 1.414 . S
C1047 C1050 1.499 . S
C1048 H1028 0.950 . S
C1048 C1047 1.414 . S
C1048 C1049 1.374 . S
C1049 H1029 0.950 . S
C1049 C1045 1.385 . S
C1049 C1048 1.374 . S
C1050 C1047 1.499 . S
C1050 C1051 1.373 . S
C1050 C1052 1.389 . S
C1051 H1030 0.950 . S
C1051 C1050 1.373 . S
C1051 C1067 1.377 . S
C1052 C1050 1.389 . S
C1052 C1053 1.524 . S
C1052 C1066 1.377 . S
C1053 C1052 1.524 . S
C1053 C1054 1.397 . S
C1053 C1058 1.363 . S
C1054 H1031 0.950 . S
C1054 C1053 1.397 . S
C1054 C1055 1.334 . S
C1055 H1032 0.950 . S
C1055 C1054 1.334 . S
C1055 C1056 1.287 . S
C1056 C1055 1.287 . S
C1056 C1057 1.524 . S
C1056 H1075 0.913 . S
C1057 H1033 0.950 . S
C1057 C1056 1.524 . S
C1057 C1058 1.415 . S
C1058 H1034 0.950 . S
C1058 C1053 1.363 . S
C1058 C1057 1.415 . S
C1059 H1035 0.951 . S
C1059 C1060 1.366 . S
C1059 C1061 1.388 . S
C1060 C1059 1.366 . S
C1060 C1064 1.385 . S
C1061 H1036 0.951 . S
C1061 C1059 1.388 . S
C1061 C1062 1.366 . S
C1062 C1061 1.366 . S
C1062 C1063 1.414 . S
C1062 C1065 1.499 . S
C1063 H1037 0.950 . S
C1063 C1062 1.414 . S
C1063 C1064 1.374 . S
C1064 H1038 0.950 . S
C1064 C1060 1.385 . S
C1064 C1063 1.374 . S
C1065 C1062 1.499 . S
C1065 C1066 1.373 . S
C1065 C1067 1.389 . S
C1066 H1039 0.950 . S
C1066 C1052 1.377 . S
C1066 C1065 1.373 . S
C1067 C1051 1.377 . S
C1067 C1065 1.389 . S
C1067 C1068 1.524 . S
C1068 C1067 1.524 . S
C1068 C1069 1.397 . S
C1068 C1073 1.363 . S
C1069 H1040 0.950 . S
C1069 C1068 1.397 . S
C1069 C1070 1.334 . S
C1070 H1041 0.950 . S
C1070 C1069 1.334 . S
C1070 C1071 1.287 . S
C1071 C1070 1.287 . S
C1071 C1072 1.524 . S
C1071 H1074 0.999 . S
C1072 H1042 0.950 . S
C1072 C1071 1.524 . S
C1072 C1073 1.415 . S
C1073 H1043 0.950 . S
C1073 C1068 1.363 . S
C1073 C1072 1.415 . S
H1074 C1071 0.999 . S
H1075 C1056 0.913 . S
H1076 C1094 0.951 . S
H1077 C1096 0.951 . S
H1078 C1098 0.950 . S
H1079 C1099 0.950 . S
H1080 C1101 0.950 . S
H1081 C1104 0.950 . S
H1082 C1105 0.950 . S
H1083 C1107 0.950 . S
H1084 C1108 0.950 . S
H1085 C1109 0.951 . S
H1086 C1111 0.951 . S
H1087 C1113 0.950 . S
H1088 C1114 0.950 . S
H1089 C1116 0.950 . S
H1090 C1119 0.950 . S
H1091 C1120 0.950 . S
H1092 C1122 0.950 . S
H1093 C1123 0.950 . S
C1094 H1076 0.951 . S
C1094 C1095 1.366 . S
C1094 C1096 1.388 . S
C1095 C1094 1.366 . S
C1095 C1099 1.385 . S
C1096 H1077 0.951 . S
C1096 C1094 1.388 . S
C1096 C1097 1.366 . S
C1097 C1096 1.366 . S
C1097 C1098 1.414 . S
C1097 C1100 1.499 . S
C1098 H1078 0.950 . S
C1098 C1097 1.414 . S
C1098 C1099 1.374 . S
C1099 H1079 0.950 . S
C1099 C1095 1.385 . S
C1099 C1098 1.374 . S
C1100 C1097 1.499 . S
C1100 C1101 1.373 . S
C1100 C1102 1.389 . S
C1101 H1080 0.950 . S
C1101 C1100 1.373 . S
C1101 C1117 1.377 . S
C1102 C1100 1.389 . S
C1102 C1103 1.524 . S
C1102 C1116 1.377 . S
C1103 C1102 1.524 . S
C1103 C1104 1.397 . S
C1103 C1108 1.363 . S
C1104 H1081 0.950 . S
C1104 C1103 1.397 . S
C1104 C1105 1.334 . S
C1105 H1082 0.950 . S
C1105 C1104 1.334 . S
C1105 C1106 1.287 . S
C1106 C1105 1.287 . S
C1106 C1107 1.524 . S
C1106 H1125 0.913 . S
C1107 H1083 0.950 . S
C1107 C1106 1.524 . S
C1107 C1108 1.415 . S
C1108 H1084 0.950 . S
C1108 C1103 1.363 . S
C1108 C1107 1.415 . S
C1109 H1085 0.951 . S
C1109 C1110 1.366 . S
C1109 C1111 1.388 . S
C1110 C1109 1.366 . S
C1110 C1114 1.385 . S
C1111 H1086 0.951 . S
C1111 C1109 1.388 . S
C1111 C1112 1.366 . S
C1112 C1111 1.366 . S
C1112 C1113 1.414 . S
C1112 C1115 1.499 . S
C1113 H1087 0.950 . S
C1113 C1112 1.414 . S
C1113 C1114 1.374 . S
C1114 H1088 0.950 . S
C1114 C1110 1.385 . S
C1114 C1113 1.374 . S
C1115 C1112 1.499 . S
C1115 C1116 1.373 . S
C1115 C1117 1.389 . S
C1116 H1089 0.950 . S
C1116 C1102 1.377 . S
C1116 C1115 1.373 . S
C1117 C1101 1.377 . S
C1117 C1115 1.389 . S
C1117 C1118 1.524 . S
C1118 C1117 1.524 . S
C1118 C1119 1.397 . S
C1118 C1123 1.363 . S
C1119 H1090 0.950 . S
C1119 C1118 1.397 . S
C1119 C1120 1.334 . S
C1120 H1091 0.950 . S
C1120 C1119 1.334 . S
C1120 C1121 1.287 . S
C1121 C1120 1.287 . S
C1121 C1122 1.524 . S
C1121 H1124 0.999 . S
C1122 H1092 0.950 . S
C1122 C1121 1.524 . S
C1122 C1123 1.415 . S
C1123 H1093 0.950 . S
C1123 C1118 1.363 . S
C1123 C1122 1.415 . S
H1124 C1121 0.999 . S
H1125 C1106 0.913 . S
H1126 C1144 0.951 . S
H1127 C1146 0.951 . S
H1128 C1148 0.950 . S
H1129 C1149 0.950 . S
H1130 C1151 0.950 . S
H1131 C1154 0.950 . S
H1132 C1155 0.950 . S
H1133 C1157 0.950 . S
H1134 C1158 0.950 . S
H1135 C1159 0.951 . S
H1136 C1161 0.951 . S
H1137 C1163 0.950 . S
H1138 C1164 0.950 . S
H1139 C1166 0.950 . S
H1140 C1169 0.950 . S
H1141 C1170 0.950 . S
H1142 C1172 0.950 . S
H1143 C1173 0.950 . S
C1144 H1126 0.951 . S
C1144 C1145 1.366 . S
C1144 C1146 1.388 . S
C1145 C1144 1.366 . S
C1145 C1149 1.385 . S
C1146 H1127 0.951 . S
C1146 C1144 1.388 . S
C1146 C1147 1.366 . S
C1147 C1146 1.366 . S
C1147 C1148 1.414 . S
C1147 C1150 1.499 . S
C1148 H1128 0.950 . S
C1148 C1147 1.414 . S
C1148 C1149 1.374 . S
C1149 H1129 0.950 . S
C1149 C1145 1.385 . S
C1149 C1148 1.374 . S
C1150 C1147 1.499 . S
C1150 C1151 1.373 . S
C1150 C1152 1.389 . S
C1151 H1130 0.950 . S
C1151 C1150 1.373 . S
C1151 C1167 1.377 . S
C1152 C1150 1.389 . S
C1152 C1153 1.524 . S
C1152 C1166 1.377 . S
C1153 C1152 1.524 . S
C1153 C1154 1.397 . S
C1153 C1158 1.363 . S
C1154 H1131 0.950 . S
C1154 C1153 1.397 . S
C1154 C1155 1.334 . S
C1155 H1132 0.950 . S
C1155 C1154 1.334 . S
C1155 C1156 1.287 . S
C1156 C1155 1.287 . S
C1156 C1157 1.524 . S
C1156 H1175 0.913 . S
C1157 H1133 0.950 . S
C1157 C1156 1.524 . S
C1157 C1158 1.415 . S
C1158 H1134 0.950 . S
C1158 C1153 1.363 . S
C1158 C1157 1.415 . S
C1159 H1135 0.951 . S
C1159 C1160 1.366 . S
C1159 C1161 1.388 . S
C1160 C1159 1.366 . S
C1160 C1164 1.385 . S
C1161 H1136 0.951 . S
C1161 C1159 1.388 . S
C1161 C1162 1.366 . S
C1162 C1161 1.366 . S
C1162 C1163 1.414 . S
C1162 C1165 1.499 . S
C1163 H1137 0.950 . S
C1163 C1162 1.414 . S
C1163 C1164 1.374 . S
C1164 H1138 0.950 . S
C1164 C1160 1.385 . S
C1164 C1163 1.374 . S
C1165 C1162 1.499 . S
C1165 C1166 1.373 . S
C1165 C1167 1.389 . S
C1166 H1139 0.950 . S
C1166 C1152 1.377 . S
C1166 C1165 1.373 . S
C1167 C1151 1.377 . S
C1167 C1165 1.389 . S
C1167 C1168 1.524 . S
C1168 C1167 1.524 . S
C1168 C1169 1.397 . S
C1168 C1173 1.363 . S
C1169 H1140 0.950 . S
C1169 C1168 1.397 . S
C1169 C1170 1.334 . S
C1170 H1141 0.950 . S
C1170 C1169 1.334 . S
C1170 C1171 1.287 . S
C1171 C1170 1.287 . S
C1171 C1172 1.524 . S
C1171 H1174 0.999 . S
C1172 H1142 0.950 . S
C1172 C1171 1.524 . S
C1172 C1173 1.415 . S
C1173 H1143 0.950 . S
C1173 C1168 1.363 . S
C1173 C1172 1.415 . S
H1174 C1171 0.999 . S
H1175 C1156 0.913 . S
H1176 C1194 0.951 . S
H1177 C1196 0.951 . S
H1178 C1198 0.950 . S
H1179 C1199 0.950 . S
H1180 C1201 0.950 . S
H1181 C1204 0.950 . S
H1182 C1205 0.950 . S
H1183 C1207 0.950 . S
H1184 C1208 0.950 . S
H1185 C1209 0.951 . S
H1186 C1211 0.951 . S
H1187 C1213 0.950 . S
H1188 C1214 0.950 . S
H1189 C1216 0.950 . S
H1190 C1219 0.950 . S
H1191 C1220 0.950 . S
H1192 C1222 0.950 . S
H1193 C1223 0.950 . S
C1194 H1176 0.951 . S
C1194 C1195 1.366 . S
C1194 C1196 1.388 . S
C1195 C1194 1.366 . S
C1195 C1199 1.385 . S
C1196 H1177 0.951 . S
C1196 C1194 1.388 . S
C1196 C1197 1.366 . S
C1197 C1196 1.366 . S
C1197 C1198 1.414 . S
C1197 C1200 1.499 . S
C1198 H1178 0.950 . S
C1198 C1197 1.414 . S
C1198 C1199 1.374 . S
C1199 H1179 0.950 . S
C1199 C1195 1.385 . S
C1199 C1198 1.374 . S
C1200 C1197 1.499 . S
C1200 C1201 1.373 . S
C1200 C1202 1.389 . S
C1201 H1180 0.950 . S
C1201 C1200 1.373 . S
C1201 C1217 1.377 1_554 S
C1202 C1200 1.389 . S
C1202 C1203 1.526 1_554 S
C1202 C1216 1.377 1_554 S
C1203 C1202 1.526 1_556 S
C1203 C1204 1.391 1_556 S
C1203 C1208 1.368 . S
C1204 H1181 0.950 . S
C1204 C1203 1.391 1_554 S
C1204 C1205 1.334 . S
C1205 H1182 0.950 . S
C1205 C1204 1.334 . S
C1205 C1206 1.287 1_554 S
C1206 C1205 1.287 1_556 S
C1206 C1207 1.524 . S
C1206 H1225 0.913 . S
C1207 H1183 0.950 . S
C1207 C1206 1.524 . S
C1207 C1208 1.415 . S
C1208 H1184 0.950 . S
C1208 C1203 1.368 . S
C1208 C1207 1.415 . S
C1209 H1185 0.951 . S
C1209 C1210 1.366 . S
C1209 C1211 1.388 . S
C1210 C1209 1.366 . S
C1210 C1214 1.385 . S
C1211 H1186 0.951 . S
C1211 C1209 1.388 . S
C1211 C1212 1.366 . S
C1212 C1211 1.366 . S
C1212 C1213 1.414 . S
C1212 C1215 1.499 . S
C1213 H1187 0.950 . S
C1213 C1212 1.414 . S
C1213 C1214 1.374 . S
C1214 H1188 0.950 . S
C1214 C1210 1.385 . S
C1214 C1213 1.374 . S
C1215 C1212 1.499 . S
C1215 C1216 1.373 . S
C1215 C1217 1.389 . S
C1216 H1189 0.950 . S
C1216 C1202 1.377 1_556 S
C1216 C1215 1.373 . S
C1217 C1201 1.377 1_556 S
C1217 C1215 1.389 . S
C1217 C1218 1.523 . S
C1218 C1217 1.523 . S
C1218 C1219 1.402 . S
C1218 C1223 1.358 1_556 S
C1219 H1190 0.950 . S
C1219 C1218 1.402 . S
C1219 C1220 1.334 . S
C1220 H1191 0.950 . S
C1220 C1219 1.334 . S
C1220 C1221 1.287 1_556 S
C1221 C1220 1.287 1_554 S
C1221 C1222 1.524 . S
C1221 H1224 0.999 . S
C1222 H1192 0.950 . S
C1222 C1221 1.524 . S
C1222 C1223 1.415 . S
C1223 H1193 0.950 . S
C1223 C1218 1.358 1_554 S
C1223 C1222 1.415 . S
H1224 C1221 0.999 . S
H1225 C1206 0.913 . S
H1226 C1244 0.951 . S
H1227 C1246 0.951 . S
H1228 C1248 0.950 . S
H1229 C1249 0.950 . S
H1230 C1251 0.950 . S
H1231 C1254 0.950 . S
H1232 C1255 0.950 . S
H1233 C1257 0.950 . S
H1234 C1258 0.950 . S
H1235 C1259 0.951 . S
H1236 C1261 0.951 . S
H1237 C1263 0.950 . S
H1238 C1264 0.950 . S
H1239 C1266 0.950 . S
H1240 C1269 0.950 . S
H1241 C1270 0.950 . S
H1242 C1272 0.950 . S
H1243 C1273 0.950 . S
C1244 H1226 0.951 . S
C1244 C1245 1.366 . S
C1244 C1246 1.388 . S
C1245 C1244 1.366 . S
C1245 C1249 1.385 . S
C1246 H1227 0.951 . S
C1246 C1244 1.388 . S
C1246 C1247 1.366 . S
C1247 C1246 1.366 . S
C1247 C1248 1.414 . S
C1247 C1250 1.499 . S
C1248 H1228 0.950 . S
C1248 C1247 1.414 . S
C1248 C1249 1.374 . S
C1249 H1229 0.950 . S
C1249 C1245 1.385 . S
C1249 C1248 1.374 . S
C1250 C1247 1.499 . S
C1250 C1251 1.373 . S
C1250 C1252 1.389 . S
C1251 H1230 0.950 . S
C1251 C1250 1.373 . S
C1251 C1267 1.377 1_554 S
C1252 C1250 1.389 . S
C1252 C1253 1.524 . S
C1252 C1266 1.377 1_554 S
C1253 C1252 1.524 . S
C1253 C1254 1.397 . S
C1253 C1258 1.363 . S
C1254 H1231 0.950 . S
C1254 C1253 1.397 . S
C1254 C1255 1.334 . S
C1255 H1232 0.950 . S
C1255 C1254 1.334 . S
C1255 C1256 1.287 . S
C1256 C1255 1.287 . S
C1256 C1257 1.524 . S
C1256 H1275 0.913 . S
C1257 H1233 0.950 . S
C1257 C1256 1.524 . S
C1257 C1258 1.415 . S
C1258 H1234 0.950 . S
C1258 C1253 1.363 . S
C1258 C1257 1.415 . S
C1259 H1235 0.951 . S
C1259 C1260 1.366 . S
C1259 C1261 1.388 . S
C1260 C1259 1.366 . S
C1260 C1264 1.385 . S
C1261 H1236 0.951 . S
C1261 C1259 1.388 . S
C1261 C1262 1.366 . S
C1262 C1261 1.366 . S
C1262 C1263 1.414 . S
C1262 C1265 1.499 . S
C1263 H1237 0.950 . S
C1263 C1262 1.414 . S
C1263 C1264 1.374 . S
C1264 H1238 0.950 . S
C1264 C1260 1.385 . S
C1264 C1263 1.374 . S
C1265 C1262 1.499 . S
C1265 C1266 1.373 . S
C1265 C1267 1.389 . S
C1266 H1239 0.950 . S
C1266 C1252 1.377 1_556 S
C1266 C1265 1.373 . S
C1267 C1251 1.377 1_556 S
C1267 C1265 1.389 . S
C1267 C1268 1.524 . S
C1268 C1267 1.524 . S
C1268 C1269 1.397 . S
C1268 C1273 1.363 . S
C1269 H1240 0.950 . S
C1269 C1268 1.397 . S
C1269 C1270 1.334 . S
C1270 H1241 0.950 . S
C1270 C1269 1.334 . S
C1270 C1271 1.287 . S
C1271 C1270 1.287 . S
C1271 C1272 1.524 . S
C1271 H1274 0.999 . S
C1272 H1242 0.950 . S
C1272 C1271 1.524 . S
C1272 C1273 1.415 . S
C1273 H1243 0.950 . S
C1273 C1268 1.363 . S
C1273 C1272 1.415 . S
H1274 C1271 0.999 . S
H1275 C1256 0.913 . S
H1276 C1294 0.951 . S
H1277 C1296 0.951 . S
H1278 C1298 0.950 . S
H1279 C1299 0.950 . S
H1280 C1301 0.950 . S
H1281 C1304 0.950 . S
H1282 C1305 0.950 . S
H1283 C1307 0.950 . S
H1284 C1308 0.950 . S
H1285 C1309 0.951 . S
H1286 C1311 0.951 . S
H1287 C1313 0.950 . S
H1288 C1314 0.950 . S
H1289 C1316 0.950 . S
H1290 C1319 0.950 . S
H1291 C1320 0.950 . S
H1292 C1322 0.950 . S
H1293 C1323 0.950 . S
C1294 H1276 0.951 . S
C1294 C1295 1.366 . S
C1294 C1296 1.388 . S
C1295 C1294 1.366 . S
C1295 C1299 1.385 . S
C1296 H1277 0.951 . S
C1296 C1294 1.388 . S
C1296 C1297 1.366 . S
C1297 C1296 1.366 . S
C1297 C1298 1.414 . S
C1297 C1300 1.499 . S
C1298 H1278 0.950 . S
C1298 C1297 1.414 . S
C1298 C1299 1.374 . S
C1299 H1279 0.950 . S
C1299 C1295 1.385 . S
C1299 C1298 1.374 . S
C1300 C1297 1.499 . S
C1300 C1301 1.373 . S
C1300 C1302 1.389 . S
C1301 H1280 0.950 . S
C1301 C1300 1.373 . S
C1301 C1317 1.377 1_556 S
C1302 C1300 1.389 . S
C1302 C1303 1.524 . S
C1302 C1316 1.377 1_556 S
C1303 C1302 1.524 . S
C1303 C1304 1.397 . S
C1303 C1308 1.363 1_556 S
C1304 H1281 0.950 . S
C1304 C1303 1.397 . S
C1304 C1305 1.334 . S
C1305 H1282 0.950 . S
C1305 C1304 1.334 . S
C1305 C1306 1.287 . S
C1306 C1305 1.287 . S
C1306 C1307 1.524 1_556 S
C1306 H1325 0.913 . S
C1307 H1283 0.950 . S
C1307 C1306 1.524 1_554 S
C1307 C1308 1.415 . S
C1308 H1284 0.950 . S
C1308 C1303 1.363 1_554 S
C1308 C1307 1.415 . S
C1309 H1285 0.951 . S
C1309 C1310 1.366 . S
C1309 C1311 1.388 . S
C1310 C1309 1.366 . S
C1310 C1314 1.385 . S
C1311 H1286 0.951 . S
C1311 C1309 1.388 . S
C1311 C1312 1.366 . S
C1312 C1311 1.366 . S
C1312 C1313 1.414 . S
C1312 C1315 1.499 . S
C1313 H1287 0.950 . S
C1313 C1312 1.414 . S
C1313 C1314 1.374 . S
C1314 H1288 0.950 . S
C1314 C1310 1.385 . S
C1314 C1313 1.374 . S
C1315 C1312 1.499 . S
C1315 C1316 1.373 . S
C1315 C1317 1.389 . S
C1316 H1289 0.950 . S
C1316 C1302 1.377 1_554 S
C1316 C1315 1.373 . S
C1317 C1301 1.377 1_554 S
C1317 C1315 1.389 . S
C1317 C1318 1.524 . S
C1318 C1317 1.524 . S
C1318 C1319 1.397 . S
C1318 C1323 1.363 1_554 S
C1319 H1290 0.950 . S
C1319 C1318 1.397 . S
C1319 C1320 1.334 . S
C1320 H1291 0.950 . S
C1320 C1319 1.334 . S
C1320 C1321 1.287 . S
C1321 C1320 1.287 . S
C1321 C1322 1.524 1_554 S
C1321 H1324 0.999 . S
C1322 H1292 0.950 . S
C1322 C1321 1.524 1_556 S
C1322 C1323 1.415 . S
C1323 H1293 0.950 . S
C1323 C1318 1.363 1_556 S
C1323 C1322 1.415 . S
H1324 C1321 0.999 . S
H1325 C1306 0.913 . S
H1326 C1344 0.951 . S
H1327 C1346 0.951 . S
H1328 C1348 0.950 . S
H1329 C1349 0.950 . S
H1330 C1351 0.950 . S
H1331 C1354 0.950 . S
H1332 C1355 0.950 . S
H1333 C1357 0.950 . S
H1334 C1358 0.950 . S
H1335 C1359 0.951 . S
H1336 C1361 0.951 . S
H1337 C1363 0.950 . S
H1338 C1364 0.950 . S
H1339 C1366 0.950 . S
H1340 C1369 0.950 . S
H1341 C1370 0.950 . S
H1342 C1372 0.950 . S
H1343 C1373 0.950 . S
C1344 H1326 0.951 . S
C1344 C1345 1.366 . S
C1344 C1346 1.388 . S
C1345 C1344 1.366 . S
C1345 C1349 1.385 . S
C1346 H1327 0.951 . S
C1346 C1344 1.388 . S
C1346 C1347 1.366 . S
C1347 C1346 1.366 . S
C1347 C1348 1.414 . S
C1347 C1350 1.499 . S
C1348 H1328 0.950 . S
C1348 C1347 1.414 . S
C1348 C1349 1.374 . S
C1349 H1329 0.950 . S
C1349 C1345 1.385 . S
C1349 C1348 1.374 . S
C1350 C1347 1.499 . S
C1350 C1351 1.373 . S
C1350 C1352 1.389 . S
C1351 H1330 0.950 . S
C1351 C1350 1.373 . S
C1351 C1367 1.377 1_554 S
C1352 C1350 1.389 . S
C1352 C1353 1.524 . S
C1352 C1366 1.377 1_554 S
C1353 C1352 1.524 . S
C1353 C1354 1.397 . S
C1353 C1358 1.363 . S
C1354 H1331 0.950 . S
C1354 C1353 1.397 . S
C1354 C1355 1.334 . S
C1355 H1332 0.950 . S
C1355 C1354 1.334 . S
C1355 C1356 1.287 . S
C1356 C1355 1.287 . S
C1356 C1357 1.524 . S
C1356 H1375 0.913 . S
C1357 H1333 0.950 . S
C1357 C1356 1.524 . S
C1357 C1358 1.415 . S
C1358 H1334 0.950 . S
C1358 C1353 1.363 . S
C1358 C1357 1.415 . S
C1359 H1335 0.951 . S
C1359 C1360 1.366 . S
C1359 C1361 1.388 . S
C1360 C1359 1.366 . S
C1360 C1364 1.385 . S
C1361 H1336 0.951 . S
C1361 C1359 1.388 . S
C1361 C1362 1.366 . S
C1362 C1361 1.366 . S
C1362 C1363 1.414 . S
C1362 C1365 1.499 . S
C1363 H1337 0.950 . S
C1363 C1362 1.414 . S
C1363 C1364 1.374 . S
C1364 H1338 0.950 . S
C1364 C1360 1.385 . S
C1364 C1363 1.374 . S
C1365 C1362 1.499 . S
C1365 C1366 1.373 . S
C1365 C1367 1.389 . S
C1366 H1339 0.950 . S
C1366 C1352 1.377 1_556 S
C1366 C1365 1.373 . S
C1367 C1351 1.377 1_556 S
C1367 C1365 1.389 . S
C1367 C1368 1.524 . S
C1368 C1367 1.524 . S
C1368 C1369 1.397 . S
C1368 C1373 1.363 . S
C1369 H1340 0.950 . S
C1369 C1368 1.397 . S
C1369 C1370 1.334 . S
C1370 H1341 0.950 . S
C1370 C1369 1.334 . S
C1370 C1371 1.287 . S
C1371 C1370 1.287 . S
C1371 C1372 1.524 . S
C1371 H1374 0.999 . S
C1372 H1342 0.950 . S
C1372 C1371 1.524 . S
C1372 C1373 1.415 . S
C1373 H1343 0.950 . S
C1373 C1368 1.363 . S
C1373 C1372 1.415 . S
H1374 C1371 0.999 . S
H1375 C1356 0.913 . S
C195 C175 1.290 . S
C210 C18 1.277 . S
C245 C40 1.277 . S
C260 C153 1.291 . S
C295 C117 1.296 . S
C310 C62 1.280 . S
C345 C74 1.281 . S
C360 C103 1.296 . S
C395 C81 1.290 . S
C410 C106 1.277 . S
C445 C65 1.291 . S
C460 C118 1.277 . S
C495 C37 1.296 . S
C510 C150 1.280 . S
C545 C15 1.296 . S
C560 C172 1.280 . S
C595 C43 1.476 . S
C610 C21 1.475 . S
C645 C73 1.484 . S
C660 C59 1.484 . S
C695 C109 1.475 . S
C710 C125 1.476 . S
C745 C169 1.484 . S
C760 C147 1.484 . S
C795 C84 1.397 . S
C810 C8 1.398 . S
C845 C54 1.398 . S
C860 C30 1.398 . S
C895 C96 1.398 . S
C910 C164 1.397 . S
C945 C120 1.398 . S
C960 C142 1.398 . S
C995 C140 1.853 . S
C1010 C10 1.863 . S
C1045 C32 1.862 . S
C1060 C162 1.853 . S
C1095 C98 1.863 . S
C1110 C52 1.853 . S
C1145 C128 1.862 . S
C1160 C76 1.853 . S
C1195 C7 0.726 . S
C1210 C139 0.725 . S
C1245 C161 0.724 . S
C1260 C29 0.725 . S
C1295 C51 0.726 . S
C1310 C95 0.727 . S
C1345 C87 0.724 . S
C1360 C131 0.725 . S
