# Generated by pormake.
# Topology soi, (5)-cn, num edge types: 1
# Building blocks:
#     Node 0, Type 0, BuildingBlock: BEQFEK_clean_sbu_0, # of connection points: 5
#     Node 1, Type 0, BuildingBlock: BEQFEK_clean_sbu_0, # of connection points: 5
#     Node 2, Type 0, BuildingBlock: BEQFEK_clean_sbu_0, # of connection points: 5
#     Node 3, Type 0, BuildingBlock: BEQFEK_clean_sbu_0, # of connection points: 5
#     Node 4, Type 0, BuildingBlock: BEQFEK_clean_sbu_0, # of connection points: 5
#     Node 5, Type 0, BuildingBlock: BEQFEK_clean_sbu_0, # of connection points: 5
#     Node 6, Type 0, BuildingBlock: BEQFEK_clean_sbu_0, # of connection points: 5
#     Node 7, Type 0, BuildingBlock: BEQFEK_clean_sbu_0, # of connection points: 5
#     Node 8, Type 0, BuildingBlock: BEQFEK_clean_sbu_0, # of connection points: 5
#     Node 9, Type 0, BuildingBlock: BEQFEK_clean_sbu_0, # of connection points: 5
#     Node 10, Type 0, BuildingBlock: BEQFEK_clean_sbu_0, # of connection points: 5
#     Node 11, Type 0, BuildingBlock: BEQFEK_clean_sbu_0, # of connection points: 5
#     Node 12, Type 0, BuildingBlock: BEQFEK_clean_sbu_0, # of connection points: 5
#     Node 13, Type 0, BuildingBlock: BEQFEK_clean_sbu_0, # of connection points: 5
#     Node 14, Type 0, BuildingBlock: BEQFEK_clean_sbu_0, # of connection points: 5
#     Node 15, Type 0, BuildingBlock: BEQFEK_clean_sbu_0, # of connection points: 5
#     Edge 16, Type (0, 0), BuildingBlock: AJUNOK_clean_linker_0, # of connection points: 2
#     Edge 17, Type (0, 0), BuildingBlock: AJUNOK_clean_linker_0, # of connection points: 2
#     Edge 18, Type (0, 0), BuildingBlock: AJUNOK_clean_linker_0, # of connection points: 2
#     Edge 19, Type (0, 0), BuildingBlock: AJUNOK_clean_linker_0, # of connection points: 2
#     Edge 20, Type (0, 0), BuildingBlock: AJUNOK_clean_linker_0, # of connection points: 2
#     Edge 21, Type (0, 0), BuildingBlock: AJUNOK_clean_linker_0, # of connection points: 2
#     Edge 22, Type (0, 0), BuildingBlock: AJUNOK_clean_linker_0, # of connection points: 2
#     Edge 23, Type (0, 0), BuildingBlock: AJUNOK_clean_linker_0, # of connection points: 2
#     Edge 24, Type (0, 0), BuildingBlock: AJUNOK_clean_linker_0, # of connection points: 2
#     Edge 25, Type (0, 0), BuildingBlock: AJUNOK_clean_linker_0, # of connection points: 2
#     Edge 26, Type (0, 0), BuildingBlock: AJUNOK_clean_linker_0, # of connection points: 2
#     Edge 27, Type (0, 0), BuildingBlock: AJUNOK_clean_linker_0, # of connection points: 2
#     Edge 28, Type (0, 0), BuildingBlock: AJUNOK_clean_linker_0, # of connection points: 2
#     Edge 29, Type (0, 0), BuildingBlock: AJUNOK_clean_linker_0, # of connection points: 2
#     Edge 30, Type (0, 0), BuildingBlock: AJUNOK_clean_linker_0, # of connection points: 2
#     Edge 31, Type (0, 0), BuildingBlock: AJUNOK_clean_linker_0, # of connection points: 2
#     Edge 32, Type (0, 0), BuildingBlock: AJUNOK_clean_linker_0, # of connection points: 2
#     Edge 33, Type (0, 0), BuildingBlock: AJUNOK_clean_linker_0, # of connection points: 2
#     Edge 34, Type (0, 0), BuildingBlock: AJUNOK_clean_linker_0, # of connection points: 2
#     Edge 35, Type (0, 0), BuildingBlock: AJUNOK_clean_linker_0, # of connection points: 2
#     Edge 36, Type (0, 0), BuildingBlock: AJUNOK_clean_linker_0, # of connection points: 2
#     Edge 37, Type (0, 0), BuildingBlock: AJUNOK_clean_linker_0, # of connection points: 2
#     Edge 38, Type (0, 0), BuildingBlock: AJUNOK_clean_linker_0, # of connection points: 2
#     Edge 39, Type (0, 0), BuildingBlock: AJUNOK_clean_linker_0, # of connection points: 2
#     Edge 40, Type (0, 0), BuildingBlock: AJUNOK_clean_linker_0, # of connection points: 2
#     Edge 41, Type (0, 0), BuildingBlock: AJUNOK_clean_linker_0, # of connection points: 2
#     Edge 42, Type (0, 0), BuildingBlock: AJUNOK_clean_linker_0, # of connection points: 2
#     Edge 43, Type (0, 0), BuildingBlock: AJUNOK_clean_linker_0, # of connection points: 2
#     Edge 44, Type (0, 0), BuildingBlock: AJUNOK_clean_linker_0, # of connection points: 2
#     Edge 45, Type (0, 0), BuildingBlock: AJUNOK_clean_linker_0, # of connection points: 2
#     Edge 46, Type (0, 0), BuildingBlock: AJUNOK_clean_linker_0, # of connection points: 2
#     Edge 47, Type (0, 0), BuildingBlock: AJUNOK_clean_linker_0, # of connection points: 2
#     Edge 48, Type (0, 0), BuildingBlock: AJUNOK_clean_linker_0, # of connection points: 2
#     Edge 49, Type (0, 0), BuildingBlock: AJUNOK_clean_linker_0, # of connection points: 2
#     Edge 50, Type (0, 0), BuildingBlock: AJUNOK_clean_linker_0, # of connection points: 2
#     Edge 51, Type (0, 0), BuildingBlock: AJUNOK_clean_linker_0, # of connection points: 2
#     Edge 52, Type (0, 0), BuildingBlock: AJUNOK_clean_linker_0, # of connection points: 2
#     Edge 53, Type (0, 0), BuildingBlock: AJUNOK_clean_linker_0, # of connection points: 2
#     Edge 54, Type (0, 0), BuildingBlock: AJUNOK_clean_linker_0, # of connection points: 2
#     Edge 55, Type (0, 0), BuildingBlock: AJUNOK_clean_linker_0, # of connection points: 2
# Relax obj value: 0.110
# Max RMSD: 0.193
# Mean RMSD: 0.176
data_MOF--net-soi--node1-BEQFEK_clean_sbu_0--edge1-AJUNOK_clean_linker_0
_symmetry_space_group_name_H-M    P1
_symmetry_Int_Tables_number       1
_symmetry_cell_setting            triclinic
loop_
_symmetry_equiv_pos_as_xyz
'x, y, z'
_cell_length_a     26.893793
_cell_length_b     20.905499
_cell_length_c     59.206718
_cell_angle_alpha  89.936085
_cell_angle_beta   89.863342
_cell_angle_gamma 90.347847
loop_
_atom_site_label
_atom_site_type_symbol
_atom_site_fract_x
_atom_site_fract_y
_atom_site_fract_z
_atom_type_partial_charge
Co0 Co 0.34323 0.08636 0.15855 0.0
Co1 Co 0.328 0.09206 0.10557 0.0
C2 C 0.26389 0.16696 0.13643 0.0
O3 O 0.2875 0.14733 0.15372 0.0
O4 O 0.27443 0.14736 0.11668 0.0
C5 C 0.37793 0.07567 0.20598 0.0
O6 O 0.4175 0.10926 0.2004 0.0
C7 C 0.28803 0.10695 0.05943 0.0
C8 C 0.32794 0.03138 0.04096 0.0
C9 C 0.29049 0.07624 0.0386 0.0
N10 N 0.32096 0.07976 0.07353 0.0
N11 N 0.34555 0.03573 0.06217 0.0
C12 C 0.25765 0.16414 0.06544 0.0
H13 H 0.2779 0.19464 0.0777 0.0
H14 H 0.22232 0.1477 0.07321 0.0
H15 H 0.24917 0.19319 0.05025 0.0
C16 C 0.3351 0.94896 0.14937 0.0
N17 N 0.33633 0.00986 0.14209 0.0
N18 N 0.32483 0.01152 0.12054 0.0
C19 C 0.3122 0.95181 0.11388 0.0
C20 C 0.31918 0.91009 0.13191 0.0
C21 C 0.34835 0.92828 0.17276 0.0
H22 H 0.31597 0.93629 0.18395 0.0
H23 H 0.35792 0.87672 0.17322 0.0
H24 H 0.38042 0.95664 0.17902 0.0
O25 O 0.40311 0.13045 0.14889 0.0
O26 O 0.39268 0.13818 0.11167 0.0
H27 H 0.25831 0.89744 0.0948 0.0
H28 H 0.26596 0.97953 0.08592 0.0
C29 C 0.28569 0.93677 0.09229 0.0
H30 H 0.31304 0.9209 0.07946 0.0
H31 H 0.37328 0.00707 0.06913 0.0
O32 O 0.34473 0.06432 0.19122 0.0
C33 C 0.41776 0.14957 0.12956 0.0
Co34 Co 0.63583 0.41552 0.16487 0.0
Co35 Co 0.66402 0.40424 0.11246 0.0
C36 C 0.72072 0.33457 0.14755 0.0
O37 O 0.69376 0.35628 0.16356 0.0
O38 O 0.71464 0.35176 0.12711 0.0
C39 C 0.6314 0.41024 0.21495 0.0
O40 O 0.64996 0.35247 0.21313 0.0
C41 C 0.71453 0.38831 0.06802 0.0
C42 C 0.67276 0.4569 0.04715 0.0
C43 C 0.71289 0.41553 0.04649 0.0
N44 N 0.67797 0.41383 0.08071 0.0
N45 N 0.65269 0.45389 0.06794 0.0
C46 C 0.74772 0.33588 0.07611 0.0
H47 H 0.72725 0.30441 0.08806 0.0
H48 H 0.77998 0.35712 0.0851 0.0
H49 H 0.76126 0.30638 0.06183 0.0
C50 C 0.64868 0.55116 0.15398 0.0
N51 N 0.64634 0.48982 0.14733 0.0
N52 N 0.66232 0.48562 0.12638 0.0
C53 C 0.67825 0.5439 0.11958 0.0
C54 C 0.66963 0.58732 0.13683 0.0
C55 C 0.63234 0.57445 0.17663 0.0
H56 H 0.59456 0.55539 0.18016 0.0
H57 H 0.65805 0.5564 0.18977 0.0
H58 H 0.63149 0.6275 0.17733 0.0
O59 O 0.58098 0.36508 0.15271 0.0
O60 O 0.60021 0.35537 0.11616 0.0
H61 H 0.68426 0.56944 0.08473 0.0
H62 H 0.73582 0.59571 0.10155 0.0
C63 C 0.70904 0.55586 0.09886 0.0
H64 H 0.73003 0.51238 0.09419 0.0
H65 H 0.62244 0.48052 0.07363 0.0
O66 O 0.62223 0.44177 0.19703 0.0
C67 C 0.57251 0.34239 0.13312 0.0
Co68 Co 0.32872 0.91475 0.4147 0.0
Co69 Co 0.34263 0.91813 0.36211 0.0
C70 C 0.41392 0.84831 0.39049 0.0
O71 O 0.38931 0.86366 0.40817 0.0
O72 O 0.40214 0.86928 0.37092 0.0
C73 C 0.33397 0.91814 0.46563 0.0
O74 O 0.38153 0.90437 0.46636 0.0
C75 C 0.36822 0.9501 0.31392 0.0
C76 C 0.29149 0.96196 0.30125 0.0
C77 C 0.34087 0.96764 0.29493 0.0
N78 N 0.33595 0.93639 0.33072 0.0
N79 N 0.29034 0.94292 0.32286 0.0
C80 C 0.42339 0.94368 0.31597 0.0
H81 H 0.43238 0.9028 0.32718 0.0
H82 H 0.43908 0.98751 0.32379 0.0
H83 H 0.44082 0.93669 0.29915 0.0
C84 C 0.32061 0.05345 0.40795 0.0
N85 N 0.33 0.99421 0.40027 0.0
N86 N 0.33832 -0.00364 0.37842 0.0
C87 C 0.33636 0.05781 0.37162 0.0
C88 C 0.32412 0.09595 0.38998 0.0
C89 C 0.30223 0.06688 0.43136 0.0
H90 H 0.27033 0.03479 0.43527 0.0
H91 H 0.33222 0.05617 0.44361 0.0
H92 H 0.29044 0.1172 0.4335 0.0
O93 O 0.27288 0.86341 0.40484 0.0
O94 O 0.28642 0.85804 0.36813 0.0
H95 H 0.31385 0.06459 0.33703 0.0
H96 H 0.34862 0.13296 0.34703 0.0
C97 C 0.34515 0.08008 0.3479 0.0
H98 H 0.37978 0.05853 0.34134 0.0
H99 H 0.25825 0.93614 0.33252 0.0
O100 O 0.3123 0.92429 0.44678 0.0
C101 C 0.26197 0.84146 0.3856 0.0
Co102 Co 0.64104 0.58737 0.42094 0.0
Co103 Co 0.65225 0.59141 0.36778 0.0
C104 C 0.56464 0.64951 0.39473 0.0
O105 O 0.57862 0.62899 0.41397 0.0
O106 O 0.58929 0.63735 0.3767 0.0
C107 C 0.65516 0.61095 0.46907 0.0
O108 O 0.63768 0.66857 0.46546 0.0
C109 C 0.62987 0.53754 0.3222 0.0
C110 C 0.68161 0.59392 0.30096 0.0
C111 C 0.64652 0.54537 0.30017 0.0
N112 N 0.65435 0.57945 0.33552 0.0
N113 N 0.68497 0.61315 0.3226 0.0
C114 C 0.58992 0.49283 0.33015 0.0
H115 H 0.58628 0.49425 0.34881 0.0
H116 H 0.59803 0.44345 0.32443 0.0
H117 H 0.55409 0.50693 0.32239 0.0
C118 C 0.65277 0.4515 0.41281 0.0
N119 N 0.64777 0.51109 0.40479 0.0
N120 N 0.65884 0.51218 0.38318 0.0
C121 C 0.67456 0.45351 0.37705 0.0
C122 C 0.67048 0.41281 0.39564 0.0
C123 C 0.64237 0.43293 0.43681 0.0
H124 H 0.60996 0.46001 0.44328 0.0
H125 H 0.63475 0.38084 0.43825 0.0
H126 H 0.67506 0.4451 0.4474 0.0
O127 O 0.69229 0.6507 0.41295 0.0
O128 O 0.70687 0.65053 0.37609 0.0
H129 H 0.7327 0.40649 0.35837 0.0
H130 H 0.67568 0.41716 0.34327 0.0
C131 C 0.7015 0.43998 0.35542 0.0
H132 H 0.71623 0.48487 0.3479 0.0
H133 H 0.70882 0.64881 0.32862 0.0
O134 O 0.6547 0.57003 0.45323 0.0
C135 C 0.71563 0.67184 0.3958 0.0
Co136 Co 0.65262 0.90073 0.93613 0.0
Co137 Co 0.641 0.90351 0.88256 0.0
C138 C 0.56442 0.84452 0.91557 0.0
O139 O 0.58664 0.85899 0.93392 0.0
O140 O 0.58247 0.85953 0.89627 0.0
C141 C 0.66481 0.92491 0.98674 0.0
O142 O 0.61868 0.94413 0.98904 0.0
C143 C 0.6018 0.95076 0.83784 0.0
C144 C 0.64685 0.89094 0.81499 0.0
C145 C 0.61093 0.93801 0.81509 0.0
N146 N 0.63127 0.91282 0.85045 0.0
N147 N 0.65762 0.87695 0.83656 0.0
C148 C 0.56342 0.99458 0.84741 0.0
H149 H 0.56197 0.99037 0.8661 0.0
H150 H 0.5719 0.04474 0.84269 0.0
H151 H 0.52653 0.98242 0.84016 0.0
C152 C 0.66304 0.0397 0.92781 0.0
N153 N 0.6544 0.98011 0.9202 0.0
N154 N 0.65436 0.98091 0.89793 0.0
C155 C 0.66581 0.04037 0.89074 0.0
C156 C 0.67123 0.07973 0.90944 0.0
C157 C 0.66307 0.0577 0.95225 0.0
H158 H 0.62939 0.03755 0.96046 0.0
H159 H 0.66334 0.1104 0.9545 0.0
H160 H 0.69616 0.03699 0.9606 0.0
O161 O 0.69949 0.83917 0.92286 0.0
O162 O 0.69746 0.84576 0.88559 0.0
H163 H 0.71216 0.08943 0.86653 0.0
H164 H 0.64802 0.08257 0.8589 0.0
C165 C 0.67936 0.05695 0.86689 0.0
H166 H 0.68799 0.01338 0.85705 0.0
H167 H 0.68358 0.84317 0.84177 0.0
O168 O 0.68073 0.90776 0.96744 0.0
C169 C 0.71513 0.82211 0.90354 0.0
Co170 Co 0.31594 0.58526 0.92724 0.0
Co171 Co 0.3517 0.5819 0.87588 0.0
C172 C 0.41019 0.65175 0.90962 0.0
O173 O 0.37982 0.63744 0.92558 0.0
O174 O 0.4055 0.62948 0.88971 0.0
C175 C 0.29963 0.54151 0.97548 0.0
O176 O 0.33378 0.49732 0.9733 0.0
C177 C 0.39764 0.55334 0.83038 0.0
C178 C 0.33112 0.56804 0.80925 0.0
C179 C 0.38056 0.55079 0.80824 0.0
N180 N 0.35958 0.57108 0.84385 0.0
N181 N 0.3203 0.58058 0.83092 0.0
C182 C 0.44952 0.54163 0.83835 0.0
H183 H 0.45164 0.54491 0.85703 0.0
H184 H 0.46233 0.49396 0.83266 0.0
H185 H 0.47478 0.57783 0.83068 0.0
C186 C 0.3047 0.44504 0.91689 0.0
N187 N 0.32023 0.50485 0.91169 0.0
N188 N 0.33937 0.50412 0.89117 0.0
C189 C 0.33938 0.4438 0.88332 0.0
C190 C 0.31733 0.40433 0.89924 0.0
C191 C 0.26998 0.42937 0.93594 0.0
H192 H 0.25038 0.47285 0.94173 0.0
H193 H 0.2913 0.40866 0.95015 0.0
H194 H 0.24204 0.39316 0.93061 0.0
O195 O 0.26591 0.63933 0.91294 0.0
O196 O 0.2949 0.64007 0.87798 0.0
H197 H 0.33456 0.44336 0.84726 0.0
H198 H 0.36169 0.37177 0.85904 0.0
C199 C 0.35909 0.42449 0.86071 0.0
H200 H 0.39674 0.44497 0.85848 0.0
H201 H 0.28545 0.59401 0.83697 0.0
O202 O 0.29007 0.57865 0.95905 0.0
C203 C 0.26431 0.65949 0.89275 0.0
Co204 Co 0.6657 0.08147 0.60917 0.0
Co205 Co 0.63875 0.0884 0.66177 0.0
C206 C 0.5712 0.14336 0.62697 0.0
O207 O 0.59986 0.12809 0.61054 0.0
O208 O 0.58149 0.12912 0.6474 0.0
C209 C 0.68288 0.03444 0.56075 0.0
O210 O 0.64844 0.98992 0.56244 0.0
C211 C 0.59696 0.06491 0.70862 0.0
C212 C 0.66522 0.08394 0.72825 0.0
C213 C 0.61619 0.06484 0.7305 0.0
N214 N 0.63353 0.08264 0.69421 0.0
N215 N 0.67383 0.09477 0.70625 0.0
C216 C 0.54441 0.05198 0.70165 0.0
H217 H 0.54252 0.04107 0.68333 0.0
H218 H 0.52779 0.01244 0.71166 0.0
H219 H 0.52203 0.09544 0.70492 0.0
C220 C 0.68098 0.94422 0.62286 0.0
N221 N 0.66579 0.00452 0.62707 0.0
N222 N 0.65143 0.00776 0.64839 0.0
C223 C 0.65476 0.94942 0.65791 0.0
C224 C 0.67392 0.90745 0.64216 0.0
C225 C 0.70874 0.92419 0.60214 0.0
H226 H 0.72829 0.96568 0.5945 0.0
H227 H 0.68215 0.90358 0.58982 0.0
H228 H 0.73645 0.8868 0.60621 0.0
O229 O 0.71532 0.1401 0.62127 0.0
O230 O 0.69585 0.14662 0.65744 0.0
H231 H 0.66483 0.95872 0.69361 0.0
H232 H 0.64056 0.88171 0.68498 0.0
C233 C 0.63965 0.93392 0.68163 0.0
H234 H 0.60127 0.95075 0.68452 0.0
H235 H 0.70797 0.10859 0.69935 0.0
O236 O 0.69147 0.07161 0.57731 0.0
C237 C 0.72311 0.16255 0.64081 0.0
Co238 Co 0.32719 0.40107 0.60522 0.0
Co239 Co 0.35095 0.39876 0.65804 0.0
C240 C 0.41687 0.3343 0.62414 0.0
O241 O 0.39158 0.35157 0.60692 0.0
O242 O 0.4058 0.35236 0.64405 0.0
C243 C 0.31604 0.43833 0.55547 0.0
O244 O 0.35624 0.47428 0.55598 0.0
C245 C 0.39679 0.42988 0.70303 0.0
C246 C 0.33797 0.39158 0.72542 0.0
C247 C 0.38351 0.42259 0.72561 0.0
N248 N 0.36039 0.40448 0.69014 0.0
N249 N 0.32584 0.38091 0.70377 0.0
C250 C 0.44432 0.45728 0.69398 0.0
H251 H 0.44301 0.46083 0.67528 0.0
H252 H 0.45157 0.50505 0.70145 0.0
H253 H 0.47553 0.42581 0.69896 0.0
C254 C 0.31421 0.54031 0.61674 0.0
N255 N 0.32802 0.48015 0.62214 0.0
N256 N 0.3384 0.4784 0.64392 0.0
C257 C 0.33176 0.53694 0.65289 0.0
C258 C 0.3166 0.57824 0.63601 0.0
C259 C 0.29273 0.5591 0.59443 0.0
H260 H 0.269 0.51991 0.58782 0.0
H261 H 0.32349 0.56802 0.58231 0.0
H262 H 0.27029 0.6033 0.59581 0.0
O263 O 0.27716 0.34206 0.61811 0.0
O264 O 0.29369 0.3415 0.65469 0.0
H265 H 0.31515 0.51841 0.68775 0.0
H266 H 0.32635 0.60199 0.68148 0.0
C267 C 0.33748 0.55238 0.67745 0.0
H268 H 0.37702 0.54763 0.6821 0.0
H269 H 0.29319 0.35872 0.6983 0.0
O270 O 0.30212 0.4088 0.57323 0.0
C271 C 0.26864 0.32165 0.63796 0.0
Co272 Co 0.84867 0.58037 0.66728 0.0
Co273 Co 0.82323 0.58381 0.61478 0.0
C274 C 0.76583 0.66063 0.647 0.0
O275 O 0.79248 0.6415 0.66343 0.0
O276 O 0.77208 0.63926 0.62713 0.0
C277 C 0.81449 0.53717 0.70898 0.0
O278 O 0.77491 0.532 0.69612 0.0
C279 C 0.77855 0.59943 0.56942 0.0
C280 C 0.81502 0.52204 0.55042 0.0
C281 C 0.77889 0.56886 0.54848 0.0
N282 N 0.81153 0.57039 0.58307 0.0
N283 N 0.83398 0.52523 0.57138 0.0
C284 C 0.75105 0.65871 0.57588 0.0
H285 H 0.77333 0.68738 0.58797 0.0
H286 H 0.71543 0.64507 0.58411 0.0
H287 H 0.74324 0.68876 0.56086 0.0
C288 C 0.8425 0.44197 0.65818 0.0
N289 N 0.83978 0.50319 0.65128 0.0
N290 N 0.82323 0.50466 0.6304 0.0
C291 C 0.8109 0.44474 0.62409 0.0
C292 C 0.82378 0.40309 0.64135 0.0
C293 C 0.86502 0.42023 0.67994 0.0
H294 H 0.89269 0.45568 0.68606 0.0
H295 H 0.83548 0.41399 0.69279 0.0
H296 H 0.88328 0.37318 0.67765 0.0
O297 O 0.90714 0.62379 0.65512 0.0
O298 O 0.88824 0.62975 0.61847 0.0
H299 H 0.8037 0.41119 0.5901 0.0
H300 H 0.75251 0.39029 0.60808 0.0
C301 C 0.7796 0.42885 0.60394 0.0
H302 H 0.75897 0.47151 0.5981 0.0
H303 H 0.86164 0.49559 0.57788 0.0
O304 O 0.85401 0.56072 0.70041 0.0
C305 C 0.91722 0.64174 0.63502 0.0
Co306 Co 0.13978 0.90093 0.66213 0.0
Co307 Co 0.15973 0.89917 0.60957 0.0
C308 C 0.22279 0.82465 0.64137 0.0
O309 O 0.19819 0.84321 0.6586 0.0
O310 O 0.21285 0.84466 0.6216 0.0
C311 C 0.14588 0.89052 0.7109 0.0
O312 O 0.17086 0.83785 0.70702 0.0
C313 C 0.20962 0.89824 0.5653 0.0
C314 C 0.15987 0.95893 0.54496 0.0
C315 C 0.20485 0.92703 0.54433 0.0
N316 N 0.17023 0.91439 0.57807 0.0
N317 N 0.14028 0.94994 0.56568 0.0
C318 C 0.24932 0.85319 0.5727 0.0
H319 H 0.23233 0.81194 0.58169 0.0
H320 H 0.27455 0.87872 0.58446 0.0
H321 H 0.27107 0.83485 0.55817 0.0
C322 C 0.15009 0.03868 0.65455 0.0
N323 N 0.14722 0.97864 0.64653 0.0
N324 N 0.15925 0.97854 0.62502 0.0
C325 C 0.17287 0.0384 0.61896 0.0
C326 C 0.16717 0.07851 0.63748 0.0
C327 C 0.13764 0.05723 0.67831 0.0
H328 H 0.10102 0.03641 0.68302 0.0
H329 H 0.16601 0.03765 0.68996 0.0
H330 H 0.13611 0.10997 0.68028 0.0
O331 O 0.08419 0.85193 0.65074 0.0
O332 O 0.09687 0.8482 0.61355 0.0
H333 H 0.16991 0.06446 0.5841 0.0
H334 H 0.22217 0.0981 0.59888 0.0
C335 C 0.19837 0.05487 0.59717 0.0
H336 H 0.22187 0.01454 0.59155 0.0
H337 H 0.10713 0.96957 0.5716 0.0
O338 O 0.12837 0.92136 0.6943 0.0
C339 C 0.07247 0.83205 0.63118 0.0
Co340 Co 0.84947 0.40921 0.92098 0.0
Co341 Co 0.82533 0.40124 0.86857 0.0
C342 C 0.91773 0.34246 0.8904 0.0
O343 O 0.90808 0.36392 0.91012 0.0
O344 O 0.88976 0.3546 0.87345 0.0
C345 C 0.8439 0.38436 0.96874 0.0
O346 O 0.85568 0.32564 0.96313 0.0
C347 C 0.83377 0.43405 0.81921 0.0
C348 C 0.75767 0.40861 0.80847 0.0
C349 C 0.8022 0.43357 0.80046 0.0
N350 N 0.80858 0.41054 0.83717 0.0
N351 N 0.76326 0.39523 0.83047 0.0
C352 C 0.88697 0.45493 0.82019 0.0
H353 H 0.90593 0.43202 0.83471 0.0
H354 H 0.88868 0.50752 0.82259 0.0
H355 H 0.90643 0.44283 0.80422 0.0
C356 C 0.8373 0.54486 0.9118 0.0
N357 N 0.83954 0.48433 0.90443 0.0
N358 N 0.82542 0.48188 0.88322 0.0
C359 C 0.81135 0.54088 0.87669 0.0
C360 C 0.81876 0.58294 0.89463 0.0
C361 C 0.85075 0.56497 0.93527 0.0
H362 H 0.88445 0.53905 0.94086 0.0
H363 H 0.85773 0.6173 0.93616 0.0
H364 H 0.81986 0.55232 0.94694 0.0
O365 O 0.79498 0.34791 0.91734 0.0
O366 O 0.77383 0.34402 0.88128 0.0
H367 H 0.76175 0.59839 0.85629 0.0
H368 H 0.81157 0.55978 0.84122 0.0
C369 C 0.78422 0.55423 0.85514 0.0
H370 H 0.75914 0.51367 0.85105 0.0
H371 H 0.73564 0.37671 0.84107 0.0
O372 O 0.84582 0.42811 0.95383 0.0
C373 C 0.76843 0.32533 0.90155 0.0
Co374 Co 0.15059 0.08042 0.91345 0.0
Co375 Co 0.15066 0.08337 0.86022 0.0
C376 C 0.07059 0.14657 0.88578 0.0
O377 O 0.09039 0.12981 0.90452 0.0
O378 O 0.08867 0.12922 0.86681 0.0
C379 C 0.16566 0.11058 0.95951 0.0
O380 O 0.16172 0.1694 0.95198 0.0
C381 C 0.13499 0.04901 0.81187 0.0
C382 C 0.21367 0.04729 0.80097 0.0
C383 C 0.16596 0.03217 0.79408 0.0
N384 N 0.1636 0.07103 0.82884 0.0
N385 N 0.21032 0.07175 0.82186 0.0
C386 C 0.08009 0.03808 0.81355 0.0
H387 H 0.06755 0.0408 0.8314 0.0
H388 H 0.06989 0.99101 0.80617 0.0
H389 H 0.06082 0.07556 0.80366 0.0
C390 C 0.16488 0.94339 0.90495 0.0
N391 N 0.15558 0.00307 0.89762 0.0
N392 N 0.1528 0.00317 0.87545 0.0
C393 C 0.15831 0.94266 0.86805 0.0
C394 C 0.167 0.90307 0.88639 0.0
C395 C 0.17794 0.92777 0.9289 0.0
H396 H 0.14468 0.93461 0.93973 0.0
H397 H 0.19137 0.87807 0.93083 0.0
H398 H 0.20728 0.96123 0.93483 0.0
O399 O 0.20734 0.13548 0.9072 0.0
O400 O 0.20442 0.14241 0.87 0.0
H401 H 0.18693 0.94457 0.83433 0.0
H402 H 0.15777 0.86965 0.84206 0.0
C403 C 0.15583 0.9224 0.84386 0.0
H404 H 0.12019 0.93828 0.8366 0.0
H405 H 0.24044 0.08459 0.832 0.0
O406 O 0.15679 0.06424 0.94624 0.0
C407 C 0.22343 0.15854 0.8888 0.0
Co408 Co 0.16875 0.41972 0.42665 0.0
Co409 Co 0.13801 0.41241 0.37457 0.0
C410 C 0.07634 0.34976 0.4103 0.0
O411 O 0.10482 0.36747 0.42648 0.0
O412 O 0.08402 0.36752 0.38996 0.0
C413 C 0.20376 0.39698 0.47206 0.0
O414 O 0.19463 0.33724 0.46648 0.0
C415 C 0.09269 0.43687 0.32879 0.0
C416 C 0.15516 0.40487 0.30745 0.0
C417 C 0.10825 0.43133 0.30645 0.0
N418 N 0.12922 0.41511 0.34233 0.0
N419 N 0.16595 0.39514 0.3293 0.0
C420 C 0.04312 0.45934 0.33695 0.0
H421 H 0.04259 0.4629 0.35566 0.0
H422 H 0.03404 0.50625 0.32927 0.0
H423 H 0.0141 0.42479 0.33146 0.0
C424 C 0.17662 0.55708 0.41361 0.0
N425 N 0.164 0.49614 0.40874 0.0
N426 N 0.15029 0.49313 0.38742 0.0
C427 C 0.15312 0.55193 0.37819 0.0
C428 C 0.16976 0.5945 0.39443 0.0
C429 C 0.2016 0.57645 0.43511 0.0
H430 H 0.17527 0.56997 0.4494 0.0
H431 H 0.2149 0.62673 0.43468 0.0
H432 H 0.23382 0.54469 0.43804 0.0
O433 O 0.21971 0.36136 0.41432 0.0
O434 O 0.19516 0.35652 0.37871 0.0
H435 H 0.16467 0.53687 0.34276 0.0
H436 H 0.14753 0.618 0.34987 0.0
C437 C 0.14155 0.56685 0.35404 0.0
H438 H 0.10197 0.55594 0.35092 0.0
H439 H 0.1993 0.3766 0.33533 0.0
O440 O 0.19267 0.441 0.45808 0.0
C441 C 0.22372 0.33869 0.39449 0.0
Co442 Co 0.83573 0.08965 0.43562 0.0
Co443 Co 0.84873 0.09671 0.38214 0.0
C444 C 0.92282 0.15348 0.41679 0.0
O445 O 0.90145 0.13426 0.43488 0.0
O446 O 0.90497 0.14032 0.39736 0.0
C447 C 0.82145 0.05206 0.48523 0.0
O448 O 0.86691 0.03007 0.48687 0.0
C449 C 0.88451 0.05375 0.33599 0.0
C450 C 0.84775 0.12801 0.31559 0.0
C451 C 0.87572 0.07288 0.31377 0.0
N452 N 0.86152 0.095 0.35007 0.0
N453 N 0.84107 0.14018 0.33761 0.0
C454 C 0.9134 -0.00323 0.34358 0.0
H455 H 0.90792 0.98781 0.36187 0.0
H456 H 0.90288 0.95403 0.33352 0.0
H457 H 0.95355 0.00611 0.34066 0.0
C458 C 0.82545 0.95156 0.42366 0.0
N459 N 0.83516 0.01261 0.41774 0.0
N460 N 0.83466 0.01673 0.39552 0.0
C461 C 0.82071 0.95995 0.38677 0.0
C462 C 0.816 0.9161 0.40426 0.0
C463 C 0.82393 0.92814 0.44751 0.0
H464 H 0.85685 0.94674 0.4566 0.0
H465 H 0.82421 0.87512 0.44836 0.0
H466 H 0.7899 0.9462 0.45591 0.0
O467 O 0.78855 0.15348 0.4232 0.0
O468 O 0.79133 0.15167 0.38581 0.0
H469 H 0.76521 0.92468 0.36375 0.0
H470 H 0.8272 0.92425 0.35291 0.0
C471 C 0.80076 0.95196 0.36331 0.0
H472 H 0.79433 -0.0009 0.35527 0.0
H473 H 0.82046 0.17807 0.34414 0.0
O474 O 0.80625 0.07574 0.46669 0.0
C475 C 0.77315 0.17273 0.40407 0.0
Co476 Co 0.1585 0.58909 0.10274 0.0
Co477 Co 0.13871 0.59228 0.15588 0.0
C478 C 0.07282 0.66127 0.12321 0.0
O479 O 0.09599 0.642 0.1056 0.0
O480 O 0.08459 0.64259 0.14297 0.0
C481 C 0.16832 0.54614 0.05377 0.0
O482 O 0.13064 0.50624 0.05561 0.0
C483 C 0.09452 0.56199 0.20137 0.0
C484 C 0.15854 0.5869 0.22297 0.0
C485 C 0.1107 0.56242 0.22369 0.0
N486 N 0.13158 0.58459 0.18813 0.0
N487 N 0.16929 0.60035 0.20132 0.0
C488 C 0.04419 0.54302 0.19291 0.0
H489 H 0.04456 0.53809 0.17424 0.0
H490 H 0.03155 0.49778 0.20091 0.0
H491 H 0.01717 0.58064 0.19765 0.0
C492 C 0.17081 0.44989 0.11411 0.0
N493 N 0.15734 0.51016 0.11955 0.0
N494 N 0.14692 0.51188 0.14134 0.0
C495 C 0.15193 0.45272 0.15012 0.0
C496 C 0.16691 0.41147 0.1332 0.0
C497 C 0.19557 0.43164 0.0924 0.0
H498 H 0.21685 0.47272 0.08547 0.0
H499 H 0.16685 0.41643 0.08011 0.0
H500 H 0.22138 0.39103 0.09488 0.0
O501 O 0.21083 0.64476 0.11463 0.0
O502 O 0.19803 0.64697 0.15156 0.0
H503 H 0.16976 0.46577 0.18506 0.0
H504 H 0.15103 0.38496 0.178 0.0
C505 C 0.14454 0.43631 0.17449 0.0
H506 H 0.10567 0.44678 0.17916 0.0
H507 H 0.20317 0.61848 0.19545 0.0
O508 O 0.18136 0.58002 0.07059 0.0
C509 C 0.22225 0.66474 0.13417 0.0
Co510 Co 0.82914 0.92013 0.10995 0.0
Co511 Co 0.85427 0.9059 0.16237 0.0
C512 C 0.92419 0.85951 0.12653 0.0
O513 O 0.8954 0.87508 0.11025 0.0
O514 O 0.91343 0.87194 0.14708 0.0
C515 C 0.79568 0.89858 0.06469 0.0
O516 O 0.80967 0.83996 0.0694 0.0
C517 C 0.88889 0.93075 0.21023 0.0
C518 C 0.82706 0.88297 0.22819 0.0
C519 C 0.86878 0.92066 0.2317 0.0
N520 N 0.85915 0.90209 0.19487 0.0
N521 N 0.82336 0.87189 0.20598 0.0
C522 C 0.9344 0.96884 0.20444 0.0
H523 H 0.93595 0.97895 0.18603 0.0
H524 H 0.93548 0.01392 0.21432 0.0
H525 H 0.96772 0.94074 0.20909 0.0
C526 C 0.81437 0.05407 0.12487 0.0
N527 N 0.82812 0.9935 0.12933 0.0
N528 N 0.83707 0.98797 0.15114 0.0
C529 C 0.82854 0.0448 0.1612 0.0
C530 C 0.81416 0.08853 0.14489 0.0
C531 C 0.79609 0.07594 0.10233 0.0
H532 H 0.8237 0.06352 0.08912 0.0
H533 H 0.789 0.12808 0.10189 0.0
H534 H 0.76094 0.0503 0.09848 0.0
O535 O 0.78016 0.85595 0.11987 0.0
O536 O 0.80124 0.84437 0.15565 0.0
H537 H 0.81566 0.01753 0.19571 0.0
H538 H 0.81613 0.10304 0.19109 0.0
C539 C 0.83309 0.05711 0.18601 0.0
H540 H 0.87291 0.0606 0.19033 0.0
H541 H 0.79427 0.84691 0.19834 0.0
O542 O 0.80451 0.94271 0.07896 0.0
C543 C 0.77492 0.8284 0.13883 0.0
C544 C 0.26953 0.82638 0.15176 0.0
C545 C 0.30161 0.84325 0.13393 0.0
C546 C 0.24769 0.76572 0.15286 0.0
C547 C 0.25621 0.72017 0.13586 0.0
H548 H 0.25898 0.86133 0.16434 0.0
H549 H 0.22107 0.75641 0.16625 0.0
S550 S 0.34237 0.73819 0.08718 0.0
N551 N 0.34553 0.80766 0.10039 0.0
N552 N 0.30278 0.69383 0.10184 0.0
C553 C 0.29048 0.73519 0.11862 0.0
C554 C 0.31341 0.79681 0.11774 0.0
C555 C 0.68213 0.69904 0.12307 0.0
C556 C 0.6922 0.65128 0.13905 0.0
C557 C 0.70729 0.7579 0.12374 0.0
C558 C 0.74318 0.77068 0.14045 0.0
H559 H 0.6556 0.69017 0.10968 0.0
H560 H 0.69957 0.79286 0.11071 0.0
S561 S 0.78357 0.65933 0.18575 0.0
N562 N 0.74092 0.61918 0.17158 0.0
N563 N 0.78718 0.72996 0.1734 0.0
C564 C 0.75245 0.72346 0.15689 0.0
C565 C 0.72728 0.66357 0.15601 0.0
C566 C 0.31995 0.20932 0.40349 0.0
C567 C 0.30282 0.16075 0.38903 0.0
C568 C 0.29578 0.2686 0.4045 0.0
C569 C 0.25439 0.2813 0.39074 0.0
H570 H 0.35112 0.20058 0.41462 0.0
H571 H 0.30868 0.30398 0.41652 0.0
S572 S 0.19497 0.16865 0.35025 0.0
N573 N 0.24157 0.12826 0.36118 0.0
N574 N 0.19776 0.23999 0.36204 0.0
C575 C 0.23824 0.23355 0.37559 0.0
C576 C 0.26206 0.17312 0.375 0.0
C577 C 0.74754 0.27781 0.41904 0.0
C578 C 0.74069 0.22896 0.40307 0.0
C579 C 0.72426 0.33679 0.41652 0.0
C580 C 0.69207 0.34851 0.39833 0.0
H581 H 0.77336 0.27188 0.4329 0.0
H582 H 0.73318 0.37421 0.42848 0.0
S583 S 0.65771 0.23396 0.35321 0.0
N584 N 0.69787 0.19466 0.36901 0.0
N585 N 0.65151 0.30501 0.36504 0.0
C586 C 0.68307 0.29916 0.38279 0.0
C587 C 0.70788 0.2394 0.38502 0.0
C588 C 0.67286 0.19274 0.89561 0.0
C589 C 0.69263 0.14486 0.90961 0.0
C590 C 0.69619 0.25273 0.89371 0.0
C591 C 0.73941 0.26678 0.90609 0.0
H592 H 0.63994 0.18314 0.88564 0.0
H593 H 0.68103 0.28773 0.88215 0.0
S594 S 0.80748 0.156 0.94394 0.0
N595 N 0.75936 0.1141 0.9349 0.0
N596 N 0.80169 0.22733 0.93236 0.0
C597 C 0.75879 0.21957 0.92052 0.0
C598 C 0.73578 0.15837 0.92201 0.0
C599 C 0.27345 0.32274 0.87601 0.0
C600 C 0.30004 0.338 0.89569 0.0
C601 C 0.25264 0.26204 0.87298 0.0
C602 C 0.2566 0.21487 0.88982 0.0
H603 H 0.2667 0.35881 0.86325 0.0
H604 H 0.23039 0.25372 0.85803 0.0
S605 S 0.32729 0.229 0.94337 0.0
N606 N 0.33372 0.29972 0.93119 0.0
N607 N 0.29285 0.18573 0.92601 0.0
C608 C 0.28524 0.22857 0.90911 0.0
C609 C 0.30714 0.29025 0.91199 0.0
C610 C 0.67702 0.7923 0.63152 0.0
C611 C 0.69161 0.84171 0.64612 0.0
C612 C 0.69805 0.7314 0.63326 0.0
C613 C 0.73446 0.71796 0.64963 0.0
H614 H 0.6505 0.80146 0.61818 0.0
H615 H 0.68749 0.69552 0.62096 0.0
S616 S 0.78363 0.83126 0.69249 0.0
N617 N 0.74333 0.87348 0.67781 0.0
N618 N 0.78201 0.7587 0.68155 0.0
C619 C 0.74712 0.76622 0.66519 0.0
C620 C 0.72607 0.82835 0.66324 0.0
C621 C 0.23727 0.71571 0.65641 0.0
C622 C 0.25434 0.76739 0.64322 0.0
C623 C 0.25813 0.65487 0.65416 0.0
C624 C 0.29738 0.64382 0.63897 0.0
H625 H 0.20536 0.72114 0.66744 0.0
H626 H 0.24227 0.61566 0.66381 0.0
S627 S 0.35948 0.76447 0.60261 0.0
N628 N 0.31546 0.80465 0.61585 0.0
N629 N 0.35514 0.69004 0.61187 0.0
C630 C 0.31647 0.69555 0.62653 0.0
C631 C 0.29498 0.75749 0.62868 0.0
C632 C 0.77753 0.31762 0.66161 0.0
C633 C 0.80842 0.33581 0.64355 0.0
C634 C 0.75335 0.25834 0.66161 0.0
C635 C 0.75884 0.21582 0.64337 0.0
H636 H 0.76901 0.35109 0.675 0.0
H637 H 0.72733 0.24813 0.67516 0.0
S638 S 0.84399 0.23673 0.59442 0.0
N639 N 0.84975 0.30376 0.60894 0.0
N640 N 0.80373 0.19209 0.60858 0.0
C641 C 0.79337 0.23126 0.62627 0.0
C642 C 0.81822 0.29153 0.62641 0.0
C643 C 0.1986 0.2517 0.62508 0.0
C644 C 0.23642 0.26485 0.64083 0.0
C645 C 0.17445 0.19209 0.62477 0.0
C646 C 0.18782 0.14365 0.64 0.0
H647 H 0.18889 0.28683 0.6124 0.0
H648 H 0.14647 0.18295 0.61202 0.0
S649 S 0.2851 0.15313 0.68419 0.0
N650 N 0.28533 0.22455 0.67232 0.0
N651 N 0.24157 0.11198 0.67093 0.0
C652 C 0.22465 0.1566 0.65615 0.0
C653 C 0.2485 0.21747 0.65679 0.0
C654 C 0.76602 0.65899 0.91586 0.0
C655 C 0.79749 0.64733 0.89738 0.0
C656 C 0.74211 0.71747 0.91833 0.0
C657 C 0.7476 0.76594 0.90205 0.0
H658 H 0.75813 0.62181 0.92812 0.0
H659 H 0.71697 0.72327 0.9325 0.0
S660 S 0.82848 0.76084 0.8513 0.0
N661 N 0.83605 0.69032 0.86341 0.0
N662 N 0.7886 0.79998 0.86736 0.0
C663 C 0.77982 0.75564 0.8837 0.0
C664 C 0.8053 0.69631 0.88151 0.0
C665 C 0.16762 0.78878 0.89885 0.0
C666 C 0.18816 0.83824 0.88569 0.0
C667 C 0.19076 0.72897 0.90009 0.0
C668 C 0.23448 0.71662 0.88779 0.0
H669 H 0.13449 0.79717 0.90884 0.0
H670 H 0.17531 0.69291 0.91128 0.0
S671 S 0.30254 0.83093 0.85069 0.0
N672 N 0.2548 0.87169 0.86044 0.0
N673 N 0.29663 0.75861 0.86157 0.0
C674 C 0.25396 0.76506 0.87373 0.0
C675 C 0.23124 0.82617 0.87301 0.0
C676 C 0.22199 0.67304 0.37334 0.0
C677 C 0.18713 0.6607 0.39054 0.0
C678 C 0.24225 0.73414 0.3703 0.0
C679 C 0.2294 0.78462 0.3848 0.0
H680 H 0.23525 0.63455 0.36271 0.0
H681 H 0.27097 0.74045 0.35761 0.0
S682 S 0.13606 0.77823 0.43101 0.0
N683 N 0.13685 0.70473 0.42079 0.0
N684 N 0.17678 0.81954 0.41587 0.0
C685 C 0.19279 0.77359 0.40141 0.0
C686 C 0.1714 0.71152 0.40416 0.0
C687 C 0.75405 0.83468 0.41682 0.0
C688 C 0.79442 0.85101 0.40288 0.0
C689 C 0.73065 0.7752 0.41499 0.0
C690 C 0.7458 0.73031 0.3987 0.0
H691 H 0.7393 0.86881 0.4288 0.0
H692 H 0.69889 0.7656 0.4258 0.0
S693 S 0.85165 0.74829 0.35903 0.0
N694 N 0.85106 0.81608 0.37335 0.0
N695 N 0.80482 0.70503 0.36895 0.0
C696 C 0.7865 0.74555 0.3848 0.0
C697 C 0.81129 0.80579 0.38709 0.0
C698 C 0.24577 0.27317 0.1531 0.0
C699 C 0.23147 0.22336 0.1385 0.0
C700 C 0.22367 0.33346 0.15169 0.0
C701 C 0.18588 0.34569 0.13595 0.0
H702 H 0.27654 0.26697 0.16466 0.0
H703 H 0.23778 0.37155 0.16234 0.0
S704 S 0.13023 0.22914 0.09617 0.0
N705 N 0.17392 0.18844 0.10937 0.0
N706 N 0.13187 0.30196 0.10696 0.0
C707 C 0.1692 0.29543 0.1222 0.0
C708 C 0.19199 0.23411 0.12348 0.0
C709 C 0.79394 0.26674 0.13844 0.0
C710 C 0.75077 0.27691 0.15139 0.0
C711 C 0.81574 0.20606 0.13723 0.0
C712 C 0.79436 0.15347 0.14849 0.0
H713 H 0.80963 0.30527 0.1284 0.0
H714 H 0.84832 0.19962 0.12669 0.0
S715 S 0.68086 0.15434 0.1841 0.0
N716 N 0.68815 0.22945 0.17606 0.0
N717 N 0.72758 0.11492 0.17269 0.0
C718 C 0.75193 0.16323 0.16186 0.0
C719 C 0.73057 0.22519 0.16362 0.0
C720 C 0.20844 0.10376 0.02037 0.0
C721 C 0.25856 0.08472 0.01829 0.0
C722 C 0.17813 0.112 1.00132 0.0
C723 C 0.19623 0.09886 0.97962 0.0
H724 H 0.19192 0.11148 0.03678 0.0
H725 H 0.1402 0.12798 1.00358 0.0
S726 S 0.32299 0.04488 0.9646 0.0
N727 N 0.32409 0.05218 0.99236 0.0
N728 N 0.26617 0.06449 0.95684 0.0
C729 C 0.2454 0.07789 0.97723 0.0
C730 C 0.27669 0.07117 0.99649 0.0
C731 C 0.82915 0.38483 1.01063 0.0
C732 C 0.81163 0.39432 0.98859 0.0
C733 C 0.79736 0.39207 0.02937 0.0
C734 C 0.74647 0.4065 0.02663 0.0
H735 H 0.86777 0.37277 1.01341 0.0
H736 H 0.81326 0.3875 0.04603 0.0
S737 S 0.68259 0.43299 0.97183 0.0
N738 N 0.74085 0.41845 0.96481 0.0
N739 N 0.68057 0.42902 0.99967 0.0
C740 C 0.7288 0.41553 1.00447 0.0
C741 C 0.76141 0.40983 0.98555 0.0
C742 C 0.25111 0.91223 0.48437 0.0
C743 C 0.30299 0.92082 0.48631 0.0
C744 C 0.21997 0.91441 0.50326 0.0
C745 C 0.23932 0.9251 0.52488 0.0
H746 H 0.23417 0.90307 0.46809 0.0
H747 H 0.1804 0.90693 0.50092 0.0
S748 S 0.37152 0.95722 0.53904 0.0
N749 N 0.37194 0.94387 0.51155 0.0
N750 N 0.31291 0.95011 0.5471 0.0
C751 C 0.29087 0.93547 0.52713 0.0
C752 C 0.32283 0.93261 0.50784 0.0
C753 C 0.69893 0.60526 0.53002 0.0
C754 C 0.74736 0.58 0.52812 0.0
C755 C 0.66916 0.6156 0.51089 0.0
C756 C 0.68574 0.59831 0.48927 0.0
H757 H 0.68316 0.61614 0.54635 0.0
H758 H 0.63255 0.63606 0.51307 0.0
S759 S 0.80825 0.52875 0.47474 0.0
N760 N 0.80999 0.53806 0.5024 0.0
N761 N 0.75299 0.55419 0.46684 0.0
C762 C 0.73325 0.5714 0.48709 0.0
C763 C 0.76415 0.56272 0.50641 0.0
C764 C 0.73691 0.8757 1.00688 0.0
C765 C 0.6988 0.92161 1.00648 0.0
C766 C 0.76872 0.86974 0.02553 0.0
C767 C 0.76464 0.91048 0.04434 0.0
H768 H 0.74147 0.84287 0.99289 0.0
H769 H 0.79654 0.83248 0.02526 0.0
S770 S 0.67292 0.04122 0.05115 0.0
N771 N 0.65985 0.01 0.02623 0.0
N772 N 0.72023 -0.00019 0.06104 0.0
C773 C 0.72768 0.95797 0.04385 0.0
C774 C 0.69459 0.96319 0.02503 0.0
C775 C 0.21316 0.48798 0.02287 0.0
C776 C 0.20037 0.54601 0.03336 0.0
C777 C 0.24668 0.48661 1.00459 0.0
C778 C 0.26746 0.54339 0.9958 0.0
H779 H 0.19807 0.44319 0.02916 0.0
H780 H 0.25557 0.44097 0.99698 0.0
S781 S 0.24556 0.70759 0.01704 0.0
N782 N 0.21164 0.66141 0.03378 0.0
N783 N 0.27264 0.65905 0.99884 0.0
C784 C 0.25446 0.60166 1.00595 0.0
C785 C 0.22149 0.60291 0.0249 0.0
C786 C 0.72885 0.09671 0.53108 0.0
C787 C 0.71633 0.03726 0.54081 0.0
C788 C 0.76251 0.10102 0.51292 0.0
C789 C 0.78639 0.04636 0.50446 0.0
H790 H 0.71222 0.14018 0.53748 0.0
H791 H 0.77061 0.14759 0.5057 0.0
S792 S 0.76745 0.8797 0.52426 0.0
N793 N 0.73022 0.92252 0.54045 0.0
N794 N 0.79526 0.9311 0.50709 0.0
C795 C 0.77466 0.98678 0.51416 0.0
C796 C 0.73916 0.98211 0.53215 0.0
C797 C 0.25747 0.37535 0.53105 0.0
C798 C 0.28668 0.43073 0.53428 0.0
C799 C 0.2303 0.36563 0.51111 0.0
C800 C 0.23022 0.4114 0.49363 0.0
H801 H 0.25632 0.33834 0.54387 0.0
H802 H 0.20929 0.32154 0.50936 0.0
S803 S 0.2984 0.56651 0.49413 0.0
N804 N 0.31265 0.53306 0.51854 0.0
N805 N 0.26089 0.51547 0.4813 0.0
C806 C 0.25821 0.46787 0.49689 0.0
C807 C 0.28664 0.47729 0.51709 0.0
C808 C 0.3364 -0.00093 0.23237 0.0
C809 C 0.37251 0.04706 0.22885 0.0
C810 C 0.32899 0.97139 0.25357 0.0
C811 C 0.35675 0.99097 0.27241 0.0
H812 H 0.31275 0.98316 0.21875 0.0
H813 H 0.3001 0.93534 0.25534 0.0
S814 S 0.45372 0.11797 0.27295 0.0
N815 N 0.4361 0.11389 0.24628 0.0
N816 N 0.42022 0.06378 0.28657 0.0
C817 C 0.39306 0.03895 0.26935 0.0
C818 C 0.40131 0.0666 0.24749 0.0
C819 C 0.64902 0.41256 0.25672 0.0
C820 C 0.62753 0.44158 0.23757 0.0
C821 C 0.65224 0.44493 0.27749 0.0
C822 C 0.63433 0.50755 0.27984 0.0
H823 H 0.6654 0.36549 0.25548 0.0
H824 H 0.67109 0.42208 0.29147 0.0
S825 S 0.56838 0.60186 0.23644 0.0
N826 N 0.58219 0.53409 0.22365 0.0
N827 N 0.59069 0.59544 0.2623 0.0
C828 C 0.61053 0.53586 0.26139 0.0
C829 C 0.60638 0.50269 0.24038 0.0
C830 C 0.60063 0.03919 0.79298 0.0
C831 C 0.59501 0.97238 0.7944 0.0
C832 C 0.60167 0.07037 0.77194 0.0
C833 C 0.59672 0.03603 0.75162 0.0
H834 H 0.60934 0.06686 0.8079 0.0
H835 H 0.61052 0.121 0.77148 0.0
S836 S 0.57673 0.86109 0.74635 0.0
N837 N 0.58009 0.87368 0.77384 0.0
N838 N 0.58295 0.93209 0.7344 0.0
C839 C 0.58719 0.97001 0.75293 0.0
C840 C 0.58618 0.93826 0.77431 0.0
C841 C 0.40382 0.52186 0.7468 0.0
C842 C 0.40336 0.45465 0.74593 0.0
C843 C 0.40292 0.55402 0.7676 0.0
C844 C 0.40232 0.52005 0.78812 0.0
H845 H 0.39913 0.54958 0.73149 0.0
H846 H 0.39795 0.60542 0.76761 0.0
S847 S 0.40724 0.344 0.79479 0.0
N848 N 0.40745 0.35555 0.76718 0.0
N849 N 0.40625 0.41599 0.80623 0.0
C850 C 0.407 0.45324 0.78742 0.0
C851 C 0.40735 0.42051 0.76628 0.0
C852 C 0.84044 0.50937 0.77161 0.0
C853 C 0.80997 0.45612 0.77675 0.0
C854 C 0.84297 0.53456 0.74953 0.0
C855 C 0.8141 0.50855 0.73196 0.0
H856 H 0.86102 0.53353 0.78476 0.0
H857 H 0.86626 0.5761 0.7464 0.0
S858 S 0.73187 0.36563 0.7359 0.0
N859 N 0.75374 0.37515 0.76169 0.0
N860 N 0.75653 0.42426 0.72086 0.0
C861 C 0.78441 0.45461 0.73676 0.0
C862 C 0.78279 0.42809 0.75896 0.0
C863 C 0.12305 0.01215 0.75738 0.0
C864 C 0.15456 0.99092 0.7746 0.0
C865 C 0.11836 0.97739 0.73723 0.0
C866 C 0.14485 0.92006 0.73371 0.0
H867 H 0.10384 0.05731 0.75906 0.0
H868 H 0.09518 -0.00305 0.72403 0.0
S869 S 0.22615 0.83995 0.7756 0.0
N870 N 0.20827 0.90635 0.7882 0.0
N871 N 0.19925 0.84048 0.75056 0.0
C872 C 0.17368 0.89629 0.75162 0.0
C873 C 0.17869 0.93198 0.77199 0.0
C874 C 0.08594 0.52942 0.28504 0.0
C875 C 0.08901 0.46232 0.28583 0.0
C876 C 0.08708 0.56214 0.2643 0.0
C877 C 0.09051 0.52882 0.24373 0.0
H878 H 0.08815 0.55709 0.30047 0.0
H879 H 0.08962 0.61389 0.26444 0.0
S880 S 0.09394 0.35272 0.23679 0.0
N881 N 0.09101 0.36361 0.26438 0.0
N882 N 0.09273 0.42492 0.22548 0.0
C883 C 0.08889 0.46166 0.24429 0.0
C884 C 0.08825 0.42845 0.26537 0.0
C885 C 0.8337 0.02801 0.28019 0.0
C886 C 0.87764 0.03406 0.29283 0.0
C887 C 0.83217 0.99222 0.26036 0.0
C888 C 0.87455 0.96084 0.25212 0.0
H889 H 0.79965 0.05048 0.28583 0.0
H890 H 0.79714 0.989 0.25141 0.0
S891 S -0.00028 0.96364 0.2781 0.0
N892 N 0.96545 0.00784 0.29518 0.0
N893 N 0.96227 0.93906 0.25773 0.0
C894 C 0.91917 0.96712 0.26424 0.0
C895 C 0.92074 0.00386 0.28469 0.0
C896 C 0.50392 0.2858 0.1123 0.0
C897 C 0.53508 0.291 0.13123 0.0
C898 C 0.46744 0.23748 0.11113 0.0
C899 C 0.46172 0.19242 0.12871 0.0
H900 H 0.50665 0.32046 0.09873 0.0
H901 H 0.44234 0.23708 0.09685 0.0
S902 S 0.54099 0.17878 0.17976 0.0
N903 N 0.56221 0.24277 0.16647 0.0
N904 N 0.49504 0.15138 0.16404 0.0
C905 C 0.49526 0.19474 0.14689 0.0
C906 C 0.53156 0.24422 0.14823 0.0
C907 C 0.4805 0.78104 0.37302 0.0
C908 C 0.45312 0.79878 0.3923 0.0
C909 C 0.51485 0.73099 0.37374 0.0
C910 C 0.52339 0.69639 0.39376 0.0
H911 H 0.4754 0.80587 0.35714 0.0
H912 H 0.53553 0.72034 0.35849 0.0
S913 S 0.45989 0.72169 0.44887 0.0
N914 N 0.43607 0.77626 0.43199 0.0
N915 N 0.50026 0.68221 0.43327 0.0
C916 C 0.49572 0.71291 0.41312 0.0
C917 C 0.46088 0.76412 0.41243 0.0
C918 C 0.51268 0.75782 0.93361 0.0
C919 C 0.51986 0.80265 0.91604 0.0
C920 C 0.4761 0.70959 0.93198 0.0
C921 C 0.44621 0.70455 0.91263 0.0
H922 H 0.53698 0.75801 0.94817 0.0
H923 H 0.47263 0.67466 0.94542 0.0
S924 S 0.44398 0.817 0.86403 0.0
N925 N 0.48925 0.84385 0.88028 0.0
N926 N 0.42139 0.75339 0.8771 0.0
C927 C 0.45087 0.75162 0.89574 0.0
C928 C 0.48747 0.80067 0.89748 0.0
C929 C 0.49168 0.28153 0.60629 0.0
C930 C 0.453 0.28147 0.6223 0.0
C931 C 0.52854 0.23379 0.60673 0.0
C932 C 0.52737 0.18458 0.62308 0.0
H933 H 0.49478 0.32013 0.59414 0.0
H934 H 0.55951 0.2375 0.59506 0.0
S935 S 0.42816 0.15673 0.66567 0.0
N936 N 0.41188 0.22334 0.65275 0.0
N937 N 0.48046 0.13431 0.65348 0.0
C938 C 0.48664 0.18167 0.63794 0.0
C939 C 0.44964 0.22995 0.63757 0.0
C940 C 0.96056 0.73139 0.61474 0.0
C941 C 0.96097 0.68346 0.63153 0.0
C942 C -0.00225 0.77886 0.61397 0.0
C943 C 0.03591 0.7797 0.63008 0.0
H944 H 0.93008 0.73419 0.60286 0.0
H945 H -0.00458 0.81648 0.60142 0.0
S946 S 0.05905 0.65812 0.6745 0.0
N947 N 0.0067 0.63493 0.66245 0.0
N948 N 0.07611 0.72394 0.66109 0.0
C949 C 0.03859 0.72951 0.64585 0.0
C950 C 0.0012 0.68137 0.64655 0.0
C951 C 0.01706 0.22344 0.90677 0.0
C952 C 0.02981 0.19415 0.8862 0.0
C953 C 0.98235 0.27279 0.9077 0.0
C954 C 0.95835 0.29506 0.88811 0.0
H955 H 0.03446 0.20889 0.92242 0.0
H956 H 0.97386 0.29285 0.92411 0.0
S957 S 0.97822 0.23468 0.8298 0.0
N958 N 0.01561 0.19119 0.84558 0.0
N959 N 0.95004 0.28398 0.84735 0.0
C960 C 0.97067 0.26636 0.86733 0.0
C961 C 0.0063 0.21591 0.86638 0.0
C962 C 0.02696 0.25882 0.39537 0.0
C963 C 0.03845 0.29872 0.41379 0.0
C964 C 0.99198 0.20972 0.39718 0.0
C965 C 0.96602 0.19817 0.41743 0.0
H966 H 0.0452 0.2653 0.37919 0.0
H967 H 0.98437 0.18161 0.3822 0.0
S968 S 0.98452 0.28587 0.47133 0.0
N969 N 0.02358 0.32081 0.45353 0.0
N970 N 0.95617 0.22879 0.45687 0.0
C971 C 0.97836 0.23588 0.43638 0.0
C972 C 0.01486 0.28605 0.43457 0.0
C973 C 0.96551 0.76919 0.10575 0.0
C974 C 0.96744 0.81735 0.12243 0.0
C975 C 0.00064 0.71934 0.10533 0.0
C976 C 0.03825 0.716 0.12173 0.0
H977 H 0.93509 0.76783 0.0938 0.0
H978 H -0.00308 0.68179 0.09285 0.0
S979 S 0.06499 0.83684 0.16611 0.0
N980 N 0.01428 0.86304 0.15359 0.0
N981 N 0.07962 0.77003 0.15292 0.0
C982 C 0.04257 0.76646 0.13736 0.0
C983 C 0.00736 0.81698 0.13767 0.0
loop_
_geom_bond_atom_site_label_1
_geom_bond_atom_site_label_2
_geom_bond_distance
_geom_bond_site_symmetry_2
_ccdc_geom_bond_type
Co0 O3 1.970 . S
Co0 N17 1.989 . S
Co0 O25 1.967 . S
Co0 O32 1.920 . S
Co1 O4 1.966 . S
Co1 N10 2.022 . S
Co1 N18 1.993 . S
Co1 O26 1.941 . S
C2 O3 1.258 . S
C2 O4 1.263 . S
O3 Co0 1.970 . S
O3 C2 1.258 . S
O4 Co1 1.966 . S
O4 C2 1.263 . S
C5 O6 1.235 . S
C5 O32 1.289 . S
O6 C5 1.235 . S
C7 C9 1.400 . S
C7 N10 1.351 . S
C7 C12 1.501 . S
C8 C9 1.387 . S
C8 N11 1.341 . S
C9 C7 1.400 . S
C9 C8 1.387 . S
N10 Co1 2.022 . S
N10 C7 1.351 . S
N10 N11 1.365 . S
N11 C8 1.341 . S
N11 N10 1.365 . S
N11 H31 0.862 . S
C12 C7 1.501 . S
C12 H13 0.961 . S
C12 H14 0.961 . S
C12 H15 0.960 . S
H13 C12 0.961 . S
H14 C12 0.961 . S
H15 C12 0.960 . S
C16 N17 1.342 1_565 S
C16 C20 1.401 . S
C16 C21 1.499 . S
N17 Co0 1.989 . S
N17 C16 1.342 1_545 S
N17 N18 1.388 . S
N18 Co1 1.993 . S
N18 N17 1.388 . S
N18 C19 1.346 1_545 S
C19 N18 1.346 1_565 S
C19 C20 1.396 . S
C19 C29 1.510 . S
C20 C16 1.401 . S
C20 C19 1.396 . S
C21 C16 1.499 . S
C21 H22 0.959 . S
C21 H23 0.960 . S
C21 H24 0.961 . S
H22 C21 0.959 . S
H23 C21 0.960 . S
H24 C21 0.961 . S
O25 Co0 1.967 . S
O25 C33 1.258 . S
O26 Co1 1.941 . S
O26 C33 1.266 . S
H27 C29 0.959 . S
H28 C29 0.961 . S
C29 C19 1.510 . S
C29 H27 0.959 . S
C29 H28 0.961 . S
C29 H30 0.960 1_565 S
H30 C29 0.960 1_545 S
H31 N11 0.862 . S
O32 Co0 1.920 . S
O32 C5 1.289 . S
C33 O25 1.258 . S
C33 O26 1.266 . S
Co34 O37 1.970 . S
Co34 N51 1.989 . S
Co34 O59 1.967 . S
Co34 O66 1.920 . S
Co35 O38 1.966 . S
Co35 N44 2.022 . S
Co35 N52 1.993 . S
Co35 O60 1.941 . S
C36 O37 1.258 . S
C36 O38 1.263 . S
O37 Co34 1.970 . S
O37 C36 1.258 . S
O38 Co35 1.966 . S
O38 C36 1.263 . S
C39 O40 1.235 . S
C39 O66 1.289 . S
O40 C39 1.235 . S
C41 C43 1.400 . S
C41 N44 1.351 . S
C41 C46 1.501 . S
C42 C43 1.387 . S
C42 N45 1.341 . S
C43 C41 1.400 . S
C43 C42 1.387 . S
N44 Co35 2.022 . S
N44 C41 1.351 . S
N44 N45 1.365 . S
N45 C42 1.341 . S
N45 N44 1.365 . S
N45 H65 0.862 . S
C46 C41 1.501 . S
C46 H47 0.961 . S
C46 H48 0.961 . S
C46 H49 0.960 . S
H47 C46 0.961 . S
H48 C46 0.961 . S
H49 C46 0.960 . S
C50 N51 1.342 . S
C50 C54 1.401 . S
C50 C55 1.499 . S
N51 Co34 1.989 . S
N51 C50 1.342 . S
N51 N52 1.388 . S
N52 Co35 1.993 . S
N52 N51 1.388 . S
N52 C53 1.346 . S
C53 N52 1.346 . S
C53 C54 1.396 . S
C53 C63 1.510 . S
C54 C50 1.401 . S
C54 C53 1.396 . S
C55 C50 1.499 . S
C55 H56 0.959 . S
C55 H57 0.960 . S
C55 H58 0.961 . S
H56 C55 0.959 . S
H57 C55 0.960 . S
H58 C55 0.961 . S
O59 Co34 1.967 . S
O59 C67 1.258 . S
O60 Co35 1.941 . S
O60 C67 1.266 . S
H61 C63 0.959 . S
H62 C63 0.961 . S
C63 C53 1.510 . S
C63 H61 0.959 . S
C63 H62 0.961 . S
C63 H64 0.960 . S
H64 C63 0.960 . S
H65 N45 0.862 . S
O66 Co34 1.920 . S
O66 C39 1.289 . S
C67 O59 1.258 . S
C67 O60 1.266 . S
Co68 O71 1.970 . S
Co68 N85 1.989 . S
Co68 O93 1.967 . S
Co68 O100 1.920 . S
Co69 O72 1.966 . S
Co69 N78 2.022 . S
Co69 N86 1.993 . S
Co69 O94 1.941 . S
C70 O71 1.258 . S
C70 O72 1.263 . S
O71 Co68 1.970 . S
O71 C70 1.258 . S
O72 Co69 1.966 . S
O72 C70 1.263 . S
C73 O74 1.235 . S
C73 O100 1.289 . S
O74 C73 1.235 . S
C75 C77 1.400 . S
C75 N78 1.351 . S
C75 C80 1.501 . S
C76 C77 1.387 . S
C76 N79 1.341 . S
C77 C75 1.400 . S
C77 C76 1.387 . S
N78 Co69 2.022 . S
N78 C75 1.351 . S
N78 N79 1.365 . S
N79 C76 1.341 . S
N79 N78 1.365 . S
N79 H99 0.862 . S
C80 C75 1.501 . S
C80 H81 0.961 . S
C80 H82 0.961 . S
C80 H83 0.960 . S
H81 C80 0.961 . S
H82 C80 0.961 . S
H83 C80 0.960 . S
C84 N85 1.342 1_545 S
C84 C88 1.401 . S
C84 C89 1.499 . S
N85 Co68 1.989 . S
N85 C84 1.342 1_565 S
N85 N86 1.388 . S
N86 Co69 1.993 . S
N86 N85 1.388 . S
N86 C87 1.346 1_565 S
C87 N86 1.346 1_545 S
C87 C88 1.396 . S
C87 C97 1.510 . S
C88 C84 1.401 . S
C88 C87 1.396 . S
C89 C84 1.499 . S
C89 H90 0.959 . S
C89 H91 0.960 . S
C89 H92 0.961 . S
H90 C89 0.959 . S
H91 C89 0.960 . S
H92 C89 0.961 . S
O93 Co68 1.967 . S
O93 C101 1.258 . S
O94 Co69 1.941 . S
O94 C101 1.266 . S
H95 C97 0.959 . S
H96 C97 0.961 . S
C97 C87 1.510 . S
C97 H95 0.959 . S
C97 H96 0.961 . S
C97 H98 0.960 . S
H98 C97 0.960 . S
H99 N79 0.862 . S
O100 Co68 1.920 . S
O100 C73 1.289 . S
C101 O93 1.258 . S
C101 O94 1.266 . S
Co102 O105 1.970 . S
Co102 N119 1.989 . S
Co102 O127 1.967 . S
Co102 O134 1.920 . S
Co103 O106 1.966 . S
Co103 N112 2.022 . S
Co103 N120 1.993 . S
Co103 O128 1.941 . S
C104 O105 1.258 . S
C104 O106 1.263 . S
O105 Co102 1.970 . S
O105 C104 1.258 . S
O106 Co103 1.966 . S
O106 C104 1.263 . S
C107 O108 1.235 . S
C107 O134 1.289 . S
O108 C107 1.235 . S
C109 C111 1.400 . S
C109 N112 1.351 . S
C109 C114 1.501 . S
C110 C111 1.387 . S
C110 N113 1.341 . S
C111 C109 1.400 . S
C111 C110 1.387 . S
N112 Co103 2.022 . S
N112 C109 1.351 . S
N112 N113 1.365 . S
N113 C110 1.341 . S
N113 N112 1.365 . S
N113 H133 0.862 . S
C114 C109 1.501 . S
C114 H115 0.961 . S
C114 H116 0.961 . S
C114 H117 0.960 . S
H115 C114 0.961 . S
H116 C114 0.961 . S
H117 C114 0.960 . S
C118 N119 1.342 . S
C118 C122 1.401 . S
C118 C123 1.499 . S
N119 Co102 1.989 . S
N119 C118 1.342 . S
N119 N120 1.388 . S
N120 Co103 1.993 . S
N120 N119 1.388 . S
N120 C121 1.346 . S
C121 N120 1.346 . S
C121 C122 1.396 . S
C121 C131 1.510 . S
C122 C118 1.401 . S
C122 C121 1.396 . S
C123 C118 1.499 . S
C123 H124 0.959 . S
C123 H125 0.960 . S
C123 H126 0.961 . S
H124 C123 0.959 . S
H125 C123 0.960 . S
H126 C123 0.961 . S
O127 Co102 1.967 . S
O127 C135 1.258 . S
O128 Co103 1.941 . S
O128 C135 1.266 . S
H129 C131 0.959 . S
H130 C131 0.961 . S
C131 C121 1.510 . S
C131 H129 0.959 . S
C131 H130 0.961 . S
C131 H132 0.960 . S
H132 C131 0.960 . S
H133 N113 0.862 . S
O134 Co102 1.920 . S
O134 C107 1.289 . S
C135 O127 1.258 . S
C135 O128 1.266 . S
Co136 O139 1.970 . S
Co136 N153 1.989 . S
Co136 O161 1.967 . S
Co136 O168 1.920 . S
Co137 O140 1.966 . S
Co137 N146 2.022 . S
Co137 N154 1.993 . S
Co137 O162 1.941 . S
C138 O139 1.258 . S
C138 O140 1.263 . S
O139 Co136 1.970 . S
O139 C138 1.258 . S
O140 Co137 1.966 . S
O140 C138 1.263 . S
C141 O142 1.235 . S
C141 O168 1.289 . S
O142 C141 1.235 . S
C143 C145 1.400 . S
C143 N146 1.351 . S
C143 C148 1.501 . S
C144 C145 1.387 . S
C144 N147 1.341 . S
C145 C143 1.400 . S
C145 C144 1.387 . S
N146 Co137 2.022 . S
N146 C143 1.351 . S
N146 N147 1.365 . S
N147 C144 1.341 . S
N147 N146 1.365 . S
N147 H167 0.862 . S
C148 C143 1.501 . S
C148 H149 0.961 . S
C148 H150 0.961 . S
C148 H151 0.960 . S
H149 C148 0.961 . S
H150 C148 0.961 . S
H151 C148 0.960 . S
C152 N153 1.342 1_545 S
C152 C156 1.401 . S
C152 C157 1.499 . S
N153 Co136 1.989 . S
N153 C152 1.342 1_565 S
N153 N154 1.388 . S
N154 Co137 1.993 . S
N154 N153 1.388 . S
N154 C155 1.346 1_565 S
C155 N154 1.346 1_545 S
C155 C156 1.396 . S
C155 C165 1.510 . S
C156 C152 1.401 . S
C156 C155 1.396 . S
C157 C152 1.499 . S
C157 H158 0.962 . S
C157 H159 0.960 . S
C157 H160 0.961 . S
H158 C157 0.962 . S
H159 C157 0.960 . S
H160 C157 0.961 . S
O161 Co136 1.967 . S
O161 C169 1.258 . S
O162 Co137 1.941 . S
O162 C169 1.266 . S
H163 C165 0.959 . S
H164 C165 0.961 . S
C165 C155 1.510 . S
C165 H163 0.959 . S
C165 H164 0.961 . S
C165 H166 0.960 . S
H166 C165 0.960 . S
H167 N147 0.862 . S
O168 Co136 1.920 . S
O168 C141 1.289 . S
C169 O161 1.258 . S
C169 O162 1.266 . S
Co170 O173 1.970 . S
Co170 N187 1.989 . S
Co170 O195 1.967 . S
Co170 O202 1.920 . S
Co171 O174 1.966 . S
Co171 N180 2.022 . S
Co171 N188 1.993 . S
Co171 O196 1.941 . S
C172 O173 1.258 . S
C172 O174 1.263 . S
O173 Co170 1.970 . S
O173 C172 1.258 . S
O174 Co171 1.966 . S
O174 C172 1.263 . S
C175 O176 1.235 . S
C175 O202 1.289 . S
O176 C175 1.235 . S
C177 C179 1.400 . S
C177 N180 1.351 . S
C177 C182 1.501 . S
C178 C179 1.387 . S
C178 N181 1.341 . S
C179 C177 1.400 . S
C179 C178 1.387 . S
N180 Co171 2.022 . S
N180 C177 1.351 . S
N180 N181 1.365 . S
N181 C178 1.341 . S
N181 N180 1.365 . S
N181 H201 0.862 . S
C182 C177 1.501 . S
C182 H183 0.961 . S
C182 H184 0.961 . S
C182 H185 0.960 . S
H183 C182 0.961 . S
H184 C182 0.961 . S
H185 C182 0.960 . S
C186 N187 1.342 . S
C186 C190 1.401 . S
C186 C191 1.499 . S
N187 Co170 1.989 . S
N187 C186 1.342 . S
N187 N188 1.388 . S
N188 Co171 1.993 . S
N188 N187 1.388 . S
N188 C189 1.346 . S
C189 N188 1.346 . S
C189 C190 1.396 . S
C189 C199 1.510 . S
C190 C186 1.401 . S
C190 C189 1.396 . S
C191 C186 1.499 . S
C191 H192 0.959 . S
C191 H193 0.960 . S
C191 H194 0.961 . S
H192 C191 0.959 . S
H193 C191 0.960 . S
H194 C191 0.961 . S
O195 Co170 1.967 . S
O195 C203 1.258 . S
O196 Co171 1.941 . S
O196 C203 1.266 . S
H197 C199 0.959 . S
H198 C199 0.961 . S
C199 C189 1.510 . S
C199 H197 0.959 . S
C199 H198 0.961 . S
C199 H200 0.960 . S
H200 C199 0.960 . S
H201 N181 0.862 . S
O202 Co170 1.920 . S
O202 C175 1.289 . S
C203 O195 1.258 . S
C203 O196 1.266 . S
Co204 O207 1.970 . S
Co204 N221 1.989 . S
Co204 O229 1.967 . S
Co204 O236 1.920 . S
Co205 O208 1.966 . S
Co205 N214 2.022 . S
Co205 N222 1.993 . S
Co205 O230 1.941 . S
C206 O207 1.258 . S
C206 O208 1.263 . S
O207 Co204 1.970 . S
O207 C206 1.258 . S
O208 Co205 1.966 . S
O208 C206 1.263 . S
C209 O210 1.235 . S
C209 O236 1.289 . S
O210 C209 1.235 . S
C211 C213 1.400 . S
C211 N214 1.351 . S
C211 C216 1.501 . S
C212 C213 1.387 . S
C212 N215 1.341 . S
C213 C211 1.400 . S
C213 C212 1.387 . S
N214 Co205 2.022 . S
N214 C211 1.351 . S
N214 N215 1.365 . S
N215 C212 1.341 . S
N215 N214 1.365 . S
N215 H235 0.862 . S
C216 C211 1.501 . S
C216 H217 0.961 . S
C216 H218 0.961 . S
C216 H219 0.960 . S
H217 C216 0.961 . S
H218 C216 0.961 . S
H219 C216 0.960 . S
C220 N221 1.342 1_565 S
C220 C224 1.401 . S
C220 C225 1.499 . S
N221 Co204 1.989 . S
N221 C220 1.342 1_545 S
N221 N222 1.388 . S
N222 Co205 1.993 . S
N222 N221 1.388 . S
N222 C223 1.346 1_545 S
C223 N222 1.346 1_565 S
C223 C224 1.396 . S
C223 C233 1.510 . S
C224 C220 1.401 . S
C224 C223 1.396 . S
C225 C220 1.499 . S
C225 H226 0.959 1_565 S
C225 H227 0.960 . S
C225 H228 0.961 . S
H226 C225 0.959 1_545 S
H227 C225 0.960 . S
H228 C225 0.961 . S
O229 Co204 1.967 . S
O229 C237 1.258 . S
O230 Co205 1.941 . S
O230 C237 1.266 . S
H231 C233 0.959 . S
H232 C233 0.961 . S
C233 C223 1.510 . S
C233 H231 0.959 . S
C233 H232 0.961 . S
C233 H234 0.960 . S
H234 C233 0.960 . S
H235 N215 0.862 . S
O236 Co204 1.920 . S
O236 C209 1.289 . S
C237 O229 1.258 . S
C237 O230 1.266 . S
Co238 O241 1.970 . S
Co238 N255 1.989 . S
Co238 O263 1.967 . S
Co238 O270 1.920 . S
Co239 O242 1.966 . S
Co239 N248 2.022 . S
Co239 N256 1.993 . S
Co239 O264 1.941 . S
C240 O241 1.258 . S
C240 O242 1.263 . S
O241 Co238 1.970 . S
O241 C240 1.258 . S
O242 Co239 1.966 . S
O242 C240 1.263 . S
C243 O244 1.235 . S
C243 O270 1.289 . S
O244 C243 1.235 . S
C245 C247 1.400 . S
C245 N248 1.351 . S
C245 C250 1.501 . S
C246 C247 1.387 . S
C246 N249 1.341 . S
C247 C245 1.400 . S
C247 C246 1.387 . S
N248 Co239 2.022 . S
N248 C245 1.351 . S
N248 N249 1.365 . S
N249 C246 1.341 . S
N249 N248 1.365 . S
N249 H269 0.862 . S
C250 C245 1.501 . S
C250 H251 0.961 . S
C250 H252 0.961 . S
C250 H253 0.960 . S
H251 C250 0.961 . S
H252 C250 0.961 . S
H253 C250 0.960 . S
C254 N255 1.342 . S
C254 C258 1.401 . S
C254 C259 1.499 . S
N255 Co238 1.989 . S
N255 C254 1.342 . S
N255 N256 1.388 . S
N256 Co239 1.993 . S
N256 N255 1.388 . S
N256 C257 1.346 . S
C257 N256 1.346 . S
C257 C258 1.396 . S
C257 C267 1.510 . S
C258 C254 1.401 . S
C258 C257 1.396 . S
C259 C254 1.499 . S
C259 H260 0.959 . S
C259 H261 0.960 . S
C259 H262 0.961 . S
H260 C259 0.959 . S
H261 C259 0.960 . S
H262 C259 0.961 . S
O263 Co238 1.967 . S
O263 C271 1.258 . S
O264 Co239 1.941 . S
O264 C271 1.266 . S
H265 C267 0.959 . S
H266 C267 0.961 . S
C267 C257 1.510 . S
C267 H265 0.959 . S
C267 H266 0.961 . S
C267 H268 0.960 . S
H268 C267 0.960 . S
H269 N249 0.862 . S
O270 Co238 1.920 . S
O270 C243 1.289 . S
C271 O263 1.258 . S
C271 O264 1.266 . S
Co272 O275 1.970 . S
Co272 N289 1.989 . S
Co272 O297 1.967 . S
Co272 O304 1.920 . S
Co273 O276 1.966 . S
Co273 N282 2.022 . S
Co273 N290 1.993 . S
Co273 O298 1.941 . S
C274 O275 1.258 . S
C274 O276 1.263 . S
O275 Co272 1.970 . S
O275 C274 1.258 . S
O276 Co273 1.966 . S
O276 C274 1.263 . S
C277 O278 1.235 . S
C277 O304 1.289 . S
O278 C277 1.235 . S
C279 C281 1.400 . S
C279 N282 1.351 . S
C279 C284 1.501 . S
C280 C281 1.387 . S
C280 N283 1.341 . S
C281 C279 1.400 . S
C281 C280 1.387 . S
N282 Co273 2.022 . S
N282 C279 1.351 . S
N282 N283 1.365 . S
N283 C280 1.341 . S
N283 N282 1.365 . S
N283 H303 0.862 . S
C284 C279 1.501 . S
C284 H285 0.961 . S
C284 H286 0.961 . S
C284 H287 0.960 . S
H285 C284 0.961 . S
H286 C284 0.961 . S
H287 C284 0.960 . S
C288 N289 1.342 . S
C288 C292 1.401 . S
C288 C293 1.499 . S
N289 Co272 1.989 . S
N289 C288 1.342 . S
N289 N290 1.388 . S
N290 Co273 1.993 . S
N290 N289 1.388 . S
N290 C291 1.346 . S
C291 N290 1.346 . S
C291 C292 1.396 . S
C291 C301 1.510 . S
C292 C288 1.401 . S
C292 C291 1.396 . S
C293 C288 1.499 . S
C293 H294 0.959 . S
C293 H295 0.960 . S
C293 H296 0.961 . S
H294 C293 0.959 . S
H295 C293 0.960 . S
H296 C293 0.961 . S
O297 Co272 1.967 . S
O297 C305 1.258 . S
O298 Co273 1.941 . S
O298 C305 1.266 . S
H299 C301 0.959 . S
H300 C301 0.961 . S
C301 C291 1.510 . S
C301 H299 0.959 . S
C301 H300 0.961 . S
C301 H302 0.960 . S
H302 C301 0.960 . S
H303 N283 0.862 . S
O304 Co272 1.920 . S
O304 C277 1.289 . S
C305 O297 1.258 . S
C305 O298 1.266 . S
Co306 O309 1.970 . S
Co306 N323 1.989 . S
Co306 O331 1.967 . S
Co306 O338 1.920 . S
Co307 O310 1.966 . S
Co307 N316 2.022 . S
Co307 N324 1.993 . S
Co307 O332 1.941 . S
C308 O309 1.258 . S
C308 O310 1.263 . S
O309 Co306 1.970 . S
O309 C308 1.258 . S
O310 Co307 1.966 . S
O310 C308 1.263 . S
C311 O312 1.235 . S
C311 O338 1.289 . S
O312 C311 1.235 . S
C313 C315 1.400 . S
C313 N316 1.351 . S
C313 C318 1.501 . S
C314 C315 1.387 . S
C314 N317 1.341 . S
C315 C313 1.400 . S
C315 C314 1.387 . S
N316 Co307 2.022 . S
N316 C313 1.351 . S
N316 N317 1.365 . S
N317 C314 1.341 . S
N317 N316 1.365 . S
N317 H337 0.862 . S
C318 C313 1.501 . S
C318 H319 0.961 . S
C318 H320 0.961 . S
C318 H321 0.960 . S
H319 C318 0.961 . S
H320 C318 0.961 . S
H321 C318 0.960 . S
C322 N323 1.342 1_545 S
C322 C326 1.401 . S
C322 C327 1.499 . S
N323 Co306 1.989 . S
N323 C322 1.342 1_565 S
N323 N324 1.388 . S
N324 Co307 1.993 . S
N324 N323 1.388 . S
N324 C325 1.346 1_565 S
C325 N324 1.346 1_545 S
C325 C326 1.396 . S
C325 C335 1.510 . S
C326 C322 1.401 . S
C326 C325 1.396 . S
C327 C322 1.499 . S
C327 H328 0.959 . S
C327 H329 0.960 . S
C327 H330 0.961 . S
H328 C327 0.959 . S
H329 C327 0.960 . S
H330 C327 0.961 . S
O331 Co306 1.967 . S
O331 C339 1.258 . S
O332 Co307 1.941 . S
O332 C339 1.266 . S
H333 C335 0.959 . S
H334 C335 0.961 . S
C335 C325 1.510 . S
C335 H333 0.959 . S
C335 H334 0.961 . S
C335 H336 0.960 1_545 S
H336 C335 0.960 1_565 S
H337 N317 0.862 . S
O338 Co306 1.920 . S
O338 C311 1.289 . S
C339 O331 1.258 . S
C339 O332 1.266 . S
Co340 O343 1.970 . S
Co340 N357 1.989 . S
Co340 O365 1.967 . S
Co340 O372 1.920 . S
Co341 O344 1.966 . S
Co341 N350 2.022 . S
Co341 N358 1.993 . S
Co341 O366 1.941 . S
C342 O343 1.258 . S
C342 O344 1.263 . S
O343 Co340 1.970 . S
O343 C342 1.258 . S
O344 Co341 1.966 . S
O344 C342 1.263 . S
C345 O346 1.235 . S
C345 O372 1.289 . S
O346 C345 1.235 . S
C347 C349 1.400 . S
C347 N350 1.351 . S
C347 C352 1.501 . S
C348 C349 1.387 . S
C348 N351 1.341 . S
C349 C347 1.400 . S
C349 C348 1.387 . S
N350 Co341 2.022 . S
N350 C347 1.351 . S
N350 N351 1.365 . S
N351 C348 1.341 . S
N351 N350 1.365 . S
N351 H371 0.862 . S
C352 C347 1.501 . S
C352 H353 0.961 . S
C352 H354 0.961 . S
C352 H355 0.960 . S
H353 C352 0.961 . S
H354 C352 0.961 . S
H355 C352 0.960 . S
C356 N357 1.342 . S
C356 C360 1.401 . S
C356 C361 1.499 . S
N357 Co340 1.989 . S
N357 C356 1.342 . S
N357 N358 1.388 . S
N358 Co341 1.993 . S
N358 N357 1.388 . S
N358 C359 1.346 . S
C359 N358 1.346 . S
C359 C360 1.396 . S
C359 C369 1.510 . S
C360 C356 1.401 . S
C360 C359 1.396 . S
C361 C356 1.499 . S
C361 H362 0.959 . S
C361 H363 0.960 . S
C361 H364 0.961 . S
H362 C361 0.959 . S
H363 C361 0.960 . S
H364 C361 0.961 . S
O365 Co340 1.967 . S
O365 C373 1.258 . S
O366 Co341 1.941 . S
O366 C373 1.266 . S
H367 C369 0.959 . S
H368 C369 0.961 . S
C369 C359 1.510 . S
C369 H367 0.959 . S
C369 H368 0.961 . S
C369 H370 0.960 . S
H370 C369 0.960 . S
H371 N351 0.862 . S
O372 Co340 1.920 . S
O372 C345 1.289 . S
C373 O365 1.258 . S
C373 O366 1.266 . S
Co374 O377 1.970 . S
Co374 N391 1.989 . S
Co374 O399 1.967 . S
Co374 O406 1.920 . S
Co375 O378 1.966 . S
Co375 N384 2.022 . S
Co375 N392 1.993 . S
Co375 O400 1.941 . S
C376 O377 1.258 . S
C376 O378 1.263 . S
O377 Co374 1.970 . S
O377 C376 1.258 . S
O378 Co375 1.966 . S
O378 C376 1.263 . S
C379 O380 1.235 . S
C379 O406 1.289 . S
O380 C379 1.235 . S
C381 C383 1.400 . S
C381 N384 1.351 . S
C381 C386 1.501 . S
C382 C383 1.387 . S
C382 N385 1.341 . S
C383 C381 1.400 . S
C383 C382 1.387 . S
N384 Co375 2.022 . S
N384 C381 1.351 . S
N384 N385 1.365 . S
N385 C382 1.341 . S
N385 N384 1.365 . S
N385 H405 0.862 . S
C386 C381 1.501 . S
C386 H387 0.961 . S
C386 H388 0.961 . S
C386 H389 0.960 . S
H387 C386 0.961 . S
H388 C386 0.961 . S
H389 C386 0.960 . S
C390 N391 1.342 1_565 S
C390 C394 1.401 . S
C390 C395 1.499 . S
N391 Co374 1.989 . S
N391 C390 1.342 1_545 S
N391 N392 1.388 . S
N392 Co375 1.993 . S
N392 N391 1.388 . S
N392 C393 1.346 1_545 S
C393 N392 1.346 1_565 S
C393 C394 1.396 . S
C393 C403 1.510 . S
C394 C390 1.401 . S
C394 C393 1.396 . S
C395 C390 1.499 . S
C395 H396 0.959 . S
C395 H397 0.960 . S
C395 H398 0.961 . S
H396 C395 0.959 . S
H397 C395 0.960 . S
H398 C395 0.961 . S
O399 Co374 1.967 . S
O399 C407 1.258 . S
O400 Co375 1.941 . S
O400 C407 1.266 . S
H401 C403 0.959 . S
H402 C403 0.961 . S
C403 C393 1.510 . S
C403 H401 0.959 . S
C403 H402 0.961 . S
C403 H404 0.960 . S
H404 C403 0.960 . S
H405 N385 0.862 . S
O406 Co374 1.920 . S
O406 C379 1.289 . S
C407 O399 1.258 . S
C407 O400 1.266 . S
Co408 O411 1.970 . S
Co408 N425 1.989 . S
Co408 O433 1.967 . S
Co408 O440 1.920 . S
Co409 O412 1.966 . S
Co409 N418 2.022 . S
Co409 N426 1.993 . S
Co409 O434 1.941 . S
C410 O411 1.258 . S
C410 O412 1.263 . S
O411 Co408 1.970 . S
O411 C410 1.258 . S
O412 Co409 1.966 . S
O412 C410 1.263 . S
C413 O414 1.235 . S
C413 O440 1.289 . S
O414 C413 1.235 . S
C415 C417 1.400 . S
C415 N418 1.351 . S
C415 C420 1.501 . S
C416 C417 1.387 . S
C416 N419 1.341 . S
C417 C415 1.400 . S
C417 C416 1.387 . S
N418 Co409 2.022 . S
N418 C415 1.351 . S
N418 N419 1.365 . S
N419 C416 1.341 . S
N419 N418 1.365 . S
N419 H439 0.862 . S
C420 C415 1.501 . S
C420 H421 0.961 . S
C420 H422 0.961 . S
C420 H423 0.960 . S
H421 C420 0.961 . S
H422 C420 0.961 . S
H423 C420 0.960 . S
C424 N425 1.342 . S
C424 C428 1.401 . S
C424 C429 1.499 . S
N425 Co408 1.989 . S
N425 C424 1.342 . S
N425 N426 1.388 . S
N426 Co409 1.993 . S
N426 N425 1.388 . S
N426 C427 1.346 . S
C427 N426 1.346 . S
C427 C428 1.396 . S
C427 C437 1.510 . S
C428 C424 1.401 . S
C428 C427 1.396 . S
C429 C424 1.499 . S
C429 H430 0.959 . S
C429 H431 0.960 . S
C429 H432 0.961 . S
H430 C429 0.959 . S
H431 C429 0.960 . S
H432 C429 0.961 . S
O433 Co408 1.967 . S
O433 C441 1.258 . S
O434 Co409 1.941 . S
O434 C441 1.266 . S
H435 C437 0.959 . S
H436 C437 0.961 . S
C437 C427 1.510 . S
C437 H435 0.959 . S
C437 H436 0.961 . S
C437 H438 0.960 . S
H438 C437 0.960 . S
H439 N419 0.862 . S
O440 Co408 1.920 . S
O440 C413 1.289 . S
C441 O433 1.258 . S
C441 O434 1.266 . S
Co442 O445 1.970 . S
Co442 N459 1.989 . S
Co442 O467 1.967 . S
Co442 O474 1.920 . S
Co443 O446 1.966 . S
Co443 N452 2.022 . S
Co443 N460 1.993 . S
Co443 O468 1.941 . S
C444 O445 1.258 . S
C444 O446 1.263 . S
O445 Co442 1.970 . S
O445 C444 1.258 . S
O446 Co443 1.966 . S
O446 C444 1.263 . S
C447 O448 1.235 . S
C447 O474 1.289 . S
O448 C447 1.235 . S
C449 C451 1.400 . S
C449 N452 1.351 . S
C449 C454 1.501 . S
C450 C451 1.387 . S
C450 N453 1.341 . S
C451 C449 1.400 . S
C451 C450 1.387 . S
N452 Co443 2.022 . S
N452 C449 1.351 . S
N452 N453 1.365 . S
N453 C450 1.341 . S
N453 N452 1.365 . S
N453 H473 0.862 . S
C454 C449 1.501 . S
C454 H455 0.961 . S
C454 H456 0.961 . S
C454 H457 0.960 . S
H455 C454 0.961 . S
H456 C454 0.961 . S
H457 C454 0.960 . S
C458 N459 1.342 1_565 S
C458 C462 1.401 . S
C458 C463 1.499 . S
N459 Co442 1.989 . S
N459 C458 1.342 1_545 S
N459 N460 1.388 . S
N460 Co443 1.993 . S
N460 N459 1.388 . S
N460 C461 1.346 1_545 S
C461 N460 1.346 1_565 S
C461 C462 1.396 . S
C461 C471 1.510 . S
C462 C458 1.401 . S
C462 C461 1.396 . S
C463 C458 1.499 . S
C463 H464 0.962 . S
C463 H465 0.960 . S
C463 H466 0.961 . S
H464 C463 0.962 . S
H465 C463 0.960 . S
H466 C463 0.961 . S
O467 Co442 1.967 . S
O467 C475 1.258 . S
O468 Co443 1.941 . S
O468 C475 1.266 . S
H469 C471 0.959 . S
H470 C471 0.961 . S
C471 C461 1.510 . S
C471 H469 0.959 . S
C471 H470 0.961 . S
C471 H472 0.960 . S
H472 C471 0.960 . S
H473 N453 0.862 . S
O474 Co442 1.920 . S
O474 C447 1.289 . S
C475 O467 1.258 . S
C475 O468 1.266 . S
Co476 O479 1.970 . S
Co476 N493 1.989 . S
Co476 O501 1.967 . S
Co476 O508 1.920 . S
Co477 O480 1.966 . S
Co477 N486 2.022 . S
Co477 N494 1.993 . S
Co477 O502 1.941 . S
C478 O479 1.258 . S
C478 O480 1.263 . S
O479 Co476 1.970 . S
O479 C478 1.258 . S
O480 Co477 1.966 . S
O480 C478 1.263 . S
C481 O482 1.235 . S
C481 O508 1.289 . S
O482 C481 1.235 . S
C483 C485 1.400 . S
C483 N486 1.351 . S
C483 C488 1.501 . S
C484 C485 1.387 . S
C484 N487 1.341 . S
C485 C483 1.400 . S
C485 C484 1.387 . S
N486 Co477 2.022 . S
N486 C483 1.351 . S
N486 N487 1.365 . S
N487 C484 1.341 . S
N487 N486 1.365 . S
N487 H507 0.862 . S
C488 C483 1.501 . S
C488 H489 0.961 . S
C488 H490 0.961 . S
C488 H491 0.960 . S
H489 C488 0.961 . S
H490 C488 0.961 . S
H491 C488 0.960 . S
C492 N493 1.342 . S
C492 C496 1.401 . S
C492 C497 1.499 . S
N493 Co476 1.989 . S
N493 C492 1.342 . S
N493 N494 1.388 . S
N494 Co477 1.993 . S
N494 N493 1.388 . S
N494 C495 1.346 . S
C495 N494 1.346 . S
C495 C496 1.396 . S
C495 C505 1.510 . S
C496 C492 1.401 . S
C496 C495 1.396 . S
C497 C492 1.499 . S
C497 H498 0.959 . S
C497 H499 0.960 . S
C497 H500 0.961 . S
H498 C497 0.959 . S
H499 C497 0.960 . S
H500 C497 0.961 . S
O501 Co476 1.967 . S
O501 C509 1.258 . S
O502 Co477 1.941 . S
O502 C509 1.266 . S
H503 C505 0.959 . S
H504 C505 0.961 . S
C505 C495 1.510 . S
C505 H503 0.959 . S
C505 H504 0.961 . S
C505 H506 0.960 . S
H506 C505 0.960 . S
H507 N487 0.862 . S
O508 Co476 1.920 . S
O508 C481 1.289 . S
C509 O501 1.258 . S
C509 O502 1.266 . S
Co510 O513 1.970 . S
Co510 N527 1.989 . S
Co510 O535 1.967 . S
Co510 O542 1.920 . S
Co511 O514 1.966 . S
Co511 N520 2.022 . S
Co511 N528 1.993 . S
Co511 O536 1.941 . S
C512 O513 1.258 . S
C512 O514 1.263 . S
O513 Co510 1.970 . S
O513 C512 1.258 . S
O514 Co511 1.966 . S
O514 C512 1.263 . S
C515 O516 1.235 . S
C515 O542 1.289 . S
O516 C515 1.235 . S
C517 C519 1.400 . S
C517 N520 1.351 . S
C517 C522 1.501 . S
C518 C519 1.387 . S
C518 N521 1.341 . S
C519 C517 1.400 . S
C519 C518 1.387 . S
N520 Co511 2.022 . S
N520 C517 1.351 . S
N520 N521 1.365 . S
N521 C518 1.341 . S
N521 N520 1.365 . S
N521 H541 0.862 . S
C522 C517 1.501 . S
C522 H523 0.961 . S
C522 H524 0.961 . S
C522 H525 0.960 . S
H523 C522 0.961 . S
H524 C522 0.961 . S
H525 C522 0.960 . S
C526 N527 1.342 1_545 S
C526 C530 1.401 . S
C526 C531 1.499 . S
N527 Co510 1.989 . S
N527 C526 1.342 1_565 S
N527 N528 1.388 . S
N528 Co511 1.993 . S
N528 N527 1.388 . S
N528 C529 1.346 1_565 S
C529 N528 1.346 1_545 S
C529 C530 1.396 . S
C529 C539 1.510 . S
C530 C526 1.401 . S
C530 C529 1.396 . S
C531 C526 1.499 . S
C531 H532 0.959 1_545 S
C531 H533 0.960 . S
C531 H534 0.961 . S
H532 C531 0.959 1_565 S
H533 C531 0.960 . S
H534 C531 0.961 . S
O535 Co510 1.967 . S
O535 C543 1.258 . S
O536 Co511 1.941 . S
O536 C543 1.266 . S
H537 C539 0.959 . S
H538 C539 0.961 . S
C539 C529 1.510 . S
C539 H537 0.959 . S
C539 H538 0.961 . S
C539 H540 0.960 . S
H540 C539 0.960 . S
H541 N521 0.862 . S
O542 Co510 1.920 . S
O542 C515 1.289 . S
C543 O535 1.258 . S
C543 O536 1.266 . S
C544 C545 1.369 . S
C544 C546 1.419 . S
C544 H548 0.930 . S
C545 C544 1.369 . S
C545 C554 1.429 . S
C546 C544 1.419 . S
C546 C547 1.363 . S
C546 H549 0.929 . S
C547 C546 1.363 . S
C547 C553 1.428 . S
H548 C544 0.930 . S
H549 C546 0.929 . S
S550 N551 1.613 . S
S550 N552 1.610 . S
N551 S550 1.613 . S
N551 C554 1.350 . S
N552 S550 1.610 . S
N552 C553 1.351 . S
C553 C547 1.428 . S
C553 N552 1.351 . S
C553 C554 1.434 . S
C554 C545 1.429 . S
C554 N551 1.350 . S
C554 C553 1.434 . S
C555 C556 1.369 . S
C555 C557 1.419 . S
C555 H559 0.930 . S
C556 C555 1.369 . S
C556 C565 1.429 . S
C557 C555 1.419 . S
C557 C558 1.363 . S
C557 H560 0.929 . S
C558 C557 1.363 . S
C558 C564 1.428 . S
H559 C555 0.930 . S
H560 C557 0.929 . S
S561 N562 1.613 . S
S561 N563 1.610 . S
N562 S561 1.613 . S
N562 C565 1.350 . S
N563 S561 1.610 . S
N563 C564 1.351 . S
C564 C558 1.428 . S
C564 N563 1.351 . S
C564 C565 1.434 . S
C565 C556 1.429 . S
C565 N562 1.350 . S
C565 C564 1.434 . S
C566 C567 1.369 . S
C566 C568 1.419 . S
C566 H570 0.930 . S
C567 C566 1.369 . S
C567 C576 1.429 . S
C568 C566 1.419 . S
C568 C569 1.363 . S
C568 H571 0.929 . S
C569 C568 1.363 . S
C569 C575 1.428 . S
H570 C566 0.930 . S
H571 C568 0.929 . S
S572 N573 1.613 . S
S572 N574 1.610 . S
N573 S572 1.613 . S
N573 C576 1.350 . S
N574 S572 1.610 . S
N574 C575 1.351 . S
C575 C569 1.428 . S
C575 N574 1.351 . S
C575 C576 1.434 . S
C576 C567 1.429 . S
C576 N573 1.350 . S
C576 C575 1.434 . S
C577 C578 1.369 . S
C577 C579 1.419 . S
C577 H581 0.930 . S
C578 C577 1.369 . S
C578 C587 1.429 . S
C579 C577 1.419 . S
C579 C580 1.363 . S
C579 H582 0.929 . S
C580 C579 1.363 . S
C580 C586 1.428 . S
H581 C577 0.930 . S
H582 C579 0.929 . S
S583 N584 1.613 . S
S583 N585 1.610 . S
N584 S583 1.613 . S
N584 C587 1.350 . S
N585 S583 1.610 . S
N585 C586 1.351 . S
C586 C580 1.428 . S
C586 N585 1.351 . S
C586 C587 1.434 . S
C587 C578 1.429 . S
C587 N584 1.350 . S
C587 C586 1.434 . S
C588 C589 1.369 . S
C588 C590 1.419 . S
C588 H592 0.930 . S
C589 C588 1.369 . S
C589 C598 1.429 . S
C590 C588 1.419 . S
C590 C591 1.363 . S
C590 H593 0.929 . S
C591 C590 1.363 . S
C591 C597 1.428 . S
H592 C588 0.930 . S
H593 C590 0.929 . S
S594 N595 1.613 . S
S594 N596 1.610 . S
N595 S594 1.613 . S
N595 C598 1.350 . S
N596 S594 1.610 . S
N596 C597 1.351 . S
C597 C591 1.428 . S
C597 N596 1.351 . S
C597 C598 1.434 . S
C598 C589 1.429 . S
C598 N595 1.350 . S
C598 C597 1.434 . S
C599 C600 1.369 . S
C599 C601 1.419 . S
C599 H603 0.930 . S
C600 C599 1.369 . S
C600 C609 1.429 . S
C601 C599 1.419 . S
C601 C602 1.363 . S
C601 H604 0.929 . S
C602 C601 1.363 . S
C602 C608 1.428 . S
H603 C599 0.930 . S
H604 C601 0.929 . S
S605 N606 1.613 . S
S605 N607 1.610 . S
N606 S605 1.613 . S
N606 C609 1.350 . S
N607 S605 1.610 . S
N607 C608 1.351 . S
C608 C602 1.428 . S
C608 N607 1.351 . S
C608 C609 1.434 . S
C609 C600 1.429 . S
C609 N606 1.350 . S
C609 C608 1.434 . S
C610 C611 1.369 . S
C610 C612 1.419 . S
C610 H614 0.930 . S
C611 C610 1.369 . S
C611 C620 1.429 . S
C612 C610 1.419 . S
C612 C613 1.363 . S
C612 H615 0.929 . S
C613 C612 1.363 . S
C613 C619 1.428 . S
H614 C610 0.930 . S
H615 C612 0.929 . S
S616 N617 1.613 . S
S616 N618 1.610 . S
N617 S616 1.613 . S
N617 C620 1.350 . S
N618 S616 1.610 . S
N618 C619 1.351 . S
C619 C613 1.428 . S
C619 N618 1.351 . S
C619 C620 1.434 . S
C620 C611 1.429 . S
C620 N617 1.350 . S
C620 C619 1.434 . S
C621 C622 1.369 . S
C621 C623 1.419 . S
C621 H625 0.930 . S
C622 C621 1.369 . S
C622 C631 1.429 . S
C623 C621 1.419 . S
C623 C624 1.363 . S
C623 H626 0.929 . S
C624 C623 1.363 . S
C624 C630 1.428 . S
H625 C621 0.930 . S
H626 C623 0.929 . S
S627 N628 1.613 . S
S627 N629 1.610 . S
N628 S627 1.613 . S
N628 C631 1.350 . S
N629 S627 1.610 . S
N629 C630 1.351 . S
C630 C624 1.428 . S
C630 N629 1.351 . S
C630 C631 1.434 . S
C631 C622 1.429 . S
C631 N628 1.350 . S
C631 C630 1.434 . S
C632 C633 1.369 . S
C632 C634 1.419 . S
C632 H636 0.930 . S
C633 C632 1.369 . S
C633 C642 1.429 . S
C634 C632 1.419 . S
C634 C635 1.363 . S
C634 H637 0.929 . S
C635 C634 1.363 . S
C635 C641 1.428 . S
H636 C632 0.930 . S
H637 C634 0.929 . S
S638 N639 1.613 . S
S638 N640 1.610 . S
N639 S638 1.613 . S
N639 C642 1.350 . S
N640 S638 1.610 . S
N640 C641 1.351 . S
C641 C635 1.428 . S
C641 N640 1.351 . S
C641 C642 1.434 . S
C642 C633 1.429 . S
C642 N639 1.350 . S
C642 C641 1.434 . S
C643 C644 1.369 . S
C643 C645 1.419 . S
C643 H647 0.930 . S
C644 C643 1.369 . S
C644 C653 1.429 . S
C645 C643 1.419 . S
C645 C646 1.363 . S
C645 H648 0.929 . S
C646 C645 1.363 . S
C646 C652 1.428 . S
H647 C643 0.930 . S
H648 C645 0.929 . S
S649 N650 1.613 . S
S649 N651 1.610 . S
N650 S649 1.613 . S
N650 C653 1.350 . S
N651 S649 1.610 . S
N651 C652 1.351 . S
C652 C646 1.428 . S
C652 N651 1.351 . S
C652 C653 1.434 . S
C653 C644 1.429 . S
C653 N650 1.350 . S
C653 C652 1.434 . S
C654 C655 1.369 . S
C654 C656 1.419 . S
C654 H658 0.930 . S
C655 C654 1.369 . S
C655 C664 1.429 . S
C656 C654 1.419 . S
C656 C657 1.363 . S
C656 H659 0.929 . S
C657 C656 1.363 . S
C657 C663 1.428 . S
H658 C654 0.930 . S
H659 C656 0.929 . S
S660 N661 1.613 . S
S660 N662 1.610 . S
N661 S660 1.613 . S
N661 C664 1.350 . S
N662 S660 1.610 . S
N662 C663 1.351 . S
C663 C657 1.428 . S
C663 N662 1.351 . S
C663 C664 1.434 . S
C664 C655 1.429 . S
C664 N661 1.350 . S
C664 C663 1.434 . S
C665 C666 1.369 . S
C665 C667 1.419 . S
C665 H669 0.930 . S
C666 C665 1.369 . S
C666 C675 1.429 . S
C667 C665 1.419 . S
C667 C668 1.363 . S
C667 H670 0.929 . S
C668 C667 1.363 . S
C668 C674 1.428 . S
H669 C665 0.930 . S
H670 C667 0.929 . S
S671 N672 1.613 . S
S671 N673 1.610 . S
N672 S671 1.613 . S
N672 C675 1.350 . S
N673 S671 1.610 . S
N673 C674 1.351 . S
C674 C668 1.428 . S
C674 N673 1.351 . S
C674 C675 1.434 . S
C675 C666 1.429 . S
C675 N672 1.350 . S
C675 C674 1.434 . S
C676 C677 1.369 . S
C676 C678 1.419 . S
C676 H680 0.930 . S
C677 C676 1.369 . S
C677 C686 1.429 . S
C678 C676 1.419 . S
C678 C679 1.363 . S
C678 H681 0.929 . S
C679 C678 1.363 . S
C679 C685 1.428 . S
H680 C676 0.930 . S
H681 C678 0.929 . S
S682 N683 1.613 . S
S682 N684 1.610 . S
N683 S682 1.613 . S
N683 C686 1.350 . S
N684 S682 1.610 . S
N684 C685 1.351 . S
C685 C679 1.428 . S
C685 N684 1.351 . S
C685 C686 1.434 . S
C686 C677 1.429 . S
C686 N683 1.350 . S
C686 C685 1.434 . S
C687 C688 1.369 . S
C687 C689 1.419 . S
C687 H691 0.930 . S
C688 C687 1.369 . S
C688 C697 1.429 . S
C689 C687 1.419 . S
C689 C690 1.363 . S
C689 H692 0.929 . S
C690 C689 1.363 . S
C690 C696 1.428 . S
H691 C687 0.930 . S
H692 C689 0.929 . S
S693 N694 1.613 . S
S693 N695 1.610 . S
N694 S693 1.613 . S
N694 C697 1.350 . S
N695 S693 1.610 . S
N695 C696 1.351 . S
C696 C690 1.428 . S
C696 N695 1.351 . S
C696 C697 1.434 . S
C697 C688 1.429 . S
C697 N694 1.350 . S
C697 C696 1.434 . S
C698 C699 1.369 . S
C698 C700 1.419 . S
C698 H702 0.930 . S
C699 C698 1.369 . S
C699 C708 1.429 . S
C700 C698 1.419 . S
C700 C701 1.363 . S
C700 H703 0.929 . S
C701 C700 1.363 . S
C701 C707 1.428 . S
H702 C698 0.930 . S
H703 C700 0.929 . S
S704 N705 1.613 . S
S704 N706 1.610 . S
N705 S704 1.613 . S
N705 C708 1.350 . S
N706 S704 1.610 . S
N706 C707 1.351 . S
C707 C701 1.428 . S
C707 N706 1.351 . S
C707 C708 1.434 . S
C708 C699 1.429 . S
C708 N705 1.350 . S
C708 C707 1.434 . S
C709 C710 1.369 . S
C709 C711 1.419 . S
C709 H713 0.930 . S
C710 C709 1.369 . S
C710 C719 1.429 . S
C711 C709 1.419 . S
C711 C712 1.363 . S
C711 H714 0.929 . S
C712 C711 1.363 . S
C712 C718 1.428 . S
H713 C709 0.930 . S
H714 C711 0.929 . S
S715 N716 1.613 . S
S715 N717 1.610 . S
N716 S715 1.613 . S
N716 C719 1.350 . S
N717 S715 1.610 . S
N717 C718 1.351 . S
C718 C712 1.428 . S
C718 N717 1.351 . S
C718 C719 1.434 . S
C719 C710 1.429 . S
C719 N716 1.350 . S
C719 C718 1.434 . S
C720 C721 1.369 . S
C720 C722 1.419 1_554 S
C720 H724 0.930 . S
C721 C720 1.369 . S
C721 C730 1.429 1_554 S
C722 C720 1.419 1_556 S
C722 C723 1.363 . S
C722 H725 0.929 . S
C723 C722 1.363 . S
C723 C729 1.428 . S
H724 C720 0.930 . S
H725 C722 0.929 . S
S726 N727 1.613 . S
S726 N728 1.610 . S
N727 S726 1.613 . S
N727 C730 1.350 . S
N728 S726 1.610 . S
N728 C729 1.351 . S
C729 C723 1.428 . S
C729 N728 1.351 . S
C729 C730 1.434 . S
C730 C721 1.429 1_556 S
C730 N727 1.350 . S
C730 C729 1.434 . S
C731 C732 1.369 . S
C731 C733 1.419 1_556 S
C731 H735 0.930 . S
C732 C731 1.369 . S
C732 C741 1.429 . S
C733 C731 1.419 1_554 S
C733 C734 1.363 . S
C733 H736 0.929 . S
C734 C733 1.363 . S
C734 C740 1.428 1_554 S
H735 C731 0.930 . S
H736 C733 0.929 . S
S737 N738 1.613 . S
S737 N739 1.610 . S
N738 S737 1.613 . S
N738 C741 1.350 . S
N739 S737 1.610 . S
N739 C740 1.351 . S
C740 C734 1.428 1_556 S
C740 N739 1.351 . S
C740 C741 1.434 . S
C741 C732 1.429 . S
C741 N738 1.350 . S
C741 C740 1.434 . S
C742 C743 1.369 . S
C742 C744 1.419 . S
C742 H746 0.930 . S
C743 C742 1.369 . S
C743 C752 1.429 . S
C744 C742 1.419 . S
C744 C745 1.363 . S
C744 H747 0.929 . S
C745 C744 1.363 . S
C745 C751 1.428 . S
H746 C742 0.930 . S
H747 C744 0.929 . S
S748 N749 1.613 . S
S748 N750 1.610 . S
N749 S748 1.613 . S
N749 C752 1.350 . S
N750 S748 1.610 . S
N750 C751 1.351 . S
C751 C745 1.428 . S
C751 N750 1.351 . S
C751 C752 1.434 . S
C752 C743 1.429 . S
C752 N749 1.350 . S
C752 C751 1.434 . S
C753 C754 1.369 . S
C753 C755 1.419 . S
C753 H757 0.930 . S
C754 C753 1.369 . S
C754 C763 1.429 . S
C755 C753 1.419 . S
C755 C756 1.363 . S
C755 H758 0.929 . S
C756 C755 1.363 . S
C756 C762 1.428 . S
H757 C753 0.930 . S
H758 C755 0.929 . S
S759 N760 1.613 . S
S759 N761 1.610 . S
N760 S759 1.613 . S
N760 C763 1.350 . S
N761 S759 1.610 . S
N761 C762 1.351 . S
C762 C756 1.428 . S
C762 N761 1.351 . S
C762 C763 1.434 . S
C763 C754 1.429 . S
C763 N760 1.350 . S
C763 C762 1.434 . S
C764 C765 1.369 . S
C764 C766 1.411 1_556 S
C764 H768 0.930 . S
C765 C764 1.369 . S
C765 C774 1.429 1_556 S
C766 C764 1.411 1_554 S
C766 C767 1.372 . S
C766 H769 0.927 1_554 S
C767 C766 1.372 . S
C767 C773 1.428 . S
H768 C764 0.930 . S
H769 C766 0.927 1_556 S
S770 N771 1.609 1_545 S
S770 N772 1.605 1_545 S
N771 S770 1.609 1_565 S
N771 C774 1.350 . S
N772 S770 1.605 1_565 S
N772 C773 1.351 . S
C773 C767 1.428 . S
C773 N772 1.351 . S
C773 C774 1.434 . S
C774 C765 1.429 1_554 S
C774 N771 1.350 . S
C774 C773 1.434 . S
C775 C776 1.369 . S
C775 C777 1.419 1_554 S
C775 H779 0.930 . S
C776 C775 1.369 . S
C776 C785 1.429 . S
C777 C775 1.419 1_556 S
C777 C778 1.363 . S
C777 H780 0.929 . S
C778 C777 1.363 . S
C778 C784 1.428 . S
H779 C775 0.930 . S
H780 C777 0.929 . S
S781 N782 1.613 1_556 S
S781 N783 1.610 . S
N782 S781 1.613 1_554 S
N782 C785 1.350 . S
N783 S781 1.610 . S
N783 C784 1.351 . S
C784 C778 1.428 . S
C784 N783 1.351 . S
C784 C785 1.434 1_556 S
C785 C776 1.429 . S
C785 N782 1.350 . S
C785 C784 1.434 1_554 S
C786 C787 1.369 . S
C786 C788 1.419 . S
C786 H790 0.930 . S
C787 C786 1.369 . S
C787 C796 1.429 . S
C788 C786 1.419 . S
C788 C789 1.363 . S
C788 H791 0.929 . S
C789 C788 1.363 . S
C789 C795 1.428 . S
H790 C786 0.930 . S
H791 C788 0.929 . S
S792 N793 1.613 . S
S792 N794 1.610 . S
N793 S792 1.613 . S
N793 C796 1.350 1_565 S
N794 S792 1.610 . S
N794 C795 1.351 1_565 S
C795 C789 1.428 . S
C795 N794 1.351 1_545 S
C795 C796 1.434 . S
C796 C787 1.429 . S
C796 N793 1.350 1_545 S
C796 C795 1.434 . S
C797 C798 1.369 . S
C797 C799 1.419 . S
C797 H801 0.930 . S
C798 C797 1.369 . S
C798 C807 1.429 . S
C799 C797 1.419 . S
C799 C800 1.363 . S
C799 H802 0.929 . S
C800 C799 1.363 . S
C800 C806 1.428 . S
H801 C797 0.930 . S
H802 C799 0.929 . S
S803 N804 1.613 . S
S803 N805 1.610 . S
N804 S803 1.613 . S
N804 C807 1.350 . S
N805 S803 1.610 . S
N805 C806 1.351 . S
C806 C800 1.428 . S
C806 N805 1.351 . S
C806 C807 1.434 . S
C807 C798 1.429 . S
C807 N804 1.350 . S
C807 C806 1.434 . S
C808 C809 1.369 . S
C808 C810 1.419 1_545 S
C808 H812 0.930 . S
C809 C808 1.369 . S
C809 C818 1.429 . S
C810 C808 1.419 1_565 S
C810 C811 1.363 1_565 S
C810 H813 0.929 . S
C811 C810 1.363 1_545 S
C811 C817 1.428 . S
H812 C808 0.930 . S
H813 C810 0.929 . S
S814 N815 1.613 . S
S814 N816 1.610 . S
N815 S814 1.613 . S
N815 C818 1.350 . S
N816 S814 1.610 . S
N816 C817 1.351 . S
C817 C811 1.428 . S
C817 N816 1.351 . S
C817 C818 1.434 . S
C818 C809 1.429 . S
C818 N815 1.350 . S
C818 C817 1.434 . S
C819 C820 1.369 . S
C819 C821 1.419 . S
C819 H823 0.930 . S
C820 C819 1.369 . S
C820 C829 1.429 . S
C821 C819 1.419 . S
C821 C822 1.363 . S
C821 H824 0.929 . S
C822 C821 1.363 . S
C822 C828 1.428 . S
H823 C819 0.930 . S
H824 C821 0.929 . S
S825 N826 1.613 . S
S825 N827 1.610 . S
N826 S825 1.613 . S
N826 C829 1.350 . S
N827 S825 1.610 . S
N827 C828 1.351 . S
C828 C822 1.428 . S
C828 N827 1.351 . S
C828 C829 1.434 . S
C829 C820 1.429 . S
C829 N826 1.350 . S
C829 C828 1.434 . S
C830 C831 1.369 1_545 S
C830 C832 1.419 . S
C830 H834 0.930 . S
C831 C830 1.369 1_565 S
C831 C840 1.429 . S
C832 C830 1.419 . S
C832 C833 1.363 . S
C832 H835 0.929 . S
C833 C832 1.363 . S
C833 C839 1.428 1_545 S
H834 C830 0.930 . S
H835 C832 0.929 . S
S836 N837 1.613 . S
S836 N838 1.610 . S
N837 S836 1.613 . S
N837 C840 1.350 . S
N838 S836 1.610 . S
N838 C839 1.351 . S
C839 C833 1.428 1_565 S
C839 N838 1.351 . S
C839 C840 1.434 . S
C840 C831 1.429 . S
C840 N837 1.350 . S
C840 C839 1.434 . S
C841 C842 1.369 . S
C841 C843 1.419 . S
C841 H845 0.930 . S
C842 C841 1.369 . S
C842 C851 1.429 . S
C843 C841 1.419 . S
C843 C844 1.363 . S
C843 H846 0.929 . S
C844 C843 1.363 . S
C844 C850 1.428 . S
H845 C841 0.930 . S
H846 C843 0.929 . S
S847 N848 1.613 . S
S847 N849 1.610 . S
N848 S847 1.613 . S
N848 C851 1.350 . S
N849 S847 1.610 . S
N849 C850 1.351 . S
C850 C844 1.428 . S
C850 N849 1.351 . S
C850 C851 1.434 . S
C851 C842 1.429 . S
C851 N848 1.350 . S
C851 C850 1.434 . S
C852 C853 1.369 . S
C852 C854 1.419 . S
C852 H856 0.930 . S
C853 C852 1.369 . S
C853 C862 1.429 . S
C854 C852 1.419 . S
C854 C855 1.363 . S
C854 H857 0.929 . S
C855 C854 1.363 . S
C855 C861 1.428 . S
H856 C852 0.930 . S
H857 C854 0.929 . S
S858 N859 1.613 . S
S858 N860 1.610 . S
N859 S858 1.613 . S
N859 C862 1.350 . S
N860 S858 1.610 . S
N860 C861 1.351 . S
C861 C855 1.428 . S
C861 N860 1.351 . S
C861 C862 1.434 . S
C862 C853 1.429 . S
C862 N859 1.350 . S
C862 C861 1.434 . S
C863 C864 1.369 . S
C863 C865 1.419 . S
C863 H867 0.930 . S
C864 C863 1.369 . S
C864 C873 1.429 . S
C865 C863 1.419 . S
C865 C866 1.363 . S
C865 H868 0.929 . S
C866 C865 1.363 . S
C866 C872 1.428 . S
H867 C863 0.930 . S
H868 C865 0.929 . S
S869 N870 1.613 . S
S869 N871 1.610 . S
N870 S869 1.613 . S
N870 C873 1.350 . S
N871 S869 1.610 . S
N871 C872 1.351 . S
C872 C866 1.428 . S
C872 N871 1.351 . S
C872 C873 1.434 . S
C873 C864 1.429 . S
C873 N870 1.350 . S
C873 C872 1.434 . S
C874 C875 1.369 . S
C874 C876 1.419 . S
C874 H878 0.930 . S
C875 C874 1.369 . S
C875 C884 1.429 . S
C876 C874 1.419 . S
C876 C877 1.363 . S
C876 H879 0.929 . S
C877 C876 1.363 . S
C877 C883 1.428 . S
H878 C874 0.930 . S
H879 C876 0.929 . S
S880 N881 1.613 . S
S880 N882 1.610 . S
N881 S880 1.613 . S
N881 C884 1.350 . S
N882 S880 1.610 . S
N882 C883 1.351 . S
C883 C877 1.428 . S
C883 N882 1.351 . S
C883 C884 1.434 . S
C884 C875 1.429 . S
C884 N881 1.350 . S
C884 C883 1.434 . S
C885 C886 1.369 1_565 S
C885 C887 1.419 . S
C885 H889 0.930 1_565 S
C886 C885 1.369 1_545 S
C886 C895 1.429 . S
C887 C885 1.419 . S
C887 C888 1.363 . S
C887 H890 0.929 . S
C888 C887 1.363 . S
C888 C894 1.428 . S
H889 C885 0.930 1_545 S
H890 C887 0.929 . S
S891 N892 1.613 1_455 S
S891 N893 1.610 1_445 S
N892 S891 1.613 1_655 S
N892 C895 1.350 . S
N893 S891 1.610 1_665 S
N893 C894 1.351 . S
C894 C888 1.428 . S
C894 N893 1.351 . S
C894 C895 1.434 1_565 S
C895 C886 1.429 . S
C895 N892 1.350 . S
C895 C894 1.434 1_545 S
C896 C897 1.369 . S
C896 C898 1.419 . S
C896 H900 0.930 . S
C897 C896 1.369 . S
C897 C906 1.429 . S
C898 C896 1.419 . S
C898 C899 1.363 . S
C898 H901 0.929 . S
C899 C898 1.363 . S
C899 C905 1.428 . S
H900 C896 0.930 . S
H901 C898 0.929 . S
S902 N903 1.613 . S
S902 N904 1.610 . S
N903 S902 1.613 . S
N903 C906 1.350 . S
N904 S902 1.610 . S
N904 C905 1.351 . S
C905 C899 1.428 . S
C905 N904 1.351 . S
C905 C906 1.434 . S
C906 C897 1.429 . S
C906 N903 1.350 . S
C906 C905 1.434 . S
C907 C908 1.369 . S
C907 C909 1.419 . S
C907 H911 0.930 . S
C908 C907 1.369 . S
C908 C917 1.429 . S
C909 C907 1.419 . S
C909 C910 1.363 . S
C909 H912 0.929 . S
C910 C909 1.363 . S
C910 C916 1.428 . S
H911 C907 0.930 . S
H912 C909 0.929 . S
S913 N914 1.613 . S
S913 N915 1.610 . S
N914 S913 1.613 . S
N914 C917 1.350 . S
N915 S913 1.610 . S
N915 C916 1.351 . S
C916 C910 1.428 . S
C916 N915 1.351 . S
C916 C917 1.434 . S
C917 C908 1.429 . S
C917 N914 1.350 . S
C917 C916 1.434 . S
C918 C919 1.369 . S
C918 C920 1.419 . S
C918 H922 0.930 . S
C919 C918 1.369 . S
C919 C928 1.429 . S
C920 C918 1.419 . S
C920 C921 1.363 . S
C920 H923 0.929 . S
C921 C920 1.363 . S
C921 C927 1.428 . S
H922 C918 0.930 . S
H923 C920 0.929 . S
S924 N925 1.613 . S
S924 N926 1.610 . S
N925 S924 1.613 . S
N925 C928 1.350 . S
N926 S924 1.610 . S
N926 C927 1.351 . S
C927 C921 1.428 . S
C927 N926 1.351 . S
C927 C928 1.434 . S
C928 C919 1.429 . S
C928 N925 1.350 . S
C928 C927 1.434 . S
C929 C930 1.369 . S
C929 C931 1.419 . S
C929 H933 0.930 . S
C930 C929 1.369 . S
C930 C939 1.429 . S
C931 C929 1.419 . S
C931 C932 1.363 . S
C931 H934 0.929 . S
C932 C931 1.363 . S
C932 C938 1.428 . S
H933 C929 0.930 . S
H934 C931 0.929 . S
S935 N936 1.613 . S
S935 N937 1.610 . S
N936 S935 1.613 . S
N936 C939 1.350 . S
N937 S935 1.610 . S
N937 C938 1.351 . S
C938 C932 1.428 . S
C938 N937 1.351 . S
C938 C939 1.434 . S
C939 C930 1.429 . S
C939 N936 1.350 . S
C939 C938 1.434 . S
C940 C941 1.369 . S
C940 C942 1.419 . S
C940 H944 0.930 . S
C941 C940 1.369 . S
C941 C950 1.429 1_655 S
C942 C940 1.419 . S
C942 C943 1.363 1_655 S
C942 H945 0.929 . S
C943 C942 1.363 1_455 S
C943 C949 1.428 . S
H944 C940 0.930 . S
H945 C942 0.929 . S
S946 N947 1.613 . S
S946 N948 1.610 . S
N947 S946 1.613 . S
N947 C950 1.350 . S
N948 S946 1.610 . S
N948 C949 1.351 . S
C949 C943 1.428 . S
C949 N948 1.351 . S
C949 C950 1.434 . S
C950 C941 1.429 1_455 S
C950 N947 1.350 . S
C950 C949 1.434 . S
C951 C952 1.369 . S
C951 C953 1.419 1_455 S
C951 H955 0.930 . S
C952 C951 1.369 . S
C952 C961 1.429 . S
C953 C951 1.419 1_655 S
C953 C954 1.363 . S
C953 H956 0.929 . S
C954 C953 1.363 . S
C954 C960 1.428 . S
H955 C951 0.930 . S
H956 C953 0.929 . S
S957 N958 1.613 . S
S957 N959 1.620 . S
N958 S957 1.613 . S
N958 C961 1.350 . S
N959 S957 1.620 . S
N959 C960 1.350 1_455 S
C960 C954 1.428 . S
C960 N959 1.350 1_655 S
C960 C961 1.434 1_655 S
C961 C952 1.429 . S
C961 N958 1.350 . S
C961 C960 1.434 1_455 S
C962 C963 1.369 . S
C962 C964 1.419 . S
C962 H966 0.930 . S
C963 C962 1.369 . S
C963 C972 1.429 1_455 S
C964 C962 1.419 . S
C964 C965 1.363 1_455 S
C964 H967 0.929 . S
C965 C964 1.363 1_655 S
C965 C971 1.428 . S
H966 C962 0.930 . S
H967 C964 0.929 . S
S968 N969 1.613 . S
S968 N970 1.610 . S
N969 S968 1.613 . S
N969 C972 1.350 . S
N970 S968 1.610 . S
N970 C971 1.351 . S
C971 C965 1.428 . S
C971 N970 1.351 . S
C971 C972 1.434 . S
C972 C963 1.429 1_655 S
C972 N969 1.350 . S
C972 C971 1.434 . S
C973 C974 1.369 . S
C973 C975 1.419 . S
C973 H977 0.930 . S
C974 C973 1.369 . S
C974 C983 1.429 1_655 S
C975 C973 1.419 . S
C975 C976 1.363 1_655 S
C975 H978 0.929 . S
C976 C975 1.363 1_455 S
C976 C982 1.428 . S
H977 C973 0.930 . S
H978 C975 0.929 . S
S979 N980 1.613 . S
S979 N981 1.610 . S
N980 S979 1.613 . S
N980 C983 1.350 . S
N981 S979 1.610 . S
N981 C982 1.351 . S
C982 C976 1.428 . S
C982 N981 1.351 . S
C982 C983 1.434 . S
C983 C974 1.429 1_455 S
C983 N980 1.350 . S
C983 C982 1.434 . S
C545 C20 0.966 . S
C547 C509 0.971 . S
C556 C54 0.959 . S
C558 C543 0.968 . S
C567 C88 1.020 . S
C569 C441 1.011 . S
C578 C475 1.014 . S
C580 C122 1.018 . S
C589 C156 1.249 . S
C591 C373 1.235 . S
C600 C190 1.247 . S
C602 C407 1.237 . S
C611 C224 1.109 . S
C613 C274 1.109 . S
C622 C308 1.114 . S
C624 C258 1.102 . S
C633 C292 0.966 . S
C635 C237 0.970 . S
C644 C271 0.968 . S
C646 C326 0.959 . S
C655 C360 1.018 . S
C657 C169 1.014 . S
C666 C394 1.020 . S
C668 C203 1.012 . S
C677 C428 1.244 . S
C679 C101 1.240 . S
C688 C462 1.244 . S
C690 C135 1.239 . S
C699 C2 1.111 . S
C701 C496 1.104 . S
C710 C36 1.108 . S
C712 C530 1.109 . S
C721 C9 1.741 . S
C723 C379 1.709 . S
C732 C345 1.708 . S
C734 C43 1.741 . S
C743 C73 1.714 . S
C745 C315 1.744 . S
C754 C281 1.741 . S
C756 C107 1.709 . S
C765 C141 2.125 . S
C767 C515 2.109 . S
C776 C481 2.114 . S
C778 C175 2.123 . S
C787 C209 2.108 . S
C789 C447 2.125 . S
C798 C243 2.111 . S
C800 C413 2.123 . S
C809 C5 1.949 . S
C811 C77 1.748 1_545 S
C820 C39 1.946 . S
C822 C111 1.747 . S
C831 C145 1.414 . S
C833 C213 1.452 . S
C842 C247 1.452 . S
C844 C179 1.421 . S
C853 C349 1.744 . S
C855 C277 1.946 . S
C864 C383 1.743 1_565 S
C866 C311 1.947 . S
C875 C417 1.414 . S
C877 C485 1.451 . S
C886 C451 1.421 . S
C888 C519 1.455 . S
C897 C67 1.384 . S
C899 C33 1.390 . S
C908 C70 1.550 . S
C910 C104 1.555 . S
C919 C138 1.681 . S
C921 C172 1.676 . S
C930 C240 1.668 . S
C932 C206 1.671 . S
C941 C305 1.390 . S
C943 C339 1.385 . S
C952 C376 1.550 . S
C954 C342 1.555 . S
C963 C410 1.680 . S
C965 C444 1.676 . S
C974 C512 1.672 . S
C976 C478 1.668 . S
