# Generated by pormake.
# Topology umc, (4)-cn, num edge types: 1
# Building blocks:
#     Node 0, Type 0, BuildingBlock: QUQFOY_clean_sbu_3, # of connection points: 4
#     Node 1, Type 0, BuildingBlock: QUQFOY_clean_sbu_3, # of connection points: 4
#     Node 2, Type 0, BuildingBlock: QUQFOY_clean_sbu_3, # of connection points: 4
#     Node 3, Type 0, BuildingBlock: QUQFOY_clean_sbu_3, # of connection points: 4
#     Node 4, Type 0, BuildingBlock: QUQFOY_clean_sbu_3, # of connection points: 4
#     Node 5, Type 0, BuildingBlock: QUQFOY_clean_sbu_3, # of connection points: 4
#     Node 6, Type 0, BuildingBlock: QUQFOY_clean_sbu_3, # of connection points: 4
#     Node 7, Type 0, BuildingBlock: QUQFOY_clean_sbu_3, # of connection points: 4
#     Node 8, Type 0, BuildingBlock: QUQFOY_clean_sbu_3, # of connection points: 4
#     Node 9, Type 0, BuildingBlock: QUQFOY_clean_sbu_3, # of connection points: 4
#     Node 10, Type 0, BuildingBlock: QUQFOY_clean_sbu_3, # of connection points: 4
#     Node 11, Type 0, BuildingBlock: QUQFOY_clean_sbu_3, # of connection points: 4
#     Node 12, Type 0, BuildingBlock: QUQFOY_clean_sbu_3, # of connection points: 4
#     Node 13, Type 0, BuildingBlock: QUQFOY_clean_sbu_3, # of connection points: 4
#     Node 14, Type 0, BuildingBlock: QUQFOY_clean_sbu_3, # of connection points: 4
#     Node 15, Type 0, BuildingBlock: QUQFOY_clean_sbu_3, # of connection points: 4
#     Edge 16, Type (0, 0), BuildingBlock: ZUJKAS_clean_linker_0, # of connection points: 2
#     Edge 17, Type (0, 0), BuildingBlock: ZUJKAS_clean_linker_0, # of connection points: 2
#     Edge 18, Type (0, 0), BuildingBlock: ZUJKAS_clean_linker_0, # of connection points: 2
#     Edge 19, Type (0, 0), BuildingBlock: ZUJKAS_clean_linker_0, # of connection points: 2
#     Edge 20, Type (0, 0), BuildingBlock: ZUJKAS_clean_linker_0, # of connection points: 2
#     Edge 21, Type (0, 0), BuildingBlock: ZUJKAS_clean_linker_0, # of connection points: 2
#     Edge 22, Type (0, 0), BuildingBlock: ZUJKAS_clean_linker_0, # of connection points: 2
#     Edge 23, Type (0, 0), BuildingBlock: ZUJKAS_clean_linker_0, # of connection points: 2
#     Edge 24, Type (0, 0), BuildingBlock: ZUJKAS_clean_linker_0, # of connection points: 2
#     Edge 25, Type (0, 0), BuildingBlock: ZUJKAS_clean_linker_0, # of connection points: 2
#     Edge 26, Type (0, 0), BuildingBlock: ZUJKAS_clean_linker_0, # of connection points: 2
#     Edge 27, Type (0, 0), BuildingBlock: ZUJKAS_clean_linker_0, # of connection points: 2
#     Edge 28, Type (0, 0), BuildingBlock: ZUJKAS_clean_linker_0, # of connection points: 2
#     Edge 29, Type (0, 0), BuildingBlock: ZUJKAS_clean_linker_0, # of connection points: 2
#     Edge 30, Type (0, 0), BuildingBlock: ZUJKAS_clean_linker_0, # of connection points: 2
#     Edge 31, Type (0, 0), BuildingBlock: ZUJKAS_clean_linker_0, # of connection points: 2
#     Edge 32, Type (0, 0), BuildingBlock: ZUJKAS_clean_linker_0, # of connection points: 2
#     Edge 33, Type (0, 0), BuildingBlock: ZUJKAS_clean_linker_0, # of connection points: 2
#     Edge 34, Type (0, 0), BuildingBlock: ZUJKAS_clean_linker_0, # of connection points: 2
#     Edge 35, Type (0, 0), BuildingBlock: ZUJKAS_clean_linker_0, # of connection points: 2
#     Edge 36, Type (0, 0), BuildingBlock: ZUJKAS_clean_linker_0, # of connection points: 2
#     Edge 37, Type (0, 0), BuildingBlock: ZUJKAS_clean_linker_0, # of connection points: 2
#     Edge 38, Type (0, 0), BuildingBlock: ZUJKAS_clean_linker_0, # of connection points: 2
#     Edge 39, Type (0, 0), BuildingBlock: ZUJKAS_clean_linker_0, # of connection points: 2
#     Edge 40, Type (0, 0), BuildingBlock: ZUJKAS_clean_linker_0, # of connection points: 2
#     Edge 41, Type (0, 0), BuildingBlock: ZUJKAS_clean_linker_0, # of connection points: 2
#     Edge 42, Type (0, 0), BuildingBlock: ZUJKAS_clean_linker_0, # of connection points: 2
#     Edge 43, Type (0, 0), BuildingBlock: ZUJKAS_clean_linker_0, # of connection points: 2
#     Edge 44, Type (0, 0), BuildingBlock: ZUJKAS_clean_linker_0, # of connection points: 2
#     Edge 45, Type (0, 0), BuildingBlock: ZUJKAS_clean_linker_0, # of connection points: 2
#     Edge 46, Type (0, 0), BuildingBlock: ZUJKAS_clean_linker_0, # of connection points: 2
#     Edge 47, Type (0, 0), BuildingBlock: ZUJKAS_clean_linker_0, # of connection points: 2
# Relax obj value: 0.086
# Max RMSD: 0.169
# Mean RMSD: 0.169
data_MOF--net-umc--node1-QUQFOY_clean_sbu_3--edge1-ZUJKAS_clean_linker_0
_symmetry_space_group_name_H-M    P1
_symmetry_Int_Tables_number       1
_symmetry_cell_setting            triclinic
loop_
_symmetry_equiv_pos_as_xyz
'x, y, z'
_cell_length_a     57.7057
_cell_length_b     44.820573
_cell_length_c     73.969558
_cell_angle_alpha  90.058442
_cell_angle_beta   90.051109
_cell_angle_gamma 90.009004
loop_
_atom_site_label
_atom_site_type_symbol
_atom_site_fract_x
_atom_site_fract_y
_atom_site_fract_z
_atom_type_partial_charge
C0 C 0.29586 0.00385 0.33441 0.0
O1 O 0.30068 0.98168 0.3444 0.0
Cd2 Cd 0.3225 0.98863 0.37188 0.0
O3 O 0.30281 0.0299 0.33853 0.0
Cd4 Cd 0.32372 0.05899 0.36114 0.0
C5 C 0.37324 0.01939 0.35516 0.0
O6 O 0.30721 0.03196 0.38644 0.0
O7 O 0.33459 0.06325 0.39268 0.0
O8 O 0.29269 0.0941 0.35605 0.0
C9 C 0.31969 0.04463 0.39828 0.0
O10 O 0.36256 0.99825 0.36311 0.0
C11 C 0.3053 0.11703 0.35412 0.0
O12 O 0.36288 0.04371 0.35124 0.0
O13 O 0.3271 0.11318 0.35525 0.0
C14 C 0.69344 0.00587 0.3327 0.0
O15 O 0.6892 0.02483 0.34501 0.0
Cd16 Cd 0.66944 0.00931 0.37209 0.0
O17 O 0.68733 0.97878 0.33456 0.0
Cd18 Cd 0.66921 0.94343 0.35532 0.0
C19 C 0.61843 0.98107 0.35442 0.0
O20 O 0.68799 0.96434 0.38191 0.0
O21 O 0.66164 0.93103 0.38674 0.0
O22 O 0.70042 0.91215 0.34463 0.0
C23 C 0.67736 0.94783 0.39306 0.0
O24 O 0.62897 1.00048 0.36397 0.0
C25 C 0.68863 0.88849 0.34277 0.0
O26 O 0.62918 0.95853 0.34805 0.0
O27 O 0.66708 0.89031 0.34623 0.0
C28 C 0.30141 0.98325 0.1499 0.0
O29 O 0.30327 0.00612 0.13988 0.0
Cd30 Cd 0.32043 0.00375 0.11047 0.0
O31 O 0.30788 0.95768 0.14433 0.0
Cd32 Cd 0.32298 0.93125 0.11774 0.0
C33 C 0.37343 0.97065 0.12046 0.0
O34 O 0.30151 0.9621 0.09704 0.0
O35 O 0.32475 0.93054 0.08461 0.0
O36 O 0.29319 0.89555 0.12541 0.0
C37 C 0.30966 0.95088 0.08271 0.0
O38 O 0.36148 0.99321 0.11565 0.0
C39 C 0.30578 0.87243 0.12438 0.0
O40 O 0.36385 0.94529 0.1229 0.0
O41 O 0.32704 0.87647 0.12052 0.0
C42 C 0.69497 0.01365 0.15076 0.0
O43 O 0.69338 0.98736 0.14452 0.0
Cd44 Cd 0.67412 0.97947 0.11606 0.0
O45 O 0.68719 0.0356 0.14177 0.0
Cd46 Cd 0.66968 0.04837 0.11274 0.0
C47 C 0.62041 0.01151 0.12281 0.0
O48 O 0.69005 0.01232 0.09355 0.0
O49 O 0.66033 0.03492 0.08203 0.0
O50 O 0.70035 0.08468 0.11134 0.0
C51 C 0.6776 0.01781 0.07979 0.0
O52 O 0.63279 0.98826 0.12064 0.0
C53 C 0.68772 0.10764 0.10975 0.0
O54 O 0.62945 0.03743 0.12176 0.0
O55 O 0.66591 0.10338 0.10931 0.0
C56 C 0.71303 0.99454 0.64663 0.0
O57 O 0.7083 0.01563 0.63581 0.0
Cd58 Cd 0.68627 0.00499 0.60873 0.0
O59 O 0.70579 0.96825 0.64358 0.0
Cd60 Cd 0.68414 0.93772 0.62226 0.0
C61 C 0.6353 0.97892 0.62703 0.0
O62 O 0.70109 0.96002 0.59526 0.0
O63 O 0.6724 0.9296 0.59129 0.0
O64 O 0.71418 0.90172 0.62881 0.0
C65 C 0.68819 0.94566 0.58442 0.0
O66 O 0.64589 0.99857 0.61774 0.0
C67 C 0.70086 0.87977 0.63174 0.0
O68 O 0.64559 0.95516 0.63211 0.0
O69 O 0.6792 0.88467 0.63053 0.0
C70 C 0.31345 0.99623 0.65164 0.0
O71 O 0.31775 0.9735 0.64197 0.0
Cd72 Cd 0.33982 0.97886 0.61456 0.0
O73 O 0.32039 0.02193 0.64682 0.0
Cd74 Cd 0.33996 0.04935 0.62281 0.0
C75 C 0.39026 0.01273 0.62987 0.0
O76 O 0.32338 0.01986 0.59844 0.0
O77 O 0.35094 0.05027 0.59118 0.0
O78 O 0.30755 0.08271 0.62659 0.0
C79 C 0.33565 0.03167 0.58618 0.0
O80 O 0.37982 0.99056 0.62276 0.0
C81 C 0.31907 0.10673 0.62753 0.0
O82 O 0.37954 0.03708 0.63307 0.0
O83 O 0.34102 0.10441 0.62654 0.0
C84 C 0.69438 0.01662 0.83066 0.0
O85 O 0.69125 0.99376 0.84049 0.0
Cd86 Cd 0.6744 0.99744 0.87014 0.0
O87 O 0.68923 0.04252 0.83644 0.0
Cd88 Cd 0.67499 0.06878 0.86323 0.0
C89 C 0.62292 0.03376 0.86059 0.0
O90 O 0.69539 0.03671 0.8844 0.0
O91 O 0.67185 0.06881 0.8961 0.0
O92 O 0.70615 0.10275 0.85593 0.0
C93 C 0.68689 0.04854 0.89845 0.0
O94 O 0.63356 0.01077 0.86639 0.0
C95 C 0.69454 0.12662 0.85748 0.0
O96 O 0.63385 0.05774 0.85689 0.0
O97 O 0.67317 0.12383 0.86139 0.0
C98 C 0.29881 0.01314 0.83291 0.0
O99 O 0.30284 0.03849 0.83987 0.0
Cd100 Cd 0.32278 0.04083 0.86859 0.0
O101 O 0.30575 0.98952 0.84065 0.0
Cd102 Cd 0.32558 0.97121 0.86736 0.0
C103 C 0.37532 0.00832 0.85907 0.0
O104 O 0.30629 0.00452 0.88875 0.0
O105 O 0.33559 0.97921 0.89872 0.0
O106 O 0.2953 0.93407 0.8671 0.0
C107 C 0.3187 0.99648 0.90204 0.0
O108 O 0.36403 0.0313 0.86405 0.0
C109 C 0.30832 0.91132 0.86698 0.0
O110 O 0.36525 0.98316 0.85723 0.0
O111 O 0.33005 0.9161 0.86721 0.0
C112 C 0.80349 0.49381 0.33091 0.0
O113 O 0.80716 0.47331 0.3424 0.0
Cd114 Cd 0.82492 0.48555 0.37101 0.0
O115 O 0.80912 0.52063 0.3344 0.0
Cd116 Cd 0.82524 0.55358 0.35736 0.0
C117 C 0.87676 0.51723 0.35769 0.0
O118 O 0.80489 0.52885 0.3819 0.0
O119 O 0.82954 0.56296 0.38951 0.0
O120 O 0.79442 0.58588 0.34701 0.0
C121 C 0.81404 0.54452 0.39426 0.0
O122 O 0.8659 0.49629 0.36567 0.0
C123 C 0.80649 0.60941 0.34576 0.0
O124 O 0.86605 0.54017 0.35184 0.0
O125 O 0.82791 0.60712 0.34958 0.0
C126 C 0.1992 0.51897 0.33291 0.0
O127 O 0.19295 0.54079 0.3427 0.0
Cd128 Cd 0.17584 0.53173 0.37197 0.0
O129 O 0.19523 0.49221 0.33761 0.0
Cd130 Cd 0.17807 0.46197 0.36136 0.0
C131 C 0.12539 0.49608 0.35984 0.0
O132 O 0.19684 0.49094 0.38508 0.0
O133 O 0.17352 0.45589 0.39361 0.0
O134 O 0.20913 0.42791 0.35342 0.0
C135 C 0.18795 0.47603 0.39787 0.0
O136 O 0.13542 0.51831 0.36719 0.0
C137 C 0.19678 0.40453 0.35284 0.0
O138 O 0.13695 0.47329 0.35478 0.0
O139 O 0.17524 0.40776 0.35588 0.0
C140 C 0.79756 0.49136 0.14842 0.0
O141 O 0.80233 0.51699 0.14215 0.0
Cd142 Cd 0.82284 0.52201 0.11387 0.0
O143 O 0.80353 0.46799 0.13992 0.0
Cd144 Cd 0.82212 0.45096 0.11231 0.0
C145 C 0.87324 0.4834 0.12297 0.0
O146 O 0.80609 0.4888 0.09211 0.0
O147 O 0.83388 0.46133 0.08166 0.0
O148 O 0.78973 0.41699 0.11042 0.0
C149 C 0.81884 0.48145 0.07887 0.0
O150 O 0.86317 0.50776 0.11885 0.0
C151 C 0.80145 0.39312 0.10964 0.0
O152 O 0.86205 0.45885 0.12349 0.0
O153 O 0.82341 0.39583 0.10995 0.0
C154 C 0.19649 0.47522 0.15189 0.0
O155 O 0.18993 0.45243 0.1431 0.0
Cd156 Cd 0.17182 0.45935 0.11401 0.0
O157 O 0.19223 0.50137 0.14621 0.0
Cd158 Cd 0.17398 0.52836 0.12154 0.0
C159 C 0.12161 0.49531 0.12582 0.0
O160 O 0.19222 0.4981 0.09816 0.0
O161 O 0.16554 0.52881 0.08945 0.0
O162 O 0.20601 0.56241 0.12614 0.0
C163 C 0.18146 0.51057 0.08528 0.0
O164 O 0.13136 0.47273 0.11866 0.0
C165 C 0.19417 0.58618 0.12671 0.0
O166 O 0.13335 0.5183 0.13024 0.0
O167 O 0.17233 0.58337 0.12506 0.0
C168 C 0.19847 0.4968 0.65012 0.0
O169 O 0.19526 0.5193 0.64001 0.0
Cd170 Cd 0.17629 0.5144 0.61131 0.0
O171 O 0.19242 0.47086 0.64497 0.0
Cd172 Cd 0.17642 0.44352 0.61919 0.0
C173 C 0.12507 0.47904 0.62346 0.0
O174 O 0.19543 0.47404 0.59664 0.0
O175 O 0.16901 0.44397 0.58677 0.0
O176 O 0.20847 0.4101 0.62468 0.0
C177 C 0.18477 0.46284 0.5833 0.0
O178 O 0.13572 0.50163 0.6171 0.0
C179 C 0.19691 0.38607 0.6245 0.0
O180 O 0.13588 0.4549 0.627 0.0
O181 O 0.17514 0.38844 0.62209 0.0
C182 C 0.80454 0.47484 0.64526 0.0
O183 O 0.81026 0.45479 0.63401 0.0
Cd184 Cd 0.82734 0.46913 0.60555 0.0
O185 O 0.8087 0.5022 0.64221 0.0
Cd186 Cd 0.82546 0.53574 0.61989 0.0
C187 C 0.87779 0.50138 0.62059 0.0
O188 O 0.80648 0.51166 0.59425 0.0
O189 O 0.83196 0.54557 0.58815 0.0
O190 O 0.79429 0.56834 0.62951 0.0
C191 C 0.81634 0.52795 0.58255 0.0
O192 O 0.8679 0.48076 0.61158 0.0
C193 C 0.8064 0.59183 0.63085 0.0
O194 O 0.86618 0.5233 0.62683 0.0
O195 O 0.82792 0.58931 0.62752 0.0
C196 C 0.21195 0.51019 0.83391 0.0
O197 O 0.20739 0.48681 0.84291 0.0
Cd198 Cd 0.18813 0.49022 0.87177 0.0
O199 O 0.20576 0.53573 0.83962 0.0
Cd200 Cd 0.18671 0.56132 0.86455 0.0
C201 C 0.13628 0.52283 0.85956 0.0
O202 O 0.20611 0.53104 0.88721 0.0
O203 O 0.18044 0.5623 0.89694 0.0
O204 O 0.21685 0.59756 0.85878 0.0
C205 C 0.19588 0.54305 0.9005 0.0
O206 O 0.14725 0.50069 0.86613 0.0
C207 C 0.20403 0.6205 0.85946 0.0
O208 O 0.14664 0.54731 0.85607 0.0
O209 O 0.18252 0.61609 0.86213 0.0
C210 C 0.81441 0.51203 0.82817 0.0
O211 O 0.82076 0.53638 0.83539 0.0
Cd212 Cd 0.83825 0.53628 0.86508 0.0
O213 O 0.81833 0.48721 0.83583 0.0
Cd214 Cd 0.83562 0.4652 0.86266 0.0
C215 C 0.88839 0.49714 0.85685 0.0
O216 O 0.81823 0.50081 0.88362 0.0
O217 O 0.84354 0.47018 0.89462 0.0
O218 O 0.80291 0.43167 0.86091 0.0
C219 C 0.82882 0.49071 0.89734 0.0
O220 O 0.87848 0.52114 0.86187 0.0
C221 C 0.81434 0.40754 0.86094 0.0
O222 O 0.87674 0.47333 0.85414 0.0
O223 O 0.83629 0.40985 0.86183 0.0
H224 H 0.2904 0.00431 0.41402 0.0
H225 H 0.28919 0.98981 0.44599 0.0
H226 H 0.34485 0.05114 0.45759 0.0
H227 H 0.34626 0.0657 0.42584 0.0
H228 H 0.34913 0.98864 0.4716 0.0
H229 H 0.26615 0.0464 0.48832 0.0
H230 H 0.26747 0.02244 0.46877 0.0
H231 H 0.28313 0.05697 0.46886 0.0
C232 C 0.30233 0.01475 0.42342 0.0
C233 C 0.31841 0.0362 0.41748 0.0
C234 C 0.30159 0.00643 0.44161 0.0
C235 C 0.3169 0.0195 0.454 0.0
C236 C 0.33296 0.04082 0.44811 0.0
H237 H 0.36207 0.04962 0.55778 0.0
H238 H 0.356 0.03855 0.52585 0.0
C239 C 0.33369 0.04918 0.43001 0.0
C240 C 0.31638 0.01153 0.47328 0.0
H241 H 0.28846 0.02854 0.51251 0.0
C242 C 0.33564 0.99675 0.48056 0.0
C243 C 0.2986 0.0219 0.48478 0.0
C244 C 0.27762 0.0379 0.47742 0.0
C245 C 0.33832 0.99376 0.49927 0.0
C246 C 0.3215 0.00636 0.51084 0.0
C247 C 0.30136 0.01905 0.50352 0.0
C248 C 0.326 0.01049 0.53028 0.0
C249 C 0.35957 0.97823 0.50652 0.0
C250 C 0.31088 0.99871 0.54326 0.0
C251 C 0.31426 0.0051 0.56155 0.0
C252 C 0.33262 0.02369 0.56703 0.0
C253 C 0.34781 0.03521 0.55397 0.0
C254 C 0.34449 0.02869 0.53575 0.0
H255 H 0.36634 0.96165 0.49667 0.0
H256 H 0.37339 0.995 0.50894 0.0
H257 H 0.35583 0.96674 0.51949 0.0
H258 H 0.29636 0.9849 0.5392 0.0
H259 H 0.30226 0.99597 0.57135 0.0
H260 H 0.71932 0.97976 0.56568 0.0
H261 H 0.72397 0.98257 0.53276 0.0
H262 H 0.66855 0.91899 0.52588 0.0
H263 H 0.66384 0.91587 0.5586 0.0
H264 H 0.71089 0.90745 0.50546 0.0
H265 H 0.67662 0.02305 0.49751 0.0
H266 H 0.6992 0.017 0.5139 0.0
H267 H 0.67107 0.00108 0.51749 0.0
C268 C 0.70813 0.96642 0.55713 0.0
C269 C 0.69116 0.94766 0.56468 0.0
C270 C 0.71078 0.96812 0.53838 0.0
C271 C 0.69648 0.95113 0.52701 0.0
C272 C 0.67971 0.93226 0.53452 0.0
H273 H 0.6582 0.91378 0.4196 0.0
H274 H 0.66679 0.91528 0.4519 0.0
C275 C 0.67702 0.93058 0.55319 0.0
C276 C 0.69872 0.95278 0.50721 0.0
H277 H 0.68554 0.9966 0.47099 0.0
C278 C 0.70565 0.92704 0.49789 0.0
C279 C 0.69202 0.97849 0.4975 0.0
C280 C 0.68417 0.00651 0.50701 0.0
C281 C 0.70525 0.92596 0.47898 0.0
C282 C 0.69731 0.9511 0.46927 0.0
C283 C 0.69152 0.97736 0.47856 0.0
C284 C 0.69293 0.94973 0.44966 0.0
C285 C 0.71292 0.89777 0.46956 0.0
C286 C 0.70443 0.96911 0.43783 0.0
C287 C 0.69946 0.96843 0.41935 0.0
C288 C 0.68276 0.94853 0.41252 0.0
C289 C 0.6712 0.92927 0.42446 0.0
C290 C 0.67621 0.92994 0.44288 0.0
H291 H 0.72489 0.88454 0.47816 0.0
H292 H 0.69751 0.88375 0.46665 0.0
H293 H 0.72168 0.90285 0.45656 0.0
H294 H 0.71723 0.98472 0.44289 0.0
H295 H 0.7086 0.98357 0.41046 0.0
H296 H 0.28631 0.00233 0.07508 0.0
H297 H 0.27754 0.02279 0.04509 0.0
H298 H 0.30969 0.94624 0.02021 0.0
H299 H 0.31872 0.92581 0.05 0.0
H300 H 0.31358 0.03431 0.01772 0.0
H301 H 0.24531 0.95659 -0.00582 0.0
H302 H 0.25153 0.96287 0.01785 0.0
H303 H 0.26933 0.93799 0.00476 0.0
C304 C 0.29128 0.98973 0.0632 0.0
C305 C 0.30324 0.9625 0.06481 0.0
C306 C 0.28623 0.00144 0.04615 0.0
C307 C 0.29268 0.98575 0.03057 0.0
C308 C 0.30423 0.95835 0.03215 0.0
H309 H 0.34659 0.99253 0.93148 0.0
H310 H 0.33587 1.00072 0.96294 0.0
C311 C 0.30953 0.94683 0.04914 0.0
C312 C 0.28936 0.99873 0.01249 0.0
H313 H 0.2687 0.9798 0.97094 0.0
C314 C 0.30322 0.02307 0.00753 0.0
C315 C 0.2755 0.98435 -0.00061 0.0
C316 C 0.25937 0.95917 0.00433 0.0
C317 C 0.3055 0.03128 0.98936 0.0
C318 C 0.29374 0.01454 0.97602 0.0
C319 C 0.27789 0.99243 0.98121 0.0
C320 C 0.30092 0.0153 0.95692 0.0
C321 C 0.3216 0.0565 0.98446 0.0
C322 C 0.28482 0.0209 0.94313 0.0
C323 C 0.29095 0.01624 0.92507 0.0
C324 C 0.31308 0.00531 0.92068 0.0
C325 C 0.32939 0.00083 0.93449 0.0
C326 C 0.32336 0.00583 0.95245 0.0
H327 H 0.32266 0.07316 -0.00443 0.0
H328 H 0.33927 0.04745 0.98223 0.0
H329 H 0.31588 0.06787 0.97189 0.0
H330 H 0.26733 0.02783 0.94639 0.0
H331 H 0.27804 0.01981 0.91465 0.0
H332 H 0.67702 0.07524 0.93055 0.0
H333 H 0.68626 0.05704 0.96082 0.0
H334 H 0.7199 0.9799 0.9379 0.0
H335 H 0.71089 0.9981 0.9074 0.0
H336 H 0.68464 0.96881 0.96576 0.0
H337 H 0.75072 0.05128 0.98691 0.0
H338 H 0.72616 0.06815 0.97604 0.0
H339 H 0.74446 0.04317 0.96345 0.0
C340 C 0.68656 0.05452 0.93193 0.0
C341 C 0.69323 0.03806 0.91665 0.0
C342 C 0.69197 0.04429 0.9492 0.0
C343 C 0.70404 0.0174 0.95149 0.0
C344 C 0.7108 0.00087 0.93631 0.0
H345 H 0.71926 0.99558 0.06836 0.0
H346 H 0.73053 0.9846 0.03704 0.0
C347 C 0.70562 0.01128 0.91896 0.0
C348 C 0.70777 0.00594 0.96991 0.0
H349 H 0.72783 0.02911 0.01086 0.0
C350 C 0.69465 0.98135 0.97559 0.0
C351 C 0.72122 0.02195 0.98258 0.0
C352 C 0.73664 0.04744 0.97692 0.0
C353 C 0.69262 0.97445 -0.006 0.0
C354 C 0.70383 0.99282 0.00684 0.0
C355 C 0.71904 0.01522 0.00098 0.0
C356 C 0.69651 0.9934 0.02594 0.0
C357 C 0.67733 0.94881 -0.0004 0.0
C358 C 0.67366 0.00167 0.02999 0.0
C359 C 0.6673 0.0083 0.04768 0.0
C360 C 0.68369 0.00674 0.06167 0.0
C361 C 0.70629 0.99689 0.0578 0.0
C362 C 0.71273 0.99056 0.03998 0.0
H363 H 0.67715 0.93107 0.9891 0.0
H364 H 0.68313 0.93903 0.01263 0.0
H365 H 0.65929 0.95696 0.00125 0.0
H366 H 0.66103 0.00469 0.0193 0.0
H367 H 0.64975 0.01573 0.05029 0.0
H368 H 0.78471 0.49104 0.56633 0.0
H369 H 0.7744 0.48936 0.53414 0.0
H370 H 0.82318 0.56003 0.52335 0.0
H371 H 0.83349 0.56201 0.5553 0.0
H372 H 0.77622 0.56637 0.50762 0.0
H373 H 0.81926 0.45726 0.49359 0.0
H374 H 0.79931 0.45998 0.51223 0.0
H375 H 0.82653 0.47917 0.51329 0.0
C376 C 0.79322 0.5062 0.55707 0.0
C377 C 0.80999 0.52658 0.56328 0.0
C378 C 0.78732 0.50517 0.53875 0.0
C379 C 0.79812 0.5245 0.52649 0.0
C380 C 0.81465 0.545 0.53269 0.0
H381 H 0.82817 0.57819 0.42282 0.0
H382 H 0.81817 0.57151 0.45458 0.0
C383 C 0.82058 0.54601 0.55092 0.0
C384 C 0.79288 0.52339 0.50703 0.0
H385 H 0.8072 0.48554 0.46866 0.0
C386 C 0.78251 0.54843 0.49908 0.0
C387 C 0.80092 0.49977 0.49605 0.0
C388 C 0.81222 0.47247 0.5041 0.0
C389 C 0.78132 0.55135 0.48026 0.0
C390 C 0.79112 0.52887 0.46928 0.0
C391 C 0.79983 0.50277 0.47721 0.0
C392 C 0.79547 0.53382 0.44989 0.0
C393 C 0.77044 0.57898 0.47231 0.0
C394 C 0.78633 0.51444 0.43682 0.0
C395 C 0.7921 0.51813 0.41863 0.0
C396 C 0.80734 0.54101 0.41334 0.0
C397 C 0.81637 0.5604 0.42648 0.0
C398 C 0.81051 0.55678 0.4446 0.0
H399 H 0.75734 0.58867 0.48162 0.0
H400 H 0.78409 0.59604 0.47011 0.0
H401 H 0.76204 0.5741 0.45912 0.0
H402 H 0.77492 0.49637 0.44074 0.0
H403 H 0.78492 0.50282 0.40876 0.0
H404 H 0.22124 0.49627 0.57145 0.0
H405 H 0.22919 0.51206 0.54031 0.0
H406 H 0.16656 0.46854 0.52244 0.0
H407 H 0.1586 0.45241 0.55335 0.0
H408 H 0.2326 0.46882 0.50982 0.0
H409 H 0.16518 0.55545 0.50015 0.0
H410 H 0.17626 0.54517 0.52217 0.0
H411 H 0.15481 0.52234 0.5112 0.0
C412 C 0.20909 0.49028 0.56088 0.0
C413 C 0.18933 0.47306 0.56476 0.0
C414 C 0.21364 0.49937 0.54318 0.0
C415 C 0.19824 0.49182 0.52928 0.0
C416 C 0.17839 0.47498 0.53315 0.0
H417 H 0.18003 0.43988 0.42655 0.0
H418 H 0.18872 0.44987 0.45828 0.0
C419 C 0.17398 0.46559 0.55075 0.0
C420 C 0.20356 0.49902 0.51035 0.0
H421 H 0.17868 0.53034 0.47318 0.0
C422 C 0.22133 0.48302 0.50183 0.0
C423 C 0.18897 0.5178 0.50011 0.0
C424 C 0.17035 0.53642 0.50889 0.0
C425 C 0.22334 0.48299 0.48297 0.0
C426 C 0.20719 0.49935 0.47263 0.0
C427 C 0.19095 0.51772 0.48124 0.0
C428 C 0.20398 0.49319 0.4533 0.0
C429 C 0.24156 0.46382 0.47412 0.0
C430 C 0.20966 0.51443 0.44016 0.0
C431 C 0.20487 0.50867 0.42195 0.0
C432 C 0.19393 0.4819 0.41685 0.0
C433 C 0.18837 0.46073 0.43012 0.0
C434 C 0.19345 0.4663 0.44819 0.0
H435 H 0.25602 0.45876 0.48356 0.0
H436 H 0.2336 0.4424 0.46984 0.0
H437 H 0.24864 0.47494 0.4619 0.0
H438 H 0.21758 0.53541 0.444 0.0
H439 H 0.20924 0.52538 0.41195 0.0
H440 H 0.85205 0.4766 0.9281 0.0
H441 H 0.84422 0.49415 0.95867 0.0
H442 H 0.78843 0.54911 0.93878 0.0
H443 H 0.79614 0.53154 0.90788 0.0
H444 H 0.84145 0.55733 0.97236 0.0
H445 H 0.76 0.49076 0.97813 0.0
H446 H 0.78132 0.48175 0.96114 0.0
H447 H 0.76445 0.51515 0.95908 0.0
C448 C 0.83819 0.49254 0.93015 0.0
C449 C 0.82459 0.50254 0.91563 0.0
C450 C 0.83383 0.50266 0.9476 0.0
C451 C 0.81576 0.52283 0.95088 0.0
C452 C 0.8024 0.53345 0.93643 0.0
H453 H 0.78451 0.51876 0.06685 0.0
H454 H 0.78072 0.54038 0.03647 0.0
C455 C 0.80683 0.5234 0.91886 0.0
C456 C 0.8105 0.53081 0.96975 0.0
H457 H 0.77818 0.50547 0.00504 0.0
C458 C 0.82719 0.54688 0.97951 0.0
C459 C 0.79171 0.51748 0.97892 0.0
C460 C 0.77326 0.50025 0.96889 0.0
C461 C 0.82684 0.54739 -0.00157 0.0
C462 C 0.80963 0.53098 0.00765 0.0
C463 C 0.79145 0.51784 -0.00213 0.0
C464 C 0.81288 0.52172 0.02661 0.0
C465 C 0.84582 0.5637 0.00839 0.0
C466 C 0.8321 0.50396 0.03096 0.0
C467 C 0.83416 0.49137 0.04806 0.0
C468 C 0.81701 0.49627 0.06117 0.0
C469 C 0.798 0.51468 0.05698 0.0
C470 C 0.79584 0.52711 0.03972 0.0
H471 H 0.85188 0.58333 0.00054 0.0
H472 H 0.83991 0.57128 0.02192 0.0
H473 H 0.86083 0.54851 0.01021 0.0
H474 H 0.84512 0.49887 0.02087 0.0
H475 H 0.84901 0.47735 0.05089 0.0
H476 H 0.15596 0.52419 0.05555 0.0
H477 H 0.16711 0.51791 0.02393 0.0
H478 H 0.2319 0.47842 0.0404 0.0
H479 H 0.22071 0.48415 0.07225 0.0
H480 H 0.23085 0.53387 0.01483 0.0
H481 H 0.17805 0.43643 -0.00661 0.0
H482 H 0.16361 0.46257 0.00805 0.0
H483 H 0.18793 0.44172 0.0164 0.0
C484 C 0.17245 0.51382 0.05246 0.0
C485 C 0.18751 0.50472 0.0663 0.0
C486 C 0.17872 0.51012 0.03444 0.0
C487 C 0.20018 0.49749 0.02999 0.0
C488 C 0.21517 0.48794 0.0437 0.0
H489 H 0.22088 0.49492 0.91205 0.0
H490 H 0.22822 0.47993 0.94347 0.0
C491 C 0.20875 0.49125 0.0618 0.0
C492 C 0.20738 0.49705 0.01096 0.0
H493 H 0.18979 0.47045 0.97006 0.0
C494 C 0.22249 0.51945 0.00501 0.0
C495 C 0.1965 0.47804 -0.00167 0.0
C496 C 0.18074 0.45312 0.00431 0.0
C497 C 0.22534 0.52508 0.98653 0.0
C498 C 0.21272 0.50786 0.97392 0.0
C499 C 0.19933 0.48368 0.97984 0.0
C500 C 0.21011 0.51758 0.95506 0.0
C501 C 0.24066 0.55053 0.98063 0.0
C502 C 0.19735 0.54347 0.95139 0.0
C503 C 0.19287 0.55184 0.93361 0.0
C504 C 0.20121 0.53448 0.91923 0.0
C505 C 0.21432 0.50874 0.92293 0.0
C506 C 0.21856 0.50018 0.94078 0.0
H507 H 0.25382 0.55602 -0.00891 0.0
H508 H 0.24963 0.54511 0.96776 0.0
H509 H 0.22982 0.57064 0.97838 0.0
H510 H 0.19039 0.55686 0.96232 0.0
H511 H 0.18277 0.5718 0.93116 0.0
H512 H 0.59219 0.95787 0.32675 0.0
H513 H 0.55075 0.9661 0.32111 0.0
H514 H 0.54655 0.01979 0.36946 0.0
H515 H 0.58785 0.0129 0.37461 0.0
H516 H 0.51404 0.95148 0.33865 0.0
H517 H 0.5144 0.07415 0.33575 0.0
H518 H 0.54085 0.05273 0.3356 0.0
H519 H 0.527 0.06238 0.35668 0.0
C520 C 0.5824 0.97162 0.33606 0.0
C521 C 0.59333 0.98502 0.351 0.0
C522 C 0.55875 0.97635 0.33282 0.0
C523 C 0.54557 0.99431 0.34456 0.0
C524 C 0.55642 0.0069 0.35976 0.0
H525 H 0.40316 0.98091 0.37127 0.0
H526 H 0.44441 0.97499 0.36577 0.0
C527 C 0.58005 0.00268 0.3628 0.0
C528 C 0.52026 0.99865 0.34167 0.0
H529 H 0.47763 0.05135 0.34383 0.0
C530 C 0.50614 0.97339 0.33945 0.0
C531 C 0.50981 0.02725 0.34214 0.0
C532 C 0.52389 0.05563 0.34244 0.0
C533 C 0.48189 0.9758 0.33888 0.0
C534 C 0.47139 0.0041 0.34136 0.0
C535 C 0.48554 0.02954 0.34235 0.0
C536 C 0.446 0.00757 0.34421 0.0
C537 C 0.46786 0.94787 0.33568 0.0
C538 C 0.43314 0.02893 0.33453 0.0
C539 C 0.40946 0.033 0.33803 0.0
C540 C 0.39822 0.01557 0.35116 0.0
C541 C 0.41117 0.99434 0.36083 0.0
C542 C 0.4348 0.99071 0.35758 0.0
H543 H 0.47759 0.93171 0.32718 0.0
H544 H 0.46435 0.93686 0.34883 0.0
H545 H 0.45109 0.95285 0.32896 0.0
H546 H 0.44142 0.04248 0.32428 0.0
H547 H 0.39996 0.04958 0.33039 0.0
H548 H 0.40605 0.92737 0.12742 0.0
H549 H 0.44806 0.93402 0.13053 0.0
H550 H 0.44021 0.02864 0.1221 0.0
H551 H 0.39843 0.02237 0.1191 0.0
H552 H 0.47812 0.95861 0.10414 0.0
H553 H 0.48076 0.02427 0.16775 0.0
H554 H 0.45562 0.00307 0.16086 0.0
H555 H 0.46142 0.03887 0.1509 0.0
C556 C 0.41323 0.94963 0.12639 0.0
C557 C 0.39881 0.97432 0.12303 0.0
C558 C 0.43723 0.95338 0.12817 0.0
C559 C 0.4472 0.98189 0.12681 0.0
C560 C 0.43285 0.00653 0.12356 0.0
H561 H 0.58659 0.05477 0.12229 0.0
H562 H 0.54453 0.04732 0.12398 0.0
C563 C 0.40894 0.00282 0.12172 0.0
C564 C 0.4727 0.9858 0.12774 0.0
H565 H 0.51577 0.02188 0.15078 0.0
C566 C 0.48639 0.9722 0.11443 0.0
C567 C 0.48339 0.00379 0.14109 0.0
C568 C 0.4696 0.01815 0.15607 0.0
C569 C 0.51047 0.97662 0.11384 0.0
C570 C 0.52119 0.99462 0.12719 0.0
C571 C 0.50751 0.00813 0.14056 0.0
C572 C 0.54663 0.99947 0.12745 0.0
C573 C 0.52411 0.96264 0.09863 0.0
C574 C 0.56173 0.97519 0.12942 0.0
C575 C 0.58567 0.97932 0.1284 0.0
C576 C 0.59508 0.00792 0.12558 0.0
C577 C 0.57994 0.03245 0.12443 0.0
C578 C 0.5559 0.02824 0.12538 0.0
H579 H 0.51278 0.95641 0.08707 0.0
H580 H 0.53778 0.97803 0.09368 0.0
H581 H 0.53262 0.94203 0.10361 0.0
H582 H 0.55497 0.9529 0.13147 0.0
H583 H 0.59679 0.95995 0.12956 0.0
H584 H 0.60436 0.01266 0.60841 0.0
H585 H 0.56332 0.01968 0.61457 0.0
H586 H 0.5691 0.96407 0.66197 0.0
H587 H 0.61019 0.95557 0.65519 0.0
H588 H 0.53233 0.94971 0.6454 0.0
H589 H 0.53097 0.0722 0.64882 0.0
H590 H 0.54302 0.0613 0.62753 0.0
H591 H 0.55777 0.05154 0.64825 0.0
C592 C 0.59697 0.00211 0.62025 0.0
C593 C 0.61054 0.98369 0.63138 0.0
C594 C 0.57348 0.00643 0.62388 0.0
C595 C 0.56313 0.99323 0.63908 0.0
C596 C 0.57668 0.97478 0.65026 0.0
H597 H 0.41665 0.04464 0.65414 0.0
H598 H 0.45834 0.03914 0.66002 0.0
C599 C 0.60015 0.96989 0.64638 0.0
C600 C 0.53783 0.99703 0.64236 0.0
H601 H 0.49434 0.04863 0.64061 0.0
C602 C 0.52411 0.97144 0.6447 0.0
C603 C 0.52692 0.02537 0.64205 0.0
C604 C 0.54054 0.05411 0.64175 0.0
C605 C 0.49985 0.97323 0.64552 0.0
C606 C 0.48887 0.00123 0.64308 0.0
C607 C 0.50261 0.02703 0.64201 0.0
C608 C 0.4634 0.00394 0.6403 0.0
C609 C 0.48634 0.94496 0.64893 0.0
C610 C 0.45238 0.98643 0.62711 0.0
C611 C 0.42864 0.98912 0.62402 0.0
C612 C 0.41538 0.01006 0.63366 0.0
C613 C 0.42642 0.02824 0.64654 0.0
C614 C 0.45022 0.02509 0.64991 0.0
H615 H 0.49643 0.92926 0.65748 0.0
H616 H 0.46955 0.94956 0.6557 0.0
H617 H 0.48293 0.93359 0.63586 0.0
H618 H 0.46221 0.97089 0.61894 0.0
H619 H 0.42076 0.97516 0.61375 0.0
H620 H 0.59237 0.00236 0.88091 0.0
H621 H 0.55053 0.99841 0.87698 0.0
H622 H 0.5543 0.056 0.83033 0.0
H623 H 0.59618 0.0616 0.83504 0.0
H624 H 0.51869 0.07036 0.84796 0.0
H625 H 0.51569 0.9479 0.84327 0.0
H626 H 0.52865 0.95818 0.86435 0.0
H627 H 0.54272 0.96804 0.84339 0.0
C628 C 0.58426 0.01416 0.86981 0.0
C629 C 0.59752 0.03213 0.85821 0.0
C630 C 0.56034 0.0116 0.86742 0.0
C631 C 0.54921 0.02601 0.85296 0.0
C632 C 0.56243 0.04438 0.84149 0.0
H633 H 0.40305 0.97611 0.83607 0.0
H634 H 0.445 0.98158 0.83166 0.0
C635 C 0.58635 0.04762 0.84419 0.0
C636 C 0.52369 0.02286 0.8504 0.0
H637 H 0.47965 0.97198 0.85156 0.0
C638 C 0.51022 0.04877 0.84846 0.0
C639 C 0.51246 0.99472 0.85044 0.0
C640 C 0.52571 0.96569 0.85025 0.0
C641 C 0.48593 0.04742 0.84752 0.0
C642 C 0.47464 0.01952 0.8495 0.0
C643 C 0.48814 0.9935 0.85046 0.0
C644 C 0.449 0.01693 0.85145 0.0
C645 C 0.47279 0.07602 0.84421 0.0
C646 C 0.43721 0.03459 0.86416 0.0
C647 C 0.41328 0.03204 0.86631 0.0
C648 C 0.40062 0.01097 0.85628 0.0
C649 C 0.41239 0.99258 0.84394 0.0
C650 C 0.43635 0.99572 0.84143 0.0
H651 H 0.48325 0.09185 0.83603 0.0
H652 H 0.45616 0.07191 0.83707 0.0
H653 H 0.46912 0.08701 0.85734 0.0
H654 H 0.44656 0.05016 0.87267 0.0
H655 H 0.40474 0.04612 0.87618 0.0
H656 H 0.90641 0.48525 0.37867 0.0
H657 H 0.94844 0.48188 0.37622 0.0
H658 H 0.94676 0.53889 0.32925 0.0
H659 H 0.90462 0.54366 0.33228 0.0
H660 H 0.97578 0.46024 0.35199 0.0
H661 H 0.99469 0.58115 0.3578 0.0
H662 H 0.96615 0.56614 0.3616 0.0
H663 H 0.97641 0.57244 0.33892 0.0
C664 C 0.91499 0.49719 0.36785 0.0
C665 C 0.90223 0.51492 0.35575 0.0
C666 C 0.93905 0.4952 0.36644 0.0
C667 C 0.95094 0.51051 0.35273 0.0
C668 C 0.93815 0.52759 0.34028 0.0
H669 H 0.09854 0.46638 0.33496 0.0
H670 H 0.05635 0.46959 0.33126 0.0
C671 C 0.91404 0.53015 0.34195 0.0
C672 C 0.97666 0.50828 0.35164 0.0
H673 H 0.02638 0.54958 0.35134 0.0
C674 C 0.98685 0.4798 0.35187 0.0
C675 C 0.99116 0.53378 0.35164 0.0
C676 C 0.98158 0.56508 0.35266 0.0
C677 C 0.01102 0.47606 0.35255 0.0
C678 C 0.02552 0.50155 0.3522 0.0
C679 C 0.01532 0.53001 0.3515 0.0
C680 C 0.05119 0.49954 0.35392 0.0
C681 C 0.0206 0.44489 0.35448 0.0
C682 C 0.0625 0.51604 0.36745 0.0
C683 C 0.08655 0.5149 0.36923 0.0
C684 C 0.09989 0.49687 0.35769 0.0
C685 C 0.08865 0.48019 0.34417 0.0
C686 C 0.06453 0.48187 0.34214 0.0
H687 H 0.00734 0.42911 0.35968 0.0
H688 H 0.02626 0.43669 0.34103 0.0
H689 H 0.03572 0.44447 0.36376 0.0
H690 H 0.05268 0.52979 0.37675 0.0
H691 H 0.09467 0.5279 0.37984 0.0
H692 H 0.09018 0.46805 0.10423 0.0
H693 H 0.0482 0.46682 0.1075 0.0
H694 H 0.05359 0.51816 0.15675 0.0
H695 H 0.09576 0.52114 0.15276 0.0
H696 H 0.02166 0.44341 0.1308 0.0
H697 H 0.005 0.56523 0.13267 0.0
H698 H 0.03312 0.55014 0.12742 0.0
H699 H 0.02361 0.55289 0.15056 0.0
C700 C 0.0824 0.47929 0.1157 0.0
C701 C 0.09618 0.49486 0.12819 0.0
C702 C 0.05837 0.4785 0.11759 0.0
C703 C 0.04751 0.49273 0.13225 0.0
C704 C 0.06135 0.50779 0.14502 0.0
H705 H 0.89881 0.4485 0.14606 0.0
H706 H 0.94081 0.45066 0.15121 0.0
C707 C 0.08547 0.50931 0.14282 0.0
C708 C 0.02179 0.4912 0.13396 0.0
H709 H 0.97289 0.5337 0.13744 0.0
C710 C 0.011 0.46321 0.13222 0.0
C711 C 0.00779 0.51698 0.13577 0.0
C712 C 0.01793 0.54801 0.13653 0.0
C713 C 0.98678 0.46034 0.13143 0.0
C714 C 0.97276 0.48608 0.13343 0.0
C715 C 0.98355 0.51393 0.13596 0.0
C716 C 0.94706 0.48526 0.13133 0.0
C717 C 0.97668 0.42995 0.12745 0.0
C718 C 0.93632 0.50484 0.11911 0.0
C719 C 0.91235 0.50436 0.11668 0.0
C720 C 0.89854 0.48385 0.12614 0.0
C721 C 0.90913 0.46424 0.13843 0.0
C722 C 0.93315 0.46534 0.14126 0.0
H723 H 0.98968 0.41481 0.12124 0.0
H724 H 0.97086 0.41956 0.14028 0.0
H725 H 0.9616 0.43157 0.11818 0.0
H726 H 0.94654 0.52039 0.11123 0.0
H727 H 0.90468 0.51967 0.10706 0.0
H728 H 0.90945 0.47248 0.59981 0.0
H729 H 0.95109 0.46856 0.60459 0.0
H730 H 0.94513 0.52093 0.65336 0.0
H731 H 0.90335 0.52626 0.64806 0.0
H732 H 0.98117 0.53814 0.63595 0.0
H733 H 0.98525 0.41546 0.63779 0.0
H734 H 0.97234 0.4271 0.61694 0.0
H735 H 0.95806 0.43528 0.63808 0.0
C736 C 0.91697 0.48308 0.61161 0.0
C737 C 0.9031 0.49949 0.62364 0.0
C738 C 0.94079 0.48056 0.61443 0.0
C739 C 0.95125 0.49358 0.62967 0.0
C740 C 0.93747 0.51038 0.64161 0.0
H741 H 0.09787 0.44632 0.64656 0.0
H742 H 0.0559 0.45086 0.65113 0.0
C743 C 0.91361 0.51346 0.63857 0.0
C744 C 0.9767 0.49073 0.63251 0.0
H745 H 0.02121 0.44064 0.63051 0.0
C746 C 0.98987 0.51674 0.63505 0.0
C747 C 0.98818 0.46279 0.63192 0.0
C748 C 0.97514 0.4336 0.63126 0.0
C749 C 0.01417 0.51575 0.63596 0.0
C750 C 0.02572 0.48814 0.63348 0.0
C751 C 0.0125 0.46194 0.63201 0.0
C752 C 0.05134 0.4861 0.63141 0.0
C753 C 0.0271 0.5444 0.63965 0.0
C754 C 0.06276 0.50399 0.61865 0.0
C755 C 0.08669 0.50185 0.61631 0.0
C756 C 0.09972 0.48108 0.62627 0.0
C757 C 0.08828 0.46255 0.63871 0.0
C758 C 0.06431 0.46516 0.64134 0.0
H759 H 0.01649 0.55988 0.64797 0.0
H760 H 0.04372 0.54026 0.64678 0.0
H761 H 0.03078 0.55578 0.62665 0.0
H762 H 0.05314 0.51943 0.61027 0.0
H763 H 0.09493 0.51609 0.60639 0.0
H764 H 0.10937 0.55031 0.83388 0.0
H765 H 0.06757 0.54413 0.82906 0.0
H766 H 0.06448 0.48381 0.87446 0.0
H767 H 0.10624 0.48842 0.8785 0.0
H768 H 0.03869 0.46304 0.84938 0.0
H769 H 0.01739 0.58317 0.8563 0.0
H770 H 0.03652 0.57566 0.83778 0.0
H771 H 0.04603 0.56894 0.86063 0.0
C772 C 0.09969 0.53578 0.8428 0.0
C773 C 0.11101 0.51996 0.85661 0.0
C774 C 0.07577 0.53239 0.84013 0.0
C775 C 0.06264 0.51399 0.85164 0.0
C776 C 0.07409 0.49812 0.86536 0.0
H777 H 0.91894 0.52858 0.87696 0.0
H778 H 0.96092 0.53059 0.87403 0.0
C779 C 0.098 0.50086 0.86771 0.0
C780 C 0.03701 0.51106 0.84969 0.0
H781 H 0.98659 0.55088 0.84897 0.0
C782 C 0.02729 0.48228 0.84931 0.0
C783 C 0.02205 0.53612 0.84967 0.0
C784 C 0.03099 0.56768 0.85129 0.0
C785 C 0.00318 0.47781 0.84963 0.0
C786 C 0.98823 0.50287 0.84945 0.0
C787 C 0.99798 0.53163 0.84908 0.0
C788 C 0.96258 0.5002 0.85126 0.0
C789 C 0.99413 0.4463 0.85111 0.0
C790 C 0.94929 0.48219 0.83958 0.0
C791 C 0.92516 0.48032 0.84162 0.0
C792 C 0.91388 0.49724 0.85498 0.0
C793 C 0.92715 0.51542 0.86648 0.0
C794 C 0.95119 0.51665 0.86476 0.0
H795 H 0.00763 0.43072 0.85617 0.0
H796 H 0.97898 0.44511 0.86032 0.0
H797 H 0.98869 0.43842 0.83753 0.0
H798 H 0.95749 0.46992 0.82872 0.0
H799 H 0.91527 0.46641 0.83245 0.0
H800 H 0.24234 0.39216 0.34667 0.0
H801 H 0.2606 0.34324 0.34417 0.0
H802 H 0.19383 0.30091 0.34947 0.0
H803 H 0.17538 0.34994 0.3523 0.0
H804 H 0.22667 0.27827 0.37275 0.0
H805 H 0.26204 0.2829 0.30312 0.0
H806 H 0.2703 0.31412 0.31691 0.0
H807 H 0.2403 0.30865 0.31116 0.0
C808 C 0.23146 0.37248 0.34707 0.0
C809 C 0.20739 0.37492 0.3497 0.0
C810 C 0.24193 0.34451 0.3455 0.0
C811 C 0.22855 0.31844 0.34636 0.0
C812 C 0.20445 0.32079 0.34865 0.0
H813 H 0.25944 0.12986 0.35057 0.0
H814 H 0.24134 0.17884 0.34801 0.0
C815 C 0.19394 0.3488 0.35025 0.0
C816 C 0.23992 0.28879 0.34631 0.0
H817 H 0.27574 0.24336 0.32189 0.0
C818 C 0.23724 0.27054 0.36157 0.0
C819 C 0.25387 0.27887 0.33176 0.0
C820 C 0.25666 0.29702 0.31474 0.0
C821 C 0.24838 0.24282 0.3628 0.0
C822 C 0.26233 0.23292 0.34828 0.0
C823 C 0.26509 0.25112 0.33302 0.0
C824 C 0.27364 0.20329 0.3486 0.0
C825 C 0.24548 0.22455 0.37978 0.0
C826 C 0.29788 0.20081 0.34921 0.0
C827 C 0.30836 0.17272 0.35064 0.0
C828 C 0.29471 0.14676 0.35139 0.0
C829 C 0.27047 0.1494 0.35017 0.0
C830 C 0.26006 0.17738 0.34875 0.0
H831 H 0.23893 0.23823 0.39122 0.0
H832 H 0.23281 0.20641 0.37721 0.0
H833 H 0.26216 0.21416 0.38384 0.0
H834 H 0.30863 0.22062 0.34901 0.0
H835 H 0.32707 0.17138 0.3515 0.0
H836 H 0.66955 0.83237 0.34178 0.0
H837 H 0.6903 0.7849 0.33818 0.0
H838 H 0.75426 0.83272 0.33008 0.0
H839 H 0.73384 0.88005 0.33365 0.0
H840 H 0.72314 0.76321 0.30847 0.0
H841 H 0.76292 0.77835 0.37646 0.0
H842 H 0.73717 0.79816 0.3695 0.0
H843 H 0.76503 0.80941 0.36117 0.0
C844 C 0.68795 0.83276 0.33894 0.0
C845 C 0.70009 0.85994 0.33819 0.0
C846 C 0.69976 0.80567 0.33688 0.0
C847 C 0.72381 0.80543 0.3341 0.0
C848 C 0.73572 0.83251 0.33241 0.0
H849 H 0.82705 0.66443 0.34305 0.0
H850 H 0.8078 0.71243 0.33781 0.0
C851 C 0.72399 0.85952 0.33445 0.0
C852 C 0.73683 0.77703 0.33422 0.0
H853 H 0.77498 0.73665 0.35956 0.0
C854 C 0.73449 0.75731 0.31961 0.0
C855 C 0.75168 0.76962 0.34874 0.0
C856 C 0.75433 0.78982 0.36495 0.0
C857 C 0.74684 0.73029 0.31909 0.0
C858 C 0.76146 0.72266 0.33376 0.0
C859 C 0.76388 0.7426 0.34828 0.0
C860 C 0.77348 0.69348 0.33492 0.0
C861 C 0.74436 0.71042 0.30272 0.0
C862 C 0.76061 0.66695 0.33495 0.0
C863 C 0.77154 0.6396 0.33786 0.0
C864 C 0.79556 0.63823 0.34102 0.0
C865 C 0.80854 0.66475 0.34063 0.0
C866 C 0.79757 0.69216 0.33765 0.0
H867 H 0.73886 0.72331 0.29063 0.0
H868 H 0.76086 0.69878 0.2996 0.0
H869 H 0.73088 0.69334 0.30543 0.0
H870 H 0.74196 0.66745 0.33335 0.0
H871 H 0.761 0.6196 0.33816 0.0
H872 H 0.24048 0.59725 0.12877 0.0
H873 H 0.2599 0.64554 0.13054 0.0
H874 H 0.19365 0.69001 0.13062 0.0
H875 H 0.17393 0.64155 0.12885 0.0
H876 H 0.25477 0.69269 0.10453 0.0
H877 H 0.2298 0.72745 0.17401 0.0
H878 H 0.22837 0.68913 0.16649 0.0
H879 H 0.2065 0.71525 0.15962 0.0
C880 C 0.22997 0.61725 0.12931 0.0
C881 C 0.20563 0.61557 0.12866 0.0
C882 C 0.24113 0.64482 0.13031 0.0
C883 C 0.22822 0.67127 0.13087 0.0
C884 C 0.20391 0.66977 0.13046 0.0
H885 H 0.26054 0.8587 0.13059 0.0
H886 H 0.24296 0.80936 0.13264 0.0
C887 C 0.19268 0.64211 0.12937 0.0
C888 C 0.24033 0.70039 0.13094 0.0
H889 H 0.2495 0.76314 0.15613 0.0
C890 C 0.25374 0.70808 0.11583 0.0
C891 C 0.23889 0.72032 0.14571 0.0
C892 C 0.22528 0.71266 0.16247 0.0
C893 C 0.26533 0.73557 0.11489 0.0
C894 C 0.26393 0.75556 0.12967 0.0
C895 C 0.25064 0.74773 0.14485 0.0
C896 C 0.27517 0.78533 0.12926 0.0
C897 C 0.27832 0.74331 0.09782 0.0
C898 C 0.29926 0.78825 0.12705 0.0
C899 C 0.3094 0.81656 0.12574 0.0
C900 C 0.29564 0.84237 0.12682 0.0
C901 C 0.27165 0.83929 0.12965 0.0
C902 C 0.26155 0.81108 0.13085 0.0
H903 H 0.27286 0.72912 0.08625 0.0
H904 H 0.27564 0.76706 0.09411 0.0
H905 H 0.29713 0.73971 0.10003 0.0
H906 H 0.31017 0.76866 0.1262 0.0
H907 H 0.32794 0.8182 0.12369 0.0
H908 H 0.73367 0.1209 0.10942 0.0
H909 H 0.75184 0.16993 0.10906 0.0
H910 H 0.68455 0.21168 0.10796 0.0
H911 H 0.66601 0.16227 0.10813 0.0
H912 H 0.71717 0.23586 0.08301 0.0
H913 H 0.75424 0.22777 0.15205 0.0
H914 H 0.76131 0.19668 0.13776 0.0
H915 H 0.73164 0.20319 0.14406 0.0
C916 C 0.72264 0.14045 0.1091 0.0
C917 C 0.69835 0.13768 0.10891 0.0
C918 C 0.7331 0.16848 0.109 0.0
C919 C 0.71955 0.19441 0.10884 0.0
C920 C 0.69529 0.19187 0.10824 0.0
H921 H 0.75504 0.38254 0.10809 0.0
H922 H 0.73523 0.33449 0.10736 0.0
C923 C 0.68474 0.16368 0.10833 0.0
C924 C 0.73094 0.22404 0.10908 0.0
H925 H 0.76814 0.26741 0.13362 0.0
C926 C 0.72816 0.24292 0.09412 0.0
C927 C 0.74534 0.23307 0.12359 0.0
C928 C 0.74819 0.21426 0.14036 0.0
C929 C 0.73989 0.27033 0.09308 0.0
C930 C 0.75448 0.2792 0.1075 0.0
C931 C 0.75709 0.26042 0.12252 0.0
C932 C 0.7667 0.30828 0.10752 0.0
C933 C 0.73701 0.28924 0.07636 0.0
C934 C 0.79101 0.30949 0.10822 0.0
C935 C 0.80246 0.33703 0.10872 0.0
C936 C 0.78974 0.36377 0.10867 0.0
C937 C 0.76539 0.36238 0.10804 0.0
C938 C 0.754 0.33492 0.10752 0.0
H939 H 0.73029 0.27601 0.06477 0.0
H940 H 0.72443 0.30737 0.0792 0.0
H941 H 0.75371 0.29963 0.07238 0.0
H942 H 0.8011 0.28911 0.10836 0.0
H943 H 0.82122 0.33737 0.10927 0.0
H944 H 0.67724 0.82722 0.63652 0.0
H945 H 0.69386 0.7773 0.64065 0.0
H946 H 0.76265 0.81484 0.63911 0.0
H947 H 0.7463 0.86455 0.63529 0.0
H948 H 0.72272 0.7489 0.61658 0.0
H949 H 0.76677 0.76034 0.68277 0.0
H950 H 0.74516 0.78652 0.67502 0.0
H951 H 0.77458 0.78922 0.66715 0.0
C952 C 0.69588 0.82485 0.63735 0.0
C953 C 0.71044 0.84982 0.63559 0.0
C954 C 0.70535 0.79635 0.6397 0.0
C955 C 0.72949 0.79243 0.64047 0.0
C956 C 0.74399 0.8174 0.63901 0.0
H957 H 0.82679 0.6471 0.63167 0.0
H958 H 0.80739 0.69542 0.6354 0.0
C959 C 0.73458 0.84581 0.63667 0.0
C960 C 0.73967 0.7621 0.64126 0.0
H961 H 0.77827 0.71874 0.66444 0.0
C962 C 0.73461 0.74214 0.62718 0.0
C963 C 0.75531 0.75343 0.65504 0.0
C964 C 0.76062 0.7734 0.67094 0.0
C965 C 0.74532 0.7141 0.62617 0.0
C966 C 0.76126 0.70565 0.63977 0.0
C967 C 0.76609 0.72538 0.65402 0.0
C968 C 0.77326 0.67648 0.6392 0.0
C969 C 0.74006 0.69411 0.61025 0.0
C970 C 0.76056 0.64993 0.64064 0.0
C971 C 0.77154 0.62241 0.63851 0.0
C972 C 0.79546 0.62091 0.63497 0.0
C973 C 0.80834 0.64753 0.63433 0.0
C974 C 0.7973 0.67511 0.63646 0.0
H975 H 0.73149 0.70645 0.59907 0.0
H976 H 0.75616 0.6837 0.60498 0.0
H977 H 0.72826 0.67597 0.61463 0.0
H978 H 0.74205 0.65054 0.64304 0.0
H979 H 0.76114 0.60232 0.63922 0.0
H980 H 0.24314 0.37611 0.62854 0.0
H981 H 0.26322 0.32833 0.63022 0.0
H982 H 0.19777 0.28214 0.62695 0.0
H983 H 0.17745 0.3301 0.62488 0.0
H984 H 0.26002 0.28259 0.65477 0.0
H985 H 0.23481 0.24407 0.58612 0.0
H986 H 0.23084 0.2821 0.59353 0.0
H987 H 0.21083 0.25358 0.60046 0.0
C988 C 0.23295 0.35582 0.62818 0.0
C989 C 0.20868 0.35689 0.62644 0.0
C990 C 0.24449 0.32852 0.62918 0.0
C991 C 0.23205 0.30169 0.62842 0.0
C992 C 0.20775 0.30261 0.62717 0.0
H993 H 0.27261 0.11627 0.62966 0.0
H994 H 0.25219 0.16385 0.6308 0.0
C995 C 0.19615 0.33 0.6261 0.0
C996 C 0.2447 0.27289 0.62886 0.0
H997 H 0.25518 0.20964 0.60444 0.0
C998 C 0.25901 0.26664 0.64376 0.0
C999 C 0.24346 0.25223 0.61442 0.0
C1000 C 0.22934 0.25836 0.59764 0.0
C1001 C 0.27182 0.24004 0.64474 0.0
C1002 C 0.27046 0.21937 0.63034 0.0
C1003 C 0.25616 0.22558 0.61546 0.0
C1004 C 0.28329 0.19075 0.63056 0.0
C1005 C 0.28636 0.23398 0.66129 0.0
C1006 C 0.30762 0.19011 0.63007 0.0
C1007 C 0.31945 0.16283 0.6294 0.0
C1008 C 0.30707 0.13581 0.62915 0.0
C1009 C 0.28271 0.13665 0.62984 0.0
C1010 C 0.27097 0.16382 0.63048 0.0
H1011 H 0.28172 0.24895 0.67271 0.0
H1012 H 0.28435 0.21046 0.66573 0.0
H1013 H 0.30489 0.23767 0.65797 0.0
H1014 H 0.31744 0.21071 0.62985 0.0
H1015 H 0.3382 0.1629 0.6288 0.0
H1016 H 0.675 0.18217 0.86097 0.0
H1017 H 0.6949 0.2305 0.85972 0.0
H1018 H 0.75965 0.18567 0.84927 0.0
H1019 H 0.73996 0.1376 0.85015 0.0
H1020 H 0.73011 0.24954 0.88192 0.0
H1021 H 0.75992 0.24973 0.81072 0.0
H1022 H 0.73813 0.22419 0.8189 0.0
H1023 H 0.76837 0.21679 0.8228 0.0
C1024 C 0.69341 0.18267 0.85815 0.0
C1025 C 0.70588 0.15607 0.8556 0.0
C1026 C 0.70476 0.21027 0.85747 0.0
C1027 C 0.7287 0.21171 0.85413 0.0
C1028 C 0.7411 0.18518 0.85143 0.0
H1029 H 0.83349 0.35154 0.85845 0.0
H1030 H 0.81278 0.30367 0.85691 0.0
C1031 C 0.7298 0.15767 0.85206 0.0
C1032 C 0.74107 0.24071 0.85461 0.0
H1033 H 0.77707 0.28597 0.83029 0.0
C1034 C 0.7402 0.25763 0.87057 0.0
C1035 C 0.75436 0.25114 0.83983 0.0
C1036 C 0.75511 0.23466 0.82203 0.0
C1037 C 0.7526 0.28443 0.87227 0.0
C1038 C 0.76602 0.29469 0.85756 0.0
C1039 C 0.76688 0.27787 0.84158 0.0
C1040 C 0.77863 0.32342 0.85834 0.0
C1041 C 0.75157 0.30134 0.88991 0.0
C1042 C 0.76623 0.35023 0.85942 0.0
C1043 C 0.77792 0.37744 0.86025 0.0
C1044 C 0.8023 0.37841 0.86 0.0
C1045 C 0.81472 0.3515 0.85875 0.0
C1046 C 0.80294 0.3242 0.85784 0.0
H1047 H 0.74492 0.28724 0.90111 0.0
H1048 H 0.76897 0.30992 0.89368 0.0
H1049 H 0.73979 0.32073 0.88837 0.0
H1050 H 0.74745 0.3501 0.85956 0.0
H1051 H 0.76781 0.39774 0.86112 0.0
H1052 H 0.18185 0.67443 0.86244 0.0
H1053 H 0.19962 0.72417 0.8623 0.0
H1054 H 0.26683 0.6844 0.85398 0.0
H1055 H 0.24928 0.63493 0.85381 0.0
H1056 H 0.23313 0.7447 0.8862 0.0
H1057 H 0.26593 0.74964 0.81581 0.0
H1058 H 0.24472 0.72256 0.82305 0.0
H1059 H 0.27496 0.71689 0.82784 0.0
C1060 C 0.20036 0.67635 0.86032 0.0
C1061 C 0.21414 0.65076 0.85809 0.0
C1062 C 0.21049 0.70474 0.86028 0.0
C1063 C 0.2345 0.70799 0.85789 0.0
C1064 C 0.24821 0.68249 0.85545 0.0
H1065 H 0.33103 0.85761 0.86407 0.0
H1066 H 0.31349 0.80771 0.86235 0.0
C1067 C 0.23814 0.65418 0.85547 0.0
C1068 C 0.2455 0.73782 0.85906 0.0
H1069 H 0.27989 0.78689 0.83609 0.0
C1070 C 0.24321 0.75403 0.8752 0.0
C1071 C 0.2588 0.74981 0.84474 0.0
C1072 C 0.26111 0.73397 0.82682 0.0
C1073 C 0.25413 0.78175 0.87751 0.0
C1074 C 0.26744 0.79372 0.8632 0.0
C1075 C 0.26979 0.77752 0.84707 0.0
C1076 C 0.2782 0.82364 0.86446 0.0
C1077 C 0.25166 0.7978 0.89535 0.0
C1078 C 0.26414 0.84899 0.86603 0.0
C1079 C 0.27404 0.87733 0.86699 0.0
C1080 C 0.29825 0.88095 0.86633 0.0
C1081 C 0.31235 0.85552 0.8647 0.0
C1082 C 0.30237 0.82706 0.86368 0.0
H1083 H 0.24607 0.78248 0.90631 0.0
H1084 H 0.26824 0.80851 0.89937 0.0
H1085 H 0.23836 0.81555 0.89399 0.0
H1086 H 0.24544 0.84686 0.86635 0.0
H1087 H 0.26265 0.89644 0.86815 0.0
H1088 H 0.27077 0.0453 0.31626 0.0
H1089 H 0.25769 0.04244 0.28495 0.0
H1090 H 0.28076 0.95099 0.28207 0.0
H1091 H 0.29341 0.95349 0.3136 0.0
H1092 H 0.2917 0.0336 0.2605 0.0
H1093 H 0.22297 0.94915 0.25034 0.0
H1094 H 0.22902 0.96567 0.27215 0.0
H1095 H 0.24657 0.93547 0.2638 0.0
C1096 C 0.2724 0.02429 0.30912 0.0
C1097 C 0.28347 0.99975 0.31719 0.0
C1098 C 0.26478 0.02266 0.29129 0.0
C1099 C 0.26821 0.99653 0.28122 0.0
C1100 C 0.27752 0.97119 0.28971 0.0
H1101 H 0.30183 0.9414 0.17657 0.0
H1102 H 0.28868 0.94711 0.20767 0.0
C1103 C 0.28493 0.97271 0.30768 0.0
C1104 C 0.26684 0.99777 0.26132 0.0
H1105 H 0.24654 0.96085 0.22424 0.0
C1106 C 0.28139 0.01819 0.25252 0.0
C1107 C 0.25353 0.97747 0.25105 0.0
C1108 C 0.23697 0.95589 0.25982 0.0
C1109 C 0.28415 0.01768 0.23376 0.0
C1110 C 0.27153 0.99658 0.22349 0.0
C1111 C 0.25612 0.97705 0.23219 0.0
C1112 C 0.27629 0.99228 0.20408 0.0
C1113 C 0.30172 0.03838 0.22528 0.0
C1114 C 0.27315 0.01561 0.19169 0.0
C1115 C 0.28105 0.01263 0.17394 0.0
C1116 C 0.29183 0.98609 0.1683 0.0
C1117 C 0.29375 0.96222 0.18052 0.0
C1118 C 0.2861 0.96534 0.19827 0.0
H1119 H 0.31318 0.04895 0.23553 0.0
H1120 H 0.31274 0.02619 0.21543 0.0
H1121 H 0.29253 0.05643 0.21794 0.0
H1122 H 0.26523 0.03639 0.19589 0.0
H1123 H 0.27899 0.03123 0.16474 0.0
H1124 H 0.70528 0.97275 0.17701 0.0
H1125 H 0.71713 0.98319 0.20815 0.0
H1126 H 0.71992 0.07728 0.19624 0.0
H1127 H 0.70772 0.0672 0.16519 0.0
H1128 H 0.7554 0.01586 0.22499 0.0
H1129 H 0.66887 0.06891 0.23507 0.0
H1130 H 0.67523 0.04642 0.21547 0.0
H1131 H 0.68691 0.08342 0.21734 0.0
C1132 C 0.70875 0.9956 0.18094 0.0
C1133 C 0.70511 0.01919 0.16878 0.0
C1134 C 0.71562 0.00152 0.19868 0.0
C1135 C 0.71905 0.03103 0.20447 0.0
C1136 C 0.71702 0.05442 0.19204 0.0
H1137 H 0.70131 0.06259 0.32003 0.0
H1138 H 0.7152 0.07628 0.28981 0.0
C1139 C 0.70999 0.04857 0.17435 0.0
C1140 C 0.722 0.03722 0.22391 0.0
H1141 H 0.6912 0.05994 0.26068 0.0
C1142 C 0.74162 0.02605 0.23282 0.0
C1143 C 0.70411 0.05093 0.234 0.0
C1144 C 0.6825 0.06301 0.22509 0.0
C1145 C 0.74312 0.02651 0.25174 0.0
C1146 C 0.7243 0.03783 0.26187 0.0
C1147 C 0.70562 0.05128 0.25288 0.0
C1148 C 0.72121 0.03075 0.28123 0.0
C1149 C 0.76442 0.01379 0.26069 0.0
C1150 C 0.72037 1.00072 0.28646 0.0
C1151 C 0.71238 0.99289 0.30354 0.0
C1152 C 0.70485 0.01492 0.31572 0.0
C1153 C 0.70692 0.04513 0.31089 0.0
C1154 C 0.71493 0.05298 0.29369 0.0
H1155 H 0.78006 0.01788 0.2523 0.0
H1156 H 0.76724 0.02352 0.27433 0.0
H1157 H 0.76239 0.98927 0.26205 0.0
H1158 H 0.72446 0.98312 0.27695 0.0
H1159 H 0.71119 0.96941 0.30688 0.0
H1160 H 0.695 0.05852 0.80407 0.0
H1161 H 0.70969 0.05323 0.77337 0.0
H1162 H 0.73179 0.9634 0.78525 0.0
H1163 H 0.71639 0.96815 0.81597 0.0
H1164 H 0.75242 0.04058 0.75872 0.0
H1165 H 0.68817 0.95152 0.743 0.0
H1166 H 0.68678 0.97335 0.76344 0.0
H1167 H 0.7074 0.94346 0.76143 0.0
C1168 C 0.70302 0.03762 0.8002 0.0
C1169 C 0.70421 0.01356 0.81235 0.0
C1170 C 0.71155 0.03473 0.78268 0.0
C1171 C 0.72155 0.00783 0.77701 0.0
C1172 C 0.72371 0.98416 0.78931 0.0
H1173 H 0.73929 0.95558 0.66568 0.0
H1174 H 0.74985 0.95971 0.69752 0.0
C1175 C 0.7149 0.98689 0.80682 0.0
C1176 C 0.72801 0.00419 0.75782 0.0
H1177 H 0.71221 0.96722 0.71951 0.0
C1178 C 0.74389 0.02429 0.75014 0.0
C1179 C 0.71674 0.98299 0.7467 0.0
C1180 C 0.69868 0.96175 0.75397 0.0
C1181 C 0.74833 0.02426 0.73149 0.0
C1182 C 0.7365 0.00369 0.72036 0.0
C1183 C 0.7214 0.98281 0.72816 0.0
C1184 C 0.73731 0.00493 0.70044 0.0
C1185 C 0.76526 0.04649 0.7238 0.0
C1186 C 0.7279 0.02961 0.69132 0.0
C1187 C 0.72195 0.02737 0.67305 0.0
C1188 C 0.72501 1.00025 0.66386 0.0
C1189 C 0.73648 0.97663 0.67256 0.0
C1190 C 0.74264 0.97898 0.69071 0.0
H1191 H 0.77784 0.05413 0.7342 0.0
H1192 H 0.77494 0.03683 0.71222 0.0
H1193 H 0.7556 0.06631 0.7189 0.0
H1194 H 0.72327 0.04965 0.69867 0.0
H1195 H 0.71308 0.04586 0.66663 0.0
H1196 H 0.27551 0.96498 0.82006 0.0
H1197 H 0.26325 0.95616 0.7889 0.0
H1198 H 0.28415 0.04545 0.77461 0.0
H1199 H 0.29608 0.05473 0.80593 0.0
H1200 H 0.24274 0.02138 0.75542 0.0
H1201 H 0.32013 0.94671 0.75487 0.0
H1202 H 0.29817 0.93929 0.77147 0.0
H1203 H 0.31496 0.97294 0.77291 0.0
C1204 C 0.277 0.98299 0.81037 0.0
C1205 C 0.28722 0.01034 0.81525 0.0
C1206 C 0.2699 0.97792 0.79263 0.0
C1207 C 0.27322 0.99997 0.7795 0.0
C1208 C 0.2815 0.02819 0.78464 0.0
H1209 H 0.30028 0.04104 0.67418 0.0
H1210 H 0.28316 0.03671 0.70395 0.0
C1211 C 0.28838 0.03342 0.80248 0.0
C1212 C 0.2718 0.99229 0.76017 0.0
H1213 H 0.30247 0.95669 0.72728 0.0
C1214 C 0.25549 0.00682 0.74924 0.0
C1215 C 0.28831 0.97297 0.75224 0.0
C1216 C 0.30651 0.95715 0.76339 0.0
C1217 C 0.25605 0.00371 0.73037 0.0
C1218 C 0.27373 0.98625 0.72238 0.0
C1219 C 0.28891 0.97003 0.73343 0.0
C1220 C 0.27966 0.98862 0.70301 0.0
C1221 C 0.23819 0.0199 0.71918 0.0
C1222 C 0.28363 0.96295 0.69255 0.0
C1223 C 0.29395 0.96529 0.67551 0.0
C1224 C 0.30055 0.99335 0.66878 0.0
C1225 C 0.29554 0.01904 0.67897 0.0
C1226 C 0.28535 0.01667 0.69593 0.0
H1227 H 0.2214 0.02124 0.72649 0.0
H1228 H 0.24416 0.04308 0.71672 0.0
H1229 H 0.23531 0.00877 0.70595 0.0
H1230 H 0.27962 0.94105 0.69788 0.0
H1231 H 0.29747 0.94512 0.66792 0.0
H1232 H 0.79287 0.53341 0.17502 0.0
H1233 H 0.78057 0.52465 0.20623 0.0
H1234 H 0.76438 0.43322 0.19311 0.0
H1235 H 0.77693 0.44157 0.162 0.0
H1236 H 0.73909 0.49928 0.22401 0.0
H1237 H 0.81867 0.42915 0.22995 0.0
H1238 H 0.81409 0.45382 0.21104 0.0
H1239 H 0.79804 0.41962 0.21266 0.0
C1240 C 0.78623 0.51164 0.17868 0.0
C1241 C 0.78634 0.48802 0.1662 0.0
C1242 C 0.77913 0.50669 0.19647 0.0
C1243 C 0.77195 0.47817 0.20193 0.0
C1244 C 0.77019 0.45525 0.18915 0.0
H1245 H 0.7913 0.43913 0.31683 0.0
H1246 H 0.77602 0.42911 0.28644 0.0
C1247 C 0.77744 0.46008 0.17142 0.0
C1248 C 0.76946 0.47172 0.22136 0.0
H1249 H 0.79955 0.44174 0.25656 0.0
C1250 C 0.75198 0.48619 0.23116 0.0
C1251 C 0.78613 0.45423 0.23054 0.0
C1252 C 0.8054 0.43837 0.22061 0.0
C1253 C 0.75164 0.48519 0.25009 0.0
C1254 C 0.76958 0.46999 0.25932 0.0
C1255 C 0.78584 0.45343 0.24945 0.0
C1256 C 0.77463 0.47561 0.27861 0.0
C1257 C 0.73262 0.50142 0.26003 0.0
C1258 C 0.77887 0.50498 0.28422 0.0
C1259 C 0.78762 0.51071 0.30138 0.0
C1260 C 0.79261 0.48716 0.31329 0.0
C1261 C 0.7877 0.45773 0.30792 0.0
C1262 C 0.77886 0.45199 0.29064 0.0
H1263 H 0.71616 0.50063 0.25223 0.0
H1264 H 0.7296 0.4918 0.27365 0.0
H1265 H 0.73749 0.52524 0.26157 0.0
H1266 H 0.77652 0.52349 0.275 0.0
H1267 H 0.79111 0.53368 0.30506 0.0
H1268 H 0.18034 0.54697 0.30413 0.0
H1269 H 0.19266 0.54073 0.27272 0.0
H1270 H 0.25458 0.49549 0.29072 0.0
H1271 H 0.24137 0.49997 0.32209 0.0
H1272 H 0.22738 0.55259 0.25088 0.0
H1273 H 0.22419 0.43012 0.263 0.0
H1274 H 0.21518 0.45676 0.2798 0.0
H1275 H 0.24552 0.44976 0.27603 0.0
C1276 C 0.1969 0.53654 0.30134 0.0
C1277 C 0.20992 0.52378 0.31529 0.0
C1278 C 0.20392 0.53286 0.28343 0.0
C1279 C 0.22418 0.51675 0.27938 0.0
C1280 C 0.23851 0.50705 0.29353 0.0
H1281 H 0.23748 0.49929 0.16179 0.0
H1282 H 0.2517 0.50549 0.19279 0.0
C1283 C 0.23114 0.50996 0.31139 0.0
C1284 C 0.22852 0.50737 0.2605 0.0
H1285 H 0.23006 0.44581 0.23329 0.0
C1286 C 0.22828 0.52927 0.247 0.0
C1287 C 0.22949 0.47682 0.25554 0.0
C1288 C 0.22842 0.45197 0.2693 0.0
C1289 C 0.22741 0.52155 0.22865 0.0
C1290 C 0.22797 0.49098 0.22369 0.0
C1291 C 0.22978 0.46916 0.23717 0.0
C1292 C 0.22328 0.48116 0.20494 0.0
C1293 C 0.22409 0.54619 0.21496 0.0
C1294 C 0.20395 0.46291 0.20143 0.0
C1295 C 0.19642 0.4583 0.18372 0.0
C1296 C 0.20795 0.47231 0.16942 0.0
C1297 C 0.22835 0.48843 0.17276 0.0
C1298 C 0.23628 0.49227 0.19042 0.0
H1299 H 0.21882 0.56753 0.22142 0.0
H1300 H 0.24065 0.55019 0.20776 0.0
H1301 H 0.21069 0.54003 0.20485 0.0
H1302 H 0.19374 0.45392 0.21244 0.0
H1303 H 0.18054 0.44601 0.18135 0.0
H1304 H 0.2143 0.46205 0.81121 0.0
H1305 H 0.22616 0.46275 0.77948 0.0
H1306 H 0.24741 0.55462 0.78497 0.0
H1307 H 0.23518 0.55428 0.81651 0.0
H1308 H 0.21346 0.54668 0.76036 0.0
H1309 H 0.28364 0.46545 0.74754 0.0
H1310 H 0.26063 0.44978 0.76079 0.0
H1311 H 0.27753 0.4801 0.76982 0.0
C1312 C 0.22216 0.48208 0.80579 0.0
C1313 C 0.2234 0.50827 0.81617 0.0
C1314 C 0.22914 0.48239 0.78771 0.0
C1315 C 0.23778 0.50872 0.77994 0.0
C1316 C 0.24085 0.53409 0.79075 0.0
H1317 H 0.22043 0.54608 0.66393 0.0
H1318 H 0.23626 0.55209 0.69448 0.0
C1319 C 0.23369 0.53389 0.80872 0.0
C1320 C 0.23892 0.51154 0.76009 0.0
H1321 H 0.25878 0.47717 0.72203 0.0
C1322 C 0.22382 0.53204 0.75193 0.0
C1323 C 0.2524 0.49234 0.74922 0.0
C1324 C 0.26964 0.47088 0.75731 0.0
C1325 C 0.22046 0.53232 0.73321 0.0
C1326 C 0.23302 0.51199 0.72236 0.0
C1327 C 0.24921 0.49274 0.73042 0.0
C1328 C 0.22705 0.50753 0.70316 0.0
C1329 C 0.2022 0.5528 0.72543 0.0
C1330 C 0.21759 0.48013 0.6978 0.0
C1331 C 0.20879 0.47654 0.68041 0.0
C1332 C 0.20916 0.50039 0.6681 0.0
C1333 C 0.21956 0.52748 0.67324 0.0
C1334 C 0.22863 0.53093 0.69064 0.0
H1335 H 0.19123 0.56307 0.73609 0.0
H1336 H 0.21076 0.57107 0.71784 0.0
H1337 H 0.19075 0.54049 0.71593 0.0
H1338 H 0.21618 0.46183 0.7073 0.0
H1339 H 0.20105 0.45532 0.67684 0.0
H1340 H 0.76213 0.48881 0.6583 0.0
H1341 H 0.75111 0.48945 0.69032 0.0
H1342 H 0.8164 0.44812 0.70404 0.0
H1343 H 0.82653 0.44556 0.67201 0.0
H1344 H 0.78477 0.4321 0.72728 0.0
H1345 H 0.78018 0.55521 0.71828 0.0
H1346 H 0.75876 0.53461 0.70591 0.0
H1347 H 0.78897 0.5306 0.70033 0.0
C1348 C 0.77356 0.4787 0.66819 0.0
C1349 C 0.79508 0.46707 0.66292 0.0
C1350 C 0.76745 0.47948 0.68643 0.0
C1351 C 0.78332 0.46992 0.6996 0.0
C1352 C 0.80393 0.45584 0.69413 0.0
H1353 H 0.82783 0.54216 0.79814 0.0
H1354 H 0.81484 0.53247 0.76717 0.0
C1355 C 0.80971 0.45425 0.67585 0.0
C1356 C 0.78018 0.47766 0.71892 0.0
H1357 H 0.77748 0.5371 0.74775 0.0
C1358 C 0.78291 0.45501 0.73181 0.0
C1359 C 0.778 0.50769 0.72473 0.0
C1360 C 0.77652 0.53347 0.71163 0.0
C1361 C 0.78499 0.46163 0.75026 0.0
C1362 C 0.78306 0.4917 0.75605 0.0
C1363 C 0.77886 0.51412 0.74326 0.0
C1364 C 0.7882 0.50079 0.77489 0.0
C1365 C 0.79093 0.43655 0.76309 0.0
C1366 C 0.77682 0.48738 0.78953 0.0
C1367 C 0.78472 0.49226 0.80711 0.0
C1368 C 0.80341 0.5116 0.81032 0.0
C1369 C 0.81332 0.52726 0.7959 0.0
C1370 C 0.8059 0.52166 0.77826 0.0
H1371 H 0.79738 0.41649 0.75582 0.0
H1372 H 0.80437 0.44357 0.77295 0.0
H1373 H 0.77516 0.42992 0.77066 0.0
H1374 H 0.76256 0.47211 0.78732 0.0
H1375 H 0.77671 0.4802 0.81815 0.0
loop_
_geom_bond_atom_site_label_1
_geom_bond_atom_site_label_2
_geom_bond_distance
_geom_bond_site_symmetry_2
_ccdc_geom_bond_type
C0 O1 1.306 1_545 S
C0 O3 1.160 . S
O1 C0 1.306 1_565 S
O1 Cd2 2.228 . S
Cd2 O1 2.228 . S
Cd2 O6 2.273 1_565 S
Cd2 O10 2.277 1_565 S
O3 C0 1.160 . S
O3 Cd4 2.203 . S
Cd4 O3 2.203 . S
Cd4 O6 2.411 . S
Cd4 O7 2.333 . S
Cd4 O8 2.352 . S
Cd4 O12 2.277 . S
Cd4 O13 2.356 . S
C5 O10 1.209 . S
C5 O12 1.226 . S
O6 Cd2 2.273 1_545 S
O6 Cd4 2.411 . S
O6 C9 1.320 . S
O7 Cd4 2.333 . S
O7 C9 1.214 . S
O8 Cd4 2.352 . S
O8 C11 1.258 . S
C9 O6 1.320 . S
C9 O7 1.214 . S
O10 Cd2 2.277 1_545 S
O10 C5 1.209 . S
C11 O8 1.258 . S
C11 O13 1.282 . S
O12 Cd4 2.277 . S
O12 C5 1.226 . S
O13 Cd4 2.356 . S
O13 C11 1.282 . S
C14 O15 1.306 1_565 S
C14 O17 1.160 . S
O15 C14 1.306 1_545 S
O15 Cd16 2.228 . S
Cd16 O15 2.228 . S
Cd16 O20 2.273 1_545 S
Cd16 O24 2.277 1_545 S
O17 C14 1.160 . S
O17 Cd18 2.203 . S
Cd18 O17 2.203 . S
Cd18 O20 2.411 . S
Cd18 O21 2.333 . S
Cd18 O22 2.352 . S
Cd18 O26 2.277 . S
Cd18 O27 2.356 . S
C19 O24 1.209 . S
C19 O26 1.226 . S
O20 Cd16 2.273 1_565 S
O20 Cd18 2.411 . S
O20 C23 1.320 . S
O21 Cd18 2.333 . S
O21 C23 1.214 . S
O22 Cd18 2.352 . S
O22 C25 1.258 . S
C23 O20 1.320 . S
C23 O21 1.214 . S
O24 Cd16 2.277 1_565 S
O24 C19 1.209 . S
C25 O22 1.258 . S
C25 O27 1.282 . S
O26 Cd18 2.277 . S
O26 C19 1.226 . S
O27 Cd18 2.356 . S
O27 C25 1.282 . S
C28 O29 1.306 1_565 S
C28 O31 1.160 . S
O29 C28 1.306 1_545 S
O29 Cd30 2.228 . S
Cd30 O29 2.228 . S
Cd30 O34 2.273 1_545 S
Cd30 O38 2.277 1_545 S
O31 C28 1.160 . S
O31 Cd32 2.203 . S
Cd32 O31 2.203 . S
Cd32 O34 2.411 . S
Cd32 O35 2.333 . S
Cd32 O36 2.352 . S
Cd32 O40 2.277 . S
Cd32 O41 2.356 . S
C33 O38 1.209 . S
C33 O40 1.226 . S
O34 Cd30 2.273 1_565 S
O34 Cd32 2.411 . S
O34 C37 1.320 . S
O35 Cd32 2.333 . S
O35 C37 1.214 . S
O36 Cd32 2.352 . S
O36 C39 1.258 . S
C37 O34 1.320 . S
C37 O35 1.214 . S
O38 Cd30 2.277 1_565 S
O38 C33 1.209 . S
C39 O36 1.258 . S
C39 O41 1.282 . S
O40 Cd32 2.277 . S
O40 C33 1.226 . S
O41 Cd32 2.356 . S
O41 C39 1.282 . S
C42 O43 1.306 1_545 S
C42 O45 1.160 . S
O43 C42 1.306 1_565 S
O43 Cd44 2.228 . S
Cd44 O43 2.228 . S
Cd44 O48 2.273 1_565 S
Cd44 O52 2.277 1_565 S
O45 C42 1.160 . S
O45 Cd46 2.203 . S
Cd46 O45 2.203 . S
Cd46 O48 2.411 . S
Cd46 O49 2.333 . S
Cd46 O50 2.352 . S
Cd46 O54 2.277 . S
Cd46 O55 2.356 . S
C47 O52 1.209 . S
C47 O54 1.226 . S
O48 Cd44 2.273 1_545 S
O48 Cd46 2.411 . S
O48 C51 1.320 . S
O49 Cd46 2.333 . S
O49 C51 1.214 . S
O50 Cd46 2.352 . S
O50 C53 1.258 . S
C51 O48 1.320 . S
C51 O49 1.214 . S
O52 Cd44 2.277 1_545 S
O52 C47 1.209 . S
C53 O50 1.258 . S
C53 O55 1.282 . S
O54 Cd46 2.277 . S
O54 C47 1.226 . S
O55 Cd46 2.356 . S
O55 C53 1.282 . S
C56 O57 1.306 1_565 S
C56 O59 1.160 . S
O57 C56 1.306 1_545 S
O57 Cd58 2.228 . S
Cd58 O57 2.228 . S
Cd58 O62 2.273 1_545 S
Cd58 O66 2.277 1_545 S
O59 C56 1.160 . S
O59 Cd60 2.203 . S
Cd60 O59 2.203 . S
Cd60 O62 2.411 . S
Cd60 O63 2.333 . S
Cd60 O64 2.352 . S
Cd60 O68 2.277 . S
Cd60 O69 2.356 . S
C61 O66 1.209 . S
C61 O68 1.226 . S
O62 Cd58 2.273 1_565 S
O62 Cd60 2.411 . S
O62 C65 1.320 . S
O63 Cd60 2.333 . S
O63 C65 1.214 . S
O64 Cd60 2.352 . S
O64 C67 1.258 . S
C65 O62 1.320 . S
C65 O63 1.214 . S
O66 Cd58 2.277 1_565 S
O66 C61 1.209 . S
C67 O64 1.258 . S
C67 O69 1.282 . S
O68 Cd60 2.277 . S
O68 C61 1.226 . S
O69 Cd60 2.356 . S
O69 C67 1.282 . S
C70 O71 1.306 1_545 S
C70 O73 1.160 . S
O71 C70 1.306 1_565 S
O71 Cd72 2.228 . S
Cd72 O71 2.228 . S
Cd72 O76 2.273 1_565 S
Cd72 O80 2.277 1_565 S
O73 C70 1.160 . S
O73 Cd74 2.203 . S
Cd74 O73 2.203 . S
Cd74 O76 2.411 . S
Cd74 O77 2.333 . S
Cd74 O78 2.352 . S
Cd74 O82 2.277 . S
Cd74 O83 2.356 . S
C75 O80 1.209 . S
C75 O82 1.226 . S
O76 Cd72 2.273 1_545 S
O76 Cd74 2.411 . S
O76 C79 1.320 . S
O77 Cd74 2.333 . S
O77 C79 1.214 . S
O78 Cd74 2.352 . S
O78 C81 1.258 . S
C79 O76 1.320 . S
C79 O77 1.214 . S
O80 Cd72 2.277 1_545 S
O80 C75 1.209 . S
C81 O78 1.258 . S
C81 O83 1.282 . S
O82 Cd74 2.277 . S
O82 C75 1.226 . S
O83 Cd74 2.356 . S
O83 C81 1.282 . S
C84 O85 1.306 1_545 S
C84 O87 1.160 . S
O85 C84 1.306 1_565 S
O85 Cd86 2.228 . S
Cd86 O85 2.228 . S
Cd86 O90 2.273 1_565 S
Cd86 O94 2.277 1_565 S
O87 C84 1.160 . S
O87 Cd88 2.203 . S
Cd88 O87 2.203 . S
Cd88 O90 2.411 . S
Cd88 O91 2.333 . S
Cd88 O92 2.352 . S
Cd88 O96 2.277 . S
Cd88 O97 2.356 . S
C89 O94 1.209 . S
C89 O96 1.226 . S
O90 Cd86 2.273 1_545 S
O90 Cd88 2.411 . S
O90 C93 1.320 . S
O91 Cd88 2.333 . S
O91 C93 1.214 . S
O92 Cd88 2.352 . S
O92 C95 1.258 . S
C93 O90 1.320 . S
C93 O91 1.214 . S
O94 Cd86 2.277 1_545 S
O94 C89 1.209 . S
C95 O92 1.258 . S
C95 O97 1.282 . S
O96 Cd88 2.277 . S
O96 C89 1.226 . S
O97 Cd88 2.356 . S
O97 C95 1.282 . S
C98 O99 1.306 1_565 S
C98 O101 1.160 . S
O99 C98 1.306 1_545 S
O99 Cd100 2.228 . S
Cd100 O99 2.228 . S
Cd100 O104 2.273 1_545 S
Cd100 O108 2.277 1_545 S
O101 C98 1.160 . S
O101 Cd102 2.203 . S
Cd102 O101 2.203 . S
Cd102 O104 2.411 . S
Cd102 O105 2.333 . S
Cd102 O106 2.352 . S
Cd102 O110 2.277 . S
Cd102 O111 2.356 . S
C103 O108 1.209 . S
C103 O110 1.226 . S
O104 Cd100 2.273 1_565 S
O104 Cd102 2.411 . S
O104 C107 1.320 . S
O105 Cd102 2.333 . S
O105 C107 1.214 . S
O106 Cd102 2.352 . S
O106 C109 1.258 . S
C107 O104 1.320 . S
C107 O105 1.214 . S
O108 Cd100 2.277 1_565 S
O108 C103 1.209 . S
C109 O106 1.258 . S
C109 O111 1.282 . S
O110 Cd102 2.277 . S
O110 C103 1.226 . S
O111 Cd102 2.356 . S
O111 C109 1.282 . S
C112 O113 1.306 . S
C112 O115 1.160 . S
O113 C112 1.306 . S
O113 Cd114 2.228 . S
Cd114 O113 2.228 . S
Cd114 O118 2.273 . S
Cd114 O122 2.277 . S
O115 C112 1.160 . S
O115 Cd116 2.203 . S
Cd116 O115 2.203 . S
Cd116 O118 2.411 . S
Cd116 O119 2.333 . S
Cd116 O120 2.352 . S
Cd116 O124 2.277 . S
Cd116 O125 2.356 . S
C117 O122 1.209 . S
C117 O124 1.226 . S
O118 Cd114 2.273 . S
O118 Cd116 2.411 . S
O118 C121 1.320 . S
O119 Cd116 2.333 . S
O119 C121 1.214 . S
O120 Cd116 2.352 . S
O120 C123 1.258 . S
C121 O118 1.320 . S
C121 O119 1.214 . S
O122 Cd114 2.277 . S
O122 C117 1.209 . S
C123 O120 1.258 . S
C123 O125 1.282 . S
O124 Cd116 2.277 . S
O124 C117 1.226 . S
O125 Cd116 2.356 . S
O125 C123 1.282 . S
C126 O127 1.306 . S
C126 O129 1.160 . S
O127 C126 1.306 . S
O127 Cd128 2.228 . S
Cd128 O127 2.228 . S
Cd128 O132 2.273 . S
Cd128 O136 2.277 . S
O129 C126 1.160 . S
O129 Cd130 2.203 . S
Cd130 O129 2.203 . S
Cd130 O132 2.411 . S
Cd130 O133 2.333 . S
Cd130 O134 2.352 . S
Cd130 O138 2.277 . S
Cd130 O139 2.356 . S
C131 O136 1.209 . S
C131 O138 1.226 . S
O132 Cd128 2.273 . S
O132 Cd130 2.411 . S
O132 C135 1.320 . S
O133 Cd130 2.333 . S
O133 C135 1.214 . S
O134 Cd130 2.352 . S
O134 C137 1.258 . S
C135 O132 1.320 . S
C135 O133 1.214 . S
O136 Cd128 2.277 . S
O136 C131 1.209 . S
C137 O134 1.258 . S
C137 O139 1.282 . S
O138 Cd130 2.277 . S
O138 C131 1.226 . S
O139 Cd130 2.356 . S
O139 C137 1.282 . S
C140 O141 1.306 . S
C140 O143 1.160 . S
O141 C140 1.306 . S
O141 Cd142 2.228 . S
Cd142 O141 2.228 . S
Cd142 O146 2.273 . S
Cd142 O150 2.277 . S
O143 C140 1.160 . S
O143 Cd144 2.203 . S
Cd144 O143 2.203 . S
Cd144 O146 2.411 . S
Cd144 O147 2.333 . S
Cd144 O148 2.352 . S
Cd144 O152 2.277 . S
Cd144 O153 2.356 . S
C145 O150 1.209 . S
C145 O152 1.226 . S
O146 Cd142 2.273 . S
O146 Cd144 2.411 . S
O146 C149 1.320 . S
O147 Cd144 2.333 . S
O147 C149 1.214 . S
O148 Cd144 2.352 . S
O148 C151 1.258 . S
C149 O146 1.320 . S
C149 O147 1.214 . S
O150 Cd142 2.277 . S
O150 C145 1.209 . S
C151 O148 1.258 . S
C151 O153 1.282 . S
O152 Cd144 2.277 . S
O152 C145 1.226 . S
O153 Cd144 2.356 . S
O153 C151 1.282 . S
C154 O155 1.306 . S
C154 O157 1.160 . S
O155 C154 1.306 . S
O155 Cd156 2.228 . S
Cd156 O155 2.228 . S
Cd156 O160 2.273 . S
Cd156 O164 2.277 . S
O157 C154 1.160 . S
O157 Cd158 2.203 . S
Cd158 O157 2.203 . S
Cd158 O160 2.411 . S
Cd158 O161 2.333 . S
Cd158 O162 2.352 . S
Cd158 O166 2.277 . S
Cd158 O167 2.356 . S
C159 O164 1.209 . S
C159 O166 1.226 . S
O160 Cd156 2.273 . S
O160 Cd158 2.411 . S
O160 C163 1.320 . S
O161 Cd158 2.333 . S
O161 C163 1.214 . S
O162 Cd158 2.352 . S
O162 C165 1.258 . S
C163 O160 1.320 . S
C163 O161 1.214 . S
O164 Cd156 2.277 . S
O164 C159 1.209 . S
C165 O162 1.258 . S
C165 O167 1.282 . S
O166 Cd158 2.277 . S
O166 C159 1.226 . S
O167 Cd158 2.356 . S
O167 C165 1.282 . S
C168 O169 1.306 . S
C168 O171 1.160 . S
O169 C168 1.306 . S
O169 Cd170 2.228 . S
Cd170 O169 2.228 . S
Cd170 O174 2.273 . S
Cd170 O178 2.277 . S
O171 C168 1.160 . S
O171 Cd172 2.203 . S
Cd172 O171 2.203 . S
Cd172 O174 2.411 . S
Cd172 O175 2.333 . S
Cd172 O176 2.352 . S
Cd172 O180 2.277 . S
Cd172 O181 2.356 . S
C173 O178 1.209 . S
C173 O180 1.226 . S
O174 Cd170 2.273 . S
O174 Cd172 2.411 . S
O174 C177 1.320 . S
O175 Cd172 2.333 . S
O175 C177 1.214 . S
O176 Cd172 2.352 . S
O176 C179 1.258 . S
C177 O174 1.320 . S
C177 O175 1.214 . S
O178 Cd170 2.277 . S
O178 C173 1.209 . S
C179 O176 1.258 . S
C179 O181 1.282 . S
O180 Cd172 2.277 . S
O180 C173 1.226 . S
O181 Cd172 2.356 . S
O181 C179 1.282 . S
C182 O183 1.306 . S
C182 O185 1.160 . S
O183 C182 1.306 . S
O183 Cd184 2.228 . S
Cd184 O183 2.228 . S
Cd184 O188 2.273 . S
Cd184 O192 2.277 . S
O185 C182 1.160 . S
O185 Cd186 2.203 . S
Cd186 O185 2.203 . S
Cd186 O188 2.411 . S
Cd186 O189 2.333 . S
Cd186 O190 2.352 . S
Cd186 O194 2.277 . S
Cd186 O195 2.356 . S
C187 O192 1.209 . S
C187 O194 1.226 . S
O188 Cd184 2.273 . S
O188 Cd186 2.411 . S
O188 C191 1.320 . S
O189 Cd186 2.333 . S
O189 C191 1.214 . S
O190 Cd186 2.352 . S
O190 C193 1.258 . S
C191 O188 1.320 . S
C191 O189 1.214 . S
O192 Cd184 2.277 . S
O192 C187 1.209 . S
C193 O190 1.258 . S
C193 O195 1.282 . S
O194 Cd186 2.277 . S
O194 C187 1.226 . S
O195 Cd186 2.356 . S
O195 C193 1.282 . S
C196 O197 1.306 . S
C196 O199 1.160 . S
O197 C196 1.306 . S
O197 Cd198 2.228 . S
Cd198 O197 2.228 . S
Cd198 O202 2.273 . S
Cd198 O206 2.277 . S
O199 C196 1.160 . S
O199 Cd200 2.203 . S
Cd200 O199 2.203 . S
Cd200 O202 2.411 . S
Cd200 O203 2.333 . S
Cd200 O204 2.352 . S
Cd200 O208 2.277 . S
Cd200 O209 2.356 . S
C201 O206 1.209 . S
C201 O208 1.226 . S
O202 Cd198 2.273 . S
O202 Cd200 2.411 . S
O202 C205 1.320 . S
O203 Cd200 2.333 . S
O203 C205 1.214 . S
O204 Cd200 2.352 . S
O204 C207 1.258 . S
C205 O202 1.320 . S
C205 O203 1.214 . S
O206 Cd198 2.277 . S
O206 C201 1.209 . S
C207 O204 1.258 . S
C207 O209 1.282 . S
O208 Cd200 2.277 . S
O208 C201 1.226 . S
O209 Cd200 2.356 . S
O209 C207 1.282 . S
C210 O211 1.306 . S
C210 O213 1.160 . S
O211 C210 1.306 . S
O211 Cd212 2.228 . S
Cd212 O211 2.228 . S
Cd212 O216 2.273 . S
Cd212 O220 2.277 . S
O213 C210 1.160 . S
O213 Cd214 2.203 . S
Cd214 O213 2.203 . S
Cd214 O216 2.411 . S
Cd214 O217 2.333 . S
Cd214 O218 2.352 . S
Cd214 O222 2.277 . S
Cd214 O223 2.356 . S
C215 O220 1.209 . S
C215 O222 1.226 . S
O216 Cd212 2.273 . S
O216 Cd214 2.411 . S
O216 C219 1.320 . S
O217 Cd214 2.333 . S
O217 C219 1.214 . S
O218 Cd214 2.352 . S
O218 C221 1.258 . S
C219 O216 1.320 . S
C219 O217 1.214 . S
O220 Cd212 2.277 . S
O220 C215 1.209 . S
C221 O218 1.258 . S
C221 O223 1.282 . S
O222 Cd214 2.277 . S
O222 C215 1.226 . S
O223 Cd214 2.356 . S
O223 C221 1.282 . S
H224 C232 0.929 1_565 S
H225 C234 0.930 1_565 S
H226 C236 0.930 . S
H227 C239 0.929 . S
H228 C242 0.930 . S
H229 C244 0.960 . S
H230 C244 0.960 . S
H231 C244 0.960 . S
C232 H224 0.929 1_545 S
C232 C233 1.377 . S
C232 C234 1.384 . S
C233 C232 1.377 . S
C233 C239 1.390 . S
C234 H225 0.930 1_545 S
C234 C232 1.384 . S
C234 C235 1.372 . S
C235 C234 1.372 . S
C235 C236 1.400 . S
C235 C240 1.490 . S
C236 H226 0.930 . S
C236 C235 1.400 . S
C236 C239 1.386 . S
H237 C253 0.930 . S
H238 C254 0.931 . S
C239 H227 0.929 . S
C239 C233 1.390 . S
C239 C236 1.386 . S
C240 C235 1.490 . S
C240 C242 1.395 . S
C240 C243 1.403 . S
H241 C247 0.930 . S
C242 H228 0.930 . S
C242 C240 1.395 . S
C242 C245 1.403 . S
C243 C240 1.403 . S
C243 C244 1.524 . S
C243 C247 1.400 . S
C244 H229 0.960 . S
C244 H230 0.960 . S
C244 H231 0.960 . S
C244 C243 1.524 . S
C245 C242 1.403 . S
C245 C246 1.392 . S
C245 C249 1.495 . S
C246 C245 1.392 . S
C246 C247 1.385 . S
C246 C248 1.478 . S
C247 H241 0.930 . S
C247 C243 1.400 . S
C247 C246 1.385 . S
C248 C246 1.478 . S
C248 C250 1.381 . S
C248 C254 1.383 . S
C249 C245 1.495 . S
C249 H255 0.959 . S
C249 H256 0.961 . S
C249 H257 0.960 1_545 S
C250 C248 1.381 . S
C250 C251 1.394 . S
C250 H258 0.930 1_545 S
C251 C250 1.394 . S
C251 C252 1.383 . S
C251 H259 0.929 1_545 S
C252 C251 1.383 . S
C252 C253 1.377 . S
C253 H237 0.930 . S
C253 C252 1.377 . S
C253 C254 1.379 . S
C254 H238 0.931 . S
C254 C248 1.383 . S
C254 C253 1.379 . S
H255 C249 0.959 . S
H256 C249 0.961 . S
H257 C249 0.960 1_565 S
H258 C250 0.930 1_565 S
H259 C251 0.929 1_565 S
H260 C268 0.929 . S
H261 C270 0.930 . S
H262 C272 0.930 . S
H263 C275 0.929 . S
H264 C278 0.930 . S
H265 C280 0.960 . S
H266 C280 0.960 . S
H267 C280 0.960 . S
C268 H260 0.929 . S
C268 C269 1.377 . S
C268 C270 1.384 . S
C269 C268 1.377 . S
C269 C275 1.390 . S
C270 H261 0.930 . S
C270 C268 1.384 . S
C270 C271 1.372 . S
C271 C270 1.372 . S
C271 C272 1.400 . S
C271 C276 1.490 . S
C272 H262 0.930 . S
C272 C271 1.400 . S
C272 C275 1.386 . S
H273 C289 0.930 . S
H274 C290 0.931 . S
C275 H263 0.929 . S
C275 C269 1.390 . S
C275 C272 1.386 . S
C276 C271 1.490 . S
C276 C278 1.395 . S
C276 C279 1.403 . S
H277 C283 0.930 1_545 S
C278 H264 0.930 . S
C278 C276 1.395 . S
C278 C281 1.403 . S
C279 C276 1.403 . S
C279 C280 1.524 1_565 S
C279 C283 1.400 . S
C280 H265 0.960 . S
C280 H266 0.960 . S
C280 H267 0.960 . S
C280 C279 1.524 1_545 S
C281 C278 1.403 . S
C281 C282 1.392 . S
C281 C285 1.495 . S
C282 C281 1.392 . S
C282 C283 1.385 . S
C282 C284 1.478 . S
C283 H277 0.930 1_565 S
C283 C279 1.400 . S
C283 C282 1.385 . S
C284 C282 1.478 . S
C284 C286 1.381 . S
C284 C290 1.383 . S
C285 C281 1.495 . S
C285 H291 0.959 . S
C285 H292 0.961 . S
C285 H293 0.960 . S
C286 C284 1.381 . S
C286 C287 1.394 . S
C286 H294 0.930 . S
C287 C286 1.394 . S
C287 C288 1.383 . S
C287 H295 0.929 . S
C288 C287 1.383 . S
C288 C289 1.377 . S
C289 H273 0.930 . S
C289 C288 1.377 . S
C289 C290 1.379 . S
C290 H274 0.931 . S
C290 C284 1.383 . S
C290 C289 1.379 . S
H291 C285 0.959 . S
H292 C285 0.961 . S
H293 C285 0.960 . S
H294 C286 0.930 . S
H295 C287 0.929 . S
H296 C304 0.929 1_545 S
H297 C306 0.930 1_545 S
H298 C308 0.930 . S
H299 C311 0.929 . S
H300 C314 0.930 . S
H301 C316 0.960 . S
H302 C316 0.960 1_545 S
H303 C316 0.960 . S
C304 H296 0.929 1_565 S
C304 C305 1.377 . S
C304 C306 1.384 . S
C305 C304 1.377 . S
C305 C311 1.390 . S
C306 H297 0.930 1_565 S
C306 C304 1.384 . S
C306 C307 1.372 . S
C307 C306 1.372 . S
C307 C308 1.400 . S
C307 C312 1.490 . S
C308 H298 0.930 . S
C308 C307 1.400 . S
C308 C311 1.386 . S
H309 C325 0.930 . S
H310 C326 0.931 . S
C311 H299 0.929 . S
C311 C305 1.390 . S
C311 C308 1.386 . S
C312 C307 1.490 . S
C312 C314 1.395 . S
C312 C315 1.403 . S
H313 C319 0.930 . S
C314 H300 0.930 . S
C314 C312 1.395 . S
C314 C317 1.403 1_554 S
C315 C312 1.403 . S
C315 C316 1.524 . S
C315 C319 1.400 1_554 S
C316 H301 0.960 . S
C316 H302 0.960 1_565 S
C316 H303 0.960 . S
C316 C315 1.524 . S
C317 C314 1.403 1_556 S
C317 C318 1.392 . S
C317 C321 1.495 . S
C318 C317 1.392 . S
C318 C319 1.385 . S
C318 C320 1.478 . S
C319 H313 0.930 . S
C319 C315 1.400 1_556 S
C319 C318 1.385 . S
C320 C318 1.478 . S
C320 C322 1.381 . S
C320 C326 1.383 . S
C321 C317 1.495 . S
C321 H327 0.959 . S
C321 H328 0.961 . S
C321 H329 0.960 . S
C322 C320 1.381 . S
C322 C323 1.394 . S
C322 H330 0.930 1_565 S
C323 C322 1.394 . S
C323 C324 1.383 . S
C323 H331 0.929 1_565 S
C324 C323 1.383 . S
C324 C325 1.377 . S
C325 H309 0.930 . S
C325 C324 1.377 . S
C325 C326 1.379 . S
C326 H310 0.931 . S
C326 C320 1.383 . S
C326 C325 1.379 . S
H327 C321 0.959 . S
H328 C321 0.961 . S
H329 C321 0.960 . S
H330 C322 0.930 1_545 S
H331 C323 0.929 1_545 S
H332 C340 0.929 . S
H333 C342 0.930 . S
H334 C344 0.930 1_565 S
H335 C347 0.929 1_565 S
H336 C350 0.930 . S
H337 C352 0.960 . S
H338 C352 0.960 . S
H339 C352 0.960 . S
C340 H332 0.929 . S
C340 C341 1.377 . S
C340 C342 1.384 . S
C341 C340 1.377 . S
C341 C347 1.390 . S
C342 H333 0.930 . S
C342 C340 1.384 . S
C342 C343 1.372 . S
C343 C342 1.372 . S
C343 C344 1.400 . S
C343 C348 1.490 . S
C344 H334 0.930 1_545 S
C344 C343 1.400 . S
C344 C347 1.386 . S
H345 C361 0.930 1_565 S
H346 C362 0.931 1_565 S
C347 H335 0.929 1_545 S
C347 C341 1.390 . S
C347 C344 1.386 . S
C348 C343 1.490 . S
C348 C350 1.395 . S
C348 C351 1.403 . S
H349 C355 0.930 1_565 S
C350 H336 0.930 . S
C350 C348 1.395 . S
C350 C353 1.403 1_556 S
C351 C348 1.403 . S
C351 C352 1.524 1_545 S
C351 C355 1.400 1_556 S
C352 H337 0.960 . S
C352 H338 0.960 . S
C352 H339 0.960 . S
C352 C351 1.524 1_565 S
C353 C350 1.403 1_554 S
C353 C354 1.392 . S
C353 C357 1.495 . S
C354 C353 1.392 . S
C354 C355 1.385 . S
C354 C356 1.478 . S
C355 H349 0.930 1_545 S
C355 C351 1.400 1_554 S
C355 C354 1.385 . S
C356 C354 1.478 . S
C356 C358 1.381 . S
C356 C362 1.383 . S
C357 C353 1.495 . S
C357 H363 0.959 . S
C357 H364 0.961 . S
C357 H365 0.960 . S
C358 C356 1.381 . S
C358 C359 1.394 . S
C358 H366 0.930 . S
C359 C358 1.394 . S
C359 C360 1.383 . S
C359 H367 0.929 . S
C360 C359 1.383 . S
C360 C361 1.377 . S
C361 H345 0.930 1_545 S
C361 C360 1.377 . S
C361 C362 1.379 . S
C362 H346 0.931 1_545 S
C362 C356 1.383 . S
C362 C361 1.379 . S
H363 C357 0.959 . S
H364 C357 0.961 . S
H365 C357 0.960 . S
H366 C358 0.930 . S
H367 C359 0.929 . S
H368 C376 0.929 . S
H369 C378 0.930 . S
H370 C380 0.930 . S
H371 C383 0.929 . S
H372 C386 0.930 . S
H373 C388 0.960 . S
H374 C388 0.960 . S
H375 C388 0.960 . S
C376 H368 0.929 . S
C376 C377 1.377 . S
C376 C378 1.384 . S
C377 C376 1.377 . S
C377 C383 1.390 . S
C378 H369 0.930 . S
C378 C376 1.384 . S
C378 C379 1.372 . S
C379 C378 1.372 . S
C379 C380 1.400 . S
C379 C384 1.490 . S
C380 H370 0.930 . S
C380 C379 1.400 . S
C380 C383 1.386 . S
H381 C397 0.930 . S
H382 C398 0.931 . S
C383 H371 0.929 . S
C383 C377 1.390 . S
C383 C380 1.386 . S
C384 C379 1.490 . S
C384 C386 1.395 . S
C384 C387 1.403 . S
H385 C391 0.930 . S
C386 H372 0.930 . S
C386 C384 1.395 . S
C386 C389 1.403 . S
C387 C384 1.403 . S
C387 C388 1.524 . S
C387 C391 1.400 . S
C388 H373 0.960 . S
C388 H374 0.960 . S
C388 H375 0.960 . S
C388 C387 1.524 . S
C389 C386 1.403 . S
C389 C390 1.392 . S
C389 C393 1.495 . S
C390 C389 1.392 . S
C390 C391 1.385 . S
C390 C392 1.478 . S
C391 H385 0.930 . S
C391 C387 1.400 . S
C391 C390 1.385 . S
C392 C390 1.478 . S
C392 C394 1.381 . S
C392 C398 1.383 . S
C393 C389 1.495 . S
C393 H399 0.959 . S
C393 H400 0.961 . S
C393 H401 0.960 . S
C394 C392 1.381 . S
C394 C395 1.394 . S
C394 H402 0.930 . S
C395 C394 1.394 . S
C395 C396 1.383 . S
C395 H403 0.929 . S
C396 C395 1.383 . S
C396 C397 1.377 . S
C397 H381 0.930 . S
C397 C396 1.377 . S
C397 C398 1.379 . S
C398 H382 0.931 . S
C398 C392 1.383 . S
C398 C397 1.379 . S
H399 C393 0.959 . S
H400 C393 0.961 . S
H401 C393 0.960 . S
H402 C394 0.930 . S
H403 C395 0.929 . S
H404 C412 0.929 . S
H405 C414 0.930 . S
H406 C416 0.930 . S
H407 C419 0.929 . S
H408 C422 0.930 . S
H409 C424 0.960 . S
H410 C424 0.960 . S
H411 C424 0.960 . S
C412 H404 0.929 . S
C412 C413 1.377 . S
C412 C414 1.384 . S
C413 C412 1.377 . S
C413 C419 1.390 . S
C414 H405 0.930 . S
C414 C412 1.384 . S
C414 C415 1.372 . S
C415 C414 1.372 . S
C415 C416 1.400 . S
C415 C420 1.490 . S
C416 H406 0.930 . S
C416 C415 1.400 . S
C416 C419 1.386 . S
H417 C433 0.930 . S
H418 C434 0.931 . S
C419 H407 0.929 . S
C419 C413 1.390 . S
C419 C416 1.386 . S
C420 C415 1.490 . S
C420 C422 1.395 . S
C420 C423 1.403 . S
H421 C427 0.930 . S
C422 H408 0.930 . S
C422 C420 1.395 . S
C422 C425 1.403 . S
C423 C420 1.403 . S
C423 C424 1.524 . S
C423 C427 1.400 . S
C424 H409 0.960 . S
C424 H410 0.960 . S
C424 H411 0.960 . S
C424 C423 1.524 . S
C425 C422 1.403 . S
C425 C426 1.392 . S
C425 C429 1.495 . S
C426 C425 1.392 . S
C426 C427 1.385 . S
C426 C428 1.478 . S
C427 H421 0.930 . S
C427 C423 1.400 . S
C427 C426 1.385 . S
C428 C426 1.478 . S
C428 C430 1.381 . S
C428 C434 1.383 . S
C429 C425 1.495 . S
C429 H435 0.959 . S
C429 H436 0.961 . S
C429 H437 0.960 . S
C430 C428 1.381 . S
C430 C431 1.394 . S
C430 H438 0.930 . S
C431 C430 1.394 . S
C431 C432 1.383 . S
C431 H439 0.929 . S
C432 C431 1.383 . S
C432 C433 1.377 . S
C433 H417 0.930 . S
C433 C432 1.377 . S
C433 C434 1.379 . S
C434 H418 0.931 . S
C434 C428 1.383 . S
C434 C433 1.379 . S
H435 C429 0.959 . S
H436 C429 0.961 . S
H437 C429 0.960 . S
H438 C430 0.930 . S
H439 C431 0.929 . S
H440 C448 0.929 . S
H441 C450 0.930 . S
H442 C452 0.930 . S
H443 C455 0.929 . S
H444 C458 0.930 . S
H445 C460 0.960 . S
H446 C460 0.960 . S
H447 C460 0.960 . S
C448 H440 0.929 . S
C448 C449 1.377 . S
C448 C450 1.384 . S
C449 C448 1.377 . S
C449 C455 1.390 . S
C450 H441 0.930 . S
C450 C448 1.384 . S
C450 C451 1.372 . S
C451 C450 1.372 . S
C451 C452 1.400 . S
C451 C456 1.490 . S
C452 H442 0.930 . S
C452 C451 1.400 . S
C452 C455 1.386 . S
H453 C469 0.930 . S
H454 C470 0.931 . S
C455 H443 0.929 . S
C455 C449 1.390 . S
C455 C452 1.386 . S
C456 C451 1.490 . S
C456 C458 1.395 . S
C456 C459 1.403 . S
H457 C463 0.930 . S
C458 H444 0.930 . S
C458 C456 1.395 . S
C458 C461 1.403 1_556 S
C459 C456 1.403 . S
C459 C460 1.524 . S
C459 C463 1.400 1_556 S
C460 H445 0.960 . S
C460 H446 0.960 . S
C460 H447 0.960 . S
C460 C459 1.524 . S
C461 C458 1.403 1_554 S
C461 C462 1.392 . S
C461 C465 1.495 . S
C462 C461 1.392 . S
C462 C463 1.385 . S
C462 C464 1.478 . S
C463 H457 0.930 . S
C463 C459 1.400 1_554 S
C463 C462 1.385 . S
C464 C462 1.478 . S
C464 C466 1.381 . S
C464 C470 1.383 . S
C465 C461 1.495 . S
C465 H471 0.959 . S
C465 H472 0.961 . S
C465 H473 0.960 . S
C466 C464 1.381 . S
C466 C467 1.394 . S
C466 H474 0.930 . S
C467 C466 1.394 . S
C467 C468 1.383 . S
C467 H475 0.929 . S
C468 C467 1.383 . S
C468 C469 1.377 . S
C469 H453 0.930 . S
C469 C468 1.377 . S
C469 C470 1.379 . S
C470 H454 0.931 . S
C470 C464 1.383 . S
C470 C469 1.379 . S
H471 C465 0.959 . S
H472 C465 0.961 . S
H473 C465 0.960 . S
H474 C466 0.930 . S
H475 C467 0.929 . S
H476 C484 0.929 . S
H477 C486 0.930 . S
H478 C488 0.930 . S
H479 C491 0.929 . S
H480 C494 0.930 . S
H481 C496 0.960 . S
H482 C496 0.960 . S
H483 C496 0.960 . S
C484 H476 0.929 . S
C484 C485 1.377 . S
C484 C486 1.384 . S
C485 C484 1.377 . S
C485 C491 1.390 . S
C486 H477 0.930 . S
C486 C484 1.384 . S
C486 C487 1.372 . S
C487 C486 1.372 . S
C487 C488 1.400 . S
C487 C492 1.490 . S
C488 H478 0.930 . S
C488 C487 1.400 . S
C488 C491 1.386 . S
H489 C505 0.930 . S
H490 C506 0.931 . S
C491 H479 0.929 . S
C491 C485 1.390 . S
C491 C488 1.386 . S
C492 C487 1.490 . S
C492 C494 1.395 . S
C492 C495 1.403 . S
H493 C499 0.930 . S
C494 H480 0.930 . S
C494 C492 1.395 . S
C494 C497 1.403 1_554 S
C495 C492 1.403 . S
C495 C496 1.524 . S
C495 C499 1.400 1_554 S
C496 H481 0.960 . S
C496 H482 0.960 . S
C496 H483 0.960 . S
C496 C495 1.524 . S
C497 C494 1.403 1_556 S
C497 C498 1.392 . S
C497 C501 1.495 . S
C498 C497 1.392 . S
C498 C499 1.385 . S
C498 C500 1.478 . S
C499 H493 0.930 . S
C499 C495 1.400 1_556 S
C499 C498 1.385 . S
C500 C498 1.478 . S
C500 C502 1.381 . S
C500 C506 1.383 . S
C501 C497 1.495 . S
C501 H507 0.959 . S
C501 H508 0.961 . S
C501 H509 0.960 . S
C502 C500 1.381 . S
C502 C503 1.394 . S
C502 H510 0.930 . S
C503 C502 1.394 . S
C503 C504 1.383 . S
C503 H511 0.929 . S
C504 C503 1.383 . S
C504 C505 1.377 . S
C505 H489 0.930 . S
C505 C504 1.377 . S
C505 C506 1.379 . S
C506 H490 0.931 . S
C506 C500 1.383 . S
C506 C505 1.379 . S
H507 C501 0.959 . S
H508 C501 0.961 . S
H509 C501 0.960 . S
H510 C502 0.930 . S
H511 C503 0.929 . S
H512 C520 0.929 . S
H513 C522 0.930 . S
H514 C524 0.930 1_545 S
H515 C527 0.929 . S
H516 C530 0.930 . S
H517 C532 0.960 . S
H518 C532 0.960 . S
H519 C532 0.960 . S
C520 H512 0.929 . S
C520 C521 1.377 . S
C520 C522 1.384 . S
C521 C520 1.377 . S
C521 C527 1.390 . S
C522 H513 0.930 . S
C522 C520 1.384 . S
C522 C523 1.372 . S
C523 C522 1.372 . S
C523 C524 1.400 . S
C523 C528 1.490 . S
C524 H514 0.930 1_565 S
C524 C523 1.400 . S
C524 C527 1.386 . S
H525 C541 0.930 . S
H526 C542 0.931 . S
C527 H515 0.929 . S
C527 C521 1.390 . S
C527 C524 1.386 . S
C528 C523 1.490 . S
C528 C530 1.395 . S
C528 C531 1.403 1_565 S
H529 C535 0.930 . S
C530 H516 0.930 . S
C530 C528 1.395 . S
C530 C533 1.403 . S
C531 C528 1.403 1_545 S
C531 C532 1.524 . S
C531 C535 1.400 . S
C532 H517 0.960 . S
C532 H518 0.960 . S
C532 H519 0.960 . S
C532 C531 1.524 . S
C533 C530 1.403 . S
C533 C534 1.392 1_565 S
C533 C537 1.495 . S
C534 C533 1.392 1_545 S
C534 C535 1.385 . S
C534 C536 1.478 . S
C535 H529 0.930 . S
C535 C531 1.400 . S
C535 C534 1.385 . S
C536 C534 1.478 . S
C536 C538 1.381 . S
C536 C542 1.383 . S
C537 C533 1.495 . S
C537 H543 0.959 . S
C537 H544 0.961 . S
C537 H545 0.960 . S
C538 C536 1.381 . S
C538 C539 1.394 . S
C538 H546 0.930 1_545 S
C539 C538 1.394 . S
C539 C540 1.383 . S
C539 H547 0.929 . S
C540 C539 1.383 . S
C540 C541 1.377 . S
C541 H525 0.930 . S
C541 C540 1.377 . S
C541 C542 1.379 . S
C542 H526 0.931 . S
C542 C536 1.383 . S
C542 C541 1.379 . S
H543 C537 0.959 . S
H544 C537 0.961 . S
H545 C537 0.960 . S
H546 C538 0.930 1_565 S
H547 C539 0.929 . S
H548 C556 0.929 . S
H549 C558 0.930 . S
H550 C560 0.930 1_545 S
H551 C563 0.929 . S
H552 C566 0.930 . S
H553 C568 0.960 . S
H554 C568 0.960 . S
H555 C568 0.960 . S
C556 H548 0.929 . S
C556 C557 1.377 . S
C556 C558 1.384 . S
C557 C556 1.377 . S
C557 C563 1.390 . S
C558 H549 0.930 . S
C558 C556 1.384 . S
C558 C559 1.372 . S
C559 C558 1.372 . S
C559 C560 1.400 . S
C559 C564 1.490 . S
C560 H550 0.930 1_565 S
C560 C559 1.400 . S
C560 C563 1.386 . S
H561 C577 0.930 . S
H562 C578 0.931 . S
C563 H551 0.929 . S
C563 C557 1.390 . S
C563 C560 1.386 . S
C564 C559 1.490 . S
C564 C566 1.395 . S
C564 C567 1.403 1_565 S
H565 C571 0.930 . S
C566 H552 0.930 . S
C566 C564 1.395 . S
C566 C569 1.403 . S
C567 C564 1.403 1_545 S
C567 C568 1.524 . S
C567 C571 1.400 . S
C568 H553 0.960 . S
C568 H554 0.960 . S
C568 H555 0.960 . S
C568 C567 1.524 . S
C569 C566 1.403 . S
C569 C570 1.392 1_565 S
C569 C573 1.495 . S
C570 C569 1.392 1_545 S
C570 C571 1.385 . S
C570 C572 1.478 . S
C571 H565 0.930 . S
C571 C567 1.400 . S
C571 C570 1.385 . S
C572 C570 1.478 . S
C572 C574 1.381 . S
C572 C578 1.383 . S
C573 C569 1.495 . S
C573 H579 0.959 . S
C573 H580 0.961 . S
C573 H581 0.960 . S
C574 C572 1.381 . S
C574 C575 1.394 . S
C574 H582 0.930 1_545 S
C575 C574 1.394 . S
C575 C576 1.383 . S
C575 H583 0.929 . S
C576 C575 1.383 . S
C576 C577 1.377 . S
C577 H561 0.930 . S
C577 C576 1.377 . S
C577 C578 1.379 . S
C578 H562 0.931 . S
C578 C572 1.383 . S
C578 C577 1.379 . S
H579 C573 0.959 . S
H580 C573 0.961 . S
H581 C573 0.960 . S
H582 C574 0.930 1_565 S
H583 C575 0.929 . S
H584 C592 0.929 . S
H585 C594 0.930 . S
H586 C596 0.930 1_545 S
H587 C599 0.929 . S
H588 C602 0.930 . S
H589 C604 0.960 . S
H590 C604 0.960 . S
H591 C604 0.960 . S
C592 H584 0.929 . S
C592 C593 1.377 . S
C592 C594 1.384 . S
C593 C592 1.377 . S
C593 C599 1.390 . S
C594 H585 0.930 . S
C594 C592 1.384 . S
C594 C595 1.372 . S
C595 C594 1.372 . S
C595 C596 1.400 . S
C595 C600 1.490 . S
C596 H586 0.930 1_565 S
C596 C595 1.400 . S
C596 C599 1.386 . S
H597 C613 0.930 . S
H598 C614 0.931 . S
C599 H587 0.929 . S
C599 C593 1.390 . S
C599 C596 1.386 . S
C600 C595 1.490 . S
C600 C602 1.395 . S
C600 C603 1.403 1_565 S
H601 C607 0.930 . S
C602 H588 0.930 . S
C602 C600 1.395 . S
C602 C605 1.403 . S
C603 C600 1.403 1_545 S
C603 C604 1.524 . S
C603 C607 1.400 . S
C604 H589 0.960 . S
C604 H590 0.960 . S
C604 H591 0.960 . S
C604 C603 1.524 . S
C605 C602 1.403 . S
C605 C606 1.392 1_565 S
C605 C609 1.495 . S
C606 C605 1.392 1_545 S
C606 C607 1.385 . S
C606 C608 1.478 . S
C607 H601 0.930 . S
C607 C603 1.400 . S
C607 C606 1.385 . S
C608 C606 1.478 . S
C608 C610 1.381 . S
C608 C614 1.383 . S
C609 C605 1.495 . S
C609 H615 0.959 . S
C609 H616 0.961 . S
C609 H617 0.960 . S
C610 C608 1.381 . S
C610 C611 1.394 . S
C610 H618 0.930 1_545 S
C611 C610 1.394 . S
C611 C612 1.383 . S
C611 H619 0.929 . S
C612 C611 1.383 . S
C612 C613 1.377 . S
C613 H597 0.930 . S
C613 C612 1.377 . S
C613 C614 1.379 . S
C614 H598 0.931 . S
C614 C608 1.383 . S
C614 C613 1.379 . S
H615 C609 0.959 . S
H616 C609 0.961 . S
H617 C609 0.960 . S
H618 C610 0.930 1_565 S
H619 C611 0.929 . S
H620 C628 0.929 . S
H621 C630 0.930 . S
H622 C632 0.930 1_565 S
H623 C635 0.929 . S
H624 C638 0.930 . S
H625 C640 0.960 . S
H626 C640 0.960 . S
H627 C640 0.960 . S
C628 H620 0.929 . S
C628 C629 1.377 . S
C628 C630 1.384 . S
C629 C628 1.377 . S
C629 C635 1.390 . S
C630 H621 0.930 . S
C630 C628 1.384 . S
C630 C631 1.372 . S
C631 C630 1.372 . S
C631 C632 1.400 . S
C631 C636 1.490 . S
C632 H622 0.930 1_545 S
C632 C631 1.400 . S
C632 C635 1.386 . S
H633 C649 0.930 . S
H634 C650 0.931 . S
C635 H623 0.929 . S
C635 C629 1.390 . S
C635 C632 1.386 . S
C636 C631 1.490 . S
C636 C638 1.395 . S
C636 C639 1.403 1_545 S
H637 C643 0.930 . S
C638 H624 0.930 . S
C638 C636 1.395 . S
C638 C641 1.403 . S
C639 C636 1.403 1_565 S
C639 C640 1.524 . S
C639 C643 1.400 . S
C640 H625 0.960 . S
C640 H626 0.960 . S
C640 H627 0.960 . S
C640 C639 1.524 . S
C641 C638 1.403 . S
C641 C642 1.392 1_545 S
C641 C645 1.495 . S
C642 C641 1.392 1_565 S
C642 C643 1.385 . S
C642 C644 1.478 . S
C643 H637 0.930 . S
C643 C639 1.400 . S
C643 C642 1.385 . S
C644 C642 1.478 . S
C644 C646 1.381 . S
C644 C650 1.383 . S
C645 C641 1.495 . S
C645 H651 0.959 . S
C645 H652 0.961 . S
C645 H653 0.960 . S
C646 C644 1.381 . S
C646 C647 1.394 . S
C646 H654 0.930 1_565 S
C647 C646 1.394 . S
C647 C648 1.383 . S
C647 H655 0.929 . S
C648 C647 1.383 . S
C648 C649 1.377 . S
C649 H633 0.930 . S
C649 C648 1.377 . S
C649 C650 1.379 . S
C650 H634 0.931 . S
C650 C644 1.383 . S
C650 C649 1.379 . S
H651 C645 0.959 . S
H652 C645 0.961 . S
H653 C645 0.960 . S
H654 C646 0.930 1_545 S
H655 C647 0.929 . S
H656 C664 0.929 . S
H657 C666 0.930 . S
H658 C668 0.930 . S
H659 C671 0.929 . S
H660 C674 0.930 . S
H661 C676 0.960 1_455 S
H662 C676 0.960 . S
H663 C676 0.960 . S
C664 H656 0.929 . S
C664 C665 1.377 . S
C664 C666 1.384 . S
C665 C664 1.377 . S
C665 C671 1.390 . S
C666 H657 0.930 . S
C666 C664 1.384 . S
C666 C667 1.372 . S
C667 C666 1.372 . S
C667 C668 1.400 . S
C667 C672 1.490 . S
C668 H658 0.930 . S
C668 C667 1.400 . S
C668 C671 1.386 . S
H669 C685 0.930 . S
H670 C686 0.931 . S
C671 H659 0.929 . S
C671 C665 1.390 . S
C671 C668 1.386 . S
C672 C667 1.490 . S
C672 C674 1.395 . S
C672 C675 1.403 . S
H673 C679 0.930 . S
C674 H660 0.930 . S
C674 C672 1.395 . S
C674 C677 1.403 1_655 S
C675 C672 1.403 . S
C675 C676 1.524 . S
C675 C679 1.400 1_655 S
C676 H661 0.960 1_655 S
C676 H662 0.960 . S
C676 H663 0.960 . S
C676 C675 1.524 . S
C677 C674 1.403 1_455 S
C677 C678 1.392 . S
C677 C681 1.495 . S
C678 C677 1.392 . S
C678 C679 1.385 . S
C678 C680 1.478 . S
C679 H673 0.930 . S
C679 C675 1.400 1_455 S
C679 C678 1.385 . S
C680 C678 1.478 . S
C680 C682 1.381 . S
C680 C686 1.383 . S
C681 C677 1.495 . S
C681 H687 0.959 1_455 S
C681 H688 0.961 . S
C681 H689 0.960 . S
C682 C680 1.381 . S
C682 C683 1.394 . S
C682 H690 0.930 . S
C683 C682 1.394 . S
C683 C684 1.383 . S
C683 H691 0.929 . S
C684 C683 1.383 . S
C684 C685 1.377 . S
C685 H669 0.930 . S
C685 C684 1.377 . S
C685 C686 1.379 . S
C686 H670 0.931 . S
C686 C680 1.383 . S
C686 C685 1.379 . S
H687 C681 0.959 1_655 S
H688 C681 0.961 . S
H689 C681 0.960 . S
H690 C682 0.930 . S
H691 C683 0.929 . S
H692 C700 0.929 . S
H693 C702 0.930 . S
H694 C704 0.930 . S
H695 C707 0.929 . S
H696 C710 0.930 . S
H697 C712 0.960 1_655 S
H698 C712 0.960 . S
H699 C712 0.960 . S
C700 H692 0.929 . S
C700 C701 1.377 . S
C700 C702 1.384 . S
C701 C700 1.377 . S
C701 C707 1.390 . S
C702 H693 0.930 . S
C702 C700 1.384 . S
C702 C703 1.372 . S
C703 C702 1.372 . S
C703 C704 1.400 . S
C703 C708 1.490 . S
C704 H694 0.930 . S
C704 C703 1.400 . S
C704 C707 1.386 . S
H705 C721 0.930 . S
H706 C722 0.931 . S
C707 H695 0.929 . S
C707 C701 1.390 . S
C707 C704 1.386 . S
C708 C703 1.490 . S
C708 C710 1.395 . S
C708 C711 1.403 . S
H709 C715 0.930 . S
C710 H696 0.930 . S
C710 C708 1.395 . S
C710 C713 1.403 1_455 S
C711 C708 1.403 . S
C711 C712 1.524 . S
C711 C715 1.400 1_455 S
C712 H697 0.960 1_455 S
C712 H698 0.960 . S
C712 H699 0.960 . S
C712 C711 1.524 . S
C713 C710 1.403 1_655 S
C713 C714 1.392 . S
C713 C717 1.495 . S
C714 C713 1.392 . S
C714 C715 1.385 . S
C714 C716 1.478 . S
C715 H709 0.930 . S
C715 C711 1.400 1_655 S
C715 C714 1.385 . S
C716 C714 1.478 . S
C716 C718 1.381 . S
C716 C722 1.383 . S
C717 C713 1.495 . S
C717 H723 0.959 1_655 S
C717 H724 0.961 . S
C717 H725 0.960 . S
C718 C716 1.381 . S
C718 C719 1.394 . S
C718 H726 0.930 . S
C719 C718 1.394 . S
C719 C720 1.383 . S
C719 H727 0.929 . S
C720 C719 1.383 . S
C720 C721 1.377 . S
C721 H705 0.930 . S
C721 C720 1.377 . S
C721 C722 1.379 . S
C722 H706 0.931 . S
C722 C716 1.383 . S
C722 C721 1.379 . S
H723 C717 0.959 1_455 S
H724 C717 0.961 . S
H725 C717 0.960 . S
H726 C718 0.930 . S
H727 C719 0.929 . S
H728 C736 0.929 . S
H729 C738 0.930 . S
H730 C740 0.930 . S
H731 C743 0.929 . S
H732 C746 0.930 . S
H733 C748 0.960 . S
H734 C748 0.960 . S
H735 C748 0.960 . S
C736 H728 0.929 . S
C736 C737 1.377 . S
C736 C738 1.384 . S
C737 C736 1.377 . S
C737 C743 1.390 . S
C738 H729 0.930 . S
C738 C736 1.384 . S
C738 C739 1.372 . S
C739 C738 1.372 . S
C739 C740 1.400 . S
C739 C744 1.490 . S
C740 H730 0.930 . S
C740 C739 1.400 . S
C740 C743 1.386 . S
H741 C757 0.930 . S
H742 C758 0.931 . S
C743 H731 0.929 . S
C743 C737 1.390 . S
C743 C740 1.386 . S
C744 C739 1.490 . S
C744 C746 1.395 . S
C744 C747 1.403 . S
H745 C751 0.930 . S
C746 H732 0.930 . S
C746 C744 1.395 . S
C746 C749 1.403 1_655 S
C747 C744 1.403 . S
C747 C748 1.524 . S
C747 C751 1.400 1_655 S
C748 H733 0.960 . S
C748 H734 0.960 . S
C748 H735 0.960 . S
C748 C747 1.524 . S
C749 C746 1.403 1_455 S
C749 C750 1.392 . S
C749 C753 1.495 . S
C750 C749 1.392 . S
C750 C751 1.385 . S
C750 C752 1.478 . S
C751 H745 0.930 . S
C751 C747 1.400 1_455 S
C751 C750 1.385 . S
C752 C750 1.478 . S
C752 C754 1.381 . S
C752 C758 1.383 . S
C753 C749 1.495 . S
C753 H759 0.959 . S
C753 H760 0.961 . S
C753 H761 0.960 . S
C754 C752 1.381 . S
C754 C755 1.394 . S
C754 H762 0.930 . S
C755 C754 1.394 . S
C755 C756 1.383 . S
C755 H763 0.929 . S
C756 C755 1.383 . S
C756 C757 1.377 . S
C757 H741 0.930 . S
C757 C756 1.377 . S
C757 C758 1.379 . S
C758 H742 0.931 . S
C758 C752 1.383 . S
C758 C757 1.379 . S
H759 C753 0.959 . S
H760 C753 0.961 . S
H761 C753 0.960 . S
H762 C754 0.930 . S
H763 C755 0.929 . S
H764 C772 0.929 . S
H765 C774 0.930 . S
H766 C776 0.930 . S
H767 C779 0.929 . S
H768 C782 0.930 . S
H769 C784 0.960 1_655 S
H770 C784 0.960 . S
H771 C784 0.960 . S
C772 H764 0.929 . S
C772 C773 1.377 . S
C772 C774 1.384 . S
C773 C772 1.377 . S
C773 C779 1.390 . S
C774 H765 0.930 . S
C774 C772 1.384 . S
C774 C775 1.372 . S
C775 C774 1.372 . S
C775 C776 1.400 . S
C775 C780 1.490 . S
C776 H766 0.930 . S
C776 C775 1.400 . S
C776 C779 1.386 . S
H777 C793 0.930 . S
H778 C794 0.931 . S
C779 H767 0.929 . S
C779 C773 1.390 . S
C779 C776 1.386 . S
C780 C775 1.490 . S
C780 C782 1.395 . S
C780 C783 1.403 . S
H781 C787 0.930 . S
C782 H768 0.930 . S
C782 C780 1.395 . S
C782 C785 1.403 1_455 S
C783 C780 1.403 . S
C783 C784 1.524 . S
C783 C787 1.400 1_455 S
C784 H769 0.960 1_455 S
C784 H770 0.960 . S
C784 H771 0.960 . S
C784 C783 1.524 . S
C785 C782 1.403 1_655 S
C785 C786 1.392 . S
C785 C789 1.495 . S
C786 C785 1.392 . S
C786 C787 1.385 . S
C786 C788 1.478 . S
C787 H781 0.930 . S
C787 C783 1.400 1_655 S
C787 C786 1.385 . S
C788 C786 1.478 . S
C788 C790 1.381 . S
C788 C794 1.383 . S
C789 C785 1.495 . S
C789 H795 0.959 1_655 S
C789 H796 0.961 . S
C789 H797 0.960 . S
C790 C788 1.381 . S
C790 C791 1.394 . S
C790 H798 0.930 . S
C791 C790 1.394 . S
C791 C792 1.383 . S
C791 H799 0.929 . S
C792 C791 1.383 . S
C792 C793 1.377 . S
C793 H777 0.930 . S
C793 C792 1.377 . S
C793 C794 1.379 . S
C794 H778 0.931 . S
C794 C788 1.383 . S
C794 C793 1.379 . S
H795 C789 0.959 1_455 S
H796 C789 0.961 . S
H797 C789 0.960 . S
H798 C790 0.930 . S
H799 C791 0.929 . S
H800 C808 0.929 . S
H801 C810 0.930 . S
H802 C812 0.930 . S
H803 C815 0.929 . S
H804 C818 0.930 . S
H805 C820 0.960 . S
H806 C820 0.960 . S
H807 C820 0.960 . S
C808 H800 0.929 . S
C808 C809 1.377 . S
C808 C810 1.384 . S
C809 C808 1.377 . S
C809 C815 1.390 . S
C810 H801 0.930 . S
C810 C808 1.384 . S
C810 C811 1.372 . S
C811 C810 1.372 . S
C811 C812 1.400 . S
C811 C816 1.490 . S
C812 H802 0.930 . S
C812 C811 1.400 . S
C812 C815 1.386 . S
H813 C829 0.930 . S
H814 C830 0.931 . S
C815 H803 0.929 . S
C815 C809 1.390 . S
C815 C812 1.386 . S
C816 C811 1.490 . S
C816 C818 1.395 . S
C816 C819 1.403 . S
H817 C823 0.930 . S
C818 H804 0.930 . S
C818 C816 1.395 . S
C818 C821 1.403 . S
C819 C816 1.403 . S
C819 C820 1.524 . S
C819 C823 1.400 . S
C820 H805 0.960 . S
C820 H806 0.960 . S
C820 H807 0.960 . S
C820 C819 1.524 . S
C821 C818 1.403 . S
C821 C822 1.392 . S
C821 C825 1.495 . S
C822 C821 1.392 . S
C822 C823 1.385 . S
C822 C824 1.478 . S
C823 H817 0.930 . S
C823 C819 1.400 . S
C823 C822 1.385 . S
C824 C822 1.478 . S
C824 C826 1.381 . S
C824 C830 1.383 . S
C825 C821 1.495 . S
C825 H831 0.959 . S
C825 H832 0.961 . S
C825 H833 0.960 . S
C826 C824 1.381 . S
C826 C827 1.394 . S
C826 H834 0.930 . S
C827 C826 1.394 . S
C827 C828 1.383 . S
C827 H835 0.929 . S
C828 C827 1.383 . S
C828 C829 1.377 . S
C829 H813 0.930 . S
C829 C828 1.377 . S
C829 C830 1.379 . S
C830 H814 0.931 . S
C830 C824 1.383 . S
C830 C829 1.379 . S
H831 C825 0.959 . S
H832 C825 0.961 . S
H833 C825 0.960 . S
H834 C826 0.930 . S
H835 C827 0.929 . S
H836 C844 0.929 . S
H837 C846 0.930 . S
H838 C848 0.930 . S
H839 C851 0.929 . S
H840 C854 0.930 . S
H841 C856 0.960 . S
H842 C856 0.960 . S
H843 C856 0.960 . S
C844 H836 0.929 . S
C844 C845 1.377 . S
C844 C846 1.384 . S
C845 C844 1.377 . S
C845 C851 1.390 . S
C846 H837 0.930 . S
C846 C844 1.384 . S
C846 C847 1.372 . S
C847 C846 1.372 . S
C847 C848 1.400 . S
C847 C852 1.490 . S
C848 H838 0.930 . S
C848 C847 1.400 . S
C848 C851 1.386 . S
H849 C865 0.930 . S
H850 C866 0.931 . S
C851 H839 0.929 . S
C851 C845 1.390 . S
C851 C848 1.386 . S
C852 C847 1.490 . S
C852 C854 1.395 . S
C852 C855 1.403 . S
H853 C859 0.930 . S
C854 H840 0.930 . S
C854 C852 1.395 . S
C854 C857 1.403 . S
C855 C852 1.403 . S
C855 C856 1.524 . S
C855 C859 1.400 . S
C856 H841 0.960 . S
C856 H842 0.960 . S
C856 H843 0.960 . S
C856 C855 1.524 . S
C857 C854 1.403 . S
C857 C858 1.392 . S
C857 C861 1.495 . S
C858 C857 1.392 . S
C858 C859 1.385 . S
C858 C860 1.478 . S
C859 H853 0.930 . S
C859 C855 1.400 . S
C859 C858 1.385 . S
C860 C858 1.478 . S
C860 C862 1.381 . S
C860 C866 1.383 . S
C861 C857 1.495 . S
C861 H867 0.959 . S
C861 H868 0.961 . S
C861 H869 0.960 . S
C862 C860 1.381 . S
C862 C863 1.394 . S
C862 H870 0.930 . S
C863 C862 1.394 . S
C863 C864 1.383 . S
C863 H871 0.929 . S
C864 C863 1.383 . S
C864 C865 1.377 . S
C865 H849 0.930 . S
C865 C864 1.377 . S
C865 C866 1.379 . S
C866 H850 0.931 . S
C866 C860 1.383 . S
C866 C865 1.379 . S
H867 C861 0.959 . S
H868 C861 0.961 . S
H869 C861 0.960 . S
H870 C862 0.930 . S
H871 C863 0.929 . S
H872 C880 0.929 . S
H873 C882 0.930 . S
H874 C884 0.930 . S
H875 C887 0.929 . S
H876 C890 0.930 . S
H877 C892 0.960 . S
H878 C892 0.960 . S
H879 C892 0.960 . S
C880 H872 0.929 . S
C880 C881 1.377 . S
C880 C882 1.384 . S
C881 C880 1.377 . S
C881 C887 1.390 . S
C882 H873 0.930 . S
C882 C880 1.384 . S
C882 C883 1.372 . S
C883 C882 1.372 . S
C883 C884 1.400 . S
C883 C888 1.490 . S
C884 H874 0.930 . S
C884 C883 1.400 . S
C884 C887 1.386 . S
H885 C901 0.930 . S
H886 C902 0.931 . S
C887 H875 0.929 . S
C887 C881 1.390 . S
C887 C884 1.386 . S
C888 C883 1.490 . S
C888 C890 1.395 . S
C888 C891 1.403 . S
H889 C895 0.930 . S
C890 H876 0.930 . S
C890 C888 1.395 . S
C890 C893 1.403 . S
C891 C888 1.403 . S
C891 C892 1.524 . S
C891 C895 1.400 . S
C892 H877 0.960 . S
C892 H878 0.960 . S
C892 H879 0.960 . S
C892 C891 1.524 . S
C893 C890 1.403 . S
C893 C894 1.392 . S
C893 C897 1.495 . S
C894 C893 1.392 . S
C894 C895 1.385 . S
C894 C896 1.478 . S
C895 H889 0.930 . S
C895 C891 1.400 . S
C895 C894 1.385 . S
C896 C894 1.478 . S
C896 C898 1.381 . S
C896 C902 1.383 . S
C897 C893 1.495 . S
C897 H903 0.959 . S
C897 H904 0.961 . S
C897 H905 0.960 . S
C898 C896 1.381 . S
C898 C899 1.394 . S
C898 H906 0.930 . S
C899 C898 1.394 . S
C899 C900 1.383 . S
C899 H907 0.929 . S
C900 C899 1.383 . S
C900 C901 1.377 . S
C901 H885 0.930 . S
C901 C900 1.377 . S
C901 C902 1.379 . S
C902 H886 0.931 . S
C902 C896 1.383 . S
C902 C901 1.379 . S
H903 C897 0.959 . S
H904 C897 0.961 . S
H905 C897 0.960 . S
H906 C898 0.930 . S
H907 C899 0.929 . S
H908 C916 0.929 . S
H909 C918 0.930 . S
H910 C920 0.930 . S
H911 C923 0.929 . S
H912 C926 0.930 . S
H913 C928 0.960 . S
H914 C928 0.960 . S
H915 C928 0.960 . S
C916 H908 0.929 . S
C916 C917 1.377 . S
C916 C918 1.384 . S
C917 C916 1.377 . S
C917 C923 1.390 . S
C918 H909 0.930 . S
C918 C916 1.384 . S
C918 C919 1.372 . S
C919 C918 1.372 . S
C919 C920 1.400 . S
C919 C924 1.490 . S
C920 H910 0.930 . S
C920 C919 1.400 . S
C920 C923 1.386 . S
H921 C937 0.930 . S
H922 C938 0.931 . S
C923 H911 0.929 . S
C923 C917 1.390 . S
C923 C920 1.386 . S
C924 C919 1.490 . S
C924 C926 1.395 . S
C924 C927 1.403 . S
H925 C931 0.930 . S
C926 H912 0.930 . S
C926 C924 1.395 . S
C926 C929 1.403 . S
C927 C924 1.403 . S
C927 C928 1.524 . S
C927 C931 1.400 . S
C928 H913 0.960 . S
C928 H914 0.960 . S
C928 H915 0.960 . S
C928 C927 1.524 . S
C929 C926 1.403 . S
C929 C930 1.392 . S
C929 C933 1.495 . S
C930 C929 1.392 . S
C930 C931 1.385 . S
C930 C932 1.478 . S
C931 H925 0.930 . S
C931 C927 1.400 . S
C931 C930 1.385 . S
C932 C930 1.478 . S
C932 C934 1.381 . S
C932 C938 1.383 . S
C933 C929 1.495 . S
C933 H939 0.959 . S
C933 H940 0.961 . S
C933 H941 0.960 . S
C934 C932 1.381 . S
C934 C935 1.394 . S
C934 H942 0.930 . S
C935 C934 1.394 . S
C935 C936 1.383 . S
C935 H943 0.929 . S
C936 C935 1.383 . S
C936 C937 1.377 . S
C937 H921 0.930 . S
C937 C936 1.377 . S
C937 C938 1.379 . S
C938 H922 0.931 . S
C938 C932 1.383 . S
C938 C937 1.379 . S
H939 C933 0.959 . S
H940 C933 0.961 . S
H941 C933 0.960 . S
H942 C934 0.930 . S
H943 C935 0.929 . S
H944 C952 0.929 . S
H945 C954 0.930 . S
H946 C956 0.930 . S
H947 C959 0.929 . S
H948 C962 0.930 . S
H949 C964 0.960 . S
H950 C964 0.960 . S
H951 C964 0.960 . S
C952 H944 0.929 . S
C952 C953 1.377 . S
C952 C954 1.384 . S
C953 C952 1.377 . S
C953 C959 1.390 . S
C954 H945 0.930 . S
C954 C952 1.384 . S
C954 C955 1.372 . S
C955 C954 1.372 . S
C955 C956 1.400 . S
C955 C960 1.490 . S
C956 H946 0.930 . S
C956 C955 1.400 . S
C956 C959 1.386 . S
H957 C973 0.930 . S
H958 C974 0.931 . S
C959 H947 0.929 . S
C959 C953 1.390 . S
C959 C956 1.386 . S
C960 C955 1.490 . S
C960 C962 1.395 . S
C960 C963 1.403 . S
H961 C967 0.930 . S
C962 H948 0.930 . S
C962 C960 1.395 . S
C962 C965 1.403 . S
C963 C960 1.403 . S
C963 C964 1.524 . S
C963 C967 1.400 . S
C964 H949 0.960 . S
C964 H950 0.960 . S
C964 H951 0.960 . S
C964 C963 1.524 . S
C965 C962 1.403 . S
C965 C966 1.392 . S
C965 C969 1.495 . S
C966 C965 1.392 . S
C966 C967 1.385 . S
C966 C968 1.478 . S
C967 H961 0.930 . S
C967 C963 1.400 . S
C967 C966 1.385 . S
C968 C966 1.478 . S
C968 C970 1.381 . S
C968 C974 1.383 . S
C969 C965 1.495 . S
C969 H975 0.959 . S
C969 H976 0.961 . S
C969 H977 0.960 . S
C970 C968 1.381 . S
C970 C971 1.394 . S
C970 H978 0.930 . S
C971 C970 1.394 . S
C971 C972 1.383 . S
C971 H979 0.929 . S
C972 C971 1.383 . S
C972 C973 1.377 . S
C973 H957 0.930 . S
C973 C972 1.377 . S
C973 C974 1.379 . S
C974 H958 0.931 . S
C974 C968 1.383 . S
C974 C973 1.379 . S
H975 C969 0.959 . S
H976 C969 0.961 . S
H977 C969 0.960 . S
H978 C970 0.930 . S
H979 C971 0.929 . S
H980 C988 0.929 . S
H981 C990 0.930 . S
H982 C992 0.930 . S
H983 C995 0.929 . S
H984 C998 0.930 . S
H985 C1000 0.960 . S
H986 C1000 0.960 . S
H987 C1000 0.960 . S
C988 H980 0.929 . S
C988 C989 1.377 . S
C988 C990 1.384 . S
C989 C988 1.377 . S
C989 C995 1.390 . S
C990 H981 0.930 . S
C990 C988 1.384 . S
C990 C991 1.372 . S
C991 C990 1.372 . S
C991 C992 1.400 . S
C991 C996 1.490 . S
C992 H982 0.930 . S
C992 C991 1.400 . S
C992 C995 1.386 . S
H993 C1009 0.930 . S
H994 C1010 0.931 . S
C995 H983 0.929 . S
C995 C989 1.390 . S
C995 C992 1.386 . S
C996 C991 1.490 . S
C996 C998 1.395 . S
C996 C999 1.403 . S
H997 C1003 0.930 . S
C998 H984 0.930 . S
C998 C996 1.395 . S
C998 C1001 1.403 . S
C999 C996 1.403 . S
C999 C1000 1.524 . S
C999 C1003 1.400 . S
C1000 H985 0.960 . S
C1000 H986 0.960 . S
C1000 H987 0.960 . S
C1000 C999 1.524 . S
C1001 C998 1.403 . S
C1001 C1002 1.392 . S
C1001 C1005 1.495 . S
C1002 C1001 1.392 . S
C1002 C1003 1.385 . S
C1002 C1004 1.478 . S
C1003 H997 0.930 . S
C1003 C999 1.400 . S
C1003 C1002 1.385 . S
C1004 C1002 1.478 . S
C1004 C1006 1.381 . S
C1004 C1010 1.383 . S
C1005 C1001 1.495 . S
C1005 H1011 0.959 . S
C1005 H1012 0.961 . S
C1005 H1013 0.960 . S
C1006 C1004 1.381 . S
C1006 C1007 1.394 . S
C1006 H1014 0.930 . S
C1007 C1006 1.394 . S
C1007 C1008 1.383 . S
C1007 H1015 0.929 . S
C1008 C1007 1.383 . S
C1008 C1009 1.377 . S
C1009 H993 0.930 . S
C1009 C1008 1.377 . S
C1009 C1010 1.379 . S
C1010 H994 0.931 . S
C1010 C1004 1.383 . S
C1010 C1009 1.379 . S
H1011 C1005 0.959 . S
H1012 C1005 0.961 . S
H1013 C1005 0.960 . S
H1014 C1006 0.930 . S
H1015 C1007 0.929 . S
H1016 C1024 0.929 . S
H1017 C1026 0.930 . S
H1018 C1028 0.930 . S
H1019 C1031 0.929 . S
H1020 C1034 0.930 . S
H1021 C1036 0.960 . S
H1022 C1036 0.960 . S
H1023 C1036 0.960 . S
C1024 H1016 0.929 . S
C1024 C1025 1.377 . S
C1024 C1026 1.384 . S
C1025 C1024 1.377 . S
C1025 C1031 1.390 . S
C1026 H1017 0.930 . S
C1026 C1024 1.384 . S
C1026 C1027 1.372 . S
C1027 C1026 1.372 . S
C1027 C1028 1.400 . S
C1027 C1032 1.490 . S
C1028 H1018 0.930 . S
C1028 C1027 1.400 . S
C1028 C1031 1.386 . S
H1029 C1045 0.930 . S
H1030 C1046 0.931 . S
C1031 H1019 0.929 . S
C1031 C1025 1.390 . S
C1031 C1028 1.386 . S
C1032 C1027 1.490 . S
C1032 C1034 1.395 . S
C1032 C1035 1.403 . S
H1033 C1039 0.930 . S
C1034 H1020 0.930 . S
C1034 C1032 1.395 . S
C1034 C1037 1.403 . S
C1035 C1032 1.403 . S
C1035 C1036 1.524 . S
C1035 C1039 1.400 . S
C1036 H1021 0.960 . S
C1036 H1022 0.960 . S
C1036 H1023 0.960 . S
C1036 C1035 1.524 . S
C1037 C1034 1.403 . S
C1037 C1038 1.392 . S
C1037 C1041 1.495 . S
C1038 C1037 1.392 . S
C1038 C1039 1.385 . S
C1038 C1040 1.478 . S
C1039 H1033 0.930 . S
C1039 C1035 1.400 . S
C1039 C1038 1.385 . S
C1040 C1038 1.478 . S
C1040 C1042 1.381 . S
C1040 C1046 1.383 . S
C1041 C1037 1.495 . S
C1041 H1047 0.959 . S
C1041 H1048 0.961 . S
C1041 H1049 0.960 . S
C1042 C1040 1.381 . S
C1042 C1043 1.394 . S
C1042 H1050 0.930 . S
C1043 C1042 1.394 . S
C1043 C1044 1.383 . S
C1043 H1051 0.929 . S
C1044 C1043 1.383 . S
C1044 C1045 1.377 . S
C1045 H1029 0.930 . S
C1045 C1044 1.377 . S
C1045 C1046 1.379 . S
C1046 H1030 0.931 . S
C1046 C1040 1.383 . S
C1046 C1045 1.379 . S
H1047 C1041 0.959 . S
H1048 C1041 0.961 . S
H1049 C1041 0.960 . S
H1050 C1042 0.930 . S
H1051 C1043 0.929 . S
H1052 C1060 0.929 . S
H1053 C1062 0.930 . S
H1054 C1064 0.930 . S
H1055 C1067 0.929 . S
H1056 C1070 0.930 . S
H1057 C1072 0.960 . S
H1058 C1072 0.960 . S
H1059 C1072 0.960 . S
C1060 H1052 0.929 . S
C1060 C1061 1.377 . S
C1060 C1062 1.384 . S
C1061 C1060 1.377 . S
C1061 C1067 1.390 . S
C1062 H1053 0.930 . S
C1062 C1060 1.384 . S
C1062 C1063 1.372 . S
C1063 C1062 1.372 . S
C1063 C1064 1.400 . S
C1063 C1068 1.490 . S
C1064 H1054 0.930 . S
C1064 C1063 1.400 . S
C1064 C1067 1.386 . S
H1065 C1081 0.930 . S
H1066 C1082 0.931 . S
C1067 H1055 0.929 . S
C1067 C1061 1.390 . S
C1067 C1064 1.386 . S
C1068 C1063 1.490 . S
C1068 C1070 1.395 . S
C1068 C1071 1.403 . S
H1069 C1075 0.930 . S
C1070 H1056 0.930 . S
C1070 C1068 1.395 . S
C1070 C1073 1.403 . S
C1071 C1068 1.403 . S
C1071 C1072 1.524 . S
C1071 C1075 1.400 . S
C1072 H1057 0.960 . S
C1072 H1058 0.960 . S
C1072 H1059 0.960 . S
C1072 C1071 1.524 . S
C1073 C1070 1.403 . S
C1073 C1074 1.392 . S
C1073 C1077 1.495 . S
C1074 C1073 1.392 . S
C1074 C1075 1.385 . S
C1074 C1076 1.478 . S
C1075 H1069 0.930 . S
C1075 C1071 1.400 . S
C1075 C1074 1.385 . S
C1076 C1074 1.478 . S
C1076 C1078 1.381 . S
C1076 C1082 1.383 . S
C1077 C1073 1.495 . S
C1077 H1083 0.959 . S
C1077 H1084 0.961 . S
C1077 H1085 0.960 . S
C1078 C1076 1.381 . S
C1078 C1079 1.394 . S
C1078 H1086 0.930 . S
C1079 C1078 1.394 . S
C1079 C1080 1.383 . S
C1079 H1087 0.929 . S
C1080 C1079 1.383 . S
C1080 C1081 1.377 . S
C1081 H1065 0.930 . S
C1081 C1080 1.377 . S
C1081 C1082 1.379 . S
C1082 H1066 0.931 . S
C1082 C1076 1.383 . S
C1082 C1081 1.379 . S
H1083 C1077 0.959 . S
H1084 C1077 0.961 . S
H1085 C1077 0.960 . S
H1086 C1078 0.930 . S
H1087 C1079 0.929 . S
H1088 C1096 0.929 . S
H1089 C1098 0.930 . S
H1090 C1100 0.930 . S
H1091 C1103 0.929 . S
H1092 C1106 0.930 . S
H1093 C1108 0.960 . S
H1094 C1108 0.960 . S
H1095 C1108 0.960 . S
C1096 H1088 0.929 . S
C1096 C1097 1.377 . S
C1096 C1098 1.384 . S
C1097 C1096 1.377 . S
C1097 C1103 1.390 1_545 S
C1098 H1089 0.930 . S
C1098 C1096 1.384 . S
C1098 C1099 1.372 . S
C1099 C1098 1.372 . S
C1099 C1100 1.400 1_545 S
C1099 C1104 1.490 . S
C1100 H1090 0.930 . S
C1100 C1099 1.400 1_565 S
C1100 C1103 1.386 . S
H1101 C1117 0.930 . S
H1102 C1118 0.931 . S
C1103 H1091 0.929 . S
C1103 C1097 1.390 1_565 S
C1103 C1100 1.386 . S
C1104 C1099 1.490 . S
C1104 C1106 1.395 . S
C1104 C1107 1.403 1_545 S
H1105 C1111 0.930 . S
C1106 H1092 0.930 . S
C1106 C1104 1.395 . S
C1106 C1109 1.403 . S
C1107 C1104 1.403 1_565 S
C1107 C1108 1.524 . S
C1107 C1111 1.400 . S
C1108 H1093 0.960 . S
C1108 H1094 0.960 . S
C1108 H1095 0.960 . S
C1108 C1107 1.524 . S
C1109 C1106 1.403 . S
C1109 C1110 1.392 . S
C1109 C1113 1.495 . S
C1110 C1109 1.392 . S
C1110 C1111 1.385 1_545 S
C1110 C1112 1.478 1_545 S
C1111 H1105 0.930 . S
C1111 C1107 1.400 . S
C1111 C1110 1.385 1_565 S
C1112 C1110 1.478 1_565 S
C1112 C1114 1.381 1_565 S
C1112 C1118 1.383 . S
C1113 C1109 1.495 . S
C1113 H1119 0.959 . S
C1113 H1120 0.961 . S
C1113 H1121 0.960 . S
C1114 C1112 1.381 1_545 S
C1114 C1115 1.394 . S
C1114 H1122 0.930 . S
C1115 C1114 1.394 . S
C1115 C1116 1.383 1_545 S
C1115 H1123 0.929 . S
C1116 C1115 1.383 1_565 S
C1116 C1117 1.377 . S
C1117 H1101 0.930 . S
C1117 C1116 1.377 . S
C1117 C1118 1.379 . S
C1118 H1102 0.931 . S
C1118 C1112 1.383 . S
C1118 C1117 1.379 . S
H1119 C1113 0.959 . S
H1120 C1113 0.961 . S
H1121 C1113 0.960 . S
H1122 C1114 0.930 . S
H1123 C1115 0.929 . S
H1124 C1132 0.929 . S
H1125 C1134 0.930 . S
H1126 C1136 0.930 . S
H1127 C1139 0.929 . S
H1128 C1142 0.930 . S
H1129 C1144 0.960 . S
H1130 C1144 0.960 1_565 S
H1131 C1144 0.960 . S
C1132 H1124 0.929 . S
C1132 C1133 1.377 1_565 S
C1132 C1134 1.384 . S
C1133 C1132 1.377 1_545 S
C1133 C1139 1.390 . S
C1134 H1125 0.930 . S
C1134 C1132 1.384 . S
C1134 C1135 1.372 1_565 S
C1135 C1134 1.372 1_545 S
C1135 C1136 1.400 . S
C1135 C1140 1.490 . S
C1136 H1126 0.930 . S
C1136 C1135 1.400 . S
C1136 C1139 1.386 . S
H1137 C1153 0.930 . S
H1138 C1154 0.931 . S
C1139 H1127 0.929 . S
C1139 C1133 1.390 . S
C1139 C1136 1.386 . S
C1140 C1135 1.490 . S
C1140 C1142 1.395 1_545 S
C1140 C1143 1.403 . S
H1141 C1147 0.930 . S
C1142 H1128 0.930 . S
C1142 C1140 1.395 1_565 S
C1142 C1145 1.403 . S
C1143 C1140 1.403 . S
C1143 C1144 1.524 . S
C1143 C1147 1.400 1_545 S
C1144 H1129 0.960 . S
C1144 H1130 0.960 1_545 S
C1144 H1131 0.960 . S
C1144 C1143 1.524 . S
C1145 C1142 1.403 . S
C1145 C1146 1.392 . S
C1145 C1149 1.495 . S
C1146 C1145 1.392 . S
C1146 C1147 1.385 . S
C1146 C1148 1.478 . S
C1147 H1141 0.930 . S
C1147 C1143 1.400 1_565 S
C1147 C1146 1.385 . S
C1148 C1146 1.478 . S
C1148 C1150 1.381 . S
C1148 C1154 1.383 1_565 S
C1149 C1145 1.495 . S
C1149 H1155 0.959 . S
C1149 H1156 0.961 1_565 S
C1149 H1157 0.960 . S
C1150 C1148 1.381 . S
C1150 C1151 1.394 . S
C1150 H1158 0.930 . S
C1151 C1150 1.394 . S
C1151 C1152 1.383 . S
C1151 H1159 0.929 . S
C1152 C1151 1.383 . S
C1152 C1153 1.377 1_565 S
C1153 H1137 0.930 . S
C1153 C1152 1.377 1_545 S
C1153 C1154 1.379 . S
C1154 H1138 0.931 . S
C1154 C1148 1.383 1_545 S
C1154 C1153 1.379 . S
H1155 C1149 0.959 . S
H1156 C1149 0.961 1_545 S
H1157 C1149 0.960 . S
H1158 C1150 0.930 . S
H1159 C1151 0.929 . S
H1160 C1168 0.929 . S
H1161 C1170 0.930 . S
H1162 C1172 0.930 . S
H1163 C1175 0.929 . S
H1164 C1178 0.930 . S
H1165 C1180 0.960 . S
H1166 C1180 0.960 . S
H1167 C1180 0.960 . S
C1168 H1160 0.929 . S
C1168 C1169 1.377 . S
C1168 C1170 1.384 . S
C1169 C1168 1.377 . S
C1169 C1175 1.390 1_545 S
C1170 H1161 0.930 . S
C1170 C1168 1.384 . S
C1170 C1171 1.372 . S
C1171 C1170 1.372 . S
C1171 C1172 1.400 1_545 S
C1171 C1176 1.490 . S
C1172 H1162 0.930 . S
C1172 C1171 1.400 1_565 S
C1172 C1175 1.386 . S
H1173 C1189 0.930 . S
H1174 C1190 0.931 . S
C1175 H1163 0.929 . S
C1175 C1169 1.390 1_565 S
C1175 C1172 1.386 . S
C1176 C1171 1.490 . S
C1176 C1178 1.395 . S
C1176 C1179 1.403 1_545 S
H1177 C1183 0.930 . S
C1178 H1164 0.930 . S
C1178 C1176 1.395 . S
C1178 C1181 1.403 . S
C1179 C1176 1.403 1_565 S
C1179 C1180 1.524 . S
C1179 C1183 1.400 . S
C1180 H1165 0.960 . S
C1180 H1166 0.960 . S
C1180 H1167 0.960 . S
C1180 C1179 1.524 . S
C1181 C1178 1.403 . S
C1181 C1182 1.392 . S
C1181 C1185 1.495 . S
C1182 C1181 1.392 . S
C1182 C1183 1.385 1_545 S
C1182 C1184 1.478 1_545 S
C1183 H1177 0.930 . S
C1183 C1179 1.400 . S
C1183 C1182 1.385 1_565 S
C1184 C1182 1.478 1_565 S
C1184 C1186 1.381 1_565 S
C1184 C1190 1.383 . S
C1185 C1181 1.495 . S
C1185 H1191 0.959 . S
C1185 H1192 0.961 . S
C1185 H1193 0.960 . S
C1186 C1184 1.381 1_545 S
C1186 C1187 1.394 . S
C1186 H1194 0.930 . S
C1187 C1186 1.394 . S
C1187 C1188 1.383 1_545 S
C1187 H1195 0.929 . S
C1188 C1187 1.383 1_565 S
C1188 C1189 1.377 . S
C1189 H1173 0.930 . S
C1189 C1188 1.377 . S
C1189 C1190 1.379 . S
C1190 H1174 0.931 . S
C1190 C1184 1.383 . S
C1190 C1189 1.379 . S
H1191 C1185 0.959 . S
H1192 C1185 0.961 . S
H1193 C1185 0.960 . S
H1194 C1186 0.930 . S
H1195 C1187 0.929 . S
H1196 C1204 0.929 . S
H1197 C1206 0.930 . S
H1198 C1208 0.930 . S
H1199 C1211 0.929 . S
H1200 C1214 0.930 . S
H1201 C1216 0.960 . S
H1202 C1216 0.960 . S
H1203 C1216 0.960 . S
C1204 H1196 0.929 . S
C1204 C1205 1.377 . S
C1204 C1206 1.384 . S
C1205 C1204 1.377 . S
C1205 C1211 1.390 . S
C1206 H1197 0.930 . S
C1206 C1204 1.384 . S
C1206 C1207 1.372 . S
C1207 C1206 1.372 . S
C1207 C1208 1.400 . S
C1207 C1212 1.490 . S
C1208 H1198 0.930 . S
C1208 C1207 1.400 . S
C1208 C1211 1.386 . S
H1209 C1225 0.930 . S
H1210 C1226 0.931 . S
C1211 H1199 0.929 . S
C1211 C1205 1.390 . S
C1211 C1208 1.386 . S
C1212 C1207 1.490 . S
C1212 C1214 1.395 1_565 S
C1212 C1215 1.403 . S
H1213 C1219 0.930 . S
C1214 H1200 0.930 . S
C1214 C1212 1.395 1_545 S
C1214 C1217 1.403 . S
C1215 C1212 1.403 . S
C1215 C1216 1.524 . S
C1215 C1219 1.400 . S
C1216 H1201 0.960 . S
C1216 H1202 0.960 . S
C1216 H1203 0.960 . S
C1216 C1215 1.524 . S
C1217 C1214 1.403 . S
C1217 C1218 1.392 . S
C1217 C1221 1.495 . S
C1218 C1217 1.392 . S
C1218 C1219 1.385 1_545 S
C1218 C1220 1.478 . S
C1219 H1213 0.930 . S
C1219 C1215 1.400 . S
C1219 C1218 1.385 1_565 S
C1220 C1218 1.478 . S
C1220 C1222 1.381 . S
C1220 C1226 1.383 . S
C1221 C1217 1.495 . S
C1221 H1227 0.959 . S
C1221 H1228 0.961 . S
C1221 H1229 0.960 . S
C1222 C1220 1.381 . S
C1222 C1223 1.394 . S
C1222 H1230 0.930 . S
C1223 C1222 1.394 . S
C1223 C1224 1.383 . S
C1223 H1231 0.929 . S
C1224 C1223 1.383 . S
C1224 C1225 1.377 . S
C1225 H1209 0.930 . S
C1225 C1224 1.377 . S
C1225 C1226 1.379 . S
C1226 H1210 0.931 . S
C1226 C1220 1.383 . S
C1226 C1225 1.379 . S
H1227 C1221 0.959 . S
H1228 C1221 0.961 . S
H1229 C1221 0.960 . S
H1230 C1222 0.930 . S
H1231 C1223 0.929 . S
H1232 C1240 0.929 . S
H1233 C1242 0.930 . S
H1234 C1244 0.930 . S
H1235 C1247 0.929 . S
H1236 C1250 0.930 . S
H1237 C1252 0.960 . S
H1238 C1252 0.960 . S
H1239 C1252 0.960 . S
C1240 H1232 0.929 . S
C1240 C1241 1.377 . S
C1240 C1242 1.384 . S
C1241 C1240 1.377 . S
C1241 C1247 1.390 . S
C1242 H1233 0.930 . S
C1242 C1240 1.384 . S
C1242 C1243 1.372 . S
C1243 C1242 1.372 . S
C1243 C1244 1.400 . S
C1243 C1248 1.490 . S
C1244 H1234 0.930 . S
C1244 C1243 1.400 . S
C1244 C1247 1.386 . S
H1245 C1261 0.930 . S
H1246 C1262 0.931 . S
C1247 H1235 0.929 . S
C1247 C1241 1.390 . S
C1247 C1244 1.386 . S
C1248 C1243 1.490 . S
C1248 C1250 1.395 . S
C1248 C1251 1.403 . S
H1249 C1255 0.930 . S
C1250 H1236 0.930 . S
C1250 C1248 1.395 . S
C1250 C1253 1.403 . S
C1251 C1248 1.403 . S
C1251 C1252 1.524 . S
C1251 C1255 1.400 . S
C1252 H1237 0.960 . S
C1252 H1238 0.960 . S
C1252 H1239 0.960 . S
C1252 C1251 1.524 . S
C1253 C1250 1.403 . S
C1253 C1254 1.392 . S
C1253 C1257 1.495 . S
C1254 C1253 1.392 . S
C1254 C1255 1.385 . S
C1254 C1256 1.478 . S
C1255 H1249 0.930 . S
C1255 C1251 1.400 . S
C1255 C1254 1.385 . S
C1256 C1254 1.478 . S
C1256 C1258 1.381 . S
C1256 C1262 1.383 . S
C1257 C1253 1.495 . S
C1257 H1263 0.959 . S
C1257 H1264 0.961 . S
C1257 H1265 0.960 . S
C1258 C1256 1.381 . S
C1258 C1259 1.394 . S
C1258 H1266 0.930 . S
C1259 C1258 1.394 . S
C1259 C1260 1.383 . S
C1259 H1267 0.929 . S
C1260 C1259 1.383 . S
C1260 C1261 1.377 . S
C1261 H1245 0.930 . S
C1261 C1260 1.377 . S
C1261 C1262 1.379 . S
C1262 H1246 0.931 . S
C1262 C1256 1.383 . S
C1262 C1261 1.379 . S
H1263 C1257 0.959 . S
H1264 C1257 0.961 . S
H1265 C1257 0.960 . S
H1266 C1258 0.930 . S
H1267 C1259 0.929 . S
H1268 C1276 0.929 . S
H1269 C1278 0.930 . S
H1270 C1280 0.930 . S
H1271 C1283 0.929 . S
H1272 C1286 0.930 . S
H1273 C1288 0.960 . S
H1274 C1288 0.960 . S
H1275 C1288 0.960 . S
C1276 H1268 0.929 . S
C1276 C1277 1.377 . S
C1276 C1278 1.384 . S
C1277 C1276 1.377 . S
C1277 C1283 1.390 . S
C1278 H1269 0.930 . S
C1278 C1276 1.384 . S
C1278 C1279 1.372 . S
C1279 C1278 1.372 . S
C1279 C1280 1.400 . S
C1279 C1284 1.490 . S
C1280 H1270 0.930 . S
C1280 C1279 1.400 . S
C1280 C1283 1.386 . S
H1281 C1297 0.930 . S
H1282 C1298 0.931 . S
C1283 H1271 0.929 . S
C1283 C1277 1.390 . S
C1283 C1280 1.386 . S
C1284 C1279 1.490 . S
C1284 C1286 1.395 . S
C1284 C1287 1.403 . S
H1285 C1291 0.930 . S
C1286 H1272 0.930 . S
C1286 C1284 1.395 . S
C1286 C1289 1.403 . S
C1287 C1284 1.403 . S
C1287 C1288 1.524 . S
C1287 C1291 1.400 . S
C1288 H1273 0.960 . S
C1288 H1274 0.960 . S
C1288 H1275 0.960 . S
C1288 C1287 1.524 . S
C1289 C1286 1.403 . S
C1289 C1290 1.392 . S
C1289 C1293 1.495 . S
C1290 C1289 1.392 . S
C1290 C1291 1.385 . S
C1290 C1292 1.478 . S
C1291 H1285 0.930 . S
C1291 C1287 1.400 . S
C1291 C1290 1.385 . S
C1292 C1290 1.478 . S
C1292 C1294 1.381 . S
C1292 C1298 1.383 . S
C1293 C1289 1.495 . S
C1293 H1299 0.959 . S
C1293 H1300 0.961 . S
C1293 H1301 0.960 . S
C1294 C1292 1.381 . S
C1294 C1295 1.394 . S
C1294 H1302 0.930 . S
C1295 C1294 1.394 . S
C1295 C1296 1.383 . S
C1295 H1303 0.929 . S
C1296 C1295 1.383 . S
C1296 C1297 1.377 . S
C1297 H1281 0.930 . S
C1297 C1296 1.377 . S
C1297 C1298 1.379 . S
C1298 H1282 0.931 . S
C1298 C1292 1.383 . S
C1298 C1297 1.379 . S
H1299 C1293 0.959 . S
H1300 C1293 0.961 . S
H1301 C1293 0.960 . S
H1302 C1294 0.930 . S
H1303 C1295 0.929 . S
H1304 C1312 0.929 . S
H1305 C1314 0.930 . S
H1306 C1316 0.930 . S
H1307 C1319 0.929 . S
H1308 C1322 0.930 . S
H1309 C1324 0.960 . S
H1310 C1324 0.960 . S
H1311 C1324 0.960 . S
C1312 H1304 0.929 . S
C1312 C1313 1.377 . S
C1312 C1314 1.384 . S
C1313 C1312 1.377 . S
C1313 C1319 1.390 . S
C1314 H1305 0.930 . S
C1314 C1312 1.384 . S
C1314 C1315 1.372 . S
C1315 C1314 1.372 . S
C1315 C1316 1.400 . S
C1315 C1320 1.490 . S
C1316 H1306 0.930 . S
C1316 C1315 1.400 . S
C1316 C1319 1.386 . S
H1317 C1333 0.930 . S
H1318 C1334 0.931 . S
C1319 H1307 0.929 . S
C1319 C1313 1.390 . S
C1319 C1316 1.386 . S
C1320 C1315 1.490 . S
C1320 C1322 1.395 . S
C1320 C1323 1.403 . S
H1321 C1327 0.930 . S
C1322 H1308 0.930 . S
C1322 C1320 1.395 . S
C1322 C1325 1.403 . S
C1323 C1320 1.403 . S
C1323 C1324 1.524 . S
C1323 C1327 1.400 . S
C1324 H1309 0.960 . S
C1324 H1310 0.960 . S
C1324 H1311 0.960 . S
C1324 C1323 1.524 . S
C1325 C1322 1.403 . S
C1325 C1326 1.392 . S
C1325 C1329 1.495 . S
C1326 C1325 1.392 . S
C1326 C1327 1.385 . S
C1326 C1328 1.478 . S
C1327 H1321 0.930 . S
C1327 C1323 1.400 . S
C1327 C1326 1.385 . S
C1328 C1326 1.478 . S
C1328 C1330 1.381 . S
C1328 C1334 1.383 . S
C1329 C1325 1.495 . S
C1329 H1335 0.959 . S
C1329 H1336 0.961 . S
C1329 H1337 0.960 . S
C1330 C1328 1.381 . S
C1330 C1331 1.394 . S
C1330 H1338 0.930 . S
C1331 C1330 1.394 . S
C1331 C1332 1.383 . S
C1331 H1339 0.929 . S
C1332 C1331 1.383 . S
C1332 C1333 1.377 . S
C1333 H1317 0.930 . S
C1333 C1332 1.377 . S
C1333 C1334 1.379 . S
C1334 H1318 0.931 . S
C1334 C1328 1.383 . S
C1334 C1333 1.379 . S
H1335 C1329 0.959 . S
H1336 C1329 0.961 . S
H1337 C1329 0.960 . S
H1338 C1330 0.930 . S
H1339 C1331 0.929 . S
H1340 C1348 0.929 . S
H1341 C1350 0.930 . S
H1342 C1352 0.930 . S
H1343 C1355 0.929 . S
H1344 C1358 0.930 . S
H1345 C1360 0.960 . S
H1346 C1360 0.960 . S
H1347 C1360 0.960 . S
C1348 H1340 0.929 . S
C1348 C1349 1.377 . S
C1348 C1350 1.384 . S
C1349 C1348 1.377 . S
C1349 C1355 1.390 . S
C1350 H1341 0.930 . S
C1350 C1348 1.384 . S
C1350 C1351 1.372 . S
C1351 C1350 1.372 . S
C1351 C1352 1.400 . S
C1351 C1356 1.490 . S
C1352 H1342 0.930 . S
C1352 C1351 1.400 . S
C1352 C1355 1.386 . S
H1353 C1369 0.930 . S
H1354 C1370 0.931 . S
C1355 H1343 0.929 . S
C1355 C1349 1.390 . S
C1355 C1352 1.386 . S
C1356 C1351 1.490 . S
C1356 C1358 1.395 . S
C1356 C1359 1.403 . S
H1357 C1363 0.930 . S
C1358 H1344 0.930 . S
C1358 C1356 1.395 . S
C1358 C1361 1.403 . S
C1359 C1356 1.403 . S
C1359 C1360 1.524 . S
C1359 C1363 1.400 . S
C1360 H1345 0.960 . S
C1360 H1346 0.960 . S
C1360 H1347 0.960 . S
C1360 C1359 1.524 . S
C1361 C1358 1.403 . S
C1361 C1362 1.392 . S
C1361 C1365 1.495 . S
C1362 C1361 1.392 . S
C1362 C1363 1.385 . S
C1362 C1364 1.478 . S
C1363 H1357 0.930 . S
C1363 C1359 1.400 . S
C1363 C1362 1.385 . S
C1364 C1362 1.478 . S
C1364 C1366 1.381 . S
C1364 C1370 1.383 . S
C1365 C1361 1.495 . S
C1365 H1371 0.959 . S
C1365 H1372 0.961 . S
C1365 H1373 0.960 . S
C1366 C1364 1.381 . S
C1366 C1367 1.394 . S
C1366 H1374 0.930 . S
C1367 C1366 1.394 . S
C1367 C1368 1.383 . S
C1367 H1375 0.929 . S
C1368 C1367 1.383 . S
C1368 C1369 1.377 . S
C1369 H1353 0.930 . S
C1369 C1368 1.377 . S
C1369 C1370 1.379 . S
C1370 H1354 0.931 . S
C1370 C1364 1.383 . S
C1370 C1369 1.379 . S
H1371 C1365 0.959 . S
H1372 C1365 0.961 . S
H1373 C1365 0.960 . S
H1374 C1366 0.930 . S
H1375 C1367 0.929 . S
C233 C9 1.109 . S
C252 C79 1.090 . S
C269 C65 1.107 . S
C288 C23 1.069 . S
C305 C37 1.108 . S
C324 C107 1.075 . S
C341 C93 1.104 . S
C360 C51 1.068 . S
C377 C191 1.109 . S
C396 C121 1.081 . S
C413 C177 1.105 . S
C432 C135 1.117 . S
C449 C219 1.102 . S
C468 C149 1.070 . S
C485 C163 1.101 . S
C504 C205 1.075 . S
C521 C19 1.505 . S
C540 C5 1.498 . S
C557 C33 1.505 . S
C576 C47 1.498 . S
C593 C61 1.504 . S
C612 C75 1.499 . S
C629 C89 1.504 . S
C648 C103 1.498 . S
C665 C117 1.505 . S
C684 C131 1.505 . S
C701 C159 1.505 . S
C720 C145 1.504 . S
C737 C187 1.504 . S
C756 C173 1.499 . S
C773 C201 1.505 . S
C792 C215 1.505 . S
C809 C137 1.523 . S
C828 C11 1.521 . S
C845 C25 1.521 . S
C864 C123 1.527 . S
C881 C165 1.524 . S
C900 C39 1.511 . S
C917 C53 1.523 . S
C936 C151 1.518 . S
C953 C67 1.523 . S
C972 C193 1.522 . S
C989 C179 1.521 . S
C1008 C81 1.516 . S
C1025 C95 1.522 . S
C1044 C221 1.517 . S
C1061 C207 1.523 . S
C1080 C109 1.519 . S
C1097 C0 1.133 . S
C1116 C28 1.133 . S
C1133 C42 1.128 . S
C1152 C14 1.148 . S
C1169 C84 1.124 . S
C1188 C56 1.144 . S
C1205 C98 1.128 . S
C1224 C70 1.127 . S
C1241 C140 1.123 . S
C1260 C112 1.107 . S
C1277 C126 1.123 . S
C1296 C154 1.105 . S
C1313 C196 1.131 . S
C1332 C168 1.112 . S
C1349 C182 1.129 . S
C1368 C210 1.119 . S
