# Generated by pormake.
# Topology usf, (4)-cn, num edge types: 1
# Building blocks:
#     Node 0, Type 0, BuildingBlock: KOZSID_clean_sbu_0, # of connection points: 4
#     Node 1, Type 0, BuildingBlock: KOZSID_clean_sbu_0, # of connection points: 4
#     Node 2, Type 0, BuildingBlock: KOZSID_clean_sbu_0, # of connection points: 4
#     Node 3, Type 0, BuildingBlock: KOZSID_clean_sbu_0, # of connection points: 4
#     Node 4, Type 0, BuildingBlock: KOZSID_clean_sbu_0, # of connection points: 4
#     Node 5, Type 0, BuildingBlock: KOZSID_clean_sbu_0, # of connection points: 4
#     Node 6, Type 0, BuildingBlock: KOZSID_clean_sbu_0, # of connection points: 4
#     Node 7, Type 0, BuildingBlock: KOZSID_clean_sbu_0, # of connection points: 4
#     Node 8, Type 0, BuildingBlock: KOZSID_clean_sbu_0, # of connection points: 4
#     Node 9, Type 0, BuildingBlock: KOZSID_clean_sbu_0, # of connection points: 4
#     Node 10, Type 0, BuildingBlock: KOZSID_clean_sbu_0, # of connection points: 4
#     Node 11, Type 0, BuildingBlock: KOZSID_clean_sbu_0, # of connection points: 4
#     Node 12, Type 0, BuildingBlock: KOZSID_clean_sbu_0, # of connection points: 4
#     Node 13, Type 0, BuildingBlock: KOZSID_clean_sbu_0, # of connection points: 4
#     Node 14, Type 0, BuildingBlock: KOZSID_clean_sbu_0, # of connection points: 4
#     Node 15, Type 0, BuildingBlock: KOZSID_clean_sbu_0, # of connection points: 4
#     Node 16, Type 0, BuildingBlock: KOZSID_clean_sbu_0, # of connection points: 4
#     Node 17, Type 0, BuildingBlock: KOZSID_clean_sbu_0, # of connection points: 4
#     Edge 18, Type (0, 0), BuildingBlock: EZIPEK_clean_linker_0, # of connection points: 2
#     Edge 19, Type (0, 0), BuildingBlock: EZIPEK_clean_linker_0, # of connection points: 2
#     Edge 20, Type (0, 0), BuildingBlock: EZIPEK_clean_linker_0, # of connection points: 2
#     Edge 21, Type (0, 0), BuildingBlock: EZIPEK_clean_linker_0, # of connection points: 2
#     Edge 22, Type (0, 0), BuildingBlock: EZIPEK_clean_linker_0, # of connection points: 2
#     Edge 23, Type (0, 0), BuildingBlock: EZIPEK_clean_linker_0, # of connection points: 2
#     Edge 24, Type (0, 0), BuildingBlock: EZIPEK_clean_linker_0, # of connection points: 2
#     Edge 25, Type (0, 0), BuildingBlock: EZIPEK_clean_linker_0, # of connection points: 2
#     Edge 26, Type (0, 0), BuildingBlock: EZIPEK_clean_linker_0, # of connection points: 2
#     Edge 27, Type (0, 0), BuildingBlock: EZIPEK_clean_linker_0, # of connection points: 2
#     Edge 28, Type (0, 0), BuildingBlock: EZIPEK_clean_linker_0, # of connection points: 2
#     Edge 29, Type (0, 0), BuildingBlock: EZIPEK_clean_linker_0, # of connection points: 2
#     Edge 30, Type (0, 0), BuildingBlock: EZIPEK_clean_linker_0, # of connection points: 2
#     Edge 31, Type (0, 0), BuildingBlock: EZIPEK_clean_linker_0, # of connection points: 2
#     Edge 32, Type (0, 0), BuildingBlock: EZIPEK_clean_linker_0, # of connection points: 2
#     Edge 33, Type (0, 0), BuildingBlock: EZIPEK_clean_linker_0, # of connection points: 2
#     Edge 34, Type (0, 0), BuildingBlock: EZIPEK_clean_linker_0, # of connection points: 2
#     Edge 35, Type (0, 0), BuildingBlock: EZIPEK_clean_linker_0, # of connection points: 2
#     Edge 36, Type (0, 0), BuildingBlock: EZIPEK_clean_linker_0, # of connection points: 2
#     Edge 37, Type (0, 0), BuildingBlock: EZIPEK_clean_linker_0, # of connection points: 2
#     Edge 38, Type (0, 0), BuildingBlock: EZIPEK_clean_linker_0, # of connection points: 2
#     Edge 39, Type (0, 0), BuildingBlock: EZIPEK_clean_linker_0, # of connection points: 2
#     Edge 40, Type (0, 0), BuildingBlock: EZIPEK_clean_linker_0, # of connection points: 2
#     Edge 41, Type (0, 0), BuildingBlock: EZIPEK_clean_linker_0, # of connection points: 2
#     Edge 42, Type (0, 0), BuildingBlock: EZIPEK_clean_linker_0, # of connection points: 2
#     Edge 43, Type (0, 0), BuildingBlock: EZIPEK_clean_linker_0, # of connection points: 2
#     Edge 44, Type (0, 0), BuildingBlock: EZIPEK_clean_linker_0, # of connection points: 2
#     Edge 45, Type (0, 0), BuildingBlock: EZIPEK_clean_linker_0, # of connection points: 2
#     Edge 46, Type (0, 0), BuildingBlock: EZIPEK_clean_linker_0, # of connection points: 2
#     Edge 47, Type (0, 0), BuildingBlock: EZIPEK_clean_linker_0, # of connection points: 2
#     Edge 48, Type (0, 0), BuildingBlock: EZIPEK_clean_linker_0, # of connection points: 2
#     Edge 49, Type (0, 0), BuildingBlock: EZIPEK_clean_linker_0, # of connection points: 2
#     Edge 50, Type (0, 0), BuildingBlock: EZIPEK_clean_linker_0, # of connection points: 2
#     Edge 51, Type (0, 0), BuildingBlock: EZIPEK_clean_linker_0, # of connection points: 2
#     Edge 52, Type (0, 0), BuildingBlock: EZIPEK_clean_linker_0, # of connection points: 2
#     Edge 53, Type (0, 0), BuildingBlock: EZIPEK_clean_linker_0, # of connection points: 2
# Relax obj value: 0.022
# Max RMSD: 0.063
# Mean RMSD: 0.031
data_MOF--net-usf--node1-KOZSID_clean_sbu_0--edge1-EZIPEK_clean_linker_0
_symmetry_space_group_name_H-M    P1
_symmetry_Int_Tables_number       1
_symmetry_cell_setting            triclinic
loop_
_symmetry_equiv_pos_as_xyz
'x, y, z'
_cell_length_a     47.870262
_cell_length_b     48.000676
_cell_length_c     26.453604
_cell_angle_alpha  90.09802
_cell_angle_beta   89.416732
_cell_angle_gamma 115.38265
loop_
_atom_site_label
_atom_site_type_symbol
_atom_site_fract_x
_atom_site_fract_y
_atom_site_fract_z
_atom_type_partial_charge
C0 C 1.0004 0.47898 0.12686 0.0
C1 C 0.976 0.4541 0.14895 0.0
C2 C 0.95745 0.43741 0.11059 0.0
C3 C 0.97128 0.45293 0.06713 0.0
N4 N 0.99766 0.47854 0.07519 0.0
Co5 Co 0.02341 0.50816 0.02075 0.0
N6 N 0.99417 0.48512 0.96485 0.0
C7 C 0.96702 0.46003 0.97142 0.0
C8 C 0.95146 0.44873 0.9273 0.0
C9 C 0.9699 0.4675 0.89004 0.0
C10 C 0.99599 0.48918 0.91341 0.0
N11 N 0.04963 0.53718 0.96608 0.0
C12 C 0.04751 0.53569 0.9143 0.0
C13 C 0.07286 0.55934 0.89177 0.0
C14 C 0.09149 0.57622 0.92995 0.0
C15 C 0.07679 0.56197 0.97376 0.0
N16 N 0.05215 0.53166 0.07703 0.0
C17 C 0.0783 0.55793 0.07089 0.0
C18 C 0.0933 0.56975 0.11525 0.0
C19 C 0.07548 0.55016 0.15224 0.0
C20 C 0.05033 0.52737 0.12851 0.0
N21 N 0.047 0.4828 1.00922 0.0
C22 C 0.0814 0.45018 0.97765 0.0
C23 C 0.09616 0.4804 0.99517 0.0
C24 C 0.07873 0.49608 1.01081 0.0
C25 C 0.04907 0.43592 0.97856 0.0
C26 C 0.03243 0.45243 0.99484 0.0
N27 N 1.00002 0.53383 0.03191 0.0
C28 C 1.0 0.58379 0.0471 0.0
C29 C 0.96847 0.57012 0.05901 0.0
C30 C 0.95268 0.53809 0.05506 0.0
C31 C 0.96872 0.52054 0.04137 0.0
C32 C 0.01512 0.56544 0.03339 0.0
H33 H 0.95539 0.49619 0.03981 0.0
H34 H 0.0392 0.57737 0.02523 0.0
H35 H 0.09159 0.5192 0.02295 0.0
H36 H 0.00781 0.44036 0.99451 0.0
C37 C 0.9583 0.44604 0.01895 0.0
C38 C 0.02516 0.50259 0.15711 0.0
C39 C 0.02231 0.51222 0.88449 0.0
C40 C 0.08846 0.57041 0.02262 0.0
H41 H 0.97165 0.44883 0.1888 0.0
H42 H 0.9358 0.41698 0.11414 0.0
H43 H 0.92973 0.4286 0.9226 0.0
H44 H 0.96506 0.46501 0.84999 0.0
H45 H 0.07766 0.56371 0.85178 0.0
H46 H 0.11356 0.59612 0.92615 0.0
H47 H 0.11468 0.59025 0.12015 0.0
H48 H 0.08031 0.55255 0.19229 0.0
H49 H 0.12118 0.49214 0.9958 0.0
H50 H 0.03671 0.41229 0.96606 0.0
H51 H 0.01311 0.60858 0.04957 0.0
H52 H 0.9282 0.52654 0.06393 0.0
C53 C 0.58317 0.52039 0.90817 0.0
C54 C 0.60668 0.51545 0.88475 0.0
C55 C 0.6263 0.51545 0.92201 0.0
C56 C 0.61365 0.52008 0.96622 0.0
N57 N 0.58705 0.52285 0.95952 0.0
Co58 Co 0.56145 0.52901 0.01548 0.0
N59 N 0.59318 0.53501 0.06888 0.0
C60 C 0.6215 0.53632 0.05979 0.0
C61 C 0.64027 0.54463 0.1012 0.0
C62 C 0.62265 0.54827 0.13937 0.0
C63 C 0.59353 0.54089 0.11966 0.0
N64 N 0.53496 0.53297 0.07218 0.0
C65 C 0.53759 0.53145 0.12373 0.0
C66 C 0.5097 0.52571 0.14775 0.0
C67 C 0.48952 0.52503 0.11118 0.0
C68 C 0.50558 0.52931 0.06654 0.0
N69 N 0.5308 0.52558 0.96125 0.0
C70 C 0.50374 0.52734 0.96938 0.0
C71 C 0.48863 0.52784 0.92589 0.0
C72 C 0.50745 0.52689 0.88738 0.0
C73 C 0.53296 0.52546 0.90952 0.0
N74 N 0.5412 0.48309 0.02836 0.0
C75 C 0.51015 0.42018 0.05937 0.0
C76 C 0.49473 0.43452 0.03299 0.0
C77 C 0.51047 0.46558 0.01793 0.0
C78 C 0.54172 0.43748 0.06804 0.0
C79 C 0.55674 0.46844 0.05189 0.0
N80 N 0.5814 0.57466 1.00268 0.0
C81 C 0.57741 0.62302 0.9897 0.0
C82 C 0.60815 0.63771 0.97261 0.0
C83 C 0.62546 0.62053 0.97252 0.0
C84 C 0.61183 0.58942 0.98752 0.0
C85 C 0.56466 0.5918 1.00488 0.0
H86 H 0.62626 0.57759 0.98557 0.0
H87 H 0.54103 0.5817 0.01746 0.0
H88 H 0.49695 0.47492 0.9986 0.0
H89 H 0.58092 0.48013 0.05963 0.0
C90 C 0.62872 0.52745 0.01279 0.0
C91 C 0.55842 0.52377 0.87956 0.0
C92 C 0.56612 0.53607 0.1517 0.0
C93 C 0.49307 0.52781 0.01856 0.0
H94 H 0.60985 0.51308 0.84466 0.0
H95 H 0.64806 0.51389 0.91711 0.0
H96 H 0.66374 0.54701 0.10371 0.0
H97 H 0.63007 0.55428 0.17795 0.0
H98 H 0.50412 0.52193 0.18758 0.0
H99 H 0.46553 0.52066 0.11638 0.0
H100 H 0.46666 0.52904 0.92255 0.0
H101 H 0.50292 0.5273 0.84747 0.0
H102 H 0.47036 0.42193 0.02484 0.0
H103 H 0.55476 0.4272 0.08766 0.0
H104 H 0.5632 0.63552 0.99092 0.0
H105 H 0.64938 0.63097 0.95996 0.0
C106 C 0.5101 0.05397 0.09459 0.0
C107 C 0.50313 0.07901 0.10066 0.0
C108 C 0.5097 0.09431 0.05555 0.0
C109 C 0.52015 0.07769 0.02481 0.0
N110 N 0.52039 0.05254 0.04736 0.0
Co111 Co 0.5325 0.02114 0.01637 0.0
N112 N 0.54509 0.04532 0.95202 0.0
C113 C 0.54532 0.07306 0.9423 0.0
C114 C 0.55709 0.08475 0.89559 0.0
C115 C 0.56463 0.06305 0.87401 0.0
C116 C 0.55674 0.03923 0.90893 0.0
N117 N 0.54352 0.98918 0.98444 0.0
C118 C 0.55245 0.98718 0.93637 0.0
C119 C 0.55574 0.96019 0.9283 0.0
C120 C 0.54858 0.94446 0.97307 0.0
C121 C 0.54116 0.96261 1.00555 0.0
N122 N 0.52111 0.99771 0.08168 0.0
C123 C 0.52276 0.97093 0.09253 0.0
C124 C 0.51519 0.9615 0.14167 0.0
C125 C 0.50881 0.98385 0.16376 0.0
C126 C 0.51271 0.0056 0.12651 0.0
N127 N 0.48887 0.9979 0.99154 0.0
C128 C 0.42659 0.96483 0.95914 0.0
C129 C 0.44135 0.95044 0.98698 0.0
C130 C 0.47211 0.96713 1.00243 0.0
C131 C 0.44373 0.99605 0.94709 0.0
C132 C 0.47452 0.01201 0.96353 0.0
N133 N 0.57606 0.04413 0.04126 0.0
C134 C 0.62322 0.04403 0.07482 0.0
C135 C 0.6383 0.07623 0.07434 0.0
C136 C 0.62147 0.09212 0.05751 0.0
C137 C 0.59074 0.07581 0.04116 0.0
C138 C 0.59246 0.02864 0.05859 0.0
H139 H 0.57921 0.08929 0.02873 0.0
H140 H 0.58247 1.0041 0.0603 0.0
H141 H 0.48177 0.95451 0.02332 0.0
H142 H 0.4863 0.03578 0.95312 0.0
C143 C 0.53269 0.0867 0.97657 0.0
C144 C 0.5096 0.03404 0.136 0.0
C145 C 0.55712 0.00982 0.89693 0.0
C146 C 0.53183 0.95539 0.05589 0.0
H147 H 0.49517 0.08601 0.13473 0.0
H148 H 0.50815 0.11563 0.0468 0.0
H149 H 0.55918 0.1061 0.87874 0.0
H150 H 0.57379 0.06402 0.83613 0.0
H151 H 0.56241 0.95264 0.89354 0.0
H152 H 0.54845 0.92227 0.98086 0.0
H153 H 0.51489 0.9411 0.15952 0.0
H154 H 0.5025 0.98432 0.20304 0.0
H155 H 0.42911 0.92628 0.99696 0.0
H156 H 0.43331 0.00816 0.92534 0.0
H157 H 0.6352 0.0307 0.08768 0.0
H158 H 0.63209 0.11709 0.0567 0.0
C159 C 0.60357 0.02803 0.4852 0.0
C160 C 0.63445 0.04738 0.4759 0.0
C161 C 0.63745 0.07694 0.48047 0.0
C162 C 0.60839 0.07405 0.49254 0.0
N163 N 0.5872 0.04453 0.49644 0.0
Co164 Co 0.54238 0.03073 0.51297 0.0
N165 N 0.54888 0.0728 0.53607 0.0
C166 C 0.57442 0.09907 0.527 0.0
C167 C 0.5724 0.12483 0.54567 0.0
C168 C 0.54361 0.11432 0.56739 0.0
C169 C 0.5296 0.08258 0.56076 0.0
N170 N 0.49755 0.01696 0.52952 0.0
C171 C 0.48275 0.03114 0.55601 0.0
C172 C 0.45117 0.01268 0.55865 0.0
C173 C 0.44589 0.98645 0.532 0.0
C174 C 0.47444 0.99018 0.51486 0.0
N175 N 0.53582 0.98867 0.48966 0.0
C176 C 0.50828 0.96546 0.47848 0.0
C177 C 0.51055 0.93937 0.46198 0.0
C178 C 0.54151 0.94664 0.46208 0.0
C179 C 0.55648 0.97685 0.47878 0.0
N180 N 0.54932 0.02027 0.58118 0.0
C181 C 0.55503 0.00711 0.68168 0.0
C182 C 0.53347 0.98472 0.6509 0.0
C183 C 0.53062 0.99198 0.60094 0.0
C184 C 0.57515 0.0354 0.66065 0.0
C185 C 0.57217 0.04137 0.60997 0.0
N186 N 0.53526 0.04098 0.44442 0.0
C187 C 0.53983 0.03509 0.35522 0.0
C188 C 0.52212 0.05117 0.34592 0.0
C189 C 0.51195 0.06319 0.38644 0.0
C190 C 0.51869 0.05764 0.43562 0.0
C191 C 0.54629 0.03051 0.40458 0.0
H192 H 0.51037 0.06661 0.46634 0.0
H193 H 0.55973 0.01796 0.41047 0.0
H194 H 0.51253 0.97501 0.57902 0.0
H195 H 0.58764 0.06344 0.59467 0.0
C196 C 0.60088 0.0982 0.50585 0.0
C197 C 0.59035 0.99441 0.47806 0.0
C198 C 0.49695 0.06332 0.57373 0.0
C199 C 0.4808 0.96777 0.49005 0.0
H200 H 0.65277 0.04082 0.4658 0.0
H201 H 0.65846 0.09801 0.47639 0.0
H202 H 0.58993 0.14841 0.5443 0.0
H203 H 0.5338 0.12849 0.5851 0.0
H204 H 0.43369 0.01807 0.57667 0.0
H205 H 0.42389 0.96679 0.52647 0.0
H206 H 0.49188 0.91749 0.45194 0.0
H207 H 0.55194 0.93165 0.45012 0.0
H208 H 0.51762 0.9626 0.66632 0.0
H209 H 0.5922 0.05311 0.68369 0.0
H210 H 0.54838 0.02585 0.32442 0.0
H211 H 0.49855 0.07619 0.38014 0.0
C212 C 0.04734 0.49541 0.41487 0.0
C213 C 0.0732 0.49436 0.39251 0.0
C214 C 0.09214 0.49436 0.4308 0.0
C215 C 0.07709 0.49563 0.47451 0.0
N216 N 0.04941 0.49601 0.46667 0.0
Co217 Co 0.02232 0.50153 0.52111 0.0
N218 N 0.05234 0.50589 0.57703 0.0
C219 C 0.07981 0.50461 0.57083 0.0
C220 C 0.09551 0.50751 0.61505 0.0
C221 C 0.0768 0.51042 0.65203 0.0
C222 C 0.05048 0.50894 0.62839 0.0
N223 N 0.99536 0.50738 0.57537 0.0
C224 C 0.99818 0.50972 0.62699 0.0
C225 C 0.97262 0.51146 0.64926 0.0
C226 C 0.95313 0.51018 0.61106 0.0
C227 C 0.9676 0.50759 0.56751 0.0
N228 N 0.99229 0.49709 0.46518 0.0
C229 C 0.96437 0.49735 0.47155 0.0
C230 C 0.94882 0.49476 0.42725 0.0
C231 C 0.96814 0.49324 0.39006 0.0
C232 C 0.99467 0.49524 0.41364 0.0
N233 N 1.00152 0.45563 0.53432 0.0
C234 C 0.97263 0.39257 0.56562 0.0
C235 C 0.95527 0.40904 0.5556 0.0
C236 C 0.96996 0.44013 0.54007 0.0
C237 C 1.00463 0.4079 0.55785 0.0
C238 C 0.01842 0.43898 0.54195 0.0
N239 N 0.04309 0.54727 0.50806 0.0
C240 C 0.04033 0.59479 0.48274 0.0
C241 C 0.0725 0.61029 0.47784 0.0
C242 C 0.08972 0.59402 0.49006 0.0
C243 C 0.07475 0.5629 0.50499 0.0
C244 C 0.02624 0.56368 0.49818 0.0
H245 H 0.08931 0.55184 0.51301 0.0
H246 H 1.00161 0.55321 0.50109 0.0
H247 H 0.95526 0.45125 0.5338 0.0
H248 H 0.04289 0.44918 0.53684 0.0
C249 C 0.08971 0.49971 0.523 0.0
C250 C 0.02184 0.49649 0.38486 0.0
C251 C 0.0241 0.50968 0.657 0.0
C252 C 0.95464 0.50267 0.51923 0.0
H253 H 0.07825 0.49433 0.35257 0.0
H254 H 0.11482 0.4947 0.42711 0.0
H255 H 0.11774 0.50706 0.61995 0.0
H256 H 0.08175 0.51282 0.69204 0.0
H257 H 0.96821 0.5129 0.68915 0.0
H258 H 0.93057 0.51014 0.61476 0.0
H259 H 0.92649 0.49497 0.4224 0.0
H260 H 0.96355 0.49167 0.34993 0.0
H261 H 0.93038 0.39809 0.5606 0.0
H262 H 0.01904 0.39602 0.56454 0.0
H263 H 0.02606 0.60659 0.47421 0.0
H264 H 0.11472 0.60516 0.48726 0.0
C265 C 0.55388 0.54956 0.62357 0.0
C266 C 0.54754 0.5722 0.6466 0.0
C267 C 0.5471 0.59158 0.60907 0.0
C268 C 0.55286 0.57966 0.5651 0.0
N269 N 0.55676 0.55371 0.57218 0.0
Co270 Co 0.56502 0.52933 0.51668 0.0
N271 N 0.5692 0.56036 0.4626 0.0
C272 C 0.56925 0.5881 0.47118 0.0
C273 C 0.57612 0.60647 0.42901 0.0
C274 C 0.58015 0.58919 0.39091 0.0
C275 C 0.57447 0.56064 0.41152 0.0
N276 N 0.57111 0.50397 0.46048 0.0
C277 C 0.56884 0.50603 0.40895 0.0
C278 C 0.56522 0.47872 0.38571 0.0
C279 C 0.56676 0.45966 0.42266 0.0
C280 C 0.57013 0.47565 0.4668 0.0
N281 N 0.56304 0.49931 0.57143 0.0
C282 C 0.5672 0.47352 0.56395 0.0
C283 C 0.56827 0.45882 0.60776 0.0
C284 C 0.56517 0.47658 0.64584 0.0
C285 C 0.56203 0.5011 0.62312 0.0
N286 N 0.5192 0.50688 0.50417 0.0
C287 C 0.45652 0.47385 0.47362 0.0
C288 C 0.47271 0.45873 0.49554 0.0
C289 C 0.50363 0.47547 0.51049 0.0
C290 C 0.47189 0.50597 0.46913 0.0
C291 C 0.50279 0.52191 0.4849 0.0
N292 N 0.61083 0.55168 0.52913 0.0
C293 C 0.66118 0.55134 0.54074 0.0
C294 C 0.67396 0.58167 0.55906 0.0
C295 C 0.65482 0.59693 0.56026 0.0
C296 C 0.62383 0.58182 0.54508 0.0
C297 C 0.62988 0.53695 0.52586 0.0
H298 H 0.61068 0.59493 0.54768 0.0
H299 H 0.62133 0.51366 0.51273 0.0
H300 H 0.51462 0.46232 0.52629 0.0
H301 H 0.51309 0.54642 0.48035 0.0
C302 C 0.55997 0.59484 0.51827 0.0
C303 C 0.55829 0.52548 0.65262 0.0
C304 C 0.57096 0.53358 0.38026 0.0
C305 C 0.5694 0.46357 0.51508 0.0
H306 H 0.54456 0.57499 0.68661 0.0
H307 H 0.54444 0.61273 0.61365 0.0
H308 H 0.57717 0.62938 0.42593 0.0
H309 H 0.58528 0.59641 0.35188 0.0
H310 H 0.56135 0.47275 0.34618 0.0
H311 H 0.56422 0.43627 0.41812 0.0
H312 H 0.57129 0.43783 0.61159 0.0
H313 H 0.56545 0.47209 0.68585 0.0
H314 H 0.46165 0.43392 0.50038 0.0
H315 H 0.46016 0.51874 0.45306 0.0
H316 H 0.67513 0.53858 0.53883 0.0
H317 H 0.66364 0.62044 0.57384 0.0
C318 C 0.69316 0.84135 0.46248 0.0
C319 C 0.66744 0.81805 0.48482 0.0
C320 C 0.64849 0.80181 0.4465 0.0
C321 C 0.66339 0.8161 0.40283 0.0
N322 N 0.69106 0.84017 0.41068 0.0
Co323 Co 0.71747 0.86947 0.35643 0.0
N324 N 0.68804 0.84739 0.30021 0.0
C325 C 0.66166 0.82134 0.30598 0.0
C326 C 0.64662 0.80996 0.26147 0.0
C327 C 0.66478 0.82953 0.22473 0.0
C328 C 0.6901 0.85187 0.24878 0.0
N329 N 0.74323 0.89967 0.30269 0.0
C330 C 0.74039 0.89982 0.2511 0.0
C331 C 0.76488 0.92481 0.22946 0.0
C332 C 0.78371 0.94084 0.26803 0.0
C333 C 0.76991 0.92488 0.31119 0.0
N334 N 0.74752 0.89084 0.41223 0.0
C335 C 0.7753 0.91509 0.4057 0.0
C336 C 0.79113 0.92561 0.44986 0.0
C337 C 0.77219 0.90722 0.48707 0.0
C338 C 0.74557 0.88656 0.46365 0.0
N339 N 0.73956 0.84292 0.34189 0.0
C340 C 0.76887 0.80542 0.30952 0.0
C341 C 0.78476 0.83754 0.30961 0.0
C342 C 0.77 0.85565 0.32643 0.0
C343 C 0.73835 0.79232 0.32747 0.0
C344 C 0.72424 0.81129 0.34317 0.0
N345 N 0.69523 0.89574 0.37104 0.0
C346 C 0.69526 0.94269 0.40567 0.0
C347 C 0.66296 0.92975 0.40602 0.0
C348 C 0.64713 0.90005 0.38668 0.0
C349 C 0.66354 0.88362 0.36945 0.0
C350 C 0.71082 0.92557 0.38761 0.0
H351 H 0.65 0.86092 0.35581 0.0
H352 H 0.73548 0.93678 0.38819 0.0
H353 H 0.78369 0.87995 0.32604 0.0
H354 H 0.70078 0.7998 0.35566 0.0
C355 C 0.65153 0.80843 0.35397 0.0
C356 C 0.71863 0.86431 0.49248 0.0
C357 C 0.71574 0.87634 0.22053 0.0
C358 C 0.78369 0.93008 0.35885 0.0
H359 H 0.66258 0.81357 0.52477 0.0
H360 H 0.62604 0.7824 0.45013 0.0
H361 H 0.62512 0.78964 0.25628 0.0
H362 H 0.66013 0.82735 0.18462 0.0
H363 H 0.76925 0.93041 0.18971 0.0
H364 H 0.8057 0.96088 0.26471 0.0
H365 H 0.81322 0.94527 0.45473 0.0
H366 H 0.77698 0.90944 0.52714 0.0
H367 H 0.80865 0.84867 0.29699 0.0
H368 H 0.72532 0.76749 0.32884 0.0
H369 H 0.70843 0.96593 0.41938 0.0
H370 H 0.6221 0.88939 0.38543 0.0
C371 C 0.22191 0.85564 0.46831 0.0
C372 C 0.25045 0.8611 0.48854 0.0
C373 C 0.26779 0.85697 0.45036 0.0
C374 C 0.24947 0.85024 0.40844 0.0
N375 N 0.22171 0.85036 0.41729 0.0
Co376 Co 0.19094 0.84692 0.36352 0.0
N377 N 0.21556 0.839 0.30763 0.0
C378 C 0.24169 0.83526 0.31419 0.0
C379 C 0.25384 0.83003 0.26991 0.0
C380 C 0.23444 0.83066 0.23276 0.0
C381 C 0.21153 0.83654 0.2563 0.0
N382 N 0.16095 0.84531 0.30929 0.0
C383 C 0.16271 0.8443 0.25762 0.0
C384 C 0.13811 0.84741 0.23523 0.0
C385 C 0.12034 0.85055 0.2735 0.0
C386 C 0.1351 0.84948 0.31707 0.0
N387 N 0.16542 0.85296 0.41996 0.0
C388 C 0.13724 0.85254 0.414 0.0
C389 C 0.12102 0.84897 0.45827 0.0
C390 C 0.13981 0.84685 0.49495 0.0
C391 C 0.16725 0.85044 0.47143 0.0
N392 N 0.21373 0.8926 0.35098 0.0
C393 C 0.24526 0.95586 0.32284 0.0
C394 C 0.21448 0.94334 0.34008 0.0
C395 C 0.19927 0.91188 0.35398 0.0
C396 C 0.26008 0.93643 0.32143 0.0
C397 C 0.24421 0.90539 0.33575 0.0
N398 N 0.16836 0.80125 0.37602 0.0
C399 C 0.1203 0.75519 0.38943 0.0
C400 C 0.13622 0.73833 0.40561 0.0
C401 C 0.16852 0.75318 0.40494 0.0
C402 C 0.18398 0.78429 0.39011 0.0
C403 C 0.13664 0.78622 0.37449 0.0
H404 H 0.20864 0.79429 0.39119 0.0
H405 H 0.12307 0.79774 0.3626 0.0
H406 H 0.17569 0.90345 0.36641 0.0
H407 H 0.25717 0.89215 0.33329 0.0
C408 C 0.25667 0.84174 0.361 0.0
C409 C 0.19483 0.85267 0.49987 0.0
C410 C 0.18724 0.84081 0.22779 0.0
C411 C 0.12523 0.85201 0.36594 0.0
H412 H 0.2577 0.86636 0.52734 0.0
H413 H 0.29079 0.8581 0.45313 0.0
H414 H 0.27513 0.82753 0.26491 0.0
H415 H 0.23735 0.82807 0.19266 0.0
H416 H 0.13362 0.84772 0.19528 0.0
H417 H 0.09934 0.85364 0.26995 0.0
H418 H 0.09762 0.84661 0.46305 0.0
H419 H 0.13359 0.8427 0.53452 0.0
H420 H 0.20212 0.95764 0.34216 0.0
H421 H 0.28393 0.94514 0.30878 0.0
H422 H 0.09526 0.74451 0.38873 0.0
H423 H 0.18183 0.74094 0.41672 0.0
C424 C 0.21132 0.37554 0.46422 0.0
C425 C 0.20877 0.40078 0.48544 0.0
C426 C 0.20923 0.41958 0.44635 0.0
C427 C 0.21214 0.40499 0.40334 0.0
N428 N 0.2132 0.37777 0.4124 0.0
Co429 Co 0.21999 0.35097 0.35925 0.0
N430 N 0.2232 0.3799 0.3018 0.0
C431 C 0.2213 0.40706 0.30676 0.0
C432 C 0.22305 0.42178 0.26162 0.0
C433 C 0.22577 0.4027 0.22541 0.0
C434 C 0.22536 0.37715 0.25036 0.0
N435 N 0.22687 0.32417 0.30618 0.0
C436 C 0.2282 0.32599 0.25433 0.0
C437 C 0.23088 0.30074 0.23334 0.0
C438 C 0.23121 0.28243 0.27257 0.0
C439 C 0.22855 0.29725 0.31542 0.0
N440 N 0.21654 0.32186 0.41651 0.0
C441 C 0.21838 0.29468 0.4115 0.0
C442 C 0.21608 0.27962 0.45644 0.0
C443 C 0.21296 0.29845 0.49264 0.0
C444 C 0.21371 0.32418 0.46782 0.0
N445 N 0.17412 0.32885 0.34733 0.0
C446 C 0.11068 0.29842 0.31978 0.0
C447 C 0.12801 0.28181 0.32926 0.0
C448 C 0.15936 0.2973 0.3429 0.0
C449 C 0.12541 0.33039 0.32591 0.0
C450 C 0.15668 0.34495 0.33993 0.0
N451 N 0.26593 0.37335 0.37135 0.0
C452 C 0.3147 0.37308 0.39665 0.0
C453 C 0.32895 0.40524 0.40126 0.0
C454 C 0.31142 0.42114 0.38873 0.0
C455 C 0.28045 0.405 0.37377 0.0
C456 C 0.28355 0.35775 0.38155 0.0
H457 H 0.2686 0.41873 0.36522 0.0
H458 H 0.27404 0.33321 0.37921 0.0
H459 H 0.17131 0.28329 0.34896 0.0
H460 H 0.16635 0.36936 0.34387 0.0
C461 C 0.21606 0.41715 0.35421 0.0
C462 C 0.21267 0.35054 0.49532 0.0
C463 C 0.22624 0.3506 0.22296 0.0
C464 C 0.22425 0.28496 0.36433 0.0
H465 H 0.20731 0.40541 0.52519 0.0
H466 H 0.20846 0.44174 0.44909 0.0
H467 H 0.22172 0.44347 0.25563 0.0
H468 H 0.22722 0.40681 0.18505 0.0
H469 H 0.23177 0.29564 0.19367 0.0
H470 H 0.23204 0.26029 0.27004 0.0
H471 H 0.21732 0.25787 0.46233 0.0
H472 H 0.21101 0.29404 0.53294 0.0
H473 H 0.11751 0.25695 0.32542 0.0
H474 H 0.11284 0.34419 0.31953 0.0
H475 H 0.32743 0.35974 0.40541 0.0
H476 H 0.3215 0.44607 0.39113 0.0
C477 C 0.20509 0.3177 0.96605 0.0
C478 C 0.18555 0.29011 0.98885 0.0
C479 C 0.17162 0.2696 0.95069 0.0
C480 C 0.18339 0.28562 0.90663 0.0
N481 N 0.2038 0.31502 0.91433 0.0
Co482 Co 0.22613 0.3452 0.85888 0.0
N483 N 0.19889 0.31883 0.80359 0.0
C484 C 0.17904 0.28895 0.80977 0.0
C485 C 0.1652 0.27483 0.76577 0.0
C486 C 0.17738 0.29688 0.72894 0.0
C487 C 0.19809 0.32352 0.75237 0.0
N488 N 0.24823 0.37593 0.80346 0.0
C489 C 0.242 0.37695 0.75298 0.0
C490 C 0.26405 0.40336 0.73029 0.0
C491 C 0.28533 0.41869 0.7665 0.0
C492 C 0.27508 0.40116 0.80953 0.0
N493 N 0.25371 0.3713 0.91378 0.0
C494 C 0.28039 0.39654 0.90569 0.0
C495 C 0.29413 0.41124 0.94939 0.0
C496 C 0.27508 0.39426 0.98775 0.0
C497 C 0.25073 0.36976 0.96548 0.0
N498 N 0.25397 0.32452 0.84821 0.0
C499 C 0.28648 0.28834 0.8271 0.0
C500 C 0.27688 0.29094 0.87664 0.0
C501 C 0.26148 0.3098 0.88656 0.0
C502 C 0.28072 0.30549 0.78935 0.0
C503 C 0.26395 0.32246 0.8004 0.0
N504 N 0.19803 0.36515 0.8702 0.0
C505 C 0.19032 0.41046 0.89121 0.0
C506 C 0.15877 0.39241 0.90021 0.0
C507 C 0.14702 0.36062 0.89194 0.0
C508 C 0.16691 0.34753 0.87656 0.0
C509 C 0.20949 0.39644 0.87633 0.0
H510 H 0.15713 0.32296 0.87133 0.0
H511 H 0.23373 0.41097 0.87125 0.0
H512 H 0.25485 0.31156 0.92506 0.0
H513 H 0.25799 0.33277 0.76951 0.0
C514 C 0.17356 0.27514 0.85769 0.0
C515 C 0.22609 0.34499 0.99522 0.0
C516 C 0.21843 0.35157 0.72324 0.0
C517 C 0.28888 0.40863 0.85697 0.0
H518 H 0.18201 0.28524 0.02894 0.0
H519 H 0.15446 0.24598 0.95465 0.0
H520 H 0.14854 0.25112 0.76087 0.0
H521 H 0.17236 0.29339 0.68903 0.0
H522 H 0.26534 0.41016 0.69105 0.0
H523 H 0.30591 0.44011 0.76194 0.0
H524 H 0.31479 0.43262 0.9529 0.0
H525 H 0.27868 0.39954 0.02758 0.0
H526 H 0.28084 0.2782 0.90731 0.0
H527 H 0.28768 0.30443 0.75054 0.0
H528 H 0.20024 0.43517 0.89697 0.0
H529 H 0.12269 0.34592 0.89814 0.0
C530 C 0.74629 0.88122 0.96363 0.0
C531 C 0.77283 0.88305 0.98697 0.0
C532 C 0.79181 0.881 0.94967 0.0
C533 C 0.77608 0.87828 0.90553 0.0
N534 N 0.74835 0.87894 0.9121 0.0
Co535 Co 0.71837 0.87489 0.85633 0.0
N536 N 0.74507 0.86877 0.80179 0.0
C537 C 0.77265 0.86814 0.80951 0.0
C538 C 0.787 0.86547 0.76588 0.0
C539 C 0.7676 0.86457 0.72775 0.0
C540 C 0.74222 0.8666 0.75014 0.0
N541 N 0.68844 0.87098 0.80051 0.0
C542 C 0.69024 0.86806 0.74906 0.0
C543 C 0.664 0.86693 0.7256 0.0
C544 C 0.64543 0.86991 0.76274 0.0
C545 C 0.66111 0.87252 0.8069 0.0
N546 N 0.69155 0.88069 0.91099 0.0
C547 C 0.66395 0.88131 0.9033 0.0
C548 C 0.64908 0.88282 0.94707 0.0
C549 C 0.66807 0.8828 0.98525 0.0
C550 C 0.6938 0.88152 0.96278 0.0
N551 N 0.73959 0.92081 0.84347 0.0
C552 C 0.76897 0.98427 0.81454 0.0
C553 C 0.7371 0.96937 0.82392 0.0
C554 C 0.72304 0.93802 0.8383 0.0
C555 C 0.78597 0.9671 0.8215 0.0
C556 C 0.77106 0.93587 0.83613 0.0
N557 N 0.69716 0.82909 0.86922 0.0
C558 C 0.65047 0.78286 0.88968 0.0
C559 C 0.66748 0.76601 0.8995 0.0
C560 C 0.69954 0.781 0.89215 0.0
C561 C 0.71376 0.81219 0.87705 0.0
C562 C 0.66555 0.81392 0.87434 0.0
H563 H 0.73832 0.82232 0.87276 0.0
H564 H 0.65113 0.82533 0.86767 0.0
H565 H 0.69863 0.92808 0.84432 0.0
H566 H 0.78553 0.92429 0.84054 0.0
C567 C 0.78564 0.87287 0.85778 0.0
C568 C 0.7194 0.88055 0.99267 0.0
C569 C 0.71645 0.86706 0.7202 0.0
C570 C 0.65134 0.87743 0.85481 0.0
H571 H 0.77766 0.88492 0.02703 0.0
H572 H 0.81409 0.88064 0.95435 0.0
H573 H 0.80944 0.86523 0.76208 0.0
H574 H 0.77198 0.86319 0.68784 0.0
H575 H 0.65903 0.86469 0.68559 0.0
H576 H 0.62331 0.87062 0.75799 0.0
H577 H 0.62651 0.88273 0.95087 0.0
H578 H 0.66316 0.88302 0.02521 0.0
H579 H 0.72297 0.98177 0.81944 0.0
H580 H 0.81076 0.9777 0.81518 0.0
H581 H 0.62556 0.77214 0.8943 0.0
H582 H 0.71366 0.7688 0.89885 0.0
C583 C 0.17852 0.86528 0.97277 0.0
C584 C 0.17239 0.88791 0.99632 0.0
C585 C 0.17054 0.9067 0.95892 0.0
C586 C 0.17534 0.89447 0.91452 0.0
N587 N 0.18 0.86894 0.92128 0.0
Co588 Co 0.18692 0.84412 0.8652 0.0
N589 N 0.19047 0.87499 0.81118 0.0
C590 C 0.19017 0.90255 0.81997 0.0
C591 C 0.198 0.92146 0.77839 0.0
C592 C 0.20315 0.90476 0.74048 0.0
C593 C 0.19701 0.87593 0.76043 0.0
N594 N 0.19166 0.8183 0.80861 0.0
C595 C 0.18999 0.82087 0.7571 0.0
C596 C 0.18508 0.79328 0.73352 0.0
C597 C 0.18535 0.7735 0.77029 0.0
C598 C 0.18928 0.78944 0.81461 0.0
N599 N 0.18605 0.81446 0.91977 0.0
C600 C 0.18918 0.78817 0.91174 0.0
C601 C 0.19117 0.77371 0.95528 0.0
C602 C 0.18975 0.79215 0.99367 0.0
C603 C 0.18657 0.81678 0.97143 0.0
N604 N 0.14068 0.82183 0.85564 0.0
C605 C 0.07676 0.78863 0.83181 0.0
C606 C 0.09298 0.77428 0.85598 0.0
C607 C 0.12449 0.79108 0.86754 0.0
C608 C 0.0928 0.82017 0.82152 0.0
C609 C 0.12429 0.83623 0.83401 0.0
N610 N 0.23279 0.86628 0.8748 0.0
C611 C 0.2833 0.86602 0.88264 0.0
C612 C 0.2967 0.89686 0.89852 0.0
C613 C 0.27769 0.91222 0.90081 0.0
C614 C 0.24623 0.89675 0.88885 0.0
C615 C 0.25155 0.8513 0.87079 0.0
H616 H 0.23311 0.90987 0.89215 0.0
H617 H 0.24238 0.82764 0.85924 0.0
H618 H 0.13528 0.77836 0.88536 0.0
H619 H 0.13493 0.86027 0.82497 0.0
C620 C 0.18127 0.90928 0.86739 0.0
C621 C 0.18377 0.84152 1.00127 0.0
C622 C 0.19418 0.8492 0.72872 0.0
C623 C 0.18929 0.77746 0.86269 0.0
H624 H 0.1704 0.89104 0.0365 0.0
H625 H 0.16766 0.92772 0.96376 0.0
H626 H 0.19946 0.94455 0.77575 0.0
H627 H 0.20953 0.91263 0.70199 0.0
H628 H 0.18145 0.78771 0.69381 0.0
H629 H 0.18209 0.74991 0.76542 0.0
H630 H 0.19357 0.75238 0.9587 0.0
H631 H 0.19096 0.78793 0.03357 0.0
H632 H 0.08151 0.74991 0.86488 0.0
H633 H 0.08117 0.83233 0.80309 0.0
H634 H 0.29718 0.85322 0.88 0.0
H635 H 0.28703 0.93611 0.91259 0.0
C636 C 0.37881 0.22937 0.73024 0.0
C637 C 0.39437 0.26134 0.73007 0.0
C638 C 0.42123 0.26889 0.70324 0.0
C639 C 0.42065 0.2413 0.68824 0.0
N640 N 0.39529 0.21666 0.7044 0.0
Co641 Co 0.38493 0.17284 0.68656 0.0
N642 N 0.42778 0.18316 0.66122 0.0
C643 C 0.44933 0.2117 0.64999 0.0
C644 C 0.47675 0.21218 0.63317 0.0
C645 C 0.47219 0.182 0.63325 0.0
C646 C 0.4421 0.16471 0.65006 0.0
N647 N 0.37469 0.12902 0.66887 0.0
C648 C 0.39335 0.11509 0.6563 0.0
C649 C 0.37603 0.08412 0.64556 0.0
C650 C 0.3456 0.0785 0.65111 0.0
C651 C 0.34596 0.10623 0.6649 0.0
N652 N 0.34197 0.16248 0.71138 0.0
C653 C 0.31709 0.13555 0.70358 0.0
C654 C 0.29081 0.13395 0.72721 0.0
C655 C 0.29942 0.16179 0.75073 0.0
C656 C 0.33052 0.17917 0.73942 0.0
N657 N 0.37313 0.17989 0.61898 0.0
C658 C 0.35942 0.19277 0.5222 0.0
C659 C 0.34931 0.20341 0.56445 0.0
C660 C 0.35665 0.19688 0.61254 0.0
C661 C 0.37552 0.17474 0.52901 0.0
C662 C 0.38195 0.16845 0.57771 0.0
N663 N 0.39659 0.16606 0.75415 0.0
C664 C 0.38063 0.14142 0.83488 0.0
C665 C 0.40762 0.16332 0.8566 0.0
C666 C 0.43058 0.1844 0.82511 0.0
C667 C 0.42421 0.18598 0.77412 0.0
C668 C 0.37595 0.14272 0.78332 0.0
H669 H 0.441 0.2043 0.75167 0.0
H670 H 0.35481 0.12582 0.7678 0.0
H671 H 0.34942 0.20602 0.64434 0.0
H672 H 0.39433 0.15466 0.58208 0.0
C673 C 0.44437 0.23753 0.6623 0.0
C674 C 0.34708 0.21243 0.75052 0.0
C675 C 0.42718 0.13077 0.64972 0.0
C676 C 0.3203 0.11084 0.68053 0.0
H677 H 0.38676 0.27764 0.74633 0.0
H678 H 0.43908 0.2918 0.69563 0.0
H679 H 0.49781 0.23215 0.62321 0.0
H680 H 0.48889 0.1736 0.62136 0.0
H681 H 0.38452 0.06745 0.63419 0.0
H682 H 0.32563 0.05662 0.64674 0.0
H683 H 0.26825 0.11454 0.72844 0.0
H684 H 0.28428 0.16875 0.77258 0.0
H685 H 0.3365 0.21717 0.56024 0.0
H686 H 0.38333 0.16586 0.49684 0.0
H687 H 0.3627 0.12425 0.85798 0.0
H688 H 0.45203 0.20124 0.84071 0.0
C689 C 0.87691 0.25097 0.64969 0.0
C690 C 0.85904 0.26648 0.63856 0.0
C691 C 0.82918 0.24695 0.65048 0.0
C692 C 0.83044 0.22072 0.66828 0.0
N693 N 0.85929 0.22213 0.66814 0.0
Co694 Co 0.87121 0.18907 0.6932 0.0
N695 N 0.82724 0.16043 0.71138 0.0
C696 C 0.80213 0.16596 0.70429 0.0
C697 C 0.77485 0.14189 0.71855 0.0
C698 C 0.7829 0.11948 0.73539 0.0
C699 C 0.81478 0.13117 0.73051 0.0
N700 N 0.88327 0.15647 0.71993 0.0
C701 C 0.86577 0.12796 0.73972 0.0
C702 C 0.8839 0.11324 0.75376 0.0
C703 C 0.91379 0.13288 0.74217 0.0
C704 C 0.91231 0.15848 0.72192 0.0
N705 N 0.91502 0.21731 0.67357 0.0
C706 C 0.93979 0.21088 0.67734 0.0
C707 C 0.96683 0.23418 0.66019 0.0
C708 C 0.95892 0.25692 0.64447 0.0
C709 C 0.92739 0.24622 0.65304 0.0
N710 N 0.87751 0.20773 0.76109 0.0
C711 C 0.88301 0.22638 0.86191 0.0
C712 C 0.90661 0.22154 0.83818 0.0
C713 C 0.90363 0.21278 0.78768 0.0
C714 C 0.85797 0.22463 0.83355 0.0
C715 C 0.85549 0.21489 0.7835 0.0
N716 N 0.86498 0.17034 0.6252 0.0
C717 C 0.88126 0.1464 0.55789 0.0
C718 C 0.86062 0.15026 0.52518 0.0
C719 C 0.8404 0.16175 0.54398 0.0
C720 C 0.8426 0.17109 0.59411 0.0
C721 C 0.88339 0.15702 0.60735 0.0
H722 H 0.82648 0.17957 0.6063 0.0
H723 H 0.90074 0.15497 0.62965 0.0
H724 H 0.92225 0.2092 0.77157 0.0
H725 H 0.83506 0.21225 0.76444 0.0
C726 C 0.80497 0.19411 0.68463 0.0
C727 C 0.91051 0.26476 0.6418 0.0
C728 C 0.83196 0.11334 0.74443 0.0
C729 C 0.93729 0.18369 0.70053 0.0
H730 H 0.86682 0.28955 0.62336 0.0
H731 H 0.80894 0.25137 0.64664 0.0
H732 H 0.7518 0.14075 0.71677 0.0
H733 H 0.76711 0.09701 0.74953 0.0
H734 H 0.87621 0.09039 0.76985 0.0
H735 H 0.93409 0.12866 0.74674 0.0
H736 H 0.98971 0.23482 0.66006 0.0
H737 H 0.97463 0.27904 0.62898 0.0
H738 H 0.92661 0.22319 0.8591 0.0
H739 H 0.8394 0.22857 0.85099 0.0
H740 H 0.89698 0.13712 0.54439 0.0
H741 H 0.82366 0.16445 0.5196 0.0
C742 C 0.81979 0.62977 0.64787 0.0
C743 C 0.81032 0.59926 0.63383 0.0
C744 C 0.83289 0.59093 0.64898 0.0
C745 C 0.85479 0.61668 0.67153 0.0
N746 N 0.84786 0.64104 0.67155 0.0
Co747 Co 0.87392 0.68259 0.70255 0.0
N748 N 0.90688 0.66989 0.72521 0.0
C749 C 0.90584 0.64157 0.71977 0.0
C750 C 0.9308 0.63868 0.73975 0.0
C751 C 0.94911 0.66703 0.75907 0.0
C752 C 0.93435 0.68576 0.74947 0.0
N753 N 0.90008 0.72414 0.73343 0.0
C754 C 0.92851 0.73561 0.75604 0.0
C755 C 0.93802 0.76619 0.76983 0.0
C756 C 0.91502 0.77423 0.75598 0.0
C757 C 0.89287 0.74833 0.73423 0.0
N758 N 0.84088 0.6952 0.68008 0.0
C759 C 0.84147 0.72325 0.68687 0.0
C760 C 0.81629 0.72599 0.66747 0.0
C761 C 0.79833 0.69783 0.64711 0.0
C762 C 0.81353 0.67936 0.65545 0.0
N763 N 0.85209 0.66823 0.76758 0.0
C764 C 0.82066 0.64859 0.85962 0.0
C765 C 0.80487 0.63937 0.81441 0.0
C766 C 0.82103 0.64952 0.76904 0.0
C767 C 0.85247 0.6671 0.85849 0.0
C768 C 0.86774 0.67652 0.81216 0.0
N769 N 0.89579 0.69683 0.63755 0.0
C770 C 0.89609 0.69518 0.54673 0.0
C771 C 0.92834 0.71075 0.54593 0.0
C772 C 0.94393 0.72067 0.5911 0.0
C773 C 0.92711 0.71411 0.63611 0.0
C774 C 0.88029 0.68855 0.59289 0.0
H775 H 0.93983 0.72285 0.6693 0.0
H776 H 0.85569 0.67627 0.59201 0.0
H777 H 0.8081 0.64183 0.73557 0.0
H778 H 0.89217 0.69033 0.81293 0.0
C779 C 0.88149 0.61848 0.69462 0.0
C780 C 0.80054 0.64663 0.64017 0.0
C781 C 0.94799 0.71882 0.76278 0.0
C782 C 0.86583 0.7463 0.71208 0.0
H783 H 0.78904 0.58441 0.61533 0.0
H784 H 0.83303 0.56855 0.64487 0.0
H785 H 0.93531 0.61843 0.73982 0.0
H786 H 0.97108 0.67338 0.77752 0.0
H787 H 0.95956 0.78133 0.78722 0.0
H788 H 0.9148 0.79657 0.76026 0.0
H789 H 0.81146 0.74605 0.66831 0.0
H790 H 0.77636 0.69145 0.62868 0.0
H791 H 0.78027 0.62459 0.81417 0.0
H792 H 0.86542 0.67421 0.89324 0.0
H793 H 0.88329 0.6874 0.51196 0.0
H794 H 0.96891 0.73304 0.59165 0.0
C795 C 0.92096 0.67813 0.13057 0.0
C796 C 0.94682 0.6936 0.10013 0.0
C797 C 0.95388 0.72437 0.10371 0.0
C798 C 0.93206 0.72605 0.13606 0.0
N799 N 0.91137 0.69826 0.15268 0.0
Co800 Co 0.87679 0.69109 0.2017 0.0
N801 N 0.88073 0.73403 0.19396 0.0
C802 C 0.90519 0.75774 0.17318 0.0
C803 C 0.90265 0.78513 0.17492 0.0
C804 C 0.87501 0.77846 0.19888 0.0
C805 C 0.86215 0.74724 0.21043 0.0
N806 N 0.84182 0.68367 0.25014 0.0
C807 C 0.82549 0.70045 0.25962 0.0
C808 C 0.80256 0.6861 0.29575 0.0
C809 C 0.80506 0.65993 0.31034 0.0
C810 C 0.82913 0.65958 0.28217 0.0
N811 N 0.87319 0.64831 0.21041 0.0
C812 C 0.8571 0.62849 0.24742 0.0
C813 C 0.8584 0.60055 0.24428 0.0
C814 C 0.87675 0.60289 0.20307 0.0
C815 C 0.8859 0.63235 0.18348 0.0
N816 N 0.90636 0.70492 0.25677 0.0
C817 C 0.94155 0.71544 0.34345 0.0
C818 C 0.91811 0.72536 0.34031 0.0
C819 C 0.90137 0.72057 0.29616 0.0
C820 C 0.94975 0.70382 0.30031 0.0
C821 C 0.93126 0.698 0.25763 0.0
N822 N 0.84754 0.67718 0.1466 0.0
C823 C 0.80285 0.6375 0.10815 0.0
C824 C 0.81223 0.65231 0.0615 0.0
C825 C 0.83768 0.68107 0.05914 0.0
C826 C 0.85481 0.69326 0.10224 0.0
C827 C 0.82115 0.65025 0.1504 0.0
H828 H 0.87491 0.71492 0.09889 0.0
H829 H 0.81471 0.63758 0.18539 0.0
H830 H 0.88348 0.72819 0.29475 0.0
H831 H 0.93652 0.68696 0.22629 0.0
C832 C 0.92844 0.75272 0.14795 0.0
C833 C 0.9088 0.64497 0.14225 0.0
C834 C 0.83351 0.73178 0.2405 0.0
C835 C 0.83779 0.6353 0.28005 0.0
H836 H 0.95977 0.68376 0.07872 0.0
H837 H 0.97255 0.74323 0.08464 0.0
H838 H 0.91874 0.80724 0.15993 0.0
H839 H 0.86562 0.79481 0.20762 0.0
H840 H 0.78632 0.69419 0.31106 0.0
H841 H 0.79064 0.64288 0.33755 0.0
H842 H 0.84672 0.58055 0.26828 0.0
H843 H 0.88306 0.58506 0.18947 0.0
H844 H 0.91176 0.73545 0.37258 0.0
H845 H 0.96864 0.69708 0.30091 0.0
H846 H 0.78284 0.61546 0.11115 0.0
H847 H 0.84519 0.69334 0.02356 0.0
C848 C 0.39536 0.20573 0.30155 0.0
C849 C 0.41697 0.20879 0.3384 0.0
C850 C 0.43902 0.20203 0.31584 0.0
C851 C 0.42961 0.19512 0.26686 0.0
N852 N 0.40316 0.1976 0.25644 0.0
Co853 Co 0.37998 0.18754 0.19132 0.0
N854 N 0.41068 0.17434 0.15974 0.0
C855 C 0.43621 0.17442 0.18129 0.0
C856 C 0.45357 0.16548 0.14939 0.0
C857 C 0.43848 0.15972 0.10445 0.0
C858 C 0.41261 0.16535 0.11182 0.0
N859 N 0.3565 0.17694 0.12656 0.0
C860 C 0.36298 0.16639 0.08262 0.0
C861 C 0.34036 0.16135 0.04675 0.0
C862 C 0.31906 0.16956 0.0686 0.0
C863 C 0.3298 0.17897 0.11639 0.0
N864 N 0.34957 0.20116 0.22265 0.0
C865 C 0.3249 0.20256 0.2004 0.0
C866 C 0.30817 0.21249 0.23204 0.0
C867 C 0.32277 0.21727 0.27746 0.0
C868 C 0.34756 0.2099 0.27069 0.0
N869 N 0.40532 0.23091 0.16612 0.0
C870 C 0.44084 0.29251 0.13148 0.0
C871 C 0.40893 0.27751 0.124 0.0
C872 C 0.39183 0.24707 0.14126 0.0
C873 C 0.45472 0.27603 0.15623 0.0
C874 C 0.43675 0.24561 0.17304 0.0
N875 N 0.35459 0.14427 0.21649 0.0
C876 C 0.30459 0.10081 0.23135 0.0
C877 C 0.31841 0.08311 0.25226 0.0
C878 C 0.35072 0.09666 0.25506 0.0
C879 C 0.36818 0.12697 0.23732 0.0
C880 C 0.32287 0.13094 0.21382 0.0
H881 H 0.39268 0.13596 0.24091 0.0
H882 H 0.31076 0.14308 0.19847 0.0
H883 H 0.36766 0.23707 0.1339 0.0
H884 H 0.44886 0.23444 0.19155 0.0
C885 C 0.44395 0.18424 0.23091 0.0
C886 C 0.36682 0.20873 0.31191 0.0
C887 C 0.39145 0.16342 0.07157 0.0
C888 C 0.31636 0.1915 0.15142 0.0
H889 H 0.41649 0.21441 0.3779 0.0
H890 H 0.45892 0.20115 0.33351 0.0
H891 H 0.47504 0.16404 0.15751 0.0
H892 H 0.44596 0.15272 0.06992 0.0
H893 H 0.33987 0.15343 1.00827 0.0
H894 H 0.29864 0.16948 0.05127 0.0
H895 H 0.28714 0.21474 0.22366 0.0
H896 H 0.31543 0.22426 0.31216 0.0
H897 H 0.39717 0.28928 0.1048 0.0
H898 H 0.4794 0.28665 0.16274 0.0
H899 H 0.27967 0.09136 0.22845 0.0
H900 H 0.36249 0.08389 0.27101 0.0
C901 C 0.88663 0.2399 0.11716 0.0
C902 C 0.88518 0.26792 0.11095 0.0
C903 C 0.8767 0.27515 0.15672 0.0
C904 C 0.87325 0.25108 0.1879 0.0
N905 N 0.87941 0.22908 0.16503 0.0
Co906 Co 0.87483 0.18885 0.19463 0.0
N907 N 0.85991 0.19826 0.26049 0.0
C908 C 0.85641 0.22395 0.27285 0.0
C909 C 0.84613 0.2238 0.32142 0.0
C910 C 0.84332 0.19657 0.34154 0.0
C911 C 0.8521 0.1817 0.30382 0.0
N912 N 0.86954 0.14828 0.22358 0.0
C913 C 0.86053 0.13652 0.27048 0.0
C914 C 0.85977 0.10746 0.27551 0.0
C915 C 0.86881 0.10058 0.22993 0.0
C916 C 0.87457 0.1258 0.20001 0.0
N917 N 0.89048 0.17979 0.12923 0.0
C918 C 0.89558 0.15488 0.11777 0.0
C919 C 0.90767 0.15592 0.07026 0.0
C920 C 0.9101 0.18296 0.04993 0.0
C921 C 0.89914 0.19674 0.08638 0.0
N922 N 0.91867 0.20909 0.21982 0.0
C923 C 0.98109 0.23819 0.25362 0.0
C924 C 0.96871 0.20843 0.23329 0.0
C925 C 0.93784 0.19448 0.21679 0.0
C926 C 0.96151 0.25297 0.25712 0.0
C927 C 0.93073 0.23815 0.24042 0.0
N928 N 0.83096 0.16863 0.16972 0.0
C929 C 0.78911 0.12668 0.12664 0.0
C930 C 0.76819 0.13916 0.13804 0.0
C931 C 0.77939 0.16686 0.16485 0.0
C932 C 0.8105 0.18113 0.17988 0.0
C933 C 0.82006 0.14157 0.14277 0.0
H934 H 0.81742 0.20231 0.19981 0.0
H935 H 0.83482 0.13084 0.13287 0.0
H936 H 0.92998 0.17177 0.20181 0.0
H937 H 0.91713 0.25074 0.24455 0.0
C938 C 0.86284 0.24774 0.23796 0.0
C939 C 0.89365 0.22373 0.07613 0.0
C940 C 0.85487 0.15305 0.31225 0.0
C941 C 0.88716 0.13015 0.1513 0.0
H942 H 0.88938 0.28147 0.07668 0.0
H943 H 0.87274 0.29517 0.16586 0.0
H944 H 0.84159 0.24153 0.34014 0.0
H945 H 0.83624 0.18879 0.37993 0.0
H946 H 0.854 0.09313 0.30907 0.0
H947 H 0.8718 0.0801 0.22026 0.0
H948 H 0.91319 0.13866 0.05205 0.0
H949 H 0.91785 0.1911 1.01189 0.0
H950 H 0.98289 0.19597 0.22997 0.0
H951 H 0.96997 0.27598 0.27275 0.0
H952 H 0.78155 0.10536 0.10559 0.0
H953 H 0.76415 0.17755 0.17417 0.0
C954 C 0.02387 0.52457 0.30006 0.0
C955 C 0.02309 0.49821 0.32613 0.0
C956 C 0.02757 0.47664 0.24216 0.0
C957 C 0.0248 0.50129 0.2159 0.0
N958 N 0.01474 0.54622 0.22212 0.0
N959 N 0.01775 0.44613 0.31928 0.0
C960 C 0.0214 0.52453 0.24567 0.0
C961 C 0.02311 0.47342 0.29625 0.0
N962 N 0.02788 0.55023 0.32716 0.0
N963 N 0.03544 0.4566 0.2156 0.0
H964 H 0.01392 0.44267 0.35813 0.0
H965 H 0.01424 0.42618 0.29936 0.0
H966 H 0.03932 0.45838 0.17661 0.0
H967 H 0.04096 0.44012 0.23281 0.0
H968 H 0.03199 0.57129 0.31046 0.0
H969 H 0.02993 0.55128 0.36642 0.0
H970 H 0.00868 0.56175 0.24155 0.0
H971 H 0.01257 0.54687 0.18302 0.0
C972 C 0.55091 0.54591 0.29532 0.0
C973 C 0.56976 0.53428 0.3213 0.0
C974 C 0.58093 0.51845 0.2369 0.0
C975 C 0.56728 0.53546 0.21069 0.0
N976 N 0.54883 0.57481 0.22164 0.0
N977 N 0.61189 0.51969 0.30938 0.0
C978 C 0.55517 0.55211 0.24191 0.0
C979 C 0.58762 0.52368 0.28984 0.0
N980 N 0.5281 0.55017 0.32062 0.0
N981 N 0.58667 0.49644 0.21233 0.0
H982 H 0.6191 0.52555 0.34657 0.0
H983 H 0.62653 0.51378 0.28683 0.0
H984 H 0.57989 0.49007 0.17511 0.0
H985 H 0.59495 0.48243 0.23107 0.0
H986 H 0.51278 0.55686 0.3022 0.0
H987 H 0.52254 0.54371 0.35835 0.0
H988 H 0.5418 0.58869 0.24385 0.0
H989 H 0.55384 0.58171 0.18397 0.0
C990 C 0.4834 0.03189 0.21914 0.0
C991 C 0.51047 0.04486 0.18873 0.0
C992 C 0.54016 0.07334 0.2612 0.0
C993 C 0.51511 0.05502 0.29299 0.0
N994 N 0.46236 0.01702 0.30365 0.0
N995 N 0.5651 0.07782 0.17976 0.0
C996 C 0.48624 0.03485 0.2724 0.0
C997 C 0.53893 0.06612 0.20918 0.0
N998 N 0.45527 0.01633 0.19698 0.0
N999 N 0.56529 0.09706 0.2814 0.0
H1000 H 0.56516 0.07312 0.14131 0.0
H1001 H 0.58714 0.09054 0.19407 0.0
H1002 H 0.56641 0.10257 0.31976 0.0
H1003 H 0.58338 0.1129 0.2597 0.0
H1004 H 0.43437 0.00857 0.21676 0.0
H1005 H 0.45278 0.01359 0.15789 0.0
H1006 H 0.44209 0.99914 0.29087 0.0
H1007 H 0.46342 0.01909 0.34289 0.0
C1008 C 0.02524 0.53687 0.74244 0.0
C1009 C 0.02374 0.51043 0.71566 0.0
C1010 C 0.02488 0.48672 0.79901 0.0
C1011 C 0.0231 0.51179 0.82579 0.0
N1012 N 0.01518 0.55797 0.82066 0.0
N1013 N 0.01647 0.45767 0.72056 0.0
C1014 C 0.02148 0.53606 0.79669 0.0
C1015 C 0.02197 0.48467 0.74471 0.0
N1016 N 0.03124 0.56333 0.71619 0.0
N1017 N 0.03025 0.46509 0.82536 0.0
H1018 H 0.01405 0.45517 0.68145 0.0
H1019 H 0.01155 0.43707 0.73954 0.0
H1020 H 0.03255 0.46575 0.86456 0.0
H1021 H 0.03514 0.44815 0.80808 0.0
H1022 H 0.03589 0.58431 0.73363 0.0
H1023 H 0.03438 0.56497 0.67704 0.0
H1024 H 0.01044 0.57436 0.80147 0.0
H1025 H 0.01186 0.55798 0.85969 0.0
C1026 C 0.53388 0.50181 0.7391 0.0
C1027 C 0.55822 0.52533 0.71115 0.0
C1028 C 0.58114 0.54945 0.7933 0.0
C1029 C 0.55853 0.52423 0.82102 0.0
N1030 N 0.51689 0.47319 0.81802 0.0
N1031 N 0.60802 0.56899 0.71319 0.0
C1032 C 0.53593 0.49952 0.79311 0.0
C1033 C 0.58266 0.54843 0.73884 0.0
N1034 N 0.50814 0.48204 0.71419 0.0
N1035 N 0.60073 0.57498 0.81892 0.0
H1036 H 0.61003 0.56902 0.67389 0.0
H1037 H 0.62809 0.58422 0.73095 0.0
H1038 H 0.60038 0.57661 0.85822 0.0
H1039 H 0.61545 0.59545 0.80114 0.0
H1040 H 0.48824 0.46653 0.73266 0.0
H1041 H 0.50561 0.48313 0.67522 0.0
H1042 H 0.50218 0.45315 0.79955 0.0
H1043 H 0.51788 0.47044 0.85696 0.0
C1044 C 0.5814 1.00389 0.81527 0.0
C1045 C 0.55477 1.0009 0.84288 0.0
C1046 C 0.52796 1.0006 0.76507 0.0
C1047 C 0.55411 1.00244 0.73694 0.0
N1048 N 0.60268 0.99853 0.73418 0.0
N1049 N 0.50018 0.98722 0.84475 0.0
C1050 C 0.5799 1.00164 0.76174 0.0
C1051 C 0.52708 0.99582 0.8178 0.0
N1052 N 0.6084 0.01036 0.83996 0.0
N1053 N 0.50505 0.00574 0.74228 0.0
H1054 H 0.49886 0.98329 0.88366 0.0
H1055 H 0.47884 0.98101 0.82771 0.0
H1056 H 0.50527 0.01087 0.70398 0.0
H1057 H 0.48734 0.00808 0.76235 0.0
H1058 H 0.6295 0.01632 0.82144 0.0
H1059 H 0.60997 0.01147 0.87929 0.0
H1060 H 0.62069 0.99512 0.75048 0.0
H1061 H 0.60202 0.99661 0.69486 0.0
C1062 C 0.71501 0.83966 0.63476 0.0
C1063 C 0.71671 0.86622 0.66143 0.0
C1064 C 0.71595 0.88993 0.5778 0.0
C1065 C 0.71765 0.86478 0.55121 0.0
N1066 N 0.72484 0.81822 0.55669 0.0
N1067 N 0.72422 0.91904 0.6562 0.0
C1068 C 0.71888 0.84038 0.5805 0.0
C1069 C 0.71868 0.892 0.63218 0.0
N1070 N 0.7087 0.81316 0.66111 0.0
N1071 N 0.71073 0.91159 0.55122 0.0
H1072 H 0.72653 0.92155 0.69532 0.0
H1073 H 0.72924 0.93963 0.63712 0.0
H1074 H 0.70843 0.91083 0.512 0.0
H1075 H 0.70589 0.9286 0.56832 0.0
H1076 H 0.7039 0.79212 0.64377 0.0
H1077 H 0.70543 0.81158 0.70024 0.0
H1078 H 0.72934 0.80171 0.57599 0.0
H1079 H 0.72811 0.81807 0.51766 0.0
C1080 C 0.17794 0.8636 0.64188 0.0
C1081 C 0.1949 0.85056 0.66968 0.0
C1082 C 0.20704 0.83403 0.58648 0.0
C1083 C 0.19543 0.85234 0.5589 0.0
N1084 N 0.18036 0.89423 0.56801 0.0
N1085 N 0.23531 0.83318 0.6614 0.0
C1086 C 0.1842 0.87021 0.58894 0.0
C1087 C 0.21252 0.83883 0.63984 0.0
N1088 N 0.15485 0.86858 0.66471 0.0
N1089 N 0.21175 0.81111 0.56294 0.0
H1090 H 0.24169 0.8386 0.69902 0.0
H1091 H 0.24975 0.82631 0.64014 0.0
H1092 H 0.20558 0.80502 0.52542 0.0
H1093 H 0.21848 0.79622 0.58265 0.0
H1094 H 0.14098 0.87648 0.64467 0.0
H1095 H 0.14756 0.86154 0.70174 0.0
H1096 H 0.17381 0.90872 0.58958 0.0
H1097 H 0.18692 0.90136 0.53077 0.0
C1098 C 0.18827 0.3485 0.58451 0.0
C1099 C 0.21437 0.3522 0.5539 0.0
C1100 C 0.24266 0.35365 0.63315 0.0
C1101 C 0.21747 0.35254 0.66422 0.0
N1102 N 0.16818 0.35476 0.66675 0.0
N1103 N 0.26855 0.36434 0.5509 0.0
C1104 C 0.19085 0.35166 0.63889 0.0
C1105 C 0.24212 0.35655 0.57894 0.0
N1106 N 0.16049 0.34091 0.56174 0.0
N1107 N 0.26694 0.3507 0.65496 0.0
H1108 H 0.26915 0.36651 0.51162 0.0
H1109 H 0.29034 0.37141 0.56678 0.0
H1110 H 0.26902 0.34937 0.6937 0.0
H1111 H 0.28381 0.34714 0.63445 0.0
H1112 H 0.13978 0.33447 0.5817 0.0
H1113 H 0.15775 0.33857 0.52266 0.0
H1114 H 0.1498 0.35762 0.65073 0.0
H1115 H 0.16924 0.35728 0.70596 0.0
C1116 C 0.71376 0.90174 0.13471 0.0
C1117 C 0.71662 0.8774 0.16177 0.0
C1118 C 0.71807 0.85353 0.07844 0.0
C1119 C 0.71849 0.87949 0.05149 0.0
N1120 N 0.72358 0.93154 0.05681 0.0
N1121 N 0.72737 0.83283 0.15733 0.0
C1122 C 0.7183 0.90449 0.08059 0.0
C1123 C 0.72043 0.85408 0.13288 0.0
N1124 N 0.70575 0.92194 0.1605 0.0
N1125 N 0.71449 0.82774 0.05214 0.0
H1126 H 0.72957 0.83261 0.1965 0.0
H1127 H 0.7337 0.81728 0.13858 0.0
H1128 H 0.71255 0.82634 0.01289 0.0
H1129 H 0.71072 0.80694 0.06945 0.0
H1130 H 0.70013 0.93817 0.14267 0.0
H1131 H 0.70191 0.92054 0.1995 0.0
H1132 H 0.72694 0.95163 0.07616 0.0
H1133 H 0.72755 0.9347 0.01794 0.0
C1134 C 0.20976 0.86461 0.08637 0.0
C1135 C 0.18469 0.84157 0.0597 0.0
C1136 C 0.16353 0.81621 0.14235 0.0
C1137 C 0.18685 0.84082 0.16934 0.0
N1138 N 0.22942 0.89131 0.16583 0.0
N1139 N 0.13438 0.79871 0.06466 0.0
C1140 C 0.20921 0.8658 0.14087 0.0
C1141 C 0.16065 0.81833 0.08852 0.0
N1142 N 0.23473 0.88495 0.05966 0.0
N1143 N 0.14448 0.79021 0.16802 0.0
H1144 H 0.13123 0.79972 0.02586 0.0
H1145 H 0.11468 0.78342 0.08388 0.0
H1146 H 0.14597 0.78768 0.20693 0.0
H1147 H 0.12921 0.77017 0.1502 0.0
H1148 H 0.25519 0.9001 0.07654 0.0
H1149 H 0.23599 0.88489 0.02027 0.0
H1150 H 0.24399 0.91167 0.1476 0.0
H1151 H 0.22976 0.89307 0.20516 0.0
C1152 C 0.2001 0.34636 0.08158 0.0
C1153 C 0.2255 0.34537 0.05405 0.0
C1154 C 0.25228 0.35053 0.13633 0.0
C1155 C 0.22597 0.34898 0.16423 0.0
N1156 N 0.17243 0.33963 0.16196 0.0
N1157 N 0.27226 0.33828 0.05865 0.0
C1158 C 0.19922 0.34527 0.13627 0.0
C1159 C 0.25052 0.34504 0.08258 0.0
N1160 N 0.17695 0.34911 0.05549 0.0
N1161 N 0.27952 0.3582 0.16091 0.0
H1162 H 0.27134 0.33326 0.02016 0.0
H1163 H 0.28928 0.33459 0.07784 0.0
H1164 H 0.2819 0.36272 0.19961 0.0
H1165 H 0.30031 0.36288 0.14218 0.0
H1166 H 0.15956 0.35345 0.07274 0.0
H1167 H 0.17643 0.34941 0.0161 0.0
H1168 H 0.15122 0.33336 0.14438 0.0
H1169 H 0.17083 0.3386 0.20133 0.0
C1170 C 0.39926 0.13766 0.99305 0.0
C1171 C 0.4015 0.16465 0.01796 0.0
C1172 C 0.41102 0.19219 0.93766 0.0
C1173 C 0.40995 0.16551 0.9125 0.0
N1174 N 0.41171 0.11615 0.91785 0.0
N1175 N 0.41836 0.21968 0.01675 0.0
C1176 C 0.40694 0.13928 0.94085 0.0
C1177 C 0.41055 0.19267 0.99111 0.0
N1178 N 0.38864 0.11029 0.01867 0.0
N1179 N 0.41017 0.21618 0.91102 0.0
H1180 H 0.4184 0.22084 0.05614 0.0
H1181 H 0.42772 0.24116 0.99906 0.0
H1182 H 0.40963 0.21691 0.8718 0.0
H1183 H 0.4071 0.23428 0.92802 0.0
H1184 H 0.38333 0.08922 1.00106 0.0
H1185 H 0.38311 0.10839 0.05715 0.0
H1186 H 0.4124 0.09768 0.9375 0.0
H1187 H 0.41806 0.11713 0.8798 0.0
C1188 C 0.8608 0.20449 0.94641 0.0
C1189 C 0.88283 0.22912 0.91745 0.0
C1190 C 0.91078 0.25322 0.99426 0.0
C1191 C 0.8878 0.22937 0.023 0.0
N1192 N 0.83674 0.18776 0.02832 0.0
N1193 N 0.92449 0.28027 0.91396 0.0
C1194 C 0.86123 0.20701 0.99956 0.0
C1195 C 0.90643 0.25471 0.94152 0.0
N1196 N 0.841 0.17775 0.92367 0.0
N1197 N 0.93733 0.27336 0.01681 0.0
H1198 H 0.92158 0.282 0.87522 0.0
H1199 H 0.94031 0.30065 0.93021 0.0
H1200 H 0.94103 0.27303 0.05555 0.0
H1201 H 0.95638 0.28905 0.99668 0.0
H1202 H 0.82705 0.15792 0.9438 0.0
H1203 H 0.84064 0.17404 0.88483 0.0
H1204 H 0.81603 0.17212 0.01287 0.0
H1205 H 0.83612 0.18973 0.06753 0.0
C1206 C 0.78438 0.65295 0.98425 0.0
C1207 C 0.79813 0.63767 0.01337 0.0
C1208 C 0.80995 0.61631 0.93674 0.0
C1209 C 0.80463 0.63858 0.90873 0.0
N1210 N 0.78283 0.67535 0.90283 0.0
N1211 N 0.81936 0.60043 0.01926 0.0
C1212 C 0.78967 0.65542 0.93128 0.0
C1213 C 0.80849 0.61707 0.99023 0.0
N1214 N 0.76792 0.66638 1.00819 0.0
N1215 N 0.81738 0.59539 0.91188 0.0
H1216 H 0.81771 0.59978 0.05855 0.0
H1217 H 0.83059 0.58776 1.00473 0.0
H1218 H 0.81862 0.59487 0.87248 0.0
H1219 H 0.81958 0.57709 0.92956 0.0
H1220 H 0.75563 0.67654 0.98939 0.0
H1221 H 0.76454 0.66475 0.04736 0.0
H1222 H 0.77502 0.69079 0.91799 0.0
H1223 H 0.78599 0.67717 0.86371 0.0
C1224 C 0.37117 0.23364 0.39608 0.0
C1225 C 0.3563 0.2074 0.36527 0.0
C1226 C 0.3328 0.17593 0.43999 0.0
C1227 C 0.35354 0.20014 0.47031 0.0
N1228 N 0.39223 0.25265 0.47857 0.0
N1229 N 0.3209 0.15382 0.3561 0.0
C1230 C 0.3721 0.22952 0.449 0.0
C1231 C 0.33588 0.17871 0.38663 0.0
N1232 N 0.38519 0.26216 0.37424 0.0
N1233 N 0.31066 0.15027 0.46258 0.0
H1234 H 0.32234 0.15516 0.31679 0.0
H1235 H 0.30791 0.13158 0.36956 0.0
H1236 H 0.30812 0.14799 0.50181 0.0
H1237 H 0.29319 0.13268 0.44297 0.0
H1238 H 0.39442 0.28259 0.3948 0.0
H1239 H 0.38493 0.26538 0.33525 0.0
H1240 H 0.40894 0.2733 0.46412 0.0
H1241 H 0.39349 0.25059 0.51759 0.0
C1242 C 0.83275 0.12451 0.39311 0.0
C1243 C 0.85868 0.14493 0.36485 0.0
C1244 C 0.88782 0.16545 0.44153 0.0
C1245 C 0.86184 0.14524 0.47035 0.0
N1246 N 0.8132 0.10001 0.47421 0.0
N1247 N 0.91351 0.17654 0.35999 0.0
C1248 C 0.83547 0.12277 0.44622 0.0
C1249 C 0.88721 0.16236 0.38846 0.0
N1250 N 0.80531 0.10805 0.36949 0.0
N1251 N 0.91188 0.1893 0.46402 0.0
H1252 H 0.91361 0.17513 0.32066 0.0
H1253 H 0.93545 0.18664 0.37582 0.0
H1254 H 0.91298 0.19366 0.5027 0.0
H1255 H 0.92952 0.2066 0.44359 0.0
H1256 H 0.78461 0.09548 0.38877 0.0
H1257 H 0.80302 0.10826 0.33031 0.0
H1258 H 0.79462 0.08153 0.45834 0.0
H1259 H 0.81494 0.09817 0.51326 0.0
C1260 C 0.94276 0.68689 0.47362 0.0
C1261 C 0.94529 0.71409 0.49785 0.0
C1262 C 0.96668 0.74312 0.42053 0.0
C1263 C 0.95448 0.71498 0.39375 0.0
N1264 N 0.93352 0.65917 0.39489 0.0
N1265 N 0.96257 0.76932 0.49655 0.0
C1266 C 0.94439 0.68655 0.42026 0.0
C1267 C 0.95911 0.74286 0.47248 0.0
N1268 N 0.93774 0.66131 0.50175 0.0
N1269 N 0.98351 0.76988 0.395 0.0
H1270 H 0.95712 0.76989 0.53465 0.0
H1271 H 0.96936 0.7904 0.47811 0.0
H1272 H 0.98845 0.76985 0.35644 0.0
H1273 H 0.99472 0.79119 0.41265 0.0
H1274 H 0.93813 0.64144 0.48655 0.0
H1275 H 0.93638 0.66131 0.54118 0.0
H1276 H 0.92177 0.63786 0.41259 0.0
H1277 H 0.93511 0.65753 0.35589 0.0
C1278 C 0.11505 0.42221 0.9918 0.0
C1279 C 0.10001 0.43401 0.95768 0.0
C1280 C 0.1212 0.416 0.88589 0.0
C1281 C 0.13834 0.40663 0.91993 0.0
N1282 N 0.15491 0.40444 1.00495 0.0
N1283 N 0.09207 0.44612 0.8722 0.0
C1284 C 0.13616 0.41076 0.97284 0.0
C1285 C 0.10388 0.43186 0.90465 0.0
N1286 N 0.10848 0.42123 0.04237 0.0
N1287 N 0.12123 0.40944 0.83559 0.0
H1288 H 0.07932 0.45787 0.88448 0.0
H1289 H 0.09683 0.44843 0.83356 0.0
H1290 H 0.13449 0.39895 0.82029 0.0
H1291 H 0.10656 0.41239 0.80953 0.0
H1292 H 0.11595 0.40994 0.06882 0.0
H1293 H 0.09333 0.42955 0.05754 0.0
H1294 H 0.15706 0.41008 0.04318 0.0
H1295 H 0.17026 0.39563 0.99262 0.0
C1296 C 0.6379 0.70839 0.88344 0.0
C1297 C 0.6518 0.73305 0.91825 0.0
C1298 C 0.63456 0.69548 0.98898 0.0
C1299 C 0.62228 0.67071 0.95398 0.0
N1300 N 0.61398 0.65305 0.86779 0.0
N1301 N 0.66547 0.75028 1.00379 0.0
C1302 C 0.62441 0.67709 0.90115 0.0
C1303 C 0.65064 0.72658 0.97096 0.0
N1304 N 0.6371 0.71501 0.83336 0.0
N1305 N 0.63039 0.68923 0.03964 0.0
H1306 H 0.67605 0.77329 0.99236 0.0
H1307 H 0.66887 0.74732 0.04181 0.0
H1308 H 0.6199 0.66686 0.05415 0.0
H1309 H 0.63554 0.70599 0.06746 0.0
H1310 H 0.62445 0.6988 0.80645 0.0
H1311 H 0.64779 0.73736 0.8188 0.0
H1312 H 0.618 0.65549 0.82899 0.0
H1313 H 0.60243 0.63008 0.8792 0.0
C1314 C 0.33774 0.92064 0.9657 0.0
C1315 C 0.33019 0.91315 0.91401 0.0
C1316 C 0.38596 0.93698 0.89262 0.0
C1317 C 0.39328 0.9472 0.94335 0.0
N1318 N 0.37559 0.95243 0.02687 0.0
N1319 N 0.3471 0.91832 0.827 0.0
C1320 C 0.36897 0.94 0.97952 0.0
C1321 C 0.35434 0.92243 0.87713 0.0
N1322 N 0.31516 0.90837 1.00193 0.0
N1323 N 0.40925 0.94023 0.85954 0.0
H1324 H 0.32439 0.9077 0.81419 0.0
H1325 H 0.36338 0.92764 0.79805 0.0
H1326 H 0.43245 0.95036 0.86977 0.0
H1327 H 0.40551 0.93046 0.82363 0.0
H1328 H 0.31956 0.91019 0.04055 0.0
H1329 H 0.29226 0.89387 0.99341 0.0
H1330 H 0.35872 0.95098 0.05324 0.0
H1331 H 0.39803 0.9665 0.03846 0.0
C1332 C 0.47612 0.08416 0.6467 0.0
C1333 C 0.47709 0.07857 0.594 0.0
C1334 C 0.44764 0.10898 0.57779 0.0
C1335 C 0.44477 0.11289 0.6306 0.0
N1336 N 0.45301 0.10097 0.71588 0.0
N1337 N 0.45786 0.0803 0.5106 0.0
C1338 C 0.45805 0.09945 0.66522 0.0
C1339 C 0.46106 0.08937 0.56 0.0
N1340 N 0.49298 0.07532 0.67895 0.0
N1341 N 0.43848 0.12489 0.54415 0.0
H1342 H 0.46699 0.0659 0.4958 0.0
H1343 H 0.44338 0.08432 0.48546 0.0
H1344 H 0.42848 0.13934 0.5552 0.0
H1345 H 0.4435 0.12618 0.5056 0.0
H1346 H 0.49622 0.08154 0.71689 0.0
H1347 H 0.50534 0.06308 0.66698 0.0
H1348 H 0.4591 0.08902 0.74312 0.0
H1349 H 0.44078 0.11271 0.73059 0.0
C1350 C 0.93875 0.32275 0.65655 0.0
C1351 C 0.92741 0.29764 0.62211 0.0
C1352 C 0.94801 0.33449 0.55086 0.0
C1353 C 0.95741 0.35972 0.58512 0.0
N1354 N 0.95923 0.37815 0.6703 0.0
N1355 N 0.91854 0.27938 0.53637 0.0
C1356 C 0.95209 0.35386 0.63794 0.0
C1357 C 0.93139 0.30351 0.56919 0.0
N1358 N 0.9373 0.31676 0.70728 0.0
N1359 N 0.9555 0.34019 0.50074 0.0
H1360 H 0.90718 0.25649 0.54834 0.0
H1361 H 0.91734 0.28196 0.49752 0.0
H1362 H 0.96666 0.36243 0.48585 0.0
H1363 H 0.95257 0.32311 0.47432 0.0
H1364 H 0.94804 0.33352 0.73453 0.0
H1365 H 0.92702 0.29447 0.72219 0.0
H1366 H 0.95293 0.3758 0.70835 0.0
H1367 H 0.96992 0.40109 0.65842 0.0
C1368 C 0.74138 0.62081 0.65115 0.0
C1369 C 0.76787 0.63036 0.61868 0.0
C1370 C 0.73263 0.60924 0.54595 0.0
C1371 C 0.7066 0.59721 0.57926 0.0
N1372 N 0.68708 0.58664 0.66468 0.0
N1373 N 0.78853 0.63126 0.5349 0.0
C1374 C 0.71132 0.60161 0.63217 0.0
C1375 C 0.76336 0.62376 0.56599 0.0
N1376 N 0.74459 0.63092 0.69995 0.0
N1377 N 0.72793 0.60784 0.49496 0.0
H1378 H 0.81115 0.64337 0.54731 0.0
H1379 H 0.78717 0.6239 0.4976 0.0
H1380 H 0.706 0.59714 0.47909 0.0
H1381 H 0.74536 0.61917 0.46847 0.0
H1382 H 0.72594 0.62752 0.72377 0.0
H1383 H 0.76568 0.64567 0.71517 0.0
H1384 H 0.68955 0.58597 0.70367 0.0
H1385 H 0.66487 0.5723 0.6524 0.0
C1386 C 0.91869 0.61528 0.06945 0.0
C1387 C 0.92439 0.6259 0.12023 0.0
C1388 C 0.95661 0.59772 0.13143 0.0
C1389 C 0.95283 0.58906 0.07976 0.0
N1390 N 0.93353 0.59261 0.99755 0.0
N1391 N 0.95354 0.63167 0.19665 0.0
C1392 C 0.93474 0.5987 0.04817 0.0
C1393 C 0.94474 0.61838 0.15032 0.0
N1394 N 0.89732 0.62043 0.04196 0.0
N1395 N 0.97074 0.58535 0.16312 0.0
H1396 H 0.94487 0.64614 0.21268 0.0
H1397 H 0.97122 0.6303 0.21757 0.0
H1398 H 0.98 0.57041 0.15079 0.0
H1399 H 0.97093 0.58769 0.20227 0.0
H1400 H 0.88969 0.61082 1.00659 0.0
H1401 H 0.8855 0.63272 0.05606 0.0
H1402 H 0.92363 0.6017 0.97129 0.0
H1403 H 0.94446 0.58008 0.98112 0.0
C1404 C 0.4603 0.3504 0.14335 0.0
C1405 C 0.4595 0.32533 0.11366 0.0
C1406 C 0.49407 0.3625 0.05052 0.0
C1407 C 0.49309 0.38743 0.07848 0.0
N1408 N 0.47329 0.4052 0.14945 0.0
N1409 N 0.47342 0.30706 0.03704 0.0
C1410 C 0.47562 0.38133 0.12435 0.0
C1411 C 0.47593 0.33133 0.06678 0.0
N1412 N 0.44717 0.34464 0.19062 0.0
N1413 N 0.51276 0.3687 1.00862 0.0
H1414 H 0.46147 0.28417 0.04857 0.0
H1415 H 0.48151 0.30931 0.99993 0.0
H1416 H 0.52523 0.39094 0.99442 0.0
H1417 H 0.5175 0.35222 0.98953 0.0
H1418 H 0.44967 0.36175 0.21676 0.0
H1419 H 0.43549 0.32243 0.20541 0.0
H1420 H 0.45811 0.40228 0.17954 0.0
H1421 H 0.48534 0.42818 0.13835 0.0
C1422 C 0.72627 0.12744 0.07216 0.0
C1423 C 0.73475 0.12344 0.12203 0.0
C1424 C 0.67954 0.09183 0.14245 0.0
C1425 C 0.67156 0.09302 0.09103 0.0
N1426 N 0.68861 0.10784 1.00504 0.0
N1427 N 0.71972 0.09858 0.20325 0.0
C1428 C 0.69531 0.10975 0.05538 0.0
C1429 C 0.71141 0.10468 0.15677 0.0
N1430 N 0.74759 0.14902 0.04122 0.0
N1431 N 0.65661 0.07946 0.17809 0.0
H1432 H 0.7426 0.10799 0.21537 0.0
H1433 H 0.70434 0.08238 0.22822 0.0
H1434 H 0.63318 0.07034 0.1693 0.0
H1435 H 0.6607 0.08076 0.21679 0.0
H1436 H 0.7422 0.15533 1.0063 0.0
H1437 H 0.77004 0.16288 0.05284 0.0
H1438 H 0.70547 0.11672 0.9768 0.0
H1439 H 0.66648 0.09493 0.99109 0.0
C1440 C 0.61844 0.96081 0.49422 0.0
C1441 C 0.61056 0.97908 0.46009 0.0
C1442 C 0.64008 0.96773 0.39235 0.0
C1443 C 0.64568 0.94742 0.42528 0.0
N1444 N 0.63856 0.92254 0.50646 0.0
N1445 N 0.61135 0.99758 0.37505 0.0
C1446 C 0.63442 0.94342 0.47599 0.0
C1447 C 0.62082 0.98198 0.40876 0.0
N1448 N 0.61128 0.96073 0.54441 0.0
N1449 N 0.65371 0.97387 0.34545 0.0
H1450 H 0.59893 0.00985 0.38571 0.0
H1451 H 0.61421 0.997 0.33607 0.0
H1452 H 0.66688 0.963 0.33122 0.0
H1453 H 0.65393 0.99131 0.32188 0.0
H1454 H 0.61898 0.9506 0.57244 0.0
H1455 H 0.59936 0.97286 0.55879 0.0
H1456 H 0.62814 0.9158 0.54183 0.0
H1457 H 0.65114 0.9104 0.4951 0.0
C1458 C 0.09679 0.66806 0.494 0.0
C1459 C 0.08817 0.6432 0.45921 0.0
C1460 C 0.10872 0.68068 0.38889 0.0
C1461 C 0.11923 0.70547 0.42401 0.0
N1462 N 0.12594 0.72294 0.51036 0.0
N1463 N 0.08853 0.62541 0.37415 0.0
C1464 C 0.11396 0.69915 0.4767 0.0
C1465 C 0.09482 0.64945 0.40677 0.0
N1466 N 0.08795 0.66191 0.54359 0.0
N1467 N 0.11162 0.68707 0.33823 0.0
H1468 H 0.07764 0.60238 0.38551 0.0
H1469 H 0.09576 0.62805 0.33652 0.0
H1470 H 0.12268 0.70943 0.32382 0.0
H1471 H 0.10142 0.67057 0.31038 0.0
H1472 H 0.09025 0.67877 0.57011 0.0
H1473 H 0.07628 0.63955 0.5578 0.0
H1474 H 0.12628 0.71993 0.54925 0.0
H1475 H 0.13738 0.74598 0.49924 0.0
C1476 C 0.36726 0.43309 0.47077 0.0
C1477 C 0.36177 0.42232 0.41999 0.0
C1478 C 0.41834 0.44355 0.4054 0.0
C1479 C 0.42377 0.45607 0.45511 0.0
N1480 N 0.4035 0.4657 0.53346 0.0
N1481 N 0.38198 0.42062 0.33695 0.0
C1482 C 0.39819 0.45163 0.48728 0.0
C1483 C 0.38734 0.42839 0.38683 0.0
N1484 N 0.34282 0.42477 0.50375 0.0
N1485 N 0.4429 0.44576 0.3761 0.0
H1486 H 0.35979 0.4092 0.32227 0.0
H1487 H 0.39925 0.42733 0.30931 0.0
H1488 H 0.46581 0.45764 0.38747 0.0
H1489 H 0.44069 0.43421 0.34199 0.0
H1490 H 0.34513 0.42863 0.54253 0.0
H1491 H 0.31998 0.41188 0.49289 0.0
H1492 H 0.38617 0.46659 0.55655 0.0
H1493 H 0.42566 0.47843 0.5475 0.0
C1494 C 0.821 0.7628 0.30862 0.0
C1495 C 0.81608 0.74999 0.25899 0.0
C1496 C 0.77845 0.77171 0.24372 0.0
C1497 C 0.78459 0.78571 0.29234 0.0
N1498 N 0.81316 0.79667 0.36992 0.0
N1499 N 0.79204 0.74401 0.17776 0.0
C1500 C 0.80626 0.78176 0.32441 0.0
C1501 C 0.79524 0.75492 0.22619 0.0
N1502 N 0.83931 0.75625 0.34129 0.0
N1503 N 0.75628 0.7743 0.21445 0.0
H1504 H 0.8028 0.73054 0.16444 0.0
H1505 H 0.78011 0.74945 0.14973 0.0
H1506 H 0.74472 0.78759 0.22483 0.0
H1507 H 0.748 0.76216 0.18112 0.0
H1508 H 0.84086 0.76121 0.37972 0.0
H1509 H 0.85166 0.74388 0.33085 0.0
H1510 H 0.83163 0.79856 0.3923 0.0
H1511 H 0.80133 0.80879 0.38461 0.0
C1512 C 0.28407 0.02639 0.23542 0.0
C1513 C 0.29911 0.05053 0.27072 0.0
C1514 C 0.27883 0.01259 0.34054 0.0
C1515 C 0.26223 0.98893 0.30541 0.0
N1516 N 0.2455 0.97402 0.22004 0.0
N1517 N 0.30749 0.0674 0.35737 0.0
C1518 C 0.26381 0.99612 0.25302 0.0
C1519 C 0.29556 0.04379 0.32345 0.0
N1520 N 0.29024 0.03208 0.18494 0.0
N1521 N 0.27935 1.00506 0.39022 0.0
H1522 H 0.32052 0.09025 0.34647 0.0
H1523 H 0.30275 0.06481 0.39601 0.0
H1524 H 0.26664 0.98283 0.40435 0.0
H1525 H 0.29386 0.02022 0.41686 0.0
H1526 H 0.28291 0.01496 0.15746 0.0
H1527 H 0.30499 0.05372 0.17063 0.0
H1528 H 0.24286 0.9784 0.18231 0.0
H1529 H 0.2309 0.95159 0.23135 0.0
C1530 C 0.07042 0.27654 0.25085 0.0
C1531 C 0.07741 0.28259 0.30301 0.0
C1532 C 0.02142 0.25809 0.32321 0.0
C1533 C 0.01437 0.2538 0.27077 0.0
N1534 N 0.0322 0.26351 0.18429 0.0
N1535 N 0.05967 0.28248 0.38851 0.0
C1536 C 0.03894 0.2642 0.23451 0.0
C1537 C 0.05288 0.27432 0.33905 0.0
N1538 N 0.09396 0.28224 0.21684 0.0
N1539 N 0.99803 0.24567 0.35807 0.0
H1540 H 0.08225 0.29314 0.40185 0.0
H1541 H 0.04313 0.28061 0.4158 0.0
H1542 H 0.97485 0.23433 0.34806 0.0
H1543 H 1.00156 0.24462 0.39663 0.0
H1544 H 0.09052 0.27516 0.1793 0.0
H1545 H 0.1172 0.29222 0.22697 0.0
H1546 H 0.0488 0.27375 0.15612 0.0
H1547 H 0.00963 0.25489 0.1709 0.0
C1548 C 0.34044 0.2471 0.81874 0.0
C1549 C 0.33009 0.23019 0.77308 0.0
C1550 C 0.28697 0.24519 0.77265 0.0
C1551 C 0.30043 0.26646 0.8126 0.0
N1552 N 0.3439 0.29102 0.86825 0.0
N1553 N 0.29675 0.21989 0.70046 0.0
C1554 C 0.32817 0.26822 0.83453 0.0
C1555 C 0.30427 0.23116 0.74826 0.0
N1556 N 0.36185 0.24284 0.84731 0.0
N1557 N 0.25719 0.23761 0.75868 0.0
H1558 H 0.30911 0.21021 0.68027 0.0
H1559 H 0.28006 0.22295 0.67918 0.0
H1560 H 0.2431 0.24602 0.77742 0.0
H1561 H 0.2455 0.22026 0.73266 0.0
H1562 H 0.3682 0.25231 0.88318 0.0
H1563 H 0.37092 0.22739 0.83697 0.0
H1564 H 0.36576 0.29516 0.88144 0.0
H1565 H 0.33656 0.30768 0.87923 0.0
C1566 C 0.80492 0.05554 0.72705 0.0
C1567 C 0.81506 0.08011 0.76255 0.0
C1568 C 0.79609 0.04199 0.83227 0.0
C1569 C 0.78446 0.01746 0.79668 0.0
N1570 N 0.77429 1.00095 0.71011 0.0
N1571 N 0.81705 0.09721 0.84853 0.0
C1572 C 0.78791 0.02433 0.74401 0.0
C1573 C 0.80968 0.07341 0.81509 0.0
N1574 N 0.8123 0.06204 0.67704 0.0
N1575 N 0.79481 0.03516 0.88264 0.0
H1576 H 0.82768 0.12031 0.83745 0.0
H1577 H 0.81085 0.09428 0.88663 0.0
H1578 H 0.7843 0.01264 0.89658 0.0
H1579 H 0.80581 0.05145 0.91044 0.0
H1580 H 0.80889 0.04533 0.64967 0.0
H1581 H 0.82385 0.0845 0.66314 0.0
H1582 H 0.77274 1.00441 0.67161 0.0
H1583 H 0.76248 0.9779 0.72095 0.0
C1584 C 0.01844 0.76603 0.84712 0.0
C1585 C 0.04382 0.77028 0.81465 0.0
C1586 C 0.007 0.74045 0.74836 0.0
C1587 C 0.98139 0.73534 0.78135 0.0
N1588 N 0.96352 0.73764 0.86598 0.0
N1589 N 0.06248 0.75766 0.7372 0.0
C1590 C 0.98743 0.74658 0.83187 0.0
C1591 C 0.03808 0.75641 0.76607 0.0
N1592 N 0.02396 0.78116 0.89235 0.0
N1593 N 1.00182 0.73055 0.69948 0.0
H1594 H 0.08549 0.76996 0.74778 0.0
H1595 H 0.0601 0.74483 0.70445 0.0
H1596 H 0.98026 0.71557 0.68631 0.0
H1597 H 0.01881 0.73787 0.67132 0.0
H1598 H 0.00662 0.78208 0.91539 0.0
H1599 H 0.04622 0.79477 0.90525 0.0
H1600 H 0.96646 0.74217 0.90453 0.0
H1601 H 0.94077 0.72321 0.85647 0.0
loop_
_geom_bond_atom_site_label_1
_geom_bond_atom_site_label_2
_geom_bond_distance
_geom_bond_site_symmetry_2
_ccdc_geom_bond_type
C0 C1 1.443 . S
C0 N4 1.376 . S
C0 C38 1.378 1_655 S
C1 C0 1.443 . S
C1 C2 1.340 . S
C1 H41 0.951 . S
C2 C1 1.340 . S
C2 C3 1.439 . S
C2 H42 0.950 . S
C3 C2 1.439 . S
C3 N4 1.374 . S
C3 C37 1.395 . S
N4 C0 1.376 . S
N4 C3 1.374 . S
N4 Co5 2.002 1_655 S
Co5 N4 2.002 1_455 S
Co5 N6 1.987 1_454 S
Co5 N11 2.014 1_554 S
Co5 N16 2.002 . S
Co5 N21 2.295 1_554 S
Co5 N27 2.270 1_455 S
N6 Co5 1.987 1_656 S
N6 C7 1.376 . S
N6 C10 1.383 . S
C7 N6 1.376 . S
C7 C8 1.446 . S
C7 C37 1.391 1_556 S
C8 C7 1.446 . S
C8 C9 1.339 . S
C8 H43 0.949 . S
C9 C8 1.339 . S
C9 C10 1.439 . S
C9 H44 0.950 . S
C10 N6 1.383 . S
C10 C9 1.439 . S
C10 C39 1.386 1_655 S
N11 Co5 2.014 1_556 S
N11 C12 1.376 . S
N11 C15 1.374 . S
C12 N11 1.376 . S
C12 C13 1.443 . S
C12 C39 1.395 . S
C13 C12 1.443 . S
C13 C14 1.340 . S
C13 H45 0.951 . S
C14 C13 1.340 . S
C14 C15 1.439 . S
C14 H46 0.950 . S
C15 N11 1.374 . S
C15 C14 1.439 . S
C15 C40 1.395 1_556 S
N16 Co5 2.002 . S
N16 C17 1.376 . S
N16 C20 1.383 . S
C17 N16 1.376 . S
C17 C18 1.446 . S
C17 C40 1.391 . S
C18 C17 1.446 . S
C18 C19 1.339 . S
C18 H47 0.949 . S
C19 C18 1.339 . S
C19 C20 1.439 . S
C19 H48 0.950 . S
C20 N16 1.383 . S
C20 C19 1.439 . S
C20 C38 1.403 . S
N21 Co5 2.295 1_556 S
N21 C24 1.332 . S
N21 C26 1.332 . S
C22 C23 1.386 . S
C22 C25 1.388 . S
C23 C22 1.386 . S
C23 C24 1.382 . S
C23 H49 0.950 . S
C24 N21 1.332 . S
C24 C23 1.382 . S
C24 H35 0.952 1_556 S
C25 C22 1.388 . S
C25 C26 1.382 . S
C25 H50 0.950 . S
C26 N21 1.332 . S
C26 C25 1.382 . S
C26 H36 0.948 1_455 S
N27 Co5 2.270 1_655 S
N27 C31 1.332 . S
N27 C32 1.332 . S
C28 C29 1.388 . S
C28 C32 1.382 . S
C28 H51 0.950 . S
C29 C28 1.388 . S
C29 C30 1.386 . S
C30 C29 1.386 . S
C30 C31 1.382 . S
C30 H52 0.950 . S
C31 N27 1.332 . S
C31 C30 1.382 . S
C31 H33 0.952 . S
C32 N27 1.332 . S
C32 C28 1.382 . S
C32 H34 0.948 1_655 S
H33 C31 0.952 . S
H34 C32 0.948 1_455 S
H35 C24 0.952 1_554 S
H36 C26 0.948 1_655 S
C37 C3 1.395 . S
C37 C7 1.391 1_554 S
C38 C0 1.378 1_455 S
C38 C20 1.403 . S
C39 C10 1.386 1_455 S
C39 C12 1.395 . S
C40 C15 1.395 1_554 S
C40 C17 1.391 . S
H41 C1 0.951 . S
H42 C2 0.950 . S
H43 C8 0.949 . S
H44 C9 0.950 . S
H45 C13 0.951 . S
H46 C14 0.950 . S
H47 C18 0.949 . S
H48 C19 0.950 . S
H49 C23 0.950 . S
H50 C25 0.950 . S
H51 C28 0.950 . S
H52 C30 0.950 . S
C53 C54 1.443 . S
C53 N57 1.376 . S
C53 C91 1.389 . S
C54 C53 1.443 . S
C54 C55 1.340 . S
C54 H94 0.951 . S
C55 C54 1.340 . S
C55 C56 1.439 . S
C55 H95 0.950 . S
C56 C55 1.439 . S
C56 N57 1.374 . S
C56 C90 1.395 1_556 S
N57 C53 1.376 . S
N57 C56 1.374 . S
N57 Co58 2.008 1_556 S
Co58 N57 2.008 1_554 S
Co58 N59 1.995 . S
Co58 N64 2.008 . S
Co58 N69 1.995 1_554 S
Co58 N74 2.282 . S
Co58 N80 2.282 1_554 S
N59 Co58 1.995 . S
N59 C60 1.376 . S
N59 C63 1.383 . S
C60 N59 1.376 . S
C60 C61 1.446 . S
C60 C90 1.391 . S
C61 C60 1.446 . S
C61 C62 1.339 . S
C61 H96 0.949 . S
C62 C61 1.339 . S
C62 C63 1.439 . S
C62 H97 0.950 . S
C63 N59 1.383 . S
C63 C62 1.439 . S
C63 C92 1.392 . S
N64 Co58 2.008 . S
N64 C65 1.376 . S
N64 C68 1.374 . S
C65 N64 1.376 . S
C65 C66 1.443 . S
C65 C92 1.389 . S
C66 C65 1.443 . S
C66 C67 1.340 . S
C66 H98 0.951 . S
C67 C66 1.340 . S
C67 C68 1.439 . S
C67 H99 0.950 . S
C68 N64 1.374 . S
C68 C67 1.439 . S
C68 C93 1.395 . S
N69 Co58 1.995 1_556 S
N69 C70 1.376 . S
N69 C73 1.383 . S
C70 N69 1.376 . S
C70 C71 1.446 . S
C70 C93 1.391 1_556 S
C71 C70 1.446 . S
C71 C72 1.339 . S
C71 H100 0.949 . S
C72 C71 1.339 . S
C72 C73 1.439 . S
C72 H101 0.950 . S
C73 N69 1.383 . S
C73 C72 1.439 . S
C73 C91 1.392 . S
N74 Co58 2.282 . S
N74 C77 1.332 . S
N74 C79 1.332 . S
C75 C76 1.386 . S
C75 C78 1.388 . S
C76 C75 1.386 . S
C76 C77 1.382 . S
C76 H102 0.950 . S
C77 N74 1.332 . S
C77 C76 1.382 . S
C77 H88 0.952 . S
C78 C75 1.388 . S
C78 C79 1.382 . S
C78 H103 0.950 . S
C79 N74 1.332 . S
C79 C78 1.382 . S
C79 H89 0.948 . S
N80 Co58 2.282 1_556 S
N80 C84 1.332 . S
N80 C85 1.332 . S
C81 C82 1.388 . S
C81 C85 1.382 . S
C81 H104 0.950 . S
C82 C81 1.388 . S
C82 C83 1.386 . S
C83 C82 1.386 . S
C83 C84 1.382 . S
C83 H105 0.950 . S
C84 N80 1.332 . S
C84 C83 1.382 . S
C84 H86 0.952 1_556 S
C85 N80 1.332 . S
C85 C81 1.382 . S
C85 H87 0.948 . S
H86 C84 0.952 1_554 S
H87 C85 0.948 . S
H88 C77 0.952 . S
H89 C79 0.948 . S
C90 C56 1.395 1_554 S
C90 C60 1.391 . S
C91 C53 1.389 . S
C91 C73 1.392 . S
C92 C63 1.392 . S
C92 C65 1.389 . S
C93 C68 1.395 . S
C93 C70 1.391 1_554 S
H94 C54 0.951 . S
H95 C55 0.950 . S
H96 C61 0.949 . S
H97 C62 0.950 . S
H98 C66 0.951 . S
H99 C67 0.950 . S
H100 C71 0.949 . S
H101 C72 0.950 . S
H102 C76 0.950 . S
H103 C78 0.950 . S
H104 C81 0.950 . S
H105 C83 0.950 . S
C106 C107 1.443 . S
C106 N110 1.376 . S
C106 C144 1.389 . S
C107 C106 1.443 . S
C107 C108 1.340 . S
C107 H147 0.951 . S
C108 C107 1.340 . S
C108 C109 1.439 . S
C108 H148 0.950 . S
C109 C108 1.439 . S
C109 N110 1.374 . S
C109 C143 1.395 . S
N110 C106 1.376 . S
N110 C109 1.374 . S
N110 Co111 2.008 . S
Co111 N110 2.008 . S
Co111 N112 1.995 1_554 S
Co111 N117 2.008 1_544 S
Co111 N122 1.995 1_545 S
Co111 N127 2.282 1_544 S
Co111 N133 2.282 . S
N112 Co111 1.995 1_556 S
N112 C113 1.376 . S
N112 C116 1.383 . S
C113 N112 1.376 . S
C113 C114 1.446 . S
C113 C143 1.391 1_556 S
C114 C113 1.446 . S
C114 C115 1.339 . S
C114 H149 0.949 . S
C115 C114 1.339 . S
C115 C116 1.439 . S
C115 H150 0.950 . S
C116 N112 1.383 . S
C116 C115 1.439 . S
C116 C145 1.392 . S
N117 Co111 2.008 1_566 S
N117 C118 1.376 . S
N117 C121 1.374 . S
C118 N117 1.376 . S
C118 C119 1.443 . S
C118 C145 1.389 1_565 S
C119 C118 1.443 . S
C119 C120 1.340 . S
C119 H151 0.951 . S
C120 C119 1.340 . S
C120 C121 1.439 . S
C120 H152 0.950 . S
C121 N117 1.374 . S
C121 C120 1.439 . S
C121 C146 1.395 1_556 S
N122 Co111 1.995 1_565 S
N122 C123 1.376 . S
N122 C126 1.383 . S
C123 N122 1.376 . S
C123 C124 1.446 . S
C123 C146 1.391 . S
C124 C123 1.446 . S
C124 C125 1.339 . S
C124 H153 0.949 . S
C125 C124 1.339 . S
C125 C126 1.439 . S
C125 H154 0.950 . S
C126 N122 1.383 . S
C126 C125 1.439 . S
C126 C144 1.392 1_565 S
N127 Co111 2.282 1_566 S
N127 C130 1.332 . S
N127 C132 1.332 1_565 S
C128 C129 1.386 . S
C128 C131 1.388 . S
C129 C128 1.386 . S
C129 C130 1.382 . S
C129 H155 0.950 . S
C130 N127 1.332 . S
C130 C129 1.382 . S
C130 H141 0.952 1_556 S
C131 C128 1.388 . S
C131 C132 1.382 1_565 S
C131 H156 0.950 1_565 S
C132 N127 1.332 1_545 S
C132 C131 1.382 1_545 S
C132 H142 0.948 . S
N133 Co111 2.282 . S
N133 C137 1.332 . S
N133 C138 1.332 . S
C134 C135 1.388 . S
C134 C138 1.382 . S
C134 H157 0.950 . S
C135 C134 1.388 . S
C135 C136 1.386 . S
C136 C135 1.386 . S
C136 C137 1.382 . S
C136 H158 0.950 . S
C137 N133 1.332 . S
C137 C136 1.382 . S
C137 H139 0.952 . S
C138 N133 1.332 . S
C138 C134 1.382 . S
C138 H140 0.948 . S
H139 C137 0.952 . S
H140 C138 0.948 . S
H141 C130 0.952 1_554 S
H142 C132 0.948 . S
C143 C109 1.395 . S
C143 C113 1.391 1_554 S
C144 C106 1.389 . S
C144 C126 1.392 1_545 S
C145 C116 1.392 . S
C145 C118 1.389 1_545 S
C146 C121 1.395 1_554 S
C146 C123 1.391 . S
H147 C107 0.951 . S
H148 C108 0.950 . S
H149 C114 0.949 . S
H150 C115 0.950 . S
H151 C119 0.951 . S
H152 C120 0.950 . S
H153 C124 0.949 . S
H154 C125 0.950 . S
H155 C129 0.950 . S
H156 C131 0.950 1_545 S
H157 C134 0.950 . S
H158 C136 0.950 . S
C159 C160 1.443 . S
C159 N163 1.376 . S
C159 C197 1.389 1_545 S
C160 C159 1.443 . S
C160 C161 1.340 . S
C160 H200 0.951 . S
C161 C160 1.340 . S
C161 C162 1.439 . S
C161 H201 0.950 . S
C162 C161 1.439 . S
C162 N163 1.374 . S
C162 C196 1.395 . S
N163 C159 1.376 . S
N163 C162 1.374 . S
N163 Co164 2.008 . S
Co164 N163 2.008 . S
Co164 N165 1.995 . S
Co164 N170 2.008 . S
Co164 N175 1.995 1_545 S
Co164 N180 2.282 . S
Co164 N186 2.282 . S
N165 Co164 1.995 . S
N165 C166 1.376 . S
N165 C169 1.383 . S
C166 N165 1.376 . S
C166 C167 1.446 . S
C166 C196 1.391 . S
C167 C166 1.446 . S
C167 C168 1.339 . S
C167 H202 0.949 . S
C168 C167 1.339 . S
C168 C169 1.439 . S
C168 H203 0.950 . S
C169 N165 1.383 . S
C169 C168 1.439 . S
C169 C198 1.392 . S
N170 Co164 2.008 . S
N170 C171 1.376 . S
N170 C174 1.374 1_545 S
C171 N170 1.376 . S
C171 C172 1.443 . S
C171 C198 1.389 . S
C172 C171 1.443 . S
C172 C173 1.340 1_545 S
C172 H204 0.951 . S
C173 C172 1.340 1_565 S
C173 C174 1.439 . S
C173 H205 0.950 . S
C174 N170 1.374 1_565 S
C174 C173 1.439 . S
C174 C199 1.395 . S
N175 Co164 1.995 1_565 S
N175 C176 1.376 . S
N175 C179 1.383 . S
C176 N175 1.376 . S
C176 C177 1.446 . S
C176 C199 1.391 . S
C177 C176 1.446 . S
C177 C178 1.339 . S
C177 H206 0.949 . S
C178 C177 1.339 . S
C178 C179 1.439 . S
C178 H207 0.950 . S
C179 N175 1.383 . S
C179 C178 1.439 . S
C179 C197 1.392 . S
N180 Co164 2.282 . S
N180 C183 1.332 1_545 S
N180 C185 1.332 . S
C181 C182 1.386 1_545 S
C181 C184 1.388 . S
C182 C181 1.386 1_565 S
C182 C183 1.382 . S
C182 H208 0.950 . S
C183 N180 1.332 1_565 S
C183 C182 1.382 . S
C183 H194 0.952 . S
C184 C181 1.388 . S
C184 C185 1.382 . S
C184 H209 0.950 . S
C185 N180 1.332 . S
C185 C184 1.382 . S
C185 H195 0.948 . S
N186 Co164 2.282 . S
N186 C190 1.332 . S
N186 C191 1.332 1_545 S
C187 C188 1.388 1_565 S
C187 C191 1.382 . S
C187 H210 0.950 . S
C188 C187 1.388 1_545 S
C188 C189 1.386 . S
C189 C188 1.386 . S
C189 C190 1.382 . S
C189 H211 0.950 . S
C190 N186 1.332 . S
C190 C189 1.382 . S
C190 H192 0.952 . S
C191 N186 1.332 1_565 S
C191 C187 1.382 . S
C191 H193 0.948 . S
H192 C190 0.952 . S
H193 C191 0.948 . S
H194 C183 0.952 . S
H195 C185 0.948 . S
C196 C162 1.395 . S
C196 C166 1.391 . S
C197 C159 1.389 1_565 S
C197 C179 1.392 . S
C198 C169 1.392 . S
C198 C171 1.389 . S
C199 C174 1.395 . S
C199 C176 1.391 . S
H200 C160 0.951 . S
H201 C161 0.950 . S
H202 C167 0.949 . S
H203 C168 0.950 . S
H204 C172 0.951 . S
H205 C173 0.950 . S
H206 C177 0.949 . S
H207 C178 0.950 . S
H208 C182 0.950 . S
H209 C184 0.950 . S
H210 C187 0.950 . S
H211 C189 0.950 . S
C212 C213 1.443 . S
C212 N216 1.376 . S
C212 C250 1.388 1_455 S
C213 C212 1.443 . S
C213 C214 1.340 . S
C213 H253 0.951 . S
C214 C213 1.340 . S
C214 C215 1.439 . S
C214 H254 0.950 . S
C215 C214 1.439 . S
C215 N216 1.374 . S
C215 C249 1.395 . S
N216 C212 1.376 . S
N216 C215 1.374 . S
N216 Co217 2.008 . S
Co217 N216 2.008 . S
Co217 N218 1.995 . S
Co217 N223 2.008 1_455 S
Co217 N228 1.995 1_455 S
Co217 N233 2.282 1_455 S
Co217 N239 2.282 . S
N218 Co217 1.995 . S
N218 C219 1.376 . S
N218 C222 1.383 . S
C219 N218 1.376 . S
C219 C220 1.446 . S
C219 C249 1.391 . S
C220 C219 1.446 . S
C220 C221 1.339 . S
C220 H255 0.949 . S
C221 C220 1.339 . S
C221 C222 1.439 . S
C221 H256 0.950 . S
C222 N218 1.383 . S
C222 C221 1.439 . S
C222 C251 1.401 . S
N223 Co217 2.008 1_655 S
N223 C224 1.376 . S
N223 C227 1.374 . S
C224 N223 1.376 . S
C224 C225 1.443 . S
C224 C251 1.380 1_655 S
C225 C224 1.443 . S
C225 C226 1.340 . S
C225 H257 0.951 . S
C226 C225 1.340 . S
C226 C227 1.439 . S
C226 H258 0.950 . S
C227 N223 1.374 . S
C227 C226 1.439 . S
C227 C252 1.395 . S
N228 Co217 1.995 1_655 S
N228 C229 1.376 . S
N228 C232 1.383 . S
C229 N228 1.376 . S
C229 C230 1.446 . S
C229 C252 1.391 . S
C230 C229 1.446 . S
C230 C231 1.339 . S
C230 H259 0.949 . S
C231 C230 1.339 . S
C231 C232 1.439 . S
C231 H260 0.950 . S
C232 N228 1.383 . S
C232 C231 1.439 . S
C232 C250 1.392 . S
N233 Co217 2.282 1_655 S
N233 C236 1.332 . S
N233 C238 1.332 . S
C234 C235 1.386 . S
C234 C237 1.388 . S
C235 C234 1.386 . S
C235 C236 1.382 . S
C235 H261 0.950 . S
C236 N233 1.332 . S
C236 C235 1.382 . S
C236 H247 0.952 . S
C237 C234 1.388 . S
C237 C238 1.382 . S
C237 H262 0.950 . S
C238 N233 1.332 . S
C238 C237 1.382 . S
C238 H248 0.948 1_655 S
N239 Co217 2.282 . S
N239 C243 1.332 . S
N239 C244 1.332 . S
C240 C241 1.388 . S
C240 C244 1.382 . S
C240 H263 0.950 . S
C241 C240 1.388 . S
C241 C242 1.386 . S
C242 C241 1.386 . S
C242 C243 1.382 . S
C242 H264 0.950 . S
C243 N239 1.332 . S
C243 C242 1.382 . S
C243 H245 0.952 . S
C244 N239 1.332 . S
C244 C240 1.382 . S
C244 H246 0.948 1_455 S
H245 C243 0.952 . S
H246 C244 0.948 1_655 S
H247 C236 0.952 . S
H248 C238 0.948 1_455 S
C249 C215 1.395 . S
C249 C219 1.391 . S
C250 C212 1.388 1_655 S
C250 C232 1.392 . S
C251 C222 1.401 . S
C251 C224 1.380 1_455 S
C252 C227 1.395 . S
C252 C229 1.391 . S
H253 C213 0.951 . S
H254 C214 0.950 . S
H255 C220 0.949 . S
H256 C221 0.950 . S
H257 C225 0.951 . S
H258 C226 0.950 . S
H259 C230 0.949 . S
H260 C231 0.950 . S
H261 C235 0.950 . S
H262 C237 0.950 . S
H263 C240 0.950 . S
H264 C242 0.950 . S
C265 C266 1.443 . S
C265 N269 1.376 . S
C265 C303 1.389 . S
C266 C265 1.443 . S
C266 C267 1.340 . S
C266 H306 0.951 . S
C267 C266 1.340 . S
C267 C268 1.439 . S
C267 H307 0.950 . S
C268 C267 1.439 . S
C268 N269 1.374 . S
C268 C302 1.395 . S
N269 C265 1.376 . S
N269 C268 1.374 . S
N269 Co270 2.008 . S
Co270 N269 2.008 . S
Co270 N271 1.995 . S
Co270 N276 2.008 . S
Co270 N281 1.995 . S
Co270 N286 2.282 . S
Co270 N292 2.282 . S
N271 Co270 1.995 . S
N271 C272 1.376 . S
N271 C275 1.383 . S
C272 N271 1.376 . S
C272 C273 1.446 . S
C272 C302 1.391 . S
C273 C272 1.446 . S
C273 C274 1.339 . S
C273 H308 0.949 . S
C274 C273 1.339 . S
C274 C275 1.439 . S
C274 H309 0.950 . S
C275 N271 1.383 . S
C275 C274 1.439 . S
C275 C304 1.392 . S
N276 Co270 2.008 . S
N276 C277 1.376 . S
N276 C280 1.374 . S
C277 N276 1.376 . S
C277 C278 1.443 . S
C277 C304 1.389 . S
C278 C277 1.443 . S
C278 C279 1.340 . S
C278 H310 0.951 . S
C279 C278 1.340 . S
C279 C280 1.439 . S
C279 H311 0.950 . S
C280 N276 1.374 . S
C280 C279 1.439 . S
C280 C305 1.395 . S
N281 Co270 1.995 . S
N281 C282 1.376 . S
N281 C285 1.383 . S
C282 N281 1.376 . S
C282 C283 1.446 . S
C282 C305 1.391 . S
C283 C282 1.446 . S
C283 C284 1.339 . S
C283 H312 0.949 . S
C284 C283 1.339 . S
C284 C285 1.439 . S
C284 H313 0.950 . S
C285 N281 1.383 . S
C285 C284 1.439 . S
C285 C303 1.392 . S
N286 Co270 2.282 . S
N286 C289 1.332 . S
N286 C291 1.332 . S
C287 C288 1.386 . S
C287 C290 1.388 . S
C288 C287 1.386 . S
C288 C289 1.382 . S
C288 H314 0.950 . S
C289 N286 1.332 . S
C289 C288 1.382 . S
C289 H300 0.952 . S
C290 C287 1.388 . S
C290 C291 1.382 . S
C290 H315 0.950 . S
C291 N286 1.332 . S
C291 C290 1.382 . S
C291 H301 0.948 . S
N292 Co270 2.282 . S
N292 C296 1.332 . S
N292 C297 1.332 . S
C293 C294 1.388 . S
C293 C297 1.382 . S
C293 H316 0.950 . S
C294 C293 1.388 . S
C294 C295 1.386 . S
C295 C294 1.386 . S
C295 C296 1.382 . S
C295 H317 0.950 . S
C296 N292 1.332 . S
C296 C295 1.382 . S
C296 H298 0.952 . S
C297 N292 1.332 . S
C297 C293 1.382 . S
C297 H299 0.948 . S
H298 C296 0.952 . S
H299 C297 0.948 . S
H300 C289 0.952 . S
H301 C291 0.948 . S
C302 C268 1.395 . S
C302 C272 1.391 . S
C303 C265 1.389 . S
C303 C285 1.392 . S
C304 C275 1.392 . S
C304 C277 1.389 . S
C305 C280 1.395 . S
C305 C282 1.391 . S
H306 C266 0.951 . S
H307 C267 0.950 . S
H308 C273 0.949 . S
H309 C274 0.950 . S
H310 C278 0.951 . S
H311 C279 0.950 . S
H312 C283 0.949 . S
H313 C284 0.950 . S
H314 C288 0.950 . S
H315 C290 0.950 . S
H316 C293 0.950 . S
H317 C295 0.950 . S
C318 C319 1.443 . S
C318 N322 1.376 . S
C318 C356 1.389 . S
C319 C318 1.443 . S
C319 C320 1.340 . S
C319 H359 0.951 . S
C320 C319 1.340 . S
C320 C321 1.439 . S
C320 H360 0.950 . S
C321 C320 1.439 . S
C321 N322 1.374 . S
C321 C355 1.395 . S
N322 C318 1.376 . S
N322 C321 1.374 . S
N322 Co323 2.008 . S
Co323 N322 2.008 . S
Co323 N324 1.995 . S
Co323 N329 2.008 . S
Co323 N334 1.995 . S
Co323 N339 2.282 . S
Co323 N345 2.282 . S
N324 Co323 1.995 . S
N324 C325 1.376 . S
N324 C328 1.383 . S
C325 N324 1.376 . S
C325 C326 1.446 . S
C325 C355 1.391 . S
C326 C325 1.446 . S
C326 C327 1.339 . S
C326 H361 0.949 . S
C327 C326 1.339 . S
C327 C328 1.439 . S
C327 H362 0.950 . S
C328 N324 1.383 . S
C328 C327 1.439 . S
C328 C357 1.392 . S
N329 Co323 2.008 . S
N329 C330 1.376 . S
N329 C333 1.374 . S
C330 N329 1.376 . S
C330 C331 1.443 . S
C330 C357 1.389 . S
C331 C330 1.443 . S
C331 C332 1.340 . S
C331 H363 0.951 . S
C332 C331 1.340 . S
C332 C333 1.439 . S
C332 H364 0.950 . S
C333 N329 1.374 . S
C333 C332 1.439 . S
C333 C358 1.395 . S
N334 Co323 1.995 . S
N334 C335 1.376 . S
N334 C338 1.383 . S
C335 N334 1.376 . S
C335 C336 1.446 . S
C335 C358 1.391 . S
C336 C335 1.446 . S
C336 C337 1.339 . S
C336 H365 0.949 . S
C337 C336 1.339 . S
C337 C338 1.439 . S
C337 H366 0.950 . S
C338 N334 1.383 . S
C338 C337 1.439 . S
C338 C356 1.392 . S
N339 Co323 2.282 . S
N339 C342 1.332 . S
N339 C344 1.332 . S
C340 C341 1.386 . S
C340 C343 1.388 . S
C341 C340 1.386 . S
C341 C342 1.382 . S
C341 H367 0.950 . S
C342 N339 1.332 . S
C342 C341 1.382 . S
C342 H353 0.952 . S
C343 C340 1.388 . S
C343 C344 1.382 . S
C343 H368 0.950 . S
C344 N339 1.332 . S
C344 C343 1.382 . S
C344 H354 0.948 . S
N345 Co323 2.282 . S
N345 C349 1.332 . S
N345 C350 1.332 . S
C346 C347 1.388 . S
C346 C350 1.382 . S
C346 H369 0.950 . S
C347 C346 1.388 . S
C347 C348 1.386 . S
C348 C347 1.386 . S
C348 C349 1.382 . S
C348 H370 0.950 . S
C349 N345 1.332 . S
C349 C348 1.382 . S
C349 H351 0.952 . S
C350 N345 1.332 . S
C350 C346 1.382 . S
C350 H352 0.948 . S
H351 C349 0.952 . S
H352 C350 0.948 . S
H353 C342 0.952 . S
H354 C344 0.948 . S
C355 C321 1.395 . S
C355 C325 1.391 . S
C356 C318 1.389 . S
C356 C338 1.392 . S
C357 C328 1.392 . S
C357 C330 1.389 . S
C358 C333 1.395 . S
C358 C335 1.391 . S
H359 C319 0.951 . S
H360 C320 0.950 . S
H361 C326 0.949 . S
H362 C327 0.950 . S
H363 C331 0.951 . S
H364 C332 0.950 . S
H365 C336 0.949 . S
H366 C337 0.950 . S
H367 C341 0.950 . S
H368 C343 0.950 . S
H369 C346 0.950 . S
H370 C348 0.950 . S
C371 C372 1.443 . S
C371 N375 1.376 . S
C371 C409 1.389 . S
C372 C371 1.443 . S
C372 C373 1.340 . S
C372 H412 0.951 . S
C373 C372 1.340 . S
C373 C374 1.439 . S
C373 H413 0.950 . S
C374 C373 1.439 . S
C374 N375 1.374 . S
C374 C408 1.395 . S
N375 C371 1.376 . S
N375 C374 1.374 . S
N375 Co376 2.008 . S
Co376 N375 2.008 . S
Co376 N377 1.995 . S
Co376 N382 2.008 . S
Co376 N387 1.995 . S
Co376 N392 2.282 . S
Co376 N398 2.282 . S
N377 Co376 1.995 . S
N377 C378 1.376 . S
N377 C381 1.383 . S
C378 N377 1.376 . S
C378 C379 1.446 . S
C378 C408 1.391 . S
C379 C378 1.446 . S
C379 C380 1.339 . S
C379 H414 0.949 . S
C380 C379 1.339 . S
C380 C381 1.439 . S
C380 H415 0.950 . S
C381 N377 1.383 . S
C381 C380 1.439 . S
C381 C410 1.392 . S
N382 Co376 2.008 . S
N382 C383 1.376 . S
N382 C386 1.374 . S
C383 N382 1.376 . S
C383 C384 1.443 . S
C383 C410 1.389 . S
C384 C383 1.443 . S
C384 C385 1.340 . S
C384 H416 0.951 . S
C385 C384 1.340 . S
C385 C386 1.439 . S
C385 H417 0.950 . S
C386 N382 1.374 . S
C386 C385 1.439 . S
C386 C411 1.395 . S
N387 Co376 1.995 . S
N387 C388 1.376 . S
N387 C391 1.383 . S
C388 N387 1.376 . S
C388 C389 1.446 . S
C388 C411 1.391 . S
C389 C388 1.446 . S
C389 C390 1.339 . S
C389 H418 0.949 . S
C390 C389 1.339 . S
C390 C391 1.439 . S
C390 H419 0.950 . S
C391 N387 1.383 . S
C391 C390 1.439 . S
C391 C409 1.392 . S
N392 Co376 2.282 . S
N392 C395 1.332 . S
N392 C397 1.332 . S
C393 C394 1.386 . S
C393 C396 1.388 . S
C394 C393 1.386 . S
C394 C395 1.382 . S
C394 H420 0.950 . S
C395 N392 1.332 . S
C395 C394 1.382 . S
C395 H406 0.952 . S
C396 C393 1.388 . S
C396 C397 1.382 . S
C396 H421 0.950 . S
C397 N392 1.332 . S
C397 C396 1.382 . S
C397 H407 0.948 . S
N398 Co376 2.282 . S
N398 C402 1.332 . S
N398 C403 1.332 . S
C399 C400 1.388 . S
C399 C403 1.382 . S
C399 H422 0.950 . S
C400 C399 1.388 . S
C400 C401 1.386 . S
C401 C400 1.386 . S
C401 C402 1.382 . S
C401 H423 0.950 . S
C402 N398 1.332 . S
C402 C401 1.382 . S
C402 H404 0.952 . S
C403 N398 1.332 . S
C403 C399 1.382 . S
C403 H405 0.948 . S
H404 C402 0.952 . S
H405 C403 0.948 . S
H406 C395 0.952 . S
H407 C397 0.948 . S
C408 C374 1.395 . S
C408 C378 1.391 . S
C409 C371 1.389 . S
C409 C391 1.392 . S
C410 C381 1.392 . S
C410 C383 1.389 . S
C411 C386 1.395 . S
C411 C388 1.391 . S
H412 C372 0.951 . S
H413 C373 0.950 . S
H414 C379 0.949 . S
H415 C380 0.950 . S
H416 C384 0.951 . S
H417 C385 0.950 . S
H418 C389 0.949 . S
H419 C390 0.950 . S
H420 C394 0.950 . S
H421 C396 0.950 . S
H422 C399 0.950 . S
H423 C401 0.950 . S
C424 C425 1.443 . S
C424 N428 1.376 . S
C424 C462 1.389 . S
C425 C424 1.443 . S
C425 C426 1.340 . S
C425 H465 0.951 . S
C426 C425 1.340 . S
C426 C427 1.439 . S
C426 H466 0.950 . S
C427 C426 1.439 . S
C427 N428 1.374 . S
C427 C461 1.395 . S
N428 C424 1.376 . S
N428 C427 1.374 . S
N428 Co429 2.008 . S
Co429 N428 2.008 . S
Co429 N430 1.995 . S
Co429 N435 2.008 . S
Co429 N440 1.995 . S
Co429 N445 2.282 . S
Co429 N451 2.282 . S
N430 Co429 1.995 . S
N430 C431 1.376 . S
N430 C434 1.383 . S
C431 N430 1.376 . S
C431 C432 1.446 . S
C431 C461 1.391 . S
C432 C431 1.446 . S
C432 C433 1.339 . S
C432 H467 0.949 . S
C433 C432 1.339 . S
C433 C434 1.439 . S
C433 H468 0.950 . S
C434 N430 1.383 . S
C434 C433 1.439 . S
C434 C463 1.392 . S
N435 Co429 2.008 . S
N435 C436 1.376 . S
N435 C439 1.374 . S
C436 N435 1.376 . S
C436 C437 1.443 . S
C436 C463 1.389 . S
C437 C436 1.443 . S
C437 C438 1.340 . S
C437 H469 0.951 . S
C438 C437 1.340 . S
C438 C439 1.439 . S
C438 H470 0.950 . S
C439 N435 1.374 . S
C439 C438 1.439 . S
C439 C464 1.395 . S
N440 Co429 1.995 . S
N440 C441 1.376 . S
N440 C444 1.383 . S
C441 N440 1.376 . S
C441 C442 1.446 . S
C441 C464 1.391 . S
C442 C441 1.446 . S
C442 C443 1.339 . S
C442 H471 0.949 . S
C443 C442 1.339 . S
C443 C444 1.439 . S
C443 H472 0.950 . S
C444 N440 1.383 . S
C444 C443 1.439 . S
C444 C462 1.392 . S
N445 Co429 2.282 . S
N445 C448 1.332 . S
N445 C450 1.332 . S
C446 C447 1.386 . S
C446 C449 1.388 . S
C447 C446 1.386 . S
C447 C448 1.382 . S
C447 H473 0.950 . S
C448 N445 1.332 . S
C448 C447 1.382 . S
C448 H459 0.952 . S
C449 C446 1.388 . S
C449 C450 1.382 . S
C449 H474 0.950 . S
C450 N445 1.332 . S
C450 C449 1.382 . S
C450 H460 0.948 . S
N451 Co429 2.282 . S
N451 C455 1.332 . S
N451 C456 1.332 . S
C452 C453 1.388 . S
C452 C456 1.382 . S
C452 H475 0.950 . S
C453 C452 1.388 . S
C453 C454 1.386 . S
C454 C453 1.386 . S
C454 C455 1.382 . S
C454 H476 0.950 . S
C455 N451 1.332 . S
C455 C454 1.382 . S
C455 H457 0.952 . S
C456 N451 1.332 . S
C456 C452 1.382 . S
C456 H458 0.948 . S
H457 C455 0.952 . S
H458 C456 0.948 . S
H459 C448 0.952 . S
H460 C450 0.948 . S
C461 C427 1.395 . S
C461 C431 1.391 . S
C462 C424 1.389 . S
C462 C444 1.392 . S
C463 C434 1.392 . S
C463 C436 1.389 . S
C464 C439 1.395 . S
C464 C441 1.391 . S
H465 C425 0.951 . S
H466 C426 0.950 . S
H467 C432 0.949 . S
H468 C433 0.950 . S
H469 C437 0.951 . S
H470 C438 0.950 . S
H471 C442 0.949 . S
H472 C443 0.950 . S
H473 C447 0.950 . S
H474 C449 0.950 . S
H475 C452 0.950 . S
H476 C454 0.950 . S
C477 C478 1.443 . S
C477 N481 1.376 . S
C477 C515 1.389 . S
C478 C477 1.443 . S
C478 C479 1.340 . S
C478 H518 0.951 1_556 S
C479 C478 1.340 . S
C479 C480 1.439 . S
C479 H519 0.950 . S
C480 C479 1.439 . S
C480 N481 1.374 . S
C480 C514 1.395 . S
N481 C477 1.376 . S
N481 C480 1.374 . S
N481 Co482 2.008 . S
Co482 N481 2.008 . S
Co482 N483 1.995 . S
Co482 N488 2.008 . S
Co482 N493 1.995 . S
Co482 N498 2.282 . S
Co482 N504 2.282 . S
N483 Co482 1.995 . S
N483 C484 1.376 . S
N483 C487 1.383 . S
C484 N483 1.376 . S
C484 C485 1.446 . S
C484 C514 1.391 . S
C485 C484 1.446 . S
C485 C486 1.339 . S
C485 H520 0.949 . S
C486 C485 1.339 . S
C486 C487 1.439 . S
C486 H521 0.950 . S
C487 N483 1.383 . S
C487 C486 1.439 . S
C487 C516 1.392 . S
N488 Co482 2.008 . S
N488 C489 1.376 . S
N488 C492 1.374 . S
C489 N488 1.376 . S
C489 C490 1.443 . S
C489 C516 1.389 . S
C490 C489 1.443 . S
C490 C491 1.340 . S
C490 H522 0.951 . S
C491 C490 1.340 . S
C491 C492 1.439 . S
C491 H523 0.950 . S
C492 N488 1.374 . S
C492 C491 1.439 . S
C492 C517 1.395 . S
N493 Co482 1.995 . S
N493 C494 1.376 . S
N493 C497 1.383 . S
C494 N493 1.376 . S
C494 C495 1.446 . S
C494 C517 1.391 . S
C495 C494 1.446 . S
C495 C496 1.339 . S
C495 H524 0.949 . S
C496 C495 1.339 . S
C496 C497 1.439 . S
C496 H525 0.950 1_556 S
C497 N493 1.383 . S
C497 C496 1.439 . S
C497 C515 1.392 . S
N498 Co482 2.282 . S
N498 C501 1.332 . S
N498 C503 1.332 . S
C499 C500 1.386 . S
C499 C502 1.388 . S
C500 C499 1.386 . S
C500 C501 1.382 . S
C500 H526 0.950 . S
C501 N498 1.332 . S
C501 C500 1.382 . S
C501 H512 0.952 . S
C502 C499 1.388 . S
C502 C503 1.382 . S
C502 H527 0.950 . S
C503 N498 1.332 . S
C503 C502 1.382 . S
C503 H513 0.948 . S
N504 Co482 2.282 . S
N504 C508 1.332 . S
N504 C509 1.332 . S
C505 C506 1.388 . S
C505 C509 1.382 . S
C505 H528 0.950 . S
C506 C505 1.388 . S
C506 C507 1.386 . S
C507 C506 1.386 . S
C507 C508 1.382 . S
C507 H529 0.950 . S
C508 N504 1.332 . S
C508 C507 1.382 . S
C508 H510 0.952 . S
C509 N504 1.332 . S
C509 C505 1.382 . S
C509 H511 0.948 . S
H510 C508 0.952 . S
H511 C509 0.948 . S
H512 C501 0.952 . S
H513 C503 0.948 . S
C514 C480 1.395 . S
C514 C484 1.391 . S
C515 C477 1.389 . S
C515 C497 1.392 . S
C516 C487 1.392 . S
C516 C489 1.389 . S
C517 C492 1.395 . S
C517 C494 1.391 . S
H518 C478 0.951 1_554 S
H519 C479 0.950 . S
H520 C485 0.949 . S
H521 C486 0.950 . S
H522 C490 0.951 . S
H523 C491 0.950 . S
H524 C495 0.949 . S
H525 C496 0.950 1_554 S
H526 C500 0.950 . S
H527 C502 0.950 . S
H528 C505 0.950 . S
H529 C507 0.950 . S
C530 C531 1.443 . S
C530 N534 1.376 . S
C530 C568 1.389 . S
C531 C530 1.443 . S
C531 C532 1.340 . S
C531 H571 0.951 1_556 S
C532 C531 1.340 . S
C532 C533 1.439 . S
C532 H572 0.950 . S
C533 C532 1.439 . S
C533 N534 1.374 . S
C533 C567 1.395 . S
N534 C530 1.376 . S
N534 C533 1.374 . S
N534 Co535 2.008 . S
Co535 N534 2.008 . S
Co535 N536 1.995 . S
Co535 N541 2.008 . S
Co535 N546 1.995 . S
Co535 N551 2.282 . S
Co535 N557 2.282 . S
N536 Co535 1.995 . S
N536 C537 1.376 . S
N536 C540 1.383 . S
C537 N536 1.376 . S
C537 C538 1.446 . S
C537 C567 1.391 . S
C538 C537 1.446 . S
C538 C539 1.339 . S
C538 H573 0.949 . S
C539 C538 1.339 . S
C539 C540 1.439 . S
C539 H574 0.950 . S
C540 N536 1.383 . S
C540 C539 1.439 . S
C540 C569 1.392 . S
N541 Co535 2.008 . S
N541 C542 1.376 . S
N541 C545 1.374 . S
C542 N541 1.376 . S
C542 C543 1.443 . S
C542 C569 1.389 . S
C543 C542 1.443 . S
C543 C544 1.340 . S
C543 H575 0.951 . S
C544 C543 1.340 . S
C544 C545 1.439 . S
C544 H576 0.950 . S
C545 N541 1.374 . S
C545 C544 1.439 . S
C545 C570 1.395 . S
N546 Co535 1.995 . S
N546 C547 1.376 . S
N546 C550 1.383 . S
C547 N546 1.376 . S
C547 C548 1.446 . S
C547 C570 1.391 . S
C548 C547 1.446 . S
C548 C549 1.339 . S
C548 H577 0.949 . S
C549 C548 1.339 . S
C549 C550 1.439 . S
C549 H578 0.950 1_556 S
C550 N546 1.383 . S
C550 C549 1.439 . S
C550 C568 1.392 . S
N551 Co535 2.282 . S
N551 C554 1.332 . S
N551 C556 1.332 . S
C552 C553 1.386 . S
C552 C555 1.388 . S
C553 C552 1.386 . S
C553 C554 1.382 . S
C553 H579 0.950 . S
C554 N551 1.332 . S
C554 C553 1.382 . S
C554 H565 0.952 . S
C555 C552 1.388 . S
C555 C556 1.382 . S
C555 H580 0.950 . S
C556 N551 1.332 . S
C556 C555 1.382 . S
C556 H566 0.948 . S
N557 Co535 2.282 . S
N557 C561 1.332 . S
N557 C562 1.332 . S
C558 C559 1.388 . S
C558 C562 1.382 . S
C558 H581 0.950 . S
C559 C558 1.388 . S
C559 C560 1.386 . S
C560 C559 1.386 . S
C560 C561 1.382 . S
C560 H582 0.950 . S
C561 N557 1.332 . S
C561 C560 1.382 . S
C561 H563 0.952 . S
C562 N557 1.332 . S
C562 C558 1.382 . S
C562 H564 0.948 . S
H563 C561 0.952 . S
H564 C562 0.948 . S
H565 C554 0.952 . S
H566 C556 0.948 . S
C567 C533 1.395 . S
C567 C537 1.391 . S
C568 C530 1.389 . S
C568 C550 1.392 . S
C569 C540 1.392 . S
C569 C542 1.389 . S
C570 C545 1.395 . S
C570 C547 1.391 . S
H571 C531 0.951 1_554 S
H572 C532 0.950 . S
H573 C538 0.949 . S
H574 C539 0.950 . S
H575 C543 0.951 . S
H576 C544 0.950 . S
H577 C548 0.949 . S
H578 C549 0.950 1_554 S
H579 C553 0.950 . S
H580 C555 0.950 . S
H581 C558 0.950 . S
H582 C560 0.950 . S
C583 C584 1.443 . S
C583 N587 1.376 . S
C583 C621 1.389 . S
C584 C583 1.443 . S
C584 C585 1.340 . S
C584 H624 0.951 1_556 S
C585 C584 1.340 . S
C585 C586 1.439 . S
C585 H625 0.950 . S
C586 C585 1.439 . S
C586 N587 1.374 . S
C586 C620 1.395 . S
N587 C583 1.376 . S
N587 C586 1.374 . S
N587 Co588 2.008 . S
Co588 N587 2.008 . S
Co588 N589 1.995 . S
Co588 N594 2.008 . S
Co588 N599 1.995 . S
Co588 N604 2.282 . S
Co588 N610 2.282 . S
N589 Co588 1.995 . S
N589 C590 1.376 . S
N589 C593 1.383 . S
C590 N589 1.376 . S
C590 C591 1.446 . S
C590 C620 1.391 . S
C591 C590 1.446 . S
C591 C592 1.339 . S
C591 H626 0.949 . S
C592 C591 1.339 . S
C592 C593 1.439 . S
C592 H627 0.950 . S
C593 N589 1.383 . S
C593 C592 1.439 . S
C593 C622 1.392 . S
N594 Co588 2.008 . S
N594 C595 1.376 . S
N594 C598 1.374 . S
C595 N594 1.376 . S
C595 C596 1.443 . S
C595 C622 1.389 . S
C596 C595 1.443 . S
C596 C597 1.340 . S
C596 H628 0.951 . S
C597 C596 1.340 . S
C597 C598 1.439 . S
C597 H629 0.950 . S
C598 N594 1.374 . S
C598 C597 1.439 . S
C598 C623 1.395 . S
N599 Co588 1.995 . S
N599 C600 1.376 . S
N599 C603 1.383 . S
C600 N599 1.376 . S
C600 C601 1.446 . S
C600 C623 1.391 . S
C601 C600 1.446 . S
C601 C602 1.339 . S
C601 H630 0.949 . S
C602 C601 1.339 . S
C602 C603 1.439 . S
C602 H631 0.950 1_556 S
C603 N599 1.383 . S
C603 C602 1.439 . S
C603 C621 1.392 . S
N604 Co588 2.282 . S
N604 C607 1.332 . S
N604 C609 1.332 . S
C605 C606 1.386 . S
C605 C608 1.388 . S
C606 C605 1.386 . S
C606 C607 1.382 . S
C606 H632 0.950 . S
C607 N604 1.332 . S
C607 C606 1.382 . S
C607 H618 0.952 . S
C608 C605 1.388 . S
C608 C609 1.382 . S
C608 H633 0.950 . S
C609 N604 1.332 . S
C609 C608 1.382 . S
C609 H619 0.948 . S
N610 Co588 2.282 . S
N610 C614 1.332 . S
N610 C615 1.332 . S
C611 C612 1.388 . S
C611 C615 1.382 . S
C611 H634 0.950 . S
C612 C611 1.388 . S
C612 C613 1.386 . S
C613 C612 1.386 . S
C613 C614 1.382 . S
C613 H635 0.950 . S
C614 N610 1.332 . S
C614 C613 1.382 . S
C614 H616 0.952 . S
C615 N610 1.332 . S
C615 C611 1.382 . S
C615 H617 0.948 . S
H616 C614 0.952 . S
H617 C615 0.948 . S
H618 C607 0.952 . S
H619 C609 0.948 . S
C620 C586 1.395 . S
C620 C590 1.391 . S
C621 C583 1.389 . S
C621 C603 1.392 . S
C622 C593 1.392 . S
C622 C595 1.389 . S
C623 C598 1.395 . S
C623 C600 1.391 . S
H624 C584 0.951 1_554 S
H625 C585 0.950 . S
H626 C591 0.949 . S
H627 C592 0.950 . S
H628 C596 0.951 . S
H629 C597 0.950 . S
H630 C601 0.949 . S
H631 C602 0.950 1_554 S
H632 C606 0.950 . S
H633 C608 0.950 . S
H634 C611 0.950 . S
H635 C613 0.950 . S
C636 C637 1.443 . S
C636 N640 1.376 . S
C636 C674 1.389 . S
C637 C636 1.443 . S
C637 C638 1.340 . S
C637 H677 0.951 . S
C638 C637 1.340 . S
C638 C639 1.439 . S
C638 H678 0.950 . S
C639 C638 1.439 . S
C639 N640 1.374 . S
C639 C673 1.395 . S
N640 C636 1.376 . S
N640 C639 1.374 . S
N640 Co641 2.008 . S
Co641 N640 2.008 . S
Co641 N642 1.995 . S
Co641 N647 2.008 . S
Co641 N652 1.995 . S
Co641 N657 2.282 . S
Co641 N663 2.282 . S
N642 Co641 1.995 . S
N642 C643 1.376 . S
N642 C646 1.383 . S
C643 N642 1.376 . S
C643 C644 1.446 . S
C643 C673 1.391 . S
C644 C643 1.446 . S
C644 C645 1.339 . S
C644 H679 0.949 . S
C645 C644 1.339 . S
C645 C646 1.439 . S
C645 H680 0.950 . S
C646 N642 1.383 . S
C646 C645 1.439 . S
C646 C675 1.392 . S
N647 Co641 2.008 . S
N647 C648 1.376 . S
N647 C651 1.374 . S
C648 N647 1.376 . S
C648 C649 1.443 . S
C648 C675 1.389 . S
C649 C648 1.443 . S
C649 C650 1.340 . S
C649 H681 0.951 . S
C650 C649 1.340 . S
C650 C651 1.439 . S
C650 H682 0.950 . S
C651 N647 1.374 . S
C651 C650 1.439 . S
C651 C676 1.395 . S
N652 Co641 1.995 . S
N652 C653 1.376 . S
N652 C656 1.383 . S
C653 N652 1.376 . S
C653 C654 1.446 . S
C653 C676 1.391 . S
C654 C653 1.446 . S
C654 C655 1.339 . S
C654 H683 0.949 . S
C655 C654 1.339 . S
C655 C656 1.439 . S
C655 H684 0.950 . S
C656 N652 1.383 . S
C656 C655 1.439 . S
C656 C674 1.392 . S
N657 Co641 2.282 . S
N657 C660 1.332 . S
N657 C662 1.332 . S
C658 C659 1.386 . S
C658 C661 1.388 . S
C659 C658 1.386 . S
C659 C660 1.382 . S
C659 H685 0.950 . S
C660 N657 1.332 . S
C660 C659 1.382 . S
C660 H671 0.952 . S
C661 C658 1.388 . S
C661 C662 1.382 . S
C661 H686 0.950 . S
C662 N657 1.332 . S
C662 C661 1.382 . S
C662 H672 0.948 . S
N663 Co641 2.282 . S
N663 C667 1.332 . S
N663 C668 1.332 . S
C664 C665 1.388 . S
C664 C668 1.382 . S
C664 H687 0.950 . S
C665 C664 1.388 . S
C665 C666 1.386 . S
C666 C665 1.386 . S
C666 C667 1.382 . S
C666 H688 0.950 . S
C667 N663 1.332 . S
C667 C666 1.382 . S
C667 H669 0.952 . S
C668 N663 1.332 . S
C668 C664 1.382 . S
C668 H670 0.948 . S
H669 C667 0.952 . S
H670 C668 0.948 . S
H671 C660 0.952 . S
H672 C662 0.948 . S
C673 C639 1.395 . S
C673 C643 1.391 . S
C674 C636 1.389 . S
C674 C656 1.392 . S
C675 C646 1.392 . S
C675 C648 1.389 . S
C676 C651 1.395 . S
C676 C653 1.391 . S
H677 C637 0.951 . S
H678 C638 0.950 . S
H679 C644 0.949 . S
H680 C645 0.950 . S
H681 C649 0.951 . S
H682 C650 0.950 . S
H683 C654 0.949 . S
H684 C655 0.950 . S
H685 C659 0.950 . S
H686 C661 0.950 . S
H687 C664 0.950 . S
H688 C666 0.950 . S
C689 C690 1.443 . S
C689 N693 1.376 . S
C689 C727 1.389 . S
C690 C689 1.443 . S
C690 C691 1.340 . S
C690 H730 0.951 . S
C691 C690 1.340 . S
C691 C692 1.439 . S
C691 H731 0.950 . S
C692 C691 1.439 . S
C692 N693 1.374 . S
C692 C726 1.395 . S
N693 C689 1.376 . S
N693 C692 1.374 . S
N693 Co694 2.008 . S
Co694 N693 2.008 . S
Co694 N695 1.995 . S
Co694 N700 2.008 . S
Co694 N705 1.995 . S
Co694 N710 2.282 . S
Co694 N716 2.282 . S
N695 Co694 1.995 . S
N695 C696 1.376 . S
N695 C699 1.383 . S
C696 N695 1.376 . S
C696 C697 1.446 . S
C696 C726 1.391 . S
C697 C696 1.446 . S
C697 C698 1.339 . S
C697 H732 0.949 . S
C698 C697 1.339 . S
C698 C699 1.439 . S
C698 H733 0.950 . S
C699 N695 1.383 . S
C699 C698 1.439 . S
C699 C728 1.392 . S
N700 Co694 2.008 . S
N700 C701 1.376 . S
N700 C704 1.374 . S
C701 N700 1.376 . S
C701 C702 1.443 . S
C701 C728 1.389 . S
C702 C701 1.443 . S
C702 C703 1.340 . S
C702 H734 0.951 . S
C703 C702 1.340 . S
C703 C704 1.439 . S
C703 H735 0.950 . S
C704 N700 1.374 . S
C704 C703 1.439 . S
C704 C729 1.395 . S
N705 Co694 1.995 . S
N705 C706 1.376 . S
N705 C709 1.383 . S
C706 N705 1.376 . S
C706 C707 1.446 . S
C706 C729 1.391 . S
C707 C706 1.446 . S
C707 C708 1.339 . S
C707 H736 0.949 . S
C708 C707 1.339 . S
C708 C709 1.439 . S
C708 H737 0.950 . S
C709 N705 1.383 . S
C709 C708 1.439 . S
C709 C727 1.392 . S
N710 Co694 2.282 . S
N710 C713 1.332 . S
N710 C715 1.332 . S
C711 C712 1.386 . S
C711 C714 1.388 . S
C712 C711 1.386 . S
C712 C713 1.382 . S
C712 H738 0.950 . S
C713 N710 1.332 . S
C713 C712 1.382 . S
C713 H724 0.952 . S
C714 C711 1.388 . S
C714 C715 1.382 . S
C714 H739 0.950 . S
C715 N710 1.332 . S
C715 C714 1.382 . S
C715 H725 0.948 . S
N716 Co694 2.282 . S
N716 C720 1.332 . S
N716 C721 1.332 . S
C717 C718 1.388 . S
C717 C721 1.382 . S
C717 H740 0.950 . S
C718 C717 1.388 . S
C718 C719 1.386 . S
C719 C718 1.386 . S
C719 C720 1.382 . S
C719 H741 0.950 . S
C720 N716 1.332 . S
C720 C719 1.382 . S
C720 H722 0.952 . S
C721 N716 1.332 . S
C721 C717 1.382 . S
C721 H723 0.948 . S
H722 C720 0.952 . S
H723 C721 0.948 . S
H724 C713 0.952 . S
H725 C715 0.948 . S
C726 C692 1.395 . S
C726 C696 1.391 . S
C727 C689 1.389 . S
C727 C709 1.392 . S
C728 C699 1.392 . S
C728 C701 1.389 . S
C729 C704 1.395 . S
C729 C706 1.391 . S
H730 C690 0.951 . S
H731 C691 0.950 . S
H732 C697 0.949 . S
H733 C698 0.950 . S
H734 C702 0.951 . S
H735 C703 0.950 . S
H736 C707 0.949 . S
H737 C708 0.950 . S
H738 C712 0.950 . S
H739 C714 0.950 . S
H740 C717 0.950 . S
H741 C719 0.950 . S
C742 C743 1.443 . S
C742 N746 1.376 . S
C742 C780 1.389 . S
C743 C742 1.443 . S
C743 C744 1.340 . S
C743 H783 0.951 . S
C744 C743 1.340 . S
C744 C745 1.439 . S
C744 H784 0.950 . S
C745 C744 1.439 . S
C745 N746 1.374 . S
C745 C779 1.395 . S
N746 C742 1.376 . S
N746 C745 1.374 . S
N746 Co747 2.008 . S
Co747 N746 2.008 . S
Co747 N748 1.995 . S
Co747 N753 2.008 . S
Co747 N758 1.995 . S
Co747 N763 2.282 . S
Co747 N769 2.282 . S
N748 Co747 1.995 . S
N748 C749 1.376 . S
N748 C752 1.383 . S
C749 N748 1.376 . S
C749 C750 1.446 . S
C749 C779 1.391 . S
C750 C749 1.446 . S
C750 C751 1.339 . S
C750 H785 0.949 . S
C751 C750 1.339 . S
C751 C752 1.439 . S
C751 H786 0.950 . S
C752 N748 1.383 . S
C752 C751 1.439 . S
C752 C781 1.392 . S
N753 Co747 2.008 . S
N753 C754 1.376 . S
N753 C757 1.374 . S
C754 N753 1.376 . S
C754 C755 1.443 . S
C754 C781 1.389 . S
C755 C754 1.443 . S
C755 C756 1.340 . S
C755 H787 0.951 . S
C756 C755 1.340 . S
C756 C757 1.439 . S
C756 H788 0.950 . S
C757 N753 1.374 . S
C757 C756 1.439 . S
C757 C782 1.395 . S
N758 Co747 1.995 . S
N758 C759 1.376 . S
N758 C762 1.383 . S
C759 N758 1.376 . S
C759 C760 1.446 . S
C759 C782 1.391 . S
C760 C759 1.446 . S
C760 C761 1.339 . S
C760 H789 0.949 . S
C761 C760 1.339 . S
C761 C762 1.439 . S
C761 H790 0.950 . S
C762 N758 1.383 . S
C762 C761 1.439 . S
C762 C780 1.392 . S
N763 Co747 2.282 . S
N763 C766 1.332 . S
N763 C768 1.332 . S
C764 C765 1.386 . S
C764 C767 1.388 . S
C765 C764 1.386 . S
C765 C766 1.382 . S
C765 H791 0.950 . S
C766 N763 1.332 . S
C766 C765 1.382 . S
C766 H777 0.952 . S
C767 C764 1.388 . S
C767 C768 1.382 . S
C767 H792 0.950 . S
C768 N763 1.332 . S
C768 C767 1.382 . S
C768 H778 0.948 . S
N769 Co747 2.282 . S
N769 C773 1.332 . S
N769 C774 1.332 . S
C770 C771 1.388 . S
C770 C774 1.382 . S
C770 H793 0.950 . S
C771 C770 1.388 . S
C771 C772 1.386 . S
C772 C771 1.386 . S
C772 C773 1.382 . S
C772 H794 0.950 . S
C773 N769 1.332 . S
C773 C772 1.382 . S
C773 H775 0.952 . S
C774 N769 1.332 . S
C774 C770 1.382 . S
C774 H776 0.948 . S
H775 C773 0.952 . S
H776 C774 0.948 . S
H777 C766 0.952 . S
H778 C768 0.948 . S
C779 C745 1.395 . S
C779 C749 1.391 . S
C780 C742 1.389 . S
C780 C762 1.392 . S
C781 C752 1.392 . S
C781 C754 1.389 . S
C782 C757 1.395 . S
C782 C759 1.391 . S
H783 C743 0.951 . S
H784 C744 0.950 . S
H785 C750 0.949 . S
H786 C751 0.950 . S
H787 C755 0.951 . S
H788 C756 0.950 . S
H789 C760 0.949 . S
H790 C761 0.950 . S
H791 C765 0.950 . S
H792 C767 0.950 . S
H793 C770 0.950 . S
H794 C772 0.950 . S
C795 C796 1.443 . S
C795 N799 1.376 . S
C795 C833 1.389 . S
C796 C795 1.443 . S
C796 C797 1.340 . S
C796 H836 0.951 . S
C797 C796 1.340 . S
C797 C798 1.439 . S
C797 H837 0.950 . S
C798 C797 1.439 . S
C798 N799 1.374 . S
C798 C832 1.395 . S
N799 C795 1.376 . S
N799 C798 1.374 . S
N799 Co800 2.008 . S
Co800 N799 2.008 . S
Co800 N801 1.995 . S
Co800 N806 2.008 . S
Co800 N811 1.995 . S
Co800 N816 2.282 . S
Co800 N822 2.282 . S
N801 Co800 1.995 . S
N801 C802 1.376 . S
N801 C805 1.383 . S
C802 N801 1.376 . S
C802 C803 1.446 . S
C802 C832 1.391 . S
C803 C802 1.446 . S
C803 C804 1.339 . S
C803 H838 0.949 . S
C804 C803 1.339 . S
C804 C805 1.439 . S
C804 H839 0.950 . S
C805 N801 1.383 . S
C805 C804 1.439 . S
C805 C834 1.392 . S
N806 Co800 2.008 . S
N806 C807 1.376 . S
N806 C810 1.374 . S
C807 N806 1.376 . S
C807 C808 1.443 . S
C807 C834 1.389 . S
C808 C807 1.443 . S
C808 C809 1.340 . S
C808 H840 0.951 . S
C809 C808 1.340 . S
C809 C810 1.439 . S
C809 H841 0.950 . S
C810 N806 1.374 . S
C810 C809 1.439 . S
C810 C835 1.395 . S
N811 Co800 1.995 . S
N811 C812 1.376 . S
N811 C815 1.383 . S
C812 N811 1.376 . S
C812 C813 1.446 . S
C812 C835 1.391 . S
C813 C812 1.446 . S
C813 C814 1.339 . S
C813 H842 0.949 . S
C814 C813 1.339 . S
C814 C815 1.439 . S
C814 H843 0.950 . S
C815 N811 1.383 . S
C815 C814 1.439 . S
C815 C833 1.392 . S
N816 Co800 2.282 . S
N816 C819 1.332 . S
N816 C821 1.332 . S
C817 C818 1.386 . S
C817 C820 1.388 . S
C818 C817 1.386 . S
C818 C819 1.382 . S
C818 H844 0.950 . S
C819 N816 1.332 . S
C819 C818 1.382 . S
C819 H830 0.952 . S
C820 C817 1.388 . S
C820 C821 1.382 . S
C820 H845 0.950 . S
C821 N816 1.332 . S
C821 C820 1.382 . S
C821 H831 0.948 . S
N822 Co800 2.282 . S
N822 C826 1.332 . S
N822 C827 1.332 . S
C823 C824 1.388 1_554 S
C823 C827 1.382 . S
C823 H846 0.950 . S
C824 C823 1.388 1_556 S
C824 C825 1.386 1_556 S
C825 C824 1.386 1_554 S
C825 C826 1.382 . S
C825 H847 0.950 . S
C826 N822 1.332 . S
C826 C825 1.382 . S
C826 H828 0.952 . S
C827 N822 1.332 . S
C827 C823 1.382 . S
C827 H829 0.948 . S
H828 C826 0.952 . S
H829 C827 0.948 . S
H830 C819 0.952 . S
H831 C821 0.948 . S
C832 C798 1.395 . S
C832 C802 1.391 . S
C833 C795 1.389 . S
C833 C815 1.392 . S
C834 C805 1.392 . S
C834 C807 1.389 . S
C835 C810 1.395 . S
C835 C812 1.391 . S
H836 C796 0.951 . S
H837 C797 0.950 . S
H838 C803 0.949 . S
H839 C804 0.950 . S
H840 C808 0.951 . S
H841 C809 0.950 . S
H842 C813 0.949 . S
H843 C814 0.950 . S
H844 C818 0.950 . S
H845 C820 0.950 . S
H846 C823 0.950 . S
H847 C825 0.950 . S
C848 C849 1.443 . S
C848 N852 1.376 . S
C848 C886 1.389 . S
C849 C848 1.443 . S
C849 C850 1.340 . S
C849 H889 0.951 . S
C850 C849 1.340 . S
C850 C851 1.439 . S
C850 H890 0.950 . S
C851 C850 1.439 . S
C851 N852 1.374 . S
C851 C885 1.395 . S
N852 C848 1.376 . S
N852 C851 1.374 . S
N852 Co853 2.008 . S
Co853 N852 2.008 . S
Co853 N854 1.995 . S
Co853 N859 2.008 . S
Co853 N864 1.995 . S
Co853 N869 2.282 . S
Co853 N875 2.282 . S
N854 Co853 1.995 . S
N854 C855 1.376 . S
N854 C858 1.383 . S
C855 N854 1.376 . S
C855 C856 1.446 . S
C855 C885 1.391 . S
C856 C855 1.446 . S
C856 C857 1.339 . S
C856 H891 0.949 . S
C857 C856 1.339 . S
C857 C858 1.439 . S
C857 H892 0.950 . S
C858 N854 1.383 . S
C858 C857 1.439 . S
C858 C887 1.392 . S
N859 Co853 2.008 . S
N859 C860 1.376 . S
N859 C863 1.374 . S
C860 N859 1.376 . S
C860 C861 1.443 . S
C860 C887 1.389 . S
C861 C860 1.443 . S
C861 C862 1.340 . S
C861 H893 0.951 . S
C862 C861 1.340 . S
C862 C863 1.439 . S
C862 H894 0.950 . S
C863 N859 1.374 . S
C863 C862 1.439 . S
C863 C888 1.395 . S
N864 Co853 1.995 . S
N864 C865 1.376 . S
N864 C868 1.383 . S
C865 N864 1.376 . S
C865 C866 1.446 . S
C865 C888 1.391 . S
C866 C865 1.446 . S
C866 C867 1.339 . S
C866 H895 0.949 . S
C867 C866 1.339 . S
C867 C868 1.439 . S
C867 H896 0.950 . S
C868 N864 1.383 . S
C868 C867 1.439 . S
C868 C886 1.392 . S
N869 Co853 2.282 . S
N869 C872 1.332 . S
N869 C874 1.332 . S
C870 C871 1.386 . S
C870 C873 1.388 . S
C871 C870 1.386 . S
C871 C872 1.382 . S
C871 H897 0.950 . S
C872 N869 1.332 . S
C872 C871 1.382 . S
C872 H883 0.952 . S
C873 C870 1.388 . S
C873 C874 1.382 . S
C873 H898 0.950 . S
C874 N869 1.332 . S
C874 C873 1.382 . S
C874 H884 0.948 . S
N875 Co853 2.282 . S
N875 C879 1.332 . S
N875 C880 1.332 . S
C876 C877 1.388 . S
C876 C880 1.382 . S
C876 H899 0.950 . S
C877 C876 1.388 . S
C877 C878 1.386 . S
C878 C877 1.386 . S
C878 C879 1.382 . S
C878 H900 0.950 . S
C879 N875 1.332 . S
C879 C878 1.382 . S
C879 H881 0.952 . S
C880 N875 1.332 . S
C880 C876 1.382 . S
C880 H882 0.948 . S
H881 C879 0.952 . S
H882 C880 0.948 . S
H883 C872 0.952 . S
H884 C874 0.948 . S
C885 C851 1.395 . S
C885 C855 1.391 . S
C886 C848 1.389 . S
C886 C868 1.392 . S
C887 C858 1.392 . S
C887 C860 1.389 . S
C888 C863 1.395 . S
C888 C865 1.391 . S
H889 C849 0.951 . S
H890 C850 0.950 . S
H891 C856 0.949 . S
H892 C857 0.950 . S
H893 C861 0.951 . S
H894 C862 0.950 . S
H895 C866 0.949 . S
H896 C867 0.950 . S
H897 C871 0.950 . S
H898 C873 0.950 . S
H899 C876 0.950 . S
H900 C878 0.950 . S
C901 C902 1.443 . S
C901 N905 1.376 . S
C901 C939 1.389 . S
C902 C901 1.443 . S
C902 C903 1.340 . S
C902 H942 0.951 . S
C903 C902 1.340 . S
C903 C904 1.439 . S
C903 H943 0.950 . S
C904 C903 1.439 . S
C904 N905 1.374 . S
C904 C938 1.395 . S
N905 C901 1.376 . S
N905 C904 1.374 . S
N905 Co906 2.008 . S
Co906 N905 2.008 . S
Co906 N907 1.995 . S
Co906 N912 2.008 . S
Co906 N917 1.995 . S
Co906 N922 2.282 . S
Co906 N928 2.282 . S
N907 Co906 1.995 . S
N907 C908 1.376 . S
N907 C911 1.383 . S
C908 N907 1.376 . S
C908 C909 1.446 . S
C908 C938 1.391 . S
C909 C908 1.446 . S
C909 C910 1.339 . S
C909 H944 0.949 . S
C910 C909 1.339 . S
C910 C911 1.439 . S
C910 H945 0.950 . S
C911 N907 1.383 . S
C911 C910 1.439 . S
C911 C940 1.392 . S
N912 Co906 2.008 . S
N912 C913 1.376 . S
N912 C916 1.374 . S
C913 N912 1.376 . S
C913 C914 1.443 . S
C913 C940 1.389 . S
C914 C913 1.443 . S
C914 C915 1.340 . S
C914 H946 0.951 . S
C915 C914 1.340 . S
C915 C916 1.439 . S
C915 H947 0.950 . S
C916 N912 1.374 . S
C916 C915 1.439 . S
C916 C941 1.395 . S
N917 Co906 1.995 . S
N917 C918 1.376 . S
N917 C921 1.383 . S
C918 N917 1.376 . S
C918 C919 1.446 . S
C918 C941 1.391 . S
C919 C918 1.446 . S
C919 C920 1.339 . S
C919 H948 0.949 . S
C920 C919 1.339 . S
C920 C921 1.439 . S
C920 H949 0.950 . S
C921 N917 1.383 . S
C921 C920 1.439 . S
C921 C939 1.392 . S
N922 Co906 2.282 . S
N922 C925 1.332 . S
N922 C927 1.332 . S
C923 C924 1.386 . S
C923 C926 1.388 . S
C924 C923 1.386 . S
C924 C925 1.382 . S
C924 H950 0.950 . S
C925 N922 1.332 . S
C925 C924 1.382 . S
C925 H936 0.952 . S
C926 C923 1.388 . S
C926 C927 1.382 . S
C926 H951 0.950 . S
C927 N922 1.332 . S
C927 C926 1.382 . S
C927 H937 0.948 . S
N928 Co906 2.282 . S
N928 C932 1.332 . S
N928 C933 1.332 . S
C929 C930 1.388 . S
C929 C933 1.382 . S
C929 H952 0.950 . S
C930 C929 1.388 . S
C930 C931 1.386 . S
C931 C930 1.386 . S
C931 C932 1.382 . S
C931 H953 0.950 . S
C932 N928 1.332 . S
C932 C931 1.382 . S
C932 H934 0.952 . S
C933 N928 1.332 . S
C933 C929 1.382 . S
C933 H935 0.948 . S
H934 C932 0.952 . S
H935 C933 0.948 . S
H936 C925 0.952 . S
H937 C927 0.948 . S
C938 C904 1.395 . S
C938 C908 1.391 . S
C939 C901 1.389 . S
C939 C921 1.392 . S
C940 C911 1.392 . S
C940 C913 1.389 . S
C941 C916 1.395 . S
C941 C918 1.391 . S
H942 C902 0.951 . S
H943 C903 0.950 . S
H944 C909 0.949 . S
H945 C910 0.950 . S
H946 C914 0.951 . S
H947 C915 0.950 . S
H948 C919 0.949 . S
H949 C920 0.950 . S
H950 C924 0.950 . S
H951 C926 0.950 . S
H952 C929 0.950 . S
H953 C931 0.950 . S
C954 C955 1.364 1_655 S
C954 C960 1.379 . S
C954 N962 1.356 . S
C955 C954 1.364 1_455 S
C955 C961 1.362 . S
C956 C957 1.366 . S
C956 C961 1.379 . S
C956 N963 1.356 . S
C957 C956 1.366 . S
C957 C960 1.360 1_455 S
N958 C960 1.356 . S
N958 H970 0.984 . S
N958 H971 0.985 . S
N959 C961 1.356 . S
N959 H964 0.984 . S
N959 H965 0.985 . S
C960 C954 1.379 . S
C960 C957 1.360 1_655 S
C960 N958 1.356 . S
C961 C955 1.362 . S
C961 C956 1.379 . S
C961 N959 1.356 . S
N962 C954 1.356 . S
N962 H968 0.984 . S
N962 H969 0.984 . S
N963 C956 1.356 . S
N963 H966 0.984 . S
N963 H967 0.985 . S
H964 N959 0.984 . S
H965 N959 0.985 . S
H966 N963 0.984 . S
H967 N963 0.985 . S
H968 N962 0.984 . S
H969 N962 0.984 . S
H970 N958 0.984 . S
H971 N958 0.985 . S
C972 C973 1.363 . S
C972 C978 1.379 . S
C972 N980 1.356 . S
C973 C972 1.363 . S
C973 C979 1.363 . S
C974 C975 1.363 . S
C974 C979 1.379 . S
C974 N981 1.356 . S
C975 C974 1.363 . S
C975 C978 1.363 . S
N976 C978 1.356 . S
N976 H988 0.984 . S
N976 H989 0.985 . S
N977 C979 1.356 . S
N977 H982 0.984 . S
N977 H983 0.985 . S
C978 C972 1.379 . S
C978 C975 1.363 . S
C978 N976 1.356 . S
C979 C973 1.363 . S
C979 C974 1.379 . S
C979 N977 1.356 . S
N980 C972 1.356 . S
N980 H986 0.984 . S
N980 H987 0.984 . S
N981 C974 1.356 . S
N981 H984 0.984 . S
N981 H985 0.985 . S
H982 N977 0.984 . S
H983 N977 0.985 . S
H984 N981 0.984 . S
H985 N981 0.985 . S
H986 N980 0.984 . S
H987 N980 0.984 . S
H988 N976 0.984 . S
H989 N976 0.985 . S
C990 C991 1.363 1_565 S
C990 C996 1.379 . S
C990 N998 1.356 . S
C991 C990 1.363 1_545 S
C991 C997 1.363 . S
C992 C993 1.363 . S
C992 C997 1.379 . S
C992 N999 1.356 . S
C993 C992 1.363 . S
C993 C996 1.363 1_545 S
N994 C996 1.356 . S
N994 H1006 0.984 . S
N994 H1007 0.985 . S
N995 C997 1.356 . S
N995 H1000 0.984 . S
N995 H1001 0.985 . S
C996 C990 1.379 . S
C996 C993 1.363 1_565 S
C996 N994 1.356 . S
C997 C991 1.363 . S
C997 C992 1.379 . S
C997 N995 1.356 . S
N998 C990 1.356 . S
N998 H1004 0.984 . S
N998 H1005 0.984 . S
N999 C992 1.356 . S
N999 H1002 0.984 . S
N999 H1003 0.985 . S
H1000 N995 0.984 . S
H1001 N995 0.985 . S
H1002 N999 0.984 . S
H1003 N999 0.985 . S
H1004 N998 0.984 . S
H1005 N998 0.984 . S
H1006 N994 0.984 . S
H1007 N994 0.985 . S
C1008 C1009 1.368 . S
C1008 C1014 1.379 . S
C1008 N1016 1.356 . S
C1009 C1008 1.368 . S
C1009 C1015 1.358 1_455 S
C1010 C1011 1.353 1_655 S
C1010 C1015 1.379 . S
C1010 N1017 1.356 . S
C1011 C1010 1.353 1_455 S
C1011 C1014 1.373 . S
N1012 C1014 1.356 . S
N1012 H1024 0.984 . S
N1012 H1025 0.985 . S
N1013 C1015 1.356 . S
N1013 H1018 0.984 . S
N1013 H1019 0.985 . S
C1014 C1008 1.379 . S
C1014 C1011 1.373 . S
C1014 N1012 1.356 . S
C1015 C1009 1.358 1_655 S
C1015 C1010 1.379 . S
C1015 N1013 1.356 . S
N1016 C1008 1.356 . S
N1016 H1022 0.984 . S
N1016 H1023 0.984 . S
N1017 C1010 1.356 . S
N1017 H1020 0.984 . S
N1017 H1021 0.985 . S
H1018 N1013 0.984 . S
H1019 N1013 0.985 . S
H1020 N1017 0.984 . S
H1021 N1017 0.985 . S
H1022 N1016 0.984 . S
H1023 N1016 0.984 . S
H1024 N1012 0.984 . S
H1025 N1012 0.985 . S
C1026 C1027 1.363 . S
C1026 C1032 1.379 . S
C1026 N1034 1.356 . S
C1027 C1026 1.363 . S
C1027 C1033 1.363 . S
C1028 C1029 1.363 . S
C1028 C1033 1.379 . S
C1028 N1035 1.356 . S
C1029 C1028 1.363 . S
C1029 C1032 1.363 . S
N1030 C1032 1.356 . S
N1030 H1042 0.984 . S
N1030 H1043 0.985 . S
N1031 C1033 1.356 . S
N1031 H1036 0.984 . S
N1031 H1037 0.985 . S
C1032 C1026 1.379 . S
C1032 C1029 1.363 . S
C1032 N1030 1.356 . S
C1033 C1027 1.363 . S
C1033 C1028 1.379 . S
C1033 N1031 1.356 . S
N1034 C1026 1.356 . S
N1034 H1040 0.984 . S
N1034 H1041 0.984 . S
N1035 C1028 1.356 . S
N1035 H1038 0.984 . S
N1035 H1039 0.985 . S
H1036 N1031 0.984 . S
H1037 N1031 0.985 . S
H1038 N1035 0.984 . S
H1039 N1035 0.985 . S
H1040 N1034 0.984 . S
H1041 N1034 0.984 . S
H1042 N1030 0.984 . S
H1043 N1030 0.985 . S
C1044 C1045 1.363 1_565 S
C1044 C1050 1.379 . S
C1044 N1052 1.356 . S
C1045 C1044 1.363 1_545 S
C1045 C1051 1.363 . S
C1046 C1047 1.363 . S
C1046 C1051 1.379 . S
C1046 N1053 1.356 . S
C1047 C1046 1.363 . S
C1047 C1050 1.363 1_545 S
N1048 C1050 1.356 . S
N1048 H1060 0.984 . S
N1048 H1061 0.985 . S
N1049 C1051 1.356 . S
N1049 H1054 0.984 . S
N1049 H1055 0.985 . S
C1050 C1044 1.379 . S
C1050 C1047 1.363 1_565 S
C1050 N1048 1.356 . S
C1051 C1045 1.363 . S
C1051 C1046 1.379 . S
C1051 N1049 1.356 . S
N1052 C1044 1.356 . S
N1052 H1058 0.984 . S
N1052 H1059 0.984 . S
N1053 C1046 1.356 . S
N1053 H1056 0.984 . S
N1053 H1057 0.985 . S
H1054 N1049 0.984 . S
H1055 N1049 0.985 . S
H1056 N1053 0.984 . S
H1057 N1053 0.985 . S
H1058 N1052 0.984 . S
H1059 N1052 0.984 . S
H1060 N1048 0.984 . S
H1061 N1048 0.985 . S
C1062 C1063 1.363 . S
C1062 C1068 1.379 . S
C1062 N1070 1.356 . S
C1063 C1062 1.363 . S
C1063 C1069 1.363 . S
C1064 C1065 1.363 . S
C1064 C1069 1.379 . S
C1064 N1071 1.356 . S
C1065 C1064 1.363 . S
C1065 C1068 1.363 . S
N1066 C1068 1.356 . S
N1066 H1078 0.984 . S
N1066 H1079 0.985 . S
N1067 C1069 1.356 . S
N1067 H1072 0.984 . S
N1067 H1073 0.985 . S
C1068 C1062 1.379 . S
C1068 C1065 1.363 . S
C1068 N1066 1.356 . S
C1069 C1063 1.363 . S
C1069 C1064 1.379 . S
C1069 N1067 1.356 . S
N1070 C1062 1.356 . S
N1070 H1076 0.984 . S
N1070 H1077 0.984 . S
N1071 C1064 1.356 . S
N1071 H1074 0.984 . S
N1071 H1075 0.985 . S
H1072 N1067 0.984 . S
H1073 N1067 0.985 . S
H1074 N1071 0.984 . S
H1075 N1071 0.985 . S
H1076 N1070 0.984 . S
H1077 N1070 0.984 . S
H1078 N1066 0.984 . S
H1079 N1066 0.985 . S
C1080 C1081 1.363 . S
C1080 C1086 1.379 . S
C1080 N1088 1.356 . S
C1081 C1080 1.363 . S
C1081 C1087 1.363 . S
C1082 C1083 1.363 . S
C1082 C1087 1.379 . S
C1082 N1089 1.356 . S
C1083 C1082 1.363 . S
C1083 C1086 1.363 . S
N1084 C1086 1.356 . S
N1084 H1096 0.984 . S
N1084 H1097 0.985 . S
N1085 C1087 1.356 . S
N1085 H1090 0.984 . S
N1085 H1091 0.985 . S
C1086 C1080 1.379 . S
C1086 C1083 1.363 . S
C1086 N1084 1.356 . S
C1087 C1081 1.363 . S
C1087 C1082 1.379 . S
C1087 N1085 1.356 . S
N1088 C1080 1.356 . S
N1088 H1094 0.984 . S
N1088 H1095 0.984 . S
N1089 C1082 1.356 . S
N1089 H1092 0.984 . S
N1089 H1093 0.985 . S
H1090 N1085 0.984 . S
H1091 N1085 0.985 . S
H1092 N1089 0.984 . S
H1093 N1089 0.985 . S
H1094 N1088 0.984 . S
H1095 N1088 0.984 . S
H1096 N1084 0.984 . S
H1097 N1084 0.985 . S
C1098 C1099 1.363 . S
C1098 C1104 1.379 . S
C1098 N1106 1.356 . S
C1099 C1098 1.363 . S
C1099 C1105 1.363 . S
C1100 C1101 1.363 . S
C1100 C1105 1.379 . S
C1100 N1107 1.356 . S
C1101 C1100 1.363 . S
C1101 C1104 1.363 . S
N1102 C1104 1.356 . S
N1102 H1114 0.984 . S
N1102 H1115 0.985 . S
N1103 C1105 1.356 . S
N1103 H1108 0.984 . S
N1103 H1109 0.985 . S
C1104 C1098 1.379 . S
C1104 C1101 1.363 . S
C1104 N1102 1.356 . S
C1105 C1099 1.363 . S
C1105 C1100 1.379 . S
C1105 N1103 1.356 . S
N1106 C1098 1.356 . S
N1106 H1112 0.984 . S
N1106 H1113 0.984 . S
N1107 C1100 1.356 . S
N1107 H1110 0.984 . S
N1107 H1111 0.985 . S
H1108 N1103 0.984 . S
H1109 N1103 0.985 . S
H1110 N1107 0.984 . S
H1111 N1107 0.985 . S
H1112 N1106 0.984 . S
H1113 N1106 0.984 . S
H1114 N1102 0.984 . S
H1115 N1102 0.985 . S
C1116 C1117 1.363 . S
C1116 C1122 1.379 . S
C1116 N1124 1.356 . S
C1117 C1116 1.363 . S
C1117 C1123 1.363 . S
C1118 C1119 1.363 . S
C1118 C1123 1.379 . S
C1118 N1125 1.356 . S
C1119 C1118 1.363 . S
C1119 C1122 1.363 . S
N1120 C1122 1.356 . S
N1120 H1132 0.984 . S
N1120 H1133 0.967 1_554 S
N1121 C1123 1.356 . S
N1121 H1126 0.984 . S
N1121 H1127 0.985 . S
C1122 C1116 1.379 . S
C1122 C1119 1.363 . S
C1122 N1120 1.356 . S
C1123 C1117 1.363 . S
C1123 C1118 1.379 . S
C1123 N1121 1.356 . S
N1124 C1116 1.356 . S
N1124 H1130 0.984 . S
N1124 H1131 0.984 . S
N1125 C1118 1.356 . S
N1125 H1128 0.984 1_554 S
N1125 H1129 0.985 . S
H1126 N1121 0.984 . S
H1127 N1121 0.985 . S
H1128 N1125 0.984 1_556 S
H1129 N1125 0.985 . S
H1130 N1124 0.984 . S
H1131 N1124 0.984 . S
H1132 N1120 0.984 . S
H1133 N1120 0.967 1_556 S
C1134 C1135 1.363 . S
C1134 C1140 1.379 . S
C1134 N1142 1.356 . S
C1135 C1134 1.363 . S
C1135 C1141 1.363 . S
C1136 C1137 1.363 . S
C1136 C1141 1.379 . S
C1136 N1143 1.356 . S
C1137 C1136 1.363 . S
C1137 C1140 1.363 . S
N1138 C1140 1.356 . S
N1138 H1150 0.984 . S
N1138 H1151 0.985 . S
N1139 C1141 1.356 . S
N1139 H1144 0.993 . S
N1139 H1145 0.985 . S
C1140 C1134 1.379 . S
C1140 C1137 1.363 . S
C1140 N1138 1.356 . S
C1141 C1135 1.363 . S
C1141 C1136 1.379 . S
C1141 N1139 1.356 . S
N1142 C1134 1.356 . S
N1142 H1148 0.984 . S
N1142 H1149 0.984 1_554 S
N1143 C1136 1.356 . S
N1143 H1146 0.984 . S
N1143 H1147 0.985 . S
H1144 N1139 0.993 . S
H1145 N1139 0.985 . S
H1146 N1143 0.984 . S
H1147 N1143 0.985 . S
H1148 N1142 0.984 . S
H1149 N1142 0.984 1_556 S
H1150 N1138 0.984 . S
H1151 N1138 0.985 . S
C1152 C1153 1.363 . S
C1152 C1158 1.379 . S
C1152 N1160 1.356 . S
C1153 C1152 1.363 . S
C1153 C1159 1.363 . S
C1154 C1155 1.363 . S
C1154 C1159 1.379 . S
C1154 N1161 1.356 . S
C1155 C1154 1.363 . S
C1155 C1158 1.363 . S
N1156 C1158 1.356 . S
N1156 H1168 0.984 . S
N1156 H1169 0.985 . S
N1157 C1159 1.356 . S
N1157 H1162 0.984 1_554 S
N1157 H1163 0.985 . S
C1158 C1152 1.379 . S
C1158 C1155 1.363 . S
C1158 N1156 1.356 . S
C1159 C1153 1.363 . S
C1159 C1154 1.379 . S
C1159 N1157 1.356 . S
N1160 C1152 1.356 . S
N1160 H1166 0.984 . S
N1160 H1167 0.962 1_554 S
N1161 C1154 1.356 . S
N1161 H1164 0.984 . S
N1161 H1165 0.985 . S
H1162 N1157 0.984 1_556 S
H1163 N1157 0.985 . S
H1164 N1161 0.984 . S
H1165 N1161 0.985 . S
H1166 N1160 0.984 . S
H1167 N1160 0.962 1_556 S
H1168 N1156 0.984 . S
H1169 N1156 0.985 . S
C1170 C1171 1.363 1_556 S
C1170 C1176 1.379 . S
C1170 N1178 1.356 1_556 S
C1171 C1170 1.363 1_554 S
C1171 C1177 1.363 1_554 S
C1172 C1173 1.363 . S
C1172 C1177 1.379 . S
C1172 N1179 1.356 . S
C1173 C1172 1.363 . S
C1173 C1176 1.363 . S
N1174 C1176 1.356 . S
N1174 H1186 0.984 . S
N1174 H1187 0.985 . S
N1175 C1177 1.356 1_554 S
N1175 H1180 0.984 . S
N1175 H1181 0.985 . S
C1176 C1170 1.379 . S
C1176 C1173 1.363 . S
C1176 N1174 1.356 . S
C1177 C1171 1.363 1_556 S
C1177 C1172 1.379 . S
C1177 N1175 1.356 1_556 S
N1178 C1170 1.356 1_554 S
N1178 H1184 0.984 . S
N1178 H1185 0.984 . S
N1179 C1172 1.356 . S
N1179 H1182 0.984 . S
N1179 H1183 0.985 . S
H1180 N1175 0.984 . S
H1181 N1175 0.985 . S
H1182 N1179 0.984 . S
H1183 N1179 0.985 . S
H1184 N1178 0.984 . S
H1185 N1178 0.984 . S
H1186 N1174 0.984 . S
H1187 N1174 0.985 . S
C1188 C1189 1.363 . S
C1188 C1194 1.379 . S
C1188 N1196 1.356 . S
C1189 C1188 1.363 . S
C1189 C1195 1.363 . S
C1190 C1191 1.363 1_556 S
C1190 C1195 1.379 . S
C1190 N1197 1.356 1_556 S
C1191 C1190 1.363 1_554 S
C1191 C1194 1.363 1_554 S
N1192 C1194 1.356 1_554 S
N1192 H1204 0.984 . S
N1192 H1205 0.985 . S
N1193 C1195 1.356 . S
N1193 H1198 0.984 . S
N1193 H1199 0.985 . S
C1194 C1188 1.379 . S
C1194 C1191 1.363 1_556 S
C1194 N1192 1.356 1_556 S
C1195 C1189 1.363 . S
C1195 C1190 1.379 . S
C1195 N1193 1.356 . S
N1196 C1188 1.356 . S
N1196 H1202 0.984 . S
N1196 H1203 0.984 . S
N1197 C1190 1.356 1_554 S
N1197 H1200 0.984 . S
N1197 H1201 0.985 . S
H1198 N1193 0.984 . S
H1199 N1193 0.985 . S
H1200 N1197 0.984 . S
H1201 N1197 0.985 . S
H1202 N1196 0.984 . S
H1203 N1196 0.984 . S
H1204 N1192 0.984 . S
H1205 N1192 0.985 . S
C1206 C1207 1.363 . S
C1206 C1212 1.379 . S
C1206 N1214 1.356 . S
C1207 C1206 1.363 . S
C1207 C1213 1.363 . S
C1208 C1209 1.363 . S
C1208 C1213 1.379 . S
C1208 N1215 1.356 . S
C1209 C1208 1.363 . S
C1209 C1212 1.363 . S
N1210 C1212 1.356 . S
N1210 H1222 0.984 . S
N1210 H1223 0.985 . S
N1211 C1213 1.356 . S
N1211 H1216 0.984 1_556 S
N1211 H1217 0.985 . S
C1212 C1206 1.379 . S
C1212 C1209 1.363 . S
C1212 N1210 1.356 . S
C1213 C1207 1.363 . S
C1213 C1208 1.379 . S
C1213 N1211 1.356 . S
N1214 C1206 1.356 . S
N1214 H1220 0.984 . S
N1214 H1221 0.984 1_556 S
N1215 C1208 1.356 . S
N1215 H1218 0.984 . S
N1215 H1219 0.985 . S
H1216 N1211 0.984 1_554 S
H1217 N1211 0.985 . S
H1218 N1215 0.984 . S
H1219 N1215 0.985 . S
H1220 N1214 0.984 . S
H1221 N1214 0.984 1_554 S
H1222 N1210 0.984 . S
H1223 N1210 0.985 . S
C1224 C1225 1.363 . S
C1224 C1230 1.379 . S
C1224 N1232 1.356 . S
C1225 C1224 1.363 . S
C1225 C1231 1.363 . S
C1226 C1227 1.363 . S
C1226 C1231 1.379 . S
C1226 N1233 1.356 . S
C1227 C1226 1.363 . S
C1227 C1230 1.363 . S
N1228 C1230 1.356 . S
N1228 H1240 0.984 . S
N1228 H1241 0.985 . S
N1229 C1231 1.356 . S
N1229 H1234 0.984 . S
N1229 H1235 0.985 . S
C1230 C1224 1.379 . S
C1230 C1227 1.363 . S
C1230 N1228 1.356 . S
C1231 C1225 1.363 . S
C1231 C1226 1.379 . S
C1231 N1229 1.356 . S
N1232 C1224 1.356 . S
N1232 H1238 0.984 . S
N1232 H1239 0.984 . S
N1233 C1226 1.356 . S
N1233 H1236 0.984 . S
N1233 H1237 0.985 . S
H1234 N1229 0.984 . S
H1235 N1229 0.985 . S
H1236 N1233 0.984 . S
H1237 N1233 0.985 . S
H1238 N1232 0.984 . S
H1239 N1232 0.984 . S
H1240 N1228 0.984 . S
H1241 N1228 0.985 . S
C1242 C1243 1.363 . S
C1242 C1248 1.379 . S
C1242 N1250 1.356 . S
C1243 C1242 1.363 . S
C1243 C1249 1.363 . S
C1244 C1245 1.363 . S
C1244 C1249 1.379 . S
C1244 N1251 1.356 . S
C1245 C1244 1.363 . S
C1245 C1248 1.363 . S
N1246 C1248 1.356 . S
N1246 H1258 0.984 . S
N1246 H1259 0.985 . S
N1247 C1249 1.356 . S
N1247 H1252 0.984 . S
N1247 H1253 0.985 . S
C1248 C1242 1.379 . S
C1248 C1245 1.363 . S
C1248 N1246 1.356 . S
C1249 C1243 1.363 . S
C1249 C1244 1.379 . S
C1249 N1247 1.356 . S
N1250 C1242 1.356 . S
N1250 H1256 0.984 . S
N1250 H1257 0.984 . S
N1251 C1244 1.356 . S
N1251 H1254 0.984 . S
N1251 H1255 0.985 . S
H1252 N1247 0.984 . S
H1253 N1247 0.985 . S
H1254 N1251 0.984 . S
H1255 N1251 0.985 . S
H1256 N1250 0.984 . S
H1257 N1250 0.984 . S
H1258 N1246 0.984 . S
H1259 N1246 0.985 . S
C1260 C1261 1.363 . S
C1260 C1266 1.379 . S
C1260 N1268 1.356 . S
C1261 C1260 1.363 . S
C1261 C1267 1.363 . S
C1262 C1263 1.363 . S
C1262 C1267 1.379 . S
C1262 N1269 1.356 . S
C1263 C1262 1.363 . S
C1263 C1266 1.363 . S
N1264 C1266 1.356 . S
N1264 H1276 0.984 . S
N1264 H1277 0.985 . S
N1265 C1267 1.356 . S
N1265 H1270 0.984 . S
N1265 H1271 0.985 . S
C1266 C1260 1.379 . S
C1266 C1263 1.363 . S
C1266 N1264 1.356 . S
C1267 C1261 1.363 . S
C1267 C1262 1.379 . S
C1267 N1265 1.356 . S
N1268 C1260 1.356 . S
N1268 H1274 0.984 . S
N1268 H1275 0.984 . S
N1269 C1262 1.356 . S
N1269 H1272 0.984 . S
N1269 H1273 0.985 . S
H1270 N1265 0.984 . S
H1271 N1265 0.985 . S
H1272 N1269 0.984 . S
H1273 N1269 0.985 . S
H1274 N1268 0.984 . S
H1275 N1268 0.984 . S
H1276 N1264 0.984 . S
H1277 N1264 0.985 . S
C1278 C1279 1.363 . S
C1278 C1284 1.379 . S
C1278 N1286 1.356 1_556 S
C1279 C1278 1.363 . S
C1279 C1285 1.363 . S
C1280 C1281 1.363 . S
C1280 C1285 1.379 . S
C1280 N1287 1.356 . S
C1281 C1280 1.363 . S
C1281 C1284 1.363 . S
N1282 C1284 1.356 . S
N1282 H1294 0.984 1_556 S
N1282 H1295 0.985 . S
N1283 C1285 1.356 . S
N1283 H1288 0.984 . S
N1283 H1289 0.985 . S
C1284 C1278 1.379 . S
C1284 C1281 1.363 . S
C1284 N1282 1.356 . S
C1285 C1279 1.363 . S
C1285 C1280 1.379 . S
C1285 N1283 1.356 . S
N1286 C1278 1.356 1_554 S
N1286 H1292 0.984 . S
N1286 H1293 0.984 . S
N1287 C1280 1.356 . S
N1287 H1290 0.984 . S
N1287 H1291 0.985 . S
H1288 N1283 0.984 . S
H1289 N1283 0.985 . S
H1290 N1287 0.984 . S
H1291 N1287 0.985 . S
H1292 N1286 0.984 . S
H1293 N1286 0.984 . S
H1294 N1282 0.984 1_554 S
H1295 N1282 0.985 . S
C1296 C1297 1.363 . S
C1296 C1302 1.379 . S
C1296 N1304 1.356 . S
C1297 C1296 1.363 . S
C1297 C1303 1.363 . S
C1298 C1299 1.363 . S
C1298 C1303 1.379 . S
C1298 N1305 1.356 . S
C1299 C1298 1.363 . S
C1299 C1302 1.363 . S
N1300 C1302 1.356 . S
N1300 H1312 0.984 . S
N1300 H1313 0.985 . S
N1301 C1303 1.356 . S
N1301 H1306 0.984 . S
N1301 H1307 0.985 . S
C1302 C1296 1.379 . S
C1302 C1299 1.363 . S
C1302 N1300 1.356 . S
C1303 C1297 1.363 . S
C1303 C1298 1.379 . S
C1303 N1301 1.356 . S
N1304 C1296 1.356 . S
N1304 H1310 0.984 . S
N1304 H1311 0.984 . S
N1305 C1298 1.356 . S
N1305 H1308 0.984 . S
N1305 H1309 0.985 1_556 S
H1306 N1301 0.984 . S
H1307 N1301 0.985 . S
H1308 N1305 0.984 . S
H1309 N1305 0.985 1_554 S
H1310 N1304 0.984 . S
H1311 N1304 0.984 . S
H1312 N1300 0.984 . S
H1313 N1300 0.985 . S
C1314 C1315 1.363 . S
C1314 C1320 1.379 . S
C1314 N1322 1.356 . S
C1315 C1314 1.363 . S
C1315 C1321 1.363 . S
C1316 C1317 1.363 . S
C1316 C1321 1.379 . S
C1316 N1323 1.356 . S
C1317 C1316 1.363 . S
C1317 C1320 1.363 . S
N1318 C1320 1.356 1_554 S
N1318 H1330 0.984 . S
N1318 H1331 0.985 . S
N1319 C1321 1.356 . S
N1319 H1324 0.984 . S
N1319 H1325 0.985 . S
C1320 C1314 1.379 . S
C1320 C1317 1.363 . S
C1320 N1318 1.356 1_556 S
C1321 C1315 1.363 . S
C1321 C1316 1.379 . S
C1321 N1319 1.356 . S
N1322 C1314 1.356 . S
N1322 H1328 0.984 1_556 S
N1322 H1329 0.984 . S
N1323 C1316 1.356 . S
N1323 H1326 0.984 . S
N1323 H1327 0.985 . S
H1324 N1319 0.984 . S
H1325 N1319 0.985 . S
H1326 N1323 0.984 . S
H1327 N1323 0.985 . S
H1328 N1322 0.984 1_554 S
H1329 N1322 0.984 . S
H1330 N1318 0.984 . S
H1331 N1318 0.985 . S
C1332 C1333 1.363 . S
C1332 C1338 1.379 . S
C1332 N1340 1.356 . S
C1333 C1332 1.363 . S
C1333 C1339 1.363 . S
C1334 C1335 1.363 . S
C1334 C1339 1.379 . S
C1334 N1341 1.356 . S
C1335 C1334 1.363 . S
C1335 C1338 1.363 . S
N1336 C1338 1.356 . S
N1336 H1348 0.984 . S
N1336 H1349 0.985 . S
N1337 C1339 1.356 . S
N1337 H1342 0.984 . S
N1337 H1343 0.985 . S
C1338 C1332 1.379 . S
C1338 C1335 1.363 . S
C1338 N1336 1.356 . S
C1339 C1333 1.363 . S
C1339 C1334 1.379 . S
C1339 N1337 1.356 . S
N1340 C1332 1.356 . S
N1340 H1346 0.984 . S
N1340 H1347 0.984 . S
N1341 C1334 1.356 . S
N1341 H1344 0.984 . S
N1341 H1345 0.985 . S
H1342 N1337 0.984 . S
H1343 N1337 0.985 . S
H1344 N1341 0.984 . S
H1345 N1341 0.985 . S
H1346 N1340 0.984 . S
H1347 N1340 0.984 . S
H1348 N1336 0.984 . S
H1349 N1336 0.985 . S
C1350 C1351 1.363 . S
C1350 C1356 1.379 . S
C1350 N1358 1.356 . S
C1351 C1350 1.363 . S
C1351 C1357 1.363 . S
C1352 C1353 1.363 . S
C1352 C1357 1.379 . S
C1352 N1359 1.356 . S
C1353 C1352 1.363 . S
C1353 C1356 1.363 . S
N1354 C1356 1.356 . S
N1354 H1366 0.984 . S
N1354 H1367 0.985 . S
N1355 C1357 1.356 . S
N1355 H1360 0.984 . S
N1355 H1361 0.985 . S
C1356 C1350 1.379 . S
C1356 C1353 1.363 . S
C1356 N1354 1.356 . S
C1357 C1351 1.363 . S
C1357 C1352 1.379 . S
C1357 N1355 1.356 . S
N1358 C1350 1.356 . S
N1358 H1364 0.984 . S
N1358 H1365 0.984 . S
N1359 C1352 1.356 . S
N1359 H1362 0.984 . S
N1359 H1363 0.985 . S
H1360 N1355 0.984 . S
H1361 N1355 0.985 . S
H1362 N1359 0.984 . S
H1363 N1359 0.985 . S
H1364 N1358 0.984 . S
H1365 N1358 0.984 . S
H1366 N1354 0.984 . S
H1367 N1354 0.985 . S
C1368 C1369 1.363 . S
C1368 C1374 1.379 . S
C1368 N1376 1.356 . S
C1369 C1368 1.363 . S
C1369 C1375 1.363 . S
C1370 C1371 1.363 . S
C1370 C1375 1.379 . S
C1370 N1377 1.356 . S
C1371 C1370 1.363 . S
C1371 C1374 1.363 . S
N1372 C1374 1.356 . S
N1372 H1384 0.984 . S
N1372 H1385 0.985 . S
N1373 C1375 1.356 . S
N1373 H1378 0.984 . S
N1373 H1379 0.985 . S
C1374 C1368 1.379 . S
C1374 C1371 1.363 . S
C1374 N1372 1.356 . S
C1375 C1369 1.363 . S
C1375 C1370 1.379 . S
C1375 N1373 1.356 . S
N1376 C1368 1.356 . S
N1376 H1382 0.984 . S
N1376 H1383 0.984 . S
N1377 C1370 1.356 . S
N1377 H1380 0.984 . S
N1377 H1381 0.985 . S
H1378 N1373 0.984 . S
H1379 N1373 0.985 . S
H1380 N1377 0.984 . S
H1381 N1377 0.985 . S
H1382 N1376 0.984 . S
H1383 N1376 0.984 . S
H1384 N1372 0.984 . S
H1385 N1372 0.985 . S
C1386 C1387 1.363 . S
C1386 C1392 1.379 . S
C1386 N1394 1.356 . S
C1387 C1386 1.363 . S
C1387 C1393 1.363 . S
C1388 C1389 1.363 . S
C1388 C1393 1.379 . S
C1388 N1395 1.356 . S
C1389 C1388 1.363 . S
C1389 C1392 1.363 . S
N1390 C1392 1.356 . S
N1390 H1402 0.984 1_554 S
N1390 H1403 0.985 . S
N1391 C1393 1.356 . S
N1391 H1396 0.984 . S
N1391 H1397 0.985 . S
C1392 C1386 1.379 . S
C1392 C1389 1.363 . S
C1392 N1390 1.356 . S
C1393 C1387 1.363 . S
C1393 C1388 1.379 . S
C1393 N1391 1.356 . S
N1394 C1386 1.356 . S
N1394 H1400 0.984 . S
N1394 H1401 0.984 . S
N1395 C1388 1.356 . S
N1395 H1398 0.984 . S
N1395 H1399 0.985 . S
H1396 N1391 0.984 . S
H1397 N1391 0.985 . S
H1398 N1395 0.984 . S
H1399 N1395 0.985 . S
H1400 N1394 0.984 . S
H1401 N1394 0.984 . S
H1402 N1390 0.984 1_556 S
H1403 N1390 0.985 . S
C1404 C1405 1.363 . S
C1404 C1410 1.379 . S
C1404 N1412 1.356 . S
C1405 C1404 1.363 . S
C1405 C1411 1.363 . S
C1406 C1407 1.363 . S
C1406 C1411 1.379 . S
C1406 N1413 1.356 . S
C1407 C1406 1.363 . S
C1407 C1410 1.363 . S
N1408 C1410 1.356 . S
N1408 H1420 0.984 . S
N1408 H1421 0.985 . S
N1409 C1411 1.356 . S
N1409 H1414 0.984 . S
N1409 H1415 0.985 . S
C1410 C1404 1.379 . S
C1410 C1407 1.363 . S
C1410 N1408 1.356 . S
C1411 C1405 1.363 . S
C1411 C1406 1.379 . S
C1411 N1409 1.356 . S
N1412 C1404 1.356 . S
N1412 H1418 0.984 . S
N1412 H1419 0.984 . S
N1413 C1406 1.356 . S
N1413 H1416 0.984 . S
N1413 H1417 0.985 1_554 S
H1414 N1409 0.984 . S
H1415 N1409 0.985 . S
H1416 N1413 0.984 . S
H1417 N1413 0.985 1_556 S
H1418 N1412 0.984 . S
H1419 N1412 0.984 . S
H1420 N1408 0.984 . S
H1421 N1408 0.985 . S
C1422 C1423 1.363 . S
C1422 C1428 1.379 . S
C1422 N1430 1.356 . S
C1423 C1422 1.363 . S
C1423 C1429 1.363 . S
C1424 C1425 1.363 . S
C1424 C1429 1.379 . S
C1424 N1431 1.356 . S
C1425 C1424 1.363 . S
C1425 C1428 1.363 . S
N1426 C1428 1.356 . S
N1426 H1438 0.984 . S
N1426 H1439 0.985 . S
N1427 C1429 1.356 . S
N1427 H1432 0.984 . S
N1427 H1433 0.985 . S
C1428 C1422 1.379 . S
C1428 C1425 1.363 . S
C1428 N1426 1.356 . S
C1429 C1423 1.363 . S
C1429 C1424 1.379 . S
C1429 N1427 1.356 . S
N1430 C1422 1.356 . S
N1430 H1436 0.984 . S
N1430 H1437 0.984 . S
N1431 C1424 1.356 . S
N1431 H1434 0.984 . S
N1431 H1435 0.985 . S
H1432 N1427 0.984 . S
H1433 N1427 0.985 . S
H1434 N1431 0.984 . S
H1435 N1431 0.985 . S
H1436 N1430 0.984 . S
H1437 N1430 0.984 . S
H1438 N1426 0.984 . S
H1439 N1426 0.985 . S
C1440 C1441 1.363 . S
C1440 C1446 1.379 . S
C1440 N1448 1.356 . S
C1441 C1440 1.363 . S
C1441 C1447 1.363 . S
C1442 C1443 1.363 . S
C1442 C1447 1.379 . S
C1442 N1449 1.356 . S
C1443 C1442 1.363 . S
C1443 C1446 1.363 . S
N1444 C1446 1.356 . S
N1444 H1456 0.984 . S
N1444 H1457 0.985 . S
N1445 C1447 1.356 . S
N1445 H1450 0.984 . S
N1445 H1451 0.985 1_565 S
C1446 C1440 1.379 . S
C1446 C1443 1.363 . S
C1446 N1444 1.356 . S
C1447 C1441 1.363 . S
C1447 C1442 1.379 . S
C1447 N1445 1.356 . S
N1448 C1440 1.356 . S
N1448 H1454 0.984 . S
N1448 H1455 0.984 . S
N1449 C1442 1.356 . S
N1449 H1452 0.984 . S
N1449 H1453 0.985 . S
H1450 N1445 0.984 . S
H1451 N1445 0.985 1_545 S
H1452 N1449 0.984 . S
H1453 N1449 0.985 . S
H1454 N1448 0.984 . S
H1455 N1448 0.984 . S
H1456 N1444 0.984 . S
H1457 N1444 0.985 . S
C1458 C1459 1.363 . S
C1458 C1464 1.379 . S
C1458 N1466 1.356 . S
C1459 C1458 1.363 . S
C1459 C1465 1.363 . S
C1460 C1461 1.363 . S
C1460 C1465 1.379 . S
C1460 N1467 1.356 . S
C1461 C1460 1.363 . S
C1461 C1464 1.363 . S
N1462 C1464 1.356 . S
N1462 H1474 0.984 . S
N1462 H1475 0.985 . S
N1463 C1465 1.356 . S
N1463 H1468 0.984 . S
N1463 H1469 0.985 . S
C1464 C1458 1.379 . S
C1464 C1461 1.363 . S
C1464 N1462 1.356 . S
C1465 C1459 1.363 . S
C1465 C1460 1.379 . S
C1465 N1463 1.356 . S
N1466 C1458 1.356 . S
N1466 H1472 0.984 . S
N1466 H1473 0.984 . S
N1467 C1460 1.356 . S
N1467 H1470 0.984 . S
N1467 H1471 0.985 . S
H1468 N1463 0.984 . S
H1469 N1463 0.985 . S
H1470 N1467 0.984 . S
H1471 N1467 0.985 . S
H1472 N1466 0.984 . S
H1473 N1466 0.984 . S
H1474 N1462 0.984 . S
H1475 N1462 0.985 . S
C1476 C1477 1.363 . S
C1476 C1482 1.379 . S
C1476 N1484 1.356 . S
C1477 C1476 1.363 . S
C1477 C1483 1.363 . S
C1478 C1479 1.363 . S
C1478 C1483 1.379 . S
C1478 N1485 1.356 . S
C1479 C1478 1.363 . S
C1479 C1482 1.363 . S
N1480 C1482 1.356 . S
N1480 H1492 0.984 . S
N1480 H1493 0.985 . S
N1481 C1483 1.356 . S
N1481 H1486 0.984 . S
N1481 H1487 0.985 . S
C1482 C1476 1.379 . S
C1482 C1479 1.363 . S
C1482 N1480 1.356 . S
C1483 C1477 1.363 . S
C1483 C1478 1.379 . S
C1483 N1481 1.356 . S
N1484 C1476 1.356 . S
N1484 H1490 0.984 . S
N1484 H1491 0.984 . S
N1485 C1478 1.356 . S
N1485 H1488 0.984 . S
N1485 H1489 0.985 . S
H1486 N1481 0.984 . S
H1487 N1481 0.985 . S
H1488 N1485 0.984 . S
H1489 N1485 0.985 . S
H1490 N1484 0.984 . S
H1491 N1484 0.984 . S
H1492 N1480 0.984 . S
H1493 N1480 0.985 . S
C1494 C1495 1.363 . S
C1494 C1500 1.379 . S
C1494 N1502 1.356 . S
C1495 C1494 1.363 . S
C1495 C1501 1.363 . S
C1496 C1497 1.363 . S
C1496 C1501 1.379 . S
C1496 N1503 1.356 . S
C1497 C1496 1.363 . S
C1497 C1500 1.363 . S
N1498 C1500 1.356 . S
N1498 H1510 0.984 . S
N1498 H1511 0.985 . S
N1499 C1501 1.356 . S
N1499 H1504 0.984 . S
N1499 H1505 0.985 . S
C1500 C1494 1.379 . S
C1500 C1497 1.363 . S
C1500 N1498 1.356 . S
C1501 C1495 1.363 . S
C1501 C1496 1.379 . S
C1501 N1499 1.356 . S
N1502 C1494 1.356 . S
N1502 H1508 0.984 . S
N1502 H1509 0.984 . S
N1503 C1496 1.356 . S
N1503 H1506 0.984 . S
N1503 H1507 0.985 . S
H1504 N1499 0.984 . S
H1505 N1499 0.985 . S
H1506 N1503 0.984 . S
H1507 N1503 0.985 . S
H1508 N1502 0.984 . S
H1509 N1502 0.984 . S
H1510 N1498 0.984 . S
H1511 N1498 0.985 . S
C1512 C1513 1.363 . S
C1512 C1518 1.379 1_545 S
C1512 N1520 1.356 . S
C1513 C1512 1.363 . S
C1513 C1519 1.363 . S
C1514 C1515 1.363 . S
C1514 C1519 1.379 1_565 S
C1514 N1521 1.356 . S
C1515 C1514 1.363 . S
C1515 C1518 1.363 . S
N1516 C1518 1.356 . S
N1516 H1528 0.984 . S
N1516 H1529 0.985 . S
N1517 C1519 1.356 . S
N1517 H1522 0.984 . S
N1517 H1523 0.985 . S
C1518 C1512 1.379 1_565 S
C1518 C1515 1.363 . S
C1518 N1516 1.356 . S
C1519 C1513 1.363 . S
C1519 C1514 1.379 1_545 S
C1519 N1517 1.356 . S
N1520 C1512 1.356 . S
N1520 H1526 0.984 . S
N1520 H1527 0.984 . S
N1521 C1514 1.356 . S
N1521 H1524 0.984 . S
N1521 H1525 0.985 . S
H1522 N1517 0.984 . S
H1523 N1517 0.985 . S
H1524 N1521 0.984 . S
H1525 N1521 0.985 . S
H1526 N1520 0.984 . S
H1527 N1520 0.984 . S
H1528 N1516 0.984 . S
H1529 N1516 0.985 . S
C1530 C1531 1.363 . S
C1530 C1536 1.379 . S
C1530 N1538 1.356 . S
C1531 C1530 1.363 . S
C1531 C1537 1.363 . S
C1532 C1533 1.363 . S
C1532 C1537 1.379 . S
C1532 N1539 1.356 . S
C1533 C1532 1.363 . S
C1533 C1536 1.363 . S
N1534 C1536 1.356 . S
N1534 H1546 0.984 . S
N1534 H1547 0.985 1_455 S
N1535 C1537 1.356 . S
N1535 H1540 0.984 . S
N1535 H1541 0.985 . S
C1536 C1530 1.379 . S
C1536 C1533 1.363 . S
C1536 N1534 1.356 . S
C1537 C1531 1.363 . S
C1537 C1532 1.379 . S
C1537 N1535 1.356 . S
N1538 C1530 1.356 . S
N1538 H1544 0.984 . S
N1538 H1545 0.984 . S
N1539 C1532 1.356 . S
N1539 H1542 0.984 1_455 S
N1539 H1543 0.985 . S
H1540 N1535 0.984 . S
H1541 N1535 0.985 . S
H1542 N1539 0.984 1_655 S
H1543 N1539 0.985 . S
H1544 N1538 0.984 . S
H1545 N1538 0.984 . S
H1546 N1534 0.984 . S
H1547 N1534 0.985 1_655 S
C1548 C1549 1.363 . S
C1548 C1554 1.379 . S
C1548 N1556 1.356 . S
C1549 C1548 1.363 . S
C1549 C1555 1.363 . S
C1550 C1551 1.363 . S
C1550 C1555 1.379 . S
C1550 N1557 1.356 . S
C1551 C1550 1.363 . S
C1551 C1554 1.363 . S
N1552 C1554 1.356 . S
N1552 H1564 0.984 . S
N1552 H1565 0.985 . S
N1553 C1555 1.356 . S
N1553 H1558 0.984 . S
N1553 H1559 0.985 . S
C1554 C1548 1.379 . S
C1554 C1551 1.363 . S
C1554 N1552 1.356 . S
C1555 C1549 1.363 . S
C1555 C1550 1.379 . S
C1555 N1553 1.356 . S
N1556 C1548 1.356 . S
N1556 H1562 0.984 . S
N1556 H1563 0.984 . S
N1557 C1550 1.356 . S
N1557 H1560 0.984 . S
N1557 H1561 0.985 . S
H1558 N1553 0.984 . S
H1559 N1553 0.985 . S
H1560 N1557 0.984 . S
H1561 N1557 0.985 . S
H1562 N1556 0.984 . S
H1563 N1556 0.984 . S
H1564 N1552 0.984 . S
H1565 N1552 0.985 . S
C1566 C1567 1.363 . S
C1566 C1572 1.379 . S
C1566 N1574 1.356 . S
C1567 C1566 1.363 . S
C1567 C1573 1.363 . S
C1568 C1569 1.363 . S
C1568 C1573 1.379 . S
C1568 N1575 1.356 . S
C1569 C1568 1.363 . S
C1569 C1572 1.363 . S
N1570 C1572 1.354 1_565 S
N1570 H1582 0.988 . S
N1570 H1583 0.987 . S
N1571 C1573 1.356 . S
N1571 H1576 0.984 . S
N1571 H1577 0.985 . S
C1572 C1566 1.379 . S
C1572 C1569 1.363 . S
C1572 N1570 1.354 1_545 S
C1573 C1567 1.363 . S
C1573 C1568 1.379 . S
C1573 N1571 1.356 . S
N1574 C1566 1.356 . S
N1574 H1580 0.984 . S
N1574 H1581 0.984 . S
N1575 C1568 1.356 . S
N1575 H1578 0.969 1_545 S
N1575 H1579 0.985 . S
H1576 N1571 0.984 . S
H1577 N1571 0.985 . S
H1578 N1575 0.969 1_565 S
H1579 N1575 0.985 . S
H1580 N1574 0.984 . S
H1581 N1574 0.984 . S
H1582 N1570 0.988 . S
H1583 N1570 0.987 . S
C1584 C1585 1.363 . S
C1584 C1590 1.379 1_455 S
C1584 N1592 1.356 . S
C1585 C1584 1.363 . S
C1585 C1591 1.363 . S
C1586 C1587 1.363 . S
C1586 C1591 1.379 1_655 S
C1586 N1593 1.356 . S
C1587 C1586 1.363 . S
C1587 C1590 1.363 . S
N1588 C1590 1.356 . S
N1588 H1600 0.984 . S
N1588 H1601 0.985 . S
N1589 C1591 1.356 . S
N1589 H1594 0.984 . S
N1589 H1595 0.985 . S
C1590 C1584 1.379 1_655 S
C1590 C1587 1.363 . S
C1590 N1588 1.356 . S
C1591 C1585 1.363 . S
C1591 C1586 1.379 1_455 S
C1591 N1589 1.356 . S
N1592 C1584 1.356 . S
N1592 H1598 0.984 . S
N1592 H1599 0.984 . S
N1593 C1586 1.356 . S
N1593 H1596 0.984 . S
N1593 H1597 0.985 . S
H1594 N1589 0.984 . S
H1595 N1589 0.985 . S
H1596 N1593 0.984 . S
H1597 N1593 0.985 . S
H1598 N1592 0.984 . S
H1599 N1592 0.984 . S
H1600 N1588 0.984 . S
H1601 N1588 0.985 . S
C955 C250 1.992 1_455 S
C957 C38 1.991 . S
C973 C304 1.992 . S
C975 C92 1.991 . S
C991 C144 1.164 . S
C993 C188 1.164 . S
C1009 C251 1.957 . S
C1011 C39 1.957 . S
C1027 C303 1.958 . S
C1029 C91 1.957 . S
C1045 C145 1.123 . S
C1047 C181 1.124 . S
C1063 C569 1.949 . S
C1065 C356 1.950 . S
C1081 C622 1.948 . S
C1083 C409 1.947 . S
C1099 C462 1.948 . S
C1101 C516 1.948 . S
C1117 C357 2.000 . S
C1119 C568 1.999 1_554 S
C1135 C621 2.002 1_554 S
C1137 C410 2.001 . S
C1153 C515 2.000 1_554 S
C1155 C463 2.000 . S
C1171 C887 1.152 . S
C1173 C665 1.152 . S
C1189 C711 1.156 . S
C1191 C939 1.155 . S
C1207 C824 0.328 . S
C1209 C764 0.326 . S
C1225 C886 1.136 . S
C1227 C658 1.136 . S
C1243 C940 1.131 . S
C1245 C718 1.132 . S
C1261 C771 0.306 . S
C1263 C817 0.310 . S
C1279 C22 1.555 . S
C1281 C506 1.562 . S
C1297 C559 1.513 . S
C1299 C82 1.512 . S
C1315 C612 1.504 . S
C1317 C128 1.505 . S
C1333 C198 1.538 . S
C1335 C675 1.537 . S
C1351 C727 1.522 . S
C1353 C234 1.522 . S
C1369 C780 1.511 . S
C1371 C294 1.512 . S
C1387 C833 1.570 . S
C1389 C29 1.559 . S
C1405 C870 1.519 . S
C1407 C75 1.521 . S
C1423 C930 1.500 . S
C1425 C135 1.501 . S
C1441 C197 1.545 . S
C1443 C347 1.549 . S
C1459 C241 1.514 . S
C1461 C400 1.513 . S
C1477 C453 1.516 . S
C1479 C287 1.517 . S
C1495 C834 1.523 . S
C1497 C340 1.518 . S
C1513 C877 1.548 . S
C1515 C393 1.549 . S
C1531 C446 1.517 . S
C1533 C923 1.520 1_455 S
C1549 C674 1.504 . S
C1551 C499 1.503 . S
C1567 C728 1.519 . S
C1569 C552 1.517 1_545 S
C1585 C605 1.517 . S
C1587 C781 1.518 . S
