# Generated by pormake.
# Topology neb, (4)-cn, num edge types: 1
# Building blocks:
#     Node 0, Type 0, BuildingBlock: NAHDIM_clean_sbu_0, # of connection points: 4
#     Node 1, Type 0, BuildingBlock: NAHDIM_clean_sbu_0, # of connection points: 4
#     Node 2, Type 0, BuildingBlock: NAHDIM_clean_sbu_0, # of connection points: 4
#     Node 3, Type 0, BuildingBlock: NAHDIM_clean_sbu_0, # of connection points: 4
#     Node 4, Type 0, BuildingBlock: NAHDIM_clean_sbu_0, # of connection points: 4
#     Node 5, Type 0, BuildingBlock: NAHDIM_clean_sbu_0, # of connection points: 4
#     Node 6, Type 0, BuildingBlock: NAHDIM_clean_sbu_0, # of connection points: 4
#     Node 7, Type 0, BuildingBlock: NAHDIM_clean_sbu_0, # of connection points: 4
#     Node 8, Type 0, BuildingBlock: NAHDIM_clean_sbu_0, # of connection points: 4
#     Node 9, Type 0, BuildingBlock: NAHDIM_clean_sbu_0, # of connection points: 4
#     Node 10, Type 0, BuildingBlock: NAHDIM_clean_sbu_0, # of connection points: 4
#     Node 11, Type 0, BuildingBlock: NAHDIM_clean_sbu_0, # of connection points: 4
#     Node 12, Type 0, BuildingBlock: NAHDIM_clean_sbu_0, # of connection points: 4
#     Node 13, Type 0, BuildingBlock: NAHDIM_clean_sbu_0, # of connection points: 4
#     Node 14, Type 0, BuildingBlock: NAHDIM_clean_sbu_0, # of connection points: 4
#     Node 15, Type 0, BuildingBlock: NAHDIM_clean_sbu_0, # of connection points: 4
#     Edge 16, Type (0, 0), BuildingBlock: KIFKEQ_clean_linker_1, # of connection points: 2
#     Edge 17, Type (0, 0), BuildingBlock: KIFKEQ_clean_linker_1, # of connection points: 2
#     Edge 18, Type (0, 0), BuildingBlock: KIFKEQ_clean_linker_1, # of connection points: 2
#     Edge 19, Type (0, 0), BuildingBlock: KIFKEQ_clean_linker_1, # of connection points: 2
#     Edge 20, Type (0, 0), BuildingBlock: KIFKEQ_clean_linker_1, # of connection points: 2
#     Edge 21, Type (0, 0), BuildingBlock: KIFKEQ_clean_linker_1, # of connection points: 2
#     Edge 22, Type (0, 0), BuildingBlock: KIFKEQ_clean_linker_1, # of connection points: 2
#     Edge 23, Type (0, 0), BuildingBlock: KIFKEQ_clean_linker_1, # of connection points: 2
#     Edge 24, Type (0, 0), BuildingBlock: KIFKEQ_clean_linker_1, # of connection points: 2
#     Edge 25, Type (0, 0), BuildingBlock: KIFKEQ_clean_linker_1, # of connection points: 2
#     Edge 26, Type (0, 0), BuildingBlock: KIFKEQ_clean_linker_1, # of connection points: 2
#     Edge 27, Type (0, 0), BuildingBlock: KIFKEQ_clean_linker_1, # of connection points: 2
#     Edge 28, Type (0, 0), BuildingBlock: KIFKEQ_clean_linker_1, # of connection points: 2
#     Edge 29, Type (0, 0), BuildingBlock: KIFKEQ_clean_linker_1, # of connection points: 2
#     Edge 30, Type (0, 0), BuildingBlock: KIFKEQ_clean_linker_1, # of connection points: 2
#     Edge 31, Type (0, 0), BuildingBlock: KIFKEQ_clean_linker_1, # of connection points: 2
#     Edge 32, Type (0, 0), BuildingBlock: KIFKEQ_clean_linker_1, # of connection points: 2
#     Edge 33, Type (0, 0), BuildingBlock: KIFKEQ_clean_linker_1, # of connection points: 2
#     Edge 34, Type (0, 0), BuildingBlock: KIFKEQ_clean_linker_1, # of connection points: 2
#     Edge 35, Type (0, 0), BuildingBlock: KIFKEQ_clean_linker_1, # of connection points: 2
#     Edge 36, Type (0, 0), BuildingBlock: KIFKEQ_clean_linker_1, # of connection points: 2
#     Edge 37, Type (0, 0), BuildingBlock: KIFKEQ_clean_linker_1, # of connection points: 2
#     Edge 38, Type (0, 0), BuildingBlock: KIFKEQ_clean_linker_1, # of connection points: 2
#     Edge 39, Type (0, 0), BuildingBlock: KIFKEQ_clean_linker_1, # of connection points: 2
#     Edge 40, Type (0, 0), BuildingBlock: KIFKEQ_clean_linker_1, # of connection points: 2
#     Edge 41, Type (0, 0), BuildingBlock: KIFKEQ_clean_linker_1, # of connection points: 2
#     Edge 42, Type (0, 0), BuildingBlock: KIFKEQ_clean_linker_1, # of connection points: 2
#     Edge 43, Type (0, 0), BuildingBlock: KIFKEQ_clean_linker_1, # of connection points: 2
#     Edge 44, Type (0, 0), BuildingBlock: KIFKEQ_clean_linker_1, # of connection points: 2
#     Edge 45, Type (0, 0), BuildingBlock: KIFKEQ_clean_linker_1, # of connection points: 2
#     Edge 46, Type (0, 0), BuildingBlock: KIFKEQ_clean_linker_1, # of connection points: 2
#     Edge 47, Type (0, 0), BuildingBlock: KIFKEQ_clean_linker_1, # of connection points: 2
# Relax obj value: 0.078
# Max RMSD: 0.134
# Mean RMSD: 0.134
data_MOF--net-neb--node1-NAHDIM_clean_sbu_0--edge1-KIFKEQ_clean_linker_1
_symmetry_space_group_name_H-M    P1
_symmetry_Int_Tables_number       1
_symmetry_cell_setting            triclinic
loop_
_symmetry_equiv_pos_as_xyz
'x, y, z'
_cell_length_a     46.908486
_cell_length_b     22.479269
_cell_length_c     73.692277
_cell_angle_alpha  90.022279
_cell_angle_beta   93.872598
_cell_angle_gamma 90.071681
loop_
_atom_site_label
_atom_site_type_symbol
_atom_site_fract_x
_atom_site_fract_y
_atom_site_fract_z
_atom_type_partial_charge
C0 C 0.07815 0.10446 0.46452 0.0
O1 O 0.10273 0.07626 0.46547 0.0
O2 O 0.14227 0.19716 0.45821 0.0
Zn3 Zn 0.10926 0.17362 0.44079 0.0
O4 O 0.1183 0.10328 0.42526 0.0
C5 C 0.12186 0.27323 0.41944 0.0
O6 O 0.14748 0.25861 0.42626 0.0
O7 O 0.07537 0.15079 0.45467 0.0
C8 C 0.13978 0.09787 0.41576 0.0
O9 O 0.15939 0.13969 0.41632 0.0
C10 C 0.16343 0.16485 0.46346 0.0
O11 O 0.16428 0.10919 0.45809 0.0
O12 O 0.10046 0.24329 0.42402 0.0
C13 C 0.15649 0.05938 0.77791 0.0
O14 O 0.1307 0.0385 0.77374 0.0
O15 O 0.09524 0.15464 0.78677 0.0
Zn16 Zn 0.12611 0.12151 0.80418 0.0
O17 O 0.11206 0.05041 0.81751 0.0
C18 C 0.15791 0.21932 0.82308 0.0
O19 O 0.176 0.21553 0.81027 0.0
O20 O 0.16008 0.09714 0.79071 0.0
C21 C 0.09743 0.05731 0.83126 0.0
O22 O 0.09068 0.11137 0.83621 0.0
C23 C 0.072 0.12734 0.78256 0.0
O24 O 0.06787 0.07431 0.7894 0.0
O25 O 0.13657 0.18441 0.82278 0.0
C26 C 0.91462 0.93596 0.53081 0.0
O27 O 0.89532 0.97173 0.53692 0.0
O28 O 0.8471 0.82808 0.53522 0.0
Zn29 Zn 0.88258 0.85248 0.55022 0.0
O30 O 0.87484 0.91621 0.56843 0.0
C31 C 0.87543 0.76515 0.57556 0.0
O32 O 0.85157 0.79584 0.57516 0.0
O33 O 0.91351 0.88077 0.53452 0.0
C34 C 0.85083 0.9391 0.57137 0.0
O35 O 0.82788 0.92284 0.5614 0.0
C36 C 0.83409 0.85601 0.52219 0.0
O37 O 0.8437 0.90805 0.51725 0.0
O38 O 0.89458 0.78057 0.56507 0.0
C39 C 0.822 0.9018 0.21309 0.0
O40 O 0.84632 0.93099 0.21348 0.0
O41 O 0.8863 0.81015 0.20669 0.0
Zn42 Zn 0.85305 0.83294 0.18937 0.0
O43 O 0.86227 0.90375 0.17412 0.0
C44 C 0.86545 0.73138 0.16854 0.0
O45 O 0.89083 0.74331 0.17631 0.0
O46 O 0.81922 0.85492 0.20347 0.0
C47 C 0.88335 0.90719 0.1642 0.0
O48 O 0.90163 0.86302 0.16409 0.0
C49 C 0.90708 0.8436 0.21196 0.0
O50 O 0.90716 0.89948 0.20676 0.0
O51 O 0.84438 0.76365 0.17232 0.0
C52 C 0.09249 0.55807 0.96432 0.0
O53 O 0.11812 0.53645 0.96848 0.0
O54 O 0.1544 0.65568 0.95553 0.0
Zn55 Zn 0.1233 0.62169 0.93839 0.0
O56 O 0.13738 0.55073 0.92501 0.0
C57 C 0.09124 0.71879 0.91934 0.0
O58 O 0.073 0.71473 0.93205 0.0
O59 O 0.0893 0.59692 0.95183 0.0
C60 C 0.15186 0.55786 0.9112 0.0
O61 O 0.15844 0.61202 0.90624 0.0
C62 C 0.17789 0.62895 0.95939 0.0
O63 O 0.18183 0.57571 0.95266 0.0
O64 O 0.11268 0.68427 0.91975 0.0
C65 C 0.16597 0.61149 0.2733 0.0
O66 O 0.14039 0.58752 0.27127 0.0
O67 O 0.10301 0.69548 0.28228 0.0
Zn68 Zn 0.13716 0.67535 0.29937 0.0
O69 O 0.12937 0.60519 0.31531 0.0
C70 C 0.12641 0.78119 0.31907 0.0
O71 O 0.10088 0.77194 0.31113 0.0
O72 O 0.17033 0.6532 0.28481 0.0
C73 C 0.11339 0.60753 0.32855 0.0
O74 O 0.10008 0.65734 0.33187 0.0
C75 C 0.07924 0.66822 0.28205 0.0
O76 O 0.07661 0.62191 0.29266 0.0
O77 O 0.14658 0.74586 0.31576 0.0
C78 C 0.92261 0.40569 0.02784 0.0
O79 O 0.90083 0.44113 0.02996 0.0
O80 O 0.85494 0.31011 0.03189 0.0
Zn81 Zn 0.88862 0.33235 0.04892 0.0
O82 O 0.87988 0.40279 0.0645 0.0
C83 C 0.8762 0.2309 0.0698 0.0
O84 O 0.85071 0.24334 0.06232 0.0
O85 O 0.92241 0.3538 0.0347 0.0
C86 C 0.8586 0.40687 0.07423 0.0
O87 O 0.83977 0.36355 0.07401 0.0
C88 C 0.83444 0.34434 0.02675 0.0
O89 O 0.83533 0.40052 0.03168 0.0
O90 O 0.89732 0.26277 0.06581 0.0
C91 C 0.82717 0.42774 0.71023 0.0
O92 O 0.85019 0.45976 0.70818 0.0
O93 O 0.89067 0.3204 0.7064 0.0
Zn94 Zn 0.85825 0.34829 0.68918 0.0
O95 O 0.87063 0.41718 0.67412 0.0
C96 C 0.85191 0.22787 0.67555 0.0
O97 O 0.86523 0.21423 0.69125 0.0
O98 O 0.82551 0.3759 0.70334 0.0
C99 C 0.87954 0.41089 0.65832 0.0
O100 O 0.88195 0.35714 0.65159 0.0
C101 C 0.91634 0.32057 0.70188 0.0
O102 O 0.92196 0.34121 0.68583 0.0
O103 O 0.8458 0.28191 0.67209 0.0
C104 C 0.57403 0.07831 0.95917 0.0
O105 O 0.59096 0.04053 0.95159 0.0
O106 O 0.6422 0.18895 0.95326 0.0
Zn107 Zn 0.60649 0.16074 0.93929 0.0
O108 O 0.61507 0.09527 0.92181 0.0
C109 C 0.61064 0.24158 0.9117 0.0
O110 O 0.63397 0.20946 0.91131 0.0
O111 O 0.57668 0.13362 0.95604 0.0
C112 C 0.63873 0.06827 0.92102 0.0
O113 O 0.65991 0.08031 0.93304 0.0
C114 C 0.65408 0.16525 0.96746 0.0
O115 O 0.64286 0.11717 0.97419 0.0
O116 O 0.59306 0.22972 0.9236 0.0
C117 C 0.66203 0.0699 0.28258 0.0
O118 O 0.64396 0.03459 0.29018 0.0
O119 O 0.59569 0.18542 0.2867 0.0
Zn120 Zn 0.63142 0.16007 0.30121 0.0
O121 O 0.62227 0.10121 0.3206 0.0
C122 C 0.66066 0.23146 0.3293 0.0
O123 O 0.6672 0.17933 0.33647 0.0
O124 O 0.66053 0.12572 0.28518 0.0
C125 C 0.59953 0.0705 0.32077 0.0
O126 O 0.5799 0.07536 0.30728 0.0
C127 C 0.58436 0.16003 0.2726 0.0
O128 O 0.59615 0.11181 0.26639 0.0
O129 O 0.64675 0.23369 0.31391 0.0
C130 C 0.4197 0.92394 0.03612 0.0
O131 O 0.39788 0.95798 0.03937 0.0
O132 O 0.35597 0.81043 0.04156 0.0
Zn133 Zn 0.38897 0.84283 0.05741 0.0
O134 O 0.37701 0.90846 0.07373 0.0
C135 C 0.40893 0.72538 0.06905 0.0
O136 O 0.41034 0.71477 0.0516 0.0
O137 O 0.42076 0.87139 0.04251 0.0
C138 C 0.35162 0.91929 0.07777 0.0
O139 O 0.3303 0.88841 0.07008 0.0
C140 C 0.34002 0.83941 0.0301 0.0
O141 O 0.34469 0.89643 0.02776 0.0
O142 O 0.40187 0.77687 0.07422 0.0
C143 C 0.32445 0.91236 0.71169 0.0
O144 O 0.3462 0.94799 0.70955 0.0
O145 O 0.39306 0.82827 0.71037 0.0
Zn146 Zn 0.35968 0.83852 0.69195 0.0
O147 O 0.36634 0.90442 0.67421 0.0
C148 C 0.37522 0.73036 0.67499 0.0
O149 O 0.40029 0.7461 0.6825 0.0
O150 O 0.32498 0.86003 0.70517 0.0
C151 C 0.38504 0.90313 0.6625 0.0
O152 O 0.40224 0.85721 0.66197 0.0
C153 C 0.41513 0.86126 0.71167 0.0
O154 O 0.41677 0.9072 0.70079 0.0
O155 O 0.35358 0.7625 0.67759 0.0
C156 C 0.58095 0.57144 0.45638 0.0
O157 O 0.60329 0.53869 0.45328 0.0
O158 O 0.6427 0.68805 0.44981 0.0
Zn159 Zn 0.61013 0.65246 0.43424 0.0
O160 O 0.62431 0.58364 0.41996 0.0
C161 C 0.59525 0.76926 0.42098 0.0
O162 O 0.60294 0.78401 0.43786 0.0
O163 O 0.57908 0.62358 0.44971 0.0
C164 C 0.64002 0.59118 0.40677 0.0
O165 O 0.64739 0.64543 0.40235 0.0
C166 C 0.66482 0.65842 0.45497 0.0
O167 O 0.66623 0.60189 0.45059 0.0
O168 O 0.59543 0.71474 0.41644 0.0
C169 C 0.66393 0.60087 0.7756 0.0
O170 O 0.63766 0.582 0.77185 0.0
O171 O 0.60423 0.69917 0.78602 0.0
Zn172 Zn 0.63616 0.66582 0.80258 0.0
O173 O 0.62178 0.59537 0.81612 0.0
C174 C 0.64912 0.78298 0.817 0.0
O175 O 0.64157 0.79982 0.80029 0.0
O176 O 0.66868 0.63874 0.78826 0.0
C177 C 0.61315 0.60039 0.83204 0.0
O178 O 0.61303 0.65309 0.83974 0.0
C179 C 0.58215 0.71904 0.79307 0.0
O180 O 0.58091 0.71692 0.8108 0.0
O181 O 0.64947 0.72791 0.82082 0.0
C182 C 0.42069 0.40267 0.52568 0.0
O183 O 0.39502 0.42585 0.52321 0.0
O184 O 0.3572 0.32304 0.53387 0.0
Zn185 Zn 0.39136 0.33826 0.55148 0.0
O186 O 0.38456 0.40535 0.56882 0.0
C187 C 0.37858 0.2287 0.56865 0.0
O188 O 0.3534 0.24112 0.56071 0.0
O189 O 0.42492 0.36151 0.53738 0.0
C190 C 0.36932 0.40027 0.58237 0.0
O191 O 0.356 0.3499 0.585 0.0
C192 C 0.33281 0.34687 0.5349 0.0
O193 O 0.32929 0.38739 0.54738 0.0
O194 O 0.39939 0.26368 0.56637 0.0
C195 C 0.3257 0.43175 0.20616 0.0
O196 O 0.34697 0.4644 0.20104 0.0
O197 O 0.38731 0.3084 0.20297 0.0
Zn198 Zn 0.35452 0.34059 0.18695 0.0
O199 O 0.36989 0.40213 0.17026 0.0
C200 C 0.34008 0.21994 0.17683 0.0
O201 O 0.35156 0.20861 0.19322 0.0
O202 O 0.32459 0.37698 0.20185 0.0
C203 C 0.37565 0.38944 0.1541 0.0
O204 O 0.37126 0.3351 0.14797 0.0
C205 C 0.40863 0.3406 0.20808 0.0
O206 O 0.40867 0.39706 0.20348 0.0
O207 O 0.33768 0.27363 0.1716 0.0
H208 H 0.27649 0.37557 0.53693 0.0
H209 H 0.33292 0.26503 0.50748 0.0
H210 H 0.23536 0.33105 0.5201 0.0
H211 H 0.29183 0.22164 0.49032 0.0
H212 H 0.21176 0.10948 0.47789 0.0
H213 H 0.25251 0.15491 0.49498 0.0
H214 H 0.21122 0.32648 0.49027 0.0
H215 H 0.17029 0.281 0.47365 0.0
C216 C 0.28015 0.34235 0.5267 0.0
C217 C 0.30798 0.32378 0.52358 0.0
C218 C 0.25656 0.3169 0.51701 0.0
C219 C 0.26029 0.27248 0.50394 0.0
C220 C 0.28818 0.25491 0.50054 0.0
C221 C 0.31175 0.2802 0.51026 0.0
C222 C 0.21133 0.15682 0.48059 0.0
C223 C 0.18776 0.19154 0.47443 0.0
C224 C 0.23477 0.18296 0.49026 0.0
C225 C 0.23519 0.24442 0.49393 0.0
C226 C 0.21147 0.27895 0.48789 0.0
C227 C 0.18803 0.25282 0.47829 0.0
H228 H 0.95662 0.87471 0.51471 0.0
H229 H 0.92528 0.05247 0.52337 0.0
H230 H 0.99551 0.91564 0.49822 0.0
H231 H 0.96453 0.0934 0.50736 0.0
H232 H 0.02272 0.14349 0.4625 0.0
H233 H 0.98265 0.10188 0.47773 0.0
H234 H 0.03897 0.9713 0.504 0.0
H235 H 0.07877 0.01177 0.48842 0.0
C236 C 0.95805 0.9225 0.51312 0.0
C237 C 0.93787 0.9603 0.52037 0.0
C238 C 0.98045 0.94602 0.50377 0.0
C239 C 0.98323 0.00788 0.50151 0.0
C240 C 0.96284 0.04555 0.50862 0.0
C241 C 0.94041 0.02204 0.5179 0.0
C242 C 0.02654 0.10598 0.47155 0.0
C243 C 0.05393 0.08093 0.47423 0.0
C244 C 0.00359 0.08224 0.48034 0.0
C245 C 0.00755 0.03309 0.49206 0.0
C246 C 0.03503 0.00845 0.49482 0.0
C247 C 0.05792 0.032 0.48599 0.0
H248 H 0.27752 0.84869 0.72056 0.0
H249 H 0.31549 0.02385 0.72475 0.0
H250 H 0.2371 0.88395 0.73673 0.0
H251 H 0.27482 0.0594 0.74045 0.0
H252 H 0.213 0.08683 0.78484 0.0
H253 H 0.25348 0.05022 0.76908 0.0
H254 H 0.19599 0.94836 0.73277 0.0
H255 H 0.15557 0.98374 0.74884 0.0
C256 C 0.27719 0.89476 0.72485 0.0
C257 C 0.29975 0.93341 0.7214 0.0
C258 C 0.25394 0.91508 0.73403 0.0
C259 C 0.2527 0.97453 0.7399 0.0
C260 C 0.27528 0.01312 0.73638 0.0
C261 C 0.29854 0.99278 0.72727 0.0
C262 C 0.20899 0.05665 0.77349 0.0
C263 C 0.18106 0.03819 0.7681 0.0
C264 C 0.23219 0.03588 0.76439 0.0
C265 C 0.228 0.99634 0.74964 0.0
C266 C 0.20003 0.97807 0.74423 0.0
C267 C 0.17683 -0.00131 0.75338 0.0
H268 H 0.07389 0.2361 0.76608 0.0
H269 H 0.01908 0.08354 0.77196 0.0
H270 H 0.0363 0.28437 0.74696 0.0
H271 H 0.98167 0.1316 0.75263 0.0
H272 H 0.91116 0.26293 0.73415 0.0
H273 H 0.94898 0.21711 0.75371 0.0
H274 H 0.01136 0.27303 0.71667 0.0
H275 H 0.97362 0.31953 0.69721 0.0
C276 C 0.05389 0.21272 0.76323 0.0
C277 C 0.04948 0.15596 0.77056 0.0
C278 C 0.0324 0.24031 0.75221 0.0
C279 C 0.00601 0.21184 0.74832 0.0
C280 C 0.00164 0.155 0.75558 0.0
C281 C 0.02316 0.12731 0.76656 0.0
C282 C 0.93296 0.26574 0.73022 0.0
C283 C 0.93938 0.29481 0.71411 0.0
C284 C 0.95459 0.23912 0.74136 0.0
C285 C 0.98312 0.24122 0.73668 0.0
C286 C 0.9896 0.27109 0.72072 0.0
C287 C 0.96796 0.29748 0.70953 0.0
H288 H 0.8099 0.74876 0.5291 0.0
H289 H 0.8005 0.90146 0.49356 0.0
H290 H 0.76865 0.70233 0.51315 0.0
H291 H 0.75926 0.85422 0.47736 0.0
H292 H 0.66926 0.77509 0.46541 0.0
H293 H 0.70973 0.82397 0.48179 0.0
H294 H 0.7561 0.65792 0.4835 0.0
H295 H 0.71554 0.60879 0.46742 0.0
C296 C 0.79907 0.77246 0.51786 0.0
C297 C 0.80858 0.82881 0.51257 0.0
C298 C 0.77549 0.7456 0.50864 0.0
C299 C 0.76079 0.77439 0.49392 0.0
C300 C 0.77002 0.83111 0.48875 0.0
C301 C 0.79372 0.85803 0.49797 0.0
C302 C 0.68806 0.74895 0.46933 0.0
C303 C 0.68914 0.68796 0.46516 0.0
C304 C 0.71131 0.7771 0.47861 0.0
C305 C 0.73611 0.74484 0.48395 0.0
C306 C 0.73715 0.68385 0.47979 0.0
C307 C 0.71394 0.65574 0.4705 0.0
H308 H 0.67355 0.9526 0.27656 0.0
H309 H 0.70133 0.13025 0.26385 0.0
H310 H 0.7118 0.91114 0.25968 0.0
H311 H 0.73912 0.08877 0.24661 0.0
H312 H 0.82276 0.99716 0.23596 0.0
H313 H 0.78367 0.03674 0.2523 0.0
H314 H 0.72782 0.8992 0.22929 0.0
H315 H 0.76729 0.85856 0.2132 0.0
C316 C 0.68766 0.98283 0.27004 0.0
C317 C 0.68447 0.04476 0.27163 0.0
C318 C 0.7095 0.95902 0.26027 0.0
C319 C 0.72862 0.99659 0.25185 0.0
C320 C 0.72508 0.05854 0.25319 0.0
C321 C 0.7033 0.08234 0.26299 0.0
C322 C 0.80218 0.9752 0.23439 0.0
C323 C 0.79815 0.9247 0.22325 0.0
C324 C 0.77968 -0.00179 0.24367 0.0
C325 C 0.75253 0.97144 0.24202 0.0
C326 C 0.74853 0.92058 0.231 0.0
C327 C 0.77111 0.89742 0.22172 0.0
H328 H 0.95334 0.9025 0.22795 0.0
H329 H 0.91704 0.7268 0.22013 0.0
H330 H 0.9948 0.85946 0.24487 0.0
H331 H 0.95875 0.68375 0.23648 0.0
H332 H 0.02367 0.6322 0.28257 0.0
H333 H 0.98192 0.67541 0.26619 0.0
H334 H 0.03628 0.80029 0.24024 0.0
H335 H 0.07796 0.75825 0.25708 0.0
C336 C 0.95422 0.85473 0.22982 0.0
C337 C 0.93186 0.81814 0.22274 0.0
C338 C 0.97808 0.82999 0.23939 0.0
C339 C 0.98017 0.76808 0.24199 0.0
C340 C 0.95769 0.73163 0.23498 0.0
C341 C 0.93379 0.75637 0.22552 0.0
C342 C 0.02674 0.66867 0.2733 0.0
C343 C 0.05414 0.69181 0.27114 0.0
C344 C 0.00279 0.69335 0.26385 0.0
C345 C 0.00571 0.74149 0.25192 0.0
C346 C 0.0332 0.76397 0.24956 0.0
C347 C 0.05713 0.73952 0.25909 0.0
H348 H 0.32407 0.72311 0.03275 0.0
H349 H 0.30163 0.88645 0.00435 0.0
H350 H 0.28446 0.67253 0.01623 0.0
H351 H 0.26224 0.83529 0.98751 0.0
H352 H 0.177 0.73947 0.97491 0.0
H353 H 0.21591 0.79036 0.9922 0.0
H354 H 0.2705 0.63822 0.98572 0.0
H355 H 0.23148 0.58684 0.96876 0.0
C356 C 0.31076 0.74822 0.02291 0.0
C357 C 0.31604 0.80887 0.01985 0.0
C358 C 0.28813 0.71907 0.01337 0.0
C359 C 0.27023 0.74981 0.00053 0.0
C360 C 0.27544 0.81052 -0.00252 0.0
C361 C 0.29812 0.83975 0.00704 0.0
C362 C 0.19727 0.71674 0.97725 0.0
C363 C 0.20113 0.65904 0.97046 0.0
C364 C 0.21962 0.74611 0.98705 0.0
C365 C 0.24633 0.71844 0.99029 0.0
C366 C 0.25009 0.66053 0.98364 0.0
C367 C 0.22774 0.63115 0.97385 0.0
H368 H 0.09246 0.48106 0.99302 0.0
H369 H 0.03612 0.58485 0.95665 0.0
H370 H 0.05143 0.44399 0.00819 0.0
H371 H 0.99504 0.54648 0.97148 0.0
H372 H 0.93127 0.51709 0.01463 0.0
H373 H 0.9723 0.55372 -0.00049 0.0
H374 H 0.01068 0.37914 0.00355 0.0
H375 H 0.96987 0.34282 0.01919 0.0
C376 C 0.07131 0.4958 0.98821 0.0
C377 C 0.06757 0.53603 0.97365 0.0
C378 C 0.04776 0.47418 -0.00317 0.0
C379 C 0.0199 0.49212 0.99105 0.0
C380 C 0.0162 0.53236 0.97646 0.0
C381 C 0.03976 0.55418 0.9679 0.0
C382 C 0.94842 0.48641 0.01228 0.0
C383 C 0.94729 0.42701 0.01814 0.0
C384 C 0.9719 0.50738 0.0035 0.0
C385 C 0.99482 0.46941 0.00028 0.0
C386 C 0.9936 0.40983 0.00604 0.0
C387 C 0.97012 0.38889 0.0149 0.0
H388 H 0.31958 0.54871 0.21536 0.0
H389 H 0.28004 0.37609 0.21996 0.0
H390 H 0.28106 0.59374 0.23121 0.0
H391 H 0.24195 0.42088 0.23618 0.0
H392 H 0.16256 0.5272 0.24662 0.0
H393 H 0.20131 0.48524 0.23041 0.0
H394 H 0.26162 0.59896 0.2608 0.0
H395 H 0.22265 0.64211 0.27674 0.0
C396 C 0.30278 0.52029 0.21986 0.0
C397 C 0.30284 0.45882 0.21633 0.0
C398 C 0.28077 0.54609 0.22903 0.0
C399 C 0.25834 0.51099 0.23491 0.0
C400 C 0.25862 0.44939 0.23156 0.0
C401 C 0.28057 0.42363 0.22236 0.0
C402 C 0.18406 0.54349 0.24981 0.0
C403 C 0.18952 0.58792 0.26301 0.0
C404 C 0.20633 0.51909 0.24059 0.0
C405 C 0.23462 0.53837 0.2444 0.0
C406 C 0.24004 0.58349 0.25741 0.0
C407 C 0.21772 0.60805 0.26661 0.0
H408 H 0.68737 0.12356 -0.00332 0.0
H409 H 0.68076 0.26705 0.95758 0.0
H410 H 0.73117 0.16774 0.01057 0.0
H411 H 0.7246 0.31057 0.97132 0.0
H412 H 0.786 0.40311 0.01409 0.0
H413 H 0.74229 0.35988 -0.00022 0.0
H414 H 0.78087 0.18548 0.00292 0.0
H415 H 0.82435 0.22832 0.01738 0.0
C416 C 0.69525 0.16441 0.99104 0.0
C417 C 0.68057 0.19174 0.97603 0.0
C418 C 0.72042 0.18954 -0.00108 0.0
C419 C 0.73134 0.24261 0.99201 0.0
C420 C 0.71656 0.27003 0.97707 0.0
C421 C 0.69151 0.24483 0.96915 0.0
C422 C 0.78522 0.35562 0.01162 0.0
C423 C 0.80865 0.31921 0.0169 0.0
C424 C 0.76021 0.33088 0.00338 0.0
C425 C 0.75809 0.26921 0.00033 0.0
C426 C 0.78169 0.233 0.00535 0.0
C427 C 0.80669 0.25771 0.0135 0.0
H428 H 0.66075 0.52503 0.74653 0.0
H429 H 0.7211 0.62114 0.7825 0.0
H430 H 0.7001 0.48345 0.73068 0.0
H431 H 0.76044 0.57828 0.76701 0.0
H432 H 0.82218 0.54048 0.72333 0.0
H433 H 0.78261 0.58271 0.73869 0.0
H434 H 0.73881 0.41343 0.73492 0.0
H435 H 0.77814 0.37157 0.71905 0.0
C436 C 0.68241 0.53717 0.75109 0.0
C437 C 0.68778 0.57649 0.76576 0.0
C438 C 0.70499 0.51298 0.74208 0.0
C439 C 0.73346 0.52738 0.74758 0.0
C440 C 0.73878 0.56686 0.76224 0.0
C441 C 0.71621 0.59125 0.77118 0.0
C442 C 0.80414 0.51218 0.72579 0.0
C443 C 0.80332 0.45264 0.71996 0.0
C444 C 0.78149 0.53635 0.7347 0.0
C445 C 0.75752 0.50149 0.73807 0.0
C446 C 0.75676 0.44179 0.73231 0.0
C447 C 0.77938 0.41767 0.72332 0.0
H448 H 0.54039 0.14327 0.98078 0.0
H449 H 0.55758 0.96337 0.96403 0.0
H450 H 0.50391 0.10629 -1e-05 0.0
H451 H 0.52052 0.92661 0.98266 0.0
H452 H 0.47148 0.87282 0.03107 0.0
H453 H 0.50936 0.91113 0.01325 0.0
H454 H 0.45726 0.06408 -0.00187 0.0
H455 H 0.41988 0.0268 0.01647 0.0
C456 C 0.53627 0.09588 0.98112 0.0
C457 C 0.55189 0.05628 0.97089 0.0
C458 C 0.51524 0.07466 0.99205 0.0
C459 C 0.50919 0.0134 0.99288 0.0
C460 C 0.52489 0.97392 0.98262 0.0
C461 C 0.54605 0.99507 0.97183 0.0
C462 C 0.46815 0.91466 0.02395 0.0
C463 C 0.44267 0.94675 0.02519 0.0
C464 C 0.48981 0.93652 0.01365 0.0
C465 C 0.4864 0.99073 0.0042 0.0
C466 C 0.46086 0.02272 0.00545 0.0
C467 C 0.43932 0.00111 0.01588 0.0
H468 H 0.41706 0.22378 0.21732 0.0
H469 H 0.45726 0.39685 0.22148 0.0
H470 H 0.45922 0.17938 0.23308 0.0
H471 H 0.4995 0.35224 0.237 0.0
H472 H 0.55669 0.26173 0.28131 0.0
H473 H 0.51384 0.30441 0.26612 0.0
H474 H 0.50979 0.15915 0.22764 0.0
H475 H 0.55264 0.11574 0.24301 0.0
C476 C 0.43485 0.25239 0.22162 0.0
C477 C 0.43378 0.31391 0.21817 0.0
C478 C 0.45907 0.22684 0.23052 0.0
C479 C 0.48269 0.26228 0.23625 0.0
C480 C 0.48151 0.32384 0.23293 0.0
C481 C 0.45735 0.34937 0.22397 0.0
C482 C 0.54669 0.23872 0.26962 0.0
C483 C 0.55813 0.18532 0.26334 0.0
C484 C 0.5222 0.26343 0.26087 0.0
C485 C 0.50849 0.23528 0.24566 0.0
C486 C 0.51974 0.18159 0.23945 0.0
C487 C 0.54437 0.15691 0.24818 0.0
H488 H 0.41593 0.77931 0.73898 0.0
H489 H 0.46938 0.90667 0.71331 0.0
H490 H 0.45667 0.74846 0.75903 0.0
H491 H 0.51019 0.87564 0.73347 0.0
H492 H 0.58024 0.74335 0.75663 0.0
H493 H 0.53985 0.78205 0.73755 0.0
H494 H 0.48933 0.78967 0.78435 0.0
H495 H 0.52958 0.75093 0.80344 0.0
C496 C 0.43633 0.80101 0.73769 0.0
C497 C 0.43945 0.84535 0.72453 0.0
C498 C 0.45961 0.78352 0.74924 0.0
C499 C 0.48658 0.8096 0.74777 0.0
C500 C 0.48967 0.85446 0.73478 0.0
C501 C 0.46628 0.87243 0.72333 0.0
C502 C 0.56054 0.75344 0.76285 0.0
C503 C 0.55805 0.74382 0.78152 0.0
C504 C 0.53751 0.77596 0.75195 0.0
C505 C 0.51148 0.78877 0.75948 0.0
C506 C 0.50908 0.77967 0.77817 0.0
C507 C 0.53217 0.75769 0.7891 0.0
H508 H 0.47769 0.37631 0.53059 0.0
H509 H 0.41726 0.48194 0.4976 0.0
H510 H 0.51671 0.41793 0.51437 0.0
H511 H 0.45608 0.52211 0.48104 0.0
H512 H 0.53412 0.62951 0.4678 0.0
H513 H 0.49593 0.5885 0.48485 0.0
H514 H 0.53705 0.41649 0.48543 0.0
H515 H 0.57563 0.45793 0.46889 0.0
C516 C 0.47271 0.40801 0.51977 0.0
C517 C 0.44438 0.4259 0.51542 0.0
C518 C 0.49507 0.43171 0.51041 0.0
C519 C 0.48958 0.47357 0.49642 0.0
C520 C 0.46117 0.49085 0.49196 0.0
C521 C 0.43886 0.46744 0.50138 0.0
C522 C 0.53505 0.583 0.47162 0.0
C523 C 0.55792 0.54701 0.46698 0.0
C524 C 0.51305 0.55935 0.4813 0.0
C525 C 0.51332 0.49907 0.48647 0.0
C526 C 0.53632 0.46325 0.4819 0.0
C527 C 0.55839 0.48698 0.47231 0.0
H528 H 0.08646 0.85802 0.33027 0.0
H529 H 0.17581 0.81216 0.33905 0.0
H530 H 0.09199 0.93234 0.35417 0.0
H531 H 0.18124 0.88697 0.36323 0.0
H532 H 0.18008 0.07598 0.39129 0.0
H533 H 0.17874 -0.00135 0.36786 0.0
H534 H 0.10084 0.92917 0.38774 0.0
H535 H 0.10196 0.00618 0.41095 0.0
C536 C 0.10734 0.86389 0.33725 0.0
C537 C 0.13067 0.82889 0.33281 0.0
C538 C 0.11044 0.90626 0.35105 0.0
C539 C 0.13695 0.91488 0.36072 0.0
C540 C 0.16056 0.88124 0.35597 0.0
C541 C 0.15742 0.8384 0.34217 0.0
C542 C 0.16285 0.0438 0.39077 0.0
C543 C 0.14095 0.04766 0.40285 0.0
C544 C 0.16214 -0.00053 0.37739 0.0
C545 C 0.13947 0.95848 0.37584 0.0
C546 C 0.11828 0.96092 0.3884 0.0
C547 C 0.11902 0.00491 0.40176 0.0
H548 H 0.07224 0.32322 0.40445 0.0
H549 H 0.16423 0.33346 0.404 0.0
H550 H 0.06778 0.40254 0.38159 0.0
H551 H 0.1597 0.41204 0.38139 0.0
H552 H 0.14205 0.50228 0.32721 0.0
H553 H 0.14184 0.42014 0.34872 0.0
H554 H 0.08014 0.51295 0.37913 0.0
H555 H 0.08016 0.59551 0.35752 0.0
C556 C 0.09145 0.34237 0.39951 0.0
C557 C 0.11857 0.32199 0.406 0.0
C558 C 0.08889 0.3878 0.3865 0.0
C559 C 0.1134 0.41298 0.37962 0.0
C560 C 0.14043 0.39278 0.38623 0.0
C561 C 0.143 0.34799 0.39929 0.0
C562 C 0.12823 0.5051 0.33838 0.0
C563 C 0.11132 0.55572 0.34076 0.0
C564 C 0.12821 0.45812 0.35073 0.0
C565 C 0.11119 0.46049 0.36568 0.0
C566 C 0.09338 0.50991 0.36768 0.0
C567 C 0.09353 0.55724 0.35536 0.0
H568 H 0.1236 0.2383 0.85087 0.0
H569 H 0.19949 0.3052 0.8276 0.0
H570 H 0.12654 0.31772 0.87315 0.0
H571 H 0.20288 0.38441 0.8504 0.0
H572 H 0.17198 0.5589 0.87726 0.0
H573 H 0.17727 0.47434 0.8571 0.0
H574 H 0.15317 0.35531 0.89951 0.0
H575 H 0.14701 0.44006 0.91947 0.0
C576 C 0.14116 0.26958 0.85064 0.0
C577 C 0.16122 0.2656 0.83736 0.0
C578 C 0.14299 0.31494 0.86356 0.0
C579 C 0.165 0.35743 0.86362 0.0
C580 C 0.18549 0.35273 0.8506 0.0
C581 C 0.18363 0.30722 0.8376 0.0
C582 C 0.16815 0.51462 0.88236 0.0
C583 C 0.15867 0.50622 0.89986 0.0
C584 C 0.17135 0.46606 0.87082 0.0
C585 C 0.16532 0.40806 0.87661 0.0
C586 C 0.15738 0.39952 0.89449 0.0
C587 C 0.15397 0.44806 0.90596 0.0
H588 H 0.12607 0.73872 0.89188 0.0
H589 H 0.04932 0.80362 0.91448 0.0
H590 H 0.12323 0.81808 0.8696 0.0
H591 H 0.04603 0.88276 0.89168 0.0
H592 H 0.07667 0.058 0.86503 0.0
H593 H 0.0714 0.97338 0.88517 0.0
H594 H 0.09688 0.85481 0.84303 0.0
H595 H 0.10301 0.93961 0.8231 0.0
C596 C 0.10834 0.76953 0.89196 0.0
C597 C 0.08801 0.76501 0.90505 0.0
C598 C 0.10658 0.81486 0.87904 0.0
C599 C 0.08435 0.85676 0.87879 0.0
C600 C 0.06359 0.85153 0.89162 0.0
C601 C 0.06539 0.80606 0.90463 0.0
C602 C 0.08081 0.0138 0.85999 0.0
C603 C 0.09066 0.00556 0.84257 0.0
C604 C 0.07762 0.96521 0.87151 0.0
C605 C 0.08404 0.90734 0.8658 0.0
C606 C 0.09236 0.89892 0.848 0.0
C607 C 0.09575 0.9475 0.83654 0.0
H608 H 0.82393 0.24044 0.64197 0.0
H609 H 0.86968 0.11221 0.67655 0.0
H610 H 0.82136 0.16861 0.61706 0.0
H611 H 0.86691 0.04051 0.65167 0.0
H612 H 0.89324 0.97061 0.59662 0.0
H613 H 0.8903 0.03746 0.62233 0.0
H614 H 0.80113 0.06906 0.60698 0.0
H615 H 0.80401 0.0019 0.58099 0.0
C616 C 0.83308 0.19669 0.64434 0.0
C617 C 0.84725 0.18222 0.66119 0.0
C618 C 0.83148 0.15551 0.63009 0.0
C619 C 0.84418 0.09924 0.63238 0.0
C620 C 0.8573 0.08392 0.64945 0.0
C621 C 0.85874 0.1249 0.66373 0.0
C622 C 0.87296 0.99173 0.59866 0.0
C623 C 0.84884 0.98093 0.58673 0.0
C624 C 0.87124 0.02967 0.61351 0.0
C625 C 0.84543 0.05805 0.61675 0.0
C626 C 0.82133 0.04785 0.60476 0.0
C627 C 0.82298 0.00937 0.58992 0.0
H628 H 0.89549 0.41419 0.62325 0.0
H629 H 0.87488 0.52749 0.66794 0.0
H630 H 0.89808 0.50153 0.60371 0.0
H631 H 0.87783 0.61442 0.64848 0.0
H632 H 0.84091 0.73243 0.60191 0.0
H633 H 0.8461 0.6482 0.62241 0.0
H634 H 0.92412 0.5978 0.59853 0.0
H635 H 0.91884 0.68274 0.57768 0.0
C636 C 0.89194 0.45772 0.62898 0.0
C637 C 0.88458 0.46384 0.64708 0.0
C638 C 0.89359 0.50772 0.61781 0.0
C639 C 0.88784 0.56465 0.62452 0.0
C640 C 0.8819 0.57095 0.64286 0.0
C641 C 0.8803 0.52113 0.65402 0.0
C642 C 0.85927 0.70366 0.60101 0.0
C643 C 0.87947 0.71425 0.58815 0.0
C644 C 0.86234 0.65559 0.61288 0.0
C645 C 0.88563 0.6167 0.61217 0.0
C646 C 0.90592 0.62706 0.59932 0.0
C647 C 0.90294 0.67569 0.58746 0.0
H648 H 0.8942 0.50267 0.07789 0.0
H649 H 0.81843 0.42662 0.09894 0.0
H650 H 0.89367 0.58214 0.10025 0.0
H651 H 0.81816 0.50633 0.12154 0.0
H652 H 0.81658 0.69407 0.14904 0.0
H653 H 0.81272 0.61746 0.12531 0.0
H654 H 0.90329 0.58383 0.13361 0.0
H655 H 0.90725 0.65991 0.157 0.0
C656 C 0.87732 0.50304 0.08721 0.0
C657 C 0.85653 0.4579 0.08675 0.0
C658 C 0.8771 0.54848 0.10008 0.0
C659 C 0.8561 0.54997 0.11279 0.0
C660 C 0.83456 0.50636 0.11187 0.0
C661 C 0.8348 0.46063 0.09898 0.0
C662 C 0.83561 0.6701 0.14581 0.0
C663 C 0.86224 0.68331 0.15484 0.0
C664 C 0.83337 0.62621 0.13228 0.0
C665 C 0.85777 0.59521 0.12747 0.0
C666 C 0.88421 0.60778 0.13676 0.0
C667 C 0.88642 0.65119 0.15027 0.0
H668 H 0.84867 0.00435 0.16106 0.0
H669 H 0.923 0.9256 0.13906 0.0
H670 H 0.84921 0.08359 0.13864 0.0
H671 H 0.92328 0.00512 0.11641 0.0
H672 H 0.92535 0.19266 0.08873 0.0
H673 H 0.92942 0.11628 0.1125 0.0
H674 H 0.83854 0.08456 0.1053 0.0
H675 H 0.83437 0.1604 0.08185 0.0
C676 C 0.86526 0.0041 0.15152 0.0
C677 C 0.88561 0.95825 0.15172 0.0
C678 C 0.86547 0.0494 0.13861 0.0
C679 C 0.88604 0.05004 0.12562 0.0
C680 C 0.90721 0.00578 0.12629 0.0
C681 C 0.90696 0.96018 0.13922 0.0
C682 C 0.9063 0.16915 0.0922 0.0
C683 C 0.87952 0.18284 0.08348 0.0
C684 C 0.90866 0.1254 0.10576 0.0
C685 C 0.88424 0.09505 0.11089 0.0
C686 C 0.85765 0.10804 0.10189 0.0
C687 C 0.85531 0.1513 0.08835 0.0
H688 H 0.64053 0.90301 0.81483 0.0
H689 H 0.66654 0.7631 0.85262 0.0
H690 H 0.64105 0.97381 0.83995 0.0
H691 H 0.66688 0.83402 0.8777 0.0
H692 H 0.68399 0.99386 0.91647 0.0
H693 H 0.69053 0.92718 0.89079 0.0
H694 H 0.60911 0.98306 0.86568 0.0
H695 H 0.60255 0.04938 0.89111 0.0
C696 C 0.64675 0.88751 0.82844 0.0
C697 C 0.65321 0.82733 0.83176 0.0
C698 C 0.64689 0.92799 0.84282 0.0
C699 C 0.6537 0.9092 0.86078 0.0
C700 C 0.66167 0.84976 0.86399 0.0
C701 C 0.66134 0.80915 0.84962 0.0
C702 C 0.66752 0.99184 0.90545 0.0
C703 C 0.64274 0.02678 0.90584 0.0
C704 C 0.67126 0.95368 0.8908 0.0
C705 C 0.65044 0.95039 0.87619 0.0
C706 C 0.62573 0.98541 0.8766 0.0
C707 C 0.62187 0.02299 0.89128 0.0
H708 H 0.64082 0.26612 0.88249 0.0
H709 H 0.56989 0.32941 0.91164 0.0
H710 H 0.63602 0.351 0.86225 0.0
H711 H 0.56482 0.41482 0.89101 0.0
H712 H 0.59915 0.59428 0.86741 0.0
H713 H 0.59353 0.50497 0.88557 0.0
H714 H 0.60479 0.39604 0.83829 0.0
H715 H 0.61098 0.48521 0.82018 0.0
C716 C 0.62397 0.29791 0.88447 0.0
C717 C 0.60586 0.29129 0.89876 0.0
C718 C 0.62106 0.34635 0.87273 0.0
C719 C 0.59998 0.38953 0.87499 0.0
C720 C 0.58138 0.38237 0.88903 0.0
C721 C 0.58421 0.33345 0.90077 0.0
C722 C 0.60005 0.5513 0.86082 0.0
C723 C 0.60599 0.54679 0.84243 0.0
C724 C 0.59662 0.50014 0.87121 0.0
C725 C 0.59903 0.4435 0.8634 0.0
C726 C 0.60332 0.43912 0.84475 0.0
C727 C 0.60679 0.49021 0.83438 0.0
H728 H 0.64945 0.34593 0.31857 0.0
H729 H 0.6818 0.24141 0.36468 0.0
H730 H 0.64958 0.43416 0.33775 0.0
H731 H 0.68227 0.33007 0.3838 0.0
H732 H 0.63213 0.47365 0.41413 0.0
H733 H 0.64301 0.38858 0.39541 0.0
H734 H 0.67865 0.50605 0.35643 0.0
H735 H 0.66745 0.59166 0.37512 0.0
C736 C 0.65711 0.34197 0.33272 0.0
C737 C 0.66525 0.28645 0.34015 0.0
C738 C 0.65734 0.39268 0.34369 0.0
C739 C 0.66565 0.38892 0.36233 0.0
C740 C 0.67533 0.33411 0.36954 0.0
C741 C 0.67521 0.2834 0.35855 0.0
C742 C 0.64251 0.48141 0.40165 0.0
C743 C 0.64871 0.53946 0.39603 0.0
C744 C 0.64897 0.43256 0.39099 0.0
C745 C 0.6617 0.4406 0.37444 0.0
C746 C 0.66863 0.49854 0.36905 0.0
C747 C 0.6623 0.5475 0.37978 0.0
H748 H 0.59984 0.88973 0.42526 0.0
H749 H 0.57954 0.75399 0.38485 0.0
H750 H 0.59734 0.96531 0.40148 0.0
H751 H 0.57734 0.82961 0.36109 0.0
H752 H 0.55661 0.98913 0.32404 0.0
H753 H 0.55132 0.91892 0.34893 0.0
H754 H 0.62845 0.98801 0.37665 0.0
H755 H 0.63363 0.05826 0.352 0.0
C756 C 0.59451 0.87606 0.41135 0.0
C757 C 0.59016 0.81576 0.40693 0.0
C758 C 0.59323 0.91934 0.39772 0.0
C759 C 0.58744 0.9033 0.37941 0.0
C760 C 0.58168 0.8434 0.37509 0.0
C761 C 0.58309 0.80005 0.38871 0.0
C762 C 0.57233 0.98952 0.3355 0.0
C763 C 0.5956 0.02909 0.336 0.0
C764 C 0.56934 0.94922 0.34971 0.0
C765 C 0.58942 0.94807 0.36476 0.0
C766 C 0.61238 0.98837 0.36537 0.0
C767 C 0.61548 0.02831 0.35116 0.0
H768 H 0.31311 0.22638 0.14278 0.0
H769 H 0.35596 0.10368 0.18064 0.0
H770 H 0.31224 0.15012 0.11906 0.0
H771 H 0.35526 0.02806 0.15687 0.0
H772 H 0.39113 0.96429 0.10276 0.0
H773 H 0.38345 0.03254 0.12758 0.0
H774 H 0.2936 0.04098 0.11077 0.0
H775 H 0.30114 0.97136 0.08586 0.0
C776 C 0.32184 0.18286 0.14614 0.0
C777 C 0.33492 0.17126 0.16352 0.0
C778 C 0.32123 0.13925 0.13258 0.0
C779 C 0.33398 0.08367 0.13614 0.0
C780 C 0.34555 0.07091 0.15378 0.0
C781 C 0.34584 0.11415 0.16738 0.0
C782 C 0.36971 0.98063 0.10429 0.0
C783 C 0.34672 0.96251 0.09233 0.0
C784 C 0.3653 0.01928 0.1186 0.0
C785 C 0.3379 0.04139 0.12115 0.0
C786 C 0.31491 0.02426 0.10908 0.0
C787 C 0.31923 0.98456 0.09487 0.0
H788 H 0.37436 0.38847 0.11706 0.0
H789 H 0.40037 0.49551 0.16398 0.0
H790 H 0.3875 0.4687 0.09712 0.0
H791 H 0.41497 0.57481 0.14409 0.0
H792 H 0.39631 0.72921 0.10456 0.0
H793 H 0.39259 0.64658 0.12528 0.0
H794 H 0.42326 0.52713 0.08491 0.0
H795 H 0.42566 0.61016 0.06373 0.0
C796 C 0.3834 0.42882 0.1231 0.0
C797 C 0.38598 0.43609 0.14206 0.0
C798 C 0.39119 0.47474 0.11166 0.0
C799 C 0.40217 0.52863 0.11894 0.0
C800 C 0.40598 0.53458 0.13797 0.0
C801 C 0.39773 0.48905 0.1494 0.0
C802 C 0.40263 0.68549 0.10013 0.0
C803 C 0.41099 0.67619 0.0824 0.0
C804 C 0.40069 0.63793 0.11212 0.0
C805 C 0.40745 0.57984 0.10679 0.0
C806 C 0.4173 0.57103 0.08936 0.0
C807 C 0.41891 0.61868 0.07725 0.0
H808 H 0.32668 0.68033 0.65856 0.0
H809 H 0.41875 0.66495 0.66268 0.0
H810 H 0.3238 0.60001 0.63605 0.0
H811 H 0.41576 0.58524 0.64028 0.0
H812 H 0.40097 0.50223 0.58391 0.0
H813 H 0.40107 0.58071 0.60671 0.0
H814 H 0.33504 0.48865 0.63366 0.0
H815 H 0.33487 0.40964 0.6108 0.0
C816 C 0.34624 0.65961 0.65477 0.0
C817 C 0.37295 0.6792 0.66235 0.0
C818 C 0.34457 0.6136 0.64194 0.0
C819 C 0.36957 0.5869 0.63632 0.0
C820 C 0.39617 0.60567 0.64417 0.0
C821 C 0.39784 0.6511 0.65709 0.0
C822 C 0.38633 0.49876 0.59462 0.0
C823 C 0.36801 0.44953 0.5956 0.0
C824 C 0.38652 0.54357 0.60773 0.0
C825 C 0.36823 0.54045 0.62202 0.0
C826 C 0.34929 0.49219 0.62275 0.0
C827 C 0.3493 0.44693 0.60971 0.0
H828 H 0.42698 0.18984 0.58821 0.0
H829 H 0.33684 0.15284 0.57799 0.0
H830 H 0.43026 0.11047 0.61105 0.0
H831 H 0.34024 0.0742 0.60062 0.0
H832 H 0.34868 0.99709 0.65767 0.0
H833 H 0.34898 0.07443 0.63461 0.0
H834 H 0.42446 0.99724 0.61381 0.0
H835 H 0.4243 0.91934 0.63702 0.0
C836 C 0.40797 0.16454 0.59071 0.0
C837 C 0.38161 0.17795 0.58139 0.0
C838 C 0.40989 0.1191 0.60373 0.0
C839 C 0.38542 0.08678 0.60773 0.0
C840 C 0.35933 0.09912 0.59803 0.0
C841 C 0.35745 0.14402 0.58498 0.0
C842 C 0.36546 0.99661 0.64827 0.0
C843 C 0.38637 0.95181 0.6491 0.0
C844 C 0.36553 0.04077 0.635 0.0
C845 C 0.38659 0.04143 0.62233 0.0
C846 C 0.40803 -0.00221 0.62345 0.0
C847 C 0.40784 0.95314 0.63668 0.0
loop_
_geom_bond_atom_site_label_1
_geom_bond_atom_site_label_2
_geom_bond_distance
_geom_bond_site_symmetry_2
_ccdc_geom_bond_type
C0 O1 1.160 . S
C0 O7 1.185 . S
O1 C0 1.160 . S
O2 Zn3 1.899 . S
O2 C10 1.284 . S
Zn3 O2 1.899 . S
Zn3 O4 2.032 . S
Zn3 O7 2.086 . S
Zn3 O12 1.977 . S
O4 Zn3 2.032 . S
O4 C8 1.278 . S
C5 O6 1.203 . S
C5 O12 1.267 . S
O6 C5 1.203 . S
O7 C0 1.185 . S
O7 Zn3 2.086 . S
C8 O4 1.278 . S
C8 O9 1.211 . S
O9 C8 1.211 . S
C10 O2 1.284 . S
C10 O11 1.273 . S
O11 C10 1.273 . S
O12 Zn3 1.977 . S
O12 C5 1.267 . S
C13 O14 1.160 . S
C13 O20 1.185 . S
O14 C13 1.160 . S
O15 Zn16 1.899 . S
O15 C23 1.284 . S
Zn16 O15 1.899 . S
Zn16 O17 2.032 . S
Zn16 O20 2.086 . S
Zn16 O25 1.977 . S
O17 Zn16 2.032 . S
O17 C21 1.278 . S
C18 O19 1.203 . S
C18 O25 1.267 . S
O19 C18 1.203 . S
O20 C13 1.185 . S
O20 Zn16 2.086 . S
C21 O17 1.278 . S
C21 O22 1.211 . S
O22 C21 1.211 . S
C23 O15 1.284 . S
C23 O24 1.273 . S
O24 C23 1.273 . S
O25 Zn16 1.977 . S
O25 C18 1.267 . S
C26 O27 1.160 . S
C26 O33 1.185 . S
O27 C26 1.160 . S
O28 Zn29 1.899 . S
O28 C36 1.284 . S
Zn29 O28 1.899 . S
Zn29 O30 2.032 . S
Zn29 O33 2.086 . S
Zn29 O38 1.977 . S
O30 Zn29 2.032 . S
O30 C34 1.278 . S
C31 O32 1.203 . S
C31 O38 1.267 . S
O32 C31 1.203 . S
O33 C26 1.185 . S
O33 Zn29 2.086 . S
C34 O30 1.278 . S
C34 O35 1.211 . S
O35 C34 1.211 . S
C36 O28 1.284 . S
C36 O37 1.273 . S
O37 C36 1.273 . S
O38 Zn29 1.977 . S
O38 C31 1.267 . S
C39 O40 1.160 . S
C39 O46 1.185 . S
O40 C39 1.160 . S
O41 Zn42 1.899 . S
O41 C49 1.284 . S
Zn42 O41 1.899 . S
Zn42 O43 2.032 . S
Zn42 O46 2.086 . S
Zn42 O51 1.977 . S
O43 Zn42 2.032 . S
O43 C47 1.278 . S
C44 O45 1.203 . S
C44 O51 1.267 . S
O45 C44 1.203 . S
O46 C39 1.185 . S
O46 Zn42 2.086 . S
C47 O43 1.278 . S
C47 O48 1.211 . S
O48 C47 1.211 . S
C49 O41 1.284 . S
C49 O50 1.273 . S
O50 C49 1.273 . S
O51 Zn42 1.977 . S
O51 C44 1.267 . S
C52 O53 1.160 . S
C52 O59 1.185 . S
O53 C52 1.160 . S
O54 Zn55 1.899 . S
O54 C62 1.284 . S
Zn55 O54 1.899 . S
Zn55 O56 2.032 . S
Zn55 O59 2.086 . S
Zn55 O64 1.977 . S
O56 Zn55 2.032 . S
O56 C60 1.278 . S
C57 O58 1.203 . S
C57 O64 1.267 . S
O58 C57 1.203 . S
O59 C52 1.185 . S
O59 Zn55 2.086 . S
C60 O56 1.278 . S
C60 O61 1.211 . S
O61 C60 1.211 . S
C62 O54 1.284 . S
C62 O63 1.273 . S
O63 C62 1.273 . S
O64 Zn55 1.977 . S
O64 C57 1.267 . S
C65 O66 1.160 . S
C65 O72 1.185 . S
O66 C65 1.160 . S
O67 Zn68 1.899 . S
O67 C75 1.284 . S
Zn68 O67 1.899 . S
Zn68 O69 2.032 . S
Zn68 O72 2.086 . S
Zn68 O77 1.977 . S
O69 Zn68 2.032 . S
O69 C73 1.278 . S
C70 O71 1.203 . S
C70 O77 1.267 . S
O71 C70 1.203 . S
O72 C65 1.185 . S
O72 Zn68 2.086 . S
C73 O69 1.278 . S
C73 O74 1.211 . S
O74 C73 1.211 . S
C75 O67 1.284 . S
C75 O76 1.273 . S
O76 C75 1.273 . S
O77 Zn68 1.977 . S
O77 C70 1.267 . S
C78 O79 1.160 . S
C78 O85 1.185 . S
O79 C78 1.160 . S
O80 Zn81 1.899 . S
O80 C88 1.284 . S
Zn81 O80 1.899 . S
Zn81 O82 2.032 . S
Zn81 O85 2.086 . S
Zn81 O90 1.977 . S
O82 Zn81 2.032 . S
O82 C86 1.278 . S
C83 O84 1.203 . S
C83 O90 1.267 . S
O84 C83 1.203 . S
O85 C78 1.185 . S
O85 Zn81 2.086 . S
C86 O82 1.278 . S
C86 O87 1.211 . S
O87 C86 1.211 . S
C88 O80 1.284 . S
C88 O89 1.273 . S
O89 C88 1.273 . S
O90 Zn81 1.977 . S
O90 C83 1.267 . S
C91 O92 1.160 . S
C91 O98 1.185 . S
O92 C91 1.160 . S
O93 Zn94 1.899 . S
O93 C101 1.284 . S
Zn94 O93 1.899 . S
Zn94 O95 2.032 . S
Zn94 O98 2.086 . S
Zn94 O103 1.977 . S
O95 Zn94 2.032 . S
O95 C99 1.278 . S
C96 O97 1.203 . S
C96 O103 1.267 . S
O97 C96 1.203 . S
O98 C91 1.185 . S
O98 Zn94 2.086 . S
C99 O95 1.278 . S
C99 O100 1.211 . S
O100 C99 1.211 . S
C101 O93 1.284 . S
C101 O102 1.273 . S
O102 C101 1.273 . S
O103 Zn94 1.977 . S
O103 C96 1.267 . S
C104 O105 1.160 . S
C104 O111 1.185 . S
O105 C104 1.160 . S
O106 Zn107 1.899 . S
O106 C114 1.284 . S
Zn107 O106 1.899 . S
Zn107 O108 2.032 . S
Zn107 O111 2.086 . S
Zn107 O116 1.977 . S
O108 Zn107 2.032 . S
O108 C112 1.278 . S
C109 O110 1.203 . S
C109 O116 1.267 . S
O110 C109 1.203 . S
O111 C104 1.185 . S
O111 Zn107 2.086 . S
C112 O108 1.278 . S
C112 O113 1.211 . S
O113 C112 1.211 . S
C114 O106 1.284 . S
C114 O115 1.273 . S
O115 C114 1.273 . S
O116 Zn107 1.977 . S
O116 C109 1.267 . S
C117 O118 1.160 . S
C117 O124 1.185 . S
O118 C117 1.160 . S
O119 Zn120 1.899 . S
O119 C127 1.284 . S
Zn120 O119 1.899 . S
Zn120 O121 2.032 . S
Zn120 O124 2.086 . S
Zn120 O129 1.977 . S
O121 Zn120 2.032 . S
O121 C125 1.278 . S
C122 O123 1.203 . S
C122 O129 1.267 . S
O123 C122 1.203 . S
O124 C117 1.185 . S
O124 Zn120 2.086 . S
C125 O121 1.278 . S
C125 O126 1.211 . S
O126 C125 1.211 . S
C127 O119 1.284 . S
C127 O128 1.273 . S
O128 C127 1.273 . S
O129 Zn120 1.977 . S
O129 C122 1.267 . S
C130 O131 1.160 . S
C130 O137 1.185 . S
O131 C130 1.160 . S
O132 Zn133 1.899 . S
O132 C140 1.284 . S
Zn133 O132 1.899 . S
Zn133 O134 2.032 . S
Zn133 O137 2.086 . S
Zn133 O142 1.977 . S
O134 Zn133 2.032 . S
O134 C138 1.278 . S
C135 O136 1.203 . S
C135 O142 1.267 . S
O136 C135 1.203 . S
O137 C130 1.185 . S
O137 Zn133 2.086 . S
C138 O134 1.278 . S
C138 O139 1.211 . S
O139 C138 1.211 . S
C140 O132 1.284 . S
C140 O141 1.273 . S
O141 C140 1.273 . S
O142 Zn133 1.977 . S
O142 C135 1.267 . S
C143 O144 1.160 . S
C143 O150 1.185 . S
O144 C143 1.160 . S
O145 Zn146 1.899 . S
O145 C153 1.284 . S
Zn146 O145 1.899 . S
Zn146 O147 2.032 . S
Zn146 O150 2.086 . S
Zn146 O155 1.977 . S
O147 Zn146 2.032 . S
O147 C151 1.278 . S
C148 O149 1.203 . S
C148 O155 1.267 . S
O149 C148 1.203 . S
O150 C143 1.185 . S
O150 Zn146 2.086 . S
C151 O147 1.278 . S
C151 O152 1.211 . S
O152 C151 1.211 . S
C153 O145 1.284 . S
C153 O154 1.273 . S
O154 C153 1.273 . S
O155 Zn146 1.977 . S
O155 C148 1.267 . S
C156 O157 1.160 . S
C156 O163 1.185 . S
O157 C156 1.160 . S
O158 Zn159 1.899 . S
O158 C166 1.284 . S
Zn159 O158 1.899 . S
Zn159 O160 2.032 . S
Zn159 O163 2.086 . S
Zn159 O168 1.977 . S
O160 Zn159 2.032 . S
O160 C164 1.278 . S
C161 O162 1.203 . S
C161 O168 1.267 . S
O162 C161 1.203 . S
O163 C156 1.185 . S
O163 Zn159 2.086 . S
C164 O160 1.278 . S
C164 O165 1.211 . S
O165 C164 1.211 . S
C166 O158 1.284 . S
C166 O167 1.273 . S
O167 C166 1.273 . S
O168 Zn159 1.977 . S
O168 C161 1.267 . S
C169 O170 1.160 . S
C169 O176 1.185 . S
O170 C169 1.160 . S
O171 Zn172 1.899 . S
O171 C179 1.284 . S
Zn172 O171 1.899 . S
Zn172 O173 2.032 . S
Zn172 O176 2.086 . S
Zn172 O181 1.977 . S
O173 Zn172 2.032 . S
O173 C177 1.278 . S
C174 O175 1.203 . S
C174 O181 1.267 . S
O175 C174 1.203 . S
O176 C169 1.185 . S
O176 Zn172 2.086 . S
C177 O173 1.278 . S
C177 O178 1.211 . S
O178 C177 1.211 . S
C179 O171 1.284 . S
C179 O180 1.273 . S
O180 C179 1.273 . S
O181 Zn172 1.977 . S
O181 C174 1.267 . S
C182 O183 1.160 . S
C182 O189 1.185 . S
O183 C182 1.160 . S
O184 Zn185 1.899 . S
O184 C192 1.284 . S
Zn185 O184 1.899 . S
Zn185 O186 2.032 . S
Zn185 O189 2.086 . S
Zn185 O194 1.977 . S
O186 Zn185 2.032 . S
O186 C190 1.278 . S
C187 O188 1.203 . S
C187 O194 1.267 . S
O188 C187 1.203 . S
O189 C182 1.185 . S
O189 Zn185 2.086 . S
C190 O186 1.278 . S
C190 O191 1.211 . S
O191 C190 1.211 . S
C192 O184 1.284 . S
C192 O193 1.273 . S
O193 C192 1.273 . S
O194 Zn185 1.977 . S
O194 C187 1.267 . S
C195 O196 1.160 . S
C195 O202 1.185 . S
O196 C195 1.160 . S
O197 Zn198 1.899 . S
O197 C205 1.284 . S
Zn198 O197 1.899 . S
Zn198 O199 2.032 . S
Zn198 O202 2.086 . S
Zn198 O207 1.977 . S
O199 Zn198 2.032 . S
O199 C203 1.278 . S
C200 O201 1.203 . S
C200 O207 1.267 . S
O201 C200 1.203 . S
O202 C195 1.185 . S
O202 Zn198 2.086 . S
C203 O199 1.278 . S
C203 O204 1.211 . S
O204 C203 1.211 . S
C205 O197 1.284 . S
C205 O206 1.273 . S
O206 C205 1.273 . S
O207 Zn198 1.977 . S
O207 C200 1.267 . S
H208 C216 0.950 . S
H209 C221 0.950 . S
H210 C218 0.950 . S
H211 C220 0.950 . S
H212 C222 0.950 . S
H213 C224 0.950 . S
H214 C226 0.950 . S
H215 C227 0.950 . S
C216 H208 0.950 . S
C216 C217 1.386 . S
C216 C218 1.391 . S
C217 C216 1.386 . S
C217 C221 1.393 . S
C218 H210 0.950 . S
C218 C216 1.391 . S
C218 C219 1.400 . S
C219 C218 1.400 . S
C219 C220 1.398 . S
C219 C225 1.491 . S
C220 H211 0.950 . S
C220 C219 1.398 . S
C220 C221 1.391 . S
C221 H209 0.950 . S
C221 C217 1.393 . S
C221 C220 1.391 . S
C222 H212 0.950 . S
C222 C223 1.386 . S
C222 C224 1.391 . S
C223 C222 1.386 . S
C223 C227 1.393 . S
C224 H213 0.950 . S
C224 C222 1.391 . S
C224 C225 1.400 . S
C225 C219 1.491 . S
C225 C224 1.400 . S
C225 C226 1.398 . S
C226 H214 0.950 . S
C226 C225 1.398 . S
C226 C227 1.391 . S
C227 H215 0.950 . S
C227 C223 1.393 . S
C227 C226 1.391 . S
H228 C236 0.950 . S
H229 C241 0.950 . S
H230 C238 0.950 1_445 S
H231 C240 0.950 . S
H232 C242 0.950 . S
H233 C244 0.950 1_665 S
H234 C246 0.950 . S
H235 C247 0.950 . S
C236 H228 0.950 . S
C236 C237 1.386 . S
C236 C238 1.391 . S
C237 C236 1.386 . S
C237 C241 1.393 . S
C238 H230 0.950 1_665 S
C238 C236 1.391 . S
C238 C239 1.400 . S
C239 C238 1.400 . S
C239 C240 1.398 . S
C239 C245 1.491 1_665 S
C240 H231 0.950 . S
C240 C239 1.398 . S
C240 C241 1.391 . S
C241 H229 0.950 . S
C241 C237 1.393 . S
C241 C240 1.391 . S
C242 H232 0.950 . S
C242 C243 1.386 . S
C242 C244 1.391 . S
C243 C242 1.386 . S
C243 C247 1.393 . S
C244 H233 0.950 1_445 S
C244 C242 1.391 . S
C244 C245 1.400 . S
C245 C239 1.491 1_445 S
C245 C244 1.400 . S
C245 C246 1.398 . S
C246 H234 0.950 . S
C246 C245 1.398 . S
C246 C247 1.391 . S
C247 H235 0.950 . S
C247 C243 1.393 . S
C247 C246 1.391 . S
H248 C256 0.950 . S
H249 C261 0.950 . S
H250 C258 0.950 . S
H251 C260 0.950 . S
H252 C262 0.950 . S
H253 C264 0.950 . S
H254 C266 0.950 . S
H255 C267 0.950 . S
C256 H248 0.950 . S
C256 C257 1.386 . S
C256 C258 1.391 . S
C257 C256 1.386 . S
C257 C261 1.393 . S
C258 H250 0.950 . S
C258 C256 1.391 . S
C258 C259 1.400 . S
C259 C258 1.400 . S
C259 C260 1.398 . S
C259 C265 1.491 1_565 S
C260 H251 0.950 . S
C260 C259 1.398 . S
C260 C261 1.391 . S
C261 H249 0.950 . S
C261 C257 1.393 . S
C261 C260 1.391 . S
C262 H252 0.950 . S
C262 C263 1.386 . S
C262 C264 1.391 . S
C263 C262 1.386 . S
C263 C267 1.393 . S
C264 H253 0.950 . S
C264 C262 1.391 . S
C264 C265 1.400 . S
C265 C259 1.491 1_545 S
C265 C264 1.400 . S
C265 C266 1.398 . S
C266 H254 0.950 . S
C266 C265 1.398 . S
C266 C267 1.391 . S
C267 H255 0.950 . S
C267 C263 1.393 . S
C267 C266 1.391 . S
H268 C276 0.950 . S
H269 C281 0.950 . S
H270 C278 0.950 . S
H271 C280 0.950 1_655 S
H272 C282 0.950 . S
H273 C284 0.950 . S
H274 C286 0.950 1_455 S
H275 C287 0.950 . S
C276 H268 0.950 . S
C276 C277 1.386 . S
C276 C278 1.391 . S
C277 C276 1.386 . S
C277 C281 1.393 . S
C278 H270 0.950 . S
C278 C276 1.391 . S
C278 C279 1.400 . S
C279 C278 1.400 . S
C279 C280 1.398 . S
C279 C285 1.491 1_455 S
C280 H271 0.950 1_455 S
C280 C279 1.398 . S
C280 C281 1.391 . S
C281 H269 0.950 . S
C281 C277 1.393 . S
C281 C280 1.391 . S
C282 H272 0.950 . S
C282 C283 1.386 . S
C282 C284 1.391 . S
C283 C282 1.386 . S
C283 C287 1.393 . S
C284 H273 0.950 . S
C284 C282 1.391 . S
C284 C285 1.400 . S
C285 C279 1.491 1_655 S
C285 C284 1.400 . S
C285 C286 1.398 . S
C286 H274 0.950 1_655 S
C286 C285 1.398 . S
C286 C287 1.391 . S
C287 H275 0.950 . S
C287 C283 1.393 . S
C287 C286 1.391 . S
H288 C296 0.950 . S
H289 C301 0.950 . S
H290 C298 0.950 . S
H291 C300 0.950 . S
H292 C302 0.950 . S
H293 C304 0.950 . S
H294 C306 0.950 . S
H295 C307 0.950 . S
C296 H288 0.950 . S
C296 C297 1.386 . S
C296 C298 1.391 . S
C297 C296 1.386 . S
C297 C301 1.393 . S
C298 H290 0.950 . S
C298 C296 1.391 . S
C298 C299 1.400 . S
C299 C298 1.400 . S
C299 C300 1.398 . S
C299 C305 1.491 . S
C300 H291 0.950 . S
C300 C299 1.398 . S
C300 C301 1.391 . S
C301 H289 0.950 . S
C301 C297 1.393 . S
C301 C300 1.391 . S
C302 H292 0.950 . S
C302 C303 1.386 . S
C302 C304 1.391 . S
C303 C302 1.386 . S
C303 C307 1.393 . S
C304 H293 0.950 . S
C304 C302 1.391 . S
C304 C305 1.400 . S
C305 C299 1.491 . S
C305 C304 1.400 . S
C305 C306 1.398 . S
C306 H294 0.950 . S
C306 C305 1.398 . S
C306 C307 1.391 . S
C307 H295 0.950 . S
C307 C303 1.393 . S
C307 C306 1.391 . S
H308 C316 0.950 . S
H309 C321 0.950 . S
H310 C318 0.950 . S
H311 C320 0.950 . S
H312 C322 0.950 . S
H313 C324 0.950 . S
H314 C326 0.950 . S
H315 C327 0.950 . S
C316 H308 0.950 . S
C316 C317 1.386 . S
C316 C318 1.391 1_545 S
C317 C316 1.386 . S
C317 C321 1.393 . S
C318 H310 0.950 . S
C318 C316 1.391 1_565 S
C318 C319 1.400 1_565 S
C319 C318 1.400 1_545 S
C319 C320 1.398 . S
C319 C325 1.491 1_545 S
C320 H311 0.950 . S
C320 C319 1.398 . S
C320 C321 1.391 . S
C321 H309 0.950 . S
C321 C317 1.393 . S
C321 C320 1.391 . S
C322 H312 0.950 . S
C322 C323 1.386 . S
C322 C324 1.391 1_565 S
C323 C322 1.386 . S
C323 C327 1.393 . S
C324 H313 0.950 . S
C324 C322 1.391 1_545 S
C324 C325 1.400 1_545 S
C325 C319 1.491 1_565 S
C325 C324 1.400 1_565 S
C325 C326 1.398 . S
C326 H314 0.950 . S
C326 C325 1.398 . S
C326 C327 1.391 . S
C327 H315 0.950 . S
C327 C323 1.393 . S
C327 C326 1.391 . S
H328 C336 0.950 . S
H329 C341 0.950 . S
H330 C338 0.950 1_455 S
H331 C340 0.950 . S
H332 C342 0.950 . S
H333 C344 0.950 1_655 S
H334 C346 0.950 . S
H335 C347 0.950 . S
C336 H328 0.950 . S
C336 C337 1.386 . S
C336 C338 1.391 . S
C337 C336 1.386 . S
C337 C341 1.393 . S
C338 H330 0.950 1_655 S
C338 C336 1.391 . S
C338 C339 1.400 . S
C339 C338 1.400 . S
C339 C340 1.398 . S
C339 C345 1.491 1_655 S
C340 H331 0.950 . S
C340 C339 1.398 . S
C340 C341 1.391 . S
C341 H329 0.950 . S
C341 C337 1.393 . S
C341 C340 1.391 . S
C342 H332 0.950 . S
C342 C343 1.386 . S
C342 C344 1.391 . S
C343 C342 1.386 . S
C343 C347 1.393 . S
C344 H333 0.950 1_455 S
C344 C342 1.391 . S
C344 C345 1.400 . S
C345 C339 1.491 1_455 S
C345 C344 1.400 . S
C345 C346 1.398 . S
C346 H334 0.950 . S
C346 C345 1.398 . S
C346 C347 1.391 . S
C347 H335 0.950 . S
C347 C343 1.393 . S
C347 C346 1.391 . S
H348 C356 0.950 . S
H349 C361 0.950 . S
H350 C358 0.950 . S
H351 C360 0.950 . S
H352 C362 0.950 . S
H353 C364 0.950 . S
H354 C366 0.950 . S
H355 C367 0.950 . S
C356 H348 0.950 . S
C356 C357 1.386 . S
C356 C358 1.391 . S
C357 C356 1.386 . S
C357 C361 1.393 . S
C358 H350 0.950 . S
C358 C356 1.391 . S
C358 C359 1.400 . S
C359 C358 1.400 . S
C359 C360 1.398 . S
C359 C365 1.491 1_554 S
C360 H351 0.950 . S
C360 C359 1.398 . S
C360 C361 1.391 . S
C361 H349 0.950 . S
C361 C357 1.393 . S
C361 C360 1.391 . S
C362 H352 0.950 . S
C362 C363 1.386 . S
C362 C364 1.391 . S
C363 C362 1.386 . S
C363 C367 1.393 . S
C364 H353 0.950 . S
C364 C362 1.391 . S
C364 C365 1.400 . S
C365 C359 1.491 1_556 S
C365 C364 1.400 . S
C365 C366 1.398 . S
C366 H354 0.950 . S
C366 C365 1.398 . S
C366 C367 1.391 . S
C367 H355 0.950 . S
C367 C363 1.393 . S
C367 C366 1.391 . S
H368 C376 0.977 . S
H369 C381 0.950 . S
H370 C378 0.950 . S
H371 C380 0.950 1_655 S
H372 C382 0.977 . S
H373 C384 0.950 . S
H374 C386 0.950 1_455 S
H375 C387 0.950 . S
C376 H368 0.977 . S
C376 C377 1.386 . S
C376 C378 1.391 1_556 S
C377 C376 1.386 . S
C377 C381 1.393 . S
C378 H370 0.950 . S
C378 C376 1.391 1_554 S
C378 C379 1.400 1_554 S
C379 C378 1.400 1_556 S
C379 C380 1.398 . S
C379 C385 1.491 1_456 S
C380 H371 0.950 1_455 S
C380 C379 1.398 . S
C380 C381 1.391 . S
C381 H369 0.950 . S
C381 C377 1.393 . S
C381 C380 1.391 . S
C382 H372 0.977 . S
C382 C383 1.386 . S
C382 C384 1.391 1_554 S
C383 C382 1.386 . S
C383 C387 1.393 . S
C384 H373 0.950 . S
C384 C382 1.391 1_556 S
C384 C385 1.400 1_556 S
C385 C379 1.491 1_654 S
C385 C384 1.400 1_554 S
C385 C386 1.398 . S
C386 H374 0.950 1_655 S
C386 C385 1.398 . S
C386 C387 1.391 . S
C387 H375 0.950 . S
C387 C383 1.393 . S
C387 C386 1.391 . S
H388 C396 0.950 . S
H389 C401 0.950 . S
H390 C398 0.950 . S
H391 C400 0.950 . S
H392 C402 0.950 . S
H393 C404 0.950 . S
H394 C406 0.950 . S
H395 C407 0.950 . S
C396 H388 0.950 . S
C396 C397 1.386 . S
C396 C398 1.391 . S
C397 C396 1.386 . S
C397 C401 1.393 . S
C398 H390 0.950 . S
C398 C396 1.391 . S
C398 C399 1.400 . S
C399 C398 1.400 . S
C399 C400 1.398 . S
C399 C405 1.491 . S
C400 H391 0.950 . S
C400 C399 1.398 . S
C400 C401 1.391 . S
C401 H389 0.950 . S
C401 C397 1.393 . S
C401 C400 1.391 . S
C402 H392 0.950 . S
C402 C403 1.386 . S
C402 C404 1.391 . S
C403 C402 1.386 . S
C403 C407 1.393 . S
C404 H393 0.950 . S
C404 C402 1.391 . S
C404 C405 1.400 . S
C405 C399 1.491 . S
C405 C404 1.400 . S
C405 C406 1.398 . S
C406 H394 0.950 . S
C406 C405 1.398 . S
C406 C407 1.391 . S
C407 H395 0.950 . S
C407 C403 1.393 . S
C407 C406 1.391 . S
H408 C416 0.950 . S
H409 C421 0.950 . S
H410 C418 0.950 1_554 S
H411 C420 0.950 . S
H412 C422 0.950 . S
H413 C424 0.950 1_556 S
H414 C426 0.950 . S
H415 C427 0.950 . S
C416 H408 0.950 . S
C416 C417 1.386 . S
C416 C418 1.391 . S
C417 C416 1.386 . S
C417 C421 1.393 . S
C418 H410 0.950 1_556 S
C418 C416 1.391 . S
C418 C419 1.400 . S
C419 C418 1.400 . S
C419 C420 1.398 . S
C419 C425 1.491 1_556 S
C420 H411 0.950 . S
C420 C419 1.398 . S
C420 C421 1.391 . S
C421 H409 0.950 . S
C421 C417 1.393 . S
C421 C420 1.391 . S
C422 H412 0.950 . S
C422 C423 1.386 . S
C422 C424 1.391 . S
C423 C422 1.386 . S
C423 C427 1.393 . S
C424 H413 0.950 1_554 S
C424 C422 1.391 . S
C424 C425 1.400 . S
C425 C419 1.491 1_554 S
C425 C424 1.400 . S
C425 C426 1.398 . S
C426 H414 0.950 . S
C426 C425 1.398 . S
C426 C427 1.391 . S
C427 H415 0.950 . S
C427 C423 1.393 . S
C427 C426 1.391 . S
H428 C436 0.950 . S
H429 C441 0.950 . S
H430 C438 0.950 . S
H431 C440 0.950 . S
H432 C442 0.950 . S
H433 C444 0.950 . S
H434 C446 0.950 . S
H435 C447 0.950 . S
C436 H428 0.950 . S
C436 C437 1.386 . S
C436 C438 1.391 . S
C437 C436 1.386 . S
C437 C441 1.393 . S
C438 H430 0.950 . S
C438 C436 1.391 . S
C438 C439 1.400 . S
C439 C438 1.400 . S
C439 C440 1.398 . S
C439 C445 1.491 . S
C440 H431 0.950 . S
C440 C439 1.398 . S
C440 C441 1.391 . S
C441 H429 0.950 . S
C441 C437 1.393 . S
C441 C440 1.391 . S
C442 H432 0.950 . S
C442 C443 1.386 . S
C442 C444 1.391 . S
C443 C442 1.386 . S
C443 C447 1.393 . S
C444 H433 0.950 . S
C444 C442 1.391 . S
C444 C445 1.400 . S
C445 C439 1.491 . S
C445 C444 1.400 . S
C445 C446 1.398 . S
C446 H434 0.950 . S
C446 C445 1.398 . S
C446 C447 1.391 . S
C447 H435 0.950 . S
C447 C443 1.393 . S
C447 C446 1.391 . S
H448 C456 0.950 . S
H449 C461 0.950 1_565 S
H450 C458 0.950 . S
H451 C460 0.950 . S
H452 C462 0.950 . S
H453 C464 0.950 . S
H454 C466 0.950 . S
H455 C467 0.950 1_545 S
C456 H448 0.950 . S
C456 C457 1.386 . S
C456 C458 1.391 . S
C457 C456 1.386 . S
C457 C461 1.393 . S
C458 H450 0.950 . S
C458 C456 1.391 . S
C458 C459 1.400 . S
C459 C458 1.400 . S
C459 C460 1.398 1_545 S
C459 C465 1.491 1_546 S
C460 H451 0.950 . S
C460 C459 1.398 1_565 S
C460 C461 1.391 1_565 S
C461 H449 0.950 1_545 S
C461 C457 1.393 . S
C461 C460 1.391 1_545 S
C462 H452 0.950 . S
C462 C463 1.386 . S
C462 C464 1.391 . S
C463 C462 1.386 . S
C463 C467 1.393 . S
C464 H453 0.950 . S
C464 C462 1.391 . S
C464 C465 1.400 . S
C465 C459 1.491 1_564 S
C465 C464 1.400 . S
C465 C466 1.398 1_565 S
C466 H454 0.950 . S
C466 C465 1.398 1_545 S
C466 C467 1.391 1_545 S
C467 H455 0.950 1_565 S
C467 C463 1.393 . S
C467 C466 1.391 1_565 S
H468 C476 0.950 . S
H469 C481 0.950 . S
H470 C478 0.950 . S
H471 C480 0.950 . S
H472 C482 0.950 . S
H473 C484 0.950 . S
H474 C486 0.950 . S
H475 C487 0.950 . S
C476 H468 0.950 . S
C476 C477 1.386 . S
C476 C478 1.391 . S
C477 C476 1.386 . S
C477 C481 1.393 . S
C478 H470 0.950 . S
C478 C476 1.391 . S
C478 C479 1.400 . S
C479 C478 1.400 . S
C479 C480 1.398 . S
C479 C485 1.491 . S
C480 H471 0.950 . S
C480 C479 1.398 . S
C480 C481 1.391 . S
C481 H469 0.950 . S
C481 C477 1.393 . S
C481 C480 1.391 . S
C482 H472 0.950 . S
C482 C483 1.386 . S
C482 C484 1.391 . S
C483 C482 1.386 . S
C483 C487 1.393 . S
C484 H473 0.950 . S
C484 C482 1.391 . S
C484 C485 1.400 . S
C485 C479 1.491 . S
C485 C484 1.400 . S
C485 C486 1.398 . S
C486 H474 0.950 . S
C486 C485 1.398 . S
C486 C487 1.391 . S
C487 H475 0.950 . S
C487 C483 1.393 . S
C487 C486 1.391 . S
H488 C496 0.950 . S
H489 C501 0.950 . S
H490 C498 0.950 . S
H491 C500 0.950 . S
H492 C502 0.950 . S
H493 C504 0.950 . S
H494 C506 0.950 . S
H495 C507 0.950 . S
C496 H488 0.950 . S
C496 C497 1.386 . S
C496 C498 1.391 . S
C497 C496 1.386 . S
C497 C501 1.393 . S
C498 H490 0.950 . S
C498 C496 1.391 . S
C498 C499 1.400 . S
C499 C498 1.400 . S
C499 C500 1.398 . S
C499 C505 1.491 . S
C500 H491 0.950 . S
C500 C499 1.398 . S
C500 C501 1.391 . S
C501 H489 0.950 . S
C501 C497 1.393 . S
C501 C500 1.391 . S
C502 H492 0.950 . S
C502 C503 1.386 . S
C502 C504 1.391 . S
C503 C502 1.386 . S
C503 C507 1.393 . S
C504 H493 0.950 . S
C504 C502 1.391 . S
C504 C505 1.400 . S
C505 C499 1.491 . S
C505 C504 1.400 . S
C505 C506 1.398 . S
C506 H494 0.950 . S
C506 C505 1.398 . S
C506 C507 1.391 . S
C507 H495 0.950 . S
C507 C503 1.393 . S
C507 C506 1.391 . S
H508 C516 0.950 . S
H509 C521 0.950 . S
H510 C518 0.950 . S
H511 C520 0.950 . S
H512 C522 0.950 . S
H513 C524 0.950 . S
H514 C526 0.950 . S
H515 C527 0.950 . S
C516 H508 0.950 . S
C516 C517 1.386 . S
C516 C518 1.391 . S
C517 C516 1.386 . S
C517 C521 1.393 . S
C518 H510 0.950 . S
C518 C516 1.391 . S
C518 C519 1.400 . S
C519 C518 1.400 . S
C519 C520 1.398 . S
C519 C525 1.491 . S
C520 H511 0.950 . S
C520 C519 1.398 . S
C520 C521 1.391 . S
C521 H509 0.950 . S
C521 C517 1.393 . S
C521 C520 1.391 . S
C522 H512 0.950 . S
C522 C523 1.386 . S
C522 C524 1.391 . S
C523 C522 1.386 . S
C523 C527 1.393 . S
C524 H513 0.950 . S
C524 C522 1.391 . S
C524 C525 1.400 . S
C525 C519 1.491 . S
C525 C524 1.400 . S
C525 C526 1.398 . S
C526 H514 0.950 . S
C526 C525 1.398 . S
C526 C527 1.391 . S
C527 H515 0.950 . S
C527 C523 1.393 . S
C527 C526 1.391 . S
H528 C536 0.950 . S
H529 C541 0.950 . S
H530 C538 0.950 . S
H531 C540 0.950 . S
H532 C542 0.950 . S
H533 C544 0.950 . S
H534 C546 0.950 . S
H535 C547 0.950 . S
C536 H528 0.950 . S
C536 C537 1.386 . S
C536 C538 1.391 . S
C537 C536 1.386 . S
C537 C541 1.393 . S
C538 H530 0.950 . S
C538 C536 1.391 . S
C538 C539 1.400 . S
C539 C538 1.400 . S
C539 C540 1.398 . S
C539 C545 1.491 . S
C540 H531 0.950 . S
C540 C539 1.398 . S
C540 C541 1.391 . S
C541 H529 0.950 . S
C541 C537 1.393 . S
C541 C540 1.391 . S
C542 H532 0.950 . S
C542 C543 1.386 . S
C542 C544 1.391 1_545 S
C543 C542 1.386 . S
C543 C547 1.393 1_545 S
C544 H533 0.950 . S
C544 C542 1.391 1_565 S
C544 C545 1.400 . S
C545 C539 1.491 . S
C545 C544 1.400 . S
C545 C546 1.398 . S
C546 H534 0.950 . S
C546 C545 1.398 . S
C546 C547 1.391 . S
C547 H535 0.950 . S
C547 C543 1.393 1_565 S
C547 C546 1.391 . S
H548 C556 0.950 . S
H549 C561 0.950 . S
H550 C558 0.950 . S
H551 C560 0.950 . S
H552 C562 0.950 . S
H553 C564 0.950 . S
H554 C566 0.950 . S
H555 C567 0.950 . S
C556 H548 0.950 . S
C556 C557 1.386 . S
C556 C558 1.391 . S
C557 C556 1.386 . S
C557 C561 1.393 . S
C558 H550 0.950 . S
C558 C556 1.391 . S
C558 C559 1.400 . S
C559 C558 1.400 . S
C559 C560 1.398 . S
C559 C565 1.491 . S
C560 H551 0.950 . S
C560 C559 1.398 . S
C560 C561 1.391 . S
C561 H549 0.950 . S
C561 C557 1.393 . S
C561 C560 1.391 . S
C562 H552 0.950 . S
C562 C563 1.386 . S
C562 C564 1.391 . S
C563 C562 1.386 . S
C563 C567 1.393 . S
C564 H553 0.950 . S
C564 C562 1.391 . S
C564 C565 1.400 . S
C565 C559 1.491 . S
C565 C564 1.400 . S
C565 C566 1.398 . S
C566 H554 0.950 . S
C566 C565 1.398 . S
C566 C567 1.391 . S
C567 H555 0.950 . S
C567 C563 1.393 . S
C567 C566 1.391 . S
H568 C576 0.950 . S
H569 C581 0.950 . S
H570 C578 0.950 . S
H571 C580 0.950 . S
H572 C582 0.950 . S
H573 C584 0.950 . S
H574 C586 0.950 . S
H575 C587 0.950 . S
C576 H568 0.950 . S
C576 C577 1.386 . S
C576 C578 1.391 . S
C577 C576 1.386 . S
C577 C581 1.393 . S
C578 H570 0.950 . S
C578 C576 1.391 . S
C578 C579 1.400 . S
C579 C578 1.400 . S
C579 C580 1.398 . S
C579 C585 1.491 . S
C580 H571 0.950 . S
C580 C579 1.398 . S
C580 C581 1.391 . S
C581 H569 0.950 . S
C581 C577 1.393 . S
C581 C580 1.391 . S
C582 H572 0.950 . S
C582 C583 1.386 . S
C582 C584 1.391 . S
C583 C582 1.386 . S
C583 C587 1.393 . S
C584 H573 0.950 . S
C584 C582 1.391 . S
C584 C585 1.400 . S
C585 C579 1.491 . S
C585 C584 1.400 . S
C585 C586 1.398 . S
C586 H574 0.950 . S
C586 C585 1.398 . S
C586 C587 1.391 . S
C587 H575 0.950 . S
C587 C583 1.393 . S
C587 C586 1.391 . S
H588 C596 0.950 . S
H589 C601 0.950 . S
H590 C598 0.950 . S
H591 C600 0.950 . S
H592 C602 0.950 . S
H593 C604 0.950 . S
H594 C606 0.950 . S
H595 C607 0.950 . S
C596 H588 0.950 . S
C596 C597 1.386 . S
C596 C598 1.391 . S
C597 C596 1.386 . S
C597 C601 1.393 . S
C598 H590 0.950 . S
C598 C596 1.391 . S
C598 C599 1.400 . S
C599 C598 1.400 . S
C599 C600 1.398 . S
C599 C605 1.491 . S
C600 H591 0.950 . S
C600 C599 1.398 . S
C600 C601 1.391 . S
C601 H589 0.950 . S
C601 C597 1.393 . S
C601 C600 1.391 . S
C602 H592 0.950 . S
C602 C603 1.386 . S
C602 C604 1.391 1_545 S
C603 C602 1.386 . S
C603 C607 1.393 1_545 S
C604 H593 0.950 . S
C604 C602 1.391 1_565 S
C604 C605 1.400 . S
C605 C599 1.491 . S
C605 C604 1.400 . S
C605 C606 1.398 . S
C606 H594 0.950 . S
C606 C605 1.398 . S
C606 C607 1.391 . S
C607 H595 0.950 . S
C607 C603 1.393 1_565 S
C607 C606 1.391 . S
H608 C616 0.950 . S
H609 C621 0.950 . S
H610 C618 0.950 . S
H611 C620 0.950 . S
H612 C622 0.950 1_565 S
H613 C624 0.950 . S
H614 C626 0.950 . S
H615 C627 0.950 1_565 S
C616 H608 0.950 . S
C616 C617 1.386 . S
C616 C618 1.391 . S
C617 C616 1.386 . S
C617 C621 1.393 . S
C618 H610 0.950 . S
C618 C616 1.391 . S
C618 C619 1.400 . S
C619 C618 1.400 . S
C619 C620 1.398 . S
C619 C625 1.491 . S
C620 H611 0.950 . S
C620 C619 1.398 . S
C620 C621 1.391 . S
C621 H609 0.950 . S
C621 C617 1.393 . S
C621 C620 1.391 . S
C622 H612 0.950 1_545 S
C622 C623 1.386 1_545 S
C622 C624 1.391 . S
C623 C622 1.386 1_565 S
C623 C627 1.393 1_565 S
C624 H613 0.950 . S
C624 C622 1.391 . S
C624 C625 1.400 . S
C625 C619 1.491 . S
C625 C624 1.400 . S
C625 C626 1.398 . S
C626 H614 0.950 . S
C626 C625 1.398 . S
C626 C627 1.391 . S
C627 H615 0.950 1_545 S
C627 C623 1.393 1_545 S
C627 C626 1.391 . S
H628 C636 0.950 . S
H629 C641 0.950 . S
H630 C638 0.950 . S
H631 C640 0.950 . S
H632 C642 0.950 . S
H633 C644 0.950 . S
H634 C646 0.950 . S
H635 C647 0.950 . S
C636 H628 0.950 . S
C636 C637 1.386 . S
C636 C638 1.391 . S
C637 C636 1.386 . S
C637 C641 1.393 . S
C638 H630 0.950 . S
C638 C636 1.391 . S
C638 C639 1.400 . S
C639 C638 1.400 . S
C639 C640 1.398 . S
C639 C645 1.491 . S
C640 H631 0.950 . S
C640 C639 1.398 . S
C640 C641 1.391 . S
C641 H629 0.950 . S
C641 C637 1.393 . S
C641 C640 1.391 . S
C642 H632 0.950 . S
C642 C643 1.386 . S
C642 C644 1.391 . S
C643 C642 1.386 . S
C643 C647 1.393 . S
C644 H633 0.950 . S
C644 C642 1.391 . S
C644 C645 1.400 . S
C645 C639 1.491 . S
C645 C644 1.400 . S
C645 C646 1.398 . S
C646 H634 0.950 . S
C646 C645 1.398 . S
C646 C647 1.391 . S
C647 H635 0.950 . S
C647 C643 1.393 . S
C647 C646 1.391 . S
H648 C656 0.950 . S
H649 C661 0.950 . S
H650 C658 0.950 . S
H651 C660 0.950 . S
H652 C662 0.950 . S
H653 C664 0.950 . S
H654 C666 0.950 . S
H655 C667 0.950 . S
C656 H648 0.950 . S
C656 C657 1.386 . S
C656 C658 1.391 . S
C657 C656 1.386 . S
C657 C661 1.393 . S
C658 H650 0.950 . S
C658 C656 1.391 . S
C658 C659 1.400 . S
C659 C658 1.400 . S
C659 C660 1.398 . S
C659 C665 1.491 . S
C660 H651 0.950 . S
C660 C659 1.398 . S
C660 C661 1.391 . S
C661 H649 0.950 . S
C661 C657 1.393 . S
C661 C660 1.391 . S
C662 H652 0.950 . S
C662 C663 1.386 . S
C662 C664 1.391 . S
C663 C662 1.386 . S
C663 C667 1.393 . S
C664 H653 0.950 . S
C664 C662 1.391 . S
C664 C665 1.400 . S
C665 C659 1.491 . S
C665 C664 1.400 . S
C665 C666 1.398 . S
C666 H654 0.950 . S
C666 C665 1.398 . S
C666 C667 1.391 . S
C667 H655 0.950 . S
C667 C663 1.393 . S
C667 C666 1.391 . S
H668 C676 0.950 1_565 S
H669 C681 0.950 . S
H670 C678 0.950 . S
H671 C680 0.950 . S
H672 C682 0.950 . S
H673 C684 0.950 . S
H674 C686 0.950 . S
H675 C687 0.950 . S
C676 H668 0.950 1_545 S
C676 C677 1.386 1_545 S
C676 C678 1.391 . S
C677 C676 1.386 1_565 S
C677 C681 1.393 1_565 S
C678 H670 0.950 . S
C678 C676 1.391 . S
C678 C679 1.400 . S
C679 C678 1.400 . S
C679 C680 1.398 . S
C679 C685 1.491 . S
C680 H671 0.950 . S
C680 C679 1.398 . S
C680 C681 1.391 . S
C681 H669 0.950 . S
C681 C677 1.393 1_545 S
C681 C680 1.391 . S
C682 H672 0.950 . S
C682 C683 1.386 . S
C682 C684 1.391 . S
C683 C682 1.386 . S
C683 C687 1.393 . S
C684 H673 0.950 . S
C684 C682 1.391 . S
C684 C685 1.400 . S
C685 C679 1.491 . S
C685 C684 1.400 . S
C685 C686 1.398 . S
C686 H674 0.950 . S
C686 C685 1.398 . S
C686 C687 1.391 . S
C687 H675 0.950 . S
C687 C683 1.393 . S
C687 C686 1.391 . S
H688 C696 0.950 . S
H689 C701 0.950 . S
H690 C698 0.950 . S
H691 C700 0.950 . S
H692 C702 0.950 . S
H693 C704 0.950 . S
H694 C706 0.950 . S
H695 C707 0.950 . S
C696 H688 0.950 . S
C696 C697 1.386 . S
C696 C698 1.391 . S
C697 C696 1.386 . S
C697 C701 1.393 . S
C698 H690 0.950 . S
C698 C696 1.391 . S
C698 C699 1.400 . S
C699 C698 1.400 . S
C699 C700 1.398 . S
C699 C705 1.491 . S
C700 H691 0.950 . S
C700 C699 1.398 . S
C700 C701 1.391 . S
C701 H689 0.950 . S
C701 C697 1.393 . S
C701 C700 1.391 . S
C702 H692 0.950 . S
C702 C703 1.386 1_565 S
C702 C704 1.391 . S
C703 C702 1.386 1_545 S
C703 C707 1.393 . S
C704 H693 0.950 . S
C704 C702 1.391 . S
C704 C705 1.400 . S
C705 C699 1.491 . S
C705 C704 1.400 . S
C705 C706 1.398 . S
C706 H694 0.950 . S
C706 C705 1.398 . S
C706 C707 1.391 1_565 S
C707 H695 0.950 . S
C707 C703 1.393 . S
C707 C706 1.391 1_545 S
H708 C716 0.950 . S
H709 C721 0.950 . S
H710 C718 0.950 . S
H711 C720 0.950 . S
H712 C722 0.950 . S
H713 C724 0.950 . S
H714 C726 0.950 . S
H715 C727 0.950 . S
C716 H708 0.950 . S
C716 C717 1.386 . S
C716 C718 1.391 . S
C717 C716 1.386 . S
C717 C721 1.393 . S
C718 H710 0.950 . S
C718 C716 1.391 . S
C718 C719 1.400 . S
C719 C718 1.400 . S
C719 C720 1.398 . S
C719 C725 1.491 . S
C720 H711 0.950 . S
C720 C719 1.398 . S
C720 C721 1.391 . S
C721 H709 0.950 . S
C721 C717 1.393 . S
C721 C720 1.391 . S
C722 H712 0.950 . S
C722 C723 1.386 . S
C722 C724 1.391 . S
C723 C722 1.386 . S
C723 C727 1.393 . S
C724 H713 0.950 . S
C724 C722 1.391 . S
C724 C725 1.400 . S
C725 C719 1.491 . S
C725 C724 1.400 . S
C725 C726 1.398 . S
C726 H714 0.950 . S
C726 C725 1.398 . S
C726 C727 1.391 . S
C727 H715 0.950 . S
C727 C723 1.393 . S
C727 C726 1.391 . S
H728 C736 0.950 . S
H729 C741 0.950 . S
H730 C738 0.950 . S
H731 C740 0.950 . S
H732 C742 0.950 . S
H733 C744 0.950 . S
H734 C746 0.950 . S
H735 C747 0.950 . S
C736 H728 0.950 . S
C736 C737 1.386 . S
C736 C738 1.391 . S
C737 C736 1.386 . S
C737 C741 1.393 . S
C738 H730 0.950 . S
C738 C736 1.391 . S
C738 C739 1.400 . S
C739 C738 1.400 . S
C739 C740 1.398 . S
C739 C745 1.491 . S
C740 H731 0.950 . S
C740 C739 1.398 . S
C740 C741 1.391 . S
C741 H729 0.950 . S
C741 C737 1.393 . S
C741 C740 1.391 . S
C742 H732 0.950 . S
C742 C743 1.386 . S
C742 C744 1.391 . S
C743 C742 1.386 . S
C743 C747 1.393 . S
C744 H733 0.950 . S
C744 C742 1.391 . S
C744 C745 1.400 . S
C745 C739 1.491 . S
C745 C744 1.400 . S
C745 C746 1.398 . S
C746 H734 0.950 . S
C746 C745 1.398 . S
C746 C747 1.391 . S
C747 H735 0.950 . S
C747 C743 1.393 . S
C747 C746 1.391 . S
H748 C756 0.950 . S
H749 C761 0.950 . S
H750 C758 0.950 . S
H751 C760 0.950 . S
H752 C762 0.950 . S
H753 C764 0.950 . S
H754 C766 0.950 . S
H755 C767 0.953 . S
C756 H748 0.950 . S
C756 C757 1.386 . S
C756 C758 1.391 . S
C757 C756 1.386 . S
C757 C761 1.393 . S
C758 H750 0.950 . S
C758 C756 1.391 . S
C758 C759 1.400 . S
C759 C758 1.400 . S
C759 C760 1.398 . S
C759 C765 1.491 . S
C760 H751 0.950 . S
C760 C759 1.398 . S
C760 C761 1.391 . S
C761 H749 0.950 . S
C761 C757 1.393 . S
C761 C760 1.391 . S
C762 H752 0.950 . S
C762 C763 1.386 1_565 S
C762 C764 1.391 . S
C763 C762 1.386 1_545 S
C763 C767 1.394 . S
C764 H753 0.950 . S
C764 C762 1.391 . S
C764 C765 1.400 . S
C765 C759 1.491 . S
C765 C764 1.400 . S
C765 C766 1.398 . S
C766 H754 0.950 . S
C766 C765 1.398 . S
C766 C767 1.387 1_565 S
C767 H755 0.953 . S
C767 C763 1.394 . S
C767 C766 1.387 1_545 S
H768 C776 0.950 . S
H769 C781 0.950 . S
H770 C778 0.950 . S
H771 C780 0.950 . S
H772 C782 0.950 . S
H773 C784 0.950 . S
H774 C786 0.950 . S
H775 C787 0.950 . S
C776 H768 0.950 . S
C776 C777 1.386 . S
C776 C778 1.391 . S
C777 C776 1.386 . S
C777 C781 1.393 . S
C778 H770 0.950 . S
C778 C776 1.391 . S
C778 C779 1.400 . S
C779 C778 1.400 . S
C779 C780 1.398 . S
C779 C785 1.491 . S
C780 H771 0.950 . S
C780 C779 1.398 . S
C780 C781 1.391 . S
C781 H769 0.950 . S
C781 C777 1.393 . S
C781 C780 1.391 . S
C782 H772 0.950 . S
C782 C783 1.386 . S
C782 C784 1.391 1_565 S
C783 C782 1.386 . S
C783 C787 1.393 1_565 S
C784 H773 0.950 . S
C784 C782 1.391 1_545 S
C784 C785 1.400 . S
C785 C779 1.491 . S
C785 C784 1.400 . S
C785 C786 1.398 . S
C786 H774 0.950 . S
C786 C785 1.398 . S
C786 C787 1.391 . S
C787 H775 0.950 . S
C787 C783 1.393 1_545 S
C787 C786 1.391 . S
H788 C796 0.950 . S
H789 C801 0.950 . S
H790 C798 0.950 . S
H791 C800 0.950 . S
H792 C802 0.950 . S
H793 C804 0.950 . S
H794 C806 0.950 . S
H795 C807 0.950 . S
C796 H788 0.950 . S
C796 C797 1.386 . S
C796 C798 1.391 . S
C797 C796 1.386 . S
C797 C801 1.393 . S
C798 H790 0.950 . S
C798 C796 1.391 . S
C798 C799 1.400 . S
C799 C798 1.400 . S
C799 C800 1.398 . S
C799 C805 1.491 . S
C800 H791 0.950 . S
C800 C799 1.398 . S
C800 C801 1.391 . S
C801 H789 0.950 . S
C801 C797 1.393 . S
C801 C800 1.391 . S
C802 H792 0.950 . S
C802 C803 1.386 . S
C802 C804 1.391 . S
C803 C802 1.386 . S
C803 C807 1.393 . S
C804 H793 0.950 . S
C804 C802 1.391 . S
C804 C805 1.400 . S
C805 C799 1.491 . S
C805 C804 1.400 . S
C805 C806 1.398 . S
C806 H794 0.950 . S
C806 C805 1.398 . S
C806 C807 1.391 . S
C807 H795 0.950 . S
C807 C803 1.393 . S
C807 C806 1.391 . S
H808 C816 0.950 . S
H809 C821 0.950 . S
H810 C818 0.950 . S
H811 C820 0.950 . S
H812 C822 0.950 . S
H813 C824 0.950 . S
H814 C826 0.950 . S
H815 C827 0.950 . S
C816 H808 0.950 . S
C816 C817 1.386 . S
C816 C818 1.391 . S
C817 C816 1.386 . S
C817 C821 1.393 . S
C818 H810 0.950 . S
C818 C816 1.391 . S
C818 C819 1.400 . S
C819 C818 1.400 . S
C819 C820 1.398 . S
C819 C825 1.491 . S
C820 H811 0.950 . S
C820 C819 1.398 . S
C820 C821 1.391 . S
C821 H809 0.950 . S
C821 C817 1.393 . S
C821 C820 1.391 . S
C822 H812 0.950 . S
C822 C823 1.386 . S
C822 C824 1.391 . S
C823 C822 1.386 . S
C823 C827 1.393 . S
C824 H813 0.950 . S
C824 C822 1.391 . S
C824 C825 1.400 . S
C825 C819 1.491 . S
C825 C824 1.400 . S
C825 C826 1.398 . S
C826 H814 0.950 . S
C826 C825 1.398 . S
C826 C827 1.391 . S
C827 H815 0.950 . S
C827 C823 1.393 . S
C827 C826 1.391 . S
H828 C836 0.950 . S
H829 C841 0.950 . S
H830 C838 0.950 . S
H831 C840 0.950 . S
H832 C842 0.950 . S
H833 C844 0.950 . S
H834 C846 0.950 . S
H835 C847 0.950 . S
C836 H828 0.950 . S
C836 C837 1.386 . S
C836 C838 1.391 . S
C837 C836 1.386 . S
C837 C841 1.393 . S
C838 H830 0.950 . S
C838 C836 1.391 . S
C838 C839 1.400 . S
C839 C838 1.400 . S
C839 C840 1.398 . S
C839 C845 1.491 . S
C840 H831 0.950 . S
C840 C839 1.398 . S
C840 C841 1.391 . S
C841 H829 0.950 . S
C841 C837 1.393 . S
C841 C840 1.391 . S
C842 H832 0.950 . S
C842 C843 1.386 1_545 S
C842 C844 1.391 . S
C843 C842 1.386 1_565 S
C843 C847 1.393 . S
C844 H833 0.950 . S
C844 C842 1.391 . S
C844 C845 1.400 . S
C845 C839 1.491 . S
C845 C844 1.400 . S
C845 C846 1.398 . S
C846 H834 0.950 . S
C846 C845 1.398 . S
C846 C847 1.391 1_545 S
C847 H835 0.950 . S
C847 C843 1.393 . S
C847 C846 1.391 1_565 S
C217 C192 1.518 . S
C223 C10 1.518 . S
C237 C26 1.497 . S
C243 C0 1.497 . S
C257 C143 1.494 . S
C263 C13 1.494 . S
C277 C23 1.518 . S
C283 C101 1.518 . S
C297 C36 1.514 . S
C303 C166 1.514 . S
C317 C117 1.485 . S
C323 C39 1.485 . S
C337 C49 1.517 . S
C343 C75 1.517 . S
C357 C140 1.513 . S
C363 C62 1.513 . S
C377 C52 1.499 . S
C383 C78 1.499 . S
C397 C195 1.483 . S
C403 C65 1.483 . S
C417 C114 1.513 . S
C423 C88 1.513 . S
C437 C169 1.480 . S
C443 C91 1.480 . S
C457 C104 1.499 . S
C463 C130 1.499 . S
C477 C205 1.514 . S
C483 C127 1.514 . S
C497 C153 1.516 . S
C503 C179 1.516 . S
C517 C182 1.490 . S
C523 C156 1.490 . S
C537 C70 1.155 . S
C543 C8 1.135 . S
C557 C5 1.155 . S
C563 C73 1.162 . S
C577 C18 1.162 . S
C583 C60 1.154 . S
C597 C57 1.161 . S
C603 C21 1.156 . S
C617 C96 1.142 . S
C623 C34 1.134 . S
C637 C99 1.133 . S
C643 C31 1.143 . S
C657 C86 1.164 . S
C663 C44 1.146 . S
C677 C47 1.163 . S
C683 C83 1.152 . S
C697 C174 1.138 . S
C703 C112 1.135 . S
C717 C109 1.155 . S
C723 C177 1.135 . S
C737 C122 1.133 . S
C743 C164 1.157 . S
C757 C161 1.140 . S
C763 C125 1.134 . S
C777 C200 1.131 . S
C783 C138 1.144 . S
C797 C203 1.153 . S
C803 C135 1.162 . S
C817 C148 1.135 . S
C823 C190 1.137 . S
C837 C187 1.149 . S
C843 C151 1.133 . S
