# Generated by pormake.
# Topology wme, (6)-cn, num edge types: 1
# Building blocks:
#     Node 0, Type 0, BuildingBlock: BETDAH_clean_sbu_0, # of connection points: 6
#     Node 1, Type 0, BuildingBlock: BETDAH_clean_sbu_0, # of connection points: 6
#     Node 2, Type 0, BuildingBlock: BETDAH_clean_sbu_0, # of connection points: 6
#     Node 3, Type 0, BuildingBlock: BETDAH_clean_sbu_0, # of connection points: 6
#     Node 4, Type 0, BuildingBlock: BETDAH_clean_sbu_0, # of connection points: 6
#     Node 5, Type 0, BuildingBlock: BETDAH_clean_sbu_0, # of connection points: 6
#     Node 6, Type 0, BuildingBlock: BETDAH_clean_sbu_0, # of connection points: 6
#     Node 7, Type 0, BuildingBlock: BETDAH_clean_sbu_0, # of connection points: 6
#     Node 8, Type 0, BuildingBlock: BETDAH_clean_sbu_0, # of connection points: 6
#     Node 9, Type 0, BuildingBlock: BETDAH_clean_sbu_0, # of connection points: 6
#     Node 10, Type 0, BuildingBlock: BETDAH_clean_sbu_0, # of connection points: 6
#     Node 11, Type 0, BuildingBlock: BETDAH_clean_sbu_0, # of connection points: 6
#     Edge 12, Type (0, 0), BuildingBlock: XIVTED_clean_linker_0, # of connection points: 2
#     Edge 13, Type (0, 0), BuildingBlock: XIVTED_clean_linker_0, # of connection points: 2
#     Edge 14, Type (0, 0), BuildingBlock: XIVTED_clean_linker_0, # of connection points: 2
#     Edge 15, Type (0, 0), BuildingBlock: XIVTED_clean_linker_0, # of connection points: 2
#     Edge 16, Type (0, 0), BuildingBlock: XIVTED_clean_linker_0, # of connection points: 2
#     Edge 17, Type (0, 0), BuildingBlock: XIVTED_clean_linker_0, # of connection points: 2
#     Edge 18, Type (0, 0), BuildingBlock: XIVTED_clean_linker_0, # of connection points: 2
#     Edge 19, Type (0, 0), BuildingBlock: XIVTED_clean_linker_0, # of connection points: 2
#     Edge 20, Type (0, 0), BuildingBlock: XIVTED_clean_linker_0, # of connection points: 2
#     Edge 21, Type (0, 0), BuildingBlock: XIVTED_clean_linker_0, # of connection points: 2
#     Edge 22, Type (0, 0), BuildingBlock: XIVTED_clean_linker_0, # of connection points: 2
#     Edge 23, Type (0, 0), BuildingBlock: XIVTED_clean_linker_0, # of connection points: 2
#     Edge 24, Type (0, 0), BuildingBlock: XIVTED_clean_linker_0, # of connection points: 2
#     Edge 25, Type (0, 0), BuildingBlock: XIVTED_clean_linker_0, # of connection points: 2
#     Edge 26, Type (0, 0), BuildingBlock: XIVTED_clean_linker_0, # of connection points: 2
#     Edge 27, Type (0, 0), BuildingBlock: XIVTED_clean_linker_0, # of connection points: 2
#     Edge 28, Type (0, 0), BuildingBlock: XIVTED_clean_linker_0, # of connection points: 2
#     Edge 29, Type (0, 0), BuildingBlock: XIVTED_clean_linker_0, # of connection points: 2
#     Edge 30, Type (0, 0), BuildingBlock: XIVTED_clean_linker_0, # of connection points: 2
#     Edge 31, Type (0, 0), BuildingBlock: XIVTED_clean_linker_0, # of connection points: 2
#     Edge 32, Type (0, 0), BuildingBlock: XIVTED_clean_linker_0, # of connection points: 2
#     Edge 33, Type (0, 0), BuildingBlock: XIVTED_clean_linker_0, # of connection points: 2
#     Edge 34, Type (0, 0), BuildingBlock: XIVTED_clean_linker_0, # of connection points: 2
#     Edge 35, Type (0, 0), BuildingBlock: XIVTED_clean_linker_0, # of connection points: 2
#     Edge 36, Type (0, 0), BuildingBlock: XIVTED_clean_linker_0, # of connection points: 2
#     Edge 37, Type (0, 0), BuildingBlock: XIVTED_clean_linker_0, # of connection points: 2
#     Edge 38, Type (0, 0), BuildingBlock: XIVTED_clean_linker_0, # of connection points: 2
#     Edge 39, Type (0, 0), BuildingBlock: XIVTED_clean_linker_0, # of connection points: 2
#     Edge 40, Type (0, 0), BuildingBlock: XIVTED_clean_linker_0, # of connection points: 2
#     Edge 41, Type (0, 0), BuildingBlock: XIVTED_clean_linker_0, # of connection points: 2
#     Edge 42, Type (0, 0), BuildingBlock: XIVTED_clean_linker_0, # of connection points: 2
#     Edge 43, Type (0, 0), BuildingBlock: XIVTED_clean_linker_0, # of connection points: 2
#     Edge 44, Type (0, 0), BuildingBlock: XIVTED_clean_linker_0, # of connection points: 2
#     Edge 45, Type (0, 0), BuildingBlock: XIVTED_clean_linker_0, # of connection points: 2
#     Edge 46, Type (0, 0), BuildingBlock: XIVTED_clean_linker_0, # of connection points: 2
#     Edge 47, Type (0, 0), BuildingBlock: XIVTED_clean_linker_0, # of connection points: 2
# Relax obj value: 0.105
# Max RMSD: 0.209
# Mean RMSD: 0.209
data_MOF--net-wme--node1-BETDAH_clean_sbu_0--edge1-XIVTED_clean_linker_0
_symmetry_space_group_name_H-M    P1
_symmetry_Int_Tables_number       1
_symmetry_cell_setting            triclinic
loop_
_symmetry_equiv_pos_as_xyz
'x, y, z'
_cell_length_a     40.461541
_cell_length_b     40.474184
_cell_length_c     50.800562
_cell_angle_alpha  90.047466
_cell_angle_beta   89.951084
_cell_angle_gamma 120.00191
loop_
_atom_site_label
_atom_site_type_symbol
_atom_site_fract_x
_atom_site_fract_y
_atom_site_fract_z
_atom_type_partial_charge
Ho0 Ho 0.21573 0.36785 0.12781 0.0
Ho1 Ho 0.25788 0.3206 0.1393 0.0
C2 C 0.3055 0.41211 0.14303 0.0
C3 C 0.18613 0.41095 0.12188 0.0
C4 C 0.18614 0.44678 0.12678 0.0
C5 C 0.19426 0.46453 0.15157 0.0
C6 C 0.18921 0.49598 0.15591 0.0
C7 C 0.17554 0.50967 0.13562 0.0
C8 C 0.16863 0.49241 0.1107 0.0
C9 C 0.17393 0.46137 0.10636 0.0
C10 C 0.23611 0.33878 0.08681 0.0
C11 C 0.16442 0.27881 0.13493 0.0
C12 C 0.28403 0.27552 0.12947 0.0
C13 C 0.26894 0.2346 0.13445 0.0
C14 C 0.26861 0.21133 0.11385 0.0
C15 C 0.25024 0.17175 0.11695 0.0
C16 C 0.23199 0.15471 0.14078 0.0
C17 C 0.23294 0.17814 0.16156 0.0
C18 C 0.25101 0.21772 0.15837 0.0
C19 C 0.23351 0.33536 0.18498 0.0
O20 O 0.27275 0.41222 0.14347 0.0
O21 O 0.30761 0.38086 0.13825 0.0
O22 O 0.21193 0.41172 0.1059 0.0
O23 O 0.17729 0.38669 0.14135 0.0
O24 O 0.20359 0.33766 0.08797 0.0
O25 O 0.25492 0.35443 0.10709 0.0
O26 O 0.19529 0.27521 0.13321 0.0
O27 O 0.16603 0.31198 0.13721 0.0
O28 O 0.29497 0.29847 0.14993 0.0
O29 O 0.26397 0.28263 0.1126 0.0
O30 O 0.2521 0.31693 0.18348 0.0
O31 O 0.22893 0.34413 0.16201 0.0
H32 H 0.20354 0.45357 0.16766 0.0
H33 H 0.19475 0.50875 0.17532 0.0
H34 H 0.15879 0.50274 0.09455 0.0
H35 H 0.1674 0.44798 0.08712 0.0
H36 H 0.28181 0.22374 0.09512 0.0
H37 H 0.25038 0.15447 0.10071 0.0
H38 H 0.21888 0.16579 0.18007 0.0
H39 H 0.25014 0.23498 0.17437 0.0
Ho40 Ho 0.86606 0.20696 0.62684 0.0
Ho41 Ho 0.95417 0.24759 0.63985 0.0
C42 C 0.91181 0.2963 0.64271 0.0
C43 C 0.79387 0.18112 0.61945 0.0
C44 C 0.75873 0.18011 0.62899 0.0
C45 C 0.73058 0.14734 0.6419 0.0
C46 C 0.69454 0.14272 0.647 0.0
C47 C 0.68564 0.17066 0.63917 0.0
C48 C 0.71431 0.20418 0.6272 0.0
C49 C 0.75041 0.2088 0.62207 0.0
C50 C 0.91664 0.22509 0.58657 0.0
C51 C 0.90008 0.15448 0.64196 0.0
C52 C 0.02504 0.27075 0.63038 0.0
C53 C 0.05014 0.25485 0.63579 0.0
C54 C 0.07305 0.25383 0.61543 0.0
C55 C 0.09389 0.23514 0.61895 0.0
C56 C 0.09238 0.21722 0.64298 0.0
C57 C 0.06988 0.21882 0.66353 0.0
C58 C 0.04871 0.23721 0.65991 0.0
C59 C 0.9147 0.22717 0.68538 0.0
O60 O 0.8791 0.26346 0.64371 0.0
O61 O 0.94503 0.2982 0.63771 0.0
O62 O 0.82072 0.21252 0.60862 0.0
O63 O 0.80741 0.16343 0.63349 0.0
O64 O 0.88482 0.19299 0.58774 0.0
O65 O 0.91934 0.24452 0.60636 0.0
O66 O 0.93481 0.18393 0.63748 0.0
O67 O 0.86945 0.15797 0.64243 0.0
O68 O 1.01372 0.28305 0.65048 0.0
O69 O 0.99757 0.25073 0.61368 0.0
O70 O 0.95173 0.24494 0.684 0.0
O71 O 0.90109 0.22141 0.66236 0.0
H72 H 0.73589 0.12448 0.64719 0.0
H73 H 0.67338 0.11683 0.65663 0.0
H74 H 0.70837 0.22614 0.62065 0.0
H75 H 0.77121 0.23416 0.61175 0.0
H76 H 0.07418 0.26683 0.59656 0.0
H77 H 0.11132 0.23483 0.60286 0.0
H78 H 0.06793 0.20503 0.6822 0.0
H79 H 0.03063 0.23692 0.67576 0.0
Ho80 Ho 0.67452 0.85721 0.12908 0.0
Ho81 Ho 0.71908 0.94689 0.14069 0.0
C82 C 0.62705 0.90107 0.14132 0.0
C83 C 0.633 0.78407 0.12442 0.0
C84 C 0.59669 0.74842 0.12896 0.0
C85 C 0.57961 0.73778 0.15395 0.0
C86 C 0.54809 0.70122 0.15795 0.0
C87 C 0.53356 0.67473 0.13712 0.0
C88 C 0.55 0.68613 0.11202 0.0
C89 C 0.58117 0.72254 0.10802 0.0
C90 C 0.7041 0.90657 0.08812 0.0
C91 C 0.76402 0.89798 0.13727 0.0
C92 C 0.76262 0.01838 0.13058 0.0
C93 C 0.80389 0.04518 0.13289 0.0
C94 C 0.82263 0.07039 0.11209 0.0
C95 C 0.86225 0.09352 0.11222 0.0
C96 C 0.88415 0.09222 0.13332 0.0
C97 C 0.86524 0.06682 0.15421 0.0
C98 C 0.82544 0.04335 0.15394 0.0
C99 C 0.70289 0.90768 0.18643 0.0
O100 O 0.62763 0.86851 0.14152 0.0
O101 O 0.65838 0.93502 0.13837 0.0
O102 O 0.63355 0.808 0.10684 0.0
O103 O 0.65554 0.80085 0.14456 0.0
O104 O 0.70547 0.8753 0.08952 0.0
O105 O 0.68751 0.90941 0.10805 0.0
O106 O 0.76621 0.93186 0.13605 0.0
O107 O 0.73147 0.86547 0.13835 0.0
O108 O 0.74265 1.00601 0.15237 0.0
O109 O 0.75373 0.99137 0.11322 0.0
O110 O 0.72023 0.94468 0.185 0.0
O111 O 0.69573 0.8944 0.16335 0.0
H112 H 0.59121 0.7572 0.17047 0.0
H113 H 0.53601 0.69322 0.17751 0.0
H114 H 0.53904 0.66668 0.09547 0.0
H115 H 0.594 0.73009 0.08862 0.0
H116 H 0.80662 0.07153 0.09535 0.0
H117 H 0.87577 0.11196 0.09547 0.0
H118 H 0.88111 0.06522 0.17083 0.0
H119 H 0.81161 0.02347 0.16997 0.0
Ho120 Ho 0.83521 0.66555 0.63111 0.0
Ho121 Ho 0.78976 0.70966 0.6416 0.0
C122 C 0.74414 0.61809 0.64284 0.0
C123 C 0.86655 0.62358 0.62633 0.0
C124 C 0.86842 0.58962 0.63495 0.0
C125 C 0.90263 0.59494 0.64585 0.0
C126 C 0.90801 0.56388 0.6503 0.0
C127 C 0.87931 0.52666 0.64386 0.0
C128 C 0.8444 0.52115 0.63392 0.0
C129 C 0.83904 0.55233 0.62943 0.0
C130 C 0.81734 0.69626 0.58968 0.0
C131 C 0.88303 0.75334 0.64446 0.0
C132 C 0.76303 0.75427 0.63125 0.0
C133 C 0.7776 0.79509 0.63613 0.0
C134 C 0.75697 0.81227 0.62735 0.0
C135 C 0.77225 0.8517 0.62991 0.0
C136 C 0.80863 0.87467 0.64107 0.0
C137 C 0.8291 0.85723 0.64998 0.0
C138 C 0.81363 0.81776 0.64764 0.0
C139 C 0.81013 0.69232 0.68801 0.0
O140 O 0.77748 0.61925 0.64484 0.0
O141 O 0.74137 0.649 0.63817 0.0
O142 O 0.83736 0.61874 0.61219 0.0
O143 O 0.87876 0.65235 0.6427 0.0
O144 O 0.85014 0.69814 0.59196 0.0
O145 O 0.79707 0.67895 0.60904 0.0
O146 O 0.85245 0.75614 0.6388 0.0
O147 O 0.88183 0.72033 0.64636 0.0
O148 O 0.75253 0.73187 0.65194 0.0
O149 O 0.78353 0.74725 0.61468 0.0
O150 O 0.79086 0.70999 0.686 0.0
O151 O 0.81723 0.68531 0.66517 0.0
H152 H 0.9259 0.6234 0.65006 0.0
H153 H 0.93498 0.56913 0.65838 0.0
H154 H 0.82177 0.49292 0.62854 0.0
H155 H 0.81245 0.54729 0.62078 0.0
H156 H 0.72935 0.7953 0.61811 0.0
H157 H 0.75593 0.86434 0.62263 0.0
H158 H 0.85696 0.87406 0.65892 0.0
H159 H 0.83004 0.80501 0.65449 0.0
Ho160 Ho 0.18215 0.82814 0.1306 0.0
Ho161 Ho 0.09925 0.78586 0.14847 0.0
C162 C 0.14141 0.73807 0.14369 0.0
C163 C 0.25445 0.85922 0.12008 0.0
C164 C 0.28992 0.85775 0.12359 0.0
C165 C 0.29828 0.84501 0.14703 0.0
C166 C 0.33433 0.84857 0.15069 0.0
C167 C 0.36267 0.86521 0.13108 0.0
C168 C 0.35355 0.87675 0.10738 0.0
C169 C 0.31762 0.87303 0.10371 0.0
C170 C 0.12761 0.80831 0.09291 0.0
C171 C 0.14582 0.87871 0.14322 0.0
C172 C 0.02718 0.76258 0.15179 0.0
C173 C 1.0043 0.7817 0.14835 0.0
C174 C 1.00234 0.79701 0.12392 0.0
C175 C 0.98098 0.81536 0.12118 0.0
C176 C 0.96129 0.81908 0.14279 0.0
C177 C 0.96363 0.80412 0.16725 0.0
C178 C 0.98474 0.7855 0.16995 0.0
C179 C 0.14917 0.8013 0.18791 0.0
O180 O 0.17355 0.77136 0.14386 0.0
O181 O 0.10753 0.73558 0.14176 0.0
O182 O 0.22775 0.83364 0.10498 0.0
O183 O 0.2408 0.86777 0.14066 0.0
O184 O 0.1587 0.84118 0.09341 0.0
O185 O 0.12772 0.78864 0.11179 0.0
O186 O 0.11228 0.84699 0.1414 0.0
O187 O 0.178 0.87819 0.14298 0.0
O188 O 0.04984 0.77327 0.17224 0.0
O189 O 0.04316 0.75805 0.13071 0.0
O190 O 0.1157 0.77084 0.18661 0.0
O191 O 0.15361 0.82334 0.16884 0.0
H192 H 0.27738 0.83328 0.16271 0.0
H193 H 0.34043 0.83949 0.16921 0.0
H194 H 0.37434 0.88897 0.09166 0.0
H195 H 0.3118 0.88312 0.0855 0.0
H196 H 1.01729 0.79491 0.10688 0.0
H197 H 0.98004 0.82684 0.10211 0.0
H198 H 0.9484 0.80602 0.18419 0.0
H199 H 0.98574 0.77398 0.18899 0.0
Ho200 Ho 0.37003 0.17319 0.63156 0.0
Ho201 Ho 0.32763 0.0828 0.64207 0.0
C202 C 0.41925 0.13022 0.64129 0.0
C203 C 0.41134 0.24652 0.62675 0.0
C204 C 0.44863 0.28169 0.63011 0.0
C205 C 0.46934 0.29085 0.65378 0.0
C206 C 0.50222 0.32675 0.657 0.0
C207 C 0.51465 0.35413 0.63671 0.0
C208 C 0.4944 0.3442 0.61283 0.0
C209 C 0.46185 0.30845 0.6096 0.0
C210 C 0.33896 0.12409 0.59057 0.0
C211 C 0.28223 0.13108 0.64558 0.0
C212 C 0.28241 1.01173 0.63146 0.0
C213 C 0.24127 0.98561 0.63609 0.0
C214 C 0.21812 0.96397 0.61502 0.0
C215 C 0.17847 0.94228 0.61795 0.0
C216 C 0.16112 0.94163 0.6421 0.0
C217 C 0.18444 0.96287 0.66333 0.0
C218 C 0.2241 0.98486 0.66031 0.0
C219 C 0.34548 0.12147 0.68806 0.0
O220 O 0.41776 0.16231 0.64226 0.0
O221 O 0.38849 0.09589 0.6381 0.0
O222 O 0.40831 0.22258 0.60828 0.0
O223 O 0.39106 0.22964 0.64776 0.0
O224 O 0.33601 0.15443 0.59309 0.0
O225 O 0.35715 0.12172 0.60964 0.0
O226 O 0.28027 0.09787 0.64051 0.0
O227 O 0.31466 0.16376 0.64652 0.0
O228 O 0.30523 0.02322 0.65199 0.0
O229 O 0.28986 0.03933 0.61491 0.0
O230 O 0.32884 0.08448 0.68656 0.0
O231 O 0.35105 0.13467 0.66504 0.0
H232 H 0.45963 0.27075 0.66997 0.0
H233 H 0.51713 0.33353 0.67566 0.0
H234 H 0.50354 0.36427 0.59664 0.0
H235 H 0.44628 0.30208 0.5912 0.0
H236 H 0.23069 0.9645 0.59606 0.0
H237 H 0.1614 0.9259 0.60132 0.0
H238 H 0.17193 0.96324 0.68211 0.0
H239 H 0.24118 1.00189 0.67674 0.0
Ho240 Ho 0.67359 0.82339 0.42297 0.0
Ho241 Ho 0.72154 0.78498 0.40716 0.0
C242 C 0.63057 0.73472 0.40593 0.0
C243 C 0.62682 0.84798 0.43315 0.0
C244 C 0.59441 0.85194 0.42346 0.0
C245 C 0.60126 0.88702 0.41308 0.0
C246 C 0.57104 0.89354 0.40796 0.0
C247 C 0.53319 0.86522 0.41325 0.0
C248 C 0.52623 0.82963 0.42274 0.0
C249 C 0.55648 0.82311 0.42788 0.0
C250 C 0.70813 0.80503 0.46176 0.0
C251 C 0.75845 0.87751 0.40558 0.0
C252 C 0.77037 0.7624 0.41379 0.0
C253 C 0.81117 0.7794 0.4075 0.0
C254 C 0.83312 0.81836 0.4013 0.0
C255 C 0.8726 0.83546 0.39801 0.0
C256 C 0.89079 0.81379 0.40053 0.0
C257 C 0.86853 0.77452 0.406 0.0
C258 C 0.82905 0.75752 0.40958 0.0
C259 C 0.7004 0.80558 0.36263 0.0
O260 O 0.62994 0.76719 0.40575 0.0
O261 O 0.66246 0.73354 0.40992 0.0
O262 O 0.6205 0.81411 0.44002 0.0
O263 O 0.65997 0.86858 0.42172 0.0
O264 O 0.70768 0.83675 0.46146 0.0
O265 O 0.69086 0.78598 0.44199 0.0
O266 O 0.76472 0.84879 0.41024 0.0
O267 O 0.72384 0.87277 0.40534 0.0
O268 O 0.74661 0.75136 0.39386 0.0
O269 O 0.76276 0.78098 0.43164 0.0
O270 O 0.72022 0.78839 0.36319 0.0
O271 O 0.69277 0.81068 0.38594 0.0
H272 H 0.63015 0.91004 0.40977 0.0
H273 H 0.57743 0.92108 0.4003 0.0
H274 H 0.49748 0.80729 0.42734 0.0
H275 H 0.55018 0.79598 0.43628 0.0
H276 H 0.81988 0.83576 0.39952 0.0
H277 H 0.88891 0.86563 0.39351 0.0
H278 H 0.88181 0.75715 0.40827 0.0
H279 H 0.81263 0.7275 0.41453 0.0
Ho280 Ho 0.86375 0.66487 0.92153 0.0
Ho281 Ho 0.95249 0.70988 0.90926 0.0
C282 C 0.9082 0.61848 0.90927 0.0
C283 C 0.79127 0.62188 0.92944 0.0
C284 C 0.75528 0.58632 0.92409 0.0
C285 C 0.74482 0.57063 0.89872 0.0
C286 C 0.70813 0.53961 0.89413 0.0
C287 C 0.68135 0.52422 0.91476 0.0
C288 C 0.69256 0.53937 0.9402 0.0
C289 C 0.7291 0.57002 0.94479 0.0
C290 C 0.91373 0.6993 0.96174 0.0
C291 C 0.90062 0.75116 0.905 0.0
C292 C 1.02389 0.75639 0.91835 0.0
C293 C 0.04927 0.79715 0.91267 0.0
C294 C 0.08804 0.8148 0.91918 0.0
C295 C 0.11153 0.85425 0.91606 0.0
C296 C 0.09647 0.87673 0.90665 0.0
C297 C 0.05764 0.8588 0.89986 0.0
C298 C 0.03432 0.81933 0.90269 0.0
C299 C 0.91334 0.68974 0.86351 0.0
O300 O 0.87564 0.61893 0.90804 0.0
O301 O 0.94181 0.64981 0.91329 0.0
O302 O 0.81715 0.62001 0.9438 0.0
O303 O 0.80575 0.64747 0.9107 0.0
O304 O 0.88255 0.70062 0.95925 0.0
O305 O 0.91645 0.68079 0.94301 0.0
O306 O 0.93475 0.75541 0.91022 0.0
O307 O 0.86924 0.71761 0.90482 0.0
O308 O 1.01183 0.73312 0.89811 0.0
O309 O 0.9967 0.74939 0.93521 0.0
O310 O 0.95036 0.70805 0.86497 0.0
O311 O 0.89978 0.68328 0.88653 0.0
H312 H 0.76454 0.58292 0.88241 0.0
H313 H 0.70029 0.52854 0.8743 0.0
H314 H 0.67289 0.52771 0.9566 0.0
H315 H 0.73657 0.58179 0.96448 0.0
H316 H 0.09999 0.79821 0.92714 0.0
H317 H 0.14127 0.8673 0.92166 0.0
H318 H 0.04534 0.87526 0.89226 0.0
H319 H 1.00446 0.80624 0.89751 0.0
Ho320 Ho 0.21397 0.85878 0.42084 0.0
Ho321 Ho 0.26027 0.9488 0.41137 0.0
C322 C 0.30585 0.90288 0.41095 0.0
C323 C 0.183 0.78562 0.42613 0.0
C324 C 0.18423 0.75008 0.42226 0.0
C325 C 0.19276 0.73973 0.39784 0.0
C326 C 0.18861 0.7034 0.39438 0.0
C327 C 0.17545 0.67678 0.41517 0.0
C328 C 0.16818 0.68789 0.43972 0.0
C329 C 0.17255 0.72407 0.44319 0.0
C330 C 0.22978 0.9067 0.46234 0.0
C331 C 0.16704 0.89894 0.40532 0.0
C332 C 0.28469 0.01929 0.42309 0.0
C333 C 0.26968 0.04531 0.41821 0.0
C334 C 0.26878 0.06771 0.43898 0.0
C335 C 0.25058 0.08913 0.43593 0.0
C336 C 0.23298 0.0887 0.41196 0.0
C337 C 0.2345 0.06674 0.391 0.0
C338 C 0.25242 0.04502 0.39414 0.0
C339 C 0.24198 0.91227 0.36465 0.0
O340 O 0.27254 0.87064 0.40934 0.0
O341 O 0.30882 0.93678 0.41512 0.0
O342 O 0.2058 0.81005 0.44371 0.0
O343 O 0.17747 0.80191 0.40563 0.0
O344 O 0.19668 0.87643 0.45901 0.0
O345 O 0.25114 0.9098 0.4436 0.0
O346 O 0.19738 0.93249 0.41115 0.0
O347 O 0.16789 0.86684 0.40478 0.0
O348 O 0.29753 1.00885 0.40282 0.0
O349 O 0.26352 0.99092 0.43884 0.0
O350 O 0.2613 0.94919 0.3671 0.0
O351 O 0.23375 0.89754 0.3873 0.0
H352 H 0.20163 0.75923 0.38132 0.0
H353 H 0.19439 0.69567 0.37521 0.0
H354 H 0.15869 0.66839 0.45626 0.0
H355 H 0.16565 0.73137 0.46216 0.0
H356 H 0.28143 0.06792 0.45783 0.0
H357 H 0.25033 0.10609 0.45235 0.0
H358 H 0.22093 0.06554 0.37237 0.0
H359 H 0.25198 0.02733 0.37798 0.0
Ho360 Ho 0.37425 0.2062 0.92089 0.0
Ho361 Ho 0.32743 0.24825 0.90797 0.0
C362 C 0.41878 0.29632 0.90631 0.0
C363 C 0.4186 0.17835 0.92888 0.0
C364 C 0.45464 0.17876 0.92374 0.0
C365 C 0.46985 0.18273 0.8983 0.0
C366 C 0.50123 0.17752 0.89402 0.0
C367 C 0.51743 0.16781 0.91504 0.0
C368 C 0.50285 0.16527 0.94053 0.0
C369 C 0.47186 0.17074 0.9448 0.0
C370 C 0.34203 0.2248 0.96086 0.0
C371 C 0.28709 0.15488 0.90614 0.0
C372 C 0.28035 0.27208 0.91772 0.0
C373 C 0.23922 0.25636 0.91278 0.0
C374 C 0.2155 0.25391 0.93375 0.0
C375 C 0.17593 0.23564 0.93047 0.0
C376 C 0.15924 0.21961 0.90605 0.0
C377 C 0.1831 0.22259 0.88492 0.0
C378 C 0.22271 0.24055 0.8883 0.0
C379 C 0.34657 0.2272 0.86274 0.0
O380 O 0.41892 0.26356 0.90571 0.0
O381 O 0.38732 0.29828 0.91056 0.0
O382 O 0.41971 0.20579 0.94322 0.0
O383 O 0.39301 0.16662 0.9101 0.0
O384 O 0.3408 0.19222 0.95964 0.0
O385 O 0.35909 0.24424 0.94116 0.0
O386 O 0.28243 0.18484 0.91004 0.0
O387 O 0.32078 0.15732 0.9064 0.0
O388 O 0.30351 0.28383 0.89734 0.0
O389 O 0.28808 0.25237 0.93451 0.0
O390 O 0.32786 0.24558 0.86371 0.0
O391 O 0.35374 0.22147 0.8859 0.0
H392 H 0.45688 0.18873 0.88172 0.0
H393 H 0.51188 0.17964 0.87416 0.0
H394 H 0.51514 0.15855 0.95719 0.0
H395 H 0.46049 0.16743 0.96456 0.0
H396 H 0.22759 0.26553 0.95288 0.0
H397 H 0.1584 0.23427 0.94702 0.0
H398 H 0.17106 0.21026 0.86594 0.0
H399 H 0.24027 0.2414 0.87191 0.0
Ho400 Ho 0.18488 0.3652 0.41829 0.0
Ho401 Ho 0.09515 0.32178 0.40724 0.0
C402 C 0.14165 0.41343 0.4072 0.0
C403 C 0.25802 0.40668 0.42408 0.0
C404 C 0.29374 0.44299 0.41952 0.0
C405 C 0.30381 0.4607 0.39473 0.0
C406 C 0.34022 0.49245 0.39065 0.0
C407 C 0.3672 0.50668 0.41121 0.0
C408 C 0.3564 0.48946 0.43613 0.0
C409 C 0.32012 0.45804 0.44021 0.0
C410 C 0.13537 0.33402 0.45915 0.0
C411 C 0.14443 0.27746 0.40492 0.0
C412 C 1.02356 0.27701 0.41683 0.0
C413 C 0.99747 0.23628 0.41145 0.0
C414 C 0.95929 0.21891 0.41948 0.0
C415 C 0.93529 0.1795 0.41656 0.0
C416 C 0.94922 0.15673 0.40579 0.0
C417 C 0.98747 0.1744 0.39752 0.0
C418 C 1.01131 0.21384 0.4002 0.0
C419 C 0.13385 0.33938 0.36123 0.0
O420 O 0.1739 0.41229 0.40593 0.0
O421 O 0.10765 0.38249 0.41103 0.0
O422 O 0.23348 0.40642 0.44102 0.0
O423 O 0.24183 0.3838 0.40401 0.0
O424 O 0.16585 0.3313 0.45684 0.0
O425 O 0.13302 0.35196 0.43995 0.0
O426 O 0.11102 0.27501 0.41003 0.0
O427 O 0.17665 0.31021 0.40354 0.0
O428 O 0.03594 0.29987 0.39639 0.0
O429 O 0.05069 0.28372 0.43365 0.0
O430 O 0.09687 0.32213 0.36283 0.0
O431 O 0.14731 0.34582 0.38422 0.0
H432 H 0.284 0.44947 0.3784 0.0
H433 H 0.3477 0.50505 0.37121 0.0
H434 H 0.37617 0.50012 0.45251 0.0
H435 H 0.31302 0.44474 0.45946 0.0
H436 H 0.94822 0.2357 0.42847 0.0
H437 H 0.90605 0.1667 0.42334 0.0
H438 H 0.99893 0.15775 0.38888 0.0
H439 H 0.04073 0.22673 0.39387 0.0
Ho440 Ho 0.83434 0.17293 0.91818 0.0
Ho441 Ho 0.78901 0.08372 0.90607 0.0
C442 C 0.74336 0.12949 0.90575 0.0
C443 C 0.86504 0.24573 0.92532 0.0
C444 C 0.86461 0.28164 0.92145 0.0
C445 C 0.8577 0.29285 0.89684 0.0
C446 C 0.86251 0.32944 0.89353 0.0
C447 C 0.87471 0.35546 0.91468 0.0
C448 C 0.88038 0.34352 0.93939 0.0
C449 C 0.87535 0.30706 0.9427 0.0
C450 C 0.81521 0.12256 0.95857 0.0
C451 C 0.88257 0.1337 0.90431 0.0
C452 C 0.76283 1.0121 0.91489 0.0
C453 C 0.77816 0.98666 0.90918 0.0
C454 C 0.8157 1.00175 0.89989 0.0
C455 C 0.83168 0.97832 0.89687 0.0
C456 C 0.8102 0.93922 0.90271 0.0
C457 C 0.77226 0.92401 0.91138 0.0
C458 C 0.75646 0.94762 0.91474 0.0
C459 C 0.81022 0.12312 0.8604 0.0
O460 O 0.77665 0.16184 0.90485 0.0
O461 O 0.7404 0.09558 0.90965 0.0
O462 O 0.84016 0.2204 0.94156 0.0
O463 O 0.8727 0.23054 0.90509 0.0
O464 O 0.84841 0.15313 0.95671 0.0
O465 O 0.79538 0.12053 0.93917 0.0
O466 O 0.85172 0.10009 0.909 0.0
O467 O 0.8818 0.16581 0.90352 0.0
O468 O 0.75231 0.02467 0.89458 0.0
O469 O 0.78271 0.03892 0.93206 0.0
O470 O 0.79074 0.08613 0.86175 0.0
O471 O 0.81704 0.13637 0.88349 0.0
H472 H 0.84958 0.27378 0.88009 0.0
H473 H 0.85796 0.33783 0.87423 0.0
H474 H 0.88906 0.36254 0.95619 0.0
H475 H 0.88098 0.29908 0.96183 0.0
H476 H 0.83289 0.03177 0.89535 0.0
H477 H 0.86077 0.99074 0.88986 0.0
H478 H 0.7551 0.89401 0.9162 0.0
H479 H 0.72756 0.93552 0.9221 0.0
H480 H 0.10703 0.9085 0.11704 0.0
H481 H 0.23581 0.11445 0.18268 0.0
H482 H 0.1921 0.93403 0.1768 0.0
H483 H 0.18371 0.09931 0.10624 0.0
H484 H 0.20686 0.04526 0.18653 0.0
H485 H 0.122 0.97557 0.11868 0.0
C486 C 0.12816 0.92802 0.13087 0.0
C487 C 0.14863 0.91611 0.14667 0.0
C488 C 0.20151 0.05706 0.16899 0.0
C489 C 0.1657 0.99199 0.14871 0.0
C490 C 0.21789 0.09652 0.16684 0.0
C491 C 0.21249 0.11265 0.14399 0.0
C492 C 0.17932 0.03344 0.14823 0.0
C493 C 0.18914 0.08802 0.12399 0.0
C494 C 0.13689 0.96619 0.13167 0.0
C495 C 0.17597 0.94235 0.16413 0.0
N496 N 0.17351 0.0496 0.12651 0.0
N497 N 0.18379 0.97904 0.16463 0.0
H498 H 0.21401 0.093 0.61901 0.0
H499 H 0.13597 0.22084 0.68527 0.0
H500 H 0.27184 0.17519 0.68075 0.0
H501 H 0.09935 0.16836 0.60888 0.0
H502 H 0.17606 0.1917 0.68947 0.0
H503 H 0.16181 0.1077 0.62089 0.0
C504 C 0.2152 0.11338 0.63337 0.0
C505 C 0.24723 0.13316 0.64962 0.0
C506 C 0.15901 0.1863 0.67187 0.0
C507 C 0.18823 0.15012 0.65183 0.0
C508 C 0.136 0.20279 0.66952 0.0
C509 C 0.11462 0.19738 0.64657 0.0
C510 C 0.1605 0.16396 0.65122 0.0
C511 C 0.11594 0.17384 0.62671 0.0
C512 C 0.18569 0.122 0.63429 0.0
C513 C 0.24772 0.15959 0.66772 0.0
N514 N 0.13864 0.15813 0.62943 0.0
N515 N 0.21882 0.16743 0.66825 0.0
H516 H 0.9245 0.16608 0.11658 0.0
H517 H 0.13222 0.20605 0.1566 0.0
H518 H 0.94035 0.07717 0.15048 0.0
H519 H 0.10835 0.27714 0.10607 0.0
H520 H 0.06349 0.15736 0.15572 0.0
H521 H 0.99303 0.20721 0.11471 0.0
C522 C 0.94239 0.15499 0.12345 0.0
C523 C 0.92639 0.11779 0.13337 0.0
C524 C 0.0736 0.18349 0.14461 0.0
C525 C 1.00584 0.16551 0.13173 0.0
C526 C 0.1127 0.21103 0.14498 0.0
C527 C 0.12569 0.24575 0.13169 0.0
C528 C 0.04791 0.19114 0.13086 0.0
C529 C 0.0994 0.25103 0.11699 0.0
C530 C 0.98175 0.17865 0.12247 0.0
C531 C 0.95137 0.10569 0.14278 0.0
N532 N 0.06195 0.2243 0.11716 0.0
N533 N 0.98994 0.12952 0.14175 0.0
H534 H 0.77266 0.91255 0.65804 0.0
H535 H 0.94289 0.12237 0.62463 0.0
H536 H 0.88159 0.93221 0.62977 0.0
H537 H 0.84147 0.0972 0.66839 0.0
H538 H 0.92337 0.05404 0.62638 0.0
H539 H 0.79867 0.9812 0.66102 0.0
C540 C 0.80209 0.93139 0.6524 0.0
C541 C 0.82489 0.9166 0.64354 0.0
C542 C 0.90574 0.06373 0.63582 0.0
C543 C 0.85522 0.9957 0.64701 0.0
C544 C 0.91698 0.10269 0.63495 0.0
C545 C 0.8935 0.1154 0.64603 0.0
C546 C 0.87087 0.03768 0.64781 0.0
C547 C 0.86015 0.08867 0.65911 0.0
C548 C 0.8171 0.97067 0.65428 0.0
C549 C 0.86309 0.94245 0.63686 0.0
N550 N 0.84975 0.05125 0.6594 0.0
N551 N 0.87702 0.9808 0.63853 0.0
H552 H 0.91238 0.80887 0.10245 0.0
H553 H 0.83339 0.93951 0.16284 0.0
H554 H 0.95445 0.86951 0.17578 0.0
H555 H 0.77276 0.84809 0.10731 0.0
H556 H 0.88619 0.92532 0.16256 0.0
H557 H 0.86947 0.8346 0.09857 0.0
C558 C 0.91297 0.82802 0.11759 0.0
C559 C 0.93695 0.83683 0.13955 0.0
C560 C 0.86142 0.90874 0.15027 0.0
C561 C 0.88745 0.86629 0.13532 0.0
C562 C 0.83155 0.917 0.15029 0.0
C563 C 0.79869 0.8947 0.13524 0.0
C564 C 0.85842 0.87856 0.13467 0.0
C565 C 0.79747 0.86569 0.11942 0.0
C566 C 0.88826 0.84253 0.11545 0.0
C567 C 0.93604 0.86152 0.15871 0.0
N568 N 0.82676 0.85847 0.11957 0.0
N569 N 0.9116 0.87532 0.15621 0.0
H570 H 0.91476 0.82146 0.61744 0.0
H571 H 0.12035 0.89557 0.68331 0.0
H572 H 0.93769 0.76249 0.67907 0.0
H573 H 0.10563 0.9353 0.60783 0.0
H574 H 0.05109 0.85539 0.68698 0.0
H575 H 0.9823 0.87234 0.61885 0.0
C576 C 0.93379 0.81971 0.63165 0.0
C577 C 0.92085 0.78773 0.64804 0.0
C578 C 0.06298 0.87307 0.66967 0.0
C579 C 0.99761 0.84528 0.64971 0.0
C580 C 0.10253 0.89616 0.66762 0.0
C581 C 0.11889 0.9186 0.64513 0.0
C582 C 0.03939 0.87251 0.64917 0.0
C583 C 0.09428 0.91795 0.62533 0.0
C584 C 0.9723 0.84848 0.63229 0.0
C585 C 0.94665 0.78656 0.66593 0.0
N586 N 0.05578 0.89519 0.62776 0.0
N587 N 0.98373 0.81475 0.66621 0.0
H588 H 0.11575 0.85199 0.36967 0.0
H589 H 0.94587 0.8814 0.42206 0.0
H590 H 0.13345 0.93732 0.42752 0.0
H591 H 0.93152 0.7879 0.3732 0.0
H592 H 1.01536 0.90905 0.41941 0.0
H593 H 0.04968 0.83625 0.36508 0.0
C594 C 0.10573 0.8678 0.38119 0.0
C595 C 0.12988 0.89565 0.39925 0.0
C596 C 0.99697 0.88266 0.40913 0.0
C597 C 0.05374 0.87722 0.39448 0.0
C598 C 0.95736 0.86693 0.41054 0.0
C599 C 0.93289 0.83212 0.39798 0.0
C600 C 1.01215 0.86358 0.39487 0.0
C601 C 0.94927 0.81444 0.38352 0.0
C602 C 0.06791 0.85869 0.37864 0.0
C603 C 0.11563 0.91562 0.41341 0.0
N604 N 0.98777 0.8303 0.38243 0.0
N605 N 0.07816 0.90559 0.41103 0.0
H606 H 0.08112 0.93311 0.9215 0.0
H607 H 0.28665 0.09999 0.8758 0.0
H608 H 0.16819 0.916 0.88579 0.0
H609 H 0.21328 0.12184 0.92561 0.0
H610 H 0.23766 0.03325 0.87326 0.0
H611 H 0.12384 1.00246 0.91809 0.0
C612 C 0.10908 0.94394 0.91275 0.0
C613 C 0.12124 0.91874 0.90403 0.0
C614 C 0.23195 0.05249 0.88465 0.0
C615 C 0.16998 0.9978 0.90002 0.0
C616 C 0.25992 0.09072 0.88605 0.0
C617 C 0.25422 0.11639 0.90127 0.0
C618 C 0.1978 0.03939 0.8987 0.0
C619 C 0.21879 0.1029 0.91372 0.0
C620 C 0.13344 0.98346 0.91092 0.0
C621 C 0.15781 0.9343 0.89307 0.0
N622 N 0.19196 0.06506 0.91245 0.0
N623 N 0.18079 0.9727 0.89139 0.0
H624 H 0.18703 0.26652 0.36882 0.0
H625 H 0.18472 0.09565 0.44674 0.0
H626 H 0.1104 0.21099 0.43375 0.0
H627 H 0.23631 0.1331 0.37019 0.0
H628 H 0.15573 0.13598 0.44224 0.0
H629 H 0.20292 0.21582 0.36813 0.0
C630 C 0.17301 0.24313 0.38265 0.0
C631 C 0.14742 0.24286 0.40139 0.0
C632 C 0.17306 0.13505 0.42632 0.0
C633 C 0.16629 0.18512 0.40125 0.0
C634 C 0.18989 0.1123 0.42896 0.0
C635 C 0.2133 0.11125 0.4089 0.0
C636 C 0.18004 0.15732 0.4036 0.0
C637 C 0.21842 0.13289 0.38611 0.0
C638 C 0.18215 0.21421 0.3823 0.0
C639 C 0.13008 0.21201 0.41888 0.0
N640 N 0.2023 0.1553 0.38422 0.0
N641 N 0.14035 0.18462 0.41871 0.0
H642 H 0.11941 0.22678 0.86507 0.0
H643 H 0.91279 0.09423 0.92911 0.0
H644 H 0.10321 0.16873 0.93924 0.0
H645 H 0.93812 0.1813 0.87098 0.0
H646 H 0.97988 0.10946 0.92709 0.0
H647 H 0.05025 0.19846 0.86118 0.0
C648 C 0.10127 0.2077 0.88039 0.0
C649 C 0.11714 0.20043 0.90264 0.0
C650 C 0.97048 0.12479 0.91455 0.0
C651 C 0.03787 0.16795 0.89834 0.0
C652 C 0.93225 0.1159 0.91555 0.0
C653 C 0.92018 0.13684 0.90038 0.0
C654 C 0.99631 0.15428 0.89794 0.0
C655 C 0.94646 0.16482 0.88323 0.0
C656 C 0.0618 0.19168 0.87822 0.0
C657 C 0.09219 0.17563 0.92197 0.0
N658 N 0.98325 0.17281 0.88256 0.0
N659 N 0.05378 0.16038 0.91944 0.0
H660 H 0.96515 0.09979 0.41773 0.0
H661 H 0.75492 0.93405 0.37968 0.0
H662 H 0.87561 0.11799 0.38814 0.0
H663 H 0.8341 0.91089 0.42127 0.0
H664 H 0.80323 1.00096 0.3773 0.0
H665 H 0.9217 0.03056 0.4146 0.0
C666 C 0.93647 0.08924 0.41038 0.0
C667 C 0.9239 0.11473 0.40331 0.0
C668 C 0.81032 0.98141 0.38688 0.0
C669 C 0.87423 0.03574 0.39967 0.0
C670 C 0.78268 0.94303 0.38823 0.0
C671 C 0.79026 0.91685 0.40108 0.0
C672 C 0.84608 0.99417 0.39855 0.0
C673 C 0.82703 0.93017 0.41129 0.0
C674 C 0.91169 0.04976 0.40872 0.0
C675 C 0.88638 0.09948 0.39415 0.0
N676 N 0.85356 0.96811 0.41007 0.0
N677 N 0.86299 0.06112 0.39261 0.0
H678 H 0.94215 0.82496 0.92416 0.0
H679 H 0.77864 0.8691 0.87957 0.0
H680 H 0.84693 0.75231 0.87418 0.0
H681 H 0.8806 0.95283 0.91931 0.0
H682 H 0.80565 0.82727 0.87642 0.0
H683 H 0.92376 0.87447 0.9209 0.0
C684 C 0.91793 0.81976 0.91212 0.0
C685 C 0.89565 0.78433 0.89977 0.0
C686 C 0.82236 0.85486 0.88573 0.0
C687 C 0.87428 0.84017 0.8962 0.0
C688 C 0.80676 0.87863 0.88767 0.0
C689 C 0.82727 0.91434 0.89987 0.0
C690 C 0.85867 0.86654 0.89635 0.0
C691 C 0.8639 0.92552 0.90966 0.0
C692 C 0.90729 0.84784 0.91039 0.0
C693 C 0.86449 0.77895 0.88445 0.0
N694 N 0.87833 0.90154 0.90792 0.0
N695 N 0.85458 0.8063 0.88334 0.0
H696 H 0.20295 0.73277 0.15966 0.0
H697 H 0.11293 0.51383 0.12037 0.0
H698 H 0.08675 0.6638 0.1328 0.0
H699 H 0.22023 0.57761 0.16117 0.0
H700 H 0.10239 0.56797 0.12501 0.0
H701 H 0.20936 0.67609 0.16069 0.0
C702 C 0.17866 0.70564 0.15404 0.0
C703 C 0.14428 0.70311 0.14593 0.0
C704 C 0.12811 0.57007 0.13313 0.0
C705 C 0.15161 0.63789 0.147 0.0
C706 C 0.13427 0.53926 0.13036 0.0
C707 C 0.16772 0.54138 0.14018 0.0
C708 C 0.15577 0.60348 0.14561 0.0
C709 C 0.19404 0.57474 0.15336 0.0
C710 C 0.18235 0.67322 0.15474 0.0
C711 C 0.11376 0.66709 0.13915 0.0
N712 N 0.18767 0.60462 0.15546 0.0
N713 N 0.11826 0.63592 0.1396 0.0
H714 H 0.66305 0.22187 0.65365 0.0
H715 H 0.43934 0.07489 0.63407 0.0
H716 H 0.61784 0.10416 0.63113 0.0
H717 H 0.48697 0.19423 0.65303 0.0
H718 H 0.50381 0.08356 0.63552 0.0
H719 H 0.59802 0.21092 0.65593 0.0
C720 C 0.63948 0.19371 0.64918 0.0
C721 C 0.64608 0.16396 0.64213 0.0
C722 C 0.50003 0.10777 0.63945 0.0
C723 C 0.57125 0.15108 0.64483 0.0
C724 C 0.46321 0.10281 0.63867 0.0
C725 C 0.45758 0.13387 0.64327 0.0
C726 C 0.53144 0.14401 0.64493 0.0
C727 C 0.48972 0.16941 0.64914 0.0
C728 C 0.60228 0.18741 0.65059 0.0
C729 C 0.61422 0.12788 0.63696 0.0
N730 N 0.52512 0.17348 0.64972 0.0
N731 N 0.57827 0.12251 0.6383 0.0
H732 H 0.52848 0.60869 0.11899 0.0
H733 H 0.31245 0.47714 0.1645 0.0
H734 H 0.46701 0.65013 0.16496 0.0
H735 H 0.37916 0.4322 0.12959 0.0
H736 H 0.36934 0.54011 0.16619 0.0
H737 H 0.47489 0.54373 0.12365 0.0
C738 C 0.50366 0.6041 0.13008 0.0
C739 C 0.50204 0.63497 0.14136 0.0
C740 C 0.3717 0.51647 0.15837 0.0
C741 C 0.44057 0.5605 0.1469 0.0
C742 C 0.33916 0.48042 0.15734 0.0
C743 C 0.34092 0.4493 0.14668 0.0
C744 C 0.40636 0.52174 0.1484 0.0
C745 C 0.37644 0.45533 0.13796 0.0
C746 C 0.47317 0.56695 0.13288 0.0
C747 C 0.4695 0.62721 0.15597 0.0
N748 N 0.40768 0.49095 0.13874 0.0
N749 N 0.43991 0.59081 0.1581 0.0
H750 H 0.94472 0.52503 0.63182 0.0
H751 H 0.85208 0.30216 0.6621 0.0
H752 H 0.83026 0.45375 0.66117 0.0
H753 H 0.96649 0.37099 0.63189 0.0
H754 H 0.84585 0.35872 0.66463 0.0
H755 H 0.95518 0.47061 0.63436 0.0
C756 C 0.92189 0.49806 0.63909 0.0
C757 C 0.88648 0.49405 0.64629 0.0
C758 C 0.87243 0.36164 0.65756 0.0
C759 C 0.89823 0.43139 0.64892 0.0
C760 C 0.87609 0.32925 0.65609 0.0
C761 C 0.90984 0.33165 0.64654 0.0
C762 C 0.90264 0.397 0.64932 0.0
C763 C 0.93996 0.36774 0.63934 0.0
C764 C 0.92785 0.46692 0.64037 0.0
C765 C 0.85782 0.45816 0.65509 0.0
N766 N 0.93555 0.39897 0.64069 0.0
N767 N 0.86431 0.4283 0.6561 0.0
H768 H 0.60842 0.95665 0.13095 0.0
H769 H 0.38373 0.81675 0.1538 0.0
H770 H 0.55878 0.83922 0.15551 0.0
H771 H 0.4312 0.92803 0.11812 0.0
H772 H 0.4484 0.82706 0.15902 0.0
H773 H 0.54447 0.94927 0.13062 0.0
C774 C 0.58421 0.92945 0.13652 0.0
C775 C 0.58912 0.89848 0.14311 0.0
C776 C 0.44467 0.84926 0.15009 0.0
C777 C 0.51573 0.88979 0.1427 0.0
C778 C 0.40773 0.84345 0.14723 0.0
C779 C 0.40188 0.8714 0.1353 0.0
C780 C 0.47616 0.88341 0.14114 0.0
C781 C 0.4342 0.90537 0.127 0.0
C782 C 0.54765 0.9252 0.13621 0.0
C783 C 0.55652 0.86387 0.15008 0.0
N784 N 0.46983 0.91038 0.13004 0.0
N785 N 0.52134 0.86046 0.14962 0.0
H786 H 0.67002 0.59907 0.6319 0.0
H787 H 0.58405 0.37547 0.65979 0.0
H788 H 0.73779 0.55022 0.65821 0.0
H789 H 0.52093 0.42221 0.6221 0.0
H790 H 0.63895 0.44014 0.66379 0.0
H791 H 0.6134 0.53531 0.63257 0.0
C792 C 0.67301 0.57508 0.63802 0.0
C793 C 0.70888 0.58016 0.64488 0.0
C794 C 0.61304 0.43623 0.65469 0.0
C795 C 0.64405 0.50693 0.64564 0.0
C796 C 0.58163 0.39932 0.65253 0.0
C797 C 0.5479 0.39329 0.64038 0.0
C798 C 0.61068 0.46746 0.64482 0.0
C799 C 0.54654 0.42536 0.63119 0.0
C800 C 0.64066 0.53861 0.63831 0.0
C801 C 0.71086 0.54781 0.65259 0.0
N802 N 0.57741 0.46095 0.63357 0.0
N803 N 0.67901 0.51268 0.6527 0.0
H804 H 0.31055 0.84161 0.39351 0.0
H805 H 0.5325 0.93102 0.42569 0.0
H806 H 0.38067 0.95656 0.42244 0.0
H807 H 0.46094 0.81797 0.39416 0.0
H808 H 0.47878 0.94257 0.42269 0.0
H809 H 0.36647 0.83423 0.39183 0.0
C810 C 0.33777 0.86546 0.39948 0.0
C811 C 0.34073 0.89974 0.40835 0.0
C812 C 0.47491 0.91533 0.41629 0.0
C813 C 0.40538 0.89126 0.40649 0.0
C814 C 0.50565 0.90875 0.41783 0.0
C815 C 0.50131 0.87337 0.4102 0.0
C816 C 0.43945 0.88633 0.40709 0.0
C817 C 0.46557 0.84545 0.40062 0.0
C818 C 0.36981 0.86117 0.39847 0.0
C819 C 0.37699 0.92962 0.41552 0.0
N820 N 0.4361 0.8525 0.39942 0.0
N821 N 0.40788 0.92459 0.41461 0.0
H822 H 0.61514 0.51851 0.93323 0.0
H823 H 0.48418 0.30386 0.88505 0.0
H824 H 0.65689 0.45893 0.88548 0.0
H825 H 0.43858 0.36961 0.92053 0.0
H826 H 0.54711 0.36089 0.88388 0.0
H827 H 0.55019 0.46506 0.92795 0.0
C828 C 0.61062 0.49415 0.92159 0.0
C829 C 0.64157 0.493 0.91001 0.0
C830 C 0.52334 0.36301 0.89172 0.0
C831 C 0.56713 0.43168 0.9038 0.0
C832 C 0.48732 0.33039 0.89246 0.0
C833 C 0.45602 0.33184 0.90312 0.0
C834 C 0.52841 0.39743 0.902 0.0
C835 C 0.46187 0.36714 0.91216 0.0
C836 C 0.57348 0.46375 0.91846 0.0
C837 C 0.63391 0.46105 0.89473 0.0
N838 N 0.49746 0.39846 0.91167 0.0
N839 N 0.59751 0.4315 0.89229 0.0
H840 H 0.11412 0.60998 0.43211 0.0
H841 H 0.2025 0.48015 0.3898 0.0
H842 H 0.22013 0.65325 0.38959 0.0
H843 H 0.08805 0.43382 0.42009 0.0
H844 H 0.20924 0.54347 0.38939 0.0
H845 H 0.10402 0.54541 0.42794 0.0
C846 C 0.13534 0.6059 0.42191 0.0
C847 C 0.16824 0.6372 0.41139 0.0
C848 C 0.18255 0.51947 0.39597 0.0
C849 C 0.1567 0.56308 0.40643 0.0
C850 C 0.17865 0.48319 0.39628 0.0
C851 C 0.14467 0.45147 0.40514 0.0
C852 C 0.15242 0.52437 0.40484 0.0
C853 C 0.11475 0.45735 0.41309 0.0
C854 C 0.12941 0.56896 0.41939 0.0
C855 C 0.19433 0.63002 0.39794 0.0
N856 N 0.11945 0.49312 0.41296 0.0
N857 N 0.18816 0.5938 0.39604 0.0
H858 H 0.73716 0.18872 0.88564 0.0
H859 H 0.52347 0.10831 0.93489 0.0
H860 H 0.6699 0.0771 0.92034 0.0
H861 H 0.58234 0.20745 0.88516 0.0
H862 H 0.57663 0.09631 0.92982 0.0
H863 H 0.6808 0.19587 0.88505 0.0
C864 C 0.71046 0.16556 0.89302 0.0
C865 C 0.70836 0.13231 0.90324 0.0
C866 C 0.57786 0.12055 0.91986 0.0
C867 C 0.64358 0.14054 0.90277 0.0
C868 C 0.54764 0.12757 0.92288 0.0
C869 C 0.54866 0.15918 0.91064 0.0
C870 C 0.60965 0.14551 0.90468 0.0
C871 C 0.58036 0.18275 0.89492 0.0
C872 C 0.67822 0.16967 0.8926 0.0
C873 C 0.67286 0.1032 0.91229 0.0
N874 N 0.60976 0.17566 0.8926 0.0
N875 N 0.64196 0.10816 0.9121 0.0
H876 H 0.39021 0.57332 0.3839 0.0
H877 H 0.61239 0.66115 0.41805 0.0
H878 H 0.43435 0.51319 0.42853 0.0
H879 H 0.56403 0.7267 0.38654 0.0
H880 H 0.54889 0.60389 0.41647 0.0
H881 H 0.45532 0.62708 0.37916 0.0
C882 C 0.41361 0.57128 0.3925 0.0
C883 C 0.40672 0.53884 0.40686 0.0
C884 C 0.55231 0.6308 0.40973 0.0
C885 C 0.48138 0.60033 0.4016 0.0
C886 C 0.58859 0.66345 0.4105 0.0
C887 C 0.59356 0.69888 0.40262 0.0
C888 C 0.52087 0.63357 0.40082 0.0
C889 C 0.56158 0.70012 0.3931 0.0
C890 C 0.45077 0.60205 0.38991 0.0
C891 C 0.43822 0.53791 0.41771 0.0
N892 N 0.52669 0.66806 0.39255 0.0
N893 N 0.4741 0.56819 0.41492 0.0
H894 H 0.84907 0.55254 0.88964 0.0
H895 H 0.93522 0.42158 0.93336 0.0
H896 H 0.96165 0.59827 0.92306 0.0
H897 H 0.83187 0.38004 0.88797 0.0
H898 H 0.94576 0.48638 0.92965 0.0
H899 H 0.84284 0.48952 0.88848 0.0
C900 C 0.87264 0.54942 0.89665 0.0
C901 C 0.9059 0.58086 0.90664 0.0
C902 C 0.92089 0.46316 0.92036 0.0
C903 C 0.89873 0.50825 0.90548 0.0
C904 C 0.9147 0.42609 0.92261 0.0
C905 C 0.88238 0.39521 0.91116 0.0
C906 C 0.89443 0.46954 0.90673 0.0
C907 C 0.8572 0.40293 0.89704 0.0
C908 C 0.86904 0.51331 0.89591 0.0
C909 C 0.93552 0.57492 0.9152 0.0
N910 N 0.86358 0.43924 0.89542 0.0
N911 N 0.93109 0.53925 0.91465 0.0
H912 H 0.20797 0.35749 0.35136 0.0
H913 H 0.18132 0.35885 0.19468 0.0
H914 H 0.10664 0.34495 0.31402 0.0
H915 H 0.26398 0.33707 0.23242 0.0
H916 H 0.16199 0.36981 0.23836 0.0
H917 H 0.23758 0.36628 0.30766 0.0
C918 C 0.19231 0.35727 0.33402 0.0
C919 C 0.15478 0.35003 0.33612 0.0
C920 C 0.18469 0.36308 0.23696 0.0
C921 C 0.18807 0.36004 0.28644 0.0
C922 C 0.19569 0.35694 0.2121 0.0
C923 C 0.22379 0.34654 0.21012 0.0
C924 C 0.20234 0.35918 0.25972 0.0
C925 C 0.24173 0.3445 0.2332 0.0
C926 C 0.20904 0.36211 0.30913 0.0
C927 C 0.13553 0.34996 0.31313 0.0
N928 N 0.23059 0.35054 0.25703 0.0
N929 N 0.15227 0.35461 0.28923 0.0
H930 H 0.9429 0.26078 0.73217 0.0
H931 H 0.77552 0.09632 0.8137 0.0
H932 H 0.83989 0.17301 0.69587 0.0
H933 H 0.86644 0.19714 0.85008 0.0
H934 H 0.79549 0.12659 0.77073 0.0
H935 H 0.91286 0.24121 0.77525 0.0
C936 C 0.91367 0.23756 0.73331 0.0
C937 C 0.8939 0.21813 0.71053 0.0
C938 C 0.81082 0.14244 0.78805 0.0
C939 C 0.85945 0.1952 0.75992 0.0
C940 C 0.79952 0.12514 0.81262 0.0
C941 C 0.8197 0.1442 0.83537 0.0
C942 C 0.84306 0.17889 0.7861 0.0
C943 C 0.85027 0.18152 0.83294 0.0
C944 C 0.89651 0.22649 0.75793 0.0
C945 C 0.85606 0.18858 0.71302 0.0
N946 N 0.86146 0.19748 0.80862 0.0
N947 N 0.84021 0.17755 0.7374 0.0
H948 H 0.68061 0.8323 0.19638 0.0
H949 H 0.68171 0.86139 0.35306 0.0
H950 H 0.69925 0.93597 0.23371 0.0
H951 H 0.69225 0.77138 0.31574 0.0
H952 H 0.67231 0.88178 0.30935 0.0
H953 H 0.66933 0.80221 0.24009 0.0
C954 C 0.68174 0.84845 0.21371 0.0
C955 C 0.69136 0.88671 0.21157 0.0
C956 C 0.67611 0.85719 0.31084 0.0
C957 C 0.67847 0.85284 0.26131 0.0
C958 C 0.68124 0.84553 0.33574 0.0
C959 C 0.68821 0.81506 0.33783 0.0
C960 C 0.67763 0.83792 0.28813 0.0
C961 C 0.68748 0.7954 0.31486 0.0
C962 C 0.67543 0.83142 0.2386 0.0
C963 C 0.69244 0.9065 0.23458 0.0
N964 N 0.68261 0.8073 0.29097 0.0
N965 N 0.68635 0.88946 0.25846 0.0
H966 H 0.77779 0.68914 0.73507 0.0
H967 H 0.94043 0.68253 0.81668 0.0
H968 H 0.8642 0.67169 0.69872 0.0
H969 H 0.83962 0.6728 0.85304 0.0
H970 H 0.91078 0.67383 0.77358 0.0
H971 H 0.79737 0.67877 0.77819 0.0
C972 C 0.80074 0.68273 0.7362 0.0
C973 C 0.81972 0.68162 0.71338 0.0
C974 C 0.8948 0.673 0.79093 0.0
C975 C 0.84258 0.6701 0.7628 0.0
C976 C 0.91173 0.67805 0.81556 0.0
C977 C 0.89248 0.67871 0.83836 0.0
C978 C 0.85855 0.66931 0.78896 0.0
C979 C 0.85535 0.67251 0.83588 0.0
C980 C 0.81179 0.67668 0.76084 0.0
C981 C 0.84897 0.6729 0.71589 0.0
N982 N 0.83977 0.66868 0.8115 0.0
N983 N 0.85993 0.66802 0.74027 0.0
H984 H 0.13555 0.76011 0.23299 0.0
H985 H 0.27197 0.94456 0.31791 0.0
H986 H 0.20936 0.8717 0.20019 0.0
H987 H 0.19327 0.83614 0.35301 0.0
H988 H 0.25562 0.91535 0.27458 0.0
H989 H 0.16277 0.78433 0.27651 0.0
C990 C 0.15791 0.78962 0.23491 0.0
C991 C 0.1699 0.81415 0.21307 0.0
C992 C 0.242 0.89772 0.29166 0.0
C993 C 0.20097 0.842 0.26277 0.0
C994 C 0.25129 0.9144 0.31647 0.0
C995 C 0.23361 0.89274 0.33901 0.0
C996 C 0.21447 0.85903 0.28922 0.0
C997 C 0.20738 0.85378 0.33603 0.0
C998 C 0.17333 0.8034 0.25977 0.0
C999 C 0.19911 0.85194 0.21656 0.0
N1000 N 0.19825 0.83816 0.31147 0.0
N1001 N 0.21336 0.8648 0.24102 0.0
H1002 H 0.36693 0.17255 0.854 0.0
H1003 H 0.3655 0.19619 0.69713 0.0
H1004 H 0.35154 0.2586 0.81514 0.0
H1005 H 0.35021 0.0946 0.73569 0.0
H1006 H 0.37613 0.22724 0.74037 0.0
H1007 H 0.37658 0.15127 0.81068 0.0
C1008 C 0.36628 0.18731 0.8364 0.0
C1009 C 0.35797 0.21693 0.83795 0.0
C1010 C 0.37092 0.1983 0.73928 0.0
C1011 C 0.36893 0.19313 0.78875 0.0
C1012 C 0.36501 0.18073 0.71465 0.0
C1013 C 0.35657 0.14279 0.71301 0.0
C1014 C 0.36859 0.17771 0.76223 0.0
C1015 C 0.35617 0.12382 0.73622 0.0
C1016 C 0.37161 0.17516 0.81174 0.0
C1017 C 0.35737 0.23525 0.81467 0.0
N1018 N 0.36182 0.14137 0.7599 0.0
N1019 N 0.3625 0.22292 0.79103 0.0
H1020 H 0.37115 0.29739 0.97634 0.0
H1021 H 0.19266 0.27428 0.05663 0.0
H1022 H 0.27618 0.18467 0.99075 0.0
H1023 H 0.30849 0.36169 0.0729 0.0
H1024 H 0.21736 0.24305 0.02688 0.0
H1025 H 0.34342 0.32377 1.0064 0.0
C1026 C 0.34454 0.27812 0.98613 0.0
C1027 C 0.32614 0.23878 0.98136 0.0
C1028 C 0.23716 0.26909 0.03701 0.0
C1029 C 0.2936 0.269 1.01538 0.0
C1030 C 0.22314 0.28709 0.05363 0.0
C1031 C 0.24867 0.32071 0.06696 0.0
C1032 C 0.27678 0.2855 0.03343 0.0
C1033 C 0.28788 0.33591 0.06286 0.0
C1034 C 0.32868 0.29321 1.00322 0.0
C1035 C 0.29149 0.21512 0.99431 0.0
N1036 N 0.30067 0.31839 0.04638 0.0
N1037 N 0.27599 0.23067 1.01063 0.0
H1038 H 0.09337 0.36361 0.47709 0.0
H1039 H 0.93673 0.18207 0.55475 0.0
H1040 H 0.10831 0.26608 0.48673 0.0
H1041 H 0.96674 0.29765 0.57358 0.0
H1042 H 0.99218 0.2073 0.5245 0.0
H1043 H 0.03953 0.33507 0.50738 0.0
C1044 C 0.08547 0.33624 0.48588 0.0
C1045 C 0.10558 0.31739 0.47971 0.0
C1046 C 0.98639 0.22693 0.53531 0.0
C1047 C 0.04306 0.28391 0.51402 0.0
C1048 C 0.95464 0.2126 0.55225 0.0
C1049 C 0.9471 0.23788 0.56647 0.0
C1050 C 1.00991 0.26662 0.5323 0.0
C1051 C 0.97143 0.27717 0.56291 0.0
C1052 C 0.05466 0.31991 0.50312 0.0
C1053 C 0.09385 0.28176 0.4914 0.0
N1054 N 1.00145 0.29025 0.54614 0.0
N1055 N 0.06297 0.26586 0.50789 0.0
H1056 H 0.76949 0.92864 0.05879 0.0
H1057 H 0.74251 0.07837 0.97405 0.0
H1058 H 0.67926 0.95392 0.07233 0.0
H1059 H 0.8558 0.098 0.98903 0.0
H1060 H 0.71676 0.02541 1.00506 0.0
H1061 H 0.79972 0.98338 0.02808 0.0
C1062 C 0.75586 0.94537 0.05501 0.0
C1063 C 0.72174 0.93673 0.06788 0.0
C1064 C 0.7473 0.04136 1.00178 0.0
C1065 C 0.75581 0.99874 0.03312 0.0
C1066 C 0.76204 0.07165 0.9841 0.0
C1067 C 0.80136 0.09281 0.9792 0.0
C1068 C 0.77185 0.03137 1.01443 0.0
C1069 C 0.82534 0.08264 0.9926 0.0
C1070 C 0.77328 0.97673 0.0378 0.0
C1071 C 0.70547 0.95954 0.0627 0.0
N1072 N 0.81014 0.05227 1.0095 0.0
N1073 N 0.72246 0.98923 0.04565 0.0
H1074 H 0.74609 0.66608 0.57087 0.0
H1075 H 0.7695 0.84766 0.49497 0.0
H1076 H 0.85839 0.76429 0.56231 0.0
H1077 H 0.68813 0.73224 0.47245 0.0
H1078 H 0.7997 0.82241 0.52515 0.0
H1079 H 0.72117 0.6944 0.54004 0.0
C1080 C 0.76561 0.69353 0.5622 0.0
C1081 C 0.80442 0.71264 0.56879 0.0
C1082 C 0.77525 0.80282 0.5135 0.0
C1083 C 0.77579 0.74589 0.534 0.0
C1084 C 0.75784 0.81713 0.49657 0.0
C1085 C 0.72617 0.79193 0.48136 0.0
C1086 C 0.76016 0.76316 0.51554 0.0
C1087 C 0.71241 0.75267 0.48386 0.0
C1088 C 0.75135 0.70973 0.54467 0.0
C1089 C 0.82839 0.7484 0.55729 0.0
N1090 N 0.72923 0.73955 0.50071 0.0
N1091 N 0.8136 0.76419 0.54057 0.0
H1092 H 0.93501 0.76503 0.99067 0.0
H1093 H 0.07689 0.73493 0.08188 0.0
H1094 H 0.95987 0.6741 0.97938 0.0
H1095 H 0.10575 0.84944 0.06073 0.0
H1096 H 1.02358 0.70991 0.05112 0.0
H1097 H 0.98798 0.79458 1.0229 0.0
C1098 C 0.95127 0.75113 0.99522 0.0
C1099 C 0.94304 0.71701 0.98254 0.0
C1100 C 0.04154 0.74053 0.05314 0.0
C1101 C 1.0028 0.75015 1.01911 0.0
C1102 C 0.07199 0.75486 0.07069 0.0
C1103 C 0.09603 0.79432 0.07361 0.0
C1104 C 0.03436 0.7657 0.03861 0.0
C1105 C 0.08812 0.81881 0.05873 0.0
C1106 C 0.98158 0.76812 1.01332 0.0
C1107 C 0.96521 0.70035 0.98878 0.0
N1108 N 0.05769 0.80409 0.04188 0.0
N1109 N 0.99376 0.71686 1.00671 0.0
H1110 H 0.18667 0.93092 0.49034 0.0
H1111 H 0.36753 0.08091 0.57339 0.0
H1112 H 0.30079 0.95001 0.48081 0.0
H1113 H 0.27172 0.09831 0.5622 0.0
H1114 H 0.3385 0.02678 0.54357 0.0
H1115 H 0.21198 0.9858 0.5211 0.0
C1116 C 0.2168 0.94621 0.49507 0.0
C1117 C 0.24172 0.93588 0.48325 0.0
C1118 C 0.32378 0.04247 0.54734 0.0
C1119 C 0.2706 0.99817 0.51786 0.0
C1120 C 0.34044 0.07351 0.56432 0.0
C1121 C 0.32219 0.09432 0.57001 0.0
C1122 C 0.28813 0.0315 0.53601 0.0
C1123 C 0.28692 0.08324 0.55794 0.0
C1124 C 0.23125 0.97769 0.51228 0.0
C1125 C 0.28059 0.95693 0.48958 0.0
N1126 N 0.27075 0.05224 0.54157 0.0
N1127 N 0.29371 0.98682 0.50641 0.0
loop_
_geom_bond_atom_site_label_1
_geom_bond_atom_site_label_2
_geom_bond_distance
_geom_bond_site_symmetry_2
_ccdc_geom_bond_type
Ho0 C3 2.811 . S
Ho0 O20 2.322 . S
Ho0 O22 2.378 . S
Ho0 O23 2.524 . S
Ho0 O24 2.381 . S
Ho0 O25 2.669 . S
Ho0 O27 2.346 . S
Ho0 O31 2.305 . S
Ho1 C12 2.811 . S
Ho1 O21 2.346 . S
Ho1 O25 2.305 . S
Ho1 O26 2.322 . S
Ho1 O28 2.378 . S
Ho1 O29 2.524 . S
Ho1 O30 2.381 . S
Ho1 O31 2.669 . S
C2 O20 1.259 . S
C2 O21 1.268 . S
C3 Ho0 2.811 . S
C3 C4 1.488 . S
C3 O22 1.215 . S
C3 O23 1.289 . S
C4 C3 1.488 . S
C4 C5 1.348 . S
C4 C9 1.413 . S
C5 C4 1.348 . S
C5 C6 1.442 . S
C5 H32 0.930 . S
C6 C5 1.442 . S
C6 C7 1.381 . S
C6 H33 0.931 . S
C7 C6 1.381 . S
C7 C8 1.321 . S
C8 C7 1.321 . S
C8 C9 1.403 . S
C8 H34 0.934 . S
C9 C4 1.413 . S
C9 C8 1.403 . S
C9 H35 0.930 . S
C10 O24 1.275 . S
C10 O25 1.256 . S
C11 O26 1.259 . S
C11 O27 1.268 . S
C12 Ho1 2.811 . S
C12 C13 1.488 . S
C12 O28 1.215 . S
C12 O29 1.289 . S
C13 C12 1.488 . S
C13 C14 1.348 . S
C13 C18 1.413 . S
C14 C13 1.348 . S
C14 C15 1.442 . S
C14 H36 0.930 . S
C15 C14 1.442 . S
C15 C16 1.381 . S
C15 H37 0.931 . S
C16 C15 1.381 . S
C16 C17 1.321 . S
C17 C16 1.321 . S
C17 C18 1.403 . S
C17 H38 0.934 . S
C18 C13 1.413 . S
C18 C17 1.403 . S
C18 H39 0.930 . S
C19 O30 1.275 . S
C19 O31 1.256 . S
O20 Ho0 2.322 . S
O20 C2 1.259 . S
O21 Ho1 2.346 . S
O21 C2 1.268 . S
O22 Ho0 2.378 . S
O22 C3 1.215 . S
O23 Ho0 2.524 . S
O23 C3 1.289 . S
O24 Ho0 2.381 . S
O24 C10 1.275 . S
O25 Ho0 2.669 . S
O25 Ho1 2.305 . S
O25 C10 1.256 . S
O26 Ho1 2.322 . S
O26 C11 1.259 . S
O27 Ho0 2.346 . S
O27 C11 1.268 . S
O28 Ho1 2.378 . S
O28 C12 1.215 . S
O29 Ho1 2.524 . S
O29 C12 1.289 . S
O30 Ho1 2.381 . S
O30 C19 1.275 . S
O31 Ho0 2.305 . S
O31 Ho1 2.669 . S
O31 C19 1.256 . S
H32 C5 0.930 . S
H33 C6 0.931 . S
H34 C8 0.934 . S
H35 C9 0.930 . S
H36 C14 0.930 . S
H37 C15 0.931 . S
H38 C17 0.934 . S
H39 C18 0.930 . S
Ho40 C43 2.811 . S
Ho40 O60 2.322 . S
Ho40 O62 2.378 . S
Ho40 O63 2.524 . S
Ho40 O64 2.381 . S
Ho40 O65 2.669 . S
Ho40 O67 2.346 . S
Ho40 O71 2.305 . S
Ho41 C52 2.811 . S
Ho41 O61 2.346 . S
Ho41 O65 2.305 . S
Ho41 O66 2.322 . S
Ho41 O68 2.378 . S
Ho41 O69 2.524 . S
Ho41 O70 2.381 . S
Ho41 O71 2.669 . S
C42 O60 1.259 . S
C42 O61 1.268 . S
C43 Ho40 2.811 . S
C43 C44 1.488 . S
C43 O62 1.215 . S
C43 O63 1.289 . S
C44 C43 1.488 . S
C44 C45 1.348 . S
C44 C49 1.413 . S
C45 C44 1.348 . S
C45 C46 1.442 . S
C45 H72 0.930 . S
C46 C45 1.442 . S
C46 C47 1.381 . S
C46 H73 0.931 . S
C47 C46 1.381 . S
C47 C48 1.321 . S
C48 C47 1.321 . S
C48 C49 1.403 . S
C48 H74 0.934 . S
C49 C44 1.413 . S
C49 C48 1.403 . S
C49 H75 0.930 . S
C50 O64 1.275 . S
C50 O65 1.256 . S
C51 O66 1.259 . S
C51 O67 1.268 . S
C52 Ho41 2.811 . S
C52 C53 1.491 1_655 S
C52 O68 1.215 . S
C52 O69 1.289 . S
C53 C52 1.491 1_455 S
C53 C54 1.346 . S
C53 C58 1.412 . S
C54 C53 1.346 . S
C54 C55 1.442 . S
C54 H76 0.936 . S
C55 C54 1.442 . S
C55 C56 1.381 . S
C55 H77 0.931 . S
C56 C55 1.381 . S
C56 C57 1.321 . S
C57 C56 1.321 . S
C57 C58 1.403 . S
C57 H78 0.934 . S
C58 C53 1.412 . S
C58 C57 1.403 . S
C58 H79 0.930 . S
C59 O70 1.275 . S
C59 O71 1.256 . S
O60 Ho40 2.322 . S
O60 C42 1.259 . S
O61 Ho41 2.346 . S
O61 C42 1.268 . S
O62 Ho40 2.378 . S
O62 C43 1.215 . S
O63 Ho40 2.524 . S
O63 C43 1.289 . S
O64 Ho40 2.381 . S
O64 C50 1.275 . S
O65 Ho40 2.669 . S
O65 Ho41 2.305 . S
O65 C50 1.256 . S
O66 Ho41 2.322 . S
O66 C51 1.259 . S
O67 Ho40 2.346 . S
O67 C51 1.268 . S
O68 Ho41 2.378 . S
O68 C52 1.215 . S
O69 Ho41 2.524 . S
O69 C52 1.289 . S
O70 Ho41 2.381 . S
O70 C59 1.275 . S
O71 Ho40 2.305 . S
O71 Ho41 2.669 . S
O71 C59 1.256 . S
H72 C45 0.930 . S
H73 C46 0.931 . S
H74 C48 0.934 . S
H75 C49 0.930 . S
H76 C54 0.936 . S
H77 C55 0.931 . S
H78 C57 0.934 . S
H79 C58 0.930 . S
Ho80 C83 2.811 . S
Ho80 O100 2.322 . S
Ho80 O102 2.378 . S
Ho80 O103 2.524 . S
Ho80 O104 2.381 . S
Ho80 O105 2.669 . S
Ho80 O107 2.346 . S
Ho80 O111 2.305 . S
Ho81 C92 2.811 . S
Ho81 O101 2.346 . S
Ho81 O105 2.305 . S
Ho81 O106 2.322 . S
Ho81 O108 2.378 . S
Ho81 O109 2.524 . S
Ho81 O110 2.381 . S
Ho81 O111 2.669 . S
C82 O100 1.259 . S
C82 O101 1.268 . S
C83 Ho80 2.811 . S
C83 C84 1.488 . S
C83 O102 1.215 . S
C83 O103 1.289 . S
C84 C83 1.488 . S
C84 C85 1.348 . S
C84 C89 1.413 . S
C85 C84 1.348 . S
C85 C86 1.442 . S
C85 H112 0.930 . S
C86 C85 1.442 . S
C86 C87 1.381 . S
C86 H113 0.931 . S
C87 C86 1.381 . S
C87 C88 1.321 . S
C88 C87 1.321 . S
C88 C89 1.403 . S
C88 H114 0.934 . S
C89 C84 1.413 . S
C89 C88 1.403 . S
C89 H115 0.930 . S
C90 O104 1.275 . S
C90 O105 1.256 . S
C91 O106 1.259 . S
C91 O107 1.268 . S
C92 Ho81 2.811 . S
C92 C93 1.489 1_565 S
C92 O108 1.215 . S
C92 O109 1.289 . S
C93 C92 1.489 1_545 S
C93 C94 1.348 . S
C93 C98 1.412 . S
C94 C93 1.348 . S
C94 C95 1.442 . S
C94 H116 0.934 . S
C95 C94 1.442 . S
C95 C96 1.381 . S
C95 H117 0.931 . S
C96 C95 1.381 . S
C96 C97 1.321 . S
C97 C96 1.321 . S
C97 C98 1.403 . S
C97 H118 0.934 . S
C98 C93 1.412 . S
C98 C97 1.403 . S
C98 H119 0.930 . S
C99 O110 1.275 . S
C99 O111 1.256 . S
O100 Ho80 2.322 . S
O100 C82 1.259 . S
O101 Ho81 2.346 . S
O101 C82 1.268 . S
O102 Ho80 2.378 . S
O102 C83 1.215 . S
O103 Ho80 2.524 . S
O103 C83 1.289 . S
O104 Ho80 2.381 . S
O104 C90 1.275 . S
O105 Ho80 2.669 . S
O105 Ho81 2.305 . S
O105 C90 1.256 . S
O106 Ho81 2.322 . S
O106 C91 1.259 . S
O107 Ho80 2.346 . S
O107 C91 1.268 . S
O108 Ho81 2.378 . S
O108 C92 1.215 . S
O109 Ho81 2.524 . S
O109 C92 1.289 . S
O110 Ho81 2.381 . S
O110 C99 1.275 . S
O111 Ho80 2.305 . S
O111 Ho81 2.669 . S
O111 C99 1.256 . S
H112 C85 0.930 . S
H113 C86 0.931 . S
H114 C88 0.934 . S
H115 C89 0.930 . S
H116 C94 0.934 . S
H117 C95 0.931 . S
H118 C97 0.934 . S
H119 C98 0.930 . S
Ho120 C123 2.811 . S
Ho120 O140 2.322 . S
Ho120 O142 2.378 . S
Ho120 O143 2.524 . S
Ho120 O144 2.381 . S
Ho120 O145 2.669 . S
Ho120 O147 2.346 . S
Ho120 O151 2.305 . S
Ho121 C132 2.811 . S
Ho121 O141 2.346 . S
Ho121 O145 2.305 . S
Ho121 O146 2.322 . S
Ho121 O148 2.378 . S
Ho121 O149 2.524 . S
Ho121 O150 2.381 . S
Ho121 O151 2.669 . S
C122 O140 1.259 . S
C122 O141 1.268 . S
C123 Ho120 2.811 . S
C123 C124 1.488 . S
C123 O142 1.215 . S
C123 O143 1.289 . S
C124 C123 1.488 . S
C124 C125 1.348 . S
C124 C129 1.413 . S
C125 C124 1.348 . S
C125 C126 1.442 . S
C125 H152 0.930 . S
C126 C125 1.442 . S
C126 C127 1.381 . S
C126 H153 0.931 . S
C127 C126 1.381 . S
C127 C128 1.321 . S
C128 C127 1.321 . S
C128 C129 1.403 . S
C128 H154 0.934 . S
C129 C124 1.413 . S
C129 C128 1.403 . S
C129 H155 0.930 . S
C130 O144 1.275 . S
C130 O145 1.256 . S
C131 O146 1.259 . S
C131 O147 1.268 . S
C132 Ho121 2.811 . S
C132 C133 1.488 . S
C132 O148 1.215 . S
C132 O149 1.289 . S
C133 C132 1.488 . S
C133 C134 1.348 . S
C133 C138 1.413 . S
C134 C133 1.348 . S
C134 C135 1.442 . S
C134 H156 0.930 . S
C135 C134 1.442 . S
C135 C136 1.381 . S
C135 H157 0.931 . S
C136 C135 1.381 . S
C136 C137 1.321 . S
C137 C136 1.321 . S
C137 C138 1.403 . S
C137 H158 0.934 . S
C138 C133 1.413 . S
C138 C137 1.403 . S
C138 H159 0.930 . S
C139 O150 1.275 . S
C139 O151 1.256 . S
O140 Ho120 2.322 . S
O140 C122 1.259 . S
O141 Ho121 2.346 . S
O141 C122 1.268 . S
O142 Ho120 2.378 . S
O142 C123 1.215 . S
O143 Ho120 2.524 . S
O143 C123 1.289 . S
O144 Ho120 2.381 . S
O144 C130 1.275 . S
O145 Ho120 2.669 . S
O145 Ho121 2.305 . S
O145 C130 1.256 . S
O146 Ho121 2.322 . S
O146 C131 1.259 . S
O147 Ho120 2.346 . S
O147 C131 1.268 . S
O148 Ho121 2.378 . S
O148 C132 1.215 . S
O149 Ho121 2.524 . S
O149 C132 1.289 . S
O150 Ho121 2.381 . S
O150 C139 1.275 . S
O151 Ho120 2.305 . S
O151 Ho121 2.669 . S
O151 C139 1.256 . S
H152 C125 0.930 . S
H153 C126 0.931 . S
H154 C128 0.934 . S
H155 C129 0.930 . S
H156 C134 0.930 . S
H157 C135 0.931 . S
H158 C137 0.934 . S
H159 C138 0.930 . S
Ho160 C163 2.811 . S
Ho160 O180 2.322 . S
Ho160 O182 2.378 . S
Ho160 O183 2.524 . S
Ho160 O184 2.381 . S
Ho160 O185 2.669 . S
Ho160 O187 2.346 . S
Ho160 O191 2.305 . S
Ho161 C172 2.811 . S
Ho161 O181 2.346 . S
Ho161 O185 2.305 . S
Ho161 O186 2.322 . S
Ho161 O188 2.378 . S
Ho161 O189 2.524 . S
Ho161 O190 2.381 . S
Ho161 O191 2.669 . S
C162 O180 1.259 . S
C162 O181 1.268 . S
C163 Ho160 2.811 . S
C163 C164 1.488 . S
C163 O182 1.215 . S
C163 O183 1.289 . S
C164 C163 1.488 . S
C164 C165 1.348 . S
C164 C169 1.413 . S
C165 C164 1.348 . S
C165 C166 1.442 . S
C165 H192 0.930 . S
C166 C165 1.442 . S
C166 C167 1.381 . S
C166 H193 0.931 . S
C167 C166 1.381 . S
C167 C168 1.321 . S
C168 C167 1.321 . S
C168 C169 1.403 . S
C168 H194 0.934 . S
C169 C164 1.413 . S
C169 C168 1.403 . S
C169 H195 0.930 . S
C170 O184 1.275 . S
C170 O185 1.256 . S
C171 O186 1.259 . S
C171 O187 1.268 . S
C172 Ho161 2.811 . S
C172 C173 1.491 1_455 S
C172 O188 1.215 . S
C172 O189 1.289 . S
C173 C172 1.491 1_655 S
C173 C174 1.346 . S
C173 C178 1.412 . S
C174 C173 1.346 . S
C174 C175 1.442 . S
C174 H196 0.936 . S
C175 C174 1.442 . S
C175 C176 1.381 . S
C175 H197 0.931 . S
C176 C175 1.381 . S
C176 C177 1.321 . S
C177 C176 1.321 . S
C177 C178 1.403 . S
C177 H198 0.934 . S
C178 C173 1.412 . S
C178 C177 1.403 . S
C178 H199 0.930 . S
C179 O190 1.275 . S
C179 O191 1.256 . S
O180 Ho160 2.322 . S
O180 C162 1.259 . S
O181 Ho161 2.346 . S
O181 C162 1.268 . S
O182 Ho160 2.378 . S
O182 C163 1.215 . S
O183 Ho160 2.524 . S
O183 C163 1.289 . S
O184 Ho160 2.381 . S
O184 C170 1.275 . S
O185 Ho160 2.669 . S
O185 Ho161 2.305 . S
O185 C170 1.256 . S
O186 Ho161 2.322 . S
O186 C171 1.259 . S
O187 Ho160 2.346 . S
O187 C171 1.268 . S
O188 Ho161 2.378 . S
O188 C172 1.215 . S
O189 Ho161 2.524 . S
O189 C172 1.289 . S
O190 Ho161 2.381 . S
O190 C179 1.275 . S
O191 Ho160 2.305 . S
O191 Ho161 2.669 . S
O191 C179 1.256 . S
H192 C165 0.930 . S
H193 C166 0.931 . S
H194 C168 0.934 . S
H195 C169 0.930 . S
H196 C174 0.936 . S
H197 C175 0.931 . S
H198 C177 0.934 . S
H199 C178 0.930 . S
Ho200 C203 2.811 . S
Ho200 O220 2.322 . S
Ho200 O222 2.378 . S
Ho200 O223 2.524 . S
Ho200 O224 2.381 . S
Ho200 O225 2.669 . S
Ho200 O227 2.346 . S
Ho200 O231 2.305 . S
Ho201 C212 2.811 . S
Ho201 O221 2.346 . S
Ho201 O225 2.305 . S
Ho201 O226 2.322 . S
Ho201 O228 2.378 . S
Ho201 O229 2.524 . S
Ho201 O230 2.381 . S
Ho201 O231 2.669 . S
C202 O220 1.259 . S
C202 O221 1.268 . S
C203 Ho200 2.811 . S
C203 C204 1.488 . S
C203 O222 1.215 . S
C203 O223 1.289 . S
C204 C203 1.488 . S
C204 C205 1.348 . S
C204 C209 1.413 . S
C205 C204 1.348 . S
C205 C206 1.442 . S
C205 H232 0.930 . S
C206 C205 1.442 . S
C206 C207 1.381 . S
C206 H233 0.931 . S
C207 C206 1.381 . S
C207 C208 1.321 . S
C208 C207 1.321 . S
C208 C209 1.403 . S
C208 H234 0.934 . S
C209 C204 1.413 . S
C209 C208 1.403 . S
C209 H235 0.930 . S
C210 O224 1.275 . S
C210 O225 1.256 . S
C211 O226 1.259 . S
C211 O227 1.268 . S
C212 Ho201 2.811 . S
C212 C213 1.489 1_545 S
C212 O228 1.215 . S
C212 O229 1.289 . S
C213 C212 1.489 1_565 S
C213 C214 1.348 . S
C213 C218 1.412 . S
C214 C213 1.348 . S
C214 C215 1.442 . S
C214 H236 0.934 . S
C215 C214 1.442 . S
C215 C216 1.381 . S
C215 H237 0.931 . S
C216 C215 1.381 . S
C216 C217 1.321 . S
C217 C216 1.321 . S
C217 C218 1.403 . S
C217 H238 0.934 . S
C218 C213 1.412 . S
C218 C217 1.403 . S
C218 H239 0.930 . S
C219 O230 1.275 . S
C219 O231 1.256 . S
O220 Ho200 2.322 . S
O220 C202 1.259 . S
O221 Ho201 2.346 . S
O221 C202 1.268 . S
O222 Ho200 2.378 . S
O222 C203 1.215 . S
O223 Ho200 2.524 . S
O223 C203 1.289 . S
O224 Ho200 2.381 . S
O224 C210 1.275 . S
O225 Ho200 2.669 . S
O225 Ho201 2.305 . S
O225 C210 1.256 . S
O226 Ho201 2.322 . S
O226 C211 1.259 . S
O227 Ho200 2.346 . S
O227 C211 1.268 . S
O228 Ho201 2.378 . S
O228 C212 1.215 . S
O229 Ho201 2.524 . S
O229 C212 1.289 . S
O230 Ho201 2.381 . S
O230 C219 1.275 . S
O231 Ho200 2.305 . S
O231 Ho201 2.669 . S
O231 C219 1.256 . S
H232 C205 0.930 . S
H233 C206 0.931 . S
H234 C208 0.934 . S
H235 C209 0.930 . S
H236 C214 0.934 . S
H237 C215 0.931 . S
H238 C217 0.934 . S
H239 C218 0.930 . S
Ho240 C243 2.811 . S
Ho240 O260 2.322 . S
Ho240 O262 2.378 . S
Ho240 O263 2.524 . S
Ho240 O264 2.381 . S
Ho240 O265 2.669 . S
Ho240 O267 2.346 . S
Ho240 O271 2.305 . S
Ho241 C252 2.811 . S
Ho241 O261 2.346 . S
Ho241 O265 2.305 . S
Ho241 O266 2.322 . S
Ho241 O268 2.378 . S
Ho241 O269 2.524 . S
Ho241 O270 2.381 . S
Ho241 O271 2.669 . S
C242 O260 1.259 . S
C242 O261 1.268 . S
C243 Ho240 2.811 . S
C243 C244 1.488 . S
C243 O262 1.215 . S
C243 O263 1.289 . S
C244 C243 1.488 . S
C244 C245 1.348 . S
C244 C249 1.413 . S
C245 C244 1.348 . S
C245 C246 1.442 . S
C245 H272 0.930 . S
C246 C245 1.442 . S
C246 C247 1.381 . S
C246 H273 0.931 . S
C247 C246 1.381 . S
C247 C248 1.321 . S
C248 C247 1.321 . S
C248 C249 1.403 . S
C248 H274 0.934 . S
C249 C244 1.413 . S
C249 C248 1.403 . S
C249 H275 0.930 . S
C250 O264 1.275 . S
C250 O265 1.256 . S
C251 O266 1.259 . S
C251 O267 1.268 . S
C252 Ho241 2.811 . S
C252 C253 1.488 . S
C252 O268 1.215 . S
C252 O269 1.289 . S
C253 C252 1.488 . S
C253 C254 1.348 . S
C253 C258 1.413 . S
C254 C253 1.348 . S
C254 C255 1.442 . S
C254 H276 0.930 . S
C255 C254 1.442 . S
C255 C256 1.381 . S
C255 H277 0.931 . S
C256 C255 1.381 . S
C256 C257 1.321 . S
C257 C256 1.321 . S
C257 C258 1.403 . S
C257 H278 0.934 . S
C258 C253 1.413 . S
C258 C257 1.403 . S
C258 H279 0.930 . S
C259 O270 1.275 . S
C259 O271 1.256 . S
O260 Ho240 2.322 . S
O260 C242 1.259 . S
O261 Ho241 2.346 . S
O261 C242 1.268 . S
O262 Ho240 2.378 . S
O262 C243 1.215 . S
O263 Ho240 2.524 . S
O263 C243 1.289 . S
O264 Ho240 2.381 . S
O264 C250 1.275 . S
O265 Ho240 2.669 . S
O265 Ho241 2.305 . S
O265 C250 1.256 . S
O266 Ho241 2.322 . S
O266 C251 1.259 . S
O267 Ho240 2.346 . S
O267 C251 1.268 . S
O268 Ho241 2.378 . S
O268 C252 1.215 . S
O269 Ho241 2.524 . S
O269 C252 1.289 . S
O270 Ho241 2.381 . S
O270 C259 1.275 . S
O271 Ho240 2.305 . S
O271 Ho241 2.669 . S
O271 C259 1.256 . S
H272 C245 0.930 . S
H273 C246 0.931 . S
H274 C248 0.934 . S
H275 C249 0.930 . S
H276 C254 0.930 . S
H277 C255 0.931 . S
H278 C257 0.934 . S
H279 C258 0.930 . S
Ho280 C283 2.811 . S
Ho280 O300 2.322 . S
Ho280 O302 2.378 . S
Ho280 O303 2.524 . S
Ho280 O304 2.381 . S
Ho280 O305 2.669 . S
Ho280 O307 2.346 . S
Ho280 O311 2.305 . S
Ho281 C292 2.811 . S
Ho281 O301 2.346 . S
Ho281 O305 2.305 . S
Ho281 O306 2.322 . S
Ho281 O308 2.378 . S
Ho281 O309 2.524 . S
Ho281 O310 2.381 . S
Ho281 O311 2.669 . S
C282 O300 1.259 . S
C282 O301 1.268 . S
C283 Ho280 2.811 . S
C283 C284 1.488 . S
C283 O302 1.215 . S
C283 O303 1.289 . S
C284 C283 1.488 . S
C284 C285 1.348 . S
C284 C289 1.413 . S
C285 C284 1.348 . S
C285 C286 1.442 . S
C285 H312 0.930 . S
C286 C285 1.442 . S
C286 C287 1.381 . S
C286 H313 0.931 . S
C287 C286 1.381 . S
C287 C288 1.321 . S
C288 C287 1.321 . S
C288 C289 1.403 . S
C288 H314 0.934 . S
C289 C284 1.413 . S
C289 C288 1.403 . S
C289 H315 0.930 . S
C290 O304 1.275 . S
C290 O305 1.256 . S
C291 O306 1.259 . S
C291 O307 1.268 . S
C292 Ho281 2.811 . S
C292 C293 1.489 1_655 S
C292 O308 1.215 . S
C292 O309 1.289 . S
C293 C292 1.489 1_455 S
C293 C294 1.348 . S
C293 C298 1.412 . S
C294 C293 1.348 . S
C294 C295 1.442 . S
C294 H316 0.934 . S
C295 C294 1.442 . S
C295 C296 1.381 . S
C295 H317 0.931 . S
C296 C295 1.381 . S
C296 C297 1.321 . S
C297 C296 1.321 . S
C297 C298 1.403 . S
C297 H318 0.934 . S
C298 C293 1.412 . S
C298 C297 1.403 . S
C298 H319 0.930 . S
C299 O310 1.275 . S
C299 O311 1.256 . S
O300 Ho280 2.322 . S
O300 C282 1.259 . S
O301 Ho281 2.346 . S
O301 C282 1.268 . S
O302 Ho280 2.378 . S
O302 C283 1.215 . S
O303 Ho280 2.524 . S
O303 C283 1.289 . S
O304 Ho280 2.381 . S
O304 C290 1.275 . S
O305 Ho280 2.669 . S
O305 Ho281 2.305 . S
O305 C290 1.256 . S
O306 Ho281 2.322 . S
O306 C291 1.259 . S
O307 Ho280 2.346 . S
O307 C291 1.268 . S
O308 Ho281 2.378 . S
O308 C292 1.215 . S
O309 Ho281 2.524 . S
O309 C292 1.289 . S
O310 Ho281 2.381 . S
O310 C299 1.275 . S
O311 Ho280 2.305 . S
O311 Ho281 2.669 . S
O311 C299 1.256 . S
H312 C285 0.930 . S
H313 C286 0.931 . S
H314 C288 0.934 . S
H315 C289 0.930 . S
H316 C294 0.934 . S
H317 C295 0.931 . S
H318 C297 0.934 . S
H319 C298 0.930 . S
Ho320 C323 2.811 . S
Ho320 O340 2.322 . S
Ho320 O342 2.378 . S
Ho320 O343 2.524 . S
Ho320 O344 2.381 . S
Ho320 O345 2.669 . S
Ho320 O347 2.346 . S
Ho320 O351 2.305 . S
Ho321 C332 2.811 . S
Ho321 O341 2.346 . S
Ho321 O345 2.305 . S
Ho321 O346 2.322 . S
Ho321 O348 2.378 . S
Ho321 O349 2.524 . S
Ho321 O350 2.381 . S
Ho321 O351 2.669 . S
C322 O340 1.259 . S
C322 O341 1.268 . S
C323 Ho320 2.811 . S
C323 C324 1.488 . S
C323 O342 1.215 . S
C323 O343 1.289 . S
C324 C323 1.488 . S
C324 C325 1.348 . S
C324 C329 1.413 . S
C325 C324 1.348 . S
C325 C326 1.442 . S
C325 H352 0.930 . S
C326 C325 1.442 . S
C326 C327 1.381 . S
C326 H353 0.931 . S
C327 C326 1.381 . S
C327 C328 1.321 . S
C328 C327 1.321 . S
C328 C329 1.403 . S
C328 H354 0.934 . S
C329 C324 1.413 . S
C329 C328 1.403 . S
C329 H355 0.930 . S
C330 O344 1.275 . S
C330 O345 1.256 . S
C331 O346 1.259 . S
C331 O347 1.268 . S
C332 Ho321 2.811 . S
C332 C333 1.491 1_565 S
C332 O348 1.215 . S
C332 O349 1.289 . S
C333 C332 1.491 1_545 S
C333 C334 1.346 . S
C333 C338 1.412 . S
C334 C333 1.346 . S
C334 C335 1.442 . S
C334 H356 0.936 . S
C335 C334 1.442 . S
C335 C336 1.381 . S
C335 H357 0.931 . S
C336 C335 1.381 . S
C336 C337 1.321 . S
C337 C336 1.321 . S
C337 C338 1.403 . S
C337 H358 0.934 . S
C338 C333 1.412 . S
C338 C337 1.403 . S
C338 H359 0.930 . S
C339 O350 1.275 . S
C339 O351 1.256 . S
O340 Ho320 2.322 . S
O340 C322 1.259 . S
O341 Ho321 2.346 . S
O341 C322 1.268 . S
O342 Ho320 2.378 . S
O342 C323 1.215 . S
O343 Ho320 2.524 . S
O343 C323 1.289 . S
O344 Ho320 2.381 . S
O344 C330 1.275 . S
O345 Ho320 2.669 . S
O345 Ho321 2.305 . S
O345 C330 1.256 . S
O346 Ho321 2.322 . S
O346 C331 1.259 . S
O347 Ho320 2.346 . S
O347 C331 1.268 . S
O348 Ho321 2.378 . S
O348 C332 1.215 . S
O349 Ho321 2.524 . S
O349 C332 1.289 . S
O350 Ho321 2.381 . S
O350 C339 1.275 . S
O351 Ho320 2.305 . S
O351 Ho321 2.669 . S
O351 C339 1.256 . S
H352 C325 0.930 . S
H353 C326 0.931 . S
H354 C328 0.934 . S
H355 C329 0.930 . S
H356 C334 0.936 . S
H357 C335 0.931 . S
H358 C337 0.934 . S
H359 C338 0.930 . S
Ho360 C363 2.811 . S
Ho360 O380 2.322 . S
Ho360 O382 2.378 . S
Ho360 O383 2.524 . S
Ho360 O384 2.381 . S
Ho360 O385 2.669 . S
Ho360 O387 2.346 . S
Ho360 O391 2.305 . S
Ho361 C372 2.811 . S
Ho361 O381 2.346 . S
Ho361 O385 2.305 . S
Ho361 O386 2.322 . S
Ho361 O388 2.378 . S
Ho361 O389 2.524 . S
Ho361 O390 2.381 . S
Ho361 O391 2.669 . S
C362 O380 1.259 . S
C362 O381 1.268 . S
C363 Ho360 2.811 . S
C363 C364 1.488 . S
C363 O382 1.215 . S
C363 O383 1.289 . S
C364 C363 1.488 . S
C364 C365 1.348 . S
C364 C369 1.413 . S
C365 C364 1.348 . S
C365 C366 1.442 . S
C365 H392 0.930 . S
C366 C365 1.442 . S
C366 C367 1.381 . S
C366 H393 0.931 . S
C367 C366 1.381 . S
C367 C368 1.321 . S
C368 C367 1.321 . S
C368 C369 1.403 . S
C368 H394 0.934 . S
C369 C364 1.413 . S
C369 C368 1.403 . S
C369 H395 0.930 . S
C370 O384 1.275 . S
C370 O385 1.256 . S
C371 O386 1.259 . S
C371 O387 1.268 . S
C372 Ho361 2.811 . S
C372 C373 1.488 . S
C372 O388 1.215 . S
C372 O389 1.289 . S
C373 C372 1.488 . S
C373 C374 1.348 . S
C373 C378 1.413 . S
C374 C373 1.348 . S
C374 C375 1.442 . S
C374 H396 0.930 . S
C375 C374 1.442 . S
C375 C376 1.381 . S
C375 H397 0.931 . S
C376 C375 1.381 . S
C376 C377 1.321 . S
C377 C376 1.321 . S
C377 C378 1.403 . S
C377 H398 0.934 . S
C378 C373 1.413 . S
C378 C377 1.403 . S
C378 H399 0.930 . S
C379 O390 1.275 . S
C379 O391 1.256 . S
O380 Ho360 2.322 . S
O380 C362 1.259 . S
O381 Ho361 2.346 . S
O381 C362 1.268 . S
O382 Ho360 2.378 . S
O382 C363 1.215 . S
O383 Ho360 2.524 . S
O383 C363 1.289 . S
O384 Ho360 2.381 . S
O384 C370 1.275 . S
O385 Ho360 2.669 . S
O385 Ho361 2.305 . S
O385 C370 1.256 . S
O386 Ho361 2.322 . S
O386 C371 1.259 . S
O387 Ho360 2.346 . S
O387 C371 1.268 . S
O388 Ho361 2.378 . S
O388 C372 1.215 . S
O389 Ho361 2.524 . S
O389 C372 1.289 . S
O390 Ho361 2.381 . S
O390 C379 1.275 . S
O391 Ho360 2.305 . S
O391 Ho361 2.669 . S
O391 C379 1.256 . S
H392 C365 0.930 . S
H393 C366 0.931 . S
H394 C368 0.934 . S
H395 C369 0.930 . S
H396 C374 0.930 . S
H397 C375 0.931 . S
H398 C377 0.934 . S
H399 C378 0.930 . S
Ho400 C403 2.811 . S
Ho400 O420 2.322 . S
Ho400 O422 2.378 . S
Ho400 O423 2.524 . S
Ho400 O424 2.381 . S
Ho400 O425 2.669 . S
Ho400 O427 2.346 . S
Ho400 O431 2.305 . S
Ho401 C412 2.811 . S
Ho401 O421 2.346 . S
Ho401 O425 2.305 . S
Ho401 O426 2.322 . S
Ho401 O428 2.378 . S
Ho401 O429 2.524 . S
Ho401 O430 2.381 . S
Ho401 O431 2.669 . S
C402 O420 1.259 . S
C402 O421 1.268 . S
C403 Ho400 2.811 . S
C403 C404 1.488 . S
C403 O422 1.215 . S
C403 O423 1.289 . S
C404 C403 1.488 . S
C404 C405 1.348 . S
C404 C409 1.413 . S
C405 C404 1.348 . S
C405 C406 1.442 . S
C405 H432 0.930 . S
C406 C405 1.442 . S
C406 C407 1.381 . S
C406 H433 0.931 . S
C407 C406 1.381 . S
C407 C408 1.321 . S
C408 C407 1.321 . S
C408 C409 1.403 . S
C408 H434 0.934 . S
C409 C404 1.413 . S
C409 C408 1.403 . S
C409 H435 0.930 . S
C410 O424 1.275 . S
C410 O425 1.256 . S
C411 O426 1.259 . S
C411 O427 1.268 . S
C412 Ho401 2.811 . S
C412 C413 1.489 1_455 S
C412 O428 1.215 . S
C412 O429 1.289 . S
C413 C412 1.489 1_655 S
C413 C414 1.348 . S
C413 C418 1.412 . S
C414 C413 1.348 . S
C414 C415 1.442 . S
C414 H436 0.934 . S
C415 C414 1.442 . S
C415 C416 1.381 . S
C415 H437 0.931 . S
C416 C415 1.381 . S
C416 C417 1.321 . S
C417 C416 1.321 . S
C417 C418 1.403 . S
C417 H438 0.934 . S
C418 C413 1.412 . S
C418 C417 1.403 . S
C418 H439 0.930 . S
C419 O430 1.275 . S
C419 O431 1.256 . S
O420 Ho400 2.322 . S
O420 C402 1.259 . S
O421 Ho401 2.346 . S
O421 C402 1.268 . S
O422 Ho400 2.378 . S
O422 C403 1.215 . S
O423 Ho400 2.524 . S
O423 C403 1.289 . S
O424 Ho400 2.381 . S
O424 C410 1.275 . S
O425 Ho400 2.669 . S
O425 Ho401 2.305 . S
O425 C410 1.256 . S
O426 Ho401 2.322 . S
O426 C411 1.259 . S
O427 Ho400 2.346 . S
O427 C411 1.268 . S
O428 Ho401 2.378 . S
O428 C412 1.215 . S
O429 Ho401 2.524 . S
O429 C412 1.289 . S
O430 Ho401 2.381 . S
O430 C419 1.275 . S
O431 Ho400 2.305 . S
O431 Ho401 2.669 . S
O431 C419 1.256 . S
H432 C405 0.930 . S
H433 C406 0.931 . S
H434 C408 0.934 . S
H435 C409 0.930 . S
H436 C414 0.934 . S
H437 C415 0.931 . S
H438 C417 0.934 . S
H439 C418 0.930 . S
Ho440 C443 2.811 . S
Ho440 O460 2.322 . S
Ho440 O462 2.378 . S
Ho440 O463 2.524 . S
Ho440 O464 2.381 . S
Ho440 O465 2.669 . S
Ho440 O467 2.346 . S
Ho440 O471 2.305 . S
Ho441 C452 2.811 . S
Ho441 O461 2.346 . S
Ho441 O465 2.305 . S
Ho441 O466 2.322 . S
Ho441 O468 2.378 . S
Ho441 O469 2.524 . S
Ho441 O470 2.381 . S
Ho441 O471 2.669 . S
C442 O460 1.259 . S
C442 O461 1.268 . S
C443 Ho440 2.811 . S
C443 C444 1.488 . S
C443 O462 1.215 . S
C443 O463 1.289 . S
C444 C443 1.488 . S
C444 C445 1.348 . S
C444 C449 1.413 . S
C445 C444 1.348 . S
C445 C446 1.442 . S
C445 H472 0.930 . S
C446 C445 1.442 . S
C446 C447 1.381 . S
C446 H473 0.931 . S
C447 C446 1.381 . S
C447 C448 1.321 . S
C448 C447 1.321 . S
C448 C449 1.403 . S
C448 H474 0.934 . S
C449 C444 1.413 . S
C449 C448 1.403 . S
C449 H475 0.930 . S
C450 O464 1.275 . S
C450 O465 1.256 . S
C451 O466 1.259 . S
C451 O467 1.268 . S
C452 Ho441 2.811 . S
C452 C453 1.491 1_545 S
C452 O468 1.215 . S
C452 O469 1.289 . S
C453 C452 1.491 1_565 S
C453 C454 1.346 . S
C453 C458 1.412 . S
C454 C453 1.346 . S
C454 C455 1.442 . S
C454 H476 0.936 . S
C455 C454 1.442 . S
C455 C456 1.381 . S
C455 H477 0.931 . S
C456 C455 1.381 . S
C456 C457 1.321 . S
C457 C456 1.321 . S
C457 C458 1.403 . S
C457 H478 0.934 . S
C458 C453 1.412 . S
C458 C457 1.403 . S
C458 H479 0.930 . S
C459 O470 1.275 . S
C459 O471 1.256 . S
O460 Ho440 2.322 . S
O460 C442 1.259 . S
O461 Ho441 2.346 . S
O461 C442 1.268 . S
O462 Ho440 2.378 . S
O462 C443 1.215 . S
O463 Ho440 2.524 . S
O463 C443 1.289 . S
O464 Ho440 2.381 . S
O464 C450 1.275 . S
O465 Ho440 2.669 . S
O465 Ho441 2.305 . S
O465 C450 1.256 . S
O466 Ho441 2.322 . S
O466 C451 1.259 . S
O467 Ho440 2.346 . S
O467 C451 1.268 . S
O468 Ho441 2.378 . S
O468 C452 1.215 . S
O469 Ho441 2.524 . S
O469 C452 1.289 . S
O470 Ho441 2.381 . S
O470 C459 1.275 . S
O471 Ho440 2.305 . S
O471 Ho441 2.669 . S
O471 C459 1.256 . S
H472 C445 0.930 . S
H473 C446 0.931 . S
H474 C448 0.934 . S
H475 C449 0.930 . S
H476 C454 0.936 . S
H477 C455 0.931 . S
H478 C457 0.934 . S
H479 C458 0.930 . S
H480 C486 0.930 . S
H481 C490 0.930 . S
H482 C495 0.929 . S
H483 C493 0.929 . S
H484 C488 0.929 . S
H485 C494 0.929 . S
C486 H480 0.930 . S
C486 C487 1.367 . S
C486 C494 1.378 . S
C487 C486 1.367 . S
C487 C495 1.433 . S
C488 H484 0.929 . S
C488 C490 1.378 . S
C488 C492 1.350 . S
C489 C492 1.463 1_565 S
C489 C494 1.350 . S
C489 N497 1.427 . S
C490 H481 0.930 . S
C490 C488 1.378 . S
C490 C491 1.367 . S
C491 C490 1.367 . S
C491 C493 1.433 . S
C492 C488 1.350 . S
C492 C489 1.463 1_545 S
C492 N496 1.427 . S
C493 H483 0.929 . S
C493 C491 1.433 . S
C493 N496 1.384 . S
C494 H485 0.929 . S
C494 C486 1.378 . S
C494 C489 1.350 . S
C495 H482 0.929 . S
C495 C487 1.433 . S
C495 N497 1.384 . S
N496 C492 1.427 . S
N496 C493 1.384 . S
N497 C489 1.427 . S
N497 C495 1.384 . S
H498 C504 0.930 . S
H499 C508 0.930 . S
H500 C513 0.929 . S
H501 C511 0.929 . S
H502 C506 0.929 . S
H503 C512 0.929 . S
C504 H498 0.930 . S
C504 C505 1.367 . S
C504 C512 1.378 . S
C505 C504 1.367 . S
C505 C513 1.433 . S
C506 H502 0.929 . S
C506 C508 1.378 . S
C506 C510 1.350 . S
C507 C510 1.463 . S
C507 C512 1.350 . S
C507 N515 1.427 . S
C508 H499 0.930 . S
C508 C506 1.378 . S
C508 C509 1.367 . S
C509 C508 1.367 . S
C509 C511 1.433 . S
C510 C506 1.350 . S
C510 C507 1.463 . S
C510 N514 1.427 . S
C511 H501 0.929 . S
C511 C509 1.433 . S
C511 N514 1.384 . S
C512 H503 0.929 . S
C512 C504 1.378 . S
C512 C507 1.350 . S
C513 H500 0.929 . S
C513 C505 1.433 . S
C513 N515 1.384 . S
N514 C510 1.427 . S
N514 C511 1.384 . S
N515 C507 1.427 . S
N515 C513 1.384 . S
H516 C522 0.930 . S
H517 C526 0.930 . S
H518 C531 0.929 . S
H519 C529 0.929 . S
H520 C524 0.929 . S
H521 C530 0.929 . S
C522 H516 0.930 . S
C522 C523 1.367 . S
C522 C530 1.378 . S
C523 C522 1.367 . S
C523 C531 1.433 . S
C524 H520 0.929 . S
C524 C526 1.378 . S
C524 C528 1.350 . S
C525 C528 1.463 1_655 S
C525 C530 1.350 . S
C525 N533 1.427 . S
C526 H517 0.930 . S
C526 C524 1.378 . S
C526 C527 1.367 . S
C527 C526 1.367 . S
C527 C529 1.433 . S
C528 C524 1.350 . S
C528 C525 1.463 1_455 S
C528 N532 1.427 . S
C529 H519 0.929 . S
C529 C527 1.433 . S
C529 N532 1.384 . S
C530 H521 0.929 . S
C530 C522 1.378 . S
C530 C525 1.350 . S
C531 H518 0.929 . S
C531 C523 1.433 . S
C531 N533 1.384 . S
N532 C528 1.427 . S
N532 C529 1.384 . S
N533 C525 1.427 . S
N533 C531 1.384 . S
H534 C540 0.930 . S
H535 C544 0.930 . S
H536 C549 0.929 . S
H537 C547 0.929 . S
H538 C542 0.929 . S
H539 C548 0.929 . S
C540 H534 0.930 . S
C540 C541 1.367 . S
C540 C548 1.378 . S
C541 C540 1.367 . S
C541 C549 1.433 . S
C542 H538 0.929 . S
C542 C544 1.378 . S
C542 C546 1.350 . S
C543 C546 1.463 1_565 S
C543 C548 1.350 . S
C543 N551 1.427 . S
C544 H535 0.930 . S
C544 C542 1.378 . S
C544 C545 1.367 . S
C545 C544 1.367 . S
C545 C547 1.433 . S
C546 C542 1.350 . S
C546 C543 1.463 1_545 S
C546 N550 1.427 . S
C547 H537 0.929 . S
C547 C545 1.433 . S
C547 N550 1.384 . S
C548 H539 0.929 . S
C548 C540 1.378 . S
C548 C543 1.350 . S
C549 H536 0.929 . S
C549 C541 1.433 . S
C549 N551 1.384 . S
N550 C546 1.427 . S
N550 C547 1.384 . S
N551 C543 1.427 . S
N551 C549 1.384 . S
H552 C558 0.930 . S
H553 C562 0.930 . S
H554 C567 0.929 . S
H555 C565 0.929 . S
H556 C560 0.929 . S
H557 C566 0.929 . S
C558 H552 0.930 . S
C558 C559 1.367 . S
C558 C566 1.378 . S
C559 C558 1.367 . S
C559 C567 1.433 . S
C560 H556 0.929 . S
C560 C562 1.378 . S
C560 C564 1.350 . S
C561 C564 1.463 . S
C561 C566 1.350 . S
C561 N569 1.427 . S
C562 H553 0.930 . S
C562 C560 1.378 . S
C562 C563 1.367 . S
C563 C562 1.367 . S
C563 C565 1.433 . S
C564 C560 1.350 . S
C564 C561 1.463 . S
C564 N568 1.427 . S
C565 H555 0.929 . S
C565 C563 1.433 . S
C565 N568 1.384 . S
C566 H557 0.929 . S
C566 C558 1.378 . S
C566 C561 1.350 . S
C567 H554 0.929 . S
C567 C559 1.433 . S
C567 N569 1.384 . S
N568 C564 1.427 . S
N568 C565 1.384 . S
N569 C561 1.427 . S
N569 C567 1.384 . S
H570 C576 0.930 . S
H571 C580 0.930 . S
H572 C585 0.929 . S
H573 C583 0.929 . S
H574 C578 0.929 . S
H575 C584 0.929 . S
C576 H570 0.930 . S
C576 C577 1.367 . S
C576 C584 1.378 . S
C577 C576 1.367 . S
C577 C585 1.433 . S
C578 H574 0.929 . S
C578 C580 1.378 . S
C578 C582 1.350 . S
C579 C582 1.463 1_655 S
C579 C584 1.350 . S
C579 N587 1.427 . S
C580 H571 0.930 . S
C580 C578 1.378 . S
C580 C581 1.367 . S
C581 C580 1.367 . S
C581 C583 1.433 . S
C582 C578 1.350 . S
C582 C579 1.463 1_455 S
C582 N586 1.427 . S
C583 H573 0.929 . S
C583 C581 1.433 . S
C583 N586 1.384 . S
C584 H575 0.929 . S
C584 C576 1.378 . S
C584 C579 1.350 . S
C585 H572 0.929 . S
C585 C577 1.433 . S
C585 N587 1.384 . S
N586 C582 1.427 . S
N586 C583 1.384 . S
N587 C579 1.427 . S
N587 C585 1.384 . S
H588 C594 0.930 . S
H589 C598 0.930 . S
H590 C603 0.929 . S
H591 C601 0.929 . S
H592 C596 0.929 . S
H593 C602 0.929 . S
C594 H588 0.930 . S
C594 C595 1.367 . S
C594 C602 1.378 . S
C595 C594 1.367 . S
C595 C603 1.433 . S
C596 H592 0.929 . S
C596 C598 1.378 . S
C596 C600 1.350 . S
C597 C600 1.463 1_455 S
C597 C602 1.350 . S
C597 N605 1.427 . S
C598 H589 0.930 . S
C598 C596 1.378 . S
C598 C599 1.367 . S
C599 C598 1.367 . S
C599 C601 1.433 . S
C600 C596 1.350 . S
C600 C597 1.463 1_655 S
C600 N604 1.427 . S
C601 H591 0.929 . S
C601 C599 1.433 . S
C601 N604 1.384 . S
C602 H593 0.929 . S
C602 C594 1.378 . S
C602 C597 1.350 . S
C603 H590 0.929 . S
C603 C595 1.433 . S
C603 N605 1.384 . S
N604 C600 1.427 . S
N604 C601 1.384 . S
N605 C597 1.427 . S
N605 C603 1.384 . S
H606 C612 0.930 . S
H607 C616 0.930 . S
H608 C621 0.929 . S
H609 C619 0.929 . S
H610 C614 0.929 . S
H611 C620 0.929 1_545 S
C612 H606 0.930 . S
C612 C613 1.367 . S
C612 C620 1.378 . S
C613 C612 1.367 . S
C613 C621 1.433 . S
C614 H610 0.929 . S
C614 C616 1.378 . S
C614 C618 1.350 . S
C615 C618 1.463 1_565 S
C615 C620 1.350 . S
C615 N623 1.427 . S
C616 H607 0.930 . S
C616 C614 1.378 . S
C616 C617 1.367 . S
C617 C616 1.367 . S
C617 C619 1.433 . S
C618 C614 1.350 . S
C618 C615 1.463 1_545 S
C618 N622 1.427 . S
C619 H609 0.929 . S
C619 C617 1.433 . S
C619 N622 1.384 . S
C620 H611 0.929 1_565 S
C620 C612 1.378 . S
C620 C615 1.350 . S
C621 H608 0.929 . S
C621 C613 1.433 . S
C621 N623 1.384 . S
N622 C618 1.427 . S
N622 C619 1.384 . S
N623 C615 1.427 . S
N623 C621 1.384 . S
H624 C630 0.930 . S
H625 C634 0.930 . S
H626 C639 0.929 . S
H627 C637 0.929 . S
H628 C632 0.929 . S
H629 C638 0.929 . S
C630 H624 0.930 . S
C630 C631 1.367 . S
C630 C638 1.378 . S
C631 C630 1.367 . S
C631 C639 1.433 . S
C632 H628 0.929 . S
C632 C634 1.378 . S
C632 C636 1.350 . S
C633 C636 1.463 . S
C633 C638 1.350 . S
C633 N641 1.427 . S
C634 H625 0.930 . S
C634 C632 1.378 . S
C634 C635 1.367 . S
C635 C634 1.367 . S
C635 C637 1.433 . S
C636 C632 1.350 . S
C636 C633 1.463 . S
C636 N640 1.427 . S
C637 H627 0.929 . S
C637 C635 1.433 . S
C637 N640 1.384 . S
C638 H629 0.929 . S
C638 C630 1.378 . S
C638 C633 1.350 . S
C639 H626 0.929 . S
C639 C631 1.433 . S
C639 N641 1.384 . S
N640 C636 1.427 . S
N640 C637 1.384 . S
N641 C633 1.427 . S
N641 C639 1.384 . S
H642 C648 0.930 . S
H643 C652 0.930 . S
H644 C657 0.929 . S
H645 C655 0.929 . S
H646 C650 0.929 . S
H647 C656 0.929 . S
C648 H642 0.930 . S
C648 C649 1.367 . S
C648 C656 1.378 . S
C649 C648 1.367 . S
C649 C657 1.433 . S
C650 H646 0.929 . S
C650 C652 1.378 . S
C650 C654 1.350 . S
C651 C654 1.463 1_455 S
C651 C656 1.350 . S
C651 N659 1.427 . S
C652 H643 0.930 . S
C652 C650 1.378 . S
C652 C653 1.367 . S
C653 C652 1.367 . S
C653 C655 1.433 . S
C654 C650 1.350 . S
C654 C651 1.463 1_655 S
C654 N658 1.427 . S
C655 H645 0.929 . S
C655 C653 1.433 . S
C655 N658 1.384 . S
C656 H647 0.929 . S
C656 C648 1.378 . S
C656 C651 1.350 . S
C657 H644 0.929 . S
C657 C649 1.433 . S
C657 N659 1.384 . S
N658 C654 1.427 . S
N658 C655 1.384 . S
N659 C651 1.427 . S
N659 C657 1.384 . S
H660 C666 0.930 . S
H661 C670 0.930 . S
H662 C675 0.929 . S
H663 C673 0.929 . S
H664 C668 0.929 . S
H665 C674 0.929 . S
C666 H660 0.930 . S
C666 C667 1.367 . S
C666 C674 1.378 . S
C667 C666 1.367 . S
C667 C675 1.433 . S
C668 H664 0.929 . S
C668 C670 1.378 . S
C668 C672 1.350 . S
C669 C672 1.463 1_545 S
C669 C674 1.350 . S
C669 N677 1.427 . S
C670 H661 0.930 . S
C670 C668 1.378 . S
C670 C671 1.367 . S
C671 C670 1.367 . S
C671 C673 1.433 . S
C672 C668 1.350 . S
C672 C669 1.463 1_565 S
C672 N676 1.427 . S
C673 H663 0.929 . S
C673 C671 1.433 . S
C673 N676 1.384 . S
C674 H665 0.929 . S
C674 C666 1.378 . S
C674 C669 1.350 . S
C675 H662 0.929 . S
C675 C667 1.433 . S
C675 N677 1.384 . S
N676 C672 1.427 . S
N676 C673 1.384 . S
N677 C669 1.427 . S
N677 C675 1.384 . S
H678 C684 0.930 . S
H679 C688 0.930 . S
H680 C693 0.929 . S
H681 C691 0.929 . S
H682 C686 0.929 . S
H683 C692 0.929 . S
C684 H678 0.930 . S
C684 C685 1.367 . S
C684 C692 1.378 . S
C685 C684 1.367 . S
C685 C693 1.433 . S
C686 H682 0.929 . S
C686 C688 1.378 . S
C686 C690 1.350 . S
C687 C690 1.463 . S
C687 C692 1.350 . S
C687 N695 1.427 . S
C688 H679 0.930 . S
C688 C686 1.378 . S
C688 C689 1.367 . S
C689 C688 1.367 . S
C689 C691 1.433 . S
C690 C686 1.350 . S
C690 C687 1.463 . S
C690 N694 1.427 . S
C691 H681 0.929 . S
C691 C689 1.433 . S
C691 N694 1.384 . S
C692 H683 0.929 . S
C692 C684 1.378 . S
C692 C687 1.350 . S
C693 H680 0.929 . S
C693 C685 1.433 . S
C693 N695 1.384 . S
N694 C690 1.427 . S
N694 C691 1.384 . S
N695 C687 1.427 . S
N695 C693 1.384 . S
H696 C702 0.930 . S
H697 C706 0.930 . S
H698 C711 0.929 . S
H699 C709 0.929 . S
H700 C704 0.929 . S
H701 C710 0.929 . S
C702 H696 0.930 . S
C702 C703 1.367 . S
C702 C710 1.378 . S
C703 C702 1.367 . S
C703 C711 1.433 . S
C704 H700 0.929 . S
C704 C706 1.378 . S
C704 C708 1.350 . S
C705 C708 1.463 . S
C705 C710 1.350 . S
C705 N713 1.427 . S
C706 H697 0.930 . S
C706 C704 1.378 . S
C706 C707 1.367 . S
C707 C706 1.367 . S
C707 C709 1.433 . S
C708 C704 1.350 . S
C708 C705 1.463 . S
C708 N712 1.427 . S
C709 H699 0.929 . S
C709 C707 1.433 . S
C709 N712 1.384 . S
C710 H701 0.929 . S
C710 C702 1.378 . S
C710 C705 1.350 . S
C711 H698 0.929 . S
C711 C703 1.433 . S
C711 N713 1.384 . S
N712 C708 1.427 . S
N712 C709 1.384 . S
N713 C705 1.427 . S
N713 C711 1.384 . S
H714 C720 0.930 . S
H715 C724 0.930 . S
H716 C729 0.929 . S
H717 C727 0.929 . S
H718 C722 0.929 . S
H719 C728 0.929 . S
C720 H714 0.930 . S
C720 C721 1.367 . S
C720 C728 1.378 . S
C721 C720 1.367 . S
C721 C729 1.433 . S
C722 H718 0.929 . S
C722 C724 1.378 . S
C722 C726 1.350 . S
C723 C726 1.463 . S
C723 C728 1.350 . S
C723 N731 1.427 . S
C724 H715 0.930 . S
C724 C722 1.378 . S
C724 C725 1.367 . S
C725 C724 1.367 . S
C725 C727 1.433 . S
C726 C722 1.350 . S
C726 C723 1.463 . S
C726 N730 1.427 . S
C727 H717 0.929 . S
C727 C725 1.433 . S
C727 N730 1.384 . S
C728 H719 0.929 . S
C728 C720 1.378 . S
C728 C723 1.350 . S
C729 H716 0.929 . S
C729 C721 1.433 . S
C729 N731 1.384 . S
N730 C726 1.427 . S
N730 C727 1.384 . S
N731 C723 1.427 . S
N731 C729 1.384 . S
H732 C738 0.930 . S
H733 C742 0.930 . S
H734 C747 0.929 . S
H735 C745 0.929 . S
H736 C740 0.929 . S
H737 C746 0.929 . S
C738 H732 0.930 . S
C738 C739 1.367 . S
C738 C746 1.378 . S
C739 C738 1.367 . S
C739 C747 1.433 . S
C740 H736 0.929 . S
C740 C742 1.378 . S
C740 C744 1.350 . S
C741 C744 1.463 . S
C741 C746 1.350 . S
C741 N749 1.427 . S
C742 H733 0.930 . S
C742 C740 1.378 . S
C742 C743 1.367 . S
C743 C742 1.367 . S
C743 C745 1.433 . S
C744 C740 1.350 . S
C744 C741 1.463 . S
C744 N748 1.427 . S
C745 H735 0.929 . S
C745 C743 1.433 . S
C745 N748 1.384 . S
C746 H737 0.929 . S
C746 C738 1.378 . S
C746 C741 1.350 . S
C747 H734 0.929 . S
C747 C739 1.433 . S
C747 N749 1.384 . S
N748 C744 1.427 . S
N748 C745 1.384 . S
N749 C741 1.427 . S
N749 C747 1.384 . S
H750 C756 0.930 . S
H751 C760 0.930 . S
H752 C765 0.929 . S
H753 C763 0.929 . S
H754 C758 0.929 . S
H755 C764 0.929 . S
C756 H750 0.930 . S
C756 C757 1.367 . S
C756 C764 1.378 . S
C757 C756 1.367 . S
C757 C765 1.433 . S
C758 H754 0.929 . S
C758 C760 1.378 . S
C758 C762 1.350 . S
C759 C762 1.463 . S
C759 C764 1.350 . S
C759 N767 1.427 . S
C760 H751 0.930 . S
C760 C758 1.378 . S
C760 C761 1.367 . S
C761 C760 1.367 . S
C761 C763 1.433 . S
C762 C758 1.350 . S
C762 C759 1.463 . S
C762 N766 1.427 . S
C763 H753 0.929 . S
C763 C761 1.433 . S
C763 N766 1.384 . S
C764 H755 0.929 . S
C764 C756 1.378 . S
C764 C759 1.350 . S
C765 H752 0.929 . S
C765 C757 1.433 . S
C765 N767 1.384 . S
N766 C762 1.427 . S
N766 C763 1.384 . S
N767 C759 1.427 . S
N767 C765 1.384 . S
H768 C774 0.930 . S
H769 C778 0.930 . S
H770 C783 0.929 . S
H771 C781 0.929 . S
H772 C776 0.929 . S
H773 C782 0.929 . S
C774 H768 0.930 . S
C774 C775 1.367 . S
C774 C782 1.378 . S
C775 C774 1.367 . S
C775 C783 1.433 . S
C776 H772 0.929 . S
C776 C778 1.378 . S
C776 C780 1.350 . S
C777 C780 1.463 . S
C777 C782 1.350 . S
C777 N785 1.427 . S
C778 H769 0.930 . S
C778 C776 1.378 . S
C778 C779 1.367 . S
C779 C778 1.367 . S
C779 C781 1.433 . S
C780 C776 1.350 . S
C780 C777 1.463 . S
C780 N784 1.427 . S
C781 H771 0.929 . S
C781 C779 1.433 . S
C781 N784 1.384 . S
C782 H773 0.929 . S
C782 C774 1.378 . S
C782 C777 1.350 . S
C783 H770 0.929 . S
C783 C775 1.433 . S
C783 N785 1.384 . S
N784 C780 1.427 . S
N784 C781 1.384 . S
N785 C777 1.427 . S
N785 C783 1.384 . S
H786 C792 0.930 . S
H787 C796 0.930 . S
H788 C801 0.929 . S
H789 C799 0.929 . S
H790 C794 0.929 . S
H791 C800 0.929 . S
C792 H786 0.930 . S
C792 C793 1.367 . S
C792 C800 1.378 . S
C793 C792 1.367 . S
C793 C801 1.433 . S
C794 H790 0.929 . S
C794 C796 1.378 . S
C794 C798 1.350 . S
C795 C798 1.463 . S
C795 C800 1.350 . S
C795 N803 1.427 . S
C796 H787 0.930 . S
C796 C794 1.378 . S
C796 C797 1.367 . S
C797 C796 1.367 . S
C797 C799 1.433 . S
C798 C794 1.350 . S
C798 C795 1.463 . S
C798 N802 1.427 . S
C799 H789 0.929 . S
C799 C797 1.433 . S
C799 N802 1.384 . S
C800 H791 0.929 . S
C800 C792 1.378 . S
C800 C795 1.350 . S
C801 H788 0.929 . S
C801 C793 1.433 . S
C801 N803 1.384 . S
N802 C798 1.427 . S
N802 C799 1.384 . S
N803 C795 1.427 . S
N803 C801 1.384 . S
H804 C810 0.930 . S
H805 C814 0.930 . S
H806 C819 0.929 . S
H807 C817 0.929 . S
H808 C812 0.929 . S
H809 C818 0.929 . S
C810 H804 0.930 . S
C810 C811 1.367 . S
C810 C818 1.378 . S
C811 C810 1.367 . S
C811 C819 1.433 . S
C812 H808 0.929 . S
C812 C814 1.378 . S
C812 C816 1.350 . S
C813 C816 1.463 . S
C813 C818 1.350 . S
C813 N821 1.427 . S
C814 H805 0.930 . S
C814 C812 1.378 . S
C814 C815 1.367 . S
C815 C814 1.367 . S
C815 C817 1.433 . S
C816 C812 1.350 . S
C816 C813 1.463 . S
C816 N820 1.427 . S
C817 H807 0.929 . S
C817 C815 1.433 . S
C817 N820 1.384 . S
C818 H809 0.929 . S
C818 C810 1.378 . S
C818 C813 1.350 . S
C819 H806 0.929 . S
C819 C811 1.433 . S
C819 N821 1.384 . S
N820 C816 1.427 . S
N820 C817 1.384 . S
N821 C813 1.427 . S
N821 C819 1.384 . S
H822 C828 0.930 . S
H823 C832 0.930 . S
H824 C837 0.929 . S
H825 C835 0.929 . S
H826 C830 0.929 . S
H827 C836 0.929 . S
C828 H822 0.930 . S
C828 C829 1.367 . S
C828 C836 1.378 . S
C829 C828 1.367 . S
C829 C837 1.433 . S
C830 H826 0.929 . S
C830 C832 1.378 . S
C830 C834 1.350 . S
C831 C834 1.463 . S
C831 C836 1.350 . S
C831 N839 1.427 . S
C832 H823 0.930 . S
C832 C830 1.378 . S
C832 C833 1.367 . S
C833 C832 1.367 . S
C833 C835 1.433 . S
C834 C830 1.350 . S
C834 C831 1.463 . S
C834 N838 1.427 . S
C835 H825 0.929 . S
C835 C833 1.433 . S
C835 N838 1.384 . S
C836 H827 0.929 . S
C836 C828 1.378 . S
C836 C831 1.350 . S
C837 H824 0.929 . S
C837 C829 1.433 . S
C837 N839 1.384 . S
N838 C834 1.427 . S
N838 C835 1.384 . S
N839 C831 1.427 . S
N839 C837 1.384 . S
H840 C846 0.930 . S
H841 C850 0.930 . S
H842 C855 0.929 . S
H843 C853 0.929 . S
H844 C848 0.929 . S
H845 C854 0.929 . S
C846 H840 0.930 . S
C846 C847 1.367 . S
C846 C854 1.378 . S
C847 C846 1.367 . S
C847 C855 1.433 . S
C848 H844 0.929 . S
C848 C850 1.378 . S
C848 C852 1.350 . S
C849 C852 1.463 . S
C849 C854 1.350 . S
C849 N857 1.427 . S
C850 H841 0.930 . S
C850 C848 1.378 . S
C850 C851 1.367 . S
C851 C850 1.367 . S
C851 C853 1.433 . S
C852 C848 1.350 . S
C852 C849 1.463 . S
C852 N856 1.427 . S
C853 H843 0.929 . S
C853 C851 1.433 . S
C853 N856 1.384 . S
C854 H845 0.929 . S
C854 C846 1.378 . S
C854 C849 1.350 . S
C855 H842 0.929 . S
C855 C847 1.433 . S
C855 N857 1.384 . S
N856 C852 1.427 . S
N856 C853 1.384 . S
N857 C849 1.427 . S
N857 C855 1.384 . S
H858 C864 0.930 . S
H859 C868 0.930 . S
H860 C873 0.929 . S
H861 C871 0.929 . S
H862 C866 0.929 . S
H863 C872 0.929 . S
C864 H858 0.930 . S
C864 C865 1.367 . S
C864 C872 1.378 . S
C865 C864 1.367 . S
C865 C873 1.433 . S
C866 H862 0.929 . S
C866 C868 1.378 . S
C866 C870 1.350 . S
C867 C870 1.463 . S
C867 C872 1.350 . S
C867 N875 1.427 . S
C868 H859 0.930 . S
C868 C866 1.378 . S
C868 C869 1.367 . S
C869 C868 1.367 . S
C869 C871 1.433 . S
C870 C866 1.350 . S
C870 C867 1.463 . S
C870 N874 1.427 . S
C871 H861 0.929 . S
C871 C869 1.433 . S
C871 N874 1.384 . S
C872 H863 0.929 . S
C872 C864 1.378 . S
C872 C867 1.350 . S
C873 H860 0.929 . S
C873 C865 1.433 . S
C873 N875 1.384 . S
N874 C870 1.427 . S
N874 C871 1.384 . S
N875 C867 1.427 . S
N875 C873 1.384 . S
H876 C882 0.930 . S
H877 C886 0.930 . S
H878 C891 0.929 . S
H879 C889 0.929 . S
H880 C884 0.929 . S
H881 C890 0.929 . S
C882 H876 0.930 . S
C882 C883 1.367 . S
C882 C890 1.378 . S
C883 C882 1.367 . S
C883 C891 1.433 . S
C884 H880 0.929 . S
C884 C886 1.378 . S
C884 C888 1.350 . S
C885 C888 1.463 . S
C885 C890 1.350 . S
C885 N893 1.427 . S
C886 H877 0.930 . S
C886 C884 1.378 . S
C886 C887 1.367 . S
C887 C886 1.367 . S
C887 C889 1.433 . S
C888 C884 1.350 . S
C888 C885 1.463 . S
C888 N892 1.427 . S
C889 H879 0.929 . S
C889 C887 1.433 . S
C889 N892 1.384 . S
C890 H881 0.929 . S
C890 C882 1.378 . S
C890 C885 1.350 . S
C891 H878 0.929 . S
C891 C883 1.433 . S
C891 N893 1.384 . S
N892 C888 1.427 . S
N892 C889 1.384 . S
N893 C885 1.427 . S
N893 C891 1.384 . S
H894 C900 0.930 . S
H895 C904 0.930 . S
H896 C909 0.929 . S
H897 C907 0.929 . S
H898 C902 0.929 . S
H899 C908 0.929 . S
C900 H894 0.930 . S
C900 C901 1.367 . S
C900 C908 1.378 . S
C901 C900 1.367 . S
C901 C909 1.433 . S
C902 H898 0.929 . S
C902 C904 1.378 . S
C902 C906 1.350 . S
C903 C906 1.463 . S
C903 C908 1.350 . S
C903 N911 1.427 . S
C904 H895 0.930 . S
C904 C902 1.378 . S
C904 C905 1.367 . S
C905 C904 1.367 . S
C905 C907 1.433 . S
C906 C902 1.350 . S
C906 C903 1.463 . S
C906 N910 1.427 . S
C907 H897 0.929 . S
C907 C905 1.433 . S
C907 N910 1.384 . S
C908 H899 0.929 . S
C908 C900 1.378 . S
C908 C903 1.350 . S
C909 H896 0.929 . S
C909 C901 1.433 . S
C909 N911 1.384 . S
N910 C906 1.427 . S
N910 C907 1.384 . S
N911 C903 1.427 . S
N911 C909 1.384 . S
H912 C918 0.930 . S
H913 C922 0.930 . S
H914 C927 0.929 . S
H915 C925 0.929 . S
H916 C920 0.929 . S
H917 C926 0.929 . S
C918 H912 0.930 . S
C918 C919 1.367 . S
C918 C926 1.378 . S
C919 C918 1.367 . S
C919 C927 1.433 . S
C920 H916 0.929 . S
C920 C922 1.378 . S
C920 C924 1.350 . S
C921 C924 1.463 . S
C921 C926 1.350 . S
C921 N929 1.427 . S
C922 H913 0.930 . S
C922 C920 1.378 . S
C922 C923 1.367 . S
C923 C922 1.367 . S
C923 C925 1.433 . S
C924 C920 1.350 . S
C924 C921 1.463 . S
C924 N928 1.427 . S
C925 H915 0.929 . S
C925 C923 1.433 . S
C925 N928 1.384 . S
C926 H917 0.929 . S
C926 C918 1.378 . S
C926 C921 1.350 . S
C927 H914 0.929 . S
C927 C919 1.433 . S
C927 N929 1.384 . S
N928 C924 1.427 . S
N928 C925 1.384 . S
N929 C921 1.427 . S
N929 C927 1.384 . S
H930 C936 0.930 . S
H931 C940 0.930 . S
H932 C945 0.929 . S
H933 C943 0.929 . S
H934 C938 0.929 . S
H935 C944 0.929 . S
C936 H930 0.930 . S
C936 C937 1.367 . S
C936 C944 1.378 . S
C937 C936 1.367 . S
C937 C945 1.433 . S
C938 H934 0.929 . S
C938 C940 1.378 . S
C938 C942 1.350 . S
C939 C942 1.463 . S
C939 C944 1.350 . S
C939 N947 1.427 . S
C940 H931 0.930 . S
C940 C938 1.378 . S
C940 C941 1.367 . S
C941 C940 1.367 . S
C941 C943 1.433 . S
C942 C938 1.350 . S
C942 C939 1.463 . S
C942 N946 1.427 . S
C943 H933 0.929 . S
C943 C941 1.433 . S
C943 N946 1.384 . S
C944 H935 0.929 . S
C944 C936 1.378 . S
C944 C939 1.350 . S
C945 H932 0.929 . S
C945 C937 1.433 . S
C945 N947 1.384 . S
N946 C942 1.427 . S
N946 C943 1.384 . S
N947 C939 1.427 . S
N947 C945 1.384 . S
H948 C954 0.930 . S
H949 C958 0.930 . S
H950 C963 0.929 . S
H951 C961 0.929 . S
H952 C956 0.929 . S
H953 C962 0.929 . S
C954 H948 0.930 . S
C954 C955 1.367 . S
C954 C962 1.378 . S
C955 C954 1.367 . S
C955 C963 1.433 . S
C956 H952 0.929 . S
C956 C958 1.378 . S
C956 C960 1.350 . S
C957 C960 1.463 . S
C957 C962 1.350 . S
C957 N965 1.427 . S
C958 H949 0.930 . S
C958 C956 1.378 . S
C958 C959 1.367 . S
C959 C958 1.367 . S
C959 C961 1.433 . S
C960 C956 1.350 . S
C960 C957 1.463 . S
C960 N964 1.427 . S
C961 H951 0.929 . S
C961 C959 1.433 . S
C961 N964 1.384 . S
C962 H953 0.929 . S
C962 C954 1.378 . S
C962 C957 1.350 . S
C963 H950 0.929 . S
C963 C955 1.433 . S
C963 N965 1.384 . S
N964 C960 1.427 . S
N964 C961 1.384 . S
N965 C957 1.427 . S
N965 C963 1.384 . S
H966 C972 0.930 . S
H967 C976 0.930 . S
H968 C981 0.929 . S
H969 C979 0.929 . S
H970 C974 0.929 . S
H971 C980 0.929 . S
C972 H966 0.930 . S
C972 C973 1.367 . S
C972 C980 1.378 . S
C973 C972 1.367 . S
C973 C981 1.433 . S
C974 H970 0.929 . S
C974 C976 1.378 . S
C974 C978 1.350 . S
C975 C978 1.463 . S
C975 C980 1.350 . S
C975 N983 1.427 . S
C976 H967 0.930 . S
C976 C974 1.378 . S
C976 C977 1.367 . S
C977 C976 1.367 . S
C977 C979 1.433 . S
C978 C974 1.350 . S
C978 C975 1.463 . S
C978 N982 1.427 . S
C979 H969 0.929 . S
C979 C977 1.433 . S
C979 N982 1.384 . S
C980 H971 0.929 . S
C980 C972 1.378 . S
C980 C975 1.350 . S
C981 H968 0.929 . S
C981 C973 1.433 . S
C981 N983 1.384 . S
N982 C978 1.427 . S
N982 C979 1.384 . S
N983 C975 1.427 . S
N983 C981 1.384 . S
H984 C990 0.930 . S
H985 C994 0.930 . S
H986 C999 0.929 . S
H987 C997 0.929 . S
H988 C992 0.929 . S
H989 C998 0.929 . S
C990 H984 0.930 . S
C990 C991 1.367 . S
C990 C998 1.378 . S
C991 C990 1.367 . S
C991 C999 1.433 . S
C992 H988 0.929 . S
C992 C994 1.378 . S
C992 C996 1.350 . S
C993 C996 1.463 . S
C993 C998 1.350 . S
C993 N1001 1.427 . S
C994 H985 0.930 . S
C994 C992 1.378 . S
C994 C995 1.367 . S
C995 C994 1.367 . S
C995 C997 1.433 . S
C996 C992 1.350 . S
C996 C993 1.463 . S
C996 N1000 1.427 . S
C997 H987 0.929 . S
C997 C995 1.433 . S
C997 N1000 1.384 . S
C998 H989 0.929 . S
C998 C990 1.378 . S
C998 C993 1.350 . S
C999 H986 0.929 . S
C999 C991 1.433 . S
C999 N1001 1.384 . S
N1000 C996 1.427 . S
N1000 C997 1.384 . S
N1001 C993 1.427 . S
N1001 C999 1.384 . S
H1002 C1008 0.930 . S
H1003 C1012 0.930 . S
H1004 C1017 0.929 . S
H1005 C1015 0.929 . S
H1006 C1010 0.929 . S
H1007 C1016 0.929 . S
C1008 H1002 0.930 . S
C1008 C1009 1.367 . S
C1008 C1016 1.378 . S
C1009 C1008 1.367 . S
C1009 C1017 1.433 . S
C1010 H1006 0.929 . S
C1010 C1012 1.378 . S
C1010 C1014 1.350 . S
C1011 C1014 1.463 . S
C1011 C1016 1.350 . S
C1011 N1019 1.427 . S
C1012 H1003 0.930 . S
C1012 C1010 1.378 . S
C1012 C1013 1.367 . S
C1013 C1012 1.367 . S
C1013 C1015 1.433 . S
C1014 C1010 1.350 . S
C1014 C1011 1.463 . S
C1014 N1018 1.427 . S
C1015 H1005 0.929 . S
C1015 C1013 1.433 . S
C1015 N1018 1.384 . S
C1016 H1007 0.929 . S
C1016 C1008 1.378 . S
C1016 C1011 1.350 . S
C1017 H1004 0.929 . S
C1017 C1009 1.433 . S
C1017 N1019 1.384 . S
N1018 C1014 1.427 . S
N1018 C1015 1.384 . S
N1019 C1011 1.427 . S
N1019 C1017 1.384 . S
H1020 C1026 0.930 . S
H1021 C1030 0.930 . S
H1022 C1035 0.929 . S
H1023 C1033 0.929 . S
H1024 C1028 0.929 . S
H1025 C1034 0.929 . S
C1026 H1020 0.930 . S
C1026 C1027 1.367 . S
C1026 C1034 1.378 . S
C1027 C1026 1.367 . S
C1027 C1035 1.433 . S
C1028 H1024 0.929 . S
C1028 C1030 1.378 . S
C1028 C1032 1.350 . S
C1029 C1032 1.463 1_556 S
C1029 C1034 1.350 . S
C1029 N1037 1.427 1_556 S
C1030 H1021 0.930 . S
C1030 C1028 1.378 . S
C1030 C1031 1.367 . S
C1031 C1030 1.367 . S
C1031 C1033 1.433 . S
C1032 C1028 1.350 . S
C1032 C1029 1.463 1_554 S
C1032 N1036 1.427 1_554 S
C1033 H1023 0.929 . S
C1033 C1031 1.433 . S
C1033 N1036 1.384 1_554 S
C1034 H1025 0.929 . S
C1034 C1026 1.378 . S
C1034 C1029 1.350 . S
C1035 H1022 0.929 . S
C1035 C1027 1.433 . S
C1035 N1037 1.384 1_556 S
N1036 C1032 1.427 1_556 S
N1036 C1033 1.384 1_556 S
N1037 C1029 1.427 1_554 S
N1037 C1035 1.384 1_554 S
H1038 C1044 0.930 . S
H1039 C1048 0.930 . S
H1040 C1053 0.929 . S
H1041 C1051 0.929 . S
H1042 C1046 0.929 . S
H1043 C1052 0.929 . S
C1044 H1038 0.930 . S
C1044 C1045 1.367 . S
C1044 C1052 1.378 . S
C1045 C1044 1.367 . S
C1045 C1053 1.433 . S
C1046 H1042 0.929 . S
C1046 C1048 1.378 . S
C1046 C1050 1.350 . S
C1047 C1050 1.463 1_455 S
C1047 C1052 1.350 . S
C1047 N1055 1.427 . S
C1048 H1039 0.930 . S
C1048 C1046 1.378 . S
C1048 C1049 1.367 . S
C1049 C1048 1.367 . S
C1049 C1051 1.433 . S
C1050 C1046 1.350 . S
C1050 C1047 1.463 1_655 S
C1050 N1054 1.427 . S
C1051 H1041 0.929 . S
C1051 C1049 1.433 . S
C1051 N1054 1.384 . S
C1052 H1043 0.929 . S
C1052 C1044 1.378 . S
C1052 C1047 1.350 . S
C1053 H1040 0.929 . S
C1053 C1045 1.433 . S
C1053 N1055 1.384 . S
N1054 C1050 1.427 . S
N1054 C1051 1.384 . S
N1055 C1047 1.427 . S
N1055 C1053 1.384 . S
H1056 C1062 0.930 . S
H1057 C1066 0.930 . S
H1058 C1071 0.929 . S
H1059 C1069 0.929 . S
H1060 C1064 0.929 1_565 S
H1061 C1070 0.929 1_545 S
C1062 H1056 0.930 . S
C1062 C1063 1.367 . S
C1062 C1070 1.378 . S
C1063 C1062 1.367 . S
C1063 C1071 1.433 . S
C1064 H1060 0.929 1_545 S
C1064 C1066 1.378 . S
C1064 C1068 1.350 . S
C1065 C1068 1.463 1_564 S
C1065 C1070 1.350 . S
C1065 N1073 1.428 . S
C1066 H1057 0.930 . S
C1066 C1064 1.378 . S
C1066 C1067 1.367 . S
C1067 C1066 1.367 . S
C1067 C1069 1.433 . S
C1068 C1064 1.350 . S
C1068 C1065 1.463 1_546 S
C1068 N1072 1.428 . S
C1069 H1059 0.929 . S
C1069 C1067 1.433 . S
C1069 N1072 1.384 . S
C1070 H1061 0.929 1_565 S
C1070 C1062 1.378 . S
C1070 C1065 1.350 . S
C1071 H1058 0.929 . S
C1071 C1063 1.433 . S
C1071 N1073 1.384 . S
N1072 C1068 1.428 . S
N1072 C1069 1.384 . S
N1073 C1065 1.428 . S
N1073 C1071 1.384 . S
H1074 C1080 0.930 . S
H1075 C1084 0.930 . S
H1076 C1089 0.929 . S
H1077 C1087 0.929 . S
H1078 C1082 0.929 . S
H1079 C1088 0.929 . S
C1080 H1074 0.930 . S
C1080 C1081 1.367 . S
C1080 C1088 1.378 . S
C1081 C1080 1.367 . S
C1081 C1089 1.433 . S
C1082 H1078 0.929 . S
C1082 C1084 1.378 . S
C1082 C1086 1.350 . S
C1083 C1086 1.463 . S
C1083 C1088 1.350 . S
C1083 N1091 1.427 . S
C1084 H1075 0.930 . S
C1084 C1082 1.378 . S
C1084 C1085 1.367 . S
C1085 C1084 1.367 . S
C1085 C1087 1.433 . S
C1086 C1082 1.350 . S
C1086 C1083 1.463 . S
C1086 N1090 1.427 . S
C1087 H1077 0.929 . S
C1087 C1085 1.433 . S
C1087 N1090 1.384 . S
C1088 H1079 0.929 . S
C1088 C1080 1.378 . S
C1088 C1083 1.350 . S
C1089 H1076 0.929 . S
C1089 C1081 1.433 . S
C1089 N1091 1.384 . S
N1090 C1086 1.427 . S
N1090 C1087 1.384 . S
N1091 C1083 1.427 . S
N1091 C1089 1.384 . S
H1092 C1098 0.930 . S
H1093 C1102 0.930 . S
H1094 C1107 0.929 . S
H1095 C1105 0.929 . S
H1096 C1100 0.929 . S
H1097 C1106 0.929 . S
C1098 H1092 0.930 . S
C1098 C1099 1.367 . S
C1098 C1106 1.378 . S
C1099 C1098 1.367 . S
C1099 C1107 1.433 . S
C1100 H1096 0.929 . S
C1100 C1102 1.378 . S
C1100 C1104 1.350 . S
C1101 C1104 1.463 1_656 S
C1101 C1106 1.350 . S
C1101 N1109 1.427 . S
C1102 H1093 0.930 . S
C1102 C1100 1.378 . S
C1102 C1103 1.367 . S
C1103 C1102 1.367 . S
C1103 C1105 1.433 . S
C1104 C1100 1.350 . S
C1104 C1101 1.463 1_454 S
C1104 N1108 1.427 . S
C1105 H1095 0.929 . S
C1105 C1103 1.433 . S
C1105 N1108 1.384 . S
C1106 H1097 0.929 . S
C1106 C1098 1.378 . S
C1106 C1101 1.350 . S
C1107 H1094 0.929 . S
C1107 C1099 1.433 . S
C1107 N1109 1.384 . S
N1108 C1104 1.427 . S
N1108 C1105 1.384 . S
N1109 C1101 1.427 . S
N1109 C1107 1.384 . S
H1110 C1116 0.930 . S
H1111 C1120 0.930 . S
H1112 C1125 0.929 . S
H1113 C1123 0.929 . S
H1114 C1118 0.929 . S
H1115 C1124 0.929 . S
C1116 H1110 0.930 . S
C1116 C1117 1.367 . S
C1116 C1124 1.378 . S
C1117 C1116 1.367 . S
C1117 C1125 1.433 . S
C1118 H1114 0.929 . S
C1118 C1120 1.378 . S
C1118 C1122 1.350 . S
C1119 C1122 1.463 1_565 S
C1119 C1124 1.350 . S
C1119 N1127 1.427 . S
C1120 H1111 0.930 . S
C1120 C1118 1.378 . S
C1120 C1121 1.367 . S
C1121 C1120 1.367 . S
C1121 C1123 1.433 . S
C1122 C1118 1.350 . S
C1122 C1119 1.463 1_545 S
C1122 N1126 1.427 . S
C1123 H1113 0.929 . S
C1123 C1121 1.433 . S
C1123 N1126 1.384 . S
C1124 H1115 0.929 . S
C1124 C1116 1.378 . S
C1124 C1119 1.350 . S
C1125 H1112 0.929 . S
C1125 C1117 1.433 . S
C1125 N1127 1.384 . S
N1126 C1122 1.427 . S
N1126 C1123 1.384 . S
N1127 C1119 1.427 . S
N1127 C1125 1.384 . S
C487 C171 1.304 . S
C491 C16 1.340 . S
C505 C211 1.302 . S
C509 C56 1.339 . S
C523 C96 1.336 . S
C527 C11 1.292 . S
C541 C136 1.337 . S
C545 C51 1.297 . S
C559 C176 1.337 . S
C563 C91 1.296 . S
C577 C131 1.308 . S
C581 C216 1.344 . S
C595 C331 1.292 . S
C599 C256 1.336 . S
C613 C296 1.343 . S
C617 C371 1.302 . S
C631 C411 1.291 . S
C635 C336 1.337 . S
C649 C376 1.341 . S
C653 C451 1.305 . S
C667 C416 1.344 . S
C671 C251 1.304 . S
C685 C291 1.305 . S
C689 C456 1.344 . S
C703 C162 1.792 . S
C707 C7 1.782 . S
C721 C47 1.786 . S
C725 C202 1.793 . S
C739 C87 1.778 . S
C743 C2 1.787 . S
C757 C127 1.777 . S
C761 C42 1.786 . S
C775 C82 1.785 . S
C779 C167 1.782 . S
C793 C122 1.787 . S
C797 C207 1.785 . S
C811 C322 1.786 . S
C815 C247 1.777 . S
C829 C287 1.781 . S
C833 C362 1.792 . S
C847 C327 1.781 . S
C851 C402 1.792 . S
C865 C442 1.790 . S
C869 C367 1.780 . S
C883 C407 1.786 . S
C887 C242 1.788 . S
C901 C282 1.791 . S
C905 C447 1.781 . S
C919 C419 1.643 . S
C923 C19 1.636 . S
C937 C59 1.637 . S
C941 C459 1.629 . S
C955 C99 1.643 . S
C959 C259 1.642 . S
C973 C139 1.628 . S
C977 C299 1.629 . S
C991 C179 1.627 . S
C995 C339 1.633 . S
C1009 C379 1.636 . S
C1013 C219 1.643 . S
C1027 C370 2.225 . S
C1031 C10 2.225 . S
C1045 C410 2.229 . S
C1049 C50 2.229 . S
C1063 C90 2.225 . S
C1067 C450 2.225 . S
C1081 C130 2.228 . S
C1085 C250 2.228 . S
C1099 C290 2.227 . S
C1103 C170 2.227 . S
C1117 C330 2.225 . S
C1121 C210 2.226 . S
