# Generated by pormake.
# Topology ull, (4)-cn, num edge types: 1
# Building blocks:
#     Node 0, Type 0, BuildingBlock: AZAVOO_clean_sbu_0, # of connection points: 4
#     Node 1, Type 0, BuildingBlock: AZAVOO_clean_sbu_0, # of connection points: 4
#     Node 2, Type 0, BuildingBlock: AZAVOO_clean_sbu_0, # of connection points: 4
#     Node 3, Type 0, BuildingBlock: AZAVOO_clean_sbu_0, # of connection points: 4
#     Node 4, Type 0, BuildingBlock: AZAVOO_clean_sbu_0, # of connection points: 4
#     Node 5, Type 0, BuildingBlock: AZAVOO_clean_sbu_0, # of connection points: 4
#     Node 6, Type 0, BuildingBlock: AZAVOO_clean_sbu_0, # of connection points: 4
#     Node 7, Type 0, BuildingBlock: AZAVOO_clean_sbu_0, # of connection points: 4
#     Node 8, Type 0, BuildingBlock: AZAVOO_clean_sbu_0, # of connection points: 4
#     Node 9, Type 0, BuildingBlock: AZAVOO_clean_sbu_0, # of connection points: 4
#     Node 10, Type 0, BuildingBlock: AZAVOO_clean_sbu_0, # of connection points: 4
#     Node 11, Type 0, BuildingBlock: AZAVOO_clean_sbu_0, # of connection points: 4
#     Node 12, Type 0, BuildingBlock: AZAVOO_clean_sbu_0, # of connection points: 4
#     Node 13, Type 0, BuildingBlock: AZAVOO_clean_sbu_0, # of connection points: 4
#     Node 14, Type 0, BuildingBlock: AZAVOO_clean_sbu_0, # of connection points: 4
#     Node 15, Type 0, BuildingBlock: AZAVOO_clean_sbu_0, # of connection points: 4
#     Node 16, Type 0, BuildingBlock: AZAVOO_clean_sbu_0, # of connection points: 4
#     Node 17, Type 0, BuildingBlock: AZAVOO_clean_sbu_0, # of connection points: 4
#     Node 18, Type 0, BuildingBlock: AZAVOO_clean_sbu_0, # of connection points: 4
#     Node 19, Type 0, BuildingBlock: AZAVOO_clean_sbu_0, # of connection points: 4
#     Node 20, Type 0, BuildingBlock: AZAVOO_clean_sbu_0, # of connection points: 4
#     Node 21, Type 0, BuildingBlock: AZAVOO_clean_sbu_0, # of connection points: 4
#     Node 22, Type 0, BuildingBlock: AZAVOO_clean_sbu_0, # of connection points: 4
#     Node 23, Type 0, BuildingBlock: AZAVOO_clean_sbu_0, # of connection points: 4
#     Node 24, Type 0, BuildingBlock: AZAVOO_clean_sbu_0, # of connection points: 4
#     Node 25, Type 0, BuildingBlock: AZAVOO_clean_sbu_0, # of connection points: 4
#     Node 26, Type 0, BuildingBlock: AZAVOO_clean_sbu_0, # of connection points: 4
#     Node 27, Type 0, BuildingBlock: AZAVOO_clean_sbu_0, # of connection points: 4
#     Node 28, Type 0, BuildingBlock: AZAVOO_clean_sbu_0, # of connection points: 4
#     Node 29, Type 0, BuildingBlock: AZAVOO_clean_sbu_0, # of connection points: 4
#     Node 30, Type 0, BuildingBlock: AZAVOO_clean_sbu_0, # of connection points: 4
#     Node 31, Type 0, BuildingBlock: AZAVOO_clean_sbu_0, # of connection points: 4
#     Node 32, Type 0, BuildingBlock: AZAVOO_clean_sbu_0, # of connection points: 4
#     Node 33, Type 0, BuildingBlock: AZAVOO_clean_sbu_0, # of connection points: 4
#     Node 34, Type 0, BuildingBlock: AZAVOO_clean_sbu_0, # of connection points: 4
#     Node 35, Type 0, BuildingBlock: AZAVOO_clean_sbu_0, # of connection points: 4
#     Node 36, Type 0, BuildingBlock: AZAVOO_clean_sbu_0, # of connection points: 4
#     Node 37, Type 0, BuildingBlock: AZAVOO_clean_sbu_0, # of connection points: 4
#     Node 38, Type 0, BuildingBlock: AZAVOO_clean_sbu_0, # of connection points: 4
#     Node 39, Type 0, BuildingBlock: AZAVOO_clean_sbu_0, # of connection points: 4
#     Node 40, Type 0, BuildingBlock: AZAVOO_clean_sbu_0, # of connection points: 4
#     Node 41, Type 0, BuildingBlock: AZAVOO_clean_sbu_0, # of connection points: 4
#     Node 42, Type 0, BuildingBlock: AZAVOO_clean_sbu_0, # of connection points: 4
#     Node 43, Type 0, BuildingBlock: AZAVOO_clean_sbu_0, # of connection points: 4
#     Node 44, Type 0, BuildingBlock: AZAVOO_clean_sbu_0, # of connection points: 4
#     Node 45, Type 0, BuildingBlock: AZAVOO_clean_sbu_0, # of connection points: 4
#     Node 46, Type 0, BuildingBlock: AZAVOO_clean_sbu_0, # of connection points: 4
#     Node 47, Type 0, BuildingBlock: AZAVOO_clean_sbu_0, # of connection points: 4
#     Edge 48, Type (0, 0), BuildingBlock: CIFDUS_clean_linker_0, # of connection points: 2
#     Edge 49, Type (0, 0), BuildingBlock: CIFDUS_clean_linker_0, # of connection points: 2
#     Edge 50, Type (0, 0), BuildingBlock: CIFDUS_clean_linker_0, # of connection points: 2
#     Edge 51, Type (0, 0), BuildingBlock: CIFDUS_clean_linker_0, # of connection points: 2
#     Edge 52, Type (0, 0), BuildingBlock: CIFDUS_clean_linker_0, # of connection points: 2
#     Edge 53, Type (0, 0), BuildingBlock: CIFDUS_clean_linker_0, # of connection points: 2
#     Edge 54, Type (0, 0), BuildingBlock: CIFDUS_clean_linker_0, # of connection points: 2
#     Edge 55, Type (0, 0), BuildingBlock: CIFDUS_clean_linker_0, # of connection points: 2
#     Edge 56, Type (0, 0), BuildingBlock: CIFDUS_clean_linker_0, # of connection points: 2
#     Edge 57, Type (0, 0), BuildingBlock: CIFDUS_clean_linker_0, # of connection points: 2
#     Edge 58, Type (0, 0), BuildingBlock: CIFDUS_clean_linker_0, # of connection points: 2
#     Edge 59, Type (0, 0), BuildingBlock: CIFDUS_clean_linker_0, # of connection points: 2
#     Edge 60, Type (0, 0), BuildingBlock: CIFDUS_clean_linker_0, # of connection points: 2
#     Edge 61, Type (0, 0), BuildingBlock: CIFDUS_clean_linker_0, # of connection points: 2
#     Edge 62, Type (0, 0), BuildingBlock: CIFDUS_clean_linker_0, # of connection points: 2
#     Edge 63, Type (0, 0), BuildingBlock: CIFDUS_clean_linker_0, # of connection points: 2
#     Edge 64, Type (0, 0), BuildingBlock: CIFDUS_clean_linker_0, # of connection points: 2
#     Edge 65, Type (0, 0), BuildingBlock: CIFDUS_clean_linker_0, # of connection points: 2
#     Edge 66, Type (0, 0), BuildingBlock: CIFDUS_clean_linker_0, # of connection points: 2
#     Edge 67, Type (0, 0), BuildingBlock: CIFDUS_clean_linker_0, # of connection points: 2
#     Edge 68, Type (0, 0), BuildingBlock: CIFDUS_clean_linker_0, # of connection points: 2
#     Edge 69, Type (0, 0), BuildingBlock: CIFDUS_clean_linker_0, # of connection points: 2
#     Edge 70, Type (0, 0), BuildingBlock: CIFDUS_clean_linker_0, # of connection points: 2
#     Edge 71, Type (0, 0), BuildingBlock: CIFDUS_clean_linker_0, # of connection points: 2
#     Edge 72, Type (0, 0), BuildingBlock: CIFDUS_clean_linker_0, # of connection points: 2
#     Edge 73, Type (0, 0), BuildingBlock: CIFDUS_clean_linker_0, # of connection points: 2
#     Edge 74, Type (0, 0), BuildingBlock: CIFDUS_clean_linker_0, # of connection points: 2
#     Edge 75, Type (0, 0), BuildingBlock: CIFDUS_clean_linker_0, # of connection points: 2
#     Edge 76, Type (0, 0), BuildingBlock: CIFDUS_clean_linker_0, # of connection points: 2
#     Edge 77, Type (0, 0), BuildingBlock: CIFDUS_clean_linker_0, # of connection points: 2
#     Edge 78, Type (0, 0), BuildingBlock: CIFDUS_clean_linker_0, # of connection points: 2
#     Edge 79, Type (0, 0), BuildingBlock: CIFDUS_clean_linker_0, # of connection points: 2
#     Edge 80, Type (0, 0), BuildingBlock: CIFDUS_clean_linker_0, # of connection points: 2
#     Edge 81, Type (0, 0), BuildingBlock: CIFDUS_clean_linker_0, # of connection points: 2
#     Edge 82, Type (0, 0), BuildingBlock: CIFDUS_clean_linker_0, # of connection points: 2
#     Edge 83, Type (0, 0), BuildingBlock: CIFDUS_clean_linker_0, # of connection points: 2
#     Edge 84, Type (0, 0), BuildingBlock: CIFDUS_clean_linker_0, # of connection points: 2
#     Edge 85, Type (0, 0), BuildingBlock: CIFDUS_clean_linker_0, # of connection points: 2
#     Edge 86, Type (0, 0), BuildingBlock: CIFDUS_clean_linker_0, # of connection points: 2
#     Edge 87, Type (0, 0), BuildingBlock: CIFDUS_clean_linker_0, # of connection points: 2
#     Edge 88, Type (0, 0), BuildingBlock: CIFDUS_clean_linker_0, # of connection points: 2
#     Edge 89, Type (0, 0), BuildingBlock: CIFDUS_clean_linker_0, # of connection points: 2
#     Edge 90, Type (0, 0), BuildingBlock: CIFDUS_clean_linker_0, # of connection points: 2
#     Edge 91, Type (0, 0), BuildingBlock: CIFDUS_clean_linker_0, # of connection points: 2
#     Edge 92, Type (0, 0), BuildingBlock: CIFDUS_clean_linker_0, # of connection points: 2
#     Edge 93, Type (0, 0), BuildingBlock: CIFDUS_clean_linker_0, # of connection points: 2
#     Edge 94, Type (0, 0), BuildingBlock: CIFDUS_clean_linker_0, # of connection points: 2
#     Edge 95, Type (0, 0), BuildingBlock: CIFDUS_clean_linker_0, # of connection points: 2
#     Edge 96, Type (0, 0), BuildingBlock: CIFDUS_clean_linker_0, # of connection points: 2
#     Edge 97, Type (0, 0), BuildingBlock: CIFDUS_clean_linker_0, # of connection points: 2
#     Edge 98, Type (0, 0), BuildingBlock: CIFDUS_clean_linker_0, # of connection points: 2
#     Edge 99, Type (0, 0), BuildingBlock: CIFDUS_clean_linker_0, # of connection points: 2
#     Edge 100, Type (0, 0), BuildingBlock: CIFDUS_clean_linker_0, # of connection points: 2
#     Edge 101, Type (0, 0), BuildingBlock: CIFDUS_clean_linker_0, # of connection points: 2
#     Edge 102, Type (0, 0), BuildingBlock: CIFDUS_clean_linker_0, # of connection points: 2
#     Edge 103, Type (0, 0), BuildingBlock: CIFDUS_clean_linker_0, # of connection points: 2
#     Edge 104, Type (0, 0), BuildingBlock: CIFDUS_clean_linker_0, # of connection points: 2
#     Edge 105, Type (0, 0), BuildingBlock: CIFDUS_clean_linker_0, # of connection points: 2
#     Edge 106, Type (0, 0), BuildingBlock: CIFDUS_clean_linker_0, # of connection points: 2
#     Edge 107, Type (0, 0), BuildingBlock: CIFDUS_clean_linker_0, # of connection points: 2
#     Edge 108, Type (0, 0), BuildingBlock: CIFDUS_clean_linker_0, # of connection points: 2
#     Edge 109, Type (0, 0), BuildingBlock: CIFDUS_clean_linker_0, # of connection points: 2
#     Edge 110, Type (0, 0), BuildingBlock: CIFDUS_clean_linker_0, # of connection points: 2
#     Edge 111, Type (0, 0), BuildingBlock: CIFDUS_clean_linker_0, # of connection points: 2
#     Edge 112, Type (0, 0), BuildingBlock: CIFDUS_clean_linker_0, # of connection points: 2
#     Edge 113, Type (0, 0), BuildingBlock: CIFDUS_clean_linker_0, # of connection points: 2
#     Edge 114, Type (0, 0), BuildingBlock: CIFDUS_clean_linker_0, # of connection points: 2
#     Edge 115, Type (0, 0), BuildingBlock: CIFDUS_clean_linker_0, # of connection points: 2
#     Edge 116, Type (0, 0), BuildingBlock: CIFDUS_clean_linker_0, # of connection points: 2
#     Edge 117, Type (0, 0), BuildingBlock: CIFDUS_clean_linker_0, # of connection points: 2
#     Edge 118, Type (0, 0), BuildingBlock: CIFDUS_clean_linker_0, # of connection points: 2
#     Edge 119, Type (0, 0), BuildingBlock: CIFDUS_clean_linker_0, # of connection points: 2
#     Edge 120, Type (0, 0), BuildingBlock: CIFDUS_clean_linker_0, # of connection points: 2
#     Edge 121, Type (0, 0), BuildingBlock: CIFDUS_clean_linker_0, # of connection points: 2
#     Edge 122, Type (0, 0), BuildingBlock: CIFDUS_clean_linker_0, # of connection points: 2
#     Edge 123, Type (0, 0), BuildingBlock: CIFDUS_clean_linker_0, # of connection points: 2
#     Edge 124, Type (0, 0), BuildingBlock: CIFDUS_clean_linker_0, # of connection points: 2
#     Edge 125, Type (0, 0), BuildingBlock: CIFDUS_clean_linker_0, # of connection points: 2
#     Edge 126, Type (0, 0), BuildingBlock: CIFDUS_clean_linker_0, # of connection points: 2
#     Edge 127, Type (0, 0), BuildingBlock: CIFDUS_clean_linker_0, # of connection points: 2
#     Edge 128, Type (0, 0), BuildingBlock: CIFDUS_clean_linker_0, # of connection points: 2
#     Edge 129, Type (0, 0), BuildingBlock: CIFDUS_clean_linker_0, # of connection points: 2
#     Edge 130, Type (0, 0), BuildingBlock: CIFDUS_clean_linker_0, # of connection points: 2
#     Edge 131, Type (0, 0), BuildingBlock: CIFDUS_clean_linker_0, # of connection points: 2
#     Edge 132, Type (0, 0), BuildingBlock: CIFDUS_clean_linker_0, # of connection points: 2
#     Edge 133, Type (0, 0), BuildingBlock: CIFDUS_clean_linker_0, # of connection points: 2
#     Edge 134, Type (0, 0), BuildingBlock: CIFDUS_clean_linker_0, # of connection points: 2
#     Edge 135, Type (0, 0), BuildingBlock: CIFDUS_clean_linker_0, # of connection points: 2
#     Edge 136, Type (0, 0), BuildingBlock: CIFDUS_clean_linker_0, # of connection points: 2
#     Edge 137, Type (0, 0), BuildingBlock: CIFDUS_clean_linker_0, # of connection points: 2
#     Edge 138, Type (0, 0), BuildingBlock: CIFDUS_clean_linker_0, # of connection points: 2
#     Edge 139, Type (0, 0), BuildingBlock: CIFDUS_clean_linker_0, # of connection points: 2
#     Edge 140, Type (0, 0), BuildingBlock: CIFDUS_clean_linker_0, # of connection points: 2
#     Edge 141, Type (0, 0), BuildingBlock: CIFDUS_clean_linker_0, # of connection points: 2
#     Edge 142, Type (0, 0), BuildingBlock: CIFDUS_clean_linker_0, # of connection points: 2
#     Edge 143, Type (0, 0), BuildingBlock: CIFDUS_clean_linker_0, # of connection points: 2
# Relax obj value: 0.231
# Max RMSD: 0.269
# Mean RMSD: 0.256
data_MOF--net-ull--node1-AZAVOO_clean_sbu_0--edge1-CIFDUS_clean_linker_0
_symmetry_space_group_name_H-M    P1
_symmetry_Int_Tables_number       1
_symmetry_cell_setting            triclinic
loop_
_symmetry_equiv_pos_as_xyz
'x, y, z'
_cell_length_a     50.775601
_cell_length_b     52.746117
_cell_length_c     52.71686
_cell_angle_alpha  89.98447
_cell_angle_beta   89.992945
_cell_angle_gamma 90.006415
loop_
_atom_site_label
_atom_site_type_symbol
_atom_site_fract_x
_atom_site_fract_y
_atom_site_fract_z
_atom_type_partial_charge
Mg0 Mg 0.0329 0.34127 0.17401 0.0
O1 O 0.99755 0.34213 0.14668 0.0
O2 O 0.96194 0.34898 0.17069 0.0
Mg3 Mg 0.97353 0.34944 0.21246 0.0
C4 C 0.97279 0.34577 0.14909 0.0
C5 C 0.08547 0.35012 0.14821 0.0
O6 O 0.09087 0.35252 0.17247 0.0
O7 O 0.03029 0.38408 0.18016 0.0
O8 O 0.99562 0.38675 0.20617 0.0
O9 O 0.02889 0.29922 0.1795 0.0
O10 O 0.00934 0.32821 0.20304 0.0
C11 C 0.01478 0.39698 0.19424 0.0
C12 C 0.01334 0.30464 0.1982 0.0
O13 O 0.06181 0.34586 0.1416 0.0
Mg14 Mg 0.63041 0.98854 0.16052 0.0
O15 O 0.66804 0.98536 0.18342 0.0
O16 O 0.70348 0.98243 0.15857 0.0
Mg17 Mg 0.68744 0.98376 0.118 0.0
C18 C 0.69288 0.9835 0.18049 0.0
C19 C 0.58505 0.00069 0.20055 0.0
O20 O 0.56942 0.99111 0.18315 0.0
O21 O 0.6406 0.02967 0.15122 0.0
O22 O 0.67461 0.02497 0.12471 0.0
O23 O 0.62642 0.94607 0.15814 0.0
O24 O 0.64866 0.9697 0.1309 0.0
C25 C 0.65832 0.03897 0.13678 0.0
C26 C 0.6415 0.94754 0.13838 0.0
O27 O 0.6097 0.00128 0.19655 0.0
Mg28 Mg 0.95156 0.65165 0.17795 0.0
O29 O 0.98994 0.6538 0.15487 0.0
O30 O 0.02351 0.6506 0.18203 0.0
Mg31 Mg 0.0072 0.64714 0.22219 0.0
C32 C 0.0146 0.653 0.15952 0.0
C33 C 0.93142 0.65905 0.12189 0.0
O34 O 0.95103 0.67529 0.12137 0.0
O35 O 0.95681 0.60885 0.18411 0.0
O36 O 0.98979 0.60844 0.21232 0.0
O37 O 0.9527 0.69394 0.18494 0.0
O38 O 0.97039 0.66495 0.20986 0.0
C39 C 0.97264 0.59697 0.19882 0.0
C40 C 0.96587 0.68841 0.20525 0.0
O41 O 0.92728 0.64623 0.14192 0.0
Mg42 Mg 0.40895 0.01784 0.16022 0.0
O43 O 0.36958 0.02382 0.17973 0.0
O44 O 0.33818 0.03521 0.15239 0.0
Mg45 Mg 0.35861 0.03654 0.11374 0.0
C46 C 0.34578 0.02975 0.1748 0.0
C47 C 0.44613 0.00202 0.20592 0.0
O48 O 0.4635 0.01625 0.19415 0.0
O49 O 0.39357 0.97989 0.14487 0.0
O50 O 0.36361 0.99367 0.11693 0.0
O51 O 0.41903 0.05947 0.1637 0.0
O52 O 0.39725 0.042 0.13181 0.0
C53 C 0.3758 0.97573 0.1282 0.0
C54 C 0.40615 0.06202 0.14267 0.0
O55 O 0.42337 -0.00085 0.19637 0.0
Mg56 Mg 0.0391 0.64578 0.8308 0.0
O57 O 0.99961 0.63954 0.85163 0.0
O58 O 0.97064 0.6285 0.82167 0.0
Mg59 Mg 0.98999 0.62921 0.78266 0.0
C60 C 0.97641 0.63298 0.84481 0.0
C61 C 0.08637 0.63834 0.86378 0.0
O62 O 0.09371 0.63245 0.84061 0.0
O63 O 0.04495 0.60315 0.82477 0.0
O64 O 0.01649 0.59583 0.79328 0.0
O65 O 0.02892 0.68685 0.82354 0.0
O66 O 0.01965 0.65512 0.79787 0.0
C67 C 0.03468 0.58839 0.80829 0.0
C68 C 0.0184 0.67893 0.80261 0.0
O69 O 0.06259 0.64487 0.86751 0.0
Mg70 Mg 0.37798 0.97601 0.8102 0.0
O71 O 0.33742 0.97629 0.79171 0.0
O72 O 0.30583 0.97297 0.82098 0.0
Mg73 Mg 0.32693 0.96994 0.8592 0.0
C74 C 0.31317 0.97539 0.79795 0.0
C75 C 0.41978 0.99151 0.76848 0.0
O76 O 0.43646 0.98194 0.78495 0.0
O77 O 0.37134 0.01664 0.82388 0.0
O78 O 0.34128 0.01079 0.85433 0.0
O79 O 0.38037 0.93318 0.80952 0.0
O80 O 0.36281 0.95584 0.84039 0.0
C81 C 0.35643 0.02521 0.84142 0.0
C82 C 0.36821 0.93396 0.83111 0.0
O83 O 0.39529 0.9907 0.77327 0.0
Mg84 Mg 0.97519 0.3248 0.8272 0.0
O85 O 0.01434 0.33211 0.8482 0.0
O86 O 0.04512 0.33522 0.81798 0.0
Mg87 Mg 0.0271 0.32672 0.77917 0.0
C88 C 0.03814 0.336 0.84125 0.0
C89 C 0.95392 0.32934 0.88413 0.0
O90 O 0.9749 0.31605 0.8901 0.0
O91 O 0.97438 0.36522 0.81223 0.0
O92 O 0.00374 0.36414 0.78065 0.0
O93 O 0.98009 0.28264 0.82976 0.0
O94 O 0.99505 0.30649 0.79843 0.0
C95 C 0.98607 0.37568 0.79351 0.0
C96 C 0.99283 0.28445 0.80857 0.0
O97 O 0.95025 0.33589 0.86121 0.0
Mg98 Mg 0.61124 0.02843 0.8362 0.0
O99 O 0.6517 0.03444 0.81828 0.0
O100 O 0.68162 0.04366 0.84798 0.0
Mg101 Mg 0.65964 0.04285 0.8858 0.0
C102 C 0.67528 0.03961 0.8249 0.0
C103 C 0.57234 0.00925 0.79432 0.0
O104 O 0.55484 0.0175 0.81073 0.0
O105 O 0.62512 0.98935 0.84959 0.0
O106 O 0.65394 0.00015 0.8798 0.0
O107 O 0.60168 0.07013 0.83465 0.0
O108 O 0.62237 0.05085 0.86616 0.0
C109 C 0.64185 0.98341 0.8667 0.0
C110 C 0.6138 0.0715 0.85621 0.0
O111 O 0.59666 0.01175 0.79927 0.0
Mg112 Mg 0.20323 0.03616 0.31512 0.0
O113 O 0.18622 0.9963 0.31443 0.0
O114 O 0.21948 0.96865 0.31474 0.0
Mg115 Mg 0.25798 0.99114 0.31094 0.0
C116 C 0.19488 0.97363 0.31506 0.0
C117 C 0.16161 0.07507 0.33228 0.0
O118 O 0.18331 0.08863 0.33287 0.0
O119 O 0.21692 0.03099 0.35608 0.0
O120 O 0.25327 0.00749 0.35093 0.0
O121 O 0.20399 0.03845 0.27253 0.0
O122 O 0.23654 0.02429 0.29632 0.0
C123 C 0.23783 0.02064 0.36484 0.0
C124 C 0.22763 0.02937 0.2741 0.0
O125 O 0.16315 0.05174 0.32651 0.0
Mg126 Mg 0.97023 0.16322 0.32771 0.0
O127 O 0.0139 0.15265 0.33343 0.0
O128 O 0.03597 0.18926 0.3357 0.0
Mg129 Mg 0.0076 0.22244 0.33102 0.0
C130 C 0.03537 0.16506 0.33608 0.0
C131 C 0.93246 0.12388 0.34444 0.0
O132 O 0.92122 0.14607 0.34781 0.0
O133 O 0.96647 0.17527 0.36921 0.0
O134 O 0.98823 0.21216 0.36888 0.0
O135 O 0.97568 0.16467 0.28525 0.0
O136 O 0.98036 0.19712 0.31131 0.0
C137 C 0.97464 0.19529 0.38034 0.0
C138 C 0.98111 0.18843 0.28859 0.0
O139 O 0.95608 0.12333 0.33648 0.0
Mg140 Mg 0.81337 0.95507 0.33629 0.0
O141 O 0.83134 0.99456 0.3414 0.0
O142 O 0.79756 0.02173 0.33997 0.0
Mg143 Mg 0.75954 0.00084 0.32988 0.0
C144 C 0.82204 0.017 0.34293 0.0
C145 C 0.87291 0.93932 0.34191 0.0
O146 O 0.87586 0.95675 0.32433 0.0
O147 O 0.79478 0.9573 0.37559 0.0
O148 O 0.75921 0.98146 0.36875 0.0
O149 O 0.81851 0.95661 0.29391 0.0
O150 O 0.78339 0.96977 0.31466 0.0
C151 C 0.77315 0.96724 0.38305 0.0
C152 C 0.79524 0.96665 0.29337 0.0
O153 O 0.85019 0.93559 0.35131 0.0
Mg154 Mg 0.05308 0.8212 0.32335 0.0
O155 O 0.01703 0.8463 0.33132 0.0
O156 O 0.98323 0.82086 0.34071 0.0
Mg157 Mg 0.99697 0.77977 0.33722 0.0
C158 C 0.993 0.84295 0.33764 0.0
C159 C 0.07484 0.87591 0.31488 0.0
O160 O 0.05251 0.87784 0.30245 0.0
O161 O 0.0577 0.81178 0.36558 0.0
O162 O 0.02417 0.78489 0.37149 0.0
O163 O 0.04197 0.81844 0.28208 0.0
O164 O 0.02897 0.79192 0.31194 0.0
C165 C 0.04451 0.7966 0.37963 0.0
C166 C 0.02843 0.79865 0.28852 0.0
O167 O 0.08042 0.85524 0.32601 0.0
Mg168 Mg 0.17514 0.94725 0.65959 0.0
O169 O 0.14965 0.98255 0.6549 0.0
O170 O 0.17656 0.01574 0.65068 0.0
Mg171 Mg 0.21903 0.00212 0.65763 0.0
C172 C 0.15346 0.00615 0.6512 0.0
C173 C 0.11839 0.92426 0.66089 0.0
O174 O 0.11513 0.94301 0.67699 0.0
O175 O 0.18895 0.94931 0.61844 0.0
O176 O 0.22018 0.97922 0.62057 0.0
O177 O 0.1745 0.95059 0.70198 0.0
O178 O 0.20436 0.96805 0.67715 0.0
C179 C 0.20812 0.96162 0.60862 0.0
C180 C 0.19576 0.96398 0.69971 0.0
O181 O 0.14051 0.92166 0.64991 0.0
Mg182 Mg 0.02522 0.17317 0.6533 0.0
O183 O 0.98671 0.14972 0.65135 0.0
O184 O 0.95397 0.17811 0.65388 0.0
Mg185 Mg 0.97022 0.21772 0.66096 0.0
C186 C 0.9622 0.15538 0.65124 0.0
C187 C 0.04826 0.11815 0.64768 0.0
O188 O 0.0294 0.1133 0.66405 0.0
O189 O 0.01805 0.18878 0.61331 0.0
O190 O 0.98683 0.21781 0.62053 0.0
O191 O 0.0273 0.16972 0.69577 0.0
O192 O 0.00617 0.19996 0.67512 0.0
C193 C 0.00298 0.20665 0.60566 0.0
C194 C 0.01245 0.18964 0.69634 0.0
O195 O 0.05042 0.14044 0.63875 0.0
Mg196 Mg 0.79713 0.03158 0.66559 0.0
O197 O 0.81461 0.99179 0.66891 0.0
O198 O 0.781 0.96455 0.66649 0.0
Mg199 Mg 0.7422 0.98651 0.66563 0.0
C200 C 0.80563 0.9692 0.66814 0.0
C201 C 0.85895 0.04319 0.66687 0.0
O202 O 0.85963 0.02466 0.68351 0.0
O203 O 0.78828 0.02443 0.62394 0.0
O204 O 0.75155 0.001 0.62553 0.0
O205 O 0.79236 0.03554 0.70766 0.0
O206 O 0.76235 0.01952 0.68204 0.0
C207 C 0.76887 0.01345 0.6131 0.0
C208 C 0.76923 0.0256 0.7047 0.0
O209 O 0.83718 0.04901 0.65646 0.0
Mg210 Mg 0.93616 0.80789 0.67604 0.0
O211 O 0.9739 0.83159 0.67257 0.0
O212 O 0.00749 0.80473 0.66723 0.0
Mg213 Mg 0.99162 0.76426 0.66869 0.0
C214 C 0.99837 0.8272 0.66913 0.0
C215 C 0.88657 0.83941 0.66787 0.0
O216 O 0.87754 0.81607 0.66765 0.0
O217 O 0.93679 0.79925 0.63348 0.0
O218 O 0.97001 0.77146 0.63122 0.0
O219 O 0.94184 0.80482 0.71819 0.0
O220 O 0.95716 0.77757 0.68999 0.0
C221 C 0.95148 0.78415 0.62084 0.0
C222 C 0.9552 0.78448 0.7133 0.0
O223 O 0.91116 0.84298 0.67046 0.0
Mg224 Mg 0.38067 0.16066 0.97395 0.0
O225 O 0.34009 0.1802 0.9759 0.0
O226 O 0.30881 0.15018 0.97478 0.0
Mg227 Mg 0.32907 0.11177 0.97403 0.0
C228 C 0.31588 0.17338 0.97588 0.0
C229 C 0.39552 0.21892 0.98838 0.0
O230 O 0.37081 0.22479 0.98398 0.0
O231 O 0.37634 0.15006 0.01561 0.0
O232 O 0.34493 0.12039 0.01391 0.0
O233 O 0.38005 0.15961 0.93121 0.0
O234 O 0.3629 0.13038 0.9563 0.0
C235 C 0.36112 0.13412 0.02639 0.0
C236 C 0.36677 0.13881 0.93375 0.0
O237 O 0.40334 0.19625 0.98518 0.0
Mg238 Mg 0.37845 0.83383 0.00257 0.0
O239 O 0.33761 0.818 0.01125 0.0
O240 O 0.30989 0.84937 0.0212 0.0
Mg241 Mg 0.3337 0.88603 0.01824 0.0
C242 C 0.31477 0.82592 0.01753 0.0
C243 C 0.41308 0.78678 0.98888 0.0
O244 O 0.43033 0.79923 0.00267 0.0
O245 O 0.36345 0.84728 0.96402 0.0
O246 O 0.33713 0.87935 0.97528 0.0
O247 O 0.39053 0.83254 0.04358 0.0
O248 O 0.3704 0.86481 0.02508 0.0
C249 C 0.34771 0.86529 0.95836 0.0
C250 C 0.37992 0.85479 0.04534 0.0
O251 O 0.39021 0.796 0.98584 0.0
Mg252 Mg 0.20163 0.33565 0.97068 0.0
O253 O 0.17961 0.33752 0.00823 0.0
O254 O 0.20914 0.34062 0.03942 0.0
Mg255 Mg 0.25037 0.33666 0.02207 0.0
C256 C 0.18533 0.33995 0.03164 0.0
C257 C 0.14245 0.33285 0.95408 0.0
O258 O 0.14215 0.31678 0.97312 0.0
O259 O 0.21322 0.37719 0.97457 0.0
O260 O 0.24669 0.37522 0.00223 0.0
O261 O 0.20363 0.29332 0.97164 0.0
O262 O 0.23367 0.31865 0.98808 0.0
C263 C 0.23237 0.38749 0.98652 0.0
C264 C 0.22578 0.29595 0.98355 0.0
O265 O 0.16375 0.34444 0.94882 0.0
Mg266 Mg 0.61483 0.18067 0.02417 0.0
O267 O 0.65693 0.19618 0.02566 0.0
O268 O 0.68541 0.16475 0.03368 0.0
Mg269 Mg 0.66128 0.12835 0.03531 0.0
C270 C 0.68035 0.18804 0.02926 0.0
C271 C 0.57582 0.22352 0.00921 0.0
O272 O 0.56003 0.20846 0.022 0.0
O273 O 0.62369 0.16583 0.98439 0.0
O274 O 0.65208 0.13457 0.99324 0.0
O275 O 0.61006 0.18317 0.06683 0.0
O276 O 0.6265 0.15043 0.046 0.0
C277 C 0.63908 0.148 0.97742 0.0
C278 C 0.62096 0.16099 0.06725 0.0
O279 O 0.60007 0.21784 0.00761 0.0
Mg280 Mg 0.80235 0.65498 0.9605 0.0
O281 O 0.82136 0.65306 -0.0003 0.0
O282 O 0.78892 0.64711 0.02771 0.0
Mg283 Mg 0.7492 0.65059 0.00713 0.0
C284 C 0.81336 0.64927 0.02234 0.0
C285 C 0.84069 0.6339 0.92097 0.0
O286 O 0.81756 0.62627 0.9128 0.0
O287 O 0.79188 0.61302 0.96216 0.0
O288 O 0.75553 0.61285 0.98614 0.0
O289 O 0.79891 0.69735 0.96217 0.0
O290 O 0.76842 0.67081 0.97561 0.0
C291 C 0.77187 0.60166 0.97147 0.0
C292 C 0.77592 0.69385 0.97227 0.0
O293 O 0.84179 0.64657 0.94145 0.0
Mg294 Mg 0.62016 0.829 0.97268 0.0
O295 O 0.66075 0.81005 0.97033 0.0
O296 O 0.69175 0.83999 0.96718 0.0
Mg297 Mg 0.67087 0.87835 0.96721 0.0
C298 C 0.68487 0.81676 0.96863 0.0
C299 C 0.57787 0.78666 0.98101 0.0
O300 O 0.56378 0.80265 0.96755 0.0
O301 O 0.62845 0.84048 0.01382 0.0
O302 O 0.65815 0.87133 0.00832 0.0
O303 O 0.61552 0.83091 0.93004 0.0
O304 O 0.6346 0.86018 0.9536 0.0
C305 C 0.64363 0.85767 0.02266 0.0
C306 C 0.62774 0.85241 0.9315 0.0
O307 O 0.60186 0.79183 0.98553 0.0
Mg308 Mg 0.19622 0.66817 0.04416 0.0
O309 O 0.17313 0.66321 0.00718 0.0
O310 O 0.20336 0.65578 0.97726 0.0
Mg311 Mg 0.24485 0.66088 0.99353 0.0
C312 C 0.17939 0.65788 0.98433 0.0
C313 C 0.13635 0.66637 0.0644 0.0
O314 O 0.13017 0.67821 0.04329 0.0
O315 O 0.2067 0.6264 0.04392 0.0
O316 O 0.24082 0.6244 0.01712 0.0
O317 O 0.19864 0.71037 0.03965 0.0
O318 O 0.2277 0.68324 0.02455 0.0
C319 C 0.22561 0.61428 0.03357 0.0
C320 C 0.22029 0.70638 0.02726 0.0
O321 O 0.16018 0.66035 0.06861 0.0
Mg322 Mg 0.80029 0.34423 0.02316 0.0
O323 O 0.82586 0.34453 0.98766 0.0
O324 O 0.79853 0.34744 0.95462 0.0
Mg325 Mg 0.75591 0.34288 0.96862 0.0
C326 C 0.82176 0.34668 0.9639 0.0
C327 C 0.85757 0.3449 0.04657 0.0
O328 O 0.86174 0.32755 0.02916 0.0
O329 O 0.78839 0.38527 0.01679 0.0
O330 O 0.75588 0.38175 0.98835 0.0
O331 O 0.79899 0.30188 0.02446 0.0
O332 O 0.77039 0.32583 0.00407 0.0
C333 C 0.76909 0.3947 0.0044 0.0
C334 C 0.7779 0.30353 0.01072 0.0
O335 O 0.83509 0.35544 0.04795 0.0
Mg336 Mg 0.55427 0.84215 0.6888 0.0
O337 O 0.51405 0.83976 0.66865 0.0
O338 O 0.48409 0.83253 0.6989 0.0
Mg339 Mg 0.50431 0.82998 0.73733 0.0
C340 C 0.49024 0.8362 0.6757 0.0
C341 C 0.57359 0.84433 0.63363 0.0
O342 O 0.55753 0.82481 0.6328 0.0
O343 O 0.54379 0.88144 0.70351 0.0
O344 O 0.5146 0.87227 0.734 0.0
O345 O 0.55979 0.80027 0.68527 0.0
O346 O 0.54074 0.81959 0.71781 0.0
C347 C 0.52826 0.88824 0.72134 0.0
C348 C 0.54753 0.7989 0.70673 0.0
O349 O 0.57465 0.85747 0.65378 0.0
Mg350 Mg 0.11196 0.47842 0.66116 0.0
O351 O 0.15284 0.47939 0.68017 0.0
O352 O 0.18371 0.47682 0.64988 0.0
Mg353 Mg 0.16294 0.47603 0.61167 0.0
C354 C 0.17695 0.4785 0.67315 0.0
C355 C 0.09824 0.4883 0.72032 0.0
O356 O 0.122 0.47997 0.7255 0.0
O357 O 0.1173 0.52002 0.64972 0.0
O358 O 0.14816 0.51634 0.61964 0.0
O359 O 0.11127 0.43574 0.66068 0.0
O360 O 0.12858 0.45996 0.63078 0.0
C361 C 0.13261 0.52978 0.63316 0.0
C362 C 0.12418 0.43767 0.6396 0.0
O363 O 0.09047 0.48959 0.69742 0.0
Mg364 Mg 0.462 0.15872 0.66809 0.0
O365 O 0.50248 0.15815 0.64844 0.0
O366 O 0.53288 0.15765 0.67906 0.0
Mg367 Mg 0.5125 0.15954 0.71763 0.0
C368 C 0.52649 0.15743 0.65564 0.0
C369 C 0.4458 0.1604 0.61036 0.0
O370 O 0.46599 0.17592 0.60904 0.0
O371 O 0.46648 0.11688 0.67926 0.0
O372 O 0.49604 0.1197 0.71067 0.0
O373 O 0.46216 0.20143 0.67002 0.0
O374 O 0.47743 0.17596 0.69984 0.0
C375 C 0.48046 0.10673 0.69673 0.0
C376 C 0.47295 0.19863 0.69209 0.0
O377 O 0.44059 0.14952 0.63128 0.0
Mg378 Mg 0.88857 0.49524 0.66622 0.0
O379 O 0.8502 0.49872 0.68928 0.0
O380 O 0.81711 0.50409 0.66176 0.0
Mg381 Mg 0.8337 0.50451 0.62169 0.0
C382 C 0.8257 0.50164 0.68439 0.0
C383 C 0.93586 0.48166 0.70056 0.0
O384 O 0.94783 0.49232 0.6812 0.0
O385 O 0.87677 0.45483 0.65487 0.0
O386 O 0.84431 0.46283 0.62732 0.0
O387 O 0.89461 0.53773 0.66564 0.0
O388 O 0.87164 0.51603 0.63748 0.0
C389 C 0.85908 0.44734 0.63934 0.0
C390 C 0.87967 0.53756 0.64575 0.0
O391 O 0.91085 0.48055 0.70062 0.0
Mg392 Mg 0.53434 0.15781 0.31101 0.0
O393 O 0.49404 0.15561 0.33079 0.0
O394 O 0.46333 0.15601 0.30045 0.0
Mg395 Mg 0.48346 0.16002 0.2619 0.0
C396 C 0.46997 0.15488 0.32377 0.0
C397 C 0.55113 0.15798 0.3683 0.0
O398 O 0.53159 0.17423 0.36981 0.0
O399 O 0.53089 0.11654 0.2977 0.0
O400 O 0.50119 0.12037 0.26655 0.0
O401 O 0.53311 0.20049 0.31141 0.0
O402 O 0.51827 0.17631 0.28033 0.0
C403 C 0.5172 0.10704 0.27966 0.0
C404 C 0.5221 0.19862 0.28934 0.0
O405 O 0.55584 0.14713 0.34726 0.0
Mg406 Mg 0.88212 0.47562 0.33059 0.0
O407 O 0.8436 0.471 0.30973 0.0
O408 O 0.80978 0.46352 0.33555 0.0
Mg409 Mg 0.82849 0.4622 0.37518 0.0
C410 C 0.81916 0.46713 0.31339 0.0
C411 C 0.91911 0.48807 0.28215 0.0
O412 O 0.93602 0.47156 0.29124 0.0
O413 O 0.86904 0.51475 0.34433 0.0
O414 O 0.83765 0.50472 0.37232 0.0
O415 O 0.89025 0.43364 0.32921 0.0
O416 O 0.86794 0.45296 0.35959 0.0
C417 C 0.85185 0.52112 0.36084 0.0
C418 C 0.87682 0.43222 0.35005 0.0
O419 O 0.89804 0.49281 0.29423 0.0
Mg420 Mg 0.48313 0.84505 0.32095 0.0
O421 O 0.52269 0.84437 0.34251 0.0
O422 O 0.5542 0.84441 0.31283 0.0
Mg423 Mg 0.53579 0.84321 0.27345 0.0
C424 C 0.54696 0.84447 0.33602 0.0
C425 C 0.46046 0.8425 0.37661 0.0
O426 O 0.47759 0.82394 0.37867 0.0
O427 O 0.48887 0.88663 0.30962 0.0
O428 O 0.51961 0.88323 0.27934 0.0
O429 O 0.4825 0.80229 0.31916 0.0
O430 O 0.49992 0.82751 0.29023 0.0
C431 C 0.50363 0.89645 0.29257 0.0
C432 C 0.49476 0.80492 0.29779 0.0
O433 O 0.45968 0.85536 0.35625 0.0
Mg434 Mg 0.0937 0.51791 0.32201 0.0
O435 O 0.13593 0.51619 0.30632 0.0
O436 O 0.16471 0.5192 0.33833 0.0
Mg437 Mg 0.14078 0.52129 0.37482 0.0
C438 C 0.15954 0.51696 0.31474 0.0
C439 C 0.08635 0.50753 0.26244 0.0
O440 O 0.10868 0.51978 0.2597 0.0
O441 O 0.09792 0.47671 0.33498 0.0
O442 O 0.12676 0.48072 0.3668 0.0
O443 O 0.09361 0.5606 0.32097 0.0
O444 O 0.10792 0.53726 0.35301 0.0
C445 C 0.11208 0.46714 0.35255 0.0
C446 C 0.1048 0.55927 0.34299 0.0
O447 O 0.07638 0.50484 0.28441 0.0
Mg448 Mg 0.6811 0.53017 0.8196 0.0
O449 O 0.65688 0.49414 0.8193 0.0
O450 O 0.68335 0.46106 0.82594 0.0
Mg451 Mg 0.72593 0.47644 0.82474 0.0
C452 C 0.66046 0.47051 0.82259 0.0
C453 C 0.62248 0.54874 0.8149 0.0
O454 O 0.6216 0.53034 0.79813 0.0
O455 O 0.68897 0.52607 0.86182 0.0
O456 O 0.72098 0.4969 0.86311 0.0
O457 O 0.68545 0.5287 0.77768 0.0
O458 O 0.71342 0.51133 0.80472 0.0
C459 C 0.70644 0.5135 0.8739 0.0
C460 C 0.70682 0.51583 0.78157 0.0
O461 O 0.64387 0.55304 0.82669 0.0
Mg462 Mg 0.45756 0.6787 0.82734 0.0
O463 O 0.49585 0.65545 0.83134 0.0
O464 O 0.52858 0.68392 0.83355 0.0
Mg465 Mg 0.51252 0.7238 0.82866 0.0
C466 C 0.52024 0.66108 0.83381 0.0
C467 C 0.40862 0.65072 0.84467 0.0
O468 O 0.40244 0.67476 0.84741 0.0
O469 O 0.46032 0.69114 0.86873 0.0
O470 O 0.49262 0.71996 0.86737 0.0
O471 O 0.46046 0.67758 0.78492 0.0
O472 O 0.47858 0.70676 0.80953 0.0
C473 C 0.47495 0.70767 0.87945 0.0
C474 C 0.47539 0.69733 0.78725 0.0
O475 O 0.43172 0.64508 0.83734 0.0
Mg476 Mg 0.29368 0.47193 0.83447 0.0
O477 O 0.31661 0.50908 0.83535 0.0
O478 O 0.2871 0.54023 0.83921 0.0
Mg479 Mg 0.2455 0.52372 0.83555 0.0
C480 C 0.3109 0.53247 0.83806 0.0
C481 C 0.32767 0.42872 0.85579 0.0
O482 O 0.30373 0.42262 0.86306 0.0
O483 O 0.28263 0.47667 0.87608 0.0
O484 O 0.24899 0.50411 0.87422 0.0
O485 O 0.29084 0.47215 0.79201 0.0
O486 O 0.26171 0.48954 0.81763 0.0
C487 C 0.26349 0.48855 0.88647 0.0
C488 C 0.26895 0.48445 0.79486 0.0
O489 O 0.33098 0.44935 0.84374 0.0
Mg490 Mg 0.51498 0.31698 0.84485 0.0
O491 O 0.47762 0.34213 0.84775 0.0
O492 O 0.44447 0.31508 0.85474 0.0
Mg493 Mg 0.45891 0.27418 0.8534 0.0
C494 C 0.45324 0.33761 0.85204 0.0
C495 C 0.54533 0.36813 0.83452 0.0
O496 O 0.52936 0.36915 0.81494 0.0
O497 O 0.51428 0.30886 0.88739 0.0
O498 O 0.48179 0.28037 0.89034 0.0
O499 O 0.51026 0.31208 0.80252 0.0
O500 O 0.49302 0.28703 0.83151 0.0
C501 C 0.50046 0.29323 0.90028 0.0
C502 C 0.49636 0.29221 0.80793 0.0
O503 O 0.54289 0.3502 0.85042 0.0
Mg504 Mg 0.68969 0.45973 0.161 0.0
O505 O 0.6728 0.4998 0.16296 0.0
O506 O 0.70683 0.52642 0.16688 0.0
Mg507 Mg 0.74472 0.50351 0.17162 0.0
C508 C 0.68221 0.5222 0.16443 0.0
C509 C 0.65195 0.42551 0.13062 0.0
O510 O 0.67518 0.41786 0.12272 0.0
O511 O 0.70609 0.4678 0.12134 0.0
O512 O 0.74199 0.49082 0.13019 0.0
O513 O 0.68724 0.45491 0.2034 0.0
O514 O 0.72147 0.47031 0.18279 0.0
C515 C 0.72728 0.47902 0.11446 0.0
C516 C 0.71084 0.4642 0.20403 0.0
O517 O 0.65081 0.44406 0.14595 0.0
Mg518 Mg 0.55147 0.68253 0.15191 0.0
O519 O 0.51279 0.66025 0.15018 0.0
O520 O 0.47987 0.68745 0.14339 0.0
Mg521 Mg 0.49757 0.72708 0.13964 0.0
C522 C 0.48836 0.665 0.14719 0.0
C523 C 0.56799 0.62587 0.16173 0.0
O524 O 0.54563 0.62555 0.17425 0.0
O525 O 0.55189 0.68718 0.10884 0.0
O526 O 0.51997 0.71592 0.10349 0.0
O527 O 0.54563 0.69039 0.19343 0.0
O528 O 0.53157 0.71498 0.16237 0.0
C529 C 0.5383 0.70185 0.09464 0.0
C530 C 0.53326 0.71065 0.18629 0.0
O531 O 0.57513 0.646 0.15037 0.0
Mg532 Mg 0.3125 0.5489 0.19106 0.0
O533 O 0.33795 0.51313 0.1911 0.0
O534 O 0.31019 0.48101 0.18385 0.0
Mg535 Mg 0.26754 0.49506 0.18542 0.0
C536 C 0.33346 0.48969 0.18695 0.0
C537 C 0.3693 0.5695 0.17298 0.0
O538 O 0.37385 0.54625 0.16522 0.0
O539 O 0.30536 0.54427 0.14881 0.0
O540 O 0.27331 0.51514 0.1471 0.0
O541 O 0.30708 0.5477 0.23326 0.0
O542 O 0.28104 0.52904 0.20551 0.0
C543 C 0.28827 0.53148 0.13646 0.0
C544 C 0.2864 0.53402 0.22879 0.0
O545 O 0.34765 0.57476 0.18387 0.0
Mg546 Mg 0.46049 0.32443 0.14942 0.0
O547 O 0.49802 0.34791 0.14184 0.0
O548 O 0.52847 0.32024 0.12873 0.0
Mg549 Mg 0.51223 0.27995 0.1307 0.0
C550 C 0.52119 0.34285 0.13379 0.0
C551 C 0.43758 0.37894 0.1629 0.0
O552 O 0.45839 0.38074 0.17759 0.0
O553 O 0.45344 0.31817 0.10705 0.0
O554 O 0.48331 0.28829 0.09848 0.0
O555 O 0.472 0.31777 0.19017 0.0
O556 O 0.48279 0.293 0.15817 0.0
C557 C 0.46387 0.30218 0.09186 0.0
C558 C 0.48387 0.29759 0.18207 0.0
O559 O 0.43446 0.35932 0.14927 0.0
Mg560 Mg 0.89557 0.66054 0.48077 0.0
O561 O 0.85242 0.67327 0.48236 0.0
O562 O 0.82574 0.63995 0.47679 0.0
Mg563 Mg 0.85231 0.60519 0.47372 0.0
C564 C 0.82942 0.6636 0.48048 0.0
C565 C 0.93264 0.70466 0.49724 0.0
O566 O 0.94992 0.68957 0.48645 0.0
O567 O 0.89187 0.64505 0.52102 0.0
O568 O 0.8652 0.61183 0.51493 0.0
O569 O 0.89629 0.66345 0.438 0.0
O570 O 0.88434 0.62947 0.45972 0.0
C571 C 0.87883 0.62614 0.52942 0.0
C572 C 0.88707 0.64056 0.4382 0.0
O573 O 0.90844 0.69861 0.49663 0.0
Mg574 Mg 0.88541 0.31395 0.51274 0.0
O575 O 0.84414 0.29602 0.51624 0.0
O576 O 0.81613 0.32691 0.5273 0.0
Mg577 Mg 0.83876 0.36399 0.53067 0.0
C578 C 0.82092 0.30384 0.5216 0.0
C579 C 0.92699 0.27683 0.49551 0.0
O580 O 0.93988 0.29336 0.50943 0.0
O581 O 0.87304 0.33126 0.47469 0.0
O582 O 0.8456 0.36177 0.48778 0.0
O583 O 0.89433 0.3087 0.55442 0.0
O584 O 0.87435 0.34189 0.5376 0.0
C585 C 0.85745 0.34972 0.47012 0.0
C586 C 0.88262 0.33027 0.55746 0.0
O587 O 0.9022 0.27916 0.49331 0.0
Mg588 Mg 0.70568 0.8167 0.46962 0.0
O589 O 0.68011 0.81972 0.50476 0.0
O590 O 0.70622 0.82669 0.53812 0.0
Mg591 Mg 0.74902 0.82126 0.52495 0.0
C592 C 0.68339 0.82447 0.52822 0.0
C593 C 0.64733 0.81597 0.44885 0.0
O594 O 0.64403 0.80074 0.4683 0.0
O595 O 0.71652 0.85845 0.47267 0.0
O596 O 0.74769 0.85864 0.50276 0.0
O597 O 0.70816 0.77438 0.4725 0.0
O598 O 0.73593 0.80094 0.49059 0.0
C599 C 0.73453 0.86973 0.48532 0.0
C600 C 0.72902 0.77791 0.48624 0.0
O601 O 0.67002 0.82529 0.4446 0.0
Mg602 Mg 0.12814 0.66794 0.50602 0.0
O603 O 0.16777 0.68838 0.50743 0.0
O604 O 0.20011 0.66017 0.51281 0.0
Mg605 Mg 0.18079 0.62114 0.51582 0.0
C606 C 0.19215 0.68291 0.50967 0.0
C607 C 0.08507 0.7088 0.49304 0.0
O608 O 0.07051 0.69367 0.50702 0.0
O609 O 0.13765 0.65365 0.46612 0.0
O610 O 0.16824 0.62423 0.47419 0.0
O611 O 0.12339 0.66937 0.54871 0.0
O612 O 0.14363 0.63894 0.52755 0.0
C613 C 0.15344 0.63628 0.45873 0.0
C614 C 0.13671 0.64845 0.54892 0.0
O615 O 0.10926 0.70355 0.48984 0.0
Mg616 Mg 0.30908 0.16806 0.45516 0.0
O617 O 0.32992 0.16393 0.49333 0.0
O618 O 0.29872 0.16104 0.52305 0.0
Mg619 Mg 0.25844 0.16835 0.50467 0.0
C620 C 0.3229 0.16077 0.51635 0.0
C621 C 0.36903 0.16607 0.43915 0.0
O622 O 0.37163 0.18062 0.45921 0.0
O623 O 0.29459 0.12713 0.45733 0.0
O624 O 0.26008 0.13033 0.48364 0.0
O625 O 0.3094 0.21066 0.45716 0.0
O626 O 0.27775 0.18623 0.472 0.0
C627 C 0.27422 0.11769 0.46807 0.0
C628 C 0.28665 0.20868 0.46811 0.0
O629 O 0.34641 0.15738 0.43352 0.0
Mg630 Mg 0.10444 0.32188 0.4728 0.0
O631 O 0.14444 0.3022 0.47201 0.0
O632 O 0.17687 0.33071 0.4696 0.0
Mg633 Mg 0.15699 0.36957 0.46815 0.0
C634 C 0.16888 0.30783 0.4712 0.0
C635 C 0.06151 0.28414 0.49181 0.0
O636 O 0.04675 0.30414 0.48746 0.0
O637 O 0.11205 0.33349 0.51385 0.0
O638 O 0.14314 0.36316 0.509 0.0
O639 O 0.10167 0.3231 0.42996 0.0
O640 O 0.12047 0.35234 0.45386 0.0
C641 C 0.12777 0.35003 0.52301 0.0
C642 C 0.11466 0.34416 0.43165 0.0
O643 O 0.08582 0.2851 0.48628 0.0
Mg644 Mg 0.68797 0.15501 0.52359 0.0
O645 O 0.66694 0.15388 0.4853 0.0
O646 O 0.69764 0.1453 0.45619 0.0
Mg647 Mg 0.73843 0.14615 0.47481 0.0
C648 C 0.67366 0.14908 0.46248 0.0
C649 C 0.62762 0.16093 0.53955 0.0
O650 O 0.62596 0.1744 0.51865 0.0
O651 O 0.69437 0.11247 0.52165 0.0
O652 O 0.72942 0.10908 0.49609 0.0
O653 O 0.69486 0.19676 0.52157 0.0
O654 O 0.7223 0.16796 0.50676 0.0
C655 C 0.71263 0.09937 0.51134 0.0
C656 C 0.71703 0.19149 0.51059 0.0
O657 O 0.64939 0.15053 0.54539 0.0
Mg658 Mg 0.32863 0.82257 0.54331 0.0
O659 O 0.35498 0.8262 0.50859 0.0
O660 O 0.32888 0.8311 0.47486 0.0
Mg661 Mg 0.28599 0.82487 0.48764 0.0
C662 C 0.35173 0.83002 0.48493 0.0
C663 C 0.35887 0.83145 0.5925 0.0
O664 O 0.33471 0.82724 0.60037 0.0
O665 O 0.31588 0.864 0.54055 0.0
O666 O 0.28534 0.86227 0.50997 0.0
O667 O 0.32858 0.78027 0.5403 0.0
O668 O 0.29928 0.80536 0.52228 0.0
C669 C 0.29732 0.87415 0.52766 0.0
C670 C 0.30761 0.78274 0.52653 0.0
O671 O 0.36338 0.8317 0.56881 0.0
H672 H 0.03535 0.49532 0.25554 0.0
H673 H 0.11237 0.48648 0.22232 0.0
H674 H 0.0954 0.45365 0.19387 0.0
H675 H 0.06067 0.42234 0.1846 0.0
H676 H 0.98381 0.43147 0.21855 0.0
H677 H 0.99855 0.46974 0.23995 0.0
C678 C 0.04822 0.48666 0.24158 0.0
C679 C 0.07509 0.49287 0.24127 0.0
C680 C 0.03841 0.4677 0.22556 0.0
C681 C 0.09159 0.48186 0.22295 0.0
C682 C 0.08193 0.46298 0.20681 0.0
C683 C 0.0469 0.4331 0.19606 0.0
C684 C 0.02141 0.42358 0.20055 0.0
C685 C 0.05565 0.45493 0.20881 0.0
C686 C 0.00374 0.43801 0.2152 0.0
C687 C 0.01215 0.4599 0.22755 0.0
H688 H 0.5341 0.01425 0.20882 0.0
H689 H 0.61183 0.01888 0.24157 0.0
H690 H 0.59599 0.04916 0.273 0.0
H691 H 0.56213 0.07968 0.28613 0.0
H692 H 0.48502 0.07644 0.25189 0.0
H693 H 0.49832 0.03989 0.22673 0.0
C694 C 0.5474 0.02134 0.22326 0.0
C695 C 0.57417 0.01465 0.22254 0.0
C696 C 0.5383 0.0392 0.24097 0.0
C697 C 0.59118 0.02403 0.24142 0.0
C698 C 0.58215 0.04138 0.25942 0.0
C699 C 0.54798 0.07046 0.27378 0.0
C700 C 0.5228 0.08106 0.27055 0.0
C701 C 0.55603 0.04993 0.25867 0.0
C702 C 0.50468 0.06888 0.25445 0.0
C703 C 0.51229 0.048 0.23995 0.0
H704 H 0.9258 0.57266 0.19975 0.0
H705 H 0.00877 0.56154 0.21305 0.0
H706 H 0.99942 0.52307 0.23721 0.0
H707 H 0.96729 0.49833 0.26194 0.0
H708 H 0.88427 0.51203 0.25131 0.0
H709 H 0.89393 0.54356 0.21881 0.0
C710 C 0.94188 0.56126 0.20708 0.0
C711 C 0.96788 0.57004 0.2049 0.0
C712 C 0.93627 0.53996 0.22211 0.0
C713 C 0.98854 0.55521 0.21468 0.0
C714 C 0.98319 0.53334 0.2287 0.0
C715 C 0.95136 0.50771 0.25197 0.0
C716 C 0.92518 0.50321 0.25931 0.0
C717 C 0.95707 0.5264 0.23377 0.0
C718 C 0.90465 0.51555 0.24632 0.0
C719 C 0.91014 0.53356 0.22769 0.0
H720 H 0.45718 0.92144 0.29229 0.0
H721 H 0.5391 0.92948 0.2723 0.0
H722 H 0.52872 0.96644 0.24616 0.0
H723 H 0.49535 0.99067 0.22271 0.0
H724 H 0.41309 0.98002 0.2401 0.0
H725 H 0.42451 0.9499 0.27344 0.0
C726 C 0.47287 0.93184 0.28295 0.0
C727 C 0.49881 0.92268 0.28402 0.0
C728 C 0.46655 0.95218 0.26689 0.0
C729 C 0.51893 0.93616 0.2716 0.0
C730 C 0.51298 0.95713 0.25648 0.0
C731 C 0.48 0.98226 0.23423 0.0
C732 C 0.45345 0.98726 0.22868 0.0
C733 C 0.48669 0.96443 0.25294 0.0
C734 C 0.4337 0.97613 0.24371 0.0
C735 C 0.4402 0.95894 0.26283 0.0
H736 H 0.11361 0.50965 0.76497 0.0
H737 H 0.04492 0.4912 0.72044 0.0
H738 H 0.01741 0.51653 0.74859 0.0
H739 H 0.01455 0.55003 0.78029 0.0
H740 H 0.08367 0.57169 0.8227 0.0
H741 H 0.10907 0.53842 0.80169 0.0
C742 C 0.09253 0.5107 0.76186 0.0
C743 C 0.08136 0.49907 0.74039 0.0
C744 C 0.07692 0.52607 0.77765 0.0
C745 C 0.05401 0.50045 0.73657 0.0
C746 C 0.03827 0.51491 0.75266 0.0
C747 C 0.03501 0.54709 0.78543 0.0
C748 C 0.04734 0.56376 0.80254 0.0
C749 C 0.04975 0.52879 0.77244 0.0
C750 C 0.07371 0.55931 0.80941 0.0
C751 C 0.08835 0.54044 0.79718 0.0
H752 H 0.47003 0.00686 0.75893 0.0
H753 H 0.39056 0.01232 0.73032 0.0
H754 H 0.40395 0.04592 0.7013 0.0
H755 H 0.43616 0.07866 0.68979 0.0
H756 H 0.51475 0.07504 0.72067 0.0
H757 H 0.50396 0.0356 0.74254 0.0
C758 C 0.45575 0.015 0.74597 0.0
C759 C 0.42922 0.00749 0.74724 0.0
C760 C 0.46339 0.03489 0.72984 0.0
C761 C 0.41105 0.01805 0.73007 0.0
C762 C 0.41867 0.03734 0.71347 0.0
C763 C 0.45114 0.06884 0.70068 0.0
C764 C 0.47607 0.07996 0.70393 0.0
C765 C 0.44449 0.04668 0.71403 0.0
C766 C 0.49528 0.06702 0.71816 0.0
C767 C 0.4891 0.04452 0.73077 0.0
H768 H 0.91798 0.46157 0.74485 0.0
H769 H 0.98836 0.47034 0.69973 0.0
H770 H 0.01171 0.44073 0.72727 0.0
H771 H 0.00994 0.40761 0.76002 0.0
H772 H 0.93949 0.39889 0.80509 0.0
H773 H 0.91862 0.43352 0.782 0.0
C774 C 0.93854 0.45729 0.74125 0.0
C775 C 0.95119 0.46764 0.71989 0.0
C776 C 0.95181 0.44008 0.75703 0.0
C777 C 0.97801 0.46235 0.71583 0.0
C778 C 0.99138 0.44534 0.73153 0.0
C779 C 0.9902 0.4136 0.76514 0.0
C780 C 0.97612 0.40027 0.78389 0.0
C781 C 0.97815 0.43334 0.75156 0.0
C782 C 0.95075 0.40863 0.79061 0.0
C783 C 0.93869 0.42835 0.77728 0.0
H784 H 0.52493 0.98645 0.78703 0.0
H785 H 0.60211 0.99503 0.75377 0.0
H786 H 0.59289 0.96061 0.72421 0.0
H787 H 0.56633 0.92345 0.71342 0.0
H788 H 0.49071 0.91264 0.74922 0.0
H789 H 0.49564 0.9528 0.77173 0.0
C790 C 0.53949 0.98119 0.77292 0.0
C791 C 0.56437 0.99286 0.77296 0.0
C792 C 0.53445 0.96074 0.75661 0.0
C793 C 0.58296 0.986 0.75442 0.0
C794 C 0.57773 0.96628 0.73754 0.0
C795 C 0.55063 0.93017 0.72564 0.0
C796 C 0.52844 0.91487 0.73003 0.0
C797 C 0.55406 0.95274 0.73931 0.0
C798 C 0.50822 0.9239 0.74587 0.0
C799 C 0.51104 0.94682 0.75881 0.0
H800 H 0.20977 0.04198 0.40346 0.0
H801 H 0.2881 0.01772 0.38279 0.0
H802 H 0.3067 0.04295 0.41694 0.0
H803 H 0.30129 0.07893 0.44612 0.0
H804 H 0.223 0.10256 0.46748 0.0
H805 H 0.20396 0.07024 0.44011 0.0
C806 C 0.23083 0.04161 0.40691 0.0
C807 C 0.24751 0.02866 0.39007 0.0
C808 C 0.24153 0.05639 0.4265 0.0
C809 C 0.27473 0.02785 0.39518 0.0
C810 C 0.28549 0.04245 0.41464 0.0
C811 C 0.28009 0.07648 0.44534 0.0
C812 C 0.26363 0.09355 0.45822 0.0
C813 C 0.26919 0.05793 0.42941 0.0
C814 C 0.23618 0.08984 0.45752 0.0
C815 C 0.22521 0.07146 0.44171 0.0
H816 H 0.90793 0.23492 0.47141 0.0
H817 H 0.97876 0.27859 0.48303 0.0
H818 H 0.00165 0.25349 0.45119 0.0
H819 H 0.99926 0.22408 0.41539 0.0
H820 H 0.92843 0.1808 0.40262 0.0
H821 H 0.90797 0.20039 0.43978 0.0
C822 C 0.9285 0.23862 0.46723 0.0
C823 C 0.94157 0.25875 0.47937 0.0
C824 C 0.94145 0.22432 0.44852 0.0
C825 C 0.9683 0.26313 0.47407 0.0
C826 C 0.98136 0.24891 0.45568 0.0
C827 C 0.97957 0.2185 0.42111 0.0
C828 C 0.96519 0.20141 0.40609 0.0
C829 C 0.96782 0.23016 0.44213 0.0
C830 C 0.93987 0.19398 0.41388 0.0
C831 C 0.92807 0.20538 0.43497 0.0
H832 H 0.70667 0.90554 0.45979 0.0
H833 H 0.78409 0.88897 0.48921 0.0
H834 H 0.80309 0.92188 0.46245 0.0
H835 H 0.79871 0.94849 0.42436 0.0
H836 H 0.72117 0.9655 0.39543 0.0
H837 H 0.70128 0.93978 0.42864 0.0
C838 C 0.72757 0.90969 0.46088 0.0
C839 C 0.74402 0.89442 0.47588 0.0
C840 C 0.73846 0.92846 0.44524 0.0
C841 C 0.77099 0.90029 0.4776 0.0
C842 C 0.78196 0.91898 0.46212 0.0
C843 C 0.77744 0.94711 0.42578 0.0
C844 C 0.76151 0.95825 0.40708 0.0
C845 C 0.76606 0.93213 0.44485 0.0
C846 C 0.73394 0.95685 0.40943 0.0
C847 C 0.7225 0.94199 0.42833 0.0
H848 H 0.01777 0.77423 0.41817 0.0
H849 H 0.09505 0.80112 0.39715 0.0
H850 H 0.11428 0.77849 0.43309 0.0
H851 H 0.1099 0.74563 0.46592 0.0
H852 H 0.03261 0.71812 0.48623 0.0
H853 H 0.01265 0.74663 0.45527 0.0
C854 C 0.03877 0.77559 0.42174 0.0
C855 C 0.05501 0.78893 0.40469 0.0
C856 C 0.04975 0.76209 0.44208 0.0
C857 C 0.08209 0.7909 0.40988 0.0
C858 C 0.09315 0.77775 0.43031 0.0
C859 C 0.08865 0.74615 0.46386 0.0
C860 C 0.07283 0.72932 0.47793 0.0
C861 C 0.0773 0.7624 0.44581 0.0
C862 C 0.0453 0.73061 0.47542 0.0
C863 C 0.03385 0.74688 0.45765 0.0
H864 H 0.2596 0.96335 0.59595 0.0
H865 H 0.18429 0.93595 0.56978 0.0
H866 H 0.20632 0.90999 0.5377 0.0
H867 H 0.24671 0.88933 0.52313 0.0
H868 H 0.32177 0.91222 0.55394 0.0
H869 H 0.3002 0.94607 0.5779 0.0
C870 C 0.24794 0.95231 0.58271 0.0
C871 C 0.22034 0.95145 0.58529 0.0
C872 C 0.2608 0.93633 0.56543 0.0
C873 C 0.20555 0.93682 0.56821 0.0
C874 C 0.21816 0.92188 0.54999 0.0
C875 C 0.25849 0.90219 0.53449 0.0
C876 C 0.2858 0.89819 0.53689 0.0
C877 C 0.24578 0.92059 0.54929 0.0
C878 C 0.30071 0.91485 0.5519 0.0
C879 C 0.28835 0.9341 0.56569 0.0
H880 H 0.04391 0.19902 0.57295 0.0
H881 H 0.96991 0.23869 0.58044 0.0
H882 H 0.98009 0.26401 0.54307 0.0
H883 H 0.01314 0.27983 0.51326 0.0
H884 H 0.08748 0.2409 0.50589 0.0
H885 H 0.07399 0.21041 0.53821 0.0
C886 C 0.02972 0.21276 0.56607 0.0
C887 C 0.00646 0.21731 0.57986 0.0
C888 C 0.03596 0.22777 0.54486 0.0
C889 C 0.98821 0.23509 0.5705 0.0
C890 C 0.99403 0.24968 0.54915 0.0
C891 C 0.02609 0.26424 0.51811 0.0
C892 C 0.05137 0.26288 0.50735 0.0
C893 C 0.01835 0.24696 0.53692 0.0
C894 C 0.06798 0.2426 0.51406 0.0
C895 C 0.06032 0.22516 0.5326 0.0
H896 H 0.72145 0.0135 0.58981 0.0
H897 H 0.80388 0.02849 0.57663 0.0
H898 H 0.79291 0.0516 0.5379 0.0
H899 H 0.75981 0.07602 0.51478 0.0
H900 H 0.67744 0.06625 0.53235 0.0
H901 H 0.68834 0.03211 0.56186 0.0
C902 C 0.7371 0.02107 0.57802 0.0
C903 C 0.7634 0.01979 0.58633 0.0
C904 C 0.73053 0.03566 0.55673 0.0
C905 C 0.78345 0.02961 0.57081 0.0
C906 C 0.77716 0.04293 0.54875 0.0
C907 C 0.74415 0.0658 0.52436 0.0
C908 C 0.7179 0.07393 0.52181 0.0
C909 C 0.75071 0.04744 0.5425 0.0
C910 C 0.69783 0.06053 0.53432 0.0
C911 C 0.70408 0.04114 0.55131 0.0
H912 H 0.90218 0.73889 0.52245 0.0
H913 H 0.98309 0.71638 0.51093 0.0
H914 H 0.99676 0.74294 0.5464 0.0
H915 H 0.9847 0.76641 0.58482 0.0
H916 H 0.90382 0.7883 0.59705 0.0
H917 H 0.89127 0.76855 0.55687 0.0
C918 C 0.92288 0.74018 0.52737 0.0
C919 C 0.94148 0.72512 0.51448 0.0
C920 C 0.93059 0.75518 0.54807 0.0
C921 C 0.96828 0.72743 0.52076 0.0
C922 C 0.97613 0.74255 0.54113 0.0
C923 C 0.96441 0.76733 0.57842 0.0
C924 C 0.94512 0.77832 0.59411 0.0
C925 C 0.95729 0.75555 0.55559 0.0
C926 C 0.91902 0.77983 0.58538 0.0
C927 C 0.9118 0.76836 0.5625 0.0
H928 H 0.48163 0.27126 0.05462 0.0
H929 H 0.41559 0.31868 0.07485 0.0
H930 H 0.38929 0.29935 0.04118 0.0
H931 H 0.38286 0.26381 0.01128 0.0
H932 H 0.44853 0.21474 0.99397 0.0
H933 H 0.47693 0.23969 0.02146 0.0
C934 C 0.46164 0.27778 0.05142 0.0
C935 C 0.45047 0.29601 0.06765 0.0
C936 C 0.44632 0.26588 0.03283 0.0
C937 C 0.42468 0.30452 0.06282 0.0
C938 C 0.40952 0.29331 0.04368 0.0
C939 C 0.40354 0.25897 0.01304 0.0
C940 C 0.41342 0.23717 0.00091 0.0
C941 C 0.41977 0.27315 0.02937 0.0
C942 C 0.44028 0.23118 0.00338 0.0
C943 C 0.45659 0.24545 0.01909 0.0
H944 H 0.46294 0.77159 0.978 0.0
H945 H 0.38133 0.75265 0.96503 0.0
H946 H 0.3942 0.72188 0.9328 0.0
H947 H 0.4278 0.70619 0.90339 0.0
H948 H 0.50892 0.72819 0.91376 0.0
H949 H 0.49721 0.7514 0.95222 0.0
C950 C 0.44801 0.76032 0.96853 0.0
C951 C 0.42122 0.76474 0.97351 0.0
C952 C 0.45548 0.74333 0.94936 0.0
C953 C 0.4021 0.74989 0.9612 0.0
C954 C 0.40943 0.7323 0.94274 0.0
C955 C 0.44301 0.71543 0.91449 0.0
C956 C 0.46909 0.71578 0.90563 0.0
C957 C 0.43595 0.7297 0.93589 0.0
C958 C 0.48862 0.72793 0.92011 0.0
C959 C 0.48193 0.7413 0.94202 0.0
H960 H 0.29276 0.46765 0.92426 0.0
H961 H 0.21337 0.48925 0.9046 0.0
H962 H 0.19605 0.46246 0.9383 0.0
H963 H 0.20329 0.4258 0.96633 0.0
H964 H 0.28269 0.40496 0.98671 0.0
H965 H 0.30009 0.43891 0.96029 0.0
C966 C 0.27174 0.46712 0.92793 0.0
C967 C 0.25437 0.47979 0.91155 0.0
C968 C 0.26184 0.45149 0.94723 0.0
C969 C 0.2272 0.47943 0.91678 0.0
C970 C 0.21721 0.46392 0.93594 0.0
C971 C 0.22434 0.42926 0.9656 0.0
C972 C 0.24167 0.41251 0.97783 0.0
C973 C 0.23429 0.44874 0.95023 0.0
C974 C 0.2689 0.41744 0.97724 0.0
C975 C 0.27893 0.43674 0.96195 0.0
H976 H 0.5243 0.23336 -0.00048 0.0
H977 H 0.60289 0.25949 0.98242 0.0
H978 H 0.58542 0.28768 0.94977 0.0
H979 H 0.54884 0.29944 0.92162 0.0
H980 H 0.47086 0.27066 0.93696 0.0
H981 H 0.48712 0.2491 0.97462 0.0
C982 C 0.53758 0.24559 0.98903 0.0
C983 C 0.56489 0.24398 0.99312 0.0
C984 C 0.52752 0.26117 0.96974 0.0
C985 C 0.58179 0.2601 0.97943 0.0
C986 C 0.57182 0.27622 0.96071 0.0
C987 C 0.53522 0.28916 0.93369 0.0
C988 C 0.50874 0.28641 0.9263 0.0
C989 C 0.54484 0.27615 0.95503 0.0
C990 C 0.49139 0.2729 0.94209 0.0
C991 C 0.50067 0.26053 0.96368 0.0
H992 H 0.75488 0.51373 0.89506 0.0
H993 H 0.67398 0.5339 0.90976 0.0
H994 H 0.68764 0.55889 0.94653 0.0
H995 H 0.72286 0.5818 0.96821 0.0
H996 H 0.80398 0.56638 0.94928 0.0
H997 H 0.79005 0.5323 0.92089 0.0
C998 C 0.74016 0.52289 0.90683 0.0
C999 C 0.71348 0.52219 0.89963 0.0
C1000 C 0.74832 0.53842 0.92696 0.0
C1001 C 0.69465 0.53435 0.91487 0.0
C1002 C 0.70248 0.54874 0.93579 0.0
C1003 C 0.73757 0.57047 0.95852 0.0
C1004 C 0.76442 0.57682 0.9606 0.0
C1005 C 0.72934 0.55198 0.94113 0.0
C1006 C 0.78319 0.562 0.94781 0.0
C1007 C 0.77521 0.54262 0.93146 0.0
H1008 H 0.51019 0.72333 0.05641 0.0
H1009 H 0.58677 0.69248 0.07407 0.0
H1010 H 0.60536 0.71336 0.03688 0.0
H1011 H 0.60156 0.74721 0.00505 0.0
H1012 H 0.52517 0.77887 0.98807 0.0
H1013 H 0.5048 0.75057 0.01898 0.0
C1014 C 0.5308 0.72059 0.05173 0.0
C1015 C 0.5472 0.70693 0.06838 0.0
C1016 C 0.54153 0.73321 0.0307 0.0
C1017 C 0.57372 0.70308 0.06175 0.0
C1018 C 0.58446 0.71526 0.0406 0.0
C1019 C 0.58038 0.74755 0.00775 0.0
C1020 C 0.56501 0.76563 0.99486 0.0
C1021 C 0.56884 0.73149 0.02584 0.0
C1022 C 0.53753 0.76542 -0.00195 0.0
C1023 C 0.52585 0.7493 0.01582 0.0
H1024 H 0.27493 0.59636 0.03937 0.0
H1025 H 0.19356 0.57839 0.05448 0.0
H1026 H 0.2071 0.54542 0.08435 0.0
H1027 H 0.24131 0.52909 0.11261 0.0
H1028 H 0.32208 0.55212 0.10188 0.0
H1029 H 0.30973 0.57533 0.06355 0.0
C1030 C 0.26019 0.5846 0.04852 0.0
C1031 C 0.2333 0.58989 0.04499 0.0
C1032 C 0.2681 0.56691 0.06684 0.0
C1033 C 0.21438 0.57472 0.05711 0.0
C1034 C 0.22212 0.55601 0.07429 0.0
C1035 C 0.25635 0.5385 0.10142 0.0
C1036 C 0.28249 0.53922 0.11017 0.0
C1037 C 0.24884 0.55301 0.08035 0.0
C1038 C 0.30177 0.55158 0.09561 0.0
C1039 C 0.29469 0.56493 0.07378 0.0
H1040 H 0.70078 0.46158 0.07288 0.0
H1041 H 0.77774 0.48569 0.09809 0.0
H1042 H 0.79788 0.4659 0.0613 0.0
H1043 H 0.79444 0.43328 0.02829 0.0
H1044 H 0.71765 0.40931 0.00276 0.0
H1045 H 0.69677 0.43816 0.03267 0.0
C1046 C 0.72186 0.46314 0.06993 0.0
C1047 C 0.73776 0.47427 0.0887 0.0
C1048 C 0.73348 0.4515 0.04875 0.0
C1049 C 0.76499 0.47678 0.08424 0.0
C1050 C 0.77664 0.46535 0.06321 0.0
C1051 C 0.77316 0.43509 0.02861 0.0
C1052 C 0.75766 0.41861 0.01397 0.0
C1053 C 0.76122 0.45134 0.04625 0.0
C1054 C 0.73011 0.42154 0.0141 0.0
C1055 C 0.71808 0.43785 0.03144 0.0
H1056 H 0.97069 0.23787 0.28735 0.0
H1057 H 0.00421 0.17768 0.24251 0.0
H1058 H 0.01572 0.20834 0.20909 0.0
H1059 H 0.01846 0.25303 0.19427 0.0
H1060 H 0.98349 0.31199 0.24018 0.0
H1061 H 0.96992 0.28089 0.27135 0.0
C1062 C 0.98053 0.23142 0.27024 0.0
C1063 C 0.98707 0.20575 0.26748 0.0
C1064 C 0.98665 0.24892 0.25127 0.0
C1065 C 0.99919 0.19747 0.24503 0.0
C1066 C 0.00575 0.21498 0.226 0.0
C1067 C 0.00754 0.25897 0.21092 0.0
C1068 C 0.00211 0.28487 0.21486 0.0
C1069 C 0.99987 0.24086 0.2291 0.0
C1070 C 0.9879 0.29226 0.23651 0.0
C1071 C 0.98024 0.27449 0.25452 0.0
H1072 H 0.7451 0.98232 0.28829 0.0
H1073 H 0.81414 0.96316 0.24459 0.0
H1074 H 0.78874 0.9677 0.20527 0.0
H1075 H 0.74595 0.97445 0.18378 0.0
H1076 H 0.67733 0.99216 0.22903 0.0
H1077 H 0.70373 0.9908 0.26734 0.0
C1078 C 0.75485 0.97955 0.27022 0.0
C1079 C 0.7815 0.97249 0.26938 0.0
C1080 C 0.7401 0.98162 0.24796 0.0
C1081 C 0.79363 0.96869 0.24573 0.0
C1082 C 0.77908 0.97115 0.22328 0.0
C1083 C 0.73682 0.97811 0.20201 0.0
C1084 C 0.70961 0.98316 0.20346 0.0
C1085 C 0.75213 0.97714 0.22422 0.0
C1086 C 0.69813 0.98795 0.22727 0.0
C1087 C 0.71322 0.98728 0.24925 0.0
H1088 H 0.97872 0.73832 0.19629 0.0
H1089 H 0.97364 0.68146 0.25505 0.0
H1090 H 0.99021 0.71139 0.28611 0.0
H1091 H 0.00828 0.75236 0.2964 0.0
H1092 H 0.01714 0.80949 0.23848 0.0
H1093 H 0.9968 0.78093 0.20729 0.0
C1094 C 0.98113 0.73268 0.21593 0.0
C1095 C 0.97513 0.70771 0.22335 0.0
C1096 C 0.99134 0.74996 0.23381 0.0
C1097 C 0.97842 0.70049 0.24881 0.0
C1098 C 0.9878 0.7176 0.26664 0.0
C1099 C 0.00548 0.75883 0.27706 0.0
C1100 C 0.01408 0.78304 0.2698 0.0
C1101 C 0.99462 0.74221 0.25931 0.0
C1102 C 0.01061 0.7909 0.24454 0.0
C1103 C 0.99907 0.77456 0.22671 0.0
H1104 H 0.27934 0.01842 0.27464 0.0
H1105 H 0.21558 0.03692 0.22379 0.0
H1106 H 0.24665 0.03875 0.18821 0.0
H1107 H 0.29239 0.03683 0.17219 0.0
H1108 H 0.35551 0.01971 0.22455 0.0
H1109 H 0.32405 0.01591 0.25898 0.0
C1110 C 0.27205 0.0225 0.25574 0.0
C1111 C 0.24516 0.02739 0.25185 0.0
C1112 C 0.28998 0.02415 0.23571 0.0
C1113 C 0.23619 0.03294 0.22725 0.0
C1114 C 0.25397 0.03415 0.20696 0.0
C1115 C 0.29927 0.03236 0.19114 0.0
C1116 C 0.32635 0.02867 0.19569 0.0
C1117 C 0.281 0.03018 0.21107 0.0
C1118 C 0.33485 0.02275 0.22039 0.0
C1119 C 0.31687 0.02046 0.24016 0.0
H1120 H 0.00368 0.72869 0.80892 0.0
H1121 H 0.00583 0.66774 0.75419 0.0
H1122 H 0.98734 0.6953 0.72205 0.0
H1123 H 0.9708 0.73623 0.70906 0.0
H1124 H 0.96613 0.79771 0.76275 0.0
H1125 H 0.98546 0.77049 0.7957 0.0
C1126 C -2e-05 0.72151 0.78998 0.0
C1127 C 0.00603 0.69615 0.78405 0.0
C1128 C 0.98906 0.73754 0.77136 0.0
C1129 C 0.00111 0.68706 0.75943 0.0
C1130 C 0.99066 0.70285 0.74091 0.0
C1131 C 0.97417 0.74382 0.72791 0.0
C1132 C 0.96735 0.76898 0.73343 0.0
C1133 C 0.98466 0.72806 0.74664 0.0
C1134 C 0.97136 0.77837 0.75807 0.0
C1135 C 0.98237 0.76282 0.77687 0.0
H1136 H 0.24471 0.98384 0.69903 0.0
H1137 H 0.18397 0.95804 0.75016 0.0
H1138 H 0.21476 0.96096 0.78579 0.0
H1139 H 0.26021 0.96652 0.80139 0.0
H1140 H 0.32102 0.98976 0.74893 0.0
H1141 H 0.28887 0.99192 0.71482 0.0
C1142 C 0.23797 0.97931 0.71802 0.0
C1143 C 0.21212 0.97063 0.72191 0.0
C1144 C 0.25596 0.98009 0.73812 0.0
C1145 C 0.2038 0.96478 0.74666 0.0
C1146 C 0.22145 0.96625 0.767 0.0
C1147 C 0.26639 0.97223 0.78254 0.0
C1148 C 0.29309 0.97765 0.77772 0.0
C1149 C 0.24781 0.97313 0.76279 0.0
C1150 C 0.30071 0.98511 0.75317 0.0
C1151 C 0.28231 0.98649 0.73363 0.0
H1152 H 0.04315 0.20467 0.73516 0.0
H1153 H 0.96255 0.20141 0.70986 0.0
H1154 H 0.94879 0.2276 0.74583 0.0
H1155 H 0.96064 0.25596 0.78088 0.0
H1156 H 0.04186 0.26431 0.80265 0.0
H1157 H 0.05472 0.23146 0.77198 0.0
C1158 C 0.02252 0.20921 0.73805 0.0
C1159 C 0.00375 0.20109 0.72026 0.0
C1160 C 0.01506 0.22538 0.75797 0.0
C1161 C 0.97718 0.20747 0.72354 0.0
C1162 C 0.96938 0.22249 0.74399 0.0
C1163 C 0.98104 0.25 0.77926 0.0
C1164 C 0.00032 0.26195 0.79404 0.0
C1165 C 0.98826 0.2322 0.76081 0.0
C1166 C 0.02679 0.25489 0.79157 0.0
C1167 C 0.03408 0.2363 0.77397 0.0
H1168 H 0.77477 0.04347 0.75291 0.0
H1169 H 0.72074 0.00353 0.70387 0.0
H1170 H 0.68714 0.00462 0.73664 0.0
H1171 H 0.67222 0.01851 0.77826 0.0
H1172 H 0.72552 0.05853 0.82792 0.0
H1173 H 0.76016 0.05603 0.79574 0.0
C1174 C 0.75578 0.03469 0.74954 0.0
C1175 C 0.75037 0.02337 0.72594 0.0
C1176 C 0.73624 0.03575 0.76841 0.0
C1177 C 0.72558 0.01224 0.72183 0.0
C1178 C 0.70621 0.01301 0.74053 0.0
C1179 C 0.69135 0.02685 0.78205 0.0
C1180 C 0.69616 0.03894 0.80535 0.0
C1181 C 0.71118 0.02508 0.76368 0.0
C1182 C 0.72124 0.04923 0.81007 0.0
C1183 C 0.74108 0.04774 0.79171 0.0
H1184 H 0.2182 0.24678 0.96994 0.0
H1185 H 0.27303 0.29637 0.00813 0.0
H1186 H 0.30547 0.26248 0.00978 0.0
H1187 H 0.31969 0.21992 -0.00271 0.0
H1188 H 0.26534 0.17026 0.95874 0.0
H1189 H 0.23134 0.203 0.96031 0.0
C1190 C 0.23706 0.25003 0.97904 0.0
C1191 C 0.24318 0.27413 0.98877 0.0
C1192 C 0.25591 0.23058 0.97948 0.0
C1193 C 0.26773 0.27803 0.00048 0.0
C1194 C 0.28643 0.2587 0.00128 0.0
C1195 C 0.30046 0.21633 0.98911 0.0
C1196 C 0.29519 0.19294 0.97749 0.0
C1197 C 0.281 0.23514 0.99021 0.0
C1198 C 0.26992 0.18823 0.96764 0.0
C1199 C 0.25047 0.20692 0.96854 0.0
H1200 H 0.21637 0.75625 0.03996 0.0
H1201 H 0.26355 0.70356 -0.0032 0.0
H1202 H 0.2964 0.73624 0.98942 0.0
H1203 H 0.31356 0.77852 -0.00195 0.0
H1204 H 0.26722 0.83163 0.04149 0.0
H1205 H 0.23227 0.8 0.04599 0.0
C1206 C 0.23359 0.75207 0.02854 0.0
C1207 C 0.23751 0.72742 0.01907 0.0
C1208 C 0.25279 0.77089 0.02477 0.0
C1209 C 0.26 0.72229 0.0044 0.0
C1210 C 0.27893 0.74096 0.00026 0.0
C1211 C 0.29583 0.78323 0.00853 0.0
C1212 C 0.29317 0.80726 0.01974 0.0
C1213 C 0.27586 0.76508 0.01093 0.0
C1214 C 0.26983 0.81319 0.03282 0.0
C1215 C 0.24984 0.79513 0.03537 0.0
H1216 H 0.78181 0.25678 0.03214 0.0
H1217 H 0.73414 0.30124 0.98093 0.0
H1218 H 0.69992 0.26896 0.98188 0.0
H1219 H 0.68164 0.23032 0.00048 0.0
H1220 H 0.72886 0.1854 0.05154 0.0
H1221 H 0.7651 0.21578 0.0476 0.0
C1222 C 0.7642 0.25914 0.02074 0.0
C1223 C 0.76046 0.28151 0.00667 0.0
C1224 C 0.74427 0.24071 0.0218 0.0
C1225 C 0.73751 0.28428 0.99201 0.0
C1226 C 0.7178 0.26591 0.99269 0.0
C1227 C 0.69985 0.22722 0.01079 0.0
C1228 C 0.70245 0.20598 0.02667 0.0
C1229 C 0.72061 0.2445 0.00817 0.0
C1230 C 0.72636 0.20179 0.03939 0.0
C1231 C 0.74708 0.2191 0.0371 0.0
H1232 H 0.7833 0.74384 0.96131 0.0
H1233 H 0.72697 0.69154 0.99338 0.0
H1234 H 0.69409 0.72503 0.99538 0.0
H1235 H 0.68025 0.76834 0.98547 0.0
H1236 H 0.73621 0.82098 0.95341 0.0
H1237 H 0.77017 0.78816 0.95383 0.0
C1238 C 0.76397 0.73987 0.96911 0.0
C1239 C 0.75766 0.71516 0.97713 0.0
C1240 C 0.7449 0.75918 0.96985 0.0
C1241 C 0.73246 0.71035 0.98711 0.0
C1242 C 0.71352 0.72948 0.98811 0.0
C1243 C 0.69986 0.77265 0.97852 0.0
C1244 C 0.70557 0.79699 0.96914 0.0
C1245 C 0.71934 0.7538 0.97902 0.0
C1246 C 0.73123 0.80236 0.96063 0.0
C1247 C 0.75069 0.78361 0.96089 0.0
H1248 H 0.52534 0.71371 0.78482 0.0
H1249 H 0.45409 0.70747 0.74099 0.0
H1250 H 0.47224 0.73635 0.70895 0.0
H1251 H 0.50549 0.76893 0.69774 0.0
H1252 H 0.57555 0.77611 0.74321 0.0
H1253 H 0.56098 0.74126 0.77043 0.0
C1254 C 0.51399 0.71847 0.76808 0.0
C1255 C 0.48832 0.70916 0.76538 0.0
C1256 C 0.52432 0.73537 0.75024 0.0
C1257 C 0.47394 0.71463 0.74334 0.0
C1258 C 0.48422 0.73127 0.72519 0.0
C1259 C 0.51779 0.76219 0.71316 0.0
C1260 C 0.54148 0.77466 0.71866 0.0
C1261 C 0.50894 0.74257 0.72902 0.0
C1262 C 0.55731 0.76641 0.73877 0.0
C1263 C 0.54893 0.74666 0.75434 0.0
H1264 H 0.2756 0.471 0.74542 0.0
H1265 H 0.22165 0.50886 0.79615 0.0
H1266 H 0.18868 0.51087 0.76276 0.0
H1267 H 0.17378 0.49899 0.72022 0.0
H1268 H 0.22738 0.4611 0.66926 0.0
H1269 H 0.26176 0.46195 0.70165 0.0
C1270 C 0.25681 0.4801 0.74903 0.0
C1271 C 0.25114 0.48966 0.7733 0.0
C1272 C 0.23767 0.48083 0.72981 0.0
C1273 C 0.22665 0.50136 0.77766 0.0
C1274 C 0.20764 0.50237 0.75861 0.0
C1275 C 0.19296 0.49086 0.71624 0.0
C1276 C 0.19789 0.47966 0.69255 0.0
C1277 C 0.21269 0.49159 0.73484 0.0
C1278 C 0.22304 0.46973 0.68743 0.0
C1279 C 0.24273 0.47022 0.70593 0.0
H1280 H 0.49951 0.29681 0.75607 0.0
H1281 H 0.47274 0.24689 0.81579 0.0
H1282 H 0.46336 0.21406 0.78503 0.0
H1283 H 0.46541 0.19814 0.74196 0.0
H1284 H 0.48936 0.24718 0.68082 0.0
H1285 H 0.49737 0.28173 0.7113 0.0
C1286 C 0.49124 0.27889 0.76224 0.0
C1287 C 0.48698 0.27437 0.78828 0.0
C1288 C 0.48581 0.25979 0.74428 0.0
C1289 C 0.47618 0.25105 0.79596 0.0
C1290 C 0.47096 0.23208 0.77838 0.0
C1291 C 0.47246 0.2164 0.7353 0.0
C1292 C 0.47737 0.22009 0.7094 0.0
C1293 C 0.47624 0.23605 0.75266 0.0
C1294 C 0.48574 0.24395 0.70081 0.0
C1295 C 0.49026 0.26363 0.71821 0.0
H1296 H 0.77261 0.50759 0.6811 0.0
H1297 H 0.83529 0.49546 0.7352 0.0
H1298 H 0.80337 0.49598 0.76983 0.0
H1299 H 0.75812 0.50219 0.78489 0.0
H1300 H 0.69588 0.51615 0.73091 0.0
H1301 H 0.72724 0.51206 0.69597 0.0
C1302 C 0.77938 0.50499 0.70044 0.0
C1303 C 0.80641 0.50169 0.70549 0.0
C1304 C 0.76098 0.50545 0.72026 0.0
C1305 C 0.81467 0.49823 0.73071 0.0
C1306 C 0.79642 0.49844 0.75055 0.0
C1307 C 0.75132 0.5039 0.76546 0.0
C1308 C 0.72472 0.50945 0.76047 0.0
C1309 C 0.76957 0.50228 0.74555 0.0
C1310 C 0.71626 0.51187 0.73522 0.0
C1311 C 0.7342 0.50967 0.71526 0.0
H1312 H 0.52411 0.20094 0.23895 0.0
H1313 H 0.50677 0.24629 0.30483 0.0
H1314 H 0.49505 0.28228 0.27731 0.0
H1315 H 0.48745 0.2996 0.23399 0.0
H1316 H 0.5069 0.2531 0.16914 0.0
H1317 H 0.52063 0.21901 0.19685 0.0
C1318 C 0.51772 0.2187 0.24732 0.0
C1319 C 0.51574 0.22093 0.27374 0.0
C1320 C 0.51164 0.23915 0.23155 0.0
C1321 C 0.50815 0.24418 0.28443 0.0
C1322 C 0.50151 0.26468 0.26872 0.0
C1323 C 0.4951 0.28215 0.22599 0.0
C1324 C 0.496 0.27896 0.19946 0.0
C1325 C 0.5029 0.26227 0.24217 0.0
C1326 C 0.506 0.25623 0.18939 0.0
C1327 C 0.51371 0.23655 0.20525 0.0
H1328 H 0.76571 0.459 0.31158 0.0
H1329 H 0.83292 0.47778 0.26477 0.0
H1330 H 0.80487 0.48025 0.22772 0.0
H1331 H 0.76214 0.47593 0.20812 0.0
H1332 H 0.69424 0.456 0.2531 0.0
H1333 H 0.72171 0.45539 0.29141 0.0
C1334 C 0.77418 0.46362 0.29328 0.0
C1335 C 0.80146 0.46806 0.29108 0.0
C1336 C 0.75786 0.46496 0.27173 0.0
C1337 C 0.81208 0.47409 0.26716 0.0
C1338 C 0.79604 0.47562 0.24586 0.0
C1339 C 0.75313 0.47181 0.2263 0.0
C1340 C 0.72615 0.46619 0.22777 0.0
C1341 C 0.76901 0.471 0.24792 0.0
C1342 C 0.71499 0.46051 0.2515 0.0
C1343 C 0.7307 0.46005 0.27336 0.0
H1344 H 0.52858 0.70617 0.23803 0.0
H1345 H 0.51455 0.75734 0.17539 0.0
H1346 H 0.50135 0.7904 0.20458 0.0
H1347 H 0.49592 0.8058 0.24743 0.0
H1348 H 0.50738 0.7558 0.31112 0.0
H1349 H 0.51953 0.72119 0.28201 0.0
C1350 C 0.52237 0.72449 0.23085 0.0
C1351 C 0.52266 0.72925 0.20455 0.0
C1352 C 0.51464 0.74367 0.24787 0.0
C1353 C 0.51444 0.75303 0.19547 0.0
C1354 C 0.50701 0.77209 0.21216 0.0
C1355 C 0.50114 0.78733 0.25499 0.0
C1356 C 0.50128 0.78335 0.28126 0.0
C1357 C 0.50746 0.76774 0.23831 0.0
C1358 C 0.50738 0.75923 0.29086 0.0
C1359 C 0.5143 0.73954 0.27424 0.0
H1360 H 0.23851 0.51241 0.22303 0.0
H1361 H 0.29183 0.54097 0.28003 0.0
H1362 H 0.25748 0.5365 0.31227 0.0
H1363 H 0.21111 0.52848 0.32318 0.0
H1364 H 0.15775 0.50154 0.26535 0.0
H1365 H 0.19339 0.50156 0.23444 0.0
C1366 C 0.24286 0.51722 0.24258 0.0
C1367 C 0.26768 0.5271 0.2491 0.0
C1368 C 0.22286 0.51533 0.26077 0.0
C1369 C 0.27287 0.53334 0.27451 0.0
C1370 C 0.25319 0.53094 0.29292 0.0
C1371 C 0.20731 0.5224 0.30387 0.0
C1372 C 0.18164 0.51545 0.29651 0.0
C1373 C 0.22789 0.52263 0.28609 0.0
C1374 C 0.17713 0.50752 0.27143 0.0
C1375 C 0.19756 0.50736 0.25375 0.0
H1376 H 0.82666 0.70831 0.50542 0.0
H1377 H 0.78026 0.65648 0.4606 0.0
H1378 H 0.74321 0.68612 0.46139 0.0
H1379 H 0.72581 0.72859 0.47124 0.0
H1380 H 0.77279 0.78009 0.51603 0.0
H1381 H 0.80747 0.74848 0.51936 0.0
C1382 C 0.80839 0.70345 0.49592 0.0
C1383 C 0.80634 0.68049 0.48259 0.0
C1384 C 0.7872 0.72046 0.49657 0.0
C1385 C 0.78237 0.67416 0.47085 0.0
C1386 C 0.76119 0.69109 0.47129 0.0
C1387 C 0.74337 0.73268 0.48222 0.0
C1388 C 0.74677 0.7568 0.49311 0.0
C1389 C 0.76359 0.71454 0.48364 0.0
C1390 C 0.76965 0.76177 0.50731 0.0
C1391 C 0.78964 0.74375 0.50909 0.0
H1392 H 0.71568 0.24048 0.52605 0.0
H1393 H 0.76426 0.18641 0.48622 0.0
H1394 H 0.8007 0.21654 0.48588 0.0
H1395 H 0.81981 0.25708 0.4996 0.0
H1396 H 0.7713 0.31071 0.54021 0.0
H1397 H 0.73398 0.28179 0.53774 0.0
C1398 C 0.73407 0.23543 0.51688 0.0
C1399 C 0.73721 0.21121 0.50621 0.0
C1400 C 0.75518 0.2526 0.51731 0.0
C1401 C 0.76125 0.20494 0.49455 0.0
C1402 C 0.78221 0.2221 0.49451 0.0
C1403 C 0.8011 0.26242 0.50797 0.0
C1404 C 0.79849 0.28594 0.52028 0.0
C1405 C 0.7796 0.24574 0.50639 0.0
C1406 C 0.77396 0.29269 0.5307 0.0
C1407 C 0.75254 0.27618 0.52926 0.0
H1408 H 0.25868 0.78347 0.50645 0.0
H1409 H 0.31989 0.73238 0.53119 0.0
H1410 H 0.28978 0.69644 0.52654 0.0
H1411 H 0.24489 0.68032 0.51947 0.0
H1412 H 0.18343 0.73236 0.49701 0.0
H1413 H 0.21489 0.76717 0.49693 0.0
C1414 C 0.26565 0.76444 0.51038 0.0
C1415 C 0.29146 0.76061 0.51924 0.0
C1416 C 0.24805 0.74408 0.50851 0.0
C1417 C 0.3001 0.73582 0.52435 0.0
C1418 C 0.28284 0.7153 0.52187 0.0
C1419 C 0.23839 0.69923 0.51439 0.0
C1420 C 0.21173 0.7037 0.50854 0.0
C1421 C 0.25655 0.71932 0.51466 0.0
C1422 C 0.20373 0.72836 0.50189 0.0
C1423 C 0.22173 0.74831 0.50175 0.0
H1424 H 0.2224 0.31075 0.46572 0.0
H1425 H 0.15927 0.25817 0.48189 0.0
H1426 H 0.19082 0.22372 0.48551 0.0
H1427 H 0.23553 0.20796 0.48176 0.0
H1428 H 0.29899 0.25917 0.46327 0.0
H1429 H 0.2681 0.29488 0.46352 0.0
C1430 C 0.21555 0.29177 0.47009 0.0
C1431 C 0.18842 0.2871 0.4733 0.0
C1432 C 0.23383 0.27185 0.47196 0.0
C1433 C 0.17995 0.26236 0.47904 0.0
C1434 C 0.19799 0.24261 0.48126 0.0
C1435 C 0.24281 0.22697 0.47821 0.0
C1436 C 0.26954 0.2309 0.47253 0.0
C1437 C 0.22489 0.2471 0.4775 0.0
C1438 C 0.2785 0.25565 0.46777 0.0
C1439 C 0.26081 0.27603 0.46773 0.0
H1440 H 0.08131 0.34368 0.09715 0.0
H1441 H 0.13791 0.35744 0.1567 0.0
H1442 H 0.17372 0.35578 0.12591 0.0
H1443 H 0.18911 0.34925 0.08235 0.0
H1444 H 0.13245 0.33557 0.02277 0.0
H1445 H 0.09662 0.33836 0.05336 0.0
C1446 C 0.10146 0.34645 0.10339 0.0
C1447 C 0.10689 0.35058 0.12921 0.0
C1448 C 0.122 0.34536 0.08562 0.0
C1449 C 0.13314 0.35418 0.13695 0.0
C1450 C 0.15366 0.35318 0.11936 0.0
C1451 C 0.16894 0.34687 0.07601 0.0
C1452 C 0.16359 0.34205 0.05028 0.0
C1453 C 0.14835 0.34856 0.09369 0.0
C1454 C 0.13725 0.33921 0.04245 0.0
C1455 C 0.11668 0.34082 0.05994 0.0
H1456 H 0.61835 0.073 0.14359 0.0
H1457 H 0.69861 0.06676 0.11722 0.0
H1458 H 0.69574 0.10866 0.09808 0.0
H1459 H 0.66773 0.14236 0.08129 0.0
H1460 H 0.58671 0.14764 0.10459 0.0
H1461 H 0.59271 0.11147 0.13327 0.0
C1462 C 0.63544 0.08112 0.1343 0.0
C1463 C 0.65843 0.06649 0.13124 0.0
C1464 C 0.63342 0.10504 0.12265 0.0
C1465 C 0.68048 0.07738 0.11933 0.0
C1466 C 0.67888 0.10136 0.10837 0.0
C1467 C 0.65169 0.13605 0.09333 0.0
C1468 C 0.6268 0.14722 0.09076 0.0
C1469 C 0.65504 0.11468 0.10875 0.0
C1470 C 0.6061 0.13929 0.10649 0.0
C1471 C 0.60946 0.11838 0.12256 0.0
H1472 H 0.88208 0.63912 0.12165 0.0
H1473 H 0.93958 0.67521 0.07335 0.0
H1474 H 0.9085 0.67432 0.03795 0.0
H1475 H 0.86448 0.66478 0.02121 0.0
H1476 H 0.80629 0.63063 0.07023 0.0
H1477 H 0.83819 0.6293 0.10484 0.0
C1478 C 0.8879 0.6466 0.10332 0.0
C1479 C 0.91312 0.65719 0.10013 0.0
C1480 C 0.86976 0.64651 0.08322 0.0
C1481 C 0.92026 0.66702 0.07632 0.0
C1482 C 0.9025 0.66652 0.05608 0.0
C1483 C 0.8588 0.65689 0.03941 0.0
C1484 C 0.833 0.64783 0.04309 0.0
C1485 C 0.87711 0.65655 0.05938 0.0
C1486 C 0.82596 0.63786 0.06689 0.0
C1487 C 0.84421 0.63705 0.0867 0.0
H1488 H 0.34045 0.88291 0.06431 0.0
H1489 H 0.42034 0.85983 0.07893 0.0
H1490 H 0.42502 0.89373 0.11045 0.0
H1491 H 0.40889 0.93484 0.12713 0.0
H1492 H 0.32942 0.95835 0.11004 0.0
H1493 H 0.32194 0.91937 0.08643 0.0
C1494 C 0.35869 0.88505 0.07477 0.0
C1495 C 0.38019 0.86945 0.06904 0.0
C1496 C 0.3614 0.90491 0.09217 0.0
C1497 C 0.40353 0.87178 0.08311 0.0
C1498 C 0.40629 0.89131 0.10091 0.0
C1499 C 0.38974 0.93103 0.11885 0.0
C1500 C 0.36992 0.94965 0.11981 0.0
C1501 C 0.38575 0.90877 0.10464 0.0
C1502 C 0.34514 0.94449 0.1091 0.0
C1503 C 0.34084 0.92223 0.09557 0.0
H1504 H 0.07921 0.6527 0.91316 0.0
H1505 H 0.13799 0.62505 0.86078 0.0
H1506 H 0.17155 0.62811 0.89355 0.0
H1507 H 0.18473 0.63997 0.93637 0.0
H1508 H 0.12652 0.66761 0.9893 0.0
H1509 H 0.09229 0.6631 0.95703 0.0
C1510 C 0.09933 0.64721 0.90898 0.0
C1511 C 0.10605 0.63881 0.88448 0.0
C1512 C 0.1187 0.64909 0.92795 0.0
C1513 C 0.13222 0.6317 0.87941 0.0
C1514 C 0.1515 0.63345 0.89814 0.0
C1515 C 0.16457 0.64502 0.94094 0.0
C1516 C 0.15831 0.6543 0.96521 0.0
C1517 C 0.14502 0.64239 0.92236 0.0
C1518 C 0.13197 0.66046 0.97077 0.0
C1519 C 0.11236 0.65792 0.95231 0.0
H1520 H 0.32084 0.0522 0.86822 0.0
H1521 H 0.39731 0.05821 0.83305 0.0
H1522 H 0.40529 0.09808 0.85549 0.0
H1523 H 0.39381 0.12639 0.89129 0.0
H1524 H 0.3185 0.11797 0.92803 0.0
H1525 H 0.30658 0.08412 0.89865 0.0
C1526 C 0.33906 0.06247 0.86506 0.0
C1527 C 0.3587 0.05198 0.84949 0.0
C1528 C 0.3438 0.08485 0.87858 0.0
C1529 C 0.38195 0.06578 0.84513 0.0
C1530 C 0.3866 0.0885 0.8581 0.0
C1531 C 0.37449 0.11765 0.89221 0.0
C1532 C 0.35716 0.12421 0.91192 0.0
C1533 C 0.36817 0.09755 0.87578 0.0
C1534 C 0.33226 0.11278 0.91323 0.0
C1535 C 0.32547 0.09345 0.89647 0.0
H1536 H 0.87279 0.33474 0.97466 0.0
H1537 H 0.82215 0.3599 0.91381 0.0
H1538 H 0.85917 0.35857 0.88438 0.0
H1539 H 0.90505 0.34809 0.87535 0.0
H1540 H 0.95551 0.321 0.93543 0.0
H1541 H 0.91938 0.32553 0.96582 0.0
C1542 C 0.86987 0.34015 0.95501 0.0
C1543 C 0.84464 0.34731 0.94647 0.0
C1544 C 0.89117 0.33894 0.93804 0.0
C1545 C 0.84126 0.35415 0.9209 0.0
C1546 C 0.86243 0.35342 0.90404 0.0
C1547 C 0.9083 0.34338 0.89513 0.0
C1548 C 0.93296 0.33413 0.90307 0.0
C1549 C 0.88735 0.34552 0.91232 0.0
C1550 C 0.93672 0.32808 0.92879 0.0
C1551 C 0.91605 0.33062 0.94616 0.0
H1552 H 0.66953 0.88201 0.92123 0.0
H1553 H 0.59275 0.86154 0.89332 0.0
H1554 H 0.59194 0.89963 0.86665 0.0
H1555 H 0.60942 0.94274 0.85842 0.0
H1556 H 0.68512 0.9636 0.88937 0.0
H1557 H 0.69 0.92156 0.90772 0.0
C1558 C 0.65287 0.88566 0.90891 0.0
C1559 C 0.63102 0.86944 0.90959 0.0
C1560 C 0.65214 0.908 0.89459 0.0
C1561 C 0.60983 0.87384 0.89305 0.0
C1562 C 0.60922 0.89581 0.87809 0.0
C1563 C 0.62723 0.93785 0.86867 0.0
C1564 C 0.64659 0.95647 0.87305 0.0
C1565 C 0.62968 0.91369 0.87978 0.0
C1566 C 0.66966 0.94981 0.88621 0.0
C1567 C 0.67252 0.92574 0.89669 0.0
H1568 H 0.152 0.1246 0.34256 0.0
H1569 H 0.11272 0.05329 0.32907 0.0
H1570 H 0.07 0.07458 0.33041 0.0
H1571 H 0.04398 0.11393 0.33277 0.0
H1572 H 0.08391 0.18514 0.34553 0.0
H1573 H 0.12606 0.16332 0.34716 0.0
C1574 C 0.13411 0.11363 0.34012 0.0
C1575 C 0.13562 0.08742 0.33554 0.0
C1576 C 0.10966 0.126 0.34061 0.0
C1577 C 0.11217 0.07352 0.33254 0.0
C1578 C 0.08771 0.08569 0.33324 0.0
C1579 C 0.06186 0.12467 0.3361 0.0
C1580 C 0.06066 0.15121 0.3388 0.0
C1581 C 0.08623 0.11201 0.33684 0.0
C1582 C 0.08412 0.16474 0.34317 0.0
C1583 C 0.10832 0.15229 0.34413 0.0
H1584 H 0.88123 0.12056 0.35772 0.0
H1585 H 0.94795 0.07464 0.33623 0.0
H1586 H 0.91989 0.03688 0.3357 0.0
H1587 H 0.87562 0.01769 0.33816 0.0
H1588 H 0.80907 0.06477 0.35785 0.0
H1589 H 0.83796 0.10131 0.36227 0.0
C1590 C 0.88978 0.10228 0.35313 0.0
C1591 C 0.91661 0.10047 0.34683 0.0
C1592 C 0.8735 0.08088 0.35234 0.0
C1593 C 0.92732 0.07658 0.34107 0.0
C1594 C 0.91126 0.055 0.34068 0.0
C1595 C 0.86749 0.03589 0.34366 0.0
C1596 C 0.84016 0.0385 0.34744 0.0
C1597 C 0.8842 0.05703 0.34579 0.0
C1598 C 0.82996 0.06224 0.35455 0.0
C1599 C 0.84647 0.08318 0.35713 0.0
H1600 H 0.92387 0.94143 0.32562 0.0
H1601 H 0.87049 0.89652 0.37091 0.0
H1602 H 0.90374 0.86351 0.37506 0.0
H1603 H 0.94627 0.84557 0.3625 0.0
H1604 H 8e-05 0.89035 0.31766 0.0
H1605 H 0.96847 0.92525 0.3169 0.0
C1606 C 0.91962 0.92457 0.33667 0.0
C1607 C 0.89455 0.92135 0.3476 0.0
C1608 C 0.93884 0.90551 0.33891 0.0
C1609 C 0.88952 0.89949 0.36212 0.0
C1610 C 0.90851 0.88051 0.36445 0.0
C1611 C 0.95119 0.86304 0.35274 0.0
C1612 C 0.97534 0.86518 0.33985 0.0
C1613 C 0.93295 0.88302 0.35236 0.0
C1614 C 0.98159 0.88813 0.32767 0.0
C1615 C 0.96347 0.90809 0.32713 0.0
H1616 H 0.14226 0.97584 0.30602 0.0
H1617 H 0.20433 0.92397 0.32706 0.0
H1618 H 0.17245 0.88941 0.32979 0.0
H1619 H 0.12705 0.87385 0.32586 0.0
H1620 H 0.06539 0.9254 0.30314 0.0
H1621 H 0.09707 0.96023 0.30157 0.0
C1622 C 0.14885 0.957 0.31127 0.0
C1623 C 0.17567 0.95255 0.31638 0.0
C1624 C 0.13049 0.93717 0.31256 0.0
C1625 C 0.18385 0.92794 0.32294 0.0
C1626 C 0.16562 0.90816 0.32458 0.0
C1627 C 0.12051 0.89274 0.32072 0.0
C1628 C 0.0939 0.89707 0.31472 0.0
C1629 C 0.13891 0.91257 0.31942 0.0
C1630 C 0.08578 0.92158 0.30781 0.0
C1631 C 0.10388 0.9415 0.30691 0.0
H1632 H 0.04699 0.82751 0.64786 0.0
H1633 H 0.99134 0.8754 0.687 0.0
H1634 H 0.02317 0.91019 0.68684 0.0
H1635 H 0.06765 0.92622 0.67747 0.0
H1636 H 0.1227 0.87838 0.6374 0.0
H1637 H 0.09013 0.84445 0.63586 0.0
C1638 C 0.04179 0.84557 0.65633 0.0
C1639 C 0.01695 0.84876 0.66768 0.0
C1640 C 0.06007 0.86551 0.65599 0.0
C1641 C 0.01036 0.87242 0.67818 0.0
C1642 C 0.02856 0.89231 0.67814 0.0
C1643 C 0.07246 0.90843 0.66825 0.0
C1644 C 0.09767 0.90479 0.65779 0.0
C1645 C 0.0536 0.88896 0.66738 0.0
C1646 C 0.10348 0.88171 0.64566 0.0
C1647 C 0.08489 0.86224 0.64484 0.0
H1648 H 0.15185 0.05421 0.63219 0.0
H1649 H 0.10282 0.99615 0.66543 0.0
H1650 H 0.06541 0.02513 0.66566 0.0
H1651 H 0.04741 0.06789 0.65929 0.0
H1652 H 0.0961 0.12568 0.62517 0.0
H1653 H 0.13263 0.0958 0.62216 0.0
C1654 C 0.13294 0.04784 0.63934 0.0
C1655 C 0.13029 0.02312 0.64904 0.0
C1656 C 0.1114 0.06457 0.6393 0.0
C1657 C 0.1055 0.01508 0.65788 0.0
C1658 C 0.08407 0.03167 0.6581 0.0
C1659 C 0.06592 0.07388 0.65095 0.0
C1660 C 0.06906 0.09908 0.64275 0.0
C1661 C 0.08691 0.0566 0.64928 0.0
C1662 C 0.09311 0.10643 0.63171 0.0
C1663 C 0.11409 0.08938 0.63008 0.0
H1664 H 0.9648 0.10637 0.66787 0.0
H1665 H 0.91449 0.15948 0.62878 0.0
H1666 H 0.87901 0.12838 0.62795 0.0
H1667 H 0.861 0.08775 0.64137 0.0
H1668 H 0.90962 0.03516 0.68308 0.0
H1669 H 0.94704 0.06424 0.67967 0.0
C1670 C 0.94619 0.11092 0.65886 0.0
C1671 C 0.9422 0.13521 0.64851 0.0
C1672 C 0.9255 0.09313 0.6591 0.0
C1673 C 0.91793 0.14098 0.63707 0.0
C1674 C 0.89763 0.12321 0.63658 0.0
C1675 C 0.87984 0.08244 0.64949 0.0
C1676 C 0.88243 0.05935 0.66259 0.0
C1677 C 0.90099 0.09947 0.64803 0.0
C1678 C 0.90703 0.05288 0.673 0.0
C1679 C 0.92843 0.06952 0.67109 0.0
H1680 H 0.89848 0.8896 0.6714 0.0
H1681 H 0.8333 0.83793 0.66152 0.0
H1682 H 0.80262 0.87349 0.66091 0.0
H1683 H 0.7942 0.91903 0.66365 0.0
H1684 H 0.85927 0.97088 0.67353 0.0
H1685 H 0.89004 0.93537 0.67375 0.0
C1686 C 0.87758 0.88611 0.66901 0.0
C1687 C 0.86822 0.86113 0.66653 0.0
C1688 C 0.86 0.90664 0.66879 0.0
C1689 C 0.84106 0.85696 0.6635 0.0
C1690 C 0.82347 0.87728 0.66318 0.0
C1691 C 0.8151 0.92264 0.66591 0.0
C1692 C 0.82433 0.94765 0.66864 0.0
C1693 C 0.83271 0.90217 0.66593 0.0
C1694 C 0.85154 0.95186 0.67143 0.0
C1695 C 0.8692 0.93156 0.67153 0.0
H1696 H 0.3591 0.08144 0.13124 0.0
H1697 H 0.44222 0.09632 0.12598 0.0
H1698 H 0.43445 0.12589 0.09085 0.0
H1699 H 0.40522 0.13831 0.05547 0.0
H1700 H 0.32278 0.11867 0.05866 0.0
H1701 H 0.32884 0.10031 0.10069 0.0
C1702 C 0.37534 0.09191 0.12292 0.0
C1703 C 0.40114 0.08662 0.13071 0.0
C1704 C 0.37082 0.10748 0.10188 0.0
C1705 C 0.42216 0.10032 0.12023 0.0
C1706 C 0.41773 0.11686 0.09988 0.0
C1707 C 0.38847 0.13073 0.06575 0.0
C1708 C 0.36372 0.1293 0.05384 0.0
C1709 C 0.39233 0.11923 0.08953 0.0
C1710 C 0.34213 0.11949 0.0673 0.0
C1711 C 0.34557 0.109 0.09132 0.0
H1712 H 0.32474 0.92402 0.8585 0.0
H1713 H 0.40068 0.89353 0.83886 0.0
H1714 H 0.39883 0.86498 0.87553 0.0
H1715 H 0.37991 0.85606 0.91788 0.0
H1716 H 0.30555 0.88995 0.93855 0.0
H1717 H 0.30242 0.90979 0.89694 0.0
C1718 C 0.3406 0.91073 0.862 0.0
C1719 C 0.36306 0.91122 0.84652 0.0
C1720 C 0.33989 0.89538 0.88365 0.0
C1721 C 0.38318 0.89344 0.85062 0.0
C1722 C 0.38228 0.8774 0.87179 0.0
C1723 C 0.3627 0.86722 0.91299 0.0
C1724 C 0.34328 0.87201 0.93146 0.0
C1725 C 0.36141 0.87929 0.88922 0.0
C1726 C 0.32102 0.88641 0.92484 0.0
C1727 C 0.3192 0.89776 0.90104 0.0
H1728 H 0.03681 0.32387 0.89159 0.0
H1729 H 0.0861 0.35802 0.83426 0.0
H1730 H 0.1219 0.36215 0.86478 0.0
H1731 H 0.1404 0.3533 0.90677 0.0
H1732 H 0.09219 0.31704 0.9636 0.0
H1733 H 0.05482 0.31674 0.9344 0.0
C1734 C 0.05527 0.3325 0.88588 0.0
C1735 C 0.05878 0.34049 0.86062 0.0
C1736 C 0.07607 0.33434 0.90342 0.0
C1737 C 0.08291 0.3515 0.85351 0.0
C1738 C 0.10343 0.3539 0.87096 0.0
C1739 C 0.12163 0.34562 0.9129 0.0
C1740 C 0.11915 0.33512 0.9373 0.0
C1741 C 0.10041 0.34496 0.89582 0.0
C1742 C 0.0947 0.32512 0.94486 0.0
C1743 C 0.0733 0.32491 0.92816 0.0
H1744 H 0.60083 0.15094 0.94123 0.0
H1745 H 0.68178 0.12915 0.9533 0.0
H1746 H 0.68274 0.1081 0.91219 0.0
H1747 H 0.65816 0.08882 0.8775 0.0
H1748 H 0.57626 0.10684 0.86676 0.0
H1749 H 0.57818 0.13725 0.90193 0.0
C1750 C 0.61885 0.14222 0.93446 0.0
C1751 C 0.64103 0.14107 0.9504 0.0
C1752 C 0.61899 0.12933 0.91111 0.0
C1753 C 0.66432 0.12979 0.9415 0.0
C1754 C 0.6649 0.11777 0.91802 0.0
C1755 C 0.64094 0.09988 0.88255 0.0
C1756 C 0.61701 0.09537 0.87016 0.0
C1757 C 0.64197 0.11628 0.90336 0.0
C1758 C 0.59491 0.11014 0.87619 0.0
C1759 C 0.59594 0.12723 0.89649 0.0
H1760 H 0.92779 0.61265 0.83876 0.0
H1761 H 0.97637 0.65155 0.89352 0.0
H1762 H 0.93895 0.65416 0.92267 0.0
H1763 H 0.89151 0.64796 0.93124 0.0
H1764 H 0.84356 0.60919 0.87578 0.0
H1765 H 0.88171 0.60401 0.84835 0.0
C1766 C 0.93033 0.62158 0.85713 0.0
C1767 C 0.95484 0.63211 0.86379 0.0
C1768 C 0.90875 0.6232 0.87364 0.0
C1769 C 0.95775 0.6433 0.88785 0.0
C1770 C 0.93631 0.64491 0.90449 0.0
C1771 C 0.88946 0.63822 0.91324 0.0
C1772 C 0.86459 0.62922 0.90552 0.0
C1773 C 0.91157 0.63533 0.89738 0.0
C1774 C 0.86236 0.61648 0.88219 0.0
C1775 C 0.88419 0.61349 0.86643 0.0
H1776 H 0.61059 0.90784 0.12488 0.0
H1777 H 0.68937 0.93749 0.11805 0.0
H1778 H 0.69865 0.90802 0.08357 0.0
H1779 H 0.68164 0.88007 0.05052 0.0
H1780 H 0.60221 0.85154 0.05544 0.0
H1781 H 0.59609 0.87363 0.09585 0.0
C1782 C 0.63003 0.90717 0.11636 0.0
C1783 C 0.64911 0.92512 0.12348 0.0
C1784 C 0.63496 0.89061 0.09598 0.0
C1785 C 0.6742 0.92425 0.11236 0.0
C1786 C 0.67952 0.90739 0.09267 0.0
C1787 C 0.66318 0.8782 0.06074 0.0
C1788 C 0.64223 0.86468 0.04978 0.0
C1789 C 0.6596 0.89148 0.08348 0.0
C1790 C 0.61861 0.86198 0.06343 0.0
C1791 C 0.61502 0.87479 0.08643 0.0
H1792 H 0.06701 0.64323 0.16074 0.0
H1793 H 0.00501 0.66813 0.11056 0.0
H1794 H 0.03704 0.67401 0.07643 0.0
H1795 H 0.08306 0.67336 0.06129 0.0
H1796 H 0.14444 0.64768 0.11189 0.0
H1797 H 0.11219 0.64083 0.14529 0.0
C1798 C 0.06042 0.64993 0.14235 0.0
C1799 C 0.03365 0.65542 0.13834 0.0
C1800 C 0.07887 0.65319 0.12283 0.0
C1801 C 0.0255 0.66378 0.11424 0.0
C1802 C 0.04382 0.66721 0.0947 0.0
C1803 C 0.08935 0.6662 0.07959 0.0
C1804 C 0.11619 0.66121 0.08405 0.0
C1805 C 0.07062 0.66218 0.09885 0.0
C1806 C 0.12395 0.65175 0.10786 0.0
C1807 C 0.10552 0.64784 0.12705 0.0
H1808 H 0.92486 0.36758 0.14417 0.0
H1809 H 0.98251 0.32392 0.10287 0.0
H1810 H 0.95241 0.32091 0.06671 0.0
H1811 H 0.90853 0.32845 0.04803 0.0
H1812 H 0.85162 0.37294 0.08959 0.0
H1813 H 0.88275 0.37798 0.12434 0.0
C1814 C 0.93091 0.35747 0.12723 0.0
C1815 C 0.95574 0.34571 0.12633 0.0
C1816 C 0.91361 0.35592 0.10657 0.0
C1817 C 0.96346 0.33309 0.10406 0.0
C1818 C 0.94623 0.33129 0.08342 0.0
C1819 C 0.90302 0.33942 0.0646 0.0
C1820 C 0.87764 0.35005 0.06628 0.0
C1821 C 0.92107 0.34229 0.08463 0.0
C1822 C 0.87094 0.36444 0.08779 0.0
C1823 C 0.88871 0.36729 0.10775 0.0
H1824 H 0.6781 0.85364 0.57034 0.0
H1825 H 0.63567 0.80203 0.52176 0.0
H1826 H 0.59685 0.80553 0.54885 0.0
H1827 H 0.57598 0.82112 0.58777 0.0
H1828 H 0.6179 0.87369 0.63581 0.0
H1829 H 0.65563 0.87239 0.6072 0.0
C1830 C 0.66033 0.84318 0.56573 0.0
C1831 C 0.65983 0.82734 0.54433 0.0
C1832 C 0.63794 0.84559 0.58117 0.0
C1833 C 0.63654 0.81429 0.53821 0.0
C1834 C 0.61434 0.81627 0.55368 0.0
C1835 C 0.59322 0.83257 0.5918 0.0
C1836 C 0.59421 0.84722 0.61404 0.0
C1837 C 0.61493 0.83162 0.57538 0.0
C1838 C 0.6166 0.86218 0.61885 0.0
C1839 C 0.6383 0.86131 0.60259 0.0
H1840 H 0.17193 0.55968 0.61639 0.0
H1841 H 0.08962 0.561 0.63634 0.0
H1842 H 0.08481 0.60257 0.61612 0.0
H1843 H 0.10223 0.63374 0.58517 0.0
H1844 H 0.18399 0.63033 0.56362 0.0
H1845 H 0.19109 0.59481 0.5925 0.0
C1846 C 0.15308 0.56937 0.61683 0.0
C1847 C 0.13104 0.55713 0.62728 0.0
C1848 C 0.15039 0.59285 0.6047 0.0
C1849 C 0.10684 0.57001 0.62822 0.0
C1850 C 0.10406 0.5937 0.61651 0.0
C1851 C 0.12178 0.62584 0.5877 0.0
C1852 C 0.14255 0.63432 0.57226 0.0
C1853 C 0.12542 0.6047 0.60361 0.0
C1854 C 0.16775 0.62385 0.57526 0.0
C1855 C 0.17175 0.60346 0.59162 0.0
H1856 H 0.3755 0.17021 0.5123 0.0
H1857 H 0.31645 0.14302 0.56462 0.0
H1858 H 0.34985 0.13835 0.59754 0.0
H1859 H 0.3952 0.14407 0.61217 0.0
H1860 H 0.45389 0.17357 0.56082 0.0
H1861 H 0.42128 0.17492 0.52669 0.0
C1862 C 0.36994 0.16308 0.53083 0.0
C1863 C 0.34345 0.15707 0.53597 0.0
C1864 C 0.38919 0.16083 0.54984 0.0
C1865 C 0.33663 0.14798 0.56017 0.0
C1866 C 0.35573 0.14524 0.57901 0.0
C1867 C 0.40098 0.15048 0.59343 0.0
C1868 C 0.42695 0.15869 0.58903 0.0
C1869 C 0.38199 0.15188 0.57415 0.0
C1870 C 0.43402 0.16719 0.5647 0.0
C1871 C 0.41536 0.16803 0.54521 0.0
H1872 H 0.83857 0.34999 0.57726 0.0
H1873 H 0.92112 0.33908 0.59218 0.0
H1874 H 0.92001 0.37268 0.62432 0.0
H1875 H 0.89766 0.41125 0.64022 0.0
H1876 H 0.8155 0.42287 0.62275 0.0
H1877 H 0.81414 0.38277 0.59996 0.0
C1878 C 0.85606 0.35447 0.5882 0.0
C1879 C 0.87994 0.34259 0.58227 0.0
C1880 C 0.8554 0.37428 0.60584 0.0
C1881 C 0.9025 0.34808 0.59662 0.0
C1882 C 0.90192 0.36751 0.61471 0.0
C1883 C 0.87928 0.40455 0.63215 0.0
C1884 C 0.8569 0.42026 0.63256 0.0
C1885 C 0.87882 0.38172 0.61836 0.0
C1886 C 0.83314 0.41133 0.62218 0.0
C1887 C 0.83234 0.38842 0.6091 0.0
H1888 H 0.60042 0.13834 0.3665 0.0
H1889 H 0.5442 0.17214 0.41774 0.0
H1890 H 0.57692 0.17149 0.45179 0.0
H1891 H 0.62216 0.16335 0.46623 0.0
H1892 H 0.67873 0.13138 0.41405 0.0
H1893 H 0.64515 0.12942 0.3811 0.0
C1894 C 0.59517 0.14529 0.38519 0.0
C1895 C 0.56989 0.15526 0.38958 0.0
C1896 C 0.61423 0.14544 0.40443 0.0
C1897 C 0.56354 0.1644 0.41386 0.0
C1898 C 0.58226 0.1641 0.43331 0.0
C1899 C 0.62715 0.15585 0.4477 0.0
C1900 C 0.65302 0.14764 0.44266 0.0
C1901 C 0.6078 0.15502 0.42869 0.0
C1902 C 0.65907 0.13802 0.41847 0.0
C1903 C 0.63985 0.13681 0.3996 0.0
H1904 H 0.88799 0.55898 0.3539 0.0
H1905 H 0.81233 0.54311 0.38785 0.0
H1906 H 0.81441 0.58269 0.41146 0.0
H1907 H 0.84134 0.6171 0.42852 0.0
H1908 H 0.91775 0.63242 0.39668 0.0
H1909 H 0.9115 0.59831 0.3656 0.0
C1910 C 0.87163 0.56451 0.36591 0.0
C1911 C 0.85036 0.54776 0.36961 0.0
C1912 C 0.87321 0.58713 0.37998 0.0
C1913 C 0.82921 0.55537 0.38507 0.0
C1914 C 0.83037 0.57801 0.39863 0.0
C1915 C 0.85628 0.61334 0.41431 0.0
C1916 C 0.88008 0.62678 0.41497 0.0
C1917 C 0.85284 0.59332 0.3972 0.0
C1918 C 0.89922 0.62223 0.39634 0.0
C1919 C 0.89576 0.60255 0.37882 0.0
H1920 H 0.35598 0.85488 0.43994 0.0
H1921 H 0.40047 0.81015 0.4934 0.0
H1922 H 0.4387 0.81124 0.4653 0.0
H1923 H 0.45866 0.82282 0.42437 0.0
H1924 H 0.41463 0.86906 0.37175 0.0
H1925 H 0.3773 0.86973 0.40081 0.0
C1926 C 0.37408 0.84546 0.44545 0.0
C1927 C 0.37528 0.83222 0.46855 0.0
C1928 C 0.39612 0.84645 0.42937 0.0
C1929 C 0.39901 0.82045 0.47567 0.0
C1930 C 0.42088 0.82101 0.4596 0.0
C1931 C 0.441 0.83326 0.41938 0.0
C1932 C 0.4394 0.84563 0.3958 0.0
C1933 C 0.41955 0.83367 0.43624 0.0
C1934 C 0.41645 0.85932 0.38976 0.0
C1935 C 0.39499 0.85962 0.40631 0.0
H1936 H 0.15083 0.43758 0.37104 0.0
H1937 H 0.06981 0.43539 0.34673 0.0
H1938 H 0.06492 0.39288 0.3649 0.0
H1939 H 0.08157 0.36038 0.39484 0.0
H1940 H 0.16208 0.36427 0.42032 0.0
H1941 H 0.1696 0.40169 0.39406 0.0
C1942 C 0.13225 0.42757 0.36928 0.0
C1943 C 0.11055 0.43974 0.35812 0.0
C1944 C 0.12953 0.40345 0.38008 0.0
C1945 C 0.08674 0.42643 0.35544 0.0
C1946 C 0.08391 0.40219 0.36594 0.0
C1947 C 0.101 0.36886 0.39373 0.0
C1948 C 0.12122 0.3599 0.40956 0.0
C1949 C 0.10486 0.391 0.37929 0.0
C1950 C 0.14624 0.37112 0.40839 0.0
C1951 C 0.15047 0.39258 0.39353 0.0
H1952 H 0.62061 0.59221 0.8422 0.0
H1953 H 0.57259 0.54279 0.79617 0.0
H1954 H 0.53553 0.57213 0.8001 0.0
H1955 H 0.51787 0.61343 0.81406 0.0
H1956 H 0.56727 0.66348 0.85798 0.0
H1957 H 0.60256 0.63215 0.85765 0.0
C1958 C 0.60198 0.5877 0.83319 0.0
C1959 C 0.59944 0.56544 0.81877 0.0
C1960 C 0.58098 0.60481 0.83512 0.0
C1961 C 0.57514 0.55991 0.80724 0.0
C1962 C 0.55392 0.57667 0.80948 0.0
C1963 C 0.53622 0.61724 0.82388 0.0
C1964 C 0.54002 0.64072 0.83595 0.0
C1965 C 0.55676 0.5994 0.82303 0.0
C1966 C 0.56397 0.64559 0.8484 0.0
C1967 C 0.58417 0.62771 0.84821 0.0
H1968 H 0.41359 0.59998 0.83624 0.0
H1969 H 0.3574 0.65716 0.85875 0.0
H1970 H 0.32241 0.62552 0.85923 0.0
H1971 H 0.30729 0.58218 0.85133 0.0
H1972 H 0.36334 0.52485 0.82881 0.0
H1973 H 0.39879 0.55604 0.8303 0.0
C1974 C 0.39374 0.60549 0.84146 0.0
C1975 C 0.38813 0.63095 0.84728 0.0
C1976 C 0.37361 0.58723 0.84153 0.0
C1977 C 0.36229 0.63773 0.85408 0.0
C1978 C 0.34222 0.61966 0.85431 0.0
C1979 C 0.32725 0.57646 0.84676 0.0
C1980 C 0.33254 0.55123 0.83976 0.0
C1981 C 0.34758 0.59445 0.84769 0.0
C1982 C 0.35863 0.54414 0.83419 0.0
C1983 C 0.37895 0.56197 0.83502 0.0
H1984 H 0.37925 0.43362 0.84096 0.0
H1985 H 0.32556 0.38284 0.87922 0.0
H1986 H 0.36003 0.351 0.88247 0.0
H1987 H 0.40434 0.33642 0.87242 0.0
H1988 H 0.45884 0.38644 0.83444 0.0
H1989 H 0.42521 0.41977 0.83338 0.0
C1990 C 0.37517 0.41567 0.8502 0.0
C1991 C 0.3497 0.41061 0.8596 0.0
C1992 C 0.39518 0.39724 0.85198 0.0
C1993 C 0.34485 0.38728 0.87165 0.0
C1994 C 0.36458 0.36898 0.87351 0.0
C1995 C 0.40899 0.35463 0.86396 0.0
C1996 C 0.43401 0.35879 0.85326 0.0
C1997 C 0.38963 0.37359 0.86338 0.0
C1998 C 0.43973 0.38268 0.84277 0.0
C1999 C 0.42047 0.40172 0.84208 0.0
H2000 H 0.55299 0.41218 0.80872 0.0
H2001 H 0.58885 0.36322 0.86451 0.0
H2002 H 0.628 0.39002 0.8652 0.0
H2003 H 0.65264 0.42697 0.84923 0.0
H2004 H 0.61578 0.477 0.79513 0.0
H2005 H 0.57662 0.45018 0.7944 0.0
C2006 C 0.56931 0.40745 0.82112 0.0
C2007 C 0.568 0.38568 0.83643 0.0
C2008 C 0.59173 0.42305 0.8216 0.0
C2009 C 0.58926 0.37992 0.85256 0.0
C2010 C 0.61176 0.39516 0.85289 0.0
C2011 C 0.63605 0.43187 0.83722 0.0
C2012 C 0.63714 0.4538 0.82215 0.0
C2013 C 0.61332 0.41665 0.83732 0.0
C2014 C 0.61537 0.46022 0.80696 0.0
C2015 C 0.59298 0.44489 0.80651 0.0
H2016 H 0.5673 0.34167 0.10785 0.0
H2017 H 0.5199 0.39013 0.15547 0.0
H2018 H 0.5555 0.42137 0.15678 0.0
H2019 H 0.60169 0.43284 0.1478 0.0
H2020 H 0.64873 0.38376 0.10039 0.0
H2021 H 0.61155 0.35502 0.09547 0.0
C2022 C 0.56461 0.35916 0.11836 0.0
C2023 C 0.54109 0.36336 0.13184 0.0
C2024 C 0.58517 0.3769 0.11919 0.0
C2025 C 0.53782 0.38634 0.14499 0.0
C2026 C 0.55823 0.40418 0.14584 0.0
C2027 C 0.6037 0.41604 0.13611 0.0
C2028 C 0.62814 0.41033 0.12478 0.0
C2029 C 0.58224 0.39936 0.13353 0.0
C2030 C 0.63029 0.38856 0.10953 0.0
C2031 C 0.60903 0.37204 0.10673 0.0
H2032 H 0.62913 0.52227 0.1716 0.0
H2033 H 0.69461 0.57126 0.15334 0.0
H2034 H 0.66482 0.60734 0.14986 0.0
H2035 H 0.62039 0.62511 0.15241 0.0
H2036 H 0.55506 0.57685 0.17269 0.0
H2037 H 0.58461 0.54028 0.17483 0.0
C2038 C 0.63687 0.54083 0.1668 0.0
C2039 C 0.66405 0.54404 0.16271 0.0
C2040 C 0.61968 0.5616 0.16515 0.0
C2041 C 0.6738 0.56827 0.15673 0.0
C2042 C 0.65677 0.58891 0.15464 0.0
C2043 C 0.61258 0.60655 0.15713 0.0
C2044 C 0.58559 0.60363 0.16226 0.0
C2045 C 0.62971 0.5858 0.15883 0.0
C2046 C 0.5758 0.57956 0.16869 0.0
C2047 C 0.59266 0.55866 0.16991 0.0
H2048 H 0.43622 0.66887 0.15732 0.0
H2049 H 0.4975 0.61398 0.1431 0.0
H2050 H 0.46597 0.57945 0.1492 0.0
H2051 H 0.42103 0.56487 0.15958 0.0
H2052 H 0.36073 0.6203 0.17569 0.0
H2053 H 0.39186 0.65451 0.16787 0.0
C2054 C 0.44267 0.64936 0.15533 0.0
C2055 C 0.46914 0.64404 0.14965 0.0
C2056 C 0.42462 0.62965 0.15935 0.0
C2057 C 0.47722 0.61862 0.14749 0.0
C2058 C 0.45921 0.59885 0.15098 0.0
C2059 C 0.41473 0.58444 0.16131 0.0
C2060 C 0.38859 0.58998 0.16823 0.0
C2061 C 0.43288 0.60414 0.1571 0.0
C2062 C 0.38075 0.61545 0.17054 0.0
C2063 C 0.39853 0.63508 0.166 0.0
H2064 H 0.43834 0.42505 0.18658 0.0
H2065 H 0.38887 0.37579 0.14168 0.0
H2066 H 0.35249 0.40549 0.14557 0.0
H2067 H 0.33419 0.44475 0.1624 0.0
H2068 H 0.3834 0.49536 0.20584 0.0
H2069 H 0.42036 0.46581 0.20186 0.0
C2070 C 0.41964 0.4209 0.17756 0.0
C2071 C 0.41636 0.39814 0.16399 0.0
C2072 C 0.39868 0.4382 0.17972 0.0
C2073 C 0.39202 0.39313 0.15225 0.0
C2074 C 0.37111 0.41007 0.15452 0.0
C2075 C 0.35296 0.44929 0.17112 0.0
C2076 C 0.35595 0.47204 0.18465 0.0
C2077 C 0.37414 0.43251 0.16839 0.0
C2078 C 0.38056 0.47788 0.1954 0.0
C2079 C 0.4017 0.46101 0.19313 0.0
H2080 H 0.9126 0.57527 0.63113 0.0
H2081 H 0.83168 0.55085 0.62802 0.0
H2082 H 0.82308 0.58008 0.59314 0.0
H2083 H 0.84081 0.60578 0.55854 0.0
H2084 H 0.9219 0.62983 0.56032 0.0
H2085 H 0.9282 0.60806 0.60095 0.0
C2086 C 0.89289 0.57714 0.6234 0.0
C2087 C 0.8729 0.56066 0.6316 0.0
C2088 C 0.8883 0.59355 0.60281 0.0
C2089 C 0.84746 0.56302 0.62149 0.0
C2090 C 0.84256 0.57968 0.60155 0.0
C2091 C 0.85968 0.60673 0.56816 0.0
C2092 C 0.881 0.61885 0.55634 0.0
C2093 C 0.86319 0.59392 0.59117 0.0
C2094 C 0.90524 0.62044 0.56908 0.0
C2095 C 0.90888 0.60786 0.59221 0.0
H2096 H 0.83394 0.41675 0.37574 0.0
H2097 H 0.91314 0.39469 0.35673 0.0
H2098 H 0.91263 0.36288 0.39068 0.0
H2099 H 0.89262 0.34785 0.43089 0.0
H2100 H 0.81439 0.37295 0.45079 0.0
H2101 H 0.81146 0.39699 0.41147 0.0
C2102 C 0.8509 0.40468 0.37878 0.0
C2103 C 0.87372 0.40838 0.36429 0.0
C2104 C 0.85075 0.38726 0.3988 0.0
C2105 C 0.89533 0.39213 0.36776 0.0
C2106 C 0.89514 0.37418 0.38736 0.0
C2107 C 0.8747 0.35803 0.42623 0.0
C2108 C 0.85396 0.35907 0.44392 0.0
C2109 C 0.87343 0.37251 0.40382 0.0
C2110 C 0.83081 0.37227 0.43767 0.0
C2111 C 0.8291 0.38603 0.4152 0.0
H2112 H 0.5429 0.82645 0.38438 0.0
H2113 H 0.59777 0.8601 0.33166 0.0
H2114 H 0.63328 0.85548 0.36242 0.0
H2115 H 0.64936 0.83986 0.40324 0.0
H2116 H 0.59529 0.80431 0.45548 0.0
H2117 H 0.55894 0.81174 0.42602 0.0
C2118 C 0.56256 0.83304 0.37978 0.0
C2119 C 0.56768 0.84355 0.35574 0.0
C2120 C 0.58311 0.8298 0.39738 0.0
C2121 C 0.59333 0.85179 0.34996 0.0
C2122 C 0.61367 0.84916 0.36753 0.0
C2123 C 0.62961 0.83386 0.40829 0.0
C2124 C 0.62511 0.82146 0.43149 0.0
C2125 C 0.60889 0.83784 0.39113 0.0
C2126 C 0.59936 0.81378 0.43767 0.0
C2127 C 0.57854 0.81804 0.42084 0.0
H2128 H 0.11468 0.64439 0.42364 0.0
H2129 H 0.18967 0.60722 0.43429 0.0
H2130 H 0.18299 0.58289 0.39563 0.0
H2131 H 0.1524 0.56653 0.3638 0.0
H2132 H 0.07682 0.60199 0.35346 0.0
H2133 H 0.08737 0.63313 0.38652 0.0
C2134 C 0.12988 0.6315 0.41712 0.0
C2135 C 0.15232 0.62713 0.43222 0.0
C2136 C 0.12566 0.61706 0.39507 0.0
C2137 C 0.17195 0.61054 0.42334 0.0
C2138 C 0.16815 0.59656 0.40124 0.0
C2139 C 0.13853 0.58145 0.36846 0.0
C2140 C 0.11376 0.58185 0.35678 0.0
C2141 C 0.14452 0.59873 0.38775 0.0
C2142 C 0.09604 0.60146 0.36237 0.0
C2143 C 0.10198 0.61905 0.38141 0.0
H2144 H 0.47364 0.16531 0.37437 0.0
H2145 H 0.41885 0.14082 0.31672 0.0
H2146 H 0.38336 0.14019 0.34784 0.0
H2147 H 0.36727 0.14878 0.3907 0.0
H2148 H 0.42119 0.17543 0.44807 0.0
H2149 H 0.45764 0.17278 0.41784 0.0
C2150 C 0.45399 0.15963 0.36866 0.0
C2151 C 0.44893 0.15323 0.34319 0.0
C2152 C 0.43348 0.15974 0.38659 0.0
C2153 C 0.42329 0.14604 0.33612 0.0
C2154 C 0.40295 0.14562 0.35392 0.0
C2155 C 0.38703 0.15374 0.39672 0.0
C2156 C 0.39148 0.16232 0.42161 0.0
C2157 C 0.40774 0.15275 0.37911 0.0
C2158 C 0.41721 0.16885 0.42899 0.0
C2159 C 0.43806 0.16738 0.41171 0.0
H2160 H 0.09462 0.39713 0.62657 0.0
H2161 H 0.1722 0.4294 0.61914 0.0
H2162 H 0.18212 0.40048 0.58429 0.0
H2163 H 0.1655 0.3727 0.55099 0.0
H2164 H 0.08675 0.34241 0.55599 0.0
H2165 H 0.08066 0.36325 0.59704 0.0
C2166 C 0.11399 0.39708 0.61786 0.0
C2167 C 0.13258 0.41546 0.62496 0.0
C2168 C 0.11912 0.38107 0.59713 0.0
C2169 C 0.15753 0.41557 0.61357 0.0
C2170 C 0.16315 0.39912 0.59363 0.0
C2171 C 0.14719 0.37022 0.56131 0.0
C2172 C 0.12637 0.35662 0.55022 0.0
C2173 C 0.14357 0.38285 0.58439 0.0
C2174 C 0.10299 0.35302 0.56404 0.0
C2175 C 0.09944 0.36508 0.58743 0.0
H2176 H 0.62898 0.1468 0.58894 0.0
H2177 H 0.57604 0.17322 0.53063 0.0
H2178 H 0.53971 0.17368 0.56117 0.0
H2179 H 0.52341 0.16785 0.6049 0.0
H2180 H 0.57747 0.14335 0.66322 0.0
H2181 H 0.61289 0.14094 0.63218 0.0
C2182 C 0.60946 0.15246 0.58281 0.0
C2183 C 0.60522 0.15989 0.55752 0.0
C2184 C 0.58887 0.15319 0.60054 0.0
C2185 C 0.57984 0.16743 0.55 0.0
C2186 C 0.55907 0.16772 0.56746 0.0
C2187 C 0.54291 0.16189 0.61079 0.0
C2188 C 0.54772 0.15585 0.63641 0.0
C2189 C 0.56341 0.16086 0.59286 0.0
C2190 C 0.57319 0.1483 0.64371 0.0
C2191 C 0.59349 0.14683 0.62595 0.0
H2192 H 0.43765 0.83476 0.68458 0.0
H2193 H 0.49456 0.83844 0.62379 0.0
H2194 H 0.45888 0.83826 0.59264 0.0
H2195 H 0.41148 0.83599 0.58273 0.0
H2196 H 0.35512 0.83222 0.644 0.0
H2197 H 0.39076 0.83365 0.67488 0.0
C2198 C 0.44237 0.83552 0.66453 0.0
C2199 C 0.46881 0.83648 0.65659 0.0
C2200 C 0.42183 0.83544 0.64678 0.0
C2201 C 0.4744 0.83765 0.63048 0.0
C2202 C 0.454 0.83754 0.61264 0.0
C2203 C 0.40699 0.83564 0.60283 0.0
C2204 C 0.38064 0.83392 0.61101 0.0
C2205 C 0.42764 0.83632 0.62058 0.0
C2206 C 0.37519 0.83348 0.63714 0.0
C2207 C 0.39557 0.83426 0.65485 0.0
loop_
_geom_bond_atom_site_label_1
_geom_bond_atom_site_label_2
_geom_bond_distance
_geom_bond_site_symmetry_2
_ccdc_geom_bond_type
Mg0 O1 2.028 . S
Mg0 O7 1.986 . S
Mg0 O9 2.114 . S
Mg0 O10 2.251 . S
Mg0 O13 2.010 . S
O1 Mg0 2.028 . S
O1 C4 1.250 1_455 S
O2 Mg3 2.028 . S
O2 C4 1.248 . S
Mg3 O2 2.028 . S
Mg3 O8 2.032 1_655 S
Mg3 O10 2.079 1_655 S
C4 O1 1.250 1_655 S
C4 O2 1.248 . S
C5 O6 1.264 . S
C5 O13 1.249 . S
O6 C5 1.264 . S
O7 Mg0 1.986 . S
O7 C11 1.246 . S
O8 Mg3 2.032 1_455 S
O8 C11 1.259 . S
O9 Mg0 2.114 . S
O9 C12 1.252 . S
O10 Mg0 2.251 . S
O10 Mg3 2.079 1_455 S
O10 C12 1.273 . S
C11 O7 1.246 . S
C11 O8 1.259 . S
C12 O9 1.252 . S
C12 O10 1.273 . S
O13 Mg0 2.010 . S
O13 C5 1.249 . S
Mg14 O15 2.028 . S
Mg14 O21 1.986 . S
Mg14 O23 2.114 1_545 S
Mg14 O24 2.241 1_545 S
Mg14 O27 2.010 . S
O15 Mg14 2.028 . S
O15 C18 1.250 . S
O16 Mg17 2.028 . S
O16 C18 1.248 . S
Mg17 O16 2.028 . S
Mg17 O22 2.032 . S
Mg17 O24 2.076 1_545 S
C18 O15 1.250 . S
C18 O16 1.248 . S
C19 O20 1.264 . S
C19 O27 1.249 . S
O20 C19 1.264 . S
O21 Mg14 1.986 . S
O21 C25 1.246 . S
O22 Mg17 2.032 . S
O22 C25 1.259 . S
O23 Mg14 2.114 1_565 S
O23 C26 1.252 . S
O24 Mg14 2.241 1_565 S
O24 Mg17 2.076 1_565 S
O24 C26 1.281 . S
C25 O21 1.246 . S
C25 O22 1.259 . S
C26 O23 1.252 . S
C26 O24 1.281 . S
O27 Mg14 2.010 . S
O27 C19 1.249 . S
Mg28 O29 2.028 . S
Mg28 O35 1.986 . S
Mg28 O37 2.114 . S
Mg28 O38 2.251 . S
Mg28 O41 2.010 . S
O29 Mg28 2.028 . S
O29 C32 1.250 1_655 S
O30 Mg31 2.028 . S
O30 C32 1.248 . S
Mg31 O30 2.028 . S
Mg31 O36 2.032 1_455 S
Mg31 O38 2.079 1_455 S
C32 O29 1.250 1_455 S
C32 O30 1.248 . S
C33 O34 1.264 . S
C33 O41 1.249 . S
O34 C33 1.264 . S
O35 Mg28 1.986 . S
O35 C39 1.246 . S
O36 Mg31 2.032 1_655 S
O36 C39 1.259 . S
O37 Mg28 2.114 . S
O37 C40 1.252 . S
O38 Mg28 2.251 . S
O38 Mg31 2.079 1_655 S
O38 C40 1.273 . S
C39 O35 1.246 . S
C39 O36 1.259 . S
C40 O37 1.252 . S
C40 O38 1.273 . S
O41 Mg28 2.010 . S
O41 C33 1.249 . S
Mg42 O43 2.028 . S
Mg42 O49 1.986 . S
Mg42 O51 2.114 1_565 S
Mg42 O52 2.241 1_565 S
Mg42 O55 2.010 . S
O43 Mg42 2.028 . S
O43 C46 1.250 . S
O44 Mg45 2.028 . S
O44 C46 1.248 . S
Mg45 O44 2.028 . S
Mg45 O50 2.032 . S
Mg45 O52 2.076 1_565 S
C46 O43 1.250 . S
C46 O44 1.248 . S
C47 O48 1.264 . S
C47 O55 1.249 . S
O48 C47 1.264 . S
O49 Mg42 1.986 . S
O49 C53 1.246 . S
O50 Mg45 2.032 . S
O50 C53 1.259 . S
O51 Mg42 2.114 1_545 S
O51 C54 1.252 . S
O52 Mg42 2.241 1_545 S
O52 Mg45 2.076 1_545 S
O52 C54 1.282 . S
C53 O49 1.246 . S
C53 O50 1.259 . S
C54 O51 1.252 . S
C54 O52 1.282 . S
O55 Mg42 2.010 . S
O55 C47 1.249 . S
Mg56 O57 2.028 . S
Mg56 O63 1.986 . S
Mg56 O65 2.114 . S
Mg56 O66 2.251 . S
Mg56 O69 2.010 . S
O57 Mg56 2.028 . S
O57 C60 1.250 1_455 S
O58 Mg59 2.028 . S
O58 C60 1.248 . S
Mg59 O58 2.028 . S
Mg59 O64 2.032 1_655 S
Mg59 O66 2.079 1_655 S
C60 O57 1.250 1_655 S
C60 O58 1.248 . S
C61 O62 1.264 . S
C61 O69 1.249 . S
O62 C61 1.264 . S
O63 Mg56 1.986 . S
O63 C67 1.246 . S
O64 Mg59 2.032 1_455 S
O64 C67 1.259 . S
O65 Mg56 2.114 . S
O65 C68 1.252 . S
O66 Mg56 2.251 . S
O66 Mg59 2.079 1_455 S
O66 C68 1.273 . S
C67 O63 1.246 . S
C67 O64 1.259 . S
C68 O65 1.252 . S
C68 O66 1.273 . S
O69 Mg56 2.010 . S
O69 C61 1.249 . S
Mg70 O71 2.028 . S
Mg70 O77 1.986 . S
Mg70 O79 2.114 1_545 S
Mg70 O80 2.241 1_545 S
Mg70 O83 2.010 . S
O71 Mg70 2.028 . S
O71 C74 1.250 . S
O72 Mg73 2.028 . S
O72 C74 1.248 . S
Mg73 O72 2.028 . S
Mg73 O78 2.032 . S
Mg73 O80 2.076 1_545 S
C74 O71 1.250 . S
C74 O72 1.248 . S
C75 O76 1.264 . S
C75 O83 1.249 . S
O76 C75 1.264 . S
O77 Mg70 1.986 . S
O77 C81 1.246 . S
O78 Mg73 2.032 . S
O78 C81 1.259 . S
O79 Mg70 2.114 1_565 S
O79 C82 1.252 . S
O80 Mg70 2.241 1_565 S
O80 Mg73 2.076 1_565 S
O80 C82 1.281 . S
C81 O77 1.246 . S
C81 O78 1.259 . S
C82 O79 1.252 . S
C82 O80 1.281 . S
O83 Mg70 2.010 . S
O83 C75 1.249 . S
Mg84 O85 2.028 . S
Mg84 O91 1.986 . S
Mg84 O93 2.114 . S
Mg84 O94 2.251 . S
Mg84 O97 2.010 . S
O85 Mg84 2.028 . S
O85 C88 1.250 1_655 S
O86 Mg87 2.028 . S
O86 C88 1.248 . S
Mg87 O86 2.028 . S
Mg87 O92 2.032 1_455 S
Mg87 O94 2.079 1_455 S
C88 O85 1.250 1_455 S
C88 O86 1.248 . S
C89 O90 1.264 . S
C89 O97 1.249 . S
O90 C89 1.264 . S
O91 Mg84 1.986 . S
O91 C95 1.246 . S
O92 Mg87 2.032 1_655 S
O92 C95 1.259 . S
O93 Mg84 2.114 . S
O93 C96 1.252 . S
O94 Mg84 2.251 . S
O94 Mg87 2.079 1_655 S
O94 C96 1.273 . S
C95 O91 1.246 . S
C95 O92 1.259 . S
C96 O93 1.252 . S
C96 O94 1.273 . S
O97 Mg84 2.010 . S
O97 C89 1.249 . S
Mg98 O99 2.028 . S
Mg98 O105 1.986 . S
Mg98 O107 2.114 1_565 S
Mg98 O108 2.241 1_565 S
Mg98 O111 2.010 . S
O99 Mg98 2.028 . S
O99 C102 1.250 . S
O100 Mg101 2.028 . S
O100 C102 1.248 . S
Mg101 O100 2.028 . S
Mg101 O106 2.032 . S
Mg101 O108 2.076 1_565 S
C102 O99 1.250 . S
C102 O100 1.248 . S
C103 O104 1.264 . S
C103 O111 1.249 . S
O104 C103 1.264 . S
O105 Mg98 1.986 . S
O105 C109 1.246 . S
O106 Mg101 2.032 . S
O106 C109 1.259 . S
O107 Mg98 2.114 1_545 S
O107 C110 1.252 . S
O108 Mg98 2.241 1_545 S
O108 Mg101 2.076 1_545 S
O108 C110 1.282 . S
C109 O105 1.246 . S
C109 O106 1.259 . S
C110 O107 1.252 . S
C110 O108 1.282 . S
O111 Mg98 2.010 . S
O111 C103 1.249 . S
Mg112 O113 2.028 . S
Mg112 O119 1.986 . S
Mg112 O121 2.114 . S
Mg112 O122 2.251 . S
Mg112 O125 2.010 . S
O113 Mg112 2.028 . S
O113 C116 1.250 1_545 S
O114 Mg115 2.022 1_565 S
O114 C116 1.248 . S
Mg115 O114 2.022 1_545 S
Mg115 O120 2.047 . S
Mg115 O122 2.090 . S
C116 O113 1.250 1_565 S
C116 O114 1.248 . S
C117 O118 1.264 . S
C117 O125 1.249 . S
O118 C117 1.264 . S
O119 Mg112 1.986 . S
O119 C123 1.246 . S
O120 Mg115 2.047 . S
O120 C123 1.259 . S
O121 Mg112 2.114 . S
O121 C124 1.252 . S
O122 Mg112 2.251 . S
O122 Mg115 2.090 . S
O122 C124 1.273 . S
C123 O119 1.246 . S
C123 O120 1.259 . S
C124 O121 1.252 . S
C124 O122 1.273 . S
O125 Mg112 2.010 . S
O125 C117 1.249 . S
Mg126 O127 2.028 . S
Mg126 O133 1.986 . S
Mg126 O135 2.114 . S
Mg126 O136 2.251 . S
Mg126 O139 2.010 . S
O127 Mg126 2.028 . S
O127 C130 1.250 1_655 S
O128 Mg129 2.028 . S
O128 C130 1.248 . S
Mg129 O128 2.028 . S
Mg129 O134 2.032 1_455 S
Mg129 O136 2.079 1_455 S
C130 O127 1.250 1_455 S
C130 O128 1.248 . S
C131 O132 1.264 . S
C131 O139 1.249 . S
O132 C131 1.264 . S
O133 Mg126 1.986 . S
O133 C137 1.246 . S
O134 Mg129 2.032 1_655 S
O134 C137 1.259 . S
O135 Mg126 2.114 . S
O135 C138 1.252 . S
O136 Mg126 2.251 . S
O136 Mg129 2.079 1_655 S
O136 C138 1.273 . S
C137 O133 1.246 . S
C137 O134 1.259 . S
C138 O135 1.252 . S
C138 O136 1.273 . S
O139 Mg126 2.010 . S
O139 C131 1.249 . S
Mg140 O141 2.028 . S
Mg140 O147 1.986 . S
Mg140 O149 2.114 . S
Mg140 O150 2.251 . S
Mg140 O153 2.010 . S
O141 Mg140 2.028 . S
O141 C144 1.250 1_565 S
O142 Mg143 2.022 1_545 S
O142 C144 1.248 . S
Mg143 O142 2.022 1_565 S
Mg143 O148 2.047 . S
Mg143 O150 2.090 . S
C144 O141 1.250 1_545 S
C144 O142 1.248 . S
C145 O146 1.264 . S
C145 O153 1.249 . S
O146 C145 1.264 . S
O147 Mg140 1.986 . S
O147 C151 1.246 . S
O148 Mg143 2.047 . S
O148 C151 1.259 . S
O149 Mg140 2.114 . S
O149 C152 1.252 . S
O150 Mg140 2.251 . S
O150 Mg143 2.090 . S
O150 C152 1.273 . S
C151 O147 1.246 . S
C151 O148 1.259 . S
C152 O149 1.252 . S
C152 O150 1.273 . S
O153 Mg140 2.010 . S
O153 C145 1.249 . S
Mg154 O155 2.028 . S
Mg154 O161 1.986 . S
Mg154 O163 2.114 . S
Mg154 O164 2.251 . S
Mg154 O167 2.010 . S
O155 Mg154 2.028 . S
O155 C158 1.250 1_455 S
O156 Mg157 2.028 . S
O156 C158 1.248 . S
Mg157 O156 2.028 . S
Mg157 O162 2.032 1_655 S
Mg157 O164 2.079 1_655 S
C158 O155 1.250 1_655 S
C158 O156 1.248 . S
C159 O160 1.264 . S
C159 O167 1.249 . S
O160 C159 1.264 . S
O161 Mg154 1.986 . S
O161 C165 1.246 . S
O162 Mg157 2.032 1_455 S
O162 C165 1.259 . S
O163 Mg154 2.114 . S
O163 C166 1.252 . S
O164 Mg154 2.251 . S
O164 Mg157 2.079 1_455 S
O164 C166 1.273 . S
C165 O161 1.246 . S
C165 O162 1.259 . S
C166 O163 1.252 . S
C166 O164 1.273 . S
O167 Mg154 2.010 . S
O167 C159 1.249 . S
Mg168 O169 2.028 . S
Mg168 O175 1.986 . S
Mg168 O177 2.114 . S
Mg168 O178 2.251 . S
Mg168 O181 2.010 . S
O169 Mg168 2.028 . S
O169 C172 1.250 1_565 S
O170 Mg171 2.022 1_545 S
O170 C172 1.248 . S
Mg171 O170 2.022 1_565 S
Mg171 O176 2.047 . S
Mg171 O178 2.090 . S
C172 O169 1.250 1_545 S
C172 O170 1.248 . S
C173 O174 1.264 . S
C173 O181 1.249 . S
O174 C173 1.264 . S
O175 Mg168 1.986 . S
O175 C179 1.246 . S
O176 Mg171 2.047 . S
O176 C179 1.259 . S
O177 Mg168 2.114 . S
O177 C180 1.252 . S
O178 Mg168 2.251 . S
O178 Mg171 2.090 . S
O178 C180 1.273 . S
C179 O175 1.246 . S
C179 O176 1.259 . S
C180 O177 1.252 . S
C180 O178 1.273 . S
O181 Mg168 2.010 . S
O181 C173 1.249 . S
Mg182 O183 2.028 . S
Mg182 O189 1.986 . S
Mg182 O191 2.114 . S
Mg182 O192 2.251 . S
Mg182 O195 2.010 . S
O183 Mg182 2.028 . S
O183 C186 1.250 1_455 S
O184 Mg185 2.028 . S
O184 C186 1.248 . S
Mg185 O184 2.028 . S
Mg185 O190 2.032 1_655 S
Mg185 O192 2.079 1_655 S
C186 O183 1.250 1_655 S
C186 O184 1.248 . S
C187 O188 1.264 . S
C187 O195 1.249 . S
O188 C187 1.264 . S
O189 Mg182 1.986 . S
O189 C193 1.246 . S
O190 Mg185 2.032 1_455 S
O190 C193 1.259 . S
O191 Mg182 2.114 . S
O191 C194 1.252 . S
O192 Mg182 2.251 . S
O192 Mg185 2.079 1_455 S
O192 C194 1.273 . S
C193 O189 1.246 . S
C193 O190 1.259 . S
C194 O191 1.252 . S
C194 O192 1.273 . S
O195 Mg182 2.010 . S
O195 C187 1.249 . S
Mg196 O197 2.028 . S
Mg196 O203 1.986 . S
Mg196 O205 2.114 . S
Mg196 O206 2.251 . S
Mg196 O209 2.010 . S
O197 Mg196 2.028 . S
O197 C200 1.250 1_545 S
O198 Mg199 2.022 1_565 S
O198 C200 1.248 . S
Mg199 O198 2.022 1_545 S
Mg199 O204 2.047 . S
Mg199 O206 2.090 . S
C200 O197 1.250 1_565 S
C200 O198 1.248 . S
C201 O202 1.264 . S
C201 O209 1.249 . S
O202 C201 1.264 . S
O203 Mg196 1.986 . S
O203 C207 1.246 . S
O204 Mg199 2.047 . S
O204 C207 1.259 . S
O205 Mg196 2.114 . S
O205 C208 1.252 . S
O206 Mg196 2.251 . S
O206 Mg199 2.090 . S
O206 C208 1.273 . S
C207 O203 1.246 . S
C207 O204 1.259 . S
C208 O205 1.252 . S
C208 O206 1.273 . S
O209 Mg196 2.010 . S
O209 C201 1.249 . S
Mg210 O211 2.028 . S
Mg210 O217 1.986 . S
Mg210 O219 2.114 . S
Mg210 O220 2.251 . S
Mg210 O223 2.010 . S
O211 Mg210 2.028 . S
O211 C214 1.250 1_655 S
O212 Mg213 2.028 . S
O212 C214 1.248 . S
Mg213 O212 2.028 . S
Mg213 O218 2.032 1_455 S
Mg213 O220 2.079 1_455 S
C214 O211 1.250 1_455 S
C214 O212 1.248 . S
C215 O216 1.264 . S
C215 O223 1.249 . S
O216 C215 1.264 . S
O217 Mg210 1.986 . S
O217 C221 1.246 . S
O218 Mg213 2.032 1_655 S
O218 C221 1.259 . S
O219 Mg210 2.114 . S
O219 C222 1.252 . S
O220 Mg210 2.251 . S
O220 Mg213 2.079 1_655 S
O220 C222 1.273 . S
C221 O217 1.246 . S
C221 O218 1.259 . S
C222 O219 1.252 . S
C222 O220 1.273 . S
O223 Mg210 2.010 . S
O223 C215 1.249 . S
Mg224 O225 2.028 . S
Mg224 O231 1.986 . S
Mg224 O233 2.114 1_554 S
Mg224 O234 2.241 1_554 S
Mg224 O237 2.010 . S
O225 Mg224 2.028 . S
O225 C228 1.250 . S
O226 Mg227 2.028 . S
O226 C228 1.248 . S
Mg227 O226 2.028 . S
Mg227 O232 2.032 . S
Mg227 O234 2.076 1_554 S
C228 O225 1.250 . S
C228 O226 1.248 . S
C229 O230 1.264 . S
C229 O237 1.249 . S
O230 C229 1.264 . S
O231 Mg224 1.986 . S
O231 C235 1.246 . S
O232 Mg227 2.032 . S
O232 C235 1.259 . S
O233 Mg224 2.114 1_556 S
O233 C236 1.252 . S
O234 Mg224 2.241 1_556 S
O234 Mg227 2.076 1_556 S
O234 C236 1.282 . S
C235 O231 1.246 . S
C235 O232 1.259 . S
C236 O233 1.252 . S
C236 O234 1.282 . S
O237 Mg224 2.010 . S
O237 C229 1.249 . S
Mg238 O239 2.028 . S
Mg238 O245 1.986 . S
Mg238 O247 2.114 1_556 S
Mg238 O248 2.241 1_556 S
Mg238 O251 2.010 . S
O239 Mg238 2.028 . S
O239 C242 1.250 . S
O240 Mg241 2.028 . S
O240 C242 1.248 . S
Mg241 O240 2.028 . S
Mg241 O246 2.032 . S
Mg241 O248 2.076 1_556 S
C242 O239 1.250 . S
C242 O240 1.248 . S
C243 O244 1.264 . S
C243 O251 1.249 . S
O244 C243 1.264 . S
O245 Mg238 1.986 . S
O245 C249 1.246 . S
O246 Mg241 2.032 . S
O246 C249 1.259 . S
O247 Mg238 2.114 1_554 S
O247 C250 1.252 . S
O248 Mg238 2.241 1_554 S
O248 Mg241 2.076 1_554 S
O248 C250 1.281 . S
C249 O245 1.246 . S
C249 O246 1.259 . S
C250 O247 1.252 . S
C250 O248 1.281 . S
O251 Mg238 2.010 . S
O251 C243 1.249 . S
Mg252 O253 2.028 . S
Mg252 O259 1.986 . S
Mg252 O261 2.114 . S
Mg252 O262 2.251 . S
Mg252 O265 2.010 . S
O253 Mg252 2.028 . S
O253 C256 1.250 1_556 S
O254 Mg255 2.022 1_554 S
O254 C256 1.248 . S
Mg255 O254 2.022 1_556 S
Mg255 O260 2.047 . S
Mg255 O262 2.090 . S
C256 O253 1.250 1_554 S
C256 O254 1.248 . S
C257 O258 1.264 . S
C257 O265 1.249 . S
O258 C257 1.264 . S
O259 Mg252 1.986 . S
O259 C263 1.246 . S
O260 Mg255 2.047 . S
O260 C263 1.259 . S
O261 Mg252 2.114 . S
O261 C264 1.252 . S
O262 Mg252 2.251 . S
O262 Mg255 2.090 . S
O262 C264 1.273 . S
C263 O259 1.246 . S
C263 O260 1.259 . S
C264 O261 1.252 . S
C264 O262 1.273 . S
O265 Mg252 2.010 . S
O265 C257 1.249 . S
Mg266 O267 2.028 . S
Mg266 O273 1.986 . S
Mg266 O275 2.114 1_556 S
Mg266 O276 2.241 1_556 S
Mg266 O279 2.010 . S
O267 Mg266 2.028 . S
O267 C270 1.250 . S
O268 Mg269 2.028 . S
O268 C270 1.248 . S
Mg269 O268 2.028 . S
Mg269 O274 2.032 . S
Mg269 O276 2.076 1_556 S
C270 O267 1.250 . S
C270 O268 1.248 . S
C271 O272 1.264 . S
C271 O279 1.249 . S
O272 C271 1.264 . S
O273 Mg266 1.986 . S
O273 C277 1.246 . S
O274 Mg269 2.032 . S
O274 C277 1.259 . S
O275 Mg266 2.114 1_554 S
O275 C278 1.252 . S
O276 Mg266 2.241 1_554 S
O276 Mg269 2.076 1_554 S
O276 C278 1.281 . S
C277 O273 1.246 . S
C277 O274 1.259 . S
C278 O275 1.252 . S
C278 O276 1.281 . S
O279 Mg266 2.010 . S
O279 C271 1.249 . S
Mg280 O281 2.028 . S
Mg280 O287 1.986 . S
Mg280 O289 2.114 . S
Mg280 O290 2.251 . S
Mg280 O293 2.010 . S
O281 Mg280 2.028 . S
O281 C284 1.250 1_556 S
O282 Mg283 2.022 1_554 S
O282 C284 1.248 . S
Mg283 O282 2.022 1_556 S
Mg283 O288 2.047 . S
Mg283 O290 2.090 . S
C284 O281 1.250 1_554 S
C284 O282 1.248 . S
C285 O286 1.264 . S
C285 O293 1.249 . S
O286 C285 1.264 . S
O287 Mg280 1.986 . S
O287 C291 1.246 . S
O288 Mg283 2.047 . S
O288 C291 1.259 . S
O289 Mg280 2.114 . S
O289 C292 1.252 . S
O290 Mg280 2.251 . S
O290 Mg283 2.090 . S
O290 C292 1.273 . S
C291 O287 1.246 . S
C291 O288 1.259 . S
C292 O289 1.252 . S
C292 O290 1.273 . S
O293 Mg280 2.010 . S
O293 C285 1.249 . S
Mg294 O295 2.028 . S
Mg294 O301 1.986 . S
Mg294 O303 2.114 1_554 S
Mg294 O304 2.241 1_554 S
Mg294 O307 2.010 . S
O295 Mg294 2.028 . S
O295 C298 1.250 . S
O296 Mg297 2.028 . S
O296 C298 1.248 . S
Mg297 O296 2.028 . S
Mg297 O302 2.032 . S
Mg297 O304 2.076 1_554 S
C298 O295 1.250 . S
C298 O296 1.248 . S
C299 O300 1.264 . S
C299 O307 1.249 . S
O300 C299 1.264 . S
O301 Mg294 1.986 . S
O301 C305 1.246 . S
O302 Mg297 2.032 . S
O302 C305 1.259 . S
O303 Mg294 2.114 1_556 S
O303 C306 1.252 . S
O304 Mg294 2.241 1_556 S
O304 Mg297 2.076 1_556 S
O304 C306 1.282 . S
C305 O301 1.246 . S
C305 O302 1.259 . S
C306 O303 1.252 . S
C306 O304 1.282 . S
O307 Mg294 2.010 . S
O307 C299 1.249 . S
Mg308 O309 2.028 . S
Mg308 O315 1.986 . S
Mg308 O317 2.114 . S
Mg308 O318 2.251 . S
Mg308 O321 2.010 . S
O309 Mg308 2.028 . S
O309 C312 1.250 1_554 S
O310 Mg311 2.022 1_556 S
O310 C312 1.248 . S
Mg311 O310 2.022 1_554 S
Mg311 O316 2.047 . S
Mg311 O318 2.090 . S
C312 O309 1.250 1_556 S
C312 O310 1.248 . S
C313 O314 1.264 . S
C313 O321 1.249 . S
O314 C313 1.264 . S
O315 Mg308 1.986 . S
O315 C319 1.246 . S
O316 Mg311 2.047 . S
O316 C319 1.259 . S
O317 Mg308 2.114 . S
O317 C320 1.252 . S
O318 Mg308 2.251 . S
O318 Mg311 2.090 . S
O318 C320 1.273 . S
C319 O315 1.246 . S
C319 O316 1.259 . S
C320 O317 1.252 . S
C320 O318 1.273 . S
O321 Mg308 2.010 . S
O321 C313 1.249 . S
Mg322 O323 2.028 . S
Mg322 O329 1.986 . S
Mg322 O331 2.114 . S
Mg322 O332 2.251 . S
Mg322 O335 2.010 . S
O323 Mg322 2.028 . S
O323 C326 1.250 1_554 S
O324 Mg325 2.022 1_556 S
O324 C326 1.248 . S
Mg325 O324 2.022 1_554 S
Mg325 O330 2.047 . S
Mg325 O332 2.090 . S
C326 O323 1.250 1_556 S
C326 O324 1.248 . S
C327 O328 1.264 . S
C327 O335 1.249 . S
O328 C327 1.264 . S
O329 Mg322 1.986 . S
O329 C333 1.246 . S
O330 Mg325 2.047 . S
O330 C333 1.259 . S
O331 Mg322 2.114 . S
O331 C334 1.252 . S
O332 Mg322 2.251 . S
O332 Mg325 2.090 . S
O332 C334 1.273 . S
C333 O329 1.246 . S
C333 O330 1.259 . S
C334 O331 1.252 . S
C334 O332 1.273 . S
O335 Mg322 2.010 . S
O335 C327 1.249 . S
Mg336 O337 2.028 . S
Mg336 O343 1.986 . S
Mg336 O345 2.114 . S
Mg336 O346 2.251 . S
Mg336 O349 2.010 . S
O337 Mg336 2.028 . S
O337 C340 1.250 . S
O338 Mg339 2.028 . S
O338 C340 1.248 . S
Mg339 O338 2.028 . S
Mg339 O344 2.032 . S
Mg339 O346 2.079 . S
C340 O337 1.250 . S
C340 O338 1.248 . S
C341 O342 1.264 . S
C341 O349 1.249 . S
O342 C341 1.264 . S
O343 Mg336 1.986 . S
O343 C347 1.246 . S
O344 Mg339 2.032 . S
O344 C347 1.259 . S
O345 Mg336 2.114 . S
O345 C348 1.252 . S
O346 Mg336 2.251 . S
O346 Mg339 2.079 . S
O346 C348 1.273 . S
C347 O343 1.246 . S
C347 O344 1.259 . S
C348 O345 1.252 . S
C348 O346 1.273 . S
O349 Mg336 2.010 . S
O349 C341 1.249 . S
Mg350 O351 2.028 . S
Mg350 O357 1.986 . S
Mg350 O359 2.114 . S
Mg350 O360 2.251 . S
Mg350 O363 2.010 . S
O351 Mg350 2.028 . S
O351 C354 1.250 . S
O352 Mg353 2.028 . S
O352 C354 1.248 . S
Mg353 O352 2.028 . S
Mg353 O358 2.032 . S
Mg353 O360 2.079 . S
C354 O351 1.250 . S
C354 O352 1.248 . S
C355 O356 1.264 . S
C355 O363 1.249 . S
O356 C355 1.264 . S
O357 Mg350 1.986 . S
O357 C361 1.246 . S
O358 Mg353 2.032 . S
O358 C361 1.259 . S
O359 Mg350 2.114 . S
O359 C362 1.252 . S
O360 Mg350 2.251 . S
O360 Mg353 2.079 . S
O360 C362 1.273 . S
C361 O357 1.246 . S
C361 O358 1.259 . S
C362 O359 1.252 . S
C362 O360 1.273 . S
O363 Mg350 2.010 . S
O363 C355 1.249 . S
Mg364 O365 2.028 . S
Mg364 O371 1.986 . S
Mg364 O373 2.114 . S
Mg364 O374 2.251 . S
Mg364 O377 2.010 . S
O365 Mg364 2.028 . S
O365 C368 1.250 . S
O366 Mg367 2.028 . S
O366 C368 1.248 . S
Mg367 O366 2.028 . S
Mg367 O372 2.032 . S
Mg367 O374 2.079 . S
C368 O365 1.250 . S
C368 O366 1.248 . S
C369 O370 1.264 . S
C369 O377 1.249 . S
O370 C369 1.264 . S
O371 Mg364 1.986 . S
O371 C375 1.246 . S
O372 Mg367 2.032 . S
O372 C375 1.259 . S
O373 Mg364 2.114 . S
O373 C376 1.252 . S
O374 Mg364 2.251 . S
O374 Mg367 2.079 . S
O374 C376 1.273 . S
C375 O371 1.246 . S
C375 O372 1.259 . S
C376 O373 1.252 . S
C376 O374 1.273 . S
O377 Mg364 2.010 . S
O377 C369 1.249 . S
Mg378 O379 2.028 . S
Mg378 O385 1.986 . S
Mg378 O387 2.114 . S
Mg378 O388 2.251 . S
Mg378 O391 2.010 . S
O379 Mg378 2.028 . S
O379 C382 1.250 . S
O380 Mg381 2.028 . S
O380 C382 1.248 . S
Mg381 O380 2.028 . S
Mg381 O386 2.032 . S
Mg381 O388 2.079 . S
C382 O379 1.250 . S
C382 O380 1.248 . S
C383 O384 1.264 . S
C383 O391 1.249 . S
O384 C383 1.264 . S
O385 Mg378 1.986 . S
O385 C389 1.246 . S
O386 Mg381 2.032 . S
O386 C389 1.259 . S
O387 Mg378 2.114 . S
O387 C390 1.252 . S
O388 Mg378 2.251 . S
O388 Mg381 2.079 . S
O388 C390 1.273 . S
C389 O385 1.246 . S
C389 O386 1.259 . S
C390 O387 1.252 . S
C390 O388 1.273 . S
O391 Mg378 2.010 . S
O391 C383 1.249 . S
Mg392 O393 2.028 . S
Mg392 O399 1.986 . S
Mg392 O401 2.114 . S
Mg392 O402 2.251 . S
Mg392 O405 2.010 . S
O393 Mg392 2.028 . S
O393 C396 1.250 . S
O394 Mg395 2.028 . S
O394 C396 1.248 . S
Mg395 O394 2.028 . S
Mg395 O400 2.032 . S
Mg395 O402 2.079 . S
C396 O393 1.250 . S
C396 O394 1.248 . S
C397 O398 1.264 . S
C397 O405 1.249 . S
O398 C397 1.264 . S
O399 Mg392 1.986 . S
O399 C403 1.246 . S
O400 Mg395 2.032 . S
O400 C403 1.259 . S
O401 Mg392 2.114 . S
O401 C404 1.252 . S
O402 Mg392 2.251 . S
O402 Mg395 2.079 . S
O402 C404 1.273 . S
C403 O399 1.246 . S
C403 O400 1.259 . S
C404 O401 1.252 . S
C404 O402 1.273 . S
O405 Mg392 2.010 . S
O405 C397 1.249 . S
Mg406 O407 2.028 . S
Mg406 O413 1.986 . S
Mg406 O415 2.114 . S
Mg406 O416 2.251 . S
Mg406 O419 2.010 . S
O407 Mg406 2.028 . S
O407 C410 1.250 . S
O408 Mg409 2.028 . S
O408 C410 1.248 . S
Mg409 O408 2.028 . S
Mg409 O414 2.032 . S
Mg409 O416 2.079 . S
C410 O407 1.250 . S
C410 O408 1.248 . S
C411 O412 1.264 . S
C411 O419 1.249 . S
O412 C411 1.264 . S
O413 Mg406 1.986 . S
O413 C417 1.246 . S
O414 Mg409 2.032 . S
O414 C417 1.259 . S
O415 Mg406 2.114 . S
O415 C418 1.252 . S
O416 Mg406 2.251 . S
O416 Mg409 2.079 . S
O416 C418 1.273 . S
C417 O413 1.246 . S
C417 O414 1.259 . S
C418 O415 1.252 . S
C418 O416 1.273 . S
O419 Mg406 2.010 . S
O419 C411 1.249 . S
Mg420 O421 2.028 . S
Mg420 O427 1.986 . S
Mg420 O429 2.114 . S
Mg420 O430 2.251 . S
Mg420 O433 2.010 . S
O421 Mg420 2.028 . S
O421 C424 1.250 . S
O422 Mg423 2.028 . S
O422 C424 1.248 . S
Mg423 O422 2.028 . S
Mg423 O428 2.032 . S
Mg423 O430 2.079 . S
C424 O421 1.250 . S
C424 O422 1.248 . S
C425 O426 1.264 . S
C425 O433 1.249 . S
O426 C425 1.264 . S
O427 Mg420 1.986 . S
O427 C431 1.246 . S
O428 Mg423 2.032 . S
O428 C431 1.259 . S
O429 Mg420 2.114 . S
O429 C432 1.252 . S
O430 Mg420 2.251 . S
O430 Mg423 2.079 . S
O430 C432 1.273 . S
C431 O427 1.246 . S
C431 O428 1.259 . S
C432 O429 1.252 . S
C432 O430 1.273 . S
O433 Mg420 2.010 . S
O433 C425 1.249 . S
Mg434 O435 2.028 . S
Mg434 O441 1.986 . S
Mg434 O443 2.114 . S
Mg434 O444 2.251 . S
Mg434 O447 2.010 . S
O435 Mg434 2.028 . S
O435 C438 1.250 . S
O436 Mg437 2.028 . S
O436 C438 1.248 . S
Mg437 O436 2.028 . S
Mg437 O442 2.032 . S
Mg437 O444 2.079 . S
C438 O435 1.250 . S
C438 O436 1.248 . S
C439 O440 1.264 . S
C439 O447 1.249 . S
O440 C439 1.264 . S
O441 Mg434 1.986 . S
O441 C445 1.246 . S
O442 Mg437 2.032 . S
O442 C445 1.259 . S
O443 Mg434 2.114 . S
O443 C446 1.252 . S
O444 Mg434 2.251 . S
O444 Mg437 2.079 . S
O444 C446 1.273 . S
C445 O441 1.246 . S
C445 O442 1.259 . S
C446 O443 1.252 . S
C446 O444 1.273 . S
O447 Mg434 2.010 . S
O447 C439 1.249 . S
Mg448 O449 2.028 . S
Mg448 O455 1.986 . S
Mg448 O457 2.114 . S
Mg448 O458 2.251 . S
Mg448 O461 2.010 . S
O449 Mg448 2.028 . S
O449 C452 1.250 . S
O450 Mg451 2.028 . S
O450 C452 1.248 . S
Mg451 O450 2.028 . S
Mg451 O456 2.032 . S
Mg451 O458 2.079 . S
C452 O449 1.250 . S
C452 O450 1.248 . S
C453 O454 1.264 . S
C453 O461 1.249 . S
O454 C453 1.264 . S
O455 Mg448 1.986 . S
O455 C459 1.246 . S
O456 Mg451 2.032 . S
O456 C459 1.259 . S
O457 Mg448 2.114 . S
O457 C460 1.252 . S
O458 Mg448 2.251 . S
O458 Mg451 2.079 . S
O458 C460 1.273 . S
C459 O455 1.246 . S
C459 O456 1.259 . S
C460 O457 1.252 . S
C460 O458 1.273 . S
O461 Mg448 2.010 . S
O461 C453 1.249 . S
Mg462 O463 2.028 . S
Mg462 O469 1.986 . S
Mg462 O471 2.114 . S
Mg462 O472 2.251 . S
Mg462 O475 2.010 . S
O463 Mg462 2.028 . S
O463 C466 1.250 . S
O464 Mg465 2.028 . S
O464 C466 1.248 . S
Mg465 O464 2.028 . S
Mg465 O470 2.032 . S
Mg465 O472 2.079 . S
C466 O463 1.250 . S
C466 O464 1.248 . S
C467 O468 1.264 . S
C467 O475 1.249 . S
O468 C467 1.264 . S
O469 Mg462 1.986 . S
O469 C473 1.246 . S
O470 Mg465 2.032 . S
O470 C473 1.259 . S
O471 Mg462 2.114 . S
O471 C474 1.252 . S
O472 Mg462 2.251 . S
O472 Mg465 2.079 . S
O472 C474 1.273 . S
C473 O469 1.246 . S
C473 O470 1.259 . S
C474 O471 1.252 . S
C474 O472 1.273 . S
O475 Mg462 2.010 . S
O475 C467 1.249 . S
Mg476 O477 2.028 . S
Mg476 O483 1.986 . S
Mg476 O485 2.114 . S
Mg476 O486 2.251 . S
Mg476 O489 2.010 . S
O477 Mg476 2.028 . S
O477 C480 1.250 . S
O478 Mg479 2.028 . S
O478 C480 1.248 . S
Mg479 O478 2.028 . S
Mg479 O484 2.032 . S
Mg479 O486 2.079 . S
C480 O477 1.250 . S
C480 O478 1.248 . S
C481 O482 1.264 . S
C481 O489 1.249 . S
O482 C481 1.264 . S
O483 Mg476 1.986 . S
O483 C487 1.246 . S
O484 Mg479 2.032 . S
O484 C487 1.259 . S
O485 Mg476 2.114 . S
O485 C488 1.252 . S
O486 Mg476 2.251 . S
O486 Mg479 2.079 . S
O486 C488 1.273 . S
C487 O483 1.246 . S
C487 O484 1.259 . S
C488 O485 1.252 . S
C488 O486 1.273 . S
O489 Mg476 2.010 . S
O489 C481 1.249 . S
Mg490 O491 2.028 . S
Mg490 O497 1.986 . S
Mg490 O499 2.114 . S
Mg490 O500 2.251 . S
Mg490 O503 2.010 . S
O491 Mg490 2.028 . S
O491 C494 1.250 . S
O492 Mg493 2.028 . S
O492 C494 1.248 . S
Mg493 O492 2.028 . S
Mg493 O498 2.032 . S
Mg493 O500 2.079 . S
C494 O491 1.250 . S
C494 O492 1.248 . S
C495 O496 1.264 . S
C495 O503 1.249 . S
O496 C495 1.264 . S
O497 Mg490 1.986 . S
O497 C501 1.246 . S
O498 Mg493 2.032 . S
O498 C501 1.259 . S
O499 Mg490 2.114 . S
O499 C502 1.252 . S
O500 Mg490 2.251 . S
O500 Mg493 2.079 . S
O500 C502 1.273 . S
C501 O497 1.246 . S
C501 O498 1.259 . S
C502 O499 1.252 . S
C502 O500 1.273 . S
O503 Mg490 2.010 . S
O503 C495 1.249 . S
Mg504 O505 2.028 . S
Mg504 O511 1.986 . S
Mg504 O513 2.114 . S
Mg504 O514 2.251 . S
Mg504 O517 2.010 . S
O505 Mg504 2.028 . S
O505 C508 1.250 . S
O506 Mg507 2.028 . S
O506 C508 1.248 . S
Mg507 O506 2.028 . S
Mg507 O512 2.032 . S
Mg507 O514 2.079 . S
C508 O505 1.250 . S
C508 O506 1.248 . S
C509 O510 1.264 . S
C509 O517 1.249 . S
O510 C509 1.264 . S
O511 Mg504 1.986 . S
O511 C515 1.246 . S
O512 Mg507 2.032 . S
O512 C515 1.259 . S
O513 Mg504 2.114 . S
O513 C516 1.252 . S
O514 Mg504 2.251 . S
O514 Mg507 2.079 . S
O514 C516 1.273 . S
C515 O511 1.246 . S
C515 O512 1.259 . S
C516 O513 1.252 . S
C516 O514 1.273 . S
O517 Mg504 2.010 . S
O517 C509 1.249 . S
Mg518 O519 2.028 . S
Mg518 O525 1.986 . S
Mg518 O527 2.114 . S
Mg518 O528 2.251 . S
Mg518 O531 2.010 . S
O519 Mg518 2.028 . S
O519 C522 1.250 . S
O520 Mg521 2.028 . S
O520 C522 1.248 . S
Mg521 O520 2.028 . S
Mg521 O526 2.032 . S
Mg521 O528 2.079 . S
C522 O519 1.250 . S
C522 O520 1.248 . S
C523 O524 1.264 . S
C523 O531 1.249 . S
O524 C523 1.264 . S
O525 Mg518 1.986 . S
O525 C529 1.246 . S
O526 Mg521 2.032 . S
O526 C529 1.259 . S
O527 Mg518 2.114 . S
O527 C530 1.252 . S
O528 Mg518 2.251 . S
O528 Mg521 2.079 . S
O528 C530 1.273 . S
C529 O525 1.246 . S
C529 O526 1.259 . S
C530 O527 1.252 . S
C530 O528 1.273 . S
O531 Mg518 2.010 . S
O531 C523 1.249 . S
Mg532 O533 2.028 . S
Mg532 O539 1.986 . S
Mg532 O541 2.114 . S
Mg532 O542 2.251 . S
Mg532 O545 2.010 . S
O533 Mg532 2.028 . S
O533 C536 1.250 . S
O534 Mg535 2.028 . S
O534 C536 1.248 . S
Mg535 O534 2.028 . S
Mg535 O540 2.032 . S
Mg535 O542 2.079 . S
C536 O533 1.250 . S
C536 O534 1.248 . S
C537 O538 1.264 . S
C537 O545 1.249 . S
O538 C537 1.264 . S
O539 Mg532 1.986 . S
O539 C543 1.246 . S
O540 Mg535 2.032 . S
O540 C543 1.259 . S
O541 Mg532 2.114 . S
O541 C544 1.252 . S
O542 Mg532 2.251 . S
O542 Mg535 2.079 . S
O542 C544 1.273 . S
C543 O539 1.246 . S
C543 O540 1.259 . S
C544 O541 1.252 . S
C544 O542 1.273 . S
O545 Mg532 2.010 . S
O545 C537 1.249 . S
Mg546 O547 2.028 . S
Mg546 O553 1.986 . S
Mg546 O555 2.114 . S
Mg546 O556 2.251 . S
Mg546 O559 2.010 . S
O547 Mg546 2.028 . S
O547 C550 1.250 . S
O548 Mg549 2.028 . S
O548 C550 1.248 . S
Mg549 O548 2.028 . S
Mg549 O554 2.032 . S
Mg549 O556 2.079 . S
C550 O547 1.250 . S
C550 O548 1.248 . S
C551 O552 1.264 . S
C551 O559 1.249 . S
O552 C551 1.264 . S
O553 Mg546 1.986 . S
O553 C557 1.246 . S
O554 Mg549 2.032 . S
O554 C557 1.259 . S
O555 Mg546 2.114 . S
O555 C558 1.252 . S
O556 Mg546 2.251 . S
O556 Mg549 2.079 . S
O556 C558 1.273 . S
C557 O553 1.246 . S
C557 O554 1.259 . S
C558 O555 1.252 . S
C558 O556 1.273 . S
O559 Mg546 2.010 . S
O559 C551 1.249 . S
Mg560 O561 2.028 . S
Mg560 O567 1.986 . S
Mg560 O569 2.114 . S
Mg560 O570 2.251 . S
Mg560 O573 2.010 . S
O561 Mg560 2.028 . S
O561 C564 1.250 . S
O562 Mg563 2.028 . S
O562 C564 1.248 . S
Mg563 O562 2.028 . S
Mg563 O568 2.032 . S
Mg563 O570 2.079 . S
C564 O561 1.250 . S
C564 O562 1.248 . S
C565 O566 1.264 . S
C565 O573 1.249 . S
O566 C565 1.264 . S
O567 Mg560 1.986 . S
O567 C571 1.246 . S
O568 Mg563 2.032 . S
O568 C571 1.259 . S
O569 Mg560 2.114 . S
O569 C572 1.252 . S
O570 Mg560 2.251 . S
O570 Mg563 2.079 . S
O570 C572 1.273 . S
C571 O567 1.246 . S
C571 O568 1.259 . S
C572 O569 1.252 . S
C572 O570 1.273 . S
O573 Mg560 2.010 . S
O573 C565 1.249 . S
Mg574 O575 2.028 . S
Mg574 O581 1.986 . S
Mg574 O583 2.114 . S
Mg574 O584 2.251 . S
Mg574 O587 2.010 . S
O575 Mg574 2.028 . S
O575 C578 1.250 . S
O576 Mg577 2.028 . S
O576 C578 1.248 . S
Mg577 O576 2.028 . S
Mg577 O582 2.032 . S
Mg577 O584 2.079 . S
C578 O575 1.250 . S
C578 O576 1.248 . S
C579 O580 1.264 . S
C579 O587 1.249 . S
O580 C579 1.264 . S
O581 Mg574 1.986 . S
O581 C585 1.246 . S
O582 Mg577 2.032 . S
O582 C585 1.259 . S
O583 Mg574 2.114 . S
O583 C586 1.252 . S
O584 Mg574 2.251 . S
O584 Mg577 2.079 . S
O584 C586 1.273 . S
C585 O581 1.246 . S
C585 O582 1.259 . S
C586 O583 1.252 . S
C586 O584 1.273 . S
O587 Mg574 2.010 . S
O587 C579 1.249 . S
Mg588 O589 2.028 . S
Mg588 O595 1.986 . S
Mg588 O597 2.114 . S
Mg588 O598 2.251 . S
Mg588 O601 2.010 . S
O589 Mg588 2.028 . S
O589 C592 1.250 . S
O590 Mg591 2.028 . S
O590 C592 1.248 . S
Mg591 O590 2.028 . S
Mg591 O596 2.032 . S
Mg591 O598 2.079 . S
C592 O589 1.250 . S
C592 O590 1.248 . S
C593 O594 1.264 . S
C593 O601 1.249 . S
O594 C593 1.264 . S
O595 Mg588 1.986 . S
O595 C599 1.246 . S
O596 Mg591 2.032 . S
O596 C599 1.259 . S
O597 Mg588 2.114 . S
O597 C600 1.252 . S
O598 Mg588 2.251 . S
O598 Mg591 2.079 . S
O598 C600 1.273 . S
C599 O595 1.246 . S
C599 O596 1.259 . S
C600 O597 1.252 . S
C600 O598 1.273 . S
O601 Mg588 2.010 . S
O601 C593 1.249 . S
Mg602 O603 2.028 . S
Mg602 O609 1.986 . S
Mg602 O611 2.114 . S
Mg602 O612 2.251 . S
Mg602 O615 2.010 . S
O603 Mg602 2.028 . S
O603 C606 1.250 . S
O604 Mg605 2.028 . S
O604 C606 1.248 . S
Mg605 O604 2.028 . S
Mg605 O610 2.032 . S
Mg605 O612 2.079 . S
C606 O603 1.250 . S
C606 O604 1.248 . S
C607 O608 1.264 . S
C607 O615 1.249 . S
O608 C607 1.264 . S
O609 Mg602 1.986 . S
O609 C613 1.246 . S
O610 Mg605 2.032 . S
O610 C613 1.259 . S
O611 Mg602 2.114 . S
O611 C614 1.252 . S
O612 Mg602 2.251 . S
O612 Mg605 2.079 . S
O612 C614 1.273 . S
C613 O609 1.246 . S
C613 O610 1.259 . S
C614 O611 1.252 . S
C614 O612 1.273 . S
O615 Mg602 2.010 . S
O615 C607 1.249 . S
Mg616 O617 2.028 . S
Mg616 O623 1.986 . S
Mg616 O625 2.114 . S
Mg616 O626 2.251 . S
Mg616 O629 2.010 . S
O617 Mg616 2.028 . S
O617 C620 1.250 . S
O618 Mg619 2.028 . S
O618 C620 1.248 . S
Mg619 O618 2.028 . S
Mg619 O624 2.032 . S
Mg619 O626 2.079 . S
C620 O617 1.250 . S
C620 O618 1.248 . S
C621 O622 1.264 . S
C621 O629 1.249 . S
O622 C621 1.264 . S
O623 Mg616 1.986 . S
O623 C627 1.246 . S
O624 Mg619 2.032 . S
O624 C627 1.259 . S
O625 Mg616 2.114 . S
O625 C628 1.252 . S
O626 Mg616 2.251 . S
O626 Mg619 2.079 . S
O626 C628 1.273 . S
C627 O623 1.246 . S
C627 O624 1.259 . S
C628 O625 1.252 . S
C628 O626 1.273 . S
O629 Mg616 2.010 . S
O629 C621 1.249 . S
Mg630 O631 2.028 . S
Mg630 O637 1.986 . S
Mg630 O639 2.114 . S
Mg630 O640 2.251 . S
Mg630 O643 2.010 . S
O631 Mg630 2.028 . S
O631 C634 1.250 . S
O632 Mg633 2.028 . S
O632 C634 1.248 . S
Mg633 O632 2.028 . S
Mg633 O638 2.032 . S
Mg633 O640 2.079 . S
C634 O631 1.250 . S
C634 O632 1.248 . S
C635 O636 1.264 . S
C635 O643 1.249 . S
O636 C635 1.264 . S
O637 Mg630 1.986 . S
O637 C641 1.246 . S
O638 Mg633 2.032 . S
O638 C641 1.259 . S
O639 Mg630 2.114 . S
O639 C642 1.252 . S
O640 Mg630 2.251 . S
O640 Mg633 2.079 . S
O640 C642 1.273 . S
C641 O637 1.246 . S
C641 O638 1.259 . S
C642 O639 1.252 . S
C642 O640 1.273 . S
O643 Mg630 2.010 . S
O643 C635 1.249 . S
Mg644 O645 2.028 . S
Mg644 O651 1.986 . S
Mg644 O653 2.114 . S
Mg644 O654 2.251 . S
Mg644 O657 2.010 . S
O645 Mg644 2.028 . S
O645 C648 1.250 . S
O646 Mg647 2.028 . S
O646 C648 1.248 . S
Mg647 O646 2.028 . S
Mg647 O652 2.032 . S
Mg647 O654 2.079 . S
C648 O645 1.250 . S
C648 O646 1.248 . S
C649 O650 1.264 . S
C649 O657 1.249 . S
O650 C649 1.264 . S
O651 Mg644 1.986 . S
O651 C655 1.246 . S
O652 Mg647 2.032 . S
O652 C655 1.259 . S
O653 Mg644 2.114 . S
O653 C656 1.252 . S
O654 Mg644 2.251 . S
O654 Mg647 2.079 . S
O654 C656 1.273 . S
C655 O651 1.246 . S
C655 O652 1.259 . S
C656 O653 1.252 . S
C656 O654 1.273 . S
O657 Mg644 2.010 . S
O657 C649 1.249 . S
Mg658 O659 2.028 . S
Mg658 O665 1.986 . S
Mg658 O667 2.114 . S
Mg658 O668 2.251 . S
Mg658 O671 2.010 . S
O659 Mg658 2.028 . S
O659 C662 1.250 . S
O660 Mg661 2.028 . S
O660 C662 1.248 . S
Mg661 O660 2.028 . S
Mg661 O666 2.032 . S
Mg661 O668 2.079 . S
C662 O659 1.250 . S
C662 O660 1.248 . S
C663 O664 1.264 . S
C663 O671 1.249 . S
O664 C663 1.264 . S
O665 Mg658 1.986 . S
O665 C669 1.246 . S
O666 Mg661 2.032 . S
O666 C669 1.259 . S
O667 Mg658 2.114 . S
O667 C670 1.252 . S
O668 Mg658 2.251 . S
O668 Mg661 2.079 . S
O668 C670 1.273 . S
C669 O665 1.246 . S
C669 O666 1.259 . S
C670 O667 1.252 . S
C670 O668 1.273 . S
O671 Mg658 2.010 . S
O671 C663 1.249 . S
H672 C678 0.930 . S
H673 C681 0.930 . S
H674 C682 0.930 . S
H675 C683 0.930 . S
H676 C686 0.930 . S
H677 C687 0.930 . S
C678 H672 0.930 . S
C678 C679 1.355 . S
C678 C680 1.415 . S
C679 C678 1.355 . S
C679 C681 1.419 . S
C680 C678 1.415 . S
C680 C685 1.425 . S
C680 C687 1.409 . S
C681 H673 0.930 . S
C681 C679 1.419 . S
C681 C682 1.362 . S
C682 H674 0.930 . S
C682 C681 1.362 . S
C682 C685 1.409 . S
C683 H675 0.930 . S
C683 C684 1.355 . S
C683 C685 1.415 . S
C684 C683 1.355 . S
C684 C686 1.419 . S
C685 C680 1.425 . S
C685 C682 1.409 . S
C685 C683 1.415 . S
C686 H676 0.930 . S
C686 C684 1.419 . S
C686 C687 1.362 . S
C687 H677 0.930 . S
C687 C680 1.409 . S
C687 C686 1.362 . S
H688 C694 0.930 . S
H689 C697 0.930 . S
H690 C698 0.930 . S
H691 C699 0.930 . S
H692 C702 0.930 . S
H693 C703 0.930 . S
C694 H688 0.930 . S
C694 C695 1.355 . S
C694 C696 1.415 . S
C695 C694 1.355 . S
C695 C697 1.419 . S
C696 C694 1.415 . S
C696 C701 1.425 . S
C696 C703 1.409 . S
C697 H689 0.930 . S
C697 C695 1.419 . S
C697 C698 1.362 . S
C698 H690 0.930 . S
C698 C697 1.362 . S
C698 C701 1.409 . S
C699 H691 0.930 . S
C699 C700 1.355 . S
C699 C701 1.415 . S
C700 C699 1.355 . S
C700 C702 1.419 . S
C701 C696 1.425 . S
C701 C698 1.409 . S
C701 C699 1.415 . S
C702 H692 0.930 . S
C702 C700 1.419 . S
C702 C703 1.362 . S
C703 H693 0.930 . S
C703 C696 1.409 . S
C703 C702 1.362 . S
H704 C710 0.930 . S
H705 C713 0.930 . S
H706 C714 0.930 . S
H707 C715 0.930 . S
H708 C718 0.930 . S
H709 C719 0.930 . S
C710 H704 0.930 . S
C710 C711 1.355 . S
C710 C712 1.415 . S
C711 C710 1.355 . S
C711 C713 1.419 . S
C712 C710 1.415 . S
C712 C717 1.425 . S
C712 C719 1.409 . S
C713 H705 0.930 . S
C713 C711 1.419 . S
C713 C714 1.362 . S
C714 H706 0.930 . S
C714 C713 1.362 . S
C714 C717 1.409 . S
C715 H707 0.930 . S
C715 C716 1.355 . S
C715 C717 1.415 . S
C716 C715 1.355 . S
C716 C718 1.419 . S
C717 C712 1.425 . S
C717 C714 1.409 . S
C717 C715 1.415 . S
C718 H708 0.930 . S
C718 C716 1.419 . S
C718 C719 1.362 . S
C719 H709 0.930 . S
C719 C712 1.409 . S
C719 C718 1.362 . S
H720 C726 0.930 . S
H721 C729 0.930 . S
H722 C730 0.930 . S
H723 C731 0.930 . S
H724 C734 0.930 . S
H725 C735 0.930 . S
C726 H720 0.930 . S
C726 C727 1.355 . S
C726 C728 1.415 . S
C727 C726 1.355 . S
C727 C729 1.419 . S
C728 C726 1.415 . S
C728 C733 1.425 . S
C728 C735 1.409 . S
C729 H721 0.930 . S
C729 C727 1.419 . S
C729 C730 1.362 . S
C730 H722 0.930 . S
C730 C729 1.362 . S
C730 C733 1.409 . S
C731 H723 0.930 . S
C731 C732 1.355 . S
C731 C733 1.415 . S
C732 C731 1.355 . S
C732 C734 1.419 . S
C733 C728 1.425 . S
C733 C730 1.409 . S
C733 C731 1.415 . S
C734 H724 0.930 . S
C734 C732 1.419 . S
C734 C735 1.362 . S
C735 H725 0.930 . S
C735 C728 1.409 . S
C735 C734 1.362 . S
H736 C742 0.930 . S
H737 C745 0.930 . S
H738 C746 0.930 . S
H739 C747 0.930 . S
H740 C750 0.930 . S
H741 C751 0.930 . S
C742 H736 0.930 . S
C742 C743 1.355 . S
C742 C744 1.415 . S
C743 C742 1.355 . S
C743 C745 1.419 . S
C744 C742 1.415 . S
C744 C749 1.425 . S
C744 C751 1.409 . S
C745 H737 0.930 . S
C745 C743 1.419 . S
C745 C746 1.362 . S
C746 H738 0.930 . S
C746 C745 1.362 . S
C746 C749 1.409 . S
C747 H739 0.930 . S
C747 C748 1.355 . S
C747 C749 1.415 . S
C748 C747 1.355 . S
C748 C750 1.419 . S
C749 C744 1.425 . S
C749 C746 1.409 . S
C749 C747 1.415 . S
C750 H740 0.930 . S
C750 C748 1.419 . S
C750 C751 1.362 . S
C751 H741 0.930 . S
C751 C744 1.409 . S
C751 C750 1.362 . S
H752 C758 0.930 . S
H753 C761 0.930 . S
H754 C762 0.930 . S
H755 C763 0.930 . S
H756 C766 0.930 . S
H757 C767 0.930 . S
C758 H752 0.930 . S
C758 C759 1.355 . S
C758 C760 1.415 . S
C759 C758 1.355 . S
C759 C761 1.419 . S
C760 C758 1.415 . S
C760 C765 1.425 . S
C760 C767 1.409 . S
C761 H753 0.930 . S
C761 C759 1.419 . S
C761 C762 1.362 . S
C762 H754 0.930 . S
C762 C761 1.362 . S
C762 C765 1.409 . S
C763 H755 0.930 . S
C763 C764 1.355 . S
C763 C765 1.415 . S
C764 C763 1.355 . S
C764 C766 1.419 . S
C765 C760 1.425 . S
C765 C762 1.409 . S
C765 C763 1.415 . S
C766 H756 0.930 . S
C766 C764 1.419 . S
C766 C767 1.362 . S
C767 H757 0.930 . S
C767 C760 1.409 . S
C767 C766 1.362 . S
H768 C774 0.930 . S
H769 C777 0.930 . S
H770 C778 0.930 . S
H771 C779 0.930 . S
H772 C782 0.930 . S
H773 C783 0.930 . S
C774 H768 0.930 . S
C774 C775 1.355 . S
C774 C776 1.415 . S
C775 C774 1.355 . S
C775 C777 1.419 . S
C776 C774 1.415 . S
C776 C781 1.425 . S
C776 C783 1.409 . S
C777 H769 0.930 . S
C777 C775 1.419 . S
C777 C778 1.362 . S
C778 H770 0.930 . S
C778 C777 1.362 . S
C778 C781 1.409 . S
C779 H771 0.930 . S
C779 C780 1.355 . S
C779 C781 1.415 . S
C780 C779 1.355 . S
C780 C782 1.419 . S
C781 C776 1.425 . S
C781 C778 1.409 . S
C781 C779 1.415 . S
C782 H772 0.930 . S
C782 C780 1.419 . S
C782 C783 1.362 . S
C783 H773 0.930 . S
C783 C776 1.409 . S
C783 C782 1.362 . S
H784 C790 0.930 . S
H785 C793 0.930 . S
H786 C794 0.930 . S
H787 C795 0.930 . S
H788 C798 0.930 . S
H789 C799 0.930 . S
C790 H784 0.930 . S
C790 C791 1.355 . S
C790 C792 1.415 . S
C791 C790 1.355 . S
C791 C793 1.419 . S
C792 C790 1.415 . S
C792 C797 1.425 . S
C792 C799 1.409 . S
C793 H785 0.930 . S
C793 C791 1.419 . S
C793 C794 1.362 . S
C794 H786 0.930 . S
C794 C793 1.362 . S
C794 C797 1.409 . S
C795 H787 0.930 . S
C795 C796 1.355 . S
C795 C797 1.415 . S
C796 C795 1.355 . S
C796 C798 1.419 . S
C797 C792 1.425 . S
C797 C794 1.409 . S
C797 C795 1.415 . S
C798 H788 0.930 . S
C798 C796 1.419 . S
C798 C799 1.362 . S
C799 H789 0.930 . S
C799 C792 1.409 . S
C799 C798 1.362 . S
H800 C806 0.930 . S
H801 C809 0.930 . S
H802 C810 0.930 . S
H803 C811 0.930 . S
H804 C814 0.930 . S
H805 C815 0.930 . S
C806 H800 0.930 . S
C806 C807 1.355 . S
C806 C808 1.415 . S
C807 C806 1.355 . S
C807 C809 1.419 . S
C808 C806 1.415 . S
C808 C813 1.425 . S
C808 C815 1.409 . S
C809 H801 0.930 . S
C809 C807 1.419 . S
C809 C810 1.362 . S
C810 H802 0.930 . S
C810 C809 1.362 . S
C810 C813 1.409 . S
C811 H803 0.930 . S
C811 C812 1.355 . S
C811 C813 1.415 . S
C812 C811 1.355 . S
C812 C814 1.419 . S
C813 C808 1.425 . S
C813 C810 1.409 . S
C813 C811 1.415 . S
C814 H804 0.930 . S
C814 C812 1.419 . S
C814 C815 1.362 . S
C815 H805 0.930 . S
C815 C808 1.409 . S
C815 C814 1.362 . S
H816 C822 0.930 . S
H817 C825 0.930 . S
H818 C826 0.930 . S
H819 C827 0.930 . S
H820 C830 0.930 . S
H821 C831 0.930 . S
C822 H816 0.930 . S
C822 C823 1.355 . S
C822 C824 1.415 . S
C823 C822 1.355 . S
C823 C825 1.419 . S
C824 C822 1.415 . S
C824 C829 1.425 . S
C824 C831 1.409 . S
C825 H817 0.930 . S
C825 C823 1.419 . S
C825 C826 1.362 . S
C826 H818 0.930 . S
C826 C825 1.362 . S
C826 C829 1.409 . S
C827 H819 0.930 . S
C827 C828 1.355 . S
C827 C829 1.415 . S
C828 C827 1.355 . S
C828 C830 1.419 . S
C829 C824 1.425 . S
C829 C826 1.409 . S
C829 C827 1.415 . S
C830 H820 0.930 . S
C830 C828 1.419 . S
C830 C831 1.362 . S
C831 H821 0.930 . S
C831 C824 1.409 . S
C831 C830 1.362 . S
H832 C838 0.930 . S
H833 C841 0.930 . S
H834 C842 0.930 . S
H835 C843 0.930 . S
H836 C846 0.930 . S
H837 C847 0.930 . S
C838 H832 0.930 . S
C838 C839 1.355 . S
C838 C840 1.415 . S
C839 C838 1.355 . S
C839 C841 1.419 . S
C840 C838 1.415 . S
C840 C845 1.425 . S
C840 C847 1.409 . S
C841 H833 0.930 . S
C841 C839 1.419 . S
C841 C842 1.362 . S
C842 H834 0.930 . S
C842 C841 1.362 . S
C842 C845 1.409 . S
C843 H835 0.930 . S
C843 C844 1.355 . S
C843 C845 1.415 . S
C844 C843 1.355 . S
C844 C846 1.419 . S
C845 C840 1.425 . S
C845 C842 1.409 . S
C845 C843 1.415 . S
C846 H836 0.930 . S
C846 C844 1.419 . S
C846 C847 1.362 . S
C847 H837 0.930 . S
C847 C840 1.409 . S
C847 C846 1.362 . S
H848 C854 0.930 . S
H849 C857 0.930 . S
H850 C858 0.930 . S
H851 C859 0.930 . S
H852 C862 0.930 . S
H853 C863 0.930 . S
C854 H848 0.930 . S
C854 C855 1.355 . S
C854 C856 1.415 . S
C855 C854 1.355 . S
C855 C857 1.419 . S
C856 C854 1.415 . S
C856 C861 1.425 . S
C856 C863 1.409 . S
C857 H849 0.930 . S
C857 C855 1.419 . S
C857 C858 1.362 . S
C858 H850 0.930 . S
C858 C857 1.362 . S
C858 C861 1.409 . S
C859 H851 0.930 . S
C859 C860 1.355 . S
C859 C861 1.415 . S
C860 C859 1.355 . S
C860 C862 1.419 . S
C861 C856 1.425 . S
C861 C858 1.409 . S
C861 C859 1.415 . S
C862 H852 0.930 . S
C862 C860 1.419 . S
C862 C863 1.362 . S
C863 H853 0.930 . S
C863 C856 1.409 . S
C863 C862 1.362 . S
H864 C870 0.930 . S
H865 C873 0.930 . S
H866 C874 0.930 . S
H867 C875 0.930 . S
H868 C878 0.930 . S
H869 C879 0.930 . S
C870 H864 0.930 . S
C870 C871 1.355 . S
C870 C872 1.415 . S
C871 C870 1.355 . S
C871 C873 1.419 . S
C872 C870 1.415 . S
C872 C877 1.425 . S
C872 C879 1.409 . S
C873 H865 0.930 . S
C873 C871 1.419 . S
C873 C874 1.362 . S
C874 H866 0.930 . S
C874 C873 1.362 . S
C874 C877 1.409 . S
C875 H867 0.930 . S
C875 C876 1.355 . S
C875 C877 1.415 . S
C876 C875 1.355 . S
C876 C878 1.419 . S
C877 C872 1.425 . S
C877 C874 1.409 . S
C877 C875 1.415 . S
C878 H868 0.930 . S
C878 C876 1.419 . S
C878 C879 1.362 . S
C879 H869 0.930 . S
C879 C872 1.409 . S
C879 C878 1.362 . S
H880 C886 0.930 . S
H881 C889 0.930 . S
H882 C890 0.930 . S
H883 C891 0.930 . S
H884 C894 0.930 . S
H885 C895 0.930 . S
C886 H880 0.930 . S
C886 C887 1.355 . S
C886 C888 1.415 . S
C887 C886 1.355 . S
C887 C889 1.419 . S
C888 C886 1.415 . S
C888 C893 1.425 . S
C888 C895 1.409 . S
C889 H881 0.930 . S
C889 C887 1.419 . S
C889 C890 1.362 . S
C890 H882 0.930 . S
C890 C889 1.362 . S
C890 C893 1.409 . S
C891 H883 0.930 . S
C891 C892 1.355 . S
C891 C893 1.415 . S
C892 C891 1.355 . S
C892 C894 1.419 . S
C893 C888 1.425 . S
C893 C890 1.409 . S
C893 C891 1.415 . S
C894 H884 0.930 . S
C894 C892 1.419 . S
C894 C895 1.362 . S
C895 H885 0.930 . S
C895 C888 1.409 . S
C895 C894 1.362 . S
H896 C902 0.930 . S
H897 C905 0.930 . S
H898 C906 0.930 . S
H899 C907 0.930 . S
H900 C910 0.930 . S
H901 C911 0.930 . S
C902 H896 0.930 . S
C902 C903 1.355 . S
C902 C904 1.415 . S
C903 C902 1.355 . S
C903 C905 1.419 . S
C904 C902 1.415 . S
C904 C909 1.425 . S
C904 C911 1.409 . S
C905 H897 0.930 . S
C905 C903 1.419 . S
C905 C906 1.362 . S
C906 H898 0.930 . S
C906 C905 1.362 . S
C906 C909 1.409 . S
C907 H899 0.930 . S
C907 C908 1.355 . S
C907 C909 1.415 . S
C908 C907 1.355 . S
C908 C910 1.419 . S
C909 C904 1.425 . S
C909 C906 1.409 . S
C909 C907 1.415 . S
C910 H900 0.930 . S
C910 C908 1.419 . S
C910 C911 1.362 . S
C911 H901 0.930 . S
C911 C904 1.409 . S
C911 C910 1.362 . S
H912 C918 0.930 . S
H913 C921 0.930 . S
H914 C922 0.930 . S
H915 C923 0.930 . S
H916 C926 0.930 . S
H917 C927 0.930 . S
C918 H912 0.930 . S
C918 C919 1.355 . S
C918 C920 1.415 . S
C919 C918 1.355 . S
C919 C921 1.419 . S
C920 C918 1.415 . S
C920 C925 1.425 . S
C920 C927 1.409 . S
C921 H913 0.930 . S
C921 C919 1.419 . S
C921 C922 1.362 . S
C922 H914 0.930 . S
C922 C921 1.362 . S
C922 C925 1.409 . S
C923 H915 0.930 . S
C923 C924 1.355 . S
C923 C925 1.415 . S
C924 C923 1.355 . S
C924 C926 1.419 . S
C925 C920 1.425 . S
C925 C922 1.409 . S
C925 C923 1.415 . S
C926 H916 0.930 . S
C926 C924 1.419 . S
C926 C927 1.362 . S
C927 H917 0.930 . S
C927 C920 1.409 . S
C927 C926 1.362 . S
H928 C934 0.930 . S
H929 C937 0.930 . S
H930 C938 0.930 . S
H931 C939 0.930 . S
H932 C942 0.930 . S
H933 C943 0.930 . S
C934 H928 0.930 . S
C934 C935 1.355 . S
C934 C936 1.415 . S
C935 C934 1.355 . S
C935 C937 1.419 . S
C936 C934 1.415 . S
C936 C941 1.425 . S
C936 C943 1.409 . S
C937 H929 0.930 . S
C937 C935 1.419 . S
C937 C938 1.362 . S
C938 H930 0.930 . S
C938 C937 1.362 . S
C938 C941 1.409 . S
C939 H931 0.930 . S
C939 C940 1.355 . S
C939 C941 1.415 . S
C940 C939 1.355 . S
C940 C942 1.419 . S
C941 C936 1.425 . S
C941 C938 1.409 . S
C941 C939 1.415 . S
C942 H932 0.930 . S
C942 C940 1.419 . S
C942 C943 1.362 . S
C943 H933 0.930 . S
C943 C936 1.409 . S
C943 C942 1.362 . S
H944 C950 0.930 . S
H945 C953 0.930 . S
H946 C954 0.930 . S
H947 C955 0.930 . S
H948 C958 0.930 . S
H949 C959 0.930 . S
C950 H944 0.930 . S
C950 C951 1.355 . S
C950 C952 1.415 . S
C951 C950 1.355 . S
C951 C953 1.419 . S
C952 C950 1.415 . S
C952 C957 1.425 . S
C952 C959 1.409 . S
C953 H945 0.930 . S
C953 C951 1.419 . S
C953 C954 1.362 . S
C954 H946 0.930 . S
C954 C953 1.362 . S
C954 C957 1.409 . S
C955 H947 0.930 . S
C955 C956 1.355 . S
C955 C957 1.415 . S
C956 C955 1.355 . S
C956 C958 1.419 . S
C957 C952 1.425 . S
C957 C954 1.409 . S
C957 C955 1.415 . S
C958 H948 0.930 . S
C958 C956 1.419 . S
C958 C959 1.362 . S
C959 H949 0.930 . S
C959 C952 1.409 . S
C959 C958 1.362 . S
H960 C966 0.930 . S
H961 C969 0.930 . S
H962 C970 0.930 . S
H963 C971 0.930 . S
H964 C974 0.930 . S
H965 C975 0.930 . S
C966 H960 0.930 . S
C966 C967 1.355 . S
C966 C968 1.415 . S
C967 C966 1.355 . S
C967 C969 1.419 . S
C968 C966 1.415 . S
C968 C973 1.425 . S
C968 C975 1.409 . S
C969 H961 0.930 . S
C969 C967 1.419 . S
C969 C970 1.362 . S
C970 H962 0.930 . S
C970 C969 1.362 . S
C970 C973 1.409 . S
C971 H963 0.930 . S
C971 C972 1.355 . S
C971 C973 1.415 . S
C972 C971 1.355 . S
C972 C974 1.419 . S
C973 C968 1.425 . S
C973 C970 1.409 . S
C973 C971 1.415 . S
C974 H964 0.930 . S
C974 C972 1.419 . S
C974 C975 1.362 . S
C975 H965 0.930 . S
C975 C968 1.409 . S
C975 C974 1.362 . S
H976 C982 0.930 . S
H977 C985 0.930 . S
H978 C986 0.930 . S
H979 C987 0.930 . S
H980 C990 0.930 . S
H981 C991 0.930 . S
C982 H976 0.930 . S
C982 C983 1.355 . S
C982 C984 1.415 . S
C983 C982 1.355 . S
C983 C985 1.419 . S
C984 C982 1.415 . S
C984 C989 1.425 . S
C984 C991 1.409 . S
C985 H977 0.930 . S
C985 C983 1.419 . S
C985 C986 1.362 . S
C986 H978 0.930 . S
C986 C985 1.362 . S
C986 C989 1.409 . S
C987 H979 0.930 . S
C987 C988 1.355 . S
C987 C989 1.415 . S
C988 C987 1.355 . S
C988 C990 1.419 . S
C989 C984 1.425 . S
C989 C986 1.409 . S
C989 C987 1.415 . S
C990 H980 0.930 . S
C990 C988 1.419 . S
C990 C991 1.362 . S
C991 H981 0.930 . S
C991 C984 1.409 . S
C991 C990 1.362 . S
H992 C998 0.930 . S
H993 C1001 0.930 . S
H994 C1002 0.930 . S
H995 C1003 0.930 . S
H996 C1006 0.930 . S
H997 C1007 0.930 . S
C998 H992 0.930 . S
C998 C999 1.355 . S
C998 C1000 1.415 . S
C999 C998 1.355 . S
C999 C1001 1.419 . S
C1000 C998 1.415 . S
C1000 C1005 1.425 . S
C1000 C1007 1.409 . S
C1001 H993 0.930 . S
C1001 C999 1.419 . S
C1001 C1002 1.362 . S
C1002 H994 0.930 . S
C1002 C1001 1.362 . S
C1002 C1005 1.409 . S
C1003 H995 0.930 . S
C1003 C1004 1.355 . S
C1003 C1005 1.415 . S
C1004 C1003 1.355 . S
C1004 C1006 1.419 . S
C1005 C1000 1.425 . S
C1005 C1002 1.409 . S
C1005 C1003 1.415 . S
C1006 H996 0.930 . S
C1006 C1004 1.419 . S
C1006 C1007 1.362 . S
C1007 H997 0.930 . S
C1007 C1000 1.409 . S
C1007 C1006 1.362 . S
H1008 C1014 0.930 . S
H1009 C1017 0.930 . S
H1010 C1018 0.930 . S
H1011 C1019 0.930 . S
H1012 C1022 0.930 . S
H1013 C1023 0.930 . S
C1014 H1008 0.930 . S
C1014 C1015 1.355 . S
C1014 C1016 1.415 . S
C1015 C1014 1.355 . S
C1015 C1017 1.419 . S
C1016 C1014 1.415 . S
C1016 C1021 1.425 . S
C1016 C1023 1.409 . S
C1017 H1009 0.930 . S
C1017 C1015 1.419 . S
C1017 C1018 1.362 . S
C1018 H1010 0.930 . S
C1018 C1017 1.362 . S
C1018 C1021 1.409 . S
C1019 H1011 0.930 . S
C1019 C1020 1.355 . S
C1019 C1021 1.415 . S
C1020 C1019 1.355 . S
C1020 C1022 1.419 . S
C1021 C1016 1.425 . S
C1021 C1018 1.409 . S
C1021 C1019 1.415 . S
C1022 H1012 0.930 . S
C1022 C1020 1.419 . S
C1022 C1023 1.362 . S
C1023 H1013 0.930 . S
C1023 C1016 1.409 . S
C1023 C1022 1.362 . S
H1024 C1030 0.930 . S
H1025 C1033 0.930 . S
H1026 C1034 0.930 . S
H1027 C1035 0.930 . S
H1028 C1038 0.930 . S
H1029 C1039 0.930 . S
C1030 H1024 0.930 . S
C1030 C1031 1.355 . S
C1030 C1032 1.415 . S
C1031 C1030 1.355 . S
C1031 C1033 1.419 . S
C1032 C1030 1.415 . S
C1032 C1037 1.425 . S
C1032 C1039 1.409 . S
C1033 H1025 0.930 . S
C1033 C1031 1.419 . S
C1033 C1034 1.362 . S
C1034 H1026 0.930 . S
C1034 C1033 1.362 . S
C1034 C1037 1.409 . S
C1035 H1027 0.930 . S
C1035 C1036 1.355 . S
C1035 C1037 1.415 . S
C1036 C1035 1.355 . S
C1036 C1038 1.419 . S
C1037 C1032 1.425 . S
C1037 C1034 1.409 . S
C1037 C1035 1.415 . S
C1038 H1028 0.930 . S
C1038 C1036 1.419 . S
C1038 C1039 1.362 . S
C1039 H1029 0.930 . S
C1039 C1032 1.409 . S
C1039 C1038 1.362 . S
H1040 C1046 0.930 . S
H1041 C1049 0.930 . S
H1042 C1050 0.930 . S
H1043 C1051 0.930 . S
H1044 C1054 0.930 . S
H1045 C1055 0.930 . S
C1046 H1040 0.930 . S
C1046 C1047 1.355 . S
C1046 C1048 1.415 . S
C1047 C1046 1.355 . S
C1047 C1049 1.419 . S
C1048 C1046 1.415 . S
C1048 C1053 1.425 . S
C1048 C1055 1.409 . S
C1049 H1041 0.930 . S
C1049 C1047 1.419 . S
C1049 C1050 1.362 . S
C1050 H1042 0.930 . S
C1050 C1049 1.362 . S
C1050 C1053 1.409 . S
C1051 H1043 0.930 . S
C1051 C1052 1.355 . S
C1051 C1053 1.415 . S
C1052 C1051 1.355 . S
C1052 C1054 1.419 . S
C1053 C1048 1.425 . S
C1053 C1050 1.409 . S
C1053 C1051 1.415 . S
C1054 H1044 0.930 . S
C1054 C1052 1.419 . S
C1054 C1055 1.362 . S
C1055 H1045 0.930 . S
C1055 C1048 1.409 . S
C1055 C1054 1.362 . S
H1056 C1062 0.930 . S
H1057 C1065 0.930 . S
H1058 C1066 0.930 . S
H1059 C1067 0.930 . S
H1060 C1070 0.930 . S
H1061 C1071 0.930 . S
C1062 H1056 0.930 . S
C1062 C1063 1.355 . S
C1062 C1064 1.415 . S
C1063 C1062 1.355 . S
C1063 C1065 1.419 1_655 S
C1064 C1062 1.415 . S
C1064 C1069 1.425 1_655 S
C1064 C1071 1.409 . S
C1065 H1057 0.930 . S
C1065 C1063 1.419 1_455 S
C1065 C1066 1.362 . S
C1066 H1058 0.930 . S
C1066 C1065 1.362 . S
C1066 C1069 1.409 . S
C1067 H1059 0.930 . S
C1067 C1068 1.355 . S
C1067 C1069 1.415 . S
C1068 C1067 1.355 . S
C1068 C1070 1.419 1_455 S
C1069 C1064 1.425 1_455 S
C1069 C1066 1.409 . S
C1069 C1067 1.415 . S
C1070 H1060 0.930 . S
C1070 C1068 1.419 1_655 S
C1070 C1071 1.362 . S
C1071 H1061 0.930 . S
C1071 C1064 1.409 . S
C1071 C1070 1.362 . S
H1072 C1078 0.941 . S
H1073 C1081 0.930 . S
H1074 C1082 0.930 . S
H1075 C1083 0.930 . S
H1076 C1086 0.930 . S
H1077 C1087 0.930 . S
C1078 H1072 0.941 . S
C1078 C1079 1.338 1_545 S
C1078 C1080 1.420 . S
C1079 C1078 1.338 1_565 S
C1079 C1081 1.419 . S
C1080 C1078 1.420 . S
C1080 C1085 1.425 1_545 S
C1080 C1087 1.409 . S
C1081 H1073 0.930 . S
C1081 C1079 1.419 . S
C1081 C1082 1.362 . S
C1082 H1074 0.930 . S
C1082 C1081 1.362 . S
C1082 C1085 1.409 . S
C1083 H1075 0.930 . S
C1083 C1084 1.355 1_565 S
C1083 C1085 1.415 . S
C1084 C1083 1.355 1_545 S
C1084 C1086 1.419 . S
C1085 C1080 1.425 1_565 S
C1085 C1082 1.409 . S
C1085 C1083 1.415 . S
C1086 H1076 0.930 . S
C1086 C1084 1.419 . S
C1086 C1087 1.362 . S
C1087 H1077 0.930 . S
C1087 C1080 1.409 . S
C1087 C1086 1.362 . S
H1088 C1094 0.930 . S
H1089 C1097 0.930 . S
H1090 C1098 0.930 . S
H1091 C1099 0.930 . S
H1092 C1102 0.930 . S
H1093 C1103 0.930 . S
C1094 H1088 0.930 . S
C1094 C1095 1.355 . S
C1094 C1096 1.415 . S
C1095 C1094 1.355 . S
C1095 C1097 1.419 1_655 S
C1096 C1094 1.415 . S
C1096 C1101 1.425 1_655 S
C1096 C1103 1.409 . S
C1097 H1089 0.930 . S
C1097 C1095 1.419 1_455 S
C1097 C1098 1.362 . S
C1098 H1090 0.930 . S
C1098 C1097 1.362 . S
C1098 C1101 1.409 . S
C1099 H1091 0.930 . S
C1099 C1100 1.355 . S
C1099 C1101 1.415 . S
C1100 C1099 1.355 . S
C1100 C1102 1.419 1_455 S
C1101 C1096 1.425 1_455 S
C1101 C1098 1.409 . S
C1101 C1099 1.415 . S
C1102 H1092 0.930 . S
C1102 C1100 1.419 1_655 S
C1102 C1103 1.362 . S
C1103 H1093 0.930 . S
C1103 C1096 1.409 . S
C1103 C1102 1.362 . S
H1104 C1110 0.930 . S
H1105 C1113 0.930 . S
H1106 C1114 0.930 . S
H1107 C1115 0.930 . S
H1108 C1118 0.929 1_545 S
H1109 C1119 0.930 . S
C1110 H1104 0.930 . S
C1110 C1111 1.355 . S
C1110 C1112 1.415 . S
C1111 C1110 1.355 . S
C1111 C1113 1.419 . S
C1112 C1110 1.415 . S
C1112 C1117 1.425 1_545 S
C1112 C1119 1.409 . S
C1113 H1105 0.930 . S
C1113 C1111 1.419 . S
C1113 C1114 1.362 1_545 S
C1114 H1106 0.930 . S
C1114 C1113 1.362 1_565 S
C1114 C1117 1.409 . S
C1115 H1107 0.930 . S
C1115 C1116 1.355 . S
C1115 C1117 1.415 . S
C1116 C1115 1.355 . S
C1116 C1118 1.419 . S
C1117 C1112 1.425 1_565 S
C1117 C1114 1.409 . S
C1117 C1115 1.415 . S
C1118 H1108 0.929 1_565 S
C1118 C1116 1.419 . S
C1118 C1119 1.362 1_565 S
C1119 H1109 0.930 . S
C1119 C1112 1.409 . S
C1119 C1118 1.362 1_545 S
H1120 C1126 0.922 1_655 S
H1121 C1129 0.930 . S
H1122 C1130 0.930 . S
H1123 C1131 0.922 1_455 S
H1124 C1134 0.930 . S
H1125 C1135 0.930 . S
C1126 H1120 0.922 1_455 S
C1126 C1127 1.367 . S
C1126 C1128 1.411 1_455 S
C1127 C1126 1.367 . S
C1127 C1129 1.419 . S
C1128 C1126 1.411 1_655 S
C1128 C1133 1.425 1_655 S
C1128 C1135 1.409 . S
C1129 H1121 0.930 . S
C1129 C1127 1.419 . S
C1129 C1130 1.362 . S
C1130 H1122 0.930 . S
C1130 C1129 1.362 . S
C1130 C1133 1.409 . S
C1131 H1123 0.922 1_655 S
C1131 C1132 1.367 . S
C1131 C1133 1.411 1_655 S
C1132 C1131 1.367 . S
C1132 C1134 1.419 . S
C1133 C1128 1.425 1_455 S
C1133 C1130 1.409 . S
C1133 C1131 1.411 1_455 S
C1134 H1124 0.930 . S
C1134 C1132 1.419 . S
C1134 C1135 1.362 . S
C1135 H1125 0.930 . S
C1135 C1128 1.409 . S
C1135 C1134 1.362 . S
H1136 C1142 0.930 1_545 S
H1137 C1145 0.930 . S
H1138 C1146 0.930 . S
H1139 C1147 0.930 . S
H1140 C1150 0.930 . S
H1141 C1151 0.930 . S
C1142 H1136 0.930 1_565 S
C1142 C1143 1.355 . S
C1142 C1144 1.415 1_565 S
C1143 C1142 1.355 . S
C1143 C1145 1.419 . S
C1144 C1142 1.415 1_545 S
C1144 C1149 1.425 1_545 S
C1144 C1151 1.409 . S
C1145 H1137 0.930 . S
C1145 C1143 1.419 . S
C1145 C1146 1.362 . S
C1146 H1138 0.930 . S
C1146 C1145 1.362 . S
C1146 C1149 1.409 . S
C1147 H1139 0.930 . S
C1147 C1148 1.355 1_565 S
C1147 C1149 1.415 . S
C1148 C1147 1.355 1_545 S
C1148 C1150 1.419 . S
C1149 C1144 1.425 1_565 S
C1149 C1146 1.409 . S
C1149 C1147 1.415 . S
C1150 H1140 0.930 . S
C1150 C1148 1.419 . S
C1150 C1151 1.362 . S
C1151 H1141 0.930 . S
C1151 C1144 1.409 . S
C1151 C1150 1.362 . S
H1152 C1158 0.930 . S
H1153 C1161 0.930 . S
H1154 C1162 0.930 . S
H1155 C1163 0.930 . S
H1156 C1166 0.930 . S
H1157 C1167 0.930 . S
C1158 H1152 0.930 . S
C1158 C1159 1.355 . S
C1158 C1160 1.415 . S
C1159 C1158 1.355 . S
C1159 C1161 1.419 1_455 S
C1160 C1158 1.415 . S
C1160 C1165 1.425 1_455 S
C1160 C1167 1.409 . S
C1161 H1153 0.930 . S
C1161 C1159 1.419 1_655 S
C1161 C1162 1.362 . S
C1162 H1154 0.930 . S
C1162 C1161 1.362 . S
C1162 C1165 1.409 . S
C1163 H1155 0.930 . S
C1163 C1164 1.355 . S
C1163 C1165 1.415 . S
C1164 C1163 1.355 . S
C1164 C1166 1.419 1_655 S
C1165 C1160 1.425 1_655 S
C1165 C1162 1.409 . S
C1165 C1163 1.415 . S
C1166 H1156 0.930 . S
C1166 C1164 1.419 1_455 S
C1166 C1167 1.362 . S
C1167 H1157 0.930 . S
C1167 C1160 1.409 . S
C1167 C1166 1.362 . S
H1168 C1174 0.930 . S
H1169 C1177 0.930 . S
H1170 C1178 0.930 . S
H1171 C1179 0.930 . S
H1172 C1182 0.930 . S
H1173 C1183 0.930 . S
C1174 H1168 0.930 . S
C1174 C1175 1.355 . S
C1174 C1176 1.415 . S
C1175 C1174 1.355 . S
C1175 C1177 1.419 . S
C1176 C1174 1.415 . S
C1176 C1181 1.425 1_545 S
C1176 C1183 1.409 . S
C1177 H1169 0.930 . S
C1177 C1175 1.419 . S
C1177 C1178 1.362 1_545 S
C1178 H1170 0.930 . S
C1178 C1177 1.362 1_565 S
C1178 C1181 1.409 . S
C1179 H1171 0.930 . S
C1179 C1180 1.355 . S
C1179 C1181 1.415 . S
C1180 C1179 1.355 . S
C1180 C1182 1.419 . S
C1181 C1176 1.425 1_565 S
C1181 C1178 1.409 . S
C1181 C1179 1.415 . S
C1182 H1172 0.930 . S
C1182 C1180 1.419 . S
C1182 C1183 1.362 1_565 S
C1183 H1173 0.930 . S
C1183 C1176 1.409 . S
C1183 C1182 1.362 1_545 S
H1184 C1190 0.930 1_554 S
H1185 C1193 0.930 . S
H1186 C1194 0.930 . S
H1187 C1195 0.939 . S
H1188 C1198 0.930 . S
H1189 C1199 0.930 . S
C1190 H1184 0.930 1_556 S
C1190 C1191 1.355 . S
C1190 C1192 1.415 1_556 S
C1191 C1190 1.355 . S
C1191 C1193 1.419 . S
C1192 C1190 1.415 1_554 S
C1192 C1197 1.425 1_554 S
C1192 C1199 1.409 . S
C1193 H1185 0.930 . S
C1193 C1191 1.419 . S
C1193 C1194 1.362 . S
C1194 H1186 0.930 . S
C1194 C1193 1.362 . S
C1194 C1197 1.409 . S
C1195 H1187 0.939 . S
C1195 C1196 1.341 1_556 S
C1195 C1197 1.420 . S
C1196 C1195 1.341 1_554 S
C1196 C1198 1.419 . S
C1197 C1192 1.425 1_556 S
C1197 C1194 1.409 . S
C1197 C1195 1.420 . S
C1198 H1188 0.930 . S
C1198 C1196 1.419 . S
C1198 C1199 1.362 . S
C1199 H1189 0.930 . S
C1199 C1192 1.409 . S
C1199 C1198 1.362 . S
H1200 C1206 0.930 . S
H1201 C1209 0.930 . S
H1202 C1210 0.930 . S
H1203 C1211 0.930 . S
H1204 C1214 0.930 . S
H1205 C1215 0.930 . S
C1206 H1200 0.930 . S
C1206 C1207 1.355 . S
C1206 C1208 1.415 . S
C1207 C1206 1.355 . S
C1207 C1209 1.419 1_554 S
C1208 C1206 1.415 . S
C1208 C1213 1.425 1_554 S
C1208 C1215 1.409 . S
C1209 H1201 0.930 . S
C1209 C1207 1.419 1_556 S
C1209 C1210 1.362 . S
C1210 H1202 0.930 . S
C1210 C1209 1.362 . S
C1210 C1213 1.409 . S
C1211 H1203 0.930 . S
C1211 C1212 1.355 . S
C1211 C1213 1.415 . S
C1212 C1211 1.355 . S
C1212 C1214 1.419 1_556 S
C1213 C1208 1.425 1_556 S
C1213 C1210 1.409 . S
C1213 C1211 1.415 . S
C1214 H1204 0.930 . S
C1214 C1212 1.419 1_554 S
C1214 C1215 1.362 . S
C1215 H1205 0.930 . S
C1215 C1208 1.409 . S
C1215 C1214 1.362 . S
H1216 C1222 0.930 . S
H1217 C1225 0.930 . S
H1218 C1226 0.930 . S
H1219 C1227 0.930 . S
H1220 C1230 0.930 . S
H1221 C1231 0.930 . S
C1222 H1216 0.930 . S
C1222 C1223 1.355 . S
C1222 C1224 1.415 . S
C1223 C1222 1.355 . S
C1223 C1225 1.419 1_554 S
C1224 C1222 1.415 . S
C1224 C1229 1.425 1_554 S
C1224 C1231 1.409 . S
C1225 H1217 0.930 . S
C1225 C1223 1.419 1_556 S
C1225 C1226 1.362 . S
C1226 H1218 0.930 . S
C1226 C1225 1.362 . S
C1226 C1229 1.409 . S
C1227 H1219 0.930 . S
C1227 C1228 1.355 . S
C1227 C1229 1.415 . S
C1228 C1227 1.355 . S
C1228 C1230 1.419 1_556 S
C1229 C1224 1.425 1_556 S
C1229 C1226 1.409 . S
C1229 C1227 1.415 . S
C1230 H1220 0.930 . S
C1230 C1228 1.419 1_554 S
C1230 C1231 1.362 . S
C1231 H1221 0.930 . S
C1231 C1224 1.409 . S
C1231 C1230 1.362 . S
H1232 C1238 0.930 . S
H1233 C1241 0.930 . S
H1234 C1242 0.930 . S
H1235 C1243 0.930 . S
H1236 C1246 0.930 . S
H1237 C1247 0.930 . S
C1238 H1232 0.930 . S
C1238 C1239 1.355 . S
C1238 C1240 1.430 . S
C1239 C1238 1.355 . S
C1239 C1241 1.419 . S
C1240 C1238 1.430 . S
C1240 C1245 1.427 . S
C1240 C1247 1.394 1_556 S
C1241 H1233 0.930 . S
C1241 C1239 1.419 . S
C1241 C1242 1.362 . S
C1242 H1234 0.930 . S
C1242 C1241 1.362 . S
C1242 C1245 1.409 . S
C1243 H1235 0.930 . S
C1243 C1244 1.355 . S
C1243 C1245 1.415 1_554 S
C1244 C1243 1.355 . S
C1244 C1246 1.419 . S
C1245 C1240 1.427 . S
C1245 C1242 1.409 . S
C1245 C1243 1.415 1_556 S
C1246 H1236 0.930 . S
C1246 C1244 1.419 . S
C1246 C1247 1.362 . S
C1247 H1237 0.930 . S
C1247 C1240 1.394 1_554 S
C1247 C1246 1.362 . S
H1248 C1254 0.930 . S
H1249 C1257 0.930 . S
H1250 C1258 0.930 . S
H1251 C1259 0.930 . S
H1252 C1262 0.930 . S
H1253 C1263 0.930 . S
C1254 H1248 0.930 . S
C1254 C1255 1.355 . S
C1254 C1256 1.415 . S
C1255 C1254 1.355 . S
C1255 C1257 1.419 . S
C1256 C1254 1.415 . S
C1256 C1261 1.425 . S
C1256 C1263 1.409 . S
C1257 H1249 0.930 . S
C1257 C1255 1.419 . S
C1257 C1258 1.362 . S
C1258 H1250 0.930 . S
C1258 C1257 1.362 . S
C1258 C1261 1.409 . S
C1259 H1251 0.930 . S
C1259 C1260 1.355 . S
C1259 C1261 1.415 . S
C1260 C1259 1.355 . S
C1260 C1262 1.419 . S
C1261 C1256 1.425 . S
C1261 C1258 1.409 . S
C1261 C1259 1.415 . S
C1262 H1252 0.930 . S
C1262 C1260 1.419 . S
C1262 C1263 1.362 . S
C1263 H1253 0.930 . S
C1263 C1256 1.409 . S
C1263 C1262 1.362 . S
H1264 C1270 0.930 . S
H1265 C1273 0.930 . S
H1266 C1274 0.930 . S
H1267 C1275 0.930 . S
H1268 C1278 0.930 . S
H1269 C1279 0.930 . S
C1270 H1264 0.930 . S
C1270 C1271 1.355 . S
C1270 C1272 1.415 . S
C1271 C1270 1.355 . S
C1271 C1273 1.419 . S
C1272 C1270 1.415 . S
C1272 C1277 1.425 . S
C1272 C1279 1.409 . S
C1273 H1265 0.930 . S
C1273 C1271 1.419 . S
C1273 C1274 1.362 . S
C1274 H1266 0.930 . S
C1274 C1273 1.362 . S
C1274 C1277 1.409 . S
C1275 H1267 0.930 . S
C1275 C1276 1.355 . S
C1275 C1277 1.415 . S
C1276 C1275 1.355 . S
C1276 C1278 1.419 . S
C1277 C1272 1.425 . S
C1277 C1274 1.409 . S
C1277 C1275 1.415 . S
C1278 H1268 0.930 . S
C1278 C1276 1.419 . S
C1278 C1279 1.362 . S
C1279 H1269 0.930 . S
C1279 C1272 1.409 . S
C1279 C1278 1.362 . S
H1280 C1286 0.930 . S
H1281 C1289 0.930 . S
H1282 C1290 0.930 . S
H1283 C1291 0.930 . S
H1284 C1294 0.930 . S
H1285 C1295 0.930 . S
C1286 H1280 0.930 . S
C1286 C1287 1.355 . S
C1286 C1288 1.415 . S
C1287 C1286 1.355 . S
C1287 C1289 1.419 . S
C1288 C1286 1.415 . S
C1288 C1293 1.425 . S
C1288 C1295 1.409 . S
C1289 H1281 0.930 . S
C1289 C1287 1.419 . S
C1289 C1290 1.362 . S
C1290 H1282 0.930 . S
C1290 C1289 1.362 . S
C1290 C1293 1.409 . S
C1291 H1283 0.930 . S
C1291 C1292 1.355 . S
C1291 C1293 1.415 . S
C1292 C1291 1.355 . S
C1292 C1294 1.419 . S
C1293 C1288 1.425 . S
C1293 C1290 1.409 . S
C1293 C1291 1.415 . S
C1294 H1284 0.930 . S
C1294 C1292 1.419 . S
C1294 C1295 1.362 . S
C1295 H1285 0.930 . S
C1295 C1288 1.409 . S
C1295 C1294 1.362 . S
H1296 C1302 0.930 . S
H1297 C1305 0.930 . S
H1298 C1306 0.930 . S
H1299 C1307 0.930 . S
H1300 C1310 0.930 . S
H1301 C1311 0.930 . S
C1302 H1296 0.930 . S
C1302 C1303 1.355 . S
C1302 C1304 1.415 . S
C1303 C1302 1.355 . S
C1303 C1305 1.419 . S
C1304 C1302 1.415 . S
C1304 C1309 1.425 . S
C1304 C1311 1.409 . S
C1305 H1297 0.930 . S
C1305 C1303 1.419 . S
C1305 C1306 1.362 . S
C1306 H1298 0.930 . S
C1306 C1305 1.362 . S
C1306 C1309 1.409 . S
C1307 H1299 0.930 . S
C1307 C1308 1.355 . S
C1307 C1309 1.415 . S
C1308 C1307 1.355 . S
C1308 C1310 1.419 . S
C1309 C1304 1.425 . S
C1309 C1306 1.409 . S
C1309 C1307 1.415 . S
C1310 H1300 0.930 . S
C1310 C1308 1.419 . S
C1310 C1311 1.362 . S
C1311 H1301 0.930 . S
C1311 C1304 1.409 . S
C1311 C1310 1.362 . S
H1312 C1318 0.930 . S
H1313 C1321 0.930 . S
H1314 C1322 0.930 . S
H1315 C1323 0.930 . S
H1316 C1326 0.930 . S
H1317 C1327 0.930 . S
C1318 H1312 0.930 . S
C1318 C1319 1.355 . S
C1318 C1320 1.415 . S
C1319 C1318 1.355 . S
C1319 C1321 1.419 . S
C1320 C1318 1.415 . S
C1320 C1325 1.425 . S
C1320 C1327 1.409 . S
C1321 H1313 0.930 . S
C1321 C1319 1.419 . S
C1321 C1322 1.362 . S
C1322 H1314 0.930 . S
C1322 C1321 1.362 . S
C1322 C1325 1.409 . S
C1323 H1315 0.930 . S
C1323 C1324 1.355 . S
C1323 C1325 1.415 . S
C1324 C1323 1.355 . S
C1324 C1326 1.419 . S
C1325 C1320 1.425 . S
C1325 C1322 1.409 . S
C1325 C1323 1.415 . S
C1326 H1316 0.930 . S
C1326 C1324 1.419 . S
C1326 C1327 1.362 . S
C1327 H1317 0.930 . S
C1327 C1320 1.409 . S
C1327 C1326 1.362 . S
H1328 C1334 0.930 . S
H1329 C1337 0.930 . S
H1330 C1338 0.930 . S
H1331 C1339 0.930 . S
H1332 C1342 0.930 . S
H1333 C1343 0.930 . S
C1334 H1328 0.930 . S
C1334 C1335 1.355 . S
C1334 C1336 1.415 . S
C1335 C1334 1.355 . S
C1335 C1337 1.419 . S
C1336 C1334 1.415 . S
C1336 C1341 1.425 . S
C1336 C1343 1.409 . S
C1337 H1329 0.930 . S
C1337 C1335 1.419 . S
C1337 C1338 1.362 . S
C1338 H1330 0.930 . S
C1338 C1337 1.362 . S
C1338 C1341 1.409 . S
C1339 H1331 0.930 . S
C1339 C1340 1.355 . S
C1339 C1341 1.415 . S
C1340 C1339 1.355 . S
C1340 C1342 1.419 . S
C1341 C1336 1.425 . S
C1341 C1338 1.409 . S
C1341 C1339 1.415 . S
C1342 H1332 0.930 . S
C1342 C1340 1.419 . S
C1342 C1343 1.362 . S
C1343 H1333 0.930 . S
C1343 C1336 1.409 . S
C1343 C1342 1.362 . S
H1344 C1350 0.930 . S
H1345 C1353 0.930 . S
H1346 C1354 0.930 . S
H1347 C1355 0.930 . S
H1348 C1358 0.930 . S
H1349 C1359 0.930 . S
C1350 H1344 0.930 . S
C1350 C1351 1.355 . S
C1350 C1352 1.415 . S
C1351 C1350 1.355 . S
C1351 C1353 1.419 . S
C1352 C1350 1.415 . S
C1352 C1357 1.425 . S
C1352 C1359 1.409 . S
C1353 H1345 0.930 . S
C1353 C1351 1.419 . S
C1353 C1354 1.362 . S
C1354 H1346 0.930 . S
C1354 C1353 1.362 . S
C1354 C1357 1.409 . S
C1355 H1347 0.930 . S
C1355 C1356 1.355 . S
C1355 C1357 1.415 . S
C1356 C1355 1.355 . S
C1356 C1358 1.419 . S
C1357 C1352 1.425 . S
C1357 C1354 1.409 . S
C1357 C1355 1.415 . S
C1358 H1348 0.930 . S
C1358 C1356 1.419 . S
C1358 C1359 1.362 . S
C1359 H1349 0.930 . S
C1359 C1352 1.409 . S
C1359 C1358 1.362 . S
H1360 C1366 0.930 . S
H1361 C1369 0.930 . S
H1362 C1370 0.930 . S
H1363 C1371 0.930 . S
H1364 C1374 0.930 . S
H1365 C1375 0.930 . S
C1366 H1360 0.930 . S
C1366 C1367 1.355 . S
C1366 C1368 1.415 . S
C1367 C1366 1.355 . S
C1367 C1369 1.419 . S
C1368 C1366 1.415 . S
C1368 C1373 1.425 . S
C1368 C1375 1.409 . S
C1369 H1361 0.930 . S
C1369 C1367 1.419 . S
C1369 C1370 1.362 . S
C1370 H1362 0.930 . S
C1370 C1369 1.362 . S
C1370 C1373 1.409 . S
C1371 H1363 0.930 . S
C1371 C1372 1.355 . S
C1371 C1373 1.415 . S
C1372 C1371 1.355 . S
C1372 C1374 1.419 . S
C1373 C1368 1.425 . S
C1373 C1370 1.409 . S
C1373 C1371 1.415 . S
C1374 H1364 0.930 . S
C1374 C1372 1.419 . S
C1374 C1375 1.362 . S
C1375 H1365 0.930 . S
C1375 C1368 1.409 . S
C1375 C1374 1.362 . S
H1376 C1382 0.930 . S
H1377 C1385 0.930 . S
H1378 C1386 0.930 . S
H1379 C1387 0.930 . S
H1380 C1390 0.930 . S
H1381 C1391 0.930 . S
C1382 H1376 0.930 . S
C1382 C1383 1.355 . S
C1382 C1384 1.415 . S
C1383 C1382 1.355 . S
C1383 C1385 1.419 . S
C1384 C1382 1.415 . S
C1384 C1389 1.425 . S
C1384 C1391 1.409 . S
C1385 H1377 0.930 . S
C1385 C1383 1.419 . S
C1385 C1386 1.362 . S
C1386 H1378 0.930 . S
C1386 C1385 1.362 . S
C1386 C1389 1.409 . S
C1387 H1379 0.930 . S
C1387 C1388 1.355 . S
C1387 C1389 1.415 . S
C1388 C1387 1.355 . S
C1388 C1390 1.419 . S
C1389 C1384 1.425 . S
C1389 C1386 1.409 . S
C1389 C1387 1.415 . S
C1390 H1380 0.930 . S
C1390 C1388 1.419 . S
C1390 C1391 1.362 . S
C1391 H1381 0.930 . S
C1391 C1384 1.409 . S
C1391 C1390 1.362 . S
H1392 C1398 0.930 . S
H1393 C1401 0.930 . S
H1394 C1402 0.930 . S
H1395 C1403 0.930 . S
H1396 C1406 0.930 . S
H1397 C1407 0.930 . S
C1398 H1392 0.930 . S
C1398 C1399 1.355 . S
C1398 C1400 1.415 . S
C1399 C1398 1.355 . S
C1399 C1401 1.419 . S
C1400 C1398 1.415 . S
C1400 C1405 1.425 . S
C1400 C1407 1.409 . S
C1401 H1393 0.930 . S
C1401 C1399 1.419 . S
C1401 C1402 1.362 . S
C1402 H1394 0.930 . S
C1402 C1401 1.362 . S
C1402 C1405 1.409 . S
C1403 H1395 0.930 . S
C1403 C1404 1.355 . S
C1403 C1405 1.415 . S
C1404 C1403 1.355 . S
C1404 C1406 1.419 . S
C1405 C1400 1.425 . S
C1405 C1402 1.409 . S
C1405 C1403 1.415 . S
C1406 H1396 0.930 . S
C1406 C1404 1.419 . S
C1406 C1407 1.362 . S
C1407 H1397 0.930 . S
C1407 C1400 1.409 . S
C1407 C1406 1.362 . S
H1408 C1414 0.930 . S
H1409 C1417 0.930 . S
H1410 C1418 0.930 . S
H1411 C1419 0.930 . S
H1412 C1422 0.930 . S
H1413 C1423 0.930 . S
C1414 H1408 0.930 . S
C1414 C1415 1.355 . S
C1414 C1416 1.415 . S
C1415 C1414 1.355 . S
C1415 C1417 1.419 . S
C1416 C1414 1.415 . S
C1416 C1421 1.425 . S
C1416 C1423 1.409 . S
C1417 H1409 0.930 . S
C1417 C1415 1.419 . S
C1417 C1418 1.362 . S
C1418 H1410 0.930 . S
C1418 C1417 1.362 . S
C1418 C1421 1.409 . S
C1419 H1411 0.930 . S
C1419 C1420 1.355 . S
C1419 C1421 1.415 . S
C1420 C1419 1.355 . S
C1420 C1422 1.419 . S
C1421 C1416 1.425 . S
C1421 C1418 1.409 . S
C1421 C1419 1.415 . S
C1422 H1412 0.930 . S
C1422 C1420 1.419 . S
C1422 C1423 1.362 . S
C1423 H1413 0.930 . S
C1423 C1416 1.409 . S
C1423 C1422 1.362 . S
H1424 C1430 0.930 . S
H1425 C1433 0.930 . S
H1426 C1434 0.930 . S
H1427 C1435 0.930 . S
H1428 C1438 0.930 . S
H1429 C1439 0.930 . S
C1430 H1424 0.930 . S
C1430 C1431 1.355 . S
C1430 C1432 1.415 . S
C1431 C1430 1.355 . S
C1431 C1433 1.419 . S
C1432 C1430 1.415 . S
C1432 C1437 1.425 . S
C1432 C1439 1.409 . S
C1433 H1425 0.930 . S
C1433 C1431 1.419 . S
C1433 C1434 1.362 . S
C1434 H1426 0.930 . S
C1434 C1433 1.362 . S
C1434 C1437 1.409 . S
C1435 H1427 0.930 . S
C1435 C1436 1.355 . S
C1435 C1437 1.415 . S
C1436 C1435 1.355 . S
C1436 C1438 1.419 . S
C1437 C1432 1.425 . S
C1437 C1434 1.409 . S
C1437 C1435 1.415 . S
C1438 H1428 0.930 . S
C1438 C1436 1.419 . S
C1438 C1439 1.362 . S
C1439 H1429 0.930 . S
C1439 C1432 1.409 . S
C1439 C1438 1.362 . S
H1440 C1446 0.930 . S
H1441 C1449 0.930 . S
H1442 C1450 0.930 . S
H1443 C1451 0.930 . S
H1444 C1454 0.930 . S
H1445 C1455 0.930 . S
C1446 H1440 0.930 . S
C1446 C1447 1.355 . S
C1446 C1448 1.415 . S
C1447 C1446 1.355 . S
C1447 C1449 1.419 . S
C1448 C1446 1.415 . S
C1448 C1453 1.425 . S
C1448 C1455 1.409 . S
C1449 H1441 0.930 . S
C1449 C1447 1.419 . S
C1449 C1450 1.362 . S
C1450 H1442 0.930 . S
C1450 C1449 1.362 . S
C1450 C1453 1.409 . S
C1451 H1443 0.930 . S
C1451 C1452 1.355 . S
C1451 C1453 1.415 . S
C1452 C1451 1.355 . S
C1452 C1454 1.419 . S
C1453 C1448 1.425 . S
C1453 C1450 1.409 . S
C1453 C1451 1.415 . S
C1454 H1444 0.930 . S
C1454 C1452 1.419 . S
C1454 C1455 1.362 . S
C1455 H1445 0.930 . S
C1455 C1448 1.409 . S
C1455 C1454 1.362 . S
H1456 C1462 0.930 . S
H1457 C1465 0.930 . S
H1458 C1466 0.930 . S
H1459 C1467 0.930 . S
H1460 C1470 0.930 . S
H1461 C1471 0.930 . S
C1462 H1456 0.930 . S
C1462 C1463 1.355 . S
C1462 C1464 1.415 . S
C1463 C1462 1.355 . S
C1463 C1465 1.419 . S
C1464 C1462 1.415 . S
C1464 C1469 1.425 . S
C1464 C1471 1.409 . S
C1465 H1457 0.930 . S
C1465 C1463 1.419 . S
C1465 C1466 1.362 . S
C1466 H1458 0.930 . S
C1466 C1465 1.362 . S
C1466 C1469 1.409 . S
C1467 H1459 0.930 . S
C1467 C1468 1.355 . S
C1467 C1469 1.415 . S
C1468 C1467 1.355 . S
C1468 C1470 1.419 . S
C1469 C1464 1.425 . S
C1469 C1466 1.409 . S
C1469 C1467 1.415 . S
C1470 H1460 0.930 . S
C1470 C1468 1.419 . S
C1470 C1471 1.362 . S
C1471 H1461 0.930 . S
C1471 C1464 1.409 . S
C1471 C1470 1.362 . S
H1472 C1478 0.930 . S
H1473 C1481 0.930 . S
H1474 C1482 0.930 . S
H1475 C1483 0.930 . S
H1476 C1486 0.930 . S
H1477 C1487 0.930 . S
C1478 H1472 0.930 . S
C1478 C1479 1.355 . S
C1478 C1480 1.415 . S
C1479 C1478 1.355 . S
C1479 C1481 1.419 . S
C1480 C1478 1.415 . S
C1480 C1485 1.425 . S
C1480 C1487 1.409 . S
C1481 H1473 0.930 . S
C1481 C1479 1.419 . S
C1481 C1482 1.362 . S
C1482 H1474 0.930 . S
C1482 C1481 1.362 . S
C1482 C1485 1.409 . S
C1483 H1475 0.930 . S
C1483 C1484 1.355 . S
C1483 C1485 1.415 . S
C1484 C1483 1.355 . S
C1484 C1486 1.419 . S
C1485 C1480 1.425 . S
C1485 C1482 1.409 . S
C1485 C1483 1.415 . S
C1486 H1476 0.930 . S
C1486 C1484 1.419 . S
C1486 C1487 1.362 . S
C1487 H1477 0.930 . S
C1487 C1480 1.409 . S
C1487 C1486 1.362 . S
H1488 C1494 0.930 . S
H1489 C1497 0.930 . S
H1490 C1498 0.930 . S
H1491 C1499 0.930 . S
H1492 C1502 0.930 . S
H1493 C1503 0.930 . S
C1494 H1488 0.930 . S
C1494 C1495 1.355 . S
C1494 C1496 1.415 . S
C1495 C1494 1.355 . S
C1495 C1497 1.419 . S
C1496 C1494 1.415 . S
C1496 C1501 1.425 . S
C1496 C1503 1.409 . S
C1497 H1489 0.930 . S
C1497 C1495 1.419 . S
C1497 C1498 1.362 . S
C1498 H1490 0.930 . S
C1498 C1497 1.362 . S
C1498 C1501 1.409 . S
C1499 H1491 0.930 . S
C1499 C1500 1.355 . S
C1499 C1501 1.415 . S
C1500 C1499 1.355 . S
C1500 C1502 1.419 . S
C1501 C1496 1.425 . S
C1501 C1498 1.409 . S
C1501 C1499 1.415 . S
C1502 H1492 0.930 . S
C1502 C1500 1.419 . S
C1502 C1503 1.362 . S
C1503 H1493 0.930 . S
C1503 C1496 1.409 . S
C1503 C1502 1.362 . S
H1504 C1510 0.930 . S
H1505 C1513 0.930 . S
H1506 C1514 0.930 . S
H1507 C1515 0.930 . S
H1508 C1518 0.930 1_554 S
H1509 C1519 0.930 . S
C1510 H1504 0.930 . S
C1510 C1511 1.355 . S
C1510 C1512 1.415 . S
C1511 C1510 1.355 . S
C1511 C1513 1.419 . S
C1512 C1510 1.415 . S
C1512 C1517 1.425 . S
C1512 C1519 1.409 . S
C1513 H1505 0.930 . S
C1513 C1511 1.419 . S
C1513 C1514 1.362 . S
C1514 H1506 0.930 . S
C1514 C1513 1.362 . S
C1514 C1517 1.409 . S
C1515 H1507 0.930 . S
C1515 C1516 1.355 . S
C1515 C1517 1.415 . S
C1516 C1515 1.355 . S
C1516 C1518 1.419 . S
C1517 C1512 1.425 . S
C1517 C1514 1.409 . S
C1517 C1515 1.415 . S
C1518 H1508 0.930 1_556 S
C1518 C1516 1.419 . S
C1518 C1519 1.362 . S
C1519 H1509 0.930 . S
C1519 C1512 1.409 . S
C1519 C1518 1.362 . S
H1520 C1526 0.930 . S
H1521 C1529 0.930 . S
H1522 C1530 0.930 . S
H1523 C1531 0.930 . S
H1524 C1534 0.930 . S
H1525 C1535 0.930 . S
C1526 H1520 0.930 . S
C1526 C1527 1.355 . S
C1526 C1528 1.415 . S
C1527 C1526 1.355 . S
C1527 C1529 1.419 . S
C1528 C1526 1.415 . S
C1528 C1533 1.425 . S
C1528 C1535 1.409 . S
C1529 H1521 0.930 . S
C1529 C1527 1.419 . S
C1529 C1530 1.362 . S
C1530 H1522 0.930 . S
C1530 C1529 1.362 . S
C1530 C1533 1.409 . S
C1531 H1523 0.930 . S
C1531 C1532 1.355 . S
C1531 C1533 1.415 . S
C1532 C1531 1.355 . S
C1532 C1534 1.419 . S
C1533 C1528 1.425 . S
C1533 C1530 1.409 . S
C1533 C1531 1.415 . S
C1534 H1524 0.930 . S
C1534 C1532 1.419 . S
C1534 C1535 1.362 . S
C1535 H1525 0.930 . S
C1535 C1528 1.409 . S
C1535 C1534 1.362 . S
H1536 C1542 0.930 . S
H1537 C1545 0.930 . S
H1538 C1546 0.930 . S
H1539 C1547 0.930 . S
H1540 C1550 0.930 . S
H1541 C1551 0.930 . S
C1542 H1536 0.930 . S
C1542 C1543 1.355 . S
C1542 C1544 1.415 . S
C1543 C1542 1.355 . S
C1543 C1545 1.419 . S
C1544 C1542 1.415 . S
C1544 C1549 1.425 . S
C1544 C1551 1.409 . S
C1545 H1537 0.930 . S
C1545 C1543 1.419 . S
C1545 C1546 1.362 . S
C1546 H1538 0.930 . S
C1546 C1545 1.362 . S
C1546 C1549 1.409 . S
C1547 H1539 0.930 . S
C1547 C1548 1.355 . S
C1547 C1549 1.415 . S
C1548 C1547 1.355 . S
C1548 C1550 1.419 . S
C1549 C1544 1.425 . S
C1549 C1546 1.409 . S
C1549 C1547 1.415 . S
C1550 H1540 0.930 . S
C1550 C1548 1.419 . S
C1550 C1551 1.362 . S
C1551 H1541 0.930 . S
C1551 C1544 1.409 . S
C1551 C1550 1.362 . S
H1552 C1558 0.930 . S
H1553 C1561 0.930 . S
H1554 C1562 0.930 . S
H1555 C1563 0.930 . S
H1556 C1566 0.930 . S
H1557 C1567 0.930 . S
C1558 H1552 0.930 . S
C1558 C1559 1.355 . S
C1558 C1560 1.415 . S
C1559 C1558 1.355 . S
C1559 C1561 1.419 . S
C1560 C1558 1.415 . S
C1560 C1565 1.425 . S
C1560 C1567 1.409 . S
C1561 H1553 0.930 . S
C1561 C1559 1.419 . S
C1561 C1562 1.362 . S
C1562 H1554 0.930 . S
C1562 C1561 1.362 . S
C1562 C1565 1.409 . S
C1563 H1555 0.930 . S
C1563 C1564 1.355 . S
C1563 C1565 1.415 . S
C1564 C1563 1.355 . S
C1564 C1566 1.419 . S
C1565 C1560 1.425 . S
C1565 C1562 1.409 . S
C1565 C1563 1.415 . S
C1566 H1556 0.930 . S
C1566 C1564 1.419 . S
C1566 C1567 1.362 . S
C1567 H1557 0.930 . S
C1567 C1560 1.409 . S
C1567 C1566 1.362 . S
H1568 C1574 0.930 . S
H1569 C1577 0.930 . S
H1570 C1578 0.930 . S
H1571 C1579 0.930 . S
H1572 C1582 0.930 . S
H1573 C1583 0.930 . S
C1574 H1568 0.930 . S
C1574 C1575 1.355 . S
C1574 C1576 1.415 . S
C1575 C1574 1.355 . S
C1575 C1577 1.419 . S
C1576 C1574 1.415 . S
C1576 C1581 1.425 . S
C1576 C1583 1.409 . S
C1577 H1569 0.930 . S
C1577 C1575 1.419 . S
C1577 C1578 1.362 . S
C1578 H1570 0.930 . S
C1578 C1577 1.362 . S
C1578 C1581 1.409 . S
C1579 H1571 0.930 . S
C1579 C1580 1.355 . S
C1579 C1581 1.415 . S
C1580 C1579 1.355 . S
C1580 C1582 1.419 . S
C1581 C1576 1.425 . S
C1581 C1578 1.409 . S
C1581 C1579 1.415 . S
C1582 H1572 0.930 . S
C1582 C1580 1.419 . S
C1582 C1583 1.362 . S
C1583 H1573 0.930 . S
C1583 C1576 1.409 . S
C1583 C1582 1.362 . S
H1584 C1590 0.930 . S
H1585 C1593 0.930 . S
H1586 C1594 0.930 . S
H1587 C1595 0.930 . S
H1588 C1598 0.930 . S
H1589 C1599 0.930 . S
C1590 H1584 0.930 . S
C1590 C1591 1.355 . S
C1590 C1592 1.415 . S
C1591 C1590 1.355 . S
C1591 C1593 1.419 . S
C1592 C1590 1.415 . S
C1592 C1597 1.425 . S
C1592 C1599 1.409 . S
C1593 H1585 0.930 . S
C1593 C1591 1.419 . S
C1593 C1594 1.362 . S
C1594 H1586 0.930 . S
C1594 C1593 1.362 . S
C1594 C1597 1.409 . S
C1595 H1587 0.930 . S
C1595 C1596 1.355 . S
C1595 C1597 1.415 . S
C1596 C1595 1.355 . S
C1596 C1598 1.419 . S
C1597 C1592 1.425 . S
C1597 C1594 1.409 . S
C1597 C1595 1.415 . S
C1598 H1588 0.930 . S
C1598 C1596 1.419 . S
C1598 C1599 1.362 . S
C1599 H1589 0.930 . S
C1599 C1592 1.409 . S
C1599 C1598 1.362 . S
H1600 C1606 0.930 . S
H1601 C1609 0.930 . S
H1602 C1610 0.930 . S
H1603 C1611 0.930 . S
H1604 C1614 0.930 1_455 S
H1605 C1615 0.930 . S
C1606 H1600 0.930 . S
C1606 C1607 1.355 . S
C1606 C1608 1.415 . S
C1607 C1606 1.355 . S
C1607 C1609 1.419 . S
C1608 C1606 1.415 . S
C1608 C1613 1.425 . S
C1608 C1615 1.409 . S
C1609 H1601 0.930 . S
C1609 C1607 1.419 . S
C1609 C1610 1.362 . S
C1610 H1602 0.930 . S
C1610 C1609 1.362 . S
C1610 C1613 1.409 . S
C1611 H1603 0.930 . S
C1611 C1612 1.355 . S
C1611 C1613 1.415 . S
C1612 C1611 1.355 . S
C1612 C1614 1.419 . S
C1613 C1608 1.425 . S
C1613 C1610 1.409 . S
C1613 C1611 1.415 . S
C1614 H1604 0.930 1_655 S
C1614 C1612 1.419 . S
C1614 C1615 1.362 . S
C1615 H1605 0.930 . S
C1615 C1608 1.409 . S
C1615 C1614 1.362 . S
H1616 C1622 0.930 . S
H1617 C1625 0.930 . S
H1618 C1626 0.930 . S
H1619 C1627 0.930 . S
H1620 C1630 0.930 . S
H1621 C1631 0.930 . S
C1622 H1616 0.930 . S
C1622 C1623 1.355 . S
C1622 C1624 1.415 . S
C1623 C1622 1.355 . S
C1623 C1625 1.419 . S
C1624 C1622 1.415 . S
C1624 C1629 1.425 . S
C1624 C1631 1.409 . S
C1625 H1617 0.930 . S
C1625 C1623 1.419 . S
C1625 C1626 1.362 . S
C1626 H1618 0.930 . S
C1626 C1625 1.362 . S
C1626 C1629 1.409 . S
C1627 H1619 0.930 . S
C1627 C1628 1.355 . S
C1627 C1629 1.415 . S
C1628 C1627 1.355 . S
C1628 C1630 1.419 . S
C1629 C1624 1.425 . S
C1629 C1626 1.409 . S
C1629 C1627 1.415 . S
C1630 H1620 0.930 . S
C1630 C1628 1.419 . S
C1630 C1631 1.362 . S
C1631 H1621 0.930 . S
C1631 C1624 1.409 . S
C1631 C1630 1.362 . S
H1632 C1638 0.930 . S
H1633 C1641 0.930 1_655 S
H1634 C1642 0.930 . S
H1635 C1643 0.930 . S
H1636 C1646 0.930 . S
H1637 C1647 0.930 . S
C1638 H1632 0.930 . S
C1638 C1639 1.355 . S
C1638 C1640 1.415 . S
C1639 C1638 1.355 . S
C1639 C1641 1.419 . S
C1640 C1638 1.415 . S
C1640 C1645 1.425 . S
C1640 C1647 1.409 . S
C1641 H1633 0.930 1_455 S
C1641 C1639 1.419 . S
C1641 C1642 1.362 . S
C1642 H1634 0.930 . S
C1642 C1641 1.362 . S
C1642 C1645 1.409 . S
C1643 H1635 0.930 . S
C1643 C1644 1.355 . S
C1643 C1645 1.415 . S
C1644 C1643 1.355 . S
C1644 C1646 1.419 . S
C1645 C1640 1.425 . S
C1645 C1642 1.409 . S
C1645 C1643 1.415 . S
C1646 H1636 0.930 . S
C1646 C1644 1.419 . S
C1646 C1647 1.362 . S
C1647 H1637 0.930 . S
C1647 C1640 1.409 . S
C1647 C1646 1.362 . S
H1648 C1654 0.930 . S
H1649 C1657 0.930 1_565 S
H1650 C1658 0.930 . S
H1651 C1659 0.930 . S
H1652 C1662 0.930 . S
H1653 C1663 0.930 . S
C1654 H1648 0.930 . S
C1654 C1655 1.355 . S
C1654 C1656 1.415 . S
C1655 C1654 1.355 . S
C1655 C1657 1.419 . S
C1656 C1654 1.415 . S
C1656 C1661 1.425 . S
C1656 C1663 1.409 . S
C1657 H1649 0.930 1_545 S
C1657 C1655 1.419 . S
C1657 C1658 1.362 . S
C1658 H1650 0.930 . S
C1658 C1657 1.362 . S
C1658 C1661 1.409 . S
C1659 H1651 0.930 . S
C1659 C1660 1.355 . S
C1659 C1661 1.415 . S
C1660 C1659 1.355 . S
C1660 C1662 1.419 . S
C1661 C1656 1.425 . S
C1661 C1658 1.409 . S
C1661 C1659 1.415 . S
C1662 H1652 0.930 . S
C1662 C1660 1.419 . S
C1662 C1663 1.362 . S
C1663 H1653 0.930 . S
C1663 C1656 1.409 . S
C1663 C1662 1.362 . S
H1664 C1670 0.930 . S
H1665 C1673 0.930 . S
H1666 C1674 0.930 . S
H1667 C1675 0.930 . S
H1668 C1678 0.930 . S
H1669 C1679 0.930 . S
C1670 H1664 0.930 . S
C1670 C1671 1.355 . S
C1670 C1672 1.415 . S
C1671 C1670 1.355 . S
C1671 C1673 1.419 . S
C1672 C1670 1.415 . S
C1672 C1677 1.425 . S
C1672 C1679 1.409 . S
C1673 H1665 0.930 . S
C1673 C1671 1.419 . S
C1673 C1674 1.362 . S
C1674 H1666 0.930 . S
C1674 C1673 1.362 . S
C1674 C1677 1.409 . S
C1675 H1667 0.930 . S
C1675 C1676 1.355 . S
C1675 C1677 1.415 . S
C1676 C1675 1.355 . S
C1676 C1678 1.419 . S
C1677 C1672 1.425 . S
C1677 C1674 1.409 . S
C1677 C1675 1.415 . S
C1678 H1668 0.930 . S
C1678 C1676 1.419 . S
C1678 C1679 1.362 . S
C1679 H1669 0.930 . S
C1679 C1672 1.409 . S
C1679 C1678 1.362 . S
H1680 C1686 0.930 . S
H1681 C1689 0.930 . S
H1682 C1690 0.930 . S
H1683 C1691 0.930 . S
H1684 C1694 0.930 . S
H1685 C1695 0.930 . S
C1686 H1680 0.930 . S
C1686 C1687 1.355 . S
C1686 C1688 1.415 . S
C1687 C1686 1.355 . S
C1687 C1689 1.419 . S
C1688 C1686 1.415 . S
C1688 C1693 1.425 . S
C1688 C1695 1.409 . S
C1689 H1681 0.930 . S
C1689 C1687 1.419 . S
C1689 C1690 1.362 . S
C1690 H1682 0.930 . S
C1690 C1689 1.362 . S
C1690 C1693 1.409 . S
C1691 H1683 0.930 . S
C1691 C1692 1.355 . S
C1691 C1693 1.415 . S
C1692 C1691 1.355 . S
C1692 C1694 1.419 . S
C1693 C1688 1.425 . S
C1693 C1690 1.409 . S
C1693 C1691 1.415 . S
C1694 H1684 0.930 . S
C1694 C1692 1.419 . S
C1694 C1695 1.362 . S
C1695 H1685 0.930 . S
C1695 C1688 1.409 . S
C1695 C1694 1.362 . S
H1696 C1702 0.930 . S
H1697 C1705 0.930 . S
H1698 C1706 0.930 . S
H1699 C1707 0.930 . S
H1700 C1710 0.930 . S
H1701 C1711 0.930 . S
C1702 H1696 0.930 . S
C1702 C1703 1.355 . S
C1702 C1704 1.415 . S
C1703 C1702 1.355 . S
C1703 C1705 1.419 . S
C1704 C1702 1.415 . S
C1704 C1709 1.425 . S
C1704 C1711 1.409 . S
C1705 H1697 0.930 . S
C1705 C1703 1.419 . S
C1705 C1706 1.362 . S
C1706 H1698 0.930 . S
C1706 C1705 1.362 . S
C1706 C1709 1.409 . S
C1707 H1699 0.930 . S
C1707 C1708 1.355 . S
C1707 C1709 1.415 . S
C1708 C1707 1.355 . S
C1708 C1710 1.419 . S
C1709 C1704 1.425 . S
C1709 C1706 1.409 . S
C1709 C1707 1.415 . S
C1710 H1700 0.930 . S
C1710 C1708 1.419 . S
C1710 C1711 1.362 . S
C1711 H1701 0.930 . S
C1711 C1704 1.409 . S
C1711 C1710 1.362 . S
H1712 C1718 0.930 . S
H1713 C1721 0.930 . S
H1714 C1722 0.930 . S
H1715 C1723 0.930 . S
H1716 C1726 0.930 . S
H1717 C1727 0.930 . S
C1718 H1712 0.930 . S
C1718 C1719 1.355 . S
C1718 C1720 1.415 . S
C1719 C1718 1.355 . S
C1719 C1721 1.419 . S
C1720 C1718 1.415 . S
C1720 C1725 1.425 . S
C1720 C1727 1.409 . S
C1721 H1713 0.930 . S
C1721 C1719 1.419 . S
C1721 C1722 1.362 . S
C1722 H1714 0.930 . S
C1722 C1721 1.362 . S
C1722 C1725 1.409 . S
C1723 H1715 0.930 . S
C1723 C1724 1.355 . S
C1723 C1725 1.415 . S
C1724 C1723 1.355 . S
C1724 C1726 1.419 . S
C1725 C1720 1.425 . S
C1725 C1722 1.409 . S
C1725 C1723 1.415 . S
C1726 H1716 0.930 . S
C1726 C1724 1.419 . S
C1726 C1727 1.362 . S
C1727 H1717 0.930 . S
C1727 C1720 1.409 . S
C1727 C1726 1.362 . S
H1728 C1734 0.930 . S
H1729 C1737 0.930 . S
H1730 C1738 0.930 . S
H1731 C1739 0.930 . S
H1732 C1742 0.930 . S
H1733 C1743 0.930 . S
C1734 H1728 0.930 . S
C1734 C1735 1.355 . S
C1734 C1736 1.415 . S
C1735 C1734 1.355 . S
C1735 C1737 1.419 . S
C1736 C1734 1.415 . S
C1736 C1741 1.425 . S
C1736 C1743 1.409 . S
C1737 H1729 0.930 . S
C1737 C1735 1.419 . S
C1737 C1738 1.362 . S
C1738 H1730 0.930 . S
C1738 C1737 1.362 . S
C1738 C1741 1.409 . S
C1739 H1731 0.930 . S
C1739 C1740 1.355 . S
C1739 C1741 1.415 . S
C1740 C1739 1.355 . S
C1740 C1742 1.419 . S
C1741 C1736 1.425 . S
C1741 C1738 1.409 . S
C1741 C1739 1.415 . S
C1742 H1732 0.930 . S
C1742 C1740 1.419 . S
C1742 C1743 1.362 . S
C1743 H1733 0.930 . S
C1743 C1736 1.409 . S
C1743 C1742 1.362 . S
H1744 C1750 0.930 . S
H1745 C1753 0.930 . S
H1746 C1754 0.930 . S
H1747 C1755 0.930 . S
H1748 C1758 0.930 . S
H1749 C1759 0.930 . S
C1750 H1744 0.930 . S
C1750 C1751 1.355 . S
C1750 C1752 1.415 . S
C1751 C1750 1.355 . S
C1751 C1753 1.419 . S
C1752 C1750 1.415 . S
C1752 C1757 1.425 . S
C1752 C1759 1.409 . S
C1753 H1745 0.930 . S
C1753 C1751 1.419 . S
C1753 C1754 1.362 . S
C1754 H1746 0.930 . S
C1754 C1753 1.362 . S
C1754 C1757 1.409 . S
C1755 H1747 0.930 . S
C1755 C1756 1.355 . S
C1755 C1757 1.415 . S
C1756 C1755 1.355 . S
C1756 C1758 1.419 . S
C1757 C1752 1.425 . S
C1757 C1754 1.409 . S
C1757 C1755 1.415 . S
C1758 H1748 0.930 . S
C1758 C1756 1.419 . S
C1758 C1759 1.362 . S
C1759 H1749 0.930 . S
C1759 C1752 1.409 . S
C1759 C1758 1.362 . S
H1760 C1766 0.930 . S
H1761 C1769 0.906 1_455 S
H1762 C1770 0.930 . S
H1763 C1771 0.930 . S
H1764 C1774 0.930 . S
H1765 C1775 0.930 . S
C1766 H1760 0.930 . S
C1766 C1767 1.355 . S
C1766 C1768 1.415 . S
C1767 C1766 1.355 . S
C1767 C1769 1.419 . S
C1768 C1766 1.415 . S
C1768 C1773 1.425 . S
C1768 C1775 1.409 . S
C1769 H1761 0.906 1_655 S
C1769 C1767 1.419 . S
C1769 C1770 1.362 . S
C1770 H1762 0.930 . S
C1770 C1769 1.362 . S
C1770 C1773 1.409 . S
C1771 H1763 0.930 . S
C1771 C1772 1.355 . S
C1771 C1773 1.415 . S
C1772 C1771 1.355 . S
C1772 C1774 1.419 . S
C1773 C1768 1.425 . S
C1773 C1770 1.409 . S
C1773 C1771 1.415 . S
C1774 H1764 0.930 . S
C1774 C1772 1.419 . S
C1774 C1775 1.362 . S
C1775 H1765 0.930 . S
C1775 C1768 1.409 . S
C1775 C1774 1.362 . S
H1776 C1782 0.930 . S
H1777 C1785 0.930 . S
H1778 C1786 0.930 . S
H1779 C1787 0.930 . S
H1780 C1790 0.930 . S
H1781 C1791 0.930 . S
C1782 H1776 0.930 . S
C1782 C1783 1.355 . S
C1782 C1784 1.415 . S
C1783 C1782 1.355 . S
C1783 C1785 1.419 . S
C1784 C1782 1.415 . S
C1784 C1789 1.425 . S
C1784 C1791 1.409 . S
C1785 H1777 0.930 . S
C1785 C1783 1.419 . S
C1785 C1786 1.362 . S
C1786 H1778 0.930 . S
C1786 C1785 1.362 . S
C1786 C1789 1.409 . S
C1787 H1779 0.930 . S
C1787 C1788 1.355 . S
C1787 C1789 1.415 . S
C1788 C1787 1.355 . S
C1788 C1790 1.419 . S
C1789 C1784 1.425 . S
C1789 C1786 1.409 . S
C1789 C1787 1.415 . S
C1790 H1780 0.930 . S
C1790 C1788 1.419 . S
C1790 C1791 1.362 . S
C1791 H1781 0.930 . S
C1791 C1784 1.409 . S
C1791 C1790 1.362 . S
H1792 C1798 0.930 . S
H1793 C1801 0.930 . S
H1794 C1802 0.930 . S
H1795 C1803 0.930 . S
H1796 C1806 0.930 . S
H1797 C1807 0.930 . S
C1798 H1792 0.930 . S
C1798 C1799 1.355 . S
C1798 C1800 1.415 . S
C1799 C1798 1.355 . S
C1799 C1801 1.419 . S
C1800 C1798 1.415 . S
C1800 C1805 1.425 . S
C1800 C1807 1.409 . S
C1801 H1793 0.930 . S
C1801 C1799 1.419 . S
C1801 C1802 1.362 . S
C1802 H1794 0.930 . S
C1802 C1801 1.362 . S
C1802 C1805 1.409 . S
C1803 H1795 0.930 . S
C1803 C1804 1.355 . S
C1803 C1805 1.415 . S
C1804 C1803 1.355 . S
C1804 C1806 1.419 . S
C1805 C1800 1.425 . S
C1805 C1802 1.409 . S
C1805 C1803 1.415 . S
C1806 H1796 0.930 . S
C1806 C1804 1.419 . S
C1806 C1807 1.362 . S
C1807 H1797 0.930 . S
C1807 C1800 1.409 . S
C1807 C1806 1.362 . S
H1808 C1814 0.930 . S
H1809 C1817 0.930 . S
H1810 C1818 0.930 . S
H1811 C1819 0.930 . S
H1812 C1822 0.930 . S
H1813 C1823 0.930 . S
C1814 H1808 0.930 . S
C1814 C1815 1.355 . S
C1814 C1816 1.415 . S
C1815 C1814 1.355 . S
C1815 C1817 1.419 . S
C1816 C1814 1.415 . S
C1816 C1821 1.425 . S
C1816 C1823 1.409 . S
C1817 H1809 0.930 . S
C1817 C1815 1.419 . S
C1817 C1818 1.362 . S
C1818 H1810 0.930 . S
C1818 C1817 1.362 . S
C1818 C1821 1.409 . S
C1819 H1811 0.930 . S
C1819 C1820 1.355 . S
C1819 C1821 1.415 . S
C1820 C1819 1.355 . S
C1820 C1822 1.419 . S
C1821 C1816 1.425 . S
C1821 C1818 1.409 . S
C1821 C1819 1.415 . S
C1822 H1812 0.930 . S
C1822 C1820 1.419 . S
C1822 C1823 1.362 . S
C1823 H1813 0.930 . S
C1823 C1816 1.409 . S
C1823 C1822 1.362 . S
H1824 C1830 0.930 . S
H1825 C1833 0.930 . S
H1826 C1834 0.930 . S
H1827 C1835 0.930 . S
H1828 C1838 0.930 . S
H1829 C1839 0.930 . S
C1830 H1824 0.930 . S
C1830 C1831 1.355 . S
C1830 C1832 1.415 . S
C1831 C1830 1.355 . S
C1831 C1833 1.419 . S
C1832 C1830 1.415 . S
C1832 C1837 1.425 . S
C1832 C1839 1.409 . S
C1833 H1825 0.930 . S
C1833 C1831 1.419 . S
C1833 C1834 1.362 . S
C1834 H1826 0.930 . S
C1834 C1833 1.362 . S
C1834 C1837 1.409 . S
C1835 H1827 0.930 . S
C1835 C1836 1.355 . S
C1835 C1837 1.415 . S
C1836 C1835 1.355 . S
C1836 C1838 1.419 . S
C1837 C1832 1.425 . S
C1837 C1834 1.409 . S
C1837 C1835 1.415 . S
C1838 H1828 0.930 . S
C1838 C1836 1.419 . S
C1838 C1839 1.362 . S
C1839 H1829 0.930 . S
C1839 C1832 1.409 . S
C1839 C1838 1.362 . S
H1840 C1846 0.930 . S
H1841 C1849 0.930 . S
H1842 C1850 0.930 . S
H1843 C1851 0.930 . S
H1844 C1854 0.930 . S
H1845 C1855 0.930 . S
C1846 H1840 0.930 . S
C1846 C1847 1.355 . S
C1846 C1848 1.415 . S
C1847 C1846 1.355 . S
C1847 C1849 1.419 . S
C1848 C1846 1.415 . S
C1848 C1853 1.425 . S
C1848 C1855 1.409 . S
C1849 H1841 0.930 . S
C1849 C1847 1.419 . S
C1849 C1850 1.362 . S
C1850 H1842 0.930 . S
C1850 C1849 1.362 . S
C1850 C1853 1.409 . S
C1851 H1843 0.930 . S
C1851 C1852 1.355 . S
C1851 C1853 1.415 . S
C1852 C1851 1.355 . S
C1852 C1854 1.419 . S
C1853 C1848 1.425 . S
C1853 C1850 1.409 . S
C1853 C1851 1.415 . S
C1854 H1844 0.930 . S
C1854 C1852 1.419 . S
C1854 C1855 1.362 . S
C1855 H1845 0.930 . S
C1855 C1848 1.409 . S
C1855 C1854 1.362 . S
H1856 C1862 0.930 . S
H1857 C1865 0.930 . S
H1858 C1866 0.930 . S
H1859 C1867 0.930 . S
H1860 C1870 0.930 . S
H1861 C1871 0.930 . S
C1862 H1856 0.930 . S
C1862 C1863 1.355 . S
C1862 C1864 1.415 . S
C1863 C1862 1.355 . S
C1863 C1865 1.419 . S
C1864 C1862 1.415 . S
C1864 C1869 1.425 . S
C1864 C1871 1.409 . S
C1865 H1857 0.930 . S
C1865 C1863 1.419 . S
C1865 C1866 1.362 . S
C1866 H1858 0.930 . S
C1866 C1865 1.362 . S
C1866 C1869 1.409 . S
C1867 H1859 0.930 . S
C1867 C1868 1.355 . S
C1867 C1869 1.415 . S
C1868 C1867 1.355 . S
C1868 C1870 1.419 . S
C1869 C1864 1.425 . S
C1869 C1866 1.409 . S
C1869 C1867 1.415 . S
C1870 H1860 0.930 . S
C1870 C1868 1.419 . S
C1870 C1871 1.362 . S
C1871 H1861 0.930 . S
C1871 C1864 1.409 . S
C1871 C1870 1.362 . S
H1872 C1878 0.930 . S
H1873 C1881 0.930 . S
H1874 C1882 0.930 . S
H1875 C1883 0.930 . S
H1876 C1886 0.930 . S
H1877 C1887 0.930 . S
C1878 H1872 0.930 . S
C1878 C1879 1.355 . S
C1878 C1880 1.415 . S
C1879 C1878 1.355 . S
C1879 C1881 1.419 . S
C1880 C1878 1.415 . S
C1880 C1885 1.425 . S
C1880 C1887 1.409 . S
C1881 H1873 0.930 . S
C1881 C1879 1.419 . S
C1881 C1882 1.362 . S
C1882 H1874 0.930 . S
C1882 C1881 1.362 . S
C1882 C1885 1.409 . S
C1883 H1875 0.930 . S
C1883 C1884 1.355 . S
C1883 C1885 1.415 . S
C1884 C1883 1.355 . S
C1884 C1886 1.419 . S
C1885 C1880 1.425 . S
C1885 C1882 1.409 . S
C1885 C1883 1.415 . S
C1886 H1876 0.930 . S
C1886 C1884 1.419 . S
C1886 C1887 1.362 . S
C1887 H1877 0.930 . S
C1887 C1880 1.409 . S
C1887 C1886 1.362 . S
H1888 C1894 0.930 . S
H1889 C1897 0.930 . S
H1890 C1898 0.930 . S
H1891 C1899 0.930 . S
H1892 C1902 0.930 . S
H1893 C1903 0.930 . S
C1894 H1888 0.930 . S
C1894 C1895 1.355 . S
C1894 C1896 1.415 . S
C1895 C1894 1.355 . S
C1895 C1897 1.419 . S
C1896 C1894 1.415 . S
C1896 C1901 1.425 . S
C1896 C1903 1.409 . S
C1897 H1889 0.930 . S
C1897 C1895 1.419 . S
C1897 C1898 1.362 . S
C1898 H1890 0.930 . S
C1898 C1897 1.362 . S
C1898 C1901 1.409 . S
C1899 H1891 0.930 . S
C1899 C1900 1.355 . S
C1899 C1901 1.415 . S
C1900 C1899 1.355 . S
C1900 C1902 1.419 . S
C1901 C1896 1.425 . S
C1901 C1898 1.409 . S
C1901 C1899 1.415 . S
C1902 H1892 0.930 . S
C1902 C1900 1.419 . S
C1902 C1903 1.362 . S
C1903 H1893 0.930 . S
C1903 C1896 1.409 . S
C1903 C1902 1.362 . S
H1904 C1910 0.930 . S
H1905 C1913 0.930 . S
H1906 C1914 0.930 . S
H1907 C1915 0.930 . S
H1908 C1918 0.930 . S
H1909 C1919 0.930 . S
C1910 H1904 0.930 . S
C1910 C1911 1.355 . S
C1910 C1912 1.415 . S
C1911 C1910 1.355 . S
C1911 C1913 1.419 . S
C1912 C1910 1.415 . S
C1912 C1917 1.425 . S
C1912 C1919 1.409 . S
C1913 H1905 0.930 . S
C1913 C1911 1.419 . S
C1913 C1914 1.362 . S
C1914 H1906 0.930 . S
C1914 C1913 1.362 . S
C1914 C1917 1.409 . S
C1915 H1907 0.930 . S
C1915 C1916 1.355 . S
C1915 C1917 1.415 . S
C1916 C1915 1.355 . S
C1916 C1918 1.419 . S
C1917 C1912 1.425 . S
C1917 C1914 1.409 . S
C1917 C1915 1.415 . S
C1918 H1908 0.930 . S
C1918 C1916 1.419 . S
C1918 C1919 1.362 . S
C1919 H1909 0.930 . S
C1919 C1912 1.409 . S
C1919 C1918 1.362 . S
H1920 C1926 0.930 . S
H1921 C1929 0.930 . S
H1922 C1930 0.930 . S
H1923 C1931 0.930 . S
H1924 C1934 0.930 . S
H1925 C1935 0.930 . S
C1926 H1920 0.930 . S
C1926 C1927 1.355 . S
C1926 C1928 1.415 . S
C1927 C1926 1.355 . S
C1927 C1929 1.419 . S
C1928 C1926 1.415 . S
C1928 C1933 1.425 . S
C1928 C1935 1.409 . S
C1929 H1921 0.930 . S
C1929 C1927 1.419 . S
C1929 C1930 1.362 . S
C1930 H1922 0.930 . S
C1930 C1929 1.362 . S
C1930 C1933 1.409 . S
C1931 H1923 0.930 . S
C1931 C1932 1.355 . S
C1931 C1933 1.415 . S
C1932 C1931 1.355 . S
C1932 C1934 1.419 . S
C1933 C1928 1.425 . S
C1933 C1930 1.409 . S
C1933 C1931 1.415 . S
C1934 H1924 0.930 . S
C1934 C1932 1.419 . S
C1934 C1935 1.362 . S
C1935 H1925 0.930 . S
C1935 C1928 1.409 . S
C1935 C1934 1.362 . S
H1936 C1942 0.930 . S
H1937 C1945 0.930 . S
H1938 C1946 0.930 . S
H1939 C1947 0.930 . S
H1940 C1950 0.930 . S
H1941 C1951 0.930 . S
C1942 H1936 0.930 . S
C1942 C1943 1.355 . S
C1942 C1944 1.415 . S
C1943 C1942 1.355 . S
C1943 C1945 1.419 . S
C1944 C1942 1.415 . S
C1944 C1949 1.425 . S
C1944 C1951 1.409 . S
C1945 H1937 0.930 . S
C1945 C1943 1.419 . S
C1945 C1946 1.362 . S
C1946 H1938 0.930 . S
C1946 C1945 1.362 . S
C1946 C1949 1.409 . S
C1947 H1939 0.930 . S
C1947 C1948 1.355 . S
C1947 C1949 1.415 . S
C1948 C1947 1.355 . S
C1948 C1950 1.419 . S
C1949 C1944 1.425 . S
C1949 C1946 1.409 . S
C1949 C1947 1.415 . S
C1950 H1940 0.930 . S
C1950 C1948 1.419 . S
C1950 C1951 1.362 . S
C1951 H1941 0.930 . S
C1951 C1944 1.409 . S
C1951 C1950 1.362 . S
H1952 C1958 0.930 . S
H1953 C1961 0.930 . S
H1954 C1962 0.930 . S
H1955 C1963 0.930 . S
H1956 C1966 0.930 . S
H1957 C1967 0.930 . S
C1958 H1952 0.930 . S
C1958 C1959 1.355 . S
C1958 C1960 1.415 . S
C1959 C1958 1.355 . S
C1959 C1961 1.419 . S
C1960 C1958 1.415 . S
C1960 C1965 1.425 . S
C1960 C1967 1.409 . S
C1961 H1953 0.930 . S
C1961 C1959 1.419 . S
C1961 C1962 1.362 . S
C1962 H1954 0.930 . S
C1962 C1961 1.362 . S
C1962 C1965 1.409 . S
C1963 H1955 0.930 . S
C1963 C1964 1.355 . S
C1963 C1965 1.415 . S
C1964 C1963 1.355 . S
C1964 C1966 1.419 . S
C1965 C1960 1.425 . S
C1965 C1962 1.409 . S
C1965 C1963 1.415 . S
C1966 H1956 0.930 . S
C1966 C1964 1.419 . S
C1966 C1967 1.362 . S
C1967 H1957 0.930 . S
C1967 C1960 1.409 . S
C1967 C1966 1.362 . S
H1968 C1974 0.930 . S
H1969 C1977 0.930 . S
H1970 C1978 0.930 . S
H1971 C1979 0.930 . S
H1972 C1982 0.930 . S
H1973 C1983 0.930 . S
C1974 H1968 0.930 . S
C1974 C1975 1.355 . S
C1974 C1976 1.415 . S
C1975 C1974 1.355 . S
C1975 C1977 1.419 . S
C1976 C1974 1.415 . S
C1976 C1981 1.425 . S
C1976 C1983 1.409 . S
C1977 H1969 0.930 . S
C1977 C1975 1.419 . S
C1977 C1978 1.362 . S
C1978 H1970 0.930 . S
C1978 C1977 1.362 . S
C1978 C1981 1.409 . S
C1979 H1971 0.930 . S
C1979 C1980 1.355 . S
C1979 C1981 1.415 . S
C1980 C1979 1.355 . S
C1980 C1982 1.419 . S
C1981 C1976 1.425 . S
C1981 C1978 1.409 . S
C1981 C1979 1.415 . S
C1982 H1972 0.930 . S
C1982 C1980 1.419 . S
C1982 C1983 1.362 . S
C1983 H1973 0.930 . S
C1983 C1976 1.409 . S
C1983 C1982 1.362 . S
H1984 C1990 0.930 . S
H1985 C1993 0.930 . S
H1986 C1994 0.930 . S
H1987 C1995 0.930 . S
H1988 C1998 0.930 . S
H1989 C1999 0.930 . S
C1990 H1984 0.930 . S
C1990 C1991 1.355 . S
C1990 C1992 1.415 . S
C1991 C1990 1.355 . S
C1991 C1993 1.419 . S
C1992 C1990 1.415 . S
C1992 C1997 1.425 . S
C1992 C1999 1.409 . S
C1993 H1985 0.930 . S
C1993 C1991 1.419 . S
C1993 C1994 1.362 . S
C1994 H1986 0.930 . S
C1994 C1993 1.362 . S
C1994 C1997 1.409 . S
C1995 H1987 0.930 . S
C1995 C1996 1.355 . S
C1995 C1997 1.415 . S
C1996 C1995 1.355 . S
C1996 C1998 1.419 . S
C1997 C1992 1.425 . S
C1997 C1994 1.409 . S
C1997 C1995 1.415 . S
C1998 H1988 0.930 . S
C1998 C1996 1.419 . S
C1998 C1999 1.362 . S
C1999 H1989 0.930 . S
C1999 C1992 1.409 . S
C1999 C1998 1.362 . S
H2000 C2006 0.930 . S
H2001 C2009 0.930 . S
H2002 C2010 0.930 . S
H2003 C2011 0.930 . S
H2004 C2014 0.930 . S
H2005 C2015 0.930 . S
C2006 H2000 0.930 . S
C2006 C2007 1.355 . S
C2006 C2008 1.415 . S
C2007 C2006 1.355 . S
C2007 C2009 1.419 . S
C2008 C2006 1.415 . S
C2008 C2013 1.425 . S
C2008 C2015 1.409 . S
C2009 H2001 0.930 . S
C2009 C2007 1.419 . S
C2009 C2010 1.362 . S
C2010 H2002 0.930 . S
C2010 C2009 1.362 . S
C2010 C2013 1.409 . S
C2011 H2003 0.930 . S
C2011 C2012 1.355 . S
C2011 C2013 1.415 . S
C2012 C2011 1.355 . S
C2012 C2014 1.419 . S
C2013 C2008 1.425 . S
C2013 C2010 1.409 . S
C2013 C2011 1.415 . S
C2014 H2004 0.930 . S
C2014 C2012 1.419 . S
C2014 C2015 1.362 . S
C2015 H2005 0.930 . S
C2015 C2008 1.409 . S
C2015 C2014 1.362 . S
H2016 C2022 0.930 . S
H2017 C2025 0.930 . S
H2018 C2026 0.930 . S
H2019 C2027 0.930 . S
H2020 C2030 0.930 . S
H2021 C2031 0.930 . S
C2022 H2016 0.930 . S
C2022 C2023 1.355 . S
C2022 C2024 1.415 . S
C2023 C2022 1.355 . S
C2023 C2025 1.419 . S
C2024 C2022 1.415 . S
C2024 C2029 1.425 . S
C2024 C2031 1.409 . S
C2025 H2017 0.930 . S
C2025 C2023 1.419 . S
C2025 C2026 1.362 . S
C2026 H2018 0.930 . S
C2026 C2025 1.362 . S
C2026 C2029 1.409 . S
C2027 H2019 0.930 . S
C2027 C2028 1.355 . S
C2027 C2029 1.415 . S
C2028 C2027 1.355 . S
C2028 C2030 1.419 . S
C2029 C2024 1.425 . S
C2029 C2026 1.409 . S
C2029 C2027 1.415 . S
C2030 H2020 0.930 . S
C2030 C2028 1.419 . S
C2030 C2031 1.362 . S
C2031 H2021 0.930 . S
C2031 C2024 1.409 . S
C2031 C2030 1.362 . S
H2032 C2038 0.930 . S
H2033 C2041 0.930 . S
H2034 C2042 0.930 . S
H2035 C2043 0.930 . S
H2036 C2046 0.930 . S
H2037 C2047 0.930 . S
C2038 H2032 0.930 . S
C2038 C2039 1.355 . S
C2038 C2040 1.415 . S
C2039 C2038 1.355 . S
C2039 C2041 1.419 . S
C2040 C2038 1.415 . S
C2040 C2045 1.425 . S
C2040 C2047 1.409 . S
C2041 H2033 0.930 . S
C2041 C2039 1.419 . S
C2041 C2042 1.362 . S
C2042 H2034 0.930 . S
C2042 C2041 1.362 . S
C2042 C2045 1.409 . S
C2043 H2035 0.930 . S
C2043 C2044 1.355 . S
C2043 C2045 1.415 . S
C2044 C2043 1.355 . S
C2044 C2046 1.419 . S
C2045 C2040 1.425 . S
C2045 C2042 1.409 . S
C2045 C2043 1.415 . S
C2046 H2036 0.930 . S
C2046 C2044 1.419 . S
C2046 C2047 1.362 . S
C2047 H2037 0.930 . S
C2047 C2040 1.409 . S
C2047 C2046 1.362 . S
H2048 C2054 0.930 . S
H2049 C2057 0.930 . S
H2050 C2058 0.930 . S
H2051 C2059 0.930 . S
H2052 C2062 0.930 . S
H2053 C2063 0.930 . S
C2054 H2048 0.930 . S
C2054 C2055 1.355 . S
C2054 C2056 1.415 . S
C2055 C2054 1.355 . S
C2055 C2057 1.419 . S
C2056 C2054 1.415 . S
C2056 C2061 1.425 . S
C2056 C2063 1.409 . S
C2057 H2049 0.930 . S
C2057 C2055 1.419 . S
C2057 C2058 1.362 . S
C2058 H2050 0.930 . S
C2058 C2057 1.362 . S
C2058 C2061 1.409 . S
C2059 H2051 0.930 . S
C2059 C2060 1.355 . S
C2059 C2061 1.415 . S
C2060 C2059 1.355 . S
C2060 C2062 1.419 . S
C2061 C2056 1.425 . S
C2061 C2058 1.409 . S
C2061 C2059 1.415 . S
C2062 H2052 0.930 . S
C2062 C2060 1.419 . S
C2062 C2063 1.362 . S
C2063 H2053 0.930 . S
C2063 C2056 1.409 . S
C2063 C2062 1.362 . S
H2064 C2070 0.930 . S
H2065 C2073 0.930 . S
H2066 C2074 0.930 . S
H2067 C2075 0.930 . S
H2068 C2078 0.930 . S
H2069 C2079 0.930 . S
C2070 H2064 0.930 . S
C2070 C2071 1.355 . S
C2070 C2072 1.415 . S
C2071 C2070 1.355 . S
C2071 C2073 1.419 . S
C2072 C2070 1.415 . S
C2072 C2077 1.425 . S
C2072 C2079 1.409 . S
C2073 H2065 0.930 . S
C2073 C2071 1.419 . S
C2073 C2074 1.362 . S
C2074 H2066 0.930 . S
C2074 C2073 1.362 . S
C2074 C2077 1.409 . S
C2075 H2067 0.930 . S
C2075 C2076 1.355 . S
C2075 C2077 1.415 . S
C2076 C2075 1.355 . S
C2076 C2078 1.419 . S
C2077 C2072 1.425 . S
C2077 C2074 1.409 . S
C2077 C2075 1.415 . S
C2078 H2068 0.930 . S
C2078 C2076 1.419 . S
C2078 C2079 1.362 . S
C2079 H2069 0.930 . S
C2079 C2072 1.409 . S
C2079 C2078 1.362 . S
H2080 C2086 0.930 . S
H2081 C2089 0.930 . S
H2082 C2090 0.930 . S
H2083 C2091 0.930 . S
H2084 C2094 0.930 . S
H2085 C2095 0.930 . S
C2086 H2080 0.930 . S
C2086 C2087 1.355 . S
C2086 C2088 1.415 . S
C2087 C2086 1.355 . S
C2087 C2089 1.419 . S
C2088 C2086 1.415 . S
C2088 C2093 1.425 . S
C2088 C2095 1.409 . S
C2089 H2081 0.930 . S
C2089 C2087 1.419 . S
C2089 C2090 1.362 . S
C2090 H2082 0.930 . S
C2090 C2089 1.362 . S
C2090 C2093 1.409 . S
C2091 H2083 0.930 . S
C2091 C2092 1.355 . S
C2091 C2093 1.415 . S
C2092 C2091 1.355 . S
C2092 C2094 1.419 . S
C2093 C2088 1.425 . S
C2093 C2090 1.409 . S
C2093 C2091 1.415 . S
C2094 H2084 0.930 . S
C2094 C2092 1.419 . S
C2094 C2095 1.362 . S
C2095 H2085 0.930 . S
C2095 C2088 1.409 . S
C2095 C2094 1.362 . S
H2096 C2102 0.930 . S
H2097 C2105 0.930 . S
H2098 C2106 0.930 . S
H2099 C2107 0.930 . S
H2100 C2110 0.930 . S
H2101 C2111 0.930 . S
C2102 H2096 0.930 . S
C2102 C2103 1.355 . S
C2102 C2104 1.415 . S
C2103 C2102 1.355 . S
C2103 C2105 1.419 . S
C2104 C2102 1.415 . S
C2104 C2109 1.425 . S
C2104 C2111 1.409 . S
C2105 H2097 0.930 . S
C2105 C2103 1.419 . S
C2105 C2106 1.362 . S
C2106 H2098 0.930 . S
C2106 C2105 1.362 . S
C2106 C2109 1.409 . S
C2107 H2099 0.930 . S
C2107 C2108 1.355 . S
C2107 C2109 1.415 . S
C2108 C2107 1.355 . S
C2108 C2110 1.419 . S
C2109 C2104 1.425 . S
C2109 C2106 1.409 . S
C2109 C2107 1.415 . S
C2110 H2100 0.930 . S
C2110 C2108 1.419 . S
C2110 C2111 1.362 . S
C2111 H2101 0.930 . S
C2111 C2104 1.409 . S
C2111 C2110 1.362 . S
H2112 C2118 0.930 . S
H2113 C2121 0.930 . S
H2114 C2122 0.930 . S
H2115 C2123 0.930 . S
H2116 C2126 0.930 . S
H2117 C2127 0.930 . S
C2118 H2112 0.930 . S
C2118 C2119 1.355 . S
C2118 C2120 1.415 . S
C2119 C2118 1.355 . S
C2119 C2121 1.419 . S
C2120 C2118 1.415 . S
C2120 C2125 1.425 . S
C2120 C2127 1.409 . S
C2121 H2113 0.930 . S
C2121 C2119 1.419 . S
C2121 C2122 1.362 . S
C2122 H2114 0.930 . S
C2122 C2121 1.362 . S
C2122 C2125 1.409 . S
C2123 H2115 0.930 . S
C2123 C2124 1.355 . S
C2123 C2125 1.415 . S
C2124 C2123 1.355 . S
C2124 C2126 1.419 . S
C2125 C2120 1.425 . S
C2125 C2122 1.409 . S
C2125 C2123 1.415 . S
C2126 H2116 0.930 . S
C2126 C2124 1.419 . S
C2126 C2127 1.362 . S
C2127 H2117 0.930 . S
C2127 C2120 1.409 . S
C2127 C2126 1.362 . S
H2128 C2134 0.930 . S
H2129 C2137 0.930 . S
H2130 C2138 0.930 . S
H2131 C2139 0.930 . S
H2132 C2142 0.930 . S
H2133 C2143 0.930 . S
C2134 H2128 0.930 . S
C2134 C2135 1.355 . S
C2134 C2136 1.415 . S
C2135 C2134 1.355 . S
C2135 C2137 1.419 . S
C2136 C2134 1.415 . S
C2136 C2141 1.425 . S
C2136 C2143 1.409 . S
C2137 H2129 0.930 . S
C2137 C2135 1.419 . S
C2137 C2138 1.362 . S
C2138 H2130 0.930 . S
C2138 C2137 1.362 . S
C2138 C2141 1.409 . S
C2139 H2131 0.930 . S
C2139 C2140 1.355 . S
C2139 C2141 1.415 . S
C2140 C2139 1.355 . S
C2140 C2142 1.419 . S
C2141 C2136 1.425 . S
C2141 C2138 1.409 . S
C2141 C2139 1.415 . S
C2142 H2132 0.930 . S
C2142 C2140 1.419 . S
C2142 C2143 1.362 . S
C2143 H2133 0.930 . S
C2143 C2136 1.409 . S
C2143 C2142 1.362 . S
H2144 C2150 0.930 . S
H2145 C2153 0.930 . S
H2146 C2154 0.930 . S
H2147 C2155 0.930 . S
H2148 C2158 0.930 . S
H2149 C2159 0.930 . S
C2150 H2144 0.930 . S
C2150 C2151 1.355 . S
C2150 C2152 1.415 . S
C2151 C2150 1.355 . S
C2151 C2153 1.419 . S
C2152 C2150 1.415 . S
C2152 C2157 1.425 . S
C2152 C2159 1.409 . S
C2153 H2145 0.930 . S
C2153 C2151 1.419 . S
C2153 C2154 1.362 . S
C2154 H2146 0.930 . S
C2154 C2153 1.362 . S
C2154 C2157 1.409 . S
C2155 H2147 0.930 . S
C2155 C2156 1.355 . S
C2155 C2157 1.415 . S
C2156 C2155 1.355 . S
C2156 C2158 1.419 . S
C2157 C2152 1.425 . S
C2157 C2154 1.409 . S
C2157 C2155 1.415 . S
C2158 H2148 0.930 . S
C2158 C2156 1.419 . S
C2158 C2159 1.362 . S
C2159 H2149 0.930 . S
C2159 C2152 1.409 . S
C2159 C2158 1.362 . S
H2160 C2166 0.930 . S
H2161 C2169 0.930 . S
H2162 C2170 0.930 . S
H2163 C2171 0.930 . S
H2164 C2174 0.930 . S
H2165 C2175 0.930 . S
C2166 H2160 0.930 . S
C2166 C2167 1.355 . S
C2166 C2168 1.415 . S
C2167 C2166 1.355 . S
C2167 C2169 1.419 . S
C2168 C2166 1.415 . S
C2168 C2173 1.425 . S
C2168 C2175 1.409 . S
C2169 H2161 0.930 . S
C2169 C2167 1.419 . S
C2169 C2170 1.362 . S
C2170 H2162 0.930 . S
C2170 C2169 1.362 . S
C2170 C2173 1.409 . S
C2171 H2163 0.930 . S
C2171 C2172 1.355 . S
C2171 C2173 1.415 . S
C2172 C2171 1.355 . S
C2172 C2174 1.419 . S
C2173 C2168 1.425 . S
C2173 C2170 1.409 . S
C2173 C2171 1.415 . S
C2174 H2164 0.930 . S
C2174 C2172 1.419 . S
C2174 C2175 1.362 . S
C2175 H2165 0.930 . S
C2175 C2168 1.409 . S
C2175 C2174 1.362 . S
H2176 C2182 0.930 . S
H2177 C2185 0.930 . S
H2178 C2186 0.930 . S
H2179 C2187 0.930 . S
H2180 C2190 0.930 . S
H2181 C2191 0.930 . S
C2182 H2176 0.930 . S
C2182 C2183 1.355 . S
C2182 C2184 1.415 . S
C2183 C2182 1.355 . S
C2183 C2185 1.419 . S
C2184 C2182 1.415 . S
C2184 C2189 1.425 . S
C2184 C2191 1.409 . S
C2185 H2177 0.930 . S
C2185 C2183 1.419 . S
C2185 C2186 1.362 . S
C2186 H2178 0.930 . S
C2186 C2185 1.362 . S
C2186 C2189 1.409 . S
C2187 H2179 0.930 . S
C2187 C2188 1.355 . S
C2187 C2189 1.415 . S
C2188 C2187 1.355 . S
C2188 C2190 1.419 . S
C2189 C2184 1.425 . S
C2189 C2186 1.409 . S
C2189 C2187 1.415 . S
C2190 H2180 0.930 . S
C2190 C2188 1.419 . S
C2190 C2191 1.362 . S
C2191 H2181 0.930 . S
C2191 C2184 1.409 . S
C2191 C2190 1.362 . S
H2192 C2198 0.930 . S
H2193 C2201 0.930 . S
H2194 C2202 0.930 . S
H2195 C2203 0.930 . S
H2196 C2206 0.930 . S
H2197 C2207 0.930 . S
C2198 H2192 0.930 . S
C2198 C2199 1.355 . S
C2198 C2200 1.415 . S
C2199 C2198 1.355 . S
C2199 C2201 1.419 . S
C2200 C2198 1.415 . S
C2200 C2205 1.425 . S
C2200 C2207 1.409 . S
C2201 H2193 0.930 . S
C2201 C2199 1.419 . S
C2201 C2202 1.362 . S
C2202 H2194 0.930 . S
C2202 C2201 1.362 . S
C2202 C2205 1.409 . S
C2203 H2195 0.930 . S
C2203 C2204 1.355 . S
C2203 C2205 1.415 . S
C2204 C2203 1.355 . S
C2204 C2206 1.419 . S
C2205 C2200 1.425 . S
C2205 C2202 1.409 . S
C2205 C2203 1.415 . S
C2206 H2196 0.930 . S
C2206 C2204 1.419 . S
C2206 C2207 1.362 . S
C2207 H2197 0.930 . S
C2207 C2200 1.409 . S
C2207 C2206 1.362 . S
C679 C439 1.200 . S
C684 C11 1.223 . S
C695 C19 1.072 . S
C700 C403 1.278 . S
C711 C39 1.248 . S
C716 C411 1.165 . S
C727 C431 1.224 . S
C732 C47 1.200 . S
C743 C355 1.055 . S
C748 C67 1.279 . S
C759 C75 1.200 . S
C764 C375 1.224 . S
C775 C383 1.081 . S
C780 C95 1.256 . S
C791 C103 1.190 . S
C796 C347 1.233 . S
C807 C123 1.237 . S
C812 C627 1.229 . S
C823 C579 1.161 . S
C828 C137 1.225 . S
C839 C599 1.246 . S
C844 C151 1.234 . S
C855 C165 1.272 . S
C860 C607 1.053 . S
C871 C179 1.281 . S
C876 C669 1.281 . S
C887 C193 1.228 . S
C892 C635 1.197 . S
C903 C207 1.279 . S
C908 C655 1.282 . S
C919 C565 1.126 . S
C924 C221 1.237 . S
C935 C557 1.276 . S
C940 C229 1.084 . S
C951 C243 1.198 . S
C956 C473 1.226 . S
C967 C487 1.229 . S
C972 C263 1.227 . S
C983 C271 1.193 . S
C988 C501 1.231 . S
C999 C459 1.255 . S
C1004 C291 1.269 . S
C1015 C529 1.254 . S
C1020 C299 1.084 . S
C1031 C319 1.282 . S
C1036 C543 1.279 . S
C1047 C515 1.246 . S
C1052 C333 1.261 . S
C1063 C138 1.261 . S
C1068 C12 1.244 . S
C1079 C152 1.299 . S
C1084 C18 1.292 . S
C1095 C40 1.252 . S
C1100 C166 1.246 . S
C1111 C124 1.294 . S
C1116 C46 1.273 . S
C1127 C68 1.261 . S
C1132 C222 1.284 . S
C1143 C180 1.300 . S
C1148 C74 1.294 . S
C1159 C194 1.247 . S
C1164 C96 1.249 . S
C1175 C208 1.265 . S
C1180 C102 1.226 . S
C1191 C264 1.277 . S
C1196 C228 1.254 . S
C1207 C320 1.271 . S
C1212 C242 1.228 . S
C1223 C334 1.268 . S
C1228 C270 1.225 . S
C1239 C292 1.269 . S
C1244 C298 1.236 . S
C1255 C474 1.284 . S
C1260 C348 1.273 . S
C1271 C488 1.266 . S
C1276 C354 1.230 . S
C1287 C502 1.269 . S
C1292 C376 1.285 . S
C1303 C382 1.229 . S
C1308 C460 1.271 . S
C1319 C404 1.264 . S
C1324 C558 1.244 . S
C1335 C410 1.231 . S
C1340 C516 1.272 . S
C1351 C530 1.244 . S
C1356 C432 1.263 . S
C1367 C544 1.290 . S
C1372 C438 1.280 . S
C1383 C564 1.230 . S
C1388 C600 1.266 . S
C1399 C656 1.275 . S
C1404 C578 1.251 . S
C1415 C670 1.283 . S
C1420 C606 1.249 . S
C1431 C634 1.238 . S
C1436 C628 1.277 . S
C1447 C5 1.083 . S
C1452 C256 1.280 . S
C1463 C25 1.344 . S
C1468 C278 1.349 . S
C1479 C33 1.178 . S
C1484 C284 1.202 . S
C1495 C250 1.363 . S
C1500 C53 1.348 . S
C1511 C61 1.045 . S
C1516 C312 1.254 . S
C1527 C81 1.385 . S
C1532 C236 1.316 . S
C1543 C326 1.244 . S
C1548 C89 1.182 . S
C1559 C306 1.382 . S
C1564 C109 1.379 . S
C1575 C117 1.217 . S
C1580 C130 1.224 . S
C1591 C131 1.161 . S
C1596 C144 1.201 . S
C1607 C145 1.091 . S
C1612 C158 1.275 . S
C1623 C116 1.209 . S
C1628 C159 1.193 . S
C1639 C214 1.282 . S
C1644 C173 1.086 . S
C1655 C172 1.239 . S
C1660 C187 1.060 . S
C1671 C186 1.283 . S
C1676 C201 1.189 . S
C1687 C215 1.082 . S
C1692 C200 1.280 . S
C1703 C54 1.380 . S
C1708 C235 1.386 . S
C1719 C82 1.378 . S
C1724 C249 1.361 . S
C1735 C88 1.300 . S
C1740 C257 1.148 . S
C1751 C277 1.372 . S
C1756 C110 1.383 . S
C1767 C60 1.286 . S
C1772 C285 1.084 . S
C1783 C26 1.305 . S
C1788 C305 1.368 . S
C1799 C32 1.224 . S
C1804 C313 1.193 . S
C1815 C4 1.224 . S
C1820 C327 1.216 . S
C1831 C592 1.206 . S
C1836 C341 1.129 . S
C1847 C361 1.357 . S
C1852 C614 1.306 . S
C1863 C620 1.280 . S
C1868 C369 1.084 . S
C1879 C586 1.380 . S
C1884 C389 1.364 . S
C1895 C397 1.197 . S
C1900 C648 1.216 . S
C1911 C417 1.355 . S
C1916 C572 1.373 . S
C1927 C662 1.215 . S
C1932 C425 1.102 . S
C1943 C445 1.342 . S
C1948 C642 1.338 . S
C1959 C453 1.202 . S
C1964 C466 1.223 . S
C1975 C467 1.051 . S
C1980 C480 1.275 . S
C1991 C481 1.138 . S
C1996 C494 1.303 . S
C2007 C495 1.045 . S
C2012 C452 1.254 . S
C2023 C550 1.258 . S
C2028 C509 1.111 . S
C2039 C508 1.262 . S
C2044 C523 1.155 . S
C2055 C522 1.275 . S
C2060 C537 1.091 . S
C2071 C551 1.072 . S
C2076 C536 1.230 . S
C2087 C390 1.351 . S
C2092 C571 1.344 . S
C2103 C418 1.383 . S
C2108 C585 1.373 . S
C2119 C424 1.282 . S
C2124 C593 1.190 . S
C2135 C613 1.346 . S
C2140 C446 1.357 . S
C2151 C396 1.250 . S
C2156 C621 1.226 . S
C2167 C362 1.328 . S
C2172 C641 1.343 . S
C2183 C649 1.228 . S
C2188 C368 1.247 . S
C2199 C340 1.306 . S
C2204 C663 1.112 . S
