# Generated by pormake.
# Topology noz, (5)-cn, num edge types: 1
# Building blocks:
#     Node 0, Type 0, BuildingBlock: XOMCOT_clean_sbu_1, # of connection points: 5
#     Node 1, Type 0, BuildingBlock: XOMCOT_clean_sbu_1, # of connection points: 5
#     Node 2, Type 0, BuildingBlock: XOMCOT_clean_sbu_1, # of connection points: 5
#     Node 3, Type 0, BuildingBlock: XOMCOT_clean_sbu_1, # of connection points: 5
#     Node 4, Type 0, BuildingBlock: XOMCOT_clean_sbu_1, # of connection points: 5
#     Node 5, Type 0, BuildingBlock: XOMCOT_clean_sbu_1, # of connection points: 5
#     Node 6, Type 0, BuildingBlock: XOMCOT_clean_sbu_1, # of connection points: 5
#     Node 7, Type 0, BuildingBlock: XOMCOT_clean_sbu_1, # of connection points: 5
#     Edge 8, Type (0, 0), BuildingBlock: OJICUG_clean_linker_0, # of connection points: 2
#     Edge 9, Type (0, 0), BuildingBlock: OJICUG_clean_linker_0, # of connection points: 2
#     Edge 10, Type (0, 0), BuildingBlock: OJICUG_clean_linker_0, # of connection points: 2
#     Edge 11, Type (0, 0), BuildingBlock: OJICUG_clean_linker_0, # of connection points: 2
#     Edge 12, Type (0, 0), BuildingBlock: OJICUG_clean_linker_0, # of connection points: 2
#     Edge 13, Type (0, 0), BuildingBlock: OJICUG_clean_linker_0, # of connection points: 2
#     Edge 14, Type (0, 0), BuildingBlock: OJICUG_clean_linker_0, # of connection points: 2
#     Edge 15, Type (0, 0), BuildingBlock: OJICUG_clean_linker_0, # of connection points: 2
#     Edge 16, Type (0, 0), BuildingBlock: OJICUG_clean_linker_0, # of connection points: 2
#     Edge 17, Type (0, 0), BuildingBlock: OJICUG_clean_linker_0, # of connection points: 2
#     Edge 18, Type (0, 0), BuildingBlock: OJICUG_clean_linker_0, # of connection points: 2
#     Edge 19, Type (0, 0), BuildingBlock: OJICUG_clean_linker_0, # of connection points: 2
#     Edge 20, Type (0, 0), BuildingBlock: OJICUG_clean_linker_0, # of connection points: 2
#     Edge 21, Type (0, 0), BuildingBlock: OJICUG_clean_linker_0, # of connection points: 2
#     Edge 22, Type (0, 0), BuildingBlock: OJICUG_clean_linker_0, # of connection points: 2
#     Edge 23, Type (0, 0), BuildingBlock: OJICUG_clean_linker_0, # of connection points: 2
#     Edge 24, Type (0, 0), BuildingBlock: OJICUG_clean_linker_0, # of connection points: 2
#     Edge 25, Type (0, 0), BuildingBlock: OJICUG_clean_linker_0, # of connection points: 2
#     Edge 26, Type (0, 0), BuildingBlock: OJICUG_clean_linker_0, # of connection points: 2
#     Edge 27, Type (0, 0), BuildingBlock: OJICUG_clean_linker_0, # of connection points: 2
# Relax obj value: 0.077
# Max RMSD: 0.161
# Mean RMSD: 0.161
data_MOF--net-noz--node1-XOMCOT_clean_sbu_1--edge1-OJICUG_clean_linker_0
_symmetry_space_group_name_H-M    P1
_symmetry_Int_Tables_number       1
_symmetry_cell_setting            triclinic
loop_
_symmetry_equiv_pos_as_xyz
'x, y, z'
_cell_length_a     17.561642
_cell_length_b     39.278126
_cell_length_c     27.117034
_cell_angle_alpha  89.92482
_cell_angle_beta   89.9991
_cell_angle_gamma 90.01106
loop_
_atom_site_label
_atom_site_type_symbol
_atom_site_fract_x
_atom_site_fract_y
_atom_site_fract_z
_atom_type_partial_charge
C0 C 0.17492 0.36483 0.33357 0.0
C1 C 0.11389 0.36928 0.30242 0.0
N2 N 0.05527 0.35082 0.31994 0.0
N3 N 0.15444 0.34406 0.37089 0.0
C4 C 0.08113 0.3357 0.36142 0.0
H5 H 0.23018 0.37677 0.33018 0.0
Co6 Co 0.21783 0.33475 0.42397 0.0
C7 C 0.12741 0.29356 0.49476 0.0
O8 O 0.16397 0.30778 0.53163 0.0
N9 N 0.28504 0.32565 0.47775 0.0
C10 C 0.36544 0.33089 0.54107 0.0
C11 C 0.31065 0.34699 0.51326 0.0
C12 C 0.32484 0.29658 0.48558 0.0
N13 N 0.37498 0.29931 0.52314 0.0
O14 O 0.26505 0.29975 0.38519 0.0
H15 H 0.29317 0.37307 0.51822 0.0
H16 H 0.3191 0.27401 0.46308 0.0
O17 O 0.14317 0.30222 0.4504 0.0
C18 C 0.33214 0.30768 0.37122 0.0
O19 O 0.36353 0.33544 0.38903 0.0
N20 N 0.17521 0.37198 0.45677 0.0
C21 C 0.13084 0.43572 0.49105 0.0
C22 C 0.08669 0.40684 0.50148 0.0
C23 C 0.10877 0.37512 0.48266 0.0
C24 C 0.21693 0.40008 0.44507 0.0
C25 C 0.19603 0.43214 0.46191 0.0
H26 H 0.07142 0.35372 0.48816 0.0
H27 H 0.2676 0.39733 0.42273 0.0
H28 H 0.04617 0.32019 0.38544 0.0
H29 H 0.11216 0.38524 0.26986 0.0
H30 H 0.39891 0.34227 0.57025 0.0
H31 H 1.03504 0.40893 0.5231 0.0
H32 H 0.2316 0.45387 0.45313 0.0
C33 C 0.6342 0.63988 0.83575 0.0
C34 C 0.69521 0.63533 0.80463 0.0
N35 N 0.75377 0.6539 0.82189 0.0
N36 N 0.65467 0.66079 0.87281 0.0
C37 C 0.72794 0.66916 0.86321 0.0
H38 H 0.57902 0.62783 0.83259 0.0
Co39 Co 0.59155 0.67007 0.926 0.0
C40 C 0.68265 0.71078 0.99673 0.0
O41 O 0.64663 0.69616 0.03355 0.0
N42 N 0.52461 0.67915 0.97994 0.0
C43 C 0.44468 0.67391 0.04353 0.0
C44 C 0.49937 0.65784 1.01569 0.0
C45 C 0.48472 0.70819 0.98769 0.0
N46 N 0.43483 0.70545 1.0254 0.0
O47 O 0.54425 0.70514 0.88728 0.0
H48 H 0.51709 0.63179 1.02083 0.0
H49 H 0.49017 0.73074 0.96503 0.0
O50 O 0.6664 0.70251 0.95231 0.0
C51 C 0.47717 0.69715 0.87339 0.0
O52 O 0.44594 0.66938 0.89136 0.0
N53 N 0.63421 0.63275 0.95867 0.0
C54 C 0.67924 0.56879 0.99188 0.0
C55 C 0.72387 0.59756 1.00198 0.0
C56 C 0.70142 0.6294 0.98367 0.0
C57 C 0.59192 0.60477 0.94734 0.0
C58 C 0.61313 0.5726 0.96368 0.0
H59 H 0.73916 0.65072 0.98871 0.0
H60 H 0.54069 0.60769 0.92559 0.0
H61 H 0.76295 0.68472 0.88707 0.0
H62 H 0.69704 0.61917 0.77233 0.0
H63 H 0.41147 0.66254 0.07289 0.0
H64 H 0.7762 0.59527 1.02286 0.0
H65 H 0.57721 0.55096 0.95518 0.0
C66 C 0.1751 0.63972 0.73165 0.0
C67 C 0.11402 0.63521 0.76274 0.0
N68 N 0.05539 0.65364 0.74518 0.0
N69 N 0.15464 0.66049 0.69433 0.0
C70 C 0.08129 0.66879 0.70374 0.0
H71 H 0.23038 0.62781 0.73505 0.0
Co72 Co 0.21802 0.66982 0.64125 0.0
C73 C 0.12755 0.71096 0.57045 0.0
O74 O 0.1641 0.69672 0.5336 0.0
N75 N 0.28522 0.67895 0.58747 0.0
C76 C 0.36573 0.67372 0.52422 0.0
C77 C 0.311 0.65759 0.55204 0.0
C78 C 0.32486 0.70806 0.57959 0.0
N79 N 0.37507 0.70534 0.54207 0.0
O80 O 0.26524 0.70483 0.68003 0.0
H81 H 0.29369 0.63147 0.54715 0.0
H82 H 0.31894 0.73065 0.60203 0.0
O83 O 0.14333 0.70233 0.61482 0.0
C84 C 0.33236 0.69693 0.69395 0.0
O85 O 0.36376 0.6692 0.67608 0.0
N86 N 0.17541 0.63258 0.60845 0.0
C87 C 0.13098 0.56882 0.57426 0.0
C88 C 0.08679 0.59768 0.56386 0.0
C89 C 0.10891 0.62942 0.58264 0.0
C90 C 0.21715 0.60449 0.62015 0.0
C91 C 0.19622 0.57242 0.60334 0.0
H92 H 0.07152 0.6508 0.57717 0.0
H93 H 0.26786 0.60726 0.64245 0.0
H94 H 0.04631 0.68427 0.6797 0.0
H95 H 0.11225 0.61922 0.79527 0.0
H96 H 0.39931 0.66234 0.4951 0.0
H97 H 1.03509 0.59557 0.5423 0.0
H98 H 0.23182 0.5507 0.6121 0.0
C99 C 0.63415 0.3641 0.22921 0.0
C100 C 0.69518 0.36869 0.2603 0.0
N101 N 0.75378 0.35018 0.24299 0.0
N102 N 0.65466 0.34321 0.19212 0.0
C103 C 0.72798 0.33491 0.20168 0.0
H104 H 0.57893 0.37608 0.2324 0.0
Co105 Co 0.59145 0.33389 0.13898 0.0
C106 C 0.68224 0.29296 0.06835 0.0
O107 O 0.6461 0.30746 1.0315 0.0
N108 N 0.52441 0.32478 0.08511 0.0
C109 C 0.44451 0.33001 1.02149 0.0
C110 C 0.49927 0.34607 0.0493 0.0
C111 C 0.48436 0.29577 0.07744 0.0
N112 N 0.4345 0.2985 0.03971 0.0
O113 O 0.54403 0.29892 0.17784 0.0
H114 H 0.51712 0.3721 0.04409 0.0
H115 H 0.4897 0.27325 0.10016 0.0
O116 O 0.66617 0.30137 0.11274 0.0
C117 C 0.47701 0.30699 0.19174 0.0
O118 O 0.44591 0.33477 0.17368 0.0
N119 N 0.63423 0.37113 0.10616 0.0
C120 C 0.67932 0.43501 0.07265 0.0
C121 C 0.72371 0.4062 0.06246 0.0
C122 C 0.70124 0.37439 0.08092 0.0
C123 C 0.59217 0.39916 0.11756 0.0
C124 C 0.61343 0.43129 0.10108 0.0
H125 H 0.7388 0.35304 0.07577 0.0
H126 H 0.54107 0.39631 0.13947 0.0
H127 H 0.76303 0.3194 0.17779 0.0
H128 H 0.69699 0.38484 0.2926 0.0
H129 H 0.41137 0.34137 0.9921 0.0
H130 H 0.77588 0.40841 0.04138 0.0
H131 H 0.57769 0.45298 0.10966 0.0
C132 C 0.67529 0.86485 0.33577 0.0
C133 C 0.61429 0.86941 0.30463 0.0
N134 N 0.55598 0.85055 0.32166 0.0
N135 N 0.65505 0.84365 0.37262 0.0
C136 C 0.58194 0.83511 0.36286 0.0
H137 H 0.73028 0.87709 0.3328 0.0
Co138 Co 0.71812 0.83426 0.42583 0.0
C139 C 0.62673 0.79368 0.49665 0.0
O140 O 0.66252 0.8084 0.53342 0.0
N141 N 0.78501 0.82506 0.47983 0.0
C142 C 0.86467 0.83013 0.54359 0.0
C143 C 0.81 0.84626 0.51572 0.0
C144 C 0.82502 0.79603 0.48753 0.0
N145 N 0.87475 0.79867 0.52533 0.0
O146 O 0.76529 0.7992 0.38718 0.0
H147 H 0.79209 0.87225 0.521 0.0
H148 H 0.81974 0.77356 0.46479 0.0
O149 O 0.64319 0.80185 0.4522 0.0
C150 C 0.83237 0.80718 0.37324 0.0
O151 O 0.86364 0.83495 0.3911 0.0
N152 N 0.67556 0.87158 0.45843 0.0
C153 C 0.63048 0.93553 0.49141 0.0
C154 C 0.5855 0.9068 0.5012 0.0
C155 C 0.608 0.87497 0.48299 0.0
C156 C 0.71819 0.89953 0.44736 0.0
C157 C 0.69697 0.93169 0.46361 0.0
H158 H 0.57001 0.8537 0.48774 0.0
H159 H 0.76968 0.89659 0.42588 0.0
H160 H 0.5471 0.8193 0.38653 0.0
H161 H 0.6123 0.88577 0.27249 0.0
H162 H 0.89767 0.84141 0.57306 0.0
H163 H 0.53286 0.90911 0.52174 0.0
H164 H 0.73315 0.9533 0.45533 0.0
C165 C 0.13409 0.13959 0.83371 0.0
C166 C 0.19508 0.13509 0.80256 0.0
N167 N 0.25385 0.15343 0.82006 0.0
N168 N 0.15474 0.16027 0.871 0.0
C169 C 0.22811 0.16852 0.86154 0.0
H170 H 0.07875 0.12774 0.83034 0.0
Co171 Co 0.09142 0.16955 0.92409 0.0
C172 C 0.18182 0.21072 0.99472 0.0
O173 O 0.14533 0.19642 1.03161 0.0
N174 N 1.02424 0.17861 0.97788 0.0
C175 C 0.94396 0.17331 0.04128 0.0
C176 C 0.99875 0.15725 1.01349 0.0
C177 C 0.98435 0.20765 0.98562 0.0
N178 N 0.93428 0.20489 1.02323 0.0
O179 O 0.04403 0.20451 0.88521 0.0
H180 H 1.01634 0.13118 1.01855 0.0
H181 H 0.98998 0.23023 0.96303 0.0
O182 O 0.16604 0.20212 0.95037 0.0
C183 C 0.97696 0.19651 0.8713 0.0
O184 O 0.94573 0.16874 0.88927 0.0
N185 N 0.13419 0.13234 0.957 0.0
C186 C 0.17894 0.0686 0.99127 0.0
C187 C 0.22304 0.09749 1.00158 0.0
C188 C 0.20077 0.12922 0.98275 0.0
C189 C 0.0925 0.10422 0.94542 0.0
C190 C 0.11359 0.07216 0.96227 0.0
H191 H 0.2381 0.15063 0.98813 0.0
H192 H 0.04174 0.10697 0.92316 0.0
H193 H 0.26321 0.18393 0.88555 0.0
H194 H 0.19668 0.11917 0.77001 0.0
H195 H 0.91059 0.16191 0.07053 0.0
H196 H 0.2748 0.0954 1.02309 0.0
H197 H 0.07807 0.05042 0.95359 0.0
C198 C 0.67465 0.13944 0.7289 0.0
C199 C 0.61362 0.13483 0.76001 0.0
N200 N 0.55523 0.1536 0.7429 0.0
N201 N 0.65436 0.16059 0.692 0.0
C202 C 0.58117 0.16903 0.70168 0.0
H203 H 0.72972 0.1273 0.73197 0.0
Co204 Co 0.71765 0.17005 0.63891 0.0
C205 C 0.62698 0.21116 0.56829 0.0
O206 O 0.66317 0.19674 0.53143 0.0
N207 N 0.78479 0.1793 0.58509 0.0
C208 C 0.86466 0.17425 0.52145 0.0
C209 C 0.80987 0.15812 0.54922 0.0
C210 C 0.82491 0.20832 0.57751 0.0
N211 N 0.87475 0.2057 0.53977 0.0
O212 O 0.76498 0.20493 0.67785 0.0
H213 H 0.79193 0.13213 0.5439 0.0
H214 H 0.81962 0.23078 0.6003 0.0
O215 O 0.64298 0.20264 0.61268 0.0
C216 C 0.83197 0.19683 0.69181 0.0
O217 O 0.86308 0.16907 0.67381 0.0
N218 N 0.67494 0.1329 0.606 0.0
C219 C 0.62994 0.06913 0.57222 0.0
C220 C 0.58553 0.09797 0.56212 0.0
C221 C 0.60794 0.12971 0.58072 0.0
C222 C 0.71701 0.10483 0.61731 0.0
C223 C 0.6958 0.07276 0.6007 0.0
H224 H 0.57036 0.15108 0.57563 0.0
H225 H 0.76809 0.10761 0.63924 0.0
H226 H 0.5463 0.18479 0.67796 0.0
H227 H 0.61167 0.11851 0.79219 0.0
H228 H 0.89773 0.16299 0.492 0.0
H229 H 0.53339 0.09582 0.54101 0.0
H230 H 0.73152 0.05104 0.60921 0.0
C231 C 0.13445 0.86418 0.23156 0.0
C232 C 0.19555 0.86872 0.26262 0.0
N233 N 0.2543 0.85043 0.24501 0.0
N234 N 0.15503 0.84352 0.19422 0.0
C235 C 0.22846 0.83532 0.20357 0.0
H236 H 0.0791 0.87601 0.235 0.0
Co237 Co 0.0917 0.83425 0.14114 0.0
C238 C 0.18228 0.79324 0.07043 0.0
O239 O 0.14588 0.80761 0.03356 0.0
N240 N 1.02456 0.82518 0.08732 0.0
C241 C 0.94426 0.83048 1.02395 0.0
C242 C 0.99901 0.84655 0.05175 0.0
C243 C 0.98476 0.79612 0.07953 0.0
N244 N 0.93467 0.79888 0.04194 0.0
O245 O 0.0444 0.79922 0.17996 0.0
H246 H 1.01652 0.87264 0.04673 0.0
H247 H 0.99047 0.77353 0.10208 0.0
O248 O 0.16638 0.80176 0.1148 0.0
C249 C 0.97731 0.80717 0.19385 0.0
O250 O 0.94602 0.83494 0.1759 0.0
N251 N 0.13438 0.87152 0.10831 0.0
C252 C 0.17903 0.93534 0.07426 0.0
C253 C 0.22329 0.9065 0.06398 0.0
C254 C 0.20106 0.87473 0.08269 0.0
C255 C 0.09254 0.89958 0.11989 0.0
C256 C 0.11357 0.93168 0.10315 0.0
H257 H 0.23851 0.85336 0.07735 0.0
H258 H 0.04171 0.89677 0.14207 0.0
H259 H 0.26353 0.81997 0.17949 0.0
H260 H 0.19723 0.88466 0.29515 0.0
H261 H 0.91084 0.84188 0.99472 0.0
H262 H 0.27515 0.90866 0.04257 0.0
H263 H 0.07791 0.95338 0.11181 0.0
C264 C 0.44728 0.29001 0.32503 0.0
C265 C 0.36748 0.29223 0.32745 0.0
H266 H 0.54577 0.2914 0.27842 0.0
C267 C 0.32486 0.28945 0.28391 0.0
H268 H 0.48119 0.29229 0.35825 0.0
C269 C 0.36183 0.28968 0.23822 0.0
C270 C 0.44164 0.29182 0.23575 0.0
H271 H 0.26334 0.29153 0.28481 0.0
H272 H 0.32792 0.29174 0.20496 0.0
C273 C 0.48424 0.28936 0.27935 0.0
C274 C 0.48442 0.71506 0.7859 0.0
C275 C 0.4418 0.71247 0.82948 0.0
H276 H 0.48141 0.71237 0.70699 0.0
C277 C 0.362 0.71461 0.82701 0.0
H278 H 0.54595 0.71303 0.78684 0.0
C279 C 0.32504 0.71497 0.78132 0.0
C280 C 0.36768 0.71232 0.73776 0.0
H281 H 0.32808 0.71245 0.86026 0.0
H282 H 0.26352 0.71288 0.78041 0.0
C283 C 0.44747 0.71456 0.74021 0.0
C284 C 0.94107 0.68491 0.77273 0.0
C285 C 0.97905 0.65401 0.7642 0.0
H286 H 0.83903 0.709 0.79956 0.0
C287 C 0.94201 0.62326 0.77514 0.0
H288 H 0.96898 0.70887 0.76466 0.0
C289 C 0.86778 0.62332 0.79366 0.0
C290 C 0.83013 0.65415 0.80294 0.0
H291 H 0.97033 0.59919 0.76864 0.0
H292 H 0.8399 0.59931 0.80141 0.0
C293 C 0.86746 0.68499 0.79278 0.0
C294 C 0.86788 0.38089 0.27079 0.0
C295 C 0.83016 0.35001 0.26191 0.0
H296 H 0.97042 0.40515 0.29558 0.0
C297 C 0.86736 0.31923 0.27254 0.0
H298 H 0.84008 0.40486 0.26269 0.0
C299 C 0.94093 0.31941 0.29267 0.0
C300 C 0.97898 0.35035 0.30082 0.0
H301 H 0.83886 0.29519 0.26609 0.0
H302 H 0.96873 0.2955 0.30111 0.0
C303 C 0.94207 0.38105 0.28939 0.0
C304 C 0.94755 0.78966 0.327 0.0
C305 C 0.86774 0.79183 0.32942 0.0
H306 H 0.04607 0.7913 0.28043 0.0
C307 C 0.82516 0.78918 0.28584 0.0
H308 H 0.98143 0.79185 0.36025 0.0
C309 C 0.86216 0.78961 0.24017 0.0
C310 C 0.94196 0.79182 0.23774 0.0
H311 H 0.76363 0.79123 0.28675 0.0
H312 H 0.82826 0.79177 0.20691 0.0
C313 C 0.98454 0.78921 0.28133 0.0
C314 C 0.82479 0.21457 0.77931 0.0
C315 C 0.86739 0.21203 0.73572 0.0
H316 H 0.82785 0.21182 0.85823 0.0
C317 C 0.9472 0.21418 0.73817 0.0
H318 H 0.76326 0.21252 0.77838 0.0
C319 C 0.98418 0.21454 0.78384 0.0
C320 C 0.94157 0.21186 0.82742 0.0
H321 H 0.98109 0.21206 0.70491 0.0
H322 H 0.0457 0.21247 0.78475 0.0
C323 C 0.86177 0.21405 0.82498 0.0
C324 C 0.36679 0.12303 0.78957 0.0
C325 C 0.33014 0.15378 0.80094 0.0
H326 H 0.46851 0.09905 0.76285 0.0
C327 C 0.36844 0.18466 0.79268 0.0
H328 H 0.33824 0.09897 0.79585 0.0
C329 C 0.44198 0.18473 0.77249 0.0
C330 C 0.4789 0.15388 0.76191 0.0
H331 H 0.34085 0.20862 0.80106 0.0
H332 H 0.47066 0.20872 0.76594 0.0
C333 C 0.44094 0.12307 0.77092 0.0
C334 C 0.36741 0.88095 0.275 0.0
C335 C 0.33069 0.85016 0.26396 0.0
H336 H 0.46927 0.90503 0.30134 0.0
C337 C 0.36901 0.81931 0.27236 0.0
H338 H 0.33883 0.90498 0.26861 0.0
C339 C 0.44264 0.81932 0.29239 0.0
C340 C 0.47964 0.8502 0.30266 0.0
H341 H 0.34135 0.79532 0.26423 0.0
H342 H 0.47132 0.79535 0.29908 0.0
C343 C 0.44166 0.88099 0.29349 0.0
C344 C 0.11027 0.50622 0.58388 0.0
C345 C 0.11276 0.53511 0.55325 0.0
H346 H 0.11214 0.45169 0.58771 0.0
C347 C 0.10936 0.53094 0.50194 0.0
H348 H 0.11284 0.50892 0.6236 0.0
C349 C 0.11 0.4983 0.48149 0.0
C350 C 0.11268 0.46942 0.5121 0.0
H351 H 0.1118 0.55284 0.47765 0.0
H352 H 0.11237 0.4956 0.44175 0.0
C353 C 0.10954 0.47359 0.56343 0.0
C354 C 0.70025 0.50636 0.98107 0.0
C355 C 0.69798 0.53492 1.01222 0.0
H356 H 0.6981 0.45187 0.9763 0.0
C357 C 0.70173 0.53024 0.06344 0.0
H358 H 0.69736 0.50947 0.94141 0.0
C359 C 0.70107 0.4974 0.08331 0.0
C360 C 0.69807 0.46884 0.05219 0.0
H361 H 0.69942 0.5519 0.0881 0.0
H362 H 0.69879 0.49429 0.12299 0.0
C363 C 0.70099 0.47352 1.00094 0.0
C364 C 0.6091 0.03081 0.50037 0.0
C365 C 0.61126 0.03537 0.55164 0.0
H366 H 0.61346 0.99498 0.44085 0.0
C367 C 0.60767 0.00676 0.58273 0.0
H368 H 0.61247 0.05251 0.47577 0.0
C369 C 0.60713 0.97396 0.56284 0.0
C370 C 0.61163 0.96938 0.51164 0.0
H371 H 0.60939 0.00979 0.62242 0.0
H372 H 0.60895 0.95225 0.58751 0.0
C373 C 0.60997 0.998 0.48049 0.0
C374 C 0.1997 0.9979 0.084 0.0
C375 C 0.19737 0.9691 0.05334 0.0
H376 H 0.19761 0.05243 0.08791 0.0
C377 C 0.20093 0.97339 1.00203 0.0
H378 H 0.19701 0.99511 0.12372 0.0
C379 C 0.20022 0.00608 0.98163 0.0
C380 C 0.19734 0.03488 1.01228 0.0
H381 H 0.1986 0.95155 0.97772 0.0
H382 H 0.19793 0.00887 0.9419 0.0
C383 C 0.20038 0.03059 0.0636 0.0
C384 C 0.47083 0.25682 0.49824 0.0
C385 C 0.43561 0.27607 0.53539 0.0
H386 H 0.55901 0.22181 0.47934 0.0
C387 C 0.46349 0.27372 0.5839 0.0
H388 H 0.45162 0.25854 0.46038 0.0
C389 C 0.52539 0.2525 0.59499 0.0
C390 C 0.56128 0.23367 0.55754 0.0
H391 H 0.43727 0.28826 0.61323 0.0
H392 H 0.54555 0.25112 0.63269 0.0
C393 C 0.53306 0.23605 0.50911 0.0
C394 C 0.33844 0.74771 1.00038 0.0
C395 C 0.37406 0.72862 0.0376 0.0
H396 H 0.24979 0.7825 0.98139 0.0
C397 C 0.34644 0.73103 0.08617 0.0
H398 H 0.35743 0.74594 0.96249 0.0
C399 C 0.2844 0.75215 0.09721 0.0
C400 C 0.2481 0.77082 0.0597 0.0
H401 H 0.37298 0.7166 0.11555 0.0
H402 H 0.26445 0.75358 0.13495 0.0
C403 C 0.27606 0.76839 1.01122 0.0
C404 C 0.4704 0.74815 0.56677 0.0
C405 C 0.43555 0.72866 0.52974 0.0
H406 H 0.55822 0.78339 0.58553 0.0
C407 C 0.4637 0.73084 0.48126 0.0
H408 H 0.451 0.74658 0.6046 0.0
C409 C 0.52551 0.75209 0.47013 0.0
C410 C 0.56106 0.77115 0.50747 0.0
H411 H 0.43776 0.71612 0.45202 0.0
H412 H 0.5459 0.75332 0.43247 0.0
C413 C 0.53255 0.76898 0.55584 0.0
C414 C 0.2841 0.25176 0.9679 0.0
C415 C 0.24765 0.23316 1.00544 0.0
H416 H 0.37282 0.28724 0.94954 0.0
C417 C 0.27548 0.23567 0.05394 0.0
H418 H 0.26425 0.25027 0.93014 0.0
C419 C 0.3379 0.25634 0.06478 0.0
C420 C 0.37367 0.27535 1.02753 0.0
H421 H 0.24911 0.22162 0.08379 0.0
H422 H 0.3568 0.25817 0.10269 0.0
C423 C 0.34617 0.27287 0.97894 0.0
C424 C 1.03393 0.73597 0.51117 0.0
C425 C 0.06166 0.73336 0.55969 0.0
H426 H 0.95266 0.75853 0.46238 0.0
C427 C 1.02508 0.75184 0.59722 0.0
H428 H 0.06041 0.72201 0.48132 0.0
C429 C 0.96297 0.77294 0.58615 0.0
C430 C 0.93557 0.77552 0.53754 0.0
H431 H 0.04485 0.75028 0.63499 0.0
H432 H 0.93622 0.78721 0.61555 0.0
C433 C 0.97148 0.75662 0.5003 0.0
C434 C 0.77607 0.26812 1.00916 0.0
C435 C 0.74793 0.27046 0.05761 0.0
H436 H 0.85744 0.24567 0.96043 0.0
C437 C 0.78392 0.25162 0.09507 0.0
H438 H 0.75005 0.28236 0.97938 0.0
C439 C 0.84582 0.23042 0.084 0.0
C440 C 0.87363 0.22811 0.03546 0.0
H441 H 0.76383 0.25297 0.13279 0.0
H442 H 0.87212 0.21587 0.11334 0.0
C443 C 0.83831 0.24736 0.9983 0.0
C444 C 1.03382 0.26847 0.55402 0.0
C445 C 0.06157 0.27111 0.5055 0.0
H446 H 0.95256 0.24585 0.60278 0.0
C447 C 1.02505 0.25262 0.46795 0.0
H448 H 0.06027 0.28244 0.58388 0.0
C449 C 0.96298 0.23149 0.479 0.0
C450 C 0.93556 0.22888 0.5276 0.0
H451 H 0.04483 0.25421 0.43018 0.0
H452 H 0.93626 0.21721 0.44958 0.0
C453 C 0.97141 0.24778 0.56486 0.0
C454 C 0.77663 0.73552 0.05592 0.0
C455 C 0.74837 0.73327 1.0075 0.0
H456 H 0.85808 0.75792 0.10466 0.0
C457 C 0.78425 0.75219 0.97007 0.0
H458 H 0.7507 0.72122 0.08568 0.0
C459 C 0.84615 0.77339 0.98116 0.0
C460 C 0.87406 0.77563 1.02968 0.0
H461 H 0.76406 0.7509 0.93238 0.0
H462 H 0.87235 0.78801 0.95185 0.0
C463 C 0.83887 0.75628 0.06681 0.0
loop_
_geom_bond_atom_site_label_1
_geom_bond_atom_site_label_2
_geom_bond_distance
_geom_bond_site_symmetry_2
_ccdc_geom_bond_type
C0 C1 1.351 . S
C0 N3 1.368 . S
C0 H5 0.931 . S
C1 C0 1.351 . S
C1 N2 1.366 1_455 S
C1 H29 0.930 . S
N2 C1 1.366 1_655 S
N2 C4 1.336 1_655 S
N3 C0 1.368 . S
N3 C4 1.321 . S
N3 Co6 2.135 . S
C4 N2 1.336 1_455 S
C4 N3 1.321 . S
C4 H28 0.930 . S
H5 C0 0.931 . S
Co6 N3 2.135 . S
Co6 N9 2.121 . S
Co6 O14 2.055 . S
Co6 O17 2.039 . S
Co6 N20 2.140 . S
C7 O8 1.227 . S
C7 O17 1.265 . S
O8 C7 1.227 . S
N9 Co6 2.121 . S
N9 C11 1.375 . S
N9 C12 1.313 . S
C10 C11 1.338 . S
C10 N13 1.377 . S
C10 H30 0.930 . S
C11 N9 1.375 . S
C11 C10 1.338 . S
C11 H15 0.931 . S
C12 N9 1.313 . S
C12 N13 1.344 . S
C12 H16 0.930 . S
N13 C10 1.377 . S
N13 C12 1.344 . S
O14 Co6 2.055 . S
O14 C18 1.253 . S
H15 C11 0.931 . S
H16 C12 0.930 . S
O17 Co6 2.039 . S
O17 C7 1.265 . S
C18 O14 1.253 . S
C18 O19 1.227 . S
O19 C18 1.227 . S
N20 Co6 2.140 . S
N20 C23 1.346 . S
N20 C24 1.345 . S
C21 C22 1.387 . S
C21 C25 1.391 . S
C22 C21 1.387 . S
C22 C23 1.369 . S
C22 H31 0.929 . S
C23 N20 1.346 . S
C23 C22 1.369 . S
C23 H26 0.928 . S
C24 N20 1.345 . S
C24 C25 1.371 . S
C24 H27 0.931 . S
C25 C21 1.391 . S
C25 C24 1.371 . S
C25 H32 0.930 . S
H26 C23 0.928 . S
H27 C24 0.931 . S
H28 C4 0.930 . S
H29 C1 0.930 . S
H30 C10 0.930 . S
H31 C22 0.929 . S
H32 C25 0.930 . S
C33 C34 1.351 . S
C33 N36 1.368 . S
C33 H38 0.931 . S
C34 C33 1.351 . S
C34 N35 1.373 . S
C34 H62 0.930 . S
N35 C34 1.373 . S
N35 C37 1.340 . S
N36 C33 1.368 . S
N36 C37 1.321 . S
N36 Co39 2.135 . S
C37 N35 1.340 . S
C37 N36 1.321 . S
C37 H61 0.930 . S
H38 C33 0.931 . S
Co39 N36 2.135 . S
Co39 N42 2.121 . S
Co39 O47 2.055 . S
Co39 O50 2.039 . S
Co39 N53 2.140 . S
C40 O41 1.227 . S
C40 O50 1.265 . S
O41 C40 1.227 . S
N42 Co39 2.121 . S
N42 C44 1.375 . S
N42 C45 1.313 . S
C43 C44 1.338 1_554 S
C43 N46 1.377 1_554 S
C43 H63 0.930 . S
C44 N42 1.375 . S
C44 C43 1.338 1_556 S
C44 H48 0.931 . S
C45 N42 1.313 . S
C45 N46 1.344 . S
C45 H49 0.930 . S
N46 C43 1.377 1_556 S
N46 C45 1.344 . S
O47 Co39 2.055 . S
O47 C51 1.253 . S
H48 C44 0.931 . S
H49 C45 0.930 . S
O50 Co39 2.039 . S
O50 C40 1.265 . S
C51 O47 1.253 . S
C51 O52 1.227 . S
O52 C51 1.227 . S
N53 Co39 2.140 . S
N53 C56 1.346 . S
N53 C57 1.345 . S
C54 C55 1.387 . S
C54 C58 1.391 . S
C55 C54 1.387 . S
C55 C56 1.369 . S
C55 H64 0.929 . S
C56 N53 1.346 . S
C56 C55 1.369 . S
C56 H59 0.928 . S
C57 N53 1.345 . S
C57 C58 1.371 . S
C57 H60 0.931 . S
C58 C54 1.391 . S
C58 C57 1.371 . S
C58 H65 0.930 . S
H59 C56 0.928 . S
H60 C57 0.931 . S
H61 C37 0.930 . S
H62 C34 0.930 . S
H63 C43 0.930 . S
H64 C55 0.929 . S
H65 C58 0.930 . S
C66 C67 1.351 . S
C66 N69 1.368 . S
C66 H71 0.931 . S
C67 C66 1.351 . S
C67 N68 1.366 1_455 S
C67 H95 0.930 . S
N68 C67 1.366 1_655 S
N68 C70 1.336 1_655 S
N69 C66 1.368 . S
N69 C70 1.321 . S
N69 Co72 2.135 . S
C70 N68 1.336 1_455 S
C70 N69 1.321 . S
C70 H94 0.930 . S
H71 C66 0.931 . S
Co72 N69 2.135 . S
Co72 N75 2.121 . S
Co72 O80 2.055 . S
Co72 O83 2.039 . S
Co72 N86 2.140 . S
C73 O74 1.227 . S
C73 O83 1.265 . S
O74 C73 1.227 . S
N75 Co72 2.121 . S
N75 C77 1.375 . S
N75 C78 1.313 . S
C76 C77 1.338 . S
C76 N79 1.377 . S
C76 H96 0.930 . S
C77 N75 1.375 . S
C77 C76 1.338 . S
C77 H81 0.931 . S
C78 N75 1.313 . S
C78 N79 1.344 . S
C78 H82 0.930 . S
N79 C76 1.377 . S
N79 C78 1.344 . S
O80 Co72 2.055 . S
O80 C84 1.253 . S
H81 C77 0.931 . S
H82 C78 0.930 . S
O83 Co72 2.039 . S
O83 C73 1.265 . S
C84 O80 1.253 . S
C84 O85 1.227 . S
O85 C84 1.227 . S
N86 Co72 2.140 . S
N86 C89 1.346 . S
N86 C90 1.345 . S
C87 C88 1.387 . S
C87 C91 1.391 . S
C88 C87 1.387 . S
C88 C89 1.369 . S
C88 H97 0.929 . S
C89 N86 1.346 . S
C89 C88 1.369 . S
C89 H92 0.928 . S
C90 N86 1.345 . S
C90 C91 1.371 . S
C90 H93 0.931 . S
C91 C87 1.391 . S
C91 C90 1.371 . S
C91 H98 0.930 . S
H92 C89 0.928 . S
H93 C90 0.931 . S
H94 C70 0.930 . S
H95 C67 0.930 . S
H96 C76 0.930 . S
H97 C88 0.929 . S
H98 C91 0.930 . S
C99 C100 1.351 . S
C99 N102 1.368 . S
C99 H104 0.931 . S
C100 C99 1.351 . S
C100 N101 1.373 . S
C100 H128 0.930 . S
N101 C100 1.373 . S
N101 C103 1.340 . S
N102 C99 1.368 . S
N102 C103 1.321 . S
N102 Co105 2.135 . S
C103 N101 1.340 . S
C103 N102 1.321 . S
C103 H127 0.930 . S
H104 C99 0.931 . S
Co105 N102 2.135 . S
Co105 N108 2.121 . S
Co105 O113 2.055 . S
Co105 O116 2.039 . S
Co105 N119 2.140 . S
C106 O107 1.227 . S
C106 O116 1.265 . S
O107 C106 1.227 . S
N108 Co105 2.121 . S
N108 C110 1.375 . S
N108 C111 1.313 . S
C109 C110 1.338 1_556 S
C109 N112 1.377 1_556 S
C109 H129 0.930 . S
C110 N108 1.375 . S
C110 C109 1.338 1_554 S
C110 H114 0.931 . S
C111 N108 1.313 . S
C111 N112 1.344 . S
C111 H115 0.930 . S
N112 C109 1.377 1_554 S
N112 C111 1.344 . S
O113 Co105 2.055 . S
O113 C117 1.253 . S
H114 C110 0.931 . S
H115 C111 0.930 . S
O116 Co105 2.039 . S
O116 C106 1.265 . S
C117 O113 1.253 . S
C117 O118 1.227 . S
O118 C117 1.227 . S
N119 Co105 2.140 . S
N119 C122 1.346 . S
N119 C123 1.345 . S
C120 C121 1.387 . S
C120 C124 1.391 . S
C121 C120 1.387 . S
C121 C122 1.369 . S
C121 H130 0.929 . S
C122 N119 1.346 . S
C122 C121 1.369 . S
C122 H125 0.928 . S
C123 N119 1.345 . S
C123 C124 1.371 . S
C123 H126 0.931 . S
C124 C120 1.391 . S
C124 C123 1.371 . S
C124 H131 0.930 . S
H125 C122 0.928 . S
H126 C123 0.931 . S
H127 C103 0.930 . S
H128 C100 0.930 . S
H129 C109 0.930 . S
H130 C121 0.929 . S
H131 C124 0.930 . S
C132 C133 1.351 . S
C132 N135 1.368 . S
C132 H137 0.931 . S
C133 C132 1.351 . S
C133 N134 1.373 . S
C133 H161 0.930 . S
N134 C133 1.373 . S
N134 C136 1.340 . S
N135 C132 1.368 . S
N135 C136 1.321 . S
N135 Co138 2.135 . S
C136 N134 1.340 . S
C136 N135 1.321 . S
C136 H160 0.930 . S
H137 C132 0.931 . S
Co138 N135 2.135 . S
Co138 N141 2.121 . S
Co138 O146 2.055 . S
Co138 O149 2.039 . S
Co138 N152 2.140 . S
C139 O140 1.227 . S
C139 O149 1.265 . S
O140 C139 1.227 . S
N141 Co138 2.121 . S
N141 C143 1.375 . S
N141 C144 1.313 . S
C142 C143 1.338 . S
C142 N145 1.377 . S
C142 H162 0.930 . S
C143 N141 1.375 . S
C143 C142 1.338 . S
C143 H147 0.931 . S
C144 N141 1.313 . S
C144 N145 1.344 . S
C144 H148 0.930 . S
N145 C142 1.377 . S
N145 C144 1.344 . S
O146 Co138 2.055 . S
O146 C150 1.253 . S
H147 C143 0.931 . S
H148 C144 0.930 . S
O149 Co138 2.039 . S
O149 C139 1.265 . S
C150 O146 1.253 . S
C150 O151 1.227 . S
O151 C150 1.227 . S
N152 Co138 2.140 . S
N152 C155 1.346 . S
N152 C156 1.345 . S
C153 C154 1.387 . S
C153 C157 1.391 . S
C154 C153 1.387 . S
C154 C155 1.369 . S
C154 H163 0.929 . S
C155 N152 1.346 . S
C155 C154 1.369 . S
C155 H158 0.928 . S
C156 N152 1.345 . S
C156 C157 1.371 . S
C156 H159 0.931 . S
C157 C153 1.391 . S
C157 C156 1.371 . S
C157 H164 0.930 . S
H158 C155 0.928 . S
H159 C156 0.931 . S
H160 C136 0.930 . S
H161 C133 0.930 . S
H162 C142 0.930 . S
H163 C154 0.929 . S
H164 C157 0.930 . S
C165 C166 1.351 . S
C165 N168 1.368 . S
C165 H170 0.931 . S
C166 C165 1.351 . S
C166 N167 1.373 . S
C166 H194 0.930 . S
N167 C166 1.373 . S
N167 C169 1.340 . S
N168 C165 1.368 . S
N168 C169 1.321 . S
N168 Co171 2.135 . S
C169 N167 1.340 . S
C169 N168 1.321 . S
C169 H193 0.930 . S
H170 C165 0.931 . S
Co171 N168 2.135 . S
Co171 N174 2.121 1_455 S
Co171 O179 2.055 . S
Co171 O182 2.039 . S
Co171 N185 2.140 . S
C172 O173 1.227 . S
C172 O182 1.265 . S
O173 C172 1.227 . S
N174 Co171 2.121 1_655 S
N174 C176 1.375 1_655 S
N174 C177 1.313 . S
C175 C176 1.338 1_654 S
C175 N178 1.377 1_554 S
C175 H195 0.930 . S
C176 N174 1.375 1_455 S
C176 C175 1.338 1_456 S
C176 H180 0.931 . S
C177 N174 1.313 . S
C177 N178 1.344 . S
C177 H181 0.930 . S
N178 C175 1.377 1_556 S
N178 C177 1.344 . S
O179 Co171 2.055 . S
O179 C183 1.253 1_455 S
H180 C176 0.931 . S
H181 C177 0.930 . S
O182 Co171 2.039 . S
O182 C172 1.265 . S
C183 O179 1.253 1_655 S
C183 O184 1.227 . S
O184 C183 1.227 . S
N185 Co171 2.140 . S
N185 C188 1.346 . S
N185 C189 1.345 . S
C186 C187 1.387 . S
C186 C190 1.391 . S
C187 C186 1.387 . S
C187 C188 1.369 . S
C187 H196 0.929 . S
C188 N185 1.346 . S
C188 C187 1.369 . S
C188 H191 0.928 . S
C189 N185 1.345 . S
C189 C190 1.371 . S
C189 H192 0.931 1_455 S
C190 C186 1.391 . S
C190 C189 1.371 . S
C190 H197 0.930 1_455 S
H191 C188 0.928 . S
H192 C189 0.931 1_655 S
H193 C169 0.930 . S
H194 C166 0.930 . S
H195 C175 0.930 . S
H196 C187 0.929 . S
H197 C190 0.930 1_655 S
C198 C199 1.351 . S
C198 N201 1.368 . S
C198 H203 0.931 . S
C199 C198 1.351 . S
C199 N200 1.373 . S
C199 H227 0.930 . S
N200 C199 1.373 . S
N200 C202 1.340 . S
N201 C198 1.368 . S
N201 C202 1.321 . S
N201 Co204 2.135 . S
C202 N200 1.340 . S
C202 N201 1.321 . S
C202 H226 0.930 . S
H203 C198 0.931 . S
Co204 N201 2.135 . S
Co204 N207 2.121 . S
Co204 O212 2.055 . S
Co204 O215 2.039 . S
Co204 N218 2.140 . S
C205 O206 1.227 . S
C205 O215 1.265 . S
O206 C205 1.227 . S
N207 Co204 2.121 . S
N207 C209 1.375 . S
N207 C210 1.313 . S
C208 C209 1.338 . S
C208 N211 1.377 . S
C208 H228 0.930 . S
C209 N207 1.375 . S
C209 C208 1.338 . S
C209 H213 0.931 . S
C210 N207 1.313 . S
C210 N211 1.344 . S
C210 H214 0.930 . S
N211 C208 1.377 . S
N211 C210 1.344 . S
O212 Co204 2.055 . S
O212 C216 1.253 . S
H213 C209 0.931 . S
H214 C210 0.930 . S
O215 Co204 2.039 . S
O215 C205 1.265 . S
C216 O212 1.253 . S
C216 O217 1.227 . S
O217 C216 1.227 . S
N218 Co204 2.140 . S
N218 C221 1.346 . S
N218 C222 1.345 . S
C219 C220 1.387 . S
C219 C223 1.391 . S
C220 C219 1.387 . S
C220 C221 1.369 . S
C220 H229 0.929 . S
C221 N218 1.346 . S
C221 C220 1.369 . S
C221 H224 0.928 . S
C222 N218 1.345 . S
C222 C223 1.371 . S
C222 H225 0.931 . S
C223 C219 1.391 . S
C223 C222 1.371 . S
C223 H230 0.930 . S
H224 C221 0.928 . S
H225 C222 0.931 . S
H226 C202 0.930 . S
H227 C199 0.930 . S
H228 C208 0.930 . S
H229 C220 0.929 . S
H230 C223 0.930 . S
C231 C232 1.351 . S
C231 N234 1.368 . S
C231 H236 0.931 . S
C232 C231 1.351 . S
C232 N233 1.373 . S
C232 H260 0.930 . S
N233 C232 1.373 . S
N233 C235 1.340 . S
N234 C231 1.368 . S
N234 C235 1.321 . S
N234 Co237 2.135 . S
C235 N233 1.340 . S
C235 N234 1.321 . S
C235 H259 0.930 . S
H236 C231 0.931 . S
Co237 N234 2.135 . S
Co237 N240 2.121 1_455 S
Co237 O245 2.055 . S
Co237 O248 2.039 . S
Co237 N251 2.140 . S
C238 O239 1.227 . S
C238 O248 1.265 . S
O239 C238 1.227 . S
N240 Co237 2.121 1_655 S
N240 C242 1.375 1_655 S
N240 C243 1.313 . S
C241 C242 1.338 1_656 S
C241 N244 1.377 1_556 S
C241 H261 0.930 . S
C242 N240 1.375 1_455 S
C242 C241 1.338 1_454 S
C242 H246 0.931 . S
C243 N240 1.313 . S
C243 N244 1.344 . S
C243 H247 0.930 . S
N244 C241 1.377 1_554 S
N244 C243 1.344 . S
O245 Co237 2.055 . S
O245 C249 1.253 1_455 S
H246 C242 0.931 . S
H247 C243 0.930 . S
O248 Co237 2.039 . S
O248 C238 1.265 . S
C249 O245 1.253 1_655 S
C249 O250 1.227 . S
O250 C249 1.227 . S
N251 Co237 2.140 . S
N251 C254 1.346 . S
N251 C255 1.345 . S
C252 C253 1.387 . S
C252 C256 1.391 . S
C253 C252 1.387 . S
C253 C254 1.369 . S
C253 H262 0.929 . S
C254 N251 1.346 . S
C254 C253 1.369 . S
C254 H257 0.928 . S
C255 N251 1.345 . S
C255 C256 1.371 . S
C255 H258 0.931 1_455 S
C256 C252 1.391 . S
C256 C255 1.371 . S
C256 H263 0.930 1_455 S
H257 C254 0.928 . S
H258 C255 0.931 1_655 S
H259 C235 0.930 . S
H260 C232 0.930 . S
H261 C241 0.930 . S
H262 C253 0.929 . S
H263 C256 0.930 1_655 S
C264 C265 1.387 . S
C264 H268 0.950 . S
C264 C273 1.390 . S
C265 C264 1.387 . S
C265 C267 1.387 . S
H266 C273 0.950 . S
C267 C265 1.387 . S
C267 C269 1.390 . S
C267 H271 0.950 . S
H268 C264 0.950 . S
C269 C267 1.390 . S
C269 C270 1.387 . S
C269 H272 0.950 . S
C270 C269 1.387 . S
C270 C273 1.387 . S
H271 C267 0.950 . S
H272 C269 0.950 . S
C273 C264 1.390 . S
C273 H266 0.950 . S
C273 C270 1.387 . S
C274 C275 1.387 . S
C274 H278 0.950 . S
C274 C283 1.390 . S
C275 C274 1.387 . S
C275 C277 1.387 . S
H276 C283 0.950 . S
C277 C275 1.387 . S
C277 C279 1.390 . S
C277 H281 0.950 . S
H278 C274 0.950 . S
C279 C277 1.390 . S
C279 C280 1.387 . S
C279 H282 0.950 . S
C280 C279 1.387 . S
C280 C283 1.387 . S
H281 C277 0.950 . S
H282 C279 0.950 . S
C283 C274 1.390 . S
C283 H276 0.950 . S
C283 C280 1.387 . S
C284 C285 1.387 . S
C284 H288 0.950 . S
C284 C293 1.390 . S
C285 C284 1.387 . S
C285 C287 1.387 . S
H286 C293 0.950 . S
C287 C285 1.387 . S
C287 C289 1.390 . S
C287 H291 0.950 . S
H288 C284 0.950 . S
C289 C287 1.390 . S
C289 C290 1.387 . S
C289 H292 0.950 . S
C290 C289 1.387 . S
C290 C293 1.387 . S
H291 C287 0.950 . S
H292 C289 0.950 . S
C293 C284 1.390 . S
C293 H286 0.950 . S
C293 C290 1.387 . S
C294 C295 1.387 . S
C294 H298 0.950 . S
C294 C303 1.390 . S
C295 C294 1.387 . S
C295 C297 1.387 . S
H296 C303 0.950 . S
C297 C295 1.387 . S
C297 C299 1.390 . S
C297 H301 0.950 . S
H298 C294 0.950 . S
C299 C297 1.390 . S
C299 C300 1.387 . S
C299 H302 0.950 . S
C300 C299 1.387 . S
C300 C303 1.387 . S
H301 C297 0.950 . S
H302 C299 0.950 . S
C303 C294 1.390 . S
C303 H296 0.950 . S
C303 C300 1.387 . S
C304 C305 1.387 . S
C304 H308 0.950 . S
C304 C313 1.390 . S
C305 C304 1.387 . S
C305 C307 1.387 . S
H306 C313 0.950 . S
C307 C305 1.387 . S
C307 C309 1.390 . S
C307 H311 0.950 . S
H308 C304 0.950 . S
C309 C307 1.390 . S
C309 C310 1.387 . S
C309 H312 0.950 . S
C310 C309 1.387 . S
C310 C313 1.387 . S
H311 C307 0.950 . S
H312 C309 0.950 . S
C313 C304 1.390 . S
C313 H306 0.950 . S
C313 C310 1.387 . S
C314 C315 1.387 . S
C314 H318 0.950 . S
C314 C323 1.390 . S
C315 C314 1.387 . S
C315 C317 1.387 . S
H316 C323 0.950 . S
C317 C315 1.387 . S
C317 C319 1.390 . S
C317 H321 0.950 . S
H318 C314 0.950 . S
C319 C317 1.390 . S
C319 C320 1.387 . S
C319 H322 0.950 . S
C320 C319 1.387 . S
C320 C323 1.387 . S
H321 C317 0.950 . S
H322 C319 0.950 . S
C323 C314 1.390 . S
C323 H316 0.950 . S
C323 C320 1.387 . S
C324 C325 1.387 . S
C324 H328 0.950 . S
C324 C333 1.390 . S
C325 C324 1.387 . S
C325 C327 1.387 . S
H326 C333 0.950 . S
C327 C325 1.387 . S
C327 C329 1.390 . S
C327 H331 0.950 . S
H328 C324 0.950 . S
C329 C327 1.390 . S
C329 C330 1.387 . S
C329 H332 0.950 . S
C330 C329 1.387 . S
C330 C333 1.387 . S
H331 C327 0.950 . S
H332 C329 0.950 . S
C333 C324 1.390 . S
C333 H326 0.950 . S
C333 C330 1.387 . S
C334 C335 1.387 . S
C334 H338 0.950 . S
C334 C343 1.390 . S
C335 C334 1.387 . S
C335 C337 1.387 . S
H336 C343 0.950 . S
C337 C335 1.387 . S
C337 C339 1.390 . S
C337 H341 0.950 . S
H338 C334 0.950 . S
C339 C337 1.390 . S
C339 C340 1.387 . S
C339 H342 0.950 . S
C340 C339 1.387 . S
C340 C343 1.387 . S
H341 C337 0.950 . S
H342 C339 0.950 . S
C343 C334 1.390 . S
C343 H336 0.950 . S
C343 C340 1.387 . S
C344 C345 1.387 . S
C344 H348 0.950 . S
C344 C353 1.390 . S
C345 C344 1.387 . S
C345 C347 1.387 . S
H346 C353 0.950 . S
C347 C345 1.387 . S
C347 C349 1.390 . S
C347 H351 0.950 . S
H348 C344 0.950 . S
C349 C347 1.390 . S
C349 C350 1.387 . S
C349 H352 0.950 . S
C350 C349 1.387 . S
C350 C353 1.387 . S
H351 C347 0.950 . S
H352 C349 0.950 . S
C353 C344 1.390 . S
C353 H346 0.950 . S
C353 C350 1.387 . S
C354 C355 1.387 . S
C354 H358 0.950 . S
C354 C363 1.390 1_556 S
C355 C354 1.387 . S
C355 C357 1.387 . S
H356 C363 0.950 . S
C357 C355 1.387 . S
C357 C359 1.390 1_556 S
C357 H361 0.950 . S
H358 C354 0.950 . S
C359 C357 1.390 1_554 S
C359 C360 1.387 . S
C359 H362 0.950 . S
C360 C359 1.387 . S
C360 C363 1.387 . S
H361 C357 0.950 . S
H362 C359 0.950 . S
C363 C354 1.390 1_554 S
C363 H356 0.950 . S
C363 C360 1.387 . S
C364 C365 1.387 . S
C364 H368 0.950 . S
C364 C373 1.390 1_545 S
C365 C364 1.387 . S
C365 C367 1.387 . S
H366 C373 0.950 . S
C367 C365 1.387 . S
C367 C369 1.390 1_545 S
C367 H371 0.950 . S
H368 C364 0.950 . S
C369 C367 1.390 1_565 S
C369 C370 1.387 . S
C369 H372 0.950 . S
C370 C369 1.387 . S
C370 C373 1.387 . S
H371 C367 0.950 . S
H372 C369 0.950 . S
C373 C364 1.390 1_565 S
C373 H366 0.950 . S
C373 C370 1.387 . S
C374 C375 1.387 . S
C374 H378 0.950 1_455 S
C374 C383 1.390 1_564 S
C375 C374 1.387 . S
C375 C377 1.387 . S
H376 C383 0.950 1_655 S
C377 C375 1.387 . S
C377 C379 1.390 1_564 S
C377 H381 0.950 . S
H378 C374 0.950 1_655 S
C379 C377 1.390 1_546 S
C379 C380 1.387 . S
C379 H382 0.950 . S
C380 C379 1.387 . S
C380 C383 1.387 . S
H381 C377 0.950 . S
H382 C379 0.950 . S
C383 C374 1.390 1_546 S
C383 H376 0.950 1_455 S
C383 C380 1.387 . S
C384 C385 1.387 . S
C384 H388 0.950 . S
C384 C393 1.390 . S
C385 C384 1.387 . S
C385 C387 1.387 . S
H386 C393 0.950 . S
C387 C385 1.387 . S
C387 C389 1.390 . S
C387 H391 0.950 . S
H388 C384 0.950 . S
C389 C387 1.390 . S
C389 C390 1.387 . S
C389 H392 0.950 . S
C390 C389 1.387 . S
C390 C393 1.387 . S
H391 C387 0.950 . S
H392 C389 0.950 . S
C393 C384 1.390 . S
C393 H386 0.950 . S
C393 C390 1.387 . S
C394 C395 1.387 . S
C394 H398 0.950 . S
C394 C403 1.390 1_556 S
C395 C394 1.387 . S
C395 C397 1.387 1_556 S
H396 C403 0.950 . S
C397 C395 1.387 1_554 S
C397 C399 1.390 . S
C397 H401 0.950 . S
H398 C394 0.950 . S
C399 C397 1.390 . S
C399 C400 1.387 . S
C399 H402 0.950 . S
C400 C399 1.387 . S
C400 C403 1.387 . S
H401 C397 0.950 . S
H402 C399 0.950 . S
C403 C394 1.390 1_554 S
C403 H396 0.950 . S
C403 C400 1.387 . S
C404 C405 1.387 . S
C404 H408 0.950 . S
C404 C413 1.390 . S
C405 C404 1.387 . S
C405 C407 1.387 . S
H406 C413 0.950 . S
C407 C405 1.387 . S
C407 C409 1.390 . S
C407 H411 0.950 . S
H408 C404 0.950 . S
C409 C407 1.390 . S
C409 C410 1.387 . S
C409 H412 0.950 . S
C410 C409 1.387 . S
C410 C413 1.387 . S
H411 C407 0.950 . S
H412 C409 0.950 . S
C413 C404 1.390 . S
C413 H406 0.950 . S
C413 C410 1.387 . S
C414 C415 1.387 . S
C414 H418 0.950 . S
C414 C423 1.390 . S
C415 C414 1.387 . S
C415 C417 1.387 . S
H416 C423 0.950 . S
C417 C415 1.387 . S
C417 C419 1.390 1_556 S
C417 H421 0.950 . S
H418 C414 0.950 . S
C419 C417 1.390 1_554 S
C419 C420 1.387 . S
C419 H422 0.950 . S
C420 C419 1.387 . S
C420 C423 1.387 1_554 S
H421 C417 0.950 . S
H422 C419 0.950 . S
C423 C414 1.390 . S
C423 H416 0.950 . S
C423 C420 1.387 1_556 S
C424 C425 1.387 . S
C424 H428 0.950 . S
C424 C433 1.390 1_455 S
C425 C424 1.387 . S
C425 C427 1.387 1_455 S
H426 C433 0.950 . S
C427 C425 1.387 1_655 S
C427 C429 1.390 . S
C427 H431 0.950 . S
H428 C424 0.950 . S
C429 C427 1.390 . S
C429 C430 1.387 . S
C429 H432 0.950 . S
C430 C429 1.387 . S
C430 C433 1.387 . S
H431 C427 0.950 . S
H432 C429 0.950 . S
C433 C424 1.390 1_655 S
C433 H426 0.950 . S
C433 C430 1.387 . S
C434 C435 1.387 . S
C434 H438 0.950 . S
C434 C443 1.390 . S
C435 C434 1.387 . S
C435 C437 1.387 . S
H436 C443 0.950 1_556 S
C437 C435 1.387 . S
C437 C439 1.390 . S
C437 H441 0.950 . S
H438 C434 0.950 . S
C439 C437 1.390 . S
C439 C440 1.387 1_554 S
C439 H442 0.955 . S
C440 C439 1.387 1_556 S
C440 C443 1.387 1_556 S
H441 C437 0.950 . S
H442 C439 0.955 . S
C443 C434 1.390 . S
C443 H436 0.950 1_554 S
C443 C440 1.387 1_554 S
C444 C445 1.387 . S
C444 H448 0.950 . S
C444 C453 1.390 1_455 S
C445 C444 1.387 . S
C445 C447 1.387 1_455 S
H446 C453 0.950 . S
C447 C445 1.387 1_655 S
C447 C449 1.390 . S
C447 H451 0.950 . S
H448 C444 0.950 . S
C449 C447 1.390 . S
C449 C450 1.387 . S
C449 H452 0.950 . S
C450 C449 1.387 . S
C450 C453 1.387 . S
H451 C447 0.950 . S
H452 C449 0.950 . S
C453 C444 1.390 1_655 S
C453 H446 0.950 . S
C453 C450 1.387 . S
C454 C455 1.387 1_554 S
C454 H458 0.950 . S
C454 C463 1.390 . S
C455 C454 1.387 1_556 S
C455 C457 1.387 . S
H456 C463 0.950 . S
C457 C455 1.387 . S
C457 C459 1.390 . S
C457 H461 0.950 . S
H458 C454 0.950 . S
C459 C457 1.390 . S
C459 C460 1.387 1_556 S
C459 H462 0.950 . S
C460 C459 1.387 1_554 S
C460 C463 1.387 . S
H461 C457 0.950 . S
H462 C459 0.950 . S
C463 C454 1.390 . S
C463 H456 0.950 . S
C463 C460 1.387 . S
C265 C18 1.413 . S
C270 C117 1.413 . S
C275 C51 1.413 . S
C280 C84 1.413 . S
C285 N68 1.541 . S
C290 N35 1.532 . S
C295 N101 1.535 . S
C300 N2 1.544 . S
C305 C150 1.413 . S
C310 C249 1.413 . S
C315 C216 1.413 . S
C320 C183 1.413 . S
C325 N167 1.535 . S
C330 N200 1.535 . S
C335 N233 1.535 . S
C340 N134 1.535 . S
C345 C87 1.504 . S
C350 C21 1.504 . S
C355 C54 1.504 . S
C360 C120 1.504 . S
C365 C219 1.504 . S
C370 C153 1.504 . S
C375 C252 1.504 . S
C380 C186 1.504 . S
C385 N13 1.463 . S
C390 C205 1.504 . S
C395 N46 1.463 . S
C400 C238 1.504 . S
C405 N79 1.463 . S
C410 C139 1.504 . S
C415 C172 1.503 . S
C420 N112 1.465 . S
C425 C73 1.504 . S
C430 N145 1.463 . S
C435 C106 1.504 . S
C440 N178 1.463 . S
C445 C7 1.504 . S
C450 N211 1.463 . S
C455 C40 1.504 . S
C460 N244 1.463 . S
