# Generated by pormake.
# Topology rob, (6)-cn, num edge types: 1
# Building blocks:
#     Node 0, Type 0, BuildingBlock: NUHQIS_clean_sbu_0, # of connection points: 6
#     Node 1, Type 0, BuildingBlock: NUHQIS_clean_sbu_0, # of connection points: 6
#     Node 2, Type 0, BuildingBlock: NUHQIS_clean_sbu_0, # of connection points: 6
#     Node 3, Type 0, BuildingBlock: NUHQIS_clean_sbu_0, # of connection points: 6
#     Edge 4, Type (0, 0), BuildingBlock: FUNLAD_clean_linker_1, # of connection points: 2
#     Edge 5, Type (0, 0), BuildingBlock: FUNLAD_clean_linker_1, # of connection points: 2
#     Edge 6, Type (0, 0), BuildingBlock: FUNLAD_clean_linker_1, # of connection points: 2
#     Edge 7, Type (0, 0), BuildingBlock: FUNLAD_clean_linker_1, # of connection points: 2
#     Edge 8, Type (0, 0), BuildingBlock: FUNLAD_clean_linker_1, # of connection points: 2
#     Edge 9, Type (0, 0), BuildingBlock: FUNLAD_clean_linker_1, # of connection points: 2
#     Edge 10, Type (0, 0), BuildingBlock: FUNLAD_clean_linker_1, # of connection points: 2
#     Edge 11, Type (0, 0), BuildingBlock: FUNLAD_clean_linker_1, # of connection points: 2
#     Edge 12, Type (0, 0), BuildingBlock: FUNLAD_clean_linker_1, # of connection points: 2
#     Edge 13, Type (0, 0), BuildingBlock: FUNLAD_clean_linker_1, # of connection points: 2
#     Edge 14, Type (0, 0), BuildingBlock: FUNLAD_clean_linker_1, # of connection points: 2
#     Edge 15, Type (0, 0), BuildingBlock: FUNLAD_clean_linker_1, # of connection points: 2
# Relax obj value: 0.031
# Max RMSD: 0.131
# Mean RMSD: 0.131
data_MOF--net-rob--node1-NUHQIS_clean_sbu_0--edge1-FUNLAD_clean_linker_1
_symmetry_space_group_name_H-M    P1
_symmetry_Int_Tables_number       1
_symmetry_cell_setting            triclinic
loop_
_symmetry_equiv_pos_as_xyz
'x, y, z'
_cell_length_a     16.712449
_cell_length_b     26.63094
_cell_length_c     37.256585
_cell_angle_alpha  96.571882
_cell_angle_beta   90.045837
_cell_angle_gamma 89.992324
loop_
_atom_site_label
_atom_site_type_symbol
_atom_site_fract_x
_atom_site_fract_y
_atom_site_fract_z
_atom_type_partial_charge
Tb0 Tb 0.17398 0.27438 0.0532 0.0
Eu1 Eu 0.3263 0.22748 1.00275 0.0
C2 C 0.31557 0.34304 0.03523 0.0
C3 C 0.17321 0.27876 0.9681 0.0
C4 C 0.04868 0.29511 0.13519 0.0
C5 C 0.98309 0.31878 0.19303 0.0
C6 C -0.00539 0.32562 0.15661 0.0
C7 C 0.09055 0.25718 0.15061 0.0
C8 C 0.07893 0.2502 0.18695 0.0
C9 C 0.02545 0.28099 0.20875 0.0
C10 C 0.06522 0.30515 0.0977 0.0
O11 O 0.16851 0.19216 0.04889 0.0
O12 O 0.2212 0.17506 0.99238 0.0
O13 O 0.3434 0.20042 0.05744 0.0
O14 O 0.27266 0.26405 0.09002 0.0
C15 C 0.17537 0.16247 1.0184 0.0
O16 O 0.39215 0.16362 0.97447 0.0
O17 O 0.43546 0.23987 0.97305 0.0
O18 O 0.3623 0.30308 0.0319 0.0
O19 O 0.23734 0.33857 0.03551 0.0
O20 O 0.13008 0.27627 0.99761 0.0
O21 O 0.25034 0.26953 0.96664 0.0
C22 C 0.32425 0.22662 0.08822 0.0
O23 O 0.13115 0.32974 0.09331 0.0
O24 O 0.05665 0.26717 0.0726 0.0
C25 C 0.4573 0.18211 0.92104 0.0
C26 C 0.49055 0.16543 0.84616 0.0
C27 C 0.53501 0.14075 0.87098 0.0
C28 C 0.51884 0.14921 0.90805 0.0
C29 C 0.41091 0.2057 0.89635 0.0
C30 C 0.42728 0.19746 0.85925 0.0
C31 C 0.44356 0.19248 0.96032 0.0
H32 H 0.94304 0.34433 0.20889 0.0
H33 H 0.96257 0.35557 0.14537 0.0
H34 H 0.13337 0.23355 0.13471 0.0
H35 H 0.11292 0.2211 0.19824 0.0
H36 H 0.58357 0.11557 0.86173 0.0
H37 H 0.55508 0.13046 0.92664 0.0
H38 H 0.36243 0.23082 0.90579 0.0
H39 H 0.38985 0.21598 0.84106 0.0
Tb40 Tb 0.67461 0.77907 0.05234 0.0
Eu41 Eu 0.81919 0.72475 1.00094 0.0
C42 C 0.81822 0.84231 1.02871 0.0
C43 C 0.668 0.77736 0.96719 0.0
C44 C 0.5421 0.81183 0.13159 0.0
C45 C 0.57178 0.80092 0.19416 0.0
C46 C 0.59781 0.80639 0.15918 0.0
C47 C 0.46015 0.81063 0.13936 0.0
C48 C 0.43409 0.80461 0.17424 0.0
C49 C 0.48948 0.80043 0.2021 0.0
C50 C 0.56822 0.81839 0.09466 0.0
O51 O 0.6602 0.69775 0.05256 0.0
O52 O 0.71238 0.67302 0.99666 0.0
O53 O 0.83936 0.69976 0.05583 0.0
O54 O 0.77195 0.76488 0.08884 0.0
C55 C 0.66677 0.66448 1.02386 0.0
O56 O 0.86518 0.66067 0.96491 0.0
O57 O 0.93796 0.7274 0.97699 0.0
O58 O 0.86228 0.80127 1.02544 0.0
O59 O 0.74008 0.83992 0.0312 0.0
O60 O 0.62784 0.77652 0.99747 0.0
O61 O 0.74487 0.7675 0.96461 0.0
C62 C 0.82193 0.72646 0.08665 0.0
O63 O 0.6392 0.83768 0.09145 0.0
O64 O 0.55495 0.78043 0.07005 0.0
C65 C 0.94204 0.6867 0.91765 0.0
C66 C 0.96641 0.69094 0.84315 0.0
C67 C 0.91457 0.7252 0.86291 0.0
C68 C 0.90271 0.72324 0.8998 0.0
C69 C -0.00755 0.65162 0.89803 0.0
C70 C 0.00455 0.65357 0.86102 0.0
C71 C 0.92901 0.68476 0.95647 0.0
H72 H 0.61621 0.79629 0.21466 0.0
H73 H 0.66146 0.80633 0.15374 0.0
H74 H 0.41625 0.81436 0.11841 0.0
H75 H 0.37038 0.80381 0.17956 0.0
H76 H 0.88396 0.75412 0.8499 0.0
H77 H 0.86318 0.7505 0.91447 0.0
H78 H 0.02238 0.62272 0.9113 0.0
H79 H 0.0431 0.6255 0.84666 0.0
Tb80 Tb 0.18682 0.71833 0.4982 0.0
Eu81 Eu 0.2976 0.79481 0.55455 0.0
C82 C 0.3418 0.67872 0.53441 0.0
C83 C 0.16143 0.72394 0.58126 0.0
C84 C 0.06113 0.67428 0.41938 0.0
C85 C 0.00509 0.64361 0.36074 0.0
C86 C 0.03937 0.63412 0.3936 0.0
C87 C 0.04733 0.72414 0.41218 0.0
C88 C 0.01263 0.73366 0.37948 0.0
C89 C -0.00761 0.69364 0.35314 0.0
C90 C 0.10245 0.66411 0.45265 0.0
O91 O 0.11751 0.78746 0.51197 0.0
O92 O 0.21778 0.84545 0.52631 0.0
O93 O 0.35739 0.79059 0.5002 0.0
O94 O 0.24683 0.76881 0.46517 0.0
C95 C 0.14359 0.83436 0.51691 0.0
O96 O 0.30504 0.85402 0.60014 0.0
O97 O 0.4135 0.8212 0.57599 0.0
O98 O 0.33716 0.71569 0.56073 0.0
O99 O 0.29872 0.6782 0.50483 0.0
O100 O 0.16904 0.69323 0.55131 0.0
O101 O 0.1903 0.76998 0.58421 0.0
C102 C 0.32096 0.78495 0.4688 0.0
O103 O 0.18018 0.66657 0.45137 0.0
O104 O 0.07459 0.68721 0.48283 0.0
C105 C 0.41159 0.84053 0.63906 0.0
C106 C 0.4698 0.82167 0.70727 0.0
C107 C 0.47521 0.8704 0.69615 0.0
C108 C 0.44626 0.87967 0.66225 0.0
C109 C 0.40542 0.7921 0.65019 0.0
C110 C 0.4349 0.7827 0.68385 0.0
C111 C 0.38241 0.84981 0.6032 0.0
H112 H 0.98826 0.61172 0.34159 0.0
H113 H 0.04967 0.5954 0.39872 0.0
H114 H 0.06437 0.7557 0.43167 0.0
H115 H 0.00313 0.7725 0.37444 0.0
H116 H 0.50348 0.9011 0.71307 0.0
H117 H 0.45164 0.91724 0.654 0.0
H118 H 0.37829 0.76146 0.63269 0.0
H119 H 0.43 0.74488 0.69172 0.0
Tb120 Tb 0.67071 0.22141 0.50582 0.0
Eu121 Eu 0.80573 0.28829 0.55595 0.0
C122 C 0.82097 0.17017 0.53606 0.0
C123 C 0.65731 0.23441 0.58983 0.0
C124 C 0.54164 0.18609 0.4272 0.0
C125 C 0.47992 0.15893 0.36903 0.0
C126 C 0.50406 0.14867 0.40351 0.0
C127 C 0.554 0.23413 0.41619 0.0
C128 C 0.53009 0.24441 0.38182 0.0
C129 C 0.49378 0.20689 0.35754 0.0
C130 C 0.57367 0.17405 0.46207 0.0
O131 O 0.61761 0.2956 0.5211 0.0
O132 O 0.72979 0.34542 0.53159 0.0
O133 O 0.8546 0.27937 0.49865 0.0
O134 O 0.73203 0.26874 0.47076 0.0
C135 C 0.65277 0.34008 0.52503 0.0
O136 O 0.83709 0.35381 0.59399 0.0
O137 O 0.92396 0.29428 0.58159 0.0
O138 O 0.82372 0.20639 0.56284 0.0
O139 O 0.77689 0.17428 0.50743 0.0
O140 O 0.65129 0.20159 0.56069 0.0
O141 O 0.69768 0.27649 0.58968 0.0
C142 C 0.8091 0.27779 0.46961 0.0
O143 O 0.65033 0.16563 0.46223 0.0
O144 O 0.55164 0.20356 0.49071 0.0
C145 C 0.91353 0.33002 0.64251 0.0
C146 C 0.93003 0.32123 0.7173 0.0
C147 C -0.00778 0.34184 0.69791 0.0
C148 C 0.9839 0.3461 0.66086 0.0
C149 C 0.85154 0.30959 0.66175 0.0
C150 C 0.85946 0.30572 0.69871 0.0
C151 C 0.90433 0.3342 0.60345 0.0
H152 H 0.45059 0.12912 0.35175 0.0
H153 H 0.49431 0.11129 0.41149 0.0
H154 H 0.58341 0.26349 0.43399 0.0
H155 H 0.54115 0.28174 0.37399 0.0
H156 H 0.04684 0.35555 0.71114 0.0
H157 H 0.03234 0.36214 0.64658 0.0
H158 H 0.79667 0.29674 0.64821 0.0
H159 H 0.81019 0.29029 0.71281 0.0
H160 H 0.63552 0.58814 0.9985 0.0
C161 C 0.62421 0.6156 1.02185 0.0
H162 H 0.56184 0.63049 0.0712 0.0
H163 H 0.3734 0.43488 0.97692 0.0
H164 H 0.33924 0.49384 0.93444 0.0
H165 H 0.38968 0.58146 0.94279 0.0
H166 H 0.47606 0.6102 0.99327 0.0
C167 C 0.57234 0.60401 0.04724 0.0
C168 C 0.53268 0.55341 0.04469 0.0
C169 C 0.47876 0.53794 1.01606 0.0
C170 C 0.44599 0.48822 1.01239 0.0
C171 C 0.39695 0.47282 0.98208 0.0
C172 C 0.3773 0.50621 0.95727 0.0
C173 C 0.40597 0.55546 0.96189 0.0
C174 C 0.45606 0.57135 0.99086 0.0
H175 H 0.30992 0.42643 0.04261 0.0
C176 C 0.35046 0.39438 0.03831 0.0
H177 H 0.47083 0.37107 0.03176 0.0
H178 H 0.63162 0.57127 0.1034 0.0
H179 H 0.65972 0.51395 0.14787 0.0
H180 H 0.59776 0.42939 0.1432 0.0
H181 H 0.50771 0.40147 0.09388 0.0
C182 C 0.42941 0.40271 0.03516 0.0
C183 C 0.46352 0.45491 0.03852 0.0
C184 C 0.51534 0.47101 0.06778 0.0
C185 C 0.55009 0.52015 0.0708 0.0
C186 C 0.60273 0.53469 0.09998 0.0
C187 C 0.61952 0.50211 0.12571 0.0
C188 C 0.58472 0.45448 0.12305 0.0
C189 C 0.53324 0.4389 0.09452 0.0
H190 H 0.4337 0.63909 0.56306 0.0
C191 C 0.39761 0.63685 0.53863 0.0
H192 H 0.37089 0.59428 0.48869 0.0
H193 H 0.69064 0.469 0.4742 0.0
H194 H 0.70576 0.52262 0.42622 0.0
H195 H 0.61082 0.59208 0.42009 0.0
H196 H 0.4999 0.60816 0.46173 0.0
C197 C 0.40475 0.59639 0.51373 0.0
C198 C 0.46289 0.5551 0.5183 0.0
C199 C 0.52807 0.54659 0.49398 0.0
C200 C 0.58351 0.50697 0.49781 0.0
C201 C 0.64722 0.49884 0.47277 0.0
C202 C 0.65659 0.52933 0.44507 0.0
C203 C 0.60311 0.5684 0.4416 0.0
C204 C 0.53956 0.57715 0.46568 0.0
H205 H 0.53884 0.37828 0.51636 0.0
C206 C 0.60187 0.38478 0.52254 0.0
H207 H 0.69212 0.44 0.53374 0.0
H208 H 0.33983 0.55702 0.56725 0.0
H209 H 0.32862 0.50619 0.61691 0.0
H210 H 0.43151 0.44277 0.62679 0.0
H211 H 0.54521 0.42907 0.5865 0.0
C212 C 0.62905 0.43248 0.52845 0.0
C213 C 0.57396 0.47604 0.52605 0.0
C214 C 0.51016 0.48552 0.55105 0.0
C215 C 0.45327 0.52407 0.54655 0.0
C216 C 0.38697 0.53006 0.57035 0.0
C217 C 0.37941 0.50082 0.59886 0.0
C218 C 0.43712 0.46497 0.60432 0.0
C219 C 0.50182 0.45724 0.58081 0.0
H220 H 0.14823 0.08717 0.98963 0.0
C221 C 0.13456 0.11289 1.01363 0.0
H222 H 0.06876 0.12394 0.06222 0.0
H223 H 0.88247 0.93036 0.96614 0.0
H224 H 0.85141 0.98911 0.923 0.0
H225 H 0.90488 0.07604 0.93091 0.0
H226 H 0.991 0.10433 0.98155 0.0
C227 C 0.0815 0.09892 0.03776 0.0
C228 C 0.04412 0.04762 0.03381 0.0
C229 C 0.99083 0.03242 1.00486 0.0
C230 C 0.95665 0.98307 1.0013 0.0
C231 C 0.90742 0.96798 0.97101 0.0
C232 C 0.88947 1.00126 0.94589 0.0
C233 C 0.91982 0.05012 0.95026 0.0
C234 C 0.96976 0.06576 0.97937 0.0
H235 H 0.81795 0.92575 0.03396 0.0
C236 C 0.85616 0.89258 0.02953 0.0
H237 H 0.9745 0.86586 1.02145 0.0
H238 H 0.14421 0.06418 0.09225 0.0
H239 H 0.17114 0.00645 0.13656 0.0
H240 H 0.10717 0.92249 0.13187 0.0
H241 H 0.01622 0.89562 0.0827 0.0
C242 C 0.93527 0.89859 1.02495 0.0
C243 C 0.97269 0.94981 1.02762 0.0
C244 C 0.02526 0.96521 0.05671 0.0
C245 C 0.06114 0.014 0.05975 0.0
C246 C 0.11428 0.02793 0.08886 0.0
C247 C 0.13049 0.99509 0.11448 0.0
C248 C 0.09457 0.9478 0.11181 0.0
C249 C 0.04255 0.93283 0.08336 0.0
H250 H 0.90849 0.12382 0.56191 0.0
C251 C 0.87157 0.12518 0.53799 0.0
H252 H 0.8408 0.08859 0.48651 0.0
H253 H 0.16024 0.9622 0.46535 0.0
H254 H 0.17323 0.01926 0.41939 0.0
H255 H 0.07648 0.08852 0.41579 0.0
H256 H 0.966 0.10099 0.45797 0.0
C257 C 0.87515 0.08696 0.51113 0.0
C258 C 0.93168 0.04397 0.51278 0.0
C259 C -0.00379 0.03736 0.48797 0.0
C260 C 0.05266 0.99785 0.49034 0.0
C261 C 0.11615 0.99191 0.46504 0.0
C262 C 0.12426 0.02435 0.43847 0.0
C263 C 0.06976 0.06331 0.43642 0.0
C264 C 0.00647 0.06997 0.46081 0.0
H265 H 0.02472 0.86491 0.50546 0.0
C266 C 0.08576 0.87534 0.51318 0.0
H267 H 0.16621 0.93569 0.52712 0.0
H268 H 0.80867 0.04126 0.56117 0.0
H269 H 0.79804 0.98608 0.60836 0.0
H270 H 0.90186 0.92217 0.61567 0.0
H271 H 0.01588 0.91239 0.5754 0.0
C272 C 0.10507 0.92448 0.52026 0.0
C273 C 0.04473 0.96511 0.51759 0.0
C274 C 0.98016 0.97172 0.54243 0.0
C275 C 0.92247 0.01034 0.53942 0.0
C276 C 0.85612 0.01412 0.56322 0.0
C277 C 0.84894 0.98242 0.59029 0.0
C278 C 0.9072 0.94632 0.59431 0.0
C279 C 0.97217 0.94088 0.5708 0.0
H280 H 0.47434 0.25959 0.31648 0.0
C281 C 0.471 0.21998 0.32097 0.0
H282 H 0.44863 0.14612 0.29518 0.0
H283 H 0.26019 0.29439 0.18935 0.0
H284 H 0.17955 0.32244 0.24145 0.0
H285 H 0.2061 0.2921 0.30036 0.0
H286 H 0.31708 0.23589 0.3079 0.0
C287 C 0.44834 0.18635 0.29299 0.0
C288 C 0.4291 0.2027 0.25687 0.0
C289 C 0.36147 0.23361 0.25236 0.0
C290 C 0.34425 0.24947 0.21791 0.0
C291 C 0.27711 0.28122 0.21465 0.0
C292 C 0.22943 0.29731 0.24437 0.0
C293 C 0.24468 0.28049 0.27758 0.0
C294 C 0.30919 0.24855 0.28158 0.0
H295 H 0.37339 0.17309 0.12368 0.0
C296 C 0.35902 0.21258 0.12215 0.0
H297 H 0.3572 0.28652 0.14864 0.0
H298 H 0.56445 0.14483 0.25633 0.0
H299 H 0.65349 0.12318 0.20561 0.0
H300 H 0.62735 0.15391 0.14674 0.0
H301 H 0.51149 0.20572 0.13808 0.0
C302 C 0.37046 0.24711 0.15108 0.0
C303 C 0.39322 0.23312 0.18758 0.0
C304 C 0.46288 0.20402 0.19254 0.0
C305 C 0.4797 0.18791 0.22696 0.0
C306 C 0.54889 0.15826 0.2309 0.0
C307 C 0.60077 0.14571 0.20204 0.0
C308 C 0.58592 0.16288 0.16887 0.0
C309 C 0.51834 0.19201 0.16411 0.0
H310 H 0.39882 0.77966 0.24101 0.0
C311 C 0.45917 0.79433 0.23877 0.0
H312 H 0.55842 0.8266 0.26852 0.0
H313 H 0.33067 0.8834 0.40476 0.0
H314 H 0.35119 0.96609 0.38492 0.0
H315 H 0.42437 0.97528 0.32854 0.0
H316 H 0.47708 0.90172 0.29154 0.0
C317 C 0.50052 0.80831 0.26925 0.0
C318 C 0.46436 0.80319 0.30508 0.0
C319 C 0.43578 0.84666 0.3268 0.0
C320 C 0.39434 0.84142 0.3595 0.0
C321 C 0.36371 0.88527 0.38 0.0
C322 C 0.37484 0.93296 0.36886 0.0
C323 C 0.41598 0.93813 0.33709 0.0
C324 C 0.44597 0.89561 0.31613 0.0
H325 H 0.42508 0.81253 0.44015 0.0
C326 C 0.36514 0.79688 0.43662 0.0
H327 H 0.27652 0.76844 0.39916 0.0
H328 H 0.52067 0.71311 0.27204 0.0
H329 H 0.50403 0.6306 0.29273 0.0
H330 H 0.43134 0.6213 0.34924 0.0
H331 H 0.37531 0.69448 0.38541 0.0
C332 C 0.33482 0.78629 0.40322 0.0
C333 C 0.38279 0.79275 0.37056 0.0
C334 C 0.41422 0.7495 0.34956 0.0
C335 C 0.45547 0.75476 0.31688 0.0
C336 C 0.48767 0.71108 0.29676 0.0
C337 C 0.47881 0.66354 0.30843 0.0
C338 C 0.43794 0.65832 0.34024 0.0
C339 C 0.40591 0.70064 0.36069 0.0
H340 H 0.56511 0.80659 0.93853 0.0
C341 C 0.62493 0.79078 0.93504 0.0
H342 H 0.71758 0.76798 0.89827 0.0
H343 H 0.3996 0.78327 0.79146 0.0
H344 H 0.33903 0.71846 0.82322 0.0
H345 H 0.40709 0.68782 0.87534 0.0
H346 H 0.53477 0.7227 0.89642 0.0
C347 C 0.6575 0.78333 0.90185 0.0
C348 C 0.61698 0.7995 0.86946 0.0
C349 C 0.54397 0.77688 0.85653 0.0
C350 C 0.50674 0.79263 0.82531 0.0
C351 C 0.4318 0.77144 0.81417 0.0
C352 C 0.39623 0.73432 0.83227 0.0
C353 C 0.43438 0.71723 0.86168 0.0
C354 C 0.50748 0.73796 0.8737 0.0
H355 H 0.51972 0.77049 0.74431 0.0
C356 C 0.50258 0.80949 0.7423 0.0
H357 H 0.49137 0.88242 0.77111 0.0
H358 H 0.75572 0.85139 0.88745 0.0
H359 H 0.81802 0.91409 0.85436 0.0
H360 H 0.75665 0.93834 0.79861 0.0
H361 H 0.63222 0.90028 0.7758 0.0
C362 C 0.50899 0.84333 0.77187 0.0
C363 C 0.54451 0.82904 0.80601 0.0
C364 C 0.61749 0.85151 0.81891 0.0
C365 C 0.6536 0.83686 0.8507 0.0
C366 C 0.72615 0.86039 0.86314 0.0
C367 C 0.76256 0.89661 0.84446 0.0
C368 C 0.72794 0.91031 0.81312 0.0
C369 C 0.65635 0.88818 0.80035 0.0
H370 H 0.62504 0.25647 0.64634 0.0
C371 C 0.62244 0.22516 0.62486 0.0
H372 H 0.59131 0.14807 0.61236 0.0
H373 H 0.65088 0.19671 0.7912 0.0
H374 H 0.79096 0.19703 0.77484 0.0
H375 H 0.8325 0.18476 0.71094 0.0
H376 H 0.73359 0.17352 0.66292 0.0
C377 C 0.59517 0.18038 0.6329 0.0
C378 C 0.57096 0.175 0.67092 0.0
C379 C 0.62944 0.17863 0.69878 0.0
C380 C 0.60553 0.18313 0.73571 0.0
C381 C 0.66532 0.19079 0.76278 0.0
C382 C 0.74618 0.19139 0.75375 0.0
C383 C 0.76955 0.18464 0.71778 0.0
C384 C 0.71216 0.17856 0.6905 0.0
H385 H 0.54718 0.1233 0.79792 0.0
C386 C 0.51221 0.15677 0.80708 0.0
H387 H 0.46272 0.22417 0.79139 0.0
H388 H 0.44468 0.16346 0.62422 0.0
H389 H 0.30417 0.15884 0.64024 0.0
H390 H 0.26256 0.16363 0.70406 0.0
H391 H 0.36095 0.17332 0.75232 0.0
C392 C 0.49638 0.18993 0.78326 0.0
C393 C 0.52304 0.18141 0.74474 0.0
C394 C 0.46499 0.17476 0.71676 0.0
C395 C 0.48897 0.17155 0.67987 0.0
C396 C 0.42957 0.16599 0.65261 0.0
C397 C 0.34882 0.16321 0.66143 0.0
C398 C 0.32538 0.16593 0.69738 0.0
C399 C 0.38247 0.17161 0.72482 0.0
H400 H 0.89681 0.67879 0.11812 0.0
C401 C 0.85931 0.71234 0.12001 0.0
H402 H 0.8071 0.77158 0.15477 0.0
H403 H 0.81204 0.66249 0.29538 0.0
H404 H 0.66995 0.66335 0.28198 0.0
H405 H 0.62123 0.69012 0.22456 0.0
H406 H 0.71386 0.71657 0.1805 0.0
C407 C 0.84634 0.73884 0.15244 0.0
C408 C 0.87716 0.7217 0.18655 0.0
C409 C 0.82209 0.70656 0.21221 0.0
C410 C 0.85024 0.691 0.24526 0.0
C411 C 0.79389 0.67533 0.27009 0.0
C412 C 0.71216 0.67541 0.26267 0.0
C413 C 0.68469 0.69051 0.23039 0.0
C414 C 0.73865 0.70579 0.20533 0.0
H415 H 0.93 0.74244 0.3177 0.0
C416 C 0.95777 0.70559 0.31831 0.0
H417 H -0.00369 0.63938 0.28601 0.0
H418 H -0.00128 0.75313 0.14499 0.0
H419 H 0.14061 0.75173 0.1583 0.0
H420 H 0.18958 0.72185 0.21461 0.0
H421 H 0.09674 0.69361 0.25814 0.0
C422 C 0.96357 0.67472 0.28721 0.0
C423 C 0.9335 0.69061 0.2526 0.0
C424 C 0.98862 0.70549 0.22689 0.0
C425 C 0.96045 0.72173 0.19405 0.0
C426 C 0.01676 0.73886 0.16979 0.0
C427 C 0.09846 0.73862 0.17722 0.0
C428 C 0.12603 0.72186 0.20895 0.0
C429 C 0.07206 0.70564 0.23366 0.0
H430 H 0.79795 0.2978 0.41435 0.0
C431 C 0.84134 0.28824 0.43428 0.0
H432 H 0.96169 0.26789 0.4423 0.0
H433 H 0.96306 0.19264 0.27171 0.0
H434 H 0.96712 0.113 0.29705 0.0
H435 H 0.96066 0.11042 0.36296 0.0
H436 H 0.94883 0.18771 0.40389 0.0
C437 C 0.91788 0.28106 0.42396 0.0
C438 C 0.93999 0.28379 0.38528 0.0
C439 C 0.95097 0.23861 0.3617 0.0
C440 C 0.95751 0.24029 0.32365 0.0
C441 C 0.9617 0.19407 0.30078 0.0
C442 C 0.96325 0.14789 0.31499 0.0
C443 C 0.95938 0.14642 0.35208 0.0
C444 C 0.95265 0.19107 0.37527 0.0
H445 H 0.06891 0.25573 0.26007 0.0
C446 C 0.01973 0.2747 0.24806 0.0
H447 H 0.90685 0.30916 0.2582 0.0
H448 H 0.9302 0.37741 0.4233 0.0
H449 H 0.93305 0.45799 0.39868 0.0
H450 H 0.94843 0.46153 0.33318 0.0
H451 H 0.9606 0.3847 0.29184 0.0
C452 C 0.95733 0.29055 0.26934 0.0
C453 C 0.95673 0.28758 0.30932 0.0
C454 C 0.95055 0.33292 0.33329 0.0
C455 C 0.94194 0.33099 0.37117 0.0
C456 C 0.93573 0.37683 0.39431 0.0
C457 C 0.93775 0.4233 0.38057 0.0
C458 C 0.94642 0.42529 0.34368 0.0
C459 C 0.95297 0.38082 0.32022 0.0
H460 H 0.87959 0.30993 0.77093 0.0
C461 C 0.93505 0.31612 0.75682 0.0
H462 H 0.06086 0.32219 0.76276 0.0
H463 H 0.07264 0.38891 0.92955 0.0
H464 H 0.09384 0.46997 0.90709 0.0
H465 H 0.07468 0.47949 0.84255 0.0
H466 H 0.03403 0.40809 0.80005 0.0
C467 C 0.00398 0.31652 0.77566 0.0
C468 C 0.00595 0.31165 0.81528 0.0
C469 C 0.03002 0.35362 0.83982 0.0
C470 C 0.04187 0.34804 0.87703 0.0
C471 C 0.06469 0.39085 0.90091 0.0
C472 C 0.0765 0.43764 0.88842 0.0
C473 C 0.06566 0.443 0.85209 0.0
C474 C 0.0426 0.40166 0.82796 0.0
H475 H 0.17837 0.30072 0.91325 0.0
C476 C 0.13694 0.29245 0.93432 0.0
H477 H 0.01528 0.28072 0.94637 0.0
H478 H 0.9566 0.2235 0.77623 0.0
H479 H 0.9299 0.14385 0.79939 0.0
H480 H 0.94829 0.13481 0.86405 0.0
H481 H -0.0062 0.20553 0.90595 0.0
C482 C 0.05824 0.29177 0.92687 0.0
C483 C 0.03081 0.30029 0.88973 0.0
C484 C 0.00152 0.25918 0.86573 0.0
C485 C 0.98985 0.26464 0.82842 0.0
C486 C 0.96473 0.22203 0.80487 0.0
C487 C 0.94959 0.17589 0.81779 0.0
C488 C 0.96 0.17079 0.85419 0.0
C489 C 0.98613 0.2117 0.87795 0.0
H490 H 0.12626 0.66448 0.61499 0.0
C491 C 0.12762 0.70503 0.61371 0.0
H492 H 0.10656 0.77761 0.64076 0.0
H493 H 0.9394 0.62127 0.74846 0.0
H494 H 0.85504 0.59017 0.69767 0.0
H495 H 0.87382 0.62022 0.63802 0.0
H496 H 0.97799 0.6806 0.62858 0.0
C497 C 0.10467 0.73713 0.64237 0.0
C498 C 0.08867 0.72034 0.67849 0.0
C499 C 0.02522 0.68647 0.68377 0.0
C500 C 0.01176 0.671 0.7186 0.0
C501 C 0.95055 0.63542 0.72284 0.0
C502 C 0.90186 0.61716 0.6939 0.0
C503 C 0.91263 0.63394 0.66029 0.0
C504 C 0.97326 0.6683 0.65515 0.0
H505 H 0.93717 0.71923 0.79109 0.0
C506 C 0.97925 0.69603 0.80423 0.0
H507 H 0.09015 0.65749 0.79799 0.0
H508 H 0.21695 0.7851 0.67803 0.0
H509 H 0.29162 0.82232 0.73009 0.0
H510 H 0.25978 0.80098 0.79119 0.0
H511 H 0.15598 0.74048 0.80034 0.0
C512 C 0.04329 0.67746 0.78531 0.0
C513 C 0.05897 0.69139 0.7484 0.0
C514 C 0.12062 0.7264 0.74338 0.0
C515 C 0.13637 0.74031 0.70835 0.0
C516 C 0.20017 0.77431 0.70411 0.0
C517 C 0.24412 0.79576 0.73376 0.0
C518 C 0.22663 0.78352 0.76811 0.0
C519 C 0.16644 0.74885 0.77299 0.0
loop_
_geom_bond_atom_site_label_1
_geom_bond_atom_site_label_2
_geom_bond_distance
_geom_bond_site_symmetry_2
_ccdc_geom_bond_type
Tb0 C10 2.825 . S
Tb0 O11 2.347 . S
Tb0 O14 2.366 . S
Tb0 O19 2.418 . S
Tb0 O20 2.384 1_554 S
Tb0 O23 2.479 . S
Tb0 O24 2.471 . S
Eu1 O12 2.418 . S
Eu1 O13 2.384 1_556 S
Eu1 O16 2.479 . S
Eu1 O17 2.471 . S
Eu1 O18 2.347 . S
Eu1 O21 2.366 . S
Eu1 C31 2.825 . S
C2 O18 1.259 1_554 S
C2 O19 1.265 . S
C3 O20 1.255 . S
C3 O21 1.265 . S
C4 C6 1.380 . S
C4 C7 1.374 . S
C4 C10 1.507 . S
C5 C6 1.384 . S
C5 C9 1.387 . S
C5 H32 0.930 . S
C6 C4 1.380 . S
C6 C5 1.384 . S
C6 H33 0.931 . S
C7 C4 1.374 . S
C7 C8 1.390 . S
C7 H34 0.930 . S
C8 C7 1.390 . S
C8 C9 1.391 . S
C8 H35 0.930 . S
C9 C5 1.387 . S
C9 C8 1.391 . S
C10 Tb0 2.825 . S
C10 C4 1.507 . S
C10 O23 1.238 . S
C10 O24 1.247 . S
O11 Tb0 2.347 . S
O11 C15 1.259 1_554 S
O12 Eu1 2.418 . S
O12 C15 1.265 . S
O13 Eu1 2.384 1_554 S
O13 C22 1.255 . S
O14 Tb0 2.366 . S
O14 C22 1.265 . S
C15 O11 1.259 1_556 S
C15 O12 1.265 . S
O16 Eu1 2.479 . S
O16 C31 1.238 . S
O17 Eu1 2.471 . S
O17 C31 1.247 . S
O18 Eu1 2.347 . S
O18 C2 1.259 1_556 S
O19 Tb0 2.418 . S
O19 C2 1.265 . S
O20 Tb0 2.384 1_556 S
O20 C3 1.255 . S
O21 Eu1 2.366 . S
O21 C3 1.265 . S
C22 O13 1.255 . S
C22 O14 1.265 . S
O23 Tb0 2.479 . S
O23 C10 1.238 . S
O24 Tb0 2.471 . S
O24 C10 1.247 . S
C25 C28 1.380 . S
C25 C29 1.374 . S
C25 C31 1.507 . S
C26 C27 1.387 . S
C26 C30 1.391 . S
C27 C26 1.387 . S
C27 C28 1.384 . S
C27 H36 0.930 . S
C28 C25 1.380 . S
C28 C27 1.384 . S
C28 H37 0.931 . S
C29 C25 1.374 . S
C29 C30 1.390 . S
C29 H38 0.930 . S
C30 C26 1.391 . S
C30 C29 1.390 . S
C30 H39 0.930 . S
C31 Eu1 2.825 . S
C31 O16 1.238 . S
C31 O17 1.247 . S
C31 C25 1.507 . S
H32 C5 0.930 . S
H33 C6 0.931 . S
H34 C7 0.930 . S
H35 C8 0.930 . S
H36 C27 0.930 . S
H37 C28 0.931 . S
H38 C29 0.930 . S
H39 C30 0.930 . S
Tb40 C50 2.825 . S
Tb40 O51 2.347 . S
Tb40 O54 2.366 . S
Tb40 O59 2.418 . S
Tb40 O60 2.384 1_554 S
Tb40 O63 2.479 . S
Tb40 O64 2.471 . S
Eu41 O52 2.418 . S
Eu41 O53 2.384 1_556 S
Eu41 O56 2.479 . S
Eu41 O57 2.471 . S
Eu41 O58 2.347 . S
Eu41 O61 2.366 . S
Eu41 C71 2.825 . S
C42 O58 1.259 1_554 S
C42 O59 1.265 . S
C43 O60 1.255 . S
C43 O61 1.265 . S
C44 C46 1.380 . S
C44 C47 1.374 . S
C44 C50 1.507 . S
C45 C46 1.384 . S
C45 C49 1.387 . S
C45 H72 0.930 . S
C46 C44 1.380 . S
C46 C45 1.384 . S
C46 H73 0.931 . S
C47 C44 1.374 . S
C47 C48 1.390 . S
C47 H74 0.930 . S
C48 C47 1.390 . S
C48 C49 1.391 . S
C48 H75 0.930 . S
C49 C45 1.387 . S
C49 C48 1.391 . S
C50 Tb40 2.825 . S
C50 C44 1.507 . S
C50 O63 1.238 . S
C50 O64 1.247 . S
O51 Tb40 2.347 . S
O51 C55 1.259 1_554 S
O52 Eu41 2.418 . S
O52 C55 1.265 . S
O53 Eu41 2.384 1_554 S
O53 C62 1.255 . S
O54 Tb40 2.366 . S
O54 C62 1.265 . S
C55 O51 1.259 1_556 S
C55 O52 1.265 . S
O56 Eu41 2.479 . S
O56 C71 1.238 . S
O57 Eu41 2.471 . S
O57 C71 1.247 . S
O58 Eu41 2.347 . S
O58 C42 1.259 1_556 S
O59 Tb40 2.418 . S
O59 C42 1.265 . S
O60 Tb40 2.384 1_556 S
O60 C43 1.255 . S
O61 Eu41 2.366 . S
O61 C43 1.265 . S
C62 O53 1.255 . S
C62 O54 1.265 . S
O63 Tb40 2.479 . S
O63 C50 1.238 . S
O64 Tb40 2.471 . S
O64 C50 1.247 . S
C65 C68 1.380 . S
C65 C69 1.374 . S
C65 C71 1.507 . S
C66 C67 1.387 . S
C66 C70 1.391 . S
C67 C66 1.387 . S
C67 C68 1.384 . S
C67 H76 0.930 . S
C68 C65 1.380 . S
C68 C67 1.384 . S
C68 H77 0.931 . S
C69 C65 1.374 . S
C69 C70 1.390 . S
C69 H78 0.930 . S
C70 C66 1.391 . S
C70 C69 1.390 . S
C70 H79 0.930 . S
C71 Eu41 2.825 . S
C71 O56 1.238 . S
C71 O57 1.247 . S
C71 C65 1.507 . S
H72 C45 0.930 . S
H73 C46 0.931 . S
H74 C47 0.930 . S
H75 C48 0.930 . S
H76 C67 0.930 . S
H77 C68 0.931 . S
H78 C69 0.930 . S
H79 C70 0.930 . S
Tb80 C90 2.825 . S
Tb80 O91 2.347 . S
Tb80 O94 2.366 . S
Tb80 O99 2.418 . S
Tb80 O100 2.384 . S
Tb80 O103 2.479 . S
Tb80 O104 2.471 . S
Eu81 O92 2.418 . S
Eu81 O93 2.384 . S
Eu81 O96 2.479 . S
Eu81 O97 2.471 . S
Eu81 O98 2.347 . S
Eu81 O101 2.366 . S
Eu81 C111 2.825 . S
C82 O98 1.259 . S
C82 O99 1.265 . S
C83 O100 1.255 . S
C83 O101 1.265 . S
C84 C86 1.380 . S
C84 C87 1.374 . S
C84 C90 1.507 . S
C85 C86 1.384 . S
C85 C89 1.387 . S
C85 H112 0.930 . S
C86 C84 1.380 . S
C86 C85 1.384 . S
C86 H113 0.931 . S
C87 C84 1.374 . S
C87 C88 1.390 . S
C87 H114 0.930 . S
C88 C87 1.390 . S
C88 C89 1.391 . S
C88 H115 0.930 . S
C89 C85 1.387 . S
C89 C88 1.391 . S
C90 Tb80 2.825 . S
C90 C84 1.507 . S
C90 O103 1.238 . S
C90 O104 1.247 . S
O91 Tb80 2.347 . S
O91 C95 1.259 . S
O92 Eu81 2.418 . S
O92 C95 1.265 . S
O93 Eu81 2.384 . S
O93 C102 1.255 . S
O94 Tb80 2.366 . S
O94 C102 1.265 . S
C95 O91 1.259 . S
C95 O92 1.265 . S
O96 Eu81 2.479 . S
O96 C111 1.238 . S
O97 Eu81 2.471 . S
O97 C111 1.247 . S
O98 Eu81 2.347 . S
O98 C82 1.259 . S
O99 Tb80 2.418 . S
O99 C82 1.265 . S
O100 Tb80 2.384 . S
O100 C83 1.255 . S
O101 Eu81 2.366 . S
O101 C83 1.265 . S
C102 O93 1.255 . S
C102 O94 1.265 . S
O103 Tb80 2.479 . S
O103 C90 1.238 . S
O104 Tb80 2.471 . S
O104 C90 1.247 . S
C105 C108 1.380 . S
C105 C109 1.374 . S
C105 C111 1.507 . S
C106 C107 1.387 . S
C106 C110 1.391 . S
C107 C106 1.387 . S
C107 C108 1.384 . S
C107 H116 0.930 . S
C108 C105 1.380 . S
C108 C107 1.384 . S
C108 H117 0.931 . S
C109 C105 1.374 . S
C109 C110 1.390 . S
C109 H118 0.930 . S
C110 C106 1.391 . S
C110 C109 1.390 . S
C110 H119 0.930 . S
C111 Eu81 2.825 . S
C111 O96 1.238 . S
C111 O97 1.247 . S
C111 C105 1.507 . S
H112 C85 0.930 . S
H113 C86 0.931 . S
H114 C87 0.930 . S
H115 C88 0.930 . S
H116 C107 0.930 . S
H117 C108 0.931 . S
H118 C109 0.930 . S
H119 C110 0.930 . S
Tb120 C130 2.825 . S
Tb120 O131 2.347 . S
Tb120 O134 2.366 . S
Tb120 O139 2.418 . S
Tb120 O140 2.384 . S
Tb120 O143 2.479 . S
Tb120 O144 2.471 . S
Eu121 O132 2.418 . S
Eu121 O133 2.384 . S
Eu121 O136 2.479 . S
Eu121 O137 2.471 . S
Eu121 O138 2.347 . S
Eu121 O141 2.366 . S
Eu121 C151 2.825 . S
C122 O138 1.259 . S
C122 O139 1.265 . S
C123 O140 1.255 . S
C123 O141 1.265 . S
C124 C126 1.380 . S
C124 C127 1.374 . S
C124 C130 1.507 . S
C125 C126 1.384 . S
C125 C129 1.387 . S
C125 H152 0.930 . S
C126 C124 1.380 . S
C126 C125 1.384 . S
C126 H153 0.931 . S
C127 C124 1.374 . S
C127 C128 1.390 . S
C127 H154 0.930 . S
C128 C127 1.390 . S
C128 C129 1.391 . S
C128 H155 0.930 . S
C129 C125 1.387 . S
C129 C128 1.391 . S
C130 Tb120 2.825 . S
C130 C124 1.507 . S
C130 O143 1.238 . S
C130 O144 1.247 . S
O131 Tb120 2.347 . S
O131 C135 1.259 . S
O132 Eu121 2.418 . S
O132 C135 1.265 . S
O133 Eu121 2.384 . S
O133 C142 1.255 . S
O134 Tb120 2.366 . S
O134 C142 1.265 . S
C135 O131 1.259 . S
C135 O132 1.265 . S
O136 Eu121 2.479 . S
O136 C151 1.238 . S
O137 Eu121 2.471 . S
O137 C151 1.247 . S
O138 Eu121 2.347 . S
O138 C122 1.259 . S
O139 Tb120 2.418 . S
O139 C122 1.265 . S
O140 Tb120 2.384 . S
O140 C123 1.255 . S
O141 Eu121 2.366 . S
O141 C123 1.265 . S
C142 O133 1.255 . S
C142 O134 1.265 . S
O143 Tb120 2.479 . S
O143 C130 1.238 . S
O144 Tb120 2.471 . S
O144 C130 1.247 . S
C145 C148 1.380 . S
C145 C149 1.374 . S
C145 C151 1.507 . S
C146 C147 1.387 . S
C146 C150 1.391 . S
C147 C146 1.387 . S
C147 C148 1.384 . S
C147 H156 0.930 . S
C148 C145 1.380 . S
C148 C147 1.384 . S
C148 H157 0.931 . S
C149 C145 1.374 . S
C149 C150 1.390 . S
C149 H158 0.930 . S
C150 C146 1.391 . S
C150 C149 1.390 . S
C150 H159 0.930 . S
C151 Eu121 2.825 . S
C151 O136 1.238 . S
C151 O137 1.247 . S
C151 C145 1.507 . S
H152 C125 0.930 . S
H153 C126 0.931 . S
H154 C127 0.930 . S
H155 C128 0.930 . S
H156 C147 0.930 . S
H157 C148 0.931 . S
H158 C149 0.930 . S
H159 C150 0.930 . S
H160 C161 0.951 . S
C161 H160 0.951 . S
C161 C167 1.265 1_554 S
H162 C167 0.950 . S
H163 C171 0.949 . S
H164 C172 0.950 . S
H165 C173 0.951 . S
H166 C174 0.951 . S
C167 C161 1.265 1_556 S
C167 H162 0.950 . S
C167 C168 1.478 . S
C168 C167 1.478 . S
C168 C169 1.397 . S
C168 C185 1.394 1_556 S
C169 C168 1.397 . S
C169 C170 1.438 . S
C169 C174 1.429 . S
C170 C169 1.438 . S
C170 C171 1.428 . S
C170 C183 1.394 1_556 S
C171 H163 0.949 . S
C171 C170 1.428 . S
C171 C172 1.345 . S
C172 H164 0.950 . S
C172 C171 1.345 . S
C172 C173 1.424 . S
C173 H165 0.951 . S
C173 C172 1.424 . S
C173 C174 1.347 . S
C174 H166 0.951 . S
C174 C169 1.429 . S
C174 C173 1.347 . S
H175 C176 0.951 1_556 S
C176 H175 0.951 1_554 S
C176 C182 1.265 . S
H177 C182 0.950 . S
H178 C186 0.949 . S
H179 C187 0.950 . S
H180 C188 0.951 . S
H181 C189 0.951 . S
C182 C176 1.265 . S
C182 H177 0.950 . S
C182 C183 1.478 . S
C183 C170 1.394 1_554 S
C183 C182 1.478 . S
C183 C184 1.397 . S
C184 C183 1.397 . S
C184 C185 1.438 . S
C184 C189 1.429 . S
C185 C168 1.394 1_554 S
C185 C184 1.438 . S
C185 C186 1.428 . S
C186 H178 0.949 . S
C186 C185 1.428 . S
C186 C187 1.345 . S
C187 H179 0.950 . S
C187 C186 1.345 . S
C187 C188 1.424 . S
C188 H180 0.951 . S
C188 C187 1.424 . S
C188 C189 1.347 . S
C189 H181 0.951 . S
C189 C184 1.429 . S
C189 C188 1.347 . S
H190 C191 0.951 . S
C191 H190 0.951 . S
C191 C197 1.265 . S
H192 C197 0.950 . S
H193 C201 0.949 . S
H194 C202 0.950 . S
H195 C203 0.951 . S
H196 C204 0.951 . S
C197 C191 1.265 . S
C197 H192 0.950 . S
C197 C198 1.478 . S
C198 C197 1.478 . S
C198 C199 1.397 . S
C198 C215 1.394 . S
C199 C198 1.397 . S
C199 C200 1.438 . S
C199 C204 1.429 . S
C200 C199 1.438 . S
C200 C201 1.428 . S
C200 C213 1.394 . S
C201 H193 0.949 . S
C201 C200 1.428 . S
C201 C202 1.345 . S
C202 H194 0.950 . S
C202 C201 1.345 . S
C202 C203 1.424 . S
C203 H195 0.951 . S
C203 C202 1.424 . S
C203 C204 1.347 . S
C204 H196 0.951 . S
C204 C199 1.429 . S
C204 C203 1.347 . S
H205 C206 0.951 . S
C206 H205 0.951 . S
C206 C212 1.265 . S
H207 C212 0.950 . S
H208 C216 0.949 . S
H209 C217 0.950 . S
H210 C218 0.951 . S
H211 C219 0.951 . S
C212 C206 1.265 . S
C212 H207 0.950 . S
C212 C213 1.478 . S
C213 C200 1.394 . S
C213 C212 1.478 . S
C213 C214 1.397 . S
C214 C213 1.397 . S
C214 C215 1.438 . S
C214 C219 1.429 . S
C215 C198 1.394 . S
C215 C214 1.438 . S
C215 C216 1.428 . S
C216 H208 0.949 . S
C216 C215 1.428 . S
C216 C217 1.345 . S
C217 H209 0.950 . S
C217 C216 1.345 . S
C217 C218 1.424 . S
C218 H210 0.951 . S
C218 C217 1.424 . S
C218 C219 1.347 . S
C219 H211 0.951 . S
C219 C214 1.429 . S
C219 C218 1.347 . S
H220 C221 0.951 . S
C221 H220 0.951 . S
C221 C227 1.265 1_554 S
H222 C227 0.950 . S
H223 C231 0.949 . S
H224 C232 0.950 . S
H225 C233 0.951 . S
H226 C234 0.951 1_455 S
C227 C221 1.265 1_556 S
C227 H222 0.950 . S
C227 C228 1.478 . S
C228 C227 1.478 . S
C228 C229 1.397 1_455 S
C228 C245 1.394 1_556 S
C229 C228 1.397 1_655 S
C229 C230 1.438 1_545 S
C229 C234 1.429 . S
C230 C229 1.438 1_565 S
C230 C231 1.428 . S
C230 C243 1.394 1_556 S
C231 H223 0.949 . S
C231 C230 1.428 . S
C231 C232 1.345 . S
C232 H224 0.950 . S
C232 C231 1.345 . S
C232 C233 1.424 1_565 S
C233 H225 0.951 . S
C233 C232 1.424 1_545 S
C233 C234 1.347 . S
C234 H226 0.951 1_655 S
C234 C229 1.429 . S
C234 C233 1.347 . S
H235 C236 0.951 1_556 S
C236 H235 0.951 1_554 S
C236 C242 1.265 . S
H237 C242 0.950 . S
H238 C246 0.949 . S
H239 C247 0.950 . S
H240 C248 0.951 . S
H241 C249 0.951 1_655 S
C242 C236 1.265 . S
C242 H237 0.950 . S
C242 C243 1.478 . S
C243 C230 1.394 1_554 S
C243 C242 1.478 . S
C243 C244 1.397 1_655 S
C244 C243 1.397 1_455 S
C244 C245 1.438 1_565 S
C244 C249 1.429 . S
C245 C228 1.394 1_554 S
C245 C244 1.438 1_545 S
C245 C246 1.428 . S
C246 H238 0.949 . S
C246 C245 1.428 . S
C246 C247 1.345 . S
C247 H239 0.950 . S
C247 C246 1.345 . S
C247 C248 1.424 1_545 S
C248 H240 0.951 . S
C248 C247 1.424 1_565 S
C248 C249 1.347 . S
C249 H241 0.951 1_455 S
C249 C244 1.429 . S
C249 C248 1.347 . S
H250 C251 0.951 . S
C251 H250 0.951 . S
C251 C257 1.265 . S
H252 C257 0.950 . S
H253 C261 0.949 . S
H254 C262 0.950 . S
H255 C263 0.951 . S
H256 C264 0.951 . S
C257 C251 1.265 . S
C257 H252 0.950 . S
C257 C258 1.478 . S
C258 C257 1.478 . S
C258 C259 1.397 1_655 S
C258 C275 1.394 . S
C259 C258 1.397 1_455 S
C259 C260 1.438 1_545 S
C259 C264 1.429 . S
C260 C259 1.438 1_565 S
C260 C261 1.428 . S
C260 C273 1.394 . S
C261 H253 0.949 . S
C261 C260 1.428 . S
C261 C262 1.345 1_565 S
C262 H254 0.950 . S
C262 C261 1.345 1_545 S
C262 C263 1.424 . S
C263 H255 0.951 . S
C263 C262 1.424 . S
C263 C264 1.347 . S
C264 H256 0.951 . S
C264 C259 1.429 . S
C264 C263 1.347 . S
H265 C266 0.951 . S
C266 H265 0.951 . S
C266 C272 1.265 . S
H267 C272 0.950 . S
H268 C276 0.949 . S
H269 C277 0.950 . S
H270 C278 0.951 . S
H271 C279 0.951 . S
C272 C266 1.265 . S
C272 H267 0.950 . S
C272 C273 1.478 . S
C273 C260 1.394 . S
C273 C272 1.478 . S
C273 C274 1.397 1_455 S
C274 C273 1.397 1_655 S
C274 C275 1.438 1_565 S
C274 C279 1.429 . S
C275 C258 1.394 . S
C275 C274 1.438 1_545 S
C275 C276 1.428 . S
C276 H268 0.949 . S
C276 C275 1.428 . S
C276 C277 1.345 1_545 S
C277 H269 0.950 . S
C277 C276 1.345 1_565 S
C277 C278 1.424 . S
C278 H270 0.951 . S
C278 C277 1.424 . S
C278 C279 1.347 . S
C279 H271 0.951 . S
C279 C274 1.429 . S
C279 C278 1.347 . S
H280 C281 0.951 . S
C281 H280 0.951 . S
C281 C287 1.265 . S
H282 C287 0.950 . S
H283 C291 0.949 . S
H284 C292 0.950 . S
H285 C293 0.951 . S
H286 C294 0.951 . S
C287 C281 1.265 . S
C287 H282 0.950 . S
C287 C288 1.478 . S
C288 C287 1.478 . S
C288 C289 1.397 . S
C288 C305 1.394 . S
C289 C288 1.397 . S
C289 C290 1.438 . S
C289 C294 1.429 . S
C290 C289 1.438 . S
C290 C291 1.428 . S
C290 C303 1.394 . S
C291 H283 0.949 . S
C291 C290 1.428 . S
C291 C292 1.345 . S
C292 H284 0.950 . S
C292 C291 1.345 . S
C292 C293 1.424 . S
C293 H285 0.951 . S
C293 C292 1.424 . S
C293 C294 1.347 . S
C294 H286 0.951 . S
C294 C289 1.429 . S
C294 C293 1.347 . S
H295 C296 0.951 . S
C296 H295 0.951 . S
C296 C302 1.265 . S
H297 C302 0.950 . S
H298 C306 0.949 . S
H299 C307 0.950 . S
H300 C308 0.951 . S
H301 C309 0.951 . S
C302 C296 1.265 . S
C302 H297 0.950 . S
C302 C303 1.478 . S
C303 C290 1.394 . S
C303 C302 1.478 . S
C303 C304 1.397 . S
C304 C303 1.397 . S
C304 C305 1.438 . S
C304 C309 1.429 . S
C305 C288 1.394 . S
C305 C304 1.438 . S
C305 C306 1.428 . S
C306 H298 0.949 . S
C306 C305 1.428 . S
C306 C307 1.345 . S
C307 H299 0.950 . S
C307 C306 1.345 . S
C307 C308 1.424 . S
C308 H300 0.951 . S
C308 C307 1.424 . S
C308 C309 1.347 . S
C309 H301 0.951 . S
C309 C304 1.429 . S
C309 C308 1.347 . S
H310 C311 0.951 . S
C311 H310 0.951 . S
C311 C317 1.265 . S
H312 C317 0.950 . S
H313 C321 0.949 . S
H314 C322 0.950 . S
H315 C323 0.951 . S
H316 C324 0.951 . S
C317 C311 1.265 . S
C317 H312 0.950 . S
C317 C318 1.478 . S
C318 C317 1.478 . S
C318 C319 1.397 . S
C318 C335 1.394 . S
C319 C318 1.397 . S
C319 C320 1.438 . S
C319 C324 1.429 . S
C320 C319 1.438 . S
C320 C321 1.428 . S
C320 C333 1.394 . S
C321 H313 0.949 . S
C321 C320 1.428 . S
C321 C322 1.345 . S
C322 H314 0.950 . S
C322 C321 1.345 . S
C322 C323 1.424 . S
C323 H315 0.951 . S
C323 C322 1.424 . S
C323 C324 1.347 . S
C324 H316 0.951 . S
C324 C319 1.429 . S
C324 C323 1.347 . S
H325 C326 0.951 . S
C326 H325 0.951 . S
C326 C332 1.265 . S
H327 C332 0.950 . S
H328 C336 0.949 . S
H329 C337 0.950 . S
H330 C338 0.951 . S
H331 C339 0.951 . S
C332 C326 1.265 . S
C332 H327 0.950 . S
C332 C333 1.478 . S
C333 C320 1.394 . S
C333 C332 1.478 . S
C333 C334 1.397 . S
C334 C333 1.397 . S
C334 C335 1.438 . S
C334 C339 1.429 . S
C335 C318 1.394 . S
C335 C334 1.438 . S
C335 C336 1.428 . S
C336 H328 0.949 . S
C336 C335 1.428 . S
C336 C337 1.345 . S
C337 H329 0.950 . S
C337 C336 1.345 . S
C337 C338 1.424 . S
C338 H330 0.951 . S
C338 C337 1.424 . S
C338 C339 1.347 . S
C339 H331 0.951 . S
C339 C334 1.429 . S
C339 C338 1.347 . S
H340 C341 0.951 . S
C341 H340 0.951 . S
C341 C347 1.265 . S
H342 C347 0.950 . S
H343 C351 0.949 . S
H344 C352 0.950 . S
H345 C353 0.951 . S
H346 C354 0.951 . S
C347 C341 1.265 . S
C347 H342 0.950 . S
C347 C348 1.478 . S
C348 C347 1.478 . S
C348 C349 1.397 . S
C348 C365 1.394 . S
C349 C348 1.397 . S
C349 C350 1.438 . S
C349 C354 1.429 . S
C350 C349 1.438 . S
C350 C351 1.428 . S
C350 C363 1.394 . S
C351 H343 0.949 . S
C351 C350 1.428 . S
C351 C352 1.345 . S
C352 H344 0.950 . S
C352 C351 1.345 . S
C352 C353 1.424 . S
C353 H345 0.951 . S
C353 C352 1.424 . S
C353 C354 1.347 . S
C354 H346 0.951 . S
C354 C349 1.429 . S
C354 C353 1.347 . S
H355 C356 0.951 . S
C356 H355 0.951 . S
C356 C362 1.265 . S
H357 C362 0.950 . S
H358 C366 0.949 . S
H359 C367 0.950 . S
H360 C368 0.951 . S
H361 C369 0.951 . S
C362 C356 1.265 . S
C362 H357 0.950 . S
C362 C363 1.478 . S
C363 C350 1.394 . S
C363 C362 1.478 . S
C363 C364 1.397 . S
C364 C363 1.397 . S
C364 C365 1.438 . S
C364 C369 1.429 . S
C365 C348 1.394 . S
C365 C364 1.438 . S
C365 C366 1.428 . S
C366 H358 0.949 . S
C366 C365 1.428 . S
C366 C367 1.345 . S
C367 H359 0.950 . S
C367 C366 1.345 . S
C367 C368 1.424 . S
C368 H360 0.951 . S
C368 C367 1.424 . S
C368 C369 1.347 . S
C369 H361 0.951 . S
C369 C364 1.429 . S
C369 C368 1.347 . S
H370 C371 0.951 . S
C371 H370 0.951 . S
C371 C377 1.265 . S
H372 C377 0.950 . S
H373 C381 0.949 . S
H374 C382 0.950 . S
H375 C383 0.951 . S
H376 C384 0.951 . S
C377 C371 1.265 . S
C377 H372 0.950 . S
C377 C378 1.478 . S
C378 C377 1.478 . S
C378 C379 1.397 . S
C378 C395 1.394 . S
C379 C378 1.397 . S
C379 C380 1.438 . S
C379 C384 1.429 . S
C380 C379 1.438 . S
C380 C381 1.428 . S
C380 C393 1.394 . S
C381 H373 0.949 . S
C381 C380 1.428 . S
C381 C382 1.345 . S
C382 H374 0.950 . S
C382 C381 1.345 . S
C382 C383 1.424 . S
C383 H375 0.951 . S
C383 C382 1.424 . S
C383 C384 1.347 . S
C384 H376 0.951 . S
C384 C379 1.429 . S
C384 C383 1.347 . S
H385 C386 0.951 . S
C386 H385 0.951 . S
C386 C392 1.265 . S
H387 C392 0.950 . S
H388 C396 0.949 . S
H389 C397 0.950 . S
H390 C398 0.951 . S
H391 C399 0.951 . S
C392 C386 1.265 . S
C392 H387 0.950 . S
C392 C393 1.478 . S
C393 C380 1.394 . S
C393 C392 1.478 . S
C393 C394 1.397 . S
C394 C393 1.397 . S
C394 C395 1.438 . S
C394 C399 1.429 . S
C395 C378 1.394 . S
C395 C394 1.438 . S
C395 C396 1.428 . S
C396 H388 0.949 . S
C396 C395 1.428 . S
C396 C397 1.345 . S
C397 H389 0.950 . S
C397 C396 1.345 . S
C397 C398 1.424 . S
C398 H390 0.951 . S
C398 C397 1.424 . S
C398 C399 1.347 . S
C399 H391 0.951 . S
C399 C394 1.429 . S
C399 C398 1.347 . S
H400 C401 0.951 . S
C401 H400 0.951 . S
C401 C407 1.265 . S
H402 C407 0.950 . S
H403 C411 0.949 . S
H404 C412 0.950 . S
H405 C413 0.951 . S
H406 C414 0.951 . S
C407 C401 1.265 . S
C407 H402 0.950 . S
C407 C408 1.478 . S
C408 C407 1.478 . S
C408 C409 1.397 . S
C408 C425 1.394 . S
C409 C408 1.397 . S
C409 C410 1.438 . S
C409 C414 1.429 . S
C410 C409 1.438 . S
C410 C411 1.428 . S
C410 C423 1.394 . S
C411 H403 0.949 . S
C411 C410 1.428 . S
C411 C412 1.345 . S
C412 H404 0.950 . S
C412 C411 1.345 . S
C412 C413 1.424 . S
C413 H405 0.951 . S
C413 C412 1.424 . S
C413 C414 1.347 . S
C414 H406 0.951 . S
C414 C409 1.429 . S
C414 C413 1.347 . S
H415 C416 0.951 . S
C416 H415 0.951 . S
C416 C422 1.265 . S
H417 C422 0.950 . S
H418 C426 0.949 . S
H419 C427 0.950 . S
H420 C428 0.951 . S
H421 C429 0.951 . S
C422 C416 1.265 . S
C422 H417 0.950 . S
C422 C423 1.478 . S
C423 C410 1.394 . S
C423 C422 1.478 . S
C423 C424 1.401 . S
C424 C423 1.401 . S
C424 C425 1.440 . S
C424 C429 1.423 1_655 S
C425 C408 1.394 . S
C425 C424 1.440 . S
C425 C426 1.428 1_655 S
C426 H418 0.949 . S
C426 C425 1.428 1_455 S
C426 C427 1.345 . S
C427 H419 0.950 . S
C427 C426 1.345 . S
C427 C428 1.424 . S
C428 H420 0.951 . S
C428 C427 1.424 . S
C428 C429 1.347 . S
C429 H421 0.951 . S
C429 C424 1.423 1_455 S
C429 C428 1.347 . S
H430 C431 0.951 . S
C431 H430 0.951 . S
C431 C437 1.265 . S
H432 C437 0.950 . S
H433 C441 0.949 . S
H434 C442 0.950 . S
H435 C443 0.951 . S
H436 C444 0.951 . S
C437 C431 1.265 . S
C437 H432 0.950 . S
C437 C438 1.478 . S
C438 C437 1.478 . S
C438 C439 1.397 . S
C438 C455 1.394 . S
C439 C438 1.397 . S
C439 C440 1.438 . S
C439 C444 1.429 . S
C440 C439 1.438 . S
C440 C441 1.428 . S
C440 C453 1.394 . S
C441 H433 0.949 . S
C441 C440 1.428 . S
C441 C442 1.345 1_655 S
C442 H434 0.950 . S
C442 C441 1.345 1_455 S
C442 C443 1.424 . S
C443 H435 0.951 . S
C443 C442 1.424 . S
C443 C444 1.347 1_455 S
C444 H436 0.951 . S
C444 C439 1.429 . S
C444 C443 1.347 1_655 S
H445 C446 0.951 1_455 S
C446 H445 0.951 1_655 S
C446 C452 1.265 . S
H447 C452 0.950 . S
H448 C456 0.949 . S
H449 C457 0.950 . S
H450 C458 0.951 . S
H451 C459 0.951 . S
C452 C446 1.265 . S
C452 H447 0.950 . S
C452 C453 1.478 . S
C453 C440 1.394 . S
C453 C452 1.478 . S
C453 C454 1.397 . S
C454 C453 1.397 . S
C454 C455 1.438 . S
C454 C459 1.429 . S
C455 C438 1.394 . S
C455 C454 1.438 . S
C455 C456 1.428 . S
C456 H448 0.949 . S
C456 C455 1.428 . S
C456 C457 1.345 . S
C457 H449 0.950 . S
C457 C456 1.345 . S
C457 C458 1.424 . S
C458 H450 0.951 . S
C458 C457 1.424 . S
C458 C459 1.347 . S
C459 H451 0.951 . S
C459 C454 1.429 . S
C459 C458 1.347 . S
H460 C461 0.951 1_655 S
C461 H460 0.951 1_455 S
C461 C467 1.265 . S
H462 C467 0.950 . S
H463 C471 0.949 . S
H464 C472 0.950 . S
H465 C473 0.951 . S
H466 C474 0.951 . S
C467 C461 1.265 . S
C467 H462 0.950 . S
C467 C468 1.478 . S
C468 C467 1.478 . S
C468 C469 1.397 . S
C468 C485 1.394 . S
C469 C468 1.397 . S
C469 C470 1.438 . S
C469 C474 1.429 . S
C470 C469 1.438 . S
C470 C471 1.428 . S
C470 C483 1.394 . S
C471 H463 0.949 . S
C471 C470 1.428 . S
C471 C472 1.345 . S
C472 H464 0.950 . S
C472 C471 1.345 . S
C472 C473 1.424 . S
C473 H465 0.951 . S
C473 C472 1.424 . S
C473 C474 1.347 . S
C474 H466 0.951 . S
C474 C469 1.429 . S
C474 C473 1.347 . S
H475 C476 0.951 . S
C476 H475 0.951 . S
C476 C482 1.265 . S
H477 C482 0.950 . S
H478 C486 0.949 . S
H479 C487 0.950 . S
H480 C488 0.951 1_655 S
H481 C489 0.951 . S
C482 C476 1.265 . S
C482 H477 0.950 . S
C482 C483 1.478 . S
C483 C470 1.394 . S
C483 C482 1.478 . S
C483 C484 1.397 . S
C484 C483 1.397 . S
C484 C485 1.438 . S
C484 C489 1.429 . S
C485 C468 1.394 . S
C485 C484 1.438 . S
C485 C486 1.428 . S
C486 H478 0.949 . S
C486 C485 1.428 . S
C486 C487 1.345 1_455 S
C487 H479 0.950 . S
C487 C486 1.345 1_655 S
C487 C488 1.424 1_655 S
C488 H480 0.951 1_455 S
C488 C487 1.424 1_455 S
C488 C489 1.347 . S
C489 H481 0.951 . S
C489 C484 1.429 . S
C489 C488 1.347 . S
H490 C491 0.951 . S
C491 H490 0.951 . S
C491 C497 1.265 . S
H492 C497 0.950 . S
H493 C501 0.949 . S
H494 C502 0.950 1_655 S
H495 C503 0.951 . S
H496 C504 0.951 . S
C497 C491 1.265 . S
C497 H492 0.950 . S
C497 C498 1.478 . S
C498 C497 1.478 . S
C498 C499 1.397 . S
C498 C515 1.394 . S
C499 C498 1.397 . S
C499 C500 1.438 . S
C499 C504 1.429 . S
C500 C499 1.438 . S
C500 C501 1.428 . S
C500 C513 1.394 . S
C501 H493 0.949 . S
C501 C500 1.428 . S
C501 C502 1.345 . S
C502 H494 0.950 1_455 S
C502 C501 1.345 . S
C502 C503 1.424 . S
C503 H495 0.951 . S
C503 C502 1.424 . S
C503 C504 1.347 . S
C504 H496 0.951 . S
C504 C499 1.429 . S
C504 C503 1.347 . S
H505 C506 0.951 1_655 S
C506 H505 0.951 1_455 S
C506 C512 1.265 . S
H507 C512 0.950 . S
H508 C516 0.949 . S
H509 C517 0.950 . S
H510 C518 0.951 . S
H511 C519 0.951 . S
C512 C506 1.265 . S
C512 H507 0.950 . S
C512 C513 1.478 . S
C513 C500 1.394 . S
C513 C512 1.478 . S
C513 C514 1.397 . S
C514 C513 1.397 . S
C514 C515 1.438 . S
C514 C519 1.429 . S
C515 C498 1.394 . S
C515 C514 1.438 . S
C515 C516 1.428 . S
C516 H508 0.949 . S
C516 C515 1.428 . S
C516 C517 1.345 . S
C517 H509 0.950 . S
C517 C516 1.345 . S
C517 C518 1.424 . S
C518 H510 0.951 . S
C518 C517 1.424 . S
C518 C519 1.347 . S
C519 H511 0.951 . S
C519 C514 1.429 . S
C519 C518 1.347 . S
C161 C55 1.489 1_554 S
C176 C2 1.489 . S
C191 C82 1.518 . S
C206 C135 1.518 . S
C221 C15 1.489 1_554 S
C236 C42 1.489 . S
C251 C122 1.522 . S
C266 C95 1.522 . S
C281 C129 1.280 . S
C296 C22 1.266 . S
C311 C49 1.285 . S
C326 C102 1.291 . S
C341 C43 1.282 . S
C356 C106 1.275 . S
C371 C123 1.281 . S
C386 C26 1.297 . S
C401 C62 1.287 . S
C416 C89 1.269 1_655 S
C431 C142 1.270 . S
C446 C9 1.276 1_655 S
C461 C146 1.279 1_455 S
C476 C3 1.274 . S
C491 C83 1.270 . S
C506 C66 1.285 1_455 S
