# Generated by pormake.
# Topology acs-a, (4)-cn, num edge types: 1
# Building blocks:
#     Node 0, Type 0, BuildingBlock: QUQFOY_clean_sbu_1, # of connection points: 4
#     Node 1, Type 0, BuildingBlock: QUQFOY_clean_sbu_1, # of connection points: 4
#     Node 2, Type 0, BuildingBlock: QUQFOY_clean_sbu_1, # of connection points: 4
#     Node 3, Type 0, BuildingBlock: QUQFOY_clean_sbu_1, # of connection points: 4
#     Node 4, Type 0, BuildingBlock: QUQFOY_clean_sbu_1, # of connection points: 4
#     Node 5, Type 0, BuildingBlock: QUQFOY_clean_sbu_1, # of connection points: 4
#     Node 6, Type 0, BuildingBlock: QUQFOY_clean_sbu_1, # of connection points: 4
#     Node 7, Type 0, BuildingBlock: QUQFOY_clean_sbu_1, # of connection points: 4
#     Node 8, Type 0, BuildingBlock: QUQFOY_clean_sbu_1, # of connection points: 4
#     Node 9, Type 0, BuildingBlock: QUQFOY_clean_sbu_1, # of connection points: 4
#     Node 10, Type 0, BuildingBlock: QUQFOY_clean_sbu_1, # of connection points: 4
#     Node 11, Type 0, BuildingBlock: QUQFOY_clean_sbu_1, # of connection points: 4
#     Edge 12, Type (0, 0), BuildingBlock: AJUNOK_clean_linker_0, # of connection points: 2
#     Edge 13, Type (0, 0), BuildingBlock: AJUNOK_clean_linker_0, # of connection points: 2
#     Edge 14, Type (0, 0), BuildingBlock: AJUNOK_clean_linker_0, # of connection points: 2
#     Edge 15, Type (0, 0), BuildingBlock: AJUNOK_clean_linker_0, # of connection points: 2
#     Edge 16, Type (0, 0), BuildingBlock: AJUNOK_clean_linker_0, # of connection points: 2
#     Edge 17, Type (0, 0), BuildingBlock: AJUNOK_clean_linker_0, # of connection points: 2
#     Edge 18, Type (0, 0), BuildingBlock: AJUNOK_clean_linker_0, # of connection points: 2
#     Edge 19, Type (0, 0), BuildingBlock: AJUNOK_clean_linker_0, # of connection points: 2
#     Edge 20, Type (0, 0), BuildingBlock: AJUNOK_clean_linker_0, # of connection points: 2
#     Edge 21, Type (0, 0), BuildingBlock: AJUNOK_clean_linker_0, # of connection points: 2
#     Edge 22, Type (0, 0), BuildingBlock: AJUNOK_clean_linker_0, # of connection points: 2
#     Edge 23, Type (0, 0), BuildingBlock: AJUNOK_clean_linker_0, # of connection points: 2
#     Edge 24, Type (0, 0), BuildingBlock: AJUNOK_clean_linker_0, # of connection points: 2
#     Edge 25, Type (0, 0), BuildingBlock: AJUNOK_clean_linker_0, # of connection points: 2
#     Edge 26, Type (0, 0), BuildingBlock: AJUNOK_clean_linker_0, # of connection points: 2
#     Edge 27, Type (0, 0), BuildingBlock: AJUNOK_clean_linker_0, # of connection points: 2
#     Edge 28, Type (0, 0), BuildingBlock: AJUNOK_clean_linker_0, # of connection points: 2
#     Edge 29, Type (0, 0), BuildingBlock: AJUNOK_clean_linker_0, # of connection points: 2
#     Edge 30, Type (0, 0), BuildingBlock: AJUNOK_clean_linker_0, # of connection points: 2
#     Edge 31, Type (0, 0), BuildingBlock: AJUNOK_clean_linker_0, # of connection points: 2
#     Edge 32, Type (0, 0), BuildingBlock: AJUNOK_clean_linker_0, # of connection points: 2
#     Edge 33, Type (0, 0), BuildingBlock: AJUNOK_clean_linker_0, # of connection points: 2
#     Edge 34, Type (0, 0), BuildingBlock: AJUNOK_clean_linker_0, # of connection points: 2
#     Edge 35, Type (0, 0), BuildingBlock: AJUNOK_clean_linker_0, # of connection points: 2
# Relax obj value: 0.471
# Max RMSD: 0.278
# Mean RMSD: 0.247
data_MOF--net-acs-a--node1-QUQFOY_clean_sbu_1--edge1-AJUNOK_clean_linker_0
_symmetry_space_group_name_H-M    P1
_symmetry_Int_Tables_number       1
_symmetry_cell_setting            triclinic
loop_
_symmetry_equiv_pos_as_xyz
'x, y, z'
_cell_length_a     35.196837
_cell_length_b     35.210581
_cell_length_c     39.160752
_cell_angle_alpha  89.945376
_cell_angle_beta   89.918643
_cell_angle_gamma 111.76046
loop_
_atom_site_label
_atom_site_type_symbol
_atom_site_fract_x
_atom_site_fract_y
_atom_site_fract_z
_atom_type_partial_charge
O0 O 0.56601 0.16664 0.05829 0.0
Cd1 Cd 0.59041 0.12313 0.05071 0.0
Cd2 Cd 0.60617 0.13339 0.12295 0.0
O3 O 0.57091 0.16821 0.11432 0.0
O4 O 0.56653 0.09803 0.00681 0.0
O5 O 0.55404 0.06467 0.0561 0.0
C6 C 0.54707 0.06509 0.0237 0.0
C7 C 0.60777 0.11988 0.18195 0.0
C8 C 0.55919 0.1797 0.08687 0.0
C9 C 0.6773 0.15502 0.07039 0.0
O10 O 0.66389 0.15243 0.10084 0.0
O11 O 0.65259 0.1432 0.04558 0.0
O12 O 0.62567 0.15554 0.16899 0.0
O13 O 0.5887 0.09055 0.16128 0.0
O14 O 0.34215 0.5373 0.55635 0.0
Cd15 Cd 0.40405 0.56545 0.55157 0.0
Cd16 Cd 0.40525 0.57594 0.61978 0.0
O17 O 0.34287 0.55005 0.61138 0.0
O18 O 0.42028 0.54616 0.50879 0.0
O19 O 0.44204 0.53652 0.56005 0.0
C20 C 0.44233 0.53196 0.52728 0.0
C21 C 0.42501 0.56462 0.67478 0.0
C22 C 0.32312 0.53628 0.58406 0.0
C23 C 0.43612 0.65116 0.57455 0.0
O24 O 0.43318 0.63603 0.60433 0.0
O25 O 0.42529 0.62775 0.54887 0.0
O26 O 0.40506 0.58793 0.66916 0.0
O27 O 0.43382 0.54651 0.64912 0.0
O28 O 0.81831 0.40885 0.10416 0.0
Cd29 Cd 0.85113 0.37105 0.11048 0.0
Cd30 Cd 0.85349 0.37994 0.0405 0.0
O31 O 0.8117 0.40658 0.04824 0.0
O32 O 0.8357 0.35462 0.15838 0.0
O33 O 0.8998 0.38818 0.14341 0.0
C34 C 0.87346 0.37051 0.16689 0.0
C35 C 0.91683 0.42376 0.02331 0.0
C36 C 0.80359 0.418 0.07712 0.0
C37 C 0.82083 0.29536 0.06263 0.0
O38 O 0.83165 0.31758 0.03617 0.0
O39 O 0.82645 0.31179 0.09203 0.0
O40 O 0.88789 0.40764 0.00139 0.0
O41 O 0.91013 0.41247 0.05493 0.0
O42 O 0.39716 0.81022 0.53932 0.0
Cd43 Cd 0.37277 0.85426 0.53548 0.0
Cd44 Cd 0.3685 0.84931 0.60576 0.0
O45 O 0.40602 0.81724 0.59491 0.0
O46 O 0.4005 0.8912 0.49777 0.0
O47 O 0.40771 0.90887 0.5526 0.0
C48 C 0.41832 0.91786 0.52106 0.0
C49 C 0.36936 0.8675 0.66353 0.0
C50 C 0.41148 0.80191 0.56679 0.0
C51 C 0.28999 0.82265 0.56093 0.0
O52 O 0.30837 0.82573 0.58929 0.0
O53 O 0.31037 0.83495 0.53368 0.0
O54 O 0.35437 0.83031 0.65334 0.0
O55 O 0.38599 0.89554 0.64106 0.0
O56 O 0.63423 0.43826 0.06018 0.0
Cd57 Cd 0.57174 0.41575 0.05922 0.0
Cd58 Cd 0.57709 0.41633 0.12631 0.0
O59 O 0.63882 0.44455 0.11602 0.0
O60 O 0.55421 0.4338 0.01644 0.0
O61 O 0.54072 0.45165 0.06808 0.0
C62 C 0.53771 0.45363 0.03525 0.0
C63 C 0.55353 0.43381 0.17743 0.0
C64 C 0.65591 0.44822 0.08695 0.0
C65 C 0.5418 0.33437 0.09014 0.0
O66 O 0.55335 0.35408 0.11779 0.0
O67 O 0.54442 0.35358 0.06229 0.0
O68 O 0.57909 0.41567 0.17673 0.0
O69 O 0.54144 0.44355 0.14885 0.0
O70 O 0.15816 0.56795 0.60672 0.0
Cd71 Cd 0.12579 0.60497 0.61753 0.0
Cd72 Cd 0.11771 0.59371 0.54525 0.0
O73 O 0.16018 0.56745 0.55064 0.0
O74 O 0.15118 0.62064 0.66297 0.0
O75 O 0.08498 0.58799 0.65744 0.0
C76 C 0.11615 0.60356 0.67721 0.0
C77 C 0.05605 0.55189 0.52293 0.0
C78 C 0.17084 0.5577 0.5792 0.0
C79 C 0.14978 0.67925 0.56813 0.0
O80 O 0.13868 0.65608 0.54228 0.0
O81 O 0.14633 0.66402 0.59799 0.0
O82 O 0.08711 0.57003 0.5034 0.0
O83 O 0.05979 0.55942 0.55534 0.0
O84 O 0.81219 0.40966 0.42392 0.0
Cd85 Cd 0.85414 0.38468 0.43656 0.0
Cd86 Cd 0.84894 0.36352 0.36749 0.0
O87 O 0.80957 0.39485 0.36923 0.0
O88 O 0.87862 0.41211 0.47952 0.0
O89 O 0.91328 0.41862 0.43115 0.0
C90 C 0.91239 0.42859 0.46285 0.0
C91 C 0.87315 0.36307 0.31157 0.0
C92 C 0.79818 0.41087 0.39431 0.0
C93 C 0.82397 0.29611 0.42231 0.0
O94 O 0.82991 0.30692 0.39117 0.0
O95 O 0.8324 0.32296 0.44563 0.0
O96 O 0.83631 0.34186 0.32053 0.0
O97 O 0.89766 0.38479 0.33467 0.0
O98 O 0.31773 0.84128 0.94313 0.0
Cd99 Cd 0.38 0.86345 0.93792 0.0
Cd100 Cd 0.36667 0.85253 0.86735 0.0
O101 O 0.30819 0.83039 0.88795 0.0
O102 O 0.40417 0.89277 0.9802 0.0
O103 O 0.41406 0.92183 0.92899 0.0
C104 C 0.42211 0.92445 0.96132 0.0
C105 C 0.36565 0.86961 0.80935 0.0
C106 C 0.2938 0.82776 0.91804 0.0
C107 C 0.41496 0.80856 0.90378 0.0
O108 O 0.40342 0.81924 0.87589 0.0
O109 O 0.4067 0.82141 0.93198 0.0
O110 O 0.34886 0.8329 0.82048 0.0
O111 O 0.38416 0.89782 0.83111 0.0
O112 O 0.62058 0.41374 0.36779 0.0
Cd113 Cd 0.55769 0.39615 0.3668 0.0
Cd114 Cd 0.57129 0.41471 0.43131 0.0
O115 O 0.63179 0.44134 0.41887 0.0
O116 O 0.54658 0.38445 0.31764 0.0
O117 O 0.53394 0.43417 0.34362 0.0
C118 C 0.53427 0.41445 0.31596 0.0
C119 C 0.53759 0.45067 0.45888 0.0
C120 C 0.64539 0.43323 0.39092 0.0
C121 C 0.53104 0.32648 0.41542 0.0
O122 O 0.55008 0.35264 0.43777 0.0
O123 O 0.52599 0.33836 0.38575 0.0
O124 O 0.56257 0.43801 0.47504 0.0
O125 O 0.53252 0.44339 0.42647 0.0
O126 O 0.16987 0.57752 0.95355 0.0
Cd127 Cd 0.1251 0.60096 0.95733 0.0
Cd128 Cd 0.12925 0.60317 0.88523 0.0
O129 O 0.1599 0.5651 0.89861 0.0
O130 O 0.09249 0.57654 -0.00178 0.0
O131 O 0.06913 0.56363 0.94509 0.0
C132 C 0.06359 0.55621 0.97749 0.0
C133 C 0.11838 0.59978 0.82564 0.0
C134 C 0.17666 0.56138 0.92648 0.0
C135 C 0.15485 0.68289 0.92892 0.0
O136 O 0.15171 0.6638 0.90086 0.0
O137 O 0.14311 0.6632 0.95656 0.0
O138 O 0.15396 0.61492 0.83914 0.0
O139 O 0.08752 0.58616 0.84608 0.0
O140 O 0.66049 0.14694 0.46322 0.0
Cd141 Cd 0.59813 0.12742 0.46176 0.0
Cd142 Cd 0.60406 0.1319 0.38907 0.0
O143 O 0.66367 0.15294 0.40719 0.0
O144 O 0.57212 0.09386 0.50178 0.0
O145 O 0.56281 0.07124 0.44828 0.0
C146 C 0.5536 0.06505 0.48036 0.0
C147 C 0.60443 0.11955 0.32983 0.0
C148 C 0.68138 0.15698 0.43598 0.0
C149 C 0.55927 0.17839 0.42845 0.0
O150 O 0.56603 0.16331 0.40067 0.0
O151 O 0.57309 0.17074 0.45642 0.0
O152 O 0.61995 0.15542 0.34279 0.0
O153 O 0.58751 0.08946 0.35051 0.0
O154 O 0.34394 0.54307 0.88716 0.0
Cd155 Cd 0.40385 0.57384 0.87218 0.0
Cd156 Cd 0.4153 0.57881 0.94082 0.0
O157 O 0.3528 0.55442 0.94235 0.0
O158 O 0.39505 0.57585 0.82241 0.0
O159 O 0.43697 0.54841 0.84375 0.0
C160 C 0.42103 0.55878 0.81747 0.0
C161 C 0.45128 0.54495 0.96829 0.0
C162 C 0.32915 0.54106 0.91704 0.0
C163 C 0.44008 0.65782 0.90632 0.0
O164 O 0.44074 0.64074 0.9347 0.0
O165 O 0.42633 0.63624 0.87992 0.0
O166 O 0.43443 0.56602 0.98512 0.0
O167 O 0.44777 0.54349 0.93538 0.0
C168 C 0.63659 0.14599 0.27406 0.0
C169 C 0.6068 0.11461 0.29243 0.0
C170 C 0.63755 0.14597 0.23847 0.0
C171 C 0.60869 0.11462 0.21947 0.0
H172 H 0.659 0.17155 0.28724 0.0
H173 H 0.66061 0.17158 0.22579 0.0
S174 S 0.52625 0.02336 0.25519 0.0
N175 N 0.54927 0.04968 0.28915 0.0
N176 N 0.55092 0.04969 0.22169 0.0
C177 C 0.57994 0.08176 0.23739 0.0
C178 C 0.57903 0.08175 0.27401 0.0
C179 C 0.41729 0.52225 0.72717 0.0
C180 C 0.43651 0.55964 0.71004 0.0
C181 C 0.41618 0.5207 0.76309 0.0
C182 C 0.43472 0.55639 0.78245 0.0
H183 H 0.39971 0.49506 0.71292 0.0
H184 H 0.39775 0.49237 0.7756 0.0
S185 S 0.49332 0.66031 0.74947 0.0
N186 N 0.47784 0.63193 0.7149 0.0
N187 N 0.47623 0.62886 0.78215 0.0
C188 C 0.45716 0.59293 0.76551 0.0
C189 C 0.45797 0.5946 0.72924 0.0
C190 C 0.86357 0.33065 0.22004 0.0
C191 C 0.88456 0.36743 0.20272 0.0
C192 C 0.86365 0.32874 0.25561 0.0
C193 C 0.88452 0.36361 0.27525 0.0
H194 H 0.84472 0.30372 0.20605 0.0
H195 H 0.84485 0.30035 0.26786 0.0
S196 S 0.94866 0.466 0.24195 0.0
N197 N 0.93055 0.43838 0.20735 0.0
N198 N 0.93054 0.43494 0.27478 0.0
C199 C 0.90884 0.39967 0.25825 0.0
C200 C 0.90886 0.40156 0.22173 0.0
C201 C 0.39886 0.90266 0.75452 0.0
C202 C 0.36392 0.87748 0.77251 0.0
C203 C 0.39987 0.90208 0.71854 0.0
C204 C 0.36597 0.87628 0.69994 0.0
H205 H 0.42638 0.92055 0.76825 0.0
H206 H 0.4281 0.91956 0.70544 0.0
S207 S 0.26481 0.81127 0.73503 0.0
N208 N 0.29294 0.83111 0.76895 0.0
N209 N 0.29486 0.83001 0.7018 0.0
C210 C 0.32988 0.854 0.71767 0.0
C211 C 0.32885 0.8546 0.75391 0.0
C212 C 0.50096 0.39837 0.25967 0.0
C213 C 0.52635 0.42794 0.28216 0.0
C214 C 0.50563 0.40372 0.22427 0.0
C215 C 0.53621 0.43849 0.21046 0.0
H216 H 0.48036 0.36917 0.26943 0.0
H217 H 0.48857 0.37839 0.20784 0.0
S218 S 0.60632 0.52722 0.2584 0.0
N219 N 0.57914 0.4955 0.28826 0.0
N220 N 0.58873 0.50496 0.2215 0.0
C221 C 0.55866 0.47014 0.23253 0.0
C222 C 0.55344 0.46502 0.26861 0.0
C223 C 0.15019 0.60832 0.7331 0.0
C224 C 0.1137 0.60076 0.71494 0.0
C225 C 0.15069 0.60713 0.7686 0.0
C226 C 0.11473 0.5984 0.78791 0.0
H227 H 0.17903 0.61526 0.71983 0.0
H228 H 0.17991 0.61335 0.78093 0.0
S229 S 0.01065 0.57562 0.753 0.0
N230 N 0.04019 0.58344 0.71882 0.0
N231 N 0.04114 0.58137 0.78626 0.0
C232 C 0.07766 0.59004 0.77028 0.0
C233 C 0.07714 0.59117 0.73367 0.0
C234 C 0.49259 -0.00455 0.02637 0.0
C235 C 0.51596 0.0296 0.00679 0.0
C236 C 0.46175 0.96214 0.01149 0.0
C237 C 0.45301 0.96154 0.97638 0.0
H238 H 0.49794 -0.00564 0.05353 0.0
H239 H 0.4449 0.93649 0.02775 0.0
S240 S 0.50518 0.04356 0.91368 0.0
N241 N 0.52814 0.06099 0.9503 0.0
N242 N 0.47012 -0.00177 0.92235 0.0
C243 C 0.47598 -0.00442 0.95644 0.0
C244 C 0.50749 0.02959 0.97162 0.0
C245 C 0.46434 0.50467 0.4754 0.0
C246 C 0.46728 0.51132 0.5109 0.0
C247 C 0.48746 0.4854 0.45886 0.0
C248 C 0.51455 0.47205 0.4771 0.0
H249 H 0.44386 0.51424 0.46011 0.0
H250 H 0.48383 0.48082 0.43152 0.0
S251 S 0.53423 0.48276 0.57051 0.0
N252 N 0.49983 0.50349 0.56382 0.0
N253 N 0.54343 0.46724 0.53273 0.0
C254 C 0.51809 0.47874 0.51264 0.0
C255 C 0.4944 0.49834 0.52952 0.0
C256 C -0.00378 0.50024 0.96692 0.0
C257 C 0.0262 0.52333 0.99024 0.0
C258 C 0.96155 0.46754 0.97784 0.0
C259 C 0.95541 0.4565 0.01253 0.0
H260 H -0.00049 0.50728 0.93989 0.0
H261 H 0.93927 0.451 0.9588 0.0
S262 S 0.02481 0.50702 0.0841 0.0
N263 N 0.04755 0.53278 0.04981 0.0
N264 N 0.98232 0.47125 0.07029 0.0
C265 C 0.98521 0.47916 0.0362 0.0
C266 C 0.02055 0.51262 0.02507 0.0
C267 C 0.49693 -0.00103 0.46748 0.0
C268 C 0.52039 0.0272 0.49186 0.0
C269 C 0.46349 0.96431 0.4772 0.0
C270 C 0.45211 0.95635 0.51171 0.0
H271 H 0.5041 0.00379 0.44054 0.0
H272 H 0.44661 0.94349 0.45735 0.0
S273 S 0.50384 0.02038 0.58577 0.0
N274 N 0.53016 0.04471 0.55223 0.0
N275 N 0.46725 0.97944 0.57048 0.0
C276 C 0.47533 0.98424 0.53646 0.0
C277 C 0.5095 0.01963 0.52653 0.0
C278 C 0.49172 0.49994 0.96727 0.0
C279 C 0.47362 0.52264 0.98622 0.0
C280 C 0.51245 0.47793 0.98343 0.0
C281 C 0.51589 0.47769 0.01923 0.0
H282 H 0.48983 0.49893 0.93965 0.0
H283 H 0.52571 0.46085 0.96759 0.0
S284 S 0.47434 0.53265 0.08074 0.0
N285 N 0.4608 0.54394 0.04289 0.0
N286 N 0.4998 0.50249 0.07324 0.0
C287 C 0.49815 0.50045 0.03857 0.0
C288 C 0.47702 0.52295 0.02209 0.0
C289 C 0.98319 0.48079 0.4593 0.0
C290 C 0.94853 0.45948 0.47915 0.0
C291 C 0.01732 0.51119 0.47361 0.0
C292 C 0.01828 0.52144 0.50842 0.0
H293 H 0.98405 0.47417 0.43235 0.0
H294 H 0.04332 0.52643 0.45718 0.0
S295 S 0.93519 0.4749 0.57162 0.0
N296 N 0.91705 0.45088 0.53555 0.0
N297 N 0.98137 0.50803 0.56245 0.0
C298 C 0.98376 0.50052 0.52862 0.0
C299 C 0.94888 0.46953 0.51401 0.0
C300 C 0.54352 0.23316 0.11921 0.0
C301 C 0.54302 0.21303 0.0881 0.0
C302 C 0.53873 0.27082 0.12005 0.0
C303 C 0.53336 0.28988 0.08981 0.0
H304 H 0.55058 0.22135 0.14293 0.0
H305 H 0.54244 0.2864 0.14437 0.0
S306 S 0.51825 0.24437 0.00301 0.0
N307 N 0.5281 0.21077 0.02724 0.0
N308 N 0.51925 0.28175 0.02883 0.0
C309 C 0.52755 0.26764 0.05913 0.0
C310 C 0.5324 0.22917 0.05827 0.0
C311 C 0.26037 0.53054 0.55165 0.0
C312 C 0.27869 0.52795 0.58305 0.0
C313 C 0.22326 0.53654 0.55047 0.0
C314 C 0.203 0.53995 0.58064 0.0
H315 H 0.27638 0.53158 0.52781 0.0
H316 H 0.21213 0.54161 0.52577 0.0
S317 S 0.23227 0.52309 0.66887 0.0
N318 N 0.26957 0.5204 0.6446 0.0
N319 N 0.19957 0.5313 0.64248 0.0
C320 C 0.21824 0.53187 0.61196 0.0
C321 C 0.25616 0.52593 0.61314 0.0
C322 C 0.78345 0.228 0.09016 0.0
C323 C 0.79393 0.25154 0.06005 0.0
C324 C 0.7477 0.19304 0.09213 0.0
C325 C 0.72108 0.18024 0.06406 0.0
H326 H 0.80084 0.2387 0.11338 0.0
H327 H 0.73904 0.17832 0.11677 0.0
S328 S 0.74156 0.22355 0.97641 0.0
N329 N 0.78015 0.25395 -0.00063 0.0
N330 N 0.7129 0.18802 0.003 0.0
C331 C 0.73464 0.1996 0.03238 0.0
C332 C 0.77116 0.23539 0.03039 0.0
C333 C 0.43757 0.75504 0.59848 0.0
C334 C 0.42945 0.7699 0.56706 0.0
C335 C 0.44442 0.71845 0.60034 0.0
C336 C 0.44326 0.69519 0.57085 0.0
H337 H 0.43571 0.77009 0.62219 0.0
H338 H 0.44728 0.7068 0.62542 0.0
S339 S 0.43515 0.72682 0.48153 0.0
N340 N 0.42951 0.76317 0.50516 0.0
N341 N 0.44226 0.69419 0.50868 0.0
C342 C 0.4406 0.71245 0.53892 0.0
C343 C 0.43364 0.74983 0.53702 0.0
C344 C 0.71967 0.44795 0.11433 0.0
C345 C 0.69984 0.45435 0.08493 0.0
C346 C 0.75541 0.43949 0.11181 0.0
C347 C 0.77273 0.43728 0.07981 0.0
H348 H 0.70574 0.44587 0.1393 0.0
H349 H 0.76766 0.43166 0.13497 0.0
S350 S 0.73936 0.46365 0.99615 0.0
N351 N 0.705 0.46669 0.02364 0.0
N352 N 0.77233 0.45094 0.01887 0.0
C353 C 0.75623 0.44891 0.0507 0.0
C354 C 0.71978 0.45751 0.05328 0.0
C355 C 0.19554 0.73659 0.53208 0.0
C356 C 0.17512 0.72321 0.56338 0.0
C357 C 0.23049 0.77256 0.53018 0.0
C358 C 0.24606 0.79623 0.55951 0.0
H359 H 0.18718 0.71722 0.5097 0.0
H360 H 0.24767 0.77927 0.5065 0.0
S361 S 0.19608 0.78159 0.64457 0.0
N362 N 0.16716 0.74174 0.62207 0.0
N363 N 0.2328 0.80926 0.61846 0.0
C364 C 0.22226 0.78655 0.58947 0.0
C365 C 0.18675 0.74998 0.59143 0.0
C366 C 0.75042 0.44133 0.41874 0.0
C367 C 0.76472 0.4265 0.39006 0.0
C368 C 0.71341 0.44747 0.41779 0.0
C369 C 0.68913 0.43885 0.38817 0.0
H370 H 0.76653 0.44583 0.44285 0.0
H371 H 0.70244 0.45607 0.4413 0.0
S372 S 0.71781 0.40956 0.30372 0.0
N373 N 0.7555 0.41088 0.32932 0.0
N374 N 0.68577 0.42235 0.32762 0.0
C375 C 0.70535 0.42865 0.35821 0.0
C376 C 0.74318 0.42246 0.35914 0.0
C377 C 0.22537 0.78436 0.89534 0.0
C378 C 0.2504 0.80082 0.92383 0.0
C379 C 0.19087 0.74827 0.89804 0.0
C380 C 0.17999 0.72732 0.92934 0.0
H381 H 0.23451 0.79715 0.8701 0.0
H382 H 0.17491 0.73483 0.87478 0.0
S383 S 0.22758 0.76486 0.01343 0.0
N384 N 0.25613 0.79892 0.98573 0.0
N385 N 0.19115 0.73096 0.99079 0.0
C386 C 0.20084 0.74692 0.9589 0.0
C387 C 0.23614 0.78379 0.95614 0.0
C388 C 0.54446 0.23546 0.4557 0.0
C389 C 0.54021 0.2095 0.42749 0.0
C390 C 0.53655 0.27143 0.45275 0.0
C391 C 0.52415 0.28283 0.42147 0.0
H392 H 0.55704 0.22979 0.47954 0.0
H393 H 0.5436 0.29201 0.4744 0.0
S394 S 0.49673 0.21916 0.34308 0.0
N395 N 0.51411 0.19298 0.36965 0.0
N396 N 0.49919 0.26064 0.36406 0.0
C397 C 0.51434 0.25432 0.39454 0.0
C398 C 0.52253 0.21768 0.39753 0.0
C399 C 0.2237 0.53595 0.89426 0.0
C400 C 0.209 0.54383 0.92587 0.0
C401 C 0.26086 0.53019 0.89195 0.0
C402 C 0.28477 0.53218 0.92117 0.0
H403 H 0.20816 0.53739 0.87072 0.0
H404 H 0.27241 0.52773 0.86673 0.0
S405 S 0.25378 0.53945 0.01087 0.0
N406 N 0.21661 0.54408 0.98766 0.0
N407 N 0.28654 0.53321 0.98334 0.0
C408 C 0.26766 0.53434 0.9533 0.0
C409 C 0.22977 0.54026 0.95565 0.0
C410 C 0.74091 0.20894 0.4651 0.0
C411 C 0.72563 0.18209 0.43749 0.0
C412 C 0.77666 0.24388 0.46162 0.0
C413 C 0.79819 0.253 0.43042 0.0
H414 H 0.72294 0.20557 0.48819 0.0
H415 H 0.78478 0.26586 0.48229 0.0
S416 S 0.77817 0.18481 0.35487 0.0
N417 N 0.74006 0.16135 0.38131 0.0
N418 N 0.80742 0.22675 0.37479 0.0
C419 C 0.78681 0.22286 0.40479 0.0
C420 C 0.75038 0.18743 0.40831 0.0
C421 C 0.44414 0.72191 0.93568 0.0
C422 C 0.44685 0.70187 0.90526 0.0
C423 C 0.43726 0.75856 0.93498 0.0
C424 C 0.43293 0.77655 0.90382 0.0
H425 H 0.44384 0.70763 0.96025 0.0
H426 H 0.43236 0.77113 0.95907 0.0
S427 S 0.44935 0.74216 0.81732 0.0
N428 N 0.4534 0.70699 0.84339 0.0
N429 N 0.4405 0.77599 0.84199 0.0
C430 C 0.44082 0.75954 0.87336 0.0
C431 C 0.44782 0.72216 0.87411 0.0
loop_
_geom_bond_atom_site_label_1
_geom_bond_atom_site_label_2
_geom_bond_distance
_geom_bond_site_symmetry_2
_ccdc_geom_bond_type
O0 Cd1 2.223 . S
O0 C8 1.315 . S
Cd1 O0 2.223 . S
Cd1 O4 2.297 . S
Cd1 O5 2.439 . S
Cd1 O11 2.240 . S
Cd2 O3 2.240 . S
Cd2 O10 2.223 . S
Cd2 O12 2.297 . S
Cd2 O13 2.439 . S
O3 Cd2 2.240 . S
O3 C8 1.279 . S
O4 Cd1 2.297 . S
O4 C6 1.247 . S
O5 Cd1 2.439 . S
O5 C6 1.208 . S
C6 O4 1.247 . S
C6 O5 1.208 . S
C7 O12 1.247 . S
C7 O13 1.208 . S
C8 O0 1.315 . S
C8 O3 1.279 . S
C9 O10 1.315 . S
C9 O11 1.279 . S
O10 Cd2 2.223 . S
O10 C9 1.315 . S
O11 Cd1 2.240 . S
O11 C9 1.279 . S
O12 Cd2 2.297 . S
O12 C7 1.247 . S
O13 Cd2 2.439 . S
O13 C7 1.208 . S
O14 Cd15 2.223 . S
O14 C22 1.315 . S
Cd15 O14 2.223 . S
Cd15 O18 2.297 . S
Cd15 O19 2.439 . S
Cd15 O25 2.240 . S
Cd16 O17 2.240 . S
Cd16 O24 2.223 . S
Cd16 O26 2.297 . S
Cd16 O27 2.439 . S
O17 Cd16 2.240 . S
O17 C22 1.279 . S
O18 Cd15 2.297 . S
O18 C20 1.247 . S
O19 Cd15 2.439 . S
O19 C20 1.208 . S
C20 O18 1.247 . S
C20 O19 1.208 . S
C21 O26 1.247 . S
C21 O27 1.208 . S
C22 O14 1.315 . S
C22 O17 1.279 . S
C23 O24 1.315 . S
C23 O25 1.279 . S
O24 Cd16 2.223 . S
O24 C23 1.315 . S
O25 Cd15 2.240 . S
O25 C23 1.279 . S
O26 Cd16 2.297 . S
O26 C21 1.247 . S
O27 Cd16 2.439 . S
O27 C21 1.208 . S
O28 Cd29 2.223 . S
O28 C36 1.315 . S
Cd29 O28 2.223 . S
Cd29 O32 2.297 . S
Cd29 O33 2.439 . S
Cd29 O39 2.240 . S
Cd30 O31 2.240 . S
Cd30 O38 2.223 . S
Cd30 O40 2.297 . S
Cd30 O41 2.439 . S
O31 Cd30 2.240 . S
O31 C36 1.279 . S
O32 Cd29 2.297 . S
O32 C34 1.247 . S
O33 Cd29 2.439 . S
O33 C34 1.208 . S
C34 O32 1.247 . S
C34 O33 1.208 . S
C35 O40 1.247 . S
C35 O41 1.208 . S
C36 O28 1.315 . S
C36 O31 1.279 . S
C37 O38 1.315 . S
C37 O39 1.279 . S
O38 Cd30 2.223 . S
O38 C37 1.315 . S
O39 Cd29 2.240 . S
O39 C37 1.279 . S
O40 Cd30 2.297 . S
O40 C35 1.247 . S
O41 Cd30 2.439 . S
O41 C35 1.208 . S
O42 Cd43 2.223 . S
O42 C50 1.315 . S
Cd43 O42 2.223 . S
Cd43 O46 2.297 . S
Cd43 O47 2.439 . S
Cd43 O53 2.240 . S
Cd44 O45 2.240 . S
Cd44 O52 2.223 . S
Cd44 O54 2.297 . S
Cd44 O55 2.439 . S
O45 Cd44 2.240 . S
O45 C50 1.279 . S
O46 Cd43 2.297 . S
O46 C48 1.247 . S
O47 Cd43 2.439 . S
O47 C48 1.208 . S
C48 O46 1.247 . S
C48 O47 1.208 . S
C49 O54 1.247 . S
C49 O55 1.208 . S
C50 O42 1.315 . S
C50 O45 1.279 . S
C51 O52 1.315 . S
C51 O53 1.279 . S
O52 Cd44 2.223 . S
O52 C51 1.315 . S
O53 Cd43 2.240 . S
O53 C51 1.279 . S
O54 Cd44 2.297 . S
O54 C49 1.247 . S
O55 Cd44 2.439 . S
O55 C49 1.208 . S
O56 Cd57 2.223 . S
O56 C64 1.315 . S
Cd57 O56 2.223 . S
Cd57 O60 2.297 . S
Cd57 O61 2.439 . S
Cd57 O67 2.240 . S
Cd58 O59 2.240 . S
Cd58 O66 2.223 . S
Cd58 O68 2.297 . S
Cd58 O69 2.439 . S
O59 Cd58 2.240 . S
O59 C64 1.279 . S
O60 Cd57 2.297 . S
O60 C62 1.247 . S
O61 Cd57 2.439 . S
O61 C62 1.208 . S
C62 O60 1.247 . S
C62 O61 1.208 . S
C63 O68 1.247 . S
C63 O69 1.208 . S
C64 O56 1.315 . S
C64 O59 1.279 . S
C65 O66 1.315 . S
C65 O67 1.279 . S
O66 Cd58 2.223 . S
O66 C65 1.315 . S
O67 Cd57 2.240 . S
O67 C65 1.279 . S
O68 Cd58 2.297 . S
O68 C63 1.247 . S
O69 Cd58 2.439 . S
O69 C63 1.208 . S
O70 Cd71 2.223 . S
O70 C78 1.315 . S
Cd71 O70 2.223 . S
Cd71 O74 2.297 . S
Cd71 O75 2.439 . S
Cd71 O81 2.240 . S
Cd72 O73 2.240 . S
Cd72 O80 2.223 . S
Cd72 O82 2.297 . S
Cd72 O83 2.439 . S
O73 Cd72 2.240 . S
O73 C78 1.279 . S
O74 Cd71 2.297 . S
O74 C76 1.247 . S
O75 Cd71 2.439 . S
O75 C76 1.208 . S
C76 O74 1.247 . S
C76 O75 1.208 . S
C77 O82 1.247 . S
C77 O83 1.208 . S
C78 O70 1.315 . S
C78 O73 1.279 . S
C79 O80 1.315 . S
C79 O81 1.279 . S
O80 Cd72 2.223 . S
O80 C79 1.315 . S
O81 Cd71 2.240 . S
O81 C79 1.279 . S
O82 Cd72 2.297 . S
O82 C77 1.247 . S
O83 Cd72 2.439 . S
O83 C77 1.208 . S
O84 Cd85 2.223 . S
O84 C92 1.315 . S
Cd85 O84 2.223 . S
Cd85 O88 2.297 . S
Cd85 O89 2.439 . S
Cd85 O95 2.240 . S
Cd86 O87 2.240 . S
Cd86 O94 2.223 . S
Cd86 O96 2.297 . S
Cd86 O97 2.439 . S
O87 Cd86 2.240 . S
O87 C92 1.279 . S
O88 Cd85 2.297 . S
O88 C90 1.247 . S
O89 Cd85 2.439 . S
O89 C90 1.208 . S
C90 O88 1.247 . S
C90 O89 1.208 . S
C91 O96 1.247 . S
C91 O97 1.208 . S
C92 O84 1.315 . S
C92 O87 1.279 . S
C93 O94 1.315 . S
C93 O95 1.279 . S
O94 Cd86 2.223 . S
O94 C93 1.315 . S
O95 Cd85 2.240 . S
O95 C93 1.279 . S
O96 Cd86 2.297 . S
O96 C91 1.247 . S
O97 Cd86 2.439 . S
O97 C91 1.208 . S
O98 Cd99 2.223 . S
O98 C106 1.315 . S
Cd99 O98 2.223 . S
Cd99 O102 2.297 . S
Cd99 O103 2.439 . S
Cd99 O109 2.240 . S
Cd100 O101 2.240 . S
Cd100 O108 2.223 . S
Cd100 O110 2.297 . S
Cd100 O111 2.439 . S
O101 Cd100 2.240 . S
O101 C106 1.279 . S
O102 Cd99 2.297 . S
O102 C104 1.247 . S
O103 Cd99 2.439 . S
O103 C104 1.208 . S
C104 O102 1.247 . S
C104 O103 1.208 . S
C105 O110 1.247 . S
C105 O111 1.208 . S
C106 O98 1.315 . S
C106 O101 1.279 . S
C107 O108 1.315 . S
C107 O109 1.279 . S
O108 Cd100 2.223 . S
O108 C107 1.315 . S
O109 Cd99 2.240 . S
O109 C107 1.279 . S
O110 Cd100 2.297 . S
O110 C105 1.247 . S
O111 Cd100 2.439 . S
O111 C105 1.208 . S
O112 Cd113 2.223 . S
O112 C120 1.315 . S
Cd113 O112 2.223 . S
Cd113 O116 2.297 . S
Cd113 O117 2.439 . S
Cd113 O123 2.240 . S
Cd114 O115 2.240 . S
Cd114 O122 2.223 . S
Cd114 O124 2.297 . S
Cd114 O125 2.439 . S
O115 Cd114 2.240 . S
O115 C120 1.279 . S
O116 Cd113 2.297 . S
O116 C118 1.247 . S
O117 Cd113 2.439 . S
O117 C118 1.208 . S
C118 O116 1.247 . S
C118 O117 1.208 . S
C119 O124 1.247 . S
C119 O125 1.208 . S
C120 O112 1.315 . S
C120 O115 1.279 . S
C121 O122 1.315 . S
C121 O123 1.279 . S
O122 Cd114 2.223 . S
O122 C121 1.315 . S
O123 Cd113 2.240 . S
O123 C121 1.279 . S
O124 Cd114 2.297 . S
O124 C119 1.247 . S
O125 Cd114 2.439 . S
O125 C119 1.208 . S
O126 Cd127 2.223 . S
O126 C134 1.315 . S
Cd127 O126 2.223 . S
Cd127 O130 2.297 . S
Cd127 O131 2.439 . S
Cd127 O137 2.240 . S
Cd128 O129 2.240 . S
Cd128 O136 2.223 . S
Cd128 O138 2.297 . S
Cd128 O139 2.439 . S
O129 Cd128 2.240 . S
O129 C134 1.279 . S
O130 Cd127 2.297 . S
O130 C132 1.247 . S
O131 Cd127 2.439 . S
O131 C132 1.208 . S
C132 O130 1.247 . S
C132 O131 1.208 . S
C133 O138 1.247 . S
C133 O139 1.208 . S
C134 O126 1.315 . S
C134 O129 1.279 . S
C135 O136 1.315 . S
C135 O137 1.279 . S
O136 Cd128 2.223 . S
O136 C135 1.315 . S
O137 Cd127 2.240 . S
O137 C135 1.279 . S
O138 Cd128 2.297 . S
O138 C133 1.247 . S
O139 Cd128 2.439 . S
O139 C133 1.208 . S
O140 Cd141 2.223 . S
O140 C148 1.315 . S
Cd141 O140 2.223 . S
Cd141 O144 2.297 . S
Cd141 O145 2.439 . S
Cd141 O151 2.240 . S
Cd142 O143 2.240 . S
Cd142 O150 2.223 . S
Cd142 O152 2.297 . S
Cd142 O153 2.439 . S
O143 Cd142 2.240 . S
O143 C148 1.279 . S
O144 Cd141 2.297 . S
O144 C146 1.247 . S
O145 Cd141 2.439 . S
O145 C146 1.208 . S
C146 O144 1.247 . S
C146 O145 1.208 . S
C147 O152 1.247 . S
C147 O153 1.208 . S
C148 O140 1.315 . S
C148 O143 1.279 . S
C149 O150 1.315 . S
C149 O151 1.279 . S
O150 Cd142 2.223 . S
O150 C149 1.315 . S
O151 Cd141 2.240 . S
O151 C149 1.279 . S
O152 Cd142 2.297 . S
O152 C147 1.247 . S
O153 Cd142 2.439 . S
O153 C147 1.208 . S
O154 Cd155 2.223 . S
O154 C162 1.315 . S
Cd155 O154 2.223 . S
Cd155 O158 2.297 . S
Cd155 O159 2.439 . S
Cd155 O165 2.240 . S
Cd156 O157 2.240 . S
Cd156 O164 2.223 . S
Cd156 O166 2.297 . S
Cd156 O167 2.439 . S
O157 Cd156 2.240 . S
O157 C162 1.279 . S
O158 Cd155 2.297 . S
O158 C160 1.247 . S
O159 Cd155 2.439 . S
O159 C160 1.208 . S
C160 O158 1.247 . S
C160 O159 1.208 . S
C161 O166 1.247 . S
C161 O167 1.208 . S
C162 O154 1.315 . S
C162 O157 1.279 . S
C163 O164 1.315 . S
C163 O165 1.279 . S
O164 Cd156 2.223 . S
O164 C163 1.315 . S
O165 Cd155 2.240 . S
O165 C163 1.279 . S
O166 Cd156 2.297 . S
O166 C161 1.247 . S
O167 Cd156 2.439 . S
O167 C161 1.208 . S
C168 C169 1.369 . S
C168 C170 1.419 . S
C168 H172 0.930 . S
C169 C168 1.369 . S
C169 C178 1.429 . S
C170 C168 1.419 . S
C170 C171 1.363 . S
C170 H173 0.929 . S
C171 C170 1.363 . S
C171 C177 1.428 . S
H172 C168 0.930 . S
H173 C170 0.929 . S
S174 N175 1.613 . S
S174 N176 1.610 . S
N175 S174 1.613 . S
N175 C178 1.350 . S
N176 S174 1.610 . S
N176 C177 1.351 . S
C177 C171 1.428 . S
C177 N176 1.351 . S
C177 C178 1.434 . S
C178 C169 1.429 . S
C178 N175 1.350 . S
C178 C177 1.434 . S
C179 C180 1.369 . S
C179 C181 1.419 . S
C179 H183 0.930 . S
C180 C179 1.369 . S
C180 C189 1.429 . S
C181 C179 1.419 . S
C181 C182 1.363 . S
C181 H184 0.929 . S
C182 C181 1.363 . S
C182 C188 1.428 . S
H183 C179 0.930 . S
H184 C181 0.929 . S
S185 N186 1.613 . S
S185 N187 1.610 . S
N186 S185 1.613 . S
N186 C189 1.350 . S
N187 S185 1.610 . S
N187 C188 1.351 . S
C188 C182 1.428 . S
C188 N187 1.351 . S
C188 C189 1.434 . S
C189 C180 1.429 . S
C189 N186 1.350 . S
C189 C188 1.434 . S
C190 C191 1.369 . S
C190 C192 1.419 . S
C190 H194 0.930 . S
C191 C190 1.369 . S
C191 C200 1.429 . S
C192 C190 1.419 . S
C192 C193 1.363 . S
C192 H195 0.929 . S
C193 C192 1.363 . S
C193 C199 1.428 . S
H194 C190 0.930 . S
H195 C192 0.929 . S
S196 N197 1.613 . S
S196 N198 1.610 . S
N197 S196 1.613 . S
N197 C200 1.350 . S
N198 S196 1.610 . S
N198 C199 1.351 . S
C199 C193 1.428 . S
C199 N198 1.351 . S
C199 C200 1.434 . S
C200 C191 1.429 . S
C200 N197 1.350 . S
C200 C199 1.434 . S
C201 C202 1.369 . S
C201 C203 1.419 . S
C201 H205 0.930 . S
C202 C201 1.369 . S
C202 C211 1.429 . S
C203 C201 1.419 . S
C203 C204 1.363 . S
C203 H206 0.929 . S
C204 C203 1.363 . S
C204 C210 1.428 . S
H205 C201 0.930 . S
H206 C203 0.929 . S
S207 N208 1.613 . S
S207 N209 1.610 . S
N208 S207 1.613 . S
N208 C211 1.350 . S
N209 S207 1.610 . S
N209 C210 1.351 . S
C210 C204 1.428 . S
C210 N209 1.351 . S
C210 C211 1.434 . S
C211 C202 1.429 . S
C211 N208 1.350 . S
C211 C210 1.434 . S
C212 C213 1.369 . S
C212 C214 1.419 . S
C212 H216 0.930 . S
C213 C212 1.369 . S
C213 C222 1.429 . S
C214 C212 1.419 . S
C214 C215 1.363 . S
C214 H217 0.929 . S
C215 C214 1.363 . S
C215 C221 1.428 . S
H216 C212 0.930 . S
H217 C214 0.929 . S
S218 N219 1.613 . S
S218 N220 1.610 . S
N219 S218 1.613 . S
N219 C222 1.350 . S
N220 S218 1.610 . S
N220 C221 1.351 . S
C221 C215 1.428 . S
C221 N220 1.351 . S
C221 C222 1.434 . S
C222 C213 1.429 . S
C222 N219 1.350 . S
C222 C221 1.434 . S
C223 C224 1.369 . S
C223 C225 1.419 . S
C223 H227 0.930 . S
C224 C223 1.369 . S
C224 C233 1.429 . S
C225 C223 1.419 . S
C225 C226 1.363 . S
C225 H228 0.929 . S
C226 C225 1.363 . S
C226 C232 1.428 . S
H227 C223 0.930 . S
H228 C225 0.929 . S
S229 N230 1.613 . S
S229 N231 1.610 . S
N230 S229 1.613 . S
N230 C233 1.350 . S
N231 S229 1.610 . S
N231 C232 1.351 . S
C232 C226 1.428 . S
C232 N231 1.351 . S
C232 C233 1.434 . S
C233 C224 1.429 . S
C233 N230 1.350 . S
C233 C232 1.434 . S
C234 C235 1.367 1_565 S
C234 C236 1.419 1_554 S
C234 H238 0.931 . S
C235 C234 1.367 1_545 S
C235 C244 1.429 . S
C236 C234 1.419 1_556 S
C236 C237 1.363 . S
C236 H239 0.929 . S
C237 C236 1.363 . S
C237 C243 1.428 1_565 S
H238 C234 0.931 . S
H239 C236 0.929 . S
S240 N241 1.613 . S
S240 N242 1.610 1_554 S
N241 S240 1.613 . S
N241 C244 1.350 . S
N242 S240 1.610 1_556 S
N242 C243 1.351 . S
C243 C237 1.428 1_545 S
C243 N242 1.351 . S
C243 C244 1.434 1_556 S
C244 C235 1.429 . S
C244 N241 1.350 . S
C244 C243 1.434 1_554 S
C245 C246 1.369 . S
C245 C247 1.419 . S
C245 H249 0.930 . S
C246 C245 1.369 . S
C246 C255 1.429 . S
C247 C245 1.419 . S
C247 C248 1.363 . S
C247 H250 0.929 . S
C248 C247 1.363 . S
C248 C254 1.428 . S
H249 C245 0.930 . S
H250 C247 0.929 . S
S251 N252 1.613 . S
S251 N253 1.610 . S
N252 S251 1.613 . S
N252 C255 1.350 . S
N253 S251 1.610 . S
N253 C254 1.351 . S
C254 C248 1.428 . S
C254 N253 1.351 . S
C254 C255 1.434 . S
C255 C246 1.429 . S
C255 N252 1.350 . S
C255 C254 1.434 . S
C256 C257 1.369 . S
C256 C258 1.419 1_455 S
C256 H260 0.930 . S
C257 C256 1.369 . S
C257 C266 1.429 1_556 S
C258 C256 1.419 1_655 S
C258 C259 1.363 1_556 S
C258 H261 0.929 . S
C259 C258 1.363 1_554 S
C259 C265 1.428 . S
H260 C256 0.930 . S
H261 C258 0.929 . S
S262 N263 1.613 . S
S262 N264 1.610 1_455 S
N263 S262 1.613 . S
N263 C266 1.350 . S
N264 S262 1.610 1_655 S
N264 C265 1.351 . S
C265 C259 1.428 . S
C265 N264 1.351 . S
C265 C266 1.434 1_655 S
C266 C257 1.429 1_554 S
C266 N263 1.350 . S
C266 C265 1.434 1_455 S
C267 C268 1.369 1_565 S
C267 C269 1.419 . S
C267 H271 0.930 . S
C268 C267 1.369 1_545 S
C268 C277 1.429 . S
C269 C267 1.419 . S
C269 C270 1.363 . S
C269 H272 0.929 . S
C270 C269 1.363 . S
C270 C276 1.428 1_565 S
H271 C267 0.930 . S
H272 C269 0.929 . S
S273 N274 1.613 . S
S273 N275 1.610 . S
N274 S273 1.613 . S
N274 C277 1.350 . S
N275 S273 1.610 . S
N275 C276 1.351 . S
C276 C270 1.428 1_545 S
C276 N275 1.351 . S
C276 C277 1.434 . S
C277 C268 1.429 . S
C277 N274 1.350 . S
C277 C276 1.434 . S
C278 C279 1.369 . S
C278 C280 1.411 1_556 S
C278 H282 0.930 . S
C279 C278 1.369 . S
C279 C288 1.434 . S
C280 C278 1.411 1_554 S
C280 C281 1.372 . S
C280 H283 0.929 1_554 S
C281 C280 1.372 . S
C281 C287 1.428 . S
H282 C278 0.930 . S
H283 C280 0.929 1_556 S
S284 N285 1.613 . S
S284 N286 1.610 . S
N285 S284 1.613 . S
N285 C288 1.349 1_554 S
N286 S284 1.610 . S
N286 C287 1.351 . S
C287 C281 1.428 . S
C287 N286 1.351 . S
C287 C288 1.429 1_554 S
C288 C279 1.434 . S
C288 N285 1.349 1_556 S
C288 C287 1.429 1_556 S
C289 C290 1.368 1_455 S
C289 C291 1.419 . S
C289 H293 0.931 . S
C290 C289 1.368 1_655 S
C290 C299 1.429 . S
C291 C289 1.419 . S
C291 C292 1.363 . S
C291 H294 0.929 . S
C292 C291 1.363 . S
C292 C298 1.428 1_455 S
H293 C289 0.931 . S
H294 C291 0.929 . S
S295 N296 1.613 . S
S295 N297 1.610 . S
N296 S295 1.613 . S
N296 C299 1.350 . S
N297 S295 1.610 . S
N297 C298 1.351 . S
C298 C292 1.428 1_655 S
C298 N297 1.351 . S
C298 C299 1.434 . S
C299 C290 1.429 . S
C299 N296 1.350 . S
C299 C298 1.434 . S
C300 C301 1.369 . S
C300 C302 1.419 . S
C300 H304 0.930 . S
C301 C300 1.369 . S
C301 C310 1.429 . S
C302 C300 1.419 . S
C302 C303 1.363 . S
C302 H305 0.929 . S
C303 C302 1.363 . S
C303 C309 1.428 . S
H304 C300 0.930 . S
H305 C302 0.929 . S
S306 N307 1.613 1_556 S
S306 N308 1.610 1_556 S
N307 S306 1.613 1_554 S
N307 C310 1.350 . S
N308 S306 1.610 1_554 S
N308 C309 1.351 . S
C309 C303 1.428 . S
C309 N308 1.351 . S
C309 C310 1.434 . S
C310 C301 1.429 . S
C310 N307 1.350 . S
C310 C309 1.434 . S
C311 C312 1.369 . S
C311 C313 1.419 . S
C311 H315 0.930 . S
C312 C311 1.369 . S
C312 C321 1.429 . S
C313 C311 1.419 . S
C313 C314 1.363 . S
C313 H316 0.929 . S
C314 C313 1.363 . S
C314 C320 1.428 . S
H315 C311 0.930 . S
H316 C313 0.929 . S
S317 N318 1.613 . S
S317 N319 1.610 . S
N318 S317 1.613 . S
N318 C321 1.350 . S
N319 S317 1.610 . S
N319 C320 1.351 . S
C320 C314 1.428 . S
C320 N319 1.351 . S
C320 C321 1.434 . S
C321 C312 1.429 . S
C321 N318 1.350 . S
C321 C320 1.434 . S
C322 C323 1.369 . S
C322 C324 1.419 . S
C322 H326 0.930 . S
C323 C322 1.369 . S
C323 C332 1.429 . S
C324 C322 1.419 . S
C324 C325 1.363 . S
C324 H327 0.929 . S
C325 C324 1.363 . S
C325 C331 1.428 . S
H326 C322 0.930 . S
H327 C324 0.929 . S
S328 N329 1.613 . S
S328 N330 1.610 . S
N329 S328 1.613 . S
N329 C332 1.350 . S
N330 S328 1.610 . S
N330 C331 1.351 . S
C331 C325 1.428 . S
C331 N330 1.351 . S
C331 C332 1.434 . S
C332 C323 1.429 . S
C332 N329 1.350 . S
C332 C331 1.434 . S
C333 C334 1.369 . S
C333 C335 1.419 . S
C333 H337 0.930 . S
C334 C333 1.369 . S
C334 C343 1.429 . S
C335 C333 1.419 . S
C335 C336 1.363 . S
C335 H338 0.929 . S
C336 C335 1.363 . S
C336 C342 1.428 . S
H337 C333 0.930 . S
H338 C335 0.929 . S
S339 N340 1.613 . S
S339 N341 1.610 . S
N340 S339 1.613 . S
N340 C343 1.350 . S
N341 S339 1.610 . S
N341 C342 1.351 . S
C342 C336 1.428 . S
C342 N341 1.351 . S
C342 C343 1.434 . S
C343 C334 1.429 . S
C343 N340 1.350 . S
C343 C342 1.434 . S
C344 C345 1.369 . S
C344 C346 1.419 . S
C344 H348 0.930 . S
C345 C344 1.369 . S
C345 C354 1.429 . S
C346 C344 1.419 . S
C346 C347 1.363 . S
C346 H349 0.929 . S
C347 C346 1.363 . S
C347 C353 1.428 . S
H348 C344 0.930 . S
H349 C346 0.929 . S
S350 N351 1.613 . S
S350 N352 1.610 . S
N351 S350 1.613 . S
N351 C354 1.350 . S
N352 S350 1.610 . S
N352 C353 1.351 . S
C353 C347 1.428 . S
C353 N352 1.351 . S
C353 C354 1.434 . S
C354 C345 1.429 . S
C354 N351 1.350 . S
C354 C353 1.434 . S
C355 C356 1.369 . S
C355 C357 1.419 . S
C355 H359 0.930 . S
C356 C355 1.369 . S
C356 C365 1.429 . S
C357 C355 1.419 . S
C357 C358 1.363 . S
C357 H360 0.929 . S
C358 C357 1.363 . S
C358 C364 1.428 . S
H359 C355 0.930 . S
H360 C357 0.929 . S
S361 N362 1.613 . S
S361 N363 1.610 . S
N362 S361 1.613 . S
N362 C365 1.350 . S
N363 S361 1.610 . S
N363 C364 1.351 . S
C364 C358 1.428 . S
C364 N363 1.351 . S
C364 C365 1.434 . S
C365 C356 1.429 . S
C365 N362 1.350 . S
C365 C364 1.434 . S
C366 C367 1.369 . S
C366 C368 1.419 . S
C366 H370 0.930 . S
C367 C366 1.369 . S
C367 C376 1.429 . S
C368 C366 1.419 . S
C368 C369 1.363 . S
C368 H371 0.929 . S
C369 C368 1.363 . S
C369 C375 1.428 . S
H370 C366 0.930 . S
H371 C368 0.929 . S
S372 N373 1.613 . S
S372 N374 1.610 . S
N373 S372 1.613 . S
N373 C376 1.350 . S
N374 S372 1.610 . S
N374 C375 1.351 . S
C375 C369 1.428 . S
C375 N374 1.351 . S
C375 C376 1.434 . S
C376 C367 1.429 . S
C376 N373 1.350 . S
C376 C375 1.434 . S
C377 C378 1.369 . S
C377 C379 1.419 . S
C377 H381 0.930 . S
C378 C377 1.369 . S
C378 C387 1.429 . S
C379 C377 1.419 . S
C379 C380 1.363 . S
C379 H382 0.929 . S
C380 C379 1.363 . S
C380 C386 1.428 . S
H381 C377 0.930 . S
H382 C379 0.929 . S
S383 N384 1.613 . S
S383 N385 1.610 . S
N384 S383 1.613 . S
N384 C387 1.350 . S
N385 S383 1.610 . S
N385 C386 1.351 . S
C386 C380 1.428 . S
C386 N385 1.351 . S
C386 C387 1.434 . S
C387 C378 1.429 . S
C387 N384 1.350 . S
C387 C386 1.434 . S
C388 C389 1.369 . S
C388 C390 1.419 . S
C388 H392 0.930 . S
C389 C388 1.369 . S
C389 C398 1.429 . S
C390 C388 1.419 . S
C390 C391 1.363 . S
C390 H393 0.929 . S
C391 C390 1.363 . S
C391 C397 1.428 . S
H392 C388 0.930 . S
H393 C390 0.929 . S
S394 N395 1.613 . S
S394 N396 1.610 . S
N395 S394 1.613 . S
N395 C398 1.350 . S
N396 S394 1.610 . S
N396 C397 1.351 . S
C397 C391 1.428 . S
C397 N396 1.351 . S
C397 C398 1.434 . S
C398 C389 1.429 . S
C398 N395 1.350 . S
C398 C397 1.434 . S
C399 C400 1.369 . S
C399 C401 1.419 . S
C399 H403 0.930 . S
C400 C399 1.369 . S
C400 C409 1.429 . S
C401 C399 1.419 . S
C401 C402 1.363 . S
C401 H404 0.929 . S
C402 C401 1.363 . S
C402 C408 1.428 . S
H403 C399 0.930 . S
H404 C401 0.929 . S
S405 N406 1.613 . S
S405 N407 1.610 . S
N406 S405 1.613 . S
N406 C409 1.350 . S
N407 S405 1.610 . S
N407 C408 1.351 . S
C408 C402 1.428 . S
C408 N407 1.351 . S
C408 C409 1.434 . S
C409 C400 1.429 . S
C409 N406 1.350 . S
C409 C408 1.434 . S
C410 C411 1.369 . S
C410 C412 1.419 . S
C410 H414 0.930 . S
C411 C410 1.369 . S
C411 C420 1.429 . S
C412 C410 1.419 . S
C412 C413 1.363 . S
C412 H415 0.929 . S
C413 C412 1.363 . S
C413 C419 1.428 . S
H414 C410 0.930 . S
H415 C412 0.929 . S
S416 N417 1.613 . S
S416 N418 1.610 . S
N417 S416 1.613 . S
N417 C420 1.350 . S
N418 S416 1.610 . S
N418 C419 1.351 . S
C419 C413 1.428 . S
C419 N418 1.351 . S
C419 C420 1.434 . S
C420 C411 1.429 . S
C420 N417 1.350 . S
C420 C419 1.434 . S
C421 C422 1.369 . S
C421 C423 1.419 . S
C421 H425 0.930 . S
C422 C421 1.369 . S
C422 C431 1.429 . S
C423 C421 1.419 . S
C423 C424 1.363 . S
C423 H426 0.929 . S
C424 C423 1.363 . S
C424 C430 1.428 . S
H425 C421 0.930 . S
H426 C423 0.929 . S
S427 N428 1.613 . S
S427 N429 1.610 . S
N428 S427 1.613 . S
N428 C431 1.350 . S
N429 S427 1.610 . S
N429 C430 1.351 . S
C430 C424 1.428 . S
C430 N429 1.351 . S
C430 C431 1.434 . S
C431 C422 1.429 . S
C431 N428 1.350 . S
C431 C430 1.434 . S
C169 C147 1.583 . S
C171 C7 1.552 . S
C180 C21 1.460 . S
C182 C160 1.452 . S
C191 C34 1.584 . S
C193 C91 1.546 . S
C202 C105 1.574 . S
C204 C49 1.547 . S
C213 C118 1.463 . S
C215 C63 1.455 . S
C224 C76 1.576 . S
C226 C133 1.554 . S
C235 C6 1.274 . S
C237 C104 1.180 . S
C246 C20 1.055 . S
C248 C119 1.058 . S
C257 C132 1.271 . S
C259 C35 1.175 . S
C268 C146 1.167 . S
C270 C48 1.276 . S
C279 C161 1.065 . S
C281 C62 1.064 . S
C290 C90 1.274 . S
C292 C77 1.180 . S
C301 C8 1.332 . S
C303 C65 1.357 . S
C312 C22 1.444 . S
C314 C78 1.540 . S
C323 C37 1.321 . S
C325 C9 1.403 . S
C334 C50 1.324 . S
C336 C23 1.356 . S
C345 C64 1.455 . S
C347 C36 1.539 . S
C356 C79 1.319 . S
C358 C51 1.404 . S
C367 C92 1.323 . S
C369 C120 1.356 . S
C378 C106 1.331 . S
C380 C135 1.407 . S
C389 C149 1.539 . S
C391 C121 1.446 . S
C400 C134 1.329 . S
C402 C162 1.355 . S
C411 C148 1.320 . S
C413 C93 1.404 . S
C422 C163 1.448 . S
C424 C107 1.540 . S
