# Generated by pormake.
# Topology pcu-i, (5)-cn, num edge types: 1
# Building blocks:
#     Node 0, Type 0, BuildingBlock: XOMCOT_clean_sbu_1, # of connection points: 5
#     Node 1, Type 0, BuildingBlock: XOMCOT_clean_sbu_1, # of connection points: 5
#     Node 2, Type 0, BuildingBlock: XOMCOT_clean_sbu_1, # of connection points: 5
#     Node 3, Type 0, BuildingBlock: XOMCOT_clean_sbu_1, # of connection points: 5
#     Node 4, Type 0, BuildingBlock: XOMCOT_clean_sbu_1, # of connection points: 5
#     Node 5, Type 0, BuildingBlock: XOMCOT_clean_sbu_1, # of connection points: 5
#     Node 6, Type 0, BuildingBlock: XOMCOT_clean_sbu_1, # of connection points: 5
#     Node 7, Type 0, BuildingBlock: XOMCOT_clean_sbu_1, # of connection points: 5
#     Node 8, Type 0, BuildingBlock: XOMCOT_clean_sbu_1, # of connection points: 5
#     Node 9, Type 0, BuildingBlock: XOMCOT_clean_sbu_1, # of connection points: 5
#     Node 10, Type 0, BuildingBlock: XOMCOT_clean_sbu_1, # of connection points: 5
#     Node 11, Type 0, BuildingBlock: XOMCOT_clean_sbu_1, # of connection points: 5
#     Node 12, Type 0, BuildingBlock: XOMCOT_clean_sbu_1, # of connection points: 5
#     Node 13, Type 0, BuildingBlock: XOMCOT_clean_sbu_1, # of connection points: 5
#     Node 14, Type 0, BuildingBlock: XOMCOT_clean_sbu_1, # of connection points: 5
#     Node 15, Type 0, BuildingBlock: XOMCOT_clean_sbu_1, # of connection points: 5
#     Node 16, Type 0, BuildingBlock: XOMCOT_clean_sbu_1, # of connection points: 5
#     Node 17, Type 0, BuildingBlock: XOMCOT_clean_sbu_1, # of connection points: 5
#     Node 18, Type 0, BuildingBlock: XOMCOT_clean_sbu_1, # of connection points: 5
#     Node 19, Type 0, BuildingBlock: XOMCOT_clean_sbu_1, # of connection points: 5
#     Node 20, Type 0, BuildingBlock: XOMCOT_clean_sbu_1, # of connection points: 5
#     Node 21, Type 0, BuildingBlock: XOMCOT_clean_sbu_1, # of connection points: 5
#     Node 22, Type 0, BuildingBlock: XOMCOT_clean_sbu_1, # of connection points: 5
#     Node 23, Type 0, BuildingBlock: XOMCOT_clean_sbu_1, # of connection points: 5
#     Edge 24, Type (0, 0), BuildingBlock: CIFDUS_clean_linker_0, # of connection points: 2
#     Edge 25, Type (0, 0), BuildingBlock: CIFDUS_clean_linker_0, # of connection points: 2
#     Edge 26, Type (0, 0), BuildingBlock: CIFDUS_clean_linker_0, # of connection points: 2
#     Edge 27, Type (0, 0), BuildingBlock: CIFDUS_clean_linker_0, # of connection points: 2
#     Edge 28, Type (0, 0), BuildingBlock: CIFDUS_clean_linker_0, # of connection points: 2
#     Edge 29, Type (0, 0), BuildingBlock: CIFDUS_clean_linker_0, # of connection points: 2
#     Edge 30, Type (0, 0), BuildingBlock: CIFDUS_clean_linker_0, # of connection points: 2
#     Edge 31, Type (0, 0), BuildingBlock: CIFDUS_clean_linker_0, # of connection points: 2
#     Edge 32, Type (0, 0), BuildingBlock: CIFDUS_clean_linker_0, # of connection points: 2
#     Edge 33, Type (0, 0), BuildingBlock: CIFDUS_clean_linker_0, # of connection points: 2
#     Edge 34, Type (0, 0), BuildingBlock: CIFDUS_clean_linker_0, # of connection points: 2
#     Edge 35, Type (0, 0), BuildingBlock: CIFDUS_clean_linker_0, # of connection points: 2
#     Edge 36, Type (0, 0), BuildingBlock: CIFDUS_clean_linker_0, # of connection points: 2
#     Edge 37, Type (0, 0), BuildingBlock: CIFDUS_clean_linker_0, # of connection points: 2
#     Edge 38, Type (0, 0), BuildingBlock: CIFDUS_clean_linker_0, # of connection points: 2
#     Edge 39, Type (0, 0), BuildingBlock: CIFDUS_clean_linker_0, # of connection points: 2
#     Edge 40, Type (0, 0), BuildingBlock: CIFDUS_clean_linker_0, # of connection points: 2
#     Edge 41, Type (0, 0), BuildingBlock: CIFDUS_clean_linker_0, # of connection points: 2
#     Edge 42, Type (0, 0), BuildingBlock: CIFDUS_clean_linker_0, # of connection points: 2
#     Edge 43, Type (0, 0), BuildingBlock: CIFDUS_clean_linker_0, # of connection points: 2
#     Edge 44, Type (0, 0), BuildingBlock: CIFDUS_clean_linker_0, # of connection points: 2
#     Edge 45, Type (0, 0), BuildingBlock: CIFDUS_clean_linker_0, # of connection points: 2
#     Edge 46, Type (0, 0), BuildingBlock: CIFDUS_clean_linker_0, # of connection points: 2
#     Edge 47, Type (0, 0), BuildingBlock: CIFDUS_clean_linker_0, # of connection points: 2
#     Edge 48, Type (0, 0), BuildingBlock: CIFDUS_clean_linker_0, # of connection points: 2
#     Edge 49, Type (0, 0), BuildingBlock: CIFDUS_clean_linker_0, # of connection points: 2
#     Edge 50, Type (0, 0), BuildingBlock: CIFDUS_clean_linker_0, # of connection points: 2
#     Edge 51, Type (0, 0), BuildingBlock: CIFDUS_clean_linker_0, # of connection points: 2
#     Edge 52, Type (0, 0), BuildingBlock: CIFDUS_clean_linker_0, # of connection points: 2
#     Edge 53, Type (0, 0), BuildingBlock: CIFDUS_clean_linker_0, # of connection points: 2
#     Edge 54, Type (0, 0), BuildingBlock: CIFDUS_clean_linker_0, # of connection points: 2
#     Edge 55, Type (0, 0), BuildingBlock: CIFDUS_clean_linker_0, # of connection points: 2
#     Edge 56, Type (0, 0), BuildingBlock: CIFDUS_clean_linker_0, # of connection points: 2
#     Edge 57, Type (0, 0), BuildingBlock: CIFDUS_clean_linker_0, # of connection points: 2
#     Edge 58, Type (0, 0), BuildingBlock: CIFDUS_clean_linker_0, # of connection points: 2
#     Edge 59, Type (0, 0), BuildingBlock: CIFDUS_clean_linker_0, # of connection points: 2
#     Edge 60, Type (0, 0), BuildingBlock: CIFDUS_clean_linker_0, # of connection points: 2
#     Edge 61, Type (0, 0), BuildingBlock: CIFDUS_clean_linker_0, # of connection points: 2
#     Edge 62, Type (0, 0), BuildingBlock: CIFDUS_clean_linker_0, # of connection points: 2
#     Edge 63, Type (0, 0), BuildingBlock: CIFDUS_clean_linker_0, # of connection points: 2
#     Edge 64, Type (0, 0), BuildingBlock: CIFDUS_clean_linker_0, # of connection points: 2
#     Edge 65, Type (0, 0), BuildingBlock: CIFDUS_clean_linker_0, # of connection points: 2
#     Edge 66, Type (0, 0), BuildingBlock: CIFDUS_clean_linker_0, # of connection points: 2
#     Edge 67, Type (0, 0), BuildingBlock: CIFDUS_clean_linker_0, # of connection points: 2
#     Edge 68, Type (0, 0), BuildingBlock: CIFDUS_clean_linker_0, # of connection points: 2
#     Edge 69, Type (0, 0), BuildingBlock: CIFDUS_clean_linker_0, # of connection points: 2
#     Edge 70, Type (0, 0), BuildingBlock: CIFDUS_clean_linker_0, # of connection points: 2
#     Edge 71, Type (0, 0), BuildingBlock: CIFDUS_clean_linker_0, # of connection points: 2
#     Edge 72, Type (0, 0), BuildingBlock: CIFDUS_clean_linker_0, # of connection points: 2
#     Edge 73, Type (0, 0), BuildingBlock: CIFDUS_clean_linker_0, # of connection points: 2
#     Edge 74, Type (0, 0), BuildingBlock: CIFDUS_clean_linker_0, # of connection points: 2
#     Edge 75, Type (0, 0), BuildingBlock: CIFDUS_clean_linker_0, # of connection points: 2
#     Edge 76, Type (0, 0), BuildingBlock: CIFDUS_clean_linker_0, # of connection points: 2
#     Edge 77, Type (0, 0), BuildingBlock: CIFDUS_clean_linker_0, # of connection points: 2
#     Edge 78, Type (0, 0), BuildingBlock: CIFDUS_clean_linker_0, # of connection points: 2
#     Edge 79, Type (0, 0), BuildingBlock: CIFDUS_clean_linker_0, # of connection points: 2
#     Edge 80, Type (0, 0), BuildingBlock: CIFDUS_clean_linker_0, # of connection points: 2
#     Edge 81, Type (0, 0), BuildingBlock: CIFDUS_clean_linker_0, # of connection points: 2
#     Edge 82, Type (0, 0), BuildingBlock: CIFDUS_clean_linker_0, # of connection points: 2
#     Edge 83, Type (0, 0), BuildingBlock: CIFDUS_clean_linker_0, # of connection points: 2
# Relax obj value: 0.244
# Max RMSD: 0.244
# Mean RMSD: 0.244
data_MOF--net-pcu-i--node1-XOMCOT_clean_sbu_1--edge1-CIFDUS_clean_linker_0
_symmetry_space_group_name_H-M    P1
_symmetry_Int_Tables_number       1
_symmetry_cell_setting            triclinic
loop_
_symmetry_equiv_pos_as_xyz
'x, y, z'
_cell_length_a     50.617009
_cell_length_b     50.696139
_cell_length_c     50.666906
_cell_angle_alpha  90.045784
_cell_angle_beta   89.983856
_cell_angle_gamma 89.97819
loop_
_atom_site_label
_atom_site_type_symbol
_atom_site_fract_x
_atom_site_fract_y
_atom_site_fract_z
_atom_type_partial_charge
C0 C 0.08009 0.19772 0.33106 0.0
C1 C 0.05353 0.2028 0.33096 0.0
N2 N 0.04058 0.17969 0.32908 0.0
N3 N 0.08426 0.17147 0.32977 0.0
C4 C 0.05964 0.16107 0.32767 0.0
H5 H 0.0956 0.21234 0.33219 0.0
Co6 Co 0.11926 0.15897 0.32851 0.0
C7 C 0.09444 0.10535 0.32741 0.0
O8 O 0.08083 0.10969 0.34909 0.0
N9 N 0.15436 0.14755 0.32608 0.0
C10 C 0.1975 0.14254 0.33215 0.0
C11 C 0.17449 0.15236 0.34283 0.0
C12 C 0.16564 0.13524 0.30523 0.0
N13 N 0.1919 0.13193 0.3084 0.0
O14 O 0.12063 0.17063 0.29288 0.0
H15 H 0.17268 0.16306 0.36122 0.0
H16 H 0.15488 0.12951 0.28769 0.0
O17 O 0.10844 0.1238 0.31746 0.0
C18 C 0.13405 0.19181 0.29125 0.0
O19 O 0.14607 0.20064 0.31248 0.0
N20 N 0.11859 0.14993 0.36483 0.0
C21 C 0.11958 0.14286 0.41958 0.0
C22 C 0.12763 0.12251 0.40255 0.0
C23 C 0.12736 0.12658 0.37519 0.0
C24 C 0.11223 0.17026 0.38128 0.0
C25 C 0.11215 0.16705 0.40854 0.0
H26 H 0.13453 0.1111 0.36237 0.0
H27 H 0.10794 0.18951 0.37341 0.0
H28 H 0.05539 0.1405 0.32478 0.0
H29 H 0.04447 0.2221 0.33216 0.0
H30 H 0.21705 0.14419 0.34066 0.0
H31 H 0.1341 0.10367 0.41025 0.0
H32 H 0.10705 0.18373 0.42091 0.0
C33 C 0.82448 0.07057 0.35623 0.0
C34 C 0.8289 0.04406 0.35328 0.0
N35 N 0.84526 0.04058 0.33268 0.0
N36 N 0.8381 0.08392 0.33764 0.0
C37 C 0.85039 0.065 0.32326 0.0
H38 H 0.8112 0.07949 0.37037 0.0
Co39 Co 0.83503 0.12036 0.3328 0.0
C40 C 0.88794 0.14248 0.33375 0.0
O41 O 0.87717 0.16002 0.34957 0.0
N42 N 0.83111 0.15727 0.32659 0.0
C43 C 0.82413 0.20076 0.32561 0.0
C44 C 0.82051 0.17792 0.33992 0.0
C45 C 0.84027 0.16826 0.30399 0.0
N46 N 0.8365 0.19449 0.303 0.0
O47 O 0.82555 0.1151 0.29649 0.0
H48 H 0.81101 0.17714 0.3589 0.0
H49 H 0.85062 0.1573 0.28883 0.0
O50 O 0.87356 0.12365 0.32458 0.0
C51 C 0.80038 0.11371 0.29624 0.0
O52 O 0.78827 0.11075 0.31901 0.0
N53 N 0.84133 0.12492 0.36943 0.0
C54 C 0.84476 0.12871 0.4245 0.0
C55 C 0.86556 0.11786 0.40965 0.0
C56 C 0.86328 0.11574 0.38222 0.0
C57 C 0.82013 0.13325 0.38372 0.0
C58 C 0.8217 0.13623 0.41104 0.0
H59 H 0.87892 0.10609 0.37137 0.0
H60 H 0.80159 0.13713 0.37386 0.0
H61 H 0.86164 0.06891 0.30551 0.0
H62 H 0.81967 0.02837 0.36446 0.0
H63 H 0.81812 0.22044 0.33138 0.0
H64 H 0.8832 0.11035 0.4191 0.0
H65 H 0.8048 0.14426 0.42138 0.0
C66 C 0.92528 0.81941 0.3616 0.0
C67 C 0.95125 0.82336 0.36787 0.0
N68 N 0.9612 0.84165 0.35136 0.0
N69 N 0.91858 0.8353 0.34137 0.0
C70 C 0.94101 0.84848 0.33522 0.0
H71 H 0.91202 0.8056 0.37104 0.0
Co72 Co 0.88461 0.83448 0.32737 0.0
C73 C 0.86874 0.88994 0.32259 0.0
O74 O 0.84609 0.88282 0.3331 0.0
N75 N 0.85069 0.83165 0.31234 0.0
C76 C 0.8161 0.8109 0.29457 0.0
C77 C 0.83568 0.80961 0.31333 0.0
C78 C 0.8405 0.84533 0.29171 0.0
N79 N 0.81922 0.83346 0.28105 0.0
O80 O 0.89801 0.82433 0.29337 0.0
H81 H 0.84028 0.79225 0.32478 0.0
H82 H 0.84984 0.86236 0.2829 0.0
O83 O 0.88677 0.87261 0.31846 0.0
C84 C 0.90814 0.80139 0.29113 0.0
O85 O 0.91369 0.78801 0.31259 0.0
N86 N 0.8712 0.84274 0.36178 0.0
C87 C 0.86058 0.84742 0.41604 0.0
C88 C 0.87674 0.86579 0.40307 0.0
C89 C 0.88184 0.86308 0.37609 0.0
C90 C 0.85515 0.82496 0.37407 0.0
C91 C 0.84912 0.82727 0.40087 0.0
H92 H 0.89596 0.87634 0.36718 0.0
H93 H 0.84824 0.80778 0.36385 0.0
H94 H 0.94249 0.86273 0.31939 0.0
H95 H 0.96221 0.81305 0.38304 0.0
H96 H 0.80166 0.79577 0.29022 0.0
H97 H 0.88674 0.88128 0.41385 0.0
H98 H 0.83636 0.81264 0.40978 0.0
C99 C 0.17465 0.93639 0.35437 0.0
C100 C 0.16442 0.96146 0.35349 0.0
N101 N 0.14267 0.96083 0.33832 0.0
N102 N 0.15938 0.92022 0.33972 0.0
C103 C 0.1399 0.93572 0.33019 0.0
H104 H 0.19211 0.93026 0.36503 0.0
Co105 Co 0.16607 0.88469 0.33485 0.0
C106 C 0.11424 0.85929 0.33114 0.0
O107 O 0.12399 0.84026 0.34578 0.0
N108 N 0.17363 0.84859 0.32901 0.0
C109 C 0.18886 0.8074 0.32858 0.0
C110 C 0.1868 0.83019 0.34313 0.0
C111 C 0.16811 0.83631 0.3059 0.0
N112 N 0.17722 0.81133 0.30502 0.0
O113 O 0.17638 0.89127 0.29924 0.0
H114 H 0.19498 0.83266 0.36256 0.0
H115 H 0.15798 0.84586 0.28972 0.0
O116 O 0.12893 0.87875 0.32454 0.0
C117 C 0.20025 0.89918 0.29898 0.0
O118 O 0.21194 0.90402 0.32161 0.0
N119 N 0.15844 0.8795 0.37087 0.0
C120 C 0.15376 0.87774 0.42589 0.0
C121 C 0.13199 0.88431 0.40999 0.0
C122 C 0.13487 0.88557 0.38258 0.0
C123 C 0.18017 0.87525 0.3861 0.0
C124 C 0.17815 0.87327 0.41345 0.0
H125 H 0.11847 0.89271 0.37103 0.0
H126 H 0.19943 0.87397 0.37694 0.0
H127 H 0.12411 0.92889 0.31751 0.0
H128 H 0.17212 0.97878 0.36335 0.0
H129 H 0.19824 0.78934 0.33502 0.0
H130 H 0.11312 0.88948 0.41861 0.0
H131 H 0.19574 0.86858 0.42464 0.0
C132 C 0.07528 0.81496 0.64703 0.0
C133 C 0.04827 0.81322 0.65007 0.0
N134 N 0.04143 0.82752 0.67139 0.0
N135 N 0.08508 0.83095 0.66595 0.0
C136 C 0.064 0.83794 0.6807 0.0
H137 H 0.08683 0.80639 0.63123 0.0
Co138 Co 0.11914 0.84422 0.66957 0.0
C139 C 0.10881 0.89388 0.69742 0.0
O140 O 0.12285 0.88591 0.71771 0.0
N141 N 0.15326 0.85862 0.67373 0.0
C142 C 0.18633 0.88742 0.67115 0.0
C143 C 0.16278 0.87965 0.66034 0.0
C144 C 0.17141 0.85426 0.69288 0.0
N145 N 0.19163 0.8716 0.69175 0.0
O146 O 0.11907 0.83287 0.70542 0.0
H147 H 0.15253 0.88984 0.64466 0.0
H148 H 0.16945 0.83941 0.70806 0.0
O149 O 0.10503 0.87839 0.67799 0.0
C150 C 0.12424 0.80829 0.70452 0.0
O151 O 0.12917 0.79755 0.6814 0.0
N152 N 0.11946 0.85262 0.63361 0.0
C153 C 0.1214 0.85948 0.5792 0.0
C154 C 0.10172 0.8719 0.59419 0.0
C155 C 0.10113 0.86827 0.62153 0.0
C156 C 0.1382 0.83977 0.61918 0.0
C157 C 0.13985 0.84332 0.59196 0.0
H158 H 0.08549 0.87733 0.63285 0.0
H159 H 0.15198 0.82671 0.62895 0.0
H160 H 0.06491 0.85169 0.69702 0.0
H161 H 0.03459 0.80315 0.6371 0.0
H162 H 0.19787 0.90443 0.66531 0.0
H163 H 0.08699 0.88427 0.58486 0.0
H164 H 0.15503 0.83308 0.58088 0.0
C165 C 0.15396 0.06772 0.63828 0.0
C166 C 0.14447 0.04272 0.64246 0.0
N167 N 0.13363 0.04196 0.66668 0.0
N168 N 0.14867 0.0828 0.65962 0.0
C169 C 0.13652 0.0664 0.67675 0.0
H170 H 0.16471 0.07416 0.62102 0.0
Co171 Co 0.1582 0.11786 0.66534 0.0
C172 C 0.10803 0.14642 0.66974 0.0
O173 O 0.11968 0.16524 0.65623 0.0
N174 N 0.16828 0.15309 0.67237 0.0
C175 C 0.18598 0.19323 0.67448 0.0
C176 C 0.18349 0.17077 0.65943 0.0
C177 C 0.16228 0.16529 0.69541 0.0
N178 N 0.17259 0.18974 0.69718 0.0
O179 O 0.16879 0.10957 0.70069 0.0
H180 H 0.19264 0.16797 0.64046 0.0
H181 H 0.15064 0.15614 0.7108 0.0
O182 O 0.12129 0.1258 0.67607 0.0
C183 C 0.19185 0.09948 0.6997 0.0
O184 O 0.20155 0.09329 0.67643 0.0
N185 N 0.15075 0.12503 0.62944 0.0
C186 C 0.14698 0.12661 0.57432 0.0
C187 C 0.12446 0.12254 0.58997 0.0
C188 C 0.12682 0.12131 0.61744 0.0
C189 C 0.17291 0.12787 0.61444 0.0
C190 C 0.17144 0.12943 0.587 0.0
H191 H 0.10967 0.11559 0.62871 0.0
H192 H 0.1921 0.12748 0.62376 0.0
H193 H 0.1305 0.07206 0.69647 0.0
H194 H 0.1466 0.02598 0.62933 0.0
H195 H 0.19663 0.21086 0.66889 0.0
H196 H 0.10534 0.11896 0.58107 0.0
H197 H 0.18949 0.13218 0.57586 0.0
C198 C 0.91541 0.19665 0.66438 0.0
C199 C 0.94218 0.19989 0.66276 0.0
N200 N 0.95375 0.17605 0.66487 0.0
N201 N 0.90984 0.17091 0.66755 0.0
C202 C 0.93366 0.15867 0.66804 0.0
H203 H 0.90073 0.21208 0.66292 0.0
Co204 Co 0.87465 0.16107 0.66924 0.0
C205 C 0.87127 0.1041 0.66784 0.0
O206 O 0.85283 0.10805 0.65003 0.0
N207 N 0.83801 0.15229 0.67206 0.0
C208 C 0.79434 0.14837 0.66825 0.0
C209 C 0.81706 0.15689 0.65614 0.0
C210 C 0.82715 0.14116 0.6939 0.0
N211 N 0.80069 0.13855 0.69207 0.0
O212 O 0.87434 0.17134 0.70555 0.0
H213 H 0.81749 0.16638 0.63718 0.0
H214 H 0.83853 0.13517 0.71095 0.0
O215 O 0.88346 0.12382 0.67814 0.0
C216 C 0.86231 0.19334 0.70784 0.0
O217 O 0.85139 0.20382 0.68677 0.0
N218 N 0.87583 0.15427 0.63249 0.0
C219 C 0.87704 0.14988 0.57766 0.0
C220 C 0.89238 0.13309 0.59332 0.0
C221 C 0.89189 0.13593 0.62076 0.0
C222 C 0.86347 0.17267 0.61727 0.0
C223 C 0.8629 0.17025 0.58983 0.0
H224 H 0.90451 0.12339 0.63247 0.0
H225 H 0.85385 0.18932 0.62654 0.0
H226 H 0.9362 0.13754 0.6697 0.0
H227 H 0.95241 0.21843 0.65993 0.0
H228 H 0.77452 0.15023 0.66047 0.0
H229 H 0.90439 0.11776 0.58446 0.0
H230 H 0.85186 0.18439 0.5782 0.0
C231 C 0.81762 0.92325 0.64342 0.0
C232 C 0.82178 0.95 0.64194 0.0
N233 N 0.84288 0.95599 0.65695 0.0
N234 N 0.8363 0.91242 0.65897 0.0
C235 C 0.8513 0.93294 0.66717 0.0
H236 H 0.80289 0.91215 0.63265 0.0
Co237 Co 0.8416 0.87633 0.6633 0.0
C238 C 0.89335 0.87439 0.68967 0.0
O239 O 0.88283 0.86415 0.71103 0.0
N240 N 0.84785 0.83967 0.66813 0.0
C241 C 0.87068 0.80206 0.66812 0.0
C242 C 0.86523 0.82477 0.65436 0.0
C243 C 0.84277 0.82513 0.69 0.0
N244 N 0.85687 0.80256 0.69081 0.0
O245 O 0.83074 0.87943 0.69946 0.0
H246 H 0.87549 0.83102 0.63673 0.0
H247 H 0.83136 0.83209 0.70657 0.0
O248 O 0.8785 0.88184 0.6708 0.0
C249 C 0.80558 0.87779 0.69841 0.0
O250 O 0.79452 0.87664 0.67496 0.0
N251 N 0.8491 0.87364 0.62711 0.0
C252 C 0.85297 0.87223 0.57219 0.0
C253 C 0.87012 0.88801 0.58716 0.0
C254 C 0.86782 0.8885 0.61465 0.0
C255 C 0.83202 0.85848 0.61287 0.0
C256 C 0.83387 0.85716 0.5854 0.0
H257 H 0.8803 0.9017 0.62578 0.0
H258 H 0.8166 0.84767 0.62293 0.0
H259 H 0.86904 0.93091 0.67891 0.0
H260 H 0.81099 0.96385 0.62976 0.0
H261 H 0.88513 0.78731 0.66265 0.0
H262 H 0.88501 0.90008 0.5777 0.0
H263 H 0.81992 0.84513 0.57454 0.0
C264 C 0.35706 0.07215 0.16603 0.0
C265 C 0.35799 0.04644 0.15762 0.0
N266 N 0.33875 0.04294 0.1397 0.0
N267 N 0.33749 0.08491 0.15322 0.0
C268 C 0.32635 0.0664 0.13748 0.0
H269 H 0.36962 0.08086 0.1809 0.0
Co270 Co 0.32877 0.12021 0.15862 0.0
C271 C 0.32272 0.14403 0.1062 0.0
O272 O 0.33482 0.16478 0.11597 0.0
N273 N 0.31895 0.15581 0.16476 0.0
C274 C 0.31624 0.19885 0.17334 0.0
C275 C 0.33195 0.17673 0.17509 0.0
C276 C 0.29505 0.16574 0.15781 0.0
N277 N 0.29307 0.19181 0.16244 0.0
O278 O 0.29362 0.11034 0.16864 0.0
H279 H 0.3518 0.1766 0.18273 0.0
H280 H 0.27989 0.15435 0.14794 0.0
O281 O 0.31882 0.12379 0.1209 0.0
C282 C 0.29369 0.10508 0.19325 0.0
O283 O 0.31666 0.10344 0.20525 0.0
N284 N 0.36449 0.12913 0.15159 0.0
C285 C 0.41952 0.13383 0.14919 0.0
C286 C 0.40484 0.12822 0.12642 0.0
C287 C 0.37741 0.12515 0.12817 0.0
C288 C 0.37866 0.13408 0.17394 0.0
C289 C 0.4061 0.13675 0.17318 0.0
H290 H 0.367 0.11814 0.11098 0.0
H291 H 0.36862 0.13481 0.19279 0.0
H292 H 0.3094 0.06994 0.12495 0.0
H293 H 0.37126 0.03122 0.16461 0.0
H294 H 0.32163 0.21869 0.17913 0.0
H295 H 0.41465 0.12479 0.10772 0.0
H296 H 0.41679 0.14051 0.19132 0.0
C297 C 0.9345 0.36211 0.17267 0.0
C298 C 0.96109 0.35866 0.16807 0.0
N299 N 0.96483 0.33383 0.15949 0.0
N300 N 0.92154 0.33969 0.16636 0.0
C301 C 0.94071 0.32265 0.15891 0.0
H302 H 0.92518 0.38016 0.17916 0.0
Co303 Co 0.88508 0.33451 0.16421 0.0
C304 C 0.89294 0.3018 0.11112 0.0
O305 O 0.91013 0.28238 0.11119 0.0
N306 N 0.84853 0.32814 0.16146 0.0
C307 C 0.80478 0.32921 0.15667 0.0
C308 C 0.82697 0.34393 0.16219 0.0
C309 C 0.83867 0.30388 0.15613 0.0
N310 N 0.8123 0.30405 0.15295 0.0
O311 O 0.88813 0.30316 0.1847 0.0
H312 H 0.82694 0.36485 0.16594 0.0
H313 H 0.85077 0.28646 0.15356 0.0
O314 O 0.88947 0.31514 0.13209 0.0
C315 C 0.88765 0.3088 0.20919 0.0
O316 O 0.88825 0.3338 0.21607 0.0
N317 N 0.88192 0.36672 0.14625 0.0
C318 C 0.88001 0.41876 0.12868 0.0
C319 C 0.89027 0.39885 0.11238 0.0
C320 C 0.8911 0.37275 0.1216 0.0
C321 C 0.87307 0.38615 0.16258 0.0
C322 C 0.87131 0.41215 0.15401 0.0
H323 H 0.90005 0.35779 0.10936 0.0
H324 H 0.86766 0.38137 0.18268 0.0
H325 H 0.93698 0.30279 0.15207 0.0
H326 H 0.97644 0.37335 0.17033 0.0
H327 H 0.78469 0.33643 0.15537 0.0
H328 H 0.89777 0.40349 0.0929 0.0
H329 H 0.86401 0.42715 0.1674 0.0
C330 C 0.65992 0.92421 0.11788 0.0
C331 C 0.66035 0.95116 0.11531 0.0
N332 N 0.67253 0.96128 0.13663 0.0
N333 N 0.67209 0.9173 0.14058 0.0
C334 C 0.67927 0.94042 0.15171 0.0
H335 H 0.65119 0.91048 0.10405 0.0
Co336 Co 0.67694 0.88292 0.15295 0.0
C337 C 0.70104 0.8801 0.09976 0.0
O338 O 0.71568 0.90107 0.10399 0.0
N339 N 0.68197 0.84882 0.16487 0.0
C340 C 0.68106 0.81133 0.18738 0.0
C341 C 0.66979 0.83598 0.18469 0.0
C342 C 0.70057 0.83193 0.156 0.0
N343 N 0.70054 0.80897 0.16935 0.0
O344 O 0.71319 0.88966 0.1608 0.0
H345 H 0.65399 0.84412 0.19655 0.0
H346 H 0.71404 0.83648 0.14007 0.0
O347 O 0.68564 0.8716 0.11772 0.0
C348 C 0.71665 0.89642 0.18476 0.0
O349 O 0.69583 0.90133 0.19945 0.0
N350 N 0.6411 0.87592 0.14725 0.0
C351 C 0.58676 0.86715 0.1435 0.0
C352 C 0.60455 0.85361 0.12705 0.0
C353 C 0.63168 0.85806 0.12941 0.0
C354 C 0.62426 0.88909 0.16357 0.0
C355 C 0.59702 0.88507 0.162 0.0
H356 H 0.64501 0.84685 0.11711 0.0
H357 H 0.63213 0.90267 0.17806 0.0
H358 H 0.68934 0.94208 0.17042 0.0
H359 H 0.65178 0.96248 0.09935 0.0
H360 H 0.67564 0.79652 0.20177 0.0
H361 H 0.59763 0.83969 0.11239 0.0
H362 H 0.5842 0.89554 0.17555 0.0
C363 C 0.07661 0.68292 0.1817 0.0
C364 C 0.0505 0.68555 0.17489 0.0
N365 N 0.04824 0.68073 0.14889 0.0
N366 N 0.09082 0.67662 0.16008 0.0
C367 C 0.0729 0.67531 0.1403 0.0
H368 H 0.08471 0.68524 0.20129 0.0
Co369 Co 0.12728 0.67275 0.16103 0.0
C370 C 0.14665 0.66952 0.107 0.0
O371 O 0.16139 0.64992 0.11546 0.0
N372 N 0.16476 0.67022 0.16285 0.0
C373 C 0.20743 0.66238 0.17037 0.0
C374 C 0.18203 0.65314 0.17393 0.0
C375 C 0.18026 0.68971 0.15322 0.0
N376 N 0.20617 0.68549 0.15734 0.0
O377 O 0.13039 0.70931 0.17041 0.0
H378 H 0.17694 0.63535 0.18439 0.0
H379 H 0.1725 0.70668 0.14286 0.0
O380 O 0.13027 0.68076 0.12278 0.0
C381 C 0.13605 0.71003 0.19492 0.0
O382 O 0.13746 0.68769 0.20801 0.0
N383 N 0.12322 0.63623 0.15483 0.0
C384 C 0.11703 0.5814 0.15264 0.0
C385 C 0.11042 0.5973 0.13093 0.0
C386 C 0.11335 0.62467 0.13252 0.0
C387 C 0.12741 0.62136 0.17679 0.0
C388 C 0.12523 0.59394 0.17597 0.0
H389 H 0.10755 0.63635 0.11574 0.0
H390 H 0.13283 0.6309 0.1951 0.0
H391 H 0.07767 0.67059 0.12004 0.0
H392 H 0.03424 0.68965 0.18816 0.0
H393 H 0.22534 0.65308 0.17741 0.0
H394 H 0.10277 0.58879 0.11289 0.0
H395 H 0.13033 0.58278 0.19344 0.0
C396 C 0.35277 0.92707 0.83379 0.0
C397 C 0.35393 0.95271 0.84229 0.0
N398 N 0.3373 0.95536 0.86279 0.0
N399 N 0.33572 0.9135 0.84908 0.0
C400 C 0.32628 0.93141 0.86655 0.0
H401 H 0.36375 0.91874 0.81749 0.0
Co402 Co 0.32955 0.87778 0.84408 0.0
C403 C 0.32261 0.85439 0.89668 0.0
O404 O 0.33613 0.83407 0.88786 0.0
N405 N 0.32266 0.84166 0.8377 0.0
C406 C 0.32328 0.79986 0.82439 0.0
C407 C 0.33635 0.82357 0.82368 0.0
C408 C 0.30063 0.82861 0.84556 0.0
N409 N 0.30092 0.80299 0.83843 0.0
O410 O 0.29445 0.88496 0.83261 0.0
H411 H 0.35461 0.8269 0.81332 0.0
H412 H 0.28524 0.83752 0.85743 0.0
O413 O 0.31817 0.87402 0.88133 0.0
C414 C 0.29575 0.88766 0.80764 0.0
O415 O 0.31929 0.88817 0.79666 0.0
N416 N 0.36528 0.87135 0.85296 0.0
C417 C 0.41948 0.86442 0.85984 0.0
C418 C 0.40334 0.87095 0.8813 0.0
C419 C 0.37639 0.8753 0.87726 0.0
C420 C 0.38115 0.867 0.83165 0.0
C421 C 0.40825 0.86307 0.83465 0.0
H422 H 0.36486 0.88259 0.89361 0.0
H423 H 0.37275 0.86713 0.81204 0.0
H424 H 0.31192 0.92701 0.88175 0.0
H425 H 0.36592 0.96833 0.83401 0.0
H426 H 0.32983 0.78166 0.81532 0.0
H427 H 0.41164 0.87352 0.90084 0.0
H428 H 0.4203 0.859 0.81744 0.0
C429 C 0.06917 0.33424 0.81845 0.0
C430 C 0.0432 0.33188 0.82587 0.0
N431 N 0.04241 0.3265 0.85189 0.0
N432 N 0.0847 0.33031 0.83965 0.0
C433 C 0.06787 0.32566 0.85982 0.0
H434 H 0.07639 0.33868 0.79887 0.0
Co435 Co 0.12105 0.33129 0.8374 0.0
C436 C 0.14248 0.33215 0.89073 0.0
O437 O 0.15842 0.35057 0.88181 0.0
N438 N 0.15843 0.33109 0.83391 0.0
C439 C 0.20103 0.33611 0.82405 0.0
C440 C 0.17615 0.34688 0.8217 0.0
C441 C 0.17314 0.31062 0.84283 0.0
N442 N 0.19903 0.31325 0.8374 0.0
O443 O 0.12117 0.29494 0.82712 0.0
H444 H 0.17174 0.36482 0.81123 0.0
H445 H 0.16488 0.29419 0.85366 0.0
O446 O 0.12498 0.32209 0.87537 0.0
C447 C 0.12486 0.29384 0.80228 0.0
O448 O 0.12639 0.31602 0.78895 0.0
N449 N 0.11968 0.36774 0.84521 0.0
C450 C 0.11576 0.42219 0.85212 0.0
C451 C 0.10769 0.40497 0.87212 0.0
C452 C 0.10938 0.37777 0.86811 0.0
C453 C 0.12504 0.38425 0.8247 0.0
C454 C 0.1241 0.41159 0.82797 0.0
H455 H 0.10212 0.3649 0.88343 0.0
H456 H 0.12973 0.37614 0.80553 0.0
H457 H 0.07407 0.32165 0.87986 0.0
H458 H 0.02617 0.33454 0.81321 0.0
H459 H 0.21909 0.34427 0.81606 0.0
H460 H 0.10036 0.41243 0.89077 0.0
H461 H 0.12933 0.42433 0.81162 0.0
C462 C 0.64482 0.07687 0.81723 0.0
C463 C 0.64611 0.05047 0.81131 0.0
N464 N 0.66402 0.03918 0.82742 0.0
N465 N 0.66189 0.08219 0.83692 0.0
C466 C 0.67326 0.05882 0.84285 0.0
H467 H 0.63255 0.09142 0.80757 0.0
Co468 Co 0.66873 0.11562 0.85003 0.0
C469 C 0.69767 0.10592 0.89935 0.0
O470 O 0.71818 0.11882 0.89007 0.0
N471 N 0.67578 0.14938 0.86344 0.0
C472 C 0.68149 0.18176 0.89256 0.0
C473 C 0.66795 0.15889 0.88714 0.0
C474 C 0.69334 0.16731 0.85444 0.0
N475 N 0.69738 0.1869 0.87195 0.0
O476 O 0.70426 0.11314 0.8365 0.0
H477 H 0.65465 0.14884 0.90048 0.0
H478 H 0.70441 0.16524 0.83631 0.0
O479 O 0.67818 0.10113 0.88413 0.0
C480 C 0.70318 0.11722 0.81166 0.0
O481 O 0.6801 0.12273 0.80112 0.0
N482 N 0.63336 0.1183 0.86067 0.0
C483 C 0.57872 0.12039 0.86786 0.0
C484 C 0.59394 0.10096 0.88044 0.0
C485 C 0.62125 0.10015 0.87647 0.0
C486 C 0.619 0.1375 0.84851 0.0
C487 C 0.59168 0.13905 0.85201 0.0
H488 H 0.63241 0.08416 0.88503 0.0
H489 H 0.62872 0.15115 0.8353 0.0
H490 H 0.68856 0.05639 0.85757 0.0
H491 H 0.63473 0.04031 0.79634 0.0
H492 H 0.68051 0.19321 0.91058 0.0
H493 H 0.58477 0.08616 0.89282 0.0
H494 H 0.5807 0.15406 0.84148 0.0
C495 C 0.93321 0.64492 0.82882 0.0
C496 C 0.95966 0.64725 0.83424 0.0
N497 N 0.9626 0.66617 0.85261 0.0
N498 N 0.91967 0.66248 0.84357 0.0
C499 C 0.93814 0.67514 0.85805 0.0
H500 H 0.92441 0.63191 0.81436 0.0
Co501 Co 0.88385 0.66862 0.83993 0.0
C502 C 0.86265 0.6786 0.89276 0.0
O503 O 0.84243 0.6641 0.88546 0.0
N504 N 0.84742 0.67583 0.83522 0.0
C505 C 0.80365 0.67638 0.83019 0.0
C506 C 0.82611 0.66112 0.82848 0.0
C507 C 0.83726 0.7001 0.83999 0.0
N508 N 0.81089 0.70085 0.83729 0.0
O509 O 0.89111 0.7028 0.82568 0.0
H510 H 0.82617 0.64045 0.82364 0.0
H511 H 0.84878 0.71661 0.84712 0.0
O512 O 0.88184 0.68247 0.87664 0.0
C513 C 0.89782 0.70132 0.80149 0.0
O514 O 0.90126 0.67797 0.79081 0.0
N515 N 0.87777 0.63386 0.85156 0.0
C516 C 0.87599 0.57993 0.86196 0.0
C517 C 0.88526 0.59753 0.8811 0.0
C518 C 0.8863 0.62445 0.87541 0.0
C519 C 0.87032 0.61668 0.83225 0.0
C520 C 0.86841 0.5897 0.83728 0.0
H521 H 0.89529 0.63741 0.88972 0.0
H522 H 0.86661 0.6239 0.81252 0.0
H523 H 0.93393 0.69134 0.87133 0.0
H524 H 0.97561 0.63633 0.82509 0.0
H525 H 0.7835 0.66986 0.82719 0.0
H526 H 0.89214 0.59047 0.90007 0.0
H527 H 0.8622 0.57646 0.82168 0.0
C528 C 0.18655 0.36504 0.07789 0.0
C529 C 0.1909 0.36395 0.05116 0.0
N530 N 0.17553 0.34478 0.04095 0.0
N531 N 0.16858 0.3466 0.08448 0.0
C532 C 0.16213 0.33458 0.06156 0.0
H533 H 0.19596 0.37828 0.09174 0.0
Co534 Co 0.15736 0.33949 0.11855 0.0
C535 C 0.10999 0.30679 0.11143 0.0
O536 O 0.12096 0.28746 0.12479 0.0
N537 N 0.14581 0.33212 0.1529 0.0
C538 C 0.11829 0.32411 0.18619 0.0
C539 C 0.12192 0.33815 0.16327 0.0
C540 C 0.1567 0.31528 0.17041 0.0
N541 N 0.14021 0.30979 0.19048 0.0
O542 O 0.17383 0.30523 0.11635 0.0
H543 H 0.10717 0.35023 0.15364 0.0
H544 H 0.17537 0.30535 0.16752 0.0
O545 O 0.12373 0.327 0.10549 0.0
C546 C 0.19854 0.30879 0.12003 0.0
O547 O 0.20691 0.33296 0.12432 0.0
N548 N 0.14381 0.37374 0.12104 0.0
C549 C 0.13103 0.42708 0.12392 0.0
C550 C 0.12017 0.41109 0.1041 0.0
C551 C 0.12678 0.38434 0.10303 0.0
C552 C 0.15455 0.38901 0.1404 0.0
C553 C 0.14809 0.41567 0.14246 0.0
H554 H 0.11918 0.37246 0.08704 0.0
H555 H 0.16872 0.38056 0.15394 0.0
H556 H 0.14836 0.31832 0.06009 0.0
H557 H 0.20417 0.37646 0.04002 0.0
H558 H 0.10045 0.32331 0.19796 0.0
H559 H 0.10712 0.41932 0.0893 0.0
H560 H 0.15727 0.42752 0.15772 0.0
C561 C 0.18413 0.64048 0.91961 0.0
C562 C 0.19146 0.64203 0.94567 0.0
N563 N 0.17951 0.66319 0.95645 0.0
N564 N 0.16734 0.66037 0.91409 0.0
C565 C 0.16548 0.67427 0.93676 0.0
H566 H 0.19036 0.62557 0.90564 0.0
Co567 Co 0.15193 0.6673 0.88145 0.0
C568 C 0.10235 0.6757 0.91672 0.0
O569 O 0.11014 0.66651 0.93965 0.0
N570 N 0.13607 0.6746 0.84876 0.0
C571 C 0.10662 0.67489 0.81614 0.0
C572 C 0.11388 0.66306 0.83937 0.0
C573 C 0.14169 0.69365 0.83096 0.0
N574 N 0.12405 0.69421 0.81104 0.0
O575 O 0.16376 0.70316 0.88391 0.0
H576 H 0.10301 0.64759 0.84927 0.0
H577 H 0.15811 0.70717 0.83258 0.0
O578 O 0.11796 0.67546 0.89694 0.0
C579 C 0.18789 0.70177 0.87665 0.0
O580 O 0.19729 0.67848 0.87007 0.0
N581 N 0.14338 0.63152 0.87775 0.0
C582 C 0.13968 0.57724 0.86915 0.0
C583 C 0.12624 0.58923 0.89031 0.0
C584 C 0.12839 0.61649 0.89432 0.0
C585 C 0.15653 0.62023 0.85719 0.0
C586 C 0.15459 0.59332 0.85225 0.0
H587 H 0.11892 0.62517 0.91125 0.0
H588 H 0.16888 0.63229 0.84463 0.0
H589 H 0.15395 0.69214 0.93883 0.0
H590 H 0.20382 0.62808 0.95613 0.0
H591 H 0.08933 0.67034 0.80441 0.0
H592 H 0.11493 0.57758 0.9042 0.0
H593 H 0.16496 0.58521 0.8354 0.0
C594 C 0.35659 0.18661 0.91839 0.0
C595 C 0.35544 0.18929 0.94531 0.0
N596 N 0.33755 0.17201 0.95467 0.0
N597 N 0.3395 0.16771 0.91077 0.0
C598 C 0.32818 0.15904 0.93335 0.0
H599 H 0.36845 0.19833 0.90508 0.0
Co600 Co 0.33205 0.16025 0.8757 0.0
C601 C 0.32468 0.10347 0.87186 0.0
O602 O 0.33991 0.10449 0.85092 0.0
N603 N 0.32337 0.15326 0.83977 0.0
C604 C 0.32139 0.14519 0.79648 0.0
C605 C 0.33763 0.1522 0.81714 0.0
C606 C 0.29849 0.14709 0.83198 0.0
N607 N 0.2968 0.14217 0.80596 0.0
O608 O 0.29763 0.17505 0.88019 0.0
H609 H 0.35856 0.15558 0.81533 0.0
H610 H 0.28186 0.14534 0.8453 0.0
O611 O 0.31977 0.12444 0.88511 0.0
C612 C 0.3001 0.19948 0.87473 0.0
O613 O 0.32392 0.20848 0.86962 0.0
N614 N 0.36735 0.14925 0.87152 0.0
C615 C 0.4225 0.1455 0.87136 0.0
C616 C 0.40709 0.12716 0.88531 0.0
C617 C 0.37952 0.12974 0.88563 0.0
C618 C 0.38212 0.16753 0.85849 0.0
C619 C 0.40956 0.16569 0.85758 0.0
H620 H 0.36824 0.11706 0.8985 0.0
H621 H 0.3725 0.1843 0.84945 0.0
H622 H 0.31248 0.14457 0.93404 0.0
H623 H 0.36646 0.20331 0.9571 0.0
H624 H 0.32715 0.14262 0.77606 0.0
H625 H 0.41628 0.11187 0.89707 0.0
H626 H 0.42054 0.18043 0.8467 0.0
C627 C 0.8244 0.36059 0.93682 0.0
C628 C 0.82683 0.35647 0.96362 0.0
N629 N 0.83825 0.33272 0.96747 0.0
N630 N 0.8347 0.33975 0.92387 0.0
C631 C 0.84192 0.32279 0.94303 0.0
H632 H 0.81681 0.3782 0.92745 0.0
Co633 Co 0.8406 0.33444 0.88787 0.0
C634 C 0.89735 0.32435 0.90893 0.0
O635 O 0.89572 0.3335 0.93313 0.0
N636 N 0.84725 0.32833 0.8518 0.0
C637 C 0.87148 0.32333 0.81542 0.0
C638 C 0.86896 0.33688 0.83878 0.0
C639 C 0.83646 0.31018 0.83545 0.0
N640 N 0.85102 0.30659 0.8135 0.0
O641 O 0.82958 0.29866 0.89198 0.0
H642 H 0.88336 0.35047 0.8468 0.0
H643 H 0.81964 0.29806 0.84029 0.0
O644 O 0.87735 0.32504 0.89361 0.0
C645 C 0.80453 0.2982 0.88965 0.0
O646 O 0.79206 0.3204 0.88469 0.0
N647 N 0.84876 0.37023 0.88342 0.0
C648 C 0.85158 0.4249 0.87691 0.0
C649 C 0.86892 0.41171 0.89413 0.0
C650 C 0.86728 0.38431 0.897 0.0
C651 C 0.83185 0.38263 0.86661 0.0
C652 C 0.83327 0.40976 0.86264 0.0
H653 H 0.87992 0.37479 0.91113 0.0
H654 H 0.81685 0.37135 0.85642 0.0
H655 H 0.85095 0.3039 0.9389 0.0
H656 H 0.822 0.37059 0.97889 0.0
H657 H 0.88781 0.32452 0.80167 0.0
H658 H 0.88301 0.42244 0.90607 0.0
H659 H 0.81982 0.41871 0.84866 0.0
C660 C 0.64144 0.82732 0.9224 0.0
C661 C 0.64506 0.83253 0.9487 0.0
N662 N 0.66662 0.84786 0.95131 0.0
N663 N 0.6605 0.83949 0.90837 0.0
C664 C 0.67557 0.85196 0.92652 0.0
H665 H 0.62647 0.81457 0.91414 0.0
Co666 Co 0.66594 0.83443 0.87248 0.0
C667 C 0.6743 0.88674 0.84931 0.0
O668 O 0.65962 0.87854 0.82955 0.0
N669 N 0.67241 0.82816 0.83625 0.0
C670 C 0.67117 0.81756 0.79365 0.0
C671 C 0.65804 0.81597 0.81736 0.0
C672 C 0.69483 0.83564 0.82362 0.0
N673 N 0.69419 0.83023 0.7976 0.0
O674 O 0.70055 0.82143 0.87925 0.0
H675 H 0.63907 0.80678 0.82002 0.0
H676 H 0.7106 0.84652 0.83309 0.0
O677 O 0.67883 0.87122 0.86881 0.0
C678 C 0.6987 0.7972 0.8856 0.0
O679 O 0.67503 0.78723 0.88939 0.0
N680 N 0.63058 0.84491 0.86649 0.0
C681 C 0.5766 0.85444 0.86134 0.0
C682 C 0.59381 0.87485 0.86837 0.0
C683 C 0.62064 0.86946 0.87181 0.0
C684 C 0.61373 0.82456 0.86139 0.0
C685 C 0.58668 0.82891 0.85838 0.0
H686 H 0.63305 0.8849 0.87957 0.0
H687 H 0.62126 0.80463 0.86049 0.0
H688 H 0.69348 0.86261 0.92177 0.0
H689 H 0.63301 0.82515 0.96474 0.0
H690 H 0.66399 0.81048 0.77481 0.0
H691 H 0.58643 0.89456 0.87213 0.0
H692 H 0.57377 0.81247 0.8539 0.0
C693 C 0.81257 0.64903 0.07643 0.0
C694 C 0.81039 0.65315 0.04977 0.0
N695 N 0.83033 0.66897 0.04209 0.0
N696 N 0.83379 0.66218 0.08558 0.0
C697 C 0.84438 0.67413 0.06417 0.0
H698 H 0.79914 0.63777 0.08861 0.0
Co699 Co 0.84139 0.6645 0.12121 0.0
C700 C 0.89863 0.66565 0.12507 0.0
O701 O 0.8962 0.64696 0.14285 0.0
N702 N 0.84833 0.66823 0.15787 0.0
C703 C 0.84266 0.67205 0.20137 0.0
C704 C 0.83684 0.65722 0.17933 0.0
C705 C 0.86095 0.68972 0.16767 0.0
N706 N 0.85794 0.69235 0.19389 0.0
O707 O 0.82938 0.70029 0.12133 0.0
H708 H 0.8229 0.6412 0.17917 0.0
H709 H 0.86986 0.70476 0.15542 0.0
O710 O 0.87812 0.67522 0.11377 0.0
C711 C 0.80527 0.69937 0.12862 0.0
O712 O 0.79456 0.67604 0.13232 0.0
N713 N 0.8499 0.62809 0.12083 0.0
C714 C 0.85261 0.57292 0.11715 0.0
C715 C 0.87034 0.58896 0.10307 0.0
C716 C 0.86827 0.6165 0.10471 0.0
C717 C 0.8316 0.6128 0.13318 0.0
C718 C 0.8331 0.58538 0.13241 0.0
H719 H 0.88081 0.62843 0.09226 0.0
H720 H 0.81469 0.62185 0.1424 0.0
H721 H 0.86124 0.68725 0.06491 0.0
H722 H 0.7951 0.6454 0.037 0.0
H723 H 0.83463 0.66931 0.22099 0.0
H724 H 0.88499 0.58038 0.09006 0.0
H725 H 0.81859 0.57414 0.14333 0.0
C726 C 0.36963 0.82158 0.08184 0.0
C727 C 0.36795 0.82045 0.05484 0.0
N728 N 0.34658 0.83432 0.04727 0.0
N729 N 0.34939 0.83609 0.09124 0.0
C730 C 0.33562 0.84367 0.06967 0.0
H731 H 0.38381 0.81119 0.09393 0.0
Co732 Co 0.34053 0.83845 0.12659 0.0
C733 C 0.32686 0.89356 0.13739 0.0
O734 O 0.34006 0.89113 0.15955 0.0
N735 N 0.3305 0.83988 0.16261 0.0
C736 C 0.32679 0.8421 0.20643 0.0
C737 C 0.34386 0.83779 0.1857 0.0
C738 C 0.30526 0.84472 0.17012 0.0
N739 N 0.3026 0.84624 0.19642 0.0
O740 O 0.30741 0.82212 0.11924 0.0
H741 H 0.36472 0.83432 0.18788 0.0
H742 H 0.28927 0.84865 0.15649 0.0
O743 O 0.32563 0.87424 0.12109 0.0
C744 C 0.30987 0.79718 0.12111 0.0
O745 O 0.33372 0.78743 0.12433 0.0
N746 N 0.37455 0.85188 0.13349 0.0
C747 C 0.42847 0.86294 0.13853 0.0
C748 C 0.41141 0.88081 0.12598 0.0
C749 C 0.38461 0.87468 0.12319 0.0
C750 C 0.39106 0.83387 0.14471 0.0
C751 C 0.41785 0.83923 0.14807 0.0
H752 H 0.3724 0.88762 0.11153 0.0
H753 H 0.3834 0.81482 0.15054 0.0
H754 H 0.31695 0.85406 0.07049 0.0
H755 H 0.38064 0.80922 0.0418 0.0
H756 H 0.33181 0.84278 0.22719 0.0
H757 H 0.41888 0.89882 0.11725 0.0
H758 H 0.43017 0.82466 0.15768 0.0
C759 C 0.63934 0.17192 0.07085 0.0
C760 C 0.64323 0.16327 0.0454 0.0
N761 N 0.66703 0.15155 0.04418 0.0
N762 N 0.66044 0.16522 0.08573 0.0
C763 C 0.67716 0.15313 0.06874 0.0
H764 H 0.62214 0.18237 0.07793 0.0
Co765 Co 0.66555 0.17048 0.122 0.0
C766 C 0.6734 0.11666 0.14297 0.0
O767 O 0.65983 0.12309 0.16415 0.0
N768 N 0.67191 0.17571 0.15845 0.0
C769 C 0.66988 0.18378 0.20156 0.0
C770 C 0.65726 0.18693 0.17772 0.0
C771 C 0.69395 0.16715 0.17107 0.0
N772 N 0.69285 0.17103 0.19738 0.0
O773 O 0.70071 0.18257 0.1156 0.0
H774 H 0.63827 0.19618 0.17519 0.0
H775 H 0.70966 0.15638 0.16135 0.0
O776 O 0.67719 0.13378 0.1248 0.0
C777 C 0.6995 0.20656 0.1082 0.0
O778 O 0.67611 0.21678 0.10345 0.0
N779 N 0.62967 0.16144 0.12784 0.0
C780 C 0.57464 0.15687 0.12978 0.0
C781 C 0.5905 0.13462 0.12541 0.0
C782 C 0.61799 0.13744 0.1237 0.0
C783 C 0.61435 0.18327 0.13148 0.0
C784 C 0.58687 0.18144 0.13272 0.0
H785 H 0.62943 0.12056 0.11765 0.0
H786 H 0.62355 0.20251 0.13234 0.0
H787 H 0.69628 0.14535 0.07434 0.0
H788 H 0.62987 0.16583 0.02891 0.0
H789 H 0.66228 0.18964 0.22066 0.0
H790 H 0.58163 0.11547 0.122 0.0
H791 H 0.57526 0.19918 0.13551 0.0
H792 H 0.10798 0.14732 0.54351 0.0
H793 H 0.18197 0.10514 0.53892 0.0
H794 H 0.17972 0.10578 0.49088 0.0
H795 H 0.15728 0.11922 0.44998 0.0
H796 H 0.08244 0.15974 0.45474 0.0
H797 H 0.08433 0.15839 0.50283 0.0
C798 C 0.12347 0.13796 0.53206 0.0
C799 C 0.14522 0.12646 0.54496 0.0
C800 C 0.1219 0.13802 0.50439 0.0
C801 C 0.16526 0.11471 0.52964 0.0
C802 C 0.16389 0.11483 0.5021 0.0
C803 C 0.14119 0.12737 0.46153 0.0
C804 C 0.11984 0.1397 0.44875 0.0
C805 C 0.14238 0.12654 0.48924 0.0
C806 C 0.0993 0.15046 0.46407 0.0
C807 C 0.10032 0.14965 0.49158 0.0
H808 H 0.8888 0.13936 0.4542 0.0
H809 H 0.80512 0.12376 0.46133 0.0
H810 H 0.80771 0.13023 0.50876 0.0
H811 H 0.83359 0.14009 0.54859 0.0
H812 H 0.9177 0.15133 0.54243 0.0
H813 H 0.91521 0.14614 0.49433 0.0
C814 C 0.87114 0.13693 0.46605 0.0
C815 C 0.84672 0.13144 0.45382 0.0
C816 C 0.87286 0.13982 0.4936 0.0
C817 C 0.82409 0.12876 0.4698 0.0
C818 C 0.82555 0.13219 0.49709 0.0
C819 C 0.85131 0.14142 0.53661 0.0
C820 C 0.87574 0.14628 0.54877 0.0
C821 C 0.84977 0.13784 0.50918 0.0
C822 C 0.8987 0.14761 0.53331 0.0
C823 C 0.89725 0.14468 0.50589 0.0
H824 H 0.85833 0.89048 0.44889 0.0
H825 H 0.85681 0.80524 0.44975 0.0
H826 H 0.8533 0.80554 0.49756 0.0
H827 H 0.85224 0.82971 0.53955 0.0
H828 H 0.85669 0.91464 0.53921 0.0
H829 H 0.85835 0.91465 0.49096 0.0
C830 C 0.85746 0.87192 0.45946 0.0
C831 C 0.85758 0.84791 0.44539 0.0
C832 C 0.85629 0.87212 0.4872 0.0
C833 C 0.85605 0.82412 0.4597 0.0
C834 C 0.85437 0.82421 0.4872 0.0
C835 C 0.85344 0.84821 0.52887 0.0
C836 C 0.85436 0.87212 0.54291 0.0
C837 C 0.8546 0.84806 0.50117 0.0
C838 C 0.85624 0.89595 0.52885 0.0
C839 C 0.85704 0.89597 0.50127 0.0
H840 H 0.16297 0.87638 0.55048 0.0
H841 H 0.08242 0.8499 0.54346 0.0
H842 H 0.08525 0.85298 0.49525 0.0
H843 H 0.1113 0.86171 0.45529 0.0
H844 H 0.19081 0.89188 0.46292 0.0
H845 H 0.18788 0.88826 0.51063 0.0
C846 C 0.14607 0.87138 0.5383 0.0
C847 C 0.12259 0.86283 0.55028 0.0
C848 C 0.14775 0.87356 0.51076 0.0
C849 C 0.10065 0.85664 0.53451 0.0
C850 C 0.10231 0.85829 0.50702 0.0
C851 C 0.12789 0.86792 0.4673 0.0
C852 C 0.15139 0.87666 0.45522 0.0
C853 C 0.12584 0.8666 0.49492 0.0
C854 C 0.17272 0.88429 0.47138 0.0
C855 C 0.171 0.88251 0.49879 0.0
H856 H 0.45051 0.16333 0.11681 0.0
H857 H 0.45402 0.10638 0.17981 0.0
H858 H 0.50234 0.10758 0.17877 0.0
H859 H 0.54378 0.12532 0.16022 0.0
H860 H 0.54021 0.18426 0.0991 0.0
H861 H 0.49191 0.18182 0.09898 0.0
C862 C 0.46193 0.15116 0.1302 0.0
C863 C 0.44881 0.1348 0.14834 0.0
C864 C 0.48971 0.15233 0.12982 0.0
C865 C 0.46375 0.11928 0.16581 0.0
C866 C 0.49135 0.11989 0.16516 0.0
C867 C 0.53234 0.13749 0.14684 0.0
C868 C 0.54542 0.15488 0.12966 0.0
C869 C 0.50456 0.13639 0.1473 0.0
C870 C 0.53048 0.17081 0.11257 0.0
C871 C 0.5029 0.16939 0.11247 0.0
H872 H 0.89614 0.54072 0.11299 0.0
H873 H 0.81086 0.5385 0.11643 0.0
H874 H 0.81188 0.49067 0.11869 0.0
H875 H 0.83691 0.44943 0.12308 0.0
H876 H 0.92174 0.45064 0.11708 0.0
H877 H 0.92097 0.49875 0.1116 0.0
C878 C 0.87774 0.52983 0.11374 0.0
C879 C 0.85351 0.5435 0.11534 0.0
C880 C 0.87836 0.50204 0.11446 0.0
C881 C 0.82991 0.52879 0.11624 0.0
C882 C 0.8304 0.50131 0.11725 0.0
C883 C 0.85515 0.46027 0.12004 0.0
C884 C 0.87933 0.44673 0.12046 0.0
C885 C 0.8545 0.48777 0.11696 0.0
C886 C 0.9029 0.46077 0.11657 0.0
C887 C 0.90245 0.48825 0.11367 0.0
H888 H 0.54654 0.90288 0.14843 0.0
H889 H 0.56164 0.82011 0.13482 0.0
H890 H 0.51437 0.81182 0.13147 0.0
H891 H 0.46883 0.82786 0.13231 0.0
H892 H 0.45324 0.91002 0.14858 0.0
H893 H 0.50066 0.91867 0.15096 0.0
C894 C 0.53953 0.88296 0.14503 0.0
C895 C 0.55779 0.86221 0.14175 0.0
C896 C 0.51222 0.87819 0.14354 0.0
C897 C 0.5482 0.8366 0.13693 0.0
C898 C 0.52111 0.83177 0.13521 0.0
C899 C 0.4757 0.84762 0.13679 0.0
C900 C 0.45737 0.86822 0.14036 0.0
C901 C 0.50296 0.8524 0.13849 0.0
C902 C 0.46683 0.89381 0.14546 0.0
C903 C 0.49397 0.89876 0.14698 0.0
H904 H 0.11547 0.45717 0.16544 0.0
H905 H 0.13652 0.46142 0.08311 0.0
H906 H 0.13324 0.50955 0.08444 0.0
H907 H 0.12748 0.55028 0.10979 0.0
H908 H 0.10364 0.54601 0.19159 0.0
H909 H 0.10547 0.49805 0.18977 0.0
C910 C 0.11913 0.4687 0.14779 0.0
C911 C 0.12632 0.45589 0.12426 0.0
C912 C 0.11708 0.49632 0.14868 0.0
C913 C 0.13078 0.47091 0.1014 0.0
C914 C 0.12907 0.4984 0.10221 0.0
C915 C 0.12211 0.53899 0.12713 0.0
C916 C 0.11581 0.55202 0.1509 0.0
C917 C 0.1226 0.51132 0.12584 0.0
C918 C 0.1093 0.53674 0.17318 0.0
C919 C 0.11011 0.50922 0.17214 0.0
H920 H 0.45982 0.88842 0.83428 0.0
H921 H 0.44283 0.83025 0.8939 0.0
H922 H 0.49012 0.82155 0.89936 0.0
H923 H 0.5363 0.83035 0.88679 0.0
H924 H 0.55338 0.8903 0.82902 0.0
H925 H 0.50606 0.89855 0.82309 0.0
C926 C 0.46658 0.87382 0.8484 0.0
C927 C 0.44806 0.85983 0.86356 0.0
C928 C 0.49372 0.86928 0.8517 0.0
C929 C 0.45687 0.84124 0.8821 0.0
C930 C 0.48383 0.83623 0.88515 0.0
C931 C 0.52954 0.84514 0.87288 0.0
C932 C 0.54807 0.85958 0.85818 0.0
C933 C 0.50242 0.85008 0.87 0.0
C934 C 0.53931 0.87901 0.8405 0.0
C935 C 0.51234 0.88367 0.8371 0.0
H936 H 0.15593 0.45614 0.84379 0.0
H937 H 0.07519 0.45263 0.87052 0.0
H938 H 0.07524 0.50038 0.87814 0.0
H939 H 0.09832 0.54316 0.87671 0.0
H940 H 0.18023 0.54551 0.85278 0.0
H941 H 0.17947 0.49836 0.84418 0.0
C942 C 0.13832 0.46593 0.85113 0.0
C943 C 0.11555 0.45106 0.85643 0.0
C944 C 0.13867 0.49319 0.85586 0.0
C945 C 0.09297 0.46377 0.86636 0.0
C946 C 0.09299 0.49103 0.87066 0.0
C947 C 0.1161 0.53335 0.8699 0.0
C948 C 0.13915 0.54813 0.86506 0.0
C949 C 0.11578 0.50595 0.86553 0.0
C950 C 0.16194 0.53494 0.85603 0.0
C951 C 0.16164 0.50785 0.85129 0.0
H952 H 0.45496 0.10242 0.86884 0.0
H953 H 0.4562 0.1872 0.87677 0.0
H954 H 0.50431 0.18685 0.87684 0.0
H955 H 0.54618 0.16271 0.87402 0.0
H956 H 0.54533 0.07797 0.86619 0.0
H957 H 0.49709 0.07805 0.86745 0.0
C958 C 0.46576 0.12078 0.87083 0.0
C959 C 0.45189 0.14481 0.87243 0.0
C960 C 0.49356 0.12047 0.87104 0.0
C961 C 0.46628 0.16845 0.87488 0.0
C962 C 0.49384 0.16828 0.87512 0.0
C963 C 0.53544 0.14426 0.87251 0.0
C964 C 0.5494 0.1204 0.87 0.0
C965 C 0.5077 0.14445 0.87299 0.0
C966 C 0.53514 0.09662 0.86848 0.0
C967 C 0.50752 0.09665 0.86899 0.0
H968 H 0.83393 0.54734 0.85958 0.0
H969 H 0.9175 0.54873 0.87549 0.0
H970 H 0.91759 0.50073 0.88136 0.0
H971 H 0.89404 0.45841 0.88026 0.0
H972 H 0.80944 0.45793 0.86842 0.0
H973 H 0.80976 0.5054 0.86212 0.0
C974 C 0.85208 0.53703 0.86443 0.0
C975 C 0.87568 0.55128 0.86701 0.0
C976 C 0.85186 0.50962 0.86818 0.0
C977 C 0.89911 0.53798 0.87353 0.0
C978 C 0.89916 0.51061 0.87677 0.0
C979 C 0.87556 0.46861 0.87673 0.0
C980 C 0.85185 0.45423 0.87436 0.0
C981 C 0.87565 0.49619 0.87398 0.0
C982 C 0.8282 0.4681 0.8695 0.0
C983 C 0.82826 0.4954 0.86616 0.0
H984 H 0.15169 0.99906 0.30368 0.0
H985 H 0.09685 0.97165 0.36226 0.0
H986 H 0.07314 0.01391 0.36069 0.0
H987 H 0.07295 0.06054 0.34768 0.0
H988 H 0.12866 0.08807 0.2893 0.0
H989 H 0.14668 0.04374 0.28503 0.0
C990 C 0.13406 0.0023 0.31541 0.0
C991 C 0.12578 0.98274 0.33304 0.0
C992 C 0.12094 0.02664 0.31456 0.0
C993 C 0.10318 0.98669 0.34848 0.0
C994 C 0.08985 0.01081 0.34767 0.0
C995 C 0.0886 0.05676 0.33354 0.0
C996 C 0.09992 0.07779 0.31941 0.0
C997 C 0.09921 0.03127 0.33151 0.0
C998 C 0.11987 0.0724 0.30083 0.0
C999 C 0.13031 0.04703 0.29843 0.0
H1000 H 0.91943 0.18142 0.35064 0.0
H1001 H 0.92138 0.10915 0.30561 0.0
H1002 H 0.96945 0.11429 0.29977 0.0
H1003 H 0.011 0.13968 0.30839 0.0
H1004 H 0.00642 0.21097 0.35498 0.0
H1005 H 0.9591 0.20573 0.35921 0.0
C1006 C 0.93013 0.1666 0.33948 0.0
C1007 C 0.91672 0.14485 0.32864 0.0
C1008 C 0.95737 0.16959 0.33648 0.0
C1009 C 0.93119 0.1261 0.31416 0.0
C1010 C 0.95866 0.12904 0.3109 0.0
C1011 C 0.99961 0.15398 0.3195 0.0
C1012 C 0.01238 0.17594 0.33105 0.0
C1013 C 0.97202 0.15071 0.32213 0.0
C1014 C 0.99723 0.1943 0.34532 0.0
C1015 C 0.9701 0.19121 0.34795 0.0
H1016 H 0.83468 0.92367 0.30018 0.0
H1017 H 0.9119 0.91969 0.33559 0.0
H1018 H 0.91336 0.96805 0.33843 0.0
H1019 H 0.88891 0.0108 0.33758 0.0
H1020 H 0.81164 0.01375 0.3025 0.0
H1021 H 0.8139 0.9666 0.29225 0.0
C1022 C 0.85214 0.93349 0.30782 0.0
C1023 C 0.87308 0.91832 0.31782 0.0
C1024 C 0.85263 0.96111 0.30958 0.0
C1025 C 0.89564 0.93108 0.32761 0.0
C1026 C 0.89633 0.95869 0.32947 0.0
C1027 C 0.87314 0.00115 0.3268 0.0
C1028 C 0.85021 0.01549 0.32053 0.0
C1029 C 0.87448 0.97386 0.32146 0.0
C1030 C 0.82952 0.00294 0.3071 0.0
C1031 C 0.83074 0.97602 0.30151 0.0
H1032 H 0.99163 0.85401 0.30898 0.0
H1033 H 0.99155 0.84923 0.39397 0.0
H1034 H 0.0391 0.85605 0.39493 0.0
H1035 H 0.08105 0.85847 0.37176 0.0
H1036 H 0.08298 0.86488 0.28708 0.0
H1037 H 0.03434 0.86254 0.28565 0.0
C1038 C 0.00203 0.85509 0.32764 0.0
C1039 C 0.98821 0.85057 0.35137 0.0
C1040 C 0.02965 0.85896 0.32805 0.0
C1041 C 0.00187 0.85203 0.37546 0.0
C1042 C 0.02904 0.85596 0.37604 0.0
C1043 C 0.07077 0.85974 0.35301 0.0
C1044 C 0.08531 0.86154 0.32955 0.0
C1045 C 0.04318 0.85858 0.35248 0.0
C1046 C 0.07197 0.86344 0.30536 0.0
C1047 C 0.04425 0.862 0.30459 0.0
H1048 H 0.10037 0.00595 0.6478 0.0
H1049 H 0.14838 0.02557 0.71503 0.0
H1050 H 0.14134 0.98139 0.73347 0.0
H1051 H 0.12723 0.93536 0.72646 0.0
H1052 H 0.0786 0.91639 0.65906 0.0
H1053 H 0.07966 0.96221 0.64492 0.0
C1054 C 0.1087 0.00059 0.66678 0.0
C1055 C 0.12503 0.01857 0.67999 0.0
C1056 C 0.10465 0.97526 0.67704 0.0
C1057 C 0.13567 0.01186 0.70466 0.0
C1058 C 0.1318 0.9866 0.71505 0.0
C1059 C 0.11626 0.94136 0.70909 0.0
C1060 C 0.10352 0.9223 0.69342 0.0
C1061 C 0.11713 0.96782 0.70088 0.0
C1062 C 0.08915 0.93051 0.67113 0.0
C1063 C 0.08975 0.95674 0.66297 0.0
H1064 H 0.07496 0.17839 0.64344 0.0
H1065 H 0.07528 0.11613 0.70139 0.0
H1066 H 0.02678 0.11862 0.70428 0.0
H1067 H 0.98412 0.13998 0.69075 0.0
H1068 H 0.98621 0.20106 0.63154 0.0
H1069 H 0.03392 0.19735 0.62858 0.0
C1070 C 0.0646 0.16537 0.6569 0.0
C1071 C 0.07883 0.14738 0.67249 0.0
C1072 C 0.03702 0.16666 0.6581 0.0
C1073 C 0.06482 0.13035 0.68934 0.0
C1074 C 0.0371 0.13174 0.69092 0.0
C1075 C 0.9951 0.15216 0.67704 0.0
C1076 C 0.98164 0.1711 0.66169 0.0
C1077 C 0.02293 0.14994 0.67541 0.0
C1078 C 0.9961 0.18678 0.64397 0.0
C1079 C 0.02341 0.18463 0.6422 0.0
H1080 H 0.85236 0.98756 0.69866 0.0
H1081 H 0.86361 0.97964 0.61485 0.0
H1082 H 0.88083 0.02463 0.61236 0.0
H1083 H 0.88496 0.06802 0.63252 0.0
H1084 H 0.86939 0.07845 0.71535 0.0
H1085 H 0.86254 0.03069 0.72029 0.0
C1086 C 0.85921 0.99569 0.6801 0.0
C1087 C 0.85661 0.98071 0.65687 0.0
C1088 C 0.8683 0.02196 0.67878 0.0
C1089 C 0.86531 0.99115 0.63279 0.0
C1090 C 0.87514 0.01676 0.63142 0.0
C1091 C 0.88114 0.0596 0.65186 0.0
C1092 C 0.87784 0.07646 0.67358 0.0
C1093 C 0.87573 0.03263 0.65407 0.0
C1094 C 0.87251 0.06566 0.69849 0.0
C1095 C 0.86809 0.03844 0.70115 0.0
H1096 H 0.0064 0.85341 0.64216 0.0
H1097 H 0.01894 0.81915 0.71869 0.0
H1098 H 0.97418 0.83228 0.7324 0.0
H1099 H 0.93092 0.85209 0.72149 0.0
H1100 H 0.92028 0.88887 0.64535 0.0
H1101 H 0.96488 0.87665 0.63272 0.0
C1102 C 0.99909 0.8488 0.66175 0.0
C1103 C 0.01531 0.83492 0.6793 0.0
C1104 C 0.97385 0.85707 0.66957 0.0
C1105 C 0.00634 0.82953 0.7049 0.0
C1106 C 0.98091 0.83712 0.71269 0.0
C1107 C 0.93848 0.85781 0.7023 0.0
C1108 C 0.92198 0.87112 0.68432 0.0
C1109 C 0.9644 0.85079 0.69509 0.0
C1110 C 0.93227 0.87844 0.65957 0.0
C1111 C 0.95784 0.87137 0.65222 0.0
H1112 H 0.3288 0.12769 0.98303 0.0
H1113 H 0.32692 0.21258 0.98672 0.0
H1114 H 0.31796 0.21091 0.03398 0.0
H1115 H 0.31586 0.18584 0.07471 0.0
H1116 H 0.32029 0.10095 0.073 0.0
H1117 H 0.32233 0.10187 0.02453 0.0
C1118 C 0.32592 0.14568 0.99424 0.0
C1119 C 0.32882 0.17026 0.98162 0.0
C1120 C 0.32135 0.14454 0.0217 0.0
C1121 C 0.32517 0.19353 0.9962 0.0
C1122 C 0.32 0.19256 0.02316 0.0
C1123 C 0.31688 0.16747 0.06373 0.0
C1124 C 0.31823 0.1434 0.07737 0.0
C1125 C 0.31887 0.16826 0.0362 0.0
C1126 C 0.31916 0.11975 0.06291 0.0
C1127 C 0.32059 0.12031 0.03523 0.0
H1128 H 0.90248 0.2842 0.06149 0.0
H1129 H 0.84975 0.33408 0.10614 0.0
H1130 H 0.82704 0.34689 0.0657 0.0
H1131 H 0.82343 0.34543 0.01728 0.0
H1132 H 0.87758 0.29648 0.97303 0.0
H1133 H 0.89782 0.28149 0.01358 0.0
C1134 C 0.88589 0.29772 0.06244 0.0
C1135 C 0.87807 0.30836 0.08682 0.0
C1136 C 0.87302 0.30517 0.03908 0.0
C1137 C 0.85645 0.32579 0.08764 0.0
C1138 C 0.84339 0.33313 0.06448 0.0
C1139 C 0.83965 0.33151 0.01645 0.0
C1140 C 0.8488 0.32229 0.99186 0.0
C1141 C 0.85175 0.32323 0.04001 0.0
C1142 C 0.86965 0.30385 0.9914 0.0
C1143 C 0.88153 0.29533 0.01471 0.0
H1144 H 0.66741 0.82073 0.99661 0.0
H1145 H 0.69237 0.89372 0.961 0.0
H1146 H 0.70839 0.90945 0.00395 0.0
H1147 H 0.71125 0.90377 0.05243 0.0
H1148 H 0.68464 0.83081 0.08733 0.0
H1149 H 0.67332 0.81368 0.04384 0.0
C1150 C 0.67633 0.8401 0.99825 0.0
C1151 C 0.6783 0.85625 0.97583 0.0
C1152 C 0.68514 0.84899 0.0229 0.0
C1153 C 0.69061 0.88098 0.97805 0.0
C1154 C 0.69964 0.88998 0.0026 0.0
C1155 C 0.70348 0.88395 0.05041 0.0
C1156 C 0.69859 0.86865 0.07307 0.0
C1157 C 0.69651 0.87435 0.02528 0.0
C1158 C 0.68834 0.84306 0.0702 0.0
C1159 C 0.68182 0.83325 0.04536 0.0
H1160 H 0.19083 0.66715 0.07842 0.0
H1161 H 0.10854 0.68838 0.07312 0.0
H1162 H 0.11249 0.69178 0.02484 0.0
H1163 H 0.13816 0.68234 0.98421 0.0
H1164 H 0.21976 0.65878 0.99071 0.0
H1165 H 0.21739 0.66271 0.03867 0.0
C1166 C 0.17381 0.67289 0.06672 0.0
C1167 C 0.14934 0.67713 0.07909 0.0
C1168 C 0.17612 0.67408 0.03926 0.0
C1169 C 0.12757 0.68503 0.0639 0.0
C1170 C 0.12981 0.68674 0.03635 0.0
C1171 C 0.15553 0.67867 0.99612 0.0
C1172 C 0.17905 0.66993 0.98403 0.0
C1173 C 0.15379 0.68039 0.02378 0.0
C1174 C 0.2014 0.66511 0.99967 0.0
C1175 C 0.20004 0.66738 0.02703 0.0
H1176 H 0.33313 0.87667 0.01812 0.0
H1177 H 0.33568 0.79179 0.01826 0.0
H1178 H 0.32324 0.79073 0.9717 0.0
H1179 H 0.31783 0.81379 0.93005 0.0
H1180 H 0.31863 0.89877 0.92783 0.0
H1181 H 0.32277 0.9002 0.97609 0.0
C1182 C 0.33037 0.85808 0.0079 0.0
C1183 C 0.33548 0.83431 0.02124 0.0
C1184 C 0.32396 0.85771 0.98082 0.0
C1185 C 0.33207 0.81022 0.00807 0.0
C1186 C 0.32497 0.80964 0.98155 0.0
C1187 C 0.3184 0.83266 0.94017 0.0
C1188 C 0.31825 0.85611 0.92546 0.0
C1189 C 0.32179 0.83324 0.96756 0.0
C1190 C 0.31864 0.88043 0.93878 0.0
C1191 C 0.32131 0.88122 0.96633 0.0
H1192 H 0.18653 0.33135 0.91943 0.0
H1193 H 0.10248 0.31931 0.9253 0.0
H1194 H 0.10575 0.31927 0.97374 0.0
H1195 H 0.13213 0.32912 0.01407 0.0
H1196 H 0.21576 0.34339 0.0065 0.0
H1197 H 0.21314 0.33625 0.959 0.0
C1198 C 0.16897 0.32824 0.93133 0.0
C1199 C 0.14429 0.32561 0.91899 0.0
C1200 C 0.17095 0.32912 0.95883 0.0
C1201 C 0.12171 0.32125 0.93447 0.0
C1202 C 0.12358 0.32154 0.96212 0.0
C1203 C 0.14978 0.33014 0.002 0.0
C1204 C 0.17406 0.3372 0.01363 0.0
C1205 C 0.148 0.32643 0.97449 0.0
C1206 C 0.19682 0.33855 0.99786 0.0
C1207 C 0.19534 0.33435 0.97075 0.0
H1208 H 0.64563 0.11671 0.01093 0.0
H1209 H 0.71554 0.16264 0.02542 0.0
H1210 H 0.73361 0.1495 0.98236 0.0
H1211 H 0.72664 0.1292 0.93859 0.0
H1212 H 0.6571 0.08171 0.92529 0.0
H1213 H 0.64201 0.09065 0.97002 0.0
C1214 C 0.66499 0.12341 0.00469 0.0
C1215 C 0.67919 0.14078 0.02093 0.0
C1216 C 0.67523 0.11555 0.98015 0.0
C1217 C 0.70438 0.14923 0.01307 0.0
C1218 C 0.7146 0.1418 0.98847 0.0
C1219 C 0.70855 0.1202 0.94566 0.0
C1220 C 0.69274 0.1053 0.92826 0.0
C1221 C 0.69986 0.12551 0.97153 0.0
C1222 C 0.66943 0.09369 0.93797 0.0
C1223 C 0.6607 0.09885 0.96358 0.0
H1224 H 0.82239 0.69461 0.92269 0.0
H1225 H 0.90568 0.67758 0.92587 0.0
H1226 H 0.90379 0.67658 0.97435 0.0
H1227 H 0.87633 0.67291 0.01517 0.0
H1228 H 0.79263 0.68753 0.0101 0.0
H1229 H 0.79665 0.69727 0.96316 0.0
C1230 C 0.84028 0.69141 0.93407 0.0
C1231 C 0.86406 0.68597 0.92089 0.0
C1232 C 0.83877 0.68994 0.96161 0.0
C1233 C 0.88717 0.682 0.93568 0.0
C1234 C 0.88598 0.68108 0.96337 0.0
C1235 C 0.85921 0.67886 0.00379 0.0
C1236 C 0.83413 0.6791 0.01584 0.0
C1237 C 0.86162 0.68385 0.97649 0.0
C1238 C 0.81199 0.68677 0.00103 0.0
C1239 C 0.81429 0.69238 0.97425 0.0
H1240 H 0.99603 0.35362 0.12198 0.0
H1241 H 0.98766 0.28887 0.17608 0.0
H1242 H 0.03138 0.272 0.16324 0.0
H1243 H 0.07366 0.27875 0.13988 0.0
H1244 H 0.08077 0.3429 0.08433 0.0
H1245 H 0.03565 0.35661 0.0939 0.0
C1246 C 0.00383 0.3357 0.13069 0.0
C1247 C 0.98917 0.32265 0.1502 0.0
C1248 C 0.02862 0.32603 0.12287 0.0
C1249 C 0.99892 0.29919 0.16114 0.0
C1250 C 0.02383 0.28963 0.15379 0.0
C1251 C 0.06513 0.29526 0.12929 0.0
C1252 C 0.08085 0.31006 0.11175 0.0
C1253 C 0.03911 0.30322 0.13506 0.0
C1254 C 0.06933 0.33139 0.09822 0.0
C1255 C 0.04353 0.33935 0.10377 0.0
H1256 H 0.97949 0.6649 0.90263 0.0
H1257 H 0.00091 0.68805 0.82384 0.0
H1258 H 0.04599 0.69793 0.83836 0.0
H1259 H 0.08012 0.69457 0.87198 0.0
H1260 H 0.06042 0.66649 0.94993 0.0
H1261 H 0.01369 0.66485 0.93773 0.0
C1262 C 0.99402 0.67272 0.88899 0.0
C1263 C 0.98727 0.67588 0.86233 0.0
C1264 C 0.02011 0.6773 0.89734 0.0
C1265 C 0.00602 0.68559 0.84445 0.0
C1266 C 0.03167 0.69113 0.85274 0.0
C1267 C 0.06565 0.68825 0.88642 0.0
C1268 C 0.07387 0.68004 0.91161 0.0
C1269 C 0.03912 0.68621 0.87892 0.0
C1270 C 0.05469 0.67268 0.93029 0.0
C1271 C 0.02797 0.67156 0.92328 0.0
H1272 H 0.35326 0.06935 0.90016 0.0
H1273 H 0.27892 0.07857 0.86011 0.0
H1274 H 0.27338 0.03057 0.85849 0.0
H1275 H 0.29496 0.98669 0.85945 0.0
H1276 H 0.37125 0.97847 0.89569 0.0
H1277 H 0.37085 0.02507 0.90845 0.0
C1278 C 0.33526 0.06077 0.89232 0.0
C1279 C 0.3163 0.07724 0.88066 0.0
C1280 C 0.33295 0.03325 0.89035 0.0
C1281 C 0.29342 0.06612 0.86973 0.0
C1282 C 0.29049 0.03869 0.86844 0.0
C1283 C 0.31083 0.99503 0.87116 0.0
C1284 C 0.33302 0.97945 0.87691 0.0
C1285 C 0.31083 0.02209 0.87739 0.0
C1286 C 0.35394 0.99029 0.89144 0.0
C1287 C 0.35377 0.0169 0.89847 0.0
H1288 H 0.9462 0.3351 0.92914 0.0
H1289 H 0.90707 0.2993 0.86239 0.0
H1290 H 0.94915 0.29524 0.83947 0.0
H1291 H 0.99636 0.30536 0.8367 0.0
H1292 H 0.03586 0.34154 0.90276 0.0
H1293 H 0.99451 0.34146 0.92788 0.0
C1294 C 0.94694 0.32599 0.90978 0.0
C1295 C 0.92342 0.31796 0.89733 0.0
C1296 C 0.97127 0.3239 0.89653 0.0
C1297 C 0.92478 0.30609 0.87226 0.0
C1298 C 0.94886 0.30374 0.85911 0.0
C1299 C 0.99589 0.31314 0.85663 0.0
C1300 C 0.01898 0.32376 0.86775 0.0
C1301 C 0.97208 0.31324 0.87075 0.0
C1302 C 0.01832 0.33321 0.89382 0.0
C1303 C 0.99466 0.3333 0.9081 0.0
H1304 H 0.67531 0.00891 0.86978 0.0
H1305 H 0.66985 0.00819 0.78489 0.0
H1306 H 0.67714 0.96065 0.78431 0.0
H1307 H 0.67966 0.91904 0.80792 0.0
H1308 H 0.68245 0.91814 0.89295 0.0
H1309 H 0.68252 0.96659 0.89362 0.0
C1310 C 0.67624 0.9983 0.85122 0.0
C1311 C 0.67166 0.01186 0.82741 0.0
C1312 C 0.67992 0.97076 0.85111 0.0
C1313 C 0.6728 0.99802 0.80343 0.0
C1314 C 0.67707 0.9709 0.8031 0.0
C1315 C 0.68073 0.92944 0.82663 0.0
C1316 C 0.68072 0.91513 0.85034 0.0
C1317 C 0.67981 0.95701 0.82682 0.0
C1318 C 0.6825 0.92878 0.87442 0.0
C1319 C 0.68225 0.95645 0.87479 0.0
H1320 H 0.00803 0.71497 0.14829 0.0
H1321 H 0.0336 0.63945 0.11905 0.0
H1322 H 0.98859 0.62954 0.10426 0.0
H1323 H 0.94099 0.63949 0.10709 0.0
H1324 H 0.91536 0.71534 0.13555 0.0
H1325 H 0.96138 0.72849 0.1428 0.0
C1326 C 0.00372 0.69671 0.138 0.0
C1327 C 0.02377 0.67779 0.13492 0.0
C1328 C 0.97785 0.69126 0.12962 0.0
C1329 C 0.01834 0.65423 0.12147 0.0
C1330 C 0.99262 0.64852 0.11323 0.0
C1331 C 0.94567 0.65926 0.11387 0.0
C1332 C 0.9251 0.67652 0.12074 0.0
C1333 C 0.97207 0.66647 0.11818 0.0
C1334 C 0.93104 0.70196 0.12981 0.0
C1335 C 0.9573 0.70931 0.13426 0.0
H1336 H 0.30007 0.0108 0.15492 0.0
H1337 H 0.36419 0.01914 0.10004 0.0
H1338 H 0.36151 0.97213 0.08884 0.0
H1339 H 0.34698 0.92765 0.10183 0.0
H1340 H 0.28653 0.91893 0.16093 0.0
H1341 H 0.28081 0.96682 0.1629 0.0
C1342 C 0.31259 0.00234 0.13974 0.0
C1343 C 0.33206 0.01811 0.12799 0.0
C1344 C 0.31165 0.97512 0.13444 0.0
C1345 C 0.34887 0.00716 0.10892 0.0
C1346 C 0.34746 0.98032 0.10276 0.0
C1347 C 0.33177 0.93628 0.11419 0.0
C1348 C 0.31689 0.91997 0.13093 0.0
C1349 C 0.32976 0.96388 0.11632 0.0
C1350 C 0.29778 0.93124 0.14754 0.0
C1351 C 0.2948 0.95861 0.14892 0.0
H1352 H 0.67405 0.07713 0.17881 0.0
H1353 H 0.68544 0.0931 0.0959 0.0
H1354 H 0.6878 0.04583 0.08683 0.0
H1355 H 0.68252 1.00001 0.10197 0.0
H1356 H 0.67075 0.9842 0.18471 0.0
H1357 H 0.67285 0.03139 0.19442 0.0
C1358 C 0.67737 0.07028 0.15879 0.0
C1359 C 0.67925 0.08856 0.13803 0.0
C1360 C 0.67842 0.04312 0.15368 0.0
C1361 C 0.68391 0.07942 0.11224 0.0
C1362 C 0.68508 0.05239 0.10701 0.0
C1363 C 0.6805 0.00697 0.1221 0.0
C1364 C 0.67617 0.98877 0.14256 0.0
C1365 C 0.68165 0.03409 0.12748 0.0
C1366 C 0.67417 0.99787 0.16867 0.0
C1367 C 0.67523 0.02483 0.1742 0.0
H1368 H 0.17074 0.22697 0.2763 0.0
H1369 H 0.09488 0.19515 0.25427 0.0
H1370 H 0.08992 0.22958 0.22068 0.0
H1371 H 0.10594 0.27081 0.20009 0.0
H1372 H 0.18233 0.30142 0.22131 0.0
H1373 H 0.18841 0.26547 0.2531 0.0
C1374 C 0.15329 0.22738 0.26386 0.0
C1375 C 0.13312 0.20878 0.26775 0.0
C1376 C 0.15054 0.24724 0.24491 0.0
C1377 C 0.11073 0.20922 0.25143 0.0
C1378 C 0.10777 0.22904 0.23247 0.0
C1379 C 0.12376 0.26954 0.21189 0.0
C1380 C 0.14346 0.28884 0.20911 0.0
C1381 C 0.12726 0.24854 0.22955 0.0
C1382 C 0.1669 0.28682 0.22364 0.0
C1383 C 0.17035 0.2663 0.24163 0.0
H1384 H 0.74592 0.16363 0.19507 0.0
H1385 H 0.67727 0.15086 0.24389 0.0
H1386 H 0.70448 0.12968 0.27727 0.0
H1387 H 0.74734 0.11588 0.29331 0.0
H1388 H 0.81743 0.13046 0.2471 0.0
H1389 H 0.79009 0.14917 0.21168 0.0
C1390 C 0.73703 0.15615 0.21303 0.0
C1391 C 0.7096 0.15913 0.21711 0.0
C1392 C 0.75298 0.14407 0.23244 0.0
C1393 C 0.69833 0.14938 0.24048 0.0
C1394 C 0.71385 0.13701 0.25949 0.0
C1395 C 0.75679 0.12288 0.27542 0.0
C1396 C 0.78446 0.12162 0.2729 0.0
C1397 C 0.74115 0.13439 0.25575 0.0
C1398 C 0.79617 0.13091 0.24951 0.0
C1399 C 0.78054 0.14183 0.22935 0.0
H1400 H 0.86258 0.79253 0.26573 0.0
H1401 H 0.94555 0.77416 0.2638 0.0
H1402 H 0.93748 0.73966 0.23075 0.0
H1403 H 0.90575 0.71107 0.20664 0.0
H1404 H 0.8224 0.72571 0.21434 0.0
H1405 H 0.83126 0.76496 0.24123 0.0
C1406 C 0.87892 0.78147 0.25747 0.0
C1407 C 0.90466 0.78616 0.26663 0.0
C1408 C 0.87382 0.7605 0.24007 0.0
C1409 C 0.92566 0.77118 0.2565 0.0
C1410 C 0.92097 0.75126 0.23791 0.0
C1411 C 0.88971 0.72311 0.21416 0.0
C1412 C 0.86351 0.71566 0.20895 0.0
C1413 C 0.89502 0.74513 0.23026 0.0
C1414 C 0.84266 0.73113 0.21858 0.0
C1415 C 0.84775 0.75357 0.23373 0.0
H1416 H 0.29798 0.88979 0.22514 0.0
H1417 H 0.25572 0.82138 0.19821 0.0
H1418 H 0.21712 0.8341 0.22493 0.0
H1419 H 0.19777 0.86256 0.25968 0.0
H1420 H 0.24101 0.93083 0.28638 0.0
H1421 H 0.27653 0.92108 0.2553 0.0
C1422 C 0.28016 0.87791 0.22514 0.0
C1423 C 0.27954 0.85453 0.21048 0.0
C1424 C 0.25823 0.88556 0.24017 0.0
C1425 C 0.25641 0.83932 0.20981 0.0
C1426 C 0.23446 0.84664 0.22496 0.0
C1427 C 0.21456 0.87573 0.25801 0.0
C1428 C 0.21691 0.89734 0.27526 0.0
C1429 C 0.23536 0.86948 0.24066 0.0
C1430 C 0.2389 0.91408 0.27324 0.0
C1431 C 0.2593 0.90839 0.25569 0.0
H1432 H 0.11388 0.75663 0.70548 0.0
H1433 H 0.13403 0.82195 0.75615 0.0
H1434 H 0.13657 0.79187 0.79414 0.0
H1435 H 0.13378 0.74644 0.81238 0.0
H1436 H 0.11177 0.68229 0.76103 0.0
H1437 H 0.10932 0.71249 0.72358 0.0
C1438 C 0.11883 0.76433 0.72485 0.0
C1439 C 0.124 0.79134 0.7281 0.0
C1440 C 0.12001 0.74709 0.74632 0.0
C1441 C 0.12992 0.80117 0.75331 0.0
C1442 C 0.1315 0.78398 0.77491 0.0
C1443 C 0.12864 0.7392 0.7929 0.0
C1444 C 0.12315 0.71223 0.78925 0.0
C1445 C 0.1268 0.75683 0.77157 0.0
C1446 C 0.116 0.70299 0.76416 0.0
C1447 C 0.11463 0.72021 0.74282 0.0
H1448 H 0.19054 0.13159 0.74321 0.0
H1449 H 0.23475 0.06864 0.70656 0.0
H1450 H 0.27112 0.07565 0.73723 0.0
H1451 H 0.29257 0.10296 0.77101 0.0
H1452 H 0.24891 0.16528 0.80872 0.0
H1453 H 0.21018 0.15544 0.7812 0.0
C1454 C 0.20781 0.11893 0.74249 0.0
C1455 C 0.21004 0.09975 0.72251 0.0
C1456 C 0.22899 0.12337 0.75999 0.0
C1457 C 0.23265 0.08365 0.72165 0.0
C1458 C 0.25355 0.08775 0.73907 0.0
C1459 C 0.27445 0.11418 0.77322 0.0
C1460 C 0.27354 0.13501 0.79139 0.0
C1461 C 0.25234 0.10814 0.75765 0.0
C1462 C 0.24992 0.14921 0.79465 0.0
C1463 C 0.22786 0.14359 0.77894 0.0
H1464 H 0.88721 0.26987 0.802 0.0
H1465 H 0.80816 0.29568 0.78449 0.0
H1466 H 0.80357 0.26051 0.75146 0.0
H1467 H 0.82348 0.22468 0.72561 0.0
H1468 H 0.90189 0.19726 0.74427 0.0
H1469 H 0.90531 0.2304 0.77945 0.0
C1470 C 0.86907 0.26763 0.79084 0.0
C1471 C 0.84821 0.28546 0.79494 0.0
C1472 C 0.86648 0.24705 0.77247 0.0
C1473 C 0.82444 0.28222 0.78117 0.0
C1474 C 0.82187 0.26217 0.76245 0.0
C1475 C 0.84112 0.22569 0.73774 0.0
C1476 C 0.86247 0.20879 0.73241 0.0
C1477 C 0.84291 0.24475 0.75769 0.0
C1478 C 0.88515 0.20999 0.74826 0.0
C1479 C 0.88721 0.2291 0.76812 0.0
H1480 H 0.74715 0.83745 0.80137 0.0
H1481 H 0.68049 0.84663 0.74909 0.0
H1482 H 0.70914 0.86464 0.7151 0.0
H1483 H 0.75266 0.87647 0.69957 0.0
H1484 H 0.82083 0.86582 0.74953 0.0
H1485 H 0.79199 0.85047 0.78545 0.0
C1486 C 0.73901 0.84349 0.78253 0.0
C1487 C 0.71174 0.84036 0.77764 0.0
C1488 C 0.75577 0.8538 0.76283 0.0
C1489 C 0.70142 0.84822 0.75315 0.0
C1490 C 0.71776 0.85879 0.73378 0.0
C1491 C 0.76136 0.87099 0.71835 0.0
C1492 C 0.78889 0.87223 0.72181 0.0
C1493 C 0.7449 0.86147 0.73834 0.0
C1494 C 0.79967 0.86522 0.7464 0.0
C1495 C 0.7832 0.85622 0.76683 0.0
H1496 H 0.18993 0.13582 0.25511 0.0
H1497 H 0.23616 0.10476 0.31946 0.0
H1498 H 0.27036 0.0906 0.28857 0.0
H1499 H 0.28877 0.09043 0.24415 0.0
H1500 H 0.24429 0.12335 0.17945 0.0
H1501 H 0.2074 0.13272 0.20942 0.0
C1502 C 0.20728 0.12553 0.26226 0.0
C1503 C 0.21062 0.12151 0.28961 0.0
C1504 C 0.22713 0.11779 0.24432 0.0
C1505 C 0.23334 0.10842 0.2986 0.0
C1506 C 0.25283 0.10023 0.28093 0.0
C1507 C 0.27087 0.09932 0.23644 0.0
C1508 C 0.26938 0.10628 0.20959 0.0
C1509 C 0.2502 0.10533 0.25387 0.0
C1510 C 0.24594 0.11764 0.19998 0.0
C1511 C 0.22493 0.12322 0.21718 0.0
H1512 H 0.8702 0.2582 0.20216 0.0
H1513 H 0.8926 0.31443 0.26216 0.0
H1514 H 0.87843 0.28406 0.29655 0.0
H1515 H 0.8578 0.24235 0.30978 0.0
H1516 H 0.83583 0.18557 0.2505 0.0
H1517 H 0.85155 0.21522 0.21566 0.0
C1518 C 0.87236 0.26359 0.22277 0.0
C1519 C 0.88238 0.28858 0.22955 0.0
C1520 C 0.86391 0.24607 0.24258 0.0
C1521 C 0.88486 0.29537 0.25636 0.0
C1522 C 0.87667 0.27805 0.27609 0.0
C1523 C 0.85635 0.23662 0.28921 0.0
C1524 C 0.84549 0.21204 0.28261 0.0
C1525 C 0.86573 0.25358 0.26944 0.0
C1526 C 0.84418 0.20447 0.25595 0.0
C1527 C 0.85315 0.22139 0.23608 0.0
H1528 H 0.74446 0.85123 0.18448 0.0
H1529 H 0.74336 0.92972 0.21697 0.0
H1530 H 0.7782 0.91764 0.24831 0.0
H1531 H 0.80428 0.88297 0.27033 0.0
H1532 H 0.80058 0.80317 0.24139 0.0
H1533 H 0.77218 0.81719 0.20492 0.0
C1534 C 0.75249 0.86585 0.19786 0.0
C1535 C 0.74186 0.89142 0.19822 0.0
C1536 C 0.77116 0.85823 0.21688 0.0
C1537 C 0.75171 0.91005 0.21617 0.0
C1538 C 0.77136 0.90305 0.23423 0.0
C1539 C 0.79754 0.86884 0.25573 0.0
C1540 C 0.8043 0.8421 0.25851 0.0
C1541 C 0.78052 0.87694 0.2354 0.0
C1542 C 0.7953 0.82378 0.23975 0.0
C1543 C 0.77919 0.83182 0.21888 0.0
H1544 H 0.17736 0.716 0.22679 0.0
H1545 H 0.11096 0.75801 0.19431 0.0
H1546 H 0.11894 0.79472 0.22511 0.0
H1547 H 0.14178 0.81181 0.26472 0.0
H1548 H 0.20876 0.76916 0.29596 0.0
H1549 H 0.20336 0.73549 0.26228 0.0
C1550 C 0.16493 0.73344 0.22619 0.0
C1551 C 0.14351 0.73441 0.20867 0.0
C1552 C 0.16945 0.75401 0.24402 0.0
C1553 C 0.12765 0.75706 0.20767 0.0
C1554 C 0.13207 0.77784 0.22542 0.0
C1555 C 0.15551 0.79544 0.26395 0.0
C1556 C 0.17529 0.79282 0.28342 0.0
C1557 C 0.15245 0.77612 0.24425 0.0
C1558 C 0.19284 0.77136 0.28191 0.0
C1559 C 0.18994 0.75216 0.26246 0.0
H1560 H 0.29417 0.89668 0.75541 0.0
H1561 H 0.24478 0.8738 0.82092 0.0
H1562 H 0.20788 0.8659 0.79046 0.0
H1563 H 0.19027 0.86447 0.74467 0.0
H1564 H 0.24096 0.88683 0.68004 0.0
H1565 H 0.277 0.89561 0.71073 0.0
C1566 C 0.27531 0.89011 0.76317 0.0
C1567 C 0.27222 0.88586 0.7904 0.0
C1568 C 0.25455 0.88521 0.74561 0.0
C1569 C 0.24759 0.87745 0.80004 0.0
C1570 C 0.22659 0.87272 0.78261 0.0
C1571 C 0.20932 0.87096 0.73739 0.0
C1572 C 0.21305 0.87493 0.71011 0.0
C1573 C 0.22996 0.87622 0.75528 0.0
C1574 C 0.23765 0.8838 0.70093 0.0
C1575 C 0.25822 0.88883 0.71846 0.0
H1576 H 0.16889 0.28581 0.77466 0.0
H1577 H 0.09711 0.24759 0.79941 0.0
H1578 H 0.10647 0.21037 0.76962 0.0
H1579 H 0.13286 0.19161 0.73312 0.0
H1580 H 0.20522 0.23015 0.70959 0.0
H1581 H 0.1978 0.26451 0.74233 0.0
C1582 C 0.15557 0.26905 0.77379 0.0
C1583 C 0.13233 0.26926 0.78888 0.0
C1584 C 0.16101 0.2481 0.75662 0.0
C1585 C 0.1152 0.24758 0.78797 0.0
C1586 C 0.12046 0.22651 0.77081 0.0
C1587 C 0.14729 0.20721 0.73543 0.0
C1588 C 0.16934 0.20849 0.71841 0.0
C1589 C 0.14298 0.22693 0.75451 0.0
C1590 C 0.18771 0.229 0.72179 0.0
C1591 C 0.1836 0.2486 0.74067 0.0
H1592 H 0.70428 0.10401 0.76061 0.0
H1593 H 0.75443 0.1312 0.8237 0.0
H1594 H 0.79057 0.13844 0.79202 0.0
H1595 H 0.80583 0.14138 0.74538 0.0
H1596 H 0.75437 0.11413 0.68318 0.0
H1597 H 0.72071 0.10265 0.71551 0.0
C1598 C 0.72325 0.11121 0.76751 0.0
C1599 C 0.72668 0.1173 0.79434 0.0
C1600 C 0.74354 0.11561 0.74926 0.0
C1601 C 0.75141 0.12628 0.80312 0.0
C1602 C 0.77194 0.13061 0.78496 0.0
C1603 C 0.78745 0.13248 0.73899 0.0
C1604 C 0.78246 0.12902 0.71179 0.0
C1605 C 0.76798 0.12598 0.75783 0.0
C1606 C 0.75847 0.11756 0.70387 0.0
C1607 C 0.73926 0.11086 0.72236 0.0
H1608 H 0.8569 0.73494 0.79488 0.0
H1609 H 0.93532 0.71696 0.76714 0.0
H1610 H 0.92984 0.74777 0.73039 0.0
H1611 H 0.90146 0.77671 0.70425 0.0
H1612 H 0.82164 0.79225 0.72974 0.0
H1613 H 0.82883 0.76554 0.76928 0.0
C1614 C 0.873 0.73848 0.7812 0.0
C1615 C 0.89667 0.72424 0.78384 0.0
C1616 C 0.86919 0.75524 0.75941 0.0
C1617 C 0.91714 0.72815 0.7656 0.0
C1618 C 0.91388 0.74549 0.74447 0.0
C1619 C 0.88549 0.77402 0.71822 0.0
C1620 C 0.86089 0.78615 0.71375 0.0
C1621 C 0.88971 0.7585 0.74074 0.0
C1622 C 0.84073 0.78308 0.73263 0.0
C1623 C 0.84485 0.76783 0.75526 0.0
H1624 H 0.29864 0.23843 0.13875 0.0
H1625 H 0.24047 0.1834 0.16692 0.0
H1626 H 0.20484 0.21375 0.15394 0.0
H1627 H 0.19068 0.25774 0.13695 0.0
H1628 H 0.25018 0.31158 0.10837 0.0
H1629 H 0.28472 0.27989 0.11864 0.0
C1630 C 0.27814 0.23319 0.14208 0.0
C1631 C 0.27209 0.20908 0.15415 0.0
C1632 C 0.25799 0.25048 0.13427 0.0
C1633 C 0.24548 0.20204 0.15777 0.0
C1634 C 0.22518 0.21937 0.15035 0.0
C1635 C 0.21115 0.26218 0.13247 0.0
C1636 C 0.21789 0.28703 0.12206 0.0
C1637 C 0.2312 0.24385 0.1388 0.0
C1638 C 0.24452 0.29267 0.11658 0.0
C1639 C 0.26433 0.27461 0.12253 0.0
H1640 H 0.24046 0.70115 0.87196 0.0
H1641 H 0.17412 0.75452 0.87308 0.0
H1642 H 0.20372 0.79139 0.8619 0.0
H1643 H 0.24851 0.8075 0.84907 0.0
H1644 H 0.31342 0.75224 0.84743 0.0
H1645 H 0.28413 0.71688 0.86107 0.0
C1646 C 0.23235 0.72085 0.86989 0.0
C1647 C 0.20512 0.72508 0.87318 0.0
C1648 C 0.24922 0.74152 0.86298 0.0
C1649 C 0.19506 0.7508 0.87075 0.0
C1650 C 0.21195 0.77179 0.86417 0.0
C1651 C 0.25618 0.78774 0.85188 0.0
C1652 C 0.2831 0.78247 0.84682 0.0
C1653 C 0.23907 0.76727 0.8598 0.0
C1654 C 0.29275 0.75675 0.8505 0.0
C1655 C 0.27605 0.73653 0.85855 0.0
H1656 H 0.30162 0.25224 0.86943 0.0
H1657 H 0.2474 0.18659 0.8707 0.0
H1658 H 0.21091 0.21637 0.85929 0.0
H1659 H 0.19521 0.26075 0.8467 0.0
H1660 H 0.25026 0.32579 0.84547 0.0
H1661 H 0.28591 0.29625 0.8585 0.0
C1662 C 0.28179 0.24437 0.86739 0.0
C1663 C 0.27722 0.21722 0.87088 0.0
C1664 C 0.26119 0.26143 0.86045 0.0
C1665 C 0.2514 0.20744 0.86831 0.0
C1666 C 0.2306 0.22443 0.86159 0.0
C1667 C 0.21492 0.26855 0.84957 0.0
C1668 C 0.22001 0.29554 0.84499 0.0
C1669 C 0.23537 0.25143 0.85729 0.0
C1670 C 0.24582 0.30512 0.8484 0.0
C1671 C 0.26619 0.28827 0.85608 0.0
H1672 H 0.73466 0.19735 0.90795 0.0
H1673 H 0.70451 0.22084 0.83211 0.0
H1674 H 0.73674 0.25693 0.83008 0.0
H1675 H 0.77135 0.28329 0.85142 0.0
H1676 H 0.80398 0.2584 0.92586 0.0
H1677 H 0.77314 0.22094 0.92703 0.0
C1678 C 0.73533 0.21046 0.89106 0.0
C1679 C 0.71711 0.20707 0.8704 0.0
C1680 C 0.7543 0.23063 0.88984 0.0
C1681 C 0.71832 0.22349 0.84822 0.0
C1682 C 0.73667 0.244 0.84711 0.0
C1683 C 0.77192 0.26937 0.86768 0.0
C1684 C 0.7896 0.27342 0.88861 0.0
C1685 C 0.75446 0.24796 0.86798 0.0
C1686 C 0.79051 0.25537 0.90951 0.0
C1687 C 0.77279 0.23417 0.91025 0.0
H1688 H 0.74388 0.80308 0.85665 0.0
H1689 H 0.70342 0.74979 0.90934 0.0
H1690 H 0.73503 0.71503 0.89908 0.0
H1691 H 0.77168 0.69842 0.87213 0.0
H1692 H 0.81324 0.75105 0.82019 0.0
H1693 H 0.78369 0.78746 0.83283 0.0
C1694 C 0.74245 0.78408 0.86637 0.0
C1695 C 0.72129 0.77893 0.88361 0.0
C1696 C 0.76049 0.76392 0.86001 0.0
C1697 C 0.71947 0.75415 0.89588 0.0
C1698 C 0.73743 0.73419 0.88991 0.0
C1699 C 0.77408 0.71791 0.86364 0.0
C1700 C 0.79396 0.72218 0.84492 0.0
C1701 C 0.75746 0.73861 0.87141 0.0
C1702 C 0.79768 0.74751 0.83443 0.0
C1703 C 0.7809 0.76823 0.84172 0.0
H1704 H 0.75051 0.80956 0.15035 0.0
H1705 H 0.68859 0.75778 0.17757 0.0
H1706 H 0.71595 0.71948 0.16746 0.0
H1707 H 0.75645 0.70074 0.14976 0.0
H1708 H 0.819 0.75163 0.12227 0.0
H1709 H 0.79214 0.79045 0.13333 0.0
C1710 C 0.74295 0.7899 0.15391 0.0
C1711 C 0.71741 0.78655 0.16458 0.0
C1712 C 0.75878 0.7679 0.14787 0.0
C1713 C 0.70819 0.76093 0.16963 0.0
C1714 C 0.72376 0.73902 0.16367 0.0
C1715 C 0.76432 0.72029 0.14606 0.0
C1716 C 0.78964 0.72327 0.13494 0.0
C1717 C 0.74893 0.74229 0.15259 0.0
C1718 C 0.79951 0.74879 0.13063 0.0
C1719 C 0.78418 0.77095 0.13699 0.0
H1720 H 0.20409 0.73819 0.14932 0.0
H1721 H 0.25678 0.67123 0.14747 0.0
H1722 H 0.29314 0.69991 0.13419 0.0
H1723 H 0.31015 0.74394 0.12427 0.0
H1724 H 0.25771 0.81108 0.12617 0.0
H1725 H 0.22071 0.7821 0.13738 0.0
C1726 C 0.22339 0.72973 0.14565 0.0
C1727 C 0.22763 0.70248 0.14944 0.0
C1728 C 0.24417 0.74632 0.13782 0.0
C1729 C 0.253 0.6921 0.1451 0.0
C1730 C 0.27376 0.70847 0.13729 0.0
C1731 C 0.29058 0.75227 0.12687 0.0
C1732 C 0.28672 0.77967 0.12441 0.0
C1733 C 0.26959 0.7356 0.13375 0.0
C1734 C 0.26121 0.79007 0.12779 0.0
C1735 C 0.2401 0.77352 0.1344 0.0
H1736 H 0.74443 0.20151 0.13788 0.0
H1737 H 0.70549 0.25233 0.08173 0.0
H1738 H 0.73775 0.28697 0.09008 0.0
H1739 H 0.77429 0.30454 0.11645 0.0
H1740 H 0.8141 0.25447 0.17225 0.0
H1741 H 0.78438 0.21782 0.16109 0.0
C1742 C 0.74348 0.21991 0.12701 0.0
C1743 C 0.72251 0.22443 0.10934 0.0
C1744 C 0.76192 0.24006 0.13226 0.0
C1745 C 0.72135 0.24846 0.09556 0.0
C1746 C 0.73969 0.26835 0.10042 0.0
C1747 C 0.77638 0.28556 0.12607 0.0
C1748 C 0.79588 0.28219 0.14541 0.0
C1749 C 0.75951 0.26469 0.11932 0.0
C1750 C 0.79902 0.2574 0.15738 0.0
C1751 C 0.78206 0.23653 0.151 0.0
loop_
_geom_bond_atom_site_label_1
_geom_bond_atom_site_label_2
_geom_bond_distance
_geom_bond_site_symmetry_2
_ccdc_geom_bond_type
C0 C1 1.351 . S
C0 N3 1.368 . S
C0 H5 0.931 . S
C1 C0 1.351 . S
C1 N2 1.373 . S
C1 H29 0.930 . S
N2 C1 1.373 . S
N2 C4 1.340 . S
N3 C0 1.368 . S
N3 C4 1.321 . S
N3 Co6 2.135 . S
C4 N2 1.340 . S
C4 N3 1.321 . S
C4 H28 0.930 . S
H5 C0 0.931 . S
Co6 N3 2.135 . S
Co6 N9 2.121 . S
Co6 O14 2.055 . S
Co6 O17 2.039 . S
Co6 N20 2.140 . S
C7 O8 1.227 . S
C7 O17 1.265 . S
O8 C7 1.227 . S
N9 Co6 2.121 . S
N9 C11 1.375 . S
N9 C12 1.313 . S
C10 C11 1.338 . S
C10 N13 1.377 . S
C10 H30 0.930 . S
C11 N9 1.375 . S
C11 C10 1.338 . S
C11 H15 0.931 . S
C12 N9 1.313 . S
C12 N13 1.344 . S
C12 H16 0.930 . S
N13 C10 1.377 . S
N13 C12 1.344 . S
O14 Co6 2.055 . S
O14 C18 1.253 . S
H15 C11 0.931 . S
H16 C12 0.930 . S
O17 Co6 2.039 . S
O17 C7 1.265 . S
C18 O14 1.253 . S
C18 O19 1.227 . S
O19 C18 1.227 . S
N20 Co6 2.140 . S
N20 C23 1.346 . S
N20 C24 1.345 . S
C21 C22 1.387 . S
C21 C25 1.391 . S
C22 C21 1.387 . S
C22 C23 1.369 . S
C22 H31 0.929 . S
C23 N20 1.346 . S
C23 C22 1.369 . S
C23 H26 0.928 . S
C24 N20 1.345 . S
C24 C25 1.371 . S
C24 H27 0.931 . S
C25 C21 1.391 . S
C25 C24 1.371 . S
C25 H32 0.930 . S
H26 C23 0.928 . S
H27 C24 0.931 . S
H28 C4 0.930 . S
H29 C1 0.930 . S
H30 C10 0.930 . S
H31 C22 0.929 . S
H32 C25 0.930 . S
C33 C34 1.351 . S
C33 N36 1.368 . S
C33 H38 0.931 . S
C34 C33 1.351 . S
C34 N35 1.373 . S
C34 H62 0.930 . S
N35 C34 1.373 . S
N35 C37 1.340 . S
N36 C33 1.368 . S
N36 C37 1.321 . S
N36 Co39 2.135 . S
C37 N35 1.340 . S
C37 N36 1.321 . S
C37 H61 0.930 . S
H38 C33 0.931 . S
Co39 N36 2.135 . S
Co39 N42 2.121 . S
Co39 O47 2.055 . S
Co39 O50 2.039 . S
Co39 N53 2.140 . S
C40 O41 1.227 . S
C40 O50 1.265 . S
O41 C40 1.227 . S
N42 Co39 2.121 . S
N42 C44 1.375 . S
N42 C45 1.313 . S
C43 C44 1.338 . S
C43 N46 1.377 . S
C43 H63 0.930 . S
C44 N42 1.375 . S
C44 C43 1.338 . S
C44 H48 0.931 . S
C45 N42 1.313 . S
C45 N46 1.344 . S
C45 H49 0.930 . S
N46 C43 1.377 . S
N46 C45 1.344 . S
O47 Co39 2.055 . S
O47 C51 1.253 . S
H48 C44 0.931 . S
H49 C45 0.930 . S
O50 Co39 2.039 . S
O50 C40 1.265 . S
C51 O47 1.253 . S
C51 O52 1.227 . S
O52 C51 1.227 . S
N53 Co39 2.140 . S
N53 C56 1.346 . S
N53 C57 1.345 . S
C54 C55 1.387 . S
C54 C58 1.391 . S
C55 C54 1.387 . S
C55 C56 1.369 . S
C55 H64 0.929 . S
C56 N53 1.346 . S
C56 C55 1.369 . S
C56 H59 0.928 . S
C57 N53 1.345 . S
C57 C58 1.371 . S
C57 H60 0.931 . S
C58 C54 1.391 . S
C58 C57 1.371 . S
C58 H65 0.930 . S
H59 C56 0.928 . S
H60 C57 0.931 . S
H61 C37 0.930 . S
H62 C34 0.930 . S
H63 C43 0.930 . S
H64 C55 0.929 . S
H65 C58 0.930 . S
C66 C67 1.351 . S
C66 N69 1.368 . S
C66 H71 0.931 . S
C67 C66 1.351 . S
C67 N68 1.373 . S
C67 H95 0.930 . S
N68 C67 1.373 . S
N68 C70 1.340 . S
N69 C66 1.368 . S
N69 C70 1.321 . S
N69 Co72 2.135 . S
C70 N68 1.340 . S
C70 N69 1.321 . S
C70 H94 0.930 . S
H71 C66 0.931 . S
Co72 N69 2.135 . S
Co72 N75 2.121 . S
Co72 O80 2.055 . S
Co72 O83 2.039 . S
Co72 N86 2.140 . S
C73 O74 1.227 . S
C73 O83 1.265 . S
O74 C73 1.227 . S
N75 Co72 2.121 . S
N75 C77 1.375 . S
N75 C78 1.313 . S
C76 C77 1.338 . S
C76 N79 1.377 . S
C76 H96 0.930 . S
C77 N75 1.375 . S
C77 C76 1.338 . S
C77 H81 0.931 . S
C78 N75 1.313 . S
C78 N79 1.344 . S
C78 H82 0.930 . S
N79 C76 1.377 . S
N79 C78 1.344 . S
O80 Co72 2.055 . S
O80 C84 1.253 . S
H81 C77 0.931 . S
H82 C78 0.930 . S
O83 Co72 2.039 . S
O83 C73 1.265 . S
C84 O80 1.253 . S
C84 O85 1.227 . S
O85 C84 1.227 . S
N86 Co72 2.140 . S
N86 C89 1.346 . S
N86 C90 1.345 . S
C87 C88 1.387 . S
C87 C91 1.391 . S
C88 C87 1.387 . S
C88 C89 1.369 . S
C88 H97 0.929 . S
C89 N86 1.346 . S
C89 C88 1.369 . S
C89 H92 0.928 . S
C90 N86 1.345 . S
C90 C91 1.371 . S
C90 H93 0.931 . S
C91 C87 1.391 . S
C91 C90 1.371 . S
C91 H98 0.930 . S
H92 C89 0.928 . S
H93 C90 0.931 . S
H94 C70 0.930 . S
H95 C67 0.930 . S
H96 C76 0.930 . S
H97 C88 0.929 . S
H98 C91 0.930 . S
C99 C100 1.351 . S
C99 N102 1.368 . S
C99 H104 0.931 . S
C100 C99 1.351 . S
C100 N101 1.373 . S
C100 H128 0.930 . S
N101 C100 1.373 . S
N101 C103 1.340 . S
N102 C99 1.368 . S
N102 C103 1.321 . S
N102 Co105 2.135 . S
C103 N101 1.340 . S
C103 N102 1.321 . S
C103 H127 0.930 . S
H104 C99 0.931 . S
Co105 N102 2.135 . S
Co105 N108 2.121 . S
Co105 O113 2.055 . S
Co105 O116 2.039 . S
Co105 N119 2.140 . S
C106 O107 1.227 . S
C106 O116 1.265 . S
O107 C106 1.227 . S
N108 Co105 2.121 . S
N108 C110 1.375 . S
N108 C111 1.313 . S
C109 C110 1.338 . S
C109 N112 1.377 . S
C109 H129 0.930 . S
C110 N108 1.375 . S
C110 C109 1.338 . S
C110 H114 0.931 . S
C111 N108 1.313 . S
C111 N112 1.344 . S
C111 H115 0.930 . S
N112 C109 1.377 . S
N112 C111 1.344 . S
O113 Co105 2.055 . S
O113 C117 1.253 . S
H114 C110 0.931 . S
H115 C111 0.930 . S
O116 Co105 2.039 . S
O116 C106 1.265 . S
C117 O113 1.253 . S
C117 O118 1.227 . S
O118 C117 1.227 . S
N119 Co105 2.140 . S
N119 C122 1.346 . S
N119 C123 1.345 . S
C120 C121 1.387 . S
C120 C124 1.391 . S
C121 C120 1.387 . S
C121 C122 1.369 . S
C121 H130 0.929 . S
C122 N119 1.346 . S
C122 C121 1.369 . S
C122 H125 0.928 . S
C123 N119 1.345 . S
C123 C124 1.371 . S
C123 H126 0.931 . S
C124 C120 1.391 . S
C124 C123 1.371 . S
C124 H131 0.930 . S
H125 C122 0.928 . S
H126 C123 0.931 . S
H127 C103 0.930 . S
H128 C100 0.930 . S
H129 C109 0.930 . S
H130 C121 0.929 . S
H131 C124 0.930 . S
C132 C133 1.351 . S
C132 N135 1.368 . S
C132 H137 0.931 . S
C133 C132 1.351 . S
C133 N134 1.373 . S
C133 H161 0.930 . S
N134 C133 1.373 . S
N134 C136 1.340 . S
N135 C132 1.368 . S
N135 C136 1.321 . S
N135 Co138 2.135 . S
C136 N134 1.340 . S
C136 N135 1.321 . S
C136 H160 0.930 . S
H137 C132 0.931 . S
Co138 N135 2.135 . S
Co138 N141 2.121 . S
Co138 O146 2.055 . S
Co138 O149 2.039 . S
Co138 N152 2.140 . S
C139 O140 1.227 . S
C139 O149 1.265 . S
O140 C139 1.227 . S
N141 Co138 2.121 . S
N141 C143 1.375 . S
N141 C144 1.313 . S
C142 C143 1.338 . S
C142 N145 1.377 . S
C142 H162 0.930 . S
C143 N141 1.375 . S
C143 C142 1.338 . S
C143 H147 0.931 . S
C144 N141 1.313 . S
C144 N145 1.344 . S
C144 H148 0.930 . S
N145 C142 1.377 . S
N145 C144 1.344 . S
O146 Co138 2.055 . S
O146 C150 1.253 . S
H147 C143 0.931 . S
H148 C144 0.930 . S
O149 Co138 2.039 . S
O149 C139 1.265 . S
C150 O146 1.253 . S
C150 O151 1.227 . S
O151 C150 1.227 . S
N152 Co138 2.140 . S
N152 C155 1.346 . S
N152 C156 1.345 . S
C153 C154 1.387 . S
C153 C157 1.391 . S
C154 C153 1.387 . S
C154 C155 1.369 . S
C154 H163 0.929 . S
C155 N152 1.346 . S
C155 C154 1.369 . S
C155 H158 0.928 . S
C156 N152 1.345 . S
C156 C157 1.371 . S
C156 H159 0.931 . S
C157 C153 1.391 . S
C157 C156 1.371 . S
C157 H164 0.930 . S
H158 C155 0.928 . S
H159 C156 0.931 . S
H160 C136 0.930 . S
H161 C133 0.930 . S
H162 C142 0.930 . S
H163 C154 0.929 . S
H164 C157 0.930 . S
C165 C166 1.351 . S
C165 N168 1.368 . S
C165 H170 0.931 . S
C166 C165 1.351 . S
C166 N167 1.373 . S
C166 H194 0.930 . S
N167 C166 1.373 . S
N167 C169 1.340 . S
N168 C165 1.368 . S
N168 C169 1.321 . S
N168 Co171 2.135 . S
C169 N167 1.340 . S
C169 N168 1.321 . S
C169 H193 0.930 . S
H170 C165 0.931 . S
Co171 N168 2.135 . S
Co171 N174 2.121 . S
Co171 O179 2.055 . S
Co171 O182 2.039 . S
Co171 N185 2.140 . S
C172 O173 1.227 . S
C172 O182 1.265 . S
O173 C172 1.227 . S
N174 Co171 2.121 . S
N174 C176 1.375 . S
N174 C177 1.313 . S
C175 C176 1.338 . S
C175 N178 1.377 . S
C175 H195 0.930 . S
C176 N174 1.375 . S
C176 C175 1.338 . S
C176 H180 0.931 . S
C177 N174 1.313 . S
C177 N178 1.344 . S
C177 H181 0.930 . S
N178 C175 1.377 . S
N178 C177 1.344 . S
O179 Co171 2.055 . S
O179 C183 1.253 . S
H180 C176 0.931 . S
H181 C177 0.930 . S
O182 Co171 2.039 . S
O182 C172 1.265 . S
C183 O179 1.253 . S
C183 O184 1.227 . S
O184 C183 1.227 . S
N185 Co171 2.140 . S
N185 C188 1.346 . S
N185 C189 1.345 . S
C186 C187 1.387 . S
C186 C190 1.391 . S
C187 C186 1.387 . S
C187 C188 1.369 . S
C187 H196 0.929 . S
C188 N185 1.346 . S
C188 C187 1.369 . S
C188 H191 0.928 . S
C189 N185 1.345 . S
C189 C190 1.371 . S
C189 H192 0.931 . S
C190 C186 1.391 . S
C190 C189 1.371 . S
C190 H197 0.930 . S
H191 C188 0.928 . S
H192 C189 0.931 . S
H193 C169 0.930 . S
H194 C166 0.930 . S
H195 C175 0.930 . S
H196 C187 0.929 . S
H197 C190 0.930 . S
C198 C199 1.351 . S
C198 N201 1.368 . S
C198 H203 0.931 . S
C199 C198 1.351 . S
C199 N200 1.373 . S
C199 H227 0.930 . S
N200 C199 1.373 . S
N200 C202 1.340 . S
N201 C198 1.368 . S
N201 C202 1.321 . S
N201 Co204 2.135 . S
C202 N200 1.340 . S
C202 N201 1.321 . S
C202 H226 0.930 . S
H203 C198 0.931 . S
Co204 N201 2.135 . S
Co204 N207 2.121 . S
Co204 O212 2.055 . S
Co204 O215 2.039 . S
Co204 N218 2.140 . S
C205 O206 1.227 . S
C205 O215 1.265 . S
O206 C205 1.227 . S
N207 Co204 2.121 . S
N207 C209 1.375 . S
N207 C210 1.313 . S
C208 C209 1.338 . S
C208 N211 1.377 . S
C208 H228 0.930 . S
C209 N207 1.375 . S
C209 C208 1.338 . S
C209 H213 0.931 . S
C210 N207 1.313 . S
C210 N211 1.344 . S
C210 H214 0.930 . S
N211 C208 1.377 . S
N211 C210 1.344 . S
O212 Co204 2.055 . S
O212 C216 1.253 . S
H213 C209 0.931 . S
H214 C210 0.930 . S
O215 Co204 2.039 . S
O215 C205 1.265 . S
C216 O212 1.253 . S
C216 O217 1.227 . S
O217 C216 1.227 . S
N218 Co204 2.140 . S
N218 C221 1.346 . S
N218 C222 1.345 . S
C219 C220 1.387 . S
C219 C223 1.391 . S
C220 C219 1.387 . S
C220 C221 1.369 . S
C220 H229 0.929 . S
C221 N218 1.346 . S
C221 C220 1.369 . S
C221 H224 0.928 . S
C222 N218 1.345 . S
C222 C223 1.371 . S
C222 H225 0.931 . S
C223 C219 1.391 . S
C223 C222 1.371 . S
C223 H230 0.930 . S
H224 C221 0.928 . S
H225 C222 0.931 . S
H226 C202 0.930 . S
H227 C199 0.930 . S
H228 C208 0.930 . S
H229 C220 0.929 . S
H230 C223 0.930 . S
C231 C232 1.351 . S
C231 N234 1.368 . S
C231 H236 0.931 . S
C232 C231 1.351 . S
C232 N233 1.373 . S
C232 H260 0.930 . S
N233 C232 1.373 . S
N233 C235 1.340 . S
N234 C231 1.368 . S
N234 C235 1.321 . S
N234 Co237 2.135 . S
C235 N233 1.340 . S
C235 N234 1.321 . S
C235 H259 0.930 . S
H236 C231 0.931 . S
Co237 N234 2.135 . S
Co237 N240 2.121 . S
Co237 O245 2.055 . S
Co237 O248 2.039 . S
Co237 N251 2.140 . S
C238 O239 1.227 . S
C238 O248 1.265 . S
O239 C238 1.227 . S
N240 Co237 2.121 . S
N240 C242 1.375 . S
N240 C243 1.313 . S
C241 C242 1.338 . S
C241 N244 1.377 . S
C241 H261 0.930 . S
C242 N240 1.375 . S
C242 C241 1.338 . S
C242 H246 0.931 . S
C243 N240 1.313 . S
C243 N244 1.344 . S
C243 H247 0.930 . S
N244 C241 1.377 . S
N244 C243 1.344 . S
O245 Co237 2.055 . S
O245 C249 1.253 . S
H246 C242 0.931 . S
H247 C243 0.930 . S
O248 Co237 2.039 . S
O248 C238 1.265 . S
C249 O245 1.253 . S
C249 O250 1.227 . S
O250 C249 1.227 . S
N251 Co237 2.140 . S
N251 C254 1.346 . S
N251 C255 1.345 . S
C252 C253 1.387 . S
C252 C256 1.391 . S
C253 C252 1.387 . S
C253 C254 1.369 . S
C253 H262 0.929 . S
C254 N251 1.346 . S
C254 C253 1.369 . S
C254 H257 0.928 . S
C255 N251 1.345 . S
C255 C256 1.371 . S
C255 H258 0.931 . S
C256 C252 1.391 . S
C256 C255 1.371 . S
C256 H263 0.930 . S
H257 C254 0.928 . S
H258 C255 0.931 . S
H259 C235 0.930 . S
H260 C232 0.930 . S
H261 C241 0.930 . S
H262 C253 0.929 . S
H263 C256 0.930 . S
C264 C265 1.351 . S
C264 N267 1.368 . S
C264 H269 0.931 . S
C265 C264 1.351 . S
C265 N266 1.373 . S
C265 H293 0.930 . S
N266 C265 1.373 . S
N266 C268 1.340 . S
N267 C264 1.368 . S
N267 C268 1.321 . S
N267 Co270 2.135 . S
C268 N266 1.340 . S
C268 N267 1.321 . S
C268 H292 0.930 . S
H269 C264 0.931 . S
Co270 N267 2.135 . S
Co270 N273 2.121 . S
Co270 O278 2.055 . S
Co270 O281 2.039 . S
Co270 N284 2.140 . S
C271 O272 1.227 . S
C271 O281 1.265 . S
O272 C271 1.227 . S
N273 Co270 2.121 . S
N273 C275 1.375 . S
N273 C276 1.313 . S
C274 C275 1.338 . S
C274 N277 1.377 . S
C274 H294 0.930 . S
C275 N273 1.375 . S
C275 C274 1.338 . S
C275 H279 0.931 . S
C276 N273 1.313 . S
C276 N277 1.344 . S
C276 H280 0.930 . S
N277 C274 1.377 . S
N277 C276 1.344 . S
O278 Co270 2.055 . S
O278 C282 1.253 . S
H279 C275 0.931 . S
H280 C276 0.930 . S
O281 Co270 2.039 . S
O281 C271 1.265 . S
C282 O278 1.253 . S
C282 O283 1.227 . S
O283 C282 1.227 . S
N284 Co270 2.140 . S
N284 C287 1.346 . S
N284 C288 1.345 . S
C285 C286 1.387 . S
C285 C289 1.391 . S
C286 C285 1.387 . S
C286 C287 1.369 . S
C286 H295 0.929 . S
C287 N284 1.346 . S
C287 C286 1.369 . S
C287 H290 0.928 . S
C288 N284 1.345 . S
C288 C289 1.371 . S
C288 H291 0.931 . S
C289 C285 1.391 . S
C289 C288 1.371 . S
C289 H296 0.930 . S
H290 C287 0.928 . S
H291 C288 0.931 . S
H292 C268 0.930 . S
H293 C265 0.930 . S
H294 C274 0.930 . S
H295 C286 0.929 . S
H296 C289 0.930 . S
C297 C298 1.351 . S
C297 N300 1.368 . S
C297 H302 0.931 . S
C298 C297 1.351 . S
C298 N299 1.373 . S
C298 H326 0.930 . S
N299 C298 1.373 . S
N299 C301 1.340 . S
N300 C297 1.368 . S
N300 C301 1.321 . S
N300 Co303 2.135 . S
C301 N299 1.340 . S
C301 N300 1.321 . S
C301 H325 0.930 . S
H302 C297 0.931 . S
Co303 N300 2.135 . S
Co303 N306 2.121 . S
Co303 O311 2.055 . S
Co303 O314 2.039 . S
Co303 N317 2.140 . S
C304 O305 1.227 . S
C304 O314 1.265 . S
O305 C304 1.227 . S
N306 Co303 2.121 . S
N306 C308 1.375 . S
N306 C309 1.313 . S
C307 C308 1.338 . S
C307 N310 1.377 . S
C307 H327 0.930 . S
C308 N306 1.375 . S
C308 C307 1.338 . S
C308 H312 0.931 . S
C309 N306 1.313 . S
C309 N310 1.344 . S
C309 H313 0.930 . S
N310 C307 1.377 . S
N310 C309 1.344 . S
O311 Co303 2.055 . S
O311 C315 1.253 . S
H312 C308 0.931 . S
H313 C309 0.930 . S
O314 Co303 2.039 . S
O314 C304 1.265 . S
C315 O311 1.253 . S
C315 O316 1.227 . S
O316 C315 1.227 . S
N317 Co303 2.140 . S
N317 C320 1.346 . S
N317 C321 1.345 . S
C318 C319 1.387 . S
C318 C322 1.391 . S
C319 C318 1.387 . S
C319 C320 1.369 . S
C319 H328 0.929 . S
C320 N317 1.346 . S
C320 C319 1.369 . S
C320 H323 0.928 . S
C321 N317 1.345 . S
C321 C322 1.371 . S
C321 H324 0.931 . S
C322 C318 1.391 . S
C322 C321 1.371 . S
C322 H329 0.930 . S
H323 C320 0.928 . S
H324 C321 0.931 . S
H325 C301 0.930 . S
H326 C298 0.930 . S
H327 C307 0.930 . S
H328 C319 0.929 . S
H329 C322 0.930 . S
C330 C331 1.351 . S
C330 N333 1.368 . S
C330 H335 0.931 . S
C331 C330 1.351 . S
C331 N332 1.373 . S
C331 H359 0.930 . S
N332 C331 1.373 . S
N332 C334 1.340 . S
N333 C330 1.368 . S
N333 C334 1.321 . S
N333 Co336 2.135 . S
C334 N332 1.340 . S
C334 N333 1.321 . S
C334 H358 0.930 . S
H335 C330 0.931 . S
Co336 N333 2.135 . S
Co336 N339 2.121 . S
Co336 O344 2.055 . S
Co336 O347 2.039 . S
Co336 N350 2.140 . S
C337 O338 1.227 . S
C337 O347 1.265 . S
O338 C337 1.227 . S
N339 Co336 2.121 . S
N339 C341 1.375 . S
N339 C342 1.313 . S
C340 C341 1.338 . S
C340 N343 1.377 . S
C340 H360 0.930 . S
C341 N339 1.375 . S
C341 C340 1.338 . S
C341 H345 0.931 . S
C342 N339 1.313 . S
C342 N343 1.344 . S
C342 H346 0.930 . S
N343 C340 1.377 . S
N343 C342 1.344 . S
O344 Co336 2.055 . S
O344 C348 1.253 . S
H345 C341 0.931 . S
H346 C342 0.930 . S
O347 Co336 2.039 . S
O347 C337 1.265 . S
C348 O344 1.253 . S
C348 O349 1.227 . S
O349 C348 1.227 . S
N350 Co336 2.140 . S
N350 C353 1.346 . S
N350 C354 1.345 . S
C351 C352 1.387 . S
C351 C355 1.391 . S
C352 C351 1.387 . S
C352 C353 1.369 . S
C352 H361 0.929 . S
C353 N350 1.346 . S
C353 C352 1.369 . S
C353 H356 0.928 . S
C354 N350 1.345 . S
C354 C355 1.371 . S
C354 H357 0.931 . S
C355 C351 1.391 . S
C355 C354 1.371 . S
C355 H362 0.930 . S
H356 C353 0.928 . S
H357 C354 0.931 . S
H358 C334 0.930 . S
H359 C331 0.930 . S
H360 C340 0.930 . S
H361 C352 0.929 . S
H362 C355 0.930 . S
C363 C364 1.351 . S
C363 N366 1.368 . S
C363 H368 0.931 . S
C364 C363 1.351 . S
C364 N365 1.373 . S
C364 H392 0.930 . S
N365 C364 1.373 . S
N365 C367 1.340 . S
N366 C363 1.368 . S
N366 C367 1.321 . S
N366 Co369 2.135 . S
C367 N365 1.340 . S
C367 N366 1.321 . S
C367 H391 0.930 . S
H368 C363 0.931 . S
Co369 N366 2.135 . S
Co369 N372 2.121 . S
Co369 O377 2.055 . S
Co369 O380 2.039 . S
Co369 N383 2.140 . S
C370 O371 1.227 . S
C370 O380 1.265 . S
O371 C370 1.227 . S
N372 Co369 2.121 . S
N372 C374 1.375 . S
N372 C375 1.313 . S
C373 C374 1.338 . S
C373 N376 1.377 . S
C373 H393 0.930 . S
C374 N372 1.375 . S
C374 C373 1.338 . S
C374 H378 0.931 . S
C375 N372 1.313 . S
C375 N376 1.344 . S
C375 H379 0.930 . S
N376 C373 1.377 . S
N376 C375 1.344 . S
O377 Co369 2.055 . S
O377 C381 1.253 . S
H378 C374 0.931 . S
H379 C375 0.930 . S
O380 Co369 2.039 . S
O380 C370 1.265 . S
C381 O377 1.253 . S
C381 O382 1.227 . S
O382 C381 1.227 . S
N383 Co369 2.140 . S
N383 C386 1.346 . S
N383 C387 1.345 . S
C384 C385 1.387 . S
C384 C388 1.391 . S
C385 C384 1.387 . S
C385 C386 1.369 . S
C385 H394 0.929 . S
C386 N383 1.346 . S
C386 C385 1.369 . S
C386 H389 0.928 . S
C387 N383 1.345 . S
C387 C388 1.371 . S
C387 H390 0.931 . S
C388 C384 1.391 . S
C388 C387 1.371 . S
C388 H395 0.930 . S
H389 C386 0.928 . S
H390 C387 0.931 . S
H391 C367 0.930 . S
H392 C364 0.930 . S
H393 C373 0.930 . S
H394 C385 0.929 . S
H395 C388 0.930 . S
C396 C397 1.351 . S
C396 N399 1.368 . S
C396 H401 0.931 . S
C397 C396 1.351 . S
C397 N398 1.373 . S
C397 H425 0.930 . S
N398 C397 1.373 . S
N398 C400 1.340 . S
N399 C396 1.368 . S
N399 C400 1.321 . S
N399 Co402 2.135 . S
C400 N398 1.340 . S
C400 N399 1.321 . S
C400 H424 0.930 . S
H401 C396 0.931 . S
Co402 N399 2.135 . S
Co402 N405 2.121 . S
Co402 O410 2.055 . S
Co402 O413 2.039 . S
Co402 N416 2.140 . S
C403 O404 1.227 . S
C403 O413 1.265 . S
O404 C403 1.227 . S
N405 Co402 2.121 . S
N405 C407 1.375 . S
N405 C408 1.313 . S
C406 C407 1.338 . S
C406 N409 1.377 . S
C406 H426 0.930 . S
C407 N405 1.375 . S
C407 C406 1.338 . S
C407 H411 0.931 . S
C408 N405 1.313 . S
C408 N409 1.344 . S
C408 H412 0.930 . S
N409 C406 1.377 . S
N409 C408 1.344 . S
O410 Co402 2.055 . S
O410 C414 1.253 . S
H411 C407 0.931 . S
H412 C408 0.930 . S
O413 Co402 2.039 . S
O413 C403 1.265 . S
C414 O410 1.253 . S
C414 O415 1.227 . S
O415 C414 1.227 . S
N416 Co402 2.140 . S
N416 C419 1.346 . S
N416 C420 1.345 . S
C417 C418 1.387 . S
C417 C421 1.391 . S
C418 C417 1.387 . S
C418 C419 1.369 . S
C418 H427 0.929 . S
C419 N416 1.346 . S
C419 C418 1.369 . S
C419 H422 0.928 . S
C420 N416 1.345 . S
C420 C421 1.371 . S
C420 H423 0.931 . S
C421 C417 1.391 . S
C421 C420 1.371 . S
C421 H428 0.930 . S
H422 C419 0.928 . S
H423 C420 0.931 . S
H424 C400 0.930 . S
H425 C397 0.930 . S
H426 C406 0.930 . S
H427 C418 0.929 . S
H428 C421 0.930 . S
C429 C430 1.351 . S
C429 N432 1.368 . S
C429 H434 0.931 . S
C430 C429 1.351 . S
C430 N431 1.373 . S
C430 H458 0.930 . S
N431 C430 1.373 . S
N431 C433 1.340 . S
N432 C429 1.368 . S
N432 C433 1.321 . S
N432 Co435 2.135 . S
C433 N431 1.340 . S
C433 N432 1.321 . S
C433 H457 0.930 . S
H434 C429 0.931 . S
Co435 N432 2.135 . S
Co435 N438 2.121 . S
Co435 O443 2.055 . S
Co435 O446 2.039 . S
Co435 N449 2.140 . S
C436 O437 1.227 . S
C436 O446 1.265 . S
O437 C436 1.227 . S
N438 Co435 2.121 . S
N438 C440 1.375 . S
N438 C441 1.313 . S
C439 C440 1.338 . S
C439 N442 1.377 . S
C439 H459 0.930 . S
C440 N438 1.375 . S
C440 C439 1.338 . S
C440 H444 0.931 . S
C441 N438 1.313 . S
C441 N442 1.344 . S
C441 H445 0.930 . S
N442 C439 1.377 . S
N442 C441 1.344 . S
O443 Co435 2.055 . S
O443 C447 1.253 . S
H444 C440 0.931 . S
H445 C441 0.930 . S
O446 Co435 2.039 . S
O446 C436 1.265 . S
C447 O443 1.253 . S
C447 O448 1.227 . S
O448 C447 1.227 . S
N449 Co435 2.140 . S
N449 C452 1.346 . S
N449 C453 1.345 . S
C450 C451 1.387 . S
C450 C454 1.391 . S
C451 C450 1.387 . S
C451 C452 1.369 . S
C451 H460 0.929 . S
C452 N449 1.346 . S
C452 C451 1.369 . S
C452 H455 0.928 . S
C453 N449 1.345 . S
C453 C454 1.371 . S
C453 H456 0.931 . S
C454 C450 1.391 . S
C454 C453 1.371 . S
C454 H461 0.930 . S
H455 C452 0.928 . S
H456 C453 0.931 . S
H457 C433 0.930 . S
H458 C430 0.930 . S
H459 C439 0.930 . S
H460 C451 0.929 . S
H461 C454 0.930 . S
C462 C463 1.351 . S
C462 N465 1.368 . S
C462 H467 0.931 . S
C463 C462 1.351 . S
C463 N464 1.373 . S
C463 H491 0.930 . S
N464 C463 1.373 . S
N464 C466 1.340 . S
N465 C462 1.368 . S
N465 C466 1.321 . S
N465 Co468 2.135 . S
C466 N464 1.340 . S
C466 N465 1.321 . S
C466 H490 0.930 . S
H467 C462 0.931 . S
Co468 N465 2.135 . S
Co468 N471 2.121 . S
Co468 O476 2.055 . S
Co468 O479 2.039 . S
Co468 N482 2.140 . S
C469 O470 1.227 . S
C469 O479 1.265 . S
O470 C469 1.227 . S
N471 Co468 2.121 . S
N471 C473 1.375 . S
N471 C474 1.313 . S
C472 C473 1.338 . S
C472 N475 1.377 . S
C472 H492 0.930 . S
C473 N471 1.375 . S
C473 C472 1.338 . S
C473 H477 0.931 . S
C474 N471 1.313 . S
C474 N475 1.344 . S
C474 H478 0.930 . S
N475 C472 1.377 . S
N475 C474 1.344 . S
O476 Co468 2.055 . S
O476 C480 1.253 . S
H477 C473 0.931 . S
H478 C474 0.930 . S
O479 Co468 2.039 . S
O479 C469 1.265 . S
C480 O476 1.253 . S
C480 O481 1.227 . S
O481 C480 1.227 . S
N482 Co468 2.140 . S
N482 C485 1.346 . S
N482 C486 1.345 . S
C483 C484 1.387 . S
C483 C487 1.391 . S
C484 C483 1.387 . S
C484 C485 1.369 . S
C484 H493 0.929 . S
C485 N482 1.346 . S
C485 C484 1.369 . S
C485 H488 0.928 . S
C486 N482 1.345 . S
C486 C487 1.371 . S
C486 H489 0.931 . S
C487 C483 1.391 . S
C487 C486 1.371 . S
C487 H494 0.930 . S
H488 C485 0.928 . S
H489 C486 0.931 . S
H490 C466 0.930 . S
H491 C463 0.930 . S
H492 C472 0.930 . S
H493 C484 0.929 . S
H494 C487 0.930 . S
C495 C496 1.351 . S
C495 N498 1.368 . S
C495 H500 0.931 . S
C496 C495 1.351 . S
C496 N497 1.373 . S
C496 H524 0.930 . S
N497 C496 1.373 . S
N497 C499 1.340 . S
N498 C495 1.368 . S
N498 C499 1.321 . S
N498 Co501 2.135 . S
C499 N497 1.340 . S
C499 N498 1.321 . S
C499 H523 0.930 . S
H500 C495 0.931 . S
Co501 N498 2.135 . S
Co501 N504 2.121 . S
Co501 O509 2.055 . S
Co501 O512 2.039 . S
Co501 N515 2.140 . S
C502 O503 1.227 . S
C502 O512 1.265 . S
O503 C502 1.227 . S
N504 Co501 2.121 . S
N504 C506 1.375 . S
N504 C507 1.313 . S
C505 C506 1.338 . S
C505 N508 1.377 . S
C505 H525 0.930 . S
C506 N504 1.375 . S
C506 C505 1.338 . S
C506 H510 0.931 . S
C507 N504 1.313 . S
C507 N508 1.344 . S
C507 H511 0.930 . S
N508 C505 1.377 . S
N508 C507 1.344 . S
O509 Co501 2.055 . S
O509 C513 1.253 . S
H510 C506 0.931 . S
H511 C507 0.930 . S
O512 Co501 2.039 . S
O512 C502 1.265 . S
C513 O509 1.253 . S
C513 O514 1.227 . S
O514 C513 1.227 . S
N515 Co501 2.140 . S
N515 C518 1.346 . S
N515 C519 1.345 . S
C516 C517 1.387 . S
C516 C520 1.391 . S
C517 C516 1.387 . S
C517 C518 1.369 . S
C517 H526 0.929 . S
C518 N515 1.346 . S
C518 C517 1.369 . S
C518 H521 0.928 . S
C519 N515 1.345 . S
C519 C520 1.371 . S
C519 H522 0.931 . S
C520 C516 1.391 . S
C520 C519 1.371 . S
C520 H527 0.930 . S
H521 C518 0.928 . S
H522 C519 0.931 . S
H523 C499 0.930 . S
H524 C496 0.930 . S
H525 C505 0.930 . S
H526 C517 0.929 . S
H527 C520 0.930 . S
C528 C529 1.351 . S
C528 N531 1.368 . S
C528 H533 0.931 . S
C529 C528 1.351 . S
C529 N530 1.373 . S
C529 H557 0.930 . S
N530 C529 1.373 . S
N530 C532 1.340 . S
N531 C528 1.368 . S
N531 C532 1.321 . S
N531 Co534 2.135 . S
C532 N530 1.340 . S
C532 N531 1.321 . S
C532 H556 0.930 . S
H533 C528 0.931 . S
Co534 N531 2.135 . S
Co534 N537 2.121 . S
Co534 O542 2.055 . S
Co534 O545 2.039 . S
Co534 N548 2.140 . S
C535 O536 1.227 . S
C535 O545 1.265 . S
O536 C535 1.227 . S
N537 Co534 2.121 . S
N537 C539 1.375 . S
N537 C540 1.313 . S
C538 C539 1.338 . S
C538 N541 1.377 . S
C538 H558 0.930 . S
C539 N537 1.375 . S
C539 C538 1.338 . S
C539 H543 0.931 . S
C540 N537 1.313 . S
C540 N541 1.344 . S
C540 H544 0.930 . S
N541 C538 1.377 . S
N541 C540 1.344 . S
O542 Co534 2.055 . S
O542 C546 1.253 . S
H543 C539 0.931 . S
H544 C540 0.930 . S
O545 Co534 2.039 . S
O545 C535 1.265 . S
C546 O542 1.253 . S
C546 O547 1.227 . S
O547 C546 1.227 . S
N548 Co534 2.140 . S
N548 C551 1.346 . S
N548 C552 1.345 . S
C549 C550 1.387 . S
C549 C553 1.391 . S
C550 C549 1.387 . S
C550 C551 1.369 . S
C550 H559 0.929 . S
C551 N548 1.346 . S
C551 C550 1.369 . S
C551 H554 0.928 . S
C552 N548 1.345 . S
C552 C553 1.371 . S
C552 H555 0.931 . S
C553 C549 1.391 . S
C553 C552 1.371 . S
C553 H560 0.930 . S
H554 C551 0.928 . S
H555 C552 0.931 . S
H556 C532 0.930 . S
H557 C529 0.930 . S
H558 C538 0.930 . S
H559 C550 0.929 . S
H560 C553 0.930 . S
C561 C562 1.351 . S
C561 N564 1.368 . S
C561 H566 0.931 . S
C562 C561 1.351 . S
C562 N563 1.373 . S
C562 H590 0.930 . S
N563 C562 1.373 . S
N563 C565 1.340 . S
N564 C561 1.368 . S
N564 C565 1.321 . S
N564 Co567 2.135 . S
C565 N563 1.340 . S
C565 N564 1.321 . S
C565 H589 0.930 . S
H566 C561 0.931 . S
Co567 N564 2.135 . S
Co567 N570 2.121 . S
Co567 O575 2.055 . S
Co567 O578 2.039 . S
Co567 N581 2.140 . S
C568 O569 1.227 . S
C568 O578 1.265 . S
O569 C568 1.227 . S
N570 Co567 2.121 . S
N570 C572 1.375 . S
N570 C573 1.313 . S
C571 C572 1.338 . S
C571 N574 1.377 . S
C571 H591 0.930 . S
C572 N570 1.375 . S
C572 C571 1.338 . S
C572 H576 0.931 . S
C573 N570 1.313 . S
C573 N574 1.344 . S
C573 H577 0.930 . S
N574 C571 1.377 . S
N574 C573 1.344 . S
O575 Co567 2.055 . S
O575 C579 1.253 . S
H576 C572 0.931 . S
H577 C573 0.930 . S
O578 Co567 2.039 . S
O578 C568 1.265 . S
C579 O575 1.253 . S
C579 O580 1.227 . S
O580 C579 1.227 . S
N581 Co567 2.140 . S
N581 C584 1.346 . S
N581 C585 1.345 . S
C582 C583 1.387 . S
C582 C586 1.391 . S
C583 C582 1.387 . S
C583 C584 1.369 . S
C583 H592 0.929 . S
C584 N581 1.346 . S
C584 C583 1.369 . S
C584 H587 0.928 . S
C585 N581 1.345 . S
C585 C586 1.371 . S
C585 H588 0.931 . S
C586 C582 1.391 . S
C586 C585 1.371 . S
C586 H593 0.930 . S
H587 C584 0.928 . S
H588 C585 0.931 . S
H589 C565 0.930 . S
H590 C562 0.930 . S
H591 C571 0.930 . S
H592 C583 0.929 . S
H593 C586 0.930 . S
C594 C595 1.351 . S
C594 N597 1.368 . S
C594 H599 0.931 . S
C595 C594 1.351 . S
C595 N596 1.373 . S
C595 H623 0.930 . S
N596 C595 1.373 . S
N596 C598 1.340 . S
N597 C594 1.368 . S
N597 C598 1.321 . S
N597 Co600 2.135 . S
C598 N596 1.340 . S
C598 N597 1.321 . S
C598 H622 0.930 . S
H599 C594 0.931 . S
Co600 N597 2.135 . S
Co600 N603 2.121 . S
Co600 O608 2.055 . S
Co600 O611 2.039 . S
Co600 N614 2.140 . S
C601 O602 1.227 . S
C601 O611 1.265 . S
O602 C601 1.227 . S
N603 Co600 2.121 . S
N603 C605 1.375 . S
N603 C606 1.313 . S
C604 C605 1.338 . S
C604 N607 1.377 . S
C604 H624 0.930 . S
C605 N603 1.375 . S
C605 C604 1.338 . S
C605 H609 0.931 . S
C606 N603 1.313 . S
C606 N607 1.344 . S
C606 H610 0.930 . S
N607 C604 1.377 . S
N607 C606 1.344 . S
O608 Co600 2.055 . S
O608 C612 1.253 . S
H609 C605 0.931 . S
H610 C606 0.930 . S
O611 Co600 2.039 . S
O611 C601 1.265 . S
C612 O608 1.253 . S
C612 O613 1.227 . S
O613 C612 1.227 . S
N614 Co600 2.140 . S
N614 C617 1.346 . S
N614 C618 1.345 . S
C615 C616 1.387 . S
C615 C619 1.391 . S
C616 C615 1.387 . S
C616 C617 1.369 . S
C616 H625 0.929 . S
C617 N614 1.346 . S
C617 C616 1.369 . S
C617 H620 0.928 . S
C618 N614 1.345 . S
C618 C619 1.371 . S
C618 H621 0.931 . S
C619 C615 1.391 . S
C619 C618 1.371 . S
C619 H626 0.930 . S
H620 C617 0.928 . S
H621 C618 0.931 . S
H622 C598 0.930 . S
H623 C595 0.930 . S
H624 C604 0.930 . S
H625 C616 0.929 . S
H626 C619 0.930 . S
C627 C628 1.351 . S
C627 N630 1.368 . S
C627 H632 0.931 . S
C628 C627 1.351 . S
C628 N629 1.373 . S
C628 H656 0.930 . S
N629 C628 1.373 . S
N629 C631 1.340 . S
N630 C627 1.368 . S
N630 C631 1.321 . S
N630 Co633 2.135 . S
C631 N629 1.340 . S
C631 N630 1.321 . S
C631 H655 0.930 . S
H632 C627 0.931 . S
Co633 N630 2.135 . S
Co633 N636 2.121 . S
Co633 O641 2.055 . S
Co633 O644 2.039 . S
Co633 N647 2.140 . S
C634 O635 1.227 . S
C634 O644 1.265 . S
O635 C634 1.227 . S
N636 Co633 2.121 . S
N636 C638 1.375 . S
N636 C639 1.313 . S
C637 C638 1.338 . S
C637 N640 1.377 . S
C637 H657 0.930 . S
C638 N636 1.375 . S
C638 C637 1.338 . S
C638 H642 0.931 . S
C639 N636 1.313 . S
C639 N640 1.344 . S
C639 H643 0.930 . S
N640 C637 1.377 . S
N640 C639 1.344 . S
O641 Co633 2.055 . S
O641 C645 1.253 . S
H642 C638 0.931 . S
H643 C639 0.930 . S
O644 Co633 2.039 . S
O644 C634 1.265 . S
C645 O641 1.253 . S
C645 O646 1.227 . S
O646 C645 1.227 . S
N647 Co633 2.140 . S
N647 C650 1.346 . S
N647 C651 1.345 . S
C648 C649 1.387 . S
C648 C652 1.391 . S
C649 C648 1.387 . S
C649 C650 1.369 . S
C649 H658 0.929 . S
C650 N647 1.346 . S
C650 C649 1.369 . S
C650 H653 0.928 . S
C651 N647 1.345 . S
C651 C652 1.371 . S
C651 H654 0.931 . S
C652 C648 1.391 . S
C652 C651 1.371 . S
C652 H659 0.930 . S
H653 C650 0.928 . S
H654 C651 0.931 . S
H655 C631 0.930 . S
H656 C628 0.930 . S
H657 C637 0.930 . S
H658 C649 0.929 . S
H659 C652 0.930 . S
C660 C661 1.351 . S
C660 N663 1.368 . S
C660 H665 0.931 . S
C661 C660 1.351 . S
C661 N662 1.373 . S
C661 H689 0.930 . S
N662 C661 1.373 . S
N662 C664 1.340 . S
N663 C660 1.368 . S
N663 C664 1.321 . S
N663 Co666 2.135 . S
C664 N662 1.340 . S
C664 N663 1.321 . S
C664 H688 0.930 . S
H665 C660 0.931 . S
Co666 N663 2.135 . S
Co666 N669 2.121 . S
Co666 O674 2.055 . S
Co666 O677 2.039 . S
Co666 N680 2.140 . S
C667 O668 1.227 . S
C667 O677 1.265 . S
O668 C667 1.227 . S
N669 Co666 2.121 . S
N669 C671 1.375 . S
N669 C672 1.313 . S
C670 C671 1.338 . S
C670 N673 1.377 . S
C670 H690 0.930 . S
C671 N669 1.375 . S
C671 C670 1.338 . S
C671 H675 0.931 . S
C672 N669 1.313 . S
C672 N673 1.344 . S
C672 H676 0.930 . S
N673 C670 1.377 . S
N673 C672 1.344 . S
O674 Co666 2.055 . S
O674 C678 1.253 . S
H675 C671 0.931 . S
H676 C672 0.930 . S
O677 Co666 2.039 . S
O677 C667 1.265 . S
C678 O674 1.253 . S
C678 O679 1.227 . S
O679 C678 1.227 . S
N680 Co666 2.140 . S
N680 C683 1.346 . S
N680 C684 1.345 . S
C681 C682 1.387 . S
C681 C685 1.391 . S
C682 C681 1.387 . S
C682 C683 1.369 . S
C682 H691 0.929 . S
C683 N680 1.346 . S
C683 C682 1.369 . S
C683 H686 0.928 . S
C684 N680 1.345 . S
C684 C685 1.371 . S
C684 H687 0.931 . S
C685 C681 1.391 . S
C685 C684 1.371 . S
C685 H692 0.930 . S
H686 C683 0.928 . S
H687 C684 0.931 . S
H688 C664 0.930 . S
H689 C661 0.930 . S
H690 C670 0.930 . S
H691 C682 0.929 . S
H692 C685 0.930 . S
C693 C694 1.351 . S
C693 N696 1.368 . S
C693 H698 0.931 . S
C694 C693 1.351 . S
C694 N695 1.373 . S
C694 H722 0.930 . S
N695 C694 1.373 . S
N695 C697 1.340 . S
N696 C693 1.368 . S
N696 C697 1.321 . S
N696 Co699 2.135 . S
C697 N695 1.340 . S
C697 N696 1.321 . S
C697 H721 0.930 . S
H698 C693 0.931 . S
Co699 N696 2.135 . S
Co699 N702 2.121 . S
Co699 O707 2.055 . S
Co699 O710 2.039 . S
Co699 N713 2.140 . S
C700 O701 1.227 . S
C700 O710 1.265 . S
O701 C700 1.227 . S
N702 Co699 2.121 . S
N702 C704 1.375 . S
N702 C705 1.313 . S
C703 C704 1.338 . S
C703 N706 1.377 . S
C703 H723 0.930 . S
C704 N702 1.375 . S
C704 C703 1.338 . S
C704 H708 0.931 . S
C705 N702 1.313 . S
C705 N706 1.344 . S
C705 H709 0.930 . S
N706 C703 1.377 . S
N706 C705 1.344 . S
O707 Co699 2.055 . S
O707 C711 1.253 . S
H708 C704 0.931 . S
H709 C705 0.930 . S
O710 Co699 2.039 . S
O710 C700 1.265 . S
C711 O707 1.253 . S
C711 O712 1.227 . S
O712 C711 1.227 . S
N713 Co699 2.140 . S
N713 C716 1.346 . S
N713 C717 1.345 . S
C714 C715 1.387 . S
C714 C718 1.391 . S
C715 C714 1.387 . S
C715 C716 1.369 . S
C715 H724 0.929 . S
C716 N713 1.346 . S
C716 C715 1.369 . S
C716 H719 0.928 . S
C717 N713 1.345 . S
C717 C718 1.371 . S
C717 H720 0.931 . S
C718 C714 1.391 . S
C718 C717 1.371 . S
C718 H725 0.930 . S
H719 C716 0.928 . S
H720 C717 0.931 . S
H721 C697 0.930 . S
H722 C694 0.930 . S
H723 C703 0.930 . S
H724 C715 0.929 . S
H725 C718 0.930 . S
C726 C727 1.351 . S
C726 N729 1.368 . S
C726 H731 0.931 . S
C727 C726 1.351 . S
C727 N728 1.373 . S
C727 H755 0.930 . S
N728 C727 1.373 . S
N728 C730 1.340 . S
N729 C726 1.368 . S
N729 C730 1.321 . S
N729 Co732 2.135 . S
C730 N728 1.340 . S
C730 N729 1.321 . S
C730 H754 0.930 . S
H731 C726 0.931 . S
Co732 N729 2.135 . S
Co732 N735 2.121 . S
Co732 O740 2.055 . S
Co732 O743 2.039 . S
Co732 N746 2.140 . S
C733 O734 1.227 . S
C733 O743 1.265 . S
O734 C733 1.227 . S
N735 Co732 2.121 . S
N735 C737 1.375 . S
N735 C738 1.313 . S
C736 C737 1.338 . S
C736 N739 1.377 . S
C736 H756 0.930 . S
C737 N735 1.375 . S
C737 C736 1.338 . S
C737 H741 0.931 . S
C738 N735 1.313 . S
C738 N739 1.344 . S
C738 H742 0.930 . S
N739 C736 1.377 . S
N739 C738 1.344 . S
O740 Co732 2.055 . S
O740 C744 1.253 . S
H741 C737 0.931 . S
H742 C738 0.930 . S
O743 Co732 2.039 . S
O743 C733 1.265 . S
C744 O740 1.253 . S
C744 O745 1.227 . S
O745 C744 1.227 . S
N746 Co732 2.140 . S
N746 C749 1.346 . S
N746 C750 1.345 . S
C747 C748 1.387 . S
C747 C751 1.391 . S
C748 C747 1.387 . S
C748 C749 1.369 . S
C748 H757 0.929 . S
C749 N746 1.346 . S
C749 C748 1.369 . S
C749 H752 0.928 . S
C750 N746 1.345 . S
C750 C751 1.371 . S
C750 H753 0.931 . S
C751 C747 1.391 . S
C751 C750 1.371 . S
C751 H758 0.930 . S
H752 C749 0.928 . S
H753 C750 0.931 . S
H754 C730 0.930 . S
H755 C727 0.930 . S
H756 C736 0.930 . S
H757 C748 0.929 . S
H758 C751 0.930 . S
C759 C760 1.351 . S
C759 N762 1.368 . S
C759 H764 0.931 . S
C760 C759 1.351 . S
C760 N761 1.373 . S
C760 H788 0.930 . S
N761 C760 1.373 . S
N761 C763 1.340 . S
N762 C759 1.368 . S
N762 C763 1.321 . S
N762 Co765 2.135 . S
C763 N761 1.340 . S
C763 N762 1.321 . S
C763 H787 0.930 . S
H764 C759 0.931 . S
Co765 N762 2.135 . S
Co765 N768 2.121 . S
Co765 O773 2.055 . S
Co765 O776 2.039 . S
Co765 N779 2.140 . S
C766 O767 1.227 . S
C766 O776 1.265 . S
O767 C766 1.227 . S
N768 Co765 2.121 . S
N768 C770 1.375 . S
N768 C771 1.313 . S
C769 C770 1.338 . S
C769 N772 1.377 . S
C769 H789 0.930 . S
C770 N768 1.375 . S
C770 C769 1.338 . S
C770 H774 0.931 . S
C771 N768 1.313 . S
C771 N772 1.344 . S
C771 H775 0.930 . S
N772 C769 1.377 . S
N772 C771 1.344 . S
O773 Co765 2.055 . S
O773 C777 1.253 . S
H774 C770 0.931 . S
H775 C771 0.930 . S
O776 Co765 2.039 . S
O776 C766 1.265 . S
C777 O773 1.253 . S
C777 O778 1.227 . S
O778 C777 1.227 . S
N779 Co765 2.140 . S
N779 C782 1.346 . S
N779 C783 1.345 . S
C780 C781 1.387 . S
C780 C784 1.391 . S
C781 C780 1.387 . S
C781 C782 1.369 . S
C781 H790 0.929 . S
C782 N779 1.346 . S
C782 C781 1.369 . S
C782 H785 0.928 . S
C783 N779 1.345 . S
C783 C784 1.371 . S
C783 H786 0.931 . S
C784 C780 1.391 . S
C784 C783 1.371 . S
C784 H791 0.930 . S
H785 C782 0.928 . S
H786 C783 0.931 . S
H787 C763 0.930 . S
H788 C760 0.930 . S
H789 C769 0.930 . S
H790 C781 0.929 . S
H791 C784 0.930 . S
H792 C798 0.930 . S
H793 C801 0.930 . S
H794 C802 0.930 . S
H795 C803 0.930 . S
H796 C806 0.930 . S
H797 C807 0.930 . S
C798 H792 0.930 . S
C798 C799 1.355 . S
C798 C800 1.415 . S
C799 C798 1.355 . S
C799 C801 1.419 . S
C800 C798 1.415 . S
C800 C805 1.425 . S
C800 C807 1.409 . S
C801 H793 0.930 . S
C801 C799 1.419 . S
C801 C802 1.362 . S
C802 H794 0.930 . S
C802 C801 1.362 . S
C802 C805 1.409 . S
C803 H795 0.930 . S
C803 C804 1.355 . S
C803 C805 1.415 . S
C804 C803 1.355 . S
C804 C806 1.419 . S
C805 C800 1.425 . S
C805 C802 1.409 . S
C805 C803 1.415 . S
C806 H796 0.930 . S
C806 C804 1.419 . S
C806 C807 1.362 . S
C807 H797 0.930 . S
C807 C800 1.409 . S
C807 C806 1.362 . S
H808 C814 0.930 . S
H809 C817 0.930 . S
H810 C818 0.930 . S
H811 C819 0.930 . S
H812 C822 0.930 . S
H813 C823 0.930 . S
C814 H808 0.930 . S
C814 C815 1.355 . S
C814 C816 1.415 . S
C815 C814 1.355 . S
C815 C817 1.419 . S
C816 C814 1.415 . S
C816 C821 1.425 . S
C816 C823 1.409 . S
C817 H809 0.930 . S
C817 C815 1.419 . S
C817 C818 1.362 . S
C818 H810 0.930 . S
C818 C817 1.362 . S
C818 C821 1.409 . S
C819 H811 0.930 . S
C819 C820 1.355 . S
C819 C821 1.415 . S
C820 C819 1.355 . S
C820 C822 1.419 . S
C821 C816 1.425 . S
C821 C818 1.409 . S
C821 C819 1.415 . S
C822 H812 0.930 . S
C822 C820 1.419 . S
C822 C823 1.362 . S
C823 H813 0.930 . S
C823 C816 1.409 . S
C823 C822 1.362 . S
H824 C830 0.930 . S
H825 C833 0.930 . S
H826 C834 0.930 . S
H827 C835 0.930 . S
H828 C838 0.930 . S
H829 C839 0.930 . S
C830 H824 0.930 . S
C830 C831 1.355 . S
C830 C832 1.415 . S
C831 C830 1.355 . S
C831 C833 1.419 . S
C832 C830 1.415 . S
C832 C837 1.425 . S
C832 C839 1.409 . S
C833 H825 0.930 . S
C833 C831 1.419 . S
C833 C834 1.362 . S
C834 H826 0.930 . S
C834 C833 1.362 . S
C834 C837 1.409 . S
C835 H827 0.930 . S
C835 C836 1.355 . S
C835 C837 1.415 . S
C836 C835 1.355 . S
C836 C838 1.419 . S
C837 C832 1.425 . S
C837 C834 1.409 . S
C837 C835 1.415 . S
C838 H828 0.930 . S
C838 C836 1.419 . S
C838 C839 1.362 . S
C839 H829 0.930 . S
C839 C832 1.409 . S
C839 C838 1.362 . S
H840 C846 0.930 . S
H841 C849 0.930 . S
H842 C850 0.930 . S
H843 C851 0.930 . S
H844 C854 0.930 . S
H845 C855 0.930 . S
C846 H840 0.930 . S
C846 C847 1.355 . S
C846 C848 1.415 . S
C847 C846 1.355 . S
C847 C849 1.419 . S
C848 C846 1.415 . S
C848 C853 1.425 . S
C848 C855 1.409 . S
C849 H841 0.930 . S
C849 C847 1.419 . S
C849 C850 1.362 . S
C850 H842 0.930 . S
C850 C849 1.362 . S
C850 C853 1.409 . S
C851 H843 0.930 . S
C851 C852 1.355 . S
C851 C853 1.415 . S
C852 C851 1.355 . S
C852 C854 1.419 . S
C853 C848 1.425 . S
C853 C850 1.409 . S
C853 C851 1.415 . S
C854 H844 0.930 . S
C854 C852 1.419 . S
C854 C855 1.362 . S
C855 H845 0.930 . S
C855 C848 1.409 . S
C855 C854 1.362 . S
H856 C862 0.930 . S
H857 C865 0.930 . S
H858 C866 0.930 . S
H859 C867 0.930 . S
H860 C870 0.930 . S
H861 C871 0.930 . S
C862 H856 0.930 . S
C862 C863 1.355 . S
C862 C864 1.415 . S
C863 C862 1.355 . S
C863 C865 1.419 . S
C864 C862 1.415 . S
C864 C869 1.425 . S
C864 C871 1.409 . S
C865 H857 0.930 . S
C865 C863 1.419 . S
C865 C866 1.362 . S
C866 H858 0.930 . S
C866 C865 1.362 . S
C866 C869 1.409 . S
C867 H859 0.930 . S
C867 C868 1.355 . S
C867 C869 1.415 . S
C868 C867 1.355 . S
C868 C870 1.419 . S
C869 C864 1.425 . S
C869 C866 1.409 . S
C869 C867 1.415 . S
C870 H860 0.930 . S
C870 C868 1.419 . S
C870 C871 1.362 . S
C871 H861 0.930 . S
C871 C864 1.409 . S
C871 C870 1.362 . S
H872 C878 0.930 . S
H873 C881 0.930 . S
H874 C882 0.930 . S
H875 C883 0.930 . S
H876 C886 0.930 . S
H877 C887 0.930 . S
C878 H872 0.930 . S
C878 C879 1.355 . S
C878 C880 1.415 . S
C879 C878 1.355 . S
C879 C881 1.419 . S
C880 C878 1.415 . S
C880 C885 1.425 . S
C880 C887 1.409 . S
C881 H873 0.930 . S
C881 C879 1.419 . S
C881 C882 1.362 . S
C882 H874 0.930 . S
C882 C881 1.362 . S
C882 C885 1.409 . S
C883 H875 0.930 . S
C883 C884 1.355 . S
C883 C885 1.415 . S
C884 C883 1.355 . S
C884 C886 1.419 . S
C885 C880 1.425 . S
C885 C882 1.409 . S
C885 C883 1.415 . S
C886 H876 0.930 . S
C886 C884 1.419 . S
C886 C887 1.362 . S
C887 H877 0.930 . S
C887 C880 1.409 . S
C887 C886 1.362 . S
H888 C894 0.930 . S
H889 C897 0.930 . S
H890 C898 0.930 . S
H891 C899 0.930 . S
H892 C902 0.930 . S
H893 C903 0.930 . S
C894 H888 0.930 . S
C894 C895 1.355 . S
C894 C896 1.415 . S
C895 C894 1.355 . S
C895 C897 1.419 . S
C896 C894 1.415 . S
C896 C901 1.425 . S
C896 C903 1.409 . S
C897 H889 0.930 . S
C897 C895 1.419 . S
C897 C898 1.362 . S
C898 H890 0.930 . S
C898 C897 1.362 . S
C898 C901 1.409 . S
C899 H891 0.930 . S
C899 C900 1.355 . S
C899 C901 1.415 . S
C900 C899 1.355 . S
C900 C902 1.419 . S
C901 C896 1.425 . S
C901 C898 1.409 . S
C901 C899 1.415 . S
C902 H892 0.930 . S
C902 C900 1.419 . S
C902 C903 1.362 . S
C903 H893 0.930 . S
C903 C896 1.409 . S
C903 C902 1.362 . S
H904 C910 0.930 . S
H905 C913 0.930 . S
H906 C914 0.930 . S
H907 C915 0.930 . S
H908 C918 0.930 . S
H909 C919 0.930 . S
C910 H904 0.930 . S
C910 C911 1.355 . S
C910 C912 1.415 . S
C911 C910 1.355 . S
C911 C913 1.419 . S
C912 C910 1.415 . S
C912 C917 1.425 . S
C912 C919 1.409 . S
C913 H905 0.930 . S
C913 C911 1.419 . S
C913 C914 1.362 . S
C914 H906 0.930 . S
C914 C913 1.362 . S
C914 C917 1.409 . S
C915 H907 0.930 . S
C915 C916 1.355 . S
C915 C917 1.415 . S
C916 C915 1.355 . S
C916 C918 1.419 . S
C917 C912 1.425 . S
C917 C914 1.409 . S
C917 C915 1.415 . S
C918 H908 0.930 . S
C918 C916 1.419 . S
C918 C919 1.362 . S
C919 H909 0.930 . S
C919 C912 1.409 . S
C919 C918 1.362 . S
H920 C926 0.930 . S
H921 C929 0.930 . S
H922 C930 0.930 . S
H923 C931 0.930 . S
H924 C934 0.930 . S
H925 C935 0.930 . S
C926 H920 0.930 . S
C926 C927 1.355 . S
C926 C928 1.415 . S
C927 C926 1.355 . S
C927 C929 1.419 . S
C928 C926 1.415 . S
C928 C933 1.425 . S
C928 C935 1.409 . S
C929 H921 0.930 . S
C929 C927 1.419 . S
C929 C930 1.362 . S
C930 H922 0.930 . S
C930 C929 1.362 . S
C930 C933 1.409 . S
C931 H923 0.930 . S
C931 C932 1.355 . S
C931 C933 1.415 . S
C932 C931 1.355 . S
C932 C934 1.419 . S
C933 C928 1.425 . S
C933 C930 1.409 . S
C933 C931 1.415 . S
C934 H924 0.930 . S
C934 C932 1.419 . S
C934 C935 1.362 . S
C935 H925 0.930 . S
C935 C928 1.409 . S
C935 C934 1.362 . S
H936 C942 0.930 . S
H937 C945 0.930 . S
H938 C946 0.930 . S
H939 C947 0.930 . S
H940 C950 0.930 . S
H941 C951 0.930 . S
C942 H936 0.930 . S
C942 C943 1.355 . S
C942 C944 1.415 . S
C943 C942 1.355 . S
C943 C945 1.419 . S
C944 C942 1.415 . S
C944 C949 1.425 . S
C944 C951 1.409 . S
C945 H937 0.930 . S
C945 C943 1.419 . S
C945 C946 1.362 . S
C946 H938 0.930 . S
C946 C945 1.362 . S
C946 C949 1.409 . S
C947 H939 0.930 . S
C947 C948 1.355 . S
C947 C949 1.415 . S
C948 C947 1.355 . S
C948 C950 1.419 . S
C949 C944 1.425 . S
C949 C946 1.409 . S
C949 C947 1.415 . S
C950 H940 0.930 . S
C950 C948 1.419 . S
C950 C951 1.362 . S
C951 H941 0.930 . S
C951 C944 1.409 . S
C951 C950 1.362 . S
H952 C958 0.930 . S
H953 C961 0.930 . S
H954 C962 0.930 . S
H955 C963 0.930 . S
H956 C966 0.930 . S
H957 C967 0.930 . S
C958 H952 0.930 . S
C958 C959 1.355 . S
C958 C960 1.415 . S
C959 C958 1.355 . S
C959 C961 1.419 . S
C960 C958 1.415 . S
C960 C965 1.425 . S
C960 C967 1.409 . S
C961 H953 0.930 . S
C961 C959 1.419 . S
C961 C962 1.362 . S
C962 H954 0.930 . S
C962 C961 1.362 . S
C962 C965 1.409 . S
C963 H955 0.930 . S
C963 C964 1.355 . S
C963 C965 1.415 . S
C964 C963 1.355 . S
C964 C966 1.419 . S
C965 C960 1.425 . S
C965 C962 1.409 . S
C965 C963 1.415 . S
C966 H956 0.930 . S
C966 C964 1.419 . S
C966 C967 1.362 . S
C967 H957 0.930 . S
C967 C960 1.409 . S
C967 C966 1.362 . S
H968 C974 0.930 . S
H969 C977 0.930 . S
H970 C978 0.930 . S
H971 C979 0.930 . S
H972 C982 0.930 . S
H973 C983 0.930 . S
C974 H968 0.930 . S
C974 C975 1.355 . S
C974 C976 1.415 . S
C975 C974 1.355 . S
C975 C977 1.419 . S
C976 C974 1.415 . S
C976 C981 1.425 . S
C976 C983 1.409 . S
C977 H969 0.930 . S
C977 C975 1.419 . S
C977 C978 1.362 . S
C978 H970 0.930 . S
C978 C977 1.362 . S
C978 C981 1.409 . S
C979 H971 0.930 . S
C979 C980 1.355 . S
C979 C981 1.415 . S
C980 C979 1.355 . S
C980 C982 1.419 . S
C981 C976 1.425 . S
C981 C978 1.409 . S
C981 C979 1.415 . S
C982 H972 0.930 . S
C982 C980 1.419 . S
C982 C983 1.362 . S
C983 H973 0.930 . S
C983 C976 1.409 . S
C983 C982 1.362 . S
H984 C990 0.930 . S
H985 C993 0.930 . S
H986 C994 0.930 . S
H987 C995 0.930 . S
H988 C998 0.930 . S
H989 C999 0.930 . S
C990 H984 0.930 . S
C990 C991 1.355 . S
C990 C992 1.415 1_565 S
C991 C990 1.355 . S
C991 C993 1.419 . S
C992 C990 1.415 1_545 S
C992 C997 1.425 . S
C992 C999 1.409 . S
C993 H985 0.930 . S
C993 C991 1.419 . S
C993 C994 1.362 1_565 S
C994 H986 0.930 . S
C994 C993 1.362 1_545 S
C994 C997 1.409 . S
C995 H987 0.930 . S
C995 C996 1.355 . S
C995 C997 1.415 . S
C996 C995 1.355 . S
C996 C998 1.419 . S
C997 C992 1.425 . S
C997 C994 1.409 . S
C997 C995 1.415 . S
C998 H988 0.930 . S
C998 C996 1.419 . S
C998 C999 1.362 . S
C999 H989 0.930 . S
C999 C992 1.409 . S
C999 C998 1.362 . S
H1000 C1006 0.930 . S
H1001 C1009 0.930 . S
H1002 C1010 0.930 . S
H1003 C1011 0.930 . S
H1004 C1014 0.930 . S
H1005 C1015 0.930 . S
C1006 H1000 0.930 . S
C1006 C1007 1.355 . S
C1006 C1008 1.415 . S
C1007 C1006 1.355 . S
C1007 C1009 1.419 . S
C1008 C1006 1.415 . S
C1008 C1013 1.425 . S
C1008 C1015 1.409 . S
C1009 H1001 0.930 . S
C1009 C1007 1.419 . S
C1009 C1010 1.362 . S
C1010 H1002 0.930 . S
C1010 C1009 1.362 . S
C1010 C1013 1.409 . S
C1011 H1003 0.930 . S
C1011 C1012 1.355 . S
C1011 C1013 1.415 1_455 S
C1012 C1011 1.355 . S
C1012 C1014 1.419 . S
C1013 C1008 1.425 . S
C1013 C1010 1.409 . S
C1013 C1011 1.415 1_655 S
C1014 H1004 0.930 . S
C1014 C1012 1.419 . S
C1014 C1015 1.362 1_455 S
C1015 H1005 0.930 . S
C1015 C1008 1.409 . S
C1015 C1014 1.362 1_655 S
H1016 C1022 0.930 . S
H1017 C1025 0.930 . S
H1018 C1026 0.930 . S
H1019 C1027 0.930 . S
H1020 C1030 0.930 . S
H1021 C1031 0.930 . S
C1022 H1016 0.930 . S
C1022 C1023 1.355 . S
C1022 C1024 1.415 . S
C1023 C1022 1.355 . S
C1023 C1025 1.419 . S
C1024 C1022 1.415 . S
C1024 C1029 1.425 . S
C1024 C1031 1.409 . S
C1025 H1017 0.930 . S
C1025 C1023 1.419 . S
C1025 C1026 1.362 . S
C1026 H1018 0.930 . S
C1026 C1025 1.362 . S
C1026 C1029 1.409 . S
C1027 H1019 0.930 . S
C1027 C1028 1.355 . S
C1027 C1029 1.415 1_545 S
C1028 C1027 1.355 . S
C1028 C1030 1.419 . S
C1029 C1024 1.425 . S
C1029 C1026 1.409 . S
C1029 C1027 1.415 1_565 S
C1030 H1020 0.930 . S
C1030 C1028 1.419 . S
C1030 C1031 1.362 1_545 S
C1031 H1021 0.930 . S
C1031 C1024 1.409 . S
C1031 C1030 1.362 1_565 S
H1032 C1038 0.930 . S
H1033 C1041 0.930 . S
H1034 C1042 0.930 . S
H1035 C1043 0.930 . S
H1036 C1046 0.930 . S
H1037 C1047 0.930 . S
C1038 H1032 0.930 . S
C1038 C1039 1.355 . S
C1038 C1040 1.415 1_655 S
C1039 C1038 1.355 . S
C1039 C1041 1.419 . S
C1040 C1038 1.415 1_455 S
C1040 C1045 1.425 . S
C1040 C1047 1.409 . S
C1041 H1033 0.930 . S
C1041 C1039 1.419 . S
C1041 C1042 1.362 1_655 S
C1042 H1034 0.930 . S
C1042 C1041 1.362 1_455 S
C1042 C1045 1.409 . S
C1043 H1035 0.930 . S
C1043 C1044 1.355 . S
C1043 C1045 1.415 . S
C1044 C1043 1.355 . S
C1044 C1046 1.419 . S
C1045 C1040 1.425 . S
C1045 C1042 1.409 . S
C1045 C1043 1.415 . S
C1046 H1036 0.930 . S
C1046 C1044 1.419 . S
C1046 C1047 1.362 . S
C1047 H1037 0.930 . S
C1047 C1040 1.409 . S
C1047 C1046 1.362 . S
H1048 C1054 0.930 . S
H1049 C1057 0.930 . S
H1050 C1058 0.933 . S
H1051 C1059 0.930 . S
H1052 C1062 0.930 . S
H1053 C1063 0.930 . S
C1054 H1048 0.930 . S
C1054 C1055 1.355 . S
C1054 C1056 1.415 1_545 S
C1055 C1054 1.355 . S
C1055 C1057 1.419 . S
C1056 C1054 1.415 1_565 S
C1056 C1061 1.425 . S
C1056 C1063 1.409 . S
C1057 H1049 0.930 . S
C1057 C1055 1.419 . S
C1057 C1058 1.362 . S
C1058 H1050 0.933 . S
C1058 C1057 1.362 . S
C1058 C1061 1.409 1_545 S
C1059 H1051 0.930 . S
C1059 C1060 1.355 . S
C1059 C1061 1.415 . S
C1060 C1059 1.355 . S
C1060 C1062 1.419 . S
C1061 C1056 1.425 . S
C1061 C1058 1.409 1_565 S
C1061 C1059 1.415 . S
C1062 H1052 0.930 . S
C1062 C1060 1.419 . S
C1062 C1063 1.362 . S
C1063 H1053 0.930 . S
C1063 C1056 1.409 . S
C1063 C1062 1.362 . S
H1064 C1070 0.930 . S
H1065 C1073 0.930 . S
H1066 C1074 0.930 . S
H1067 C1075 0.930 . S
H1068 C1078 0.930 . S
H1069 C1079 0.930 . S
C1070 H1064 0.930 . S
C1070 C1071 1.355 . S
C1070 C1072 1.415 . S
C1071 C1070 1.355 . S
C1071 C1073 1.419 . S
C1072 C1070 1.415 . S
C1072 C1077 1.425 . S
C1072 C1079 1.409 . S
C1073 H1065 0.930 . S
C1073 C1071 1.419 . S
C1073 C1074 1.362 . S
C1074 H1066 0.930 . S
C1074 C1073 1.362 . S
C1074 C1077 1.409 . S
C1075 H1067 0.930 . S
C1075 C1076 1.355 . S
C1075 C1077 1.415 1_655 S
C1076 C1075 1.355 . S
C1076 C1078 1.419 . S
C1077 C1072 1.425 . S
C1077 C1074 1.409 . S
C1077 C1075 1.415 1_455 S
C1078 H1068 0.930 . S
C1078 C1076 1.419 . S
C1078 C1079 1.362 1_655 S
C1079 H1069 0.930 . S
C1079 C1072 1.409 . S
C1079 C1078 1.362 1_455 S
H1080 C1086 0.930 . S
H1081 C1089 0.930 . S
H1082 C1090 0.930 . S
H1083 C1091 0.930 . S
H1084 C1094 0.930 . S
H1085 C1095 0.930 . S
C1086 H1080 0.930 . S
C1086 C1087 1.355 . S
C1086 C1088 1.415 1_565 S
C1087 C1086 1.355 . S
C1087 C1089 1.419 . S
C1088 C1086 1.415 1_545 S
C1088 C1093 1.425 . S
C1088 C1095 1.409 . S
C1089 H1081 0.930 . S
C1089 C1087 1.419 . S
C1089 C1090 1.362 1_565 S
C1090 H1082 0.930 . S
C1090 C1089 1.362 1_545 S
C1090 C1093 1.409 . S
C1091 H1083 0.930 . S
C1091 C1092 1.355 . S
C1091 C1093 1.415 . S
C1092 C1091 1.355 . S
C1092 C1094 1.419 . S
C1093 C1088 1.425 . S
C1093 C1090 1.409 . S
C1093 C1091 1.415 . S
C1094 H1084 0.930 . S
C1094 C1092 1.419 . S
C1094 C1095 1.362 . S
C1095 H1085 0.930 . S
C1095 C1088 1.409 . S
C1095 C1094 1.362 . S
H1096 C1102 0.930 . S
H1097 C1105 0.930 . S
H1098 C1106 0.933 . S
H1099 C1107 0.930 . S
H1100 C1110 0.930 . S
H1101 C1111 0.930 . S
C1102 H1096 0.930 . S
C1102 C1103 1.355 . S
C1102 C1104 1.415 1_455 S
C1103 C1102 1.355 . S
C1103 C1105 1.419 . S
C1104 C1102 1.415 1_655 S
C1104 C1109 1.425 . S
C1104 C1111 1.409 . S
C1105 H1097 0.930 . S
C1105 C1103 1.419 . S
C1105 C1106 1.362 . S
C1106 H1098 0.933 . S
C1106 C1105 1.362 . S
C1106 C1109 1.409 1_455 S
C1107 H1099 0.930 . S
C1107 C1108 1.355 . S
C1107 C1109 1.415 . S
C1108 C1107 1.355 . S
C1108 C1110 1.419 . S
C1109 C1104 1.425 . S
C1109 C1106 1.409 1_655 S
C1109 C1107 1.415 . S
C1110 H1100 0.930 . S
C1110 C1108 1.419 . S
C1110 C1111 1.362 . S
C1111 H1101 0.930 . S
C1111 C1104 1.409 . S
C1111 C1110 1.362 . S
H1112 C1118 0.930 . S
H1113 C1121 0.930 . S
H1114 C1122 0.930 . S
H1115 C1123 0.930 . S
H1116 C1126 0.930 . S
H1117 C1127 0.930 . S
C1118 H1112 0.930 . S
C1118 C1119 1.355 . S
C1118 C1120 1.415 1_556 S
C1119 C1118 1.355 . S
C1119 C1121 1.419 . S
C1120 C1118 1.415 1_554 S
C1120 C1125 1.425 . S
C1120 C1127 1.409 . S
C1121 H1113 0.930 . S
C1121 C1119 1.419 . S
C1121 C1122 1.362 1_556 S
C1122 H1114 0.930 . S
C1122 C1121 1.362 1_554 S
C1122 C1125 1.409 . S
C1123 H1115 0.930 . S
C1123 C1124 1.355 . S
C1123 C1125 1.415 . S
C1124 C1123 1.355 . S
C1124 C1126 1.419 . S
C1125 C1120 1.425 . S
C1125 C1122 1.409 . S
C1125 C1123 1.415 . S
C1126 H1116 0.930 . S
C1126 C1124 1.419 . S
C1126 C1127 1.362 . S
C1127 H1117 0.930 . S
C1127 C1120 1.409 . S
C1127 C1126 1.362 . S
H1128 C1134 0.930 . S
H1129 C1137 0.930 . S
H1130 C1138 0.930 . S
H1131 C1139 0.930 . S
H1132 C1142 0.930 . S
H1133 C1143 0.928 1_554 S
C1134 H1128 0.930 . S
C1134 C1135 1.355 . S
C1134 C1136 1.415 . S
C1135 C1134 1.355 . S
C1135 C1137 1.419 . S
C1136 C1134 1.415 . S
C1136 C1141 1.425 . S
C1136 C1143 1.401 1_554 S
C1137 H1129 0.930 . S
C1137 C1135 1.419 . S
C1137 C1138 1.362 . S
C1138 H1130 0.930 . S
C1138 C1137 1.362 . S
C1138 C1141 1.409 . S
C1139 H1131 0.930 . S
C1139 C1140 1.355 . S
C1139 C1141 1.415 1_556 S
C1140 C1139 1.355 . S
C1140 C1142 1.419 . S
C1141 C1136 1.425 . S
C1141 C1138 1.409 . S
C1141 C1139 1.415 1_554 S
C1142 H1132 0.930 . S
C1142 C1140 1.419 . S
C1142 C1143 1.373 . S
C1143 H1133 0.928 1_556 S
C1143 C1136 1.401 1_556 S
C1143 C1142 1.373 . S
H1144 C1150 0.930 . S
H1145 C1153 0.930 . S
H1146 C1154 0.930 . S
H1147 C1155 0.930 . S
H1148 C1158 0.930 . S
H1149 C1159 0.930 . S
C1150 H1144 0.930 . S
C1150 C1151 1.355 . S
C1150 C1152 1.415 1_556 S
C1151 C1150 1.355 . S
C1151 C1153 1.419 . S
C1152 C1150 1.415 1_554 S
C1152 C1157 1.425 . S
C1152 C1159 1.409 . S
C1153 H1145 0.930 . S
C1153 C1151 1.419 . S
C1153 C1154 1.362 1_556 S
C1154 H1146 0.930 . S
C1154 C1153 1.362 1_554 S
C1154 C1157 1.409 . S
C1155 H1147 0.930 . S
C1155 C1156 1.355 . S
C1155 C1157 1.415 . S
C1156 C1155 1.355 . S
C1156 C1158 1.419 . S
C1157 C1152 1.425 . S
C1157 C1154 1.409 . S
C1157 C1155 1.415 . S
C1158 H1148 0.930 . S
C1158 C1156 1.419 . S
C1158 C1159 1.362 . S
C1159 H1149 0.930 . S
C1159 C1152 1.409 . S
C1159 C1158 1.362 . S
H1160 C1166 0.930 . S
H1161 C1169 0.930 . S
H1162 C1170 0.930 . S
H1163 C1171 0.930 . S
H1164 C1174 0.930 . S
H1165 C1175 0.930 . S
C1166 H1160 0.930 . S
C1166 C1167 1.355 . S
C1166 C1168 1.415 . S
C1167 C1166 1.355 . S
C1167 C1169 1.419 . S
C1168 C1166 1.415 . S
C1168 C1173 1.425 . S
C1168 C1175 1.409 . S
C1169 H1161 0.930 . S
C1169 C1167 1.419 . S
C1169 C1170 1.362 . S
C1170 H1162 0.930 . S
C1170 C1169 1.362 . S
C1170 C1173 1.409 . S
C1171 H1163 0.930 . S
C1171 C1172 1.355 . S
C1171 C1173 1.415 1_556 S
C1172 C1171 1.355 . S
C1172 C1174 1.419 . S
C1173 C1168 1.425 . S
C1173 C1170 1.409 . S
C1173 C1171 1.415 1_554 S
C1174 H1164 0.930 . S
C1174 C1172 1.419 . S
C1174 C1175 1.362 1_556 S
C1175 H1165 0.930 . S
C1175 C1168 1.409 . S
C1175 C1174 1.362 1_554 S
H1176 C1182 0.930 . S
H1177 C1185 0.930 . S
H1178 C1186 0.930 . S
H1179 C1187 0.930 . S
H1180 C1190 0.930 . S
H1181 C1191 0.930 . S
C1182 H1176 0.930 . S
C1182 C1183 1.355 . S
C1182 C1184 1.415 1_554 S
C1183 C1182 1.355 . S
C1183 C1185 1.419 . S
C1184 C1182 1.415 1_556 S
C1184 C1189 1.425 . S
C1184 C1191 1.409 . S
C1185 H1177 0.930 . S
C1185 C1183 1.419 . S
C1185 C1186 1.362 1_554 S
C1186 H1178 0.930 . S
C1186 C1185 1.362 1_556 S
C1186 C1189 1.409 . S
C1187 H1179 0.930 . S
C1187 C1188 1.355 . S
C1187 C1189 1.415 . S
C1188 C1187 1.355 . S
C1188 C1190 1.419 . S
C1189 C1184 1.425 . S
C1189 C1186 1.409 . S
C1189 C1187 1.415 . S
C1190 H1180 0.930 . S
C1190 C1188 1.419 . S
C1190 C1191 1.362 . S
C1191 H1181 0.930 . S
C1191 C1184 1.409 . S
C1191 C1190 1.362 . S
H1192 C1198 0.930 . S
H1193 C1201 0.930 . S
H1194 C1202 0.930 . S
H1195 C1203 0.930 . S
H1196 C1206 0.930 . S
H1197 C1207 0.930 . S
C1198 H1192 0.930 . S
C1198 C1199 1.355 . S
C1198 C1200 1.415 . S
C1199 C1198 1.355 . S
C1199 C1201 1.419 . S
C1200 C1198 1.415 . S
C1200 C1205 1.425 . S
C1200 C1207 1.409 . S
C1201 H1193 0.930 . S
C1201 C1199 1.419 . S
C1201 C1202 1.362 . S
C1202 H1194 0.930 . S
C1202 C1201 1.362 . S
C1202 C1205 1.409 . S
C1203 H1195 0.930 . S
C1203 C1204 1.355 . S
C1203 C1205 1.415 1_554 S
C1204 C1203 1.355 . S
C1204 C1206 1.419 . S
C1205 C1200 1.425 . S
C1205 C1202 1.409 . S
C1205 C1203 1.415 1_556 S
C1206 H1196 0.930 . S
C1206 C1204 1.419 . S
C1206 C1207 1.362 1_554 S
C1207 H1197 0.930 . S
C1207 C1200 1.409 . S
C1207 C1206 1.362 1_556 S
H1208 C1214 0.930 . S
H1209 C1217 0.930 . S
H1210 C1218 0.932 . S
H1211 C1219 0.930 . S
H1212 C1222 0.930 . S
H1213 C1223 0.930 . S
C1214 H1208 0.930 . S
C1214 C1215 1.355 . S
C1214 C1216 1.415 1_554 S
C1215 C1214 1.355 . S
C1215 C1217 1.419 . S
C1216 C1214 1.415 1_556 S
C1216 C1221 1.425 . S
C1216 C1223 1.409 . S
C1217 H1209 0.930 . S
C1217 C1215 1.419 . S
C1217 C1218 1.362 . S
C1218 H1210 0.932 . S
C1218 C1217 1.362 . S
C1218 C1221 1.409 1_554 S
C1219 H1211 0.930 . S
C1219 C1220 1.355 . S
C1219 C1221 1.415 . S
C1220 C1219 1.355 . S
C1220 C1222 1.419 . S
C1221 C1216 1.425 . S
C1221 C1218 1.409 1_556 S
C1221 C1219 1.415 . S
C1222 H1212 0.930 . S
C1222 C1220 1.419 . S
C1222 C1223 1.362 . S
C1223 H1213 0.930 . S
C1223 C1216 1.409 . S
C1223 C1222 1.362 . S
H1224 C1230 0.930 . S
H1225 C1233 0.930 . S
H1226 C1234 0.930 . S
H1227 C1235 0.930 . S
H1228 C1238 0.930 . S
H1229 C1239 0.930 . S
C1230 H1224 0.930 . S
C1230 C1231 1.355 . S
C1230 C1232 1.415 . S
C1231 C1230 1.355 . S
C1231 C1233 1.419 . S
C1232 C1230 1.415 . S
C1232 C1237 1.425 . S
C1232 C1239 1.409 . S
C1233 H1225 0.930 . S
C1233 C1231 1.419 . S
C1233 C1234 1.362 . S
C1234 H1226 0.930 . S
C1234 C1233 1.362 . S
C1234 C1237 1.409 . S
C1235 H1227 0.930 . S
C1235 C1236 1.355 . S
C1235 C1237 1.415 1_554 S
C1236 C1235 1.355 . S
C1236 C1238 1.419 . S
C1237 C1232 1.425 . S
C1237 C1234 1.409 . S
C1237 C1235 1.415 1_556 S
C1238 H1228 0.930 . S
C1238 C1236 1.419 . S
C1238 C1239 1.362 1_554 S
C1239 H1229 0.930 . S
C1239 C1232 1.409 . S
C1239 C1238 1.362 1_556 S
H1240 C1246 0.930 . S
H1241 C1249 0.930 . S
H1242 C1250 0.931 . S
H1243 C1251 0.930 . S
H1244 C1254 0.930 . S
H1245 C1255 0.930 . S
C1246 H1240 0.930 . S
C1246 C1247 1.355 . S
C1246 C1248 1.415 1_655 S
C1247 C1246 1.355 . S
C1247 C1249 1.419 . S
C1248 C1246 1.415 1_455 S
C1248 C1253 1.425 . S
C1248 C1255 1.409 . S
C1249 H1241 0.930 . S
C1249 C1247 1.419 . S
C1249 C1250 1.362 . S
C1250 H1242 0.931 . S
C1250 C1249 1.362 . S
C1250 C1253 1.409 1_655 S
C1251 H1243 0.930 . S
C1251 C1252 1.355 . S
C1251 C1253 1.415 . S
C1252 C1251 1.355 . S
C1252 C1254 1.419 . S
C1253 C1248 1.425 . S
C1253 C1250 1.409 1_455 S
C1253 C1251 1.415 . S
C1254 H1244 0.930 . S
C1254 C1252 1.419 . S
C1254 C1255 1.362 . S
C1255 H1245 0.930 . S
C1255 C1248 1.409 . S
C1255 C1254 1.362 . S
H1256 C1262 0.930 . S
H1257 C1265 0.930 . S
H1258 C1266 0.933 . S
H1259 C1267 0.930 . S
H1260 C1270 0.930 . S
H1261 C1271 0.930 . S
C1262 H1256 0.930 . S
C1262 C1263 1.355 . S
C1262 C1264 1.415 1_655 S
C1263 C1262 1.355 . S
C1263 C1265 1.419 . S
C1264 C1262 1.415 1_455 S
C1264 C1269 1.425 . S
C1264 C1271 1.409 . S
C1265 H1257 0.930 . S
C1265 C1263 1.419 . S
C1265 C1266 1.362 . S
C1266 H1258 0.933 . S
C1266 C1265 1.362 . S
C1266 C1269 1.409 1_655 S
C1267 H1259 0.930 . S
C1267 C1268 1.355 . S
C1267 C1269 1.415 . S
C1268 C1267 1.355 . S
C1268 C1270 1.419 . S
C1269 C1264 1.425 . S
C1269 C1266 1.409 1_455 S
C1269 C1267 1.415 . S
C1270 H1260 0.930 . S
C1270 C1268 1.419 . S
C1270 C1271 1.362 . S
C1271 H1261 0.930 . S
C1271 C1264 1.409 . S
C1271 C1270 1.362 . S
H1272 C1278 0.930 . S
H1273 C1281 0.930 . S
H1274 C1282 0.930 . S
H1275 C1283 0.930 . S
H1276 C1286 0.930 . S
H1277 C1287 0.930 . S
C1278 H1272 0.930 . S
C1278 C1279 1.355 . S
C1278 C1280 1.415 . S
C1279 C1278 1.355 . S
C1279 C1281 1.419 . S
C1280 C1278 1.415 . S
C1280 C1285 1.425 . S
C1280 C1287 1.409 . S
C1281 H1273 0.930 . S
C1281 C1279 1.419 . S
C1281 C1282 1.362 . S
C1282 H1274 0.930 . S
C1282 C1281 1.362 . S
C1282 C1285 1.409 . S
C1283 H1275 0.930 . S
C1283 C1284 1.355 . S
C1283 C1285 1.415 1_565 S
C1284 C1283 1.355 . S
C1284 C1286 1.419 . S
C1285 C1280 1.425 . S
C1285 C1282 1.409 . S
C1285 C1283 1.415 1_545 S
C1286 H1276 0.930 . S
C1286 C1284 1.419 . S
C1286 C1287 1.362 1_565 S
C1287 H1277 0.930 . S
C1287 C1280 1.409 . S
C1287 C1286 1.362 1_545 S
H1288 C1294 0.930 . S
H1289 C1297 0.930 . S
H1290 C1298 0.930 . S
H1291 C1299 0.930 . S
H1292 C1302 0.930 . S
H1293 C1303 0.930 . S
C1294 H1288 0.930 . S
C1294 C1295 1.355 . S
C1294 C1296 1.415 . S
C1295 C1294 1.355 . S
C1295 C1297 1.419 . S
C1296 C1294 1.415 . S
C1296 C1301 1.425 . S
C1296 C1303 1.409 . S
C1297 H1289 0.930 . S
C1297 C1295 1.419 . S
C1297 C1298 1.362 . S
C1298 H1290 0.930 . S
C1298 C1297 1.362 . S
C1298 C1301 1.409 . S
C1299 H1291 0.930 . S
C1299 C1300 1.355 . S
C1299 C1301 1.415 1_455 S
C1300 C1299 1.355 . S
C1300 C1302 1.419 . S
C1301 C1296 1.425 . S
C1301 C1298 1.409 . S
C1301 C1299 1.415 1_655 S
C1302 H1292 0.930 . S
C1302 C1300 1.419 . S
C1302 C1303 1.362 1_455 S
C1303 H1293 0.930 . S
C1303 C1296 1.409 . S
C1303 C1302 1.362 1_655 S
H1304 C1310 0.930 . S
H1305 C1313 0.930 . S
H1306 C1314 0.930 1_565 S
H1307 C1315 0.930 . S
H1308 C1318 0.930 . S
H1309 C1319 0.930 . S
C1310 H1304 0.930 . S
C1310 C1311 1.355 . S
C1310 C1312 1.415 1_545 S
C1311 C1310 1.355 . S
C1311 C1313 1.419 . S
C1312 C1310 1.415 1_565 S
C1312 C1317 1.425 . S
C1312 C1319 1.409 . S
C1313 H1305 0.930 . S
C1313 C1311 1.419 . S
C1313 C1314 1.362 . S
C1314 H1306 0.930 1_545 S
C1314 C1313 1.362 . S
C1314 C1317 1.409 1_545 S
C1315 H1307 0.930 . S
C1315 C1316 1.355 . S
C1315 C1317 1.415 . S
C1316 C1315 1.355 . S
C1316 C1318 1.419 . S
C1317 C1312 1.425 . S
C1317 C1314 1.409 1_565 S
C1317 C1315 1.415 . S
C1318 H1308 0.930 . S
C1318 C1316 1.419 . S
C1318 C1319 1.362 . S
C1319 H1309 0.930 . S
C1319 C1312 1.409 . S
C1319 C1318 1.362 . S
H1320 C1326 0.930 . S
H1321 C1329 0.930 . S
H1322 C1330 0.930 . S
H1323 C1331 0.930 . S
H1324 C1334 0.930 . S
H1325 C1335 0.930 . S
C1326 H1320 0.930 . S
C1326 C1327 1.355 . S
C1326 C1328 1.415 1_455 S
C1327 C1326 1.355 . S
C1327 C1329 1.419 . S
C1328 C1326 1.415 1_655 S
C1328 C1333 1.425 . S
C1328 C1335 1.409 . S
C1329 H1321 0.930 . S
C1329 C1327 1.419 . S
C1329 C1330 1.362 1_455 S
C1330 H1322 0.930 . S
C1330 C1329 1.362 1_655 S
C1330 C1333 1.409 . S
C1331 H1323 0.930 . S
C1331 C1332 1.355 . S
C1331 C1333 1.415 . S
C1332 C1331 1.355 . S
C1332 C1334 1.419 . S
C1333 C1328 1.425 . S
C1333 C1330 1.409 . S
C1333 C1331 1.415 . S
C1334 H1324 0.930 . S
C1334 C1332 1.419 . S
C1334 C1335 1.362 . S
C1335 H1325 0.930 . S
C1335 C1328 1.409 . S
C1335 C1334 1.362 . S
H1336 C1342 0.930 . S
H1337 C1345 0.930 . S
H1338 C1346 0.930 . S
H1339 C1347 0.930 . S
H1340 C1350 0.930 . S
H1341 C1351 0.930 . S
C1342 H1336 0.930 . S
C1342 C1343 1.355 . S
C1342 C1344 1.415 1_545 S
C1343 C1342 1.355 . S
C1343 C1345 1.419 . S
C1344 C1342 1.415 1_565 S
C1344 C1349 1.425 . S
C1344 C1351 1.409 . S
C1345 H1337 0.930 . S
C1345 C1343 1.419 . S
C1345 C1346 1.362 1_545 S
C1346 H1338 0.930 . S
C1346 C1345 1.362 1_565 S
C1346 C1349 1.409 . S
C1347 H1339 0.930 . S
C1347 C1348 1.355 . S
C1347 C1349 1.415 . S
C1348 C1347 1.355 . S
C1348 C1350 1.419 . S
C1349 C1344 1.425 . S
C1349 C1346 1.409 . S
C1349 C1347 1.415 . S
C1350 H1340 0.930 . S
C1350 C1348 1.419 . S
C1350 C1351 1.362 . S
C1351 H1341 0.930 . S
C1351 C1344 1.409 . S
C1351 C1350 1.362 . S
H1352 C1358 0.930 . S
H1353 C1361 0.930 . S
H1354 C1362 0.930 . S
H1355 C1363 0.930 . S
H1356 C1366 0.930 . S
H1357 C1367 0.931 . S
C1358 H1352 0.930 . S
C1358 C1359 1.355 . S
C1358 C1360 1.415 . S
C1359 C1358 1.355 . S
C1359 C1361 1.419 . S
C1360 C1358 1.415 . S
C1360 C1365 1.425 . S
C1360 C1367 1.411 . S
C1361 H1353 0.930 . S
C1361 C1359 1.419 . S
C1361 C1362 1.362 . S
C1362 H1354 0.930 . S
C1362 C1361 1.362 . S
C1362 C1365 1.409 . S
C1363 H1355 0.930 . S
C1363 C1364 1.355 . S
C1363 C1365 1.415 1_565 S
C1364 C1363 1.355 . S
C1364 C1366 1.419 . S
C1365 C1360 1.425 . S
C1365 C1362 1.409 . S
C1365 C1363 1.415 1_545 S
C1366 H1356 0.930 . S
C1366 C1364 1.419 . S
C1366 C1367 1.360 1_565 S
C1367 H1357 0.931 . S
C1367 C1360 1.411 . S
C1367 C1366 1.360 1_545 S
H1368 C1374 0.930 . S
H1369 C1377 0.930 . S
H1370 C1378 0.930 . S
H1371 C1379 0.930 . S
H1372 C1382 0.930 . S
H1373 C1383 0.930 . S
C1374 H1368 0.930 . S
C1374 C1375 1.355 . S
C1374 C1376 1.415 . S
C1375 C1374 1.355 . S
C1375 C1377 1.419 . S
C1376 C1374 1.415 . S
C1376 C1381 1.425 . S
C1376 C1383 1.409 . S
C1377 H1369 0.930 . S
C1377 C1375 1.419 . S
C1377 C1378 1.362 . S
C1378 H1370 0.930 . S
C1378 C1377 1.362 . S
C1378 C1381 1.409 . S
C1379 H1371 0.930 . S
C1379 C1380 1.355 . S
C1379 C1381 1.415 . S
C1380 C1379 1.355 . S
C1380 C1382 1.419 . S
C1381 C1376 1.425 . S
C1381 C1378 1.409 . S
C1381 C1379 1.415 . S
C1382 H1372 0.930 . S
C1382 C1380 1.419 . S
C1382 C1383 1.362 . S
C1383 H1373 0.930 . S
C1383 C1376 1.409 . S
C1383 C1382 1.362 . S
H1384 C1390 0.930 . S
H1385 C1393 0.930 . S
H1386 C1394 0.930 . S
H1387 C1395 0.930 . S
H1388 C1398 0.930 . S
H1389 C1399 0.930 . S
C1390 H1384 0.930 . S
C1390 C1391 1.355 . S
C1390 C1392 1.415 . S
C1391 C1390 1.355 . S
C1391 C1393 1.419 . S
C1392 C1390 1.415 . S
C1392 C1397 1.425 . S
C1392 C1399 1.409 . S
C1393 H1385 0.930 . S
C1393 C1391 1.419 . S
C1393 C1394 1.362 . S
C1394 H1386 0.930 . S
C1394 C1393 1.362 . S
C1394 C1397 1.409 . S
C1395 H1387 0.930 . S
C1395 C1396 1.355 . S
C1395 C1397 1.415 . S
C1396 C1395 1.355 . S
C1396 C1398 1.419 . S
C1397 C1392 1.425 . S
C1397 C1394 1.409 . S
C1397 C1395 1.415 . S
C1398 H1388 0.930 . S
C1398 C1396 1.419 . S
C1398 C1399 1.362 . S
C1399 H1389 0.930 . S
C1399 C1392 1.409 . S
C1399 C1398 1.362 . S
H1400 C1406 0.930 . S
H1401 C1409 0.930 . S
H1402 C1410 0.930 . S
H1403 C1411 0.930 . S
H1404 C1414 0.930 . S
H1405 C1415 0.930 . S
C1406 H1400 0.930 . S
C1406 C1407 1.355 . S
C1406 C1408 1.415 . S
C1407 C1406 1.355 . S
C1407 C1409 1.419 . S
C1408 C1406 1.415 . S
C1408 C1413 1.425 . S
C1408 C1415 1.409 . S
C1409 H1401 0.930 . S
C1409 C1407 1.419 . S
C1409 C1410 1.362 . S
C1410 H1402 0.930 . S
C1410 C1409 1.362 . S
C1410 C1413 1.409 . S
C1411 H1403 0.930 . S
C1411 C1412 1.355 . S
C1411 C1413 1.415 . S
C1412 C1411 1.355 . S
C1412 C1414 1.419 . S
C1413 C1408 1.425 . S
C1413 C1410 1.409 . S
C1413 C1411 1.415 . S
C1414 H1404 0.930 . S
C1414 C1412 1.419 . S
C1414 C1415 1.362 . S
C1415 H1405 0.930 . S
C1415 C1408 1.409 . S
C1415 C1414 1.362 . S
H1416 C1422 0.930 . S
H1417 C1425 0.930 . S
H1418 C1426 0.930 . S
H1419 C1427 0.930 . S
H1420 C1430 0.930 . S
H1421 C1431 0.930 . S
C1422 H1416 0.930 . S
C1422 C1423 1.355 . S
C1422 C1424 1.415 . S
C1423 C1422 1.355 . S
C1423 C1425 1.419 . S
C1424 C1422 1.415 . S
C1424 C1429 1.425 . S
C1424 C1431 1.409 . S
C1425 H1417 0.930 . S
C1425 C1423 1.419 . S
C1425 C1426 1.362 . S
C1426 H1418 0.930 . S
C1426 C1425 1.362 . S
C1426 C1429 1.409 . S
C1427 H1419 0.930 . S
C1427 C1428 1.355 . S
C1427 C1429 1.415 . S
C1428 C1427 1.355 . S
C1428 C1430 1.419 . S
C1429 C1424 1.425 . S
C1429 C1426 1.409 . S
C1429 C1427 1.415 . S
C1430 H1420 0.930 . S
C1430 C1428 1.419 . S
C1430 C1431 1.362 . S
C1431 H1421 0.930 . S
C1431 C1424 1.409 . S
C1431 C1430 1.362 . S
H1432 C1438 0.930 . S
H1433 C1441 0.930 . S
H1434 C1442 0.930 . S
H1435 C1443 0.930 . S
H1436 C1446 0.930 . S
H1437 C1447 0.930 . S
C1438 H1432 0.930 . S
C1438 C1439 1.355 . S
C1438 C1440 1.415 . S
C1439 C1438 1.355 . S
C1439 C1441 1.419 . S
C1440 C1438 1.415 . S
C1440 C1445 1.425 . S
C1440 C1447 1.409 . S
C1441 H1433 0.930 . S
C1441 C1439 1.419 . S
C1441 C1442 1.362 . S
C1442 H1434 0.930 . S
C1442 C1441 1.362 . S
C1442 C1445 1.409 . S
C1443 H1435 0.930 . S
C1443 C1444 1.355 . S
C1443 C1445 1.415 . S
C1444 C1443 1.355 . S
C1444 C1446 1.419 . S
C1445 C1440 1.425 . S
C1445 C1442 1.409 . S
C1445 C1443 1.415 . S
C1446 H1436 0.930 . S
C1446 C1444 1.419 . S
C1446 C1447 1.362 . S
C1447 H1437 0.930 . S
C1447 C1440 1.409 . S
C1447 C1446 1.362 . S
H1448 C1454 0.930 . S
H1449 C1457 0.930 . S
H1450 C1458 0.930 . S
H1451 C1459 0.930 . S
H1452 C1462 0.930 . S
H1453 C1463 0.930 . S
C1454 H1448 0.930 . S
C1454 C1455 1.355 . S
C1454 C1456 1.415 . S
C1455 C1454 1.355 . S
C1455 C1457 1.419 . S
C1456 C1454 1.415 . S
C1456 C1461 1.425 . S
C1456 C1463 1.409 . S
C1457 H1449 0.930 . S
C1457 C1455 1.419 . S
C1457 C1458 1.362 . S
C1458 H1450 0.930 . S
C1458 C1457 1.362 . S
C1458 C1461 1.409 . S
C1459 H1451 0.930 . S
C1459 C1460 1.355 . S
C1459 C1461 1.415 . S
C1460 C1459 1.355 . S
C1460 C1462 1.419 . S
C1461 C1456 1.425 . S
C1461 C1458 1.409 . S
C1461 C1459 1.415 . S
C1462 H1452 0.930 . S
C1462 C1460 1.419 . S
C1462 C1463 1.362 . S
C1463 H1453 0.930 . S
C1463 C1456 1.409 . S
C1463 C1462 1.362 . S
H1464 C1470 0.930 . S
H1465 C1473 0.930 . S
H1466 C1474 0.930 . S
H1467 C1475 0.930 . S
H1468 C1478 0.930 . S
H1469 C1479 0.930 . S
C1470 H1464 0.930 . S
C1470 C1471 1.355 . S
C1470 C1472 1.415 . S
C1471 C1470 1.355 . S
C1471 C1473 1.419 . S
C1472 C1470 1.415 . S
C1472 C1477 1.425 . S
C1472 C1479 1.409 . S
C1473 H1465 0.930 . S
C1473 C1471 1.419 . S
C1473 C1474 1.362 . S
C1474 H1466 0.930 . S
C1474 C1473 1.362 . S
C1474 C1477 1.409 . S
C1475 H1467 0.930 . S
C1475 C1476 1.355 . S
C1475 C1477 1.415 . S
C1476 C1475 1.355 . S
C1476 C1478 1.419 . S
C1477 C1472 1.425 . S
C1477 C1474 1.409 . S
C1477 C1475 1.415 . S
C1478 H1468 0.930 . S
C1478 C1476 1.419 . S
C1478 C1479 1.362 . S
C1479 H1469 0.930 . S
C1479 C1472 1.409 . S
C1479 C1478 1.362 . S
H1480 C1486 0.930 . S
H1481 C1489 0.930 . S
H1482 C1490 0.930 . S
H1483 C1491 0.930 . S
H1484 C1494 0.930 . S
H1485 C1495 0.930 . S
C1486 H1480 0.930 . S
C1486 C1487 1.355 . S
C1486 C1488 1.415 . S
C1487 C1486 1.355 . S
C1487 C1489 1.419 . S
C1488 C1486 1.415 . S
C1488 C1493 1.425 . S
C1488 C1495 1.409 . S
C1489 H1481 0.930 . S
C1489 C1487 1.419 . S
C1489 C1490 1.362 . S
C1490 H1482 0.930 . S
C1490 C1489 1.362 . S
C1490 C1493 1.409 . S
C1491 H1483 0.930 . S
C1491 C1492 1.355 . S
C1491 C1493 1.415 . S
C1492 C1491 1.355 . S
C1492 C1494 1.419 . S
C1493 C1488 1.425 . S
C1493 C1490 1.409 . S
C1493 C1491 1.415 . S
C1494 H1484 0.930 . S
C1494 C1492 1.419 . S
C1494 C1495 1.362 . S
C1495 H1485 0.930 . S
C1495 C1488 1.409 . S
C1495 C1494 1.362 . S
H1496 C1502 0.930 . S
H1497 C1505 0.930 . S
H1498 C1506 0.930 . S
H1499 C1507 0.930 . S
H1500 C1510 0.930 . S
H1501 C1511 0.930 . S
C1502 H1496 0.930 . S
C1502 C1503 1.355 . S
C1502 C1504 1.415 . S
C1503 C1502 1.355 . S
C1503 C1505 1.419 . S
C1504 C1502 1.415 . S
C1504 C1509 1.425 . S
C1504 C1511 1.409 . S
C1505 H1497 0.930 . S
C1505 C1503 1.419 . S
C1505 C1506 1.362 . S
C1506 H1498 0.930 . S
C1506 C1505 1.362 . S
C1506 C1509 1.409 . S
C1507 H1499 0.930 . S
C1507 C1508 1.355 . S
C1507 C1509 1.415 . S
C1508 C1507 1.355 . S
C1508 C1510 1.419 . S
C1509 C1504 1.425 . S
C1509 C1506 1.409 . S
C1509 C1507 1.415 . S
C1510 H1500 0.930 . S
C1510 C1508 1.419 . S
C1510 C1511 1.362 . S
C1511 H1501 0.930 . S
C1511 C1504 1.409 . S
C1511 C1510 1.362 . S
H1512 C1518 0.930 . S
H1513 C1521 0.930 . S
H1514 C1522 0.930 . S
H1515 C1523 0.930 . S
H1516 C1526 0.930 . S
H1517 C1527 0.930 . S
C1518 H1512 0.930 . S
C1518 C1519 1.355 . S
C1518 C1520 1.415 . S
C1519 C1518 1.355 . S
C1519 C1521 1.419 . S
C1520 C1518 1.415 . S
C1520 C1525 1.425 . S
C1520 C1527 1.409 . S
C1521 H1513 0.930 . S
C1521 C1519 1.419 . S
C1521 C1522 1.362 . S
C1522 H1514 0.930 . S
C1522 C1521 1.362 . S
C1522 C1525 1.409 . S
C1523 H1515 0.930 . S
C1523 C1524 1.355 . S
C1523 C1525 1.415 . S
C1524 C1523 1.355 . S
C1524 C1526 1.419 . S
C1525 C1520 1.425 . S
C1525 C1522 1.409 . S
C1525 C1523 1.415 . S
C1526 H1516 0.930 . S
C1526 C1524 1.419 . S
C1526 C1527 1.362 . S
C1527 H1517 0.930 . S
C1527 C1520 1.409 . S
C1527 C1526 1.362 . S
H1528 C1534 0.930 . S
H1529 C1537 0.930 . S
H1530 C1538 0.930 . S
H1531 C1539 0.930 . S
H1532 C1542 0.930 . S
H1533 C1543 0.930 . S
C1534 H1528 0.930 . S
C1534 C1535 1.355 . S
C1534 C1536 1.415 . S
C1535 C1534 1.355 . S
C1535 C1537 1.419 . S
C1536 C1534 1.415 . S
C1536 C1541 1.425 . S
C1536 C1543 1.409 . S
C1537 H1529 0.930 . S
C1537 C1535 1.419 . S
C1537 C1538 1.362 . S
C1538 H1530 0.930 . S
C1538 C1537 1.362 . S
C1538 C1541 1.409 . S
C1539 H1531 0.930 . S
C1539 C1540 1.355 . S
C1539 C1541 1.415 . S
C1540 C1539 1.355 . S
C1540 C1542 1.419 . S
C1541 C1536 1.425 . S
C1541 C1538 1.409 . S
C1541 C1539 1.415 . S
C1542 H1532 0.930 . S
C1542 C1540 1.419 . S
C1542 C1543 1.362 . S
C1543 H1533 0.930 . S
C1543 C1536 1.409 . S
C1543 C1542 1.362 . S
H1544 C1550 0.930 . S
H1545 C1553 0.930 . S
H1546 C1554 0.930 . S
H1547 C1555 0.930 . S
H1548 C1558 0.930 . S
H1549 C1559 0.930 . S
C1550 H1544 0.930 . S
C1550 C1551 1.355 . S
C1550 C1552 1.415 . S
C1551 C1550 1.355 . S
C1551 C1553 1.419 . S
C1552 C1550 1.415 . S
C1552 C1557 1.425 . S
C1552 C1559 1.409 . S
C1553 H1545 0.930 . S
C1553 C1551 1.419 . S
C1553 C1554 1.362 . S
C1554 H1546 0.930 . S
C1554 C1553 1.362 . S
C1554 C1557 1.409 . S
C1555 H1547 0.930 . S
C1555 C1556 1.355 . S
C1555 C1557 1.415 . S
C1556 C1555 1.355 . S
C1556 C1558 1.419 . S
C1557 C1552 1.425 . S
C1557 C1554 1.409 . S
C1557 C1555 1.415 . S
C1558 H1548 0.930 . S
C1558 C1556 1.419 . S
C1558 C1559 1.362 . S
C1559 H1549 0.930 . S
C1559 C1552 1.409 . S
C1559 C1558 1.362 . S
H1560 C1566 0.930 . S
H1561 C1569 0.930 . S
H1562 C1570 0.930 . S
H1563 C1571 0.930 . S
H1564 C1574 0.930 . S
H1565 C1575 0.930 . S
C1566 H1560 0.930 . S
C1566 C1567 1.355 . S
C1566 C1568 1.415 . S
C1567 C1566 1.355 . S
C1567 C1569 1.419 . S
C1568 C1566 1.415 . S
C1568 C1573 1.425 . S
C1568 C1575 1.409 . S
C1569 H1561 0.930 . S
C1569 C1567 1.419 . S
C1569 C1570 1.362 . S
C1570 H1562 0.930 . S
C1570 C1569 1.362 . S
C1570 C1573 1.409 . S
C1571 H1563 0.930 . S
C1571 C1572 1.355 . S
C1571 C1573 1.415 . S
C1572 C1571 1.355 . S
C1572 C1574 1.419 . S
C1573 C1568 1.425 . S
C1573 C1570 1.409 . S
C1573 C1571 1.415 . S
C1574 H1564 0.930 . S
C1574 C1572 1.419 . S
C1574 C1575 1.362 . S
C1575 H1565 0.930 . S
C1575 C1568 1.409 . S
C1575 C1574 1.362 . S
H1576 C1582 0.930 . S
H1577 C1585 0.930 . S
H1578 C1586 0.930 . S
H1579 C1587 0.930 . S
H1580 C1590 0.930 . S
H1581 C1591 0.930 . S
C1582 H1576 0.930 . S
C1582 C1583 1.355 . S
C1582 C1584 1.415 . S
C1583 C1582 1.355 . S
C1583 C1585 1.419 . S
C1584 C1582 1.415 . S
C1584 C1589 1.425 . S
C1584 C1591 1.409 . S
C1585 H1577 0.930 . S
C1585 C1583 1.419 . S
C1585 C1586 1.362 . S
C1586 H1578 0.930 . S
C1586 C1585 1.362 . S
C1586 C1589 1.409 . S
C1587 H1579 0.930 . S
C1587 C1588 1.355 . S
C1587 C1589 1.415 . S
C1588 C1587 1.355 . S
C1588 C1590 1.419 . S
C1589 C1584 1.425 . S
C1589 C1586 1.409 . S
C1589 C1587 1.415 . S
C1590 H1580 0.930 . S
C1590 C1588 1.419 . S
C1590 C1591 1.362 . S
C1591 H1581 0.930 . S
C1591 C1584 1.409 . S
C1591 C1590 1.362 . S
H1592 C1598 0.930 . S
H1593 C1601 0.930 . S
H1594 C1602 0.930 . S
H1595 C1603 0.930 . S
H1596 C1606 0.930 . S
H1597 C1607 0.930 . S
C1598 H1592 0.930 . S
C1598 C1599 1.355 . S
C1598 C1600 1.415 . S
C1599 C1598 1.355 . S
C1599 C1601 1.419 . S
C1600 C1598 1.415 . S
C1600 C1605 1.425 . S
C1600 C1607 1.409 . S
C1601 H1593 0.930 . S
C1601 C1599 1.419 . S
C1601 C1602 1.362 . S
C1602 H1594 0.930 . S
C1602 C1601 1.362 . S
C1602 C1605 1.409 . S
C1603 H1595 0.930 . S
C1603 C1604 1.355 . S
C1603 C1605 1.415 . S
C1604 C1603 1.355 . S
C1604 C1606 1.419 . S
C1605 C1600 1.425 . S
C1605 C1602 1.409 . S
C1605 C1603 1.415 . S
C1606 H1596 0.930 . S
C1606 C1604 1.419 . S
C1606 C1607 1.362 . S
C1607 H1597 0.930 . S
C1607 C1600 1.409 . S
C1607 C1606 1.362 . S
H1608 C1614 0.930 . S
H1609 C1617 0.930 . S
H1610 C1618 0.930 . S
H1611 C1619 0.930 . S
H1612 C1622 0.930 . S
H1613 C1623 0.930 . S
C1614 H1608 0.930 . S
C1614 C1615 1.355 . S
C1614 C1616 1.415 . S
C1615 C1614 1.355 . S
C1615 C1617 1.419 . S
C1616 C1614 1.415 . S
C1616 C1621 1.425 . S
C1616 C1623 1.409 . S
C1617 H1609 0.930 . S
C1617 C1615 1.419 . S
C1617 C1618 1.362 . S
C1618 H1610 0.930 . S
C1618 C1617 1.362 . S
C1618 C1621 1.409 . S
C1619 H1611 0.930 . S
C1619 C1620 1.355 . S
C1619 C1621 1.415 . S
C1620 C1619 1.355 . S
C1620 C1622 1.419 . S
C1621 C1616 1.425 . S
C1621 C1618 1.409 . S
C1621 C1619 1.415 . S
C1622 H1612 0.930 . S
C1622 C1620 1.419 . S
C1622 C1623 1.362 . S
C1623 H1613 0.930 . S
C1623 C1616 1.409 . S
C1623 C1622 1.362 . S
H1624 C1630 0.930 . S
H1625 C1633 0.930 . S
H1626 C1634 0.930 . S
H1627 C1635 0.930 . S
H1628 C1638 0.930 . S
H1629 C1639 0.930 . S
C1630 H1624 0.930 . S
C1630 C1631 1.355 . S
C1630 C1632 1.415 . S
C1631 C1630 1.355 . S
C1631 C1633 1.419 . S
C1632 C1630 1.415 . S
C1632 C1637 1.425 . S
C1632 C1639 1.409 . S
C1633 H1625 0.930 . S
C1633 C1631 1.419 . S
C1633 C1634 1.362 . S
C1634 H1626 0.930 . S
C1634 C1633 1.362 . S
C1634 C1637 1.409 . S
C1635 H1627 0.930 . S
C1635 C1636 1.355 . S
C1635 C1637 1.415 . S
C1636 C1635 1.355 . S
C1636 C1638 1.419 . S
C1637 C1632 1.425 . S
C1637 C1634 1.409 . S
C1637 C1635 1.415 . S
C1638 H1628 0.930 . S
C1638 C1636 1.419 . S
C1638 C1639 1.362 . S
C1639 H1629 0.930 . S
C1639 C1632 1.409 . S
C1639 C1638 1.362 . S
H1640 C1646 0.930 . S
H1641 C1649 0.930 . S
H1642 C1650 0.930 . S
H1643 C1651 0.930 . S
H1644 C1654 0.930 . S
H1645 C1655 0.930 . S
C1646 H1640 0.930 . S
C1646 C1647 1.355 . S
C1646 C1648 1.415 . S
C1647 C1646 1.355 . S
C1647 C1649 1.419 . S
C1648 C1646 1.415 . S
C1648 C1653 1.425 . S
C1648 C1655 1.409 . S
C1649 H1641 0.930 . S
C1649 C1647 1.419 . S
C1649 C1650 1.362 . S
C1650 H1642 0.930 . S
C1650 C1649 1.362 . S
C1650 C1653 1.409 . S
C1651 H1643 0.930 . S
C1651 C1652 1.355 . S
C1651 C1653 1.415 . S
C1652 C1651 1.355 . S
C1652 C1654 1.419 . S
C1653 C1648 1.425 . S
C1653 C1650 1.409 . S
C1653 C1651 1.415 . S
C1654 H1644 0.930 . S
C1654 C1652 1.419 . S
C1654 C1655 1.362 . S
C1655 H1645 0.930 . S
C1655 C1648 1.409 . S
C1655 C1654 1.362 . S
H1656 C1662 0.930 . S
H1657 C1665 0.930 . S
H1658 C1666 0.930 . S
H1659 C1667 0.930 . S
H1660 C1670 0.930 . S
H1661 C1671 0.930 . S
C1662 H1656 0.930 . S
C1662 C1663 1.355 . S
C1662 C1664 1.415 . S
C1663 C1662 1.355 . S
C1663 C1665 1.419 . S
C1664 C1662 1.415 . S
C1664 C1669 1.425 . S
C1664 C1671 1.409 . S
C1665 H1657 0.930 . S
C1665 C1663 1.419 . S
C1665 C1666 1.362 . S
C1666 H1658 0.930 . S
C1666 C1665 1.362 . S
C1666 C1669 1.409 . S
C1667 H1659 0.930 . S
C1667 C1668 1.355 . S
C1667 C1669 1.415 . S
C1668 C1667 1.355 . S
C1668 C1670 1.419 . S
C1669 C1664 1.425 . S
C1669 C1666 1.409 . S
C1669 C1667 1.415 . S
C1670 H1660 0.930 . S
C1670 C1668 1.419 . S
C1670 C1671 1.362 . S
C1671 H1661 0.930 . S
C1671 C1664 1.409 . S
C1671 C1670 1.362 . S
H1672 C1678 0.930 . S
H1673 C1681 0.930 . S
H1674 C1682 0.930 . S
H1675 C1683 0.930 . S
H1676 C1686 0.930 . S
H1677 C1687 0.930 . S
C1678 H1672 0.930 . S
C1678 C1679 1.355 . S
C1678 C1680 1.415 . S
C1679 C1678 1.355 . S
C1679 C1681 1.419 . S
C1680 C1678 1.415 . S
C1680 C1685 1.425 . S
C1680 C1687 1.409 . S
C1681 H1673 0.930 . S
C1681 C1679 1.419 . S
C1681 C1682 1.362 . S
C1682 H1674 0.930 . S
C1682 C1681 1.362 . S
C1682 C1685 1.409 . S
C1683 H1675 0.930 . S
C1683 C1684 1.355 . S
C1683 C1685 1.415 . S
C1684 C1683 1.355 . S
C1684 C1686 1.419 . S
C1685 C1680 1.425 . S
C1685 C1682 1.409 . S
C1685 C1683 1.415 . S
C1686 H1676 0.930 . S
C1686 C1684 1.419 . S
C1686 C1687 1.362 . S
C1687 H1677 0.930 . S
C1687 C1680 1.409 . S
C1687 C1686 1.362 . S
H1688 C1694 0.930 . S
H1689 C1697 0.930 . S
H1690 C1698 0.930 . S
H1691 C1699 0.930 . S
H1692 C1702 0.930 . S
H1693 C1703 0.930 . S
C1694 H1688 0.930 . S
C1694 C1695 1.355 . S
C1694 C1696 1.415 . S
C1695 C1694 1.355 . S
C1695 C1697 1.419 . S
C1696 C1694 1.415 . S
C1696 C1701 1.425 . S
C1696 C1703 1.409 . S
C1697 H1689 0.930 . S
C1697 C1695 1.419 . S
C1697 C1698 1.362 . S
C1698 H1690 0.930 . S
C1698 C1697 1.362 . S
C1698 C1701 1.409 . S
C1699 H1691 0.930 . S
C1699 C1700 1.355 . S
C1699 C1701 1.415 . S
C1700 C1699 1.355 . S
C1700 C1702 1.419 . S
C1701 C1696 1.425 . S
C1701 C1698 1.409 . S
C1701 C1699 1.415 . S
C1702 H1692 0.930 . S
C1702 C1700 1.419 . S
C1702 C1703 1.362 . S
C1703 H1693 0.930 . S
C1703 C1696 1.409 . S
C1703 C1702 1.362 . S
H1704 C1710 0.930 . S
H1705 C1713 0.930 . S
H1706 C1714 0.930 . S
H1707 C1715 0.930 . S
H1708 C1718 0.930 . S
H1709 C1719 0.930 . S
C1710 H1704 0.930 . S
C1710 C1711 1.355 . S
C1710 C1712 1.415 . S
C1711 C1710 1.355 . S
C1711 C1713 1.419 . S
C1712 C1710 1.415 . S
C1712 C1717 1.425 . S
C1712 C1719 1.409 . S
C1713 H1705 0.930 . S
C1713 C1711 1.419 . S
C1713 C1714 1.362 . S
C1714 H1706 0.930 . S
C1714 C1713 1.362 . S
C1714 C1717 1.409 . S
C1715 H1707 0.930 . S
C1715 C1716 1.355 . S
C1715 C1717 1.415 . S
C1716 C1715 1.355 . S
C1716 C1718 1.419 . S
C1717 C1712 1.425 . S
C1717 C1714 1.409 . S
C1717 C1715 1.415 . S
C1718 H1708 0.930 . S
C1718 C1716 1.419 . S
C1718 C1719 1.362 . S
C1719 H1709 0.930 . S
C1719 C1712 1.409 . S
C1719 C1718 1.362 . S
H1720 C1726 0.930 . S
H1721 C1729 0.930 . S
H1722 C1730 0.930 . S
H1723 C1731 0.930 . S
H1724 C1734 0.930 . S
H1725 C1735 0.930 . S
C1726 H1720 0.930 . S
C1726 C1727 1.355 . S
C1726 C1728 1.415 . S
C1727 C1726 1.355 . S
C1727 C1729 1.419 . S
C1728 C1726 1.415 . S
C1728 C1733 1.425 . S
C1728 C1735 1.409 . S
C1729 H1721 0.930 . S
C1729 C1727 1.419 . S
C1729 C1730 1.362 . S
C1730 H1722 0.930 . S
C1730 C1729 1.362 . S
C1730 C1733 1.409 . S
C1731 H1723 0.930 . S
C1731 C1732 1.355 . S
C1731 C1733 1.415 . S
C1732 C1731 1.355 . S
C1732 C1734 1.419 . S
C1733 C1728 1.425 . S
C1733 C1730 1.409 . S
C1733 C1731 1.415 . S
C1734 H1724 0.930 . S
C1734 C1732 1.419 . S
C1734 C1735 1.362 . S
C1735 H1725 0.930 . S
C1735 C1728 1.409 . S
C1735 C1734 1.362 . S
H1736 C1742 0.930 . S
H1737 C1745 0.930 . S
H1738 C1746 0.930 . S
H1739 C1747 0.930 . S
H1740 C1750 0.930 . S
H1741 C1751 0.930 . S
C1742 H1736 0.930 . S
C1742 C1743 1.355 . S
C1742 C1744 1.415 . S
C1743 C1742 1.355 . S
C1743 C1745 1.419 . S
C1744 C1742 1.415 . S
C1744 C1749 1.425 . S
C1744 C1751 1.409 . S
C1745 H1737 0.930 . S
C1745 C1743 1.419 . S
C1745 C1746 1.362 . S
C1746 H1738 0.930 . S
C1746 C1745 1.362 . S
C1746 C1749 1.409 . S
C1747 H1739 0.930 . S
C1747 C1748 1.355 . S
C1747 C1749 1.415 . S
C1748 C1747 1.355 . S
C1748 C1750 1.419 . S
C1749 C1744 1.425 . S
C1749 C1746 1.409 . S
C1749 C1747 1.415 . S
C1750 H1740 0.930 . S
C1750 C1748 1.419 . S
C1750 C1751 1.362 . S
C1751 H1741 0.930 . S
C1751 C1744 1.409 . S
C1751 C1750 1.362 . S
C799 C186 1.084 . S
C804 C21 1.050 . S
C815 C54 1.084 . S
C820 C219 1.050 . S
C831 C87 1.072 . S
C836 C252 1.068 . S
C847 C153 1.023 . S
C852 C120 1.083 . S
C863 C285 1.060 . S
C868 C780 1.078 . S
C879 C714 1.087 . S
C884 C318 1.032 . S
C895 C351 1.082 . S
C900 C747 1.022 . S
C911 C549 1.021 . S
C916 C384 1.080 . S
C927 C417 1.062 . S
C932 C681 1.021 . S
C943 C450 1.019 . S
C948 C582 1.074 . S
C959 C615 1.082 . S
C964 C483 1.054 . S
C975 C516 1.019 . S
C980 C648 1.076 . S
C991 N101 1.662 . S
C996 C7 1.689 . S
C1007 C40 1.690 . S
C1012 N2 1.663 . S
C1023 C73 1.697 . S
C1028 N35 1.619 . S
C1039 N68 1.642 . S
C1044 C106 1.708 . S
C1055 N167 1.617 . S
C1060 C139 1.657 . S
C1071 C172 1.711 . S
C1076 N200 1.654 . S
C1087 N233 1.658 . S
C1092 C205 1.711 . S
C1103 N134 1.614 . S
C1108 C238 1.656 . S
C1119 N596 1.587 . S
C1124 C271 1.662 . S
C1135 C304 1.662 . S
C1140 N629 1.627 . S
C1151 N662 1.665 . S
C1156 C337 1.693 . S
C1167 C370 1.700 . S
C1172 N563 1.624 . S
C1183 N728 1.587 . S
C1188 C403 1.665 . S
C1199 C436 1.704 . S
C1204 N530 1.631 . S
C1215 N761 1.626 . S
C1220 C469 1.661 . S
C1231 C502 1.670 . S
C1236 N695 1.590 . S
C1247 N299 1.608 . S
C1252 C535 1.654 . S
C1263 N497 1.621 . S
C1268 C568 1.659 . S
C1279 C601 1.685 . S
C1284 N398 1.658 . S
C1295 C634 1.708 . S
C1300 N431 1.667 . S
C1311 N464 1.596 . S
C1316 C667 1.653 . S
C1327 N365 1.620 . S
C1332 C700 1.698 . S
C1343 N266 1.656 . S
C1348 C733 1.711 . S
C1359 C766 1.666 . S
C1364 N332 1.588 . S
C1375 C18 1.314 . S
C1380 N541 1.194 . S
C1391 N772 1.248 . S
C1396 C51 1.340 . S
C1407 C84 1.343 . S
C1412 N706 1.261 . S
C1423 N739 1.252 . S
C1428 C117 1.339 . S
C1439 C150 1.327 . S
C1444 N574 1.219 . S
C1455 C183 1.313 . S
C1460 N607 1.191 . S
C1471 N640 1.305 . S
C1476 C216 1.364 . S
C1487 N673 1.248 . S
C1492 C249 1.340 . S
C1503 N13 1.188 . S
C1508 C282 1.312 . S
C1519 C315 1.311 . S
C1524 N46 1.184 . S
C1535 C348 1.317 . S
C1540 N79 1.201 . S
C1551 C381 1.361 . S
C1556 N112 1.300 . S
C1567 C414 1.363 . S
C1572 N145 1.300 . S
C1583 C447 1.314 . S
C1588 N178 1.193 . S
C1599 C480 1.361 . S
C1604 N211 1.299 . S
C1615 C513 1.316 . S
C1620 N244 1.198 . S
C1631 N277 1.206 . S
C1636 C546 1.319 . S
C1647 C579 1.359 . S
C1652 N409 1.291 . S
C1663 C612 1.334 . S
C1668 N442 1.234 . S
C1679 N475 1.228 . S
C1684 C645 1.328 . S
C1695 C678 1.317 . S
C1700 N508 1.202 . S
C1711 N343 1.195 . S
C1716 C711 1.316 . S
C1727 N376 1.261 . S
C1732 C744 1.346 . S
C1743 C777 1.315 . S
C1748 N310 1.196 . S
