# Generated by pormake.
# Topology vbb, (4)-cn, num edge types: 1
# Building blocks:
#     Node 0, Type 0, BuildingBlock: QUQFOY_clean_sbu_1, # of connection points: 4
#     Node 1, Type 0, BuildingBlock: QUQFOY_clean_sbu_1, # of connection points: 4
#     Node 2, Type 0, BuildingBlock: QUQFOY_clean_sbu_1, # of connection points: 4
#     Node 3, Type 0, BuildingBlock: QUQFOY_clean_sbu_1, # of connection points: 4
#     Node 4, Type 0, BuildingBlock: QUQFOY_clean_sbu_1, # of connection points: 4
#     Node 5, Type 0, BuildingBlock: QUQFOY_clean_sbu_1, # of connection points: 4
#     Node 6, Type 0, BuildingBlock: QUQFOY_clean_sbu_1, # of connection points: 4
#     Node 7, Type 0, BuildingBlock: QUQFOY_clean_sbu_1, # of connection points: 4
#     Node 8, Type 0, BuildingBlock: QUQFOY_clean_sbu_1, # of connection points: 4
#     Node 9, Type 0, BuildingBlock: QUQFOY_clean_sbu_1, # of connection points: 4
#     Node 10, Type 0, BuildingBlock: QUQFOY_clean_sbu_1, # of connection points: 4
#     Node 11, Type 0, BuildingBlock: QUQFOY_clean_sbu_1, # of connection points: 4
#     Node 12, Type 0, BuildingBlock: QUQFOY_clean_sbu_1, # of connection points: 4
#     Node 13, Type 0, BuildingBlock: QUQFOY_clean_sbu_1, # of connection points: 4
#     Node 14, Type 0, BuildingBlock: QUQFOY_clean_sbu_1, # of connection points: 4
#     Node 15, Type 0, BuildingBlock: QUQFOY_clean_sbu_1, # of connection points: 4
#     Node 16, Type 0, BuildingBlock: QUQFOY_clean_sbu_1, # of connection points: 4
#     Node 17, Type 0, BuildingBlock: QUQFOY_clean_sbu_1, # of connection points: 4
#     Node 18, Type 0, BuildingBlock: QUQFOY_clean_sbu_1, # of connection points: 4
#     Node 19, Type 0, BuildingBlock: QUQFOY_clean_sbu_1, # of connection points: 4
#     Node 20, Type 0, BuildingBlock: QUQFOY_clean_sbu_1, # of connection points: 4
#     Node 21, Type 0, BuildingBlock: QUQFOY_clean_sbu_1, # of connection points: 4
#     Node 22, Type 0, BuildingBlock: QUQFOY_clean_sbu_1, # of connection points: 4
#     Node 23, Type 0, BuildingBlock: QUQFOY_clean_sbu_1, # of connection points: 4
#     Node 24, Type 0, BuildingBlock: QUQFOY_clean_sbu_1, # of connection points: 4
#     Node 25, Type 0, BuildingBlock: QUQFOY_clean_sbu_1, # of connection points: 4
#     Node 26, Type 0, BuildingBlock: QUQFOY_clean_sbu_1, # of connection points: 4
#     Node 27, Type 0, BuildingBlock: QUQFOY_clean_sbu_1, # of connection points: 4
#     Node 28, Type 0, BuildingBlock: QUQFOY_clean_sbu_1, # of connection points: 4
#     Node 29, Type 0, BuildingBlock: QUQFOY_clean_sbu_1, # of connection points: 4
#     Node 30, Type 0, BuildingBlock: QUQFOY_clean_sbu_1, # of connection points: 4
#     Node 31, Type 0, BuildingBlock: QUQFOY_clean_sbu_1, # of connection points: 4
#     Edge 32, Type (0, 0), None
#     Edge 33, Type (0, 0), None
#     Edge 34, Type (0, 0), None
#     Edge 35, Type (0, 0), None
#     Edge 36, Type (0, 0), None
#     Edge 37, Type (0, 0), None
#     Edge 38, Type (0, 0), None
#     Edge 39, Type (0, 0), None
#     Edge 40, Type (0, 0), None
#     Edge 41, Type (0, 0), None
#     Edge 42, Type (0, 0), None
#     Edge 43, Type (0, 0), None
#     Edge 44, Type (0, 0), None
#     Edge 45, Type (0, 0), None
#     Edge 46, Type (0, 0), None
#     Edge 47, Type (0, 0), None
#     Edge 48, Type (0, 0), None
#     Edge 49, Type (0, 0), None
#     Edge 50, Type (0, 0), None
#     Edge 51, Type (0, 0), None
#     Edge 52, Type (0, 0), None
#     Edge 53, Type (0, 0), None
#     Edge 54, Type (0, 0), None
#     Edge 55, Type (0, 0), None
#     Edge 56, Type (0, 0), None
#     Edge 57, Type (0, 0), None
#     Edge 58, Type (0, 0), None
#     Edge 59, Type (0, 0), None
#     Edge 60, Type (0, 0), None
#     Edge 61, Type (0, 0), None
#     Edge 62, Type (0, 0), None
#     Edge 63, Type (0, 0), None
#     Edge 64, Type (0, 0), None
#     Edge 65, Type (0, 0), None
#     Edge 66, Type (0, 0), None
#     Edge 67, Type (0, 0), None
#     Edge 68, Type (0, 0), None
#     Edge 69, Type (0, 0), None
#     Edge 70, Type (0, 0), None
#     Edge 71, Type (0, 0), None
#     Edge 72, Type (0, 0), None
#     Edge 73, Type (0, 0), None
#     Edge 74, Type (0, 0), None
#     Edge 75, Type (0, 0), None
#     Edge 76, Type (0, 0), None
#     Edge 77, Type (0, 0), None
#     Edge 78, Type (0, 0), None
#     Edge 79, Type (0, 0), None
#     Edge 80, Type (0, 0), None
#     Edge 81, Type (0, 0), None
#     Edge 82, Type (0, 0), None
#     Edge 83, Type (0, 0), None
#     Edge 84, Type (0, 0), None
#     Edge 85, Type (0, 0), None
#     Edge 86, Type (0, 0), None
#     Edge 87, Type (0, 0), None
#     Edge 88, Type (0, 0), None
#     Edge 89, Type (0, 0), None
#     Edge 90, Type (0, 0), None
#     Edge 91, Type (0, 0), None
#     Edge 92, Type (0, 0), None
#     Edge 93, Type (0, 0), None
#     Edge 94, Type (0, 0), None
#     Edge 95, Type (0, 0), None
# Relax obj value: 0.092
# Max RMSD: 0.244
# Mean RMSD: 0.243
data_MOF--net-vbb--node1-QUQFOY_clean_sbu_1--edge1-none
_symmetry_space_group_name_H-M    P1
_symmetry_Int_Tables_number       1
_symmetry_cell_setting            triclinic
loop_
_symmetry_equiv_pos_as_xyz
'x, y, z'
_cell_length_a     19.262109
_cell_length_b     17.954396
_cell_length_c     47.509602
_cell_angle_alpha  89.997201
_cell_angle_beta   89.925454
_cell_angle_gamma 90.000602
loop_
_atom_site_label
_atom_site_type_symbol
_atom_site_fract_x
_atom_site_fract_y
_atom_site_fract_z
_atom_type_partial_charge
O0 O 0.54138 1.01768 0.08303 0.0
Cd1 Cd 0.51215 1.02197 0.1234 0.0
Cd2 Cd 0.4603 0.1466 0.11932 0.0
O3 O 0.457 0.10006 0.07748 0.0
O4 O 0.47314 0.92386 0.13752 0.0
O5 O 0.40644 1.01579 0.12233 0.0
C6 C 0.41166 0.94912 0.13187 0.0
C7 C 0.40165 0.16137 0.16228 0.0
C8 C 0.50241 0.05513 0.06698 0.0
C9 C 0.59561 0.1601 0.13928 0.0
O10 O 0.55212 0.1955 0.12455 0.0
O11 O 0.58424 0.0915 0.14547 0.0
O12 O 0.38997 0.20628 0.1414 0.0
O13 O 0.43976 0.10394 0.15765 0.0
O14 O 0.72045 0.3326 0.08308 0.0
Cd15 Cd 0.74963 0.32803 0.12342 0.0
Cd16 Cd 0.80154 0.20342 0.11921 0.0
O17 O 0.80482 0.25022 0.0774 0.0
O18 O 0.78865 0.42603 0.13761 0.0
O19 O 0.85536 0.33423 0.12225 0.0
C20 C 0.85014 0.40081 0.13187 0.0
C21 C 0.86014 0.18868 0.16213 0.0
C22 C 0.75942 0.29523 0.06697 0.0
C23 C 0.66626 0.18971 0.13927 0.0
O24 O 0.70978 0.15437 0.12449 0.0
O25 O 0.67755 0.2583 0.14549 0.0
O26 O 0.87196 0.14385 0.14123 0.0
O27 O 0.82189 0.24601 0.15755 0.0
O28 O 0.54136 0.33259 0.27025 0.0
Cd29 Cd 0.51217 0.32802 0.22992 0.0
Cd30 Cd 0.46029 0.20342 0.23412 0.0
O31 O 0.45701 0.2502 0.27593 0.0
O32 O 0.47315 0.42602 0.21572 0.0
O33 O 0.40644 0.33421 0.23109 0.0
C34 C 0.41166 0.4008 0.22146 0.0
C35 C 0.4017 0.18868 0.19122 0.0
C36 C 0.5024 0.29521 0.28636 0.0
C37 C 0.5956 0.18973 0.21407 0.0
O38 O 0.55207 0.1544 0.22884 0.0
O39 O 0.58427 0.25831 0.20785 0.0
O40 O 0.38989 0.14381 0.21211 0.0
O41 O 0.43994 0.24603 0.19579 0.0
O42 O 0.72045 1.01768 0.27031 0.0
Cd43 Cd 0.74966 1.02198 0.22994 0.0
Cd44 Cd 0.80154 0.14662 0.23401 0.0
O45 O 0.80482 0.10007 0.27585 0.0
O46 O 0.78867 0.92386 0.21581 0.0
O47 O 0.85538 1.01579 0.23101 0.0
C48 C 0.85016 0.94913 0.22146 0.0
C49 C 0.86019 0.16136 0.19107 0.0
C50 C 0.75941 0.05514 0.28636 0.0
C51 C 0.66625 0.16013 0.21405 0.0
O52 O 0.70974 0.19554 0.22877 0.0
O53 O 0.67758 0.09152 0.20787 0.0
O54 O 0.87189 0.20629 0.21194 0.0
O55 O 0.82207 0.10393 0.19568 0.0
O56 O 0.47049 0.08276 1.02031 0.0
Cd57 Cd 0.49971 0.07847 0.97993 0.0
Cd58 Cd 0.55156 0.95384 0.98401 0.0
O59 O 0.55487 1.00038 1.02585 0.0
O60 O 0.53872 0.17658 0.96581 0.0
O61 O 0.60543 0.08465 0.981 0.0
C62 C 0.60021 0.15132 0.97146 0.0
C63 C 0.61021 0.93907 0.94105 0.0
C64 C 0.50945 1.04531 1.03636 0.0
C65 C 0.41626 0.94034 0.96406 0.0
O66 O 0.45975 0.90494 0.97878 0.0
O67 O 0.42762 1.00894 0.95786 0.0
O68 O 0.62189 0.89417 0.96194 0.0
O69 O 0.5721 0.99651 0.94568 0.0
O70 O 0.29142 0.76784 1.02025 0.0
Cd71 Cd 0.26223 0.77241 0.97991 0.0
Cd72 Cd 0.21032 0.89702 0.98412 0.0
O73 O 0.20705 0.85022 1.02593 0.0
O74 O 0.22321 0.67441 0.96572 0.0
O75 O 0.1565 0.76621 0.98109 0.0
C76 C 0.16173 0.69963 0.97146 0.0
C77 C 0.15172 0.91176 0.94121 0.0
C78 C 0.25244 0.80521 1.03636 0.0
C79 C 0.34561 0.91073 0.96406 0.0
O80 O 0.30208 0.94607 0.97884 0.0
O81 O 0.33432 0.84215 0.95785 0.0
O82 O 0.13991 0.95659 0.96211 0.0
O83 O 0.18997 0.85443 0.94579 0.0
O84 O 0.4705 0.76785 0.83308 0.0
Cd85 Cd 0.49969 0.77242 0.87342 0.0
Cd86 Cd 0.55157 0.89702 0.86922 0.0
O87 O 0.55486 0.85024 0.8274 0.0
O88 O 0.53872 0.67442 0.88761 0.0
O89 O 0.60542 0.76623 0.87224 0.0
C90 C 0.6002 0.69964 0.88187 0.0
C91 C 0.61016 0.91176 0.91212 0.0
C92 C 0.50947 0.80523 0.81697 0.0
C93 C 0.41626 0.91071 0.88927 0.0
O94 O 0.4598 0.94604 0.87449 0.0
O95 O 0.42759 0.84213 0.89548 0.0
O96 O 0.62197 0.95663 0.89122 0.0
O97 O 0.57193 0.85441 0.90755 0.0
O98 O 0.29142 0.08276 0.83303 0.0
Cd99 Cd 0.2622 0.07846 0.8734 0.0
Cd100 Cd 0.21032 0.95383 0.86933 0.0
O101 O 0.20704 1.00037 0.82748 0.0
O102 O 0.22319 0.17658 0.88752 0.0
O103 O 0.15649 0.08465 0.87233 0.0
C104 C 0.16171 0.15131 0.88187 0.0
C105 C 0.15167 0.93908 0.91227 0.0
C106 C 0.25245 1.04531 0.81698 0.0
C107 C 0.34561 0.94031 0.88929 0.0
O108 O 0.30212 0.9049 0.87456 0.0
O109 O 0.33429 1.00892 0.89547 0.0
O110 O 0.13997 0.89415 0.8914 0.0
O111 O 0.18979 0.99651 0.90765 0.0
O112 O 0.54139 0.51768 0.58303 0.0
Cd113 Cd 0.51218 0.52195 0.6234 0.0
Cd114 Cd 0.46034 0.64658 0.61933 0.0
O115 O 0.45701 0.60006 0.57749 0.0
O116 O 0.47317 0.42383 0.63752 0.0
O117 O 0.40647 0.51578 0.62234 0.0
C118 C 0.41169 0.4491 0.63188 0.0
C119 C 0.40171 0.66137 0.66229 0.0
C120 C 0.50242 0.55513 0.56698 0.0
C121 C 0.59565 0.66006 0.63928 0.0
O122 O 0.55216 0.69546 0.62455 0.0
O123 O 0.58428 0.59147 0.64547 0.0
O124 O 0.39003 0.70628 0.64141 0.0
O125 O 0.43979 0.60393 0.65766 0.0
O126 O 0.72047 0.83258 0.58309 0.0
Cd127 Cd 0.74967 0.828 0.62342 0.0
Cd128 Cd 0.80158 0.7034 0.61921 0.0
O129 O 0.80484 0.75021 0.5774 0.0
O130 O 0.78869 0.92599 0.63762 0.0
O131 O 0.8554 0.8342 0.62224 0.0
C132 C 0.85018 0.90078 0.63187 0.0
C133 C 0.86019 0.68866 0.66212 0.0
C134 C 0.75944 0.79521 0.56697 0.0
C135 C 0.6663 0.68967 0.63927 0.0
O136 O 0.70983 0.65434 0.62449 0.0
O137 O 0.67759 0.75826 0.64549 0.0
O138 O 0.87201 0.64383 0.64122 0.0
O139 O 0.82193 0.74598 0.65754 0.0
O140 O 0.54145 0.83261 0.77025 0.0
Cd141 Cd 0.51225 0.82803 0.72992 0.0
Cd142 Cd 0.46037 0.70343 0.73412 0.0
O143 O 0.45709 0.75022 0.77593 0.0
O144 O 0.47323 0.92603 0.71572 0.0
O145 O 0.40653 0.83423 0.73109 0.0
C146 C 0.41174 0.90081 0.72146 0.0
C147 C 0.40177 0.68869 0.69122 0.0
C148 C 0.50248 0.79523 0.78636 0.0
C149 C 0.59568 0.68974 0.71407 0.0
O150 O 0.55215 0.65441 0.72885 0.0
O151 O 0.58435 0.75832 0.70785 0.0
O152 O 0.38997 0.64382 0.71212 0.0
O153 O 0.44001 0.74603 0.69579 0.0
O154 O 0.72052 0.51769 0.77031 0.0
Cd155 Cd 0.74973 0.52198 0.72994 0.0
Cd156 Cd 0.80162 0.64662 0.734 0.0
O157 O 0.8049 0.60008 0.77585 0.0
O158 O 0.78875 0.42386 0.71582 0.0
O159 O 0.85545 0.51579 0.73101 0.0
C160 C 0.85023 0.44913 0.72147 0.0
C161 C 0.86026 0.66135 0.69106 0.0
C162 C 0.75949 0.55514 0.78635 0.0
C163 C 0.66633 0.66013 0.71405 0.0
O164 O 0.70982 0.69554 0.72877 0.0
O165 O 0.67765 0.59152 0.70787 0.0
O166 O 0.87197 0.70628 0.71193 0.0
O167 O 0.82214 0.60392 0.69568 0.0
O168 O 0.47047 0.58276 0.52031 0.0
Cd169 Cd 0.49968 0.57849 0.47994 0.0
Cd170 Cd 0.55152 0.45386 0.48401 0.0
O171 O 0.55486 0.50038 0.52585 0.0
O172 O 0.53869 0.67661 0.46582 0.0
O173 O 0.6054 0.58466 0.48099 0.0
C174 C 0.60018 0.65134 0.47146 0.0
C175 C 0.61016 0.43907 0.44105 0.0
C176 C 0.50944 0.54531 0.53635 0.0
C177 C 0.41621 0.44038 0.46406 0.0
O178 O 0.4597 0.40498 0.47878 0.0
O179 O 0.42758 0.50897 0.45786 0.0
O180 O 0.62184 0.39416 0.46193 0.0
O181 O 0.57207 0.49651 0.44568 0.0
O182 O 0.29139 0.26786 0.52025 0.0
Cd183 Cd 0.26219 0.27244 0.47991 0.0
Cd184 Cd 0.21028 0.39705 0.48413 0.0
O185 O 0.20703 0.35023 0.52594 0.0
O186 O 0.22317 0.17445 0.46572 0.0
O187 O 0.15647 0.26624 0.4811 0.0
C188 C 0.16169 0.19966 0.47146 0.0
C189 C 0.15167 0.41178 0.44121 0.0
C190 C 0.25243 0.30523 0.53636 0.0
C191 C 0.34556 0.41077 0.46406 0.0
O192 O 0.30204 0.4461 0.47884 0.0
O193 O 0.33427 0.34218 0.45785 0.0
O194 O 0.13985 0.45661 0.46212 0.0
O195 O 0.18993 0.35446 0.44579 0.0
O196 O 0.47042 0.26783 0.33308 0.0
Cd197 Cd 0.49961 0.27241 0.37342 0.0
Cd198 Cd 0.55149 0.39701 0.36921 0.0
O199 O 0.55477 0.35022 0.3274 0.0
O200 O 0.53864 0.17441 0.38761 0.0
O201 O 0.60534 0.26622 0.37224 0.0
C202 C 0.60012 0.19963 0.38187 0.0
C203 C 0.61009 0.41176 0.41211 0.0
C204 C 0.50939 0.30521 0.31697 0.0
C205 C 0.41618 0.4107 0.38927 0.0
O206 O 0.45972 0.44603 0.37449 0.0
O207 O 0.42752 0.34212 0.39548 0.0
O208 O 0.6219 0.45662 0.39122 0.0
O209 O 0.57186 0.35441 0.40755 0.0
O210 O 0.29134 0.58275 0.33303 0.0
Cd211 Cd 0.26213 0.57846 0.3734 0.0
Cd212 Cd 0.21025 0.45383 0.36933 0.0
O213 O 0.20696 0.50037 0.32749 0.0
O214 O 0.22312 0.67658 0.38752 0.0
O215 O 0.15642 0.58465 0.37233 0.0
C216 C 0.16164 0.65132 0.38187 0.0
C217 C 0.1516 0.43909 0.41228 0.0
C218 C 0.25238 0.5453 0.31698 0.0
C219 C 0.34553 0.44031 0.38929 0.0
O220 O 0.30205 0.4049 0.37456 0.0
O221 O 0.33422 0.50892 0.39547 0.0
O222 O 0.1399 0.39416 0.39141 0.0
O223 O 0.18973 0.49652 0.40765 0.0
O224 O 0.04139 1.01768 0.58303 0.0
Cd225 Cd 0.01218 1.02196 0.6234 0.0
Cd226 Cd 0.96034 0.14658 0.61933 0.0
O227 O 0.95701 0.10006 0.57749 0.0
O228 O 0.97318 0.92383 0.63752 0.0
O229 O 0.90647 1.01577 0.62234 0.0
C230 C 0.9117 0.9491 0.63187 0.0
C231 C 0.9017 0.16137 0.66229 0.0
C232 C 1.00242 0.05513 0.56698 0.0
C233 C 0.09565 0.16007 0.63928 0.0
O234 O 0.05216 0.19547 0.62455 0.0
O235 O 0.08428 0.09147 0.64547 0.0
O236 O 0.89002 0.20628 0.64141 0.0
O237 O 0.93979 0.10392 0.65766 0.0
O238 O 0.22046 0.33259 0.58309 0.0
Cd239 Cd 0.24967 0.328 0.62342 0.0
Cd240 Cd 0.30157 0.2034 0.61921 0.0
O241 O 0.30483 0.25021 0.5774 0.0
O242 O 0.28868 0.426 0.63762 0.0
O243 O 0.35539 0.33421 0.62224 0.0
C244 C 0.35016 0.40079 0.63187 0.0
C245 C 0.36019 0.18867 0.66212 0.0
C246 C 0.25943 0.29522 0.56697 0.0
C247 C 0.1663 0.18967 0.63927 0.0
O248 O 0.20982 0.15434 0.62449 0.0
O249 O 0.17759 0.25826 0.64549 0.0
O250 O 0.372 0.14384 0.64122 0.0
O251 O 0.32193 0.24599 0.65754 0.0
O252 O 0.04144 0.3326 0.77025 0.0
Cd253 Cd 0.01225 0.32803 0.72992 0.0
Cd254 Cd 0.96037 0.20343 0.73412 0.0
O255 O 0.95708 0.25021 0.77594 0.0
O256 O 0.97323 0.42603 0.71572 0.0
O257 O 0.90652 0.33422 0.73109 0.0
C258 C 0.91175 0.40081 0.72147 0.0
C259 C 0.90177 0.18868 0.69123 0.0
C260 C 1.00247 0.29522 0.78636 0.0
C261 C 0.09567 0.18974 0.71407 0.0
O262 O 0.05214 0.1544 0.72885 0.0
O263 O 0.08434 0.25831 0.70785 0.0
O264 O 0.88996 0.14381 0.71212 0.0
O265 O 0.94 0.24603 0.69579 0.0
O266 O 0.22052 1.01768 0.77031 0.0
Cd267 Cd 0.24973 1.02197 0.72994 0.0
Cd268 Cd 0.30161 0.14661 0.73401 0.0
O269 O 0.30489 0.10007 0.77585 0.0
O270 O 0.28874 0.92386 0.71581 0.0
O271 O 0.35544 1.01579 0.73101 0.0
C272 C 0.35022 0.94912 0.72147 0.0
C273 C 0.36025 0.16135 0.69106 0.0
C274 C 0.25948 0.05514 0.78635 0.0
C275 C 0.16632 0.16013 0.71405 0.0
O276 O 0.20981 0.19554 0.72877 0.0
O277 O 0.17764 0.09152 0.70787 0.0
O278 O 0.37196 0.20628 0.71193 0.0
O279 O 0.32213 0.10392 0.69568 0.0
O280 O 0.97047 0.08276 0.52031 0.0
Cd281 Cd 0.99968 0.07849 0.47994 0.0
Cd282 Cd 0.05153 0.95386 0.48401 0.0
O283 O 0.05486 1.00038 0.52585 0.0
O284 O 0.03868 0.17661 0.46582 0.0
O285 O 0.10539 0.08467 0.48099 0.0
C286 C 0.10016 0.15135 0.47146 0.0
C287 C 0.11016 0.93907 0.44105 0.0
C288 C 0.00944 1.04531 0.53635 0.0
C289 C 0.91621 0.94038 0.46406 0.0
O290 O 0.95971 0.90497 0.47878 0.0
O291 O 0.92758 1.00897 0.45786 0.0
O292 O 0.12184 0.89417 0.46193 0.0
O293 O 0.07207 0.99652 0.44568 0.0
O294 O 0.7914 0.76785 0.52025 0.0
Cd295 Cd 0.7622 0.77244 0.47991 0.0
Cd296 Cd 0.71029 0.89704 0.48413 0.0
O297 O 0.70703 0.85023 0.52594 0.0
O298 O 0.72318 0.67444 0.46571 0.0
O299 O 0.65647 0.76623 0.48109 0.0
C300 C 0.6617 0.69965 0.47146 0.0
C301 C 0.65168 0.91177 0.44121 0.0
C302 C 0.75243 0.80522 0.53636 0.0
C303 C 0.84556 0.91077 0.46406 0.0
O304 O 0.80204 0.9461 0.47884 0.0
O305 O 0.83428 0.84218 0.45785 0.0
O306 O 0.63986 0.9566 0.46212 0.0
O307 O 0.68993 0.85445 0.44579 0.0
O308 O 0.97042 0.76785 0.33308 0.0
Cd309 Cd 0.99962 0.77242 0.37342 0.0
Cd310 Cd 0.0515 0.89702 0.36921 0.0
O311 O 0.05478 0.85023 0.3274 0.0
O312 O 0.03863 0.67441 0.38761 0.0
O313 O 0.10534 0.76622 0.37224 0.0
C314 C 0.10011 0.69963 0.38187 0.0
C315 C 0.1101 0.91176 0.41211 0.0
C316 C 0.00939 0.80522 0.31697 0.0
C317 C 0.91619 0.91071 0.38926 0.0
O318 O 0.95973 0.94604 0.37449 0.0
O319 O 0.92752 0.84213 0.39548 0.0
O320 O 0.1219 0.95663 0.39122 0.0
O321 O 0.07187 0.85441 0.40755 0.0
O322 O 0.79135 0.08276 0.33303 0.0
Cd323 Cd 0.76214 0.07847 0.3734 0.0
Cd324 Cd 0.71025 0.95383 0.36933 0.0
O325 O 0.70697 1.00037 0.32749 0.0
O326 O 0.72313 0.17658 0.38752 0.0
O327 O 0.65642 0.08465 0.37233 0.0
C328 C 0.66164 0.15132 0.38187 0.0
C329 C 0.65161 0.93909 0.41227 0.0
C330 C 0.75238 1.04531 0.31698 0.0
C331 C 0.84554 0.94032 0.38929 0.0
O332 O 0.80205 0.90491 0.37456 0.0
O333 O 0.83422 1.00893 0.39547 0.0
O334 O 0.63991 0.89416 0.3914 0.0
O335 O 0.68973 0.99652 0.40765 0.0
O336 O 0.04137 0.51769 0.08303 0.0
Cd337 Cd 0.01215 0.52198 0.1234 0.0
Cd338 Cd 0.9603 0.6466 0.11932 0.0
O339 O 0.957 0.60007 0.07748 0.0
O340 O 0.97314 0.42386 0.13752 0.0
O341 O 0.90643 0.5158 0.12233 0.0
C342 C 0.91166 0.44913 0.13187 0.0
C343 C 0.90166 0.66139 0.16228 0.0
C344 C 1.00241 0.55513 0.06698 0.0
C345 C 0.09561 0.6601 0.13928 0.0
O346 O 0.05212 0.6955 0.12455 0.0
O347 O 0.08424 0.5915 0.14547 0.0
O348 O 0.88998 0.70629 0.1414 0.0
O349 O 0.93976 0.60395 0.15765 0.0
O350 O 0.22046 0.83258 0.08308 0.0
Cd351 Cd 0.24964 0.82801 0.12342 0.0
Cd352 Cd 0.30155 0.70341 0.11921 0.0
O353 O 0.30483 0.75021 0.0774 0.0
O354 O 0.28865 0.92602 0.13761 0.0
O355 O 0.35537 0.83422 0.12225 0.0
C356 C 0.35013 0.90081 0.13187 0.0
C357 C 0.36015 0.68866 0.16213 0.0
C358 C 0.25943 0.79521 0.06697 0.0
C359 C 0.16626 0.6897 0.13927 0.0
O360 O 0.20978 0.65437 0.12449 0.0
O361 O 0.17755 0.75829 0.14549 0.0
O362 O 0.37196 0.64383 0.14123 0.0
O363 O 0.3219 0.74599 0.15755 0.0
O364 O 0.04137 0.8326 0.27025 0.0
Cd365 Cd 0.01218 0.82803 0.22991 0.0
Cd366 Cd 0.9603 0.70343 0.23412 0.0
O367 O 0.95701 0.75022 0.27593 0.0
O368 O 0.97316 0.92603 0.21572 0.0
O369 O 0.90645 0.83423 0.23109 0.0
C370 C 0.91168 0.90082 0.22147 0.0
C371 C 0.90171 0.6887 0.19122 0.0
C372 C 1.0024 0.79523 0.28636 0.0
C373 C 0.0956 0.68974 0.21407 0.0
O374 O 0.05207 0.65441 0.22884 0.0
O375 O 0.08428 0.75832 0.20785 0.0
O376 O 0.88989 0.64383 0.21211 0.0
O377 O 0.93994 0.74604 0.19578 0.0
O378 O 0.22044 0.51768 0.27031 0.0
Cd379 Cd 0.24965 0.52197 0.22994 0.0
Cd380 Cd 0.30154 0.6466 0.23401 0.0
O381 O 0.30482 0.60006 0.27585 0.0
O382 O 0.28866 0.42385 0.21582 0.0
O383 O 0.35537 0.51578 0.23101 0.0
C384 C 0.35014 0.44911 0.22147 0.0
C385 C 0.36019 0.66135 0.19107 0.0
C386 C 0.2594 0.55513 0.28636 0.0
C387 C 0.16625 0.66012 0.21405 0.0
O388 O 0.20974 0.69553 0.22877 0.0
O389 O 0.17757 0.59152 0.20787 0.0
O390 O 0.3719 0.70627 0.21194 0.0
O391 O 0.32207 0.60392 0.19568 0.0
O392 O 0.97049 0.58276 1.02031 0.0
Cd393 Cd 0.99971 0.57846 0.97993 0.0
Cd394 Cd 0.05156 0.45384 0.98401 0.0
O395 O 0.05487 0.50037 1.02585 0.0
O396 O 0.03872 0.67658 0.96581 0.0
O397 O 0.10543 0.58464 0.981 0.0
C398 C 0.1002 0.65132 0.97146 0.0
C399 C 0.11021 0.43906 0.94106 0.0
C400 C 0.00945 0.54531 1.03636 0.0
C401 C 0.91625 0.44034 0.96406 0.0
O402 O 0.95974 0.40495 0.97878 0.0
O403 O 0.92762 0.50894 0.95786 0.0
O404 O 0.12189 0.39415 0.96194 0.0
O405 O 0.07211 0.4965 0.94568 0.0
O406 O 0.79141 0.26786 1.02025 0.0
Cd407 Cd 0.76222 0.27243 0.97991 0.0
Cd408 Cd 0.71032 0.39703 0.98412 0.0
O409 O 0.70704 0.35023 1.02593 0.0
O410 O 0.72321 0.17442 0.96572 0.0
O411 O 0.6565 0.26622 0.98109 0.0
C412 C 0.66173 0.19963 0.97147 0.0
C413 C 0.65172 0.41178 0.94121 0.0
C414 C 0.75243 0.30523 1.03636 0.0
C415 C 0.8456 0.41074 0.96406 0.0
O416 O 0.80208 0.44607 0.97884 0.0
O417 O 0.83431 0.34215 0.95785 0.0
O418 O 0.63991 0.45661 0.96211 0.0
O419 O 0.68996 0.35445 0.94579 0.0
O420 O 0.97049 0.26784 0.83308 0.0
Cd421 Cd 0.99969 0.27241 0.87342 0.0
Cd422 Cd 0.05157 0.39701 0.86922 0.0
O423 O 0.05485 0.35022 0.8274 0.0
O424 O 0.0387 0.17441 0.88761 0.0
O425 O 0.10541 0.26622 0.87224 0.0
C426 C 0.10018 0.19962 0.88187 0.0
C427 C 0.11016 0.41175 0.91212 0.0
C428 C 0.00946 0.30522 0.81697 0.0
C429 C 0.91626 0.4107 0.88927 0.0
O430 O 0.9598 0.44604 0.87449 0.0
O431 O 0.92759 0.34212 0.89548 0.0
O432 O 0.12197 0.45661 0.89122 0.0
O433 O 0.07192 0.3544 0.90755 0.0
O434 O 0.79143 0.58276 0.83302 0.0
Cd435 Cd 0.76221 0.57847 0.8734 0.0
Cd436 Cd 0.71032 0.45384 0.86933 0.0
O437 O 0.70705 0.50038 0.82748 0.0
O438 O 0.72321 0.67659 0.88752 0.0
O439 O 0.6565 0.58466 0.87233 0.0
C440 C 0.66172 0.65133 0.88187 0.0
C441 C 0.65167 0.43909 0.91227 0.0
C442 C 0.75246 0.54531 0.81698 0.0
C443 C 0.84561 0.44032 0.88929 0.0
O444 O 0.80212 0.40491 0.87456 0.0
O445 O 0.83429 0.50893 0.89547 0.0
O446 O 0.63997 0.39417 0.8914 0.0
O447 O 0.68979 0.49652 0.90765 0.0
loop_
_geom_bond_atom_site_label_1
_geom_bond_atom_site_label_2
_geom_bond_distance
_geom_bond_site_symmetry_2
_ccdc_geom_bond_type
O0 Cd1 2.223 1_545 S
O0 C8 1.315 . S
Cd1 O0 2.223 1_565 S
Cd1 O4 2.297 . S
Cd1 O5 2.439 . S
Cd1 O11 2.240 1_565 S
Cd2 O3 2.240 . S
Cd2 O10 2.223 . S
Cd2 O12 2.297 . S
Cd2 O13 2.439 . S
O3 Cd2 2.240 . S
O3 C8 1.279 . S
O4 Cd1 2.297 . S
O4 C6 1.247 . S
O5 Cd1 2.439 . S
O5 C6 1.208 . S
C6 O4 1.247 . S
C6 O5 1.208 . S
C7 O12 1.247 . S
C7 O13 1.208 . S
C8 O0 1.315 . S
C8 O3 1.279 . S
C9 O10 1.315 . S
C9 O11 1.279 . S
O10 Cd2 2.223 . S
O10 C9 1.315 . S
O11 Cd1 2.240 1_545 S
O11 C9 1.279 . S
O12 Cd2 2.297 . S
O12 C7 1.247 . S
O13 Cd2 2.439 . S
O13 C7 1.208 . S
O14 Cd15 2.223 . S
O14 C22 1.315 . S
Cd15 O14 2.223 . S
Cd15 O18 2.297 . S
Cd15 O19 2.439 . S
Cd15 O25 2.240 . S
Cd16 O17 2.240 . S
Cd16 O24 2.223 . S
Cd16 O26 2.297 . S
Cd16 O27 2.439 . S
O17 Cd16 2.240 . S
O17 C22 1.279 . S
O18 Cd15 2.297 . S
O18 C20 1.247 . S
O19 Cd15 2.439 . S
O19 C20 1.208 . S
C20 O18 1.247 . S
C20 O19 1.208 . S
C21 O26 1.247 . S
C21 O27 1.208 . S
C22 O14 1.315 . S
C22 O17 1.279 . S
C23 O24 1.315 . S
C23 O25 1.279 . S
O24 Cd16 2.223 . S
O24 C23 1.315 . S
O25 Cd15 2.240 . S
O25 C23 1.279 . S
O26 Cd16 2.297 . S
O26 C21 1.247 . S
O27 Cd16 2.439 . S
O27 C21 1.208 . S
O28 Cd29 2.223 . S
O28 C36 1.315 . S
Cd29 O28 2.223 . S
Cd29 O32 2.297 . S
Cd29 O33 2.439 . S
Cd29 O39 2.240 . S
Cd30 O31 2.240 . S
Cd30 O38 2.223 . S
Cd30 O40 2.297 . S
Cd30 O41 2.439 . S
O31 Cd30 2.240 . S
O31 C36 1.279 . S
O32 Cd29 2.297 . S
O32 C34 1.247 . S
O33 Cd29 2.439 . S
O33 C34 1.208 . S
C34 O32 1.247 . S
C34 O33 1.208 . S
C35 O40 1.247 . S
C35 O41 1.208 . S
C36 O28 1.315 . S
C36 O31 1.279 . S
C37 O38 1.315 . S
C37 O39 1.279 . S
O38 Cd30 2.223 . S
O38 C37 1.315 . S
O39 Cd29 2.240 . S
O39 C37 1.279 . S
O40 Cd30 2.297 . S
O40 C35 1.247 . S
O41 Cd30 2.439 . S
O41 C35 1.208 . S
O42 Cd43 2.223 1_545 S
O42 C50 1.315 . S
Cd43 O42 2.223 1_565 S
Cd43 O46 2.297 . S
Cd43 O47 2.439 . S
Cd43 O53 2.240 1_565 S
Cd44 O45 2.240 . S
Cd44 O52 2.223 . S
Cd44 O54 2.297 . S
Cd44 O55 2.439 . S
O45 Cd44 2.240 . S
O45 C50 1.279 . S
O46 Cd43 2.297 . S
O46 C48 1.247 . S
O47 Cd43 2.439 . S
O47 C48 1.208 . S
C48 O46 1.247 . S
C48 O47 1.208 . S
C49 O54 1.247 . S
C49 O55 1.208 . S
C50 O42 1.315 . S
C50 O45 1.279 . S
C51 O52 1.315 . S
C51 O53 1.279 . S
O52 Cd44 2.223 . S
O52 C51 1.315 . S
O53 Cd43 2.240 1_545 S
O53 C51 1.279 . S
O54 Cd44 2.297 . S
O54 C49 1.247 . S
O55 Cd44 2.439 . S
O55 C49 1.208 . S
O56 Cd57 2.223 1_565 S
O56 C64 1.315 . S
Cd57 O56 2.223 1_545 S
Cd57 O60 2.297 . S
Cd57 O61 2.439 . S
Cd57 O67 2.240 1_545 S
Cd58 O59 2.240 . S
Cd58 O66 2.223 . S
Cd58 O68 2.297 . S
Cd58 O69 2.439 . S
O59 Cd58 2.240 . S
O59 C64 1.279 . S
O60 Cd57 2.297 . S
O60 C62 1.247 . S
O61 Cd57 2.439 . S
O61 C62 1.208 . S
C62 O60 1.247 . S
C62 O61 1.208 . S
C63 O68 1.247 . S
C63 O69 1.208 . S
C64 O56 1.315 . S
C64 O59 1.279 . S
C65 O66 1.315 . S
C65 O67 1.279 . S
O66 Cd58 2.223 . S
O66 C65 1.315 . S
O67 Cd57 2.240 1_565 S
O67 C65 1.279 . S
O68 Cd58 2.297 . S
O68 C63 1.247 . S
O69 Cd58 2.439 . S
O69 C63 1.208 . S
O70 Cd71 2.223 . S
O70 C78 1.315 . S
Cd71 O70 2.223 . S
Cd71 O74 2.297 . S
Cd71 O75 2.439 . S
Cd71 O81 2.240 . S
Cd72 O73 2.240 . S
Cd72 O80 2.223 . S
Cd72 O82 2.297 . S
Cd72 O83 2.439 . S
O73 Cd72 2.240 . S
O73 C78 1.279 . S
O74 Cd71 2.297 . S
O74 C76 1.247 . S
O75 Cd71 2.439 . S
O75 C76 1.208 . S
C76 O74 1.247 . S
C76 O75 1.208 . S
C77 O82 1.247 . S
C77 O83 1.208 . S
C78 O70 1.315 . S
C78 O73 1.279 . S
C79 O80 1.315 . S
C79 O81 1.279 . S
O80 Cd72 2.223 . S
O80 C79 1.315 . S
O81 Cd71 2.240 . S
O81 C79 1.279 . S
O82 Cd72 2.297 . S
O82 C77 1.247 . S
O83 Cd72 2.439 . S
O83 C77 1.208 . S
O84 Cd85 2.223 . S
O84 C92 1.315 . S
Cd85 O84 2.223 . S
Cd85 O88 2.297 . S
Cd85 O89 2.439 . S
Cd85 O95 2.240 . S
Cd86 O87 2.240 . S
Cd86 O94 2.223 . S
Cd86 O96 2.297 . S
Cd86 O97 2.439 . S
O87 Cd86 2.240 . S
O87 C92 1.279 . S
O88 Cd85 2.297 . S
O88 C90 1.247 . S
O89 Cd85 2.439 . S
O89 C90 1.208 . S
C90 O88 1.247 . S
C90 O89 1.208 . S
C91 O96 1.247 . S
C91 O97 1.208 . S
C92 O84 1.315 . S
C92 O87 1.279 . S
C93 O94 1.315 . S
C93 O95 1.279 . S
O94 Cd86 2.223 . S
O94 C93 1.315 . S
O95 Cd85 2.240 . S
O95 C93 1.279 . S
O96 Cd86 2.297 . S
O96 C91 1.247 . S
O97 Cd86 2.439 . S
O97 C91 1.208 . S
O98 Cd99 2.223 1_565 S
O98 C106 1.315 . S
Cd99 O98 2.223 1_545 S
Cd99 O102 2.297 . S
Cd99 O103 2.439 . S
Cd99 O109 2.240 1_545 S
Cd100 O101 2.240 . S
Cd100 O108 2.223 . S
Cd100 O110 2.297 . S
Cd100 O111 2.439 . S
O101 Cd100 2.240 . S
O101 C106 1.279 . S
O102 Cd99 2.297 . S
O102 C104 1.247 . S
O103 Cd99 2.439 . S
O103 C104 1.208 . S
C104 O102 1.247 . S
C104 O103 1.208 . S
C105 O110 1.247 . S
C105 O111 1.208 . S
C106 O98 1.315 . S
C106 O101 1.279 . S
C107 O108 1.315 . S
C107 O109 1.279 . S
O108 Cd100 2.223 . S
O108 C107 1.315 . S
O109 Cd99 2.240 1_565 S
O109 C107 1.279 . S
O110 Cd100 2.297 . S
O110 C105 1.247 . S
O111 Cd100 2.439 . S
O111 C105 1.208 . S
O112 Cd113 2.223 . S
O112 C120 1.315 . S
Cd113 O112 2.223 . S
Cd113 O116 2.297 . S
Cd113 O117 2.439 . S
Cd113 O123 2.240 . S
Cd114 O115 2.240 . S
Cd114 O122 2.223 . S
Cd114 O124 2.297 . S
Cd114 O125 2.439 . S
O115 Cd114 2.240 . S
O115 C120 1.279 . S
O116 Cd113 2.297 . S
O116 C118 1.247 . S
O117 Cd113 2.439 . S
O117 C118 1.208 . S
C118 O116 1.247 . S
C118 O117 1.208 . S
C119 O124 1.247 . S
C119 O125 1.208 . S
C120 O112 1.315 . S
C120 O115 1.279 . S
C121 O122 1.315 . S
C121 O123 1.279 . S
O122 Cd114 2.223 . S
O122 C121 1.315 . S
O123 Cd113 2.240 . S
O123 C121 1.279 . S
O124 Cd114 2.297 . S
O124 C119 1.247 . S
O125 Cd114 2.439 . S
O125 C119 1.208 . S
O126 Cd127 2.223 . S
O126 C134 1.315 . S
Cd127 O126 2.223 . S
Cd127 O130 2.297 . S
Cd127 O131 2.439 . S
Cd127 O137 2.240 . S
Cd128 O129 2.240 . S
Cd128 O136 2.223 . S
Cd128 O138 2.297 . S
Cd128 O139 2.439 . S
O129 Cd128 2.240 . S
O129 C134 1.279 . S
O130 Cd127 2.297 . S
O130 C132 1.247 . S
O131 Cd127 2.439 . S
O131 C132 1.208 . S
C132 O130 1.247 . S
C132 O131 1.208 . S
C133 O138 1.247 . S
C133 O139 1.208 . S
C134 O126 1.315 . S
C134 O129 1.279 . S
C135 O136 1.315 . S
C135 O137 1.279 . S
O136 Cd128 2.223 . S
O136 C135 1.315 . S
O137 Cd127 2.240 . S
O137 C135 1.279 . S
O138 Cd128 2.297 . S
O138 C133 1.247 . S
O139 Cd128 2.439 . S
O139 C133 1.208 . S
O140 Cd141 2.223 . S
O140 C148 1.315 . S
Cd141 O140 2.223 . S
Cd141 O144 2.297 . S
Cd141 O145 2.439 . S
Cd141 O151 2.240 . S
Cd142 O143 2.240 . S
Cd142 O150 2.223 . S
Cd142 O152 2.297 . S
Cd142 O153 2.439 . S
O143 Cd142 2.240 . S
O143 C148 1.279 . S
O144 Cd141 2.297 . S
O144 C146 1.247 . S
O145 Cd141 2.439 . S
O145 C146 1.208 . S
C146 O144 1.247 . S
C146 O145 1.208 . S
C147 O152 1.247 . S
C147 O153 1.208 . S
C148 O140 1.315 . S
C148 O143 1.279 . S
C149 O150 1.315 . S
C149 O151 1.279 . S
O150 Cd142 2.223 . S
O150 C149 1.315 . S
O151 Cd141 2.240 . S
O151 C149 1.279 . S
O152 Cd142 2.297 . S
O152 C147 1.247 . S
O153 Cd142 2.439 . S
O153 C147 1.208 . S
O154 Cd155 2.223 . S
O154 C162 1.315 . S
Cd155 O154 2.223 . S
Cd155 O158 2.297 . S
Cd155 O159 2.439 . S
Cd155 O165 2.240 . S
Cd156 O157 2.240 . S
Cd156 O164 2.223 . S
Cd156 O166 2.297 . S
Cd156 O167 2.439 . S
O157 Cd156 2.240 . S
O157 C162 1.279 . S
O158 Cd155 2.297 . S
O158 C160 1.247 . S
O159 Cd155 2.439 . S
O159 C160 1.208 . S
C160 O158 1.247 . S
C160 O159 1.208 . S
C161 O166 1.247 . S
C161 O167 1.208 . S
C162 O154 1.315 . S
C162 O157 1.279 . S
C163 O164 1.315 . S
C163 O165 1.279 . S
O164 Cd156 2.223 . S
O164 C163 1.315 . S
O165 Cd155 2.240 . S
O165 C163 1.279 . S
O166 Cd156 2.297 . S
O166 C161 1.247 . S
O167 Cd156 2.439 . S
O167 C161 1.208 . S
O168 Cd169 2.223 . S
O168 C176 1.315 . S
Cd169 O168 2.223 . S
Cd169 O172 2.297 . S
Cd169 O173 2.439 . S
Cd169 O179 2.240 . S
Cd170 O171 2.240 . S
Cd170 O178 2.223 . S
Cd170 O180 2.297 . S
Cd170 O181 2.439 . S
O171 Cd170 2.240 . S
O171 C176 1.279 . S
O172 Cd169 2.297 . S
O172 C174 1.247 . S
O173 Cd169 2.439 . S
O173 C174 1.208 . S
C174 O172 1.247 . S
C174 O173 1.208 . S
C175 O180 1.247 . S
C175 O181 1.208 . S
C176 O168 1.315 . S
C176 O171 1.279 . S
C177 O178 1.315 . S
C177 O179 1.279 . S
O178 Cd170 2.223 . S
O178 C177 1.315 . S
O179 Cd169 2.240 . S
O179 C177 1.279 . S
O180 Cd170 2.297 . S
O180 C175 1.247 . S
O181 Cd170 2.439 . S
O181 C175 1.208 . S
O182 Cd183 2.223 . S
O182 C190 1.315 . S
Cd183 O182 2.223 . S
Cd183 O186 2.297 . S
Cd183 O187 2.439 . S
Cd183 O193 2.240 . S
Cd184 O185 2.240 . S
Cd184 O192 2.223 . S
Cd184 O194 2.297 . S
Cd184 O195 2.439 . S
O185 Cd184 2.240 . S
O185 C190 1.279 . S
O186 Cd183 2.297 . S
O186 C188 1.247 . S
O187 Cd183 2.439 . S
O187 C188 1.208 . S
C188 O186 1.247 . S
C188 O187 1.208 . S
C189 O194 1.247 . S
C189 O195 1.208 . S
C190 O182 1.315 . S
C190 O185 1.279 . S
C191 O192 1.315 . S
C191 O193 1.279 . S
O192 Cd184 2.223 . S
O192 C191 1.315 . S
O193 Cd183 2.240 . S
O193 C191 1.279 . S
O194 Cd184 2.297 . S
O194 C189 1.247 . S
O195 Cd184 2.439 . S
O195 C189 1.208 . S
O196 Cd197 2.223 . S
O196 C204 1.315 . S
Cd197 O196 2.223 . S
Cd197 O200 2.297 . S
Cd197 O201 2.439 . S
Cd197 O207 2.240 . S
Cd198 O199 2.240 . S
Cd198 O206 2.223 . S
Cd198 O208 2.297 . S
Cd198 O209 2.439 . S
O199 Cd198 2.240 . S
O199 C204 1.279 . S
O200 Cd197 2.297 . S
O200 C202 1.247 . S
O201 Cd197 2.439 . S
O201 C202 1.208 . S
C202 O200 1.247 . S
C202 O201 1.208 . S
C203 O208 1.247 . S
C203 O209 1.208 . S
C204 O196 1.315 . S
C204 O199 1.279 . S
C205 O206 1.315 . S
C205 O207 1.279 . S
O206 Cd198 2.223 . S
O206 C205 1.315 . S
O207 Cd197 2.240 . S
O207 C205 1.279 . S
O208 Cd198 2.297 . S
O208 C203 1.247 . S
O209 Cd198 2.439 . S
O209 C203 1.208 . S
O210 Cd211 2.223 . S
O210 C218 1.315 . S
Cd211 O210 2.223 . S
Cd211 O214 2.297 . S
Cd211 O215 2.439 . S
Cd211 O221 2.240 . S
Cd212 O213 2.240 . S
Cd212 O220 2.223 . S
Cd212 O222 2.297 . S
Cd212 O223 2.439 . S
O213 Cd212 2.240 . S
O213 C218 1.279 . S
O214 Cd211 2.297 . S
O214 C216 1.247 . S
O215 Cd211 2.439 . S
O215 C216 1.208 . S
C216 O214 1.247 . S
C216 O215 1.208 . S
C217 O222 1.247 . S
C217 O223 1.208 . S
C218 O210 1.315 . S
C218 O213 1.279 . S
C219 O220 1.315 . S
C219 O221 1.279 . S
O220 Cd212 2.223 . S
O220 C219 1.315 . S
O221 Cd211 2.240 . S
O221 C219 1.279 . S
O222 Cd212 2.297 . S
O222 C217 1.247 . S
O223 Cd212 2.439 . S
O223 C217 1.208 . S
O224 Cd225 2.223 1_545 S
O224 C232 1.315 1_455 S
Cd225 O224 2.223 1_565 S
Cd225 O228 2.297 1_455 S
Cd225 O229 2.439 1_455 S
Cd225 O235 2.240 1_565 S
Cd226 O227 2.240 . S
Cd226 O234 2.223 1_655 S
Cd226 O236 2.297 . S
Cd226 O237 2.439 . S
O227 Cd226 2.240 . S
O227 C232 1.279 . S
O228 Cd225 2.297 1_655 S
O228 C230 1.247 . S
O229 Cd225 2.439 1_655 S
O229 C230 1.208 . S
C230 O228 1.247 . S
C230 O229 1.208 . S
C231 O236 1.247 . S
C231 O237 1.208 . S
C232 O224 1.315 1_655 S
C232 O227 1.279 . S
C233 O234 1.315 . S
C233 O235 1.279 . S
O234 Cd226 2.223 1_455 S
O234 C233 1.315 . S
O235 Cd225 2.240 1_545 S
O235 C233 1.279 . S
O236 Cd226 2.297 . S
O236 C231 1.247 . S
O237 Cd226 2.439 . S
O237 C231 1.208 . S
O238 Cd239 2.223 . S
O238 C246 1.315 . S
Cd239 O238 2.223 . S
Cd239 O242 2.297 . S
Cd239 O243 2.439 . S
Cd239 O249 2.240 . S
Cd240 O241 2.240 . S
Cd240 O248 2.223 . S
Cd240 O250 2.297 . S
Cd240 O251 2.439 . S
O241 Cd240 2.240 . S
O241 C246 1.279 . S
O242 Cd239 2.297 . S
O242 C244 1.247 . S
O243 Cd239 2.439 . S
O243 C244 1.208 . S
C244 O242 1.247 . S
C244 O243 1.208 . S
C245 O250 1.247 . S
C245 O251 1.208 . S
C246 O238 1.315 . S
C246 O241 1.279 . S
C247 O248 1.315 . S
C247 O249 1.279 . S
O248 Cd240 2.223 . S
O248 C247 1.315 . S
O249 Cd239 2.240 . S
O249 C247 1.279 . S
O250 Cd240 2.297 . S
O250 C245 1.247 . S
O251 Cd240 2.439 . S
O251 C245 1.208 . S
O252 Cd253 2.223 . S
O252 C260 1.315 1_455 S
Cd253 O252 2.223 . S
Cd253 O256 2.297 1_455 S
Cd253 O257 2.439 1_455 S
Cd253 O263 2.240 . S
Cd254 O255 2.240 . S
Cd254 O262 2.223 1_655 S
Cd254 O264 2.297 . S
Cd254 O265 2.439 . S
O255 Cd254 2.240 . S
O255 C260 1.279 . S
O256 Cd253 2.297 1_655 S
O256 C258 1.247 . S
O257 Cd253 2.439 1_655 S
O257 C258 1.208 . S
C258 O256 1.247 . S
C258 O257 1.208 . S
C259 O264 1.247 . S
C259 O265 1.208 . S
C260 O252 1.315 1_655 S
C260 O255 1.279 . S
C261 O262 1.315 . S
C261 O263 1.279 . S
O262 Cd254 2.223 1_455 S
O262 C261 1.315 . S
O263 Cd253 2.240 . S
O263 C261 1.279 . S
O264 Cd254 2.297 . S
O264 C259 1.247 . S
O265 Cd254 2.439 . S
O265 C259 1.208 . S
O266 Cd267 2.223 1_545 S
O266 C274 1.315 . S
Cd267 O266 2.223 1_565 S
Cd267 O270 2.297 . S
Cd267 O271 2.439 . S
Cd267 O277 2.240 1_565 S
Cd268 O269 2.240 . S
Cd268 O276 2.223 . S
Cd268 O278 2.297 . S
Cd268 O279 2.439 . S
O269 Cd268 2.240 . S
O269 C274 1.279 . S
O270 Cd267 2.297 . S
O270 C272 1.247 . S
O271 Cd267 2.439 . S
O271 C272 1.208 . S
C272 O270 1.247 . S
C272 O271 1.208 . S
C273 O278 1.247 . S
C273 O279 1.208 . S
C274 O266 1.315 . S
C274 O269 1.279 . S
C275 O276 1.315 . S
C275 O277 1.279 . S
O276 Cd268 2.223 . S
O276 C275 1.315 . S
O277 Cd267 2.240 1_545 S
O277 C275 1.279 . S
O278 Cd268 2.297 . S
O278 C273 1.247 . S
O279 Cd268 2.439 . S
O279 C273 1.208 . S
O280 Cd281 2.223 1_565 S
O280 C288 1.315 1_655 S
Cd281 O280 2.223 1_545 S
Cd281 O284 2.297 1_655 S
Cd281 O285 2.439 1_655 S
Cd281 O291 2.240 1_545 S
Cd282 O283 2.240 . S
Cd282 O290 2.223 1_455 S
Cd282 O292 2.297 . S
Cd282 O293 2.439 . S
O283 Cd282 2.240 . S
O283 C288 1.279 . S
O284 Cd281 2.297 1_455 S
O284 C286 1.247 . S
O285 Cd281 2.439 1_455 S
O285 C286 1.208 . S
C286 O284 1.247 . S
C286 O285 1.208 . S
C287 O292 1.247 . S
C287 O293 1.208 . S
C288 O280 1.315 1_455 S
C288 O283 1.279 . S
C289 O290 1.315 . S
C289 O291 1.279 . S
O290 Cd282 2.223 1_655 S
O290 C289 1.315 . S
O291 Cd281 2.240 1_565 S
O291 C289 1.279 . S
O292 Cd282 2.297 . S
O292 C287 1.247 . S
O293 Cd282 2.439 . S
O293 C287 1.208 . S
O294 Cd295 2.223 . S
O294 C302 1.315 . S
Cd295 O294 2.223 . S
Cd295 O298 2.297 . S
Cd295 O299 2.439 . S
Cd295 O305 2.240 . S
Cd296 O297 2.240 . S
Cd296 O304 2.223 . S
Cd296 O306 2.297 . S
Cd296 O307 2.439 . S
O297 Cd296 2.240 . S
O297 C302 1.279 . S
O298 Cd295 2.297 . S
O298 C300 1.247 . S
O299 Cd295 2.439 . S
O299 C300 1.208 . S
C300 O298 1.247 . S
C300 O299 1.208 . S
C301 O306 1.247 . S
C301 O307 1.208 . S
C302 O294 1.315 . S
C302 O297 1.279 . S
C303 O304 1.315 . S
C303 O305 1.279 . S
O304 Cd296 2.223 . S
O304 C303 1.315 . S
O305 Cd295 2.240 . S
O305 C303 1.279 . S
O306 Cd296 2.297 . S
O306 C301 1.247 . S
O307 Cd296 2.439 . S
O307 C301 1.208 . S
O308 Cd309 2.223 . S
O308 C316 1.315 1_655 S
Cd309 O308 2.223 . S
Cd309 O312 2.297 1_655 S
Cd309 O313 2.439 1_655 S
Cd309 O319 2.240 . S
Cd310 O311 2.240 . S
Cd310 O318 2.223 1_455 S
Cd310 O320 2.297 . S
Cd310 O321 2.439 . S
O311 Cd310 2.240 . S
O311 C316 1.279 . S
O312 Cd309 2.297 1_455 S
O312 C314 1.247 . S
O313 Cd309 2.439 1_455 S
O313 C314 1.208 . S
C314 O312 1.247 . S
C314 O313 1.208 . S
C315 O320 1.247 . S
C315 O321 1.208 . S
C316 O308 1.315 1_455 S
C316 O311 1.279 . S
C317 O318 1.315 . S
C317 O319 1.279 . S
O318 Cd310 2.223 1_655 S
O318 C317 1.315 . S
O319 Cd309 2.240 . S
O319 C317 1.279 . S
O320 Cd310 2.297 . S
O320 C315 1.247 . S
O321 Cd310 2.439 . S
O321 C315 1.208 . S
O322 Cd323 2.223 1_565 S
O322 C330 1.315 . S
Cd323 O322 2.223 1_545 S
Cd323 O326 2.297 . S
Cd323 O327 2.439 . S
Cd323 O333 2.240 1_545 S
Cd324 O325 2.240 . S
Cd324 O332 2.223 . S
Cd324 O334 2.297 . S
Cd324 O335 2.439 . S
O325 Cd324 2.240 . S
O325 C330 1.279 . S
O326 Cd323 2.297 . S
O326 C328 1.247 . S
O327 Cd323 2.439 . S
O327 C328 1.208 . S
C328 O326 1.247 . S
C328 O327 1.208 . S
C329 O334 1.247 . S
C329 O335 1.208 . S
C330 O322 1.315 . S
C330 O325 1.279 . S
C331 O332 1.315 . S
C331 O333 1.279 . S
O332 Cd324 2.223 . S
O332 C331 1.315 . S
O333 Cd323 2.240 1_565 S
O333 C331 1.279 . S
O334 Cd324 2.297 . S
O334 C329 1.247 . S
O335 Cd324 2.439 . S
O335 C329 1.208 . S
O336 Cd337 2.223 . S
O336 C344 1.315 1_455 S
Cd337 O336 2.223 . S
Cd337 O340 2.297 1_455 S
Cd337 O341 2.439 1_455 S
Cd337 O347 2.240 . S
Cd338 O339 2.240 . S
Cd338 O346 2.223 1_655 S
Cd338 O348 2.297 . S
Cd338 O349 2.439 . S
O339 Cd338 2.240 . S
O339 C344 1.279 . S
O340 Cd337 2.297 1_655 S
O340 C342 1.247 . S
O341 Cd337 2.439 1_655 S
O341 C342 1.208 . S
C342 O340 1.247 . S
C342 O341 1.208 . S
C343 O348 1.247 . S
C343 O349 1.208 . S
C344 O336 1.315 1_655 S
C344 O339 1.279 . S
C345 O346 1.315 . S
C345 O347 1.279 . S
O346 Cd338 2.223 1_455 S
O346 C345 1.315 . S
O347 Cd337 2.240 . S
O347 C345 1.279 . S
O348 Cd338 2.297 . S
O348 C343 1.247 . S
O349 Cd338 2.439 . S
O349 C343 1.208 . S
O350 Cd351 2.223 . S
O350 C358 1.315 . S
Cd351 O350 2.223 . S
Cd351 O354 2.297 . S
Cd351 O355 2.439 . S
Cd351 O361 2.240 . S
Cd352 O353 2.240 . S
Cd352 O360 2.223 . S
Cd352 O362 2.297 . S
Cd352 O363 2.439 . S
O353 Cd352 2.240 . S
O353 C358 1.279 . S
O354 Cd351 2.297 . S
O354 C356 1.247 . S
O355 Cd351 2.439 . S
O355 C356 1.208 . S
C356 O354 1.247 . S
C356 O355 1.208 . S
C357 O362 1.247 . S
C357 O363 1.208 . S
C358 O350 1.315 . S
C358 O353 1.279 . S
C359 O360 1.315 . S
C359 O361 1.279 . S
O360 Cd352 2.223 . S
O360 C359 1.315 . S
O361 Cd351 2.240 . S
O361 C359 1.279 . S
O362 Cd352 2.297 . S
O362 C357 1.247 . S
O363 Cd352 2.439 . S
O363 C357 1.208 . S
O364 Cd365 2.223 . S
O364 C372 1.315 1_455 S
Cd365 O364 2.223 . S
Cd365 O368 2.297 1_455 S
Cd365 O369 2.439 1_455 S
Cd365 O375 2.240 . S
Cd366 O367 2.240 . S
Cd366 O374 2.223 1_655 S
Cd366 O376 2.297 . S
Cd366 O377 2.439 . S
O367 Cd366 2.240 . S
O367 C372 1.279 . S
O368 Cd365 2.297 1_655 S
O368 C370 1.247 . S
O369 Cd365 2.439 1_655 S
O369 C370 1.208 . S
C370 O368 1.247 . S
C370 O369 1.208 . S
C371 O376 1.247 . S
C371 O377 1.208 . S
C372 O364 1.315 1_655 S
C372 O367 1.279 . S
C373 O374 1.315 . S
C373 O375 1.279 . S
O374 Cd366 2.223 1_455 S
O374 C373 1.315 . S
O375 Cd365 2.240 . S
O375 C373 1.279 . S
O376 Cd366 2.297 . S
O376 C371 1.247 . S
O377 Cd366 2.439 . S
O377 C371 1.208 . S
O378 Cd379 2.223 . S
O378 C386 1.315 . S
Cd379 O378 2.223 . S
Cd379 O382 2.297 . S
Cd379 O383 2.439 . S
Cd379 O389 2.240 . S
Cd380 O381 2.240 . S
Cd380 O388 2.223 . S
Cd380 O390 2.297 . S
Cd380 O391 2.439 . S
O381 Cd380 2.240 . S
O381 C386 1.279 . S
O382 Cd379 2.297 . S
O382 C384 1.247 . S
O383 Cd379 2.439 . S
O383 C384 1.208 . S
C384 O382 1.247 . S
C384 O383 1.208 . S
C385 O390 1.247 . S
C385 O391 1.208 . S
C386 O378 1.315 . S
C386 O381 1.279 . S
C387 O388 1.315 . S
C387 O389 1.279 . S
O388 Cd380 2.223 . S
O388 C387 1.315 . S
O389 Cd379 2.240 . S
O389 C387 1.279 . S
O390 Cd380 2.297 . S
O390 C385 1.247 . S
O391 Cd380 2.439 . S
O391 C385 1.208 . S
O392 Cd393 2.223 . S
O392 C400 1.315 1_655 S
Cd393 O392 2.223 . S
Cd393 O396 2.297 1_655 S
Cd393 O397 2.439 1_655 S
Cd393 O403 2.240 . S
Cd394 O395 2.240 . S
Cd394 O402 2.223 1_455 S
Cd394 O404 2.297 . S
Cd394 O405 2.439 . S
O395 Cd394 2.240 . S
O395 C400 1.279 . S
O396 Cd393 2.297 1_455 S
O396 C398 1.247 . S
O397 Cd393 2.439 1_455 S
O397 C398 1.208 . S
C398 O396 1.247 . S
C398 O397 1.208 . S
C399 O404 1.247 . S
C399 O405 1.208 . S
C400 O392 1.315 1_455 S
C400 O395 1.279 . S
C401 O402 1.315 . S
C401 O403 1.279 . S
O402 Cd394 2.223 1_655 S
O402 C401 1.315 . S
O403 Cd393 2.240 . S
O403 C401 1.279 . S
O404 Cd394 2.297 . S
O404 C399 1.247 . S
O405 Cd394 2.439 . S
O405 C399 1.208 . S
O406 Cd407 2.223 . S
O406 C414 1.315 . S
Cd407 O406 2.223 . S
Cd407 O410 2.297 . S
Cd407 O411 2.439 . S
Cd407 O417 2.240 . S
Cd408 O409 2.240 . S
Cd408 O416 2.223 . S
Cd408 O418 2.297 . S
Cd408 O419 2.439 . S
O409 Cd408 2.240 . S
O409 C414 1.279 . S
O410 Cd407 2.297 . S
O410 C412 1.247 . S
O411 Cd407 2.439 . S
O411 C412 1.208 . S
C412 O410 1.247 . S
C412 O411 1.208 . S
C413 O418 1.247 . S
C413 O419 1.208 . S
C414 O406 1.315 . S
C414 O409 1.279 . S
C415 O416 1.315 . S
C415 O417 1.279 . S
O416 Cd408 2.223 . S
O416 C415 1.315 . S
O417 Cd407 2.240 . S
O417 C415 1.279 . S
O418 Cd408 2.297 . S
O418 C413 1.247 . S
O419 Cd408 2.439 . S
O419 C413 1.208 . S
O420 Cd421 2.223 . S
O420 C428 1.315 1_655 S
Cd421 O420 2.223 . S
Cd421 O424 2.297 1_655 S
Cd421 O425 2.439 1_655 S
Cd421 O431 2.240 . S
Cd422 O423 2.240 . S
Cd422 O430 2.223 1_455 S
Cd422 O432 2.297 . S
Cd422 O433 2.439 . S
O423 Cd422 2.240 . S
O423 C428 1.279 . S
O424 Cd421 2.297 1_455 S
O424 C426 1.247 . S
O425 Cd421 2.439 1_455 S
O425 C426 1.208 . S
C426 O424 1.247 . S
C426 O425 1.208 . S
C427 O432 1.247 . S
C427 O433 1.208 . S
C428 O420 1.315 1_455 S
C428 O423 1.279 . S
C429 O430 1.315 . S
C429 O431 1.279 . S
O430 Cd422 2.223 1_655 S
O430 C429 1.315 . S
O431 Cd421 2.240 . S
O431 C429 1.279 . S
O432 Cd422 2.297 . S
O432 C427 1.247 . S
O433 Cd422 2.439 . S
O433 C427 1.208 . S
O434 Cd435 2.223 . S
O434 C442 1.315 . S
Cd435 O434 2.223 . S
Cd435 O438 2.297 . S
Cd435 O439 2.439 . S
Cd435 O445 2.240 . S
Cd436 O437 2.240 . S
Cd436 O444 2.223 . S
Cd436 O446 2.297 . S
Cd436 O447 2.439 . S
O437 Cd436 2.240 . S
O437 C442 1.279 . S
O438 Cd435 2.297 . S
O438 C440 1.247 . S
O439 Cd435 2.439 . S
O439 C440 1.208 . S
C440 O438 1.247 . S
C440 O439 1.208 . S
C441 O446 1.247 . S
C441 O447 1.208 . S
C442 O434 1.315 . S
C442 O437 1.279 . S
C443 O444 1.315 . S
C443 O445 1.279 . S
O444 Cd436 2.223 . S
O444 C443 1.315 . S
O445 Cd435 2.240 . S
O445 C443 1.279 . S
O446 Cd436 2.297 . S
O446 C441 1.247 . S
O447 Cd436 2.439 . S
O447 C441 1.208 . S
C7 C35 3.101 . S
C49 C21 3.102 . S
C91 C63 3.101 . S
C105 C77 3.102 . S
C119 C147 3.099 . S
C161 C133 3.103 . S
C175 C203 3.100 . S
C217 C189 3.103 . S
C231 C259 3.100 . S
C245 C273 3.102 . S
C315 C287 3.100 . S
C301 C329 3.102 . S
C371 C343 3.101 . S
C385 C357 3.102 . S
C427 C399 3.101 . S
C413 C441 3.102 . S
C356 C6 1.358 . S
C20 C342 1.358 . S
C34 C384 1.358 . S
C48 C370 1.358 . S
C412 C62 1.358 . S
C76 C398 1.358 . S
C90 C440 1.358 . S
C426 C104 1.358 . S
C118 C244 1.358 . S
C132 C230 1.358 . S
C146 C272 1.358 . S
C160 C258 1.358 . S
C174 C300 1.358 . S
C286 C188 1.358 . S
C328 C202 1.358 . S
C216 C314 1.358 . S
C8 C64 2.339 1_544 S
C22 C414 2.362 1_554 S
C36 C204 2.360 . S
C50 C330 2.341 1_545 S
C78 C358 2.362 1_556 S
C148 C92 2.360 . S
C274 C106 2.341 1_545 S
C176 C120 2.337 . S
C134 C302 2.363 . S
C442 C162 2.341 . S
C190 C246 2.363 . S
C218 C386 2.341 . S
C288 C232 2.338 1_465 S
C260 C428 2.361 1_655 S
C372 C316 2.361 1_655 S
C400 C344 2.340 1_456 S
C9 C23 1.619 . S
C37 C51 1.620 . S
C65 C79 1.619 . S
C93 C107 1.620 . S
C135 C121 1.619 . S
C149 C163 1.619 . S
C177 C191 1.619 . S
C205 C219 1.619 . S
C233 C247 1.619 . S
C275 C261 1.620 . S
C289 C303 1.619 . S
C317 C331 1.620 . S
C359 C345 1.619 . S
C373 C387 1.619 . S
C415 C401 1.619 . S
C429 C443 1.619 . S
