# Generated by pormake.
# Topology wjd, (6)-cn, num edge types: 1
# Building blocks:
#     Node 0, Type 0, BuildingBlock: BETFAJ_clean_sbu_0, # of connection points: 6
#     Node 1, Type 0, BuildingBlock: BETFAJ_clean_sbu_0, # of connection points: 6
#     Node 2, Type 0, BuildingBlock: BETFAJ_clean_sbu_0, # of connection points: 6
#     Node 3, Type 0, BuildingBlock: BETFAJ_clean_sbu_0, # of connection points: 6
#     Node 4, Type 0, BuildingBlock: BETFAJ_clean_sbu_0, # of connection points: 6
#     Node 5, Type 0, BuildingBlock: BETFAJ_clean_sbu_0, # of connection points: 6
#     Node 6, Type 0, BuildingBlock: BETFAJ_clean_sbu_0, # of connection points: 6
#     Node 7, Type 0, BuildingBlock: BETFAJ_clean_sbu_0, # of connection points: 6
#     Node 8, Type 0, BuildingBlock: BETFAJ_clean_sbu_0, # of connection points: 6
#     Node 9, Type 0, BuildingBlock: BETFAJ_clean_sbu_0, # of connection points: 6
#     Node 10, Type 0, BuildingBlock: BETFAJ_clean_sbu_0, # of connection points: 6
#     Node 11, Type 0, BuildingBlock: BETFAJ_clean_sbu_0, # of connection points: 6
#     Edge 12, Type (0, 0), BuildingBlock: ZUJKAS_clean_linker_0, # of connection points: 2
#     Edge 13, Type (0, 0), BuildingBlock: ZUJKAS_clean_linker_0, # of connection points: 2
#     Edge 14, Type (0, 0), BuildingBlock: ZUJKAS_clean_linker_0, # of connection points: 2
#     Edge 15, Type (0, 0), BuildingBlock: ZUJKAS_clean_linker_0, # of connection points: 2
#     Edge 16, Type (0, 0), BuildingBlock: ZUJKAS_clean_linker_0, # of connection points: 2
#     Edge 17, Type (0, 0), BuildingBlock: ZUJKAS_clean_linker_0, # of connection points: 2
#     Edge 18, Type (0, 0), BuildingBlock: ZUJKAS_clean_linker_0, # of connection points: 2
#     Edge 19, Type (0, 0), BuildingBlock: ZUJKAS_clean_linker_0, # of connection points: 2
#     Edge 20, Type (0, 0), BuildingBlock: ZUJKAS_clean_linker_0, # of connection points: 2
#     Edge 21, Type (0, 0), BuildingBlock: ZUJKAS_clean_linker_0, # of connection points: 2
#     Edge 22, Type (0, 0), BuildingBlock: ZUJKAS_clean_linker_0, # of connection points: 2
#     Edge 23, Type (0, 0), BuildingBlock: ZUJKAS_clean_linker_0, # of connection points: 2
#     Edge 24, Type (0, 0), BuildingBlock: ZUJKAS_clean_linker_0, # of connection points: 2
#     Edge 25, Type (0, 0), BuildingBlock: ZUJKAS_clean_linker_0, # of connection points: 2
#     Edge 26, Type (0, 0), BuildingBlock: ZUJKAS_clean_linker_0, # of connection points: 2
#     Edge 27, Type (0, 0), BuildingBlock: ZUJKAS_clean_linker_0, # of connection points: 2
#     Edge 28, Type (0, 0), BuildingBlock: ZUJKAS_clean_linker_0, # of connection points: 2
#     Edge 29, Type (0, 0), BuildingBlock: ZUJKAS_clean_linker_0, # of connection points: 2
#     Edge 30, Type (0, 0), BuildingBlock: ZUJKAS_clean_linker_0, # of connection points: 2
#     Edge 31, Type (0, 0), BuildingBlock: ZUJKAS_clean_linker_0, # of connection points: 2
#     Edge 32, Type (0, 0), BuildingBlock: ZUJKAS_clean_linker_0, # of connection points: 2
#     Edge 33, Type (0, 0), BuildingBlock: ZUJKAS_clean_linker_0, # of connection points: 2
#     Edge 34, Type (0, 0), BuildingBlock: ZUJKAS_clean_linker_0, # of connection points: 2
#     Edge 35, Type (0, 0), BuildingBlock: ZUJKAS_clean_linker_0, # of connection points: 2
#     Edge 36, Type (0, 0), BuildingBlock: ZUJKAS_clean_linker_0, # of connection points: 2
#     Edge 37, Type (0, 0), BuildingBlock: ZUJKAS_clean_linker_0, # of connection points: 2
#     Edge 38, Type (0, 0), BuildingBlock: ZUJKAS_clean_linker_0, # of connection points: 2
#     Edge 39, Type (0, 0), BuildingBlock: ZUJKAS_clean_linker_0, # of connection points: 2
#     Edge 40, Type (0, 0), BuildingBlock: ZUJKAS_clean_linker_0, # of connection points: 2
#     Edge 41, Type (0, 0), BuildingBlock: ZUJKAS_clean_linker_0, # of connection points: 2
#     Edge 42, Type (0, 0), BuildingBlock: ZUJKAS_clean_linker_0, # of connection points: 2
#     Edge 43, Type (0, 0), BuildingBlock: ZUJKAS_clean_linker_0, # of connection points: 2
#     Edge 44, Type (0, 0), BuildingBlock: ZUJKAS_clean_linker_0, # of connection points: 2
#     Edge 45, Type (0, 0), BuildingBlock: ZUJKAS_clean_linker_0, # of connection points: 2
#     Edge 46, Type (0, 0), BuildingBlock: ZUJKAS_clean_linker_0, # of connection points: 2
#     Edge 47, Type (0, 0), BuildingBlock: ZUJKAS_clean_linker_0, # of connection points: 2
# Relax obj value: 0.100
# Max RMSD: 0.207
# Mean RMSD: 0.207
data_MOF--net-wjd--node1-BETFAJ_clean_sbu_0--edge1-ZUJKAS_clean_linker_0
_symmetry_space_group_name_H-M    P1
_symmetry_Int_Tables_number       1
_symmetry_cell_setting            triclinic
loop_
_symmetry_equiv_pos_as_xyz
'x, y, z'
_cell_length_a     49.680661
_cell_length_b     49.554366
_cell_length_c     67.693489
_cell_angle_alpha  89.832603
_cell_angle_beta   89.899527
_cell_angle_gamma 119.95544
loop_
_atom_site_label
_atom_site_type_symbol
_atom_site_fract_x
_atom_site_fract_y
_atom_site_fract_z
_atom_type_partial_charge
Sm0 Sm 0.36675 0.16927 0.1402 0.0
Sm1 Sm 0.32513 0.09866 0.15213 0.0
C2 C 0.40718 0.22881 0.13349 0.0
C3 C 0.4366 0.25699 0.13868 0.0
C4 C 0.44324 0.26852 0.15807 0.0
C5 C 0.46954 0.29749 0.16191 0.0
C6 C 0.4896 0.31541 0.14644 0.0
C7 C 0.48327 0.30319 0.1272 0.0
C8 C 0.45708 0.27435 0.12339 0.0
C9 C 0.3419 0.12647 0.10985 0.0
C10 C 0.40013 0.13022 0.15576 0.0
C11 C 0.28459 0.03882 0.14807 0.0
C12 C 0.25092 0.01875 0.1518 0.0
C13 C 0.22957 0.02716 0.14456 0.0
C14 C 0.19767 1.00715 0.14687 0.0
C15 C 0.18641 0.97851 0.15669 0.0
C16 C 0.20771 0.97057 0.16459 0.0
C17 C 0.23973 0.99047 0.16205 0.0
C18 C 0.33673 0.13347 0.18594 0.0
C19 C 0.29351 0.14344 0.14601 0.0
O20 O 0.38356 0.21926 0.14563 0.0
O21 O 0.40858 0.20612 0.1246 0.0
O22 O 0.35362 0.1236 0.12557 0.0
O23 O 0.34316 0.15324 0.10942 0.0
O24 O 0.4015 0.15756 0.15473 0.0
O25 O 0.3739 0.1036 0.1529 0.0
O26 O 0.29214 0.05932 0.13382 0.0
O27 O 0.30283 0.04979 0.1635 0.0
O28 O 0.34652 0.14431 0.16883 0.0
O29 O 0.32012 0.10332 0.18543 0.0
O30 O 0.28946 0.11491 0.14551 0.0
O31 O 0.32136 0.16839 0.14638 0.0
H32 H 0.42778 0.25555 0.17015 0.0
H33 H 0.47395 0.30602 0.17694 0.0
H34 H 0.49785 0.31647 0.11487 0.0
H35 H 0.45223 0.26607 0.1083 0.0
H36 H 0.23743 0.04898 0.13678 0.0
H37 H 0.18176 0.01399 0.14085 0.0
H38 H 0.19958 0.94853 0.17215 0.0
H39 H 0.25573 0.98353 0.16778 0.0
Sm40 Sm 0.7977 0.7045 0.41678 0.0
Sm41 Sm 0.83246 0.66671 0.42544 0.0
C42 C 0.7741 0.74084 0.42401 0.0
C43 C 0.7841 0.77355 0.41977 0.0
C44 C 0.76898 0.78769 0.42884 0.0
C45 C 0.78055 0.81969 0.42662 0.0
C46 C 0.8076 0.83806 0.4154 0.0
C47 C 0.82238 0.82359 0.40607 0.0
C48 C 0.81072 0.79159 0.40825 0.0
C49 C 0.81963 0.69543 0.38146 0.0
C50 C 0.8747 0.74072 0.41881 0.0
C51 C 0.85645 0.62981 0.42967 0.0
C52 C 0.85432 0.5995 0.42551 0.0
C53 C 0.86275 0.59305 0.40701 0.0
C54 C 0.86519 0.56631 0.40439 0.0
C55 C 0.85951 0.54568 0.42024 0.0
C56 C 0.84986 0.55159 0.43846 0.0
C57 C 0.84741 0.57821 0.44107 0.0
C58 C 0.81555 0.69013 0.45718 0.0
C59 C 0.75809 0.62871 0.41405 0.0
O60 O 0.79203 0.73685 0.4364 0.0
O61 O 0.76559 0.72188 0.40886 0.0
O62 O 0.82278 0.68618 0.39824 0.0
O63 O 0.80444 0.71039 0.38307 0.0
O64 O 0.84935 0.74281 0.42153 0.0
O65 O 0.87371 0.71372 0.41738 0.0
O66 O 0.86436 0.65027 0.41534 0.0
O67 O 0.83643 0.63022 0.44209 0.0
O68 O 0.79958 0.67683 0.44224 0.0
O69 O 0.8425 0.69197 0.45589 0.0
O70 O 0.78485 0.62892 0.41403 0.0
O71 O 0.75632 0.65423 0.41705 0.0
H72 H 0.74872 0.77415 0.43807 0.0
H73 H 0.76889 0.8302 0.43421 0.0
H74 H 0.84305 0.83704 0.39718 0.0
H75 H 0.82289 0.78103 0.40134 0.0
H76 H 0.86851 0.60914 0.39476 0.0
H77 H 0.87283 0.56251 0.3902 0.0
H78 H 0.84478 0.5359 0.45087 0.0
H79 H 0.84112 0.58268 0.45553 0.0
Sm80 Sm 0.85547 0.19851 0.14012 0.0
Sm81 Sm 0.92825 0.23356 0.14824 0.0
C82 C 0.79442 0.1734 0.1367 0.0
C83 C 0.76531 0.17387 0.14027 0.0
C84 C 0.75796 0.18155 0.1587 0.0
C85 C 0.72859 0.1784 0.16196 0.0
C86 C 0.70604 0.16724 0.14691 0.0
C87 C 0.71397 0.16045 0.12837 0.0
C88 C 0.74323 0.16374 0.12511 0.0
C89 C 0.89518 0.21382 0.10808 0.0
C90 C 0.8925 0.27385 0.14985 0.0
C91 C 0.98799 0.25664 0.14043 0.0
C92 C 1.01151 0.2476 0.14441 0.0
C93 C 0.04053 0.26361 0.13505 0.0
C94 C 0.06201 0.25337 0.13711 0.0
C95 C 0.05481 0.22679 0.14854 0.0
C96 C 0.02575 0.21107 0.15815 0.0
C97 C 1.00428 0.22136 0.15607 0.0
C98 C 0.89779 0.21311 0.1839 0.0
C99 C 0.88721 0.15621 0.14706 0.0
O100 O 0.80774 0.16776 0.15159 0.0
O101 O 0.81412 0.19265 0.12359 0.0
O102 O 0.8984 0.23053 0.12278 0.0
O103 O 0.86981 0.18711 0.10976 0.0
O104 O 0.86579 0.24718 0.14979 0.0
O105 O 0.91973 0.27528 0.14756 0.0
O106 O 0.96575 0.23799 0.12851 0.0
O107 O 0.97793 0.2657 0.15555 0.0
O108 O 0.88505 0.20925 0.16719 0.0
O109 O 0.92784 0.22825 0.18198 0.0
O110 O 0.91472 0.1816 0.14458 0.0
O111 O 0.86126 0.15725 0.1482 0.0
H112 H 0.77459 0.18931 0.17066 0.0
H113 H 0.72319 0.18376 0.17642 0.0
H114 H 0.69743 0.15236 0.11635 0.0
H115 H 0.74837 0.1576 0.1108 0.0
H116 H 0.04629 0.28362 0.12574 0.0
H117 H 0.08391 0.26576 0.12925 0.0
H118 H 0.01955 0.19075 0.16724 0.0
H119 H 0.98181 0.20851 0.16325 0.0
Sm120 Sm 0.32953 0.10405 0.41882 0.0
Sm121 Sm 0.36762 0.17628 0.42836 0.0
C122 C 0.29247 0.04402 0.4259 0.0
C123 C 0.25957 0.021 0.42269 0.0
C124 C 0.24481 0.99543 0.43552 0.0
C125 C 0.21272 0.97539 0.43448 0.0
C126 C 0.19476 0.98058 0.42057 0.0
C127 C 0.20978 1.00585 0.40737 0.0
C128 C 0.24193 0.02605 0.40852 0.0
C129 C 0.34039 0.13635 0.38381 0.0
C130 C 0.29402 0.14572 0.42098 0.0
C131 C 0.40397 0.23696 0.43372 0.0
C132 C 0.43303 0.26612 0.42961 0.0
C133 C 0.45064 0.27061 0.41242 0.0
C134 C 0.47711 0.29964 0.40862 0.0
C135 C 0.48608 0.32455 0.42188 0.0
C136 C 0.46858 0.31952 0.43923 0.0
C137 C 0.44238 0.29063 0.44303 0.0
C138 C 0.34238 0.13497 0.45968 0.0
C139 C 0.4052 0.13951 0.41635 0.0
O140 O 0.29719 0.0659 0.43851 0.0
O141 O 0.31071 0.05446 0.41033 0.0
O142 O 0.34912 0.14827 0.40072 0.0
O143 O 0.32503 0.10614 0.38512 0.0
O144 O 0.29149 0.1179 0.42298 0.0
O145 O 0.32116 0.17158 0.42026 0.0
O146 O 0.38329 0.2251 0.41962 0.0
O147 O 0.40523 0.21598 0.44486 0.0
O148 O 0.35608 0.13241 0.44484 0.0
O149 O 0.34134 0.16057 0.45855 0.0
O150 O 0.40524 0.16626 0.41664 0.0
O151 O 0.37954 0.11225 0.4191 0.0
H152 H 0.258 0.99142 0.44672 0.0
H153 H 0.20191 0.95593 0.44469 0.0
H154 H 0.19654 1.01059 0.39662 0.0
H155 H 0.25286 0.04606 0.39874 0.0
H156 H 0.44371 0.2519 0.40187 0.0
H157 H 0.49008 0.30282 0.3951 0.0
H158 H 0.47515 0.33797 0.44993 0.0
H159 H 0.42909 0.28756 0.4564 0.0
Sm160 Sm 0.82506 0.66273 0.1391 0.0
Sm161 Sm 0.79065 0.70081 0.14846 0.0
C162 C 0.84774 0.62461 0.13522 0.0
C163 C 0.84672 0.59535 0.14141 0.0
C164 C 0.86604 0.59561 0.15667 0.0
C165 C 0.86894 0.56939 0.16044 0.0
C166 C 0.85272 0.54231 0.149 0.0
C167 C 0.83253 0.54168 0.13422 0.0
C168 C 0.82967 0.56792 0.13042 0.0
C169 C 0.80907 0.68745 0.10755 0.0
C170 C 0.75048 0.6254 0.15067 0.0
C171 C 0.76867 0.73866 0.14145 0.0
C172 C 0.77928 0.77146 0.14583 0.0
C173 C 0.76451 0.78619 0.13703 0.0
C174 C 0.77652 0.81822 0.1394 0.0
C175 C 0.80369 0.83608 0.1505 0.0
C176 C 0.81815 0.82103 0.15952 0.0
C177 C 0.80604 0.78898 0.1572 0.0
C178 C 0.80941 0.6878 0.1837 0.0
C179 C 0.86792 0.7365 0.14664 0.0
O180 O 0.8589 0.64797 0.14762 0.0
O181 O 0.82513 0.62278 0.1243 0.0
O182 O 0.79294 0.67423 0.12256 0.0
O183 O 0.83536 0.68786 0.10846 0.0
O184 O 0.77721 0.62552 0.15097 0.0
O185 O 0.7489 0.65097 0.14738 0.0
O186 O 0.78645 0.73442 0.12905 0.0
O187 O 0.75943 0.71925 0.15649 0.0
O188 O 0.81397 0.6802 0.16672 0.0
O189 O 0.79417 0.70275 0.18229 0.0
O190 O 0.84264 0.73906 0.14575 0.0
O191 O 0.86697 0.70946 0.14638 0.0
H192 H 0.87978 0.61643 0.1653 0.0
H193 H 0.88436 0.57054 0.17211 0.0
H194 H 0.81996 0.52137 0.12497 0.0
H195 H 0.81499 0.56706 0.11835 0.0
H196 H 0.74415 0.77308 0.12791 0.0
H197 H 0.76508 0.82916 0.13203 0.0
H198 H 0.83891 0.83404 0.16831 0.0
H199 H 0.81794 0.77799 0.16392 0.0
Sm200 Sm 0.92976 0.23436 0.4179 0.0
Sm201 Sm 0.85735 0.19987 0.42723 0.0
C202 C 0.98972 0.25749 0.42448 0.0
C203 C 1.01253 0.24774 0.41998 0.0
C204 C 0.04229 0.2639 0.42821 0.0
C205 C 0.06308 0.25288 0.42576 0.0
C206 C 0.0544 0.22538 0.4151 0.0
C207 C 0.02463 0.20957 0.40658 0.0
C208 C 1.00387 0.22064 0.40903 0.0
C209 C 0.89816 0.21284 0.38284 0.0
C210 C 0.88865 0.15723 0.42031 0.0
C211 C 0.79657 0.17522 0.43206 0.0
C212 C 0.76751 0.17562 0.42851 0.0
C213 C 0.76217 0.18764 0.41108 0.0
C214 C 0.73313 0.18525 0.40781 0.0
C215 C 0.70902 0.17054 0.42183 0.0
C216 C 0.71492 0.15925 0.43941 0.0
C217 C 0.74383 0.16179 0.44269 0.0
C218 C 0.89803 0.21564 0.45863 0.0
C219 C 0.89425 0.27463 0.41587 0.0
O220 O 0.96799 0.23935 0.437 0.0
O221 O 0.97911 0.26629 0.40952 0.0
O222 O 0.88599 0.20962 0.39972 0.0
O223 O 0.92825 0.22785 0.38423 0.0
O224 O 0.91622 0.18258 0.42238 0.0
O225 O 0.86272 0.15833 0.41937 0.0
O226 O 0.80904 0.16813 0.41734 0.0
O227 O 0.81698 0.19582 0.44414 0.0
O228 O 0.9008 0.23209 0.4438 0.0
O229 O 0.87253 0.189 0.45747 0.0
O230 O 0.86753 0.24798 0.4162 0.0
O231 O 0.92141 0.27608 0.41838 0.0
H232 H 0.04916 0.2846 0.43696 0.0
H233 H 0.08562 0.26539 0.43277 0.0
H234 H 0.01731 0.18853 0.39811 0.0
H235 H 0.98081 0.2077 0.40273 0.0
H236 H 0.78017 0.19837 0.39993 0.0
H237 H 0.72928 0.19412 0.3941 0.0
H238 H 0.69712 0.14835 0.45067 0.0
H239 H 0.74752 0.1524 0.45624 0.0
Sm240 Sm 0.10202 0.31993 0.64744 0.0
Sm241 Sm 0.17478 0.35838 0.64043 0.0
C242 C 0.04274 0.28279 0.63897 0.0
C243 C 0.01975 0.25007 0.64306 0.0
C244 C 0.99068 0.23642 0.63388 0.0
C245 C 0.96982 0.20453 0.63606 0.0
C246 C 0.97777 0.18568 0.64741 0.0
C247 C 1.00683 0.19967 0.65687 0.0
C248 C 0.02765 0.23159 0.65469 0.0
C249 C 0.13043 0.33021 0.68372 0.0
C250 C 0.14387 0.2845 0.64711 0.0
C251 C 0.23569 0.39595 0.63724 0.0
C252 C 0.26394 0.42607 0.64154 0.0
C253 C 0.27606 0.43423 0.66074 0.0
C254 C 0.30515 0.46079 0.66387 0.0
C255 C 0.32274 0.47967 0.64788 0.0
C256 C 0.31004 0.47184 0.62879 0.0
C257 C 0.28106 0.44539 0.62569 0.0
C258 C 0.13647 0.3346 0.60783 0.0
C259 C 0.13676 0.39559 0.65002 0.0
O260 O 0.06554 0.2868 0.62733 0.0
O261 O 0.052 0.30194 0.65403 0.0
O262 O 0.14419 0.3392 0.66724 0.0
O263 O 0.10053 0.31502 0.68118 0.0
O264 O 0.11643 0.28211 0.64391 0.0
O265 O 0.16951 0.31164 0.64884 0.0
O266 O 0.22267 0.37541 0.65148 0.0
O267 O 0.21576 0.39565 0.62449 0.0
O268 O 0.13277 0.34782 0.62248 0.0
O269 O 0.1616 0.33297 0.60991 0.0
O270 O 0.16346 0.39573 0.65094 0.0
O271 O 0.10998 0.3699 0.64646 0.0
H272 H 0.98442 0.25029 0.62461 0.0
H273 H 0.94785 0.19446 0.62835 0.0
H274 H 1.01356 0.18594 0.66589 0.0
H275 H 0.05018 0.24175 0.66174 0.0
H276 H 0.2635 0.41972 0.67328 0.0
H277 H 0.31402 0.46632 0.6788 0.0
H278 H 0.32302 0.48543 0.61607 0.0
H279 H 0.27253 0.43939 0.6107 0.0
Sm280 Sm 0.20344 0.84945 0.92618 0.0
Sm281 Sm 0.23713 0.92151 0.91602 0.0
C282 C 0.17897 0.7887 0.93168 0.0
C283 C 0.1769 0.75896 0.92646 0.0
C284 C 0.20002 0.75734 0.91545 0.0
C285 C 0.19782 0.72838 0.91199 0.0
C286 C 0.17261 0.7008 0.91962 0.0
C287 C 0.14927 0.70273 0.9302 0.0
C288 C 0.15142 0.73149 0.93356 0.0
C289 C 0.22256 0.89071 0.95747 0.0
C290 C 0.27641 0.88532 0.91157 0.0
C291 C 0.26141 0.98168 0.92281 0.0
C292 C 0.25206 1.00526 0.92015 0.0
C293 C 0.26165 0.02909 0.93412 0.0
C294 C 0.24925 0.0489 0.93396 0.0
C295 C 0.22706 0.04526 0.91978 0.0
C296 C 0.21829 0.02205 0.90532 0.0
C297 C 0.23051 1.00198 0.90561 0.0
C298 C 0.21329 0.88908 0.88151 0.0
C299 C 0.16053 0.88088 0.92028 0.0
O300 O 0.16736 0.80065 0.9194 0.0
O301 O 0.20402 0.80957 0.94072 0.0
O302 O 0.23727 0.89335 0.94182 0.0
O303 O 0.19609 0.86497 0.9573 0.0
O304 O 0.24965 0.85874 0.91235 0.0
O305 O 0.2784 0.91267 0.91472 0.0
O306 O 0.24457 0.95999 0.9357 0.0
O307 O 0.26805 0.97089 0.90694 0.0
O308 O 0.21109 0.87717 0.8984 0.0
O309 O 0.22838 0.9193 0.8826 0.0
O310 O 0.18596 0.90854 0.92168 0.0
O311 O 0.16153 0.85482 0.91953 0.0
H312 H 0.21989 0.77839 0.90987 0.0
H313 H 0.21622 0.72764 0.90385 0.0
H314 H 0.12931 0.68195 0.93599 0.0
H315 H 0.13332 0.73233 0.94204 0.0
H316 H 0.27793 0.03166 0.94561 0.0
H317 H 0.25668 0.06681 0.94514 0.0
H318 H 0.20108 0.01863 0.89432 0.0
H319 H 0.22235 0.98328 0.89495 0.0
Sm320 Sm 0.70602 0.78762 0.64825 0.0
Sm321 Sm 0.66623 0.81963 0.63875 0.0
C322 C 0.74517 0.76717 0.64163 0.0
C323 C 0.77859 0.77835 0.64486 0.0
C324 C 0.79865 0.7879 0.62848 0.0
C325 C 0.83041 0.79936 0.63086 0.0
C326 C 0.84302 0.80156 0.64974 0.0
C327 C 0.82299 0.79204 0.66623 0.0
C328 C 0.79104 0.78046 0.66382 0.0
C329 C 0.69488 0.80831 0.68335 0.0
C330 C 0.73951 0.86476 0.64557 0.0
C331 C 0.62727 0.84097 0.63371 0.0
C332 C 0.59712 0.83864 0.63844 0.0
C333 C 0.58932 0.84288 0.65771 0.0
C334 C 0.56243 0.84469 0.66116 0.0
C335 C 0.54286 0.84232 0.64542 0.0
C336 C 0.55034 0.83713 0.62628 0.0
C337 C 0.57714 0.83536 0.62286 0.0
C338 C 0.6918 0.80451 0.60728 0.0
C339 C 0.63072 0.7453 0.65119 0.0
O340 O 0.73912 0.78311 0.62867 0.0
O341 O 0.72649 0.75832 0.65701 0.0
O342 O 0.68558 0.81125 0.66652 0.0
O343 O 0.71069 0.79399 0.68186 0.0
O344 O 0.74283 0.83994 0.64368 0.0
O345 O 0.71199 0.86257 0.64643 0.0
O346 O 0.64898 0.85152 0.64724 0.0
O347 O 0.62724 0.81946 0.62251 0.0
O348 O 0.67865 0.78807 0.62223 0.0
O349 O 0.69208 0.83078 0.6084 0.0
O350 O 0.6299 0.77161 0.65091 0.0
O351 O 0.65678 0.74459 0.64825 0.0
H352 H 0.78979 0.78692 0.61378 0.0
H353 H 0.84517 0.80699 0.61786 0.0
H354 H 0.83196 0.79321 0.68096 0.0
H355 H 0.77621 0.77335 0.67677 0.0
H356 H 0.60434 0.84557 0.67003 0.0
H357 H 0.55716 0.84831 0.67612 0.0
H358 H 0.53615 0.83568 0.61376 0.0
H359 H 0.58284 0.8325 0.60783 0.0
Sm360 Sm 0.17833 0.35904 0.92829 0.0
Sm361 Sm 0.11056 0.3219 0.9171 0.0
C362 C 0.23856 0.39535 0.93519 0.0
C363 C 0.26811 0.42435 0.9314 0.0
C364 C 0.27421 0.44122 0.91366 0.0
C365 C 0.30359 0.46748 0.91026 0.0
C366 C 0.32732 0.47701 0.92447 0.0
C367 C 0.32066 0.46029 0.94234 0.0
C368 C 0.29141 0.43432 0.94574 0.0
C369 C 0.13638 0.33264 0.95938 0.0
C370 C 0.14408 0.39793 0.91457 0.0
C371 C 0.04913 0.28868 0.9164 0.0
C372 C 0.02562 0.25527 0.9146 0.0
C373 C 1.00254 0.24136 0.9292 0.0
C374 C 0.98179 0.20927 0.9291 0.0
C375 C 0.9835 0.19033 0.91429 0.0
C376 C 1.00611 0.20438 0.89935 0.0
C377 C 0.02714 0.23653 0.89957 0.0
C378 C 0.1501 0.33003 0.88605 0.0
C379 C 0.14878 0.2856 0.92423 0.0
O380 O 0.22755 0.3742 0.9213 0.0
O381 O 0.21698 0.39697 0.94535 0.0
O382 O 0.13405 0.34679 0.94471 0.0
O383 O 0.16179 0.33149 0.95815 0.0
O384 O 0.17059 0.39878 0.9182 0.0
O385 O 0.11723 0.37144 0.91427 0.0
O386 O 0.06539 0.29615 0.93268 0.0
O387 O 0.06585 0.30323 0.90079 0.0
O388 O 0.15428 0.35078 0.89849 0.0
O389 O 0.12441 0.30437 0.88977 0.0
O390 O 0.12186 0.28413 0.92765 0.0
O391 O 0.17382 0.3124 0.92027 0.0
H392 H 0.25651 0.43384 0.90238 0.0
H393 H 0.308 0.47979 0.89633 0.0
H394 H 0.33812 0.46727 0.95375 0.0
H395 H 0.28715 0.42164 0.95954 0.0
H396 H 1.00099 0.25528 0.94099 0.0
H397 H 0.9644 0.19924 0.94067 0.0
H398 H 1.00814 0.19038 0.88782 0.0
H399 H 0.04494 0.24655 0.88825 0.0
Sm400 Sm 0.23928 0.92379 0.64797 0.0
Sm401 Sm 0.20393 0.85137 0.63919 0.0
C402 C 0.26177 0.98358 0.6402 0.0
C403 C 0.25181 1.00662 0.64342 0.0
C404 C 0.25985 0.03031 0.62941 0.0
C405 C 0.24731 0.04998 0.63059 0.0
C406 C 0.22647 0.04631 0.64584 0.0
C407 C 0.2191 0.02305 0.66021 0.0
C408 C 0.23149 1.00318 0.65892 0.0
C409 C 0.22177 0.89273 0.68358 0.0
C410 C 0.16195 0.88263 0.64838 0.0
C411 C 0.18043 0.79059 0.63454 0.0
C412 C 0.18237 0.76232 0.6388 0.0
C413 C 0.17943 0.75049 0.65808 0.0
C414 C 0.17733 0.72152 0.66126 0.0
C415 C 0.17808 0.70383 0.64523 0.0
C416 C 0.18192 0.71625 0.62605 0.0
C417 C 0.18399 0.7451 0.6229 0.0
C418 C 0.21894 0.89197 0.60756 0.0
C419 C 0.27899 0.88791 0.64912 0.0
O420 O 0.24431 0.96131 0.62794 0.0
O421 O 0.27022 0.97364 0.6557 0.0
O422 O 0.21637 0.88018 0.66672 0.0
O423 O 0.23711 0.92291 0.68185 0.0
O424 O 0.18722 0.91029 0.646 0.0
O425 O 0.16297 0.85656 0.64859 0.0
O426 O 0.17184 0.80268 0.64871 0.0
O427 O 0.20105 0.81141 0.6225 0.0
O428 O 0.23574 0.89451 0.62203 0.0
O429 O 0.1921 0.86679 0.60928 0.0
O430 O 0.25215 0.86138 0.64958 0.0
O431 O 0.28074 0.91524 0.64625 0.0
H432 H 0.27517 0.03304 0.6172 0.0
H433 H 0.25371 0.06791 0.61943 0.0
H434 H 0.20291 0.01952 0.67202 0.0
H435 H 0.22452 0.9846 0.66967 0.0
H436 H 0.17802 0.76321 0.67065 0.0
H437 H 0.17477 0.71283 0.67624 0.0
H438 H 0.18211 0.70315 0.61333 0.0
H439 H 0.18581 0.75349 0.60788 0.0
Sm440 Sm 0.66654 0.82436 0.92607 0.0
Sm441 Sm 0.70671 0.79247 0.91711 0.0
C442 C 0.62746 0.84571 0.93028 0.0
C443 C 0.59709 0.84255 0.92529 0.0
C444 C 0.58853 0.84401 0.90571 0.0
C445 C 0.56127 0.84486 0.90177 0.0
C446 C 0.54211 0.84427 0.91732 0.0
C447 C 0.55039 0.84186 0.93684 0.0
C448 C 0.57756 0.84105 0.94075 0.0
C449 C 0.6907 0.80831 0.95784 0.0
C450 C 0.63128 0.74995 0.91412 0.0
C451 C 0.74538 0.77169 0.92445 0.0
C452 C 0.779 0.78299 0.92196 0.0
C453 C 0.79861 0.7947 0.93844 0.0
C454 C 0.83043 0.80596 0.93664 0.0
C455 C 0.84357 0.80583 0.91828 0.0
C456 C 0.82404 0.79417 0.90171 0.0
C457 C 0.79202 0.78273 0.90354 0.0
C458 C 0.69644 0.81366 0.88187 0.0
C459 C 0.7402 0.86964 0.92006 0.0
O460 O 0.64907 0.8557 0.91661 0.0
O461 O 0.62772 0.82491 0.94213 0.0
O462 O 0.67826 0.79234 0.94272 0.0
O463 O 0.69118 0.8347 0.95672 0.0
O464 O 0.6303 0.77618 0.91422 0.0
O465 O 0.65742 0.7494 0.91706 0.0
O466 O 0.73843 0.78698 0.93731 0.0
O467 O 0.72776 0.76358 0.90865 0.0
O468 O 0.68674 0.81628 0.89863 0.0
O469 O 0.71238 0.79949 0.88347 0.0
O470 O 0.7434 0.84474 0.92211 0.0
O471 O 0.71272 0.86748 0.91884 0.0
H472 H 0.60319 0.84523 0.89348 0.0
H473 H 0.55538 0.84635 0.88656 0.0
H474 H 0.53653 0.84185 0.9492 0.0
H475 H 0.58386 0.84029 0.95597 0.0
H476 H 0.78939 0.79554 0.95276 0.0
H477 H 0.84484 0.81522 0.94963 0.0
H478 H 0.83345 0.79353 0.88739 0.0
H479 H 0.77756 0.77383 0.89054 0.0
H480 H 0.04234 0.16621 0.14774 0.0
H481 H 0.07941 0.14735 0.14928 0.0
H482 H 0.15505 0.24198 0.1531 0.0
H483 H 0.11817 0.26097 0.15228 0.0
H484 H 0.1275 0.15959 0.12355 0.0
H485 H 0.1734 0.20017 0.19871 0.0
H486 H 0.13822 0.19829 0.18991 0.0
H487 H 0.17556 0.23071 0.18331 0.0
C488 C 0.06682 0.183 0.14927 0.0
C489 C 0.07722 0.21514 0.14999 0.0
C490 C 0.088 0.17217 0.15 0.0
C491 C 0.11998 0.1932 0.1516 0.0
C492 C 0.13044 0.22526 0.15226 0.0
H493 H 0.29373 0.1986 0.14669 0.0
H494 H 0.2495 0.20695 0.14822 0.0
C495 C 0.10932 0.23611 0.15155 0.0
C496 C 0.1426 0.18185 0.15183 0.0
H497 H 0.20329 0.18593 0.17793 0.0
C498 C 0.14382 0.16496 0.13555 0.0
C499 C 0.16376 0.18872 0.16755 0.0
C500 C 0.16252 0.20519 0.18595 0.0
C501 C 0.1666 0.15609 0.13414 0.0
C502 C 0.18847 0.16401 0.14954 0.0
C503 C 0.18659 0.17999 0.1661 0.0
C504 C 0.21488 0.15802 0.14819 0.0
C505 C 0.16797 0.13953 0.11583 0.0
C506 C 0.21015 0.1276 0.14769 0.0
C507 C 0.23558 0.12263 0.14678 0.0
C508 C 0.26615 0.14804 0.14644 0.0
C509 C 0.27061 0.17841 0.14691 0.0
C510 C 0.2453 0.1833 0.14783 0.0
H511 H 0.15308 0.14018 0.10383 0.0
H512 H 0.19221 0.15012 0.11028 0.0
H513 H 0.15982 0.11478 0.11949 0.0
H514 H 0.18685 0.10772 0.14825 0.0
H515 H 0.23127 0.09895 0.14654 0.0
H516 H 0.1549 0.95977 0.45204 0.0
H517 H 0.09887 0.9236 0.45181 0.0
H518 H 0.10083 0.91872 0.38827 0.0
H519 H 0.15699 0.95526 0.38838 0.0
H520 H 0.04918 0.92151 0.40255 0.0
H521 H 0.06347 0.83094 0.44183 0.0
H522 H 0.07949 0.86734 0.45468 0.0
H523 H 0.09588 0.8654 0.43137 0.0
C524 C 0.14342 0.95095 0.43801 0.0
C525 C 0.16045 0.95999 0.42024 0.0
C526 C 0.11139 0.93033 0.43791 0.0
C527 C 0.09577 0.91801 0.42006 0.0
C528 C 0.11245 0.92788 0.40222 0.0
H529 H 0.92756 0.74552 0.4037 0.0
H530 H 0.9796 0.79059 0.40358 0.0
C531 C 0.14452 0.94874 0.4023 0.0
C532 C 0.06239 0.8937 0.42008 0.0
H533 H 1.01213 0.81996 0.43629 0.0
C534 C 0.04099 0.8993 0.40994 0.0
C535 C 0.05185 0.86463 0.42958 0.0
C536 C 0.07386 0.8565 0.43983 0.0
C537 C 1.0093 0.87651 0.409 0.0
C538 C 0.99878 0.84761 0.4187 0.0
C539 C 0.02019 0.84221 0.42897 0.0
C540 C 0.96622 0.82153 0.41731 0.0
C541 C 0.98758 0.88318 0.39716 0.0
C542 C 0.9411 0.82399 0.42479 0.0
C543 C 0.91095 0.79805 0.42476 0.0
C544 C 0.90565 0.76922 0.41752 0.0
C545 C 0.9308 0.76722 0.40962 0.0
C546 C 0.96064 0.79303 0.4095 0.0
H547 H 1.00039 0.90352 0.38715 0.0
H548 H 0.97158 0.86264 0.38819 0.0
H549 H 0.97331 0.88838 0.40739 0.0
H550 H 0.94492 0.84562 0.43118 0.0
H551 H 0.89207 0.8003 0.43098 0.0
H552 H 0.934 0.14157 0.14508 0.0
H553 H 0.92844 0.08952 0.14769 0.0
H554 H 0.82946 0.04902 0.1551 0.0
H555 H 0.83462 0.10028 0.15273 0.0
H556 H 0.85748 0.02779 0.18278 0.0
H557 H 0.89066 0.02026 0.10516 0.0
H558 H 0.91731 0.05364 0.11934 0.0
H559 H 0.8802 0.04875 0.11271 0.0
C560 C 0.91107 0.12155 0.14724 0.0
C561 C 0.88477 0.12518 0.1486 0.0
C562 C 0.90793 0.09184 0.14865 0.0
C563 C 0.87848 0.06541 0.15142 0.0
C564 C 0.85239 0.06909 0.15296 0.0
H565 H 0.77309 0.86836 0.15688 0.0
H566 H 0.79521 0.92482 0.15838 0.0
C567 C 0.85545 0.09854 0.15154 0.0
C568 C 0.87412 0.03359 0.15281 0.0
H569 H 0.87297 0.9756 0.12503 0.0
C570 C 0.86125 0.01648 0.17024 0.0
C571 C 0.87918 0.01895 0.13646 0.0
C572 C 0.89242 0.03614 0.11727 0.0
C573 C 0.85227 0.98482 0.17154 0.0
C574 C 0.85581 0.96976 0.15486 0.0
C575 C 0.87014 0.98721 0.13775 0.0
C576 C 0.84279 0.93555 0.15442 0.0
C577 C 0.83862 0.96764 0.19068 0.0
C578 C 0.86214 0.92286 0.15131 0.0
C579 C 0.84952 0.89055 0.15033 0.0
C580 C 0.81726 0.87037 0.15221 0.0
C581 C 0.79798 0.88324 0.15526 0.0
C582 C 0.81062 0.91549 0.15632 0.0
H583 H 0.8459 0.98385 0.20342 0.0
H584 H 0.8129 0.95552 0.1898 0.0
H585 H 0.84564 0.94993 0.19348 0.0
H586 H 0.88699 0.93796 0.14962 0.0
H587 H 0.86495 0.8814 0.14767 0.0
H588 H 0.29139 0.19904 0.41665 0.0
H589 H 0.2457 0.20467 0.41386 0.0
H590 H 0.18652 0.10511 0.4185 0.0
H591 H 0.23253 0.09906 0.42151 0.0
H592 H 0.19826 0.17833 0.38484 0.0
H593 H 0.15254 0.14053 0.4612 0.0
H594 H 0.19188 0.1515 0.45443 0.0
H595 H 0.16021 0.11462 0.44682 0.0
C596 C 0.26875 0.17819 0.41715 0.0
C597 C 0.26572 0.14854 0.4194 0.0
C598 C 0.2426 0.18152 0.4155 0.0
C599 C 0.21274 0.15538 0.41612 0.0
C600 C 0.2094 0.12564 0.41826 0.0
H601 H 0.04052 0.16454 0.41806 0.0
H602 H 0.07644 0.14425 0.41639 0.0
C603 C 0.23571 0.12223 0.4199 0.0
C604 C 0.18549 0.15991 0.41436 0.0
H605 H 0.12626 0.1584 0.44095 0.0
C606 C 0.18229 0.17366 0.39702 0.0
C607 C 0.16462 0.15365 0.43024 0.0
C608 C 0.1674 0.13943 0.44931 0.0
C609 C 0.15931 0.18212 0.39533 0.0
C610 C 0.13939 0.17726 0.41155 0.0
C611 C 0.14168 0.16225 0.42857 0.0
C612 C 0.11735 0.18928 0.41162 0.0
C613 C 0.15678 0.19643 0.37621 0.0
C614 C 0.12844 0.22134 0.40959 0.0
C615 C 0.10799 0.23298 0.41041 0.0
C616 C 0.07599 0.21282 0.41342 0.0
C617 C 0.06494 0.18067 0.41541 0.0
C618 C 0.08545 0.16904 0.4146 0.0
H619 H 0.16647 0.18965 0.36361 0.0
H620 H 0.13225 0.18938 0.37292 0.0
H621 H 0.17025 0.22218 0.37745 0.0
H622 H 0.15304 0.23748 0.40768 0.0
H623 H 0.11727 0.25782 0.40869 0.0
H624 H 0.15151 0.94775 0.1892 0.0
H625 H 0.0955 0.91057 0.19047 0.0
H626 H 0.08941 0.92167 0.12766 0.0
H627 H 0.14494 0.95964 0.12653 0.0
H628 H 0.04119 0.91941 0.14583 0.0
H629 H 0.05622 0.82206 0.17319 0.0
H630 H 0.07196 0.85496 0.18941 0.0
H631 H 0.08857 0.85866 0.1652 0.0
C632 C 0.13811 0.94219 0.17571 0.0
C633 C 0.15251 0.95641 0.15776 0.0
C634 C 0.10617 0.92088 0.17642 0.0
C635 C 0.08828 0.91281 0.15909 0.0
C636 C 0.10265 0.92747 0.14123 0.0
H637 H 0.92245 0.74345 0.13332 0.0
H638 H 0.97432 0.7882 0.13707 0.0
C639 C 0.13439 0.94913 0.14059 0.0
C640 C 0.05481 0.88859 0.15923 0.0
H641 H 1.00489 0.81194 0.16965 0.0
C642 C 0.0332 0.8959 0.15107 0.0
C643 C 0.04442 0.85785 0.16594 0.0
C644 C 0.0665 0.84776 0.17375 0.0
C645 C 1.00172 0.87318 0.14895 0.0
C646 C 0.99136 0.84248 0.15575 0.0
C647 C 1.0128 0.83548 0.16448 0.0
C648 C 0.95913 0.81647 0.15255 0.0
C649 C 0.98028 0.88199 0.13864 0.0
C650 C 0.93305 0.81751 0.15969 0.0
C651 C 0.90306 0.79197 0.15717 0.0
C652 C 0.89886 0.76477 0.14792 0.0
C653 C 0.92495 0.76398 0.14066 0.0
C654 C 0.95467 0.78957 0.14283 0.0
H655 H 0.99337 0.90384 0.12993 0.0
H656 H 0.96419 0.8632 0.12858 0.0
H657 H 0.96622 0.88581 0.14985 0.0
H658 H 0.93587 0.83769 0.16763 0.0
H659 H 0.88335 0.79307 0.16306 0.0
H660 H 0.77638 0.86984 0.40955 0.0
H661 H 0.79795 0.92626 0.40835 0.0
H662 H 0.89011 0.94022 0.4165 0.0
H663 H 0.86862 0.88371 0.41816 0.0
H664 H 0.87555 0.97672 0.4415 0.0
H665 H 0.8483 0.98662 0.36343 0.0
H666 H 0.81539 0.95776 0.37707 0.0
H667 H 0.84834 0.9526 0.37307 0.0
C668 C 0.80123 0.8849 0.4111 0.0
C669 C 0.8208 0.8723 0.41389 0.0
C670 C 0.81356 0.91711 0.41021 0.0
C671 C 0.84568 0.93737 0.41202 0.0
C672 C 0.8653 0.92495 0.41488 0.0
H673 H 0.93563 0.1429 0.42145 0.0
H674 H 0.93027 0.09099 0.41869 0.0
C675 C 0.853 0.89268 0.4157 0.0
C676 C 0.85836 0.97151 0.41177 0.0
H677 H 0.85939 0.02991 0.38437 0.0
C678 C 0.87258 0.98856 0.42891 0.0
C679 C 0.85464 0.98684 0.39526 0.0
C680 C 0.84112 0.97009 0.37609 0.0
C681 C 0.88134 0.02018 0.43041 0.0
C682 C 0.87608 0.03506 0.41424 0.0
C683 C 0.86331 0.01837 0.39677 0.0
C684 C 0.88021 0.0667 0.41587 0.0
C685 C 0.89454 0.03699 0.4496 0.0
C686 C 0.85395 0.07017 0.41495 0.0
C687 C 0.85687 0.09953 0.41647 0.0
C688 C 0.88623 0.12625 0.41888 0.0
C689 C 0.91267 0.1228 0.4197 0.0
C690 C 0.90967 0.09319 0.41819 0.0
H691 H 0.89322 0.02096 0.46155 0.0
H692 H 0.91928 0.05493 0.44738 0.0
H693 H 0.88192 0.04906 0.45448 0.0
H694 H 0.83102 0.05001 0.41316 0.0
H695 H 0.83595 0.10115 0.41573 0.0
H696 H 0.21915 0.07622 0.67762 0.0
H697 H 0.1978 0.11136 0.67775 0.0
H698 H 0.17918 0.09601 0.61534 0.0
H699 H 0.20093 0.06134 0.61508 0.0
H700 H 0.20922 0.15627 0.62352 0.0
H701 H 0.11034 0.09667 0.67552 0.0
H702 H 0.14622 0.10322 0.68604 0.0
H703 H 0.13009 0.07771 0.66516 0.0
C704 C 0.21008 0.08001 0.664 0.0
C705 C 0.2119 0.06619 0.64632 0.0
C706 C 0.19769 0.09994 0.66411 0.0
C707 C 0.18642 0.106 0.6466 0.0
C708 C 0.18764 0.09166 0.62903 0.0
H709 H 0.09986 0.22383 0.63841 0.0
H710 H 0.10729 0.17834 0.63788 0.0
C711 C 0.20024 0.07199 0.62888 0.0
C712 C 0.17593 0.12933 0.64618 0.0
H713 H 0.12723 0.15038 0.66828 0.0
C714 C 0.19102 0.15471 0.63316 0.0
C715 C 0.1519 0.12718 0.65855 0.0
C716 C 0.13347 0.09955 0.67196 0.0
C717 C 0.18359 0.17853 0.63268 0.0
C718 C 0.1609 0.17733 0.64586 0.0
C719 C 0.14487 0.1514 0.65835 0.0
C720 C 0.15511 0.20383 0.64756 0.0
C721 C 0.20034 0.20496 0.61813 0.0
C722 C 0.17919 0.23286 0.65373 0.0
C723 C 0.17511 0.25871 0.65397 0.0
C724 C 0.14672 0.25613 0.64818 0.0
C725 C 0.12206 0.22666 0.64284 0.0
C726 C 0.12625 0.20067 0.64255 0.0
H727 H 0.21006 0.19814 0.60556 0.0
H728 H 0.18458 0.21287 0.61221 0.0
H729 H 0.21992 0.22491 0.6257 0.0
H730 H 0.20143 0.23565 0.65805 0.0
H731 H 0.1945 0.28087 0.65847 0.0
H732 H 0.10407 0.82802 0.91763 0.0
H733 H 0.05326 0.8235 0.91456 0.0
H734 H 0.0953 0.92345 0.91666 0.0
H735 H 0.14682 0.92838 0.91992 0.0
H736 H 0.04276 0.89152 0.94119 0.0
H737 H 0.01753 0.84299 0.86566 0.0
H738 H 0.02945 0.82201 0.8817 0.0
H739 H 0.05623 0.86223 0.87589 0.0
C740 C 0.10274 0.84918 0.91741 0.0
C741 C 0.12967 0.87862 0.91895 0.0
C742 C 0.07358 0.8465 0.91549 0.0
C743 C 0.07056 0.87314 0.91494 0.0
C744 C 0.09721 0.90261 0.91684 0.0
H745 H 0.88379 0.84322 0.88929 0.0
H746 H 0.94014 0.86419 0.88756 0.0
C747 C 0.12659 0.90536 0.91874 0.0
C748 C 0.03922 0.86959 0.91315 0.0
H749 H 0.97322 0.8336 0.88542 0.0
C750 C 0.0277 0.87934 0.92884 0.0
C751 C 0.01975 0.85421 0.89687 0.0
C752 C 0.03147 0.84505 0.87898 0.0
C753 C 0.9966 0.87234 0.92926 0.0
C754 C 0.97645 0.85466 0.91375 0.0
C755 C 0.98853 0.84671 0.89746 0.0
C756 C 0.94246 0.84244 0.91478 0.0
C757 C 0.98551 0.88354 0.94648 0.0
C758 C 0.92501 0.82267 0.93037 0.0
C759 C 0.89294 0.8106 0.93135 0.0
C760 C 0.87754 0.81783 0.91665 0.0
C761 C 0.89495 0.83708 0.90078 0.0
C762 C 0.92714 0.84923 0.89983 0.0
H763 H 1.005 0.90457 0.95332 0.0
H764 H 0.96737 0.88908 0.94186 0.0
H765 H 0.97546 0.86499 0.95793 0.0
H766 H 0.93617 0.8163 0.94173 0.0
H767 H 0.88014 0.79532 0.94355 0.0
H768 H 0.80139 0.88143 0.64352 0.0
H769 H 0.84662 0.93416 0.64597 0.0
H770 H 0.7855 0.97186 0.6527 0.0
H771 H 0.7406 0.91987 0.65046 0.0
H772 H 0.86194 0.98717 0.62179 0.0
H773 H 0.84466 1.00888 0.69969 0.0
H774 H 0.82601 0.97031 0.68916 0.0
H775 H 0.81024 0.99559 0.68509 0.0
C776 C 0.79762 0.90095 0.64561 0.0
C777 C 0.7673 0.89631 0.64688 0.0
C778 C 0.82347 0.93103 0.647 0.0
C779 C 0.81938 0.95683 0.64989 0.0
C780 C 0.78921 0.95223 0.65093 0.0
H781 H 0.91455 0.15498 0.65216 0.0
H782 H 0.87885 0.09873 0.65314 0.0
C783 C 0.7635 0.92239 0.64951 0.0
C784 C 0.84632 0.9889 0.65118 0.0
H785 H 0.87733 0.05398 0.67999 0.0
C786 C 0.86573 1.00169 0.63462 0.0
C787 C 0.85118 1.00773 0.66796 0.0
C788 C 0.83211 0.99486 0.68656 0.0
C789 C 0.88878 0.03332 0.63399 0.0
C790 C 0.89273 0.05246 0.65048 0.0
C791 C 0.87412 0.03933 0.66732 0.0
C792 C 0.91481 0.0865 0.65017 0.0
C793 C 0.90769 0.04636 0.61536 0.0
C794 C 0.94693 0.09829 0.64845 0.0
C795 C 0.96741 0.13047 0.64778 0.0
C796 C 0.95614 0.15147 0.64889 0.0
C797 C 0.92397 0.1395 0.65098 0.0
C798 C 0.90355 0.10736 0.65167 0.0
H799 H 0.89761 0.03012 0.60271 0.0
H800 H 0.90944 0.06892 0.6113 0.0
H801 H 0.93157 0.05062 0.61787 0.0
H802 H 0.95615 0.08261 0.64759 0.0
H803 H 0.99201 0.13887 0.64601 0.0
H804 H 0.10397 0.22555 0.93384 0.0
H805 H 0.11017 0.17932 0.93497 0.0
H806 H 0.20549 0.23534 0.91612 0.0
H807 H 0.19979 0.28124 0.91516 0.0
H808 H 0.12879 0.15169 0.90477 0.0
H809 H 0.21173 0.19378 0.96705 0.0
H810 H 0.1879 0.21065 0.96092 0.0
H811 H 0.22322 0.22186 0.94743 0.0
C812 C 0.12624 0.22796 0.92998 0.0
C813 C 0.15147 0.25716 0.92463 0.0
C814 C 0.12971 0.20157 0.9306 0.0
C815 C 0.15846 0.20409 0.92598 0.0
C816 C 0.18332 0.23302 0.92017 0.0
H817 H 0.21824 0.07671 0.8895 0.0
H818 H 0.19706 0.11191 0.89165 0.0
C819 C 0.17993 0.25926 0.91958 0.0
C820 C 0.16305 0.17681 0.9271 0.0
H821 H 0.21063 0.15313 0.94739 0.0
C822 C 0.14634 0.15168 0.91428 0.0
C823 C 0.1856 0.17665 0.93975 0.0
C824 C 0.20292 0.20204 0.95471 0.0
C825 C 0.15269 0.12708 0.91311 0.0
C826 C 0.1768 0.12806 0.92478 0.0
C827 C 0.19241 0.1525 0.93826 0.0
C828 C 0.18702 0.10467 0.923 0.0
C829 C 0.13355 0.10036 0.89937 0.0
C830 C 0.18895 0.08929 0.93992 0.0
C831 C 0.20154 0.06969 0.93877 0.0
C832 C 0.2124 0.06497 0.92065 0.0
C833 C 0.20979 0.07974 0.90361 0.0
C834 C 0.19748 0.09966 0.90481 0.0
H835 H 0.11035 0.09786 0.89672 0.0
H836 H 0.14563 0.10491 0.8849 0.0
H837 H 0.1303 0.07803 0.90536 0.0
H838 H 0.18112 0.09284 0.95412 0.0
H839 H 0.20291 0.05828 0.9521 0.0
H840 H 0.10607 0.82954 0.65284 0.0
H841 H 0.05496 0.82422 0.6558 0.0
H842 H 0.09566 0.92401 0.65259 0.0
H843 H 0.14754 0.92972 0.64927 0.0
H844 H 0.03141 0.84739 0.68408 0.0
H845 H 0.0296 0.8924 0.6089 0.0
H846 H 0.05814 0.88187 0.61604 0.0
H847 H 0.06139 0.91761 0.62464 0.0
C848 C 0.10441 0.85052 0.65274 0.0
C849 C 0.13105 0.88011 0.65067 0.0
C850 C 0.07503 0.84737 0.65452 0.0
C851 C 0.07141 0.87365 0.65426 0.0
C852 C 0.09789 0.90337 0.65254 0.0
H853 H 0.88247 0.84218 0.67764 0.0
H854 H 0.93876 0.86347 0.68026 0.0
C855 C 0.12752 0.90659 0.65071 0.0
C856 C 0.03958 0.86915 0.65545 0.0
H857 H 0.98399 0.87281 0.62786 0.0
C858 C 0.02111 0.85335 0.67193 0.0
C859 C 0.0262 0.87674 0.63949 0.0
C860 C 0.04467 0.8929 0.62117 0.0
C861 C 0.98933 0.84384 0.67256 0.0
C862 C 0.97579 0.85076 0.6564 0.0
C863 C 0.99451 0.86762 0.64025 0.0
C864 C 0.94177 0.83826 0.6551 0.0
C865 C 0.97018 0.82502 0.69004 0.0
C866 C 0.92487 0.81728 0.64 0.0
C867 C 0.89284 0.8051 0.63849 0.0
C868 C 0.87696 0.81375 0.65199 0.0
C869 C 0.89393 0.83471 0.66718 0.0
C870 C 0.92609 0.84696 0.66867 0.0
H871 H 0.98293 0.81675 0.69945 0.0
H872 H 0.96406 0.83967 0.69925 0.0
H873 H 0.94822 0.8045 0.68505 0.0
H874 H 0.93648 0.81012 0.62944 0.0
H875 H 0.88047 0.7887 0.62678 0.0
H876 H 0.96775 0.15117 0.94609 0.0
H877 H 0.93102 0.09518 0.94734 0.0
H878 H 0.91338 0.09595 0.88502 0.0
H879 H 0.95064 0.15193 0.88364 0.0
H880 H 0.8709 0.06578 0.94066 0.0
H881 H 0.9248 0.02135 0.88804 0.0
H882 H 0.94517 0.06066 0.89737 0.0
H883 H 0.91839 0.05069 0.87715 0.0
C884 C 0.95615 0.13937 0.93263 0.0
C885 C 0.96207 0.15601 0.91477 0.0
C886 C 0.93524 0.10732 0.93334 0.0
C887 C 0.91968 0.0911 0.91623 0.0
C888 C 0.92568 0.10764 0.89833 0.0
H889 H 0.74203 0.92437 0.91162 0.0
H890 H 0.7868 0.97668 0.91122 0.0
C891 C 0.94686 0.13971 0.89757 0.0
C892 C 0.89562 0.05747 0.91748 0.0
H893 H 0.87157 0.98612 0.89678 0.0
C894 C 0.87129 0.04838 0.93117 0.0
C895 C 0.89624 0.0345 0.90537 0.0
C896 C 0.92274 0.04221 0.89131 0.0
C897 C 0.84714 0.01734 0.93263 0.0
C898 C 0.84677 0.99475 0.91971 0.0
C899 C 0.87164 1.0035 0.90651 0.0
C900 C 0.81999 0.96238 0.91915 0.0
C901 C 0.82223 1.00905 0.94808 0.0
C902 C 0.82383 0.93661 0.92301 0.0
C903 C 0.79807 0.9063 0.92312 0.0
C904 C 0.76807 0.90131 0.9193 0.0
C905 C 0.76462 0.92721 0.91491 0.0
C906 C 0.79025 0.95728 0.91474 0.0
H907 H 0.8307 0.02601 0.96043 0.0
H908 H 0.80217 1.00952 0.94126 0.0
H909 H 0.81398 0.98537 0.95421 0.0
H910 H 0.84664 0.93998 0.9263 0.0
H911 H 0.80161 0.88691 0.92646 0.0
H912 H 0.38992 0.19303 0.3722 0.0
H913 H 0.40036 0.21502 0.33836 0.0
H914 H 0.3128 0.13832 0.31915 0.0
H915 H 0.30278 0.11626 0.35233 0.0
H916 H 0.4009 0.17812 0.30342 0.0
H917 H 0.31549 0.21787 0.29548 0.0
H918 H 0.33051 0.21472 0.31918 0.0
H919 H 0.29954 0.18072 0.30763 0.0
C920 C 0.37273 0.18138 0.36077 0.0
C921 C 0.34554 0.15299 0.36481 0.0
C922 C 0.37873 0.19385 0.3415 0.0
C923 C 0.35716 0.17847 0.32629 0.0
C924 C 0.32954 0.15085 0.33067 0.0
H925 H 0.30055 0.11504 0.21823 0.0
H926 H 0.31248 0.1379 0.25101 0.0
C927 C 0.32389 0.13819 0.34964 0.0
C928 C 0.3639 0.18863 0.30531 0.0
H929 H 0.32795 0.19918 0.26556 0.0
C930 C 0.38588 0.18399 0.29511 0.0
C931 C 0.3443 0.19632 0.29453 0.0
C932 C 0.32132 0.20301 0.30479 0.0
C933 C 0.38633 0.1834 0.27432 0.0
C934 C 0.36445 0.18786 0.26355 0.0
C935 C 0.3447 0.19569 0.27379 0.0
C936 C 0.3568 0.17739 0.24272 0.0
C937 C 0.40805 0.1749 0.26406 0.0
C938 C 0.37739 0.19251 0.22688 0.0
C939 C 0.37038 0.17945 0.20782 0.0
C940 C 0.34292 0.15102 0.20458 0.0
C941 C 0.32195 0.13689 0.2203 0.0
C942 C 0.32871 0.14999 0.23907 0.0
H943 H 0.42295 0.17113 0.27463 0.0
H944 H 0.39448 0.15334 0.2553 0.0
H945 H 0.42328 0.19381 0.25367 0.0
H946 H 0.39913 0.21382 0.22935 0.0
H947 H 0.38698 0.1907 0.19594 0.0
H948 H 0.83329 0.64975 0.37092 0.0
H949 H 0.84475 0.6391 0.33722 0.0
H950 H 0.84186 0.71954 0.31553 0.0
H951 H 0.83029 0.7299 0.34861 0.0
H952 H 0.80442 0.62698 0.30483 0.0
H953 H 0.91899 0.72837 0.28779 0.0
H954 H 0.90538 0.71658 0.31284 0.0
H955 H 0.89415 0.74056 0.29907 0.0
C956 C 0.83585 0.66544 0.35896 0.0
C957 C 0.83087 0.6906 0.36231 0.0
C958 C 0.84234 0.65936 0.33977 0.0
C959 C 0.84471 0.67885 0.32388 0.0
C960 C 0.84093 0.7046 0.32755 0.0
H961 H 0.77976 0.68236 0.21789 0.0
H962 H 0.79231 0.67204 0.2507 0.0
C963 C 0.83403 0.71035 0.34648 0.0
C964 C 0.84713 0.67092 0.30303 0.0
H965 H 0.8828 0.70693 0.25985 0.0
C966 C 0.82219 0.64389 0.29505 0.0
C967 C 0.87049 0.69264 0.29019 0.0
C968 C 0.89893 0.721 0.29797 0.0
C969 C 0.81815 0.63995 0.2745 0.0
C970 C 0.83942 0.6637 0.2617 0.0
C971 C 0.86627 0.68886 0.26964 0.0
C972 C 0.83074 0.66637 0.2411 0.0
C973 C 0.78987 0.6115 0.26667 0.0
C974 C 0.84829 0.66672 0.22464 0.0
C975 C 0.84084 0.67235 0.20557 0.0
C976 C 0.81636 0.67854 0.20295 0.0
C977 C 0.7988 0.67774 0.21944 0.0
C978 C 0.8058 0.67161 0.23823 0.0
H979 H 0.78212 0.59142 0.27695 0.0
H980 H 0.77056 0.61654 0.2652 0.0
H981 H 0.79452 0.6049 0.25192 0.0
H982 H 0.86789 0.6631 0.2266 0.0
H983 H 0.85483 0.67304 0.19308 0.0
H984 H 0.83746 0.19612 0.19474 0.0
H985 H 0.81562 0.18411 0.22863 0.0
H986 H 0.90197 0.19479 0.2503 0.0
H987 H 0.92364 0.20687 0.2171 0.0
H988 H 0.84167 0.13847 0.26438 0.0
H989 H 0.85065 0.25438 0.27428 0.0
H990 H 0.833 0.23141 0.25248 0.0
H991 H 0.87416 0.24946 0.25586 0.0
C992 C 0.85148 0.19547 0.20677 0.0
C993 C 0.88228 0.20257 0.20334 0.0
C994 C 0.83908 0.18875 0.22606 0.0
C995 C 0.85728 0.1887 0.24197 0.0
C996 C 0.88752 0.19468 0.23828 0.0
H997 H 0.92081 0.19912 0.35083 0.0
H998 H 0.89893 0.1863 0.31781 0.0
C999 C 0.8999 0.20166 0.21926 0.0
C1000 C 0.84645 0.18406 0.26281 0.0
H1001 H 0.85012 0.22723 0.30303 0.0
C1002 C 0.84232 0.15738 0.27279 0.0
C1003 C 0.8472 0.20866 0.27379 0.0
C1004 C 0.85145 0.2377 0.26369 0.0
C1005 C 0.84181 0.15591 0.29353 0.0
C1006 C 0.84606 0.18196 0.30454 0.0
C1007 C 0.84692 0.20728 0.29458 0.0
C1008 C 0.85656 0.18619 0.32543 0.0
C1009 C 0.83898 0.12735 0.3035 0.0
C1010 C 0.84 0.19041 0.34086 0.0
C1011 C 0.85247 0.19748 0.36006 0.0
C1012 C 0.88197 0.2012 0.3638 0.0
C1013 C 0.89803 0.19638 0.34839 0.0
C1014 C 0.88545 0.18887 0.3295 0.0
H1015 H 0.82551 0.1063 0.29427 0.0
H1016 H 0.86253 0.13052 0.30563 0.0
H1017 H 0.82758 0.12342 0.31818 0.0
H1018 H 0.8178 0.18879 0.33797 0.0
H1019 H 0.83979 0.20137 0.37168 0.0
H1020 H 0.09997 0.31248 0.71841 0.0
H1021 H 0.12102 0.32394 0.75162 0.0
H1022 H 0.21404 0.37438 0.72795 0.0
H1023 H 0.19278 0.36297 0.69403 0.0
H1024 H 0.20055 0.32745 0.76155 0.0
H1025 H 0.16329 0.41344 0.7773 0.0
H1026 H 0.13379 0.37898 0.76539 0.0
H1027 H 0.16943 0.40414 0.75248 0.0
C1028 C 0.12495 0.32604 0.72013 0.0
C1029 C 0.14472 0.33697 0.70358 0.0
C1030 C 0.13693 0.33264 0.73918 0.0
C1031 C 0.16901 0.35036 0.74227 0.0
C1032 C 0.18915 0.36084 0.72584 0.0
H1033 H 0.19129 0.38684 0.86966 0.0
H1034 H 0.20704 0.39758 0.83479 0.0
C1035 C 0.17703 0.35433 0.70654 0.0
C1036 C 0.18044 0.3571 0.76291 0.0
H1037 H 0.16783 0.38597 0.80542 0.0
C1038 C 0.19428 0.34098 0.77112 0.0
C1039 C 0.17272 0.37512 0.77535 0.0
C1040 C 0.15925 0.39418 0.76717 0.0
C1041 C 0.19802 0.34021 0.79169 0.0
C1042 C 0.18705 0.35544 0.80431 0.0
C1043 C 0.17594 0.37394 0.79588 0.0
C1044 C 0.1827 0.34915 0.82598 0.0
C1045 C 0.2127 0.32217 0.79968 0.0
C1046 C 0.16426 0.3184 0.83276 0.0
C1047 C 0.15534 0.31227 0.85259 0.0
C1048 C 0.16432 0.33675 0.86609 0.0
C1049 C 0.18404 0.36749 0.85959 0.0
C1050 C 0.19301 0.37364 0.83967 0.0
H1051 H 0.23035 0.32303 0.78921 0.0
H1052 H 0.22392 0.3313 0.81419 0.0
H1053 H 0.19454 0.29737 0.80152 0.0
H1054 H 0.15522 0.29911 0.82252 0.0
H1055 H 0.14012 0.28835 0.85714 0.0
H1056 H 0.19822 0.91067 0.84947 0.0
H1057 H 0.18667 0.88881 0.81643 0.0
H1058 H 0.19122 0.80876 0.8371 0.0
H1059 H 0.20271 0.83084 0.87076 0.0
H1060 H 0.22969 0.83864 0.80462 0.0
H1061 H 0.11233 0.81826 0.78876 0.0
H1062 H 0.13541 0.85573 0.79986 0.0
H1063 H 0.12651 0.82107 0.81369 0.0
C1064 C 0.19602 0.88803 0.84714 0.0
C1065 C 0.20135 0.87244 0.86265 0.0
C1066 C 0.18913 0.8754 0.82823 0.0
C1067 C 0.18754 0.84687 0.82427 0.0
C1068 C 0.19191 0.83061 0.83988 0.0
H1069 H 0.17812 0.83186 0.6933 0.0
H1070 H 0.16578 0.80889 0.72691 0.0
C1071 C 0.19839 0.84315 0.85906 0.0
C1072 C 0.1856 0.83707 0.80332 0.0
H1073 H 0.14865 0.83574 0.7605 0.0
C1074 C 0.21139 0.83681 0.79503 0.0
C1075 C 0.16158 0.83416 0.7907 0.0
C1076 C 0.13225 0.83197 0.79878 0.0
C1077 C 0.21546 0.83748 0.77445 0.0
C1078 C 0.19335 0.8387 0.76189 0.0
C1079 C 0.16583 0.8352 0.77011 0.0
C1080 C 0.20145 0.85035 0.74126 0.0
C1081 C 0.24455 0.83921 0.76631 0.0
C1082 C 0.22527 0.88113 0.73828 0.0
C1083 C 0.23188 0.89422 0.71944 0.0
C1084 C 0.21502 0.87684 0.70299 0.0
C1085 C 0.19156 0.84567 0.70575 0.0
C1086 C 0.18452 0.8326 0.72487 0.0
H1087 H 0.2534 0.82772 0.77642 0.0
H1088 H 0.24036 0.82813 0.75154 0.0
H1089 H 0.26287 0.86402 0.76477 0.0
H1090 H 0.23825 0.89545 0.7507 0.0
H1091 H 0.25012 0.91827 0.71781 0.0
H1092 H 0.72738 0.81665 0.71661 0.0
H1093 H 0.71722 0.82919 0.74947 0.0
H1094 H 0.63968 0.83613 0.72709 0.0
H1095 H 0.65008 0.82366 0.69354 0.0
H1096 H 0.71084 0.88469 0.76232 0.0
H1097 H 0.60686 0.76728 0.77397 0.0
H1098 H 0.63553 0.77262 0.75561 0.0
H1099 H 0.61125 0.78937 0.75175 0.0
C1100 C 0.70831 0.82113 0.71854 0.0
C1101 C 0.68943 0.81904 0.70253 0.0
C1102 C 0.70259 0.82839 0.73736 0.0
C1103 C 0.67765 0.83345 0.74075 0.0
C1104 C 0.65902 0.83222 0.72475 0.0
H1105 H 0.64806 0.82272 0.87045 0.0
H1106 H 0.63778 0.83406 0.83656 0.0
C1107 C 0.66502 0.82523 0.70564 0.0
C1108 C 0.67121 0.83839 0.76145 0.0
H1109 H 0.63307 0.79565 0.80231 0.0
C1110 C 0.69309 0.86568 0.77102 0.0
C1111 C 0.64802 0.81366 0.7728 0.0
C1112 C 0.62393 0.78398 0.76315 0.0
C1113 C 0.69415 0.86772 0.79172 0.0
C1114 C 0.67315 0.84164 0.80313 0.0
C1115 C 0.64922 0.81562 0.79356 0.0
C1116 C 0.67989 0.83827 0.8241 0.0
C1117 C 0.7192 0.89698 0.80125 0.0
C1118 C 0.7068 0.8369 0.82827 0.0
C1119 C 0.71237 0.83008 0.84728 0.0
C1120 C 0.69131 0.82466 0.86269 0.0
C1121 C 0.66479 0.8271 0.85883 0.0
C1122 C 0.65889 0.83347 0.83952 0.0
H1123 H 0.72586 0.91766 0.79169 0.0
H1124 H 0.71157 0.90088 0.81587 0.0
H1125 H 0.74017 0.89481 0.80342 0.0
H1126 H 0.72303 0.83991 0.81659 0.0
H1127 H 0.73297 0.8283 0.84981 0.0
H1128 H 0.19274 0.89078 0.99167 0.0
H1129 H 0.21227 0.93048 1.01762 0.0
H1130 H 0.29738 0.98423 0.9847 0.0
H1131 H 0.27882 0.94374 0.95957 0.0
H1132 H 0.31137 0.98558 1.02074 0.0
H1133 H 0.21558 1.0119 1.01866 0.0
H1134 H 0.20171 0.97173 1.02435 0.0
H1135 H 0.21927 0.98725 1.00063 0.0
C1136 C 0.21562 0.91107 0.99003 0.0
C1137 C 0.23403 0.91436 0.97341 0.0
C1138 C 0.22666 0.934 1.00477 0.0
C1139 C 0.25605 0.961 1.00297 0.0
C1140 C 0.27456 0.96389 0.98648 0.0
H1141 H 0.31645 0.129 0.07443 0.0
H1142 H 0.29662 0.08968 0.04822 0.0
C1143 C 0.26384 0.94073 0.97203 0.0
C1144 C 0.26823 0.9858 1.01846 0.0
H1145 H 0.25082 0.03325 0.04564 0.0
C1146 C 0.29812 0.99608 1.02606 0.0
C1147 C 0.2514 1.00017 1.02525 0.0
C1148 C 0.22038 0.99245 1.01664 0.0
C1149 C 0.31147 0.01988 0.04022 0.0
C1150 C 0.29395 0.033 0.04785 0.0
C1151 C 0.26421 0.02302 0.04009 0.0
C1152 C 0.30606 0.05705 0.0638 0.0
C1153 C 0.34464 0.03128 0.04632 0.0
C1154 C 0.31775 0.05193 0.08145 0.0
C1155 C 0.32981 0.07471 0.09616 0.0
C1156 C 0.32938 0.10271 0.09398 0.0
C1157 C 0.31706 0.10764 0.07656 0.0
C1158 C 0.3056 0.08509 0.0616 0.0
H1159 H 0.35776 0.02717 0.03452 0.0
H1160 H 0.35703 0.05653 0.04977 0.0
H1161 H 0.34479 0.01823 0.05962 0.0
H1162 H 0.31752 0.03023 0.08392 0.0
H1163 H 0.33928 0.07022 0.10935 0.0
H1164 H 0.75729 0.68003 0.46359 0.0
H1165 H 0.74 0.70362 0.48854 0.0
H1166 H 0.83344 0.75561 0.51101 0.0
H1167 H 0.85082 0.73149 0.48611 0.0
H1168 H 0.79143 0.73003 0.54055 0.0
H1169 H 0.7525 0.79057 0.48925 0.0
H1170 H 0.73442 0.74973 0.48404 0.0
H1171 H 0.77582 0.77402 0.48124 0.0
C1172 C 0.7742 0.69655 0.47382 0.0
C1173 C 0.80547 0.70409 0.47281 0.0
C1174 C 0.76432 0.71025 0.48797 0.0
C1175 C 0.78551 0.73203 0.50139 0.0
C1176 C 0.8167 0.73913 0.50069 0.0
H1177 H 0.73191 0.84116 0.57802 0.0
H1178 H 0.75681 0.82561 0.55257 0.0
C1179 C 0.82661 0.7253 0.48651 0.0
C1180 C 0.77466 0.74621 0.5166 0.0
H1181 H 0.73403 0.78464 0.5227 0.0
C1182 C 0.77914 0.74222 0.53662 0.0
C1183 C 0.7591 0.76269 0.51155 0.0
C1184 C 0.75546 0.76982 0.49035 0.0
C1185 C 0.76751 0.75312 0.55169 0.0
C1186 C 0.75021 0.76783 0.54668 0.0
C1187 C 0.74681 0.77295 0.52664 0.0
C1188 C 0.73496 0.77742 0.56201 0.0
C1189 C 0.77433 0.74912 0.57284 0.0
C1190 C 0.71389 0.7555 0.57558 0.0
C1191 C 0.69988 0.76439 0.59016 0.0
C1192 C 0.70625 0.79535 0.59138 0.0
C1193 C 0.72663 0.81716 0.57748 0.0
C1194 C 0.74086 0.80828 0.56294 0.0
H1195 H 0.79558 0.74713 0.57403 0.0
H1196 H 0.77748 0.76903 0.58193 0.0
H1197 H 0.75461 0.72745 0.57899 0.0
H1198 H 0.70814 0.73138 0.57488 0.0
H1199 H 0.684 0.74696 0.60051 0.0
H1200 H 0.08667 0.34057 0.96528 0.0
H1201 H 0.04618 0.31663 0.99051 0.0
H1202 H 0.09012 0.26708 1.01372 0.0
H1203 H 0.13126 0.29165 0.98859 0.0
H1204 H 1.00397 0.25676 0.9977 0.0
H1205 H 0.07984 0.30614 0.06329 0.0
H1206 H 0.09343 0.31959 0.03851 0.0
H1207 H 0.09033 0.2839 0.04739 0.0
C1208 C 0.08782 0.32467 0.97581 0.0
C1209 C 0.11226 0.31812 0.97501 0.0
C1210 C 0.06457 0.31092 0.99022 0.0
C1211 C 0.06516 0.29029 1.00426 0.0
C1212 C 0.08943 0.28342 1.00337 0.0
H1213 H 0.90062 0.17677 0.08002 0.0
H1214 H 0.94148 0.19265 0.05477 0.0
C1215 C 0.11288 0.29737 0.98896 0.0
C1216 C 0.04012 0.27604 1.01957 0.0
H1217 H 0.02676 0.27081 0.0694 0.0
C1218 C 1.00898 0.25973 1.01339 0.0
C1219 C 0.04654 0.28011 0.04007 0.0
C1220 C 0.0793 0.29861 0.04778 0.0
C1221 C 0.98419 0.24787 1.02702 0.0
C1222 C 0.99061 0.25175 0.04752 0.0
C1223 C 0.02176 0.26763 0.05372 0.0
C1224 C 0.96555 0.24146 0.06277 0.0
C1225 C 0.95138 0.23238 1.01926 0.0
C1226 C 0.96568 0.26332 0.07599 0.0
C1227 C 0.94261 0.25423 0.09048 0.0
C1228 C 0.91881 0.223 0.09217 0.0
C1229 C 0.91851 0.20104 0.07895 0.0
C1230 C 0.94181 0.21014 0.06447 0.0
H1231 H 0.95067 0.23823 1.00348 0.0
H1232 H 0.94089 0.20674 1.02046 0.0
H1233 H 0.93689 0.23934 1.02797 0.0
H1234 H 0.98365 0.28758 0.07506 0.0
H1235 H 0.94349 0.27172 0.10044 0.0
H1236 H 0.30037 0.12926 0.48815 0.0
H1237 H 0.2752 0.0878 0.51308 0.0
H1238 H 0.32647 0.04484 0.49135 0.0
H1239 H 0.35115 0.08577 0.46632 0.0
H1240 H 0.26561 1.00209 0.49734 0.0
H1241 H 0.31281 0.07721 0.56352 0.0
H1242 H 0.29156 0.08815 0.54705 0.0
H1243 H 0.32739 0.09102 0.53894 0.0
C1244 C 0.30638 0.11106 0.48881 0.0
C1245 C 0.32776 0.11079 0.47531 0.0
C1246 C 0.29206 0.08742 0.50311 0.0
C1247 C 0.29917 0.06329 0.5043 0.0
C1248 C 0.32056 0.06312 0.49078 0.0
H1249 H 0.27717 0.93938 0.59988 0.0
H1250 H 0.29383 0.97986 0.57457 0.0
C1251 C 0.33475 0.08661 0.47651 0.0
C1252 C 0.28435 0.03799 0.51943 0.0
H1253 H 0.27734 0.02393 0.5692 0.0
C1254 C 0.26807 1.00687 0.51306 0.0
C1255 C 0.28771 0.04416 0.53997 0.0
C1256 C 0.30603 0.0769 0.54785 0.0
C1257 C 0.25552 0.98184 0.52658 0.0
C1258 C 0.25879 0.98802 0.54712 0.0
C1259 C 0.27464 0.01915 0.55348 0.0
C1260 C 0.24797 0.9627 0.56226 0.0
C1261 C 0.23992 0.94903 0.51871 0.0
C1262 C 0.21654 0.93938 0.56388 0.0
C1263 C 0.20694 0.91595 0.57837 0.0
C1264 C 0.22856 0.91567 0.59162 0.0
C1265 C 0.25993 0.93897 0.58992 0.0
C1266 C 0.26949 0.96222 0.57547 0.0
H1267 H 0.24578 0.94839 0.50294 0.0
H1268 H 0.24671 0.93434 0.5274 0.0
H1269 H 0.21435 0.93863 0.51989 0.0
H1270 H 0.19936 0.93952 0.55414 0.0
H1271 H 0.1826 0.8984 0.57942 0.0
H1272 H 0.84483 0.72773 0.07805 0.0
H1273 H 0.82853 0.75288 0.05314 0.0
H1274 H 0.73538 0.70447 0.0768 0.0
H1275 H 0.7516 0.67983 0.10174 0.0
H1276 H 0.7856 0.72824 1.02412 0.0
H1277 H 0.75183 0.79291 0.07545 0.0
H1278 H 0.77395 0.77495 0.08331 0.0
H1279 H 0.73236 0.75206 0.08107 0.0
C1280 C 0.82091 0.72255 0.07791 0.0
C1281 C 0.79957 0.70204 0.09194 0.0
C1282 C 0.81162 0.73697 0.06372 0.0
C1283 C 0.78086 0.73118 0.06334 0.0
C1284 C 0.75943 0.7101 0.0771 0.0
H1285 H 0.68089 0.75012 0.96499 0.0
H1286 H 0.70425 0.73344 0.99047 0.0
C1287 C 0.76869 0.69579 0.09125 0.0
C1288 C 0.77066 0.74605 0.04814 0.0
H1289 H 0.73295 0.78741 0.04222 0.0
C1290 C 0.77437 0.74144 1.02809 0.0
C1291 C 0.75647 0.7638 0.05324 0.0
C1292 C 0.75371 0.77153 0.07443 0.0
C1293 C 0.76325 0.75298 1.01307 0.0
C1294 C 0.7473 0.76905 1.01817 0.0
C1295 C 0.74472 0.77475 0.03822 0.0
C1296 C 0.73247 0.77936 1.00297 0.0
C1297 C 0.76903 0.74796 0.99188 0.0
C1298 C 0.73934 0.81055 1.00191 0.0
C1299 C 0.72549 0.82007 0.98748 0.0
C1300 C 0.70456 0.79858 0.9738 0.0
C1301 C 0.6972 0.76731 0.97517 0.0
C1302 C 0.71078 0.75778 0.98966 0.0
H1303 H 0.79008 0.74566 0.99045 0.0
H1304 H 0.74895 0.72607 0.98642 0.0
H1305 H 0.77196 0.76744 0.98233 0.0
H1306 H 0.75577 0.82764 1.01209 0.0
H1307 H 0.73154 0.8443 0.98681 0.0
H1308 H 0.1318 0.29269 0.57952 0.0
H1309 H 0.09157 0.26829 0.55399 0.0
H1310 H 0.04917 0.32086 0.57433 0.0
H1311 H 0.08869 0.34461 0.59993 0.0
H1312 H 1.00617 0.26066 0.5686 0.0
H1313 H 0.08325 0.30587 0.50279 0.0
H1314 H 0.09281 0.28402 0.51975 0.0
H1315 H 0.09656 0.32048 0.52733 0.0
C1316 C 0.114 0.29915 0.57839 0.0
C1317 C 0.11342 0.32059 0.59169 0.0
C1318 C 0.09107 0.28529 0.56376 0.0
C1319 C 0.06743 0.29296 0.56203 0.0
C1320 C 0.06706 0.3145 0.5753 0.0
H1321 H 0.94728 0.27341 0.46507 0.0
H1322 H 0.98751 0.28946 0.49029 0.0
C1323 C 0.08977 0.32817 0.5899 0.0
C1324 C 0.04262 0.27844 0.54674 0.0
H1325 H 0.02995 0.27162 0.49688 0.0
C1326 C 1.01139 0.26294 0.55291 0.0
C1327 C 0.04934 0.2816 0.52624 0.0
C1328 C 0.08227 0.29911 0.51855 0.0
C1329 C 0.98681 0.25104 0.53925 0.0
C1330 C 0.99352 0.25407 0.51875 0.0
C1331 C 0.02474 0.26911 0.51257 0.0
C1332 C 0.96868 0.24366 0.50346 0.0
C1333 C 0.95393 0.23648 0.54695 0.0
C1334 C 0.94459 0.21247 0.5023 0.0
C1335 C 0.9213 0.20327 0.48792 0.0
C1336 C 0.92193 0.22501 0.47427 0.0
C1337 C 0.94614 0.2561 0.47538 0.0
C1338 C 0.96924 0.26529 0.48976 0.0
H1339 H 0.95317 0.24294 0.56256 0.0
H1340 H 0.93993 0.24362 0.53787 0.0
H1341 H 0.94292 0.21075 0.54626 0.0
H1342 H 0.94392 0.19515 0.51239 0.0
H1343 H 0.90308 0.1791 0.48731 0.0
H1344 H 0.6508 0.11735 0.1355 0.0
H1345 H 0.59849 0.10968 0.13963 0.0
H1346 H 0.63629 0.19678 0.17078 0.0
H1347 H 0.68889 0.20492 0.16644 0.0
H1348 H 0.56514 0.10783 0.17521 0.0
H1349 H 0.58552 0.20487 0.12463 0.0
H1350 H 0.61064 0.18828 0.12515 0.0
H1351 H 0.61338 0.21477 0.14413 0.0
C1352 C 0.64804 0.13499 0.14315 0.0
C1353 C 0.67411 0.16195 0.15044 0.0
C1354 C 0.61809 0.13043 0.14562 0.0
C1355 C 0.61351 0.15281 0.1553 0.0
C1356 C 0.63934 0.17939 0.16305 0.0
H1357 H 0.45404 0.17734 0.1707 0.0
H1358 H 0.50468 0.1808 0.17223 0.0
C1359 C 0.66936 0.1839 0.16068 0.0
C1360 C 0.58177 0.1486 0.15681 0.0
H1361 H 0.53725 0.17917 0.14114 0.0
C1362 C 0.55897 0.1234 0.16779 0.0
C1363 C 0.57377 0.16886 0.14704 0.0
C1364 C 0.59696 0.1956 0.13442 0.0
C1365 C 0.52853 0.1183 0.16958 0.0
C1366 C 0.5205 0.13856 0.15976 0.0
C1367 C 0.54336 0.16368 0.14873 0.0
C1368 C 0.48873 0.13457 0.16074 0.0
C1369 C 0.50551 0.09173 0.18236 0.0
C1370 C 0.46256 0.10716 0.15408 0.0
C1371 C 0.43329 0.10497 0.15336 0.0
C1372 C 0.42978 0.13035 0.15899 0.0
C1373 C 0.45587 0.15737 0.16615 0.0
C1374 C 0.48493 0.15943 0.16703 0.0
H1375 H 0.51735 0.08419 0.19311 0.0
H1376 H 0.49031 0.0983 0.19061 0.0
H1377 H 0.49061 0.07153 0.17283 0.0
H1378 H 0.46494 0.08788 0.14875 0.0
H1379 H 0.41377 0.08396 0.14758 0.0
H1380 H 0.69759 0.61445 0.42015 0.0
H1381 H 0.65086 0.56276 0.41906 0.0
H1382 H 0.70648 0.52252 0.40117 0.0
H1383 H 0.75313 0.57366 0.40247 0.0
H1384 H 0.6237 0.51839 0.38881 0.0
H1385 H 0.6626 0.4724 0.45061 0.0
H1386 H 0.68107 0.5134 0.44482 0.0
H1387 H 0.68994 0.48822 0.43058 0.0
C1388 C 0.69985 0.59463 0.41584 0.0
C1389 C 0.72921 0.59821 0.41163 0.0
C1390 C 0.67312 0.56511 0.41525 0.0
C1391 C 0.67529 0.53869 0.41045 0.0
C1392 C 0.70434 0.54244 0.40539 0.0
H1393 H 0.54371 0.3389 0.40799 0.0
H1394 H 0.58928 0.39088 0.40341 0.0
C1395 C 0.73101 0.5718 0.40606 0.0
C1396 C 0.64737 0.50708 0.4111 0.0
H1397 H 0.61754 0.43584 0.43343 0.0
C1398 C 0.62228 0.50036 0.39861 0.0
C1399 C 0.64557 0.48356 0.4239 0.0
C1400 C 0.67108 0.48975 0.43838 0.0
C1401 C 0.59565 0.47059 0.39833 0.0
C1402 C 0.59392 0.44709 0.41109 0.0
C1403 C 0.61902 0.45381 0.42355 0.0
C1404 C 0.5658 0.41572 0.4124 0.0
C1405 C 0.56977 0.4644 0.38419 0.0
C1406 C 0.53752 0.41245 0.41894 0.0
C1407 C 0.51155 0.38289 0.42155 0.0
C1408 C 0.5133 0.35589 0.41777 0.0
C1409 C 0.54152 0.35921 0.41086 0.0
C1410 C 0.56759 0.38887 0.40833 0.0
H1411 H 0.57798 0.48167 0.37192 0.0
H1412 H 0.55951 0.44066 0.37783 0.0
H1413 H 0.55118 0.46603 0.39226 0.0
H1414 H 0.53572 0.43279 0.42249 0.0
H1415 H 0.49009 0.38116 0.4267 0.0
H1416 H 0.84074 0.27979 0.15099 0.0
H1417 H 0.83789 0.32731 0.15281 0.0
H1418 H 0.93783 0.38185 0.15557 0.0
H1419 H 0.94104 0.33415 0.15325 0.0
H1420 H 0.85689 0.37173 0.18102 0.0
H1421 H 0.91908 0.42392 0.11056 0.0
H1422 H 0.90591 0.38396 0.11726 0.0
H1423 H 0.94065 0.41494 0.12803 0.0
C1424 C 0.86224 0.30181 0.15198 0.0
C1425 C 0.89119 0.30305 0.15185 0.0
C1426 C 0.86051 0.32904 0.15305 0.0
C1427 C 0.88762 0.35823 0.15402 0.0
C1428 C 0.91659 0.35964 0.15437 0.0
H1429 H 0.90808 0.54416 0.15519 0.0
H1430 H 0.91745 0.5003 0.15805 0.0
C1431 C 0.91839 0.33231 0.15317 0.0
C1432 C 0.8851 0.38691 0.15468 0.0
H1433 H 0.90362 0.45386 0.12944 0.0
C1434 C 0.86719 0.38973 0.16977 0.0
C1435 C 0.89852 0.41042 0.13999 0.0
C1436 C 0.9169 0.40816 0.12293 0.0
C1437 C 0.86221 0.41524 0.17051 0.0
C1438 C 0.87519 0.43843 0.15565 0.0
C1439 C 0.89368 0.43603 0.14082 0.0
C1440 C 0.86918 0.46493 0.15488 0.0
C1441 C 0.8432 0.41723 0.18725 0.0
C1442 C 0.83891 0.45962 0.15209 0.0
C1443 C 0.83343 0.48465 0.15053 0.0
C1444 C 0.85815 0.51553 0.15168 0.0
C1445 C 0.88843 0.52071 0.15458 0.0
C1446 C 0.89388 0.49567 0.15607 0.0
H1447 H 0.84193 0.40247 0.2 0.0
H1448 H 0.85302 0.44163 0.19236 0.0
H1449 H 0.81916 0.40894 0.18204 0.0
H1450 H 0.81955 0.4361 0.1508 0.0
H1451 H 0.80984 0.47981 0.14839 0.0
H1452 H 0.41936 0.09312 0.4228 0.0
H1453 H 0.47088 0.09775 0.42151 0.0
H1454 H 0.51102 0.19332 0.40249 0.0
H1455 H 0.46007 0.18916 0.40407 0.0
H1456 H 0.51467 0.11342 0.39143 0.0
H1457 H 0.56195 0.20121 0.45123 0.0
H1458 H 0.52098 0.17895 0.44587 0.0
H1459 H 0.54623 0.21232 0.43099 0.0
C1460 C 0.43912 0.11505 0.41821 0.0
C1461 C 0.43557 0.14086 0.41378 0.0
C1462 C 0.46856 0.11768 0.4175 0.0
C1463 C 0.49494 0.14611 0.41235 0.0
C1464 C 0.49118 0.17141 0.40704 0.0
H1465 H 0.69414 0.21308 0.40695 0.0
H1466 H 0.64215 0.20668 0.40301 0.0
C1467 C 0.46191 0.1689 0.40785 0.0
C1468 C 0.52649 0.14964 0.41285 0.0
H1469 H 0.59813 0.19195 0.43397 0.0
C1470 C 0.53289 0.1305 0.40078 0.0
C1471 C 0.55029 0.17194 0.42508 0.0
C1472 C 0.54452 0.19208 0.43917 0.0
C1473 C 0.56256 0.13343 0.40037 0.0
C1474 C 0.58634 0.15584 0.41251 0.0
C1475 C 0.57995 0.17498 0.42455 0.0
C1476 C 0.61769 0.15906 0.41359 0.0
C1477 C 0.56836 0.11286 0.38671 0.0
C1478 C 0.6212 0.13445 0.42084 0.0
C1479 C 0.65079 0.13805 0.42312 0.0
C1480 C 0.67758 0.16641 0.41825 0.0
C1481 C 0.674 0.19089 0.41067 0.0
C1482 C 0.64433 0.1873 0.4085 0.0
H1483 H 0.55068 0.10293 0.37482 0.0
H1484 H 0.59177 0.12597 0.37983 0.0
H1485 H 0.56721 0.09322 0.39532 0.0
H1486 H 0.60106 0.11263 0.42517 0.0
H1487 H 0.65269 0.11863 0.42881 0.0
H1488 H 0.49121 0.3606 0.1706 0.0
H1489 H 0.53327 0.4146 0.17397 0.0
H1490 H 0.58955 0.39695 0.13334 0.0
H1491 H 0.54798 0.34285 0.13015 0.0
H1492 H 0.59761 0.43981 0.18543 0.0
H1493 H 0.58461 0.47155 0.10875 0.0
H1494 H 0.55504 0.43688 0.12098 0.0
H1495 H 0.58876 0.43763 0.11067 0.0
C1496 C 0.51273 0.36802 0.16264 0.0
C1497 C 0.51609 0.34739 0.14997 0.0
C1498 C 0.53665 0.39895 0.16449 0.0
C1499 C 0.56425 0.40987 0.15362 0.0
C1500 C 0.56815 0.38912 0.14154 0.0
H1501 H 0.74529 0.56987 0.16151 0.0
H1502 H 0.6983 0.51918 0.16391 0.0
C1503 C 0.54434 0.35821 0.13972 0.0
C1504 C 0.5889 0.44306 0.15462 0.0
H1505 H 0.62967 0.50823 0.12617 0.0
C1506 C 0.60448 0.45489 0.17254 0.0
C1507 C 0.59743 0.4628 0.13786 0.0
C1508 C 0.58044 0.45175 0.1185 0.0
C1509 C 0.6293 0.48564 0.17391 0.0
C1510 C 0.63888 0.50487 0.15688 0.0
C1511 C 0.62243 0.49341 0.13918 0.0
C1512 C 0.66703 0.53625 0.15673 0.0
C1513 C 0.64515 0.49722 0.19356 0.0
C1514 C 0.66516 0.56277 0.15165 0.0
C1515 C 0.69215 0.592 0.15018 0.0
C1516 C 0.7215 0.5951 0.15353 0.0
C1517 C 0.72314 0.56846 0.15884 0.0
C1518 C 0.69623 0.5394 0.16038 0.0
H1519 H 0.62975 0.48349 0.20603 0.0
H1520 H 0.66617 0.4948 0.19407 0.0
H1521 H 0.65247 0.52216 0.1957 0.0
H1522 H 0.64283 0.56079 0.14862 0.0
H1523 H 0.69003 0.61196 0.14598 0.0
H1524 H 0.88799 0.52639 0.4466 0.0
H1525 H 0.89657 0.48215 0.44386 0.0
H1526 H 0.85277 0.46039 0.38667 0.0
H1527 H 0.84401 0.50476 0.38932 0.0
H1528 H 0.85231 0.42052 0.44022 0.0
H1529 H 0.93342 0.4592 0.37628 0.0
H1530 H 0.92478 0.48536 0.38979 0.0
H1531 H 0.8978 0.45925 0.37184 0.0
C1532 C 0.88003 0.51214 0.43346 0.0
C1533 C 0.86512 0.519 0.41822 0.0
C1534 C 0.88515 0.48698 0.43186 0.0
C1535 C 0.87565 0.46818 0.41497 0.0
C1536 C 0.86089 0.47498 0.39965 0.0
H1537 H 0.84326 0.28025 0.40833 0.0
H1538 H 0.84004 0.32771 0.40731 0.0
C1539 C 0.85581 0.50028 0.40122 0.0
C1540 C 0.87984 0.44058 0.41398 0.0
H1541 H 0.91408 0.40712 0.38746 0.0
C1542 C 0.86588 0.41765 0.4287 0.0
C1543 C 0.89788 0.43705 0.39909 0.0
C1544 C 0.9146 0.46163 0.38344 0.0
C1545 C 0.86904 0.39106 0.42879 0.0
C1546 C 0.88623 0.38703 0.41356 0.0
C1547 C 0.90069 0.41018 0.39901 0.0
C1548 C 0.88901 0.35865 0.41251 0.0
C1549 C 0.8542 0.36762 0.44532 0.0
C1550 C 0.91787 0.3604 0.41507 0.0
C1551 C 0.9199 0.33319 0.41563 0.0
C1552 C 0.89305 0.30381 0.41355 0.0
C1553 C 0.8644 0.30239 0.41019 0.0
C1554 C 0.86245 0.32951 0.40964 0.0
H1555 H 0.84857 0.37771 0.45824 0.0
H1556 H 0.83225 0.34754 0.43996 0.0
H1557 H 0.8697 0.35877 0.45025 0.0
H1558 H 0.93868 0.38274 0.41722 0.0
H1559 H 0.94233 0.33517 0.41818 0.0
H1560 H 0.20793 0.67702 0.62661 0.0
H1561 H 0.19704 0.6233 0.62949 0.0
H1562 H 0.12695 0.60453 0.67351 0.0
H1563 H 0.13736 0.65817 0.67054 0.0
H1564 H 0.16664 0.58061 0.68307 0.0
H1565 H 0.11852 0.5471 0.60751 0.0
H1566 H 0.15639 0.58125 0.60827 0.0
H1567 H 0.12391 0.58198 0.61946 0.0
C1568 C 0.19009 0.66147 0.63685 0.0
C1569 C 0.17335 0.67192 0.64822 0.0
C1570 C 0.18388 0.63075 0.63847 0.0
C1571 C 0.16078 0.60976 0.65144 0.0
C1572 C 0.14477 0.62031 0.66332 0.0
H1573 H 0.0891 0.40819 0.64517 0.0
H1574 H 0.09211 0.45904 0.64726 0.0
C1575 C 0.15091 0.65106 0.6617 0.0
C1576 C 0.15337 0.57682 0.65251 0.0
H1577 H 0.12951 0.51155 0.62452 0.0
C1578 C 0.15828 0.56541 0.67033 0.0
C1579 C 0.14193 0.55684 0.63597 0.0
C1580 C 0.13456 0.56724 0.61676 0.0
C1581 C 0.15325 0.53493 0.67182 0.0
C1582 C 0.14338 0.5155 0.65498 0.0
C1583 C 0.13729 0.52652 0.63739 0.0
C1584 C 0.14085 0.48433 0.65495 0.0
C1585 C 0.15858 0.52382 0.69142 0.0
C1586 C 0.16723 0.48168 0.6585 0.0
C1587 C 0.16562 0.45278 0.65731 0.0
C1588 C 0.13757 0.42579 0.65241 0.0
C1589 C 0.11102 0.42842 0.64905 0.0
C1590 C 0.11271 0.45747 0.65021 0.0
H1591 H 0.15675 0.53735 0.70389 0.0
H1592 H 0.14166 0.49874 0.69385 0.0
H1593 H 0.18232 0.52699 0.6916 0.0
H1594 H 0.18935 0.50214 0.66175 0.0
H1595 H 0.18659 0.45177 0.65994 0.0
H1596 H 0.33701 0.93288 0.91348 0.0
H1597 H 0.38405 0.92885 0.91067 0.0
H1598 H 0.32793 0.83034 0.89974 0.0
H1599 H 0.28098 0.83409 0.90228 0.0
H1600 H 0.39873 0.8927 0.93479 0.0
H1601 H 0.39417 0.85826 0.85653 0.0
H1602 H 0.37161 0.8749 0.86593 0.0
H1603 H 0.35865 0.83428 0.86977 0.0
C1604 C 0.33467 0.91045 0.91015 0.0
C1605 C 0.30515 0.88383 0.90811 0.0
C1606 C 0.3616 0.90818 0.90859 0.0
C1607 C 0.35952 0.87937 0.90475 0.0
C1608 C 0.33015 0.85293 0.9023 0.0
H1609 H 0.48511 0.81377 0.93548 0.0
H1610 H 0.44178 0.82354 0.93159 0.0
C1611 C 0.30327 0.85512 0.9039 0.0
C1612 C 0.38777 0.87631 0.90485 0.0
H1613 H 0.42831 0.85036 0.87766 0.0
C1614 C 0.40538 0.88375 0.92223 0.0
C1615 C 0.39658 0.86486 0.8884 0.0
C1616 C 0.37945 0.85789 0.86903 0.0
C1617 C 0.43092 0.87907 0.92383 0.0
C1618 C 0.43882 0.86622 0.90771 0.0
C1619 C 0.42194 0.85982 0.89008 0.0
C1620 C 0.46436 0.859 0.90908 0.0
C1621 C 0.44926 0.88788 0.94279 0.0
C1622 C 0.49098 0.87493 0.89721 0.0
C1623 C 0.51588 0.86947 0.89943 0.0
C1624 C 0.51451 0.84783 0.9135 0.0
C1625 C 0.48721 0.83103 0.92478 0.0
C1626 C 0.4624 0.83655 0.92258 0.0
H1627 H 0.4452 0.90434 0.95168 0.0
H1628 H 0.44201 0.86659 0.95181 0.0
H1629 H 0.47453 0.89868 0.93973 0.0
H1630 H 0.49287 0.89226 0.88664 0.0
H1631 H 0.53662 0.88304 0.89063 0.0
H1632 H 0.57475 0.73873 0.66194 0.0
H1633 H 0.52466 0.69104 0.66414 0.0
H1634 H 0.56796 0.63701 0.64917 0.0
H1635 H 0.61858 0.68498 0.64671 0.0
H1636 H 0.51536 0.62221 0.62664 0.0
H1637 H 0.48956 0.62261 0.70622 0.0
H1638 H 0.50002 0.65881 0.6941 0.0
H1639 H 0.52811 0.64612 0.69603 0.0
C1640 C 0.57386 0.71675 0.65931 0.0
C1641 C 0.60084 0.71578 0.65414 0.0
C1642 C 0.54511 0.68941 0.66072 0.0
C1643 C 0.54256 0.66038 0.6571 0.0
C1644 C 0.56943 0.65917 0.65217 0.0
H1645 H 0.36824 0.48336 0.67266 0.0
H1646 H 0.42194 0.52603 0.6755 0.0
C1647 C 0.59836 0.6866 0.65082 0.0
C1648 C 0.51146 0.63173 0.6572 0.0
H1649 H 0.44636 0.58978 0.68551 0.0
C1650 C 0.50041 0.61491 0.63958 0.0
C1651 C 0.49202 0.622 0.67413 0.0
C1652 C 0.50311 0.63814 0.69375 0.0
C1653 C 0.47008 0.58941 0.63821 0.0
C1654 C 0.4501 0.58073 0.65484 0.0
C1655 C 0.46154 0.59672 0.6727 0.0
C1656 C 0.41712 0.55546 0.65382 0.0
C1657 C 0.45963 0.57201 0.61894 0.0
C1658 C 0.39631 0.55819 0.64111 0.0
C1659 C 0.36553 0.534 0.63958 0.0
C1660 C 0.35481 0.50649 0.65076 0.0
C1661 C 0.37552 0.50427 0.66396 0.0
C1662 C 0.40632 0.52856 0.66551 0.0
H1663 H 0.47969 0.57611 0.60953 0.0
H1664 H 0.44482 0.54657 0.62156 0.0
H1665 H 0.44575 0.58016 0.61067 0.0
H1666 H 0.40394 0.57905 0.63228 0.0
H1667 H 0.35014 0.53684 0.62956 0.0
H1668 H 0.15687 0.6556 0.94761 0.0
H1669 H 0.15198 0.60438 0.94379 0.0
H1670 H 0.17974 0.62507 0.88272 0.0
H1671 H 0.18411 0.67646 0.88633 0.0
H1672 H 0.12654 0.56466 0.8895 0.0
H1673 H 0.22479 0.5874 0.93865 0.0
H1674 H 0.19705 0.59595 0.94975 0.0
H1675 H 0.21936 0.61821 0.92874 0.0
C1676 C 0.16179 0.64925 0.93332 0.0
C1677 C 0.17082 0.6701 0.91725 0.0
C1678 C 0.15923 0.62004 0.93121 0.0
C1679 C 0.16578 0.61104 0.91303 0.0
C1680 C 0.1747 0.63166 0.8969 0.0
H1681 H 0.1941 0.4527 0.90307 0.0
H1682 H 0.19813 0.50363 0.90039 0.0
C1683 C 0.1774 0.66105 0.89902 0.0
C1684 C 0.16308 0.57997 0.91103 0.0
H1685 H 0.19075 0.53461 0.92984 0.0
C1686 C 0.14072 0.55808 0.89818 0.0
C1687 C 0.18182 0.57159 0.92221 0.0
C1688 C 0.20732 0.59459 0.93548 0.0
C1689 C 0.13609 0.52774 0.89659 0.0
C1690 C 0.15399 0.51898 0.9084 0.0
C1691 C 0.17681 0.54117 0.9209 0.0
C1692 C 0.15005 0.48719 0.90796 0.0
C1693 C 0.11237 0.50554 0.88212 0.0
C1694 C 0.12148 0.46072 0.9128 0.0
C1695 C 0.11899 0.4313 0.91416 0.0
C1696 C 0.14519 0.428 0.91104 0.0
C1697 C 0.1735 0.45443 0.90573 0.0
C1698 C 0.17587 0.48362 0.90417 0.0
H1699 H 0.10731 0.51815 0.87042 0.0
H1700 H 0.12038 0.49062 0.87498 0.0
H1701 H 0.09035 0.49021 0.8901 0.0
H1702 H 0.10138 0.46294 0.91622 0.0
H1703 H 0.09694 0.41144 0.91843 0.0
H1704 H 0.33964 0.9349 0.64444 0.0
H1705 H 0.3866 0.93044 0.64615 0.0
H1706 H 0.33061 0.8328 0.66025 0.0
H1707 H 0.28383 0.83696 0.65878 0.0
H1708 H 0.38478 0.86476 0.68367 0.0
H1709 H 0.41 0.88628 0.60324 0.0
H1710 H 0.40584 0.91546 0.6164 0.0
H1711 H 0.37295 0.87703 0.61378 0.0
C1712 C 0.33734 0.91253 0.64804 0.0
C1713 C 0.30788 0.88626 0.65132 0.0
C1714 C 0.36419 0.91 0.64891 0.0
C1715 C 0.36203 0.88119 0.65308 0.0
C1716 C 0.3328 0.85523 0.65696 0.0
H1717 H 0.48526 0.81034 0.62839 0.0
H1718 H 0.44227 0.82083 0.63136 0.0
C1719 C 0.30603 0.85768 0.65604 0.0
C1720 C 0.38993 0.87753 0.6529 0.0
H1721 H 0.44497 0.87813 0.62229 0.0
C1722 C 0.39812 0.86791 0.6703 0.0
C1723 C 0.40698 0.88122 0.63536 0.0
C1724 C 0.39848 0.89033 0.61606 0.0
C1725 C 0.42284 0.86174 0.67061 0.0
C1726 C 0.43994 0.86555 0.65309 0.0
C1727 C 0.43188 0.87536 0.63572 0.0
C1728 C 0.46565 0.85847 0.65221 0.0
C1729 C 0.42988 0.85029 0.68951 0.0
C1730 C 0.49302 0.87607 0.66303 0.0
C1731 C 0.51776 0.87024 0.66129 0.0
C1732 C 0.51563 0.84678 0.64861 0.0
C1733 C 0.48788 0.82884 0.63809 0.0
C1734 C 0.46323 0.83473 0.63981 0.0
H1735 H 0.41063 0.84236 0.70042 0.0
H1736 H 0.43424 0.83078 0.68652 0.0
H1737 H 0.45115 0.86952 0.69625 0.0
H1738 H 0.49557 0.89484 0.67244 0.0
H1739 H 0.53893 0.88485 0.66935 0.0
H1740 H 0.61894 0.69016 0.92143 0.0
H1741 H 0.56826 0.64214 0.92044 0.0
H1742 H 0.52534 0.69462 0.90096 0.0
H1743 H 0.57559 0.74248 0.90182 0.0
H1744 H 0.51502 0.63183 0.94282 0.0
H1745 H 0.4905 0.62047 0.8624 0.0
H1746 H 0.52911 0.6444 0.87222 0.0
H1747 H 0.50185 0.65821 0.87238 0.0
C1748 C 0.59882 0.69142 0.91662 0.0
C1749 C 0.60143 0.72025 0.91171 0.0
C1750 C 0.56985 0.66396 0.91612 0.0
C1751 C 0.54304 0.66472 0.91042 0.0
C1752 C 0.54573 0.69333 0.90507 0.0
H1753 H 0.34382 0.5342 0.90821 0.0
H1754 H 0.39632 0.57918 0.90438 0.0
C1755 C 0.57455 0.72076 0.9057 0.0
C1756 C 0.51191 0.63612 0.91139 0.0
H1757 H 0.44835 0.58803 0.8837 0.0
C1758 C 0.50055 0.62205 0.92987 0.0
C1759 C 0.49291 0.62362 0.89452 0.0
C1760 C 0.50423 0.63724 0.87421 0.0
C1761 C 0.47048 0.59628 0.93203 0.0
C1762 C 0.45145 0.58365 0.91515 0.0
C1763 C 0.46288 0.59766 0.89663 0.0
C1764 C 0.41968 0.5559 0.91648 0.0
C1765 C 0.45906 0.58345 0.9525 0.0
C1766 C 0.41534 0.52758 0.92402 0.0
C1767 C 0.38545 0.50195 0.92626 0.0
C1768 C 0.35913 0.50389 0.92083 0.0
C1769 C 0.36356 0.53189 0.91252 0.0
C1770 C 0.39356 0.55765 0.91037 0.0
H1771 H 0.47259 0.60078 0.9641 0.0
H1772 H 0.43413 0.57619 0.95435 0.0
H1773 H 0.46174 0.56276 0.95493 0.0
H1774 H 0.43512 0.52531 0.9283 0.0
H1775 H 0.38295 0.48054 0.93228 0.0
loop_
_geom_bond_atom_site_label_1
_geom_bond_atom_site_label_2
_geom_bond_distance
_geom_bond_site_symmetry_2
_ccdc_geom_bond_type
Sm0 C2 2.846 . S
Sm0 O20 2.543 . S
Sm0 O21 2.450 . S
Sm0 O22 2.681 . S
Sm0 O23 2.464 . S
Sm0 O24 2.396 . S
Sm0 O28 2.386 . S
Sm0 O31 2.408 . S
Sm1 C11 2.846 . S
Sm1 O22 2.386 . S
Sm1 O25 2.408 . S
Sm1 O26 2.543 . S
Sm1 O27 2.450 . S
Sm1 O28 2.681 . S
Sm1 O29 2.464 . S
Sm1 O30 2.396 . S
C2 Sm0 2.846 . S
C2 C3 1.506 . S
C2 O20 1.261 . S
C2 O21 1.242 . S
C3 C2 1.506 . S
C3 C4 1.358 . S
C3 C8 1.382 . S
C4 C3 1.358 . S
C4 C5 1.385 . S
C4 H32 0.930 . S
C5 C4 1.385 . S
C5 C6 1.395 . S
C5 H33 0.929 . S
C6 C5 1.395 . S
C6 C7 1.335 . S
C7 C6 1.335 . S
C7 C8 1.398 . S
C7 H34 0.930 . S
C8 C3 1.382 . S
C8 C7 1.398 . S
C8 H35 0.929 . S
C9 O22 1.271 . S
C9 O23 1.251 . S
C10 O24 1.252 . S
C10 O25 1.272 . S
C11 Sm1 2.846 . S
C11 C12 1.506 . S
C11 O26 1.261 . S
C11 O27 1.242 . S
C12 C11 1.506 . S
C12 C13 1.358 . S
C12 C17 1.382 . S
C13 C12 1.358 . S
C13 C14 1.385 1_545 S
C13 H36 0.930 . S
C14 C13 1.385 1_565 S
C14 C15 1.395 . S
C14 H37 0.929 . S
C15 C14 1.395 . S
C15 C16 1.335 . S
C16 C15 1.335 . S
C16 C17 1.398 1_565 S
C16 H38 0.930 . S
C17 C12 1.382 . S
C17 C16 1.398 1_545 S
C17 H39 0.929 . S
C18 O28 1.271 . S
C18 O29 1.251 . S
C19 O30 1.252 . S
C19 O31 1.272 . S
O20 Sm0 2.543 . S
O20 C2 1.261 . S
O21 Sm0 2.450 . S
O21 C2 1.242 . S
O22 Sm0 2.681 . S
O22 Sm1 2.386 . S
O22 C9 1.271 . S
O23 Sm0 2.464 . S
O23 C9 1.251 . S
O24 Sm0 2.396 . S
O24 C10 1.252 . S
O25 Sm1 2.408 . S
O25 C10 1.272 . S
O26 Sm1 2.543 . S
O26 C11 1.261 . S
O27 Sm1 2.450 . S
O27 C11 1.242 . S
O28 Sm0 2.386 . S
O28 Sm1 2.681 . S
O28 C18 1.271 . S
O29 Sm1 2.464 . S
O29 C18 1.251 . S
O30 Sm1 2.396 . S
O30 C19 1.252 . S
O31 Sm0 2.408 . S
O31 C19 1.272 . S
H32 C4 0.930 . S
H33 C5 0.929 . S
H34 C7 0.930 . S
H35 C8 0.929 . S
H36 C13 0.930 . S
H37 C14 0.929 . S
H38 C16 0.930 . S
H39 C17 0.929 . S
Sm40 C42 2.846 . S
Sm40 O60 2.543 . S
Sm40 O61 2.450 . S
Sm40 O62 2.681 . S
Sm40 O63 2.464 . S
Sm40 O64 2.396 . S
Sm40 O68 2.386 . S
Sm40 O71 2.408 . S
Sm41 C51 2.846 . S
Sm41 O62 2.386 . S
Sm41 O65 2.408 . S
Sm41 O66 2.543 . S
Sm41 O67 2.450 . S
Sm41 O68 2.681 . S
Sm41 O69 2.464 . S
Sm41 O70 2.396 . S
C42 Sm40 2.846 . S
C42 C43 1.506 . S
C42 O60 1.261 . S
C42 O61 1.242 . S
C43 C42 1.506 . S
C43 C44 1.358 . S
C43 C48 1.382 . S
C44 C43 1.358 . S
C44 C45 1.385 . S
C44 H72 0.930 . S
C45 C44 1.385 . S
C45 C46 1.395 . S
C45 H73 0.929 . S
C46 C45 1.395 . S
C46 C47 1.335 . S
C47 C46 1.335 . S
C47 C48 1.398 . S
C47 H74 0.930 . S
C48 C43 1.382 . S
C48 C47 1.398 . S
C48 H75 0.929 . S
C49 O62 1.271 . S
C49 O63 1.251 . S
C50 O64 1.252 . S
C50 O65 1.272 . S
C51 Sm41 2.846 . S
C51 C52 1.506 . S
C51 O66 1.261 . S
C51 O67 1.242 . S
C52 C51 1.506 . S
C52 C53 1.358 . S
C52 C57 1.382 . S
C53 C52 1.358 . S
C53 C54 1.385 . S
C53 H76 0.930 . S
C54 C53 1.385 . S
C54 C55 1.395 . S
C54 H77 0.929 . S
C55 C54 1.395 . S
C55 C56 1.335 . S
C56 C55 1.335 . S
C56 C57 1.398 . S
C56 H78 0.930 . S
C57 C52 1.382 . S
C57 C56 1.398 . S
C57 H79 0.929 . S
C58 O68 1.271 . S
C58 O69 1.251 . S
C59 O70 1.252 . S
C59 O71 1.272 . S
O60 Sm40 2.543 . S
O60 C42 1.261 . S
O61 Sm40 2.450 . S
O61 C42 1.242 . S
O62 Sm40 2.681 . S
O62 Sm41 2.386 . S
O62 C49 1.271 . S
O63 Sm40 2.464 . S
O63 C49 1.251 . S
O64 Sm40 2.396 . S
O64 C50 1.252 . S
O65 Sm41 2.408 . S
O65 C50 1.272 . S
O66 Sm41 2.543 . S
O66 C51 1.261 . S
O67 Sm41 2.450 . S
O67 C51 1.242 . S
O68 Sm40 2.386 . S
O68 Sm41 2.681 . S
O68 C58 1.271 . S
O69 Sm41 2.464 . S
O69 C58 1.251 . S
O70 Sm41 2.396 . S
O70 C59 1.252 . S
O71 Sm40 2.408 . S
O71 C59 1.272 . S
H72 C44 0.930 . S
H73 C45 0.929 . S
H74 C47 0.930 . S
H75 C48 0.929 . S
H76 C53 0.930 . S
H77 C54 0.929 . S
H78 C56 0.930 . S
H79 C57 0.929 . S
Sm80 C82 2.846 . S
Sm80 O100 2.543 . S
Sm80 O101 2.450 . S
Sm80 O102 2.681 . S
Sm80 O103 2.464 . S
Sm80 O104 2.396 . S
Sm80 O108 2.386 . S
Sm80 O111 2.408 . S
Sm81 C91 2.846 . S
Sm81 O102 2.386 . S
Sm81 O105 2.408 . S
Sm81 O106 2.543 . S
Sm81 O107 2.450 . S
Sm81 O108 2.681 . S
Sm81 O109 2.464 . S
Sm81 O110 2.396 . S
C82 Sm80 2.846 . S
C82 C83 1.506 . S
C82 O100 1.261 . S
C82 O101 1.242 . S
C83 C82 1.506 . S
C83 C84 1.358 . S
C83 C88 1.382 . S
C84 C83 1.358 . S
C84 C85 1.385 . S
C84 H112 0.930 . S
C85 C84 1.385 . S
C85 C86 1.395 . S
C85 H113 0.929 . S
C86 C85 1.395 . S
C86 C87 1.335 . S
C87 C86 1.335 . S
C87 C88 1.398 . S
C87 H114 0.930 . S
C88 C83 1.382 . S
C88 C87 1.398 . S
C88 H115 0.929 . S
C89 O102 1.271 . S
C89 O103 1.251 . S
C90 O104 1.252 . S
C90 O105 1.272 . S
C91 Sm81 2.846 . S
C91 C92 1.506 . S
C91 O106 1.261 . S
C91 O107 1.242 . S
C92 C91 1.506 . S
C92 C93 1.358 . S
C92 C97 1.382 . S
C93 C92 1.358 . S
C93 C94 1.385 1_655 S
C93 H116 0.930 . S
C94 C93 1.385 1_455 S
C94 C95 1.395 . S
C94 H117 0.929 . S
C95 C94 1.395 . S
C95 C96 1.335 . S
C96 C95 1.335 . S
C96 C97 1.398 1_455 S
C96 H118 0.930 . S
C97 C92 1.382 . S
C97 C96 1.398 1_655 S
C97 H119 0.929 . S
C98 O108 1.271 . S
C98 O109 1.251 . S
C99 O110 1.252 . S
C99 O111 1.272 . S
O100 Sm80 2.543 . S
O100 C82 1.261 . S
O101 Sm80 2.450 . S
O101 C82 1.242 . S
O102 Sm80 2.681 . S
O102 Sm81 2.386 . S
O102 C89 1.271 . S
O103 Sm80 2.464 . S
O103 C89 1.251 . S
O104 Sm80 2.396 . S
O104 C90 1.252 . S
O105 Sm81 2.408 . S
O105 C90 1.272 . S
O106 Sm81 2.543 . S
O106 C91 1.261 . S
O107 Sm81 2.450 . S
O107 C91 1.242 . S
O108 Sm80 2.386 . S
O108 Sm81 2.681 . S
O108 C98 1.271 . S
O109 Sm81 2.464 . S
O109 C98 1.251 . S
O110 Sm81 2.396 . S
O110 C99 1.252 . S
O111 Sm80 2.408 . S
O111 C99 1.272 . S
H112 C84 0.930 . S
H113 C85 0.929 . S
H114 C87 0.930 . S
H115 C88 0.929 . S
H116 C93 0.930 . S
H117 C94 0.929 . S
H118 C96 0.930 . S
H119 C97 0.929 . S
Sm120 C122 2.846 . S
Sm120 O140 2.543 . S
Sm120 O141 2.450 . S
Sm120 O142 2.681 . S
Sm120 O143 2.464 . S
Sm120 O144 2.396 . S
Sm120 O148 2.386 . S
Sm120 O151 2.408 . S
Sm121 C131 2.846 . S
Sm121 O142 2.386 . S
Sm121 O145 2.408 . S
Sm121 O146 2.543 . S
Sm121 O147 2.450 . S
Sm121 O148 2.681 . S
Sm121 O149 2.464 . S
Sm121 O150 2.396 . S
C122 Sm120 2.846 . S
C122 C123 1.506 . S
C122 O140 1.261 . S
C122 O141 1.242 . S
C123 C122 1.506 . S
C123 C124 1.358 . S
C123 C128 1.382 . S
C124 C123 1.358 . S
C124 C125 1.385 1_545 S
C124 H152 0.930 . S
C125 C124 1.385 1_565 S
C125 C126 1.395 . S
C125 H153 0.929 . S
C126 C125 1.395 . S
C126 C127 1.335 . S
C127 C126 1.335 . S
C127 C128 1.398 1_565 S
C127 H154 0.930 . S
C128 C123 1.382 . S
C128 C127 1.398 1_545 S
C128 H155 0.929 . S
C129 O142 1.271 . S
C129 O143 1.251 . S
C130 O144 1.252 . S
C130 O145 1.272 . S
C131 Sm121 2.846 . S
C131 C132 1.506 . S
C131 O146 1.261 . S
C131 O147 1.242 . S
C132 C131 1.506 . S
C132 C133 1.358 . S
C132 C137 1.382 . S
C133 C132 1.358 . S
C133 C134 1.385 . S
C133 H156 0.930 . S
C134 C133 1.385 . S
C134 C135 1.395 . S
C134 H157 0.929 . S
C135 C134 1.395 . S
C135 C136 1.335 . S
C136 C135 1.335 . S
C136 C137 1.398 . S
C136 H158 0.930 . S
C137 C132 1.382 . S
C137 C136 1.398 . S
C137 H159 0.929 . S
C138 O148 1.271 . S
C138 O149 1.251 . S
C139 O150 1.252 . S
C139 O151 1.272 . S
O140 Sm120 2.543 . S
O140 C122 1.261 . S
O141 Sm120 2.450 . S
O141 C122 1.242 . S
O142 Sm120 2.681 . S
O142 Sm121 2.386 . S
O142 C129 1.271 . S
O143 Sm120 2.464 . S
O143 C129 1.251 . S
O144 Sm120 2.396 . S
O144 C130 1.252 . S
O145 Sm121 2.408 . S
O145 C130 1.272 . S
O146 Sm121 2.543 . S
O146 C131 1.261 . S
O147 Sm121 2.450 . S
O147 C131 1.242 . S
O148 Sm120 2.386 . S
O148 Sm121 2.681 . S
O148 C138 1.271 . S
O149 Sm121 2.464 . S
O149 C138 1.251 . S
O150 Sm121 2.396 . S
O150 C139 1.252 . S
O151 Sm120 2.408 . S
O151 C139 1.272 . S
H152 C124 0.930 . S
H153 C125 0.929 . S
H154 C127 0.930 . S
H155 C128 0.929 . S
H156 C133 0.930 . S
H157 C134 0.929 . S
H158 C136 0.930 . S
H159 C137 0.929 . S
Sm160 C162 2.846 . S
Sm160 O180 2.543 . S
Sm160 O181 2.450 . S
Sm160 O182 2.681 . S
Sm160 O183 2.464 . S
Sm160 O184 2.396 . S
Sm160 O188 2.386 . S
Sm160 O191 2.408 . S
Sm161 C171 2.846 . S
Sm161 O182 2.386 . S
Sm161 O185 2.408 . S
Sm161 O186 2.543 . S
Sm161 O187 2.450 . S
Sm161 O188 2.681 . S
Sm161 O189 2.464 . S
Sm161 O190 2.396 . S
C162 Sm160 2.846 . S
C162 C163 1.506 . S
C162 O180 1.261 . S
C162 O181 1.242 . S
C163 C162 1.506 . S
C163 C164 1.358 . S
C163 C168 1.382 . S
C164 C163 1.358 . S
C164 C165 1.385 . S
C164 H192 0.930 . S
C165 C164 1.385 . S
C165 C166 1.395 . S
C165 H193 0.929 . S
C166 C165 1.395 . S
C166 C167 1.335 . S
C167 C166 1.335 . S
C167 C168 1.398 . S
C167 H194 0.930 . S
C168 C163 1.382 . S
C168 C167 1.398 . S
C168 H195 0.929 . S
C169 O182 1.271 . S
C169 O183 1.251 . S
C170 O184 1.252 . S
C170 O185 1.272 . S
C171 Sm161 2.846 . S
C171 C172 1.506 . S
C171 O186 1.261 . S
C171 O187 1.242 . S
C172 C171 1.506 . S
C172 C173 1.358 . S
C172 C177 1.382 . S
C173 C172 1.358 . S
C173 C174 1.385 . S
C173 H196 0.930 . S
C174 C173 1.385 . S
C174 C175 1.395 . S
C174 H197 0.929 . S
C175 C174 1.395 . S
C175 C176 1.335 . S
C176 C175 1.335 . S
C176 C177 1.398 . S
C176 H198 0.930 . S
C177 C172 1.382 . S
C177 C176 1.398 . S
C177 H199 0.929 . S
C178 O188 1.271 . S
C178 O189 1.251 . S
C179 O190 1.252 . S
C179 O191 1.272 . S
O180 Sm160 2.543 . S
O180 C162 1.261 . S
O181 Sm160 2.450 . S
O181 C162 1.242 . S
O182 Sm160 2.681 . S
O182 Sm161 2.386 . S
O182 C169 1.271 . S
O183 Sm160 2.464 . S
O183 C169 1.251 . S
O184 Sm160 2.396 . S
O184 C170 1.252 . S
O185 Sm161 2.408 . S
O185 C170 1.272 . S
O186 Sm161 2.543 . S
O186 C171 1.261 . S
O187 Sm161 2.450 . S
O187 C171 1.242 . S
O188 Sm160 2.386 . S
O188 Sm161 2.681 . S
O188 C178 1.271 . S
O189 Sm161 2.464 . S
O189 C178 1.251 . S
O190 Sm161 2.396 . S
O190 C179 1.252 . S
O191 Sm160 2.408 . S
O191 C179 1.272 . S
H192 C164 0.930 . S
H193 C165 0.929 . S
H194 C167 0.930 . S
H195 C168 0.929 . S
H196 C173 0.930 . S
H197 C174 0.929 . S
H198 C176 0.930 . S
H199 C177 0.929 . S
Sm200 C202 2.846 . S
Sm200 O220 2.543 . S
Sm200 O221 2.450 . S
Sm200 O222 2.681 . S
Sm200 O223 2.464 . S
Sm200 O224 2.396 . S
Sm200 O228 2.386 . S
Sm200 O231 2.408 . S
Sm201 C211 2.846 . S
Sm201 O222 2.386 . S
Sm201 O225 2.408 . S
Sm201 O226 2.543 . S
Sm201 O227 2.450 . S
Sm201 O228 2.681 . S
Sm201 O229 2.464 . S
Sm201 O230 2.396 . S
C202 Sm200 2.846 . S
C202 C203 1.506 . S
C202 O220 1.261 . S
C202 O221 1.242 . S
C203 C202 1.506 . S
C203 C204 1.358 . S
C203 C208 1.382 . S
C204 C203 1.358 . S
C204 C205 1.385 1_655 S
C204 H232 0.930 . S
C205 C204 1.385 1_455 S
C205 C206 1.395 . S
C205 H233 0.929 . S
C206 C205 1.395 . S
C206 C207 1.335 . S
C207 C206 1.335 . S
C207 C208 1.398 1_455 S
C207 H234 0.930 . S
C208 C203 1.382 . S
C208 C207 1.398 1_655 S
C208 H235 0.929 . S
C209 O222 1.271 . S
C209 O223 1.251 . S
C210 O224 1.252 . S
C210 O225 1.272 . S
C211 Sm201 2.846 . S
C211 C212 1.506 . S
C211 O226 1.261 . S
C211 O227 1.242 . S
C212 C211 1.506 . S
C212 C213 1.358 . S
C212 C217 1.382 . S
C213 C212 1.358 . S
C213 C214 1.385 . S
C213 H236 0.930 . S
C214 C213 1.385 . S
C214 C215 1.395 . S
C214 H237 0.929 . S
C215 C214 1.395 . S
C215 C216 1.335 . S
C216 C215 1.335 . S
C216 C217 1.398 . S
C216 H238 0.930 . S
C217 C212 1.382 . S
C217 C216 1.398 . S
C217 H239 0.929 . S
C218 O228 1.271 . S
C218 O229 1.251 . S
C219 O230 1.252 . S
C219 O231 1.272 . S
O220 Sm200 2.543 . S
O220 C202 1.261 . S
O221 Sm200 2.450 . S
O221 C202 1.242 . S
O222 Sm200 2.681 . S
O222 Sm201 2.386 . S
O222 C209 1.271 . S
O223 Sm200 2.464 . S
O223 C209 1.251 . S
O224 Sm200 2.396 . S
O224 C210 1.252 . S
O225 Sm201 2.408 . S
O225 C210 1.272 . S
O226 Sm201 2.543 . S
O226 C211 1.261 . S
O227 Sm201 2.450 . S
O227 C211 1.242 . S
O228 Sm200 2.386 . S
O228 Sm201 2.681 . S
O228 C218 1.271 . S
O229 Sm201 2.464 . S
O229 C218 1.251 . S
O230 Sm201 2.396 . S
O230 C219 1.252 . S
O231 Sm200 2.408 . S
O231 C219 1.272 . S
H232 C204 0.930 . S
H233 C205 0.929 . S
H234 C207 0.930 . S
H235 C208 0.929 . S
H236 C213 0.930 . S
H237 C214 0.929 . S
H238 C216 0.930 . S
H239 C217 0.929 . S
Sm240 C242 2.846 . S
Sm240 O260 2.543 . S
Sm240 O261 2.450 . S
Sm240 O262 2.681 . S
Sm240 O263 2.464 . S
Sm240 O264 2.396 . S
Sm240 O268 2.386 . S
Sm240 O271 2.408 . S
Sm241 C251 2.846 . S
Sm241 O262 2.386 . S
Sm241 O265 2.408 . S
Sm241 O266 2.543 . S
Sm241 O267 2.450 . S
Sm241 O268 2.681 . S
Sm241 O269 2.464 . S
Sm241 O270 2.396 . S
C242 Sm240 2.846 . S
C242 C243 1.506 . S
C242 O260 1.261 . S
C242 O261 1.242 . S
C243 C242 1.506 . S
C243 C244 1.358 . S
C243 C248 1.382 . S
C244 C243 1.358 . S
C244 C245 1.385 1_455 S
C244 H272 0.930 . S
C245 C244 1.385 1_655 S
C245 C246 1.395 . S
C245 H273 0.929 . S
C246 C245 1.395 . S
C246 C247 1.335 . S
C247 C246 1.335 . S
C247 C248 1.398 1_655 S
C247 H274 0.930 . S
C248 C243 1.382 . S
C248 C247 1.398 1_455 S
C248 H275 0.929 . S
C249 O262 1.271 . S
C249 O263 1.251 . S
C250 O264 1.252 . S
C250 O265 1.272 . S
C251 Sm241 2.846 . S
C251 C252 1.506 . S
C251 O266 1.261 . S
C251 O267 1.242 . S
C252 C251 1.506 . S
C252 C253 1.358 . S
C252 C257 1.382 . S
C253 C252 1.358 . S
C253 C254 1.385 . S
C253 H276 0.930 . S
C254 C253 1.385 . S
C254 C255 1.395 . S
C254 H277 0.929 . S
C255 C254 1.395 . S
C255 C256 1.335 . S
C256 C255 1.335 . S
C256 C257 1.398 . S
C256 H278 0.930 . S
C257 C252 1.382 . S
C257 C256 1.398 . S
C257 H279 0.929 . S
C258 O268 1.271 . S
C258 O269 1.251 . S
C259 O270 1.252 . S
C259 O271 1.272 . S
O260 Sm240 2.543 . S
O260 C242 1.261 . S
O261 Sm240 2.450 . S
O261 C242 1.242 . S
O262 Sm240 2.681 . S
O262 Sm241 2.386 . S
O262 C249 1.271 . S
O263 Sm240 2.464 . S
O263 C249 1.251 . S
O264 Sm240 2.396 . S
O264 C250 1.252 . S
O265 Sm241 2.408 . S
O265 C250 1.272 . S
O266 Sm241 2.543 . S
O266 C251 1.261 . S
O267 Sm241 2.450 . S
O267 C251 1.242 . S
O268 Sm240 2.386 . S
O268 Sm241 2.681 . S
O268 C258 1.271 . S
O269 Sm241 2.464 . S
O269 C258 1.251 . S
O270 Sm241 2.396 . S
O270 C259 1.252 . S
O271 Sm240 2.408 . S
O271 C259 1.272 . S
H272 C244 0.930 . S
H273 C245 0.929 . S
H274 C247 0.930 . S
H275 C248 0.929 . S
H276 C253 0.930 . S
H277 C254 0.929 . S
H278 C256 0.930 . S
H279 C257 0.929 . S
Sm280 C282 2.846 . S
Sm280 O300 2.543 . S
Sm280 O301 2.450 . S
Sm280 O302 2.681 . S
Sm280 O303 2.464 . S
Sm280 O304 2.396 . S
Sm280 O308 2.386 . S
Sm280 O311 2.408 . S
Sm281 C291 2.846 . S
Sm281 O302 2.386 . S
Sm281 O305 2.408 . S
Sm281 O306 2.543 . S
Sm281 O307 2.450 . S
Sm281 O308 2.681 . S
Sm281 O309 2.464 . S
Sm281 O310 2.396 . S
C282 Sm280 2.846 . S
C282 C283 1.506 . S
C282 O300 1.261 . S
C282 O301 1.242 . S
C283 C282 1.506 . S
C283 C284 1.358 . S
C283 C288 1.382 . S
C284 C283 1.358 . S
C284 C285 1.385 . S
C284 H312 0.930 . S
C285 C284 1.385 . S
C285 C286 1.395 . S
C285 H313 0.929 . S
C286 C285 1.395 . S
C286 C287 1.335 . S
C287 C286 1.335 . S
C287 C288 1.398 . S
C287 H314 0.930 . S
C288 C283 1.382 . S
C288 C287 1.398 . S
C288 H315 0.929 . S
C289 O302 1.271 . S
C289 O303 1.251 . S
C290 O304 1.252 . S
C290 O305 1.272 . S
C291 Sm281 2.846 . S
C291 C292 1.506 . S
C291 O306 1.261 . S
C291 O307 1.242 . S
C292 C291 1.506 . S
C292 C293 1.358 . S
C292 C297 1.382 . S
C293 C292 1.358 . S
C293 C294 1.385 1_565 S
C293 H316 0.930 . S
C294 C293 1.385 1_545 S
C294 C295 1.395 . S
C294 H317 0.929 . S
C295 C294 1.395 . S
C295 C296 1.335 . S
C296 C295 1.335 . S
C296 C297 1.398 1_545 S
C296 H318 0.930 . S
C297 C292 1.382 . S
C297 C296 1.398 1_565 S
C297 H319 0.929 . S
C298 O308 1.271 . S
C298 O309 1.251 . S
C299 O310 1.252 . S
C299 O311 1.272 . S
O300 Sm280 2.543 . S
O300 C282 1.261 . S
O301 Sm280 2.450 . S
O301 C282 1.242 . S
O302 Sm280 2.681 . S
O302 Sm281 2.386 . S
O302 C289 1.271 . S
O303 Sm280 2.464 . S
O303 C289 1.251 . S
O304 Sm280 2.396 . S
O304 C290 1.252 . S
O305 Sm281 2.408 . S
O305 C290 1.272 . S
O306 Sm281 2.543 . S
O306 C291 1.261 . S
O307 Sm281 2.450 . S
O307 C291 1.242 . S
O308 Sm280 2.386 . S
O308 Sm281 2.681 . S
O308 C298 1.271 . S
O309 Sm281 2.464 . S
O309 C298 1.251 . S
O310 Sm281 2.396 . S
O310 C299 1.252 . S
O311 Sm280 2.408 . S
O311 C299 1.272 . S
H312 C284 0.930 . S
H313 C285 0.929 . S
H314 C287 0.930 . S
H315 C288 0.929 . S
H316 C293 0.930 . S
H317 C294 0.929 . S
H318 C296 0.930 . S
H319 C297 0.929 . S
Sm320 C322 2.846 . S
Sm320 O340 2.543 . S
Sm320 O341 2.450 . S
Sm320 O342 2.681 . S
Sm320 O343 2.464 . S
Sm320 O344 2.396 . S
Sm320 O348 2.386 . S
Sm320 O351 2.408 . S
Sm321 C331 2.846 . S
Sm321 O342 2.386 . S
Sm321 O345 2.408 . S
Sm321 O346 2.543 . S
Sm321 O347 2.450 . S
Sm321 O348 2.681 . S
Sm321 O349 2.464 . S
Sm321 O350 2.396 . S
C322 Sm320 2.846 . S
C322 C323 1.506 . S
C322 O340 1.261 . S
C322 O341 1.242 . S
C323 C322 1.506 . S
C323 C324 1.358 . S
C323 C328 1.382 . S
C324 C323 1.358 . S
C324 C325 1.385 . S
C324 H352 0.930 . S
C325 C324 1.385 . S
C325 C326 1.395 . S
C325 H353 0.929 . S
C326 C325 1.395 . S
C326 C327 1.335 . S
C327 C326 1.335 . S
C327 C328 1.398 . S
C327 H354 0.930 . S
C328 C323 1.382 . S
C328 C327 1.398 . S
C328 H355 0.929 . S
C329 O342 1.271 . S
C329 O343 1.251 . S
C330 O344 1.252 . S
C330 O345 1.272 . S
C331 Sm321 2.846 . S
C331 C332 1.506 . S
C331 O346 1.261 . S
C331 O347 1.242 . S
C332 C331 1.506 . S
C332 C333 1.358 . S
C332 C337 1.382 . S
C333 C332 1.358 . S
C333 C334 1.385 . S
C333 H356 0.930 . S
C334 C333 1.385 . S
C334 C335 1.395 . S
C334 H357 0.929 . S
C335 C334 1.395 . S
C335 C336 1.335 . S
C336 C335 1.335 . S
C336 C337 1.398 . S
C336 H358 0.930 . S
C337 C332 1.382 . S
C337 C336 1.398 . S
C337 H359 0.929 . S
C338 O348 1.271 . S
C338 O349 1.251 . S
C339 O350 1.252 . S
C339 O351 1.272 . S
O340 Sm320 2.543 . S
O340 C322 1.261 . S
O341 Sm320 2.450 . S
O341 C322 1.242 . S
O342 Sm320 2.681 . S
O342 Sm321 2.386 . S
O342 C329 1.271 . S
O343 Sm320 2.464 . S
O343 C329 1.251 . S
O344 Sm320 2.396 . S
O344 C330 1.252 . S
O345 Sm321 2.408 . S
O345 C330 1.272 . S
O346 Sm321 2.543 . S
O346 C331 1.261 . S
O347 Sm321 2.450 . S
O347 C331 1.242 . S
O348 Sm320 2.386 . S
O348 Sm321 2.681 . S
O348 C338 1.271 . S
O349 Sm321 2.464 . S
O349 C338 1.251 . S
O350 Sm321 2.396 . S
O350 C339 1.252 . S
O351 Sm320 2.408 . S
O351 C339 1.272 . S
H352 C324 0.930 . S
H353 C325 0.929 . S
H354 C327 0.930 . S
H355 C328 0.929 . S
H356 C333 0.930 . S
H357 C334 0.929 . S
H358 C336 0.930 . S
H359 C337 0.929 . S
Sm360 C362 2.846 . S
Sm360 O380 2.543 . S
Sm360 O381 2.450 . S
Sm360 O382 2.681 . S
Sm360 O383 2.464 . S
Sm360 O384 2.396 . S
Sm360 O388 2.386 . S
Sm360 O391 2.408 . S
Sm361 C371 2.846 . S
Sm361 O382 2.386 . S
Sm361 O385 2.408 . S
Sm361 O386 2.543 . S
Sm361 O387 2.450 . S
Sm361 O388 2.681 . S
Sm361 O389 2.464 . S
Sm361 O390 2.396 . S
C362 Sm360 2.846 . S
C362 C363 1.506 . S
C362 O380 1.261 . S
C362 O381 1.242 . S
C363 C362 1.506 . S
C363 C364 1.358 . S
C363 C368 1.382 . S
C364 C363 1.358 . S
C364 C365 1.385 . S
C364 H392 0.930 . S
C365 C364 1.385 . S
C365 C366 1.395 . S
C365 H393 0.929 . S
C366 C365 1.395 . S
C366 C367 1.335 . S
C367 C366 1.335 . S
C367 C368 1.398 . S
C367 H394 0.930 . S
C368 C363 1.382 . S
C368 C367 1.398 . S
C368 H395 0.929 . S
C369 O382 1.271 . S
C369 O383 1.251 . S
C370 O384 1.252 . S
C370 O385 1.272 . S
C371 Sm361 2.846 . S
C371 C372 1.506 . S
C371 O386 1.261 . S
C371 O387 1.242 . S
C372 C371 1.506 . S
C372 C373 1.358 . S
C372 C377 1.382 . S
C373 C372 1.358 . S
C373 C374 1.385 1_455 S
C373 H396 0.930 . S
C374 C373 1.385 1_655 S
C374 C375 1.395 . S
C374 H397 0.929 . S
C375 C374 1.395 . S
C375 C376 1.335 . S
C376 C375 1.335 . S
C376 C377 1.398 1_655 S
C376 H398 0.930 . S
C377 C372 1.382 . S
C377 C376 1.398 1_455 S
C377 H399 0.929 . S
C378 O388 1.271 . S
C378 O389 1.251 . S
C379 O390 1.252 . S
C379 O391 1.272 . S
O380 Sm360 2.543 . S
O380 C362 1.261 . S
O381 Sm360 2.450 . S
O381 C362 1.242 . S
O382 Sm360 2.681 . S
O382 Sm361 2.386 . S
O382 C369 1.271 . S
O383 Sm360 2.464 . S
O383 C369 1.251 . S
O384 Sm360 2.396 . S
O384 C370 1.252 . S
O385 Sm361 2.408 . S
O385 C370 1.272 . S
O386 Sm361 2.543 . S
O386 C371 1.261 . S
O387 Sm361 2.450 . S
O387 C371 1.242 . S
O388 Sm360 2.386 . S
O388 Sm361 2.681 . S
O388 C378 1.271 . S
O389 Sm361 2.464 . S
O389 C378 1.251 . S
O390 Sm361 2.396 . S
O390 C379 1.252 . S
O391 Sm360 2.408 . S
O391 C379 1.272 . S
H392 C364 0.930 . S
H393 C365 0.929 . S
H394 C367 0.930 . S
H395 C368 0.929 . S
H396 C373 0.930 . S
H397 C374 0.929 . S
H398 C376 0.930 . S
H399 C377 0.929 . S
Sm400 C402 2.846 . S
Sm400 O420 2.543 . S
Sm400 O421 2.450 . S
Sm400 O422 2.681 . S
Sm400 O423 2.464 . S
Sm400 O424 2.396 . S
Sm400 O428 2.386 . S
Sm400 O431 2.408 . S
Sm401 C411 2.846 . S
Sm401 O422 2.386 . S
Sm401 O425 2.408 . S
Sm401 O426 2.543 . S
Sm401 O427 2.450 . S
Sm401 O428 2.681 . S
Sm401 O429 2.464 . S
Sm401 O430 2.396 . S
C402 Sm400 2.846 . S
C402 C403 1.506 . S
C402 O420 1.261 . S
C402 O421 1.242 . S
C403 C402 1.506 . S
C403 C404 1.358 . S
C403 C408 1.382 . S
C404 C403 1.358 . S
C404 C405 1.385 1_565 S
C404 H432 0.930 . S
C405 C404 1.385 1_545 S
C405 C406 1.395 . S
C405 H433 0.929 . S
C406 C405 1.395 . S
C406 C407 1.335 . S
C407 C406 1.335 . S
C407 C408 1.398 1_545 S
C407 H434 0.930 . S
C408 C403 1.382 . S
C408 C407 1.398 1_565 S
C408 H435 0.929 . S
C409 O422 1.271 . S
C409 O423 1.251 . S
C410 O424 1.252 . S
C410 O425 1.272 . S
C411 Sm401 2.846 . S
C411 C412 1.506 . S
C411 O426 1.261 . S
C411 O427 1.242 . S
C412 C411 1.506 . S
C412 C413 1.358 . S
C412 C417 1.382 . S
C413 C412 1.358 . S
C413 C414 1.385 . S
C413 H436 0.930 . S
C414 C413 1.385 . S
C414 C415 1.395 . S
C414 H437 0.929 . S
C415 C414 1.395 . S
C415 C416 1.335 . S
C416 C415 1.335 . S
C416 C417 1.398 . S
C416 H438 0.930 . S
C417 C412 1.382 . S
C417 C416 1.398 . S
C417 H439 0.929 . S
C418 O428 1.271 . S
C418 O429 1.251 . S
C419 O430 1.252 . S
C419 O431 1.272 . S
O420 Sm400 2.543 . S
O420 C402 1.261 . S
O421 Sm400 2.450 . S
O421 C402 1.242 . S
O422 Sm400 2.681 . S
O422 Sm401 2.386 . S
O422 C409 1.271 . S
O423 Sm400 2.464 . S
O423 C409 1.251 . S
O424 Sm400 2.396 . S
O424 C410 1.252 . S
O425 Sm401 2.408 . S
O425 C410 1.272 . S
O426 Sm401 2.543 . S
O426 C411 1.261 . S
O427 Sm401 2.450 . S
O427 C411 1.242 . S
O428 Sm400 2.386 . S
O428 Sm401 2.681 . S
O428 C418 1.271 . S
O429 Sm401 2.464 . S
O429 C418 1.251 . S
O430 Sm401 2.396 . S
O430 C419 1.252 . S
O431 Sm400 2.408 . S
O431 C419 1.272 . S
H432 C404 0.930 . S
H433 C405 0.929 . S
H434 C407 0.930 . S
H435 C408 0.929 . S
H436 C413 0.930 . S
H437 C414 0.929 . S
H438 C416 0.930 . S
H439 C417 0.929 . S
Sm440 C442 2.846 . S
Sm440 O460 2.543 . S
Sm440 O461 2.450 . S
Sm440 O462 2.681 . S
Sm440 O463 2.464 . S
Sm440 O464 2.396 . S
Sm440 O468 2.386 . S
Sm440 O471 2.408 . S
Sm441 C451 2.846 . S
Sm441 O462 2.386 . S
Sm441 O465 2.408 . S
Sm441 O466 2.543 . S
Sm441 O467 2.450 . S
Sm441 O468 2.681 . S
Sm441 O469 2.464 . S
Sm441 O470 2.396 . S
C442 Sm440 2.846 . S
C442 C443 1.506 . S
C442 O460 1.261 . S
C442 O461 1.242 . S
C443 C442 1.506 . S
C443 C444 1.358 . S
C443 C448 1.382 . S
C444 C443 1.358 . S
C444 C445 1.385 . S
C444 H472 0.930 . S
C445 C444 1.385 . S
C445 C446 1.395 . S
C445 H473 0.929 . S
C446 C445 1.395 . S
C446 C447 1.335 . S
C447 C446 1.335 . S
C447 C448 1.398 . S
C447 H474 0.930 . S
C448 C443 1.382 . S
C448 C447 1.398 . S
C448 H475 0.929 . S
C449 O462 1.271 . S
C449 O463 1.251 . S
C450 O464 1.252 . S
C450 O465 1.272 . S
C451 Sm441 2.846 . S
C451 C452 1.506 . S
C451 O466 1.261 . S
C451 O467 1.242 . S
C452 C451 1.506 . S
C452 C453 1.358 . S
C452 C457 1.382 . S
C453 C452 1.358 . S
C453 C454 1.385 . S
C453 H476 0.930 . S
C454 C453 1.385 . S
C454 C455 1.395 . S
C454 H477 0.929 . S
C455 C454 1.395 . S
C455 C456 1.335 . S
C456 C455 1.335 . S
C456 C457 1.398 . S
C456 H478 0.930 . S
C457 C452 1.382 . S
C457 C456 1.398 . S
C457 H479 0.929 . S
C458 O468 1.271 . S
C458 O469 1.251 . S
C459 O470 1.252 . S
C459 O471 1.272 . S
O460 Sm440 2.543 . S
O460 C442 1.261 . S
O461 Sm440 2.450 . S
O461 C442 1.242 . S
O462 Sm440 2.681 . S
O462 Sm441 2.386 . S
O462 C449 1.271 . S
O463 Sm440 2.464 . S
O463 C449 1.251 . S
O464 Sm440 2.396 . S
O464 C450 1.252 . S
O465 Sm441 2.408 . S
O465 C450 1.272 . S
O466 Sm441 2.543 . S
O466 C451 1.261 . S
O467 Sm441 2.450 . S
O467 C451 1.242 . S
O468 Sm440 2.386 . S
O468 Sm441 2.681 . S
O468 C458 1.271 . S
O469 Sm441 2.464 . S
O469 C458 1.251 . S
O470 Sm441 2.396 . S
O470 C459 1.252 . S
O471 Sm440 2.408 . S
O471 C459 1.272 . S
H472 C444 0.930 . S
H473 C445 0.929 . S
H474 C447 0.930 . S
H475 C448 0.929 . S
H476 C453 0.930 . S
H477 C454 0.929 . S
H478 C456 0.930 . S
H479 C457 0.929 . S
H480 C488 0.929 . S
H481 C490 0.930 . S
H482 C492 0.930 . S
H483 C495 0.929 . S
H484 C498 0.930 . S
H485 C500 0.960 . S
H486 C500 0.960 . S
H487 C500 0.960 . S
C488 H480 0.929 . S
C488 C489 1.377 . S
C488 C490 1.384 . S
C489 C488 1.377 . S
C489 C495 1.390 . S
C490 H481 0.930 . S
C490 C488 1.384 . S
C490 C491 1.372 . S
C491 C490 1.372 . S
C491 C492 1.400 . S
C491 C496 1.490 . S
C492 H482 0.930 . S
C492 C491 1.400 . S
C492 C495 1.386 . S
H493 C509 0.930 . S
H494 C510 0.931 . S
C495 H483 0.929 . S
C495 C489 1.390 . S
C495 C492 1.386 . S
C496 C491 1.490 . S
C496 C498 1.395 . S
C496 C499 1.403 . S
H497 C503 0.930 . S
C498 H484 0.930 . S
C498 C496 1.395 . S
C498 C501 1.403 . S
C499 C496 1.403 . S
C499 C500 1.524 . S
C499 C503 1.400 . S
C500 H485 0.960 . S
C500 H486 0.960 . S
C500 H487 0.960 . S
C500 C499 1.524 . S
C501 C498 1.403 . S
C501 C502 1.392 . S
C501 C505 1.495 . S
C502 C501 1.392 . S
C502 C503 1.385 . S
C502 C504 1.478 . S
C503 H497 0.930 . S
C503 C499 1.400 . S
C503 C502 1.385 . S
C504 C502 1.478 . S
C504 C506 1.381 . S
C504 C510 1.383 . S
C505 C501 1.495 . S
C505 H511 0.959 . S
C505 H512 0.961 . S
C505 H513 0.960 . S
C506 C504 1.381 . S
C506 C507 1.394 . S
C506 H514 0.930 . S
C507 C506 1.394 . S
C507 C508 1.383 . S
C507 H515 0.929 . S
C508 C507 1.383 . S
C508 C509 1.377 . S
C509 H493 0.930 . S
C509 C508 1.377 . S
C509 C510 1.379 . S
C510 H494 0.931 . S
C510 C504 1.383 . S
C510 C509 1.379 . S
H511 C505 0.959 . S
H512 C505 0.961 . S
H513 C505 0.960 . S
H514 C506 0.930 . S
H515 C507 0.929 . S
H516 C524 0.929 . S
H517 C526 0.930 . S
H518 C528 0.930 . S
H519 C531 0.929 . S
H520 C534 0.930 . S
H521 C536 0.960 . S
H522 C536 0.960 . S
H523 C536 0.960 . S
C524 H516 0.929 . S
C524 C525 1.377 . S
C524 C526 1.384 . S
C525 C524 1.377 . S
C525 C531 1.390 . S
C526 H517 0.930 . S
C526 C524 1.384 . S
C526 C527 1.372 . S
C527 C526 1.372 . S
C527 C528 1.400 . S
C527 C532 1.490 . S
C528 H518 0.930 . S
C528 C527 1.400 . S
C528 C531 1.386 . S
H529 C545 0.930 . S
H530 C546 0.931 . S
C531 H519 0.929 . S
C531 C525 1.390 . S
C531 C528 1.386 . S
C532 C527 1.490 . S
C532 C534 1.395 . S
C532 C535 1.403 . S
H533 C539 0.930 . S
C534 H520 0.930 . S
C534 C532 1.395 . S
C534 C537 1.403 1_455 S
C535 C532 1.403 . S
C535 C536 1.524 . S
C535 C539 1.400 1_455 S
C536 H521 0.960 . S
C536 H522 0.960 . S
C536 H523 0.960 . S
C536 C535 1.524 . S
C537 C534 1.403 1_655 S
C537 C538 1.392 . S
C537 C541 1.495 . S
C538 C537 1.392 . S
C538 C539 1.385 . S
C538 C540 1.478 . S
C539 H533 0.930 . S
C539 C535 1.400 1_655 S
C539 C538 1.385 . S
C540 C538 1.478 . S
C540 C542 1.381 . S
C540 C546 1.383 . S
C541 C537 1.495 . S
C541 H547 0.959 . S
C541 H548 0.961 . S
C541 H549 0.960 . S
C542 C540 1.381 . S
C542 C543 1.394 . S
C542 H550 0.930 . S
C543 C542 1.394 . S
C543 C544 1.383 . S
C543 H551 0.929 . S
C544 C543 1.383 . S
C544 C545 1.377 . S
C545 H529 0.930 . S
C545 C544 1.377 . S
C545 C546 1.379 . S
C546 H530 0.931 . S
C546 C540 1.383 . S
C546 C545 1.379 . S
H547 C541 0.959 . S
H548 C541 0.961 . S
H549 C541 0.960 . S
H550 C542 0.930 . S
H551 C543 0.929 . S
H552 C560 0.929 . S
H553 C562 0.930 . S
H554 C564 0.930 . S
H555 C567 0.929 . S
H556 C570 0.930 . S
H557 C572 0.960 . S
H558 C572 0.960 . S
H559 C572 0.960 . S
C560 H552 0.929 . S
C560 C561 1.377 . S
C560 C562 1.384 . S
C561 C560 1.377 . S
C561 C567 1.390 . S
C562 H553 0.930 . S
C562 C560 1.384 . S
C562 C563 1.372 . S
C563 C562 1.372 . S
C563 C564 1.400 . S
C563 C568 1.490 . S
C564 H554 0.930 . S
C564 C563 1.400 . S
C564 C567 1.386 . S
H565 C581 0.930 . S
H566 C582 0.931 . S
C567 H555 0.929 . S
C567 C561 1.390 . S
C567 C564 1.386 . S
C568 C563 1.490 . S
C568 C570 1.395 . S
C568 C571 1.403 . S
H569 C575 0.930 . S
C570 H556 0.930 . S
C570 C568 1.395 . S
C570 C573 1.403 1_545 S
C571 C568 1.403 . S
C571 C572 1.524 . S
C571 C575 1.400 1_545 S
C572 H557 0.960 . S
C572 H558 0.960 . S
C572 H559 0.960 . S
C572 C571 1.524 . S
C573 C570 1.403 1_565 S
C573 C574 1.392 . S
C573 C577 1.495 . S
C574 C573 1.392 . S
C574 C575 1.385 . S
C574 C576 1.478 . S
C575 H569 0.930 . S
C575 C571 1.400 1_565 S
C575 C574 1.385 . S
C576 C574 1.478 . S
C576 C578 1.381 . S
C576 C582 1.383 . S
C577 C573 1.495 . S
C577 H583 0.959 . S
C577 H584 0.961 . S
C577 H585 0.960 . S
C578 C576 1.381 . S
C578 C579 1.394 . S
C578 H586 0.930 . S
C579 C578 1.394 . S
C579 C580 1.383 . S
C579 H587 0.929 . S
C580 C579 1.383 . S
C580 C581 1.377 . S
C581 H565 0.930 . S
C581 C580 1.377 . S
C581 C582 1.379 . S
C582 H566 0.931 . S
C582 C576 1.383 . S
C582 C581 1.379 . S
H583 C577 0.959 . S
H584 C577 0.961 . S
H585 C577 0.960 . S
H586 C578 0.930 . S
H587 C579 0.929 . S
H588 C596 0.929 . S
H589 C598 0.930 . S
H590 C600 0.930 . S
H591 C603 0.929 . S
H592 C606 0.930 . S
H593 C608 0.960 . S
H594 C608 0.960 . S
H595 C608 0.960 . S
C596 H588 0.929 . S
C596 C597 1.377 . S
C596 C598 1.384 . S
C597 C596 1.377 . S
C597 C603 1.390 . S
C598 H589 0.930 . S
C598 C596 1.384 . S
C598 C599 1.372 . S
C599 C598 1.372 . S
C599 C600 1.400 . S
C599 C604 1.490 . S
C600 H590 0.930 . S
C600 C599 1.400 . S
C600 C603 1.386 . S
H601 C617 0.930 . S
H602 C618 0.931 . S
C603 H591 0.929 . S
C603 C597 1.390 . S
C603 C600 1.386 . S
C604 C599 1.490 . S
C604 C606 1.395 . S
C604 C607 1.403 . S
H605 C611 0.930 . S
C606 H592 0.930 . S
C606 C604 1.395 . S
C606 C609 1.403 . S
C607 C604 1.403 . S
C607 C608 1.524 . S
C607 C611 1.400 . S
C608 H593 0.960 . S
C608 H594 0.960 . S
C608 H595 0.960 . S
C608 C607 1.524 . S
C609 C606 1.403 . S
C609 C610 1.392 . S
C609 C613 1.495 . S
C610 C609 1.392 . S
C610 C611 1.385 . S
C610 C612 1.478 . S
C611 H605 0.930 . S
C611 C607 1.400 . S
C611 C610 1.385 . S
C612 C610 1.478 . S
C612 C614 1.381 . S
C612 C618 1.383 . S
C613 C609 1.495 . S
C613 H619 0.959 . S
C613 H620 0.961 . S
C613 H621 0.960 . S
C614 C612 1.381 . S
C614 C615 1.394 . S
C614 H622 0.930 . S
C615 C614 1.394 . S
C615 C616 1.383 . S
C615 H623 0.929 . S
C616 C615 1.383 . S
C616 C617 1.377 . S
C617 H601 0.930 . S
C617 C616 1.377 . S
C617 C618 1.379 . S
C618 H602 0.931 . S
C618 C612 1.383 . S
C618 C617 1.379 . S
H619 C613 0.959 . S
H620 C613 0.961 . S
H621 C613 0.960 . S
H622 C614 0.930 . S
H623 C615 0.929 . S
H624 C632 0.929 . S
H625 C634 0.930 . S
H626 C636 0.930 . S
H627 C639 0.929 . S
H628 C642 0.930 . S
H629 C644 0.960 . S
H630 C644 0.960 . S
H631 C644 0.960 . S
C632 H624 0.929 . S
C632 C633 1.377 . S
C632 C634 1.384 . S
C633 C632 1.377 . S
C633 C639 1.390 . S
C634 H625 0.930 . S
C634 C632 1.384 . S
C634 C635 1.372 . S
C635 C634 1.372 . S
C635 C636 1.400 . S
C635 C640 1.490 . S
C636 H626 0.930 . S
C636 C635 1.400 . S
C636 C639 1.386 . S
H637 C653 0.930 . S
H638 C654 0.931 . S
C639 H627 0.929 . S
C639 C633 1.390 . S
C639 C636 1.386 . S
C640 C635 1.490 . S
C640 C642 1.395 . S
C640 C643 1.403 . S
H641 C647 0.930 . S
C642 H628 0.930 . S
C642 C640 1.395 . S
C642 C645 1.403 1_455 S
C643 C640 1.403 . S
C643 C644 1.524 . S
C643 C647 1.400 1_455 S
C644 H629 0.960 . S
C644 H630 0.960 . S
C644 H631 0.960 . S
C644 C643 1.524 . S
C645 C642 1.403 1_655 S
C645 C646 1.392 . S
C645 C649 1.495 . S
C646 C645 1.392 . S
C646 C647 1.385 . S
C646 C648 1.478 . S
C647 H641 0.930 . S
C647 C643 1.400 1_655 S
C647 C646 1.385 . S
C648 C646 1.478 . S
C648 C650 1.381 . S
C648 C654 1.383 . S
C649 C645 1.495 . S
C649 H655 0.959 . S
C649 H656 0.961 . S
C649 H657 0.960 . S
C650 C648 1.381 . S
C650 C651 1.394 . S
C650 H658 0.930 . S
C651 C650 1.394 . S
C651 C652 1.383 . S
C651 H659 0.929 . S
C652 C651 1.383 . S
C652 C653 1.377 . S
C653 H637 0.930 . S
C653 C652 1.377 . S
C653 C654 1.379 . S
C654 H638 0.931 . S
C654 C648 1.383 . S
C654 C653 1.379 . S
H655 C649 0.959 . S
H656 C649 0.961 . S
H657 C649 0.960 . S
H658 C650 0.930 . S
H659 C651 0.929 . S
H660 C668 0.929 . S
H661 C670 0.930 . S
H662 C672 0.930 . S
H663 C675 0.929 . S
H664 C678 0.930 . S
H665 C680 0.960 . S
H666 C680 0.960 . S
H667 C680 0.960 . S
C668 H660 0.929 . S
C668 C669 1.377 . S
C668 C670 1.384 . S
C669 C668 1.377 . S
C669 C675 1.390 . S
C670 H661 0.930 . S
C670 C668 1.384 . S
C670 C671 1.372 . S
C671 C670 1.372 . S
C671 C672 1.400 . S
C671 C676 1.490 . S
C672 H662 0.930 . S
C672 C671 1.400 . S
C672 C675 1.386 . S
H673 C689 0.930 . S
H674 C690 0.931 . S
C675 H663 0.929 . S
C675 C669 1.390 . S
C675 C672 1.386 . S
C676 C671 1.490 . S
C676 C678 1.395 . S
C676 C679 1.403 . S
H677 C683 0.930 . S
C678 H664 0.930 . S
C678 C676 1.395 . S
C678 C681 1.403 1_565 S
C679 C676 1.403 . S
C679 C680 1.524 . S
C679 C683 1.400 1_565 S
C680 H665 0.960 . S
C680 H666 0.960 . S
C680 H667 0.960 . S
C680 C679 1.524 . S
C681 C678 1.403 1_545 S
C681 C682 1.392 . S
C681 C685 1.495 . S
C682 C681 1.392 . S
C682 C683 1.385 . S
C682 C684 1.478 . S
C683 H677 0.930 . S
C683 C679 1.400 1_545 S
C683 C682 1.385 . S
C684 C682 1.478 . S
C684 C686 1.381 . S
C684 C690 1.383 . S
C685 C681 1.495 . S
C685 H691 0.959 . S
C685 H692 0.961 . S
C685 H693 0.960 . S
C686 C684 1.381 . S
C686 C687 1.394 . S
C686 H694 0.930 . S
C687 C686 1.394 . S
C687 C688 1.383 . S
C687 H695 0.929 . S
C688 C687 1.383 . S
C688 C689 1.377 . S
C689 H673 0.930 . S
C689 C688 1.377 . S
C689 C690 1.379 . S
C690 H674 0.931 . S
C690 C684 1.383 . S
C690 C689 1.379 . S
H691 C685 0.959 . S
H692 C685 0.961 . S
H693 C685 0.960 . S
H694 C686 0.930 . S
H695 C687 0.929 . S
H696 C704 0.929 . S
H697 C706 0.930 . S
H698 C708 0.930 . S
H699 C711 0.929 . S
H700 C714 0.930 . S
H701 C716 0.960 . S
H702 C716 0.960 . S
H703 C716 0.960 . S
C704 H696 0.929 . S
C704 C705 1.377 . S
C704 C706 1.384 . S
C705 C704 1.377 . S
C705 C711 1.390 . S
C706 H697 0.930 . S
C706 C704 1.384 . S
C706 C707 1.372 . S
C707 C706 1.372 . S
C707 C708 1.400 . S
C707 C712 1.490 . S
C708 H698 0.930 . S
C708 C707 1.400 . S
C708 C711 1.386 . S
H709 C725 0.930 . S
H710 C726 0.931 . S
C711 H699 0.929 . S
C711 C705 1.390 . S
C711 C708 1.386 . S
C712 C707 1.490 . S
C712 C714 1.395 . S
C712 C715 1.403 . S
H713 C719 0.930 . S
C714 H700 0.930 . S
C714 C712 1.395 . S
C714 C717 1.403 . S
C715 C712 1.403 . S
C715 C716 1.524 . S
C715 C719 1.400 . S
C716 H701 0.960 . S
C716 H702 0.960 . S
C716 H703 0.960 . S
C716 C715 1.524 . S
C717 C714 1.403 . S
C717 C718 1.392 . S
C717 C721 1.495 . S
C718 C717 1.392 . S
C718 C719 1.385 . S
C718 C720 1.478 . S
C719 H713 0.930 . S
C719 C715 1.400 . S
C719 C718 1.385 . S
C720 C718 1.478 . S
C720 C722 1.381 . S
C720 C726 1.383 . S
C721 C717 1.495 . S
C721 H727 0.959 . S
C721 H728 0.961 . S
C721 H729 0.960 . S
C722 C720 1.381 . S
C722 C723 1.394 . S
C722 H730 0.930 . S
C723 C722 1.394 . S
C723 C724 1.383 . S
C723 H731 0.929 . S
C724 C723 1.383 . S
C724 C725 1.377 . S
C725 H709 0.930 . S
C725 C724 1.377 . S
C725 C726 1.379 . S
C726 H710 0.931 . S
C726 C720 1.383 . S
C726 C725 1.379 . S
H727 C721 0.959 . S
H728 C721 0.961 . S
H729 C721 0.960 . S
H730 C722 0.930 . S
H731 C723 0.929 . S
H732 C740 0.929 . S
H733 C742 0.930 . S
H734 C744 0.930 . S
H735 C747 0.929 . S
H736 C750 0.930 . S
H737 C752 0.960 1_655 S
H738 C752 0.960 . S
H739 C752 0.960 . S
C740 H732 0.929 . S
C740 C741 1.377 . S
C740 C742 1.384 . S
C741 C740 1.377 . S
C741 C747 1.390 . S
C742 H733 0.930 . S
C742 C740 1.384 . S
C742 C743 1.372 . S
C743 C742 1.372 . S
C743 C744 1.400 . S
C743 C748 1.490 . S
C744 H734 0.930 . S
C744 C743 1.400 . S
C744 C747 1.386 . S
H745 C761 0.930 . S
H746 C762 0.931 . S
C747 H735 0.929 . S
C747 C741 1.390 . S
C747 C744 1.386 . S
C748 C743 1.490 . S
C748 C750 1.395 . S
C748 C751 1.403 . S
H749 C755 0.930 . S
C750 H736 0.930 . S
C750 C748 1.395 . S
C750 C753 1.403 1_455 S
C751 C748 1.403 . S
C751 C752 1.524 . S
C751 C755 1.400 1_455 S
C752 H737 0.960 1_455 S
C752 H738 0.960 . S
C752 H739 0.960 . S
C752 C751 1.524 . S
C753 C750 1.403 1_655 S
C753 C754 1.392 . S
C753 C757 1.495 . S
C754 C753 1.392 . S
C754 C755 1.385 . S
C754 C756 1.478 . S
C755 H749 0.930 . S
C755 C751 1.400 1_655 S
C755 C754 1.385 . S
C756 C754 1.478 . S
C756 C758 1.381 . S
C756 C762 1.383 . S
C757 C753 1.495 . S
C757 H763 0.959 . S
C757 H764 0.961 . S
C757 H765 0.960 . S
C758 C756 1.381 . S
C758 C759 1.394 . S
C758 H766 0.930 . S
C759 C758 1.394 . S
C759 C760 1.383 . S
C759 H767 0.929 . S
C760 C759 1.383 . S
C760 C761 1.377 . S
C761 H745 0.930 . S
C761 C760 1.377 . S
C761 C762 1.379 . S
C762 H746 0.931 . S
C762 C756 1.383 . S
C762 C761 1.379 . S
H763 C757 0.959 . S
H764 C757 0.961 . S
H765 C757 0.960 . S
H766 C758 0.930 . S
H767 C759 0.929 . S
H768 C776 0.929 . S
H769 C778 0.930 . S
H770 C780 0.930 . S
H771 C783 0.929 . S
H772 C786 0.930 . S
H773 C788 0.946 1_545 S
H774 C788 0.963 . S
H775 C788 0.965 . S
C776 H768 0.929 . S
C776 C777 1.377 . S
C776 C778 1.384 . S
C777 C776 1.377 . S
C777 C783 1.390 . S
C778 H769 0.930 . S
C778 C776 1.384 . S
C778 C779 1.372 . S
C779 C778 1.372 . S
C779 C780 1.400 . S
C779 C784 1.490 . S
C780 H770 0.930 . S
C780 C779 1.400 . S
C780 C783 1.386 . S
H781 C797 0.930 . S
H782 C798 0.931 . S
C783 H771 0.929 . S
C783 C777 1.390 . S
C783 C780 1.386 . S
C784 C779 1.490 . S
C784 C786 1.395 . S
C784 C787 1.403 1_565 S
H785 C791 0.930 . S
C786 H772 0.930 . S
C786 C784 1.395 . S
C786 C789 1.403 1_565 S
C787 C784 1.403 1_545 S
C787 C788 1.530 1_545 S
C787 C791 1.400 . S
C788 H773 0.946 1_565 S
C788 H774 0.963 . S
C788 H775 0.965 . S
C788 C787 1.530 1_565 S
C789 C786 1.403 1_545 S
C789 C790 1.392 . S
C789 C793 1.495 . S
C790 C789 1.392 . S
C790 C791 1.385 . S
C790 C792 1.478 . S
C791 H785 0.930 . S
C791 C787 1.400 . S
C791 C790 1.385 . S
C792 C790 1.478 . S
C792 C794 1.381 . S
C792 C798 1.383 . S
C793 C789 1.495 . S
C793 H799 0.959 1_545 S
C793 H800 0.961 . S
C793 H801 0.960 . S
C794 C792 1.381 . S
C794 C795 1.394 . S
C794 H802 0.930 . S
C795 C794 1.394 . S
C795 C796 1.383 . S
C795 H803 0.929 . S
C796 C795 1.383 . S
C796 C797 1.377 . S
C797 H781 0.930 . S
C797 C796 1.377 . S
C797 C798 1.379 . S
C798 H782 0.931 . S
C798 C792 1.383 . S
C798 C797 1.379 . S
H799 C793 0.959 1_565 S
H800 C793 0.961 . S
H801 C793 0.960 . S
H802 C794 0.930 . S
H803 C795 0.929 . S
H804 C812 0.929 . S
H805 C814 0.930 . S
H806 C816 0.930 . S
H807 C819 0.929 . S
H808 C822 0.930 . S
H809 C824 0.960 . S
H810 C824 0.960 . S
H811 C824 0.960 . S
C812 H804 0.929 . S
C812 C813 1.377 . S
C812 C814 1.384 . S
C813 C812 1.377 . S
C813 C819 1.390 . S
C814 H805 0.930 . S
C814 C812 1.384 . S
C814 C815 1.372 . S
C815 C814 1.372 . S
C815 C816 1.400 . S
C815 C820 1.490 . S
C816 H806 0.930 . S
C816 C815 1.400 . S
C816 C819 1.386 . S
H817 C833 0.930 . S
H818 C834 0.931 . S
C819 H807 0.929 . S
C819 C813 1.390 . S
C819 C816 1.386 . S
C820 C815 1.490 . S
C820 C822 1.395 . S
C820 C823 1.403 . S
H821 C827 0.930 . S
C822 H808 0.930 . S
C822 C820 1.395 . S
C822 C825 1.403 . S
C823 C820 1.403 . S
C823 C824 1.524 . S
C823 C827 1.400 . S
C824 H809 0.960 . S
C824 H810 0.960 . S
C824 H811 0.960 . S
C824 C823 1.524 . S
C825 C822 1.403 . S
C825 C826 1.392 . S
C825 C829 1.495 . S
C826 C825 1.392 . S
C826 C827 1.385 . S
C826 C828 1.478 . S
C827 H821 0.930 . S
C827 C823 1.400 . S
C827 C826 1.385 . S
C828 C826 1.478 . S
C828 C830 1.381 . S
C828 C834 1.383 . S
C829 C825 1.495 . S
C829 H835 0.959 . S
C829 H836 0.961 . S
C829 H837 0.960 . S
C830 C828 1.381 . S
C830 C831 1.394 . S
C830 H838 0.930 . S
C831 C830 1.394 . S
C831 C832 1.383 . S
C831 H839 0.929 . S
C832 C831 1.383 . S
C832 C833 1.377 . S
C833 H817 0.930 . S
C833 C832 1.377 . S
C833 C834 1.379 . S
C834 H818 0.931 . S
C834 C828 1.383 . S
C834 C833 1.379 . S
H835 C829 0.959 . S
H836 C829 0.961 . S
H837 C829 0.960 . S
H838 C830 0.930 . S
H839 C831 0.929 . S
H840 C848 0.929 . S
H841 C850 0.930 . S
H842 C852 0.930 . S
H843 C855 0.929 . S
H844 C858 0.920 1_455 S
H845 C860 0.960 . S
H846 C860 0.960 . S
H847 C860 0.960 . S
C848 H840 0.929 . S
C848 C849 1.377 . S
C848 C850 1.384 . S
C849 C848 1.377 . S
C849 C855 1.390 . S
C850 H841 0.930 . S
C850 C848 1.384 . S
C850 C851 1.372 . S
C851 C850 1.372 . S
C851 C852 1.400 . S
C851 C856 1.490 . S
C852 H842 0.930 . S
C852 C851 1.400 . S
C852 C855 1.386 . S
H853 C869 0.930 . S
H854 C870 0.931 . S
C855 H843 0.929 . S
C855 C849 1.390 . S
C855 C852 1.386 . S
C856 C851 1.490 . S
C856 C858 1.390 1_455 S
C856 C859 1.403 . S
H857 C863 0.930 . S
C858 H844 0.920 1_655 S
C858 C856 1.390 1_655 S
C858 C861 1.418 . S
C859 C856 1.403 . S
C859 C860 1.524 . S
C859 C863 1.400 1_455 S
C860 H845 0.960 . S
C860 H846 0.960 . S
C860 H847 0.960 . S
C860 C859 1.524 . S
C861 C858 1.418 . S
C861 C862 1.392 . S
C861 C865 1.495 . S
C862 C861 1.392 . S
C862 C863 1.385 . S
C862 C864 1.478 . S
C863 H857 0.930 . S
C863 C859 1.400 1_655 S
C863 C862 1.385 . S
C864 C862 1.478 . S
C864 C866 1.381 . S
C864 C870 1.383 . S
C865 C861 1.495 . S
C865 H871 0.959 . S
C865 H872 0.961 . S
C865 H873 0.960 . S
C866 C864 1.381 . S
C866 C867 1.394 . S
C866 H874 0.930 . S
C867 C866 1.394 . S
C867 C868 1.383 . S
C867 H875 0.929 . S
C868 C867 1.383 . S
C868 C869 1.377 . S
C869 H853 0.930 . S
C869 C868 1.377 . S
C869 C870 1.379 . S
C870 H854 0.931 . S
C870 C864 1.383 . S
C870 C869 1.379 . S
H871 C865 0.959 . S
H872 C865 0.961 . S
H873 C865 0.960 . S
H874 C866 0.930 . S
H875 C867 0.929 . S
H876 C884 0.929 . S
H877 C886 0.930 . S
H878 C888 0.930 . S
H879 C891 0.929 . S
H880 C894 0.930 . S
H881 C896 0.960 1_565 S
H882 C896 0.960 . S
H883 C896 0.960 . S
C884 H876 0.929 . S
C884 C885 1.377 . S
C884 C886 1.384 . S
C885 C884 1.377 . S
C885 C891 1.390 . S
C886 H877 0.930 . S
C886 C884 1.384 . S
C886 C887 1.372 . S
C887 C886 1.372 . S
C887 C888 1.400 . S
C887 C892 1.490 . S
C888 H878 0.930 . S
C888 C887 1.400 . S
C888 C891 1.386 . S
H889 C905 0.930 . S
H890 C906 0.931 . S
C891 H879 0.929 . S
C891 C885 1.390 . S
C891 C888 1.386 . S
C892 C887 1.490 . S
C892 C894 1.395 . S
C892 C895 1.403 . S
H893 C899 0.930 . S
C894 H880 0.930 . S
C894 C892 1.395 . S
C894 C897 1.379 1_545 S
C895 C892 1.403 . S
C895 C896 1.524 . S
C895 C899 1.400 1_545 S
C896 H881 0.960 1_545 S
C896 H882 0.960 . S
C896 H883 0.960 . S
C896 C895 1.524 . S
C897 C894 1.379 1_565 S
C897 C898 1.421 . S
C897 C901 1.491 . S
C898 C897 1.421 . S
C898 C899 1.385 . S
C898 C900 1.478 . S
C899 H893 0.930 . S
C899 C895 1.400 1_565 S
C899 C898 1.385 . S
C900 C898 1.478 . S
C900 C902 1.381 . S
C900 C906 1.383 . S
C901 C897 1.491 . S
C901 H907 0.959 1_565 S
C901 H908 0.961 . S
C901 H909 0.960 . S
C902 C900 1.381 . S
C902 C903 1.394 . S
C902 H910 0.930 . S
C903 C902 1.394 . S
C903 C904 1.383 . S
C903 H911 0.929 . S
C904 C903 1.383 . S
C904 C905 1.377 . S
C905 H889 0.930 . S
C905 C904 1.377 . S
C905 C906 1.379 . S
C906 H890 0.931 . S
C906 C900 1.383 . S
C906 C905 1.379 . S
H907 C901 0.959 1_545 S
H908 C901 0.961 . S
H909 C901 0.960 . S
H910 C902 0.930 . S
H911 C903 0.929 . S
H912 C920 0.929 . S
H913 C922 0.930 . S
H914 C924 0.930 . S
H915 C927 0.929 . S
H916 C930 0.930 . S
H917 C932 0.960 . S
H918 C932 0.960 . S
H919 C932 0.960 . S
C920 H912 0.929 . S
C920 C921 1.377 . S
C920 C922 1.384 . S
C921 C920 1.377 . S
C921 C927 1.390 . S
C922 H913 0.930 . S
C922 C920 1.384 . S
C922 C923 1.372 . S
C923 C922 1.372 . S
C923 C924 1.400 . S
C923 C928 1.490 . S
C924 H914 0.930 . S
C924 C923 1.400 . S
C924 C927 1.386 . S
H925 C941 0.930 . S
H926 C942 0.931 . S
C927 H915 0.929 . S
C927 C921 1.390 . S
C927 C924 1.386 . S
C928 C923 1.490 . S
C928 C930 1.395 . S
C928 C931 1.403 . S
H929 C935 0.930 . S
C930 H916 0.930 . S
C930 C928 1.395 . S
C930 C933 1.403 . S
C931 C928 1.403 . S
C931 C932 1.524 . S
C931 C935 1.400 . S
C932 H917 0.960 . S
C932 H918 0.960 . S
C932 H919 0.960 . S
C932 C931 1.524 . S
C933 C930 1.403 . S
C933 C934 1.392 . S
C933 C937 1.495 . S
C934 C933 1.392 . S
C934 C935 1.385 . S
C934 C936 1.478 . S
C935 H929 0.930 . S
C935 C931 1.400 . S
C935 C934 1.385 . S
C936 C934 1.478 . S
C936 C938 1.381 . S
C936 C942 1.383 . S
C937 C933 1.495 . S
C937 H943 0.959 . S
C937 H944 0.961 . S
C937 H945 0.960 . S
C938 C936 1.381 . S
C938 C939 1.394 . S
C938 H946 0.930 . S
C939 C938 1.394 . S
C939 C940 1.383 . S
C939 H947 0.929 . S
C940 C939 1.383 . S
C940 C941 1.377 . S
C941 H925 0.930 . S
C941 C940 1.377 . S
C941 C942 1.379 . S
C942 H926 0.931 . S
C942 C936 1.383 . S
C942 C941 1.379 . S
H943 C937 0.959 . S
H944 C937 0.961 . S
H945 C937 0.960 . S
H946 C938 0.930 . S
H947 C939 0.929 . S
H948 C956 0.929 . S
H949 C958 0.930 . S
H950 C960 0.930 . S
H951 C963 0.929 . S
H952 C966 0.930 . S
H953 C968 0.960 . S
H954 C968 0.960 . S
H955 C968 0.960 . S
C956 H948 0.929 . S
C956 C957 1.377 . S
C956 C958 1.384 . S
C957 C956 1.377 . S
C957 C963 1.390 . S
C958 H949 0.930 . S
C958 C956 1.384 . S
C958 C959 1.372 . S
C959 C958 1.372 . S
C959 C960 1.400 . S
C959 C964 1.490 . S
C960 H950 0.930 . S
C960 C959 1.400 . S
C960 C963 1.386 . S
H961 C977 0.930 . S
H962 C978 0.931 . S
C963 H951 0.929 . S
C963 C957 1.390 . S
C963 C960 1.386 . S
C964 C959 1.490 . S
C964 C966 1.395 . S
C964 C967 1.403 . S
H965 C971 0.930 . S
C966 H952 0.930 . S
C966 C964 1.395 . S
C966 C969 1.403 . S
C967 C964 1.403 . S
C967 C968 1.524 . S
C967 C971 1.400 . S
C968 H953 0.960 . S
C968 H954 0.960 . S
C968 H955 0.960 . S
C968 C967 1.524 . S
C969 C966 1.403 . S
C969 C970 1.392 . S
C969 C973 1.495 . S
C970 C969 1.392 . S
C970 C971 1.385 . S
C970 C972 1.478 . S
C971 H965 0.930 . S
C971 C967 1.400 . S
C971 C970 1.385 . S
C972 C970 1.478 . S
C972 C974 1.381 . S
C972 C978 1.383 . S
C973 C969 1.495 . S
C973 H979 0.959 . S
C973 H980 0.961 . S
C973 H981 0.960 . S
C974 C972 1.381 . S
C974 C975 1.394 . S
C974 H982 0.930 . S
C975 C974 1.394 . S
C975 C976 1.383 . S
C975 H983 0.929 . S
C976 C975 1.383 . S
C976 C977 1.377 . S
C977 H961 0.930 . S
C977 C976 1.377 . S
C977 C978 1.379 . S
C978 H962 0.931 . S
C978 C972 1.383 . S
C978 C977 1.379 . S
H979 C973 0.959 . S
H980 C973 0.961 . S
H981 C973 0.960 . S
H982 C974 0.930 . S
H983 C975 0.929 . S
H984 C992 0.929 . S
H985 C994 0.930 . S
H986 C996 0.930 . S
H987 C999 0.929 . S
H988 C1002 0.930 . S
H989 C1004 0.960 . S
H990 C1004 0.960 . S
H991 C1004 0.960 . S
C992 H984 0.929 . S
C992 C993 1.377 . S
C992 C994 1.384 . S
C993 C992 1.377 . S
C993 C999 1.390 . S
C994 H985 0.930 . S
C994 C992 1.384 . S
C994 C995 1.372 . S
C995 C994 1.372 . S
C995 C996 1.400 . S
C995 C1000 1.490 . S
C996 H986 0.930 . S
C996 C995 1.400 . S
C996 C999 1.386 . S
H997 C1013 0.930 . S
H998 C1014 0.931 . S
C999 H987 0.929 . S
C999 C993 1.390 . S
C999 C996 1.386 . S
C1000 C995 1.490 . S
C1000 C1002 1.395 . S
C1000 C1003 1.403 . S
H1001 C1007 0.930 . S
C1002 H988 0.930 . S
C1002 C1000 1.395 . S
C1002 C1005 1.403 . S
C1003 C1000 1.403 . S
C1003 C1004 1.524 . S
C1003 C1007 1.400 . S
C1004 H989 0.960 . S
C1004 H990 0.960 . S
C1004 H991 0.960 . S
C1004 C1003 1.524 . S
C1005 C1002 1.403 . S
C1005 C1006 1.392 . S
C1005 C1009 1.495 . S
C1006 C1005 1.392 . S
C1006 C1007 1.385 . S
C1006 C1008 1.478 . S
C1007 H1001 0.930 . S
C1007 C1003 1.400 . S
C1007 C1006 1.385 . S
C1008 C1006 1.478 . S
C1008 C1010 1.381 . S
C1008 C1014 1.383 . S
C1009 C1005 1.495 . S
C1009 H1015 0.959 . S
C1009 H1016 0.961 . S
C1009 H1017 0.960 . S
C1010 C1008 1.381 . S
C1010 C1011 1.394 . S
C1010 H1018 0.930 . S
C1011 C1010 1.394 . S
C1011 C1012 1.383 . S
C1011 H1019 0.929 . S
C1012 C1011 1.383 . S
C1012 C1013 1.377 . S
C1013 H997 0.930 . S
C1013 C1012 1.377 . S
C1013 C1014 1.379 . S
C1014 H998 0.931 . S
C1014 C1008 1.383 . S
C1014 C1013 1.379 . S
H1015 C1009 0.959 . S
H1016 C1009 0.961 . S
H1017 C1009 0.960 . S
H1018 C1010 0.930 . S
H1019 C1011 0.929 . S
H1020 C1028 0.929 . S
H1021 C1030 0.930 . S
H1022 C1032 0.930 . S
H1023 C1035 0.929 . S
H1024 C1038 0.930 . S
H1025 C1040 0.960 . S
H1026 C1040 0.960 . S
H1027 C1040 0.960 . S
C1028 H1020 0.929 . S
C1028 C1029 1.377 . S
C1028 C1030 1.384 . S
C1029 C1028 1.377 . S
C1029 C1035 1.390 . S
C1030 H1021 0.930 . S
C1030 C1028 1.384 . S
C1030 C1031 1.372 . S
C1031 C1030 1.372 . S
C1031 C1032 1.400 . S
C1031 C1036 1.490 . S
C1032 H1022 0.930 . S
C1032 C1031 1.400 . S
C1032 C1035 1.386 . S
H1033 C1049 0.930 . S
H1034 C1050 0.931 . S
C1035 H1023 0.929 . S
C1035 C1029 1.390 . S
C1035 C1032 1.386 . S
C1036 C1031 1.490 . S
C1036 C1038 1.395 . S
C1036 C1039 1.403 . S
H1037 C1043 0.930 . S
C1038 H1024 0.930 . S
C1038 C1036 1.395 . S
C1038 C1041 1.403 . S
C1039 C1036 1.403 . S
C1039 C1040 1.524 . S
C1039 C1043 1.400 . S
C1040 H1025 0.960 . S
C1040 H1026 0.960 . S
C1040 H1027 0.960 . S
C1040 C1039 1.524 . S
C1041 C1038 1.403 . S
C1041 C1042 1.392 . S
C1041 C1045 1.495 . S
C1042 C1041 1.392 . S
C1042 C1043 1.385 . S
C1042 C1044 1.478 . S
C1043 H1037 0.930 . S
C1043 C1039 1.400 . S
C1043 C1042 1.385 . S
C1044 C1042 1.478 . S
C1044 C1046 1.381 . S
C1044 C1050 1.383 . S
C1045 C1041 1.495 . S
C1045 H1051 0.959 . S
C1045 H1052 0.961 . S
C1045 H1053 0.960 . S
C1046 C1044 1.381 . S
C1046 C1047 1.394 . S
C1046 H1054 0.930 . S
C1047 C1046 1.394 . S
C1047 C1048 1.383 . S
C1047 H1055 0.929 . S
C1048 C1047 1.383 . S
C1048 C1049 1.377 . S
C1049 H1033 0.930 . S
C1049 C1048 1.377 . S
C1049 C1050 1.379 . S
C1050 H1034 0.931 . S
C1050 C1044 1.383 . S
C1050 C1049 1.379 . S
H1051 C1045 0.959 . S
H1052 C1045 0.961 . S
H1053 C1045 0.960 . S
H1054 C1046 0.930 . S
H1055 C1047 0.929 . S
H1056 C1064 0.929 . S
H1057 C1066 0.930 . S
H1058 C1068 0.930 . S
H1059 C1071 0.929 . S
H1060 C1074 0.930 . S
H1061 C1076 0.960 . S
H1062 C1076 0.960 . S
H1063 C1076 0.960 . S
C1064 H1056 0.929 . S
C1064 C1065 1.377 . S
C1064 C1066 1.384 . S
C1065 C1064 1.377 . S
C1065 C1071 1.390 . S
C1066 H1057 0.930 . S
C1066 C1064 1.384 . S
C1066 C1067 1.372 . S
C1067 C1066 1.372 . S
C1067 C1068 1.400 . S
C1067 C1072 1.490 . S
C1068 H1058 0.930 . S
C1068 C1067 1.400 . S
C1068 C1071 1.386 . S
H1069 C1085 0.930 . S
H1070 C1086 0.931 . S
C1071 H1059 0.929 . S
C1071 C1065 1.390 . S
C1071 C1068 1.386 . S
C1072 C1067 1.490 . S
C1072 C1074 1.395 . S
C1072 C1075 1.403 . S
H1073 C1079 0.930 . S
C1074 H1060 0.930 . S
C1074 C1072 1.395 . S
C1074 C1077 1.403 . S
C1075 C1072 1.403 . S
C1075 C1076 1.524 . S
C1075 C1079 1.400 . S
C1076 H1061 0.960 . S
C1076 H1062 0.960 . S
C1076 H1063 0.960 . S
C1076 C1075 1.524 . S
C1077 C1074 1.403 . S
C1077 C1078 1.392 . S
C1077 C1081 1.495 . S
C1078 C1077 1.392 . S
C1078 C1079 1.385 . S
C1078 C1080 1.478 . S
C1079 H1073 0.930 . S
C1079 C1075 1.400 . S
C1079 C1078 1.385 . S
C1080 C1078 1.478 . S
C1080 C1082 1.381 . S
C1080 C1086 1.383 . S
C1081 C1077 1.495 . S
C1081 H1087 0.959 . S
C1081 H1088 0.961 . S
C1081 H1089 0.960 . S
C1082 C1080 1.381 . S
C1082 C1083 1.394 . S
C1082 H1090 0.930 . S
C1083 C1082 1.394 . S
C1083 C1084 1.383 . S
C1083 H1091 0.929 . S
C1084 C1083 1.383 . S
C1084 C1085 1.377 . S
C1085 H1069 0.930 . S
C1085 C1084 1.377 . S
C1085 C1086 1.379 . S
C1086 H1070 0.931 . S
C1086 C1080 1.383 . S
C1086 C1085 1.379 . S
H1087 C1081 0.959 . S
H1088 C1081 0.961 . S
H1089 C1081 0.960 . S
H1090 C1082 0.930 . S
H1091 C1083 0.929 . S
H1092 C1100 0.929 . S
H1093 C1102 0.930 . S
H1094 C1104 0.930 . S
H1095 C1107 0.929 . S
H1096 C1110 0.930 . S
H1097 C1112 0.960 . S
H1098 C1112 0.960 . S
H1099 C1112 0.960 . S
C1100 H1092 0.929 . S
C1100 C1101 1.377 . S
C1100 C1102 1.384 . S
C1101 C1100 1.377 . S
C1101 C1107 1.390 . S
C1102 H1093 0.930 . S
C1102 C1100 1.384 . S
C1102 C1103 1.372 . S
C1103 C1102 1.372 . S
C1103 C1104 1.400 . S
C1103 C1108 1.490 . S
C1104 H1094 0.930 . S
C1104 C1103 1.400 . S
C1104 C1107 1.386 . S
H1105 C1121 0.930 . S
H1106 C1122 0.931 . S
C1107 H1095 0.929 . S
C1107 C1101 1.390 . S
C1107 C1104 1.386 . S
C1108 C1103 1.490 . S
C1108 C1110 1.395 . S
C1108 C1111 1.403 . S
H1109 C1115 0.930 . S
C1110 H1096 0.930 . S
C1110 C1108 1.395 . S
C1110 C1113 1.403 . S
C1111 C1108 1.403 . S
C1111 C1112 1.524 . S
C1111 C1115 1.400 . S
C1112 H1097 0.960 . S
C1112 H1098 0.960 . S
C1112 H1099 0.960 . S
C1112 C1111 1.524 . S
C1113 C1110 1.403 . S
C1113 C1114 1.392 . S
C1113 C1117 1.495 . S
C1114 C1113 1.392 . S
C1114 C1115 1.385 . S
C1114 C1116 1.478 . S
C1115 H1109 0.930 . S
C1115 C1111 1.400 . S
C1115 C1114 1.385 . S
C1116 C1114 1.478 . S
C1116 C1118 1.381 . S
C1116 C1122 1.383 . S
C1117 C1113 1.495 . S
C1117 H1123 0.959 . S
C1117 H1124 0.961 . S
C1117 H1125 0.960 . S
C1118 C1116 1.381 . S
C1118 C1119 1.394 . S
C1118 H1126 0.930 . S
C1119 C1118 1.394 . S
C1119 C1120 1.383 . S
C1119 H1127 0.929 . S
C1120 C1119 1.383 . S
C1120 C1121 1.377 . S
C1121 H1105 0.930 . S
C1121 C1120 1.377 . S
C1121 C1122 1.379 . S
C1122 H1106 0.931 . S
C1122 C1116 1.383 . S
C1122 C1121 1.379 . S
H1123 C1117 0.959 . S
H1124 C1117 0.961 . S
H1125 C1117 0.960 . S
H1126 C1118 0.930 . S
H1127 C1119 0.929 . S
H1128 C1136 0.929 . S
H1129 C1138 0.930 . S
H1130 C1140 0.930 . S
H1131 C1143 0.929 . S
H1132 C1146 0.930 . S
H1133 C1148 1.000 . S
H1134 C1148 0.943 1_565 S
H1135 C1148 0.956 . S
C1136 H1128 0.929 . S
C1136 C1137 1.377 . S
C1136 C1138 1.384 . S
C1137 C1136 1.377 . S
C1137 C1143 1.390 . S
C1138 H1129 0.930 . S
C1138 C1136 1.384 . S
C1138 C1139 1.372 . S
C1139 C1138 1.372 . S
C1139 C1140 1.400 . S
C1139 C1144 1.490 . S
C1140 H1130 0.930 . S
C1140 C1139 1.400 . S
C1140 C1143 1.386 . S
H1141 C1157 0.930 . S
H1142 C1158 0.931 . S
C1143 H1131 0.929 . S
C1143 C1137 1.390 . S
C1143 C1140 1.386 . S
C1144 C1139 1.490 . S
C1144 C1146 1.395 1_556 S
C1144 C1147 1.446 . S
H1145 C1151 0.930 . S
C1146 H1132 0.930 . S
C1146 C1144 1.395 1_554 S
C1146 C1149 1.403 . S
C1147 C1144 1.446 . S
C1147 C1148 1.489 1_565 S
C1147 C1151 1.376 1_566 S
C1148 H1133 1.000 . S
C1148 H1134 0.943 1_545 S
C1148 H1135 0.956 . S
C1148 C1147 1.489 1_545 S
C1149 C1146 1.403 . S
C1149 C1150 1.392 1_565 S
C1149 C1153 1.495 . S
C1150 C1149 1.392 1_545 S
C1150 C1151 1.385 . S
C1150 C1152 1.478 . S
C1151 H1145 0.930 . S
C1151 C1147 1.376 1_544 S
C1151 C1150 1.385 . S
C1152 C1150 1.478 . S
C1152 C1154 1.381 . S
C1152 C1158 1.383 . S
C1153 C1149 1.495 . S
C1153 H1159 0.959 . S
C1153 H1160 0.961 1_565 S
C1153 H1161 0.960 . S
C1154 C1152 1.381 . S
C1154 C1155 1.394 . S
C1154 H1162 0.930 . S
C1155 C1154 1.394 . S
C1155 C1156 1.383 . S
C1155 H1163 0.929 . S
C1156 C1155 1.383 . S
C1156 C1157 1.377 . S
C1157 H1141 0.930 . S
C1157 C1156 1.377 . S
C1157 C1158 1.379 . S
C1158 H1142 0.931 . S
C1158 C1152 1.383 . S
C1158 C1157 1.379 . S
H1159 C1153 0.959 . S
H1160 C1153 0.961 1_545 S
H1161 C1153 0.960 . S
H1162 C1154 0.930 . S
H1163 C1155 0.929 . S
H1164 C1172 0.929 . S
H1165 C1174 0.930 . S
H1166 C1176 0.930 . S
H1167 C1179 0.929 . S
H1168 C1182 0.930 . S
H1169 C1184 0.960 . S
H1170 C1184 0.960 . S
H1171 C1184 0.960 . S
C1172 H1164 0.929 . S
C1172 C1173 1.377 . S
C1172 C1174 1.384 . S
C1173 C1172 1.377 . S
C1173 C1179 1.390 . S
C1174 H1165 0.930 . S
C1174 C1172 1.384 . S
C1174 C1175 1.372 . S
C1175 C1174 1.372 . S
C1175 C1176 1.400 . S
C1175 C1180 1.490 . S
C1176 H1166 0.930 . S
C1176 C1175 1.400 . S
C1176 C1179 1.386 . S
H1177 C1193 0.930 . S
H1178 C1194 0.931 . S
C1179 H1167 0.929 . S
C1179 C1173 1.390 . S
C1179 C1176 1.386 . S
C1180 C1175 1.490 . S
C1180 C1182 1.395 . S
C1180 C1183 1.403 . S
H1181 C1187 0.930 . S
C1182 H1168 0.930 . S
C1182 C1180 1.395 . S
C1182 C1185 1.403 . S
C1183 C1180 1.403 . S
C1183 C1184 1.524 . S
C1183 C1187 1.400 . S
C1184 H1169 0.960 . S
C1184 H1170 0.960 . S
C1184 H1171 0.960 . S
C1184 C1183 1.524 . S
C1185 C1182 1.403 . S
C1185 C1186 1.392 . S
C1185 C1189 1.495 . S
C1186 C1185 1.392 . S
C1186 C1187 1.385 . S
C1186 C1188 1.478 . S
C1187 H1181 0.930 . S
C1187 C1183 1.400 . S
C1187 C1186 1.385 . S
C1188 C1186 1.478 . S
C1188 C1190 1.381 . S
C1188 C1194 1.383 . S
C1189 C1185 1.495 . S
C1189 H1195 0.959 . S
C1189 H1196 0.961 . S
C1189 H1197 0.960 . S
C1190 C1188 1.381 . S
C1190 C1191 1.394 . S
C1190 H1198 0.930 . S
C1191 C1190 1.394 . S
C1191 C1192 1.383 . S
C1191 H1199 0.929 . S
C1192 C1191 1.383 . S
C1192 C1193 1.377 . S
C1193 H1177 0.930 . S
C1193 C1192 1.377 . S
C1193 C1194 1.379 . S
C1194 H1178 0.931 . S
C1194 C1188 1.383 . S
C1194 C1193 1.379 . S
H1195 C1189 0.959 . S
H1196 C1189 0.961 . S
H1197 C1189 0.960 . S
H1198 C1190 0.930 . S
H1199 C1191 0.929 . S
H1200 C1208 0.929 . S
H1201 C1210 0.930 . S
H1202 C1212 0.930 . S
H1203 C1215 0.929 . S
H1204 C1218 0.930 . S
H1205 C1220 0.960 . S
H1206 C1220 0.960 . S
H1207 C1220 0.974 . S
C1208 H1200 0.929 . S
C1208 C1209 1.377 . S
C1208 C1210 1.384 . S
C1209 C1208 1.377 . S
C1209 C1215 1.390 . S
C1210 H1201 0.930 . S
C1210 C1208 1.384 . S
C1210 C1211 1.372 . S
C1211 C1210 1.372 . S
C1211 C1212 1.400 . S
C1211 C1216 1.490 . S
C1212 H1202 0.930 . S
C1212 C1211 1.400 . S
C1212 C1215 1.386 . S
H1213 C1229 0.930 . S
H1214 C1230 0.931 . S
C1215 H1203 0.929 . S
C1215 C1209 1.390 . S
C1215 C1212 1.386 . S
C1216 C1211 1.490 . S
C1216 C1218 1.395 1_455 S
C1216 C1219 1.403 1_556 S
H1217 C1223 0.922 1_455 S
C1218 H1204 0.930 . S
C1218 C1216 1.395 1_655 S
C1218 C1221 1.403 . S
C1219 C1216 1.403 1_554 S
C1219 C1220 1.524 . S
C1219 C1223 1.389 1_455 S
C1220 H1205 0.960 . S
C1220 H1206 0.960 . S
C1220 H1207 0.974 . S
C1220 C1219 1.524 . S
C1221 C1218 1.403 . S
C1221 C1222 1.392 1_556 S
C1221 C1225 1.495 . S
C1222 C1221 1.392 1_554 S
C1222 C1223 1.401 . S
C1222 C1224 1.478 . S
C1223 H1217 0.922 1_655 S
C1223 C1219 1.389 1_655 S
C1223 C1222 1.401 . S
C1224 C1222 1.478 . S
C1224 C1226 1.381 . S
C1224 C1230 1.383 . S
C1225 C1221 1.495 . S
C1225 H1231 0.959 . S
C1225 H1232 0.961 . S
C1225 H1233 0.960 . S
C1226 C1224 1.381 . S
C1226 C1227 1.394 . S
C1226 H1234 0.930 . S
C1227 C1226 1.394 . S
C1227 C1228 1.383 . S
C1227 H1235 0.929 . S
C1228 C1227 1.383 . S
C1228 C1229 1.377 . S
C1229 H1213 0.930 . S
C1229 C1228 1.377 . S
C1229 C1230 1.379 . S
C1230 H1214 0.931 . S
C1230 C1224 1.383 . S
C1230 C1229 1.379 . S
H1231 C1225 0.959 . S
H1232 C1225 0.961 . S
H1233 C1225 0.960 . S
H1234 C1226 0.930 . S
H1235 C1227 0.929 . S
H1236 C1244 0.929 . S
H1237 C1246 0.930 . S
H1238 C1248 0.930 . S
H1239 C1251 0.929 . S
H1240 C1254 0.930 . S
H1241 C1256 0.960 . S
H1242 C1256 0.960 . S
H1243 C1256 0.960 . S
C1244 H1236 0.929 . S
C1244 C1245 1.377 . S
C1244 C1246 1.384 . S
C1245 C1244 1.377 . S
C1245 C1251 1.390 . S
C1246 H1237 0.930 . S
C1246 C1244 1.384 . S
C1246 C1247 1.372 . S
C1247 C1246 1.372 . S
C1247 C1248 1.400 . S
C1247 C1252 1.490 . S
C1248 H1238 0.930 . S
C1248 C1247 1.400 . S
C1248 C1251 1.386 . S
H1249 C1265 0.930 . S
H1250 C1266 0.931 . S
C1251 H1239 0.929 . S
C1251 C1245 1.390 . S
C1251 C1248 1.386 . S
C1252 C1247 1.490 . S
C1252 C1254 1.395 1_545 S
C1252 C1255 1.403 . S
H1253 C1259 0.930 . S
C1254 H1240 0.930 . S
C1254 C1252 1.395 1_565 S
C1254 C1257 1.403 . S
C1255 C1252 1.403 . S
C1255 C1256 1.524 . S
C1255 C1259 1.400 . S
C1256 H1241 0.960 . S
C1256 H1242 0.960 . S
C1256 H1243 0.960 . S
C1256 C1255 1.524 . S
C1257 C1254 1.403 . S
C1257 C1258 1.392 . S
C1257 C1261 1.495 . S
C1258 C1257 1.392 . S
C1258 C1259 1.385 1_565 S
C1258 C1260 1.478 . S
C1259 H1253 0.930 . S
C1259 C1255 1.400 . S
C1259 C1258 1.385 1_545 S
C1260 C1258 1.478 . S
C1260 C1262 1.381 . S
C1260 C1266 1.383 . S
C1261 C1257 1.495 . S
C1261 H1267 0.959 . S
C1261 H1268 0.961 . S
C1261 H1269 0.960 . S
C1262 C1260 1.381 . S
C1262 C1263 1.394 . S
C1262 H1270 0.930 . S
C1263 C1262 1.394 . S
C1263 C1264 1.383 . S
C1263 H1271 0.929 . S
C1264 C1263 1.383 . S
C1264 C1265 1.377 . S
C1265 H1249 0.930 . S
C1265 C1264 1.377 . S
C1265 C1266 1.379 . S
C1266 H1250 0.931 . S
C1266 C1260 1.383 . S
C1266 C1265 1.379 . S
H1267 C1261 0.959 . S
H1268 C1261 0.961 . S
H1269 C1261 0.960 . S
H1270 C1262 0.930 . S
H1271 C1263 0.929 . S
H1272 C1280 0.929 . S
H1273 C1282 0.930 . S
H1274 C1284 0.930 . S
H1275 C1287 0.929 . S
H1276 C1290 0.930 . S
H1277 C1292 0.960 . S
H1278 C1292 0.960 . S
H1279 C1292 0.960 . S
C1280 H1272 0.929 . S
C1280 C1281 1.377 . S
C1280 C1282 1.384 . S
C1281 C1280 1.377 . S
C1281 C1287 1.390 . S
C1282 H1273 0.930 . S
C1282 C1280 1.384 . S
C1282 C1283 1.372 . S
C1283 C1282 1.372 . S
C1283 C1284 1.400 . S
C1283 C1288 1.490 . S
C1284 H1274 0.930 . S
C1284 C1283 1.400 . S
C1284 C1287 1.386 . S
H1285 C1301 0.930 . S
H1286 C1302 0.931 . S
C1287 H1275 0.929 . S
C1287 C1281 1.390 . S
C1287 C1284 1.386 . S
C1288 C1283 1.490 . S
C1288 C1290 1.395 1_554 S
C1288 C1291 1.403 . S
H1289 C1295 0.930 . S
C1290 H1276 0.930 . S
C1290 C1288 1.395 1_556 S
C1290 C1293 1.403 . S
C1291 C1288 1.403 . S
C1291 C1292 1.524 . S
C1291 C1295 1.400 . S
C1292 H1277 0.960 . S
C1292 H1278 0.960 . S
C1292 H1279 0.960 . S
C1292 C1291 1.524 . S
C1293 C1290 1.403 . S
C1293 C1294 1.392 . S
C1293 C1297 1.495 . S
C1294 C1293 1.392 . S
C1294 C1295 1.385 1_556 S
C1294 C1296 1.478 . S
C1295 H1289 0.930 . S
C1295 C1291 1.400 . S
C1295 C1294 1.385 1_554 S
C1296 C1294 1.478 . S
C1296 C1298 1.381 . S
C1296 C1302 1.383 . S
C1297 C1293 1.495 . S
C1297 H1303 0.959 . S
C1297 H1304 0.961 . S
C1297 H1305 0.960 . S
C1298 C1296 1.381 . S
C1298 C1299 1.394 . S
C1298 H1306 0.930 . S
C1299 C1298 1.394 . S
C1299 C1300 1.383 . S
C1299 H1307 0.929 . S
C1300 C1299 1.383 . S
C1300 C1301 1.377 . S
C1301 H1285 0.930 . S
C1301 C1300 1.377 . S
C1301 C1302 1.379 . S
C1302 H1286 0.931 . S
C1302 C1296 1.383 . S
C1302 C1301 1.379 . S
H1303 C1297 0.959 . S
H1304 C1297 0.961 . S
H1305 C1297 0.960 . S
H1306 C1298 0.930 . S
H1307 C1299 0.929 . S
H1308 C1316 0.929 . S
H1309 C1318 0.930 . S
H1310 C1320 0.930 . S
H1311 C1323 0.929 . S
H1312 C1326 0.930 . S
H1313 C1328 0.960 . S
H1314 C1328 0.960 . S
H1315 C1328 0.960 . S
C1316 H1308 0.929 . S
C1316 C1317 1.377 . S
C1316 C1318 1.384 . S
C1317 C1316 1.377 . S
C1317 C1323 1.390 . S
C1318 H1309 0.930 . S
C1318 C1316 1.384 . S
C1318 C1319 1.372 . S
C1319 C1318 1.372 . S
C1319 C1320 1.400 . S
C1319 C1324 1.490 . S
C1320 H1310 0.930 . S
C1320 C1319 1.400 . S
C1320 C1323 1.386 . S
H1321 C1337 0.930 . S
H1322 C1338 0.931 . S
C1323 H1311 0.929 . S
C1323 C1317 1.390 . S
C1323 C1320 1.386 . S
C1324 C1319 1.490 . S
C1324 C1326 1.395 1_455 S
C1324 C1327 1.403 . S
H1325 C1331 0.930 . S
C1326 H1312 0.930 . S
C1326 C1324 1.395 1_655 S
C1326 C1329 1.403 . S
C1327 C1324 1.403 . S
C1327 C1328 1.524 . S
C1327 C1331 1.400 . S
C1328 H1313 0.960 . S
C1328 H1314 0.960 . S
C1328 H1315 0.960 . S
C1328 C1327 1.524 . S
C1329 C1326 1.403 . S
C1329 C1330 1.392 . S
C1329 C1333 1.495 . S
C1330 C1329 1.392 . S
C1330 C1331 1.385 1_655 S
C1330 C1332 1.478 . S
C1331 H1325 0.930 . S
C1331 C1327 1.400 . S
C1331 C1330 1.385 1_455 S
C1332 C1330 1.478 . S
C1332 C1334 1.381 . S
C1332 C1338 1.383 . S
C1333 C1329 1.495 . S
C1333 H1339 0.959 . S
C1333 H1340 0.961 . S
C1333 H1341 0.960 . S
C1334 C1332 1.381 . S
C1334 C1335 1.394 . S
C1334 H1342 0.930 . S
C1335 C1334 1.394 . S
C1335 C1336 1.383 . S
C1335 H1343 0.929 . S
C1336 C1335 1.383 . S
C1336 C1337 1.377 . S
C1337 H1321 0.930 . S
C1337 C1336 1.377 . S
C1337 C1338 1.379 . S
C1338 H1322 0.931 . S
C1338 C1332 1.383 . S
C1338 C1337 1.379 . S
H1339 C1333 0.959 . S
H1340 C1333 0.961 . S
H1341 C1333 0.960 . S
H1342 C1334 0.930 . S
H1343 C1335 0.929 . S
H1344 C1352 0.929 . S
H1345 C1354 0.930 . S
H1346 C1356 0.930 . S
H1347 C1359 0.929 . S
H1348 C1362 0.930 . S
H1349 C1364 0.960 . S
H1350 C1364 0.960 . S
H1351 C1364 0.960 . S
C1352 H1344 0.929 . S
C1352 C1353 1.377 . S
C1352 C1354 1.384 . S
C1353 C1352 1.377 . S
C1353 C1359 1.390 . S
C1354 H1345 0.930 . S
C1354 C1352 1.384 . S
C1354 C1355 1.372 . S
C1355 C1354 1.372 . S
C1355 C1356 1.400 . S
C1355 C1360 1.490 . S
C1356 H1346 0.930 . S
C1356 C1355 1.400 . S
C1356 C1359 1.386 . S
H1357 C1373 0.930 . S
H1358 C1374 0.931 . S
C1359 H1347 0.929 . S
C1359 C1353 1.390 . S
C1359 C1356 1.386 . S
C1360 C1355 1.490 . S
C1360 C1362 1.395 . S
C1360 C1363 1.403 . S
H1361 C1367 0.930 . S
C1362 H1348 0.930 . S
C1362 C1360 1.395 . S
C1362 C1365 1.403 . S
C1363 C1360 1.403 . S
C1363 C1364 1.524 . S
C1363 C1367 1.400 . S
C1364 H1349 0.960 . S
C1364 H1350 0.960 . S
C1364 H1351 0.960 . S
C1364 C1363 1.524 . S
C1365 C1362 1.403 . S
C1365 C1366 1.392 . S
C1365 C1369 1.495 . S
C1366 C1365 1.392 . S
C1366 C1367 1.385 . S
C1366 C1368 1.478 . S
C1367 H1361 0.930 . S
C1367 C1363 1.400 . S
C1367 C1366 1.385 . S
C1368 C1366 1.478 . S
C1368 C1370 1.381 . S
C1368 C1374 1.383 . S
C1369 C1365 1.495 . S
C1369 H1375 0.959 . S
C1369 H1376 0.961 . S
C1369 H1377 0.960 . S
C1370 C1368 1.381 . S
C1370 C1371 1.394 . S
C1370 H1378 0.930 . S
C1371 C1370 1.394 . S
C1371 C1372 1.383 . S
C1371 H1379 0.929 . S
C1372 C1371 1.383 . S
C1372 C1373 1.377 . S
C1373 H1357 0.930 . S
C1373 C1372 1.377 . S
C1373 C1374 1.379 . S
C1374 H1358 0.931 . S
C1374 C1368 1.383 . S
C1374 C1373 1.379 . S
H1375 C1369 0.959 . S
H1376 C1369 0.961 . S
H1377 C1369 0.960 . S
H1378 C1370 0.930 . S
H1379 C1371 0.929 . S
H1380 C1388 0.929 . S
H1381 C1390 0.930 . S
H1382 C1392 0.930 . S
H1383 C1395 0.929 . S
H1384 C1398 0.930 . S
H1385 C1400 0.960 . S
H1386 C1400 0.960 . S
H1387 C1400 0.960 . S
C1388 H1380 0.929 . S
C1388 C1389 1.377 . S
C1388 C1390 1.384 . S
C1389 C1388 1.377 . S
C1389 C1395 1.390 . S
C1390 H1381 0.930 . S
C1390 C1388 1.384 . S
C1390 C1391 1.372 . S
C1391 C1390 1.372 . S
C1391 C1392 1.400 . S
C1391 C1396 1.490 . S
C1392 H1382 0.930 . S
C1392 C1391 1.400 . S
C1392 C1395 1.386 . S
H1393 C1409 0.930 . S
H1394 C1410 0.931 . S
C1395 H1383 0.929 . S
C1395 C1389 1.390 . S
C1395 C1392 1.386 . S
C1396 C1391 1.490 . S
C1396 C1398 1.395 . S
C1396 C1399 1.403 . S
H1397 C1403 0.930 . S
C1398 H1384 0.930 . S
C1398 C1396 1.395 . S
C1398 C1401 1.403 . S
C1399 C1396 1.403 . S
C1399 C1400 1.524 . S
C1399 C1403 1.400 . S
C1400 H1385 0.960 . S
C1400 H1386 0.960 . S
C1400 H1387 0.960 . S
C1400 C1399 1.524 . S
C1401 C1398 1.403 . S
C1401 C1402 1.392 . S
C1401 C1405 1.495 . S
C1402 C1401 1.392 . S
C1402 C1403 1.385 . S
C1402 C1404 1.478 . S
C1403 H1397 0.930 . S
C1403 C1399 1.400 . S
C1403 C1402 1.385 . S
C1404 C1402 1.478 . S
C1404 C1406 1.381 . S
C1404 C1410 1.383 . S
C1405 C1401 1.495 . S
C1405 H1411 0.959 . S
C1405 H1412 0.961 . S
C1405 H1413 0.960 . S
C1406 C1404 1.381 . S
C1406 C1407 1.394 . S
C1406 H1414 0.930 . S
C1407 C1406 1.394 . S
C1407 C1408 1.383 . S
C1407 H1415 0.929 . S
C1408 C1407 1.383 . S
C1408 C1409 1.377 . S
C1409 H1393 0.930 . S
C1409 C1408 1.377 . S
C1409 C1410 1.379 . S
C1410 H1394 0.931 . S
C1410 C1404 1.383 . S
C1410 C1409 1.379 . S
H1411 C1405 0.959 . S
H1412 C1405 0.961 . S
H1413 C1405 0.960 . S
H1414 C1406 0.930 . S
H1415 C1407 0.929 . S
H1416 C1424 0.929 . S
H1417 C1426 0.930 . S
H1418 C1428 0.930 . S
H1419 C1431 0.929 . S
H1420 C1434 0.930 . S
H1421 C1436 0.960 . S
H1422 C1436 0.960 . S
H1423 C1436 0.960 . S
C1424 H1416 0.929 . S
C1424 C1425 1.377 . S
C1424 C1426 1.384 . S
C1425 C1424 1.377 . S
C1425 C1431 1.390 . S
C1426 H1417 0.930 . S
C1426 C1424 1.384 . S
C1426 C1427 1.372 . S
C1427 C1426 1.372 . S
C1427 C1428 1.400 . S
C1427 C1432 1.490 . S
C1428 H1418 0.930 . S
C1428 C1427 1.400 . S
C1428 C1431 1.386 . S
H1429 C1445 0.930 . S
H1430 C1446 0.931 . S
C1431 H1419 0.929 . S
C1431 C1425 1.390 . S
C1431 C1428 1.386 . S
C1432 C1427 1.490 . S
C1432 C1434 1.395 . S
C1432 C1435 1.403 . S
H1433 C1439 0.930 . S
C1434 H1420 0.930 . S
C1434 C1432 1.395 . S
C1434 C1437 1.403 . S
C1435 C1432 1.403 . S
C1435 C1436 1.524 . S
C1435 C1439 1.400 . S
C1436 H1421 0.960 . S
C1436 H1422 0.960 . S
C1436 H1423 0.960 . S
C1436 C1435 1.524 . S
C1437 C1434 1.403 . S
C1437 C1438 1.392 . S
C1437 C1441 1.495 . S
C1438 C1437 1.392 . S
C1438 C1439 1.385 . S
C1438 C1440 1.478 . S
C1439 H1433 0.930 . S
C1439 C1435 1.400 . S
C1439 C1438 1.385 . S
C1440 C1438 1.478 . S
C1440 C1442 1.381 . S
C1440 C1446 1.383 . S
C1441 C1437 1.495 . S
C1441 H1447 0.959 . S
C1441 H1448 0.961 . S
C1441 H1449 0.960 . S
C1442 C1440 1.381 . S
C1442 C1443 1.394 . S
C1442 H1450 0.930 . S
C1443 C1442 1.394 . S
C1443 C1444 1.383 . S
C1443 H1451 0.929 . S
C1444 C1443 1.383 . S
C1444 C1445 1.377 . S
C1445 H1429 0.930 . S
C1445 C1444 1.377 . S
C1445 C1446 1.379 . S
C1446 H1430 0.931 . S
C1446 C1440 1.383 . S
C1446 C1445 1.379 . S
H1447 C1441 0.959 . S
H1448 C1441 0.961 . S
H1449 C1441 0.960 . S
H1450 C1442 0.930 . S
H1451 C1443 0.929 . S
H1452 C1460 0.929 . S
H1453 C1462 0.930 . S
H1454 C1464 0.930 . S
H1455 C1467 0.929 . S
H1456 C1470 0.930 . S
H1457 C1472 0.960 . S
H1458 C1472 0.960 . S
H1459 C1472 0.960 . S
C1460 H1452 0.929 . S
C1460 C1461 1.377 . S
C1460 C1462 1.384 . S
C1461 C1460 1.377 . S
C1461 C1467 1.390 . S
C1462 H1453 0.930 . S
C1462 C1460 1.384 . S
C1462 C1463 1.372 . S
C1463 C1462 1.372 . S
C1463 C1464 1.400 . S
C1463 C1468 1.490 . S
C1464 H1454 0.930 . S
C1464 C1463 1.400 . S
C1464 C1467 1.386 . S
H1465 C1481 0.930 . S
H1466 C1482 0.931 . S
C1467 H1455 0.929 . S
C1467 C1461 1.390 . S
C1467 C1464 1.386 . S
C1468 C1463 1.490 . S
C1468 C1470 1.395 . S
C1468 C1471 1.403 . S
H1469 C1475 0.930 . S
C1470 H1456 0.930 . S
C1470 C1468 1.395 . S
C1470 C1473 1.403 . S
C1471 C1468 1.403 . S
C1471 C1472 1.524 . S
C1471 C1475 1.400 . S
C1472 H1457 0.960 . S
C1472 H1458 0.960 . S
C1472 H1459 0.960 . S
C1472 C1471 1.524 . S
C1473 C1470 1.403 . S
C1473 C1474 1.392 . S
C1473 C1477 1.495 . S
C1474 C1473 1.392 . S
C1474 C1475 1.385 . S
C1474 C1476 1.478 . S
C1475 H1469 0.930 . S
C1475 C1471 1.400 . S
C1475 C1474 1.385 . S
C1476 C1474 1.478 . S
C1476 C1478 1.381 . S
C1476 C1482 1.383 . S
C1477 C1473 1.495 . S
C1477 H1483 0.959 . S
C1477 H1484 0.961 . S
C1477 H1485 0.960 . S
C1478 C1476 1.381 . S
C1478 C1479 1.394 . S
C1478 H1486 0.930 . S
C1479 C1478 1.394 . S
C1479 C1480 1.383 . S
C1479 H1487 0.929 . S
C1480 C1479 1.383 . S
C1480 C1481 1.377 . S
C1481 H1465 0.930 . S
C1481 C1480 1.377 . S
C1481 C1482 1.379 . S
C1482 H1466 0.931 . S
C1482 C1476 1.383 . S
C1482 C1481 1.379 . S
H1483 C1477 0.959 . S
H1484 C1477 0.961 . S
H1485 C1477 0.960 . S
H1486 C1478 0.930 . S
H1487 C1479 0.929 . S
H1488 C1496 0.929 . S
H1489 C1498 0.930 . S
H1490 C1500 0.930 . S
H1491 C1503 0.929 . S
H1492 C1506 0.930 . S
H1493 C1508 0.960 . S
H1494 C1508 0.960 . S
H1495 C1508 0.960 . S
C1496 H1488 0.929 . S
C1496 C1497 1.377 . S
C1496 C1498 1.384 . S
C1497 C1496 1.377 . S
C1497 C1503 1.390 . S
C1498 H1489 0.930 . S
C1498 C1496 1.384 . S
C1498 C1499 1.372 . S
C1499 C1498 1.372 . S
C1499 C1500 1.400 . S
C1499 C1504 1.490 . S
C1500 H1490 0.930 . S
C1500 C1499 1.400 . S
C1500 C1503 1.386 . S
H1501 C1517 0.930 . S
H1502 C1518 0.931 . S
C1503 H1491 0.929 . S
C1503 C1497 1.390 . S
C1503 C1500 1.386 . S
C1504 C1499 1.490 . S
C1504 C1506 1.395 . S
C1504 C1507 1.403 . S
H1505 C1511 0.930 . S
C1506 H1492 0.930 . S
C1506 C1504 1.395 . S
C1506 C1509 1.403 . S
C1507 C1504 1.403 . S
C1507 C1508 1.524 . S
C1507 C1511 1.400 . S
C1508 H1493 0.960 . S
C1508 H1494 0.960 . S
C1508 H1495 0.960 . S
C1508 C1507 1.524 . S
C1509 C1506 1.403 . S
C1509 C1510 1.392 . S
C1509 C1513 1.495 . S
C1510 C1509 1.392 . S
C1510 C1511 1.385 . S
C1510 C1512 1.478 . S
C1511 H1505 0.930 . S
C1511 C1507 1.400 . S
C1511 C1510 1.385 . S
C1512 C1510 1.478 . S
C1512 C1514 1.381 . S
C1512 C1518 1.383 . S
C1513 C1509 1.495 . S
C1513 H1519 0.959 . S
C1513 H1520 0.961 . S
C1513 H1521 0.960 . S
C1514 C1512 1.381 . S
C1514 C1515 1.394 . S
C1514 H1522 0.930 . S
C1515 C1514 1.394 . S
C1515 C1516 1.383 . S
C1515 H1523 0.929 . S
C1516 C1515 1.383 . S
C1516 C1517 1.377 . S
C1517 H1501 0.930 . S
C1517 C1516 1.377 . S
C1517 C1518 1.379 . S
C1518 H1502 0.931 . S
C1518 C1512 1.383 . S
C1518 C1517 1.379 . S
H1519 C1513 0.959 . S
H1520 C1513 0.961 . S
H1521 C1513 0.960 . S
H1522 C1514 0.930 . S
H1523 C1515 0.929 . S
H1524 C1532 0.929 . S
H1525 C1534 0.930 . S
H1526 C1536 0.930 . S
H1527 C1539 0.929 . S
H1528 C1542 0.930 . S
H1529 C1544 0.960 . S
H1530 C1544 0.960 . S
H1531 C1544 0.960 . S
C1532 H1524 0.929 . S
C1532 C1533 1.377 . S
C1532 C1534 1.384 . S
C1533 C1532 1.377 . S
C1533 C1539 1.390 . S
C1534 H1525 0.930 . S
C1534 C1532 1.384 . S
C1534 C1535 1.372 . S
C1535 C1534 1.372 . S
C1535 C1536 1.400 . S
C1535 C1540 1.490 . S
C1536 H1526 0.930 . S
C1536 C1535 1.400 . S
C1536 C1539 1.386 . S
H1537 C1553 0.930 . S
H1538 C1554 0.931 . S
C1539 H1527 0.929 . S
C1539 C1533 1.390 . S
C1539 C1536 1.386 . S
C1540 C1535 1.490 . S
C1540 C1542 1.395 . S
C1540 C1543 1.403 . S
H1541 C1547 0.930 . S
C1542 H1528 0.930 . S
C1542 C1540 1.395 . S
C1542 C1545 1.403 . S
C1543 C1540 1.403 . S
C1543 C1544 1.524 . S
C1543 C1547 1.400 . S
C1544 H1529 0.960 . S
C1544 H1530 0.960 . S
C1544 H1531 0.960 . S
C1544 C1543 1.524 . S
C1545 C1542 1.403 . S
C1545 C1546 1.392 . S
C1545 C1549 1.495 . S
C1546 C1545 1.392 . S
C1546 C1547 1.385 . S
C1546 C1548 1.478 . S
C1547 H1541 0.930 . S
C1547 C1543 1.400 . S
C1547 C1546 1.385 . S
C1548 C1546 1.478 . S
C1548 C1550 1.381 . S
C1548 C1554 1.383 . S
C1549 C1545 1.495 . S
C1549 H1555 0.959 . S
C1549 H1556 0.961 . S
C1549 H1557 0.960 . S
C1550 C1548 1.381 . S
C1550 C1551 1.394 . S
C1550 H1558 0.930 . S
C1551 C1550 1.394 . S
C1551 C1552 1.383 . S
C1551 H1559 0.929 . S
C1552 C1551 1.383 . S
C1552 C1553 1.377 . S
C1553 H1537 0.930 . S
C1553 C1552 1.377 . S
C1553 C1554 1.379 . S
C1554 H1538 0.931 . S
C1554 C1548 1.383 . S
C1554 C1553 1.379 . S
H1555 C1549 0.959 . S
H1556 C1549 0.961 . S
H1557 C1549 0.960 . S
H1558 C1550 0.930 . S
H1559 C1551 0.929 . S
H1560 C1568 0.929 . S
H1561 C1570 0.930 . S
H1562 C1572 0.930 . S
H1563 C1575 0.929 . S
H1564 C1578 0.930 . S
H1565 C1580 0.960 . S
H1566 C1580 0.960 . S
H1567 C1580 0.960 . S
C1568 H1560 0.929 . S
C1568 C1569 1.377 . S
C1568 C1570 1.384 . S
C1569 C1568 1.377 . S
C1569 C1575 1.390 . S
C1570 H1561 0.930 . S
C1570 C1568 1.384 . S
C1570 C1571 1.372 . S
C1571 C1570 1.372 . S
C1571 C1572 1.400 . S
C1571 C1576 1.490 . S
C1572 H1562 0.930 . S
C1572 C1571 1.400 . S
C1572 C1575 1.386 . S
H1573 C1589 0.930 . S
H1574 C1590 0.931 . S
C1575 H1563 0.929 . S
C1575 C1569 1.390 . S
C1575 C1572 1.386 . S
C1576 C1571 1.490 . S
C1576 C1578 1.395 . S
C1576 C1579 1.403 . S
H1577 C1583 0.930 . S
C1578 H1564 0.930 . S
C1578 C1576 1.395 . S
C1578 C1581 1.403 . S
C1579 C1576 1.403 . S
C1579 C1580 1.524 . S
C1579 C1583 1.400 . S
C1580 H1565 0.960 . S
C1580 H1566 0.960 . S
C1580 H1567 0.960 . S
C1580 C1579 1.524 . S
C1581 C1578 1.403 . S
C1581 C1582 1.392 . S
C1581 C1585 1.495 . S
C1582 C1581 1.392 . S
C1582 C1583 1.385 . S
C1582 C1584 1.478 . S
C1583 H1577 0.930 . S
C1583 C1579 1.400 . S
C1583 C1582 1.385 . S
C1584 C1582 1.478 . S
C1584 C1586 1.381 . S
C1584 C1590 1.383 . S
C1585 C1581 1.495 . S
C1585 H1591 0.959 . S
C1585 H1592 0.961 . S
C1585 H1593 0.960 . S
C1586 C1584 1.381 . S
C1586 C1587 1.394 . S
C1586 H1594 0.930 . S
C1587 C1586 1.394 . S
C1587 C1588 1.383 . S
C1587 H1595 0.929 . S
C1588 C1587 1.383 . S
C1588 C1589 1.377 . S
C1589 H1573 0.930 . S
C1589 C1588 1.377 . S
C1589 C1590 1.379 . S
C1590 H1574 0.931 . S
C1590 C1584 1.383 . S
C1590 C1589 1.379 . S
H1591 C1585 0.959 . S
H1592 C1585 0.961 . S
H1593 C1585 0.960 . S
H1594 C1586 0.930 . S
H1595 C1587 0.929 . S
H1596 C1604 0.929 . S
H1597 C1606 0.930 . S
H1598 C1608 0.930 . S
H1599 C1611 0.929 . S
H1600 C1614 0.930 . S
H1601 C1616 0.960 . S
H1602 C1616 0.960 . S
H1603 C1616 0.960 . S
C1604 H1596 0.929 . S
C1604 C1605 1.377 . S
C1604 C1606 1.384 . S
C1605 C1604 1.377 . S
C1605 C1611 1.390 . S
C1606 H1597 0.930 . S
C1606 C1604 1.384 . S
C1606 C1607 1.372 . S
C1607 C1606 1.372 . S
C1607 C1608 1.400 . S
C1607 C1612 1.490 . S
C1608 H1598 0.930 . S
C1608 C1607 1.400 . S
C1608 C1611 1.386 . S
H1609 C1625 0.930 . S
H1610 C1626 0.931 . S
C1611 H1599 0.929 . S
C1611 C1605 1.390 . S
C1611 C1608 1.386 . S
C1612 C1607 1.490 . S
C1612 C1614 1.395 . S
C1612 C1615 1.403 . S
H1613 C1619 0.930 . S
C1614 H1600 0.930 . S
C1614 C1612 1.395 . S
C1614 C1617 1.403 . S
C1615 C1612 1.403 . S
C1615 C1616 1.524 . S
C1615 C1619 1.400 . S
C1616 H1601 0.960 . S
C1616 H1602 0.960 . S
C1616 H1603 0.960 . S
C1616 C1615 1.524 . S
C1617 C1614 1.403 . S
C1617 C1618 1.392 . S
C1617 C1621 1.495 . S
C1618 C1617 1.392 . S
C1618 C1619 1.385 . S
C1618 C1620 1.478 . S
C1619 H1613 0.930 . S
C1619 C1615 1.400 . S
C1619 C1618 1.385 . S
C1620 C1618 1.478 . S
C1620 C1622 1.381 . S
C1620 C1626 1.383 . S
C1621 C1617 1.495 . S
C1621 H1627 0.959 . S
C1621 H1628 0.961 . S
C1621 H1629 0.960 . S
C1622 C1620 1.381 . S
C1622 C1623 1.394 . S
C1622 H1630 0.930 . S
C1623 C1622 1.394 . S
C1623 C1624 1.383 . S
C1623 H1631 0.929 . S
C1624 C1623 1.383 . S
C1624 C1625 1.377 . S
C1625 H1609 0.930 . S
C1625 C1624 1.377 . S
C1625 C1626 1.379 . S
C1626 H1610 0.931 . S
C1626 C1620 1.383 . S
C1626 C1625 1.379 . S
H1627 C1621 0.959 . S
H1628 C1621 0.961 . S
H1629 C1621 0.960 . S
H1630 C1622 0.930 . S
H1631 C1623 0.929 . S
H1632 C1640 0.929 . S
H1633 C1642 0.930 . S
H1634 C1644 0.930 . S
H1635 C1647 0.929 . S
H1636 C1650 0.930 . S
H1637 C1652 0.960 . S
H1638 C1652 0.960 . S
H1639 C1652 0.960 . S
C1640 H1632 0.929 . S
C1640 C1641 1.377 . S
C1640 C1642 1.384 . S
C1641 C1640 1.377 . S
C1641 C1647 1.390 . S
C1642 H1633 0.930 . S
C1642 C1640 1.384 . S
C1642 C1643 1.372 . S
C1643 C1642 1.372 . S
C1643 C1644 1.400 . S
C1643 C1648 1.490 . S
C1644 H1634 0.930 . S
C1644 C1643 1.400 . S
C1644 C1647 1.386 . S
H1645 C1661 0.930 . S
H1646 C1662 0.931 . S
C1647 H1635 0.929 . S
C1647 C1641 1.390 . S
C1647 C1644 1.386 . S
C1648 C1643 1.490 . S
C1648 C1650 1.395 . S
C1648 C1651 1.403 . S
H1649 C1655 0.930 . S
C1650 H1636 0.930 . S
C1650 C1648 1.395 . S
C1650 C1653 1.403 . S
C1651 C1648 1.403 . S
C1651 C1652 1.524 . S
C1651 C1655 1.400 . S
C1652 H1637 0.960 . S
C1652 H1638 0.960 . S
C1652 H1639 0.960 . S
C1652 C1651 1.524 . S
C1653 C1650 1.403 . S
C1653 C1654 1.392 . S
C1653 C1657 1.495 . S
C1654 C1653 1.392 . S
C1654 C1655 1.385 . S
C1654 C1656 1.478 . S
C1655 H1649 0.930 . S
C1655 C1651 1.400 . S
C1655 C1654 1.385 . S
C1656 C1654 1.478 . S
C1656 C1658 1.381 . S
C1656 C1662 1.383 . S
C1657 C1653 1.495 . S
C1657 H1663 0.959 . S
C1657 H1664 0.961 . S
C1657 H1665 0.960 . S
C1658 C1656 1.381 . S
C1658 C1659 1.394 . S
C1658 H1666 0.930 . S
C1659 C1658 1.394 . S
C1659 C1660 1.383 . S
C1659 H1667 0.929 . S
C1660 C1659 1.383 . S
C1660 C1661 1.377 . S
C1661 H1645 0.930 . S
C1661 C1660 1.377 . S
C1661 C1662 1.379 . S
C1662 H1646 0.931 . S
C1662 C1656 1.383 . S
C1662 C1661 1.379 . S
H1663 C1657 0.959 . S
H1664 C1657 0.961 . S
H1665 C1657 0.960 . S
H1666 C1658 0.930 . S
H1667 C1659 0.929 . S
H1668 C1676 0.929 . S
H1669 C1678 0.930 . S
H1670 C1680 0.930 . S
H1671 C1683 0.929 . S
H1672 C1686 0.930 . S
H1673 C1688 0.960 . S
H1674 C1688 0.960 . S
H1675 C1688 0.960 . S
C1676 H1668 0.929 . S
C1676 C1677 1.377 . S
C1676 C1678 1.384 . S
C1677 C1676 1.377 . S
C1677 C1683 1.390 . S
C1678 H1669 0.930 . S
C1678 C1676 1.384 . S
C1678 C1679 1.372 . S
C1679 C1678 1.372 . S
C1679 C1680 1.400 . S
C1679 C1684 1.490 . S
C1680 H1670 0.930 . S
C1680 C1679 1.400 . S
C1680 C1683 1.386 . S
H1681 C1697 0.930 . S
H1682 C1698 0.931 . S
C1683 H1671 0.929 . S
C1683 C1677 1.390 . S
C1683 C1680 1.386 . S
C1684 C1679 1.490 . S
C1684 C1686 1.395 . S
C1684 C1687 1.403 . S
H1685 C1691 0.930 . S
C1686 H1672 0.930 . S
C1686 C1684 1.395 . S
C1686 C1689 1.403 . S
C1687 C1684 1.403 . S
C1687 C1688 1.524 . S
C1687 C1691 1.400 . S
C1688 H1673 0.960 . S
C1688 H1674 0.960 . S
C1688 H1675 0.960 . S
C1688 C1687 1.524 . S
C1689 C1686 1.403 . S
C1689 C1690 1.392 . S
C1689 C1693 1.495 . S
C1690 C1689 1.392 . S
C1690 C1691 1.385 . S
C1690 C1692 1.478 . S
C1691 H1685 0.930 . S
C1691 C1687 1.400 . S
C1691 C1690 1.385 . S
C1692 C1690 1.478 . S
C1692 C1694 1.381 . S
C1692 C1698 1.383 . S
C1693 C1689 1.495 . S
C1693 H1699 0.959 . S
C1693 H1700 0.961 . S
C1693 H1701 0.960 . S
C1694 C1692 1.381 . S
C1694 C1695 1.394 . S
C1694 H1702 0.930 . S
C1695 C1694 1.394 . S
C1695 C1696 1.383 . S
C1695 H1703 0.929 . S
C1696 C1695 1.383 . S
C1696 C1697 1.377 . S
C1697 H1681 0.930 . S
C1697 C1696 1.377 . S
C1697 C1698 1.379 . S
C1698 H1682 0.931 . S
C1698 C1692 1.383 . S
C1698 C1697 1.379 . S
H1699 C1693 0.959 . S
H1700 C1693 0.961 . S
H1701 C1693 0.960 . S
H1702 C1694 0.930 . S
H1703 C1695 0.929 . S
H1704 C1712 0.929 . S
H1705 C1714 0.930 . S
H1706 C1716 0.930 . S
H1707 C1719 0.929 . S
H1708 C1722 0.930 . S
H1709 C1724 0.960 . S
H1710 C1724 0.960 . S
H1711 C1724 0.960 . S
C1712 H1704 0.929 . S
C1712 C1713 1.377 . S
C1712 C1714 1.384 . S
C1713 C1712 1.377 . S
C1713 C1719 1.390 . S
C1714 H1705 0.930 . S
C1714 C1712 1.384 . S
C1714 C1715 1.372 . S
C1715 C1714 1.372 . S
C1715 C1716 1.400 . S
C1715 C1720 1.490 . S
C1716 H1706 0.930 . S
C1716 C1715 1.400 . S
C1716 C1719 1.386 . S
H1717 C1733 0.930 . S
H1718 C1734 0.931 . S
C1719 H1707 0.929 . S
C1719 C1713 1.390 . S
C1719 C1716 1.386 . S
C1720 C1715 1.490 . S
C1720 C1722 1.395 . S
C1720 C1723 1.403 . S
H1721 C1727 0.930 . S
C1722 H1708 0.930 . S
C1722 C1720 1.395 . S
C1722 C1725 1.403 . S
C1723 C1720 1.403 . S
C1723 C1724 1.524 . S
C1723 C1727 1.400 . S
C1724 H1709 0.960 . S
C1724 H1710 0.960 . S
C1724 H1711 0.960 . S
C1724 C1723 1.524 . S
C1725 C1722 1.403 . S
C1725 C1726 1.392 . S
C1725 C1729 1.495 . S
C1726 C1725 1.392 . S
C1726 C1727 1.385 . S
C1726 C1728 1.478 . S
C1727 H1721 0.930 . S
C1727 C1723 1.400 . S
C1727 C1726 1.385 . S
C1728 C1726 1.478 . S
C1728 C1730 1.381 . S
C1728 C1734 1.383 . S
C1729 C1725 1.495 . S
C1729 H1735 0.959 . S
C1729 H1736 0.961 . S
C1729 H1737 0.960 . S
C1730 C1728 1.381 . S
C1730 C1731 1.394 . S
C1730 H1738 0.930 . S
C1731 C1730 1.394 . S
C1731 C1732 1.383 . S
C1731 H1739 0.929 . S
C1732 C1731 1.383 . S
C1732 C1733 1.377 . S
C1733 H1717 0.930 . S
C1733 C1732 1.377 . S
C1733 C1734 1.379 . S
C1734 H1718 0.931 . S
C1734 C1728 1.383 . S
C1734 C1733 1.379 . S
H1735 C1729 0.959 . S
H1736 C1729 0.961 . S
H1737 C1729 0.960 . S
H1738 C1730 0.930 . S
H1739 C1731 0.929 . S
H1740 C1748 0.929 . S
H1741 C1750 0.930 . S
H1742 C1752 0.930 . S
H1743 C1755 0.929 . S
H1744 C1758 0.930 . S
H1745 C1760 0.960 . S
H1746 C1760 0.960 . S
H1747 C1760 0.960 . S
C1748 H1740 0.929 . S
C1748 C1749 1.377 . S
C1748 C1750 1.384 . S
C1749 C1748 1.377 . S
C1749 C1755 1.390 . S
C1750 H1741 0.930 . S
C1750 C1748 1.384 . S
C1750 C1751 1.372 . S
C1751 C1750 1.372 . S
C1751 C1752 1.400 . S
C1751 C1756 1.490 . S
C1752 H1742 0.930 . S
C1752 C1751 1.400 . S
C1752 C1755 1.386 . S
H1753 C1769 0.930 . S
H1754 C1770 0.931 . S
C1755 H1743 0.929 . S
C1755 C1749 1.390 . S
C1755 C1752 1.386 . S
C1756 C1751 1.490 . S
C1756 C1758 1.395 . S
C1756 C1759 1.403 . S
H1757 C1763 0.930 . S
C1758 H1744 0.930 . S
C1758 C1756 1.395 . S
C1758 C1761 1.403 . S
C1759 C1756 1.403 . S
C1759 C1760 1.524 . S
C1759 C1763 1.400 . S
C1760 H1745 0.960 . S
C1760 H1746 0.960 . S
C1760 H1747 0.960 . S
C1760 C1759 1.524 . S
C1761 C1758 1.403 . S
C1761 C1762 1.392 . S
C1761 C1765 1.495 . S
C1762 C1761 1.392 . S
C1762 C1763 1.385 . S
C1762 C1764 1.478 . S
C1763 H1757 0.930 . S
C1763 C1759 1.400 . S
C1763 C1762 1.385 . S
C1764 C1762 1.478 . S
C1764 C1766 1.381 . S
C1764 C1770 1.383 . S
C1765 C1761 1.495 . S
C1765 H1771 0.959 . S
C1765 H1772 0.961 . S
C1765 H1773 0.960 . S
C1766 C1764 1.381 . S
C1766 C1767 1.394 . S
C1766 H1774 0.930 . S
C1767 C1766 1.394 . S
C1767 C1768 1.383 . S
C1767 H1775 0.929 . S
C1768 C1767 1.383 . S
C1768 C1769 1.377 . S
C1769 H1753 0.930 . S
C1769 C1768 1.377 . S
C1769 C1770 1.379 . S
C1770 H1754 0.931 . S
C1770 C1764 1.383 . S
C1770 C1769 1.379 . S
H1771 C1765 0.959 . S
H1772 C1765 0.961 . S
H1773 C1765 0.960 . S
H1774 C1766 0.930 . S
H1775 C1767 0.929 . S
C489 C95 1.232 . S
C508 C19 1.220 . S
C525 C126 1.229 . S
C544 C50 1.216 . S
C561 C99 1.203 . S
C580 C175 1.236 . S
C597 C130 1.205 . S
C616 C206 1.231 . S
C633 C15 1.232 . S
C652 C179 1.215 . S
C669 C46 1.232 . S
C688 C210 1.222 . S
C705 C406 1.232 . S
C724 C250 1.194 . S
C741 C299 1.197 . S
C760 C455 1.220 . S
C777 C330 1.194 . S
C796 C246 1.225 . S
C813 C379 1.204 . S
C832 C295 1.230 . S
C849 C410 1.205 . S
C868 C326 1.231 . S
C885 C375 1.230 . S
C904 C459 1.203 . S
C921 C129 1.736 . S
C940 C18 1.702 . S
C957 C49 1.735 . S
C976 C178 1.756 . S
C993 C98 1.733 . S
C1012 C209 1.758 . S
C1029 C249 1.731 . S
C1048 C378 1.718 . S
C1065 C298 1.729 . S
C1084 C409 1.755 . S
C1101 C329 1.729 . S
C1120 C458 1.752 . S
C1137 C289 2.282 . S
C1156 C9 2.276 . S
C1173 C58 2.281 . S
C1192 C338 2.274 . S
C1209 C369 2.282 . S
C1228 C89 2.280 . S
C1245 C138 2.282 . S
C1264 C418 2.280 . S
C1281 C169 2.281 . S
C1300 C449 2.274 . S
C1317 C258 2.282 . S
C1336 C218 2.280 . S
C1353 C86 1.756 . S
C1372 C10 1.766 . S
C1389 C59 1.759 . S
C1408 C135 1.740 . S
C1425 C90 1.758 . S
C1444 C166 1.765 . S
C1461 C139 1.758 . S
C1480 C215 1.738 . S
C1497 C6 1.753 . S
C1516 C170 1.768 . S
C1533 C55 1.753 . S
C1552 C219 1.745 . S
C1569 C415 1.757 . S
C1588 C259 1.765 . S
C1605 C290 1.763 . S
C1624 C446 1.748 . S
C1641 C339 1.760 . S
C1660 C255 1.748 . S
C1677 C286 1.758 . S
C1696 C370 1.755 . S
C1713 C419 1.760 . S
C1732 C335 1.748 . S
C1749 C450 1.762 . S
C1768 C366 1.759 . S
