# Generated by pormake.
# Topology lhb, (8)-cn, num edge types: 1
# Building blocks:
#     Node 0, Type 0, BuildingBlock: OLANAS_clean_sbu_2, # of connection points: 8
#     Node 1, Type 0, BuildingBlock: OLANAS_clean_sbu_2, # of connection points: 8
#     Node 2, Type 0, BuildingBlock: OLANAS_clean_sbu_2, # of connection points: 8
#     Node 3, Type 0, BuildingBlock: OLANAS_clean_sbu_2, # of connection points: 8
#     Node 4, Type 0, BuildingBlock: OLANAS_clean_sbu_2, # of connection points: 8
#     Node 5, Type 0, BuildingBlock: OLANAS_clean_sbu_2, # of connection points: 8
#     Node 6, Type 0, BuildingBlock: OLANAS_clean_sbu_2, # of connection points: 8
#     Node 7, Type 0, BuildingBlock: OLANAS_clean_sbu_2, # of connection points: 8
#     Edge 8, Type (0, 0), None
#     Edge 9, Type (0, 0), None
#     Edge 10, Type (0, 0), None
#     Edge 11, Type (0, 0), None
#     Edge 12, Type (0, 0), None
#     Edge 13, Type (0, 0), None
#     Edge 14, Type (0, 0), None
#     Edge 15, Type (0, 0), None
#     Edge 16, Type (0, 0), None
#     Edge 17, Type (0, 0), None
#     Edge 18, Type (0, 0), None
#     Edge 19, Type (0, 0), None
#     Edge 20, Type (0, 0), None
#     Edge 21, Type (0, 0), None
#     Edge 22, Type (0, 0), None
#     Edge 23, Type (0, 0), None
#     Edge 24, Type (0, 0), None
#     Edge 25, Type (0, 0), None
#     Edge 26, Type (0, 0), None
#     Edge 27, Type (0, 0), None
#     Edge 28, Type (0, 0), None
#     Edge 29, Type (0, 0), None
#     Edge 30, Type (0, 0), None
#     Edge 31, Type (0, 0), None
#     Edge 32, Type (0, 0), None
#     Edge 33, Type (0, 0), None
#     Edge 34, Type (0, 0), None
#     Edge 35, Type (0, 0), None
#     Edge 36, Type (0, 0), None
#     Edge 37, Type (0, 0), None
#     Edge 38, Type (0, 0), None
#     Edge 39, Type (0, 0), None
# Relax obj value: 0.220
# Max RMSD: 0.285
# Mean RMSD: 0.285
data_MOF--net-lhb--node1-OLANAS_clean_sbu_2--edge1-none
_symmetry_space_group_name_H-M    P1
_symmetry_Int_Tables_number       1
_symmetry_cell_setting            triclinic
loop_
_symmetry_equiv_pos_as_xyz
'x, y, z'
_cell_length_a     17.805767
_cell_length_b     10.533816
_cell_length_c     37.917995
_cell_angle_alpha  90.00939
_cell_angle_beta   89.999907
_cell_angle_gamma 90.002459
loop_
_atom_site_label
_atom_site_type_symbol
_atom_site_fract_x
_atom_site_fract_y
_atom_site_fract_z
_atom_type_partial_charge
C0 C 0.02565 0.85446 0.01479 0.0
O1 O 0.02829 0.77722 0.042 0.0
C2 C 0.0938 0.89319 -0.00484 0.0
C3 C 0.16772 0.883 0.0066 0.0
C4 C 0.22454 0.94903 -0.01205 0.0
C5 C 0.20632 1.02711 0.95908 0.0
C6 C 0.13054 0.0406 0.95053 0.0
N7 N 0.07976 0.97251 0.96851 0.0
N8 N 0.00851 0.16208 0.00528 0.0
Co9 Co -0.01513 0.03879 0.96868 0.0
N10 N 0.88995 0.10515 0.96846 0.0
C11 C 0.80197 0.19405 0.00665 0.0
C12 C 0.74519 0.12789 -0.01199 0.0
C13 C 0.76346 0.04993 0.95912 0.0
C14 C 0.83922 1.03678 0.95051 0.0
C15 C 0.87589 0.18432 -0.00485 0.0
N16 N 0.94857 0.919 0.93347 0.0
N17 N 0.96117 0.91549 0.00527 0.0
N18 N 0.02126 0.15854 0.93349 0.0
C19 C 0.94402 0.22304 0.01481 0.0
O20 O 0.94133 0.30009 0.04206 0.0
C21 C 0.09688 0.14263 0.92936 0.0
O22 O 0.13697 0.21467 0.90819 0.0
C23 C 0.9796 0.25236 0.91394 0.0
C24 C 0.97178 0.47124 0.89175 0.0
C25 C -0.00475 0.38356 0.91777 0.0
C26 C 0.93893 0.21114 0.88471 0.0
C27 C 0.91916 0.29534 0.8577 0.0
C28 C 0.93287 0.42539 0.86194 0.0
C29 C 0.87295 0.93476 0.92936 0.0
O30 O 0.8329 0.86259 0.9082 0.0
C31 C -0.00973 0.82515 0.91394 0.0
C32 C 0.03088 0.86635 0.88469 0.0
C33 C 0.05064 0.78211 0.85768 0.0
C34 C 0.03694 0.65206 0.86192 0.0
C35 C -0.00191 0.60625 0.89175 0.0
C36 C 0.97465 0.69395 0.91777 0.0
C37 C 0.89189 0.9096 0.02505 0.0
C38 C 0.83229 0.83262 0.01328 0.0
C39 C 0.76148 0.84159 0.02955 0.0
C40 C 0.75081 0.92761 0.05714 0.0
C41 C 0.81161 0.99052 0.07221 0.0
C42 C 0.88187 0.98307 0.05592 0.0
C43 C 0.0778 0.16791 0.02506 0.0
C44 C 0.21892 0.14956 0.05709 0.0
C45 C 0.15808 0.08681 0.07218 0.0
C46 C 0.0878 0.09443 0.05592 0.0
C47 C 0.13744 0.24475 0.01328 0.0
C48 C 0.20828 0.23561 0.02951 0.0
H49 H 0.17974 0.83307 0.03069 0.0
H50 H 0.28199 0.94672 -0.00284 0.0
H51 H 0.24905 0.08415 0.94637 0.0
H52 H 0.78992 0.24383 0.03076 0.0
H53 H 0.68776 0.12997 -0.00275 0.0
H54 H 0.72078 0.9927 0.94642 0.0
H55 H 0.03046 0.41529 0.93935 0.0
H56 H 0.93224 0.11018 0.88041 0.0
H57 H 0.91881 0.48987 0.84075 0.0
H58 H 0.03753 0.96731 0.88038 0.0
H59 H 0.05098 0.58757 0.84072 0.0
H60 H 0.93948 0.66223 0.93936 0.0
H61 H 0.84137 0.76496 -0.00781 0.0
H62 H 0.69684 0.93055 0.07052 0.0
H63 H 0.92685 1.03681 0.06716 0.0
H64 H 0.2729 0.1465 0.07046 0.0
H65 H 0.04281 0.0408 0.06717 0.0
H66 H 0.12838 0.31245 -0.0078 0.0
C67 C 0.19409 0.10446 0.26479 0.0
O68 O 0.19145 1.02721 0.29199 0.0
C69 C 0.12594 0.14319 0.24515 0.0
C70 C 0.05202 0.133 0.2566 0.0
C71 C -0.0048 0.19903 0.23795 0.0
C72 C 0.01342 0.27711 0.20909 0.0
C73 C 0.0892 0.2906 0.20054 0.0
N74 N 0.13998 0.2225 0.21851 0.0
N75 N 0.21123 0.41208 0.25528 0.0
Co76 Co 0.23488 0.2888 0.21868 0.0
N77 N 0.32979 0.35516 0.21846 0.0
C78 C 0.41778 0.44405 0.25665 0.0
C79 C 0.47455 0.37789 0.23801 0.0
C80 C 0.45629 0.29994 0.20912 0.0
C81 C 0.38052 0.28679 0.20051 0.0
C82 C 0.34386 0.43432 0.24515 0.0
N83 N 0.27117 0.16901 0.18347 0.0
N84 N 0.25858 0.16549 0.25526 0.0
N85 N 0.19848 0.40854 0.18349 0.0
C86 C 0.27573 0.47305 0.26481 0.0
O87 O 0.27842 0.55009 0.29206 0.0
C88 C 0.12286 0.39263 0.17936 0.0
O89 O 0.08277 0.46467 0.1582 0.0
C90 C 0.24015 0.50237 0.16394 0.0
C91 C 0.24796 0.72124 0.14175 0.0
C92 C 0.22449 0.63356 0.16776 0.0
C93 C 0.28082 0.46115 0.13471 0.0
C94 C 0.30059 0.54535 0.1077 0.0
C95 C 0.28687 0.6754 0.11194 0.0
C96 C 0.34679 0.18478 0.17935 0.0
O97 O 0.38684 0.1126 0.15819 0.0
C98 C 0.22946 0.07516 0.16394 0.0
C99 C 0.18885 0.11636 0.13469 0.0
C100 C 0.16909 1.03209 0.10768 0.0
C101 C 0.18279 0.90205 0.11192 0.0
C102 C 0.22165 0.85625 0.14174 0.0
C103 C 0.24508 0.94396 0.16777 0.0
C104 C 0.32786 0.1596 0.27505 0.0
C105 C 0.38745 0.08262 0.26328 0.0
C106 C 0.45826 0.09158 0.27955 0.0
C107 C 0.46893 0.17761 0.30714 0.0
C108 C 0.40813 0.24052 0.3222 0.0
C109 C 0.33787 0.23307 0.30592 0.0
C110 C 0.14195 0.41791 0.27506 0.0
C111 C 0.00083 0.39957 0.30709 0.0
C112 C 0.06166 0.33682 0.32218 0.0
C113 C 0.13194 0.34443 0.30592 0.0
C114 C 0.08231 0.49476 0.26328 0.0
C115 C 0.01147 0.48563 0.27952 0.0
H116 H 0.04001 0.08308 0.28069 0.0
H117 H 0.93775 0.19673 0.24717 0.0
H118 H 0.97069 0.33415 0.19637 0.0
H119 H 0.42982 0.49382 0.28077 0.0
H120 H 0.53198 0.37997 0.24725 0.0
H121 H 0.49896 0.24271 0.19642 0.0
H122 H 0.18928 0.66529 0.18934 0.0
H123 H 0.28751 0.36019 0.13042 0.0
H124 H 0.30094 0.73987 0.09074 0.0
H125 H 0.1822 0.21731 0.13038 0.0
H126 H 0.16876 0.83756 0.09071 0.0
H127 H 0.28026 0.91225 0.18936 0.0
H128 H 0.37837 1.01495 0.24219 0.0
H129 H 0.5229 0.18054 0.32052 0.0
H130 H 0.2929 0.28681 0.31715 0.0
H131 H 0.94685 0.39651 0.32047 0.0
H132 H 0.17693 0.2908 0.31717 0.0
H133 H 0.09137 0.56246 0.2422 0.0
C134 C 0.69409 0.60444 0.2648 0.0
O135 O 0.69145 0.52721 0.292 0.0
C136 C 0.62594 0.64316 0.24516 0.0
C137 C 0.55202 0.63298 0.25661 0.0
C138 C 0.4952 0.69901 0.23796 0.0
C139 C 0.51342 0.77707 0.20909 0.0
C140 C 0.5892 0.79055 0.20054 0.0
N141 N 0.63998 0.72246 0.21851 0.0
N142 N 0.71123 0.91206 0.25528 0.0
Co143 Co 0.73487 0.78876 0.21868 0.0
N144 N 0.82979 0.85512 0.21847 0.0
C145 C 0.91777 0.94406 0.25664 0.0
C146 C 0.97455 0.8779 0.238 0.0
C147 C 0.95628 0.79993 0.20911 0.0
C148 C 0.88051 0.78676 0.20052 0.0
C149 C 0.84385 0.9343 0.24515 0.0
N150 N 0.77117 0.66895 0.18347 0.0
N151 N 0.75857 0.66546 0.25527 0.0
N152 N 0.69848 0.90848 0.18348 0.0
C153 C 0.77572 0.97303 0.26481 0.0
O154 O 0.77841 0.05008 0.29206 0.0
C155 C 0.62286 0.89257 0.17936 0.0
O156 O 0.58278 0.96461 0.15819 0.0
C157 C 0.74015 1.00231 0.16394 0.0
C158 C 0.74797 0.2212 0.14175 0.0
C159 C 0.7245 0.13351 0.16776 0.0
C160 C 0.78082 0.96109 0.13471 0.0
C161 C 0.8006 0.04531 0.10771 0.0
C162 C 0.78688 0.17536 0.11194 0.0
C163 C 0.84679 0.68473 0.17936 0.0
O164 O 0.88684 0.61256 0.1582 0.0
C165 C 0.72947 0.5751 0.16394 0.0
C166 C 0.68886 0.61629 0.13469 0.0
C167 C 0.6691 0.53205 0.10768 0.0
C168 C 0.6828 0.40201 0.11192 0.0
C169 C 0.72166 0.3562 0.14175 0.0
C170 C 0.74509 0.4439 0.16777 0.0
C171 C 0.82785 0.65958 0.27505 0.0
C172 C 0.88746 0.58262 0.26328 0.0
C173 C 0.95826 0.59168 0.27955 0.0
C174 C 0.96894 0.67768 0.30714 0.0
C175 C 0.90813 0.74055 0.32221 0.0
C176 C 0.83787 0.73306 0.30593 0.0
C177 C 0.64194 0.91789 0.27506 0.0
C178 C 0.50081 0.8995 0.30709 0.0
C179 C 0.56165 0.83679 0.32218 0.0
C180 C 0.63193 0.84442 0.30592 0.0
C181 C 0.5823 0.99473 0.26328 0.0
C182 C 0.51146 0.98552 0.27951 0.0
H183 H 0.54 0.58307 0.2807 0.0
H184 H 0.43775 0.69671 0.24717 0.0
H185 H 0.47069 0.8341 0.19637 0.0
H186 H 0.92982 0.99384 0.28076 0.0
H187 H 0.03198 0.88 0.24724 0.0
H188 H -0.00104 0.74271 0.19642 0.0
H189 H 0.68929 0.16523 0.18934 0.0
H190 H 0.78751 0.86013 0.13041 0.0
H191 H 0.80095 0.23983 0.09074 0.0
H192 H 0.6822 0.71725 0.13039 0.0
H193 H 0.66877 0.33752 0.09072 0.0
H194 H 0.78027 0.41219 0.18936 0.0
H195 H 0.87839 0.51494 0.24219 0.0
H196 H 0.02292 0.68064 0.32052 0.0
H197 H 0.79289 0.78678 0.31716 0.0
H198 H 0.44683 0.89644 0.32047 0.0
H199 H 0.67693 0.7908 0.31717 0.0
H200 H 0.59135 0.06244 0.2422 0.0
C201 C 0.02565 0.35446 0.51479 0.0
O202 O 0.02829 0.27721 0.542 0.0
C203 C 0.0938 0.39318 0.49516 0.0
C204 C 0.16773 0.383 0.5066 0.0
C205 C 0.22455 0.44903 0.48795 0.0
C206 C 0.20632 0.52711 0.45909 0.0
C207 C 0.13055 0.5406 0.45054 0.0
N208 N 0.07976 0.4725 0.46851 0.0
N209 N 0.00851 0.66207 0.50528 0.0
Co210 Co -0.01513 0.53878 0.46868 0.0
N211 N 0.88996 0.60514 0.46846 0.0
C212 C 0.80197 0.69405 0.50664 0.0
C213 C 0.74519 0.62788 0.488 0.0
C214 C 0.76346 0.54992 0.45911 0.0
C215 C 0.83923 0.53676 0.45051 0.0
C216 C 0.87589 0.68431 0.49515 0.0
N217 N 0.94858 0.41899 0.43347 0.0
N218 N 0.96117 0.41548 0.50527 0.0
N219 N 0.02127 0.65853 0.43349 0.0
C220 C 0.94402 0.72304 0.51481 0.0
O221 O 0.94133 0.80008 0.54206 0.0
C222 C 0.09689 0.64262 0.42936 0.0
O223 O 0.13697 0.71467 0.40819 0.0
C224 C 0.9796 0.75235 0.41394 0.0
C225 C 0.97179 0.97123 0.39175 0.0
C226 C -0.00474 0.88355 0.41776 0.0
C227 C 0.93892 0.71112 0.38471 0.0
C228 C 0.91914 0.79534 0.35771 0.0
C229 C 0.93287 0.92539 0.36194 0.0
C230 C 0.87295 0.43475 0.42935 0.0
O231 O 0.8329 0.36258 0.4082 0.0
C232 C -0.00972 0.32515 0.41394 0.0
C233 C 0.03089 0.36635 0.38469 0.0
C234 C 0.05065 0.28209 0.35769 0.0
C235 C 0.03695 0.15205 0.36192 0.0
C236 C -0.0019 0.10624 0.39174 0.0
C237 C 0.97466 0.19394 0.41777 0.0
C238 C 0.89189 0.4096 0.52505 0.0
C239 C 0.83229 0.33262 0.51328 0.0
C240 C 0.76148 0.34158 0.52955 0.0
C241 C 0.75081 0.42762 0.55713 0.0
C242 C 0.81161 0.49052 0.5722 0.0
C243 C 0.88187 0.48307 0.55592 0.0
C244 C 0.0778 0.6679 0.52506 0.0
C245 C 0.21892 0.64956 0.55709 0.0
C246 C 0.15808 0.58681 0.57218 0.0
C247 C 0.0878 0.59442 0.55592 0.0
C248 C 0.13744 0.74475 0.51328 0.0
C249 C 0.20828 0.73561 0.52951 0.0
H250 H 0.17974 0.33308 0.53069 0.0
H251 H 0.282 0.44673 0.49716 0.0
H252 H 0.24905 0.58415 0.44637 0.0
H253 H 0.78992 0.74384 0.53076 0.0
H254 H 0.68776 0.62997 0.49724 0.0
H255 H 0.72078 0.4927 0.44642 0.0
H256 H 0.03047 0.91528 0.43934 0.0
H257 H 0.93223 0.61016 0.38041 0.0
H258 H 0.9188 0.98986 0.34074 0.0
H259 H 0.03755 0.46731 0.38038 0.0
H260 H 0.05099 0.08756 0.34071 0.0
H261 H 0.93949 0.16222 0.43936 0.0
H262 H 0.84137 0.26495 0.49219 0.0
H263 H 0.69683 0.43055 0.57051 0.0
H264 H 0.92685 0.53681 0.56716 0.0
H265 H 0.2729 0.6465 0.57046 0.0
H266 H 0.04281 0.54079 0.56717 0.0
H267 H 0.12838 0.81245 0.4922 0.0
C268 C 0.19409 0.60446 0.76479 0.0
O269 O 0.19145 0.52722 0.792 0.0
C270 C 0.12594 0.64319 0.74516 0.0
C271 C 0.05202 0.63301 0.7566 0.0
C272 C -0.0048 0.69904 0.73796 0.0
C273 C 0.01342 0.77711 0.70909 0.0
C274 C 0.0892 0.7906 0.70054 0.0
N275 N 0.13998 0.7225 0.71851 0.0
N276 N 0.21124 0.91208 0.75528 0.0
Co277 Co 0.23488 0.78879 0.71868 0.0
N278 N 0.3298 0.85515 0.71846 0.0
C279 C 0.41778 0.94404 0.75665 0.0
C280 C 0.47456 0.87787 0.73801 0.0
C281 C 0.45629 0.79992 0.70912 0.0
C282 C 0.38052 0.78678 0.70051 0.0
C283 C 0.34386 0.93431 0.74515 0.0
N284 N 0.27117 0.669 0.68347 0.0
N285 N 0.25858 0.66549 0.75527 0.0
N286 N 0.19849 0.90854 0.68349 0.0
C287 C 0.27574 0.97304 0.76481 0.0
O288 O 0.27843 0.05008 0.79206 0.0
C289 C 0.12286 0.89262 0.67936 0.0
O290 O 0.08278 0.96467 0.6582 0.0
C291 C 0.24015 1.00237 0.66394 0.0
C292 C 0.24796 0.22124 0.64175 0.0
C293 C 0.22449 0.13356 0.66776 0.0
C294 C 0.28083 0.96115 0.63471 0.0
C295 C 0.3006 0.04535 0.6077 0.0
C296 C 0.28687 0.1754 0.61194 0.0
C297 C 0.34679 0.68477 0.67935 0.0
O298 O 0.38684 0.61259 0.6582 0.0
C299 C 0.22946 0.57515 0.66394 0.0
C300 C 0.18885 0.61635 0.63469 0.0
C301 C 0.16909 0.53209 0.60769 0.0
C302 C 0.18279 0.40204 0.61192 0.0
C303 C 0.22165 0.35624 0.64174 0.0
C304 C 0.24508 0.44395 0.66777 0.0
C305 C 0.32785 0.6596 0.77505 0.0
C306 C 0.38745 0.58261 0.76328 0.0
C307 C 0.45826 0.59157 0.77955 0.0
C308 C 0.46893 0.6776 0.80714 0.0
C309 C 0.40813 0.74051 0.82221 0.0
C310 C 0.33787 0.73306 0.80592 0.0
C311 C 0.14195 0.91792 0.77506 0.0
C312 C 0.00083 0.89959 0.80708 0.0
C313 C 0.06166 0.83684 0.82217 0.0
C314 C 0.13194 0.84444 0.80592 0.0
C315 C 0.08231 0.99477 0.76328 0.0
C316 C 0.01147 0.98564 0.77951 0.0
H317 H 0.04 0.58309 0.7807 0.0
H318 H 0.93775 0.69674 0.74717 0.0
H319 H 0.9707 0.83416 0.69637 0.0
H320 H 0.42983 0.99381 0.78077 0.0
H321 H 0.53199 0.87995 0.74726 0.0
H322 H 0.49897 0.7427 0.69642 0.0
H323 H 0.18929 0.16529 0.68934 0.0
H324 H 0.28751 0.86019 0.63042 0.0
H325 H 0.30094 0.23987 0.59074 0.0
H326 H 0.1822 0.71731 0.63038 0.0
H327 H 0.16876 0.33756 0.59071 0.0
H328 H 0.28026 0.41224 0.68936 0.0
H329 H 0.37837 0.51495 0.74219 0.0
H330 H 0.5229 0.68053 0.82052 0.0
H331 H 0.2929 0.7868 0.81715 0.0
H332 H 0.94684 0.89652 0.82046 0.0
H333 H 0.17693 0.79081 0.81717 0.0
H334 H 0.09138 0.06247 0.7422 0.0
C335 C 0.69409 0.10444 0.7648 0.0
O336 O 0.69145 1.02721 0.792 0.0
C337 C 0.62594 0.14315 0.74516 0.0
C338 C 0.55202 0.13298 0.7566 0.0
C339 C 0.4952 0.199 0.73795 0.0
C340 C 0.51342 0.27706 0.70908 0.0
C341 C 0.58919 0.29055 0.70053 0.0
N342 N 0.63998 0.22246 0.71851 0.0
N343 N 0.71122 0.41206 0.75528 0.0
Co344 Co 0.73487 0.28876 0.71868 0.0
N345 N 0.82978 0.35513 0.71846 0.0
C346 C 0.91777 0.44407 0.75664 0.0
C347 C 0.97455 0.37792 0.738 0.0
C348 C 0.95628 0.29995 0.70911 0.0
C349 C 0.88051 0.28677 0.70051 0.0
C350 C 0.84385 0.43431 0.74515 0.0
N351 N 0.77117 0.16896 0.68347 0.0
N352 N 0.75857 0.16547 0.75527 0.0
N353 N 0.69848 0.40849 0.68348 0.0
C354 C 0.77572 0.47303 0.7648 0.0
O355 O 0.77841 0.55008 0.79206 0.0
C356 C 0.62286 0.39257 0.67936 0.0
O357 O 0.58277 0.46461 0.65819 0.0
C358 C 0.74014 0.50231 0.66394 0.0
C359 C 0.74797 0.7212 0.64174 0.0
C360 C 0.7245 0.63351 0.66776 0.0
C361 C 0.78082 0.46109 0.63471 0.0
C362 C 0.8006 0.54531 0.60771 0.0
C363 C 0.78688 0.67536 0.61193 0.0
C364 C 0.84679 0.18474 0.67935 0.0
O365 O 0.88684 0.11257 0.6582 0.0
C366 C 0.72947 0.0751 0.66394 0.0
C367 C 0.68886 0.1163 0.63469 0.0
C368 C 0.6691 1.03206 0.60768 0.0
C369 C 0.6828 0.90201 0.61192 0.0
C370 C 0.72166 0.8562 0.64174 0.0
C371 C 0.74509 0.94391 0.66777 0.0
C372 C 0.82786 0.15959 0.77505 0.0
C373 C 0.88746 0.08263 0.76328 0.0
C374 C 0.95827 0.09169 0.77954 0.0
C375 C 0.96895 0.1777 0.80713 0.0
C376 C 0.90814 0.24055 0.8222 0.0
C377 C 0.83787 0.23306 0.80592 0.0
C378 C 0.64194 0.41789 0.77506 0.0
C379 C 0.50081 0.39949 0.80709 0.0
C380 C 0.56165 0.33678 0.82218 0.0
C381 C 0.63193 0.34441 0.80592 0.0
C382 C 0.58229 0.49472 0.76328 0.0
C383 C 0.51146 0.48551 0.77951 0.0
H384 H 0.54 0.08307 0.7807 0.0
H385 H 0.43775 0.19669 0.74717 0.0
H386 H 0.47069 0.3341 0.69637 0.0
H387 H 0.92982 0.49385 0.78076 0.0
H388 H 0.03198 0.38002 0.74724 0.0
H389 H -0.00104 0.24273 0.69642 0.0
H390 H 0.68929 0.66524 0.68934 0.0
H391 H 0.7875 0.36013 0.63041 0.0
H392 H 0.80095 0.73983 0.59074 0.0
H393 H 0.6822 0.21725 0.63038 0.0
H394 H 0.66877 0.83752 0.59072 0.0
H395 H 0.78027 0.91219 0.68936 0.0
H396 H 0.87839 1.01495 0.74219 0.0
H397 H 0.02293 0.18065 0.82051 0.0
H398 H 0.7929 0.28678 0.81716 0.0
H399 H 0.44683 0.39642 0.82047 0.0
H400 H 0.67694 0.2908 0.81717 0.0
H401 H 0.59134 0.56243 0.7422 0.0
C402 C 0.52565 0.85445 0.51479 0.0
O403 O 0.52829 0.77721 0.542 0.0
C404 C 0.5938 0.89317 0.49516 0.0
C405 C 0.66772 0.88299 0.50659 0.0
C406 C 0.72455 0.94901 0.48795 0.0
C407 C 0.70632 1.02709 0.45908 0.0
C408 C 0.63054 0.04058 0.45053 0.0
N409 N 0.57976 0.97249 0.46851 0.0
N410 N 0.50851 0.16207 0.50528 0.0
Co411 Co 0.48487 0.03877 0.46868 0.0
N412 N 0.38995 0.10513 0.46847 0.0
C413 C 0.30197 0.19406 0.50664 0.0
C414 C 0.24519 0.1279 0.488 0.0
C415 C 0.26345 0.04993 0.45911 0.0
C416 C 0.33922 1.03676 0.45052 0.0
C417 C 0.37589 0.18431 0.49515 0.0
N418 N 0.44857 0.91897 0.43347 0.0
N419 N 0.46117 0.91547 0.50527 0.0
N420 N 0.52126 0.15851 0.43348 0.0
C421 C 0.44402 0.22304 0.51481 0.0
O422 O 0.44133 0.30009 0.54206 0.0
C423 C 0.59688 0.1426 0.42936 0.0
O424 O 0.63696 0.21465 0.40819 0.0
C425 C 0.47959 0.25233 0.41394 0.0
C426 C 0.47177 0.47121 0.39175 0.0
C427 C 0.49524 0.38353 0.41776 0.0
C428 C 0.43892 0.2111 0.38471 0.0
C429 C 0.41914 0.29531 0.35771 0.0
C430 C 0.43286 0.42536 0.36194 0.0
C431 C 0.37295 0.93474 0.42936 0.0
O432 O 0.33289 0.86257 0.4082 0.0
C433 C 0.49027 0.82513 0.41394 0.0
C434 C 0.53089 0.86633 0.38469 0.0
C435 C 0.55065 0.78207 0.35769 0.0
C436 C 0.53695 0.65202 0.36192 0.0
C437 C 0.49808 0.60622 0.39174 0.0
C438 C 0.47464 0.69393 0.41777 0.0
C439 C 0.39189 0.90959 0.52505 0.0
C440 C 0.33229 0.83262 0.51328 0.0
C441 C 0.26148 0.84167 0.52955 0.0
C442 C 0.2508 0.92768 0.55713 0.0
C443 C 0.31161 0.99055 0.5722 0.0
C444 C 0.38188 0.98307 0.55592 0.0
C445 C 0.5778 0.1679 0.52506 0.0
C446 C 0.71893 0.1495 0.55708 0.0
C447 C 0.65809 0.08679 0.57218 0.0
C448 C 0.58781 0.09441 0.55592 0.0
C449 C 0.63745 0.24474 0.51328 0.0
C450 C 0.70828 0.23552 0.52951 0.0
H451 H 0.67974 0.83307 0.53069 0.0
H452 H 0.782 0.9467 0.49716 0.0
H453 H 0.74905 0.08413 0.44636 0.0
H454 H 0.28992 0.24385 0.53076 0.0
H455 H 0.18776 0.13 0.49724 0.0
H456 H 0.22077 0.99271 0.44642 0.0
H457 H 0.53044 0.41526 0.43934 0.0
H458 H 0.43223 0.11014 0.38041 0.0
H459 H 0.41879 0.48984 0.34074 0.0
H460 H 0.53755 0.96728 0.38038 0.0
H461 H 0.55098 0.58754 0.34072 0.0
H462 H 0.43946 0.66221 0.43936 0.0
H463 H 0.34135 0.76494 0.49219 0.0
H464 H 0.19682 0.93063 0.57051 0.0
H465 H 0.42685 1.0368 0.56716 0.0
H466 H 0.77292 0.14643 0.57046 0.0
H467 H 0.54281 0.04079 0.56717 0.0
H468 H 0.62839 0.31245 0.4922 0.0
C469 C 0.52565 0.35444 0.01479 0.0
O470 O 0.52829 0.2772 0.042 0.0
C471 C 0.5938 0.39317 -0.00484 0.0
C472 C 0.66773 0.38299 0.0066 0.0
C473 C 0.72455 0.44901 -0.01205 0.0
C474 C 0.70632 0.52709 0.95908 0.0
C475 C 0.63055 0.54058 0.95053 0.0
N476 N 0.57976 0.47248 0.96851 0.0
N477 N 0.50852 0.66206 0.00528 0.0
Co478 Co 0.48487 0.53876 0.96868 0.0
N479 N 0.38996 0.60512 0.96846 0.0
C480 C 0.30197 0.69406 0.00664 0.0
C481 C 0.24519 0.6279 -0.012 0.0
C482 C 0.26346 0.54993 0.95911 0.0
C483 C 0.33923 0.53675 0.95051 0.0
C484 C 0.37589 0.6843 -0.00485 0.0
N485 N 0.44858 0.41896 0.93347 0.0
N486 N 0.46117 0.41546 0.00527 0.0
N487 N 0.52126 0.6585 0.93349 0.0
C488 C 0.44402 0.72303 0.01481 0.0
O489 O 0.44133 0.80008 0.04206 0.0
C490 C 0.59688 0.6426 0.92936 0.0
O491 O 0.63697 0.71464 0.90819 0.0
C492 C 0.4796 0.75232 0.91394 0.0
C493 C 0.47177 0.9712 0.89175 0.0
C494 C 0.49525 0.88352 0.91776 0.0
C495 C 0.43892 0.71109 0.88471 0.0
C496 C 0.41914 0.7953 0.85771 0.0
C497 C 0.43286 0.92535 0.86194 0.0
C498 C 0.37295 0.43473 0.92936 0.0
O499 O 0.3329 0.36256 0.9082 0.0
C500 C 0.49027 0.32512 0.91394 0.0
C501 C 0.53089 0.36632 0.88469 0.0
C502 C 0.55066 0.28206 0.85769 0.0
C503 C 0.53695 0.15201 0.86192 0.0
C504 C 0.49809 0.10621 0.89174 0.0
C505 C 0.47465 0.19392 0.91777 0.0
C506 C 0.39189 0.40958 0.02505 0.0
C507 C 0.33229 0.33261 0.01328 0.0
C508 C 0.26148 0.34167 0.02955 0.0
C509 C 0.2508 0.42768 0.05713 0.0
C510 C 0.31161 0.49055 0.0722 0.0
C511 C 0.38188 0.48307 0.05592 0.0
C512 C 0.5778 0.6679 0.02506 0.0
C513 C 0.71893 0.6495 0.05709 0.0
C514 C 0.65809 0.58678 0.07218 0.0
C515 C 0.58781 0.59441 0.05592 0.0
C516 C 0.63745 0.74473 0.01328 0.0
C517 C 0.70828 0.73552 0.02951 0.0
H518 H 0.67974 0.33307 0.03069 0.0
H519 H 0.782 0.44671 -0.00284 0.0
H520 H 0.74905 0.58413 0.94637 0.0
H521 H 0.28992 0.74385 0.03076 0.0
H522 H 0.18776 0.63 -0.00276 0.0
H523 H 0.22078 0.49271 0.94642 0.0
H524 H 0.53045 0.91525 0.93934 0.0
H525 H 0.43224 0.61013 0.88041 0.0
H526 H 0.41879 0.98983 0.84074 0.0
H527 H 0.53755 0.46727 0.88038 0.0
H528 H 0.55098 0.08753 0.84072 0.0
H529 H 0.43947 0.1622 0.93936 0.0
H530 H 0.34135 0.26493 -0.00781 0.0
H531 H 0.19682 0.43063 0.07051 0.0
H532 H 0.42685 0.5368 0.06716 0.0
H533 H 0.77292 0.64643 0.07046 0.0
H534 H 0.54281 0.54078 0.06717 0.0
H535 H 0.62839 0.81245 -0.0078 0.0
loop_
_geom_bond_atom_site_label_1
_geom_bond_atom_site_label_2
_geom_bond_distance
_geom_bond_site_symmetry_2
_ccdc_geom_bond_type
C0 O1 1.201 . S
C0 C2 1.493 . S
C0 N17 1.318 1_455 S
O1 C0 1.201 . S
C2 C0 1.493 . S
C2 C3 1.381 . S
C2 N7 1.335 1_554 S
C3 C2 1.381 . S
C3 C4 1.411 1_554 S
C3 H49 0.931 . S
C4 C3 1.411 1_556 S
C4 C5 1.384 . S
C4 H50 0.930 . S
C5 C4 1.384 . S
C5 C6 1.376 . S
C5 H51 0.929 . S
C6 C5 1.376 . S
C6 N7 1.330 . S
C6 C21 1.484 1_565 S
N7 C2 1.335 1_556 S
N7 C6 1.330 . S
N7 Co9 1.859 1_565 S
N8 Co9 1.962 1_554 S
N8 C19 1.318 1_455 S
N8 C43 1.421 . S
Co9 N7 1.859 1_545 S
Co9 N8 1.962 1_556 S
Co9 N10 1.859 1_455 S
Co9 N16 1.958 1_445 S
Co9 N17 1.962 1_446 S
Co9 N18 1.958 . S
N10 Co9 1.859 1_655 S
N10 C14 1.330 . S
N10 C15 1.335 1_556 S
C11 C12 1.411 1_554 S
C11 C15 1.381 . S
C11 H52 0.931 . S
C12 C11 1.411 1_556 S
C12 C13 1.384 . S
C12 H53 0.930 . S
C13 C12 1.384 . S
C13 C14 1.376 . S
C13 H54 0.929 . S
C14 N10 1.330 . S
C14 C13 1.376 . S
C14 C29 1.484 1_545 S
C15 N10 1.335 1_554 S
C15 C11 1.381 . S
C15 C19 1.493 . S
N16 Co9 1.958 1_665 S
N16 C29 1.344 . S
N16 C31 1.431 . S
N17 C0 1.318 1_655 S
N17 Co9 1.962 1_664 S
N17 C37 1.421 . S
N18 Co9 1.958 . S
N18 C21 1.344 . S
N18 C23 1.425 . S
C19 N8 1.318 1_655 S
C19 C15 1.493 . S
C19 O20 1.201 . S
O20 C19 1.201 . S
C21 C6 1.484 1_545 S
C21 N18 1.344 . S
C21 O22 1.268 . S
O22 C21 1.268 . S
C23 N18 1.425 . S
C23 C25 1.392 . S
C23 C26 1.368 1_455 S
C24 C25 1.382 1_655 S
C24 C28 1.386 . S
C25 C23 1.392 . S
C25 C24 1.382 1_455 S
C25 H55 0.928 . S
C26 C23 1.368 1_655 S
C26 C27 1.367 . S
C26 H56 0.930 . S
C27 C26 1.367 . S
C27 C28 1.369 . S
C28 C24 1.386 . S
C28 C27 1.369 . S
C28 H57 0.930 . S
C29 C14 1.484 1_565 S
C29 N16 1.344 . S
C29 O30 1.268 . S
O30 C29 1.268 . S
C31 N16 1.431 . S
C31 C32 1.360 1_655 S
C31 C36 1.393 . S
C32 C31 1.360 1_455 S
C32 C33 1.367 . S
C32 H58 0.930 . S
C33 C32 1.367 . S
C33 C34 1.369 . S
C34 C33 1.369 . S
C34 C35 1.386 . S
C34 H59 0.930 . S
C35 C34 1.386 . S
C35 C36 1.382 1_455 S
C36 C31 1.393 . S
C36 C35 1.382 1_655 S
C36 H60 0.928 . S
C37 N17 1.421 . S
C37 C38 1.371 . S
C37 C42 1.385 . S
C38 C37 1.371 . S
C38 C39 1.367 . S
C38 H61 0.931 . S
C39 C38 1.367 . S
C39 C40 1.401 . S
C40 C39 1.401 . S
C40 C41 1.385 . S
C40 H62 0.930 . S
C41 C40 1.385 . S
C41 C42 1.402 . S
C42 C37 1.385 . S
C42 C41 1.402 . S
C42 H63 0.929 . S
C43 N8 1.421 . S
C43 C46 1.385 . S
C43 C47 1.371 . S
C44 C45 1.385 . S
C44 C48 1.401 . S
C44 H64 0.930 . S
C45 C44 1.385 . S
C45 C46 1.402 . S
C46 C43 1.385 . S
C46 C45 1.402 . S
C46 H65 0.929 . S
C47 C43 1.371 . S
C47 C48 1.367 . S
C47 H66 0.931 . S
C48 C44 1.401 . S
C48 C47 1.367 . S
H49 C3 0.931 . S
H50 C4 0.930 . S
H51 C5 0.929 . S
H52 C11 0.931 . S
H53 C12 0.930 . S
H54 C13 0.929 . S
H55 C25 0.928 . S
H56 C26 0.930 . S
H57 C28 0.930 . S
H58 C32 0.930 . S
H59 C34 0.930 . S
H60 C36 0.928 . S
H61 C38 0.931 . S
H62 C40 0.930 . S
H63 C42 0.929 . S
H64 C44 0.930 . S
H65 C46 0.929 . S
H66 C47 0.931 . S
C67 O68 1.201 1_545 S
C67 C69 1.493 . S
C67 N84 1.318 . S
O68 C67 1.201 1_565 S
C69 C67 1.493 . S
C69 C70 1.381 . S
C69 N74 1.335 . S
C70 C69 1.381 . S
C70 C71 1.411 . S
C70 H116 0.931 1_545 S
C71 C70 1.411 . S
C71 C72 1.384 . S
C71 H117 0.930 1_455 S
C72 C71 1.384 . S
C72 C73 1.376 . S
C72 H118 0.929 1_455 S
C73 C72 1.376 . S
C73 N74 1.330 . S
C73 C88 1.484 . S
N74 C69 1.335 . S
N74 C73 1.330 . S
N74 Co76 1.859 . S
N75 Co76 1.962 . S
N75 C86 1.318 . S
N75 C110 1.421 . S
Co76 N74 1.859 . S
Co76 N75 1.962 . S
Co76 N77 1.859 . S
Co76 N83 1.958 . S
Co76 N84 1.962 . S
Co76 N85 1.958 . S
N77 Co76 1.859 . S
N77 C81 1.330 . S
N77 C82 1.335 . S
C78 C79 1.411 . S
C78 C82 1.381 . S
C78 H119 0.931 . S
C79 C78 1.411 . S
C79 C80 1.384 . S
C79 H120 0.930 . S
C80 C79 1.384 . S
C80 C81 1.376 . S
C80 H121 0.929 . S
C81 N77 1.330 . S
C81 C80 1.376 . S
C81 C96 1.484 . S
C82 N77 1.335 . S
C82 C78 1.381 . S
C82 C86 1.493 . S
N83 Co76 1.958 . S
N83 C96 1.344 . S
N83 C98 1.425 . S
N84 C67 1.318 . S
N84 Co76 1.962 . S
N84 C104 1.421 . S
N85 Co76 1.958 . S
N85 C88 1.344 . S
N85 C90 1.425 . S
C86 N75 1.318 . S
C86 C82 1.493 . S
C86 O87 1.201 . S
O87 C86 1.201 . S
C88 C73 1.484 . S
C88 N85 1.344 . S
C88 O89 1.268 . S
O89 C88 1.268 . S
C90 N85 1.425 . S
C90 C92 1.392 . S
C90 C93 1.368 . S
C91 C92 1.382 . S
C91 C95 1.386 . S
C92 C90 1.392 . S
C92 C91 1.382 . S
C92 H122 0.928 . S
C93 C90 1.368 . S
C93 C94 1.367 . S
C93 H123 0.930 . S
C94 C93 1.367 . S
C94 C95 1.369 . S
C95 C91 1.386 . S
C95 C94 1.369 . S
C95 H124 0.930 . S
C96 C81 1.484 . S
C96 N83 1.344 . S
C96 O97 1.268 . S
O97 C96 1.268 . S
C98 N83 1.425 . S
C98 C99 1.368 . S
C98 C103 1.392 1_545 S
C99 C98 1.368 . S
C99 C100 1.367 1_545 S
C99 H125 0.930 . S
C100 C99 1.367 1_565 S
C100 C101 1.369 . S
C101 C100 1.369 . S
C101 C102 1.386 . S
C101 H126 0.930 . S
C102 C101 1.386 . S
C102 C103 1.382 . S
C103 C98 1.392 1_565 S
C103 C102 1.382 . S
C103 H127 0.928 . S
C104 N84 1.421 . S
C104 C105 1.371 . S
C104 C109 1.385 . S
C105 C104 1.371 . S
C105 C106 1.367 . S
C105 H128 0.931 . S
C106 C105 1.367 . S
C106 C107 1.401 . S
C107 C106 1.401 . S
C107 C108 1.385 . S
C107 H129 0.930 . S
C108 C107 1.385 . S
C108 C109 1.402 . S
C109 C104 1.385 . S
C109 C108 1.402 . S
C109 H130 0.929 . S
C110 N75 1.421 . S
C110 C113 1.385 . S
C110 C114 1.371 . S
C111 C112 1.385 . S
C111 C115 1.401 . S
C111 H131 0.931 . S
C112 C111 1.385 . S
C112 C113 1.402 . S
C113 C110 1.385 . S
C113 C112 1.402 . S
C113 H132 0.929 . S
C114 C110 1.371 . S
C114 C115 1.367 . S
C114 H133 0.931 . S
C115 C111 1.401 . S
C115 C114 1.367 . S
H116 C70 0.931 1_565 S
H117 C71 0.930 1_655 S
H118 C72 0.929 1_655 S
H119 C78 0.931 . S
H120 C79 0.930 . S
H121 C80 0.929 . S
H122 C92 0.928 . S
H123 C93 0.930 . S
H124 C95 0.930 . S
H125 C99 0.930 . S
H126 C101 0.930 . S
H127 C103 0.928 . S
H128 C105 0.931 . S
H129 C107 0.930 . S
H130 C109 0.929 . S
H131 C111 0.931 . S
H132 C113 0.929 . S
H133 C114 0.931 . S
C134 O135 1.201 . S
C134 C136 1.493 . S
C134 N151 1.318 . S
O135 C134 1.201 . S
C136 C134 1.493 . S
C136 C137 1.381 . S
C136 N141 1.335 . S
C137 C136 1.381 . S
C137 C138 1.411 . S
C137 H183 0.931 . S
C138 C137 1.411 . S
C138 C139 1.384 . S
C138 H184 0.930 . S
C139 C138 1.384 . S
C139 C140 1.376 . S
C139 H185 0.929 . S
C140 C139 1.376 . S
C140 N141 1.330 . S
C140 C155 1.484 . S
N141 C136 1.335 . S
N141 C140 1.330 . S
N141 Co143 1.859 . S
N142 Co143 1.962 . S
N142 C153 1.318 . S
N142 C177 1.421 . S
Co143 N141 1.859 . S
Co143 N142 1.962 . S
Co143 N144 1.859 . S
Co143 N150 1.958 . S
Co143 N151 1.962 . S
Co143 N152 1.958 . S
N144 Co143 1.859 . S
N144 C148 1.330 . S
N144 C149 1.335 . S
C145 C146 1.411 . S
C145 C149 1.381 . S
C145 H186 0.931 1_565 S
C146 C145 1.411 . S
C146 C147 1.384 . S
C146 H187 0.930 1_655 S
C147 C146 1.384 . S
C147 C148 1.376 . S
C147 H188 0.929 1_655 S
C148 N144 1.330 . S
C148 C147 1.376 . S
C148 C163 1.484 . S
C149 N144 1.335 . S
C149 C145 1.381 . S
C149 C153 1.493 . S
N150 Co143 1.958 . S
N150 C163 1.344 . S
N150 C165 1.425 . S
N151 C134 1.318 . S
N151 Co143 1.962 . S
N151 C171 1.421 . S
N152 Co143 1.958 . S
N152 C155 1.344 . S
N152 C157 1.425 . S
C153 N142 1.318 . S
C153 C149 1.493 . S
C153 O154 1.201 1_565 S
O154 C153 1.201 1_545 S
C155 C140 1.484 . S
C155 N152 1.344 . S
C155 O156 1.268 . S
O156 C155 1.268 . S
C157 N152 1.425 . S
C157 C159 1.392 1_565 S
C157 C160 1.368 . S
C158 C159 1.382 . S
C158 C162 1.386 . S
C159 C157 1.392 1_545 S
C159 C158 1.382 . S
C159 H189 0.928 . S
C160 C157 1.368 . S
C160 C161 1.367 1_565 S
C160 H190 0.930 . S
C161 C160 1.367 1_545 S
C161 C162 1.369 . S
C162 C158 1.386 . S
C162 C161 1.369 . S
C162 H191 0.930 . S
C163 C148 1.484 . S
C163 N150 1.344 . S
C163 O164 1.268 . S
O164 C163 1.268 . S
C165 N150 1.425 . S
C165 C166 1.368 . S
C165 C170 1.392 . S
C166 C165 1.368 . S
C166 C167 1.367 . S
C166 H192 0.930 . S
C167 C166 1.367 . S
C167 C168 1.369 . S
C168 C167 1.369 . S
C168 C169 1.386 . S
C168 H193 0.930 . S
C169 C168 1.386 . S
C169 C170 1.382 . S
C170 C165 1.392 . S
C170 C169 1.382 . S
C170 H194 0.928 . S
C171 N151 1.421 . S
C171 C172 1.371 . S
C171 C176 1.385 . S
C172 C171 1.371 . S
C172 C173 1.367 . S
C172 H195 0.931 . S
C173 C172 1.367 . S
C173 C174 1.401 . S
C174 C173 1.401 . S
C174 C175 1.385 . S
C174 H196 0.931 . S
C175 C174 1.385 . S
C175 C176 1.402 . S
C176 C171 1.385 . S
C176 C175 1.402 . S
C176 H197 0.929 . S
C177 N142 1.421 . S
C177 C180 1.385 . S
C177 C181 1.371 . S
C178 C179 1.385 . S
C178 C182 1.401 . S
C178 H198 0.930 . S
C179 C178 1.385 . S
C179 C180 1.402 . S
C180 C177 1.385 . S
C180 C179 1.402 . S
C180 H199 0.929 . S
C181 C177 1.371 . S
C181 C182 1.367 . S
C181 H200 0.931 . S
C182 C178 1.401 . S
C182 C181 1.367 . S
H183 C137 0.931 . S
H184 C138 0.930 . S
H185 C139 0.929 . S
H186 C145 0.931 1_545 S
H187 C146 0.930 1_455 S
H188 C147 0.929 1_455 S
H189 C159 0.928 . S
H190 C160 0.930 . S
H191 C162 0.930 . S
H192 C166 0.930 . S
H193 C168 0.930 . S
H194 C170 0.928 . S
H195 C172 0.931 . S
H196 C174 0.931 . S
H197 C176 0.929 . S
H198 C178 0.930 . S
H199 C180 0.929 . S
H200 C181 0.931 . S
C201 O202 1.201 . S
C201 C203 1.493 . S
C201 N218 1.318 1_455 S
O202 C201 1.201 . S
C203 C201 1.493 . S
C203 C204 1.381 . S
C203 N208 1.335 . S
C204 C203 1.381 . S
C204 C205 1.411 . S
C204 H250 0.931 . S
C205 C204 1.411 . S
C205 C206 1.384 . S
C205 H251 0.930 . S
C206 C205 1.384 . S
C206 C207 1.376 . S
C206 H252 0.929 . S
C207 C206 1.376 . S
C207 N208 1.330 . S
C207 C222 1.484 . S
N208 C203 1.335 . S
N208 C207 1.330 . S
N208 Co210 1.859 . S
N209 Co210 1.962 . S
N209 C220 1.318 1_455 S
N209 C244 1.421 . S
Co210 N208 1.859 . S
Co210 N209 1.962 . S
Co210 N211 1.859 1_455 S
Co210 N217 1.958 1_455 S
Co210 N218 1.962 1_455 S
Co210 N219 1.958 . S
N211 Co210 1.859 1_655 S
N211 C215 1.330 . S
N211 C216 1.335 . S
C212 C213 1.411 . S
C212 C216 1.381 . S
C212 H253 0.931 . S
C213 C212 1.411 . S
C213 C214 1.384 . S
C213 H254 0.930 . S
C214 C213 1.384 . S
C214 C215 1.376 . S
C214 H255 0.929 . S
C215 N211 1.330 . S
C215 C214 1.376 . S
C215 C230 1.484 . S
C216 N211 1.335 . S
C216 C212 1.381 . S
C216 C220 1.493 . S
N217 Co210 1.958 1_655 S
N217 C230 1.344 . S
N217 C232 1.431 . S
N218 C201 1.318 1_655 S
N218 Co210 1.962 1_655 S
N218 C238 1.421 . S
N219 Co210 1.958 . S
N219 C222 1.344 . S
N219 C224 1.425 . S
C220 N209 1.318 1_655 S
C220 C216 1.493 . S
C220 O221 1.201 . S
O221 C220 1.201 . S
C222 C207 1.484 . S
C222 N219 1.344 . S
C222 O223 1.268 . S
O223 C222 1.268 . S
C224 N219 1.425 . S
C224 C226 1.392 . S
C224 C227 1.368 1_455 S
C225 C226 1.382 1_655 S
C225 C229 1.386 . S
C226 C224 1.392 . S
C226 C225 1.382 1_455 S
C226 H256 0.928 . S
C227 C224 1.368 1_655 S
C227 C228 1.367 . S
C227 H257 0.930 . S
C228 C227 1.367 . S
C228 C229 1.369 . S
C229 C225 1.386 . S
C229 C228 1.369 . S
C229 H258 0.930 . S
C230 C215 1.484 . S
C230 N217 1.344 . S
C230 O231 1.268 . S
O231 C230 1.268 . S
C232 N217 1.431 . S
C232 C233 1.360 1_655 S
C232 C237 1.393 . S
C233 C232 1.360 1_455 S
C233 C234 1.367 . S
C233 H259 0.930 . S
C234 C233 1.367 . S
C234 C235 1.369 . S
C235 C234 1.369 . S
C235 C236 1.386 . S
C235 H260 0.930 . S
C236 C235 1.386 . S
C236 C237 1.382 1_455 S
C237 C232 1.393 . S
C237 C236 1.382 1_655 S
C237 H261 0.928 . S
C238 N218 1.421 . S
C238 C239 1.371 . S
C238 C243 1.385 . S
C239 C238 1.371 . S
C239 C240 1.367 . S
C239 H262 0.931 . S
C240 C239 1.367 . S
C240 C241 1.401 . S
C241 C240 1.401 . S
C241 C242 1.385 . S
C241 H263 0.930 . S
C242 C241 1.385 . S
C242 C243 1.402 . S
C243 C238 1.385 . S
C243 C242 1.402 . S
C243 H264 0.929 . S
C244 N209 1.421 . S
C244 C247 1.385 . S
C244 C248 1.371 . S
C245 C246 1.385 . S
C245 C249 1.401 . S
C245 H265 0.930 . S
C246 C245 1.385 . S
C246 C247 1.402 . S
C247 C244 1.385 . S
C247 C246 1.402 . S
C247 H266 0.929 . S
C248 C244 1.371 . S
C248 C249 1.367 . S
C248 H267 0.931 . S
C249 C245 1.401 . S
C249 C248 1.367 . S
H250 C204 0.931 . S
H251 C205 0.930 . S
H252 C206 0.929 . S
H253 C212 0.931 . S
H254 C213 0.930 . S
H255 C214 0.929 . S
H256 C226 0.928 . S
H257 C227 0.930 . S
H258 C229 0.930 . S
H259 C233 0.930 . S
H260 C235 0.930 . S
H261 C237 0.928 . S
H262 C239 0.931 . S
H263 C241 0.930 . S
H264 C243 0.929 . S
H265 C245 0.930 . S
H266 C247 0.929 . S
H267 C248 0.931 . S
C268 O269 1.201 . S
C268 C270 1.493 . S
C268 N285 1.318 . S
O269 C268 1.201 . S
C270 C268 1.493 . S
C270 C271 1.381 . S
C270 N275 1.335 . S
C271 C270 1.381 . S
C271 C272 1.411 . S
C271 H317 0.931 . S
C272 C271 1.411 . S
C272 C273 1.384 . S
C272 H318 0.930 1_455 S
C273 C272 1.384 . S
C273 C274 1.376 . S
C273 H319 0.929 1_455 S
C274 C273 1.376 . S
C274 N275 1.330 . S
C274 C289 1.484 . S
N275 C270 1.335 . S
N275 C274 1.330 . S
N275 Co277 1.859 . S
N276 Co277 1.962 . S
N276 C287 1.318 . S
N276 C311 1.421 . S
Co277 N275 1.859 . S
Co277 N276 1.962 . S
Co277 N278 1.859 . S
Co277 N284 1.958 . S
Co277 N285 1.962 . S
Co277 N286 1.958 . S
N278 Co277 1.859 . S
N278 C282 1.330 . S
N278 C283 1.335 . S
C279 C280 1.411 . S
C279 C283 1.381 . S
C279 H320 0.931 1_565 S
C280 C279 1.411 . S
C280 C281 1.384 . S
C280 H321 0.930 . S
C281 C280 1.384 . S
C281 C282 1.376 . S
C281 H322 0.929 . S
C282 N278 1.330 . S
C282 C281 1.376 . S
C282 C297 1.484 . S
C283 N278 1.335 . S
C283 C279 1.381 . S
C283 C287 1.493 . S
N284 Co277 1.958 . S
N284 C297 1.344 . S
N284 C299 1.425 . S
N285 C268 1.318 . S
N285 Co277 1.962 . S
N285 C305 1.421 . S
N286 Co277 1.958 . S
N286 C289 1.344 . S
N286 C291 1.425 . S
C287 N276 1.318 . S
C287 C283 1.493 . S
C287 O288 1.201 1_565 S
O288 C287 1.201 1_545 S
C289 C274 1.484 . S
C289 N286 1.344 . S
C289 O290 1.268 . S
O290 C289 1.268 . S
C291 N286 1.425 . S
C291 C293 1.392 1_565 S
C291 C294 1.368 . S
C292 C293 1.382 . S
C292 C296 1.386 . S
C293 C291 1.392 1_545 S
C293 C292 1.382 . S
C293 H323 0.928 . S
C294 C291 1.368 . S
C294 C295 1.367 1_565 S
C294 H324 0.930 . S
C295 C294 1.367 1_545 S
C295 C296 1.369 . S
C296 C292 1.386 . S
C296 C295 1.369 . S
C296 H325 0.930 . S
C297 C282 1.484 . S
C297 N284 1.344 . S
C297 O298 1.268 . S
O298 C297 1.268 . S
C299 N284 1.425 . S
C299 C300 1.368 . S
C299 C304 1.392 . S
C300 C299 1.368 . S
C300 C301 1.367 . S
C300 H326 0.930 . S
C301 C300 1.367 . S
C301 C302 1.369 . S
C302 C301 1.369 . S
C302 C303 1.386 . S
C302 H327 0.930 . S
C303 C302 1.386 . S
C303 C304 1.382 . S
C304 C299 1.392 . S
C304 C303 1.382 . S
C304 H328 0.928 . S
C305 N285 1.421 . S
C305 C306 1.371 . S
C305 C310 1.385 . S
C306 C305 1.371 . S
C306 C307 1.367 . S
C306 H329 0.931 . S
C307 C306 1.367 . S
C307 C308 1.401 . S
C308 C307 1.401 . S
C308 C309 1.385 . S
C308 H330 0.930 . S
C309 C308 1.385 . S
C309 C310 1.402 . S
C310 C305 1.385 . S
C310 C309 1.402 . S
C310 H331 0.929 . S
C311 N276 1.421 . S
C311 C314 1.385 . S
C311 C315 1.371 . S
C312 C313 1.385 . S
C312 C316 1.401 . S
C312 H332 0.931 . S
C313 C312 1.385 . S
C313 C314 1.402 . S
C314 C311 1.385 . S
C314 C313 1.402 . S
C314 H333 0.929 . S
C315 C311 1.371 . S
C315 C316 1.367 . S
C315 H334 0.931 . S
C316 C312 1.401 . S
C316 C315 1.367 . S
H317 C271 0.931 . S
H318 C272 0.930 1_655 S
H319 C273 0.929 1_655 S
H320 C279 0.931 1_545 S
H321 C280 0.930 . S
H322 C281 0.929 . S
H323 C293 0.928 . S
H324 C294 0.930 . S
H325 C296 0.930 . S
H326 C300 0.930 . S
H327 C302 0.930 . S
H328 C304 0.928 . S
H329 C306 0.931 . S
H330 C308 0.930 . S
H331 C310 0.929 . S
H332 C312 0.931 . S
H333 C314 0.929 . S
H334 C315 0.931 . S
C335 O336 1.201 1_545 S
C335 C337 1.493 . S
C335 N352 1.318 . S
O336 C335 1.201 1_565 S
C337 C335 1.493 . S
C337 C338 1.381 . S
C337 N342 1.335 . S
C338 C337 1.381 . S
C338 C339 1.411 . S
C338 H384 0.931 1_545 S
C339 C338 1.411 . S
C339 C340 1.384 . S
C339 H385 0.930 . S
C340 C339 1.384 . S
C340 C341 1.376 . S
C340 H386 0.929 . S
C341 C340 1.376 . S
C341 N342 1.330 . S
C341 C356 1.484 . S
N342 C337 1.335 . S
N342 C341 1.330 . S
N342 Co344 1.859 . S
N343 Co344 1.962 . S
N343 C354 1.318 . S
N343 C378 1.421 . S
Co344 N342 1.859 . S
Co344 N343 1.962 . S
Co344 N345 1.859 . S
Co344 N351 1.958 . S
Co344 N352 1.962 . S
Co344 N353 1.958 . S
N345 Co344 1.859 . S
N345 C349 1.330 . S
N345 C350 1.335 . S
C346 C347 1.411 . S
C346 C350 1.381 . S
C346 H387 0.931 . S
C347 C346 1.411 . S
C347 C348 1.384 . S
C347 H388 0.930 1_655 S
C348 C347 1.384 . S
C348 C349 1.376 . S
C348 H389 0.929 1_655 S
C349 N345 1.330 . S
C349 C348 1.376 . S
C349 C364 1.484 . S
C350 N345 1.335 . S
C350 C346 1.381 . S
C350 C354 1.493 . S
N351 Co344 1.958 . S
N351 C364 1.344 . S
N351 C366 1.425 . S
N352 C335 1.318 . S
N352 Co344 1.962 . S
N352 C372 1.421 . S
N353 Co344 1.958 . S
N353 C356 1.344 . S
N353 C358 1.425 . S
C354 N343 1.318 . S
C354 C350 1.493 . S
C354 O355 1.201 . S
O355 C354 1.201 . S
C356 C341 1.484 . S
C356 N353 1.344 . S
C356 O357 1.268 . S
O357 C356 1.268 . S
C358 N353 1.425 . S
C358 C360 1.392 . S
C358 C361 1.368 . S
C359 C360 1.382 . S
C359 C363 1.386 . S
C360 C358 1.392 . S
C360 C359 1.382 . S
C360 H390 0.928 . S
C361 C358 1.368 . S
C361 C362 1.367 . S
C361 H391 0.930 . S
C362 C361 1.367 . S
C362 C363 1.369 . S
C363 C359 1.386 . S
C363 C362 1.369 . S
C363 H392 0.930 . S
C364 C349 1.484 . S
C364 N351 1.344 . S
C364 O365 1.268 . S
O365 C364 1.268 . S
C366 N351 1.425 . S
C366 C367 1.368 . S
C366 C371 1.392 1_545 S
C367 C366 1.368 . S
C367 C368 1.367 1_545 S
C367 H393 0.930 . S
C368 C367 1.367 1_565 S
C368 C369 1.369 . S
C369 C368 1.369 . S
C369 C370 1.386 . S
C369 H394 0.930 . S
C370 C369 1.386 . S
C370 C371 1.382 . S
C371 C366 1.392 1_565 S
C371 C370 1.382 . S
C371 H395 0.928 . S
C372 N352 1.421 . S
C372 C373 1.371 . S
C372 C377 1.385 . S
C373 C372 1.371 . S
C373 C374 1.367 . S
C373 H396 0.931 . S
C374 C373 1.367 . S
C374 C375 1.401 . S
C375 C374 1.401 . S
C375 C376 1.385 . S
C375 H397 0.931 . S
C376 C375 1.385 . S
C376 C377 1.402 . S
C377 C372 1.385 . S
C377 C376 1.402 . S
C377 H398 0.929 . S
C378 N343 1.421 . S
C378 C381 1.385 . S
C378 C382 1.371 . S
C379 C380 1.385 . S
C379 C383 1.401 . S
C379 H399 0.930 . S
C380 C379 1.385 . S
C380 C381 1.402 . S
C381 C378 1.385 . S
C381 C380 1.402 . S
C381 H400 0.929 . S
C382 C378 1.371 . S
C382 C383 1.367 . S
C382 H401 0.931 . S
C383 C379 1.401 . S
C383 C382 1.367 . S
H384 C338 0.931 1_565 S
H385 C339 0.930 . S
H386 C340 0.929 . S
H387 C346 0.931 . S
H388 C347 0.930 1_455 S
H389 C348 0.929 1_455 S
H390 C360 0.928 . S
H391 C361 0.930 . S
H392 C363 0.930 . S
H393 C367 0.930 . S
H394 C369 0.930 . S
H395 C371 0.928 . S
H396 C373 0.931 . S
H397 C375 0.931 . S
H398 C377 0.929 . S
H399 C379 0.930 . S
H400 C381 0.929 . S
H401 C382 0.931 . S
C402 O403 1.201 . S
C402 C404 1.493 . S
C402 N419 1.318 . S
O403 C402 1.201 . S
C404 C402 1.493 . S
C404 C405 1.381 . S
C404 N409 1.335 . S
C405 C404 1.381 . S
C405 C406 1.411 . S
C405 H451 0.931 . S
C406 C405 1.411 . S
C406 C407 1.384 . S
C406 H452 0.930 . S
C407 C406 1.384 . S
C407 C408 1.376 . S
C407 H453 0.929 . S
C408 C407 1.376 . S
C408 N409 1.330 . S
C408 C423 1.484 1_565 S
N409 C404 1.335 . S
N409 C408 1.330 . S
N409 Co411 1.859 1_565 S
N410 Co411 1.962 . S
N410 C421 1.318 . S
N410 C445 1.421 . S
Co411 N409 1.859 1_545 S
Co411 N410 1.962 . S
Co411 N412 1.859 . S
Co411 N418 1.958 1_545 S
Co411 N419 1.962 1_545 S
Co411 N420 1.958 . S
N412 Co411 1.859 . S
N412 C416 1.330 . S
N412 C417 1.335 . S
C413 C414 1.411 . S
C413 C417 1.381 . S
C413 H454 0.931 . S
C414 C413 1.411 . S
C414 C415 1.384 . S
C414 H455 0.930 . S
C415 C414 1.384 . S
C415 C416 1.376 . S
C415 H456 0.929 . S
C416 N412 1.330 . S
C416 C415 1.376 . S
C416 C431 1.484 1_545 S
C417 N412 1.335 . S
C417 C413 1.381 . S
C417 C421 1.493 . S
N418 Co411 1.958 1_565 S
N418 C431 1.344 . S
N418 C433 1.425 . S
N419 C402 1.318 . S
N419 Co411 1.962 1_565 S
N419 C439 1.421 . S
N420 Co411 1.958 . S
N420 C423 1.344 . S
N420 C425 1.425 . S
C421 N410 1.318 . S
C421 C417 1.493 . S
C421 O422 1.201 . S
O422 C421 1.201 . S
C423 C408 1.484 1_545 S
C423 N420 1.344 . S
C423 O424 1.268 . S
O424 C423 1.268 . S
C425 N420 1.425 . S
C425 C427 1.392 . S
C425 C428 1.368 . S
C426 C427 1.382 . S
C426 C430 1.386 . S
C427 C425 1.392 . S
C427 C426 1.382 . S
C427 H457 0.928 . S
C428 C425 1.368 . S
C428 C429 1.367 . S
C428 H458 0.930 . S
C429 C428 1.367 . S
C429 C430 1.369 . S
C430 C426 1.386 . S
C430 C429 1.369 . S
C430 H459 0.930 . S
C431 C416 1.484 1_565 S
C431 N418 1.344 . S
C431 O432 1.268 . S
O432 C431 1.268 . S
C433 N418 1.425 . S
C433 C434 1.368 . S
C433 C438 1.392 . S
C434 C433 1.368 . S
C434 C435 1.367 . S
C434 H460 0.930 . S
C435 C434 1.367 . S
C435 C436 1.369 . S
C436 C435 1.369 . S
C436 C437 1.386 . S
C436 H461 0.930 . S
C437 C436 1.386 . S
C437 C438 1.382 . S
C438 C433 1.392 . S
C438 C437 1.382 . S
C438 H462 0.928 . S
C439 N419 1.421 . S
C439 C440 1.371 . S
C439 C444 1.385 . S
C440 C439 1.371 . S
C440 C441 1.367 . S
C440 H463 0.931 . S
C441 C440 1.367 . S
C441 C442 1.401 . S
C442 C441 1.401 . S
C442 C443 1.385 . S
C442 H464 0.930 . S
C443 C442 1.385 . S
C443 C444 1.402 . S
C444 C439 1.385 . S
C444 C443 1.402 . S
C444 H465 0.929 . S
C445 N410 1.421 . S
C445 C448 1.385 . S
C445 C449 1.371 . S
C446 C447 1.385 . S
C446 C450 1.401 . S
C446 H466 0.930 . S
C447 C446 1.385 . S
C447 C448 1.402 . S
C448 C445 1.385 . S
C448 C447 1.402 . S
C448 H467 0.929 . S
C449 C445 1.371 . S
C449 C450 1.367 . S
C449 H468 0.931 . S
C450 C446 1.401 . S
C450 C449 1.367 . S
H451 C405 0.931 . S
H452 C406 0.930 . S
H453 C407 0.929 . S
H454 C413 0.931 . S
H455 C414 0.930 . S
H456 C415 0.929 . S
H457 C427 0.928 . S
H458 C428 0.930 . S
H459 C430 0.930 . S
H460 C434 0.930 . S
H461 C436 0.930 . S
H462 C438 0.928 . S
H463 C440 0.931 . S
H464 C442 0.930 . S
H465 C444 0.929 . S
H466 C446 0.930 . S
H467 C448 0.929 . S
H468 C449 0.931 . S
C469 O470 1.201 . S
C469 C471 1.493 . S
C469 N486 1.318 . S
O470 C469 1.201 . S
C471 C469 1.493 . S
C471 C472 1.381 . S
C471 N476 1.335 1_554 S
C472 C471 1.381 . S
C472 C473 1.411 1_554 S
C472 H518 0.931 . S
C473 C472 1.411 1_556 S
C473 C474 1.384 . S
C473 H519 0.930 . S
C474 C473 1.384 . S
C474 C475 1.376 . S
C474 H520 0.929 . S
C475 C474 1.376 . S
C475 N476 1.330 . S
C475 C490 1.484 . S
N476 C471 1.335 1_556 S
N476 C475 1.330 . S
N476 Co478 1.859 . S
N477 Co478 1.962 1_554 S
N477 C488 1.318 . S
N477 C512 1.421 . S
Co478 N476 1.859 . S
Co478 N477 1.962 1_556 S
Co478 N479 1.859 . S
Co478 N485 1.958 . S
Co478 N486 1.962 1_556 S
Co478 N487 1.958 . S
N479 Co478 1.859 . S
N479 C483 1.330 . S
N479 C484 1.335 1_556 S
C480 C481 1.411 1_554 S
C480 C484 1.381 . S
C480 H521 0.931 . S
C481 C480 1.411 1_556 S
C481 C482 1.384 . S
C481 H522 0.930 . S
C482 C481 1.384 . S
C482 C483 1.376 . S
C482 H523 0.929 . S
C483 N479 1.330 . S
C483 C482 1.376 . S
C483 C498 1.484 . S
C484 N479 1.335 1_554 S
C484 C480 1.381 . S
C484 C488 1.493 . S
N485 Co478 1.958 . S
N485 C498 1.344 . S
N485 C500 1.425 . S
N486 C469 1.318 . S
N486 Co478 1.962 1_554 S
N486 C506 1.421 . S
N487 Co478 1.958 . S
N487 C490 1.344 . S
N487 C492 1.425 . S
C488 N477 1.318 . S
C488 C484 1.493 . S
C488 O489 1.201 . S
O489 C488 1.201 . S
C490 C475 1.484 . S
C490 N487 1.344 . S
C490 O491 1.268 . S
O491 C490 1.268 . S
C492 N487 1.425 . S
C492 C494 1.392 . S
C492 C495 1.368 . S
C493 C494 1.382 . S
C493 C497 1.386 . S
C494 C492 1.392 . S
C494 C493 1.382 . S
C494 H524 0.928 . S
C495 C492 1.368 . S
C495 C496 1.367 . S
C495 H525 0.930 . S
C496 C495 1.367 . S
C496 C497 1.369 . S
C497 C493 1.386 . S
C497 C496 1.369 . S
C497 H526 0.930 . S
C498 C483 1.484 . S
C498 N485 1.344 . S
C498 O499 1.268 . S
O499 C498 1.268 . S
C500 N485 1.425 . S
C500 C501 1.368 . S
C500 C505 1.392 . S
C501 C500 1.368 . S
C501 C502 1.367 . S
C501 H527 0.930 . S
C502 C501 1.367 . S
C502 C503 1.369 . S
C503 C502 1.369 . S
C503 C504 1.386 . S
C503 H528 0.930 . S
C504 C503 1.386 . S
C504 C505 1.382 . S
C505 C500 1.392 . S
C505 C504 1.382 . S
C505 H529 0.928 . S
C506 N486 1.421 . S
C506 C507 1.371 . S
C506 C511 1.385 . S
C507 C506 1.371 . S
C507 C508 1.367 . S
C507 H530 0.931 . S
C508 C507 1.367 . S
C508 C509 1.401 . S
C509 C508 1.401 . S
C509 C510 1.385 . S
C509 H531 0.930 . S
C510 C509 1.385 . S
C510 C511 1.402 . S
C511 C506 1.385 . S
C511 C510 1.402 . S
C511 H532 0.929 . S
C512 N477 1.421 . S
C512 C515 1.385 . S
C512 C516 1.371 . S
C513 C514 1.385 . S
C513 C517 1.401 . S
C513 H533 0.930 . S
C514 C513 1.385 . S
C514 C515 1.402 . S
C515 C512 1.385 . S
C515 C514 1.402 . S
C515 H534 0.929 . S
C516 C512 1.371 . S
C516 C517 1.367 . S
C516 H535 0.931 . S
C517 C513 1.401 . S
C517 C516 1.367 . S
H518 C472 0.931 . S
H519 C473 0.930 . S
H520 C474 0.929 . S
H521 C480 0.931 . S
H522 C481 0.930 . S
H523 C482 0.929 . S
H524 C494 0.928 . S
H525 C495 0.930 . S
H526 C497 0.930 . S
H527 C501 0.930 . S
H528 C503 0.930 . S
H529 C505 0.928 . S
H530 C507 0.931 . S
H531 C509 0.930 . S
H532 C511 0.929 . S
H533 C513 0.930 . S
H534 C515 0.929 . S
H535 C516 0.931 . S
C45 C100 2.301 1_545 S
C41 C161 2.299 1_565 S
C234 C112 2.300 . S
C175 C228 2.300 . S
C246 C301 2.300 . S
C362 C242 2.300 . S
C313 C33 2.299 . S
C376 C27 2.301 . S
C368 C447 2.301 1_565 S
C443 C295 2.299 1_565 S
C502 C380 2.300 . S
C496 C309 2.300 . S
C514 C167 2.300 . S
C94 C510 2.300 . S
C435 C179 2.299 . S
C429 C108 2.301 . S
C35 C24 2.450 1_455 S
C91 C102 2.450 . S
C158 C169 2.450 . S
C225 C236 2.450 1_665 S
C292 C303 2.450 . S
C359 C370 2.450 . S
C437 C426 2.450 . S
C493 C504 2.450 1_565 S
C508 C48 1.566 . S
C39 C517 1.570 . S
C115 C173 1.568 1_455 S
C441 C249 1.566 . S
C240 C450 1.569 . S
C374 C316 1.568 1_645 S
C383 C307 1.568 . S
C182 C106 1.568 1_565 S
