# Generated by pormake.
# Topology fnr, (5)-cn, num edge types: 1
# Building blocks:
#     Node 0, Type 0, BuildingBlock: BEQFEK_clean_sbu_0, # of connection points: 5
#     Node 1, Type 0, BuildingBlock: BEQFEK_clean_sbu_0, # of connection points: 5
#     Node 2, Type 0, BuildingBlock: BEQFEK_clean_sbu_0, # of connection points: 5
#     Node 3, Type 0, BuildingBlock: BEQFEK_clean_sbu_0, # of connection points: 5
#     Node 4, Type 0, BuildingBlock: BEQFEK_clean_sbu_0, # of connection points: 5
#     Node 5, Type 0, BuildingBlock: BEQFEK_clean_sbu_0, # of connection points: 5
#     Node 6, Type 0, BuildingBlock: BEQFEK_clean_sbu_0, # of connection points: 5
#     Node 7, Type 0, BuildingBlock: BEQFEK_clean_sbu_0, # of connection points: 5
#     Node 8, Type 0, BuildingBlock: BEQFEK_clean_sbu_0, # of connection points: 5
#     Node 9, Type 0, BuildingBlock: BEQFEK_clean_sbu_0, # of connection points: 5
#     Node 10, Type 0, BuildingBlock: BEQFEK_clean_sbu_0, # of connection points: 5
#     Node 11, Type 0, BuildingBlock: BEQFEK_clean_sbu_0, # of connection points: 5
#     Edge 12, Type (0, 0), None
#     Edge 13, Type (0, 0), None
#     Edge 14, Type (0, 0), None
#     Edge 15, Type (0, 0), None
#     Edge 16, Type (0, 0), None
#     Edge 17, Type (0, 0), None
#     Edge 18, Type (0, 0), None
#     Edge 19, Type (0, 0), None
#     Edge 20, Type (0, 0), None
#     Edge 21, Type (0, 0), None
#     Edge 22, Type (0, 0), None
#     Edge 23, Type (0, 0), None
#     Edge 24, Type (0, 0), None
#     Edge 25, Type (0, 0), None
#     Edge 26, Type (0, 0), None
#     Edge 27, Type (0, 0), None
#     Edge 28, Type (0, 0), None
#     Edge 29, Type (0, 0), None
#     Edge 30, Type (0, 0), None
#     Edge 31, Type (0, 0), None
#     Edge 32, Type (0, 0), None
#     Edge 33, Type (0, 0), None
#     Edge 34, Type (0, 0), None
#     Edge 35, Type (0, 0), None
#     Edge 36, Type (0, 0), None
#     Edge 37, Type (0, 0), None
#     Edge 38, Type (0, 0), None
#     Edge 39, Type (0, 0), None
#     Edge 40, Type (0, 0), None
#     Edge 41, Type (0, 0), None
# Relax obj value: 0.207
# Max RMSD: 0.112
# Mean RMSD: 0.112
data_MOF--net-fnr--node1-BEQFEK_clean_sbu_0--edge1-none
_symmetry_space_group_name_H-M    P1
_symmetry_Int_Tables_number       1
_symmetry_cell_setting            triclinic
loop_
_symmetry_equiv_pos_as_xyz
'x, y, z'
_cell_length_a     23.390409
_cell_length_b     23.389383
_cell_length_c     22.462972
_cell_angle_alpha  90.000457
_cell_angle_beta   89.999768
_cell_angle_gamma 119.99529
loop_
_atom_site_label
_atom_site_type_symbol
_atom_site_fract_x
_atom_site_fract_y
_atom_site_fract_z
_atom_type_partial_charge
Co0 Co 0.53204 0.33918 0.15882 0.0
Co1 Co 0.40829 0.20257 0.13403 0.0
C2 C 0.54321 0.22602 0.1115 0.0
O3 O 0.56737 0.28693 0.12257 0.0
O4 O 0.48161 0.18586 0.11436 0.0
C5 C 0.64261 0.4487 0.1083 0.0
O6 O 0.61872 0.41196 0.06052 0.0
C7 C 0.32125 0.08889 0.06494 0.0
C8 C 0.22247 0.058 0.1022 0.0
C9 C 0.25518 0.04346 0.05879 0.0
N10 N 0.32805 0.12908 0.11005 0.0
N11 N 0.26898 0.11069 0.13233 0.0
C12 C 0.37676 0.09749 1.02564 0.0
H13 H 0.41083 0.15074 1.01708 0.0
H14 H 0.35826 0.07137 0.98259 0.0
H15 H 0.40502 0.07751 0.04862 0.0
C16 C 0.45256 0.38542 0.09103 0.0
N17 N 0.46233 0.33769 0.11431 0.0
N18 N 0.41416 0.27979 0.09769 0.0
C19 C 0.37413 0.28885 0.06021 0.0
C20 C 0.39601 0.35628 0.0554 0.0
C21 C 0.49383 0.4568 0.10698 0.0
H22 H 0.51315 0.46178 0.15296 0.0
H23 H 0.53668 0.48071 0.07638 0.0
H24 H 0.46478 0.48236 0.10356 0.0
O25 O 0.50532 0.29706 0.23985 0.0
O26 O 0.41017 0.20421 0.22271 0.0
H27 H 0.27663 0.20536 0.05359 0.0
H28 H 0.30571 0.2539 0.98611 0.0
C29 C 0.32021 0.23442 1.02473 0.0
H30 H 0.33726 0.20105 1.00778 0.0
H31 H 0.2604 0.13451 0.16757 0.0
O32 O 0.61099 0.42892 0.15729 0.0
C33 C 0.45627 0.24263 0.25782 0.0
Co34 Co 0.20813 0.5244 0.65882 0.0
Co35 Co 0.22098 0.40063 0.63404 0.0
C36 C 0.33244 0.53556 0.6115 0.0
O37 O 0.29569 0.55973 0.62256 0.0
O38 O 0.311 0.47395 0.61439 0.0
C39 C 0.20915 0.63496 0.60829 0.0
O40 O 0.222 0.61107 0.56052 0.0
C41 C 0.24763 0.31361 0.56493 0.0
C42 C 0.17977 0.21482 0.60219 0.0
C43 C 0.22701 0.24754 0.55877 0.0
N44 N 0.21424 0.32039 0.61005 0.0
N45 N 0.17358 0.26132 0.63233 0.0
C46 C 0.29453 0.36913 0.52564 0.0
H47 H 0.27534 0.4032 0.51709 0.0
H48 H 0.30214 0.35063 0.48258 0.0
H49 H 0.34277 0.39739 0.54862 0.0
C50 C 0.08241 0.44491 0.59104 0.0
N51 N 0.1399 0.45468 0.61431 0.0
N52 N 0.14964 0.40651 0.59769 0.0
C53 C 0.10054 0.36647 0.56022 0.0
C54 C 0.055 0.38836 0.55541 0.0
C55 C 0.05229 0.48618 0.60699 0.0
H56 H 0.06663 0.5055 0.65296 0.0
H57 H 0.07123 0.52904 0.57638 0.0
H58 H 0.99768 0.45713 0.60356 0.0
O59 O 0.22353 0.49767 0.73985 0.0
O60 O 0.22121 0.4025 0.72272 0.0
H61 H 0.08655 0.26897 0.5536 0.0
H62 H 0.06708 0.29805 0.48612 0.0
C63 C 0.10106 0.31255 0.52474 0.0
H64 H 0.15148 0.3296 0.50778 0.0
H65 H 0.14118 0.25273 0.66757 0.0
O66 O 0.19733 0.60335 0.65729 0.0
C67 C 0.2289 0.44861 0.75782 0.0
Co68 Co 0.69904 0.20051 0.15881 0.0
Co69 Co 0.83564 0.21333 0.13404 0.0
C70 C 0.81218 0.32481 0.1115 0.0
O71 O 0.75127 0.28807 0.12254 0.0
O72 O 0.85234 0.30336 0.1144 0.0
C73 C 0.58949 0.2015 0.1083 0.0
O74 O 0.6262 0.21438 0.0605 0.0
C75 C 0.9493 0.23998 0.06493 0.0
C76 C 0.98023 0.1721 0.10218 0.0
C77 C 0.99476 0.21935 0.05877 0.0
N78 N 0.90912 0.20657 0.11004 0.0
N79 N 0.92754 0.16591 0.13232 0.0
C80 C 0.94069 0.28689 1.02564 0.0
H81 H 0.88743 0.2677 1.01709 0.0
H82 H 0.9668 0.29451 0.98258 0.0
H83 H 0.96066 0.33512 0.04863 0.0
C84 C 0.65279 0.07478 0.09103 0.0
N85 N 0.70052 0.13227 0.11431 0.0
N86 N 0.75842 0.14199 0.09769 0.0
C87 C 0.74935 0.09289 0.06021 0.0
C88 C 0.68192 0.04736 0.0554 0.0
C89 C 0.58141 0.04468 0.10699 0.0
H90 H 0.57644 0.05902 0.15297 0.0
H91 H 0.5575 0.06362 0.07639 0.0
H92 H 0.55585 0.99007 0.10357 0.0
O93 O 0.74116 0.21591 0.23984 0.0
O94 O 0.83399 0.21354 0.22272 0.0
H95 H 0.83284 0.07887 0.05359 0.0
H96 H 0.7843 0.05942 0.98611 0.0
C97 C 0.80378 0.0934 1.02473 0.0
H98 H 0.83715 0.14382 1.00778 0.0
H99 H 0.90372 0.1335 0.16755 0.0
O100 O 0.60931 0.18972 0.15729 0.0
C101 C 0.79558 0.22126 0.25782 0.0
Co102 Co 0.51378 0.69138 0.65881 0.0
Co103 Co 0.63754 0.82798 0.63404 0.0
C104 C 0.50261 0.80453 0.6115 0.0
O105 O 0.47845 0.74362 0.62255 0.0
O106 O 0.56422 0.84469 0.61438 0.0
C107 C 0.40323 0.58184 0.6083 0.0
O108 O 0.42704 0.61856 0.5605 0.0
C109 C 0.72457 0.94166 0.56494 0.0
C110 C 0.82335 0.97255 0.6022 0.0
C111 C 0.79065 0.98709 0.55879 0.0
N112 N 0.71778 0.90147 0.61006 0.0
N113 N 0.77685 0.91986 0.63234 0.0
C114 C 0.66906 0.93306 0.52565 0.0
H115 H 0.63499 0.87981 0.51709 0.0
H116 H 0.68756 0.95918 0.48259 0.0
H117 H 0.6408 0.95304 0.54863 0.0
C118 C 0.59326 0.64513 0.59103 0.0
N119 N 0.58349 0.69286 0.61431 0.0
N120 N 0.63166 0.75076 0.59769 0.0
C121 C 0.6717 0.7417 0.56021 0.0
C122 C 0.64981 0.67427 0.5554 0.0
C123 C 0.552 0.57375 0.60698 0.0
H124 H 0.53268 0.56877 0.65295 0.0
H125 H 0.50914 0.54984 0.57638 0.0
H126 H 0.58105 0.54819 0.60355 0.0
O127 O 0.5405 0.73349 0.73985 0.0
O128 O 0.63566 0.82633 0.72271 0.0
H129 H 0.76919 0.82519 0.55359 0.0
H130 H 0.74011 0.77665 0.48611 0.0
C131 C 0.72561 0.79613 0.52473 0.0
H132 H 0.70856 0.82951 0.50778 0.0
H133 H 0.78543 0.89604 0.66757 0.0
O134 O 0.43484 0.60164 0.65729 0.0
C135 C 0.58956 0.78792 0.75782 0.0
Co136 Co 0.83769 0.50615 0.1588 0.0
Co137 Co 0.82484 0.62992 0.13404 0.0
C138 C 0.71339 0.49498 0.11147 0.0
O139 O 0.75014 0.47082 0.12252 0.0
O140 O 0.73481 0.55659 0.11439 0.0
C141 C 0.8367 0.3956 0.10829 0.0
O142 O 0.8238 0.41942 0.06049 0.0
C143 C 0.79819 0.71693 0.06493 0.0
C144 C 0.86605 0.81573 0.10218 0.0
C145 C 0.81881 0.78301 0.05877 0.0
N146 N 0.83158 0.71015 0.11005 0.0
N147 N 0.87224 0.76923 0.13233 0.0
C148 C 0.75128 0.66141 1.02564 0.0
H149 H 0.77048 0.62734 1.01708 0.0
H150 H 0.74367 0.67991 0.98257 0.0
H151 H 0.70305 0.63315 0.04862 0.0
C152 C 0.96342 0.58564 0.09103 0.0
N153 N 0.90592 0.57587 0.11431 0.0
N154 N 0.89618 0.62404 0.09769 0.0
C155 C 0.94528 0.66408 0.06021 0.0
C156 C 0.99082 0.64219 0.0554 0.0
C157 C 0.99353 0.54437 0.10698 0.0
H158 H 0.97919 0.52505 0.15295 0.0
H159 H 0.97459 0.50151 0.07638 0.0
H160 H 0.04814 0.57342 0.10355 0.0
O161 O 0.82227 0.53287 0.23983 0.0
O162 O 0.82462 0.62805 0.22271 0.0
H163 H 0.95928 0.76158 0.05359 0.0
H164 H 0.97874 0.7325 0.98611 0.0
C165 C 0.94476 0.718 1.02473 0.0
H166 H 0.89434 0.70095 1.00778 0.0
H167 H 0.90464 0.77782 0.16756 0.0
O168 O 0.8485 0.42721 0.15728 0.0
C169 C 0.81691 0.58194 0.25781 0.0
Co170 Co 0.34678 0.83004 0.6588 0.0
Co171 Co 0.21018 0.81721 0.63403 0.0
C172 C 0.23366 0.70575 0.61146 0.0
O173 O 0.29456 0.74248 0.62252 0.0
O174 O 0.19348 0.72718 0.61438 0.0
C175 C 0.45634 0.82905 0.60829 0.0
O176 O 0.41963 0.81617 0.56049 0.0
C177 C 0.09652 0.79057 0.56492 0.0
C178 C 0.06559 0.85844 0.60217 0.0
C179 C 0.05107 0.8112 0.55876 0.0
N180 N 0.1367 0.82397 0.61003 0.0
N181 N 0.11828 0.86464 0.63231 0.0
C182 C 0.10513 0.74365 0.52563 0.0
H183 H 0.15839 0.76284 0.51707 0.0
H184 H 0.07902 0.73604 0.48257 0.0
H185 H 0.08516 0.69542 0.54862 0.0
C186 C 0.39303 0.95577 0.59103 0.0
N187 N 0.3453 0.89827 0.61431 0.0
N188 N 0.2874 0.88855 0.59768 0.0
C189 C 0.29647 0.93765 0.5602 0.0
C190 C 0.3639 0.98318 0.5554 0.0
C191 C 0.46441 0.98587 0.60699 0.0
H192 H 0.46938 0.97153 0.65296 0.0
H193 H 0.48833 0.96693 0.57639 0.0
H194 H 0.48997 0.04048 0.60356 0.0
O195 O 0.30465 0.81463 0.73983 0.0
O196 O 0.21183 0.817 0.72271 0.0
H197 H 0.21299 0.95168 0.55358 0.0
H198 H 0.26152 0.97113 0.48611 0.0
C199 C 0.24204 0.93715 0.52473 0.0
H200 H 0.20867 0.88673 0.50777 0.0
H201 H 0.1421 0.89704 0.66754 0.0
O202 O 0.43652 0.84083 0.65729 0.0
C203 C 0.25023 0.80928 0.75781 0.0
Co204 Co 0.69901 0.50615 0.41853 0.0
Co205 Co 0.83561 0.62991 0.44331 0.0
C206 C 0.81216 0.49499 0.46585 0.0
O207 O 0.75126 0.47082 0.45478 0.0
O208 O 0.85232 0.5566 0.46298 0.0
C209 C 0.58948 0.39559 0.46905 0.0
O210 O 0.62622 0.41947 0.51683 0.0
C211 C 0.94936 0.71697 0.51232 0.0
C212 C 0.98017 0.81575 0.4751 0.0
C213 C 0.99482 0.78305 0.51842 0.0
N214 N 0.90909 0.71017 0.46728 0.0
N215 N 0.92743 0.76923 0.44501 0.0
C216 C 0.94081 0.66147 0.55161 0.0
H217 H 0.88757 0.6274 0.56023 0.0
H218 H 0.96697 0.67999 0.59465 0.0
H219 H 0.96076 0.6332 0.5286 0.0
C220 C 0.65276 0.58563 0.4863 0.0
N221 N 0.70049 0.57586 0.46303 0.0
N222 N 0.75839 0.62403 0.47966 0.0
C223 C 0.74932 0.66407 0.51713 0.0
C224 C 0.6819 0.64219 0.52192 0.0
C225 C 0.58139 0.54436 0.47035 0.0
H226 H 0.57641 0.52505 0.42437 0.0
H227 H 0.55747 0.5015 0.50095 0.0
H228 H 0.55582 0.57341 0.47377 0.0
O229 O 0.74111 0.53287 0.33749 0.0
O230 O 0.83396 0.62803 0.35463 0.0
H231 H 0.83279 0.76158 0.52377 0.0
H232 H 0.78427 0.73246 0.59125 0.0
C233 C 0.80375 0.71799 0.55261 0.0
H234 H 0.83715 0.70095 0.56953 0.0
H235 H 0.90354 0.77781 0.40984 0.0
O236 O 0.60928 0.4272 0.42006 0.0
C237 C 0.79554 0.58193 0.31952 0.0
Co238 Co 0.20813 0.69138 0.91853 0.0
Co239 Co 0.22096 0.82798 0.94331 0.0
C240 C 0.33243 0.80453 0.96584 0.0
O241 O 0.2957 0.74362 0.95479 0.0
O242 O 0.31098 0.84469 0.96296 0.0
C243 C 0.20916 0.58184 0.96905 0.0
O244 O 0.222 0.61858 1.01683 0.0
C245 C 0.24766 0.94173 1.01234 0.0
C246 C 0.17971 0.97258 0.97512 0.0
C247 C 0.22706 0.9872 1.01845 0.0
N248 N 0.2142 0.90148 0.96728 0.0
N249 N 0.17349 0.91984 0.94502 0.0
C250 C 0.2946 0.93315 0.05162 0.0
H251 H 0.27541 0.8799 0.06023 0.0
H252 H 0.30224 0.95931 0.09466 0.0
H253 H 0.34281 0.9531 1.02862 0.0
C254 C 0.0824 0.64514 0.98631 0.0
N255 N 0.1399 0.69286 0.96304 0.0
N256 N 0.14963 0.75077 0.97966 0.0
C257 C 0.10052 0.7417 1.01713 0.0
C258 C 0.05498 0.67427 1.02192 0.0
C259 C 0.0523 0.57376 0.97035 0.0
H260 H 0.06664 0.56878 0.92438 0.0
H261 H 0.07124 0.54983 1.00095 0.0
H262 H 0.99769 0.54819 0.97377 0.0
O263 O 0.22351 0.73348 0.8375 0.0
O264 O 0.22117 0.82633 0.85463 0.0
H265 H 0.08648 0.82518 1.02376 0.0
H266 H 0.06708 0.77666 0.09124 0.0
C267 C 0.10103 0.79614 0.05261 0.0
H268 H 0.15146 0.82954 0.06953 0.0
H269 H 0.14102 0.89596 0.90984 0.0
O270 O 0.19735 0.60164 0.92006 0.0
C271 C 0.22886 0.78791 0.81952 0.0
Co272 Co 0.53205 0.20049 0.41854 0.0
Co273 Co 0.40829 0.21335 0.44331 0.0
C274 C 0.54321 0.3248 0.46588 0.0
O275 O 0.56737 0.28806 0.4548 0.0
O276 O 0.4816 0.30337 0.46298 0.0
C277 C 0.64261 0.20152 0.46906 0.0
O278 O 0.61873 0.21438 0.51683 0.0
C279 C 0.32123 0.24005 0.51233 0.0
C280 C 0.22246 0.17209 0.4751 0.0
C281 C 0.25516 0.21943 0.51843 0.0
N282 N 0.32804 0.2066 0.46727 0.0
N283 N 0.26897 0.16588 0.44501 0.0
C284 C 0.37673 0.28699 0.55162 0.0
H285 H 0.4108 0.26781 0.56023 0.0
H286 H 0.35821 0.29463 0.59466 0.0
H287 H 0.40499 0.33521 0.52861 0.0
C288 C 0.45255 0.07476 0.48631 0.0
N289 N 0.46233 0.13227 0.46304 0.0
N290 N 0.41416 0.14201 0.47966 0.0
C291 C 0.37411 0.0929 0.51713 0.0
C292 C 0.39599 0.04734 0.52192 0.0
C293 C 0.49381 0.04464 0.47036 0.0
H294 H 0.51314 0.05898 0.42438 0.0
H295 H 0.53667 0.06358 0.50096 0.0
H296 H 0.46477 0.99003 0.47378 0.0
O297 O 0.50533 0.21588 0.3375 0.0
O298 O 0.41017 0.21358 0.35463 0.0
H299 H 0.27661 0.07888 0.52376 0.0
H300 H 0.30572 0.05948 0.59124 0.0
C301 C 0.3202 0.09343 0.5526 0.0
H302 H 0.33724 0.14386 0.56953 0.0
H303 H 0.2604 0.13341 0.40983 0.0
O304 O 0.61099 0.18969 0.42007 0.0
C305 C 0.45627 0.22125 0.31953 0.0
Co306 Co 0.34681 0.5244 0.91853 0.0
Co307 Co 0.21021 0.40064 0.94332 0.0
C308 C 0.23367 0.53556 0.96589 0.0
O309 O 0.29457 0.55973 0.9548 0.0
O310 O 0.1935 0.47396 0.96299 0.0
C311 C 0.45634 0.63496 0.96905 0.0
O312 O 0.41961 0.61108 1.01683 0.0
C313 C 0.09647 0.31358 1.01233 0.0
C314 C 0.06566 0.2148 0.97511 0.0
C315 C 0.05101 0.2475 1.01844 0.0
N316 N 0.13673 0.32039 0.96729 0.0
N317 N 0.11839 0.26132 0.94503 0.0
C318 C 0.10501 0.36909 0.05162 0.0
H319 H 0.15825 0.40315 0.06024 0.0
H320 H 0.07885 0.35056 0.09466 0.0
H321 H 0.08506 0.39735 1.02861 0.0
C322 C 0.39306 0.44491 0.98631 0.0
N323 N 0.34533 0.45469 0.96304 0.0
N324 N 0.28743 0.40652 0.97966 0.0
C325 C 0.2965 0.36648 1.01714 0.0
C326 C 0.36393 0.38836 1.02192 0.0
C327 C 0.46444 0.48618 0.97035 0.0
H328 H 0.46941 0.5055 0.92437 0.0
H329 H 0.48835 0.52904 1.00095 0.0
H330 H 0.49 0.45713 0.97377 0.0
O331 O 0.3047 0.49768 0.8375 0.0
O332 O 0.21186 0.40252 0.85464 0.0
H333 H 0.21304 0.26897 1.02377 0.0
H334 H 0.26155 0.29809 0.09125 0.0
C335 C 0.24207 0.31256 0.05262 0.0
H336 H 0.20867 0.3296 0.06954 0.0
H337 H 0.14228 0.25274 0.90985 0.0
O338 O 0.43655 0.60335 0.92006 0.0
C339 C 0.25027 0.44861 0.81953 0.0
Co340 Co 0.83769 0.33916 0.41855 0.0
Co341 Co 0.82486 0.20256 0.44331 0.0
C342 C 0.7134 0.22603 0.46588 0.0
O343 O 0.75013 0.28694 0.45483 0.0
O344 O 0.73483 0.18585 0.46296 0.0
C345 C 0.83669 0.44872 0.46906 0.0
O346 O 0.8238 0.41201 0.51686 0.0
C347 C 0.79816 0.08882 0.51234 0.0
C348 C 0.86611 0.05797 0.47512 0.0
C349 C 0.81876 0.04334 0.51845 0.0
N350 N 0.83162 0.12907 0.46729 0.0
N351 N 0.87233 0.1107 0.44503 0.0
C352 C 0.75122 0.09739 0.55163 0.0
H353 H 0.7704 0.15064 0.56023 0.0
H354 H 0.74358 0.07124 0.59467 0.0
H355 H 0.703 0.07744 0.52862 0.0
C356 C 0.96342 0.38541 0.48631 0.0
N357 N 0.90592 0.33768 0.46304 0.0
N358 N 0.89619 0.27978 0.47966 0.0
C359 C 0.9453 0.28884 0.51714 0.0
C360 C 0.99084 0.35627 0.52193 0.0
C361 C 0.99352 0.45679 0.47035 0.0
H362 H 0.97918 0.46177 0.42438 0.0
H363 H 0.97458 0.48071 0.50096 0.0
H364 H 0.04813 0.48235 0.47378 0.0
O365 O 0.82229 0.29704 0.33751 0.0
O366 O 0.82465 0.20422 0.35463 0.0
H367 H 0.95934 0.20537 0.52376 0.0
H368 H 0.97874 0.25389 0.59125 0.0
C369 C 0.94479 0.23441 0.55261 0.0
H370 H 0.89436 0.20101 0.56954 0.0
H371 H 0.9048 0.13459 0.40985 0.0
O372 O 0.84848 0.4289 0.42006 0.0
C373 C 0.81695 0.24263 0.31953 0.0
Co374 Co 0.51378 0.83006 0.91854 0.0
Co375 Co 0.63754 0.8172 0.9433 0.0
C376 C 0.50262 0.70575 0.96588 0.0
O377 O 0.47845 0.74249 0.95482 0.0
O378 O 0.56422 0.72717 0.96297 0.0
C379 C 0.40322 0.82905 0.96906 0.0
O380 O 0.42704 0.81614 1.01685 0.0
C381 C 0.72459 0.7905 1.01232 0.0
C382 C 0.82337 0.85846 0.97509 0.0
C383 C 0.79066 0.81111 1.01842 0.0
N384 N 0.71778 0.82395 0.96726 0.0
N385 N 0.77685 0.86467 0.945 0.0
C386 C 0.66909 0.74356 0.05161 0.0
H387 H 0.63502 0.76274 0.06022 0.0
H388 H 0.68761 0.73592 0.09465 0.0
H389 H 0.64083 0.69534 1.0286 0.0
C390 C 0.59328 0.95579 0.98631 0.0
N391 N 0.58349 0.89828 0.96304 0.0
N392 N 0.63166 0.88854 0.97966 0.0
C393 C 0.67171 0.93764 1.01713 0.0
C394 C 0.64984 0.9832 1.02192 0.0
C395 C 0.55201 0.98591 0.97036 0.0
H396 H 0.53269 0.97157 0.92439 0.0
H397 H 0.50915 0.96697 1.00096 0.0
H398 H 0.58106 0.04052 0.97379 0.0
O399 O 0.54049 0.81465 0.83751 0.0
O400 O 0.63566 0.81698 0.85463 0.0
H401 H 0.76922 0.95167 1.02376 0.0
H402 H 0.7401 0.97107 0.09124 0.0
C403 C 0.72562 0.93712 0.0526 0.0
H404 H 0.70859 0.88669 0.06953 0.0
H405 H 0.78542 0.89714 0.90982 0.0
O406 O 0.43484 0.84086 0.92007 0.0
C407 C 0.58956 0.8093 0.81953 0.0
loop_
_geom_bond_atom_site_label_1
_geom_bond_atom_site_label_2
_geom_bond_distance
_geom_bond_site_symmetry_2
_ccdc_geom_bond_type
Co0 O3 1.970 . S
Co0 N17 1.989 . S
Co0 O25 1.967 . S
Co0 O32 1.920 . S
Co1 O4 1.966 . S
Co1 N10 2.022 . S
Co1 N18 1.993 . S
Co1 O26 1.941 . S
C2 O3 1.258 . S
C2 O4 1.263 . S
O3 Co0 1.970 . S
O3 C2 1.258 . S
O4 Co1 1.966 . S
O4 C2 1.263 . S
C5 O6 1.235 . S
C5 O32 1.289 . S
O6 C5 1.235 . S
C7 C9 1.400 . S
C7 N10 1.351 . S
C7 C12 1.501 . S
C8 C9 1.387 . S
C8 N11 1.341 . S
C9 C7 1.400 . S
C9 C8 1.387 . S
N10 Co1 2.022 . S
N10 C7 1.351 . S
N10 N11 1.365 . S
N11 C8 1.341 . S
N11 N10 1.365 . S
N11 H31 0.862 . S
C12 C7 1.501 . S
C12 H13 0.961 . S
C12 H14 0.961 1_554 S
C12 H15 0.960 . S
H13 C12 0.961 . S
H14 C12 0.961 1_556 S
H15 C12 0.960 . S
C16 N17 1.342 . S
C16 C20 1.401 . S
C16 C21 1.499 . S
N17 Co0 1.989 . S
N17 C16 1.342 . S
N17 N18 1.388 . S
N18 Co1 1.993 . S
N18 N17 1.388 . S
N18 C19 1.346 . S
C19 N18 1.346 . S
C19 C20 1.396 . S
C19 C29 1.510 . S
C20 C16 1.401 . S
C20 C19 1.396 . S
C21 C16 1.499 . S
C21 H22 0.959 . S
C21 H23 0.960 . S
C21 H24 0.961 . S
H22 C21 0.959 . S
H23 C21 0.960 . S
H24 C21 0.961 . S
O25 Co0 1.967 . S
O25 C33 1.258 . S
O26 Co1 1.941 . S
O26 C33 1.266 . S
H27 C29 0.959 . S
H28 C29 0.961 1_556 S
C29 C19 1.510 . S
C29 H27 0.959 . S
C29 H28 0.961 1_554 S
C29 H30 0.960 . S
H30 C29 0.960 . S
H31 N11 0.862 . S
O32 Co0 1.920 . S
O32 C5 1.289 . S
C33 O25 1.258 . S
C33 O26 1.266 . S
Co34 O37 1.970 . S
Co34 N51 1.989 . S
Co34 O59 1.967 . S
Co34 O66 1.920 . S
Co35 O38 1.966 . S
Co35 N44 2.022 . S
Co35 N52 1.993 . S
Co35 O60 1.941 . S
C36 O37 1.258 . S
C36 O38 1.263 . S
O37 Co34 1.970 . S
O37 C36 1.258 . S
O38 Co35 1.966 . S
O38 C36 1.263 . S
C39 O40 1.235 . S
C39 O66 1.289 . S
O40 C39 1.235 . S
C41 C43 1.400 . S
C41 N44 1.351 . S
C41 C46 1.501 . S
C42 C43 1.387 . S
C42 N45 1.341 . S
C43 C41 1.400 . S
C43 C42 1.387 . S
N44 Co35 2.022 . S
N44 C41 1.351 . S
N44 N45 1.365 . S
N45 C42 1.341 . S
N45 N44 1.365 . S
N45 H65 0.862 . S
C46 C41 1.501 . S
C46 H47 0.961 . S
C46 H48 0.961 . S
C46 H49 0.960 . S
H47 C46 0.961 . S
H48 C46 0.961 . S
H49 C46 0.960 . S
C50 N51 1.342 . S
C50 C54 1.401 . S
C50 C55 1.499 . S
N51 Co34 1.989 . S
N51 C50 1.342 . S
N51 N52 1.388 . S
N52 Co35 1.993 . S
N52 N51 1.388 . S
N52 C53 1.346 . S
C53 N52 1.346 . S
C53 C54 1.396 . S
C53 C63 1.510 . S
C54 C50 1.401 . S
C54 C53 1.396 . S
C55 C50 1.499 . S
C55 H56 0.959 . S
C55 H57 0.960 . S
C55 H58 0.961 1_455 S
H56 C55 0.959 . S
H57 C55 0.960 . S
H58 C55 0.961 1_655 S
O59 Co34 1.967 . S
O59 C67 1.258 . S
O60 Co35 1.941 . S
O60 C67 1.266 . S
H61 C63 0.959 . S
H62 C63 0.961 . S
C63 C53 1.510 . S
C63 H61 0.959 . S
C63 H62 0.961 . S
C63 H64 0.960 . S
H64 C63 0.960 . S
H65 N45 0.862 . S
O66 Co34 1.920 . S
O66 C39 1.289 . S
C67 O59 1.258 . S
C67 O60 1.266 . S
Co68 O71 1.970 . S
Co68 N85 1.989 . S
Co68 O93 1.967 . S
Co68 O100 1.920 . S
Co69 O72 1.966 . S
Co69 N78 2.022 . S
Co69 N86 1.993 . S
Co69 O94 1.941 . S
C70 O71 1.258 . S
C70 O72 1.263 . S
O71 Co68 1.970 . S
O71 C70 1.258 . S
O72 Co69 1.966 . S
O72 C70 1.263 . S
C73 O74 1.235 . S
C73 O100 1.289 . S
O74 C73 1.235 . S
C75 C77 1.400 . S
C75 N78 1.351 . S
C75 C80 1.501 . S
C76 C77 1.387 . S
C76 N79 1.341 . S
C77 C75 1.400 . S
C77 C76 1.387 . S
N78 Co69 2.022 . S
N78 C75 1.351 . S
N78 N79 1.365 . S
N79 C76 1.341 . S
N79 N78 1.365 . S
N79 H99 0.862 . S
C80 C75 1.501 . S
C80 H81 0.961 . S
C80 H82 0.961 1_554 S
C80 H83 0.960 . S
H81 C80 0.961 . S
H82 C80 0.961 1_556 S
H83 C80 0.960 . S
C84 N85 1.342 . S
C84 C88 1.401 . S
C84 C89 1.499 . S
N85 Co68 1.989 . S
N85 C84 1.342 . S
N85 N86 1.388 . S
N86 Co69 1.993 . S
N86 N85 1.388 . S
N86 C87 1.346 . S
C87 N86 1.346 . S
C87 C88 1.396 . S
C87 C97 1.510 . S
C88 C84 1.401 . S
C88 C87 1.396 . S
C89 C84 1.499 . S
C89 H90 0.959 . S
C89 H91 0.960 . S
C89 H92 0.961 1_545 S
H90 C89 0.959 . S
H91 C89 0.960 . S
H92 C89 0.961 1_565 S
O93 Co68 1.967 . S
O93 C101 1.258 . S
O94 Co69 1.941 . S
O94 C101 1.266 . S
H95 C97 0.959 . S
H96 C97 0.961 1_556 S
C97 C87 1.510 . S
C97 H95 0.959 . S
C97 H96 0.961 1_554 S
C97 H98 0.960 . S
H98 C97 0.960 . S
H99 N79 0.862 . S
O100 Co68 1.920 . S
O100 C73 1.289 . S
C101 O93 1.258 . S
C101 O94 1.266 . S
Co102 O105 1.970 . S
Co102 N119 1.989 . S
Co102 O127 1.967 . S
Co102 O134 1.920 . S
Co103 O106 1.966 . S
Co103 N112 2.022 . S
Co103 N120 1.993 . S
Co103 O128 1.941 . S
C104 O105 1.258 . S
C104 O106 1.263 . S
O105 Co102 1.970 . S
O105 C104 1.258 . S
O106 Co103 1.966 . S
O106 C104 1.263 . S
C107 O108 1.235 . S
C107 O134 1.289 . S
O108 C107 1.235 . S
C109 C111 1.400 . S
C109 N112 1.351 . S
C109 C114 1.501 . S
C110 C111 1.387 . S
C110 N113 1.341 . S
C111 C109 1.400 . S
C111 C110 1.387 . S
N112 Co103 2.022 . S
N112 C109 1.351 . S
N112 N113 1.365 . S
N113 C110 1.341 . S
N113 N112 1.365 . S
N113 H133 0.862 . S
C114 C109 1.501 . S
C114 H115 0.961 . S
C114 H116 0.961 . S
C114 H117 0.960 . S
H115 C114 0.961 . S
H116 C114 0.961 . S
H117 C114 0.960 . S
C118 N119 1.342 . S
C118 C122 1.401 . S
C118 C123 1.499 . S
N119 Co102 1.989 . S
N119 C118 1.342 . S
N119 N120 1.388 . S
N120 Co103 1.993 . S
N120 N119 1.388 . S
N120 C121 1.346 . S
C121 N120 1.346 . S
C121 C122 1.396 . S
C121 C131 1.510 . S
C122 C118 1.401 . S
C122 C121 1.396 . S
C123 C118 1.499 . S
C123 H124 0.959 . S
C123 H125 0.960 . S
C123 H126 0.961 . S
H124 C123 0.959 . S
H125 C123 0.960 . S
H126 C123 0.961 . S
O127 Co102 1.967 . S
O127 C135 1.258 . S
O128 Co103 1.941 . S
O128 C135 1.266 . S
H129 C131 0.959 . S
H130 C131 0.961 . S
C131 C121 1.510 . S
C131 H129 0.959 . S
C131 H130 0.961 . S
C131 H132 0.960 . S
H132 C131 0.960 . S
H133 N113 0.862 . S
O134 Co102 1.920 . S
O134 C107 1.289 . S
C135 O127 1.258 . S
C135 O128 1.266 . S
Co136 O139 1.970 . S
Co136 N153 1.989 . S
Co136 O161 1.967 . S
Co136 O168 1.920 . S
Co137 O140 1.966 . S
Co137 N146 2.022 . S
Co137 N154 1.993 . S
Co137 O162 1.941 . S
C138 O139 1.258 . S
C138 O140 1.263 . S
O139 Co136 1.970 . S
O139 C138 1.258 . S
O140 Co137 1.966 . S
O140 C138 1.263 . S
C141 O142 1.235 . S
C141 O168 1.289 . S
O142 C141 1.235 . S
C143 C145 1.400 . S
C143 N146 1.351 . S
C143 C148 1.501 . S
C144 C145 1.387 . S
C144 N147 1.341 . S
C145 C143 1.400 . S
C145 C144 1.387 . S
N146 Co137 2.022 . S
N146 C143 1.351 . S
N146 N147 1.365 . S
N147 C144 1.341 . S
N147 N146 1.365 . S
N147 H167 0.862 . S
C148 C143 1.501 . S
C148 H149 0.961 . S
C148 H150 0.961 1_554 S
C148 H151 0.960 . S
H149 C148 0.961 . S
H150 C148 0.961 1_556 S
H151 C148 0.960 . S
C152 N153 1.342 . S
C152 C156 1.401 . S
C152 C157 1.499 . S
N153 Co136 1.989 . S
N153 C152 1.342 . S
N153 N154 1.388 . S
N154 Co137 1.993 . S
N154 N153 1.388 . S
N154 C155 1.346 . S
C155 N154 1.346 . S
C155 C156 1.396 . S
C155 C165 1.510 . S
C156 C152 1.401 . S
C156 C155 1.396 . S
C157 C152 1.499 . S
C157 H158 0.959 . S
C157 H159 0.960 . S
C157 H160 0.961 1_655 S
H158 C157 0.959 . S
H159 C157 0.960 . S
H160 C157 0.961 1_455 S
O161 Co136 1.967 . S
O161 C169 1.258 . S
O162 Co137 1.941 . S
O162 C169 1.266 . S
H163 C165 0.959 . S
H164 C165 0.961 1_556 S
C165 C155 1.510 . S
C165 H163 0.959 . S
C165 H164 0.961 1_554 S
C165 H166 0.960 . S
H166 C165 0.960 . S
H167 N147 0.862 . S
O168 Co136 1.920 . S
O168 C141 1.289 . S
C169 O161 1.258 . S
C169 O162 1.266 . S
Co170 O173 1.970 . S
Co170 N187 1.989 . S
Co170 O195 1.967 . S
Co170 O202 1.920 . S
Co171 O174 1.966 . S
Co171 N180 2.022 . S
Co171 N188 1.993 . S
Co171 O196 1.941 . S
C172 O173 1.258 . S
C172 O174 1.263 . S
O173 Co170 1.970 . S
O173 C172 1.258 . S
O174 Co171 1.966 . S
O174 C172 1.263 . S
C175 O176 1.235 . S
C175 O202 1.289 . S
O176 C175 1.235 . S
C177 C179 1.400 . S
C177 N180 1.351 . S
C177 C182 1.501 . S
C178 C179 1.387 . S
C178 N181 1.341 . S
C179 C177 1.400 . S
C179 C178 1.387 . S
N180 Co171 2.022 . S
N180 C177 1.351 . S
N180 N181 1.365 . S
N181 C178 1.341 . S
N181 N180 1.365 . S
N181 H201 0.862 . S
C182 C177 1.501 . S
C182 H183 0.961 . S
C182 H184 0.961 . S
C182 H185 0.960 . S
H183 C182 0.961 . S
H184 C182 0.961 . S
H185 C182 0.960 . S
C186 N187 1.342 . S
C186 C190 1.401 . S
C186 C191 1.499 . S
N187 Co170 1.989 . S
N187 C186 1.342 . S
N187 N188 1.388 . S
N188 Co171 1.993 . S
N188 N187 1.388 . S
N188 C189 1.346 . S
C189 N188 1.346 . S
C189 C190 1.396 . S
C189 C199 1.510 . S
C190 C186 1.401 . S
C190 C189 1.396 . S
C191 C186 1.499 . S
C191 H192 0.959 . S
C191 H193 0.960 . S
C191 H194 0.961 1_565 S
H192 C191 0.959 . S
H193 C191 0.960 . S
H194 C191 0.961 1_545 S
O195 Co170 1.967 . S
O195 C203 1.258 . S
O196 Co171 1.941 . S
O196 C203 1.266 . S
H197 C199 0.959 . S
H198 C199 0.961 . S
C199 C189 1.510 . S
C199 H197 0.959 . S
C199 H198 0.961 . S
C199 H200 0.960 . S
H200 C199 0.960 . S
H201 N181 0.862 . S
O202 Co170 1.920 . S
O202 C175 1.289 . S
C203 O195 1.258 . S
C203 O196 1.266 . S
Co204 O207 1.970 . S
Co204 N221 1.989 . S
Co204 O229 1.967 . S
Co204 O236 1.920 . S
Co205 O208 1.966 . S
Co205 N214 2.022 . S
Co205 N222 1.993 . S
Co205 O230 1.941 . S
C206 O207 1.258 . S
C206 O208 1.263 . S
O207 Co204 1.970 . S
O207 C206 1.258 . S
O208 Co205 1.966 . S
O208 C206 1.263 . S
C209 O210 1.235 . S
C209 O236 1.289 . S
O210 C209 1.235 . S
C211 C213 1.400 . S
C211 N214 1.351 . S
C211 C216 1.501 . S
C212 C213 1.387 . S
C212 N215 1.341 . S
C213 C211 1.400 . S
C213 C212 1.387 . S
N214 Co205 2.022 . S
N214 C211 1.351 . S
N214 N215 1.365 . S
N215 C212 1.341 . S
N215 N214 1.365 . S
N215 H235 0.862 . S
C216 C211 1.501 . S
C216 H217 0.961 . S
C216 H218 0.961 . S
C216 H219 0.960 . S
H217 C216 0.961 . S
H218 C216 0.961 . S
H219 C216 0.960 . S
C220 N221 1.342 . S
C220 C224 1.401 . S
C220 C225 1.499 . S
N221 Co204 1.989 . S
N221 C220 1.342 . S
N221 N222 1.388 . S
N222 Co205 1.993 . S
N222 N221 1.388 . S
N222 C223 1.346 . S
C223 N222 1.346 . S
C223 C224 1.396 . S
C223 C233 1.510 . S
C224 C220 1.401 . S
C224 C223 1.396 . S
C225 C220 1.499 . S
C225 H226 0.959 . S
C225 H227 0.960 . S
C225 H228 0.961 . S
H226 C225 0.959 . S
H227 C225 0.960 . S
H228 C225 0.961 . S
O229 Co204 1.967 . S
O229 C237 1.258 . S
O230 Co205 1.941 . S
O230 C237 1.266 . S
H231 C233 0.959 . S
H232 C233 0.961 . S
C233 C223 1.510 . S
C233 H231 0.959 . S
C233 H232 0.961 . S
C233 H234 0.960 . S
H234 C233 0.960 . S
H235 N215 0.862 . S
O236 Co204 1.920 . S
O236 C209 1.289 . S
C237 O229 1.258 . S
C237 O230 1.266 . S
Co238 O241 1.970 . S
Co238 N255 1.989 . S
Co238 O263 1.967 . S
Co238 O270 1.920 . S
Co239 O242 1.966 . S
Co239 N248 2.022 . S
Co239 N256 1.993 . S
Co239 O264 1.941 . S
C240 O241 1.258 . S
C240 O242 1.263 . S
O241 Co238 1.970 . S
O241 C240 1.258 . S
O242 Co239 1.966 . S
O242 C240 1.263 . S
C243 O244 1.235 . S
C243 O270 1.289 . S
O244 C243 1.235 . S
C245 C247 1.400 . S
C245 N248 1.351 . S
C245 C250 1.501 . S
C246 C247 1.387 . S
C246 N249 1.341 . S
C247 C245 1.400 . S
C247 C246 1.387 . S
N248 Co239 2.022 . S
N248 C245 1.351 . S
N248 N249 1.365 . S
N249 C246 1.341 . S
N249 N248 1.365 . S
N249 H269 0.862 . S
C250 C245 1.501 . S
C250 H251 0.961 . S
C250 H252 0.961 1_556 S
C250 H253 0.960 . S
H251 C250 0.961 . S
H252 C250 0.961 1_554 S
H253 C250 0.960 . S
C254 N255 1.342 . S
C254 C258 1.401 . S
C254 C259 1.499 . S
N255 Co238 1.989 . S
N255 C254 1.342 . S
N255 N256 1.388 . S
N256 Co239 1.993 . S
N256 N255 1.388 . S
N256 C257 1.346 . S
C257 N256 1.346 . S
C257 C258 1.396 . S
C257 C267 1.510 . S
C258 C254 1.401 . S
C258 C257 1.396 . S
C259 C254 1.499 . S
C259 H260 0.959 . S
C259 H261 0.960 . S
C259 H262 0.961 1_455 S
H260 C259 0.959 . S
H261 C259 0.960 . S
H262 C259 0.961 1_655 S
O263 Co238 1.967 . S
O263 C271 1.258 . S
O264 Co239 1.941 . S
O264 C271 1.266 . S
H265 C267 0.959 . S
H266 C267 0.961 1_554 S
C267 C257 1.510 . S
C267 H265 0.959 . S
C267 H266 0.961 1_556 S
C267 H268 0.960 . S
H268 C267 0.960 . S
H269 N249 0.862 . S
O270 Co238 1.920 . S
O270 C243 1.289 . S
C271 O263 1.258 . S
C271 O264 1.266 . S
Co272 O275 1.970 . S
Co272 N289 1.989 . S
Co272 O297 1.967 . S
Co272 O304 1.920 . S
Co273 O276 1.966 . S
Co273 N282 2.022 . S
Co273 N290 1.993 . S
Co273 O298 1.941 . S
C274 O275 1.258 . S
C274 O276 1.263 . S
O275 Co272 1.970 . S
O275 C274 1.258 . S
O276 Co273 1.966 . S
O276 C274 1.263 . S
C277 O278 1.235 . S
C277 O304 1.289 . S
O278 C277 1.235 . S
C279 C281 1.400 . S
C279 N282 1.351 . S
C279 C284 1.501 . S
C280 C281 1.387 . S
C280 N283 1.341 . S
C281 C279 1.400 . S
C281 C280 1.387 . S
N282 Co273 2.022 . S
N282 C279 1.351 . S
N282 N283 1.365 . S
N283 C280 1.341 . S
N283 N282 1.365 . S
N283 H303 0.862 . S
C284 C279 1.501 . S
C284 H285 0.961 . S
C284 H286 0.961 . S
C284 H287 0.960 . S
H285 C284 0.961 . S
H286 C284 0.961 . S
H287 C284 0.960 . S
C288 N289 1.342 . S
C288 C292 1.401 . S
C288 C293 1.499 . S
N289 Co272 1.989 . S
N289 C288 1.342 . S
N289 N290 1.388 . S
N290 Co273 1.993 . S
N290 N289 1.388 . S
N290 C291 1.346 . S
C291 N290 1.346 . S
C291 C292 1.396 . S
C291 C301 1.510 . S
C292 C288 1.401 . S
C292 C291 1.396 . S
C293 C288 1.499 . S
C293 H294 0.959 . S
C293 H295 0.960 . S
C293 H296 0.961 1_545 S
H294 C293 0.959 . S
H295 C293 0.960 . S
H296 C293 0.961 1_565 S
O297 Co272 1.967 . S
O297 C305 1.258 . S
O298 Co273 1.941 . S
O298 C305 1.266 . S
H299 C301 0.959 . S
H300 C301 0.961 . S
C301 C291 1.510 . S
C301 H299 0.959 . S
C301 H300 0.961 . S
C301 H302 0.960 . S
H302 C301 0.960 . S
H303 N283 0.862 . S
O304 Co272 1.920 . S
O304 C277 1.289 . S
C305 O297 1.258 . S
C305 O298 1.266 . S
Co306 O309 1.970 . S
Co306 N323 1.989 . S
Co306 O331 1.967 . S
Co306 O338 1.920 . S
Co307 O310 1.966 . S
Co307 N316 2.022 . S
Co307 N324 1.993 . S
Co307 O332 1.941 . S
C308 O309 1.258 . S
C308 O310 1.263 . S
O309 Co306 1.970 . S
O309 C308 1.258 . S
O310 Co307 1.966 . S
O310 C308 1.263 . S
C311 O312 1.235 . S
C311 O338 1.289 . S
O312 C311 1.235 . S
C313 C315 1.400 . S
C313 N316 1.351 . S
C313 C318 1.501 . S
C314 C315 1.387 . S
C314 N317 1.341 . S
C315 C313 1.400 . S
C315 C314 1.387 . S
N316 Co307 2.022 . S
N316 C313 1.351 . S
N316 N317 1.365 . S
N317 C314 1.341 . S
N317 N316 1.365 . S
N317 H337 0.862 . S
C318 C313 1.501 . S
C318 H319 0.961 . S
C318 H320 0.961 1_556 S
C318 H321 0.960 . S
H319 C318 0.961 . S
H320 C318 0.961 1_554 S
H321 C318 0.960 . S
C322 N323 1.342 . S
C322 C326 1.401 . S
C322 C327 1.499 . S
N323 Co306 1.989 . S
N323 C322 1.342 . S
N323 N324 1.388 . S
N324 Co307 1.993 . S
N324 N323 1.388 . S
N324 C325 1.346 . S
C325 N324 1.346 . S
C325 C326 1.396 . S
C325 C335 1.510 . S
C326 C322 1.401 . S
C326 C325 1.396 . S
C327 C322 1.499 . S
C327 H328 0.959 . S
C327 H329 0.960 . S
C327 H330 0.961 . S
H328 C327 0.959 . S
H329 C327 0.960 . S
H330 C327 0.961 . S
O331 Co306 1.967 . S
O331 C339 1.258 . S
O332 Co307 1.941 . S
O332 C339 1.266 . S
H333 C335 0.959 . S
H334 C335 0.961 1_554 S
C335 C325 1.510 . S
C335 H333 0.959 . S
C335 H334 0.961 1_556 S
C335 H336 0.960 . S
H336 C335 0.960 . S
H337 N317 0.862 . S
O338 Co306 1.920 . S
O338 C311 1.289 . S
C339 O331 1.258 . S
C339 O332 1.266 . S
Co340 O343 1.970 . S
Co340 N357 1.989 . S
Co340 O365 1.967 . S
Co340 O372 1.920 . S
Co341 O344 1.966 . S
Co341 N350 2.022 . S
Co341 N358 1.993 . S
Co341 O366 1.941 . S
C342 O343 1.258 . S
C342 O344 1.263 . S
O343 Co340 1.970 . S
O343 C342 1.258 . S
O344 Co341 1.966 . S
O344 C342 1.263 . S
C345 O346 1.235 . S
C345 O372 1.289 . S
O346 C345 1.235 . S
C347 C349 1.400 . S
C347 N350 1.351 . S
C347 C352 1.501 . S
C348 C349 1.387 . S
C348 N351 1.341 . S
C349 C347 1.400 . S
C349 C348 1.387 . S
N350 Co341 2.022 . S
N350 C347 1.351 . S
N350 N351 1.365 . S
N351 C348 1.341 . S
N351 N350 1.365 . S
N351 H371 0.862 . S
C352 C347 1.501 . S
C352 H353 0.961 . S
C352 H354 0.961 . S
C352 H355 0.960 . S
H353 C352 0.961 . S
H354 C352 0.961 . S
H355 C352 0.960 . S
C356 N357 1.342 . S
C356 C360 1.401 . S
C356 C361 1.499 . S
N357 Co340 1.989 . S
N357 C356 1.342 . S
N357 N358 1.388 . S
N358 Co341 1.993 . S
N358 N357 1.388 . S
N358 C359 1.346 . S
C359 N358 1.346 . S
C359 C360 1.396 . S
C359 C369 1.510 . S
C360 C356 1.401 . S
C360 C359 1.396 . S
C361 C356 1.499 . S
C361 H362 0.959 . S
C361 H363 0.960 . S
C361 H364 0.961 1_655 S
H362 C361 0.959 . S
H363 C361 0.960 . S
H364 C361 0.961 1_455 S
O365 Co340 1.967 . S
O365 C373 1.258 . S
O366 Co341 1.941 . S
O366 C373 1.266 . S
H367 C369 0.959 . S
H368 C369 0.961 . S
C369 C359 1.510 . S
C369 H367 0.959 . S
C369 H368 0.961 . S
C369 H370 0.960 . S
H370 C369 0.960 . S
H371 N351 0.862 . S
O372 Co340 1.920 . S
O372 C345 1.289 . S
C373 O365 1.258 . S
C373 O366 1.266 . S
Co374 O377 1.970 . S
Co374 N391 1.989 . S
Co374 O399 1.967 . S
Co374 O406 1.920 . S
Co375 O378 1.966 . S
Co375 N384 2.022 . S
Co375 N392 1.993 . S
Co375 O400 1.941 . S
C376 O377 1.258 . S
C376 O378 1.263 . S
O377 Co374 1.970 . S
O377 C376 1.258 . S
O378 Co375 1.966 . S
O378 C376 1.263 . S
C379 O380 1.235 . S
C379 O406 1.289 . S
O380 C379 1.235 . S
C381 C383 1.400 . S
C381 N384 1.351 . S
C381 C386 1.501 . S
C382 C383 1.387 . S
C382 N385 1.341 . S
C383 C381 1.400 . S
C383 C382 1.387 . S
N384 Co375 2.022 . S
N384 C381 1.351 . S
N384 N385 1.365 . S
N385 C382 1.341 . S
N385 N384 1.365 . S
N385 H405 0.862 . S
C386 C381 1.501 . S
C386 H387 0.961 . S
C386 H388 0.961 1_556 S
C386 H389 0.960 . S
H387 C386 0.961 . S
H388 C386 0.961 1_554 S
H389 C386 0.960 . S
C390 N391 1.342 . S
C390 C394 1.401 . S
C390 C395 1.499 . S
N391 Co374 1.989 . S
N391 C390 1.342 . S
N391 N392 1.388 . S
N392 Co375 1.993 . S
N392 N391 1.388 . S
N392 C393 1.346 . S
C393 N392 1.346 . S
C393 C394 1.396 . S
C393 C403 1.510 . S
C394 C390 1.401 . S
C394 C393 1.396 . S
C395 C390 1.499 . S
C395 H396 0.959 . S
C395 H397 0.960 . S
C395 H398 0.961 1_565 S
H396 C395 0.959 . S
H397 C395 0.960 . S
H398 C395 0.961 1_545 S
O399 Co374 1.967 . S
O399 C407 1.258 . S
O400 Co375 1.941 . S
O400 C407 1.266 . S
H401 C403 0.959 . S
H402 C403 0.961 1_554 S
C403 C393 1.510 . S
C403 H401 0.959 . S
C403 H402 0.961 1_556 S
C403 H404 0.960 . S
H404 C403 0.960 . S
H405 N385 0.862 . S
O406 Co374 1.920 . S
O406 C379 1.289 . S
C407 O399 1.258 . S
C407 O400 1.266 . S
C73 C2 2.268 . S
C36 C107 2.268 . S
C70 C141 2.268 . S
C104 C175 2.268 . S
C138 C5 2.268 . S
C39 C172 2.268 . S
C206 C345 2.268 . S
C240 C379 2.268 . S
C209 C274 2.268 . S
C243 C308 2.268 . S
C277 C342 2.268 . S
C311 C376 2.268 . S
C305 C33 1.535 . S
C67 C339 1.535 . S
C373 C101 1.535 . S
C407 C135 1.535 . S
C169 C237 1.535 . S
C271 C203 1.535 . S
C247 C9 1.788 1_566 S
C43 C281 1.788 . S
C77 C315 1.788 1_654 S
C111 C349 1.788 1_565 S
C145 C383 1.788 1_554 S
C213 C179 1.788 1_655 S
C88 C394 2.371 1_544 S
C224 C122 2.371 . S
C156 C258 2.371 1_654 S
C190 C292 2.371 1_565 S
C326 C20 2.371 1_556 S
C54 C360 2.371 1_455 S
