# Generated by pormake.
# Topology zfl, (5)-cn, num edge types: 1
# Building blocks:
#     Node 0, Type 0, BuildingBlock: XOMCOT_clean_sbu_0, # of connection points: 5
#     Node 1, Type 0, BuildingBlock: XOMCOT_clean_sbu_0, # of connection points: 5
#     Node 2, Type 0, BuildingBlock: XOMCOT_clean_sbu_0, # of connection points: 5
#     Node 3, Type 0, BuildingBlock: XOMCOT_clean_sbu_0, # of connection points: 5
#     Node 4, Type 0, BuildingBlock: XOMCOT_clean_sbu_0, # of connection points: 5
#     Node 5, Type 0, BuildingBlock: XOMCOT_clean_sbu_0, # of connection points: 5
#     Node 6, Type 0, BuildingBlock: XOMCOT_clean_sbu_0, # of connection points: 5
#     Node 7, Type 0, BuildingBlock: XOMCOT_clean_sbu_0, # of connection points: 5
#     Node 8, Type 0, BuildingBlock: XOMCOT_clean_sbu_0, # of connection points: 5
#     Node 9, Type 0, BuildingBlock: XOMCOT_clean_sbu_0, # of connection points: 5
#     Node 10, Type 0, BuildingBlock: XOMCOT_clean_sbu_0, # of connection points: 5
#     Node 11, Type 0, BuildingBlock: XOMCOT_clean_sbu_0, # of connection points: 5
#     Node 12, Type 0, BuildingBlock: XOMCOT_clean_sbu_0, # of connection points: 5
#     Node 13, Type 0, BuildingBlock: XOMCOT_clean_sbu_0, # of connection points: 5
#     Node 14, Type 0, BuildingBlock: XOMCOT_clean_sbu_0, # of connection points: 5
#     Node 15, Type 0, BuildingBlock: XOMCOT_clean_sbu_0, # of connection points: 5
#     Edge 16, Type (0, 0), BuildingBlock: FUNLAD_clean_linker_0, # of connection points: 2
#     Edge 17, Type (0, 0), BuildingBlock: FUNLAD_clean_linker_0, # of connection points: 2
#     Edge 18, Type (0, 0), BuildingBlock: FUNLAD_clean_linker_0, # of connection points: 2
#     Edge 19, Type (0, 0), BuildingBlock: FUNLAD_clean_linker_0, # of connection points: 2
#     Edge 20, Type (0, 0), BuildingBlock: FUNLAD_clean_linker_0, # of connection points: 2
#     Edge 21, Type (0, 0), BuildingBlock: FUNLAD_clean_linker_0, # of connection points: 2
#     Edge 22, Type (0, 0), BuildingBlock: FUNLAD_clean_linker_0, # of connection points: 2
#     Edge 23, Type (0, 0), BuildingBlock: FUNLAD_clean_linker_0, # of connection points: 2
#     Edge 24, Type (0, 0), BuildingBlock: FUNLAD_clean_linker_0, # of connection points: 2
#     Edge 25, Type (0, 0), BuildingBlock: FUNLAD_clean_linker_0, # of connection points: 2
#     Edge 26, Type (0, 0), BuildingBlock: FUNLAD_clean_linker_0, # of connection points: 2
#     Edge 27, Type (0, 0), BuildingBlock: FUNLAD_clean_linker_0, # of connection points: 2
#     Edge 28, Type (0, 0), BuildingBlock: FUNLAD_clean_linker_0, # of connection points: 2
#     Edge 29, Type (0, 0), BuildingBlock: FUNLAD_clean_linker_0, # of connection points: 2
#     Edge 30, Type (0, 0), BuildingBlock: FUNLAD_clean_linker_0, # of connection points: 2
#     Edge 31, Type (0, 0), BuildingBlock: FUNLAD_clean_linker_0, # of connection points: 2
#     Edge 32, Type (0, 0), BuildingBlock: FUNLAD_clean_linker_0, # of connection points: 2
#     Edge 33, Type (0, 0), BuildingBlock: FUNLAD_clean_linker_0, # of connection points: 2
#     Edge 34, Type (0, 0), BuildingBlock: FUNLAD_clean_linker_0, # of connection points: 2
#     Edge 35, Type (0, 0), BuildingBlock: FUNLAD_clean_linker_0, # of connection points: 2
#     Edge 36, Type (0, 0), BuildingBlock: FUNLAD_clean_linker_0, # of connection points: 2
#     Edge 37, Type (0, 0), BuildingBlock: FUNLAD_clean_linker_0, # of connection points: 2
#     Edge 38, Type (0, 0), BuildingBlock: FUNLAD_clean_linker_0, # of connection points: 2
#     Edge 39, Type (0, 0), BuildingBlock: FUNLAD_clean_linker_0, # of connection points: 2
#     Edge 40, Type (0, 0), BuildingBlock: FUNLAD_clean_linker_0, # of connection points: 2
#     Edge 41, Type (0, 0), BuildingBlock: FUNLAD_clean_linker_0, # of connection points: 2
#     Edge 42, Type (0, 0), BuildingBlock: FUNLAD_clean_linker_0, # of connection points: 2
#     Edge 43, Type (0, 0), BuildingBlock: FUNLAD_clean_linker_0, # of connection points: 2
#     Edge 44, Type (0, 0), BuildingBlock: FUNLAD_clean_linker_0, # of connection points: 2
#     Edge 45, Type (0, 0), BuildingBlock: FUNLAD_clean_linker_0, # of connection points: 2
#     Edge 46, Type (0, 0), BuildingBlock: FUNLAD_clean_linker_0, # of connection points: 2
#     Edge 47, Type (0, 0), BuildingBlock: FUNLAD_clean_linker_0, # of connection points: 2
#     Edge 48, Type (0, 0), BuildingBlock: FUNLAD_clean_linker_0, # of connection points: 2
#     Edge 49, Type (0, 0), BuildingBlock: FUNLAD_clean_linker_0, # of connection points: 2
#     Edge 50, Type (0, 0), BuildingBlock: FUNLAD_clean_linker_0, # of connection points: 2
#     Edge 51, Type (0, 0), BuildingBlock: FUNLAD_clean_linker_0, # of connection points: 2
#     Edge 52, Type (0, 0), BuildingBlock: FUNLAD_clean_linker_0, # of connection points: 2
#     Edge 53, Type (0, 0), BuildingBlock: FUNLAD_clean_linker_0, # of connection points: 2
#     Edge 54, Type (0, 0), BuildingBlock: FUNLAD_clean_linker_0, # of connection points: 2
#     Edge 55, Type (0, 0), BuildingBlock: FUNLAD_clean_linker_0, # of connection points: 2
# Relax obj value: 0.218
# Max RMSD: 0.258
# Mean RMSD: 0.258
data_MOF--net-zfl--node1-XOMCOT_clean_sbu_0--edge1-FUNLAD_clean_linker_0
_symmetry_space_group_name_H-M    P1
_symmetry_Int_Tables_number       1
_symmetry_cell_setting            triclinic
loop_
_symmetry_equiv_pos_as_xyz
'x, y, z'
_cell_length_a     36.8579
_cell_length_b     36.837289
_cell_length_c     68.727056
_cell_angle_alpha  89.981495
_cell_angle_beta   90.032305
_cell_angle_gamma 90.065011
loop_
_atom_site_label
_atom_site_type_symbol
_atom_site_fract_x
_atom_site_fract_y
_atom_site_fract_z
_atom_type_partial_charge
Co0 Co 0.55439 0.11456 0.104 0.0
C1 C 0.58663 0.04251 0.10852 0.0
C2 C 0.61881 0.0756 0.08964 0.0
C3 C 0.63038 0.04007 0.08801 0.0
N4 N 0.5911 0.077 0.10246 0.0
N5 N 0.60996 0.01946 0.09996 0.0
H6 H 0.56392 0.03329 0.11702 0.0
H7 H 0.62759 0.09812 0.08069 0.0
C8 C 0.62332 0.14753 0.11932 0.0
O9 O 0.631 0.11595 0.12719 0.0
N10 N 0.51638 0.15049 0.10527 0.0
C11 C 0.48124 0.14218 0.10842 0.0
C12 C 0.46183 0.17362 0.11037 0.0
C13 C 0.51793 0.18715 0.10515 0.0
N14 N 0.4848 0.2018 0.10835 0.0
C15 C 0.51945 0.075 0.13465 0.0
C16 C 0.54648 0.1138 0.16575 0.0
C17 C 0.52331 0.08428 0.1695 0.0
C18 C 0.5092 0.06542 0.15348 0.0
C19 C 0.55543 0.12302 0.14655 0.0
N20 N 0.54356 0.10249 0.13123 0.0
H21 H 0.50762 0.06 0.12277 0.0
H22 H 0.57118 0.14723 0.1443 0.0
H23 H 0.47048 0.11499 0.10973 0.0
H24 H 0.54265 0.20271 0.10349 0.0
O25 O 0.52134 0.0814 0.09104 0.0
O26 O 0.5573 0.12027 0.07597 0.0
O27 O 0.59259 0.15237 0.11095 0.0
C28 C 0.53358 0.09422 0.07471 0.0
H29 H 0.65017 0.02982 0.07777 0.0
H30 H 0.43303 0.17569 0.11324 0.0
H31 H 0.55772 0.12986 0.17748 0.0
H32 H 0.48979 0.04362 0.15531 0.0
Co33 Co 0.39121 0.55879 0.60458 0.0
C34 C 0.46275 0.5826 0.61868 0.0
C35 C 0.4342 0.62621 0.60496 0.0
C36 C 0.46955 0.63706 0.60822 0.0
N37 N 0.42996 0.59197 0.6116 0.0
N38 N 0.48731 0.60945 0.61687 0.0
H39 H 0.47009 0.55546 0.6229 0.0
H40 H 0.41389 0.64111 0.59689 0.0
C41 C 0.35579 0.6198 0.62631 0.0
O42 O 0.38296 0.61881 0.63869 0.0
N43 N 0.35324 0.52491 0.59716 0.0
C44 C 0.35785 0.49403 0.58685 0.0
C45 C 0.32523 0.47643 0.58528 0.0
C46 C 0.31766 0.52524 0.60198 0.0
N47 N 0.29998 0.49596 0.59477 0.0
C48 C 0.41987 0.51067 0.63351 0.0
C49 C 0.37136 0.52606 0.66291 0.0
C50 C 0.40158 0.50429 0.66711 0.0
C51 C 0.42515 0.49552 0.65187 0.0
C52 C 0.36713 0.5407 0.64421 0.0
N53 N 0.39292 0.53534 0.63019 0.0
H54 H 0.43838 0.50306 0.6221 0.0
H55 H 0.34312 0.55637 0.64126 0.0
H56 H 0.38321 0.4841 0.5811 0.0
H57 H 0.30496 0.54619 0.61063 0.0
O58 O 0.42706 0.52971 0.59111 0.0
O59 O 0.39588 0.57448 0.57774 0.0
O60 O 0.35365 0.59617 0.61268 0.0
C61 C 0.4206 0.54956 0.57586 0.0
H62 H 0.48182 0.66221 0.60341 0.0
H63 H 0.32068 0.45056 0.57821 0.0
H64 H 0.35163 0.53255 0.67405 0.0
H65 H 0.44777 0.47725 0.65412 0.0
Co66 Co 0.95082 0.39833 0.10396 0.0
C67 C 0.92322 0.47261 0.10017 0.0
C68 C 0.88555 0.43446 0.0883 0.0
C69 C 0.8746 0.46901 0.0831 0.0
N70 N 0.91593 0.43681 0.09926 0.0
N71 N 0.89882 0.49272 0.0904 0.0
H72 H 0.94774 0.4839 0.10608 0.0
H73 H 0.87401 0.40936 0.08297 0.0
C74 C 0.88014 0.36824 0.11844 0.0
O75 O 0.87418 0.39978 0.12676 0.0
N76 N 0.98635 0.36094 0.10808 0.0
C77 C 0.01957 0.36641 0.11571 0.0
C78 C 0.03844 0.33438 0.11511 0.0
C79 C 0.98533 0.32571 0.10284 0.0
N80 N 0.01701 0.30886 0.10697 0.0
C81 C 0.97653 0.44198 0.1355 0.0
C82 C 0.9576 0.39566 0.16541 0.0
C83 C 0.97819 0.42667 0.16961 0.0
C84 C 0.98724 0.45011 0.15441 0.0
C85 C 0.94768 0.38825 0.1461 0.0
N86 N 0.95641 0.41176 0.13137 0.0
H87 H 0.98721 0.45881 0.1241 0.0
H88 H 0.93506 0.36248 0.14302 0.0
H89 H 0.02962 0.3921 0.12108 0.0
H90 H 0.96237 0.31302 0.09575 0.0
O91 O 0.98846 0.42866 0.09305 0.0
O92 O 0.95394 0.39119 0.076 0.0
O93 O 0.91011 0.3626 0.10951 0.0
C94 C 0.97968 0.41546 0.07619 0.0
H95 H 0.8527 0.47586 0.07326 0.0
H96 H 0.06577 0.33017 0.12041 0.0
H97 H 0.95106 0.37629 0.17674 0.0
H98 H 0.00376 0.47399 0.157 0.0
Co99 Co 0.10973 0.94825 0.60479 0.0
C100 C 0.03726 0.91886 0.61263 0.0
C101 C 0.06863 0.88167 0.59568 0.0
C102 C 0.03302 0.8699 0.59591 0.0
N103 N 0.07118 0.91251 0.6062 0.0
N104 N 0.01349 0.8935 0.60661 0.0
H105 H 0.02889 0.94367 0.61952 0.0
H106 H 0.09041 0.8703 0.58709 0.0
C107 C 0.14275 0.88149 0.62232 0.0
O108 O 0.11313 0.87765 0.63276 0.0
N109 N 0.14684 0.98519 0.60324 0.0
C110 C 0.13968 0.02109 0.60392 0.0
C111 C 0.17158 0.03977 0.60594 0.0
C112 C 0.1833 0.98247 0.60482 0.0
N113 N 0.19885 0.01558 0.60652 0.0
C114 C 0.07482 0.98712 0.63566 0.0
C115 C 0.1204 0.9664 0.66549 0.0
C116 C 0.09085 0.98903 0.66982 0.0
C117 C 0.06848 0.99999 0.65441 0.0
C118 C 0.12608 0.95457 0.64637 0.0
N119 N 0.10211 0.96308 0.63186 0.0
H120 H 0.05768 0.99705 0.62412 0.0
H121 H 0.15036 0.93939 0.64339 0.0
H122 H 0.11288 0.03296 0.60405 0.0
H123 H 0.19792 0.9571 0.60587 0.0
O124 O 0.07585 0.98059 0.59187 0.0
O125 O 0.11151 0.94139 0.57687 0.0
O126 O 0.14694 0.90971 0.61165 0.0
C127 C 0.08633 0.96596 0.57562 0.0
H128 H 0.02197 0.84732 0.58775 0.0
H129 H 0.17454 0.06887 0.60753 0.0
H130 H 0.13912 0.95778 0.67671 0.0
H131 H 0.04649 0.01899 0.65667 0.0
Co132 Co 0.54427 0.38913 0.89673 0.0
C133 C 0.57252 0.46354 0.8968 0.0
C134 C 0.6149 0.42607 0.90353 0.0
C135 C 0.62767 0.46092 0.90667 0.0
N136 N 0.58036 0.42777 0.89692 0.0
N137 N 0.60063 0.48414 0.90253 0.0
H138 H 0.54574 0.47456 0.89477 0.0
H139 H 0.6288 0.40137 0.90756 0.0
C140 C 0.60924 0.35429 0.87811 0.0
O141 O 0.61224 0.38279 0.86671 0.0
N142 N 0.50754 0.35195 0.89701 0.0
C143 C 0.47236 0.35773 0.89276 0.0
C144 C 0.45384 0.32562 0.89463 0.0
C145 C 0.51014 0.31637 0.90142 0.0
N146 N 0.47751 0.29964 0.9001 0.0
C147 C 0.51503 0.42966 0.86457 0.0
C148 C 0.52432 0.37675 0.83657 0.0
C149 C 0.50842 0.40985 0.83116 0.0
C150 C 0.50369 0.43637 0.84554 0.0
C151 C 0.53531 0.37118 0.85584 0.0
N152 N 0.53213 0.39809 0.86945 0.0
H153 H 0.50838 0.4494 0.87547 0.0
H154 H 0.54534 0.34471 0.85989 0.0
H155 H 0.46103 0.38355 0.88841 0.0
H156 H 0.53518 0.30316 0.90558 0.0
O157 O 0.51029 0.42187 0.90915 0.0
O158 O 0.54891 0.38597 0.92463 0.0
O159 O 0.58276 0.35198 0.89008 0.0
C160 C 0.52397 0.41085 0.92559 0.0
H161 H 0.65337 0.46837 0.91318 0.0
H162 H 0.42528 0.32156 0.89168 0.0
H163 H 0.52723 0.3549 0.82615 0.0
H164 H 0.49102 0.46214 0.84222 0.0
Co165 Co 0.10575 0.54776 0.40039 0.0
C166 C 0.03244 0.57928 0.39828 0.0
C167 C 0.06681 0.61041 0.417 0.0
C168 C 0.03158 0.62264 0.41909 0.0
N169 N 0.06725 0.58308 0.4039 0.0
N170 N 0.01021 0.60294 0.40719 0.0
H171 H 0.02242 0.55737 0.3895 0.0
H172 H 0.08998 0.61898 0.4255 0.0
C173 C 0.13555 0.61851 0.3858 0.0
O174 O 0.10343 0.62521 0.37832 0.0
N175 N 0.14306 0.51169 0.39739 0.0
C176 C 0.13721 0.47747 0.39124 0.0
C177 C 0.16913 0.45853 0.39235 0.0
C178 C 0.17849 0.51325 0.40222 0.0
N179 N 0.19503 0.48092 0.39931 0.0
C180 C 0.06367 0.51754 0.36936 0.0
C181 C 0.10345 0.54429 0.33856 0.0
C182 C 0.07202 0.52398 0.33471 0.0
C183 C 0.05257 0.50998 0.35047 0.0
C184 C 0.11357 0.55142 0.35788 0.0
N185 N 0.09254 0.53981 0.37307 0.0
H186 H 0.04867 0.50513 0.38106 0.0
H187 H 0.13878 0.56547 0.3604 0.0
H188 H 0.1113 0.46676 0.3866 0.0
H189 H 0.19158 0.53709 0.40819 0.0
O190 O 0.07492 0.51156 0.41228 0.0
O191 O 0.11265 0.54722 0.42842 0.0
O192 O 0.1417 0.58792 0.39406 0.0
C193 C 0.08804 0.52185 0.4289 0.0
H194 H 0.02216 0.64288 0.42932 0.0
H195 H 0.17301 0.43045 0.38822 0.0
H196 H 0.12003 0.55463 0.32679 0.0
H197 H 0.02919 0.49261 0.34825 0.0
Co198 Co 0.93436 0.10688 0.89367 0.0
C199 C 0.92462 0.033 0.87896 0.0
C200 C 0.87654 0.05203 0.89316 0.0
C201 C 0.87292 0.01537 0.88981 0.0
N202 N 0.90885 0.06317 0.88615 0.0
N203 N 0.90344 0.00335 0.88109 0.0
H204 H 0.95273 0.03187 0.87452 0.0
H205 H 0.85822 0.06876 0.90155 0.0
C206 C 0.86418 0.1333 0.87525 0.0
O207 O 0.86326 0.10442 0.86405 0.0
N208 N 0.96064 0.15024 0.90161 0.0
C209 C 0.97375 0.15808 0.91949 0.0
C210 C 0.99232 0.19037 0.91871 0.0
C211 C 0.97104 0.17846 0.89031 0.0
N212 N 0.99076 0.20309 0.90035 0.0
C213 C 0.99034 0.0938 0.86572 0.0
C214 C 0.95553 0.12054 0.83323 0.0
C215 C 0.98798 0.10121 0.83073 0.0
C216 C 0.00611 0.08917 0.84744 0.0
C217 C 0.94093 0.12503 0.85186 0.0
N218 N 0.95702 0.10963 0.8678 0.0
H219 H 0.00483 0.08345 0.87815 0.0
H220 H 0.91701 0.14128 0.85309 0.0
H221 H 0.97046 0.14173 0.9324 0.0
H222 H 0.96499 0.18071 0.87497 0.0
O223 O 0.96996 0.07637 0.90633 0.0
O224 O 0.92048 0.09713 0.92057 0.0
O225 O 0.89133 0.13892 0.88654 0.0
C226 C 0.94945 0.07699 0.92165 0.0
H227 H 0.85071 0.9985 0.89474 0.0
H228 H 0.0057 0.20362 0.93081 0.0
H229 H 0.94077 0.13129 0.8209 0.0
H230 H 0.03211 0.07563 0.84647 0.0
Co231 Co 0.38944 0.94396 0.39634 0.0
C232 C 0.46233 0.91298 0.39337 0.0
C233 C 0.42709 0.8778 0.40937 0.0
C234 C 0.46233 0.86584 0.41168 0.0
N235 N 0.42716 0.90743 0.3978 0.0
N236 N 0.48437 0.88823 0.40161 0.0
H237 H 0.47238 0.93713 0.38641 0.0
H238 H 0.40354 0.86761 0.41701 0.0
C239 C 0.35606 0.87534 0.3809 0.0
O240 O 0.38705 0.86832 0.37225 0.0
N241 N 0.35317 0.9815 0.39536 0.0
C242 C 0.36017 0.01628 0.39056 0.0
C243 C 0.32967 0.03663 0.39378 0.0
C244 C 0.31836 0.981 0.40143 0.0
N245 N 0.30351 0.01454 0.40065 0.0
C246 C 0.42931 0.9768 0.36513 0.0
C247 C 0.38702 0.95251 0.33468 0.0
C248 C 0.41756 0.97402 0.33046 0.0
C249 C 0.43826 0.98673 0.34616 0.0
C250 C 0.37854 0.94384 0.35402 0.0
N251 N 0.40068 0.95433 0.36898 0.0
H252 H 0.44523 0.98821 0.37677 0.0
H253 H 0.35361 0.9295 0.35672 0.0
H254 H 0.38612 0.02647 0.38568 0.0
H255 H 0.30471 0.95712 0.40699 0.0
O256 O 0.42246 0.97777 0.40881 0.0
O257 O 0.38463 0.94136 0.42438 0.0
O258 O 0.35167 0.90556 0.38983 0.0
C259 C 0.41021 0.96565 0.4253 0.0
H260 H 0.4712 0.84408 0.42113 0.0
H261 H 0.32695 0.06556 0.3914 0.0
H262 H 0.36957 0.94244 0.32322 0.0
H263 H 0.46089 0.00504 0.34399 0.0
Co264 Co 0.45571 0.89079 0.89682 0.0
C265 C 0.41863 0.96141 0.89378 0.0
C266 C 0.38549 0.92227 0.90834 0.0
C267 C 0.36946 0.95596 0.9102 0.0
N268 N 0.41639 0.92576 0.89795 0.0
N269 N 0.39049 0.9804 0.90095 0.0
H270 H 0.44211 0.97431 0.88762 0.0
H271 H 0.37673 0.89749 0.91537 0.0
C272 C 0.39173 0.8544 0.87851 0.0
O273 O 0.38616 0.8846 0.86877 0.0
N274 N 0.49548 0.8569 0.89609 0.0
C275 C 0.5301 0.86621 0.89229 0.0
C276 C 0.55093 0.83541 0.892 0.0
C277 C 0.4956 0.82046 0.89818 0.0
N278 N 0.5293 0.80664 0.89563 0.0
C279 C 0.48558 0.93492 0.8664 0.0
C280 C 0.47309 0.88811 0.83579 0.0
C281 C 0.48935 0.92184 0.83201 0.0
C282 C 0.49601 0.94505 0.84771 0.0
C283 C 0.4627 0.87915 0.85484 0.0
N284 N 0.46714 0.90334 0.86978 0.0
H285 H 0.49355 0.95231 0.87825 0.0
H286 H 0.4521 0.85233 0.85752 0.0
H287 H 0.53951 0.89359 0.88969 0.0
H288 H 0.47157 0.80441 0.90102 0.0
O289 O 0.48657 0.92558 0.90999 0.0
O290 O 0.45188 0.88513 0.9248 0.0
O291 O 0.41992 0.8513 0.88929 0.0
C292 C 0.47436 0.91227 0.92622 0.0
H293 H 0.34553 0.9623 0.91867 0.0
H294 H 0.57987 0.83431 0.8894 0.0
H295 H 0.46854 0.86877 0.82418 0.0
H296 H 0.5103 0.97049 0.84568 0.0
Co297 Co 0.60373 0.44395 0.39548 0.0
C298 C 0.53095 0.41065 0.3945 0.0
C299 C 0.56879 0.37686 0.40958 0.0
C300 C 0.53439 0.36273 0.41214 0.0
N301 N 0.56657 0.40694 0.39839 0.0
N302 N 0.51077 0.38415 0.40256 0.0
H303 H 0.51913 0.4341 0.38775 0.0
H304 H 0.59336 0.36735 0.41652 0.0
C305 C 0.63364 0.3765 0.37798 0.0
O306 O 0.60208 0.373 0.36926 0.0
N307 N 0.63958 0.48179 0.39303 0.0
C308 C 0.63134 0.51617 0.38802 0.0
C309 C 0.66272 0.53589 0.3867 0.0
C310 C 0.67604 0.48099 0.39493 0.0
N311 N 0.69077 0.51387 0.39098 0.0
C312 C 0.55971 0.47381 0.36487 0.0
C313 C 0.60563 0.45775 0.33438 0.0
C314 C 0.57334 0.47651 0.33045 0.0
C315 C 0.55034 0.48455 0.34608 0.0
C316 C 0.61389 0.44734 0.35347 0.0
N317 N 0.59021 0.45379 0.36841 0.0
H318 H 0.54296 0.48318 0.37667 0.0
H319 H 0.64015 0.43555 0.35621 0.0
H320 H 0.60425 0.52617 0.38529 0.0
H321 H 0.69141 0.45694 0.39863 0.0
O322 O 0.57187 0.47795 0.4085 0.0
O323 O 0.61135 0.44218 0.42334 0.0
O324 O 0.64031 0.40508 0.38801 0.0
C325 C 0.58583 0.46643 0.42474 0.0
H326 H 0.52714 0.33979 0.42119 0.0
H327 H 0.66479 0.56436 0.38295 0.0
H328 H 0.62508 0.45237 0.32294 0.0
H329 H 0.52541 0.49955 0.34392 0.0
Co330 Co 0.0721 0.6001 0.89395 0.0
C331 C 0.09232 0.52757 0.87934 0.0
C332 C 0.13826 0.55566 0.89102 0.0
C333 C 0.14826 0.52038 0.88703 0.0
N334 N 0.10319 0.56029 0.88597 0.0
N335 N 0.11918 0.50275 0.87975 0.0
H336 H 0.0645 0.52066 0.87632 0.0
H337 H 0.15471 0.57578 0.89836 0.0
C338 C 0.13414 0.63544 0.87279 0.0
O339 O 0.13136 0.61006 0.85944 0.0
N340 N 0.04058 0.63936 0.90233 0.0
C341 C 0.01025 0.63613 0.91323 0.0
C342 C 0.99473 0.66966 0.91542 0.0
C343 C 0.0427 0.67506 0.89784 0.0
N344 N 0.01504 0.69409 0.90574 0.0
C345 C 0.0235 0.5759 0.86428 0.0
C346 C 0.03758 0.62867 0.83682 0.0
C347 C 0.01429 0.59989 0.83196 0.0
C348 C 0.00651 0.57403 0.84625 0.0
C349 C 0.05407 0.62954 0.85523 0.0
N350 N 0.04881 0.60197 0.86831 0.0
H351 H 0.01596 0.55593 0.87496 0.0
H352 H 0.07083 0.65255 0.85879 0.0
H353 H 0.99929 0.61117 0.91901 0.0
H354 H 0.06381 0.68695 0.88896 0.0
O355 O 0.04051 0.56501 0.90611 0.0
O356 O 0.08681 0.59147 0.92082 0.0
O357 O 0.1115 0.63644 0.88692 0.0
C358 C 0.06009 0.56834 0.92169 0.0
H359 H 0.17424 0.50817 0.89033 0.0
H360 H 0.96971 0.67546 0.92305 0.0
H361 H 0.04351 0.64997 0.82643 0.0
H362 H 0.9872 0.5524 0.84358 0.0
Co363 Co 0.89016 0.05862 0.39767 0.0
C364 C 0.96415 0.08753 0.39245 0.0
C365 C 0.93206 0.12263 0.41024 0.0
C366 C 0.9678 0.13385 0.41125 0.0
N367 N 0.92986 0.09334 0.39847 0.0
N368 N 0.98772 0.11165 0.39994 0.0
H369 H 0.97292 0.06398 0.38456 0.0
H370 H 0.9098 0.13318 0.41877 0.0
C371 C 0.86234 0.12699 0.37988 0.0
O372 O 0.89363 0.12937 0.37081 0.0
N373 N 0.85186 0.023 0.39734 0.0
C374 C 0.85733 0.98757 0.39356 0.0
C375 C 0.82509 0.96943 0.39538 0.0
C376 C 0.81617 0.02613 0.40142 0.0
N377 N 0.79922 0.99352 0.4004 0.0
C378 C 0.92867 0.02211 0.36714 0.0
C379 C 0.88467 0.04273 0.33662 0.0
C380 C 0.91504 0.02098 0.33272 0.0
C381 C 0.93688 0.01038 0.34839 0.0
C382 C 0.87748 0.05396 0.35571 0.0
N383 N 0.90057 0.04539 0.37061 0.0
H384 H 0.94508 0.01198 0.37894 0.0
H385 H 0.85267 0.06856 0.3584 0.0
H386 H 0.88318 0.9756 0.38985 0.0
H387 H 0.80311 0.05137 0.40537 0.0
O388 O 0.9212 0.02408 0.41088 0.0
O389 O 0.88534 0.06352 0.42562 0.0
O390 O 0.8551 0.09879 0.3901 0.0
C391 C 0.90952 0.03797 0.42708 0.0
H392 H 0.9786 0.155 0.42053 0.0
H393 H 0.82092 0.94071 0.39293 0.0
H394 H 0.86605 0.05025 0.32511 0.0
H395 H 0.96038 0.99322 0.34626 0.0
Co396 Co 0.44472 0.61578 0.10222 0.0
C397 C 0.41383 0.54319 0.10852 0.0
C398 C 0.37799 0.57623 0.09167 0.0
C399 C 0.36586 0.54073 0.09091 0.0
N400 N 0.40827 0.57768 0.10272 0.0
N401 N 0.38859 0.52018 0.1016 0.0
H402 H 0.43808 0.53384 0.11557 0.0
H403 H 0.3674 0.59873 0.0833 0.0
C404 C 0.37819 0.6493 0.11942 0.0
O405 O 0.37383 0.6195 0.12968 0.0
N406 N 0.48203 0.65239 0.10128 0.0
C407 C 0.51744 0.64558 0.10449 0.0
C408 C 0.53699 0.6765 0.10086 0.0
C409 C 0.48032 0.68756 0.09583 0.0
N410 N 0.51374 0.70278 0.0954 0.0
C411 C 0.48005 0.57802 0.13345 0.0
C412 C 0.46025 0.62404 0.16325 0.0
C413 C 0.47981 0.59247 0.16775 0.0
C414 C 0.49041 0.56983 0.15244 0.0
C415 C 0.45027 0.63111 0.14393 0.0
N416 N 0.45812 0.60694 0.12942 0.0
H417 H 0.49008 0.56089 0.12193 0.0
H418 H 0.43686 0.65641 0.14079 0.0
H419 H 0.52844 0.6196 0.10879 0.0
H420 H 0.45553 0.70134 0.09175 0.0
O421 O 0.4773 0.58205 0.08944 0.0
O422 O 0.43903 0.61868 0.0743 0.0
O423 O 0.40665 0.6534 0.10897 0.0
C424 C 0.46337 0.59327 0.07313 0.0
H425 H 0.34372 0.5305 0.08212 0.0
H426 H 0.56611 0.67954 0.10219 0.0
H427 H 0.45252 0.64302 0.17454 0.0
H428 H 0.50717 0.54619 0.15506 0.0
Co429 Co 0.89224 0.45025 0.61019 0.0
C430 C 0.96347 0.42601 0.62464 0.0
C431 C 0.93422 0.38247 0.61126 0.0
C432 C 0.96944 0.37131 0.61445 0.0
N433 N 0.93045 0.41686 0.61772 0.0
N434 N 0.98771 0.39889 0.62284 0.0
H435 H 0.97124 0.45319 0.62859 0.0
H436 H 0.91374 0.36771 0.60321 0.0
C437 C 0.85505 0.38884 0.63066 0.0
O438 O 0.88067 0.3907 0.64393 0.0
N439 N 0.85488 0.48431 0.60223 0.0
C440 C 0.86078 0.51702 0.59391 0.0
C441 C 0.82822 0.53407 0.59107 0.0
C442 C 0.81851 0.4823 0.60465 0.0
N443 N 0.80169 0.51235 0.59781 0.0
C444 C 0.91835 0.49623 0.64069 0.0
C445 C 0.8639 0.48359 0.66736 0.0
C446 C 0.89346 0.50537 0.67283 0.0
C447 C 0.92041 0.51227 0.65898 0.0
C448 C 0.86287 0.46812 0.64873 0.0
N449 N 0.89123 0.47242 0.63609 0.0
H450 H 0.93903 0.50316 0.63028 0.0
H451 H 0.83905 0.45298 0.64459 0.0
H452 H 0.88693 0.52856 0.59044 0.0
H453 H 0.80462 0.45967 0.61137 0.0
O454 O 0.92894 0.48056 0.59839 0.0
O455 O 0.89994 0.43631 0.58321 0.0
O456 O 0.85425 0.41209 0.61679 0.0
C457 C 0.92436 0.46184 0.58258 0.0
H458 H 0.98132 0.346 0.60965 0.0
H459 H 0.82443 0.56101 0.58511 0.0
H460 H 0.84165 0.47876 0.67732 0.0
H461 H 0.94354 0.52931 0.66233 0.0
Co462 Co 0.05201 0.89661 0.10409 0.0
C463 C 0.08224 0.9707 0.1074 0.0
C464 C 0.11999 0.93432 0.09414 0.0
C465 C 0.13382 0.96909 0.09296 0.0
N466 N 0.08775 0.93532 0.10346 0.0
N467 N 0.10993 0.99176 0.10141 0.0
H468 H 0.05708 0.98176 0.11257 0.0
H469 H 0.13155 0.91033 0.08754 0.0
C470 C 0.11854 0.86456 0.1217 0.0
O471 O 0.12047 0.8941 0.13237 0.0
N472 N 0.01615 0.85864 0.10408 0.0
C473 C 0.98233 0.86142 0.1113 0.0
C474 C 0.96373 0.83009 0.10713 0.0
C475 C 0.01772 0.82587 0.09543 0.0
N476 N 0.98588 0.80778 0.09706 0.0
C477 C 0.02271 0.93511 0.13682 0.0
C478 C 0.0372 0.88346 0.16484 0.0
C479 C 0.02058 0.91607 0.17045 0.0
C480 C 0.01289 0.94176 0.15604 0.0
C481 C 0.0468 0.87801 0.14533 0.0
N482 N 0.04144 0.90461 0.13171 0.0
H483 H 0.01338 0.9539 0.12595 0.0
H484 H 0.05764 0.85194 0.14118 0.0
H485 H 0.9717 0.88491 0.1188 0.0
H486 H 0.04126 0.81607 0.08764 0.0
O487 O 0.01651 0.92917 0.09304 0.0
O488 O 0.0541 0.89506 0.07587 0.0
O489 O 0.09192 0.86016 0.10992 0.0
C490 C 0.02837 0.91929 0.07606 0.0
H491 H 0.15853 0.97723 0.08564 0.0
H492 H 0.93602 0.82421 0.11127 0.0
H493 H 0.04259 0.86228 0.17538 0.0
H494 H 0.99811 0.96635 0.15945 0.0
Co495 Co 0.61084 0.05924 0.60343 0.0
C496 C 0.53906 0.08828 0.61312 0.0
C497 C 0.57077 0.12739 0.59762 0.0
C498 C 0.53527 0.1393 0.59822 0.0
N499 N 0.57304 0.09521 0.60694 0.0
N500 N 0.51551 0.11448 0.608 0.0
H501 H 0.53037 0.06263 0.61897 0.0
H502 H 0.59257 0.13958 0.58935 0.0
C503 C 0.64605 0.12293 0.62293 0.0
O504 O 0.61729 0.1253 0.63415 0.0
N505 N 0.64728 0.02239 0.59951 0.0
C506 C 0.64001 0.98658 0.59828 0.0
C507 C 0.67167 0.96822 0.59484 0.0
C508 C 0.68354 0.02539 0.59714 0.0
N509 N 0.69891 0.99254 0.59414 0.0
C510 C 0.5767 0.01705 0.63325 0.0
C511 C 0.62455 0.03197 0.66308 0.0
C512 C 0.5946 0.00951 0.66684 0.0
C513 C 0.57084 0.0018 0.65152 0.0
C514 C 0.62958 0.04653 0.6444 0.0
N515 N 0.60463 0.04071 0.62997 0.0
H516 H 0.5585 0.00938 0.6217 0.0
H517 H 0.65411 0.06157 0.64162 0.0
H518 H 0.61344 0.97449 0.59985 0.0
H519 H 0.6983 0.0508 0.59738 0.0
O520 O 0.57568 0.02905 0.59007 0.0
O521 O 0.61064 0.06979 0.57574 0.0
O522 O 0.64916 0.09629 0.61106 0.0
C523 C 0.58509 0.04558 0.57417 0.0
H524 H 0.52437 0.16277 0.59077 0.0
H525 H 0.67465 0.93911 0.59336 0.0
H526 H 0.64443 0.03746 0.67431 0.0
H527 H 0.54758 0.98422 0.65361 0.0
C528 C 0.50555 0.03684 0.19425 0.0
C529 C 0.51316 0.07343 0.18977 0.0
C530 C 0.49483 0.02662 0.21297 0.0
C531 C 0.49215 0.05257 0.22784 0.0
C532 C 0.5007 0.08886 0.22367 0.0
C533 C 0.5106 0.09931 0.20481 0.0
C534 C 0.48201 0.04202 0.24795 0.0
C535 C 0.45625 0.01704 0.25175 0.0
C536 C 0.44663 0.00607 0.27187 0.0
C537 C 0.4103 0.99913 0.27667 0.0
C538 C 0.40072 0.98881 0.2956 0.0
C539 C 0.42747 0.98419 0.31005 0.0
H540 H 0.50184 0.00526 0.28268 0.0
C541 C 0.46405 0.99003 0.3049 0.0
C542 C 0.47346 1.00118 0.28613 0.0
H543 H 0.48568 0.98569 0.3153 0.0
H544 H 0.50826 0.01579 0.18337 0.0
H545 H 0.48945 0.99822 0.21589 0.0
H546 H 0.49906 0.10932 0.23496 0.0
H547 H 0.51565 0.12778 0.20204 0.0
H548 H 0.49496 0.05634 0.25991 0.0
H549 H 0.44061 0.00549 0.23985 0.0
H550 H 0.38917 0.00247 0.26586 0.0
H551 H 0.37225 0.98514 0.29891 0.0
C552 C 0.46367 0.43552 0.80715 0.0
C553 C 0.4961 0.41658 0.81083 0.0
C554 C 0.45302 0.44365 0.78811 0.0
C555 C 0.47443 0.4327 0.7722 0.0
C556 C 0.50652 0.41329 0.77589 0.0
C557 C 0.51719 0.40521 0.79494 0.0
C558 C 0.46563 0.4428 0.75171 0.0
C559 C 0.43284 0.45463 0.74564 0.0
C560 C 0.42545 0.4668 0.72533 0.0
C561 C 0.38955 0.46692 0.71839 0.0
C562 C 0.38157 0.479 0.69954 0.0
C563 C 0.40938 0.49138 0.68721 0.0
H564 H 0.48094 0.48172 0.71803 0.0
C565 C 0.4452 0.49181 0.69428 0.0
C566 C 0.45315 0.47983 0.71308 0.0
H567 H 0.46716 0.50211 0.68537 0.0
H568 H 0.4465 0.44431 0.81903 0.0
H569 H 0.42853 0.45931 0.78611 0.0
H570 H 0.52376 0.40473 0.76398 0.0
H571 H 0.54251 0.39094 0.79723 0.0
H572 H 0.4873 0.43975 0.74115 0.0
H573 H 0.4101 0.45469 0.75565 0.0
H574 H 0.36758 0.45745 0.72756 0.0
H575 H 0.35371 0.47823 0.69454 0.0
C576 C 0.97017 0.43456 0.20566 0.0
C577 C 0.99296 0.43351 0.18932 0.0
C578 C 0.98421 0.44392 0.22394 0.0
C579 C 0.02138 0.45201 0.22615 0.0
C580 C 0.04427 0.44931 0.20994 0.0
C581 C 0.03018 0.44053 0.19168 0.0
C582 C 0.03733 0.46295 0.24513 0.0
C583 C 0.01898 0.48267 0.25837 0.0
C584 C 0.0342 0.49471 0.27741 0.0
C585 C 0.00994 0.50683 0.29173 0.0
C586 C 0.02242 0.51729 0.31006 0.0
C587 C 0.0596 0.51606 0.31457 0.0
H588 H 0.09156 0.48682 0.27094 0.0
C589 C 0.08418 0.50534 0.30006 0.0
C590 C 0.07166 0.49479 0.28165 0.0
H591 H 0.11299 0.50411 0.30309 0.0
H592 H 0.94142 0.42905 0.2042 0.0
H593 H 0.96598 0.44462 0.23627 0.0
H594 H 0.07303 0.4549 0.2113 0.0
H595 H 0.04842 0.43937 0.17934 0.0
H596 H 0.0654 0.45561 0.24769 0.0
H597 H 0.99108 0.4902 0.25525 0.0
H598 H 0.98104 0.50764 0.28885 0.0
H599 H 0.00282 0.52607 0.32081 0.0
C600 C 0.04761 0.00729 0.69641 0.0
C601 C 0.08353 0.00183 0.69006 0.0
C602 C 0.04044 0.02012 0.71514 0.0
C603 C 0.06899 0.02744 0.72811 0.0
C604 C 0.10478 0.02118 0.72205 0.0
C605 C 0.11205 0.00892 0.70317 0.0
C606 C 0.06184 0.03988 0.74829 0.0
C607 C 0.0341 0.06215 0.75277 0.0
C608 C 0.02507 0.0729 0.77302 0.0
C609 C 0.00811 0.10639 0.77641 0.0
C610 C 0.99706 0.11618 0.79517 0.0
C611 C 0.00206 0.0923 0.81093 0.0
H612 H 0.04268 0.02273 0.78661 0.0
C613 C 0.01921 0.05876 0.80746 0.0
C614 C 0.0307 0.04924 0.78878 0.0
H615 H 0.02272 0.03916 0.81905 0.0
H616 H 0.02483 1.00116 0.68702 0.0
H617 H 0.01246 0.02346 0.71957 0.0
H618 H 0.12723 0.02633 0.73186 0.0
H619 H 0.14006 0.00553 0.69883 0.0
H620 H 0.08059 0.03133 0.7596 0.0
H621 H 0.01771 0.07359 0.74114 0.0
H622 H 0.00329 0.12503 0.76449 0.0
H623 H 0.98448 0.14243 0.79724 0.0
C624 C 0.51946 0.90854 0.79988 0.0
C625 C 0.50082 0.93275 0.8121 0.0
C626 C 0.53277 0.92009 0.78179 0.0
C627 C 0.52732 0.95611 0.77545 0.0
C628 C 0.50804 0.97993 0.78758 0.0
C629 C 0.49497 0.96845 0.80563 0.0
C630 C 0.54185 0.97064 0.7567 0.0
C631 C 0.55544 0.95012 0.74218 0.0
C632 C 0.56796 0.96559 0.72329 0.0
C633 C 0.56663 0.94365 0.70661 0.0
C634 C 0.57624 0.9576 0.68842 0.0
C635 C 0.58783 0.99382 0.68647 0.0
H636 H 0.58377 0.01883 0.73408 0.0
C637 C 0.59089 0.01534 0.70327 0.0
C638 C 0.58107 1.00141 0.7215 0.0
H639 H 0.59983 0.04329 0.70225 0.0
H640 H 0.52486 0.881 0.80458 0.0
H641 H 0.54799 0.90083 0.77322 0.0
H642 H 0.50327 0.00776 0.78317 0.0
H643 H 0.4804 0.98769 0.81462 0.0
H644 H 0.53975 0.99976 0.75454 0.0
H645 H 0.55521 0.92079 0.74342 0.0
H646 H 0.55724 0.91582 0.70757 0.0
H647 H 0.57426 0.94007 0.67581 0.0
C648 C 0.54769 0.52276 0.30724 0.0
C649 C 0.56422 0.48883 0.31038 0.0
C650 C 0.5379 0.53389 0.28851 0.0
C651 C 0.54481 0.51149 0.27232 0.0
C652 C 0.56162 0.47775 0.27547 0.0
C653 C 0.57128 0.46657 0.29422 0.0
C654 C 0.53366 0.52134 0.25212 0.0
C655 C 0.52366 0.555 0.24644 0.0
C656 C 0.51181 0.56399 0.22625 0.0
C657 C 0.51354 0.60023 0.2199 0.0
C658 C 0.50275 0.60973 0.20103 0.0
C659 C 0.48986 0.58313 0.1881 0.0
H660 H 0.49455 0.50962 0.21793 0.0
C661 C 0.48724 0.54704 0.19462 0.0
C662 C 0.49788 0.53757 0.21346 0.0
H663 H 0.4766 0.52605 0.18516 0.0
H664 H 0.54226 0.54088 0.31929 0.0
H665 H 0.52436 0.55973 0.287 0.0
H666 H 0.56706 0.45973 0.26336 0.0
H667 H 0.58357 0.4401 0.29609 0.0
H668 H 0.53474 0.49978 0.24138 0.0
H669 H 0.52539 0.57741 0.25662 0.0
H670 H 0.52374 0.62125 0.22948 0.0
H671 H 0.50526 0.63775 0.19645 0.0
C672 C 0.99559 0.56144 0.80368 0.0
C673 C 0.99809 0.59602 0.81223 0.0
C674 C 0.97883 0.55674 0.78566 0.0
C675 C 0.96394 0.58654 0.77569 0.0
C676 C 0.96753 0.62134 0.78386 0.0
C677 C 0.9843 0.62607 0.80201 0.0
C678 C 0.94636 0.58207 0.75633 0.0
C679 C 0.92941 0.55107 0.75101 0.0
C680 C 0.91577 0.54274 0.73105 0.0
C681 C 0.89903 0.50893 0.72786 0.0
C682 C 0.88998 0.49754 0.70906 0.0
C683 C 0.89746 0.51976 0.69295 0.0
H684 H 0.93393 0.59218 0.71654 0.0
C685 C 0.91222 0.55447 0.69621 0.0
C686 C 0.92138 0.56584 0.71499 0.0
H687 H 0.91768 0.57256 0.68413 0.0
H688 H 0.00689 0.53785 0.81087 0.0
H689 H 0.97823 0.52973 0.77948 0.0
H690 H 0.95685 0.64486 0.77632 0.0
H691 H 0.98577 0.65306 0.8082 0.0
H692 H 0.94766 0.605 0.74648 0.0
H693 H 0.92629 0.52973 0.7618 0.0
H694 H 0.89422 0.49051 0.73988 0.0
H695 H 0.87886 0.47056 0.7071 0.0
C696 C 0.01413 0.95775 0.19906 0.0
C697 C 0.00951 0.92305 0.19092 0.0
C698 C 0.00152 0.96544 0.21777 0.0
C699 C 0.98364 0.93862 0.22878 0.0
C700 C 0.98019 0.90357 0.22091 0.0
C701 C 0.99288 0.89585 0.20216 0.0
C702 C 0.96918 0.94602 0.24863 0.0
C703 C 0.95953 0.97949 0.25475 0.0
C704 C 0.94607 0.98814 0.27469 0.0
C705 C 0.93136 0.02275 0.27814 0.0
C706 C 0.92041 0.0331 0.29681 0.0
C707 C 0.92402 0.00909 0.31258 0.0
H708 H 0.96067 0.93713 0.28872 0.0
C709 C 0.93796 0.97415 0.30908 0.0
C710 C 0.94905 0.96384 0.29044 0.0
H711 H 0.94066 0.95473 0.32083 0.0
H712 H 0.0276 0.97907 0.19094 0.0
H713 H 0.00624 0.99234 0.22356 0.0
H714 H 0.96697 0.88224 0.22914 0.0
H715 H 0.98873 0.86889 0.19629 0.0
H716 H 0.96516 0.92273 0.25803 0.0
H717 H 0.96089 0.00196 0.24456 0.0
H718 H 0.92885 0.04218 0.26638 0.0
H719 H 0.91017 0.06035 0.29899 0.0
C720 C 0.68551 0.1706 0.12779 0.0
C721 C 0.65069 0.17726 0.12015 0.0
C722 C 0.71213 0.19775 0.12783 0.0
C723 C 0.70468 0.23241 0.12019 0.0
C724 C 0.66962 0.23935 0.113 0.0
C725 C 0.64301 0.21208 0.11285 0.0
C726 C 0.73238 0.26211 0.12004 0.0
C727 C 0.76859 0.25612 0.11975 0.0
C728 C 0.79655 0.28556 0.11948 0.0
C729 C 0.83139 0.27779 0.11227 0.0
C730 C 0.85856 0.30445 0.11196 0.0
C731 C 0.8517 0.33953 0.11912 0.0
H732 H 0.76375 0.32748 0.13306 0.0
C733 C 0.81703 0.34717 0.12665 0.0
C734 C 0.78979 0.32058 0.12684 0.0
H735 H 0.81078 0.37383 0.13237 0.0
H736 H 0.69243 0.1442 0.13365 0.0
H737 H 0.73831 0.19151 0.13411 0.0
H738 H 0.6629 0.26587 0.10722 0.0
H739 H 0.6165 0.21825 0.10691 0.0
H740 H 0.72237 0.28977 0.11918 0.0
H741 H 0.77844 0.22842 0.11877 0.0
H742 H 0.83759 0.251 0.10668 0.0
H743 H 0.88494 0.29751 0.10612 0.0
C744 C 0.16758 0.82284 0.63537 0.0
C745 C 0.17044 0.85216 0.62233 0.0
C746 C 0.19186 0.79367 0.63446 0.0
C747 C 0.21965 0.79305 0.62042 0.0
C748 C 0.22267 0.82247 0.60749 0.0
C749 C 0.19858 0.85182 0.60852 0.0
C750 C 0.24467 0.76145 0.61823 0.0
C751 C 0.25366 0.73909 0.63302 0.0
C752 C 0.27912 0.70792 0.63089 0.0
C753 C 0.30042 0.69759 0.6469 0.0
C754 C 0.32493 0.66875 0.64545 0.0
C755 C 0.32816 0.64893 0.62806 0.0
H756 H 0.26517 0.69433 0.60107 0.0
C757 C 0.306 0.65844 0.61219 0.0
C758 C 0.28187 0.68777 0.61354 0.0
H759 H 0.30781 0.6437 0.59859 0.0
H760 H 0.14611 0.82204 0.64612 0.0
H761 H 0.18797 0.77119 0.64438 0.0
H762 H 0.24364 0.82267 0.59645 0.0
H763 H 0.20146 0.87379 0.59815 0.0
H764 H 0.25734 0.75754 0.60411 0.0
H765 H 0.24387 0.74501 0.64758 0.0
H766 H 0.29857 0.71233 0.66051 0.0
H767 H 0.34144 0.66204 0.65799 0.0
C768 C 0.82912 0.18673 0.88818 0.0
C769 C 0.83499 0.16086 0.87347 0.0
C770 C 0.80061 0.21178 0.88666 0.0
C771 C 0.77767 0.21172 0.87026 0.0
C772 C 0.7842 0.18649 0.85538 0.0
C773 C 0.81221 0.16109 0.85705 0.0
C774 C 0.74741 0.23816 0.86792 0.0
C775 C 0.72783 0.25095 0.883 0.0
C776 C 0.69667 0.27639 0.88069 0.0
C777 C 0.66888 0.27611 0.89466 0.0
C778 C 0.6399 0.30054 0.89345 0.0
C779 C 0.63835 0.32639 0.8784 0.0
H780 H 0.71618 0.30352 0.85464 0.0
C781 C 0.66608 0.32662 0.86435 0.0
C782 C 0.69487 0.30186 0.86543 0.0
H783 H 0.66588 0.34629 0.85263 0.0
H784 H 0.84627 0.18733 0.90098 0.0
H785 H 0.79693 0.23144 0.89819 0.0
H786 H 0.76721 0.18606 0.84251 0.0
H787 H 0.81612 0.14175 0.84538 0.0
H788 H 0.73954 0.2453 0.85317 0.0
H789 H 0.73351 0.24091 0.89755 0.0
H790 H 0.66962 0.25695 0.90662 0.0
H791 H 0.61917 0.29969 0.9046 0.0
C792 C 0.15664 0.68141 0.3772 0.0
C793 C 0.16453 0.64661 0.38453 0.0
C794 C 0.1834 0.70841 0.37646 0.0
C795 C 0.21886 0.70134 0.38307 0.0
C796 C 0.22689 0.66635 0.39006 0.0
C797 C 0.20005 0.63938 0.39091 0.0
C798 C 0.24836 0.7292 0.38225 0.0
C799 C 0.24237 0.76543 0.3823 0.0
C800 C 0.27193 0.79324 0.38161 0.0
C801 C 0.26527 0.82822 0.38899 0.0
C802 C 0.29231 0.85503 0.38862 0.0
C803 C 0.3266 0.84766 0.38059 0.0
H804 H 0.31201 0.75994 0.36685 0.0
C805 C 0.33298 0.81292 0.37278 0.0
C806 C 0.30605 0.78607 0.37327 0.0
H807 H 0.35898 0.80626 0.36639 0.0
H808 H 0.12964 0.68797 0.37207 0.0
H809 H 0.17623 0.73455 0.37041 0.0
H810 H 0.25401 0.65991 0.39506 0.0
H811 H 0.20717 0.61288 0.39657 0.0
H812 H 0.27608 0.71927 0.38254 0.0
H813 H 0.21482 0.7754 0.38385 0.0
H814 H 0.23915 0.83473 0.39531 0.0
H815 H 0.28635 0.88148 0.39472 0.0
C816 C 0.174 0.68366 0.88765 0.0
C817 C 0.1638 0.6627 0.87142 0.0
C818 C 0.20322 0.70802 0.88647 0.0
C819 C 0.22264 0.71221 0.86897 0.0
C820 C 0.21178 0.69193 0.85267 0.0
C821 C 0.18302 0.6672 0.85392 0.0
C822 C 0.25332 0.73839 0.86692 0.0
C823 C 0.27583 0.74741 0.88166 0.0
C824 C 0.30657 0.77361 0.87958 0.0
C825 C 0.33624 0.77122 0.89239 0.0
C826 C 0.36463 0.79655 0.89157 0.0
C827 C 0.36373 0.82529 0.87811 0.0
H828 H 0.28333 0.80541 0.85604 0.0
C829 C 0.33423 0.82747 0.86515 0.0
C830 C 0.30603 0.80198 0.86585 0.0
H831 H 0.33249 0.84936 0.85467 0.0
H832 H 0.15972 0.68091 0.90134 0.0
H833 H 0.21015 0.72389 0.8992 0.0
H834 H 0.22594 0.69487 0.83894 0.0
H835 H 0.17579 0.65168 0.84111 0.0
H836 H 0.25861 0.74897 0.85245 0.0
H837 H 0.27261 0.73407 0.89565 0.0
H838 H 0.33733 0.74983 0.90319 0.0
H839 H 0.38675 0.79415 0.90187 0.0
C840 C 0.80147 0.15567 0.38679 0.0
C841 C 0.83659 0.158 0.37888 0.0
C842 C 0.77828 0.1859 0.3866 0.0
C843 C 0.78984 0.2192 0.37857 0.0
C844 C 0.82491 0.22139 0.37073 0.0
C845 C 0.84785 0.19119 0.37073 0.0
C846 C 0.76686 0.25256 0.37874 0.0
C847 C 0.7303 0.25186 0.37839 0.0
C848 C 0.70723 0.28513 0.37769 0.0
C849 C 0.67252 0.28255 0.36942 0.0
C850 C 0.64932 0.31252 0.36903 0.0
C851 C 0.65993 0.3459 0.37721 0.0
H852 H 0.74446 0.32156 0.39257 0.0
C853 C 0.69476 0.34869 0.38547 0.0
C854 C 0.71823 0.31866 0.38567 0.0
H855 H 0.7037 0.37389 0.39203 0.0
H856 H 0.79201 0.13062 0.39333 0.0
H857 H 0.75176 0.18332 0.3932 0.0
H858 H 0.83467 0.24664 0.36455 0.0
H859 H 0.87478 0.19418 0.36463 0.0
H860 H 0.78075 0.27853 0.37789 0.0
H861 H 0.71651 0.22585 0.37739 0.0
H862 H 0.66319 0.25712 0.36325 0.0
H863 H 0.62265 0.30916 0.36266 0.0
C864 C 0.15516 0.81266 0.10818 0.0
C865 C 0.14752 0.83684 0.12347 0.0
C866 C 0.18427 0.78824 0.10962 0.0
C867 C 0.20589 0.78718 0.12653 0.0
C868 C 0.19742 0.81056 0.14198 0.0
C869 C 0.16892 0.8354 0.14039 0.0
C870 C 0.23671 0.76139 0.12883 0.0
C871 C 0.25822 0.75097 0.11398 0.0
C872 C 0.28978 0.72603 0.11645 0.0
C873 C 0.31912 0.72844 0.10346 0.0
C874 C 0.3485 0.70446 0.10486 0.0
C875 C 0.34891 0.67702 0.11909 0.0
H876 H 0.26805 0.69562 0.14091 0.0
C877 C 0.31965 0.67475 0.13218 0.0
C878 C 0.29048 0.69897 0.13092 0.0
H879 H 0.31893 0.65381 0.14324 0.0
H880 H 0.13914 0.81312 0.09497 0.0
H881 H 0.18951 0.76997 0.09762 0.0
H882 H 0.21335 0.81007 0.15524 0.0
H883 H 0.16361 0.85347 0.15248 0.0
H884 H 0.2433 0.75277 0.14353 0.0
H885 H 0.25375 0.76253 0.09963 0.0
H886 H 0.31925 0.74886 0.09211 0.0
H887 H 0.37042 0.70683 0.09444 0.0
C888 C 0.67087 0.18094 0.63686 0.0
C889 C 0.67354 0.15257 0.62322 0.0
C890 C 0.69467 0.21059 0.63621 0.0
C891 C 0.7219 0.21267 0.62188 0.0
C892 C 0.72477 0.18414 0.60837 0.0
C893 C 0.70108 0.15434 0.6091 0.0
C894 C 0.74648 0.24482 0.62002 0.0
C895 C 0.75504 0.26691 0.63503 0.0
C896 C 0.78004 0.29868 0.63336 0.0
C897 C 0.79978 0.30955 0.64983 0.0
C898 C 0.82367 0.33904 0.64897 0.0
C899 C 0.82792 0.35899 0.63167 0.0
H900 H 0.76829 0.31202 0.60322 0.0
C901 C 0.80735 0.3489 0.61529 0.0
C902 C 0.78378 0.31894 0.61607 0.0
H903 H 0.80996 0.36371 0.60174 0.0
H904 H 0.64984 0.18069 0.64786 0.0
H905 H 0.69079 0.2323 0.64659 0.0
H906 H 0.74529 0.18502 0.5971 0.0
H907 H 0.70382 0.13316 0.59827 0.0
H908 H 0.75914 0.24942 0.60596 0.0
H909 H 0.74517 0.26036 0.64949 0.0
H910 H 0.79717 0.29478 0.6634 0.0
H911 H 0.83891 0.34613 0.6619 0.0
C912 C 0.50359 0.76886 0.09741 0.0
C913 C 0.52373 0.73932 0.09044 0.0
C914 C 0.5166 0.8043 0.095 0.0
C915 C 0.54978 0.81065 0.08539 0.0
C916 C 0.56852 0.78123 0.07732 0.0
C917 C 0.55585 0.74588 0.08 0.0
C918 C 0.56602 0.84743 0.08403 0.0
C919 C 0.56353 0.87152 0.09869 0.0
C920 C 0.58061 0.90814 0.09864 0.0
C921 C 0.58283 0.92696 0.11636 0.0
C922 C 0.59502 0.96279 0.11693 0.0
C923 C 0.6053 0.98072 0.09978 0.0
H924 H 0.59082 0.91243 0.0675 0.0
C925 C 0.60497 0.96149 0.08214 0.0
C926 C 0.59258 0.92556 0.08153 0.0
H927 H 0.61203 0.97495 0.06866 0.0
H928 H 0.47875 0.76439 0.10547 0.0
H929 H 0.50096 0.82659 0.1009 0.0
H930 H 0.59383 0.78545 0.06963 0.0
H931 H 0.57155 0.72348 0.07427 0.0
H932 H 0.58291 0.85323 0.07149 0.0
H933 H 0.54914 0.86358 0.11183 0.0
H934 H 0.57398 0.9143 0.12978 0.0
H935 H 0.59498 0.97714 0.13068 0.0
C936 C 0.74219 0.5118 0.61445 0.0
C937 C 0.76378 0.52147 0.59844 0.0
C938 C 0.70647 0.52449 0.6159 0.0
C939 C 0.69177 0.54691 0.60126 0.0
C940 C 0.71292 0.55499 0.58487 0.0
C941 C 0.74857 0.54266 0.58354 0.0
C942 C 0.6545 0.56206 0.60226 0.0
C943 C 0.63669 0.56844 0.61901 0.0
C944 C 0.59924 0.58324 0.61943 0.0
C945 C 0.57577 0.57236 0.63439 0.0
C946 C 0.53934 0.58272 0.63412 0.0
C947 C 0.52581 0.6047 0.61907 0.0
H948 H 0.60397 0.61723 0.59368 0.0
C949 C 0.54987 0.61782 0.60488 0.0
C950 C 0.58627 0.60718 0.60503 0.0
H951 H 0.54016 0.6347 0.59308 0.0
H952 H 0.7533 0.49549 0.62612 0.0
H953 H 0.69058 0.51664 0.62845 0.0
H954 H 0.70213 0.57169 0.57325 0.0
H955 H 0.76447 0.55004 0.5709 0.0
H956 H 0.64169 0.569 0.58851 0.0
H957 H 0.64904 0.56127 0.63283 0.0
H958 H 0.58521 0.55444 0.64582 0.0
H959 H 0.52133 0.57253 0.64531 0.0
C960 C 0.93791 0.54428 0.08178 0.0
C961 C 0.90313 0.53042 0.08555 0.0
C962 C 0.94338 0.58137 0.07928 0.0
C963 C 0.91399 0.60566 0.08028 0.0
C964 C 0.8789 0.59155 0.08322 0.0
C965 C 0.87346 0.55417 0.0857 0.0
C966 C 0.91946 0.64571 0.08043 0.0
C967 C 0.95021 0.66212 0.07435 0.0
C968 C 0.95868 0.70075 0.07847 0.0
C969 C 0.99513 0.71095 0.08089 0.0
C970 C 0.0042 0.74623 0.08658 0.0
C971 C 0.97695 0.77218 0.08977 0.0
H972 H 0.90323 0.72068 0.07829 0.0
C973 C 0.94057 0.76242 0.08635 0.0
C974 C 0.9315 0.72712 0.08075 0.0
H975 H 0.91897 0.782 0.08805 0.0
H976 H 0.9612 0.52641 0.08122 0.0
H977 H 0.971 0.59061 0.07752 0.0
H978 H 0.85577 0.60959 0.08417 0.0
H979 H 0.84641 0.544 0.08858 0.0
H980 H 0.89818 0.6618 0.0871 0.0
H981 H 0.97155 0.64633 0.06759 0.0
H982 H 0.01663 0.6912 0.07909 0.0
H983 H 0.03244 0.75274 0.0891 0.0
C984 C 0.7629 0.99818 0.60412 0.0
C985 C 0.73651 0.98374 0.59161 0.0
C986 C 0.79854 0.98514 0.60352 0.0
C987 C 0.80831 0.95782 0.59017 0.0
C988 C 0.78235 0.94511 0.57691 0.0
C989 C 0.74666 0.95758 0.5778 0.0
C990 C 0.84521 0.94193 0.58979 0.0
C991 C 0.86415 0.93533 0.60618 0.0
C992 C 0.90143 0.91989 0.60651 0.0
C993 C 0.92251 0.925 0.62329 0.0
C994 C 0.95874 0.91414 0.62373 0.0
C995 C 0.97471 0.89765 0.60744 0.0
H996 H 0.90112 0.89524 0.57768 0.0
C997 C 0.95305 0.89011 0.59111 0.0
C998 C 0.91671 0.90107 0.59064 0.0
H999 H 0.96465 0.8775 0.57833 0.0
H1000 H 0.75553 0.0183 0.6149 0.0
H1001 H 0.8183 0.9962 0.61357 0.0
H1002 H 0.78936 0.92446 0.56634 0.0
H1003 H 0.72668 0.94629 0.56795 0.0
H1004 H 0.85603 0.93438 0.5757 0.0
H1005 H 0.85224 0.94269 0.6201 0.0
H1006 H 0.91136 0.93878 0.63587 0.0
H1007 H 0.97479 0.9199 0.63657 0.0
C1008 C 0.62127 0.54735 0.89882 0.0
C1009 C 0.59811 0.52186 0.90745 0.0
C1010 C 0.61447 0.58455 0.90099 0.0
C1011 C 0.58449 0.59658 0.91198 0.0
C1012 C 0.56304 0.5709 0.92171 0.0
C1013 C 0.56955 0.53389 0.91931 0.0
C1014 C 0.57376 0.63538 0.91305 0.0
C1015 C 0.57885 0.65867 0.89819 0.0
C1016 C 0.56525 0.69665 0.89807 0.0
C1017 C 0.58207 0.72175 0.88567 0.0
C1018 C 0.57002 0.75759 0.88477 0.0
C1019 C 0.54053 0.7692 0.89613 0.0
H1020 H 0.52065 0.68923 0.91846 0.0
C1021 C 0.52297 0.74394 0.9082 0.0
C1022 C 0.5352 0.708 0.9092 0.0
H1023 H 0.50015 0.7521 0.91709 0.0
H1024 H 0.64344 0.53843 0.88967 0.0
H1025 H 0.63231 0.60368 0.89382 0.0
H1026 H 0.54012 0.57941 0.93045 0.0
H1027 H 0.55158 0.5145 0.92621 0.0
H1028 H 0.55905 0.64407 0.9259 0.0
H1029 H 0.59341 0.64963 0.88534 0.0
H1030 H 0.60484 0.71367 0.87669 0.0
H1031 H 0.58368 0.77617 0.87502 0.0
C1032 C 0.7527 0.51159 0.40484 0.0
C1033 C 0.72833 0.52436 0.39071 0.0
C1034 C 0.78834 0.52491 0.40546 0.0
C1035 C 0.80009 0.55099 0.39183 0.0
C1036 C 0.77599 0.5625 0.37731 0.0
C1037 C 0.7405 0.54956 0.37684 0.0
C1038 C 0.83752 0.56582 0.39161 0.0
C1039 C 0.85895 0.56815 0.40744 0.0
C1040 C 0.89697 0.58177 0.40664 0.0
C1041 C 0.91397 0.59357 0.42384 0.0
C1042 C 0.95078 0.60311 0.42388 0.0
C1043 C 0.97128 0.60065 0.40671 0.0
H1044 H 0.90595 0.57109 0.37581 0.0
C1045 C 0.95392 0.59045 0.38938 0.0
C1046 C 0.91736 0.58086 0.38932 0.0
H1047 H 0.96918 0.5883 0.37597 0.0
H1048 H 0.74389 0.49215 0.41567 0.0
H1049 H 0.80656 0.51454 0.41649 0.0
H1050 H 0.78447 0.58206 0.36644 0.0
H1051 H 0.7224 0.55939 0.3656 0.0
H1052 H 0.84692 0.57685 0.37786 0.0
H1053 H 0.84825 0.56037 0.42157 0.0
H1054 H 0.89902 0.59438 0.4374 0.0
H1055 H 0.96364 0.61036 0.4375 0.0
C1056 C 0.90266 0.93963 0.89233 0.0
C1057 C 0.91533 0.96622 0.87932 0.0
C1058 C 0.91748 0.90481 0.89228 0.0
C1059 C 0.94547 0.89573 0.87926 0.0
C1060 C 0.95674 0.92156 0.86552 0.0
C1061 C 0.94203 0.95659 0.86565 0.0
C1062 C 0.96319 0.85954 0.87988 0.0
C1063 C 0.96841 0.84182 0.89682 0.0
C1064 C 0.98344 0.80452 0.89872 0.0
C1065 C 0.97814 0.78639 0.91646 0.0
C1066 C 0.98952 0.75063 0.91888 0.0
C1067 C 0.00688 0.73209 0.90368 0.0
H1068 H 0.00763 0.79964 0.86993 0.0
C1069 C 0.01382 0.75056 0.88618 0.0
C1070 C 0.00212 0.78647 0.88367 0.0
H1071 H 0.02713 0.73685 0.87423 0.0
H1072 H 0.88227 0.94602 0.90311 0.0
H1073 H 0.90715 0.88514 0.9026 0.0
H1074 H 0.9778 0.91502 0.85511 0.0
H1075 H 0.95197 0.97636 0.85528 0.0
H1076 H 0.97238 0.84802 0.86624 0.0
H1077 H 0.95995 0.85492 0.91024 0.0
H1078 H 0.96427 0.79963 0.9284 0.0
H1079 H 0.98437 0.73725 0.93263 0.0
C1080 C 0.54263 0.90833 0.38783 0.0
C1081 C 0.52318 0.89198 0.40307 0.0
C1082 C 0.57894 0.91802 0.39024 0.0
C1083 C 0.59667 0.91157 0.40802 0.0
C1084 C 0.578 0.89306 0.42282 0.0
C1085 C 0.5415 0.8835 0.42043 0.0
C1086 C 0.63472 0.92336 0.41132 0.0
C1087 C 0.64897 0.9531 0.40273 0.0
C1088 C 0.68762 0.96437 0.40452 0.0
C1089 C 0.69771 0.99956 0.39865 0.0
C1090 C 0.73427 0.00993 0.39815 0.0
C1091 C 0.76146 0.9851 0.40332 0.0
H1092 H 0.70871 0.91254 0.41472 0.0
C1093 C 0.75127 0.95044 0.40993 0.0
C1094 C 0.7149 0.94008 0.41044 0.0
H1095 H 0.7716 0.93087 0.41428 0.0
H1096 H 0.5294 0.91448 0.37415 0.0
H1097 H 0.59294 0.93072 0.37818 0.0
H1098 H 0.59128 0.88719 0.43654 0.0
H1099 H 0.52724 0.87112 0.43249 0.0
H1100 H 0.6506 0.90785 0.42167 0.0
H1101 H 0.6315 0.97025 0.39392 0.0
H1102 H 0.67732 0.01882 0.39394 0.0
H1103 H 0.74132 0.03672 0.39288 0.0
C1104 C 0.43403 0.2509 0.90811 0.0
C1105 C 0.4692 0.26173 0.90269 0.0
C1106 C 0.42447 0.21425 0.90854 0.0
C1107 C 0.45005 0.18744 0.90369 0.0
C1108 C 0.48556 0.19822 0.89894 0.0
C1109 C 0.49512 0.23496 0.89852 0.0
C1110 C 0.44018 0.14845 0.9019 0.0
C1111 C 0.41009 0.1333 0.90961 0.0
C1112 C 0.40092 0.09454 0.9064 0.0
C1113 C 0.3838 0.07454 0.92118 0.0
C1114 C 0.37813 0.03715 0.91903 0.0
C1115 C 0.38921 0.01938 0.90195 0.0
H1116 H 0.42118 0.0921 0.87675 0.0
C1117 C 0.4037 0.04002 0.88662 0.0
C1118 C 0.40945 0.07717 0.88878 0.0
H1119 H 0.41175 0.02705 0.87316 0.0
H1120 H 0.41357 0.27088 0.91166 0.0
H1121 H 0.39667 0.20739 0.91196 0.0
H1122 H 0.50581 0.17818 0.89506 0.0
H1123 H 0.52233 0.24241 0.89414 0.0
H1124 H 0.45895 0.13131 0.89389 0.0
H1125 H 0.39272 0.1488 0.91925 0.0
H1126 H 0.37639 0.0875 0.93476 0.0
H1127 H 0.36704 0.02188 0.9311 0.0
C1128 C 0.24207 0.43562 0.40706 0.0
C1129 C 0.23247 0.47155 0.40249 0.0
C1130 C 0.27842 0.42528 0.40812 0.0
C1131 C 0.30609 0.4508 0.40471 0.0
C1132 C 0.29649 0.487 0.4008 0.0
C1133 C 0.26004 0.49736 0.39982 0.0
C1134 C 0.34486 0.44012 0.40341 0.0
C1135 C 0.35874 0.40945 0.41112 0.0
C1136 C 0.39717 0.39906 0.40808 0.0
C1137 C 0.41655 0.38165 0.423 0.0
C1138 C 0.45369 0.37465 0.42088 0.0
C1139 C 0.47179 0.38461 0.40368 0.0
H1140 H 0.40024 0.41854 0.3783 0.0
C1141 C 0.45165 0.39941 0.38826 0.0
C1142 C 0.41478 0.40659 0.39041 0.0
H1143 H 0.46477 0.40655 0.37469 0.0
H1144 H 0.22139 0.41522 0.40945 0.0
H1145 H 0.28447 0.397 0.41081 0.0
H1146 H 0.31726 0.50719 0.39801 0.0
H1147 H 0.25346 0.52517 0.39614 0.0
H1148 H 0.36285 0.4586 0.39571 0.0
H1149 H 0.34234 0.39237 0.42052 0.0
H1150 H 0.40334 0.375 0.43662 0.0
H1151 H 0.46854 0.36329 0.43302 0.0
C1152 C 0.03914 0.24936 0.90192 0.0
C1153 C 0.00741 0.23587 0.89316 0.0
C1154 C 0.05436 0.28216 0.89584 0.0
C1155 C 0.03826 0.3023 0.88072 0.0
C1156 C 0.00685 0.28852 0.87176 0.0
C1157 C 0.99171 0.25552 0.8778 0.0
C1158 C 0.05147 0.33911 0.87525 0.0
C1159 C 0.0856 0.35088 0.87862 0.0
C1160 C 0.09687 0.38949 0.87652 0.0
C1161 C 0.12573 0.40234 0.88797 0.0
C1162 C 0.1344 0.43929 0.88834 0.0
C1163 C 0.11448 0.46419 0.87712 0.0
H1164 H 0.0573 0.40506 0.85456 0.0
C1165 C 0.08734 0.45095 0.8646 0.0
C1166 C 0.07864 0.41402 0.86424 0.0
H1167 H 0.07218 0.46935 0.85539 0.0
H1168 H 0.05211 0.23468 0.91365 0.0
H1169 H 0.07789 0.29211 0.90358 0.0
H1170 H 0.99362 0.30363 0.86024 0.0
H1171 H 0.96709 0.246 0.87088 0.0
H1172 H 0.03154 0.35748 0.8691 0.0
H1173 H 0.10551 0.33232 0.88464 0.0
H1174 H 0.14054 0.384 0.8974 0.0
H1175 H 0.1554 0.44849 0.89818 0.0
C1176 C 0.2373 0.00477 0.40088 0.0
C1177 C 0.2676 0.02567 0.4061 0.0
C1178 C 0.20227 0.01837 0.40375 0.0
C1179 C 0.19711 0.05293 0.41209 0.0
C1180 C 0.2274 0.07261 0.41848 0.0
C1181 C 0.26233 0.0593 0.41531 0.0
C1182 C 0.16065 0.06961 0.41375 0.0
C1183 C 0.13542 0.06543 0.39976 0.0
C1184 C 0.09897 0.08268 0.39999 0.0
C1185 C 0.07895 0.08297 0.38262 0.0
C1186 C 0.04314 0.09507 0.38238 0.0
C1187 C 0.02643 0.10716 0.39952 0.0
H1188 H 0.09695 0.09636 0.43081 0.0
C1189 C 0.04687 0.10886 0.41674 0.0
C1190 C 0.08281 0.09657 0.41703 0.0
H1191 H 0.03434 0.11742 0.43022 0.0
H1192 H 0.24079 0.97875 0.39381 0.0
H1193 H 0.17931 0.00209 0.39919 0.0
H1194 H 0.22411 0.09903 0.42517 0.0
H1195 H 0.28535 0.07563 0.41972 0.0
H1196 H 0.15598 0.08811 0.42576 0.0
H1197 H 0.14224 0.04937 0.38701 0.0
H1198 H 0.09064 0.07264 0.36926 0.0
H1199 H 0.02785 0.09351 0.36894 0.0
C1200 C 0.48746 0.26556 0.09723 0.0
C1201 C 0.47503 0.23932 0.11045 0.0
C1202 C 0.47428 0.30121 0.09816 0.0
C1203 C 0.44884 0.3111 0.11251 0.0
C1204 C 0.43785 0.28512 0.1262 0.0
C1205 C 0.45048 0.24955 0.12506 0.0
C1206 C 0.43391 0.34835 0.1141 0.0
C1207 C 0.42845 0.37024 0.09867 0.0
C1208 C 0.41383 0.40776 0.10046 0.0
C1209 C 0.39802 0.42444 0.08412 0.0
C1210 C 0.38714 0.46084 0.08482 0.0
C1211 C 0.39229 0.48131 0.10183 0.0
H1212 H 0.43032 0.41673 0.13052 0.0
C1213 C 0.40669 0.46424 0.11838 0.0
C1214 C 0.4175 0.428 0.11772 0.0
H1215 H 0.4111 0.47955 0.13162 0.0
H1216 H 0.50637 0.25815 0.08586 0.0
H1217 H 0.4841 0.32091 0.08772 0.0
H1218 H 0.41874 0.29215 0.13757 0.0
H1219 H 0.44085 0.22982 0.13554 0.0
H1220 H 0.42505 0.35693 0.12844 0.0
H1221 H 0.43403 0.3601 0.08414 0.0
H1222 H 0.395 0.40957 0.07062 0.0
H1223 H 0.3767 0.4735 0.07175 0.0
C1224 C 0.2438 0.4936 0.61448 0.0
C1225 C 0.26254 0.48579 0.5972 0.0
C1226 C 0.20845 0.48059 0.61733 0.0
C1227 C 0.19123 0.45963 0.60285 0.0
C1228 C 0.20959 0.45318 0.58532 0.0
C1229 C 0.24483 0.4659 0.58256 0.0
C1230 C 0.15404 0.44454 0.60504 0.0
C1231 C 0.13763 0.43851 0.62226 0.0
C1232 C 0.10009 0.42403 0.62354 0.0
C1233 C 0.07746 0.43596 0.63863 0.0
C1234 C 0.04088 0.426 0.63901 0.0
C1235 C 0.02638 0.4034 0.62448 0.0
H1236 H 0.1032 0.38865 0.59829 0.0
C1237 C 0.04964 0.38925 0.6102 0.0
C1238 C 0.08616 0.39946 0.60972 0.0
H1239 H 0.03922 0.37187 0.59879 0.0
H1240 H 0.25682 0.50887 0.62599 0.0
H1241 H 0.19483 0.48719 0.6308 0.0
H1242 H 0.19686 0.43763 0.5738 0.0
H1243 H 0.25837 0.46001 0.56896 0.0
H1244 H 0.13979 0.4376 0.59171 0.0
H1245 H 0.15107 0.44583 0.63575 0.0
H1246 H 0.08767 0.4544 0.64964 0.0
H1247 H 0.02353 0.43698 0.65026 0.0
C1248 C 0.06296 0.26158 0.10095 0.0
C1249 C 0.02651 0.27146 0.10376 0.0
C1250 C 0.07292 0.22515 0.09968 0.0
C1251 C 0.04651 0.1977 0.10106 0.0
C1252 C 0.00993 0.20763 0.10327 0.0
C1253 C 0.99997 0.24415 0.1045 0.0
C1254 C 0.05625 0.15866 0.10192 0.0
C1255 C 0.08805 0.14488 0.09567 0.0
C1256 C 0.09708 0.10598 0.09818 0.0
C1257 C 0.11749 0.08785 0.08395 0.0
C1258 C 0.12353 0.05043 0.0854 0.0
C1259 C 0.1095 0.03078 0.10124 0.0
H1260 H 0.07091 0.10019 0.12633 0.0
C1261 C 0.09142 0.04953 0.11613 0.0
C1262 C 0.0853 0.0867 0.11466 0.0
H1263 H 0.08114 0.03515 0.12872 0.0
H1264 H 0.08397 0.28205 0.10006 0.0
H1265 H 0.10145 0.21881 0.09837 0.0
H1266 H 0.98905 0.18703 0.10449 0.0
H1267 H 0.97173 0.25092 0.10681 0.0
H1268 H 0.03602 0.14035 0.10795 0.0
H1269 H 0.10722 0.16179 0.08781 0.0
H1270 H 0.1274 0.10234 0.07129 0.0
H1271 H 0.13751 0.03664 0.0737 0.0
C1272 C 0.46019 0.09241 0.624 0.0
C1273 C 0.47676 0.11003 0.60822 0.0
C1274 C 0.42411 0.0811 0.62288 0.0
C1275 C 0.4037 0.08736 0.6059 0.0
C1276 C 0.41986 0.10633 0.59042 0.0
C1277 C 0.456 0.1178 0.5916 0.0
C1278 C 0.3666 0.07223 0.60335 0.0
C1279 C 0.34456 0.06415 0.61836 0.0
C1280 C 0.30758 0.04927 0.6156 0.0
C1281 C 0.28008 0.06019 0.62838 0.0
C1282 C 0.24455 0.04819 0.62567 0.0
C1283 C 0.23605 0.02426 0.61045 0.0
H1284 H 0.32025 0.01471 0.59092 0.0
C1285 C 0.26377 0.01169 0.59825 0.0
C1286 C 0.29933 0.02434 0.60069 0.0
H1287 H 0.25758 0.99326 0.58643 0.0
H1288 H 0.47577 0.08594 0.63691 0.0
H1289 H 0.4131 0.06589 0.63498 0.0
H1290 H 0.40481 0.11139 0.57714 0.0
H1291 H 0.46829 0.13074 0.57909 0.0
H1292 H 0.35672 0.06862 0.58857 0.0
H1293 H 0.35261 0.07105 0.6331 0.0
H1294 H 0.28586 0.07897 0.64012 0.0
H1295 H 0.22346 0.05797 0.6353 0.0
C1296 C 0.50461 0.9609 0.94584 0.0
C1297 C 0.48291 0.92953 0.94513 0.0
C1298 C 0.51028 0.97919 0.96341 0.0
C1299 C 0.49417 0.96659 0.98073 0.0
C1300 C 0.4735 0.93452 0.98009 0.0
C1301 C 0.46774 0.91628 0.96249 0.0
C1302 C 0.49879 0.98559 0.99972 0.0
C1303 C 0.50682 0.02125 0.00137 0.0
C1304 C 0.51178 0.04026 0.02034 0.0
C1305 C 0.53255 0.07227 0.02084 0.0
C1306 C 0.53884 0.09043 0.0384 0.0
C1307 C 0.52411 0.07721 0.05586 0.0
H1308 H 0.47881 0.00392 0.03799 0.0
C1309 C 0.50223 0.04594 0.05531 0.0
C1310 C 0.49605 0.02768 0.03776 0.0
H1311 H 0.49034 0.03513 0.06851 0.0
H1312 H 0.51688 0.9717 0.93274 0.0
H1313 H 0.52751 0.00296 0.9633 0.0
H1314 H 0.46112 0.9239 0.99321 0.0
H1315 H 0.45091 0.89216 0.96244 0.0
H1316 H 0.49481 0.96943 0.01275 0.0
H1317 H 0.51074 0.03741 0.98834 0.0
H1318 H 0.54465 0.08286 0.00764 0.0
H1319 H 0.55581 0.11446 0.03833 0.0
C1320 C 0.46943 0.51919 0.55659 0.0
C1321 C 0.44055 0.54397 0.55743 0.0
C1322 C 0.48862 0.51389 0.53928 0.0
C1323 C 0.47909 0.53306 0.52227 0.0
C1324 C 0.4504 0.55814 0.52326 0.0
C1325 C 0.43133 0.56355 0.54062 0.0
C1326 C 0.4983 0.52821 0.50331 0.0
C1327 C 0.52053 0.50012 0.4992 0.0
C1328 C 0.53844 0.49448 0.47999 0.0
C1329 C 0.56846 0.47107 0.47898 0.0
C1330 C 0.58468 0.46291 0.46112 0.0
C1331 C 0.57107 0.47782 0.44379 0.0
H1332 H 0.50157 0.52726 0.46254 0.0
C1333 C 0.54144 0.50173 0.44476 0.0
C1334 C 0.5252 0.50991 0.46262 0.0
H1335 H 0.53008 0.51339 0.43163 0.0
H1336 H 0.47749 0.50401 0.56938 0.0
H1337 H 0.51109 0.49511 0.53956 0.0
H1338 H 0.4425 0.5735 0.5105 0.0
H1339 H 0.4093 0.58297 0.54083 0.0
H1340 H 0.49324 0.54859 0.49225 0.0
H1341 H 0.52604 0.47981 0.51021 0.0
H1342 H 0.57916 0.4586 0.49206 0.0
H1343 H 0.60736 0.44424 0.46087 0.0
C1344 C 0.98356 0.41925 0.03978 0.0
C1345 C 0.99647 0.42966 0.05818 0.0
C1346 C 0.9976 0.43525 0.0229 0.0
C1347 C 0.02478 0.46213 0.02412 0.0
C1348 C 0.03862 0.47133 0.04249 0.0
C1349 C 0.0245 0.45549 0.05933 0.0
C1350 C 0.03925 0.48128 0.00668 0.0
C1351 C 0.0195 0.48656 0.99042 0.0
C1352 C 0.03215 0.50718 0.97302 0.0
C1353 C 0.01256 0.50314 0.95565 0.0
C1354 C 0.02202 0.52276 0.93906 0.0
C1355 C 0.05128 0.54722 0.93939 0.0
H1356 H 0.07707 0.53633 0.98653 0.0
C1357 C 0.07116 0.55136 0.95668 0.0
C1358 C 0.06168 0.53161 0.97338 0.0
H1359 H 0.09374 0.57015 0.95739 0.0
H1360 H 0.96216 0.39923 0.03843 0.0
H1361 H 0.9871 0.42641 0.00898 0.0
H1362 H 0.05979 0.49161 0.04387 0.0
H1363 H 0.03517 0.464 0.07329 0.0
H1364 H 0.06634 0.49262 0.00779 0.0
H1365 H 0.9922 0.47553 0.98971 0.0
H1366 H 0.98963 0.48474 0.9549 0.0
H1367 H 0.00609 0.51887 0.92597 0.0
C1368 C 0.95405 0.00242 0.44688 0.0
C1369 C 0.92545 0.02756 0.44604 0.0
C1370 C 0.9713 0.9948 0.46455 0.0
C1371 C 0.9604 0.01236 0.48178 0.0
C1372 C 0.93093 0.03647 0.481 0.0
C1373 C 0.91375 0.04417 0.46332 0.0
C1374 C 0.97866 0.00597 0.50082 0.0
C1375 C 0.01335 0.99469 0.50251 0.0
C1376 C 0.03192 0.98856 0.52149 0.0
C1377 C 0.0621 0.96532 0.52205 0.0
C1378 C 0.08017 0.95841 0.53956 0.0
C1379 C 0.06867 0.97494 0.5569 0.0
H1380 H 0.99866 0.02485 0.53896 0.0
C1381 C 0.03909 0.99895 0.55631 0.0
C1382 C 0.02094 0.00578 0.53881 0.0
H1383 H 0.0297 0.01227 0.56942 0.0
H1384 H 0.96353 0.98896 0.43383 0.0
H1385 H 0.99294 0.97501 0.46457 0.0
H1386 H 0.92165 0.05006 0.49406 0.0
H1387 H 0.89173 0.06361 0.46316 0.0
H1388 H 0.96293 0.01163 0.5138 0.0
H1389 H 0.02905 0.98914 0.4895 0.0
H1390 H 0.07144 0.95199 0.50893 0.0
H1391 H 0.10291 0.93981 0.53952 0.0
C1392 C 0.49285 0.45968 0.94458 0.0
C1393 C 0.51441 0.42827 0.94425 0.0
C1394 C 0.48658 0.47808 0.96205 0.0
C1395 C 0.50186 0.46543 0.97957 0.0
C1396 C 0.52232 0.43331 0.97928 0.0
C1397 C 0.52875 0.41504 0.96181 0.0
C1398 C 0.49677 0.4845 0.99845 0.0
C1399 C 0.48957 0.52028 0.99995 0.0
C1400 C 0.4846 0.53921 0.01888 0.0
C1401 C 0.46348 0.57089 0.0194 0.0
C1402 C 0.45722 0.58894 0.03696 0.0
C1403 C 0.47239 0.57594 0.05436 0.0
H1404 H 0.51827 0.50331 0.03638 0.0
C1405 C 0.49461 0.545 0.05379 0.0
C1406 C 0.50073 0.52683 0.03624 0.0
H1407 H 0.50685 0.53444 0.06696 0.0
H1408 H 0.48136 0.47049 0.93127 0.0
H1409 H 0.4696 0.502 0.9617 0.0
H1410 H 0.53406 0.42269 0.99257 0.0
H1411 H 0.54542 0.39085 0.96203 0.0
H1412 H 0.49988 0.46833 0.01155 0.0
H1413 H 0.48638 0.5365 0.98688 0.0
H1414 H 0.45111 0.58129 0.00622 0.0
H1415 H 0.44006 0.61279 0.03692 0.0
C1416 C 0.08176 0.52379 0.46522 0.0
C1417 C 0.07314 0.5075 0.44733 0.0
C1418 C 0.06455 0.51245 0.48233 0.0
C1419 C 0.03832 0.48458 0.48185 0.0
C1420 C 0.03107 0.46727 0.46409 0.0
C1421 C 0.04807 0.47874 0.447 0.0
C1422 C 0.01777 0.47297 0.49942 0.0
C1423 C 0.01065 0.49537 0.51443 0.0
C1424 C 0.98851 0.4851 0.53171 0.0
C1425 C 0.99206 0.50598 0.54867 0.0
C1426 C 0.97128 0.49825 0.56513 0.0
C1427 C 0.94612 0.46957 0.56499 0.0
H1428 H 0.95867 0.44026 0.51859 0.0
C1429 C 0.94222 0.44871 0.54802 0.0
C1430 C 0.96314 0.4564 0.53151 0.0
H1431 H 0.92289 0.42657 0.54745 0.0
H1432 H 0.10113 0.54588 0.46594 0.0
H1433 H 0.07189 0.52561 0.49584 0.0
H1434 H 0.01135 0.44547 0.46331 0.0
H1435 H 0.04099 0.46548 0.43345 0.0
H1436 H 0.00695 0.44557 0.49943 0.0
H1437 H 0.02134 0.52284 0.51419 0.0
H1438 H 0.0111 0.5284 0.54924 0.0
H1439 H 0.97491 0.51492 0.57797 0.0
C1440 C 0.0306 0.92949 0.03995 0.0
C1441 C 0.01466 0.93669 0.05809 0.0
C1442 C 0.01917 0.94811 0.02326 0.0
C1443 C 0.99125 0.97425 0.02434 0.0
C1444 C 0.97509 0.98088 0.0425 0.0
C1445 C 0.98657 0.96236 0.05914 0.0
C1446 C 0.97916 0.99646 0.00734 0.0
C1447 C 0.98759 0.98912 0.98865 0.0
C1448 C 0.97694 0.01261 0.97193 0.0
C1449 C 0.9975 0.01056 0.95479 0.0
C1450 C 0.98872 0.03181 0.93864 0.0
C1451 C 0.95883 0.05545 0.93912 0.0
H1452 H 0.92954 0.03782 0.9851 0.0
C1453 C 0.93787 0.05735 0.95615 0.0
C1454 C 0.94679 0.03614 0.97241 0.0
H1455 H 0.91445 0.07503 0.95688 0.0
H1456 H 0.05254 0.91009 0.03871 0.0
H1457 H 0.03314 0.94246 0.00979 0.0
H1458 H 0.95367 1.00084 0.04389 0.0
H1459 H 0.97373 0.96864 0.0729 0.0
H1460 H 0.963 0.02031 0.01057 0.0
H1461 H 0.00401 0.9656 0.98523 0.0
H1462 H 0.02067 0.99255 0.95389 0.0
H1463 H 0.00528 0.02944 0.92569 0.0
C1464 C 0.45747 0.99928 0.4443 0.0
C1465 C 0.42707 0.97623 0.444 0.0
C1466 C 0.47564 0.00658 0.46175 0.0
C1467 C 0.4636 0.99113 0.47936 0.0
C1468 C 0.4328 0.96859 0.47902 0.0
C1469 C 0.41469 0.96127 0.46157 0.0
C1470 C 0.48319 0.99606 0.49817 0.0
C1471 C 0.50721 0.02296 0.50177 0.0
C1472 C 0.52718 0.02738 0.52053 0.0
C1473 C 0.55768 0.05035 0.52104 0.0
C1474 C 0.57691 0.05591 0.53835 0.0
C1475 C 0.56603 0.03862 0.5556 0.0
H1476 H 0.4924 0.99321 0.53854 0.0
C1477 C 0.53558 0.01566 0.55516 0.0
C1478 C 0.51625 0.01023 0.53791 0.0
H1479 H 0.52619 0.00232 0.56828 0.0
H1480 H 0.46793 0.0109 0.43095 0.0
H1481 H 0.49971 0.02331 0.46112 0.0
H1482 H 0.42293 0.95616 0.49229 0.0
H1483 H 0.39145 0.94325 0.46182 0.0
H1484 H 0.4773 0.97626 0.5094 0.0
H1485 H 0.51301 0.04275 0.49051 0.0
H1486 H 0.56668 0.06414 0.50797 0.0
H1487 H 0.60014 0.07395 0.53824 0.0
loop_
_geom_bond_atom_site_label_1
_geom_bond_atom_site_label_2
_geom_bond_distance
_geom_bond_site_symmetry_2
_ccdc_geom_bond_type
Co0 N4 2.148 . S
Co0 N10 2.128 . S
Co0 N20 2.194 . S
Co0 O25 2.351 . S
Co0 O26 2.155 . S
Co0 O27 2.096 . S
C1 N4 1.301 . S
C1 N5 1.328 . S
C1 H6 0.930 . S
C2 C3 1.333 . S
C2 N4 1.317 . S
C2 H7 0.930 . S
C3 C2 1.333 . S
C3 N5 1.350 . S
C3 H29 0.931 . S
N4 Co0 2.148 . S
N4 C1 1.301 . S
N4 C2 1.317 . S
N5 C1 1.328 . S
N5 C3 1.350 . S
H6 C1 0.930 . S
H7 C2 0.930 . S
C8 O9 1.224 . S
C8 O27 1.247 . S
O9 C8 1.224 . S
N10 Co0 2.128 . S
N10 C11 1.355 . S
N10 C13 1.311 . S
C11 N10 1.355 . S
C11 C12 1.363 . S
C11 H23 0.929 . S
C12 C11 1.363 . S
C12 N14 1.375 . S
C12 H30 0.931 . S
C13 N10 1.311 . S
C13 N14 1.347 . S
C13 H24 0.929 . S
N14 C12 1.375 . S
N14 C13 1.347 . S
C15 C18 1.365 . S
C15 N20 1.328 . S
C15 H21 0.929 . S
C16 C17 1.362 . S
C16 C19 1.378 . S
C16 H31 0.929 . S
C17 C16 1.362 . S
C17 C18 1.366 . S
C18 C15 1.365 . S
C18 C17 1.366 . S
C18 H32 0.930 . S
C19 C16 1.378 . S
C19 N20 1.315 . S
C19 H22 0.930 . S
N20 Co0 2.194 . S
N20 C15 1.328 . S
N20 C19 1.315 . S
H21 C15 0.929 . S
H22 C19 0.930 . S
H23 C11 0.929 . S
H24 C13 0.929 . S
O25 Co0 2.351 . S
O25 C28 1.244 . S
O26 Co0 2.155 . S
O26 C28 1.240 . S
O27 Co0 2.096 . S
O27 C8 1.247 . S
C28 O25 1.244 . S
C28 O26 1.240 . S
H29 C3 0.931 . S
H30 C12 0.931 . S
H31 C16 0.929 . S
H32 C18 0.930 . S
Co33 N37 2.148 . S
Co33 N43 2.128 . S
Co33 N53 2.194 . S
Co33 O58 2.351 . S
Co33 O59 2.155 . S
Co33 O60 2.096 . S
C34 N37 1.301 . S
C34 N38 1.328 . S
C34 H39 0.930 . S
C35 C36 1.333 . S
C35 N37 1.317 . S
C35 H40 0.930 . S
C36 C35 1.333 . S
C36 N38 1.350 . S
C36 H62 0.931 . S
N37 Co33 2.148 . S
N37 C34 1.301 . S
N37 C35 1.317 . S
N38 C34 1.328 . S
N38 C36 1.350 . S
H39 C34 0.930 . S
H40 C35 0.930 . S
C41 O42 1.224 . S
C41 O60 1.247 . S
O42 C41 1.224 . S
N43 Co33 2.128 . S
N43 C44 1.355 . S
N43 C46 1.311 . S
C44 N43 1.355 . S
C44 C45 1.363 . S
C44 H56 0.929 . S
C45 C44 1.363 . S
C45 N47 1.375 . S
C45 H63 0.931 . S
C46 N43 1.311 . S
C46 N47 1.347 . S
C46 H57 0.929 . S
N47 C45 1.375 . S
N47 C46 1.347 . S
C48 C51 1.365 . S
C48 N53 1.328 . S
C48 H54 0.929 . S
C49 C50 1.362 . S
C49 C52 1.378 . S
C49 H64 0.929 . S
C50 C49 1.362 . S
C50 C51 1.366 . S
C51 C48 1.365 . S
C51 C50 1.366 . S
C51 H65 0.930 . S
C52 C49 1.378 . S
C52 N53 1.315 . S
C52 H55 0.930 . S
N53 Co33 2.194 . S
N53 C48 1.328 . S
N53 C52 1.315 . S
H54 C48 0.929 . S
H55 C52 0.930 . S
H56 C44 0.929 . S
H57 C46 0.929 . S
O58 Co33 2.351 . S
O58 C61 1.244 . S
O59 Co33 2.155 . S
O59 C61 1.240 . S
O60 Co33 2.096 . S
O60 C41 1.247 . S
C61 O58 1.244 . S
C61 O59 1.240 . S
H62 C36 0.931 . S
H63 C45 0.931 . S
H64 C49 0.929 . S
H65 C51 0.930 . S
Co66 N70 2.148 . S
Co66 N76 2.128 . S
Co66 N86 2.194 1_655 S
Co66 O91 2.351 1_655 S
Co66 O92 2.155 . S
Co66 O93 2.096 . S
C67 N70 1.301 . S
C67 N71 1.328 . S
C67 H72 0.930 . S
C68 C69 1.333 . S
C68 N70 1.317 . S
C68 H73 0.930 . S
C69 C68 1.333 . S
C69 N71 1.350 . S
C69 H95 0.931 . S
N70 Co66 2.148 . S
N70 C67 1.301 . S
N70 C68 1.317 . S
N71 C67 1.328 . S
N71 C69 1.350 . S
H72 C67 0.930 . S
H73 C68 0.930 . S
C74 O75 1.224 . S
C74 O93 1.247 . S
O75 C74 1.224 . S
N76 Co66 2.128 . S
N76 C77 1.355 1_655 S
N76 C79 1.311 . S
C77 N76 1.355 1_455 S
C77 C78 1.363 . S
C77 H89 0.929 . S
C78 C77 1.363 . S
C78 N80 1.375 . S
C78 H96 0.931 . S
C79 N76 1.311 . S
C79 N80 1.347 1_655 S
C79 H90 0.929 . S
N80 C78 1.375 . S
N80 C79 1.347 1_455 S
C81 C84 1.365 . S
C81 N86 1.328 . S
C81 H87 0.929 . S
C82 C83 1.362 . S
C82 C85 1.378 1_455 S
C82 H97 0.929 1_455 S
C83 C82 1.362 . S
C83 C84 1.366 . S
C84 C81 1.365 . S
C84 C83 1.366 . S
C84 H98 0.930 . S
C85 C82 1.378 1_655 S
C85 N86 1.315 1_655 S
C85 H88 0.930 . S
N86 Co66 2.194 1_455 S
N86 C81 1.328 . S
N86 C85 1.315 1_455 S
H87 C81 0.929 . S
H88 C85 0.930 . S
H89 C77 0.929 . S
H90 C79 0.929 . S
O91 Co66 2.351 1_455 S
O91 C94 1.244 . S
O92 Co66 2.155 . S
O92 C94 1.240 1_655 S
O93 Co66 2.096 . S
O93 C74 1.247 . S
C94 O91 1.244 . S
C94 O92 1.240 1_455 S
H95 C69 0.931 . S
H96 C78 0.931 . S
H97 C82 0.929 1_655 S
H98 C84 0.930 . S
Co99 N103 2.148 . S
Co99 N109 2.128 . S
Co99 N119 2.194 1_565 S
Co99 O124 2.351 1_565 S
Co99 O125 2.155 . S
Co99 O126 2.096 . S
C100 N103 1.301 . S
C100 N104 1.328 . S
C100 H105 0.930 . S
C101 C102 1.333 . S
C101 N103 1.317 . S
C101 H106 0.930 . S
C102 C101 1.333 . S
C102 N104 1.350 . S
C102 H128 0.931 . S
N103 Co99 2.148 . S
N103 C100 1.301 . S
N103 C101 1.317 . S
N104 C100 1.328 . S
N104 C102 1.350 . S
H105 C100 0.930 . S
H106 C101 0.930 . S
C107 O108 1.224 . S
C107 O126 1.247 . S
O108 C107 1.224 . S
N109 Co99 2.128 . S
N109 C110 1.355 1_565 S
N109 C112 1.311 . S
C110 N109 1.355 1_545 S
C110 C111 1.363 . S
C110 H122 0.929 . S
C111 C110 1.363 . S
C111 N113 1.375 . S
C111 H129 0.931 . S
C112 N109 1.311 . S
C112 N113 1.347 1_565 S
C112 H123 0.929 . S
N113 C111 1.375 . S
N113 C112 1.347 1_545 S
C114 C117 1.365 . S
C114 N119 1.328 . S
C114 H120 0.929 . S
C115 C116 1.362 . S
C115 C118 1.378 1_545 S
C115 H130 0.929 1_545 S
C116 C115 1.362 . S
C116 C117 1.366 . S
C117 C114 1.365 . S
C117 C116 1.366 . S
C117 H131 0.930 . S
C118 C115 1.378 1_565 S
C118 N119 1.315 1_565 S
C118 H121 0.930 . S
N119 Co99 2.194 1_545 S
N119 C114 1.328 . S
N119 C118 1.315 1_545 S
H120 C114 0.929 . S
H121 C118 0.930 . S
H122 C110 0.929 . S
H123 C112 0.929 . S
O124 Co99 2.351 1_545 S
O124 C127 1.244 . S
O125 Co99 2.155 . S
O125 C127 1.240 1_565 S
O126 Co99 2.096 . S
O126 C107 1.247 . S
C127 O124 1.244 . S
C127 O125 1.240 1_545 S
H128 C102 0.931 . S
H129 C111 0.931 . S
H130 C115 0.929 1_565 S
H131 C117 0.930 . S
Co132 N136 2.148 . S
Co132 N142 2.128 . S
Co132 N152 2.194 . S
Co132 O157 2.351 . S
Co132 O158 2.155 . S
Co132 O159 2.096 . S
C133 N136 1.301 . S
C133 N137 1.328 . S
C133 H138 0.930 . S
C134 C135 1.333 . S
C134 N136 1.317 . S
C134 H139 0.930 . S
C135 C134 1.333 . S
C135 N137 1.350 . S
C135 H161 0.931 . S
N136 Co132 2.148 . S
N136 C133 1.301 . S
N136 C134 1.317 . S
N137 C133 1.328 . S
N137 C135 1.350 . S
H138 C133 0.930 . S
H139 C134 0.930 . S
C140 O141 1.224 . S
C140 O159 1.247 . S
O141 C140 1.224 . S
N142 Co132 2.128 . S
N142 C143 1.355 . S
N142 C145 1.311 . S
C143 N142 1.355 . S
C143 C144 1.363 . S
C143 H155 0.929 . S
C144 C143 1.363 . S
C144 N146 1.375 . S
C144 H162 0.931 . S
C145 N142 1.311 . S
C145 N146 1.347 . S
C145 H156 0.929 . S
N146 C144 1.375 . S
N146 C145 1.347 . S
C147 C150 1.365 . S
C147 N152 1.328 . S
C147 H153 0.929 . S
C148 C149 1.362 . S
C148 C151 1.378 . S
C148 H163 0.929 . S
C149 C148 1.362 . S
C149 C150 1.366 . S
C150 C147 1.365 . S
C150 C149 1.366 . S
C150 H164 0.930 . S
C151 C148 1.378 . S
C151 N152 1.315 . S
C151 H154 0.930 . S
N152 Co132 2.194 . S
N152 C147 1.328 . S
N152 C151 1.315 . S
H153 C147 0.929 . S
H154 C151 0.930 . S
H155 C143 0.929 . S
H156 C145 0.929 . S
O157 Co132 2.351 . S
O157 C160 1.244 . S
O158 Co132 2.155 . S
O158 C160 1.240 . S
O159 Co132 2.096 . S
O159 C140 1.247 . S
C160 O157 1.244 . S
C160 O158 1.240 . S
H161 C135 0.931 . S
H162 C144 0.931 . S
H163 C148 0.929 . S
H164 C150 0.930 . S
Co165 N169 2.148 . S
Co165 N175 2.128 . S
Co165 N185 2.194 . S
Co165 O190 2.351 . S
Co165 O191 2.155 . S
Co165 O192 2.096 . S
C166 N169 1.301 . S
C166 N170 1.328 . S
C166 H171 0.930 . S
C167 C168 1.333 . S
C167 N169 1.317 . S
C167 H172 0.930 . S
C168 C167 1.333 . S
C168 N170 1.350 . S
C168 H194 0.931 . S
N169 Co165 2.148 . S
N169 C166 1.301 . S
N169 C167 1.317 . S
N170 C166 1.328 . S
N170 C168 1.350 . S
H171 C166 0.930 . S
H172 C167 0.930 . S
C173 O174 1.224 . S
C173 O192 1.247 . S
O174 C173 1.224 . S
N175 Co165 2.128 . S
N175 C176 1.355 . S
N175 C178 1.311 . S
C176 N175 1.355 . S
C176 C177 1.363 . S
C176 H188 0.929 . S
C177 C176 1.363 . S
C177 N179 1.375 . S
C177 H195 0.931 . S
C178 N175 1.311 . S
C178 N179 1.347 . S
C178 H189 0.929 . S
N179 C177 1.375 . S
N179 C178 1.347 . S
C180 C183 1.365 . S
C180 N185 1.328 . S
C180 H186 0.929 . S
C181 C182 1.362 . S
C181 C184 1.378 . S
C181 H196 0.929 . S
C182 C181 1.362 . S
C182 C183 1.366 . S
C183 C180 1.365 . S
C183 C182 1.366 . S
C183 H197 0.930 . S
C184 C181 1.378 . S
C184 N185 1.315 . S
C184 H187 0.930 . S
N185 Co165 2.194 . S
N185 C180 1.328 . S
N185 C184 1.315 . S
H186 C180 0.929 . S
H187 C184 0.930 . S
H188 C176 0.929 . S
H189 C178 0.929 . S
O190 Co165 2.351 . S
O190 C193 1.244 . S
O191 Co165 2.155 . S
O191 C193 1.240 . S
O192 Co165 2.096 . S
O192 C173 1.247 . S
C193 O190 1.244 . S
C193 O191 1.240 . S
H194 C168 0.931 . S
H195 C177 0.931 . S
H196 C181 0.929 . S
H197 C183 0.930 . S
Co198 N202 2.148 . S
Co198 N208 2.128 . S
Co198 N218 2.194 1_655 S
Co198 O223 2.351 1_655 S
Co198 O224 2.155 . S
Co198 O225 2.096 . S
C199 N202 1.301 . S
C199 N203 1.328 . S
C199 H204 0.930 . S
C200 C201 1.333 . S
C200 N202 1.317 . S
C200 H205 0.930 . S
C201 C200 1.333 . S
C201 N203 1.350 . S
C201 H227 0.931 . S
N202 Co198 2.148 . S
N202 C199 1.301 . S
N202 C200 1.317 . S
N203 C199 1.328 . S
N203 C201 1.350 . S
H204 C199 0.930 . S
H205 C200 0.930 . S
C206 O207 1.224 . S
C206 O225 1.247 . S
O207 C206 1.224 . S
N208 Co198 2.128 . S
N208 C209 1.355 1_655 S
N208 C211 1.311 . S
C209 N208 1.355 1_455 S
C209 C210 1.363 . S
C209 H221 0.929 . S
C210 C209 1.363 . S
C210 N212 1.375 . S
C210 H228 0.931 . S
C211 N208 1.311 . S
C211 N212 1.347 1_655 S
C211 H222 0.929 . S
N212 C210 1.375 . S
N212 C211 1.347 1_455 S
C213 C216 1.365 . S
C213 N218 1.328 . S
C213 H219 0.929 . S
C214 C215 1.362 . S
C214 C217 1.378 1_455 S
C214 H229 0.929 1_455 S
C215 C214 1.362 . S
C215 C216 1.366 . S
C216 C213 1.365 . S
C216 C215 1.366 . S
C216 H230 0.930 . S
C217 C214 1.378 1_655 S
C217 N218 1.315 1_655 S
C217 H220 0.930 . S
N218 Co198 2.194 1_455 S
N218 C213 1.328 . S
N218 C217 1.315 1_455 S
H219 C213 0.929 . S
H220 C217 0.930 . S
H221 C209 0.929 . S
H222 C211 0.929 . S
O223 Co198 2.351 1_455 S
O223 C226 1.244 . S
O224 Co198 2.155 . S
O224 C226 1.240 1_655 S
O225 Co198 2.096 . S
O225 C206 1.247 . S
C226 O223 1.244 . S
C226 O224 1.240 1_455 S
H227 C201 0.931 . S
H228 C210 0.931 . S
H229 C214 0.929 1_655 S
H230 C216 0.930 . S
Co231 N235 2.148 . S
Co231 N241 2.128 . S
Co231 N251 2.194 1_565 S
Co231 O256 2.351 1_565 S
Co231 O257 2.155 . S
Co231 O258 2.096 . S
C232 N235 1.301 . S
C232 N236 1.328 . S
C232 H237 0.930 . S
C233 C234 1.333 . S
C233 N235 1.317 . S
C233 H238 0.930 . S
C234 C233 1.333 . S
C234 N236 1.350 . S
C234 H260 0.931 . S
N235 Co231 2.148 . S
N235 C232 1.301 . S
N235 C233 1.317 . S
N236 C232 1.328 . S
N236 C234 1.350 . S
H237 C232 0.930 . S
H238 C233 0.930 . S
C239 O240 1.224 . S
C239 O258 1.247 . S
O240 C239 1.224 . S
N241 Co231 2.128 . S
N241 C242 1.355 1_565 S
N241 C244 1.311 . S
C242 N241 1.355 1_545 S
C242 C243 1.363 . S
C242 H254 0.929 . S
C243 C242 1.363 . S
C243 N245 1.375 . S
C243 H261 0.931 . S
C244 N241 1.311 . S
C244 N245 1.347 1_565 S
C244 H255 0.929 . S
N245 C243 1.375 . S
N245 C244 1.347 1_545 S
C246 C249 1.365 . S
C246 N251 1.328 . S
C246 H252 0.929 . S
C247 C248 1.362 . S
C247 C250 1.378 1_545 S
C247 H262 0.929 1_545 S
C248 C247 1.362 . S
C248 C249 1.366 . S
C249 C246 1.365 . S
C249 C248 1.366 . S
C249 H263 0.930 . S
C250 C247 1.378 1_565 S
C250 N251 1.315 1_565 S
C250 H253 0.930 . S
N251 Co231 2.194 1_545 S
N251 C246 1.328 . S
N251 C250 1.315 1_545 S
H252 C246 0.929 . S
H253 C250 0.930 . S
H254 C242 0.929 . S
H255 C244 0.929 . S
O256 Co231 2.351 1_545 S
O256 C259 1.244 . S
O257 Co231 2.155 . S
O257 C259 1.240 1_565 S
O258 Co231 2.096 . S
O258 C239 1.247 . S
C259 O256 1.244 . S
C259 O257 1.240 1_545 S
H260 C234 0.931 . S
H261 C243 0.931 . S
H262 C247 0.929 1_565 S
H263 C249 0.930 . S
Co264 N268 2.148 . S
Co264 N274 2.128 . S
Co264 N284 2.194 . S
Co264 O289 2.351 . S
Co264 O290 2.155 . S
Co264 O291 2.096 . S
C265 N268 1.301 . S
C265 N269 1.328 . S
C265 H270 0.930 . S
C266 C267 1.333 . S
C266 N268 1.317 . S
C266 H271 0.930 . S
C267 C266 1.333 . S
C267 N269 1.350 . S
C267 H293 0.931 . S
N268 Co264 2.148 . S
N268 C265 1.301 . S
N268 C266 1.317 . S
N269 C265 1.328 . S
N269 C267 1.350 . S
H270 C265 0.930 . S
H271 C266 0.930 . S
C272 O273 1.224 . S
C272 O291 1.247 . S
O273 C272 1.224 . S
N274 Co264 2.128 . S
N274 C275 1.355 . S
N274 C277 1.311 . S
C275 N274 1.355 . S
C275 C276 1.363 . S
C275 H287 0.929 . S
C276 C275 1.363 . S
C276 N278 1.375 . S
C276 H294 0.931 . S
C277 N274 1.311 . S
C277 N278 1.347 . S
C277 H288 0.929 . S
N278 C276 1.375 . S
N278 C277 1.347 . S
C279 C282 1.365 . S
C279 N284 1.328 . S
C279 H285 0.929 . S
C280 C281 1.362 . S
C280 C283 1.378 . S
C280 H295 0.929 . S
C281 C280 1.362 . S
C281 C282 1.366 . S
C282 C279 1.365 . S
C282 C281 1.366 . S
C282 H296 0.930 . S
C283 C280 1.378 . S
C283 N284 1.315 . S
C283 H286 0.930 . S
N284 Co264 2.194 . S
N284 C279 1.328 . S
N284 C283 1.315 . S
H285 C279 0.929 . S
H286 C283 0.930 . S
H287 C275 0.929 . S
H288 C277 0.929 . S
O289 Co264 2.351 . S
O289 C292 1.244 . S
O290 Co264 2.155 . S
O290 C292 1.240 . S
O291 Co264 2.096 . S
O291 C272 1.247 . S
C292 O289 1.244 . S
C292 O290 1.240 . S
H293 C267 0.931 . S
H294 C276 0.931 . S
H295 C280 0.929 . S
H296 C282 0.930 . S
Co297 N301 2.148 . S
Co297 N307 2.128 . S
Co297 N317 2.194 . S
Co297 O322 2.351 . S
Co297 O323 2.155 . S
Co297 O324 2.096 . S
C298 N301 1.301 . S
C298 N302 1.328 . S
C298 H303 0.930 . S
C299 C300 1.333 . S
C299 N301 1.317 . S
C299 H304 0.930 . S
C300 C299 1.333 . S
C300 N302 1.350 . S
C300 H326 0.931 . S
N301 Co297 2.148 . S
N301 C298 1.301 . S
N301 C299 1.317 . S
N302 C298 1.328 . S
N302 C300 1.350 . S
H303 C298 0.930 . S
H304 C299 0.930 . S
C305 O306 1.224 . S
C305 O324 1.247 . S
O306 C305 1.224 . S
N307 Co297 2.128 . S
N307 C308 1.355 . S
N307 C310 1.311 . S
C308 N307 1.355 . S
C308 C309 1.363 . S
C308 H320 0.929 . S
C309 C308 1.363 . S
C309 N311 1.375 . S
C309 H327 0.931 . S
C310 N307 1.311 . S
C310 N311 1.347 . S
C310 H321 0.929 . S
N311 C309 1.375 . S
N311 C310 1.347 . S
C312 C315 1.365 . S
C312 N317 1.328 . S
C312 H318 0.929 . S
C313 C314 1.362 . S
C313 C316 1.378 . S
C313 H328 0.929 . S
C314 C313 1.362 . S
C314 C315 1.366 . S
C315 C312 1.365 . S
C315 C314 1.366 . S
C315 H329 0.930 . S
C316 C313 1.378 . S
C316 N317 1.315 . S
C316 H319 0.930 . S
N317 Co297 2.194 . S
N317 C312 1.328 . S
N317 C316 1.315 . S
H318 C312 0.929 . S
H319 C316 0.930 . S
H320 C308 0.929 . S
H321 C310 0.929 . S
O322 Co297 2.351 . S
O322 C325 1.244 . S
O323 Co297 2.155 . S
O323 C325 1.240 . S
O324 Co297 2.096 . S
O324 C305 1.247 . S
C325 O322 1.244 . S
C325 O323 1.240 . S
H326 C300 0.931 . S
H327 C309 0.931 . S
H328 C313 0.929 . S
H329 C315 0.930 . S
Co330 N334 2.148 . S
Co330 N340 2.128 . S
Co330 N350 2.194 1_455 S
Co330 O355 2.351 1_455 S
Co330 O356 2.155 . S
Co330 O357 2.096 . S
C331 N334 1.301 . S
C331 N335 1.328 . S
C331 H336 0.930 . S
C332 C333 1.333 . S
C332 N334 1.317 . S
C332 H337 0.930 . S
C333 C332 1.333 . S
C333 N335 1.350 . S
C333 H359 0.931 . S
N334 Co330 2.148 . S
N334 C331 1.301 . S
N334 C332 1.317 . S
N335 C331 1.328 . S
N335 C333 1.350 . S
H336 C331 0.930 . S
H337 C332 0.930 . S
C338 O339 1.224 . S
C338 O357 1.247 . S
O339 C338 1.224 . S
N340 Co330 2.128 . S
N340 C341 1.355 1_455 S
N340 C343 1.311 . S
C341 N340 1.355 1_655 S
C341 C342 1.363 . S
C341 H353 0.929 . S
C342 C341 1.363 . S
C342 N344 1.375 . S
C342 H360 0.931 . S
C343 N340 1.311 . S
C343 N344 1.347 1_455 S
C343 H354 0.929 . S
N344 C342 1.375 . S
N344 C343 1.347 1_655 S
C345 C348 1.365 . S
C345 N350 1.328 . S
C345 H351 0.929 . S
C346 C347 1.362 . S
C346 C349 1.378 1_655 S
C346 H361 0.929 1_655 S
C347 C346 1.362 . S
C347 C348 1.366 . S
C348 C345 1.365 . S
C348 C347 1.366 . S
C348 H362 0.930 . S
C349 C346 1.378 1_455 S
C349 N350 1.315 1_455 S
C349 H352 0.930 . S
N350 Co330 2.194 1_655 S
N350 C345 1.328 . S
N350 C349 1.315 1_655 S
H351 C345 0.929 . S
H352 C349 0.930 . S
H353 C341 0.929 . S
H354 C343 0.929 . S
O355 Co330 2.351 1_655 S
O355 C358 1.244 . S
O356 Co330 2.155 . S
O356 C358 1.240 1_455 S
O357 Co330 2.096 . S
O357 C338 1.247 . S
C358 O355 1.244 . S
C358 O356 1.240 1_655 S
H359 C333 0.931 . S
H360 C342 0.931 . S
H361 C346 0.929 1_455 S
H362 C348 0.930 . S
Co363 N367 2.148 . S
Co363 N373 2.128 . S
Co363 N383 2.194 1_545 S
Co363 O388 2.351 1_545 S
Co363 O389 2.155 . S
Co363 O390 2.096 . S
C364 N367 1.301 . S
C364 N368 1.328 . S
C364 H369 0.930 . S
C365 C366 1.333 . S
C365 N367 1.317 . S
C365 H370 0.930 . S
C366 C365 1.333 . S
C366 N368 1.350 . S
C366 H392 0.931 . S
N367 Co363 2.148 . S
N367 C364 1.301 . S
N367 C365 1.317 . S
N368 C364 1.328 . S
N368 C366 1.350 . S
H369 C364 0.930 . S
H370 C365 0.930 . S
C371 O372 1.224 . S
C371 O390 1.247 . S
O372 C371 1.224 . S
N373 Co363 2.128 . S
N373 C374 1.355 1_545 S
N373 C376 1.311 . S
C374 N373 1.355 1_565 S
C374 C375 1.363 . S
C374 H386 0.929 . S
C375 C374 1.363 . S
C375 N377 1.375 . S
C375 H393 0.931 . S
C376 N373 1.311 . S
C376 N377 1.347 1_545 S
C376 H387 0.929 . S
N377 C375 1.375 . S
N377 C376 1.347 1_565 S
C378 C381 1.365 . S
C378 N383 1.328 . S
C378 H384 0.929 . S
C379 C380 1.362 . S
C379 C382 1.378 1_565 S
C379 H394 0.929 1_565 S
C380 C379 1.362 . S
C380 C381 1.366 . S
C381 C378 1.365 . S
C381 C380 1.366 . S
C381 H395 0.930 . S
C382 C379 1.378 1_545 S
C382 N383 1.315 1_545 S
C382 H385 0.930 . S
N383 Co363 2.194 1_565 S
N383 C378 1.328 . S
N383 C382 1.315 1_565 S
H384 C378 0.929 . S
H385 C382 0.930 . S
H386 C374 0.929 . S
H387 C376 0.929 . S
O388 Co363 2.351 1_565 S
O388 C391 1.244 . S
O389 Co363 2.155 . S
O389 C391 1.240 1_545 S
O390 Co363 2.096 . S
O390 C371 1.247 . S
C391 O388 1.244 . S
C391 O389 1.240 1_565 S
H392 C366 0.931 . S
H393 C375 0.931 . S
H394 C379 0.929 1_545 S
H395 C381 0.930 . S
Co396 N400 2.148 . S
Co396 N406 2.128 . S
Co396 N416 2.194 . S
Co396 O421 2.351 . S
Co396 O422 2.155 . S
Co396 O423 2.096 . S
C397 N400 1.301 . S
C397 N401 1.328 . S
C397 H402 0.930 . S
C398 C399 1.333 . S
C398 N400 1.317 . S
C398 H403 0.930 . S
C399 C398 1.333 . S
C399 N401 1.350 . S
C399 H425 0.931 . S
N400 Co396 2.148 . S
N400 C397 1.301 . S
N400 C398 1.317 . S
N401 C397 1.328 . S
N401 C399 1.350 . S
H402 C397 0.930 . S
H403 C398 0.930 . S
C404 O405 1.224 . S
C404 O423 1.247 . S
O405 C404 1.224 . S
N406 Co396 2.128 . S
N406 C407 1.355 . S
N406 C409 1.311 . S
C407 N406 1.355 . S
C407 C408 1.363 . S
C407 H419 0.929 . S
C408 C407 1.363 . S
C408 N410 1.375 . S
C408 H426 0.931 . S
C409 N406 1.311 . S
C409 N410 1.347 . S
C409 H420 0.929 . S
N410 C408 1.375 . S
N410 C409 1.347 . S
C411 C414 1.365 . S
C411 N416 1.328 . S
C411 H417 0.929 . S
C412 C413 1.362 . S
C412 C415 1.378 . S
C412 H427 0.929 . S
C413 C412 1.362 . S
C413 C414 1.366 . S
C414 C411 1.365 . S
C414 C413 1.366 . S
C414 H428 0.930 . S
C415 C412 1.378 . S
C415 N416 1.315 . S
C415 H418 0.930 . S
N416 Co396 2.194 . S
N416 C411 1.328 . S
N416 C415 1.315 . S
H417 C411 0.929 . S
H418 C415 0.930 . S
H419 C407 0.929 . S
H420 C409 0.929 . S
O421 Co396 2.351 . S
O421 C424 1.244 . S
O422 Co396 2.155 . S
O422 C424 1.240 . S
O423 Co396 2.096 . S
O423 C404 1.247 . S
C424 O421 1.244 . S
C424 O422 1.240 . S
H425 C399 0.931 . S
H426 C408 0.931 . S
H427 C412 0.929 . S
H428 C414 0.930 . S
Co429 N433 2.148 . S
Co429 N439 2.128 . S
Co429 N449 2.194 . S
Co429 O454 2.351 . S
Co429 O455 2.155 . S
Co429 O456 2.096 . S
C430 N433 1.301 . S
C430 N434 1.328 . S
C430 H435 0.930 . S
C431 C432 1.333 . S
C431 N433 1.317 . S
C431 H436 0.930 . S
C432 C431 1.333 . S
C432 N434 1.350 . S
C432 H458 0.931 . S
N433 Co429 2.148 . S
N433 C430 1.301 . S
N433 C431 1.317 . S
N434 C430 1.328 . S
N434 C432 1.350 . S
H435 C430 0.930 . S
H436 C431 0.930 . S
C437 O438 1.224 . S
C437 O456 1.247 . S
O438 C437 1.224 . S
N439 Co429 2.128 . S
N439 C440 1.355 . S
N439 C442 1.311 . S
C440 N439 1.355 . S
C440 C441 1.363 . S
C440 H452 0.929 . S
C441 C440 1.363 . S
C441 N443 1.375 . S
C441 H459 0.931 . S
C442 N439 1.311 . S
C442 N443 1.347 . S
C442 H453 0.929 . S
N443 C441 1.375 . S
N443 C442 1.347 . S
C444 C447 1.365 . S
C444 N449 1.328 . S
C444 H450 0.929 . S
C445 C446 1.362 . S
C445 C448 1.378 . S
C445 H460 0.929 . S
C446 C445 1.362 . S
C446 C447 1.366 . S
C447 C444 1.365 . S
C447 C446 1.366 . S
C447 H461 0.930 . S
C448 C445 1.378 . S
C448 N449 1.315 . S
C448 H451 0.930 . S
N449 Co429 2.194 . S
N449 C444 1.328 . S
N449 C448 1.315 . S
H450 C444 0.929 . S
H451 C448 0.930 . S
H452 C440 0.929 . S
H453 C442 0.929 . S
O454 Co429 2.351 . S
O454 C457 1.244 . S
O455 Co429 2.155 . S
O455 C457 1.240 . S
O456 Co429 2.096 . S
O456 C437 1.247 . S
C457 O454 1.244 . S
C457 O455 1.240 . S
H458 C432 0.931 . S
H459 C441 0.931 . S
H460 C445 0.929 . S
H461 C447 0.930 . S
Co462 N466 2.148 . S
Co462 N472 2.128 . S
Co462 N482 2.194 1_455 S
Co462 O487 2.351 1_455 S
Co462 O488 2.155 . S
Co462 O489 2.096 . S
C463 N466 1.301 . S
C463 N467 1.328 . S
C463 H468 0.930 . S
C464 C465 1.333 . S
C464 N466 1.317 . S
C464 H469 0.930 . S
C465 C464 1.333 . S
C465 N467 1.350 . S
C465 H491 0.931 . S
N466 Co462 2.148 . S
N466 C463 1.301 . S
N466 C464 1.317 . S
N467 C463 1.328 . S
N467 C465 1.350 . S
H468 C463 0.930 . S
H469 C464 0.930 . S
C470 O471 1.224 . S
C470 O489 1.247 . S
O471 C470 1.224 . S
N472 Co462 2.128 . S
N472 C473 1.355 1_455 S
N472 C475 1.311 . S
C473 N472 1.355 1_655 S
C473 C474 1.363 . S
C473 H485 0.929 . S
C474 C473 1.363 . S
C474 N476 1.375 . S
C474 H492 0.931 . S
C475 N472 1.311 . S
C475 N476 1.347 1_455 S
C475 H486 0.929 . S
N476 C474 1.375 . S
N476 C475 1.347 1_655 S
C477 C480 1.365 . S
C477 N482 1.328 . S
C477 H483 0.929 . S
C478 C479 1.362 . S
C478 C481 1.378 1_655 S
C478 H493 0.929 1_655 S
C479 C478 1.362 . S
C479 C480 1.366 . S
C480 C477 1.365 . S
C480 C479 1.366 . S
C480 H494 0.930 . S
C481 C478 1.378 1_455 S
C481 N482 1.315 1_455 S
C481 H484 0.930 . S
N482 Co462 2.194 1_655 S
N482 C477 1.328 . S
N482 C481 1.315 1_655 S
H483 C477 0.929 . S
H484 C481 0.930 . S
H485 C473 0.929 . S
H486 C475 0.929 . S
O487 Co462 2.351 1_655 S
O487 C490 1.244 . S
O488 Co462 2.155 . S
O488 C490 1.240 1_455 S
O489 Co462 2.096 . S
O489 C470 1.247 . S
C490 O487 1.244 . S
C490 O488 1.240 1_655 S
H491 C465 0.931 . S
H492 C474 0.931 . S
H493 C478 0.929 1_455 S
H494 C480 0.930 . S
Co495 N499 2.148 . S
Co495 N505 2.128 . S
Co495 N515 2.194 1_545 S
Co495 O520 2.351 1_545 S
Co495 O521 2.155 . S
Co495 O522 2.096 . S
C496 N499 1.301 . S
C496 N500 1.328 . S
C496 H501 0.930 . S
C497 C498 1.333 . S
C497 N499 1.317 . S
C497 H502 0.930 . S
C498 C497 1.333 . S
C498 N500 1.350 . S
C498 H524 0.931 . S
N499 Co495 2.148 . S
N499 C496 1.301 . S
N499 C497 1.317 . S
N500 C496 1.328 . S
N500 C498 1.350 . S
H501 C496 0.930 . S
H502 C497 0.930 . S
C503 O504 1.224 . S
C503 O522 1.247 . S
O504 C503 1.224 . S
N505 Co495 2.128 . S
N505 C506 1.355 1_545 S
N505 C508 1.311 . S
C506 N505 1.355 1_565 S
C506 C507 1.363 . S
C506 H518 0.929 . S
C507 C506 1.363 . S
C507 N509 1.375 . S
C507 H525 0.931 . S
C508 N505 1.311 . S
C508 N509 1.347 1_545 S
C508 H519 0.929 . S
N509 C507 1.375 . S
N509 C508 1.347 1_565 S
C510 C513 1.365 . S
C510 N515 1.328 . S
C510 H516 0.929 . S
C511 C512 1.362 . S
C511 C514 1.378 1_565 S
C511 H526 0.929 1_565 S
C512 C511 1.362 . S
C512 C513 1.366 . S
C513 C510 1.365 . S
C513 C512 1.366 . S
C513 H527 0.930 . S
C514 C511 1.378 1_545 S
C514 N515 1.315 1_545 S
C514 H517 0.930 . S
N515 Co495 2.194 1_565 S
N515 C510 1.328 . S
N515 C514 1.315 1_565 S
H516 C510 0.929 . S
H517 C514 0.930 . S
H518 C506 0.929 . S
H519 C508 0.929 . S
O520 Co495 2.351 1_565 S
O520 C523 1.244 . S
O521 Co495 2.155 . S
O521 C523 1.240 1_545 S
O522 Co495 2.096 . S
O522 C503 1.247 . S
C523 O520 1.244 . S
C523 O521 1.240 1_565 S
H524 C498 0.931 . S
H525 C507 0.931 . S
H526 C511 0.929 1_545 S
H527 C513 0.930 . S
C528 C529 1.386 . S
C528 C530 1.383 . S
C528 H544 0.951 . S
C529 C528 1.386 . S
C529 C533 1.383 . S
C530 C528 1.383 . S
C530 C531 1.402 . S
C530 H545 0.951 . S
C531 C530 1.402 . S
C531 C532 1.375 . S
C531 C534 1.481 . S
C532 C531 1.375 . S
C532 C533 1.367 . S
C532 H546 0.951 . S
C533 C529 1.383 . S
C533 C532 1.367 . S
C533 H547 0.950 . S
C534 C531 1.481 . S
C534 C535 1.297 . S
C534 H548 0.950 . S
C535 C534 1.297 . S
C535 C536 1.479 . S
C535 H549 0.950 . S
C536 C535 1.479 . S
C536 C537 1.375 . S
C536 C542 1.404 . S
C537 C536 1.375 . S
C537 C538 1.369 . S
C537 H550 0.950 . S
C538 C537 1.369 . S
C538 C539 1.392 . S
C538 H551 0.951 . S
C539 C538 1.392 . S
C539 C541 1.384 . S
H540 C542 0.949 . S
C541 C539 1.384 . S
C541 C542 1.385 . S
C541 H543 0.950 . S
C542 C536 1.404 . S
C542 H540 0.949 . S
C542 C541 1.385 . S
H543 C541 0.950 . S
H544 C528 0.951 . S
H545 C530 0.951 . S
H546 C532 0.951 . S
H547 C533 0.950 . S
H548 C534 0.950 . S
H549 C535 0.950 . S
H550 C537 0.950 . S
H551 C538 0.951 . S
C552 C553 1.386 . S
C552 C554 1.383 . S
C552 H568 0.951 . S
C553 C552 1.386 . S
C553 C557 1.383 . S
C554 C552 1.383 . S
C554 C555 1.402 . S
C554 H569 0.951 . S
C555 C554 1.402 . S
C555 C556 1.375 . S
C555 C558 1.481 . S
C556 C555 1.375 . S
C556 C557 1.367 . S
C556 H570 0.951 . S
C557 C553 1.383 . S
C557 C556 1.367 . S
C557 H571 0.950 . S
C558 C555 1.481 . S
C558 C559 1.297 . S
C558 H572 0.950 . S
C559 C558 1.297 . S
C559 C560 1.479 . S
C559 H573 0.950 . S
C560 C559 1.479 . S
C560 C561 1.375 . S
C560 C566 1.404 . S
C561 C560 1.375 . S
C561 C562 1.369 . S
C561 H574 0.950 . S
C562 C561 1.369 . S
C562 C563 1.392 . S
C562 H575 0.951 . S
C563 C562 1.392 . S
C563 C565 1.384 . S
H564 C566 0.949 . S
C565 C563 1.384 . S
C565 C566 1.385 . S
C565 H567 0.950 . S
C566 C560 1.404 . S
C566 H564 0.949 . S
C566 C565 1.385 . S
H567 C565 0.950 . S
H568 C552 0.951 . S
H569 C554 0.951 . S
H570 C556 0.951 . S
H571 C557 0.950 . S
H572 C558 0.950 . S
H573 C559 0.950 . S
H574 C561 0.950 . S
H575 C562 0.951 . S
C576 C577 1.386 . S
C576 C578 1.383 . S
C576 H592 0.951 . S
C577 C576 1.386 . S
C577 C581 1.383 . S
C578 C576 1.383 . S
C578 C579 1.402 . S
C578 H593 0.951 . S
C579 C578 1.402 . S
C579 C580 1.375 . S
C579 C582 1.481 . S
C580 C579 1.375 . S
C580 C581 1.367 . S
C580 H594 0.951 . S
C581 C577 1.383 . S
C581 C580 1.367 . S
C581 H595 0.950 . S
C582 C579 1.481 . S
C582 C583 1.297 . S
C582 H596 0.950 . S
C583 C582 1.297 . S
C583 C584 1.479 . S
C583 H597 0.950 . S
C584 C583 1.479 . S
C584 C585 1.375 . S
C584 C590 1.404 . S
C585 C584 1.375 . S
C585 C586 1.369 . S
C585 H598 0.950 . S
C586 C585 1.369 . S
C586 C587 1.392 . S
C586 H599 0.951 . S
C587 C586 1.392 . S
C587 C589 1.384 . S
H588 C590 0.949 . S
C589 C587 1.384 . S
C589 C590 1.385 . S
C589 H591 0.950 . S
C590 C584 1.404 . S
C590 H588 0.949 . S
C590 C589 1.385 . S
H591 C589 0.950 . S
H592 C576 0.951 . S
H593 C578 0.951 . S
H594 C580 0.951 . S
H595 C581 0.950 . S
H596 C582 0.950 . S
H597 C583 0.950 . S
H598 C585 0.950 . S
H599 C586 0.951 . S
C600 C601 1.386 . S
C600 C602 1.383 . S
C600 H616 0.951 . S
C601 C600 1.386 . S
C601 C605 1.383 . S
C602 C600 1.383 . S
C602 C603 1.402 . S
C602 H617 0.951 . S
C603 C602 1.402 . S
C603 C604 1.375 . S
C603 C606 1.481 . S
C604 C603 1.375 . S
C604 C605 1.367 . S
C604 H618 0.951 . S
C605 C601 1.383 . S
C605 C604 1.367 . S
C605 H619 0.950 . S
C606 C603 1.481 . S
C606 C607 1.297 . S
C606 H620 0.950 . S
C607 C606 1.297 . S
C607 C608 1.479 . S
C607 H621 0.950 . S
C608 C607 1.479 . S
C608 C609 1.375 . S
C608 C614 1.404 . S
C609 C608 1.375 . S
C609 C610 1.369 . S
C609 H622 0.950 . S
C610 C609 1.369 . S
C610 C611 1.392 . S
C610 H623 0.951 . S
C611 C610 1.392 . S
C611 C613 1.384 . S
H612 C614 0.949 . S
C613 C611 1.384 . S
C613 C614 1.385 . S
C613 H615 0.950 . S
C614 C608 1.404 . S
C614 H612 0.949 . S
C614 C613 1.385 . S
H615 C613 0.950 . S
H616 C600 0.951 . S
H617 C602 0.951 . S
H618 C604 0.951 . S
H619 C605 0.950 . S
H620 C606 0.950 . S
H621 C607 0.950 . S
H622 C609 0.950 . S
H623 C610 0.951 . S
C624 C625 1.386 . S
C624 C626 1.383 . S
C624 H640 0.951 . S
C625 C624 1.386 . S
C625 C629 1.383 . S
C626 C624 1.383 . S
C626 C627 1.402 . S
C626 H641 0.951 . S
C627 C626 1.402 . S
C627 C628 1.375 . S
C627 C630 1.481 . S
C628 C627 1.375 . S
C628 C629 1.367 . S
C628 H642 0.951 . S
C629 C625 1.383 . S
C629 C628 1.367 . S
C629 H643 0.950 . S
C630 C627 1.481 . S
C630 C631 1.297 . S
C630 H644 0.950 . S
C631 C630 1.297 . S
C631 C632 1.479 . S
C631 H645 0.950 . S
C632 C631 1.479 . S
C632 C633 1.375 . S
C632 C638 1.404 . S
C633 C632 1.375 . S
C633 C634 1.369 . S
C633 H646 0.950 . S
C634 C633 1.369 . S
C634 C635 1.392 . S
C634 H647 0.951 . S
C635 C634 1.392 . S
C635 C637 1.384 . S
H636 C638 0.949 . S
C637 C635 1.384 . S
C637 C638 1.385 . S
C637 H639 0.950 . S
C638 C632 1.404 . S
C638 H636 0.949 . S
C638 C637 1.385 . S
H639 C637 0.950 . S
H640 C624 0.951 . S
H641 C626 0.951 . S
H642 C628 0.951 . S
H643 C629 0.950 . S
H644 C630 0.950 . S
H645 C631 0.950 . S
H646 C633 0.950 . S
H647 C634 0.951 . S
C648 C649 1.386 . S
C648 C650 1.383 . S
C648 H664 0.951 . S
C649 C648 1.386 . S
C649 C653 1.383 . S
C650 C648 1.383 . S
C650 C651 1.402 . S
C650 H665 0.951 . S
C651 C650 1.402 . S
C651 C652 1.375 . S
C651 C654 1.481 . S
C652 C651 1.375 . S
C652 C653 1.367 . S
C652 H666 0.951 . S
C653 C649 1.383 . S
C653 C652 1.367 . S
C653 H667 0.950 . S
C654 C651 1.481 . S
C654 C655 1.297 . S
C654 H668 0.950 . S
C655 C654 1.297 . S
C655 C656 1.479 . S
C655 H669 0.950 . S
C656 C655 1.479 . S
C656 C657 1.375 . S
C656 C662 1.404 . S
C657 C656 1.375 . S
C657 C658 1.369 . S
C657 H670 0.950 . S
C658 C657 1.369 . S
C658 C659 1.392 . S
C658 H671 0.951 . S
C659 C658 1.392 . S
C659 C661 1.384 . S
H660 C662 0.949 . S
C661 C659 1.384 . S
C661 C662 1.385 . S
C661 H663 0.950 . S
C662 C656 1.404 . S
C662 H660 0.949 . S
C662 C661 1.385 . S
H663 C661 0.950 . S
H664 C648 0.951 . S
H665 C650 0.951 . S
H666 C652 0.951 . S
H667 C653 0.950 . S
H668 C654 0.950 . S
H669 C655 0.950 . S
H670 C657 0.950 . S
H671 C658 0.951 . S
C672 C673 1.386 . S
C672 C674 1.383 . S
C672 H688 0.951 . S
C673 C672 1.386 . S
C673 C677 1.383 . S
C674 C672 1.383 . S
C674 C675 1.402 . S
C674 H689 0.951 . S
C675 C674 1.402 . S
C675 C676 1.375 . S
C675 C678 1.481 . S
C676 C675 1.375 . S
C676 C677 1.367 . S
C676 H690 0.951 . S
C677 C673 1.383 . S
C677 C676 1.367 . S
C677 H691 0.950 . S
C678 C675 1.481 . S
C678 C679 1.297 . S
C678 H692 0.950 . S
C679 C678 1.297 . S
C679 C680 1.479 . S
C679 H693 0.950 . S
C680 C679 1.479 . S
C680 C681 1.375 . S
C680 C686 1.404 . S
C681 C680 1.375 . S
C681 C682 1.369 . S
C681 H694 0.950 . S
C682 C681 1.369 . S
C682 C683 1.392 . S
C682 H695 0.951 . S
C683 C682 1.392 . S
C683 C685 1.384 . S
H684 C686 0.949 . S
C685 C683 1.384 . S
C685 C686 1.385 . S
C685 H687 0.950 . S
C686 C680 1.404 . S
C686 H684 0.949 . S
C686 C685 1.385 . S
H687 C685 0.950 . S
H688 C672 0.951 . S
H689 C674 0.951 . S
H690 C676 0.951 . S
H691 C677 0.950 . S
H692 C678 0.950 . S
H693 C679 0.950 . S
H694 C681 0.950 . S
H695 C682 0.951 . S
C696 C697 1.386 . S
C696 C698 1.383 . S
C696 H712 0.951 . S
C697 C696 1.386 . S
C697 C701 1.383 . S
C698 C696 1.383 . S
C698 C699 1.402 . S
C698 H713 0.951 . S
C699 C698 1.402 . S
C699 C700 1.375 . S
C699 C702 1.481 . S
C700 C699 1.375 . S
C700 C701 1.367 . S
C700 H714 0.951 . S
C701 C697 1.383 . S
C701 C700 1.367 . S
C701 H715 0.950 . S
C702 C699 1.481 . S
C702 C703 1.297 . S
C702 H716 0.950 . S
C703 C702 1.297 . S
C703 C704 1.479 . S
C703 H717 0.950 . S
C704 C703 1.479 . S
C704 C705 1.375 . S
C704 C710 1.404 . S
C705 C704 1.375 . S
C705 C706 1.369 . S
C705 H718 0.950 . S
C706 C705 1.369 . S
C706 C707 1.392 . S
C706 H719 0.951 . S
C707 C706 1.392 . S
C707 C709 1.384 . S
H708 C710 0.949 . S
C709 C707 1.384 . S
C709 C710 1.385 . S
C709 H711 0.950 . S
C710 C704 1.404 . S
C710 H708 0.949 . S
C710 C709 1.385 . S
H711 C709 0.950 . S
H712 C696 0.951 . S
H713 C698 0.951 . S
H714 C700 0.951 . S
H715 C701 0.950 . S
H716 C702 0.950 . S
H717 C703 0.950 . S
H718 C705 0.950 . S
H719 C706 0.951 . S
C720 C721 1.386 . S
C720 C722 1.383 . S
C720 H736 0.951 . S
C721 C720 1.386 . S
C721 C725 1.383 . S
C722 C720 1.383 . S
C722 C723 1.402 . S
C722 H737 0.951 . S
C723 C722 1.402 . S
C723 C724 1.375 . S
C723 C726 1.481 . S
C724 C723 1.375 . S
C724 C725 1.367 . S
C724 H738 0.951 . S
C725 C721 1.383 . S
C725 C724 1.367 . S
C725 H739 0.950 . S
C726 C723 1.481 . S
C726 C727 1.297 . S
C726 H740 0.950 . S
C727 C726 1.297 . S
C727 C728 1.479 . S
C727 H741 0.950 . S
C728 C727 1.479 . S
C728 C729 1.375 . S
C728 C734 1.404 . S
C729 C728 1.375 . S
C729 C730 1.369 . S
C729 H742 0.950 . S
C730 C729 1.369 . S
C730 C731 1.392 . S
C730 H743 0.951 . S
C731 C730 1.392 . S
C731 C733 1.384 . S
H732 C734 0.949 . S
C733 C731 1.384 . S
C733 C734 1.385 . S
C733 H735 0.950 . S
C734 C728 1.404 . S
C734 H732 0.949 . S
C734 C733 1.385 . S
H735 C733 0.950 . S
H736 C720 0.951 . S
H737 C722 0.951 . S
H738 C724 0.951 . S
H739 C725 0.950 . S
H740 C726 0.950 . S
H741 C727 0.950 . S
H742 C729 0.950 . S
H743 C730 0.951 . S
C744 C745 1.386 . S
C744 C746 1.383 . S
C744 H760 0.951 . S
C745 C744 1.386 . S
C745 C749 1.383 . S
C746 C744 1.383 . S
C746 C747 1.402 . S
C746 H761 0.951 . S
C747 C746 1.402 . S
C747 C748 1.375 . S
C747 C750 1.481 . S
C748 C747 1.375 . S
C748 C749 1.367 . S
C748 H762 0.951 . S
C749 C745 1.383 . S
C749 C748 1.367 . S
C749 H763 0.950 . S
C750 C747 1.481 . S
C750 C751 1.297 . S
C750 H764 0.950 . S
C751 C750 1.297 . S
C751 C752 1.479 . S
C751 H765 0.950 . S
C752 C751 1.479 . S
C752 C753 1.375 . S
C752 C758 1.404 . S
C753 C752 1.375 . S
C753 C754 1.369 . S
C753 H766 0.950 . S
C754 C753 1.369 . S
C754 C755 1.392 . S
C754 H767 0.951 . S
C755 C754 1.392 . S
C755 C757 1.384 . S
H756 C758 0.949 . S
C757 C755 1.384 . S
C757 C758 1.385 . S
C757 H759 0.950 . S
C758 C752 1.404 . S
C758 H756 0.949 . S
C758 C757 1.385 . S
H759 C757 0.950 . S
H760 C744 0.951 . S
H761 C746 0.951 . S
H762 C748 0.951 . S
H763 C749 0.950 . S
H764 C750 0.950 . S
H765 C751 0.950 . S
H766 C753 0.950 . S
H767 C754 0.951 . S
C768 C769 1.386 . S
C768 C770 1.383 . S
C768 H784 0.951 . S
C769 C768 1.386 . S
C769 C773 1.383 . S
C770 C768 1.383 . S
C770 C771 1.402 . S
C770 H785 0.951 . S
C771 C770 1.402 . S
C771 C772 1.375 . S
C771 C774 1.481 . S
C772 C771 1.375 . S
C772 C773 1.367 . S
C772 H786 0.951 . S
C773 C769 1.383 . S
C773 C772 1.367 . S
C773 H787 0.950 . S
C774 C771 1.481 . S
C774 C775 1.297 . S
C774 H788 0.950 . S
C775 C774 1.297 . S
C775 C776 1.479 . S
C775 H789 0.950 . S
C776 C775 1.479 . S
C776 C777 1.375 . S
C776 C782 1.404 . S
C777 C776 1.375 . S
C777 C778 1.369 . S
C777 H790 0.950 . S
C778 C777 1.369 . S
C778 C779 1.392 . S
C778 H791 0.951 . S
C779 C778 1.392 . S
C779 C781 1.384 . S
H780 C782 0.949 . S
C781 C779 1.384 . S
C781 C782 1.385 . S
C781 H783 0.950 . S
C782 C776 1.404 . S
C782 H780 0.949 . S
C782 C781 1.385 . S
H783 C781 0.950 . S
H784 C768 0.951 . S
H785 C770 0.951 . S
H786 C772 0.951 . S
H787 C773 0.950 . S
H788 C774 0.950 . S
H789 C775 0.950 . S
H790 C777 0.950 . S
H791 C778 0.951 . S
C792 C793 1.386 . S
C792 C794 1.383 . S
C792 H808 0.951 . S
C793 C792 1.386 . S
C793 C797 1.383 . S
C794 C792 1.383 . S
C794 C795 1.402 . S
C794 H809 0.951 . S
C795 C794 1.402 . S
C795 C796 1.375 . S
C795 C798 1.481 . S
C796 C795 1.375 . S
C796 C797 1.367 . S
C796 H810 0.951 . S
C797 C793 1.383 . S
C797 C796 1.367 . S
C797 H811 0.950 . S
C798 C795 1.481 . S
C798 C799 1.297 . S
C798 H812 0.950 . S
C799 C798 1.297 . S
C799 C800 1.479 . S
C799 H813 0.950 . S
C800 C799 1.479 . S
C800 C801 1.375 . S
C800 C806 1.404 . S
C801 C800 1.375 . S
C801 C802 1.369 . S
C801 H814 0.950 . S
C802 C801 1.369 . S
C802 C803 1.392 . S
C802 H815 0.951 . S
C803 C802 1.392 . S
C803 C805 1.384 . S
H804 C806 0.949 . S
C805 C803 1.384 . S
C805 C806 1.385 . S
C805 H807 0.950 . S
C806 C800 1.404 . S
C806 H804 0.949 . S
C806 C805 1.385 . S
H807 C805 0.950 . S
H808 C792 0.951 . S
H809 C794 0.951 . S
H810 C796 0.951 . S
H811 C797 0.950 . S
H812 C798 0.950 . S
H813 C799 0.950 . S
H814 C801 0.950 . S
H815 C802 0.951 . S
C816 C817 1.386 . S
C816 C818 1.383 . S
C816 H832 0.951 . S
C817 C816 1.386 . S
C817 C821 1.383 . S
C818 C816 1.383 . S
C818 C819 1.402 . S
C818 H833 0.951 . S
C819 C818 1.402 . S
C819 C820 1.375 . S
C819 C822 1.481 . S
C820 C819 1.375 . S
C820 C821 1.367 . S
C820 H834 0.951 . S
C821 C817 1.383 . S
C821 C820 1.367 . S
C821 H835 0.950 . S
C822 C819 1.481 . S
C822 C823 1.297 . S
C822 H836 0.950 . S
C823 C822 1.297 . S
C823 C824 1.479 . S
C823 H837 0.950 . S
C824 C823 1.479 . S
C824 C825 1.375 . S
C824 C830 1.404 . S
C825 C824 1.375 . S
C825 C826 1.369 . S
C825 H838 0.950 . S
C826 C825 1.369 . S
C826 C827 1.392 . S
C826 H839 0.951 . S
C827 C826 1.392 . S
C827 C829 1.384 . S
H828 C830 0.949 . S
C829 C827 1.384 . S
C829 C830 1.385 . S
C829 H831 0.950 . S
C830 C824 1.404 . S
C830 H828 0.949 . S
C830 C829 1.385 . S
H831 C829 0.950 . S
H832 C816 0.951 . S
H833 C818 0.951 . S
H834 C820 0.951 . S
H835 C821 0.950 . S
H836 C822 0.950 . S
H837 C823 0.950 . S
H838 C825 0.950 . S
H839 C826 0.951 . S
C840 C841 1.386 . S
C840 C842 1.383 . S
C840 H856 0.951 . S
C841 C840 1.386 . S
C841 C845 1.383 . S
C842 C840 1.383 . S
C842 C843 1.402 . S
C842 H857 0.951 . S
C843 C842 1.402 . S
C843 C844 1.375 . S
C843 C846 1.481 . S
C844 C843 1.375 . S
C844 C845 1.367 . S
C844 H858 0.951 . S
C845 C841 1.383 . S
C845 C844 1.367 . S
C845 H859 0.950 . S
C846 C843 1.481 . S
C846 C847 1.297 . S
C846 H860 0.950 . S
C847 C846 1.297 . S
C847 C848 1.479 . S
C847 H861 0.950 . S
C848 C847 1.479 . S
C848 C849 1.375 . S
C848 C854 1.404 . S
C849 C848 1.375 . S
C849 C850 1.369 . S
C849 H862 0.950 . S
C850 C849 1.369 . S
C850 C851 1.392 . S
C850 H863 0.951 . S
C851 C850 1.392 . S
C851 C853 1.384 . S
H852 C854 0.949 . S
C853 C851 1.384 . S
C853 C854 1.385 . S
C853 H855 0.950 . S
C854 C848 1.404 . S
C854 H852 0.949 . S
C854 C853 1.385 . S
H855 C853 0.950 . S
H856 C840 0.951 . S
H857 C842 0.951 . S
H858 C844 0.951 . S
H859 C845 0.950 . S
H860 C846 0.950 . S
H861 C847 0.950 . S
H862 C849 0.950 . S
H863 C850 0.951 . S
C864 C865 1.386 . S
C864 C866 1.383 . S
C864 H880 0.951 . S
C865 C864 1.386 . S
C865 C869 1.383 . S
C866 C864 1.383 . S
C866 C867 1.402 . S
C866 H881 0.951 . S
C867 C866 1.402 . S
C867 C868 1.375 . S
C867 C870 1.481 . S
C868 C867 1.375 . S
C868 C869 1.367 . S
C868 H882 0.951 . S
C869 C865 1.383 . S
C869 C868 1.367 . S
C869 H883 0.950 . S
C870 C867 1.481 . S
C870 C871 1.297 . S
C870 H884 0.950 . S
C871 C870 1.297 . S
C871 C872 1.479 . S
C871 H885 0.950 . S
C872 C871 1.479 . S
C872 C873 1.375 . S
C872 C878 1.404 . S
C873 C872 1.375 . S
C873 C874 1.369 . S
C873 H886 0.950 . S
C874 C873 1.369 . S
C874 C875 1.392 . S
C874 H887 0.951 . S
C875 C874 1.392 . S
C875 C877 1.384 . S
H876 C878 0.949 . S
C877 C875 1.384 . S
C877 C878 1.385 . S
C877 H879 0.950 . S
C878 C872 1.404 . S
C878 H876 0.949 . S
C878 C877 1.385 . S
H879 C877 0.950 . S
H880 C864 0.951 . S
H881 C866 0.951 . S
H882 C868 0.951 . S
H883 C869 0.950 . S
H884 C870 0.950 . S
H885 C871 0.950 . S
H886 C873 0.950 . S
H887 C874 0.951 . S
C888 C889 1.386 . S
C888 C890 1.383 . S
C888 H904 0.951 . S
C889 C888 1.386 . S
C889 C893 1.383 . S
C890 C888 1.383 . S
C890 C891 1.402 . S
C890 H905 0.951 . S
C891 C890 1.402 . S
C891 C892 1.375 . S
C891 C894 1.481 . S
C892 C891 1.375 . S
C892 C893 1.367 . S
C892 H906 0.951 . S
C893 C889 1.383 . S
C893 C892 1.367 . S
C893 H907 0.950 . S
C894 C891 1.481 . S
C894 C895 1.297 . S
C894 H908 0.950 . S
C895 C894 1.297 . S
C895 C896 1.479 . S
C895 H909 0.950 . S
C896 C895 1.479 . S
C896 C897 1.375 . S
C896 C902 1.404 . S
C897 C896 1.375 . S
C897 C898 1.369 . S
C897 H910 0.950 . S
C898 C897 1.369 . S
C898 C899 1.392 . S
C898 H911 0.951 . S
C899 C898 1.392 . S
C899 C901 1.384 . S
H900 C902 0.949 . S
C901 C899 1.384 . S
C901 C902 1.385 . S
C901 H903 0.950 . S
C902 C896 1.404 . S
C902 H900 0.949 . S
C902 C901 1.385 . S
H903 C901 0.950 . S
H904 C888 0.951 . S
H905 C890 0.951 . S
H906 C892 0.951 . S
H907 C893 0.950 . S
H908 C894 0.950 . S
H909 C895 0.950 . S
H910 C897 0.950 . S
H911 C898 0.951 . S
C912 C913 1.386 . S
C912 C914 1.383 . S
C912 H928 0.951 . S
C913 C912 1.386 . S
C913 C917 1.383 . S
C914 C912 1.383 . S
C914 C915 1.402 . S
C914 H929 0.951 . S
C915 C914 1.402 . S
C915 C916 1.375 . S
C915 C918 1.481 . S
C916 C915 1.375 . S
C916 C917 1.367 . S
C916 H930 0.951 . S
C917 C913 1.383 . S
C917 C916 1.367 . S
C917 H931 0.950 . S
C918 C915 1.481 . S
C918 C919 1.297 . S
C918 H932 0.950 . S
C919 C918 1.297 . S
C919 C920 1.479 . S
C919 H933 0.950 . S
C920 C919 1.479 . S
C920 C921 1.375 . S
C920 C926 1.404 . S
C921 C920 1.375 . S
C921 C922 1.369 . S
C921 H934 0.950 . S
C922 C921 1.369 . S
C922 C923 1.392 . S
C922 H935 0.951 . S
C923 C922 1.392 . S
C923 C925 1.384 . S
H924 C926 0.949 . S
C925 C923 1.384 . S
C925 C926 1.385 . S
C925 H927 0.950 . S
C926 C920 1.404 . S
C926 H924 0.949 . S
C926 C925 1.385 . S
H927 C925 0.950 . S
H928 C912 0.951 . S
H929 C914 0.951 . S
H930 C916 0.951 . S
H931 C917 0.950 . S
H932 C918 0.950 . S
H933 C919 0.950 . S
H934 C921 0.950 . S
H935 C922 0.951 . S
C936 C937 1.386 . S
C936 C938 1.383 . S
C936 H952 0.951 . S
C937 C936 1.386 . S
C937 C941 1.383 . S
C938 C936 1.383 . S
C938 C939 1.402 . S
C938 H953 0.951 . S
C939 C938 1.402 . S
C939 C940 1.375 . S
C939 C942 1.481 . S
C940 C939 1.375 . S
C940 C941 1.367 . S
C940 H954 0.951 . S
C941 C937 1.383 . S
C941 C940 1.367 . S
C941 H955 0.950 . S
C942 C939 1.481 . S
C942 C943 1.297 . S
C942 H956 0.950 . S
C943 C942 1.297 . S
C943 C944 1.479 . S
C943 H957 0.950 . S
C944 C943 1.479 . S
C944 C945 1.375 . S
C944 C950 1.404 . S
C945 C944 1.375 . S
C945 C946 1.369 . S
C945 H958 0.950 . S
C946 C945 1.369 . S
C946 C947 1.392 . S
C946 H959 0.951 . S
C947 C946 1.392 . S
C947 C949 1.384 . S
H948 C950 0.949 . S
C949 C947 1.384 . S
C949 C950 1.385 . S
C949 H951 0.950 . S
C950 C944 1.404 . S
C950 H948 0.949 . S
C950 C949 1.385 . S
H951 C949 0.950 . S
H952 C936 0.951 . S
H953 C938 0.951 . S
H954 C940 0.951 . S
H955 C941 0.950 . S
H956 C942 0.950 . S
H957 C943 0.950 . S
H958 C945 0.950 . S
H959 C946 0.951 . S
C960 C961 1.386 . S
C960 C962 1.383 . S
C960 H976 0.951 . S
C961 C960 1.386 . S
C961 C965 1.383 . S
C962 C960 1.383 . S
C962 C963 1.402 . S
C962 H977 0.951 1_655 S
C963 C962 1.402 . S
C963 C964 1.375 . S
C963 C966 1.481 . S
C964 C963 1.375 . S
C964 C965 1.367 . S
C964 H978 0.951 . S
C965 C961 1.383 . S
C965 C964 1.367 . S
C965 H979 0.950 . S
C966 C963 1.481 . S
C966 C967 1.297 . S
C966 H980 0.950 . S
C967 C966 1.297 . S
C967 C968 1.479 . S
C967 H981 0.969 . S
C968 C967 1.479 . S
C968 C969 1.375 1_655 S
C968 C974 1.404 . S
C969 C968 1.375 1_455 S
C969 C970 1.369 . S
C969 H982 0.950 . S
C970 C969 1.369 . S
C970 C971 1.392 . S
C970 H983 0.951 . S
C971 C970 1.392 . S
C971 C973 1.384 1_455 S
H972 C974 0.949 . S
C973 C971 1.384 1_655 S
C973 C974 1.385 . S
C973 H975 0.950 . S
C974 C968 1.404 . S
C974 H972 0.949 . S
C974 C973 1.385 . S
H975 C973 0.950 . S
H976 C960 0.951 . S
H977 C962 0.951 1_455 S
H978 C964 0.951 . S
H979 C965 0.950 . S
H980 C966 0.950 . S
H981 C967 0.969 . S
H982 C969 0.950 . S
H983 C970 0.951 . S
C984 C985 1.381 1_565 S
C984 C986 1.383 . S
C984 H1000 0.951 . S
C985 C984 1.381 1_545 S
C985 C989 1.383 . S
C986 C984 1.383 . S
C986 C987 1.402 . S
C986 H1001 0.951 . S
C987 C986 1.402 . S
C987 C988 1.375 . S
C987 C990 1.481 . S
C988 C987 1.375 . S
C988 C989 1.367 1_565 S
C988 H1002 0.951 . S
C989 C985 1.383 . S
C989 C988 1.367 1_545 S
C989 H1003 0.950 . S
C990 C987 1.481 . S
C990 C991 1.297 . S
C990 H1004 0.950 . S
C991 C990 1.297 . S
C991 C992 1.479 . S
C991 H1005 0.950 . S
C992 C991 1.479 . S
C992 C993 1.375 . S
C992 C998 1.404 . S
C993 C992 1.375 . S
C993 C994 1.369 . S
C993 H1006 0.950 . S
C994 C993 1.369 . S
C994 C995 1.392 . S
C994 H1007 0.951 . S
C995 C994 1.392 . S
C995 C997 1.384 . S
H996 C998 0.949 . S
C997 C995 1.384 . S
C997 C998 1.385 . S
C997 H999 0.950 . S
C998 C992 1.404 . S
C998 H996 0.949 . S
C998 C997 1.385 . S
H999 C997 0.950 . S
H1000 C984 0.951 . S
H1001 C986 0.951 . S
H1002 C988 0.951 . S
H1003 C989 0.950 . S
H1004 C990 0.950 . S
H1005 C991 0.950 . S
H1006 C993 0.950 . S
H1007 C994 0.951 . S
C1008 C1009 1.386 . S
C1008 C1010 1.383 . S
C1008 H1024 0.951 . S
C1009 C1008 1.386 . S
C1009 C1013 1.383 . S
C1010 C1008 1.383 . S
C1010 C1011 1.402 . S
C1010 H1025 0.951 . S
C1011 C1010 1.402 . S
C1011 C1012 1.375 . S
C1011 C1014 1.481 . S
C1012 C1011 1.375 . S
C1012 C1013 1.367 . S
C1012 H1026 0.951 . S
C1013 C1009 1.383 . S
C1013 C1012 1.367 . S
C1013 H1027 0.950 . S
C1014 C1011 1.481 . S
C1014 C1015 1.297 . S
C1014 H1028 0.950 . S
C1015 C1014 1.297 . S
C1015 C1016 1.479 . S
C1015 H1029 0.950 . S
C1016 C1015 1.479 . S
C1016 C1017 1.375 . S
C1016 C1022 1.404 . S
C1017 C1016 1.375 . S
C1017 C1018 1.369 . S
C1017 H1030 0.950 . S
C1018 C1017 1.369 . S
C1018 C1019 1.392 . S
C1018 H1031 0.951 . S
C1019 C1018 1.392 . S
C1019 C1021 1.384 . S
H1020 C1022 0.949 . S
C1021 C1019 1.384 . S
C1021 C1022 1.385 . S
C1021 H1023 0.950 . S
C1022 C1016 1.404 . S
C1022 H1020 0.949 . S
C1022 C1021 1.385 . S
H1023 C1021 0.950 . S
H1024 C1008 0.951 . S
H1025 C1010 0.951 . S
H1026 C1012 0.951 . S
H1027 C1013 0.950 . S
H1028 C1014 0.950 . S
H1029 C1015 0.950 . S
H1030 C1017 0.950 . S
H1031 C1018 0.951 . S
C1032 C1033 1.386 . S
C1032 C1034 1.383 . S
C1032 H1048 0.951 . S
C1033 C1032 1.386 . S
C1033 C1037 1.383 . S
C1034 C1032 1.383 . S
C1034 C1035 1.402 . S
C1034 H1049 0.951 . S
C1035 C1034 1.402 . S
C1035 C1036 1.375 . S
C1035 C1038 1.481 . S
C1036 C1035 1.375 . S
C1036 C1037 1.367 . S
C1036 H1050 0.951 . S
C1037 C1033 1.383 . S
C1037 C1036 1.367 . S
C1037 H1051 0.950 . S
C1038 C1035 1.481 . S
C1038 C1039 1.297 . S
C1038 H1052 0.950 . S
C1039 C1038 1.297 . S
C1039 C1040 1.479 . S
C1039 H1053 0.950 . S
C1040 C1039 1.479 . S
C1040 C1041 1.375 . S
C1040 C1046 1.404 . S
C1041 C1040 1.375 . S
C1041 C1042 1.369 . S
C1041 H1054 0.950 . S
C1042 C1041 1.369 . S
C1042 C1043 1.392 . S
C1042 H1055 0.951 . S
C1043 C1042 1.392 . S
C1043 C1045 1.384 . S
H1044 C1046 0.949 . S
C1045 C1043 1.384 . S
C1045 C1046 1.385 . S
C1045 H1047 0.950 . S
C1046 C1040 1.404 . S
C1046 H1044 0.949 . S
C1046 C1045 1.385 . S
H1047 C1045 0.950 . S
H1048 C1032 0.951 . S
H1049 C1034 0.951 . S
H1050 C1036 0.951 . S
H1051 C1037 0.950 . S
H1052 C1038 0.950 . S
H1053 C1039 0.950 . S
H1054 C1041 0.950 . S
H1055 C1042 0.951 . S
C1056 C1057 1.386 . S
C1056 C1058 1.383 . S
C1056 H1072 0.951 . S
C1057 C1056 1.386 . S
C1057 C1061 1.383 . S
C1058 C1056 1.383 . S
C1058 C1059 1.402 . S
C1058 H1073 0.951 . S
C1059 C1058 1.402 . S
C1059 C1060 1.375 . S
C1059 C1062 1.481 . S
C1060 C1059 1.375 . S
C1060 C1061 1.367 . S
C1060 H1074 0.951 . S
C1061 C1057 1.383 . S
C1061 C1060 1.367 . S
C1061 H1075 0.950 1_565 S
C1062 C1059 1.481 . S
C1062 C1063 1.297 . S
C1062 H1076 0.950 . S
C1063 C1062 1.297 . S
C1063 C1064 1.479 . S
C1063 H1077 0.950 . S
C1064 C1063 1.479 . S
C1064 C1065 1.375 . S
C1064 C1070 1.404 . S
C1065 C1064 1.375 . S
C1065 C1066 1.369 . S
C1065 H1078 0.950 . S
C1066 C1065 1.369 . S
C1066 C1067 1.392 . S
C1066 H1079 0.951 . S
C1067 C1066 1.392 . S
C1067 C1069 1.384 1_655 S
H1068 C1070 0.949 1_455 S
C1069 C1067 1.384 1_455 S
C1069 C1070 1.385 1_455 S
C1069 H1071 0.950 . S
C1070 C1064 1.404 . S
C1070 H1068 0.949 1_655 S
C1070 C1069 1.385 1_655 S
H1071 C1069 0.950 . S
H1072 C1056 0.951 . S
H1073 C1058 0.951 . S
H1074 C1060 0.951 . S
H1075 C1061 0.950 1_545 S
H1076 C1062 0.950 . S
H1077 C1063 0.950 . S
H1078 C1065 0.950 . S
H1079 C1066 0.951 . S
C1080 C1081 1.386 . S
C1080 C1082 1.383 . S
C1080 H1096 0.951 . S
C1081 C1080 1.386 . S
C1081 C1085 1.383 . S
C1082 C1080 1.383 . S
C1082 C1083 1.402 . S
C1082 H1097 0.951 . S
C1083 C1082 1.402 . S
C1083 C1084 1.375 . S
C1083 C1086 1.481 . S
C1084 C1083 1.375 . S
C1084 C1085 1.367 . S
C1084 H1098 0.951 . S
C1085 C1081 1.383 . S
C1085 C1084 1.367 . S
C1085 H1099 0.950 . S
C1086 C1083 1.481 . S
C1086 C1087 1.297 . S
C1086 H1100 0.949 1_565 S
C1087 C1086 1.297 . S
C1087 C1088 1.479 . S
C1087 H1101 0.950 . S
C1088 C1087 1.479 . S
C1088 C1089 1.375 . S
C1088 C1094 1.404 1_565 S
C1089 C1088 1.375 . S
C1089 C1090 1.369 . S
C1089 H1102 0.950 . S
C1090 C1089 1.369 . S
C1090 C1091 1.392 1_565 S
C1090 H1103 0.951 . S
C1091 C1090 1.392 1_545 S
C1091 C1093 1.384 . S
H1092 C1094 0.949 . S
C1093 C1091 1.384 . S
C1093 C1094 1.385 . S
C1093 H1095 0.950 . S
C1094 C1088 1.404 1_545 S
C1094 H1092 0.949 . S
C1094 C1093 1.385 . S
H1095 C1093 0.950 . S
H1096 C1080 0.951 . S
H1097 C1082 0.951 . S
H1098 C1084 0.951 . S
H1099 C1085 0.950 . S
H1100 C1086 0.949 1_545 S
H1101 C1087 0.950 . S
H1102 C1089 0.950 . S
H1103 C1090 0.951 . S
C1104 C1105 1.386 . S
C1104 C1106 1.383 . S
C1104 H1120 0.951 . S
C1105 C1104 1.386 . S
C1105 C1109 1.383 . S
C1106 C1104 1.383 . S
C1106 C1107 1.402 . S
C1106 H1121 0.951 . S
C1107 C1106 1.402 . S
C1107 C1108 1.375 . S
C1107 C1110 1.481 . S
C1108 C1107 1.375 . S
C1108 C1109 1.367 . S
C1108 H1122 0.951 . S
C1109 C1105 1.383 . S
C1109 C1108 1.367 . S
C1109 H1123 0.950 . S
C1110 C1107 1.481 . S
C1110 C1111 1.297 . S
C1110 H1124 0.950 . S
C1111 C1110 1.297 . S
C1111 C1112 1.479 . S
C1111 H1125 0.950 . S
C1112 C1111 1.479 . S
C1112 C1113 1.375 . S
C1112 C1118 1.404 . S
C1113 C1112 1.375 . S
C1113 C1114 1.369 . S
C1113 H1126 0.950 . S
C1114 C1113 1.369 . S
C1114 C1115 1.392 . S
C1114 H1127 0.951 . S
C1115 C1114 1.392 . S
C1115 C1117 1.384 . S
H1116 C1118 0.949 . S
C1117 C1115 1.384 . S
C1117 C1118 1.385 . S
C1117 H1119 0.950 . S
C1118 C1112 1.404 . S
C1118 H1116 0.949 . S
C1118 C1117 1.385 . S
H1119 C1117 0.950 . S
H1120 C1104 0.951 . S
H1121 C1106 0.951 . S
H1122 C1108 0.951 . S
H1123 C1109 0.950 . S
H1124 C1110 0.950 . S
H1125 C1111 0.950 . S
H1126 C1113 0.950 . S
H1127 C1114 0.951 . S
C1128 C1129 1.386 . S
C1128 C1130 1.383 . S
C1128 H1144 0.951 . S
C1129 C1128 1.386 . S
C1129 C1133 1.383 . S
C1130 C1128 1.383 . S
C1130 C1131 1.402 . S
C1130 H1145 0.951 . S
C1131 C1130 1.402 . S
C1131 C1132 1.375 . S
C1131 C1134 1.481 . S
C1132 C1131 1.375 . S
C1132 C1133 1.367 . S
C1132 H1146 0.951 . S
C1133 C1129 1.383 . S
C1133 C1132 1.367 . S
C1133 H1147 0.950 . S
C1134 C1131 1.481 . S
C1134 C1135 1.297 . S
C1134 H1148 0.950 . S
C1135 C1134 1.297 . S
C1135 C1136 1.479 . S
C1135 H1149 0.950 . S
C1136 C1135 1.479 . S
C1136 C1137 1.375 . S
C1136 C1142 1.404 . S
C1137 C1136 1.375 . S
C1137 C1138 1.369 . S
C1137 H1150 0.950 . S
C1138 C1137 1.369 . S
C1138 C1139 1.392 . S
C1138 H1151 0.951 . S
C1139 C1138 1.392 . S
C1139 C1141 1.384 . S
H1140 C1142 0.949 . S
C1141 C1139 1.384 . S
C1141 C1142 1.385 . S
C1141 H1143 0.950 . S
C1142 C1136 1.404 . S
C1142 H1140 0.949 . S
C1142 C1141 1.385 . S
H1143 C1141 0.950 . S
H1144 C1128 0.951 . S
H1145 C1130 0.951 . S
H1146 C1132 0.951 . S
H1147 C1133 0.950 . S
H1148 C1134 0.950 . S
H1149 C1135 0.950 . S
H1150 C1137 0.950 . S
H1151 C1138 0.951 . S
C1152 C1153 1.386 1_455 S
C1152 C1154 1.383 . S
C1152 H1168 0.951 . S
C1153 C1152 1.386 1_655 S
C1153 C1157 1.383 . S
C1154 C1152 1.383 . S
C1154 C1155 1.402 . S
C1154 H1169 0.951 . S
C1155 C1154 1.402 . S
C1155 C1156 1.375 1_455 S
C1155 C1158 1.481 . S
C1156 C1155 1.375 1_655 S
C1156 C1157 1.367 . S
C1156 H1170 0.951 . S
C1157 C1153 1.383 . S
C1157 C1156 1.367 . S
C1157 H1171 0.950 . S
C1158 C1155 1.481 . S
C1158 C1159 1.297 . S
C1158 H1172 0.950 1_455 S
C1159 C1158 1.297 . S
C1159 C1160 1.479 . S
C1159 H1173 0.950 . S
C1160 C1159 1.479 . S
C1160 C1161 1.375 . S
C1160 C1166 1.404 . S
C1161 C1160 1.375 . S
C1161 C1162 1.369 . S
C1161 H1174 0.950 . S
C1162 C1161 1.369 . S
C1162 C1163 1.392 . S
C1162 H1175 0.951 . S
C1163 C1162 1.392 . S
C1163 C1165 1.384 . S
H1164 C1166 0.949 1_655 S
C1165 C1163 1.384 . S
C1165 C1166 1.385 . S
C1165 H1167 0.950 1_455 S
C1166 C1160 1.404 . S
C1166 H1164 0.949 1_455 S
C1166 C1165 1.385 . S
H1167 C1165 0.950 1_655 S
H1168 C1152 0.951 . S
H1169 C1154 0.951 . S
H1170 C1156 0.951 . S
H1171 C1157 0.950 . S
H1172 C1158 0.950 1_655 S
H1173 C1159 0.950 . S
H1174 C1161 0.950 . S
H1175 C1162 0.951 . S
C1176 C1177 1.382 1_565 S
C1176 C1178 1.383 . S
C1176 H1192 0.951 . S
C1177 C1176 1.382 1_545 S
C1177 C1181 1.389 . S
C1178 C1176 1.383 . S
C1178 C1179 1.402 1_565 S
C1178 H1193 0.951 . S
C1179 C1178 1.402 1_545 S
C1179 C1180 1.375 . S
C1179 C1182 1.481 . S
C1180 C1179 1.375 . S
C1180 C1181 1.367 . S
C1180 H1194 0.951 . S
C1181 C1177 1.389 . S
C1181 C1180 1.367 . S
C1181 H1195 0.950 . S
C1182 C1179 1.481 . S
C1182 C1183 1.297 . S
C1182 H1196 0.950 . S
C1183 C1182 1.297 . S
C1183 C1184 1.479 . S
C1183 H1197 0.950 1_545 S
C1184 C1183 1.479 . S
C1184 C1185 1.375 . S
C1184 C1190 1.404 . S
C1185 C1184 1.375 . S
C1185 C1186 1.369 . S
C1185 H1198 0.950 1_545 S
C1186 C1185 1.369 . S
C1186 C1187 1.392 . S
C1186 H1199 0.951 1_445 S
C1187 C1186 1.392 . S
C1187 C1189 1.384 . S
H1188 C1190 0.949 . S
C1189 C1187 1.384 . S
C1189 C1190 1.385 . S
C1189 H1191 0.950 . S
C1190 C1184 1.404 . S
C1190 H1188 0.949 . S
C1190 C1189 1.385 . S
H1191 C1189 0.950 . S
H1192 C1176 0.951 . S
H1193 C1178 0.951 . S
H1194 C1180 0.951 . S
H1195 C1181 0.950 . S
H1196 C1182 0.950 . S
H1197 C1183 0.950 1_565 S
H1198 C1185 0.950 1_565 S
H1199 C1186 0.951 1_665 S
C1200 C1201 1.386 . S
C1200 C1202 1.383 . S
C1200 H1216 0.951 . S
C1201 C1200 1.386 . S
C1201 C1205 1.383 . S
C1202 C1200 1.383 . S
C1202 C1203 1.402 . S
C1202 H1217 0.951 . S
C1203 C1202 1.402 . S
C1203 C1204 1.375 . S
C1203 C1206 1.481 . S
C1204 C1203 1.375 . S
C1204 C1205 1.367 . S
C1204 H1218 0.951 . S
C1205 C1201 1.383 . S
C1205 C1204 1.367 . S
C1205 H1219 0.950 . S
C1206 C1203 1.481 . S
C1206 C1207 1.297 . S
C1206 H1220 0.950 . S
C1207 C1206 1.297 . S
C1207 C1208 1.479 . S
C1207 H1221 0.950 . S
C1208 C1207 1.479 . S
C1208 C1209 1.375 . S
C1208 C1214 1.404 . S
C1209 C1208 1.375 . S
C1209 C1210 1.369 . S
C1209 H1222 0.950 . S
C1210 C1209 1.369 . S
C1210 C1211 1.392 . S
C1210 H1223 0.951 . S
C1211 C1210 1.392 . S
C1211 C1213 1.384 . S
H1212 C1214 0.949 . S
C1213 C1211 1.384 . S
C1213 C1214 1.385 . S
C1213 H1215 0.950 . S
C1214 C1208 1.404 . S
C1214 H1212 0.949 . S
C1214 C1213 1.385 . S
H1215 C1213 0.950 . S
H1216 C1200 0.951 . S
H1217 C1202 0.951 . S
H1218 C1204 0.951 . S
H1219 C1205 0.950 . S
H1220 C1206 0.950 . S
H1221 C1207 0.950 . S
H1222 C1209 0.950 . S
H1223 C1210 0.951 . S
C1224 C1225 1.386 . S
C1224 C1226 1.383 . S
C1224 H1240 0.951 . S
C1225 C1224 1.386 . S
C1225 C1229 1.383 . S
C1226 C1224 1.383 . S
C1226 C1227 1.402 . S
C1226 H1241 0.951 . S
C1227 C1226 1.402 . S
C1227 C1228 1.375 . S
C1227 C1230 1.481 . S
C1228 C1227 1.375 . S
C1228 C1229 1.367 . S
C1228 H1242 0.951 . S
C1229 C1225 1.383 . S
C1229 C1228 1.367 . S
C1229 H1243 0.950 . S
C1230 C1227 1.481 . S
C1230 C1231 1.297 . S
C1230 H1244 0.950 . S
C1231 C1230 1.297 . S
C1231 C1232 1.479 . S
C1231 H1245 0.950 . S
C1232 C1231 1.479 . S
C1232 C1233 1.375 . S
C1232 C1238 1.404 . S
C1233 C1232 1.375 . S
C1233 C1234 1.369 . S
C1233 H1246 0.950 . S
C1234 C1233 1.369 . S
C1234 C1235 1.392 . S
C1234 H1247 0.951 1_455 S
C1235 C1234 1.392 . S
C1235 C1237 1.384 . S
H1236 C1238 0.949 . S
C1237 C1235 1.384 . S
C1237 C1238 1.385 . S
C1237 H1239 0.950 . S
C1238 C1232 1.404 . S
C1238 H1236 0.949 . S
C1238 C1237 1.385 . S
H1239 C1237 0.950 . S
H1240 C1224 0.951 . S
H1241 C1226 0.951 . S
H1242 C1228 0.951 . S
H1243 C1229 0.950 . S
H1244 C1230 0.950 . S
H1245 C1231 0.950 . S
H1246 C1233 0.950 . S
H1247 C1234 0.951 1_655 S
C1248 C1249 1.386 1_455 S
C1248 C1250 1.383 . S
C1248 H1264 0.951 . S
C1249 C1248 1.386 1_655 S
C1249 C1253 1.383 . S
C1250 C1248 1.383 . S
C1250 C1251 1.402 . S
C1250 H1265 0.951 . S
C1251 C1250 1.402 . S
C1251 C1252 1.375 1_455 S
C1251 C1254 1.481 . S
C1252 C1251 1.375 1_655 S
C1252 C1253 1.367 . S
C1252 H1266 0.951 . S
C1253 C1249 1.383 . S
C1253 C1252 1.367 . S
C1253 H1267 0.950 . S
C1254 C1251 1.481 . S
C1254 C1255 1.297 . S
C1254 H1268 0.950 1_455 S
C1255 C1254 1.297 . S
C1255 C1256 1.479 . S
C1255 H1269 0.950 . S
C1256 C1255 1.479 . S
C1256 C1257 1.375 . S
C1256 C1262 1.404 . S
C1257 C1256 1.375 . S
C1257 C1258 1.369 . S
C1257 H1270 0.950 . S
C1258 C1257 1.369 . S
C1258 C1259 1.392 . S
C1258 H1271 0.951 . S
C1259 C1258 1.392 . S
C1259 C1261 1.384 . S
H1260 C1262 0.949 . S
C1261 C1259 1.384 . S
C1261 C1262 1.385 . S
C1261 H1263 0.950 . S
C1262 C1256 1.404 . S
C1262 H1260 0.949 . S
C1262 C1261 1.385 . S
H1263 C1261 0.950 . S
H1264 C1248 0.951 . S
H1265 C1250 0.951 . S
H1266 C1252 0.951 . S
H1267 C1253 0.950 . S
H1268 C1254 0.950 1_655 S
H1269 C1255 0.950 . S
H1270 C1257 0.950 . S
H1271 C1258 0.951 . S
C1272 C1273 1.386 . S
C1272 C1274 1.383 . S
C1272 H1288 0.951 . S
C1273 C1272 1.386 . S
C1273 C1277 1.383 . S
C1274 C1272 1.383 . S
C1274 C1275 1.402 . S
C1274 H1289 0.951 . S
C1275 C1274 1.402 . S
C1275 C1276 1.375 . S
C1275 C1278 1.481 . S
C1276 C1275 1.375 . S
C1276 C1277 1.367 . S
C1276 H1290 0.951 . S
C1277 C1273 1.383 . S
C1277 C1276 1.367 . S
C1277 H1291 0.950 . S
C1278 C1275 1.481 . S
C1278 C1279 1.297 . S
C1278 H1292 0.950 . S
C1279 C1278 1.297 . S
C1279 C1280 1.479 . S
C1279 H1293 0.950 . S
C1280 C1279 1.479 . S
C1280 C1281 1.375 . S
C1280 C1286 1.404 . S
C1281 C1280 1.375 . S
C1281 C1282 1.369 . S
C1281 H1294 0.950 . S
C1282 C1281 1.369 . S
C1282 C1283 1.392 . S
C1282 H1295 0.951 . S
C1283 C1282 1.392 . S
C1283 C1285 1.384 . S
H1284 C1286 0.949 . S
C1285 C1283 1.384 . S
C1285 C1286 1.385 . S
C1285 H1287 0.950 1_545 S
C1286 C1280 1.404 . S
C1286 H1284 0.949 . S
C1286 C1285 1.385 . S
H1287 C1285 0.950 1_565 S
H1288 C1272 0.951 . S
H1289 C1274 0.951 . S
H1290 C1276 0.951 . S
H1291 C1277 0.950 . S
H1292 C1278 0.950 . S
H1293 C1279 0.950 . S
H1294 C1281 0.950 . S
H1295 C1282 0.951 . S
C1296 C1297 1.386 . S
C1296 C1298 1.383 . S
C1296 H1312 0.951 . S
C1297 C1296 1.386 . S
C1297 C1301 1.383 . S
C1298 C1296 1.383 . S
C1298 C1299 1.402 . S
C1298 H1313 0.951 . S
C1299 C1298 1.402 . S
C1299 C1300 1.375 . S
C1299 C1302 1.481 . S
C1300 C1299 1.375 . S
C1300 C1301 1.367 . S
C1300 H1314 0.951 . S
C1301 C1297 1.383 . S
C1301 C1300 1.367 . S
C1301 H1315 0.950 . S
C1302 C1299 1.481 . S
C1302 C1303 1.310 1_565 S
C1302 H1316 0.950 . S
C1303 C1302 1.310 1_545 S
C1303 C1304 1.458 1_556 S
C1303 H1317 0.960 . S
C1304 C1303 1.458 1_554 S
C1304 C1305 1.375 . S
C1304 C1310 1.404 . S
C1305 C1304 1.375 . S
C1305 C1306 1.369 . S
C1305 H1318 0.950 . S
C1306 C1305 1.369 . S
C1306 C1307 1.392 . S
C1306 H1319 0.951 . S
C1307 C1306 1.392 . S
C1307 C1309 1.384 . S
H1308 C1310 0.949 . S
C1309 C1307 1.384 . S
C1309 C1310 1.385 . S
C1309 H1311 0.950 . S
C1310 C1304 1.404 . S
C1310 H1308 0.949 . S
C1310 C1309 1.385 . S
H1311 C1309 0.950 . S
H1312 C1296 0.951 . S
H1313 C1298 0.951 . S
H1314 C1300 0.951 . S
H1315 C1301 0.950 . S
H1316 C1302 0.950 . S
H1317 C1303 0.960 . S
H1318 C1305 0.950 . S
H1319 C1306 0.951 . S
C1320 C1321 1.386 . S
C1320 C1322 1.383 . S
C1320 H1336 0.951 . S
C1321 C1320 1.386 . S
C1321 C1325 1.383 . S
C1322 C1320 1.383 . S
C1322 C1323 1.402 . S
C1322 H1337 0.951 . S
C1323 C1322 1.402 . S
C1323 C1324 1.375 . S
C1323 C1326 1.481 . S
C1324 C1323 1.375 . S
C1324 C1325 1.367 . S
C1324 H1338 0.951 . S
C1325 C1321 1.383 . S
C1325 C1324 1.367 . S
C1325 H1339 0.950 . S
C1326 C1323 1.481 . S
C1326 C1327 1.297 . S
C1326 H1340 0.950 . S
C1327 C1326 1.297 . S
C1327 C1328 1.479 . S
C1327 H1341 0.950 . S
C1328 C1327 1.479 . S
C1328 C1329 1.375 . S
C1328 C1334 1.404 . S
C1329 C1328 1.375 . S
C1329 C1330 1.369 . S
C1329 H1342 0.950 . S
C1330 C1329 1.369 . S
C1330 C1331 1.392 . S
C1330 H1343 0.951 . S
C1331 C1330 1.392 . S
C1331 C1333 1.384 . S
H1332 C1334 0.949 . S
C1333 C1331 1.384 . S
C1333 C1334 1.385 . S
C1333 H1335 0.950 . S
C1334 C1328 1.404 . S
C1334 H1332 0.949 . S
C1334 C1333 1.385 . S
H1335 C1333 0.950 . S
H1336 C1320 0.951 . S
H1337 C1322 0.951 . S
H1338 C1324 0.951 . S
H1339 C1325 0.950 . S
H1340 C1326 0.950 . S
H1341 C1327 0.950 . S
H1342 C1329 0.950 . S
H1343 C1330 0.951 . S
C1344 C1345 1.386 1_655 S
C1344 C1346 1.383 . S
C1344 H1360 0.951 . S
C1345 C1344 1.386 1_455 S
C1345 C1349 1.383 . S
C1346 C1344 1.383 . S
C1346 C1347 1.402 1_655 S
C1346 H1361 0.951 . S
C1347 C1346 1.402 1_455 S
C1347 C1348 1.375 . S
C1347 C1350 1.481 . S
C1348 C1347 1.375 . S
C1348 C1349 1.367 . S
C1348 H1362 0.951 . S
C1349 C1345 1.383 . S
C1349 C1348 1.367 . S
C1349 H1363 0.950 . S
C1350 C1347 1.481 . S
C1350 C1351 1.297 1_454 S
C1350 H1364 0.950 . S
C1351 C1350 1.297 1_656 S
C1351 C1352 1.479 . S
C1351 H1365 0.950 . S
C1352 C1351 1.479 . S
C1352 C1353 1.375 . S
C1352 C1358 1.404 . S
C1353 C1352 1.375 . S
C1353 C1354 1.369 . S
C1353 H1366 0.950 . S
C1354 C1353 1.369 . S
C1354 C1355 1.392 . S
C1354 H1367 0.951 . S
C1355 C1354 1.392 . S
C1355 C1357 1.384 . S
H1356 C1358 0.949 1_455 S
C1357 C1355 1.384 . S
C1357 C1358 1.385 . S
C1357 H1359 0.950 1_655 S
C1358 C1352 1.404 . S
C1358 H1356 0.949 1_655 S
C1358 C1357 1.385 . S
H1359 C1357 0.950 1_455 S
H1360 C1344 0.951 . S
H1361 C1346 0.951 . S
H1362 C1348 0.951 . S
H1363 C1349 0.950 . S
H1364 C1350 0.950 . S
H1365 C1351 0.950 . S
H1366 C1353 0.950 . S
H1367 C1354 0.951 . S
C1368 C1369 1.386 . S
C1368 C1370 1.383 . S
C1368 H1384 0.951 . S
C1369 C1368 1.386 . S
C1369 C1373 1.383 1_565 S
C1370 C1368 1.383 . S
C1370 C1371 1.402 1_565 S
C1370 H1385 0.951 . S
C1371 C1370 1.402 1_545 S
C1371 C1372 1.375 . S
C1371 C1374 1.483 1_655 S
C1372 C1371 1.375 . S
C1372 C1373 1.367 . S
C1372 H1386 0.951 . S
C1373 C1369 1.383 1_545 S
C1373 C1372 1.367 . S
C1373 H1387 0.950 . S
C1374 C1371 1.483 1_455 S
C1374 C1375 1.295 1_545 S
C1374 H1388 0.950 . S
C1375 C1374 1.295 1_565 S
C1375 C1376 1.479 1_565 S
C1375 H1389 0.950 . S
C1376 C1375 1.479 1_545 S
C1376 C1377 1.375 1_545 S
C1376 C1382 1.404 . S
C1377 C1376 1.375 1_565 S
C1377 C1378 1.369 . S
C1377 H1390 0.950 . S
C1378 C1377 1.369 . S
C1378 C1379 1.392 1_565 S
C1378 H1391 0.951 . S
C1379 C1378 1.392 1_545 S
C1379 C1381 1.384 . S
H1380 C1382 0.949 . S
C1381 C1379 1.384 . S
C1381 C1382 1.385 . S
C1381 H1383 0.950 . S
C1382 C1376 1.404 . S
C1382 H1380 0.949 . S
C1382 C1381 1.385 . S
H1383 C1381 0.950 . S
H1384 C1368 0.951 . S
H1385 C1370 0.951 . S
H1386 C1372 0.951 . S
H1387 C1373 0.950 . S
H1388 C1374 0.950 . S
H1389 C1375 0.950 . S
H1390 C1377 0.950 . S
H1391 C1378 0.951 . S
C1392 C1393 1.386 . S
C1392 C1394 1.383 . S
C1392 H1408 0.951 . S
C1393 C1392 1.386 . S
C1393 C1397 1.383 . S
C1394 C1392 1.383 . S
C1394 C1395 1.402 . S
C1394 H1409 0.951 . S
C1395 C1394 1.402 . S
C1395 C1396 1.375 . S
C1395 C1398 1.481 1_556 S
C1396 C1395 1.375 . S
C1396 C1397 1.367 . S
C1396 H1410 0.951 . S
C1397 C1393 1.383 . S
C1397 C1396 1.367 . S
C1397 H1411 0.950 . S
C1398 C1395 1.481 1_554 S
C1398 C1399 1.297 . S
C1398 H1412 0.950 . S
C1399 C1398 1.297 . S
C1399 C1400 1.479 . S
C1399 H1413 0.982 . S
C1400 C1399 1.479 . S
C1400 C1401 1.375 . S
C1400 C1406 1.404 . S
C1401 C1400 1.375 . S
C1401 C1402 1.369 . S
C1401 H1414 0.950 . S
C1402 C1401 1.369 . S
C1402 C1403 1.392 . S
C1402 H1415 0.951 . S
C1403 C1402 1.392 . S
C1403 C1405 1.384 . S
H1404 C1406 0.949 . S
C1405 C1403 1.384 . S
C1405 C1406 1.385 . S
C1405 H1407 0.950 . S
C1406 C1400 1.404 . S
C1406 H1404 0.949 . S
C1406 C1405 1.385 . S
H1407 C1405 0.950 . S
H1408 C1392 0.951 . S
H1409 C1394 0.951 . S
H1410 C1396 0.951 . S
H1411 C1397 0.950 . S
H1412 C1398 0.950 . S
H1413 C1399 0.982 . S
H1414 C1401 0.950 . S
H1415 C1402 0.951 . S
C1416 C1417 1.386 . S
C1416 C1418 1.383 . S
C1416 H1432 0.951 . S
C1417 C1416 1.386 . S
C1417 C1421 1.383 . S
C1418 C1416 1.383 . S
C1418 C1419 1.402 . S
C1418 H1433 0.951 . S
C1419 C1418 1.402 . S
C1419 C1420 1.375 . S
C1419 C1422 1.473 1_455 S
C1420 C1419 1.375 . S
C1420 C1421 1.367 . S
C1420 H1434 0.951 . S
C1421 C1417 1.383 . S
C1421 C1420 1.367 . S
C1421 H1435 0.950 . S
C1422 C1419 1.473 1_655 S
C1422 C1423 1.304 . S
C1422 H1436 0.951 . S
C1423 C1422 1.304 . S
C1423 C1424 1.479 . S
C1423 H1437 0.950 . S
C1424 C1423 1.479 . S
C1424 C1425 1.375 . S
C1424 C1430 1.404 . S
C1425 C1424 1.375 . S
C1425 C1426 1.369 . S
C1425 H1438 0.950 . S
C1426 C1425 1.369 . S
C1426 C1427 1.392 . S
C1426 H1439 0.951 . S
C1427 C1426 1.392 . S
C1427 C1429 1.384 . S
H1428 C1430 0.949 . S
C1429 C1427 1.384 . S
C1429 C1430 1.385 . S
C1429 H1431 0.950 . S
C1430 C1424 1.404 . S
C1430 H1428 0.949 . S
C1430 C1429 1.385 . S
H1431 C1429 0.950 . S
H1432 C1416 0.951 . S
H1433 C1418 0.951 . S
H1434 C1420 0.951 . S
H1435 C1421 0.950 . S
H1436 C1422 0.951 . S
H1437 C1423 0.950 . S
H1438 C1425 0.950 . S
H1439 C1426 0.951 . S
C1440 C1441 1.386 . S
C1440 C1442 1.383 . S
C1440 H1456 0.951 . S
C1441 C1440 1.386 . S
C1441 C1445 1.382 1_655 S
C1442 C1440 1.383 . S
C1442 C1443 1.402 . S
C1442 H1457 0.951 . S
C1443 C1442 1.402 . S
C1443 C1444 1.375 1_655 S
C1443 C1446 1.481 1_565 S
C1444 C1443 1.375 1_455 S
C1444 C1445 1.367 . S
C1444 H1458 0.951 1_565 S
C1445 C1441 1.382 1_455 S
C1445 C1444 1.367 . S
C1445 H1459 0.950 . S
C1446 C1443 1.481 1_545 S
C1446 C1447 1.297 1_554 S
C1446 H1460 0.950 1_655 S
C1447 C1446 1.297 1_556 S
C1447 C1448 1.479 . S
C1447 H1461 0.950 1_545 S
C1448 C1447 1.479 . S
C1448 C1449 1.375 . S
C1448 C1454 1.404 1_655 S
C1449 C1448 1.375 . S
C1449 C1450 1.369 . S
C1449 H1462 0.950 . S
C1450 C1449 1.369 . S
C1450 C1451 1.392 1_655 S
C1450 H1463 0.951 . S
C1451 C1450 1.392 1_455 S
C1451 C1453 1.384 . S
H1452 C1454 0.949 . S
C1453 C1451 1.384 . S
C1453 C1454 1.385 . S
C1453 H1455 0.950 . S
C1454 C1448 1.404 1_455 S
C1454 H1452 0.949 . S
C1454 C1453 1.385 . S
H1455 C1453 0.950 . S
H1456 C1440 0.951 . S
H1457 C1442 0.951 . S
H1458 C1444 0.951 1_545 S
H1459 C1445 0.950 . S
H1460 C1446 0.950 1_455 S
H1461 C1447 0.950 1_565 S
H1462 C1449 0.950 . S
H1463 C1450 0.951 . S
C1464 C1465 1.386 . S
C1464 C1466 1.383 . S
C1464 H1480 0.951 . S
C1465 C1464 1.386 . S
C1465 C1469 1.383 1_545 S
C1466 C1464 1.383 . S
C1466 C1467 1.419 . S
C1466 H1481 0.951 . S
C1467 C1466 1.419 . S
C1467 C1468 1.362 1_545 S
C1467 C1470 1.476 1_545 S
C1468 C1467 1.362 1_565 S
C1468 C1469 1.367 . S
C1468 H1482 0.951 . S
C1469 C1465 1.383 1_565 S
C1469 C1468 1.367 . S
C1469 H1483 0.950 . S
C1470 C1467 1.476 1_565 S
C1470 C1471 1.297 1_565 S
C1470 H1484 0.950 . S
C1471 C1470 1.297 1_545 S
C1471 C1472 1.479 . S
C1471 H1485 0.950 . S
C1472 C1471 1.479 . S
C1472 C1473 1.375 . S
C1472 C1478 1.404 1_545 S
C1473 C1472 1.375 . S
C1473 C1474 1.369 . S
C1473 H1486 0.950 . S
C1474 C1473 1.369 . S
C1474 C1475 1.392 1_545 S
C1474 H1487 0.951 . S
C1475 C1474 1.392 1_565 S
C1475 C1477 1.384 . S
H1476 C1478 0.949 . S
C1477 C1475 1.384 . S
C1477 C1478 1.385 . S
C1477 H1479 0.950 . S
C1478 C1472 1.404 1_565 S
C1478 H1476 0.949 . S
C1478 C1477 1.385 . S
H1479 C1477 0.950 . S
H1480 C1464 0.951 . S
H1481 C1466 0.951 . S
H1482 C1468 0.951 . S
H1483 C1469 0.950 . S
H1484 C1470 0.950 . S
H1485 C1471 0.950 . S
H1486 C1473 0.950 . S
H1487 C1474 0.951 . S
C529 C17 1.533 . S
C539 C248 1.507 . S
C553 C149 1.530 . S
C563 C50 1.518 . S
C577 C83 1.568 . S
C587 C182 1.566 . S
C601 C116 1.532 . S
C611 C215 1.507 . S
C625 C281 1.531 . S
C635 C512 1.520 . S
C649 C314 1.533 . S
C659 C413 1.558 . S
C673 C347 1.564 . S
C683 C446 1.566 . S
C697 C479 1.564 . S
C707 C380 1.567 . S
C721 C8 2.165 . S
C731 C74 2.157 . S
C745 C107 2.175 . S
C755 C41 2.148 . S
C769 C206 2.165 . S
C779 C140 2.168 . S
C793 C173 2.167 . S
C803 C239 2.153 . S
C817 C338 2.173 . S
C827 C272 2.148 . S
C841 C371 2.173 . S
C851 C305 2.165 . S
C865 C470 2.171 . S
C875 C404 2.146 . S
C889 C503 2.168 . S
C899 C437 2.170 . S
C913 N410 0.563 . S
C923 N5 0.588 1_565 S
C937 N443 0.577 . S
C947 N38 0.587 . S
C961 N71 0.579 . S
C971 N476 0.602 1_455 S
C985 N509 0.575 1_545 S
C995 N104 0.587 1_655 S
C1009 N137 0.574 . S
C1019 N278 0.625 . S
C1033 N311 0.633 . S
C1043 N170 0.575 1_655 S
C1057 N203 0.580 1_565 S
C1067 N344 0.507 . S
C1081 N236 0.572 . S
C1091 N377 0.680 1_545 S
C1105 N146 0.549 . S
C1115 N269 0.586 1_545 S
C1129 N179 0.551 . S
C1139 N302 0.586 . S
C1153 N212 0.651 1_655 S
C1163 N335 0.586 . S
C1177 N245 0.561 . S
C1187 N368 0.575 1_455 S
C1201 N14 0.538 . S
C1211 N401 0.582 . S
C1225 N47 0.570 . S
C1235 N434 0.574 1_455 S
C1249 N80 0.613 1_655 S
C1259 N467 0.590 1_545 S
C1273 N500 0.575 . S
C1283 N113 0.502 . S
C1297 C292 1.598 . S
C1307 C28 1.644 . S
C1321 C61 1.620 . S
C1331 C325 1.587 . S
C1345 C94 1.615 . S
C1355 C358 1.675 . S
C1369 C391 1.599 . S
C1379 C127 1.639 . S
C1393 C160 1.639 . S
C1403 C424 1.569 . S
C1417 C193 1.650 . S
C1427 C457 1.639 . S
C1441 C490 1.620 . S
C1451 C226 1.587 . S
C1465 C259 1.627 . S
C1475 C523 1.579 . S
