# Generated by pormake.
# Topology utp, (3)-cn, num edge types: 1
# Building blocks:
#     Node 0, Type 0, BuildingBlock: WUSLED_clean_sbu_0, # of connection points: 3
#     Node 1, Type 0, BuildingBlock: WUSLED_clean_sbu_0, # of connection points: 3
#     Node 2, Type 0, BuildingBlock: WUSLED_clean_sbu_0, # of connection points: 3
#     Node 3, Type 0, BuildingBlock: WUSLED_clean_sbu_0, # of connection points: 3
#     Node 4, Type 0, BuildingBlock: WUSLED_clean_sbu_0, # of connection points: 3
#     Node 5, Type 0, BuildingBlock: WUSLED_clean_sbu_0, # of connection points: 3
#     Node 6, Type 0, BuildingBlock: WUSLED_clean_sbu_0, # of connection points: 3
#     Node 7, Type 0, BuildingBlock: WUSLED_clean_sbu_0, # of connection points: 3
#     Edge 8, Type (0, 0), BuildingBlock: OJICUG_clean_linker_0, # of connection points: 2
#     Edge 9, Type (0, 0), BuildingBlock: OJICUG_clean_linker_0, # of connection points: 2
#     Edge 10, Type (0, 0), BuildingBlock: OJICUG_clean_linker_0, # of connection points: 2
#     Edge 11, Type (0, 0), BuildingBlock: OJICUG_clean_linker_0, # of connection points: 2
#     Edge 12, Type (0, 0), BuildingBlock: OJICUG_clean_linker_0, # of connection points: 2
#     Edge 13, Type (0, 0), BuildingBlock: OJICUG_clean_linker_0, # of connection points: 2
#     Edge 14, Type (0, 0), BuildingBlock: OJICUG_clean_linker_0, # of connection points: 2
#     Edge 15, Type (0, 0), BuildingBlock: OJICUG_clean_linker_0, # of connection points: 2
#     Edge 16, Type (0, 0), BuildingBlock: OJICUG_clean_linker_0, # of connection points: 2
#     Edge 17, Type (0, 0), BuildingBlock: OJICUG_clean_linker_0, # of connection points: 2
#     Edge 18, Type (0, 0), BuildingBlock: OJICUG_clean_linker_0, # of connection points: 2
#     Edge 19, Type (0, 0), BuildingBlock: OJICUG_clean_linker_0, # of connection points: 2
# Relax obj value: 0.000
# Max RMSD: 0.002
# Mean RMSD: 0.002
data_MOF--net-utp--node1-WUSLED_clean_sbu_0--edge1-OJICUG_clean_linker_0
_symmetry_space_group_name_H-M    P1
_symmetry_Int_Tables_number       1
_symmetry_cell_setting            triclinic
loop_
_symmetry_equiv_pos_as_xyz
'x, y, z'
_cell_length_a     63.648937
_cell_length_b     55.7805
_cell_length_c     16.290204
_cell_angle_alpha  89.998711
_cell_angle_beta   89.993596
_cell_angle_gamma 90.000238
loop_
_atom_site_label
_atom_site_type_symbol
_atom_site_fract_x
_atom_site_fract_y
_atom_site_fract_z
_atom_type_partial_charge
C0 C 0.09106 0.09806 0.07759 0.0
C1 C 0.09567 0.07353 0.07097 0.0
C2 C 0.05917 0.06497 0.0348 0.0
C3 C 0.07987 0.05713 0.04992 0.0
C4 C 0.05474 0.08964 0.04122 0.0
C5 C 0.07053 0.10598 0.06243 0.0
U6 U 0.14847 0.11531 0.1178 0.0
O7 O 0.16572 0.14809 0.08505 0.0
O8 O 0.1621 0.13815 0.21472 0.0
C9 C 0.16884 0.15425 0.16201 0.0
C10 C 0.10738 0.11561 0.10052 0.0
C11 C 0.16514 0.17966 0.18346 0.0
C12 C 0.14808 0.21825 0.1611 0.0
C13 C 0.14973 0.19362 0.14427 0.0
C14 C 0.17675 0.21502 0.25813 0.0
C15 C 0.16187 0.22934 0.21715 0.0
C16 C 0.17836 0.19051 0.24134 0.0
C17 C 0.19157 0.06726 0.09108 0.0
C18 C 0.22706 0.06796 0.14692 0.0
C19 C 0.21838 0.04051 0.03687 0.0
C20 C 0.19775 0.04916 0.03647 0.0
C21 C 0.2333 0.04973 0.09224 0.0
C22 C 0.2064 0.07671 0.14613 0.0
C23 C 0.16953 0.07556 0.08996 0.0
O24 O 0.11684 0.11173 0.17101 0.0
O25 O 0.12042 0.12179 0.04166 0.0
O26 O 0.16467 0.09097 0.03197 0.0
O27 O 0.16111 0.08088 0.16139 0.0
H28 H 0.11147 0.06709 0.0821 0.0
H29 H 0.08393 0.03835 0.04455 0.0
H30 H 0.03898 0.09631 0.03112 0.0
H31 H 0.06667 0.12484 0.06738 0.0
H32 H 0.13651 0.22873 0.12814 0.0
H33 H 0.13931 0.18564 0.09937 0.0
H34 H 0.18734 0.2228 0.30279 0.0
H35 H 0.19031 0.18008 0.27248 0.0
H36 H 0.23821 0.07565 0.18966 0.0
H37 H 0.22255 1.0263 -0.00538 0.0
H38 H 0.18654 0.04157 -0.00633 0.0
H39 H 0.20202 0.0908 0.18858 0.0
C40 C 0.46094 0.96401 0.07756 0.0
C41 C 0.45635 0.98855 0.07122 0.0
C42 C 0.49284 0.9971 0.03478 0.0
C43 C 0.47216 1.00495 0.05017 0.0
C44 C 0.49725 0.97243 0.04091 0.0
C45 C 0.48146 0.95609 0.06211 0.0
U46 U 0.40354 0.94677 0.11778 0.0
O47 O 0.38628 0.91399 0.08503 0.0
O48 O 0.3899 0.92392 0.2147 0.0
C49 C 0.38316 0.90782 0.16198 0.0
C50 C 0.44462 0.94647 0.10048 0.0
C51 C 0.38686 0.88241 0.18342 0.0
C52 C 0.40395 0.84384 0.16117 0.0
C53 C 0.4023 0.86847 0.14435 0.0
C54 C 0.37522 0.84704 0.25796 0.0
C55 C 0.39013 0.83273 0.21709 0.0
C56 C 0.37361 0.87155 0.24119 0.0
C57 C 0.36044 0.99482 0.09107 0.0
C58 C 0.32495 0.99413 0.14696 0.0
C59 C 0.33362 1.02155 0.03683 0.0
C60 C 0.35425 1.0129 0.03642 0.0
C61 C 0.3187 1.01234 0.09223 0.0
C62 C 0.3456 0.98537 0.14617 0.0
C63 C 0.38247 0.98651 0.08995 0.0
O64 O 0.43516 0.95034 0.17098 0.0
O65 O 0.43158 0.94029 0.04163 0.0
O66 O 0.38734 0.97111 0.03195 0.0
O67 O 0.3909 0.98119 0.16138 0.0
H68 H 0.44056 0.99501 0.08257 0.0
H69 H 0.46811 1.02375 0.04503 0.0
H70 H 0.513 0.96575 0.03059 0.0
H71 H 0.48531 0.93721 0.06684 0.0
H72 H 0.41554 0.83336 0.1283 0.0
H73 H 0.41274 0.87646 0.09954 0.0
H74 H 0.36461 0.83924 0.30253 0.0
H75 H 0.36163 0.88197 0.27224 0.0
H76 H 0.3138 0.98644 0.18974 0.0
H77 H 0.32945 0.03576 -0.00546 0.0
H78 H 0.36546 1.02048 -0.00641 0.0
H79 H 0.34999 0.97129 0.18865 0.0
C80 C 0.09107 0.46401 0.40888 0.0
C81 C 0.09565 0.48855 0.41513 0.0
C82 C 0.05918 0.4971 0.45168 0.0
C83 C 0.07985 0.50495 0.43618 0.0
C84 C 0.05477 0.47242 0.44564 0.0
C85 C 0.07056 0.45608 0.42443 0.0
U86 U 0.14847 0.44676 0.36862 0.0
O87 O 0.16573 0.41398 0.40137 0.0
O88 O 0.16211 0.42391 0.27169 0.0
C89 C 0.16885 0.40782 0.32441 0.0
C90 C 0.10739 0.44646 0.38594 0.0
C91 C 0.16515 0.38241 0.30298 0.0
C92 C 0.14808 0.34382 0.32533 0.0
C93 C 0.14973 0.36845 0.34215 0.0
C94 C 0.17676 0.34705 0.22834 0.0
C95 C 0.16187 0.33273 0.2693 0.0
C96 C 0.17838 0.37155 0.24511 0.0
C97 C 0.19157 0.49482 0.39529 0.0
C98 C 0.22706 0.49411 0.33948 0.0
C99 C 0.21838 0.52158 0.44946 0.0
C100 C 0.19775 0.51293 0.44986 0.0
C101 C 0.2333 0.51235 0.39412 0.0
C102 C 0.20641 0.48535 0.34027 0.0
C103 C 0.16953 0.48651 0.39642 0.0
O104 O 0.11685 0.45033 0.31543 0.0
O105 O 0.12043 0.44028 0.44479 0.0
O106 O 0.16467 0.47111 0.45443 0.0
O107 O 0.16111 0.48119 0.325 0.0
H108 H 0.11144 0.49501 0.4037 0.0
H109 H 0.0839 0.52375 0.44125 0.0
H110 H 0.03902 0.46574 0.45604 0.0
H111 H 0.06671 0.4372 0.41977 0.0
H112 H 0.13651 0.33334 0.35828 0.0
H113 H 0.1393 0.37644 0.38703 0.0
H114 H 0.18736 0.33926 0.18369 0.0
H115 H 0.19033 0.38198 0.21398 0.0
H116 H 0.23822 0.48641 0.29675 0.0
H117 H 0.22254 0.5358 0.49168 0.0
H118 H 0.18653 0.52052 0.49264 0.0
H119 H 0.20203 0.47126 0.29785 0.0
C120 C 0.46095 0.59806 0.40894 0.0
C121 C 0.45639 0.57349 0.41474 0.0
C122 C 0.49284 0.56497 0.45173 0.0
C123 C 0.47219 0.5571 0.43579 0.0
C124 C 0.49721 0.58966 0.44615 0.0
C125 C 0.48143 0.606 0.42495 0.0
U126 U 0.40355 0.61531 0.36865 0.0
O127 O 0.38629 0.64809 0.40137 0.0
O128 O 0.38992 0.63816 0.27171 0.0
C129 C 0.38318 0.65426 0.32441 0.0
C130 C 0.44463 0.6156 0.386 0.0
C131 C 0.38689 0.67967 0.30296 0.0
C132 C 0.40392 0.71826 0.32542 0.0
C133 C 0.40228 0.69364 0.34225 0.0
C134 C 0.3753 0.71501 0.22818 0.0
C135 C 0.39016 0.72935 0.26926 0.0
C136 C 0.37369 0.69051 0.24497 0.0
C137 C 0.36044 0.56726 0.39532 0.0
C138 C 0.32496 0.56794 0.33938 0.0
C139 C 0.33361 0.54054 0.44958 0.0
C140 C 0.35424 0.54919 0.44999 0.0
C141 C 0.3187 0.54974 0.39414 0.0
C142 C 0.34561 0.5767 0.34018 0.0
C143 C 0.38248 0.57557 0.39645 0.0
O144 O 0.43518 0.61173 0.31548 0.0
O145 O 0.43158 0.62178 0.44483 0.0
O146 O 0.38733 0.59097 0.45446 0.0
O147 O 0.39091 0.58088 0.32504 0.0
H148 H 0.44063 0.56702 0.40296 0.0
H149 H 0.46817 0.53828 0.4405 0.0
H150 H 0.51294 0.59636 0.45691 0.0
H151 H 0.48525 0.62489 0.42065 0.0
H152 H 0.41547 0.72876 0.35846 0.0
H153 H 0.41268 0.68566 0.38724 0.0
H154 H 0.36473 0.72279 0.18343 0.0
H155 H 0.36175 0.68007 0.21375 0.0
H156 H 0.31381 0.57562 0.29657 0.0
H157 H 0.32943 0.52634 0.49189 0.0
H158 H 0.36544 0.54162 0.49286 0.0
H159 H 0.35001 0.59077 0.29768 0.0
C160 C 0.961 0.96411 0.90739 0.0
C161 C 0.95639 0.98864 0.91397 0.0
C162 C 0.99289 0.99721 0.95008 0.0
C163 C 0.97219 1.00505 0.93497 0.0
C164 C 0.99732 0.97255 0.94368 0.0
C165 C 0.98153 0.9562 0.92253 0.0
U166 U 0.90359 0.94685 0.86728 0.0
O167 O 0.88996 0.92394 0.77053 0.0
O168 O 0.88633 0.9141 0.90027 0.0
C169 C 0.88321 0.90788 0.82336 0.0
C170 C 0.94468 0.94656 0.88457 0.0
C171 C 0.88692 0.88246 0.80213 0.0
C172 C 0.90399 0.84389 0.82478 0.0
C173 C 0.90235 0.86853 0.84138 0.0
C174 C 0.87531 0.84704 0.72783 0.0
C175 C 0.8902 0.83275 0.76888 0.0
C176 C 0.87369 0.87156 0.74439 0.0
C177 C 0.86048 0.99491 0.89367 0.0
C178 C 0.82499 0.99417 0.83782 0.0
C179 C 0.83365 1.02164 0.94781 0.0
C180 C 0.85428 1.01301 0.94824 0.0
C181 C 0.81873 1.01239 0.89247 0.0
C182 C 0.84565 0.98543 0.83863 0.0
C183 C 0.88252 0.98661 0.89483 0.0
O184 O 0.93163 0.94042 0.94346 0.0
O185 O 0.93522 0.9504 0.81405 0.0
O186 O 0.89094 0.98125 0.82344 0.0
O187 O 0.88739 0.97125 0.95294 0.0
H188 H 0.94059 0.99509 0.90286 0.0
H189 H 0.96813 1.02384 0.94032 0.0
H190 H 1.01309 0.96588 0.95377 0.0
H191 H 0.9854 0.93734 0.91762 0.0
H192 H 0.91557 0.83344 0.85779 0.0
H193 H 0.91278 0.87656 0.88618 0.0
H194 H 0.8647 0.83921 0.68327 0.0
H195 H 0.86173 0.88196 0.7132 0.0
H196 H 0.81385 0.98645 0.79509 0.0
H197 H 0.82947 0.03585 0.99004 0.0
H198 H 0.86548 1.02061 0.99103 0.0
H199 H 0.85005 0.97133 0.79621 0.0
C200 C 0.59103 0.09796 0.90744 0.0
C201 C 0.59562 0.07341 0.91373 0.0
C202 C 0.55913 0.06486 0.95012 0.0
C203 C 0.57981 0.05701 0.93473 0.0
C204 C 0.55472 0.08953 0.94401 0.0
C205 C 0.57052 0.10588 0.92286 0.0
U206 U 0.64844 0.11522 0.8673 0.0
O207 O 0.66208 0.13813 0.77054 0.0
O208 O 0.6657 0.14798 0.90029 0.0
C209 C 0.66882 0.15419 0.82338 0.0
C210 C 0.60735 0.1155 0.88461 0.0
C211 C 0.66511 0.17962 0.80214 0.0
C212 C 0.64803 0.21818 0.82476 0.0
C213 C 0.64967 0.19354 0.84137 0.0
C214 C 0.67673 0.21504 0.72787 0.0
C215 C 0.66183 0.22932 0.7689 0.0
C216 C 0.67835 0.19052 0.74443 0.0
C217 C 0.69155 0.06717 0.89368 0.0
C218 C 0.72704 0.0679 0.83777 0.0
C219 C 0.71839 0.04046 0.94788 0.0
C220 C 0.69776 0.04909 0.94831 0.0
C221 C 0.7333 0.04969 0.89248 0.0
C222 C 0.70638 0.07663 0.83858 0.0
C223 C 0.66951 0.07546 0.89485 0.0
O224 O 0.6204 0.12165 0.94349 0.0
O225 O 0.61682 0.11167 0.81408 0.0
O226 O 0.66109 0.08082 0.82346 0.0
O227 O 0.66464 0.09083 0.95296 0.0
H228 H 0.61141 0.06696 0.9024 0.0
H229 H 0.58386 0.03821 0.93985 0.0
H230 H 0.53897 0.09621 0.95432 0.0
H231 H 0.56666 0.12475 0.91816 0.0
H232 H 0.63644 0.22863 0.85775 0.0
H233 H 0.63924 0.18551 0.88613 0.0
H234 H 0.68735 0.22287 0.68334 0.0
H235 H 0.69032 0.18013 0.71326 0.0
H236 H 0.73818 0.07559 0.79499 0.0
H237 H 0.72258 1.02625 0.99016 0.0
H238 H 0.68656 0.0415 0.99115 0.0
H239 H 0.70198 0.09071 0.79612 0.0
C240 C 0.961 0.59796 0.57909 0.0
C241 C 0.95641 0.57341 0.57289 0.0
C242 C 0.99289 0.56486 0.53639 0.0
C243 C 0.97222 0.55701 0.55188 0.0
C244 C 0.9973 0.58954 0.54241 0.0
C245 C 0.98151 0.60588 0.56357 0.0
U246 U 0.90359 0.61522 0.61927 0.0
O247 O 0.88996 0.63813 0.71603 0.0
O248 O 0.88634 0.64798 0.58629 0.0
C249 C 0.88322 0.6542 0.6632 0.0
C250 C 0.94468 0.61551 0.60193 0.0
C251 C 0.88693 0.67962 0.68443 0.0
C252 C 0.90398 0.71819 0.6617 0.0
C253 C 0.90234 0.69355 0.64509 0.0
C254 C 0.87533 0.71503 0.75882 0.0
C255 C 0.8902 0.72933 0.71768 0.0
C256 C 0.87371 0.69051 0.74226 0.0
C257 C 0.86048 0.56717 0.59292 0.0
C258 C 0.82499 0.56791 0.64876 0.0
C259 C 0.83366 0.54043 0.5388 0.0
C260 C 0.85429 0.54906 0.53837 0.0
C261 C 0.81874 0.54968 0.59413 0.0
C262 C 0.84565 0.57665 0.64795 0.0
C263 C 0.88252 0.57547 0.59174 0.0
O264 O 0.93163 0.62166 0.54306 0.0
O265 O 0.93522 0.61168 0.67247 0.0
O266 O 0.89095 0.58082 0.66313 0.0
O267 O 0.88739 0.59083 0.53363 0.0
H268 H 0.94062 0.56696 0.5843 0.0
H269 H 0.96817 0.53821 0.54683 0.0
H270 H 1.01305 0.59622 0.53201 0.0
H271 H 0.98536 0.62476 0.56819 0.0
H272 H 0.91555 0.72865 0.62862 0.0
H273 H 0.91275 0.68554 0.60023 0.0
H274 H 0.86474 0.72285 0.80345 0.0
H275 H 0.86176 0.68011 0.77352 0.0
H276 H 0.81384 0.57563 0.69148 0.0
H277 H 0.82948 0.52621 0.49659 0.0
H278 H 0.8655 0.54146 0.49559 0.0
H279 H 0.85004 0.59075 0.69034 0.0
C280 C 0.59104 0.46412 0.57903 0.0
C281 C 0.59559 0.48869 0.57327 0.0
C282 C 0.55914 0.49722 0.53634 0.0
C283 C 0.57979 0.50509 0.55228 0.0
C284 C 0.55476 0.47253 0.5419 0.0
C285 C 0.57055 0.45618 0.56305 0.0
U286 U 0.64844 0.44686 0.61924 0.0
O287 O 0.66206 0.42394 0.71601 0.0
O288 O 0.6657 0.41409 0.58627 0.0
C289 C 0.6688 0.40788 0.66318 0.0
C290 C 0.60735 0.44657 0.60188 0.0
C291 C 0.66509 0.38245 0.68442 0.0
C292 C 0.64805 0.34388 0.66166 0.0
C293 C 0.64969 0.36852 0.64504 0.0
C294 C 0.67668 0.34705 0.75886 0.0
C295 C 0.66182 0.33275 0.71768 0.0
C296 C 0.6783 0.37156 0.74228 0.0
C297 C 0.69156 0.4949 0.5929 0.0
C298 C 0.72704 0.49418 0.64884 0.0
C299 C 0.7184 0.52161 0.53869 0.0
C300 C 0.69777 0.51298 0.53826 0.0
C301 C 0.7333 0.51239 0.59412 0.0
C302 C 0.70637 0.48545 0.64802 0.0
C303 C 0.66952 0.48661 0.59171 0.0
O304 O 0.62041 0.44042 0.543 0.0
O305 O 0.61681 0.4504 0.67242 0.0
O306 O 0.66109 0.48125 0.66309 0.0
O307 O 0.66465 0.47124 0.5336 0.0
H308 H 0.61136 0.49516 0.58503 0.0
H309 H 0.58381 0.5239 0.54759 0.0
H310 H 0.53903 0.46583 0.53115 0.0
H311 H 0.56673 0.43729 0.56732 0.0
H312 H 0.63649 0.33341 0.62855 0.0
H313 H 0.63929 0.37653 0.60015 0.0
H314 H 0.68726 0.33923 0.80351 0.0
H315 H 0.69024 0.38197 0.77357 0.0
H316 H 0.73817 0.48649 0.69164 0.0
H317 H 0.72259 0.53581 0.4964 0.0
H318 H 0.68657 0.52057 0.4954 0.0
H319 H 0.70197 0.47137 0.69049 0.0
C320 C 0.1425 0.26859 0.23673 0.0
C321 C 0.16152 0.25584 0.23052 0.0
H322 H 0.1276 0.30278 0.25387 0.0
C323 C 0.18049 0.26864 0.23695 0.0
H324 H 0.1276 0.25929 0.23255 0.0
C325 C 0.18049 0.29342 0.24953 0.0
C326 C 0.16153 0.30623 0.25594 0.0
H327 H 0.19545 0.25954 0.23138 0.0
H328 H 0.19545 0.30252 0.25512 0.0
C329 C 0.1425 0.29348 0.24971 0.0
C330 C 0.40952 0.7935 0.23683 0.0
C331 C 0.39049 0.80623 0.23045 0.0
H332 H 0.42442 0.75932 0.2541 0.0
C333 C 0.37152 0.79342 0.23672 0.0
H334 H 0.42441 0.80281 0.23278 0.0
C335 C 0.37153 0.76864 0.2493 0.0
C336 C 0.3905 0.75585 0.25588 0.0
H337 H 0.35656 0.80251 0.23102 0.0
H338 H 0.35657 0.75952 0.25476 0.0
C339 C 0.40952 0.7686 0.24981 0.0
C340 C 0.87158 0.79343 0.74952 0.0
C341 C 0.89055 0.80624 0.75576 0.0
H342 H 0.85662 0.75953 0.73172 0.0
C343 C 0.90957 0.79349 0.7496 0.0
H344 H 0.85662 0.80253 0.75507 0.0
C345 C 0.90958 0.76859 0.73686 0.0
C346 C 0.89055 0.75584 0.73081 0.0
H347 H 0.92447 0.8028 0.75363 0.0
H348 H 0.92447 0.75929 0.73272 0.0
C349 C 0.87158 0.76864 0.73718 0.0
C350 C 0.64245 0.29348 0.73682 0.0
C351 C 0.66147 0.30624 0.73081 0.0
H352 H 0.62756 0.25927 0.75356 0.0
C353 C 0.68044 0.29344 0.73723 0.0
H354 H 0.62755 0.30278 0.73265 0.0
C355 C 0.68045 0.26865 0.74958 0.0
C356 C 0.66148 0.25583 0.75578 0.0
H357 H 0.6954 0.30255 0.73181 0.0
H358 H 0.69541 0.25955 0.75516 0.0
C359 C 0.64245 0.26858 0.74956 0.0
C360 C 0.28624 1.02642 0.1669 0.0
C361 C 0.29676 1.02177 0.09262 0.0
H362 H 0.25807 0.0389 0.22516 0.0
C363 C 0.28625 1.02649 0.01841 0.0
H364 H 0.29394 1.02321 0.22516 0.0
C365 C 0.26575 0.03557 0.01841 0.0
C366 C 0.25524 0.04031 0.09262 0.0
H367 H 0.29379 1.02292 0.96007 0.0
H368 H 0.25821 0.03912 0.96007 0.0
C369 C 0.26576 0.03567 0.1669 0.0
C370 C 0.28624 0.53561 0.46796 0.0
C371 C 0.29676 0.54031 0.39375 0.0
H372 H 0.25819 0.52298 0.52629 0.0
C373 C 0.28625 0.53565 0.31946 0.0
H374 H 0.29377 0.53918 0.52629 0.0
C375 C 0.26577 0.5264 0.31946 0.0
C376 C 0.25524 0.52177 0.39374 0.0
H377 H 0.29396 0.53885 0.26121 0.0
H378 H 0.25809 0.52316 0.2612 0.0
C379 C 0.26575 0.52652 0.46795 0.0
C380 C 0.76577 0.03564 0.8178 0.0
C381 C 0.75525 0.04028 0.89209 0.0
H382 H 0.79396 1.02319 0.75954 0.0
C383 C 0.76577 0.03558 0.96629 0.0
H384 H 0.75807 0.03884 0.75955 0.0
C385 C 0.78627 1.02652 0.96629 0.0
C386 C 0.79679 1.0218 0.89208 0.0
H387 H 0.75822 0.03914 0.02463 0.0
H388 H 0.79382 1.02298 0.02463 0.0
C389 C 0.78626 1.02641 0.8178 0.0
C390 C 0.76577 0.52644 0.6688 0.0
C391 C 0.75525 0.52179 0.59451 0.0
H392 H 0.79395 0.53889 0.72706 0.0
C393 C 0.76578 0.52648 0.52031 0.0
H394 H 0.75806 0.52324 0.72705 0.0
C395 C 0.78628 0.53555 0.52031 0.0
C396 C 0.79679 0.54028 0.59452 0.0
H397 H 0.75824 0.52292 0.46197 0.0
H398 H 0.79384 0.53908 0.46197 0.0
C399 C 0.78625 0.53567 0.6688 0.0
C400 C 1.01109 0.03709 0.93304 0.0
C401 C 1.00982 1.01463 0.97203 0.0
H402 H 0.02772 0.07028 0.92087 0.0
C403 C 1.02499 1.00887 0.03174 0.0
H404 H 0.99991 0.04201 0.88582 0.0
C405 C 0.04098 1.0251 0.05183 0.0
C406 C 0.04224 0.04756 0.01284 0.0
H407 H 1.02435 0.99191 0.064 0.0
H408 H 0.05215 1.02018 0.09905 0.0
C409 C 0.02707 0.05332 0.95313 0.0
C410 C 0.51108 0.03694 0.05205 0.0
C411 C 0.50977 1.01452 0.01283 0.0
H412 H 0.52775 0.0701 0.0644 0.0
C413 C 0.5249 1.00879 0.95292 0.0
H414 H 0.49994 0.04183 0.09942 0.0
C415 C 0.54089 1.02502 0.93284 0.0
C416 C 0.5422 0.04744 0.97206 0.0
H417 H 0.52422 0.99186 0.92049 0.0
H418 H 0.55203 1.02013 0.88546 0.0
C419 C 0.52707 0.05317 0.03197 0.0
C420 C 1.01115 0.52503 0.55372 0.0
C421 C 1.00983 0.54744 0.51444 0.0
H422 H 0.02782 0.49188 0.56611 0.0
C423 C 1.02494 0.55316 0.45445 0.0
H424 H 1.00002 0.52015 0.60116 0.0
C425 C 0.04092 0.53693 0.43436 0.0
C426 C 0.04224 0.51451 0.47364 0.0
H427 H 1.02425 0.57008 0.42197 0.0
H428 H 0.05205 0.54181 0.38692 0.0
C429 C 0.02713 0.5088 0.53363 0.0
C430 C 0.52481 0.55321 0.53398 0.0
C431 C 0.50978 0.54755 0.47367 0.0
H432 H 0.55188 0.54182 0.60174 0.0
C433 C 0.51117 0.5252 0.43403 0.0
H434 H 0.52406 0.57009 0.56673 0.0
C435 C 0.52716 0.50897 0.4541 0.0
C436 C 0.5422 0.51463 0.51442 0.0
H437 H 0.5001 0.52037 0.38634 0.0
H438 H 0.52792 0.4921 0.42135 0.0
C439 C 0.54081 0.53699 0.55405 0.0
loop_
_geom_bond_atom_site_label_1
_geom_bond_atom_site_label_2
_geom_bond_distance
_geom_bond_site_symmetry_2
_ccdc_geom_bond_type
C0 C1 1.264 . S
C0 C5 1.479 . S
C0 C10 1.465 . S
C1 C0 1.264 . S
C1 C3 1.339 . S
C1 H28 0.931 . S
C2 C3 1.395 . S
C2 C4 1.320 . S
C3 C1 1.339 . S
C3 C2 1.395 . S
C3 H29 0.929 . S
C4 C2 1.320 . S
C4 C5 1.405 . S
C4 H30 0.930 . S
C5 C0 1.479 . S
C5 C4 1.405 . S
C5 H31 0.931 . S
U6 O7 2.454 . S
U6 O8 2.458 . S
U6 C9 2.984 . S
U6 C10 2.847 . S
U6 C23 2.882 . S
U6 O24 2.441 . S
U6 O25 2.420 . S
U6 O26 2.455 . S
U6 O27 2.449 . S
O7 U6 2.454 . S
O7 C9 1.353 . S
O8 U6 2.458 . S
O8 C9 1.286 . S
C9 U6 2.984 . S
C9 O7 1.353 . S
C9 O8 1.286 . S
C9 C11 1.363 . S
C10 C0 1.465 . S
C10 U6 2.847 . S
C10 O24 1.249 . S
C10 O25 1.202 . S
C11 C9 1.363 . S
C11 C13 1.408 . S
C11 C16 1.342 . S
C12 C13 1.310 . S
C12 C15 1.461 . S
C12 H32 0.932 . S
C13 C11 1.408 . S
C13 C12 1.310 . S
C13 H33 0.930 . S
C14 C15 1.474 . S
C14 C16 1.285 . S
C14 H34 0.929 . S
C15 C12 1.461 . S
C15 C14 1.474 . S
C16 C11 1.342 . S
C16 C14 1.285 . S
C16 H35 0.930 . S
C17 C20 1.424 . S
C17 C22 1.245 . S
C17 C23 1.428 . S
C18 C21 1.260 . S
C18 C22 1.477 . S
C18 H36 0.932 . S
C19 C20 1.384 . S
C19 C21 1.479 . S
C19 H37 0.887 1_545 S
C20 C17 1.424 . S
C20 C19 1.384 . S
C20 H38 0.928 . S
C21 C18 1.260 . S
C21 C19 1.479 . S
C22 C17 1.245 . S
C22 C18 1.477 . S
C22 H39 0.932 . S
C23 U6 2.882 . S
C23 C17 1.428 . S
C23 O26 1.301 . S
C23 O27 1.282 . S
O24 U6 2.441 . S
O24 C10 1.249 . S
O25 U6 2.420 . S
O25 C10 1.202 . S
O26 U6 2.455 . S
O26 C23 1.301 . S
O27 U6 2.449 . S
O27 C23 1.282 . S
H28 C1 0.931 . S
H29 C3 0.929 . S
H30 C4 0.930 . S
H31 C5 0.931 . S
H32 C12 0.932 . S
H33 C13 0.930 . S
H34 C14 0.929 . S
H35 C16 0.930 . S
H36 C18 0.932 . S
H37 C19 0.887 1_565 S
H38 C20 0.928 . S
H39 C22 0.932 . S
C40 C41 1.264 . S
C40 C45 1.479 . S
C40 C50 1.465 . S
C41 C40 1.264 . S
C41 C43 1.339 . S
C41 H68 0.931 . S
C42 C43 1.395 . S
C42 C44 1.320 . S
C43 C41 1.339 . S
C43 C42 1.395 . S
C43 H69 0.929 . S
C44 C42 1.320 . S
C44 C45 1.405 . S
C44 H70 0.930 . S
C45 C40 1.479 . S
C45 C44 1.405 . S
C45 H71 0.931 . S
U46 O47 2.454 . S
U46 O48 2.458 . S
U46 C49 2.984 . S
U46 C50 2.847 . S
U46 C63 2.882 . S
U46 O64 2.441 . S
U46 O65 2.420 . S
U46 O66 2.455 . S
U46 O67 2.449 . S
O47 U46 2.454 . S
O47 C49 1.353 . S
O48 U46 2.458 . S
O48 C49 1.286 . S
C49 U46 2.984 . S
C49 O47 1.353 . S
C49 O48 1.286 . S
C49 C51 1.363 . S
C50 C40 1.465 . S
C50 U46 2.847 . S
C50 O64 1.249 . S
C50 O65 1.202 . S
C51 C49 1.363 . S
C51 C53 1.408 . S
C51 C56 1.342 . S
C52 C53 1.310 . S
C52 C55 1.461 . S
C52 H72 0.932 . S
C53 C51 1.408 . S
C53 C52 1.310 . S
C53 H73 0.930 . S
C54 C55 1.474 . S
C54 C56 1.285 . S
C54 H74 0.929 . S
C55 C52 1.461 . S
C55 C54 1.474 . S
C56 C51 1.342 . S
C56 C54 1.285 . S
C56 H75 0.930 . S
C57 C60 1.424 . S
C57 C62 1.245 . S
C57 C63 1.428 . S
C58 C61 1.260 . S
C58 C62 1.477 . S
C58 H76 0.932 . S
C59 C60 1.384 . S
C59 C61 1.479 . S
C59 H77 0.887 1_565 S
C60 C57 1.424 . S
C60 C59 1.384 . S
C60 H78 0.928 . S
C61 C58 1.260 . S
C61 C59 1.479 . S
C62 C57 1.245 . S
C62 C58 1.477 . S
C62 H79 0.932 . S
C63 U46 2.882 . S
C63 C57 1.428 . S
C63 O66 1.301 . S
C63 O67 1.282 . S
O64 U46 2.441 . S
O64 C50 1.249 . S
O65 U46 2.420 . S
O65 C50 1.202 . S
O66 U46 2.455 . S
O66 C63 1.301 . S
O67 U46 2.449 . S
O67 C63 1.282 . S
H68 C41 0.931 . S
H69 C43 0.929 . S
H70 C44 0.930 . S
H71 C45 0.931 . S
H72 C52 0.932 . S
H73 C53 0.930 . S
H74 C54 0.929 . S
H75 C56 0.930 . S
H76 C58 0.932 . S
H77 C59 0.887 1_545 S
H78 C60 0.928 . S
H79 C62 0.932 . S
C80 C81 1.264 . S
C80 C85 1.479 . S
C80 C90 1.465 . S
C81 C80 1.264 . S
C81 C83 1.339 . S
C81 H108 0.931 . S
C82 C83 1.395 . S
C82 C84 1.320 . S
C83 C81 1.339 . S
C83 C82 1.395 . S
C83 H109 0.929 . S
C84 C82 1.320 . S
C84 C85 1.405 . S
C84 H110 0.930 . S
C85 C80 1.479 . S
C85 C84 1.405 . S
C85 H111 0.931 . S
U86 O87 2.454 . S
U86 O88 2.458 . S
U86 C89 2.984 . S
U86 C90 2.847 . S
U86 C103 2.882 . S
U86 O104 2.441 . S
U86 O105 2.420 . S
U86 O106 2.455 . S
U86 O107 2.449 . S
O87 U86 2.454 . S
O87 C89 1.353 . S
O88 U86 2.458 . S
O88 C89 1.286 . S
C89 U86 2.984 . S
C89 O87 1.353 . S
C89 O88 1.286 . S
C89 C91 1.363 . S
C90 C80 1.465 . S
C90 U86 2.847 . S
C90 O104 1.249 . S
C90 O105 1.202 . S
C91 C89 1.363 . S
C91 C93 1.408 . S
C91 C96 1.342 . S
C92 C93 1.310 . S
C92 C95 1.461 . S
C92 H112 0.932 . S
C93 C91 1.408 . S
C93 C92 1.310 . S
C93 H113 0.930 . S
C94 C95 1.474 . S
C94 C96 1.285 . S
C94 H114 0.929 . S
C95 C92 1.461 . S
C95 C94 1.474 . S
C96 C91 1.342 . S
C96 C94 1.285 . S
C96 H115 0.930 . S
C97 C100 1.424 . S
C97 C102 1.245 . S
C97 C103 1.428 . S
C98 C101 1.260 . S
C98 C102 1.477 . S
C98 H116 0.932 . S
C99 C100 1.384 . S
C99 C101 1.479 . S
C99 H117 0.929 . S
C100 C97 1.424 . S
C100 C99 1.384 . S
C100 H118 0.928 . S
C101 C98 1.260 . S
C101 C99 1.479 . S
C102 C97 1.245 . S
C102 C98 1.477 . S
C102 H119 0.932 . S
C103 U86 2.882 . S
C103 C97 1.428 . S
C103 O106 1.301 . S
C103 O107 1.282 . S
O104 U86 2.441 . S
O104 C90 1.249 . S
O105 U86 2.420 . S
O105 C90 1.202 . S
O106 U86 2.455 . S
O106 C103 1.301 . S
O107 U86 2.449 . S
O107 C103 1.282 . S
H108 C81 0.931 . S
H109 C83 0.929 . S
H110 C84 0.930 . S
H111 C85 0.931 . S
H112 C92 0.932 . S
H113 C93 0.930 . S
H114 C94 0.929 . S
H115 C96 0.930 . S
H116 C98 0.932 . S
H117 C99 0.929 . S
H118 C100 0.928 . S
H119 C102 0.932 . S
C120 C121 1.264 . S
C120 C125 1.479 . S
C120 C130 1.465 . S
C121 C120 1.264 . S
C121 C123 1.339 . S
C121 H148 0.931 . S
C122 C123 1.395 . S
C122 C124 1.320 . S
C123 C121 1.339 . S
C123 C122 1.395 . S
C123 H149 0.929 . S
C124 C122 1.320 . S
C124 C125 1.405 . S
C124 H150 0.930 . S
C125 C120 1.479 . S
C125 C124 1.405 . S
C125 H151 0.931 . S
U126 O127 2.454 . S
U126 O128 2.458 . S
U126 C129 2.984 . S
U126 C130 2.847 . S
U126 C143 2.882 . S
U126 O144 2.441 . S
U126 O145 2.420 . S
U126 O146 2.455 . S
U126 O147 2.449 . S
O127 U126 2.454 . S
O127 C129 1.353 . S
O128 U126 2.458 . S
O128 C129 1.286 . S
C129 U126 2.984 . S
C129 O127 1.353 . S
C129 O128 1.286 . S
C129 C131 1.363 . S
C130 C120 1.465 . S
C130 U126 2.847 . S
C130 O144 1.249 . S
C130 O145 1.202 . S
C131 C129 1.363 . S
C131 C133 1.408 . S
C131 C136 1.342 . S
C132 C133 1.310 . S
C132 C135 1.461 . S
C132 H152 0.932 . S
C133 C131 1.408 . S
C133 C132 1.310 . S
C133 H153 0.930 . S
C134 C135 1.474 . S
C134 C136 1.285 . S
C134 H154 0.929 . S
C135 C132 1.461 . S
C135 C134 1.474 . S
C136 C131 1.342 . S
C136 C134 1.285 . S
C136 H155 0.930 . S
C137 C140 1.424 . S
C137 C142 1.245 . S
C137 C143 1.428 . S
C138 C141 1.260 . S
C138 C142 1.477 . S
C138 H156 0.932 . S
C139 C140 1.384 . S
C139 C141 1.479 . S
C139 H157 0.929 . S
C140 C137 1.424 . S
C140 C139 1.384 . S
C140 H158 0.928 . S
C141 C138 1.260 . S
C141 C139 1.479 . S
C142 C137 1.245 . S
C142 C138 1.477 . S
C142 H159 0.932 . S
C143 U126 2.882 . S
C143 C137 1.428 . S
C143 O146 1.301 . S
C143 O147 1.282 . S
O144 U126 2.441 . S
O144 C130 1.249 . S
O145 U126 2.420 . S
O145 C130 1.202 . S
O146 U126 2.455 . S
O146 C143 1.301 . S
O147 U126 2.449 . S
O147 C143 1.282 . S
H148 C121 0.931 . S
H149 C123 0.929 . S
H150 C124 0.930 . S
H151 C125 0.931 . S
H152 C132 0.932 . S
H153 C133 0.930 . S
H154 C134 0.929 . S
H155 C136 0.930 . S
H156 C138 0.932 . S
H157 C139 0.929 . S
H158 C140 0.928 . S
H159 C142 0.932 . S
C160 C161 1.264 . S
C160 C165 1.479 . S
C160 C170 1.465 . S
C161 C160 1.264 . S
C161 C163 1.339 . S
C161 H188 0.931 . S
C162 C163 1.395 . S
C162 C164 1.320 . S
C163 C161 1.339 . S
C163 C162 1.395 . S
C163 H189 0.929 1_565 S
C164 C162 1.320 . S
C164 C165 1.405 . S
C164 H190 0.930 . S
C165 C160 1.479 . S
C165 C164 1.405 . S
C165 H191 0.931 . S
U166 O167 2.454 . S
U166 O168 2.458 . S
U166 C169 2.984 . S
U166 C170 2.847 . S
U166 C183 2.882 . S
U166 O184 2.441 . S
U166 O185 2.420 . S
U166 O186 2.455 . S
U166 O187 2.449 . S
O167 U166 2.454 . S
O167 C169 1.353 . S
O168 U166 2.458 . S
O168 C169 1.286 . S
C169 U166 2.984 . S
C169 O167 1.353 . S
C169 O168 1.286 . S
C169 C171 1.363 . S
C170 C160 1.465 . S
C170 U166 2.847 . S
C170 O184 1.249 . S
C170 O185 1.202 . S
C171 C169 1.363 . S
C171 C173 1.408 . S
C171 C176 1.342 . S
C172 C173 1.310 . S
C172 C175 1.461 . S
C172 H192 0.932 . S
C173 C171 1.408 . S
C173 C172 1.310 . S
C173 H193 0.930 . S
C174 C175 1.474 . S
C174 C176 1.285 . S
C174 H194 0.929 . S
C175 C172 1.461 . S
C175 C174 1.474 . S
C176 C171 1.342 . S
C176 C174 1.285 . S
C176 H195 0.930 . S
C177 C180 1.424 . S
C177 C182 1.245 . S
C177 C183 1.428 . S
C178 C181 1.260 . S
C178 C182 1.477 . S
C178 H196 0.932 . S
C179 C180 1.384 . S
C179 C181 1.479 . S
C179 H197 0.929 1_565 S
C180 C177 1.424 . S
C180 C179 1.384 . S
C180 H198 0.928 . S
C181 C178 1.260 . S
C181 C179 1.479 . S
C182 C177 1.245 . S
C182 C178 1.477 . S
C182 H199 0.932 . S
C183 U166 2.882 . S
C183 C177 1.428 . S
C183 O186 1.301 . S
C183 O187 1.282 . S
O184 U166 2.441 . S
O184 C170 1.249 . S
O185 U166 2.420 . S
O185 C170 1.202 . S
O186 U166 2.455 . S
O186 C183 1.301 . S
O187 U166 2.449 . S
O187 C183 1.282 . S
H188 C161 0.931 . S
H189 C163 0.929 1_545 S
H190 C164 0.930 . S
H191 C165 0.931 . S
H192 C172 0.932 . S
H193 C173 0.930 . S
H194 C174 0.929 . S
H195 C176 0.930 . S
H196 C178 0.932 . S
H197 C179 0.929 1_545 S
H198 C180 0.928 . S
H199 C182 0.932 . S
C200 C201 1.264 . S
C200 C205 1.479 . S
C200 C210 1.465 . S
C201 C200 1.264 . S
C201 C203 1.339 . S
C201 H228 0.931 . S
C202 C203 1.395 . S
C202 C204 1.320 . S
C203 C201 1.339 . S
C203 C202 1.395 . S
C203 H229 0.929 1_545 S
C204 C202 1.320 . S
C204 C205 1.405 . S
C204 H230 0.930 . S
C205 C200 1.479 . S
C205 C204 1.405 . S
C205 H231 0.931 . S
U206 O207 2.454 . S
U206 O208 2.458 . S
U206 C209 2.984 . S
U206 C210 2.847 . S
U206 C223 2.882 . S
U206 O224 2.441 . S
U206 O225 2.420 . S
U206 O226 2.455 . S
U206 O227 2.449 . S
O207 U206 2.454 . S
O207 C209 1.353 . S
O208 U206 2.458 . S
O208 C209 1.286 . S
C209 U206 2.984 . S
C209 O207 1.353 . S
C209 O208 1.286 . S
C209 C211 1.363 . S
C210 C200 1.465 . S
C210 U206 2.847 . S
C210 O224 1.249 . S
C210 O225 1.202 . S
C211 C209 1.363 . S
C211 C213 1.408 . S
C211 C216 1.342 . S
C212 C213 1.310 . S
C212 C215 1.461 . S
C212 H232 0.932 . S
C213 C211 1.408 . S
C213 C212 1.310 . S
C213 H233 0.930 . S
C214 C215 1.474 . S
C214 C216 1.285 . S
C214 H234 0.929 . S
C215 C212 1.461 . S
C215 C214 1.474 . S
C216 C211 1.342 . S
C216 C214 1.285 . S
C216 H235 0.930 . S
C217 C220 1.424 . S
C217 C222 1.245 . S
C217 C223 1.428 . S
C218 C221 1.260 . S
C218 C222 1.477 . S
C218 H236 0.932 . S
C219 C220 1.384 . S
C219 C221 1.479 . S
C219 H237 0.929 1_545 S
C220 C217 1.424 . S
C220 C219 1.384 . S
C220 H238 0.928 . S
C221 C218 1.260 . S
C221 C219 1.479 . S
C222 C217 1.245 . S
C222 C218 1.477 . S
C222 H239 0.932 . S
C223 U206 2.882 . S
C223 C217 1.428 . S
C223 O226 1.301 . S
C223 O227 1.282 . S
O224 U206 2.441 . S
O224 C210 1.249 . S
O225 U206 2.420 . S
O225 C210 1.202 . S
O226 U206 2.455 . S
O226 C223 1.301 . S
O227 U206 2.449 . S
O227 C223 1.282 . S
H228 C201 0.931 . S
H229 C203 0.929 1_565 S
H230 C204 0.930 . S
H231 C205 0.931 . S
H232 C212 0.932 . S
H233 C213 0.930 . S
H234 C214 0.929 . S
H235 C216 0.930 . S
H236 C218 0.932 . S
H237 C219 0.929 1_565 S
H238 C220 0.928 . S
H239 C222 0.932 . S
C240 C241 1.264 . S
C240 C245 1.479 . S
C240 C250 1.465 . S
C241 C240 1.264 . S
C241 C243 1.339 . S
C241 H268 0.931 . S
C242 C243 1.395 . S
C242 C244 1.320 . S
C243 C241 1.339 . S
C243 C242 1.395 . S
C243 H269 0.929 . S
C244 C242 1.320 . S
C244 C245 1.405 . S
C244 H270 0.930 . S
C245 C240 1.479 . S
C245 C244 1.405 . S
C245 H271 0.931 . S
U246 O247 2.454 . S
U246 O248 2.458 . S
U246 C249 2.984 . S
U246 C250 2.847 . S
U246 C263 2.882 . S
U246 O264 2.441 . S
U246 O265 2.420 . S
U246 O266 2.455 . S
U246 O267 2.449 . S
O247 U246 2.454 . S
O247 C249 1.353 . S
O248 U246 2.458 . S
O248 C249 1.286 . S
C249 U246 2.984 . S
C249 O247 1.353 . S
C249 O248 1.286 . S
C249 C251 1.363 . S
C250 C240 1.465 . S
C250 U246 2.847 . S
C250 O264 1.249 . S
C250 O265 1.202 . S
C251 C249 1.363 . S
C251 C253 1.408 . S
C251 C256 1.342 . S
C252 C253 1.310 . S
C252 C255 1.461 . S
C252 H272 0.932 . S
C253 C251 1.408 . S
C253 C252 1.310 . S
C253 H273 0.930 . S
C254 C255 1.474 . S
C254 C256 1.285 . S
C254 H274 0.929 . S
C255 C252 1.461 . S
C255 C254 1.474 . S
C256 C251 1.342 . S
C256 C254 1.285 . S
C256 H275 0.930 . S
C257 C260 1.424 . S
C257 C262 1.245 . S
C257 C263 1.428 . S
C258 C261 1.260 . S
C258 C262 1.477 . S
C258 H276 0.932 . S
C259 C260 1.384 . S
C259 C261 1.479 . S
C259 H277 0.929 . S
C260 C257 1.424 . S
C260 C259 1.384 . S
C260 H278 0.928 . S
C261 C258 1.260 . S
C261 C259 1.479 . S
C262 C257 1.245 . S
C262 C258 1.477 . S
C262 H279 0.932 . S
C263 U246 2.882 . S
C263 C257 1.428 . S
C263 O266 1.301 . S
C263 O267 1.282 . S
O264 U246 2.441 . S
O264 C250 1.249 . S
O265 U246 2.420 . S
O265 C250 1.202 . S
O266 U246 2.455 . S
O266 C263 1.301 . S
O267 U246 2.449 . S
O267 C263 1.282 . S
H268 C241 0.931 . S
H269 C243 0.929 . S
H270 C244 0.930 . S
H271 C245 0.931 . S
H272 C252 0.932 . S
H273 C253 0.930 . S
H274 C254 0.929 . S
H275 C256 0.930 . S
H276 C258 0.932 . S
H277 C259 0.929 . S
H278 C260 0.928 . S
H279 C262 0.932 . S
C280 C281 1.264 . S
C280 C285 1.479 . S
C280 C290 1.465 . S
C281 C280 1.264 . S
C281 C283 1.339 . S
C281 H308 0.931 . S
C282 C283 1.395 . S
C282 C284 1.320 . S
C283 C281 1.339 . S
C283 C282 1.395 . S
C283 H309 0.929 . S
C284 C282 1.320 . S
C284 C285 1.405 . S
C284 H310 0.930 . S
C285 C280 1.479 . S
C285 C284 1.405 . S
C285 H311 0.931 . S
U286 O287 2.454 . S
U286 O288 2.458 . S
U286 C289 2.984 . S
U286 C290 2.847 . S
U286 C303 2.882 . S
U286 O304 2.441 . S
U286 O305 2.420 . S
U286 O306 2.455 . S
U286 O307 2.449 . S
O287 U286 2.454 . S
O287 C289 1.353 . S
O288 U286 2.458 . S
O288 C289 1.286 . S
C289 U286 2.984 . S
C289 O287 1.353 . S
C289 O288 1.286 . S
C289 C291 1.363 . S
C290 C280 1.465 . S
C290 U286 2.847 . S
C290 O304 1.249 . S
C290 O305 1.202 . S
C291 C289 1.363 . S
C291 C293 1.408 . S
C291 C296 1.342 . S
C292 C293 1.310 . S
C292 C295 1.461 . S
C292 H312 0.932 . S
C293 C291 1.408 . S
C293 C292 1.310 . S
C293 H313 0.930 . S
C294 C295 1.474 . S
C294 C296 1.285 . S
C294 H314 0.929 . S
C295 C292 1.461 . S
C295 C294 1.474 . S
C296 C291 1.342 . S
C296 C294 1.285 . S
C296 H315 0.930 . S
C297 C300 1.424 . S
C297 C302 1.245 . S
C297 C303 1.428 . S
C298 C301 1.260 . S
C298 C302 1.477 . S
C298 H316 0.932 . S
C299 C300 1.384 . S
C299 C301 1.479 . S
C299 H317 0.929 . S
C300 C297 1.424 . S
C300 C299 1.384 . S
C300 H318 0.928 . S
C301 C298 1.260 . S
C301 C299 1.479 . S
C302 C297 1.245 . S
C302 C298 1.477 . S
C302 H319 0.932 . S
C303 U286 2.882 . S
C303 C297 1.428 . S
C303 O306 1.301 . S
C303 O307 1.282 . S
O304 U286 2.441 . S
O304 C290 1.249 . S
O305 U286 2.420 . S
O305 C290 1.202 . S
O306 U286 2.455 . S
O306 C303 1.301 . S
O307 U286 2.449 . S
O307 C303 1.282 . S
H308 C281 0.931 . S
H309 C283 0.929 . S
H310 C284 0.930 . S
H311 C285 0.931 . S
H312 C292 0.932 . S
H313 C293 0.930 . S
H314 C294 0.929 . S
H315 C296 0.930 . S
H316 C298 0.932 . S
H317 C299 0.929 . S
H318 C300 0.928 . S
H319 C302 0.932 . S
C320 C321 1.387 . S
C320 H324 0.950 . S
C320 C329 1.390 . S
C321 C320 1.387 . S
C321 C323 1.387 . S
H322 C329 0.950 . S
C323 C321 1.387 . S
C323 C325 1.390 . S
C323 H327 0.950 . S
H324 C320 0.950 . S
C325 C323 1.390 . S
C325 C326 1.387 . S
C325 H328 0.950 . S
C326 C325 1.387 . S
C326 C329 1.387 . S
H327 C323 0.950 . S
H328 C325 0.950 . S
C329 C320 1.390 . S
C329 H322 0.950 . S
C329 C326 1.387 . S
C330 C331 1.387 . S
C330 H334 0.950 . S
C330 C339 1.390 . S
C331 C330 1.387 . S
C331 C333 1.387 . S
H332 C339 0.950 . S
C333 C331 1.387 . S
C333 C335 1.390 . S
C333 H337 0.950 . S
H334 C330 0.950 . S
C335 C333 1.390 . S
C335 C336 1.387 . S
C335 H338 0.950 . S
C336 C335 1.387 . S
C336 C339 1.387 . S
H337 C333 0.950 . S
H338 C335 0.950 . S
C339 C330 1.390 . S
C339 H332 0.950 . S
C339 C336 1.387 . S
C340 C341 1.387 . S
C340 H344 0.950 . S
C340 C349 1.390 . S
C341 C340 1.387 . S
C341 C343 1.387 . S
H342 C349 0.950 . S
C343 C341 1.387 . S
C343 C345 1.390 . S
C343 H347 0.950 . S
H344 C340 0.950 . S
C345 C343 1.390 . S
C345 C346 1.387 . S
C345 H348 0.950 . S
C346 C345 1.387 . S
C346 C349 1.387 . S
H347 C343 0.950 . S
H348 C345 0.950 . S
C349 C340 1.390 . S
C349 H342 0.950 . S
C349 C346 1.387 . S
C350 C351 1.387 . S
C350 H354 0.950 . S
C350 C359 1.390 . S
C351 C350 1.387 . S
C351 C353 1.387 . S
H352 C359 0.950 . S
C353 C351 1.387 . S
C353 C355 1.390 . S
C353 H357 0.950 . S
H354 C350 0.950 . S
C355 C353 1.390 . S
C355 C356 1.387 . S
C355 H358 0.950 . S
C356 C355 1.387 . S
C356 C359 1.387 . S
H357 C353 0.950 . S
H358 C355 0.950 . S
C359 C350 1.390 . S
C359 H352 0.950 . S
C359 C356 1.387 . S
C360 C361 1.387 . S
C360 H364 0.950 . S
C360 C369 1.390 1_565 S
C361 C360 1.387 . S
C361 C363 1.387 . S
H362 C369 0.950 . S
C363 C361 1.387 . S
C363 C365 1.390 1_565 S
C363 H367 0.950 . S
H364 C360 0.950 . S
C365 C363 1.390 1_545 S
C365 C366 1.387 . S
C365 H368 0.950 . S
C366 C365 1.387 . S
C366 C369 1.387 . S
H367 C363 0.950 . S
H368 C365 0.950 . S
C369 C360 1.390 1_545 S
C369 H362 0.950 . S
C369 C366 1.387 . S
C370 C371 1.387 . S
C370 H374 0.950 . S
C370 C379 1.390 . S
C371 C370 1.387 . S
C371 C373 1.387 . S
H372 C379 0.950 . S
C373 C371 1.387 . S
C373 C375 1.390 . S
C373 H377 0.950 . S
H374 C370 0.950 . S
C375 C373 1.390 . S
C375 C376 1.387 . S
C375 H378 0.950 . S
C376 C375 1.387 . S
C376 C379 1.387 . S
H377 C373 0.950 . S
H378 C375 0.950 . S
C379 C370 1.390 . S
C379 H372 0.950 . S
C379 C376 1.387 . S
C380 C381 1.387 . S
C380 H384 0.950 . S
C380 C389 1.390 1_545 S
C381 C380 1.387 . S
C381 C383 1.387 . S
H382 C389 0.950 . S
C383 C381 1.387 . S
C383 C385 1.390 1_545 S
C383 H387 0.950 . S
H384 C380 0.950 . S
C385 C383 1.390 1_565 S
C385 C386 1.387 . S
C385 H388 0.950 . S
C386 C385 1.387 . S
C386 C389 1.387 . S
H387 C383 0.950 . S
H388 C385 0.950 . S
C389 C380 1.390 1_565 S
C389 H382 0.950 . S
C389 C386 1.387 . S
C390 C391 1.387 . S
C390 H394 0.950 . S
C390 C399 1.390 . S
C391 C390 1.387 . S
C391 C393 1.387 . S
H392 C399 0.950 . S
C393 C391 1.387 . S
C393 C395 1.390 . S
C393 H397 0.950 . S
H394 C390 0.950 . S
C395 C393 1.390 . S
C395 C396 1.387 . S
C395 H398 0.950 . S
C396 C395 1.387 . S
C396 C399 1.387 . S
H397 C393 0.950 . S
H398 C395 0.950 . S
C399 C390 1.390 . S
C399 H392 0.950 . S
C399 C396 1.387 . S
C400 C401 1.387 1_545 S
C400 H404 0.950 . S
C400 C409 1.390 1_655 S
C401 C400 1.387 1_565 S
C401 C403 1.387 1_556 S
H402 C409 0.950 . S
C403 C401 1.387 1_554 S
C403 C405 1.390 1_655 S
C403 H407 0.950 . S
H404 C400 0.950 . S
C405 C403 1.390 1_455 S
C405 C406 1.387 1_565 S
C405 H408 0.950 . S
C406 C405 1.387 1_545 S
C406 C409 1.387 1_554 S
H407 C403 0.950 . S
H408 C405 0.950 . S
C409 C400 1.390 1_455 S
C409 H402 0.950 . S
C409 C406 1.387 1_556 S
C410 C411 1.387 1_545 S
C410 H414 0.950 . S
C410 C419 1.390 . S
C411 C410 1.387 1_565 S
C411 C413 1.387 1_554 S
H412 C419 0.950 . S
C413 C411 1.387 1_556 S
C413 C415 1.390 . S
C413 H417 0.950 . S
H414 C410 0.950 . S
C415 C413 1.390 . S
C415 C416 1.387 1_565 S
C415 H418 0.950 . S
C416 C415 1.387 1_545 S
C416 C419 1.387 1_556 S
H417 C413 0.950 . S
H418 C415 0.950 . S
C419 C410 1.390 . S
C419 H412 0.950 . S
C419 C416 1.387 1_554 S
C420 C421 1.387 . S
C420 H424 0.950 . S
C420 C429 1.390 1_655 S
C421 C420 1.387 . S
C421 C423 1.387 . S
H422 C429 0.950 . S
C423 C421 1.387 . S
C423 C425 1.390 1_655 S
C423 H427 0.950 . S
H424 C420 0.950 . S
C425 C423 1.390 1_455 S
C425 C426 1.387 . S
C425 H428 0.950 . S
C426 C425 1.387 . S
C426 C429 1.387 . S
H427 C423 0.950 . S
H428 C425 0.950 . S
C429 C420 1.390 1_455 S
C429 H422 0.950 . S
C429 C426 1.387 . S
C430 C431 1.387 . S
C430 H434 0.950 . S
C430 C439 1.390 . S
C431 C430 1.387 . S
C431 C433 1.387 . S
H432 C439 0.950 . S
C433 C431 1.387 . S
C433 C435 1.390 . S
C433 H437 0.950 . S
H434 C430 0.950 . S
C435 C433 1.390 . S
C435 C436 1.387 . S
C435 H438 0.950 . S
C436 C435 1.387 . S
C436 C439 1.387 . S
H437 C433 0.950 . S
H438 C435 0.950 . S
C439 C430 1.390 . S
C439 H432 0.950 . S
C439 C436 1.387 . S
C321 C15 1.500 . S
C326 C95 1.500 . S
C331 C55 1.500 . S
C336 C135 1.500 . S
C341 C175 1.501 . S
C346 C255 1.501 . S
C351 C295 1.501 . S
C356 C215 1.501 . S
C361 C61 1.488 . S
C366 C21 1.488 . S
C371 C141 1.488 . S
C376 C101 1.488 . S
C381 C221 1.490 . S
C386 C181 1.490 . S
C391 C301 1.490 . S
C396 C261 1.490 . S
C401 C162 1.491 . S
C406 C2 1.485 . S
C411 C42 1.485 . S
C416 C202 1.492 . S
C421 C242 1.491 . S
C426 C82 1.485 . S
C431 C122 1.485 . S
C436 C282 1.491 . S
