# Generated by pormake.
# Topology ure, (4)-cn, num edge types: 1
# Building blocks:
#     Node 0, Type 0, BuildingBlock: CEKHIL_clean_sbu_0, # of connection points: 4
#     Node 1, Type 0, BuildingBlock: CEKHIL_clean_sbu_0, # of connection points: 4
#     Node 2, Type 0, BuildingBlock: CEKHIL_clean_sbu_0, # of connection points: 4
#     Node 3, Type 0, BuildingBlock: CEKHIL_clean_sbu_0, # of connection points: 4
#     Node 4, Type 0, BuildingBlock: CEKHIL_clean_sbu_0, # of connection points: 4
#     Node 5, Type 0, BuildingBlock: CEKHIL_clean_sbu_0, # of connection points: 4
#     Node 6, Type 0, BuildingBlock: CEKHIL_clean_sbu_0, # of connection points: 4
#     Node 7, Type 0, BuildingBlock: CEKHIL_clean_sbu_0, # of connection points: 4
#     Node 8, Type 0, BuildingBlock: CEKHIL_clean_sbu_0, # of connection points: 4
#     Node 9, Type 0, BuildingBlock: CEKHIL_clean_sbu_0, # of connection points: 4
#     Node 10, Type 0, BuildingBlock: CEKHIL_clean_sbu_0, # of connection points: 4
#     Node 11, Type 0, BuildingBlock: CEKHIL_clean_sbu_0, # of connection points: 4
#     Node 12, Type 0, BuildingBlock: CEKHIL_clean_sbu_0, # of connection points: 4
#     Node 13, Type 0, BuildingBlock: CEKHIL_clean_sbu_0, # of connection points: 4
#     Node 14, Type 0, BuildingBlock: CEKHIL_clean_sbu_0, # of connection points: 4
#     Node 15, Type 0, BuildingBlock: CEKHIL_clean_sbu_0, # of connection points: 4
#     Edge 16, Type (0, 0), BuildingBlock: MIFKUJ_clean_linker_0, # of connection points: 2
#     Edge 17, Type (0, 0), BuildingBlock: MIFKUJ_clean_linker_0, # of connection points: 2
#     Edge 18, Type (0, 0), BuildingBlock: MIFKUJ_clean_linker_0, # of connection points: 2
#     Edge 19, Type (0, 0), BuildingBlock: MIFKUJ_clean_linker_0, # of connection points: 2
#     Edge 20, Type (0, 0), BuildingBlock: MIFKUJ_clean_linker_0, # of connection points: 2
#     Edge 21, Type (0, 0), BuildingBlock: MIFKUJ_clean_linker_0, # of connection points: 2
#     Edge 22, Type (0, 0), BuildingBlock: MIFKUJ_clean_linker_0, # of connection points: 2
#     Edge 23, Type (0, 0), BuildingBlock: MIFKUJ_clean_linker_0, # of connection points: 2
#     Edge 24, Type (0, 0), BuildingBlock: MIFKUJ_clean_linker_0, # of connection points: 2
#     Edge 25, Type (0, 0), BuildingBlock: MIFKUJ_clean_linker_0, # of connection points: 2
#     Edge 26, Type (0, 0), BuildingBlock: MIFKUJ_clean_linker_0, # of connection points: 2
#     Edge 27, Type (0, 0), BuildingBlock: MIFKUJ_clean_linker_0, # of connection points: 2
#     Edge 28, Type (0, 0), BuildingBlock: MIFKUJ_clean_linker_0, # of connection points: 2
#     Edge 29, Type (0, 0), BuildingBlock: MIFKUJ_clean_linker_0, # of connection points: 2
#     Edge 30, Type (0, 0), BuildingBlock: MIFKUJ_clean_linker_0, # of connection points: 2
#     Edge 31, Type (0, 0), BuildingBlock: MIFKUJ_clean_linker_0, # of connection points: 2
#     Edge 32, Type (0, 0), BuildingBlock: MIFKUJ_clean_linker_0, # of connection points: 2
#     Edge 33, Type (0, 0), BuildingBlock: MIFKUJ_clean_linker_0, # of connection points: 2
#     Edge 34, Type (0, 0), BuildingBlock: MIFKUJ_clean_linker_0, # of connection points: 2
#     Edge 35, Type (0, 0), BuildingBlock: MIFKUJ_clean_linker_0, # of connection points: 2
#     Edge 36, Type (0, 0), BuildingBlock: MIFKUJ_clean_linker_0, # of connection points: 2
#     Edge 37, Type (0, 0), BuildingBlock: MIFKUJ_clean_linker_0, # of connection points: 2
#     Edge 38, Type (0, 0), BuildingBlock: MIFKUJ_clean_linker_0, # of connection points: 2
#     Edge 39, Type (0, 0), BuildingBlock: MIFKUJ_clean_linker_0, # of connection points: 2
#     Edge 40, Type (0, 0), BuildingBlock: MIFKUJ_clean_linker_0, # of connection points: 2
#     Edge 41, Type (0, 0), BuildingBlock: MIFKUJ_clean_linker_0, # of connection points: 2
#     Edge 42, Type (0, 0), BuildingBlock: MIFKUJ_clean_linker_0, # of connection points: 2
#     Edge 43, Type (0, 0), BuildingBlock: MIFKUJ_clean_linker_0, # of connection points: 2
#     Edge 44, Type (0, 0), BuildingBlock: MIFKUJ_clean_linker_0, # of connection points: 2
#     Edge 45, Type (0, 0), BuildingBlock: MIFKUJ_clean_linker_0, # of connection points: 2
#     Edge 46, Type (0, 0), BuildingBlock: MIFKUJ_clean_linker_0, # of connection points: 2
#     Edge 47, Type (0, 0), BuildingBlock: MIFKUJ_clean_linker_0, # of connection points: 2
# Relax obj value: 0.229
# Max RMSD: 0.160
# Mean RMSD: 0.160
data_MOF--net-ure--node1-CEKHIL_clean_sbu_0--edge1-MIFKUJ_clean_linker_0
_symmetry_space_group_name_H-M    P1
_symmetry_Int_Tables_number       1
_symmetry_cell_setting            triclinic
loop_
_symmetry_equiv_pos_as_xyz
'x, y, z'
_cell_length_a     44.447936
_cell_length_b     37.748239
_cell_length_c     37.715796
_cell_angle_alpha  90.050895
_cell_angle_beta   90.098801
_cell_angle_gamma 90.027919
loop_
_atom_site_label
_atom_site_type_symbol
_atom_site_fract_x
_atom_site_fract_y
_atom_site_fract_z
_atom_type_partial_charge
Co0 Co 0.27042 0.23934 0.26203 0.0
O1 O 0.22839 0.22877 0.25347 0.0
O2 O 0.26433 0.22154 0.2139 0.0
C3 C 0.27268 0.21204 0.31557 0.0
O4 O 0.31648 0.24661 0.26167 0.0
Co5 Co 0.28914 0.28514 0.32774 0.0
O6 O 0.33062 0.27477 0.31174 0.0
C7 C 0.25842 0.31781 0.26689 0.0
C8 C 0.23599 0.21838 0.22198 0.0
C9 C 0.33692 0.25995 0.28227 0.0
O10 O 0.26386 0.29055 0.24718 0.0
O11 O 0.26297 0.31837 0.30038 0.0
O12 O 0.27522 0.19346 0.2867 0.0
O13 O 0.26673 0.24499 0.31091 0.0
Co14 Co 0.99456 0.02071 0.50003 0.0
O15 O 0.03644 0.01109 0.49038 0.0
O16 O 1.0006 0.97086 0.4875 0.0
C17 C 0.99311 0.07048 0.46653 0.0
O18 O 0.9485 0.02134 0.50713 0.0
Co19 Co 0.97634 0.09071 0.53782 0.0
O20 O 0.93463 0.07373 0.53072 0.0
C21 C 1.00478 0.03318 0.57866 0.0
C22 C 0.02893 0.9787 0.48331 0.0
C23 C 0.92824 0.04302 0.51879 0.0
O24 O 1.00115 0.01133 0.55259 0.0
O25 O 0.99966 0.06644 0.57611 0.0
O26 O 0.98948 0.03969 0.45177 0.0
O27 O 0.99927 0.07005 0.49984 0.0
Co28 Co 0.23682 0.7638 0.7704 0.0
O29 O 0.2785 0.77119 0.7581 0.0
O30 O 0.24036 0.7871 0.72425 0.0
C31 C 0.24157 0.78413 0.8268 0.0
O32 O 0.19058 0.76105 0.77546 0.0
Co33 Co 0.22094 0.71203 0.83254 0.0
O34 O 0.18 0.73152 0.82584 0.0
C35 C 0.23968 0.68375 0.7629 0.0
C36 C 0.26938 0.78614 0.72914 0.0
C37 C 0.17168 0.74917 0.79871 0.0
O38 O 0.23795 0.71462 0.74826 0.0
O39 O 0.23653 0.67829 0.79615 0.0
O40 O 0.23745 0.80636 0.80096 0.0
O41 O 0.24469 0.75164 0.81735 0.0
Co42 Co 0.5209 0.98118 0.99133 0.0
O43 O 0.47819 0.98854 0.98435 0.0
O44 O 0.51218 0.03073 0.97991 0.0
C45 C 0.52275 0.93183 0.95732 0.0
O46 O 0.56723 0.9831 0.99516 0.0
Co47 Co 0.54502 0.91133 0.02602 0.0
O48 O 0.58449 0.92856 0.00876 0.0
C49 C 0.51714 0.96706 0.07037 0.0
C50 C 0.48411 0.02126 0.97671 0.0
C51 C 0.58891 0.96069 0.99979 0.0
O52 O 0.51714 0.98948 0.04446 0.0
O53 O 0.52427 0.93438 0.06705 0.0
O54 O 0.52376 0.96281 0.94246 0.0
O55 O 0.5188 0.93173 0.99104 0.0
Co56 Co 0.28894 0.76373 0.24907 0.0
O57 O 0.2464 0.76822 0.25951 0.0
O58 O 0.2828 0.78297 0.29648 0.0
C59 C 0.28547 0.78819 0.19417 0.0
O60 O 0.33545 0.76414 0.24776 0.0
Co61 Co 0.31206 0.71978 0.18396 0.0
O62 O 0.35209 0.73742 0.19798 0.0
C63 C 0.29191 0.6833 0.24941 0.0
C64 C 0.25407 0.78157 0.28991 0.0
C65 C 0.35685 0.75383 0.22696 0.0
O66 O 0.28881 0.71267 0.26673 0.0
O67 O 0.29848 0.68153 0.21646 0.0
O68 O 0.28729 0.80854 0.22191 0.0
O69 O 0.28417 0.75485 0.20068 0.0
Co70 Co 0.53992 0.00989 0.51931 0.0
O71 O 0.4968 0.00284 0.52234 0.0
O72 O 0.53055 0.96427 0.54084 0.0
C73 C 0.53841 0.06628 0.54022 0.0
O74 O 0.58633 0.00798 0.52216 0.0
Co75 Co 0.5694 0.06947 0.47378 0.0
O76 O 0.60599 0.05898 0.50166 0.0
C77 C 0.54738 0.00319 0.43958 0.0
C78 C 0.50231 0.97279 0.53769 0.0
C79 C 0.60872 0.0293 0.51726 0.0
O80 O 0.54049 0.98895 0.46964 0.0
O81 O 0.55744 0.03479 0.43623 0.0
O82 O 0.53829 0.03976 0.56219 0.0
O83 O 0.53816 0.0579 0.50716 0.0
Co84 Co 0.23005 0.23713 0.73107 0.0
O85 O 0.27185 0.22774 0.74192 0.0
O86 O 0.23484 0.22016 0.77987 0.0
C87 C 0.23064 0.20899 0.67791 0.0
O88 O 0.18382 0.24313 0.72841 0.0
Co89 Co 0.21379 0.28157 0.6633 0.0
O90 O 0.17197 0.26963 0.67661 0.0
C91 C 0.23824 0.31686 0.7269 0.0
C92 C 0.26349 0.21742 0.77313 0.0
C93 C 0.16434 0.25544 0.70594 0.0
O94 O 0.23479 0.28868 0.74589 0.0
O95 O 0.23437 0.31786 0.69331 0.0
O96 O 0.22725 0.19078 0.70684 0.0
O97 O 0.23575 0.24218 0.68237 0.0
Co98 Co 0.97418 0.96942 0.02598 0.0
O99 O 0.01681 0.97849 0.03236 0.0
O100 O 0.98169 0.01955 0.03528 0.0
C101 C 0.97332 0.92138 0.06203 0.0
O102 O 0.92773 0.97032 0.02222 0.0
Co103 Co 0.95078 0.89746 0.9948 0.0
O104 O 0.9106 0.91633 0.00649 0.0
C105 C 0.97708 0.95194 0.94721 0.0
C106 C 0.01 0.01134 0.03846 0.0
C107 C 0.90602 0.94848 0.0153 0.0
O108 O 0.97814 0.97531 0.97237 0.0
O109 O 0.96973 0.91955 0.95234 0.0
O110 O 0.97187 0.95295 0.07565 0.0
O111 O 0.97702 0.92011 0.02831 0.0
Co112 Co 0.7757 0.2682 0.73211 0.0
O113 O 0.73338 0.2749 0.74222 0.0
O114 O 0.76991 0.28874 0.77924 0.0
C115 C 0.77217 0.29144 0.67667 0.0
O116 O 0.82217 0.26626 0.73075 0.0
Co117 Co 0.79762 0.2221 0.66864 0.0
O118 O 0.83742 0.24368 0.67851 0.0
C119 C 0.77145 0.18867 0.73269 0.0
C120 C 0.74117 0.28832 0.77251 0.0
C121 C 0.84304 0.25849 0.70816 0.0
O122 O 0.77358 0.21775 0.75062 0.0
O123 O 0.77687 0.18643 0.69943 0.0
O124 O 0.77575 0.31231 0.70382 0.0
O125 O 0.77015 0.25832 0.68405 0.0
Co126 Co 0.02426 0.51907 0.00813 0.0
O127 O 0.98209 0.50888 0.01456 0.0
O128 O 0.01831 0.47029 0.02438 0.0
C129 C 0.02279 0.57166 0.03739 0.0
O130 O 0.07073 0.52129 0.00509 0.0
Co131 Co 0.04301 0.58715 0.96623 0.0
O132 O 0.08326 0.57556 0.98511 0.0
C133 C 0.02437 0.5225 0.92727 0.0
C134 C 0.98965 0.47753 0.02516 0.0
C135 C 0.09055 0.54527 0.99733 0.0
O136 O 0.02166 0.50455 0.95623 0.0
O137 O 0.03084 0.55552 0.92628 0.0
O138 O 0.02549 0.54225 0.05492 0.0
O139 O 0.01885 0.56806 0.00377 0.0
Co140 Co 0.74381 0.74335 0.23203 0.0
O141 O 0.78552 0.73172 0.2402 0.0
O142 O 0.7505 0.72936 0.28148 0.0
C143 C 0.74022 0.71204 0.18099 0.0
O144 O 0.69795 0.75228 0.23196 0.0
Co145 Co 0.72714 0.78502 0.16262 0.0
O146 O 0.68548 0.77739 0.17966 0.0
C147 C 0.75628 0.82173 0.22208 0.0
C148 C 0.77842 0.72386 0.27251 0.0
C149 C 0.67828 0.76503 0.20997 0.0
O150 O 0.7512 0.79536 0.24304 0.0
O151 O 0.75242 0.82044 0.1885 0.0
O152 O 0.73764 0.69575 0.21115 0.0
O153 O 0.74718 0.74496 0.18301 0.0
Co154 Co 0.03377 0.47622 0.48127 0.0
O155 O 0.99217 0.48623 0.47007 0.0
O156 O 0.02817 0.52632 0.46949 0.0
C157 C 0.03628 0.42666 0.44765 0.0
O158 O 0.07968 0.47496 0.49016 0.0
Co159 Co 0.05025 0.40517 0.5195 0.0
O160 O 0.09216 0.42119 0.51161 0.0
C161 C 0.0201 0.46251 0.55858 0.0
C162 C 0.99995 0.51871 0.46393 0.0
C163 C 0.09942 0.45211 0.50099 0.0
O164 O 0.02596 0.48488 0.53363 0.0
O165 O 0.02446 0.42913 0.55576 0.0
O166 O 0.03958 0.45748 0.43286 0.0
O167 O 0.02941 0.42713 0.48068 0.0
Co168 Co 0.4789 0.52063 0.98273 0.0
O169 O 0.52133 0.50936 0.97963 0.0
O170 O 0.48488 0.47075 0.97081 0.0
C171 C 0.48288 0.57015 0.9494 0.0
O172 O 0.43239 0.52259 0.98226 0.0
Co173 Co 0.45607 0.59203 0.01466 0.0
O174 O 0.41764 0.57878 0.99187 0.0
C175 C 0.47387 0.53266 0.06225 0.0
C176 C 0.51361 0.47753 0.97047 0.0
C177 C 0.41179 0.54677 0.98367 0.0
O178 O 0.47896 0.51143 0.03597 0.0
O179 O 0.46636 0.56519 0.05862 0.0
O180 O 0.48029 0.53949 0.93412 0.0
O181 O 0.48447 0.56986 0.98342 0.0
Co182 Co 0.78215 0.73916 0.77017 0.0
O183 O 0.73995 0.7355 0.75807 0.0
O184 O 0.77685 0.72719 0.72007 0.0
C185 C 0.77683 0.70592 0.81959 0.0
O186 O 0.82861 0.73966 0.7731 0.0
Co187 Co 0.80428 0.77018 0.84219 0.0
O188 O 0.84279 0.74715 0.82989 0.0
C189 C 0.78676 0.81825 0.78282 0.0
C190 C 0.74804 0.72655 0.72634 0.0
C191 C 0.84895 0.74031 0.79766 0.0
O192 O 0.78177 0.79228 0.76118 0.0
O193 O 0.79414 0.81421 0.81541 0.0
O194 O 0.78095 0.69055 0.78919 0.0
O195 O 0.77553 0.73992 0.81913 0.0
Co196 Co 0.72292 0.2694 0.2564 0.0
O197 O 0.76528 0.27687 0.24745 0.0
O198 O 0.7292 0.2901 0.20953 0.0
C199 C 0.72383 0.29296 0.31187 0.0
O200 O 0.67643 0.26606 0.25697 0.0
Co201 Co 0.70267 0.22049 0.3188 0.0
O202 O 0.66195 0.23758 0.30656 0.0
C203 C 0.72587 0.18905 0.25244 0.0
C204 C 0.75784 0.28992 0.21692 0.0
C205 C 0.65576 0.25407 0.27799 0.0
O206 O 0.72604 0.21942 0.23683 0.0
O207 O 0.71966 0.18467 0.28525 0.0
O208 O 0.72158 0.31349 0.28438 0.0
O209 O 0.72749 0.25986 0.30488 0.0
Co210 Co 0.48737 0.48969 0.51149 0.0
O211 O 0.52968 0.49994 0.51833 0.0
O212 O 0.49299 0.53605 0.53367 0.0
C213 C 0.49064 0.43346 0.53272 0.0
O214 O 0.44092 0.48779 0.5098 0.0
Co215 Co 0.46583 0.42788 0.46258 0.0
O216 O 0.42632 0.43599 0.48549 0.0
C217 C 0.49159 0.49348 0.43192 0.0
C218 C 0.52177 0.52967 0.53278 0.0
C219 C 0.4204 0.46485 0.50159 0.0
O220 O 0.48921 0.51015 0.46171 0.0
O221 O 0.48639 0.46031 0.42827 0.0
O222 O 0.48759 0.45987 0.55459 0.0
O223 O 0.49282 0.4421 0.49989 0.0
H224 H 0.24558 0.17081 0.16794 0.0
H225 H 0.20764 0.13859 0.13348 0.0
H226 H 0.13736 0.19701 0.18647 0.0
H227 H 0.17516 0.2275 0.22231 0.0
H228 H 0.12026 0.13456 0.18455 0.0
H229 H 0.16106 0.20857 0.0932 0.0
H230 H 0.2007 0.23479 0.0558 0.0
H231 H 0.22462 0.13145 0.01748 0.0
H232 H 0.18535 0.10455 0.05499 0.0
H233 H 1.00133 0.07617 0.07029 0.0
H234 H 0.03945 0.11447 0.09788 0.0
H235 H 0.10912 0.04232 0.0648 0.0
H236 H 0.07121 0.00387 0.03753 0.0
H237 H 0.12572 0.11259 0.05512 0.0
H238 H 0.08326 0.04007 0.14749 0.0
H239 H 0.04314 0.01563 0.18533 0.0
H240 H 0.02115 0.12029 0.22165 0.0
H241 H 0.06073 0.14546 0.18343 0.0
C242 C 0.22204 0.17707 0.17186 0.0
C243 C 0.21343 0.20181 0.19782 0.0
C244 C 0.20024 0.15871 0.15196 0.0
C245 C 0.16929 0.16544 0.15674 0.0
C246 C 0.16088 0.19095 0.1821 0.0
C247 C 0.18259 0.20862 0.20253 0.0
C248 C 0.14557 0.14484 0.13694 0.0
C249 C 0.1213 0.13049 0.15611 0.0
C250 C 0.1469 0.1384 0.09985 0.0
C251 C 0.17044 0.15452 0.07716 0.0
C252 C 0.1749 0.19141 0.07697 0.0
C253 C 0.19729 0.2064 0.05573 0.0
C254 C 0.21522 0.18479 0.03435 0.0
C255 C 0.21074 0.14815 0.03409 0.0
C256 C 0.1884 0.13302 0.0553 0.0
C257 C 0.0248 0.06869 0.06847 0.0
C258 C 0.03314 0.03686 0.05167 0.0
C259 C 0.04659 0.09053 0.08447 0.0
C260 C 0.07725 0.0812 0.08379 0.0
C261 C 0.08569 0.05017 0.06579 0.0
C262 C 0.06392 0.02814 0.0502 0.0
C263 C 0.10046 0.10298 0.10277 0.0
C264 C 0.12465 0.11722 0.08349 0.0
C265 C 0.09886 0.1098 0.13967 0.0
C266 C 0.07469 0.0947 0.16217 0.0
C267 C 0.06961 0.05793 0.16316 0.0
C268 C 0.047 0.04394 0.18476 0.0
C269 C 0.02952 0.06641 0.20576 0.0
C270 C 0.03463 0.10293 0.20526 0.0
C271 C 0.05712 0.11707 0.18361 0.0
H272 H 0.01209 0.05551 0.22253 0.0
H273 H 0.23256 0.19644 0.01794 0.0
H274 H 0.01957 0.91455 0.44977 0.0
H275 H 0.05727 0.87745 0.42005 0.0
H276 H 0.12731 0.94892 0.45434 0.0
H277 H 0.08983 0.98631 0.48297 0.0
H278 H 0.13596 0.9354 0.38879 0.0
H279 H 0.11644 0.86241 0.48987 0.0
H280 H 0.08581 0.8281 0.53212 0.0
H281 H 0.05587 0.76018 0.44775 0.0
H282 H 0.08604 0.79439 0.40488 0.0
H283 H 0.26277 0.82824 0.34486 0.0
H284 H 0.22422 0.85815 0.38051 0.0
H285 H 0.15489 0.79985 0.32573 0.0
H286 H 0.19323 0.77035 0.28958 0.0
H287 H 0.14565 0.80512 0.40112 0.0
H288 H 0.16636 0.87972 0.3006 0.0
H289 H 0.19859 0.91398 0.26 0.0
H290 H 0.22813 0.97924 0.34665 0.0
H291 H 0.19642 0.94496 0.38789 0.0
C292 C 0.04306 0.92203 0.45137 0.0
C293 C 0.05161 0.95345 0.46878 0.0
C294 C 0.06469 0.90074 0.43439 0.0
C295 C 0.09541 0.91012 0.4349 0.0
C296 C 0.10389 0.94101 0.4532 0.0
C297 C 0.08235 0.96236 0.46978 0.0
C298 C 0.11865 0.88903 0.41516 0.0
C299 C 0.13824 0.90698 0.39204 0.0
C300 C 0.12151 0.85173 0.41846 0.0
C301 C 0.10324 0.83122 0.44411 0.0
C302 C 0.10312 0.84035 0.48027 0.0
C303 C 0.08588 0.82088 0.50434 0.0
C304 C 0.06883 0.79204 0.49261 0.0
C305 C 0.06905 0.78256 0.45679 0.0
C306 C 0.08622 0.80197 0.4326 0.0
C307 C 0.23935 0.82144 0.3407 0.0
C308 C 0.23112 0.79691 0.31429 0.0
C309 C 0.2173 0.83868 0.36102 0.0
C310 C 0.18657 0.83144 0.35572 0.0
C311 C 0.17839 0.8059 0.33037 0.0
C312 C 0.20038 0.7891 0.30965 0.0
C313 C 0.16294 0.85167 0.37536 0.0
C314 C 0.14328 0.83356 0.39818 0.0
C315 C 0.16017 0.88889 0.37214 0.0
C316 C 0.17929 0.9095 0.3474 0.0
C317 C 0.17996 0.90114 0.31106 0.0
C318 C 0.19809 0.92061 0.28792 0.0
C319 C 0.21547 0.9487 0.30075 0.0
C320 C 0.2147 0.95742 0.33675 0.0
C321 C 0.19665 0.93799 0.36002 0.0
H322 H 0.22947 0.96376 0.28278 0.0
H323 H 0.05552 0.77699 0.51129 0.0
H324 H 0.50656 0.91023 0.5748 0.0
H325 H 0.46584 0.87702 0.60331 0.0
H326 H 0.40129 0.9527 0.56396 0.0
H327 H 0.44184 0.98615 0.53585 0.0
H328 H 0.39033 0.93935 0.63154 0.0
H329 H 0.40743 0.8681 0.52848 0.0
H330 H 0.43725 0.83317 0.4859 0.0
H331 H 0.46229 0.7609 0.56869 0.0
H332 H 0.43293 0.79568 0.6119 0.0
H333 H 0.25978 0.83746 0.67836 0.0
H334 H 0.29796 0.86787 0.64228 0.0
H335 H 0.36708 0.80219 0.6882 0.0
H336 H 0.32933 0.77226 0.72449 0.0
H337 H 0.37417 0.81034 0.61521 0.0
H338 H 0.35919 0.88285 0.71833 0.0
H339 H 0.33013 0.91802 0.76144 0.0
H340 H 0.30142 0.98797 0.6783 0.0
H341 H 0.33002 0.9529 0.63457 0.0
C342 C 0.48366 0.91961 0.57192 0.0
C343 C 0.47755 0.95085 0.5529 0.0
C344 C 0.46032 0.90052 0.58819 0.0
C345 C 0.43027 0.91209 0.58569 0.0
C346 C 0.42417 0.94312 0.56642 0.0
C347 C 0.44745 0.96218 0.55017 0.0
C348 C 0.40533 0.89259 0.60395 0.0
C349 C 0.38654 0.91126 0.62742 0.0
C350 C 0.40056 0.85571 0.5994 0.0
C351 C 0.41821 0.8347 0.57349 0.0
C352 C 0.41949 0.84492 0.53767 0.0
C353 C 0.43627 0.82511 0.51341 0.0
C354 C 0.45172 0.79489 0.5246 0.0
C355 C 0.45035 0.78434 0.56007 0.0
C356 C 0.43361 0.80407 0.58445 0.0
C357 C 0.28306 0.82926 0.68043 0.0
C358 C 0.29148 0.80246 0.70436 0.0
C359 C 0.30491 0.84678 0.65994 0.0
C360 C 0.33552 0.8375 0.66264 0.0
C361 C 0.3437 0.80987 0.68557 0.0
C362 C 0.32203 0.79282 0.70639 0.0
C363 C 0.35925 0.85717 0.64259 0.0
C364 C 0.37785 0.8385 0.61897 0.0
C365 C 0.36385 0.89404 0.64697 0.0
C366 C 0.34641 0.91497 0.67311 0.0
C367 C 0.34642 0.9055 0.70917 0.0
C368 C 0.3301 0.92547 0.73374 0.0
C369 C 0.31385 0.95514 0.7226 0.0
C370 C 0.31396 0.96493 0.68687 0.0
C371 C 0.33022 0.94503 0.66219 0.0
H372 H 0.30126 0.97059 0.74166 0.0
H373 H 0.4647 0.77959 0.50577 0.0
H374 H 0.42741 0.00272 0.95594 0.0
H375 H 0.39001 0.03878 0.92513 0.0
H376 H 0.44893 0.12924 0.9313 0.0
H377 H 0.48703 0.09292 0.96176 0.0
H378 H 0.3845 0.14373 0.94658 0.0
H379 H 0.44812 0.08956 0.85793 0.0
H380 H 0.4734 0.0395 0.82836 0.0
H381 H 0.38782 0.99071 0.80788 0.0
H382 H 0.36205 0.04023 0.83788 0.0
H383 H 0.32356 0.20751 0.76256 0.0
H384 H 0.35983 0.17754 0.80068 0.0
H385 H 0.29058 0.1595 0.8785 0.0
H386 H 0.25387 0.18981 0.84019 0.0
H387 H 0.36103 0.11024 0.82234 0.0
H388 H 0.32512 0.15501 0.96142 0.0
H389 H 0.29988 0.2055 0.99045 0.0
H390 H 0.33129 0.27512 0.90847 0.0
H391 H 0.35694 0.22512 0.87917 0.0
C392 C 0.43242 0.0304 0.9512 0.0
C393 C 0.46038 0.04484 0.9614 0.0
C394 C 0.41093 0.051 0.93345 0.0
C395 C 0.41658 0.08675 0.92571 0.0
C396 C 0.44397 0.10174 0.93704 0.0
C397 C 0.46577 0.08093 0.95441 0.0
C398 C 0.39457 0.1076 0.90406 0.0
C399 C 0.37936 0.13641 0.91942 0.0
C400 C 0.38772 0.09819 0.86857 0.0
C401 C 0.40318 0.06842 0.8505 0.0
C402 C 0.43471 0.06799 0.84743 0.0
C403 C 0.44913 0.03974 0.83054 0.0
C404 C 0.43224 0.01189 0.81634 0.0
C405 C 0.40088 0.01227 0.81895 0.0
C406 C 0.38636 0.04043 0.83588 0.0
C407 C 0.31594 0.19749 0.7879 0.0
C408 C 0.28566 0.20121 0.79822 0.0
C409 C 0.3368 0.18015 0.80969 0.0
C410 C 0.32817 0.16617 0.84264 0.0
C411 C 0.29802 0.17029 0.8534 0.0
C412 C 0.27699 0.18762 0.83144 0.0
C413 C 0.35071 0.14644 0.86479 0.0
C414 C 0.36601 0.11763 0.84952 0.0
C415 C 0.35756 0.15588 0.90032 0.0
C416 C 0.3427 0.18627 0.91797 0.0
C417 C 0.32673 0.18113 0.94969 0.0
C418 C 0.31233 0.20964 0.96617 0.0
C419 C 0.31392 0.24347 0.95127 0.0
C420 C 0.32999 0.24888 0.91992 0.0
C421 C 0.34442 0.22045 0.90334 0.0
H422 H 0.30274 0.26551 0.96404 0.0
H423 H 0.44344 0.99006 0.80325 0.0
H424 H 0.68005 0.28323 0.76737 0.0
H425 H 0.6419 0.31189 0.80388 0.0
H426 H 0.7115 0.35891 0.8684 0.0
H427 H 0.74996 0.3293 0.83228 0.0
H428 H 0.66718 0.33964 0.90972 0.0
H429 H 0.67221 0.40676 0.80307 0.0
H430 H 0.67199 0.41814 0.7387 0.0
H431 H 0.58198 0.37747 0.73111 0.0
H432 H 0.58179 0.36542 0.79541 0.0
H433 H 0.57464 0.47982 0.97904 0.0
H434 H 0.61272 0.44385 0.94908 0.0
H435 H 0.54278 0.38348 0.89772 0.0
H436 H 0.50444 0.41916 0.92812 0.0
H437 H 0.58701 0.40941 0.85052 0.0
H438 H 0.58327 0.34488 0.96026 0.0
H439 H 0.5849 0.33821 0.02526 0.0
H440 H 0.6748 0.37987 0.02722 0.0
H441 H 0.67356 0.38725 0.96224 0.0
C442 C 0.68734 0.29949 0.78946 0.0
C443 C 0.71819 0.30404 0.79672 0.0
C444 C 0.6654 0.31613 0.81026 0.0
C445 C 0.6736 0.33836 0.83862 0.0
C446 C 0.70441 0.34211 0.84664 0.0
C447 C 0.72645 0.32515 0.82593 0.0
C448 C 0.65001 0.35781 0.85947 0.0
C449 C 0.64992 0.35523 0.89668 0.0
C450 C 0.62702 0.37794 0.84277 0.0
C451 C 0.62711 0.38484 0.80402 0.0
C452 C 0.65247 0.39995 0.78763 0.0
C453 C 0.65239 0.40658 0.75117 0.0
C454 C 0.62702 0.39845 0.73081 0.0
C455 C 0.60164 0.38371 0.7469 0.0
C456 C 0.6016 0.37699 0.78336 0.0
C457 C 0.5673 0.45845 0.96189 0.0
C458 C 0.53642 0.4523 0.95617 0.0
C459 C 0.58916 0.43788 0.94472 0.0
C460 C 0.58074 0.41085 0.92106 0.0
C461 C 0.5499 0.40414 0.91583 0.0
C462 C 0.52798 0.4244 0.93346 0.0
C463 C 0.60411 0.39094 0.90057 0.0
C464 C 0.60422 0.39362 0.86343 0.0
C465 C 0.62736 0.37147 0.91737 0.0
C466 C 0.62821 0.36692 0.95641 0.0
C467 C 0.6033 0.3529 0.97457 0.0
C468 C 0.60417 0.34893 0.01141 0.0
C469 C 0.62991 0.3587 0.03037 0.0
C470 C 0.65487 0.37236 0.01251 0.0
C471 C 0.6541 0.3764 0.97567 0.0
H472 H 0.63055 0.35561 0.05889 0.0
H473 H 0.62699 0.40366 0.70259 0.0
H474 H 0.9976 0.41646 0.06444 0.0
H475 H 0.9585 0.38115 0.09388 0.0
H476 H 0.89009 0.44827 0.04837 0.0
H477 H 0.92884 0.48382 0.01981 0.0
H478 H 0.8783 0.44002 0.11474 0.0
H479 H 0.90329 0.36024 0.02043 0.0
H480 H 0.93638 0.32341 0.98314 0.0
H481 H 0.96177 0.26196 0.07415 0.0
H482 H 0.92912 0.29876 0.11209 0.0
H483 H 0.75011 0.33527 0.16048 0.0
H484 H 0.78948 0.36389 0.12487 0.0
H485 H 0.85755 0.30756 0.18364 0.0
H486 H 0.8185 0.27933 0.21948 0.0
H487 H 0.8694 0.30913 0.11057 0.0
H488 H 0.8444 0.39016 0.20441 0.0
H489 H 0.81062 0.42689 0.24093 0.0
H490 H 0.78441 0.48607 0.14872 0.0
H491 H 0.81773 0.4493 0.11155 0.0
C492 C 0.9742 0.42332 0.06032 0.0
C493 C 0.96643 0.45302 0.03975 0.0
C494 C 0.95179 0.40307 0.07716 0.0
C495 C 0.92111 0.41184 0.07341 0.0
C496 C 0.91345 0.44092 0.05202 0.0
C497 C 0.93574 0.46121 0.03549 0.0
C498 C 0.89693 0.39205 0.09284 0.0
C499 C 0.87618 0.41143 0.11326 0.0
C500 C 0.8943 0.35461 0.09187 0.0
C501 C 0.91401 0.33251 0.06917 0.0
C502 C 0.91613 0.33907 0.03255 0.0
C503 C 0.93477 0.31816 0.01128 0.0
C504 C 0.95124 0.29043 0.02629 0.0
C505 C 0.94904 0.28349 0.06258 0.0
C506 C 0.93046 0.30435 0.08397 0.0
C507 C 0.77344 0.32872 0.16555 0.0
C508 C 0.78112 0.30509 0.19293 0.0
C509 C 0.79595 0.3452 0.14527 0.0
C510 C 0.82658 0.33809 0.15168 0.0
C511 C 0.83417 0.31351 0.17812 0.0
C512 C 0.81176 0.29747 0.19869 0.0
C513 C 0.85078 0.35723 0.13192 0.0
C514 C 0.87154 0.33774 0.11171 0.0
C515 C 0.85336 0.3946 0.13286 0.0
C516 C 0.83328 0.4167 0.15513 0.0
C517 C 0.83121 0.41077 0.19186 0.0
C518 C 0.8122 0.43165 0.21269 0.0
C519 C 0.79531 0.45873 0.19714 0.0
C520 C 0.79746 0.46504 0.16073 0.0
C521 C 0.81642 0.4442 0.13976 0.0
H522 H 0.78062 0.47488 0.21332 0.0
H523 H 0.96564 0.27426 0.00977 0.0
H524 H 0.00781 0.58974 0.4483 0.0
H525 H 0.97105 0.63042 0.42151 0.0
H526 H 0.90576 0.54592 0.41756 0.0
H527 H 0.94173 0.50592 0.4451 0.0
H528 H 0.94443 0.63328 0.36087 0.0
H529 H 0.8353 0.57398 0.42314 0.0
H530 H 0.81921 0.54721 0.47966 0.0
H531 H 0.89128 0.60017 0.5341 0.0
H532 H 0.90755 0.62764 0.47804 0.0
H533 H 0.82296 0.67945 0.25252 0.0
H534 H 0.8601 0.64949 0.28917 0.0
H535 H 0.8233 0.69966 0.3824 0.0
H536 H 0.78425 0.7277 0.34552 0.0
H537 H 0.83834 0.63911 0.40107 0.0
H538 H 0.89401 0.72583 0.33747 0.0
H539 H 0.91099 0.75893 0.28479 0.0
H540 H 0.94883 0.66382 0.24116 0.0
H541 H 0.93172 0.63004 0.29333 0.0
C542 C 0.98548 0.58002 0.44212 0.0
C543 C 0.97775 0.54455 0.44919 0.0
C544 C 0.96446 0.60327 0.4266 0.0
C545 C 0.93524 0.59162 0.41783 0.0
C546 C 0.92771 0.55612 0.42477 0.0
C547 C 0.94851 0.53308 0.44045 0.0
C548 C 0.91282 0.61583 0.40036 0.0
C549 C 0.92129 0.63468 0.36984 0.0
C550 C 0.88267 0.61876 0.41235 0.0
C551 C 0.87278 0.60264 0.44629 0.0
C552 C 0.84762 0.58006 0.4472 0.0
C553 C 0.83849 0.56472 0.47916 0.0
C554 C 0.85426 0.57191 0.51043 0.0
C555 C 0.87914 0.59453 0.50984 0.0
C556 C 0.88835 0.60995 0.47797 0.0
C557 C 0.82277 0.68421 0.28085 0.0
C558 C 0.80084 0.70631 0.29605 0.0
C559 C 0.84433 0.66724 0.30189 0.0
C560 C 0.84556 0.67304 0.33871 0.0
C561 C 0.82327 0.69479 0.3541 0.0
C562 C 0.80094 0.71095 0.33303 0.0
C563 C 0.86965 0.65569 0.36082 0.0
C564 C 0.86152 0.63809 0.39224 0.0
C565 C 0.90037 0.65493 0.3503 0.0
C566 C 0.91142 0.67536 0.31927 0.0
C567 C 0.90588 0.71195 0.3166 0.0
C568 C 0.91551 0.73083 0.28681 0.0
C569 C 0.93093 0.71348 0.25962 0.0
C570 C 0.93688 0.67723 0.26224 0.0
C571 C 0.92727 0.65821 0.29195 0.0
H572 H 0.93829 0.72812 0.23654 0.0
H573 H 0.84717 0.55999 0.53514 0.0
H574 H 0.58276 0.5273 0.52467 0.0
H575 H 0.62093 0.5637 0.55367 0.0
H576 H 0.55139 0.62219 0.60775 0.0
H577 H 0.5129 0.5864 0.57765 0.0
H578 H 0.59325 0.66639 0.58969 0.0
H579 H 0.595 0.55514 0.64937 0.0
H580 H 0.59813 0.49024 0.65591 0.0
H581 H 0.6864 0.49091 0.60984 0.0
H582 H 0.68366 0.5558 0.60265 0.0
H583 H 0.68692 0.7325 0.72957 0.0
H584 H 0.64929 0.70269 0.69285 0.0
H585 H 0.7198 0.65712 0.62912 0.0
H586 H 0.75776 0.68715 0.6659 0.0
H587 H 0.67811 0.60716 0.65126 0.0
H588 H 0.67519 0.72166 0.59547 0.0
H589 H 0.67059 0.78674 0.5941 0.0
H590 H 0.58213 0.77963 0.63912 0.0
H591 H 0.58635 0.7145 0.64121 0.0
C592 C 0.5755 0.54804 0.54257 0.0
C593 C 0.54468 0.55375 0.54892 0.0
C594 C 0.59746 0.56877 0.55942 0.0
C595 C 0.58931 0.59536 0.58372 0.0
C596 C 0.55846 0.60181 0.58933 0.0
C597 C 0.5364 0.5813 0.57209 0.0
C598 C 0.61296 0.61607 0.60333 0.0
C599 C 0.61157 0.65331 0.60348 0.0
C600 C 0.63732 0.59936 0.62109 0.0
C601 C 0.63899 0.5603 0.62513 0.0
C602 C 0.61498 0.54141 0.64036 0.0
C603 C 0.6167 0.50464 0.64424 0.0
C604 C 0.64241 0.48645 0.63321 0.0
C605 C 0.66648 0.50502 0.61833 0.0
C606 C 0.66487 0.54181 0.61437 0.0
C607 C 0.6945 0.71665 0.70737 0.0
C608 C 0.72545 0.71239 0.70065 0.0
C609 C 0.67287 0.69959 0.68632 0.0
C610 C 0.68156 0.67765 0.65802 0.0
C611 C 0.71245 0.67391 0.65074 0.0
C612 C 0.73416 0.69132 0.67163 0.0
C613 C 0.65843 0.65732 0.63739 0.0
C614 C 0.65988 0.62015 0.63723 0.0
C615 C 0.63386 0.67406 0.62023 0.0
C616 C 0.6312 0.71321 0.61876 0.0
C617 C 0.65484 0.73398 0.60532 0.0
C618 C 0.65229 0.77088 0.60437 0.0
C619 C 0.62612 0.78731 0.61659 0.0
C620 C 0.6024 0.76687 0.62969 0.0
C621 C 0.60485 0.72996 0.63072 0.0
H622 H 0.62419 0.81589 0.61584 0.0
H623 H 0.64372 0.45799 0.63628 0.0
H624 H 0.25801 0.14512 0.33863 0.0
H625 H 0.25308 0.12601 0.40084 0.0
H626 H 0.28679 0.2275 0.43561 0.0
H627 H 0.29161 0.2464 0.37433 0.0
H628 H 0.30802 0.17547 0.47729 0.0
H629 H 0.21192 0.2128 0.42656 0.0
H630 H 0.16885 0.20863 0.38537 0.0
H631 H 0.15128 0.10251 0.42068 0.0
H632 H 0.19449 0.10594 0.46178 0.0
H633 H 0.20558 0.23753 0.61932 0.0
H634 H 0.21337 0.2194 0.55792 0.0
H635 H 0.26466 0.12913 0.59341 0.0
H636 H 0.25617 0.14694 0.65549 0.0
H637 H 0.20275 0.15796 0.51713 0.0
H638 H 0.32857 0.13169 0.53593 0.0
H639 H 0.37031 0.14636 0.57671 0.0
H640 H 0.32646 0.24368 0.60499 0.0
H641 H 0.28468 0.22973 0.56413 0.0
C642 C 0.26507 0.16286 0.35965 0.0
C643 C 0.27497 0.19732 0.35173 0.0
C644 C 0.26209 0.15204 0.3951 0.0
C645 C 0.26933 0.17546 0.4229 0.0
C646 C 0.28111 0.20892 0.41471 0.0
C647 C 0.28372 0.2198 0.37958 0.0
C648 C 0.26217 0.16736 0.46051 0.0
C649 C 0.28511 0.17069 0.48596 0.0
C650 C 0.23222 0.16165 0.47196 0.0
C651 C 0.20667 0.15941 0.44679 0.0
C652 C 0.19906 0.18845 0.42524 0.0
C653 C 0.17459 0.18625 0.40198 0.0
C654 C 0.15742 0.15527 0.40033 0.0
C655 C 0.16466 0.12644 0.42192 0.0
C656 C 0.18914 0.12849 0.44517 0.0
C657 C 0.21781 0.21328 0.61409 0.0
C658 C 0.23027 0.19359 0.64202 0.0
C659 C 0.22217 0.20288 0.57901 0.0
C660 C 0.23971 0.17304 0.57111 0.0
C661 C 0.25102 0.15223 0.59901 0.0
C662 C 0.24604 0.16227 0.63436 0.0
C663 C 0.24852 0.16664 0.53374 0.0
C664 C 0.22587 0.16087 0.50842 0.0
C665 C 0.27861 0.171 0.52236 0.0
C666 C 0.30331 0.17934 0.54747 0.0
C667 C 0.32783 0.15614 0.55096 0.0
C668 C 0.35151 0.16437 0.57403 0.0
C669 C 0.35097 0.19586 0.59355 0.0
C670 C 0.32677 0.21921 0.59002 0.0
C671 C 0.30306 0.21111 0.56698 0.0
H672 H 0.36935 0.20223 0.61131 0.0
H673 H 0.13843 0.15361 0.38243 0.0
H674 H 0.96336 0.91361 0.88835 0.0
H675 H 0.9738 0.9271 0.82697 0.0
H676 H 0.01541 0.02562 0.85797 0.0
H677 H 1.00446 0.01248 0.92064 0.0
H678 H 0.97758 0.03298 0.801 0.0
H679 H 0.05743 0.9516 0.83301 0.0
H680 H 0.07855 0.89577 0.85615 0.0
H681 H 0.02954 0.83693 0.77748 0.0
H682 H 0.00765 0.89215 0.75446 0.0
H683 H 0.03272 0.06919 0.63177 0.0
H684 H 0.03349 0.05391 0.69458 0.0
H685 H 0.9925 0.95311 0.67089 0.0
H686 H 0.99185 0.96811 0.60754 0.0
H687 H 0.03252 0.9476 0.72478 0.0
H688 H 0.95222 0.02266 0.69221 0.0
H689 H 0.9274 0.07488 0.66651 0.0
H690 H 0.968 0.14131 0.74563 0.0
H691 H 0.99456 0.08976 0.77068 0.0
C692 C 0.97495 0.93818 0.88251 0.0
C693 C 0.98342 0.96181 0.90977 0.0
C694 C 0.98101 0.94572 0.84714 0.0
C695 C 0.99609 0.97688 0.83782 0.0
C696 C 1.00404 0.00114 0.86466 0.0
C697 C 0.99777 0.99366 0.90042 0.0
C698 C 1.00248 0.98418 0.79981 0.0
C699 C 0.99023 0.0148 0.78447 0.0
C700 C 0.01765 0.95939 0.7779 0.0
C701 C 0.03076 0.92609 0.79212 0.0
C702 C 0.05095 0.92672 0.82087 0.0
C703 C 0.06306 0.89513 0.83398 0.0
C704 C 0.05535 0.86276 0.8184 0.0
C705 C 0.03547 0.86191 0.78968 0.0
C706 C 0.02321 0.89337 0.77658 0.0
C707 C 0.02448 0.04338 0.63975 0.0
C708 C 0.01186 0.01998 0.61471 0.0
C709 C 0.02486 0.0348 0.67571 0.0
C710 C 0.01237 0.00284 0.68751 0.0
C711 C 1.00205 0.97809 0.66235 0.0
C712 C 1.00181 0.9866 0.62615 0.0
C713 C 0.00802 0.99667 0.72609 0.0
C714 C 0.02035 0.96615 0.74142 0.0
C715 C 0.99219 0.02108 0.74781 0.0
C716 C 0.97612 0.0523 0.73281 0.0
C717 C 0.95648 0.04847 0.70371 0.0
C718 C 0.94211 0.07802 0.68919 0.0
C719 C 0.94638 0.11149 0.70419 0.0
C720 C 0.96502 0.11544 0.73377 0.0
C721 C 0.9799 0.08607 0.748 0.0
H722 H 0.93504 0.13431 0.6931 0.0
H723 H 0.06484 0.83836 0.82849 0.0
H724 H 0.25773 0.74226 0.88157 0.0
H725 H 0.25909 0.7565 0.94419 0.0
H726 H 0.22783 0.86235 0.92176 0.0
H727 H 0.2272 0.84831 0.85786 0.0
H728 H 0.27248 0.86292 0.97109 0.0
H729 H 0.17945 0.80176 0.95947 0.0
H730 H 0.14465 0.75495 0.93935 0.0
H731 H 0.19609 0.67692 0.99577 0.0
H732 H 0.23139 0.72313 0.01594 0.0
H733 H 0.2642 0.85231 0.16928 0.0
H734 H 0.25167 0.86628 0.10698 0.0
H735 H 0.28895 0.76601 0.07434 0.0
H736 H 0.30136 0.75216 0.13538 0.0
H737 H 0.22732 0.77739 0.05542 0.0
H738 H 0.32531 0.8373 0.05501 0.0
H739 H 0.36066 0.88374 0.07469 0.0
H740 H 0.29835 0.96417 0.04168 0.0
H741 H 0.26245 0.91813 0.02222 0.0
C742 C 0.25098 0.7686 0.88976 0.0
C743 C 0.24209 0.79409 0.86474 0.0
C744 C 0.25162 0.77665 0.92573 0.0
C745 C 0.24281 0.81021 0.93788 0.0
C746 C 0.2344 0.83614 0.913 0.0
C747 C 0.23403 0.82812 0.87659 0.0
C748 C 0.24339 0.81751 0.97662 0.0
C749 C 0.26194 0.8448 0.98961 0.0
C750 C 0.22956 0.79398 1.00091 0.0
C751 C 0.20814 0.76602 0.98916 0.0
C752 C 0.18343 0.77461 0.96747 0.0
C753 C 0.16361 0.74816 0.95605 0.0
C754 C 0.16819 0.71299 0.96623 0.0
C755 C 0.19258 0.70418 0.9879 0.0
C756 C 0.21244 0.73053 0.99943 0.0
C757 C 0.27039 0.83381 0.14858 0.0
C758 C 0.28344 0.80097 0.15721 0.0
C759 C 0.26311 0.84171 0.11313 0.0
C760 C 0.26901 0.81688 0.08621 0.0
C761 C 0.28388 0.78532 0.09475 0.0
C762 C 0.29101 0.77747 0.12976 0.0
C763 C 0.25778 0.82128 0.04946 0.0
C764 C 0.23702 0.79621 0.03694 0.0
C765 C 0.26949 0.8468 0.02583 0.0
C766 C 0.29103 0.87431 0.03767 0.0
C767 C 0.31901 0.86488 0.05233 0.0
C768 C 0.33918 0.89112 0.06334 0.0
C769 C 0.3317 0.92688 0.05958 0.0
C770 C 0.30408 0.93646 0.04468 0.0
C771 C 0.28382 0.91031 0.03365 0.0
H772 H 0.34736 0.94716 0.06809 0.0
H773 H 0.15279 0.69257 0.9574 0.0
H774 H 0.58994 0.99152 0.39046 0.0
H775 H 0.58116 0.97898 0.32777 0.0
H776 H 0.4871 0.96129 0.34921 0.0
H777 H 0.49597 0.97361 0.41253 0.0
H778 H 0.51904 0.91713 0.28895 0.0
H779 H 0.50038 0.04002 0.33087 0.0
H780 H 0.51757 0.09229 0.36468 0.0
H781 H 0.59831 0.09644 0.30245 0.0
H782 H 0.58175 0.0439 0.26862 0.0
H783 H 0.47264 0.94677 0.11483 0.0
H784 H 0.47388 0.95047 0.1796 0.0
H785 H 0.55524 0.01274 0.1738 0.0
H786 H 0.55286 0.01065 0.10895 0.0
H787 H 0.52801 0.03324 0.22796 0.0
H788 H 0.5581 0.91847 0.1913 0.0
H789 H 0.55595 0.86175 0.15881 0.0
H790 H 0.47143 0.83746 0.20766 0.0
H791 H 0.47338 0.89365 0.24137 0.0
C792 C 0.56766 0.98334 0.38206 0.0
C793 C 0.54362 0.98346 0.40618 0.0
C794 C 0.56265 0.97633 0.34625 0.0
C795 C 0.53343 0.96978 0.33385 0.0
C796 C 0.50983 0.96628 0.35837 0.0
C797 C 0.51491 0.97311 0.39449 0.0
C798 C 0.52712 0.97288 0.29538 0.0
C799 C 0.52026 0.94252 0.27561 0.0
C800 C 0.53049 0.00576 0.27781 0.0
C801 C 0.53981 0.03812 0.29724 0.0
C802 C 0.52181 0.05208 0.32446 0.0
C803 C 0.53146 0.0817 0.34366 0.0
C804 C 0.55903 0.09764 0.33575 0.0
C805 C 0.57699 0.08403 0.30859 0.0
C806 C 0.56745 0.05439 0.28935 0.0
C807 C 0.48998 0.96254 0.12749 0.0
C808 C 0.51234 0.97897 0.10706 0.0
C809 C 0.49109 0.96403 0.16451 0.0
C810 C 0.51525 0.98084 0.18182 0.0
C811 C 0.53643 0.99942 0.16127 0.0
C812 C 0.53492 0.99858 0.12417 0.0
C813 C 0.5193 0.9774 0.22098 0.0
C814 C 0.52604 0.00776 0.24104 0.0
C815 C 0.51737 0.94415 0.23851 0.0
C816 C 0.51577 0.91036 0.21855 0.0
C817 C 0.53903 0.90101 0.19512 0.0
C818 C 0.53793 0.86887 0.17672 0.0
C819 C 0.51361 0.84594 0.18142 0.0
C820 C 0.49036 0.85509 0.20454 0.0
C821 C 0.4915 0.88701 0.22338 0.0
H822 H 0.51272 0.82112 0.16709 0.0
H823 H 0.56645 0.12059 0.35061 0.0
H824 H 0.38371 0.29352 0.31516 0.0
H825 H 0.43643 0.29443 0.29892 0.0
H826 H 0.41751 0.22823 0.20836 0.0
H827 H 0.36396 0.22685 0.22478 0.0
H828 H 0.46579 0.20508 0.24039 0.0
H829 H 0.43508 0.31525 0.19918 0.0
H830 H 0.41146 0.37422 0.19703 0.0
H831 H 0.47218 0.41145 0.27738 0.0
H832 H 0.49507 0.35242 0.28156 0.0
H833 H 0.62859 0.29051 0.22235 0.0
H834 H 0.57459 0.29203 0.20739 0.0
H835 H 0.55547 0.22475 0.29685 0.0
H836 H 0.6084 0.22317 0.31192 0.0
H837 H 0.52615 0.31561 0.24279 0.0
H838 H 0.49757 0.16599 0.27591 0.0
H839 H 0.51934 0.10695 0.26626 0.0
H840 H 0.57821 0.1491 0.18668 0.0
H841 H 0.55561 0.20815 0.1943 0.0
C842 C 0.39048 0.27905 0.2917 0.0
C843 C 0.36928 0.25992 0.2714 0.0
C844 C 0.42083 0.27995 0.28221 0.0
C845 C 0.43111 0.26192 0.25205 0.0
C846 C 0.41017 0.24259 0.23165 0.0
C847 C 0.37953 0.2418 0.24109 0.0
C848 C 0.46402 0.26187 0.24362 0.0
C849 C 0.47897 0.22925 0.24084 0.0
C850 C 0.48123 0.29355 0.24229 0.0
C851 C 0.46672 0.32907 0.24087 0.0
C852 C 0.44306 0.33579 0.21692 0.0
C853 C 0.42971 0.36931 0.2154 0.0
C854 C 0.44011 0.39656 0.2373 0.0
C855 C 0.46383 0.3903 0.26079 0.0
C856 C 0.47697 0.35675 0.2628 0.0
C857 C 0.61285 0.27611 0.23881 0.0
C858 C 0.62313 0.25681 0.2684 0.0
C859 C 0.58197 0.27694 0.23021 0.0
C860 C 0.56088 0.25799 0.25063 0.0
C861 C 0.57118 0.23903 0.28019 0.0
C862 C 0.60169 0.23845 0.28895 0.0
C863 C 0.52789 0.25873 0.24269 0.0
C864 C 0.51293 0.29147 0.24216 0.0
C865 C 0.51063 0.22719 0.24004 0.0
C866 C 0.52502 0.19181 0.236 0.0
C867 C 0.51505 0.16276 0.2562 0.0
C868 C 0.52753 0.12919 0.25104 0.0
C869 C 0.55038 0.1243 0.22614 0.0
C870 C 0.56063 0.15296 0.20612 0.0
C871 C 0.5479 0.18651 0.21078 0.0
H872 H 0.56002 0.09826 0.2222 0.0
H873 H 0.42991 0.42256 0.23595 0.0
H874 H 0.99523 0.40394 0.39972 0.0
H875 H 0.98604 0.34183 0.38338 0.0
H876 H 0.06727 0.31104 0.43784 0.0
H877 H 0.07583 0.37283 0.45526 0.0
H878 H 0.04946 0.27079 0.3683 0.0
H879 H 0.01552 0.30809 0.48724 0.0
H880 H 0.98768 0.34942 0.52582 0.0
H881 H 0.90657 0.32881 0.46725 0.0
H882 H 0.93415 0.28779 0.42795 0.0
H883 H 0.04394 0.10705 0.4553 0.0
H884 H 0.04876 0.16697 0.43153 0.0
H885 H 0.95323 0.16947 0.41086 0.0
H886 H 0.94856 0.10885 0.43454 0.0
H887 H 0.97078 0.22526 0.4497 0.0
H888 H 1.00147 0.17422 0.34258 0.0
H889 H 0.02805 0.13539 0.30048 0.0
H890 H 0.1124 0.18209 0.33052 0.0
H891 H 0.0865 0.22053 0.37362 0.0
C892 C 0.01177 0.38406 0.40675 0.0
C893 C 0.03645 0.39297 0.42824 0.0
C894 C 1.00645 0.34866 0.39757 0.0
C895 C 0.02603 0.32195 0.40938 0.0
C896 C 0.05212 0.33134 0.42815 0.0
C897 C 0.05703 0.36657 0.43804 0.0
C898 C 0.0168 0.28428 0.40801 0.0
C899 C 0.03232 0.26061 0.386 0.0
C900 C 0.99367 0.27146 0.43026 0.0
C901 C 0.97694 0.2953 0.45442 0.0
C902 C 0.9918 0.3126 0.48245 0.0
C903 C 0.97607 0.33593 0.50446 0.0
C904 C 0.9454 0.34184 0.49891 0.0
C905 C 0.93035 0.32427 0.47147 0.0
C906 C 0.94601 0.30099 0.44932 0.0
C907 C 0.02416 0.12007 0.44468 0.0
C908 C 0.99597 0.1035 0.44628 0.0
C909 C 0.02691 0.15424 0.43099 0.0
C910 C 1.00141 0.17268 0.41907 0.0
C911 C 0.97324 0.15562 0.41962 0.0
C912 C 0.97057 0.12106 0.43294 0.0
C913 C 1.00404 0.21102 0.4106 0.0
C914 C 0.98741 0.23509 0.43111 0.0
C915 C 0.02595 0.22406 0.38663 0.0
C916 C 0.04197 0.20017 0.3616 0.0
C917 C 0.02574 0.1759 0.34064 0.0
C918 C 0.04069 0.15396 0.31655 0.0
C919 C 0.07191 0.15616 0.31296 0.0
C920 C 0.08823 0.18029 0.33349 0.0
C921 C 0.07341 0.20218 0.35776 0.0
H922 H 0.08343 0.13927 0.29417 0.0
H923 H 0.93328 0.35999 0.51592 0.0
H924 H 0.89276 0.70735 0.83542 0.0
H925 H 0.94709 0.7132 0.82824 0.0
H926 H 0.93335 0.77624 0.73425 0.0
H927 H 0.87861 0.76899 0.74061 0.0
H928 H 0.98278 0.73878 0.726 0.0
H929 H 0.949 0.81654 0.81622 0.0
H930 H 0.92187 0.83554 0.86997 0.0
H931 H 0.9732 0.76227 0.93264 0.0
H932 H 1.00045 0.7426 0.8792 0.0
H933 H 0.14049 0.78816 0.7478 0.0
H934 H 0.0855 0.79274 0.74067 0.0
H935 H 0.07322 0.72372 0.83055 0.0
H936 H 0.12704 0.71994 0.83846 0.0
H937 H 0.03603 0.7766 0.83533 0.0
H938 H 0.06657 0.69677 0.73854 0.0
H939 H 0.09395 0.68362 0.68319 0.0
H940 H 0.04903 0.76987 0.63113 0.0
H941 H 0.02162 0.7837 0.6863 0.0
C942 C 0.90132 0.72174 0.81272 0.0
C943 C 0.88139 0.7377 0.7886 0.0
C944 C 0.93244 0.72546 0.80884 0.0
C945 C 0.94452 0.74623 0.78138 0.0
C946 C 0.92472 0.76038 0.75588 0.0
C947 C 0.89341 0.75604 0.75939 0.0
C948 C 0.97756 0.75416 0.78069 0.0
C949 C 0.99433 0.74757 0.74978 0.0
C950 C 0.99292 0.76623 0.8114 0.0
C951 C 0.9766 0.77792 0.84365 0.0
C952 C 0.95436 0.80432 0.84143 0.0
C953 C 0.939 0.81525 0.87185 0.0
C954 C 0.94576 0.80006 0.90468 0.0
C955 C 0.96797 0.77399 0.90719 0.0
C956 C 0.98342 0.763 0.87685 0.0
C957 C 0.12601 0.77414 0.76609 0.0
C958 C 0.13849 0.75372 0.79372 0.0
C959 C 0.09454 0.77658 0.76185 0.0
C960 C 0.075 0.75825 0.78486 0.0
C961 C 0.08757 0.73824 0.81245 0.0
C962 C 0.11864 0.73608 0.81689 0.0
C963 C 0.04146 0.75941 0.78128 0.0
C964 C 0.02448 0.76804 0.81145 0.0
C965 C 0.02603 0.75009 0.74968 0.0
C966 C 0.04229 0.74145 0.71657 0.0
C967 C 0.06267 0.71301 0.71532 0.0
C968 C 0.07817 0.70543 0.68399 0.0
C969 C 0.07329 0.72595 0.65369 0.0
C970 C 0.05282 0.75402 0.65463 0.0
C971 C 0.03728 0.76172 0.6859 0.0
H972 H 0.08533 0.72006 0.62947 0.0
H973 H 0.93383 0.80855 0.9282 0.0
H974 H 0.53548 0.59837 0.92877 0.0
H975 H 0.54449 0.66072 0.91416 0.0
H976 H 0.44891 0.68022 0.91535 0.0
H977 H 0.43993 0.61772 0.93042 0.0
H978 H 0.48623 0.72194 0.86173 0.0
H979 H 0.47724 0.69308 0.98674 0.0
H980 H 0.48946 0.65717 0.03942 0.0
H981 H 0.58271 0.68503 0.02924 0.0
H982 H 0.57109 0.72059 0.97603 0.0
H983 H 0.47755 0.90212 0.91971 0.0
H984 H 0.47349 0.83958 0.90316 0.0
H985 H 0.5654 0.82283 0.9364 0.0
H986 H 0.56886 0.88509 0.95423 0.0
H987 H 0.5317 0.77828 0.96802 0.0
H988 H 0.54014 0.81345 0.84675 0.0
H989 H 0.52836 0.84771 0.79286 0.0
H990 H 0.43765 0.80858 0.79454 0.0
H991 H 0.44876 0.77444 0.84873 0.0
C992 C 0.5164 0.61568 0.92432 0.0
C993 C 0.48704 0.60344 0.9301 0.0
C994 C 0.52154 0.65123 0.91613 0.0
C995 C 0.49736 0.67501 0.91377 0.0
C996 C 0.46781 0.66216 0.91671 0.0
C997 C 0.46269 0.62656 0.92524 0.0
C998 C 0.5032 0.71363 0.91449 0.0
C999 C 0.49599 0.73449 0.88493 0.0
C1000 C 0.51641 0.72966 0.94462 0.0
C1001 C 0.52336 0.70909 0.97714 0.0
C1002 C 0.50039 0.6913 0.99556 0.0
C1003 C 0.50719 0.67103 0.02552 0.0
C1004 C 0.53687 0.66865 0.03755 0.0
C1005 C 0.55976 0.68677 0.01979 0.0
C1006 C 0.55307 0.707 0.98974 0.0
C1007 C 0.49719 0.88528 0.9221 0.0
C1008 C 0.52364 0.89827 0.9377 0.0
C1009 C 0.49489 0.84951 0.91268 0.0
C1010 C 0.51918 0.8263 0.91837 0.0
C1011 C 0.54632 0.84008 0.93179 0.0
C1012 C 0.54842 0.87569 0.9417 0.0
C1013 C 0.51508 0.78726 0.91495 0.0
C1014 C 0.52237 0.76608 0.94437 0.0
C1015 C 0.50201 0.77113 0.88462 0.0
C1016 C 0.49524 0.7916 0.85199 0.0
C1017 C 0.51761 0.81236 0.8358 0.0
C1018 C 0.51107 0.83171 0.80516 0.0
C1019 C 0.48226 0.83038 0.79033 0.0
C1020 C 0.45995 0.80961 0.80607 0.0
C1021 C 0.46638 0.7902 0.83672 0.0
H1022 H 0.47723 0.84539 0.76661 0.0
H1023 H 0.54209 0.65289 0.06071 0.0
H1024 H 0.64883 0.73735 0.26882 0.0
H1025 H 0.59436 0.73882 0.28104 0.0
H1026 H 0.57979 0.79862 0.18531 0.0
H1027 H 0.63326 0.79728 0.17282 0.0
H1028 H 0.54903 0.79631 0.28652 0.0
H1029 H 0.52085 0.75906 0.14212 0.0
H1030 H 0.5449 0.72894 0.09153 0.0
H1031 H 0.59775 0.66616 0.16322 0.0
H1032 H 0.57337 0.69511 0.21417 0.0
H1033 H 0.38827 0.81315 0.24952 0.0
H1034 H 0.44314 0.81801 0.2566 0.0
H1035 H 0.45179 0.70584 0.23623 0.0
H1036 H 0.39765 0.70149 0.22817 0.0
H1037 H 0.4871 0.73542 0.19555 0.0
H1038 H 0.46674 0.75399 0.32093 0.0
H1039 H 0.44431 0.78477 0.37221 0.0
H1040 H 0.48859 0.88127 0.34204 0.0
H1041 H 0.51109 0.85107 0.29047 0.0
C1042 C 0.63403 0.75102 0.25052 0.0
C1043 C 0.64564 0.76666 0.21953 0.0
C1044 C 0.60294 0.75207 0.2577 0.0
C1045 C 0.58295 0.76868 0.23396 0.0
C1046 C 0.59467 0.78546 0.2039 0.0
C1047 C 0.62544 0.78441 0.19672 0.0
C1048 C 0.54966 0.76594 0.23826 0.0
C1049 C 0.53537 0.78274 0.26689 0.0
C1050 C 0.53183 0.7485 0.2125 0.0
C1051 C 0.54555 0.72964 0.18198 0.0
C1052 C 0.53741 0.73862 0.14709 0.0
C1053 C 0.55107 0.72168 0.11833 0.0
C1054 C 0.57286 0.69564 0.12414 0.0
C1055 C 0.58084 0.68628 0.15872 0.0
C1056 C 0.56709 0.70293 0.18755 0.0
C1057 C 0.402 0.78957 0.24723 0.0
C1058 C 0.3888 0.75705 0.23787 0.0
C1059 C 0.43346 0.79228 0.25118 0.0
C1060 C 0.45211 0.76238 0.24625 0.0
C1061 C 0.43833 0.72955 0.23944 0.0
C1062 C 0.40726 0.72701 0.23498 0.0
C1063 C 0.48582 0.7649 0.24462 0.0
C1064 C 0.5004 0.74857 0.2158 0.0
C1065 C 0.50372 0.78245 0.27048 0.0
C1066 C 0.49028 0.8004 0.30161 0.0
C1067 C 0.47151 0.78183 0.3251 0.0
C1068 C 0.45883 0.79915 0.35426 0.0
C1069 C 0.46493 0.83498 0.36032 0.0
C1070 C 0.48381 0.85354 0.33729 0.0
C1071 C 0.49655 0.83634 0.30812 0.0
H1072 H 0.45509 0.84833 0.3829 0.0
H1073 H 0.58357 0.6827 0.10188 0.0
H1074 H 0.5489 0.12315 0.49849 0.0
H1075 H 0.5433 0.18535 0.51307 0.0
H1076 H 0.52069 0.15807 0.62082 0.0
H1077 H 0.52615 0.0947 0.60611 0.0
H1078 H 0.48067 0.20678 0.59015 0.0
H1079 H 0.58725 0.20019 0.60747 0.0
H1080 H 0.63909 0.18193 0.59295 0.0
H1081 H 0.63366 0.23748 0.49386 0.0
H1082 H 0.58167 0.25576 0.50767 0.0
H1083 H 0.48437 0.40373 0.59947 0.0
H1084 H 0.49323 0.3412 0.61577 0.0
H1085 H 0.51329 0.31688 0.50665 0.0
H1086 H 0.50407 0.37806 0.49022 0.0
H1087 H 0.55825 0.29538 0.55746 0.0
H1088 H 0.45083 0.29229 0.53437 0.0
H1089 H 0.39745 0.30699 0.54407 0.0
H1090 H 0.40306 0.26713 0.65046 0.0
H1091 H 0.45671 0.25281 0.64159 0.0
C1092 C 0.54315 0.13017 0.52549 0.0
C1093 C 0.53805 0.10394 0.55119 0.0
C1094 C 0.54007 0.1659 0.53383 0.0
C1095 C 0.53195 0.17648 0.56815 0.0
C1096 C 0.52718 0.15047 0.59422 0.0
C1097 C 0.53046 0.11437 0.58586 0.0
C1098 C 0.52695 0.21475 0.57528 0.0
C1099 C 0.49788 0.22628 0.58421 0.0
C1100 C 0.54926 0.24014 0.56694 0.0
C1101 C 0.58065 0.22954 0.55872 0.0
C1102 C 0.59712 0.20849 0.58258 0.0
C1103 C 0.62652 0.19813 0.57448 0.0
C1104 C 0.63969 0.20865 0.54256 0.0
C1105 C 0.62349 0.22953 0.51867 0.0
C1106 C 0.5941 0.24001 0.52668 0.0
C1107 C 0.49035 0.38486 0.57903 0.0
C1108 C 0.4936 0.39589 0.5436 0.0
C1109 C 0.49539 0.34925 0.58834 0.0
C1110 C 0.50409 0.32454 0.56239 0.0
C1111 C 0.50676 0.33554 0.52709 0.0
C1112 C 0.50137 0.37062 0.51777 0.0
C1113 C 0.51175 0.28734 0.57122 0.0
C1114 C 0.54136 0.27605 0.56501 0.0
C1115 C 0.48986 0.26228 0.58183 0.0
C1116 C 0.45797 0.27218 0.58757 0.0
C1117 C 0.44086 0.28727 0.56005 0.0
C1118 C 0.4105 0.29537 0.56534 0.0
C1119 C 0.39691 0.28818 0.59793 0.0
C1120 C 0.41366 0.27286 0.6253 0.0
C1121 C 0.44405 0.26479 0.62017 0.0
H1122 H 0.37337 0.29431 0.60192 0.0
H1123 H 0.66244 0.20057 0.53631 0.0
H1124 H 0.13292 0.21611 0.75603 0.0
H1125 H 0.07833 0.21716 0.76732 0.0
H1126 H 0.06718 0.29639 0.68608 0.0
H1127 H 0.12087 0.29559 0.67478 0.0
H1128 H 0.03436 0.31315 0.74381 0.0
H1129 H 0.04324 0.21059 0.66456 0.0
H1130 H 0.06748 0.15427 0.64745 0.0
H1131 H 0.04683 0.1104 0.74954 0.0
H1132 H 0.02216 0.16644 0.76706 0.0
H1133 H 0.88773 0.28062 0.66429 0.0
H1134 H 0.94198 0.2816 0.67598 0.0
H1135 H 0.92619 0.24685 0.78311 0.0
H1136 H 0.87151 0.24706 0.77191 0.0
H1137 H 0.97206 0.20582 0.72415 0.0
H1138 H 0.9514 0.31049 0.79535 0.0
H1139 H 0.93001 0.36951 0.80772 0.0
H1140 H 0.97552 0.41198 0.71698 0.0
H1141 H 0.99702 0.35316 0.70389 0.0
C1142 C 0.1188 0.23374 0.74066 0.0
C1143 C 0.13146 0.25545 0.71425 0.0
C1144 C 0.08757 0.23426 0.74704 0.0
C1145 C 0.06848 0.25675 0.7274 0.0
C1146 C 0.08125 0.27884 0.70165 0.0
C1147 C 0.11214 0.27809 0.69506 0.0
C1148 C 0.03513 0.2572 0.73262 0.0
C1149 C 0.02078 0.28959 0.73983 0.0
C1150 C 0.01723 0.22657 0.72768 0.0
C1151 C 0.03091 0.19252 0.71705 0.0
C1152 C 0.04377 0.18882 0.68324 0.0
C1153 C 0.05754 0.157 0.67349 0.0
C1154 C 0.05867 0.12879 0.69741 0.0
C1155 C 0.04584 0.13226 0.73104 0.0
C1156 C 0.03185 0.16398 0.74084 0.0
C1157 C 0.89574 0.27393 0.69059 0.0
C1158 C 0.8753 0.26406 0.71727 0.0
C1159 C 0.92676 0.2744 0.69719 0.0
C1160 C 0.93816 0.26426 0.73037 0.0
C1161 C 0.91786 0.25494 0.75736 0.0
C1162 C 0.88664 0.25532 0.75101 0.0
C1163 C 0.97134 0.26176 0.73559 0.0
C1164 C 0.98565 0.22909 0.72955 0.0
C1165 C 0.98921 0.29225 0.74137 0.0
C1166 C 0.97553 0.32735 0.74843 0.0
C1167 C 0.95652 0.33232 0.77776 0.0
C1168 C 0.94452 0.36579 0.78501 0.0
C1169 C 0.95145 0.39452 0.76315 0.0
C1170 C 0.97029 0.38978 0.73393 0.0
C1171 C 0.9824 0.3564 0.7266 0.0
H1172 H 0.94226 0.42044 0.76887 0.0
H1173 H 0.06958 0.1043 0.6899 0.0
H1174 H 0.93955 0.86335 0.04976 0.0
H1175 H 0.95005 0.80346 0.07048 0.0
H1176 H 0.01994 0.84393 0.13895 0.0
H1177 H 0.0089 0.90445 0.11849 0.0
H1178 H 0.04113 0.79583 0.09199 0.0
H1179 H 0.96442 0.79673 0.17725 0.0
H1180 H 0.91471 0.80755 0.20403 0.0
H1181 H 0.87358 0.73813 0.12783 0.0
H1182 H 0.92299 0.72713 0.10034 0.0
H1183 H 0.01768 0.58813 0.10808 0.0
H1184 H 0.01383 0.64765 0.13434 0.0
H1185 H 0.02501 0.69403 0.03071 0.0
H1186 H 0.02866 0.63524 0.00456 0.0
H1187 H 0.971 0.6976 0.12023 0.0
H1188 H 0.06305 0.76997 0.03603 0.0
H1189 H 0.11426 0.75812 0.01397 0.0
H1190 H 0.12753 0.68089 0.09599 0.0
H1191 H 0.07661 0.69266 0.11898 0.0
C1192 C 0.95623 0.85963 0.0704 0.0
C1193 C 0.97329 0.88838 0.08275 0.0
C1194 C 0.96222 0.82537 0.08231 0.0
C1195 C 0.98578 0.81912 0.10634 0.0
C1196 C 1.00152 0.84818 0.12059 0.0
C1197 C 0.99508 0.88271 0.10913 0.0
C1198 C 0.9969 0.78228 0.11095 0.0
C1199 C 0.02599 0.77435 0.09879 0.0
C1200 C 0.97746 0.75426 0.12072 0.0
C1201 C 0.94748 0.76119 0.13665 0.0
C1202 C 0.94476 0.78399 0.166 0.0
C1203 C 0.91663 0.79009 0.18137 0.0
C1204 C 0.891 0.77356 0.16763 0.0
C1205 C 0.89346 0.75089 0.13848 0.0
C1206 C 0.92155 0.74463 0.12305 0.0
C1207 C 0.01977 0.6111 0.09108 0.0
C1208 C 0.02343 0.60704 0.05427 0.0
C1209 C 0.01749 0.64502 0.10607 0.0
C1210 C 0.01943 0.67529 0.08454 0.0
C1211 C 0.02394 0.67113 0.04796 0.0
C1212 C 0.02587 0.63742 0.03299 0.0
C1213 C 0.01442 0.71137 0.0991 0.0
C1214 C 0.98647 0.71908 0.11458 0.0
C1215 C 0.03508 0.73921 0.09285 0.0
C1216 C 0.06588 0.73217 0.0792 0.0
C1217 C 0.07694 0.75063 0.04955 0.0
C1218 C 0.10592 0.74388 0.03683 0.0
C1219 C 0.12411 0.71876 0.05357 0.0
C1220 C 0.11338 0.7003 0.08303 0.0
C1221 C 0.08444 0.70698 0.09588 0.0
H1222 H 0.14656 0.71364 0.04379 0.0
H1223 H 0.86925 0.7783 0.17958 0.0
H1224 H 0.29011 0.35358 0.21695 0.0
H1225 H 0.29118 0.41835 0.21196 0.0
H1226 H 0.21341 0.42554 0.27969 0.0
H1227 H 0.21249 0.36098 0.28499 0.0
H1228 H 0.22006 0.48219 0.22313 0.0
H1229 H 0.27448 0.42661 0.32494 0.0
H1230 H 0.30989 0.38071 0.34581 0.0
H1231 H 0.37675 0.41843 0.27296 0.0
H1232 H 0.34172 0.46463 0.25182 0.0
H1233 H 0.24247 0.65556 0.28288 0.0
H1234 H 0.23253 0.5918 0.28927 0.0
H1235 H 0.32351 0.56917 0.25628 0.0
H1236 H 0.33363 0.63226 0.25175 0.0
H1237 H 0.30822 0.51918 0.29531 0.0
H1238 H 0.26167 0.57658 0.19647 0.0
H1239 H 0.22933 0.62036 0.16646 0.0
H1240 H 0.1518 0.57821 0.21955 0.0
H1241 H 0.18382 0.53453 0.25039 0.0
C1242 C 0.27222 0.36888 0.229 0.0
C1243 C 0.25112 0.35241 0.25119 0.0
C1244 C 0.27304 0.40589 0.22649 0.0
C1245 C 0.25261 0.42665 0.24591 0.0
C1246 C 0.22931 0.40999 0.26449 0.0
C1247 C 0.2287 0.37311 0.26732 0.0
C1248 C 0.25878 0.46468 0.25247 0.0
C1249 C 0.2391 0.49042 0.23918 0.0
C1250 C 0.28399 0.47529 0.27276 0.0
C1251 C 0.30557 0.44899 0.2869 0.0
C1252 C 0.29679 0.42514 0.31352 0.0
C1253 C 0.31676 0.39908 0.32535 0.0
C1254 C 0.34556 0.39665 0.31071 0.0
C1255 C 0.35445 0.42034 0.28428 0.0
C1256 C 0.33462 0.44659 0.27251 0.0
C1257 C 0.26067 0.63691 0.27893 0.0
C1258 C 0.28879 0.64866 0.26688 0.0
C1259 C 0.25488 0.60045 0.28185 0.0
C1260 C 0.27694 0.5755 0.27193 0.0
C1261 C 0.30596 0.58761 0.26376 0.0
C1262 C 0.31181 0.62378 0.26135 0.0
C1263 C 0.26942 0.53741 0.26604 0.0
C1264 C 0.28891 0.51135 0.27952 0.0
C1265 C 0.24456 0.52669 0.24482 0.0
C1266 C 0.22518 0.55263 0.22609 0.0
C1267 C 0.23775 0.57682 0.20193 0.0
C1268 C 0.21949 0.60162 0.18479 0.0
C1269 C 0.18855 0.60218 0.19123 0.0
C1270 C 0.17579 0.57782 0.2147 0.0
C1271 C 0.19398 0.55306 0.23204 0.0
H1272 H 0.17443 0.62138 0.1779 0.0
H1273 H 0.36097 0.37642 0.31984 0.0
H1274 H 0.80317 0.15604 0.78512 0.0
H1275 H 0.80184 0.09222 0.79787 0.0
H1276 H 0.72429 0.08075 0.72995 0.0
H1277 H 0.72586 0.14421 0.71689 0.0
H1278 H 0.72451 0.03337 0.79024 0.0
H1279 H 0.7868 0.06873 0.69076 0.0
H1280 H 0.82605 0.10554 0.66289 0.0
H1281 H 0.89055 0.06919 0.7396 0.0
H1282 H 0.85156 0.0323 0.76799 0.0
H1283 H 0.74265 0.85099 0.74313 0.0
H1284 H 0.7363 0.9155 0.73584 0.0
H1285 H 0.82045 0.93303 0.79037 0.0
H1286 H 0.82692 0.8694 0.79714 0.0
H1287 H 0.8153 0.97783 0.73768 0.0
H1288 H 0.75303 0.93574 0.83243 0.0
H1289 H 0.71295 0.90114 0.86106 0.0
H1290 H 0.64706 0.94975 0.79345 0.0
H1291 H 0.68685 0.9846 0.76417 0.0
C1292 C 0.78502 0.14014 0.77436 0.0
C1293 C 0.76445 0.15491 0.75031 0.0
C1294 C 0.78443 0.10368 0.78134 0.0
C1295 C 0.76315 0.08175 0.76449 0.0
C1296 C 0.74081 0.09718 0.74328 0.0
C1297 C 0.74166 0.13343 0.73595 0.0
C1298 C 0.76687 0.04268 0.76438 0.0
C1299 C 0.74416 0.02109 0.77846 0.0
C1300 C 0.7926 0.02678 0.74918 0.0
C1301 C 0.81626 0.04813 0.73169 0.0
C1302 C 0.80934 0.06874 0.70174 0.0
C1303 C 0.83153 0.08955 0.68581 0.0
C1304 C 0.86075 0.08981 0.69952 0.0
C1305 C 0.86791 0.06899 0.729 0.0
C1306 C 0.84579 0.04808 0.74498 0.0
C1307 C 0.76009 0.86872 0.75253 0.0
C1308 C 0.78521 0.85537 0.77075 0.0
C1309 C 0.75631 0.90549 0.74881 0.0
C1310 C 0.77765 0.92912 0.76321 0.0
C1311 C 0.80363 0.91545 0.77921 0.0
C1312 C 0.8073 0.87905 0.78303 0.0
C1313 C 0.77281 0.96808 0.76335 0.0
C1314 C 0.79545 0.98984 0.74932 0.0
C1315 C 0.74691 0.98393 0.77851 0.0
C1316 C 0.72302 0.96265 0.79588 0.0
C1317 C 0.73005 0.939 0.8235 0.0
C1318 C 0.70736 0.91933 0.83989 0.0
C1319 C 0.67748 0.92318 0.82904 0.0
C1320 C 0.67023 0.94676 0.80181 0.0
C1321 C 0.69285 0.96652 0.78532 0.0
H1322 H 0.65994 0.90793 0.84178 0.0
H1323 H 0.87781 0.10616 0.68727 0.0
H1324 H 0.38355 0.48235 0.99471 0.0
H1325 H 0.329 0.47189 0.99905 0.0
H1326 H 0.31238 0.58025 0.96875 0.0
H1327 H 0.36625 0.59082 0.96459 0.0
H1328 H 0.2837 0.56396 0.02935 0.0
H1329 H 0.29483 0.51062 0.91203 0.0
H1330 H 0.31802 0.46776 0.87089 0.0
H1331 H 0.28814 0.38167 0.93636 0.0
H1332 H 0.26479 0.4241 0.9779 0.0
H1333 H 0.1363 0.59106 0.98333 0.0
H1334 H 0.18977 0.58033 0.98303 0.0
H1335 H 0.17512 0.47261 0.01672 0.0
H1336 H 0.12024 0.48286 0.01599 0.0
H1337 H 0.21991 0.47768 0.96426 0.0
H1338 H 0.20102 0.53223 0.07633 0.0
H1339 H 0.17774 0.57603 0.11624 0.0
H1340 H 0.22355 0.66021 0.06206 0.0
H1341 H 0.24672 0.61696 0.02139 0.0
C1342 C 0.36821 0.50363 0.98812 0.0
C1343 C 0.37935 0.5375 0.97956 0.0
C1344 C 0.337 0.49767 0.99075 0.0
C1345 C 0.31646 0.5254 0.98459 0.0
C1346 C 0.32765 0.55852 0.97407 0.0
C1347 C 0.35858 0.56449 0.97157 0.0
C1348 C 0.28347 0.52143 0.99127 0.0
C1349 C 0.2698 0.5451 0.01504 0.0
C1350 C 0.26532 0.49597 0.97375 0.0
C1351 C 0.27838 0.47048 0.94821 0.0
C1352 C 0.29332 0.48254 0.91769 0.0
C1353 C 0.30649 0.45835 0.89432 0.0
C1354 C 0.30479 0.42202 0.90117 0.0
C1355 C 0.2896 0.40981 0.9312 0.0
C1356 C 0.27629 0.43391 0.95458 0.0
C1357 C 0.14404 0.56494 0.99087 0.0
C1358 C 0.12356 0.53789 0.99998 0.0
C1359 C 0.17493 0.55888 0.99072 0.0
C1360 C 0.18672 0.52584 1.00038 0.0
C1361 C 0.16659 0.49843 0.00931 0.0
C1362 C 0.13524 0.50442 0.00918 0.0
C1363 C 0.22012 0.52119 1.00135 0.0
C1364 C 0.23388 0.49598 0.97917 0.0
C1365 C 0.23856 0.54522 0.02048 0.0
C1366 C 0.22557 0.57129 0.04575 0.0
C1367 C 0.2061 0.56008 0.07288 0.0
C1368 C 0.19289 0.58483 0.09562 0.0
C1369 C 0.19915 0.62089 0.09169 0.0
C1370 C 0.21875 0.63226 0.0651 0.0
C1371 C 0.23198 0.60762 0.04223 0.0
H1372 H 0.18884 0.64002 0.10927 0.0
H1373 H 0.315 0.40333 0.88306 0.0
H1374 H 0.6849 0.14495 0.22348 0.0
H1375 H 0.69298 0.08193 0.21105 0.0
H1376 H 0.78824 0.09567 0.22802 0.0
H1377 H 0.78014 0.15884 0.24018 0.0
H1378 H 0.76916 0.03975 0.17452 0.0
H1379 H 0.74685 0.08363 0.29591 0.0
H1380 H 0.71235 0.1172 0.33447 0.0
H1381 H 0.6405 0.04555 0.30855 0.0
H1382 H 0.67426 0.01246 0.26868 0.0
H1383 H 0.8053 0.86499 0.21858 0.0
H1384 H 0.8037 0.92984 0.22193 0.0
H1385 H 0.71038 0.92431 0.25344 0.0
H1386 H 0.7131 0.85992 0.25328 0.0
H1387 H 0.72854 0.9778 0.28014 0.0
H1388 H 0.73858 0.93464 0.16307 0.0
H1389 H 0.75971 0.90353 0.11135 0.0
H1390 H 0.83844 0.96935 0.11579 0.0
H1391 H 0.81784 1.00076 0.16777 0.0
C1392 C 0.7077 0.13484 0.22262 0.0
C1393 C 0.73198 0.15658 0.23231 0.0
C1394 C 0.71229 0.09885 0.21574 0.0
C1395 C 0.74116 0.08413 0.21911 0.0
C1396 C 0.76583 0.10659 0.22517 0.0
C1397 C 0.76123 0.14264 0.23199 0.0
C1398 C 0.74481 0.04533 0.22332 0.0
C1399 C 0.76069 0.02605 0.19773 0.0
C1400 C 0.73242 0.02741 0.25284 0.0
C1401 C 0.71301 0.04581 0.27901 0.0
C1402 C 0.72367 0.07515 0.2983 0.0
C1403 C 0.70418 0.09423 0.32021 0.0
C1404 C 0.67418 0.08367 0.32375 0.0
C1405 C 0.66368 0.05384 0.30562 0.0
C1406 C 0.68296 0.03498 0.28328 0.0
C1407 C 0.78506 0.87782 0.2281 0.0
C1408 C 0.75952 0.85765 0.23642 0.0
C1409 C 0.78385 0.91488 0.22913 0.0
C1410 C 0.75657 0.93231 0.23658 0.0
C1411 C 0.73174 0.91189 0.24746 0.0
C1412 C 0.73334 0.87495 0.24774 0.0
C1413 C 0.75311 0.97133 0.2312 0.0
C1414 C 0.73732 0.99097 0.2568 0.0
C1415 C 0.76402 0.98907 0.20051 0.0
C1416 C 0.77682 0.96976 0.16968 0.0
C1417 C 0.76053 0.94228 0.15326 0.0
C1418 C 0.7724 0.9246 0.12387 0.0
C1419 C 0.80054 0.93422 0.11051 0.0
C1420 C 0.81675 0.96175 0.12635 0.0
C1421 C 0.80495 0.97954 0.15575 0.0
H1422 H 0.80966 0.92061 0.08765 0.0
H1423 H 0.65909 0.09851 0.34065 0.0
H1424 H 0.86047 0.92029 0.97667 0.0
H1425 H 0.80814 0.93818 0.97394 0.0
H1426 H 0.82566 0.02229 0.0486 0.0
H1427 H 0.8791 0.00449 0.05123 0.0
H1428 H 0.77406 0.9851 0.06507 0.0
H1429 H 0.81085 0.04451 0.96635 0.0
H1430 H 0.83853 0.05729 0.91132 0.0
H1431 H 0.78611 0.97972 0.8556 0.0
H1432 H 0.75836 0.96572 0.91049 0.0
H1433 H 0.61583 0.01995 0.02797 0.0
H1434 H 0.67031 0.03203 0.03172 0.0
H1435 H 0.68806 0.93839 0.96965 0.0
H1436 H 0.63411 0.92583 0.96676 0.0
H1437 H 0.7225 0.99927 0.94924 0.0
H1438 H 0.69424 0.93311 0.05549 0.0
H1439 H 0.66708 0.92392 0.11171 0.0
H1440 H 0.70431 0.02039 0.15329 0.0
H1441 H 0.73165 0.03021 0.09723 0.0
C1442 C 0.85344 0.94269 0.9926 0.0
C1443 C 0.87416 0.96088 0.01429 0.0
C1444 C 0.82339 0.9531 0.99072 0.0
C1445 C 0.81289 0.98194 0.01059 0.0
C1446 C 0.83329 1.00015 0.0327 0.0
C1447 C 0.86381 0.99001 0.03417 0.0
C1448 C 0.78024 0.9912 0.00884 0.0
C1449 C 0.76288 0.98892 0.03983 0.0
C1450 C 0.76549 0.99664 0.97591 0.0
C1451 C 0.78264 0.00385 0.94281 0.0
C1452 C 0.80543 0.02976 0.94253 0.0
C1453 C 0.82108 0.03729 0.9113 0.0
C1454 C 0.81406 0.01925 0.88002 0.0
C1455 C 0.79144 0.99357 0.87992 0.0
C1456 C 0.77574 0.98584 0.9111 0.0
C1457 C 0.6314 0.00247 0.01451 0.0
C1458 C 0.62076 0.9721 0.99682 0.0
C1459 C 0.66249 0.00918 0.01695 0.0
C1460 C 0.68332 0.98598 1.00115 0.0
C1461 C 0.6725 0.95666 0.98206 0.0
C1462 C 0.64165 0.94956 0.98033 0.0
C1463 C 0.71646 0.99094 0.00516 0.0
C1464 C 0.73383 0.99597 0.97451 0.0
C1465 C 0.73121 0.98843 0.03842 0.0
C1466 C 0.71445 0.98278 0.07189 0.0
C1467 C 0.69632 0.95261 0.07644 0.0
C1468 C 0.68102 0.9472 0.10835 0.0
C1469 C 0.68381 0.97169 0.13597 0.0
C1470 C 0.70205 0.00155 0.13181 0.0
C1471 C 0.71748 0.00701 0.1 0.0
H1472 H 0.67202 0.96741 0.16068 0.0
H1473 H 0.82611 0.02522 0.85582 0.0
H1474 H 0.29062 0.64796 0.7458 0.0
H1475 H 0.29261 0.584 0.73397 0.0
H1476 H 0.19591 0.58141 0.72564 0.0
H1477 H 0.19399 0.64533 0.73653 0.0
H1478 H 0.22468 0.5424 0.78471 0.0
H1479 H 0.22696 0.55778 0.65972 0.0
H1480 H 0.2444 0.5778 0.60116 0.0
H1481 H 0.328 0.52296 0.61628 0.0
H1482 H 0.31134 0.50315 0.67536 0.0
H1483 H 0.19628 0.35842 0.75695 0.0
H1484 H 0.19929 0.42283 0.76205 0.0
H1485 H 0.29379 0.41872 0.73605 0.0
H1486 H 0.2902 0.35428 0.72926 0.0
H1487 H 0.26766 0.46212 0.69407 0.0
H1488 H 0.2636 0.44555 0.82 0.0
H1489 H 0.24362 0.42403 0.87701 0.0
H1490 H 0.16162 0.48131 0.8597 0.0
H1491 H 0.18042 0.50202 0.80188 0.0
C1492 C 0.27002 0.63406 0.73921 0.0
C1493 C 0.2422 0.65154 0.74129 0.0
C1494 C 0.27113 0.5975 0.73282 0.0
C1495 C 0.24438 0.57803 0.72913 0.0
C1496 C 0.21679 0.59603 0.72823 0.0
C1497 C 0.21573 0.63258 0.73403 0.0
C1498 C 0.24475 0.53897 0.73297 0.0
C1499 C 0.23368 0.52465 0.76472 0.0
C1500 C 0.25739 0.51623 0.70727 0.0
C1501 C 0.26807 0.5295 0.6724 0.0
C1502 C 0.24934 0.55061 0.65099 0.0
C1503 C 0.25903 0.56179 0.61758 0.0
C1504 C 0.28738 0.55189 0.60512 0.0
C1505 C 0.30611 0.53079 0.62606 0.0
C1506 C 0.29653 0.51956 0.65952 0.0
C1507 C 0.21799 0.37119 0.75412 0.0
C1508 C 0.24321 0.35147 0.74364 0.0
C1509 C 0.2197 0.40809 0.75679 0.0
C1510 C 0.24683 0.42585 0.74957 0.0
C1511 C 0.2726 0.40573 0.74172 0.0
C1512 C 0.27072 0.36888 0.73844 0.0
C1513 C 0.24743 0.46516 0.74592 0.0
C1514 C 0.25876 0.47968 0.71425 0.0
C1515 C 0.23486 0.48813 0.77168 0.0
C1516 C 0.22339 0.47515 0.80634 0.0
C1517 C 0.24117 0.45326 0.82809 0.0
C1518 C 0.23009 0.44127 0.86062 0.0
C1519 C 0.20152 0.45147 0.87207 0.0
C1520 C 0.1838 0.47346 0.85085 0.0
C1521 C 0.19461 0.48524 0.81812 0.0
H1522 H 0.1931 0.4423 0.89737 0.0
H1523 H 0.29475 0.56034 0.57912 0.0
H1524 H 0.14478 0.41293 0.53 0.0
H1525 H 0.19789 0.42675 0.53431 0.0
H1526 H 0.18276 0.52636 0.48144 0.0
H1527 H 0.1287 0.51257 0.47679 0.0
H1528 H 0.23162 0.49177 0.45465 0.0
H1529 H 0.19826 0.52376 0.56951 0.0
H1530 H 0.17256 0.51823 0.62707 0.0
H1531 H 0.22832 0.42938 0.65392 0.0
H1532 H 0.25407 0.43394 0.59631 0.0
H1533 H 0.38937 0.52713 0.49198 0.0
H1534 H 0.3344 0.53551 0.49478 0.0
H1535 H 0.32386 0.42753 0.52969 0.0
H1536 H 0.37833 0.41875 0.52578 0.0
H1537 H 0.28769 0.47932 0.56778 0.0
H1538 H 0.31174 0.43952 0.4499 0.0
H1539 H 0.33601 0.44104 0.3913 0.0
H1540 H 0.29692 0.54297 0.37071 0.0
H1541 H 0.2727 0.54228 0.42963 0.0
C1542 C 0.15243 0.43792 0.51923 0.0
C1543 C 0.13211 0.4616 0.50295 0.0
C1544 C 0.18302 0.44592 0.52204 0.0
C1545 C 0.19447 0.47789 0.50881 0.0
C1546 C 0.17448 0.50162 0.49216 0.0
C1547 C 0.14355 0.49369 0.48949 0.0
C1548 C 0.22754 0.48507 0.51113 0.0
C1549 C 0.24375 0.49014 0.47958 0.0
C1550 C 0.24364 0.48214 0.54357 0.0
C1551 C 0.22797 0.47903 0.57827 0.0
C1552 C 0.20482 0.50274 0.58745 0.0
C1553 C 0.19027 0.49982 0.62017 0.0
C1554 C 0.19877 0.47344 0.64412 0.0
C1555 C 0.22179 0.44985 0.63536 0.0
C1556 C 0.2364 0.45263 0.60268 0.0
C1557 C 0.37531 0.50546 0.50089 0.0
C1558 C 0.38815 0.47232 0.5088 0.0
C1559 C 0.34393 0.51018 0.50224 0.0
C1560 C 0.32497 0.48208 0.5123 0.0
C1561 C 0.33798 0.44959 0.52189 0.0
C1562 C 0.36912 0.44461 0.51967 0.0
C1563 C 0.29152 0.48552 0.51137 0.0
C1564 C 0.27535 0.48217 0.54312 0.0
C1565 C 0.27545 0.48994 0.47921 0.0
C1566 C 0.29092 0.49117 0.44446 0.0
C1567 C 0.30875 0.46255 0.43317 0.0
C1568 C 0.3224 0.4632 0.39984 0.0
C1569 C 0.31819 0.4922 0.37741 0.0
C1570 C 0.30029 0.52063 0.38824 0.0
C1571 C 0.28662 0.52013 0.42161 0.0
H1572 H 0.32862 0.49252 0.35156 0.0
H1573 H 0.1876 0.47134 0.66952 0.0
H1574 H 0.72802 0.71368 0.85986 0.0
H1575 H 0.72244 0.69663 0.92183 0.0
H1576 H 0.80713 0.64111 0.91757 0.0
H1577 H 0.8126 0.65796 0.85464 0.0
H1578 H 0.75219 0.6124 0.96719 0.0
H1579 H 0.82001 0.71072 0.94359 0.0
H1580 H 0.83444 0.7651 0.91163 0.0
H1581 H 0.75445 0.81696 0.94863 0.0
H1582 H 0.73925 0.76261 0.9802 0.0
H1583 H 0.76753 0.65156 0.15759 0.0
H1584 H 0.77395 0.63446 0.09506 0.0
H1585 H 0.71324 0.71806 0.06384 0.0
H1586 H 0.70777 0.7357 0.12565 0.0
H1587 H 0.76585 0.72538 0.03268 0.0
H1588 H 0.69631 0.62848 0.05338 0.0
H1589 H 0.6788 0.57427 0.08342 0.0
H1590 H 0.75968 0.52026 0.05268 0.0
H1591 H 0.77782 0.57432 0.02277 0.0
C1592 C 0.74486 0.69663 0.87174 0.0
C1593 C 0.77067 0.68701 0.85275 0.0
C1594 C 0.74162 0.68683 0.90706 0.0
C1595 C 0.76442 0.66778 0.92422 0.0
C1596 C 0.78918 0.65552 0.90457 0.0
C1597 C 0.7923 0.66512 0.86877 0.0
C1598 C 0.76455 0.66741 0.96342 0.0
C1599 C 0.75583 0.63679 0.98181 0.0
C1600 C 0.76889 0.69943 0.9822 0.0
C1601 C 0.77839 0.73249 0.96402 0.0
C1602 C 0.80539 0.73363 0.94468 0.0
C1603 C 0.81372 0.76445 0.92665 0.0
C1604 C 0.79534 0.79444 0.92803 0.0
C1605 C 0.76865 0.7937 0.94755 0.0
C1606 C 0.76019 0.7629 0.96554 0.0
C1607 C 0.75478 0.6653 0.13734 0.0
C1608 C 0.7372 0.69492 0.14618 0.0
C1609 C 0.75853 0.65565 0.10167 0.0
C1610 C 0.74432 0.67524 0.07471 0.0
C1611 C 0.72469 0.70281 0.08411 0.0
C1612 C 0.72141 0.71276 0.11944 0.0
C1613 C 0.75241 0.67061 0.03679 0.0
C1614 C 0.7628 0.70059 0.01851 0.0
C1615 C 0.74956 0.63803 0.01842 0.0
C1616 C 0.73857 0.60554 0.0362 0.0
C1617 C 0.71047 0.60513 0.05327 0.0
C1618 C 0.7004 0.57441 0.07021 0.0
C1619 C 0.71816 0.54387 0.07005 0.0
C1620 C 0.74597 0.54395 0.05283 0.0
C1621 C 0.75614 0.5746 0.03584 0.0
H1622 H 0.71034 0.52012 0.08319 0.0
H1623 H 0.8018 0.81827 0.91402 0.0
H1624 H 0.45897 0.54538 0.39973 0.0
H1625 H 0.46002 0.55794 0.33586 0.0
H1626 H 0.53971 0.49374 0.32508 0.0
H1627 H 0.53858 0.48115 0.38863 0.0
H1628 H 0.53614 0.55147 0.27476 0.0
H1629 H 0.47454 0.45581 0.32429 0.0
H1630 H 0.43437 0.43399 0.36357 0.0
H1631 H 0.37064 0.50199 0.31163 0.0
H1632 H 0.41037 0.52397 0.27192 0.0
H1633 H 0.52 0.49726 0.09576 0.0
H1634 H 0.52642 0.49149 0.16042 0.0
H1635 H 0.43837 0.53694 0.17632 0.0
H1636 H 0.4319 0.54212 0.11242 0.0
H1637 H 0.44725 0.48935 0.22453 0.0
H1638 H 0.50174 0.58855 0.1795 0.0
H1639 H 0.53797 0.61871 0.1403 0.0
H1640 H 0.60991 0.55638 0.18373 0.0
H1641 H 0.574 0.52553 0.22292 0.0
C1642 C 0.4776 0.53564 0.38401 0.0
C1643 C 0.49877 0.51245 0.39894 0.0
C1644 C 0.47806 0.54253 0.34749 0.0
C1645 C 0.49966 0.52621 0.32566 0.0
C1646 C 0.52286 0.50656 0.34137 0.0
C1647 C 0.52225 0.49946 0.37771 0.0
C1648 C 0.49507 0.52375 0.28671 0.0
C1649 C 0.51686 0.53768 0.26372 0.0
C1650 C 0.46959 0.5063 0.27231 0.0
C1651 C 0.44548 0.49163 0.29518 0.0
C1652 C 0.45194 0.46603 0.32118 0.0
C1653 C 0.42923 0.4536 0.34353 0.0
C1654 C 0.39996 0.46663 0.34019 0.0
C1655 C 0.39329 0.49188 0.31427 0.0
C1656 C 0.41586 0.50417 0.29167 0.0
C1657 C 0.50172 0.50478 0.11316 0.0
C1658 C 0.47549 0.52013 0.09925 0.0
C1659 C 0.5055 0.50195 0.15005 0.0
C1660 C 0.4831 0.5145 0.17333 0.0
C1661 C 0.45603 0.52721 0.1591 0.0
C1662 C 0.45234 0.53013 0.12253 0.0
C1663 C 0.4883 0.51715 0.21229 0.0
C1664 C 0.46665 0.50305 0.2354 0.0
C1665 C 0.51337 0.53546 0.2267 0.0
C1666 C 0.53515 0.55442 0.20379 0.0
C1667 C 0.52527 0.58114 0.18054 0.0
C1668 C 0.54573 0.59836 0.15834 0.0
C1669 C 0.57619 0.58929 0.15937 0.0
C1670 C 0.58629 0.56325 0.18287 0.0
C1671 C 0.5659 0.54591 0.2051 0.0
H1672 H 0.59199 0.60249 0.14202 0.0
H1673 H 0.38245 0.45705 0.35757 0.0
H1674 H 0.70598 0.25788 0.3709 0.0
H1675 H 0.71235 0.27604 0.43264 0.0
H1676 H 0.75139 0.37486 0.39853 0.0
H1677 H 0.74415 0.35712 0.33619 0.0
H1678 H 0.78653 0.33371 0.45068 0.0
H1679 H 0.69098 0.38442 0.43536 0.0
H1680 H 0.63803 0.38981 0.41681 0.0
H1681 H 0.61355 0.30534 0.48708 0.0
H1682 H 0.66652 0.29857 0.50538 0.0
H1683 H 0.78828 0.35524 0.64564 0.0
H1684 H 0.77957 0.37291 0.58332 0.0
H1685 H 0.73549 0.27304 0.56355 0.0
H1686 H 0.7447 0.25507 0.62441 0.0
H1687 H 0.7036 0.33647 0.53852 0.0
H1688 H 0.80213 0.27751 0.53863 0.0
H1689 H 0.85509 0.2727 0.55765 0.0
H1690 H 0.87305 0.37659 0.51648 0.0
H1691 H 0.82 0.38219 0.49768 0.0
C1692 C 0.71544 0.28374 0.37649 0.0
C1693 C 0.7245 0.30614 0.34879 0.0
C1694 C 0.71905 0.29411 0.41178 0.0
C1695 C 0.73233 0.3268 0.42016 0.0
C1696 C 0.74102 0.34957 0.39258 0.0
C1697 C 0.73671 0.33952 0.35708 0.0
C1698 C 0.73846 0.33549 0.45789 0.0
C1699 C 0.76841 0.33544 0.46984 0.0
C1700 C 0.71483 0.33759 0.48288 0.0
C1701 C 0.68289 0.34081 0.47154 0.0
C1702 C 0.67442 0.36661 0.44652 0.0
C1703 C 0.64436 0.36993 0.43608 0.0
C1704 C 0.62246 0.3478 0.45067 0.0
C1705 C 0.63058 0.32229 0.47572 0.0
C1706 C 0.66064 0.3187 0.48613 0.0
C1707 C 0.77676 0.33721 0.62786 0.0
C1708 C 0.76734 0.30373 0.63984 0.0
C1709 C 0.77178 0.3473 0.59241 0.0
C1710 C 0.75673 0.32429 0.56897 0.0
C1711 C 0.74697 0.29125 0.58123 0.0
C1712 C 0.75247 0.28095 0.61605 0.0
C1713 C 0.75149 0.3332 0.53117 0.0
C1714 C 0.72168 0.33621 0.51924 0.0
C1715 C 0.7752 0.33398 0.50624 0.0
C1716 C 0.80705 0.3305 0.51728 0.0
C1717 C 0.81731 0.29947 0.53397 0.0
C1718 C 0.84734 0.29656 0.54464 0.0
C1719 C 0.86738 0.32439 0.53846 0.0
C1720 C 0.85746 0.35512 0.5214 0.0
C1721 C 0.82743 0.35817 0.51073 0.0
H1722 H 0.8906 0.32209 0.54679 0.0
H1723 H 0.59918 0.35049 0.44266 0.0
H1724 H 0.05076 0.50873 0.6002 0.0
H1725 H 0.04612 0.51387 0.66487 0.0
H1726 H 0.96709 0.44762 0.66223 0.0
H1727 H 0.97239 0.44134 0.59782 0.0
H1728 H 0.96622 0.50847 0.71317 0.0
H1729 H 0.02361 0.40646 0.67819 0.0
H1730 H 0.06341 0.37347 0.64703 0.0
H1731 H 0.13091 0.43671 0.69855 0.0
H1732 H 0.09142 0.47026 0.72991 0.0
H1733 H 0.97859 0.48093 0.90066 0.0
H1734 H 0.97217 0.46328 0.83804 0.0
H1735 H 0.0589 0.50844 0.81352 0.0
H1736 H 0.06521 0.52578 0.87527 0.0
H1737 H 0.05019 0.44905 0.77642 0.0
H1738 H 0.99461 0.5562 0.80422 0.0
H1739 H 0.95617 0.59102 0.83594 0.0
H1740 H 0.88713 0.52111 0.79757 0.0
H1741 H 0.92526 0.48565 0.76592 0.0
C1742 C 0.03176 0.49646 0.61331 0.0
C1743 C 0.01173 0.47497 0.59417 0.0
C1744 C 0.02931 0.49906 0.65021 0.0
C1745 C 1.0065 0.48071 0.66827 0.0
C1746 C 0.9849 0.46183 0.64879 0.0
C1747 C 0.98779 0.4585 0.61204 0.0
C1748 C 0.00704 0.47839 0.70747 0.0
C1749 C 0.98431 0.49506 0.72707 0.0
C1750 C 0.03069 0.46086 0.72546 0.0
C1751 C 0.05449 0.4411 0.70619 0.0
C1752 C 0.0469 0.41355 0.68268 0.0
C1753 C 0.06942 0.39468 0.66504 0.0
C1754 C 0.09967 0.40304 0.67074 0.0
C1755 C 0.10746 0.43027 0.69414 0.0
C1756 C 0.08501 0.44919 0.7119 0.0
C1757 C 0.99652 0.48605 0.88194 0.0
C1758 C 0.02232 0.50476 0.89254 0.0
C1759 C 0.99278 0.47628 0.84623 0.0
C1760 C 0.01491 0.485 0.821 0.0
C1761 C 0.04152 0.50144 0.83237 0.0
C1762 C 0.04509 0.5114 0.86766 0.0
C1763 C 0.00995 0.48023 0.78231 0.0
C1764 C 0.03182 0.46204 0.76262 0.0
C1765 C 0.98572 0.49669 0.76426 0.0
C1766 C 0.96281 0.51798 0.78319 0.0
C1767 C 0.97126 0.54808 0.80282 0.0
C1768 C 0.94953 0.56797 0.82072 0.0
C1769 C 0.91924 0.55819 0.8189 0.0
C1770 C 0.91061 0.52858 0.79906 0.0
C1771 C 0.93227 0.50857 0.78114 0.0
H1772 H 0.90244 0.57363 0.83276 0.0
H1773 H 0.11707 0.38838 0.65708 0.0
H1774 H 0.88667 0.06401 0.56704 0.0
H1775 H 0.83311 0.05031 0.56894 0.0
H1776 H 0.84241 0.98451 0.47614 0.0
H1777 H 0.89675 0.99776 0.47441 0.0
H1778 H 0.79469 0.0367 0.47282 0.0
H1779 H 0.8286 0.9444 0.55188 0.0
H1780 H 0.85635 0.92015 0.60309 0.0
H1781 H 0.80736 0.98869 0.67315 0.0
H1782 H 0.77955 0.01354 0.62246 0.0
H1783 H 0.64222 0.98354 0.47878 0.0
H1784 H 0.69708 0.97615 0.48142 0.0
H1785 H 0.70063 0.04356 0.57367 0.0
H1786 H 0.64579 0.05181 0.57033 0.0
H1787 H 0.74208 0.98396 0.57612 0.0
H1788 H 0.71572 0.0825 0.50514 0.0
H1789 H 0.68762 0.11487 0.45909 0.0
H1790 H 0.72285 0.0451 0.37931 0.0
H1791 H 0.75091 0.01197 0.42511 0.0
C1792 C 0.87747 0.04638 0.54709 0.0
C1793 C 0.89604 0.03214 0.5204 0.0
C1794 C 0.84679 0.0384 0.54838 0.0
C1795 C 0.83366 0.01624 0.52283 0.0
C1796 C 0.85208 0.00158 0.49625 0.0
C1797 C 0.88311 0.00907 0.49532 0.0
C1798 C 0.80042 0.01048 0.52306 0.0
C1799 C 0.78328 0.02422 0.49495 0.0
C1800 C 0.78532 0.99585 0.55275 0.0
C1801 C 0.8021 0.98095 0.58331 0.0
C1802 C 0.8239 0.95446 0.5782 0.0
C1803 C 0.8396 0.94054 0.60717 0.0
C1804 C 0.83364 0.95286 0.6414 0.0
C1805 C 0.81195 0.97909 0.64671 0.0
C1806 C 0.79616 0.99306 0.61786 0.0
C1807 C 0.65463 0.99573 0.50033 0.0
C1808 C 0.6398 0.01765 0.5248 0.0
C1809 C 0.68597 0.99174 0.50167 0.0
C1810 C 0.70302 0.00933 0.52772 0.0
C1811 C 0.68796 0.02951 0.55352 0.0
C1812 C 0.65665 0.0341 0.55172 0.0
C1813 C 0.73655 0.00974 0.52571 0.0
C1814 C 0.75361 0.99548 0.55358 0.0
C1815 C 0.75166 0.02482 0.49635 0.0
C1816 C 0.73502 0.04446 0.46857 0.0
C1817 C 0.71722 0.07383 0.47782 0.0
C1818 C 0.70138 0.09237 0.45179 0.0
C1819 C 0.70337 0.08199 0.41635 0.0
C1820 C 0.72129 0.05308 0.40681 0.0
C1821 C 0.73719 0.0344 0.4328 0.0
H1822 H 0.69105 0.0965 0.39639 0.0
H1823 H 0.8458 0.94207 0.66381 0.0
loop_
_geom_bond_atom_site_label_1
_geom_bond_atom_site_label_2
_geom_bond_distance
_geom_bond_site_symmetry_2
_ccdc_geom_bond_type
Co0 O1 2.216 . S
Co0 O2 2.091 . S
Co0 O4 2.004 . S
Co0 O10 2.021 . S
Co0 O12 2.137 . S
Co0 O13 2.244 . S
O1 Co0 2.216 . S
O1 C8 1.247 . S
O2 Co0 2.091 . S
O2 C8 1.261 . S
C3 O12 1.247 . S
C3 O13 1.272 . S
O4 Co0 2.004 . S
O4 C9 1.259 . S
Co5 O6 2.061 . S
Co5 O11 2.052 . S
Co5 O13 2.135 . S
O6 Co5 2.061 . S
O6 C9 1.235 . S
C7 O10 1.238 . S
C7 O11 1.241 . S
C8 O1 1.247 . S
C8 O2 1.261 . S
C9 O4 1.259 . S
C9 O6 1.235 . S
O10 Co0 2.021 . S
O10 C7 1.238 . S
O11 Co5 2.052 . S
O11 C7 1.241 . S
O12 Co0 2.137 . S
O12 C3 1.247 . S
O13 Co0 2.244 . S
O13 C3 1.272 . S
O13 Co5 2.135 . S
Co14 O15 2.216 1_655 S
Co14 O16 2.091 1_545 S
Co14 O18 2.004 . S
Co14 O24 2.021 1_545 S
Co14 O26 2.137 . S
Co14 O27 2.244 . S
O15 Co14 2.216 1_455 S
O15 C22 1.247 1_545 S
O16 Co14 2.091 1_565 S
O16 C22 1.261 1_655 S
C17 O26 1.247 . S
C17 O27 1.272 . S
O18 Co14 2.004 . S
O18 C23 1.259 . S
Co19 O20 2.061 . S
Co19 O25 2.052 . S
Co19 O27 2.135 . S
O20 Co19 2.061 . S
O20 C23 1.235 . S
C21 O24 1.238 1_545 S
C21 O25 1.241 . S
C22 O15 1.247 1_565 S
C22 O16 1.261 1_455 S
C23 O18 1.259 . S
C23 O20 1.235 . S
O24 Co14 2.021 1_565 S
O24 C21 1.238 1_565 S
O25 Co19 2.052 . S
O25 C21 1.241 . S
O26 Co14 2.137 . S
O26 C17 1.247 . S
O27 Co14 2.244 . S
O27 C17 1.272 . S
O27 Co19 2.135 . S
Co28 O29 2.216 . S
Co28 O30 2.091 . S
Co28 O32 2.004 . S
Co28 O38 2.021 . S
Co28 O40 2.137 . S
Co28 O41 2.244 . S
O29 Co28 2.216 . S
O29 C36 1.247 . S
O30 Co28 2.091 . S
O30 C36 1.261 . S
C31 O40 1.247 . S
C31 O41 1.272 . S
O32 Co28 2.004 . S
O32 C37 1.259 . S
Co33 O34 2.061 . S
Co33 O39 2.052 . S
Co33 O41 2.135 . S
O34 Co33 2.061 . S
O34 C37 1.235 . S
C35 O38 1.238 . S
C35 O39 1.241 . S
C36 O29 1.247 . S
C36 O30 1.261 . S
C37 O32 1.259 . S
C37 O34 1.235 . S
O38 Co28 2.021 . S
O38 C35 1.238 . S
O39 Co33 2.052 . S
O39 C35 1.241 . S
O40 Co28 2.137 . S
O40 C31 1.247 . S
O41 Co28 2.244 . S
O41 C31 1.272 . S
O41 Co33 2.135 . S
Co42 O43 2.216 . S
Co42 O44 2.091 1_565 S
Co42 O46 2.004 . S
Co42 O52 2.021 1_566 S
Co42 O54 2.137 . S
Co42 O55 2.244 1_556 S
O43 Co42 2.216 . S
O43 C50 1.247 1_565 S
O44 Co42 2.091 1_545 S
O44 C50 1.261 . S
C45 O54 1.247 . S
C45 O55 1.272 1_556 S
O46 Co42 2.004 . S
O46 C51 1.259 . S
Co47 O48 2.061 . S
Co47 O53 2.052 . S
Co47 O55 2.135 . S
O48 Co47 2.061 . S
O48 C51 1.235 1_554 S
C49 O52 1.238 1_565 S
C49 O53 1.241 . S
C50 O43 1.247 1_545 S
C50 O44 1.261 . S
C51 O46 1.259 . S
C51 O48 1.235 1_556 S
O52 Co42 2.021 1_544 S
O52 C49 1.238 1_545 S
O53 Co47 2.052 . S
O53 C49 1.241 . S
O54 Co42 2.137 . S
O54 C45 1.247 . S
O55 Co42 2.244 1_554 S
O55 C45 1.272 1_554 S
O55 Co47 2.135 . S
Co56 O57 2.216 . S
Co56 O58 2.091 . S
Co56 O60 2.004 . S
Co56 O66 2.021 . S
Co56 O68 2.137 . S
Co56 O69 2.244 . S
O57 Co56 2.216 . S
O57 C64 1.247 . S
O58 Co56 2.091 . S
O58 C64 1.261 . S
C59 O68 1.247 . S
C59 O69 1.272 . S
O60 Co56 2.004 . S
O60 C65 1.259 . S
Co61 O62 2.061 . S
Co61 O67 2.052 . S
Co61 O69 2.135 . S
O62 Co61 2.061 . S
O62 C65 1.235 . S
C63 O66 1.238 . S
C63 O67 1.241 . S
C64 O57 1.247 . S
C64 O58 1.261 . S
C65 O60 1.259 . S
C65 O62 1.235 . S
O66 Co56 2.021 . S
O66 C63 1.238 . S
O67 Co61 2.052 . S
O67 C63 1.241 . S
O68 Co56 2.137 . S
O68 C59 1.247 . S
O69 Co56 2.244 . S
O69 C59 1.272 . S
O69 Co61 2.135 . S
Co70 O71 2.216 . S
Co70 O72 2.091 1_545 S
Co70 O74 2.004 . S
Co70 O80 2.021 1_545 S
Co70 O82 2.137 . S
Co70 O83 2.244 . S
O71 Co70 2.216 . S
O71 C78 1.247 1_545 S
O72 Co70 2.091 1_565 S
O72 C78 1.261 . S
C73 O82 1.247 . S
C73 O83 1.272 . S
O74 Co70 2.004 . S
O74 C79 1.259 . S
Co75 O76 2.061 . S
Co75 O81 2.052 . S
Co75 O83 2.135 . S
O76 Co75 2.061 . S
O76 C79 1.235 . S
C77 O80 1.238 1_545 S
C77 O81 1.241 . S
C78 O71 1.247 1_565 S
C78 O72 1.261 . S
C79 O74 1.259 . S
C79 O76 1.235 . S
O80 Co70 2.021 1_565 S
O80 C77 1.238 1_565 S
O81 Co75 2.052 . S
O81 C77 1.241 . S
O82 Co70 2.137 . S
O82 C73 1.247 . S
O83 Co70 2.244 . S
O83 C73 1.272 . S
O83 Co75 2.135 . S
Co84 O85 2.216 . S
Co84 O86 2.091 . S
Co84 O88 2.004 . S
Co84 O94 2.021 . S
Co84 O96 2.137 . S
Co84 O97 2.244 . S
O85 Co84 2.216 . S
O85 C92 1.247 . S
O86 Co84 2.091 . S
O86 C92 1.261 . S
C87 O96 1.247 . S
C87 O97 1.272 . S
O88 Co84 2.004 . S
O88 C93 1.259 . S
Co89 O90 2.061 . S
Co89 O95 2.052 . S
Co89 O97 2.135 . S
O90 Co89 2.061 . S
O90 C93 1.235 . S
C91 O94 1.238 . S
C91 O95 1.241 . S
C92 O85 1.247 . S
C92 O86 1.261 . S
C93 O88 1.259 . S
C93 O90 1.235 . S
O94 Co84 2.021 . S
O94 C91 1.238 . S
O95 Co89 2.052 . S
O95 C91 1.241 . S
O96 Co84 2.137 . S
O96 C87 1.247 . S
O97 Co84 2.244 . S
O97 C87 1.272 . S
O97 Co89 2.135 . S
Co98 O99 2.216 1_655 S
Co98 O100 2.091 1_565 S
Co98 O102 2.004 . S
Co98 O108 2.021 1_564 S
Co98 O110 2.137 . S
Co98 O111 2.244 1_554 S
O99 Co98 2.216 1_455 S
O99 C106 1.247 1_565 S
O100 Co98 2.091 1_545 S
O100 C106 1.261 1_655 S
C101 O110 1.247 . S
C101 O111 1.272 1_554 S
O102 Co98 2.004 . S
O102 C107 1.259 . S
Co103 O104 2.061 . S
Co103 O109 2.052 . S
Co103 O111 2.135 . S
O104 Co103 2.061 . S
O104 C107 1.235 1_556 S
C105 O108 1.238 1_565 S
C105 O109 1.241 . S
C106 O99 1.247 1_545 S
C106 O100 1.261 1_455 S
C107 O102 1.259 . S
C107 O104 1.235 1_554 S
O108 Co98 2.021 1_546 S
O108 C105 1.238 1_545 S
O109 Co103 2.052 . S
O109 C105 1.241 . S
O110 Co98 2.137 . S
O110 C101 1.247 . S
O111 Co98 2.244 1_556 S
O111 C101 1.272 1_556 S
O111 Co103 2.135 . S
Co112 O113 2.216 . S
Co112 O114 2.091 . S
Co112 O116 2.004 . S
Co112 O122 2.021 . S
Co112 O124 2.137 . S
Co112 O125 2.244 . S
O113 Co112 2.216 . S
O113 C120 1.247 . S
O114 Co112 2.091 . S
O114 C120 1.261 . S
C115 O124 1.247 . S
C115 O125 1.272 . S
O116 Co112 2.004 . S
O116 C121 1.259 . S
Co117 O118 2.061 . S
Co117 O123 2.052 . S
Co117 O125 2.135 . S
O118 Co117 2.061 . S
O118 C121 1.235 . S
C119 O122 1.238 . S
C119 O123 1.241 . S
C120 O113 1.247 . S
C120 O114 1.261 . S
C121 O116 1.259 . S
C121 O118 1.235 . S
O122 Co112 2.021 . S
O122 C119 1.238 . S
O123 Co117 2.052 . S
O123 C119 1.241 . S
O124 Co112 2.137 . S
O124 C115 1.247 . S
O125 Co112 2.244 . S
O125 C115 1.272 . S
O125 Co117 2.135 . S
Co126 O127 2.216 1_455 S
Co126 O128 2.091 . S
Co126 O130 2.004 . S
Co126 O136 2.021 1_554 S
Co126 O138 2.137 . S
Co126 O139 2.244 1_554 S
O127 Co126 2.216 1_655 S
O127 C134 1.247 . S
O128 Co126 2.091 . S
O128 C134 1.261 1_455 S
C129 O138 1.247 . S
C129 O139 1.272 1_554 S
O130 Co126 2.004 . S
O130 C135 1.259 . S
Co131 O132 2.061 . S
Co131 O137 2.052 . S
Co131 O139 2.135 . S
O132 Co131 2.061 . S
O132 C135 1.235 1_556 S
C133 O136 1.238 . S
C133 O137 1.241 . S
C134 O127 1.247 . S
C134 O128 1.261 1_655 S
C135 O130 1.259 . S
C135 O132 1.235 1_554 S
O136 Co126 2.021 1_556 S
O136 C133 1.238 . S
O137 Co131 2.052 . S
O137 C133 1.241 . S
O138 Co126 2.137 . S
O138 C129 1.247 . S
O139 Co126 2.244 1_556 S
O139 C129 1.272 1_556 S
O139 Co131 2.135 . S
Co140 O141 2.216 . S
Co140 O142 2.091 . S
Co140 O144 2.004 . S
Co140 O150 2.021 . S
Co140 O152 2.137 . S
Co140 O153 2.244 . S
O141 Co140 2.216 . S
O141 C148 1.247 . S
O142 Co140 2.091 . S
O142 C148 1.261 . S
C143 O152 1.247 . S
C143 O153 1.272 . S
O144 Co140 2.004 . S
O144 C149 1.259 . S
Co145 O146 2.061 . S
Co145 O151 2.052 . S
Co145 O153 2.135 . S
O146 Co145 2.061 . S
O146 C149 1.235 . S
C147 O150 1.238 . S
C147 O151 1.241 . S
C148 O141 1.247 . S
C148 O142 1.261 . S
C149 O144 1.259 . S
C149 O146 1.235 . S
O150 Co140 2.021 . S
O150 C147 1.238 . S
O151 Co145 2.052 . S
O151 C147 1.241 . S
O152 Co140 2.137 . S
O152 C143 1.247 . S
O153 Co140 2.244 . S
O153 C143 1.272 . S
O153 Co145 2.135 . S
Co154 O155 2.216 1_455 S
Co154 O156 2.091 . S
Co154 O158 2.004 . S
Co154 O164 2.021 . S
Co154 O166 2.137 . S
Co154 O167 2.244 . S
O155 Co154 2.216 1_655 S
O155 C162 1.247 . S
O156 Co154 2.091 . S
O156 C162 1.261 1_455 S
C157 O166 1.247 . S
C157 O167 1.272 . S
O158 Co154 2.004 . S
O158 C163 1.259 . S
Co159 O160 2.061 . S
Co159 O165 2.052 . S
Co159 O167 2.135 . S
O160 Co159 2.061 . S
O160 C163 1.235 . S
C161 O164 1.238 . S
C161 O165 1.241 . S
C162 O155 1.247 . S
C162 O156 1.261 1_655 S
C163 O158 1.259 . S
C163 O160 1.235 . S
O164 Co154 2.021 . S
O164 C161 1.238 . S
O165 Co159 2.052 . S
O165 C161 1.241 . S
O166 Co154 2.137 . S
O166 C157 1.247 . S
O167 Co154 2.244 . S
O167 C157 1.272 . S
O167 Co159 2.135 . S
Co168 O169 2.216 . S
Co168 O170 2.091 . S
Co168 O172 2.004 . S
Co168 O178 2.021 1_556 S
Co168 O180 2.137 . S
Co168 O181 2.244 1_556 S
O169 Co168 2.216 . S
O169 C176 1.247 . S
O170 Co168 2.091 . S
O170 C176 1.261 . S
C171 O180 1.247 . S
C171 O181 1.272 1_556 S
O172 Co168 2.004 . S
O172 C177 1.259 . S
Co173 O174 2.061 . S
Co173 O179 2.052 . S
Co173 O181 2.135 . S
O174 Co173 2.061 . S
O174 C177 1.235 1_554 S
C175 O178 1.238 . S
C175 O179 1.241 . S
C176 O169 1.247 . S
C176 O170 1.261 . S
C177 O172 1.259 . S
C177 O174 1.235 1_556 S
O178 Co168 2.021 1_554 S
O178 C175 1.238 . S
O179 Co173 2.052 . S
O179 C175 1.241 . S
O180 Co168 2.137 . S
O180 C171 1.247 . S
O181 Co168 2.244 1_554 S
O181 C171 1.272 1_554 S
O181 Co173 2.135 . S
Co182 O183 2.216 . S
Co182 O184 2.091 . S
Co182 O186 2.004 . S
Co182 O192 2.021 . S
Co182 O194 2.137 . S
Co182 O195 2.244 . S
O183 Co182 2.216 . S
O183 C190 1.247 . S
O184 Co182 2.091 . S
O184 C190 1.261 . S
C185 O194 1.247 . S
C185 O195 1.272 . S
O186 Co182 2.004 . S
O186 C191 1.259 . S
Co187 O188 2.061 . S
Co187 O193 2.052 . S
Co187 O195 2.135 . S
O188 Co187 2.061 . S
O188 C191 1.235 . S
C189 O192 1.238 . S
C189 O193 1.241 . S
C190 O183 1.247 . S
C190 O184 1.261 . S
C191 O186 1.259 . S
C191 O188 1.235 . S
O192 Co182 2.021 . S
O192 C189 1.238 . S
O193 Co187 2.052 . S
O193 C189 1.241 . S
O194 Co182 2.137 . S
O194 C185 1.247 . S
O195 Co182 2.244 . S
O195 C185 1.272 . S
O195 Co187 2.135 . S
Co196 O197 2.216 . S
Co196 O198 2.091 . S
Co196 O200 2.004 . S
Co196 O206 2.021 . S
Co196 O208 2.137 . S
Co196 O209 2.244 . S
O197 Co196 2.216 . S
O197 C204 1.247 . S
O198 Co196 2.091 . S
O198 C204 1.261 . S
C199 O208 1.247 . S
C199 O209 1.272 . S
O200 Co196 2.004 . S
O200 C205 1.259 . S
Co201 O202 2.061 . S
Co201 O207 2.052 . S
Co201 O209 2.135 . S
O202 Co201 2.061 . S
O202 C205 1.235 . S
C203 O206 1.238 . S
C203 O207 1.241 . S
C204 O197 1.247 . S
C204 O198 1.261 . S
C205 O200 1.259 . S
C205 O202 1.235 . S
O206 Co196 2.021 . S
O206 C203 1.238 . S
O207 Co201 2.052 . S
O207 C203 1.241 . S
O208 Co196 2.137 . S
O208 C199 1.247 . S
O209 Co196 2.244 . S
O209 C199 1.272 . S
O209 Co201 2.135 . S
Co210 O211 2.216 . S
Co210 O212 2.091 . S
Co210 O214 2.004 . S
Co210 O220 2.021 . S
Co210 O222 2.137 . S
Co210 O223 2.244 . S
O211 Co210 2.216 . S
O211 C218 1.247 . S
O212 Co210 2.091 . S
O212 C218 1.261 . S
C213 O222 1.247 . S
C213 O223 1.272 . S
O214 Co210 2.004 . S
O214 C219 1.259 . S
Co215 O216 2.061 . S
Co215 O221 2.052 . S
Co215 O223 2.135 . S
O216 Co215 2.061 . S
O216 C219 1.235 . S
C217 O220 1.238 . S
C217 O221 1.241 . S
C218 O211 1.247 . S
C218 O212 1.261 . S
C219 O214 1.259 . S
C219 O216 1.235 . S
O220 Co210 2.021 . S
O220 C217 1.238 . S
O221 Co215 2.052 . S
O221 C217 1.241 . S
O222 Co210 2.137 . S
O222 C213 1.247 . S
O223 Co210 2.244 . S
O223 C213 1.272 . S
O223 Co215 2.135 . S
H224 C242 0.951 . S
H225 C244 0.951 . S
H226 C246 0.950 . S
H227 C247 0.950 . S
H228 C249 0.950 . S
H229 C252 0.950 . S
H230 C253 0.950 . S
H231 C255 0.950 . S
H232 C256 0.950 . S
H233 C257 0.951 . S
H234 C259 0.951 . S
H235 C261 0.950 . S
H236 C262 0.950 1_565 S
H237 C264 0.950 . S
H238 C267 0.950 . S
H239 C268 0.950 . S
H240 C270 0.950 . S
H241 C271 0.950 . S
C242 H224 0.951 . S
C242 C243 1.366 . S
C242 C244 1.388 . S
C243 C242 1.366 . S
C243 C247 1.385 . S
C244 H225 0.951 . S
C244 C242 1.388 . S
C244 C245 1.366 . S
C245 C244 1.366 . S
C245 C246 1.414 . S
C245 C248 1.499 . S
C246 H226 0.950 . S
C246 C245 1.414 . S
C246 C247 1.374 . S
C247 H227 0.950 . S
C247 C243 1.385 . S
C247 C246 1.374 . S
C248 C245 1.499 . S
C248 C249 1.373 . S
C248 C250 1.389 . S
C249 H228 0.950 . S
C249 C248 1.373 . S
C249 C265 1.377 . S
C250 C248 1.389 . S
C250 C251 1.524 . S
C250 C264 1.377 . S
C251 C250 1.524 . S
C251 C252 1.397 . S
C251 C256 1.363 . S
C252 H229 0.950 . S
C252 C251 1.397 . S
C252 C253 1.334 . S
C253 H230 0.950 . S
C253 C252 1.334 . S
C253 C254 1.287 . S
C254 C253 1.287 . S
C254 C255 1.524 . S
C254 H273 0.913 . S
C255 H231 0.950 . S
C255 C254 1.524 . S
C255 C256 1.415 . S
C256 H232 0.950 . S
C256 C251 1.363 . S
C256 C255 1.415 . S
C257 H233 0.951 . S
C257 C258 1.366 . S
C257 C259 1.388 . S
C258 C257 1.366 . S
C258 C262 1.385 . S
C259 H234 0.951 . S
C259 C257 1.388 . S
C259 C260 1.366 . S
C260 C259 1.366 . S
C260 C261 1.414 . S
C260 C263 1.499 . S
C261 H235 0.950 . S
C261 C260 1.414 . S
C261 C262 1.374 . S
C262 H236 0.950 1_545 S
C262 C258 1.385 . S
C262 C261 1.374 . S
C263 C260 1.499 . S
C263 C264 1.373 . S
C263 C265 1.389 . S
C264 H237 0.950 . S
C264 C250 1.377 . S
C264 C263 1.373 . S
C265 C249 1.377 . S
C265 C263 1.389 . S
C265 C266 1.524 . S
C266 C265 1.524 . S
C266 C267 1.397 . S
C266 C271 1.363 . S
C267 H238 0.950 . S
C267 C266 1.397 . S
C267 C268 1.334 . S
C268 H239 0.950 . S
C268 C267 1.334 . S
C268 C269 1.287 . S
C269 C268 1.287 . S
C269 C270 1.524 . S
C269 H272 0.999 1_455 S
C270 H240 0.950 . S
C270 C269 1.524 . S
C270 C271 1.415 . S
C271 H241 0.950 . S
C271 C266 1.363 . S
C271 C270 1.415 . S
H272 C269 0.999 1_655 S
H273 C254 0.913 . S
H274 C292 0.951 . S
H275 C294 0.951 . S
H276 C296 0.950 . S
H277 C297 0.950 1_545 S
H278 C299 0.950 . S
H279 C302 0.950 . S
H280 C303 0.950 . S
H281 C305 0.950 . S
H282 C306 0.950 . S
H283 C307 0.951 . S
H284 C309 0.951 . S
H285 C311 0.950 . S
H286 C312 0.950 . S
H287 C314 0.950 . S
H288 C317 0.950 . S
H289 C318 0.950 . S
H290 C320 0.950 . S
H291 C321 0.950 . S
C292 H274 0.951 . S
C292 C293 1.366 . S
C292 C294 1.388 . S
C293 C292 1.366 . S
C293 C297 1.385 . S
C294 H275 0.951 . S
C294 C292 1.388 . S
C294 C295 1.366 . S
C295 C294 1.366 . S
C295 C296 1.414 . S
C295 C298 1.499 . S
C296 H276 0.950 . S
C296 C295 1.414 . S
C296 C297 1.374 . S
C297 H277 0.950 1_565 S
C297 C293 1.385 . S
C297 C296 1.374 . S
C298 C295 1.499 . S
C298 C299 1.373 . S
C298 C300 1.389 . S
C299 H278 0.950 . S
C299 C298 1.373 . S
C299 C315 1.377 . S
C300 C298 1.389 . S
C300 C301 1.524 . S
C300 C314 1.377 . S
C301 C300 1.524 . S
C301 C302 1.397 . S
C301 C306 1.363 . S
C302 H279 0.950 . S
C302 C301 1.397 . S
C302 C303 1.334 . S
C303 H280 0.950 . S
C303 C302 1.334 . S
C303 C304 1.287 . S
C304 C303 1.287 . S
C304 C305 1.524 . S
C304 H323 0.913 . S
C305 H281 0.950 . S
C305 C304 1.524 . S
C305 C306 1.415 . S
C306 H282 0.950 . S
C306 C301 1.363 . S
C306 C305 1.415 . S
C307 H283 0.951 . S
C307 C308 1.366 . S
C307 C309 1.388 . S
C308 C307 1.366 . S
C308 C312 1.385 . S
C309 H284 0.951 . S
C309 C307 1.388 . S
C309 C310 1.366 . S
C310 C309 1.366 . S
C310 C311 1.414 . S
C310 C313 1.499 . S
C311 H285 0.950 . S
C311 C310 1.414 . S
C311 C312 1.374 . S
C312 H286 0.950 . S
C312 C308 1.385 . S
C312 C311 1.374 . S
C313 C310 1.499 . S
C313 C314 1.373 . S
C313 C315 1.389 . S
C314 H287 0.950 . S
C314 C300 1.377 . S
C314 C313 1.373 . S
C315 C299 1.377 . S
C315 C313 1.389 . S
C315 C316 1.524 . S
C316 C315 1.524 . S
C316 C317 1.397 . S
C316 C321 1.363 . S
C317 H288 0.950 . S
C317 C316 1.397 . S
C317 C318 1.334 . S
C318 H289 0.950 . S
C318 C317 1.334 . S
C318 C319 1.287 . S
C319 C318 1.287 . S
C319 C320 1.524 . S
C319 H322 0.999 . S
C320 H290 0.950 . S
C320 C319 1.524 . S
C320 C321 1.415 . S
C321 H291 0.950 . S
C321 C316 1.363 . S
C321 C320 1.415 . S
H322 C319 0.999 . S
H323 C304 0.913 . S
H324 C342 0.951 . S
H325 C344 0.951 . S
H326 C346 0.950 . S
H327 C347 0.950 1_545 S
H328 C349 0.950 . S
H329 C352 0.950 . S
H330 C353 0.950 . S
H331 C355 0.950 . S
H332 C356 0.950 . S
H333 C357 0.951 . S
H334 C359 0.951 . S
H335 C361 0.950 . S
H336 C362 0.950 . S
H337 C364 0.950 . S
H338 C367 0.950 . S
H339 C368 0.950 . S
H340 C370 0.950 . S
H341 C371 0.950 . S
C342 H324 0.951 . S
C342 C343 1.366 . S
C342 C344 1.388 . S
C343 C342 1.366 . S
C343 C347 1.385 . S
C344 H325 0.951 . S
C344 C342 1.388 . S
C344 C345 1.366 . S
C345 C344 1.366 . S
C345 C346 1.414 . S
C345 C348 1.499 . S
C346 H326 0.950 . S
C346 C345 1.414 . S
C346 C347 1.374 . S
C347 H327 0.950 1_565 S
C347 C343 1.385 . S
C347 C346 1.374 . S
C348 C345 1.499 . S
C348 C349 1.373 . S
C348 C350 1.389 . S
C349 H328 0.950 . S
C349 C348 1.373 . S
C349 C365 1.377 . S
C350 C348 1.389 . S
C350 C351 1.524 . S
C350 C364 1.377 . S
C351 C350 1.524 . S
C351 C352 1.397 . S
C351 C356 1.363 . S
C352 H329 0.950 . S
C352 C351 1.397 . S
C352 C353 1.334 . S
C353 H330 0.950 . S
C353 C352 1.334 . S
C353 C354 1.287 . S
C354 C353 1.287 . S
C354 C355 1.524 . S
C354 H373 0.913 . S
C355 H331 0.950 . S
C355 C354 1.524 . S
C355 C356 1.415 . S
C356 H332 0.950 . S
C356 C351 1.363 . S
C356 C355 1.415 . S
C357 H333 0.951 . S
C357 C358 1.366 . S
C357 C359 1.388 . S
C358 C357 1.366 . S
C358 C362 1.385 . S
C359 H334 0.951 . S
C359 C357 1.388 . S
C359 C360 1.366 . S
C360 C359 1.366 . S
C360 C361 1.414 . S
C360 C363 1.499 . S
C361 H335 0.950 . S
C361 C360 1.414 . S
C361 C362 1.374 . S
C362 H336 0.950 . S
C362 C358 1.385 . S
C362 C361 1.374 . S
C363 C360 1.499 . S
C363 C364 1.373 . S
C363 C365 1.389 . S
C364 H337 0.950 . S
C364 C350 1.377 . S
C364 C363 1.373 . S
C365 C349 1.377 . S
C365 C363 1.389 . S
C365 C366 1.524 . S
C366 C365 1.524 . S
C366 C367 1.397 . S
C366 C371 1.363 . S
C367 H338 0.950 . S
C367 C366 1.397 . S
C367 C368 1.334 . S
C368 H339 0.950 . S
C368 C367 1.334 . S
C368 C369 1.287 . S
C369 C368 1.287 . S
C369 C370 1.524 . S
C369 H372 0.999 . S
C370 H340 0.950 . S
C370 C369 1.524 . S
C370 C371 1.415 . S
C371 H341 0.950 . S
C371 C366 1.363 . S
C371 C370 1.415 . S
H372 C369 0.999 . S
H373 C354 0.913 . S
H374 C392 0.951 1_565 S
H375 C394 0.951 . S
H376 C396 0.950 . S
H377 C397 0.950 . S
H378 C399 0.950 . S
H379 C402 0.950 . S
H380 C403 0.950 . S
H381 C405 0.950 . S
H382 C406 0.950 . S
H383 C407 0.951 . S
H384 C409 0.951 . S
H385 C411 0.950 . S
H386 C412 0.950 . S
H387 C414 0.950 . S
H388 C417 0.950 . S
H389 C418 0.950 . S
H390 C420 0.950 . S
H391 C421 0.950 . S
C392 H374 0.951 1_545 S
C392 C393 1.366 . S
C392 C394 1.388 . S
C393 C392 1.366 . S
C393 C397 1.385 . S
C394 H375 0.951 . S
C394 C392 1.388 . S
C394 C395 1.366 . S
C395 C394 1.366 . S
C395 C396 1.414 . S
C395 C398 1.499 . S
C396 H376 0.950 . S
C396 C395 1.414 . S
C396 C397 1.374 . S
C397 H377 0.950 . S
C397 C393 1.385 . S
C397 C396 1.374 . S
C398 C395 1.499 . S
C398 C399 1.373 . S
C398 C400 1.389 . S
C399 H378 0.950 . S
C399 C398 1.373 . S
C399 C415 1.377 . S
C400 C398 1.389 . S
C400 C401 1.524 . S
C400 C414 1.377 . S
C401 C400 1.524 . S
C401 C402 1.397 . S
C401 C406 1.363 . S
C402 H379 0.950 . S
C402 C401 1.397 . S
C402 C403 1.334 . S
C403 H380 0.950 . S
C403 C402 1.334 . S
C403 C404 1.287 . S
C404 C403 1.287 . S
C404 C405 1.524 . S
C404 H423 0.913 . S
C405 H381 0.950 . S
C405 C404 1.524 . S
C405 C406 1.415 . S
C406 H382 0.950 . S
C406 C401 1.363 . S
C406 C405 1.415 . S
C407 H383 0.951 . S
C407 C408 1.366 . S
C407 C409 1.388 . S
C408 C407 1.366 . S
C408 C412 1.385 . S
C409 H384 0.951 . S
C409 C407 1.388 . S
C409 C410 1.366 . S
C410 C409 1.366 . S
C410 C411 1.414 . S
C410 C413 1.499 . S
C411 H385 0.950 . S
C411 C410 1.414 . S
C411 C412 1.374 . S
C412 H386 0.950 . S
C412 C408 1.385 . S
C412 C411 1.374 . S
C413 C410 1.499 . S
C413 C414 1.373 . S
C413 C415 1.389 . S
C414 H387 0.950 . S
C414 C400 1.377 . S
C414 C413 1.373 . S
C415 C399 1.377 . S
C415 C413 1.389 . S
C415 C416 1.524 . S
C416 C415 1.524 . S
C416 C417 1.397 . S
C416 C421 1.363 . S
C417 H388 0.950 . S
C417 C416 1.397 . S
C417 C418 1.334 . S
C418 H389 0.950 . S
C418 C417 1.334 . S
C418 C419 1.287 . S
C419 C418 1.287 . S
C419 C420 1.524 . S
C419 H422 0.999 . S
C420 H390 0.950 . S
C420 C419 1.524 . S
C420 C421 1.415 . S
C421 H391 0.950 . S
C421 C416 1.363 . S
C421 C420 1.415 . S
H422 C419 0.999 . S
H423 C404 0.913 . S
H424 C442 0.951 . S
H425 C444 0.951 . S
H426 C446 0.950 . S
H427 C447 0.950 . S
H428 C449 0.950 . S
H429 C452 0.950 . S
H430 C453 0.950 . S
H431 C455 0.950 . S
H432 C456 0.950 . S
H433 C457 0.951 . S
H434 C459 0.951 . S
H435 C461 0.950 . S
H436 C462 0.950 . S
H437 C464 0.950 . S
H438 C467 0.950 . S
H439 C468 0.950 . S
H440 C470 0.950 1_554 S
H441 C471 0.950 . S
C442 H424 0.951 . S
C442 C443 1.366 . S
C442 C444 1.388 . S
C443 C442 1.366 . S
C443 C447 1.385 . S
C444 H425 0.951 . S
C444 C442 1.388 . S
C444 C445 1.366 . S
C445 C444 1.366 . S
C445 C446 1.414 . S
C445 C448 1.499 . S
C446 H426 0.950 . S
C446 C445 1.414 . S
C446 C447 1.374 . S
C447 H427 0.950 . S
C447 C443 1.385 . S
C447 C446 1.374 . S
C448 C445 1.499 . S
C448 C449 1.373 . S
C448 C450 1.389 . S
C449 H428 0.950 . S
C449 C448 1.373 . S
C449 C465 1.377 . S
C450 C448 1.389 . S
C450 C451 1.524 . S
C450 C464 1.377 . S
C451 C450 1.524 . S
C451 C452 1.397 . S
C451 C456 1.363 . S
C452 H429 0.950 . S
C452 C451 1.397 . S
C452 C453 1.334 . S
C453 H430 0.950 . S
C453 C452 1.334 . S
C453 C454 1.287 . S
C454 C453 1.287 . S
C454 C455 1.524 . S
C454 H473 0.913 . S
C455 H431 0.950 . S
C455 C454 1.524 . S
C455 C456 1.415 . S
C456 H432 0.950 . S
C456 C451 1.363 . S
C456 C455 1.415 . S
C457 H433 0.951 . S
C457 C458 1.366 . S
C457 C459 1.388 . S
C458 C457 1.366 . S
C458 C462 1.385 . S
C459 H434 0.951 . S
C459 C457 1.388 . S
C459 C460 1.366 . S
C460 C459 1.366 . S
C460 C461 1.414 . S
C460 C463 1.499 . S
C461 H435 0.950 . S
C461 C460 1.414 . S
C461 C462 1.374 . S
C462 H436 0.950 . S
C462 C458 1.385 . S
C462 C461 1.374 . S
C463 C460 1.499 . S
C463 C464 1.373 . S
C463 C465 1.389 . S
C464 H437 0.950 . S
C464 C450 1.377 . S
C464 C463 1.373 . S
C465 C449 1.377 . S
C465 C463 1.389 . S
C465 C466 1.524 . S
C466 C465 1.524 . S
C466 C467 1.397 . S
C466 C471 1.363 . S
C467 H438 0.950 . S
C467 C466 1.397 . S
C467 C468 1.334 . S
C468 H439 0.950 . S
C468 C467 1.334 . S
C468 C469 1.287 1_556 S
C469 C468 1.287 1_554 S
C469 C470 1.524 1_554 S
C469 H472 0.999 . S
C470 H440 0.950 1_556 S
C470 C469 1.524 1_556 S
C470 C471 1.415 . S
C471 H441 0.950 . S
C471 C466 1.363 . S
C471 C470 1.415 . S
H472 C469 0.999 . S
H473 C454 0.913 . S
H474 C492 0.951 . S
H475 C494 0.951 . S
H476 C496 0.950 . S
H477 C497 0.950 . S
H478 C499 0.950 . S
H479 C502 0.950 . S
H480 C503 0.950 1_556 S
H481 C505 0.950 . S
H482 C506 0.950 . S
H483 C507 0.951 . S
H484 C509 0.951 . S
H485 C511 0.950 . S
H486 C512 0.950 . S
H487 C514 0.950 . S
H488 C517 0.950 . S
H489 C518 0.950 . S
H490 C520 0.950 . S
H491 C521 0.950 . S
C492 H474 0.951 . S
C492 C493 1.366 . S
C492 C494 1.388 . S
C493 C492 1.366 . S
C493 C497 1.385 . S
C494 H475 0.951 . S
C494 C492 1.388 . S
C494 C495 1.366 . S
C495 C494 1.366 . S
C495 C496 1.414 . S
C495 C498 1.499 . S
C496 H476 0.950 . S
C496 C495 1.414 . S
C496 C497 1.374 . S
C497 H477 0.950 . S
C497 C493 1.385 . S
C497 C496 1.374 . S
C498 C495 1.499 . S
C498 C499 1.373 . S
C498 C500 1.389 . S
C499 H478 0.950 . S
C499 C498 1.373 . S
C499 C515 1.377 . S
C500 C498 1.389 . S
C500 C501 1.524 . S
C500 C514 1.377 . S
C501 C500 1.524 . S
C501 C502 1.397 . S
C501 C506 1.363 . S
C502 H479 0.950 . S
C502 C501 1.397 . S
C502 C503 1.334 . S
C503 H480 0.950 1_554 S
C503 C502 1.334 . S
C503 C504 1.287 1_554 S
C504 C503 1.287 1_556 S
C504 C505 1.524 1_556 S
C504 H523 0.913 . S
C505 H481 0.950 . S
C505 C504 1.524 1_554 S
C505 C506 1.415 . S
C506 H482 0.950 . S
C506 C501 1.363 . S
C506 C505 1.415 . S
C507 H483 0.951 . S
C507 C508 1.366 . S
C507 C509 1.388 . S
C508 C507 1.366 . S
C508 C512 1.385 . S
C509 H484 0.951 . S
C509 C507 1.388 . S
C509 C510 1.366 . S
C510 C509 1.366 . S
C510 C511 1.414 . S
C510 C513 1.499 . S
C511 H485 0.950 . S
C511 C510 1.414 . S
C511 C512 1.374 . S
C512 H486 0.950 . S
C512 C508 1.385 . S
C512 C511 1.374 . S
C513 C510 1.499 . S
C513 C514 1.373 . S
C513 C515 1.389 . S
C514 H487 0.950 . S
C514 C500 1.377 . S
C514 C513 1.373 . S
C515 C499 1.377 . S
C515 C513 1.389 . S
C515 C516 1.524 . S
C516 C515 1.524 . S
C516 C517 1.397 . S
C516 C521 1.363 . S
C517 H488 0.950 . S
C517 C516 1.397 . S
C517 C518 1.334 . S
C518 H489 0.950 . S
C518 C517 1.334 . S
C518 C519 1.287 . S
C519 C518 1.287 . S
C519 C520 1.524 . S
C519 H522 0.999 . S
C520 H490 0.950 . S
C520 C519 1.524 . S
C520 C521 1.415 . S
C521 H491 0.950 . S
C521 C516 1.363 . S
C521 C520 1.415 . S
H522 C519 0.999 . S
H523 C504 0.913 . S
H524 C542 0.951 . S
H525 C544 0.951 . S
H526 C546 0.950 . S
H527 C547 0.950 . S
H528 C549 0.950 . S
H529 C552 0.950 . S
H530 C553 0.950 . S
H531 C555 0.950 . S
H532 C556 0.950 . S
H533 C557 0.951 . S
H534 C559 0.951 . S
H535 C561 0.950 . S
H536 C562 0.950 . S
H537 C564 0.950 . S
H538 C567 0.950 . S
H539 C568 0.950 . S
H540 C570 0.950 . S
H541 C571 0.950 . S
C542 H524 0.951 . S
C542 C543 1.366 . S
C542 C544 1.388 . S
C543 C542 1.366 . S
C543 C547 1.385 . S
C544 H525 0.951 . S
C544 C542 1.388 . S
C544 C545 1.366 . S
C545 C544 1.366 . S
C545 C546 1.414 . S
C545 C548 1.499 . S
C546 H526 0.950 . S
C546 C545 1.414 . S
C546 C547 1.374 . S
C547 H527 0.950 . S
C547 C543 1.385 . S
C547 C546 1.374 . S
C548 C545 1.499 . S
C548 C549 1.373 . S
C548 C550 1.389 . S
C549 H528 0.950 . S
C549 C548 1.373 . S
C549 C565 1.377 . S
C550 C548 1.389 . S
C550 C551 1.524 . S
C550 C564 1.377 . S
C551 C550 1.524 . S
C551 C552 1.397 . S
C551 C556 1.363 . S
C552 H529 0.950 . S
C552 C551 1.397 . S
C552 C553 1.334 . S
C553 H530 0.950 . S
C553 C552 1.334 . S
C553 C554 1.287 . S
C554 C553 1.287 . S
C554 C555 1.524 . S
C554 H573 0.913 . S
C555 H531 0.950 . S
C555 C554 1.524 . S
C555 C556 1.415 . S
C556 H532 0.950 . S
C556 C551 1.363 . S
C556 C555 1.415 . S
C557 H533 0.951 . S
C557 C558 1.366 . S
C557 C559 1.388 . S
C558 C557 1.366 . S
C558 C562 1.385 . S
C559 H534 0.951 . S
C559 C557 1.388 . S
C559 C560 1.366 . S
C560 C559 1.366 . S
C560 C561 1.414 . S
C560 C563 1.499 . S
C561 H535 0.950 . S
C561 C560 1.414 . S
C561 C562 1.374 . S
C562 H536 0.950 . S
C562 C558 1.385 . S
C562 C561 1.374 . S
C563 C560 1.499 . S
C563 C564 1.373 . S
C563 C565 1.389 . S
C564 H537 0.950 . S
C564 C550 1.377 . S
C564 C563 1.373 . S
C565 C549 1.377 . S
C565 C563 1.389 . S
C565 C566 1.524 . S
C566 C565 1.524 . S
C566 C567 1.397 . S
C566 C571 1.363 . S
C567 H538 0.950 . S
C567 C566 1.397 . S
C567 C568 1.334 . S
C568 H539 0.950 . S
C568 C567 1.334 . S
C568 C569 1.287 . S
C569 C568 1.287 . S
C569 C570 1.524 . S
C569 H572 0.999 . S
C570 H540 0.950 . S
C570 C569 1.524 . S
C570 C571 1.415 . S
C571 H541 0.950 . S
C571 C566 1.363 . S
C571 C570 1.415 . S
H572 C569 0.999 . S
H573 C554 0.913 . S
H574 C592 0.951 . S
H575 C594 0.951 . S
H576 C596 0.950 . S
H577 C597 0.950 . S
H578 C599 0.950 . S
H579 C602 0.950 . S
H580 C603 0.950 . S
H581 C605 0.950 . S
H582 C606 0.950 . S
H583 C607 0.951 . S
H584 C609 0.951 . S
H585 C611 0.950 . S
H586 C612 0.950 . S
H587 C614 0.950 . S
H588 C617 0.950 . S
H589 C618 0.950 . S
H590 C620 0.950 . S
H591 C621 0.950 . S
C592 H574 0.951 . S
C592 C593 1.366 . S
C592 C594 1.388 . S
C593 C592 1.366 . S
C593 C597 1.385 . S
C594 H575 0.951 . S
C594 C592 1.388 . S
C594 C595 1.366 . S
C595 C594 1.366 . S
C595 C596 1.414 . S
C595 C598 1.499 . S
C596 H576 0.950 . S
C596 C595 1.414 . S
C596 C597 1.374 . S
C597 H577 0.950 . S
C597 C593 1.385 . S
C597 C596 1.374 . S
C598 C595 1.499 . S
C598 C599 1.373 . S
C598 C600 1.389 . S
C599 H578 0.950 . S
C599 C598 1.373 . S
C599 C615 1.377 . S
C600 C598 1.389 . S
C600 C601 1.524 . S
C600 C614 1.377 . S
C601 C600 1.524 . S
C601 C602 1.397 . S
C601 C606 1.363 . S
C602 H579 0.950 . S
C602 C601 1.397 . S
C602 C603 1.334 . S
C603 H580 0.950 . S
C603 C602 1.334 . S
C603 C604 1.287 . S
C604 C603 1.287 . S
C604 C605 1.524 . S
C604 H623 0.913 . S
C605 H581 0.950 . S
C605 C604 1.524 . S
C605 C606 1.415 . S
C606 H582 0.950 . S
C606 C601 1.363 . S
C606 C605 1.415 . S
C607 H583 0.951 . S
C607 C608 1.366 . S
C607 C609 1.388 . S
C608 C607 1.366 . S
C608 C612 1.385 . S
C609 H584 0.951 . S
C609 C607 1.388 . S
C609 C610 1.366 . S
C610 C609 1.366 . S
C610 C611 1.414 . S
C610 C613 1.499 . S
C611 H585 0.950 . S
C611 C610 1.414 . S
C611 C612 1.374 . S
C612 H586 0.950 . S
C612 C608 1.385 . S
C612 C611 1.374 . S
C613 C610 1.499 . S
C613 C614 1.373 . S
C613 C615 1.389 . S
C614 H587 0.950 . S
C614 C600 1.377 . S
C614 C613 1.373 . S
C615 C599 1.377 . S
C615 C613 1.389 . S
C615 C616 1.524 . S
C616 C615 1.524 . S
C616 C617 1.397 . S
C616 C621 1.363 . S
C617 H588 0.950 . S
C617 C616 1.397 . S
C617 C618 1.334 . S
C618 H589 0.950 . S
C618 C617 1.334 . S
C618 C619 1.287 . S
C619 C618 1.287 . S
C619 C620 1.524 . S
C619 H622 0.999 . S
C620 H590 0.950 . S
C620 C619 1.524 . S
C620 C621 1.415 . S
C621 H591 0.950 . S
C621 C616 1.363 . S
C621 C620 1.415 . S
H622 C619 0.999 . S
H623 C604 0.913 . S
H624 C642 0.951 . S
H625 C644 0.951 . S
H626 C646 0.950 . S
H627 C647 0.950 . S
H628 C649 0.950 . S
H629 C652 0.950 . S
H630 C653 0.950 . S
H631 C655 0.950 . S
H632 C656 0.950 . S
H633 C657 0.951 . S
H634 C659 0.951 . S
H635 C661 0.950 . S
H636 C662 0.950 . S
H637 C664 0.950 . S
H638 C667 0.950 . S
H639 C668 0.950 . S
H640 C670 0.950 . S
H641 C671 0.950 . S
C642 H624 0.951 . S
C642 C643 1.366 . S
C642 C644 1.388 . S
C643 C642 1.366 . S
C643 C647 1.385 . S
C644 H625 0.951 . S
C644 C642 1.388 . S
C644 C645 1.366 . S
C645 C644 1.366 . S
C645 C646 1.414 . S
C645 C648 1.499 . S
C646 H626 0.950 . S
C646 C645 1.414 . S
C646 C647 1.374 . S
C647 H627 0.950 . S
C647 C643 1.385 . S
C647 C646 1.374 . S
C648 C645 1.499 . S
C648 C649 1.373 . S
C648 C650 1.389 . S
C649 H628 0.950 . S
C649 C648 1.373 . S
C649 C665 1.377 . S
C650 C648 1.389 . S
C650 C651 1.524 . S
C650 C664 1.377 . S
C651 C650 1.524 . S
C651 C652 1.397 . S
C651 C656 1.363 . S
C652 H629 0.950 . S
C652 C651 1.397 . S
C652 C653 1.334 . S
C653 H630 0.950 . S
C653 C652 1.334 . S
C653 C654 1.287 . S
C654 C653 1.287 . S
C654 C655 1.524 . S
C654 H673 0.913 . S
C655 H631 0.950 . S
C655 C654 1.524 . S
C655 C656 1.415 . S
C656 H632 0.950 . S
C656 C651 1.363 . S
C656 C655 1.415 . S
C657 H633 0.951 . S
C657 C658 1.366 . S
C657 C659 1.388 . S
C658 C657 1.366 . S
C658 C662 1.385 . S
C659 H634 0.951 . S
C659 C657 1.388 . S
C659 C660 1.366 . S
C660 C659 1.366 . S
C660 C661 1.414 . S
C660 C663 1.499 . S
C661 H635 0.950 . S
C661 C660 1.414 . S
C661 C662 1.374 . S
C662 H636 0.950 . S
C662 C658 1.385 . S
C662 C661 1.374 . S
C663 C660 1.499 . S
C663 C664 1.373 . S
C663 C665 1.389 . S
C664 H637 0.950 . S
C664 C650 1.377 . S
C664 C663 1.373 . S
C665 C649 1.377 . S
C665 C663 1.389 . S
C665 C666 1.524 . S
C666 C665 1.524 . S
C666 C667 1.397 . S
C666 C671 1.363 . S
C667 H638 0.950 . S
C667 C666 1.397 . S
C667 C668 1.334 . S
C668 H639 0.950 . S
C668 C667 1.334 . S
C668 C669 1.287 . S
C669 C668 1.287 . S
C669 C670 1.524 . S
C669 H672 0.999 . S
C670 H640 0.950 . S
C670 C669 1.524 . S
C670 C671 1.415 . S
C671 H641 0.950 . S
C671 C666 1.363 . S
C671 C670 1.415 . S
H672 C669 0.999 . S
H673 C654 0.913 . S
H674 C692 0.951 . S
H675 C694 0.951 . S
H676 C696 0.950 . S
H677 C697 0.950 . S
H678 C699 0.950 . S
H679 C702 0.950 . S
H680 C703 0.950 . S
H681 C705 0.950 . S
H682 C706 0.950 . S
H683 C707 0.951 . S
H684 C709 0.951 . S
H685 C711 0.950 . S
H686 C712 0.950 . S
H687 C714 0.950 . S
H688 C717 0.950 . S
H689 C718 0.950 . S
H690 C720 0.950 . S
H691 C721 0.950 . S
C692 H674 0.951 . S
C692 C693 1.366 1_565 S
C692 C694 1.388 . S
C693 C692 1.366 1_545 S
C693 C697 1.385 . S
C694 H675 0.951 . S
C694 C692 1.388 . S
C694 C695 1.366 1_565 S
C695 C694 1.366 1_545 S
C695 C696 1.414 . S
C695 C698 1.499 . S
C696 H676 0.950 . S
C696 C695 1.414 . S
C696 C697 1.374 . S
C697 H677 0.950 . S
C697 C693 1.385 . S
C697 C696 1.374 . S
C698 C695 1.499 . S
C698 C699 1.373 . S
C698 C700 1.389 1_545 S
C699 H678 0.950 . S
C699 C698 1.373 . S
C699 C715 1.377 . S
C700 C698 1.389 1_565 S
C700 C701 1.524 1_655 S
C700 C714 1.377 . S
C701 C700 1.524 1_455 S
C701 C702 1.397 . S
C701 C706 1.363 1_455 S
C702 H679 0.950 . S
C702 C701 1.397 . S
C702 C703 1.334 . S
C703 H680 0.950 . S
C703 C702 1.334 . S
C703 C704 1.287 . S
C704 C703 1.287 . S
C704 C705 1.524 . S
C704 H723 0.913 . S
C705 H681 0.950 . S
C705 C704 1.524 . S
C705 C706 1.415 1_455 S
C706 H682 0.950 . S
C706 C701 1.363 1_655 S
C706 C705 1.415 1_655 S
C707 H683 0.951 . S
C707 C708 1.366 1_545 S
C707 C709 1.388 . S
C708 C707 1.366 1_565 S
C708 C712 1.385 . S
C709 H684 0.951 . S
C709 C707 1.388 . S
C709 C710 1.366 1_545 S
C710 C709 1.366 1_565 S
C710 C711 1.414 . S
C710 C713 1.499 . S
C711 H685 0.950 . S
C711 C710 1.414 . S
C711 C712 1.374 . S
C712 H686 0.950 . S
C712 C708 1.385 . S
C712 C711 1.374 . S
C713 C710 1.499 . S
C713 C714 1.373 . S
C713 C715 1.389 1_565 S
C714 H687 0.950 . S
C714 C700 1.377 . S
C714 C713 1.373 . S
C715 C699 1.377 . S
C715 C713 1.389 1_545 S
C715 C716 1.524 . S
C716 C715 1.524 . S
C716 C717 1.397 . S
C716 C721 1.363 . S
C717 H688 0.950 . S
C717 C716 1.397 . S
C717 C718 1.334 . S
C718 H689 0.950 . S
C718 C717 1.334 . S
C718 C719 1.287 . S
C719 C718 1.287 . S
C719 C720 1.524 . S
C719 H722 0.999 . S
C720 H690 0.950 . S
C720 C719 1.524 . S
C720 C721 1.415 . S
C721 H691 0.950 . S
C721 C716 1.363 . S
C721 C720 1.415 . S
H722 C719 0.999 . S
H723 C704 0.913 . S
H724 C742 0.951 . S
H725 C744 0.951 . S
H726 C746 0.950 . S
H727 C747 0.950 . S
H728 C749 0.950 . S
H729 C752 0.950 . S
H730 C753 0.950 . S
H731 C755 0.950 . S
H732 C756 0.950 . S
H733 C757 0.951 . S
H734 C759 0.951 . S
H735 C761 0.950 . S
H736 C762 0.950 . S
H737 C764 0.950 . S
H738 C767 0.950 . S
H739 C768 0.950 . S
H740 C770 0.950 . S
H741 C771 0.950 . S
C742 H724 0.951 . S
C742 C743 1.366 . S
C742 C744 1.388 . S
C743 C742 1.366 . S
C743 C747 1.385 . S
C744 H725 0.951 . S
C744 C742 1.388 . S
C744 C745 1.366 . S
C745 C744 1.366 . S
C745 C746 1.414 . S
C745 C748 1.499 . S
C746 H726 0.950 . S
C746 C745 1.414 . S
C746 C747 1.374 . S
C747 H727 0.950 . S
C747 C743 1.385 . S
C747 C746 1.374 . S
C748 C745 1.499 . S
C748 C749 1.373 . S
C748 C750 1.389 . S
C749 H728 0.950 . S
C749 C748 1.373 . S
C749 C765 1.377 1_556 S
C750 C748 1.389 . S
C750 C751 1.524 . S
C750 C764 1.377 1_556 S
C751 C750 1.524 . S
C751 C752 1.397 . S
C751 C756 1.363 . S
C752 H729 0.950 . S
C752 C751 1.397 . S
C752 C753 1.334 . S
C753 H730 0.950 . S
C753 C752 1.334 . S
C753 C754 1.287 . S
C754 C753 1.287 . S
C754 C755 1.524 . S
C754 H773 0.913 . S
C755 H731 0.950 . S
C755 C754 1.524 . S
C755 C756 1.415 . S
C756 H732 0.950 . S
C756 C751 1.363 . S
C756 C755 1.415 . S
C757 H733 0.951 . S
C757 C758 1.366 . S
C757 C759 1.388 . S
C758 C757 1.366 . S
C758 C762 1.385 . S
C759 H734 0.951 . S
C759 C757 1.388 . S
C759 C760 1.366 . S
C760 C759 1.366 . S
C760 C761 1.414 . S
C760 C763 1.499 . S
C761 H735 0.950 . S
C761 C760 1.414 . S
C761 C762 1.374 . S
C762 H736 0.950 . S
C762 C758 1.385 . S
C762 C761 1.374 . S
C763 C760 1.499 . S
C763 C764 1.373 . S
C763 C765 1.389 . S
C764 H737 0.950 . S
C764 C750 1.377 1_554 S
C764 C763 1.373 . S
C765 C749 1.377 1_554 S
C765 C763 1.389 . S
C765 C766 1.524 . S
C766 C765 1.524 . S
C766 C767 1.397 . S
C766 C771 1.363 . S
C767 H738 0.950 . S
C767 C766 1.397 . S
C767 C768 1.334 . S
C768 H739 0.950 . S
C768 C767 1.334 . S
C768 C769 1.287 . S
C769 C768 1.287 . S
C769 C770 1.524 . S
C769 H772 0.999 . S
C770 H740 0.950 . S
C770 C769 1.524 . S
C770 C771 1.415 . S
C771 H741 0.950 . S
C771 C766 1.363 . S
C771 C770 1.415 . S
H772 C769 0.999 . S
H773 C754 0.913 . S
H774 C792 0.951 . S
H775 C794 0.951 . S
H776 C796 0.950 . S
H777 C797 0.950 . S
H778 C799 0.950 . S
H779 C802 0.950 . S
H780 C803 0.950 . S
H781 C805 0.950 . S
H782 C806 0.950 . S
H783 C807 0.951 . S
H784 C809 0.951 . S
H785 C811 0.950 . S
H786 C812 0.950 . S
H787 C814 0.950 . S
H788 C817 0.950 . S
H789 C818 0.950 . S
H790 C820 0.950 . S
H791 C821 0.950 . S
C792 H774 0.951 . S
C792 C793 1.366 1_545 S
C792 C794 1.388 . S
C793 C792 1.366 1_565 S
C793 C797 1.385 . S
C794 H775 0.951 . S
C794 C792 1.388 . S
C794 C795 1.361 1_545 S
C795 C794 1.361 1_565 S
C795 C796 1.421 . S
C795 C798 1.498 1_565 S
C796 H776 0.950 . S
C796 C795 1.421 . S
C796 C797 1.374 . S
C797 H777 0.950 . S
C797 C793 1.385 . S
C797 C796 1.374 . S
C798 C795 1.498 1_545 S
C798 C799 1.363 1_545 S
C798 C800 1.399 . S
C799 H778 0.950 . S
C799 C798 1.363 1_565 S
C799 C815 1.377 . S
C800 C798 1.399 . S
C800 C801 1.524 . S
C800 C814 1.377 . S
C801 C800 1.524 . S
C801 C802 1.397 . S
C801 C806 1.363 . S
C802 H779 0.950 . S
C802 C801 1.397 . S
C802 C803 1.334 . S
C803 H780 0.950 . S
C803 C802 1.334 . S
C803 C804 1.287 . S
C804 C803 1.287 . S
C804 C805 1.524 . S
C804 H823 0.913 . S
C805 H781 0.950 . S
C805 C804 1.524 . S
C805 C806 1.415 . S
C806 H782 0.950 . S
C806 C801 1.363 . S
C806 C805 1.415 . S
C807 H783 0.951 . S
C807 C808 1.366 1_565 S
C807 C809 1.388 . S
C808 C807 1.366 1_545 S
C808 C812 1.385 . S
C809 H784 0.951 . S
C809 C807 1.388 . S
C809 C810 1.361 1_565 S
C810 C809 1.361 1_545 S
C810 C811 1.421 . S
C810 C813 1.498 1_545 S
C811 H785 0.950 . S
C811 C810 1.421 . S
C811 C812 1.374 . S
C812 H786 0.950 . S
C812 C808 1.385 . S
C812 C811 1.374 . S
C813 C810 1.498 1_565 S
C813 C814 1.363 1_565 S
C813 C815 1.399 . S
C814 H787 0.950 . S
C814 C800 1.377 . S
C814 C813 1.363 1_545 S
C815 C799 1.377 . S
C815 C813 1.399 . S
C815 C816 1.524 . S
C816 C815 1.524 . S
C816 C817 1.397 . S
C816 C821 1.363 . S
C817 H788 0.950 . S
C817 C816 1.397 . S
C817 C818 1.334 . S
C818 H789 0.950 . S
C818 C817 1.334 . S
C818 C819 1.287 . S
C819 C818 1.287 . S
C819 C820 1.524 . S
C819 H822 0.999 . S
C820 H790 0.950 . S
C820 C819 1.524 . S
C820 C821 1.415 . S
C821 H791 0.950 . S
C821 C816 1.363 . S
C821 C820 1.415 . S
H822 C819 0.999 . S
H823 C804 0.913 . S
H824 C842 0.951 . S
H825 C844 0.951 . S
H826 C846 0.950 . S
H827 C847 0.950 . S
H828 C849 0.950 . S
H829 C852 0.950 . S
H830 C853 0.950 . S
H831 C855 0.950 . S
H832 C856 0.950 . S
H833 C857 0.951 . S
H834 C859 0.951 . S
H835 C861 0.950 . S
H836 C862 0.950 . S
H837 C864 0.950 . S
H838 C867 0.950 . S
H839 C868 0.950 . S
H840 C870 0.950 . S
H841 C871 0.950 . S
C842 H824 0.951 . S
C842 C843 1.366 . S
C842 C844 1.388 . S
C843 C842 1.366 . S
C843 C847 1.385 . S
C844 H825 0.951 . S
C844 C842 1.388 . S
C844 C845 1.366 . S
C845 C844 1.366 . S
C845 C846 1.414 . S
C845 C848 1.499 . S
C846 H826 0.950 . S
C846 C845 1.414 . S
C846 C847 1.374 . S
C847 H827 0.950 . S
C847 C843 1.385 . S
C847 C846 1.374 . S
C848 C845 1.499 . S
C848 C849 1.373 . S
C848 C850 1.389 . S
C849 H828 0.950 . S
C849 C848 1.373 . S
C849 C865 1.377 . S
C850 C848 1.389 . S
C850 C851 1.524 . S
C850 C864 1.377 . S
C851 C850 1.524 . S
C851 C852 1.397 . S
C851 C856 1.363 . S
C852 H829 0.950 . S
C852 C851 1.397 . S
C852 C853 1.334 . S
C853 H830 0.950 . S
C853 C852 1.334 . S
C853 C854 1.287 . S
C854 C853 1.287 . S
C854 C855 1.524 . S
C854 H873 0.913 . S
C855 H831 0.950 . S
C855 C854 1.524 . S
C855 C856 1.415 . S
C856 H832 0.950 . S
C856 C851 1.363 . S
C856 C855 1.415 . S
C857 H833 0.951 . S
C857 C858 1.366 . S
C857 C859 1.388 . S
C858 C857 1.366 . S
C858 C862 1.385 . S
C859 H834 0.951 . S
C859 C857 1.388 . S
C859 C860 1.366 . S
C860 C859 1.366 . S
C860 C861 1.414 . S
C860 C863 1.499 . S
C861 H835 0.950 . S
C861 C860 1.414 . S
C861 C862 1.374 . S
C862 H836 0.950 . S
C862 C858 1.385 . S
C862 C861 1.374 . S
C863 C860 1.499 . S
C863 C864 1.373 . S
C863 C865 1.389 . S
C864 H837 0.950 . S
C864 C850 1.377 . S
C864 C863 1.373 . S
C865 C849 1.377 . S
C865 C863 1.389 . S
C865 C866 1.524 . S
C866 C865 1.524 . S
C866 C867 1.397 . S
C866 C871 1.363 . S
C867 H838 0.950 . S
C867 C866 1.397 . S
C867 C868 1.334 . S
C868 H839 0.950 . S
C868 C867 1.334 . S
C868 C869 1.287 . S
C869 C868 1.287 . S
C869 C870 1.524 . S
C869 H872 0.999 . S
C870 H840 0.950 . S
C870 C869 1.524 . S
C870 C871 1.415 . S
C871 H841 0.950 . S
C871 C866 1.363 . S
C871 C870 1.415 . S
H872 C869 0.999 . S
H873 C854 0.913 . S
H874 C892 0.951 . S
H875 C894 0.951 . S
H876 C896 0.950 . S
H877 C897 0.950 . S
H878 C899 0.950 . S
H879 C902 0.950 . S
H880 C903 0.950 . S
H881 C905 0.950 . S
H882 C906 0.950 . S
H883 C907 0.951 . S
H884 C909 0.951 . S
H885 C911 0.950 . S
H886 C912 0.950 . S
H887 C914 0.950 . S
H888 C917 0.950 . S
H889 C918 0.950 . S
H890 C920 0.950 . S
H891 C921 0.950 . S
C892 H874 0.951 . S
C892 C893 1.366 1_655 S
C892 C894 1.388 . S
C893 C892 1.366 1_455 S
C893 C897 1.385 . S
C894 H875 0.951 . S
C894 C892 1.388 . S
C894 C895 1.366 1_655 S
C895 C894 1.366 1_455 S
C895 C896 1.414 . S
C895 C898 1.499 . S
C896 H876 0.950 . S
C896 C895 1.414 . S
C896 C897 1.374 . S
C897 H877 0.950 . S
C897 C893 1.385 . S
C897 C896 1.374 . S
C898 C895 1.499 . S
C898 C899 1.373 . S
C898 C900 1.389 1_455 S
C899 H878 0.950 . S
C899 C898 1.373 . S
C899 C915 1.377 . S
C900 C898 1.389 1_655 S
C900 C901 1.524 . S
C900 C914 1.377 . S
C901 C900 1.524 . S
C901 C902 1.397 . S
C901 C906 1.363 . S
C902 H879 0.950 . S
C902 C901 1.397 . S
C902 C903 1.334 . S
C903 H880 0.950 . S
C903 C902 1.334 . S
C903 C904 1.287 . S
C904 C903 1.287 . S
C904 C905 1.524 . S
C904 H923 0.913 . S
C905 H881 0.950 . S
C905 C904 1.524 . S
C905 C906 1.415 . S
C906 H882 0.950 . S
C906 C901 1.363 . S
C906 C905 1.415 . S
C907 H883 0.951 . S
C907 C908 1.366 1_455 S
C907 C909 1.388 . S
C908 C907 1.366 1_655 S
C908 C912 1.385 . S
C909 H884 0.951 . S
C909 C907 1.388 . S
C909 C910 1.366 1_455 S
C910 C909 1.366 1_655 S
C910 C911 1.414 . S
C910 C913 1.499 . S
C911 H885 0.950 . S
C911 C910 1.414 . S
C911 C912 1.374 . S
C912 H886 0.950 . S
C912 C908 1.385 . S
C912 C911 1.374 . S
C913 C910 1.499 . S
C913 C914 1.373 . S
C913 C915 1.389 1_655 S
C914 H887 0.950 . S
C914 C900 1.377 . S
C914 C913 1.373 . S
C915 C899 1.377 . S
C915 C913 1.389 1_455 S
C915 C916 1.524 . S
C916 C915 1.524 . S
C916 C917 1.397 . S
C916 C921 1.363 . S
C917 H888 0.950 . S
C917 C916 1.397 . S
C917 C918 1.334 . S
C918 H889 0.950 . S
C918 C917 1.334 . S
C918 C919 1.287 . S
C919 C918 1.287 . S
C919 C920 1.524 . S
C919 H922 0.999 . S
C920 H890 0.950 . S
C920 C919 1.524 . S
C920 C921 1.415 . S
C921 H891 0.950 . S
C921 C916 1.363 . S
C921 C920 1.415 . S
H922 C919 0.999 . S
H923 C904 0.913 . S
H924 C942 0.951 . S
H925 C944 0.951 . S
H926 C946 0.950 . S
H927 C947 0.950 . S
H928 C949 0.950 . S
H929 C952 0.950 . S
H930 C953 0.950 . S
H931 C955 0.950 . S
H932 C956 0.950 . S
H933 C957 0.951 . S
H934 C959 0.951 . S
H935 C961 0.950 . S
H936 C962 0.950 . S
H937 C964 0.950 . S
H938 C967 0.950 . S
H939 C968 0.950 . S
H940 C970 0.950 . S
H941 C971 0.950 . S
C942 H924 0.951 . S
C942 C943 1.366 . S
C942 C944 1.388 . S
C943 C942 1.366 . S
C943 C947 1.385 . S
C944 H925 0.951 . S
C944 C942 1.388 . S
C944 C945 1.366 . S
C945 C944 1.366 . S
C945 C946 1.414 . S
C945 C948 1.499 . S
C946 H926 0.950 . S
C946 C945 1.414 . S
C946 C947 1.374 . S
C947 H927 0.950 . S
C947 C943 1.385 . S
C947 C946 1.374 . S
C948 C945 1.499 . S
C948 C949 1.373 . S
C948 C950 1.389 . S
C949 H928 0.950 . S
C949 C948 1.373 . S
C949 C965 1.377 1_655 S
C950 C948 1.389 . S
C950 C951 1.524 . S
C950 C964 1.377 1_655 S
C951 C950 1.524 . S
C951 C952 1.397 . S
C951 C956 1.363 . S
C952 H929 0.950 . S
C952 C951 1.397 . S
C952 C953 1.334 . S
C953 H930 0.950 . S
C953 C952 1.334 . S
C953 C954 1.287 . S
C954 C953 1.287 . S
C954 C955 1.524 . S
C954 H973 0.913 . S
C955 H931 0.950 . S
C955 C954 1.524 . S
C955 C956 1.415 . S
C956 H932 0.950 . S
C956 C951 1.363 . S
C956 C955 1.415 . S
C957 H933 0.951 . S
C957 C958 1.366 . S
C957 C959 1.388 . S
C958 C957 1.366 . S
C958 C962 1.385 . S
C959 H934 0.951 . S
C959 C957 1.388 . S
C959 C960 1.366 . S
C960 C959 1.366 . S
C960 C961 1.414 . S
C960 C963 1.499 . S
C961 H935 0.950 . S
C961 C960 1.414 . S
C961 C962 1.374 . S
C962 H936 0.950 . S
C962 C958 1.385 . S
C962 C961 1.374 . S
C963 C960 1.499 . S
C963 C964 1.373 . S
C963 C965 1.389 . S
C964 H937 0.950 . S
C964 C950 1.377 1_455 S
C964 C963 1.373 . S
C965 C949 1.377 1_455 S
C965 C963 1.389 . S
C965 C966 1.524 . S
C966 C965 1.524 . S
C966 C967 1.397 . S
C966 C971 1.363 . S
C967 H938 0.950 . S
C967 C966 1.397 . S
C967 C968 1.334 . S
C968 H939 0.950 . S
C968 C967 1.334 . S
C968 C969 1.287 . S
C969 C968 1.287 . S
C969 C970 1.524 . S
C969 H972 0.999 . S
C970 H940 0.950 . S
C970 C969 1.524 . S
C970 C971 1.415 . S
C971 H941 0.950 . S
C971 C966 1.363 . S
C971 C970 1.415 . S
H972 C969 0.999 . S
H973 C954 0.913 . S
H974 C992 0.951 . S
H975 C994 0.951 . S
H976 C996 0.950 . S
H977 C997 0.950 . S
H978 C999 0.950 . S
H979 C1002 0.950 . S
H980 C1003 0.950 . S
H981 C1005 0.950 . S
H982 C1006 0.950 . S
H983 C1007 0.951 . S
H984 C1009 0.951 . S
H985 C1011 0.950 . S
H986 C1012 0.950 . S
H987 C1014 0.950 . S
H988 C1017 0.950 . S
H989 C1018 0.950 . S
H990 C1020 0.950 . S
H991 C1021 0.950 . S
C992 H974 0.951 . S
C992 C993 1.366 . S
C992 C994 1.388 . S
C993 C992 1.366 . S
C993 C997 1.385 . S
C994 H975 0.951 . S
C994 C992 1.388 . S
C994 C995 1.366 . S
C995 C994 1.366 . S
C995 C996 1.414 . S
C995 C998 1.499 . S
C996 H976 0.950 . S
C996 C995 1.414 . S
C996 C997 1.374 . S
C997 H977 0.950 . S
C997 C993 1.385 . S
C997 C996 1.374 . S
C998 C995 1.499 . S
C998 C999 1.373 . S
C998 C1000 1.389 1_556 S
C999 H978 0.950 . S
C999 C998 1.373 . S
C999 C1015 1.377 . S
C1000 C998 1.389 1_554 S
C1000 C1001 1.524 . S
C1000 C1014 1.377 . S
C1001 C1000 1.524 . S
C1001 C1002 1.397 . S
C1001 C1006 1.363 . S
C1002 H979 0.950 . S
C1002 C1001 1.397 . S
C1002 C1003 1.334 . S
C1003 H980 0.950 . S
C1003 C1002 1.334 . S
C1003 C1004 1.287 . S
C1004 C1003 1.287 . S
C1004 C1005 1.524 . S
C1004 H1023 0.913 . S
C1005 H981 0.950 . S
C1005 C1004 1.524 . S
C1005 C1006 1.415 . S
C1006 H982 0.950 . S
C1006 C1001 1.363 . S
C1006 C1005 1.415 . S
C1007 H983 0.951 . S
C1007 C1008 1.366 . S
C1007 C1009 1.388 . S
C1008 C1007 1.366 . S
C1008 C1012 1.385 . S
C1009 H984 0.951 . S
C1009 C1007 1.388 . S
C1009 C1010 1.366 . S
C1010 C1009 1.366 . S
C1010 C1011 1.414 . S
C1010 C1013 1.499 . S
C1011 H985 0.950 . S
C1011 C1010 1.414 . S
C1011 C1012 1.374 . S
C1012 H986 0.950 . S
C1012 C1008 1.385 . S
C1012 C1011 1.374 . S
C1013 C1010 1.499 . S
C1013 C1014 1.373 1_556 S
C1013 C1015 1.389 . S
C1014 H987 0.950 . S
C1014 C1000 1.377 . S
C1014 C1013 1.373 1_554 S
C1015 C999 1.377 . S
C1015 C1013 1.389 . S
C1015 C1016 1.524 . S
C1016 C1015 1.524 . S
C1016 C1017 1.397 . S
C1016 C1021 1.363 . S
C1017 H988 0.950 . S
C1017 C1016 1.397 . S
C1017 C1018 1.334 . S
C1018 H989 0.950 . S
C1018 C1017 1.334 . S
C1018 C1019 1.287 . S
C1019 C1018 1.287 . S
C1019 C1020 1.524 . S
C1019 H1022 0.999 . S
C1020 H990 0.950 . S
C1020 C1019 1.524 . S
C1020 C1021 1.415 . S
C1021 H991 0.950 . S
C1021 C1016 1.363 . S
C1021 C1020 1.415 . S
H1022 C1019 0.999 . S
H1023 C1004 0.913 . S
H1024 C1042 0.951 . S
H1025 C1044 0.951 . S
H1026 C1046 0.950 . S
H1027 C1047 0.950 . S
H1028 C1049 0.950 . S
H1029 C1052 0.950 . S
H1030 C1053 0.950 . S
H1031 C1055 0.950 . S
H1032 C1056 0.950 . S
H1033 C1057 0.951 . S
H1034 C1059 0.951 . S
H1035 C1061 0.950 . S
H1036 C1062 0.950 . S
H1037 C1064 0.950 . S
H1038 C1067 0.950 . S
H1039 C1068 0.950 . S
H1040 C1070 0.950 . S
H1041 C1071 0.950 . S
C1042 H1024 0.951 . S
C1042 C1043 1.366 . S
C1042 C1044 1.388 . S
C1043 C1042 1.366 . S
C1043 C1047 1.385 . S
C1044 H1025 0.951 . S
C1044 C1042 1.388 . S
C1044 C1045 1.366 . S
C1045 C1044 1.366 . S
C1045 C1046 1.414 . S
C1045 C1048 1.499 . S
C1046 H1026 0.950 . S
C1046 C1045 1.414 . S
C1046 C1047 1.374 . S
C1047 H1027 0.950 . S
C1047 C1043 1.385 . S
C1047 C1046 1.374 . S
C1048 C1045 1.499 . S
C1048 C1049 1.373 . S
C1048 C1050 1.389 . S
C1049 H1028 0.950 . S
C1049 C1048 1.373 . S
C1049 C1065 1.377 . S
C1050 C1048 1.389 . S
C1050 C1051 1.524 . S
C1050 C1064 1.377 . S
C1051 C1050 1.524 . S
C1051 C1052 1.397 . S
C1051 C1056 1.363 . S
C1052 H1029 0.950 . S
C1052 C1051 1.397 . S
C1052 C1053 1.334 . S
C1053 H1030 0.950 . S
C1053 C1052 1.334 . S
C1053 C1054 1.287 . S
C1054 C1053 1.287 . S
C1054 C1055 1.524 . S
C1054 H1073 0.913 . S
C1055 H1031 0.950 . S
C1055 C1054 1.524 . S
C1055 C1056 1.415 . S
C1056 H1032 0.950 . S
C1056 C1051 1.363 . S
C1056 C1055 1.415 . S
C1057 H1033 0.951 . S
C1057 C1058 1.366 . S
C1057 C1059 1.388 . S
C1058 C1057 1.366 . S
C1058 C1062 1.385 . S
C1059 H1034 0.951 . S
C1059 C1057 1.388 . S
C1059 C1060 1.366 . S
C1060 C1059 1.366 . S
C1060 C1061 1.414 . S
C1060 C1063 1.499 . S
C1061 H1035 0.950 . S
C1061 C1060 1.414 . S
C1061 C1062 1.374 . S
C1062 H1036 0.950 . S
C1062 C1058 1.385 . S
C1062 C1061 1.374 . S
C1063 C1060 1.499 . S
C1063 C1064 1.373 . S
C1063 C1065 1.389 . S
C1064 H1037 0.950 . S
C1064 C1050 1.377 . S
C1064 C1063 1.373 . S
C1065 C1049 1.377 . S
C1065 C1063 1.389 . S
C1065 C1066 1.524 . S
C1066 C1065 1.524 . S
C1066 C1067 1.397 . S
C1066 C1071 1.363 . S
C1067 H1038 0.950 . S
C1067 C1066 1.397 . S
C1067 C1068 1.334 . S
C1068 H1039 0.950 . S
C1068 C1067 1.334 . S
C1068 C1069 1.287 . S
C1069 C1068 1.287 . S
C1069 C1070 1.524 . S
C1069 H1072 0.999 . S
C1070 H1040 0.950 . S
C1070 C1069 1.524 . S
C1070 C1071 1.415 . S
C1071 H1041 0.950 . S
C1071 C1066 1.363 . S
C1071 C1070 1.415 . S
H1072 C1069 0.999 . S
H1073 C1054 0.913 . S
H1074 C1092 0.951 . S
H1075 C1094 0.951 . S
H1076 C1096 0.950 . S
H1077 C1097 0.950 . S
H1078 C1099 0.950 . S
H1079 C1102 0.950 . S
H1080 C1103 0.950 . S
H1081 C1105 0.950 . S
H1082 C1106 0.950 . S
H1083 C1107 0.951 . S
H1084 C1109 0.951 . S
H1085 C1111 0.950 . S
H1086 C1112 0.950 . S
H1087 C1114 0.950 . S
H1088 C1117 0.950 . S
H1089 C1118 0.950 . S
H1090 C1120 0.950 . S
H1091 C1121 0.950 . S
C1092 H1074 0.951 . S
C1092 C1093 1.366 . S
C1092 C1094 1.388 . S
C1093 C1092 1.366 . S
C1093 C1097 1.385 . S
C1094 H1075 0.951 . S
C1094 C1092 1.388 . S
C1094 C1095 1.366 . S
C1095 C1094 1.366 . S
C1095 C1096 1.414 . S
C1095 C1098 1.499 . S
C1096 H1076 0.950 . S
C1096 C1095 1.414 . S
C1096 C1097 1.374 . S
C1097 H1077 0.950 . S
C1097 C1093 1.385 . S
C1097 C1096 1.374 . S
C1098 C1095 1.499 . S
C1098 C1099 1.373 . S
C1098 C1100 1.389 . S
C1099 H1078 0.950 . S
C1099 C1098 1.373 . S
C1099 C1115 1.377 . S
C1100 C1098 1.389 . S
C1100 C1101 1.524 . S
C1100 C1114 1.377 . S
C1101 C1100 1.524 . S
C1101 C1102 1.397 . S
C1101 C1106 1.363 . S
C1102 H1079 0.950 . S
C1102 C1101 1.397 . S
C1102 C1103 1.334 . S
C1103 H1080 0.950 . S
C1103 C1102 1.334 . S
C1103 C1104 1.287 . S
C1104 C1103 1.287 . S
C1104 C1105 1.524 . S
C1104 H1123 0.913 . S
C1105 H1081 0.950 . S
C1105 C1104 1.524 . S
C1105 C1106 1.415 . S
C1106 H1082 0.950 . S
C1106 C1101 1.363 . S
C1106 C1105 1.415 . S
C1107 H1083 0.951 . S
C1107 C1108 1.366 . S
C1107 C1109 1.388 . S
C1108 C1107 1.366 . S
C1108 C1112 1.385 . S
C1109 H1084 0.951 . S
C1109 C1107 1.388 . S
C1109 C1110 1.366 . S
C1110 C1109 1.366 . S
C1110 C1111 1.414 . S
C1110 C1113 1.499 . S
C1111 H1085 0.950 . S
C1111 C1110 1.414 . S
C1111 C1112 1.374 . S
C1112 H1086 0.950 . S
C1112 C1108 1.385 . S
C1112 C1111 1.374 . S
C1113 C1110 1.499 . S
C1113 C1114 1.373 . S
C1113 C1115 1.389 . S
C1114 H1087 0.950 . S
C1114 C1100 1.377 . S
C1114 C1113 1.373 . S
C1115 C1099 1.377 . S
C1115 C1113 1.389 . S
C1115 C1116 1.524 . S
C1116 C1115 1.524 . S
C1116 C1117 1.397 . S
C1116 C1121 1.363 . S
C1117 H1088 0.950 . S
C1117 C1116 1.397 . S
C1117 C1118 1.334 . S
C1118 H1089 0.950 . S
C1118 C1117 1.334 . S
C1118 C1119 1.287 . S
C1119 C1118 1.287 . S
C1119 C1120 1.524 . S
C1119 H1122 0.999 . S
C1120 H1090 0.950 . S
C1120 C1119 1.524 . S
C1120 C1121 1.415 . S
C1121 H1091 0.950 . S
C1121 C1116 1.363 . S
C1121 C1120 1.415 . S
H1122 C1119 0.999 . S
H1123 C1104 0.913 . S
H1124 C1142 0.951 . S
H1125 C1144 0.951 . S
H1126 C1146 0.950 . S
H1127 C1147 0.950 . S
H1128 C1149 0.950 . S
H1129 C1152 0.950 . S
H1130 C1153 0.950 . S
H1131 C1155 0.950 . S
H1132 C1156 0.950 . S
H1133 C1157 0.951 . S
H1134 C1159 0.951 . S
H1135 C1161 0.950 . S
H1136 C1162 0.950 . S
H1137 C1164 0.950 . S
H1138 C1167 0.950 . S
H1139 C1168 0.950 . S
H1140 C1170 0.950 . S
H1141 C1171 0.950 . S
C1142 H1124 0.951 . S
C1142 C1143 1.366 . S
C1142 C1144 1.388 . S
C1143 C1142 1.366 . S
C1143 C1147 1.385 . S
C1144 H1125 0.951 . S
C1144 C1142 1.388 . S
C1144 C1145 1.366 . S
C1145 C1144 1.366 . S
C1145 C1146 1.414 . S
C1145 C1148 1.499 . S
C1146 H1126 0.950 . S
C1146 C1145 1.414 . S
C1146 C1147 1.374 . S
C1147 H1127 0.950 . S
C1147 C1143 1.385 . S
C1147 C1146 1.374 . S
C1148 C1145 1.499 . S
C1148 C1149 1.373 . S
C1148 C1150 1.389 . S
C1149 H1128 0.950 . S
C1149 C1148 1.373 . S
C1149 C1165 1.377 1_455 S
C1150 C1148 1.389 . S
C1150 C1151 1.524 . S
C1150 C1164 1.377 1_455 S
C1151 C1150 1.524 . S
C1151 C1152 1.397 . S
C1151 C1156 1.363 . S
C1152 H1129 0.950 . S
C1152 C1151 1.397 . S
C1152 C1153 1.334 . S
C1153 H1130 0.950 . S
C1153 C1152 1.334 . S
C1153 C1154 1.287 . S
C1154 C1153 1.287 . S
C1154 C1155 1.524 . S
C1154 H1173 0.913 . S
C1155 H1131 0.950 . S
C1155 C1154 1.524 . S
C1155 C1156 1.415 . S
C1156 H1132 0.950 . S
C1156 C1151 1.363 . S
C1156 C1155 1.415 . S
C1157 H1133 0.951 . S
C1157 C1158 1.366 . S
C1157 C1159 1.388 . S
C1158 C1157 1.366 . S
C1158 C1162 1.385 . S
C1159 H1134 0.951 . S
C1159 C1157 1.388 . S
C1159 C1160 1.366 . S
C1160 C1159 1.366 . S
C1160 C1161 1.414 . S
C1160 C1163 1.499 . S
C1161 H1135 0.950 . S
C1161 C1160 1.414 . S
C1161 C1162 1.374 . S
C1162 H1136 0.950 . S
C1162 C1158 1.385 . S
C1162 C1161 1.374 . S
C1163 C1160 1.499 . S
C1163 C1164 1.373 . S
C1163 C1165 1.389 . S
C1164 H1137 0.950 . S
C1164 C1150 1.377 1_655 S
C1164 C1163 1.373 . S
C1165 C1149 1.377 1_655 S
C1165 C1163 1.389 . S
C1165 C1166 1.524 . S
C1166 C1165 1.524 . S
C1166 C1167 1.397 . S
C1166 C1171 1.363 . S
C1167 H1138 0.950 . S
C1167 C1166 1.397 . S
C1167 C1168 1.334 . S
C1168 H1139 0.950 . S
C1168 C1167 1.334 . S
C1168 C1169 1.287 . S
C1169 C1168 1.287 . S
C1169 C1170 1.524 . S
C1169 H1172 0.999 . S
C1170 H1140 0.950 . S
C1170 C1169 1.524 . S
C1170 C1171 1.415 . S
C1171 H1141 0.950 . S
C1171 C1166 1.363 . S
C1171 C1170 1.415 . S
H1172 C1169 0.999 . S
H1173 C1154 0.913 . S
H1174 C1192 0.951 . S
H1175 C1194 0.951 . S
H1176 C1196 0.950 . S
H1177 C1197 0.950 . S
H1178 C1199 0.949 . S
H1179 C1202 0.950 . S
H1180 C1203 0.950 . S
H1181 C1205 0.950 . S
H1182 C1206 0.950 . S
H1183 C1207 0.951 . S
H1184 C1209 0.951 . S
H1185 C1211 0.950 . S
H1186 C1212 0.950 . S
H1187 C1214 0.950 . S
H1188 C1217 0.950 . S
H1189 C1218 0.950 . S
H1190 C1220 0.950 . S
H1191 C1221 0.950 1_554 S
C1192 H1174 0.951 . S
C1192 C1193 1.366 . S
C1192 C1194 1.388 . S
C1193 C1192 1.366 . S
C1193 C1197 1.385 1_655 S
C1194 H1175 0.951 . S
C1194 C1192 1.388 . S
C1194 C1195 1.366 . S
C1195 C1194 1.366 . S
C1195 C1196 1.414 1_655 S
C1195 C1198 1.499 . S
C1196 H1176 0.950 . S
C1196 C1195 1.414 1_455 S
C1196 C1197 1.374 . S
C1197 H1177 0.950 . S
C1197 C1193 1.385 1_455 S
C1197 C1196 1.374 . S
C1198 C1195 1.499 . S
C1198 C1199 1.373 1_655 S
C1198 C1200 1.389 . S
C1199 H1178 0.949 . S
C1199 C1198 1.373 1_455 S
C1199 C1215 1.377 . S
C1200 C1198 1.389 . S
C1200 C1201 1.524 . S
C1200 C1214 1.377 . S
C1201 C1200 1.524 . S
C1201 C1202 1.397 . S
C1201 C1206 1.363 . S
C1202 H1179 0.950 . S
C1202 C1201 1.397 . S
C1202 C1203 1.334 . S
C1203 H1180 0.950 . S
C1203 C1202 1.334 . S
C1203 C1204 1.287 . S
C1204 C1203 1.287 . S
C1204 C1205 1.524 . S
C1204 H1223 0.913 . S
C1205 H1181 0.950 . S
C1205 C1204 1.524 . S
C1205 C1206 1.415 . S
C1206 H1182 0.950 . S
C1206 C1201 1.363 . S
C1206 C1205 1.415 . S
C1207 H1183 0.951 . S
C1207 C1208 1.366 . S
C1207 C1209 1.388 . S
C1208 C1207 1.366 . S
C1208 C1212 1.385 1_455 S
C1209 H1184 0.951 . S
C1209 C1207 1.388 . S
C1209 C1210 1.366 . S
C1210 C1209 1.366 . S
C1210 C1211 1.414 1_455 S
C1210 C1213 1.499 . S
C1211 H1185 0.950 . S
C1211 C1210 1.414 1_655 S
C1211 C1212 1.374 . S
C1212 H1186 0.950 . S
C1212 C1208 1.385 1_655 S
C1212 C1211 1.374 . S
C1213 C1210 1.499 . S
C1213 C1214 1.373 1_455 S
C1213 C1215 1.389 . S
C1214 H1187 0.950 . S
C1214 C1200 1.377 . S
C1214 C1213 1.373 1_655 S
C1215 C1199 1.377 . S
C1215 C1213 1.389 . S
C1215 C1216 1.524 1_554 S
C1216 C1215 1.524 1_556 S
C1216 C1217 1.397 . S
C1216 C1221 1.363 . S
C1217 H1188 0.950 . S
C1217 C1216 1.397 . S
C1217 C1218 1.334 . S
C1218 H1189 0.950 . S
C1218 C1217 1.334 . S
C1218 C1219 1.287 . S
C1219 C1218 1.287 . S
C1219 C1220 1.524 . S
C1219 H1222 0.999 . S
C1220 H1190 0.950 . S
C1220 C1219 1.524 . S
C1220 C1221 1.415 . S
C1221 H1191 0.950 1_556 S
C1221 C1216 1.363 . S
C1221 C1220 1.415 . S
H1222 C1219 0.999 . S
H1223 C1204 0.913 . S
H1224 C1242 0.951 . S
H1225 C1244 0.951 . S
H1226 C1246 0.950 . S
H1227 C1247 0.950 . S
H1228 C1249 0.950 . S
H1229 C1252 0.950 . S
H1230 C1253 0.950 . S
H1231 C1255 0.950 . S
H1232 C1256 0.950 . S
H1233 C1257 0.951 . S
H1234 C1259 0.951 . S
H1235 C1261 0.950 . S
H1236 C1262 0.950 . S
H1237 C1264 0.950 . S
H1238 C1267 0.950 . S
H1239 C1268 0.950 . S
H1240 C1270 0.950 . S
H1241 C1271 0.950 . S
C1242 H1224 0.951 . S
C1242 C1243 1.366 . S
C1242 C1244 1.388 . S
C1243 C1242 1.366 . S
C1243 C1247 1.385 . S
C1244 H1225 0.951 . S
C1244 C1242 1.388 . S
C1244 C1245 1.366 . S
C1245 C1244 1.366 . S
C1245 C1246 1.414 . S
C1245 C1248 1.499 . S
C1246 H1226 0.950 . S
C1246 C1245 1.414 . S
C1246 C1247 1.374 . S
C1247 H1227 0.950 . S
C1247 C1243 1.385 . S
C1247 C1246 1.374 . S
C1248 C1245 1.499 . S
C1248 C1249 1.373 . S
C1248 C1250 1.389 . S
C1249 H1228 0.950 . S
C1249 C1248 1.373 . S
C1249 C1265 1.377 . S
C1250 C1248 1.389 . S
C1250 C1251 1.524 . S
C1250 C1264 1.377 . S
C1251 C1250 1.524 . S
C1251 C1252 1.397 . S
C1251 C1256 1.363 . S
C1252 H1229 0.950 . S
C1252 C1251 1.397 . S
C1252 C1253 1.334 . S
C1253 H1230 0.950 . S
C1253 C1252 1.334 . S
C1253 C1254 1.287 . S
C1254 C1253 1.287 . S
C1254 C1255 1.524 . S
C1254 H1273 0.913 . S
C1255 H1231 0.950 . S
C1255 C1254 1.524 . S
C1255 C1256 1.415 . S
C1256 H1232 0.950 . S
C1256 C1251 1.363 . S
C1256 C1255 1.415 . S
C1257 H1233 0.951 . S
C1257 C1258 1.366 . S
C1257 C1259 1.388 . S
C1258 C1257 1.366 . S
C1258 C1262 1.385 . S
C1259 H1234 0.951 . S
C1259 C1257 1.388 . S
C1259 C1260 1.366 . S
C1260 C1259 1.366 . S
C1260 C1261 1.414 . S
C1260 C1263 1.499 . S
C1261 H1235 0.950 . S
C1261 C1260 1.414 . S
C1261 C1262 1.374 . S
C1262 H1236 0.950 . S
C1262 C1258 1.385 . S
C1262 C1261 1.374 . S
C1263 C1260 1.499 . S
C1263 C1264 1.373 . S
C1263 C1265 1.389 . S
C1264 H1237 0.950 . S
C1264 C1250 1.377 . S
C1264 C1263 1.373 . S
C1265 C1249 1.377 . S
C1265 C1263 1.389 . S
C1265 C1266 1.524 . S
C1266 C1265 1.524 . S
C1266 C1267 1.397 . S
C1266 C1271 1.363 . S
C1267 H1238 0.950 . S
C1267 C1266 1.397 . S
C1267 C1268 1.334 . S
C1268 H1239 0.950 . S
C1268 C1267 1.334 . S
C1268 C1269 1.287 . S
C1269 C1268 1.287 . S
C1269 C1270 1.524 . S
C1269 H1272 0.999 . S
C1270 H1240 0.950 . S
C1270 C1269 1.524 . S
C1270 C1271 1.415 . S
C1271 H1241 0.950 . S
C1271 C1266 1.363 . S
C1271 C1270 1.415 . S
H1272 C1269 0.999 . S
H1273 C1254 0.913 . S
H1274 C1292 0.951 . S
H1275 C1294 0.951 . S
H1276 C1296 0.950 . S
H1277 C1297 0.950 . S
H1278 C1299 0.950 . S
H1279 C1302 0.950 . S
H1280 C1303 0.950 . S
H1281 C1305 0.950 . S
H1282 C1306 0.950 . S
H1283 C1307 0.951 . S
H1284 C1309 0.951 . S
H1285 C1311 0.950 . S
H1286 C1312 0.950 . S
H1287 C1314 0.950 . S
H1288 C1317 0.950 . S
H1289 C1318 0.950 . S
H1290 C1320 0.950 . S
H1291 C1321 0.950 . S
C1292 H1274 0.951 . S
C1292 C1293 1.366 . S
C1292 C1294 1.388 . S
C1293 C1292 1.366 . S
C1293 C1297 1.385 . S
C1294 H1275 0.951 . S
C1294 C1292 1.388 . S
C1294 C1295 1.366 . S
C1295 C1294 1.366 . S
C1295 C1296 1.414 . S
C1295 C1298 1.499 . S
C1296 H1276 0.950 . S
C1296 C1295 1.414 . S
C1296 C1297 1.374 . S
C1297 H1277 0.950 . S
C1297 C1293 1.385 . S
C1297 C1296 1.374 . S
C1298 C1295 1.499 . S
C1298 C1299 1.373 . S
C1298 C1300 1.389 . S
C1299 H1278 0.950 . S
C1299 C1298 1.373 . S
C1299 C1315 1.377 1_545 S
C1300 C1298 1.389 . S
C1300 C1301 1.524 . S
C1300 C1314 1.377 1_545 S
C1301 C1300 1.524 . S
C1301 C1302 1.397 . S
C1301 C1306 1.363 . S
C1302 H1279 0.950 . S
C1302 C1301 1.397 . S
C1302 C1303 1.334 . S
C1303 H1280 0.950 . S
C1303 C1302 1.334 . S
C1303 C1304 1.287 . S
C1304 C1303 1.287 . S
C1304 C1305 1.524 . S
C1304 H1323 0.913 . S
C1305 H1281 0.950 . S
C1305 C1304 1.524 . S
C1305 C1306 1.415 . S
C1306 H1282 0.950 . S
C1306 C1301 1.363 . S
C1306 C1305 1.415 . S
C1307 H1283 0.951 . S
C1307 C1308 1.366 . S
C1307 C1309 1.388 . S
C1308 C1307 1.366 . S
C1308 C1312 1.385 . S
C1309 H1284 0.951 . S
C1309 C1307 1.388 . S
C1309 C1310 1.366 . S
C1310 C1309 1.366 . S
C1310 C1311 1.414 . S
C1310 C1313 1.499 . S
C1311 H1285 0.950 . S
C1311 C1310 1.414 . S
C1311 C1312 1.374 . S
C1312 H1286 0.950 . S
C1312 C1308 1.385 . S
C1312 C1311 1.374 . S
C1313 C1310 1.499 . S
C1313 C1314 1.373 . S
C1313 C1315 1.389 . S
C1314 H1287 0.950 . S
C1314 C1300 1.377 1_565 S
C1314 C1313 1.373 . S
C1315 C1299 1.377 1_565 S
C1315 C1313 1.389 . S
C1315 C1316 1.524 . S
C1316 C1315 1.524 . S
C1316 C1317 1.397 . S
C1316 C1321 1.363 . S
C1317 H1288 0.950 . S
C1317 C1316 1.397 . S
C1317 C1318 1.334 . S
C1318 H1289 0.950 . S
C1318 C1317 1.334 . S
C1318 C1319 1.287 . S
C1319 C1318 1.287 . S
C1319 C1320 1.524 . S
C1319 H1322 0.999 . S
C1320 H1290 0.950 . S
C1320 C1319 1.524 . S
C1320 C1321 1.415 . S
C1321 H1291 0.950 . S
C1321 C1316 1.363 . S
C1321 C1320 1.415 . S
H1322 C1319 0.999 . S
H1323 C1304 0.913 . S
H1324 C1342 0.951 . S
H1325 C1344 0.951 . S
H1326 C1346 0.950 . S
H1327 C1347 0.950 . S
H1328 C1349 0.950 . S
H1329 C1352 0.950 . S
H1330 C1353 0.950 . S
H1331 C1355 0.950 . S
H1332 C1356 0.950 . S
H1333 C1357 0.951 . S
H1334 C1359 0.951 . S
H1335 C1361 0.950 . S
H1336 C1362 0.950 . S
H1337 C1364 0.950 . S
H1338 C1367 0.950 . S
H1339 C1368 0.950 . S
H1340 C1370 0.950 . S
H1341 C1371 0.950 . S
C1342 H1324 0.951 . S
C1342 C1343 1.366 . S
C1342 C1344 1.388 . S
C1343 C1342 1.366 . S
C1343 C1347 1.385 . S
C1344 H1325 0.951 . S
C1344 C1342 1.388 . S
C1344 C1345 1.366 . S
C1345 C1344 1.366 . S
C1345 C1346 1.414 . S
C1345 C1348 1.499 . S
C1346 H1326 0.950 . S
C1346 C1345 1.414 . S
C1346 C1347 1.374 . S
C1347 H1327 0.950 . S
C1347 C1343 1.385 . S
C1347 C1346 1.374 . S
C1348 C1345 1.499 . S
C1348 C1349 1.373 1_556 S
C1348 C1350 1.389 . S
C1349 H1328 0.950 . S
C1349 C1348 1.373 1_554 S
C1349 C1365 1.377 . S
C1350 C1348 1.389 . S
C1350 C1351 1.524 . S
C1350 C1364 1.377 . S
C1351 C1350 1.524 . S
C1351 C1352 1.397 . S
C1351 C1356 1.363 . S
C1352 H1329 0.950 . S
C1352 C1351 1.397 . S
C1352 C1353 1.334 . S
C1353 H1330 0.950 . S
C1353 C1352 1.334 . S
C1353 C1354 1.287 . S
C1354 C1353 1.287 . S
C1354 C1355 1.524 . S
C1354 H1373 0.913 . S
C1355 H1331 0.950 . S
C1355 C1354 1.524 . S
C1355 C1356 1.415 . S
C1356 H1332 0.950 . S
C1356 C1351 1.363 . S
C1356 C1355 1.415 . S
C1357 H1333 0.951 . S
C1357 C1358 1.366 . S
C1357 C1359 1.388 . S
C1358 C1357 1.366 . S
C1358 C1362 1.385 . S
C1359 H1334 0.951 . S
C1359 C1357 1.388 . S
C1359 C1360 1.366 . S
C1360 C1359 1.366 . S
C1360 C1361 1.414 . S
C1360 C1363 1.499 . S
C1361 H1335 0.950 . S
C1361 C1360 1.414 . S
C1361 C1362 1.374 . S
C1362 H1336 0.950 . S
C1362 C1358 1.385 . S
C1362 C1361 1.374 . S
C1363 C1360 1.499 . S
C1363 C1364 1.373 1_554 S
C1363 C1365 1.389 . S
C1364 H1337 0.950 . S
C1364 C1350 1.377 . S
C1364 C1363 1.373 1_556 S
C1365 C1349 1.377 . S
C1365 C1363 1.389 . S
C1365 C1366 1.524 . S
C1366 C1365 1.524 . S
C1366 C1367 1.397 . S
C1366 C1371 1.363 . S
C1367 H1338 0.950 . S
C1367 C1366 1.397 . S
C1367 C1368 1.334 . S
C1368 H1339 0.950 . S
C1368 C1367 1.334 . S
C1368 C1369 1.287 . S
C1369 C1368 1.287 . S
C1369 C1370 1.524 . S
C1369 H1372 0.999 . S
C1370 H1340 0.950 . S
C1370 C1369 1.524 . S
C1370 C1371 1.415 . S
C1371 H1341 0.950 . S
C1371 C1366 1.363 . S
C1371 C1370 1.415 . S
H1372 C1369 0.999 . S
H1373 C1354 0.913 . S
H1374 C1392 0.951 . S
H1375 C1394 0.951 . S
H1376 C1396 0.950 . S
H1377 C1397 0.950 . S
H1378 C1399 0.950 . S
H1379 C1402 0.950 . S
H1380 C1403 0.950 . S
H1381 C1405 0.950 . S
H1382 C1406 0.950 . S
H1383 C1407 0.951 . S
H1384 C1409 0.951 . S
H1385 C1411 0.950 . S
H1386 C1412 0.950 . S
H1387 C1414 0.950 . S
H1388 C1417 0.950 . S
H1389 C1418 0.950 . S
H1390 C1420 0.950 . S
H1391 C1421 0.950 . S
C1392 H1374 0.951 . S
C1392 C1393 1.366 . S
C1392 C1394 1.388 . S
C1393 C1392 1.366 . S
C1393 C1397 1.385 . S
C1394 H1375 0.951 . S
C1394 C1392 1.388 . S
C1394 C1395 1.366 . S
C1395 C1394 1.366 . S
C1395 C1396 1.414 . S
C1395 C1398 1.499 . S
C1396 H1376 0.950 . S
C1396 C1395 1.414 . S
C1396 C1397 1.374 . S
C1397 H1377 0.950 . S
C1397 C1393 1.385 . S
C1397 C1396 1.374 . S
C1398 C1395 1.499 . S
C1398 C1399 1.373 . S
C1398 C1400 1.389 . S
C1399 H1378 0.950 . S
C1399 C1398 1.373 . S
C1399 C1415 1.377 1_545 S
C1400 C1398 1.389 . S
C1400 C1401 1.524 . S
C1400 C1414 1.377 1_545 S
C1401 C1400 1.524 . S
C1401 C1402 1.397 . S
C1401 C1406 1.363 . S
C1402 H1379 0.950 . S
C1402 C1401 1.397 . S
C1402 C1403 1.334 . S
C1403 H1380 0.950 . S
C1403 C1402 1.334 . S
C1403 C1404 1.287 . S
C1404 C1403 1.287 . S
C1404 C1405 1.524 . S
C1404 H1423 0.913 . S
C1405 H1381 0.950 . S
C1405 C1404 1.524 . S
C1405 C1406 1.415 . S
C1406 H1382 0.950 . S
C1406 C1401 1.363 . S
C1406 C1405 1.415 . S
C1407 H1383 0.951 . S
C1407 C1408 1.366 . S
C1407 C1409 1.388 . S
C1408 C1407 1.366 . S
C1408 C1412 1.385 . S
C1409 H1384 0.951 . S
C1409 C1407 1.388 . S
C1409 C1410 1.366 . S
C1410 C1409 1.366 . S
C1410 C1411 1.414 . S
C1410 C1413 1.499 . S
C1411 H1385 0.950 . S
C1411 C1410 1.414 . S
C1411 C1412 1.374 . S
C1412 H1386 0.950 . S
C1412 C1408 1.385 . S
C1412 C1411 1.374 . S
C1413 C1410 1.499 . S
C1413 C1414 1.373 . S
C1413 C1415 1.389 . S
C1414 H1387 0.950 . S
C1414 C1400 1.377 1_565 S
C1414 C1413 1.373 . S
C1415 C1399 1.377 1_565 S
C1415 C1413 1.389 . S
C1415 C1416 1.524 . S
C1416 C1415 1.524 . S
C1416 C1417 1.397 . S
C1416 C1421 1.363 . S
C1417 H1388 0.950 . S
C1417 C1416 1.397 . S
C1417 C1418 1.334 . S
C1418 H1389 0.950 . S
C1418 C1417 1.334 . S
C1418 C1419 1.287 . S
C1419 C1418 1.287 . S
C1419 C1420 1.524 . S
C1419 H1422 0.999 . S
C1420 H1390 0.950 . S
C1420 C1419 1.524 . S
C1420 C1421 1.415 . S
C1421 H1391 0.950 . S
C1421 C1416 1.363 . S
C1421 C1420 1.415 . S
H1422 C1419 0.999 . S
H1423 C1404 0.913 . S
H1424 C1442 0.951 . S
H1425 C1444 0.951 . S
H1426 C1446 0.950 . S
H1427 C1447 0.950 . S
H1428 C1449 0.950 . S
H1429 C1452 0.950 1_554 S
H1430 C1453 0.950 . S
H1431 C1455 0.950 . S
H1432 C1456 0.950 . S
H1433 C1457 0.951 . S
H1434 C1459 0.951 . S
H1435 C1461 0.950 . S
H1436 C1462 0.950 . S
H1437 C1464 0.950 1_545 S
H1438 C1467 0.950 1_556 S
H1439 C1468 0.950 . S
H1440 C1470 0.950 . S
H1441 C1471 0.950 . S
C1442 H1424 0.951 . S
C1442 C1443 1.366 1_556 S
C1442 C1444 1.388 . S
C1443 C1442 1.366 1_554 S
C1443 C1447 1.385 . S
C1444 H1425 0.951 . S
C1444 C1442 1.388 . S
C1444 C1445 1.366 1_556 S
C1445 C1444 1.366 1_554 S
C1445 C1446 1.414 . S
C1445 C1448 1.499 . S
C1446 H1426 0.950 . S
C1446 C1445 1.414 . S
C1446 C1447 1.374 . S
C1447 H1427 0.950 . S
C1447 C1443 1.385 . S
C1447 C1446 1.374 . S
C1448 C1445 1.499 . S
C1448 C1449 1.373 . S
C1448 C1450 1.389 1_554 S
C1449 H1428 0.950 . S
C1449 C1448 1.373 . S
C1449 C1465 1.377 . S
C1450 C1448 1.389 1_556 S
C1450 C1451 1.524 1_565 S
C1450 C1464 1.377 . S
C1451 C1450 1.524 1_545 S
C1451 C1452 1.397 . S
C1451 C1456 1.363 . S
C1452 H1429 0.950 1_556 S
C1452 C1451 1.397 . S
C1452 C1453 1.334 . S
C1453 H1430 0.950 . S
C1453 C1452 1.334 . S
C1453 C1454 1.287 . S
C1454 C1453 1.287 . S
C1454 C1455 1.524 . S
C1454 H1473 0.913 . S
C1455 H1431 0.950 . S
C1455 C1454 1.524 . S
C1455 C1456 1.415 . S
C1456 H1432 0.950 . S
C1456 C1451 1.363 . S
C1456 C1455 1.415 . S
C1457 H1433 0.951 . S
C1457 C1458 1.366 1_554 S
C1457 C1459 1.388 . S
C1458 C1457 1.366 1_556 S
C1458 C1462 1.385 . S
C1459 H1434 0.951 . S
C1459 C1457 1.388 . S
C1459 C1460 1.366 1_554 S
C1460 C1459 1.366 1_556 S
C1460 C1461 1.414 . S
C1460 C1463 1.499 . S
C1461 H1435 0.950 . S
C1461 C1460 1.414 . S
C1461 C1462 1.374 . S
C1462 H1436 0.950 . S
C1462 C1458 1.385 . S
C1462 C1461 1.374 . S
C1463 C1460 1.499 . S
C1463 C1464 1.373 . S
C1463 C1465 1.389 1_556 S
C1464 H1437 0.950 1_565 S
C1464 C1450 1.377 . S
C1464 C1463 1.373 . S
C1465 C1449 1.377 . S
C1465 C1463 1.389 1_554 S
C1465 C1466 1.524 . S
C1466 C1465 1.524 . S
C1466 C1467 1.397 . S
C1466 C1471 1.363 . S
C1467 H1438 0.950 1_554 S
C1467 C1466 1.397 . S
C1467 C1468 1.334 . S
C1468 H1439 0.950 . S
C1468 C1467 1.334 . S
C1468 C1469 1.287 . S
C1469 C1468 1.287 . S
C1469 C1470 1.524 . S
C1469 H1472 0.999 . S
C1470 H1440 0.950 . S
C1470 C1469 1.524 . S
C1470 C1471 1.415 . S
C1471 H1441 0.950 . S
C1471 C1466 1.363 . S
C1471 C1470 1.415 . S
H1472 C1469 0.999 . S
H1473 C1454 0.913 . S
H1474 C1492 0.951 . S
H1475 C1494 0.951 . S
H1476 C1496 0.950 . S
H1477 C1497 0.950 . S
H1478 C1499 0.950 . S
H1479 C1502 0.950 . S
H1480 C1503 0.950 . S
H1481 C1505 0.950 . S
H1482 C1506 0.950 . S
H1483 C1507 0.951 . S
H1484 C1509 0.951 . S
H1485 C1511 0.950 . S
H1486 C1512 0.950 . S
H1487 C1514 0.950 . S
H1488 C1517 0.950 . S
H1489 C1518 0.950 . S
H1490 C1520 0.950 . S
H1491 C1521 0.950 . S
C1492 H1474 0.951 . S
C1492 C1493 1.366 . S
C1492 C1494 1.388 . S
C1493 C1492 1.366 . S
C1493 C1497 1.385 . S
C1494 H1475 0.951 . S
C1494 C1492 1.388 . S
C1494 C1495 1.366 . S
C1495 C1494 1.366 . S
C1495 C1496 1.414 . S
C1495 C1498 1.499 . S
C1496 H1476 0.950 . S
C1496 C1495 1.414 . S
C1496 C1497 1.374 . S
C1497 H1477 0.950 . S
C1497 C1493 1.385 . S
C1497 C1496 1.374 . S
C1498 C1495 1.499 . S
C1498 C1499 1.373 . S
C1498 C1500 1.389 . S
C1499 H1478 0.950 . S
C1499 C1498 1.373 . S
C1499 C1515 1.377 . S
C1500 C1498 1.389 . S
C1500 C1501 1.524 . S
C1500 C1514 1.377 . S
C1501 C1500 1.524 . S
C1501 C1502 1.397 . S
C1501 C1506 1.363 . S
C1502 H1479 0.950 . S
C1502 C1501 1.397 . S
C1502 C1503 1.334 . S
C1503 H1480 0.950 . S
C1503 C1502 1.334 . S
C1503 C1504 1.287 . S
C1504 C1503 1.287 . S
C1504 C1505 1.524 . S
C1504 H1523 0.913 . S
C1505 H1481 0.950 . S
C1505 C1504 1.524 . S
C1505 C1506 1.415 . S
C1506 H1482 0.950 . S
C1506 C1501 1.363 . S
C1506 C1505 1.415 . S
C1507 H1483 0.951 . S
C1507 C1508 1.366 . S
C1507 C1509 1.388 . S
C1508 C1507 1.366 . S
C1508 C1512 1.385 . S
C1509 H1484 0.951 . S
C1509 C1507 1.388 . S
C1509 C1510 1.366 . S
C1510 C1509 1.366 . S
C1510 C1511 1.414 . S
C1510 C1513 1.499 . S
C1511 H1485 0.950 . S
C1511 C1510 1.414 . S
C1511 C1512 1.374 . S
C1512 H1486 0.950 . S
C1512 C1508 1.385 . S
C1512 C1511 1.374 . S
C1513 C1510 1.499 . S
C1513 C1514 1.373 . S
C1513 C1515 1.389 . S
C1514 H1487 0.950 . S
C1514 C1500 1.377 . S
C1514 C1513 1.373 . S
C1515 C1499 1.377 . S
C1515 C1513 1.389 . S
C1515 C1516 1.524 . S
C1516 C1515 1.524 . S
C1516 C1517 1.397 . S
C1516 C1521 1.363 . S
C1517 H1488 0.950 . S
C1517 C1516 1.397 . S
C1517 C1518 1.334 . S
C1518 H1489 0.950 . S
C1518 C1517 1.334 . S
C1518 C1519 1.287 . S
C1519 C1518 1.287 . S
C1519 C1520 1.524 . S
C1519 H1522 0.999 . S
C1520 H1490 0.950 . S
C1520 C1519 1.524 . S
C1520 C1521 1.415 . S
C1521 H1491 0.950 . S
C1521 C1516 1.363 . S
C1521 C1520 1.415 . S
H1522 C1519 0.999 . S
H1523 C1504 0.913 . S
H1524 C1542 0.951 . S
H1525 C1544 0.951 . S
H1526 C1546 0.950 . S
H1527 C1547 0.950 . S
H1528 C1549 0.950 . S
H1529 C1552 0.950 . S
H1530 C1553 0.950 . S
H1531 C1555 0.950 . S
H1532 C1556 0.950 . S
H1533 C1557 0.951 . S
H1534 C1559 0.951 . S
H1535 C1561 0.950 . S
H1536 C1562 0.950 . S
H1537 C1564 0.950 . S
H1538 C1567 0.950 . S
H1539 C1568 0.950 . S
H1540 C1570 0.950 . S
H1541 C1571 0.950 . S
C1542 H1524 0.951 . S
C1542 C1543 1.366 . S
C1542 C1544 1.388 . S
C1543 C1542 1.366 . S
C1543 C1547 1.385 . S
C1544 H1525 0.951 . S
C1544 C1542 1.388 . S
C1544 C1545 1.366 . S
C1545 C1544 1.366 . S
C1545 C1546 1.414 . S
C1545 C1548 1.499 . S
C1546 H1526 0.950 . S
C1546 C1545 1.414 . S
C1546 C1547 1.374 . S
C1547 H1527 0.950 . S
C1547 C1543 1.385 . S
C1547 C1546 1.374 . S
C1548 C1545 1.499 . S
C1548 C1549 1.373 . S
C1548 C1550 1.389 . S
C1549 H1528 0.950 . S
C1549 C1548 1.373 . S
C1549 C1565 1.377 . S
C1550 C1548 1.389 . S
C1550 C1551 1.524 . S
C1550 C1564 1.377 . S
C1551 C1550 1.524 . S
C1551 C1552 1.397 . S
C1551 C1556 1.363 . S
C1552 H1529 0.950 . S
C1552 C1551 1.397 . S
C1552 C1553 1.334 . S
C1553 H1530 0.950 . S
C1553 C1552 1.334 . S
C1553 C1554 1.287 . S
C1554 C1553 1.287 . S
C1554 C1555 1.524 . S
C1554 H1573 0.913 . S
C1555 H1531 0.950 . S
C1555 C1554 1.524 . S
C1555 C1556 1.415 . S
C1556 H1532 0.950 . S
C1556 C1551 1.363 . S
C1556 C1555 1.415 . S
C1557 H1533 0.951 . S
C1557 C1558 1.366 . S
C1557 C1559 1.388 . S
C1558 C1557 1.366 . S
C1558 C1562 1.385 . S
C1559 H1534 0.951 . S
C1559 C1557 1.388 . S
C1559 C1560 1.366 . S
C1560 C1559 1.366 . S
C1560 C1561 1.414 . S
C1560 C1563 1.499 . S
C1561 H1535 0.950 . S
C1561 C1560 1.414 . S
C1561 C1562 1.374 . S
C1562 H1536 0.950 . S
C1562 C1558 1.385 . S
C1562 C1561 1.374 . S
C1563 C1560 1.499 . S
C1563 C1564 1.373 . S
C1563 C1565 1.389 . S
C1564 H1537 0.950 . S
C1564 C1550 1.377 . S
C1564 C1563 1.373 . S
C1565 C1549 1.377 . S
C1565 C1563 1.389 . S
C1565 C1566 1.524 . S
C1566 C1565 1.524 . S
C1566 C1567 1.397 . S
C1566 C1571 1.363 . S
C1567 H1538 0.950 . S
C1567 C1566 1.397 . S
C1567 C1568 1.334 . S
C1568 H1539 0.950 . S
C1568 C1567 1.334 . S
C1568 C1569 1.287 . S
C1569 C1568 1.287 . S
C1569 C1570 1.524 . S
C1569 H1572 0.999 . S
C1570 H1540 0.950 . S
C1570 C1569 1.524 . S
C1570 C1571 1.415 . S
C1571 H1541 0.950 . S
C1571 C1566 1.363 . S
C1571 C1570 1.415 . S
H1572 C1569 0.999 . S
H1573 C1554 0.913 . S
H1574 C1592 0.951 . S
H1575 C1594 0.951 . S
H1576 C1596 0.950 . S
H1577 C1597 0.950 . S
H1578 C1599 0.950 . S
H1579 C1602 0.950 . S
H1580 C1603 0.950 . S
H1581 C1605 0.950 . S
H1582 C1606 0.950 . S
H1583 C1607 0.951 . S
H1584 C1609 0.951 . S
H1585 C1611 0.950 . S
H1586 C1612 0.950 . S
H1587 C1614 0.950 . S
H1588 C1617 0.950 . S
H1589 C1618 0.950 . S
H1590 C1620 0.950 . S
H1591 C1621 0.950 . S
C1592 H1574 0.951 . S
C1592 C1593 1.366 . S
C1592 C1594 1.388 . S
C1593 C1592 1.366 . S
C1593 C1597 1.385 . S
C1594 H1575 0.951 . S
C1594 C1592 1.388 . S
C1594 C1595 1.366 . S
C1595 C1594 1.366 . S
C1595 C1596 1.414 . S
C1595 C1598 1.499 . S
C1596 H1576 0.950 . S
C1596 C1595 1.414 . S
C1596 C1597 1.374 . S
C1597 H1577 0.950 . S
C1597 C1593 1.385 . S
C1597 C1596 1.374 . S
C1598 C1595 1.499 . S
C1598 C1599 1.373 . S
C1598 C1600 1.389 . S
C1599 H1578 0.950 . S
C1599 C1598 1.373 . S
C1599 C1615 1.377 1_556 S
C1600 C1598 1.389 . S
C1600 C1601 1.524 . S
C1600 C1614 1.377 1_556 S
C1601 C1600 1.524 . S
C1601 C1602 1.397 . S
C1601 C1606 1.363 . S
C1602 H1579 0.950 . S
C1602 C1601 1.397 . S
C1602 C1603 1.334 . S
C1603 H1580 0.950 . S
C1603 C1602 1.334 . S
C1603 C1604 1.287 . S
C1604 C1603 1.287 . S
C1604 C1605 1.524 . S
C1604 H1623 0.913 . S
C1605 H1581 0.950 . S
C1605 C1604 1.524 . S
C1605 C1606 1.415 . S
C1606 H1582 0.950 . S
C1606 C1601 1.363 . S
C1606 C1605 1.415 . S
C1607 H1583 0.951 . S
C1607 C1608 1.366 . S
C1607 C1609 1.388 . S
C1608 C1607 1.366 . S
C1608 C1612 1.385 . S
C1609 H1584 0.951 . S
C1609 C1607 1.388 . S
C1609 C1610 1.366 . S
C1610 C1609 1.366 . S
C1610 C1611 1.414 . S
C1610 C1613 1.499 . S
C1611 H1585 0.950 . S
C1611 C1610 1.414 . S
C1611 C1612 1.374 . S
C1612 H1586 0.950 . S
C1612 C1608 1.385 . S
C1612 C1611 1.374 . S
C1613 C1610 1.499 . S
C1613 C1614 1.373 . S
C1613 C1615 1.389 . S
C1614 H1587 0.950 . S
C1614 C1600 1.377 1_554 S
C1614 C1613 1.373 . S
C1615 C1599 1.377 1_554 S
C1615 C1613 1.389 . S
C1615 C1616 1.524 . S
C1616 C1615 1.524 . S
C1616 C1617 1.397 . S
C1616 C1621 1.363 . S
C1617 H1588 0.950 . S
C1617 C1616 1.397 . S
C1617 C1618 1.334 . S
C1618 H1589 0.950 . S
C1618 C1617 1.334 . S
C1618 C1619 1.287 . S
C1619 C1618 1.287 . S
C1619 C1620 1.524 . S
C1619 H1622 0.999 . S
C1620 H1590 0.950 . S
C1620 C1619 1.524 . S
C1620 C1621 1.415 . S
C1621 H1591 0.950 . S
C1621 C1616 1.363 . S
C1621 C1620 1.415 . S
H1622 C1619 0.999 . S
H1623 C1604 0.913 . S
H1624 C1642 0.951 . S
H1625 C1644 0.951 . S
H1626 C1646 0.950 . S
H1627 C1647 0.950 . S
H1628 C1649 0.950 . S
H1629 C1652 0.950 . S
H1630 C1653 0.950 . S
H1631 C1655 0.950 . S
H1632 C1656 0.950 . S
H1633 C1657 0.951 . S
H1634 C1659 0.951 . S
H1635 C1661 0.950 . S
H1636 C1662 0.950 . S
H1637 C1664 0.950 . S
H1638 C1667 0.950 . S
H1639 C1668 0.950 . S
H1640 C1670 0.950 . S
H1641 C1671 0.950 . S
C1642 H1624 0.951 . S
C1642 C1643 1.366 . S
C1642 C1644 1.388 . S
C1643 C1642 1.366 . S
C1643 C1647 1.385 . S
C1644 H1625 0.951 . S
C1644 C1642 1.388 . S
C1644 C1645 1.366 . S
C1645 C1644 1.366 . S
C1645 C1646 1.414 . S
C1645 C1648 1.499 . S
C1646 H1626 0.950 . S
C1646 C1645 1.414 . S
C1646 C1647 1.374 . S
C1647 H1627 0.950 . S
C1647 C1643 1.385 . S
C1647 C1646 1.374 . S
C1648 C1645 1.499 . S
C1648 C1649 1.373 . S
C1648 C1650 1.389 . S
C1649 H1628 0.950 . S
C1649 C1648 1.373 . S
C1649 C1665 1.377 . S
C1650 C1648 1.389 . S
C1650 C1651 1.524 . S
C1650 C1664 1.377 . S
C1651 C1650 1.524 . S
C1651 C1652 1.397 . S
C1651 C1656 1.363 . S
C1652 H1629 0.950 . S
C1652 C1651 1.397 . S
C1652 C1653 1.334 . S
C1653 H1630 0.950 . S
C1653 C1652 1.334 . S
C1653 C1654 1.287 . S
C1654 C1653 1.287 . S
C1654 C1655 1.524 . S
C1654 H1673 0.913 . S
C1655 H1631 0.950 . S
C1655 C1654 1.524 . S
C1655 C1656 1.415 . S
C1656 H1632 0.950 . S
C1656 C1651 1.363 . S
C1656 C1655 1.415 . S
C1657 H1633 0.951 . S
C1657 C1658 1.366 . S
C1657 C1659 1.388 . S
C1658 C1657 1.366 . S
C1658 C1662 1.385 . S
C1659 H1634 0.951 . S
C1659 C1657 1.388 . S
C1659 C1660 1.366 . S
C1660 C1659 1.366 . S
C1660 C1661 1.414 . S
C1660 C1663 1.499 . S
C1661 H1635 0.950 . S
C1661 C1660 1.414 . S
C1661 C1662 1.374 . S
C1662 H1636 0.950 . S
C1662 C1658 1.385 . S
C1662 C1661 1.374 . S
C1663 C1660 1.499 . S
C1663 C1664 1.373 . S
C1663 C1665 1.389 . S
C1664 H1637 0.950 . S
C1664 C1650 1.377 . S
C1664 C1663 1.373 . S
C1665 C1649 1.377 . S
C1665 C1663 1.389 . S
C1665 C1666 1.524 . S
C1666 C1665 1.524 . S
C1666 C1667 1.397 . S
C1666 C1671 1.363 . S
C1667 H1638 0.950 . S
C1667 C1666 1.397 . S
C1667 C1668 1.334 . S
C1668 H1639 0.950 . S
C1668 C1667 1.334 . S
C1668 C1669 1.287 . S
C1669 C1668 1.287 . S
C1669 C1670 1.524 . S
C1669 H1672 0.999 . S
C1670 H1640 0.950 . S
C1670 C1669 1.524 . S
C1670 C1671 1.415 . S
C1671 H1641 0.950 . S
C1671 C1666 1.363 . S
C1671 C1670 1.415 . S
H1672 C1669 0.999 . S
H1673 C1654 0.913 . S
H1674 C1692 0.951 . S
H1675 C1694 0.951 . S
H1676 C1696 0.950 . S
H1677 C1697 0.950 . S
H1678 C1699 0.950 . S
H1679 C1702 0.950 . S
H1680 C1703 0.950 . S
H1681 C1705 0.950 . S
H1682 C1706 0.950 . S
H1683 C1707 0.951 . S
H1684 C1709 0.951 . S
H1685 C1711 0.950 . S
H1686 C1712 0.950 . S
H1687 C1714 0.950 . S
H1688 C1717 0.950 . S
H1689 C1718 0.950 . S
H1690 C1720 0.950 . S
H1691 C1721 0.950 . S
C1692 H1674 0.951 . S
C1692 C1693 1.366 . S
C1692 C1694 1.388 . S
C1693 C1692 1.366 . S
C1693 C1697 1.385 . S
C1694 H1675 0.951 . S
C1694 C1692 1.388 . S
C1694 C1695 1.366 . S
C1695 C1694 1.366 . S
C1695 C1696 1.414 . S
C1695 C1698 1.499 . S
C1696 H1676 0.950 . S
C1696 C1695 1.414 . S
C1696 C1697 1.374 . S
C1697 H1677 0.950 . S
C1697 C1693 1.385 . S
C1697 C1696 1.374 . S
C1698 C1695 1.499 . S
C1698 C1699 1.373 . S
C1698 C1700 1.389 . S
C1699 H1678 0.950 . S
C1699 C1698 1.373 . S
C1699 C1715 1.377 . S
C1700 C1698 1.389 . S
C1700 C1701 1.524 . S
C1700 C1714 1.377 . S
C1701 C1700 1.524 . S
C1701 C1702 1.397 . S
C1701 C1706 1.363 . S
C1702 H1679 0.950 . S
C1702 C1701 1.397 . S
C1702 C1703 1.334 . S
C1703 H1680 0.950 . S
C1703 C1702 1.334 . S
C1703 C1704 1.287 . S
C1704 C1703 1.287 . S
C1704 C1705 1.524 . S
C1704 H1723 0.913 . S
C1705 H1681 0.950 . S
C1705 C1704 1.524 . S
C1705 C1706 1.415 . S
C1706 H1682 0.950 . S
C1706 C1701 1.363 . S
C1706 C1705 1.415 . S
C1707 H1683 0.951 . S
C1707 C1708 1.366 . S
C1707 C1709 1.388 . S
C1708 C1707 1.366 . S
C1708 C1712 1.385 . S
C1709 H1684 0.951 . S
C1709 C1707 1.388 . S
C1709 C1710 1.366 . S
C1710 C1709 1.366 . S
C1710 C1711 1.414 . S
C1710 C1713 1.499 . S
C1711 H1685 0.950 . S
C1711 C1710 1.414 . S
C1711 C1712 1.374 . S
C1712 H1686 0.950 . S
C1712 C1708 1.385 . S
C1712 C1711 1.374 . S
C1713 C1710 1.499 . S
C1713 C1714 1.373 . S
C1713 C1715 1.389 . S
C1714 H1687 0.950 . S
C1714 C1700 1.377 . S
C1714 C1713 1.373 . S
C1715 C1699 1.377 . S
C1715 C1713 1.389 . S
C1715 C1716 1.524 . S
C1716 C1715 1.524 . S
C1716 C1717 1.397 . S
C1716 C1721 1.363 . S
C1717 H1688 0.950 . S
C1717 C1716 1.397 . S
C1717 C1718 1.334 . S
C1718 H1689 0.950 . S
C1718 C1717 1.334 . S
C1718 C1719 1.287 . S
C1719 C1718 1.287 . S
C1719 C1720 1.524 . S
C1719 H1722 0.999 . S
C1720 H1690 0.950 . S
C1720 C1719 1.524 . S
C1720 C1721 1.415 . S
C1721 H1691 0.950 . S
C1721 C1716 1.363 . S
C1721 C1720 1.415 . S
H1722 C1719 0.999 . S
H1723 C1704 0.913 . S
H1724 C1742 0.951 . S
H1725 C1744 0.951 . S
H1726 C1746 0.950 1_655 S
H1727 C1747 0.950 1_655 S
H1728 C1749 0.950 1_655 S
H1729 C1752 0.950 . S
H1730 C1753 0.950 . S
H1731 C1755 0.950 . S
H1732 C1756 0.950 . S
H1733 C1757 0.951 1_655 S
H1734 C1759 0.951 1_655 S
H1735 C1761 0.950 . S
H1736 C1762 0.950 . S
H1737 C1764 0.950 . S
H1738 C1767 0.950 . S
H1739 C1768 0.950 . S
H1740 C1770 0.950 . S
H1741 C1771 0.950 . S
C1742 H1724 0.951 . S
C1742 C1743 1.366 . S
C1742 C1744 1.388 . S
C1743 C1742 1.366 . S
C1743 C1747 1.385 . S
C1744 H1725 0.951 . S
C1744 C1742 1.388 . S
C1744 C1745 1.366 . S
C1745 C1744 1.366 . S
C1745 C1746 1.414 . S
C1745 C1748 1.499 . S
C1746 H1726 0.950 1_455 S
C1746 C1745 1.414 . S
C1746 C1747 1.374 . S
C1747 H1727 0.950 1_455 S
C1747 C1743 1.385 . S
C1747 C1746 1.374 . S
C1748 C1745 1.499 . S
C1748 C1749 1.373 . S
C1748 C1750 1.389 . S
C1749 H1728 0.950 1_455 S
C1749 C1748 1.373 . S
C1749 C1765 1.377 . S
C1750 C1748 1.389 . S
C1750 C1751 1.524 . S
C1750 C1764 1.377 . S
C1751 C1750 1.524 . S
C1751 C1752 1.397 . S
C1751 C1756 1.363 . S
C1752 H1729 0.950 . S
C1752 C1751 1.397 . S
C1752 C1753 1.334 . S
C1753 H1730 0.950 . S
C1753 C1752 1.334 . S
C1753 C1754 1.287 . S
C1754 C1753 1.287 . S
C1754 C1755 1.524 . S
C1754 H1773 0.913 . S
C1755 H1731 0.950 . S
C1755 C1754 1.524 . S
C1755 C1756 1.415 . S
C1756 H1732 0.950 . S
C1756 C1751 1.363 . S
C1756 C1755 1.415 . S
C1757 H1733 0.951 1_455 S
C1757 C1758 1.366 . S
C1757 C1759 1.388 . S
C1758 C1757 1.366 . S
C1758 C1762 1.385 . S
C1759 H1734 0.951 1_455 S
C1759 C1757 1.388 . S
C1759 C1760 1.366 . S
C1760 C1759 1.366 . S
C1760 C1761 1.414 . S
C1760 C1763 1.499 . S
C1761 H1735 0.950 . S
C1761 C1760 1.414 . S
C1761 C1762 1.374 . S
C1762 H1736 0.950 . S
C1762 C1758 1.385 . S
C1762 C1761 1.374 . S
C1763 C1760 1.499 . S
C1763 C1764 1.373 . S
C1763 C1765 1.389 . S
C1764 H1737 0.950 . S
C1764 C1750 1.377 . S
C1764 C1763 1.373 . S
C1765 C1749 1.377 . S
C1765 C1763 1.389 . S
C1765 C1766 1.524 1_455 S
C1766 C1765 1.524 1_655 S
C1766 C1767 1.397 . S
C1766 C1771 1.363 . S
C1767 H1738 0.950 . S
C1767 C1766 1.397 . S
C1767 C1768 1.334 . S
C1768 H1739 0.950 . S
C1768 C1767 1.334 . S
C1768 C1769 1.287 . S
C1769 C1768 1.287 . S
C1769 C1770 1.524 . S
C1769 H1772 0.999 . S
C1770 H1740 0.950 . S
C1770 C1769 1.524 . S
C1770 C1771 1.415 . S
C1771 H1741 0.950 . S
C1771 C1766 1.363 . S
C1771 C1770 1.415 . S
H1772 C1769 0.999 . S
H1773 C1754 0.913 . S
H1774 C1792 0.951 . S
H1775 C1794 0.951 . S
H1776 C1796 0.950 . S
H1777 C1797 0.950 . S
H1778 C1799 0.950 . S
H1779 C1802 0.950 . S
H1780 C1803 0.950 . S
H1781 C1805 0.950 . S
H1782 C1806 0.950 1_545 S
H1783 C1807 0.951 . S
H1784 C1809 0.951 . S
H1785 C1811 0.950 . S
H1786 C1812 0.950 . S
H1787 C1814 0.950 . S
H1788 C1817 0.950 . S
H1789 C1818 0.950 . S
H1790 C1820 0.950 . S
H1791 C1821 0.950 . S
C1792 H1774 0.951 . S
C1792 C1793 1.366 . S
C1792 C1794 1.388 . S
C1793 C1792 1.366 . S
C1793 C1797 1.385 . S
C1794 H1775 0.951 . S
C1794 C1792 1.388 . S
C1794 C1795 1.366 . S
C1795 C1794 1.366 . S
C1795 C1796 1.414 . S
C1795 C1798 1.499 . S
C1796 H1776 0.950 . S
C1796 C1795 1.414 . S
C1796 C1797 1.374 . S
C1797 H1777 0.950 . S
C1797 C1793 1.385 . S
C1797 C1796 1.374 . S
C1798 C1795 1.499 . S
C1798 C1799 1.373 . S
C1798 C1800 1.389 . S
C1799 H1778 0.950 . S
C1799 C1798 1.373 . S
C1799 C1815 1.377 . S
C1800 C1798 1.389 . S
C1800 C1801 1.524 1_545 S
C1800 C1814 1.377 . S
C1801 C1800 1.524 1_565 S
C1801 C1802 1.397 . S
C1801 C1806 1.363 . S
C1802 H1779 0.950 . S
C1802 C1801 1.397 . S
C1802 C1803 1.334 . S
C1803 H1780 0.950 . S
C1803 C1802 1.334 . S
C1803 C1804 1.287 . S
C1804 C1803 1.287 . S
C1804 C1805 1.524 . S
C1804 H1823 0.913 . S
C1805 H1781 0.950 . S
C1805 C1804 1.524 . S
C1805 C1806 1.415 . S
C1806 H1782 0.950 1_565 S
C1806 C1801 1.363 . S
C1806 C1805 1.415 . S
C1807 H1783 0.951 . S
C1807 C1808 1.366 . S
C1807 C1809 1.388 . S
C1808 C1807 1.366 . S
C1808 C1812 1.385 . S
C1809 H1784 0.951 . S
C1809 C1807 1.388 . S
C1809 C1810 1.366 . S
C1810 C1809 1.366 . S
C1810 C1811 1.414 . S
C1810 C1813 1.499 . S
C1811 H1785 0.950 . S
C1811 C1810 1.414 . S
C1811 C1812 1.374 . S
C1812 H1786 0.950 . S
C1812 C1808 1.385 . S
C1812 C1811 1.374 . S
C1813 C1810 1.499 . S
C1813 C1814 1.373 . S
C1813 C1815 1.389 . S
C1814 H1787 0.950 . S
C1814 C1800 1.377 . S
C1814 C1813 1.373 . S
C1815 C1799 1.377 . S
C1815 C1813 1.389 . S
C1815 C1816 1.524 . S
C1816 C1815 1.524 . S
C1816 C1817 1.397 . S
C1816 C1821 1.363 . S
C1817 H1788 0.950 . S
C1817 C1816 1.397 . S
C1817 C1818 1.334 . S
C1818 H1789 0.950 . S
C1818 C1817 1.334 . S
C1818 C1819 1.287 . S
C1819 C1818 1.287 . S
C1819 C1820 1.524 . S
C1819 H1822 0.999 . S
C1820 H1790 0.950 . S
C1820 C1819 1.524 . S
C1820 C1821 1.415 . S
C1821 H1791 0.950 . S
C1821 C1816 1.363 . S
C1821 C1820 1.415 . S
H1822 C1819 0.999 . S
H1823 C1804 0.913 . S
C243 C8 1.840 . S
C258 C106 1.840 . S
C293 C22 1.839 . S
C308 C64 1.839 . S
C343 C78 1.839 . S
C358 C36 1.839 . S
C393 C50 1.840 . S
C408 C92 1.840 . S
C443 C120 1.840 . S
C458 C176 1.839 . S
C493 C134 1.839 . S
C508 C204 1.840 . S
C543 C162 1.839 . S
C558 C148 1.839 . S
C593 C218 1.839 . S
C608 C190 1.839 . S
C643 C3 0.523 . S
C658 C87 0.523 . S
C693 C105 1.404 1_545 S
C708 C21 1.405 1_565 S
C743 C31 0.524 . S
C758 C59 0.522 . S
C793 C77 1.405 1_565 S
C808 C49 1.405 1_545 S
C843 C9 1.343 . S
C858 C205 1.343 . S
C893 C157 0.523 . S
C908 C17 0.522 . S
C943 C191 1.343 . S
C958 C37 1.343 . S
C993 C171 0.523 . S
C1008 C45 0.522 . S
C1043 C149 1.343 . S
C1058 C65 1.343 . S
C1093 C73 0.523 . S
C1108 C213 0.523 . S
C1143 C93 1.343 . S
C1158 C121 1.343 . S
C1193 C101 0.522 . S
C1208 C129 0.523 . S
C1243 C7 1.404 . S
C1258 C63 1.404 . S
C1293 C119 1.404 . S
C1308 C189 1.403 . S
C1343 C177 1.343 . S
C1358 C135 1.343 . S
C1393 C203 1.404 . S
C1408 C147 1.404 . S
C1443 C107 1.343 . S
C1458 C51 1.344 . S
C1493 C35 1.403 . S
C1508 C91 1.403 . S
C1543 C163 1.344 . S
C1558 C219 1.344 . S
C1593 C185 0.524 . S
C1608 C143 0.522 . S
C1643 C217 1.405 . S
C1658 C175 1.405 . S
C1693 C199 0.523 . S
C1708 C115 0.523 . S
C1743 C161 1.405 . S
C1758 C133 1.404 . S
C1793 C23 1.343 . S
C1808 C79 1.344 . S
