# Generated by pormake.
# Topology mdf, (4)-cn, num edge types: 1
# Building blocks:
#     Node 0, Type 0, BuildingBlock: QUQFOY_clean_sbu_1, # of connection points: 4
#     Node 1, Type 0, BuildingBlock: QUQFOY_clean_sbu_1, # of connection points: 4
#     Node 2, Type 0, BuildingBlock: QUQFOY_clean_sbu_1, # of connection points: 4
#     Node 3, Type 0, BuildingBlock: QUQFOY_clean_sbu_1, # of connection points: 4
#     Node 4, Type 0, BuildingBlock: QUQFOY_clean_sbu_1, # of connection points: 4
#     Node 5, Type 0, BuildingBlock: QUQFOY_clean_sbu_1, # of connection points: 4
#     Node 6, Type 0, BuildingBlock: QUQFOY_clean_sbu_1, # of connection points: 4
#     Node 7, Type 0, BuildingBlock: QUQFOY_clean_sbu_1, # of connection points: 4
#     Edge 8, Type (0, 0), BuildingBlock: FUNLAD_clean_linker_1, # of connection points: 2
#     Edge 9, Type (0, 0), BuildingBlock: FUNLAD_clean_linker_1, # of connection points: 2
#     Edge 10, Type (0, 0), BuildingBlock: FUNLAD_clean_linker_1, # of connection points: 2
#     Edge 11, Type (0, 0), BuildingBlock: FUNLAD_clean_linker_1, # of connection points: 2
#     Edge 12, Type (0, 0), BuildingBlock: FUNLAD_clean_linker_1, # of connection points: 2
#     Edge 13, Type (0, 0), BuildingBlock: FUNLAD_clean_linker_1, # of connection points: 2
#     Edge 14, Type (0, 0), BuildingBlock: FUNLAD_clean_linker_1, # of connection points: 2
#     Edge 15, Type (0, 0), BuildingBlock: FUNLAD_clean_linker_1, # of connection points: 2
#     Edge 16, Type (0, 0), BuildingBlock: FUNLAD_clean_linker_1, # of connection points: 2
#     Edge 17, Type (0, 0), BuildingBlock: FUNLAD_clean_linker_1, # of connection points: 2
#     Edge 18, Type (0, 0), BuildingBlock: FUNLAD_clean_linker_1, # of connection points: 2
#     Edge 19, Type (0, 0), BuildingBlock: FUNLAD_clean_linker_1, # of connection points: 2
#     Edge 20, Type (0, 0), BuildingBlock: FUNLAD_clean_linker_1, # of connection points: 2
#     Edge 21, Type (0, 0), BuildingBlock: FUNLAD_clean_linker_1, # of connection points: 2
#     Edge 22, Type (0, 0), BuildingBlock: FUNLAD_clean_linker_1, # of connection points: 2
#     Edge 23, Type (0, 0), BuildingBlock: FUNLAD_clean_linker_1, # of connection points: 2
# Relax obj value: 0.009
# Max RMSD: 0.065
# Mean RMSD: 0.065
data_MOF--net-mdf--node1-QUQFOY_clean_sbu_1--edge1-FUNLAD_clean_linker_1
_symmetry_space_group_name_H-M    P1
_symmetry_Int_Tables_number       1
_symmetry_cell_setting            triclinic
loop_
_symmetry_equiv_pos_as_xyz
'x, y, z'
_cell_length_a     40.92441
_cell_length_b     40.814196
_cell_length_c     12.885978
_cell_angle_alpha  90.068525
_cell_angle_beta   89.69675
_cell_angle_gamma 89.706127
loop_
_atom_site_label
_atom_site_type_symbol
_atom_site_fract_x
_atom_site_fract_y
_atom_site_fract_z
_atom_type_partial_charge
O0 O 0.3126 0.50557 0.37616 0.0
Cd1 Cd 0.27736 0.53373 0.30239 0.0
Cd2 Cd 0.24967 0.53247 0.49567 0.0
O3 O 0.29277 0.50818 0.5359 0.0
O4 O 0.29927 0.55286 0.1766 0.0
O5 O 0.2794 0.58306 0.3051 0.0
C6 C 0.29459 0.58143 0.21727 0.0
C7 C 0.23149 0.58031 0.58015 0.0
C8 C 0.31461 0.49838 0.47201 0.0
C9 C 0.21317 0.49897 0.32133 0.0
O10 O 0.21493 0.50486 0.41817 0.0
O11 O 0.2349 0.50969 0.25923 0.0
O12 O 0.22708 0.55179 0.62099 0.0
O13 O 0.24715 0.58182 0.49315 0.0
O14 O 0.52742 0.71664 0.64783 0.0
Cd15 Cd 0.4994 0.75119 0.72624 0.0
Cd16 Cd 0.49681 0.77766 0.53313 0.0
O17 O 0.52117 0.73513 0.48816 0.0
O18 O 0.48836 0.72898 0.85993 0.0
O19 O 0.45086 0.74365 0.74587 0.0
C20 C 0.45815 0.72961 0.83258 0.0
C21 C 0.44799 0.79413 0.45446 0.0
C22 C 0.5327 0.71401 0.5508 0.0
C23 C 0.53168 0.8165 0.69822 0.0
O24 O 0.52482 0.81371 0.60244 0.0
O25 O 0.52215 0.79505 0.76306 0.0
O26 O 0.4759 0.79864 0.40969 0.0
O27 O 0.44763 0.77937 0.54307 0.0
O28 O 0.31555 0.03127 0.89171 0.0
Cd29 Cd 0.28146 1.00374 0.9731 0.0
Cd30 Cd 0.25328 1.00174 0.7828 0.0
O31 O 0.29522 0.0259 0.73421 0.0
O32 O 0.30456 0.99175 0.10425 0.0
O33 O 0.28822 0.9548 0.99046 0.0
C34 C 0.30297 0.96151 0.0762 0.0
C35 C 0.23745 0.95201 0.70783 0.0
C36 C 0.3171 0.03686 0.79468 0.0
C37 C 0.21596 0.03696 0.95262 0.0
O38 O 0.21772 0.03001 0.85644 0.0
O39 O 0.23808 0.02725 0.01465 0.0
O40 O 0.23172 0.97962 0.66241 0.0
O41 O 0.25285 0.95251 0.79502 0.0
O42 O 0.9968 0.71874 0.13044 0.0
Cd43 Cd 0.02298 0.75469 0.05448 0.0
Cd44 Cd 0.03123 0.77612 0.25687 0.0
O45 O 1.00925 0.73149 0.29211 0.0
O46 O 0.03397 0.73466 0.91684 0.0
O47 O 0.07154 0.74731 0.03289 0.0
C48 C 0.06419 0.73427 0.94458 0.0
C49 C 0.07455 0.79655 0.35673 0.0
C50 C 0.99526 0.71275 0.22715 0.0
C51 C 0.9913 0.81851 0.1075 0.0
O52 O 1.00118 0.81271 0.199 0.0
O53 O 0.99881 0.79928 0.03302 0.0
O54 O 0.0451 0.79564 0.392 0.0
O55 O 0.08011 0.78432 0.26578 0.0
O56 O 0.81107 1.00373 0.80917 0.0
Cd57 Cd 0.77433 0.03348 0.75093 0.0
Cd58 Cd 0.75255 0.02467 0.95259 0.0
O59 O 0.79704 1.00058 0.97469 0.0
O60 O 0.79391 0.04763 0.61585 0.0
O61 O 0.78203 0.08259 0.74165 0.0
C62 C 0.79445 0.07716 0.65084 0.0
C63 C 0.73202 0.06623 0.06096 0.0
C64 C 0.81659 0.99354 0.90057 0.0
C65 C 0.71134 0.99678 0.77972 0.0
O66 O 0.71697 0.99829 0.87655 0.0
O67 O 0.73015 1.01101 0.71512 0.0
O68 O 0.73224 0.03598 0.08962 0.0
O69 O 0.74523 0.07341 0.97254 0.0
O70 O 0.02728 0.21906 0.14836 0.0
Cd71 Cd 0.99931 0.25518 0.2205 0.0
Cd72 Cd 1.00221 0.283 0.02936 0.0
O73 O 0.0258 0.23946 0.98972 0.0
O74 O 0.97697 0.23405 0.34179 0.0
O75 O 0.95022 0.25515 0.20855 0.0
C76 C 0.94952 0.23993 0.29632 0.0
C77 C 0.95998 0.30392 0.92573 0.0
C78 C 0.03482 0.21719 0.05257 0.0
C79 C 0.03472 0.31902 0.20716 0.0
O80 O 0.02934 0.31742 0.11011 0.0
O81 O 0.02364 0.29713 0.26794 0.0
O82 O 0.99015 0.3058 0.89752 0.0
O83 O 0.95337 0.28926 0.01204 0.0
O84 O 0.81268 0.52477 0.39809 0.0
Cd85 Cd 0.77643 0.49662 0.46642 0.0
Cd86 Cd 0.7505 0.50025 0.27373 0.0
O87 O 0.79454 0.52264 0.23712 0.0
O88 O 0.79703 0.47545 0.59006 0.0
O89 O 0.77813 0.4473 0.45645 0.0
C90 C 0.79264 0.44753 0.54521 0.0
C91 C 0.72885 0.45882 0.1688 0.0
C92 C 0.81581 0.53188 0.30246 0.0
C93 C 0.71342 0.53346 0.4491 0.0
O94 O 0.7163 0.52875 0.35189 0.0
O95 O 0.73406 0.52112 0.51158 0.0
O96 O 0.72844 0.48906 0.14042 0.0
O97 O 0.74269 0.45161 0.25576 0.0
O98 O 0.50348 0.21739 0.58541 0.0
Cd99 Cd 0.53122 0.25241 0.50875 0.0
Cd100 Cd 0.53278 0.2792 0.70308 0.0
O101 O 0.50844 0.23664 0.74496 0.0
O102 O 0.55066 0.2303 0.38276 0.0
O103 O 0.58041 0.24976 0.51146 0.0
C104 C 0.57904 0.23446 0.42394 0.0
C105 C 0.58051 0.29563 0.78823 0.0
C106 C 0.49758 0.21522 0.68227 0.0
C107 C 0.49771 0.31763 0.53525 0.0
O108 O 0.50501 0.31513 0.63084 0.0
O109 O 0.50723 0.29594 0.47041 0.0
O110 O 0.55206 0.3004 0.82941 0.0
O111 O 0.58199 0.28081 0.69988 0.0
H112 H 0.44283 0.6969 0.95862 0.0
C113 C 0.43362 0.7123 0.89638 0.0
H114 H 0.39198 0.72797 0.81448 0.0
H115 H 0.30901 0.60121 0.9112 0.0
H116 H 0.30751 0.60448 0.7234 0.0
H117 H 0.33908 0.64653 0.62978 0.0
H118 H 0.37176 0.68593 0.72307 0.0
C119 C 0.4013 0.71306 0.87761 0.0
C120 C 0.3785 0.69062 0.93451 0.0
C121 C 0.35981 0.66744 0.87835 0.0
C122 C 0.34237 0.6425 0.9322 0.0
C123 C 0.32339 0.6201 0.87419 0.0
C124 C 0.32219 0.62177 0.76635 0.0
C125 C 0.33991 0.64549 0.71367 0.0
C126 C 0.35859 0.66804 0.76847 0.0
H127 H 0.29754 0.63505 0.19288 0.0
C128 C 0.30695 0.61149 0.1667 0.0
H129 H 0.3398 0.58665 0.06767 0.0
H130 H 0.40256 0.73709 0.06603 0.0
H131 H 0.40445 0.73404 0.25411 0.0
H132 H 0.38116 0.68664 0.34678 0.0
H133 H 0.35474 0.64289 0.25287 0.0
C134 C 0.33072 0.61032 0.09417 0.0
C135 C 0.34434 0.64004 0.0419 0.0
C136 C 0.36158 0.66436 0.09846 0.0
C137 C 0.37735 0.69043 0.04469 0.0
C138 C 0.39199 0.71581 0.10297 0.0
C139 C 0.393 0.71449 0.21085 0.0
C140 C 0.37972 0.6879 0.263 0.0
C141 C 0.36429 0.66302 0.20793 0.0
H142 H 0.39416 0.79789 0.43838 0.0
C143 C 0.41734 0.80646 0.40753 0.0
H144 H 0.44107 0.8374 0.30087 0.0
H145 H 0.33999 0.86968 0.96702 0.0
H146 H 0.37585 0.83258 0.87326 0.0
H147 H 0.41663 0.799 0.96566 0.0
H148 H 0.42227 0.80295 0.15261 0.0
C149 C 0.41776 0.82929 0.33219 0.0
C150 C 0.38772 0.84323 0.28295 0.0
C151 C 0.38374 0.83984 0.17411 0.0
C152 C 0.35943 0.85844 0.12123 0.0
C153 C 0.35745 0.85575 0.01179 0.0
C154 C 0.37795 0.83452 0.95676 0.0
C155 C 0.40097 0.81568 0.00872 0.0
C156 C 0.40404 0.8183 0.11598 0.0
H157 H 0.33613 0.94474 0.19873 0.0
C158 C 0.31978 0.93617 0.13839 0.0
H159 H 0.30105 0.89506 0.0602 0.0
H160 H 0.3874 0.85583 0.49313 0.0
H161 H 0.34623 0.88614 0.58906 0.0
H162 H 0.29947 0.91164 0.49928 0.0
H163 H 0.29457 0.90807 0.31181 0.0
C164 C 0.31703 0.90374 0.12123 0.0
C165 C 0.33829 0.87967 0.17784 0.0
C166 C 0.33945 0.87961 0.288 0.0
C167 C 0.36503 0.86265 0.34045 0.0
C168 C 0.36754 0.86636 0.44942 0.0
C169 C 0.34414 0.88397 0.50562 0.0
C170 C 0.31791 0.89849 0.45506 0.0
C171 C 0.31553 0.8965 0.34751 0.0
H172 H 0.09115 0.82946 0.48004 0.0
C173 C 0.09977 0.81417 0.41631 0.0
H174 H 0.14045 0.79896 0.32792 0.0
H175 H 0.22528 0.92538 0.4068 0.0
H176 H 0.22671 0.91943 0.21955 0.0
H177 H 0.19456 0.8765 0.13284 0.0
H178 H 0.16156 0.83881 0.23246 0.0
C179 C 0.13184 0.81396 0.39221 0.0
C180 C 0.1551 0.83693 0.4449 0.0
C181 C 0.17384 0.85923 0.3848 0.0
C182 C 0.19147 0.88482 0.4345 0.0
C183 C 0.21067 0.90616 0.37284 0.0
C184 C 0.21183 0.90294 0.26531 0.0
C185 C 0.19381 0.87871 0.21655 0.0
C186 C 0.17493 0.85714 0.27503 0.0
H187 H 0.23599 0.89791 0.69319 0.0
C188 C 0.22599 0.92068 0.66306 0.0
H189 H 0.19283 0.94281 0.56009 0.0
H190 H 0.13214 0.79198 0.58395 0.0
H191 H 0.13072 0.79758 0.77163 0.0
H192 H 0.1538 0.8464 0.85656 0.0
H193 H 0.17957 0.88901 0.75548 0.0
C194 C 0.20239 0.9199 0.59068 0.0
C195 C 0.18947 0.889 0.54373 0.0
C196 C 0.17249 0.86542 0.60438 0.0
C197 C 0.15673 0.83855 0.55496 0.0
C198 C 0.14257 0.81384 0.61744 0.0
C199 C 0.14186 0.81661 0.72512 0.0
C200 C 0.15501 0.84401 0.77294 0.0
C201 C 0.17005 0.86824 0.71374 0.0
H202 H 0.07904 0.70133 0.8176 0.0
C203 C 0.08848 0.71625 0.88048 0.0
H204 H 0.1301 0.72969 0.96532 0.0
H205 H 0.21127 0.60045 0.88488 0.0
H206 H 0.20959 0.60424 0.07252 0.0
H207 H 0.17679 0.64709 0.15978 0.0
H208 H 0.14604 0.68673 0.0604 0.0
C209 C 0.12069 0.71523 0.90141 0.0
C210 C 0.14305 0.69117 0.84784 0.0
C211 C 0.16053 0.66771 0.90749 0.0
C212 C 0.17862 0.64224 0.85721 0.0
C213 C 0.19644 0.61972 0.9189 0.0
C214 C 0.19581 0.62168 0.02676 0.0
C215 C 0.17742 0.64585 0.07586 0.0
C216 C 0.15989 0.66858 0.0175 0.0
H217 H 0.22766 0.63398 0.60386 0.0
C218 C 0.21817 0.61047 0.6291 0.0
H219 H 0.18406 0.58589 0.72329 0.0
H220 H 0.12064 0.73692 0.71018 0.0
H221 H 0.12112 0.73257 0.52229 0.0
H222 H 0.14573 0.68447 0.43554 0.0
H223 H 0.17095 0.64113 0.5353 0.0
C224 C 0.19332 0.6095 0.698 0.0
C225 C 0.1785 0.63942 0.74739 0.0
C226 C 0.162 0.66359 0.6875 0.0
C227 C 0.14554 0.69018 0.7378 0.0
C228 C 0.1317 0.7153 0.67608 0.0
C229 C 0.13207 0.71326 0.56821 0.0
C230 C 0.14607 0.68625 0.51936 0.0
C231 C 0.16078 0.66161 0.57782 0.0
H232 H 0.82719 0.09416 0.52723 0.0
C233 C 0.81186 0.10264 0.59105 0.0
H234 H 0.7964 0.14325 0.67948 0.0
H235 H 0.92231 0.22871 0.59786 0.0
H236 H 0.91614 0.23042 0.78512 0.0
H237 H 0.87322 0.19834 0.87277 0.0
H238 H 0.83574 0.16509 0.77409 0.0
C239 C 0.81141 0.13477 0.61505 0.0
C240 C 0.83417 0.15826 0.56186 0.0
C241 C 0.85631 0.17716 0.62142 0.0
C242 C 0.88188 0.19477 0.5712 0.0
C243 C 0.9031 0.2141 0.63229 0.0
C244 C 0.89976 0.21543 0.73979 0.0
C245 C 0.87553 0.19744 0.78908 0.0
C246 C 0.85409 0.17842 0.73116 0.0
H247 H 0.89554 0.23894 0.31123 0.0
C248 C 0.91815 0.22882 0.34164 0.0
H249 H 0.93988 0.19562 0.44563 0.0
H250 H 0.78935 0.13523 0.42367 0.0
H251 H 0.79505 0.13365 0.23594 0.0
H252 H 0.84383 0.15664 0.15019 0.0
H253 H 0.88632 0.18248 0.25043 0.0
C254 C 0.91712 0.2053 0.41476 0.0
C255 C 0.88618 0.1926 0.46202 0.0
C256 C 0.86267 0.17557 0.40184 0.0
C257 C 0.83583 0.15984 0.45176 0.0
C258 C 0.81119 0.14563 0.38977 0.0
C259 C 0.81402 0.14483 0.28208 0.0
C260 C 0.8414 0.15793 0.2338 0.0
C261 C 0.86556 0.17302 0.29252 0.0
H262 H 0.94295 0.33693 0.80278 0.0
C263 C 0.93457 0.3203 0.86304 0.0
H264 H 0.89375 0.30051 0.9404 0.0
H265 H 0.80007 0.42063 0.84662 0.0
H266 H 0.79535 0.41435 0.03334 0.0
H267 H 0.82895 0.37361 0.12612 0.0
H268 H 0.86691 0.33851 0.03302 0.0
C269 C 0.90225 0.31682 0.87959 0.0
C270 C 0.87798 0.3377 0.82257 0.0
C271 C 0.85618 0.35835 0.87881 0.0
C272 C 0.8375 0.38259 0.82572 0.0
C273 C 0.81546 0.40246 0.88347 0.0
C274 C 0.8124 0.39901 0.99057 0.0
C275 C 0.83126 0.37602 0.04275 0.0
C276 C 0.853 0.35597 0.9881 0.0
H277 H 0.79657 0.39353 0.56079 0.0
C278 C 0.80488 0.41675 0.59213 0.0
H279 H 0.83521 0.44044 0.69984 0.0
H280 H 0.90754 0.29465 0.68897 0.0
H281 H 0.91169 0.30001 0.50161 0.0
H282 H 0.88582 0.34667 0.41161 0.0
H283 H 0.85458 0.38725 0.50715 0.0
C284 C 0.82737 0.41711 0.66801 0.0
C285 C 0.84131 0.38695 0.71708 0.0
C286 C 0.86121 0.36461 0.65981 0.0
C287 C 0.87832 0.33911 0.71243 0.0
C288 C 0.89578 0.31555 0.65315 0.0
C289 C 0.89812 0.31819 0.54566 0.0
C290 C 0.8834 0.34435 0.49498 0.0
C291 C 0.86526 0.36743 0.55095 0.0
H292 H 0.69617 0.44338 0.04365 0.0
C293 C 0.71153 0.43419 0.10584 0.0
H294 H 0.72721 0.39249 0.18825 0.0
H295 H 0.60105 0.30888 0.09441 0.0
H296 H 0.60461 0.30701 0.28212 0.0
H297 H 0.64659 0.33864 0.37472 0.0
H298 H 0.68563 0.37172 0.2805 0.0
C299 C 0.71231 0.40179 0.12522 0.0
C300 C 0.68997 0.37886 0.06895 0.0
C301 C 0.66699 0.35996 0.12569 0.0
C302 C 0.64208 0.3425 0.07246 0.0
C303 C 0.6199 0.32329 0.13099 0.0
C304 C 0.62174 0.32188 0.23877 0.0
C305 C 0.64542 0.33963 0.29086 0.0
C306 C 0.66776 0.35854 0.23554 0.0
H307 H 0.63402 0.29806 0.81178 0.0
C308 C 0.61061 0.30758 0.83863 0.0
H309 H 0.58614 0.34042 0.93864 0.0
H310 H 0.73619 0.40308 0.9363 0.0
H311 H 0.73301 0.40511 0.74828 0.0
H312 H 0.68563 0.38186 0.65677 0.0
H313 H 0.64207 0.35533 0.75176 0.0
C314 C 0.60966 0.33123 0.91146 0.0
C315 C 0.63945 0.34468 0.96287 0.0
C316 C 0.66363 0.36202 0.90568 0.0
C317 C 0.68968 0.37779 0.95878 0.0
C318 C 0.71494 0.39251 0.89987 0.0
C319 C 0.71354 0.3936 0.79202 0.0
C320 C 0.68697 0.38035 0.74052 0.0
C321 C 0.66219 0.36486 0.79622 0.0
H322 H 0.69884 0.08144 0.18691 0.0
C323 C 0.71405 0.09077 0.12428 0.0
H324 H 0.72834 0.13239 0.03966 0.0
H325 H 0.60061 0.21588 0.11883 0.0
H326 H 0.6053 0.21508 0.93127 0.0
H327 H 0.64789 0.18188 0.84433 0.0
H328 H 0.68641 0.1499 0.94398 0.0
C329 C 0.71355 0.1231 0.10323 0.0
C330 C 0.68978 0.14582 0.15658 0.0
C331 C 0.66695 0.164 0.0967 0.0
C332 C 0.6416 0.18231 0.14672 0.0
C333 C 0.61974 0.20085 0.08492 0.0
C334 C 0.62222 0.20073 0.97712 0.0
C335 C 0.64625 0.18212 0.92822 0.0
C336 C 0.66833 0.16387 0.98673 0.0
H337 H 0.63261 0.23046 0.40102 0.0
C338 C 0.60919 0.22122 0.37495 0.0
H339 H 0.5848 0.18761 0.27901 0.0
H340 H 0.73463 0.12242 0.29492 0.0
H341 H 0.72957 0.12231 0.48269 0.0
H342 H 0.68151 0.1472 0.56871 0.0
H343 H 0.63898 0.17331 0.46838 0.0
C344 C 0.60831 0.19662 0.30524 0.0
C345 C 0.63825 0.1817 0.25641 0.0
C346 C 0.66189 0.16463 0.31658 0.0
C347 C 0.6884 0.14797 0.26663 0.0
C348 C 0.71305 0.13361 0.3287 0.0
C349 C 0.7106 0.13364 0.43651 0.0
C350 C 0.68363 0.1478 0.48495 0.0
C351 C 0.65945 0.16303 0.42617 0.0
H352 H 0.34318 0.47191 0.59164 0.0
C353 C 0.34142 0.47672 0.50891 0.0
H354 H 0.36059 0.46607 0.36007 0.0
H355 H 0.49783 0.41018 0.48793 0.0
H356 H 0.5131 0.46182 0.40854 0.0
H357 H 0.47115 0.50256 0.36045 0.0
H358 H 0.41363 0.49201 0.39146 0.0
C359 C 0.3619 0.46105 0.44275 0.0
C360 C 0.38725 0.43688 0.4777 0.0
C361 C 0.42084 0.44323 0.45849 0.0
C362 C 0.44514 0.41967 0.48621 0.0
C363 C 0.47842 0.42703 0.46754 0.0
C364 C 0.48753 0.45661 0.42227 0.0
C365 C 0.4639 0.47956 0.39516 0.0
C366 C 0.43094 0.47313 0.41307 0.0
H367 H 0.47126 0.34699 0.41735 0.0
C368 C 0.47631 0.34488 0.4998 0.0
H369 H 0.46485 0.36252 0.64996 0.0
H370 H 0.32507 0.41437 0.514 0.0
H371 H 0.31018 0.36317 0.59526 0.0
H372 H 0.35243 0.32367 0.65044 0.0
H373 H 0.40991 0.33504 0.62313 0.0
C374 C 0.4612 0.36539 0.567 0.0
C375 C 0.43593 0.38969 0.53319 0.0
C376 C 0.4024 0.3833 0.55259 0.0
C377 C 0.37802 0.40658 0.52331 0.0
C378 C 0.34472 0.3984 0.53825 0.0
C379 C 0.33576 0.36887 0.58409 0.0
C380 C 0.35954 0.34661 0.61499 0.0
C381 C 0.39247 0.35351 0.59914 0.0
H382 H 0.67996 0.97512 0.65803 0.0
C383 C 0.68373 0.97682 0.74129 0.0
H384 H 0.66908 0.95982 0.88908 0.0
H385 H 0.53735 0.91716 0.62812 0.0
H386 H 0.52648 0.9755 0.6136 0.0
H387 H 0.56728 0.01596 0.67011 0.0
H388 H 0.61927 0.99838 0.74132 0.0
C389 C 0.66466 0.95928 0.80601 0.0
C390 C 0.6402 0.9352 0.7675 0.0
C391 C 0.60998 0.94584 0.72562 0.0
C392 C 0.58632 0.92244 0.69352 0.0
C393 C 0.55623 0.93383 0.65309 0.0
C394 C 0.54964 0.96724 0.64457 0.0
C395 C 0.57262 0.99003 0.67639 0.0
C396 C 0.60243 0.97961 0.71678 0.0
H397 H 0.55827 0.84497 0.81676 0.0
C398 C 0.55297 0.84343 0.73432 0.0
H399 H 0.56274 0.86309 0.58572 0.0
H400 H 0.69557 0.90649 0.84438 0.0
H401 H 0.70696 0.84829 0.85592 0.0
H402 H 0.66695 0.80777 0.79443 0.0
H403 H 0.61523 0.82514 0.72235 0.0
C404 C 0.5681 0.86401 0.66816 0.0
C405 C 0.59278 0.8884 0.70388 0.0
C406 C 0.62332 0.87777 0.744 0.0
C407 C 0.64677 0.90118 0.77722 0.0
C408 C 0.67687 0.88984 0.81799 0.0
C409 C 0.6838 0.85648 0.82474 0.0
C410 C 0.66126 0.83367 0.79028 0.0
C411 C 0.63146 0.84403 0.74981 0.0
H412 H 0.06068 0.18857 0.93098 0.0
C413 C 0.05578 0.18999 0.01387 0.0
H414 H 0.06736 0.17076 0.16143 0.0
H415 H 0.11638 0.04482 0.877 0.0
H416 H 0.0586 0.03485 0.85121 0.0
H417 H 0.01718 0.07473 0.91164 0.0
H418 H 0.03327 0.12491 0.99825 0.0
C419 C 0.07074 0.16868 0.07799 0.0
C420 C 0.09561 0.14459 0.03923 0.0
C421 C 0.0859 0.11544 0.98829 0.0
C422 C 0.10987 0.09238 0.95352 0.0
C423 C 0.09931 0.0633 0.90413 0.0
C424 C 0.06621 0.05721 0.88911 0.0
C425 C 0.04288 0.07967 0.92314 0.0
C426 C 0.05245 0.10843 0.97245 0.0
H427 H 0.18768 0.06228 0.07603 0.0
C428 C 0.1892 0.0582 0.99276 0.0
H429 H 0.1696 0.07036 0.84639 0.0
H430 H 0.12252 0.19767 0.13535 0.0
H431 H 0.18025 0.20865 0.15688 0.0
H432 H 0.22189 0.17018 0.08928 0.0
H433 H 0.20614 0.12039 1.00123 0.0
C434 C 0.16859 0.07452 0.92965 0.0
C435 C 0.14361 0.0984 0.9697 0.0
C436 C 0.15333 0.12793 0.01913 0.0
C437 C 0.12929 0.15067 0.0555 0.0
C438 C 0.1397 0.17965 0.10582 0.0
C439 C 0.17277 0.18632 0.11847 0.0
C440 C 0.1962 0.16464 0.0806 0.0
C441 C 0.18677 0.13589 0.03096 0.0
H442 H 0.97353 0.68085 0.34821 0.0
C443 C 0.97547 0.68481 0.26501 0.0
H444 H 0.95916 0.67027 0.11675 0.0
H445 H 0.91612 0.53741 0.37489 0.0
H446 H 0.97429 0.52667 0.39068 0.0
H447 H 0.0147 0.56788 0.33587 0.0
H448 H 0.99726 0.62017 0.26507 0.0
C449 C 0.95835 0.66569 0.19977 0.0
C450 C 0.93428 0.64099 0.23753 0.0
C451 C 0.94485 0.61061 0.27924 0.0
C452 C 0.92146 0.58673 0.31039 0.0
C453 C 0.93277 0.55648 0.35064 0.0
C454 C 0.96608 0.54995 0.35988 0.0
C455 C 0.98885 0.57317 0.32901 0.0
C456 C 0.97851 0.60313 0.28883 0.0
H457 H 0.84467 0.55878 0.18489 0.0
C458 C 0.84286 0.55322 0.2672 0.0
H459 H 0.86195 0.56261 0.41638 0.0
H460 H 0.90576 0.69663 0.16076 0.0
H461 H 0.84774 0.70791 0.14803 0.0
H462 H 0.80723 0.66752 0.20806 0.0
H463 H 0.82445 0.61553 0.27984 0.0
C464 C 0.86315 0.56821 0.33404 0.0
C465 C 0.88754 0.59312 0.2993 0.0
C466 C 0.87699 0.62383 0.25943 0.0
C467 C 0.90037 0.6475 0.22711 0.0
C468 C 0.88912 0.67776 0.18651 0.0
C469 C 0.85586 0.68463 0.17908 0.0
C470 C 0.83306 0.66188 0.21272 0.0
C471 C 0.84333 0.63192 0.25301 0.0
H472 H 0.3446 0.06147 0.66854 0.0
C473 C 0.34363 0.05757 0.75193 0.0
H474 H 0.36356 0.07055 0.89717 0.0
H475 H 0.48888 0.11536 0.6085 0.0
H476 H 0.49857 0.05707 0.58599 0.0
H477 H 0.45845 0.01664 0.64836 0.0
H478 H 0.40831 0.03421 0.73368 0.0
C479 C 0.36514 0.07311 0.81337 0.0
C480 C 0.38903 0.09734 0.77147 0.0
C481 C 0.4181 0.08674 0.72108 0.0
C482 C 0.44131 0.11014 0.6852 0.0
C483 C 0.47032 0.09874 0.63648 0.0
C484 C 0.47624 0.06533 0.6233 0.0
C485 C 0.45364 0.04256 0.65845 0.0
C486 C 0.42492 0.05298 0.70704 0.0
H487 H 0.47227 0.1874 0.8059 0.0
C488 C 0.4762 0.18886 0.72254 0.0
H489 H 0.46364 0.1694 0.5761 0.0
H490 H 0.336 0.1259 0.86538 0.0
H491 H 0.32547 0.18412 0.88423 0.0
H492 H 0.36434 0.22473 0.81532 0.0
H493 H 0.4141 0.20746 0.7286 0.0
C494 C 0.45962 0.16854 0.65947 0.0
C495 C 0.4355 0.14417 0.69985 0.0
C496 C 0.40602 0.15477 0.74848 0.0
C497 C 0.38311 0.13133 0.78578 0.0
C498 C 0.35417 0.14261 0.83531 0.0
C499 C 0.34775 0.17597 0.84639 0.0
C500 C 0.36967 0.19883 0.80777 0.0
C501 C 0.39837 0.18852 0.75886 0.0
H502 H 0.86233 0.96931 0.8512 0.0
C503 C 0.84545 0.97204 0.91613 0.0
H504 H 0.83254 0.95447 0.06459 0.0
H505 H 0.90138 0.81678 0.997 0.0
H506 H 0.84415 0.80202 0.9906 0.0
H507 H 0.80116 0.84457 0.98918 0.0
H508 H 0.81511 0.90218 0.9949 0.0
C509 C 0.85017 0.95364 1.00129 0.0
C510 C 0.87658 0.9281 0.00382 0.0
C511 C 0.86811 0.89444 0.99997 0.0
C512 C 0.89298 0.86986 0.99926 0.0
C513 C 0.88362 0.83649 0.99647 0.0
C514 C 0.85082 0.82764 0.99294 0.0
C515 C 0.82661 0.8516 0.99226 0.0
C516 C 0.83499 0.88461 0.99571 0.0
H517 H 0.96584 0.86348 0.15827 0.0
C518 C 0.96956 0.84724 0.09222 0.0
H519 H 0.95414 0.83568 0.94067 0.0
H520 H 0.90147 0.98997 0.01943 0.0
H521 H 0.95879 1.00488 0.02018 0.0
H522 H 1.00185 0.96248 0.00962 0.0
H523 H 0.9879 0.90486 0.9996 0.0
C524 C 0.95222 0.85264 0.00549 0.0
C525 C 0.92643 0.87883 0.00241 0.0
C526 C 0.93493 0.91251 0.00517 0.0
C527 C 0.91002 0.9371 0.00746 0.0
C528 C 0.91932 0.97039 0.01431 0.0
C529 C 0.95214 0.97928 0.01535 0.0
C530 C 0.97639 0.9554 0.00973 0.0
C531 C 0.96804 0.92239 0.00461 0.0
H532 H 0.05903 0.34658 0.33308 0.0
C533 C 0.05531 0.34561 0.24968 0.0
H534 H 0.0686 0.3656 0.10433 0.0
H535 H 0.11313 0.49112 0.39147 0.0
H536 H 0.05496 0.50127 0.41196 0.0
H537 H 0.01462 0.46127 0.34924 0.0
H538 H 0.03217 0.41079 0.26555 0.0
C539 C 0.07099 0.36715 0.18812 0.0
C540 C 0.09515 0.391 0.23006 0.0
C541 C 0.08456 0.42027 0.2795 0.0
C542 C 0.10791 0.4434 0.31563 0.0
C543 C 0.09653 0.47261 0.36337 0.0
C544 C 0.0632 0.47879 0.37538 0.0
C545 C 0.04048 0.45626 0.34004 0.0
C546 C 0.05089 0.42734 0.29238 0.0
H547 H 0.18582 0.47377 0.1971 0.0
C548 C 0.18689 0.47773 0.28045 0.0
H549 H 0.16665 0.46539 0.42637 0.0
H550 H 0.12364 0.33755 0.13813 0.0
H551 H 0.1817 0.32653 0.12145 0.0
H552 H 0.22218 0.36525 0.19088 0.0
H553 H 0.20495 0.41535 0.27599 0.0
C554 C 0.16617 0.46131 0.34305 0.0
C555 C 0.14186 0.4373 0.30223 0.0
C556 C 0.15243 0.40764 0.25455 0.0
C557 C 0.12905 0.38481 0.21696 0.0
C558 C 0.1403 0.35567 0.1684 0.0
C559 C 0.17357 0.34897 0.15855 0.0
C560 C 0.19636 0.3708 0.19747 0.0
C561 C 0.18608 0.39969 0.24543 0.0
H562 H 0.55799 0.68557 0.42743 0.0
C563 C 0.55382 0.68718 0.51066 0.0
H564 H 0.56651 0.66847 0.65795 0.0
H565 H 0.6153 0.54323 0.36891 0.0
H566 H 0.55762 0.53381 0.33893 0.0
H567 H 0.51611 0.5736 0.39925 0.0
H568 H 0.53199 0.62314 0.48979 0.0
C569 C 0.56941 0.6662 0.57438 0.0
C570 C 0.59426 0.64223 0.53532 0.0
C571 C 0.58462 0.61344 0.48221 0.0
C572 C 0.60862 0.59038 0.4478 0.0
C573 C 0.59819 0.56168 0.39599 0.0
C574 C 0.56514 0.5559 0.37855 0.0
C575 C 0.54176 0.57832 0.41251 0.0
C576 C 0.55122 0.60673 0.46404 0.0
H577 H 0.68476 0.55796 0.5734 0.0
C578 C 0.68699 0.55492 0.48985 0.0
H579 H 0.66893 0.56904 0.34314 0.0
H580 H 0.621 0.69462 0.63604 0.0
H581 H 0.67862 0.70472 0.66326 0.0
H582 H 0.72036 0.66604 0.59749 0.0
H583 H 0.70477 0.6169 0.50548 0.0
C584 C 0.66728 0.5723 0.42671 0.0
C585 C 0.64227 0.59603 0.46686 0.0
C586 C 0.65192 0.6251 0.5189 0.0
C587 C 0.62786 0.64789 0.55454 0.0
C588 C 0.63818 0.6765 0.60717 0.0
C589 C 0.67121 0.68269 0.62306 0.0
C590 C 0.6947 0.66089 0.58619 0.0
C591 C 0.68534 0.63254 0.53418 0.0
loop_
_geom_bond_atom_site_label_1
_geom_bond_atom_site_label_2
_geom_bond_distance
_geom_bond_site_symmetry_2
_ccdc_geom_bond_type
O0 Cd1 2.223 . S
O0 C8 1.315 . S
Cd1 O0 2.223 . S
Cd1 O4 2.297 . S
Cd1 O5 2.439 . S
Cd1 O11 2.240 . S
Cd2 O3 2.240 . S
Cd2 O10 2.223 . S
Cd2 O12 2.297 . S
Cd2 O13 2.439 . S
O3 Cd2 2.240 . S
O3 C8 1.279 . S
O4 Cd1 2.297 . S
O4 C6 1.247 . S
O5 Cd1 2.439 . S
O5 C6 1.208 . S
C6 O4 1.247 . S
C6 O5 1.208 . S
C7 O12 1.247 . S
C7 O13 1.208 . S
C8 O0 1.315 . S
C8 O3 1.279 . S
C9 O10 1.315 . S
C9 O11 1.279 . S
O10 Cd2 2.223 . S
O10 C9 1.315 . S
O11 Cd1 2.240 . S
O11 C9 1.279 . S
O12 Cd2 2.297 . S
O12 C7 1.247 . S
O13 Cd2 2.439 . S
O13 C7 1.208 . S
O14 Cd15 2.223 . S
O14 C22 1.315 . S
Cd15 O14 2.223 . S
Cd15 O18 2.297 . S
Cd15 O19 2.439 . S
Cd15 O25 2.240 . S
Cd16 O17 2.240 . S
Cd16 O24 2.223 . S
Cd16 O26 2.297 . S
Cd16 O27 2.439 . S
O17 Cd16 2.240 . S
O17 C22 1.279 . S
O18 Cd15 2.297 . S
O18 C20 1.247 . S
O19 Cd15 2.439 . S
O19 C20 1.208 . S
C20 O18 1.247 . S
C20 O19 1.208 . S
C21 O26 1.247 . S
C21 O27 1.208 . S
C22 O14 1.315 . S
C22 O17 1.279 . S
C23 O24 1.315 . S
C23 O25 1.279 . S
O24 Cd16 2.223 . S
O24 C23 1.315 . S
O25 Cd15 2.240 . S
O25 C23 1.279 . S
O26 Cd16 2.297 . S
O26 C21 1.247 . S
O27 Cd16 2.439 . S
O27 C21 1.208 . S
O28 Cd29 2.223 1_556 S
O28 C36 1.315 . S
Cd29 O28 2.223 1_554 S
Cd29 O32 2.297 1_545 S
Cd29 O33 2.439 1_544 S
Cd29 O39 2.240 1_554 S
Cd30 O31 2.240 . S
Cd30 O38 2.223 . S
Cd30 O40 2.297 1_545 S
Cd30 O41 2.439 1_545 S
O31 Cd30 2.240 . S
O31 C36 1.279 . S
O32 Cd29 2.297 1_565 S
O32 C34 1.247 . S
O33 Cd29 2.439 1_566 S
O33 C34 1.208 1_556 S
C34 O32 1.247 . S
C34 O33 1.208 1_554 S
C35 O40 1.247 . S
C35 O41 1.208 . S
C36 O28 1.315 . S
C36 O31 1.279 . S
C37 O38 1.315 . S
C37 O39 1.279 . S
O38 Cd30 2.223 . S
O38 C37 1.315 . S
O39 Cd29 2.240 1_556 S
O39 C37 1.279 . S
O40 Cd30 2.297 1_565 S
O40 C35 1.247 . S
O41 Cd30 2.439 1_565 S
O41 C35 1.208 . S
O42 Cd43 2.223 1_554 S
O42 C50 1.315 . S
Cd43 O42 2.223 1_556 S
Cd43 O46 2.297 1_655 S
Cd43 O47 2.439 1_656 S
Cd43 O53 2.240 1_556 S
Cd44 O45 2.240 . S
Cd44 O52 2.223 . S
Cd44 O54 2.297 1_655 S
Cd44 O55 2.439 1_655 S
O45 Cd44 2.240 . S
O45 C50 1.279 . S
O46 Cd43 2.297 1_455 S
O46 C48 1.247 . S
O47 Cd43 2.439 1_454 S
O47 C48 1.208 1_554 S
C48 O46 1.247 . S
C48 O47 1.208 1_556 S
C49 O54 1.247 . S
C49 O55 1.208 . S
C50 O42 1.315 . S
C50 O45 1.279 . S
C51 O52 1.315 . S
C51 O53 1.279 . S
O52 Cd44 2.223 . S
O52 C51 1.315 . S
O53 Cd43 2.240 1_554 S
O53 C51 1.279 . S
O54 Cd44 2.297 1_455 S
O54 C49 1.247 . S
O55 Cd44 2.439 1_455 S
O55 C49 1.208 . S
O56 Cd57 2.223 . S
O56 C64 1.315 . S
Cd57 O56 2.223 . S
Cd57 O60 2.297 1_565 S
Cd57 O61 2.439 1_565 S
Cd57 O67 2.240 . S
Cd58 O59 2.240 1_554 S
Cd58 O66 2.223 1_554 S
Cd58 O68 2.297 1_565 S
Cd58 O69 2.439 1_564 S
O59 Cd58 2.240 1_556 S
O59 C64 1.279 . S
O60 Cd57 2.297 1_545 S
O60 C62 1.247 . S
O61 Cd57 2.439 1_545 S
O61 C62 1.208 . S
C62 O60 1.247 . S
C62 O61 1.208 . S
C63 O68 1.247 . S
C63 O69 1.208 1_554 S
C64 O56 1.315 . S
C64 O59 1.279 . S
C65 O66 1.315 . S
C65 O67 1.279 . S
O66 Cd58 2.223 1_556 S
O66 C65 1.315 . S
O67 Cd57 2.240 . S
O67 C65 1.279 . S
O68 Cd58 2.297 1_545 S
O68 C63 1.247 . S
O69 Cd58 2.439 1_546 S
O69 C63 1.208 1_556 S
O70 Cd71 2.223 . S
O70 C78 1.315 . S
Cd71 O70 2.223 . S
Cd71 O74 2.297 1_455 S
Cd71 O75 2.439 1_455 S
Cd71 O81 2.240 . S
Cd72 O73 2.240 1_556 S
Cd72 O80 2.223 1_556 S
Cd72 O82 2.297 1_455 S
Cd72 O83 2.439 1_456 S
O73 Cd72 2.240 1_554 S
O73 C78 1.279 . S
O74 Cd71 2.297 1_655 S
O74 C76 1.247 . S
O75 Cd71 2.439 1_655 S
O75 C76 1.208 . S
C76 O74 1.247 . S
C76 O75 1.208 . S
C77 O82 1.247 . S
C77 O83 1.208 1_556 S
C78 O70 1.315 . S
C78 O73 1.279 . S
C79 O80 1.315 . S
C79 O81 1.279 . S
O80 Cd72 2.223 1_554 S
O80 C79 1.315 . S
O81 Cd71 2.240 . S
O81 C79 1.279 . S
O82 Cd72 2.297 1_655 S
O82 C77 1.247 . S
O83 Cd72 2.439 1_654 S
O83 C77 1.208 1_554 S
O84 Cd85 2.223 . S
O84 C92 1.315 . S
Cd85 O84 2.223 . S
Cd85 O88 2.297 . S
Cd85 O89 2.439 . S
Cd85 O95 2.240 . S
Cd86 O87 2.240 . S
Cd86 O94 2.223 . S
Cd86 O96 2.297 . S
Cd86 O97 2.439 . S
O87 Cd86 2.240 . S
O87 C92 1.279 . S
O88 Cd85 2.297 . S
O88 C90 1.247 . S
O89 Cd85 2.439 . S
O89 C90 1.208 . S
C90 O88 1.247 . S
C90 O89 1.208 . S
C91 O96 1.247 . S
C91 O97 1.208 . S
C92 O84 1.315 . S
C92 O87 1.279 . S
C93 O94 1.315 . S
C93 O95 1.279 . S
O94 Cd86 2.223 . S
O94 C93 1.315 . S
O95 Cd85 2.240 . S
O95 C93 1.279 . S
O96 Cd86 2.297 . S
O96 C91 1.247 . S
O97 Cd86 2.439 . S
O97 C91 1.208 . S
O98 Cd99 2.223 . S
O98 C106 1.315 . S
Cd99 O98 2.223 . S
Cd99 O102 2.297 . S
Cd99 O103 2.439 . S
Cd99 O109 2.240 . S
Cd100 O101 2.240 . S
Cd100 O108 2.223 . S
Cd100 O110 2.297 . S
Cd100 O111 2.439 . S
O101 Cd100 2.240 . S
O101 C106 1.279 . S
O102 Cd99 2.297 . S
O102 C104 1.247 . S
O103 Cd99 2.439 . S
O103 C104 1.208 . S
C104 O102 1.247 . S
C104 O103 1.208 . S
C105 O110 1.247 . S
C105 O111 1.208 . S
C106 O98 1.315 . S
C106 O101 1.279 . S
C107 O108 1.315 . S
C107 O109 1.279 . S
O108 Cd100 2.223 . S
O108 C107 1.315 . S
O109 Cd99 2.240 . S
O109 C107 1.279 . S
O110 Cd100 2.297 . S
O110 C105 1.247 . S
O111 Cd100 2.439 . S
O111 C105 1.208 . S
H112 C113 0.951 . S
C113 H112 0.951 . S
C113 C119 1.265 . S
H114 C119 0.950 . S
H115 C123 0.949 . S
H116 C124 0.950 . S
H117 C125 0.951 . S
H118 C126 0.951 . S
C119 C113 1.265 . S
C119 H114 0.950 . S
C119 C120 1.478 . S
C120 C119 1.478 . S
C120 C121 1.397 . S
C120 C137 1.394 1_556 S
C121 C120 1.397 . S
C121 C122 1.438 . S
C121 C126 1.429 . S
C122 C121 1.438 . S
C122 C123 1.428 . S
C122 C135 1.394 1_556 S
C123 H115 0.949 . S
C123 C122 1.428 . S
C123 C124 1.345 . S
C124 H116 0.950 . S
C124 C123 1.345 . S
C124 C125 1.424 . S
C125 H117 0.951 . S
C125 C124 1.424 . S
C125 C126 1.347 . S
C126 H118 0.951 . S
C126 C121 1.429 . S
C126 C125 1.347 . S
H127 C128 0.951 . S
C128 H127 0.951 . S
C128 C134 1.265 . S
H129 C134 0.950 . S
H130 C138 0.949 . S
H131 C139 0.950 . S
H132 C140 0.951 . S
H133 C141 0.951 . S
C134 C128 1.265 . S
C134 H129 0.950 . S
C134 C135 1.478 . S
C135 C122 1.394 1_554 S
C135 C134 1.478 . S
C135 C136 1.397 . S
C136 C135 1.397 . S
C136 C137 1.438 . S
C136 C141 1.429 . S
C137 C120 1.394 1_554 S
C137 C136 1.438 . S
C137 C138 1.428 . S
C138 H130 0.949 . S
C138 C137 1.428 . S
C138 C139 1.345 . S
C139 H131 0.950 . S
C139 C138 1.345 . S
C139 C140 1.424 . S
C140 H132 0.951 . S
C140 C139 1.424 . S
C140 C141 1.347 . S
C141 H133 0.951 . S
C141 C136 1.429 . S
C141 C140 1.347 . S
H142 C143 0.951 . S
C143 H142 0.951 . S
C143 C149 1.265 . S
H144 C149 0.950 . S
H145 C153 0.949 1_556 S
H146 C154 0.950 . S
H147 C155 0.951 1_556 S
H148 C156 0.951 . S
C149 C143 1.265 . S
C149 H144 0.950 . S
C149 C150 1.478 . S
C150 C149 1.478 . S
C150 C151 1.397 . S
C150 C167 1.394 . S
C151 C150 1.397 . S
C151 C152 1.438 . S
C151 C156 1.429 . S
C152 C151 1.438 . S
C152 C153 1.428 . S
C152 C165 1.394 . S
C153 H145 0.949 1_554 S
C153 C152 1.428 . S
C153 C154 1.345 1_554 S
C154 H146 0.950 . S
C154 C153 1.345 1_556 S
C154 C155 1.424 1_556 S
C155 H147 0.951 1_554 S
C155 C154 1.424 1_554 S
C155 C156 1.347 . S
C156 H148 0.951 . S
C156 C151 1.429 . S
C156 C155 1.347 . S
H157 C158 0.951 . S
C158 H157 0.951 . S
C158 C164 1.265 . S
H159 C164 0.950 . S
H160 C168 0.949 . S
H161 C169 0.950 . S
H162 C170 0.951 . S
H163 C171 0.951 . S
C164 C158 1.265 . S
C164 H159 0.950 . S
C164 C165 1.478 . S
C165 C152 1.394 . S
C165 C164 1.478 . S
C165 C166 1.397 . S
C166 C165 1.397 . S
C166 C167 1.438 . S
C166 C171 1.429 . S
C167 C150 1.394 . S
C167 C166 1.438 . S
C167 C168 1.428 . S
C168 H160 0.949 . S
C168 C167 1.428 . S
C168 C169 1.345 . S
C169 H161 0.950 . S
C169 C168 1.345 . S
C169 C170 1.424 . S
C170 H162 0.951 . S
C170 C169 1.424 . S
C170 C171 1.347 . S
C171 H163 0.951 . S
C171 C166 1.429 . S
C171 C170 1.347 . S
H172 C173 0.951 . S
C173 H172 0.951 . S
C173 C179 1.265 . S
H174 C179 0.950 . S
H175 C183 0.949 . S
H176 C184 0.950 . S
H177 C185 0.951 . S
H178 C186 0.951 . S
C179 C173 1.265 . S
C179 H174 0.950 . S
C179 C180 1.478 . S
C180 C179 1.478 . S
C180 C181 1.397 . S
C180 C197 1.394 . S
C181 C180 1.397 . S
C181 C182 1.438 . S
C181 C186 1.429 . S
C182 C181 1.438 . S
C182 C183 1.428 . S
C182 C195 1.394 . S
C183 H175 0.949 . S
C183 C182 1.428 . S
C183 C184 1.345 . S
C184 H176 0.950 . S
C184 C183 1.345 . S
C184 C185 1.424 . S
C185 H177 0.951 . S
C185 C184 1.424 . S
C185 C186 1.347 . S
C186 H178 0.951 . S
C186 C181 1.429 . S
C186 C185 1.347 . S
H187 C188 0.951 . S
C188 H187 0.951 . S
C188 C194 1.265 . S
H189 C194 0.950 . S
H190 C198 0.949 . S
H191 C199 0.950 . S
H192 C200 0.951 . S
H193 C201 0.951 . S
C194 C188 1.265 . S
C194 H189 0.950 . S
C194 C195 1.478 . S
C195 C182 1.394 . S
C195 C194 1.478 . S
C195 C196 1.397 . S
C196 C195 1.397 . S
C196 C197 1.438 . S
C196 C201 1.429 . S
C197 C180 1.394 . S
C197 C196 1.438 . S
C197 C198 1.428 . S
C198 H190 0.949 . S
C198 C197 1.428 . S
C198 C199 1.345 . S
C199 H191 0.950 . S
C199 C198 1.345 . S
C199 C200 1.424 . S
C200 H192 0.951 . S
C200 C199 1.424 . S
C200 C201 1.347 . S
C201 H193 0.951 . S
C201 C196 1.429 . S
C201 C200 1.347 . S
H202 C203 0.951 . S
C203 H202 0.951 . S
C203 C209 1.265 . S
H204 C209 0.950 . S
H205 C213 0.949 . S
H206 C214 0.950 . S
H207 C215 0.951 1_554 S
H208 C216 0.951 1_554 S
C209 C203 1.265 . S
C209 H204 0.950 . S
C209 C210 1.478 . S
C210 C209 1.478 . S
C210 C211 1.397 . S
C210 C227 1.394 . S
C211 C210 1.397 . S
C211 C212 1.438 . S
C211 C216 1.429 . S
C212 C211 1.438 . S
C212 C213 1.428 . S
C212 C225 1.394 . S
C213 H205 0.949 . S
C213 C212 1.428 . S
C213 C214 1.345 . S
C214 H206 0.950 . S
C214 C213 1.345 . S
C214 C215 1.424 . S
C215 H207 0.951 1_556 S
C215 C214 1.424 . S
C215 C216 1.347 . S
C216 H208 0.951 1_556 S
C216 C211 1.429 . S
C216 C215 1.347 . S
H217 C218 0.951 . S
C218 H217 0.951 . S
C218 C224 1.265 . S
H219 C224 0.950 . S
H220 C228 0.949 . S
H221 C229 0.950 . S
H222 C230 0.951 . S
H223 C231 0.951 . S
C224 C218 1.265 . S
C224 H219 0.950 . S
C224 C225 1.478 . S
C225 C212 1.394 . S
C225 C224 1.478 . S
C225 C226 1.397 . S
C226 C225 1.397 . S
C226 C227 1.438 . S
C226 C231 1.429 . S
C227 C210 1.394 . S
C227 C226 1.438 . S
C227 C228 1.428 . S
C228 H220 0.949 . S
C228 C227 1.428 . S
C228 C229 1.345 . S
C229 H221 0.950 . S
C229 C228 1.345 . S
C229 C230 1.424 . S
C230 H222 0.951 . S
C230 C229 1.424 . S
C230 C231 1.347 . S
C231 H223 0.951 . S
C231 C226 1.429 . S
C231 C230 1.347 . S
H232 C233 0.951 . S
C233 H232 0.951 . S
C233 C239 1.265 . S
H234 C239 0.950 . S
H235 C243 0.949 . S
H236 C244 0.950 . S
H237 C245 0.951 . S
H238 C246 0.951 . S
C239 C233 1.265 . S
C239 H234 0.950 . S
C239 C240 1.478 . S
C240 C239 1.478 . S
C240 C241 1.397 . S
C240 C257 1.394 . S
C241 C240 1.397 . S
C241 C242 1.438 . S
C241 C246 1.429 . S
C242 C241 1.438 . S
C242 C243 1.428 . S
C242 C255 1.394 . S
C243 H235 0.949 . S
C243 C242 1.428 . S
C243 C244 1.345 . S
C244 H236 0.950 . S
C244 C243 1.345 . S
C244 C245 1.424 . S
C245 H237 0.951 . S
C245 C244 1.424 . S
C245 C246 1.347 . S
C246 H238 0.951 . S
C246 C241 1.429 . S
C246 C245 1.347 . S
H247 C248 0.951 . S
C248 H247 0.951 . S
C248 C254 1.265 . S
H249 C254 0.950 . S
H250 C258 0.949 . S
H251 C259 0.950 . S
H252 C260 0.951 . S
H253 C261 0.951 . S
C254 C248 1.265 . S
C254 H249 0.950 . S
C254 C255 1.478 . S
C255 C242 1.394 . S
C255 C254 1.478 . S
C255 C256 1.397 . S
C256 C255 1.397 . S
C256 C257 1.438 . S
C256 C261 1.429 . S
C257 C240 1.394 . S
C257 C256 1.438 . S
C257 C258 1.428 . S
C258 H250 0.949 . S
C258 C257 1.428 . S
C258 C259 1.345 . S
C259 H251 0.950 . S
C259 C258 1.345 . S
C259 C260 1.424 . S
C260 H252 0.951 . S
C260 C259 1.424 . S
C260 C261 1.347 . S
C261 H253 0.951 . S
C261 C256 1.429 . S
C261 C260 1.347 . S
H262 C263 0.951 . S
C263 H262 0.951 . S
C263 C269 1.265 . S
H264 C269 0.950 . S
H265 C273 0.949 . S
H266 C274 0.950 . S
H267 C275 0.951 1_554 S
H268 C276 0.951 . S
C269 C263 1.265 . S
C269 H264 0.950 . S
C269 C270 1.478 . S
C270 C269 1.478 . S
C270 C271 1.397 . S
C270 C287 1.394 . S
C271 C270 1.397 . S
C271 C272 1.438 . S
C271 C276 1.429 . S
C272 C271 1.438 . S
C272 C273 1.428 . S
C272 C285 1.394 . S
C273 H265 0.949 . S
C273 C272 1.428 . S
C273 C274 1.345 . S
C274 H266 0.950 . S
C274 C273 1.345 . S
C274 C275 1.424 . S
C275 H267 0.951 1_556 S
C275 C274 1.424 . S
C275 C276 1.347 . S
C276 H268 0.951 . S
C276 C271 1.429 . S
C276 C275 1.347 . S
H277 C278 0.951 . S
C278 H277 0.951 . S
C278 C284 1.265 . S
H279 C284 0.950 . S
H280 C288 0.949 . S
H281 C289 0.950 . S
H282 C290 0.951 . S
H283 C291 0.951 . S
C284 C278 1.265 . S
C284 H279 0.950 . S
C284 C285 1.478 . S
C285 C272 1.394 . S
C285 C284 1.478 . S
C285 C286 1.397 . S
C286 C285 1.397 . S
C286 C287 1.438 . S
C286 C291 1.429 . S
C287 C270 1.394 . S
C287 C286 1.438 . S
C287 C288 1.428 . S
C288 H280 0.949 . S
C288 C287 1.428 . S
C288 C289 1.345 . S
C289 H281 0.950 . S
C289 C288 1.345 . S
C289 C290 1.424 . S
C290 H282 0.951 . S
C290 C289 1.424 . S
C290 C291 1.347 . S
C291 H283 0.951 . S
C291 C286 1.429 . S
C291 C290 1.347 . S
H292 C293 0.951 . S
C293 H292 0.951 . S
C293 C299 1.265 . S
H294 C299 0.950 . S
H295 C303 0.949 . S
H296 C304 0.950 . S
H297 C305 0.951 . S
H298 C306 0.951 . S
C299 C293 1.265 . S
C299 H294 0.950 . S
C299 C300 1.478 . S
C300 C299 1.478 . S
C300 C301 1.397 . S
C300 C317 1.394 1_554 S
C301 C300 1.397 . S
C301 C302 1.438 . S
C301 C306 1.429 . S
C302 C301 1.438 . S
C302 C303 1.428 . S
C302 C315 1.394 1_554 S
C303 H295 0.949 . S
C303 C302 1.428 . S
C303 C304 1.345 . S
C304 H296 0.950 . S
C304 C303 1.345 . S
C304 C305 1.424 . S
C305 H297 0.951 . S
C305 C304 1.424 . S
C305 C306 1.347 . S
C306 H298 0.951 . S
C306 C301 1.429 . S
C306 C305 1.347 . S
H307 C308 0.951 . S
C308 H307 0.951 . S
C308 C314 1.265 . S
H309 C314 0.950 . S
H310 C318 0.949 . S
H311 C319 0.950 . S
H312 C320 0.951 . S
H313 C321 0.951 . S
C314 C308 1.265 . S
C314 H309 0.950 . S
C314 C315 1.478 . S
C315 C302 1.394 1_556 S
C315 C314 1.478 . S
C315 C316 1.397 . S
C316 C315 1.397 . S
C316 C317 1.438 . S
C316 C321 1.429 . S
C317 C300 1.394 1_556 S
C317 C316 1.438 . S
C317 C318 1.428 . S
C318 H310 0.949 . S
C318 C317 1.428 . S
C318 C319 1.345 . S
C319 H311 0.950 . S
C319 C318 1.345 . S
C319 C320 1.424 . S
C320 H312 0.951 . S
C320 C319 1.424 . S
C320 C321 1.347 . S
C321 H313 0.951 . S
C321 C316 1.429 . S
C321 C320 1.347 . S
H322 C323 0.951 . S
C323 H322 0.951 . S
C323 C329 1.265 . S
H324 C329 0.950 . S
H325 C333 0.949 . S
H326 C334 0.950 . S
H327 C335 0.951 . S
H328 C336 0.951 . S
C329 C323 1.265 . S
C329 H324 0.950 . S
C329 C330 1.478 . S
C330 C329 1.478 . S
C330 C331 1.397 . S
C330 C347 1.394 . S
C331 C330 1.397 . S
C331 C332 1.438 . S
C331 C336 1.429 . S
C332 C331 1.438 . S
C332 C333 1.428 . S
C332 C345 1.394 . S
C333 H325 0.949 . S
C333 C332 1.428 . S
C333 C334 1.345 . S
C334 H326 0.950 . S
C334 C333 1.345 . S
C334 C335 1.424 . S
C335 H327 0.951 . S
C335 C334 1.424 . S
C335 C336 1.347 . S
C336 H328 0.951 . S
C336 C331 1.429 . S
C336 C335 1.347 . S
H337 C338 0.951 . S
C338 H337 0.951 . S
C338 C344 1.265 . S
H339 C344 0.950 . S
H340 C348 0.949 . S
H341 C349 0.950 . S
H342 C350 0.951 . S
H343 C351 0.951 . S
C344 C338 1.265 . S
C344 H339 0.950 . S
C344 C345 1.478 . S
C345 C332 1.394 . S
C345 C344 1.478 . S
C345 C346 1.397 . S
C346 C345 1.397 . S
C346 C347 1.438 . S
C346 C351 1.429 . S
C347 C330 1.394 . S
C347 C346 1.438 . S
C347 C348 1.428 . S
C348 H340 0.949 . S
C348 C347 1.428 . S
C348 C349 1.345 . S
C349 H341 0.950 . S
C349 C348 1.345 . S
C349 C350 1.424 . S
C350 H342 0.951 . S
C350 C349 1.424 . S
C350 C351 1.347 . S
C351 H343 0.951 . S
C351 C346 1.429 . S
C351 C350 1.347 . S
H352 C353 0.951 . S
C353 H352 0.951 . S
C353 C359 1.265 . S
H354 C359 0.950 . S
H355 C363 0.949 . S
H356 C364 0.950 . S
H357 C365 0.951 . S
H358 C366 0.951 . S
C359 C353 1.265 . S
C359 H354 0.950 . S
C359 C360 1.478 . S
C360 C359 1.478 . S
C360 C361 1.397 . S
C360 C377 1.394 . S
C361 C360 1.397 . S
C361 C362 1.438 . S
C361 C366 1.429 . S
C362 C361 1.438 . S
C362 C363 1.428 . S
C362 C375 1.394 . S
C363 H355 0.949 . S
C363 C362 1.428 . S
C363 C364 1.345 . S
C364 H356 0.950 . S
C364 C363 1.345 . S
C364 C365 1.424 . S
C365 H357 0.951 . S
C365 C364 1.424 . S
C365 C366 1.347 . S
C366 H358 0.951 . S
C366 C361 1.429 . S
C366 C365 1.347 . S
H367 C368 0.951 . S
C368 H367 0.951 . S
C368 C374 1.265 . S
H369 C374 0.950 . S
H370 C378 0.949 . S
H371 C379 0.950 . S
H372 C380 0.951 . S
H373 C381 0.951 . S
C374 C368 1.265 . S
C374 H369 0.950 . S
C374 C375 1.478 . S
C375 C362 1.394 . S
C375 C374 1.478 . S
C375 C376 1.397 . S
C376 C375 1.397 . S
C376 C377 1.438 . S
C376 C381 1.429 . S
C377 C360 1.394 . S
C377 C376 1.438 . S
C377 C378 1.428 . S
C378 H370 0.949 . S
C378 C377 1.428 . S
C378 C379 1.345 . S
C379 H371 0.950 . S
C379 C378 1.345 . S
C379 C380 1.424 . S
C380 H372 0.951 . S
C380 C379 1.424 . S
C380 C381 1.347 . S
C381 H373 0.951 . S
C381 C376 1.429 . S
C381 C380 1.347 . S
H382 C383 0.951 . S
C383 H382 0.951 . S
C383 C389 1.265 . S
H384 C389 0.950 . S
H385 C393 0.949 . S
H386 C394 0.950 . S
H387 C395 0.951 . S
H388 C396 0.951 . S
C389 C383 1.265 . S
C389 H384 0.950 . S
C389 C390 1.478 . S
C390 C389 1.478 . S
C390 C391 1.397 . S
C390 C407 1.394 . S
C391 C390 1.397 . S
C391 C392 1.438 . S
C391 C396 1.429 . S
C392 C391 1.438 . S
C392 C393 1.428 . S
C392 C405 1.394 . S
C393 H385 0.949 . S
C393 C392 1.428 . S
C393 C394 1.345 . S
C394 H386 0.950 . S
C394 C393 1.345 . S
C394 C395 1.424 . S
C395 H387 0.951 . S
C395 C394 1.424 . S
C395 C396 1.347 . S
C396 H388 0.951 . S
C396 C391 1.429 . S
C396 C395 1.347 . S
H397 C398 0.951 . S
C398 H397 0.951 . S
C398 C404 1.265 . S
H399 C404 0.950 . S
H400 C408 0.949 . S
H401 C409 0.950 1_554 S
H402 C410 0.951 1_554 S
H403 C411 0.951 . S
C404 C398 1.265 . S
C404 H399 0.950 . S
C404 C405 1.478 . S
C405 C392 1.394 . S
C405 C404 1.478 . S
C405 C406 1.397 . S
C406 C405 1.397 . S
C406 C407 1.438 . S
C406 C411 1.429 . S
C407 C390 1.394 . S
C407 C406 1.438 . S
C407 C408 1.428 . S
C408 H400 0.949 . S
C408 C407 1.428 . S
C408 C409 1.345 . S
C409 H401 0.950 1_556 S
C409 C408 1.345 . S
C409 C410 1.424 . S
C410 H402 0.951 1_556 S
C410 C409 1.424 . S
C410 C411 1.347 . S
C411 H403 0.951 . S
C411 C406 1.429 . S
C411 C410 1.347 . S
H412 C413 0.951 . S
C413 H412 0.951 . S
C413 C419 1.265 . S
H414 C419 0.950 . S
H415 C423 0.949 . S
H416 C424 0.950 . S
H417 C425 0.951 . S
H418 C426 0.951 . S
C419 C413 1.265 . S
C419 H414 0.950 . S
C419 C420 1.478 . S
C420 C419 1.478 . S
C420 C421 1.397 1_554 S
C420 C437 1.394 . S
C421 C420 1.397 1_556 S
C421 C422 1.438 . S
C421 C426 1.429 . S
C422 C421 1.438 . S
C422 C423 1.428 . S
C422 C435 1.394 . S
C423 H415 0.949 . S
C423 C422 1.428 . S
C423 C424 1.345 . S
C424 H416 0.950 . S
C424 C423 1.345 . S
C424 C425 1.424 . S
C425 H417 0.951 . S
C425 C424 1.424 . S
C425 C426 1.347 . S
C426 H418 0.951 . S
C426 C421 1.429 . S
C426 C425 1.347 . S
H427 C428 0.951 . S
C428 H427 0.951 . S
C428 C434 1.265 . S
H429 C434 0.950 . S
H430 C438 0.949 . S
H431 C439 0.950 . S
H432 C440 0.951 . S
H433 C441 0.951 . S
C434 C428 1.265 . S
C434 H429 0.950 . S
C434 C435 1.478 . S
C435 C422 1.394 . S
C435 C434 1.478 . S
C435 C436 1.397 1_556 S
C436 C435 1.397 1_554 S
C436 C437 1.438 . S
C436 C441 1.429 . S
C437 C420 1.394 . S
C437 C436 1.438 . S
C437 C438 1.428 . S
C438 H430 0.949 . S
C438 C437 1.428 . S
C438 C439 1.345 . S
C439 H431 0.950 . S
C439 C438 1.345 . S
C439 C440 1.424 . S
C440 H432 0.951 . S
C440 C439 1.424 . S
C440 C441 1.347 . S
C441 H433 0.951 . S
C441 C436 1.429 . S
C441 C440 1.347 . S
H442 C443 0.951 . S
C443 H442 0.951 . S
C443 C449 1.265 . S
H444 C449 0.950 . S
H445 C453 0.949 . S
H446 C454 0.950 . S
H447 C455 0.951 . S
H448 C456 0.951 . S
C449 C443 1.265 . S
C449 H444 0.950 . S
C449 C450 1.478 . S
C450 C449 1.478 . S
C450 C451 1.397 . S
C450 C467 1.394 . S
C451 C450 1.397 . S
C451 C452 1.438 . S
C451 C456 1.429 . S
C452 C451 1.438 . S
C452 C453 1.428 . S
C452 C465 1.394 . S
C453 H445 0.949 . S
C453 C452 1.428 . S
C453 C454 1.345 . S
C454 H446 0.950 . S
C454 C453 1.345 . S
C454 C455 1.424 . S
C455 H447 0.951 . S
C455 C454 1.424 . S
C455 C456 1.347 . S
C456 H448 0.951 . S
C456 C451 1.429 . S
C456 C455 1.347 . S
H457 C458 0.951 . S
C458 H457 0.951 . S
C458 C464 1.265 . S
H459 C464 0.950 . S
H460 C468 0.949 . S
H461 C469 0.950 . S
H462 C470 0.951 1_556 S
H463 C471 0.951 . S
C464 C458 1.265 . S
C464 H459 0.950 . S
C464 C465 1.478 . S
C465 C452 1.394 . S
C465 C464 1.478 . S
C465 C466 1.397 . S
C466 C465 1.397 . S
C466 C467 1.438 . S
C466 C471 1.429 . S
C467 C450 1.394 . S
C467 C466 1.438 . S
C467 C468 1.428 . S
C468 H460 0.949 . S
C468 C467 1.428 . S
C468 C469 1.345 1_554 S
C469 H461 0.950 . S
C469 C468 1.345 1_556 S
C469 C470 1.424 1_556 S
C470 H462 0.951 1_554 S
C470 C469 1.424 1_554 S
C470 C471 1.347 . S
C471 H463 0.951 . S
C471 C466 1.429 . S
C471 C470 1.347 . S
H472 C473 0.951 . S
C473 H472 0.951 . S
C473 C479 1.265 . S
H474 C479 0.950 . S
H475 C483 0.949 . S
H476 C484 0.950 . S
H477 C485 0.951 . S
H478 C486 0.951 . S
C479 C473 1.265 . S
C479 H474 0.950 . S
C479 C480 1.478 . S
C480 C479 1.478 . S
C480 C481 1.397 . S
C480 C497 1.394 . S
C481 C480 1.397 . S
C481 C482 1.438 . S
C481 C486 1.429 . S
C482 C481 1.438 . S
C482 C483 1.428 . S
C482 C495 1.394 . S
C483 H475 0.949 . S
C483 C482 1.428 . S
C483 C484 1.345 . S
C484 H476 0.950 . S
C484 C483 1.345 . S
C484 C485 1.424 . S
C485 H477 0.951 . S
C485 C484 1.424 . S
C485 C486 1.347 . S
C486 H478 0.951 . S
C486 C481 1.429 . S
C486 C485 1.347 . S
H487 C488 0.951 . S
C488 H487 0.951 . S
C488 C494 1.265 . S
H489 C494 0.950 . S
H490 C498 0.949 . S
H491 C499 0.950 . S
H492 C500 0.951 1_554 S
H493 C501 0.951 . S
C494 C488 1.265 . S
C494 H489 0.950 . S
C494 C495 1.478 . S
C495 C482 1.394 . S
C495 C494 1.478 . S
C495 C496 1.397 . S
C496 C495 1.397 . S
C496 C497 1.438 . S
C496 C501 1.429 . S
C497 C480 1.394 . S
C497 C496 1.438 . S
C497 C498 1.428 . S
C498 H490 0.949 . S
C498 C497 1.428 . S
C498 C499 1.345 1_556 S
C499 H491 0.950 . S
C499 C498 1.345 1_554 S
C499 C500 1.424 1_554 S
C500 H492 0.951 1_556 S
C500 C499 1.424 1_556 S
C500 C501 1.347 . S
C501 H493 0.951 . S
C501 C496 1.429 . S
C501 C500 1.347 . S
H502 C503 0.951 . S
C503 H502 0.951 . S
C503 C509 1.265 . S
H504 C509 0.950 1_554 S
H505 C513 0.949 . S
H506 C514 0.950 . S
H507 C515 0.951 . S
H508 C516 0.951 . S
C509 C503 1.265 . S
C509 H504 0.950 1_556 S
C509 C510 1.478 . S
C510 C509 1.478 . S
C510 C511 1.397 . S
C510 C527 1.394 1_556 S
C511 C510 1.397 . S
C511 C512 1.438 . S
C511 C516 1.429 . S
C512 C511 1.438 . S
C512 C513 1.428 . S
C512 C525 1.394 1_556 S
C513 H505 0.949 . S
C513 C512 1.428 . S
C513 C514 1.345 . S
C514 H506 0.950 . S
C514 C513 1.345 . S
C514 C515 1.424 . S
C515 H507 0.951 . S
C515 C514 1.424 . S
C515 C516 1.347 . S
C516 H508 0.951 . S
C516 C511 1.429 . S
C516 C515 1.347 . S
H517 C518 0.951 . S
C518 H517 0.951 . S
C518 C524 1.265 . S
H519 C524 0.950 1_556 S
H520 C528 0.949 . S
H521 C529 0.950 . S
H522 C530 0.951 . S
H523 C531 0.951 . S
C524 C518 1.265 . S
C524 H519 0.950 1_554 S
C524 C525 1.478 . S
C525 C512 1.394 1_554 S
C525 C524 1.478 . S
C525 C526 1.397 . S
C526 C525 1.397 . S
C526 C527 1.438 . S
C526 C531 1.429 . S
C527 C510 1.394 1_554 S
C527 C526 1.438 . S
C527 C528 1.428 . S
C528 H520 0.949 . S
C528 C527 1.428 . S
C528 C529 1.345 . S
C529 H521 0.950 . S
C529 C528 1.345 . S
C529 C530 1.424 . S
C530 H522 0.951 . S
C530 C529 1.424 . S
C530 C531 1.347 . S
C531 H523 0.951 . S
C531 C526 1.429 . S
C531 C530 1.347 . S
H532 C533 0.951 . S
C533 H532 0.951 . S
C533 C539 1.265 . S
H534 C539 0.950 . S
H535 C543 0.949 . S
H536 C544 0.950 . S
H537 C545 0.951 . S
H538 C546 0.951 . S
C539 C533 1.265 . S
C539 H534 0.950 . S
C539 C540 1.478 . S
C540 C539 1.478 . S
C540 C541 1.397 . S
C540 C557 1.394 . S
C541 C540 1.397 . S
C541 C542 1.438 . S
C541 C546 1.429 . S
C542 C541 1.438 . S
C542 C543 1.428 . S
C542 C555 1.394 . S
C543 H535 0.949 . S
C543 C542 1.428 . S
C543 C544 1.345 . S
C544 H536 0.950 . S
C544 C543 1.345 . S
C544 C545 1.424 . S
C545 H537 0.951 . S
C545 C544 1.424 . S
C545 C546 1.347 . S
C546 H538 0.951 . S
C546 C541 1.429 . S
C546 C545 1.347 . S
H547 C548 0.951 . S
C548 H547 0.951 . S
C548 C554 1.265 . S
H549 C554 0.950 . S
H550 C558 0.949 . S
H551 C559 0.950 1_556 S
H552 C560 0.951 1_556 S
H553 C561 0.951 . S
C554 C548 1.265 . S
C554 H549 0.950 . S
C554 C555 1.478 . S
C555 C542 1.394 . S
C555 C554 1.478 . S
C555 C556 1.397 . S
C556 C555 1.397 . S
C556 C557 1.438 . S
C556 C561 1.429 . S
C557 C540 1.394 . S
C557 C556 1.438 . S
C557 C558 1.428 . S
C558 H550 0.949 . S
C558 C557 1.428 . S
C558 C559 1.345 . S
C559 H551 0.950 1_554 S
C559 C558 1.345 . S
C559 C560 1.424 . S
C560 H552 0.951 1_554 S
C560 C559 1.424 . S
C560 C561 1.347 . S
C561 H553 0.951 . S
C561 C556 1.429 . S
C561 C560 1.347 . S
H562 C563 0.951 . S
C563 H562 0.951 . S
C563 C569 1.265 . S
H564 C569 0.950 . S
H565 C573 0.949 . S
H566 C574 0.950 . S
H567 C575 0.951 . S
H568 C576 0.951 . S
C569 C563 1.265 . S
C569 H564 0.950 . S
C569 C570 1.478 . S
C570 C569 1.478 . S
C570 C571 1.397 . S
C570 C587 1.394 . S
C571 C570 1.397 . S
C571 C572 1.438 . S
C571 C576 1.429 . S
C572 C571 1.438 . S
C572 C573 1.428 . S
C572 C585 1.394 . S
C573 H565 0.949 . S
C573 C572 1.428 . S
C573 C574 1.345 . S
C574 H566 0.950 . S
C574 C573 1.345 . S
C574 C575 1.424 . S
C575 H567 0.951 . S
C575 C574 1.424 . S
C575 C576 1.347 . S
C576 H568 0.951 . S
C576 C571 1.429 . S
C576 C575 1.347 . S
H577 C578 0.951 . S
C578 H577 0.951 . S
C578 C584 1.265 . S
H579 C584 0.950 . S
H580 C588 0.949 . S
H581 C589 0.950 . S
H582 C590 0.951 . S
H583 C591 0.951 . S
C584 C578 1.265 . S
C584 H579 0.950 . S
C584 C585 1.478 . S
C585 C572 1.394 . S
C585 C584 1.478 . S
C585 C586 1.397 . S
C586 C585 1.397 . S
C586 C587 1.438 . S
C586 C591 1.429 . S
C587 C570 1.394 . S
C587 C586 1.438 . S
C587 C588 1.428 . S
C588 H580 0.949 . S
C588 C587 1.428 . S
C588 C589 1.345 . S
C589 H581 0.950 . S
C589 C588 1.345 . S
C589 C590 1.424 . S
C590 H582 0.951 . S
C590 C589 1.424 . S
C590 C591 1.347 . S
C591 H583 0.951 . S
C591 C586 1.429 . S
C591 C590 1.347 . S
C113 C20 1.502 . S
C128 C6 1.522 . S
C143 C21 1.535 . S
C158 C34 1.516 . S
C173 C49 1.489 . S
C188 C35 1.505 . S
C203 C48 1.499 . S
C218 C7 1.518 . S
C233 C62 1.487 . S
C248 C76 1.501 . S
C263 C77 1.512 . S
C278 C90 1.531 . S
C293 C91 1.515 . S
C308 C105 1.533 . S
C323 C63 1.520 . S
C338 C104 1.538 . S
C353 C8 1.553 . S
C368 C107 1.555 . S
C383 C65 1.544 . S
C398 C23 1.525 . S
C413 C78 1.543 . S
C428 C37 1.523 . S
C443 C50 1.539 . S
C458 C92 1.519 . S
C473 C36 1.540 . S
C488 C106 1.521 . S
C503 C64 1.506 . S
C518 C51 1.521 . S
C533 C79 1.544 . S
C548 C9 1.525 . S
C563 C22 1.525 . S
C578 C93 1.508 . S
