# Generated by pormake.
# Topology svb, (7)-cn, num edge types: 1
# Building blocks:
#     Node 0, Type 0, BuildingBlock: HICVOG_clean_sbu_0, # of connection points: 7
#     Node 1, Type 0, BuildingBlock: HICVOG_clean_sbu_0, # of connection points: 7
#     Node 2, Type 0, BuildingBlock: HICVOG_clean_sbu_0, # of connection points: 7
#     Node 3, Type 0, BuildingBlock: HICVOG_clean_sbu_0, # of connection points: 7
#     Node 4, Type 0, BuildingBlock: HICVOG_clean_sbu_0, # of connection points: 7
#     Node 5, Type 0, BuildingBlock: HICVOG_clean_sbu_0, # of connection points: 7
#     Node 6, Type 0, BuildingBlock: HICVOG_clean_sbu_0, # of connection points: 7
#     Node 7, Type 0, BuildingBlock: HICVOG_clean_sbu_0, # of connection points: 7
#     Node 8, Type 0, BuildingBlock: HICVOG_clean_sbu_0, # of connection points: 7
#     Node 9, Type 0, BuildingBlock: HICVOG_clean_sbu_0, # of connection points: 7
#     Node 10, Type 0, BuildingBlock: HICVOG_clean_sbu_0, # of connection points: 7
#     Node 11, Type 0, BuildingBlock: HICVOG_clean_sbu_0, # of connection points: 7
#     Node 12, Type 0, BuildingBlock: HICVOG_clean_sbu_0, # of connection points: 7
#     Node 13, Type 0, BuildingBlock: HICVOG_clean_sbu_0, # of connection points: 7
#     Node 14, Type 0, BuildingBlock: HICVOG_clean_sbu_0, # of connection points: 7
#     Node 15, Type 0, BuildingBlock: HICVOG_clean_sbu_0, # of connection points: 7
#     Edge 16, Type (0, 0), BuildingBlock: CIFDUS_clean_linker_0, # of connection points: 2
#     Edge 17, Type (0, 0), BuildingBlock: CIFDUS_clean_linker_0, # of connection points: 2
#     Edge 18, Type (0, 0), BuildingBlock: CIFDUS_clean_linker_0, # of connection points: 2
#     Edge 19, Type (0, 0), BuildingBlock: CIFDUS_clean_linker_0, # of connection points: 2
#     Edge 20, Type (0, 0), BuildingBlock: CIFDUS_clean_linker_0, # of connection points: 2
#     Edge 21, Type (0, 0), BuildingBlock: CIFDUS_clean_linker_0, # of connection points: 2
#     Edge 22, Type (0, 0), BuildingBlock: CIFDUS_clean_linker_0, # of connection points: 2
#     Edge 23, Type (0, 0), BuildingBlock: CIFDUS_clean_linker_0, # of connection points: 2
#     Edge 24, Type (0, 0), BuildingBlock: CIFDUS_clean_linker_0, # of connection points: 2
#     Edge 25, Type (0, 0), BuildingBlock: CIFDUS_clean_linker_0, # of connection points: 2
#     Edge 26, Type (0, 0), BuildingBlock: CIFDUS_clean_linker_0, # of connection points: 2
#     Edge 27, Type (0, 0), BuildingBlock: CIFDUS_clean_linker_0, # of connection points: 2
#     Edge 28, Type (0, 0), BuildingBlock: CIFDUS_clean_linker_0, # of connection points: 2
#     Edge 29, Type (0, 0), BuildingBlock: CIFDUS_clean_linker_0, # of connection points: 2
#     Edge 30, Type (0, 0), BuildingBlock: CIFDUS_clean_linker_0, # of connection points: 2
#     Edge 31, Type (0, 0), BuildingBlock: CIFDUS_clean_linker_0, # of connection points: 2
#     Edge 32, Type (0, 0), BuildingBlock: CIFDUS_clean_linker_0, # of connection points: 2
#     Edge 33, Type (0, 0), BuildingBlock: CIFDUS_clean_linker_0, # of connection points: 2
#     Edge 34, Type (0, 0), BuildingBlock: CIFDUS_clean_linker_0, # of connection points: 2
#     Edge 35, Type (0, 0), BuildingBlock: CIFDUS_clean_linker_0, # of connection points: 2
#     Edge 36, Type (0, 0), BuildingBlock: CIFDUS_clean_linker_0, # of connection points: 2
#     Edge 37, Type (0, 0), BuildingBlock: CIFDUS_clean_linker_0, # of connection points: 2
#     Edge 38, Type (0, 0), BuildingBlock: CIFDUS_clean_linker_0, # of connection points: 2
#     Edge 39, Type (0, 0), BuildingBlock: CIFDUS_clean_linker_0, # of connection points: 2
#     Edge 40, Type (0, 0), BuildingBlock: CIFDUS_clean_linker_0, # of connection points: 2
#     Edge 41, Type (0, 0), BuildingBlock: CIFDUS_clean_linker_0, # of connection points: 2
#     Edge 42, Type (0, 0), BuildingBlock: CIFDUS_clean_linker_0, # of connection points: 2
#     Edge 43, Type (0, 0), BuildingBlock: CIFDUS_clean_linker_0, # of connection points: 2
#     Edge 44, Type (0, 0), BuildingBlock: CIFDUS_clean_linker_0, # of connection points: 2
#     Edge 45, Type (0, 0), BuildingBlock: CIFDUS_clean_linker_0, # of connection points: 2
#     Edge 46, Type (0, 0), BuildingBlock: CIFDUS_clean_linker_0, # of connection points: 2
#     Edge 47, Type (0, 0), BuildingBlock: CIFDUS_clean_linker_0, # of connection points: 2
#     Edge 48, Type (0, 0), BuildingBlock: CIFDUS_clean_linker_0, # of connection points: 2
#     Edge 49, Type (0, 0), BuildingBlock: CIFDUS_clean_linker_0, # of connection points: 2
#     Edge 50, Type (0, 0), BuildingBlock: CIFDUS_clean_linker_0, # of connection points: 2
#     Edge 51, Type (0, 0), BuildingBlock: CIFDUS_clean_linker_0, # of connection points: 2
#     Edge 52, Type (0, 0), BuildingBlock: CIFDUS_clean_linker_0, # of connection points: 2
#     Edge 53, Type (0, 0), BuildingBlock: CIFDUS_clean_linker_0, # of connection points: 2
#     Edge 54, Type (0, 0), BuildingBlock: CIFDUS_clean_linker_0, # of connection points: 2
#     Edge 55, Type (0, 0), BuildingBlock: CIFDUS_clean_linker_0, # of connection points: 2
#     Edge 56, Type (0, 0), BuildingBlock: CIFDUS_clean_linker_0, # of connection points: 2
#     Edge 57, Type (0, 0), BuildingBlock: CIFDUS_clean_linker_0, # of connection points: 2
#     Edge 58, Type (0, 0), BuildingBlock: CIFDUS_clean_linker_0, # of connection points: 2
#     Edge 59, Type (0, 0), BuildingBlock: CIFDUS_clean_linker_0, # of connection points: 2
#     Edge 60, Type (0, 0), BuildingBlock: CIFDUS_clean_linker_0, # of connection points: 2
#     Edge 61, Type (0, 0), BuildingBlock: CIFDUS_clean_linker_0, # of connection points: 2
#     Edge 62, Type (0, 0), BuildingBlock: CIFDUS_clean_linker_0, # of connection points: 2
#     Edge 63, Type (0, 0), BuildingBlock: CIFDUS_clean_linker_0, # of connection points: 2
#     Edge 64, Type (0, 0), BuildingBlock: CIFDUS_clean_linker_0, # of connection points: 2
#     Edge 65, Type (0, 0), BuildingBlock: CIFDUS_clean_linker_0, # of connection points: 2
#     Edge 66, Type (0, 0), BuildingBlock: CIFDUS_clean_linker_0, # of connection points: 2
#     Edge 67, Type (0, 0), BuildingBlock: CIFDUS_clean_linker_0, # of connection points: 2
#     Edge 68, Type (0, 0), BuildingBlock: CIFDUS_clean_linker_0, # of connection points: 2
#     Edge 69, Type (0, 0), BuildingBlock: CIFDUS_clean_linker_0, # of connection points: 2
#     Edge 70, Type (0, 0), BuildingBlock: CIFDUS_clean_linker_0, # of connection points: 2
#     Edge 71, Type (0, 0), BuildingBlock: CIFDUS_clean_linker_0, # of connection points: 2
# Relax obj value: 0.380
# Max RMSD: 0.274
# Mean RMSD: 0.256
data_MOF--net-svb--node1-HICVOG_clean_sbu_0--edge1-CIFDUS_clean_linker_0
_symmetry_space_group_name_H-M    P1
_symmetry_Int_Tables_number       1
_symmetry_cell_setting            triclinic
loop_
_symmetry_equiv_pos_as_xyz
'x, y, z'
_cell_length_a     43.462862
_cell_length_b     46.700964
_cell_length_c     23.269773
_cell_angle_alpha  96.09637
_cell_angle_beta   97.514765
_cell_angle_gamma 89.764362
loop_
_atom_site_label
_atom_site_type_symbol
_atom_site_fract_x
_atom_site_fract_y
_atom_site_fract_z
_atom_type_partial_charge
Zn0 Zn 0.10841 0.34842 0.27241 0.0
C1 C 0.11697 0.43541 0.29318 0.0
N2 N 0.10288 0.43155 0.33986 0.0
C3 C 0.0952 0.4037 0.33191 0.0
N4 N 0.10501 0.3905 0.28324 0.0
N5 N 0.11771 0.41051 0.25686 0.0
C6 C 0.18078 0.41896 0.15336 0.0
O7 O 0.18719 0.4048 0.19926 0.0
O8 O 0.06685 0.32992 0.2586 0.0
Zn9 Zn 0.11933 0.40369 0.17171 0.0
N10 N 0.13363 0.33705 0.34138 0.0
C11 C 0.1825 0.3452 0.39999 0.0
C12 C 0.16067 0.35222 0.3546 0.0
C13 C 0.12728 0.31501 0.37233 0.0
N14 N 0.17652 0.32311 0.43034 0.0
C15 C 0.14952 0.30767 0.41823 0.0
O16 O 0.13217 0.36408 0.14633 0.0
C17 C 0.13596 0.33839 0.15811 0.0
O18 O 0.12885 0.33023 0.2049 0.0
H19 H 0.16542 0.36938 0.32912 0.0
H20 H 0.10583 0.30288 0.36016 0.0
C21 C 0.06571 0.39325 0.08095 0.0
C22 C 0.03365 0.39422 0.06077 0.0
C23 C 0.02648 0.42566 0.14497 0.0
C24 C 0.05804 0.42466 0.16469 0.0
N25 N 0.07709 0.40831 0.13296 0.0
N26 N 0.01508 0.41043 0.09387 0.0
H27 H 0.08113 0.37997 0.05679 0.0
C28 C 0.05201 0.33199 0.20839 0.0
O29 O 0.06429 0.34661 0.17177 0.0
O30 O 0.15253 0.42446 0.13626 0.0
H31 H 0.06705 0.43629 0.20595 0.0
H32 H 0.20422 0.357 0.41066 0.0
H33 H 0.01108 0.43832 0.17028 0.0
Zn34 Zn 0.85749 0.8931 0.39294 0.0
C35 C 0.88473 0.88719 0.23187 0.0
N36 N 0.88359 0.91589 0.23822 0.0
C37 C 0.87038 0.92158 0.28723 0.0
N38 N 0.86407 0.89717 0.31104 0.0
N39 N 0.87235 0.8756 0.27433 0.0
C40 C 0.93028 0.82426 0.30593 0.0
O41 O 0.92759 0.84476 0.34817 0.0
O42 O 0.81732 0.90978 0.41862 0.0
Zn43 Zn 0.86726 0.83454 0.27099 0.0
N44 N 0.89144 0.91241 0.44593 0.0
C45 C 0.91921 0.956 0.48009 0.0
C46 C 0.89506 0.94116 0.44422 0.0
C47 C 0.91028 0.89805 0.48481 0.0
N48 N 0.93817 0.94174 0.51812 0.0
C49 C 0.93432 0.91316 0.52239 0.0
O50 O 0.85586 0.81713 0.34104 0.0
C51 C 0.85618 0.82544 0.39496 0.0
O52 O 0.85788 0.85202 0.41405 0.0
H53 H 0.87904 0.95259 0.41586 0.0
H54 H 0.9067 0.87524 0.48625 0.0
C55 C 0.85314 0.79693 0.16478 0.0
C56 C 0.83623 0.78715 0.11039 0.0
C57 C 0.79825 0.82274 0.12772 0.0
C58 C 0.81516 0.83233 0.1814 0.0
N59 N 0.84224 0.81931 0.19887 0.0
N60 N 0.80917 0.8006 0.09358 0.0
H61 H 0.87517 0.78749 0.17924 0.0
C62 C 0.79151 0.89632 0.40581 0.0
O63 O 0.78969 0.87322 0.36796 0.0
O64 O 0.9079 0.8182 0.26609 0.0
H65 H 0.80709 0.85028 0.20863 0.0
H66 H 0.9226 0.97882 0.47842 0.0
H67 H 0.7767 0.83298 0.11301 0.0
Zn68 Zn 0.442 0.64211 0.60725 0.0
C69 C 0.35273 0.61307 0.57625 0.0
N70 N 0.35614 0.6166 0.52101 0.0
C71 C 0.38437 0.62875 0.52492 0.0
N72 N 0.3983 0.6318 0.58109 0.0
N73 N 0.37796 0.62276 0.61351 0.0
C74 C 0.33655 0.5828 0.74865 0.0
O75 O 0.30767 0.59051 0.7517 0.0
O76 O 0.44815 0.68467 0.62814 0.0
Zn77 Zn 0.38125 0.62937 0.69858 0.0
N78 N 0.46565 0.62653 0.5448 0.0
C79 C 0.46609 0.58873 0.46768 0.0
C80 C 0.45353 0.60139 0.51602 0.0
C81 C 0.49142 0.63872 0.52898 0.0
N82 N 0.49119 0.60105 0.45111 0.0
C83 C 0.50459 0.62552 0.48057 0.0
O84 O 0.42421 0.62184 0.73653 0.0
C85 C 0.45259 0.61998 0.72868 0.0
O86 O 0.46176 0.62552 0.6812 0.0
H87 H 0.43389 0.59134 0.53015 0.0
H88 H 0.50122 0.6584 0.55304 0.0
C89 C 0.36613 0.68115 0.77644 0.0
C90 C 0.35692 0.71027 0.78557 0.0
C91 C 0.35532 0.71385 0.68407 0.0
C92 C 0.36405 0.68531 0.67532 0.0
N93 N 0.36935 0.66934 0.72111 0.0
N94 N 0.35199 0.72551 0.73853 0.0
H95 H 0.37011 0.66797 0.81214 0.0
C96 C 0.43225 0.70725 0.62103 0.0
O97 O 0.40482 0.70593 0.58969 0.0
O98 O 0.35477 0.59988 0.72969 0.0
H99 H 0.36597 0.67581 0.63174 0.0
H100 H 0.45615 0.56908 0.44375 0.0
H101 H 0.351 0.72665 0.6478 0.0
Zn102 Zn 0.61701 0.12251 0.91078 0.0
C103 C 0.59853 0.13016 0.73868 0.0
N104 N 0.60615 0.10243 0.73119 0.0
C105 C 0.61684 0.09647 0.78539 0.0
N106 N 0.61522 0.11989 0.8253 0.0
N107 N 0.60442 0.14117 0.79489 0.0
C108 C 0.53764 0.1874 0.81268 0.0
O109 O 0.53825 0.16344 0.83764 0.0
O110 O 0.65895 0.11057 0.95407 0.0
Zn111 Zn 0.60405 0.18261 0.81505 0.0
N112 N 0.57918 0.10495 0.93013 0.0
C113 C 0.53506 0.07483 0.89562 0.0
C114 C 0.56433 0.08488 0.88935 0.0
C115 C 0.56531 0.11572 0.97726 0.0
N116 N 0.52114 0.08581 0.94171 0.0
C117 C 0.53518 0.10614 0.98288 0.0
O118 O 0.61692 0.20031 0.89798 0.0
C119 C 0.61836 0.18972 0.94623 0.0
O120 O 0.61719 0.16275 0.94807 0.0
H121 H 0.57437 0.07745 0.85076 0.0
H122 H 0.57684 0.13251 1.00814 0.0
C123 C 0.61873 0.22355 0.73913 0.0
C124 C 0.63482 0.23331 0.69634 0.0
C125 C 0.67036 0.19491 0.70732 0.0
C126 C 0.65424 0.18519 0.74954 0.0
N127 N 0.6286 0.19946 0.76403 0.0
N128 N 0.66017 0.21853 0.68144 0.0
H129 H 0.598 0.2343 0.75095 0.0
C130 C 0.68019 0.1284 0.9485 0.0
O131 O 0.6738 0.14768 0.91156 0.0
O132 O 0.56206 0.19716 0.79732 0.0
H133 H 0.66153 0.16596 0.7695 0.0
H134 H 0.52308 0.05896 0.86324 0.0
H135 H 0.69057 0.18358 0.69462 0.0
Zn136 Zn 0.12761 0.63731 0.4067 0.0
C137 C 0.10514 0.63591 0.23208 0.0
N138 N 0.10875 0.60752 0.23096 0.0
C139 C 0.12005 0.60395 0.28619 0.0
N140 N 0.12263 0.6294 0.32095 0.0
N141 N 0.11409 0.64953 0.28581 0.0
C142 C 0.05126 0.69862 0.29053 0.0
O143 O 0.04793 0.6709 0.2928 0.0
O144 O 0.15745 0.61071 0.4518 0.0
Zn145 Zn 0.1184 0.69129 0.29959 0.0
N146 N 0.08637 0.64261 0.43089 0.0
C147 C 0.04747 0.67879 0.42968 0.0
C148 C 0.07572 0.66844 0.41519 0.0
C149 C 0.06951 0.62642 0.46142 0.0
N150 N 0.03065 0.66287 0.45966 0.0
C151 C 0.0407 0.63701 0.47603 0.0
O152 O 0.1405 0.70983 0.37665 0.0
C153 C 0.15037 0.70163 0.42597 0.0
O154 O 0.14653 0.67597 0.43681 0.0
H155 H 0.08928 0.68105 0.39135 0.0
H156 H 0.0784 0.60611 0.47467 0.0
C157 C 0.12722 0.72327 0.20367 0.0
C158 C 0.14224 0.72938 0.15643 0.0
C159 C 0.18195 0.69645 0.18388 0.0
C160 C 0.16685 0.69026 0.23036 0.0
N161 N 0.1397 0.70349 0.23888 0.0
N162 N 0.16923 0.71561 0.14789 0.0
H163 H 0.10541 0.7333 0.21113 0.0
C164 C 0.18566 0.61918 0.45797 0.0
O165 O 0.19312 0.64102 0.43127 0.0
O166 O 0.07789 0.70965 0.292 0.0
H167 H 0.17621 0.67455 0.25873 0.0
H168 H 0.03896 0.69936 0.41736 0.0
H169 H 0.20342 0.68587 0.176 0.0
Zn170 Zn 0.61875 0.89307 0.67341 0.0
C171 C 0.60068 0.89866 0.8368 0.0
N172 N 0.60781 0.92659 0.83977 0.0
C173 C 0.62107 0.92846 0.79118 0.0
N174 N 0.62157 0.90254 0.75859 0.0
N175 N 0.61002 0.88381 0.78932 0.0
C176 C 0.56318 0.81871 0.74271 0.0
O177 O 0.5693 0.83324 0.70011 0.0
O178 O 0.64767 0.91499 0.63033 0.0
Zn179 Zn 0.62002 0.84321 0.78916 0.0
N180 N 0.57484 0.89509 0.6419 0.0
C181 C 0.52324 0.9028 0.66401 0.0
C182 C 0.55514 0.90469 0.68048 0.0
C183 C 0.56361 0.88428 0.58631 0.0
N184 N 0.51207 0.89187 0.60906 0.0
C185 C 0.53121 0.88266 0.56921 0.0
O186 O 0.63889 0.82429 0.72068 0.0
C187 C 0.64025 0.82899 0.66833 0.0
O188 O 0.632 0.85283 0.64989 0.0
H189 H 0.56392 0.91319 0.72438 0.0
H190 H 0.57962 0.87643 0.55646 0.0
C191 C 0.64762 0.81708 0.8922 0.0
C192 C 0.66897 0.81668 0.94321 0.0
C193 C 0.69184 0.85997 0.92281 0.0
C194 C 0.67069 0.86032 0.87259 0.0
N195 N 0.64885 0.83914 0.85852 0.0
N196 N 0.69038 0.83836 0.95697 0.0
H197 H 0.62985 0.80057 0.88016 0.0
C198 C 0.67673 0.91402 0.64702 0.0
O199 O 0.68626 0.90368 0.69657 0.0
O200 O 0.58199 0.8202 0.78951 0.0
H201 H 0.67144 0.87751 0.84508 0.0
H202 H 0.50743 0.90995 0.69471 0.0
H203 H 0.70921 0.87682 0.9348 0.0
Zn204 Zn 0.36051 0.38945 0.89526 0.0
C205 C 0.37423 0.38589 0.72649 0.0
N206 N 0.37056 0.41442 0.73227 0.0
C207 C 0.36127 0.4196 0.78529 0.0
N208 N 0.3599 0.39509 0.81192 0.0
N209 N 0.36733 0.37401 0.77349 0.0
C210 C 0.42091 0.31711 0.81527 0.0
O211 O 0.41942 0.33943 0.85419 0.0
O212 O 0.32482 0.40892 0.93297 0.0
Zn213 Zn 0.36009 0.3334 0.76987 0.0
N214 N 0.39982 0.40441 0.9379 0.0
C215 C 0.44411 0.4346 0.94141 0.0
C216 C 0.41585 0.42366 0.91314 0.0
C217 C 0.41147 0.39512 0.99006 0.0
N218 N 0.4556 0.42555 0.9932 0.0
C219 C 0.44034 0.40598 0.01884 0.0
O220 O 0.33895 0.31924 0.83372 0.0
C221 C 0.34769 0.32322 0.88839 0.0
O222 O 0.35858 0.34745 0.91283 0.0
H223 H 0.4071 0.43037 0.87152 0.0
H224 H 0.39826 0.37973 1.00873 0.0
C225 C 0.34792 0.3028 0.65417 0.0
C226 C 0.33135 0.2976 0.59787 0.0
C227 C 0.29265 0.33021 0.62637 0.0
C228 C 0.30921 0.33541 0.68192 0.0
N229 N 0.3365 0.32177 0.69468 0.0
N230 N 0.30415 0.31165 0.58569 0.0
H231 H 0.3701 0.29276 0.66504 0.0
C232 C 0.29657 0.40278 0.91373 0.0
O233 O 0.29026 0.38591 0.86472 0.0
O234 O 0.39914 0.31203 0.77365 0.0
H235 H 0.30083 0.35071 0.71442 0.0
H236 H 0.45698 0.45004 0.92219 0.0
H237 H 0.271 0.34109 0.61537 0.0
Zn238 Zn 0.94472 0.14556 0.11291 0.0
C239 C 0.85428 0.12172 0.06692 0.0
N240 N 0.86072 0.1295 0.0157 0.0
C241 C 0.8904 0.13838 0.02737 0.0
N242 N 0.9018 0.13568 0.08321 0.0
N243 N 0.87889 0.12629 0.10917 0.0
C244 C 0.83337 0.08187 0.23492 0.0
O245 O 0.80353 0.0869 0.23307 0.0
O246 O 0.94995 0.18785 0.12101 0.0
Zn247 Zn 0.87828 0.13109 0.19394 0.0
N248 N 0.97142 0.1273 0.05843 0.0
C249 C 0.99035 0.0817 0.02355 0.0
C250 C 0.97099 0.09815 0.05677 0.0
C251 C 0.99042 0.14089 0.02707 0.0
N252 N 0.00954 0.09505 0.99314 0.0
C253 C 0.01026 0.12419 0.99362 0.0
O254 O 0.92023 0.12474 0.2378 0.0
C255 C 0.94936 0.12504 0.2359 0.0
O256 O 0.96073 0.13212 0.19167 0.0
H257 H 0.95593 0.08782 0.08206 0.0
H258 H 0.99059 0.16415 0.0291 0.0
C259 C 0.86118 0.18161 0.27343 0.0
C260 C 0.85119 0.21044 0.28389 0.0
C261 C 0.84813 0.21483 0.18236 0.0
C262 C 0.85783 0.18664 0.1724 0.0
N263 N 0.86406 0.17033 0.21749 0.0
N264 N 0.84506 0.22591 0.23735 0.0
H265 H 0.86631 0.1683 0.30873 0.0
C266 C 0.9407 0.20188 0.16518 0.0
O267 O 0.92829 0.18789 0.20258 0.0
O268 O 0.85068 0.10079 0.21917 0.0
H269 H 0.86085 0.17806 0.12877 0.0
H270 H 0.99034 0.05848 0.02227 0.0
H271 H 0.84322 0.22792 0.14666 0.0
Zn272 Zn 0.90003 0.60632 0.84632 0.0
C273 C 0.91896 0.60256 0.68316 0.0
N274 N 0.91234 0.57452 0.67759 0.0
C275 C 0.89913 0.57108 0.72554 0.0
N276 N 0.89814 0.5965 0.76053 0.0
N277 N 0.90936 0.6162 0.73148 0.0
C278 C 0.95797 0.67633 0.80206 0.0
O279 O 0.94563 0.66157 0.83829 0.0
O280 O 0.87264 0.58366 0.88992 0.0
Zn281 Zn 0.90265 0.65765 0.737 0.0
N282 N 0.94369 0.60452 0.87927 0.0
C283 C 0.99537 0.5942 0.8605 0.0
C284 C 0.96353 0.59266 0.84298 0.0
C285 C 0.95462 0.61731 0.93359 0.0
N286 N 1.00627 0.60713 0.91415 0.0
C287 C 0.98693 0.6187 0.95176 0.0
O288 O 0.87962 0.67556 0.80137 0.0
C289 C 0.87713 0.67048 0.85314 0.0
O290 O 0.88559 0.64662 0.87149 0.0
H291 H 0.95487 0.58266 0.80004 0.0
H292 H 0.93843 0.62697 0.96139 0.0
C293 C 0.88324 0.68773 0.63209 0.0
C294 C 0.86466 0.68933 0.57805 0.0
C295 C 0.83787 0.64681 0.59122 0.0
C296 C 0.85619 0.64524 0.64437 0.0
N297 N 0.87877 0.66534 0.66355 0.0
N298 N 0.84264 0.66861 0.55927 0.0
H299 H 0.90133 0.70354 0.64811 0.0
C300 C 0.84332 0.58629 0.88033 0.0
O301 O 0.83132 0.59913 0.83512 0.0
O302 O 0.94338 0.67813 0.75156 0.0
H303 H 0.85267 0.62789 0.67018 0.0
H304 H 0.01136 0.58522 0.83163 0.0
H305 H 0.82005 0.63076 0.57525 0.0
Zn306 Zn 0.15397 0.11634 0.63032 0.0
C307 C 0.14379 0.1203 0.80112 0.0
N308 N 0.15118 0.0924 0.79586 0.0
C309 C 0.15987 0.08823 0.74215 0.0
N310 N 0.15737 0.11252 0.71466 0.0
N311 N 0.14813 0.13272 0.75305 0.0
C312 C 0.08548 0.18413 0.71021 0.0
O313 O 0.09337 0.16918 0.66339 0.0
O314 O 0.1864 0.09354 0.58925 0.0
Zn315 Zn 0.14643 0.17346 0.75158 0.0
N316 N 0.11162 0.10576 0.59605 0.0
C317 C 0.06147 0.09179 0.61381 0.0
C318 C 0.09247 0.09791 0.63351 0.0
C319 C 0.10046 0.10897 0.53941 0.0
N320 N 0.0504 0.09487 0.55776 0.0
C321 C 0.06865 0.10355 0.51937 0.0
O322 O 0.15725 0.19079 0.68116 0.0
C323 C 0.16118 0.18279 0.62886 0.0
O324 O 0.16019 0.15646 0.60852 0.0
H325 H 0.10088 0.09709 0.67891 0.0
H326 H 0.11615 0.11597 0.51118 0.0
C327 C 0.16001 0.206 0.86337 0.0
C328 C 0.17965 0.22016 0.91043 0.0
C329 C 0.22341 0.20296 0.86622 0.0
C330 C 0.20381 0.18914 0.81942 0.0
N331 N 0.17261 0.19113 0.81877 0.0
N332 N 0.21093 0.2183 0.91023 0.0
H333 H 0.13504 0.20751 0.86111 0.0
C334 C 0.21491 0.09809 0.60888 0.0
O335 O 0.22196 0.11382 0.65914 0.0
O336 O 0.10438 0.1865 0.75673 0.0
H337 H 0.21328 0.17719 0.78344 0.0
H338 H 0.04608 0.08529 0.64313 0.0
H339 H 0.24834 0.20183 0.86729 0.0
Zn340 Zn 0.56939 0.3538 0.41616 0.0
C341 C 0.65707 0.3851 0.46241 0.0
N342 N 0.65348 0.37185 0.50981 0.0
C343 C 0.62564 0.35897 0.49531 0.0
N344 N 0.61262 0.36437 0.44197 0.0
N345 N 0.6326 0.38001 0.4197 0.0
C346 C 0.6356 0.43624 0.30898 0.0
O347 O 0.61025 0.43636 0.33413 0.0
O348 O 0.564 0.31132 0.4033 0.0
Zn349 Zn 0.63022 0.37993 0.33521 0.0
N350 N 0.54613 0.37083 0.47667 0.0
C351 C 0.53698 0.41523 0.53173 0.0
C352 C 0.55248 0.39938 0.49058 0.0
C353 C 0.52465 0.35726 0.50252 0.0
N354 N 0.51556 0.40193 0.5573 0.0
C355 C 0.50885 0.37338 0.54401 0.0
O356 O 0.5863 0.38345 0.29569 0.0
C357 C 0.5578 0.3792 0.29927 0.0
O358 O 0.54897 0.36859 0.34238 0.0
H359 H 0.56939 0.40976 0.46926 0.0
H360 H 0.51976 0.33455 0.49059 0.0
C361 C 0.6384 0.3313 0.24832 0.0
C362 C 0.64837 0.30319 0.23129 0.0
C363 C 0.67285 0.30043 0.32811 0.0
C364 C 0.66212 0.32759 0.34494 0.0
N365 N 0.64578 0.3429 0.30488 0.0
N366 N 0.66567 0.28895 0.27218 0.0
H367 H 0.62394 0.34337 0.21824 0.0
C368 C 0.57193 0.29927 0.356 0.0
O369 O 0.58416 0.31502 0.32117 0.0
O370 O 0.65245 0.41386 0.30887 0.0
H371 H 0.66615 0.33596 0.39015 0.0
H372 H 0.5418 0.43798 0.54309 0.0
H373 H 0.68611 0.28817 0.35954 0.0
Zn374 Zn 0.40496 0.81435 0.22488 0.0
C375 C 0.39361 0.90136 0.23562 0.0
N376 N 0.404 0.89817 0.29151 0.0
C377 C 0.40933 0.87006 0.29118 0.0
N378 N 0.40225 0.85616 0.23732 0.0
N379 N 0.39318 0.87577 0.20103 0.0
C380 C 0.33274 0.89724 0.07716 0.0
O381 O 0.32824 0.89797 0.132 0.0
O382 O 0.44806 0.80155 0.23311 0.0
Zn383 Zn 0.39005 0.86656 0.11459 0.0
N384 N 0.38563 0.79649 0.28266 0.0
C385 C 0.34051 0.7907 0.32814 0.0
C386 C 0.35647 0.80486 0.29111 0.0
C387 C 0.3997 0.77448 0.31 0.0
N388 N 0.35419 0.76844 0.35444 0.0
C389 C 0.38346 0.75988 0.34664 0.0
O390 O 0.37352 0.82639 0.08477 0.0
C391 C 0.37447 0.80056 0.09752 0.0
O392 O 0.38627 0.79446 0.14747 0.0
H393 H 0.34562 0.82211 0.26851 0.0
H394 H 0.42268 0.76772 0.3016 0.0
C395 C 0.44775 0.8794 0.05867 0.0
C396 C 0.47696 0.86962 0.04424 0.0
C397 C 0.47276 0.82897 0.09529 0.0
C398 C 0.44437 0.83869 0.1102 0.0
N399 N 0.43207 0.86342 0.09174 0.0
N400 N 0.48838 0.84465 0.06293 0.0
H401 H 0.43761 0.8988 0.04311 0.0
C402 C 0.47396 0.81417 0.23553 0.0
O403 O 0.47562 0.84209 0.234 0.0
O404 O 0.35885 0.88885 0.06266 0.0
H405 H 0.43184 0.82632 0.13605 0.0
H406 H 0.3172 0.79702 0.33515 0.0
H407 H 0.48231 0.80903 0.10897 0.0
Zn408 Zn 0.90104 0.31525 0.72493 0.0
C409 C 0.89702 0.40229 0.7313 0.0
N410 N 0.90998 0.39938 0.78599 0.0
C411 C 0.91381 0.37112 0.78598 0.0
N412 N 0.90349 0.35689 0.73366 0.0
N413 N 0.89373 0.37636 0.69764 0.0
C414 C 0.82962 0.39772 0.57902 0.0
O415 O 0.82613 0.39817 0.63432 0.0
O416 O 0.94269 0.30001 0.74383 0.0
Zn417 Zn 0.8867 0.36577 0.61168 0.0
N418 N 0.87809 0.30348 0.78401 0.0
C419 C 0.83626 0.31153 0.83977 0.0
C420 C 0.8517 0.31779 0.79373 0.0
C421 C 0.88942 0.28262 0.81761 0.0
N422 N 0.84791 0.29127 0.87419 0.0
C423 C 0.8741 0.27643 0.86441 0.0
O424 O 0.86802 0.32574 0.5851 0.0
C425 C 0.87009 0.29991 0.59797 0.0
O426 O 0.88324 0.29412 0.64738 0.0
H427 H 0.84325 0.33438 0.76675 0.0
H428 H 0.91066 0.27172 0.80927 0.0
C429 C 0.94264 0.37882 0.552 0.0
C430 C 0.96991 0.36853 0.52983 0.0
C431 C 0.96436 0.32427 0.5681 0.0
C432 C 0.93824 0.33457 0.59153 0.0
N433 N 0.92715 0.3612 0.58222 0.0
N434 N 0.9796 0.34146 0.53812 0.0
H435 H 0.93377 0.39998 0.54456 0.0
C436 C 0.96814 0.31095 0.73601 0.0
O437 O 0.96876 0.33475 0.71096 0.0
O438 O 0.8551 0.38879 0.56242 0.0
H439 H 0.92685 0.3212 0.61716 0.0
H440 H 0.8154 0.32294 0.84861 0.0
H441 H 0.97248 0.30274 0.57333 0.0
Zn442 Zn 0.40129 0.15896 0.2518 0.0
C443 C 0.39589 0.07144 0.23154 0.0
N444 N 0.40577 0.07693 0.18137 0.0
C445 C 0.40992 0.10539 0.18814 0.0
N446 N 0.4026 0.11727 0.2396 0.0
N447 N 0.39461 0.09607 0.26884 0.0
C448 C 0.33189 0.08938 0.37135 0.0
O449 O 0.32625 0.10416 0.32619 0.0
O450 O 0.44437 0.17355 0.25594 0.0
Zn451 Zn 0.39443 0.10274 0.35466 0.0
N452 N 0.37453 0.17157 0.18552 0.0
C453 C 0.32766 0.16105 0.12193 0.0
C454 C 0.34879 0.15481 0.16893 0.0
C455 C 0.37993 0.19483 0.15708 0.0
N456 N 0.33287 0.18409 0.09362 0.0
C457 C 0.35831 0.20151 0.10947 0.0
O458 O 0.3866 0.14367 0.38394 0.0
C459 C 0.38304 0.16978 0.37438 0.0
O460 O 0.38608 0.17783 0.32498 0.0
H461 H 0.34482 0.13658 0.19217 0.0
H462 H 0.40082 0.20753 0.17106 0.0
C463 C 0.44752 0.10974 0.44493 0.0
C464 C 0.47921 0.10729 0.46623 0.0
C465 C 0.48557 0.07493 0.38281 0.0
C466 C 0.45435 0.07759 0.36172 0.0
N467 N 0.4359 0.09502 0.39272 0.0
N468 N 0.49725 0.08988 0.43412 0.0
H469 H 0.43261 0.12401 0.46828 0.0
C470 C 0.46287 0.16654 0.29902 0.0
O471 O 0.4529 0.14928 0.33379 0.0
O472 O 0.35989 0.08327 0.38895 0.0
H473 H 0.4452 0.06651 0.32 0.0
H474 H 0.30716 0.14776 0.10807 0.0
H475 H 0.50056 0.06136 0.35823 0.0
Zn476 Zn 0.65551 0.61393 0.12653 0.0
C477 C 0.6401 0.62148 0.29208 0.0
N478 N 0.64664 0.59339 0.29095 0.0
C479 C 0.65907 0.58775 0.24085 0.0
N480 N 0.6592 0.61119 0.21104 0.0
N481 N 0.64861 0.63239 0.24519 0.0
C482 C 0.59472 0.68994 0.19958 0.0
O483 O 0.59919 0.67184 0.15431 0.0
O484 O 0.68546 0.58933 0.08389 0.0
Zn485 Zn 0.6541 0.67296 0.24524 0.0
N486 N 0.61289 0.60427 0.09241 0.0
C487 C 0.56251 0.5897 0.10769 0.0
C488 C 0.59339 0.59588 0.12873 0.0
C489 C 0.6023 0.60767 0.03558 0.0
N490 N 0.55202 0.59283 0.05134 0.0
C491 C 0.57076 0.60182 0.01407 0.0
O492 O 0.67059 0.68828 0.17771 0.0
C493 C 0.6692 0.67982 0.1237 0.0
O494 O 0.66271 0.65379 0.10407 0.0
H495 H 0.60154 0.59433 0.17402 0.0
H496 H 0.61826 0.6148 1.00796 0.0
C497 C 0.66762 0.70854 0.35295 0.0
C498 C 0.68441 0.71744 0.40768 0.0
C499 C 0.72278 0.68264 0.38816 0.0
C500 C 0.706 0.67393 0.3339 0.0
N501 N 0.6788 0.68702 0.31749 0.0
N502 N 0.71158 0.70402 0.42374 0.0
H503 H 0.64546 0.71794 0.33923 0.0
C504 C 0.71445 0.59481 0.09365 0.0
O505 O 0.72511 0.61311 0.13862 0.0
O506 O 0.61426 0.69191 0.24516 0.0
H507 H 0.71423 0.65658 0.3054 0.0
H508 H 0.54682 0.5828 0.13609 0.0
H509 H 0.7444 0.67235 0.40214 0.0
Zn510 Zn 0.07165 0.85679 0.901 0.0
C511 C 0.16027 0.8855 0.9522 0.0
N512 N 0.15398 0.87613 1.00214 0.0
C513 C 0.12531 0.86493 0.98774 0.0
N514 N 0.11432 0.8677 0.93176 0.0
N515 N 0.13659 0.87979 0.90824 0.0
C516 C 0.13712 0.93525 0.80319 0.0
O517 O 0.11252 0.93208 0.82939 0.0
O518 O 0.0671 0.81459 0.89508 0.0
Zn519 Zn 0.13694 0.87873 0.82398 0.0
N520 N 0.04405 0.87535 0.95277 0.0
C521 C 0.018 0.91936 0.974 0.0
C522 C 0.03947 0.90352 0.94477 0.0
C523 C 0.02831 0.8623 0.99022 0.0
N524 N 1.00191 0.9064 1.01032 0.0
C525 C 1.00638 0.87833 0.01959 0.0
O526 O 0.09448 0.87924 0.77802 0.0
C527 C 0.06549 0.87578 0.77718 0.0
O528 O 0.05438 0.86798 0.82095 0.0
H529 H 0.05204 0.9134 0.91473 0.0
H530 H 0.03216 0.8398 0.99582 0.0
C531 C 0.15384 0.83449 0.73686 0.0
C532 C 0.16497 0.80709 0.71786 0.0
C533 C 0.17964 0.79896 0.81691 0.0
C534 C 0.16777 0.82554 0.83522 0.0
N535 N 0.15575 0.8431 0.79516 0.0
N536 N 0.17782 0.79039 0.7591 0.0
H537 H 0.1434 0.84872 0.70627 0.0
C538 C 0.07814 0.80017 0.85324 0.0
O539 O 0.09321 0.81367 0.81863 0.0
O540 O 0.15635 0.91466 0.80052 0.0
H541 H 0.16746 0.83177 0.88112 0.0
H542 H 0.01392 0.94172 0.96752 0.0
H543 H 0.18954 0.78489 0.84837 0.0
H544 H 0.956 0.23901 0.09188 0.0
H545 H 0.94628 0.23251 0.27231 0.0
H546 H 0.97627 0.2769 0.30137 0.0
H547 H 0.0142 0.31077 0.27713 0.0
H548 H 0.02514 0.31658 0.09701 0.0
H549 H 0.9852 0.27953 0.06598 0.0
C550 C 0.95984 0.24775 0.13739 0.0
C551 C 0.95004 0.23216 0.18017 0.0
C552 C 0.97767 0.27283 0.15385 0.0
C553 C 0.95417 0.24396 0.23874 0.0
C554 C 0.97148 0.26921 0.25544 0.0
C555 C 0.00735 0.30431 0.23106 0.0
C556 C 0.02319 0.31547 0.18947 0.0
C557 C 0.98483 0.28277 0.21368 0.0
C558 C 0.0136 0.30776 0.12984 0.0
C559 C 0.99087 0.28653 0.11208 0.0
H560 H 0.05344 0.7545 0.33115 0.0
H561 H 0.99039 0.68566 0.25349 0.0
H562 H 0.94701 0.71936 0.25158 0.0
H563 H 0.928 0.76816 0.26964 0.0
H564 H 0.99053 0.83676 0.35031 0.0
H565 H 0.03398 0.80296 0.35326 0.0
C566 C 0.03019 0.74689 0.31362 0.0
C567 C 0.02487 0.7179 0.2917 0.0
C568 C 1.00571 0.76618 0.31309 0.0
C569 C 0.99475 0.708 0.27039 0.0
C570 C 0.97014 0.7272 0.26914 0.0
C571 C 0.95121 0.77575 0.28757 0.0
C572 C 0.95651 0.80478 0.30902 0.0
C573 C 0.97552 0.75631 0.28986 0.0
C574 C 0.98628 0.8144 0.33346 0.0
C575 C 0.01092 0.79518 0.33506 0.0
H576 H 0.51379 0.8181 0.65818 0.0
H577 H 0.54997 0.77859 0.81245 0.0
H578 H 0.50817 0.74294 0.79285 0.0
H579 H 0.46686 0.71877 0.72409 0.0
H580 H 0.43049 0.75713 0.56912 0.0
H581 H 0.46652 0.79802 0.59732 0.0
C582 C 0.51225 0.80189 0.68785 0.0
C583 C 0.5353 0.8004 0.73576 0.0
C584 C 0.48828 0.78133 0.67611 0.0
C585 C 0.53271 0.77985 0.77477 0.0
C586 C 0.50886 0.75946 0.76362 0.0
C587 C 0.46641 0.73648 0.69729 0.0
C588 C 0.44686 0.73493 0.6442 0.0
C589 C 0.48734 0.75936 0.71328 0.0
C590 C 0.44572 0.75799 0.61004 0.0
C591 C 0.46643 0.78115 0.62592 0.0
H592 H 0.41668 0.26035 0.78137 0.0
H593 H 0.48056 0.32715 0.86561 0.0
H594 H 0.52232 0.29183 0.87429 0.0
H595 H 0.54059 0.24263 0.85434 0.0
H596 H 0.47658 0.17529 0.77412 0.0
H597 H 0.43419 0.21034 0.76784 0.0
C598 C 0.4398 0.26715 0.8015 0.0
C599 C 0.44593 0.29622 0.82212 0.0
C600 C 0.46327 0.24675 0.80721 0.0
C601 C 0.4756 0.30482 0.8493 0.0
C602 C 0.49933 0.28471 0.85419 0.0
C603 C 0.51724 0.2357 0.83581 0.0
C604 C 0.51134 0.20678 0.81412 0.0
C605 C 0.49341 0.25575 0.83285 0.0
C606 C 0.48124 0.19758 0.79107 0.0
C607 C 0.45726 0.21758 0.78722 0.0
H608 H 0.99602 0.69804 0.73398 0.0
H609 H 0.98586 0.68929 0.9134 0.0
H610 H 0.02839 0.72351 0.94627 0.0
H611 H 0.06071 0.76256 0.92329 0.0
H612 H 0.07023 0.77187 0.74394 0.0
H613 H 0.0364 0.73009 0.7117 0.0
C614 C 1.00349 0.7033 0.78023 0.0
C615 C 0.98725 0.69212 0.82124 0.0
C616 C 0.02773 0.7231 0.79878 0.0
C617 C 0.99766 0.69823 0.88103 0.0
C618 C 0.02193 0.71778 0.89988 0.0
C619 C 0.05604 0.75487 0.87728 0.0
C620 C 0.06704 0.77055 0.83587 0.0
C621 C 0.03601 0.73139 0.85908 0.0
C622 C 0.06163 0.76021 0.77651 0.0
C623 C 0.04205 0.73653 0.75802 0.0
H624 H 0.06563 0.2182 0.79835 0.0
H625 H 0.04857 0.19613 0.61169 0.0
H626 H 0.01288 0.23642 0.60304 0.0
H627 H 0.98724 0.27781 0.64886 0.0
H628 H 1.00452 0.3003 0.83432 0.0
H629 H 0.04066 0.26001 0.84355 0.0
C630 C 0.05394 0.22204 0.75576 0.0
C631 C 0.05973 0.20438 0.70567 0.0
C632 C 0.03446 0.24564 0.75094 0.0
C633 C 0.04426 0.20938 0.65089 0.0
C634 C 0.02424 0.23258 0.64582 0.0
C635 C 1.00004 0.27455 0.69067 0.0
C636 C 0.99477 0.29236 0.74045 0.0
C637 C 0.01969 0.25107 0.69542 0.0
C638 C 0.00952 0.28716 0.79542 0.0
C639 C 0.02961 0.26399 0.80066 0.0
H640 H 0.49634 0.19337 0.2302 0.0
H641 H 0.49451 0.17613 0.4083 0.0
H642 H 0.53349 0.21373 0.44199 0.0
H643 H 0.55955 0.25748 0.42192 0.0
H644 H 0.56122 0.27479 0.24381 0.0
H645 H 0.53132 0.23085 0.2089 0.0
C646 C 0.50508 0.19742 0.27621 0.0
C647 C 0.49202 0.18277 0.31689 0.0
C648 C 0.52711 0.2193 0.29531 0.0
C649 C 0.50397 0.18751 0.37624 0.0
C650 C 0.52609 0.20913 0.3956 0.0
C651 C 0.55396 0.25121 0.37546 0.0
C652 C 0.56165 0.26961 0.33549 0.0
C653 C 0.53651 0.22614 0.35575 0.0
C654 C 0.5551 0.26108 0.27541 0.0
C655 C 0.53786 0.23606 0.2554 0.0
H656 H 0.59648 0.74356 0.25304 0.0
H657 H 0.53724 0.68239 0.13749 0.0
H658 H 0.4946 0.71696 0.13642 0.0
H659 H 0.47415 0.76313 0.17259 0.0
H660 H 0.53364 0.82505 0.28547 0.0
H661 H 0.57713 0.79137 0.28293 0.0
C662 C 0.57417 0.73782 0.22772 0.0
C663 C 0.56946 0.7105 0.19619 0.0
C664 C 0.55028 0.75776 0.2268 0.0
C665 C 0.54099 0.70335 0.16227 0.0
C666 C 0.51679 0.72301 0.16175 0.0
C667 C 0.49671 0.76923 0.19656 0.0
C668 C 0.50097 0.79608 0.23003 0.0
C669 C 0.52116 0.75004 0.1945 0.0
C670 C 0.53019 0.80432 0.25967 0.0
C671 C 0.5548 0.7851 0.25839 0.0
H672 H 0.30202 0.41901 0.03094 0.0
H673 H 0.2343 0.40403 0.87773 0.0
H674 H 0.19228 0.41131 0.93791 0.0
H675 H 0.17467 0.41741 0.03499 0.0
H676 H 0.2425 0.42766 0.18854 0.0
H677 H 0.28438 0.42707 0.12767 0.0
C678 C 0.27807 0.41784 1.01059 0.0
C679 C 0.27139 0.41099 0.94978 0.0
C680 C 0.25395 0.42109 0.04576 0.0
C681 C 0.24017 0.40921 0.92436 0.0
C682 C 0.21608 0.41332 0.95881 0.0
C683 C 0.19858 0.4202 0.05507 0.0
C684 C 0.20544 0.42296 0.11628 0.0
C685 C 0.22266 0.41866 0.01969 0.0
C686 C 0.2366 0.42574 0.14158 0.0
C687 C 0.26057 0.42527 0.10676 0.0
H688 H 0.90556 0.96847 0.28974 0.0
H689 H 0.8145 0.94146 0.31719 0.0
H690 H 0.79519 0.99046 0.30737 0.0
H691 H 0.8027 0.03861 0.27535 0.0
H692 H 0.89354 0.06369 0.24112 0.0
H693 H 0.91444 0.01778 0.26869 0.0
C694 C 0.88171 0.97362 0.29558 0.0
C695 C 0.86147 0.9515 0.30448 0.0
C696 C 0.87059 1.00128 0.28685 0.0
C697 C 0.83063 0.95824 0.31154 0.0
C698 C 0.8195 0.98613 0.30469 0.0
C699 C 0.82714 0.03418 0.27441 0.0
C700 C 0.84644 0.05462 0.25552 0.0
C701 C 0.83898 0.00744 0.28968 0.0
C702 C 0.8781 0.04846 0.25511 0.0
C703 C 0.89009 0.02217 0.27096 0.0
H704 H 0.21645 0.64174 0.56052 0.0
H705 H 0.21214 0.5676 0.43276 0.0
H706 H 0.26442 0.55381 0.47256 0.0
H707 H 0.31468 0.56993 0.52704 0.0
H708 H 0.31949 0.64473 0.65282 0.0
H709 H 0.26349 0.65064 0.63284 0.0
C710 C 0.22649 0.62183 0.54338 0.0
C711 C 0.21064 0.60552 0.4941 0.0
C712 C 0.25676 0.61442 0.5659 0.0
C713 C 0.22386 0.58012 0.47122 0.0
C714 C 0.25385 0.57245 0.49364 0.0
C715 C 0.30319 0.58658 0.55237 0.0
C716 C 0.32133 0.6073 0.59037 0.0
C717 C 0.27107 0.59033 0.53883 0.0
C718 C 0.30628 0.62874 0.62294 0.0
C719 C 0.27415 0.63234 0.61078 0.0
H720 H 0.64194 0.97301 0.86602 0.0
H721 H 0.61309 0.94887 0.68306 0.0
H722 H 0.61426 0.99963 0.66513 0.0
H723 H 0.61632 0.05049 0.70408 0.0
H724 H 0.63392 0.07365 0.88964 0.0
H725 H 0.64404 0.0236 0.90474 0.0
C726 C 0.63651 0.97881 0.82189 0.0
C727 C 0.6283 0.95718 0.77549 0.0
C728 C 0.63467 0.00792 0.81305 0.0
C729 C 0.62095 0.96492 0.71884 0.0
C730 C 0.62086 0.99402 0.70904 0.0
C731 C 0.62274 0.04483 0.74802 0.0
C732 C 0.62513 0.06636 0.79608 0.0
C733 C 0.62666 0.01567 0.7562 0.0
C734 C 0.63326 0.05817 0.85215 0.0
C735 C 0.6385 0.02931 0.86063 0.0
H736 H 0.78087 0.57735 0.86792 0.0
H737 H 0.86215 0.58563 0.99669 0.0
H738 H 0.82951 0.587 0.07471 0.0
H739 H 0.77752 0.59083 0.10655 0.0
H740 H 0.69637 0.58039 0.97764 0.0
H741 H 0.72919 0.57459 0.89985 0.0
C742 C 0.79143 0.57889 0.91305 0.0
C743 C 0.82388 0.58155 0.92638 0.0
C744 C 0.7725 0.5795 0.95782 0.0
C745 C 0.83725 0.58339 0.98509 0.0
C746 C 0.81857 0.5844 0.02984 0.0
C747 C 0.76707 0.58675 0.06148 0.0
C748 C 0.73453 0.58621 0.04801 0.0
C749 C 0.78613 0.5832 0.01678 0.0
C750 C 0.72133 0.58076 0.98937 0.0
C751 C 0.7401 0.57763 0.94472 0.0
H752 H 0.18866 0.9653 0.78431 0.0
H753 H 0.08878 0.96146 0.7471 0.0
H754 H 0.08845 0.00634 0.70298 0.0
H755 H 0.11496 0.05089 0.69485 0.0
H756 H 0.21372 0.05884 0.74202 0.0
H757 H 0.21649 0.00807 0.75981 0.0
C758 C 0.16699 0.9741 0.76542 0.0
C759 C 0.13876 0.96041 0.77003 0.0
C760 C 0.16683 1.0007 0.74155 0.0
C761 C 0.11079 0.97192 0.74526 0.0
C762 C 0.11055 0.99754 0.71966 0.0
C763 C 0.13734 0.04111 0.70525 0.0
C764 C 0.16411 0.05857 0.71648 0.0
C765 C 0.13826 0.01273 0.71989 0.0
C766 C 0.19283 0.04569 0.73197 0.0
C767 C 0.19427 0.01681 0.7437 0.0
H768 H 0.70777 0.36479 0.41232 0.0
H769 H 0.67387 0.43741 0.51485 0.0
H770 H 0.7268 0.45039 0.55822 0.0
H771 H 0.78087 0.43451 0.58268 0.0
H772 H 0.8148 0.36213 0.47905 0.0
H773 H 0.76386 0.35547 0.42076 0.0
C774 C 0.71193 0.38427 0.44175 0.0
C775 C 0.68667 0.40013 0.46011 0.0
C776 C 0.74252 0.39104 0.46801 0.0
C777 C 0.69287 0.42512 0.49914 0.0
C778 C 0.72316 0.4322 0.52498 0.0
C779 C 0.77732 0.41789 0.54611 0.0
C780 C 0.80152 0.39876 0.5355 0.0
C781 C 0.74793 0.41432 0.51228 0.0
C782 C 0.79664 0.37729 0.48795 0.0
C783 C 0.76739 0.37335 0.45475 0.0
H784 H 0.37973 0.94694 0.30679 0.0
H785 H 0.39754 0.92311 0.12997 0.0
H786 H 0.39589 0.97415 0.11276 0.0
H787 H 0.39429 0.02503 0.1512 0.0
H788 H 0.38761 0.04826 0.33347 0.0
H789 H 0.38026 0.99753 0.34605 0.0
C790 C 0.38303 0.95273 0.26407 0.0
C791 C 0.38807 0.931 0.2191 0.0
C792 C 0.38438 0.98198 0.25617 0.0
C793 C 0.3924 0.93909 0.16443 0.0
C794 C 0.39207 0.96834 0.15516 0.0
C795 C 0.3911 0.01925 0.19395 0.0
C796 C 0.39055 0.04092 0.24144 0.0
C797 C 0.38879 0.98991 0.2012 0.0
C798 C 0.38667 0.03255 0.29602 0.0
C799 C 0.383 0.00339 0.30316 0.0
H800 H 0.79459 0.92216 0.51719 0.0
H801 H 0.72988 0.88504 0.37239 0.0
H802 H 0.6876 0.89077 0.4324 0.0
H803 H 0.66986 0.90216 0.52875 0.0
H804 H 0.73578 0.93455 0.67576 0.0
H805 H 0.77649 0.93518 0.6125 0.0
C806 C 0.77111 0.91588 0.49843 0.0
C807 C 0.76539 0.90339 0.44014 0.0
C808 C 0.74708 0.91826 0.53391 0.0
C809 C 0.73492 0.89478 0.417 0.0
C810 C 0.71072 0.898 0.45139 0.0
C811 C 0.69295 0.91002 0.54659 0.0
C812 C 0.69969 0.91868 0.60681 0.0
C813 C 0.71661 0.90917 0.51027 0.0
C814 C 0.72996 0.92801 0.62954 0.0
C815 C 0.75328 0.92824 0.59339 0.0
H816 H 0.40021 0.46385 0.78926 0.0
H817 H 0.30883 0.44269 0.82501 0.0
H818 H 0.29342 0.49319 0.82101 0.0
H819 H 0.30377 0.54132 0.79095 0.0
H820 H 0.39436 0.56007 0.7463 0.0
H821 H 0.41228 0.51265 0.76991 0.0
C822 C 0.37729 0.47058 0.79863 0.0
C823 C 0.3558 0.44968 0.80832 0.0
C824 C 0.36824 0.49911 0.79275 0.0
C825 C 0.32603 0.45847 0.81919 0.0
C826 C 0.31706 0.48725 0.81548 0.0
C827 C 0.32753 0.53517 0.78695 0.0
C828 C 0.34766 0.55438 0.76656 0.0
C829 C 0.33756 0.50744 0.79954 0.0
C830 C 0.37838 0.54592 0.76189 0.0
C831 C 0.38865 0.51873 0.77538 0.0
H832 H 0.71715 0.08541 0.99296 0.0
H833 H 0.71019 0.17758 0.99231 0.0
H834 H 0.76225 0.18399 0.04483 0.0
H835 H 0.8125 0.1634 0.07411 0.0
H836 H 0.82271 0.07163 0.06952 0.0
H837 H 0.76681 0.06494 0.03767 0.0
C838 C 0.72692 0.10684 1.00546 0.0
C839 C 0.71007 0.13095 0.98766 0.0
C840 C 0.75753 0.11043 0.03486 0.0
C841 C 0.72294 0.15863 1.00423 0.0
C842 C 0.75269 0.16237 0.0346 0.0
C843 C 0.80222 0.14203 0.06945 0.0
C844 C 0.82155 0.11809 0.07549 0.0
C845 C 0.7706 0.13843 0.04811 0.0
C846 C 0.80812 0.09042 0.06662 0.0
C847 C 0.77624 0.08661 0.04724 0.0
H848 H 0.13311 0.5585 0.21429 0.0
H849 H 0.11605 0.58247 0.39128 0.0
H850 H 0.12086 0.53196 0.41082 0.0
H851 H 0.12402 0.48117 0.37393 0.0
H852 H 0.12317 0.45752 0.18978 0.0
H853 H 0.13167 0.50782 0.17566 0.0
C854 C 0.13076 0.55282 0.25753 0.0
C855 C 0.12587 0.57449 0.30247 0.0
C856 C 0.13029 0.52369 0.26633 0.0
C857 C 0.12219 0.56662 0.35755 0.0
C858 C 0.12403 0.53762 0.36798 0.0
C859 C 0.12599 0.48684 0.33054 0.0
C860 C 0.1247 0.46516 0.28293 0.0
C861 C 0.12745 0.51602 0.32226 0.0
C862 C 0.12662 0.47319 0.22733 0.0
C863 C 0.13049 0.50215 0.2193 0.0
H864 H 0.33686 0.08424 0.488 0.0
H865 H 0.26985 0.08545 0.3343 0.0
H866 H 0.22746 0.0849 0.39363 0.0
H867 H 0.2094 0.08867 0.49017 0.0
H868 H 0.27654 0.09151 0.64452 0.0
H869 H 0.31867 0.08566 0.5843 0.0
C870 C 0.31297 0.08375 0.46737 0.0
C871 C 0.30656 0.0847 0.40666 0.0
C872 C 0.28864 0.08442 0.5021 0.0
C873 C 0.27545 0.08466 0.38086 0.0
C874 C 0.25116 0.08443 0.41482 0.0
C875 C 0.2332 0.08739 0.51058 0.0
C876 C 0.23975 0.09036 0.57184 0.0
C877 C 0.25745 0.08495 0.47564 0.0
C878 C 0.27081 0.08923 0.59752 0.0
C879 C 0.29496 0.08596 0.56307 0.0
H880 H 0.68835 0.46808 0.3055 0.0
H881 H 0.59271 0.45657 0.23015 0.0
H882 H 0.59456 0.5007 0.18403 0.0
H883 H 0.61963 0.54715 0.18346 0.0
H884 H 0.7139 0.56139 0.26353 0.0
H885 H 0.71705 0.51154 0.28697 0.0
C886 C 0.6683 0.47493 0.27764 0.0
C887 C 0.64016 0.45953 0.27245 0.0
C888 C 0.66937 0.50092 0.25185 0.0
C889 C 0.61432 0.46852 0.23619 0.0
C890 C 0.61542 0.4937 0.2094 0.0
C891 C 0.64145 0.53887 0.20272 0.0
C892 C 0.66654 0.55788 0.2213 0.0
C893 C 0.64233 0.51079 0.21925 0.0
C894 C 0.69444 0.54697 0.24773 0.0
C895 C 0.69597 0.51862 0.2625 0.0
H896 H 0.21125 0.85915 0.91361 0.0
H897 H 0.17908 0.939 0.99389 0.0
H898 H 0.232 0.95191 0.03763 0.0
H899 H 0.28518 0.93552 0.06933 0.0
H900 H 0.31783 0.85656 0.98564 0.0
H901 H 0.26718 0.84824 0.92674 0.0
C902 C 0.21595 0.88009 0.93766 0.0
C903 C 0.1911 0.89824 0.94978 0.0
C904 C 0.24654 0.88709 0.96378 0.0
C905 C 0.19781 0.92494 0.98286 0.0
C906 C 0.22806 0.93207 1.00891 0.0
C907 C 0.28145 0.91703 0.03677 0.0
C908 C 0.30516 0.89665 0.03206 0.0
C909 C 0.25231 0.91259 1.00228 0.0
C910 C 0.30004 0.8727 0.9898 0.0
C911 C 0.27096 0.86783 0.95632 0.0
H912 H 0.88799 0.52565 0.64469 0.0
H913 H 0.8973 0.54872 0.83036 0.0
H914 H 0.88985 0.49824 0.84504 0.0
H915 H 0.88695 0.4478 0.80569 0.0
H916 H 0.89356 0.42381 0.62349 0.0
H917 H 0.88841 0.47469 0.60578 0.0
C918 C 0.8881 0.51979 0.68859 0.0
C919 C 0.89164 0.54137 0.73674 0.0
C920 C 0.88698 0.4905 0.69657 0.0
C921 C 0.89228 0.53314 0.79286 0.0
C922 C 0.88895 0.50409 0.80101 0.0
C923 C 0.88709 0.45348 0.76171 0.0
C924 C 0.88983 0.43176 0.7154 0.0
C925 C 0.88697 0.48266 0.75323 0.0
C926 C 0.89005 0.43975 0.65915 0.0
C927 C 0.88777 0.46891 0.6495 0.0
H928 H 0.20303 0.27081 0.96315 0.0
H929 H 0.12874 0.21008 0.96485 0.0
H930 H 0.10973 0.24049 0.04498 0.0
H931 H 0.1141 0.28506 0.11404 0.0
H932 H 0.1863 0.34693 0.10565 0.0
H933 H 0.20667 0.3152 0.02938 0.0
C934 C 0.18278 0.26415 0.98131 0.0
C935 C 0.16738 0.23828 0.95827 0.0
C936 C 0.1718 0.28187 0.0265 0.0
C937 C 0.14085 0.23008 0.98153 0.0
C938 C 0.1301 0.24736 0.02756 0.0
C939 C 0.13453 0.29125 0.09585 0.0
C940 C 0.14909 0.31794 0.11566 0.0
C941 C 0.14541 0.27333 0.05043 0.0
C942 C 0.175 0.3263 0.0911 0.0
C943 C 0.18655 0.30825 0.04747 0.0
H944 H 0.94466 0.86852 1.0049 0.0
H945 H 0.02704 0.86407 0.12816 0.0
H946 H 0.99512 0.86068 0.20676 0.0
H947 H 0.94432 0.86981 0.24217 0.0
H948 H 0.86206 0.87402 0.11861 0.0
H949 H 0.89312 0.86638 0.03793 0.0
C950 C 0.9555 0.86559 0.04857 0.0
C951 C 0.98806 0.86644 0.06094 0.0
C952 C 0.93696 0.86406 0.09344 0.0
C953 C 1.00201 0.8631 0.11768 0.0
C954 C 0.98374 0.8615 0.16266 0.0
C955 C 0.93304 0.86729 0.19751 0.0
C956 C 0.90086 0.87175 0.18611 0.0
C957 C 0.95124 0.86336 0.15147 0.0
C958 C 0.88667 0.86999 0.12817 0.0
C959 C 0.90451 0.86598 0.08213 0.0
H960 H 0.42979 0.67072 0.52185 0.0
H961 H 0.35768 0.62044 0.41262 0.0
H962 H 0.35384 0.65565 0.34269 0.0
H963 H 0.36216 0.70552 0.32361 0.0
H964 H 0.43265 0.75778 0.43289 0.0
H965 H 0.44552 0.71774 0.49232 0.0
C966 C 0.4133 0.66753 0.48309 0.0
C967 C 0.39251 0.64396 0.4753 0.0
C968 C 0.41036 0.68871 0.44355 0.0
C969 C 0.37316 0.63895 0.42161 0.0
C970 C 0.3707 0.65926 0.38146 0.0
C971 C 0.38082 0.70787 0.35969 0.0
C972 C 0.39621 0.73449 0.37439 0.0
C973 C 0.38768 0.68504 0.39389 0.0
C974 C 0.42049 0.73738 0.4209 0.0
C975 C 0.42767 0.71456 0.45505 0.0
H976 H 0.53579 0.13276 0.48894 0.0
H977 H 0.45564 0.1146 0.57076 0.0
H978 H 0.48496 0.1282 0.66698 0.0
H979 H 0.53642 0.13455 0.72646 0.0
H980 H 0.6168 0.15017 0.64377 0.0
H981 H 0.58441 0.14907 0.54941 0.0
C982 C 0.52454 0.13247 0.52784 0.0
C983 C 0.49377 0.12222 0.52278 0.0
C984 C 0.54171 0.13983 0.5829 0.0
C985 C 0.47929 0.12235 0.57339 0.0
C986 C 0.49615 0.12994 0.62849 0.0
C987 C 0.54646 0.13946 0.68831 0.0
C988 C 0.57884 0.14303 0.69205 0.0
C989 C 0.52779 0.13738 0.63377 0.0
C990 C 0.59186 0.14807 0.64201 0.0
C991 C 0.57339 0.1469 0.58791 0.0
H992 H 0.19897 0.7643 0.67137 0.0
H993 H 0.12364 0.82134 0.62318 0.0
H994 H 0.116 0.79622 0.52494 0.0
H995 H 0.12679 0.75433 0.45582 0.0
H996 H 0.19848 0.69496 0.50933 0.0
H997 H 0.21141 0.72468 0.60212 0.0
C998 C 0.18098 0.77154 0.63946 0.0
C999 C 0.16206 0.79485 0.65538 0.0
C1000 C 0.17596 0.7564 0.58366 0.0
C1001 C 0.13904 0.80386 0.61273 0.0
C1002 C 0.1344 0.78927 0.55635 0.0
C1003 C 0.14586 0.74848 0.48721 0.0
C1004 C 0.16206 0.72278 0.47556 0.0
C1005 C 0.15229 0.76509 0.54169 0.0
C1006 C 0.18602 0.71485 0.51717 0.0
C1007 C 0.19325 0.73172 0.57034 0.0
H1008 H 0.47939 0.85857 0.92914 0.0
H1009 H 0.52039 0.91065 0.08365 0.0
H1010 H 0.56463 0.92207 0.03445 0.0
H1011 H 0.59345 0.91411 0.94955 0.0
H1012 H 0.5489 0.86827 0.79124 0.0
H1013 H 0.50509 0.85583 0.83993 0.0
C1014 C 0.49745 0.87334 0.95106 0.0
C1015 C 0.49633 0.88449 1.00923 0.0
C1016 C 0.52302 0.8793 0.92282 0.0
C1017 C 0.52035 0.9027 0.03816 0.0
C1018 C 0.54592 0.9087 1.01045 0.0
C1019 C 0.57438 0.90088 0.92631 0.0
C1020 C 0.57587 0.88923 0.86851 0.0
C1021 C 0.54793 0.89642 0.95336 0.0
C1022 C 0.55007 0.87401 0.83757 0.0
C1023 C 0.52436 0.86817 0.86485 0.0
H1024 H 0.37624 0.31836 0.99928 0.0
H1025 H 0.31676 0.27208 0.85652 0.0
H1026 H 0.31614 0.23059 0.91156 0.0
H1027 H 0.33215 0.20731 0.99932 0.0
H1028 H 0.39125 0.25294 0.14347 0.0
H1029 H 0.39283 0.29441 0.08814 0.0
C1030 C 0.36292 0.2993 0.98037 0.0
C1031 C 0.3463 0.2986 0.92383 0.0
C1032 C 0.36291 0.27518 0.01215 0.0
C1033 C 0.32963 0.27344 0.89987 0.0
C1034 C 0.32932 0.24959 0.93129 0.0
C1035 C 0.34544 0.22627 0.01902 0.0
C1036 C 0.36165 0.22663 0.07573 0.0
C1037 C 0.34588 0.25022 0.98735 0.0
C1038 C 0.37891 0.25151 0.09976 0.0
C1039 C 0.37957 0.27548 0.06825 0.0
H1040 H 0.01021 0.14097 0.27344 0.0
H1041 H 0.93475 0.08978 0.3132 0.0
H1042 H 0.96635 0.07674 0.40023 0.0
H1043 H 0.01359 0.0815 0.46751 0.0
H1044 H 0.08859 0.13569 0.43565 0.0
H1045 H 0.05934 0.14522 0.34273 0.0
C1046 C 1.00089 0.12676 0.30098 0.0
C1047 C 0.97007 0.1164 0.28678 0.0
C1048 C 0.0191 0.11979 0.35238 0.0
C1049 C 0.95823 0.0982 0.32313 0.0
C1050 C 0.97633 0.09067 0.37298 0.0
C1051 C 0.02384 0.09542 0.44057 0.0
C1052 C 0.05345 0.10774 0.4594 0.0
C1053 C 1.00653 0.10165 0.38843 0.0
C1054 C 0.06613 0.12543 0.42276 0.0
C1055 C 0.04921 0.13118 0.36955 0.0
H1056 H 0.82578 0.78027 0.99225 0.0
H1057 H 0.87089 0.73956 0.13849 0.0
H1058 H 0.88678 0.69988 0.07208 0.0
H1059 H 0.88732 0.6762 0.97218 0.0
H1060 H 0.84333 0.71777 0.82621 0.0
H1061 H 0.82729 0.7573 0.89283 0.0
C1062 C 0.83904 0.76271 1.00974 0.0
C1063 C 0.84714 0.76316 0.07049 0.0
C1064 C 0.84812 0.73987 0.97127 0.0
C1065 C 0.86465 0.74024 0.09209 0.0
C1066 C 0.87355 0.71731 0.05406 0.0
C1067 C 0.87397 0.69378 0.95495 0.0
C1068 C 0.86624 0.69378 0.89415 0.0
C1069 C 0.86528 0.71681 0.99356 0.0
C1070 C 0.84947 0.71707 0.87268 0.0
C1071 C 0.84032 0.73975 0.91079 0.0
H1072 H 0.08448 0.13971 0.78779 0.0
H1073 H 0.1607 0.12346 0.9175 0.0
H1074 H 0.12611 0.12803 0.99282 0.0
H1075 H 0.07263 0.12813 0.01765 0.0
H1076 H 0.99636 0.1452 0.88871 0.0
H1077 H 0.0325 0.15033 0.81761 0.0
C1078 C 0.09391 0.13915 0.8331 0.0
C1079 C 0.12542 0.13225 0.84737 0.0
C1080 C 0.07366 0.14154 0.87615 0.0
C1081 C 0.13675 0.12938 0.90573 0.0
C1082 C 0.11688 0.13175 0.9487 0.0
C1083 C 0.06414 0.13414 0.97468 0.0
C1084 C 0.03196 0.13654 0.95847 0.0
C1085 C 0.08507 0.13663 0.93397 0.0
C1086 C 0.02107 0.14371 0.90235 0.0
C1087 C 0.04173 0.14628 0.86154 0.0
H1088 H 0.62786 0.23693 0.58098 0.0
H1089 H 0.61999 0.28676 0.74502 0.0
H1090 H 0.61202 0.33061 0.69565 0.0
H1091 H 0.61434 0.35547 0.60693 0.0
H1092 H 0.62384 0.30477 0.44463 0.0
H1093 H 0.62312 0.26056 0.49133 0.0
C1094 C 0.62389 0.25735 0.60567 0.0
C1095 C 0.62487 0.25881 0.66639 0.0
C1096 C 0.61941 0.28229 0.57707 0.0
C1097 C 0.61932 0.28522 0.69809 0.0
C1098 C 0.61494 0.31028 0.66993 0.0
C1099 C 0.61527 0.33462 0.5818 0.0
C1100 C 0.61805 0.33318 0.52211 0.0
C1101 C 0.61589 0.30922 0.60962 0.0
C1102 C 0.62018 0.30623 0.49 0.0
C1103 C 0.62041 0.28097 0.51696 0.0
H1104 H 0.46964 0.8822 0.31258 0.0
H1105 H 0.3966 0.83932 0.37932 0.0
H1106 H 0.43077 0.83511 0.47056 0.0
H1107 H 0.47848 0.85111 0.53584 0.0
H1108 H 0.55122 0.89405 0.46719 0.0
H1109 H 0.52076 0.8894 0.37071 0.0
C1110 C 0.46186 0.87031 0.3457 0.0
C1111 C 0.43118 0.85976 0.33823 0.0
C1112 C 0.48152 0.86837 0.39783 0.0
C1113 C 0.42052 0.84637 0.38307 0.0
C1114 C 0.43996 0.8444 0.43553 0.0
C1115 C 0.48796 0.85877 0.49934 0.0
C1116 C 0.51693 0.8732 0.5088 0.0
C1117 C 0.47009 0.85636 0.44411 0.0
C1118 C 0.52913 0.88277 0.46114 0.0
C1119 C 0.51154 0.88038 0.40606 0.0
H1120 H 0.88035 0.20083 0.39452 0.0
H1121 H 0.81256 0.25459 0.30588 0.0
H1122 H 0.81032 0.28539 0.3957 0.0
H1123 H 0.83095 0.30036 0.49703 0.0
H1124 H 0.89732 0.24686 0.58872 0.0
H1125 H 0.89609 0.21267 0.50115 0.0
C1126 C 0.86453 0.21881 0.39502 0.0
C1127 C 0.84702 0.22538 0.34258 0.0
C1128 C 0.86308 0.23677 0.44766 0.0
C1129 C 0.82683 0.24908 0.34483 0.0
C1130 C 0.82539 0.26684 0.39643 0.0
C1131 C 0.84463 0.28089 0.4983 0.0
C1132 C 0.86414 0.2763 0.54949 0.0
C1133 C 0.84395 0.26137 0.44772 0.0
C1134 C 0.88176 0.2509 0.55018 0.0
C1135 C 0.88132 0.2314 0.49979 0.0
H1136 H 0.47478 0.11991 0.97318 0.0
H1137 H 0.55588 0.1164 0.10031 0.0
H1138 H 0.52326 0.12263 0.17916 0.0
H1139 H 0.47081 0.11872 0.20892 0.0
H1140 H 0.39019 0.11972 0.08024 0.0
H1141 H 0.42332 0.12522 1.00477 0.0
C1142 C 0.48539 0.12121 0.01827 0.0
C1143 C 0.51759 0.11726 0.03094 0.0
C1144 C 0.46645 0.12414 0.06291 0.0
C1145 C 0.53115 0.11937 0.08946 0.0
C1146 C 0.51245 0.12268 0.13447 0.0
C1147 C 0.46059 0.12168 0.16489 0.0
C1148 C 0.42816 0.1194 0.14997 0.0
C1149 C 0.47994 0.12374 0.12146 0.0
C1150 C 0.41505 0.122 0.09256 0.0
C1151 C 0.43402 0.12477 0.04942 0.0
H1152 H 0.67864 0.73777 0.14854 0.0
H1153 H 0.6622 0.67106 1.00433 0.0
H1154 H 0.65898 0.70732 0.93561 0.0
H1155 H 0.66029 0.75834 0.91614 0.0
H1156 H 0.67786 0.82448 0.0609 0.0
H1157 H 0.68084 0.78817 0.12938 0.0
C1158 C 0.67471 0.73104 0.10208 0.0
C1159 C 0.67088 0.7016 0.0819 0.0
C1160 C 0.67268 0.75202 0.06269 0.0
C1161 C 0.66553 0.69349 0.02136 0.0
C1162 C 0.66346 0.71426 0.98189 0.0
C1163 C 0.6644 0.76476 0.96269 0.0
C1164 C 0.66859 0.79411 0.98343 0.0
C1165 C 0.66673 0.74364 1.00202 0.0
C1166 C 0.67456 0.80204 0.04384 0.0
C1167 C 0.67633 0.78129 0.08306 0.0
H1168 H 0.99509 0.92441 0.55424 0.0
H1169 H 0.92046 0.87208 0.59263 0.0
H1170 H 0.95435 0.85553 0.67519 0.0
H1171 H 1.00493 0.85833 0.74011 0.0
H1172 H 0.07916 0.90995 0.69685 0.0
H1173 H 0.04563 0.92458 0.6134 0.0
C1174 C 0.98627 0.90917 0.58034 0.0
C1175 C 0.9553 0.89958 0.56728 0.0
C1176 C 1.00578 0.89987 0.62751 0.0
C1177 C 0.94432 0.87961 0.60124 0.0
C1178 C 0.96363 0.87035 0.64885 0.0
C1179 C 0.01372 0.87268 0.71223 0.0
C1180 C 0.04454 0.88316 0.7252 0.0
C1181 C 0.99434 0.88072 0.66303 0.0
C1182 C 0.05563 0.90152 0.68818 0.0
C1183 C 0.03646 0.90995 0.64028 0.0
H1184 H 0.69224 0.72108 0.52546 0.0
H1185 H 0.65135 0.76586 0.38158 0.0
H1186 H 0.6342 0.80409 0.44966 0.0
H1187 H 0.63171 0.82534 0.54999 0.0
H1188 H 0.6717 0.78017 0.69398 0.0
H1189 H 0.6885 0.74169 0.6258 0.0
C1190 C 0.67963 0.73924 0.50899 0.0
C1191 C 0.67304 0.74047 0.44849 0.0
C1192 C 0.66983 0.76118 0.54837 0.0
C1193 C 0.65637 0.76403 0.42785 0.0
C1194 C 0.64674 0.78607 0.46679 0.0
C1195 C 0.64425 0.80716 0.56653 0.0
C1196 C 0.65071 0.80579 0.62706 0.0
C1197 C 0.6535 0.78494 0.52712 0.0
C1198 C 0.66652 0.78183 0.64765 0.0
C1199 C 0.67614 0.75981 0.60869 0.0
H1200 H 0.44689 0.37428 0.51443 0.0
H1201 H 0.51815 0.34767 0.64372 0.0
H1202 H 0.47973 0.3431 0.71064 0.0
H1203 H 0.42863 0.3576 0.73876 0.0
H1204 H 0.35793 0.3859 0.61052 0.0
H1205 H 0.39299 0.37868 0.53626 0.0
C1206 C 0.45362 0.36622 0.55627 0.0
C1207 C 0.48508 0.36099 0.57415 0.0
C1208 C 0.43152 0.36448 0.59492 0.0
C1209 C 0.4939 0.35133 0.62893 0.0
C1210 C 0.47199 0.34907 0.66736 0.0
C1211 C 0.42031 0.36036 0.69379 0.0
C1212 C 0.39055 0.37164 0.6797 0.0
C1213 C 0.44102 0.35696 0.65184 0.0
C1214 C 0.38061 0.37683 0.62196 0.0
C1215 C 0.40078 0.37297 0.5797 0.0
H1216 H 0.89457 0.19468 0.06176 0.0
H1217 H 0.90575 0.13222 0.91654 0.0
H1218 H 0.90623 0.1709 0.85284 0.0
H1219 H 0.89452 0.22169 0.83611 0.0
H1220 H 0.87908 0.28268 0.98189 0.0
H1221 H 0.88996 0.24567 0.04821 0.0
C1222 C 0.89883 0.18969 0.01695 0.0
C1223 C 0.90116 0.16078 0.99421 0.0
C1224 C 0.89754 0.21185 0.98045 0.0
C1225 C 0.90472 0.15441 0.93518 0.0
C1226 C 0.90458 0.17651 0.89872 0.0
C1227 C 0.8943 0.22696 0.88257 0.0
C1228 C 0.88573 0.25481 0.90412 0.0
C1229 C 0.89964 0.20522 0.92037 0.0
C1230 C 0.88521 0.26131 0.9643 0.0
C1231 C 0.89146 0.24017 1.00222 0.0
H1232 H 0.04368 0.63053 0.21271 0.0
H1233 H 0.1218 0.66138 0.14035 0.0
H1234 H 0.08941 0.66353 0.04663 0.0
H1235 H 0.04154 0.64777 0.98191 0.0
H1236 H 0.96413 0.61538 0.05542 0.0
H1237 H 0.993 0.62407 0.15294 0.0
C1238 C 0.05305 0.63974 0.17771 0.0
C1239 C 0.08469 0.64745 0.18452 0.0
C1240 C 0.03445 0.63998 0.12378 0.0
C1241 C 0.09721 0.65687 0.13719 0.0
C1242 C 0.07876 0.6575 0.08324 0.0
C1243 C 0.03072 0.64327 0.01948 0.0
C1244 C 1.00085 0.63058 0.01121 0.0
C1245 C 0.04773 0.64782 0.07545 0.0
C1246 C 0.98697 0.62522 0.06031 0.0
C1247 C 1.00362 0.62993 0.11615 0.0
H1248 H 0.64807 0.24591 0.20434 0.0
H1249 H 0.62913 0.32455 0.12432 0.0
H1250 H 0.61762 0.2965 0.02878 0.0
H1251 H 0.61457 0.24898 0.96742 0.0
H1252 H 0.63582 0.1719 0.05231 0.0
H1253 H 0.64545 0.20029 0.14595 0.0
C1254 C 0.64165 0.25724 0.16626 0.0
C1255 C 0.63969 0.28745 0.17216 0.0
C1256 C 0.63568 0.24117 0.11181 0.0
C1257 C 0.63065 0.30134 0.12181 0.0
C1258 C 0.62428 0.28528 0.06687 0.0
C1259 C 0.62133 0.23849 1.00647 0.0
C1260 C 0.62426 0.20824 1.00247 0.0
C1261 C 0.62698 0.2551 0.06126 0.0
C1262 C 0.63304 0.19502 0.05365 0.0
C1263 C 0.63864 0.21124 0.10753 0.0
H1264 H 0.97161 0.3632 0.41439 0.0
H1265 H 0.01422 0.40759 0.57665 0.0
H1266 H 0.05933 0.41976 0.53055 0.0
H1267 H 0.08839 0.41406 0.44578 0.0
H1268 H 0.04214 0.37712 0.28065 0.0
H1269 H 0.99744 0.36383 0.32604 0.0
C1270 C 0.99023 0.37659 0.43884 0.0
C1271 C 0.98938 0.3852 0.49829 0.0
C1272 C 0.01623 0.38296 0.4123 0.0
C1273 C 0.01402 0.40164 0.5303 0.0
C1274 C 0.04008 0.40799 0.50429 0.0
C1275 C 0.06875 0.40248 0.42026 0.0
C1276 C 0.06994 0.39327 0.36109 0.0
C1277 C 0.04185 0.39791 0.44582 0.0
C1278 C 0.04345 0.38048 0.32745 0.0
C1279 C 0.01728 0.37431 0.35306 0.0
H1280 H 0.86387 0.74787 0.60479 0.0
H1281 H 0.87178 0.68139 0.46433 0.0
H1282 H 0.86963 0.71737 0.39506 0.0
H1283 H 0.86287 0.76732 0.37329 0.0
H1284 H 0.85352 0.83427 0.51264 0.0
H1285 H 0.85847 0.79868 0.58296 0.0
C1286 C 0.86575 0.74146 0.55921 0.0
C1287 C 0.86831 0.71209 0.53966 0.0
C1288 C 0.86358 0.76229 0.51914 0.0
C1289 C 0.87 0.70392 0.48031 0.0
C1290 C 0.86856 0.72445 0.44064 0.0
C1291 C 0.86168 0.7742 0.41895 0.0
C1292 C 0.85743 0.80351 0.43727 0.0
C1293 C 0.86474 0.75363 0.45931 0.0
C1294 C 0.85645 0.81188 0.49696 0.0
C1295 C 0.85946 0.79152 0.53739 0.0
H1296 H 0.52 0.57445 0.95547 0.0
H1297 H 0.58864 0.63797 0.93571 0.0
H1298 H 0.5599 0.64697 0.84166 0.0
H1299 H 0.51193 0.63994 0.76908 0.0
H1300 H 0.4425 0.57897 0.79693 0.0
H1301 H 0.47474 0.566 0.88346 0.0
C1302 C 0.52895 0.59022 0.93072 0.0
C1303 C 0.5565 0.60548 0.95328 0.0
C1304 C 0.51189 0.59593 0.87788 0.0
C1305 C 0.56774 0.62554 0.91966 0.0
C1306 C 0.5511 0.63093 0.8659 0.0
C1307 C 0.50425 0.62348 0.79369 0.0
C1308 C 0.4748 0.61038 0.77656 0.0
C1309 C 0.52271 0.61667 0.84509 0.0
C1310 C 0.46493 0.58939 0.80923 0.0
C1311 C 0.48337 0.58198 0.85883 0.0
H1312 H 0.35744 0.24457 0.60627 0.0
H1313 H 0.3298 0.30611 0.48416 0.0
H1314 H 0.34432 0.27265 0.40429 0.0
H1315 H 0.36277 0.22504 0.36829 0.0
H1316 H 0.38785 0.16258 0.49001 0.0
H1317 H 0.3765 0.19711 0.5704 0.0
C1318 C 0.35503 0.25077 0.5623 0.0
C1319 C 0.34271 0.27783 0.55116 0.0
C1320 C 0.36268 0.23111 0.51626 0.0
C1321 C 0.33916 0.28535 0.49377 0.0
C1322 C 0.34744 0.26623 0.44808 0.0
C1323 C 0.36583 0.219 0.4124 0.0
C1324 C 0.37602 0.19115 0.42281 0.0
C1325 C 0.35882 0.23888 0.45862 0.0
C1326 C 0.37978 0.18374 0.48041 0.0
C1327 C 0.37339 0.20353 0.52662 0.0
H1328 H 0.51061 0.6422 0.37555 0.0
H1329 H 0.56277 0.62948 0.54105 0.0
H1330 H 0.61144 0.63123 0.49859 0.0
H1331 H 0.63802 0.62791 0.40968 0.0
H1332 H 0.58446 0.63862 0.24433 0.0
H1333 H 0.53783 0.64701 0.29105 0.0
C1334 C 0.53276 0.64095 0.40272 0.0
C1335 C 0.53324 0.63594 0.4613 0.0
C1336 C 0.56046 0.64146 0.37769 0.0
C1337 C 0.56193 0.63386 0.49608 0.0
C1338 C 0.58972 0.63448 0.47155 0.0
C1339 C 0.61632 0.63315 0.38454 0.0
C1340 C 0.61491 0.63369 0.3239 0.0
C1341 C 0.58918 0.63706 0.41177 0.0
C1342 C 0.58649 0.63957 0.29134 0.0
C1343 C 0.55962 0.64378 0.31795 0.0
H1344 H 0.11986 0.78357 0.18153 0.0
H1345 H 0.13747 0.72144 0.03909 0.0
H1346 H 0.1268 0.75757 0.97076 0.0
H1347 H 0.12276 0.80846 0.95533 0.0
H1348 H 0.1084 0.87183 0.09712 0.0
H1349 H 0.10741 0.83383 0.16218 0.0
C1350 C 0.1205 0.77783 0.13531 0.0
C1351 C 0.12977 0.75 0.11531 0.0
C1352 C 0.11529 0.79907 0.09641 0.0
C1353 C 0.13081 0.74285 0.05545 0.0
C1354 C 0.12473 0.76349 0.01641 0.0
C1355 C 0.11753 0.81371 0.99952 0.0
C1356 C 0.11458 0.84268 0.02107 0.0
C1357 C 0.11826 0.79191 0.03678 0.0
C1358 C 0.10998 0.84953 0.07947 0.0
C1359 C 0.10978 0.82784 0.1167 0.0
H1360 H 0.97784 0.36695 0.03713 0.0
H1361 H 0.05675 0.38977 0.95608 0.0
H1362 H 0.02717 0.37779 0.85972 0.0
H1363 H 0.97581 0.37179 0.8013 0.0
H1364 H 0.89654 0.35011 0.88163 0.0
H1365 H 0.92922 0.35054 0.97572 0.0
C1366 C 0.98881 0.36854 0.99828 0.0
C1367 C 0.0193 0.37965 1.00376 0.0
C1368 C 0.97146 0.36207 0.94303 0.0
C1369 C 0.03338 0.38127 0.95319 0.0
C1370 C 0.01635 0.37467 0.89803 0.0
C1371 C 0.96612 0.36523 0.83854 0.0
C1372 C 0.93402 0.35976 0.83405 0.0
C1373 C 0.98496 0.36641 0.89263 0.0
C1374 C 0.92133 0.35326 0.88354 0.0
C1375 C 0.93997 0.35404 0.93755 0.0
H1376 H 0.38359 0.7002 0.89715 0.0
H1377 H 0.31948 0.75572 0.80449 0.0
H1378 H 0.31698 0.78708 0.89353 0.0
H1379 H 0.3368 0.80193 0.99528 0.0
H1380 H 0.39944 0.74661 0.0906 0.0
H1381 H 0.39797 0.71193 1.00381 0.0
C1382 C 0.36848 0.7187 0.89656 0.0
C1383 C 0.35219 0.72564 0.84338 0.0
C1384 C 0.36688 0.73694 0.94862 0.0
C1385 C 0.33287 0.74997 0.84416 0.0
C1386 C 0.33127 0.76802 0.89526 0.0
C1387 C 0.3496 0.78199 0.99743 0.0
C1388 C 0.36821 0.77699 0.04931 0.0
C1389 C 0.34881 0.7622 0.94735 0.0
C1390 C 0.38464 0.75097 0.05136 0.0
C1391 C 0.38407 0.73119 1.00148 0.0
H1392 H 0.92409 0.59117 0.56879 0.0
H1393 H 0.97111 0.63196 0.73014 0.0
H1394 H 0.01431 0.64578 0.68133 0.0
H1395 H 0.03897 0.64534 0.59144 0.0
H1396 H 0.99542 0.59828 0.4328 0.0
H1397 H 0.95151 0.58585 0.48197 0.0
C1398 C 0.94354 0.60367 0.5927 0.0
C1399 C 0.94304 0.61343 0.65177 0.0
C1400 C 0.96957 0.60892 0.56519 0.0
C1401 C 0.96926 0.62771 0.68336 0.0
C1402 C 0.99459 0.63433 0.65584 0.0
C1403 C 0.02033 0.6315 0.56844 0.0
C1404 C 0.02061 0.622 0.50925 0.0
C1405 C 0.99503 0.62496 0.59672 0.0
C1406 C 0.99598 0.60496 0.47897 0.0
C1407 C 0.97066 0.59837 0.50675 0.0
H1408 H 0.19337 0.27113 0.45858 0.0
H1409 H 0.09623 0.29053 0.45811 0.0
H1410 H 0.09153 0.25394 0.52473 0.0
H1411 H 0.1158 0.21738 0.58599 0.0
H1412 H 0.21223 0.19672 0.58186 0.0
H1413 H 0.21672 0.23316 0.51476 0.0
C1414 C 0.1711 0.26725 0.4728 0.0
C1415 C 0.1452 0.28356 0.45339 0.0
C1416 C 0.16861 0.24618 0.51078 0.0
C1417 C 0.11644 0.27808 0.47177 0.0
C1418 C 0.11382 0.25733 0.51029 0.0
C1419 C 0.13774 0.22102 0.57026 0.0
C1420 C 0.16383 0.20482 0.58897 0.0
C1421 C 0.13984 0.24147 0.53056 0.0
C1422 C 0.19204 0.20918 0.56806 0.0
C1423 C 0.19452 0.22991 0.52972 0.0
H1424 H 0.48049 0.43743 0.09807 0.0
H1425 H 0.43457 0.35437 0.06693 0.0
H1426 H 0.465 0.33947 0.15475 0.0
H1427 H 0.50858 0.34882 0.236 0.0
H1428 H 0.55472 0.43144 0.26193 0.0
H1429 H 0.52075 0.44762 0.17994 0.0
C1430 C 0.47692 0.41604 0.11034 0.0
C1431 C 0.45529 0.39712 0.07546 0.0
C1432 C 0.49499 0.40739 0.15964 0.0
C1433 C 0.45076 0.36964 0.09295 0.0
C1434 C 0.46842 0.36096 0.14301 0.0
C1435 C 0.5108 0.37042 0.2238 0.0
C1436 C 0.53455 0.38887 0.25367 0.0
C1437 C 0.49112 0.37947 0.17605 0.0
C1438 C 0.53728 0.41677 0.238 0.0
C1439 C 0.51767 0.42604 0.19161 0.0
loop_
_geom_bond_atom_site_label_1
_geom_bond_atom_site_label_2
_geom_bond_distance
_geom_bond_site_symmetry_2
_ccdc_geom_bond_type
Zn0 N4 2.020 . S
Zn0 O8 2.019 . S
Zn0 N10 2.119 . S
Zn0 O18 1.975 . S
C1 N2 1.334 . S
C1 N5 1.336 . S
N2 C1 1.334 . S
N2 C3 1.334 . S
C3 N2 1.334 . S
C3 N4 1.336 . S
N4 Zn0 2.020 . S
N4 C3 1.336 . S
N4 N5 1.354 . S
N5 C1 1.336 . S
N5 N4 1.354 . S
N5 Zn9 2.020 . S
C6 O7 1.244 . S
C6 O30 1.257 . S
O7 C6 1.244 . S
O8 Zn0 2.019 . S
O8 C28 1.257 . S
Zn9 N5 2.020 . S
Zn9 O16 1.975 . S
Zn9 N25 2.119 . S
Zn9 O30 2.019 . S
N10 Zn0 2.119 . S
N10 C12 1.334 . S
N10 C13 1.328 . S
C11 C12 1.391 . S
C11 N14 1.329 . S
C11 H32 0.930 . S
C12 N10 1.334 . S
C12 C11 1.391 . S
C12 H19 0.930 . S
C13 N10 1.328 . S
C13 C15 1.392 . S
C13 H20 0.930 . S
N14 C11 1.329 . S
N14 C15 1.331 . S
C15 C13 1.392 . S
C15 N14 1.331 . S
O16 Zn9 1.975 . S
O16 C17 1.252 . S
C17 O16 1.252 . S
C17 O18 1.252 . S
O18 Zn0 1.975 . S
O18 C17 1.252 . S
H19 C12 0.930 . S
H20 C13 0.930 . S
C21 C22 1.392 1_554 S
C21 N25 1.328 . S
C21 H27 0.930 . S
C22 C21 1.392 1_556 S
C22 N26 1.331 . S
C23 C24 1.391 . S
C23 N26 1.329 1_554 S
C23 H33 0.930 . S
C24 C23 1.391 . S
C24 N25 1.334 . S
C24 H31 0.930 . S
N25 Zn9 2.119 . S
N25 C21 1.328 . S
N25 C24 1.334 . S
N26 C22 1.331 . S
N26 C23 1.329 1_556 S
H27 C21 0.930 . S
C28 O8 1.257 . S
C28 O29 1.244 . S
O29 C28 1.244 . S
O30 C6 1.257 . S
O30 Zn9 2.019 . S
H31 C24 0.930 . S
H32 C11 0.930 . S
H33 C23 0.930 . S
Zn34 N38 2.020 . S
Zn34 O42 2.019 . S
Zn34 N44 2.119 . S
Zn34 O52 1.975 . S
C35 N36 1.334 . S
C35 N39 1.336 . S
N36 C35 1.334 . S
N36 C37 1.334 . S
C37 N36 1.334 . S
C37 N38 1.336 . S
N38 Zn34 2.020 . S
N38 C37 1.336 . S
N38 N39 1.354 . S
N39 C35 1.336 . S
N39 N38 1.354 . S
N39 Zn43 2.020 . S
C40 O41 1.244 . S
C40 O64 1.257 . S
O41 C40 1.244 . S
O42 Zn34 2.019 . S
O42 C62 1.257 . S
Zn43 N39 2.020 . S
Zn43 O50 1.975 . S
Zn43 N59 2.119 . S
Zn43 O64 2.019 . S
N44 Zn34 2.119 . S
N44 C46 1.334 . S
N44 C47 1.328 . S
C45 C46 1.391 . S
C45 N48 1.329 . S
C45 H66 0.930 . S
C46 N44 1.334 . S
C46 C45 1.391 . S
C46 H53 0.930 . S
C47 N44 1.328 . S
C47 C49 1.392 . S
C47 H54 0.930 . S
N48 C45 1.329 . S
N48 C49 1.331 . S
C49 C47 1.392 . S
C49 N48 1.331 . S
O50 Zn43 1.975 . S
O50 C51 1.252 . S
C51 O50 1.252 . S
C51 O52 1.252 . S
O52 Zn34 1.975 . S
O52 C51 1.252 . S
H53 C46 0.930 . S
H54 C47 0.930 . S
C55 C56 1.392 . S
C55 N59 1.328 . S
C55 H61 0.930 . S
C56 C55 1.392 . S
C56 N60 1.331 . S
C57 C58 1.391 . S
C57 N60 1.329 . S
C57 H67 0.930 . S
C58 C57 1.391 . S
C58 N59 1.334 . S
C58 H65 0.930 . S
N59 Zn43 2.119 . S
N59 C55 1.328 . S
N59 C58 1.334 . S
N60 C56 1.331 . S
N60 C57 1.329 . S
H61 C55 0.930 . S
C62 O42 1.257 . S
C62 O63 1.244 . S
O63 C62 1.244 . S
O64 C40 1.257 . S
O64 Zn43 2.019 . S
H65 C58 0.930 . S
H66 C45 0.930 . S
H67 C57 0.930 . S
Zn68 N72 2.020 . S
Zn68 O76 2.019 . S
Zn68 N78 2.119 . S
Zn68 O86 1.975 . S
C69 N70 1.334 . S
C69 N73 1.336 . S
N70 C69 1.334 . S
N70 C71 1.334 . S
C71 N70 1.334 . S
C71 N72 1.336 . S
N72 Zn68 2.020 . S
N72 C71 1.336 . S
N72 N73 1.354 . S
N73 C69 1.336 . S
N73 N72 1.354 . S
N73 Zn77 2.020 . S
C74 O75 1.244 . S
C74 O98 1.257 . S
O75 C74 1.244 . S
O76 Zn68 2.019 . S
O76 C96 1.257 . S
Zn77 N73 2.020 . S
Zn77 O84 1.975 . S
Zn77 N93 2.119 . S
Zn77 O98 2.019 . S
N78 Zn68 2.119 . S
N78 C80 1.334 . S
N78 C81 1.328 . S
C79 C80 1.391 . S
C79 N82 1.329 . S
C79 H100 0.930 . S
C80 N78 1.334 . S
C80 C79 1.391 . S
C80 H87 0.930 . S
C81 N78 1.328 . S
C81 C83 1.392 . S
C81 H88 0.930 . S
N82 C79 1.329 . S
N82 C83 1.331 . S
C83 C81 1.392 . S
C83 N82 1.331 . S
O84 Zn77 1.975 . S
O84 C85 1.252 . S
C85 O84 1.252 . S
C85 O86 1.252 . S
O86 Zn68 1.975 . S
O86 C85 1.252 . S
H87 C80 0.930 . S
H88 C81 0.930 . S
C89 C90 1.392 . S
C89 N93 1.328 . S
C89 H95 0.930 . S
C90 C89 1.392 . S
C90 N94 1.331 . S
C91 C92 1.391 . S
C91 N94 1.329 . S
C91 H101 0.930 . S
C92 C91 1.391 . S
C92 N93 1.334 . S
C92 H99 0.930 . S
N93 Zn77 2.119 . S
N93 C89 1.328 . S
N93 C92 1.334 . S
N94 C90 1.331 . S
N94 C91 1.329 . S
H95 C89 0.930 . S
C96 O76 1.257 . S
C96 O97 1.244 . S
O97 C96 1.244 . S
O98 C74 1.257 . S
O98 Zn77 2.019 . S
H99 C92 0.930 . S
H100 C79 0.930 . S
H101 C91 0.930 . S
Zn102 N106 2.020 . S
Zn102 O110 2.019 . S
Zn102 N112 2.119 . S
Zn102 O120 1.975 . S
C103 N104 1.334 . S
C103 N107 1.336 . S
N104 C103 1.334 . S
N104 C105 1.334 . S
C105 N104 1.334 . S
C105 N106 1.336 . S
N106 Zn102 2.020 . S
N106 C105 1.336 . S
N106 N107 1.354 . S
N107 C103 1.336 . S
N107 N106 1.354 . S
N107 Zn111 2.020 . S
C108 O109 1.244 . S
C108 O132 1.257 . S
O109 C108 1.244 . S
O110 Zn102 2.019 . S
O110 C130 1.257 . S
Zn111 N107 2.020 . S
Zn111 O118 1.975 . S
Zn111 N127 2.119 . S
Zn111 O132 2.019 . S
N112 Zn102 2.119 . S
N112 C114 1.334 . S
N112 C115 1.328 . S
C113 C114 1.391 . S
C113 N116 1.329 1_556 S
C113 H134 0.930 . S
C114 N112 1.334 . S
C114 C113 1.391 . S
C114 H121 0.930 . S
C115 N112 1.328 . S
C115 C117 1.392 1_556 S
C115 H122 0.930 . S
N116 C113 1.329 1_554 S
N116 C117 1.331 . S
C117 C115 1.392 1_554 S
C117 N116 1.331 . S
O118 Zn111 1.975 . S
O118 C119 1.252 . S
C119 O118 1.252 . S
C119 O120 1.252 . S
O120 Zn102 1.975 . S
O120 C119 1.252 . S
H121 C114 0.930 . S
H122 C115 0.930 . S
C123 C124 1.392 . S
C123 N127 1.328 . S
C123 H129 0.930 . S
C124 C123 1.392 . S
C124 N128 1.331 . S
C125 C126 1.391 . S
C125 N128 1.329 . S
C125 H135 0.930 . S
C126 C125 1.391 . S
C126 N127 1.334 . S
C126 H133 0.930 . S
N127 Zn111 2.119 . S
N127 C123 1.328 . S
N127 C126 1.334 . S
N128 C124 1.331 . S
N128 C125 1.329 . S
H129 C123 0.930 . S
C130 O110 1.257 . S
C130 O131 1.244 . S
O131 C130 1.244 . S
O132 C108 1.257 . S
O132 Zn111 2.019 . S
H133 C126 0.930 . S
H134 C113 0.930 . S
H135 C125 0.930 . S
Zn136 N140 2.020 . S
Zn136 O144 2.019 . S
Zn136 N146 2.119 . S
Zn136 O154 1.975 . S
C137 N138 1.334 . S
C137 N141 1.336 . S
N138 C137 1.334 . S
N138 C139 1.334 . S
C139 N138 1.334 . S
C139 N140 1.336 . S
N140 Zn136 2.020 . S
N140 C139 1.336 . S
N140 N141 1.354 . S
N141 C137 1.336 . S
N141 N140 1.354 . S
N141 Zn145 2.020 . S
C142 O143 1.244 . S
C142 O166 1.257 . S
O143 C142 1.244 . S
O144 Zn136 2.019 . S
O144 C164 1.257 . S
Zn145 N141 2.020 . S
Zn145 O152 1.975 . S
Zn145 N161 2.119 . S
Zn145 O166 2.019 . S
N146 Zn136 2.119 . S
N146 C148 1.334 . S
N146 C149 1.328 . S
C147 C148 1.391 . S
C147 N150 1.329 . S
C147 H168 0.930 . S
C148 N146 1.334 . S
C148 C147 1.391 . S
C148 H155 0.930 . S
C149 N146 1.328 . S
C149 C151 1.392 . S
C149 H156 0.930 . S
N150 C147 1.329 . S
N150 C151 1.331 . S
C151 C149 1.392 . S
C151 N150 1.331 . S
O152 Zn145 1.975 . S
O152 C153 1.252 . S
C153 O152 1.252 . S
C153 O154 1.252 . S
O154 Zn136 1.975 . S
O154 C153 1.252 . S
H155 C148 0.930 . S
H156 C149 0.930 . S
C157 C158 1.392 . S
C157 N161 1.328 . S
C157 H163 0.930 . S
C158 C157 1.392 . S
C158 N162 1.331 . S
C159 C160 1.391 . S
C159 N162 1.329 . S
C159 H169 0.930 . S
C160 C159 1.391 . S
C160 N161 1.334 . S
C160 H167 0.930 . S
N161 Zn145 2.119 . S
N161 C157 1.328 . S
N161 C160 1.334 . S
N162 C158 1.331 . S
N162 C159 1.329 . S
H163 C157 0.930 . S
C164 O144 1.257 . S
C164 O165 1.244 . S
O165 C164 1.244 . S
O166 C142 1.257 . S
O166 Zn145 2.019 . S
H167 C160 0.930 . S
H168 C147 0.930 . S
H169 C159 0.930 . S
Zn170 N174 2.020 . S
Zn170 O178 2.019 . S
Zn170 N180 2.119 . S
Zn170 O188 1.975 . S
C171 N172 1.334 . S
C171 N175 1.336 . S
N172 C171 1.334 . S
N172 C173 1.334 . S
C173 N172 1.334 . S
C173 N174 1.336 . S
N174 Zn170 2.020 . S
N174 C173 1.336 . S
N174 N175 1.354 . S
N175 C171 1.336 . S
N175 N174 1.354 . S
N175 Zn179 2.020 . S
C176 O177 1.244 . S
C176 O200 1.257 . S
O177 C176 1.244 . S
O178 Zn170 2.019 . S
O178 C198 1.257 . S
Zn179 N175 2.020 . S
Zn179 O186 1.975 . S
Zn179 N195 2.119 . S
Zn179 O200 2.019 . S
N180 Zn170 2.119 . S
N180 C182 1.334 . S
N180 C183 1.328 . S
C181 C182 1.391 . S
C181 N184 1.329 . S
C181 H202 0.930 . S
C182 N180 1.334 . S
C182 C181 1.391 . S
C182 H189 0.930 . S
C183 N180 1.328 . S
C183 C185 1.392 . S
C183 H190 0.930 . S
N184 C181 1.329 . S
N184 C185 1.331 . S
C185 C183 1.392 . S
C185 N184 1.331 . S
O186 Zn179 1.975 . S
O186 C187 1.252 . S
C187 O186 1.252 . S
C187 O188 1.252 . S
O188 Zn170 1.975 . S
O188 C187 1.252 . S
H189 C182 0.930 . S
H190 C183 0.930 . S
C191 C192 1.392 . S
C191 N195 1.328 . S
C191 H197 0.930 . S
C192 C191 1.392 . S
C192 N196 1.331 . S
C193 C194 1.391 . S
C193 N196 1.329 . S
C193 H203 0.930 . S
C194 C193 1.391 . S
C194 N195 1.334 . S
C194 H201 0.930 . S
N195 Zn179 2.119 . S
N195 C191 1.328 . S
N195 C194 1.334 . S
N196 C192 1.331 . S
N196 C193 1.329 . S
H197 C191 0.930 . S
C198 O178 1.257 . S
C198 O199 1.244 . S
O199 C198 1.244 . S
O200 C176 1.257 . S
O200 Zn179 2.019 . S
H201 C194 0.930 . S
H202 C181 0.930 . S
H203 C193 0.930 . S
Zn204 N208 2.020 . S
Zn204 O212 2.019 . S
Zn204 N214 2.119 . S
Zn204 O222 1.975 . S
C205 N206 1.334 . S
C205 N209 1.336 . S
N206 C205 1.334 . S
N206 C207 1.334 . S
C207 N206 1.334 . S
C207 N208 1.336 . S
N208 Zn204 2.020 . S
N208 C207 1.336 . S
N208 N209 1.354 . S
N209 C205 1.336 . S
N209 N208 1.354 . S
N209 Zn213 2.020 . S
C210 O211 1.244 . S
C210 O234 1.257 . S
O211 C210 1.244 . S
O212 Zn204 2.019 . S
O212 C232 1.257 . S
Zn213 N209 2.020 . S
Zn213 O220 1.975 . S
Zn213 N229 2.119 . S
Zn213 O234 2.019 . S
N214 Zn204 2.119 . S
N214 C216 1.334 . S
N214 C217 1.328 . S
C215 C216 1.391 . S
C215 N218 1.329 1_556 S
C215 H236 0.930 . S
C216 N214 1.334 . S
C216 C215 1.391 . S
C216 H223 0.930 . S
C217 N214 1.328 . S
C217 C219 1.392 1_556 S
C217 H224 0.930 . S
N218 C215 1.329 1_554 S
N218 C219 1.331 . S
C219 C217 1.392 1_554 S
C219 N218 1.331 . S
O220 Zn213 1.975 . S
O220 C221 1.252 . S
C221 O220 1.252 . S
C221 O222 1.252 . S
O222 Zn204 1.975 . S
O222 C221 1.252 . S
H223 C216 0.930 . S
H224 C217 0.930 . S
C225 C226 1.392 . S
C225 N229 1.328 . S
C225 H231 0.930 . S
C226 C225 1.392 . S
C226 N230 1.331 . S
C227 C228 1.391 . S
C227 N230 1.329 . S
C227 H237 0.930 . S
C228 C227 1.391 . S
C228 N229 1.334 . S
C228 H235 0.930 . S
N229 Zn213 2.119 . S
N229 C225 1.328 . S
N229 C228 1.334 . S
N230 C226 1.331 . S
N230 C227 1.329 . S
H231 C225 0.930 . S
C232 O212 1.257 . S
C232 O233 1.244 . S
O233 C232 1.244 . S
O234 C210 1.257 . S
O234 Zn213 2.019 . S
H235 C228 0.930 . S
H236 C215 0.930 . S
H237 C227 0.930 . S
Zn238 N242 2.020 . S
Zn238 O246 2.019 . S
Zn238 N248 2.119 . S
Zn238 O256 1.975 . S
C239 N240 1.334 . S
C239 N243 1.336 . S
N240 C239 1.334 . S
N240 C241 1.334 . S
C241 N240 1.334 . S
C241 N242 1.336 . S
N242 Zn238 2.020 . S
N242 C241 1.336 . S
N242 N243 1.354 . S
N243 C239 1.336 . S
N243 N242 1.354 . S
N243 Zn247 2.020 . S
C244 O245 1.244 . S
C244 O268 1.257 . S
O245 C244 1.244 . S
O246 Zn238 2.019 . S
O246 C266 1.257 . S
Zn247 N243 2.020 . S
Zn247 O254 1.975 . S
Zn247 N263 2.119 . S
Zn247 O268 2.019 . S
N248 Zn238 2.119 . S
N248 C250 1.334 . S
N248 C251 1.328 . S
C249 C250 1.391 . S
C249 N252 1.329 1_655 S
C249 H270 0.930 . S
C250 N248 1.334 . S
C250 C249 1.391 . S
C250 H257 0.930 . S
C251 N248 1.328 . S
C251 C253 1.392 1_655 S
C251 H258 0.930 1_655 S
N252 C249 1.329 1_455 S
N252 C253 1.331 . S
C253 C251 1.392 1_455 S
C253 N252 1.331 . S
O254 Zn247 1.975 . S
O254 C255 1.252 . S
C255 O254 1.252 . S
C255 O256 1.252 . S
O256 Zn238 1.975 . S
O256 C255 1.252 . S
H257 C250 0.930 . S
H258 C251 0.930 1_455 S
C259 C260 1.392 . S
C259 N263 1.328 . S
C259 H265 0.930 . S
C260 C259 1.392 . S
C260 N264 1.331 . S
C261 C262 1.391 . S
C261 N264 1.329 . S
C261 H271 0.930 . S
C262 C261 1.391 . S
C262 N263 1.334 . S
C262 H269 0.930 . S
N263 Zn247 2.119 . S
N263 C259 1.328 . S
N263 C262 1.334 . S
N264 C260 1.331 . S
N264 C261 1.329 . S
H265 C259 0.930 . S
C266 O246 1.257 . S
C266 O267 1.244 . S
O267 C266 1.244 . S
O268 C244 1.257 . S
O268 Zn247 2.019 . S
H269 C262 0.930 . S
H270 C249 0.930 . S
H271 C261 0.930 . S
Zn272 N276 2.020 . S
Zn272 O280 2.019 . S
Zn272 N282 2.119 . S
Zn272 O290 1.975 . S
C273 N274 1.334 . S
C273 N277 1.336 . S
N274 C273 1.334 . S
N274 C275 1.334 . S
C275 N274 1.334 . S
C275 N276 1.336 . S
N276 Zn272 2.020 . S
N276 C275 1.336 . S
N276 N277 1.354 . S
N277 C273 1.336 . S
N277 N276 1.354 . S
N277 Zn281 2.020 . S
C278 O279 1.244 . S
C278 O302 1.257 . S
O279 C278 1.244 . S
O280 Zn272 2.019 . S
O280 C300 1.257 . S
Zn281 N277 2.020 . S
Zn281 O288 1.975 . S
Zn281 N297 2.119 . S
Zn281 O302 2.019 . S
N282 Zn272 2.119 . S
N282 C284 1.334 . S
N282 C285 1.328 . S
C283 C284 1.391 . S
C283 N286 1.329 1_556 S
C283 H304 0.930 . S
C284 N282 1.334 . S
C284 C283 1.391 . S
C284 H291 0.930 . S
C285 N282 1.328 . S
C285 C287 1.392 1_556 S
C285 H292 0.930 . S
N286 C283 1.329 1_554 S
N286 C287 1.331 . S
C287 C285 1.392 1_554 S
C287 N286 1.331 . S
O288 Zn281 1.975 . S
O288 C289 1.252 . S
C289 O288 1.252 . S
C289 O290 1.252 . S
O290 Zn272 1.975 . S
O290 C289 1.252 . S
H291 C284 0.930 . S
H292 C285 0.930 . S
C293 C294 1.392 . S
C293 N297 1.328 . S
C293 H299 0.930 . S
C294 C293 1.392 . S
C294 N298 1.331 . S
C295 C296 1.391 . S
C295 N298 1.329 . S
C295 H305 0.930 . S
C296 C295 1.391 . S
C296 N297 1.334 . S
C296 H303 0.930 . S
N297 Zn281 2.119 . S
N297 C293 1.328 . S
N297 C296 1.334 . S
N298 C294 1.331 . S
N298 C295 1.329 . S
H299 C293 0.930 . S
C300 O280 1.257 . S
C300 O301 1.244 . S
O301 C300 1.244 . S
O302 C278 1.257 . S
O302 Zn281 2.019 . S
H303 C296 0.930 . S
H304 C283 0.930 . S
H305 C295 0.930 . S
Zn306 N310 2.020 . S
Zn306 O314 2.019 . S
Zn306 N316 2.119 . S
Zn306 O324 1.975 . S
C307 N308 1.334 . S
C307 N311 1.336 . S
N308 C307 1.334 . S
N308 C309 1.334 . S
C309 N308 1.334 . S
C309 N310 1.336 . S
N310 Zn306 2.020 . S
N310 C309 1.336 . S
N310 N311 1.354 . S
N311 C307 1.336 . S
N311 N310 1.354 . S
N311 Zn315 2.020 . S
C312 O313 1.244 . S
C312 O336 1.257 . S
O313 C312 1.244 . S
O314 Zn306 2.019 . S
O314 C334 1.257 . S
Zn315 N311 2.020 . S
Zn315 O322 1.975 . S
Zn315 N331 2.119 . S
Zn315 O336 2.019 . S
N316 Zn306 2.119 . S
N316 C318 1.334 . S
N316 C319 1.328 . S
C317 C318 1.391 . S
C317 N320 1.329 . S
C317 H338 0.930 . S
C318 N316 1.334 . S
C318 C317 1.391 . S
C318 H325 0.930 . S
C319 N316 1.328 . S
C319 C321 1.392 . S
C319 H326 0.930 . S
N320 C317 1.329 . S
N320 C321 1.331 . S
C321 C319 1.392 . S
C321 N320 1.331 . S
O322 Zn315 1.975 . S
O322 C323 1.252 . S
C323 O322 1.252 . S
C323 O324 1.252 . S
O324 Zn306 1.975 . S
O324 C323 1.252 . S
H325 C318 0.930 . S
H326 C319 0.930 . S
C327 C328 1.392 . S
C327 N331 1.328 . S
C327 H333 0.930 . S
C328 C327 1.392 . S
C328 N332 1.331 . S
C329 C330 1.391 . S
C329 N332 1.329 . S
C329 H339 0.930 . S
C330 C329 1.391 . S
C330 N331 1.334 . S
C330 H337 0.930 . S
N331 Zn315 2.119 . S
N331 C327 1.328 . S
N331 C330 1.334 . S
N332 C328 1.331 . S
N332 C329 1.329 . S
H333 C327 0.930 . S
C334 O314 1.257 . S
C334 O335 1.244 . S
O335 C334 1.244 . S
O336 C312 1.257 . S
O336 Zn315 2.019 . S
H337 C330 0.930 . S
H338 C317 0.930 . S
H339 C329 0.930 . S
Zn340 N344 2.020 . S
Zn340 O348 2.019 . S
Zn340 N350 2.119 . S
Zn340 O358 1.975 . S
C341 N342 1.334 . S
C341 N345 1.336 . S
N342 C341 1.334 . S
N342 C343 1.334 . S
C343 N342 1.334 . S
C343 N344 1.336 . S
N344 Zn340 2.020 . S
N344 C343 1.336 . S
N344 N345 1.354 . S
N345 C341 1.336 . S
N345 N344 1.354 . S
N345 Zn349 2.020 . S
C346 O347 1.244 . S
C346 O370 1.257 . S
O347 C346 1.244 . S
O348 Zn340 2.019 . S
O348 C368 1.257 . S
Zn349 N345 2.020 . S
Zn349 O356 1.975 . S
Zn349 N365 2.119 . S
Zn349 O370 2.019 . S
N350 Zn340 2.119 . S
N350 C352 1.334 . S
N350 C353 1.328 . S
C351 C352 1.391 . S
C351 N354 1.329 . S
C351 H372 0.930 . S
C352 N350 1.334 . S
C352 C351 1.391 . S
C352 H359 0.930 . S
C353 N350 1.328 . S
C353 C355 1.392 . S
C353 H360 0.930 . S
N354 C351 1.329 . S
N354 C355 1.331 . S
C355 C353 1.392 . S
C355 N354 1.331 . S
O356 Zn349 1.975 . S
O356 C357 1.252 . S
C357 O356 1.252 . S
C357 O358 1.252 . S
O358 Zn340 1.975 . S
O358 C357 1.252 . S
H359 C352 0.930 . S
H360 C353 0.930 . S
C361 C362 1.392 . S
C361 N365 1.328 . S
C361 H367 0.930 . S
C362 C361 1.392 . S
C362 N366 1.331 . S
C363 C364 1.391 . S
C363 N366 1.329 . S
C363 H373 0.930 . S
C364 C363 1.391 . S
C364 N365 1.334 . S
C364 H371 0.930 . S
N365 Zn349 2.119 . S
N365 C361 1.328 . S
N365 C364 1.334 . S
N366 C362 1.331 . S
N366 C363 1.329 . S
H367 C361 0.930 . S
C368 O348 1.257 . S
C368 O369 1.244 . S
O369 C368 1.244 . S
O370 C346 1.257 . S
O370 Zn349 2.019 . S
H371 C364 0.930 . S
H372 C351 0.930 . S
H373 C363 0.930 . S
Zn374 N378 2.020 . S
Zn374 O382 2.019 . S
Zn374 N384 2.119 . S
Zn374 O392 1.975 . S
C375 N376 1.334 . S
C375 N379 1.336 . S
N376 C375 1.334 . S
N376 C377 1.334 . S
C377 N376 1.334 . S
C377 N378 1.336 . S
N378 Zn374 2.020 . S
N378 C377 1.336 . S
N378 N379 1.354 . S
N379 C375 1.336 . S
N379 N378 1.354 . S
N379 Zn383 2.020 . S
C380 O381 1.244 . S
C380 O404 1.257 . S
O381 C380 1.244 . S
O382 Zn374 2.019 . S
O382 C402 1.257 . S
Zn383 N379 2.020 . S
Zn383 O390 1.975 . S
Zn383 N399 2.119 . S
Zn383 O404 2.019 . S
N384 Zn374 2.119 . S
N384 C386 1.334 . S
N384 C387 1.328 . S
C385 C386 1.391 . S
C385 N388 1.329 . S
C385 H406 0.930 . S
C386 N384 1.334 . S
C386 C385 1.391 . S
C386 H393 0.930 . S
C387 N384 1.328 . S
C387 C389 1.392 . S
C387 H394 0.930 . S
N388 C385 1.329 . S
N388 C389 1.331 . S
C389 C387 1.392 . S
C389 N388 1.331 . S
O390 Zn383 1.975 . S
O390 C391 1.252 . S
C391 O390 1.252 . S
C391 O392 1.252 . S
O392 Zn374 1.975 . S
O392 C391 1.252 . S
H393 C386 0.930 . S
H394 C387 0.930 . S
C395 C396 1.392 1_554 S
C395 N399 1.328 . S
C395 H401 0.930 . S
C396 C395 1.392 1_556 S
C396 N400 1.331 . S
C397 C398 1.391 . S
C397 N400 1.329 1_554 S
C397 H407 0.930 . S
C398 C397 1.391 . S
C398 N399 1.334 . S
C398 H405 0.930 . S
N399 Zn383 2.119 . S
N399 C395 1.328 . S
N399 C398 1.334 . S
N400 C396 1.331 . S
N400 C397 1.329 1_556 S
H401 C395 0.930 . S
C402 O382 1.257 . S
C402 O403 1.244 . S
O403 C402 1.244 . S
O404 C380 1.257 . S
O404 Zn383 2.019 . S
H405 C398 0.930 . S
H406 C385 0.930 . S
H407 C397 0.930 . S
Zn408 N412 2.020 . S
Zn408 O416 2.019 . S
Zn408 N418 2.119 . S
Zn408 O426 1.975 . S
C409 N410 1.334 . S
C409 N413 1.336 . S
N410 C409 1.334 . S
N410 C411 1.334 . S
C411 N410 1.334 . S
C411 N412 1.336 . S
N412 Zn408 2.020 . S
N412 C411 1.336 . S
N412 N413 1.354 . S
N413 C409 1.336 . S
N413 N412 1.354 . S
N413 Zn417 2.020 . S
C414 O415 1.244 . S
C414 O438 1.257 . S
O415 C414 1.244 . S
O416 Zn408 2.019 . S
O416 C436 1.257 . S
Zn417 N413 2.020 . S
Zn417 O424 1.975 . S
Zn417 N433 2.119 . S
Zn417 O438 2.019 . S
N418 Zn408 2.119 . S
N418 C420 1.334 . S
N418 C421 1.328 . S
C419 C420 1.391 . S
C419 N422 1.329 . S
C419 H440 0.930 . S
C420 N418 1.334 . S
C420 C419 1.391 . S
C420 H427 0.930 . S
C421 N418 1.328 . S
C421 C423 1.392 . S
C421 H428 0.930 . S
N422 C419 1.329 . S
N422 C423 1.331 . S
C423 C421 1.392 . S
C423 N422 1.331 . S
O424 Zn417 1.975 . S
O424 C425 1.252 . S
C425 O424 1.252 . S
C425 O426 1.252 . S
O426 Zn408 1.975 . S
O426 C425 1.252 . S
H427 C420 0.930 . S
H428 C421 0.930 . S
C429 C430 1.392 . S
C429 N433 1.328 . S
C429 H435 0.930 . S
C430 C429 1.392 . S
C430 N434 1.331 . S
C431 C432 1.391 . S
C431 N434 1.329 . S
C431 H441 0.930 . S
C432 C431 1.391 . S
C432 N433 1.334 . S
C432 H439 0.930 . S
N433 Zn417 2.119 . S
N433 C429 1.328 . S
N433 C432 1.334 . S
N434 C430 1.331 . S
N434 C431 1.329 . S
H435 C429 0.930 . S
C436 O416 1.257 . S
C436 O437 1.244 . S
O437 C436 1.244 . S
O438 C414 1.257 . S
O438 Zn417 2.019 . S
H439 C432 0.930 . S
H440 C419 0.930 . S
H441 C431 0.930 . S
Zn442 N446 2.020 . S
Zn442 O450 2.019 . S
Zn442 N452 2.119 . S
Zn442 O460 1.975 . S
C443 N444 1.334 . S
C443 N447 1.336 . S
N444 C443 1.334 . S
N444 C445 1.334 . S
C445 N444 1.334 . S
C445 N446 1.336 . S
N446 Zn442 2.020 . S
N446 C445 1.336 . S
N446 N447 1.354 . S
N447 C443 1.336 . S
N447 N446 1.354 . S
N447 Zn451 2.020 . S
C448 O449 1.244 . S
C448 O472 1.257 . S
O449 C448 1.244 . S
O450 Zn442 2.019 . S
O450 C470 1.257 . S
Zn451 N447 2.020 . S
Zn451 O458 1.975 . S
Zn451 N467 2.119 . S
Zn451 O472 2.019 . S
N452 Zn442 2.119 . S
N452 C454 1.334 . S
N452 C455 1.328 . S
C453 C454 1.391 . S
C453 N456 1.329 . S
C453 H474 0.930 . S
C454 N452 1.334 . S
C454 C453 1.391 . S
C454 H461 0.930 . S
C455 N452 1.328 . S
C455 C457 1.392 . S
C455 H462 0.930 . S
N456 C453 1.329 . S
N456 C457 1.331 . S
C457 C455 1.392 . S
C457 N456 1.331 . S
O458 Zn451 1.975 . S
O458 C459 1.252 . S
C459 O458 1.252 . S
C459 O460 1.252 . S
O460 Zn442 1.975 . S
O460 C459 1.252 . S
H461 C454 0.930 . S
H462 C455 0.930 . S
C463 C464 1.392 . S
C463 N467 1.328 . S
C463 H469 0.930 . S
C464 C463 1.392 . S
C464 N468 1.331 . S
C465 C466 1.391 . S
C465 N468 1.329 . S
C465 H475 0.930 . S
C466 C465 1.391 . S
C466 N467 1.334 . S
C466 H473 0.930 . S
N467 Zn451 2.119 . S
N467 C463 1.328 . S
N467 C466 1.334 . S
N468 C464 1.331 . S
N468 C465 1.329 . S
H469 C463 0.930 . S
C470 O450 1.257 . S
C470 O471 1.244 . S
O471 C470 1.244 . S
O472 C448 1.257 . S
O472 Zn451 2.019 . S
H473 C466 0.930 . S
H474 C453 0.930 . S
H475 C465 0.930 . S
Zn476 N480 2.020 . S
Zn476 O484 2.019 . S
Zn476 N486 2.119 . S
Zn476 O494 1.975 . S
C477 N478 1.334 . S
C477 N481 1.336 . S
N478 C477 1.334 . S
N478 C479 1.334 . S
C479 N478 1.334 . S
C479 N480 1.336 . S
N480 Zn476 2.020 . S
N480 C479 1.336 . S
N480 N481 1.354 . S
N481 C477 1.336 . S
N481 N480 1.354 . S
N481 Zn485 2.020 . S
C482 O483 1.244 . S
C482 O506 1.257 . S
O483 C482 1.244 . S
O484 Zn476 2.019 . S
O484 C504 1.257 . S
Zn485 N481 2.020 . S
Zn485 O492 1.975 . S
Zn485 N501 2.119 . S
Zn485 O506 2.019 . S
N486 Zn476 2.119 . S
N486 C488 1.334 . S
N486 C489 1.328 . S
C487 C488 1.391 . S
C487 N490 1.329 1_554 S
C487 H508 0.930 . S
C488 N486 1.334 . S
C488 C487 1.391 . S
C488 H495 0.930 . S
C489 N486 1.328 . S
C489 C491 1.392 1_554 S
C489 H496 0.930 . S
N490 C487 1.329 1_556 S
N490 C491 1.331 . S
C491 C489 1.392 1_556 S
C491 N490 1.331 . S
O492 Zn485 1.975 . S
O492 C493 1.252 . S
C493 O492 1.252 . S
C493 O494 1.252 . S
O494 Zn476 1.975 . S
O494 C493 1.252 . S
H495 C488 0.930 . S
H496 C489 0.930 . S
C497 C498 1.392 . S
C497 N501 1.328 . S
C497 H503 0.930 . S
C498 C497 1.392 . S
C498 N502 1.331 . S
C499 C500 1.391 . S
C499 N502 1.329 . S
C499 H509 0.930 . S
C500 C499 1.391 . S
C500 N501 1.334 . S
C500 H507 0.930 . S
N501 Zn485 2.119 . S
N501 C497 1.328 . S
N501 C500 1.334 . S
N502 C498 1.331 . S
N502 C499 1.329 . S
H503 C497 0.930 . S
C504 O484 1.257 . S
C504 O505 1.244 . S
O505 C504 1.244 . S
O506 C482 1.257 . S
O506 Zn485 2.019 . S
H507 C500 0.930 . S
H508 C487 0.930 . S
H509 C499 0.930 . S
Zn510 N514 2.020 . S
Zn510 O518 2.019 . S
Zn510 N520 2.119 . S
Zn510 O528 1.975 . S
C511 N512 1.334 . S
C511 N515 1.336 . S
N512 C511 1.334 . S
N512 C513 1.334 . S
C513 N512 1.334 . S
C513 N514 1.336 . S
N514 Zn510 2.020 . S
N514 C513 1.336 . S
N514 N515 1.354 . S
N515 C511 1.336 . S
N515 N514 1.354 . S
N515 Zn519 2.020 . S
C516 O517 1.244 . S
C516 O540 1.257 . S
O517 C516 1.244 . S
O518 Zn510 2.019 . S
O518 C538 1.257 . S
Zn519 N515 2.020 . S
Zn519 O526 1.975 . S
Zn519 N535 2.119 . S
Zn519 O540 2.019 . S
N520 Zn510 2.119 . S
N520 C522 1.334 . S
N520 C523 1.328 . S
C521 C522 1.391 . S
C521 N524 1.329 1_455 S
C521 H542 0.930 . S
C522 N520 1.334 . S
C522 C521 1.391 . S
C522 H529 0.930 . S
C523 N520 1.328 . S
C523 C525 1.392 1_455 S
C523 H530 0.930 1_455 S
N524 C521 1.329 1_655 S
N524 C525 1.331 . S
C525 C523 1.392 1_655 S
C525 N524 1.331 . S
O526 Zn519 1.975 . S
O526 C527 1.252 . S
C527 O526 1.252 . S
C527 O528 1.252 . S
O528 Zn510 1.975 . S
O528 C527 1.252 . S
H529 C522 0.930 . S
H530 C523 0.930 1_655 S
C531 C532 1.392 . S
C531 N535 1.328 . S
C531 H537 0.930 . S
C532 C531 1.392 . S
C532 N536 1.331 . S
C533 C534 1.391 . S
C533 N536 1.329 . S
C533 H543 0.930 . S
C534 C533 1.391 . S
C534 N535 1.334 . S
C534 H541 0.930 . S
N535 Zn519 2.119 . S
N535 C531 1.328 . S
N535 C534 1.334 . S
N536 C532 1.331 . S
N536 C533 1.329 . S
H537 C531 0.930 . S
C538 O518 1.257 . S
C538 O539 1.244 . S
O539 C538 1.244 . S
O540 C516 1.257 . S
O540 Zn519 2.019 . S
H541 C534 0.930 . S
H542 C521 0.930 . S
H543 C533 0.930 . S
H544 C550 0.930 . S
H545 C553 0.930 . S
H546 C554 0.930 . S
H547 C555 0.930 . S
H548 C558 0.930 . S
H549 C559 0.930 . S
C550 H544 0.930 . S
C550 C551 1.355 . S
C550 C552 1.415 1_655 S
C551 C550 1.355 . S
C551 C553 1.419 1_655 S
C552 C550 1.415 1_455 S
C552 C557 1.425 . S
C552 C559 1.409 1_455 S
C553 H545 0.930 . S
C553 C551 1.419 1_455 S
C553 C554 1.362 . S
C554 H546 0.930 . S
C554 C553 1.362 . S
C554 C557 1.409 . S
C555 H547 0.930 . S
C555 C556 1.355 . S
C555 C557 1.415 . S
C556 C555 1.355 . S
C556 C558 1.419 . S
C557 C552 1.425 . S
C557 C554 1.409 . S
C557 C555 1.415 . S
C558 H548 0.930 . S
C558 C556 1.419 . S
C558 C559 1.362 1_455 S
C559 H549 0.930 . S
C559 C552 1.409 1_655 S
C559 C558 1.362 1_655 S
H560 C566 0.930 . S
H561 C569 0.932 . S
H562 C570 0.930 . S
H563 C571 0.930 . S
H564 C574 0.930 . S
H565 C575 0.930 . S
C566 H560 0.930 . S
C566 C567 1.355 . S
C566 C568 1.415 1_455 S
C567 C566 1.355 . S
C567 C569 1.419 1_455 S
C568 C566 1.415 1_655 S
C568 C573 1.425 . S
C568 C575 1.409 . S
C569 H561 0.932 . S
C569 C567 1.419 1_655 S
C569 C570 1.362 . S
C570 H562 0.930 . S
C570 C569 1.362 . S
C570 C573 1.409 . S
C571 H563 0.930 . S
C571 C572 1.355 . S
C571 C573 1.415 . S
C572 C571 1.355 . S
C572 C574 1.419 . S
C573 C568 1.425 . S
C573 C570 1.409 . S
C573 C571 1.415 . S
C574 H564 0.930 . S
C574 C572 1.419 . S
C574 C575 1.362 . S
C575 H565 0.930 . S
C575 C568 1.409 . S
C575 C574 1.362 . S
H576 C582 0.930 . S
H577 C585 0.930 . S
H578 C586 0.930 . S
H579 C587 0.930 . S
H580 C590 0.930 . S
H581 C591 0.930 . S
C582 H576 0.930 . S
C582 C583 1.355 . S
C582 C584 1.415 . S
C583 C582 1.355 . S
C583 C585 1.419 . S
C584 C582 1.415 . S
C584 C589 1.425 . S
C584 C591 1.409 . S
C585 H577 0.930 . S
C585 C583 1.419 . S
C585 C586 1.362 . S
C586 H578 0.930 . S
C586 C585 1.362 . S
C586 C589 1.409 . S
C587 H579 0.930 . S
C587 C588 1.355 . S
C587 C589 1.415 . S
C588 C587 1.355 . S
C588 C590 1.419 . S
C589 C584 1.425 . S
C589 C586 1.409 . S
C589 C587 1.415 . S
C590 H580 0.930 . S
C590 C588 1.419 . S
C590 C591 1.362 . S
C591 H581 0.930 . S
C591 C584 1.409 . S
C591 C590 1.362 . S
H592 C598 0.930 . S
H593 C601 0.930 . S
H594 C602 0.930 . S
H595 C603 0.930 . S
H596 C606 0.930 . S
H597 C607 0.930 . S
C598 H592 0.930 . S
C598 C599 1.355 . S
C598 C600 1.415 . S
C599 C598 1.355 . S
C599 C601 1.419 . S
C600 C598 1.415 . S
C600 C605 1.425 . S
C600 C607 1.409 . S
C601 H593 0.930 . S
C601 C599 1.419 . S
C601 C602 1.362 . S
C602 H594 0.930 . S
C602 C601 1.362 . S
C602 C605 1.409 . S
C603 H595 0.930 . S
C603 C604 1.355 . S
C603 C605 1.415 . S
C604 C603 1.355 . S
C604 C606 1.419 . S
C605 C600 1.425 . S
C605 C602 1.409 . S
C605 C603 1.415 . S
C606 H596 0.930 . S
C606 C604 1.419 . S
C606 C607 1.362 . S
C607 H597 0.930 . S
C607 C600 1.409 . S
C607 C606 1.362 . S
H608 C614 0.930 . S
H609 C617 0.930 1_455 S
H610 C618 0.930 . S
H611 C619 0.930 . S
H612 C622 0.930 . S
H613 C623 0.930 . S
C614 H608 0.930 . S
C614 C615 1.355 . S
C614 C616 1.415 . S
C615 C614 1.355 . S
C615 C617 1.419 . S
C616 C614 1.415 . S
C616 C621 1.420 1_655 S
C616 C623 1.409 . S
C617 H609 0.930 1_655 S
C617 C615 1.419 . S
C617 C618 1.362 1_655 S
C618 H610 0.930 . S
C618 C617 1.362 1_455 S
C618 C621 1.411 . S
C619 H611 0.930 . S
C619 C620 1.355 . S
C619 C621 1.417 . S
C620 C619 1.355 . S
C620 C622 1.419 1_455 S
C621 C616 1.420 1_455 S
C621 C618 1.411 . S
C621 C619 1.417 . S
C622 H612 0.930 . S
C622 C620 1.419 1_655 S
C622 C623 1.362 . S
C623 H613 0.930 . S
C623 C616 1.409 . S
C623 C622 1.362 . S
H624 C630 0.930 . S
H625 C633 0.930 . S
H626 C634 0.930 . S
H627 C635 0.930 . S
H628 C638 0.930 . S
H629 C639 0.930 . S
C630 H624 0.930 . S
C630 C631 1.355 . S
C630 C632 1.415 . S
C631 C630 1.355 . S
C631 C633 1.419 . S
C632 C630 1.415 . S
C632 C637 1.425 . S
C632 C639 1.409 1_455 S
C633 H625 0.930 . S
C633 C631 1.419 . S
C633 C634 1.362 . S
C634 H626 0.930 . S
C634 C633 1.362 . S
C634 C637 1.409 . S
C635 H627 0.930 . S
C635 C636 1.355 1_455 S
C635 C637 1.415 . S
C636 C635 1.355 1_655 S
C636 C638 1.419 . S
C637 C632 1.425 . S
C637 C634 1.409 . S
C637 C635 1.415 . S
C638 H628 0.930 . S
C638 C636 1.419 . S
C638 C639 1.362 . S
C639 H629 0.930 . S
C639 C632 1.409 1_655 S
C639 C638 1.362 . S
H640 C646 0.930 . S
H641 C649 0.930 . S
H642 C650 0.930 . S
H643 C651 0.930 . S
H644 C654 0.930 . S
H645 C655 0.930 . S
C646 H640 0.930 . S
C646 C647 1.355 . S
C646 C648 1.415 . S
C647 C646 1.355 . S
C647 C649 1.419 . S
C648 C646 1.415 . S
C648 C653 1.425 . S
C648 C655 1.409 . S
C649 H641 0.930 . S
C649 C647 1.419 . S
C649 C650 1.362 . S
C650 H642 0.930 . S
C650 C649 1.362 . S
C650 C653 1.409 . S
C651 H643 0.930 . S
C651 C652 1.355 . S
C651 C653 1.415 . S
C652 C651 1.355 . S
C652 C654 1.419 . S
C653 C648 1.425 . S
C653 C650 1.409 . S
C653 C651 1.415 . S
C654 H644 0.930 . S
C654 C652 1.419 . S
C654 C655 1.362 . S
C655 H645 0.930 . S
C655 C648 1.409 . S
C655 C654 1.362 . S
H656 C662 0.930 . S
H657 C665 0.930 . S
H658 C666 0.930 . S
H659 C667 0.930 . S
H660 C670 0.930 . S
H661 C671 0.930 . S
C662 H656 0.930 . S
C662 C663 1.355 . S
C662 C664 1.415 . S
C663 C662 1.355 . S
C663 C665 1.419 . S
C664 C662 1.415 . S
C664 C669 1.425 . S
C664 C671 1.409 . S
C665 H657 0.930 . S
C665 C663 1.419 . S
C665 C666 1.362 . S
C666 H658 0.930 . S
C666 C665 1.362 . S
C666 C669 1.409 . S
C667 H659 0.930 . S
C667 C668 1.355 . S
C667 C669 1.415 . S
C668 C667 1.355 . S
C668 C670 1.419 . S
C669 C664 1.425 . S
C669 C666 1.409 . S
C669 C667 1.415 . S
C670 H660 0.930 . S
C670 C668 1.419 . S
C670 C671 1.362 . S
C671 H661 0.930 . S
C671 C664 1.409 . S
C671 C670 1.362 . S
H672 C678 0.930 . S
H673 C681 0.930 . S
H674 C682 0.930 . S
H675 C683 0.930 . S
H676 C686 0.930 . S
H677 C687 0.930 . S
C678 H672 0.930 . S
C678 C679 1.355 . S
C678 C680 1.415 1_556 S
C679 C678 1.355 . S
C679 C681 1.419 . S
C680 C678 1.415 1_554 S
C680 C685 1.425 1_554 S
C680 C687 1.409 . S
C681 H673 0.930 . S
C681 C679 1.419 . S
C681 C682 1.362 . S
C682 H674 0.930 . S
C682 C681 1.362 . S
C682 C685 1.409 . S
C683 H675 0.930 . S
C683 C684 1.355 . S
C683 C685 1.415 1_554 S
C684 C683 1.355 . S
C684 C686 1.419 . S
C685 C680 1.425 1_556 S
C685 C682 1.409 . S
C685 C683 1.415 1_556 S
C686 H676 0.930 . S
C686 C684 1.419 . S
C686 C687 1.362 . S
C687 H677 0.930 . S
C687 C680 1.409 . S
C687 C686 1.362 . S
H688 C694 0.930 . S
H689 C697 0.930 . S
H690 C698 0.930 . S
H691 C699 0.930 . S
H692 C702 0.930 . S
H693 C703 0.930 . S
C694 H688 0.930 . S
C694 C695 1.355 . S
C694 C696 1.415 . S
C695 C694 1.355 . S
C695 C697 1.419 . S
C696 C694 1.415 . S
C696 C701 1.425 . S
C696 C703 1.409 1_565 S
C697 H689 0.930 . S
C697 C695 1.419 . S
C697 C698 1.362 . S
C698 H690 0.930 . S
C698 C697 1.362 . S
C698 C701 1.409 . S
C699 H691 0.930 . S
C699 C700 1.355 . S
C699 C701 1.415 1_545 S
C700 C699 1.355 . S
C700 C702 1.419 . S
C701 C696 1.425 . S
C701 C698 1.409 . S
C701 C699 1.415 1_565 S
C702 H692 0.930 . S
C702 C700 1.419 . S
C702 C703 1.362 . S
C703 H693 0.930 . S
C703 C696 1.409 1_545 S
C703 C702 1.362 . S
H704 C710 0.930 . S
H705 C713 0.930 . S
H706 C714 0.930 . S
H707 C715 0.930 . S
H708 C718 0.930 . S
H709 C719 0.930 . S
C710 H704 0.930 . S
C710 C711 1.355 . S
C710 C712 1.415 . S
C711 C710 1.355 . S
C711 C713 1.419 . S
C712 C710 1.415 . S
C712 C717 1.425 . S
C712 C719 1.409 . S
C713 H705 0.930 . S
C713 C711 1.419 . S
C713 C714 1.362 . S
C714 H706 0.930 . S
C714 C713 1.362 . S
C714 C717 1.409 . S
C715 H707 0.930 . S
C715 C716 1.355 . S
C715 C717 1.415 . S
C716 C715 1.355 . S
C716 C718 1.419 . S
C717 C712 1.425 . S
C717 C714 1.409 . S
C717 C715 1.415 . S
C718 H708 0.930 . S
C718 C716 1.419 . S
C718 C719 1.362 . S
C719 H709 0.930 . S
C719 C712 1.409 . S
C719 C718 1.362 . S
H720 C726 0.930 . S
H721 C729 0.930 . S
H722 C730 0.930 . S
H723 C731 0.930 . S
H724 C734 0.930 . S
H725 C735 0.930 . S
C726 H720 0.930 . S
C726 C727 1.355 . S
C726 C728 1.415 1_565 S
C727 C726 1.355 . S
C727 C729 1.419 . S
C728 C726 1.415 1_545 S
C728 C733 1.425 . S
C728 C735 1.409 . S
C729 H721 0.930 . S
C729 C727 1.419 . S
C729 C730 1.362 1_565 S
C730 H722 0.930 . S
C730 C729 1.362 1_545 S
C730 C733 1.409 . S
C731 H723 0.930 . S
C731 C732 1.355 . S
C731 C733 1.415 . S
C732 C731 1.355 . S
C732 C734 1.419 . S
C733 C728 1.425 . S
C733 C730 1.409 . S
C733 C731 1.415 . S
C734 H724 0.930 . S
C734 C732 1.419 . S
C734 C735 1.362 . S
C735 H725 0.930 . S
C735 C728 1.409 . S
C735 C734 1.362 . S
H736 C742 0.930 . S
H737 C745 0.930 . S
H738 C746 0.930 . S
H739 C747 0.930 . S
H740 C750 0.930 . S
H741 C751 0.930 . S
C742 H736 0.930 . S
C742 C743 1.355 . S
C742 C744 1.415 . S
C743 C742 1.355 . S
C743 C745 1.419 . S
C744 C742 1.415 . S
C744 C749 1.425 1_556 S
C744 C751 1.409 . S
C745 H737 0.930 . S
C745 C743 1.419 . S
C745 C746 1.362 1_556 S
C746 H738 0.930 . S
C746 C745 1.362 1_554 S
C746 C749 1.409 . S
C747 H739 0.930 . S
C747 C748 1.355 . S
C747 C749 1.415 . S
C748 C747 1.355 . S
C748 C750 1.419 . S
C749 C744 1.425 1_554 S
C749 C746 1.409 . S
C749 C747 1.415 . S
C750 H740 0.930 . S
C750 C748 1.419 . S
C750 C751 1.362 1_554 S
C751 H741 0.930 . S
C751 C744 1.409 . S
C751 C750 1.362 1_556 S
H752 C758 0.930 . S
H753 C761 0.930 . S
H754 C762 0.930 . S
H755 C763 0.930 . S
H756 C766 0.930 . S
H757 C767 0.930 . S
C758 H752 0.930 . S
C758 C759 1.355 . S
C758 C760 1.415 1_565 S
C759 C758 1.355 . S
C759 C761 1.419 . S
C760 C758 1.415 1_545 S
C760 C765 1.425 . S
C760 C767 1.409 . S
C761 H753 0.930 . S
C761 C759 1.419 . S
C761 C762 1.362 1_565 S
C762 H754 0.930 . S
C762 C761 1.362 1_545 S
C762 C765 1.409 . S
C763 H755 0.930 . S
C763 C764 1.355 . S
C763 C765 1.415 . S
C764 C763 1.355 . S
C764 C766 1.419 . S
C765 C760 1.425 . S
C765 C762 1.409 . S
C765 C763 1.415 . S
C766 H756 0.930 . S
C766 C764 1.419 . S
C766 C767 1.362 . S
C767 H757 0.930 . S
C767 C760 1.409 . S
C767 C766 1.362 . S
H768 C774 0.930 . S
H769 C777 0.930 . S
H770 C778 0.930 . S
H771 C779 0.930 . S
H772 C782 0.930 . S
H773 C783 0.930 . S
C774 H768 0.930 . S
C774 C775 1.355 . S
C774 C776 1.415 . S
C775 C774 1.355 . S
C775 C777 1.419 . S
C776 C774 1.415 . S
C776 C781 1.425 . S
C776 C783 1.409 . S
C777 H769 0.930 . S
C777 C775 1.419 . S
C777 C778 1.362 . S
C778 H770 0.930 . S
C778 C777 1.362 . S
C778 C781 1.409 . S
C779 H771 0.930 . S
C779 C780 1.355 . S
C779 C781 1.415 . S
C780 C779 1.355 . S
C780 C782 1.419 . S
C781 C776 1.425 . S
C781 C778 1.409 . S
C781 C779 1.415 . S
C782 H772 0.930 . S
C782 C780 1.419 . S
C782 C783 1.362 . S
C783 H773 0.930 . S
C783 C776 1.409 . S
C783 C782 1.362 . S
H784 C790 0.930 . S
H785 C793 0.930 . S
H786 C794 0.930 . S
H787 C795 0.930 . S
H788 C798 0.930 . S
H789 C799 0.930 . S
C790 H784 0.930 . S
C790 C791 1.355 . S
C790 C792 1.415 . S
C791 C790 1.355 . S
C791 C793 1.419 . S
C792 C790 1.415 . S
C792 C797 1.425 . S
C792 C799 1.409 1_565 S
C793 H785 0.930 . S
C793 C791 1.419 . S
C793 C794 1.362 . S
C794 H786 0.930 . S
C794 C793 1.362 . S
C794 C797 1.409 . S
C795 H787 0.930 . S
C795 C796 1.355 . S
C795 C797 1.415 1_545 S
C796 C795 1.355 . S
C796 C798 1.419 . S
C797 C792 1.425 . S
C797 C794 1.409 . S
C797 C795 1.415 1_565 S
C798 H788 0.930 . S
C798 C796 1.419 . S
C798 C799 1.362 . S
C799 H789 0.930 . S
C799 C792 1.409 1_545 S
C799 C798 1.362 . S
H800 C806 0.930 . S
H801 C809 0.930 . S
H802 C810 0.930 . S
H803 C811 0.930 . S
H804 C814 0.930 . S
H805 C815 0.930 . S
C806 H800 0.930 . S
C806 C807 1.355 . S
C806 C808 1.415 . S
C807 C806 1.355 . S
C807 C809 1.419 . S
C808 C806 1.415 . S
C808 C813 1.425 . S
C808 C815 1.409 . S
C809 H801 0.930 . S
C809 C807 1.419 . S
C809 C810 1.362 . S
C810 H802 0.930 . S
C810 C809 1.362 . S
C810 C813 1.409 . S
C811 H803 0.930 . S
C811 C812 1.355 . S
C811 C813 1.415 . S
C812 C811 1.355 . S
C812 C814 1.419 . S
C813 C808 1.425 . S
C813 C810 1.409 . S
C813 C811 1.415 . S
C814 H804 0.930 . S
C814 C812 1.419 . S
C814 C815 1.362 . S
C815 H805 0.930 . S
C815 C808 1.409 . S
C815 C814 1.362 . S
H816 C822 0.930 . S
H817 C825 0.930 . S
H818 C826 0.930 . S
H819 C827 0.930 . S
H820 C830 0.930 . S
H821 C831 0.930 . S
C822 H816 0.930 . S
C822 C823 1.355 . S
C822 C824 1.415 . S
C823 C822 1.355 . S
C823 C825 1.419 . S
C824 C822 1.415 . S
C824 C829 1.425 . S
C824 C831 1.409 . S
C825 H817 0.930 . S
C825 C823 1.419 . S
C825 C826 1.362 . S
C826 H818 0.930 . S
C826 C825 1.362 . S
C826 C829 1.409 . S
C827 H819 0.930 . S
C827 C828 1.355 . S
C827 C829 1.415 . S
C828 C827 1.355 . S
C828 C830 1.419 . S
C829 C824 1.425 . S
C829 C826 1.409 . S
C829 C827 1.415 . S
C830 H820 0.930 . S
C830 C828 1.419 . S
C830 C831 1.362 . S
C831 H821 0.930 . S
C831 C824 1.409 . S
C831 C830 1.362 . S
H832 C838 0.930 . S
H833 C841 0.930 . S
H834 C842 0.930 . S
H835 C843 0.930 . S
H836 C846 0.930 . S
H837 C847 0.930 . S
C838 H832 0.930 . S
C838 C839 1.355 . S
C838 C840 1.421 . S
C839 C838 1.355 . S
C839 C841 1.419 1_556 S
C840 C838 1.421 . S
C840 C845 1.415 1_556 S
C840 C847 1.413 . S
C841 H833 0.930 . S
C841 C839 1.419 1_554 S
C841 C842 1.362 . S
C842 H834 0.930 . S
C842 C841 1.362 . S
C842 C845 1.409 . S
C843 H835 0.930 . S
C843 C844 1.355 . S
C843 C845 1.415 . S
C844 C843 1.355 . S
C844 C846 1.419 . S
C845 C840 1.415 1_554 S
C845 C842 1.409 . S
C845 C843 1.415 . S
C846 H836 0.930 . S
C846 C844 1.419 . S
C846 C847 1.362 1_554 S
C847 H837 0.930 . S
C847 C840 1.413 . S
C847 C846 1.362 1_556 S
H848 C854 0.930 . S
H849 C857 0.930 . S
H850 C858 0.930 . S
H851 C859 0.930 . S
H852 C862 0.930 . S
H853 C863 0.930 . S
C854 H848 0.930 . S
C854 C855 1.355 . S
C854 C856 1.415 . S
C855 C854 1.355 . S
C855 C857 1.419 . S
C856 C854 1.415 . S
C856 C861 1.425 . S
C856 C863 1.409 . S
C857 H849 0.930 . S
C857 C855 1.419 . S
C857 C858 1.362 . S
C858 H850 0.930 . S
C858 C857 1.362 . S
C858 C861 1.409 . S
C859 H851 0.930 . S
C859 C860 1.355 . S
C859 C861 1.415 . S
C860 C859 1.355 . S
C860 C862 1.419 . S
C861 C856 1.425 . S
C861 C858 1.409 . S
C861 C859 1.415 . S
C862 H852 0.930 . S
C862 C860 1.419 . S
C862 C863 1.362 . S
C863 H853 0.930 . S
C863 C856 1.409 . S
C863 C862 1.362 . S
H864 C870 0.930 . S
H865 C873 0.930 . S
H866 C874 0.930 . S
H867 C875 0.930 . S
H868 C878 0.930 . S
H869 C879 0.930 . S
C870 H864 0.930 . S
C870 C871 1.355 . S
C870 C872 1.415 . S
C871 C870 1.355 . S
C871 C873 1.419 . S
C872 C870 1.415 . S
C872 C877 1.425 . S
C872 C879 1.409 . S
C873 H865 0.930 . S
C873 C871 1.419 . S
C873 C874 1.362 . S
C874 H866 0.930 . S
C874 C873 1.362 . S
C874 C877 1.409 . S
C875 H867 0.930 . S
C875 C876 1.355 . S
C875 C877 1.415 . S
C876 C875 1.355 . S
C876 C878 1.419 . S
C877 C872 1.425 . S
C877 C874 1.409 . S
C877 C875 1.415 . S
C878 H868 0.930 . S
C878 C876 1.419 . S
C878 C879 1.362 . S
C879 H869 0.930 . S
C879 C872 1.409 . S
C879 C878 1.362 . S
H880 C886 0.930 . S
H881 C889 0.930 . S
H882 C890 0.930 . S
H883 C891 0.930 . S
H884 C894 0.930 . S
H885 C895 0.930 . S
C886 H880 0.930 . S
C886 C887 1.355 . S
C886 C888 1.415 . S
C887 C886 1.355 . S
C887 C889 1.419 . S
C888 C886 1.415 . S
C888 C893 1.425 . S
C888 C895 1.409 . S
C889 H881 0.930 . S
C889 C887 1.419 . S
C889 C890 1.362 . S
C890 H882 0.930 . S
C890 C889 1.362 . S
C890 C893 1.409 . S
C891 H883 0.930 . S
C891 C892 1.355 . S
C891 C893 1.415 . S
C892 C891 1.355 . S
C892 C894 1.419 . S
C893 C888 1.425 . S
C893 C890 1.409 . S
C893 C891 1.415 . S
C894 H884 0.930 . S
C894 C892 1.419 . S
C894 C895 1.362 . S
C895 H885 0.930 . S
C895 C888 1.409 . S
C895 C894 1.362 . S
H896 C902 0.930 . S
H897 C905 0.930 . S
H898 C906 0.930 . S
H899 C907 0.930 . S
H900 C910 0.930 . S
H901 C911 0.930 . S
C902 H896 0.930 . S
C902 C903 1.355 . S
C902 C904 1.415 . S
C903 C902 1.355 . S
C903 C905 1.419 . S
C904 C902 1.415 . S
C904 C909 1.425 1_556 S
C904 C911 1.409 . S
C905 H897 0.930 . S
C905 C903 1.419 . S
C905 C906 1.362 1_556 S
C906 H898 0.930 . S
C906 C905 1.362 1_554 S
C906 C909 1.409 . S
C907 H899 0.930 . S
C907 C908 1.355 . S
C907 C909 1.415 . S
C908 C907 1.355 . S
C908 C910 1.419 1_554 S
C909 C904 1.425 1_554 S
C909 C906 1.409 . S
C909 C907 1.415 . S
C910 H900 0.930 . S
C910 C908 1.419 1_556 S
C910 C911 1.362 . S
C911 H901 0.930 . S
C911 C904 1.409 . S
C911 C910 1.362 . S
H912 C918 0.930 . S
H913 C921 0.930 . S
H914 C922 0.930 . S
H915 C923 0.930 . S
H916 C926 0.930 . S
H917 C927 0.930 . S
C918 H912 0.930 . S
C918 C919 1.355 . S
C918 C920 1.415 . S
C919 C918 1.355 . S
C919 C921 1.419 . S
C920 C918 1.415 . S
C920 C925 1.425 . S
C920 C927 1.409 . S
C921 H913 0.930 . S
C921 C919 1.419 . S
C921 C922 1.362 . S
C922 H914 0.930 . S
C922 C921 1.362 . S
C922 C925 1.409 . S
C923 H915 0.930 . S
C923 C924 1.355 . S
C923 C925 1.415 . S
C924 C923 1.355 . S
C924 C926 1.419 . S
C925 C920 1.425 . S
C925 C922 1.409 . S
C925 C923 1.415 . S
C926 H916 0.930 . S
C926 C924 1.419 . S
C926 C927 1.362 . S
C927 H917 0.930 . S
C927 C920 1.409 . S
C927 C926 1.362 . S
H928 C934 0.930 . S
H929 C937 0.930 . S
H930 C938 0.930 1_554 S
H931 C939 0.930 . S
H932 C942 0.930 . S
H933 C943 0.930 . S
C934 H928 0.930 . S
C934 C935 1.355 . S
C934 C936 1.415 . S
C935 C934 1.355 . S
C935 C937 1.419 . S
C936 C934 1.415 . S
C936 C941 1.425 1_556 S
C936 C943 1.409 . S
C937 H929 0.930 . S
C937 C935 1.419 . S
C937 C938 1.362 . S
C938 H930 0.930 1_556 S
C938 C937 1.362 . S
C938 C941 1.409 1_556 S
C939 H931 0.930 . S
C939 C940 1.355 . S
C939 C941 1.415 . S
C940 C939 1.355 . S
C940 C942 1.419 . S
C941 C936 1.425 1_554 S
C941 C938 1.409 1_554 S
C941 C939 1.415 . S
C942 H932 0.930 . S
C942 C940 1.419 . S
C942 C943 1.362 1_554 S
C943 H933 0.930 . S
C943 C936 1.409 . S
C943 C942 1.362 1_556 S
H944 C950 0.930 . S
H945 C953 0.930 1_455 S
H946 C954 0.930 . S
H947 C955 0.930 . S
H948 C958 0.930 . S
H949 C959 0.930 . S
C950 H944 0.930 . S
C950 C951 1.355 . S
C950 C952 1.415 . S
C951 C950 1.355 . S
C951 C953 1.419 . S
C952 C950 1.415 . S
C952 C957 1.425 . S
C952 C959 1.409 . S
C953 H945 0.930 1_655 S
C953 C951 1.419 . S
C953 C954 1.362 . S
C954 H946 0.930 . S
C954 C953 1.362 . S
C954 C957 1.409 . S
C955 H947 0.930 . S
C955 C956 1.355 . S
C955 C957 1.415 . S
C956 C955 1.355 . S
C956 C958 1.419 . S
C957 C952 1.425 . S
C957 C954 1.409 . S
C957 C955 1.415 . S
C958 H948 0.930 . S
C958 C956 1.419 . S
C958 C959 1.362 . S
C959 H949 0.930 . S
C959 C952 1.409 . S
C959 C958 1.362 . S
H960 C966 0.930 . S
H961 C969 0.930 . S
H962 C970 0.930 . S
H963 C971 0.930 . S
H964 C974 0.930 . S
H965 C975 0.930 . S
C966 H960 0.930 . S
C966 C967 1.355 . S
C966 C968 1.415 . S
C967 C966 1.355 . S
C967 C969 1.419 . S
C968 C966 1.415 . S
C968 C973 1.425 . S
C968 C975 1.409 . S
C969 H961 0.930 . S
C969 C967 1.419 . S
C969 C970 1.362 . S
C970 H962 0.930 . S
C970 C969 1.362 . S
C970 C973 1.409 . S
C971 H963 0.930 . S
C971 C972 1.355 . S
C971 C973 1.415 . S
C972 C971 1.355 . S
C972 C974 1.419 . S
C973 C968 1.425 . S
C973 C970 1.409 . S
C973 C971 1.415 . S
C974 H964 0.930 . S
C974 C972 1.419 . S
C974 C975 1.362 . S
C975 H965 0.930 . S
C975 C968 1.409 . S
C975 C974 1.362 . S
H976 C982 0.930 . S
H977 C985 0.930 . S
H978 C986 0.930 . S
H979 C987 0.930 . S
H980 C990 0.930 . S
H981 C991 0.930 . S
C982 H976 0.930 . S
C982 C983 1.355 . S
C982 C984 1.415 . S
C983 C982 1.355 . S
C983 C985 1.419 . S
C984 C982 1.415 . S
C984 C989 1.425 . S
C984 C991 1.409 . S
C985 H977 0.930 . S
C985 C983 1.419 . S
C985 C986 1.362 . S
C986 H978 0.930 . S
C986 C985 1.362 . S
C986 C989 1.409 . S
C987 H979 0.930 . S
C987 C988 1.355 . S
C987 C989 1.415 . S
C988 C987 1.355 . S
C988 C990 1.419 . S
C989 C984 1.425 . S
C989 C986 1.409 . S
C989 C987 1.415 . S
C990 H980 0.930 . S
C990 C988 1.419 . S
C990 C991 1.362 . S
C991 H981 0.930 . S
C991 C984 1.409 . S
C991 C990 1.362 . S
H992 C998 0.930 . S
H993 C1001 0.930 . S
H994 C1002 0.930 . S
H995 C1003 0.930 . S
H996 C1006 0.930 . S
H997 C1007 0.930 . S
C998 H992 0.930 . S
C998 C999 1.355 . S
C998 C1000 1.415 . S
C999 C998 1.355 . S
C999 C1001 1.419 . S
C1000 C998 1.415 . S
C1000 C1005 1.425 . S
C1000 C1007 1.409 . S
C1001 H993 0.930 . S
C1001 C999 1.419 . S
C1001 C1002 1.362 . S
C1002 H994 0.930 . S
C1002 C1001 1.362 . S
C1002 C1005 1.409 . S
C1003 H995 0.930 . S
C1003 C1004 1.355 . S
C1003 C1005 1.415 . S
C1004 C1003 1.355 . S
C1004 C1006 1.419 . S
C1005 C1000 1.425 . S
C1005 C1002 1.409 . S
C1005 C1003 1.415 . S
C1006 H996 0.930 . S
C1006 C1004 1.419 . S
C1006 C1007 1.362 . S
C1007 H997 0.930 . S
C1007 C1000 1.409 . S
C1007 C1006 1.362 . S
H1008 C1014 0.930 . S
H1009 C1017 0.930 1_554 S
H1010 C1018 0.930 . S
H1011 C1019 0.930 . S
H1012 C1022 0.930 . S
H1013 C1023 0.930 . S
C1014 H1008 0.930 . S
C1014 C1015 1.355 . S
C1014 C1016 1.415 . S
C1015 C1014 1.355 . S
C1015 C1017 1.419 . S
C1016 C1014 1.415 . S
C1016 C1021 1.425 . S
C1016 C1023 1.409 . S
C1017 H1009 0.930 1_556 S
C1017 C1015 1.419 . S
C1017 C1018 1.362 . S
C1018 H1010 0.930 . S
C1018 C1017 1.362 . S
C1018 C1021 1.409 . S
C1019 H1011 0.930 . S
C1019 C1020 1.355 . S
C1019 C1021 1.415 . S
C1020 C1019 1.355 . S
C1020 C1022 1.419 . S
C1021 C1016 1.425 . S
C1021 C1018 1.409 . S
C1021 C1019 1.415 . S
C1022 H1012 0.930 . S
C1022 C1020 1.419 . S
C1022 C1023 1.362 . S
C1023 H1013 0.930 . S
C1023 C1016 1.409 . S
C1023 C1022 1.362 . S
H1024 C1030 0.930 . S
H1025 C1033 0.930 . S
H1026 C1034 0.930 . S
H1027 C1035 0.930 . S
H1028 C1038 0.930 . S
H1029 C1039 0.930 . S
C1030 H1024 0.930 . S
C1030 C1031 1.355 . S
C1030 C1032 1.415 1_556 S
C1031 C1030 1.355 . S
C1031 C1033 1.419 . S
C1032 C1030 1.415 1_554 S
C1032 C1037 1.425 . S
C1032 C1039 1.409 . S
C1033 H1025 0.930 . S
C1033 C1031 1.419 . S
C1033 C1034 1.362 . S
C1034 H1026 0.930 . S
C1034 C1033 1.362 . S
C1034 C1037 1.409 1_556 S
C1035 H1027 0.930 . S
C1035 C1036 1.355 . S
C1035 C1037 1.415 . S
C1036 C1035 1.355 . S
C1036 C1038 1.419 . S
C1037 C1032 1.425 . S
C1037 C1034 1.409 1_554 S
C1037 C1035 1.415 . S
C1038 H1028 0.930 . S
C1038 C1036 1.419 . S
C1038 C1039 1.362 . S
C1039 H1029 0.930 . S
C1039 C1032 1.409 . S
C1039 C1038 1.362 . S
H1040 C1046 0.930 . S
H1041 C1049 0.930 . S
H1042 C1050 0.929 . S
H1043 C1051 0.930 . S
H1044 C1054 0.930 . S
H1045 C1055 0.930 . S
C1046 H1040 0.930 . S
C1046 C1047 1.355 1_455 S
C1046 C1048 1.415 . S
C1047 C1046 1.355 1_655 S
C1047 C1049 1.419 . S
C1048 C1046 1.415 . S
C1048 C1053 1.425 . S
C1048 C1055 1.409 . S
C1049 H1041 0.930 . S
C1049 C1047 1.419 . S
C1049 C1050 1.362 1_655 S
C1050 H1042 0.929 . S
C1050 C1049 1.362 1_455 S
C1050 C1053 1.409 . S
C1051 H1043 0.930 . S
C1051 C1052 1.355 . S
C1051 C1053 1.415 . S
C1052 C1051 1.355 . S
C1052 C1054 1.419 . S
C1053 C1048 1.425 . S
C1053 C1050 1.409 . S
C1053 C1051 1.415 . S
C1054 H1044 0.930 . S
C1054 C1052 1.419 . S
C1054 C1055 1.362 . S
C1055 H1045 0.930 . S
C1055 C1048 1.409 . S
C1055 C1054 1.362 . S
H1056 C1062 0.930 . S
H1057 C1065 0.930 . S
H1058 C1066 0.930 . S
H1059 C1067 0.930 . S
H1060 C1070 0.930 . S
H1061 C1071 0.930 . S
C1062 H1056 0.930 . S
C1062 C1063 1.355 . S
C1062 C1064 1.415 . S
C1063 C1062 1.355 . S
C1063 C1065 1.419 . S
C1064 C1062 1.415 . S
C1064 C1069 1.425 . S
C1064 C1071 1.409 1_554 S
C1065 H1057 0.930 . S
C1065 C1063 1.419 . S
C1065 C1066 1.362 . S
C1066 H1058 0.930 . S
C1066 C1065 1.362 . S
C1066 C1069 1.409 . S
C1067 H1059 0.930 . S
C1067 C1068 1.355 . S
C1067 C1069 1.415 1_556 S
C1068 C1067 1.355 . S
C1068 C1070 1.419 . S
C1069 C1064 1.425 . S
C1069 C1066 1.409 . S
C1069 C1067 1.415 1_554 S
C1070 H1060 0.930 . S
C1070 C1068 1.419 . S
C1070 C1071 1.362 . S
C1071 H1061 0.930 . S
C1071 C1064 1.409 1_556 S
C1071 C1070 1.362 . S
H1072 C1078 0.930 . S
H1073 C1081 0.930 . S
H1074 C1082 0.930 . S
H1075 C1083 0.930 1_554 S
H1076 C1086 0.930 1_655 S
H1077 C1087 0.930 . S
C1078 H1072 0.930 . S
C1078 C1079 1.355 . S
C1078 C1080 1.415 . S
C1079 C1078 1.355 . S
C1079 C1081 1.419 . S
C1080 C1078 1.415 . S
C1080 C1085 1.425 . S
C1080 C1087 1.409 . S
C1081 H1073 0.930 . S
C1081 C1079 1.419 . S
C1081 C1082 1.362 . S
C1082 H1074 0.930 . S
C1082 C1081 1.362 . S
C1082 C1085 1.409 . S
C1083 H1075 0.930 1_556 S
C1083 C1084 1.355 . S
C1083 C1085 1.415 . S
C1084 C1083 1.355 . S
C1084 C1086 1.419 . S
C1085 C1080 1.425 . S
C1085 C1082 1.409 . S
C1085 C1083 1.415 . S
C1086 H1076 0.930 1_455 S
C1086 C1084 1.419 . S
C1086 C1087 1.362 . S
C1087 H1077 0.930 . S
C1087 C1080 1.409 . S
C1087 C1086 1.362 . S
H1088 C1094 0.930 . S
H1089 C1097 0.930 . S
H1090 C1098 0.930 . S
H1091 C1099 0.930 . S
H1092 C1102 0.930 . S
H1093 C1103 0.930 . S
C1094 H1088 0.930 . S
C1094 C1095 1.355 . S
C1094 C1096 1.415 . S
C1095 C1094 1.355 . S
C1095 C1097 1.419 . S
C1096 C1094 1.415 . S
C1096 C1101 1.425 . S
C1096 C1103 1.409 . S
C1097 H1089 0.930 . S
C1097 C1095 1.419 . S
C1097 C1098 1.362 . S
C1098 H1090 0.930 . S
C1098 C1097 1.362 . S
C1098 C1101 1.409 . S
C1099 H1091 0.930 . S
C1099 C1100 1.355 . S
C1099 C1101 1.415 . S
C1100 C1099 1.355 . S
C1100 C1102 1.419 . S
C1101 C1096 1.425 . S
C1101 C1098 1.409 . S
C1101 C1099 1.415 . S
C1102 H1092 0.930 . S
C1102 C1100 1.419 . S
C1102 C1103 1.362 . S
C1103 H1093 0.930 . S
C1103 C1096 1.409 . S
C1103 C1102 1.362 . S
H1104 C1110 0.930 . S
H1105 C1113 0.930 . S
H1106 C1114 0.930 . S
H1107 C1115 0.930 . S
H1108 C1118 0.930 . S
H1109 C1119 0.930 . S
C1110 H1104 0.930 . S
C1110 C1111 1.355 . S
C1110 C1112 1.415 . S
C1111 C1110 1.355 . S
C1111 C1113 1.419 . S
C1112 C1110 1.415 . S
C1112 C1117 1.425 . S
C1112 C1119 1.409 . S
C1113 H1105 0.930 . S
C1113 C1111 1.419 . S
C1113 C1114 1.362 . S
C1114 H1106 0.930 . S
C1114 C1113 1.362 . S
C1114 C1117 1.409 . S
C1115 H1107 0.930 . S
C1115 C1116 1.355 . S
C1115 C1117 1.415 . S
C1116 C1115 1.355 . S
C1116 C1118 1.419 . S
C1117 C1112 1.425 . S
C1117 C1114 1.409 . S
C1117 C1115 1.415 . S
C1118 H1108 0.930 . S
C1118 C1116 1.419 . S
C1118 C1119 1.362 . S
C1119 H1109 0.930 . S
C1119 C1112 1.409 . S
C1119 C1118 1.362 . S
H1120 C1126 0.930 . S
H1121 C1129 0.930 . S
H1122 C1130 0.930 . S
H1123 C1131 0.930 . S
H1124 C1134 0.930 . S
H1125 C1135 0.930 . S
C1126 H1120 0.930 . S
C1126 C1127 1.355 . S
C1126 C1128 1.415 . S
C1127 C1126 1.355 . S
C1127 C1129 1.419 . S
C1128 C1126 1.415 . S
C1128 C1133 1.425 . S
C1128 C1135 1.409 . S
C1129 H1121 0.930 . S
C1129 C1127 1.419 . S
C1129 C1130 1.362 . S
C1130 H1122 0.930 . S
C1130 C1129 1.362 . S
C1130 C1133 1.409 . S
C1131 H1123 0.930 . S
C1131 C1132 1.355 . S
C1131 C1133 1.415 . S
C1132 C1131 1.355 . S
C1132 C1134 1.419 . S
C1133 C1128 1.425 . S
C1133 C1130 1.409 . S
C1133 C1131 1.415 . S
C1134 H1124 0.930 . S
C1134 C1132 1.419 . S
C1134 C1135 1.362 . S
C1135 H1125 0.930 . S
C1135 C1128 1.409 . S
C1135 C1134 1.362 . S
H1136 C1142 0.930 . S
H1137 C1145 0.930 . S
H1138 C1146 0.930 . S
H1139 C1147 0.930 . S
H1140 C1150 0.930 . S
H1141 C1151 0.930 . S
C1142 H1136 0.930 . S
C1142 C1143 1.355 . S
C1142 C1144 1.415 . S
C1143 C1142 1.355 . S
C1143 C1145 1.419 . S
C1144 C1142 1.415 . S
C1144 C1149 1.425 . S
C1144 C1151 1.409 . S
C1145 H1137 0.930 . S
C1145 C1143 1.419 . S
C1145 C1146 1.362 . S
C1146 H1138 0.930 . S
C1146 C1145 1.362 . S
C1146 C1149 1.409 . S
C1147 H1139 0.930 . S
C1147 C1148 1.355 . S
C1147 C1149 1.415 . S
C1148 C1147 1.355 . S
C1148 C1150 1.419 . S
C1149 C1144 1.425 . S
C1149 C1146 1.409 . S
C1149 C1147 1.415 . S
C1150 H1140 0.930 . S
C1150 C1148 1.419 . S
C1150 C1151 1.362 . S
C1151 H1141 0.930 . S
C1151 C1144 1.409 . S
C1151 C1150 1.362 . S
H1152 C1158 0.930 . S
H1153 C1161 0.930 . S
H1154 C1162 0.930 . S
H1155 C1163 0.930 . S
H1156 C1166 0.930 . S
H1157 C1167 0.930 1_554 S
C1158 H1152 0.930 . S
C1158 C1159 1.355 . S
C1158 C1160 1.415 . S
C1159 C1158 1.355 . S
C1159 C1161 1.419 . S
C1160 C1158 1.415 . S
C1160 C1165 1.425 1_554 S
C1160 C1167 1.409 1_554 S
C1161 H1153 0.930 . S
C1161 C1159 1.419 . S
C1161 C1162 1.362 1_554 S
C1162 H1154 0.930 . S
C1162 C1161 1.362 1_556 S
C1162 C1165 1.409 . S
C1163 H1155 0.930 . S
C1163 C1164 1.355 . S
C1163 C1165 1.415 . S
C1164 C1163 1.355 . S
C1164 C1166 1.419 . S
C1165 C1160 1.425 1_556 S
C1165 C1162 1.409 . S
C1165 C1163 1.415 . S
C1166 H1156 0.930 . S
C1166 C1164 1.419 . S
C1166 C1167 1.362 . S
C1167 H1157 0.930 1_556 S
C1167 C1160 1.409 1_556 S
C1167 C1166 1.362 . S
H1168 C1174 0.930 . S
H1169 C1177 0.930 . S
H1170 C1178 0.930 . S
H1171 C1179 0.930 . S
H1172 C1182 0.930 . S
H1173 C1183 0.930 . S
C1174 H1168 0.930 . S
C1174 C1175 1.355 . S
C1174 C1176 1.415 . S
C1175 C1174 1.355 . S
C1175 C1177 1.419 . S
C1176 C1174 1.415 . S
C1176 C1181 1.425 . S
C1176 C1183 1.409 . S
C1177 H1169 0.930 . S
C1177 C1175 1.419 . S
C1177 C1178 1.362 . S
C1178 H1170 0.930 . S
C1178 C1177 1.362 . S
C1178 C1181 1.409 . S
C1179 H1171 0.930 . S
C1179 C1180 1.355 1_655 S
C1179 C1181 1.415 . S
C1180 C1179 1.355 1_455 S
C1180 C1182 1.419 . S
C1181 C1176 1.425 . S
C1181 C1178 1.409 . S
C1181 C1179 1.415 . S
C1182 H1172 0.930 . S
C1182 C1180 1.419 . S
C1182 C1183 1.362 1_455 S
C1183 H1173 0.930 . S
C1183 C1176 1.409 . S
C1183 C1182 1.362 1_655 S
H1184 C1190 0.930 . S
H1185 C1193 0.930 . S
H1186 C1194 0.930 . S
H1187 C1195 0.930 . S
H1188 C1198 0.930 . S
H1189 C1199 0.930 . S
C1190 H1184 0.930 . S
C1190 C1191 1.355 . S
C1190 C1192 1.415 . S
C1191 C1190 1.355 . S
C1191 C1193 1.419 . S
C1192 C1190 1.415 . S
C1192 C1197 1.425 . S
C1192 C1199 1.409 . S
C1193 H1185 0.930 . S
C1193 C1191 1.419 . S
C1193 C1194 1.362 . S
C1194 H1186 0.930 . S
C1194 C1193 1.362 . S
C1194 C1197 1.409 . S
C1195 H1187 0.930 . S
C1195 C1196 1.355 . S
C1195 C1197 1.415 . S
C1196 C1195 1.355 . S
C1196 C1198 1.419 . S
C1197 C1192 1.425 . S
C1197 C1194 1.409 . S
C1197 C1195 1.415 . S
C1198 H1188 0.930 . S
C1198 C1196 1.419 . S
C1198 C1199 1.362 . S
C1199 H1189 0.930 . S
C1199 C1192 1.409 . S
C1199 C1198 1.362 . S
H1200 C1206 0.930 . S
H1201 C1209 0.930 . S
H1202 C1210 0.930 . S
H1203 C1211 0.930 . S
H1204 C1214 0.930 . S
H1205 C1215 0.930 . S
C1206 H1200 0.930 . S
C1206 C1207 1.355 . S
C1206 C1208 1.415 . S
C1207 C1206 1.355 . S
C1207 C1209 1.419 . S
C1208 C1206 1.415 . S
C1208 C1213 1.425 . S
C1208 C1215 1.409 . S
C1209 H1201 0.930 . S
C1209 C1207 1.419 . S
C1209 C1210 1.362 . S
C1210 H1202 0.930 . S
C1210 C1209 1.362 . S
C1210 C1213 1.409 . S
C1211 H1203 0.930 . S
C1211 C1212 1.355 . S
C1211 C1213 1.415 . S
C1212 C1211 1.355 . S
C1212 C1214 1.419 . S
C1213 C1208 1.425 . S
C1213 C1210 1.409 . S
C1213 C1211 1.415 . S
C1214 H1204 0.930 . S
C1214 C1212 1.419 . S
C1214 C1215 1.362 . S
C1215 H1205 0.930 . S
C1215 C1208 1.409 . S
C1215 C1214 1.362 . S
H1216 C1222 0.930 1_554 S
H1217 C1225 0.930 . S
H1218 C1226 0.930 . S
H1219 C1227 0.930 . S
H1220 C1230 0.930 . S
H1221 C1231 0.930 . S
C1222 H1216 0.930 1_556 S
C1222 C1223 1.355 1_556 S
C1222 C1224 1.415 . S
C1223 C1222 1.355 1_554 S
C1223 C1225 1.419 1_554 S
C1224 C1222 1.415 . S
C1224 C1229 1.425 . S
C1224 C1231 1.409 . S
C1225 H1217 0.930 . S
C1225 C1223 1.419 1_556 S
C1225 C1226 1.362 . S
C1226 H1218 0.930 . S
C1226 C1225 1.362 . S
C1226 C1229 1.409 . S
C1227 H1219 0.930 . S
C1227 C1228 1.355 . S
C1227 C1229 1.415 . S
C1228 C1227 1.355 . S
C1228 C1230 1.419 . S
C1229 C1224 1.425 . S
C1229 C1226 1.409 . S
C1229 C1227 1.415 . S
C1230 H1220 0.930 . S
C1230 C1228 1.419 . S
C1230 C1231 1.362 . S
C1231 H1221 0.930 . S
C1231 C1224 1.409 . S
C1231 C1230 1.362 . S
H1232 C1238 0.930 . S
H1233 C1241 0.930 . S
H1234 C1242 0.930 . S
H1235 C1243 0.930 . S
H1236 C1246 0.930 . S
H1237 C1247 0.930 . S
C1238 H1232 0.930 . S
C1238 C1239 1.355 . S
C1238 C1240 1.415 . S
C1239 C1238 1.355 . S
C1239 C1241 1.419 . S
C1240 C1238 1.415 . S
C1240 C1245 1.425 1_455 S
C1240 C1247 1.409 . S
C1241 H1233 0.930 . S
C1241 C1239 1.419 . S
C1241 C1242 1.362 . S
C1242 H1234 0.930 . S
C1242 C1241 1.362 . S
C1242 C1245 1.409 1_455 S
C1243 H1235 0.930 . S
C1243 C1244 1.355 . S
C1243 C1245 1.415 . S
C1244 C1243 1.355 . S
C1244 C1246 1.419 . S
C1245 C1240 1.425 1_655 S
C1245 C1242 1.409 1_655 S
C1245 C1243 1.415 . S
C1246 H1236 0.930 . S
C1246 C1244 1.419 . S
C1246 C1247 1.362 1_655 S
C1247 H1237 0.930 . S
C1247 C1240 1.409 . S
C1247 C1246 1.362 1_455 S
H1248 C1254 0.930 . S
H1249 C1257 0.930 . S
H1250 C1258 0.930 . S
H1251 C1259 0.930 . S
H1252 C1262 0.930 . S
H1253 C1263 0.930 . S
C1254 H1248 0.930 . S
C1254 C1255 1.355 . S
C1254 C1256 1.415 . S
C1255 C1254 1.355 . S
C1255 C1257 1.419 . S
C1256 C1254 1.415 . S
C1256 C1261 1.425 . S
C1256 C1263 1.409 . S
C1257 H1249 0.930 . S
C1257 C1255 1.419 . S
C1257 C1258 1.362 1_554 S
C1258 H1250 0.930 . S
C1258 C1257 1.362 1_556 S
C1258 C1261 1.409 1_556 S
C1259 H1251 0.930 . S
C1259 C1260 1.355 . S
C1259 C1261 1.415 1_556 S
C1260 C1259 1.355 . S
C1260 C1262 1.419 1_556 S
C1261 C1256 1.425 . S
C1261 C1258 1.409 1_554 S
C1261 C1259 1.415 1_554 S
C1262 H1252 0.930 . S
C1262 C1260 1.419 1_554 S
C1262 C1263 1.362 . S
C1263 H1253 0.930 . S
C1263 C1256 1.409 . S
C1263 C1262 1.362 . S
H1264 C1270 0.930 . S
H1265 C1273 0.930 . S
H1266 C1274 0.930 . S
H1267 C1275 0.930 . S
H1268 C1278 0.930 . S
H1269 C1279 0.930 . S
C1270 H1264 0.930 . S
C1270 C1271 1.355 . S
C1270 C1272 1.415 . S
C1271 C1270 1.355 . S
C1271 C1273 1.419 . S
C1272 C1270 1.415 . S
C1272 C1277 1.425 1_655 S
C1272 C1279 1.409 . S
C1273 H1265 0.930 . S
C1273 C1271 1.419 . S
C1273 C1274 1.362 1_655 S
C1274 H1266 0.930 . S
C1274 C1273 1.362 1_455 S
C1274 C1277 1.409 . S
C1275 H1267 0.930 . S
C1275 C1276 1.355 . S
C1275 C1277 1.415 . S
C1276 C1275 1.355 . S
C1276 C1278 1.419 . S
C1277 C1272 1.425 1_455 S
C1277 C1274 1.409 . S
C1277 C1275 1.415 . S
C1278 H1268 0.930 . S
C1278 C1276 1.419 . S
C1278 C1279 1.362 1_455 S
C1279 H1269 0.930 . S
C1279 C1272 1.409 . S
C1279 C1278 1.362 1_655 S
H1280 C1286 0.930 . S
H1281 C1289 0.930 . S
H1282 C1290 0.930 . S
H1283 C1291 0.930 . S
H1284 C1294 0.930 . S
H1285 C1295 0.930 . S
C1286 H1280 0.930 . S
C1286 C1287 1.355 . S
C1286 C1288 1.415 . S
C1287 C1286 1.355 . S
C1287 C1289 1.419 . S
C1288 C1286 1.415 . S
C1288 C1293 1.425 . S
C1288 C1295 1.409 . S
C1289 H1281 0.930 . S
C1289 C1287 1.419 . S
C1289 C1290 1.362 . S
C1290 H1282 0.930 . S
C1290 C1289 1.362 . S
C1290 C1293 1.409 . S
C1291 H1283 0.930 . S
C1291 C1292 1.355 . S
C1291 C1293 1.415 . S
C1292 C1291 1.355 . S
C1292 C1294 1.419 . S
C1293 C1288 1.425 . S
C1293 C1290 1.409 . S
C1293 C1291 1.415 . S
C1294 H1284 0.930 . S
C1294 C1292 1.419 . S
C1294 C1295 1.362 . S
C1295 H1285 0.930 . S
C1295 C1288 1.409 . S
C1295 C1294 1.362 . S
H1296 C1302 0.930 . S
H1297 C1305 0.930 . S
H1298 C1306 0.930 . S
H1299 C1307 0.930 . S
H1300 C1310 0.930 . S
H1301 C1311 0.930 . S
C1302 H1296 0.930 . S
C1302 C1303 1.355 . S
C1302 C1304 1.415 . S
C1303 C1302 1.355 . S
C1303 C1305 1.419 . S
C1304 C1302 1.415 . S
C1304 C1309 1.425 . S
C1304 C1311 1.409 . S
C1305 H1297 0.930 . S
C1305 C1303 1.419 . S
C1305 C1306 1.362 . S
C1306 H1298 0.930 . S
C1306 C1305 1.362 . S
C1306 C1309 1.409 . S
C1307 H1299 0.930 . S
C1307 C1308 1.355 . S
C1307 C1309 1.415 . S
C1308 C1307 1.355 . S
C1308 C1310 1.419 . S
C1309 C1304 1.425 . S
C1309 C1306 1.409 . S
C1309 C1307 1.415 . S
C1310 H1300 0.930 . S
C1310 C1308 1.419 . S
C1310 C1311 1.362 . S
C1311 H1301 0.930 . S
C1311 C1304 1.409 . S
C1311 C1310 1.362 . S
H1312 C1318 0.930 . S
H1313 C1321 0.930 . S
H1314 C1322 0.930 . S
H1315 C1323 0.930 . S
H1316 C1326 0.930 . S
H1317 C1327 0.930 . S
C1318 H1312 0.930 . S
C1318 C1319 1.355 . S
C1318 C1320 1.415 . S
C1319 C1318 1.355 . S
C1319 C1321 1.419 . S
C1320 C1318 1.415 . S
C1320 C1325 1.425 . S
C1320 C1327 1.409 . S
C1321 H1313 0.930 . S
C1321 C1319 1.419 . S
C1321 C1322 1.362 . S
C1322 H1314 0.930 . S
C1322 C1321 1.362 . S
C1322 C1325 1.409 . S
C1323 H1315 0.930 . S
C1323 C1324 1.355 . S
C1323 C1325 1.415 . S
C1324 C1323 1.355 . S
C1324 C1326 1.419 . S
C1325 C1320 1.425 . S
C1325 C1322 1.409 . S
C1325 C1323 1.415 . S
C1326 H1316 0.930 . S
C1326 C1324 1.419 . S
C1326 C1327 1.362 . S
C1327 H1317 0.930 . S
C1327 C1320 1.409 . S
C1327 C1326 1.362 . S
H1328 C1334 0.930 . S
H1329 C1337 0.930 . S
H1330 C1338 0.930 . S
H1331 C1339 0.930 . S
H1332 C1342 0.930 . S
H1333 C1343 0.930 . S
C1334 H1328 0.930 . S
C1334 C1335 1.355 . S
C1334 C1336 1.415 . S
C1335 C1334 1.355 . S
C1335 C1337 1.419 . S
C1336 C1334 1.415 . S
C1336 C1341 1.425 . S
C1336 C1343 1.409 . S
C1337 H1329 0.930 . S
C1337 C1335 1.419 . S
C1337 C1338 1.362 . S
C1338 H1330 0.930 . S
C1338 C1337 1.362 . S
C1338 C1341 1.409 . S
C1339 H1331 0.930 . S
C1339 C1340 1.355 . S
C1339 C1341 1.415 . S
C1340 C1339 1.355 . S
C1340 C1342 1.419 . S
C1341 C1336 1.425 . S
C1341 C1338 1.409 . S
C1341 C1339 1.415 . S
C1342 H1332 0.930 . S
C1342 C1340 1.419 . S
C1342 C1343 1.362 . S
C1343 H1333 0.930 . S
C1343 C1336 1.409 . S
C1343 C1342 1.362 . S
H1344 C1350 0.930 . S
H1345 C1353 0.930 . S
H1346 C1354 0.930 . S
H1347 C1355 0.930 . S
H1348 C1358 0.930 . S
H1349 C1359 0.930 . S
C1350 H1344 0.930 . S
C1350 C1351 1.355 . S
C1350 C1352 1.415 . S
C1351 C1350 1.355 . S
C1351 C1353 1.419 . S
C1352 C1350 1.415 . S
C1352 C1357 1.425 . S
C1352 C1359 1.409 . S
C1353 H1345 0.930 . S
C1353 C1351 1.419 . S
C1353 C1354 1.362 . S
C1354 H1346 0.930 . S
C1354 C1353 1.362 . S
C1354 C1357 1.409 . S
C1355 H1347 0.930 . S
C1355 C1356 1.355 . S
C1355 C1357 1.415 1_556 S
C1356 C1355 1.355 . S
C1356 C1358 1.419 1_556 S
C1357 C1352 1.425 . S
C1357 C1354 1.409 . S
C1357 C1355 1.415 1_554 S
C1358 H1348 0.930 . S
C1358 C1356 1.419 1_554 S
C1358 C1359 1.362 . S
C1359 H1349 0.930 . S
C1359 C1352 1.409 . S
C1359 C1358 1.362 . S
H1360 C1366 0.930 . S
H1361 C1369 0.930 . S
H1362 C1370 0.930 . S
H1363 C1371 0.930 . S
H1364 C1374 0.930 . S
H1365 C1375 0.930 1_455 S
C1366 H1360 0.930 . S
C1366 C1367 1.355 . S
C1366 C1368 1.415 . S
C1367 C1366 1.355 . S
C1367 C1369 1.419 . S
C1368 C1366 1.415 . S
C1368 C1373 1.425 1_455 S
C1368 C1375 1.409 1_455 S
C1369 H1361 0.930 . S
C1369 C1367 1.419 . S
C1369 C1370 1.362 1_455 S
C1370 H1362 0.930 . S
C1370 C1369 1.362 1_655 S
C1370 C1373 1.409 . S
C1371 H1363 0.930 . S
C1371 C1372 1.355 . S
C1371 C1373 1.415 . S
C1372 C1371 1.355 . S
C1372 C1374 1.419 . S
C1373 C1368 1.425 1_655 S
C1373 C1370 1.409 . S
C1373 C1371 1.415 . S
C1374 H1364 0.930 . S
C1374 C1372 1.419 . S
C1374 C1375 1.362 . S
C1375 H1365 0.930 1_655 S
C1375 C1368 1.409 1_655 S
C1375 C1374 1.362 . S
H1376 C1382 0.930 . S
H1377 C1385 0.930 . S
H1378 C1386 0.930 . S
H1379 C1387 0.930 . S
H1380 C1390 0.930 . S
H1381 C1391 0.930 . S
C1382 H1376 0.930 . S
C1382 C1383 1.355 . S
C1382 C1384 1.415 . S
C1383 C1382 1.355 . S
C1383 C1385 1.419 . S
C1384 C1382 1.415 . S
C1384 C1389 1.425 . S
C1384 C1391 1.409 1_556 S
C1385 H1377 0.930 . S
C1385 C1383 1.419 . S
C1385 C1386 1.362 . S
C1386 H1378 0.930 . S
C1386 C1385 1.362 . S
C1386 C1389 1.409 . S
C1387 H1379 0.930 . S
C1387 C1388 1.355 1_556 S
C1387 C1389 1.415 . S
C1388 C1387 1.355 1_554 S
C1388 C1390 1.419 . S
C1389 C1384 1.425 . S
C1389 C1386 1.409 . S
C1389 C1387 1.415 . S
C1390 H1380 0.930 . S
C1390 C1388 1.419 . S
C1390 C1391 1.362 . S
C1391 H1381 0.930 . S
C1391 C1384 1.409 1_554 S
C1391 C1390 1.362 . S
H1392 C1398 0.930 . S
H1393 C1401 0.930 . S
H1394 C1402 0.930 . S
H1395 C1403 0.930 . S
H1396 C1406 0.930 . S
H1397 C1407 0.933 . S
C1398 H1392 0.930 . S
C1398 C1399 1.355 . S
C1398 C1400 1.415 . S
C1399 C1398 1.355 . S
C1399 C1401 1.419 . S
C1400 C1398 1.415 . S
C1400 C1405 1.425 1_655 S
C1400 C1407 1.410 . S
C1401 H1393 0.930 . S
C1401 C1399 1.419 . S
C1401 C1402 1.362 1_655 S
C1402 H1394 0.930 . S
C1402 C1401 1.362 1_455 S
C1402 C1405 1.409 . S
C1403 H1395 0.930 . S
C1403 C1404 1.355 . S
C1403 C1405 1.415 . S
C1404 C1403 1.355 . S
C1404 C1406 1.419 . S
C1405 C1400 1.425 1_455 S
C1405 C1402 1.409 . S
C1405 C1403 1.415 . S
C1406 H1396 0.930 . S
C1406 C1404 1.419 . S
C1406 C1407 1.359 1_455 S
C1407 H1397 0.933 . S
C1407 C1400 1.410 . S
C1407 C1406 1.359 1_655 S
H1408 C1414 0.930 . S
H1409 C1417 0.930 . S
H1410 C1418 0.930 . S
H1411 C1419 0.930 . S
H1412 C1422 0.930 . S
H1413 C1423 0.930 . S
C1414 H1408 0.930 . S
C1414 C1415 1.355 . S
C1414 C1416 1.415 . S
C1415 C1414 1.355 . S
C1415 C1417 1.419 . S
C1416 C1414 1.415 . S
C1416 C1421 1.425 . S
C1416 C1423 1.409 . S
C1417 H1409 0.930 . S
C1417 C1415 1.419 . S
C1417 C1418 1.362 . S
C1418 H1410 0.930 . S
C1418 C1417 1.362 . S
C1418 C1421 1.409 . S
C1419 H1411 0.930 . S
C1419 C1420 1.355 . S
C1419 C1421 1.415 . S
C1420 C1419 1.355 . S
C1420 C1422 1.419 . S
C1421 C1416 1.425 . S
C1421 C1418 1.409 . S
C1421 C1419 1.415 . S
C1422 H1412 0.930 . S
C1422 C1420 1.419 . S
C1422 C1423 1.362 . S
C1423 H1413 0.930 . S
C1423 C1416 1.409 . S
C1423 C1422 1.362 . S
H1424 C1430 0.930 . S
H1425 C1433 0.930 . S
H1426 C1434 0.930 . S
H1427 C1435 0.930 . S
H1428 C1438 0.930 . S
H1429 C1439 0.930 . S
C1430 H1424 0.930 . S
C1430 C1431 1.355 . S
C1430 C1432 1.415 . S
C1431 C1430 1.355 . S
C1431 C1433 1.419 . S
C1432 C1430 1.415 . S
C1432 C1437 1.425 . S
C1432 C1439 1.409 . S
C1433 H1425 0.930 . S
C1433 C1431 1.419 . S
C1433 C1434 1.362 . S
C1434 H1426 0.930 . S
C1434 C1433 1.362 . S
C1434 C1437 1.409 . S
C1435 H1427 0.930 . S
C1435 C1436 1.355 . S
C1435 C1437 1.415 . S
C1436 C1435 1.355 . S
C1436 C1438 1.419 . S
C1437 C1432 1.425 . S
C1437 C1434 1.409 . S
C1437 C1435 1.415 . S
C1438 H1428 0.930 . S
C1438 C1436 1.419 . S
C1438 C1439 1.362 . S
C1439 H1429 0.930 . S
C1439 C1432 1.409 . S
C1439 C1438 1.362 . S
C551 C266 0.580 . S
C556 C28 0.641 . S
C567 C142 0.372 . S
C572 C40 0.490 . S
C583 C176 0.596 . S
C588 C96 0.573 . S
C599 C210 0.322 . S
C604 C108 0.417 . S
C615 C278 0.656 . S
C620 C538 0.592 . S
C631 C312 0.313 . S
C636 C436 0.399 . S
C647 C470 0.504 . S
C652 C368 0.487 . S
C663 C482 0.374 . S
C668 C402 0.458 . S
C679 C232 1.664 . S
C684 C6 1.634 . S
C695 C37 1.107 . S
C700 C244 1.297 . S
C711 C164 1.954 . S
C716 C69 1.848 . S
C727 C173 1.576 . S
C732 C105 1.585 . S
C743 C300 1.568 . S
C748 C504 1.631 . S
C759 C516 1.277 . S
C764 C309 1.217 . S
C775 C341 1.761 . S
C780 C414 1.973 . S
C791 C375 1.519 . S
C796 C443 1.580 . S
C807 C62 1.684 . S
C812 C198 1.609 . S
C823 C207 1.231 . S
C828 C74 1.281 . S
C839 C130 1.969 . S
C844 C239 1.759 . S
C855 C139 1.565 . S
C860 C1 1.639 . S
C871 C448 1.633 . S
C876 C334 1.647 . S
C887 C346 1.279 . S
C892 C479 1.173 . S
C903 C511 1.760 . S
C908 C380 1.963 . S
C919 C275 1.595 . S
C924 C409 1.521 . S
C935 C328 1.601 . S
C940 C17 1.597 . S
C951 C525 1.635 1_554 S
C956 C35 1.557 . S
C967 C71 1.722 . S
C972 C389 1.833 . S
C983 C464 1.096 . S
C988 C103 1.356 . S
C999 C532 1.483 . S
C1004 C153 1.975 . S
C1015 C396 1.661 . S
C1020 C171 2.010 . S
C1031 C221 2.201 . S
C1036 C457 2.223 . S
C1047 C255 1.737 . S
C1052 C321 1.299 . S
C1063 C56 1.596 . S
C1068 C289 1.608 . S
C1079 C307 1.576 . S
C1084 C253 1.634 1_556 S
C1095 C124 1.829 . S
C1100 C343 1.784 . S
C1111 C377 1.340 . S
C1116 C185 1.124 . S
C1127 C260 1.553 . S
C1132 C425 1.974 . S
C1143 C117 1.727 . S
C1148 C445 2.037 . S
C1159 C493 2.196 . S
C1164 C192 2.221 . S
C1175 C49 1.386 . S
C1180 C527 1.741 . S
C1191 C498 1.595 . S
C1196 C187 1.606 . S
C1207 C355 1.635 . S
C1212 C205 1.585 . S
C1223 C241 1.779 . S
C1228 C423 1.824 . S
C1239 C137 1.376 . S
C1244 C287 1.154 . S
C1255 C362 1.551 . S
C1260 C119 1.976 . S
C1271 C430 1.653 . S
C1276 C3 2.005 . S
C1287 C294 2.220 . S
C1292 C51 2.194 . S
C1303 C491 1.289 . S
C1308 C85 1.736 . S
C1319 C226 1.613 . S
C1324 C459 1.606 . S
C1335 C83 1.654 . S
C1340 C477 1.601 . S
C1351 C158 1.829 . S
C1356 C513 1.731 . S
C1367 C22 1.146 . S
C1372 C411 1.377 . S
C1383 C90 1.455 . S
C1388 C391 1.965 . S
C1399 C273 2.017 . S
C1404 C151 1.674 . S
C1415 C15 2.223 . S
C1420 C323 2.204 . S
C1431 C219 1.235 . S
C1436 C357 1.731 . S
