# Generated by pormake.
# Topology smu, (6)-cn, num edge types: 1
# Building blocks:
#     Node 0, Type 0, BuildingBlock: GEDQOX_clean_sbu_0, # of connection points: 6
#     Node 1, Type 0, BuildingBlock: GEDQOX_clean_sbu_0, # of connection points: 6
#     Node 2, Type 0, BuildingBlock: GEDQOX_clean_sbu_0, # of connection points: 6
#     Node 3, Type 0, BuildingBlock: GEDQOX_clean_sbu_0, # of connection points: 6
#     Node 4, Type 0, BuildingBlock: GEDQOX_clean_sbu_0, # of connection points: 6
#     Node 5, Type 0, BuildingBlock: GEDQOX_clean_sbu_0, # of connection points: 6
#     Edge 6, Type (0, 0), BuildingBlock: ZUJKAS_clean_linker_0, # of connection points: 2
#     Edge 7, Type (0, 0), BuildingBlock: ZUJKAS_clean_linker_0, # of connection points: 2
#     Edge 8, Type (0, 0), BuildingBlock: ZUJKAS_clean_linker_0, # of connection points: 2
#     Edge 9, Type (0, 0), BuildingBlock: ZUJKAS_clean_linker_0, # of connection points: 2
#     Edge 10, Type (0, 0), BuildingBlock: ZUJKAS_clean_linker_0, # of connection points: 2
#     Edge 11, Type (0, 0), BuildingBlock: ZUJKAS_clean_linker_0, # of connection points: 2
#     Edge 12, Type (0, 0), BuildingBlock: ZUJKAS_clean_linker_0, # of connection points: 2
#     Edge 13, Type (0, 0), BuildingBlock: ZUJKAS_clean_linker_0, # of connection points: 2
#     Edge 14, Type (0, 0), BuildingBlock: ZUJKAS_clean_linker_0, # of connection points: 2
#     Edge 15, Type (0, 0), BuildingBlock: ZUJKAS_clean_linker_0, # of connection points: 2
#     Edge 16, Type (0, 0), BuildingBlock: ZUJKAS_clean_linker_0, # of connection points: 2
#     Edge 17, Type (0, 0), BuildingBlock: ZUJKAS_clean_linker_0, # of connection points: 2
#     Edge 18, Type (0, 0), BuildingBlock: ZUJKAS_clean_linker_0, # of connection points: 2
#     Edge 19, Type (0, 0), BuildingBlock: ZUJKAS_clean_linker_0, # of connection points: 2
#     Edge 20, Type (0, 0), BuildingBlock: ZUJKAS_clean_linker_0, # of connection points: 2
#     Edge 21, Type (0, 0), BuildingBlock: ZUJKAS_clean_linker_0, # of connection points: 2
#     Edge 22, Type (0, 0), BuildingBlock: ZUJKAS_clean_linker_0, # of connection points: 2
#     Edge 23, Type (0, 0), BuildingBlock: ZUJKAS_clean_linker_0, # of connection points: 2
# Relax obj value: 0.208
# Max RMSD: 0.300
# Mean RMSD: 0.300
data_MOF--net-smu--node1-GEDQOX_clean_sbu_0--edge1-ZUJKAS_clean_linker_0
_symmetry_space_group_name_H-M    P1
_symmetry_Int_Tables_number       1
_symmetry_cell_setting            triclinic
loop_
_symmetry_equiv_pos_as_xyz
'x, y, z'
_cell_length_a     48.389455
_cell_length_b     48.279215
_cell_length_c     35.313092
_cell_angle_alpha  90.165171
_cell_angle_beta   89.833981
_cell_angle_gamma 119.80913
loop_
_atom_site_label
_atom_site_type_symbol
_atom_site_fract_x
_atom_site_fract_y
_atom_site_fract_z
_atom_type_partial_charge
Nd0 Nd 0.36446 0.13922 0.28605 0.0
Nd1 Nd 0.32527 0.06943 0.28057 0.0
C2 C 0.40926 0.20007 0.27495 0.0
C3 C 0.44283 0.22717 0.27849 0.0
C4 C 0.46239 0.23866 0.2462 0.0
C5 C 0.4915 0.26762 0.24701 0.0
C6 C 0.50249 0.28642 0.28034 0.0
C7 C 0.48357 0.27325 0.31333 0.0
C8 C 0.45425 0.24453 0.31226 0.0
C9 C 0.34185 0.10734 0.3553 0.0
C10 C 0.40342 0.10175 0.28215 0.0
C11 C 0.28125 0.0111 0.29988 0.0
C12 C 0.24597 0.99305 0.29438 0.0
C13 C 0.22586 0.99347 0.32297 0.0
C14 C 0.19276 0.97559 0.31942 0.0
C15 C 0.17866 0.95644 0.28734 0.0
C16 C 0.19858 0.95732 0.25767 0.0
C17 C 0.23189 0.97539 0.26117 0.0
C18 C 0.3279 0.08542 0.20676 0.0
C19 C 0.29235 0.11561 0.27877 0.0
O20 O 0.4033 0.17694 0.25121 0.0
O21 O 0.39021 0.19039 0.3044 0.0
O22 O 0.34126 0.13317 0.34623 0.0
O23 O 0.35421 0.09978 0.32855 0.0
O24 O 0.40377 0.12802 0.29143 0.0
O25 O 0.37629 0.07468 0.27565 0.0
O26 O 0.29205 0.03555 0.32279 0.0
O27 O 0.29965 0.01678 0.27025 0.0
O28 O 0.31206 0.05713 0.22046 0.0
O29 O 0.34269 0.10715 0.2323 0.0
O30 O 0.28901 0.08759 0.2879 0.0
O31 O 0.32014 0.13971 0.27003 0.0
H32 H 0.45446 0.22597 0.21955 0.0
H33 H 0.50432 0.27534 0.22061 0.0
H34 H 0.49042 0.28503 0.34042 0.0
H35 H 0.44004 0.23649 0.33785 0.0
H36 H 0.23568 1.00723 0.34862 0.0
H37 H 0.17815 0.97625 0.34231 0.0
H38 H 0.18848 0.94302 0.23243 0.0
H39 H 0.24656 0.97494 0.23823 0.0
Nd40 Nd 0.79558 0.66204 0.28455 0.0
Nd41 Nd 0.7676 0.70228 0.27985 0.0
C42 C 0.81149 0.61665 0.27461 0.0
C43 C 0.80399 0.5826 0.2787 0.0
C44 C 0.79273 0.56167 0.24737 0.0
C45 C 0.79225 0.53228 0.24791 0.0
C46 C 0.80275 0.52288 0.27987 0.0
C47 C 0.81207 0.54268 0.31205 0.0
C48 C 0.8128 0.57221 0.31145 0.0
C49 C 0.78616 0.68401 0.35482 0.0
C50 C 0.72046 0.62433 0.28172 0.0
C51 C 0.74764 0.74378 0.28865 0.0
C52 C 0.76577 0.77939 0.2865 0.0
C53 C 0.78984 0.79765 0.31295 0.0
C54 C 0.80673 0.83104 0.31101 0.0
C55 C 0.79999 0.84733 0.28274 0.0
C56 C 0.77662 0.82899 0.25555 0.0
C57 C 0.75983 0.79551 0.25738 0.0
C58 C 0.79129 0.70008 0.20925 0.0
C59 C 0.84402 0.73436 0.28493 0.0
O60 O 0.79581 0.62348 0.24978 0.0
O61 O 0.81988 0.63548 0.30417 0.0
O62 O 0.81268 0.68505 0.34522 0.0
O63 O 0.76672 0.67235 0.32798 0.0
O64 O 0.74536 0.62367 0.29446 0.0
O65 O 0.72214 0.65161 0.27117 0.0
O66 O 0.75437 0.73085 0.31709 0.0
O67 O 0.74363 0.72803 0.25703 0.0
O68 O 0.79916 0.72584 0.2283 0.0
O69 O 0.77606 0.67625 0.23149 0.0
O70 O 0.81957 0.73579 0.29916 0.0
O71 O 0.83996 0.7081 0.269 0.0
H72 H 0.78598 0.56877 0.22152 0.0
H73 H 0.78517 0.51761 0.22262 0.0
H74 H 0.82063 0.53619 0.33691 0.0
H75 H 0.82189 0.58763 0.336 0.0
H76 H 0.79572 0.78621 0.33538 0.0
H77 H 0.82513 0.84403 0.33183 0.0
H78 H 0.77051 0.84042 0.23338 0.0
H79 H 0.74187 0.78221 0.2362 0.0
Nd80 Nd 0.88642 0.23082 0.28606 0.0
Nd81 Nd 0.9588 0.26086 0.27595 0.0
C82 C 0.82831 0.22092 0.26998 0.0
C83 C 0.80014 0.22561 0.27529 0.0
C84 C 0.78775 0.23333 0.24364 0.0
C85 C 0.75873 0.23335 0.24558 0.0
C86 C 0.741 0.2261 0.27959 0.0
C87 C 0.7548 0.22045 0.312 0.0
C88 C 0.78357 0.21975 0.30975 0.0
C89 C 0.91624 0.23717 0.35755 0.0
C90 C 0.92452 0.30431 0.28992 0.0
C91 C 0.02031 0.28088 0.27972 0.0
C92 C 0.03681 0.26187 0.28231 0.0
C93 C 0.03285 0.2425 0.31404 0.0
C94 C 0.0482 0.2244 0.31572 0.0
C95 C 0.0675 0.22509 0.28565 0.0
C96 C 0.07075 0.24352 0.25356 0.0
C97 C 0.05554 0.26172 0.25189 0.0
C98 C 0.92884 0.23794 0.20813 0.0
C99 C 0.91238 0.18331 0.28143 0.0
O100 O 0.85449 0.24402 0.25519 0.0
O101 O 0.83351 0.20284 0.29331 0.0
O102 O 0.88534 0.22298 0.35333 0.0
O103 O 0.92766 0.24478 0.32486 0.0
O104 O 0.90607 0.27962 0.31029 0.0
O105 O 0.94855 0.30432 0.2712 0.0
O106 O 1.00359 0.28047 0.30903 0.0
O107 O 1.00587 0.27888 0.24779 0.0
O108 O 0.94748 0.22941 0.22411 0.0
O109 O 0.92112 0.25278 0.23275 0.0
O110 O 0.9398 0.20784 0.29276 0.0
O111 O 0.88865 0.18691 0.26962 0.0
H112 H 0.79991 0.23802 0.21661 0.0
H113 H 0.74983 0.2377 0.21958 0.0
H114 H 0.74334 0.21599 0.33935 0.0
H115 H 0.79248 0.21398 0.33486 0.0
H116 H 0.01808 0.24145 0.33772 0.0
H117 H 0.04548 0.21031 0.34074 0.0
H118 H 0.08562 0.24433 0.2301 0.0
H119 H 0.05858 0.27587 0.22684 0.0
Nd120 Nd 0.0747 0.32053 0.77411 0.0
Nd121 Nd 0.148 0.36243 0.78717 0.0
C122 C 1.01521 0.27357 0.76865 0.0
C123 C 0.99845 0.23841 0.77381 0.0
C124 C 0.9969 0.22387 0.80893 0.0
C125 C 0.97927 0.1905 0.81268 0.0
C126 C 0.96305 0.171 0.78135 0.0
C127 C 0.96653 0.18576 0.74595 0.0
C128 C 0.98357 0.2189 0.74241 0.0
C129 C 0.11941 0.34053 0.69612 0.0
C130 C 0.1192 0.28727 0.78522 0.0
C131 C 0.20928 0.40391 0.77421 0.0
C132 C 0.23561 0.4379 0.77726 0.0
C133 C 0.24317 0.45865 0.74612 0.0
C134 C 0.27102 0.48864 0.74576 0.0
C135 C 0.29243 0.49887 0.77643 0.0
C136 C 0.28389 0.47885 0.8085 0.0
C137 C 0.25597 0.44879 0.80886 0.0
C138 C 0.11394 0.34196 0.8576 0.0
C139 C 0.10589 0.39833 0.78246 0.0
O140 O 0.02633 0.29163 0.79888 0.0
O141 O 0.03452 0.2847 0.73969 0.0
O142 O 0.11544 0.34127 0.73227 0.0
O143 O 0.1152 0.34118 0.7329 0.0
O144 O 0.0906 0.28409 0.79078 0.0
O145 O 0.14459 0.31482 0.77743 0.0
O146 O 0.1864 0.39751 0.75008 0.0
O147 O 0.19922 0.38585 0.8045 0.0
O148 O 0.14478 0.35999 0.85503 0.0
O149 O 0.10396 0.33694 0.82433 0.0
O150 O 0.13365 0.3999 0.78482 0.0
O151 O 0.07821 0.3708 0.77946 0.0
H152 H 1.00868 0.23819 0.83366 0.0
H153 H 0.97747 0.18021 0.8404 0.0
H154 H 0.95572 0.17178 0.72073 0.0
H155 H 0.98486 0.22938 0.7149 0.0
H156 H 0.2282 0.4512 0.72117 0.0
H157 H 0.27616 0.50346 0.72086 0.0
H158 H 0.29962 0.48553 0.83269 0.0
H159 H 0.25112 0.43354 0.83329 0.0
Nd160 Nd 0.26646 0.95173 0.78022 0.0
Nd161 Nd 0.23593 0.88216 0.78595 0.0
C162 C 0.28039 1.00987 0.80106 0.0
C163 C 0.26275 0.0278 0.79655 0.0
C164 C 0.24278 0.02744 0.82593 0.0
C165 C 0.22655 0.04456 0.8228 0.0
C166 C 0.22987 0.06248 0.79027 0.0
C167 C 0.24887 0.06226 0.76028 0.0
C168 C 0.26515 0.04504 0.76333 0.0
C169 C 0.25421 0.93589 0.70632 0.0
C170 C 0.18779 0.90588 0.77432 0.0
C171 C 0.22441 0.82265 0.77358 0.0
C172 C 0.23029 0.79503 0.77795 0.0
C173 C 0.24364 0.78644 0.74774 0.0
C174 C 0.24435 0.75765 0.74822 0.0
C175 C 0.23153 0.73622 0.77886 0.0
C176 C 0.21955 0.74558 0.80989 0.0
C177 C 0.21883 0.77442 0.80938 0.0
C178 C 0.24314 0.91389 0.85455 0.0
C179 C 0.31038 0.91857 0.78745 0.0
O180 O 0.26735 0.98526 0.82372 0.0
O181 O 0.29284 1.00448 0.77088 0.0
O182 O 0.26643 0.96424 0.72009 0.0
O183 O 0.24684 0.91402 0.73182 0.0
O184 O 0.2119 0.93373 0.78498 0.0
O185 O 0.19198 0.88174 0.76704 0.0
O186 O 0.24415 0.84733 0.75329 0.0
O187 O 0.21051 0.83011 0.80051 0.0
O188 O 0.21676 0.88816 0.84491 0.0
O189 O 0.26363 0.92119 0.82872 0.0
O190 O 0.28531 0.89838 0.80625 0.0
O191 O 0.31108 0.94429 0.77296 0.0
H192 H 0.24005 0.01427 0.85176 0.0
H193 H 0.21204 0.0445 0.84626 0.0
H194 H 0.25176 0.07608 0.73496 0.0
H195 H 0.27995 0.04564 0.73993 0.0
H196 H 0.25249 0.80145 0.72286 0.0
H197 H 0.25437 0.75192 0.72401 0.0
H198 H 0.20916 0.72988 0.83395 0.0
H199 H 0.20809 0.77992 0.83305 0.0
Nd200 Nd 0.70723 0.75624 0.77809 0.0
Nd201 Nd 0.66588 0.79134 0.78642 0.0
C202 C 0.75089 0.74005 0.7908 0.0
C203 C 0.78621 0.75973 0.7896 0.0
C204 C 0.80357 0.77858 0.82072 0.0
C205 C 0.83689 0.79578 0.81987 0.0
C206 C 0.85358 0.79441 0.78793 0.0
C207 C 0.8362 0.77738 0.75589 0.0
C208 C 0.80295 0.76016 0.75675 0.0
C209 C 0.70001 0.77055 0.70587 0.0
C210 C 0.73969 0.83623 0.77634 0.0
C211 C 0.62129 0.80634 0.77072 0.0
C212 C 0.58788 0.79948 0.77694 0.0
C213 C 0.5657 0.78621 0.74715 0.0
C214 C 0.53643 0.78564 0.74866 0.0
C215 C 0.52857 0.79819 0.78009 0.0
C216 C 0.54957 0.80934 0.81107 0.0
C217 C 0.57892 0.80994 0.80959 0.0
C218 C 0.68824 0.78196 0.85716 0.0
C219 C 0.62823 0.71404 0.78588 0.0
O220 O 0.73596 0.74551 0.81809 0.0
O221 O 0.7362 0.73501 0.75842 0.0
O222 O 0.71495 0.75612 0.71628 0.0
O223 O 0.68789 0.77794 0.73444 0.0
O224 O 0.74316 0.81118 0.78451 0.0
O225 O 0.7119 0.83385 0.76963 0.0
O226 O 0.62524 0.78522 0.75166 0.0
O227 O 0.64309 0.82113 0.79691 0.0
O228 O 0.67258 0.79736 0.85386 0.0
O229 O 0.68946 0.77292 0.82415 0.0
O230 O 0.62835 0.74053 0.79359 0.0
O231 O 0.65466 0.71268 0.77852 0.0
H232 H 0.79154 0.77941 0.84619 0.0
H233 H 0.84955 0.80888 0.84493 0.0
H234 H 0.84835 0.7767 0.73039 0.0
H235 H 0.79038 0.74666 0.73185 0.0
H236 H 0.5718 0.77804 0.72152 0.0
H237 H 0.52086 0.7773 0.72423 0.0
H238 H 0.5441 0.81939 0.83551 0.0
H239 H 0.59523 0.8202 0.83313 0.0
H240 H 0.28733 0.9221 0.90818 0.0
H241 H 0.30262 0.95555 0.96546 0.0
H242 H 0.23233 0.98268 0.9397 0.0
H243 H 0.2162 0.94814 0.88323 0.0
H244 H 0.32741 0.02103 0.97126 0.0
H245 H 0.21365 0.96087 0.0516 0.0
H246 H 0.2229 0.94108 1.01428 0.0
H247 H 0.21058 0.96953 1.00287 0.0
C248 C 0.27467 0.93468 0.91518 0.0
C249 C 0.24996 0.93172 0.89149 0.0
C250 C 0.28358 0.95405 0.94794 0.0
C251 C 0.26845 0.97158 0.95785 0.0
C252 C 0.24387 0.96881 0.9339 0.0
H253 H 0.29144 0.09537 0.15522 0.0
H254 H 0.27822 0.07064 0.09205 0.0
C255 C 0.23458 0.94897 0.90144 0.0
C256 C 0.27941 0.99365 0.99206 0.0
H257 H 0.25473 1.00875 0.07715 0.0
C258 C 0.31141 0.01823 0.99436 0.0
C259 C 0.25884 0.99055 1.02255 0.0
C260 C 0.22463 0.96399 1.02312 0.0
C261 C 0.32316 0.03965 1.02547 0.0
C262 C 0.30274 0.03632 0.05625 0.0
C263 C 0.27063 0.01185 0.05383 0.0
C264 C 0.31445 0.05679 0.09181 0.0
C265 C 0.35735 0.06625 1.02446 0.0
C266 C 0.34033 0.05913 0.11266 0.0
C267 C 0.34873 0.07456 0.14812 0.0
C268 C 0.3312 0.08763 0.16468 0.0
C269 C 0.30647 0.08695 0.14294 0.0
C270 C 0.29832 0.07191 0.10704 0.0
H271 H 0.36655 0.07188 0.99498 0.0
H272 H 0.36004 0.0883 0.03784 0.0
H273 H 0.37237 0.05874 0.04011 0.0
H274 H 0.35274 0.047 0.1029 0.0
H275 H 0.36676 0.07298 0.16461 0.0
H276 H 0.65717 0.72898 0.6554 0.0
H277 H 0.67342 0.71805 0.59403 0.0
H278 H 0.76139 0.80738 0.6006 0.0
H279 H 0.74526 0.81798 0.66235 0.0
H280 H 0.69081 0.74305 0.5242 0.0
H281 H 0.79707 0.74803 0.59006 0.0
H282 H 0.76543 0.74751 0.61778 0.0
H283 H 0.79495 0.78387 0.59576 0.0
C284 C 0.67908 0.74736 0.64279 0.0
C285 C 0.69927 0.77492 0.66404 0.0
C286 C 0.68889 0.74061 0.60783 0.0
C287 C 0.71935 0.76117 0.59261 0.0
C288 C 0.73822 0.79032 0.61174 0.0
H289 H 0.82088 0.74258 0.3906 0.0
H290 H 0.80555 0.76243 0.44687 0.0
C291 C 0.72835 0.79702 0.64672 0.0
C292 C 0.73132 0.75157 0.55768 0.0
H293 H 0.79143 0.73942 0.52405 0.0
C294 C 0.71282 0.7423 0.52441 0.0
C295 C 0.76011 0.75024 0.55718 0.0
C296 C 0.78046 0.75762 0.59213 0.0
C297 C 0.7222 0.73236 0.49126 0.0
C298 C 0.75086 0.73098 0.49077 0.0
C299 C 0.76958 0.74049 0.52386 0.0
C300 C 0.76104 0.71878 0.4567 0.0
C301 C 0.70153 0.72405 0.4565 0.0
C302 C 0.74167 0.68744 0.44307 0.0
C303 C 0.75026 0.67626 0.41064 0.0
C304 C 0.77899 0.69563 0.39121 0.0
C305 C 0.79892 0.72672 0.40526 0.0
C306 C 0.79003 0.73815 0.43745 0.0
H307 H 0.684 0.73248 0.45872 0.0
H308 H 0.71639 0.73466 0.43083 0.0
H309 H 0.68812 0.69776 0.4528 0.0
H310 H 0.71964 0.67147 0.45748 0.0
H311 H 0.7343 0.65223 0.40071 0.0
H312 H 0.90293 0.21042 0.13839 0.0
H313 H 0.93099 0.22391 0.07673 0.0
H314 H 1.01191 0.30375 0.12845 0.0
H315 H 0.98327 0.29181 0.18874 0.0
H316 H 0.96526 0.28911 0.03285 0.0
H317 H 0.04522 0.24375 0.07805 0.0
H318 H 1.00587 0.22915 0.09773 0.0
H319 H 0.03804 0.26713 0.11241 0.0
C320 C 0.92611 0.23167 0.1362 0.0
C321 C 0.94028 0.25049 0.16871 0.0
C322 C 0.94249 0.23908 0.10097 0.0
C323 C 0.97405 0.2647 0.09761 0.0
C324 C 0.98781 0.28381 0.12983 0.0
H325 H 0.12973 0.35975 0.93277 0.0
H326 H 0.09543 0.33875 0.98927 0.0
C327 C 0.97112 0.27711 0.16444 0.0
C328 C 0.99298 0.27185 0.06102 0.0
H329 H 0.05938 0.27439 1.02168 0.0
C330 C 0.9856 0.28553 0.03033 0.0
C331 C 0.01965 0.26722 0.05714 0.0
C332 C 0.02774 0.2508 0.08784 0.0
C333 C 1.00458 0.29571 0.997 0.0
C334 C 0.03196 0.29217 0.99358 0.0
C335 C 0.03887 0.2777 1.02397 0.0
C336 C 0.0537 0.30379 0.95903 0.0
C337 C 0.99577 0.31134 0.96605 0.0
C338 C 0.04247 0.29092 0.92274 0.0
C339 C 0.06212 0.30301 0.89037 0.0
C340 C 0.0938 0.32838 0.89292 0.0
C341 C 0.10548 0.34046 0.92939 0.0
C342 C 0.08576 0.32836 0.96188 0.0
H343 H 0.97764 0.31758 0.97557 0.0
H344 H 0.01717 0.33336 0.95603 0.0
H345 H 0.98583 0.29472 0.94168 0.0
H346 H 0.01831 0.27143 0.91932 0.0
H347 H 0.05245 0.29233 0.86316 0.0
H348 H 0.27941 0.06558 0.37554 0.0
H349 H 0.25947 0.03066 0.43152 0.0
H350 H 0.35525 0.07247 0.47424 0.0
H351 H 0.3753 0.10596 0.41727 0.0
H352 H 0.27339 0.98379 0.45948 0.0
H353 H 0.30653 0.07924 0.56622 0.0
H354 H 0.30367 0.08548 0.51633 0.0
H355 H 0.3387 0.08641 0.53485 0.0
C356 C 0.29626 0.06725 0.39679 0.0
C357 C 0.32912 0.08846 0.39147 0.0
C358 C 0.28478 0.04723 0.42901 0.0
C359 C 0.30562 0.04871 0.45784 0.0
C360 C 0.33836 0.07069 0.45299 0.0
H361 H 0.30582 0.9513 0.66354 0.0
H362 H 0.31544 0.97662 0.60135 0.0
C363 C 0.34992 0.08995 0.42023 0.0
C364 C 0.29352 0.02708 0.49241 0.0
H365 H 0.29355 0.02798 0.5898 0.0
C366 C 0.2776 0.99358 0.4879 0.0
C367 C 0.29827 0.03928 0.52995 0.0
C368 C 0.3124 0.07453 0.53733 0.0
C369 C 0.26785 0.97251 0.51942 0.0
C370 C 0.27409 0.98487 0.55678 0.0
C371 C 0.28907 0.01823 0.56134 0.0
C372 C 0.26651 0.96389 0.59148 0.0
C373 C 0.25161 0.93702 0.51278 0.0
C374 C 0.23541 0.94658 0.6065 0.0
C375 C 0.22981 0.93183 0.6425 0.0
C376 C 0.25506 0.93351 0.66418 0.0
C377 C 0.28552 0.94829 0.64731 0.0
C378 C 0.29123 0.96351 0.61187 0.0
H379 H 0.24981 0.93092 0.4822 0.0
H380 H 0.26489 0.92691 0.52743 0.0
H381 H 0.22727 0.92551 0.52507 0.0
H382 H 0.21577 0.94638 0.59164 0.0
H383 H 0.20628 0.92184 0.65491 0.0
H384 H 0.74498 0.7817 0.86736 0.0
H385 H 0.76305 0.76468 0.92304 0.0
H386 H 0.68654 0.76259 0.98794 0.0
H387 H 0.6663 0.77519 0.93072 0.0
H388 H 0.7851 0.78509 0.99025 0.0
H389 H 0.66898 0.67685 1.01651 0.0
H390 H 0.67708 0.69959 0.97349 0.0
H391 H 0.6657 0.71216 1.01609 0.0
C392 C 0.73075 0.77529 0.8927 0.0
C393 C 0.70239 0.77678 0.89309 0.0
C394 C 0.74179 0.7667 0.9253 0.0
C395 C 0.72538 0.76035 0.96014 0.0
C396 C 0.69884 0.76516 0.96142 0.0
H397 H 0.73898 0.70327 0.19 0.0
H398 H 0.72623 0.71832 0.12954 0.0
C399 C 0.6874 0.77291 0.92852 0.0
C400 C 0.73575 0.74872 0.99472 0.0
H401 H 0.70721 0.69207 0.06508 0.0
C402 C 0.76797 0.7646 1.00637 0.0
C403 C 0.71401 0.72168 1.01627 0.0
C404 C 0.67962 0.70138 1.00477 0.0
C405 C 0.77844 0.75524 0.03912 0.0
C406 C 0.75634 0.72872 0.06116 0.0
C407 C 0.72442 0.71251 0.04893 0.0
C408 C 0.76478 0.71841 0.09817 0.0
C409 C 0.81294 0.77478 0.05058 0.0
C410 C 0.79044 0.71232 0.10179 0.0
C411 C 0.79821 0.70416 0.13725 0.0
C412 C 0.77986 0.70071 0.16983 0.0
C413 C 0.75339 0.70515 0.16561 0.0
C414 C 0.74614 0.714 0.13073 0.0
H415 H 0.82504 0.79837 0.03625 0.0
H416 H 0.81519 0.7787 0.08168 0.0
H417 H 0.82566 0.76184 0.04247 0.0
H418 H 0.80478 0.71419 0.07735 0.0
H419 H 0.81905 0.70143 0.13938 0.0
H420 H 0.89648 0.21244 0.4305 0.0
H421 H 0.92906 0.22594 0.48862 0.0
H422 H 1.01236 0.28957 0.42409 0.0
H423 H 0.97955 0.27833 0.36793 0.0
H424 H 0.98027 0.22166 0.51391 0.0
H425 H 0.02014 0.35052 0.5033 0.0
H426 H 0.98882 0.32128 0.47382 0.0
H427 H 0.03001 0.33557 0.46205 0.0
C428 C 0.92173 0.22942 0.42879 0.0
C429 C 0.93538 0.2438 0.39376 0.0
C430 C 0.94052 0.23707 0.46217 0.0
C431 C 0.97354 0.25948 0.46166 0.0
C432 C 0.98708 0.27293 0.42634 0.0
H433 H 0.13107 0.33016 0.62583 0.0
H434 H 0.09617 0.30921 0.57063 0.0
C435 C 0.96829 0.26574 0.39349 0.0
C436 C 0.99371 0.2697 0.49762 0.0
H437 H 0.04636 0.33584 0.54887 0.0
C438 C 0.99438 0.24665 0.52159 0.0
C439 C 1.01277 0.30236 0.5083 0.0
C440 C 1.01274 0.32883 0.48574 0.0
C441 C 1.01344 0.2553 0.55491 0.0
C442 C 0.03224 0.28789 0.56541 0.0
C443 C 0.03181 0.31084 0.54141 0.0
C444 C 0.05311 0.29891 0.60051 0.0
C445 C 1.01387 0.22961 0.57858 0.0
C446 C 0.04143 0.30208 0.63607 0.0
C447 C 0.06208 0.31603 0.6676 0.0
C448 C 0.09442 0.32463 0.6655 0.0
C449 C 0.10592 0.32192 0.62961 0.0
C450 C 0.08588 0.30977 0.59772 0.0
H451 H 0.99952 0.20552 0.5658 0.0
H452 H 0.03877 0.23472 0.5821 0.0
H453 H 1.00435 0.22958 0.60723 0.0
H454 H 0.01657 0.29528 0.63892 0.0
H455 H 0.0533 0.32227 0.6923 0.0
H456 H 0.43906 0.13196 0.22196 0.0
H457 H 0.4974 0.16155 0.21968 0.0
H458 H 0.50035 0.11929 0.32581 0.0
H459 H 0.44178 0.0902 0.32846 0.0
H460 H 0.54431 0.20694 0.27586 0.0
H461 H 0.55383 0.09877 0.24916 0.0
H462 H 0.51761 0.09996 0.2412 0.0
H463 H 0.52852 0.09528 0.28838 0.0
C464 C 0.45217 0.12766 0.24382 0.0
C465 C 0.43567 0.10703 0.27422 0.0
C466 C 0.48556 0.14541 0.24306 0.0
C467 C 0.50344 0.14268 0.27248 0.0
C468 C 0.48711 0.1216 0.30253 0.0
H469 H 0.69205 0.19327 0.33182 0.0
H470 H 0.63743 0.1813 0.32934 0.0
C471 C 0.45361 0.10419 0.30356 0.0
C472 C 0.53909 0.16005 0.27074 0.0
H473 H 0.60131 0.14566 0.26603 0.0
C474 C 0.55687 0.19364 0.2735 0.0
C475 C 0.55558 0.14294 0.26671 0.0
C476 C 0.53801 0.10728 0.2608 0.0
C477 C 0.59067 0.2101 0.27442 0.0
C478 C 0.60695 0.19248 0.27262 0.0
C479 C 0.589 0.15921 0.26814 0.0
C480 C 0.64228 0.20686 0.27748 0.0
C481 C 0.60869 0.24593 0.2786 0.0
C482 C 0.66413 0.22649 0.24981 0.0
C483 C 0.69637 0.23433 0.25152 0.0
C484 C 0.70764 0.2221 0.28047 0.0
C485 C 0.68558 0.20377 0.30902 0.0
C486 C 0.65372 0.19654 0.30762 0.0
H487 H 0.59254 0.25589 0.28265 0.0
H488 H 0.62521 0.25293 0.30305 0.0
H489 H 0.62328 0.25684 0.25285 0.0
H490 H 0.65607 0.23462 0.22594 0.0
H491 H 0.71204 0.24937 0.22935 0.0
H492 H 0.67246 0.58732 0.33018 0.0
H493 H 0.64207 0.52871 0.32856 0.0
H494 H 0.68223 0.52941 0.2192 0.0
H495 H 0.71222 0.58792 0.22075 0.0
H496 H 0.59751 0.48972 0.27458 0.0
H497 H 0.6979 0.46448 0.27819 0.0
H498 H 0.70207 0.50193 0.29433 0.0
H499 H 0.70096 0.49382 0.24462 0.0
C500 C 0.67343 0.57498 0.30497 0.0
C501 C 0.69318 0.5923 0.27457 0.0
C502 C 0.65684 0.54146 0.30451 0.0
C503 C 0.66025 0.52447 0.27406 0.0
C504 C 0.67947 0.54176 0.24329 0.0
H505 H 0.54837 0.31896 0.22268 0.0
H506 H 0.58899 0.37479 0.22022 0.0
C507 C 0.69572 0.57526 0.24358 0.0
C508 C 0.6414 0.48881 0.27331 0.0
H509 H 0.6458 0.41998 0.27217 0.0
C510 C 0.60817 0.47457 0.27407 0.0
C511 C 0.65531 0.46891 0.27226 0.0
C512 C 0.691 0.48287 0.27254 0.0
C513 C 0.58836 0.4413 0.27397 0.0
C514 C 0.60192 0.42121 0.27381 0.0
C515 C 0.63533 0.43528 0.27232 0.0
C516 C 0.58108 0.38577 0.27711 0.0
C517 C 0.55278 0.4278 0.27395 0.0
C518 C 0.56348 0.37271 0.31029 0.0
C519 C 0.53926 0.34069 0.3118 0.0
C520 C 0.53174 0.32003 0.28015 0.0
C521 C 0.55152 0.33306 0.24771 0.0
C522 C 0.57558 0.3654 0.24619 0.0
H523 H 0.54619 0.44605 0.26616 0.0
H524 H 0.54113 0.40747 0.25385 0.0
H525 H 0.54328 0.4189 0.30271 0.0
H526 H 0.56747 0.38783 0.33476 0.0
H527 H 0.52598 0.3332 0.33786 0.0
H528 H 0.86679 0.29423 0.31296 0.0
H529 H 0.84194 0.32582 0.3045 0.0
H530 H 0.92418 0.39633 0.24371 0.0
H531 H 0.95015 0.36343 0.25122 0.0
H532 H 0.86401 0.38547 0.33368 0.0
H533 H 0.84627 0.38355 0.17828 0.0
H534 H 0.85019 0.35302 0.20309 0.0
H535 H 0.88483 0.39083 0.19352 0.0
C536 C 0.88039 0.31646 0.29775 0.0
C537 C 0.91141 0.3264 0.28356 0.0
C538 C 0.86557 0.33452 0.2928 0.0
C539 C 0.88097 0.36357 0.27368 0.0
C540 C 0.91163 0.37374 0.25844 0.0
H541 H 0.85291 0.52305 0.24609 0.0
H542 H 0.86659 0.4806 0.24403 0.0
C543 C 0.92669 0.35516 0.26308 0.0
C544 C 0.86525 0.38358 0.27284 0.0
H545 H 0.83509 0.41835 0.21423 0.0
C546 C 0.85775 0.39272 0.30752 0.0
C547 C 0.85557 0.3917 0.23889 0.0
C548 C 0.85924 0.37911 0.20122 0.0
C549 C 0.84289 0.41147 0.30915 0.0
C550 C 0.8354 0.42172 0.27509 0.0
C551 C 0.8414 0.41116 0.24039 0.0
C552 C 0.82489 0.44621 0.27479 0.0
C553 C 0.83637 0.42103 0.3474 0.0
C554 C 0.79651 0.44112 0.29235 0.0
C555 C 0.78881 0.46572 0.29387 0.0
C556 C 0.80913 0.49565 0.27739 0.0
C557 C 0.83683 0.50024 0.25894 0.0
C558 C 0.8446 0.47591 0.25768 0.0
H559 H 0.84759 0.41478 0.37078 0.0
H560 H 0.84524 0.4471 0.34834 0.0
H561 H 0.81029 0.40846 0.35253 0.0
H562 H 0.78045 0.41826 0.30511 0.0
H563 H 0.76714 0.46144 0.30801 0.0
H564 H 0.1214 0.43832 0.84183 0.0
H565 H 0.15152 0.49673 0.83792 0.0
H566 H 0.13635 0.49087 0.71734 0.0
H567 H 0.1061 0.43238 0.72138 0.0
H568 H 0.20875 0.53879 0.79401 0.0
H569 H 0.10408 0.55064 0.75419 0.0
H570 H 0.10003 0.51451 0.77432 0.0
H571 H 0.11076 0.5238 0.72534 0.0
C572 C 0.12281 0.44955 0.81482 0.0
C573 C 0.10937 0.43055 0.78228 0.0
C574 C 0.14102 0.48298 0.81241 0.0
C575 C 0.14622 0.49847 0.77738 0.0
C576 C 0.13232 0.47967 0.74487 0.0
H577 H 0.21917 0.69714 0.71656 0.0
H578 H 0.20654 0.64163 0.71465 0.0
C579 C 0.11415 0.44618 0.7473 0.0
C580 C 0.1643 0.53425 0.77521 0.0
H581 H 0.15367 0.59755 0.75524 0.0
C582 C 0.19674 0.55169 0.78556 0.0
C583 C 0.14889 0.55127 0.76409 0.0
C584 C 0.11397 0.53424 0.75412 0.0
C585 C 0.21385 0.58555 0.78494 0.0
C586 C 0.19804 0.6024 0.77417 0.0
C587 C 0.16592 0.58482 0.7634 0.0
C588 C 0.2133 0.63814 0.77454 0.0
C589 C 0.24875 0.60309 0.795 0.0
C590 C 0.22232 0.65541 0.80873 0.0
C591 C 0.22971 0.68757 0.80999 0.0
C592 C 0.22819 0.70335 0.77709 0.0
C593 C 0.22097 0.68636 0.74258 0.0
C594 C 0.2136 0.65432 0.74138 0.0
H595 H 0.25884 0.58685 0.79615 0.0
H596 H 0.26245 0.62225 0.77404 0.0
H597 H 0.25198 0.61456 0.82315 0.0
H598 H 0.22192 0.64357 0.8349 0.0
H599 H 0.23571 0.69975 0.83704 0.0
H600 H 0.37522 0.9514 0.76581 0.0
H601 H 0.40969 0.92715 0.75843 0.0
H602 H 0.3298 0.8345 0.78406 0.0
H603 H 0.29622 0.85729 0.79048 0.0
H604 H 0.421 0.89388 0.81586 0.0
H605 H 0.36413 0.81039 0.69545 0.0
H606 H 0.35635 0.84261 0.70541 0.0
H607 H 0.33724 0.80642 0.73273 0.0
C608 C 0.3651 0.92588 0.76915 0.0
C609 C 0.33296 0.90669 0.77917 0.0
C610 C 0.38468 0.91198 0.76495 0.0
C611 C 0.37216 0.87876 0.76994 0.0
C612 C 0.34002 0.85984 0.77887 0.0
H613 H 0.46431 0.75972 0.79596 0.0
H614 H 0.42274 0.77537 0.79368 0.0
C615 C 0.32084 0.87342 0.7831 0.0
C616 C 0.39272 0.86382 0.77003 0.0
H617 H 0.4021 0.8037 0.73152 0.0
C618 C 0.41712 0.87452 0.79697 0.0
C619 C 0.38649 0.83719 0.7469 0.0
C620 C 0.35975 0.82358 0.71834 0.0
C621 C 0.43603 0.86012 0.80074 0.0
C622 C 0.43134 0.83503 0.77603 0.0
C623 C 0.40604 0.82326 0.75008 0.0
C624 C 0.45482 0.82357 0.77455 0.0
C625 C 0.4608 0.87166 0.83159 0.0
C626 C 0.48627 0.84503 0.7637 0.0
C627 C 0.50974 0.83628 0.76526 0.0
C628 C 0.50236 0.80573 0.77739 0.0
C629 C 0.47061 0.78355 0.78686 0.0
C630 C 0.44691 0.79242 0.7854 0.0
H631 H 0.45579 0.88464 0.85418 0.0
H632 H 0.46195 0.85133 0.84459 0.0
H633 H 0.48449 0.88822 0.81928 0.0
H634 H 0.49283 0.86895 0.75465 0.0
H635 H 0.53393 0.85362 0.75737 0.0
H636 H 0.33131 0.52358 0.71372 0.0
H637 H 0.38663 0.56665 0.71136 0.0
H638 H 0.38286 0.58508 0.8301 0.0
H639 H 0.3273 0.54219 0.83282 0.0
H640 H 0.42541 0.63513 0.73365 0.0
H641 H 0.44754 0.55297 0.822 0.0
H642 H 0.41009 0.53996 0.79833 0.0
H643 H 0.41939 0.56328 0.84105 0.0
C644 C 0.34178 0.53722 0.73926 0.0
C645 C 0.32463 0.52864 0.77372 0.0
C646 C 0.37362 0.56201 0.73777 0.0
C647 C 0.38926 0.57886 0.77065 0.0
C648 C 0.37155 0.57213 0.8044 0.0
H649 H 0.58481 0.6909 0.84153 0.0
H650 H 0.52715 0.6639 0.83356 0.0
C651 C 0.33974 0.54731 0.80598 0.0
C652 C 0.42479 0.59961 0.77102 0.0
H653 H 0.49148 0.60236 0.80731 0.0
C654 C 0.43994 0.628 0.74964 0.0
C655 C 0.44389 0.59041 0.79177 0.0
C656 C 0.42954 0.55989 0.81438 0.0
C657 C 0.47359 0.64755 0.74932 0.0
C658 C 0.49247 0.63799 0.77023 0.0
C659 C 0.47714 0.60965 0.79118 0.0
C660 C 0.52804 0.65703 0.77314 0.0
C661 C 0.48859 0.67872 0.728 0.0
C662 C 0.54814 0.66164 0.742 0.0
C663 C 0.58147 0.67666 0.74676 0.0
C664 C 0.59534 0.68684 0.78282 0.0
C665 C 0.57494 0.6816 0.8138 0.0
C666 C 0.54195 0.66705 0.80904 0.0
H667 H 0.47048 0.68391 0.71583 0.0
H668 H 0.50437 0.69862 0.74716 0.0
H669 H 0.50351 0.67798 0.70456 0.0
H670 H 0.53813 0.65378 0.71402 0.0
H671 H 0.59651 0.68212 0.72195 0.0
H672 H 0.22957 0.07628 0.26028 0.0
H673 H 0.18677 0.08996 0.26278 0.0
H674 H 0.25266 0.18198 0.31015 0.0
H675 H 0.29527 0.16895 0.30666 0.0
H676 H 0.16309 0.11222 0.32677 0.0
H677 H 0.21912 0.20273 0.21283 0.0
H678 H 0.22833 0.17117 0.22002 0.0
H679 H 0.24547 0.20568 0.25029 0.0
C680 C 0.23466 0.09929 0.27137 0.0
C681 C 0.26565 0.1218 0.28263 0.0
C682 C 0.21034 0.10706 0.27283 0.0
C683 C 0.21684 0.13721 0.28598 0.0
C684 C 0.24741 0.15892 0.29907 0.0
H685 H 0.12691 0.25055 0.31379 0.0
H686 H 0.16119 0.22646 0.31548 0.0
C687 C 0.27168 0.15144 0.29703 0.0
C688 C 0.1923 0.14691 0.28497 0.0
H689 H 0.17717 0.20304 0.2474 0.0
C690 C 0.16581 0.13175 0.30907 0.0
C691 C 0.1962 0.17254 0.26198 0.0
C692 C 0.22365 0.18887 0.23455 0.0
C693 C 0.14355 0.14234 0.31165 0.0
C694 C 0.14783 0.16839 0.28919 0.0
C695 C 0.17403 0.18311 0.26463 0.0
C696 C 0.12591 0.18145 0.29119 0.0
C697 C 0.11633 0.12654 0.33937 0.0
C698 C 0.09473 0.16404 0.27704 0.0
C699 C 0.07521 0.17785 0.27595 0.0
C700 C 0.08671 0.20918 0.28902 0.0
C701 C 0.11764 0.2263 0.30375 0.0
C702 C 0.13713 0.21259 0.30472 0.0
H703 H 0.11896 0.10976 0.3585 0.0
H704 H 0.11467 0.14485 0.35679 0.0
H705 H 0.09365 0.113 0.32359 0.0
H706 H 0.08587 0.14018 0.2659 0.0
H707 H 0.05145 0.16438 0.26423 0.0
H708 H 0.88256 0.75162 0.34592 0.0
H709 H 0.93914 0.79283 0.34831 0.0
H710 H 0.93418 0.81806 0.23237 0.0
H711 H 0.8777 0.77668 0.23001 0.0
H712 H 0.98469 0.7916 0.29786 0.0
H713 H 0.98278 0.9055 0.28785 0.0
H714 H 0.94911 0.86881 0.30443 0.0
H715 H 0.95773 0.87496 0.2547 0.0
C716 C 0.89355 0.76658 0.32138 0.0
C717 C 0.87619 0.76158 0.28794 0.0
C718 C 0.9257 0.78993 0.32269 0.0
C719 C 0.94065 0.80869 0.29066 0.0
C720 C 0.9229 0.80423 0.25757 0.0
H721 H 0.13667 0.94258 0.22797 0.0
H722 H 0.0789 0.90541 0.22822 0.0
C723 C 0.89083 0.78065 0.25616 0.0
C724 C 0.97547 0.8305 0.29055 0.0
H725 H 0.03296 0.90853 0.2802 0.0
C726 C 0.99532 0.8172 0.29426 0.0
C727 C 0.98906 0.86379 0.28568 0.0
C728 C 0.96867 0.87929 0.28323 0.0
C729 C 0.02856 0.83631 0.2926 0.0
C730 C 0.04224 0.86961 0.28732 0.0
C731 C 0.02235 0.88294 0.28381 0.0
C732 C 0.07719 0.89119 0.28659 0.0
C733 C 0.04878 0.82066 0.29572 0.0
C734 C 0.09518 0.89554 0.31934 0.0
C735 C 0.12797 0.91666 0.31931 0.0
C736 C 0.14358 0.93404 0.28655 0.0
C737 C 0.12547 0.92948 0.2536 0.0
C738 C 0.09249 0.90837 0.25373 0.0
H739 H 0.03444 0.79429 0.29265 0.0
H740 H 0.06777 0.83016 0.2738 0.0
H741 H 0.06043 0.82605 0.32389 0.0
H742 H 0.08378 0.88281 0.34511 0.0
H743 H 0.14118 0.91916 0.345 0.0
H744 H 0.895 0.14264 0.22248 0.0
H745 H 0.88021 0.08611 0.22412 0.0
H746 H 0.90192 0.09435 0.34345 0.0
H747 H 0.9175 0.15128 0.34158 0.0
H748 H 0.91811 0.05649 0.25273 0.0
H749 H 0.80483 0.02183 0.32937 0.0
H750 H 0.82609 0.05866 0.30315 0.0
H751 H 0.8406 0.05484 0.34838 0.0
C752 C 0.89712 0.13238 0.24883 0.0
C753 C 0.9076 0.15097 0.28184 0.0
C754 C 0.88865 0.10026 0.24976 0.0
C755 C 0.8898 0.08619 0.28394 0.0
C756 C 0.90088 0.10492 0.31686 0.0
H757 H 0.81967 0.88818 0.34398 0.0
H758 H 0.84389 0.94611 0.34414 0.0
C759 C 0.90998 0.1373 0.31575 0.0
C760 C 0.87828 0.0516 0.28519 0.0
H761 H 0.81662 0.98086 0.31617 0.0
C762 C 0.896 0.03986 0.26666 0.0
C763 C 0.84931 0.03021 0.30318 0.0
C764 C 0.82885 0.0418 0.32199 0.0
C765 C 0.88565 1.00706 0.26603 0.0
C766 C 0.85657 0.98551 0.28391 0.0
C767 C 0.83895 0.99741 0.30261 0.0
C768 C 0.84376 0.95046 0.28326 0.0
C769 C 0.90617 0.99583 0.24672 0.0
C770 C 0.83577 0.93359 0.2489 0.0
C771 C 0.82241 0.90035 0.24856 0.0
C772 C 0.8162 0.8831 0.28267 0.0
C773 C 0.82449 0.90035 0.31703 0.0
C774 C 0.83809 0.93357 0.31728 0.0
H775 H 0.93094 0.01567 0.24246 0.0
H776 H 0.90687 0.97675 0.26345 0.0
H777 H 0.89601 0.98591 0.21849 0.0
H778 H 0.83938 0.94607 0.22231 0.0
H779 H 0.81687 0.88823 0.22148 0.0
H780 H 0.16809 0.28823 0.8217 0.0
H781 H 0.18296 0.24686 0.82263 0.0
H782 H 0.09838 0.18423 0.75918 0.0
H783 H 0.08325 0.2261 0.75822 0.0
H784 H 0.14971 0.18403 0.85041 0.0
H785 H 0.17447 0.19023 0.69584 0.0
H786 H 0.17138 0.22113 0.72112 0.0
H787 H 0.13605 0.1846 0.70899 0.0
C788 C 0.15244 0.26547 0.80835 0.0
C789 C 0.12455 0.26015 0.78994 0.0
C790 C 0.16098 0.24193 0.80887 0.0
C791 C 0.142 0.21274 0.79059 0.0
C792 C 0.11348 0.20684 0.7731 0.0
H793 H 0.17215 0.05035 0.76216 0.0
H794 H 0.14978 0.08643 0.76328 0.0
C795 C 0.10467 0.23047 0.77293 0.0
C796 C 0.15276 0.18898 0.78977 0.0
H797 H 0.18095 0.15233 0.73105 0.0
C798 C 0.1563 0.17684 0.82433 0.0
C799 C 0.16211 0.18046 0.75573 0.0
C800 C 0.16115 0.19491 0.71826 0.0
C801 C 0.16853 0.15593 0.82573 0.0
C802 C 0.17721 0.14679 0.79162 0.0
C803 C 0.17375 0.15901 0.75705 0.0
C804 C 0.1905 0.125 0.79129 0.0
C805 C 0.17205 0.14372 0.86364 0.0
C806 C 0.22083 0.13496 0.80632 0.0
C807 C 0.23355 0.11454 0.80557 0.0
C808 C 0.21626 0.08395 0.7896 0.0
C809 C 0.18595 0.07396 0.77438 0.0
C810 C 0.17321 0.09445 0.77509 0.0
H811 H 0.15967 0.14912 0.8866 0.0
H812 H 0.16245 0.11753 0.86244 0.0
H813 H 0.19768 0.15517 0.87101 0.0
H814 H 0.23472 0.1586 0.81845 0.0
H815 H 0.25693 0.1226 0.81751 0.0
H816 H 0.13655 0.85461 0.74388 0.0
H817 H 0.08089 0.83972 0.74993 0.0
H818 H 0.10754 0.92726 0.81019 0.0
H819 H 0.16408 0.94259 0.80443 0.0
H820 H 0.04938 0.83252 0.82162 0.0
H821 H 0.04398 0.92078 0.72519 0.0
H822 H 0.07488 0.91026 0.72189 0.0
H823 H 0.07582 0.93593 0.75928 0.0
C824 C 0.13079 0.871 0.75814 0.0
C825 C 0.15475 0.89978 0.77389 0.0
C826 C 0.0989 0.86234 0.76159 0.0
C827 C 0.09023 0.88232 0.78056 0.0
C828 C 0.11396 0.91165 0.79524 0.0
H829 H 0.89886 0.85189 0.81815 0.0
H830 H 0.95656 0.87294 0.82122 0.0
C831 C 0.14615 0.9204 0.79185 0.0
C832 C 0.05611 0.87147 0.78586 0.0
H833 H 0.99664 0.8847 0.7565 0.0
C834 C 0.0378 0.84404 0.80772 0.0
C835 C 0.04127 0.88641 0.76724 0.0
C836 C 0.05981 0.91486 0.74182 0.0
C837 C 1.00479 0.83105 0.81138 0.0
C838 C 0.98989 0.84594 0.79258 0.0
C839 C 1.00831 0.87363 0.7712 0.0
C840 C 0.95498 0.83237 0.79298 0.0
C841 C 0.98614 0.80151 0.83519 0.0
C842 C 0.93523 0.8028 0.77579 0.0
C843 C 0.90243 0.79077 0.77398 0.0
C844 C 0.88871 0.80816 0.78912 0.0
C845 C 0.90863 0.83783 0.80641 0.0
C846 C 0.94154 0.84989 0.80817 0.0
H847 H 1.00186 0.7971 0.8541 0.0
H848 H 0.96812 0.80353 0.8527 0.0
H849 H 0.97338 0.78046 0.81635 0.0
H850 H 0.94523 0.7892 0.76327 0.0
H851 H 0.88776 0.7676 0.76106 0.0
H852 H 0.96782 0.1285 0.83006 0.0
H853 H 0.9313 0.07088 0.83545 0.0
H854 H 0.87292 0.0757 0.7468 0.0
H855 H 0.90775 0.13308 0.74246 0.0
H856 H 0.85482 0.03512 0.84301 0.0
H857 H 0.90653 1.01034 0.71491 0.0
H858 H 0.92875 0.04592 0.74324 0.0
H859 H 0.89793 0.04254 0.71219 0.0
C860 C 0.94699 0.11754 0.81207 0.0
C861 C 0.94123 0.13577 0.7854 0.0
C862 C 0.92623 0.08455 0.81515 0.0
C863 C 0.89965 0.06921 0.79135 0.0
C864 C 0.89348 0.08718 0.76525 0.0
H865 H 0.74917 0.88567 0.73202 0.0
H866 H 0.78907 0.94189 0.73998 0.0
C867 C 0.91383 0.12005 0.76249 0.0
C868 C 0.87898 0.03416 0.79217 0.0
H869 H 0.85991 0.96724 0.74048 0.0
C870 C 0.85617 0.02011 0.82103 0.0
C871 C 0.88069 0.0149 0.76311 0.0
C872 C 0.90487 0.02901 0.73161 0.0
C873 C 0.8344 0.98712 0.82094 0.0
C874 C 0.83598 0.968 0.79155 0.0
C875 C 0.85911 0.98204 0.76315 0.0
C876 C 0.81215 0.93385 0.78762 0.0
C877 C 0.80903 0.97301 0.85115 0.0
C878 C 0.81252 0.91073 0.81132 0.0
C879 C 0.79005 0.87835 0.80636 0.0
C880 C 0.7669 0.86897 0.77786 0.0
C881 C 0.76699 0.89225 0.75397 0.0
C882 C 0.78955 0.92435 0.75864 0.0
H883 H 0.80946 0.99155 0.87026 0.0
H884 H 0.78513 0.95962 0.83786 0.0
H885 H 0.81256 0.95584 0.8684 0.0
H886 H 0.83002 0.91775 0.8337 0.0
H887 H 0.78993 0.8609 0.82567 0.0
loop_
_geom_bond_atom_site_label_1
_geom_bond_atom_site_label_2
_geom_bond_distance
_geom_bond_site_symmetry_2
_ccdc_geom_bond_type
Nd0 C2 2.836 . S
Nd0 O20 2.500 . S
Nd0 O21 2.492 . S
Nd0 O22 2.487 . S
Nd0 O23 2.682 . S
Nd0 O24 2.410 . S
Nd0 O29 2.414 . S
Nd0 O31 2.424 . S
Nd1 C11 2.836 . S
Nd1 O23 2.414 . S
Nd1 O25 2.424 . S
Nd1 O26 2.500 . S
Nd1 O27 2.492 . S
Nd1 O28 2.487 . S
Nd1 O29 2.682 . S
Nd1 O30 2.410 . S
C2 Nd0 2.836 . S
C2 C3 1.498 . S
C2 O20 1.258 . S
C2 O21 1.239 . S
C3 C2 1.498 . S
C3 C4 1.366 . S
C3 C8 1.407 . S
C4 C3 1.366 . S
C4 C5 1.392 . S
C4 H32 0.930 . S
C5 C4 1.392 . S
C5 C6 1.398 . S
C5 H33 0.929 . S
C6 C5 1.398 . S
C6 C7 1.352 . S
C7 C6 1.352 . S
C7 C8 1.384 . S
C7 H34 0.930 . S
C8 C3 1.407 . S
C8 C7 1.384 . S
C8 H35 0.929 . S
C9 O22 1.241 . S
C9 O23 1.273 . S
C10 O24 1.251 . S
C10 O25 1.268 . S
C11 Nd1 2.836 . S
C11 C12 1.498 1_545 S
C11 O26 1.258 . S
C11 O27 1.239 . S
C12 C11 1.498 1_565 S
C12 C13 1.366 . S
C12 C17 1.407 . S
C13 C12 1.366 . S
C13 C14 1.392 . S
C13 H36 0.930 . S
C14 C13 1.392 . S
C14 C15 1.398 . S
C14 H37 0.929 . S
C15 C14 1.398 . S
C15 C16 1.352 . S
C16 C15 1.352 . S
C16 C17 1.384 . S
C16 H38 0.930 . S
C17 C12 1.407 . S
C17 C16 1.384 . S
C17 H39 0.929 . S
C18 O28 1.241 . S
C18 O29 1.273 . S
C19 O30 1.251 . S
C19 O31 1.268 . S
O20 Nd0 2.500 . S
O20 C2 1.258 . S
O21 Nd0 2.492 . S
O21 C2 1.239 . S
O22 Nd0 2.487 . S
O22 C9 1.241 . S
O23 Nd0 2.682 . S
O23 Nd1 2.414 . S
O23 C9 1.273 . S
O24 Nd0 2.410 . S
O24 C10 1.251 . S
O25 Nd1 2.424 . S
O25 C10 1.268 . S
O26 Nd1 2.500 . S
O26 C11 1.258 . S
O27 Nd1 2.492 . S
O27 C11 1.239 . S
O28 Nd1 2.487 . S
O28 C18 1.241 . S
O29 Nd0 2.414 . S
O29 Nd1 2.682 . S
O29 C18 1.273 . S
O30 Nd1 2.410 . S
O30 C19 1.251 . S
O31 Nd0 2.424 . S
O31 C19 1.268 . S
H32 C4 0.930 . S
H33 C5 0.929 . S
H34 C7 0.930 . S
H35 C8 0.929 . S
H36 C13 0.930 . S
H37 C14 0.929 . S
H38 C16 0.930 . S
H39 C17 0.929 . S
Nd40 C42 2.836 . S
Nd40 O60 2.500 . S
Nd40 O61 2.492 . S
Nd40 O62 2.487 . S
Nd40 O63 2.682 . S
Nd40 O64 2.410 . S
Nd40 O69 2.414 . S
Nd40 O71 2.424 . S
Nd41 C51 2.836 . S
Nd41 O63 2.414 . S
Nd41 O65 2.424 . S
Nd41 O66 2.500 . S
Nd41 O67 2.492 . S
Nd41 O68 2.487 . S
Nd41 O69 2.682 . S
Nd41 O70 2.410 . S
C42 Nd40 2.836 . S
C42 C43 1.498 . S
C42 O60 1.258 . S
C42 O61 1.239 . S
C43 C42 1.498 . S
C43 C44 1.366 . S
C43 C48 1.407 . S
C44 C43 1.366 . S
C44 C45 1.392 . S
C44 H72 0.930 . S
C45 C44 1.392 . S
C45 C46 1.398 . S
C45 H73 0.929 . S
C46 C45 1.398 . S
C46 C47 1.352 . S
C47 C46 1.352 . S
C47 C48 1.384 . S
C47 H74 0.930 . S
C48 C43 1.407 . S
C48 C47 1.384 . S
C48 H75 0.929 . S
C49 O62 1.241 . S
C49 O63 1.273 . S
C50 O64 1.251 . S
C50 O65 1.268 . S
C51 Nd41 2.836 . S
C51 C52 1.498 . S
C51 O66 1.258 . S
C51 O67 1.239 . S
C52 C51 1.498 . S
C52 C53 1.366 . S
C52 C57 1.407 . S
C53 C52 1.366 . S
C53 C54 1.392 . S
C53 H76 0.930 . S
C54 C53 1.392 . S
C54 C55 1.398 . S
C54 H77 0.929 . S
C55 C54 1.398 . S
C55 C56 1.352 . S
C56 C55 1.352 . S
C56 C57 1.384 . S
C56 H78 0.930 . S
C57 C52 1.407 . S
C57 C56 1.384 . S
C57 H79 0.929 . S
C58 O68 1.241 . S
C58 O69 1.273 . S
C59 O70 1.251 . S
C59 O71 1.268 . S
O60 Nd40 2.500 . S
O60 C42 1.258 . S
O61 Nd40 2.492 . S
O61 C42 1.239 . S
O62 Nd40 2.487 . S
O62 C49 1.241 . S
O63 Nd40 2.682 . S
O63 Nd41 2.414 . S
O63 C49 1.273 . S
O64 Nd40 2.410 . S
O64 C50 1.251 . S
O65 Nd41 2.424 . S
O65 C50 1.268 . S
O66 Nd41 2.500 . S
O66 C51 1.258 . S
O67 Nd41 2.492 . S
O67 C51 1.239 . S
O68 Nd41 2.487 . S
O68 C58 1.241 . S
O69 Nd40 2.414 . S
O69 Nd41 2.682 . S
O69 C58 1.273 . S
O70 Nd41 2.410 . S
O70 C59 1.251 . S
O71 Nd40 2.424 . S
O71 C59 1.268 . S
H72 C44 0.930 . S
H73 C45 0.929 . S
H74 C47 0.930 . S
H75 C48 0.929 . S
H76 C53 0.930 . S
H77 C54 0.929 . S
H78 C56 0.930 . S
H79 C57 0.929 . S
Nd80 C82 2.836 . S
Nd80 O100 2.500 . S
Nd80 O101 2.492 . S
Nd80 O102 2.487 . S
Nd80 O103 2.682 . S
Nd80 O104 2.410 . S
Nd80 O109 2.414 . S
Nd80 O111 2.424 . S
Nd81 C91 2.836 . S
Nd81 O103 2.414 . S
Nd81 O105 2.424 . S
Nd81 O106 2.500 . S
Nd81 O107 2.492 . S
Nd81 O108 2.487 . S
Nd81 O109 2.682 . S
Nd81 O110 2.410 . S
C82 Nd80 2.836 . S
C82 C83 1.498 . S
C82 O100 1.258 . S
C82 O101 1.239 . S
C83 C82 1.498 . S
C83 C84 1.366 . S
C83 C88 1.407 . S
C84 C83 1.366 . S
C84 C85 1.392 . S
C84 H112 0.930 . S
C85 C84 1.392 . S
C85 C86 1.398 . S
C85 H113 0.929 . S
C86 C85 1.398 . S
C86 C87 1.352 . S
C87 C86 1.352 . S
C87 C88 1.384 . S
C87 H114 0.930 . S
C88 C83 1.407 . S
C88 C87 1.384 . S
C88 H115 0.929 . S
C89 O102 1.241 . S
C89 O103 1.273 . S
C90 O104 1.251 . S
C90 O105 1.268 . S
C91 Nd81 2.836 . S
C91 C92 1.498 1_655 S
C91 O106 1.258 . S
C91 O107 1.239 . S
C92 C91 1.498 1_455 S
C92 C93 1.366 . S
C92 C97 1.407 . S
C93 C92 1.366 . S
C93 C94 1.392 . S
C93 H116 0.930 . S
C94 C93 1.392 . S
C94 C95 1.398 . S
C94 H117 0.929 . S
C95 C94 1.398 . S
C95 C96 1.352 . S
C96 C95 1.352 . S
C96 C97 1.384 . S
C96 H118 0.930 . S
C97 C92 1.407 . S
C97 C96 1.384 . S
C97 H119 0.929 . S
C98 O108 1.241 . S
C98 O109 1.273 . S
C99 O110 1.251 . S
C99 O111 1.268 . S
O100 Nd80 2.500 . S
O100 C82 1.258 . S
O101 Nd80 2.492 . S
O101 C82 1.239 . S
O102 Nd80 2.487 . S
O102 C89 1.241 . S
O103 Nd80 2.682 . S
O103 Nd81 2.414 . S
O103 C89 1.273 . S
O104 Nd80 2.410 . S
O104 C90 1.251 . S
O105 Nd81 2.424 . S
O105 C90 1.268 . S
O106 Nd81 2.500 . S
O106 C91 1.258 . S
O107 Nd81 2.492 . S
O107 C91 1.239 . S
O108 Nd81 2.487 . S
O108 C98 1.241 . S
O109 Nd80 2.414 . S
O109 Nd81 2.682 . S
O109 C98 1.273 . S
O110 Nd81 2.410 . S
O110 C99 1.251 . S
O111 Nd80 2.424 . S
O111 C99 1.268 . S
H112 C84 0.930 . S
H113 C85 0.929 . S
H114 C87 0.930 . S
H115 C88 0.929 . S
H116 C93 0.930 . S
H117 C94 0.929 . S
H118 C96 0.930 . S
H119 C97 0.929 . S
Nd120 C122 2.836 . S
Nd120 O140 2.500 . S
Nd120 O141 2.492 . S
Nd120 O142 2.487 . S
Nd120 O143 2.682 . S
Nd120 O144 2.410 . S
Nd120 O149 2.414 . S
Nd120 O151 2.424 . S
Nd121 C131 2.836 . S
Nd121 O143 2.414 . S
Nd121 O145 2.424 . S
Nd121 O146 2.500 . S
Nd121 O147 2.492 . S
Nd121 O148 2.487 . S
Nd121 O149 2.682 . S
Nd121 O150 2.410 . S
C122 Nd120 2.836 . S
C122 C123 1.498 1_455 S
C122 O140 1.258 . S
C122 O141 1.239 . S
C123 C122 1.498 1_655 S
C123 C124 1.366 . S
C123 C128 1.407 . S
C124 C123 1.366 . S
C124 C125 1.392 . S
C124 H152 0.930 . S
C125 C124 1.392 . S
C125 C126 1.398 . S
C125 H153 0.929 . S
C126 C125 1.398 . S
C126 C127 1.352 . S
C127 C126 1.352 . S
C127 C128 1.384 . S
C127 H154 0.930 . S
C128 C123 1.407 . S
C128 C127 1.384 . S
C128 H155 0.929 . S
C129 O142 1.241 . S
C129 O143 1.273 . S
C130 O144 1.251 . S
C130 O145 1.268 . S
C131 Nd121 2.836 . S
C131 C132 1.498 . S
C131 O146 1.258 . S
C131 O147 1.239 . S
C132 C131 1.498 . S
C132 C133 1.366 . S
C132 C137 1.407 . S
C133 C132 1.366 . S
C133 C134 1.392 . S
C133 H156 0.930 . S
C134 C133 1.392 . S
C134 C135 1.398 . S
C134 H157 0.929 . S
C135 C134 1.398 . S
C135 C136 1.352 . S
C136 C135 1.352 . S
C136 C137 1.384 . S
C136 H158 0.930 . S
C137 C132 1.407 . S
C137 C136 1.384 . S
C137 H159 0.929 . S
C138 O148 1.241 . S
C138 O149 1.273 . S
C139 O150 1.251 . S
C139 O151 1.268 . S
O140 Nd120 2.500 . S
O140 C122 1.258 . S
O141 Nd120 2.492 . S
O141 C122 1.239 . S
O142 Nd120 2.487 . S
O142 C129 1.241 . S
O143 Nd120 2.682 . S
O143 Nd121 2.414 . S
O143 C129 1.273 . S
O144 Nd120 2.410 . S
O144 C130 1.251 . S
O145 Nd121 2.424 . S
O145 C130 1.268 . S
O146 Nd121 2.500 . S
O146 C131 1.258 . S
O147 Nd121 2.492 . S
O147 C131 1.239 . S
O148 Nd121 2.487 . S
O148 C138 1.241 . S
O149 Nd120 2.414 . S
O149 Nd121 2.682 . S
O149 C138 1.273 . S
O150 Nd121 2.410 . S
O150 C139 1.251 . S
O151 Nd120 2.424 . S
O151 C139 1.268 . S
H152 C124 0.930 . S
H153 C125 0.929 . S
H154 C127 0.930 . S
H155 C128 0.929 . S
H156 C133 0.930 . S
H157 C134 0.929 . S
H158 C136 0.930 . S
H159 C137 0.929 . S
Nd160 C162 2.836 . S
Nd160 O180 2.500 . S
Nd160 O181 2.492 . S
Nd160 O182 2.487 . S
Nd160 O183 2.682 . S
Nd160 O184 2.410 . S
Nd160 O189 2.414 . S
Nd160 O191 2.424 . S
Nd161 C171 2.836 . S
Nd161 O183 2.414 . S
Nd161 O185 2.424 . S
Nd161 O186 2.500 . S
Nd161 O187 2.492 . S
Nd161 O188 2.487 . S
Nd161 O189 2.682 . S
Nd161 O190 2.410 . S
C162 Nd160 2.836 . S
C162 C163 1.498 1_565 S
C162 O180 1.258 . S
C162 O181 1.239 . S
C163 C162 1.498 1_545 S
C163 C164 1.366 . S
C163 C168 1.407 . S
C164 C163 1.366 . S
C164 C165 1.392 . S
C164 H192 0.930 . S
C165 C164 1.392 . S
C165 C166 1.398 . S
C165 H193 0.929 . S
C166 C165 1.398 . S
C166 C167 1.352 . S
C167 C166 1.352 . S
C167 C168 1.384 . S
C167 H194 0.930 . S
C168 C163 1.407 . S
C168 C167 1.384 . S
C168 H195 0.929 . S
C169 O182 1.241 . S
C169 O183 1.273 . S
C170 O184 1.251 . S
C170 O185 1.268 . S
C171 Nd161 2.836 . S
C171 C172 1.498 . S
C171 O186 1.258 . S
C171 O187 1.239 . S
C172 C171 1.498 . S
C172 C173 1.366 . S
C172 C177 1.407 . S
C173 C172 1.366 . S
C173 C174 1.392 . S
C173 H196 0.930 . S
C174 C173 1.392 . S
C174 C175 1.398 . S
C174 H197 0.929 . S
C175 C174 1.398 . S
C175 C176 1.352 . S
C176 C175 1.352 . S
C176 C177 1.384 . S
C176 H198 0.930 . S
C177 C172 1.407 . S
C177 C176 1.384 . S
C177 H199 0.929 . S
C178 O188 1.241 . S
C178 O189 1.273 . S
C179 O190 1.251 . S
C179 O191 1.268 . S
O180 Nd160 2.500 . S
O180 C162 1.258 . S
O181 Nd160 2.492 . S
O181 C162 1.239 . S
O182 Nd160 2.487 . S
O182 C169 1.241 . S
O183 Nd160 2.682 . S
O183 Nd161 2.414 . S
O183 C169 1.273 . S
O184 Nd160 2.410 . S
O184 C170 1.251 . S
O185 Nd161 2.424 . S
O185 C170 1.268 . S
O186 Nd161 2.500 . S
O186 C171 1.258 . S
O187 Nd161 2.492 . S
O187 C171 1.239 . S
O188 Nd161 2.487 . S
O188 C178 1.241 . S
O189 Nd160 2.414 . S
O189 Nd161 2.682 . S
O189 C178 1.273 . S
O190 Nd161 2.410 . S
O190 C179 1.251 . S
O191 Nd160 2.424 . S
O191 C179 1.268 . S
H192 C164 0.930 . S
H193 C165 0.929 . S
H194 C167 0.930 . S
H195 C168 0.929 . S
H196 C173 0.930 . S
H197 C174 0.929 . S
H198 C176 0.930 . S
H199 C177 0.929 . S
Nd200 C202 2.836 . S
Nd200 O220 2.500 . S
Nd200 O221 2.492 . S
Nd200 O222 2.487 . S
Nd200 O223 2.682 . S
Nd200 O224 2.410 . S
Nd200 O229 2.414 . S
Nd200 O231 2.424 . S
Nd201 C211 2.836 . S
Nd201 O223 2.414 . S
Nd201 O225 2.424 . S
Nd201 O226 2.500 . S
Nd201 O227 2.492 . S
Nd201 O228 2.487 . S
Nd201 O229 2.682 . S
Nd201 O230 2.410 . S
C202 Nd200 2.836 . S
C202 C203 1.498 . S
C202 O220 1.258 . S
C202 O221 1.239 . S
C203 C202 1.498 . S
C203 C204 1.366 . S
C203 C208 1.407 . S
C204 C203 1.366 . S
C204 C205 1.392 . S
C204 H232 0.930 . S
C205 C204 1.392 . S
C205 C206 1.398 . S
C205 H233 0.929 . S
C206 C205 1.398 . S
C206 C207 1.352 . S
C207 C206 1.352 . S
C207 C208 1.384 . S
C207 H234 0.930 . S
C208 C203 1.407 . S
C208 C207 1.384 . S
C208 H235 0.929 . S
C209 O222 1.241 . S
C209 O223 1.273 . S
C210 O224 1.251 . S
C210 O225 1.268 . S
C211 Nd201 2.836 . S
C211 C212 1.498 . S
C211 O226 1.258 . S
C211 O227 1.239 . S
C212 C211 1.498 . S
C212 C213 1.366 . S
C212 C217 1.407 . S
C213 C212 1.366 . S
C213 C214 1.392 . S
C213 H236 0.930 . S
C214 C213 1.392 . S
C214 C215 1.398 . S
C214 H237 0.929 . S
C215 C214 1.398 . S
C215 C216 1.352 . S
C216 C215 1.352 . S
C216 C217 1.384 . S
C216 H238 0.930 . S
C217 C212 1.407 . S
C217 C216 1.384 . S
C217 H239 0.929 . S
C218 O228 1.241 . S
C218 O229 1.273 . S
C219 O230 1.251 . S
C219 O231 1.268 . S
O220 Nd200 2.500 . S
O220 C202 1.258 . S
O221 Nd200 2.492 . S
O221 C202 1.239 . S
O222 Nd200 2.487 . S
O222 C209 1.241 . S
O223 Nd200 2.682 . S
O223 Nd201 2.414 . S
O223 C209 1.273 . S
O224 Nd200 2.410 . S
O224 C210 1.251 . S
O225 Nd201 2.424 . S
O225 C210 1.268 . S
O226 Nd201 2.500 . S
O226 C211 1.258 . S
O227 Nd201 2.492 . S
O227 C211 1.239 . S
O228 Nd201 2.487 . S
O228 C218 1.241 . S
O229 Nd200 2.414 . S
O229 Nd201 2.682 . S
O229 C218 1.273 . S
O230 Nd201 2.410 . S
O230 C219 1.251 . S
O231 Nd200 2.424 . S
O231 C219 1.268 . S
H232 C204 0.930 . S
H233 C205 0.929 . S
H234 C207 0.930 . S
H235 C208 0.929 . S
H236 C213 0.930 . S
H237 C214 0.929 . S
H238 C216 0.930 . S
H239 C217 0.929 . S
H240 C248 0.929 . S
H241 C250 0.930 . S
H242 C252 0.930 . S
H243 C255 0.929 . S
H244 C258 0.930 . S
H245 C260 0.960 . S
H246 C260 0.960 . S
H247 C260 0.960 1_556 S
C248 H240 0.929 . S
C248 C249 1.377 . S
C248 C250 1.384 . S
C249 C248 1.377 . S
C249 C255 1.390 . S
C250 H241 0.930 . S
C250 C248 1.384 . S
C250 C251 1.372 . S
C251 C250 1.372 . S
C251 C252 1.400 . S
C251 C256 1.490 . S
C252 H242 0.930 . S
C252 C251 1.400 . S
C252 C255 1.386 . S
H253 C269 0.930 . S
H254 C270 0.931 . S
C255 H243 0.929 . S
C255 C249 1.390 . S
C255 C252 1.386 . S
C256 C251 1.490 . S
C256 C258 1.395 1_565 S
C256 C259 1.415 . S
H257 C263 0.934 1_565 S
C258 H244 0.930 . S
C258 C256 1.395 1_545 S
C258 C261 1.424 . S
C259 C256 1.415 . S
C259 C260 1.523 1_556 S
C259 C263 1.380 1_566 S
C260 H245 0.960 . S
C260 H246 0.960 . S
C260 H247 0.960 1_554 S
C260 C259 1.523 1_554 S
C261 C258 1.424 . S
C261 C262 1.372 1_556 S
C261 C265 1.497 . S
C262 C261 1.372 1_554 S
C262 C263 1.390 . S
C262 C264 1.478 . S
C263 H257 0.934 1_545 S
C263 C259 1.380 1_544 S
C263 C262 1.390 . S
C264 C262 1.478 . S
C264 C266 1.381 . S
C264 C270 1.383 . S
C265 C261 1.497 . S
C265 H271 0.959 . S
C265 H272 0.961 . S
C265 H273 0.960 1_556 S
C266 C264 1.381 . S
C266 C267 1.394 . S
C266 H274 0.930 . S
C267 C266 1.394 . S
C267 C268 1.383 . S
C267 H275 0.929 . S
C268 C267 1.383 . S
C268 C269 1.377 . S
C269 H253 0.930 . S
C269 C268 1.377 . S
C269 C270 1.379 . S
C270 H254 0.931 . S
C270 C264 1.383 . S
C270 C269 1.379 . S
H271 C265 0.959 . S
H272 C265 0.961 . S
H273 C265 0.960 1_554 S
H274 C266 0.930 . S
H275 C267 0.929 . S
H276 C284 0.929 . S
H277 C286 0.930 . S
H278 C288 0.930 . S
H279 C291 0.929 . S
H280 C294 0.930 . S
H281 C296 0.960 . S
H282 C296 0.960 . S
H283 C296 0.960 . S
C284 H276 0.929 . S
C284 C285 1.377 . S
C284 C286 1.384 . S
C285 C284 1.377 . S
C285 C291 1.390 . S
C286 H277 0.930 . S
C286 C284 1.384 . S
C286 C287 1.372 . S
C287 C286 1.372 . S
C287 C288 1.400 . S
C287 C292 1.490 . S
C288 H278 0.930 . S
C288 C287 1.400 . S
C288 C291 1.386 . S
H289 C305 0.930 . S
H290 C306 0.931 . S
C291 H279 0.929 . S
C291 C285 1.390 . S
C291 C288 1.386 . S
C292 C287 1.490 . S
C292 C294 1.395 . S
C292 C295 1.403 . S
H293 C299 0.930 . S
C294 H280 0.930 . S
C294 C292 1.395 . S
C294 C297 1.403 . S
C295 C292 1.403 . S
C295 C296 1.524 . S
C295 C299 1.400 . S
C296 H281 0.960 . S
C296 H282 0.960 . S
C296 H283 0.960 . S
C296 C295 1.524 . S
C297 C294 1.403 . S
C297 C298 1.392 . S
C297 C301 1.495 . S
C298 C297 1.392 . S
C298 C299 1.385 . S
C298 C300 1.478 . S
C299 H293 0.930 . S
C299 C295 1.400 . S
C299 C298 1.385 . S
C300 C298 1.478 . S
C300 C302 1.381 . S
C300 C306 1.383 . S
C301 C297 1.495 . S
C301 H307 0.959 . S
C301 H308 0.961 . S
C301 H309 0.960 . S
C302 C300 1.381 . S
C302 C303 1.394 . S
C302 H310 0.930 . S
C303 C302 1.394 . S
C303 C304 1.383 . S
C303 H311 0.929 . S
C304 C303 1.383 . S
C304 C305 1.377 . S
C305 H289 0.930 . S
C305 C304 1.377 . S
C305 C306 1.379 . S
C306 H290 0.931 . S
C306 C300 1.383 . S
C306 C305 1.379 . S
H307 C301 0.959 . S
H308 C301 0.961 . S
H309 C301 0.960 . S
H310 C302 0.930 . S
H311 C303 0.929 . S
H312 C320 0.929 . S
H313 C322 0.930 . S
H314 C324 0.930 . S
H315 C327 0.929 . S
H316 C330 0.933 . S
H317 C332 0.960 . S
H318 C332 0.960 1_655 S
H319 C332 0.960 . S
C320 H312 0.929 . S
C320 C321 1.377 . S
C320 C322 1.384 . S
C321 C320 1.377 . S
C321 C327 1.390 . S
C322 H313 0.930 . S
C322 C320 1.384 . S
C322 C323 1.372 . S
C323 C322 1.372 . S
C323 C324 1.400 . S
C323 C328 1.490 . S
C324 H314 0.930 . S
C324 C323 1.400 . S
C324 C327 1.386 . S
H325 C341 0.930 . S
H326 C342 0.931 . S
C327 H315 0.929 . S
C327 C321 1.390 . S
C327 C324 1.386 . S
C328 C323 1.490 . S
C328 C330 1.413 . S
C328 C331 1.403 1_655 S
H329 C335 0.930 . S
C330 H316 0.933 . S
C330 C328 1.413 . S
C330 C333 1.383 1_554 S
C331 C328 1.403 1_455 S
C331 C332 1.524 . S
C331 C335 1.400 1_554 S
C332 H317 0.960 . S
C332 H318 0.960 1_455 S
C332 H319 0.960 . S
C332 C331 1.524 . S
C333 C330 1.383 1_556 S
C333 C334 1.392 1_655 S
C333 C337 1.495 . S
C334 C333 1.392 1_455 S
C334 C335 1.385 . S
C334 C336 1.478 . S
C335 H329 0.930 . S
C335 C331 1.400 1_556 S
C335 C334 1.385 . S
C336 C334 1.478 . S
C336 C338 1.381 . S
C336 C342 1.383 . S
C337 C333 1.495 . S
C337 H343 0.959 . S
C337 H344 0.961 . S
C337 H345 0.960 . S
C338 C336 1.381 . S
C338 C339 1.394 . S
C338 H346 0.930 . S
C339 C338 1.394 . S
C339 C340 1.383 . S
C339 H347 0.929 . S
C340 C339 1.383 . S
C340 C341 1.377 . S
C341 H325 0.930 . S
C341 C340 1.377 . S
C341 C342 1.379 . S
C342 H326 0.931 . S
C342 C336 1.383 . S
C342 C341 1.379 . S
H343 C337 0.959 . S
H344 C337 0.961 . S
H345 C337 0.960 . S
H346 C338 0.930 . S
H347 C339 0.929 . S
H348 C356 0.929 . S
H349 C358 0.930 . S
H350 C360 0.930 . S
H351 C363 0.929 . S
H352 C366 0.930 . S
H353 C368 0.960 . S
H354 C368 0.960 . S
H355 C368 0.960 . S
C356 H348 0.929 . S
C356 C357 1.377 . S
C356 C358 1.384 . S
C357 C356 1.377 . S
C357 C363 1.390 . S
C358 H349 0.930 . S
C358 C356 1.384 . S
C358 C359 1.372 . S
C359 C358 1.372 . S
C359 C360 1.400 . S
C359 C364 1.490 . S
C360 H350 0.930 . S
C360 C359 1.400 . S
C360 C363 1.386 . S
H361 C377 0.930 . S
H362 C378 0.931 . S
C363 H351 0.929 . S
C363 C357 1.390 . S
C363 C360 1.386 . S
C364 C359 1.490 . S
C364 C366 1.395 1_545 S
C364 C367 1.403 . S
H365 C371 0.930 . S
C366 H352 0.930 . S
C366 C364 1.395 1_565 S
C366 C369 1.403 . S
C367 C364 1.403 . S
C367 C368 1.524 . S
C367 C371 1.400 . S
C368 H353 0.960 . S
C368 H354 0.960 . S
C368 H355 0.960 . S
C368 C367 1.524 . S
C369 C366 1.403 . S
C369 C370 1.392 . S
C369 C373 1.495 . S
C370 C369 1.392 . S
C370 C371 1.385 1_565 S
C370 C372 1.478 . S
C371 H365 0.930 . S
C371 C367 1.400 . S
C371 C370 1.385 1_545 S
C372 C370 1.478 . S
C372 C374 1.381 . S
C372 C378 1.383 . S
C373 C369 1.495 . S
C373 H379 0.959 . S
C373 H380 0.961 . S
C373 H381 0.960 . S
C374 C372 1.381 . S
C374 C375 1.394 . S
C374 H382 0.930 . S
C375 C374 1.394 . S
C375 C376 1.383 . S
C375 H383 0.929 . S
C376 C375 1.383 . S
C376 C377 1.377 . S
C377 H361 0.930 . S
C377 C376 1.377 . S
C377 C378 1.379 . S
C378 H362 0.931 . S
C378 C372 1.383 . S
C378 C377 1.379 . S
H379 C373 0.959 . S
H380 C373 0.961 . S
H381 C373 0.960 . S
H382 C374 0.930 . S
H383 C375 0.929 . S
H384 C392 0.929 . S
H385 C394 0.930 . S
H386 C396 0.930 . S
H387 C399 0.929 . S
H388 C402 0.930 . S
H389 C404 0.960 . S
H390 C404 0.960 . S
H391 C404 0.960 . S
C392 H384 0.929 . S
C392 C393 1.377 . S
C392 C394 1.384 . S
C393 C392 1.377 . S
C393 C399 1.390 . S
C394 H385 0.930 . S
C394 C392 1.384 . S
C394 C395 1.372 . S
C395 C394 1.372 . S
C395 C396 1.400 . S
C395 C400 1.490 . S
C396 H386 0.930 . S
C396 C395 1.400 . S
C396 C399 1.386 . S
H397 C413 0.930 . S
H398 C414 0.931 . S
C399 H387 0.929 . S
C399 C393 1.390 . S
C399 C396 1.386 . S
C400 C395 1.490 . S
C400 C402 1.395 . S
C400 C403 1.403 . S
H401 C407 0.930 . S
C402 H388 0.930 . S
C402 C400 1.395 . S
C402 C405 1.403 1_556 S
C403 C400 1.403 . S
C403 C404 1.524 . S
C403 C407 1.400 1_556 S
C404 H389 0.960 . S
C404 H390 0.960 . S
C404 H391 0.960 . S
C404 C403 1.524 . S
C405 C402 1.403 1_554 S
C405 C406 1.392 . S
C405 C409 1.495 . S
C406 C405 1.392 . S
C406 C407 1.385 . S
C406 C408 1.478 . S
C407 H401 0.930 . S
C407 C403 1.400 1_554 S
C407 C406 1.385 . S
C408 C406 1.478 . S
C408 C410 1.381 . S
C408 C414 1.383 . S
C409 C405 1.495 . S
C409 H415 0.959 . S
C409 H416 0.961 . S
C409 H417 0.960 . S
C410 C408 1.381 . S
C410 C411 1.394 . S
C410 H418 0.930 . S
C411 C410 1.394 . S
C411 C412 1.383 . S
C411 H419 0.929 . S
C412 C411 1.383 . S
C412 C413 1.377 . S
C413 H397 0.930 . S
C413 C412 1.377 . S
C413 C414 1.379 . S
C414 H398 0.931 . S
C414 C408 1.383 . S
C414 C413 1.379 . S
H415 C409 0.959 . S
H416 C409 0.961 . S
H417 C409 0.960 . S
H418 C410 0.930 . S
H419 C411 0.929 . S
H420 C428 0.929 . S
H421 C430 0.930 . S
H422 C432 0.930 . S
H423 C435 0.929 . S
H424 C438 0.930 . S
H425 C440 0.952 1_455 S
H426 C440 1.000 . S
H427 C440 0.948 1_455 S
C428 H420 0.929 . S
C428 C429 1.377 . S
C428 C430 1.384 . S
C429 C428 1.377 . S
C429 C435 1.390 . S
C430 H421 0.930 . S
C430 C428 1.384 . S
C430 C431 1.372 . S
C431 C430 1.372 . S
C431 C432 1.400 . S
C431 C436 1.490 . S
C432 H422 0.930 . S
C432 C431 1.400 . S
C432 C435 1.386 . S
H433 C449 0.930 . S
H434 C450 0.931 . S
C435 H423 0.929 . S
C435 C429 1.390 . S
C435 C432 1.386 . S
C436 C431 1.490 . S
C436 C438 1.395 . S
C436 C439 1.404 . S
H437 C443 0.930 . S
C438 H424 0.930 . S
C438 C436 1.395 . S
C438 C441 1.382 1_655 S
C439 C436 1.404 . S
C439 C440 1.511 . S
C439 C443 1.394 1_655 S
C440 H425 0.952 1_655 S
C440 H426 1.000 . S
C440 H427 0.948 1_655 S
C440 C439 1.511 . S
C441 C438 1.382 1_455 S
C441 C442 1.397 . S
C441 C445 1.514 . S
C442 C441 1.397 . S
C442 C443 1.385 . S
C442 C444 1.478 . S
C443 H437 0.930 . S
C443 C439 1.394 1_455 S
C443 C442 1.385 . S
C444 C442 1.478 . S
C444 C446 1.381 . S
C444 C450 1.383 . S
C445 C441 1.514 . S
C445 H451 0.959 1_455 S
C445 H452 0.961 . S
C445 H453 0.960 1_455 S
C446 C444 1.381 . S
C446 C447 1.394 . S
C446 H454 0.930 . S
C447 C446 1.394 . S
C447 C448 1.383 . S
C447 H455 0.929 . S
C448 C447 1.383 . S
C448 C449 1.377 . S
C449 H433 0.930 . S
C449 C448 1.377 . S
C449 C450 1.379 . S
C450 H434 0.931 . S
C450 C444 1.383 . S
C450 C449 1.379 . S
H451 C445 0.959 1_655 S
H452 C445 0.961 . S
H453 C445 0.960 1_655 S
H454 C446 0.930 . S
H455 C447 0.929 . S
H456 C464 0.929 . S
H457 C466 0.930 . S
H458 C468 0.930 . S
H459 C471 0.929 . S
H460 C474 0.930 . S
H461 C476 0.960 . S
H462 C476 0.960 . S
H463 C476 0.960 . S
C464 H456 0.929 . S
C464 C465 1.377 . S
C464 C466 1.384 . S
C465 C464 1.377 . S
C465 C471 1.390 . S
C466 H457 0.930 . S
C466 C464 1.384 . S
C466 C467 1.372 . S
C467 C466 1.372 . S
C467 C468 1.400 . S
C467 C472 1.490 . S
C468 H458 0.930 . S
C468 C467 1.400 . S
C468 C471 1.386 . S
H469 C485 0.930 . S
H470 C486 0.931 . S
C471 H459 0.929 . S
C471 C465 1.390 . S
C471 C468 1.386 . S
C472 C467 1.490 . S
C472 C474 1.395 . S
C472 C475 1.403 . S
H473 C479 0.930 . S
C474 H460 0.930 . S
C474 C472 1.395 . S
C474 C477 1.403 . S
C475 C472 1.403 . S
C475 C476 1.524 . S
C475 C479 1.400 . S
C476 H461 0.960 . S
C476 H462 0.960 . S
C476 H463 0.960 . S
C476 C475 1.524 . S
C477 C474 1.403 . S
C477 C478 1.392 . S
C477 C481 1.495 . S
C478 C477 1.392 . S
C478 C479 1.385 . S
C478 C480 1.478 . S
C479 H473 0.930 . S
C479 C475 1.400 . S
C479 C478 1.385 . S
C480 C478 1.478 . S
C480 C482 1.381 . S
C480 C486 1.383 . S
C481 C477 1.495 . S
C481 H487 0.959 . S
C481 H488 0.961 . S
C481 H489 0.960 . S
C482 C480 1.381 . S
C482 C483 1.394 . S
C482 H490 0.930 . S
C483 C482 1.394 . S
C483 C484 1.383 . S
C483 H491 0.929 . S
C484 C483 1.383 . S
C484 C485 1.377 . S
C485 H469 0.930 . S
C485 C484 1.377 . S
C485 C486 1.379 . S
C486 H470 0.931 . S
C486 C480 1.383 . S
C486 C485 1.379 . S
H487 C481 0.959 . S
H488 C481 0.961 . S
H489 C481 0.960 . S
H490 C482 0.930 . S
H491 C483 0.929 . S
H492 C500 0.929 . S
H493 C502 0.930 . S
H494 C504 0.930 . S
H495 C507 0.929 . S
H496 C510 0.930 . S
H497 C512 0.960 . S
H498 C512 0.960 . S
H499 C512 0.960 . S
C500 H492 0.929 . S
C500 C501 1.377 . S
C500 C502 1.384 . S
C501 C500 1.377 . S
C501 C507 1.390 . S
C502 H493 0.930 . S
C502 C500 1.384 . S
C502 C503 1.372 . S
C503 C502 1.372 . S
C503 C504 1.400 . S
C503 C508 1.490 . S
C504 H494 0.930 . S
C504 C503 1.400 . S
C504 C507 1.386 . S
H505 C521 0.930 . S
H506 C522 0.931 . S
C507 H495 0.929 . S
C507 C501 1.390 . S
C507 C504 1.386 . S
C508 C503 1.490 . S
C508 C510 1.395 . S
C508 C511 1.403 . S
H509 C515 0.930 . S
C510 H496 0.930 . S
C510 C508 1.395 . S
C510 C513 1.403 . S
C511 C508 1.403 . S
C511 C512 1.524 . S
C511 C515 1.400 . S
C512 H497 0.960 . S
C512 H498 0.960 . S
C512 H499 0.960 . S
C512 C511 1.524 . S
C513 C510 1.403 . S
C513 C514 1.392 . S
C513 C517 1.495 . S
C514 C513 1.392 . S
C514 C515 1.385 . S
C514 C516 1.478 . S
C515 H509 0.930 . S
C515 C511 1.400 . S
C515 C514 1.385 . S
C516 C514 1.478 . S
C516 C518 1.381 . S
C516 C522 1.383 . S
C517 C513 1.495 . S
C517 H523 0.959 . S
C517 H524 0.961 . S
C517 H525 0.960 . S
C518 C516 1.381 . S
C518 C519 1.394 . S
C518 H526 0.930 . S
C519 C518 1.394 . S
C519 C520 1.383 . S
C519 H527 0.929 . S
C520 C519 1.383 . S
C520 C521 1.377 . S
C521 H505 0.930 . S
C521 C520 1.377 . S
C521 C522 1.379 . S
C522 H506 0.931 . S
C522 C516 1.383 . S
C522 C521 1.379 . S
H523 C517 0.959 . S
H524 C517 0.961 . S
H525 C517 0.960 . S
H526 C518 0.930 . S
H527 C519 0.929 . S
H528 C536 0.929 . S
H529 C538 0.930 . S
H530 C540 0.930 . S
H531 C543 0.929 . S
H532 C546 0.930 . S
H533 C548 0.960 . S
H534 C548 0.960 . S
H535 C548 0.960 . S
C536 H528 0.929 . S
C536 C537 1.377 . S
C536 C538 1.384 . S
C537 C536 1.377 . S
C537 C543 1.390 . S
C538 H529 0.930 . S
C538 C536 1.384 . S
C538 C539 1.372 . S
C539 C538 1.372 . S
C539 C540 1.400 . S
C539 C544 1.490 . S
C540 H530 0.930 . S
C540 C539 1.400 . S
C540 C543 1.386 . S
H541 C557 0.930 . S
H542 C558 0.931 . S
C543 H531 0.929 . S
C543 C537 1.390 . S
C543 C540 1.386 . S
C544 C539 1.490 . S
C544 C546 1.395 . S
C544 C547 1.403 . S
H545 C551 0.930 . S
C546 H532 0.930 . S
C546 C544 1.395 . S
C546 C549 1.403 . S
C547 C544 1.403 . S
C547 C548 1.524 . S
C547 C551 1.400 . S
C548 H533 0.960 . S
C548 H534 0.960 . S
C548 H535 0.960 . S
C548 C547 1.524 . S
C549 C546 1.403 . S
C549 C550 1.392 . S
C549 C553 1.495 . S
C550 C549 1.392 . S
C550 C551 1.385 . S
C550 C552 1.478 . S
C551 H545 0.930 . S
C551 C547 1.400 . S
C551 C550 1.385 . S
C552 C550 1.478 . S
C552 C554 1.381 . S
C552 C558 1.383 . S
C553 C549 1.495 . S
C553 H559 0.959 . S
C553 H560 0.961 . S
C553 H561 0.960 . S
C554 C552 1.381 . S
C554 C555 1.394 . S
C554 H562 0.930 . S
C555 C554 1.394 . S
C555 C556 1.383 . S
C555 H563 0.929 . S
C556 C555 1.383 . S
C556 C557 1.377 . S
C557 H541 0.930 . S
C557 C556 1.377 . S
C557 C558 1.379 . S
C558 H542 0.931 . S
C558 C552 1.383 . S
C558 C557 1.379 . S
H559 C553 0.959 . S
H560 C553 0.961 . S
H561 C553 0.960 . S
H562 C554 0.930 . S
H563 C555 0.929 . S
H564 C572 0.929 . S
H565 C574 0.930 . S
H566 C576 0.930 . S
H567 C579 0.929 . S
H568 C582 0.930 . S
H569 C584 0.960 . S
H570 C584 0.960 . S
H571 C584 0.960 . S
C572 H564 0.929 . S
C572 C573 1.377 . S
C572 C574 1.384 . S
C573 C572 1.377 . S
C573 C579 1.390 . S
C574 H565 0.930 . S
C574 C572 1.384 . S
C574 C575 1.372 . S
C575 C574 1.372 . S
C575 C576 1.400 . S
C575 C580 1.490 . S
C576 H566 0.930 . S
C576 C575 1.400 . S
C576 C579 1.386 . S
H577 C593 0.930 . S
H578 C594 0.931 . S
C579 H567 0.929 . S
C579 C573 1.390 . S
C579 C576 1.386 . S
C580 C575 1.490 . S
C580 C582 1.395 . S
C580 C583 1.403 . S
H581 C587 0.930 . S
C582 H568 0.930 . S
C582 C580 1.395 . S
C582 C585 1.403 . S
C583 C580 1.403 . S
C583 C584 1.524 . S
C583 C587 1.400 . S
C584 H569 0.960 . S
C584 H570 0.960 . S
C584 H571 0.960 . S
C584 C583 1.524 . S
C585 C582 1.403 . S
C585 C586 1.392 . S
C585 C589 1.495 . S
C586 C585 1.392 . S
C586 C587 1.385 . S
C586 C588 1.478 . S
C587 H581 0.930 . S
C587 C583 1.400 . S
C587 C586 1.385 . S
C588 C586 1.478 . S
C588 C590 1.381 . S
C588 C594 1.383 . S
C589 C585 1.495 . S
C589 H595 0.959 . S
C589 H596 0.961 . S
C589 H597 0.960 . S
C590 C588 1.381 . S
C590 C591 1.394 . S
C590 H598 0.930 . S
C591 C590 1.394 . S
C591 C592 1.383 . S
C591 H599 0.929 . S
C592 C591 1.383 . S
C592 C593 1.377 . S
C593 H577 0.930 . S
C593 C592 1.377 . S
C593 C594 1.379 . S
C594 H578 0.931 . S
C594 C588 1.383 . S
C594 C593 1.379 . S
H595 C589 0.959 . S
H596 C589 0.961 . S
H597 C589 0.960 . S
H598 C590 0.930 . S
H599 C591 0.929 . S
H600 C608 0.929 . S
H601 C610 0.930 . S
H602 C612 0.930 . S
H603 C615 0.929 . S
H604 C618 0.930 . S
H605 C620 0.960 . S
H606 C620 0.960 . S
H607 C620 0.960 . S
C608 H600 0.929 . S
C608 C609 1.377 . S
C608 C610 1.384 . S
C609 C608 1.377 . S
C609 C615 1.390 . S
C610 H601 0.930 . S
C610 C608 1.384 . S
C610 C611 1.372 . S
C611 C610 1.372 . S
C611 C612 1.400 . S
C611 C616 1.490 . S
C612 H602 0.930 . S
C612 C611 1.400 . S
C612 C615 1.386 . S
H613 C629 0.930 . S
H614 C630 0.931 . S
C615 H603 0.929 . S
C615 C609 1.390 . S
C615 C612 1.386 . S
C616 C611 1.490 . S
C616 C618 1.395 . S
C616 C619 1.403 . S
H617 C623 0.930 . S
C618 H604 0.930 . S
C618 C616 1.395 . S
C618 C621 1.403 . S
C619 C616 1.403 . S
C619 C620 1.524 . S
C619 C623 1.400 . S
C620 H605 0.960 . S
C620 H606 0.960 . S
C620 H607 0.960 . S
C620 C619 1.524 . S
C621 C618 1.403 . S
C621 C622 1.392 . S
C621 C625 1.495 . S
C622 C621 1.392 . S
C622 C623 1.385 . S
C622 C624 1.478 . S
C623 H617 0.930 . S
C623 C619 1.400 . S
C623 C622 1.385 . S
C624 C622 1.478 . S
C624 C626 1.381 . S
C624 C630 1.383 . S
C625 C621 1.495 . S
C625 H631 0.959 . S
C625 H632 0.961 . S
C625 H633 0.960 . S
C626 C624 1.381 . S
C626 C627 1.394 . S
C626 H634 0.930 . S
C627 C626 1.394 . S
C627 C628 1.383 . S
C627 H635 0.929 . S
C628 C627 1.383 . S
C628 C629 1.377 . S
C629 H613 0.930 . S
C629 C628 1.377 . S
C629 C630 1.379 . S
C630 H614 0.931 . S
C630 C624 1.383 . S
C630 C629 1.379 . S
H631 C625 0.959 . S
H632 C625 0.961 . S
H633 C625 0.960 . S
H634 C626 0.930 . S
H635 C627 0.929 . S
H636 C644 0.929 . S
H637 C646 0.930 . S
H638 C648 0.930 . S
H639 C651 0.929 . S
H640 C654 0.930 . S
H641 C656 0.960 . S
H642 C656 0.960 . S
H643 C656 0.960 . S
C644 H636 0.929 . S
C644 C645 1.377 . S
C644 C646 1.384 . S
C645 C644 1.377 . S
C645 C651 1.390 . S
C646 H637 0.930 . S
C646 C644 1.384 . S
C646 C647 1.372 . S
C647 C646 1.372 . S
C647 C648 1.400 . S
C647 C652 1.490 . S
C648 H638 0.930 . S
C648 C647 1.400 . S
C648 C651 1.386 . S
H649 C665 0.930 . S
H650 C666 0.931 . S
C651 H639 0.929 . S
C651 C645 1.390 . S
C651 C648 1.386 . S
C652 C647 1.490 . S
C652 C654 1.395 . S
C652 C655 1.403 . S
H653 C659 0.930 . S
C654 H640 0.930 . S
C654 C652 1.395 . S
C654 C657 1.403 . S
C655 C652 1.403 . S
C655 C656 1.524 . S
C655 C659 1.400 . S
C656 H641 0.960 . S
C656 H642 0.960 . S
C656 H643 0.960 . S
C656 C655 1.524 . S
C657 C654 1.403 . S
C657 C658 1.392 . S
C657 C661 1.495 . S
C658 C657 1.392 . S
C658 C659 1.385 . S
C658 C660 1.478 . S
C659 H653 0.930 . S
C659 C655 1.400 . S
C659 C658 1.385 . S
C660 C658 1.478 . S
C660 C662 1.381 . S
C660 C666 1.383 . S
C661 C657 1.495 . S
C661 H667 0.959 . S
C661 H668 0.961 . S
C661 H669 0.960 . S
C662 C660 1.381 . S
C662 C663 1.394 . S
C662 H670 0.930 . S
C663 C662 1.394 . S
C663 C664 1.383 . S
C663 H671 0.929 . S
C664 C663 1.383 . S
C664 C665 1.377 . S
C665 H649 0.930 . S
C665 C664 1.377 . S
C665 C666 1.379 . S
C666 H650 0.931 . S
C666 C660 1.383 . S
C666 C665 1.379 . S
H667 C661 0.959 . S
H668 C661 0.961 . S
H669 C661 0.960 . S
H670 C662 0.930 . S
H671 C663 0.929 . S
H672 C680 0.929 . S
H673 C682 0.930 . S
H674 C684 0.930 . S
H675 C687 0.929 . S
H676 C690 0.930 . S
H677 C692 0.960 . S
H678 C692 0.960 . S
H679 C692 0.960 . S
C680 H672 0.929 . S
C680 C681 1.377 . S
C680 C682 1.384 . S
C681 C680 1.377 . S
C681 C687 1.390 . S
C682 H673 0.930 . S
C682 C680 1.384 . S
C682 C683 1.372 . S
C683 C682 1.372 . S
C683 C684 1.400 . S
C683 C688 1.490 . S
C684 H674 0.930 . S
C684 C683 1.400 . S
C684 C687 1.386 . S
H685 C701 0.930 . S
H686 C702 0.931 . S
C687 H675 0.929 . S
C687 C681 1.390 . S
C687 C684 1.386 . S
C688 C683 1.490 . S
C688 C690 1.395 . S
C688 C691 1.403 . S
H689 C695 0.930 . S
C690 H676 0.930 . S
C690 C688 1.395 . S
C690 C693 1.403 . S
C691 C688 1.403 . S
C691 C692 1.524 . S
C691 C695 1.400 . S
C692 H677 0.960 . S
C692 H678 0.960 . S
C692 H679 0.960 . S
C692 C691 1.524 . S
C693 C690 1.403 . S
C693 C694 1.392 . S
C693 C697 1.495 . S
C694 C693 1.392 . S
C694 C695 1.385 . S
C694 C696 1.478 . S
C695 H689 0.930 . S
C695 C691 1.400 . S
C695 C694 1.385 . S
C696 C694 1.478 . S
C696 C698 1.381 . S
C696 C702 1.383 . S
C697 C693 1.495 . S
C697 H703 0.959 . S
C697 H704 0.961 . S
C697 H705 0.960 . S
C698 C696 1.381 . S
C698 C699 1.394 . S
C698 H706 0.930 . S
C699 C698 1.394 . S
C699 C700 1.383 . S
C699 H707 0.929 . S
C700 C699 1.383 . S
C700 C701 1.377 . S
C701 H685 0.930 . S
C701 C700 1.377 . S
C701 C702 1.379 . S
C702 H686 0.931 . S
C702 C696 1.383 . S
C702 C701 1.379 . S
H703 C697 0.959 . S
H704 C697 0.961 . S
H705 C697 0.960 . S
H706 C698 0.930 . S
H707 C699 0.929 . S
H708 C716 0.929 . S
H709 C718 0.930 . S
H710 C720 0.930 . S
H711 C723 0.929 . S
H712 C726 0.930 . S
H713 C728 0.960 . S
H714 C728 0.960 . S
H715 C728 0.960 . S
C716 H708 0.929 . S
C716 C717 1.377 . S
C716 C718 1.384 . S
C717 C716 1.377 . S
C717 C723 1.390 . S
C718 H709 0.930 . S
C718 C716 1.384 . S
C718 C719 1.372 . S
C719 C718 1.372 . S
C719 C720 1.400 . S
C719 C724 1.490 . S
C720 H710 0.930 . S
C720 C719 1.400 . S
C720 C723 1.386 . S
H721 C737 0.930 . S
H722 C738 0.931 . S
C723 H711 0.929 . S
C723 C717 1.390 . S
C723 C720 1.386 . S
C724 C719 1.490 . S
C724 C726 1.395 . S
C724 C727 1.403 . S
H725 C731 0.930 . S
C726 H712 0.930 . S
C726 C724 1.395 . S
C726 C729 1.403 1_655 S
C727 C724 1.403 . S
C727 C728 1.524 . S
C727 C731 1.400 1_655 S
C728 H713 0.960 . S
C728 H714 0.960 . S
C728 H715 0.960 . S
C728 C727 1.524 . S
C729 C726 1.403 1_455 S
C729 C730 1.392 . S
C729 C733 1.495 . S
C730 C729 1.392 . S
C730 C731 1.385 . S
C730 C732 1.478 . S
C731 H725 0.930 . S
C731 C727 1.400 1_455 S
C731 C730 1.385 . S
C732 C730 1.478 . S
C732 C734 1.381 . S
C732 C738 1.383 . S
C733 C729 1.495 . S
C733 H739 0.959 . S
C733 H740 0.961 . S
C733 H741 0.960 . S
C734 C732 1.381 . S
C734 C735 1.394 . S
C734 H742 0.930 . S
C735 C734 1.394 . S
C735 C736 1.383 . S
C735 H743 0.929 . S
C736 C735 1.383 . S
C736 C737 1.377 . S
C737 H721 0.930 . S
C737 C736 1.377 . S
C737 C738 1.379 . S
C738 H722 0.931 . S
C738 C732 1.383 . S
C738 C737 1.379 . S
H739 C733 0.959 . S
H740 C733 0.961 . S
H741 C733 0.960 . S
H742 C734 0.930 . S
H743 C735 0.929 . S
H744 C752 0.929 . S
H745 C754 0.930 . S
H746 C756 0.930 . S
H747 C759 0.929 . S
H748 C762 0.930 . S
H749 C764 0.960 . S
H750 C764 0.960 . S
H751 C764 0.960 . S
C752 H744 0.929 . S
C752 C753 1.377 . S
C752 C754 1.384 . S
C753 C752 1.377 . S
C753 C759 1.390 . S
C754 H745 0.930 . S
C754 C752 1.384 . S
C754 C755 1.372 . S
C755 C754 1.372 . S
C755 C756 1.400 . S
C755 C760 1.490 . S
C756 H746 0.930 . S
C756 C755 1.400 . S
C756 C759 1.386 . S
H757 C773 0.930 . S
H758 C774 0.931 . S
C759 H747 0.929 . S
C759 C753 1.390 . S
C759 C756 1.386 . S
C760 C755 1.490 . S
C760 C762 1.395 . S
C760 C763 1.403 . S
H761 C767 0.930 . S
C762 H748 0.930 . S
C762 C760 1.395 . S
C762 C765 1.403 . S
C763 C760 1.403 . S
C763 C764 1.524 . S
C763 C767 1.400 1_545 S
C764 H749 0.960 . S
C764 H750 0.960 . S
C764 H751 0.960 . S
C764 C763 1.524 . S
C765 C762 1.403 . S
C765 C766 1.392 1_545 S
C765 C769 1.495 1_545 S
C766 C765 1.392 1_565 S
C766 C767 1.385 . S
C766 C768 1.478 . S
C767 H761 0.930 . S
C767 C763 1.400 1_565 S
C767 C766 1.385 . S
C768 C766 1.478 . S
C768 C770 1.381 . S
C768 C774 1.383 . S
C769 C765 1.495 1_565 S
C769 H775 0.959 1_565 S
C769 H776 0.961 . S
C769 H777 0.960 . S
C770 C768 1.381 . S
C770 C771 1.394 . S
C770 H778 0.930 . S
C771 C770 1.394 . S
C771 C772 1.383 . S
C771 H779 0.929 . S
C772 C771 1.383 . S
C772 C773 1.377 . S
C773 H757 0.930 . S
C773 C772 1.377 . S
C773 C774 1.379 . S
C774 H758 0.931 . S
C774 C768 1.383 . S
C774 C773 1.379 . S
H775 C769 0.959 1_545 S
H776 C769 0.961 . S
H777 C769 0.960 . S
H778 C770 0.930 . S
H779 C771 0.929 . S
H780 C788 0.929 . S
H781 C790 0.930 . S
H782 C792 0.930 . S
H783 C795 0.929 . S
H784 C798 0.930 . S
H785 C800 0.960 . S
H786 C800 0.960 . S
H787 C800 0.960 . S
C788 H780 0.929 . S
C788 C789 1.377 . S
C788 C790 1.384 . S
C789 C788 1.377 . S
C789 C795 1.390 . S
C790 H781 0.930 . S
C790 C788 1.384 . S
C790 C791 1.372 . S
C791 C790 1.372 . S
C791 C792 1.400 . S
C791 C796 1.490 . S
C792 H782 0.930 . S
C792 C791 1.400 . S
C792 C795 1.386 . S
H793 C809 0.930 . S
H794 C810 0.931 . S
C795 H783 0.929 . S
C795 C789 1.390 . S
C795 C792 1.386 . S
C796 C791 1.490 . S
C796 C798 1.395 . S
C796 C799 1.403 . S
H797 C803 0.930 . S
C798 H784 0.930 . S
C798 C796 1.395 . S
C798 C801 1.403 . S
C799 C796 1.403 . S
C799 C800 1.524 . S
C799 C803 1.400 . S
C800 H785 0.960 . S
C800 H786 0.960 . S
C800 H787 0.960 . S
C800 C799 1.524 . S
C801 C798 1.403 . S
C801 C802 1.392 . S
C801 C805 1.495 . S
C802 C801 1.392 . S
C802 C803 1.385 . S
C802 C804 1.478 . S
C803 H797 0.930 . S
C803 C799 1.400 . S
C803 C802 1.385 . S
C804 C802 1.478 . S
C804 C806 1.381 . S
C804 C810 1.383 . S
C805 C801 1.495 . S
C805 H811 0.959 . S
C805 H812 0.961 . S
C805 H813 0.960 . S
C806 C804 1.381 . S
C806 C807 1.394 . S
C806 H814 0.930 . S
C807 C806 1.394 . S
C807 C808 1.383 . S
C807 H815 0.929 . S
C808 C807 1.383 . S
C808 C809 1.377 . S
C809 H793 0.930 . S
C809 C808 1.377 . S
C809 C810 1.379 . S
C810 H794 0.931 . S
C810 C804 1.383 . S
C810 C809 1.379 . S
H811 C805 0.959 . S
H812 C805 0.961 . S
H813 C805 0.960 . S
H814 C806 0.930 . S
H815 C807 0.929 . S
H816 C824 0.929 . S
H817 C826 0.930 . S
H818 C828 0.930 . S
H819 C831 0.929 . S
H820 C834 0.930 . S
H821 C836 0.960 . S
H822 C836 0.960 . S
H823 C836 0.960 . S
C824 H816 0.929 . S
C824 C825 1.377 . S
C824 C826 1.384 . S
C825 C824 1.377 . S
C825 C831 1.390 . S
C826 H817 0.930 . S
C826 C824 1.384 . S
C826 C827 1.372 . S
C827 C826 1.372 . S
C827 C828 1.400 . S
C827 C832 1.490 . S
C828 H818 0.930 . S
C828 C827 1.400 . S
C828 C831 1.386 . S
H829 C845 0.930 . S
H830 C846 0.931 . S
C831 H819 0.929 . S
C831 C825 1.390 . S
C831 C828 1.386 . S
C832 C827 1.490 . S
C832 C834 1.395 . S
C832 C835 1.403 . S
H833 C839 0.930 . S
C834 H820 0.930 . S
C834 C832 1.395 . S
C834 C837 1.403 1_455 S
C835 C832 1.403 . S
C835 C836 1.524 . S
C835 C839 1.400 1_455 S
C836 H821 0.960 . S
C836 H822 0.960 . S
C836 H823 0.960 . S
C836 C835 1.524 . S
C837 C834 1.403 1_655 S
C837 C838 1.392 . S
C837 C841 1.495 . S
C838 C837 1.392 . S
C838 C839 1.385 . S
C838 C840 1.478 . S
C839 H833 0.930 . S
C839 C835 1.400 1_655 S
C839 C838 1.385 . S
C840 C838 1.478 . S
C840 C842 1.381 . S
C840 C846 1.383 . S
C841 C837 1.495 . S
C841 H847 0.959 . S
C841 H848 0.961 . S
C841 H849 0.960 . S
C842 C840 1.381 . S
C842 C843 1.394 . S
C842 H850 0.930 . S
C843 C842 1.394 . S
C843 C844 1.383 . S
C843 H851 0.929 . S
C844 C843 1.383 . S
C844 C845 1.377 . S
C845 H829 0.930 . S
C845 C844 1.377 . S
C845 C846 1.379 . S
C846 H830 0.931 . S
C846 C840 1.383 . S
C846 C845 1.379 . S
H847 C841 0.959 . S
H848 C841 0.961 . S
H849 C841 0.960 . S
H850 C842 0.930 . S
H851 C843 0.929 . S
H852 C860 0.929 . S
H853 C862 0.930 . S
H854 C864 0.930 . S
H855 C867 0.929 . S
H856 C870 0.930 . S
H857 C872 0.960 1_565 S
H858 C872 0.960 . S
H859 C872 0.960 . S
C860 H852 0.929 . S
C860 C861 1.377 . S
C860 C862 1.384 . S
C861 C860 1.377 . S
C861 C867 1.390 . S
C862 H853 0.930 . S
C862 C860 1.384 . S
C862 C863 1.372 . S
C863 C862 1.372 . S
C863 C864 1.400 . S
C863 C868 1.490 . S
C864 H854 0.930 . S
C864 C863 1.400 . S
C864 C867 1.386 . S
H865 C881 0.930 . S
H866 C882 0.931 . S
C867 H855 0.929 . S
C867 C861 1.390 . S
C867 C864 1.386 . S
C868 C863 1.490 . S
C868 C870 1.395 . S
C868 C871 1.383 1_545 S
H869 C875 0.930 . S
C870 H856 0.930 . S
C870 C868 1.395 . S
C870 C873 1.403 1_545 S
C871 C868 1.383 1_565 S
C871 C872 1.524 1_565 S
C871 C875 1.421 . S
C872 H857 0.960 1_545 S
C872 H858 0.960 . S
C872 H859 0.960 . S
C872 C871 1.524 1_545 S
C873 C870 1.403 1_565 S
C873 C874 1.392 . S
C873 C877 1.495 . S
C874 C873 1.392 . S
C874 C875 1.385 . S
C874 C876 1.478 . S
C875 H869 0.930 . S
C875 C871 1.421 . S
C875 C874 1.385 . S
C876 C874 1.478 . S
C876 C878 1.381 . S
C876 C882 1.383 . S
C877 C873 1.495 . S
C877 H883 0.959 . S
C877 H884 0.961 . S
C877 H885 0.960 . S
C878 C876 1.381 . S
C878 C879 1.394 . S
C878 H886 0.930 . S
C879 C878 1.394 . S
C879 C880 1.383 . S
C879 H887 0.929 . S
C880 C879 1.383 . S
C880 C881 1.377 . S
C881 H865 0.930 . S
C881 C880 1.377 . S
C881 C882 1.379 . S
C882 H866 0.931 . S
C882 C876 1.383 . S
C882 C881 1.379 . S
H883 C877 0.959 . S
H884 C877 0.961 . S
H885 C877 0.960 . S
H886 C878 0.930 . S
H887 C879 0.929 . S
C249 C178 2.579 . S
C268 C18 2.261 . S
C285 C209 2.235 . S
C304 C49 2.570 . S
C321 C98 2.242 . S
C340 C138 2.570 . S
C357 C9 2.580 . S
C376 C169 2.267 . S
C393 C218 2.578 . S
C412 C58 2.236 . S
C429 C89 2.579 . S
C448 C129 2.224 . S
C465 C10 2.034 . S
C484 C86 1.996 . S
C501 C50 2.030 . S
C520 C6 1.957 . S
C537 C90 2.031 . S
C556 C46 1.971 . S
C573 C139 2.032 . S
C592 C175 1.996 . S
C609 C179 2.035 . S
C628 C215 1.963 . S
C645 C135 1.977 . S
C664 C219 2.025 . S
C681 C19 0.914 . S
C700 C95 0.927 . S
C717 C59 0.922 . S
C736 C15 0.952 . S
C753 C99 0.905 . S
C772 C55 0.915 . S
C789 C130 0.905 . S
C808 C166 0.938 . S
C825 C170 0.909 . S
C844 C206 0.951 . S
C861 C126 0.932 . S
C880 C210 0.903 . S
