# Generated by pormake.
# Topology cbo, (4)-cn, num edge types: 1
# Building blocks:
#     Node 0, Type 0, BuildingBlock: QUQFOY_clean_sbu_1, # of connection points: 4
#     Node 1, Type 0, BuildingBlock: QUQFOY_clean_sbu_1, # of connection points: 4
#     Node 2, Type 0, BuildingBlock: QUQFOY_clean_sbu_1, # of connection points: 4
#     Node 3, Type 0, BuildingBlock: QUQFOY_clean_sbu_1, # of connection points: 4
#     Node 4, Type 0, BuildingBlock: QUQFOY_clean_sbu_1, # of connection points: 4
#     Node 5, Type 0, BuildingBlock: QUQFOY_clean_sbu_1, # of connection points: 4
#     Node 6, Type 0, BuildingBlock: QUQFOY_clean_sbu_1, # of connection points: 4
#     Node 7, Type 0, BuildingBlock: QUQFOY_clean_sbu_1, # of connection points: 4
#     Node 8, Type 0, BuildingBlock: QUQFOY_clean_sbu_1, # of connection points: 4
#     Node 9, Type 0, BuildingBlock: QUQFOY_clean_sbu_1, # of connection points: 4
#     Node 10, Type 0, BuildingBlock: QUQFOY_clean_sbu_1, # of connection points: 4
#     Node 11, Type 0, BuildingBlock: QUQFOY_clean_sbu_1, # of connection points: 4
#     Node 12, Type 0, BuildingBlock: QUQFOY_clean_sbu_1, # of connection points: 4
#     Node 13, Type 0, BuildingBlock: QUQFOY_clean_sbu_1, # of connection points: 4
#     Node 14, Type 0, BuildingBlock: QUQFOY_clean_sbu_1, # of connection points: 4
#     Node 15, Type 0, BuildingBlock: QUQFOY_clean_sbu_1, # of connection points: 4
#     Node 16, Type 0, BuildingBlock: QUQFOY_clean_sbu_1, # of connection points: 4
#     Node 17, Type 0, BuildingBlock: QUQFOY_clean_sbu_1, # of connection points: 4
#     Node 18, Type 0, BuildingBlock: QUQFOY_clean_sbu_1, # of connection points: 4
#     Node 19, Type 0, BuildingBlock: QUQFOY_clean_sbu_1, # of connection points: 4
#     Node 20, Type 0, BuildingBlock: QUQFOY_clean_sbu_1, # of connection points: 4
#     Node 21, Type 0, BuildingBlock: QUQFOY_clean_sbu_1, # of connection points: 4
#     Node 22, Type 0, BuildingBlock: QUQFOY_clean_sbu_1, # of connection points: 4
#     Node 23, Type 0, BuildingBlock: QUQFOY_clean_sbu_1, # of connection points: 4
#     Edge 24, Type (0, 0), BuildingBlock: UVAHIK_clean_linker_0, # of connection points: 2
#     Edge 25, Type (0, 0), BuildingBlock: UVAHIK_clean_linker_0, # of connection points: 2
#     Edge 26, Type (0, 0), BuildingBlock: UVAHIK_clean_linker_0, # of connection points: 2
#     Edge 27, Type (0, 0), BuildingBlock: UVAHIK_clean_linker_0, # of connection points: 2
#     Edge 28, Type (0, 0), BuildingBlock: UVAHIK_clean_linker_0, # of connection points: 2
#     Edge 29, Type (0, 0), BuildingBlock: UVAHIK_clean_linker_0, # of connection points: 2
#     Edge 30, Type (0, 0), BuildingBlock: UVAHIK_clean_linker_0, # of connection points: 2
#     Edge 31, Type (0, 0), BuildingBlock: UVAHIK_clean_linker_0, # of connection points: 2
#     Edge 32, Type (0, 0), BuildingBlock: UVAHIK_clean_linker_0, # of connection points: 2
#     Edge 33, Type (0, 0), BuildingBlock: UVAHIK_clean_linker_0, # of connection points: 2
#     Edge 34, Type (0, 0), BuildingBlock: UVAHIK_clean_linker_0, # of connection points: 2
#     Edge 35, Type (0, 0), BuildingBlock: UVAHIK_clean_linker_0, # of connection points: 2
#     Edge 36, Type (0, 0), BuildingBlock: UVAHIK_clean_linker_0, # of connection points: 2
#     Edge 37, Type (0, 0), BuildingBlock: UVAHIK_clean_linker_0, # of connection points: 2
#     Edge 38, Type (0, 0), BuildingBlock: UVAHIK_clean_linker_0, # of connection points: 2
#     Edge 39, Type (0, 0), BuildingBlock: UVAHIK_clean_linker_0, # of connection points: 2
#     Edge 40, Type (0, 0), BuildingBlock: UVAHIK_clean_linker_0, # of connection points: 2
#     Edge 41, Type (0, 0), BuildingBlock: UVAHIK_clean_linker_0, # of connection points: 2
#     Edge 42, Type (0, 0), BuildingBlock: UVAHIK_clean_linker_0, # of connection points: 2
#     Edge 43, Type (0, 0), BuildingBlock: UVAHIK_clean_linker_0, # of connection points: 2
#     Edge 44, Type (0, 0), BuildingBlock: UVAHIK_clean_linker_0, # of connection points: 2
#     Edge 45, Type (0, 0), BuildingBlock: UVAHIK_clean_linker_0, # of connection points: 2
#     Edge 46, Type (0, 0), BuildingBlock: UVAHIK_clean_linker_0, # of connection points: 2
#     Edge 47, Type (0, 0), BuildingBlock: UVAHIK_clean_linker_0, # of connection points: 2
#     Edge 48, Type (0, 0), BuildingBlock: UVAHIK_clean_linker_0, # of connection points: 2
#     Edge 49, Type (0, 0), BuildingBlock: UVAHIK_clean_linker_0, # of connection points: 2
#     Edge 50, Type (0, 0), BuildingBlock: UVAHIK_clean_linker_0, # of connection points: 2
#     Edge 51, Type (0, 0), BuildingBlock: UVAHIK_clean_linker_0, # of connection points: 2
#     Edge 52, Type (0, 0), BuildingBlock: UVAHIK_clean_linker_0, # of connection points: 2
#     Edge 53, Type (0, 0), BuildingBlock: UVAHIK_clean_linker_0, # of connection points: 2
#     Edge 54, Type (0, 0), BuildingBlock: UVAHIK_clean_linker_0, # of connection points: 2
#     Edge 55, Type (0, 0), BuildingBlock: UVAHIK_clean_linker_0, # of connection points: 2
#     Edge 56, Type (0, 0), BuildingBlock: UVAHIK_clean_linker_0, # of connection points: 2
#     Edge 57, Type (0, 0), BuildingBlock: UVAHIK_clean_linker_0, # of connection points: 2
#     Edge 58, Type (0, 0), BuildingBlock: UVAHIK_clean_linker_0, # of connection points: 2
#     Edge 59, Type (0, 0), BuildingBlock: UVAHIK_clean_linker_0, # of connection points: 2
#     Edge 60, Type (0, 0), BuildingBlock: UVAHIK_clean_linker_0, # of connection points: 2
#     Edge 61, Type (0, 0), BuildingBlock: UVAHIK_clean_linker_0, # of connection points: 2
#     Edge 62, Type (0, 0), BuildingBlock: UVAHIK_clean_linker_0, # of connection points: 2
#     Edge 63, Type (0, 0), BuildingBlock: UVAHIK_clean_linker_0, # of connection points: 2
#     Edge 64, Type (0, 0), BuildingBlock: UVAHIK_clean_linker_0, # of connection points: 2
#     Edge 65, Type (0, 0), BuildingBlock: UVAHIK_clean_linker_0, # of connection points: 2
#     Edge 66, Type (0, 0), BuildingBlock: UVAHIK_clean_linker_0, # of connection points: 2
#     Edge 67, Type (0, 0), BuildingBlock: UVAHIK_clean_linker_0, # of connection points: 2
#     Edge 68, Type (0, 0), BuildingBlock: UVAHIK_clean_linker_0, # of connection points: 2
#     Edge 69, Type (0, 0), BuildingBlock: UVAHIK_clean_linker_0, # of connection points: 2
#     Edge 70, Type (0, 0), BuildingBlock: UVAHIK_clean_linker_0, # of connection points: 2
#     Edge 71, Type (0, 0), BuildingBlock: UVAHIK_clean_linker_0, # of connection points: 2
# Relax obj value: 0.100
# Max RMSD: 0.122
# Mean RMSD: 0.122
data_MOF--net-cbo--node1-QUQFOY_clean_sbu_1--edge1-UVAHIK_clean_linker_0
_symmetry_space_group_name_H-M    P1
_symmetry_Int_Tables_number       1
_symmetry_cell_setting            triclinic
loop_
_symmetry_equiv_pos_as_xyz
'x, y, z'
_cell_length_a     68.9166
_cell_length_b     68.909605
_cell_length_c     68.862391
_cell_angle_alpha  90.005474
_cell_angle_beta   90.00747
_cell_angle_gamma 90.004675
loop_
_atom_site_label
_atom_site_type_symbol
_atom_site_fract_x
_atom_site_fract_y
_atom_site_fract_z
_atom_type_partial_charge
O0 O 0.12711 0.20245 0.3232 0.0
Cd1 Cd 0.12835 0.17586 0.33706 0.0
Cd2 Cd 0.14729 0.19733 0.36282 0.0
O3 O 0.13795 0.2209 0.34692 0.0
O4 O 0.10975 0.16024 0.32143 0.0
O5 O 0.10495 0.16707 0.35239 0.0
C6 C 0.09867 0.15941 0.33647 0.0
C7 C 0.14099 0.19425 0.39585 0.0
C8 C 0.13092 0.21919 0.32996 0.0
C9 C 0.17055 0.16754 0.3417 0.0
O10 O 0.17111 0.18287 0.35192 0.0
O11 O 0.15438 0.16092 0.33571 0.0
O12 O 0.15366 0.20648 0.38945 0.0
O13 O 0.13145 0.184 0.38336 0.0
O14 O 0.37872 0.80032 0.82262 0.0
Cd15 Cd 0.37525 0.82673 0.83623 0.0
Cd16 Cd 0.35738 0.80412 0.86216 0.0
O17 O 0.36667 0.78117 0.8452 0.0
O18 O 0.39341 0.84355 0.8213 0.0
O19 O 0.39736 0.83702 0.85246 0.0
C20 C 0.4038 0.84503 0.83678 0.0
C21 C 0.36503 0.80669 0.89495 0.0
C22 C 0.37471 0.78341 0.82875 0.0
C23 C 0.3325 0.83312 0.84156 0.0
O24 O 0.3329 0.81848 0.85279 0.0
O25 O 0.34815 0.83963 0.83422 0.0
O26 O 0.3524 0.79426 0.88885 0.0
O27 O 0.37382 0.81736 0.88226 0.0
O28 O 0.62404 0.30359 0.68077 0.0
Cd29 Cd 0.6264 0.32996 0.66687 0.0
Cd30 Cd 0.6459 0.30788 0.64158 0.0
O31 O 0.63736 0.28472 0.65869 0.0
O32 O 0.60789 0.34609 0.68207 0.0
O33 O 0.60359 0.33937 0.65101 0.0
C34 C 0.59714 0.34716 0.6668 0.0
C35 C 0.63883 0.30967 0.60861 0.0
C36 C 0.62895 0.2868 0.67497 0.0
C37 C 0.6689 0.33829 0.66231 0.0
O38 O 0.6695 0.32351 0.65127 0.0
O39 O 0.65278 0.34413 0.66917 0.0
O40 O 0.65189 0.29793 0.61514 0.0
O41 O 0.62928 0.32008 0.62096 0.0
O42 O 0.87598 0.70247 0.17643 0.0
Cd43 Cd 0.87464 0.67532 0.16384 0.0
Cd44 Cd 0.85209 0.69555 0.13914 0.0
O45 O 0.8596 0.71979 0.15512 0.0
O46 O 0.894 0.66113 0.17989 0.0
O47 O 0.89784 0.66587 0.14845 0.0
C48 C 0.90467 0.65939 0.16466 0.0
C49 C 0.85808 0.69315 0.10598 0.0
C50 C 0.86937 0.71871 0.17073 0.0
C51 C 0.83251 0.66412 0.16176 0.0
O52 O 0.83028 0.67853 0.15047 0.0
O53 O 0.84936 0.6596 0.16783 0.0
O54 O 0.84399 0.70356 0.11263 0.0
O55 O 0.86923 0.68446 0.11835 0.0
O56 O 0.31854 0.1278 0.19605 0.0
Cd57 Cd 0.335 0.12854 0.17105 0.0
Cd58 Cd 0.35938 0.14635 0.19441 0.0
O59 O 0.34161 0.13632 0.21646 0.0
O60 O 0.3222 0.10943 0.15346 0.0
O61 O 0.35183 0.10542 0.1651 0.0
C62 C 0.33747 0.09875 0.15506 0.0
C63 C 0.39233 0.13924 0.19304 0.0
C64 C 0.32439 0.13053 0.21335 0.0
C65 C 0.34103 0.17057 0.1635 0.0
O66 O 0.35003 0.17075 0.17963 0.0
O67 O 0.3354 0.15456 0.15625 0.0
O68 O 0.38559 0.15168 0.20535 0.0
O69 O 0.38019 0.13039 0.18181 0.0
O70 O 0.17798 0.872 0.70673 0.0
Cd71 Cd 0.16547 0.87129 0.67949 0.0
Cd72 Cd 0.13947 0.8503 0.69925 0.0
O73 O 0.15501 0.85774 0.72379 0.0
O74 O 0.18161 0.89062 0.66534 0.0
O75 O 0.15023 0.89466 0.67035 0.0
C76 C 0.16644 0.90141 0.66379 0.0
C77 C 0.1065 0.85688 0.6961 0.0
C78 C 0.17137 0.86622 0.72296 0.0
C79 C 0.16196 0.82936 0.66855 0.0
O80 O 0.15051 0.82779 0.68294 0.0
O81 O 0.1686 0.8459 0.66375 0.0
O82 O 0.11268 0.84287 0.7069 0.0
O83 O 0.11923 0.86764 0.68746 0.0
O84 O 0.81989 0.37654 0.80195 0.0
Cd85 Cd 0.83418 0.37513 0.82827 0.0
Cd86 Cd 0.86001 0.35623 0.8069 0.0
O87 O 0.84348 0.36524 0.78357 0.0
O88 O 0.82016 0.39424 0.84487 0.0
O89 O 0.85071 0.39803 0.83586 0.0
C90 C 0.83561 0.40477 0.84468 0.0
C91 C 0.89297 0.36306 0.80927 0.0
C92 C 0.82658 0.37245 0.78524 0.0
C93 C 0.83944 0.33289 0.83697 0.0
O94 O 0.84999 0.33231 0.82184 0.0
O95 O 0.8329 0.34904 0.8431 0.0
O96 O 0.88654 0.35024 0.79721 0.0
O97 O 0.88054 0.37247 0.81971 0.0
O98 O 0.68214 0.62413 0.30434 0.0
Cd99 Cd 0.66765 0.62703 0.33037 0.0
Cd100 Cd 0.64208 0.64494 0.30746 0.0
O101 O 0.65956 0.63571 0.28486 0.0
O102 O 0.68131 0.60861 0.34807 0.0
O103 O 0.65085 0.60468 0.33884 0.0
C104 C 0.66579 0.59818 0.3481 0.0
C105 C 0.60962 0.6363 0.31041 0.0
C106 C 0.67615 0.62804 0.28733 0.0
C107 C 0.66177 0.66968 0.33709 0.0
O108 O 0.65103 0.66944 0.32208 0.0
O109 O 0.66889 0.65396 0.34369 0.0
O110 O 0.61511 0.64908 0.29785 0.0
O111 O 0.62274 0.62793 0.32088 0.0
O112 O 0.20153 0.32264 0.12603 0.0
Cd113 Cd 0.17494 0.33612 0.12866 0.0
Cd114 Cd 0.19627 0.36192 0.1482 0.0
O115 O 0.21966 0.34519 0.13967 0.0
O116 O 0.15824 0.32207 0.10964 0.0
O117 O 0.16618 0.35297 0.10639 0.0
C118 C 0.15767 0.33776 0.09949 0.0
C119 C 0.19398 0.39476 0.14082 0.0
C120 C 0.21811 0.32893 0.1311 0.0
C121 C 0.1664 0.3407 0.17126 0.0
O122 O 0.18085 0.35214 0.17187 0.0
O123 O 0.16087 0.33356 0.15513 0.0
O124 O 0.20584 0.38856 0.15394 0.0
O125 O 0.18372 0.38217 0.13144 0.0
O126 O 0.70322 0.17858 0.87894 0.0
Cd127 Cd 0.67592 0.16642 0.87679 0.0
Cd128 Cd 0.69611 0.14139 0.85481 0.0
O129 O 0.72039 0.15714 0.86255 0.0
O130 O 0.66133 0.18167 0.89655 0.0
O131 O 0.66583 0.15006 0.89899 0.0
C132 C 0.65919 0.16594 0.9064 0.0
C133 C 0.69319 0.10839 0.86123 0.0
C134 C 0.71944 0.17268 0.87244 0.0
C135 C 0.66554 0.16442 0.83439 0.0
O136 O 0.67964 0.15268 0.83257 0.0
O137 O 0.6609 0.17087 0.85107 0.0
O138 O 0.7039 0.11469 0.8472 0.0
O139 O 0.68448 0.12101 0.87205 0.0
O140 O 0.7981 0.82316 0.37382 0.0
Cd141 Cd 0.82485 0.83662 0.37256 0.0
Cd142 Cd 0.80425 0.86242 0.35248 0.0
O143 O 0.78036 0.84634 0.36077 0.0
O144 O 0.84064 0.82242 0.39222 0.0
O145 O 0.83271 0.85335 0.39528 0.0
C146 C 0.8409 0.83808 0.40244 0.0
C147 C 0.80692 0.89547 0.35897 0.0
C148 C 0.78163 0.82977 0.36879 0.0
C149 C 0.83463 0.84069 0.3304 0.0
O150 O 0.81994 0.85178 0.32934 0.0
O151 O 0.84011 0.83412 0.34677 0.0
O152 O 0.79575 0.88907 0.34535 0.0
O153 O 0.8162 0.88293 0.36939 0.0
O154 O 0.30195 0.67716 0.62639 0.0
Cd155 Cd 0.32886 0.6641 0.62793 0.0
Cd156 Cd 0.30804 0.63928 0.64953 0.0
O157 O 0.28414 0.65567 0.64197 0.0
O158 O 0.34364 0.67977 0.60869 0.0
O159 O 0.33813 0.64847 0.60483 0.0
C160 C 0.34507 0.66449 0.59804 0.0
C161 C 0.3101 0.60633 0.64255 0.0
C162 C 0.28554 0.67147 0.63258 0.0
C163 C 0.33943 0.66098 0.67016 0.0
O164 O 0.32485 0.64983 0.6719 0.0
O165 O 0.34429 0.66738 0.65352 0.0
O166 O 0.29958 0.61267 0.65672 0.0
O167 O 0.31914 0.6189 0.63193 0.0
O168 O 0.87352 0.80246 0.67924 0.0
Cd169 Cd 0.87269 0.8292 0.66575 0.0
Cd170 Cd 0.85176 0.80902 0.64018 0.0
O171 O 0.85979 0.78498 0.65624 0.0
O172 O 0.89252 0.84457 0.68013 0.0
O173 O 0.8956 0.83681 0.64915 0.0
C174 C 0.9028 0.8448 0.66451 0.0
C175 C 0.85753 0.81118 0.60692 0.0
C176 C 0.86804 0.78609 0.67271 0.0
C177 C 0.83077 0.83997 0.66225 0.0
O178 O 0.82918 0.82532 0.65114 0.0
O179 O 0.84734 0.84501 0.66861 0.0
O180 O 0.8438 0.80044 0.61378 0.0
O181 O 0.86846 0.82034 0.61912 0.0
O182 O 0.62531 0.20137 0.18146 0.0
Cd183 Cd 0.6267 0.17439 0.16862 0.0
Cd184 Cd 0.64542 0.19483 0.14158 0.0
O185 O 0.63741 0.21892 0.15765 0.0
O186 O 0.60795 0.15918 0.1845 0.0
O187 O 0.60359 0.16499 0.15325 0.0
C188 C 0.59711 0.15781 0.16932 0.0
C189 C 0.63715 0.19119 0.10904 0.0
C190 C 0.6299 0.2178 0.17447 0.0
C191 C 0.66882 0.16521 0.16307 0.0
O192 O 0.6692 0.17951 0.1514 0.0
O193 O 0.65287 0.15985 0.17067 0.0
O194 O 0.65054 0.20316 0.11438 0.0
O195 O 0.62799 0.18162 0.12233 0.0
O196 O 0.37971 0.70173 0.32155 0.0
Cd197 Cd 0.37776 0.67485 0.3346 0.0
Cd198 Cd 0.35798 0.6955 0.3606 0.0
O199 O 0.36681 0.71941 0.34482 0.0
O200 O 0.39695 0.65941 0.31952 0.0
O201 O 0.40014 0.66527 0.3509 0.0
C202 C 0.40712 0.65787 0.33514 0.0
C203 C 0.36448 0.69254 0.39359 0.0
C204 C 0.37492 0.71821 0.3283 0.0
C205 C 0.3354 0.66579 0.33855 0.0
O206 O 0.3345 0.68036 0.34986 0.0
O207 O 0.35168 0.66024 0.33185 0.0
O208 O 0.35147 0.70444 0.38727 0.0
O209 O 0.37424 0.68256 0.38105 0.0
O210 O 0.12584 0.3001 0.82458 0.0
Cd211 Cd 0.1273 0.32738 0.83679 0.0
Cd212 Cd 0.14851 0.30742 0.86279 0.0
O213 O 0.14154 0.28309 0.84665 0.0
O214 O 0.10801 0.34172 0.82078 0.0
O215 O 0.10431 0.33707 0.85228 0.0
C216 C 0.09745 0.34358 0.83608 0.0
C217 C 0.14184 0.30957 0.89586 0.0
C218 C 0.13223 0.28394 0.83074 0.0
C219 C 0.16935 0.33824 0.84028 0.0
O220 O 0.17081 0.32433 0.8523 0.0
O221 O 0.15294 0.34259 0.83303 0.0
O222 O 0.15603 0.29918 0.8894 0.0
O223 O 0.13096 0.31837 0.88334 0.0
O224 O 0.6775 0.87875 0.80213 0.0
Cd225 Cd 0.66305 0.87624 0.82826 0.0
Cd226 Cd 0.63849 0.8565 0.80574 0.0
O227 O 0.65552 0.86576 0.78285 0.0
O228 O 0.67714 0.89487 0.8454 0.0
O229 O 0.64655 0.89889 0.83672 0.0
C230 C 0.6617 0.9054 0.84561 0.0
C231 C 0.60604 0.86489 0.80935 0.0
C232 C 0.6718 0.87412 0.7852 0.0
C233 C 0.65886 0.83348 0.83609 0.0
O234 O 0.6485 0.83271 0.82084 0.0
O235 O 0.66491 0.84976 0.8424 0.0
O236 O 0.61133 0.85187 0.79692 0.0
O237 O 0.61934 0.87357 0.81933 0.0
O238 O 0.82171 0.12685 0.30031 0.0
Cd239 Cd 0.83614 0.12839 0.32653 0.0
Cd240 Cd 0.86168 0.1474 0.30495 0.0
O241 O 0.84507 0.13825 0.28172 0.0
O242 O 0.82216 0.10938 0.34328 0.0
O243 O 0.85268 0.10553 0.3342 0.0
C244 C 0.8376 0.09884 0.3431 0.0
C245 C 0.89456 0.14036 0.30755 0.0
C246 C 0.82823 0.13095 0.28354 0.0
C247 C 0.8412 0.17072 0.33505 0.0
O248 O 0.85163 0.17133 0.31984 0.0
O249 O 0.83482 0.15454 0.34127 0.0
O250 O 0.8883 0.15315 0.29536 0.0
O251 O 0.882 0.13111 0.31796 0.0
O252 O 0.18003 0.62604 0.20207 0.0
Cd253 Cd 0.16636 0.62839 0.17551 0.0
Cd254 Cd 0.14161 0.6486 0.1974 0.0
O255 O 0.15809 0.63976 0.22082 0.0
O256 O 0.18182 0.60982 0.15966 0.0
O257 O 0.15072 0.60546 0.16596 0.0
C258 C 0.16662 0.59903 0.15841 0.0
C259 C 0.10882 0.6415 0.19452 0.0
C260 C 0.17421 0.63106 0.21884 0.0
C261 C 0.16273 0.67103 0.16705 0.0
O262 O 0.15205 0.67203 0.18207 0.0
O263 O 0.16888 0.65466 0.16109 0.0
O264 O 0.11492 0.65455 0.20651 0.0
O265 O 0.1215 0.63201 0.18446 0.0
O266 O 0.31901 0.37546 0.69859 0.0
Cd267 Cd 0.33361 0.37335 0.67256 0.0
Cd268 Cd 0.36009 0.35641 0.6948 0.0
O269 O 0.3428 0.36565 0.71756 0.0
O270 O 0.32023 0.39214 0.65508 0.0
O271 O 0.35057 0.39581 0.66489 0.0
C272 C 0.33579 0.40253 0.65552 0.0
C273 C 0.39285 0.36432 0.69275 0.0
C274 C 0.32569 0.37223 0.71548 0.0
C275 C 0.34053 0.33111 0.66544 0.0
O276 O 0.35131 0.33165 0.68041 0.0
O277 O 0.33303 0.34665 0.65884 0.0
O278 O 0.38666 0.35173 0.70517 0.0
O279 O 0.38028 0.3729 0.6818 0.0
O280 O 0.79847 0.68041 0.87479 0.0
Cd281 Cd 0.82507 0.66686 0.87257 0.0
Cd282 Cd 0.80364 0.6413 0.85273 0.0
O283 O 0.78018 0.65818 0.86081 0.0
O284 O 0.84146 0.6809 0.89185 0.0
O285 O 0.83353 0.64998 0.89495 0.0
C286 C 0.84192 0.6652 0.90199 0.0
C287 C 0.80566 0.60832 0.85975 0.0
C288 C 0.78187 0.67439 0.86946 0.0
C289 C 0.83411 0.66251 0.83017 0.0
O290 O 0.81961 0.65114 0.82946 0.0
O291 O 0.83956 0.66959 0.84634 0.0
O292 O 0.79456 0.61471 0.84607 0.0
O293 O 0.81519 0.62085 0.86997 0.0
O294 O 0.30238 0.82339 0.12681 0.0
Cd295 Cd 0.32944 0.83605 0.12871 0.0
Cd296 Cd 0.30857 0.86209 0.14889 0.0
O297 O 0.28465 0.8456 0.14148 0.0
O298 O 0.34451 0.82012 0.10992 0.0
O299 O 0.33921 0.85143 0.10569 0.0
C300 C 0.34619 0.8353 0.09916 0.0
C301 C 0.31064 0.89497 0.14155 0.0
C302 C 0.28596 0.82952 0.13254 0.0
C303 C 0.33919 0.84054 0.17099 0.0
O304 O 0.32496 0.85224 0.17187 0.0
O305 O 0.34413 0.83313 0.1548 0.0
O306 O 0.29987 0.88875 0.15556 0.0
O307 O 0.31989 0.88231 0.13123 0.0
O308 O 0.20594 0.17753 0.62837 0.0
Cd309 Cd 0.17888 0.16478 0.62987 0.0
Cd310 Cd 0.19922 0.13863 0.64996 0.0
O311 O 0.22337 0.1541 0.64131 0.0
O312 O 0.16394 0.18071 0.61095 0.0
O313 O 0.16938 0.14942 0.60671 0.0
C314 C 0.16241 0.16553 0.60014 0.0
C315 C 0.19601 0.10564 0.64367 0.0
C316 C 0.22233 0.17064 0.63324 0.0
C317 C 0.1695 0.16094 0.67223 0.0
O318 O 0.18407 0.14967 0.67328 0.0
O319 O 0.16398 0.16748 0.65584 0.0
O320 O 0.20785 0.11196 0.65674 0.0
O321 O 0.18623 0.11818 0.63371 0.0
O322 O 0.70315 0.32362 0.3762 0.0
Cd323 Cd 0.67593 0.33594 0.3743 0.0
Cd324 Cd 0.69648 0.36224 0.35413 0.0
O325 O 0.72058 0.34594 0.36135 0.0
O326 O 0.66107 0.31999 0.39328 0.0
O327 O 0.66604 0.3514 0.39722 0.0
C328 C 0.65926 0.33525 0.40392 0.0
C329 C 0.6942 0.39509 0.36163 0.0
C330 C 0.71947 0.32988 0.37034 0.0
C331 C 0.6661 0.34032 0.33202 0.0
O332 O 0.68012 0.35227 0.33118 0.0
O333 O 0.66129 0.33277 0.34819 0.0
O334 O 0.70491 0.38901 0.3475 0.0
O335 O 0.68513 0.38231 0.37196 0.0
C336 C 0.14349 0.31907 0.18949 0.0
C337 C 0.15723 0.33415 0.18961 0.0
C338 C 0.13698 0.31091 0.20689 0.0
C339 C 0.15386 0.30349 0.25693 0.0
H340 H 0.1029 0.28061 0.26364 0.0
C341 C 0.13708 0.25433 0.32237 0.0
C342 C 0.12876 0.23641 0.31724 0.0
C343 C 0.13741 0.26969 0.30908 0.0
C344 C 0.11718 0.28695 0.26199 0.0
H345 H 0.17388 0.35337 0.20822 0.0
H346 H 0.16228 0.33932 0.23856 0.0
H347 H 0.10909 0.30183 0.23591 0.0
H348 H 0.11316 0.22103 0.29459 0.0
H349 H 0.11382 0.2477 0.27151 0.0
H350 H 0.16215 0.28818 0.28263 0.0
C351 C 0.15686 0.33352 0.22498 0.0
C352 C 0.12074 0.29908 0.2461 0.0
C353 C 0.16343 0.34164 0.20757 0.0
C354 C 0.11979 0.23459 0.29899 0.0
C355 C 0.12003 0.24995 0.28577 0.0
C356 C 0.15028 0.29143 0.27283 0.0
C357 C 0.14399 0.31768 0.22485 0.0
C358 C 0.13928 0.30709 0.2431 0.0
C359 C 0.1293 0.26751 0.29046 0.0
C360 C 0.13206 0.28261 0.27528 0.0
H361 H 0.13838 0.31295 0.17593 0.0
H362 H 0.12722 0.29862 0.20619 0.0
H363 H 0.16838 0.30915 0.25497 0.0
H364 H 0.14405 0.25624 0.33633 0.0
H365 H 0.14446 0.28313 0.31319 0.0
C366 C 0.36704 0.74949 0.81789 0.0
C367 C 0.37785 0.76664 0.81569 0.0
C368 C 0.36754 0.73512 0.8035 0.0
C369 C 0.37634 0.73162 0.75097 0.0
H370 H 0.36937 0.67641 0.75924 0.0
C371 C 0.36532 0.68096 0.68615 0.0
C372 C 0.34946 0.66824 0.68778 0.0
C373 C 0.37278 0.69025 0.70258 0.0
C374 C 0.3713 0.6918 0.75672 0.0
H375 H 0.39897 0.78142 0.79763 0.0
H376 H 0.40024 0.75623 0.77292 0.0
H377 H 0.37541 0.69773 0.78702 0.0
H378 H 0.32989 0.6543 0.70816 0.0
H379 H 0.34269 0.67074 0.7367 0.0
H380 H 0.37169 0.72596 0.72088 0.0
C381 C 0.39089 0.75409 0.78537 0.0
C382 C 0.37474 0.70401 0.77263 0.0
C383 C 0.39024 0.7685 0.79959 0.0
C384 C 0.34207 0.66407 0.70636 0.0
C385 C 0.34949 0.67343 0.72278 0.0
C386 C 0.37294 0.71947 0.73514 0.0
C387 C 0.37898 0.73758 0.78675 0.0
C388 C 0.37707 0.72412 0.76995 0.0
C389 C 0.36452 0.68711 0.72099 0.0
C390 C 0.37013 0.69945 0.73781 0.0
H391 H 0.35735 0.74764 0.83012 0.0
H392 H 0.3581 0.72264 0.80501 0.0
H393 H 0.3776 0.74707 0.74835 0.0
H394 H 0.37151 0.68435 0.6721 0.0
H395 H 0.38464 0.70041 0.70075 0.0
C396 C 0.61409 0.27183 0.70446 0.0
C397 C 0.62638 0.27011 0.68826 0.0
C398 C 0.61392 0.25758 0.71885 0.0
C399 C 0.63076 0.20791 0.73184 0.0
H400 H 0.63419 0.23027 0.7834 0.0
C401 C 0.66308 0.16781 0.7982 0.0
C402 C 0.6558 0.17213 0.8168 0.0
C403 C 0.65587 0.17734 0.7818 0.0
C404 C 0.63285 0.22367 0.7692 0.0
H405 H 0.64722 0.25144 0.67387 0.0
H406 H 0.64721 0.22666 0.69924 0.0
H407 H 0.62803 0.25115 0.75579 0.0
H408 H 0.63421 0.18881 0.83251 0.0
H409 H 0.62139 0.20514 0.80386 0.0
H410 H 0.63616 0.18041 0.7454 0.0
C411 C 0.63754 0.23896 0.7007 0.0
C412 C 0.62932 0.23569 0.75329 0.0
C413 C 0.63759 0.25319 0.68617 0.0
C414 C 0.6403 0.18529 0.81845 0.0
C415 C 0.63303 0.19474 0.80203 0.0
C416 C 0.6343 0.19583 0.74783 0.0
C417 C 0.62617 0.24133 0.71752 0.0
C418 C 0.62842 0.22802 0.73439 0.0
C419 C 0.64114 0.19135 0.78358 0.0
C420 C 0.63559 0.20362 0.76668 0.0
H421 H 0.60506 0.28455 0.70637 0.0
H422 H 0.60463 0.25963 0.73137 0.0
H423 H 0.62998 0.20152 0.7175 0.0
H424 H 0.67499 0.15773 0.79637 0.0
H425 H 0.66256 0.17445 0.76786 0.0
C426 C 0.85918 0.75189 0.18197 0.0
C427 C 0.8717 0.73586 0.18349 0.0
C428 C 0.85929 0.76641 0.19621 0.0
C429 C 0.87092 0.77127 0.24798 0.0
H430 H 0.85984 0.82582 0.23987 0.0
C431 C 0.86042 0.8216 0.31319 0.0
C432 C 0.84401 0.83368 0.31233 0.0
C433 C 0.8674 0.81253 0.29643 0.0
C434 C 0.8629 0.8106 0.24237 0.0
H435 H 0.89532 0.72338 0.20017 0.0
H436 H 0.89578 0.7488 0.22466 0.0
H437 H 0.86553 0.80468 0.21188 0.0
H438 H 0.82286 0.84668 0.29293 0.0
H439 H 0.83477 0.83057 0.26386 0.0
H440 H 0.86767 0.77684 0.27827 0.0
C441 C 0.88547 0.74991 0.21283 0.0
C442 C 0.86616 0.79851 0.22633 0.0
C443 C 0.88527 0.73538 0.19873 0.0
C444 C 0.8355 0.83742 0.29414 0.0
C445 C 0.84241 0.82824 0.27741 0.0
C446 C 0.86764 0.78329 0.26393 0.0
C447 C 0.87201 0.76522 0.21216 0.0
C448 C 0.87002 0.77864 0.22897 0.0
C449 C 0.85807 0.81521 0.27845 0.0
C450 C 0.86338 0.80307 0.26136 0.0
H451 H 0.84856 0.75267 0.1704 0.0
H452 H 0.84867 0.77796 0.19529 0.0
H453 H 0.87341 0.75597 0.25057 0.0
H454 H 0.86747 0.81858 0.32692 0.0
H455 H 0.87978 0.80293 0.29768 0.0
C456 C 0.31677 0.12831 0.24903 0.0
C457 C 0.31048 0.12844 0.22961 0.0
C458 C 0.30328 0.12788 0.26426 0.0
C459 C 0.25012 0.12097 0.27435 0.0
H460 H 0.26117 0.15338 0.31896 0.0
C461 C 0.18925 0.13942 0.3281 0.0
C462 C 0.18884 0.15865 0.33482 0.0
C463 C 0.20588 0.13201 0.31913 0.0
C464 C 0.25772 0.14437 0.30653 0.0
H465 H 0.2851 0.12793 0.21098 0.0
H466 H 0.2618 0.12804 0.23718 0.0
H467 H 0.28634 0.14753 0.29507 0.0
H468 H 0.20575 0.18497 0.33808 0.0
H469 H 0.23419 0.17256 0.32162 0.0
H470 H 0.22109 0.11921 0.28475 0.0
C471 C 0.27705 0.12758 0.2409 0.0
C472 C 0.27237 0.14072 0.29295 0.0
C473 C 0.29049 0.12769 0.22576 0.0
C474 C 0.20565 0.17004 0.33315 0.0
C475 C 0.2221 0.16281 0.32377 0.0
C476 C 0.23538 0.12498 0.28767 0.0
C477 C 0.2832 0.12786 0.26039 0.0
C478 C 0.2686 0.12942 0.27634 0.0
C479 C 0.22232 0.14382 0.31618 0.0
C480 C 0.2388 0.1372 0.3037 0.0
H481 H 0.3321 0.12876 0.25247 0.0
H482 H 0.30863 0.12776 0.27903 0.0
H483 H 0.24676 0.11169 0.2621 0.0
H484 H 0.17655 0.13024 0.3294 0.0
H485 H 0.2056 0.11714 0.31404 0.0
C486 C 0.31261 0.85593 0.82128 0.0
C487 C 0.31355 0.84142 0.8356 0.0
C488 C 0.29473 0.86179 0.8137 0.0
C489 C 0.2459 0.84229 0.80564 0.0
H490 H 0.23532 0.89424 0.7868 0.0
C491 C 0.17932 0.85771 0.75758 0.0
C492 C 0.18373 0.86798 0.74049 0.0
C493 C 0.19257 0.85719 0.773 0.0
C494 C 0.23805 0.87966 0.792 0.0
H495 H 0.29628 0.82263 0.85408 0.0
H496 H 0.26512 0.83302 0.84097 0.0
H497 H 0.2637 0.88843 0.80724 0.0
H498 H 0.20494 0.88679 0.72676 0.0
H499 H 0.22794 0.88575 0.75342 0.0
H500 H 0.22073 0.83334 0.78986 0.0
C501 C 0.27824 0.8396 0.83535 0.0
C502 C 0.25431 0.87633 0.80369 0.0
C503 C 0.29612 0.83371 0.84293 0.0
C504 C 0.20111 0.87863 0.73965 0.0
C505 C 0.21428 0.87817 0.75504 0.0
C506 C 0.22966 0.84561 0.79396 0.0
C507 C 0.27736 0.85332 0.82028 0.0
C508 C 0.25871 0.85751 0.81022 0.0
C509 C 0.21042 0.86702 0.77168 0.0
C510 C 0.22582 0.86423 0.78657 0.0
H511 H 0.32573 0.8622 0.81531 0.0
H512 H 0.29462 0.87227 0.80198 0.0
H513 H 0.24897 0.82756 0.81018 0.0
H514 H 0.16603 0.84941 0.75874 0.0
H515 H 0.18906 0.84867 0.78574 0.0
C516 C 0.81917 0.36634 0.75004 0.0
C517 C 0.81394 0.37461 0.76796 0.0
C518 C 0.80604 0.36615 0.73454 0.0
C519 C 0.75943 0.38685 0.7168 0.0
H520 H 0.75215 0.33577 0.69436 0.0
C521 C 0.68713 0.36134 0.68378 0.0
C522 C 0.68725 0.34746 0.66882 0.0
C523 C 0.7045 0.36775 0.69205 0.0
C524 C 0.7542 0.35027 0.70008 0.0
H525 H 0.79125 0.39024 0.78323 0.0
H526 H 0.76843 0.38984 0.7563 0.0
H527 H 0.77956 0.34166 0.71573 0.0
H528 H 0.70584 0.33052 0.64985 0.0
H529 H 0.73614 0.34197 0.66407 0.0
H530 H 0.73369 0.39528 0.70155 0.0
C531 C 0.78267 0.38355 0.75416 0.0
C532 C 0.76995 0.35364 0.71238 0.0
C533 C 0.79573 0.38365 0.76967 0.0
C534 C 0.7052 0.34107 0.6615 0.0
C535 C 0.72258 0.34755 0.66972 0.0
C536 C 0.74369 0.3835 0.70442 0.0
C537 C 0.78747 0.37436 0.73659 0.0
C538 C 0.77247 0.37181 0.72129 0.0
C539 C 0.72243 0.36051 0.6855 0.0
C540 C 0.74059 0.36502 0.69631 0.0
H541 H 0.83312 0.35932 0.74821 0.0
H542 H 0.81024 0.35915 0.7211 0.0
H543 H 0.76115 0.40109 0.72322 0.0
H544 H 0.67358 0.3666 0.68977 0.0
H545 H 0.70378 0.37759 0.70429 0.0
C546 C 0.81743 0.63847 0.18272 0.0
C547 C 0.81525 0.65393 0.16959 0.0
C548 C 0.80136 0.63094 0.19253 0.0
C549 C 0.74732 0.63121 0.19497 0.0
H550 H 0.75667 0.62696 0.25031 0.0
C551 C 0.68677 0.6354 0.25324 0.0
C552 C 0.68942 0.62513 0.27068 0.0
C553 C 0.70107 0.63501 0.2388 0.0
C554 C 0.75378 0.62765 0.23486 0.0
H555 H 0.79423 0.67268 0.15548 0.0
H556 H 0.76629 0.65975 0.17279 0.0
H557 H 0.78364 0.63288 0.22857 0.0
H558 H 0.70832 0.60511 0.28595 0.0
H559 H 0.73291 0.60403 0.26062 0.0
H560 H 0.71726 0.62648 0.20149 0.0
C561 C 0.78039 0.65333 0.17542 0.0
C562 C 0.76932 0.63105 0.22235 0.0
C563 C 0.79646 0.66082 0.16555 0.0
C564 C 0.70598 0.61343 0.2728 0.0
C565 C 0.72014 0.61289 0.25832 0.0
C566 C 0.73171 0.62775 0.20753 0.0
C567 C 0.78274 0.63874 0.18949 0.0
C568 C 0.76628 0.63313 0.20228 0.0
C569 C 0.7182 0.62422 0.24145 0.0
C570 C 0.73474 0.62617 0.22767 0.0
H571 H 0.83166 0.63266 0.18603 0.0
H572 H 0.8036 0.61943 0.203 0.0
H573 H 0.74452 0.63257 0.17955 0.0
H574 H 0.67417 0.64456 0.25118 0.0
H575 H 0.69913 0.644 0.22605 0.0
C576 C 0.33752 0.20682 0.16411 0.0
C577 C 0.33491 0.18907 0.15437 0.0
C578 C 0.32858 0.22373 0.15729 0.0
C579 C 0.28487 0.23701 0.13056 0.0
H580 H 0.30463 0.28954 0.13465 0.0
C581 C 0.2347 0.30102 0.11499 0.0
C582 C 0.23528 0.31633 0.12844 0.0
C583 C 0.24957 0.28728 0.1144 0.0
C584 C 0.29888 0.27496 0.1335 0.0
H585 H 0.32226 0.17555 0.12887 0.0
H586 H 0.30688 0.20504 0.11692 0.0
H587 H 0.3264 0.26205 0.14029 0.0
H588 H 0.25244 0.32988 0.15108 0.0
H589 H 0.27812 0.30553 0.15051 0.0
H590 H 0.25727 0.24962 0.12465 0.0
C591 C 0.31549 0.2058 0.13006 0.0
C592 C 0.31137 0.25923 0.13669 0.0
C593 C 0.32439 0.18891 0.13688 0.0
C594 C 0.2516 0.31824 0.14053 0.0
C595 C 0.26637 0.3043 0.14014 0.0
C596 C 0.27242 0.25265 0.12751 0.0
C597 C 0.31687 0.22323 0.14058 0.0
C598 C 0.30443 0.24008 0.13543 0.0
C599 C 0.26523 0.28831 0.12747 0.0
C600 C 0.27916 0.27185 0.12912 0.0
H601 H 0.34559 0.20749 0.17759 0.0
H602 H 0.32988 0.2369 0.16578 0.0
H603 H 0.27892 0.22248 0.12991 0.0
H604 H 0.22245 0.29932 0.10528 0.0
H605 H 0.24846 0.27548 0.10407 0.0
C606 C 0.83639 0.29662 0.83715 0.0
C607 C 0.83302 0.31458 0.84627 0.0
C608 C 0.82765 0.27969 0.84417 0.0
C609 C 0.78401 0.26557 0.87116 0.0
H610 H 0.80542 0.21367 0.8673 0.0
C611 C 0.73656 0.20015 0.88875 0.0
C612 C 0.73673 0.1852 0.87488 0.0
C613 C 0.75116 0.21417 0.88897 0.0
C614 C 0.79925 0.22808 0.86842 0.0
H615 H 0.81912 0.32854 0.87083 0.0
H616 H 0.80424 0.29899 0.88328 0.0
H617 H 0.82624 0.24181 0.8612 0.0
H618 H 0.75309 0.17247 0.85119 0.0
H619 H 0.77843 0.19724 0.85127 0.0
H620 H 0.75697 0.25207 0.87774 0.0
C621 C 0.8132 0.29807 0.87039 0.0
C622 C 0.81116 0.24419 0.86494 0.0
C623 C 0.82182 0.315 0.86331 0.0
C624 C 0.75255 0.18382 0.86206 0.0
C625 C 0.76711 0.198 0.86216 0.0
C626 C 0.77217 0.24955 0.87463 0.0
C627 C 0.81545 0.28033 0.86052 0.0
C628 C 0.8036 0.26313 0.86604 0.0
C629 C 0.76619 0.21373 0.87517 0.0
C630 C 0.77954 0.23059 0.87311 0.0
H631 H 0.84497 0.29575 0.82401 0.0
H632 H 0.82962 0.26633 0.83613 0.0
H633 H 0.77754 0.27988 0.8717 0.0
H634 H 0.72472 0.20145 0.89902 0.0
H635 H 0.75028 0.2258 0.89951 0.0
C636 C 0.76547 0.79965 0.38103 0.0
C637 C 0.76423 0.81731 0.37088 0.0
C638 C 0.75 0.78657 0.38092 0.0
C639 C 0.70976 0.77208 0.34974 0.0
H640 H 0.69743 0.73776 0.39262 0.0
C641 C 0.6603 0.70605 0.33818 0.0
C642 C 0.66765 0.68854 0.34566 0.0
C643 C 0.66798 0.72385 0.34417 0.0
C644 C 0.70071 0.74722 0.3805 0.0
H645 H 0.74528 0.83556 0.35358 0.0
H646 H 0.71819 0.81265 0.35341 0.0
H647 H 0.71846 0.76577 0.39806 0.0
H648 H 0.68804 0.67611 0.3662 0.0
H649 H 0.7016 0.70704 0.37638 0.0
H650 H 0.69278 0.75318 0.33197 0.0
C651 C 0.73127 0.80888 0.36129 0.0
C652 C 0.71273 0.76328 0.38362 0.0
C653 C 0.74675 0.82204 0.36147 0.0
C654 C 0.68204 0.6893 0.3601 0.0
C655 C 0.68976 0.70709 0.36603 0.0
C656 C 0.6978 0.75602 0.3466 0.0
C657 C 0.73291 0.7908 0.37063 0.0
C658 C 0.7178 0.7756 0.36816 0.0
C659 C 0.68321 0.72456 0.35773 0.0
C660 C 0.69353 0.7431 0.36183 0.0
H661 H 0.77868 0.79557 0.38851 0.0
H662 H 0.75184 0.77271 0.38811 0.0
H663 H 0.71357 0.78111 0.33744 0.0
H664 H 0.64908 0.70602 0.32716 0.0
H665 H 0.66235 0.73705 0.33775 0.0
C666 C 0.1654 0.7932 0.6666 0.0
C667 C 0.16926 0.81165 0.65876 0.0
C668 C 0.17484 0.77675 0.65938 0.0
C669 C 0.22052 0.76437 0.63502 0.0
H670 H 0.19944 0.71219 0.63484 0.0
C671 C 0.26941 0.70001 0.61711 0.0
C672 C 0.26852 0.68436 0.63017 0.0
C673 C 0.25484 0.71405 0.61683 0.0
C674 C 0.20552 0.72668 0.63486 0.0
H675 H 0.18484 0.82703 0.63613 0.0
H676 H 0.20095 0.79831 0.62329 0.0
H677 H 0.17794 0.73984 0.64072 0.0
H678 H 0.25097 0.67053 0.65234 0.0
H679 H 0.22563 0.69532 0.65213 0.0
H680 H 0.24811 0.75138 0.62973 0.0
C681 C 0.19105 0.79662 0.63538 0.0
C682 C 0.19322 0.74251 0.63822 0.0
C683 C 0.18172 0.81308 0.64267 0.0
C684 C 0.25209 0.68242 0.64211 0.0
C685 C 0.23753 0.6966 0.64194 0.0
C686 C 0.23275 0.74862 0.63165 0.0
C687 C 0.18824 0.77836 0.64408 0.0
C688 C 0.20064 0.76155 0.63858 0.0
C689 C 0.23908 0.71291 0.62974 0.0
C690 C 0.22548 0.72956 0.63174 0.0
H691 H 0.15585 0.79154 0.67898 0.0
H692 H 0.17241 0.76296 0.66653 0.0
H693 H 0.22687 0.77874 0.63564 0.0
H694 H 0.28173 0.70178 0.6075 0.0
H695 H 0.25625 0.72618 0.60693 0.0
C696 C 0.83691 0.66181 0.79386 0.0
C697 C 0.84327 0.66913 0.81184 0.0
C698 C 0.84325 0.67015 0.77648 0.0
C699 C 0.87894 0.70477 0.75514 0.0
H700 H 0.83664 0.71673 0.71998 0.0
C701 C 0.87969 0.7699 0.70309 0.0
C702 C 0.86997 0.76865 0.68518 0.0
C703 C 0.87947 0.75435 0.71608 0.0
C704 C 0.84875 0.71319 0.72936 0.0
H705 H 0.86228 0.69017 0.82556 0.0
H706 H 0.87312 0.70483 0.79531 0.0
H707 H 0.83098 0.69531 0.74741 0.0
H708 H 0.85331 0.7496 0.66643 0.0
H709 H 0.85303 0.72236 0.68914 0.0
H710 H 0.89651 0.72329 0.73739 0.0
C711 C 0.86335 0.69255 0.7946 0.0
C712 C 0.8455 0.70088 0.74514 0.0
C713 C 0.85704 0.68418 0.81199 0.0
C714 C 0.86086 0.75109 0.68014 0.0
C715 C 0.86061 0.73552 0.6932 0.0
C716 C 0.88219 0.7171 0.73934 0.0
C717 C 0.85608 0.68601 0.77666 0.0
C718 C 0.86042 0.69689 0.7585 0.0
C719 C 0.86952 0.73715 0.71151 0.0
C720 C 0.867 0.72184 0.72654 0.0
H721 H 0.82645 0.6501 0.79319 0.0
H722 H 0.83765 0.66453 0.7629 0.0
H723 H 0.89082 0.70173 0.76497 0.0
H724 H 0.88693 0.78317 0.70742 0.0
H725 H 0.88632 0.75622 0.73012 0.0
C726 C 0.63683 0.25292 0.18165 0.0
C727 C 0.62793 0.2353 0.18683 0.0
C728 C 0.63723 0.26849 0.19473 0.0
C729 C 0.6165 0.28656 0.24145 0.0
H730 H 0.66782 0.3084 0.24871 0.0
C731 C 0.64319 0.31845 0.31402 0.0
C732 C 0.65673 0.33371 0.31379 0.0
C733 C 0.63659 0.31026 0.29665 0.0
C734 C 0.65327 0.30281 0.24668 0.0
H735 H 0.61139 0.2207 0.20933 0.0
H736 H 0.61224 0.24761 0.23203 0.0
H737 H 0.66161 0.28731 0.22112 0.0
H738 H 0.6729 0.3532 0.29504 0.0
H739 H 0.66123 0.33902 0.2648 0.0
H740 H 0.60841 0.30153 0.2675 0.0
C741 C 0.61883 0.24953 0.21789 0.0
C742 C 0.6497 0.2907 0.2308 0.0
C743 C 0.61849 0.234 0.20489 0.0
C744 C 0.66261 0.34134 0.29578 0.0
C745 C 0.656 0.33315 0.27842 0.0
C746 C 0.62008 0.29867 0.25736 0.0
C747 C 0.62864 0.26679 0.2132 0.0
C748 C 0.63142 0.28202 0.22827 0.0
C749 C 0.64335 0.31716 0.27865 0.0
C750 C 0.63865 0.30655 0.26042 0.0
H751 H 0.64418 0.25444 0.16783 0.0
H752 H 0.64469 0.28168 0.19058 0.0
H753 H 0.60216 0.28036 0.23974 0.0
H754 H 0.63832 0.31223 0.32761 0.0
H755 H 0.62697 0.29785 0.29739 0.0
C756 C 0.38667 0.73426 0.29791 0.0
C757 C 0.37724 0.73568 0.31596 0.0
C758 C 0.38652 0.74981 0.28492 0.0
C759 C 0.356 0.79124 0.27214 0.0
H760 H 0.39721 0.8018 0.23528 0.0
C761 C 0.36228 0.81883 0.18892 0.0
C762 C 0.34869 0.83404 0.18918 0.0
C763 C 0.36898 0.8107 0.20627 0.0
C764 C 0.38557 0.79902 0.24547 0.0
H765 H 0.36131 0.75505 0.335 0.0
H766 H 0.36116 0.7823 0.31231 0.0
H767 H 0.40342 0.78055 0.26299 0.0
H768 H 0.33259 0.85357 0.20796 0.0
H769 H 0.34448 0.83953 0.23817 0.0
H770 H 0.33792 0.80905 0.25433 0.0
C771 C 0.36843 0.76901 0.30813 0.0
C772 C 0.38913 0.78687 0.26134 0.0
C773 C 0.36862 0.75343 0.32118 0.0
C774 C 0.3429 0.84173 0.2072 0.0
C775 C 0.34963 0.83362 0.22454 0.0
C776 C 0.35245 0.80338 0.2563 0.0
C777 C 0.37694 0.76719 0.28964 0.0
C778 C 0.37423 0.78243 0.27458 0.0
C779 C 0.3623 0.81764 0.22428 0.0
C780 C 0.36704 0.80703 0.24249 0.0
H781 H 0.39354 0.72085 0.29344 0.0
H782 H 0.39305 0.74781 0.27076 0.0
H783 H 0.34411 0.78793 0.28187 0.0
H784 H 0.36708 0.81257 0.17531 0.0
H785 H 0.3786 0.7983 0.2055 0.0
C786 C 0.16884 0.16469 0.70846 0.0
C787 C 0.16019 0.1681 0.69026 0.0
C788 C 0.16185 0.17394 0.72512 0.0
C789 C 0.13595 0.21862 0.73822 0.0
H790 H 0.13795 0.19764 0.79044 0.0
C791 C 0.11686 0.26675 0.80278 0.0
C792 C 0.13023 0.26661 0.81819 0.0
C793 C 0.11704 0.25207 0.78883 0.0
C794 C 0.13736 0.2037 0.77594 0.0
H795 H 0.13646 0.18271 0.67561 0.0
H796 H 0.12404 0.19849 0.70471 0.0
H797 H 0.14425 0.1764 0.76265 0.0
H798 H 0.15344 0.25025 0.83175 0.0
H799 H 0.15402 0.22473 0.80711 0.0
H800 H 0.12961 0.24594 0.75132 0.0
C801 C 0.13656 0.18909 0.70602 0.0
C802 C 0.14097 0.19154 0.76003 0.0
C803 C 0.14362 0.17995 0.68934 0.0
C804 C 0.14295 0.25076 0.82005 0.0
C805 C 0.14324 0.23611 0.80594 0.0
C806 C 0.13234 0.2307 0.75405 0.0
C807 C 0.14599 0.18673 0.724 0.0
C808 C 0.14049 0.19893 0.74097 0.0
C809 C 0.13073 0.23698 0.78981 0.0
C810 C 0.13316 0.22347 0.77312 0.0
H811 H 0.18161 0.15562 0.70971 0.0
H812 H 0.16955 0.17187 0.73867 0.0
H813 H 0.13592 0.22496 0.72383 0.0
H814 H 0.10667 0.2786 0.80109 0.0
H815 H 0.10688 0.25293 0.77686 0.0
C816 C 0.68301 0.86612 0.75144 0.0
C817 C 0.68512 0.87699 0.76858 0.0
C818 C 0.69745 0.86654 0.73713 0.0
C819 C 0.74994 0.87552 0.73352 0.0
H820 H 0.74149 0.86881 0.67826 0.0
C821 C 0.81456 0.86557 0.68241 0.0
C822 C 0.81307 0.84977 0.66959 0.0
C823 C 0.79812 0.87276 0.69186 0.0
C824 C 0.74407 0.87067 0.69367 0.0
H825 H 0.70318 0.89809 0.78341 0.0
H826 H 0.728 0.89922 0.75832 0.0
H827 H 0.71378 0.87453 0.69974 0.0
H828 H 0.79287 0.83002 0.65564 0.0
H829 H 0.76429 0.84237 0.67232 0.0
H830 H 0.78003 0.87115 0.7277 0.0
C831 C 0.71555 0.88987 0.75616 0.0
C832 C 0.7282 0.87392 0.70597 0.0
C833 C 0.70126 0.88931 0.7705 0.0
C834 C 0.79457 0.84217 0.66547 0.0
C835 C 0.77813 0.84932 0.67498 0.0
C836 C 0.76573 0.87231 0.72128 0.0
C837 C 0.71419 0.87797 0.73962 0.0
C838 C 0.73094 0.87616 0.72609 0.0
C839 C 0.77981 0.86428 0.68876 0.0
C840 C 0.76301 0.86961 0.70124 0.0
H841 H 0.67075 0.85647 0.74953 0.0
H842 H 0.69595 0.8571 0.72464 0.0
H843 H 0.75261 0.87672 0.74897 0.0
H844 H 0.82854 0.87192 0.68577 0.0
H845 H 0.79984 0.88458 0.70209 0.0
C846 C 0.68737 0.14236 0.18445 0.0
C847 C 0.68726 0.15608 0.16935 0.0
C848 C 0.70488 0.13592 0.19241 0.0
C849 C 0.7548 0.15311 0.19933 0.0
H850 H 0.76197 0.10228 0.2224 0.0
C851 C 0.82043 0.13702 0.24842 0.0
C852 C 0.81542 0.12872 0.26639 0.0
C853 C 0.80711 0.13719 0.23307 0.0
C854 C 0.76019 0.11653 0.216 0.0
H855 H 0.70555 0.17274 0.14985 0.0
H856 H 0.73608 0.16127 0.16355 0.0
H857 H 0.73413 0.10819 0.20125 0.0
H858 H 0.79295 0.11303 0.2819 0.0
H859 H 0.7698 0.11342 0.25528 0.0
H860 H 0.78046 0.16165 0.21453 0.0
C861 C 0.72261 0.15581 0.16953 0.0
C862 C 0.74424 0.11993 0.20391 0.0
C863 C 0.70509 0.1623 0.1616 0.0
C864 C 0.79725 0.11964 0.2683 0.0
C865 C 0.78401 0.11973 0.25296 0.0
C866 C 0.77076 0.1497 0.21136 0.0
C867 C 0.72271 0.14298 0.18541 0.0
C868 C 0.74106 0.13841 0.19585 0.0
C869 C 0.78857 0.12896 0.23534 0.0
C870 C 0.77336 0.13153 0.22025 0.0
H871 H 0.67392 0.13722 0.19077 0.0
H872 H 0.70436 0.12618 0.20475 0.0
H873 H 0.7527 0.1676 0.19363 0.0
H874 H 0.83434 0.14407 0.24642 0.0
H875 H 0.81114 0.14421 0.21959 0.0
C876 C 0.29912 0.66483 0.33565 0.0
C877 C 0.3173 0.65647 0.33162 0.0
C878 C 0.28232 0.65782 0.32667 0.0
C879 C 0.26846 0.63308 0.28167 0.0
H880 H 0.21685 0.63324 0.30411 0.0
C881 C 0.20301 0.61538 0.23424 0.0
C882 C 0.18733 0.62833 0.23563 0.0
C883 C 0.21736 0.61501 0.24853 0.0
C884 C 0.23117 0.63317 0.29764 0.0
H885 H 0.33182 0.63319 0.31616 0.0
H886 H 0.30251 0.62079 0.30079 0.0
H887 H 0.24507 0.63932 0.32484 0.0
H888 H 0.17375 0.65019 0.25374 0.0
H889 H 0.19909 0.6499 0.27852 0.0
H890 H 0.25477 0.62762 0.25445 0.0
C891 C 0.30131 0.63308 0.31052 0.0
C892 C 0.24733 0.63664 0.30951 0.0
C893 C 0.3181 0.64014 0.31941 0.0
C894 C 0.18565 0.64004 0.25227 0.0
C895 C 0.20016 0.63982 0.26651 0.0
C896 C 0.25239 0.62965 0.26987 0.0
C897 C 0.28332 0.64224 0.31353 0.0
C898 C 0.26615 0.63683 0.30159 0.0
C899 C 0.21653 0.62777 0.26444 0.0
C900 C 0.23352 0.62984 0.27762 0.0
H901 H 0.29795 0.67741 0.34502 0.0
H902 H 0.26873 0.6653 0.32924 0.0
H903 H 0.28267 0.63357 0.27497 0.0
H904 H 0.20456 0.60596 0.22174 0.0
H905 H 0.22949 0.60518 0.24674 0.0
C906 C 0.29429 0.38291 0.73029 0.0
C907 C 0.31285 0.37475 0.73257 0.0
C908 C 0.28115 0.38314 0.74573 0.0
C909 C 0.26955 0.35528 0.78929 0.0
H910 H 0.23125 0.39575 0.79719 0.0
C911 C 0.2054 0.34319 0.84096 0.0
C912 C 0.18716 0.34799 0.83315 0.0
C913 C 0.22244 0.34998 0.8323 0.0
C914 C 0.24184 0.38431 0.79515 0.0
H915 H 0.33252 0.36139 0.75322 0.0
H916 H 0.30953 0.36183 0.78022 0.0
H917 H 0.25856 0.40144 0.77529 0.0
H918 H 0.17256 0.36469 0.81079 0.0
H919 H 0.2022 0.37625 0.79553 0.0
H920 H 0.25253 0.33785 0.80845 0.0
C921 C 0.30511 0.36786 0.76638 0.0
C922 C 0.25748 0.38758 0.78263 0.0
C923 C 0.31831 0.3677 0.75094 0.0
C924 C 0.18634 0.36068 0.81719 0.0
C925 C 0.20339 0.36741 0.80848 0.0
C926 C 0.25391 0.352 0.80176 0.0
C927 C 0.28623 0.37517 0.76381 0.0
C928 C 0.27126 0.37292 0.7792 0.0
C929 C 0.22165 0.36167 0.81558 0.0
C930 C 0.2396 0.3663 0.80449 0.0
H931 H 0.28962 0.38856 0.71638 0.0
H932 H 0.26668 0.3887 0.74317 0.0
H933 H 0.27974 0.34358 0.78678 0.0
H934 H 0.20657 0.3336 0.85337 0.0
H935 H 0.23626 0.34559 0.83837 0.0
C936 C 0.76581 0.7029 0.88504 0.0
C937 C 0.76487 0.68729 0.87196 0.0
C938 C 0.75121 0.71692 0.8854 0.0
C939 C 0.70188 0.72959 0.86696 0.0
H940 H 0.72287 0.78178 0.86818 0.0
C941 C 0.66244 0.79724 0.83633 0.0
C942 C 0.66578 0.81529 0.84528 0.0
C943 C 0.67171 0.78049 0.84311 0.0
C944 C 0.71663 0.76736 0.8682 0.0
H945 H 0.74731 0.67351 0.84977 0.0
H946 H 0.722 0.69831 0.85002 0.0
H947 H 0.74419 0.75441 0.87364 0.0
H948 H 0.68022 0.82957 0.86937 0.0
H949 H 0.69611 0.80035 0.88133 0.0
H950 H 0.67435 0.74278 0.86079 0.0
C951 C 0.73389 0.69957 0.86023 0.0
C952 C 0.7289 0.75159 0.87135 0.0
C953 C 0.74843 0.68538 0.86003 0.0
C954 C 0.6775 0.81596 0.86197 0.0
C955 C 0.6867 0.79922 0.86878 0.0
C956 C 0.68955 0.74545 0.86374 0.0
C957 C 0.73543 0.71584 0.8725 0.0
C958 C 0.72176 0.73248 0.87061 0.0
C959 C 0.68446 0.78143 0.85902 0.0
C960 C 0.69685 0.76451 0.86414 0.0
H961 H 0.77815 0.70463 0.89463 0.0
H962 H 0.75261 0.72897 0.8954 0.0
H963 H 0.69586 0.71508 0.86647 0.0
H964 H 0.65345 0.79617 0.82347 0.0
H965 H 0.66972 0.76706 0.83519 0.0
C966 C 0.16638 0.70725 0.16649 0.0
C967 C 0.16978 0.68911 0.15775 0.0
C968 C 0.17564 0.72393 0.15957 0.0
C969 C 0.2205 0.73696 0.13419 0.0
H970 H 0.19969 0.78922 0.13609 0.0
C971 C 0.26938 0.80142 0.11681 0.0
C972 C 0.26879 0.81685 0.13013 0.0
C973 C 0.25471 0.78748 0.11653 0.0
C974 C 0.20571 0.77471 0.13553 0.0
H975 H 0.18433 0.67458 0.13389 0.0
H976 H 0.20017 0.70371 0.12163 0.0
H977 H 0.17824 0.7615 0.14189 0.0
H978 H 0.25171 0.83044 0.1528 0.0
H979 H 0.22623 0.80579 0.15265 0.0
H980 H 0.24799 0.74996 0.12849 0.0
C981 C 0.19075 0.70496 0.13415 0.0
C982 C 0.19343 0.75884 0.13884 0.0
C983 C 0.18158 0.68827 0.14112 0.0
C984 C 0.25257 0.81871 0.14236 0.0
C985 C 0.23793 0.8046 0.14222 0.0
C986 C 0.23271 0.75275 0.13091 0.0
C987 C 0.18843 0.72286 0.1437 0.0
C988 C 0.20075 0.73978 0.13841 0.0
C989 C 0.23918 0.78847 0.12974 0.0
C990 C 0.22555 0.77184 0.13172 0.0
H991 H 0.15734 0.70844 0.1793 0.0
H992 H 0.1736 0.73743 0.16735 0.0
H993 H 0.22677 0.72255 0.13419 0.0
H994 H 0.28154 0.79974 0.10698 0.0
H995 H 0.25587 0.77553 0.10638 0.0
C996 C 0.34258 0.29476 0.66457 0.0
C997 C 0.33508 0.31212 0.65689 0.0
C998 C 0.33529 0.27681 0.65853 0.0
C999 C 0.30356 0.2528 0.62172 0.0
H1000 H 0.29019 0.21906 0.66474 0.0
C1001 C 0.23889 0.20038 0.62064 0.0
C1002 C 0.2399 0.18284 0.63102 0.0
C1003 C 0.25444 0.21336 0.62076 0.0
C1004 C 0.29417 0.22804 0.65246 0.0
H1005 H 0.31484 0.32414 0.63595 0.0
H1006 H 0.30196 0.29295 0.62567 0.0
H1007 H 0.31067 0.24718 0.67042 0.0
H1008 H 0.25855 0.16467 0.64873 0.0
H1009 H 0.28578 0.18741 0.64893 0.0
H1010 H 0.28627 0.23401 0.60396 0.0
C1011 C 0.31362 0.29313 0.63621 0.0
C1012 C 0.30594 0.24421 0.65572 0.0
C1013 C 0.32094 0.31107 0.64221 0.0
C1014 C 0.25726 0.17809 0.64064 0.0
C1015 C 0.27282 0.19116 0.64085 0.0
C1016 C 0.29173 0.23662 0.61848 0.0
C1017 C 0.32031 0.2758 0.64469 0.0
C1018 C 0.31035 0.2571 0.6405 0.0
C1019 C 0.27138 0.20916 0.63132 0.0
C1020 C 0.28646 0.22437 0.63393 0.0
H1021 H 0.35361 0.29502 0.67577 0.0
H1022 H 0.34101 0.26373 0.6651 0.0
H1023 H 0.30697 0.26223 0.60961 0.0
H1024 H 0.22578 0.20446 0.61298 0.0
H1025 H 0.25275 0.22715 0.61342 0.0
C1026 C 0.7365 0.30213 0.3862 0.0
C1027 C 0.73676 0.31735 0.37263 0.0
C1028 C 0.75121 0.28823 0.38635 0.0
C1029 C 0.7997 0.27511 0.36621 0.0
H1030 H 0.77859 0.22303 0.36897 0.0
C1031 C 0.83786 0.20697 0.33515 0.0
C1032 C 0.83464 0.189 0.3443 0.0
C1033 C 0.82892 0.22382 0.34209 0.0
C1034 C 0.78488 0.23742 0.36857 0.0
H1035 H 0.75329 0.33063 0.34938 0.0
H1036 H 0.7788 0.30602 0.3493 0.0
H1037 H 0.75759 0.25055 0.37486 0.0
H1038 H 0.8208 0.17497 0.36886 0.0
H1039 H 0.80551 0.20438 0.38113 0.0
H1040 H 0.82694 0.26174 0.35924 0.0
C1041 C 0.76736 0.30498 0.36003 0.0
C1042 C 0.7728 0.25328 0.37196 0.0
C1043 C 0.7527 0.31907 0.36002 0.0
C1044 C 0.82339 0.18851 0.36131 0.0
C1045 C 0.81454 0.20537 0.36829 0.0
C1046 C 0.81185 0.25916 0.36279 0.0
C1047 C 0.76641 0.28903 0.37276 0.0
C1048 C 0.77996 0.27234 0.37065 0.0
C1049 C 0.81663 0.22309 0.35837 0.0
C1050 C 0.8045 0.24013 0.36374 0.0
H1051 H 0.72456 0.30058 0.39631 0.0
H1052 H 0.75029 0.27643 0.39671 0.0
H1053 H 0.80572 0.28959 0.36526 0.0
H1054 H 0.84648 0.20789 0.32204 0.0
H1055 H 0.83077 0.23719 0.33402 0.0
C1056 C 0.15061 0.18571 0.57248 0.0
C1057 C 0.15469 0.16724 0.58014 0.0
C1058 C 0.14618 0.18799 0.55285 0.0
C1059 C 0.12899 0.16513 0.50853 0.0
H1060 H 0.1647 0.20023 0.48287 0.0
C1061 C 0.13248 0.17352 0.42453 0.0
C1062 C 0.1384 0.1915 0.41696 0.0
C1063 C 0.13242 0.17032 0.44462 0.0
C1064 C 0.15428 0.1907 0.48975 0.0
H1065 H 0.1561 0.13652 0.57341 0.0
H1066 H 0.1479 0.14056 0.53894 0.0
H1067 H 0.1674 0.19493 0.51759 0.0
H1068 H 0.14765 0.2206 0.4244 0.0
H1069 H 0.14652 0.21548 0.45929 0.0
H1070 H 0.11548 0.16128 0.48078 0.0
C1071 C 0.14834 0.15322 0.54826 0.0
C1072 C 0.15597 0.18756 0.50968 0.0
C1073 C 0.15307 0.15094 0.56793 0.0
C1074 C 0.14326 0.20651 0.42983 0.0
C1075 C 0.14279 0.20347 0.44987 0.0
C1076 C 0.12703 0.16855 0.48855 0.0
C1077 C 0.14544 0.17184 0.54046 0.0
C1078 C 0.14335 0.1748 0.51927 0.0
C1079 C 0.13796 0.18516 0.45757 0.0
C1080 C 0.13965 0.18145 0.47888 0.0
H1081 H 0.15166 0.19858 0.58144 0.0
H1082 H 0.14384 0.20248 0.5472 0.0
H1083 H 0.11906 0.15524 0.51566 0.0
H1084 H 0.12875 0.16166 0.4149 0.0
H1085 H 0.12877 0.15598 0.4499 0.0
C1086 C 0.35845 0.81513 0.07169 0.0
C1087 C 0.35403 0.83359 0.0792 0.0
C1088 C 0.36288 0.81277 0.05208 0.0
C1089 C 0.37913 0.83571 0.00737 0.0
H1090 H 0.34398 0.79956 0.9824 0.0
C1091 C 0.374 0.82737 0.92349 0.0
C1092 C 0.3683 0.8093 0.91598 0.0
C1093 C 0.37455 0.83046 0.94359 0.0
C1094 C 0.35425 0.80938 0.98908 0.0
H1095 H 0.35205 0.86422 0.07223 0.0
H1096 H 0.36022 0.86004 0.03778 0.0
H1097 H 0.34169 0.80492 0.01713 0.0
H1098 H 0.36002 0.77993 0.92347 0.0
H1099 H 0.36202 0.78487 0.95836 0.0
H1100 H 0.39207 0.83984 0.97939 0.0
C1101 C 0.36006 0.84745 0.0472 0.0
C1102 C 0.3528 0.81256 0.00902 0.0
C1103 C 0.35535 0.84981 0.06687 0.0
C1104 C 0.36422 0.79409 0.92888 0.0
C1105 C 0.36519 0.79702 0.94891 0.0
C1106 C 0.38085 0.83227 0.98737 0.0
C1107 C 0.36326 0.82882 0.03955 0.0
C1108 C 0.3652 0.82572 0.01837 0.0
C1109 C 0.36974 0.81542 0.95659 0.0
C1110 C 0.36842 0.81902 0.97795 0.0
H1111 H 0.35766 0.80232 0.08077 0.0
H1112 H 0.36547 0.79828 0.04654 0.0
H1113 H 0.38889 0.84591 0.01431 0.0
H1114 H 0.37712 0.83939 0.91385 0.0
H1115 H 0.37796 0.84486 0.94885 0.0
C1116 C 0.64766 0.3152 0.43176 0.0
C1117 C 0.65148 0.33364 0.42391 0.0
C1118 C 0.64321 0.31306 0.4514 0.0
C1119 C 0.62563 0.33623 0.49544 0.0
H1120 H 0.66178 0.30195 0.52159 0.0
C1121 C 0.62959 0.3295 0.57954 0.0
C1122 C 0.63589 0.31181 0.58747 0.0
C1123 C 0.62932 0.33225 0.55939 0.0
C1124 C 0.65124 0.31124 0.51457 0.0
H1125 H 0.6524 0.36445 0.4303 0.0
H1126 H 0.64416 0.36066 0.46478 0.0
H1127 H 0.66437 0.30675 0.48678 0.0
H1128 H 0.64554 0.28271 0.58062 0.0
H1129 H 0.64402 0.287 0.54563 0.0
H1130 H 0.61212 0.34036 0.52314 0.0
C1131 C 0.64483 0.34791 0.45561 0.0
C1132 C 0.65287 0.3141 0.4946 0.0
C1133 C 0.64957 0.35005 0.43593 0.0
C1134 C 0.64087 0.29659 0.5749 0.0
C1135 C 0.64018 0.29916 0.55481 0.0
C1136 C 0.62375 0.33309 0.51547 0.0
C1137 C 0.64219 0.32933 0.4636 0.0
C1138 C 0.6401 0.32658 0.48483 0.0
C1139 C 0.635 0.31722 0.54673 0.0
C1140 C 0.63653 0.32051 0.52533 0.0
H1141 H 0.64894 0.30224 0.42294 0.0
H1142 H 0.64108 0.2986 0.4572 0.0
H1143 H 0.61559 0.3459 0.48818 0.0
H1144 H 0.62577 0.34153 0.58893 0.0
H1145 H 0.62541 0.34641 0.55383 0.0
C1146 C 0.84822 0.70019 0.07177 0.0
C1147 C 0.86073 0.69068 0.08477 0.0
C1148 C 0.84976 0.69711 0.0518 0.0
C1149 C 0.86188 0.69602 0.00975 0.0
H1150 H 0.86873 0.64356 0.99058 0.0
C1151 C 0.86154 0.68116 0.92798 0.0
C1152 C 0.85015 0.6654 0.92184 0.0
C1153 C 0.86669 0.68318 0.94749 0.0
C1154 C 0.86678 0.65829 0.99569 0.0
H1155 H 0.88493 0.67068 0.08692 0.0
H1156 H 0.88778 0.66545 0.05188 0.0
H1157 H 0.86983 0.6498 0.02548 0.0
H1158 H 0.83613 0.63883 0.93114 0.0
H1159 H 0.84471 0.64257 0.9653 0.0
H1160 H 0.85788 0.70446 0.98022 0.0
C1161 C 0.87661 0.67514 0.05723 0.0
C1162 C 0.86764 0.6619 0.01569 0.0
C1163 C 0.87507 0.67823 0.07728 0.0
C1164 C 0.84496 0.65111 0.93543 0.0
C1165 C 0.84995 0.65324 0.95503 0.0
C1166 C 0.86097 0.69242 0.98983 0.0
C1167 C 0.8639 0.68447 0.04426 0.0
C1168 C 0.86484 0.68078 0.02298 0.0
C1169 C 0.86037 0.66963 0.9614 0.0
C1170 C 0.86314 0.67347 0.98252 0.0
H1171 H 0.83695 0.70981 0.07702 0.0
H1172 H 0.83951 0.7043 0.0423 0.0
H1173 H 0.85995 0.71078 0.01482 0.0
H1174 H 0.86595 0.69231 0.91782 0.0
H1175 H 0.87516 0.69571 0.95177 0.0
C1176 C 0.42579 0.14055 0.20682 0.0
C1177 C 0.41346 0.13619 0.19122 0.0
C1178 C 0.44591 0.13956 0.20462 0.0
C1179 C 0.48545 0.1232 0.1709 0.0
H1180 H 0.51452 0.16263 0.1986 0.0
C1181 C 0.56505 0.14843 0.15457 0.0
C1182 C 0.57714 0.15006 0.17095 0.0
C1183 C 0.54537 0.14375 0.15674 0.0
C1184 C 0.5066 0.15144 0.19089 0.0
H1185 H 0.41242 0.12693 0.16118 0.0
H1186 H 0.44754 0.12607 0.15697 0.0
H1187 H 0.47967 0.16047 0.20305 0.0
H1188 H 0.57826 0.1471 0.20233 0.0
H1189 H 0.54399 0.13933 0.20603 0.0
H1190 H 0.51268 0.11497 0.15807 0.0
C1191 C 0.44178 0.12969 0.17113 0.0
C1192 C 0.48659 0.15006 0.19354 0.0
C1193 C 0.42161 0.13027 0.1735 0.0
C1194 C 0.56937 0.14603 0.1894 0.0
C1195 C 0.54973 0.14164 0.19156 0.0
C1196 C 0.50551 0.12485 0.16798 0.0
C1197 C 0.45423 0.13469 0.18658 0.0
C1198 C 0.47569 0.13583 0.18372 0.0
C1199 C 0.53746 0.14091 0.17532 0.0
C1200 C 0.51625 0.1389 0.17809 0.0
H1201 H 0.41989 0.14493 0.22073 0.0
H1202 H 0.45491 0.1429 0.21706 0.0
H1203 H 0.47767 0.11191 0.16324 0.0
H1204 H 0.57061 0.15143 0.14017 0.0
H1205 H 0.53615 0.14332 0.144 0.0
C1206 C 0.93653 0.84666 0.65097 0.0
C1207 C 0.92286 0.85241 0.66497 0.0
C1208 C 0.9562 0.85115 0.65338 0.0
C1209 C 0.99058 0.86187 0.69304 0.0
H1210 H 0.02714 0.86937 0.65093 0.0
C1211 C 0.07845 0.87413 0.68033 0.0
C1212 C 0.08542 0.85986 0.69315 0.0
C1213 C 0.05851 0.87597 0.67679 0.0
C1214 C 0.0171 0.86755 0.66289 0.0
H1215 H 0.91882 0.86867 0.69162 0.0
H1216 H 0.95291 0.87702 0.69549 0.0
H1217 H 0.99236 0.8689 0.64406 0.0
H1218 H 0.07688 0.83651 0.71249 0.0
H1219 H 0.04235 0.83958 0.70623 0.0
H1220 H 0.01519 0.86062 0.71188 0.0
C1221 C 0.94863 0.86849 0.68299 0.0
C1222 C 0.99717 0.86705 0.65892 0.0
C1223 C 0.92904 0.86383 0.6807 0.0
C1224 C 0.07203 0.84772 0.70259 0.0
C1225 C 0.05217 0.84956 0.69907 0.0
C1226 C 0.01043 0.86242 0.69699 0.0
C1227 C 0.96257 0.86163 0.66975 0.0
C1228 C 0.98367 0.86392 0.67392 0.0
C1229 C 0.04514 0.86362 0.68606 0.0
C1230 C 0.02397 0.8649 0.68194 0.0
H1231 H 0.9322 0.83779 0.63873 0.0
H1232 H 0.96651 0.8455 0.64294 0.0
H1233 H 0.9807 0.85916 0.70496 0.0
H1234 H 0.0884 0.8837 0.67282 0.0
H1235 H 0.05356 0.88707 0.66683 0.0
C1236 C 0.06954 0.35494 0.81602 0.0
C1237 C 0.0774 0.35116 0.83448 0.0
C1238 C 0.04989 0.35924 0.81388 0.0
C1239 C 0.00574 0.37646 0.83694 0.0
H1240 H 0.97999 0.34012 0.80253 0.0
C1241 C 0.92178 0.37215 0.82951 0.0
C1242 C 0.91407 0.36594 0.81169 0.0
C1243 C 0.94189 0.37245 0.83248 0.0
C1244 C 0.9869 0.35071 0.81187 0.0
H1245 H 0.07101 0.35014 0.86531 0.0
H1246 H 0.03648 0.35809 0.86149 0.0
H1247 H 0.01475 0.33771 0.80755 0.0
H1248 H 0.92122 0.35644 0.78259 0.0
H1249 H 0.95614 0.35798 0.78728 0.0
H1250 H 0.97797 0.38985 0.84087 0.0
C1251 C 0.04566 0.35752 0.84874 0.0
C1252 C 0.00684 0.34918 0.81485 0.0
C1253 C 0.06537 0.35294 0.85089 0.0
C1254 C 0.92678 0.36105 0.79657 0.0
C1255 C 0.94683 0.36175 0.79936 0.0
C1256 C 0.98574 0.37825 0.83368 0.0
C1257 C 0.03768 0.36012 0.83015 0.0
C1258 C 0.01646 0.36204 0.82736 0.0
C1259 C 0.9547 0.36687 0.81754 0.0
C1260 C 0.97604 0.36539 0.82103 0.0
H1261 H 0.07837 0.35377 0.80306 0.0
H1262 H 0.04408 0.36135 0.79941 0.0
H1263 H 0.0129 0.38657 0.84663 0.0
H1264 H 0.91228 0.37591 0.84146 0.0
H1265 H 0.9473 0.37631 0.84672 0.0
C1266 C 0.43554 0.6456 0.31639 0.0
C1267 C 0.42682 0.64935 0.33443 0.0
C1268 C 0.45489 0.63974 0.31529 0.0
C1269 C 0.50047 0.64121 0.34383 0.0
H1270 H 0.51967 0.61142 0.30007 0.0
C1271 C 0.58214 0.62513 0.33141 0.0
C1272 C 0.58877 0.63232 0.3135 0.0
C1273 C 0.56224 0.62353 0.3351 0.0
C1274 C 0.51447 0.61966 0.31242 0.0
H1275 H 0.43127 0.64891 0.36558 0.0
H1276 H 0.46493 0.63793 0.36375 0.0
H1277 H 0.48477 0.61439 0.30524 0.0
H1278 H 0.57988 0.64258 0.2851 0.0
H1279 H 0.54512 0.63919 0.29137 0.0
H1280 H 0.53033 0.64627 0.35097 0.0
C1281 C 0.45698 0.6401 0.35036 0.0
C1282 C 0.49448 0.62151 0.31534 0.0
C1283 C 0.43763 0.64625 0.35144 0.0
C1284 C 0.57518 0.63703 0.29905 0.0
C1285 C 0.55532 0.63502 0.30259 0.0
C1286 C 0.52046 0.63903 0.3411 0.0
C1287 C 0.46601 0.63717 0.33223 0.0
C1288 C 0.48718 0.63282 0.33075 0.0
C1289 C 0.54866 0.62864 0.32078 0.0
C1290 C 0.52762 0.62867 0.32508 0.0
H1291 H 0.42768 0.64795 0.30297 0.0
H1292 H 0.46128 0.63805 0.30103 0.0
H1293 H 0.49553 0.65026 0.3557 0.0
H1294 H 0.5923 0.62148 0.34285 0.0
H1295 H 0.55743 0.61854 0.34923 0.0
C1296 C 0.20671 0.4286 0.14212 0.0
C1297 C 0.19157 0.4158 0.13756 0.0
C1298 C 0.20393 0.44864 0.14102 0.0
C1299 C 0.16933 0.48719 0.12413 0.0
H1300 H 0.19597 0.5171 0.1637 0.0
C1301 C 0.15188 0.56682 0.14943 0.0
C1302 C 0.16816 0.5791 0.1505 0.0
C1303 C 0.15413 0.54713 0.1448 0.0
C1304 C 0.18853 0.50893 0.15249 0.0
H1305 H 0.16176 0.41382 0.1278 0.0
H1306 H 0.1565 0.44881 0.12677 0.0
H1307 H 0.20115 0.48233 0.16183 0.0
H1308 H 0.19939 0.58054 0.14649 0.0
H1309 H 0.20323 0.54627 0.13886 0.0
H1310 H 0.15603 0.51412 0.1156 0.0
C1311 C 0.17077 0.44349 0.13064 0.0
C1312 C 0.19161 0.48898 0.15127 0.0
C1313 C 0.17373 0.4234 0.1313 0.0
C1314 C 0.18654 0.57152 0.14588 0.0
C1315 C 0.18878 0.55188 0.14154 0.0
C1316 C 0.16596 0.50721 0.12563 0.0
C1317 C 0.18573 0.45641 0.13587 0.0
C1318 C 0.18224 0.47779 0.13695 0.0
C1319 C 0.17269 0.53942 0.14144 0.0
C1320 C 0.17571 0.51823 0.13972 0.0
H1321 H 0.2207 0.42312 0.14676 0.0
H1322 H 0.21604 0.45801 0.14452 0.0
H1323 H 0.16198 0.47918 0.11279 0.0
H1324 H 0.13754 0.57223 0.1529 0.0
H1325 H 0.14151 0.53775 0.14485 0.0
C1326 C 0.67791 0.93086 0.86573 0.0
C1327 C 0.66219 0.92514 0.85406 0.0
C1328 C 0.68027 0.95028 0.87104 0.0
C1329 C 0.65642 0.99899 0.87088 0.0
H1330 H 0.70936 0.017 0.86455 0.0
C1331 C 0.69988 0.07397 0.85196 0.0
C1332 C 0.69041 0.08728 0.86417 0.0
C1333 C 0.69649 0.05409 0.85376 0.0
C1334 C 0.69448 0.01224 0.86634 0.0
H1335 H 0.63601 0.93508 0.83975 0.0
H1336 H 0.64034 0.96906 0.8486 0.0
H1337 H 0.70237 0.98254 0.86261 0.0
H1338 H 0.67019 0.09008 0.88814 0.0
H1339 H 0.66441 0.0552 0.89144 0.0
H1340 H 0.6485 0.02893 0.87363 0.0
C1341 C 0.65072 0.95854 0.85393 0.0
C1342 C 0.69049 0.9924 0.86551 0.0
C1343 C 0.64825 0.93904 0.84879 0.0
C1344 C 0.67771 0.0802 0.87849 0.0
C1345 C 0.6743 0.06023 0.8803 0.0
C1346 C 0.66043 0.0189 0.87165 0.0
C1347 C 0.6671 0.96449 0.86461 0.0
C1348 C 0.67137 0.98551 0.86747 0.0
C1349 C 0.68357 0.04695 0.86786 0.0
C1350 C 0.67947 0.02577 0.86901 0.0
H1351 H 0.68879 0.92044 0.87021 0.0
H1352 H 0.69278 0.95425 0.87969 0.0
H1353 H 0.64157 0.99419 0.87267 0.0
H1354 H 0.7097 0.07891 0.84071 0.0
H1355 H 0.70364 0.04434 0.84372 0.0
C1356 C 0.85103 0.06512 0.34553 0.0
C1357 C 0.8372 0.07897 0.35123 0.0
C1358 C 0.84867 0.04557 0.35054 0.0
C1359 C 0.80925 0.01152 0.36288 0.0
H1360 H 0.85153 0.97512 0.37002 0.0
C1361 C 0.82269 0.92379 0.37576 0.0
C1362 C 0.80961 0.91661 0.36183 0.0
C1363 C 0.82606 0.94377 0.37742 0.0
C1364 C 0.83952 0.98511 0.36832 0.0
H1365 H 0.81092 0.08349 0.36793 0.0
H1366 H 0.80713 0.04961 0.37717 0.0
H1367 H 0.85833 0.00987 0.36887 0.0
H1368 H 0.78958 0.92482 0.33895 0.0
H1369 H 0.79556 0.95943 0.34168 0.0
H1370 H 0.79043 0.98687 0.36243 0.0
C1371 C 0.81946 0.05365 0.36829 0.0
C1372 C 0.84345 0.00503 0.36743 0.0
C1373 C 0.82171 0.07312 0.36312 0.0
C1374 C 0.7997 0.92984 0.34989 0.0
C1375 C 0.80305 0.94974 0.35154 0.0
C1376 C 0.80533 0.99167 0.36384 0.0
C1377 C 0.83252 0.03951 0.3615 0.0
C1378 C 0.82839 0.01847 0.36438 0.0
C1379 C 0.81637 0.95698 0.36522 0.0
C1380 C 0.82044 0.97818 0.36618 0.0
H1381 H 0.8631 0.06918 0.33631 0.0
H1382 H 0.85896 0.03511 0.34492 0.0
H1383 H 0.79727 0.02134 0.36026 0.0
H1384 H 0.83055 0.91397 0.38519 0.0
H1385 H 0.83625 0.94888 0.38824 0.0
C1386 C 0.35004 0.43586 0.65281 0.0
C1387 C 0.33582 0.42235 0.64726 0.0
C1388 C 0.34812 0.45545 0.6478 0.0
C1389 C 0.3094 0.49042 0.63618 0.0
H1390 H 0.35245 0.52588 0.62889 0.0
C1391 C 0.32479 0.57803 0.62479 0.0
C1392 C 0.31226 0.58521 0.63922 0.0
C1393 C 0.3276 0.55801 0.62261 0.0
C1394 C 0.34023 0.51616 0.63062 0.0
H1395 H 0.30928 0.41845 0.63079 0.0
H1396 H 0.30624 0.45243 0.62159 0.0
H1397 H 0.3584 0.49096 0.62941 0.0
H1398 H 0.29263 0.57698 0.66244 0.0
H1399 H 0.29764 0.54231 0.65877 0.0
H1400 H 0.29122 0.51552 0.63736 0.0
C1401 C 0.31856 0.44808 0.63032 0.0
C1402 C 0.34367 0.49614 0.63115 0.0
C1403 C 0.32038 0.42856 0.63548 0.0
C1404 C 0.30234 0.57196 0.65113 0.0
C1405 C 0.30512 0.55203 0.64894 0.0
C1406 C 0.30596 0.51037 0.6356 0.0
C1407 C 0.33202 0.4619 0.637 0.0
C1408 C 0.32833 0.48303 0.63429 0.0
C1409 C 0.31788 0.54478 0.63475 0.0
C1410 C 0.32137 0.52352 0.63324 0.0
H1411 H 0.36209 0.43153 0.66193 0.0
H1412 H 0.35871 0.46566 0.65333 0.0
H1413 H 0.29723 0.48085 0.63886 0.0
H1414 H 0.33264 0.58786 0.61537 0.0
H1415 H 0.33738 0.55289 0.61142 0.0
C1416 C 0.86004 0.82202 0.42873 0.0
C1417 C 0.84877 0.8378 0.42244 0.0
C1418 C 0.86503 0.82005 0.44829 0.0
C1419 C 0.86509 0.8453 0.4963 0.0
H1420 H 0.85857 0.79292 0.51583 0.0
C1421 C 0.84745 0.80374 0.57285 0.0
C1422 C 0.85996 0.8135 0.58566 0.0
C1423 C 0.84877 0.80669 0.55284 0.0
C1424 C 0.8604 0.80765 0.51065 0.0
H1425 H 0.83474 0.86444 0.43154 0.0
H1426 H 0.84304 0.8608 0.46579 0.0
H1427 H 0.85627 0.79899 0.4812 0.0
H1428 H 0.88393 0.83381 0.58745 0.0
H1429 H 0.88642 0.83879 0.55236 0.0
H1430 H 0.86827 0.85402 0.526 0.0
C1431 C 0.84831 0.85006 0.45559 0.0
C1432 C 0.85936 0.81111 0.49071 0.0
C1433 C 0.84349 0.85214 0.43594 0.0
C1434 C 0.87407 0.82607 0.57796 0.0
C1435 C 0.87541 0.82902 0.55787 0.0
C1436 C 0.86606 0.84183 0.51632 0.0
C1437 C 0.85867 0.83369 0.4621 0.0
C1438 C 0.86144 0.83001 0.48325 0.0
C1439 C 0.86268 0.81944 0.54508 0.0
C1440 C 0.8634 0.823 0.52375 0.0
H1441 H 0.86453 0.81083 0.41864 0.0
H1442 H 0.87345 0.80753 0.45267 0.0
H1443 H 0.86697 0.86 0.49108 0.0
H1444 H 0.83634 0.79402 0.57827 0.0
H1445 H 0.83852 0.79931 0.54349 0.0
C1446 C 0.64735 0.18464 0.93507 0.0
C1447 C 0.65077 0.16662 0.92618 0.0
C1448 C 0.64147 0.18569 0.95442 0.0
C1449 C 0.64213 0.15693 0.99991 0.0
H1450 H 0.61285 0.20105 0.019 0.0
C1451 C 0.62579 0.17004 0.08169 0.0
C1452 C 0.6333 0.18787 0.08819 0.0
C1453 C 0.62425 0.16617 0.06178 0.0
C1454 C 0.62093 0.18859 0.01383 0.0
H1455 H 0.6498 0.13547 0.9304 0.0
H1456 H 0.63882 0.13723 0.9641 0.0
H1457 H 0.61596 0.19588 0.9841 0.0
H1458 H 0.64424 0.21591 0.07905 0.0
H1459 H 0.64096 0.20936 0.04433 0.0
H1460 H 0.64691 0.1497 0.02983 0.0
C1461 C 0.64123 0.15063 0.95625 0.0
C1462 C 0.62287 0.18567 0.99384 0.0
C1463 C 0.64738 0.14959 0.93687 0.0
C1464 C 0.63844 0.20203 0.07446 0.0
C1465 C 0.63648 0.19833 0.05461 0.0
C1466 C 0.63987 0.15967 0.01991 0.0
C1467 C 0.63855 0.16873 0.96541 0.0
C1468 C 0.63403 0.17015 0.98658 0.0
C1469 C 0.62974 0.18024 0.04808 0.0
C1470 C 0.62971 0.17582 0.02704 0.0
H1471 H 0.64993 0.19807 0.92731 0.0
H1472 H 0.64 0.19991 0.96093 0.0
H1473 H 0.65103 0.14495 0.99499 0.0
H1474 H 0.62182 0.15882 0.09196 0.0
H1475 H 0.619 0.15212 0.05707 0.0
C1476 C 0.36217 0.70474 0.42758 0.0
C1477 C 0.36725 0.68984 0.41468 0.0
C1478 C 0.36282 0.7017 0.4476 0.0
C1479 C 0.37952 0.66712 0.48618 0.0
H1480 H 0.33884 0.69273 0.51545 0.0
C1481 C 0.35405 0.6496 0.56587 0.0
C1482 C 0.35263 0.666 0.57797 0.0
C1483 C 0.35859 0.65173 0.54613 0.0
C1484 C 0.35034 0.68557 0.50746 0.0
H1485 H 0.3775 0.66021 0.41254 0.0
H1486 H 0.3778 0.65451 0.44753 0.0
H1487 H 0.34115 0.69799 0.48069 0.0
H1488 H 0.35585 0.69734 0.57903 0.0
H1489 H 0.36333 0.70096 0.54469 0.0
H1490 H 0.38797 0.65407 0.51327 0.0
C1491 C 0.37383 0.66877 0.44228 0.0
C1492 C 0.35181 0.68869 0.48752 0.0
C1493 C 0.37359 0.67199 0.42219 0.0
C1494 C 0.35674 0.6844 0.57015 0.0
C1495 C 0.36098 0.68652 0.55047 0.0
C1496 C 0.37778 0.66371 0.50618 0.0
C1497 C 0.36806 0.68349 0.45527 0.0
C1498 C 0.36657 0.67975 0.47658 0.0
C1499 C 0.3615 0.67029 0.5382 0.0
C1500 C 0.3633 0.67311 0.51698 0.0
H1501 H 0.35747 0.71874 0.42218 0.0
H1502 H 0.35891 0.71363 0.45705 0.0
H1503 H 0.39117 0.66009 0.47834 0.0
H1504 H 0.35099 0.63524 0.57147 0.0
H1505 H 0.35887 0.63901 0.53689 0.0
C1506 C 0.15436 0.35176 0.06606 0.0
C1507 C 0.14922 0.33754 0.07974 0.0
C1508 C 0.1492 0.34958 0.04651 0.0
C1509 C 0.13776 0.3103 0.01197 0.0
H1510 H 0.12932 0.35285 0.97614 0.0
C1511 C 0.12449 0.32446 0.92434 0.0
C1512 C 0.13885 0.31193 0.91703 0.0
C1513 C 0.12269 0.32753 0.94438 0.0
C1514 C 0.13138 0.34076 0.98597 0.0
H1515 H 0.13332 0.31073 0.084 0.0
H1516 H 0.1238 0.30725 0.05014 0.0
H1517 H 0.13038 0.35921 0.01101 0.0
H1518 H 0.16237 0.2926 0.92506 0.0
H1519 H 0.15939 0.29806 0.95975 0.0
H1520 H 0.13869 0.29183 0.98705 0.0
C1521 C 0.13236 0.31976 0.0543 0.0
C1522 C 0.13222 0.34444 0.00596 0.0
C1523 C 0.13769 0.32183 0.07375 0.0
C1524 C 0.1511 0.30229 0.93018 0.0
C1525 C 0.1493 0.30534 0.95013 0.0
C1526 C 0.13686 0.30662 0.99206 0.0
C1527 C 0.13864 0.33323 0.04029 0.0
C1528 C 0.13575 0.32929 0.01919 0.0
C1529 C 0.13518 0.31809 0.9575 0.0
C1530 C 0.13407 0.32184 0.97877 0.0
H1531 H 0.1633 0.36401 0.07022 0.0
H1532 H 0.15442 0.36019 0.03615 0.0
H1533 H 0.14075 0.29827 0.02163 0.0
H1534 H 0.11482 0.33211 0.91459 0.0
H1535 H 0.11154 0.3373 0.9496 0.0
C1536 C 0.5714 0.86405 0.79858 0.0
C1537 C 0.58524 0.86886 0.81276 0.0
C1538 C 0.5516 0.86626 0.80239 0.0
C1539 C 0.51715 0.86294 0.84123 0.0
H1540 H 0.48143 0.88841 0.80601 0.0
C1541 C 0.43447 0.85672 0.85275 0.0
C1542 C 0.42335 0.85391 0.83589 0.0
C1543 C 0.45383 0.86277 0.85143 0.0
C1544 C 0.49114 0.88106 0.81593 0.0
H1545 H 0.58927 0.88003 0.84192 0.0
H1546 H 0.55451 0.88327 0.84878 0.0
H1547 H 0.51629 0.89071 0.80032 0.0
H1548 H 0.42365 0.85586 0.80445 0.0
H1549 H 0.45728 0.86556 0.80207 0.0
H1550 H 0.49225 0.85212 0.85614 0.0
C1551 C 0.55908 0.87808 0.83466 0.0
C1552 C 0.51111 0.88253 0.81271 0.0
C1553 C 0.57892 0.8763 0.83069 0.0
C1554 C 0.43176 0.85798 0.81776 0.0
C1555 C 0.45113 0.86371 0.81641 0.0
C1556 C 0.49717 0.86112 0.84425 0.0
C1557 C 0.54526 0.87293 0.82058 0.0
C1558 C 0.52427 0.87323 0.82515 0.0
C1559 C 0.46259 0.86586 0.83319 0.0
C1560 C 0.48384 0.86983 0.83141 0.0
H1561 H 0.57586 0.85832 0.78463 0.0
H1562 H 0.54121 0.86205 0.79136 0.0
H1563 H 0.52704 0.8555 0.85094 0.0
H1564 H 0.42836 0.85381 0.86695 0.0
H1565 H 0.46202 0.86465 0.86471 0.0
C1566 C 0.92314 0.13143 0.32815 0.0
C1567 C 0.91561 0.13736 0.31016 0.0
C1568 C 0.94322 0.13101 0.33127 0.0
C1569 C 0.98864 0.1518 0.31049 0.0
H1570 H 0.01386 0.11678 0.34666 0.0
C1571 C 0.07123 0.14714 0.31628 0.0
C1572 C 0.07868 0.15171 0.33473 0.0
C1573 C 0.05161 0.1428 0.31388 0.0
C1574 C 0.00693 0.12664 0.33657 0.0
H1575 H 0.92305 0.14623 0.28093 0.0
H1576 H 0.95793 0.14443 0.28589 0.0
H1577 H 0.979 0.11359 0.34049 0.0
H1578 H 0.0716 0.15409 0.36533 0.0
H1579 H 0.03715 0.14602 0.36109 0.0
H1580 H 0.01668 0.16444 0.3062 0.0
C1581 C 0.9485 0.14099 0.29798 0.0
C1582 C 0.98696 0.12492 0.33307 0.0
C1583 C 0.92848 0.14184 0.29503 0.0
C1584 C 0.06628 0.15067 0.35093 0.0
C1585 C 0.04662 0.14602 0.34853 0.0
C1586 C 0.00856 0.15325 0.31371 0.0
C1587 C 0.95619 0.13616 0.31631 0.0
C1588 C 0.97753 0.13749 0.31995 0.0
C1589 C 0.03905 0.14264 0.32989 0.0
C1590 C 0.01789 0.14071 0.32674 0.0
H1591 H 0.91352 0.128 0.3401 0.0
H1592 H 0.94848 0.12739 0.34563 0.0
H1593 H 0.98196 0.16218 0.30078 0.0
H1594 H 0.08036 0.14775 0.30349 0.0
H1595 H 0.04611 0.14009 0.29938 0.0
C1596 C 0.08046 0.63203 0.17381 0.0
C1597 C 0.08779 0.63845 0.19172 0.0
C1598 C 0.06042 0.63161 0.17045 0.0
C1599 C 0.01494 0.65333 0.18999 0.0
H1600 H 0.98971 0.61697 0.15516 0.0
C1601 C 0.93246 0.6481 0.18491 0.0
C1602 C 0.92476 0.65197 0.16639 0.0
C1603 C 0.95212 0.64398 0.18724 0.0
C1604 C 0.99666 0.62722 0.16486 0.0
H1605 H 0.08002 0.64817 0.22059 0.0
H1606 H 0.04521 0.6464 0.21523 0.0
H1607 H 0.02457 0.61396 0.16152 0.0
H1608 H 0.93148 0.65331 0.13565 0.0
H1609 H 0.96605 0.64565 0.13979 0.0
H1610 H 0.98693 0.66618 0.19373 0.0
C1611 C 0.05478 0.64257 0.20337 0.0
C1612 C 0.01662 0.62559 0.16846 0.0
C1613 C 0.07476 0.64341 0.20655 0.0
C1614 C 0.93699 0.65044 0.1501 0.0
C1615 C 0.95672 0.64602 0.15244 0.0
C1616 C 0.99504 0.65471 0.18666 0.0
C1617 C 0.0473 0.63726 0.18509 0.0
C1618 C 0.02602 0.63861 0.18116 0.0
C1619 C 0.96451 0.64335 0.1711 0.0
C1620 C 0.9857 0.64167 0.17413 0.0
H1621 H 0.09022 0.62822 0.16208 0.0
H1622 H 0.05531 0.62758 0.15615 0.0
H1623 H 0.02162 0.66405 0.19934 0.0
H1624 H 0.92347 0.64908 0.19778 0.0
H1625 H 0.95779 0.64181 0.20175 0.0
C1626 C 0.42655 0.36408 0.70594 0.0
C1627 C 0.41386 0.36781 0.69046 0.0
C1628 C 0.4466 0.36536 0.70332 0.0
C1629 C 0.48528 0.38124 0.66836 0.0
H1630 H 0.51535 0.34305 0.69673 0.0
C1631 C 0.56497 0.35587 0.65186 0.0
C1632 C 0.57725 0.35517 0.66817 0.0
C1633 C 0.54529 0.36057 0.65401 0.0
C1634 C 0.50714 0.35389 0.68882 0.0
H1635 H 0.41208 0.37627 0.66023 0.0
H1636 H 0.4471 0.37759 0.65531 0.0
H1637 H 0.48055 0.34487 0.70171 0.0
H1638 H 0.57873 0.35994 0.69931 0.0
H1639 H 0.54448 0.36772 0.70299 0.0
H1640 H 0.51219 0.3894 0.6548 0.0
C1641 C 0.44168 0.37426 0.66967 0.0
C1642 C 0.48717 0.35508 0.69177 0.0
C1643 C 0.42157 0.37343 0.67245 0.0
C1644 C 0.5697 0.36026 0.68644 0.0
C1645 C 0.55007 0.36467 0.6886 0.0
C1646 C 0.50531 0.37975 0.66514 0.0
C1647 C 0.4545 0.36985 0.68499 0.0
C1648 C 0.47591 0.36888 0.68174 0.0
C1649 C 0.53759 0.36438 0.67251 0.0
C1650 C 0.5164 0.36616 0.67549 0.0
H1651 H 0.42098 0.35995 0.72006 0.0
H1652 H 0.45589 0.36249 0.71567 0.0
H1653 H 0.47722 0.39219 0.6605 0.0
H1654 H 0.57036 0.35204 0.63759 0.0
H1655 H 0.5359 0.36021 0.64139 0.0
C1656 C 0.82115 0.57999 0.87676 0.0
C1657 C 0.80807 0.58718 0.86283 0.0
C1658 C 0.82438 0.55999 0.87853 0.0
C1659 C 0.83765 0.51859 0.86956 0.0
H1660 H 0.79531 0.48243 0.86161 0.0
C1661 C 0.84904 0.4385 0.84698 0.0
C1662 C 0.83519 0.42468 0.85272 0.0
C1663 C 0.84669 0.45807 0.85192 0.0
C1664 C 0.80731 0.49224 0.86419 0.0
H1665 H 0.78789 0.57897 0.84009 0.0
H1666 H 0.79364 0.54433 0.84301 0.0
H1667 H 0.78855 0.51692 0.86373 0.0
H1668 H 0.80888 0.42024 0.86938 0.0
H1669 H 0.80511 0.45417 0.8785 0.0
H1670 H 0.85641 0.49379 0.87012 0.0
C1671 C 0.80123 0.55402 0.85278 0.0
C1672 C 0.80344 0.5121 0.86513 0.0
C1673 C 0.798 0.57394 0.85103 0.0
C1674 C 0.81968 0.43059 0.86455 0.0
C1675 C 0.81744 0.45008 0.86965 0.0
C1676 C 0.84154 0.49866 0.86869 0.0
C1677 C 0.81457 0.54678 0.86644 0.0
C1678 C 0.81858 0.52557 0.86743 0.0
C1679 C 0.83053 0.46419 0.86284 0.0
C1680 C 0.82644 0.48525 0.86568 0.0
H1681 H 0.82913 0.58981 0.88609 0.0
H1682 H 0.83459 0.55489 0.88934 0.0
H1683 H 0.84969 0.52856 0.87122 0.0
H1684 H 0.86112 0.4344 0.8378 0.0
H1685 H 0.857 0.46851 0.84628 0.0
C1686 C 0.30254 0.92939 0.14957 0.0
C1687 C 0.31294 0.91607 0.13816 0.0
C1688 C 0.30555 0.94931 0.1475 0.0
C1689 C 0.30742 0.99097 0.13424 0.0
H1690 H 0.36031 0.00988 0.13089 0.0
C1691 C 0.32274 0.07265 0.13461 0.0
C1692 C 0.3376 0.07878 0.14716 0.0
C1693 C 0.32094 0.05311 0.12953 0.0
C1694 C 0.34545 0.00484 0.13183 0.0
H1695 H 0.33439 0.91326 0.11528 0.0
H1696 H 0.33953 0.9482 0.11154 0.0
H1697 H 0.35404 0.97501 0.12995 0.0
H1698 H 0.36288 0.06941 0.16337 0.0
H1699 H 0.35952 0.03523 0.15487 0.0
H1700 H 0.29882 0.02058 0.1371 0.0
C1701 C 0.32919 0.94316 0.12225 0.0
C1702 C 0.34184 0.98485 0.13107 0.0
C1703 C 0.32615 0.92316 0.1243 0.0
C1704 C 0.35129 0.06514 0.15364 0.0
C1705 C 0.34939 0.04553 0.14869 0.0
C1706 C 0.31102 0.01089 0.13505 0.0
C1707 C 0.31902 0.95646 0.13394 0.0
C1708 C 0.3228 0.97768 0.13266 0.0
C1709 C 0.33385 0.03919 0.13704 0.0
C1710 C 0.3301 0.01809 0.13418 0.0
H1711 H 0.2923 0.92445 0.16043 0.0
H1712 H 0.29768 0.95909 0.15696 0.0
H1713 H 0.29255 0.98596 0.13523 0.0
H1714 H 0.31207 0.08286 0.1292 0.0
H1715 H 0.30908 0.04883 0.12014 0.0
C1716 C 0.1519 0.93366 0.65458 0.0
C1717 C 0.16822 0.92153 0.65643 0.0
C1718 C 0.1542 0.95338 0.65008 0.0
C1719 C 0.18805 0.99204 0.65883 0.0
H1720 H 0.16331 0.0209 0.61734 0.0
C1721 C 0.20792 0.07161 0.64643 0.0
C1722 C 0.19317 0.08456 0.64104 0.0
C1723 C 0.20474 0.05162 0.64595 0.0
C1724 C 0.17014 0.01314 0.62917 0.0
H1725 H 0.19963 0.92041 0.6541 0.0
H1726 H 0.20353 0.95471 0.64669 0.0
H1727 H 0.15709 0.98604 0.62075 0.0
H1728 H 0.16368 0.08681 0.63043 0.0
H1729 H 0.15773 0.05188 0.6304 0.0
H1730 H 0.20047 0.01883 0.66796 0.0
C1731 C 0.18902 0.94898 0.64866 0.0
C1732 C 0.16661 0.99318 0.63104 0.0
C1733 C 0.18674 0.92932 0.65286 0.0
C1734 C 0.17534 0.07712 0.63457 0.0
C1735 C 0.17198 0.05706 0.63449 0.0
C1736 C 0.19129 0.01194 0.65722 0.0
C1737 C 0.17284 0.96127 0.64766 0.0
C1738 C 0.17576 0.98246 0.64575 0.0
C1739 C 0.18653 0.04404 0.64056 0.0
C1740 C 0.18262 0.02278 0.64222 0.0
H1741 H 0.13745 0.92809 0.65722 0.0
H1742 H 0.14151 0.96264 0.64942 0.0
H1743 H 0.19502 0.98413 0.67051 0.0
H1744 H 0.22191 0.07695 0.65124 0.0
H1745 H 0.21655 0.04213 0.65009 0.0
C1746 C 0.70173 0.42961 0.35348 0.0
C1747 C 0.69184 0.41615 0.36519 0.0
C1748 C 0.69868 0.44949 0.35579 0.0
C1749 C 0.69709 0.49108 0.36921 0.0
H1750 H 0.64432 0.50968 0.37506 0.0
C1751 C 0.68148 0.57265 0.36855 0.0
C1752 C 0.66596 0.57851 0.3567 0.0
C1753 C 0.68355 0.55322 0.37395 0.0
C1754 C 0.65915 0.50473 0.37341 0.0
H1755 H 0.67125 0.41308 0.38881 0.0
H1756 H 0.66607 0.44796 0.39299 0.0
H1757 H 0.65081 0.47486 0.37565 0.0
H1758 H 0.63979 0.56881 0.34218 0.0
H1759 H 0.64363 0.53484 0.35116 0.0
H1760 H 0.70539 0.52071 0.36591 0.0
C1761 C 0.67603 0.44305 0.38186 0.0
C1762 C 0.66289 0.48476 0.37398 0.0
C1763 C 0.67909 0.42308 0.37955 0.0
C1764 C 0.6519 0.56475 0.35135 0.0
C1765 C 0.65408 0.54525 0.35658 0.0
C1766 C 0.69335 0.51097 0.36856 0.0
C1767 C 0.6857 0.45648 0.3699 0.0
C1768 C 0.68188 0.47769 0.37147 0.0
C1769 C 0.67028 0.53913 0.36744 0.0
C1770 C 0.67429 0.51807 0.37031 0.0
H1771 H 0.7116 0.42479 0.34223 0.0
H1772 H 0.70614 0.45937 0.34609 0.0
H1773 H 0.71193 0.48616 0.36753 0.0
H1774 H 0.69245 0.58295 0.37309 0.0
H1775 H 0.69594 0.54913 0.38273 0.0
loop_
_geom_bond_atom_site_label_1
_geom_bond_atom_site_label_2
_geom_bond_distance
_geom_bond_site_symmetry_2
_ccdc_geom_bond_type
O0 Cd1 2.223 . S
O0 C8 1.315 . S
Cd1 O0 2.223 . S
Cd1 O4 2.297 . S
Cd1 O5 2.439 . S
Cd1 O11 2.240 . S
Cd2 O3 2.240 . S
Cd2 O10 2.223 . S
Cd2 O12 2.297 . S
Cd2 O13 2.439 . S
O3 Cd2 2.240 . S
O3 C8 1.279 . S
O4 Cd1 2.297 . S
O4 C6 1.247 . S
O5 Cd1 2.439 . S
O5 C6 1.208 . S
C6 O4 1.247 . S
C6 O5 1.208 . S
C7 O12 1.247 . S
C7 O13 1.208 . S
C8 O0 1.315 . S
C8 O3 1.279 . S
C9 O10 1.315 . S
C9 O11 1.279 . S
O10 Cd2 2.223 . S
O10 C9 1.315 . S
O11 Cd1 2.240 . S
O11 C9 1.279 . S
O12 Cd2 2.297 . S
O12 C7 1.247 . S
O13 Cd2 2.439 . S
O13 C7 1.208 . S
O14 Cd15 2.223 . S
O14 C22 1.315 . S
Cd15 O14 2.223 . S
Cd15 O18 2.297 . S
Cd15 O19 2.439 . S
Cd15 O25 2.240 . S
Cd16 O17 2.240 . S
Cd16 O24 2.223 . S
Cd16 O26 2.297 . S
Cd16 O27 2.439 . S
O17 Cd16 2.240 . S
O17 C22 1.279 . S
O18 Cd15 2.297 . S
O18 C20 1.247 . S
O19 Cd15 2.439 . S
O19 C20 1.208 . S
C20 O18 1.247 . S
C20 O19 1.208 . S
C21 O26 1.247 . S
C21 O27 1.208 . S
C22 O14 1.315 . S
C22 O17 1.279 . S
C23 O24 1.315 . S
C23 O25 1.279 . S
O24 Cd16 2.223 . S
O24 C23 1.315 . S
O25 Cd15 2.240 . S
O25 C23 1.279 . S
O26 Cd16 2.297 . S
O26 C21 1.247 . S
O27 Cd16 2.439 . S
O27 C21 1.208 . S
O28 Cd29 2.223 . S
O28 C36 1.315 . S
Cd29 O28 2.223 . S
Cd29 O32 2.297 . S
Cd29 O33 2.439 . S
Cd29 O39 2.240 . S
Cd30 O31 2.240 . S
Cd30 O38 2.223 . S
Cd30 O40 2.297 . S
Cd30 O41 2.439 . S
O31 Cd30 2.240 . S
O31 C36 1.279 . S
O32 Cd29 2.297 . S
O32 C34 1.247 . S
O33 Cd29 2.439 . S
O33 C34 1.208 . S
C34 O32 1.247 . S
C34 O33 1.208 . S
C35 O40 1.247 . S
C35 O41 1.208 . S
C36 O28 1.315 . S
C36 O31 1.279 . S
C37 O38 1.315 . S
C37 O39 1.279 . S
O38 Cd30 2.223 . S
O38 C37 1.315 . S
O39 Cd29 2.240 . S
O39 C37 1.279 . S
O40 Cd30 2.297 . S
O40 C35 1.247 . S
O41 Cd30 2.439 . S
O41 C35 1.208 . S
O42 Cd43 2.223 . S
O42 C50 1.315 . S
Cd43 O42 2.223 . S
Cd43 O46 2.297 . S
Cd43 O47 2.439 . S
Cd43 O53 2.240 . S
Cd44 O45 2.240 . S
Cd44 O52 2.223 . S
Cd44 O54 2.297 . S
Cd44 O55 2.439 . S
O45 Cd44 2.240 . S
O45 C50 1.279 . S
O46 Cd43 2.297 . S
O46 C48 1.247 . S
O47 Cd43 2.439 . S
O47 C48 1.208 . S
C48 O46 1.247 . S
C48 O47 1.208 . S
C49 O54 1.247 . S
C49 O55 1.208 . S
C50 O42 1.315 . S
C50 O45 1.279 . S
C51 O52 1.315 . S
C51 O53 1.279 . S
O52 Cd44 2.223 . S
O52 C51 1.315 . S
O53 Cd43 2.240 . S
O53 C51 1.279 . S
O54 Cd44 2.297 . S
O54 C49 1.247 . S
O55 Cd44 2.439 . S
O55 C49 1.208 . S
O56 Cd57 2.223 . S
O56 C64 1.315 . S
Cd57 O56 2.223 . S
Cd57 O60 2.297 . S
Cd57 O61 2.439 . S
Cd57 O67 2.240 . S
Cd58 O59 2.240 . S
Cd58 O66 2.223 . S
Cd58 O68 2.297 . S
Cd58 O69 2.439 . S
O59 Cd58 2.240 . S
O59 C64 1.279 . S
O60 Cd57 2.297 . S
O60 C62 1.247 . S
O61 Cd57 2.439 . S
O61 C62 1.208 . S
C62 O60 1.247 . S
C62 O61 1.208 . S
C63 O68 1.247 . S
C63 O69 1.208 . S
C64 O56 1.315 . S
C64 O59 1.279 . S
C65 O66 1.315 . S
C65 O67 1.279 . S
O66 Cd58 2.223 . S
O66 C65 1.315 . S
O67 Cd57 2.240 . S
O67 C65 1.279 . S
O68 Cd58 2.297 . S
O68 C63 1.247 . S
O69 Cd58 2.439 . S
O69 C63 1.208 . S
O70 Cd71 2.223 . S
O70 C78 1.315 . S
Cd71 O70 2.223 . S
Cd71 O74 2.297 . S
Cd71 O75 2.439 . S
Cd71 O81 2.240 . S
Cd72 O73 2.240 . S
Cd72 O80 2.223 . S
Cd72 O82 2.297 . S
Cd72 O83 2.439 . S
O73 Cd72 2.240 . S
O73 C78 1.279 . S
O74 Cd71 2.297 . S
O74 C76 1.247 . S
O75 Cd71 2.439 . S
O75 C76 1.208 . S
C76 O74 1.247 . S
C76 O75 1.208 . S
C77 O82 1.247 . S
C77 O83 1.208 . S
C78 O70 1.315 . S
C78 O73 1.279 . S
C79 O80 1.315 . S
C79 O81 1.279 . S
O80 Cd72 2.223 . S
O80 C79 1.315 . S
O81 Cd71 2.240 . S
O81 C79 1.279 . S
O82 Cd72 2.297 . S
O82 C77 1.247 . S
O83 Cd72 2.439 . S
O83 C77 1.208 . S
O84 Cd85 2.223 . S
O84 C92 1.315 . S
Cd85 O84 2.223 . S
Cd85 O88 2.297 . S
Cd85 O89 2.439 . S
Cd85 O95 2.240 . S
Cd86 O87 2.240 . S
Cd86 O94 2.223 . S
Cd86 O96 2.297 . S
Cd86 O97 2.439 . S
O87 Cd86 2.240 . S
O87 C92 1.279 . S
O88 Cd85 2.297 . S
O88 C90 1.247 . S
O89 Cd85 2.439 . S
O89 C90 1.208 . S
C90 O88 1.247 . S
C90 O89 1.208 . S
C91 O96 1.247 . S
C91 O97 1.208 . S
C92 O84 1.315 . S
C92 O87 1.279 . S
C93 O94 1.315 . S
C93 O95 1.279 . S
O94 Cd86 2.223 . S
O94 C93 1.315 . S
O95 Cd85 2.240 . S
O95 C93 1.279 . S
O96 Cd86 2.297 . S
O96 C91 1.247 . S
O97 Cd86 2.439 . S
O97 C91 1.208 . S
O98 Cd99 2.223 . S
O98 C106 1.315 . S
Cd99 O98 2.223 . S
Cd99 O102 2.297 . S
Cd99 O103 2.439 . S
Cd99 O109 2.240 . S
Cd100 O101 2.240 . S
Cd100 O108 2.223 . S
Cd100 O110 2.297 . S
Cd100 O111 2.439 . S
O101 Cd100 2.240 . S
O101 C106 1.279 . S
O102 Cd99 2.297 . S
O102 C104 1.247 . S
O103 Cd99 2.439 . S
O103 C104 1.208 . S
C104 O102 1.247 . S
C104 O103 1.208 . S
C105 O110 1.247 . S
C105 O111 1.208 . S
C106 O98 1.315 . S
C106 O101 1.279 . S
C107 O108 1.315 . S
C107 O109 1.279 . S
O108 Cd100 2.223 . S
O108 C107 1.315 . S
O109 Cd99 2.240 . S
O109 C107 1.279 . S
O110 Cd100 2.297 . S
O110 C105 1.247 . S
O111 Cd100 2.439 . S
O111 C105 1.208 . S
O112 Cd113 2.223 . S
O112 C120 1.315 . S
Cd113 O112 2.223 . S
Cd113 O116 2.297 . S
Cd113 O117 2.439 . S
Cd113 O123 2.240 . S
Cd114 O115 2.240 . S
Cd114 O122 2.223 . S
Cd114 O124 2.297 . S
Cd114 O125 2.439 . S
O115 Cd114 2.240 . S
O115 C120 1.279 . S
O116 Cd113 2.297 . S
O116 C118 1.247 . S
O117 Cd113 2.439 . S
O117 C118 1.208 . S
C118 O116 1.247 . S
C118 O117 1.208 . S
C119 O124 1.247 . S
C119 O125 1.208 . S
C120 O112 1.315 . S
C120 O115 1.279 . S
C121 O122 1.315 . S
C121 O123 1.279 . S
O122 Cd114 2.223 . S
O122 C121 1.315 . S
O123 Cd113 2.240 . S
O123 C121 1.279 . S
O124 Cd114 2.297 . S
O124 C119 1.247 . S
O125 Cd114 2.439 . S
O125 C119 1.208 . S
O126 Cd127 2.223 . S
O126 C134 1.315 . S
Cd127 O126 2.223 . S
Cd127 O130 2.297 . S
Cd127 O131 2.439 . S
Cd127 O137 2.240 . S
Cd128 O129 2.240 . S
Cd128 O136 2.223 . S
Cd128 O138 2.297 . S
Cd128 O139 2.439 . S
O129 Cd128 2.240 . S
O129 C134 1.279 . S
O130 Cd127 2.297 . S
O130 C132 1.247 . S
O131 Cd127 2.439 . S
O131 C132 1.208 . S
C132 O130 1.247 . S
C132 O131 1.208 . S
C133 O138 1.247 . S
C133 O139 1.208 . S
C134 O126 1.315 . S
C134 O129 1.279 . S
C135 O136 1.315 . S
C135 O137 1.279 . S
O136 Cd128 2.223 . S
O136 C135 1.315 . S
O137 Cd127 2.240 . S
O137 C135 1.279 . S
O138 Cd128 2.297 . S
O138 C133 1.247 . S
O139 Cd128 2.439 . S
O139 C133 1.208 . S
O140 Cd141 2.223 . S
O140 C148 1.315 . S
Cd141 O140 2.223 . S
Cd141 O144 2.297 . S
Cd141 O145 2.439 . S
Cd141 O151 2.240 . S
Cd142 O143 2.240 . S
Cd142 O150 2.223 . S
Cd142 O152 2.297 . S
Cd142 O153 2.439 . S
O143 Cd142 2.240 . S
O143 C148 1.279 . S
O144 Cd141 2.297 . S
O144 C146 1.247 . S
O145 Cd141 2.439 . S
O145 C146 1.208 . S
C146 O144 1.247 . S
C146 O145 1.208 . S
C147 O152 1.247 . S
C147 O153 1.208 . S
C148 O140 1.315 . S
C148 O143 1.279 . S
C149 O150 1.315 . S
C149 O151 1.279 . S
O150 Cd142 2.223 . S
O150 C149 1.315 . S
O151 Cd141 2.240 . S
O151 C149 1.279 . S
O152 Cd142 2.297 . S
O152 C147 1.247 . S
O153 Cd142 2.439 . S
O153 C147 1.208 . S
O154 Cd155 2.223 . S
O154 C162 1.315 . S
Cd155 O154 2.223 . S
Cd155 O158 2.297 . S
Cd155 O159 2.439 . S
Cd155 O165 2.240 . S
Cd156 O157 2.240 . S
Cd156 O164 2.223 . S
Cd156 O166 2.297 . S
Cd156 O167 2.439 . S
O157 Cd156 2.240 . S
O157 C162 1.279 . S
O158 Cd155 2.297 . S
O158 C160 1.247 . S
O159 Cd155 2.439 . S
O159 C160 1.208 . S
C160 O158 1.247 . S
C160 O159 1.208 . S
C161 O166 1.247 . S
C161 O167 1.208 . S
C162 O154 1.315 . S
C162 O157 1.279 . S
C163 O164 1.315 . S
C163 O165 1.279 . S
O164 Cd156 2.223 . S
O164 C163 1.315 . S
O165 Cd155 2.240 . S
O165 C163 1.279 . S
O166 Cd156 2.297 . S
O166 C161 1.247 . S
O167 Cd156 2.439 . S
O167 C161 1.208 . S
O168 Cd169 2.223 . S
O168 C176 1.315 . S
Cd169 O168 2.223 . S
Cd169 O172 2.297 . S
Cd169 O173 2.439 . S
Cd169 O179 2.240 . S
Cd170 O171 2.240 . S
Cd170 O178 2.223 . S
Cd170 O180 2.297 . S
Cd170 O181 2.439 . S
O171 Cd170 2.240 . S
O171 C176 1.279 . S
O172 Cd169 2.297 . S
O172 C174 1.247 . S
O173 Cd169 2.439 . S
O173 C174 1.208 . S
C174 O172 1.247 . S
C174 O173 1.208 . S
C175 O180 1.247 . S
C175 O181 1.208 . S
C176 O168 1.315 . S
C176 O171 1.279 . S
C177 O178 1.315 . S
C177 O179 1.279 . S
O178 Cd170 2.223 . S
O178 C177 1.315 . S
O179 Cd169 2.240 . S
O179 C177 1.279 . S
O180 Cd170 2.297 . S
O180 C175 1.247 . S
O181 Cd170 2.439 . S
O181 C175 1.208 . S
O182 Cd183 2.223 . S
O182 C190 1.315 . S
Cd183 O182 2.223 . S
Cd183 O186 2.297 . S
Cd183 O187 2.439 . S
Cd183 O193 2.240 . S
Cd184 O185 2.240 . S
Cd184 O192 2.223 . S
Cd184 O194 2.297 . S
Cd184 O195 2.439 . S
O185 Cd184 2.240 . S
O185 C190 1.279 . S
O186 Cd183 2.297 . S
O186 C188 1.247 . S
O187 Cd183 2.439 . S
O187 C188 1.208 . S
C188 O186 1.247 . S
C188 O187 1.208 . S
C189 O194 1.247 . S
C189 O195 1.208 . S
C190 O182 1.315 . S
C190 O185 1.279 . S
C191 O192 1.315 . S
C191 O193 1.279 . S
O192 Cd184 2.223 . S
O192 C191 1.315 . S
O193 Cd183 2.240 . S
O193 C191 1.279 . S
O194 Cd184 2.297 . S
O194 C189 1.247 . S
O195 Cd184 2.439 . S
O195 C189 1.208 . S
O196 Cd197 2.223 . S
O196 C204 1.315 . S
Cd197 O196 2.223 . S
Cd197 O200 2.297 . S
Cd197 O201 2.439 . S
Cd197 O207 2.240 . S
Cd198 O199 2.240 . S
Cd198 O206 2.223 . S
Cd198 O208 2.297 . S
Cd198 O209 2.439 . S
O199 Cd198 2.240 . S
O199 C204 1.279 . S
O200 Cd197 2.297 . S
O200 C202 1.247 . S
O201 Cd197 2.439 . S
O201 C202 1.208 . S
C202 O200 1.247 . S
C202 O201 1.208 . S
C203 O208 1.247 . S
C203 O209 1.208 . S
C204 O196 1.315 . S
C204 O199 1.279 . S
C205 O206 1.315 . S
C205 O207 1.279 . S
O206 Cd198 2.223 . S
O206 C205 1.315 . S
O207 Cd197 2.240 . S
O207 C205 1.279 . S
O208 Cd198 2.297 . S
O208 C203 1.247 . S
O209 Cd198 2.439 . S
O209 C203 1.208 . S
O210 Cd211 2.223 . S
O210 C218 1.315 . S
Cd211 O210 2.223 . S
Cd211 O214 2.297 . S
Cd211 O215 2.439 . S
Cd211 O221 2.240 . S
Cd212 O213 2.240 . S
Cd212 O220 2.223 . S
Cd212 O222 2.297 . S
Cd212 O223 2.439 . S
O213 Cd212 2.240 . S
O213 C218 1.279 . S
O214 Cd211 2.297 . S
O214 C216 1.247 . S
O215 Cd211 2.439 . S
O215 C216 1.208 . S
C216 O214 1.247 . S
C216 O215 1.208 . S
C217 O222 1.247 . S
C217 O223 1.208 . S
C218 O210 1.315 . S
C218 O213 1.279 . S
C219 O220 1.315 . S
C219 O221 1.279 . S
O220 Cd212 2.223 . S
O220 C219 1.315 . S
O221 Cd211 2.240 . S
O221 C219 1.279 . S
O222 Cd212 2.297 . S
O222 C217 1.247 . S
O223 Cd212 2.439 . S
O223 C217 1.208 . S
O224 Cd225 2.223 . S
O224 C232 1.315 . S
Cd225 O224 2.223 . S
Cd225 O228 2.297 . S
Cd225 O229 2.439 . S
Cd225 O235 2.240 . S
Cd226 O227 2.240 . S
Cd226 O234 2.223 . S
Cd226 O236 2.297 . S
Cd226 O237 2.439 . S
O227 Cd226 2.240 . S
O227 C232 1.279 . S
O228 Cd225 2.297 . S
O228 C230 1.247 . S
O229 Cd225 2.439 . S
O229 C230 1.208 . S
C230 O228 1.247 . S
C230 O229 1.208 . S
C231 O236 1.247 . S
C231 O237 1.208 . S
C232 O224 1.315 . S
C232 O227 1.279 . S
C233 O234 1.315 . S
C233 O235 1.279 . S
O234 Cd226 2.223 . S
O234 C233 1.315 . S
O235 Cd225 2.240 . S
O235 C233 1.279 . S
O236 Cd226 2.297 . S
O236 C231 1.247 . S
O237 Cd226 2.439 . S
O237 C231 1.208 . S
O238 Cd239 2.223 . S
O238 C246 1.315 . S
Cd239 O238 2.223 . S
Cd239 O242 2.297 . S
Cd239 O243 2.439 . S
Cd239 O249 2.240 . S
Cd240 O241 2.240 . S
Cd240 O248 2.223 . S
Cd240 O250 2.297 . S
Cd240 O251 2.439 . S
O241 Cd240 2.240 . S
O241 C246 1.279 . S
O242 Cd239 2.297 . S
O242 C244 1.247 . S
O243 Cd239 2.439 . S
O243 C244 1.208 . S
C244 O242 1.247 . S
C244 O243 1.208 . S
C245 O250 1.247 . S
C245 O251 1.208 . S
C246 O238 1.315 . S
C246 O241 1.279 . S
C247 O248 1.315 . S
C247 O249 1.279 . S
O248 Cd240 2.223 . S
O248 C247 1.315 . S
O249 Cd239 2.240 . S
O249 C247 1.279 . S
O250 Cd240 2.297 . S
O250 C245 1.247 . S
O251 Cd240 2.439 . S
O251 C245 1.208 . S
O252 Cd253 2.223 . S
O252 C260 1.315 . S
Cd253 O252 2.223 . S
Cd253 O256 2.297 . S
Cd253 O257 2.439 . S
Cd253 O263 2.240 . S
Cd254 O255 2.240 . S
Cd254 O262 2.223 . S
Cd254 O264 2.297 . S
Cd254 O265 2.439 . S
O255 Cd254 2.240 . S
O255 C260 1.279 . S
O256 Cd253 2.297 . S
O256 C258 1.247 . S
O257 Cd253 2.439 . S
O257 C258 1.208 . S
C258 O256 1.247 . S
C258 O257 1.208 . S
C259 O264 1.247 . S
C259 O265 1.208 . S
C260 O252 1.315 . S
C260 O255 1.279 . S
C261 O262 1.315 . S
C261 O263 1.279 . S
O262 Cd254 2.223 . S
O262 C261 1.315 . S
O263 Cd253 2.240 . S
O263 C261 1.279 . S
O264 Cd254 2.297 . S
O264 C259 1.247 . S
O265 Cd254 2.439 . S
O265 C259 1.208 . S
O266 Cd267 2.223 . S
O266 C274 1.315 . S
Cd267 O266 2.223 . S
Cd267 O270 2.297 . S
Cd267 O271 2.439 . S
Cd267 O277 2.240 . S
Cd268 O269 2.240 . S
Cd268 O276 2.223 . S
Cd268 O278 2.297 . S
Cd268 O279 2.439 . S
O269 Cd268 2.240 . S
O269 C274 1.279 . S
O270 Cd267 2.297 . S
O270 C272 1.247 . S
O271 Cd267 2.439 . S
O271 C272 1.208 . S
C272 O270 1.247 . S
C272 O271 1.208 . S
C273 O278 1.247 . S
C273 O279 1.208 . S
C274 O266 1.315 . S
C274 O269 1.279 . S
C275 O276 1.315 . S
C275 O277 1.279 . S
O276 Cd268 2.223 . S
O276 C275 1.315 . S
O277 Cd267 2.240 . S
O277 C275 1.279 . S
O278 Cd268 2.297 . S
O278 C273 1.247 . S
O279 Cd268 2.439 . S
O279 C273 1.208 . S
O280 Cd281 2.223 . S
O280 C288 1.315 . S
Cd281 O280 2.223 . S
Cd281 O284 2.297 . S
Cd281 O285 2.439 . S
Cd281 O291 2.240 . S
Cd282 O283 2.240 . S
Cd282 O290 2.223 . S
Cd282 O292 2.297 . S
Cd282 O293 2.439 . S
O283 Cd282 2.240 . S
O283 C288 1.279 . S
O284 Cd281 2.297 . S
O284 C286 1.247 . S
O285 Cd281 2.439 . S
O285 C286 1.208 . S
C286 O284 1.247 . S
C286 O285 1.208 . S
C287 O292 1.247 . S
C287 O293 1.208 . S
C288 O280 1.315 . S
C288 O283 1.279 . S
C289 O290 1.315 . S
C289 O291 1.279 . S
O290 Cd282 2.223 . S
O290 C289 1.315 . S
O291 Cd281 2.240 . S
O291 C289 1.279 . S
O292 Cd282 2.297 . S
O292 C287 1.247 . S
O293 Cd282 2.439 . S
O293 C287 1.208 . S
O294 Cd295 2.223 . S
O294 C302 1.315 . S
Cd295 O294 2.223 . S
Cd295 O298 2.297 . S
Cd295 O299 2.439 . S
Cd295 O305 2.240 . S
Cd296 O297 2.240 . S
Cd296 O304 2.223 . S
Cd296 O306 2.297 . S
Cd296 O307 2.439 . S
O297 Cd296 2.240 . S
O297 C302 1.279 . S
O298 Cd295 2.297 . S
O298 C300 1.247 . S
O299 Cd295 2.439 . S
O299 C300 1.208 . S
C300 O298 1.247 . S
C300 O299 1.208 . S
C301 O306 1.247 . S
C301 O307 1.208 . S
C302 O294 1.315 . S
C302 O297 1.279 . S
C303 O304 1.315 . S
C303 O305 1.279 . S
O304 Cd296 2.223 . S
O304 C303 1.315 . S
O305 Cd295 2.240 . S
O305 C303 1.279 . S
O306 Cd296 2.297 . S
O306 C301 1.247 . S
O307 Cd296 2.439 . S
O307 C301 1.208 . S
O308 Cd309 2.223 . S
O308 C316 1.315 . S
Cd309 O308 2.223 . S
Cd309 O312 2.297 . S
Cd309 O313 2.439 . S
Cd309 O319 2.240 . S
Cd310 O311 2.240 . S
Cd310 O318 2.223 . S
Cd310 O320 2.297 . S
Cd310 O321 2.439 . S
O311 Cd310 2.240 . S
O311 C316 1.279 . S
O312 Cd309 2.297 . S
O312 C314 1.247 . S
O313 Cd309 2.439 . S
O313 C314 1.208 . S
C314 O312 1.247 . S
C314 O313 1.208 . S
C315 O320 1.247 . S
C315 O321 1.208 . S
C316 O308 1.315 . S
C316 O311 1.279 . S
C317 O318 1.315 . S
C317 O319 1.279 . S
O318 Cd310 2.223 . S
O318 C317 1.315 . S
O319 Cd309 2.240 . S
O319 C317 1.279 . S
O320 Cd310 2.297 . S
O320 C315 1.247 . S
O321 Cd310 2.439 . S
O321 C315 1.208 . S
O322 Cd323 2.223 . S
O322 C330 1.315 . S
Cd323 O322 2.223 . S
Cd323 O326 2.297 . S
Cd323 O327 2.439 . S
Cd323 O333 2.240 . S
Cd324 O325 2.240 . S
Cd324 O332 2.223 . S
Cd324 O334 2.297 . S
Cd324 O335 2.439 . S
O325 Cd324 2.240 . S
O325 C330 1.279 . S
O326 Cd323 2.297 . S
O326 C328 1.247 . S
O327 Cd323 2.439 . S
O327 C328 1.208 . S
C328 O326 1.247 . S
C328 O327 1.208 . S
C329 O334 1.247 . S
C329 O335 1.208 . S
C330 O322 1.315 . S
C330 O325 1.279 . S
C331 O332 1.315 . S
C331 O333 1.279 . S
O332 Cd324 2.223 . S
O332 C331 1.315 . S
O333 Cd323 2.240 . S
O333 C331 1.279 . S
O334 Cd324 2.297 . S
O334 C329 1.247 . S
O335 Cd324 2.439 . S
O335 C329 1.208 . S
C336 C337 1.349 . S
C336 C338 1.327 . S
C336 H361 0.950 . S
C337 C336 1.349 . S
C337 C353 1.349 . S
C338 C336 1.327 . S
C338 C357 1.429 . S
C338 H362 0.950 . S
C339 C356 1.574 . S
C339 C358 1.368 . S
C339 H363 0.949 . S
H340 C344 0.949 . S
C341 C342 1.349 . S
C341 C343 1.327 . S
C341 H364 0.950 . S
C342 C341 1.349 . S
C342 C354 1.349 . S
C343 C341 1.327 . S
C343 C359 1.429 . S
C343 H365 0.950 . S
C344 H340 0.949 . S
C344 C352 1.574 . S
C344 C360 1.368 . S
H345 C353 0.950 . S
H346 C351 0.950 . S
H347 C352 0.949 . S
H348 C354 0.950 . S
H349 C355 0.950 . S
H350 C356 0.949 . S
C351 H346 0.950 . S
C351 C353 1.327 . S
C351 C357 1.429 . S
C352 C344 1.574 . S
C352 H347 0.949 . S
C352 C358 1.368 . S
C353 C337 1.349 . S
C353 H345 0.950 . S
C353 C351 1.327 . S
C354 C342 1.349 . S
C354 H348 0.950 . S
C354 C355 1.327 . S
C355 H349 0.950 . S
C355 C354 1.327 . S
C355 C359 1.429 . S
C356 C339 1.574 . S
C356 H350 0.949 . S
C356 C360 1.368 . S
C357 C338 1.429 . S
C357 C351 1.429 . S
C357 C358 1.523 . S
C358 C339 1.368 . S
C358 C352 1.368 . S
C358 C357 1.523 . S
C359 C343 1.429 . S
C359 C355 1.429 . S
C359 C360 1.523 . S
C360 C344 1.368 . S
C360 C356 1.368 . S
C360 C359 1.523 . S
H361 C336 0.950 . S
H362 C338 0.950 . S
H363 C339 0.949 . S
H364 C341 0.950 . S
H365 C343 0.950 . S
C366 C367 1.349 . S
C366 C368 1.327 . S
C366 H391 0.950 . S
C367 C366 1.349 . S
C367 C383 1.349 . S
C368 C366 1.327 . S
C368 C387 1.429 . S
C368 H392 0.950 . S
C369 C386 1.574 . S
C369 C388 1.368 . S
C369 H393 0.949 . S
H370 C374 0.949 . S
C371 C372 1.349 . S
C371 C373 1.327 . S
C371 H394 0.950 . S
C372 C371 1.349 . S
C372 C384 1.349 . S
C373 C371 1.327 . S
C373 C389 1.429 . S
C373 H395 0.950 . S
C374 H370 0.949 . S
C374 C382 1.574 . S
C374 C390 1.368 . S
H375 C383 0.950 . S
H376 C381 0.950 . S
H377 C382 0.949 . S
H378 C384 0.950 . S
H379 C385 0.950 . S
H380 C386 0.949 . S
C381 H376 0.950 . S
C381 C383 1.327 . S
C381 C387 1.429 . S
C382 C374 1.574 . S
C382 H377 0.949 . S
C382 C388 1.368 . S
C383 C367 1.349 . S
C383 H375 0.950 . S
C383 C381 1.327 . S
C384 C372 1.349 . S
C384 H378 0.950 . S
C384 C385 1.327 . S
C385 H379 0.950 . S
C385 C384 1.327 . S
C385 C389 1.429 . S
C386 C369 1.574 . S
C386 H380 0.949 . S
C386 C390 1.368 . S
C387 C368 1.429 . S
C387 C381 1.429 . S
C387 C388 1.523 . S
C388 C369 1.368 . S
C388 C382 1.368 . S
C388 C387 1.523 . S
C389 C373 1.429 . S
C389 C385 1.429 . S
C389 C390 1.523 . S
C390 C374 1.368 . S
C390 C386 1.368 . S
C390 C389 1.523 . S
H391 C366 0.950 . S
H392 C368 0.950 . S
H393 C369 0.949 . S
H394 C371 0.950 . S
H395 C373 0.950 . S
C396 C397 1.349 . S
C396 C398 1.327 . S
C396 H421 0.950 . S
C397 C396 1.349 . S
C397 C413 1.349 . S
C398 C396 1.327 . S
C398 C417 1.429 . S
C398 H422 0.950 . S
C399 C416 1.574 . S
C399 C418 1.368 . S
C399 H423 0.949 . S
H400 C404 0.949 . S
C401 C402 1.349 . S
C401 C403 1.327 . S
C401 H424 0.950 . S
C402 C401 1.349 . S
C402 C414 1.349 . S
C403 C401 1.327 . S
C403 C419 1.429 . S
C403 H425 0.950 . S
C404 H400 0.949 . S
C404 C412 1.574 . S
C404 C420 1.368 . S
H405 C413 0.950 . S
H406 C411 0.950 . S
H407 C412 0.949 . S
H408 C414 0.950 . S
H409 C415 0.950 . S
H410 C416 0.949 . S
C411 H406 0.950 . S
C411 C413 1.327 . S
C411 C417 1.429 . S
C412 C404 1.574 . S
C412 H407 0.949 . S
C412 C418 1.368 . S
C413 C397 1.349 . S
C413 H405 0.950 . S
C413 C411 1.327 . S
C414 C402 1.349 . S
C414 H408 0.950 . S
C414 C415 1.327 . S
C415 H409 0.950 . S
C415 C414 1.327 . S
C415 C419 1.429 . S
C416 C399 1.574 . S
C416 H410 0.949 . S
C416 C420 1.368 . S
C417 C398 1.429 . S
C417 C411 1.429 . S
C417 C418 1.523 . S
C418 C399 1.368 . S
C418 C412 1.368 . S
C418 C417 1.523 . S
C419 C403 1.429 . S
C419 C415 1.429 . S
C419 C420 1.523 . S
C420 C404 1.368 . S
C420 C416 1.368 . S
C420 C419 1.523 . S
H421 C396 0.950 . S
H422 C398 0.950 . S
H423 C399 0.949 . S
H424 C401 0.950 . S
H425 C403 0.950 . S
C426 C427 1.349 . S
C426 C428 1.327 . S
C426 H451 0.950 . S
C427 C426 1.349 . S
C427 C443 1.349 . S
C428 C426 1.327 . S
C428 C447 1.429 . S
C428 H452 0.950 . S
C429 C446 1.574 . S
C429 C448 1.368 . S
C429 H453 0.949 . S
H430 C434 0.949 . S
C431 C432 1.349 . S
C431 C433 1.327 . S
C431 H454 0.950 . S
C432 C431 1.349 . S
C432 C444 1.349 . S
C433 C431 1.327 . S
C433 C449 1.429 . S
C433 H455 0.950 . S
C434 H430 0.949 . S
C434 C442 1.574 . S
C434 C450 1.368 . S
H435 C443 0.950 . S
H436 C441 0.950 . S
H437 C442 0.949 . S
H438 C444 0.950 . S
H439 C445 0.950 . S
H440 C446 0.949 . S
C441 H436 0.950 . S
C441 C443 1.327 . S
C441 C447 1.429 . S
C442 C434 1.574 . S
C442 H437 0.949 . S
C442 C448 1.368 . S
C443 C427 1.349 . S
C443 H435 0.950 . S
C443 C441 1.327 . S
C444 C432 1.349 . S
C444 H438 0.950 . S
C444 C445 1.327 . S
C445 H439 0.950 . S
C445 C444 1.327 . S
C445 C449 1.429 . S
C446 C429 1.574 . S
C446 H440 0.949 . S
C446 C450 1.368 . S
C447 C428 1.429 . S
C447 C441 1.429 . S
C447 C448 1.523 . S
C448 C429 1.368 . S
C448 C442 1.368 . S
C448 C447 1.523 . S
C449 C433 1.429 . S
C449 C445 1.429 . S
C449 C450 1.523 . S
C450 C434 1.368 . S
C450 C446 1.368 . S
C450 C449 1.523 . S
H451 C426 0.950 . S
H452 C428 0.950 . S
H453 C429 0.949 . S
H454 C431 0.950 . S
H455 C433 0.950 . S
C456 C457 1.349 . S
C456 C458 1.327 . S
C456 H481 0.950 . S
C457 C456 1.349 . S
C457 C473 1.349 . S
C458 C456 1.327 . S
C458 C477 1.429 . S
C458 H482 0.950 . S
C459 C476 1.574 . S
C459 C478 1.368 . S
C459 H483 0.949 . S
H460 C464 0.949 . S
C461 C462 1.349 . S
C461 C463 1.327 . S
C461 H484 0.950 . S
C462 C461 1.349 . S
C462 C474 1.349 . S
C463 C461 1.327 . S
C463 C479 1.429 . S
C463 H485 0.950 . S
C464 H460 0.949 . S
C464 C472 1.574 . S
C464 C480 1.368 . S
H465 C473 0.950 . S
H466 C471 0.950 . S
H467 C472 0.949 . S
H468 C474 0.950 . S
H469 C475 0.950 . S
H470 C476 0.949 . S
C471 H466 0.950 . S
C471 C473 1.327 . S
C471 C477 1.429 . S
C472 C464 1.574 . S
C472 H467 0.949 . S
C472 C478 1.368 . S
C473 C457 1.349 . S
C473 H465 0.950 . S
C473 C471 1.327 . S
C474 C462 1.349 . S
C474 H468 0.950 . S
C474 C475 1.327 . S
C475 H469 0.950 . S
C475 C474 1.327 . S
C475 C479 1.429 . S
C476 C459 1.574 . S
C476 H470 0.949 . S
C476 C480 1.368 . S
C477 C458 1.429 . S
C477 C471 1.429 . S
C477 C478 1.523 . S
C478 C459 1.368 . S
C478 C472 1.368 . S
C478 C477 1.523 . S
C479 C463 1.429 . S
C479 C475 1.429 . S
C479 C480 1.523 . S
C480 C464 1.368 . S
C480 C476 1.368 . S
C480 C479 1.523 . S
H481 C456 0.950 . S
H482 C458 0.950 . S
H483 C459 0.949 . S
H484 C461 0.950 . S
H485 C463 0.950 . S
C486 C487 1.349 . S
C486 C488 1.327 . S
C486 H511 0.950 . S
C487 C486 1.349 . S
C487 C503 1.349 . S
C488 C486 1.327 . S
C488 C507 1.429 . S
C488 H512 0.950 . S
C489 C506 1.574 . S
C489 C508 1.368 . S
C489 H513 0.949 . S
H490 C494 0.949 . S
C491 C492 1.349 . S
C491 C493 1.327 . S
C491 H514 0.950 . S
C492 C491 1.349 . S
C492 C504 1.349 . S
C493 C491 1.327 . S
C493 C509 1.429 . S
C493 H515 0.950 . S
C494 H490 0.949 . S
C494 C502 1.574 . S
C494 C510 1.368 . S
H495 C503 0.950 . S
H496 C501 0.950 . S
H497 C502 0.949 . S
H498 C504 0.950 . S
H499 C505 0.950 . S
H500 C506 0.949 . S
C501 H496 0.950 . S
C501 C503 1.327 . S
C501 C507 1.429 . S
C502 C494 1.574 . S
C502 H497 0.949 . S
C502 C508 1.368 . S
C503 C487 1.349 . S
C503 H495 0.950 . S
C503 C501 1.327 . S
C504 C492 1.349 . S
C504 H498 0.950 . S
C504 C505 1.327 . S
C505 H499 0.950 . S
C505 C504 1.327 . S
C505 C509 1.429 . S
C506 C489 1.574 . S
C506 H500 0.949 . S
C506 C510 1.368 . S
C507 C488 1.429 . S
C507 C501 1.429 . S
C507 C508 1.523 . S
C508 C489 1.368 . S
C508 C502 1.368 . S
C508 C507 1.523 . S
C509 C493 1.429 . S
C509 C505 1.429 . S
C509 C510 1.523 . S
C510 C494 1.368 . S
C510 C506 1.368 . S
C510 C509 1.523 . S
H511 C486 0.950 . S
H512 C488 0.950 . S
H513 C489 0.949 . S
H514 C491 0.950 . S
H515 C493 0.950 . S
C516 C517 1.349 . S
C516 C518 1.327 . S
C516 H541 0.950 . S
C517 C516 1.349 . S
C517 C533 1.349 . S
C518 C516 1.327 . S
C518 C537 1.429 . S
C518 H542 0.950 . S
C519 C536 1.574 . S
C519 C538 1.368 . S
C519 H543 0.949 . S
H520 C524 0.949 . S
C521 C522 1.349 . S
C521 C523 1.327 . S
C521 H544 0.950 . S
C522 C521 1.349 . S
C522 C534 1.349 . S
C523 C521 1.327 . S
C523 C539 1.429 . S
C523 H545 0.950 . S
C524 H520 0.949 . S
C524 C532 1.574 . S
C524 C540 1.368 . S
H525 C533 0.950 . S
H526 C531 0.950 . S
H527 C532 0.949 . S
H528 C534 0.950 . S
H529 C535 0.950 . S
H530 C536 0.949 . S
C531 H526 0.950 . S
C531 C533 1.327 . S
C531 C537 1.429 . S
C532 C524 1.574 . S
C532 H527 0.949 . S
C532 C538 1.368 . S
C533 C517 1.349 . S
C533 H525 0.950 . S
C533 C531 1.327 . S
C534 C522 1.349 . S
C534 H528 0.950 . S
C534 C535 1.327 . S
C535 H529 0.950 . S
C535 C534 1.327 . S
C535 C539 1.429 . S
C536 C519 1.574 . S
C536 H530 0.949 . S
C536 C540 1.368 . S
C537 C518 1.429 . S
C537 C531 1.429 . S
C537 C538 1.523 . S
C538 C519 1.368 . S
C538 C532 1.368 . S
C538 C537 1.523 . S
C539 C523 1.429 . S
C539 C535 1.429 . S
C539 C540 1.523 . S
C540 C524 1.368 . S
C540 C536 1.368 . S
C540 C539 1.523 . S
H541 C516 0.950 . S
H542 C518 0.950 . S
H543 C519 0.949 . S
H544 C521 0.950 . S
H545 C523 0.950 . S
C546 C547 1.349 . S
C546 C548 1.327 . S
C546 H571 0.950 . S
C547 C546 1.349 . S
C547 C563 1.349 . S
C548 C546 1.327 . S
C548 C567 1.429 . S
C548 H572 0.950 . S
C549 C566 1.574 . S
C549 C568 1.368 . S
C549 H573 0.949 . S
H550 C554 0.949 . S
C551 C552 1.349 . S
C551 C553 1.327 . S
C551 H574 0.950 . S
C552 C551 1.349 . S
C552 C564 1.349 . S
C553 C551 1.327 . S
C553 C569 1.429 . S
C553 H575 0.950 . S
C554 H550 0.949 . S
C554 C562 1.574 . S
C554 C570 1.368 . S
H555 C563 0.950 . S
H556 C561 0.950 . S
H557 C562 0.949 . S
H558 C564 0.950 . S
H559 C565 0.950 . S
H560 C566 0.949 . S
C561 H556 0.950 . S
C561 C563 1.327 . S
C561 C567 1.429 . S
C562 C554 1.574 . S
C562 H557 0.949 . S
C562 C568 1.368 . S
C563 C547 1.349 . S
C563 H555 0.950 . S
C563 C561 1.327 . S
C564 C552 1.349 . S
C564 H558 0.950 . S
C564 C565 1.327 . S
C565 H559 0.950 . S
C565 C564 1.327 . S
C565 C569 1.429 . S
C566 C549 1.574 . S
C566 H560 0.949 . S
C566 C570 1.368 . S
C567 C548 1.429 . S
C567 C561 1.429 . S
C567 C568 1.523 . S
C568 C549 1.368 . S
C568 C562 1.368 . S
C568 C567 1.523 . S
C569 C553 1.429 . S
C569 C565 1.429 . S
C569 C570 1.523 . S
C570 C554 1.368 . S
C570 C566 1.368 . S
C570 C569 1.523 . S
H571 C546 0.950 . S
H572 C548 0.950 . S
H573 C549 0.949 . S
H574 C551 0.950 . S
H575 C553 0.950 . S
C576 C577 1.349 . S
C576 C578 1.327 . S
C576 H601 0.950 . S
C577 C576 1.349 . S
C577 C593 1.349 . S
C578 C576 1.327 . S
C578 C597 1.429 . S
C578 H602 0.950 . S
C579 C596 1.574 . S
C579 C598 1.368 . S
C579 H603 0.949 . S
H580 C584 0.949 . S
C581 C582 1.349 . S
C581 C583 1.327 . S
C581 H604 0.950 . S
C582 C581 1.349 . S
C582 C594 1.349 . S
C583 C581 1.327 . S
C583 C599 1.429 . S
C583 H605 0.950 . S
C584 H580 0.949 . S
C584 C592 1.574 . S
C584 C600 1.368 . S
H585 C593 0.950 . S
H586 C591 0.950 . S
H587 C592 0.949 . S
H588 C594 0.950 . S
H589 C595 0.950 . S
H590 C596 0.949 . S
C591 H586 0.950 . S
C591 C593 1.327 . S
C591 C597 1.429 . S
C592 C584 1.574 . S
C592 H587 0.949 . S
C592 C598 1.368 . S
C593 C577 1.349 . S
C593 H585 0.950 . S
C593 C591 1.327 . S
C594 C582 1.349 . S
C594 H588 0.950 . S
C594 C595 1.327 . S
C595 H589 0.950 . S
C595 C594 1.327 . S
C595 C599 1.429 . S
C596 C579 1.574 . S
C596 H590 0.949 . S
C596 C600 1.368 . S
C597 C578 1.429 . S
C597 C591 1.429 . S
C597 C598 1.523 . S
C598 C579 1.368 . S
C598 C592 1.368 . S
C598 C597 1.523 . S
C599 C583 1.429 . S
C599 C595 1.429 . S
C599 C600 1.523 . S
C600 C584 1.368 . S
C600 C596 1.368 . S
C600 C599 1.523 . S
H601 C576 0.950 . S
H602 C578 0.950 . S
H603 C579 0.949 . S
H604 C581 0.950 . S
H605 C583 0.950 . S
C606 C607 1.349 . S
C606 C608 1.327 . S
C606 H631 0.950 . S
C607 C606 1.349 . S
C607 C623 1.349 . S
C608 C606 1.327 . S
C608 C627 1.429 . S
C608 H632 0.950 . S
C609 C626 1.574 . S
C609 C628 1.368 . S
C609 H633 0.949 . S
H610 C614 0.949 . S
C611 C612 1.349 . S
C611 C613 1.327 . S
C611 H634 0.950 . S
C612 C611 1.349 . S
C612 C624 1.349 . S
C613 C611 1.327 . S
C613 C629 1.429 . S
C613 H635 0.950 . S
C614 H610 0.949 . S
C614 C622 1.574 . S
C614 C630 1.368 . S
H615 C623 0.950 . S
H616 C621 0.950 . S
H617 C622 0.949 . S
H618 C624 0.950 . S
H619 C625 0.950 . S
H620 C626 0.949 . S
C621 H616 0.950 . S
C621 C623 1.327 . S
C621 C627 1.429 . S
C622 C614 1.574 . S
C622 H617 0.949 . S
C622 C628 1.368 . S
C623 C607 1.349 . S
C623 H615 0.950 . S
C623 C621 1.327 . S
C624 C612 1.349 . S
C624 H618 0.950 . S
C624 C625 1.327 . S
C625 H619 0.950 . S
C625 C624 1.327 . S
C625 C629 1.429 . S
C626 C609 1.574 . S
C626 H620 0.949 . S
C626 C630 1.368 . S
C627 C608 1.429 . S
C627 C621 1.429 . S
C627 C628 1.523 . S
C628 C609 1.368 . S
C628 C622 1.368 . S
C628 C627 1.523 . S
C629 C613 1.429 . S
C629 C625 1.429 . S
C629 C630 1.523 . S
C630 C614 1.368 . S
C630 C626 1.368 . S
C630 C629 1.523 . S
H631 C606 0.950 . S
H632 C608 0.950 . S
H633 C609 0.949 . S
H634 C611 0.950 . S
H635 C613 0.950 . S
C636 C637 1.349 . S
C636 C638 1.327 . S
C636 H661 0.950 . S
C637 C636 1.349 . S
C637 C653 1.349 . S
C638 C636 1.327 . S
C638 C657 1.429 . S
C638 H662 0.950 . S
C639 C656 1.574 . S
C639 C658 1.368 . S
C639 H663 0.949 . S
H640 C644 0.949 . S
C641 C642 1.349 . S
C641 C643 1.327 . S
C641 H664 0.950 . S
C642 C641 1.349 . S
C642 C654 1.349 . S
C643 C641 1.327 . S
C643 C659 1.429 . S
C643 H665 0.950 . S
C644 H640 0.949 . S
C644 C652 1.574 . S
C644 C660 1.368 . S
H645 C653 0.950 . S
H646 C651 0.950 . S
H647 C652 0.949 . S
H648 C654 0.950 . S
H649 C655 0.950 . S
H650 C656 0.949 . S
C651 H646 0.950 . S
C651 C653 1.327 . S
C651 C657 1.429 . S
C652 C644 1.574 . S
C652 H647 0.949 . S
C652 C658 1.368 . S
C653 C637 1.349 . S
C653 H645 0.950 . S
C653 C651 1.327 . S
C654 C642 1.349 . S
C654 H648 0.950 . S
C654 C655 1.327 . S
C655 H649 0.950 . S
C655 C654 1.327 . S
C655 C659 1.429 . S
C656 C639 1.574 . S
C656 H650 0.949 . S
C656 C660 1.368 . S
C657 C638 1.429 . S
C657 C651 1.429 . S
C657 C658 1.523 . S
C658 C639 1.368 . S
C658 C652 1.368 . S
C658 C657 1.523 . S
C659 C643 1.429 . S
C659 C655 1.429 . S
C659 C660 1.523 . S
C660 C644 1.368 . S
C660 C656 1.368 . S
C660 C659 1.523 . S
H661 C636 0.950 . S
H662 C638 0.950 . S
H663 C639 0.949 . S
H664 C641 0.950 . S
H665 C643 0.950 . S
C666 C667 1.349 . S
C666 C668 1.327 . S
C666 H691 0.950 . S
C667 C666 1.349 . S
C667 C683 1.349 . S
C668 C666 1.327 . S
C668 C687 1.429 . S
C668 H692 0.950 . S
C669 C686 1.574 . S
C669 C688 1.368 . S
C669 H693 0.949 . S
H670 C674 0.949 . S
C671 C672 1.349 . S
C671 C673 1.327 . S
C671 H694 0.950 . S
C672 C671 1.349 . S
C672 C684 1.349 . S
C673 C671 1.327 . S
C673 C689 1.429 . S
C673 H695 0.950 . S
C674 H670 0.949 . S
C674 C682 1.574 . S
C674 C690 1.368 . S
H675 C683 0.950 . S
H676 C681 0.950 . S
H677 C682 0.949 . S
H678 C684 0.950 . S
H679 C685 0.950 . S
H680 C686 0.949 . S
C681 H676 0.950 . S
C681 C683 1.327 . S
C681 C687 1.429 . S
C682 C674 1.574 . S
C682 H677 0.949 . S
C682 C688 1.368 . S
C683 C667 1.349 . S
C683 H675 0.950 . S
C683 C681 1.327 . S
C684 C672 1.349 . S
C684 H678 0.950 . S
C684 C685 1.327 . S
C685 H679 0.950 . S
C685 C684 1.327 . S
C685 C689 1.429 . S
C686 C669 1.574 . S
C686 H680 0.949 . S
C686 C690 1.368 . S
C687 C668 1.429 . S
C687 C681 1.429 . S
C687 C688 1.523 . S
C688 C669 1.368 . S
C688 C682 1.368 . S
C688 C687 1.523 . S
C689 C673 1.429 . S
C689 C685 1.429 . S
C689 C690 1.523 . S
C690 C674 1.368 . S
C690 C686 1.368 . S
C690 C689 1.523 . S
H691 C666 0.950 . S
H692 C668 0.950 . S
H693 C669 0.949 . S
H694 C671 0.950 . S
H695 C673 0.950 . S
C696 C697 1.349 . S
C696 C698 1.327 . S
C696 H721 0.950 . S
C697 C696 1.349 . S
C697 C713 1.349 . S
C698 C696 1.327 . S
C698 C717 1.429 . S
C698 H722 0.950 . S
C699 C716 1.574 . S
C699 C718 1.368 . S
C699 H723 0.949 . S
H700 C704 0.949 . S
C701 C702 1.349 . S
C701 C703 1.327 . S
C701 H724 0.950 . S
C702 C701 1.349 . S
C702 C714 1.349 . S
C703 C701 1.327 . S
C703 C719 1.429 . S
C703 H725 0.950 . S
C704 H700 0.949 . S
C704 C712 1.574 . S
C704 C720 1.368 . S
H705 C713 0.950 . S
H706 C711 0.950 . S
H707 C712 0.949 . S
H708 C714 0.950 . S
H709 C715 0.950 . S
H710 C716 0.949 . S
C711 H706 0.950 . S
C711 C713 1.327 . S
C711 C717 1.429 . S
C712 C704 1.574 . S
C712 H707 0.949 . S
C712 C718 1.368 . S
C713 C697 1.349 . S
C713 H705 0.950 . S
C713 C711 1.327 . S
C714 C702 1.349 . S
C714 H708 0.950 . S
C714 C715 1.327 . S
C715 H709 0.950 . S
C715 C714 1.327 . S
C715 C719 1.429 . S
C716 C699 1.574 . S
C716 H710 0.949 . S
C716 C720 1.368 . S
C717 C698 1.429 . S
C717 C711 1.429 . S
C717 C718 1.523 . S
C718 C699 1.368 . S
C718 C712 1.368 . S
C718 C717 1.523 . S
C719 C703 1.429 . S
C719 C715 1.429 . S
C719 C720 1.523 . S
C720 C704 1.368 . S
C720 C716 1.368 . S
C720 C719 1.523 . S
H721 C696 0.950 . S
H722 C698 0.950 . S
H723 C699 0.949 . S
H724 C701 0.950 . S
H725 C703 0.950 . S
C726 C727 1.349 . S
C726 C728 1.327 . S
C726 H751 0.950 . S
C727 C726 1.349 . S
C727 C743 1.349 . S
C728 C726 1.327 . S
C728 C747 1.429 . S
C728 H752 0.950 . S
C729 C746 1.574 . S
C729 C748 1.368 . S
C729 H753 0.949 . S
H730 C734 0.949 . S
C731 C732 1.349 . S
C731 C733 1.327 . S
C731 H754 0.950 . S
C732 C731 1.349 . S
C732 C744 1.349 . S
C733 C731 1.327 . S
C733 C749 1.429 . S
C733 H755 0.950 . S
C734 H730 0.949 . S
C734 C742 1.574 . S
C734 C750 1.368 . S
H735 C743 0.950 . S
H736 C741 0.950 . S
H737 C742 0.949 . S
H738 C744 0.950 . S
H739 C745 0.950 . S
H740 C746 0.949 . S
C741 H736 0.950 . S
C741 C743 1.327 . S
C741 C747 1.429 . S
C742 C734 1.574 . S
C742 H737 0.949 . S
C742 C748 1.368 . S
C743 C727 1.349 . S
C743 H735 0.950 . S
C743 C741 1.327 . S
C744 C732 1.349 . S
C744 H738 0.950 . S
C744 C745 1.327 . S
C745 H739 0.950 . S
C745 C744 1.327 . S
C745 C749 1.429 . S
C746 C729 1.574 . S
C746 H740 0.949 . S
C746 C750 1.368 . S
C747 C728 1.429 . S
C747 C741 1.429 . S
C747 C748 1.523 . S
C748 C729 1.368 . S
C748 C742 1.368 . S
C748 C747 1.523 . S
C749 C733 1.429 . S
C749 C745 1.429 . S
C749 C750 1.523 . S
C750 C734 1.368 . S
C750 C746 1.368 . S
C750 C749 1.523 . S
H751 C726 0.950 . S
H752 C728 0.950 . S
H753 C729 0.949 . S
H754 C731 0.950 . S
H755 C733 0.950 . S
C756 C757 1.349 . S
C756 C758 1.327 . S
C756 H781 0.950 . S
C757 C756 1.349 . S
C757 C773 1.349 . S
C758 C756 1.327 . S
C758 C777 1.429 . S
C758 H782 0.950 . S
C759 C776 1.574 . S
C759 C778 1.368 . S
C759 H783 0.949 . S
H760 C764 0.949 . S
C761 C762 1.349 . S
C761 C763 1.327 . S
C761 H784 0.950 . S
C762 C761 1.349 . S
C762 C774 1.349 . S
C763 C761 1.327 . S
C763 C779 1.429 . S
C763 H785 0.950 . S
C764 H760 0.949 . S
C764 C772 1.574 . S
C764 C780 1.368 . S
H765 C773 0.950 . S
H766 C771 0.950 . S
H767 C772 0.949 . S
H768 C774 0.950 . S
H769 C775 0.950 . S
H770 C776 0.949 . S
C771 H766 0.950 . S
C771 C773 1.327 . S
C771 C777 1.429 . S
C772 C764 1.574 . S
C772 H767 0.949 . S
C772 C778 1.368 . S
C773 C757 1.349 . S
C773 H765 0.950 . S
C773 C771 1.327 . S
C774 C762 1.349 . S
C774 H768 0.950 . S
C774 C775 1.327 . S
C775 H769 0.950 . S
C775 C774 1.327 . S
C775 C779 1.429 . S
C776 C759 1.574 . S
C776 H770 0.949 . S
C776 C780 1.368 . S
C777 C758 1.429 . S
C777 C771 1.429 . S
C777 C778 1.523 . S
C778 C759 1.368 . S
C778 C772 1.368 . S
C778 C777 1.523 . S
C779 C763 1.429 . S
C779 C775 1.429 . S
C779 C780 1.523 . S
C780 C764 1.368 . S
C780 C776 1.368 . S
C780 C779 1.523 . S
H781 C756 0.950 . S
H782 C758 0.950 . S
H783 C759 0.949 . S
H784 C761 0.950 . S
H785 C763 0.950 . S
C786 C787 1.349 . S
C786 C788 1.327 . S
C786 H811 0.950 . S
C787 C786 1.349 . S
C787 C803 1.349 . S
C788 C786 1.327 . S
C788 C807 1.429 . S
C788 H812 0.950 . S
C789 C806 1.574 . S
C789 C808 1.368 . S
C789 H813 0.949 . S
H790 C794 0.949 . S
C791 C792 1.349 . S
C791 C793 1.327 . S
C791 H814 0.950 . S
C792 C791 1.349 . S
C792 C804 1.349 . S
C793 C791 1.327 . S
C793 C809 1.429 . S
C793 H815 0.950 . S
C794 H790 0.949 . S
C794 C802 1.574 . S
C794 C810 1.368 . S
H795 C803 0.950 . S
H796 C801 0.950 . S
H797 C802 0.949 . S
H798 C804 0.950 . S
H799 C805 0.950 . S
H800 C806 0.949 . S
C801 H796 0.950 . S
C801 C803 1.327 . S
C801 C807 1.429 . S
C802 C794 1.574 . S
C802 H797 0.949 . S
C802 C808 1.368 . S
C803 C787 1.349 . S
C803 H795 0.950 . S
C803 C801 1.327 . S
C804 C792 1.349 . S
C804 H798 0.950 . S
C804 C805 1.327 . S
C805 H799 0.950 . S
C805 C804 1.327 . S
C805 C809 1.429 . S
C806 C789 1.574 . S
C806 H800 0.949 . S
C806 C810 1.368 . S
C807 C788 1.429 . S
C807 C801 1.429 . S
C807 C808 1.523 . S
C808 C789 1.368 . S
C808 C802 1.368 . S
C808 C807 1.523 . S
C809 C793 1.429 . S
C809 C805 1.429 . S
C809 C810 1.523 . S
C810 C794 1.368 . S
C810 C806 1.368 . S
C810 C809 1.523 . S
H811 C786 0.950 . S
H812 C788 0.950 . S
H813 C789 0.949 . S
H814 C791 0.950 . S
H815 C793 0.950 . S
C816 C817 1.349 . S
C816 C818 1.327 . S
C816 H841 0.950 . S
C817 C816 1.349 . S
C817 C833 1.349 . S
C818 C816 1.327 . S
C818 C837 1.429 . S
C818 H842 0.950 . S
C819 C836 1.574 . S
C819 C838 1.368 . S
C819 H843 0.949 . S
H820 C824 0.949 . S
C821 C822 1.349 . S
C821 C823 1.327 . S
C821 H844 0.950 . S
C822 C821 1.349 . S
C822 C834 1.349 . S
C823 C821 1.327 . S
C823 C839 1.429 . S
C823 H845 0.950 . S
C824 H820 0.949 . S
C824 C832 1.574 . S
C824 C840 1.368 . S
H825 C833 0.950 . S
H826 C831 0.950 . S
H827 C832 0.949 . S
H828 C834 0.950 . S
H829 C835 0.950 . S
H830 C836 0.949 . S
C831 H826 0.950 . S
C831 C833 1.327 . S
C831 C837 1.429 . S
C832 C824 1.574 . S
C832 H827 0.949 . S
C832 C838 1.368 . S
C833 C817 1.349 . S
C833 H825 0.950 . S
C833 C831 1.327 . S
C834 C822 1.349 . S
C834 H828 0.950 . S
C834 C835 1.327 . S
C835 H829 0.950 . S
C835 C834 1.327 . S
C835 C839 1.429 . S
C836 C819 1.574 . S
C836 H830 0.949 . S
C836 C840 1.368 . S
C837 C818 1.429 . S
C837 C831 1.429 . S
C837 C838 1.523 . S
C838 C819 1.368 . S
C838 C832 1.368 . S
C838 C837 1.523 . S
C839 C823 1.429 . S
C839 C835 1.429 . S
C839 C840 1.523 . S
C840 C824 1.368 . S
C840 C836 1.368 . S
C840 C839 1.523 . S
H841 C816 0.950 . S
H842 C818 0.950 . S
H843 C819 0.949 . S
H844 C821 0.950 . S
H845 C823 0.950 . S
C846 C847 1.349 . S
C846 C848 1.327 . S
C846 H871 0.950 . S
C847 C846 1.349 . S
C847 C863 1.349 . S
C848 C846 1.327 . S
C848 C867 1.429 . S
C848 H872 0.950 . S
C849 C866 1.574 . S
C849 C868 1.368 . S
C849 H873 0.949 . S
H850 C854 0.949 . S
C851 C852 1.349 . S
C851 C853 1.327 . S
C851 H874 0.950 . S
C852 C851 1.349 . S
C852 C864 1.349 . S
C853 C851 1.327 . S
C853 C869 1.429 . S
C853 H875 0.950 . S
C854 H850 0.949 . S
C854 C862 1.574 . S
C854 C870 1.368 . S
H855 C863 0.950 . S
H856 C861 0.950 . S
H857 C862 0.949 . S
H858 C864 0.950 . S
H859 C865 0.950 . S
H860 C866 0.949 . S
C861 H856 0.950 . S
C861 C863 1.327 . S
C861 C867 1.429 . S
C862 C854 1.574 . S
C862 H857 0.949 . S
C862 C868 1.368 . S
C863 C847 1.349 . S
C863 H855 0.950 . S
C863 C861 1.327 . S
C864 C852 1.349 . S
C864 H858 0.950 . S
C864 C865 1.327 . S
C865 H859 0.950 . S
C865 C864 1.327 . S
C865 C869 1.429 . S
C866 C849 1.574 . S
C866 H860 0.949 . S
C866 C870 1.368 . S
C867 C848 1.429 . S
C867 C861 1.429 . S
C867 C868 1.523 . S
C868 C849 1.368 . S
C868 C862 1.368 . S
C868 C867 1.523 . S
C869 C853 1.429 . S
C869 C865 1.429 . S
C869 C870 1.523 . S
C870 C854 1.368 . S
C870 C866 1.368 . S
C870 C869 1.523 . S
H871 C846 0.950 . S
H872 C848 0.950 . S
H873 C849 0.949 . S
H874 C851 0.950 . S
H875 C853 0.950 . S
C876 C877 1.349 . S
C876 C878 1.327 . S
C876 H901 0.950 . S
C877 C876 1.349 . S
C877 C893 1.349 . S
C878 C876 1.327 . S
C878 C897 1.429 . S
C878 H902 0.950 . S
C879 C896 1.574 . S
C879 C898 1.368 . S
C879 H903 0.949 . S
H880 C884 0.949 . S
C881 C882 1.349 . S
C881 C883 1.327 . S
C881 H904 0.950 . S
C882 C881 1.349 . S
C882 C894 1.349 . S
C883 C881 1.327 . S
C883 C899 1.429 . S
C883 H905 0.950 . S
C884 H880 0.949 . S
C884 C892 1.574 . S
C884 C900 1.368 . S
H885 C893 0.950 . S
H886 C891 0.950 . S
H887 C892 0.949 . S
H888 C894 0.950 . S
H889 C895 0.950 . S
H890 C896 0.949 . S
C891 H886 0.950 . S
C891 C893 1.327 . S
C891 C897 1.429 . S
C892 C884 1.574 . S
C892 H887 0.949 . S
C892 C898 1.368 . S
C893 C877 1.349 . S
C893 H885 0.950 . S
C893 C891 1.327 . S
C894 C882 1.349 . S
C894 H888 0.950 . S
C894 C895 1.327 . S
C895 H889 0.950 . S
C895 C894 1.327 . S
C895 C899 1.429 . S
C896 C879 1.574 . S
C896 H890 0.949 . S
C896 C900 1.368 . S
C897 C878 1.429 . S
C897 C891 1.429 . S
C897 C898 1.523 . S
C898 C879 1.368 . S
C898 C892 1.368 . S
C898 C897 1.523 . S
C899 C883 1.429 . S
C899 C895 1.429 . S
C899 C900 1.523 . S
C900 C884 1.368 . S
C900 C896 1.368 . S
C900 C899 1.523 . S
H901 C876 0.950 . S
H902 C878 0.950 . S
H903 C879 0.949 . S
H904 C881 0.950 . S
H905 C883 0.950 . S
C906 C907 1.349 . S
C906 C908 1.327 . S
C906 H931 0.950 . S
C907 C906 1.349 . S
C907 C923 1.349 . S
C908 C906 1.327 . S
C908 C927 1.429 . S
C908 H932 0.950 . S
C909 C926 1.574 . S
C909 C928 1.368 . S
C909 H933 0.949 . S
H910 C914 0.949 . S
C911 C912 1.349 . S
C911 C913 1.327 . S
C911 H934 0.950 . S
C912 C911 1.349 . S
C912 C924 1.349 . S
C913 C911 1.327 . S
C913 C929 1.429 . S
C913 H935 0.950 . S
C914 H910 0.949 . S
C914 C922 1.574 . S
C914 C930 1.368 . S
H915 C923 0.950 . S
H916 C921 0.950 . S
H917 C922 0.949 . S
H918 C924 0.950 . S
H919 C925 0.950 . S
H920 C926 0.949 . S
C921 H916 0.950 . S
C921 C923 1.327 . S
C921 C927 1.429 . S
C922 C914 1.574 . S
C922 H917 0.949 . S
C922 C928 1.368 . S
C923 C907 1.349 . S
C923 H915 0.950 . S
C923 C921 1.327 . S
C924 C912 1.349 . S
C924 H918 0.950 . S
C924 C925 1.327 . S
C925 H919 0.950 . S
C925 C924 1.327 . S
C925 C929 1.429 . S
C926 C909 1.574 . S
C926 H920 0.949 . S
C926 C930 1.368 . S
C927 C908 1.429 . S
C927 C921 1.429 . S
C927 C928 1.523 . S
C928 C909 1.368 . S
C928 C922 1.368 . S
C928 C927 1.523 . S
C929 C913 1.429 . S
C929 C925 1.429 . S
C929 C930 1.523 . S
C930 C914 1.368 . S
C930 C926 1.368 . S
C930 C929 1.523 . S
H931 C906 0.950 . S
H932 C908 0.950 . S
H933 C909 0.949 . S
H934 C911 0.950 . S
H935 C913 0.950 . S
C936 C937 1.349 . S
C936 C938 1.327 . S
C936 H961 0.950 . S
C937 C936 1.349 . S
C937 C953 1.349 . S
C938 C936 1.327 . S
C938 C957 1.429 . S
C938 H962 0.950 . S
C939 C956 1.574 . S
C939 C958 1.368 . S
C939 H963 0.949 . S
H940 C944 0.949 . S
C941 C942 1.349 . S
C941 C943 1.327 . S
C941 H964 0.950 . S
C942 C941 1.349 . S
C942 C954 1.349 . S
C943 C941 1.327 . S
C943 C959 1.429 . S
C943 H965 0.950 . S
C944 H940 0.949 . S
C944 C952 1.574 . S
C944 C960 1.368 . S
H945 C953 0.950 . S
H946 C951 0.950 . S
H947 C952 0.949 . S
H948 C954 0.950 . S
H949 C955 0.950 . S
H950 C956 0.949 . S
C951 H946 0.950 . S
C951 C953 1.327 . S
C951 C957 1.429 . S
C952 C944 1.574 . S
C952 H947 0.949 . S
C952 C958 1.368 . S
C953 C937 1.349 . S
C953 H945 0.950 . S
C953 C951 1.327 . S
C954 C942 1.349 . S
C954 H948 0.950 . S
C954 C955 1.327 . S
C955 H949 0.950 . S
C955 C954 1.327 . S
C955 C959 1.429 . S
C956 C939 1.574 . S
C956 H950 0.949 . S
C956 C960 1.368 . S
C957 C938 1.429 . S
C957 C951 1.429 . S
C957 C958 1.523 . S
C958 C939 1.368 . S
C958 C952 1.368 . S
C958 C957 1.523 . S
C959 C943 1.429 . S
C959 C955 1.429 . S
C959 C960 1.523 . S
C960 C944 1.368 . S
C960 C956 1.368 . S
C960 C959 1.523 . S
H961 C936 0.950 . S
H962 C938 0.950 . S
H963 C939 0.949 . S
H964 C941 0.950 . S
H965 C943 0.950 . S
C966 C967 1.349 . S
C966 C968 1.327 . S
C966 H991 0.950 . S
C967 C966 1.349 . S
C967 C983 1.349 . S
C968 C966 1.327 . S
C968 C987 1.429 . S
C968 H992 0.950 . S
C969 C986 1.574 . S
C969 C988 1.368 . S
C969 H993 0.949 . S
H970 C974 0.949 . S
C971 C972 1.349 . S
C971 C973 1.327 . S
C971 H994 0.950 . S
C972 C971 1.349 . S
C972 C984 1.349 . S
C973 C971 1.327 . S
C973 C989 1.429 . S
C973 H995 0.950 . S
C974 H970 0.949 . S
C974 C982 1.574 . S
C974 C990 1.368 . S
H975 C983 0.950 . S
H976 C981 0.950 . S
H977 C982 0.949 . S
H978 C984 0.950 . S
H979 C985 0.950 . S
H980 C986 0.949 . S
C981 H976 0.950 . S
C981 C983 1.327 . S
C981 C987 1.429 . S
C982 C974 1.574 . S
C982 H977 0.949 . S
C982 C988 1.368 . S
C983 C967 1.349 . S
C983 H975 0.950 . S
C983 C981 1.327 . S
C984 C972 1.349 . S
C984 H978 0.950 . S
C984 C985 1.327 . S
C985 H979 0.950 . S
C985 C984 1.327 . S
C985 C989 1.429 . S
C986 C969 1.574 . S
C986 H980 0.949 . S
C986 C990 1.368 . S
C987 C968 1.429 . S
C987 C981 1.429 . S
C987 C988 1.523 . S
C988 C969 1.368 . S
C988 C982 1.368 . S
C988 C987 1.523 . S
C989 C973 1.429 . S
C989 C985 1.429 . S
C989 C990 1.523 . S
C990 C974 1.368 . S
C990 C986 1.368 . S
C990 C989 1.523 . S
H991 C966 0.950 . S
H992 C968 0.950 . S
H993 C969 0.949 . S
H994 C971 0.950 . S
H995 C973 0.950 . S
C996 C997 1.349 . S
C996 C998 1.327 . S
C996 H1021 0.950 . S
C997 C996 1.349 . S
C997 C1013 1.349 . S
C998 C996 1.327 . S
C998 C1017 1.429 . S
C998 H1022 0.950 . S
C999 C1016 1.574 . S
C999 C1018 1.368 . S
C999 H1023 0.949 . S
H1000 C1004 0.949 . S
C1001 C1002 1.349 . S
C1001 C1003 1.327 . S
C1001 H1024 0.950 . S
C1002 C1001 1.349 . S
C1002 C1014 1.349 . S
C1003 C1001 1.327 . S
C1003 C1019 1.429 . S
C1003 H1025 0.950 . S
C1004 H1000 0.949 . S
C1004 C1012 1.574 . S
C1004 C1020 1.368 . S
H1005 C1013 0.950 . S
H1006 C1011 0.950 . S
H1007 C1012 0.949 . S
H1008 C1014 0.950 . S
H1009 C1015 0.950 . S
H1010 C1016 0.949 . S
C1011 H1006 0.950 . S
C1011 C1013 1.327 . S
C1011 C1017 1.429 . S
C1012 C1004 1.574 . S
C1012 H1007 0.949 . S
C1012 C1018 1.368 . S
C1013 C997 1.349 . S
C1013 H1005 0.950 . S
C1013 C1011 1.327 . S
C1014 C1002 1.349 . S
C1014 H1008 0.950 . S
C1014 C1015 1.327 . S
C1015 H1009 0.950 . S
C1015 C1014 1.327 . S
C1015 C1019 1.429 . S
C1016 C999 1.574 . S
C1016 H1010 0.949 . S
C1016 C1020 1.368 . S
C1017 C998 1.429 . S
C1017 C1011 1.429 . S
C1017 C1018 1.523 . S
C1018 C999 1.368 . S
C1018 C1012 1.368 . S
C1018 C1017 1.523 . S
C1019 C1003 1.429 . S
C1019 C1015 1.429 . S
C1019 C1020 1.523 . S
C1020 C1004 1.368 . S
C1020 C1016 1.368 . S
C1020 C1019 1.523 . S
H1021 C996 0.950 . S
H1022 C998 0.950 . S
H1023 C999 0.949 . S
H1024 C1001 0.950 . S
H1025 C1003 0.950 . S
C1026 C1027 1.349 . S
C1026 C1028 1.327 . S
C1026 H1051 0.950 . S
C1027 C1026 1.349 . S
C1027 C1043 1.349 . S
C1028 C1026 1.327 . S
C1028 C1047 1.429 . S
C1028 H1052 0.950 . S
C1029 C1046 1.574 . S
C1029 C1048 1.368 . S
C1029 H1053 0.949 . S
H1030 C1034 0.949 . S
C1031 C1032 1.349 . S
C1031 C1033 1.327 . S
C1031 H1054 0.950 . S
C1032 C1031 1.349 . S
C1032 C1044 1.349 . S
C1033 C1031 1.327 . S
C1033 C1049 1.429 . S
C1033 H1055 0.950 . S
C1034 H1030 0.949 . S
C1034 C1042 1.574 . S
C1034 C1050 1.368 . S
H1035 C1043 0.950 . S
H1036 C1041 0.950 . S
H1037 C1042 0.949 . S
H1038 C1044 0.950 . S
H1039 C1045 0.950 . S
H1040 C1046 0.949 . S
C1041 H1036 0.950 . S
C1041 C1043 1.327 . S
C1041 C1047 1.429 . S
C1042 C1034 1.574 . S
C1042 H1037 0.949 . S
C1042 C1048 1.368 . S
C1043 C1027 1.349 . S
C1043 H1035 0.950 . S
C1043 C1041 1.327 . S
C1044 C1032 1.349 . S
C1044 H1038 0.950 . S
C1044 C1045 1.327 . S
C1045 H1039 0.950 . S
C1045 C1044 1.327 . S
C1045 C1049 1.429 . S
C1046 C1029 1.574 . S
C1046 H1040 0.949 . S
C1046 C1050 1.368 . S
C1047 C1028 1.429 . S
C1047 C1041 1.429 . S
C1047 C1048 1.523 . S
C1048 C1029 1.368 . S
C1048 C1042 1.368 . S
C1048 C1047 1.523 . S
C1049 C1033 1.429 . S
C1049 C1045 1.429 . S
C1049 C1050 1.523 . S
C1050 C1034 1.368 . S
C1050 C1046 1.368 . S
C1050 C1049 1.523 . S
H1051 C1026 0.950 . S
H1052 C1028 0.950 . S
H1053 C1029 0.949 . S
H1054 C1031 0.950 . S
H1055 C1033 0.950 . S
C1056 C1057 1.349 . S
C1056 C1058 1.327 . S
C1056 H1081 0.950 . S
C1057 C1056 1.349 . S
C1057 C1073 1.349 . S
C1058 C1056 1.327 . S
C1058 C1077 1.429 . S
C1058 H1082 0.950 . S
C1059 C1076 1.574 . S
C1059 C1078 1.368 . S
C1059 H1083 0.949 . S
H1060 C1064 0.949 . S
C1061 C1062 1.349 . S
C1061 C1063 1.327 . S
C1061 H1084 0.950 . S
C1062 C1061 1.349 . S
C1062 C1074 1.349 . S
C1063 C1061 1.327 . S
C1063 C1079 1.429 . S
C1063 H1085 0.950 . S
C1064 H1060 0.949 . S
C1064 C1072 1.574 . S
C1064 C1080 1.368 . S
H1065 C1073 0.950 . S
H1066 C1071 0.950 . S
H1067 C1072 0.949 . S
H1068 C1074 0.950 . S
H1069 C1075 0.950 . S
H1070 C1076 0.949 . S
C1071 H1066 0.950 . S
C1071 C1073 1.327 . S
C1071 C1077 1.429 . S
C1072 C1064 1.574 . S
C1072 H1067 0.949 . S
C1072 C1078 1.368 . S
C1073 C1057 1.349 . S
C1073 H1065 0.950 . S
C1073 C1071 1.327 . S
C1074 C1062 1.349 . S
C1074 H1068 0.950 . S
C1074 C1075 1.327 . S
C1075 H1069 0.950 . S
C1075 C1074 1.327 . S
C1075 C1079 1.429 . S
C1076 C1059 1.574 . S
C1076 H1070 0.949 . S
C1076 C1080 1.368 . S
C1077 C1058 1.429 . S
C1077 C1071 1.429 . S
C1077 C1078 1.523 . S
C1078 C1059 1.368 . S
C1078 C1072 1.368 . S
C1078 C1077 1.523 . S
C1079 C1063 1.429 . S
C1079 C1075 1.429 . S
C1079 C1080 1.523 . S
C1080 C1064 1.368 . S
C1080 C1076 1.368 . S
C1080 C1079 1.523 . S
H1081 C1056 0.950 . S
H1082 C1058 0.950 . S
H1083 C1059 0.949 . S
H1084 C1061 0.950 . S
H1085 C1063 0.950 . S
C1086 C1087 1.349 . S
C1086 C1088 1.327 . S
C1086 H1111 0.950 . S
C1087 C1086 1.349 . S
C1087 C1103 1.349 . S
C1088 C1086 1.327 . S
C1088 C1107 1.429 . S
C1088 H1112 0.950 . S
C1089 C1106 1.574 1_554 S
C1089 C1108 1.368 . S
C1089 H1113 0.949 . S
H1090 C1094 0.949 . S
C1091 C1092 1.349 . S
C1091 C1093 1.327 . S
C1091 H1114 0.950 . S
C1092 C1091 1.349 . S
C1092 C1104 1.349 . S
C1093 C1091 1.327 . S
C1093 C1109 1.429 . S
C1093 H1115 0.950 . S
C1094 H1090 0.949 . S
C1094 C1102 1.574 1_556 S
C1094 C1110 1.368 . S
H1095 C1103 0.950 . S
H1096 C1101 0.950 . S
H1097 C1102 0.949 . S
H1098 C1104 0.950 . S
H1099 C1105 0.950 . S
H1100 C1106 0.949 . S
C1101 H1096 0.950 . S
C1101 C1103 1.327 . S
C1101 C1107 1.429 . S
C1102 C1094 1.574 1_554 S
C1102 H1097 0.949 . S
C1102 C1108 1.368 . S
C1103 C1087 1.349 . S
C1103 H1095 0.950 . S
C1103 C1101 1.327 . S
C1104 C1092 1.349 . S
C1104 H1098 0.950 . S
C1104 C1105 1.327 . S
C1105 H1099 0.950 . S
C1105 C1104 1.327 . S
C1105 C1109 1.429 . S
C1106 C1089 1.574 1_556 S
C1106 H1100 0.949 . S
C1106 C1110 1.368 . S
C1107 C1088 1.429 . S
C1107 C1101 1.429 . S
C1107 C1108 1.523 . S
C1108 C1089 1.368 . S
C1108 C1102 1.368 . S
C1108 C1107 1.523 . S
C1109 C1093 1.429 . S
C1109 C1105 1.429 . S
C1109 C1110 1.523 . S
C1110 C1094 1.368 . S
C1110 C1106 1.368 . S
C1110 C1109 1.523 . S
H1111 C1086 0.950 . S
H1112 C1088 0.950 . S
H1113 C1089 0.949 . S
H1114 C1091 0.950 . S
H1115 C1093 0.950 . S
C1116 C1117 1.349 . S
C1116 C1118 1.327 . S
C1116 H1141 0.950 . S
C1117 C1116 1.349 . S
C1117 C1133 1.349 . S
C1118 C1116 1.327 . S
C1118 C1137 1.429 . S
C1118 H1142 0.950 . S
C1119 C1136 1.574 . S
C1119 C1138 1.368 . S
C1119 H1143 0.949 . S
H1120 C1124 0.949 . S
C1121 C1122 1.349 . S
C1121 C1123 1.327 . S
C1121 H1144 0.950 . S
C1122 C1121 1.349 . S
C1122 C1134 1.349 . S
C1123 C1121 1.327 . S
C1123 C1139 1.429 . S
C1123 H1145 0.950 . S
C1124 H1120 0.949 . S
C1124 C1132 1.574 . S
C1124 C1140 1.368 . S
H1125 C1133 0.950 . S
H1126 C1131 0.950 . S
H1127 C1132 0.949 . S
H1128 C1134 0.950 . S
H1129 C1135 0.950 . S
H1130 C1136 0.949 . S
C1131 H1126 0.950 . S
C1131 C1133 1.327 . S
C1131 C1137 1.429 . S
C1132 C1124 1.574 . S
C1132 H1127 0.949 . S
C1132 C1138 1.368 . S
C1133 C1117 1.349 . S
C1133 H1125 0.950 . S
C1133 C1131 1.327 . S
C1134 C1122 1.349 . S
C1134 H1128 0.950 . S
C1134 C1135 1.327 . S
C1135 H1129 0.950 . S
C1135 C1134 1.327 . S
C1135 C1139 1.429 . S
C1136 C1119 1.574 . S
C1136 H1130 0.949 . S
C1136 C1140 1.368 . S
C1137 C1118 1.429 . S
C1137 C1131 1.429 . S
C1137 C1138 1.523 . S
C1138 C1119 1.368 . S
C1138 C1132 1.368 . S
C1138 C1137 1.523 . S
C1139 C1123 1.429 . S
C1139 C1135 1.429 . S
C1139 C1140 1.523 . S
C1140 C1124 1.368 . S
C1140 C1136 1.368 . S
C1140 C1139 1.523 . S
H1141 C1116 0.950 . S
H1142 C1118 0.950 . S
H1143 C1119 0.949 . S
H1144 C1121 0.950 . S
H1145 C1123 0.950 . S
C1146 C1147 1.349 . S
C1146 C1148 1.327 . S
C1146 H1171 0.950 . S
C1147 C1146 1.349 . S
C1147 C1163 1.349 . S
C1148 C1146 1.327 . S
C1148 C1167 1.429 . S
C1148 H1172 0.950 . S
C1149 C1166 1.574 1_554 S
C1149 C1168 1.368 . S
C1149 H1173 0.949 . S
H1150 C1154 0.942 1_556 S
C1151 C1152 1.349 . S
C1151 C1153 1.327 . S
C1151 H1174 0.950 . S
C1152 C1151 1.349 . S
C1152 C1164 1.349 . S
C1153 C1151 1.327 . S
C1153 C1169 1.429 . S
C1153 H1175 0.950 . S
C1154 H1150 0.942 1_554 S
C1154 C1162 1.574 . S
C1154 C1170 1.368 1_554 S
H1155 C1163 0.950 . S
H1156 C1161 0.950 . S
H1157 C1162 0.949 . S
H1158 C1164 0.950 . S
H1159 C1165 0.950 . S
H1160 C1166 0.949 . S
C1161 H1156 0.950 . S
C1161 C1163 1.327 . S
C1161 C1167 1.429 . S
C1162 C1154 1.574 . S
C1162 H1157 0.949 . S
C1162 C1168 1.368 . S
C1163 C1147 1.349 . S
C1163 H1155 0.950 . S
C1163 C1161 1.327 . S
C1164 C1152 1.349 . S
C1164 H1158 0.950 . S
C1164 C1165 1.327 . S
C1165 H1159 0.950 . S
C1165 C1164 1.327 . S
C1165 C1169 1.429 . S
C1166 C1149 1.574 1_556 S
C1166 H1160 0.949 . S
C1166 C1170 1.368 . S
C1167 C1148 1.429 . S
C1167 C1161 1.429 . S
C1167 C1168 1.523 . S
C1168 C1149 1.368 . S
C1168 C1162 1.368 . S
C1168 C1167 1.523 . S
C1169 C1153 1.429 . S
C1169 C1165 1.429 . S
C1169 C1170 1.523 . S
C1170 C1154 1.368 1_556 S
C1170 C1166 1.368 . S
C1170 C1169 1.523 . S
H1171 C1146 0.950 . S
H1172 C1148 0.950 . S
H1173 C1149 0.949 . S
H1174 C1151 0.950 . S
H1175 C1153 0.950 . S
C1176 C1177 1.349 . S
C1176 C1178 1.327 . S
C1176 H1201 0.950 . S
C1177 C1176 1.349 . S
C1177 C1193 1.349 . S
C1178 C1176 1.327 . S
C1178 C1197 1.429 . S
C1178 H1202 0.950 . S
C1179 C1196 1.574 . S
C1179 C1198 1.368 . S
C1179 H1203 0.949 . S
H1180 C1184 0.949 . S
C1181 C1182 1.349 . S
C1181 C1183 1.327 . S
C1181 H1204 0.950 . S
C1182 C1181 1.349 . S
C1182 C1194 1.349 . S
C1183 C1181 1.327 . S
C1183 C1199 1.429 . S
C1183 H1205 0.950 . S
C1184 H1180 0.949 . S
C1184 C1192 1.574 . S
C1184 C1200 1.368 . S
H1185 C1193 0.950 . S
H1186 C1191 0.950 . S
H1187 C1192 0.949 . S
H1188 C1194 0.950 . S
H1189 C1195 0.950 . S
H1190 C1196 0.949 . S
C1191 H1186 0.950 . S
C1191 C1193 1.327 . S
C1191 C1197 1.429 . S
C1192 C1184 1.574 . S
C1192 H1187 0.949 . S
C1192 C1198 1.368 . S
C1193 C1177 1.349 . S
C1193 H1185 0.950 . S
C1193 C1191 1.327 . S
C1194 C1182 1.349 . S
C1194 H1188 0.950 . S
C1194 C1195 1.327 . S
C1195 H1189 0.950 . S
C1195 C1194 1.327 . S
C1195 C1199 1.429 . S
C1196 C1179 1.574 . S
C1196 H1190 0.949 . S
C1196 C1200 1.368 . S
C1197 C1178 1.429 . S
C1197 C1191 1.429 . S
C1197 C1198 1.523 . S
C1198 C1179 1.368 . S
C1198 C1192 1.368 . S
C1198 C1197 1.523 . S
C1199 C1183 1.429 . S
C1199 C1195 1.429 . S
C1199 C1200 1.523 . S
C1200 C1184 1.368 . S
C1200 C1196 1.368 . S
C1200 C1199 1.523 . S
H1201 C1176 0.950 . S
H1202 C1178 0.950 . S
H1203 C1179 0.949 . S
H1204 C1181 0.950 . S
H1205 C1183 0.950 . S
C1206 C1207 1.349 . S
C1206 C1208 1.327 . S
C1206 H1231 0.950 . S
C1207 C1206 1.349 . S
C1207 C1223 1.349 . S
C1208 C1206 1.327 . S
C1208 C1227 1.429 . S
C1208 H1232 0.950 . S
C1209 C1226 1.574 1_655 S
C1209 C1228 1.368 . S
C1209 H1233 0.949 . S
H1210 C1214 0.949 . S
C1211 C1212 1.349 . S
C1211 C1213 1.327 . S
C1211 H1234 0.950 . S
C1212 C1211 1.349 . S
C1212 C1224 1.349 . S
C1213 C1211 1.327 . S
C1213 C1229 1.429 . S
C1213 H1235 0.950 . S
C1214 H1210 0.949 . S
C1214 C1222 1.618 . S
C1214 C1230 1.368 . S
H1215 C1223 0.950 . S
H1216 C1221 0.950 . S
H1217 C1222 0.942 1_655 S
H1218 C1224 0.950 . S
H1219 C1225 0.950 . S
H1220 C1226 0.949 . S
C1221 H1216 0.950 . S
C1221 C1223 1.327 . S
C1221 C1227 1.429 . S
C1222 C1214 1.618 . S
C1222 H1217 0.942 1_455 S
C1222 C1228 1.334 1_455 S
C1223 C1207 1.349 . S
C1223 H1215 0.950 . S
C1223 C1221 1.327 . S
C1224 C1212 1.349 . S
C1224 H1218 0.950 . S
C1224 C1225 1.327 . S
C1225 H1219 0.950 . S
C1225 C1224 1.327 . S
C1225 C1229 1.429 . S
C1226 C1209 1.574 1_455 S
C1226 H1220 0.949 . S
C1226 C1230 1.368 . S
C1227 C1208 1.429 . S
C1227 C1221 1.429 . S
C1227 C1228 1.523 . S
C1228 C1209 1.368 . S
C1228 C1222 1.334 1_655 S
C1228 C1227 1.523 . S
C1229 C1213 1.429 . S
C1229 C1225 1.429 . S
C1229 C1230 1.523 . S
C1230 C1214 1.368 . S
C1230 C1226 1.368 . S
C1230 C1229 1.523 . S
H1231 C1206 0.950 . S
H1232 C1208 0.950 . S
H1233 C1209 0.949 . S
H1234 C1211 0.950 . S
H1235 C1213 0.950 . S
C1236 C1237 1.349 . S
C1236 C1238 1.327 . S
C1236 H1261 0.950 . S
C1237 C1236 1.349 . S
C1237 C1253 1.349 . S
C1238 C1236 1.327 . S
C1238 C1257 1.429 . S
C1238 H1262 0.950 . S
C1239 C1256 1.574 1_455 S
C1239 C1258 1.368 . S
C1239 H1263 0.949 . S
H1240 C1244 0.949 . S
C1241 C1242 1.349 . S
C1241 C1243 1.327 . S
C1241 H1264 0.950 . S
C1242 C1241 1.349 . S
C1242 C1254 1.349 . S
C1243 C1241 1.327 . S
C1243 C1259 1.429 . S
C1243 H1265 0.950 . S
C1244 H1240 0.949 . S
C1244 C1252 1.526 1_655 S
C1244 C1260 1.368 . S
H1245 C1253 0.950 . S
H1246 C1251 0.950 . S
H1247 C1252 0.964 . S
H1248 C1254 0.950 . S
H1249 C1255 0.950 . S
H1250 C1256 0.949 . S
C1251 H1246 0.950 . S
C1251 C1253 1.327 . S
C1251 C1257 1.429 . S
C1252 C1244 1.526 1_455 S
C1252 H1247 0.964 . S
C1252 C1258 1.402 . S
C1253 C1237 1.349 . S
C1253 H1245 0.950 . S
C1253 C1251 1.327 . S
C1254 C1242 1.349 . S
C1254 H1248 0.950 . S
C1254 C1255 1.327 . S
C1255 H1249 0.950 . S
C1255 C1254 1.327 . S
C1255 C1259 1.429 . S
C1256 C1239 1.574 1_655 S
C1256 H1250 0.949 . S
C1256 C1260 1.368 . S
C1257 C1238 1.429 . S
C1257 C1251 1.429 . S
C1257 C1258 1.523 . S
C1258 C1239 1.368 . S
C1258 C1252 1.402 . S
C1258 C1257 1.523 . S
C1259 C1243 1.429 . S
C1259 C1255 1.429 . S
C1259 C1260 1.523 . S
C1260 C1244 1.368 . S
C1260 C1256 1.368 . S
C1260 C1259 1.523 . S
H1261 C1236 0.950 . S
H1262 C1238 0.950 . S
H1263 C1239 0.949 . S
H1264 C1241 0.950 . S
H1265 C1243 0.950 . S
C1266 C1267 1.349 . S
C1266 C1268 1.327 . S
C1266 H1291 0.950 . S
C1267 C1266 1.349 . S
C1267 C1283 1.349 . S
C1268 C1266 1.327 . S
C1268 C1287 1.429 . S
C1268 H1292 0.950 . S
C1269 C1286 1.574 . S
C1269 C1288 1.368 . S
C1269 H1293 0.949 . S
H1270 C1274 0.949 . S
C1271 C1272 1.349 . S
C1271 C1273 1.327 . S
C1271 H1294 0.950 . S
C1272 C1271 1.349 . S
C1272 C1284 1.349 . S
C1273 C1271 1.327 . S
C1273 C1289 1.429 . S
C1273 H1295 0.950 . S
C1274 H1270 0.949 . S
C1274 C1282 1.574 . S
C1274 C1290 1.368 . S
H1275 C1283 0.950 . S
H1276 C1281 0.950 . S
H1277 C1282 0.949 . S
H1278 C1284 0.950 . S
H1279 C1285 0.950 . S
H1280 C1286 0.949 . S
C1281 H1276 0.950 . S
C1281 C1283 1.327 . S
C1281 C1287 1.429 . S
C1282 C1274 1.574 . S
C1282 H1277 0.949 . S
C1282 C1288 1.368 . S
C1283 C1267 1.349 . S
C1283 H1275 0.950 . S
C1283 C1281 1.327 . S
C1284 C1272 1.349 . S
C1284 H1278 0.950 . S
C1284 C1285 1.327 . S
C1285 H1279 0.950 . S
C1285 C1284 1.327 . S
C1285 C1289 1.429 . S
C1286 C1269 1.574 . S
C1286 H1280 0.949 . S
C1286 C1290 1.368 . S
C1287 C1268 1.429 . S
C1287 C1281 1.429 . S
C1287 C1288 1.523 . S
C1288 C1269 1.368 . S
C1288 C1282 1.368 . S
C1288 C1287 1.523 . S
C1289 C1273 1.429 . S
C1289 C1285 1.429 . S
C1289 C1290 1.523 . S
C1290 C1274 1.368 . S
C1290 C1286 1.368 . S
C1290 C1289 1.523 . S
H1291 C1266 0.950 . S
H1292 C1268 0.950 . S
H1293 C1269 0.949 . S
H1294 C1271 0.950 . S
H1295 C1273 0.950 . S
C1296 C1297 1.349 . S
C1296 C1298 1.327 . S
C1296 H1321 0.950 . S
C1297 C1296 1.349 . S
C1297 C1313 1.349 . S
C1298 C1296 1.327 . S
C1298 C1317 1.429 . S
C1298 H1322 0.950 . S
C1299 C1316 1.574 . S
C1299 C1318 1.368 . S
C1299 H1323 0.949 . S
H1300 C1304 0.949 . S
C1301 C1302 1.349 . S
C1301 C1303 1.327 . S
C1301 H1324 0.950 . S
C1302 C1301 1.349 . S
C1302 C1314 1.349 . S
C1303 C1301 1.327 . S
C1303 C1319 1.429 . S
C1303 H1325 0.950 . S
C1304 H1300 0.949 . S
C1304 C1312 1.574 . S
C1304 C1320 1.368 . S
H1305 C1313 0.950 . S
H1306 C1311 0.950 . S
H1307 C1312 0.949 . S
H1308 C1314 0.950 . S
H1309 C1315 0.950 . S
H1310 C1316 0.949 . S
C1311 H1306 0.950 . S
C1311 C1313 1.327 . S
C1311 C1317 1.429 . S
C1312 C1304 1.574 . S
C1312 H1307 0.949 . S
C1312 C1318 1.368 . S
C1313 C1297 1.349 . S
C1313 H1305 0.950 . S
C1313 C1311 1.327 . S
C1314 C1302 1.349 . S
C1314 H1308 0.950 . S
C1314 C1315 1.327 . S
C1315 H1309 0.950 . S
C1315 C1314 1.327 . S
C1315 C1319 1.429 . S
C1316 C1299 1.574 . S
C1316 H1310 0.949 . S
C1316 C1320 1.368 . S
C1317 C1298 1.429 . S
C1317 C1311 1.429 . S
C1317 C1318 1.523 . S
C1318 C1299 1.368 . S
C1318 C1312 1.368 . S
C1318 C1317 1.523 . S
C1319 C1303 1.429 . S
C1319 C1315 1.429 . S
C1319 C1320 1.523 . S
C1320 C1304 1.368 . S
C1320 C1316 1.368 . S
C1320 C1319 1.523 . S
H1321 C1296 0.950 . S
H1322 C1298 0.950 . S
H1323 C1299 0.949 . S
H1324 C1301 0.950 . S
H1325 C1303 0.950 . S
C1326 C1327 1.349 . S
C1326 C1328 1.327 . S
C1326 H1351 0.950 . S
C1327 C1326 1.349 . S
C1327 C1343 1.349 . S
C1328 C1326 1.327 . S
C1328 C1347 1.429 . S
C1328 H1352 0.950 . S
C1329 C1346 1.626 . S
C1329 C1348 1.328 1_545 S
C1329 H1353 0.941 1_545 S
H1330 C1334 0.949 . S
C1331 C1332 1.349 . S
C1331 C1333 1.327 . S
C1331 H1354 0.950 . S
C1332 C1331 1.349 . S
C1332 C1344 1.349 . S
C1333 C1331 1.327 . S
C1333 C1349 1.429 . S
C1333 H1355 0.950 . S
C1334 H1330 0.949 . S
C1334 C1342 1.574 1_545 S
C1334 C1350 1.368 . S
H1335 C1343 0.950 . S
H1336 C1341 0.950 . S
H1337 C1342 0.949 . S
H1338 C1344 0.950 . S
H1339 C1345 0.950 . S
H1340 C1346 0.949 . S
C1341 H1336 0.950 . S
C1341 C1343 1.327 . S
C1341 C1347 1.429 . S
C1342 C1334 1.574 1_565 S
C1342 H1337 0.949 . S
C1342 C1348 1.368 . S
C1343 C1327 1.349 . S
C1343 H1335 0.950 . S
C1343 C1341 1.327 . S
C1344 C1332 1.349 . S
C1344 H1338 0.950 . S
C1344 C1345 1.327 . S
C1345 H1339 0.950 . S
C1345 C1344 1.327 . S
C1345 C1349 1.429 . S
C1346 C1329 1.626 . S
C1346 H1340 0.949 . S
C1346 C1350 1.368 . S
C1347 C1328 1.429 . S
C1347 C1341 1.429 . S
C1347 C1348 1.523 . S
C1348 C1329 1.328 1_565 S
C1348 C1342 1.368 . S
C1348 C1347 1.523 . S
C1349 C1333 1.429 . S
C1349 C1345 1.429 . S
C1349 C1350 1.523 . S
C1350 C1334 1.368 . S
C1350 C1346 1.368 . S
C1350 C1349 1.523 . S
H1351 C1326 0.950 . S
H1352 C1328 0.950 . S
H1353 C1329 0.941 1_565 S
H1354 C1331 0.950 . S
H1355 C1333 0.950 . S
C1356 C1357 1.349 . S
C1356 C1358 1.327 . S
C1356 H1381 0.950 . S
C1357 C1356 1.349 . S
C1357 C1373 1.349 . S
C1358 C1356 1.327 . S
C1358 C1377 1.429 . S
C1358 H1382 0.950 . S
C1359 C1376 1.574 1_545 S
C1359 C1378 1.368 . S
C1359 H1383 0.949 . S
H1360 C1364 0.949 . S
C1361 C1362 1.349 . S
C1361 C1363 1.327 . S
C1361 H1384 0.950 . S
C1362 C1361 1.349 . S
C1362 C1374 1.349 . S
C1363 C1361 1.327 . S
C1363 C1379 1.429 . S
C1363 H1385 0.950 . S
C1364 H1360 0.949 . S
C1364 C1372 1.622 . S
C1364 C1380 1.368 . S
H1365 C1373 0.950 . S
H1366 C1371 0.950 . S
H1367 C1372 0.942 1_545 S
H1368 C1374 0.950 . S
H1369 C1375 0.950 . S
H1370 C1376 0.949 . S
C1371 H1366 0.950 . S
C1371 C1373 1.327 . S
C1371 C1377 1.429 . S
C1372 C1364 1.622 . S
C1372 H1367 0.942 1_565 S
C1372 C1378 1.331 1_565 S
C1373 C1357 1.349 . S
C1373 H1365 0.950 . S
C1373 C1371 1.327 . S
C1374 C1362 1.349 . S
C1374 H1368 0.950 . S
C1374 C1375 1.327 . S
C1375 H1369 0.950 . S
C1375 C1374 1.327 . S
C1375 C1379 1.429 . S
C1376 C1359 1.574 1_565 S
C1376 H1370 0.949 . S
C1376 C1380 1.368 . S
C1377 C1358 1.429 . S
C1377 C1371 1.429 . S
C1377 C1378 1.523 . S
C1378 C1359 1.368 . S
C1378 C1372 1.331 1_545 S
C1378 C1377 1.523 . S
C1379 C1363 1.429 . S
C1379 C1375 1.429 . S
C1379 C1380 1.523 . S
C1380 C1364 1.368 . S
C1380 C1376 1.368 . S
C1380 C1379 1.523 . S
H1381 C1356 0.950 . S
H1382 C1358 0.950 . S
H1383 C1359 0.949 . S
H1384 C1361 0.950 . S
H1385 C1363 0.950 . S
C1386 C1387 1.349 . S
C1386 C1388 1.327 . S
C1386 H1411 0.950 . S
C1387 C1386 1.349 . S
C1387 C1403 1.349 . S
C1388 C1386 1.327 . S
C1388 C1407 1.429 . S
C1388 H1412 0.950 . S
C1389 C1406 1.574 . S
C1389 C1408 1.368 . S
C1389 H1413 0.949 . S
H1390 C1394 0.949 . S
C1391 C1392 1.349 . S
C1391 C1393 1.327 . S
C1391 H1414 0.950 . S
C1392 C1391 1.349 . S
C1392 C1404 1.349 . S
C1393 C1391 1.327 . S
C1393 C1409 1.429 . S
C1393 H1415 0.950 . S
C1394 H1390 0.949 . S
C1394 C1402 1.574 . S
C1394 C1410 1.368 . S
H1395 C1403 0.950 . S
H1396 C1401 0.950 . S
H1397 C1402 0.949 . S
H1398 C1404 0.950 . S
H1399 C1405 0.950 . S
H1400 C1406 0.949 . S
C1401 H1396 0.950 . S
C1401 C1403 1.327 . S
C1401 C1407 1.429 . S
C1402 C1394 1.574 . S
C1402 H1397 0.949 . S
C1402 C1408 1.368 . S
C1403 C1387 1.349 . S
C1403 H1395 0.950 . S
C1403 C1401 1.327 . S
C1404 C1392 1.349 . S
C1404 H1398 0.950 . S
C1404 C1405 1.327 . S
C1405 H1399 0.950 . S
C1405 C1404 1.327 . S
C1405 C1409 1.429 . S
C1406 C1389 1.574 . S
C1406 H1400 0.949 . S
C1406 C1410 1.368 . S
C1407 C1388 1.429 . S
C1407 C1401 1.429 . S
C1407 C1408 1.523 . S
C1408 C1389 1.368 . S
C1408 C1402 1.368 . S
C1408 C1407 1.523 . S
C1409 C1393 1.429 . S
C1409 C1405 1.429 . S
C1409 C1410 1.523 . S
C1410 C1394 1.368 . S
C1410 C1406 1.368 . S
C1410 C1409 1.523 . S
H1411 C1386 0.950 . S
H1412 C1388 0.950 . S
H1413 C1389 0.949 . S
H1414 C1391 0.950 . S
H1415 C1393 0.950 . S
C1416 C1417 1.349 . S
C1416 C1418 1.327 . S
C1416 H1441 0.950 . S
C1417 C1416 1.349 . S
C1417 C1433 1.349 . S
C1418 C1416 1.327 . S
C1418 C1437 1.429 . S
C1418 H1442 0.950 . S
C1419 C1436 1.574 . S
C1419 C1438 1.368 . S
C1419 H1443 0.949 . S
H1420 C1424 0.949 . S
C1421 C1422 1.349 . S
C1421 C1423 1.327 . S
C1421 H1444 0.950 . S
C1422 C1421 1.349 . S
C1422 C1434 1.349 . S
C1423 C1421 1.327 . S
C1423 C1439 1.429 . S
C1423 H1445 0.950 . S
C1424 H1420 0.949 . S
C1424 C1432 1.574 . S
C1424 C1440 1.368 . S
H1425 C1433 0.950 . S
H1426 C1431 0.950 . S
H1427 C1432 0.949 . S
H1428 C1434 0.950 . S
H1429 C1435 0.950 . S
H1430 C1436 0.949 . S
C1431 H1426 0.950 . S
C1431 C1433 1.327 . S
C1431 C1437 1.429 . S
C1432 C1424 1.574 . S
C1432 H1427 0.949 . S
C1432 C1438 1.368 . S
C1433 C1417 1.349 . S
C1433 H1425 0.950 . S
C1433 C1431 1.327 . S
C1434 C1422 1.349 . S
C1434 H1428 0.950 . S
C1434 C1435 1.327 . S
C1435 H1429 0.950 . S
C1435 C1434 1.327 . S
C1435 C1439 1.429 . S
C1436 C1419 1.574 . S
C1436 H1430 0.949 . S
C1436 C1440 1.368 . S
C1437 C1418 1.429 . S
C1437 C1431 1.429 . S
C1437 C1438 1.523 . S
C1438 C1419 1.368 . S
C1438 C1432 1.368 . S
C1438 C1437 1.523 . S
C1439 C1423 1.429 . S
C1439 C1435 1.429 . S
C1439 C1440 1.523 . S
C1440 C1424 1.368 . S
C1440 C1436 1.368 . S
C1440 C1439 1.523 . S
H1441 C1416 0.950 . S
H1442 C1418 0.950 . S
H1443 C1419 0.949 . S
H1444 C1421 0.950 . S
H1445 C1423 0.950 . S
C1446 C1447 1.349 . S
C1446 C1448 1.327 . S
C1446 H1471 0.950 . S
C1447 C1446 1.349 . S
C1447 C1463 1.349 . S
C1448 C1446 1.327 . S
C1448 C1467 1.429 . S
C1448 H1472 0.950 . S
C1449 C1466 1.623 . S
C1449 C1468 1.330 1_554 S
C1449 H1473 0.941 1_554 S
H1450 C1454 0.949 . S
C1451 C1452 1.349 . S
C1451 C1453 1.327 . S
C1451 H1474 0.950 . S
C1452 C1451 1.349 . S
C1452 C1464 1.349 . S
C1453 C1451 1.327 . S
C1453 C1469 1.429 . S
C1453 H1475 0.950 . S
C1454 H1450 0.949 . S
C1454 C1462 1.574 1_554 S
C1454 C1470 1.368 . S
H1455 C1463 0.950 . S
H1456 C1461 0.950 . S
H1457 C1462 0.949 . S
H1458 C1464 0.950 . S
H1459 C1465 0.950 . S
H1460 C1466 0.949 . S
C1461 H1456 0.950 . S
C1461 C1463 1.327 . S
C1461 C1467 1.429 . S
C1462 C1454 1.574 1_556 S
C1462 H1457 0.949 . S
C1462 C1468 1.368 . S
C1463 C1447 1.349 . S
C1463 H1455 0.950 . S
C1463 C1461 1.327 . S
C1464 C1452 1.349 . S
C1464 H1458 0.950 . S
C1464 C1465 1.327 . S
C1465 H1459 0.950 . S
C1465 C1464 1.327 . S
C1465 C1469 1.429 . S
C1466 C1449 1.623 . S
C1466 H1460 0.949 . S
C1466 C1470 1.368 . S
C1467 C1448 1.429 . S
C1467 C1461 1.429 . S
C1467 C1468 1.523 . S
C1468 C1449 1.330 1_556 S
C1468 C1462 1.368 . S
C1468 C1467 1.523 . S
C1469 C1453 1.429 . S
C1469 C1465 1.429 . S
C1469 C1470 1.523 . S
C1470 C1454 1.368 . S
C1470 C1466 1.368 . S
C1470 C1469 1.523 . S
H1471 C1446 0.950 . S
H1472 C1448 0.950 . S
H1473 C1449 0.941 1_556 S
H1474 C1451 0.950 . S
H1475 C1453 0.950 . S
C1476 C1477 1.349 . S
C1476 C1478 1.327 . S
C1476 H1501 0.950 . S
C1477 C1476 1.349 . S
C1477 C1493 1.349 . S
C1478 C1476 1.327 . S
C1478 C1497 1.429 . S
C1478 H1502 0.950 . S
C1479 C1496 1.574 . S
C1479 C1498 1.368 . S
C1479 H1503 0.949 . S
H1480 C1484 0.949 . S
C1481 C1482 1.349 . S
C1481 C1483 1.327 . S
C1481 H1504 0.950 . S
C1482 C1481 1.349 . S
C1482 C1494 1.349 . S
C1483 C1481 1.327 . S
C1483 C1499 1.429 . S
C1483 H1505 0.950 . S
C1484 H1480 0.949 . S
C1484 C1492 1.574 . S
C1484 C1500 1.368 . S
H1485 C1493 0.950 . S
H1486 C1491 0.950 . S
H1487 C1492 0.949 . S
H1488 C1494 0.950 . S
H1489 C1495 0.950 . S
H1490 C1496 0.949 . S
C1491 H1486 0.950 . S
C1491 C1493 1.327 . S
C1491 C1497 1.429 . S
C1492 C1484 1.574 . S
C1492 H1487 0.949 . S
C1492 C1498 1.368 . S
C1493 C1477 1.349 . S
C1493 H1485 0.950 . S
C1493 C1491 1.327 . S
C1494 C1482 1.349 . S
C1494 H1488 0.950 . S
C1494 C1495 1.327 . S
C1495 H1489 0.950 . S
C1495 C1494 1.327 . S
C1495 C1499 1.429 . S
C1496 C1479 1.574 . S
C1496 H1490 0.949 . S
C1496 C1500 1.368 . S
C1497 C1478 1.429 . S
C1497 C1491 1.429 . S
C1497 C1498 1.523 . S
C1498 C1479 1.368 . S
C1498 C1492 1.368 . S
C1498 C1497 1.523 . S
C1499 C1483 1.429 . S
C1499 C1495 1.429 . S
C1499 C1500 1.523 . S
C1500 C1484 1.368 . S
C1500 C1496 1.368 . S
C1500 C1499 1.523 . S
H1501 C1476 0.950 . S
H1502 C1478 0.950 . S
H1503 C1479 0.949 . S
H1504 C1481 0.950 . S
H1505 C1483 0.950 . S
C1506 C1507 1.349 . S
C1506 C1508 1.327 . S
C1506 H1531 0.950 . S
C1507 C1506 1.349 . S
C1507 C1523 1.349 . S
C1508 C1506 1.327 . S
C1508 C1527 1.429 . S
C1508 H1532 0.950 . S
C1509 C1526 1.574 1_554 S
C1509 C1528 1.368 . S
C1509 H1533 0.949 . S
H1510 C1514 0.949 . S
C1511 C1512 1.349 . S
C1511 C1513 1.327 . S
C1511 H1534 0.950 . S
C1512 C1511 1.349 . S
C1512 C1524 1.349 . S
C1513 C1511 1.327 . S
C1513 C1529 1.429 . S
C1513 H1535 0.950 . S
C1514 H1510 0.949 . S
C1514 C1522 1.574 . S
C1514 C1530 1.368 . S
H1515 C1523 0.950 . S
H1516 C1521 0.950 . S
H1517 C1522 0.949 1_554 S
H1518 C1524 0.950 . S
H1519 C1525 0.950 . S
H1520 C1526 0.949 . S
C1521 H1516 0.950 . S
C1521 C1523 1.327 . S
C1521 C1527 1.429 . S
C1522 C1514 1.574 . S
C1522 H1517 0.949 1_556 S
C1522 C1528 1.368 1_556 S
C1523 C1507 1.349 . S
C1523 H1515 0.950 . S
C1523 C1521 1.327 . S
C1524 C1512 1.349 . S
C1524 H1518 0.950 . S
C1524 C1525 1.327 . S
C1525 H1519 0.950 . S
C1525 C1524 1.327 . S
C1525 C1529 1.429 . S
C1526 C1509 1.574 1_556 S
C1526 H1520 0.949 . S
C1526 C1530 1.368 . S
C1527 C1508 1.429 . S
C1527 C1521 1.429 . S
C1527 C1528 1.523 . S
C1528 C1509 1.368 . S
C1528 C1522 1.368 1_554 S
C1528 C1527 1.523 . S
C1529 C1513 1.429 . S
C1529 C1525 1.429 . S
C1529 C1530 1.523 . S
C1530 C1514 1.368 . S
C1530 C1526 1.368 . S
C1530 C1529 1.523 . S
H1531 C1506 0.950 . S
H1532 C1508 0.950 . S
H1533 C1509 0.949 . S
H1534 C1511 0.950 . S
H1535 C1513 0.950 . S
C1536 C1537 1.349 . S
C1536 C1538 1.327 . S
C1536 H1561 0.950 . S
C1537 C1536 1.349 . S
C1537 C1553 1.349 . S
C1538 C1536 1.327 . S
C1538 C1557 1.429 . S
C1538 H1562 0.950 . S
C1539 C1556 1.574 . S
C1539 C1558 1.368 . S
C1539 H1563 0.949 . S
H1540 C1544 0.949 . S
C1541 C1542 1.349 . S
C1541 C1543 1.327 . S
C1541 H1564 0.950 . S
C1542 C1541 1.349 . S
C1542 C1554 1.349 . S
C1543 C1541 1.327 . S
C1543 C1559 1.429 . S
C1543 H1565 0.950 . S
C1544 H1540 0.949 . S
C1544 C1552 1.574 . S
C1544 C1560 1.368 . S
H1545 C1553 0.950 . S
H1546 C1551 0.950 . S
H1547 C1552 0.949 . S
H1548 C1554 0.950 . S
H1549 C1555 0.950 . S
H1550 C1556 0.949 . S
C1551 H1546 0.950 . S
C1551 C1553 1.327 . S
C1551 C1557 1.429 . S
C1552 C1544 1.574 . S
C1552 H1547 0.949 . S
C1552 C1558 1.368 . S
C1553 C1537 1.349 . S
C1553 H1545 0.950 . S
C1553 C1551 1.327 . S
C1554 C1542 1.349 . S
C1554 H1548 0.950 . S
C1554 C1555 1.327 . S
C1555 H1549 0.950 . S
C1555 C1554 1.327 . S
C1555 C1559 1.429 . S
C1556 C1539 1.574 . S
C1556 H1550 0.949 . S
C1556 C1560 1.368 . S
C1557 C1538 1.429 . S
C1557 C1551 1.429 . S
C1557 C1558 1.523 . S
C1558 C1539 1.368 . S
C1558 C1552 1.368 . S
C1558 C1557 1.523 . S
C1559 C1543 1.429 . S
C1559 C1555 1.429 . S
C1559 C1560 1.523 . S
C1560 C1544 1.368 . S
C1560 C1556 1.368 . S
C1560 C1559 1.523 . S
H1561 C1536 0.950 . S
H1562 C1538 0.950 . S
H1563 C1539 0.949 . S
H1564 C1541 0.950 . S
H1565 C1543 0.950 . S
C1566 C1567 1.349 . S
C1566 C1568 1.327 . S
C1566 H1591 0.950 . S
C1567 C1566 1.349 . S
C1567 C1583 1.349 . S
C1568 C1566 1.327 . S
C1568 C1587 1.429 . S
C1568 H1592 0.950 . S
C1569 C1586 1.574 1_655 S
C1569 C1588 1.368 . S
C1569 H1593 0.949 . S
H1570 C1574 0.949 . S
C1571 C1572 1.349 . S
C1571 C1573 1.327 . S
C1571 H1594 0.950 . S
C1572 C1571 1.349 . S
C1572 C1584 1.349 . S
C1573 C1571 1.327 . S
C1573 C1589 1.429 . S
C1573 H1595 0.950 . S
C1574 H1570 0.949 . S
C1574 C1582 1.574 1_455 S
C1574 C1590 1.368 . S
H1575 C1583 0.950 . S
H1576 C1581 0.950 . S
H1577 C1582 0.949 . S
H1578 C1584 0.950 . S
H1579 C1585 0.950 . S
H1580 C1586 0.949 . S
C1581 H1576 0.950 . S
C1581 C1583 1.327 . S
C1581 C1587 1.429 . S
C1582 C1574 1.574 1_655 S
C1582 H1577 0.949 . S
C1582 C1588 1.368 . S
C1583 C1567 1.349 . S
C1583 H1575 0.950 . S
C1583 C1581 1.327 . S
C1584 C1572 1.349 . S
C1584 H1578 0.950 . S
C1584 C1585 1.327 . S
C1585 H1579 0.950 . S
C1585 C1584 1.327 . S
C1585 C1589 1.429 . S
C1586 C1569 1.574 1_455 S
C1586 H1580 0.949 . S
C1586 C1590 1.368 . S
C1587 C1568 1.429 . S
C1587 C1581 1.429 . S
C1587 C1588 1.523 . S
C1588 C1569 1.368 . S
C1588 C1582 1.368 . S
C1588 C1587 1.523 . S
C1589 C1573 1.429 . S
C1589 C1585 1.429 . S
C1589 C1590 1.523 . S
C1590 C1574 1.368 . S
C1590 C1586 1.368 . S
C1590 C1589 1.523 . S
H1591 C1566 0.950 . S
H1592 C1568 0.950 . S
H1593 C1569 0.949 . S
H1594 C1571 0.950 . S
H1595 C1573 0.950 . S
C1596 C1597 1.349 . S
C1596 C1598 1.327 . S
C1596 H1621 0.950 . S
C1597 C1596 1.349 . S
C1597 C1613 1.349 . S
C1598 C1596 1.327 . S
C1598 C1617 1.429 . S
C1598 H1622 0.950 . S
C1599 C1616 1.574 1_455 S
C1599 C1618 1.368 . S
C1599 H1623 0.949 . S
H1600 C1604 0.949 . S
C1601 C1602 1.349 . S
C1601 C1603 1.327 . S
C1601 H1624 0.950 . S
C1602 C1601 1.349 . S
C1602 C1614 1.349 . S
C1603 C1601 1.327 . S
C1603 C1619 1.429 . S
C1603 H1625 0.950 . S
C1604 H1600 0.949 . S
C1604 C1612 1.574 1_655 S
C1604 C1620 1.368 . S
H1605 C1613 0.950 . S
H1606 C1611 0.950 . S
H1607 C1612 0.949 . S
H1608 C1614 0.950 . S
H1609 C1615 0.950 . S
H1610 C1616 0.949 . S
C1611 H1606 0.950 . S
C1611 C1613 1.327 . S
C1611 C1617 1.429 . S
C1612 C1604 1.574 1_455 S
C1612 H1607 0.949 . S
C1612 C1618 1.368 . S
C1613 C1597 1.349 . S
C1613 H1605 0.950 . S
C1613 C1611 1.327 . S
C1614 C1602 1.349 . S
C1614 H1608 0.950 . S
C1614 C1615 1.327 . S
C1615 H1609 0.950 . S
C1615 C1614 1.327 . S
C1615 C1619 1.429 . S
C1616 C1599 1.574 1_655 S
C1616 H1610 0.949 . S
C1616 C1620 1.368 . S
C1617 C1598 1.429 . S
C1617 C1611 1.429 . S
C1617 C1618 1.523 . S
C1618 C1599 1.368 . S
C1618 C1612 1.368 . S
C1618 C1617 1.523 . S
C1619 C1603 1.429 . S
C1619 C1615 1.429 . S
C1619 C1620 1.523 . S
C1620 C1604 1.368 . S
C1620 C1616 1.368 . S
C1620 C1619 1.523 . S
H1621 C1596 0.950 . S
H1622 C1598 0.950 . S
H1623 C1599 0.949 . S
H1624 C1601 0.950 . S
H1625 C1603 0.950 . S
C1626 C1627 1.349 . S
C1626 C1628 1.327 . S
C1626 H1651 0.950 . S
C1627 C1626 1.349 . S
C1627 C1643 1.349 . S
C1628 C1626 1.327 . S
C1628 C1647 1.429 . S
C1628 H1652 0.950 . S
C1629 C1646 1.574 . S
C1629 C1648 1.368 . S
C1629 H1653 0.949 . S
H1630 C1634 0.949 . S
C1631 C1632 1.349 . S
C1631 C1633 1.327 . S
C1631 H1654 0.950 . S
C1632 C1631 1.349 . S
C1632 C1644 1.349 . S
C1633 C1631 1.327 . S
C1633 C1649 1.429 . S
C1633 H1655 0.950 . S
C1634 H1630 0.949 . S
C1634 C1642 1.574 . S
C1634 C1650 1.368 . S
H1635 C1643 0.950 . S
H1636 C1641 0.950 . S
H1637 C1642 0.949 . S
H1638 C1644 0.950 . S
H1639 C1645 0.950 . S
H1640 C1646 0.949 . S
C1641 H1636 0.950 . S
C1641 C1643 1.327 . S
C1641 C1647 1.429 . S
C1642 C1634 1.574 . S
C1642 H1637 0.949 . S
C1642 C1648 1.368 . S
C1643 C1627 1.349 . S
C1643 H1635 0.950 . S
C1643 C1641 1.327 . S
C1644 C1632 1.349 . S
C1644 H1638 0.950 . S
C1644 C1645 1.327 . S
C1645 H1639 0.950 . S
C1645 C1644 1.327 . S
C1645 C1649 1.429 . S
C1646 C1629 1.574 . S
C1646 H1640 0.949 . S
C1646 C1650 1.368 . S
C1647 C1628 1.429 . S
C1647 C1641 1.429 . S
C1647 C1648 1.523 . S
C1648 C1629 1.368 . S
C1648 C1642 1.368 . S
C1648 C1647 1.523 . S
C1649 C1633 1.429 . S
C1649 C1645 1.429 . S
C1649 C1650 1.523 . S
C1650 C1634 1.368 . S
C1650 C1646 1.368 . S
C1650 C1649 1.523 . S
H1651 C1626 0.950 . S
H1652 C1628 0.950 . S
H1653 C1629 0.949 . S
H1654 C1631 0.950 . S
H1655 C1633 0.950 . S
C1656 C1657 1.349 . S
C1656 C1658 1.327 . S
C1656 H1681 0.950 . S
C1657 C1656 1.349 . S
C1657 C1673 1.349 . S
C1658 C1656 1.327 . S
C1658 C1677 1.429 . S
C1658 H1682 0.950 . S
C1659 C1676 1.574 . S
C1659 C1678 1.368 . S
C1659 H1683 0.949 . S
H1660 C1664 0.949 . S
C1661 C1662 1.349 . S
C1661 C1663 1.327 . S
C1661 H1684 0.950 . S
C1662 C1661 1.349 . S
C1662 C1674 1.349 . S
C1663 C1661 1.327 . S
C1663 C1679 1.429 . S
C1663 H1685 0.950 . S
C1664 H1660 0.949 . S
C1664 C1672 1.574 . S
C1664 C1680 1.368 . S
H1665 C1673 0.950 . S
H1666 C1671 0.950 . S
H1667 C1672 0.949 . S
H1668 C1674 0.950 . S
H1669 C1675 0.950 . S
H1670 C1676 0.949 . S
C1671 H1666 0.950 . S
C1671 C1673 1.327 . S
C1671 C1677 1.429 . S
C1672 C1664 1.574 . S
C1672 H1667 0.949 . S
C1672 C1678 1.368 . S
C1673 C1657 1.349 . S
C1673 H1665 0.950 . S
C1673 C1671 1.327 . S
C1674 C1662 1.349 . S
C1674 H1668 0.950 . S
C1674 C1675 1.327 . S
C1675 H1669 0.950 . S
C1675 C1674 1.327 . S
C1675 C1679 1.429 . S
C1676 C1659 1.574 . S
C1676 H1670 0.949 . S
C1676 C1680 1.368 . S
C1677 C1658 1.429 . S
C1677 C1671 1.429 . S
C1677 C1678 1.523 . S
C1678 C1659 1.368 . S
C1678 C1672 1.368 . S
C1678 C1677 1.523 . S
C1679 C1663 1.429 . S
C1679 C1675 1.429 . S
C1679 C1680 1.523 . S
C1680 C1664 1.368 . S
C1680 C1676 1.368 . S
C1680 C1679 1.523 . S
H1681 C1656 0.950 . S
H1682 C1658 0.950 . S
H1683 C1659 0.949 . S
H1684 C1661 0.950 . S
H1685 C1663 0.950 . S
C1686 C1687 1.349 . S
C1686 C1688 1.327 . S
C1686 H1711 0.950 . S
C1687 C1686 1.349 . S
C1687 C1703 1.349 . S
C1688 C1686 1.327 . S
C1688 C1707 1.429 . S
C1688 H1712 0.950 . S
C1689 C1706 1.574 1_565 S
C1689 C1708 1.368 . S
C1689 H1713 0.949 . S
H1690 C1694 0.962 . S
C1691 C1692 1.349 . S
C1691 C1693 1.327 . S
C1691 H1714 0.950 . S
C1692 C1691 1.349 . S
C1692 C1704 1.349 . S
C1693 C1691 1.327 . S
C1693 C1709 1.429 . S
C1693 H1715 0.950 . S
C1694 H1690 0.962 . S
C1694 C1702 1.530 1_545 S
C1694 C1710 1.400 . S
H1695 C1703 0.950 . S
H1696 C1701 0.950 . S
H1697 C1702 0.949 . S
H1698 C1704 0.950 . S
H1699 C1705 0.950 . S
H1700 C1706 0.949 . S
C1701 H1696 0.950 . S
C1701 C1703 1.327 . S
C1701 C1707 1.429 . S
C1702 C1694 1.530 1_565 S
C1702 H1697 0.949 . S
C1702 C1708 1.368 . S
C1703 C1687 1.349 . S
C1703 H1695 0.950 . S
C1703 C1701 1.327 . S
C1704 C1692 1.349 . S
C1704 H1698 0.950 . S
C1704 C1705 1.327 . S
C1705 H1699 0.950 . S
C1705 C1704 1.327 . S
C1705 C1709 1.429 . S
C1706 C1689 1.574 1_545 S
C1706 H1700 0.949 . S
C1706 C1710 1.368 . S
C1707 C1688 1.429 . S
C1707 C1701 1.429 . S
C1707 C1708 1.523 . S
C1708 C1689 1.368 . S
C1708 C1702 1.368 . S
C1708 C1707 1.523 . S
C1709 C1693 1.429 . S
C1709 C1705 1.429 . S
C1709 C1710 1.523 . S
C1710 C1694 1.400 . S
C1710 C1706 1.368 . S
C1710 C1709 1.523 . S
H1711 C1686 0.950 . S
H1712 C1688 0.950 . S
H1713 C1689 0.949 . S
H1714 C1691 0.950 . S
H1715 C1693 0.950 . S
C1716 C1717 1.349 . S
C1716 C1718 1.327 . S
C1716 H1741 0.950 . S
C1717 C1716 1.349 . S
C1717 C1733 1.349 . S
C1718 C1716 1.327 . S
C1718 C1737 1.429 . S
C1718 H1742 0.950 . S
C1719 C1736 1.574 1_565 S
C1719 C1738 1.368 . S
C1719 H1743 0.949 . S
H1720 C1724 0.949 . S
C1721 C1722 1.349 . S
C1721 C1723 1.327 . S
C1721 H1744 0.950 . S
C1722 C1721 1.349 . S
C1722 C1734 1.349 . S
C1723 C1721 1.327 . S
C1723 C1739 1.429 . S
C1723 H1745 0.950 . S
C1724 H1720 0.949 . S
C1724 C1732 1.574 1_545 S
C1724 C1740 1.368 . S
H1725 C1733 0.950 . S
H1726 C1731 0.950 . S
H1727 C1732 0.949 . S
H1728 C1734 0.950 . S
H1729 C1735 0.950 . S
H1730 C1736 0.949 . S
C1731 H1726 0.950 . S
C1731 C1733 1.327 . S
C1731 C1737 1.429 . S
C1732 C1724 1.574 1_565 S
C1732 H1727 0.949 . S
C1732 C1738 1.368 . S
C1733 C1717 1.349 . S
C1733 H1725 0.950 . S
C1733 C1731 1.327 . S
C1734 C1722 1.349 . S
C1734 H1728 0.950 . S
C1734 C1735 1.327 . S
C1735 H1729 0.950 . S
C1735 C1734 1.327 . S
C1735 C1739 1.429 . S
C1736 C1719 1.574 1_545 S
C1736 H1730 0.949 . S
C1736 C1740 1.368 . S
C1737 C1718 1.429 . S
C1737 C1731 1.429 . S
C1737 C1738 1.523 . S
C1738 C1719 1.368 . S
C1738 C1732 1.368 . S
C1738 C1737 1.523 . S
C1739 C1723 1.429 . S
C1739 C1735 1.429 . S
C1739 C1740 1.523 . S
C1740 C1724 1.368 . S
C1740 C1736 1.368 . S
C1740 C1739 1.523 . S
H1741 C1716 0.950 . S
H1742 C1718 0.950 . S
H1743 C1719 0.949 . S
H1744 C1721 0.950 . S
H1745 C1723 0.950 . S
C1746 C1747 1.349 . S
C1746 C1748 1.327 . S
C1746 H1771 0.950 . S
C1747 C1746 1.349 . S
C1747 C1763 1.349 . S
C1748 C1746 1.327 . S
C1748 C1767 1.429 . S
C1748 H1772 0.950 . S
C1749 C1766 1.574 . S
C1749 C1768 1.368 . S
C1749 H1773 0.949 . S
H1750 C1754 0.949 . S
C1751 C1752 1.349 . S
C1751 C1753 1.327 . S
C1751 H1774 0.950 . S
C1752 C1751 1.349 . S
C1752 C1764 1.349 . S
C1753 C1751 1.327 . S
C1753 C1769 1.429 . S
C1753 H1775 0.950 . S
C1754 H1750 0.949 . S
C1754 C1762 1.574 . S
C1754 C1770 1.368 . S
H1755 C1763 0.950 . S
H1756 C1761 0.950 . S
H1757 C1762 0.949 . S
H1758 C1764 0.950 . S
H1759 C1765 0.950 . S
H1760 C1766 0.949 . S
C1761 H1756 0.950 . S
C1761 C1763 1.327 . S
C1761 C1767 1.429 . S
C1762 C1754 1.574 . S
C1762 H1757 0.949 . S
C1762 C1768 1.368 . S
C1763 C1747 1.349 . S
C1763 H1755 0.950 . S
C1763 C1761 1.327 . S
C1764 C1752 1.349 . S
C1764 H1758 0.950 . S
C1764 C1765 1.327 . S
C1765 H1759 0.950 . S
C1765 C1764 1.327 . S
C1765 C1769 1.429 . S
C1766 C1749 1.574 . S
C1766 H1760 0.949 . S
C1766 C1770 1.368 . S
C1767 C1748 1.429 . S
C1767 C1761 1.429 . S
C1767 C1768 1.523 . S
C1768 C1749 1.368 . S
C1768 C1762 1.368 . S
C1768 C1767 1.523 . S
C1769 C1753 1.429 . S
C1769 C1765 1.429 . S
C1769 C1770 1.523 . S
C1770 C1754 1.368 . S
C1770 C1766 1.368 . S
C1770 C1769 1.523 . S
H1771 C1746 0.950 . S
H1772 C1748 0.950 . S
H1773 C1749 0.949 . S
H1774 C1751 0.950 . S
H1775 C1753 0.950 . S
C337 C121 1.151 . S
C342 C8 1.120 . S
C367 C22 1.120 . S
C372 C163 1.151 . S
C397 C36 1.120 . S
C402 C135 1.151 . S
C427 C50 1.120 . S
C432 C149 1.151 . S
C457 C64 1.120 . S
C462 C9 1.151 . S
C487 C23 1.151 . S
C492 C78 1.120 . S
C517 C92 1.120 . S
C522 C37 1.151 . S
C547 C51 1.151 . S
C552 C106 1.120 . S
C577 C65 1.151 . S
C582 C120 1.120 . S
C607 C93 1.151 . S
C612 C134 1.120 . S
C637 C148 1.120 . S
C642 C107 1.151 . S
C667 C79 1.151 . S
C672 C162 1.120 . S
C697 C289 1.151 . S
C702 C176 1.120 . S
C727 C190 1.120 . S
C732 C331 1.151 . S
C757 C204 1.120 . S
C762 C303 1.151 . S
C787 C317 1.151 . S
C792 C218 1.120 . S
C817 C232 1.120 . S
C822 C177 1.151 . S
C847 C191 1.151 . S
C852 C246 1.120 . S
C877 C205 1.151 . S
C882 C260 1.120 . S
C907 C274 1.120 . S
C912 C219 1.151 . S
C937 C288 1.120 . S
C942 C233 1.151 . S
C967 C261 1.151 . S
C972 C302 1.120 . S
C997 C275 1.151 . S
C1002 C316 1.120 . S
C1027 C330 1.120 . S
C1032 C247 1.151 . S
C1057 C314 1.512 . S
C1062 C7 1.552 . S
C1087 C300 1.512 . S
C1092 C21 1.552 . S
C1117 C328 1.512 . S
C1122 C35 1.552 . S
C1147 C49 1.552 . S
C1152 C286 1.512 . S
C1177 C63 1.552 . S
C1182 C188 1.512 . S
C1207 C174 1.512 . S
C1212 C77 1.552 . S
C1237 C216 1.512 . S
C1242 C91 1.552 . S
C1267 C202 1.512 . S
C1272 C105 1.552 . S
C1297 C119 1.552 . S
C1302 C258 1.512 . S
C1327 C230 1.512 . S
C1332 C133 1.552 . S
C1357 C244 1.512 . S
C1362 C147 1.552 . S
C1387 C272 1.512 . S
C1392 C161 1.552 . S
C1417 C146 1.512 . S
C1422 C175 1.552 . S
C1447 C132 1.512 . S
C1452 C189 1.552 . S
C1477 C203 1.552 . S
C1482 C160 1.512 . S
C1507 C118 1.512 . S
C1512 C217 1.552 . S
C1537 C231 1.552 . S
C1542 C20 1.512 . S
C1567 C245 1.552 . S
C1572 C6 1.512 . S
C1597 C259 1.552 . S
C1602 C48 1.512 . S
C1627 C273 1.552 . S
C1632 C34 1.512 . S
C1657 C287 1.552 . S
C1662 C90 1.512 . S
C1687 C301 1.552 . S
C1692 C62 1.512 . S
C1717 C76 1.512 . S
C1722 C315 1.552 . S
C1747 C329 1.552 . S
C1752 C104 1.512 . S
