# Generated by pormake.
# Topology bto, (3)-cn, num edge types: 1
# Building blocks:
#     Node 0, Type 0, BuildingBlock: WUSLED_clean_sbu_0, # of connection points: 3
#     Node 1, Type 0, BuildingBlock: WUSLED_clean_sbu_0, # of connection points: 3
#     Node 2, Type 0, BuildingBlock: WUSLED_clean_sbu_0, # of connection points: 3
#     Node 3, Type 0, BuildingBlock: WUSLED_clean_sbu_0, # of connection points: 3
#     Node 4, Type 0, BuildingBlock: WUSLED_clean_sbu_0, # of connection points: 3
#     Node 5, Type 0, BuildingBlock: WUSLED_clean_sbu_0, # of connection points: 3
#     Edge 6, Type (0, 0), BuildingBlock: ZUJKAS_clean_linker_0, # of connection points: 2
#     Edge 7, Type (0, 0), BuildingBlock: ZUJKAS_clean_linker_0, # of connection points: 2
#     Edge 8, Type (0, 0), BuildingBlock: ZUJKAS_clean_linker_0, # of connection points: 2
#     Edge 9, Type (0, 0), BuildingBlock: ZUJKAS_clean_linker_0, # of connection points: 2
#     Edge 10, Type (0, 0), BuildingBlock: ZUJKAS_clean_linker_0, # of connection points: 2
#     Edge 11, Type (0, 0), BuildingBlock: ZUJKAS_clean_linker_0, # of connection points: 2
#     Edge 12, Type (0, 0), BuildingBlock: ZUJKAS_clean_linker_0, # of connection points: 2
#     Edge 13, Type (0, 0), BuildingBlock: ZUJKAS_clean_linker_0, # of connection points: 2
#     Edge 14, Type (0, 0), BuildingBlock: ZUJKAS_clean_linker_0, # of connection points: 2
# Relax obj value: 0.000
# Max RMSD: 0.004
# Mean RMSD: 0.004
data_MOF--net-bto--node1-WUSLED_clean_sbu_0--edge1-ZUJKAS_clean_linker_0
_symmetry_space_group_name_H-M    P1
_symmetry_Int_Tables_number       1
_symmetry_cell_setting            triclinic
loop_
_symmetry_equiv_pos_as_xyz
'x, y, z'
_cell_length_a     48.510832
_cell_length_b     48.592549
_cell_length_c     121.33036
_cell_angle_alpha  89.205002
_cell_angle_beta   90.432695
_cell_angle_gamma 119.93724
loop_
_atom_site_label
_atom_site_type_symbol
_atom_site_fract_x
_atom_site_fract_y
_atom_site_fract_z
_atom_type_partial_charge
C0 C 0.98798 0.5281 0.04889 0.0
C1 C 0.96062 0.5159 0.05549 0.0
C2 C 0.93265 0.52763 0.04096 0.0
C3 C 0.93318 0.51559 0.05155 0.0
C4 C 0.96031 0.54005 0.03445 0.0
C5 C 0.9876 0.54024 0.03837 0.0
U6 U 0.04404 0.5264 0.07134 0.0
O7 O 0.07092 0.50094 0.07158 0.0
O8 O 0.09652 0.55303 0.07195 0.0
C9 C 0.0987 0.52721 0.07124 0.0
C10 C 1.017 0.528 0.05264 0.0
C11 C 0.12246 0.52839 0.06335 0.0
C12 C 0.13686 0.50915 0.04715 0.0
C13 C 0.11359 0.50911 0.05397 0.0
C14 C 0.17813 0.54826 0.05881 0.0
C15 C 0.16946 0.52857 0.04953 0.0
C16 C 0.15491 0.5481 0.06563 0.0
C17 C 0.02165 0.52301 0.10213 0.0
C18 C 0.05616 0.53853 0.11828 0.0
C19 C 0.99911 0.50621 0.1205 0.0
C20 C 0.99522 0.5066 0.10907 0.0
C21 C 0.02961 0.52233 0.12528 0.0
C22 C 0.05223 0.5388 0.10681 0.0
C23 C 1.01633 0.52416 0.09015 0.0
O24 O 0.03828 0.55365 0.05772 0.0
O25 O 1.01279 0.5016 0.0573 0.0
O26 O 1.01011 0.49871 0.08457 0.0
O27 O 0.03564 0.55079 0.08493 0.0
H28 H 0.96044 0.50654 0.06366 0.0
H29 H 0.91248 0.50618 0.05684 0.0
H30 H 0.96071 0.5491 0.02621 0.0
H31 H 1.00843 0.54968 0.03313 0.0
H32 H 0.1293 0.49399 0.04 0.0
H33 H 0.08872 0.49372 0.05198 0.0
H34 H 0.20292 0.56321 0.061 0.0
H35 H 0.16235 0.56301 0.07285 0.0
H36 H 0.08 0.55089 0.12166 0.0
H37 H 0.9781 0.49386 0.12561 0.0
H38 H 0.97141 0.4944 0.10565 0.0
H39 H 0.07303 0.55154 0.10162 0.0
C40 C 0.59931 0.08745 0.38214 0.0
C41 C 0.62721 0.10248 0.3885 0.0
C42 C 0.65398 0.1424 0.37397 0.0
C43 C 0.65427 0.12966 0.38445 0.0
C44 C 0.62569 0.1275 0.36775 0.0
C45 C 0.59875 0.10035 0.37179 0.0
U46 U 0.54303 0.02973 0.40453 0.0
O47 O 0.49075 1.00168 0.40464 0.0
O48 O 0.51859 0.97735 0.40516 0.0
C49 C 0.49018 0.97435 0.40437 0.0
C50 C 0.57086 0.05789 0.38589 0.0
C51 C 0.46785 0.95049 0.39647 0.0
C52 C 0.43405 0.93568 0.38013 0.0
C53 C 0.45706 0.9591 0.38696 0.0
C54 C 0.43284 0.89478 0.39207 0.0
C55 C 0.42144 0.90318 0.38265 0.0
C56 C 0.4557 0.91815 0.39889 0.0
C57 C 0.5619 0.05152 0.43535 0.0
C58 C 0.54321 0.01647 0.45146 0.0
C59 C 0.56753 0.07332 0.4537 0.0
C60 C 0.57173 0.07763 0.44229 0.0
C61 C 0.55341 0.04271 0.45847 0.0
C62 C 0.54734 0.02082 0.44001 0.0
C63 C 0.56818 0.05727 0.42339 0.0
O64 O 0.57603 0.03687 0.39102 0.0
O65 O 0.54822 0.0612 0.39046 0.0
O66 O 0.5483 0.06287 0.4177 0.0
O67 O 0.57626 0.03868 0.41826 0.0
H68 H 0.6282 0.09298 0.39653 0.0
H69 H 0.67564 0.14026 0.38944 0.0
H70 H 0.62426 0.13688 0.35975 0.0
H71 H 0.57744 0.08924 0.36677 0.0
H72 H 0.42615 0.94305 0.37288 0.0
H73 H 0.46608 0.98388 0.38487 0.0
H74 H 0.42346 0.87008 0.39436 0.0
H75 H 0.46347 0.9109 0.40621 0.0
H76 H 0.53191 0.99255 0.45483 0.0
H77 H 0.57607 0.09411 0.45882 0.0
H78 H 0.58313 0.10152 0.43887 0.0
H79 H 0.53941 1.00026 0.43481 0.0
C80 C 0.53958 0.58034 0.71492 0.0
C81 C 0.54709 0.60598 0.72189 0.0
C82 C 0.53951 0.63519 0.7067 0.0
C83 C 0.54706 0.63315 0.71782 0.0
C84 C 0.5316 0.60914 0.69983 0.0
C85 C 0.53168 0.58209 0.7039 0.0
U86 U 0.54043 0.52471 0.73777 0.0
O87 O 0.51591 0.47251 0.73838 0.0
O88 O 0.56808 0.49991 0.73867 0.0
C89 C 0.54257 0.47164 0.73812 0.0
C90 C 0.54036 0.55183 0.71885 0.0
C91 C 0.54395 0.44906 0.73037 0.0
C92 C 0.5261 0.41648 0.7139 0.0
C93 C 0.5257 0.43948 0.72066 0.0
C94 C 0.56348 0.41286 0.7263 0.0
C95 C 0.54486 0.40271 0.71667 0.0
C96 C 0.56296 0.43569 0.73307 0.0
C97 C 0.538 0.54543 0.76834 0.0
C98 C 0.55005 0.52287 0.78447 0.0
C99 C 0.52676 0.55639 0.78676 0.0
C100 C 0.52638 0.56007 0.77532 0.0
C101 C 0.53888 0.538 0.79152 0.0
C102 C 0.54962 0.52656 0.77298 0.0
C103 C 0.53839 0.55103 0.75634 0.0
O104 O 0.56646 0.55694 0.72396 0.0
O105 O 0.51434 0.52966 0.72363 0.0
O106 O 0.51283 0.53096 0.75087 0.0
O107 O 0.56497 0.55847 0.75116 0.0
H108 H 0.55326 0.60511 0.73044 0.0
H109 H 0.55356 0.65279 0.72334 0.0
H110 H 0.52509 0.60951 0.6913 0.0
H111 H 0.52567 0.5625 0.6984 0.0
H112 H 0.51177 0.40954 0.70648 0.0
H113 H 0.5109 0.44951 0.71836 0.0
H114 H 0.5779 0.40255 0.72879 0.0
H115 H 0.57709 0.44256 0.74054 0.0
H116 H 0.55978 0.50874 0.78782 0.0
H117 H 0.51739 0.56789 0.79188 0.0
H118 H 0.51718 0.57461 0.7719 0.0
H119 H 0.55868 0.51501 0.76774 0.0
C120 C 0.54445 0.97089 0.65417 0.0
C121 C 0.5365 0.94537 0.64709 0.0
C122 C 0.54325 0.91521 0.66215 0.0
C123 C 0.53591 0.91778 0.65104 0.0
C124 C 0.55152 0.94111 0.66913 0.0
C125 C 0.55207 0.96857 0.66518 0.0
U126 U 0.54529 0.02835 0.63165 0.0
O127 O 0.52003 0.05545 0.63119 0.0
O128 O 0.57222 0.08074 0.6313 0.0
C129 C 0.5464 0.08306 0.63181 0.0
C130 C 0.54471 1.00002 0.65037 0.0
C131 C 0.54702 0.10637 0.63973 0.0
C132 C 0.5239 0.12082 0.65482 0.0
C133 C 0.52397 0.09767 0.64805 0.0
C134 C 0.57024 0.16159 0.64527 0.0
C135 C 0.54691 0.15314 0.65347 0.0
C136 C 0.57021 0.13852 0.63848 0.0
C137 C 0.54641 1.00885 0.60077 0.0
C138 C 0.52397 0.01851 0.58409 0.0
C139 C 0.56913 1.01038 0.58277 0.0
C140 C 0.56908 1.00684 0.59424 0.0
C141 C 0.54632 0.01585 0.5775 0.0
C142 C 0.524 0.01505 0.59559 0.0
C143 C 0.54564 1.00245 0.61279 0.0
O144 O 0.57096 0.02161 0.64554 0.0
O145 O 0.51881 0.99602 0.6454 0.0
O146 O 0.51944 0.99567 0.61812 0.0
O147 O 0.57164 0.02109 0.61833 0.0
H148 H 0.53056 0.9467 0.63855 0.0
H149 H 0.52916 0.89827 0.64544 0.0
H150 H 0.5579 0.94033 0.67765 0.0
H151 H 0.55844 0.98807 0.67076 0.0
H152 H 0.50581 0.11339 0.66113 0.0
H153 H 0.50577 0.07308 0.64924 0.0
H154 H 0.58806 0.18623 0.64387 0.0
H155 H 0.58805 0.14591 0.63208 0.0
H156 H 0.50586 0.02241 0.58034 0.0
H157 H 0.5871 1.00878 0.57804 0.0
H158 H 0.5866 1.00205 0.59802 0.0
H159 H 0.50613 0.01667 0.60039 0.0
C160 C 0.59677 0.51798 0.98679 0.0
C161 C 0.62408 0.52995 0.98017 0.0
C162 C 0.65204 0.51833 0.99473 0.0
C163 C 0.65149 0.53022 0.98412 0.0
C164 C 0.62444 0.50612 1.00126 0.0
C165 C 0.59717 0.50598 0.99733 0.0
U166 U 0.54005 0.51817 0.96431 0.0
O167 O 0.48758 0.49164 0.96393 0.0
O168 O 0.51329 0.54376 0.96375 0.0
C169 C 0.48549 0.51755 0.96434 0.0
C170 C 0.56777 0.51809 0.98303 0.0
C171 C 0.46196 0.51704 0.97218 0.0
C172 C 0.44798 0.53701 0.98828 0.0
C173 C 0.47107 0.53669 0.98146 0.0
C174 C 0.40641 0.49761 0.97678 0.0
C175 C 0.41531 0.51761 0.98598 0.0
C176 C 0.42945 0.4974 0.96997 0.0
C177 C 0.56055 0.51761 0.93354 0.0
C178 C 0.54045 0.53283 0.9175 0.0
C179 C 0.56787 0.50318 0.91511 0.0
C180 C 0.57199 0.50288 0.92653 0.0
C181 C 0.55224 0.51835 0.91042 0.0
C182 C 0.54448 0.53239 0.92896 0.0
C183 C 0.56666 0.51797 0.94551 0.0
O184 O 0.57204 0.54414 0.97805 0.0
O185 O 0.54605 0.49205 0.97826 0.0
O186 O 0.54751 0.49196 0.95105 0.0
O187 O 0.5733 0.54406 0.95076 0.0
H188 H 0.62425 0.53918 0.97198 0.0
H189 H 0.67215 0.53946 0.97881 0.0
H190 H 0.62406 0.49717 1.00952 0.0
H191 H 0.57639 0.4967 1.00259 0.0
H192 H 0.45571 0.55242 0.99536 0.0
H193 H 0.49599 0.55203 0.98339 0.0
H194 H 0.38157 0.48267 0.97465 0.0
H195 H 0.42183 0.4822 0.96282 0.0
H196 H 0.52797 0.5444 0.91419 0.0
H197 H 0.57764 0.49216 0.90993 0.0
H198 H 0.58455 0.49143 0.92988 0.0
H199 H 0.53528 0.5438 0.93421 0.0
C200 C 0.98826 0.47145 0.32082 0.0
C201 C 0.9603 0.45631 0.3145 0.0
C202 C 0.93362 0.41675 0.32914 0.0
C203 C 0.93325 0.42926 0.31862 0.0
C204 C 0.96197 0.43179 0.33533 0.0
C205 C 0.9889 0.45882 0.33121 0.0
U206 U 0.04313 0.52871 0.29812 0.0
O207 O 0.06786 0.58107 0.29744 0.0
O208 O 0.09541 0.55644 0.29749 0.0
C209 C 0.09623 0.58387 0.29789 0.0
C210 C 1.01671 0.50083 0.31695 0.0
C211 C 0.11922 0.60771 0.30565 0.0
C212 C 0.15345 0.62242 0.32187 0.0
C213 C 0.13011 0.59904 0.31512 0.0
C214 C 0.15482 0.66339 0.30993 0.0
C215 C 0.16627 0.65493 0.31933 0.0
C216 C 0.13165 0.64006 0.30319 0.0
C217 C 1.02057 0.50652 0.26748 0.0
C218 C 0.05449 0.52964 0.25136 0.0
C219 C 0.998 0.49379 0.24903 0.0
C220 C 0.99429 0.49054 0.26048 0.0
C221 C 0.02819 0.5131 0.24429 0.0
C222 C 0.05071 0.52637 0.26285 0.0
C223 C 1.01578 0.50112 0.27949 0.0
O224 O 0.03872 0.49714 0.31207 0.0
O225 O 1.01153 0.52211 0.31204 0.0
O226 O 1.00861 0.5201 0.28481 0.0
O227 O 0.03617 0.49548 0.28483 0.0
H228 H 0.95925 0.46562 0.30643 0.0
H229 H 0.91184 0.41856 0.31365 0.0
H230 H 0.96345 0.4226 0.34335 0.0
H231 H 1.01026 0.47003 0.33621 0.0
H232 H 0.16139 0.61502 0.32911 0.0
H233 H 0.12086 0.57424 0.31725 0.0
H234 H 0.16437 0.68809 0.30761 0.0
H235 H 0.12378 0.64734 0.29589 0.0
H236 H 0.0781 0.54455 0.24801 0.0
H237 H 0.97711 0.48119 0.24389 0.0
H238 H 0.9708 0.47522 0.26388 0.0
H239 H 0.07134 0.53896 0.26811 0.0
H240 H 0.9979 0.473 0.13996 0.0
H241 H 1.00183 0.4742 0.16008 0.0
H242 H 0.07422 0.57302 0.15852 0.0
H243 H 0.06989 0.57226 0.13838 0.0
H244 H 0.05477 0.48976 0.17386 0.0
H245 H 1.00819 0.57239 0.17976 0.0
H246 H 1.00408 0.55241 0.16691 0.0
H247 H 0.04148 0.58631 0.17056 0.0
C248 C 1.01452 0.49508 0.14388 0.0
C249 C 0.03338 0.52261 0.13752 0.0
C250 C 1.01688 0.49567 0.1554 0.0
C251 C 0.03796 0.52381 0.16084 0.0
C252 C 0.05738 0.55116 0.15452 0.0
H253 H 0.06607 0.56593 0.23152 0.0
H254 H 0.07122 0.56938 0.21139 0.0
C255 C 0.05512 0.55058 0.14299 0.0
C256 C 0.03943 0.52435 0.1731 0.0
H257 H 0.02498 0.55651 0.19571 0.0
C258 C 0.04831 0.50439 0.17864 0.0
C259 C 0.03114 0.54357 0.17935 0.0
C260 C 1.02043 0.56473 0.17388 0.0
C261 C 0.04914 0.50311 0.19022 0.0
C262 C 0.04017 0.5218 0.19647 0.0
C263 C 0.03186 0.5422 0.19093 0.0
C264 C 0.03799 0.51956 0.20874 0.0
C265 C 0.05998 0.482 0.19565 0.0
C266 C 1.01745 0.49049 0.21397 0.0
C267 C 1.01461 0.48841 0.22546 0.0
C268 C 0.03202 0.51543 0.23203 0.0
C269 C 0.0526 0.54456 0.22676 0.0
C270 C 0.05542 0.54662 0.21524 0.0
H271 H 0.07502 0.47721 0.19002 0.0
H272 H 0.07365 0.4928 0.20329 0.0
H273 H 0.03884 0.45888 0.19785 0.0
H274 H 1.00325 0.46939 0.20916 0.0
H275 H 0.9988 0.4655 0.2292 0.0
H276 H 0.53394 0.05581 0.56476 0.0
H277 H 0.53243 0.05889 0.54462 0.0
H278 H 0.5567 0.98508 0.54221 0.0
H279 H 0.55702 0.98094 0.56227 0.0
H280 H 0.58017 0.07361 0.5296 0.0
H281 H 0.48008 0.95221 0.52199 0.0
H282 H 0.48893 0.96968 0.5355 0.0
H283 H 0.51151 0.95278 0.53005 0.0
C284 C 0.53849 0.03988 0.55996 0.0
C285 C 0.54553 0.01806 0.5652 0.0
C286 C 0.53783 0.04183 0.54843 0.0
C287 C 0.54395 0.02188 0.54187 0.0
C288 C 0.55123 1.00028 0.54706 0.0
H289 H 0.56333 1.00196 0.47163 0.0
H290 H 0.56038 0.99707 0.49176 0.0
C291 C 0.55185 0.99827 0.55857 0.0
C292 C 0.54375 0.02433 0.52961 0.0
H293 H 0.51007 0.98149 0.50629 0.0
C294 C 0.56467 0.05352 0.52451 0.0
C295 C 0.52359 0.99811 0.52294 0.0
C296 C 0.49953 0.9665 0.52789 0.0
C297 C 0.56651 0.05703 0.51296 0.0
C298 C 0.54648 0.03075 0.50629 0.0
C299 C 0.52546 1.0016 0.51139 0.0
C300 C 0.54713 0.03304 0.49403 0.0
C301 C 0.59053 0.08863 0.508 0.0
C302 C 0.53994 0.05435 0.48855 0.0
C303 C 0.54151 0.05712 0.47704 0.0
C304 C 0.55008 0.03848 0.47071 0.0
C305 C 0.55639 0.01651 0.47621 0.0
C306 C 0.55487 0.01379 0.48774 0.0
H307 H 0.60943 0.10346 0.514 0.0
H308 H 0.60191 0.08537 0.50061 0.0
H309 H 0.5783 0.10183 0.50544 0.0
H310 H 0.5331 0.06887 0.49319 0.0
H311 H 0.53586 0.07383 0.47309 0.0
H312 H 0.53756 0.47091 0.89553 0.0
H313 H 0.53521 0.4739 0.87541 0.0
H314 H 0.55644 0.57104 0.87745 0.0
H315 H 0.55962 0.56854 0.89755 0.0
H316 H 0.49627 0.48809 0.86181 0.0
H317 H 0.62416 0.5764 0.85597 0.0
H318 H 0.60865 0.55471 0.86875 0.0
H319 H 0.60375 0.58818 0.86543 0.0
C320 C 0.54196 0.49301 0.8917 0.0
C321 C 0.54902 0.51957 0.89819 0.0
C322 C 0.54042 0.4946 0.88019 0.0
C323 C 0.54615 0.52283 0.87489 0.0
C324 C 0.55248 0.54916 0.88133 0.0
H325 H 0.55425 0.58426 0.80693 0.0
H326 H 0.55486 0.57935 0.82698 0.0
C327 C 0.55393 0.54757 0.89285 0.0
C328 C 0.54544 0.52468 0.86264 0.0
H329 H 0.59118 0.56362 0.84018 0.0
C330 C 0.51704 0.5045 0.85707 0.0
C331 C 0.57257 0.54608 0.85645 0.0
C332 C 0.60412 0.56741 0.86192 0.0
C333 C 0.51482 0.50565 0.84551 0.0
C334 C 0.54195 0.52712 0.83932 0.0
C335 C 0.57039 0.54718 0.8449 0.0
C336 C 0.54124 0.52964 0.82707 0.0
C337 C 0.48319 0.48448 0.84007 0.0
C338 C 0.53377 0.50343 0.82038 0.0
C339 C 0.53313 0.50608 0.80887 0.0
C340 C 0.5401 0.53507 0.80378 0.0
C341 C 0.54812 0.56139 0.81053 0.0
C342 C 0.54873 0.5587 0.82202 0.0
H343 H 0.46319 0.47582 0.84602 0.0
H344 H 0.47879 0.49714 0.8332 0.0
H345 H 0.48326 0.46346 0.83664 0.0
H346 H 0.52856 0.48091 0.82406 0.0
H347 H 0.52672 0.48528 0.80397 0.0
H348 H 0.16871 0.47668 0.04047 0.0
H349 H 0.21061 0.47528 0.02979 0.0
H350 H 0.26856 0.57702 0.03217 0.0
H351 H 0.22682 0.57865 0.04283 0.0
H352 H 0.23867 0.50389 1.00995 0.0
H353 H 0.32898 0.54753 0.04331 0.0
H354 H 0.28756 0.53429 0.04583 0.0
H355 H 0.31332 0.57332 0.0402 0.0
C356 C 0.19025 0.49882 0.03865 0.0
C357 C 0.1944 0.52777 0.04259 0.0
C358 C 0.21428 0.49795 0.03258 0.0
C359 C 0.24306 0.52595 0.03035 0.0
C360 C 0.24697 0.55497 0.03403 0.0
H361 H 0.41633 0.56977 0.99493 0.0
H362 H 0.3746 0.57149 1.00562 0.0
C363 C 0.223 0.55587 0.04012 0.0
C364 C 0.26878 0.52482 0.02407 0.0
H365 H 0.34654 0.54306 0.02557 0.0
C366 C 0.26221 0.51232 1.01338 0.0
C367 C 0.29956 0.53586 0.02853 0.0
C368 C 0.30779 0.54824 0.04013 0.0
C369 C 0.28564 0.51109 1.00699 0.0
C370 C 0.31642 0.52212 1.01145 0.0
C371 C 0.32301 0.53464 0.02213 0.0
C372 C 0.34207 0.52082 1.00519 0.0
C373 C 0.27741 0.49868 0.99539 0.0
C374 C 0.33807 0.4917 1.00158 0.0
C375 C 0.36193 0.49062 0.9955 0.0
C376 C 0.39053 0.51863 0.99294 0.0
C377 C 0.39479 0.5477 0.99682 0.0
C378 C 0.37086 0.54875 1.00289 0.0
H379 H 0.25624 0.4994 0.99221 0.0
H380 H 0.29765 0.5126 0.9897 0.0
H381 H 0.27187 0.4736 0.99533 0.0
H382 H 0.31646 0.46972 1.0035 0.0
H383 H 0.35803 0.46775 0.99285 0.0
H384 H 0.69806 0.19583 0.38493 0.0
H385 H 0.74523 0.24227 0.37732 0.0
H386 H 0.72301 0.19989 0.34515 0.0
H387 H 0.67614 0.1533 0.35268 0.0
H388 H 0.79799 0.24622 0.36643 0.0
H389 H 0.73363 0.28774 0.33908 0.0
H390 H 0.71407 0.25884 0.34998 0.0
H391 H 0.72293 0.24704 0.33711 0.0
C392 C 0.70327 0.19625 0.37625 0.0
C393 C 0.683 0.17079 0.36942 0.0
C394 C 0.7302 0.22293 0.37189 0.0
C395 C 0.73739 0.22488 0.36062 0.0
C396 C 0.71755 0.19934 0.35382 0.0
H397 H 0.88947 0.36314 0.31829 0.0
H398 H 0.84233 0.31686 0.32598 0.0
C399 C 0.69068 0.17267 0.35816 0.0
C400 C 0.76596 0.2533 0.35599 0.0
H401 H 0.78967 0.31327 0.33687 0.0
C402 C 0.79616 0.26098 0.36001 0.0
C403 C 0.76362 0.27254 0.34758 0.0
C404 C 0.73182 0.26638 0.34324 0.0
C405 C 0.82405 0.28696 0.35573 0.0
C406 C 0.8217 0.30618 0.34731 0.0
C407 C 0.7915 0.29851 0.34329 0.0
C408 C 0.85027 0.33451 0.34264 0.0
C409 C 0.85584 0.29314 0.36007 0.0
C410 C 0.87017 0.36015 0.34939 0.0
C411 C 0.89703 0.38674 0.34501 0.0
C412 C 0.90463 0.38845 0.33374 0.0
C413 C 0.88432 0.36288 0.32697 0.0
C414 C 0.8574 0.33628 0.33137 0.0
H415 H 0.85403 0.27183 0.36427 0.0
H416 H 0.87355 0.30055 0.35332 0.0
H417 H 0.8648 0.31259 0.36616 0.0
H418 H 0.86477 0.35973 0.35806 0.0
H419 H 0.91161 0.40619 0.35045 0.0
H420 H 0.52146 0.88589 0.68226 0.0
H421 H 0.52158 0.83892 0.68966 0.0
H422 H 0.56148 0.82974 0.65924 0.0
H423 H 0.56253 0.87743 0.6519 0.0
H424 H 0.49134 0.7773 0.68215 0.0
H425 H 0.62215 0.82719 0.68208 0.0
H426 H 0.6041 0.85166 0.68029 0.0
H427 H 0.60594 0.82921 0.66894 0.0
C428 C 0.53067 0.87418 0.67717 0.0
C429 C 0.54229 0.88577 0.6665 0.0
C430 C 0.53049 0.84713 0.68139 0.0
C431 C 0.54203 0.83103 0.67509 0.0
C432 C 0.55306 0.8421 0.66436 0.0
H433 H 0.56089 0.66397 0.68649 0.0
H434 H 0.56043 0.71062 0.67894 0.0
C435 C 0.55327 0.86919 0.66012 0.0
C436 C 0.54205 0.80246 0.67973 0.0
H437 H 0.59054 0.77231 0.68632 0.0
C438 C 0.51305 0.77626 0.6831 0.0
C439 C 0.57038 0.80105 0.68098 0.0
C440 C 0.60247 0.82886 0.67798 0.0
C441 C 0.5115 0.74856 0.68749 0.0
C442 C 0.53983 0.74715 0.68874 0.0
C443 C 0.56883 0.77334 0.68537 0.0
C444 C 0.53988 0.71866 0.69344 0.0
C445 C 0.47941 0.72075 0.69049 0.0
C446 C 0.52888 0.70776 0.70419 0.0
C447 C 0.52886 0.68085 0.70852 0.0
C448 C 0.54002 0.66429 0.70222 0.0
C449 C 0.55154 0.67566 0.69152 0.0
C450 C 0.55153 0.70253 0.68721 0.0
H451 H 0.45974 0.72235 0.68635 0.0
H452 H 0.47781 0.69793 0.68823 0.0
H453 H 0.47588 0.72049 0.69952 0.0
H454 H 0.52037 0.72014 0.70926 0.0
H455 H 0.51966 0.67277 0.71676 0.0
H456 H 0.92853 0.57366 0.02888 0.0
H457 H 0.88086 0.57181 0.02121 0.0
H458 H 0.82286 0.47839 0.03536 0.0
H459 H 0.87043 0.48 0.04305 0.0
H460 H 0.83742 0.52961 1.00639 0.0
H461 H 0.77722 0.52443 0.04569 0.0
H462 H 0.81852 0.53497 0.04508 0.0
H463 H 0.7877 0.49402 0.04444 0.0
C464 C 0.90565 0.55266 0.03035 0.0
C465 C 0.9034 0.52699 0.03662 0.0
C466 C 0.87838 0.5517 0.02599 0.0
C467 C 0.84815 0.52516 0.02782 0.0
C468 C 0.84578 0.49946 0.03405 0.0
H469 H 0.65604 0.47232 1.00687 0.0
H470 H 0.70367 0.47407 1.01453 0.0
C471 C 0.87306 0.50042 0.03844 0.0
C472 C 0.81933 0.52403 0.0229 0.0
H473 H 0.74717 0.51614 0.0293 0.0
C474 C 0.81775 0.52681 1.0114 0.0
C475 C 0.79359 0.52031 0.02944 0.0
C476 C 0.79434 0.51855 0.04185 0.0
C477 C 0.79099 0.52542 1.00625 0.0
C478 C 0.76526 0.52172 1.01278 0.0
C479 C 0.76684 0.51892 0.02428 0.0
C480 C 0.73645 0.52063 1.00787 0.0
C481 C 0.79024 0.52715 0.99383 0.0
C482 C 0.73888 0.54631 1.00162 0.0
C483 C 0.71162 0.5454 0.99722 0.0
C484 C 0.68125 0.5189 0.99908 0.0
C485 C 0.67895 0.49326 1.00537 0.0
C486 C 0.7062 0.49416 1.00973 0.0
H487 H 0.80729 0.52117 0.99 0.0
H488 H 0.76604 0.51079 0.99061 0.0
H489 H 0.79698 0.5517 0.99124 0.0
H490 H 0.76183 0.56734 1.00028 0.0
H491 H 0.7143 0.56581 0.99259 0.0
H492 H 0.36973 0.90306 0.37318 0.0
H493 H 0.32676 0.86083 0.36251 0.0
H494 H 0.37211 0.80415 0.3657 0.0
H495 H 0.41519 0.84624 0.37634 0.0
H496 H 0.32772 0.83281 0.34289 0.0
H497 H 0.28259 0.74306 0.37672 0.0
H498 H 0.31023 0.78456 0.37908 0.0
H499 H 0.32411 0.75922 0.37381 0.0
C500 C 0.37076 0.88175 0.37153 0.0
C501 C 0.39591 0.87806 0.3757 0.0
C502 C 0.34604 0.85752 0.36548 0.0
C503 C 0.3458 0.82899 0.36348 0.0
C504 C 0.37126 0.82555 0.36738 0.0
H505 H 0.21794 0.6548 0.32873 0.0
H506 H 0.26114 0.69697 0.33935 0.0
C507 C 0.39594 0.84971 0.37346 0.0
C508 C 0.31912 0.80303 0.35722 0.0
H509 H 0.26049 0.72512 0.35898 0.0
C510 C 0.31293 0.80931 0.34643 0.0
C511 C 0.2998 0.77229 0.36182 0.0
C512 C 0.30425 0.76436 0.37353 0.0
C513 C 0.28843 0.78563 0.34005 0.0
C514 C 0.2691 0.7549 0.34465 0.0
C515 C 0.2753 0.74861 0.35544 0.0
C516 C 0.24231 0.72899 0.3384 0.0
C517 C 0.28399 0.79357 0.32834 0.0
C518 C 0.2169 0.73257 0.33453 0.0
C519 C 0.19211 0.70845 0.32848 0.0
C520 C 0.19196 0.68002 0.32623 0.0
C521 C 0.21706 0.67619 0.33037 0.0
C522 C 0.2419 0.70038 0.3364 0.0
H523 H 0.30568 0.8148 0.32513 0.0
H524 H 0.2779 0.77333 0.32279 0.0
H525 H 0.2642 0.79883 0.32806 0.0
H526 H 0.21618 0.75402 0.33621 0.0
H527 H 0.17291 0.71202 0.32562 0.0
H528 H 0.49496 0.15745 0.65982 0.0
H529 H 0.49423 0.19971 0.67035 0.0
H530 H 0.59639 0.24756 0.67324 0.0
H531 H 0.59733 0.20549 0.66271 0.0
H532 H 0.5145 0.22141 0.69129 0.0
H533 H 0.5828 0.31785 0.66091 0.0
H534 H 0.56655 0.27645 0.65769 0.0
H535 H 0.60312 0.29726 0.66532 0.0
C536 C 0.51727 0.17683 0.66277 0.0
C537 C 0.54624 0.17812 0.66033 0.0
C538 C 0.51683 0.20108 0.66875 0.0
C539 C 0.5453 0.22723 0.67241 0.0
C540 C 0.57416 0.22815 0.67025 0.0
H541 H 0.59542 0.39537 0.71088 0.0
H542 H 0.59457 0.3525 0.70025 0.0
C543 C 0.57465 0.20399 0.66424 0.0
C544 C 0.54478 0.25331 0.67858 0.0
H545 H 0.57373 0.33355 0.67837 0.0
C546 C 0.52728 0.24589 0.68842 0.0
C547 C 0.56143 0.28532 0.67485 0.0
C548 C 0.57929 0.29474 0.66406 0.0
C549 C 0.5266 0.26962 0.69475 0.0
C550 C 0.5435 0.30163 0.69107 0.0
C551 C 0.56085 0.30904 0.6812 0.0
C552 C 0.54378 0.32783 0.6974 0.0
C553 C 0.50844 0.26032 0.70547 0.0
C554 C 0.51559 0.32859 0.69919 0.0
C555 C 0.51598 0.35307 0.70529 0.0
C556 C 0.5446 0.37739 0.70973 0.0
C557 C 0.57288 0.37683 0.70773 0.0
C558 C 0.57247 0.35242 0.7016 0.0
H559 H 0.50321 0.23642 0.7084 0.0
H560 H 0.52196 0.27785 0.71198 0.0
H561 H 0.48547 0.25975 0.70426 0.0
H562 H 0.49323 0.31019 0.69587 0.0
H563 H 0.49373 0.35258 0.70671 0.0
loop_
_geom_bond_atom_site_label_1
_geom_bond_atom_site_label_2
_geom_bond_distance
_geom_bond_site_symmetry_2
_ccdc_geom_bond_type
C0 C1 1.264 . S
C0 C5 1.479 . S
C0 C10 1.465 . S
C1 C0 1.264 . S
C1 C3 1.339 . S
C1 H28 0.931 . S
C2 C3 1.395 . S
C2 C4 1.320 . S
C3 C1 1.339 . S
C3 C2 1.395 . S
C3 H29 0.929 . S
C4 C2 1.320 . S
C4 C5 1.405 . S
C4 H30 0.930 . S
C5 C0 1.479 . S
C5 C4 1.405 . S
C5 H31 0.931 . S
U6 O7 2.454 . S
U6 O8 2.458 . S
U6 C9 2.984 . S
U6 C10 2.847 1_455 S
U6 C23 2.882 . S
U6 O24 2.441 1_455 S
U6 O25 2.420 1_455 S
U6 O26 2.455 . S
U6 O27 2.449 1_455 S
O7 U6 2.454 . S
O7 C9 1.353 . S
O8 U6 2.458 . S
O8 C9 1.286 . S
C9 U6 2.984 . S
C9 O7 1.353 . S
C9 O8 1.286 . S
C9 C11 1.363 . S
C10 C0 1.465 . S
C10 U6 2.847 1_655 S
C10 O24 1.249 . S
C10 O25 1.202 . S
C11 C9 1.363 . S
C11 C13 1.408 . S
C11 C16 1.342 . S
C12 C13 1.310 . S
C12 C15 1.461 . S
C12 H32 0.932 . S
C13 C11 1.408 . S
C13 C12 1.310 . S
C13 H33 0.930 . S
C14 C15 1.474 . S
C14 C16 1.285 . S
C14 H34 0.929 . S
C15 C12 1.461 . S
C15 C14 1.474 . S
C16 C11 1.342 . S
C16 C14 1.285 . S
C16 H35 0.930 . S
C17 C20 1.424 1_455 S
C17 C22 1.245 . S
C17 C23 1.428 . S
C18 C21 1.260 . S
C18 C22 1.477 . S
C18 H36 0.932 . S
C19 C20 1.384 . S
C19 C21 1.479 1_655 S
C19 H37 0.929 . S
C20 C17 1.424 1_655 S
C20 C19 1.384 . S
C20 H38 0.928 . S
C21 C18 1.260 . S
C21 C19 1.479 1_455 S
C22 C17 1.245 . S
C22 C18 1.477 . S
C22 H39 0.932 . S
C23 U6 2.882 . S
C23 C17 1.428 . S
C23 O26 1.301 . S
C23 O27 1.282 1_455 S
O24 U6 2.441 1_655 S
O24 C10 1.249 . S
O25 U6 2.420 1_655 S
O25 C10 1.202 . S
O26 U6 2.455 . S
O26 C23 1.301 . S
O27 U6 2.449 1_655 S
O27 C23 1.282 1_655 S
H28 C1 0.931 . S
H29 C3 0.929 . S
H30 C4 0.930 . S
H31 C5 0.931 . S
H32 C12 0.932 . S
H33 C13 0.930 . S
H34 C14 0.929 . S
H35 C16 0.930 . S
H36 C18 0.932 . S
H37 C19 0.929 . S
H38 C20 0.928 . S
H39 C22 0.932 . S
C40 C41 1.264 . S
C40 C45 1.479 . S
C40 C50 1.465 . S
C41 C40 1.264 . S
C41 C43 1.339 . S
C41 H68 0.931 . S
C42 C43 1.395 . S
C42 C44 1.320 . S
C43 C41 1.339 . S
C43 C42 1.395 . S
C43 H69 0.929 . S
C44 C42 1.320 . S
C44 C45 1.405 . S
C44 H70 0.930 . S
C45 C40 1.479 . S
C45 C44 1.405 . S
C45 H71 0.931 . S
U46 O47 2.454 1_545 S
U46 O48 2.458 1_545 S
U46 C49 2.984 1_545 S
U46 C50 2.847 . S
U46 C63 2.882 . S
U46 O64 2.441 . S
U46 O65 2.420 . S
U46 O66 2.455 . S
U46 O67 2.449 . S
O47 U46 2.454 1_565 S
O47 C49 1.353 . S
O48 U46 2.458 1_565 S
O48 C49 1.286 . S
C49 U46 2.984 1_565 S
C49 O47 1.353 . S
C49 O48 1.286 . S
C49 C51 1.363 . S
C50 C40 1.465 . S
C50 U46 2.847 . S
C50 O64 1.249 . S
C50 O65 1.202 . S
C51 C49 1.363 . S
C51 C53 1.408 . S
C51 C56 1.342 . S
C52 C53 1.310 . S
C52 C55 1.461 . S
C52 H72 0.932 . S
C53 C51 1.408 . S
C53 C52 1.310 . S
C53 H73 0.930 . S
C54 C55 1.474 . S
C54 C56 1.285 . S
C54 H74 0.929 . S
C55 C52 1.461 . S
C55 C54 1.474 . S
C56 C51 1.342 . S
C56 C54 1.285 . S
C56 H75 0.930 . S
C57 C60 1.424 . S
C57 C62 1.238 1_545 S
C57 C63 1.428 . S
C58 C61 1.269 . S
C58 C62 1.479 1_545 S
C58 H76 0.921 1_545 S
C59 C60 1.384 . S
C59 C61 1.479 . S
C59 H77 0.929 . S
C60 C57 1.424 . S
C60 C59 1.384 . S
C60 H78 0.928 . S
C61 C58 1.269 . S
C61 C59 1.479 . S
C62 C57 1.238 1_565 S
C62 C58 1.479 1_565 S
C62 H79 0.938 . S
C63 U46 2.882 . S
C63 C57 1.428 . S
C63 O66 1.301 . S
C63 O67 1.282 . S
O64 U46 2.441 . S
O64 C50 1.249 . S
O65 U46 2.420 . S
O65 C50 1.202 . S
O66 U46 2.455 . S
O66 C63 1.301 . S
O67 U46 2.449 . S
O67 C63 1.282 . S
H68 C41 0.931 . S
H69 C43 0.929 . S
H70 C44 0.930 . S
H71 C45 0.931 . S
H72 C52 0.932 . S
H73 C53 0.930 . S
H74 C54 0.929 . S
H75 C56 0.930 . S
H76 C58 0.921 1_565 S
H77 C59 0.929 . S
H78 C60 0.928 . S
H79 C62 0.938 . S
C80 C81 1.264 . S
C80 C85 1.479 . S
C80 C90 1.465 . S
C81 C80 1.264 . S
C81 C83 1.339 . S
C81 H108 0.931 . S
C82 C83 1.395 . S
C82 C84 1.320 . S
C83 C81 1.339 . S
C83 C82 1.395 . S
C83 H109 0.929 . S
C84 C82 1.320 . S
C84 C85 1.405 . S
C84 H110 0.930 . S
C85 C80 1.479 . S
C85 C84 1.405 . S
C85 H111 0.931 . S
U86 O87 2.454 . S
U86 O88 2.458 . S
U86 C89 2.984 . S
U86 C90 2.847 . S
U86 C103 2.882 . S
U86 O104 2.441 . S
U86 O105 2.420 . S
U86 O106 2.455 . S
U86 O107 2.449 . S
O87 U86 2.454 . S
O87 C89 1.353 . S
O88 U86 2.458 . S
O88 C89 1.286 . S
C89 U86 2.984 . S
C89 O87 1.353 . S
C89 O88 1.286 . S
C89 C91 1.363 . S
C90 C80 1.465 . S
C90 U86 2.847 . S
C90 O104 1.249 . S
C90 O105 1.202 . S
C91 C89 1.363 . S
C91 C93 1.408 . S
C91 C96 1.342 . S
C92 C93 1.310 . S
C92 C95 1.461 . S
C92 H112 0.932 . S
C93 C91 1.408 . S
C93 C92 1.310 . S
C93 H113 0.930 . S
C94 C95 1.474 . S
C94 C96 1.285 . S
C94 H114 0.929 . S
C95 C92 1.461 . S
C95 C94 1.474 . S
C96 C91 1.342 . S
C96 C94 1.285 . S
C96 H115 0.930 . S
C97 C100 1.424 . S
C97 C102 1.245 . S
C97 C103 1.428 . S
C98 C101 1.260 . S
C98 C102 1.477 . S
C98 H116 0.932 . S
C99 C100 1.384 . S
C99 C101 1.479 . S
C99 H117 0.929 . S
C100 C97 1.424 . S
C100 C99 1.384 . S
C100 H118 0.928 . S
C101 C98 1.260 . S
C101 C99 1.479 . S
C102 C97 1.245 . S
C102 C98 1.477 . S
C102 H119 0.932 . S
C103 U86 2.882 . S
C103 C97 1.428 . S
C103 O106 1.301 . S
C103 O107 1.282 . S
O104 U86 2.441 . S
O104 C90 1.249 . S
O105 U86 2.420 . S
O105 C90 1.202 . S
O106 U86 2.455 . S
O106 C103 1.301 . S
O107 U86 2.449 . S
O107 C103 1.282 . S
H108 C81 0.931 . S
H109 C83 0.929 . S
H110 C84 0.930 . S
H111 C85 0.931 . S
H112 C92 0.932 . S
H113 C93 0.930 . S
H114 C94 0.929 . S
H115 C96 0.930 . S
H116 C98 0.932 . S
H117 C99 0.929 . S
H118 C100 0.928 . S
H119 C102 0.932 . S
C120 C121 1.264 . S
C120 C125 1.479 . S
C120 C130 1.465 . S
C121 C120 1.264 . S
C121 C123 1.339 . S
C121 H148 0.931 . S
C122 C123 1.395 . S
C122 C124 1.320 . S
C123 C121 1.339 . S
C123 C122 1.395 . S
C123 H149 0.929 . S
C124 C122 1.320 . S
C124 C125 1.405 . S
C124 H150 0.930 . S
C125 C120 1.479 . S
C125 C124 1.405 . S
C125 H151 0.931 . S
U126 O127 2.454 . S
U126 O128 2.458 . S
U126 C129 2.984 . S
U126 C130 2.847 1_545 S
U126 C143 2.882 . S
U126 O144 2.441 1_545 S
U126 O145 2.420 1_545 S
U126 O146 2.455 . S
U126 O147 2.449 1_545 S
O127 U126 2.454 . S
O127 C129 1.353 . S
O128 U126 2.458 . S
O128 C129 1.286 . S
C129 U126 2.984 . S
C129 O127 1.353 . S
C129 O128 1.286 . S
C129 C131 1.363 . S
C130 C120 1.465 . S
C130 U126 2.847 1_565 S
C130 O144 1.249 . S
C130 O145 1.202 . S
C131 C129 1.363 . S
C131 C133 1.408 . S
C131 C136 1.342 . S
C132 C133 1.310 . S
C132 C135 1.461 . S
C132 H152 0.932 . S
C133 C131 1.408 . S
C133 C132 1.310 . S
C133 H153 0.930 . S
C134 C135 1.474 . S
C134 C136 1.285 . S
C134 H154 0.929 . S
C135 C132 1.461 . S
C135 C134 1.474 . S
C136 C131 1.342 . S
C136 C134 1.285 . S
C136 H155 0.930 . S
C137 C140 1.424 1_545 S
C137 C142 1.245 . S
C137 C143 1.428 . S
C138 C141 1.260 . S
C138 C142 1.477 . S
C138 H156 0.932 . S
C139 C140 1.384 . S
C139 C141 1.479 1_565 S
C139 H157 0.929 . S
C140 C137 1.424 1_565 S
C140 C139 1.384 . S
C140 H158 0.928 . S
C141 C138 1.260 . S
C141 C139 1.479 1_545 S
C142 C137 1.245 . S
C142 C138 1.477 . S
C142 H159 0.932 . S
C143 U126 2.882 . S
C143 C137 1.428 . S
C143 O146 1.301 . S
C143 O147 1.282 1_545 S
O144 U126 2.441 1_565 S
O144 C130 1.249 . S
O145 U126 2.420 1_565 S
O145 C130 1.202 . S
O146 U126 2.455 . S
O146 C143 1.301 . S
O147 U126 2.449 1_565 S
O147 C143 1.282 1_565 S
H148 C121 0.931 . S
H149 C123 0.929 . S
H150 C124 0.930 . S
H151 C125 0.931 . S
H152 C132 0.932 . S
H153 C133 0.930 . S
H154 C134 0.929 . S
H155 C136 0.930 . S
H156 C138 0.932 . S
H157 C139 0.929 . S
H158 C140 0.928 . S
H159 C142 0.932 . S
C160 C161 1.264 . S
C160 C165 1.479 . S
C160 C170 1.465 . S
C161 C160 1.264 . S
C161 C163 1.339 . S
C161 H188 0.931 . S
C162 C163 1.395 . S
C162 C164 1.320 . S
C163 C161 1.339 . S
C163 C162 1.395 . S
C163 H189 0.929 . S
C164 C162 1.320 . S
C164 C165 1.405 . S
C164 H190 0.930 . S
C165 C160 1.479 . S
C165 C164 1.405 . S
C165 H191 0.931 . S
U166 O167 2.454 . S
U166 O168 2.458 . S
U166 C169 2.984 . S
U166 C170 2.847 . S
U166 C183 2.882 . S
U166 O184 2.441 . S
U166 O185 2.420 . S
U166 O186 2.455 . S
U166 O187 2.449 . S
O167 U166 2.454 . S
O167 C169 1.353 . S
O168 U166 2.458 . S
O168 C169 1.286 . S
C169 U166 2.984 . S
C169 O167 1.353 . S
C169 O168 1.286 . S
C169 C171 1.363 . S
C170 C160 1.465 . S
C170 U166 2.847 . S
C170 O184 1.249 . S
C170 O185 1.202 . S
C171 C169 1.363 . S
C171 C173 1.408 . S
C171 C176 1.342 . S
C172 C173 1.310 . S
C172 C175 1.461 . S
C172 H192 0.932 . S
C173 C171 1.408 . S
C173 C172 1.310 . S
C173 H193 0.930 . S
C174 C175 1.474 . S
C174 C176 1.285 . S
C174 H194 0.929 . S
C175 C172 1.461 . S
C175 C174 1.474 . S
C176 C171 1.342 . S
C176 C174 1.285 . S
C176 H195 0.930 . S
C177 C180 1.424 . S
C177 C182 1.245 . S
C177 C183 1.428 . S
C178 C181 1.260 . S
C178 C182 1.477 . S
C178 H196 0.932 . S
C179 C180 1.384 . S
C179 C181 1.479 . S
C179 H197 0.929 . S
C180 C177 1.424 . S
C180 C179 1.384 . S
C180 H198 0.928 . S
C181 C178 1.260 . S
C181 C179 1.479 . S
C182 C177 1.245 . S
C182 C178 1.477 . S
C182 H199 0.932 . S
C183 U166 2.882 . S
C183 C177 1.428 . S
C183 O186 1.301 . S
C183 O187 1.282 . S
O184 U166 2.441 . S
O184 C170 1.249 . S
O185 U166 2.420 . S
O185 C170 1.202 . S
O186 U166 2.455 . S
O186 C183 1.301 . S
O187 U166 2.449 . S
O187 C183 1.282 . S
H188 C161 0.931 . S
H189 C163 0.929 . S
H190 C164 0.930 . S
H191 C165 0.931 . S
H192 C172 0.932 . S
H193 C173 0.930 . S
H194 C174 0.929 . S
H195 C176 0.930 . S
H196 C178 0.932 . S
H197 C179 0.929 . S
H198 C180 0.928 . S
H199 C182 0.932 . S
C200 C201 1.264 . S
C200 C205 1.479 . S
C200 C210 1.465 . S
C201 C200 1.264 . S
C201 C203 1.339 . S
C201 H228 0.931 . S
C202 C203 1.395 . S
C202 C204 1.320 . S
C203 C201 1.339 . S
C203 C202 1.395 . S
C203 H229 0.929 . S
C204 C202 1.320 . S
C204 C205 1.405 . S
C204 H230 0.930 . S
C205 C200 1.479 . S
C205 C204 1.405 . S
C205 H231 0.931 . S
U206 O207 2.454 . S
U206 O208 2.458 . S
U206 C209 2.984 . S
U206 C210 2.847 1_455 S
U206 C223 2.882 . S
U206 O224 2.441 1_455 S
U206 O225 2.420 1_455 S
U206 O226 2.455 . S
U206 O227 2.449 1_455 S
O207 U206 2.454 . S
O207 C209 1.353 . S
O208 U206 2.458 . S
O208 C209 1.286 . S
C209 U206 2.984 . S
C209 O207 1.353 . S
C209 O208 1.286 . S
C209 C211 1.363 . S
C210 C200 1.465 . S
C210 U206 2.847 1_655 S
C210 O224 1.249 . S
C210 O225 1.202 . S
C211 C209 1.363 . S
C211 C213 1.408 . S
C211 C216 1.342 . S
C212 C213 1.310 . S
C212 C215 1.461 . S
C212 H232 0.932 . S
C213 C211 1.408 . S
C213 C212 1.310 . S
C213 H233 0.930 . S
C214 C215 1.474 . S
C214 C216 1.285 . S
C214 H234 0.929 . S
C215 C212 1.461 . S
C215 C214 1.474 . S
C216 C211 1.342 . S
C216 C214 1.285 . S
C216 H235 0.930 . S
C217 C220 1.424 1_455 S
C217 C222 1.245 . S
C217 C223 1.428 . S
C218 C221 1.260 . S
C218 C222 1.477 . S
C218 H236 0.932 . S
C219 C220 1.384 . S
C219 C221 1.479 1_655 S
C219 H237 0.929 . S
C220 C217 1.424 1_655 S
C220 C219 1.384 . S
C220 H238 0.928 . S
C221 C218 1.260 . S
C221 C219 1.479 1_455 S
C222 C217 1.245 . S
C222 C218 1.477 . S
C222 H239 0.932 . S
C223 U206 2.882 . S
C223 C217 1.428 . S
C223 O226 1.301 . S
C223 O227 1.282 1_455 S
O224 U206 2.441 1_655 S
O224 C210 1.249 . S
O225 U206 2.420 1_655 S
O225 C210 1.202 . S
O226 U206 2.455 . S
O226 C223 1.301 . S
O227 U206 2.449 1_655 S
O227 C223 1.282 1_655 S
H228 C201 0.931 . S
H229 C203 0.929 . S
H230 C204 0.930 . S
H231 C205 0.931 . S
H232 C212 0.932 . S
H233 C213 0.930 . S
H234 C214 0.929 . S
H235 C216 0.930 . S
H236 C218 0.932 . S
H237 C219 0.929 . S
H238 C220 0.928 . S
H239 C222 0.932 . S
H240 C248 0.929 1_655 S
H241 C250 0.930 1_655 S
H242 C252 0.930 . S
H243 C255 0.929 . S
H244 C258 0.930 . S
H245 C260 0.960 . S
H246 C260 0.960 . S
H247 C260 0.960 1_455 S
C248 H240 0.929 1_455 S
C248 C249 1.377 . S
C248 C250 1.384 . S
C249 C248 1.377 . S
C249 C255 1.390 . S
C250 H241 0.930 1_455 S
C250 C248 1.384 . S
C250 C251 1.372 . S
C251 C250 1.372 . S
C251 C252 1.400 . S
C251 C256 1.490 . S
C252 H242 0.930 . S
C252 C251 1.400 . S
C252 C255 1.386 . S
H253 C269 0.930 . S
H254 C270 0.931 . S
C255 H243 0.929 . S
C255 C249 1.390 . S
C255 C252 1.386 . S
C256 C251 1.490 . S
C256 C258 1.395 . S
C256 C259 1.403 . S
H257 C263 0.930 . S
C258 H244 0.930 . S
C258 C256 1.395 . S
C258 C261 1.403 . S
C259 C256 1.403 . S
C259 C260 1.524 1_455 S
C259 C263 1.400 . S
C260 H245 0.960 . S
C260 H246 0.960 . S
C260 H247 0.960 1_655 S
C260 C259 1.524 1_655 S
C261 C258 1.403 . S
C261 C262 1.392 . S
C261 C265 1.495 . S
C262 C261 1.392 . S
C262 C263 1.385 . S
C262 C264 1.478 . S
C263 H257 0.930 . S
C263 C259 1.400 . S
C263 C262 1.385 . S
C264 C262 1.478 . S
C264 C266 1.381 . S
C264 C270 1.383 . S
C265 C261 1.495 . S
C265 H271 0.959 . S
C265 H272 0.961 . S
C265 H273 0.960 . S
C266 C264 1.381 . S
C266 C267 1.394 . S
C266 H274 0.930 1_455 S
C267 C266 1.394 . S
C267 C268 1.383 . S
C267 H275 0.929 1_455 S
C268 C267 1.383 . S
C268 C269 1.377 . S
C269 H253 0.930 . S
C269 C268 1.377 . S
C269 C270 1.379 . S
C270 H254 0.931 . S
C270 C264 1.383 . S
C270 C269 1.379 . S
H271 C265 0.959 . S
H272 C265 0.961 . S
H273 C265 0.960 . S
H274 C266 0.930 1_655 S
H275 C267 0.929 1_655 S
H276 C284 0.929 . S
H277 C286 0.930 . S
H278 C288 0.930 . S
H279 C291 0.929 . S
H280 C294 0.930 . S
H281 C296 0.960 . S
H282 C296 0.960 . S
H283 C296 0.960 . S
C284 H276 0.929 . S
C284 C285 1.377 . S
C284 C286 1.384 . S
C285 C284 1.377 . S
C285 C291 1.390 1_545 S
C286 H277 0.930 . S
C286 C284 1.384 . S
C286 C287 1.372 . S
C287 C286 1.372 . S
C287 C288 1.400 1_545 S
C287 C292 1.490 . S
C288 H278 0.930 . S
C288 C287 1.400 1_565 S
C288 C291 1.386 . S
H289 C305 0.930 . S
H290 C306 0.931 . S
C291 H279 0.929 . S
C291 C285 1.390 1_565 S
C291 C288 1.386 . S
C292 C287 1.490 . S
C292 C294 1.395 . S
C292 C295 1.395 1_545 S
H293 C299 0.930 1_565 S
C294 H280 0.930 . S
C294 C292 1.395 . S
C294 C297 1.403 . S
C295 C292 1.395 1_565 S
C295 C296 1.531 . S
C295 C299 1.400 1_565 S
C296 H281 0.960 . S
C296 H282 0.960 . S
C296 H283 0.960 . S
C296 C295 1.531 . S
C297 C294 1.403 . S
C297 C298 1.392 . S
C297 C301 1.495 . S
C298 C297 1.392 . S
C298 C299 1.385 . S
C298 C300 1.478 . S
C299 H293 0.930 1_545 S
C299 C295 1.400 1_545 S
C299 C298 1.385 . S
C300 C298 1.478 . S
C300 C302 1.381 . S
C300 C306 1.383 1_545 S
C301 C297 1.495 . S
C301 H307 0.959 . S
C301 H308 0.961 . S
C301 H309 0.960 . S
C302 C300 1.381 . S
C302 C303 1.394 . S
C302 H310 0.930 . S
C303 C302 1.394 . S
C303 C304 1.383 . S
C303 H311 0.929 . S
C304 C303 1.383 . S
C304 C305 1.377 1_545 S
C305 H289 0.930 . S
C305 C304 1.377 1_565 S
C305 C306 1.379 . S
C306 H290 0.931 . S
C306 C300 1.383 1_565 S
C306 C305 1.379 . S
H307 C301 0.959 . S
H308 C301 0.961 . S
H309 C301 0.960 . S
H310 C302 0.930 . S
H311 C303 0.929 . S
H312 C320 0.929 . S
H313 C322 0.930 . S
H314 C324 0.930 . S
H315 C327 0.929 . S
H316 C330 0.930 . S
H317 C332 0.960 . S
H318 C332 0.960 . S
H319 C332 0.960 . S
C320 H312 0.929 . S
C320 C321 1.377 . S
C320 C322 1.384 . S
C321 C320 1.377 . S
C321 C327 1.390 . S
C322 H313 0.930 . S
C322 C320 1.384 . S
C322 C323 1.372 . S
C323 C322 1.372 . S
C323 C324 1.400 . S
C323 C328 1.490 . S
C324 H314 0.930 . S
C324 C323 1.400 . S
C324 C327 1.386 . S
H325 C341 0.930 . S
H326 C342 0.931 . S
C327 H315 0.929 . S
C327 C321 1.390 . S
C327 C324 1.386 . S
C328 C323 1.490 . S
C328 C330 1.395 . S
C328 C331 1.403 . S
H329 C335 0.930 . S
C330 H316 0.930 . S
C330 C328 1.395 . S
C330 C333 1.403 . S
C331 C328 1.403 . S
C331 C332 1.524 . S
C331 C335 1.400 . S
C332 H317 0.960 . S
C332 H318 0.960 . S
C332 H319 0.960 . S
C332 C331 1.524 . S
C333 C330 1.403 . S
C333 C334 1.392 . S
C333 C337 1.495 . S
C334 C333 1.392 . S
C334 C335 1.385 . S
C334 C336 1.478 . S
C335 H329 0.930 . S
C335 C331 1.400 . S
C335 C334 1.385 . S
C336 C334 1.478 . S
C336 C338 1.381 . S
C336 C342 1.383 . S
C337 C333 1.495 . S
C337 H343 0.959 . S
C337 H344 0.961 . S
C337 H345 0.960 . S
C338 C336 1.381 . S
C338 C339 1.394 . S
C338 H346 0.930 . S
C339 C338 1.394 . S
C339 C340 1.383 . S
C339 H347 0.929 . S
C340 C339 1.383 . S
C340 C341 1.377 . S
C341 H325 0.930 . S
C341 C340 1.377 . S
C341 C342 1.379 . S
C342 H326 0.931 . S
C342 C336 1.383 . S
C342 C341 1.379 . S
H343 C337 0.959 . S
H344 C337 0.961 . S
H345 C337 0.960 . S
H346 C338 0.930 . S
H347 C339 0.929 . S
H348 C356 0.929 . S
H349 C358 0.930 . S
H350 C360 0.930 . S
H351 C363 0.929 . S
H352 C366 0.930 . S
H353 C368 0.960 . S
H354 C368 0.960 . S
H355 C368 0.960 . S
C356 H348 0.929 . S
C356 C357 1.377 . S
C356 C358 1.384 . S
C357 C356 1.377 . S
C357 C363 1.390 . S
C358 H349 0.930 . S
C358 C356 1.384 . S
C358 C359 1.372 . S
C359 C358 1.372 . S
C359 C360 1.400 . S
C359 C364 1.490 . S
C360 H350 0.930 . S
C360 C359 1.400 . S
C360 C363 1.386 . S
H361 C377 0.930 . S
H362 C378 0.931 . S
C363 H351 0.929 . S
C363 C357 1.390 . S
C363 C360 1.386 . S
C364 C359 1.490 . S
C364 C366 1.395 1_554 S
C364 C367 1.403 . S
H365 C371 0.930 . S
C366 H352 0.930 . S
C366 C364 1.395 1_556 S
C366 C369 1.403 . S
C367 C364 1.403 . S
C367 C368 1.524 . S
C367 C371 1.400 . S
C368 H353 0.960 . S
C368 H354 0.960 . S
C368 H355 0.960 . S
C368 C367 1.524 . S
C369 C366 1.403 . S
C369 C370 1.392 . S
C369 C373 1.495 . S
C370 C369 1.392 . S
C370 C371 1.385 1_556 S
C370 C372 1.478 . S
C371 H365 0.930 . S
C371 C367 1.400 . S
C371 C370 1.385 1_554 S
C372 C370 1.478 . S
C372 C374 1.381 . S
C372 C378 1.383 . S
C373 C369 1.495 . S
C373 H379 0.959 . S
C373 H380 0.961 . S
C373 H381 0.960 . S
C374 C372 1.381 . S
C374 C375 1.394 . S
C374 H382 0.930 . S
C375 C374 1.394 . S
C375 C376 1.383 . S
C375 H383 0.929 . S
C376 C375 1.383 . S
C376 C377 1.377 . S
C377 H361 0.930 . S
C377 C376 1.377 . S
C377 C378 1.379 . S
C378 H362 0.931 . S
C378 C372 1.383 . S
C378 C377 1.379 . S
H379 C373 0.959 . S
H380 C373 0.961 . S
H381 C373 0.960 . S
H382 C374 0.930 . S
H383 C375 0.929 . S
H384 C392 0.929 . S
H385 C394 0.930 . S
H386 C396 0.930 . S
H387 C399 0.929 . S
H388 C402 0.930 . S
H389 C404 0.960 . S
H390 C404 0.960 . S
H391 C404 0.960 . S
C392 H384 0.929 . S
C392 C393 1.377 . S
C392 C394 1.384 . S
C393 C392 1.377 . S
C393 C399 1.390 . S
C394 H385 0.930 . S
C394 C392 1.384 . S
C394 C395 1.372 . S
C395 C394 1.372 . S
C395 C396 1.400 . S
C395 C400 1.490 . S
C396 H386 0.930 . S
C396 C395 1.400 . S
C396 C399 1.386 . S
H397 C413 0.930 . S
H398 C414 0.931 . S
C399 H387 0.929 . S
C399 C393 1.390 . S
C399 C396 1.386 . S
C400 C395 1.490 . S
C400 C402 1.395 . S
C400 C403 1.403 . S
H401 C407 0.930 . S
C402 H388 0.930 . S
C402 C400 1.395 . S
C402 C405 1.403 . S
C403 C400 1.403 . S
C403 C404 1.524 . S
C403 C407 1.400 . S
C404 H389 0.960 . S
C404 H390 0.960 . S
C404 H391 0.960 . S
C404 C403 1.524 . S
C405 C402 1.403 . S
C405 C406 1.392 . S
C405 C409 1.495 . S
C406 C405 1.392 . S
C406 C407 1.385 . S
C406 C408 1.478 . S
C407 H401 0.930 . S
C407 C403 1.400 . S
C407 C406 1.385 . S
C408 C406 1.478 . S
C408 C410 1.381 . S
C408 C414 1.383 . S
C409 C405 1.495 . S
C409 H415 0.959 . S
C409 H416 0.961 . S
C409 H417 0.960 . S
C410 C408 1.381 . S
C410 C411 1.394 . S
C410 H418 0.930 . S
C411 C410 1.394 . S
C411 C412 1.383 . S
C411 H419 0.929 . S
C412 C411 1.383 . S
C412 C413 1.377 . S
C413 H397 0.930 . S
C413 C412 1.377 . S
C413 C414 1.379 . S
C414 H398 0.931 . S
C414 C408 1.383 . S
C414 C413 1.379 . S
H415 C409 0.959 . S
H416 C409 0.961 . S
H417 C409 0.960 . S
H418 C410 0.930 . S
H419 C411 0.929 . S
H420 C428 0.929 . S
H421 C430 0.930 . S
H422 C432 0.930 . S
H423 C435 0.929 . S
H424 C438 0.930 . S
H425 C440 0.960 . S
H426 C440 0.960 . S
H427 C440 0.960 . S
C428 H420 0.929 . S
C428 C429 1.377 . S
C428 C430 1.384 . S
C429 C428 1.377 . S
C429 C435 1.390 . S
C430 H421 0.930 . S
C430 C428 1.384 . S
C430 C431 1.372 . S
C431 C430 1.372 . S
C431 C432 1.400 . S
C431 C436 1.490 . S
C432 H422 0.930 . S
C432 C431 1.400 . S
C432 C435 1.386 . S
H433 C449 0.930 . S
H434 C450 0.931 . S
C435 H423 0.929 . S
C435 C429 1.390 . S
C435 C432 1.386 . S
C436 C431 1.490 . S
C436 C438 1.395 . S
C436 C439 1.403 . S
H437 C443 0.930 . S
C438 H424 0.930 . S
C438 C436 1.395 . S
C438 C441 1.403 . S
C439 C436 1.403 . S
C439 C440 1.524 . S
C439 C443 1.400 . S
C440 H425 0.960 . S
C440 H426 0.960 . S
C440 H427 0.960 . S
C440 C439 1.524 . S
C441 C438 1.403 . S
C441 C442 1.392 . S
C441 C445 1.495 . S
C442 C441 1.392 . S
C442 C443 1.385 . S
C442 C444 1.478 . S
C443 H437 0.930 . S
C443 C439 1.400 . S
C443 C442 1.385 . S
C444 C442 1.478 . S
C444 C446 1.381 . S
C444 C450 1.383 . S
C445 C441 1.495 . S
C445 H451 0.959 . S
C445 H452 0.961 . S
C445 H453 0.960 . S
C446 C444 1.381 . S
C446 C447 1.394 . S
C446 H454 0.930 . S
C447 C446 1.394 . S
C447 C448 1.383 . S
C447 H455 0.929 . S
C448 C447 1.383 . S
C448 C449 1.377 . S
C449 H433 0.930 . S
C449 C448 1.377 . S
C449 C450 1.379 . S
C450 H434 0.931 . S
C450 C444 1.383 . S
C450 C449 1.379 . S
H451 C445 0.959 . S
H452 C445 0.961 . S
H453 C445 0.960 . S
H454 C446 0.930 . S
H455 C447 0.929 . S
H456 C464 0.929 . S
H457 C466 0.930 . S
H458 C468 0.930 . S
H459 C471 0.929 . S
H460 C474 0.930 . S
H461 C476 0.960 . S
H462 C476 0.960 . S
H463 C476 0.960 . S
C464 H456 0.929 . S
C464 C465 1.377 . S
C464 C466 1.384 . S
C465 C464 1.377 . S
C465 C471 1.390 . S
C466 H457 0.930 . S
C466 C464 1.384 . S
C466 C467 1.372 . S
C467 C466 1.372 . S
C467 C468 1.400 . S
C467 C472 1.490 . S
C468 H458 0.930 . S
C468 C467 1.400 . S
C468 C471 1.386 . S
H469 C485 0.930 . S
H470 C486 0.931 . S
C471 H459 0.929 . S
C471 C465 1.390 . S
C471 C468 1.386 . S
C472 C467 1.490 . S
C472 C474 1.395 1_554 S
C472 C475 1.403 . S
H473 C479 0.930 . S
C474 H460 0.930 . S
C474 C472 1.395 1_556 S
C474 C477 1.403 . S
C475 C472 1.403 . S
C475 C476 1.524 . S
C475 C479 1.400 . S
C476 H461 0.960 . S
C476 H462 0.960 . S
C476 H463 0.960 . S
C476 C475 1.524 . S
C477 C474 1.403 . S
C477 C478 1.392 . S
C477 C481 1.495 . S
C478 C477 1.392 . S
C478 C479 1.385 1_556 S
C478 C480 1.478 . S
C479 H473 0.930 . S
C479 C475 1.400 . S
C479 C478 1.385 1_554 S
C480 C478 1.478 . S
C480 C482 1.381 . S
C480 C486 1.383 . S
C481 C477 1.495 . S
C481 H487 0.959 . S
C481 H488 0.961 . S
C481 H489 0.960 . S
C482 C480 1.381 . S
C482 C483 1.394 . S
C482 H490 0.930 . S
C483 C482 1.394 . S
C483 C484 1.383 . S
C483 H491 0.929 . S
C484 C483 1.383 . S
C484 C485 1.377 . S
C485 H469 0.930 . S
C485 C484 1.377 . S
C485 C486 1.379 . S
C486 H470 0.931 . S
C486 C480 1.383 . S
C486 C485 1.379 . S
H487 C481 0.959 . S
H488 C481 0.961 . S
H489 C481 0.960 . S
H490 C482 0.930 . S
H491 C483 0.929 . S
H492 C500 0.929 . S
H493 C502 0.930 . S
H494 C504 0.930 . S
H495 C507 0.929 . S
H496 C510 0.930 . S
H497 C512 0.960 . S
H498 C512 0.960 . S
H499 C512 0.960 . S
C500 H492 0.929 . S
C500 C501 1.377 . S
C500 C502 1.384 . S
C501 C500 1.377 . S
C501 C507 1.390 . S
C502 H493 0.930 . S
C502 C500 1.384 . S
C502 C503 1.372 . S
C503 C502 1.372 . S
C503 C504 1.400 . S
C503 C508 1.490 . S
C504 H494 0.930 . S
C504 C503 1.400 . S
C504 C507 1.386 . S
H505 C521 0.930 . S
H506 C522 0.931 . S
C507 H495 0.929 . S
C507 C501 1.390 . S
C507 C504 1.386 . S
C508 C503 1.490 . S
C508 C510 1.395 . S
C508 C511 1.403 . S
H509 C515 0.930 . S
C510 H496 0.930 . S
C510 C508 1.395 . S
C510 C513 1.403 . S
C511 C508 1.403 . S
C511 C512 1.524 . S
C511 C515 1.400 . S
C512 H497 0.960 . S
C512 H498 0.960 . S
C512 H499 0.960 . S
C512 C511 1.524 . S
C513 C510 1.403 . S
C513 C514 1.392 . S
C513 C517 1.495 . S
C514 C513 1.392 . S
C514 C515 1.385 . S
C514 C516 1.478 . S
C515 H509 0.930 . S
C515 C511 1.400 . S
C515 C514 1.385 . S
C516 C514 1.478 . S
C516 C518 1.381 . S
C516 C522 1.383 . S
C517 C513 1.495 . S
C517 H523 0.959 . S
C517 H524 0.961 . S
C517 H525 0.960 . S
C518 C516 1.381 . S
C518 C519 1.394 . S
C518 H526 0.930 . S
C519 C518 1.394 . S
C519 C520 1.383 . S
C519 H527 0.929 . S
C520 C519 1.383 . S
C520 C521 1.377 . S
C521 H505 0.930 . S
C521 C520 1.377 . S
C521 C522 1.379 . S
C522 H506 0.931 . S
C522 C516 1.383 . S
C522 C521 1.379 . S
H523 C517 0.959 . S
H524 C517 0.961 . S
H525 C517 0.960 . S
H526 C518 0.930 . S
H527 C519 0.929 . S
H528 C536 0.929 . S
H529 C538 0.930 . S
H530 C540 0.930 . S
H531 C543 0.929 . S
H532 C546 0.930 . S
H533 C548 0.960 . S
H534 C548 0.960 . S
H535 C548 0.960 . S
C536 H528 0.929 . S
C536 C537 1.377 . S
C536 C538 1.384 . S
C537 C536 1.377 . S
C537 C543 1.390 . S
C538 H529 0.930 . S
C538 C536 1.384 . S
C538 C539 1.372 . S
C539 C538 1.372 . S
C539 C540 1.400 . S
C539 C544 1.490 . S
C540 H530 0.930 . S
C540 C539 1.400 . S
C540 C543 1.386 . S
H541 C557 0.930 . S
H542 C558 0.931 . S
C543 H531 0.929 . S
C543 C537 1.390 . S
C543 C540 1.386 . S
C544 C539 1.490 . S
C544 C546 1.395 . S
C544 C547 1.403 . S
H545 C551 0.930 . S
C546 H532 0.930 . S
C546 C544 1.395 . S
C546 C549 1.403 . S
C547 C544 1.403 . S
C547 C548 1.524 . S
C547 C551 1.400 . S
C548 H533 0.960 . S
C548 H534 0.960 . S
C548 H535 0.960 . S
C548 C547 1.524 . S
C549 C546 1.403 . S
C549 C550 1.392 . S
C549 C553 1.495 . S
C550 C549 1.392 . S
C550 C551 1.385 . S
C550 C552 1.478 . S
C551 H545 0.930 . S
C551 C547 1.400 . S
C551 C550 1.385 . S
C552 C550 1.478 . S
C552 C554 1.381 . S
C552 C558 1.383 . S
C553 C549 1.495 . S
C553 H559 0.959 . S
C553 H560 0.961 . S
C553 H561 0.960 . S
C554 C552 1.381 . S
C554 C555 1.394 . S
C554 H562 0.930 . S
C555 C554 1.394 . S
C555 C556 1.383 . S
C555 H563 0.929 . S
C556 C555 1.383 . S
C556 C557 1.377 . S
C557 H541 0.930 . S
C557 C556 1.377 . S
C557 C558 1.379 . S
C558 H542 0.931 . S
C558 C552 1.383 . S
C558 C557 1.379 . S
H559 C553 0.959 . S
H560 C553 0.961 . S
H561 C553 0.960 . S
H562 C554 0.930 . S
H563 C555 0.929 . S
C249 C21 1.490 . S
C268 C221 1.500 . S
C285 C141 1.486 . S
C304 C61 1.487 . S
C321 C181 1.487 . S
C340 C101 1.474 . S
C357 C15 1.500 . S
C376 C175 1.497 . S
C393 C42 1.485 . S
C412 C202 1.491 . S
C429 C122 1.486 . S
C448 C82 1.475 . S
C465 C2 1.491 . S
C484 C162 1.488 . S
C501 C55 1.501 . S
C520 C215 1.498 . S
C537 C135 1.501 . S
C556 C95 1.498 . S
