# Generated by pormake.
# Topology xfz, (5)-cn, num edge types: 1
# Building blocks:
#     Node 0, Type 0, BuildingBlock: XOMCOT_clean_sbu_1, # of connection points: 5
#     Node 1, Type 0, BuildingBlock: XOMCOT_clean_sbu_1, # of connection points: 5
#     Node 2, Type 0, BuildingBlock: XOMCOT_clean_sbu_1, # of connection points: 5
#     Node 3, Type 0, BuildingBlock: XOMCOT_clean_sbu_1, # of connection points: 5
#     Node 4, Type 0, BuildingBlock: XOMCOT_clean_sbu_1, # of connection points: 5
#     Node 5, Type 0, BuildingBlock: XOMCOT_clean_sbu_1, # of connection points: 5
#     Node 6, Type 0, BuildingBlock: XOMCOT_clean_sbu_1, # of connection points: 5
#     Node 7, Type 0, BuildingBlock: XOMCOT_clean_sbu_1, # of connection points: 5
#     Node 8, Type 0, BuildingBlock: XOMCOT_clean_sbu_1, # of connection points: 5
#     Node 9, Type 0, BuildingBlock: XOMCOT_clean_sbu_1, # of connection points: 5
#     Node 10, Type 0, BuildingBlock: XOMCOT_clean_sbu_1, # of connection points: 5
#     Node 11, Type 0, BuildingBlock: XOMCOT_clean_sbu_1, # of connection points: 5
#     Node 12, Type 0, BuildingBlock: XOMCOT_clean_sbu_1, # of connection points: 5
#     Node 13, Type 0, BuildingBlock: XOMCOT_clean_sbu_1, # of connection points: 5
#     Node 14, Type 0, BuildingBlock: XOMCOT_clean_sbu_1, # of connection points: 5
#     Node 15, Type 0, BuildingBlock: XOMCOT_clean_sbu_1, # of connection points: 5
#     Edge 16, Type (0, 0), BuildingBlock: ZUJKAS_clean_linker_0, # of connection points: 2
#     Edge 17, Type (0, 0), BuildingBlock: ZUJKAS_clean_linker_0, # of connection points: 2
#     Edge 18, Type (0, 0), BuildingBlock: ZUJKAS_clean_linker_0, # of connection points: 2
#     Edge 19, Type (0, 0), BuildingBlock: ZUJKAS_clean_linker_0, # of connection points: 2
#     Edge 20, Type (0, 0), BuildingBlock: ZUJKAS_clean_linker_0, # of connection points: 2
#     Edge 21, Type (0, 0), BuildingBlock: ZUJKAS_clean_linker_0, # of connection points: 2
#     Edge 22, Type (0, 0), BuildingBlock: ZUJKAS_clean_linker_0, # of connection points: 2
#     Edge 23, Type (0, 0), BuildingBlock: ZUJKAS_clean_linker_0, # of connection points: 2
#     Edge 24, Type (0, 0), BuildingBlock: ZUJKAS_clean_linker_0, # of connection points: 2
#     Edge 25, Type (0, 0), BuildingBlock: ZUJKAS_clean_linker_0, # of connection points: 2
#     Edge 26, Type (0, 0), BuildingBlock: ZUJKAS_clean_linker_0, # of connection points: 2
#     Edge 27, Type (0, 0), BuildingBlock: ZUJKAS_clean_linker_0, # of connection points: 2
#     Edge 28, Type (0, 0), BuildingBlock: ZUJKAS_clean_linker_0, # of connection points: 2
#     Edge 29, Type (0, 0), BuildingBlock: ZUJKAS_clean_linker_0, # of connection points: 2
#     Edge 30, Type (0, 0), BuildingBlock: ZUJKAS_clean_linker_0, # of connection points: 2
#     Edge 31, Type (0, 0), BuildingBlock: ZUJKAS_clean_linker_0, # of connection points: 2
#     Edge 32, Type (0, 0), BuildingBlock: ZUJKAS_clean_linker_0, # of connection points: 2
#     Edge 33, Type (0, 0), BuildingBlock: ZUJKAS_clean_linker_0, # of connection points: 2
#     Edge 34, Type (0, 0), BuildingBlock: ZUJKAS_clean_linker_0, # of connection points: 2
#     Edge 35, Type (0, 0), BuildingBlock: ZUJKAS_clean_linker_0, # of connection points: 2
#     Edge 36, Type (0, 0), BuildingBlock: ZUJKAS_clean_linker_0, # of connection points: 2
#     Edge 37, Type (0, 0), BuildingBlock: ZUJKAS_clean_linker_0, # of connection points: 2
#     Edge 38, Type (0, 0), BuildingBlock: ZUJKAS_clean_linker_0, # of connection points: 2
#     Edge 39, Type (0, 0), BuildingBlock: ZUJKAS_clean_linker_0, # of connection points: 2
#     Edge 40, Type (0, 0), BuildingBlock: ZUJKAS_clean_linker_0, # of connection points: 2
#     Edge 41, Type (0, 0), BuildingBlock: ZUJKAS_clean_linker_0, # of connection points: 2
#     Edge 42, Type (0, 0), BuildingBlock: ZUJKAS_clean_linker_0, # of connection points: 2
#     Edge 43, Type (0, 0), BuildingBlock: ZUJKAS_clean_linker_0, # of connection points: 2
#     Edge 44, Type (0, 0), BuildingBlock: ZUJKAS_clean_linker_0, # of connection points: 2
#     Edge 45, Type (0, 0), BuildingBlock: ZUJKAS_clean_linker_0, # of connection points: 2
#     Edge 46, Type (0, 0), BuildingBlock: ZUJKAS_clean_linker_0, # of connection points: 2
#     Edge 47, Type (0, 0), BuildingBlock: ZUJKAS_clean_linker_0, # of connection points: 2
#     Edge 48, Type (0, 0), BuildingBlock: ZUJKAS_clean_linker_0, # of connection points: 2
#     Edge 49, Type (0, 0), BuildingBlock: ZUJKAS_clean_linker_0, # of connection points: 2
#     Edge 50, Type (0, 0), BuildingBlock: ZUJKAS_clean_linker_0, # of connection points: 2
#     Edge 51, Type (0, 0), BuildingBlock: ZUJKAS_clean_linker_0, # of connection points: 2
#     Edge 52, Type (0, 0), BuildingBlock: ZUJKAS_clean_linker_0, # of connection points: 2
#     Edge 53, Type (0, 0), BuildingBlock: ZUJKAS_clean_linker_0, # of connection points: 2
#     Edge 54, Type (0, 0), BuildingBlock: ZUJKAS_clean_linker_0, # of connection points: 2
#     Edge 55, Type (0, 0), BuildingBlock: ZUJKAS_clean_linker_0, # of connection points: 2
# Relax obj value: 0.573
# Max RMSD: 0.322
# Mean RMSD: 0.322
data_MOF--net-xfz--node1-XOMCOT_clean_sbu_1--edge1-ZUJKAS_clean_linker_0
_symmetry_space_group_name_H-M    P1
_symmetry_Int_Tables_number       1
_symmetry_cell_setting            triclinic
loop_
_symmetry_equiv_pos_as_xyz
'x, y, z'
_cell_length_a     48.34576
_cell_length_b     48.331008
_cell_length_c     74.358449
_cell_angle_alpha  90.002702
_cell_angle_beta   90.010121
_cell_angle_gamma 89.997051
loop_
_atom_site_label
_atom_site_type_symbol
_atom_site_fract_x
_atom_site_fract_y
_atom_site_fract_z
_atom_type_partial_charge
C0 C 0.22296 0.4543 0.32443 0.0
C1 C 0.22005 0.43616 0.31032 0.0
N2 N 0.19659 0.42166 0.31286 0.0
N3 N 0.20122 0.45146 0.33561 0.0
C4 C 0.18562 0.43123 0.32834 0.0
H5 H 0.2397 0.46884 0.32637 0.0
Co6 Co 0.19611 0.47162 0.35637 0.0
C7 C 0.13859 0.45967 0.3667 0.0
O8 O 0.14767 0.4496 0.38201 0.0
N9 N 0.19135 0.49229 0.37736 0.0
C10 C 0.17586 0.52338 0.39696 0.0
C11 C 0.17423 0.51415 0.37953 0.0
C12 C 0.20318 0.48871 0.39363 0.0
N13 N 0.194 0.50723 0.4058 0.0
O14 O 0.19977 0.43792 0.36983 0.0
H15 H 0.16085 0.52243 0.36918 0.0
H16 H 0.21804 0.4727 0.39666 0.0
O17 O 0.15592 0.46767 0.35483 0.0
C18 C 0.22518 0.4323 0.37253 0.0
O19 O 0.24387 0.45047 0.36748 0.0
N20 N 0.1949 0.50394 0.3427 0.0
C21 C 0.19982 0.5496 0.32029 0.0
C22 C 0.17683 0.53211 0.31899 0.0
C23 C 0.175 0.50902 0.33011 0.0
C24 C 0.21727 0.52094 0.34431 0.0
C25 C 0.22026 0.54393 0.33309 0.0
H26 H 0.15828 0.49465 0.32796 0.0
H27 H 0.23328 0.51605 0.35397 0.0
H28 H 0.16631 0.42409 0.33406 0.0
H29 H 0.23406 0.43382 0.29907 0.0
H30 H 0.1638 0.53992 0.40287 0.0
H31 H 0.16109 0.53551 0.30885 0.0
H32 H 0.23847 0.55688 0.3342 0.0
C33 C 0.45362 0.78268 0.67336 0.0
C34 C 0.43684 0.78061 0.68824 0.0
N35 N 0.41723 0.80028 0.68701 0.0
N36 N 0.44487 0.80395 0.6631 0.0
C37 C 0.42249 0.81409 0.67164 0.0
H38 H 0.47128 0.76978 0.67029 0.0
Co39 Co 0.46032 0.81535 0.64162 0.0
C40 C 0.44098 0.87275 0.63746 0.0
O41 O 0.4283 0.86571 0.62252 0.0
N42 N 0.47589 0.82639 0.61984 0.0
C43 C 0.49874 0.84969 0.59883 0.0
C44 C 0.49308 0.84793 0.6169 0.0
C45 C 0.47181 0.81512 0.60347 0.0
N46 N 0.48521 0.82906 0.59039 0.0
O47 O 0.42493 0.81022 0.63045 0.0
H48 H 0.50054 0.86185 0.62721 0.0
H49 H 0.45921 0.79705 0.60116 0.0
O50 O 0.45254 0.85407 0.64699 0.0
C51 C 0.42063 0.78502 0.6263 0.0
O52 O 0.4407 0.76707 0.6288 0.0
N53 N 0.4948 0.81859 0.65289 0.0
C54 C 0.545 0.8184 0.67115 0.0
C55 C 0.52278 0.83429 0.67741 0.0
C56 C 0.49784 0.8341 0.66811 0.0
C57 C 0.51618 0.80293 0.64657 0.0
C58 C 0.54174 0.80287 0.65538 0.0
H59 H 0.48061 0.84555 0.67358 0.0
H60 H 0.51323 0.79013 0.63479 0.0
H61 H 0.41066 0.83165 0.6669 0.0
H62 H 0.43891 0.7659 0.69914 0.0
H63 H 0.51113 0.86548 0.59239 0.0
H64 H 0.52459 0.84658 0.68954 0.0
H65 H 0.55846 0.7902 0.65027 0.0
C66 C 0.77611 0.57633 0.32785 0.0
C67 C 0.7848 0.59328 0.31418 0.0
N68 N 0.81263 0.59444 0.31464 0.0
N69 N 0.7983 0.56679 0.33685 0.0
C70 C 0.82035 0.57827 0.3286 0.0
H71 H 0.75493 0.57095 0.33097 0.0
Co72 Co 0.79411 0.54251 0.35564 0.0
C73 C 0.84952 0.52392 0.36768 0.0
O74 O 0.83841 0.49961 0.37081 0.0
N75 N 0.78795 0.51808 0.37512 0.0
C76 C 0.77622 0.48314 0.39315 0.0
C77 C 0.77637 0.49257 0.37572 0.0
C78 C 0.79405 0.52378 0.39249 0.0
N79 N 0.78727 0.50288 0.40363 0.0
O80 O 0.78753 0.57358 0.37109 0.0
H81 H 0.76846 0.48107 0.36445 0.0
H82 H 0.80402 0.54266 0.39687 0.0
O83 O 0.83454 0.54357 0.36127 0.0
C84 C 0.76222 0.57756 0.37509 0.0
O85 O 0.74386 0.5591 0.36997 0.0
N86 N 0.79876 0.51318 0.33922 0.0
C87 C 0.80044 0.47301 0.31224 0.0
C88 C 0.82452 0.48691 0.31757 0.0
C89 C 0.82316 0.5073 0.33075 0.0
C90 C 0.77482 0.50144 0.33322 0.0
C91 C 0.7752 0.48082 0.32004 0.0
H92 H 0.84164 0.51902 0.33339 0.0
H93 H 0.75526 0.50807 0.33883 0.0
H94 H 0.84158 0.5742 0.33234 0.0
H95 H 0.77167 0.60388 0.30461 0.0
H96 H 0.76829 0.46345 0.3978 0.0
H97 H 0.84419 0.48282 0.31113 0.0
H98 H 0.75597 0.47116 0.316 0.0
C99 C 0.54944 0.23593 0.67001 0.0
C100 C 0.56673 0.23514 0.68472 0.0
N101 N 0.58329 0.21286 0.68309 0.0
N102 N 0.5549 0.21401 0.65939 0.0
C103 C 0.57571 0.20047 0.6676 0.0
H104 H 0.53387 0.25141 0.66722 0.0
Co105 Co 0.53817 0.20588 0.63774 0.0
C106 C 0.55229 0.14725 0.6314 0.0
O107 O 0.56366 0.15401 0.61597 0.0
N108 N 0.52116 0.19805 0.6158 0.0
C109 C 0.49473 0.17873 0.59485 0.0
C110 C 0.50131 0.17895 0.61281 0.0
C111 C 0.52608 0.20936 0.59953 0.0
N112 N 0.51042 0.19784 0.58649 0.0
O113 O 0.5737 0.20877 0.62642 0.0
H114 H 0.49258 0.16557 0.623 0.0
H115 H 0.5409 0.22568 0.59722 0.0
O116 O 0.54297 0.16623 0.64168 0.0
C117 C 0.58025 0.2337 0.62287 0.0
O118 O 0.56178 0.2532 0.62565 0.0
N119 N 0.5038 0.20484 0.64926 0.0
C120 C 0.45314 0.2066 0.66679 0.0
C121 C 0.47287 0.1867 0.67143 0.0
C122 C 0.4983 0.18646 0.66272 0.0
C123 C 0.48495 0.22466 0.64471 0.0
C124 C 0.45932 0.226 0.65342 0.0
H125 H 0.5138 0.17199 0.66723 0.0
H126 H 0.48999 0.23964 0.63441 0.0
H127 H 0.58483 0.18164 0.66243 0.0
H128 H 0.56717 0.24986 0.69569 0.0
H129 H 0.4802 0.1649 0.58839 0.0
H130 H 0.46893 0.17193 0.6821 0.0
H131 H 0.44457 0.24192 0.64979 0.0
C132 C 0.23676 0.56188 0.67593 0.0
C133 C 0.23495 0.58141 0.68932 0.0
N134 N 0.21146 0.59607 0.68691 0.0
N135 N 0.21441 0.564 0.66524 0.0
C136 C 0.19956 0.5851 0.67207 0.0
H137 H 0.25307 0.54679 0.67421 0.0
Co138 Co 0.20718 0.54236 0.64535 0.0
C139 C 0.14872 0.55288 0.63706 0.0
O140 O 0.15609 0.56136 0.62097 0.0
N141 N 0.20018 0.5203 0.62516 0.0
C142 C 0.18242 0.48809 0.60725 0.0
C143 C 0.18312 0.4982 0.62448 0.0
C144 C 0.20959 0.52317 0.60818 0.0
N145 N 0.19898 0.50394 0.59693 0.0
O146 O 0.20923 0.57511 0.63092 0.0
H147 H 0.17143 0.49024 0.63575 0.0
H148 H 0.22314 0.53968 0.60398 0.0
O149 O 0.16732 0.54648 0.64851 0.0
C150 C 0.2341 0.58125 0.62696 0.0
O151 O 0.25372 0.5635 0.63108 0.0
N152 N 0.20708 0.51096 0.66003 0.0
C153 C 0.21007 0.46483 0.68237 0.0
C154 C 0.19042 0.48566 0.68546 0.0
C155 C 0.18944 0.50866 0.67426 0.0
C156 C 0.22673 0.49127 0.65695 0.0
C157 C 0.22839 0.46778 0.66787 0.0
H158 H 0.17483 0.52489 0.6773 0.0
H159 H 0.24114 0.49386 0.64595 0.0
H160 H 0.1804 0.59218 0.66615 0.0
H161 H 0.24951 0.58391 0.70024 0.0
H162 H 0.17033 0.4706 0.60272 0.0
H163 H 0.17573 0.48417 0.69641 0.0
H164 H 0.24408 0.45233 0.66517 0.0
C165 C 0.57082 0.77949 0.3303 0.0
C166 C 0.5915 0.78263 0.31777 0.0
N167 N 0.59865 0.80954 0.31733 0.0
N168 N 0.56515 0.80427 0.33775 0.0
C169 C 0.58242 0.82221 0.32958 0.0
H170 H 0.56041 0.7604 0.33371 0.0
Co171 Co 0.53938 0.80954 0.35575 0.0
C172 C 0.54898 0.8661 0.36871 0.0
O173 O 0.5541 0.85585 0.38473 0.0
N174 N 0.51305 0.81447 0.37398 0.0
C175 C 0.47844 0.83203 0.39002 0.0
C176 C 0.49179 0.83261 0.37372 0.0
C177 C 0.51192 0.8029 0.39048 0.0
N178 N 0.49127 0.81342 0.4006 0.0
O179 O 0.56857 0.80427 0.37291 0.0
H180 H 0.48701 0.84632 0.36265 0.0
H181 H 0.52635 0.78755 0.39523 0.0
O182 O 0.54479 0.84965 0.35554 0.0
C183 C 0.57207 0.7787 0.3764 0.0
O184 O 0.55384 0.76089 0.37023 0.0
N185 N 0.51172 0.81239 0.3384 0.0
C186 C 0.47157 0.81134 0.31158 0.0
C187 C 0.49142 0.83251 0.31214 0.0
C188 C 0.5115 0.83251 0.32555 0.0
C189 C 0.49276 0.79154 0.3381 0.0
C190 C 0.47228 0.79073 0.32485 0.0
H191 H 0.52721 0.84836 0.32527 0.0
H192 H 0.49377 0.77531 0.3481 0.0
H193 H 0.58318 0.84411 0.33253 0.0
H194 H 0.60003 0.76657 0.30927 0.0
H195 H 0.46159 0.84541 0.39404 0.0
H196 H 0.49152 0.84897 0.30225 0.0
H197 H 0.4576 0.7738 0.32477 0.0
C198 C 0.78861 0.45242 0.67722 0.0
C199 C 0.78419 0.43351 0.69072 0.0
N200 N 0.79874 0.41049 0.68689 0.0
N201 N 0.80633 0.44165 0.66507 0.0
C202 C 0.81143 0.41579 0.67109 0.0
H203 H 0.77952 0.47281 0.67644 0.0
Co204 Co 0.81781 0.4581 0.64361 0.0
C205 C 0.87503 0.44093 0.65906 0.0
O206 O 0.86698 0.43101 0.67464 0.0
N207 N 0.82866 0.47461 0.62212 0.0
C208 C 0.85294 0.49861 0.6021 0.0
C209 C 0.85091 0.49116 0.61986 0.0
C210 C 0.81711 0.47283 0.60563 0.0
N211 N 0.83164 0.48706 0.59322 0.0
O212 O 0.8133 0.42312 0.6318 0.0
H213 H 0.8649 0.49736 0.63047 0.0
H214 H 0.7988 0.46086 0.60262 0.0
O215 O 0.85718 0.45046 0.64798 0.0
C216 C 0.78804 0.41951 0.6275 0.0
O217 O 0.77057 0.43992 0.63027 0.0
N218 N 0.82006 0.49258 0.65503 0.0
C219 C 0.81588 0.54327 0.67251 0.0
C220 C 0.8371 0.52473 0.67686 0.0
C221 C 0.83861 0.49931 0.66815 0.0
C222 C 0.79955 0.5106 0.65037 0.0
C223 C 0.7969 0.53608 0.65909 0.0
H224 H 0.85407 0.48492 0.67258 0.0
H225 H 0.78466 0.50471 0.6402 0.0
H226 H 0.82452 0.4012 0.66405 0.0
H227 H 0.77207 0.4369 0.70275 0.0
H228 H 0.86873 0.51161 0.59617 0.0
H229 H 0.85171 0.52936 0.6875 0.0
H230 H 0.78009 0.54986 0.65555 0.0
C231 C 0.41982 0.22651 0.32584 0.0
C232 C 0.39943 0.22369 0.31312 0.0
N233 N 0.38957 0.19764 0.314 0.0
N234 N 0.42278 0.20241 0.33471 0.0
C235 C 0.40402 0.18521 0.32729 0.0
H236 H 0.43216 0.24479 0.32827 0.0
Co237 Co 0.44831 0.19726 0.35279 0.0
C238 C 0.43738 0.14179 0.3673 0.0
O239 O 0.43321 0.15298 0.38317 0.0
N240 N 0.47453 0.19271 0.37111 0.0
C241 C 0.50907 0.17598 0.38759 0.0
C242 C 0.49524 0.17396 0.3715 0.0
C243 C 0.47642 0.20605 0.38701 0.0
N244 N 0.49708 0.19613 0.39738 0.0
O245 O 0.4194 0.20461 0.36981 0.0
H246 H 0.49944 0.15907 0.36099 0.0
H247 H 0.46266 0.22245 0.39111 0.0
O248 O 0.44134 0.15745 0.35372 0.0
C249 C 0.41587 0.2304 0.37252 0.0
O250 O 0.43405 0.24779 0.36579 0.0
N251 N 0.47573 0.19194 0.33542 0.0
C252 C 0.51506 0.18856 0.30811 0.0
C253 C 0.49405 0.16869 0.30961 0.0
C254 C 0.4744 0.17094 0.32319 0.0
C255 C 0.49589 0.21156 0.33424 0.0
C256 C 0.51595 0.21018 0.32072 0.0
H257 H 0.45775 0.15611 0.32349 0.0
H258 H 0.49614 0.22855 0.34372 0.0
H259 H 0.40125 0.16391 0.33138 0.0
H260 H 0.39322 0.23923 0.30345 0.0
H261 H 0.52578 0.16275 0.39204 0.0
H262 H 0.49266 0.15148 0.30033 0.0
H263 H 0.53157 0.22619 0.31993 0.0
C264 C 0.73455 0.94622 0.82121 0.0
C265 C 0.73723 0.92948 0.80635 0.0
N266 N 0.71271 0.91702 0.80331 0.0
N267 N 0.70848 0.9444 0.82745 0.0
C268 C 0.69571 0.92635 0.81641 0.0
H269 H 0.75048 0.95912 0.82704 0.0
Co270 Co 0.69533 0.96354 0.84721 0.0
C271 C 0.63738 0.94563 0.85037 0.0
O272 O 0.64325 0.93432 0.86598 0.0
N273 N 0.68259 0.98299 0.86727 0.0
C274 C 0.65747 0.00969 0.88535 0.0
C275 C 0.66064 1.00029 0.86803 0.0
C276 C 0.69284 0.98279 0.88413 0.0
N277 N 0.67784 0.99869 0.89538 0.0
O278 O 0.6983 0.93 0.86084 0.0
H279 H 0.64754 0.00549 0.85672 0.0
H280 H 0.71052 0.97072 0.88829 0.0
O281 O 0.65686 0.95588 0.84089 0.0
C282 C 0.72258 0.92554 0.86682 0.0
O283 O 0.74138 0.94494 0.86483 0.0
N284 N 0.69433 0.99595 0.83353 0.0
C285 C 0.69756 0.04287 0.81209 0.0
C286 C 0.68189 0.02006 0.80661 0.0
C287 C 0.68046 0.99679 0.81754 0.0
C288 C 0.70992 0.01792 0.83903 0.0
C289 C 0.71144 0.04196 0.82859 0.0
H290 H 0.66887 0.97912 0.81285 0.0
H291 H 0.72142 0.01667 0.85148 0.0
H292 H 0.67411 0.92086 0.81763 0.0
H293 H 0.75578 0.92684 0.7984 0.0
H294 H 0.64151 0.02351 0.89021 0.0
H295 H 0.67091 0.02021 0.7939 0.0
H296 H 0.72381 0.0593 0.8331 0.0
C297 C 0.93411 0.28198 0.16092 0.0
C298 C 0.91372 0.28725 0.17335 0.0
N299 N 0.90807 0.31453 0.17293 0.0
N300 N 0.94111 0.30579 0.15268 0.0
C301 C 0.92495 0.3253 0.16029 0.0
H302 H 0.94331 0.26207 0.15805 0.0
Co303 Co 0.96685 0.30805 0.13442 0.0
C304 C 0.96023 0.36381 0.11935 0.0
O305 O 0.95518 0.35267 0.10357 0.0
N306 N 0.99336 0.31001 0.11583 0.0
C307 C 0.03006 0.32292 0.09981 0.0
C308 C 0.01745 0.3242 0.11632 0.0
C309 C 0.99191 0.30035 0.09879 0.0
N310 N 0.01384 0.30803 0.08872 0.0
O311 O 0.93723 0.30257 0.11764 0.0
H312 H 0.02499 0.33583 0.12773 0.0
H313 H 0.97434 0.28937 0.09344 0.0
O314 O 0.96331 0.3482 0.13304 0.0
C315 C 0.93338 0.27686 0.11477 0.0
O316 O 0.95155 0.25917 0.12115 0.0
N317 N 0.99476 0.31103 0.15162 0.0
C318 C 0.03651 0.31082 0.17725 0.0
C319 C 0.0193 0.33392 0.17527 0.0
C320 C 0.99816 0.33344 0.16257 0.0
C321 C 0.01092 0.28812 0.15361 0.0
C322 C 0.032 0.28752 0.16646 0.0
H323 H 0.98442 0.35096 0.16181 0.0
H324 H 0.00735 0.27025 0.14516 0.0
H325 H 0.92531 0.34693 0.15655 0.0
H326 H 0.90425 0.27231 0.18227 0.0
H327 H 0.04928 0.33292 0.09618 0.0
H328 H 0.02183 0.35197 0.18376 0.0
H329 H 0.04479 0.26924 0.16784 0.0
C330 C 0.27707 0.05416 0.81116 0.0
C331 C 0.27682 0.07095 0.79623 0.0
N332 N 0.29734 0.08959 0.79797 0.0
N333 N 0.29798 0.06194 0.82204 0.0
C334 C 0.3098 0.08374 0.81375 0.0
H335 H 0.26301 0.03727 0.81391 0.0
Co336 Co 0.3069 0.04621 0.84389 0.0
C337 C 0.36504 0.06217 0.84972 0.0
O338 O 0.35796 0.07399 0.86495 0.0
N339 N 0.31557 0.03007 0.86597 0.0
C340 C 0.3356 0.00415 0.88691 0.0
C341 C 0.33548 0.01104 0.86901 0.0
C342 C 0.30369 0.03421 0.88216 0.0
N343 N 0.31559 0.01879 0.89517 0.0
O344 O 0.30304 0.08195 0.85483 0.0
H345 H 0.34931 1.00291 0.85887 0.0
H346 H 0.28655 0.0481 0.88441 0.0
O347 O 0.34629 0.05205 0.83958 0.0
C348 C 0.27789 0.08718 0.85859 0.0
O349 O 0.25931 0.06777 0.85584 0.0
N350 N 0.30864 0.01146 0.83296 0.0
C351 C 0.30716 0.95969 0.81683 0.0
C352 C 0.32741 0.97898 0.81198 0.0
C353 C 0.32751 0.005 0.81998 0.0
C354 C 0.28858 0.99303 0.83774 0.0
C355 C 0.28734 0.9669 0.82972 0.0
H356 H 0.3423 0.02008 0.81534 0.0
H357 H 0.27332 0.99882 0.84769 0.0
H358 H 0.32748 0.09482 0.81905 0.0
H359 H 0.26262 0.06966 0.785 0.0
H360 H 0.34982 0.99003 0.89339 0.0
H361 H 0.34251 0.97426 0.80166 0.0
H362 H 0.27118 0.95252 0.83351 0.0
C363 C 0.08265 0.72469 0.16063 0.0
C364 C 0.10109 0.72404 0.17466 0.0
N365 N 0.11435 0.69955 0.17423 0.0
N366 N 0.08413 0.70064 0.15153 0.0
C367 C 0.10383 0.68576 0.15999 0.0
H368 H 0.0684 0.74126 0.15753 0.0
Co369 Co 0.06095 0.69269 0.13259 0.0
C370 C 0.07645 0.63739 0.11992 0.0
O371 O 0.0818 0.64807 0.10404 0.0
N372 N 0.03695 0.68536 0.1134 0.0
C373 C 0.00453 0.66591 0.09639 0.0
C374 C 0.01706 0.66574 0.11296 0.0
C375 C 0.03595 0.69728 0.097 0.0
N376 N 0.01653 0.68572 0.08632 0.0
O377 O 0.09095 0.70076 0.11658 0.0
H378 H 0.01235 0.65171 0.12387 0.0
H379 H 0.04987 0.7134 0.09267 0.0
O380 O 0.0705 0.65344 0.13299 0.0
C381 C 0.09378 0.7264 0.1131 0.0
O382 O 0.07455 0.74365 0.11863 0.0
N383 N 0.03225 0.68649 0.14898 0.0
C384 C 0.9903 0.68066 0.17428 0.0
C385 C 0.01285 0.66251 0.17415 0.0
C386 C 0.03381 0.66602 0.16158 0.0
C387 C 0.01071 0.70471 0.14903 0.0
C388 C 0.98939 0.70219 0.16166 0.0
H389 H 0.05164 0.65268 0.16242 0.0
H390 H 0.01023 0.72137 0.13931 0.0
H391 H 0.10937 0.66479 0.15639 0.0
H392 H 0.10406 0.74002 0.18468 0.0
H393 H 0.98808 0.65225 0.09209 0.0
H394 H 0.01469 0.64618 0.18407 0.0
H395 H 0.97238 0.71678 0.16153 0.0
C396 C 0.73267 0.05937 0.16709 0.0
C397 C 0.72422 0.07716 0.18036 0.0
N398 N 0.6981 0.08521 0.17672 0.0
N399 N 0.71198 0.05602 0.15519 0.0
C400 C 0.69118 0.07206 0.16131 0.0
H401 H 0.75261 0.04932 0.16615 0.0
Co402 Co 0.71586 0.03408 0.13517 0.0
C403 C 0.66017 0.01683 0.12314 0.0
O404 O 0.67103 0.99266 0.11924 0.0
N405 N 0.72141 0.01213 0.11442 0.0
C406 C 0.73183 0.97957 0.09428 0.0
C407 C 0.73287 0.98678 0.11214 0.0
C408 C 0.71423 0.01999 0.09759 0.0
N409 N 0.72016 1.00055 0.08521 0.0
O410 O 0.7224 0.0668 0.12129 0.0
H411 H 0.74139 0.97384 0.12252 0.0
H412 H 0.70397 0.03933 0.0945 0.0
O413 O 0.67543 0.03596 0.1299 0.0
C414 C 0.74792 0.07134 0.11826 0.0
O415 O 0.76607 0.05273 0.12347 0.0
N416 N 0.71121 1.00291 0.15008 0.0
C417 C 0.70925 0.96053 0.17559 0.0
C418 C 0.68561 0.97612 0.17152 0.0
C419 C 0.68716 0.99755 0.15908 0.0
C420 C 0.73487 0.9894 0.15487 0.0
C421 C 0.73428 0.96763 0.16725 0.0
H422 H 0.66925 0.01059 0.15753 0.0
H423 H 0.75442 0.99574 0.14911 0.0
H424 H 0.67153 0.07425 0.15451 0.0
H425 H 0.73625 0.08314 0.192 0.0
H426 H 0.7393 0.9605 0.08839 0.0
H427 H 0.66625 0.97265 0.17849 0.0
H428 H 0.75325 0.95673 0.17036 0.0
C429 C 0.0495 0.27622 0.8148 0.0
C430 C 0.06844 0.27637 0.80102 0.0
N431 N 0.08574 0.29799 0.80345 0.0
N432 N 0.05458 0.29782 0.82574 0.0
C433 C 0.07681 0.31055 0.81863 0.0
H434 H 0.03308 0.26133 0.81678 0.0
Co435 Co 0.03634 0.30593 0.84691 0.0
C436 C 0.04946 0.36451 0.85345 0.0
O437 O 0.06107 0.35744 0.86875 0.0
N438 N 0.01794 0.31374 0.86841 0.0
C439 C 0.98989 0.33248 0.88872 0.0
C440 C 0.99718 0.33207 0.87086 0.0
C441 C 0.0228 0.30322 0.88491 0.0
N442 N 0.00617 0.31439 0.89752 0.0
O443 O 0.07123 0.30353 0.85913 0.0
H444 H 0.98831 0.3448 0.86037 0.0
H445 H 0.03835 0.28778 0.88773 0.0
O446 O 0.04049 0.34566 0.84292 0.0
C447 C 0.07744 0.27847 0.86258 0.0
O448 O 0.0589 0.25922 0.85931 0.0
N449 N 1.00269 0.30623 0.8345 0.0
C450 C 0.9546 0.30102 0.81423 0.0
C451 C 0.97481 0.32054 0.80958 0.0
C452 C 0.99876 0.32276 0.81984 0.0
C453 C 0.98327 0.28714 0.8393 0.0
C454 C 0.95877 0.28444 0.82945 0.0
H455 H 0.01465 0.33699 0.81553 0.0
H456 H 0.98707 0.27361 0.85062 0.0
H457 H 0.08651 0.32833 0.82479 0.0
H458 H 0.06907 0.26182 0.78998 0.0
H459 H 0.97456 0.3458 0.89485 0.0
H460 H 0.97227 0.3338 0.79795 0.0
H461 H 0.94368 0.26899 0.83334 0.0
C462 C 0.28522 0.94595 0.162 0.0
C463 C 0.28692 0.92674 0.17558 0.0
N464 N 0.31067 0.91242 0.17357 0.0
N465 N 0.30786 0.94389 0.15157 0.0
C466 C 0.32287 0.9232 0.15879 0.0
H467 H 0.26876 0.96079 0.15997 0.0
Co468 Co 0.31478 0.96548 0.13164 0.0
C469 C 0.37227 0.95188 0.12214 0.0
O470 O 0.36353 0.9427 0.10651 0.0
N471 N 0.32135 0.98755 0.11152 0.0
C472 C 0.33894 0.01954 0.09338 0.0
C473 C 0.34058 0.00771 0.11013 0.0
C474 C 0.30819 0.98763 0.09552 0.0
N475 N 0.31857 0.00683 0.08421 0.0
O476 O 0.31048 0.93313 0.11699 0.0
H477 H 0.35506 0.0133 0.12061 0.0
H478 H 0.29123 0.97402 0.0922 0.0
O479 O 0.35467 0.95988 0.13384 0.0
C480 C 0.28502 0.92852 0.11374 0.0
O481 O 0.26675 0.94696 0.11903 0.0
N482 N 0.31674 0.99659 0.14637 0.0
C483 C 0.31438 0.04206 0.16922 0.0
C484 C 0.33475 0.0217 0.1715 0.0
C485 C 0.3354 0.99894 0.16005 0.0
C486 C 0.2966 0.01599 0.14401 0.0
C487 C 0.29507 0.03903 0.1553 0.0
H488 H 0.35027 0.98276 0.16261 0.0
H489 H 0.28145 0.01332 0.13344 0.0
H490 H 0.34234 0.91622 0.15325 0.0
H491 H 0.27218 0.92423 0.18641 0.0
H492 H 0.35223 0.03571 0.0882 0.0
H493 H 0.34949 0.02285 0.18245 0.0
H494 H 0.27894 0.05424 0.15319 0.0
C495 C 0.93817 0.7318 0.81904 0.0
C496 C 0.91952 0.73241 0.80509 0.0
N497 N 0.90375 0.70949 0.80611 0.0
N498 N 0.93436 0.70842 0.82859 0.0
C499 C 0.91308 0.69535 0.82053 0.0
H500 H 0.95374 0.74722 0.82197 0.0
Co501 Co 0.95469 0.69874 0.8486 0.0
C502 C 0.93997 0.64069 0.85553 0.0
O503 O 0.93069 0.64806 0.87143 0.0
N504 N 0.97549 0.68947 0.8689 0.0
C505 C 0.00591 0.66913 0.88697 0.0
C506 C 0.99561 0.67013 0.86978 0.0
C507 C 0.97408 0.70004 0.88567 0.0
N508 N 0.99228 0.68793 0.89698 0.0
O509 O 0.92165 0.70239 0.86264 0.0
H510 H 1.00224 0.65738 0.85863 0.0
H511 H 0.95955 0.71584 0.88966 0.0
O512 O 0.94815 0.65931 0.84456 0.0
C513 C 0.9172 0.72751 0.86693 0.0
O514 O 0.93638 0.74595 0.86325 0.0
N515 N 0.98652 0.69728 0.8344 0.0
C516 C 0.03284 0.69992 0.81219 0.0
C517 C 0.01156 0.6809 0.80876 0.0
C518 C 0.98843 0.68014 0.81988 0.0
C519 C 0.00686 0.71602 0.83798 0.0
C520 C 0.03039 0.71756 0.8271 0.0
H521 H 0.97173 0.66631 0.81644 0.0
H522 H 0.00459 0.73008 0.84921 0.0
H523 H 0.90507 0.67553 0.82487 0.0
H524 H 0.91779 0.74835 0.79492 0.0
H525 H 0.02222 0.6556 0.89165 0.0
H526 H 0.01263 0.66669 0.79752 0.0
H527 H 0.04613 0.73282 0.83008 0.0
H528 H 0.8854 0.55172 0.3452 0.0
H529 H 0.93572 0.5442 0.34315 0.0
H530 H 0.93239 0.49188 0.39006 0.0
H531 H 0.88249 0.49888 0.39196 0.0
H532 H 0.98231 0.54998 0.36749 0.0
H533 H 0.96167 0.44039 0.35025 0.0
H534 H 0.93505 0.46658 0.34983 0.0
H535 H 0.94534 0.45105 0.37079 0.0
C536 C 0.89559 0.53928 0.35534 0.0
C537 C 0.88004 0.52573 0.36868 0.0
C538 C 0.92428 0.53482 0.35409 0.0
C539 C 0.93767 0.51686 0.36618 0.0
C540 C 0.92242 0.50525 0.38033 0.0
H541 H 0.09593 0.44483 0.38889 0.0
H542 H 0.04756 0.45948 0.38715 0.0
C543 C 0.89392 0.50946 0.38148 0.0
C544 C 0.96706 0.5086 0.3636 0.0
H545 H 0.00817 0.45161 0.35819 0.0
C546 C 0.98801 0.52856 0.36522 0.0
C547 C 0.97447 0.48063 0.36051 0.0
C548 C 0.95296 0.45845 0.35756 0.0
C549 C 0.01616 0.52104 0.3647 0.0
C550 C 0.02349 0.4929 0.36232 0.0
C551 C 1.00253 0.47313 0.36015 0.0
C552 C 0.05272 0.48334 0.36278 0.0
C553 C 0.03788 0.54306 0.36737 0.0
C554 C 0.07155 0.49123 0.34937 0.0
C555 C 0.09922 0.48268 0.35023 0.0
C556 C 0.10866 0.46611 0.36456 0.0
C557 C 0.08948 0.4576 0.37768 0.0
C558 C 0.0618 0.46601 0.37674 0.0
H559 H 0.02885 0.56283 0.37223 0.0
H560 H 0.05376 0.53602 0.37714 0.0
H561 H 0.04843 0.5471 0.35438 0.0
H562 H 0.06489 0.50417 0.33829 0.0
H563 H 0.11329 0.48965 0.33988 0.0
H564 H 0.52824 0.12558 0.66174 0.0
H565 H 0.50989 0.0789 0.66589 0.0
H566 H 0.54016 0.05582 0.61347 0.0
H567 H 0.55862 0.10242 0.6092 0.0
H568 H 0.4698 0.05389 0.64474 0.0
H569 H 0.56595 0.99143 0.64482 0.0
H570 H 0.56605 0.02848 0.64796 0.0
H571 H 0.56303 0.01404 0.62576 0.0
C572 C 0.53134 0.11054 0.65117 0.0
C573 C 0.54485 0.11791 0.63509 0.0
C574 C 0.52079 0.08381 0.65357 0.0
C575 C 0.52375 0.06376 0.64005 0.0
C576 C 0.538 0.07076 0.62423 0.0
H577 H 0.42663 0.91793 0.61722 0.0
H578 H 0.44516 0.96483 0.61955 0.0
C579 C 0.54853 0.0975 0.6218 0.0
C580 C 0.51045 0.03613 0.64199 0.0
H581 H 0.52359 0.96668 0.64124 0.0
C582 C 0.48159 0.03482 0.64412 0.0
C583 C 0.52582 0.01123 0.64139 0.0
C584 C 0.55696 0.01127 0.64003 0.0
C585 C 0.46765 0.00932 0.64514 0.0
C586 C 0.48291 0.98442 0.64376 0.0
C587 C 0.51184 0.98574 0.64216 0.0
C588 C 0.46933 0.95677 0.64348 0.0
C589 C 0.43671 0.00927 0.64777 0.0
C590 C 0.47653 0.93658 0.65622 0.0
C591 C 0.46595 0.90968 0.65493 0.0
C592 C 0.44814 0.90228 0.64073 0.0
C593 C 0.44013 0.92286 0.62839 0.0
C594 C 0.45069 0.94977 0.62972 0.0
H595 H 0.42934 0.02907 0.65366 0.0
H596 H 0.42645 0.00658 0.63454 0.0
H597 H 0.43018 0.992 0.65666 0.0
H598 H 0.49089 0.94147 0.66695 0.0
H599 H 0.47264 0.89446 0.66467 0.0
H600 H 0.90013 0.45874 0.6281 0.0
H601 H 0.94697 0.47718 0.62482 0.0
H602 H 0.96396 0.45777 0.68032 0.0
H603 H 0.91713 0.43945 0.68376 0.0
H604 H 0.96838 0.52195 0.64471 0.0
H605 H 0.03232 0.42765 0.65418 0.0
H606 H 0.99585 0.42615 0.64903 0.0
H607 H 0.00718 0.4336 0.67153 0.0
C608 C 0.91387 0.45815 0.63958 0.0
C609 C 0.90468 0.44786 0.65625 0.0
C610 C 0.94068 0.46867 0.63767 0.0
C611 C 0.95903 0.4688 0.6523 0.0
C612 C 0.95033 0.45754 0.66876 0.0
H613 H 0.12615 0.5321 0.66814 0.0
H614 H 0.07955 0.51354 0.67239 0.0
C615 C 0.92348 0.44707 0.6707 0.0
C616 C 0.98656 0.48233 0.65065 0.0
H617 H 0.0561 0.47056 0.65367 0.0
C618 C 0.98758 0.51069 0.64658 0.0
C619 C 0.01158 0.46768 0.65325 0.0
C620 C 0.01183 0.43704 0.65709 0.0
C621 C 0.01289 0.52488 0.64525 0.0
C622 C 0.03794 0.5102 0.64769 0.0
C623 C 0.03691 0.48184 0.65185 0.0
C624 C 0.06548 0.52361 0.64555 0.0
C625 C 0.01249 0.55559 0.64162 0.0
C626 C 0.07307 0.53578 0.62912 0.0
C627 C 0.09968 0.54655 0.62668 0.0
C628 C 0.11943 0.54514 0.64056 0.0
C629 C 0.11154 0.53359 0.65716 0.0
C630 C 0.08489 0.52285 0.6596 0.0
H631 H 0.99235 0.565 0.64541 0.0
H632 H 0.02923 0.56635 0.64908 0.0
H633 H 0.01568 0.55921 0.62703 0.0
H634 H 0.0587 0.53613 0.61796 0.0
H635 H 0.10504 0.55506 0.61367 0.0
H636 H 0.53563 0.89479 0.33795 0.0
H637 H 0.51791 0.94213 0.33578 0.0
H638 H 0.52693 0.95177 0.39313 0.0
H639 H 0.54512 0.90486 0.39537 0.0
H640 H 0.47139 0.96281 0.35074 0.0
H641 H 0.56096 0.02266 0.37577 0.0
H642 H 0.56371 0.98676 0.36936 0.0
H643 H 0.55085 0.99611 0.39126 0.0
C644 C 0.53434 0.90714 0.35007 0.0
C645 C 0.54191 0.89593 0.36684 0.0
C646 C 0.52409 0.93422 0.34881 0.0
C647 C 0.52132 0.95074 0.36426 0.0
C648 C 0.52945 0.93978 0.38094 0.0
H649 H 0.44531 0.1051 0.39484 0.0
H650 H 0.46426 0.05831 0.39297 0.0
C651 C 0.53979 0.91281 0.3822 0.0
C652 C 0.50836 0.9787 0.3632 0.0
H653 H 0.51737 0.0463 0.37545 0.0
C654 C 0.4816 0.98112 0.35594 0.0
C655 C 0.52163 1.00269 0.36995 0.0
C656 C 0.55098 1.00202 0.37685 0.0
C657 C 0.46745 0.00659 0.35585 0.0
C658 C 0.48042 0.03029 0.36312 0.0
C659 C 0.50734 0.02803 0.37004 0.0
C660 C 0.46637 0.05764 0.36394 0.0
C661 C 0.43842 0.00785 0.34846 0.0
C662 C 0.46077 0.07267 0.34819 0.0
C663 C 0.44992 0.09953 0.34919 0.0
C664 C 0.44447 0.1119 0.36598 0.0
C665 C 0.44908 0.09628 0.38168 0.0
C666 C 0.46008 0.06953 0.38066 0.0
H667 H 0.42955 0.98692 0.34625 0.0
H668 H 0.4247 0.0195 0.35775 0.0
H669 H 0.43863 0.01894 0.3354 0.0
H670 H 0.46569 0.064 0.33515 0.0
H671 H 0.44663 0.11089 0.33684 0.0
H672 H 0.6179 0.976 0.82181 0.0
H673 H 0.57163 0.9957 0.81824 0.0
H674 H 0.54477 0.95363 0.86627 0.0
H675 H 0.59084 0.93357 0.86987 0.0
H676 H 0.50509 0.95315 0.8388 0.0
H677 H 0.54556 0.05916 0.85085 0.0
H678 H 0.56157 0.04089 0.83256 0.0
H679 H 0.5658 0.0285 0.85517 0.0
C680 C 0.60207 0.9705 0.83146 0.0
C681 C 0.60827 0.95336 0.84624 0.0
C682 C 0.57565 0.98201 0.82947 0.0
C683 C 0.55491 0.97669 0.84223 0.0
C684 C 0.56051 0.95823 0.85634 0.0
H685 H 0.40899 0.0678 0.87268 0.0
H686 H 0.45525 0.04805 0.86935 0.0
C687 C 0.58691 0.94671 0.85835 0.0
C688 C 0.52779 0.99122 0.84142 0.0
H689 H 0.49788 0.05519 0.84449 0.0
C690 C 0.5035 0.97547 0.83992 0.0
C691 C 0.52572 0.02034 0.84317 0.0
C692 C 0.55099 0.03827 0.84569 0.0
C693 C 0.47724 0.988 0.84015 0.0
C694 C 0.47518 0.01716 0.84166 0.0
C695 C 0.49948 0.0329 0.84313 0.0
C696 C 0.44796 0.03147 0.84275 0.0
C697 C 0.45188 0.96982 0.83938 0.0
C698 C 0.42879 0.02973 0.82861 0.0
C699 C 0.40228 0.04108 0.83045 0.0
C700 C 0.39441 0.05448 0.84646 0.0
C701 C 0.41425 0.05761 0.86017 0.0
C702 C 0.44073 0.04623 0.85832 0.0
H703 H 0.45684 0.94786 0.8424 0.0
H704 H 0.43592 0.97706 0.84903 0.0
H705 H 0.4429 0.97074 0.82566 0.0
H706 H 0.43412 0.01906 0.81628 0.0
H707 H 0.38774 0.03865 0.8195 0.0
H708 H 0.96941 0.39498 0.14968 0.0
H709 H 0.9884 0.44187 0.15128 0.0
H710 H 0.98912 0.44628 0.09337 0.0
H711 H 0.96985 0.39973 0.09165 0.0
H712 H 0.038 0.4597 0.13864 0.0
H713 H 0.95442 0.5195 0.10587 0.0
H714 H 0.94961 0.48436 0.11345 0.0
H715 H 0.96607 0.49125 0.0922 0.0
C716 C 0.97324 0.40606 0.13729 0.0
C717 C 0.96808 0.3935 0.12054 0.0
C718 C 0.98415 0.43289 0.13823 0.0
C719 C 0.98998 0.4478 0.12246 0.0
C720 C 0.98425 0.43553 0.10574 0.0
H721 H 0.07224 0.59953 0.0927 0.0
H722 H 0.0529 0.5529 0.09436 0.0
C723 C 0.97325 0.40879 0.10479 0.0
C724 C 0.00355 0.47545 0.12338 0.0
H725 H 0.9982 0.54221 0.1086 0.0
C726 C 0.02915 0.47781 0.13224 0.0
C727 C 0.99202 0.49915 0.11505 0.0
C728 C 0.96389 0.49856 0.10627 0.0
C729 C 0.04388 0.50292 0.13249 0.0
C730 C 0.03267 0.52634 0.12374 0.0
C731 C 0.0069 0.52414 0.11515 0.0
C732 C 0.04729 0.5534 0.12321 0.0
C733 C 0.07169 0.50406 0.14166 0.0
C734 C 0.05114 0.56899 0.13894 0.0
C735 C 0.06225 0.59573 0.13805 0.0
C736 C 0.06966 0.60745 0.12139 0.0
C737 C 0.06693 0.59122 0.10577 0.0
C738 C 0.0557 0.56457 0.10667 0.0
H739 H 0.0799 0.48308 0.14462 0.0
H740 H 0.08691 0.51532 0.1332 0.0
H741 H 0.06963 0.51542 0.15456 0.0
H742 H 0.04455 0.5609 0.15183 0.0
H743 H 0.06408 0.60756 0.15035 0.0
H744 H 0.41534 0.93886 0.09982 0.0
H745 H 0.46329 0.95454 0.10194 0.0
H746 H 0.44468 0.9964 0.15168 0.0
H747 H 0.39682 0.98042 0.14985 0.0
H748 H 0.48083 0.00876 0.10204 0.0
H749 H 0.51566 0.9559 0.16442 0.0
H750 H 0.48443 0.94615 0.15272 0.0
H751 H 0.48486 0.97633 0.16683 0.0
C752 C 0.42151 0.95098 0.1114 0.0
C753 C 0.40212 0.95828 0.12468 0.0
C754 C 0.44895 0.96005 0.11254 0.0
C755 C 0.45772 0.97653 0.12702 0.0
C756 C 0.43861 0.9833 0.14055 0.0
H757 H 0.62506 0.0448 0.14597 0.0
H758 H 0.57434 0.03994 0.14733 0.0
C759 C 0.41115 0.97415 0.13945 0.0
C760 C 0.48642 0.98776 0.12733 0.0
H761 H 0.54712 0.98704 0.15095 0.0
C762 C 0.49527 0.00407 0.11278 0.0
C763 C 0.50522 0.98196 0.14144 0.0
C764 C 0.49723 0.96395 0.15718 0.0
C765 C 0.52247 0.01421 0.11177 0.0
C766 C 0.54151 0.00765 0.12556 0.0
C767 C 0.53245 0.9922 0.14044 0.0
C768 C 0.57154 0.01376 0.12377 0.0
C769 C 0.5307 0.03166 0.09582 0.0
C770 C 0.58667 1.00105 0.10997 0.0
C771 C 0.61539 0.00371 0.10923 0.0
C772 C 0.62969 0.01923 0.12223 0.0
C773 C 0.61451 0.03308 0.13561 0.0
C774 C 0.58561 0.03012 0.13648 0.0
H775 H 0.51245 0.04177 0.08956 0.0
H776 H 0.54582 0.04786 0.09976 0.0
H777 H 0.54049 0.01823 0.08553 0.0
H778 H 0.57639 0.98799 0.1002 0.0
H779 H 0.62656 0.99267 0.09883 0.0
H780 H 0.93178 0.59623 0.87774 0.0
H781 H 0.95016 0.54943 0.87425 0.0
H782 H 0.98302 0.57123 0.82227 0.0
H783 H 0.96496 0.6182 0.82569 0.0
H784 H 0.94284 0.50791 0.84853 0.0
H785 H 0.05166 0.5448 0.84982 0.0
H786 H 0.02291 0.56661 0.85604 0.0
H787 H 0.03035 0.5602 0.83274 0.0
C788 C 0.94258 0.59104 0.86544 0.0
C789 C 0.94709 0.61119 0.85208 0.0
C790 C 0.95314 0.56423 0.86348 0.0
C791 C 0.96852 0.55695 0.84818 0.0
C792 C 0.97178 0.57653 0.83439 0.0
H793 H 0.01959 0.38609 0.82529 0.0
H794 H 1.00086 0.43291 0.82256 0.0
C795 C 0.96122 0.60337 0.83632 0.0
C796 C 0.98184 0.52921 0.84703 0.0
H797 H 0.04476 0.49691 0.84534 0.0
C798 C 0.96511 0.50549 0.84773 0.0
C799 C 0.01095 0.52606 0.84625 0.0
C800 C 0.03011 0.55072 0.84633 0.0
C801 C 0.97665 0.47876 0.84766 0.0
C802 C 0.00574 0.47561 0.84663 0.0
C803 C 0.02247 0.49933 0.84593 0.0
C804 C 0.0192 0.44789 0.84726 0.0
C805 C 0.95762 0.45413 0.84929 0.0
C806 C 0.03684 0.44104 0.86158 0.0
C807 C 0.04777 0.41432 0.86312 0.0
C808 C 0.0414 0.39384 0.85031 0.0
C809 C 0.02485 0.4012 0.83547 0.0
C810 C 0.01391 0.42795 0.83395 0.0
H811 H 0.9367 0.46017 0.85406 0.0
H812 H 0.95533 0.44423 0.83591 0.0
H813 H 0.96628 0.43854 0.8587 0.0
H814 H 0.04138 0.45613 0.87195 0.0
H815 H 0.06046 0.40948 0.87471 0.0
H816 H 0.19948 0.38168 0.37018 0.0
H817 H 0.22021 0.33642 0.37728 0.0
H818 H 0.293 0.37754 0.39758 0.0
H819 H 0.27256 0.42226 0.39062 0.0
H820 H 0.26834 0.3187 0.36126 0.0
H821 H 0.28278 0.31717 0.43472 0.0
H822 H 0.25847 0.34014 0.42383 0.0
H823 H 0.2945 0.34941 0.42557 0.0
C824 C 0.21951 0.38095 0.3767 0.0
C825 C 0.23446 0.40543 0.37984 0.0
C826 C 0.23136 0.35514 0.38069 0.0
C827 C 0.25802 0.35355 0.38822 0.0
C828 C 0.27217 0.37814 0.39221 0.0
H829 H 0.40874 0.28049 0.38811 0.0
H830 H 0.36505 0.30353 0.3947 0.0
C831 C 0.26055 0.40375 0.38806 0.0
C832 C 0.27311 0.32684 0.38954 0.0
H833 H 0.3178 0.2923 0.41713 0.0
C834 C 0.27844 0.31225 0.37359 0.0
C835 C 0.28621 0.31837 0.40564 0.0
C836 C 0.27993 0.33197 0.42343 0.0
C837 C 0.29863 0.29134 0.37294 0.0
C838 C 0.31355 0.28463 0.38874 0.0
C839 C 0.30647 0.29755 0.40501 0.0
C840 C 0.33953 0.26829 0.38789 0.0
C841 C 0.30554 0.27832 0.35504 0.0
C842 C 0.33977 0.24035 0.38263 0.0
C843 C 0.36492 0.22699 0.37892 0.0
C844 C 0.39004 0.24152 0.38032 0.0
C845 C 0.38971 0.26882 0.38681 0.0
C846 C 0.36474 0.282 0.39062 0.0
H847 H 0.29395 0.28795 0.34375 0.0
H848 H 0.32803 0.28019 0.35225 0.0
H849 H 0.30033 0.25597 0.35542 0.0
H850 H 0.32053 0.22929 0.38064 0.0
H851 H 0.36456 0.20598 0.37386 0.0
H852 H 0.28096 0.59502 0.60921 0.0
H853 H 0.29903 0.64135 0.60384 0.0
H854 H 0.22369 0.67684 0.62464 0.0
H855 H 0.20541 0.6301 0.63021 0.0
H856 H 0.28034 0.6899 0.58489 0.0
H857 H 0.28508 0.70425 0.65931 0.0
H858 H 0.27898 0.6707 0.64945 0.0
H859 H 0.25222 0.69642 0.64915 0.0
C860 C 0.26796 0.61265 0.6123 0.0
C861 C 0.24191 0.60897 0.6203 0.0
C862 C 0.27828 0.63913 0.60916 0.0
C863 C 0.26289 0.66253 0.61408 0.0
C864 C 0.23602 0.65902 0.62093 0.0
H865 H 0.36937 0.80711 0.63327 0.0
H866 H 0.32441 0.78482 0.62759 0.0
C867 C 0.22554 0.63235 0.62398 0.0
C868 C 0.27674 0.68992 0.61375 0.0
H869 H 0.31163 0.7339 0.64161 0.0
C870 C 0.28658 0.70004 0.59726 0.0
C871 C 0.28469 0.70329 0.62989 0.0
C872 C 0.27488 0.6932 0.64801 0.0
C873 C 0.30581 0.72179 0.59657 0.0
C874 C 0.31583 0.73331 0.6128 0.0
C875 C 0.30402 0.72497 0.62917 0.0
C876 C 0.34178 0.74973 0.61344 0.0
C877 C 0.31624 0.73131 0.57849 0.0
C878 C 0.36634 0.73762 0.6072 0.0
C879 C 0.39181 0.7501 0.61054 0.0
C880 C 0.39335 0.77502 0.62018 0.0
C881 C 0.36872 0.78802 0.62563 0.0
C882 C 0.34309 0.77529 0.62244 0.0
H883 H 0.29996 0.72904 0.56804 0.0
H884 H 0.3231 0.75323 0.57889 0.0
H885 H 0.33404 0.71823 0.57442 0.0
H886 H 0.36601 0.71761 0.60064 0.0
H887 H 0.41045 0.7396 0.60618 0.0
H888 H 0.62342 0.80319 0.37755 0.0
H889 H 0.66731 0.78001 0.38486 0.0
H890 H 0.6224 0.70657 0.40014 0.0
H891 H 0.57889 0.72957 0.39321 0.0
H892 H 0.66916 0.7162 0.42176 0.0
H893 H 0.69377 0.72189 0.34853 0.0
H894 H 0.68858 0.75389 0.36038 0.0
H895 H 0.66 0.73072 0.35707 0.0
C896 C 0.62296 0.78242 0.38301 0.0
C897 C 0.59779 0.76804 0.38462 0.0
C898 C 0.64803 0.76912 0.38702 0.0
C899 C 0.64815 0.74135 0.39269 0.0
C900 C 0.62286 0.72793 0.39572 0.0
H901 H 0.7142 0.58647 0.39298 0.0
H902 H 0.69363 0.63085 0.40082 0.0
C903 C 0.59797 0.74109 0.3917 0.0
C904 C 0.67396 0.72473 0.3935 0.0
H905 H 0.71922 0.69094 0.36591 0.0
C906 C 0.68061 0.71119 0.40964 0.0
C907 C 0.68902 0.71826 0.37771 0.0
C908 C 0.68254 0.73176 0.35988 0.0
C909 C 0.70051 0.69001 0.41014 0.0
C910 C 0.71381 0.68194 0.39403 0.0
C911 C 0.70894 0.69711 0.37825 0.0
C912 C 0.72888 0.65527 0.39244 0.0
C913 C 0.70623 0.67564 0.42774 0.0
C914 C 0.75574 0.65409 0.38525 0.0
C915 C 0.76765 0.62853 0.38075 0.0
C916 C 0.75259 0.60389 0.38306 0.0
C917 C 0.7263 0.6051 0.39104 0.0
C918 C 0.71459 0.63049 0.39569 0.0
H919 H 0.70299 0.68991 0.43927 0.0
H920 H 0.69166 0.65807 0.42933 0.0
H921 H 0.72769 0.66748 0.42828 0.0
H922 H 0.76701 0.67297 0.38244 0.0
H923 H 0.78786 0.62823 0.37447 0.0
H924 H 0.74101 0.41036 0.60879 0.0
H925 H 0.71777 0.36636 0.60375 0.0
H926 H 0.78647 0.32312 0.62784 0.0
H927 H 0.80994 0.3676 0.63316 0.0
H928 H 0.73151 0.31617 0.58601 0.0
H929 H 0.72006 0.303 0.6602 0.0
H930 H 0.73103 0.33541 0.65051 0.0
H931 H 0.75436 0.30655 0.65112 0.0
C932 C 0.75145 0.39148 0.61276 0.0
C933 C 0.77717 0.39243 0.62153 0.0
C934 C 0.73817 0.36631 0.6098 0.0
C935 C 0.75017 0.34148 0.61565 0.0
C936 C 0.77668 0.34209 0.62343 0.0
H937 H 0.62904 0.20711 0.63058 0.0
H938 H 0.676 0.22578 0.62649 0.0
C939 C 0.79016 0.36746 0.62632 0.0
C940 C 0.73325 0.31585 0.61496 0.0
H941 H 0.69206 0.27586 0.64172 0.0
C942 C 0.72341 0.30681 0.59818 0.0
C943 C 0.7228 0.3035 0.63083 0.0
C944 C 0.7324 0.31255 0.64923 0.0
C945 C 0.70199 0.28728 0.59692 0.0
C946 C 0.68983 0.27685 0.61283 0.0
C947 C 0.70135 0.28397 0.62953 0.0
C948 C 0.66249 0.26281 0.61267 0.0
C949 C 0.69167 0.279 0.57856 0.0
C950 C 0.63942 0.27723 0.60609 0.0
C951 C 0.6128 0.2668 0.60854 0.0
C952 C 0.60861 0.24164 0.61757 0.0
C953 C 0.63173 0.2264 0.62337 0.0
C954 C 0.65851 0.23708 0.62111 0.0
H955 H 0.70852 0.2801 0.56842 0.0
H956 H 0.68303 0.25771 0.57864 0.0
H957 H 0.67515 0.29353 0.57429 0.0
H958 H 0.64185 0.2974 0.59993 0.0
H959 H 0.59537 0.27902 0.60397 0.0
H960 H 0.86642 0.70263 0.86283 0.0
H961 H 0.82106 0.72417 0.86826 0.0
H962 H 0.86154 0.79601 0.89042 0.0
H963 H 0.90649 0.77468 0.88524 0.0
H964 H 0.81162 0.78094 0.90865 0.0
H965 H 0.79871 0.78802 0.83421 0.0
H966 H 0.80375 0.75437 0.844 0.0
H967 H 0.83146 0.77906 0.84427 0.0
C968 C 0.86552 0.72267 0.86932 0.0
C969 C 0.88997 0.73712 0.87346 0.0
C970 C 0.83964 0.73503 0.87228 0.0
C971 C 0.83797 0.76189 0.87947 0.0
C972 C 0.86232 0.77532 0.88482 0.0
H973 H 0.76665 0.91388 0.88798 0.0
H974 H 0.78713 0.86872 0.89363 0.0
C975 C 0.88803 0.76313 0.88179 0.0
C976 C 0.81165 0.77771 0.87976 0.0
H977 H 0.76991 0.81537 0.85197 0.0
C978 C 0.80199 0.78794 0.89628 0.0
C979 C 0.79896 0.78671 0.86363 0.0
C980 C 0.80869 0.77668 0.84547 0.0
C981 C 0.7813 0.80832 0.89702 0.0
C982 C 0.77039 0.81911 0.88081 0.0
C983 C 0.77834 0.80716 0.86439 0.0
C984 C 0.75474 0.84557 0.88028 0.0
C985 C 0.77216 0.81894 0.91514 0.0
C986 C 0.72948 0.84774 0.871 0.0
C987 C 0.71765 0.87377 0.86772 0.0
C988 C 0.73122 0.89799 0.8734 0.0
C989 C 0.75571 0.8956 0.88345 0.0
C990 C 0.76733 0.86971 0.88683 0.0
H991 H 0.77363 0.80244 0.9255 0.0
H992 H 0.786 0.83608 0.91934 0.0
H993 H 0.75058 0.82679 0.91473 0.0
H994 H 0.71956 0.82941 0.86564 0.0
H995 H 0.6989 0.87501 0.85979 0.0
H996 H 0.79844 0.08222 0.10409 0.0
H997 H 0.8179 0.12723 0.09652 0.0
H998 H 0.73975 0.1662 0.10834 0.0
H999 H 0.71998 0.12085 0.11611 0.0
H1000 H 0.80209 0.17109 0.07187 0.0
H1001 H 0.79573 0.20151 0.14416 0.0
H1002 H 0.79145 0.16603 0.13715 0.0
H1003 H 0.76459 0.19078 0.13288 0.0
C1004 C 0.78519 0.10027 0.10483 0.0
C1005 C 0.75776 0.09802 0.1109 0.0
C1006 C 0.79633 0.12599 0.10042 0.0
C1007 C 0.78039 0.15009 0.10207 0.0
C1008 C 0.75248 0.14785 0.10714 0.0
H1009 H 0.88133 0.29948 0.11558 0.0
H1010 H 0.83793 0.27534 0.10835 0.0
C1011 C 0.74119 0.12195 0.11148 0.0
C1012 C 0.79429 0.17728 0.1001 0.0
H1013 H 0.82425 0.22783 0.12554 0.0
C1014 C 0.80638 0.18396 0.08349 0.0
C1015 C 0.79966 0.19422 0.11522 0.0
C1016 C 0.78735 0.1879 0.13342 0.0
C1017 C 0.82525 0.20593 0.08192 0.0
C1018 C 0.83264 0.22119 0.09743 0.0
C1019 C 0.81866 0.21608 0.11365 0.0
C1020 C 0.858 0.23854 0.09808 0.0
C1021 C 0.83801 0.21178 0.06382 0.0
C1022 C 0.88363 0.2262 0.09432 0.0
C1023 C 0.90822 0.23981 0.09849 0.0
C1024 C 0.90778 0.26609 0.10652 0.0
C1025 C 0.88224 0.27936 0.10918 0.0
C1026 C 0.85747 0.26554 0.10514 0.0
H1027 H 0.82322 0.207 0.05281 0.0
H1028 H 0.8446 0.23371 0.06262 0.0
H1029 H 0.85638 0.19831 0.06196 0.0
H1030 H 0.88469 0.20518 0.08932 0.0
H1031 H 0.92762 0.22907 0.09635 0.0
H1032 H 0.12663 0.30574 0.85687 0.0
H1033 H 0.17337 0.2864 0.86081 0.0
H1034 H 0.13806 0.21248 0.8838 0.0
H1035 H 0.09181 0.2316 0.88007 0.0
H1036 H 0.18806 0.23036 0.90089 0.0
H1037 H 0.1973 0.22368 0.82619 0.0
H1038 H 0.19096 0.25696 0.83622 0.0
H1039 H 0.16461 0.23084 0.83692 0.0
C1040 C 0.12899 0.2857 0.8632 0.0
C1041 C 0.10561 0.27004 0.86803 0.0
C1042 C 0.15564 0.27459 0.86531 0.0
C1043 C 0.15914 0.24782 0.87235 0.0
C1044 C 0.13587 0.23314 0.87831 0.0
H1045 H 0.23333 0.09857 0.87918 0.0
H1046 H 0.21241 0.14357 0.88474 0.0
C1047 C 0.10941 0.24406 0.87611 0.0
C1048 C 0.18623 0.23337 0.87202 0.0
H1049 H 0.22756 0.19686 0.84332 0.0
C1050 C 0.19723 0.22363 0.88831 0.0
C1051 C 0.19834 0.22475 0.8556 0.0
C1052 C 0.18727 0.23441 0.83769 0.0
C1053 C 0.21854 0.20389 0.88858 0.0
C1054 C 0.22876 0.19328 0.87215 0.0
C1055 C 0.21962 0.20493 0.85591 0.0
C1056 C 0.24457 0.16695 0.87134 0.0
C1057 C 0.22893 0.19352 0.90647 0.0
C1058 C 0.26979 0.165 0.862 0.0
C1059 C 0.28194 0.13905 0.85885 0.0
C1060 C 0.26864 0.11477 0.86465 0.0
C1061 C 0.24404 0.11695 0.87457 0.0
C1062 C 0.23217 0.14272 0.8779 0.0
H1063 H 0.22743 0.20991 0.91691 0.0
H1064 H 0.21591 0.17588 0.91091 0.0
H1065 H 0.25073 0.1864 0.90558 0.0
H1066 H 0.27951 0.18341 0.85661 0.0
H1067 H 0.30077 0.13789 0.85098 0.0
H1068 H 0.23562 0.91874 0.0979 0.0
H1069 H 0.21481 0.87406 0.0912 0.0
H1070 H 0.29058 0.83302 0.10627 0.0
H1071 H 0.31161 0.87812 0.11331 0.0
H1072 H 0.22784 0.82844 0.06898 0.0
H1073 H 0.23326 0.80231 0.142 0.0
H1074 H 0.24003 0.83684 0.13393 0.0
H1075 H 0.26508 0.80994 0.1305 0.0
C1076 C 0.24809 0.90028 0.09951 0.0
C1077 C 0.27513 0.9019 0.10634 0.0
C1078 C 0.23618 0.87472 0.09559 0.0
C1079 C 0.25096 0.85017 0.09851 0.0
C1080 C 0.27867 0.85172 0.10417 0.0
H1081 H 0.14574 0.70357 0.11391 0.0
H1082 H 0.18939 0.72721 0.10674 0.0
C1083 C 0.29073 0.87747 0.10804 0.0
C1084 C 0.23588 0.82347 0.09729 0.0
H1085 H 0.20409 0.77565 0.12404 0.0
C1086 C 0.22319 0.81642 0.08092 0.0
C1087 C 0.2299 0.80768 0.11286 0.0
C1088 C 0.24259 0.81449 0.13087 0.0
C1089 C 0.20326 0.79532 0.07999 0.0
C1090 C 0.19556 0.78119 0.09587 0.0
C1091 C 0.20997 0.78656 0.11188 0.0
C1092 C 0.16978 0.76455 0.09697 0.0
C1093 C 0.18974 0.78919 0.06216 0.0
C1094 C 0.14432 0.77748 0.09357 0.0
C1095 C 0.11953 0.76418 0.09776 0.0
C1096 C 0.11964 0.73762 0.10541 0.0
C1097 C 0.14504 0.72394 0.10784 0.0
C1098 C 0.16997 0.73745 0.10382 0.0
H1099 H 0.20408 0.79357 0.05083 0.0
H1100 H 0.18291 0.76729 0.06131 0.0
H1101 H 0.17136 0.80272 0.06051 0.0
H1102 H 0.14359 0.79859 0.08869 0.0
H1103 H 0.10029 0.77525 0.09576 0.0
H1104 H 0.24119 0.55603 0.29594 0.0
H1105 H 0.24111 0.58736 0.26988 0.0
H1106 H 0.16531 0.6243 0.28881 0.0
H1107 H 0.165 0.59267 0.31456 0.0
H1108 H 0.18871 0.58483 0.24696 0.0
H1109 H 0.21774 0.69023 0.26987 0.0
H1110 H 0.2303 0.65909 0.28065 0.0
H1111 H 0.19565 0.67085 0.28474 0.0
C1112 C 0.22506 0.5715 0.29478 0.0
C1113 C 0.2031 0.57214 0.30714 0.0
C1114 C 0.22503 0.58928 0.27995 0.0
C1115 C 0.20336 0.60823 0.2776 0.0
C1116 C 0.18242 0.61008 0.2906 0.0
H1117 H 0.11071 0.70776 0.20992 0.0
H1118 H 0.13901 0.68635 0.23321 0.0
C1119 C 0.18219 0.59202 0.30521 0.0
C1120 C 0.19965 0.6227 0.26033 0.0
H1121 H 0.19213 0.68714 0.24245 0.0
C1122 C 0.19006 0.60715 0.2457 0.0
C1123 C 0.20134 0.65173 0.25898 0.0
C1124 C 0.21201 0.66906 0.27433 0.0
C1125 C 0.17989 0.62006 0.23017 0.0
C1126 C 0.18032 0.64933 0.22908 0.0
C1127 C 0.1918 0.66473 0.24329 0.0
C1128 C 0.16556 0.66436 0.2146 0.0
C1129 C 0.16677 0.60228 0.2158 0.0
C1130 C 0.17142 0.65964 0.19634 0.0
C1131 C 0.1548 0.67146 0.18299 0.0
C1132 C 0.13265 0.68879 0.18772 0.0
C1133 C 0.1278 0.69465 0.20593 0.0
C1134 C 0.14399 0.68244 0.21924 0.0
H1135 H 0.1629 0.58083 0.22056 0.0
H1136 H 0.14681 0.61125 0.21127 0.0
H1137 H 0.18083 0.60106 0.20404 0.0
H1138 H 0.18842 0.64636 0.19243 0.0
H1139 H 0.15911 0.66702 0.169 0.0
H1140 H 0.59739 0.82839 0.65893 0.0
H1141 H 0.6391 0.83506 0.67738 0.0
H1142 H 0.59233 0.81471 0.72499 0.0
H1143 H 0.55099 0.80795 0.70671 0.0
H1144 H 0.63963 0.87573 0.70348 0.0
H1145 H 0.66538 0.77524 0.73445 0.0
H1146 H 0.64463 0.77808 0.7143 0.0
H1147 H 0.62909 0.7825 0.73613 0.0
C1148 C 0.59636 0.82457 0.67327 0.0
C1149 C 0.57107 0.8179 0.68148 0.0
C1150 C 0.62011 0.82836 0.68376 0.0
C1151 C 0.61888 0.825 0.70251 0.0
C1152 C 0.59394 0.81678 0.71052 0.0
H1153 H 0.67039 0.88022 0.80177 0.0
H1154 H 0.65425 0.85531 0.77529 0.0
C1155 C 0.57026 0.81325 0.70011 0.0
C1156 C 0.6418 0.83442 0.71417 0.0
H1157 H 0.67742 0.81621 0.75195 0.0
C1158 C 0.64864 0.86261 0.71377 0.0
C1159 C 0.6534 0.81721 0.72755 0.0
C1160 C 0.64794 0.78651 0.72802 0.0
C1161 C 0.66469 0.87461 0.7274 0.0
C1162 C 0.67468 0.85772 0.74154 0.0
C1163 C 0.66961 0.82912 0.74116 0.0
C1164 C 0.68704 0.86995 0.75791 0.0
C1165 C 0.66889 0.90558 0.72729 0.0
C1166 C 0.71132 0.88576 0.75707 0.0
C1167 C 0.72032 0.90052 0.77214 0.0
C1168 C 0.70532 0.89948 0.78837 0.0
C1169 C 0.68203 0.88213 0.78941 0.0
C1170 C 0.67296 0.86758 0.77433 0.0
H1171 H 0.65576 0.91606 0.71709 0.0
H1172 H 0.66412 0.91451 0.7407 0.0
H1173 H 0.69082 0.91025 0.72413 0.0
H1174 H 0.72276 0.88744 0.7446 0.0
H1175 H 0.73835 0.91359 0.77079 0.0
H1176 H 0.76469 0.46447 0.28404 0.0
H1177 H 0.77039 0.43204 0.25899 0.0
H1178 H 0.84615 0.40213 0.28273 0.0
H1179 H 0.83987 0.43325 0.3081 0.0
H1180 H 0.8106 0.4328 0.23523 0.0
H1181 H 0.81227 0.33063 0.26778 0.0
H1182 H 0.79987 0.36112 0.27926 0.0
H1183 H 0.83629 0.35295 0.27898 0.0
C1184 C 0.7821 0.45037 0.28418 0.0
C1185 C 0.80191 0.45152 0.29802 0.0
C1186 C 0.78541 0.43198 0.2698 0.0
C1187 C 0.80848 0.41435 0.26909 0.0
C1188 C 0.82779 0.41495 0.28317 0.0
H1189 H 0.91388 0.36643 0.18573 0.0
H1190 H 0.88363 0.39 0.20705 0.0
C1191 C 0.82441 0.43312 0.29755 0.0
C1192 C 0.81436 0.39756 0.25286 0.0
H1193 H 0.83957 0.33467 0.24017 0.0
C1194 C 0.8163 0.41115 0.23621 0.0
C1195 C 0.82112 0.36914 0.25396 0.0
C1196 C 0.81694 0.3526 0.27095 0.0
C1197 C 0.82701 0.39768 0.22103 0.0
C1198 C 0.83681 0.37022 0.22271 0.0
C1199 C 0.83266 0.35594 0.23894 0.0
C1200 C 0.8536 0.35678 0.2085 0.0
C1201 C 0.82823 0.41327 0.20347 0.0
C1202 C 0.8472 0.32999 0.20249 0.0
C1203 C 0.8648 0.3163 0.19053 0.0
C1204 C 0.88905 0.3292 0.18432 0.0
C1205 C 0.8951 0.35621 0.19004 0.0
C1206 C 0.87771 0.36974 0.20215 0.0
H1207 H 0.81106 0.42848 0.2025 0.0
H1208 H 0.84793 0.42501 0.20278 0.0
H1209 H 0.8271 0.39908 0.19175 0.0
H1210 H 0.82882 0.31951 0.20729 0.0
H1211 H 0.85956 0.29557 0.18621 0.0
H1212 H 0.29689 0.08456 0.76191 0.0
H1213 H 0.31517 0.11763 0.74008 0.0
H1214 H 0.33362 0.17473 0.78307 0.0
H1215 H 0.31626 0.14105 0.80504 0.0
H1216 H 0.30391 0.17005 0.73017 0.0
H1217 H 0.40863 0.16471 0.76122 0.0
H1218 H 0.38102 0.14187 0.76784 0.0
H1219 H 0.38176 0.17701 0.7758 0.0
C1220 C 0.30458 0.1043 0.76665 0.0
C1221 C 0.30557 0.11017 0.78512 0.0
C1222 C 0.31497 0.1232 0.7542 0.0
C1223 C 0.32627 0.14844 0.75997 0.0
C1224 C 0.32572 0.15507 0.77836 0.0
H1225 H 0.43669 0.24507 0.69112 0.0
H1226 H 0.39985 0.23923 0.7136 0.0
C1227 C 0.31579 0.1359 0.79087 0.0
C1228 C 0.34035 0.16656 0.74675 0.0
H1229 H 0.4042 0.19034 0.73481 0.0
C1230 C 0.32575 0.17487 0.73131 0.0
C1231 C 0.36886 0.1729 0.74826 0.0
C1232 C 0.3861 0.16351 0.76407 0.0
C1233 C 0.33923 0.1881 0.71697 0.0
C1234 C 0.36792 0.19316 0.71817 0.0
C1235 C 0.38211 0.18657 0.73404 0.0
C1236 C 0.38468 0.20084 0.70233 0.0
C1237 C 0.32297 0.19563 0.70038 0.0
C1238 C 0.38775 0.18158 0.68835 0.0
C1239 C 0.40885 0.18473 0.67573 0.0
C1240 C 0.42694 0.20733 0.67682 0.0
C1241 C 0.4226 0.22774 0.68994 0.0
C1242 C 0.40167 0.2244 0.70274 0.0
H1243 H 0.30064 0.19828 0.70348 0.0
H1244 H 0.33095 0.215 0.69423 0.0
H1245 H 0.32497 0.17876 0.69034 0.0
H1246 H 0.37529 0.16296 0.68803 0.0
H1247 H 0.41219 0.16861 0.66583 0.0
H1248 H 0.21655 0.41038 0.6727 0.0
H1249 H 0.20996 0.36973 0.69197 0.0
H1250 H 0.19734 0.42319 0.73771 0.0
H1251 H 0.20529 0.46357 0.71885 0.0
H1252 H 0.22447 0.37558 0.74702 0.0
H1253 H 0.1309 0.35235 0.70572 0.0
H1254 H 0.16367 0.35191 0.69435 0.0
H1255 H 0.15019 0.38395 0.70294 0.0
C1256 C 0.21313 0.41338 0.68696 0.0
C1257 C 0.21074 0.44017 0.69421 0.0
C1258 C 0.20913 0.39016 0.69791 0.0
C1259 C 0.20242 0.39349 0.71615 0.0
C1260 C 0.20226 0.42013 0.72363 0.0
H1261 H 0.11141 0.3481 0.80292 0.0
H1262 H 0.14638 0.36372 0.78188 0.0
C1263 C 0.20649 0.44322 0.71279 0.0
C1264 C 0.19234 0.37014 0.72724 0.0
H1265 H 0.13501 0.33003 0.73328 0.0
C1266 C 0.20525 0.36508 0.74384 0.0
C1267 C 0.16729 0.35637 0.72304 0.0
C1268 C 0.15202 0.36143 0.70562 0.0
C1269 C 0.19271 0.34828 0.75688 0.0
C1270 C 0.16666 0.33636 0.75317 0.0
C1271 C 0.15499 0.33932 0.73603 0.0
C1272 C 0.14903 0.32486 0.76756 0.0
C1273 C 0.20671 0.34453 0.77483 0.0
C1274 C 0.13889 0.29777 0.76649 0.0
C1275 C 0.11886 0.28857 0.77866 0.0
C1276 C 0.10822 0.30653 0.79191 0.0
C1277 C 0.11914 0.33346 0.79316 0.0
C1278 C 0.13931 0.34248 0.78113 0.0
H1279 H 0.22948 0.34703 0.77367 0.0
H1280 H 0.19898 0.36049 0.78431 0.0
H1281 H 0.20213 0.32383 0.7806 0.0
H1282 H 0.14599 0.28397 0.75598 0.0
H1283 H 0.11143 0.26757 0.77741 0.0
H1284 H 0.47928 0.82271 0.27602 0.0
H1285 H 0.44403 0.82767 0.25283 0.0
H1286 H 0.38121 0.80245 0.29061 0.0
H1287 H 0.41636 0.79867 0.31425 0.0
H1288 H 0.40507 0.79268 0.23763 0.0
H1289 H 0.3552 0.87902 0.27537 0.0
H1290 H 0.38842 0.8652 0.28174 0.0
H1291 H 0.35737 0.84628 0.28672 0.0
C1292 C 0.45796 0.81831 0.27944 0.0
C1293 C 0.45052 0.81093 0.29708 0.0
C1294 C 0.43788 0.82083 0.26611 0.0
C1295 C 0.40997 0.81589 0.27009 0.0
C1296 C 0.4026 0.80684 0.28738 0.0
H1297 H 0.28232 0.88085 0.19761 0.0
H1298 H 0.30209 0.85063 0.22062 0.0
C1299 C 0.42272 0.80448 0.30081 0.0
C1300 C 0.38882 0.82254 0.25638 0.0
H1301 H 0.34002 0.87098 0.24605 0.0
C1302 C 0.39045 0.80945 0.23955 0.0
C1303 C 0.36971 0.84437 0.25897 0.0
C1304 C 0.36755 0.85973 0.2766 0.0
C1305 C 0.37456 0.81865 0.22495 0.0
C1306 C 0.35683 0.84159 0.22727 0.0
C1307 C 0.3537 0.85337 0.24438 0.0
C1308 C 0.34434 0.85622 0.21183 0.0
C1309 C 0.37759 0.80441 0.20702 0.0
C1310 C 0.36157 0.86922 0.19924 0.0
C1311 C 0.35045 0.88685 0.18628 0.0
C1312 C 0.32181 0.89191 0.18566 0.0
C1313 C 0.30448 0.87787 0.19786 0.0
C1314 C 0.31568 0.86036 0.21092 0.0
H1315 H 0.38451 0.78264 0.20868 0.0
H1316 H 0.35781 0.80463 0.19942 0.0
H1317 H 0.39343 0.81542 0.19892 0.0
H1318 H 0.38382 0.86682 0.20001 0.0
H1319 H 0.36454 0.89747 0.17735 0.0
H1320 H 0.85473 0.58278 0.67813 0.0
H1321 H 0.85351 0.61927 0.70094 0.0
H1322 H 0.76967 0.59698 0.71436 0.0
H1323 H 0.77068 0.56049 0.6913 0.0
H1324 H 0.80559 0.66578 0.71145 0.0
H1325 H 0.82988 0.5785 0.75801 0.0
H1326 H 0.8391 0.57609 0.73455 0.0
H1327 H 0.80342 0.57516 0.74104 0.0
C1328 C 0.83577 0.58628 0.68556 0.0
C1329 C 0.81285 0.56889 0.6831 0.0
C1330 C 0.83505 0.60713 0.69849 0.0
C1331 C 0.81152 0.61066 0.70925 0.0
C1332 C 0.78788 0.5946 0.70602 0.0
H1333 H 0.8571 0.68056 0.81308 0.0
H1334 H 0.82525 0.6608 0.79085 0.0
C1335 C 0.78849 0.57387 0.69289 0.0
C1336 C 0.81387 0.62779 0.72555 0.0
H1337 H 0.83882 0.62337 0.76825 0.0
C1338 C 0.81218 0.65663 0.72407 0.0
C1339 C 0.82204 0.61566 0.74199 0.0
C1340 C 0.82377 0.58465 0.74417 0.0
C1341 C 0.82019 0.6738 0.73839 0.0
C1342 C 0.83109 0.66166 0.75422 0.0
C1343 C 0.83064 0.63276 0.75611 0.0
C1344 C 0.8467 0.67786 0.7678 0.0
C1345 C 0.81756 0.7047 0.73618 0.0
C1346 C 0.86908 0.69433 0.7623 0.0
C1347 C 0.88702 0.70578 0.77495 0.0
C1348 C 0.88333 0.70046 0.79335 0.0
C1349 C 0.86049 0.68471 0.79894 0.0
C1350 C 0.84224 0.6736 0.78627 0.0
H1351 H 0.79917 0.70992 0.72788 0.0
H1352 H 0.81577 0.71538 0.74935 0.0
H1353 H 0.83604 0.7127 0.72902 0.0
H1354 H 0.87368 0.69711 0.74816 0.0
H1355 H 0.9047 0.71748 0.77027 0.0
H1356 H 0.50602 0.17342 0.27319 0.0
H1357 H 0.5405 0.1638 0.25014 0.0
H1358 H 0.60515 0.19105 0.28599 0.0
H1359 H 0.57084 0.19921 0.30961 0.0
H1360 H 0.57922 0.19373 0.23249 0.0
H1361 H 0.62929 0.11302 0.27476 0.0
H1362 H 0.59682 0.1288 0.28081 0.0
H1363 H 0.62878 0.14693 0.28459 0.0
C1364 C 0.52759 0.1772 0.27626 0.0
C1365 C 0.53574 0.18641 0.29341 0.0
C1366 C 0.54725 0.17199 0.26298 0.0
C1367 C 0.57543 0.1761 0.26649 0.0
C1368 C 0.58354 0.18709 0.28316 0.0
H1369 H 0.71536 0.1238 0.20075 0.0
H1370 H 0.6866 0.14987 0.22174 0.0
C1371 C 0.56387 0.19203 0.29657 0.0
C1372 C 0.59613 0.16716 0.25302 0.0
H1373 H 0.64812 0.12058 0.24606 0.0
C1374 C 0.59444 0.17789 0.23548 0.0
C1375 C 0.61584 0.14634 0.25694 0.0
C1376 C 0.61773 0.13288 0.27523 0.0
C1377 C 0.61166 0.16802 0.22171 0.0
C1378 C 0.63095 0.14697 0.22562 0.0
C1379 C 0.63328 0.13685 0.24321 0.0
C1380 C 0.64795 0.13385 0.21152 0.0
C1381 C 0.60898 0.1799 0.20304 0.0
C1382 C 0.63561 0.11638 0.19878 0.0
C1383 C 0.65199 0.10105 0.18693 0.0
C1384 C 0.68101 0.10293 0.18767 0.0
C1385 C 0.69315 0.12137 0.20003 0.0
C1386 C 0.67677 0.13651 0.21194 0.0
H1387 H 0.59732 0.19971 0.20302 0.0
H1388 H 0.62972 0.18343 0.19703 0.0
H1389 H 0.5978 0.16492 0.19437 0.0
H1390 H 0.61335 0.11377 0.19849 0.0
H1391 H 0.64192 0.0869 0.17775 0.0
H1392 H 0.63002 0.18434 0.67564 0.0
H1393 H 0.6607 0.16195 0.69741 0.0
H1394 H 0.61295 0.19645 0.74096 0.0
H1395 H 0.58221 0.2189 0.71926 0.0
H1396 H 0.67313 0.19447 0.74681 0.0
H1397 H 0.62665 0.09481 0.72445 0.0
H1398 H 0.64188 0.11563 0.70706 0.0
H1399 H 0.61176 0.12788 0.71875 0.0
C1400 C 0.62623 0.18734 0.68985 0.0
C1401 C 0.60344 0.20294 0.69577 0.0
C1402 C 0.64384 0.17471 0.70225 0.0
C1403 C 0.63879 0.1773 0.72074 0.0
C1404 C 0.61716 0.19429 0.72672 0.0
H1405 H 0.67775 0.09449 0.81871 0.0
H1406 H 0.66971 0.13079 0.79628 0.0
C1407 C 0.59962 0.20707 0.71432 0.0
C1408 C 0.6538 0.15974 0.73372 0.0
H1409 H 0.66008 0.09268 0.74715 0.0
C1410 C 0.67055 0.17218 0.74685 0.0
C1411 C 0.65018 0.13073 0.73372 0.0
C1412 C 0.63149 0.11638 0.72036 0.0
C1413 C 0.68385 0.15619 0.76007 0.0
C1414 C 0.6798 0.12722 0.76024 0.0
C1415 C 0.6634 0.11487 0.74689 0.0
C1416 C 0.69052 0.10907 0.77468 0.0
C1417 C 0.70209 0.17041 0.77368 0.0
C1418 C 0.70535 0.08511 0.77009 0.0
C1419 C 0.70943 0.06426 0.78277 0.0
C1420 C 0.69904 0.06722 0.80026 0.0
C1421 C 0.68619 0.09205 0.80531 0.0
C1422 C 0.68176 0.11281 0.79253 0.0
H1423 H 0.71013 0.19037 0.76843 0.0
H1424 H 0.6898 0.17492 0.78594 0.0
H1425 H 0.71985 0.15712 0.77757 0.0
H1426 H 0.71217 0.08176 0.75638 0.0
H1427 H 0.71933 0.04517 0.77865 0.0
H1428 H 0.19867 0.42258 0.27668 0.0
H1429 H 0.1754 0.39102 0.25601 0.0
H1430 H 0.1448 0.34362 0.301 0.0
H1431 H 0.16748 0.37589 0.3218 0.0
H1432 H 0.17843 0.33626 0.2494 0.0
H1433 H 0.07399 0.3632 0.27581 0.0
H1434 H 0.10459 0.38197 0.28232 0.0
H1435 H 0.09748 0.34855 0.29189 0.0
C1436 C 0.18722 0.40527 0.28215 0.0
C1437 C 0.1846 0.40179 0.3008 0.0
C1438 C 0.17394 0.38723 0.27034 0.0
C1439 C 0.15798 0.36522 0.27696 0.0
C1440 C 0.15641 0.36088 0.29561 0.0
H1441 H 0.04387 0.27524 0.20529 0.0
H1442 H 0.07641 0.28073 0.23052 0.0
C1443 C 0.16937 0.37924 0.30746 0.0
C1444 C 0.14192 0.34811 0.26416 0.0
H1445 H 0.07587 0.3346 0.2505 0.0
C1446 C 0.15602 0.3355 0.2498 0.0
C1447 C 0.11264 0.34706 0.26473 0.0
C1448 C 0.09619 0.36106 0.27941 0.0
C1449 C 0.14157 0.32328 0.23551 0.0
C1450 C 0.11241 0.32358 0.23567 0.0
C1451 C 0.09831 0.33437 0.25056 0.0
C1452 C 0.09611 0.31712 0.21944 0.0
C1453 C 0.15749 0.31121 0.21994 0.0
C1454 C 0.09674 0.33565 0.20494 0.0
C1455 C 0.07803 0.33284 0.19081 0.0
C1456 C 0.05862 0.31127 0.19088 0.0
C1457 C 0.05888 0.29187 0.20494 0.0
C1458 C 0.07736 0.29498 0.21929 0.0
H1459 H 0.17911 0.30612 0.22378 0.0
H1460 H 0.14721 0.29223 0.21481 0.0
H1461 H 0.15815 0.32654 0.20883 0.0
H1462 H 0.11078 0.35313 0.20501 0.0
H1463 H 0.07811 0.34801 0.18008 0.0
H1464 H 0.36442 0.81557 0.68078 0.0
H1465 H 0.33094 0.83193 0.70321 0.0
H1466 H 0.39105 0.81804 0.74519 0.0
H1467 H 0.42382 0.80047 0.72293 0.0
H1468 H 0.34015 0.8062 0.75697 0.0
H1469 H 0.33937 0.90849 0.72241 0.0
H1470 H 0.32689 0.88011 0.70917 0.0
H1471 H 0.36263 0.88119 0.71591 0.0
C1472 C 0.37019 0.81574 0.69485 0.0
C1473 C 0.39668 0.80714 0.70019 0.0
C1474 C 0.35117 0.82514 0.70762 0.0
C1475 C 0.35875 0.8269 0.72582 0.0
C1476 C 0.38473 0.81692 0.73123 0.0
H1477 H 0.34687 0.92025 0.81657 0.0
H1478 H 0.35057 0.88151 0.79555 0.0
C1479 C 0.40347 0.80694 0.71853 0.0
C1480 C 0.34104 0.84135 0.73911 0.0
H1481 H 0.31656 0.90545 0.74989 0.0
C1482 C 0.33456 0.82778 0.7553 0.0
C1483 C 0.33368 0.86954 0.73692 0.0
C1484 C 0.34115 0.88581 0.72026 0.0
C1485 C 0.32242 0.84209 0.76971 0.0
C1486 C 0.3165 0.87051 0.76778 0.0
C1487 C 0.321 0.88354 0.7512 0.0
C1488 C 0.31048 0.88843 0.78337 0.0
C1489 C 0.31714 0.82708 0.78714 0.0
C1490 C 0.2864 0.90464 0.78377 0.0
C1491 C 0.28419 0.92663 0.79591 0.0
C1492 C 0.30628 0.93288 0.80747 0.0
C1493 C 0.32956 0.91559 0.80782 0.0
C1494 C 0.33158 0.89341 0.79591 0.0
H1495 H 0.31498 0.80444 0.78497 0.0
H1496 H 0.33488 0.83052 0.79635 0.0
H1497 H 0.29817 0.835 0.7938 0.0
H1498 H 0.27013 0.90133 0.77398 0.0
H1499 H 0.2662 0.93998 0.79533 0.0
H1500 H 0.9699 0.71985 0.19724 0.0
H1501 H 0.9395 0.71192 0.22324 0.0
H1502 H 0.93186 0.626 0.20832 0.0
H1503 H 0.96245 0.6337 0.18264 0.0
H1504 H 0.88603 0.69142 0.22754 0.0
H1505 H 0.96279 0.62206 0.25931 0.0
H1506 H 0.97114 0.64394 0.24041 0.0
H1507 H 0.95427 0.61116 0.23693 0.0
C1508 C 0.9613 0.69942 0.1994 0.0
C1509 C 0.96868 0.67728 0.18813 0.0
C1510 C 0.94411 0.69489 0.21426 0.0
C1511 C 0.93413 0.66821 0.21794 0.0
C1512 C 0.94004 0.64656 0.20599 0.0
H1513 H 0.80234 0.60335 0.27946 0.0
H1514 H 0.83248 0.62598 0.25774 0.0
C1515 C 0.95734 0.65099 0.19129 0.0
C1516 C 0.91817 0.66248 0.23448 0.0
H1517 H 0.91634 0.61901 0.27057 0.0
C1518 C 0.89277 0.67589 0.23711 0.0
C1519 C 0.92741 0.64281 0.24723 0.0
C1520 C 0.95554 0.6294 0.24596 0.0
C1521 C 0.87552 0.66879 0.25158 0.0
C1522 C 0.88369 0.6473 0.26339 0.0
C1523 C 0.90987 0.6352 0.26138 0.0
C1524 C 0.86471 0.63549 0.27701 0.0
C1525 C 0.84865 0.68424 0.25393 0.0
C1526 C 0.87313 0.63247 0.29499 0.0
C1527 C 0.85603 0.61908 0.30741 0.0
C1528 C 0.83022 0.60858 0.30205 0.0
C1529 C 0.82184 0.61175 0.28407 0.0
C1530 C 0.839 0.62485 0.27166 0.0
H1531 H 0.85019 0.70561 0.24851 0.0
H1532 H 0.83209 0.67343 0.24636 0.0
H1533 H 0.8425 0.68539 0.2683 0.0
H1534 H 0.89303 0.64027 0.29936 0.0
H1535 H 0.86291 0.61703 0.3212 0.0
H1536 H 0.66774 0.92312 0.18049 0.0
H1537 H 0.66098 0.89242 0.20604 0.0
H1538 H 0.741 0.91541 0.22695 0.0
H1539 H 0.74718 0.94771 0.20192 0.0
H1540 H 0.68674 0.84874 0.22031 0.0
H1541 H 0.69139 0.93771 0.26783 0.0
H1542 H 0.69088 0.94245 0.24381 0.0
H1543 H 0.72208 0.93147 0.25487 0.0
C1544 C 0.68393 0.92172 0.19053 0.0
C1545 C 0.70768 0.9384 0.18939 0.0
C1546 C 0.68017 0.90391 0.20504 0.0
C1547 C 0.70019 0.90212 0.21864 0.0
C1548 C 0.72496 0.91703 0.21685 0.0
H1549 H 0.64665 0.78803 0.30495 0.0
H1550 H 0.67773 0.80886 0.28264 0.0
C1551 C 0.72861 0.93522 0.20239 0.0
C1552 C 0.69363 0.88631 0.23517 0.0
H1553 H 0.67779 0.89502 0.27954 0.0
C1554 C 0.68517 0.85866 0.23335 0.0
C1555 C 0.69151 0.89945 0.25213 0.0
C1556 C 0.69923 0.92944 0.25486 0.0
C1557 C 0.6729 0.84435 0.2477 0.0
C1558 C 0.66992 0.85783 0.26449 0.0
C1559 C 0.68012 0.88481 0.26663 0.0
C1560 C 0.65307 0.84588 0.27921 0.0
C1561 C 0.66151 0.81573 0.24433 0.0
C1562 C 0.62965 0.86032 0.28526 0.0
C1563 C 0.61227 0.84873 0.29817 0.0
C1564 C 0.61784 0.82235 0.30517 0.0
C1565 C 0.64172 0.80822 0.29952 0.0
C1566 C 0.65939 0.82004 0.28677 0.0
H1567 H 0.66047 0.81076 0.22975 0.0
H1568 H 0.67514 0.80021 0.25085 0.0
H1569 H 0.64045 0.81358 0.25011 0.0
H1570 H 0.62435 0.88029 0.2796 0.0
H1571 H 0.59389 0.85994 0.30218 0.0
H1572 H 0.90042 0.29932 0.82491 0.0
H1573 H 0.85945 0.30201 0.80542 0.0
H1574 H 0.9122 0.29954 0.75863 0.0
H1575 H 0.95277 0.29635 0.77791 0.0
H1576 H 0.85228 0.34595 0.78392 0.0
H1577 H 0.84853 0.25279 0.74154 0.0
H1578 H 0.86763 0.25387 0.76244 0.0
H1579 H 0.88306 0.26622 0.74186 0.0
C1580 C 0.90307 0.29847 0.81045 0.0
C1581 C 0.92968 0.29798 0.80286 0.0
C1582 C 0.87972 0.29997 0.79935 0.0
C1583 C 0.88271 0.30057 0.78056 0.0
C1584 C 0.90925 0.29838 0.77305 0.0
H1585 H 0.84446 0.37819 0.68839 0.0
H1586 H 0.85607 0.34519 0.71188 0.0
C1587 C 0.93248 0.29701 0.78408 0.0
C1588 C 0.85936 0.30866 0.76878 0.0
H1589 H 0.8333 0.29611 0.72694 0.0
C1590 C 0.84726 0.33464 0.77175 0.0
C1591 C 0.85277 0.29382 0.75297 0.0
C1592 C 0.86351 0.26498 0.74965 0.0
C1593 C 0.83134 0.34757 0.75842 0.0
C1594 C 0.82702 0.33381 0.74185 0.0
C1595 C 0.83683 0.3067 0.7396 0.0
C1596 C 0.81702 0.34908 0.72588 0.0
C1597 C 0.82156 0.37686 0.76156 0.0
C1598 C 0.79069 0.36127 0.72549 0.0
C1599 C 0.78401 0.38038 0.71205 0.0
C1600 C 0.80348 0.38738 0.69873 0.0
C1601 C 0.82892 0.37331 0.69836 0.0
C1602 C 0.83562 0.35438 0.71182 0.0
H1603 H 0.8297 0.38568 0.77431 0.0
H1604 H 0.82807 0.39046 0.75029 0.0
H1605 H 0.79864 0.37719 0.76223 0.0
H1606 H 0.77585 0.35701 0.73604 0.0
H1607 H 0.76401 0.39042 0.71246 0.0
H1608 H 0.26847 0.06266 0.18608 0.0
H1609 H 0.26715 0.09765 0.20998 0.0
H1610 H 0.3555 0.10814 0.20541 0.0
H1611 H 0.35683 0.07387 0.18138 0.0
H1612 H 0.29356 0.09185 0.24209 0.0
H1613 H 0.32957 0.18753 0.2093 0.0
H1614 H 0.31665 0.15833 0.19665 0.0
H1615 H 0.35222 0.15937 0.20391 0.0
C1616 C 0.28745 0.07305 0.18985 0.0
C1617 C 0.31279 0.06553 0.18195 0.0
C1618 C 0.28668 0.09291 0.20352 0.0
C1619 C 0.31116 0.10576 0.20928 0.0
C1620 C 0.33627 0.09898 0.2009 0.0
H1621 H 0.38809 0.1439 0.30389 0.0
H1622 H 0.3601 0.12394 0.28001 0.0
C1623 C 0.33707 0.07914 0.18733 0.0
C1624 C 0.31149 0.12364 0.22541 0.0
H1625 H 0.34109 0.18278 0.2412 0.0
C1626 C 0.30324 0.1121 0.24188 0.0
C1627 C 0.32349 0.15029 0.22511 0.0
C1628 C 0.33068 0.16469 0.20773 0.0
C1629 C 0.30923 0.12536 0.25819 0.0
C1630 C 0.32427 0.15044 0.25794 0.0
C1631 C 0.32998 0.16327 0.24141 0.0
C1632 C 0.33761 0.16169 0.27428 0.0
C1633 C 0.30039 0.1118 0.27553 0.0
C1634 C 0.33436 0.18959 0.27902 0.0
C1635 C 0.35055 0.20113 0.29265 0.0
C1636 C 0.37039 0.185 0.30169 0.0
C1637 C 0.37273 0.15679 0.29742 0.0
C1638 C 0.35662 0.1453 0.28378 0.0
H1639 H 0.28099 0.09983 0.27363 0.0
H1640 H 0.31666 0.09708 0.27992 0.0
H1641 H 0.29712 0.12729 0.28636 0.0
H1642 H 0.31992 0.20263 0.27178 0.0
H1643 H 0.34805 0.22285 0.29581 0.0
H1644 H 0.03333 0.69594 0.77559 0.0
H1645 H 0.07336 0.69074 0.75607 0.0
H1646 H 0.12769 0.70347 0.80136 0.0
H1647 H 0.0875 0.70707 0.8213 0.0
H1648 H 0.11813 0.7216 0.74685 0.0
H1649 H 0.15058 0.62741 0.78471 0.0
H1650 H 0.11782 0.64408 0.78869 0.0
H1651 H 0.14916 0.65909 0.79728 0.0
C1652 C 0.05377 0.69753 0.78146 0.0
C1653 C 0.05723 0.70112 0.80009 0.0
C1654 C 0.07666 0.69492 0.77023 0.0
C1655 C 0.10351 0.69611 0.77732 0.0
C1656 C 0.10713 0.70183 0.79568 0.0
H1657 H 0.23845 0.62456 0.71334 0.0
H1658 H 0.21772 0.65543 0.73554 0.0
C1659 C 0.08414 0.70415 0.80702 0.0
C1660 C 0.1271 0.68873 0.76556 0.0
H1661 H 0.17283 0.63637 0.75756 0.0
C1662 C 0.13052 0.70329 0.74935 0.0
C1663 C 0.14331 0.66485 0.76886 0.0
C1664 C 0.14003 0.64777 0.78574 0.0
C1665 C 0.14838 0.69358 0.7359 0.0
C1666 C 0.1631 0.66875 0.73877 0.0
C1667 C 0.16143 0.65544 0.75547 0.0
C1668 C 0.1768 0.65383 0.72391 0.0
C1669 C 0.15044 0.70923 0.71841 0.0
C1670 C 0.16062 0.64286 0.70999 0.0
C1671 C 0.17217 0.62471 0.6975 0.0
C1672 C 0.20025 0.61713 0.69864 0.0
C1673 C 0.21668 0.62932 0.71216 0.0
C1674 C 0.20498 0.64727 0.72479 0.0
H1675 H 0.14499 0.73139 0.7202 0.0
H1676 H 0.17161 0.70777 0.71269 0.0
H1677 H 0.13575 0.70015 0.70857 0.0
H1678 H 0.13866 0.64721 0.70933 0.0
H1679 H 0.15862 0.61579 0.68752 0.0
H1680 H 0.16522 0.47831 0.5729 0.0
H1681 H 0.16961 0.47806 0.54036 0.0
H1682 H 0.24377 0.52727 0.5442 0.0
H1683 H 0.24049 0.52639 0.57691 0.0
H1684 H 0.16749 0.52288 0.51908 0.0
H1685 H 0.26707 0.46796 0.50885 0.0
H1686 H 0.24898 0.46777 0.53008 0.0
H1687 H 0.26944 0.49722 0.52364 0.0
C1688 C 0.18289 0.48853 0.56698 0.0
C1689 C 0.20247 0.50241 0.57769 0.0
C1690 C 0.18523 0.48853 0.5483 0.0
C1691 C 0.20712 0.50244 0.53988 0.0
C1692 C 0.22697 0.51598 0.55044 0.0
H1693 H 0.19579 0.55219 0.42735 0.0
H1694 H 0.20167 0.55252 0.46008 0.0
C1695 C 0.2248 0.51579 0.56917 0.0
C1696 C 0.20792 0.50424 0.52003 0.0
H1697 H 0.24702 0.48912 0.4831 0.0
C1698 C 0.18487 0.51548 0.5112 0.0
C1699 C 0.23056 0.49438 0.50983 0.0
C1700 C 0.25532 0.48091 0.51855 0.0
C1701 C 0.18368 0.51697 0.49242 0.0
C1702 C 0.20656 0.50771 0.48221 0.0
C1703 C 0.22968 0.49652 0.49101 0.0
C1704 C 0.2061 0.50808 0.46234 0.0
C1705 C 0.15755 0.52764 0.4837 0.0
C1706 C 0.20796 0.48316 0.45276 0.0
C1707 C 0.20491 0.48299 0.4341 0.0
C1708 C 0.19986 0.50774 0.42474 0.0
C1709 C 0.19916 0.5328 0.4343 0.0
C1710 C 0.20249 0.533 0.45294 0.0
H1711 H 0.13971 0.52718 0.49312 0.0
H1712 H 0.16075 0.54941 0.47945 0.0
H1713 H 0.15217 0.51526 0.47162 0.0
H1714 H 0.21078 0.46372 0.45978 0.0
H1715 H 0.20533 0.46335 0.42711 0.0
H1716 H 0.5285 0.79549 0.42535 0.0
H1717 H 0.52181 0.79249 0.4577 0.0
H1718 H 0.4372 0.81907 0.45159 0.0
H1719 H 0.44349 0.82162 0.41898 0.0
H1720 H 0.46927 0.85094 0.47577 0.0
H1721 H 0.47815 0.73869 0.49022 0.0
H1722 H 0.50528 0.75197 0.47616 0.0
H1723 H 0.47023 0.75198 0.46809 0.0
C1724 C 0.5082 0.79994 0.43072 0.0
C1725 C 0.48652 0.80886 0.4195 0.0
C1726 C 0.50444 0.79821 0.44927 0.0
C1727 C 0.47895 0.80527 0.45696 0.0
C1728 C 0.457 0.81341 0.44584 0.0
H1729 H 0.44448 0.80222 0.57216 0.0
H1730 H 0.44144 0.79528 0.53971 0.0
C1731 C 0.46069 0.81504 0.42724 0.0
C1732 C 0.47631 0.80695 0.4767 0.0
H1733 H 0.48371 0.76944 0.51527 0.0
C1734 C 0.47204 0.83308 0.48442 0.0
C1735 C 0.47984 0.78357 0.48787 0.0
C1736 C 0.48338 0.7549 0.48019 0.0
C1737 C 0.47232 0.83663 0.50311 0.0
C1738 C 0.47719 0.81348 0.51424 0.0
C1739 C 0.48031 0.78715 0.50659 0.0
C1740 C 0.47976 0.81647 0.53388 0.0
C1741 C 0.46777 0.86514 0.51083 0.0
C1742 C 0.50261 0.83023 0.54125 0.0
C1743 C 0.50464 0.83398 0.55981 0.0
C1744 C 0.48378 0.82407 0.57131 0.0
C1745 C 0.46113 0.80982 0.5638 0.0
C1746 C 0.45922 0.80595 0.54525 0.0
H1747 H 0.45868 0.87952 0.50079 0.0
H1748 H 0.45391 0.86417 0.52273 0.0
H1749 H 0.48791 0.87377 0.51529 0.0
H1750 H 0.51882 0.83817 0.53261 0.0
H1751 H 0.52256 0.84461 0.56512 0.0
H1752 H 0.78046 0.54464 0.42724 0.0
H1753 H 0.78675 0.54252 0.45991 0.0
H1754 H 0.81027 0.4566 0.45558 0.0
H1755 H 0.80287 0.4585 0.42303 0.0
H1756 H 0.77624 0.46343 0.48261 0.0
H1757 H 0.8579 0.54354 0.48699 0.0
H1758 H 0.82671 0.55649 0.47704 0.0
H1759 H 0.84611 0.52978 0.4658 0.0
C1760 C 0.78713 0.52542 0.43333 0.0
C1761 C 0.79131 0.50176 0.42272 0.0
C1762 C 0.79085 0.52423 0.45194 0.0
C1763 C 0.79955 0.49955 0.46016 0.0
C1764 C 0.80361 0.47588 0.44953 0.0
H1765 H 0.86954 0.48694 0.56671 0.0
H1766 H 0.86074 0.48927 0.53436 0.0
C1767 C 0.79938 0.47694 0.43099 0.0
C1768 C 0.80391 0.49812 0.47986 0.0
H1769 H 0.83868 0.52818 0.51467 0.0
C1770 C 0.79 0.4775 0.48962 0.0
C1771 C 0.82215 0.51626 0.48895 0.0
C1772 C 0.83929 0.53756 0.47913 0.0
C1773 C 0.7938 0.4745 0.50822 0.0
C1774 C 0.81121 0.49333 0.51741 0.0
C1775 C 0.82511 0.51394 0.50764 0.0
C1776 C 0.81617 0.49148 0.53703 0.0
C1777 C 0.77979 0.45067 0.51766 0.0
C1778 C 0.79408 0.49212 0.5493 0.0
C1779 C 0.79911 0.49032 0.56777 0.0
C1780 C 0.82632 0.4886 0.57426 0.0
C1781 C 0.8484 0.48849 0.56201 0.0
C1782 C 0.84337 0.48977 0.54356 0.0
H1783 H 0.7744 0.43381 0.50812 0.0
H1784 H 0.79314 0.44194 0.5284 0.0
H1785 H 0.76029 0.45807 0.52388 0.0
H1786 H 0.77299 0.49427 0.54462 0.0
H1787 H 0.78182 0.49084 0.57701 0.0
H1788 H 0.46124 0.21719 0.42188 0.0
H1789 H 0.46977 0.22456 0.45377 0.0
H1790 H 0.55413 0.19748 0.44712 0.0
H1791 H 0.54586 0.19028 0.41498 0.0
H1792 H 0.52572 0.16935 0.47368 0.0
H1793 H 0.51285 0.28245 0.48243 0.0
H1794 H 0.48479 0.26681 0.47032 0.0
H1795 H 0.51896 0.26669 0.46075 0.0
C1796 C 0.48184 0.21351 0.42702 0.0
C1797 C 0.50288 0.20309 0.41583 0.0
C1798 C 0.48669 0.21779 0.4453 0.0
C1799 C 0.51268 0.21193 0.45274 0.0
C1800 C 0.53397 0.20227 0.44158 0.0
H1801 H 0.55399 0.21818 0.56755 0.0
H1802 H 0.55677 0.22417 0.53491 0.0
C1803 C 0.52915 0.198 0.42326 0.0
C1804 C 0.51651 0.21293 0.47245 0.0
H1805 H 0.50863 0.25462 0.50919 0.0
C1806 C 0.52248 0.18809 0.48142 0.0
C1807 C 0.5123 0.23744 0.4825 0.0
C1808 C 0.50714 0.26492 0.4735 0.0
C1809 C 0.52307 0.18685 0.50023 0.0
C1810 C 0.51748 0.21101 0.51023 0.0
C1811 C 0.51268 0.23612 0.50135 0.0
C1812 C 0.51509 0.20994 0.52995 0.0
C1813 C 0.52882 0.1596 0.50938 0.0
C1814 C 0.49056 0.20041 0.53781 0.0
C1815 C 0.48879 0.19713 0.5564 0.0
C1816 C 0.5116 0.20324 0.56745 0.0
C1817 C 0.53594 0.21356 0.55949 0.0
C1818 C 0.53764 0.21691 0.54086 0.0
H1819 H 0.53585 0.14348 0.49976 0.0
H1820 H 0.54487 0.1623 0.51993 0.0
H1821 H 0.5097 0.15218 0.5161 0.0
H1822 H 0.47296 0.19502 0.52949 0.0
H1823 H 0.46963 0.18959 0.5621 0.0
H1824 H 0.72646 1.00311 0.91284 0.0
H1825 H 0.73332 0.00586 0.94543 0.0
H1826 H 0.64493 1.00248 0.95337 0.0
H1827 H 0.6381 1.00089 0.92075 0.0
H1828 H 0.66718 0.03866 0.97547 0.0
H1829 H 0.72778 0.94156 0.97886 0.0
H1830 H 0.74353 0.96666 0.96438 0.0
H1831 H 0.71021 0.95244 0.95869 0.0
C1832 C 0.70858 1.003 0.92161 0.0
C1833 C 0.68179 1.00161 0.9144 0.0
C1834 C 0.71248 0.00441 0.94018 0.0
C1835 C 0.68966 0.00364 0.95186 0.0
C1836 C 0.66284 1.00296 0.94462 0.0
H1837 H 0.70207 0.95888 0.0643 0.0
H1838 H 0.69298 0.96064 0.03193 0.0
C1839 C 0.65893 1.00211 0.92603 0.0
C1840 C 0.69368 0.00331 0.9716 0.0
H1841 H 0.72672 0.96894 0.00541 0.0
C1842 C 0.68008 0.02333 0.98205 0.0
C1843 C 0.7101 0.98298 0.98019 0.0
C1844 C 0.72348 0.95953 0.96997 0.0
C1845 C 0.68265 0.02375 0.00084 0.0
C1846 C 0.70012 0.00421 0.00933 0.0
C1847 C 0.71355 0.98409 -0.00112 0.0
C1848 C 0.70445 0.00375 0.02906 0.0
C1849 C 0.666 0.04463 0.01136 0.0
C1850 C 0.71396 0.02735 0.03819 0.0
C1851 C 0.71864 0.02645 0.05672 0.0
C1852 C 0.71464 1.00174 0.06629 0.0
C1853 C 0.70548 0.97808 0.05713 0.0
C1854 C 0.70026 0.97912 0.03869 0.0
H1855 H 0.64758 0.05168 0.00368 0.0
H1856 H 0.65893 0.03597 0.0244 0.0
H1857 H 0.67903 0.06306 0.01409 0.0
H1858 H 0.71818 0.04634 0.03098 0.0
H1859 H 0.72608 0.04481 0.06352 0.0
H1860 H 0.96367 0.3175 0.92105 0.0
H1861 H 0.96627 0.31279 0.95379 0.0
H1862 H 0.05383 0.29671 0.94996 0.0
H1863 H 0.05131 0.30115 0.91726 0.0
H1864 H 0.02761 0.26231 0.97424 0.0
H1865 H 0.99972 0.37225 0.98592 0.0
H1866 H 0.97464 0.35356 0.97291 0.0
H1867 H 0.00877 0.35911 0.96399 0.0
C1868 C 0.98344 0.31297 0.92721 0.0
C1869 C 0.0073 0.30989 0.91662 0.0
C1870 C 0.98491 0.3103 0.94588 0.0
C1871 C 0.01034 0.30491 0.95428 0.0
C1872 C 0.03403 0.30093 0.94371 0.0
H1873 H 0.04435 0.33976 0.06596 0.0
H1874 H 0.04606 0.33645 0.03334 0.0
C1875 C 0.03253 0.30339 0.92504 0.0
C1876 C 0.01246 0.30422 0.9741 0.0
H1877 H 1.00224 0.34342 0.01163 0.0
C1878 C 0.02214 0.28003 0.98245 0.0
C1879 C 0.00578 0.32757 0.98471 0.0
C1880 C 0.99691 0.35469 0.97644 0.0
C1881 C 0.02491 0.27843 0.00121 0.0
C1882 C 0.01728 0.30146 0.01184 0.0
C1883 C 0.00793 0.32573 0.00345 0.0
C1884 C 0.01872 0.3011 0.03171 0.0
C1885 C 0.03643 0.25231 0.00943 0.0
C1886 C 0.00315 0.28201 0.04166 0.0
C1887 C 1.00245 0.28356 0.06041 0.0
C1888 C 0.01696 0.30453 0.06956 0.0
C1889 C 0.03315 0.32315 0.0595 0.0
C1890 C 0.034 0.32143 0.04079 0.0
H1891 H 0.04859 0.24018 -0.0005 0.0
H1892 H 0.04985 0.25703 0.02115 0.0
H1893 H 0.01907 0.23913 0.01411 0.0
H1894 H 0.99081 0.26644 0.03492 0.0
H1895 H 0.9901 0.26863 0.06768 0.0
H1896 H 0.32274 0.05476 0.06561 0.0
H1897 H 0.31445 0.06131 0.03344 0.0
H1898 H 0.28943 0.97595 0.02878 0.0
H1899 H 0.2977 0.96926 0.06086 0.0
H1900 H 0.34287 0.03295 0.00756 0.0
H1901 H 0.23024 0.01564 -0.00056 0.0
H1902 H 0.24595 0.02284 0.02098 0.0
H1903 H 0.24713 0.98848 0.01171 0.0
C1904 C 0.31523 0.03748 0.05776 0.0
C1905 C 0.311 0.01146 0.06575 0.0
C1906 C 0.31032 0.0413 0.03943 0.0
C1907 C 0.301 0.01922 0.02881 0.0
C1908 C 0.29595 0.99345 0.03683 0.0
H1909 H 0.32405 0.97728 0.91897 0.0
H1910 H 0.31787 0.97935 0.95157 0.0
C1911 C 0.30077 0.98963 0.05517 0.0
C1912 C 0.29967 0.02216 0.00905 0.0
H1913 H 0.25784 0.01254 0.97257 0.0
C1914 C 0.32416 0.02892 -7e-05 0.0
C1915 C 0.27523 0.01691 -0.00083 0.0
C1916 C 0.24807 0.01082 0.00833 0.0
C1917 C 0.32512 0.02951 0.98113 0.0
C1918 C 0.30104 0.02308 0.97128 0.0
C1919 C 0.27627 0.01726 0.9803 0.0
C1920 C 0.3019 0.02112 0.95155 0.0
C1921 C 0.35201 0.0363 0.97182 0.0
C1922 C 0.29455 0.04385 0.94091 0.0
C1923 C 0.29831 0.04286 0.9223 0.0
C1924 C 0.3095 0.01909 0.91412 0.0
C1925 C 0.31587 0.99603 0.92487 0.0
C1926 C 0.31213 0.99706 0.94345 0.0
H1927 H 0.3681 0.04357 0.98138 0.0
H1928 H 0.35985 0.01758 0.96482 0.0
H1929 H 0.34861 0.05253 0.96148 0.0
H1930 H 0.28679 0.06263 0.94707 0.0
H1931 H 0.29345 0.06107 0.91444 0.0
H1932 H 0.01256 0.65242 0.92194 0.0
H1933 H 0.01625 0.66016 0.95422 0.0
H1934 H 0.98215 0.74198 0.94787 0.0
H1935 H 0.9789 0.73473 0.91536 0.0
H1936 H 0.04489 0.70564 0.97316 0.0
H1937 H 0.9312 0.70045 0.98527 0.0
H1938 H 0.94686 0.68685 0.96508 0.0
H1939 H 0.9435 0.72352 0.96802 0.0
C1940 C 0.00621 0.67224 0.92728 0.0
C1941 C 0.99533 0.69291 0.91599 0.0
C1942 C 0.00822 0.67656 0.94576 0.0
C1943 C 0.99926 0.70152 0.95335 0.0
C1944 C 0.98885 0.72245 0.94221 0.0
H1945 H 0.02733 0.73358 0.06843 0.0
H1946 H 0.02238 0.74176 0.0361 0.0
C1947 C 0.98691 0.71819 0.92366 0.0
C1948 C 1.00039 0.70509 0.97303 0.0
H1949 H 0.95997 0.70436 0.01063 0.0
C1950 C 0.02637 0.70581 0.9814 0.0
C1951 C 0.9761 0.7051 0.9836 0.0
C1952 C 0.94776 0.7038 0.97515 0.0
C1953 C 0.02875 0.70568 0.00019 0.0
C1954 C 0.00447 0.70496 0.01076 0.0
C1955 C 0.97847 0.70509 0.0024 0.0
C1956 C 0.00576 0.70115 0.03043 0.0
C1957 C 0.05714 0.70496 0.00861 0.0
C1958 C 0.99746 0.67587 0.03788 0.0
C1959 C 1.00044 0.67103 0.05626 0.0
C1960 C 0.01166 0.69149 0.06757 0.0
C1961 C 0.01911 0.7172 0.06009 0.0
C1962 C 0.0162 0.72197 0.04165 0.0
H1963 H 0.07373 0.70188 -0.00154 0.0
H1964 H 0.06106 0.72481 0.01567 0.0
H1965 H 0.05842 0.68809 0.01871 0.0
H1966 H 0.98942 0.65954 0.02936 0.0
H1967 H 0.99478 0.65091 0.06144 0.0
loop_
_geom_bond_atom_site_label_1
_geom_bond_atom_site_label_2
_geom_bond_distance
_geom_bond_site_symmetry_2
_ccdc_geom_bond_type
C0 C1 1.351 . S
C0 N3 1.368 . S
C0 H5 0.931 . S
C1 C0 1.351 . S
C1 N2 1.373 . S
C1 H29 0.930 . S
N2 C1 1.373 . S
N2 C4 1.340 . S
N3 C0 1.368 . S
N3 C4 1.321 . S
N3 Co6 2.135 . S
C4 N2 1.340 . S
C4 N3 1.321 . S
C4 H28 0.930 . S
H5 C0 0.931 . S
Co6 N3 2.135 . S
Co6 N9 2.121 . S
Co6 O14 2.055 . S
Co6 O17 2.039 . S
Co6 N20 2.140 . S
C7 O8 1.227 . S
C7 O17 1.265 . S
O8 C7 1.227 . S
N9 Co6 2.121 . S
N9 C11 1.375 . S
N9 C12 1.313 . S
C10 C11 1.338 . S
C10 N13 1.377 . S
C10 H30 0.930 . S
C11 N9 1.375 . S
C11 C10 1.338 . S
C11 H15 0.931 . S
C12 N9 1.313 . S
C12 N13 1.344 . S
C12 H16 0.930 . S
N13 C10 1.377 . S
N13 C12 1.344 . S
O14 Co6 2.055 . S
O14 C18 1.253 . S
H15 C11 0.931 . S
H16 C12 0.930 . S
O17 Co6 2.039 . S
O17 C7 1.265 . S
C18 O14 1.253 . S
C18 O19 1.227 . S
O19 C18 1.227 . S
N20 Co6 2.140 . S
N20 C23 1.346 . S
N20 C24 1.345 . S
C21 C22 1.387 . S
C21 C25 1.391 . S
C22 C21 1.387 . S
C22 C23 1.369 . S
C22 H31 0.929 . S
C23 N20 1.346 . S
C23 C22 1.369 . S
C23 H26 0.928 . S
C24 N20 1.345 . S
C24 C25 1.371 . S
C24 H27 0.931 . S
C25 C21 1.391 . S
C25 C24 1.371 . S
C25 H32 0.930 . S
H26 C23 0.928 . S
H27 C24 0.931 . S
H28 C4 0.930 . S
H29 C1 0.930 . S
H30 C10 0.930 . S
H31 C22 0.929 . S
H32 C25 0.930 . S
C33 C34 1.351 . S
C33 N36 1.368 . S
C33 H38 0.931 . S
C34 C33 1.351 . S
C34 N35 1.373 . S
C34 H62 0.930 . S
N35 C34 1.373 . S
N35 C37 1.340 . S
N36 C33 1.368 . S
N36 C37 1.321 . S
N36 Co39 2.135 . S
C37 N35 1.340 . S
C37 N36 1.321 . S
C37 H61 0.930 . S
H38 C33 0.931 . S
Co39 N36 2.135 . S
Co39 N42 2.121 . S
Co39 O47 2.055 . S
Co39 O50 2.039 . S
Co39 N53 2.140 . S
C40 O41 1.227 . S
C40 O50 1.265 . S
O41 C40 1.227 . S
N42 Co39 2.121 . S
N42 C44 1.375 . S
N42 C45 1.313 . S
C43 C44 1.338 . S
C43 N46 1.377 . S
C43 H63 0.930 . S
C44 N42 1.375 . S
C44 C43 1.338 . S
C44 H48 0.931 . S
C45 N42 1.313 . S
C45 N46 1.344 . S
C45 H49 0.930 . S
N46 C43 1.377 . S
N46 C45 1.344 . S
O47 Co39 2.055 . S
O47 C51 1.253 . S
H48 C44 0.931 . S
H49 C45 0.930 . S
O50 Co39 2.039 . S
O50 C40 1.265 . S
C51 O47 1.253 . S
C51 O52 1.227 . S
O52 C51 1.227 . S
N53 Co39 2.140 . S
N53 C56 1.346 . S
N53 C57 1.345 . S
C54 C55 1.387 . S
C54 C58 1.391 . S
C55 C54 1.387 . S
C55 C56 1.369 . S
C55 H64 0.929 . S
C56 N53 1.346 . S
C56 C55 1.369 . S
C56 H59 0.928 . S
C57 N53 1.345 . S
C57 C58 1.371 . S
C57 H60 0.931 . S
C58 C54 1.391 . S
C58 C57 1.371 . S
C58 H65 0.930 . S
H59 C56 0.928 . S
H60 C57 0.931 . S
H61 C37 0.930 . S
H62 C34 0.930 . S
H63 C43 0.930 . S
H64 C55 0.929 . S
H65 C58 0.930 . S
C66 C67 1.351 . S
C66 N69 1.368 . S
C66 H71 0.931 . S
C67 C66 1.351 . S
C67 N68 1.373 . S
C67 H95 0.930 . S
N68 C67 1.373 . S
N68 C70 1.340 . S
N69 C66 1.368 . S
N69 C70 1.321 . S
N69 Co72 2.135 . S
C70 N68 1.340 . S
C70 N69 1.321 . S
C70 H94 0.930 . S
H71 C66 0.931 . S
Co72 N69 2.135 . S
Co72 N75 2.121 . S
Co72 O80 2.055 . S
Co72 O83 2.039 . S
Co72 N86 2.140 . S
C73 O74 1.227 . S
C73 O83 1.265 . S
O74 C73 1.227 . S
N75 Co72 2.121 . S
N75 C77 1.375 . S
N75 C78 1.313 . S
C76 C77 1.338 . S
C76 N79 1.377 . S
C76 H96 0.930 . S
C77 N75 1.375 . S
C77 C76 1.338 . S
C77 H81 0.931 . S
C78 N75 1.313 . S
C78 N79 1.344 . S
C78 H82 0.930 . S
N79 C76 1.377 . S
N79 C78 1.344 . S
O80 Co72 2.055 . S
O80 C84 1.253 . S
H81 C77 0.931 . S
H82 C78 0.930 . S
O83 Co72 2.039 . S
O83 C73 1.265 . S
C84 O80 1.253 . S
C84 O85 1.227 . S
O85 C84 1.227 . S
N86 Co72 2.140 . S
N86 C89 1.346 . S
N86 C90 1.345 . S
C87 C88 1.387 . S
C87 C91 1.391 . S
C88 C87 1.387 . S
C88 C89 1.369 . S
C88 H97 0.929 . S
C89 N86 1.346 . S
C89 C88 1.369 . S
C89 H92 0.928 . S
C90 N86 1.345 . S
C90 C91 1.371 . S
C90 H93 0.931 . S
C91 C87 1.391 . S
C91 C90 1.371 . S
C91 H98 0.930 . S
H92 C89 0.928 . S
H93 C90 0.931 . S
H94 C70 0.930 . S
H95 C67 0.930 . S
H96 C76 0.930 . S
H97 C88 0.929 . S
H98 C91 0.930 . S
C99 C100 1.351 . S
C99 N102 1.368 . S
C99 H104 0.931 . S
C100 C99 1.351 . S
C100 N101 1.373 . S
C100 H128 0.930 . S
N101 C100 1.373 . S
N101 C103 1.340 . S
N102 C99 1.368 . S
N102 C103 1.321 . S
N102 Co105 2.135 . S
C103 N101 1.340 . S
C103 N102 1.321 . S
C103 H127 0.930 . S
H104 C99 0.931 . S
Co105 N102 2.135 . S
Co105 N108 2.121 . S
Co105 O113 2.055 . S
Co105 O116 2.039 . S
Co105 N119 2.140 . S
C106 O107 1.227 . S
C106 O116 1.265 . S
O107 C106 1.227 . S
N108 Co105 2.121 . S
N108 C110 1.375 . S
N108 C111 1.313 . S
C109 C110 1.338 . S
C109 N112 1.377 . S
C109 H129 0.930 . S
C110 N108 1.375 . S
C110 C109 1.338 . S
C110 H114 0.931 . S
C111 N108 1.313 . S
C111 N112 1.344 . S
C111 H115 0.930 . S
N112 C109 1.377 . S
N112 C111 1.344 . S
O113 Co105 2.055 . S
O113 C117 1.253 . S
H114 C110 0.931 . S
H115 C111 0.930 . S
O116 Co105 2.039 . S
O116 C106 1.265 . S
C117 O113 1.253 . S
C117 O118 1.227 . S
O118 C117 1.227 . S
N119 Co105 2.140 . S
N119 C122 1.346 . S
N119 C123 1.345 . S
C120 C121 1.387 . S
C120 C124 1.391 . S
C121 C120 1.387 . S
C121 C122 1.369 . S
C121 H130 0.929 . S
C122 N119 1.346 . S
C122 C121 1.369 . S
C122 H125 0.928 . S
C123 N119 1.345 . S
C123 C124 1.371 . S
C123 H126 0.931 . S
C124 C120 1.391 . S
C124 C123 1.371 . S
C124 H131 0.930 . S
H125 C122 0.928 . S
H126 C123 0.931 . S
H127 C103 0.930 . S
H128 C100 0.930 . S
H129 C109 0.930 . S
H130 C121 0.929 . S
H131 C124 0.930 . S
C132 C133 1.351 . S
C132 N135 1.368 . S
C132 H137 0.931 . S
C133 C132 1.351 . S
C133 N134 1.373 . S
C133 H161 0.930 . S
N134 C133 1.373 . S
N134 C136 1.340 . S
N135 C132 1.368 . S
N135 C136 1.321 . S
N135 Co138 2.135 . S
C136 N134 1.340 . S
C136 N135 1.321 . S
C136 H160 0.930 . S
H137 C132 0.931 . S
Co138 N135 2.135 . S
Co138 N141 2.121 . S
Co138 O146 2.055 . S
Co138 O149 2.039 . S
Co138 N152 2.140 . S
C139 O140 1.227 . S
C139 O149 1.265 . S
O140 C139 1.227 . S
N141 Co138 2.121 . S
N141 C143 1.375 . S
N141 C144 1.313 . S
C142 C143 1.338 . S
C142 N145 1.377 . S
C142 H162 0.930 . S
C143 N141 1.375 . S
C143 C142 1.338 . S
C143 H147 0.931 . S
C144 N141 1.313 . S
C144 N145 1.344 . S
C144 H148 0.930 . S
N145 C142 1.377 . S
N145 C144 1.344 . S
O146 Co138 2.055 . S
O146 C150 1.253 . S
H147 C143 0.931 . S
H148 C144 0.930 . S
O149 Co138 2.039 . S
O149 C139 1.265 . S
C150 O146 1.253 . S
C150 O151 1.227 . S
O151 C150 1.227 . S
N152 Co138 2.140 . S
N152 C155 1.346 . S
N152 C156 1.345 . S
C153 C154 1.387 . S
C153 C157 1.391 . S
C154 C153 1.387 . S
C154 C155 1.369 . S
C154 H163 0.929 . S
C155 N152 1.346 . S
C155 C154 1.369 . S
C155 H158 0.928 . S
C156 N152 1.345 . S
C156 C157 1.371 . S
C156 H159 0.931 . S
C157 C153 1.391 . S
C157 C156 1.371 . S
C157 H164 0.930 . S
H158 C155 0.928 . S
H159 C156 0.931 . S
H160 C136 0.930 . S
H161 C133 0.930 . S
H162 C142 0.930 . S
H163 C154 0.929 . S
H164 C157 0.930 . S
C165 C166 1.351 . S
C165 N168 1.368 . S
C165 H170 0.931 . S
C166 C165 1.351 . S
C166 N167 1.373 . S
C166 H194 0.930 . S
N167 C166 1.373 . S
N167 C169 1.340 . S
N168 C165 1.368 . S
N168 C169 1.321 . S
N168 Co171 2.135 . S
C169 N167 1.340 . S
C169 N168 1.321 . S
C169 H193 0.930 . S
H170 C165 0.931 . S
Co171 N168 2.135 . S
Co171 N174 2.121 . S
Co171 O179 2.055 . S
Co171 O182 2.039 . S
Co171 N185 2.140 . S
C172 O173 1.227 . S
C172 O182 1.265 . S
O173 C172 1.227 . S
N174 Co171 2.121 . S
N174 C176 1.375 . S
N174 C177 1.313 . S
C175 C176 1.338 . S
C175 N178 1.377 . S
C175 H195 0.930 . S
C176 N174 1.375 . S
C176 C175 1.338 . S
C176 H180 0.931 . S
C177 N174 1.313 . S
C177 N178 1.344 . S
C177 H181 0.930 . S
N178 C175 1.377 . S
N178 C177 1.344 . S
O179 Co171 2.055 . S
O179 C183 1.253 . S
H180 C176 0.931 . S
H181 C177 0.930 . S
O182 Co171 2.039 . S
O182 C172 1.265 . S
C183 O179 1.253 . S
C183 O184 1.227 . S
O184 C183 1.227 . S
N185 Co171 2.140 . S
N185 C188 1.346 . S
N185 C189 1.345 . S
C186 C187 1.387 . S
C186 C190 1.391 . S
C187 C186 1.387 . S
C187 C188 1.369 . S
C187 H196 0.929 . S
C188 N185 1.346 . S
C188 C187 1.369 . S
C188 H191 0.928 . S
C189 N185 1.345 . S
C189 C190 1.371 . S
C189 H192 0.931 . S
C190 C186 1.391 . S
C190 C189 1.371 . S
C190 H197 0.930 . S
H191 C188 0.928 . S
H192 C189 0.931 . S
H193 C169 0.930 . S
H194 C166 0.930 . S
H195 C175 0.930 . S
H196 C187 0.929 . S
H197 C190 0.930 . S
C198 C199 1.351 . S
C198 N201 1.368 . S
C198 H203 0.931 . S
C199 C198 1.351 . S
C199 N200 1.373 . S
C199 H227 0.930 . S
N200 C199 1.373 . S
N200 C202 1.340 . S
N201 C198 1.368 . S
N201 C202 1.321 . S
N201 Co204 2.135 . S
C202 N200 1.340 . S
C202 N201 1.321 . S
C202 H226 0.930 . S
H203 C198 0.931 . S
Co204 N201 2.135 . S
Co204 N207 2.121 . S
Co204 O212 2.055 . S
Co204 O215 2.039 . S
Co204 N218 2.140 . S
C205 O206 1.227 . S
C205 O215 1.265 . S
O206 C205 1.227 . S
N207 Co204 2.121 . S
N207 C209 1.375 . S
N207 C210 1.313 . S
C208 C209 1.338 . S
C208 N211 1.377 . S
C208 H228 0.930 . S
C209 N207 1.375 . S
C209 C208 1.338 . S
C209 H213 0.931 . S
C210 N207 1.313 . S
C210 N211 1.344 . S
C210 H214 0.930 . S
N211 C208 1.377 . S
N211 C210 1.344 . S
O212 Co204 2.055 . S
O212 C216 1.253 . S
H213 C209 0.931 . S
H214 C210 0.930 . S
O215 Co204 2.039 . S
O215 C205 1.265 . S
C216 O212 1.253 . S
C216 O217 1.227 . S
O217 C216 1.227 . S
N218 Co204 2.140 . S
N218 C221 1.346 . S
N218 C222 1.345 . S
C219 C220 1.387 . S
C219 C223 1.391 . S
C220 C219 1.387 . S
C220 C221 1.369 . S
C220 H229 0.929 . S
C221 N218 1.346 . S
C221 C220 1.369 . S
C221 H224 0.928 . S
C222 N218 1.345 . S
C222 C223 1.371 . S
C222 H225 0.931 . S
C223 C219 1.391 . S
C223 C222 1.371 . S
C223 H230 0.930 . S
H224 C221 0.928 . S
H225 C222 0.931 . S
H226 C202 0.930 . S
H227 C199 0.930 . S
H228 C208 0.930 . S
H229 C220 0.929 . S
H230 C223 0.930 . S
C231 C232 1.351 . S
C231 N234 1.368 . S
C231 H236 0.931 . S
C232 C231 1.351 . S
C232 N233 1.373 . S
C232 H260 0.930 . S
N233 C232 1.373 . S
N233 C235 1.340 . S
N234 C231 1.368 . S
N234 C235 1.321 . S
N234 Co237 2.135 . S
C235 N233 1.340 . S
C235 N234 1.321 . S
C235 H259 0.930 . S
H236 C231 0.931 . S
Co237 N234 2.135 . S
Co237 N240 2.121 . S
Co237 O245 2.055 . S
Co237 O248 2.039 . S
Co237 N251 2.140 . S
C238 O239 1.227 . S
C238 O248 1.265 . S
O239 C238 1.227 . S
N240 Co237 2.121 . S
N240 C242 1.375 . S
N240 C243 1.313 . S
C241 C242 1.338 . S
C241 N244 1.377 . S
C241 H261 0.930 . S
C242 N240 1.375 . S
C242 C241 1.338 . S
C242 H246 0.931 . S
C243 N240 1.313 . S
C243 N244 1.344 . S
C243 H247 0.930 . S
N244 C241 1.377 . S
N244 C243 1.344 . S
O245 Co237 2.055 . S
O245 C249 1.253 . S
H246 C242 0.931 . S
H247 C243 0.930 . S
O248 Co237 2.039 . S
O248 C238 1.265 . S
C249 O245 1.253 . S
C249 O250 1.227 . S
O250 C249 1.227 . S
N251 Co237 2.140 . S
N251 C254 1.346 . S
N251 C255 1.345 . S
C252 C253 1.387 . S
C252 C256 1.391 . S
C253 C252 1.387 . S
C253 C254 1.369 . S
C253 H262 0.929 . S
C254 N251 1.346 . S
C254 C253 1.369 . S
C254 H257 0.928 . S
C255 N251 1.345 . S
C255 C256 1.371 . S
C255 H258 0.931 . S
C256 C252 1.391 . S
C256 C255 1.371 . S
C256 H263 0.930 . S
H257 C254 0.928 . S
H258 C255 0.931 . S
H259 C235 0.930 . S
H260 C232 0.930 . S
H261 C241 0.930 . S
H262 C253 0.929 . S
H263 C256 0.930 . S
C264 C265 1.351 . S
C264 N267 1.368 . S
C264 H269 0.931 . S
C265 C264 1.351 . S
C265 N266 1.373 . S
C265 H293 0.930 . S
N266 C265 1.373 . S
N266 C268 1.340 . S
N267 C264 1.368 . S
N267 C268 1.321 . S
N267 Co270 2.135 . S
C268 N266 1.340 . S
C268 N267 1.321 . S
C268 H292 0.930 . S
H269 C264 0.931 . S
Co270 N267 2.135 . S
Co270 N273 2.121 . S
Co270 O278 2.055 . S
Co270 O281 2.039 . S
Co270 N284 2.140 . S
C271 O272 1.227 . S
C271 O281 1.265 . S
O272 C271 1.227 . S
N273 Co270 2.121 . S
N273 C275 1.375 . S
N273 C276 1.313 . S
C274 C275 1.338 1_545 S
C274 N277 1.377 1_545 S
C274 H294 0.930 . S
C275 N273 1.375 . S
C275 C274 1.338 1_565 S
C275 H279 0.931 1_565 S
C276 N273 1.313 . S
C276 N277 1.344 . S
C276 H280 0.930 . S
N277 C274 1.377 1_565 S
N277 C276 1.344 . S
O278 Co270 2.055 . S
O278 C282 1.253 . S
H279 C275 0.931 1_545 S
H280 C276 0.930 . S
O281 Co270 2.039 . S
O281 C271 1.265 . S
C282 O278 1.253 . S
C282 O283 1.227 . S
O283 C282 1.227 . S
N284 Co270 2.140 . S
N284 C287 1.346 . S
N284 C288 1.345 1_565 S
C285 C286 1.387 . S
C285 C289 1.391 . S
C286 C285 1.387 . S
C286 C287 1.369 1_545 S
C286 H295 0.929 . S
C287 N284 1.346 . S
C287 C286 1.369 1_565 S
C287 H290 0.928 . S
C288 N284 1.345 1_545 S
C288 C289 1.371 . S
C288 H291 0.931 . S
C289 C285 1.391 . S
C289 C288 1.371 . S
C289 H296 0.930 . S
H290 C287 0.928 . S
H291 C288 0.931 . S
H292 C268 0.930 . S
H293 C265 0.930 . S
H294 C274 0.930 . S
H295 C286 0.929 . S
H296 C289 0.930 . S
C297 C298 1.351 . S
C297 N300 1.368 . S
C297 H302 0.931 . S
C298 C297 1.351 . S
C298 N299 1.373 . S
C298 H326 0.930 . S
N299 C298 1.373 . S
N299 C301 1.340 . S
N300 C297 1.368 . S
N300 C301 1.321 . S
N300 Co303 2.135 . S
C301 N299 1.340 . S
C301 N300 1.321 . S
C301 H325 0.930 . S
H302 C297 0.931 . S
Co303 N300 2.135 . S
Co303 N306 2.121 . S
Co303 O311 2.055 . S
Co303 O314 2.039 . S
Co303 N317 2.140 . S
C304 O305 1.227 . S
C304 O314 1.265 . S
O305 C304 1.227 . S
N306 Co303 2.121 . S
N306 C308 1.375 . S
N306 C309 1.313 . S
C307 C308 1.338 1_455 S
C307 N310 1.377 1_455 S
C307 H327 0.930 . S
C308 N306 1.375 . S
C308 C307 1.338 1_655 S
C308 H312 0.931 1_655 S
C309 N306 1.313 . S
C309 N310 1.344 . S
C309 H313 0.930 . S
N310 C307 1.377 1_655 S
N310 C309 1.344 . S
O311 Co303 2.055 . S
O311 C315 1.253 . S
H312 C308 0.931 1_455 S
H313 C309 0.930 . S
O314 Co303 2.039 . S
O314 C304 1.265 . S
C315 O311 1.253 . S
C315 O316 1.227 . S
O316 C315 1.227 . S
N317 Co303 2.140 . S
N317 C320 1.346 . S
N317 C321 1.345 1_655 S
C318 C319 1.387 . S
C318 C322 1.391 . S
C319 C318 1.387 . S
C319 C320 1.369 1_455 S
C319 H328 0.929 . S
C320 N317 1.346 . S
C320 C319 1.369 1_655 S
C320 H323 0.928 . S
C321 N317 1.345 1_455 S
C321 C322 1.371 . S
C321 H324 0.931 . S
C322 C318 1.391 . S
C322 C321 1.371 . S
C322 H329 0.930 . S
H323 C320 0.928 . S
H324 C321 0.931 . S
H325 C301 0.930 . S
H326 C298 0.930 . S
H327 C307 0.930 . S
H328 C319 0.929 . S
H329 C322 0.930 . S
C330 C331 1.351 . S
C330 N333 1.368 . S
C330 H335 0.931 . S
C331 C330 1.351 . S
C331 N332 1.373 . S
C331 H359 0.930 . S
N332 C331 1.373 . S
N332 C334 1.340 . S
N333 C330 1.368 . S
N333 C334 1.321 . S
N333 Co336 2.135 . S
C334 N332 1.340 . S
C334 N333 1.321 . S
C334 H358 0.930 . S
H335 C330 0.931 . S
Co336 N333 2.135 . S
Co336 N339 2.121 . S
Co336 O344 2.055 . S
Co336 O347 2.039 . S
Co336 N350 2.140 . S
C337 O338 1.227 . S
C337 O347 1.265 . S
O338 C337 1.227 . S
N339 Co336 2.121 . S
N339 C341 1.375 . S
N339 C342 1.313 . S
C340 C341 1.338 1_565 S
C340 N343 1.377 1_565 S
C340 H360 0.930 . S
C341 N339 1.375 . S
C341 C340 1.338 1_545 S
C341 H345 0.931 1_545 S
C342 N339 1.313 . S
C342 N343 1.344 . S
C342 H346 0.930 . S
N343 C340 1.377 1_545 S
N343 C342 1.344 . S
O344 Co336 2.055 . S
O344 C348 1.253 . S
H345 C341 0.931 1_565 S
H346 C342 0.930 . S
O347 Co336 2.039 . S
O347 C337 1.265 . S
C348 O344 1.253 . S
C348 O349 1.227 . S
O349 C348 1.227 . S
N350 Co336 2.140 . S
N350 C353 1.346 . S
N350 C354 1.345 1_545 S
C351 C352 1.387 . S
C351 C355 1.391 . S
C352 C351 1.387 . S
C352 C353 1.369 1_565 S
C352 H361 0.929 . S
C353 N350 1.346 . S
C353 C352 1.369 1_545 S
C353 H356 0.928 . S
C354 N350 1.345 1_565 S
C354 C355 1.371 . S
C354 H357 0.931 . S
C355 C351 1.391 . S
C355 C354 1.371 . S
C355 H362 0.930 . S
H356 C353 0.928 . S
H357 C354 0.931 . S
H358 C334 0.930 . S
H359 C331 0.930 . S
H360 C340 0.930 . S
H361 C352 0.929 . S
H362 C355 0.930 . S
C363 C364 1.351 . S
C363 N366 1.368 . S
C363 H368 0.931 . S
C364 C363 1.351 . S
C364 N365 1.373 . S
C364 H392 0.930 . S
N365 C364 1.373 . S
N365 C367 1.340 . S
N366 C363 1.368 . S
N366 C367 1.321 . S
N366 Co369 2.135 . S
C367 N365 1.340 . S
C367 N366 1.321 . S
C367 H391 0.930 . S
H368 C363 0.931 . S
Co369 N366 2.135 . S
Co369 N372 2.121 . S
Co369 O377 2.055 . S
Co369 O380 2.039 . S
Co369 N383 2.140 . S
C370 O371 1.227 . S
C370 O380 1.265 . S
O371 C370 1.227 . S
N372 Co369 2.121 . S
N372 C374 1.375 . S
N372 C375 1.313 . S
C373 C374 1.338 1_655 S
C373 N376 1.377 1_655 S
C373 H393 0.930 . S
C374 N372 1.375 . S
C374 C373 1.338 1_455 S
C374 H378 0.931 1_455 S
C375 N372 1.313 . S
C375 N376 1.344 . S
C375 H379 0.930 . S
N376 C373 1.377 1_455 S
N376 C375 1.344 . S
O377 Co369 2.055 . S
O377 C381 1.253 . S
H378 C374 0.931 1_655 S
H379 C375 0.930 . S
O380 Co369 2.039 . S
O380 C370 1.265 . S
C381 O377 1.253 . S
C381 O382 1.227 . S
O382 C381 1.227 . S
N383 Co369 2.140 . S
N383 C386 1.346 . S
N383 C387 1.345 1_455 S
C384 C385 1.387 . S
C384 C388 1.391 . S
C385 C384 1.387 . S
C385 C386 1.369 1_655 S
C385 H394 0.929 . S
C386 N383 1.346 . S
C386 C385 1.369 1_455 S
C386 H389 0.928 . S
C387 N383 1.345 1_655 S
C387 C388 1.371 . S
C387 H390 0.931 . S
C388 C384 1.391 . S
C388 C387 1.371 . S
C388 H395 0.930 . S
H389 C386 0.928 . S
H390 C387 0.931 . S
H391 C367 0.930 . S
H392 C364 0.930 . S
H393 C373 0.930 . S
H394 C385 0.929 . S
H395 C388 0.930 . S
C396 C397 1.351 . S
C396 N399 1.368 . S
C396 H401 0.931 . S
C397 C396 1.351 . S
C397 N398 1.373 . S
C397 H425 0.930 . S
N398 C397 1.373 . S
N398 C400 1.340 . S
N399 C396 1.368 . S
N399 C400 1.321 . S
N399 Co402 2.135 . S
C400 N398 1.340 . S
C400 N399 1.321 . S
C400 H424 0.930 . S
H401 C396 0.931 . S
Co402 N399 2.135 . S
Co402 N405 2.121 . S
Co402 O410 2.055 . S
Co402 O413 2.039 . S
Co402 N416 2.140 . S
C403 O404 1.227 . S
C403 O413 1.265 . S
O404 C403 1.227 . S
N405 Co402 2.121 . S
N405 C407 1.375 . S
N405 C408 1.313 . S
C406 C407 1.338 1_565 S
C406 N409 1.377 1_565 S
C406 H426 0.930 . S
C407 N405 1.375 . S
C407 C406 1.338 1_545 S
C407 H411 0.931 1_545 S
C408 N405 1.313 . S
C408 N409 1.344 . S
C408 H412 0.930 . S
N409 C406 1.377 1_545 S
N409 C408 1.344 . S
O410 Co402 2.055 . S
O410 C414 1.253 . S
H411 C407 0.931 1_565 S
H412 C408 0.930 . S
O413 Co402 2.039 . S
O413 C403 1.265 . S
C414 O410 1.253 . S
C414 O415 1.227 . S
O415 C414 1.227 . S
N416 Co402 2.140 . S
N416 C419 1.346 . S
N416 C420 1.345 1_545 S
C417 C418 1.387 . S
C417 C421 1.391 . S
C418 C417 1.387 . S
C418 C419 1.369 1_565 S
C418 H427 0.929 . S
C419 N416 1.346 . S
C419 C418 1.369 1_545 S
C419 H422 0.928 . S
C420 N416 1.345 1_565 S
C420 C421 1.371 . S
C420 H423 0.931 . S
C421 C417 1.391 . S
C421 C420 1.371 . S
C421 H428 0.930 . S
H422 C419 0.928 . S
H423 C420 0.931 . S
H424 C400 0.930 . S
H425 C397 0.930 . S
H426 C406 0.930 . S
H427 C418 0.929 . S
H428 C421 0.930 . S
C429 C430 1.351 . S
C429 N432 1.368 . S
C429 H434 0.931 . S
C430 C429 1.351 . S
C430 N431 1.373 . S
C430 H458 0.930 . S
N431 C430 1.373 . S
N431 C433 1.340 . S
N432 C429 1.368 . S
N432 C433 1.321 . S
N432 Co435 2.135 . S
C433 N431 1.340 . S
C433 N432 1.321 . S
C433 H457 0.930 . S
H434 C429 0.931 . S
Co435 N432 2.135 . S
Co435 N438 2.121 . S
Co435 O443 2.055 . S
Co435 O446 2.039 . S
Co435 N449 2.140 . S
C436 O437 1.227 . S
C436 O446 1.265 . S
O437 C436 1.227 . S
N438 Co435 2.121 . S
N438 C440 1.375 . S
N438 C441 1.313 . S
C439 C440 1.338 1_655 S
C439 N442 1.377 1_655 S
C439 H459 0.930 . S
C440 N438 1.375 . S
C440 C439 1.338 1_455 S
C440 H444 0.931 1_455 S
C441 N438 1.313 . S
C441 N442 1.344 . S
C441 H445 0.930 . S
N442 C439 1.377 1_455 S
N442 C441 1.344 . S
O443 Co435 2.055 . S
O443 C447 1.253 . S
H444 C440 0.931 1_655 S
H445 C441 0.930 . S
O446 Co435 2.039 . S
O446 C436 1.265 . S
C447 O443 1.253 . S
C447 O448 1.227 . S
O448 C447 1.227 . S
N449 Co435 2.140 . S
N449 C452 1.346 . S
N449 C453 1.345 1_455 S
C450 C451 1.387 . S
C450 C454 1.391 . S
C451 C450 1.387 . S
C451 C452 1.369 1_655 S
C451 H460 0.929 . S
C452 N449 1.346 . S
C452 C451 1.369 1_455 S
C452 H455 0.928 . S
C453 N449 1.345 1_655 S
C453 C454 1.371 . S
C453 H456 0.931 . S
C454 C450 1.391 . S
C454 C453 1.371 . S
C454 H461 0.930 . S
H455 C452 0.928 . S
H456 C453 0.931 . S
H457 C433 0.930 . S
H458 C430 0.930 . S
H459 C439 0.930 . S
H460 C451 0.929 . S
H461 C454 0.930 . S
C462 C463 1.351 . S
C462 N465 1.368 . S
C462 H467 0.931 . S
C463 C462 1.351 . S
C463 N464 1.373 . S
C463 H491 0.930 . S
N464 C463 1.373 . S
N464 C466 1.340 . S
N465 C462 1.368 . S
N465 C466 1.321 . S
N465 Co468 2.135 . S
C466 N464 1.340 . S
C466 N465 1.321 . S
C466 H490 0.930 . S
H467 C462 0.931 . S
Co468 N465 2.135 . S
Co468 N471 2.121 . S
Co468 O476 2.055 . S
Co468 O479 2.039 . S
Co468 N482 2.140 . S
C469 O470 1.227 . S
C469 O479 1.265 . S
O470 C469 1.227 . S
N471 Co468 2.121 . S
N471 C473 1.375 . S
N471 C474 1.313 . S
C472 C473 1.338 1_545 S
C472 N475 1.377 1_545 S
C472 H492 0.930 . S
C473 N471 1.375 . S
C473 C472 1.338 1_565 S
C473 H477 0.931 1_565 S
C474 N471 1.313 . S
C474 N475 1.344 . S
C474 H478 0.930 . S
N475 C472 1.377 1_565 S
N475 C474 1.344 . S
O476 Co468 2.055 . S
O476 C480 1.253 . S
H477 C473 0.931 1_545 S
H478 C474 0.930 . S
O479 Co468 2.039 . S
O479 C469 1.265 . S
C480 O476 1.253 . S
C480 O481 1.227 . S
O481 C480 1.227 . S
N482 Co468 2.140 . S
N482 C485 1.346 . S
N482 C486 1.345 1_565 S
C483 C484 1.387 . S
C483 C487 1.391 . S
C484 C483 1.387 . S
C484 C485 1.369 1_545 S
C484 H493 0.929 . S
C485 N482 1.346 . S
C485 C484 1.369 1_565 S
C485 H488 0.928 . S
C486 N482 1.345 1_545 S
C486 C487 1.371 . S
C486 H489 0.931 . S
C487 C483 1.391 . S
C487 C486 1.371 . S
C487 H494 0.930 . S
H488 C485 0.928 . S
H489 C486 0.931 . S
H490 C466 0.930 . S
H491 C463 0.930 . S
H492 C472 0.930 . S
H493 C484 0.929 . S
H494 C487 0.930 . S
C495 C496 1.351 . S
C495 N498 1.368 . S
C495 H500 0.931 . S
C496 C495 1.351 . S
C496 N497 1.373 . S
C496 H524 0.930 . S
N497 C496 1.373 . S
N497 C499 1.340 . S
N498 C495 1.368 . S
N498 C499 1.321 . S
N498 Co501 2.135 . S
C499 N497 1.340 . S
C499 N498 1.321 . S
C499 H523 0.930 . S
H500 C495 0.931 . S
Co501 N498 2.135 . S
Co501 N504 2.121 . S
Co501 O509 2.055 . S
Co501 O512 2.039 . S
Co501 N515 2.140 . S
C502 O503 1.227 . S
C502 O512 1.265 . S
O503 C502 1.227 . S
N504 Co501 2.121 . S
N504 C506 1.375 . S
N504 C507 1.313 . S
C505 C506 1.338 1_455 S
C505 N508 1.377 1_455 S
C505 H525 0.930 . S
C506 N504 1.375 . S
C506 C505 1.338 1_655 S
C506 H510 0.931 1_655 S
C507 N504 1.313 . S
C507 N508 1.344 . S
C507 H511 0.930 . S
N508 C505 1.377 1_655 S
N508 C507 1.344 . S
O509 Co501 2.055 . S
O509 C513 1.253 . S
H510 C506 0.931 1_455 S
H511 C507 0.930 . S
O512 Co501 2.039 . S
O512 C502 1.265 . S
C513 O509 1.253 . S
C513 O514 1.227 . S
O514 C513 1.227 . S
N515 Co501 2.140 . S
N515 C518 1.346 . S
N515 C519 1.345 1_655 S
C516 C517 1.387 . S
C516 C520 1.391 . S
C517 C516 1.387 . S
C517 C518 1.369 1_455 S
C517 H526 0.929 . S
C518 N515 1.346 . S
C518 C517 1.369 1_655 S
C518 H521 0.928 . S
C519 N515 1.345 1_455 S
C519 C520 1.371 . S
C519 H522 0.931 . S
C520 C516 1.391 . S
C520 C519 1.371 . S
C520 H527 0.930 . S
H521 C518 0.928 . S
H522 C519 0.931 . S
H523 C499 0.930 . S
H524 C496 0.930 . S
H525 C505 0.930 . S
H526 C517 0.929 . S
H527 C520 0.930 . S
H528 C536 0.929 . S
H529 C538 0.930 . S
H530 C540 0.930 . S
H531 C543 0.929 . S
H532 C546 0.930 . S
H533 C548 0.960 . S
H534 C548 0.960 . S
H535 C548 0.960 . S
C536 H528 0.929 . S
C536 C537 1.377 . S
C536 C538 1.384 . S
C537 C536 1.377 . S
C537 C543 1.390 . S
C538 H529 0.930 . S
C538 C536 1.384 . S
C538 C539 1.372 . S
C539 C538 1.372 . S
C539 C540 1.400 . S
C539 C544 1.490 . S
C540 H530 0.930 . S
C540 C539 1.400 . S
C540 C543 1.386 . S
H541 C557 0.930 . S
H542 C558 0.931 . S
C543 H531 0.929 . S
C543 C537 1.390 . S
C543 C540 1.386 . S
C544 C539 1.490 . S
C544 C546 1.395 . S
C544 C547 1.403 . S
H545 C551 0.930 . S
C546 H532 0.930 . S
C546 C544 1.395 . S
C546 C549 1.403 1_655 S
C547 C544 1.403 . S
C547 C548 1.524 . S
C547 C551 1.400 1_655 S
C548 H533 0.960 . S
C548 H534 0.960 . S
C548 H535 0.960 . S
C548 C547 1.524 . S
C549 C546 1.403 1_455 S
C549 C550 1.392 . S
C549 C553 1.495 . S
C550 C549 1.392 . S
C550 C551 1.385 . S
C550 C552 1.478 . S
C551 H545 0.930 . S
C551 C547 1.400 1_455 S
C551 C550 1.385 . S
C552 C550 1.478 . S
C552 C554 1.381 . S
C552 C558 1.383 . S
C553 C549 1.495 . S
C553 H559 0.959 . S
C553 H560 0.961 . S
C553 H561 0.960 . S
C554 C552 1.381 . S
C554 C555 1.394 . S
C554 H562 0.930 . S
C555 C554 1.394 . S
C555 C556 1.383 . S
C555 H563 0.929 . S
C556 C555 1.383 . S
C556 C557 1.377 . S
C557 H541 0.930 . S
C557 C556 1.377 . S
C557 C558 1.379 . S
C558 H542 0.931 . S
C558 C552 1.383 . S
C558 C557 1.379 . S
H559 C553 0.959 . S
H560 C553 0.961 . S
H561 C553 0.960 . S
H562 C554 0.930 . S
H563 C555 0.929 . S
H564 C572 0.929 . S
H565 C574 0.930 . S
H566 C576 0.930 . S
H567 C579 0.929 . S
H568 C582 0.930 . S
H569 C584 0.960 1_565 S
H570 C584 0.960 . S
H571 C584 0.960 . S
C572 H564 0.929 . S
C572 C573 1.377 . S
C572 C574 1.384 . S
C573 C572 1.377 . S
C573 C579 1.390 . S
C574 H565 0.930 . S
C574 C572 1.384 . S
C574 C575 1.372 . S
C575 C574 1.372 . S
C575 C576 1.400 . S
C575 C580 1.490 . S
C576 H566 0.930 . S
C576 C575 1.400 . S
C576 C579 1.386 . S
H577 C593 0.930 . S
H578 C594 0.931 . S
C579 H567 0.929 . S
C579 C573 1.390 . S
C579 C576 1.386 . S
C580 C575 1.490 . S
C580 C582 1.395 . S
C580 C583 1.403 . S
H581 C587 0.930 . S
C582 H568 0.930 . S
C582 C580 1.395 . S
C582 C585 1.403 1_545 S
C583 C580 1.403 . S
C583 C584 1.524 . S
C583 C587 1.400 1_545 S
C584 H569 0.960 1_545 S
C584 H570 0.960 . S
C584 H571 0.960 . S
C584 C583 1.524 . S
C585 C582 1.403 1_565 S
C585 C586 1.392 . S
C585 C589 1.495 . S
C586 C585 1.392 . S
C586 C587 1.385 . S
C586 C588 1.478 . S
C587 H581 0.930 . S
C587 C583 1.400 1_565 S
C587 C586 1.385 . S
C588 C586 1.478 . S
C588 C590 1.381 . S
C588 C594 1.383 . S
C589 C585 1.495 . S
C589 H595 0.959 1_565 S
C589 H596 0.961 . S
C589 H597 0.960 . S
C590 C588 1.381 . S
C590 C591 1.394 . S
C590 H598 0.930 . S
C591 C590 1.394 . S
C591 C592 1.383 . S
C591 H599 0.929 . S
C592 C591 1.383 . S
C592 C593 1.377 . S
C593 H577 0.930 . S
C593 C592 1.377 . S
C593 C594 1.379 . S
C594 H578 0.931 . S
C594 C588 1.383 . S
C594 C593 1.379 . S
H595 C589 0.959 1_545 S
H596 C589 0.961 . S
H597 C589 0.960 . S
H598 C590 0.930 . S
H599 C591 0.929 . S
H600 C608 0.929 . S
H601 C610 0.930 . S
H602 C612 0.930 . S
H603 C615 0.929 . S
H604 C618 0.930 . S
H605 C620 0.960 1_455 S
H606 C620 0.960 . S
H607 C620 0.960 . S
C608 H600 0.929 . S
C608 C609 1.377 . S
C608 C610 1.384 . S
C609 C608 1.377 . S
C609 C615 1.390 . S
C610 H601 0.930 . S
C610 C608 1.384 . S
C610 C611 1.372 . S
C611 C610 1.372 . S
C611 C612 1.400 . S
C611 C616 1.490 . S
C612 H602 0.930 . S
C612 C611 1.400 . S
C612 C615 1.386 . S
H613 C629 0.930 . S
H614 C630 0.931 . S
C615 H603 0.929 . S
C615 C609 1.390 . S
C615 C612 1.386 . S
C616 C611 1.490 . S
C616 C618 1.395 . S
C616 C619 1.403 . S
H617 C623 0.930 . S
C618 H604 0.930 . S
C618 C616 1.395 . S
C618 C621 1.403 1_655 S
C619 C616 1.403 . S
C619 C620 1.524 . S
C619 C623 1.400 1_655 S
C620 H605 0.960 1_655 S
C620 H606 0.960 . S
C620 H607 0.960 . S
C620 C619 1.524 . S
C621 C618 1.403 1_455 S
C621 C622 1.392 . S
C621 C625 1.495 . S
C622 C621 1.392 . S
C622 C623 1.385 . S
C622 C624 1.478 . S
C623 H617 0.930 . S
C623 C619 1.400 1_455 S
C623 C622 1.385 . S
C624 C622 1.478 . S
C624 C626 1.381 . S
C624 C630 1.383 . S
C625 C621 1.495 . S
C625 H631 0.959 1_455 S
C625 H632 0.961 . S
C625 H633 0.960 . S
C626 C624 1.381 . S
C626 C627 1.394 . S
C626 H634 0.930 . S
C627 C626 1.394 . S
C627 C628 1.383 . S
C627 H635 0.929 . S
C628 C627 1.383 . S
C628 C629 1.377 . S
C629 H613 0.930 . S
C629 C628 1.377 . S
C629 C630 1.379 . S
C630 H614 0.931 . S
C630 C624 1.383 . S
C630 C629 1.379 . S
H631 C625 0.959 1_655 S
H632 C625 0.961 . S
H633 C625 0.960 . S
H634 C626 0.930 . S
H635 C627 0.929 . S
H636 C644 0.929 . S
H637 C646 0.930 . S
H638 C648 0.930 . S
H639 C651 0.929 . S
H640 C654 0.930 . S
H641 C656 0.960 1_545 S
H642 C656 0.960 . S
H643 C656 0.960 . S
C644 H636 0.929 . S
C644 C645 1.377 . S
C644 C646 1.384 . S
C645 C644 1.377 . S
C645 C651 1.390 . S
C646 H637 0.930 . S
C646 C644 1.384 . S
C646 C647 1.372 . S
C647 C646 1.372 . S
C647 C648 1.400 . S
C647 C652 1.490 . S
C648 H638 0.930 . S
C648 C647 1.400 . S
C648 C651 1.386 . S
H649 C665 0.930 . S
H650 C666 0.931 . S
C651 H639 0.929 . S
C651 C645 1.390 . S
C651 C648 1.386 . S
C652 C647 1.490 . S
C652 C654 1.395 . S
C652 C655 1.403 . S
H653 C659 0.930 . S
C654 H640 0.930 . S
C654 C652 1.395 . S
C654 C657 1.403 1_565 S
C655 C652 1.403 . S
C655 C656 1.524 . S
C655 C659 1.400 1_565 S
C656 H641 0.960 1_565 S
C656 H642 0.960 . S
C656 H643 0.960 . S
C656 C655 1.524 . S
C657 C654 1.403 1_545 S
C657 C658 1.392 . S
C657 C661 1.495 . S
C658 C657 1.392 . S
C658 C659 1.385 . S
C658 C660 1.478 . S
C659 H653 0.930 . S
C659 C655 1.400 1_545 S
C659 C658 1.385 . S
C660 C658 1.478 . S
C660 C662 1.381 . S
C660 C666 1.383 . S
C661 C657 1.495 . S
C661 H667 0.959 1_545 S
C661 H668 0.961 . S
C661 H669 0.960 . S
C662 C660 1.381 . S
C662 C663 1.394 . S
C662 H670 0.930 . S
C663 C662 1.394 . S
C663 C664 1.383 . S
C663 H671 0.929 . S
C664 C663 1.383 . S
C664 C665 1.377 . S
C665 H649 0.930 . S
C665 C664 1.377 . S
C665 C666 1.379 . S
C666 H650 0.931 . S
C666 C660 1.383 . S
C666 C665 1.379 . S
H667 C661 0.959 1_565 S
H668 C661 0.961 . S
H669 C661 0.960 . S
H670 C662 0.930 . S
H671 C663 0.929 . S
H672 C680 0.929 . S
H673 C682 0.930 . S
H674 C684 0.930 1_545 S
H675 C687 0.950 . S
H676 C690 0.930 . S
H677 C692 0.960 . S
H678 C692 0.960 . S
H679 C692 0.960 . S
C680 H672 0.929 . S
C680 C681 1.377 . S
C680 C682 1.384 . S
C681 C680 1.377 . S
C681 C687 1.390 . S
C682 H673 0.930 . S
C682 C680 1.384 . S
C682 C683 1.372 . S
C683 C682 1.372 . S
C683 C684 1.400 . S
C683 C688 1.490 . S
C684 H674 0.930 1_565 S
C684 C683 1.400 . S
C684 C687 1.386 . S
H685 C701 0.930 . S
H686 C702 0.931 . S
C687 H675 0.950 . S
C687 C681 1.390 . S
C687 C684 1.386 . S
C688 C683 1.490 . S
C688 C690 1.395 . S
C688 C691 1.403 1_565 S
H689 C695 0.930 . S
C690 H676 0.930 . S
C690 C688 1.395 . S
C690 C693 1.403 . S
C691 C688 1.403 1_545 S
C691 C692 1.524 . S
C691 C695 1.400 . S
C692 H677 0.960 . S
C692 H678 0.960 . S
C692 H679 0.960 . S
C692 C691 1.524 . S
C693 C690 1.403 . S
C693 C694 1.392 1_565 S
C693 C697 1.495 . S
C694 C693 1.392 1_545 S
C694 C695 1.385 . S
C694 C696 1.478 . S
C695 H689 0.930 . S
C695 C691 1.400 . S
C695 C694 1.385 . S
C696 C694 1.478 . S
C696 C698 1.404 . S
C696 C702 1.383 . S
C697 C693 1.495 . S
C697 H703 0.959 . S
C697 H704 0.961 . S
C697 H705 0.960 . S
C698 C696 1.404 . S
C698 C699 1.411 . S
C698 H706 0.891 1_545 S
C699 C698 1.411 . S
C699 C700 1.383 . S
C699 H707 0.929 . S
C700 C699 1.383 . S
C700 C701 1.377 . S
C701 H685 0.930 . S
C701 C700 1.377 . S
C701 C702 1.379 . S
C702 H686 0.931 . S
C702 C696 1.383 . S
C702 C701 1.379 . S
H703 C697 0.959 . S
H704 C697 0.961 . S
H705 C697 0.960 . S
H706 C698 0.891 1_565 S
H707 C699 0.929 . S
H708 C716 0.929 . S
H709 C718 0.930 . S
H710 C720 0.930 . S
H711 C723 0.929 . S
H712 C726 0.930 . S
H713 C728 0.960 . S
H714 C728 0.960 . S
H715 C728 0.960 . S
C716 H708 0.929 . S
C716 C717 1.377 . S
C716 C718 1.384 . S
C717 C716 1.377 . S
C717 C723 1.390 . S
C718 H709 0.930 . S
C718 C716 1.384 . S
C718 C719 1.372 . S
C719 C718 1.372 . S
C719 C720 1.400 . S
C719 C724 1.490 . S
C720 H710 0.930 . S
C720 C719 1.400 . S
C720 C723 1.386 . S
H721 C737 0.930 . S
H722 C738 0.931 . S
C723 H711 0.929 . S
C723 C717 1.390 . S
C723 C720 1.386 . S
C724 C719 1.490 . S
C724 C726 1.395 1_655 S
C724 C727 1.403 . S
H725 C731 0.930 . S
C726 H712 0.930 . S
C726 C724 1.395 1_455 S
C726 C729 1.403 . S
C727 C724 1.403 . S
C727 C728 1.524 . S
C727 C731 1.400 . S
C728 H713 0.960 . S
C728 H714 0.960 . S
C728 H715 0.960 . S
C728 C727 1.524 . S
C729 C726 1.403 . S
C729 C730 1.392 . S
C729 C733 1.495 . S
C730 C729 1.392 . S
C730 C731 1.385 1_455 S
C730 C732 1.478 . S
C731 H725 0.930 . S
C731 C727 1.400 . S
C731 C730 1.385 1_655 S
C732 C730 1.478 . S
C732 C734 1.381 . S
C732 C738 1.383 . S
C733 C729 1.495 . S
C733 H739 0.959 . S
C733 H740 0.961 . S
C733 H741 0.960 . S
C734 C732 1.381 . S
C734 C735 1.394 . S
C734 H742 0.930 . S
C735 C734 1.394 . S
C735 C736 1.383 . S
C735 H743 0.929 . S
C736 C735 1.383 . S
C736 C737 1.377 . S
C737 H721 0.930 . S
C737 C736 1.377 . S
C737 C738 1.379 . S
C738 H722 0.931 . S
C738 C732 1.383 . S
C738 C737 1.379 . S
H739 C733 0.959 . S
H740 C733 0.961 . S
H741 C733 0.960 . S
H742 C734 0.930 . S
H743 C735 0.929 . S
H744 C752 0.929 . S
H745 C754 0.930 . S
H746 C756 0.930 . S
H747 C759 0.929 . S
H748 C762 0.930 . S
H749 C764 0.960 . S
H750 C764 0.960 . S
H751 C764 0.960 . S
C752 H744 0.929 . S
C752 C753 1.377 . S
C752 C754 1.384 . S
C753 C752 1.377 . S
C753 C759 1.390 . S
C754 H745 0.930 . S
C754 C752 1.384 . S
C754 C755 1.372 . S
C755 C754 1.372 . S
C755 C756 1.400 . S
C755 C760 1.490 . S
C756 H746 0.930 . S
C756 C755 1.400 . S
C756 C759 1.386 . S
H757 C773 0.930 . S
H758 C774 0.931 . S
C759 H747 0.929 . S
C759 C753 1.390 . S
C759 C756 1.386 . S
C760 C755 1.490 . S
C760 C762 1.395 1_565 S
C760 C763 1.403 . S
H761 C767 0.930 . S
C762 H748 0.930 . S
C762 C760 1.395 1_545 S
C762 C765 1.403 . S
C763 C760 1.403 . S
C763 C764 1.524 . S
C763 C767 1.400 . S
C764 H749 0.960 . S
C764 H750 0.960 . S
C764 H751 0.960 . S
C764 C763 1.524 . S
C765 C762 1.403 . S
C765 C766 1.392 . S
C765 C769 1.495 . S
C766 C765 1.392 . S
C766 C767 1.385 1_545 S
C766 C768 1.478 . S
C767 H761 0.930 . S
C767 C763 1.400 . S
C767 C766 1.385 1_565 S
C768 C766 1.478 . S
C768 C770 1.381 . S
C768 C774 1.383 . S
C769 C765 1.495 . S
C769 H775 0.959 . S
C769 H776 0.961 . S
C769 H777 0.960 . S
C770 C768 1.381 . S
C770 C771 1.394 . S
C770 H778 0.930 . S
C771 C770 1.394 . S
C771 C772 1.383 . S
C771 H779 0.929 . S
C772 C771 1.383 . S
C772 C773 1.377 . S
C773 H757 0.930 . S
C773 C772 1.377 . S
C773 C774 1.379 . S
C774 H758 0.931 . S
C774 C768 1.383 . S
C774 C773 1.379 . S
H775 C769 0.959 . S
H776 C769 0.961 . S
H777 C769 0.960 . S
H778 C770 0.930 . S
H779 C771 0.929 . S
H780 C788 0.929 . S
H781 C790 0.930 . S
H782 C792 0.930 . S
H783 C795 0.929 . S
H784 C798 0.930 . S
H785 C800 0.960 . S
H786 C800 0.960 . S
H787 C800 0.960 . S
C788 H780 0.929 . S
C788 C789 1.377 . S
C788 C790 1.384 . S
C789 C788 1.377 . S
C789 C795 1.390 . S
C790 H781 0.930 . S
C790 C788 1.384 . S
C790 C791 1.372 . S
C791 C790 1.372 . S
C791 C792 1.400 . S
C791 C796 1.490 . S
C792 H782 0.930 . S
C792 C791 1.400 . S
C792 C795 1.386 . S
H793 C809 0.930 . S
H794 C810 0.931 . S
C795 H783 0.929 . S
C795 C789 1.390 . S
C795 C792 1.386 . S
C796 C791 1.490 . S
C796 C798 1.395 . S
C796 C799 1.403 1_655 S
H797 C803 0.930 . S
C798 H784 0.930 . S
C798 C796 1.395 . S
C798 C801 1.403 . S
C799 C796 1.403 1_455 S
C799 C800 1.524 . S
C799 C803 1.400 . S
C800 H785 0.960 . S
C800 H786 0.960 . S
C800 H787 0.960 . S
C800 C799 1.524 . S
C801 C798 1.403 . S
C801 C802 1.392 1_655 S
C801 C805 1.495 . S
C802 C801 1.392 1_455 S
C802 C803 1.385 . S
C802 C804 1.478 . S
C803 H797 0.930 . S
C803 C799 1.400 . S
C803 C802 1.385 . S
C804 C802 1.478 . S
C804 C806 1.381 . S
C804 C810 1.383 . S
C805 C801 1.495 . S
C805 H811 0.959 . S
C805 H812 0.961 . S
C805 H813 0.960 . S
C806 C804 1.381 . S
C806 C807 1.394 . S
C806 H814 0.930 . S
C807 C806 1.394 . S
C807 C808 1.383 . S
C807 H815 0.929 . S
C808 C807 1.383 . S
C808 C809 1.377 . S
C809 H793 0.930 . S
C809 C808 1.377 . S
C809 C810 1.379 . S
C810 H794 0.931 . S
C810 C804 1.383 . S
C810 C809 1.379 . S
H811 C805 0.959 . S
H812 C805 0.961 . S
H813 C805 0.960 . S
H814 C806 0.930 . S
H815 C807 0.929 . S
H816 C824 0.929 . S
H817 C826 0.930 . S
H818 C828 0.930 . S
H819 C831 0.929 . S
H820 C834 0.930 . S
H821 C836 0.960 . S
H822 C836 0.960 . S
H823 C836 0.960 . S
C824 H816 0.929 . S
C824 C825 1.377 . S
C824 C826 1.384 . S
C825 C824 1.377 . S
C825 C831 1.390 . S
C826 H817 0.930 . S
C826 C824 1.384 . S
C826 C827 1.372 . S
C827 C826 1.372 . S
C827 C828 1.400 . S
C827 C832 1.490 . S
C828 H818 0.930 . S
C828 C827 1.400 . S
C828 C831 1.386 . S
H829 C845 0.930 . S
H830 C846 0.931 . S
C831 H819 0.929 . S
C831 C825 1.390 . S
C831 C828 1.386 . S
C832 C827 1.490 . S
C832 C834 1.395 . S
C832 C835 1.403 . S
H833 C839 0.930 . S
C834 H820 0.930 . S
C834 C832 1.395 . S
C834 C837 1.403 . S
C835 C832 1.403 . S
C835 C836 1.524 . S
C835 C839 1.400 . S
C836 H821 0.960 . S
C836 H822 0.960 . S
C836 H823 0.960 . S
C836 C835 1.524 . S
C837 C834 1.403 . S
C837 C838 1.392 . S
C837 C841 1.495 . S
C838 C837 1.392 . S
C838 C839 1.385 . S
C838 C840 1.478 . S
C839 H833 0.930 . S
C839 C835 1.400 . S
C839 C838 1.385 . S
C840 C838 1.478 . S
C840 C842 1.381 . S
C840 C846 1.383 . S
C841 C837 1.495 . S
C841 H847 0.959 . S
C841 H848 0.961 . S
C841 H849 0.960 . S
C842 C840 1.381 . S
C842 C843 1.394 . S
C842 H850 0.930 . S
C843 C842 1.394 . S
C843 C844 1.383 . S
C843 H851 0.929 . S
C844 C843 1.383 . S
C844 C845 1.377 . S
C845 H829 0.930 . S
C845 C844 1.377 . S
C845 C846 1.379 . S
C846 H830 0.931 . S
C846 C840 1.383 . S
C846 C845 1.379 . S
H847 C841 0.959 . S
H848 C841 0.961 . S
H849 C841 0.960 . S
H850 C842 0.930 . S
H851 C843 0.929 . S
H852 C860 0.929 . S
H853 C862 0.930 . S
H854 C864 0.930 . S
H855 C867 0.929 . S
H856 C870 0.930 . S
H857 C872 0.960 . S
H858 C872 0.960 . S
H859 C872 0.960 . S
C860 H852 0.929 . S
C860 C861 1.377 . S
C860 C862 1.384 . S
C861 C860 1.377 . S
C861 C867 1.390 . S
C862 H853 0.930 . S
C862 C860 1.384 . S
C862 C863 1.372 . S
C863 C862 1.372 . S
C863 C864 1.400 . S
C863 C868 1.490 . S
C864 H854 0.930 . S
C864 C863 1.400 . S
C864 C867 1.386 . S
H865 C881 0.930 . S
H866 C882 0.931 . S
C867 H855 0.929 . S
C867 C861 1.390 . S
C867 C864 1.386 . S
C868 C863 1.490 . S
C868 C870 1.395 . S
C868 C871 1.403 . S
H869 C875 0.930 . S
C870 H856 0.930 . S
C870 C868 1.395 . S
C870 C873 1.403 . S
C871 C868 1.403 . S
C871 C872 1.524 . S
C871 C875 1.400 . S
C872 H857 0.960 . S
C872 H858 0.960 . S
C872 H859 0.960 . S
C872 C871 1.524 . S
C873 C870 1.403 . S
C873 C874 1.392 . S
C873 C877 1.495 . S
C874 C873 1.392 . S
C874 C875 1.385 . S
C874 C876 1.478 . S
C875 H869 0.930 . S
C875 C871 1.400 . S
C875 C874 1.385 . S
C876 C874 1.478 . S
C876 C878 1.381 . S
C876 C882 1.383 . S
C877 C873 1.495 . S
C877 H883 0.959 . S
C877 H884 0.961 . S
C877 H885 0.960 . S
C878 C876 1.381 . S
C878 C879 1.394 . S
C878 H886 0.930 . S
C879 C878 1.394 . S
C879 C880 1.383 . S
C879 H887 0.929 . S
C880 C879 1.383 . S
C880 C881 1.377 . S
C881 H865 0.930 . S
C881 C880 1.377 . S
C881 C882 1.379 . S
C882 H866 0.931 . S
C882 C876 1.383 . S
C882 C881 1.379 . S
H883 C877 0.959 . S
H884 C877 0.961 . S
H885 C877 0.960 . S
H886 C878 0.930 . S
H887 C879 0.929 . S
H888 C896 0.929 . S
H889 C898 0.930 . S
H890 C900 0.930 . S
H891 C903 0.929 . S
H892 C906 0.930 . S
H893 C908 0.960 . S
H894 C908 0.960 . S
H895 C908 0.960 . S
C896 H888 0.929 . S
C896 C897 1.377 . S
C896 C898 1.384 . S
C897 C896 1.377 . S
C897 C903 1.390 . S
C898 H889 0.930 . S
C898 C896 1.384 . S
C898 C899 1.372 . S
C899 C898 1.372 . S
C899 C900 1.400 . S
C899 C904 1.490 . S
C900 H890 0.930 . S
C900 C899 1.400 . S
C900 C903 1.386 . S
H901 C917 0.930 . S
H902 C918 0.931 . S
C903 H891 0.929 . S
C903 C897 1.390 . S
C903 C900 1.386 . S
C904 C899 1.490 . S
C904 C906 1.395 . S
C904 C907 1.403 . S
H905 C911 0.930 . S
C906 H892 0.930 . S
C906 C904 1.395 . S
C906 C909 1.403 . S
C907 C904 1.403 . S
C907 C908 1.524 . S
C907 C911 1.400 . S
C908 H893 0.960 . S
C908 H894 0.960 . S
C908 H895 0.960 . S
C908 C907 1.524 . S
C909 C906 1.403 . S
C909 C910 1.392 . S
C909 C913 1.495 . S
C910 C909 1.392 . S
C910 C911 1.385 . S
C910 C912 1.478 . S
C911 H905 0.930 . S
C911 C907 1.400 . S
C911 C910 1.385 . S
C912 C910 1.478 . S
C912 C914 1.381 . S
C912 C918 1.383 . S
C913 C909 1.495 . S
C913 H919 0.959 . S
C913 H920 0.961 . S
C913 H921 0.960 . S
C914 C912 1.381 . S
C914 C915 1.394 . S
C914 H922 0.930 . S
C915 C914 1.394 . S
C915 C916 1.383 . S
C915 H923 0.929 . S
C916 C915 1.383 . S
C916 C917 1.377 . S
C917 H901 0.930 . S
C917 C916 1.377 . S
C917 C918 1.379 . S
C918 H902 0.931 . S
C918 C912 1.383 . S
C918 C917 1.379 . S
H919 C913 0.959 . S
H920 C913 0.961 . S
H921 C913 0.960 . S
H922 C914 0.930 . S
H923 C915 0.929 . S
H924 C932 0.929 . S
H925 C934 0.930 . S
H926 C936 0.930 . S
H927 C939 0.929 . S
H928 C942 0.930 . S
H929 C944 0.960 . S
H930 C944 0.960 . S
H931 C944 0.960 . S
C932 H924 0.929 . S
C932 C933 1.377 . S
C932 C934 1.384 . S
C933 C932 1.377 . S
C933 C939 1.390 . S
C934 H925 0.930 . S
C934 C932 1.384 . S
C934 C935 1.372 . S
C935 C934 1.372 . S
C935 C936 1.400 . S
C935 C940 1.490 . S
C936 H926 0.930 . S
C936 C935 1.400 . S
C936 C939 1.386 . S
H937 C953 0.930 . S
H938 C954 0.931 . S
C939 H927 0.929 . S
C939 C933 1.390 . S
C939 C936 1.386 . S
C940 C935 1.490 . S
C940 C942 1.395 . S
C940 C943 1.403 . S
H941 C947 0.930 . S
C942 H928 0.930 . S
C942 C940 1.395 . S
C942 C945 1.403 . S
C943 C940 1.403 . S
C943 C944 1.524 . S
C943 C947 1.400 . S
C944 H929 0.960 . S
C944 H930 0.960 . S
C944 H931 0.960 . S
C944 C943 1.524 . S
C945 C942 1.403 . S
C945 C946 1.392 . S
C945 C949 1.495 . S
C946 C945 1.392 . S
C946 C947 1.385 . S
C946 C948 1.478 . S
C947 H941 0.930 . S
C947 C943 1.400 . S
C947 C946 1.385 . S
C948 C946 1.478 . S
C948 C950 1.381 . S
C948 C954 1.383 . S
C949 C945 1.495 . S
C949 H955 0.959 . S
C949 H956 0.961 . S
C949 H957 0.960 . S
C950 C948 1.381 . S
C950 C951 1.394 . S
C950 H958 0.930 . S
C951 C950 1.394 . S
C951 C952 1.383 . S
C951 H959 0.929 . S
C952 C951 1.383 . S
C952 C953 1.377 . S
C953 H937 0.930 . S
C953 C952 1.377 . S
C953 C954 1.379 . S
C954 H938 0.931 . S
C954 C948 1.383 . S
C954 C953 1.379 . S
H955 C949 0.959 . S
H956 C949 0.961 . S
H957 C949 0.960 . S
H958 C950 0.930 . S
H959 C951 0.929 . S
H960 C968 0.929 . S
H961 C970 0.930 . S
H962 C972 0.930 . S
H963 C975 0.929 . S
H964 C978 0.930 . S
H965 C980 0.960 . S
H966 C980 0.960 . S
H967 C980 0.960 . S
C968 H960 0.929 . S
C968 C969 1.377 . S
C968 C970 1.384 . S
C969 C968 1.377 . S
C969 C975 1.390 . S
C970 H961 0.930 . S
C970 C968 1.384 . S
C970 C971 1.372 . S
C971 C970 1.372 . S
C971 C972 1.400 . S
C971 C976 1.490 . S
C972 H962 0.930 . S
C972 C971 1.400 . S
C972 C975 1.386 . S
H973 C989 0.930 . S
H974 C990 0.931 . S
C975 H963 0.929 . S
C975 C969 1.390 . S
C975 C972 1.386 . S
C976 C971 1.490 . S
C976 C978 1.395 . S
C976 C979 1.403 . S
H977 C983 0.930 . S
C978 H964 0.930 . S
C978 C976 1.395 . S
C978 C981 1.403 . S
C979 C976 1.403 . S
C979 C980 1.524 . S
C979 C983 1.400 . S
C980 H965 0.960 . S
C980 H966 0.960 . S
C980 H967 0.960 . S
C980 C979 1.524 . S
C981 C978 1.403 . S
C981 C982 1.392 . S
C981 C985 1.495 . S
C982 C981 1.392 . S
C982 C983 1.385 . S
C982 C984 1.478 . S
C983 H977 0.930 . S
C983 C979 1.400 . S
C983 C982 1.385 . S
C984 C982 1.478 . S
C984 C986 1.381 . S
C984 C990 1.383 . S
C985 C981 1.495 . S
C985 H991 0.959 . S
C985 H992 0.961 . S
C985 H993 0.960 . S
C986 C984 1.381 . S
C986 C987 1.394 . S
C986 H994 0.930 . S
C987 C986 1.394 . S
C987 C988 1.383 . S
C987 H995 0.929 . S
C988 C987 1.383 . S
C988 C989 1.377 . S
C989 H973 0.930 . S
C989 C988 1.377 . S
C989 C990 1.379 . S
C990 H974 0.931 . S
C990 C984 1.383 . S
C990 C989 1.379 . S
H991 C985 0.959 . S
H992 C985 0.961 . S
H993 C985 0.960 . S
H994 C986 0.930 . S
H995 C987 0.929 . S
H996 C1004 0.929 . S
H997 C1006 0.930 . S
H998 C1008 0.930 . S
H999 C1011 0.929 . S
H1000 C1014 0.930 . S
H1001 C1016 0.960 . S
H1002 C1016 0.960 . S
H1003 C1016 0.960 . S
C1004 H996 0.929 . S
C1004 C1005 1.377 . S
C1004 C1006 1.384 . S
C1005 C1004 1.377 . S
C1005 C1011 1.390 . S
C1006 H997 0.930 . S
C1006 C1004 1.384 . S
C1006 C1007 1.372 . S
C1007 C1006 1.372 . S
C1007 C1008 1.400 . S
C1007 C1012 1.490 . S
C1008 H998 0.930 . S
C1008 C1007 1.400 . S
C1008 C1011 1.386 . S
H1009 C1025 0.930 . S
H1010 C1026 0.931 . S
C1011 H999 0.929 . S
C1011 C1005 1.390 . S
C1011 C1008 1.386 . S
C1012 C1007 1.490 . S
C1012 C1014 1.395 . S
C1012 C1015 1.403 . S
H1013 C1019 0.930 . S
C1014 H1000 0.930 . S
C1014 C1012 1.395 . S
C1014 C1017 1.403 . S
C1015 C1012 1.403 . S
C1015 C1016 1.524 . S
C1015 C1019 1.400 . S
C1016 H1001 0.960 . S
C1016 H1002 0.960 . S
C1016 H1003 0.960 . S
C1016 C1015 1.524 . S
C1017 C1014 1.403 . S
C1017 C1018 1.392 . S
C1017 C1021 1.495 . S
C1018 C1017 1.392 . S
C1018 C1019 1.385 . S
C1018 C1020 1.478 . S
C1019 H1013 0.930 . S
C1019 C1015 1.400 . S
C1019 C1018 1.385 . S
C1020 C1018 1.478 . S
C1020 C1022 1.381 . S
C1020 C1026 1.383 . S
C1021 C1017 1.495 . S
C1021 H1027 0.959 . S
C1021 H1028 0.961 . S
C1021 H1029 0.960 . S
C1022 C1020 1.381 . S
C1022 C1023 1.394 . S
C1022 H1030 0.930 . S
C1023 C1022 1.394 . S
C1023 C1024 1.383 . S
C1023 H1031 0.929 . S
C1024 C1023 1.383 . S
C1024 C1025 1.377 . S
C1025 H1009 0.930 . S
C1025 C1024 1.377 . S
C1025 C1026 1.379 . S
C1026 H1010 0.931 . S
C1026 C1020 1.383 . S
C1026 C1025 1.379 . S
H1027 C1021 0.959 . S
H1028 C1021 0.961 . S
H1029 C1021 0.960 . S
H1030 C1022 0.930 . S
H1031 C1023 0.929 . S
H1032 C1040 0.929 . S
H1033 C1042 0.930 . S
H1034 C1044 0.930 . S
H1035 C1047 0.929 . S
H1036 C1050 0.930 . S
H1037 C1052 0.960 . S
H1038 C1052 0.960 . S
H1039 C1052 0.960 . S
C1040 H1032 0.929 . S
C1040 C1041 1.377 . S
C1040 C1042 1.384 . S
C1041 C1040 1.377 . S
C1041 C1047 1.390 . S
C1042 H1033 0.930 . S
C1042 C1040 1.384 . S
C1042 C1043 1.372 . S
C1043 C1042 1.372 . S
C1043 C1044 1.400 . S
C1043 C1048 1.490 . S
C1044 H1034 0.930 . S
C1044 C1043 1.400 . S
C1044 C1047 1.386 . S
H1045 C1061 0.930 . S
H1046 C1062 0.931 . S
C1047 H1035 0.929 . S
C1047 C1041 1.390 . S
C1047 C1044 1.386 . S
C1048 C1043 1.490 . S
C1048 C1050 1.395 . S
C1048 C1051 1.403 . S
H1049 C1055 0.930 . S
C1050 H1036 0.930 . S
C1050 C1048 1.395 . S
C1050 C1053 1.403 . S
C1051 C1048 1.403 . S
C1051 C1052 1.524 . S
C1051 C1055 1.400 . S
C1052 H1037 0.960 . S
C1052 H1038 0.960 . S
C1052 H1039 0.960 . S
C1052 C1051 1.524 . S
C1053 C1050 1.403 . S
C1053 C1054 1.392 . S
C1053 C1057 1.495 . S
C1054 C1053 1.392 . S
C1054 C1055 1.385 . S
C1054 C1056 1.478 . S
C1055 H1049 0.930 . S
C1055 C1051 1.400 . S
C1055 C1054 1.385 . S
C1056 C1054 1.478 . S
C1056 C1058 1.381 . S
C1056 C1062 1.383 . S
C1057 C1053 1.495 . S
C1057 H1063 0.959 . S
C1057 H1064 0.961 . S
C1057 H1065 0.960 . S
C1058 C1056 1.381 . S
C1058 C1059 1.394 . S
C1058 H1066 0.930 . S
C1059 C1058 1.394 . S
C1059 C1060 1.383 . S
C1059 H1067 0.929 . S
C1060 C1059 1.383 . S
C1060 C1061 1.377 . S
C1061 H1045 0.930 . S
C1061 C1060 1.377 . S
C1061 C1062 1.379 . S
C1062 H1046 0.931 . S
C1062 C1056 1.383 . S
C1062 C1061 1.379 . S
H1063 C1057 0.959 . S
H1064 C1057 0.961 . S
H1065 C1057 0.960 . S
H1066 C1058 0.930 . S
H1067 C1059 0.929 . S
H1068 C1076 0.929 . S
H1069 C1078 0.930 . S
H1070 C1080 0.930 . S
H1071 C1083 0.929 . S
H1072 C1086 0.930 . S
H1073 C1088 0.960 . S
H1074 C1088 0.960 . S
H1075 C1088 0.960 . S
C1076 H1068 0.929 . S
C1076 C1077 1.377 . S
C1076 C1078 1.384 . S
C1077 C1076 1.377 . S
C1077 C1083 1.390 . S
C1078 H1069 0.930 . S
C1078 C1076 1.384 . S
C1078 C1079 1.372 . S
C1079 C1078 1.372 . S
C1079 C1080 1.400 . S
C1079 C1084 1.490 . S
C1080 H1070 0.930 . S
C1080 C1079 1.400 . S
C1080 C1083 1.386 . S
H1081 C1097 0.930 . S
H1082 C1098 0.931 . S
C1083 H1071 0.929 . S
C1083 C1077 1.390 . S
C1083 C1080 1.386 . S
C1084 C1079 1.490 . S
C1084 C1086 1.395 . S
C1084 C1087 1.403 . S
H1085 C1091 0.930 . S
C1086 H1072 0.930 . S
C1086 C1084 1.395 . S
C1086 C1089 1.403 . S
C1087 C1084 1.403 . S
C1087 C1088 1.524 . S
C1087 C1091 1.400 . S
C1088 H1073 0.960 . S
C1088 H1074 0.960 . S
C1088 H1075 0.960 . S
C1088 C1087 1.524 . S
C1089 C1086 1.403 . S
C1089 C1090 1.392 . S
C1089 C1093 1.495 . S
C1090 C1089 1.392 . S
C1090 C1091 1.385 . S
C1090 C1092 1.478 . S
C1091 H1085 0.930 . S
C1091 C1087 1.400 . S
C1091 C1090 1.385 . S
C1092 C1090 1.478 . S
C1092 C1094 1.381 . S
C1092 C1098 1.383 . S
C1093 C1089 1.495 . S
C1093 H1099 0.959 . S
C1093 H1100 0.961 . S
C1093 H1101 0.960 . S
C1094 C1092 1.381 . S
C1094 C1095 1.394 . S
C1094 H1102 0.930 . S
C1095 C1094 1.394 . S
C1095 C1096 1.383 . S
C1095 H1103 0.929 . S
C1096 C1095 1.383 . S
C1096 C1097 1.377 . S
C1097 H1081 0.930 . S
C1097 C1096 1.377 . S
C1097 C1098 1.379 . S
C1098 H1082 0.931 . S
C1098 C1092 1.383 . S
C1098 C1097 1.379 . S
H1099 C1093 0.959 . S
H1100 C1093 0.961 . S
H1101 C1093 0.960 . S
H1102 C1094 0.930 . S
H1103 C1095 0.929 . S
H1104 C1112 0.929 . S
H1105 C1114 0.930 . S
H1106 C1116 0.930 . S
H1107 C1119 0.929 . S
H1108 C1122 0.930 . S
H1109 C1124 0.960 . S
H1110 C1124 0.960 . S
H1111 C1124 0.960 . S
C1112 H1104 0.929 . S
C1112 C1113 1.377 . S
C1112 C1114 1.384 . S
C1113 C1112 1.377 . S
C1113 C1119 1.390 . S
C1114 H1105 0.930 . S
C1114 C1112 1.384 . S
C1114 C1115 1.372 . S
C1115 C1114 1.372 . S
C1115 C1116 1.400 . S
C1115 C1120 1.490 . S
C1116 H1106 0.930 . S
C1116 C1115 1.400 . S
C1116 C1119 1.386 . S
H1117 C1133 0.930 . S
H1118 C1134 0.931 . S
C1119 H1107 0.929 . S
C1119 C1113 1.390 . S
C1119 C1116 1.386 . S
C1120 C1115 1.490 . S
C1120 C1122 1.395 . S
C1120 C1123 1.403 . S
H1121 C1127 0.930 . S
C1122 H1108 0.930 . S
C1122 C1120 1.395 . S
C1122 C1125 1.403 . S
C1123 C1120 1.403 . S
C1123 C1124 1.524 . S
C1123 C1127 1.400 . S
C1124 H1109 0.960 . S
C1124 H1110 0.960 . S
C1124 H1111 0.960 . S
C1124 C1123 1.524 . S
C1125 C1122 1.403 . S
C1125 C1126 1.392 . S
C1125 C1129 1.495 . S
C1126 C1125 1.392 . S
C1126 C1127 1.385 . S
C1126 C1128 1.478 . S
C1127 H1121 0.930 . S
C1127 C1123 1.400 . S
C1127 C1126 1.385 . S
C1128 C1126 1.478 . S
C1128 C1130 1.381 . S
C1128 C1134 1.383 . S
C1129 C1125 1.495 . S
C1129 H1135 0.959 . S
C1129 H1136 0.961 . S
C1129 H1137 0.960 . S
C1130 C1128 1.381 . S
C1130 C1131 1.394 . S
C1130 H1138 0.930 . S
C1131 C1130 1.394 . S
C1131 C1132 1.383 . S
C1131 H1139 0.929 . S
C1132 C1131 1.383 . S
C1132 C1133 1.377 . S
C1133 H1117 0.930 . S
C1133 C1132 1.377 . S
C1133 C1134 1.379 . S
C1134 H1118 0.931 . S
C1134 C1128 1.383 . S
C1134 C1133 1.379 . S
H1135 C1129 0.959 . S
H1136 C1129 0.961 . S
H1137 C1129 0.960 . S
H1138 C1130 0.930 . S
H1139 C1131 0.929 . S
H1140 C1148 0.929 . S
H1141 C1150 0.930 . S
H1142 C1152 0.930 . S
H1143 C1155 0.929 . S
H1144 C1158 0.930 . S
H1145 C1160 0.960 . S
H1146 C1160 0.960 . S
H1147 C1160 0.960 . S
C1148 H1140 0.929 . S
C1148 C1149 1.377 . S
C1148 C1150 1.384 . S
C1149 C1148 1.377 . S
C1149 C1155 1.390 . S
C1150 H1141 0.930 . S
C1150 C1148 1.384 . S
C1150 C1151 1.372 . S
C1151 C1150 1.372 . S
C1151 C1152 1.400 . S
C1151 C1156 1.490 . S
C1152 H1142 0.930 . S
C1152 C1151 1.400 . S
C1152 C1155 1.386 . S
H1153 C1169 0.930 . S
H1154 C1170 0.931 . S
C1155 H1143 0.929 . S
C1155 C1149 1.390 . S
C1155 C1152 1.386 . S
C1156 C1151 1.490 . S
C1156 C1158 1.395 . S
C1156 C1159 1.403 . S
H1157 C1163 0.930 . S
C1158 H1144 0.930 . S
C1158 C1156 1.395 . S
C1158 C1161 1.403 . S
C1159 C1156 1.403 . S
C1159 C1160 1.524 . S
C1159 C1163 1.400 . S
C1160 H1145 0.960 . S
C1160 H1146 0.960 . S
C1160 H1147 0.960 . S
C1160 C1159 1.524 . S
C1161 C1158 1.403 . S
C1161 C1162 1.392 . S
C1161 C1165 1.495 . S
C1162 C1161 1.392 . S
C1162 C1163 1.385 . S
C1162 C1164 1.478 . S
C1163 H1157 0.930 . S
C1163 C1159 1.400 . S
C1163 C1162 1.385 . S
C1164 C1162 1.478 . S
C1164 C1166 1.381 . S
C1164 C1170 1.383 . S
C1165 C1161 1.495 . S
C1165 H1171 0.959 . S
C1165 H1172 0.961 . S
C1165 H1173 0.960 . S
C1166 C1164 1.381 . S
C1166 C1167 1.394 . S
C1166 H1174 0.930 . S
C1167 C1166 1.394 . S
C1167 C1168 1.383 . S
C1167 H1175 0.929 . S
C1168 C1167 1.383 . S
C1168 C1169 1.377 . S
C1169 H1153 0.930 . S
C1169 C1168 1.377 . S
C1169 C1170 1.379 . S
C1170 H1154 0.931 . S
C1170 C1164 1.383 . S
C1170 C1169 1.379 . S
H1171 C1165 0.959 . S
H1172 C1165 0.961 . S
H1173 C1165 0.960 . S
H1174 C1166 0.930 . S
H1175 C1167 0.929 . S
H1176 C1184 0.929 . S
H1177 C1186 0.930 . S
H1178 C1188 0.930 . S
H1179 C1191 0.929 . S
H1180 C1194 0.930 . S
H1181 C1196 0.960 . S
H1182 C1196 0.960 . S
H1183 C1196 0.960 . S
C1184 H1176 0.929 . S
C1184 C1185 1.377 . S
C1184 C1186 1.384 . S
C1185 C1184 1.377 . S
C1185 C1191 1.390 . S
C1186 H1177 0.930 . S
C1186 C1184 1.384 . S
C1186 C1187 1.372 . S
C1187 C1186 1.372 . S
C1187 C1188 1.400 . S
C1187 C1192 1.490 . S
C1188 H1178 0.930 . S
C1188 C1187 1.400 . S
C1188 C1191 1.386 . S
H1189 C1205 0.930 . S
H1190 C1206 0.931 . S
C1191 H1179 0.929 . S
C1191 C1185 1.390 . S
C1191 C1188 1.386 . S
C1192 C1187 1.490 . S
C1192 C1194 1.395 . S
C1192 C1195 1.403 . S
H1193 C1199 0.930 . S
C1194 H1180 0.930 . S
C1194 C1192 1.395 . S
C1194 C1197 1.403 . S
C1195 C1192 1.403 . S
C1195 C1196 1.524 . S
C1195 C1199 1.400 . S
C1196 H1181 0.960 . S
C1196 H1182 0.960 . S
C1196 H1183 0.960 . S
C1196 C1195 1.524 . S
C1197 C1194 1.403 . S
C1197 C1198 1.392 . S
C1197 C1201 1.495 . S
C1198 C1197 1.392 . S
C1198 C1199 1.385 . S
C1198 C1200 1.478 . S
C1199 H1193 0.930 . S
C1199 C1195 1.400 . S
C1199 C1198 1.385 . S
C1200 C1198 1.478 . S
C1200 C1202 1.381 . S
C1200 C1206 1.383 . S
C1201 C1197 1.495 . S
C1201 H1207 0.959 . S
C1201 H1208 0.961 . S
C1201 H1209 0.960 . S
C1202 C1200 1.381 . S
C1202 C1203 1.394 . S
C1202 H1210 0.930 . S
C1203 C1202 1.394 . S
C1203 C1204 1.383 . S
C1203 H1211 0.929 . S
C1204 C1203 1.383 . S
C1204 C1205 1.377 . S
C1205 H1189 0.930 . S
C1205 C1204 1.377 . S
C1205 C1206 1.379 . S
C1206 H1190 0.931 . S
C1206 C1200 1.383 . S
C1206 C1205 1.379 . S
H1207 C1201 0.959 . S
H1208 C1201 0.961 . S
H1209 C1201 0.960 . S
H1210 C1202 0.930 . S
H1211 C1203 0.929 . S
H1212 C1220 0.929 . S
H1213 C1222 0.930 . S
H1214 C1224 0.930 . S
H1215 C1227 0.929 . S
H1216 C1230 0.930 . S
H1217 C1232 0.960 . S
H1218 C1232 0.960 . S
H1219 C1232 0.960 . S
C1220 H1212 0.929 . S
C1220 C1221 1.377 . S
C1220 C1222 1.384 . S
C1221 C1220 1.377 . S
C1221 C1227 1.390 . S
C1222 H1213 0.930 . S
C1222 C1220 1.384 . S
C1222 C1223 1.372 . S
C1223 C1222 1.372 . S
C1223 C1224 1.400 . S
C1223 C1228 1.490 . S
C1224 H1214 0.930 . S
C1224 C1223 1.400 . S
C1224 C1227 1.386 . S
H1225 C1241 0.930 . S
H1226 C1242 0.931 . S
C1227 H1215 0.929 . S
C1227 C1221 1.390 . S
C1227 C1224 1.386 . S
C1228 C1223 1.490 . S
C1228 C1230 1.395 . S
C1228 C1231 1.403 . S
H1229 C1235 0.930 . S
C1230 H1216 0.930 . S
C1230 C1228 1.395 . S
C1230 C1233 1.403 . S
C1231 C1228 1.403 . S
C1231 C1232 1.524 . S
C1231 C1235 1.400 . S
C1232 H1217 0.960 . S
C1232 H1218 0.960 . S
C1232 H1219 0.960 . S
C1232 C1231 1.524 . S
C1233 C1230 1.403 . S
C1233 C1234 1.392 . S
C1233 C1237 1.495 . S
C1234 C1233 1.392 . S
C1234 C1235 1.385 . S
C1234 C1236 1.478 . S
C1235 H1229 0.930 . S
C1235 C1231 1.400 . S
C1235 C1234 1.385 . S
C1236 C1234 1.478 . S
C1236 C1238 1.381 . S
C1236 C1242 1.383 . S
C1237 C1233 1.495 . S
C1237 H1243 0.959 . S
C1237 H1244 0.961 . S
C1237 H1245 0.960 . S
C1238 C1236 1.381 . S
C1238 C1239 1.394 . S
C1238 H1246 0.930 . S
C1239 C1238 1.394 . S
C1239 C1240 1.383 . S
C1239 H1247 0.929 . S
C1240 C1239 1.383 . S
C1240 C1241 1.377 . S
C1241 H1225 0.930 . S
C1241 C1240 1.377 . S
C1241 C1242 1.379 . S
C1242 H1226 0.931 . S
C1242 C1236 1.383 . S
C1242 C1241 1.379 . S
H1243 C1237 0.959 . S
H1244 C1237 0.961 . S
H1245 C1237 0.960 . S
H1246 C1238 0.930 . S
H1247 C1239 0.929 . S
H1248 C1256 0.929 . S
H1249 C1258 0.930 . S
H1250 C1260 0.930 . S
H1251 C1263 0.929 . S
H1252 C1266 0.930 . S
H1253 C1268 0.960 . S
H1254 C1268 0.960 . S
H1255 C1268 0.960 . S
C1256 H1248 0.929 . S
C1256 C1257 1.377 . S
C1256 C1258 1.384 . S
C1257 C1256 1.377 . S
C1257 C1263 1.390 . S
C1258 H1249 0.930 . S
C1258 C1256 1.384 . S
C1258 C1259 1.372 . S
C1259 C1258 1.372 . S
C1259 C1260 1.400 . S
C1259 C1264 1.490 . S
C1260 H1250 0.930 . S
C1260 C1259 1.400 . S
C1260 C1263 1.386 . S
H1261 C1277 0.930 . S
H1262 C1278 0.931 . S
C1263 H1251 0.929 . S
C1263 C1257 1.390 . S
C1263 C1260 1.386 . S
C1264 C1259 1.490 . S
C1264 C1266 1.395 . S
C1264 C1267 1.403 . S
H1265 C1271 0.930 . S
C1266 H1252 0.930 . S
C1266 C1264 1.395 . S
C1266 C1269 1.403 . S
C1267 C1264 1.403 . S
C1267 C1268 1.524 . S
C1267 C1271 1.400 . S
C1268 H1253 0.960 . S
C1268 H1254 0.960 . S
C1268 H1255 0.960 . S
C1268 C1267 1.524 . S
C1269 C1266 1.403 . S
C1269 C1270 1.392 . S
C1269 C1273 1.495 . S
C1270 C1269 1.392 . S
C1270 C1271 1.385 . S
C1270 C1272 1.478 . S
C1271 H1265 0.930 . S
C1271 C1267 1.400 . S
C1271 C1270 1.385 . S
C1272 C1270 1.478 . S
C1272 C1274 1.381 . S
C1272 C1278 1.383 . S
C1273 C1269 1.495 . S
C1273 H1279 0.959 . S
C1273 H1280 0.961 . S
C1273 H1281 0.960 . S
C1274 C1272 1.381 . S
C1274 C1275 1.394 . S
C1274 H1282 0.930 . S
C1275 C1274 1.394 . S
C1275 C1276 1.383 . S
C1275 H1283 0.929 . S
C1276 C1275 1.383 . S
C1276 C1277 1.377 . S
C1277 H1261 0.930 . S
C1277 C1276 1.377 . S
C1277 C1278 1.379 . S
C1278 H1262 0.931 . S
C1278 C1272 1.383 . S
C1278 C1277 1.379 . S
H1279 C1273 0.959 . S
H1280 C1273 0.961 . S
H1281 C1273 0.960 . S
H1282 C1274 0.930 . S
H1283 C1275 0.929 . S
H1284 C1292 0.929 . S
H1285 C1294 0.930 . S
H1286 C1296 0.930 . S
H1287 C1299 0.929 . S
H1288 C1302 0.930 . S
H1289 C1304 0.960 . S
H1290 C1304 0.960 . S
H1291 C1304 0.960 . S
C1292 H1284 0.929 . S
C1292 C1293 1.377 . S
C1292 C1294 1.384 . S
C1293 C1292 1.377 . S
C1293 C1299 1.390 . S
C1294 H1285 0.930 . S
C1294 C1292 1.384 . S
C1294 C1295 1.372 . S
C1295 C1294 1.372 . S
C1295 C1296 1.400 . S
C1295 C1300 1.490 . S
C1296 H1286 0.930 . S
C1296 C1295 1.400 . S
C1296 C1299 1.386 . S
H1297 C1313 0.930 . S
H1298 C1314 0.931 . S
C1299 H1287 0.929 . S
C1299 C1293 1.390 . S
C1299 C1296 1.386 . S
C1300 C1295 1.490 . S
C1300 C1302 1.395 . S
C1300 C1303 1.403 . S
H1301 C1307 0.930 . S
C1302 H1288 0.930 . S
C1302 C1300 1.395 . S
C1302 C1305 1.403 . S
C1303 C1300 1.403 . S
C1303 C1304 1.524 . S
C1303 C1307 1.400 . S
C1304 H1289 0.960 . S
C1304 H1290 0.960 . S
C1304 H1291 0.960 . S
C1304 C1303 1.524 . S
C1305 C1302 1.403 . S
C1305 C1306 1.392 . S
C1305 C1309 1.495 . S
C1306 C1305 1.392 . S
C1306 C1307 1.385 . S
C1306 C1308 1.478 . S
C1307 H1301 0.930 . S
C1307 C1303 1.400 . S
C1307 C1306 1.385 . S
C1308 C1306 1.478 . S
C1308 C1310 1.381 . S
C1308 C1314 1.383 . S
C1309 C1305 1.495 . S
C1309 H1315 0.959 . S
C1309 H1316 0.961 . S
C1309 H1317 0.960 . S
C1310 C1308 1.381 . S
C1310 C1311 1.394 . S
C1310 H1318 0.930 . S
C1311 C1310 1.394 . S
C1311 C1312 1.383 . S
C1311 H1319 0.929 . S
C1312 C1311 1.383 . S
C1312 C1313 1.377 . S
C1313 H1297 0.930 . S
C1313 C1312 1.377 . S
C1313 C1314 1.379 . S
C1314 H1298 0.931 . S
C1314 C1308 1.383 . S
C1314 C1313 1.379 . S
H1315 C1309 0.959 . S
H1316 C1309 0.961 . S
H1317 C1309 0.960 . S
H1318 C1310 0.930 . S
H1319 C1311 0.929 . S
H1320 C1328 0.929 . S
H1321 C1330 0.930 . S
H1322 C1332 0.930 . S
H1323 C1335 0.929 . S
H1324 C1338 0.930 . S
H1325 C1340 0.960 . S
H1326 C1340 0.960 . S
H1327 C1340 0.960 . S
C1328 H1320 0.929 . S
C1328 C1329 1.377 . S
C1328 C1330 1.384 . S
C1329 C1328 1.377 . S
C1329 C1335 1.390 . S
C1330 H1321 0.930 . S
C1330 C1328 1.384 . S
C1330 C1331 1.372 . S
C1331 C1330 1.372 . S
C1331 C1332 1.400 . S
C1331 C1336 1.490 . S
C1332 H1322 0.930 . S
C1332 C1331 1.400 . S
C1332 C1335 1.386 . S
H1333 C1349 0.930 . S
H1334 C1350 0.931 . S
C1335 H1323 0.929 . S
C1335 C1329 1.390 . S
C1335 C1332 1.386 . S
C1336 C1331 1.490 . S
C1336 C1338 1.395 . S
C1336 C1339 1.403 . S
H1337 C1343 0.930 . S
C1338 H1324 0.930 . S
C1338 C1336 1.395 . S
C1338 C1341 1.403 . S
C1339 C1336 1.403 . S
C1339 C1340 1.524 . S
C1339 C1343 1.400 . S
C1340 H1325 0.960 . S
C1340 H1326 0.960 . S
C1340 H1327 0.960 . S
C1340 C1339 1.524 . S
C1341 C1338 1.403 . S
C1341 C1342 1.392 . S
C1341 C1345 1.495 . S
C1342 C1341 1.392 . S
C1342 C1343 1.385 . S
C1342 C1344 1.478 . S
C1343 H1337 0.930 . S
C1343 C1339 1.400 . S
C1343 C1342 1.385 . S
C1344 C1342 1.478 . S
C1344 C1346 1.381 . S
C1344 C1350 1.383 . S
C1345 C1341 1.495 . S
C1345 H1351 0.959 . S
C1345 H1352 0.961 . S
C1345 H1353 0.960 . S
C1346 C1344 1.381 . S
C1346 C1347 1.394 . S
C1346 H1354 0.930 . S
C1347 C1346 1.394 . S
C1347 C1348 1.383 . S
C1347 H1355 0.929 . S
C1348 C1347 1.383 . S
C1348 C1349 1.377 . S
C1349 H1333 0.930 . S
C1349 C1348 1.377 . S
C1349 C1350 1.379 . S
C1350 H1334 0.931 . S
C1350 C1344 1.383 . S
C1350 C1349 1.379 . S
H1351 C1345 0.959 . S
H1352 C1345 0.961 . S
H1353 C1345 0.960 . S
H1354 C1346 0.930 . S
H1355 C1347 0.929 . S
H1356 C1364 0.929 . S
H1357 C1366 0.930 . S
H1358 C1368 0.930 . S
H1359 C1371 0.929 . S
H1360 C1374 0.930 . S
H1361 C1376 0.960 . S
H1362 C1376 0.960 . S
H1363 C1376 0.960 . S
C1364 H1356 0.929 . S
C1364 C1365 1.377 . S
C1364 C1366 1.384 . S
C1365 C1364 1.377 . S
C1365 C1371 1.390 . S
C1366 H1357 0.930 . S
C1366 C1364 1.384 . S
C1366 C1367 1.372 . S
C1367 C1366 1.372 . S
C1367 C1368 1.400 . S
C1367 C1372 1.490 . S
C1368 H1358 0.930 . S
C1368 C1367 1.400 . S
C1368 C1371 1.386 . S
H1369 C1385 0.930 . S
H1370 C1386 0.931 . S
C1371 H1359 0.929 . S
C1371 C1365 1.390 . S
C1371 C1368 1.386 . S
C1372 C1367 1.490 . S
C1372 C1374 1.395 . S
C1372 C1375 1.403 . S
H1373 C1379 0.930 . S
C1374 H1360 0.930 . S
C1374 C1372 1.395 . S
C1374 C1377 1.403 . S
C1375 C1372 1.403 . S
C1375 C1376 1.524 . S
C1375 C1379 1.400 . S
C1376 H1361 0.960 . S
C1376 H1362 0.960 . S
C1376 H1363 0.960 . S
C1376 C1375 1.524 . S
C1377 C1374 1.403 . S
C1377 C1378 1.392 . S
C1377 C1381 1.495 . S
C1378 C1377 1.392 . S
C1378 C1379 1.385 . S
C1378 C1380 1.478 . S
C1379 H1373 0.930 . S
C1379 C1375 1.400 . S
C1379 C1378 1.385 . S
C1380 C1378 1.478 . S
C1380 C1382 1.381 . S
C1380 C1386 1.383 . S
C1381 C1377 1.495 . S
C1381 H1387 0.959 . S
C1381 H1388 0.961 . S
C1381 H1389 0.960 . S
C1382 C1380 1.381 . S
C1382 C1383 1.394 . S
C1382 H1390 0.930 . S
C1383 C1382 1.394 . S
C1383 C1384 1.383 . S
C1383 H1391 0.929 . S
C1384 C1383 1.383 . S
C1384 C1385 1.377 . S
C1385 H1369 0.930 . S
C1385 C1384 1.377 . S
C1385 C1386 1.379 . S
C1386 H1370 0.931 . S
C1386 C1380 1.383 . S
C1386 C1385 1.379 . S
H1387 C1381 0.959 . S
H1388 C1381 0.961 . S
H1389 C1381 0.960 . S
H1390 C1382 0.930 . S
H1391 C1383 0.929 . S
H1392 C1400 0.929 . S
H1393 C1402 0.930 . S
H1394 C1404 0.930 . S
H1395 C1407 0.929 . S
H1396 C1410 0.930 . S
H1397 C1412 0.960 . S
H1398 C1412 0.960 . S
H1399 C1412 0.960 . S
C1400 H1392 0.929 . S
C1400 C1401 1.377 . S
C1400 C1402 1.384 . S
C1401 C1400 1.377 . S
C1401 C1407 1.390 . S
C1402 H1393 0.930 . S
C1402 C1400 1.384 . S
C1402 C1403 1.372 . S
C1403 C1402 1.372 . S
C1403 C1404 1.400 . S
C1403 C1408 1.490 . S
C1404 H1394 0.930 . S
C1404 C1403 1.400 . S
C1404 C1407 1.386 . S
H1405 C1421 0.930 . S
H1406 C1422 0.931 . S
C1407 H1395 0.929 . S
C1407 C1401 1.390 . S
C1407 C1404 1.386 . S
C1408 C1403 1.490 . S
C1408 C1410 1.395 . S
C1408 C1411 1.403 . S
H1409 C1415 0.930 . S
C1410 H1396 0.930 . S
C1410 C1408 1.395 . S
C1410 C1413 1.403 . S
C1411 C1408 1.403 . S
C1411 C1412 1.524 . S
C1411 C1415 1.400 . S
C1412 H1397 0.960 . S
C1412 H1398 0.960 . S
C1412 H1399 0.960 . S
C1412 C1411 1.524 . S
C1413 C1410 1.403 . S
C1413 C1414 1.392 . S
C1413 C1417 1.495 . S
C1414 C1413 1.392 . S
C1414 C1415 1.385 . S
C1414 C1416 1.478 . S
C1415 H1409 0.930 . S
C1415 C1411 1.400 . S
C1415 C1414 1.385 . S
C1416 C1414 1.478 . S
C1416 C1418 1.381 . S
C1416 C1422 1.383 . S
C1417 C1413 1.495 . S
C1417 H1423 0.959 . S
C1417 H1424 0.961 . S
C1417 H1425 0.960 . S
C1418 C1416 1.381 . S
C1418 C1419 1.394 . S
C1418 H1426 0.930 . S
C1419 C1418 1.394 . S
C1419 C1420 1.383 . S
C1419 H1427 0.929 . S
C1420 C1419 1.383 . S
C1420 C1421 1.377 . S
C1421 H1405 0.930 . S
C1421 C1420 1.377 . S
C1421 C1422 1.379 . S
C1422 H1406 0.931 . S
C1422 C1416 1.383 . S
C1422 C1421 1.379 . S
H1423 C1417 0.959 . S
H1424 C1417 0.961 . S
H1425 C1417 0.960 . S
H1426 C1418 0.930 . S
H1427 C1419 0.929 . S
H1428 C1436 0.929 . S
H1429 C1438 0.930 . S
H1430 C1440 0.930 . S
H1431 C1443 0.929 . S
H1432 C1446 0.930 . S
H1433 C1448 0.960 . S
H1434 C1448 0.960 . S
H1435 C1448 0.960 . S
C1436 H1428 0.929 . S
C1436 C1437 1.377 . S
C1436 C1438 1.384 . S
C1437 C1436 1.377 . S
C1437 C1443 1.390 . S
C1438 H1429 0.930 . S
C1438 C1436 1.384 . S
C1438 C1439 1.372 . S
C1439 C1438 1.372 . S
C1439 C1440 1.400 . S
C1439 C1444 1.490 . S
C1440 H1430 0.930 . S
C1440 C1439 1.400 . S
C1440 C1443 1.386 . S
H1441 C1457 0.930 . S
H1442 C1458 0.931 . S
C1443 H1431 0.929 . S
C1443 C1437 1.390 . S
C1443 C1440 1.386 . S
C1444 C1439 1.490 . S
C1444 C1446 1.395 . S
C1444 C1447 1.403 . S
H1445 C1451 0.930 . S
C1446 H1432 0.930 . S
C1446 C1444 1.395 . S
C1446 C1449 1.403 . S
C1447 C1444 1.403 . S
C1447 C1448 1.524 . S
C1447 C1451 1.400 . S
C1448 H1433 0.960 . S
C1448 H1434 0.960 . S
C1448 H1435 0.960 . S
C1448 C1447 1.524 . S
C1449 C1446 1.403 . S
C1449 C1450 1.392 . S
C1449 C1453 1.495 . S
C1450 C1449 1.392 . S
C1450 C1451 1.385 . S
C1450 C1452 1.478 . S
C1451 H1445 0.930 . S
C1451 C1447 1.400 . S
C1451 C1450 1.385 . S
C1452 C1450 1.478 . S
C1452 C1454 1.381 . S
C1452 C1458 1.383 . S
C1453 C1449 1.495 . S
C1453 H1459 0.959 . S
C1453 H1460 0.961 . S
C1453 H1461 0.960 . S
C1454 C1452 1.381 . S
C1454 C1455 1.394 . S
C1454 H1462 0.930 . S
C1455 C1454 1.394 . S
C1455 C1456 1.383 . S
C1455 H1463 0.929 . S
C1456 C1455 1.383 . S
C1456 C1457 1.377 . S
C1457 H1441 0.930 . S
C1457 C1456 1.377 . S
C1457 C1458 1.379 . S
C1458 H1442 0.931 . S
C1458 C1452 1.383 . S
C1458 C1457 1.379 . S
H1459 C1453 0.959 . S
H1460 C1453 0.961 . S
H1461 C1453 0.960 . S
H1462 C1454 0.930 . S
H1463 C1455 0.929 . S
H1464 C1472 0.929 . S
H1465 C1474 0.930 . S
H1466 C1476 0.930 . S
H1467 C1479 0.929 . S
H1468 C1482 0.930 . S
H1469 C1484 0.960 . S
H1470 C1484 0.960 . S
H1471 C1484 0.960 . S
C1472 H1464 0.929 . S
C1472 C1473 1.377 . S
C1472 C1474 1.384 . S
C1473 C1472 1.377 . S
C1473 C1479 1.390 . S
C1474 H1465 0.930 . S
C1474 C1472 1.384 . S
C1474 C1475 1.372 . S
C1475 C1474 1.372 . S
C1475 C1476 1.400 . S
C1475 C1480 1.490 . S
C1476 H1466 0.930 . S
C1476 C1475 1.400 . S
C1476 C1479 1.386 . S
H1477 C1493 0.930 . S
H1478 C1494 0.931 . S
C1479 H1467 0.929 . S
C1479 C1473 1.390 . S
C1479 C1476 1.386 . S
C1480 C1475 1.490 . S
C1480 C1482 1.395 . S
C1480 C1483 1.403 . S
H1481 C1487 0.930 . S
C1482 H1468 0.930 . S
C1482 C1480 1.395 . S
C1482 C1485 1.403 . S
C1483 C1480 1.403 . S
C1483 C1484 1.524 . S
C1483 C1487 1.400 . S
C1484 H1469 0.960 . S
C1484 H1470 0.960 . S
C1484 H1471 0.960 . S
C1484 C1483 1.524 . S
C1485 C1482 1.403 . S
C1485 C1486 1.392 . S
C1485 C1489 1.495 . S
C1486 C1485 1.392 . S
C1486 C1487 1.385 . S
C1486 C1488 1.478 . S
C1487 H1481 0.930 . S
C1487 C1483 1.400 . S
C1487 C1486 1.385 . S
C1488 C1486 1.478 . S
C1488 C1490 1.381 . S
C1488 C1494 1.383 . S
C1489 C1485 1.495 . S
C1489 H1495 0.959 . S
C1489 H1496 0.961 . S
C1489 H1497 0.960 . S
C1490 C1488 1.381 . S
C1490 C1491 1.394 . S
C1490 H1498 0.930 . S
C1491 C1490 1.394 . S
C1491 C1492 1.383 . S
C1491 H1499 0.929 . S
C1492 C1491 1.383 . S
C1492 C1493 1.377 . S
C1493 H1477 0.930 . S
C1493 C1492 1.377 . S
C1493 C1494 1.379 . S
C1494 H1478 0.931 . S
C1494 C1488 1.383 . S
C1494 C1493 1.379 . S
H1495 C1489 0.959 . S
H1496 C1489 0.961 . S
H1497 C1489 0.960 . S
H1498 C1490 0.930 . S
H1499 C1491 0.929 . S
H1500 C1508 0.929 . S
H1501 C1510 0.930 . S
H1502 C1512 0.930 . S
H1503 C1515 0.929 . S
H1504 C1518 0.930 . S
H1505 C1520 0.960 . S
H1506 C1520 0.960 . S
H1507 C1520 0.960 . S
C1508 H1500 0.929 . S
C1508 C1509 1.377 . S
C1508 C1510 1.384 . S
C1509 C1508 1.377 . S
C1509 C1515 1.390 . S
C1510 H1501 0.930 . S
C1510 C1508 1.384 . S
C1510 C1511 1.372 . S
C1511 C1510 1.372 . S
C1511 C1512 1.400 . S
C1511 C1516 1.490 . S
C1512 H1502 0.930 . S
C1512 C1511 1.400 . S
C1512 C1515 1.386 . S
H1513 C1529 0.930 . S
H1514 C1530 0.931 . S
C1515 H1503 0.929 . S
C1515 C1509 1.390 . S
C1515 C1512 1.386 . S
C1516 C1511 1.490 . S
C1516 C1518 1.395 . S
C1516 C1519 1.403 . S
H1517 C1523 0.930 . S
C1518 H1504 0.930 . S
C1518 C1516 1.395 . S
C1518 C1521 1.403 . S
C1519 C1516 1.403 . S
C1519 C1520 1.524 . S
C1519 C1523 1.400 . S
C1520 H1505 0.960 . S
C1520 H1506 0.960 . S
C1520 H1507 0.960 . S
C1520 C1519 1.524 . S
C1521 C1518 1.403 . S
C1521 C1522 1.392 . S
C1521 C1525 1.495 . S
C1522 C1521 1.392 . S
C1522 C1523 1.385 . S
C1522 C1524 1.478 . S
C1523 H1517 0.930 . S
C1523 C1519 1.400 . S
C1523 C1522 1.385 . S
C1524 C1522 1.478 . S
C1524 C1526 1.381 . S
C1524 C1530 1.383 . S
C1525 C1521 1.495 . S
C1525 H1531 0.959 . S
C1525 H1532 0.961 . S
C1525 H1533 0.960 . S
C1526 C1524 1.381 . S
C1526 C1527 1.394 . S
C1526 H1534 0.930 . S
C1527 C1526 1.394 . S
C1527 C1528 1.383 . S
C1527 H1535 0.929 . S
C1528 C1527 1.383 . S
C1528 C1529 1.377 . S
C1529 H1513 0.930 . S
C1529 C1528 1.377 . S
C1529 C1530 1.379 . S
C1530 H1514 0.931 . S
C1530 C1524 1.383 . S
C1530 C1529 1.379 . S
H1531 C1525 0.959 . S
H1532 C1525 0.961 . S
H1533 C1525 0.960 . S
H1534 C1526 0.930 . S
H1535 C1527 0.929 . S
H1536 C1544 0.929 . S
H1537 C1546 0.930 . S
H1538 C1548 0.930 . S
H1539 C1551 0.929 . S
H1540 C1554 0.930 . S
H1541 C1556 0.960 . S
H1542 C1556 0.960 . S
H1543 C1556 0.960 . S
C1544 H1536 0.929 . S
C1544 C1545 1.377 . S
C1544 C1546 1.384 . S
C1545 C1544 1.377 . S
C1545 C1551 1.390 . S
C1546 H1537 0.930 . S
C1546 C1544 1.384 . S
C1546 C1547 1.372 . S
C1547 C1546 1.372 . S
C1547 C1548 1.400 . S
C1547 C1552 1.490 . S
C1548 H1538 0.930 . S
C1548 C1547 1.400 . S
C1548 C1551 1.386 . S
H1549 C1565 0.930 . S
H1550 C1566 0.931 . S
C1551 H1539 0.929 . S
C1551 C1545 1.390 . S
C1551 C1548 1.386 . S
C1552 C1547 1.490 . S
C1552 C1554 1.395 . S
C1552 C1555 1.403 . S
H1553 C1559 0.930 . S
C1554 H1540 0.930 . S
C1554 C1552 1.395 . S
C1554 C1557 1.403 . S
C1555 C1552 1.403 . S
C1555 C1556 1.524 . S
C1555 C1559 1.400 . S
C1556 H1541 0.960 . S
C1556 H1542 0.960 . S
C1556 H1543 0.960 . S
C1556 C1555 1.524 . S
C1557 C1554 1.403 . S
C1557 C1558 1.392 . S
C1557 C1561 1.495 . S
C1558 C1557 1.392 . S
C1558 C1559 1.385 . S
C1558 C1560 1.478 . S
C1559 H1553 0.930 . S
C1559 C1555 1.400 . S
C1559 C1558 1.385 . S
C1560 C1558 1.478 . S
C1560 C1562 1.381 . S
C1560 C1566 1.383 . S
C1561 C1557 1.495 . S
C1561 H1567 0.959 . S
C1561 H1568 0.961 . S
C1561 H1569 0.960 . S
C1562 C1560 1.381 . S
C1562 C1563 1.394 . S
C1562 H1570 0.930 . S
C1563 C1562 1.394 . S
C1563 C1564 1.383 . S
C1563 H1571 0.929 . S
C1564 C1563 1.383 . S
C1564 C1565 1.377 . S
C1565 H1549 0.930 . S
C1565 C1564 1.377 . S
C1565 C1566 1.379 . S
C1566 H1550 0.931 . S
C1566 C1560 1.383 . S
C1566 C1565 1.379 . S
H1567 C1561 0.959 . S
H1568 C1561 0.961 . S
H1569 C1561 0.960 . S
H1570 C1562 0.930 . S
H1571 C1563 0.929 . S
H1572 C1580 0.929 . S
H1573 C1582 0.930 . S
H1574 C1584 0.930 . S
H1575 C1587 0.929 . S
H1576 C1590 0.930 . S
H1577 C1592 0.960 . S
H1578 C1592 0.960 . S
H1579 C1592 0.960 . S
C1580 H1572 0.929 . S
C1580 C1581 1.377 . S
C1580 C1582 1.384 . S
C1581 C1580 1.377 . S
C1581 C1587 1.390 . S
C1582 H1573 0.930 . S
C1582 C1580 1.384 . S
C1582 C1583 1.372 . S
C1583 C1582 1.372 . S
C1583 C1584 1.400 . S
C1583 C1588 1.490 . S
C1584 H1574 0.930 . S
C1584 C1583 1.400 . S
C1584 C1587 1.386 . S
H1585 C1601 0.930 . S
H1586 C1602 0.931 . S
C1587 H1575 0.929 . S
C1587 C1581 1.390 . S
C1587 C1584 1.386 . S
C1588 C1583 1.490 . S
C1588 C1590 1.395 . S
C1588 C1591 1.403 . S
H1589 C1595 0.930 . S
C1590 H1576 0.930 . S
C1590 C1588 1.395 . S
C1590 C1593 1.403 . S
C1591 C1588 1.403 . S
C1591 C1592 1.524 . S
C1591 C1595 1.400 . S
C1592 H1577 0.960 . S
C1592 H1578 0.960 . S
C1592 H1579 0.960 . S
C1592 C1591 1.524 . S
C1593 C1590 1.403 . S
C1593 C1594 1.392 . S
C1593 C1597 1.495 . S
C1594 C1593 1.392 . S
C1594 C1595 1.385 . S
C1594 C1596 1.478 . S
C1595 H1589 0.930 . S
C1595 C1591 1.400 . S
C1595 C1594 1.385 . S
C1596 C1594 1.478 . S
C1596 C1598 1.381 . S
C1596 C1602 1.383 . S
C1597 C1593 1.495 . S
C1597 H1603 0.959 . S
C1597 H1604 0.961 . S
C1597 H1605 0.960 . S
C1598 C1596 1.381 . S
C1598 C1599 1.394 . S
C1598 H1606 0.930 . S
C1599 C1598 1.394 . S
C1599 C1600 1.383 . S
C1599 H1607 0.929 . S
C1600 C1599 1.383 . S
C1600 C1601 1.377 . S
C1601 H1585 0.930 . S
C1601 C1600 1.377 . S
C1601 C1602 1.379 . S
C1602 H1586 0.931 . S
C1602 C1596 1.383 . S
C1602 C1601 1.379 . S
H1603 C1597 0.959 . S
H1604 C1597 0.961 . S
H1605 C1597 0.960 . S
H1606 C1598 0.930 . S
H1607 C1599 0.929 . S
H1608 C1616 0.929 . S
H1609 C1618 0.930 . S
H1610 C1620 0.930 . S
H1611 C1623 0.929 . S
H1612 C1626 0.930 . S
H1613 C1628 0.960 . S
H1614 C1628 0.960 . S
H1615 C1628 0.960 . S
C1616 H1608 0.929 . S
C1616 C1617 1.377 . S
C1616 C1618 1.384 . S
C1617 C1616 1.377 . S
C1617 C1623 1.390 . S
C1618 H1609 0.930 . S
C1618 C1616 1.384 . S
C1618 C1619 1.372 . S
C1619 C1618 1.372 . S
C1619 C1620 1.400 . S
C1619 C1624 1.490 . S
C1620 H1610 0.930 . S
C1620 C1619 1.400 . S
C1620 C1623 1.386 . S
H1621 C1637 0.930 . S
H1622 C1638 0.931 . S
C1623 H1611 0.929 . S
C1623 C1617 1.390 . S
C1623 C1620 1.386 . S
C1624 C1619 1.490 . S
C1624 C1626 1.395 . S
C1624 C1627 1.403 . S
H1625 C1631 0.930 . S
C1626 H1612 0.930 . S
C1626 C1624 1.395 . S
C1626 C1629 1.403 . S
C1627 C1624 1.403 . S
C1627 C1628 1.524 . S
C1627 C1631 1.400 . S
C1628 H1613 0.960 . S
C1628 H1614 0.960 . S
C1628 H1615 0.960 . S
C1628 C1627 1.524 . S
C1629 C1626 1.403 . S
C1629 C1630 1.392 . S
C1629 C1633 1.495 . S
C1630 C1629 1.392 . S
C1630 C1631 1.385 . S
C1630 C1632 1.478 . S
C1631 H1625 0.930 . S
C1631 C1627 1.400 . S
C1631 C1630 1.385 . S
C1632 C1630 1.478 . S
C1632 C1634 1.381 . S
C1632 C1638 1.383 . S
C1633 C1629 1.495 . S
C1633 H1639 0.959 . S
C1633 H1640 0.961 . S
C1633 H1641 0.960 . S
C1634 C1632 1.381 . S
C1634 C1635 1.394 . S
C1634 H1642 0.930 . S
C1635 C1634 1.394 . S
C1635 C1636 1.383 . S
C1635 H1643 0.929 . S
C1636 C1635 1.383 . S
C1636 C1637 1.377 . S
C1637 H1621 0.930 . S
C1637 C1636 1.377 . S
C1637 C1638 1.379 . S
C1638 H1622 0.931 . S
C1638 C1632 1.383 . S
C1638 C1637 1.379 . S
H1639 C1633 0.959 . S
H1640 C1633 0.961 . S
H1641 C1633 0.960 . S
H1642 C1634 0.930 . S
H1643 C1635 0.929 . S
H1644 C1652 0.929 . S
H1645 C1654 0.930 . S
H1646 C1656 0.930 . S
H1647 C1659 0.929 . S
H1648 C1662 0.930 . S
H1649 C1664 0.960 . S
H1650 C1664 0.960 . S
H1651 C1664 0.960 . S
C1652 H1644 0.929 . S
C1652 C1653 1.377 . S
C1652 C1654 1.384 . S
C1653 C1652 1.377 . S
C1653 C1659 1.390 . S
C1654 H1645 0.930 . S
C1654 C1652 1.384 . S
C1654 C1655 1.372 . S
C1655 C1654 1.372 . S
C1655 C1656 1.400 . S
C1655 C1660 1.490 . S
C1656 H1646 0.930 . S
C1656 C1655 1.400 . S
C1656 C1659 1.386 . S
H1657 C1673 0.930 . S
H1658 C1674 0.931 . S
C1659 H1647 0.929 . S
C1659 C1653 1.390 . S
C1659 C1656 1.386 . S
C1660 C1655 1.490 . S
C1660 C1662 1.395 . S
C1660 C1663 1.403 . S
H1661 C1667 0.930 . S
C1662 H1648 0.930 . S
C1662 C1660 1.395 . S
C1662 C1665 1.403 . S
C1663 C1660 1.403 . S
C1663 C1664 1.524 . S
C1663 C1667 1.400 . S
C1664 H1649 0.960 . S
C1664 H1650 0.960 . S
C1664 H1651 0.960 . S
C1664 C1663 1.524 . S
C1665 C1662 1.403 . S
C1665 C1666 1.392 . S
C1665 C1669 1.495 . S
C1666 C1665 1.392 . S
C1666 C1667 1.385 . S
C1666 C1668 1.478 . S
C1667 H1661 0.930 . S
C1667 C1663 1.400 . S
C1667 C1666 1.385 . S
C1668 C1666 1.478 . S
C1668 C1670 1.381 . S
C1668 C1674 1.383 . S
C1669 C1665 1.495 . S
C1669 H1675 0.959 . S
C1669 H1676 0.961 . S
C1669 H1677 0.960 . S
C1670 C1668 1.381 . S
C1670 C1671 1.394 . S
C1670 H1678 0.930 . S
C1671 C1670 1.394 . S
C1671 C1672 1.383 . S
C1671 H1679 0.929 . S
C1672 C1671 1.383 . S
C1672 C1673 1.377 . S
C1673 H1657 0.930 . S
C1673 C1672 1.377 . S
C1673 C1674 1.379 . S
C1674 H1658 0.931 . S
C1674 C1668 1.383 . S
C1674 C1673 1.379 . S
H1675 C1669 0.959 . S
H1676 C1669 0.961 . S
H1677 C1669 0.960 . S
H1678 C1670 0.930 . S
H1679 C1671 0.929 . S
H1680 C1688 0.929 . S
H1681 C1690 0.930 . S
H1682 C1692 0.930 . S
H1683 C1695 0.929 . S
H1684 C1698 0.930 . S
H1685 C1700 0.960 . S
H1686 C1700 0.960 . S
H1687 C1700 0.960 . S
C1688 H1680 0.929 . S
C1688 C1689 1.377 . S
C1688 C1690 1.384 . S
C1689 C1688 1.377 . S
C1689 C1695 1.390 . S
C1690 H1681 0.930 . S
C1690 C1688 1.384 . S
C1690 C1691 1.372 . S
C1691 C1690 1.372 . S
C1691 C1692 1.400 . S
C1691 C1696 1.490 . S
C1692 H1682 0.930 . S
C1692 C1691 1.400 . S
C1692 C1695 1.386 . S
H1693 C1709 0.930 . S
H1694 C1710 0.931 . S
C1695 H1683 0.929 . S
C1695 C1689 1.390 . S
C1695 C1692 1.386 . S
C1696 C1691 1.490 . S
C1696 C1698 1.395 . S
C1696 C1699 1.403 . S
H1697 C1703 0.930 . S
C1698 H1684 0.930 . S
C1698 C1696 1.395 . S
C1698 C1701 1.403 . S
C1699 C1696 1.403 . S
C1699 C1700 1.524 . S
C1699 C1703 1.400 . S
C1700 H1685 0.960 . S
C1700 H1686 0.960 . S
C1700 H1687 0.960 . S
C1700 C1699 1.524 . S
C1701 C1698 1.403 . S
C1701 C1702 1.392 . S
C1701 C1705 1.495 . S
C1702 C1701 1.392 . S
C1702 C1703 1.385 . S
C1702 C1704 1.478 . S
C1703 H1697 0.930 . S
C1703 C1699 1.400 . S
C1703 C1702 1.385 . S
C1704 C1702 1.478 . S
C1704 C1706 1.381 . S
C1704 C1710 1.383 . S
C1705 C1701 1.495 . S
C1705 H1711 0.959 . S
C1705 H1712 0.961 . S
C1705 H1713 0.960 . S
C1706 C1704 1.381 . S
C1706 C1707 1.394 . S
C1706 H1714 0.930 . S
C1707 C1706 1.394 . S
C1707 C1708 1.383 . S
C1707 H1715 0.929 . S
C1708 C1707 1.383 . S
C1708 C1709 1.377 . S
C1709 H1693 0.930 . S
C1709 C1708 1.377 . S
C1709 C1710 1.379 . S
C1710 H1694 0.931 . S
C1710 C1704 1.383 . S
C1710 C1709 1.379 . S
H1711 C1705 0.959 . S
H1712 C1705 0.961 . S
H1713 C1705 0.960 . S
H1714 C1706 0.930 . S
H1715 C1707 0.929 . S
H1716 C1724 0.929 . S
H1717 C1726 0.930 . S
H1718 C1728 0.930 . S
H1719 C1731 0.929 . S
H1720 C1734 0.930 . S
H1721 C1736 0.960 . S
H1722 C1736 0.960 . S
H1723 C1736 0.960 . S
C1724 H1716 0.929 . S
C1724 C1725 1.377 . S
C1724 C1726 1.384 . S
C1725 C1724 1.377 . S
C1725 C1731 1.390 . S
C1726 H1717 0.930 . S
C1726 C1724 1.384 . S
C1726 C1727 1.372 . S
C1727 C1726 1.372 . S
C1727 C1728 1.400 . S
C1727 C1732 1.490 . S
C1728 H1718 0.930 . S
C1728 C1727 1.400 . S
C1728 C1731 1.386 . S
H1729 C1745 0.930 . S
H1730 C1746 0.931 . S
C1731 H1719 0.929 . S
C1731 C1725 1.390 . S
C1731 C1728 1.386 . S
C1732 C1727 1.490 . S
C1732 C1734 1.395 . S
C1732 C1735 1.403 . S
H1733 C1739 0.930 . S
C1734 H1720 0.930 . S
C1734 C1732 1.395 . S
C1734 C1737 1.403 . S
C1735 C1732 1.403 . S
C1735 C1736 1.524 . S
C1735 C1739 1.400 . S
C1736 H1721 0.960 . S
C1736 H1722 0.960 . S
C1736 H1723 0.960 . S
C1736 C1735 1.524 . S
C1737 C1734 1.403 . S
C1737 C1738 1.392 . S
C1737 C1741 1.495 . S
C1738 C1737 1.392 . S
C1738 C1739 1.385 . S
C1738 C1740 1.478 . S
C1739 H1733 0.930 . S
C1739 C1735 1.400 . S
C1739 C1738 1.385 . S
C1740 C1738 1.478 . S
C1740 C1742 1.381 . S
C1740 C1746 1.383 . S
C1741 C1737 1.495 . S
C1741 H1747 0.959 . S
C1741 H1748 0.961 . S
C1741 H1749 0.960 . S
C1742 C1740 1.381 . S
C1742 C1743 1.394 . S
C1742 H1750 0.930 . S
C1743 C1742 1.394 . S
C1743 C1744 1.383 . S
C1743 H1751 0.929 . S
C1744 C1743 1.383 . S
C1744 C1745 1.377 . S
C1745 H1729 0.930 . S
C1745 C1744 1.377 . S
C1745 C1746 1.379 . S
C1746 H1730 0.931 . S
C1746 C1740 1.383 . S
C1746 C1745 1.379 . S
H1747 C1741 0.959 . S
H1748 C1741 0.961 . S
H1749 C1741 0.960 . S
H1750 C1742 0.930 . S
H1751 C1743 0.929 . S
H1752 C1760 0.929 . S
H1753 C1762 0.930 . S
H1754 C1764 0.930 . S
H1755 C1767 0.929 . S
H1756 C1770 0.930 . S
H1757 C1772 0.960 . S
H1758 C1772 0.960 . S
H1759 C1772 0.960 . S
C1760 H1752 0.929 . S
C1760 C1761 1.377 . S
C1760 C1762 1.384 . S
C1761 C1760 1.377 . S
C1761 C1767 1.390 . S
C1762 H1753 0.930 . S
C1762 C1760 1.384 . S
C1762 C1763 1.372 . S
C1763 C1762 1.372 . S
C1763 C1764 1.400 . S
C1763 C1768 1.490 . S
C1764 H1754 0.930 . S
C1764 C1763 1.400 . S
C1764 C1767 1.386 . S
H1765 C1781 0.930 . S
H1766 C1782 0.931 . S
C1767 H1755 0.929 . S
C1767 C1761 1.390 . S
C1767 C1764 1.386 . S
C1768 C1763 1.490 . S
C1768 C1770 1.395 . S
C1768 C1771 1.403 . S
H1769 C1775 0.930 . S
C1770 H1756 0.930 . S
C1770 C1768 1.395 . S
C1770 C1773 1.403 . S
C1771 C1768 1.403 . S
C1771 C1772 1.524 . S
C1771 C1775 1.400 . S
C1772 H1757 0.960 . S
C1772 H1758 0.960 . S
C1772 H1759 0.960 . S
C1772 C1771 1.524 . S
C1773 C1770 1.403 . S
C1773 C1774 1.392 . S
C1773 C1777 1.495 . S
C1774 C1773 1.392 . S
C1774 C1775 1.385 . S
C1774 C1776 1.478 . S
C1775 H1769 0.930 . S
C1775 C1771 1.400 . S
C1775 C1774 1.385 . S
C1776 C1774 1.478 . S
C1776 C1778 1.381 . S
C1776 C1782 1.383 . S
C1777 C1773 1.495 . S
C1777 H1783 0.959 . S
C1777 H1784 0.961 . S
C1777 H1785 0.960 . S
C1778 C1776 1.381 . S
C1778 C1779 1.394 . S
C1778 H1786 0.930 . S
C1779 C1778 1.394 . S
C1779 C1780 1.383 . S
C1779 H1787 0.929 . S
C1780 C1779 1.383 . S
C1780 C1781 1.377 . S
C1781 H1765 0.930 . S
C1781 C1780 1.377 . S
C1781 C1782 1.379 . S
C1782 H1766 0.931 . S
C1782 C1776 1.383 . S
C1782 C1781 1.379 . S
H1783 C1777 0.959 . S
H1784 C1777 0.961 . S
H1785 C1777 0.960 . S
H1786 C1778 0.930 . S
H1787 C1779 0.929 . S
H1788 C1796 0.929 . S
H1789 C1798 0.930 . S
H1790 C1800 0.930 . S
H1791 C1803 0.929 . S
H1792 C1806 0.930 . S
H1793 C1808 0.960 . S
H1794 C1808 0.960 . S
H1795 C1808 0.960 . S
C1796 H1788 0.929 . S
C1796 C1797 1.377 . S
C1796 C1798 1.384 . S
C1797 C1796 1.377 . S
C1797 C1803 1.390 . S
C1798 H1789 0.930 . S
C1798 C1796 1.384 . S
C1798 C1799 1.372 . S
C1799 C1798 1.372 . S
C1799 C1800 1.400 . S
C1799 C1804 1.490 . S
C1800 H1790 0.930 . S
C1800 C1799 1.400 . S
C1800 C1803 1.386 . S
H1801 C1817 0.930 . S
H1802 C1818 0.931 . S
C1803 H1791 0.929 . S
C1803 C1797 1.390 . S
C1803 C1800 1.386 . S
C1804 C1799 1.490 . S
C1804 C1806 1.395 . S
C1804 C1807 1.403 . S
H1805 C1811 0.930 . S
C1806 H1792 0.930 . S
C1806 C1804 1.395 . S
C1806 C1809 1.403 . S
C1807 C1804 1.403 . S
C1807 C1808 1.524 . S
C1807 C1811 1.400 . S
C1808 H1793 0.960 . S
C1808 H1794 0.960 . S
C1808 H1795 0.960 . S
C1808 C1807 1.524 . S
C1809 C1806 1.403 . S
C1809 C1810 1.392 . S
C1809 C1813 1.495 . S
C1810 C1809 1.392 . S
C1810 C1811 1.385 . S
C1810 C1812 1.478 . S
C1811 H1805 0.930 . S
C1811 C1807 1.400 . S
C1811 C1810 1.385 . S
C1812 C1810 1.478 . S
C1812 C1814 1.381 . S
C1812 C1818 1.383 . S
C1813 C1809 1.495 . S
C1813 H1819 0.959 . S
C1813 H1820 0.961 . S
C1813 H1821 0.960 . S
C1814 C1812 1.381 . S
C1814 C1815 1.394 . S
C1814 H1822 0.930 . S
C1815 C1814 1.394 . S
C1815 C1816 1.383 . S
C1815 H1823 0.929 . S
C1816 C1815 1.383 . S
C1816 C1817 1.377 . S
C1817 H1801 0.930 . S
C1817 C1816 1.377 . S
C1817 C1818 1.379 . S
C1818 H1802 0.931 . S
C1818 C1812 1.383 . S
C1818 C1817 1.379 . S
H1819 C1813 0.959 . S
H1820 C1813 0.961 . S
H1821 C1813 0.960 . S
H1822 C1814 0.930 . S
H1823 C1815 0.929 . S
H1824 C1832 0.933 . S
H1825 C1834 0.930 . S
H1826 C1836 0.930 . S
H1827 C1839 0.929 . S
H1828 C1842 0.930 . S
H1829 C1844 0.960 . S
H1830 C1844 0.960 . S
H1831 C1844 0.960 . S
C1832 H1824 0.933 . S
C1832 C1833 1.374 1_545 S
C1832 C1834 1.385 . S
C1833 C1832 1.374 1_565 S
C1833 C1839 1.390 . S
C1834 H1825 0.930 . S
C1834 C1832 1.385 . S
C1834 C1835 1.372 1_545 S
C1835 C1834 1.372 1_565 S
C1835 C1836 1.400 . S
C1835 C1840 1.489 1_565 S
C1836 H1826 0.930 . S
C1836 C1835 1.400 . S
C1836 C1839 1.386 . S
H1837 C1853 0.930 . S
H1838 C1854 0.931 . S
C1839 H1827 0.929 . S
C1839 C1833 1.390 . S
C1839 C1836 1.386 . S
C1840 C1835 1.489 1_545 S
C1840 C1842 1.406 . S
C1840 C1843 1.392 1_545 S
H1841 C1847 0.930 . S
C1842 H1828 0.930 . S
C1842 C1840 1.406 . S
C1842 C1845 1.403 1_556 S
C1843 C1840 1.392 1_565 S
C1843 C1844 1.524 . S
C1843 C1847 1.400 1_556 S
C1844 H1829 0.960 . S
C1844 H1830 0.960 . S
C1844 H1831 0.960 . S
C1844 C1843 1.524 . S
C1845 C1842 1.403 1_554 S
C1845 C1846 1.392 . S
C1845 C1849 1.495 . S
C1846 C1845 1.392 . S
C1846 C1847 1.385 1_545 S
C1846 C1848 1.478 . S
C1847 H1841 0.930 . S
C1847 C1843 1.400 1_554 S
C1847 C1846 1.385 1_565 S
C1848 C1846 1.478 . S
C1848 C1850 1.381 . S
C1848 C1854 1.383 . S
C1849 C1845 1.495 . S
C1849 H1855 0.959 . S
C1849 H1856 0.961 . S
C1849 H1857 0.960 . S
C1850 C1848 1.381 . S
C1850 C1851 1.394 . S
C1850 H1858 0.930 . S
C1851 C1850 1.394 . S
C1851 C1852 1.383 . S
C1851 H1859 0.929 . S
C1852 C1851 1.383 . S
C1852 C1853 1.377 . S
C1853 H1837 0.930 . S
C1853 C1852 1.377 . S
C1853 C1854 1.379 . S
C1854 H1838 0.931 . S
C1854 C1848 1.383 . S
C1854 C1853 1.379 . S
H1855 C1849 0.959 . S
H1856 C1849 0.961 . S
H1857 C1849 0.960 . S
H1858 C1850 0.930 . S
H1859 C1851 0.929 . S
H1860 C1868 0.929 . S
H1861 C1870 0.930 . S
H1862 C1872 0.930 . S
H1863 C1875 0.929 . S
H1864 C1878 0.930 . S
H1865 C1880 0.960 . S
H1866 C1880 0.960 . S
H1867 C1880 0.960 . S
C1868 H1860 0.929 . S
C1868 C1869 1.377 1_655 S
C1868 C1870 1.384 . S
C1869 C1868 1.377 1_455 S
C1869 C1875 1.390 . S
C1870 H1861 0.930 . S
C1870 C1868 1.384 . S
C1870 C1871 1.372 . S
C1871 C1870 1.372 . S
C1871 C1872 1.400 1_655 S
C1871 C1876 1.490 . S
C1872 H1862 0.930 . S
C1872 C1871 1.400 1_455 S
C1872 C1875 1.386 . S
H1873 C1889 0.930 . S
H1874 C1890 0.931 . S
C1875 H1863 0.929 . S
C1875 C1869 1.390 . S
C1875 C1872 1.386 . S
C1876 C1871 1.490 . S
C1876 C1878 1.395 1_655 S
C1876 C1879 1.402 . S
H1877 C1883 0.930 . S
C1878 H1864 0.930 . S
C1878 C1876 1.395 1_455 S
C1878 C1881 1.403 1_556 S
C1879 C1876 1.402 . S
C1879 C1880 1.524 . S
C1879 C1883 1.400 1_556 S
C1880 H1865 0.960 . S
C1880 H1866 0.960 . S
C1880 H1867 0.960 . S
C1880 C1879 1.524 . S
C1881 C1878 1.403 1_554 S
C1881 C1882 1.392 . S
C1881 C1885 1.495 . S
C1882 C1881 1.392 . S
C1882 C1883 1.385 1_455 S
C1882 C1884 1.478 . S
C1883 H1877 0.930 . S
C1883 C1879 1.400 1_554 S
C1883 C1882 1.385 1_655 S
C1884 C1882 1.478 . S
C1884 C1886 1.381 1_455 S
C1884 C1890 1.383 . S
C1885 C1881 1.495 . S
C1885 H1891 0.959 . S
C1885 H1892 0.961 . S
C1885 H1893 0.960 . S
C1886 C1884 1.381 1_655 S
C1886 C1887 1.394 . S
C1886 H1894 0.930 . S
C1887 C1886 1.394 . S
C1887 C1888 1.397 . S
C1887 H1895 0.929 . S
C1888 C1887 1.397 . S
C1888 C1889 1.362 1_655 S
C1889 H1873 0.930 . S
C1889 C1888 1.362 1_455 S
C1889 C1890 1.379 . S
C1890 H1874 0.931 . S
C1890 C1884 1.383 . S
C1890 C1889 1.379 . S
H1891 C1885 0.959 . S
H1892 C1885 0.961 . S
H1893 C1885 0.960 . S
H1894 C1886 0.930 . S
H1895 C1887 0.929 . S
H1896 C1904 0.929 . S
H1897 C1906 0.930 . S
H1898 C1908 0.930 . S
H1899 C1911 0.929 . S
H1900 C1914 0.930 . S
H1901 C1916 0.960 . S
H1902 C1916 0.960 . S
H1903 C1916 0.960 1_565 S
C1904 H1896 0.929 . S
C1904 C1905 1.377 1_545 S
C1904 C1906 1.384 . S
C1905 C1904 1.377 1_565 S
C1905 C1911 1.390 . S
C1906 H1897 0.930 . S
C1906 C1904 1.384 . S
C1906 C1907 1.383 . S
C1907 C1906 1.383 . S
C1907 C1908 1.388 1_545 S
C1907 C1912 1.490 . S
C1908 H1898 0.930 . S
C1908 C1907 1.388 1_565 S
C1908 C1911 1.386 . S
H1909 C1925 0.930 . S
H1910 C1926 0.931 . S
C1911 H1899 0.929 . S
C1911 C1905 1.390 . S
C1911 C1908 1.386 . S
C1912 C1907 1.490 . S
C1912 C1914 1.391 1_545 S
C1912 C1915 1.407 . S
H1913 C1919 0.930 . S
C1914 H1900 0.930 . S
C1914 C1912 1.391 1_565 S
C1914 C1917 1.403 1_554 S
C1915 C1912 1.407 . S
C1915 C1916 1.524 . S
C1915 C1919 1.400 1_554 S
C1916 H1901 0.960 . S
C1916 H1902 0.960 . S
C1916 H1903 0.960 1_545 S
C1916 C1915 1.524 . S
C1917 C1914 1.403 1_556 S
C1917 C1918 1.390 1_565 S
C1917 C1921 1.495 . S
C1918 C1917 1.390 1_545 S
C1918 C1919 1.388 . S
C1918 C1920 1.477 . S
C1919 H1913 0.930 . S
C1919 C1915 1.400 1_556 S
C1919 C1918 1.388 . S
C1920 C1918 1.477 . S
C1920 C1922 1.385 . S
C1920 C1926 1.379 1_545 S
C1921 C1917 1.495 . S
C1921 H1927 0.959 . S
C1921 H1928 0.961 . S
C1921 H1929 0.960 1_565 S
C1922 C1920 1.385 . S
C1922 C1923 1.394 . S
C1922 H1930 0.930 . S
C1923 C1922 1.394 . S
C1923 C1924 1.383 . S
C1923 H1931 0.929 . S
C1924 C1923 1.383 . S
C1924 C1925 1.377 1_545 S
C1925 H1909 0.930 . S
C1925 C1924 1.377 1_565 S
C1925 C1926 1.379 . S
C1926 H1910 0.931 . S
C1926 C1920 1.379 1_565 S
C1926 C1925 1.379 . S
H1927 C1921 0.959 . S
H1928 C1921 0.961 . S
H1929 C1921 0.960 1_545 S
H1930 C1922 0.930 . S
H1931 C1923 0.929 . S
H1932 C1940 0.929 . S
H1933 C1942 0.930 . S
H1934 C1944 0.930 . S
H1935 C1947 0.929 . S
H1936 C1950 0.930 . S
H1937 C1952 0.960 . S
H1938 C1952 0.960 . S
H1939 C1952 0.960 . S
C1940 H1932 0.929 . S
C1940 C1941 1.377 1_455 S
C1940 C1942 1.384 . S
C1941 C1940 1.377 1_655 S
C1941 C1947 1.390 . S
C1942 H1933 0.930 . S
C1942 C1940 1.384 . S
C1942 C1943 1.366 1_455 S
C1943 C1942 1.366 1_655 S
C1943 C1944 1.408 . S
C1943 C1948 1.488 1_655 S
C1944 H1934 0.930 . S
C1944 C1943 1.408 . S
C1944 C1947 1.386 . S
H1945 C1961 0.929 . S
H1946 C1962 0.931 . S
C1947 H1935 0.929 . S
C1947 C1941 1.390 . S
C1947 C1944 1.386 . S
C1948 C1943 1.488 1_455 S
C1948 C1950 1.413 . S
C1948 C1951 1.386 1_455 S
H1949 C1955 0.930 . S
C1950 H1936 0.930 . S
C1950 C1948 1.413 . S
C1950 C1953 1.403 1_556 S
C1951 C1948 1.386 1_655 S
C1951 C1952 1.524 . S
C1951 C1955 1.400 1_556 S
C1952 H1937 0.960 . S
C1952 H1938 0.960 . S
C1952 H1939 0.960 . S
C1952 C1951 1.524 . S
C1953 C1950 1.403 1_554 S
C1953 C1954 1.392 . S
C1953 C1957 1.495 . S
C1954 C1953 1.392 . S
C1954 C1955 1.385 1_455 S
C1954 C1956 1.478 . S
C1955 H1949 0.930 . S
C1955 C1951 1.400 1_554 S
C1955 C1954 1.385 1_655 S
C1956 C1954 1.478 . S
C1956 C1958 1.381 . S
C1956 C1962 1.383 . S
C1957 C1953 1.495 . S
C1957 H1963 0.959 . S
C1957 H1964 0.961 . S
C1957 H1965 0.960 . S
C1958 C1956 1.381 . S
C1958 C1959 1.394 . S
C1958 H1966 0.930 . S
C1959 C1958 1.394 . S
C1959 C1960 1.383 . S
C1959 H1967 0.929 . S
C1960 C1959 1.383 . S
C1960 C1961 1.377 . S
C1961 H1945 0.929 . S
C1961 C1960 1.377 . S
C1961 C1962 1.379 . S
C1962 H1946 0.931 . S
C1962 C1956 1.383 . S
C1962 C1961 1.379 . S
H1963 C1957 0.959 . S
H1964 C1957 0.961 . S
H1965 C1957 0.960 . S
H1966 C1958 0.930 . S
H1967 C1959 0.929 . S
C537 C73 0.769 . S
C556 C7 0.719 . S
C573 C106 0.773 . S
C592 C40 0.819 . S
C609 C205 0.790 . S
C628 C139 0.828 . S
C645 C172 0.774 . S
C664 C238 0.816 . S
C681 C271 0.772 . S
C700 C337 0.788 . S
C717 C304 0.779 . S
C736 C370 0.793 . S
C753 C469 0.790 . S
C772 C403 0.821 . S
C789 C502 0.779 . S
C808 C436 0.757 . S
C825 C18 1.164 . S
C844 C249 1.158 . S
C861 C150 1.159 . S
C880 C51 1.166 . S
C897 C183 1.159 . S
C916 C84 1.170 . S
C933 C216 1.159 . S
C952 C117 1.161 . S
C969 C513 1.159 . S
C988 C282 1.157 . S
C1005 C414 1.159 . S
C1024 C315 1.170 . S
C1041 C447 1.159 . S
C1060 C348 1.160 . S
C1077 C480 1.159 . S
C1096 C381 1.169 . S
C1113 C21 0.637 . S
C1132 N365 0.572 . S
C1149 C54 0.637 . S
C1168 N266 0.575 . S
C1185 C87 0.635 . S
C1204 N299 0.521 . S
C1221 N332 0.533 . S
C1240 C120 0.709 . S
C1257 C153 0.620 . S
C1276 N431 0.471 . S
C1293 C186 0.598 . S
C1312 N464 0.499 . S
C1329 C219 0.599 . S
C1348 N497 0.515 . S
C1365 C252 0.599 . S
C1384 N398 0.517 . S
C1401 N101 0.524 . S
C1420 C285 0.704 . S
C1437 N2 0.536 . S
C1456 C318 0.644 . S
C1473 N35 0.527 . S
C1492 C351 0.711 . S
C1509 C384 0.611 . S
C1528 N68 0.460 . S
C1545 C417 0.604 . S
C1564 N167 0.547 . S
C1581 C450 0.634 . S
C1600 N200 0.519 . S
C1617 C483 0.632 . S
C1636 N233 0.505 . S
C1653 C516 0.599 . S
C1672 N134 0.509 . S
C1689 N145 1.643 . S
C1708 N13 1.626 . S
C1725 N178 1.644 . S
C1744 N46 1.608 . S
C1761 N79 1.649 . S
C1780 N211 1.634 . S
C1797 N244 1.647 . S
C1816 N112 1.612 . S
C1833 N277 1.647 . S
C1852 N409 1.643 . S
C1869 N442 1.646 . S
C1888 N310 1.674 . S
C1905 N475 1.647 . S
C1924 N343 1.612 . S
C1941 N508 1.638 . S
C1960 N376 1.627 . S
