# Generated by pormake.
# Topology uky, (4)-cn, num edge types: 1
# Building blocks:
#     Node 0, Type 0, BuildingBlock: QUQFOY_clean_sbu_1, # of connection points: 4
#     Node 1, Type 0, BuildingBlock: QUQFOY_clean_sbu_1, # of connection points: 4
#     Node 2, Type 0, BuildingBlock: QUQFOY_clean_sbu_1, # of connection points: 4
#     Node 3, Type 0, BuildingBlock: QUQFOY_clean_sbu_1, # of connection points: 4
#     Node 4, Type 0, BuildingBlock: QUQFOY_clean_sbu_1, # of connection points: 4
#     Node 5, Type 0, BuildingBlock: QUQFOY_clean_sbu_1, # of connection points: 4
#     Node 6, Type 0, BuildingBlock: QUQFOY_clean_sbu_1, # of connection points: 4
#     Node 7, Type 0, BuildingBlock: QUQFOY_clean_sbu_1, # of connection points: 4
#     Node 8, Type 0, BuildingBlock: QUQFOY_clean_sbu_1, # of connection points: 4
#     Node 9, Type 0, BuildingBlock: QUQFOY_clean_sbu_1, # of connection points: 4
#     Node 10, Type 0, BuildingBlock: QUQFOY_clean_sbu_1, # of connection points: 4
#     Node 11, Type 0, BuildingBlock: QUQFOY_clean_sbu_1, # of connection points: 4
#     Node 12, Type 0, BuildingBlock: QUQFOY_clean_sbu_1, # of connection points: 4
#     Node 13, Type 0, BuildingBlock: QUQFOY_clean_sbu_1, # of connection points: 4
#     Node 14, Type 0, BuildingBlock: QUQFOY_clean_sbu_1, # of connection points: 4
#     Node 15, Type 0, BuildingBlock: QUQFOY_clean_sbu_1, # of connection points: 4
#     Node 16, Type 0, BuildingBlock: QUQFOY_clean_sbu_1, # of connection points: 4
#     Node 17, Type 0, BuildingBlock: QUQFOY_clean_sbu_1, # of connection points: 4
#     Node 18, Type 0, BuildingBlock: QUQFOY_clean_sbu_1, # of connection points: 4
#     Node 19, Type 0, BuildingBlock: QUQFOY_clean_sbu_1, # of connection points: 4
#     Node 20, Type 0, BuildingBlock: QUQFOY_clean_sbu_1, # of connection points: 4
#     Node 21, Type 0, BuildingBlock: QUQFOY_clean_sbu_1, # of connection points: 4
#     Node 22, Type 0, BuildingBlock: QUQFOY_clean_sbu_1, # of connection points: 4
#     Node 23, Type 0, BuildingBlock: QUQFOY_clean_sbu_1, # of connection points: 4
#     Node 24, Type 0, BuildingBlock: QUQFOY_clean_sbu_1, # of connection points: 4
#     Node 25, Type 0, BuildingBlock: QUQFOY_clean_sbu_1, # of connection points: 4
#     Node 26, Type 0, BuildingBlock: QUQFOY_clean_sbu_1, # of connection points: 4
#     Node 27, Type 0, BuildingBlock: QUQFOY_clean_sbu_1, # of connection points: 4
#     Node 28, Type 0, BuildingBlock: QUQFOY_clean_sbu_1, # of connection points: 4
#     Node 29, Type 0, BuildingBlock: QUQFOY_clean_sbu_1, # of connection points: 4
#     Node 30, Type 0, BuildingBlock: QUQFOY_clean_sbu_1, # of connection points: 4
#     Node 31, Type 0, BuildingBlock: QUQFOY_clean_sbu_1, # of connection points: 4
#     Node 32, Type 0, BuildingBlock: QUQFOY_clean_sbu_1, # of connection points: 4
#     Node 33, Type 0, BuildingBlock: QUQFOY_clean_sbu_1, # of connection points: 4
#     Node 34, Type 0, BuildingBlock: QUQFOY_clean_sbu_1, # of connection points: 4
#     Node 35, Type 0, BuildingBlock: QUQFOY_clean_sbu_1, # of connection points: 4
#     Node 36, Type 0, BuildingBlock: QUQFOY_clean_sbu_1, # of connection points: 4
#     Node 37, Type 0, BuildingBlock: QUQFOY_clean_sbu_1, # of connection points: 4
#     Node 38, Type 0, BuildingBlock: QUQFOY_clean_sbu_1, # of connection points: 4
#     Node 39, Type 0, BuildingBlock: QUQFOY_clean_sbu_1, # of connection points: 4
#     Node 40, Type 0, BuildingBlock: QUQFOY_clean_sbu_1, # of connection points: 4
#     Node 41, Type 0, BuildingBlock: QUQFOY_clean_sbu_1, # of connection points: 4
#     Node 42, Type 0, BuildingBlock: QUQFOY_clean_sbu_1, # of connection points: 4
#     Node 43, Type 0, BuildingBlock: QUQFOY_clean_sbu_1, # of connection points: 4
#     Node 44, Type 0, BuildingBlock: QUQFOY_clean_sbu_1, # of connection points: 4
#     Node 45, Type 0, BuildingBlock: QUQFOY_clean_sbu_1, # of connection points: 4
#     Node 46, Type 0, BuildingBlock: QUQFOY_clean_sbu_1, # of connection points: 4
#     Node 47, Type 0, BuildingBlock: QUQFOY_clean_sbu_1, # of connection points: 4
#     Edge 48, Type (0, 0), BuildingBlock: CIFDUS_clean_linker_0, # of connection points: 2
#     Edge 49, Type (0, 0), BuildingBlock: CIFDUS_clean_linker_0, # of connection points: 2
#     Edge 50, Type (0, 0), BuildingBlock: CIFDUS_clean_linker_0, # of connection points: 2
#     Edge 51, Type (0, 0), BuildingBlock: CIFDUS_clean_linker_0, # of connection points: 2
#     Edge 52, Type (0, 0), BuildingBlock: CIFDUS_clean_linker_0, # of connection points: 2
#     Edge 53, Type (0, 0), BuildingBlock: CIFDUS_clean_linker_0, # of connection points: 2
#     Edge 54, Type (0, 0), BuildingBlock: CIFDUS_clean_linker_0, # of connection points: 2
#     Edge 55, Type (0, 0), BuildingBlock: CIFDUS_clean_linker_0, # of connection points: 2
#     Edge 56, Type (0, 0), BuildingBlock: CIFDUS_clean_linker_0, # of connection points: 2
#     Edge 57, Type (0, 0), BuildingBlock: CIFDUS_clean_linker_0, # of connection points: 2
#     Edge 58, Type (0, 0), BuildingBlock: CIFDUS_clean_linker_0, # of connection points: 2
#     Edge 59, Type (0, 0), BuildingBlock: CIFDUS_clean_linker_0, # of connection points: 2
#     Edge 60, Type (0, 0), BuildingBlock: CIFDUS_clean_linker_0, # of connection points: 2
#     Edge 61, Type (0, 0), BuildingBlock: CIFDUS_clean_linker_0, # of connection points: 2
#     Edge 62, Type (0, 0), BuildingBlock: CIFDUS_clean_linker_0, # of connection points: 2
#     Edge 63, Type (0, 0), BuildingBlock: CIFDUS_clean_linker_0, # of connection points: 2
#     Edge 64, Type (0, 0), BuildingBlock: CIFDUS_clean_linker_0, # of connection points: 2
#     Edge 65, Type (0, 0), BuildingBlock: CIFDUS_clean_linker_0, # of connection points: 2
#     Edge 66, Type (0, 0), BuildingBlock: CIFDUS_clean_linker_0, # of connection points: 2
#     Edge 67, Type (0, 0), BuildingBlock: CIFDUS_clean_linker_0, # of connection points: 2
#     Edge 68, Type (0, 0), BuildingBlock: CIFDUS_clean_linker_0, # of connection points: 2
#     Edge 69, Type (0, 0), BuildingBlock: CIFDUS_clean_linker_0, # of connection points: 2
#     Edge 70, Type (0, 0), BuildingBlock: CIFDUS_clean_linker_0, # of connection points: 2
#     Edge 71, Type (0, 0), BuildingBlock: CIFDUS_clean_linker_0, # of connection points: 2
#     Edge 72, Type (0, 0), BuildingBlock: CIFDUS_clean_linker_0, # of connection points: 2
#     Edge 73, Type (0, 0), BuildingBlock: CIFDUS_clean_linker_0, # of connection points: 2
#     Edge 74, Type (0, 0), BuildingBlock: CIFDUS_clean_linker_0, # of connection points: 2
#     Edge 75, Type (0, 0), BuildingBlock: CIFDUS_clean_linker_0, # of connection points: 2
#     Edge 76, Type (0, 0), BuildingBlock: CIFDUS_clean_linker_0, # of connection points: 2
#     Edge 77, Type (0, 0), BuildingBlock: CIFDUS_clean_linker_0, # of connection points: 2
#     Edge 78, Type (0, 0), BuildingBlock: CIFDUS_clean_linker_0, # of connection points: 2
#     Edge 79, Type (0, 0), BuildingBlock: CIFDUS_clean_linker_0, # of connection points: 2
#     Edge 80, Type (0, 0), BuildingBlock: CIFDUS_clean_linker_0, # of connection points: 2
#     Edge 81, Type (0, 0), BuildingBlock: CIFDUS_clean_linker_0, # of connection points: 2
#     Edge 82, Type (0, 0), BuildingBlock: CIFDUS_clean_linker_0, # of connection points: 2
#     Edge 83, Type (0, 0), BuildingBlock: CIFDUS_clean_linker_0, # of connection points: 2
#     Edge 84, Type (0, 0), BuildingBlock: CIFDUS_clean_linker_0, # of connection points: 2
#     Edge 85, Type (0, 0), BuildingBlock: CIFDUS_clean_linker_0, # of connection points: 2
#     Edge 86, Type (0, 0), BuildingBlock: CIFDUS_clean_linker_0, # of connection points: 2
#     Edge 87, Type (0, 0), BuildingBlock: CIFDUS_clean_linker_0, # of connection points: 2
#     Edge 88, Type (0, 0), BuildingBlock: CIFDUS_clean_linker_0, # of connection points: 2
#     Edge 89, Type (0, 0), BuildingBlock: CIFDUS_clean_linker_0, # of connection points: 2
#     Edge 90, Type (0, 0), BuildingBlock: CIFDUS_clean_linker_0, # of connection points: 2
#     Edge 91, Type (0, 0), BuildingBlock: CIFDUS_clean_linker_0, # of connection points: 2
#     Edge 92, Type (0, 0), BuildingBlock: CIFDUS_clean_linker_0, # of connection points: 2
#     Edge 93, Type (0, 0), BuildingBlock: CIFDUS_clean_linker_0, # of connection points: 2
#     Edge 94, Type (0, 0), BuildingBlock: CIFDUS_clean_linker_0, # of connection points: 2
#     Edge 95, Type (0, 0), BuildingBlock: CIFDUS_clean_linker_0, # of connection points: 2
#     Edge 96, Type (0, 0), BuildingBlock: CIFDUS_clean_linker_0, # of connection points: 2
#     Edge 97, Type (0, 0), BuildingBlock: CIFDUS_clean_linker_0, # of connection points: 2
#     Edge 98, Type (0, 0), BuildingBlock: CIFDUS_clean_linker_0, # of connection points: 2
#     Edge 99, Type (0, 0), BuildingBlock: CIFDUS_clean_linker_0, # of connection points: 2
#     Edge 100, Type (0, 0), BuildingBlock: CIFDUS_clean_linker_0, # of connection points: 2
#     Edge 101, Type (0, 0), BuildingBlock: CIFDUS_clean_linker_0, # of connection points: 2
#     Edge 102, Type (0, 0), BuildingBlock: CIFDUS_clean_linker_0, # of connection points: 2
#     Edge 103, Type (0, 0), BuildingBlock: CIFDUS_clean_linker_0, # of connection points: 2
#     Edge 104, Type (0, 0), BuildingBlock: CIFDUS_clean_linker_0, # of connection points: 2
#     Edge 105, Type (0, 0), BuildingBlock: CIFDUS_clean_linker_0, # of connection points: 2
#     Edge 106, Type (0, 0), BuildingBlock: CIFDUS_clean_linker_0, # of connection points: 2
#     Edge 107, Type (0, 0), BuildingBlock: CIFDUS_clean_linker_0, # of connection points: 2
#     Edge 108, Type (0, 0), BuildingBlock: CIFDUS_clean_linker_0, # of connection points: 2
#     Edge 109, Type (0, 0), BuildingBlock: CIFDUS_clean_linker_0, # of connection points: 2
#     Edge 110, Type (0, 0), BuildingBlock: CIFDUS_clean_linker_0, # of connection points: 2
#     Edge 111, Type (0, 0), BuildingBlock: CIFDUS_clean_linker_0, # of connection points: 2
#     Edge 112, Type (0, 0), BuildingBlock: CIFDUS_clean_linker_0, # of connection points: 2
#     Edge 113, Type (0, 0), BuildingBlock: CIFDUS_clean_linker_0, # of connection points: 2
#     Edge 114, Type (0, 0), BuildingBlock: CIFDUS_clean_linker_0, # of connection points: 2
#     Edge 115, Type (0, 0), BuildingBlock: CIFDUS_clean_linker_0, # of connection points: 2
#     Edge 116, Type (0, 0), BuildingBlock: CIFDUS_clean_linker_0, # of connection points: 2
#     Edge 117, Type (0, 0), BuildingBlock: CIFDUS_clean_linker_0, # of connection points: 2
#     Edge 118, Type (0, 0), BuildingBlock: CIFDUS_clean_linker_0, # of connection points: 2
#     Edge 119, Type (0, 0), BuildingBlock: CIFDUS_clean_linker_0, # of connection points: 2
#     Edge 120, Type (0, 0), BuildingBlock: CIFDUS_clean_linker_0, # of connection points: 2
#     Edge 121, Type (0, 0), BuildingBlock: CIFDUS_clean_linker_0, # of connection points: 2
#     Edge 122, Type (0, 0), BuildingBlock: CIFDUS_clean_linker_0, # of connection points: 2
#     Edge 123, Type (0, 0), BuildingBlock: CIFDUS_clean_linker_0, # of connection points: 2
#     Edge 124, Type (0, 0), BuildingBlock: CIFDUS_clean_linker_0, # of connection points: 2
#     Edge 125, Type (0, 0), BuildingBlock: CIFDUS_clean_linker_0, # of connection points: 2
#     Edge 126, Type (0, 0), BuildingBlock: CIFDUS_clean_linker_0, # of connection points: 2
#     Edge 127, Type (0, 0), BuildingBlock: CIFDUS_clean_linker_0, # of connection points: 2
#     Edge 128, Type (0, 0), BuildingBlock: CIFDUS_clean_linker_0, # of connection points: 2
#     Edge 129, Type (0, 0), BuildingBlock: CIFDUS_clean_linker_0, # of connection points: 2
#     Edge 130, Type (0, 0), BuildingBlock: CIFDUS_clean_linker_0, # of connection points: 2
#     Edge 131, Type (0, 0), BuildingBlock: CIFDUS_clean_linker_0, # of connection points: 2
#     Edge 132, Type (0, 0), BuildingBlock: CIFDUS_clean_linker_0, # of connection points: 2
#     Edge 133, Type (0, 0), BuildingBlock: CIFDUS_clean_linker_0, # of connection points: 2
#     Edge 134, Type (0, 0), BuildingBlock: CIFDUS_clean_linker_0, # of connection points: 2
#     Edge 135, Type (0, 0), BuildingBlock: CIFDUS_clean_linker_0, # of connection points: 2
#     Edge 136, Type (0, 0), BuildingBlock: CIFDUS_clean_linker_0, # of connection points: 2
#     Edge 137, Type (0, 0), BuildingBlock: CIFDUS_clean_linker_0, # of connection points: 2
#     Edge 138, Type (0, 0), BuildingBlock: CIFDUS_clean_linker_0, # of connection points: 2
#     Edge 139, Type (0, 0), BuildingBlock: CIFDUS_clean_linker_0, # of connection points: 2
#     Edge 140, Type (0, 0), BuildingBlock: CIFDUS_clean_linker_0, # of connection points: 2
#     Edge 141, Type (0, 0), BuildingBlock: CIFDUS_clean_linker_0, # of connection points: 2
#     Edge 142, Type (0, 0), BuildingBlock: CIFDUS_clean_linker_0, # of connection points: 2
#     Edge 143, Type (0, 0), BuildingBlock: CIFDUS_clean_linker_0, # of connection points: 2
# Relax obj value: 0.296
# Max RMSD: 0.257
# Mean RMSD: 0.253
data_MOF--net-uky--node1-QUQFOY_clean_sbu_1--edge1-CIFDUS_clean_linker_0
_symmetry_space_group_name_H-M    P1
_symmetry_Int_Tables_number       1
_symmetry_cell_setting            triclinic
loop_
_symmetry_equiv_pos_as_xyz
'x, y, z'
_cell_length_a     56.299996
_cell_length_b     56.307064
_cell_length_c     56.398936
_cell_angle_alpha  89.957056
_cell_angle_beta   89.994952
_cell_angle_gamma 89.947083
loop_
_atom_site_label
_atom_site_type_symbol
_atom_site_fract_x
_atom_site_fract_y
_atom_site_fract_z
_atom_type_partial_charge
O0 O 0.23646 0.17057 0.40877 0.0
Cd1 Cd 0.22566 0.16674 0.37386 0.0
Cd2 Cd 0.23174 0.21358 0.37414 0.0
O3 O 0.23258 0.20948 0.41043 0.0
O4 O 0.20323 0.13921 0.373 0.0
O5 O 0.19241 0.17652 0.36638 0.0
C6 C 0.18658 0.15449 0.36894 0.0
C7 C 0.2108 0.2445 0.35577 0.0
C8 C 0.23653 0.18975 0.42068 0.0
C9 C 0.2654 0.18395 0.34477 0.0
O10 O 0.26159 0.20331 0.35569 0.0
O11 O 0.25132 0.16646 0.34732 0.0
O12 O 0.22974 0.24842 0.36799 0.0
O13 O 0.2029 0.22301 0.35501 0.0
O14 O 0.07138 0.98508 0.6636 0.0
Cd15 Cd 0.07285 0.97521 0.62831 0.0
Cd16 Cd 0.02612 0.9813 0.63184 0.0
O17 O 0.03295 0.97907 0.66762 0.0
O18 O 0.10031 0.95296 0.62583 0.0
O19 O 0.06275 0.94192 0.6212 0.0
C20 C 0.08494 0.93618 0.62295 0.0
C21 C 0.99087 0.96578 0.61597 0.0
C22 C 0.05312 0.98341 0.67674 0.0
C23 C 0.0547 0.01644 0.60278 0.0
O24 O 0.03627 0.01214 0.61503 0.0
O25 O 0.07198 0.00186 0.60273 0.0
O26 O 0.99089 0.98379 0.63001 0.0
O27 O 0.01096 0.9555 0.61185 0.0
O28 O 0.26134 0.81416 0.93067 0.0
Cd29 Cd 0.27026 0.82 0.89548 0.0
Cd30 Cd 0.26477 0.77249 0.89382 0.0
O31 O 0.26688 0.77544 0.9301 0.0
O32 O 0.2909 0.84874 0.89521 0.0
O33 O 0.3036 0.81266 0.88566 0.0
C34 C 0.30819 0.83487 0.88929 0.0
C35 C 0.28033 0.73866 0.87509 0.0
C36 C 0.26285 0.79443 0.94156 0.0
C37 C 0.22931 0.80389 0.86801 0.0
O38 O 0.23398 0.78411 0.87782 0.0
O39 O 0.24332 0.82141 0.87039 0.0
O40 O 0.26215 0.73759 0.88888 0.0
O41 O 0.29067 0.75898 0.87272 0.0
O42 O 0.43697 0.01275 0.17241 0.0
Cd43 Cd 0.43091 0.02338 0.13771 0.0
Cd44 Cd 0.47822 0.01486 0.13412 0.0
O45 O 0.476 0.01462 0.17052 0.0
O46 O 0.40334 0.04557 0.13887 0.0
O47 O 0.43989 0.05668 0.12915 0.0
C48 C 0.418 0.0623 0.13334 0.0
C49 C 0.51274 0.03007 0.11648 0.0
C50 C 0.45712 0.01199 0.18257 0.0
C51 C 0.44409 0.98361 0.1065 0.0
O52 O 0.46454 0.98641 0.11561 0.0
O53 O 0.4274 0.99809 0.1112 0.0
O54 O 0.51283 0.01065 0.12852 0.0
O55 O 0.493 0.04168 0.11514 0.0
O56 O 0.23456 0.82748 0.09242 0.0
Cd57 Cd 0.22284 0.82948 0.12717 0.0
Cd58 Cd 0.23166 0.78249 0.12559 0.0
O59 O 0.23232 0.78854 0.0896 0.0
O60 O 0.20003 0.85652 0.12809 0.0
O61 O 0.18953 0.81891 0.13355 0.0
C62 C 0.18349 0.84096 0.13127 0.0
C63 C 0.21707 0.74619 0.13996 0.0
C64 C 0.23549 0.80869 0.07997 0.0
C65 C 0.26256 0.81373 0.15677 0.0
O66 O 0.26003 0.79452 0.14525 0.0
O67 O 0.24768 0.83056 0.15432 0.0
O68 O 0.23629 0.74753 0.1277 0.0
O69 O 0.20519 0.76554 0.14324 0.0
O70 O 0.42687 0.98939 0.33498 0.0
Cd71 Cd 0.42548 0.97832 0.36993 0.0
Cd72 Cd 0.4717 0.98787 0.36794 0.0
O73 O 0.46581 0.9875 0.33184 0.0
O74 O 0.39945 0.95444 0.37171 0.0
O75 O 0.43759 0.94568 0.37674 0.0
C76 C 0.41581 0.93866 0.37496 0.0
C77 C 0.50611 0.97106 0.38425 0.0
C78 C 0.44552 0.99013 0.3223 0.0
C79 C 0.44059 0.01882 0.39884 0.0
O80 O 0.4597 0.01673 0.38701 0.0
O81 O 0.42419 0.00345 0.39674 0.0
O82 O 0.50681 0.99015 0.37167 0.0
O83 O 0.48584 0.9606 0.38659 0.0
O84 O 0.26521 0.18812 0.56951 0.0
Cd85 Cd 0.27448 0.18295 0.60472 0.0
Cd86 Cd 0.26717 0.23011 0.60582 0.0
O87 O 0.26916 0.22703 0.5695 0.0
O88 O 0.29624 0.15498 0.60519 0.0
O89 O 0.30758 0.19156 0.61443 0.0
C90 C 0.31301 0.1695 0.61095 0.0
C91 C 0.28158 0.2644 0.62462 0.0
C92 C 0.26579 0.20773 0.55833 0.0
C93 C 0.23274 0.19769 0.6318 0.0
O94 O 0.23677 0.21753 0.62184 0.0
O95 O 0.24745 0.18067 0.62969 0.0
O96 O 0.29262 0.24442 0.62695 0.0
O97 O 0.26342 0.26491 0.61078 0.0
O98 O 0.0618 0.00431 0.82682 0.0
Cd99 Cd 0.06787 0.01401 0.86177 0.0
Cd100 Cd 0.02067 0.01093 0.86397 0.0
O101 O 0.02341 0.01178 0.8277 0.0
O102 O 0.09617 0.03535 0.86173 0.0
O103 O 0.05964 0.04748 0.8703 0.0
C104 C 0.08175 0.05253 0.86666 0.0
C105 C 0.98798 0.02927 0.88206 0.0
C106 C 0.04203 0.00654 0.81612 0.0
C107 C 0.05018 0.97457 0.89057 0.0
O108 O 0.03058 0.98001 0.8808 0.0
O109 O 0.06837 0.98764 0.88768 0.0
O110 O 0.98573 0.01066 0.86905 0.0
O111 O 0.00894 0.03832 0.88413 0.0
O112 O 0.42061 0.24122 0.18196 0.0
Cd113 Cd 0.38522 0.23168 0.18034 0.0
Cd114 Cd 0.38875 0.23745 0.22673 0.0
O115 O 0.42483 0.23583 0.22042 0.0
O116 O 0.38239 0.20948 0.1529 0.0
O117 O 0.37758 0.19859 0.19043 0.0
C118 C 0.37904 0.19282 0.16831 0.0
C119 C 0.37084 0.21831 0.25898 0.0
C120 C 0.43388 0.23988 0.20016 0.0
C121 C 0.35918 0.2726 0.199 0.0
O122 O 0.3715 0.26837 0.21741 0.0
O123 O 0.3596 0.25824 0.18159 0.0
O124 O 0.38465 0.23632 0.26182 0.0
O125 O 0.36828 0.21011 0.23776 0.0
O126 O 0.01083 0.16524 0.42887 0.0
Cd127 Cd 0.01894 0.12954 0.42513 0.0
Cd128 Cd 0.01666 0.13179 0.47218 0.0
O129 O 0.01815 0.16811 0.46716 0.0
O130 O 0.039 0.12664 0.39594 0.0
O131 O 0.05228 0.12004 0.43238 0.0
C132 C 0.05652 0.12181 0.40995 0.0
C133 C 0.0388 0.11137 0.50088 0.0
C134 C 0.01319 0.17787 0.44742 0.0
C135 C 0.97868 0.10417 0.44633 0.0
O136 O 0.98475 0.11561 0.46478 0.0
O137 O 0.99157 0.10484 0.4278 0.0
O138 O 0.02155 0.12529 0.50668 0.0
O139 O 0.04455 0.11024 0.47877 0.0
O140 O 0.08098 0.76266 0.69296 0.0
Cd141 Cd 0.11605 0.77123 0.6858 0.0
Cd142 Cd 0.1184 0.77133 0.73287 0.0
O143 O 0.08193 0.77259 0.73071 0.0
O144 O 0.11597 0.79046 0.656 0.0
O145 O 0.12553 0.80497 0.69132 0.0
C146 C 0.12162 0.80849 0.66899 0.0
C147 C 0.13864 0.79237 0.76248 0.0
C148 C 0.07028 0.76624 0.7125 0.0
C149 C 0.14383 0.73223 0.70599 0.0
O150 O 0.13429 0.73928 0.72516 0.0
O151 O 0.14125 0.74416 0.68699 0.0
O152 O 0.1251 0.77462 0.76737 0.0
O153 O 0.13982 0.79916 0.74065 0.0
O154 O 0.48736 0.8379 0.93022 0.0
Cd155 Cd 0.47751 0.87327 0.92998 0.0
Cd156 Cd 0.485 0.86851 0.97607 0.0
O157 O 0.48314 0.83273 0.9687 0.0
O158 O 0.45418 0.87645 0.90359 0.0
O159 O 0.44475 0.88022 0.94165 0.0
C160 C 0.43809 0.87904 0.91973 0.0
C161 C 0.46885 0.88432 0.01098 0.0
C162 C 0.4866 0.82421 0.94813 0.0
C163 C 0.51908 0.89867 0.94741 0.0
O164 O 0.5154 0.88595 0.96567 0.0
O165 O 0.50406 0.8989 0.93056 0.0
O166 O 0.48703 0.87043 0.01127 0.0
O167 O 0.45878 0.88826 0.99079 0.0
O168 O 0.42416 0.758 0.31762 0.0
Cd169 Cd 0.38948 0.76807 0.3247 0.0
Cd170 Cd 0.38513 0.76312 0.27762 0.0
O171 O 0.42166 0.76271 0.27894 0.0
O172 O 0.39045 0.79018 0.35225 0.0
O173 O 0.38021 0.80111 0.31579 0.0
C174 C 0.38443 0.80679 0.33761 0.0
C175 C 0.36631 0.78109 0.24514 0.0
C176 C 0.43402 0.75866 0.29734 0.0
C177 C 0.35845 0.72911 0.30981 0.0
O178 O 0.36715 0.73355 0.2895 0.0
O179 O 0.36327 0.74238 0.32738 0.0
O180 O 0.3786 0.76193 0.243 0.0
O181 O 0.36541 0.7909 0.2658 0.0
O182 O 0.4943 0.1686 0.56878 0.0
Cd183 Cd 0.48378 0.13343 0.57045 0.0
Cd184 Cd 0.4898 0.13646 0.52393 0.0
O185 O 0.48908 0.17244 0.53026 0.0
O186 O 0.46038 0.13119 0.597 0.0
O187 O 0.4509 0.12669 0.55905 0.0
C188 C 0.44427 0.1283 0.58094 0.0
C189 C 0.47164 0.12007 0.49036 0.0
C190 C 0.49334 0.18164 0.55038 0.0
C191 C 0.52407 0.10617 0.55212 0.0
O192 O 0.52008 0.1184 0.5336 0.0
O193 O 0.50974 0.10707 0.56957 0.0
O194 O 0.46247 0.117 0.51112 0.0
O195 O 0.49013 0.13342 0.48875 0.0
O196 O 0.08181 0.22921 0.80635 0.0
Cd197 Cd 0.11679 0.21963 0.8124 0.0
Cd198 Cd 0.11806 0.222 0.76573 0.0
O199 O 0.08159 0.22048 0.76829 0.0
O200 O 0.11689 0.1987 0.84104 0.0
O201 O 0.12557 0.18611 0.80477 0.0
C202 C 0.12192 0.18135 0.8269 0.0
C203 C 0.13901 0.20251 0.73553 0.0
C204 C 0.07052 0.22648 0.787 0.0
C205 C 0.14367 0.25977 0.79405 0.0
O206 O 0.13344 0.25386 0.77487 0.0
O207 O 0.1421 0.24654 0.81228 0.0
O208 O 0.12503 0.22009 0.73115 0.0
O209 O 0.14006 0.19488 0.75709 0.0
O210 O 0.00725 0.83524 0.07223 0.0
Cd211 Cd 0.01646 0.87069 0.07467 0.0
Cd212 Cd 0.01367 0.86726 0.02773 0.0
O213 O 0.01435 0.8311 0.03403 0.0
O214 O 0.0501 0.87876 0.06703 0.0
O215 O 0.03667 0.87349 0.10367 0.0
C216 C 0.05431 0.87723 0.0895 0.0
C217 C 0.03555 0.88545 0.99739 0.0
C218 C 0.00931 0.82203 0.05406 0.0
C219 C 0.97687 0.89694 0.05325 0.0
O220 O 0.9824 0.88486 0.03503 0.0
O221 O 0.98989 0.89619 0.0717 0.0
O222 O 0.01767 0.87191 0.99286 0.0
O223 O 0.04205 0.8875 0.01924 0.0
O224 O 0.17677 0.41396 0.23787 0.0
Cd225 Cd 0.17401 0.37884 0.22773 0.0
Cd226 Cd 0.22082 0.38126 0.23139 0.0
O227 O 0.2149 0.41742 0.2298 0.0
O228 O 0.14653 0.37694 0.20536 0.0
O229 O 0.18415 0.37188 0.19465 0.0
C230 C 0.16206 0.37384 0.18876 0.0
C231 C 0.25192 0.36248 0.21109 0.0
C232 C 0.19512 0.42686 0.23527 0.0
C233 C 0.19386 0.35209 0.26741 0.0
O234 O 0.21224 0.36426 0.26258 0.0
O235 O 0.1759 0.35271 0.25371 0.0
O236 O 0.25587 0.37627 0.22888 0.0
O237 O 0.23029 0.36048 0.20379 0.0
O238 O 0.68519 0.08146 0.75541 0.0
Cd239 Cd 0.67679 0.11525 0.76735 0.0
Cd240 Cd 0.72379 0.12063 0.76432 0.0
O241 O 0.72363 0.08407 0.7621 0.0
O242 O 0.64703 0.11169 0.78612 0.0
O243 O 0.68178 0.12149 0.80189 0.0
C244 C 0.65961 0.11619 0.80472 0.0
C245 C 0.75303 0.1402 0.78643 0.0
C246 C 0.70557 0.07175 0.75655 0.0
C247 C 0.69291 0.14908 0.73099 0.0
O248 O 0.71314 0.13994 0.73509 0.0
O249 O 0.6751 0.14341 0.74365 0.0
O250 O 0.75796 0.12908 0.7671 0.0
O251 O 0.73142 0.13928 0.79406 0.0
O252 O 0.17379 0.44092 0.01211 0.0
Cd253 Cd 0.13868 0.43471 0.02147 0.0
Cd254 Cd 0.13529 0.48211 0.01272 0.0
O255 O 0.17187 0.47999 0.01297 0.0
O256 O 0.13917 0.40626 0.0425 0.0
O257 O 0.12891 0.44226 0.05477 0.0
C258 C 0.13287 0.42014 0.05959 0.0
C259 C 0.11675 0.51592 0.02854 0.0
C260 C 0.184 0.46104 0.0111 0.0
C261 C 0.10827 0.44809 0.98092 0.0
O262 O 0.11718 0.4686 0.9839 0.0
O263 O 0.11292 0.4314 0.99539 0.0
O264 O 0.12915 0.51674 0.00938 0.0
O265 O 0.11563 0.49587 0.0396 0.0
O266 O 0.81563 0.92791 0.26143 0.0
Cd267 Cd 0.82303 0.89284 0.26945 0.0
Cd268 Cd 0.77644 0.89053 0.27041 0.0
O269 O 0.77842 0.92691 0.27339 0.0
O270 O 0.81879 0.88362 0.30335 0.0
O271 O 0.85355 0.89307 0.28735 0.0
C272 C 0.84121 0.8878 0.30596 0.0
C273 C 0.74878 0.86828 0.29203 0.0
C274 C 0.79639 0.93864 0.26642 0.0
C275 C 0.80236 0.86639 0.23025 0.0
O276 O 0.78341 0.87631 0.23748 0.0
O277 O 0.82136 0.86797 0.24234 0.0
O278 O 0.74236 0.88248 0.27529 0.0
O279 O 0.77104 0.86763 0.29752 0.0
O280 O 0.83473 0.07876 0.01371 0.0
Cd281 Cd 0.8699 0.08169 0.02385 0.0
Cd282 Cd 0.86828 0.03496 0.01677 0.0
O283 O 0.83193 0.03985 0.01676 0.0
O284 O 0.8714 0.10968 0.04544 0.0
O285 O 0.87782 0.07254 0.05708 0.0
C286 C 0.8756 0.09476 0.06234 0.0
C287 C 0.88679 0.00381 0.03719 0.0
C288 C 0.82219 0.05999 0.01357 0.0
C289 C 0.8984 0.06459 0.9838 0.0
O290 O 0.88685 0.04547 0.98707 0.0
O291 O 0.89626 0.0818 0.99822 0.0
O292 O 0.87427 1.00007 0.01841 0.0
O293 O 0.88764 0.02523 0.04529 0.0
O294 O 0.32028 0.58315 0.74092 0.0
Cd295 Cd 0.32351 0.61849 0.73132 0.0
Cd296 Cd 0.277 0.61743 0.74001 0.0
O297 O 0.28125 0.58092 0.73939 0.0
O298 O 0.35175 0.61995 0.70999 0.0
O299 O 0.3149 0.62714 0.69805 0.0
C300 C 0.33715 0.62473 0.69299 0.0
C301 C 0.24644 0.63712 0.71982 0.0
C302 C 0.30136 0.57084 0.74159 0.0
C303 C 0.3078 0.64689 0.77231 0.0
O304 O 0.28842 0.63563 0.76965 0.0
O305 O 0.3245 0.64449 0.75732 0.0
O306 O 0.2423 0.62452 0.73848 0.0
O307 O 0.26787 0.63734 0.71166 0.0
O308 O 0.17912 0.55661 0.48975 0.0
Cd309 Cd 0.14383 0.56096 0.48045 0.0
Cd310 Cd 0.14342 0.51432 0.4878 0.0
O311 O 0.17977 0.51775 0.48552 0.0
O312 O 0.14296 0.5886 0.45845 0.0
O313 O 0.13468 0.55164 0.44751 0.0
C314 C 0.13782 0.57368 0.44184 0.0
C315 C 0.12439 0.48082 0.47215 0.0
C316 C 0.19066 0.53721 0.48886 0.0
C317 C 0.11668 0.54609 0.52194 0.0
O318 O 0.12721 0.52646 0.51827 0.0
O319 O 0.11853 0.56296 0.50707 0.0
O320 O 0.13821 0.47947 0.49028 0.0
O321 O 0.12224 0.50121 0.46188 0.0
O322 O 0.33634 0.42872 0.98877 0.0
Cd323 Cd 0.37096 0.42587 0.97668 0.0
Cd324 Cd 0.37038 0.47248 0.98513 0.0
O325 O 0.33398 0.46771 0.98656 0.0
O326 O 0.37125 0.39888 0.95369 0.0
O327 O 0.3769 0.4365 0.94343 0.0
C328 C 0.3744 0.41455 0.93725 0.0
C329 C 0.38781 0.50406 0.96442 0.0
C330 C 0.32407 0.44767 0.98975 0.0
C331 C 0.40213 0.44173 0.01552 0.0
O332 O 0.39061 0.46106 0.01349 0.0
O333 O 0.39882 0.42494 0.0008 0.0
O334 O 0.37639 0.50739 0.98396 0.0
O335 O 0.3882 0.48282 0.95582 0.0
O336 O 0.73651 0.6779 0.91502 0.0
Cd337 Cd 0.72486 0.67338 0.88044 0.0
Cd338 Cd 0.73199 0.72005 0.87995 0.0
O339 O 0.73264 0.71679 0.91631 0.0
O340 O 0.69026 0.6794 0.87435 0.0
O341 O 0.70549 0.64379 0.88151 0.0
C342 C 0.68703 0.65698 0.87809 0.0
C343 C 0.71185 0.75111 0.86109 0.0
C344 C 0.73658 0.69718 0.92676 0.0
C345 C 0.76432 0.68953 0.8503 0.0
O346 O 0.76155 0.70891 0.86148 0.0
O347 O 0.74961 0.67261 0.85308 0.0
O348 O 0.73091 0.75473 0.87321 0.0
O349 O 0.70331 0.72982 0.86075 0.0
O350 O 0.57832 0.49348 0.1611 0.0
Cd351 Cd 0.58098 0.48203 0.12639 0.0
Cd352 Cd 0.53396 0.48733 0.12901 0.0
O353 O 0.54006 0.48637 0.16499 0.0
O354 O 0.57471 0.44748 0.1209 0.0
O355 O 0.61065 0.46286 0.12582 0.0
C356 C 0.59732 0.44434 0.12361 0.0
C357 C 0.49934 0.47076 0.11279 0.0
C358 C 0.55998 0.49175 0.17412 0.0
C359 C 0.5625 0.52182 0.09927 0.0
O360 O 0.54407 0.51787 0.11164 0.0
O361 O 0.57982 0.50731 0.09964 0.0
O362 O 0.49874 0.48911 0.12637 0.0
O363 O 0.5197 0.46077 0.10931 0.0
O364 O 0.75903 0.319 0.42912 0.0
Cd365 Cd 0.76798 0.3236 0.39373 0.0
Cd366 Cd 0.76427 0.27652 0.39299 0.0
O367 O 0.76578 0.28047 0.42914 0.0
O368 O 0.79087 0.35056 0.39179 0.0
O369 O 0.80052 0.31299 0.38463 0.0
C370 C 0.80696 0.3349 0.38694 0.0
C371 C 0.78268 0.24369 0.37535 0.0
C372 C 0.76122 0.2995 0.44033 0.0
C373 C 0.72815 0.30563 0.36569 0.0
O374 O 0.73338 0.28622 0.37596 0.0
O375 O 0.74136 0.32376 0.3682 0.0
O376 O 0.76425 0.24147 0.38867 0.0
O377 O 0.79151 0.26467 0.37277 0.0
O378 O 0.93979 0.51548 0.67098 0.0
Cd379 Cd 0.93252 0.52458 0.63612 0.0
Cd380 Cd 0.97941 0.52322 0.63336 0.0
O381 O 0.97765 0.52512 0.6697 0.0
O382 O 0.90366 0.54524 0.6365 0.0
O383 O 0.93963 0.55804 0.62668 0.0
C384 C 0.9175 0.56264 0.63081 0.0
C385 C 0.01022 0.54205 0.61268 0.0
C386 C 0.95948 0.51885 0.68149 0.0
C387 C 0.95092 0.48475 0.60883 0.0
O388 O 0.97033 0.49118 0.61833 0.0
O389 O 0.93238 0.4975 0.61104 0.0
O390 O 0.01409 0.5244 0.62666 0.0
O391 O 0.98878 0.55007 0.61131 0.0
O392 O 0.73979 0.33306 0.5923 0.0
Cd393 Cd 0.72795 0.33448 0.62701 0.0
Cd394 Cd 0.73712 0.28782 0.62534 0.0
O395 O 0.73712 0.29416 0.5894 0.0
O396 O 0.70394 0.36043 0.62797 0.0
O397 O 0.69513 0.32228 0.63271 0.0
C398 C 0.68809 0.34404 0.63049 0.0
C399 C 0.72245 0.25153 0.63963 0.0
C400 C 0.74028 0.31431 0.57976 0.0
C401 C 0.76771 0.31913 0.65668 0.0
O402 O 0.76552 0.30001 0.64493 0.0
O403 O 0.75254 0.33571 0.65439 0.0
O404 O 0.74173 0.25284 0.62745 0.0
O405 O 0.71062 0.27091 0.64292 0.0
O406 O 0.93241 0.4876 0.83255 0.0
Cd407 Cd 0.93092 0.4778 0.86788 0.0
Cd408 Cd 0.97755 0.48552 0.86442 0.0
O409 O 0.9712 0.48428 0.82853 0.0
O410 O 0.90352 0.45557 0.87043 0.0
O411 O 0.94104 0.44467 0.87586 0.0
C412 C 0.91887 0.43891 0.87414 0.0
C413 C 0.01283 0.4704 0.88065 0.0
C414 C 0.95079 0.48755 0.81946 0.0
C415 C 0.94766 0.51946 0.89364 0.0
O416 O 0.96642 0.5157 0.88171 0.0
O417 O 0.93072 0.50453 0.89324 0.0
O418 O 0.01268 0.48865 0.86689 0.0
O419 O 0.9929 0.45963 0.88419 0.0
O420 O 0.75913 0.69606 0.07654 0.0
Cd421 Cd 0.76769 0.6904 0.11184 0.0
Cd422 Cd 0.76446 0.7375 0.11282 0.0
O423 O 0.76561 0.73464 0.07642 0.0
O424 O 0.78852 0.66163 0.11309 0.0
O425 O 0.80092 0.69807 0.12141 0.0
C426 C 0.80571 0.67581 0.11854 0.0
C427 C 0.78579 0.76664 0.13336 0.0
C428 C 0.76105 0.71556 0.06529 0.0
C429 C 0.72761 0.70905 0.13948 0.0
O430 O 0.73311 0.72845 0.12936 0.0
O431 O 0.74072 0.6908 0.13703 0.0
O432 O 0.76776 0.77195 0.12031 0.0
O433 O 0.79267 0.74477 0.1337 0.0
O434 O 0.56782 0.51535 0.32359 0.0
Cd435 Cd 0.57395 0.5233 0.35895 0.0
Cd436 Cd 0.5267 0.52031 0.3609 0.0
O437 O 0.52933 0.52225 0.32463 0.0
O438 O 0.60258 0.54404 0.36019 0.0
O439 O 0.56625 0.55622 0.36963 0.0
C440 C 0.58849 0.56104 0.36646 0.0
C441 C 0.49417 0.53815 0.37981 0.0
C442 C 0.54804 0.51765 0.31293 0.0
C443 C 0.5562 0.48275 0.38591 0.0
O444 O 0.53653 0.48876 0.37661 0.0
O445 O 0.57447 0.49575 0.38336 0.0
O446 O 0.49178 0.52006 0.36611 0.0
O447 O 0.51518 0.54702 0.38211 0.0
O448 O 0.91838 0.74045 0.68295 0.0
Cd449 Cd 0.88296 0.73089 0.68076 0.0
Cd450 Cd 0.88574 0.73707 0.72721 0.0
O451 O 0.92185 0.73552 0.72155 0.0
O452 O 0.88063 0.70883 0.65315 0.0
O453 O 0.87511 0.69764 0.69048 0.0
C454 C 0.87704 0.69202 0.66834 0.0
C455 C 0.8679 0.71941 0.76038 0.0
C456 C 0.93126 0.73946 0.70145 0.0
C457 C 0.85711 0.7723 0.69856 0.0
O458 O 0.86901 0.76799 0.71721 0.0
O459 O 0.8575 0.75776 0.68129 0.0
O460 O 0.88183 0.73744 0.7623 0.0
O461 O 0.86509 0.71034 0.73955 0.0
O462 O 0.50511 0.67434 0.93283 0.0
Cd463 Cd 0.51406 0.63983 0.92374 0.0
Cd464 Cd 0.51801 0.63562 0.9701 0.0
O465 O 0.51892 0.6721 0.96927 0.0
O466 O 0.53107 0.64169 0.89275 0.0
O467 O 0.54846 0.63164 0.92664 0.0
C468 C 0.55023 0.6366 0.90431 0.0
C469 C 0.54173 0.61443 0.99689 0.0
C470 C 0.5106 0.68435 0.95227 0.0
C471 C 0.47747 0.61041 0.94571 0.0
O472 O 0.48556 0.61974 0.96456 0.0
O473 O 0.48805 0.61367 0.92604 0.0
O474 O 0.52443 0.62769 0.00384 0.0
O475 O 0.5465 0.61406 0.97451 0.0
O476 O 0.5834 0.26224 0.18706 0.0
Cd477 Cd 0.61723 0.27342 0.17794 0.0
Cd478 Cd 0.62259 0.27093 0.22593 0.0
O479 O 0.58607 0.26918 0.2254 0.0
O480 O 0.61301 0.28962 0.1468 0.0
O481 O 0.62386 0.30834 0.17966 0.0
C482 C 0.61793 0.30925 0.15752 0.0
C483 C 0.6415 0.29137 0.25684 0.0
C484 C 0.57373 0.26364 0.20739 0.0
C485 C 0.65027 0.23662 0.19494 0.0
O486 O 0.64147 0.24145 0.21512 0.0
O487 O 0.64481 0.24899 0.17687 0.0
O488 O 0.63005 0.27192 0.26039 0.0
O489 O 0.64143 0.30005 0.23563 0.0
O490 O 0.98842 0.32748 0.4398 0.0
Cd491 Cd 0.9784 0.36222 0.43277 0.0
Cd492 Cd 0.98477 0.36617 0.47941 0.0
O493 O 0.98494 0.32952 0.47866 0.0
O494 O 0.95589 0.36138 0.40537 0.0
O495 O 0.9455 0.37166 0.4419 0.0
C496 C 0.93949 0.36752 0.42019 0.0
C497 C 0.96458 0.38754 0.50886 0.0
C498 C 0.98844 0.31737 0.45998 0.0
C499 C 0.01857 0.39229 0.44692 0.0
O500 O 0.01474 0.38334 0.46726 0.0
O501 O 0.00445 0.38812 0.42982 0.0
O502 O 0.9834 0.37537 0.51355 0.0
O503 O 0.95634 0.38659 0.48754 0.0
O504 O 0.92101 0.25924 0.82154 0.0
Cd505 Cd 0.88593 0.26983 0.82487 0.0
Cd506 Cd 0.88761 0.2661 0.77802 0.0
O507 O 0.92382 0.26546 0.78306 0.0
O508 O 0.88451 0.29162 0.85277 0.0
O509 O 0.87848 0.30325 0.81562 0.0
C510 C 0.88075 0.30859 0.83779 0.0
C511 C 0.87056 0.2858 0.74556 0.0
C512 C 0.93349 0.26031 0.80277 0.0
C513 C 0.85819 0.23052 0.80564 0.0
O514 O 0.8696 0.23559 0.78688 0.0
O515 O 0.8597 0.24384 0.8238 0.0
O516 O 0.88361 0.26719 0.74296 0.0
O517 O 0.86815 0.2942 0.76671 0.0
O518 O 0.98566 0.67244 0.06595 0.0
Cd519 Cd 0.97499 0.63799 0.07345 0.0
Cd520 Cd 0.9796 0.63345 0.02689 0.0
O521 O 0.97997 0.67002 0.02739 0.0
O522 O 0.95259 0.63957 0.10091 0.0
O523 O 0.94177 0.62967 0.0644 0.0
C524 C 0.93594 0.63415 0.0861 0.0
C525 C 0.95929 0.61264 0.99722 0.0
C526 C 0.98466 0.68233 0.04568 0.0
C527 C 0.01401 0.60692 0.05832 0.0
O528 O 0.00977 0.61605 0.03815 0.0
O529 O 1.00043 0.61129 0.07582 0.0
O530 O 0.97805 0.62491 0.99267 0.0
O531 O 0.95118 0.61311 0.01861 0.0
O532 O 0.5875 0.73945 0.32396 0.0
Cd533 Cd 0.62309 0.73059 0.32576 0.0
Cd534 Cd 0.61955 0.73647 0.27929 0.0
O535 O 0.58352 0.73394 0.2855 0.0
O536 O 0.62628 0.70805 0.35293 0.0
O537 O 0.63146 0.69785 0.31527 0.0
C538 C 0.62999 0.6917 0.33729 0.0
C539 C 0.63834 0.71758 0.24737 0.0
C540 C 0.57433 0.73782 0.30572 0.0
C541 C 0.64792 0.77223 0.30747 0.0
O542 O 0.6358 0.76775 0.289 0.0
O543 O 0.64804 0.75773 0.32478 0.0
O544 O 0.62428 0.73539 0.24421 0.0
O545 O 0.64067 0.7095 0.26867 0.0
O546 O 0.51416 0.33169 0.55883 0.0
Cd547 Cd 0.52226 0.36688 0.5658 0.0
Cd548 Cd 0.52172 0.36938 0.51863 0.0
O549 O 0.52275 0.33293 0.52074 0.0
O550 O 0.5415 0.36733 0.5955 0.0
O551 O 0.55573 0.37701 0.56006 0.0
C552 C 0.55933 0.37345 0.58243 0.0
C553 C 0.543 0.38955 0.48916 0.0
C554 C 0.51719 0.32113 0.53912 0.0
C555 C 0.4833 0.39516 0.54603 0.0
O556 O 0.49002 0.38581 0.52666 0.0
O557 O 0.49525 0.39199 0.56491 0.0
O558 O 0.52502 0.37635 0.48419 0.0
O559 O 0.54987 0.39037 0.51099 0.0
O560 O 0.67956 0.91837 0.73729 0.0
Cd561 Cd 0.67701 0.88251 0.7297 0.0
Cd562 Cd 0.724 0.88589 0.73361 0.0
O563 O 0.71808 0.92206 0.73137 0.0
O564 O 0.64806 0.87881 0.70952 0.0
O565 O 0.6848 0.87286 0.69659 0.0
C566 C 0.66233 0.87414 0.69219 0.0
C567 C 0.75354 0.86594 0.71218 0.0
C568 C 0.69788 0.93142 0.7353 0.0
C569 C 0.6976 0.85758 0.77064 0.0
O570 O 0.71604 0.86945 0.76529 0.0
O571 O 0.67947 0.85803 0.75717 0.0
O572 O 0.75876 0.88 0.72945 0.0
O573 O 0.73152 0.8644 0.70601 0.0
O574 O 0.18745 0.57673 0.25916 0.0
Cd575 Cd 0.18191 0.61091 0.27155 0.0
Cd576 Cd 0.2289 0.6148 0.26258 0.0
O577 O 0.22651 0.57844 0.26012 0.0
O578 O 0.15546 0.60889 0.29491 0.0
O579 O 0.19262 0.61782 0.3046 0.0
C580 C 0.17102 0.6135 0.3111 0.0
C581 C 0.26374 0.63111 0.27845 0.0
C582 C 0.20755 0.56657 0.25735 0.0
C583 C 0.19436 0.64438 0.23348 0.0
O584 O 0.21489 0.63522 0.23559 0.0
O585 O 0.17781 0.63872 0.24775 0.0
O586 O 0.26349 0.62033 0.25835 0.0
O587 O 0.24413 0.63197 0.2903 0.0
O588 O 0.66358 0.92241 0.51335 0.0
Cd589 Cd 0.62836 0.91968 0.52348 0.0
Cd590 Cd 0.62998 0.96647 0.51648 0.0
O591 O 0.66636 0.9613 0.51663 0.0
O592 O 0.62654 0.89198 0.54558 0.0
O593 O 0.62066 0.92934 0.55663 0.0
C594 C 0.62261 0.90718 0.56227 0.0
C595 C 0.61168 0.99752 0.53723 0.0
C596 C 0.67613 0.94118 0.5134 0.0
C597 C 0.59961 0.93723 0.4835 0.0
O598 O 0.6112 0.95632 0.48675 0.0
O599 O 0.60192 0.91993 0.49785 0.0
O600 O 0.62432 0.00141 0.51856 0.0
O601 O 0.61054 0.976 0.54503 0.0
O602 O 0.3105 0.42037 0.75996 0.0
Cd603 Cd 0.31808 0.38555 0.76931 0.0
Cd604 Cd 0.27157 0.38105 0.76259 0.0
O605 O 0.27165 0.41771 0.76356 0.0
O606 O 0.34647 0.38696 0.79045 0.0
O607 O 0.31068 0.3759 0.80262 0.0
C608 C 0.3326 0.3806 0.80754 0.0
C609 C 0.24261 0.35867 0.78231 0.0
C610 C 0.29016 0.43023 0.76039 0.0
C611 C 0.30439 0.35566 0.72877 0.0
O612 O 0.28395 0.3646 0.73232 0.0
O613 O 0.32128 0.35983 0.74315 0.0
O614 O 0.23761 0.37123 0.76385 0.0
O615 O 0.26398 0.35983 0.79052 0.0
O616 O 0.34055 0.578 0.51227 0.0
Cd617 Cd 0.37527 0.58231 0.52353 0.0
Cd618 Cd 0.37644 0.53575 0.51584 0.0
O619 O 0.34001 0.539 0.51526 0.0
O620 O 0.37494 0.60919 0.54651 0.0
O621 O 0.38261 0.57181 0.55652 0.0
C622 C 0.37921 0.59362 0.56281 0.0
C623 C 0.3948 0.5035 0.53464 0.0
C624 C 0.32917 0.55851 0.51185 0.0
C625 C 0.40549 0.5677 0.48393 0.0
O626 O 0.39502 0.54791 0.48678 0.0
O627 O 0.40221 0.58454 0.49857 0.0
O628 O 0.38285 0.50096 0.51533 0.0
O629 O 0.39539 0.52437 0.5441 0.0
O630 O 0.82709 0.09069 0.24224 0.0
Cd631 Cd 0.82895 0.12588 0.23188 0.0
Cd632 Cd 0.78245 0.12406 0.24164 0.0
O633 O 0.78807 0.08795 0.24154 0.0
O634 O 0.85585 0.12761 0.20911 0.0
O635 O 0.81819 0.13364 0.19903 0.0
C636 C 0.84021 0.13156 0.19283 0.0
C637 C 0.74722 0.13983 0.22604 0.0
C638 C 0.80833 0.07821 0.24354 0.0
C639 C 0.81416 0.15445 0.27264 0.0
O640 O 0.79481 0.14309 0.27027 0.0
O641 O 0.83065 0.15218 0.25742 0.0
O642 O 0.74746 0.1274 0.24521 0.0
O643 O 0.76705 0.14243 0.21482 0.0
O644 O 0.67253 0.0694 0.99042 0.0
Cd645 Cd 0.63842 0.07732 0.97916 0.0
Cd646 Cd 0.63406 0.03063 0.98243 0.0
O647 O 0.67068 0.03111 0.98282 0.0
O648 O 0.63162 0.07221 0.94475 0.0
O649 O 0.64129 0.10709 0.96029 0.0
C650 C 0.63672 0.0944 0.94178 0.0
C651 C 0.61306 0.00169 0.9613 0.0
C652 C 0.6827 0.04932 0.98852 0.0
C653 C 0.60685 0.06099 0.01705 0.0
O654 O 0.61651 0.04104 0.01278 0.0
O655 O 0.61106 0.07873 0.00375 0.0
O656 O 0.62539 0.9965 0.97984 0.0
O657 O 0.61367 0.02335 0.95379 0.0
O658 O 0.8263 0.93219 0.49199 0.0
Cd659 Cd 0.86055 0.92462 0.48071 0.0
Cd660 Cd 0.86503 0.97156 0.4861 0.0
O661 O 0.82841 0.97095 0.48728 0.0
O662 O 0.85768 0.89498 0.46164 0.0
O663 O 0.86759 0.92989 0.44631 0.0
C664 C 0.8625 0.90772 0.44321 0.0
C665 C 0.88525 0.00107 0.46494 0.0
C666 C 0.81626 0.95244 0.49157 0.0
C667 C 0.89295 0.9397 0.51886 0.0
O668 O 0.88357 0.95996 0.51548 0.0
O669 O 0.88803 0.92246 0.50517 0.0
O670 O 0.87378 0.00574 0.48414 0.0
O671 O 0.88427 0.97962 0.45689 0.0
H672 H 0.2581 0.17013 0.52889 0.0
H673 H 0.26362 0.24662 0.52935 0.0
H674 H 0.25482 0.24779 0.48702 0.0
H675 H 0.24506 0.22723 0.44995 0.0
H676 H 0.23995 0.15073 0.44935 0.0
H677 H 0.249 0.14951 0.49165 0.0
C678 C 0.25747 0.18707 0.51975 0.0
C679 C 0.2615 0.20825 0.53237 0.0
C680 C 0.25235 0.18765 0.49537 0.0
C681 C 0.26061 0.23002 0.52015 0.0
C682 C 0.25552 0.23073 0.49591 0.0
C683 C 0.24585 0.21028 0.45906 0.0
C684 C 0.24173 0.18912 0.44645 0.0
C685 C 0.25124 0.20967 0.48337 0.0
C686 C 0.24303 0.16731 0.45856 0.0
C687 C 0.24821 0.16658 0.48278 0.0
H688 H 0.0173 0.98944 0.7084 0.0
H689 H 0.09372 0.98591 0.70329 0.0
H690 H 0.09711 0.99266 0.74595 0.0
H691 H 0.07832 0.99977 0.78472 0.0
H692 H 0.00185 0.00418 0.78925 0.0
H693 H 0.99862 0.99694 0.74682 0.0
C694 C 0.03471 0.99005 0.7166 0.0
C695 C 0.05521 0.9871 0.70265 0.0
C696 C 0.03655 0.99418 0.74106 0.0
C697 C 0.07763 0.98814 0.71359 0.0
C698 C 0.0796 0.992 0.73799 0.0
C699 C 0.06095 0.99914 0.77643 0.0
C700 C 0.04038 0.00251 0.79022 0.0
C701 C 0.05917 0.99509 0.7519 0.0
C702 C 0.01802 0.00173 0.77912 0.0
C703 C 0.01611 0.99753 0.75482 0.0
H704 H 0.25484 0.83132 0.97189 0.0
H705 H 0.26216 0.75498 0.96975 0.0
H706 H 0.25431 0.75275 0.01218 0.0
H707 H 0.24476 0.77224 0.04977 0.0
H708 H 0.23779 0.84857 0.05228 0.0
H709 H 0.24608 0.85095 0.00983 0.0
C710 C 0.25479 0.81419 0.9807 0.0
C711 C 0.25904 0.79336 0.96756 0.0
C712 C 0.25024 0.81299 0.00517 0.0
C713 C 0.25896 0.77133 0.97934 0.0
C714 C 0.25442 0.77 0.00364 0.0
C715 C 0.24501 0.78942 0.04106 0.0
C716 C 0.24055 0.81018 0.05422 0.0
C717 C 0.24991 0.79069 0.0167 0.0
C718 C 0.24114 0.83229 0.04262 0.0
C719 C 0.24588 0.83368 0.01832 0.0
H720 H 0.48158 0.99491 0.29051 0.0
H721 H 0.40507 0.99439 0.29573 0.0
H722 H 0.40188 0.00106 0.25308 0.0
H723 H 0.42078 0.00707 0.21425 0.0
H724 H 0.49734 0.00777 0.2093 0.0
H725 H 0.50044 1.00101 0.25185 0.0
C726 C 0.46419 0.99623 0.28236 0.0
C727 C 0.44362 0.99414 0.29637 0.0
C728 C 0.46245 1.00011 0.25782 0.0
C729 C 0.42123 0.99595 0.28543 0.0
C730 C 0.41937 0.99976 0.261 0.0
C731 C 0.43815 0.00574 0.22245 0.0
C732 C 0.45877 0.00793 0.2085 0.0
C733 C 0.43986 0.00188 0.24702 0.0
C734 C 0.48113 0.00618 0.21952 0.0
C735 C 0.48295 0.00229 0.2439 0.0
H736 H 0.54124 0.25646 0.17239 0.0
H737 H 0.54825 0.26012 0.24854 0.0
H738 H 0.50582 0.25252 0.25305 0.0
H739 H 0.46658 0.24532 0.23539 0.0
H740 H 0.45956 0.24256 0.1592 0.0
H741 H 0.50211 0.24926 0.15477 0.0
C742 C 0.53353 0.25554 0.19 0.0
C743 C 0.54797 0.25886 0.21008 0.0
C744 C 0.50907 0.25133 0.19248 0.0
C745 C 0.53759 0.25769 0.23274 0.0
C746 C 0.5133 0.25332 0.23536 0.0
C747 C 0.47436 0.24609 0.21781 0.0
C748 C 0.45984 0.24343 0.19768 0.0
C749 C 0.49886 0.25017 0.21535 0.0
C750 C 0.47025 0.24461 0.17503 0.0
C751 C 0.49462 0.24843 0.17246 0.0
H752 H 0.99443 0.28594 0.42379 0.0
H753 H 0.99287 0.29042 0.50019 0.0
H754 H 1.00103 0.24792 0.50308 0.0
H755 H 0.0084 0.20935 0.48393 0.0
H756 H 0.00922 0.20499 0.4075 0.0
H757 H 0.00169 0.24754 0.4047 0.0
C758 C 0.99586 0.27767 0.4411 0.0
C759 C 0.99302 0.29145 0.46172 0.0
C760 C 1.0005 0.25319 0.44266 0.0
C761 C 0.99492 0.28031 0.48399 0.0
C762 C 0.99963 0.25598 0.48568 0.0
C763 C 0.00706 0.21772 0.46666 0.0
C764 C 0.00942 0.20392 0.44597 0.0
C765 C 0.00247 0.24223 0.46513 0.0
C766 C 0.00745 0.2151 0.42374 0.0
C767 C 0.00313 0.23947 0.4221 0.0
H768 H 0.03931 0.75655 0.67667 0.0
H769 H 0.04284 0.76675 0.75247 0.0
H770 H 1.00039 0.75882 0.75576 0.0
H771 H 0.96225 0.74884 0.73724 0.0
H772 H 0.95847 0.73961 0.66135 0.0
H773 H 1.00103 0.7472 0.65806 0.0
C774 C 0.03082 0.75707 0.69392 0.0
C775 C 0.04432 0.76221 0.71427 0.0
C776 C 0.00634 0.75258 0.69571 0.0
C777 C 0.03293 0.7629 0.73647 0.0
C778 C 0.00863 0.7583 0.7384 0.0
C779 C 0.97074 0.74838 0.71998 0.0
C780 C 0.95718 0.74356 0.69959 0.0
C781 C 0.99518 0.75305 0.71816 0.0
C782 C 0.96846 0.74328 0.67735 0.0
C783 C 0.99282 0.74763 0.67543 0.0
H784 H 0.49646 0.79147 0.9822 0.0
H785 H 0.48486 0.79887 0.9069 0.0
H786 H 0.4911 0.7563 0.90155 0.0
H787 H 0.5 0.71698 0.9182 0.0
H788 H 0.51282 0.70986 0.99336 0.0
H789 H 0.50601 0.7523 0.99875 0.0
C790 C 0.4952 0.78376 0.96463 0.0
C791 C 0.49013 0.79834 0.94501 0.0
C792 C 0.4991 0.75932 0.96162 0.0
C793 C 0.48879 0.78808 0.92232 0.0
C794 C 0.49233 0.76372 0.91923 0.0
C795 C 0.50129 0.72469 0.93577 0.0
C796 C 0.50687 0.71021 0.95533 0.0
C797 C 0.49754 0.74918 0.93875 0.0
C798 C 0.50861 0.72057 0.97796 0.0
C799 C 0.50467 0.74485 0.98109 0.0
H800 H 0.54166 0.74206 0.27033 0.0
H801 H 0.54843 0.74078 0.34659 0.0
H802 H 0.50573 0.74686 0.35072 0.0
H803 H 0.46649 0.75302 0.33277 0.0
H804 H 0.45987 0.75501 0.25651 0.0
H805 H 0.50244 0.74821 0.25239 0.0
C806 C 0.53381 0.74301 0.28787 0.0
C807 C 0.54829 0.74095 0.3081 0.0
C808 C 0.50924 0.74672 0.29016 0.0
C809 C 0.53776 0.74236 0.33068 0.0
C810 C 0.51331 0.74583 0.33309 0.0
C811 C 0.47433 0.75194 0.31524 0.0
C812 C 0.45993 0.75454 0.29501 0.0
C813 C 0.49889 0.74813 0.31296 0.0
C814 C 0.47047 0.75314 0.27243 0.0
C815 C 0.49485 0.74921 0.27003 0.0
H816 H 0.50986 0.28975 0.57521 0.0
H817 H 0.51639 0.29399 0.49902 0.0
H818 H 0.50933 0.25139 0.49583 0.0
H819 H 0.50099 0.213 0.51453 0.0
H820 H 0.49528 0.20845 0.59073 0.0
H821 H 0.50229 0.25112 0.59399 0.0
C822 C 0.50976 0.28137 0.5579 0.0
C823 C 0.5136 0.29512 0.5374 0.0
C824 C 0.50578 0.25681 0.55616 0.0
C825 C 0.51353 0.28389 0.51512 0.0
C826 C 0.50944 0.25951 0.51325 0.0
C827 C 0.50121 0.22132 0.53186 0.0
C828 C 0.49752 0.20753 0.55234 0.0
C829 C 0.50546 0.24582 0.53364 0.0
C830 C 0.49808 0.21862 0.57467 0.0
C831 C 0.50208 0.24303 0.57656 0.0
H832 H 0.96282 0.24989 0.76588 0.0
H833 H 0.96179 0.25776 0.84201 0.0
H834 H 0.00392 0.2476 0.84386 0.0
H835 H 0.04105 0.23658 0.82392 0.0
H836 H 0.04187 0.2278 0.74786 0.0
H837 H 0.99978 0.23803 0.74601 0.0
C838 C 0.97183 0.24951 0.78288 0.0
C839 C 0.95918 0.25471 0.80376 0.0
C840 C 0.996 0.24334 0.78386 0.0
C841 C 0.97109 0.25385 0.82566 0.0
C842 C 0.99519 0.24802 0.82674 0.0
C843 C 0.03204 0.23683 0.80692 0.0
C844 C 0.04468 0.23146 0.78607 0.0
C845 C 0.00781 0.2427 0.80597 0.0
C846 C 0.03262 0.23179 0.76422 0.0
C847 C 0.00854 0.23773 0.76312 0.0
H848 H 0.99101 0.71467 0.08102 0.0
H849 H 0.98874 0.70812 0.00478 0.0
H850 H 0.99671 0.7505 0.00063 0.0
H851 H 0.00411 0.78956 0.01858 0.0
H852 H 0.00551 0.79617 0.09484 0.0
H853 H 0.99819 0.75369 0.09895 0.0
C854 C 0.99227 0.72248 0.06348 0.0
C855 C 0.98928 0.70816 0.04327 0.0
C856 C 0.99675 0.74692 0.06118 0.0
C857 C 0.9909 0.71867 0.02068 0.0
C858 C 0.99551 0.74293 0.01826 0.0
C859 C 0.00291 0.7817 0.0361 0.0
C860 C 0.00539 0.79609 0.05635 0.0
C861 C 0.99845 0.75724 0.03839 0.0
C862 C 0.00362 0.78558 0.07892 0.0
C863 C 0.99944 0.76125 0.08132 0.0
H864 H 0.23122 0.45901 0.23613 0.0
H865 H 0.15504 0.4532 0.24289 0.0
H866 H 0.15211 0.49585 0.24985 0.0
H867 H 0.17117 0.53476 0.25465 0.0
H868 H 0.24743 0.54037 0.24854 0.0
H869 H 0.25023 0.4979 0.2407 0.0
C870 C 0.21395 0.46706 0.23905 0.0
C871 C 0.19341 0.45286 0.23899 0.0
C872 C 0.21238 0.4916 0.24321 0.0
C873 C 0.17119 0.46365 0.24288 0.0
C874 C 0.16947 0.48807 0.24686 0.0
C875 C 0.18841 0.52673 0.25153 0.0
C876 C 0.20903 0.5408 0.25221 0.0
C877 C 0.18995 0.50221 0.24716 0.0
C878 C 0.23123 0.53001 0.24819 0.0
C879 C 0.23288 0.50569 0.24368 0.0
H880 H 0.67045 0.03929 0.74947 0.0
H881 H 0.74675 0.04613 0.75297 0.0
H882 H 0.75116 0.00358 0.74597 0.0
H883 H 0.73336 0.96418 0.73969 0.0
H884 H 0.65701 0.95742 0.73718 0.0
H885 H 0.65272 1.00012 0.74288 0.0
C886 C 0.68807 0.03152 0.74862 0.0
C887 C 0.70822 0.04596 0.75177 0.0
C888 C 0.69051 0.00699 0.74479 0.0
C889 C 0.7309 0.03549 0.75068 0.0
C890 C 0.73346 0.01112 0.74666 0.0
C891 C 0.71578 0.97205 0.74027 0.0
C892 C 0.69556 0.95753 0.73803 0.0
C893 C 0.71339 0.99667 0.7438 0.0
C894 C 0.67291 0.96809 0.73894 0.0
C895 C 0.67041 0.99254 0.74219 0.0
H896 H 0.21566 0.42447 0.00768 0.0
H897 H 0.21114 0.50102 0.00637 0.0
H898 H 0.25389 0.50364 0.99989 0.0
H899 H 0.29258 0.4843 0.99418 0.0
H900 H 0.29709 0.40774 0.99559 0.0
H901 H 0.25441 0.40514 0.00246 0.0
C902 C 0.22399 0.44174 0.006 0.0
C903 C 0.21009 0.46249 0.00748 0.0
C904 C 0.24864 0.44317 0.00227 0.0
C905 C 0.22131 0.48472 0.0053 0.0
C906 C 0.2458 0.48626 0.00158 0.0
C907 C 0.28427 0.46703 0.99601 0.0
C908 C 0.29812 0.44627 0.99432 0.0
C909 C 0.25964 0.46561 0.99997 0.0
C910 C 0.28695 0.42405 0.9968 0.0
C911 C 0.26249 0.42252 0.00072 0.0
H912 H 0.77258 0.04758 0.25439 0.0
H913 H 0.84815 0.0505 0.24165 0.0
H914 H 0.85111 0.00769 0.24783 0.0
H915 H 0.83226 0.96941 0.25646 0.0
H916 H 0.75679 0.96658 0.26988 0.0
H917 H 0.75386 0.00941 0.2639 0.0
C918 C 0.78971 0.03887 0.25293 0.0
C919 C 0.81009 0.05226 0.24747 0.0
C920 C 0.79133 0.01427 0.25666 0.0
C921 C 0.83216 0.04066 0.24584 0.0
C922 C 0.83388 0.01617 0.24935 0.0
C923 C 0.81515 0.97814 0.25811 0.0
C924 C 0.79477 0.96474 0.26354 0.0
C925 C 0.81358 0.00279 0.25472 0.0
C926 C 0.77279 0.97642 0.26573 0.0
C927 C 0.77107 1.00093 0.26227 0.0
H928 H 0.71415 0.08501 0.99681 0.0
H929 H 0.70951 0.00876 0.99032 0.0
H930 H 0.75209 0.00526 0.99784 0.0
H931 H 0.79073 0.02388 0.0061 0.0
H932 H 0.7952 0.10022 0.01186 0.0
H933 H 0.75262 0.10356 0.00483 0.0
C934 C 0.7224 0.0676 0.99707 0.0
C935 C 0.70858 0.04719 0.99303 0.0
C936 C 0.74691 0.06571 0.00128 0.0
C937 C 0.71967 0.02479 0.99334 0.0
C938 C 0.74405 0.02276 0.99767 0.0
C939 C 0.7824 0.04125 0.00588 0.0
C940 C 0.79622 0.06175 0.00953 0.0
C941 C 0.75785 0.0431 0.00165 0.0
C942 C 0.78507 0.08412 0.00906 0.0
C943 C 0.76068 0.08608 0.00506 0.0
H944 H 0.32602 0.4622 0.75517 0.0
H945 H 0.24958 0.45705 0.75819 0.0
H946 H 0.24622 0.49994 0.75255 0.0
H947 H 0.26501 0.53902 0.74672 0.0
H948 H 0.34153 0.5438 0.74402 0.0
H949 H 0.34472 0.50102 0.74955 0.0
C950 C 0.3086 0.4704 0.75459 0.0
C951 C 0.2881 0.45633 0.75709 0.0
C952 C 0.30677 0.49509 0.75139 0.0
C953 C 0.26569 0.46739 0.75634 0.0
C954 C 0.26373 0.49195 0.75309 0.0
C955 C 0.28239 0.53072 0.74732 0.0
C956 C 0.30298 0.54472 0.74494 0.0
C957 C 0.28416 0.50599 0.75058 0.0
C958 C 0.32535 0.53357 0.74582 0.0
C959 C 0.32722 0.50905 0.74898 0.0
H960 H 0.30035 0.52027 0.50523 0.0
H961 H 0.29963 0.59691 0.50824 0.0
H962 H 0.25689 0.59706 0.5011 0.0
H963 H 0.21965 0.5755 0.49441 0.0
H964 H 0.22043 0.49887 0.49108 0.0
H965 H 0.26323 0.49874 0.49786 0.0
C966 C 0.29087 0.53703 0.50435 0.0
C967 C 0.30323 0.55853 0.50735 0.0
C968 C 0.26629 0.53702 0.50015 0.0
C969 C 0.29062 0.58007 0.50601 0.0
C970 C 0.26614 0.58019 0.50193 0.0
C971 C 0.22916 0.55875 0.49513 0.0
C972 C 0.21677 0.53724 0.49229 0.0
C973 C 0.25379 0.55877 0.49903 0.0
C974 C 0.22946 0.51572 0.4932 0.0
C975 C 0.25396 0.51561 0.49711 0.0
H976 H 0.75448 0.67796 0.03566 0.0
H977 H 0.75935 0.75449 0.03628 0.0
H978 H 0.75217 0.75556 0.99362 0.0
H979 H 0.74404 0.73485 0.95617 0.0
H980 H 0.73974 0.65828 0.95556 0.0
H981 H 0.74715 0.65724 0.99815 0.0
C982 C 0.75401 0.6949 0.0265 0.0
C983 C 0.7574 0.71611 0.03925 0.0
C984 C 0.74992 0.69541 0.00193 0.0
C985 C 0.75682 0.73787 0.02698 0.0
C986 C 0.75267 0.73852 0.00255 0.0
C987 C 0.7447 0.71792 0.96534 0.0
C988 C 0.74126 0.69669 0.95263 0.0
C989 C 0.74911 0.71741 0.98986 0.0
C990 C 0.74233 0.67492 0.96483 0.0
C991 C 0.74655 0.67428 0.98923 0.0
H992 H 0.58442 0.51071 0.28175 0.0
H993 H 0.508 0.51613 0.28569 0.0
H994 H 0.50498 0.5083 0.24331 0.0
H995 H 0.52387 0.49941 0.20519 0.0
H996 H 0.6003 0.49483 0.20089 0.0
H997 H 0.60341 0.50277 0.24334 0.0
C998 C 0.56711 0.51025 0.27335 0.0
C999 C 0.54649 0.51395 0.28696 0.0
C1000 C 0.56546 0.50579 0.2489 0.0
C1001 C 0.5242 0.51337 0.2757 0.0
C1002 C 0.52242 0.50883 0.25144 0.0
C1003 C 0.54122 0.50007 0.21354 0.0
C1004 C 0.5618 0.49641 0.19989 0.0
C1005 C 0.54291 0.50489 0.23789 0.0
C1006 C 0.58415 0.49758 0.21097 0.0
C1007 C 0.58596 0.50212 0.23525 0.0
H1008 H 0.75499 0.3367 0.47083 0.0
H1009 H 0.76035 0.26019 0.46854 0.0
H1010 H 0.75447 0.25817 0.51124 0.0
H1011 H 0.74741 0.27783 0.54916 0.0
H1012 H 0.74246 0.35429 0.55209 0.0
H1013 H 0.74861 0.35655 0.50924 0.0
C1014 C 0.75488 0.31959 0.47967 0.0
C1015 C 0.75806 0.29865 0.46641 0.0
C1016 C 0.75155 0.3185 0.50436 0.0
C1017 C 0.75797 0.27663 0.47822 0.0
C1018 C 0.75458 0.27542 0.50268 0.0
C1019 C 0.74766 0.29502 0.54048 0.0
C1020 C 0.7444 0.31584 0.55386 0.0
C1021 C 0.75128 0.29621 0.5159 0.0
C1022 C 0.74494 0.33796 0.54225 0.0
C1023 C 0.74842 0.33927 0.51773 0.0
H1024 H 0.9242 0.50716 0.71245 0.0
H1025 H 0.99968 0.52022 0.70857 0.0
H1026 H 0.00368 0.51108 0.75064 0.0
H1027 H 0.98591 0.49914 0.78849 0.0
H1028 H 0.91034 0.48691 0.7927 0.0
H1029 H 0.9063 0.49583 0.75051 0.0
C1030 C 0.94152 0.50808 0.72079 0.0
C1031 C 0.96159 0.51435 0.7073 0.0
C1032 C 0.94373 0.50282 0.74504 0.0
C1033 C 0.9839 0.51549 0.71848 0.0
C1034 C 0.98624 0.5102 0.74256 0.0
C1035 C 0.96857 0.49829 0.78017 0.0
C1036 C 0.94849 0.49226 0.79373 0.0
C1037 C 0.96631 0.50374 0.75598 0.0
C1038 C 0.92611 0.4915 0.78269 0.0
C1039 C 0.92376 0.49662 0.75856 0.0
H1040 H 0.78445 0.91645 0.49727 0.0
H1041 H 0.78963 0.99294 0.4956 0.0
H1042 H 0.74694 0.99623 0.50243 0.0
H1043 H 0.708 0.97743 0.50862 0.0
H1044 H 0.70295 0.90091 0.50972 0.0
H1045 H 0.74566 0.8977 0.50338 0.0
C1046 C 0.77629 0.93387 0.49844 0.0
C1047 C 0.79032 0.9544 0.49593 0.0
C1048 C 0.75169 0.93567 0.50225 0.0
C1049 C 0.77933 0.97681 0.49743 0.0
C1050 C 0.75488 0.97873 0.50135 0.0
C1051 C 0.71623 0.96004 0.50752 0.0
C1052 C 0.70219 0.93946 0.50966 0.0
C1053 C 0.74086 0.95828 0.50375 0.0
C1054 C 0.71322 0.91708 0.5081 0.0
C1055 C 0.7377 0.9152 0.50449 0.0
H1056 H 0.17019 0.31023 0.27486 0.0
H1057 H 0.21969 0.35889 0.30722 0.0
H1058 H 0.22685 0.33087 0.33931 0.0
H1059 H 0.22297 0.29096 0.35549 0.0
H1060 H 0.17521 0.24093 0.32271 0.0
H1061 H 0.16317 0.27109 0.29382 0.0
C1062 C 0.18213 0.31484 0.28921 0.0
C1063 C 0.19458 0.33649 0.28852 0.0
C1064 C 0.18668 0.2983 0.30744 0.0
C1065 C 0.2101 0.34221 0.30719 0.0
C1066 C 0.21424 0.32619 0.32556 0.0
C1067 C 0.20963 0.28671 0.34227 0.0
C1068 C 0.20024 0.26364 0.3411 0.0
C1069 C 0.20324 0.30391 0.32544 0.0
C1070 C 0.18282 0.25854 0.32397 0.0
C1071 C 0.17601 0.27576 0.30734 0.0
H1072 H 0.98502 0.93167 0.58174 0.0
H1073 H 0.94708 0.9853 0.62131 0.0
H1074 H 0.91253 0.98014 0.59601 0.0
H1075 H 0.89473 0.96403 0.55996 0.0
H1076 H 0.93161 0.9101 0.52013 0.0
H1077 H 0.96473 0.91149 0.54835 0.0
C1078 C 0.96904 0.94189 0.58509 0.0
C1079 C 0.96884 0.95912 0.6032 0.0
C1080 C 0.94908 0.93895 0.57029 0.0
C1081 C 0.94789 0.97209 0.60738 0.0
C1082 C 0.92808 0.96921 0.59286 0.0
C1083 C 0.90988 0.95232 0.55765 0.0
C1084 C 0.91091 0.93723 0.53786 0.0
C1085 C 0.92876 0.95328 0.57383 0.0
C1086 C 0.93044 0.92189 0.53525 0.0
C1087 C 0.94943 0.9228 0.5513 0.0
H1088 H 0.31376 0.73582 0.83982 0.0
H1089 H 0.26209 0.69415 0.8782 0.0
H1090 H 0.26783 0.66123 0.85093 0.0
H1091 H 0.28399 0.64584 0.81384 0.0
H1092 H 0.33577 0.68665 0.77496 0.0
H1093 H 0.33378 0.71813 0.8049 0.0
C1094 C 0.30409 0.71938 0.84245 0.0
C1095 C 0.28726 0.71765 0.86086 0.0
C1096 C 0.30733 0.7004 0.82649 0.0
C1097 C 0.27498 0.69614 0.86407 0.0
C1098 C 0.27819 0.67726 0.84844 0.0
C1099 C 0.29508 0.6615 0.81206 0.0
C1100 C 0.30975 0.66408 0.79207 0.0
C1101 C 0.29375 0.67947 0.8292 0.0
C1102 C 0.32429 0.68427 0.79019 0.0
C1103 C 0.32305 0.70233 0.80724 0.0
H1104 H 0.60651 0.03457 0.05683 0.0
H1105 H 0.56833 0.09061 0.02126 0.0
H1106 H 0.53634 0.08781 0.05068 0.0
H1107 H 0.51732 0.06594 0.08383 0.0
H1108 H 0.55645 0.00991 0.11874 0.0
H1109 H 0.59001 0.0164 0.09243 0.0
C1110 C 0.59132 0.0464 0.05569 0.0
C1111 C 0.58958 0.06252 0.03676 0.0
C1112 C 0.57308 0.04457 0.07248 0.0
C1113 C 0.57004 0.07802 0.03569 0.0
C1114 C 0.55169 0.07631 0.05242 0.0
C1115 C 0.53336 0.05547 0.08594 0.0
C1116 C 0.53418 0.03721 0.10302 0.0
C1117 C 0.5527 0.05914 0.07051 0.0
C1118 C 0.55516 0.02389 0.10559 0.0
C1119 C 0.57441 0.02754 0.09052 0.0
H1120 H 0.1834 0.73854 0.1743 0.0
H1121 H 0.23663 0.70286 0.13217 0.0
H1122 H 0.23214 0.66716 0.156 0.0
H1123 H 0.21707 0.6478 0.19163 0.0
H1124 H 0.16403 0.68257 0.23445 0.0
H1125 H 0.16417 0.71669 0.20736 0.0
C1126 C 0.19363 0.72279 0.17005 0.0
C1127 C 0.2106 0.72355 0.15169 0.0
C1128 C 0.19119 0.70221 0.18409 0.0
C1129 C 0.22366 0.70293 0.14636 0.0
C1130 C 0.22116 0.68246 0.16002 0.0
C1131 C 0.20527 0.6627 0.19484 0.0
C1132 C 0.19083 0.66286 0.21516 0.0
C1133 C 0.20562 0.68219 0.17939 0.0
C1134 C 0.17534 0.68207 0.21892 0.0
C1135 C 0.17555 0.70164 0.20352 0.0
H1136 H 0.60015 0.96325 0.44326 0.0
H1137 H 0.55973 0.9095 0.47984 0.0
H1138 H 0.5278 0.91329 0.45053 0.0
H1139 H 0.50958 0.93543 0.4172 0.0
H1140 H 0.55069 0.98926 0.38125 0.0
H1141 H 0.58417 0.98166 0.40745 0.0
C1142 C 0.58448 0.95212 0.44467 0.0
C1143 C 0.58215 0.93637 0.46387 0.0
C1144 C 0.56622 0.95453 0.42793 0.0
C1145 C 0.56193 0.9218 0.46523 0.0
C1146 C 0.54361 0.92408 0.44856 0.0
C1147 C 0.52602 0.94517 0.41483 0.0
C1148 C 0.52745 0.96313 0.39747 0.0
C1149 C 0.54528 0.9409 0.43021 0.0
C1150 C 0.54895 0.9755 0.39458 0.0
C1151 C 0.56814 0.97123 0.40961 0.0
H1152 H 0.31505 0.26836 0.6598 0.0
H1153 H 0.26133 0.30809 0.62208 0.0
H1154 H 0.26549 0.34084 0.64981 0.0
H1155 H 0.28075 0.35633 0.68723 0.0
H1156 H 0.33468 0.31764 0.72538 0.0
H1157 H 0.33433 0.28657 0.69491 0.0
C1158 C 0.3046 0.28436 0.65741 0.0
C1159 C 0.28764 0.28555 0.63906 0.0
C1160 C 0.30694 0.30326 0.67362 0.0
C1161 C 0.27434 0.30651 0.63615 0.0
C1162 C 0.27664 0.3253 0.65205 0.0
C1163 C 0.29268 0.34126 0.6887 0.0
C1164 C 0.30747 0.33909 0.70864 0.0
C1165 C 0.2923 0.32354 0.67125 0.0
C1166 C 0.32311 0.31968 0.71017 0.0
C1167 C 0.32279 0.30185 0.69283 0.0
H1168 H 0.8954 0.04107 0.94238 0.0
H1169 H 0.93982 0.09002 0.98086 0.0
H1170 H 0.97113 0.08551 0.95095 0.0
H1171 H 0.98747 0.0636 0.91649 0.0
H1172 H 0.9422 0.01465 0.87869 0.0
H1173 H 0.90959 0.02345 0.90554 0.0
C1174 C 0.91181 0.05103 0.94404 0.0
C1175 C 0.91548 0.06557 0.96392 0.0
C1176 C 0.92966 0.0482 0.92698 0.0
C1177 C 0.93662 0.07868 0.96569 0.0
C1178 C 0.95457 0.07597 0.94868 0.0
C1179 C 0.97034 0.05522 0.91388 0.0
C1180 C 0.96744 0.03819 0.89583 0.0
C1181 C 0.95155 0.06019 0.92962 0.0
C1182 C 0.94506 0.0276 0.89259 0.0
C1183 C 0.92636 0.03257 0.90797 0.0
H1184 H 0.33596 0.18439 0.25823 0.0
H1185 H 0.37299 0.23252 0.30496 0.0
H1186 H 0.34476 0.22403 0.33648 0.0
H1187 H 0.307 0.20698 0.34921 0.0
H1188 H 0.26941 0.15871 0.30335 0.0
H1189 H 0.30056 0.16294 0.27319 0.0
C1190 C 0.33812 0.19265 0.27546 0.0
C1191 C 0.35639 0.20936 0.27906 0.0
C1192 C 0.32158 0.18786 0.29359 0.0
C1193 C 0.35899 0.21978 0.30156 0.0
C1194 C 0.3428 0.215 0.31963 0.0
C1195 C 0.3058 0.19711 0.33273 0.0
C1196 C 0.28582 0.18284 0.32832 0.0
C1197 C 0.32361 0.19973 0.31557 0.0
C1198 C 0.28464 0.16983 0.30711 0.0
C1199 C 0.30236 0.17238 0.28983 0.0
H1200 H 0.07661 0.02416 0.56 0.0
H1201 H 0.03277 0.05781 0.61301 0.0
H1202 H 0.02678 0.09191 0.58716 0.0
H1203 H 0.02966 0.10986 0.54798 0.0
H1204 H 0.07149 0.07591 0.49358 0.0
H1205 H 0.08291 0.04461 0.52149 0.0
C1206 C 0.06619 0.0392 0.56601 0.0
C1207 C 0.05494 0.03835 0.58827 0.0
C1208 C 0.06225 0.05865 0.55071 0.0
C1209 C 0.04138 0.05791 0.59582 0.0
C1210 C 0.03792 0.07744 0.58105 0.0
C1211 C 0.04162 0.09586 0.54229 0.0
C1212 C 0.04946 0.09511 0.51865 0.0
C1213 C 0.04759 0.07764 0.55819 0.0
C1214 C 0.06508 0.07689 0.51167 0.0
C1215 C 0.07153 0.05889 0.5276 0.0
H1216 H 0.13781 0.78249 0.80934 0.0
H1217 H 0.17479 0.82475 0.7573 0.0
H1218 H 0.20488 0.83521 0.78687 0.0
H1219 H 0.22353 0.82758 0.82606 0.0
H1220 H 0.18717 0.78282 0.87641 0.0
H1221 H 0.15393 0.77833 0.84913 0.0
C1222 C 0.15222 0.79432 0.8045 0.0
C1223 C 0.15421 0.80256 0.78106 0.0
C1224 C 0.16973 0.79966 0.82133 0.0
C1225 C 0.17289 0.81806 0.77521 0.0
C1226 C 0.19018 0.82394 0.79209 0.0
C1227 C 0.20804 0.81737 0.83119 0.0
C1228 C 0.20781 0.80542 0.85311 0.0
C1229 C 0.18923 0.81417 0.815 0.0
C1230 C 0.18778 0.79201 0.85953 0.0
C1231 C 0.1688 0.78939 0.84393 0.0
H1232 H 0.43541 0.91945 0.01573 0.0
H1233 H 0.48682 0.87848 0.0553 0.0
H1234 H 0.48151 0.90429 0.08942 0.0
H1235 H 0.46637 0.94128 0.10623 0.0
H1236 H 0.41493 0.98275 0.06758 0.0
H1237 H 0.41585 0.95382 0.03508 0.0
C1238 C 0.44508 0.91589 0.03198 0.0
C1239 C 0.46179 0.89726 0.03276 0.0
C1240 C 0.44211 0.93104 0.05165 0.0
C1241 C 0.47404 0.89282 0.05404 0.0
C1242 C 0.47108 0.90763 0.07361 0.0
C1243 C 0.45506 0.94378 0.09085 0.0
C1244 C 0.44087 0.96424 0.08911 0.0
C1245 C 0.45582 0.92724 0.07231 0.0
C1246 C 0.42602 0.96711 0.06929 0.0
C1247 C 0.42668 0.95066 0.05065 0.0
H1248 H 0.33064 0.8143 0.24532 0.0
H1249 H 0.36987 0.76719 0.19928 0.0
H1250 H 0.34245 0.77545 0.16702 0.0
H1251 H 0.30488 0.79195 0.15333 0.0
H1252 H 0.26467 0.8388 0.19851 0.0
H1253 H 0.29507 0.83509 0.22952 0.0
C1254 C 0.33343 0.80625 0.22808 0.0
C1255 C 0.35209 0.78986 0.22485 0.0
C1256 C 0.3173 0.81084 0.20952 0.0
C1257 C 0.35552 0.77963 0.20238 0.0
C1258 C 0.33981 0.7843 0.18388 0.0
C1259 C 0.30292 0.80162 0.16985 0.0
C1260 C 0.28245 0.81533 0.17381 0.0
C1261 C 0.32024 0.79921 0.18751 0.0
C1262 C 0.2803 0.8281 0.19509 0.0
C1263 C 0.2976 0.82584 0.21286 0.0
H1264 H 0.46264 0.06122 0.39671 0.0
H1265 H 0.41468 0.02022 0.44001 0.0
H1266 H 0.41774 0.04985 0.4717 0.0
H1267 H 0.43824 0.08478 0.48876 0.0
H1268 H 0.48641 0.12507 0.44478 0.0
H1269 H 0.47881 0.09853 0.41164 0.0
C1270 C 0.45258 0.05893 0.41296 0.0
C1271 C 0.43875 0.03842 0.41618 0.0
C1272 C 0.4546 0.07585 0.43105 0.0
C1273 C 0.42549 0.03586 0.43714 0.0
C1274 C 0.42736 0.05273 0.45531 0.0
C1275 C 0.44669 0.08802 0.47178 0.0
C1276 C 0.46317 0.1067 0.4694 0.0
C1277 C 0.44247 0.07242 0.45273 0.0
C1278 C 0.47386 0.11071 0.44723 0.0
C1279 C 0.46958 0.09549 0.42824 0.0
H1280 H 0.13935 0.21489 0.68923 0.0
H1281 H 0.17564 0.17052 0.74003 0.0
H1282 H 0.20682 0.16223 0.71089 0.0
H1283 H 0.22641 0.17215 0.67268 0.0
H1284 H 0.19052 0.21879 0.62363 0.0
H1285 H 0.15654 0.22144 0.65022 0.0
C1286 C 0.15385 0.20307 0.69386 0.0
C1287 C 0.15529 0.19359 0.71688 0.0
C1288 C 0.17198 0.19896 0.67733 0.0
C1289 C 0.17413 0.17814 0.72246 0.0
C1290 C 0.19205 0.1735 0.70584 0.0
C1291 C 0.2109 0.18242 0.66766 0.0
C1292 C 0.21103 0.19542 0.64634 0.0
C1293 C 0.19158 0.18447 0.68346 0.0
C1294 C 0.19092 0.20883 0.64008 0.0
C1295 C 0.17148 0.21038 0.65527 0.0
H1296 H 0.02483 0.88479 0.95062 0.0
H1297 H 0.06974 0.91996 0.00161 0.0
H1298 H 0.08123 0.94926 0.97165 0.0
H1299 H 0.07404 0.96798 0.93239 0.0
H1300 H 0.02683 0.93351 0.88302 0.0
H1301 H 0.02096 0.90081 0.9107 0.0
C1302 C 0.03746 0.89859 0.95512 0.0
C1303 C 0.04617 0.90031 0.97841 0.0
C1304 C 0.04344 0.91571 0.93805 0.0
C1305 C 0.06266 0.91826 0.98384 0.0
C1306 C 0.06915 0.93512 0.96673 0.0
C1307 C 0.06296 0.953 0.92756 0.0
C1308 C 0.05076 0.9532 0.90579 0.0
C1309 C 0.05902 0.9345 0.94398 0.0
C1310 C 0.03625 0.93382 0.89977 0.0
C1311 C 0.03284 0.91513 0.91561 0.0
H1312 H 0.29817 0.36221 0.22421 0.0
H1313 H 0.24878 0.32827 0.17659 0.0
H1314 H 0.2789 0.2987 0.16618 0.0
H1315 H 0.31773 0.27966 0.17452 0.0
H1316 H 0.36567 0.31308 0.22398 0.0
H1317 H 0.3378 0.34567 0.22955 0.0
C1318 C 0.29406 0.3486 0.21124 0.0
C1319 C 0.27116 0.34733 0.2014 0.0
C1320 C 0.31121 0.33135 0.20582 0.0
C1321 C 0.26625 0.32963 0.18452 0.0
C1322 C 0.28344 0.31262 0.17864 0.0
C1323 C 0.32222 0.29433 0.18613 0.0
C1324 C 0.34363 0.29381 0.19901 0.0
C1325 C 0.30576 0.31286 0.18976 0.0
C1326 C 0.34918 0.3129 0.21408 0.0
C1327 C 0.33325 0.33157 0.2173 0.0
H1328 H 0.80008 0.14042 0.77742 0.0
H1329 H 0.74679 0.1745 0.82055 0.0
H1330 H 0.77588 0.20428 0.8332 0.0
H1331 H 0.81523 0.22357 0.82757 0.0
H1332 H 0.86701 0.18971 0.7824 0.0
H1333 H 0.8399 0.15688 0.77521 0.0
C1334 C 0.79486 0.15413 0.78989 0.0
C1335 C 0.77124 0.15541 0.79777 0.0
C1336 C 0.81145 0.17141 0.79658 0.0
C1337 C 0.76488 0.17314 0.81414 0.0
C1338 C 0.78148 0.19027 0.82127 0.0
C1339 C 0.82068 0.20871 0.81662 0.0
C1340 C 0.84298 0.20915 0.80534 0.0
C1341 C 0.80464 0.19004 0.81198 0.0
C1342 C 0.84982 0.18989 0.79106 0.0
C1343 C 0.83433 0.1711 0.7869 0.0
H1344 H 0.05484 0.60828 0.03366 0.0
H1345 H 0.01816 0.56786 0.08723 0.0
H1346 H 0.04849 0.5366 0.08468 0.0
H1347 H 0.08284 0.51884 0.06344 0.0
H1348 H 0.1188 0.56028 0.00989 0.0
H1349 H 0.09153 0.59309 0.01643 0.0
C1350 C 0.05367 0.59277 0.04505 0.0
C1351 C 0.03417 0.59018 0.06037 0.0
C1352 C 0.07097 0.57495 0.04334 0.0
C1353 C 0.03303 0.57022 0.07528 0.0
C1354 C 0.05028 0.55229 0.07369 0.0
C1355 C 0.08496 0.53522 0.05355 0.0
C1356 C 0.10265 0.5369 0.03593 0.0
C1357 C 0.06896 0.55415 0.05724 0.0
C1358 C 0.10521 0.55832 0.02335 0.0
C1359 C 0.08958 0.57715 0.02703 0.0
H1360 H 0.69098 0.77975 0.32875 0.0
H1361 H 0.63702 0.81382 0.28633 0.0
H1362 H 0.66255 0.84824 0.28069 0.0
H1363 H 0.70159 0.86644 0.28355 0.0
H1364 H 0.75709 0.83198 0.32358 0.0
H1365 H 0.72956 0.80023 0.33475 0.0
C1366 C 0.68471 0.79495 0.31872 0.0
C1367 C 0.66225 0.79419 0.3078 0.0
C1368 C 0.69984 0.81453 0.31492 0.0
C1369 C 0.65435 0.81391 0.29469 0.0
C1370 C 0.66894 0.8336 0.29144 0.0
C1371 C 0.70763 0.85221 0.29504 0.0
C1372 C 0.73144 0.85147 0.30248 0.0
C1373 C 0.69196 0.83376 0.3008 0.0
C1374 C 0.73887 0.83295 0.31751 0.0
C1375 C 0.72315 0.81471 0.32381 0.0
H1376 H 0.88871 0.95794 0.02302 0.0
H1377 H 0.91889 0.00665 0.07373 0.0
H1378 H 0.94811 0.97662 0.08543 0.0
H1379 H 0.96798 0.93804 0.07776 0.0
H1380 H 0.93832 0.89082 0.0253 0.0
H1381 H 0.90601 0.91861 0.01797 0.0
C1382 C 0.90142 0.96192 0.03691 0.0
C1383 C 0.90173 0.9846 0.0473 0.0
C1384 C 0.91848 0.94484 0.0431 0.0
C1385 C 0.91828 0.98935 0.06536 0.0
C1386 C 0.93509 0.97221 0.07199 0.0
C1387 C 0.95418 0.9337 0.06507 0.0
C1388 C 0.9557 0.9125 0.05193 0.0
C1389 C 0.93581 0.95011 0.06047 0.0
C1390 C 0.93774 0.90714 0.03546 0.0
C1391 C 0.91923 0.92302 0.03123 0.0
H1392 H 0.20093 0.64115 0.73477 0.0
H1393 H 0.25008 0.66899 0.68309 0.0
H1394 H 0.22122 0.69954 0.67185 0.0
H1395 H 0.18374 0.72129 0.68028 0.0
H1396 H 0.13638 0.69407 0.73395 0.0
H1397 H 0.16264 0.66035 0.74063 0.0
C1398 C 0.20525 0.65364 0.72076 0.0
C1399 C 0.22774 0.65288 0.70997 0.0
C1400 C 0.18888 0.67149 0.71487 0.0
C1401 C 0.23292 0.66919 0.69177 0.0
C1402 C 0.21645 0.68676 0.68541 0.0
C1403 C 0.17901 0.70769 0.69306 0.0
C1404 C 0.15825 0.71026 0.70673 0.0
C1405 C 0.19463 0.68854 0.69734 0.0
C1406 C 0.15239 0.69261 0.72337 0.0
C1407 C 0.1674 0.67331 0.72723 0.0
H1408 H 0.06037 0.38994 0.46988 0.0
H1409 H 0.02227 0.43129 0.41798 0.0
H1410 H 0.05336 0.46179 0.41915 0.0
H1411 H 0.08898 0.47867 0.43878 0.0
H1412 H 0.12658 0.43629 0.49049 0.0
H1413 H 0.09828 0.40415 0.48527 0.0
C1414 C 0.05905 0.40548 0.45856 0.0
C1415 C 0.03895 0.40857 0.44413 0.0
C1416 C 0.07685 0.42284 0.45941 0.0
C1417 C 0.0376 0.42856 0.42926 0.0
C1418 C 0.0553 0.44605 0.43005 0.0
C1419 C 0.09123 0.46223 0.44855 0.0
C1420 C 0.10969 0.4601 0.46529 0.0
C1421 C 0.07467 0.4437 0.44561 0.0
C1422 C 0.11242 0.43858 0.47769 0.0
C1423 C 0.09619 0.42015 0.47478 0.0
H1424 H 0.46632 0.57059 0.92014 0.0
H1425 H 0.44099 0.61614 0.97619 0.0
H1426 H 0.4089 0.58848 0.98479 0.0
H1427 H 0.391 0.54947 0.97976 0.0
H1428 H 0.41718 0.50216 0.92558 0.0
H1429 H 0.44562 0.53239 0.91266 0.0
C1430 C 0.45344 0.57461 0.93386 0.0
C1431 C 0.45611 0.59527 0.94763 0.0
C1432 C 0.43531 0.55819 0.93923 0.0
C1433 C 0.43943 0.60023 0.9655 0.0
C1434 C 0.42108 0.58442 0.97046 0.0
C1435 C 0.40264 0.54585 0.96486 0.0
C1436 C 0.4021 0.52348 0.95383 0.0
C1437 C 0.41931 0.56302 0.95797 0.0
C1438 C 0.41727 0.5192 0.93448 0.0
C1439 C 0.43363 0.53646 0.92714 0.0
H1440 H 0.72614 0.79692 0.85936 0.0
H1441 H 0.67553 0.74836 0.82867 0.0
H1442 H 0.6643 0.77841 0.79932 0.0
H1443 H 0.67255 0.81684 0.77946 0.0
H1444 H 0.72496 0.86386 0.8096 0.0
H1445 H 0.73162 0.83618 0.8421 0.0
C1446 C 0.71237 0.79297 0.8465 0.0
C1447 C 0.70189 0.77032 0.84608 0.0
C1448 C 0.70647 0.81005 0.82938 0.0
C1449 C 0.68396 0.76563 0.82937 0.0
C1450 C 0.67762 0.78278 0.81248 0.0
C1451 C 0.68506 0.82118 0.79341 0.0
C1452 C 0.69841 0.84227 0.79198 0.0
C1453 C 0.68929 0.80481 0.81187 0.0
C1454 C 0.71465 0.84763 0.81013 0.0
C1455 C 0.7185 0.8318 0.82874 0.0
H1456 H 0.49514 0.43733 0.07762 0.0
H1457 H 0.45462 0.48783 0.11871 0.0
H1458 H 0.42024 0.48144 0.09345 0.0
H1459 H 0.40304 0.46518 0.05721 0.0
H1460 H 0.44262 0.41456 0.01565 0.0
H1461 H 0.47581 0.41707 0.04369 0.0
C1462 C 0.47865 0.44658 0.0813 0.0
C1463 C 0.47764 0.4633 0.09987 0.0
C1464 C 0.45881 0.44299 0.06648 0.0
C1465 C 0.45606 0.47505 0.10443 0.0
C1466 C 0.43634 0.47147 0.08994 0.0
C1467 C 0.41881 0.45445 0.05444 0.0
C1468 C 0.42051 0.43996 0.03423 0.0
C1469 C 0.43775 0.45608 0.07051 0.0
C1470 C 0.44089 0.42588 0.03107 0.0
C1471 C 0.45993 0.42742 0.04703 0.0
H1472 H 0.81577 0.24334 0.33979 0.0
H1473 H 0.7691 0.19768 0.37999 0.0
H1474 H 0.77722 0.16501 0.353 0.0
H1475 H 0.79312 0.15101 0.3153 0.0
H1476 H 0.83953 0.19596 0.2743 0.0
H1477 H 0.8363 0.22717 0.30446 0.0
C1478 C 0.80778 0.2261 0.34291 0.0
C1479 C 0.79152 0.2231 0.36166 0.0
C1480 C 0.81228 0.20733 0.32705 0.0
C1481 C 0.78143 0.2006 0.36554 0.0
C1482 C 0.78601 0.18187 0.35008 0.0
C1483 C 0.80283 0.16751 0.31314 0.0
C1484 C 0.81622 0.17139 0.2925 0.0
C1485 C 0.80068 0.18531 0.33033 0.0
C1486 C 0.82905 0.19263 0.29007 0.0
C1487 C 0.82707 0.21051 0.30722 0.0
H1488 H 0.05636 0.52895 0.61342 0.0
H1489 H 0.00704 0.57417 0.57608 0.0
H1490 H 0.03718 0.58221 0.54579 0.0
H1491 H 0.07585 0.57194 0.5273 0.0
H1492 H 0.12339 0.52442 0.56414 0.0
H1493 H 0.09577 0.5219 0.59727 0.0
C1494 C 0.05225 0.54089 0.59888 0.0
C1495 C 0.02938 0.5507 0.59688 0.0
C1496 C 0.06935 0.54483 0.58126 0.0
C1497 C 0.02449 0.5663 0.57801 0.0
C1498 C 0.04168 0.57079 0.5606 0.0
C1499 C 0.08031 0.56148 0.54283 0.0
C1500 C 0.10151 0.54822 0.54321 0.0
C1501 C 0.06393 0.55951 0.56163 0.0
C1502 C 0.10705 0.53458 0.56335 0.0
C1503 C 0.09127 0.53311 0.5823 0.0
H1504 H 0.68619 0.24326 0.67109 0.0
H1505 H 0.744 0.20873 0.63436 0.0
H1506 H 0.73815 0.17303 0.65787 0.0
H1507 H 0.71996 0.15325 0.6918 0.0
H1508 H 0.66207 0.18678 0.72899 0.0
H1509 H 0.66434 0.22102 0.70217 0.0
C1510 C 0.6972 0.22777 0.66796 0.0
C1511 C 0.71575 0.22886 0.65121 0.0
C1512 C 0.69387 0.20716 0.68175 0.0
C1513 C 0.72976 0.20855 0.64728 0.0
C1514 C 0.72648 0.18807 0.66076 0.0
C1515 C 0.7076 0.1679 0.69383 0.0
C1516 C 0.6911 0.16766 0.71251 0.0
C1517 C 0.70912 0.18746 0.67852 0.0
C1518 C 0.67495 0.18658 0.71473 0.0
C1519 C 0.67636 0.20622 0.6995 0.0
H1520 H 0.10749 0.47108 0.93897 0.0
H1521 H 0.07024 0.41779 0.9793 0.0
H1522 H 0.03801 0.41787 0.95005 0.0
H1523 H 0.01835 0.43695 0.91562 0.0
H1524 H 0.05656 0.49009 0.87567 0.0
H1525 H 0.09054 0.48593 0.90195 0.0
C1526 C 0.09248 0.45921 0.94117 0.0
C1527 C 0.09105 0.44471 0.96139 0.0
C1528 C 0.07408 0.45945 0.92441 0.0
C1529 C 0.07171 0.42915 0.96386 0.0
C1530 C 0.05321 0.42931 0.94722 0.0
C1531 C 0.03429 0.44725 0.91239 0.0
C1532 C 0.0347 0.46409 0.89389 0.0
C1533 C 0.05388 0.44494 0.92779 0.0
C1534 C 0.05558 0.47719 0.88989 0.0
C1535 C 0.07506 0.47489 0.90497 0.0
H1536 H 0.82676 0.82594 0.21882 0.0
H1537 H 0.77518 0.8759 0.19201 0.0
H1538 H 0.76805 0.85071 0.15765 0.0
H1539 H 0.77274 0.81263 0.13785 0.0
H1540 H 0.82202 0.76082 0.16546 0.0
H1541 H 0.83406 0.78864 0.19656 0.0
C1542 C 0.81435 0.83145 0.20517 0.0
C1543 C 0.80138 0.85263 0.208 0.0
C1544 C 0.80976 0.81645 0.18571 0.0
C1545 C 0.7852 0.85955 0.19031 0.0
C1546 C 0.7811 0.84516 0.17067 0.0
C1547 C 0.78641 0.8075 0.1504 0.0
C1548 C 0.79627 0.78459 0.14945 0.0
C1549 C 0.79269 0.82325 0.16858 0.0
C1550 C 0.81405 0.77833 0.16584 0.0
C1551 C 0.82086 0.7942 0.18371 0.0
H1552 H 0.40205 0.54695 0.44121 0.0
H1553 H 0.44689 0.59329 0.48228 0.0
H1554 H 0.478 0.59052 0.4519 0.0
H1555 H 0.49406 0.57056 0.4161 0.0
H1556 H 0.44824 0.52428 0.37569 0.0
H1557 H 0.41584 0.53167 0.40319 0.0
C1558 C 0.4185 0.55675 0.44333 0.0
C1559 C 0.42238 0.57001 0.46403 0.0
C1560 C 0.4362 0.55493 0.42597 0.0
C1561 C 0.44356 0.58294 0.46645 0.0
C1562 C 0.46138 0.58122 0.44916 0.0
C1563 C 0.47685 0.56249 0.41307 0.0
C1564 C 0.47375 0.54655 0.39408 0.0
C1565 C 0.45817 0.56663 0.42919 0.0
C1566 C 0.45127 0.53636 0.39032 0.0
C1567 C 0.43268 0.54053 0.40607 0.0
H1568 H 0.80648 0.71196 0.85273 0.0
H1569 H 0.76644 0.66341 0.80929 0.0
H1570 H 0.79665 0.66625 0.77806 0.0
H1571 H 0.8321 0.68643 0.76149 0.0
H1572 H 0.87161 0.73485 0.80584 0.0
H1573 H 0.84414 0.72789 0.83837 0.0
C1574 C 0.80452 0.70174 0.83654 0.0
C1575 C 0.78413 0.68777 0.83315 0.0
C1576 C 0.82182 0.70355 0.81876 0.0
C1577 C 0.78199 0.67432 0.81229 0.0
C1578 C 0.79919 0.67606 0.79438 0.0
C1579 C 0.83495 0.69508 0.77842 0.0
C1580 C 0.85373 0.71142 0.78105 0.0
C1581 C 0.81885 0.69118 0.79716 0.0
C1582 C 0.85721 0.72238 0.80317 0.0
C1583 C 0.84145 0.71848 0.82183 0.0
H1584 H 0.58122 0.52734 0.05479 0.0
H1585 H 0.54392 0.56442 0.11041 0.0
H1586 H 0.53747 0.59824 0.08426 0.0
H1587 H 0.53753 0.61488 0.04452 0.0
H1588 H 0.5722 0.57745 0.98747 0.0
H1589 H 0.58496 0.54646 0.01522 0.0
C1590 C 0.57219 0.54308 0.06124 0.0
C1591 C 0.56286 0.54336 0.08438 0.0
C1592 C 0.56784 0.56229 0.04578 0.0
C1593 C 0.55103 0.56374 0.09256 0.0
C1594 C 0.5473 0.58308 0.07763 0.0
C1595 C 0.54822 0.60015 0.03816 0.0
C1596 C 0.55361 0.59831 0.01392 0.0
C1597 C 0.55485 0.58217 0.05401 0.0
C1598 C 0.56771 0.57925 0.00606 0.0
C1599 C 0.57489 0.56144 0.0219 0.0
H1600 H 0.64045 0.27939 0.30316 0.0
H1601 H 0.67546 0.32632 0.25385 0.0
H1602 H 0.70395 0.33774 0.28464 0.0
H1603 H 0.72198 0.33012 0.32416 0.0
H1604 H 0.68747 0.28114 0.37186 0.0
H1605 H 0.65565 0.27501 0.34328 0.0
C1606 C 0.65409 0.2924 0.29919 0.0
C1607 C 0.65601 0.30174 0.27615 0.0
C1608 C 0.67066 0.29839 0.31672 0.0
C1609 C 0.67363 0.31879 0.27143 0.0
C1610 C 0.69001 0.32522 0.28901 0.0
C1611 C 0.70717 0.31858 0.32844 0.0
C1612 C 0.70714 0.30595 0.34999 0.0
C1613 C 0.68917 0.31455 0.31152 0.0
C1614 C 0.68798 0.29088 0.35529 0.0
C1615 C 0.66979 0.28732 0.33894 0.0
H1616 H 0.92615 0.47437 0.56826 0.0
H1617 H 0.97626 0.44529 0.61837 0.0
H1618 H 0.98242 0.41084 0.59306 0.0
H1619 H 0.97753 0.39149 0.55484 0.0
H1620 H 0.92939 0.4209 0.50306 0.0
H1621 H 0.91824 0.45237 0.53088 0.0
C1622 C 0.93798 0.4602 0.57379 0.0
C1623 C 0.95088 0.46244 0.59504 0.0
C1624 C 0.94201 0.4406 0.55873 0.0
C1625 C 0.96632 0.44407 0.60197 0.0
C1626 C 0.96989 0.42436 0.5875 0.0
C1627 C 0.96431 0.40454 0.54971 0.0
C1628 C 0.95454 0.40397 0.5268 0.0
C1629 C 0.95845 0.42284 0.56552 0.0
C1630 C 0.93728 0.42095 0.52057 0.0
C1631 C 0.93098 0.43905 0.53644 0.0
H1632 H 0.83453 0.31857 0.74604 0.0
H1633 H 0.87555 0.27381 0.69923 0.0
H1634 H 0.84854 0.28262 0.66674 0.0
H1635 H 0.81067 0.29856 0.65303 0.0
H1636 H 0.76883 0.34314 0.69902 0.0
H1637 H 0.7989 0.33921 0.7303 0.0
C1638 C 0.83782 0.31117 0.7286 0.0
C1639 C 0.85685 0.29524 0.7252 0.0
C1640 C 0.82194 0.31607 0.70991 0.0
C1641 C 0.86092 0.28588 0.70246 0.0
C1642 C 0.84543 0.29086 0.68383 0.0
C1643 C 0.8083 0.30773 0.66978 0.0
C1644 C 0.78745 0.32081 0.67389 0.0
C1645 C 0.82546 0.3052 0.6876 0.0
C1646 C 0.78476 0.33293 0.69549 0.0
C1647 C 0.80187 0.33054 0.7134 0.0
H1648 H 0.92416 0.52627 0.9357 0.0
H1649 H 0.9694 0.56119 0.88469 0.0
H1650 H 0.9742 0.59486 0.91125 0.0
H1651 H 0.96992 0.61199 0.95057 0.0
H1652 H 0.92653 0.577 0.00302 0.0
H1653 H 0.91628 0.54608 0.97426 0.0
C1654 C 0.93462 0.5415 0.93027 0.0
C1655 C 0.94665 0.54112 0.9084 0.0
C1656 C 0.93784 0.56071 0.94598 0.0
C1657 C 0.96023 0.56092 0.90158 0.0
C1658 C 0.963 0.5802 0.91675 0.0
C1659 C 0.95791 0.59782 0.95565 0.0
C1660 C 0.94928 0.59663 0.97898 0.0
C1661 C 0.95258 0.5799 0.93927 0.0
C1662 C 0.93351 0.57829 0.98516 0.0
C1663 C 0.92775 0.56051 0.96876 0.0
H1664 H 0.63897 0.73346 0.20205 0.0
H1665 H 0.67175 0.68205 0.24846 0.0
H1666 H 0.70086 0.67244 0.21769 0.0
H1667 H 0.71991 0.68231 0.17929 0.0
H1668 H 0.68794 0.73571 0.13458 0.0
H1669 H 0.65558 0.74066 0.16281 0.0
C1670 C 0.65222 0.71985 0.20536 0.0
C1671 C 0.65329 0.70867 0.22763 0.0
C1672 C 0.66925 0.7149 0.18788 0.0
C1673 C 0.67056 0.69102 0.23151 0.0
C1674 C 0.6873 0.68558 0.21394 0.0
C1675 C 0.70557 0.69464 0.17557 0.0
C1676 C 0.70641 0.70875 0.15497 0.0
C1677 C 0.68726 0.69794 0.1923 0.0
C1678 C 0.68782 0.7248 0.15042 0.0
C1679 C 0.66931 0.72768 0.16657 0.0
H1680 H 0.58057 0.47458 0.42704 0.0
H1681 H 0.53254 0.44213 0.3771 0.0
H1682 H 0.52713 0.40833 0.40354 0.0
H1683 H 0.53172 0.39072 0.44264 0.0
H1684 H 0.57719 0.42396 0.49444 0.0
H1685 H 0.58828 0.45442 0.46546 0.0
C1686 C 0.5694 0.45981 0.42181 0.0
C1687 C 0.55684 0.46085 0.40027 0.0
C1688 C 0.5657 0.4407 0.43754 0.0
C1689 C 0.54222 0.44176 0.3937 0.0
C1690 C 0.53908 0.42245 0.40882 0.0
C1691 C 0.54437 0.40438 0.44754 0.0
C1692 C 0.55337 0.40522 0.47076 0.0
C1693 C 0.55005 0.42215 0.43109 0.0
C1694 C 0.5699 0.42296 0.4767 0.0
C1695 C 0.57615 0.44046 0.46016 0.0
H1696 H 0.80047 0.86491 0.7226 0.0
H1697 H 0.74758 0.83067 0.67915 0.0
H1698 H 0.77622 0.7998 0.66834 0.0
H1699 H 0.81483 0.77974 0.67556 0.0
H1700 H 0.86628 0.81361 0.72102 0.0
H1701 H 0.83984 0.84738 0.72647 0.0
C1702 C 0.79527 0.85094 0.71042 0.0
C1703 C 0.77183 0.84998 0.70194 0.0
C1704 C 0.81158 0.83296 0.70481 0.0
C1705 C 0.76549 0.8318 0.68605 0.0
C1706 C 0.78184 0.81405 0.67995 0.0
C1707 C 0.82038 0.79477 0.68622 0.0
C1708 C 0.84237 0.79406 0.69807 0.0
C1709 C 0.80473 0.814 0.68985 0.0
C1710 C 0.84932 0.8136 0.71194 0.0
C1711 C 0.83421 0.83293 0.7151 0.0
H1712 H 0.26855 0.66319 0.31471 0.0
H1713 H 0.30773 0.62765 0.25925 0.0
H1714 H 0.34174 0.65322 0.26632 0.0
H1715 H 0.35842 0.68879 0.28437 0.0
H1716 H 0.32008 0.72524 0.33959 0.0
H1717 H 0.28789 0.69601 0.33683 0.0
C1718 C 0.28471 0.66076 0.30453 0.0
C1719 C 0.28541 0.64379 0.28619 0.0
C1720 C 0.30428 0.67582 0.30849 0.0
C1721 C 0.30654 0.64076 0.27324 0.0
C1722 C 0.32604 0.65541 0.27723 0.0
C1723 C 0.34318 0.69011 0.29609 0.0
C1724 C 0.34141 0.70928 0.3119 0.0
C1725 C 0.32479 0.6735 0.29419 0.0
C1726 C 0.3218 0.71061 0.32725 0.0
C1727 C 0.30333 0.69401 0.32554 0.0
H1728 H 0.53002 0.06386 0.57556 0.0
H1729 H 0.56508 0.11277 0.52817 0.0
H1730 H 0.59708 0.0844 0.52189 0.0
H1731 H 0.61254 0.04418 0.52577 0.0
H1732 H 0.57722 0.99394 0.57149 0.0
H1733 H 0.54825 0.02434 0.5828 0.0
C1734 C 0.54494 0.06843 0.56429 0.0
C1735 C 0.54503 0.09028 0.55214 0.0
C1736 C 0.56315 0.0517 0.56025 0.0
C1737 C 0.56443 0.09595 0.5375 0.0
C1738 C 0.58276 0.07973 0.53386 0.0
C1739 C 0.59875 0.03994 0.53852 0.0
C1740 C 0.59691 0.01674 0.54753 0.0
C1741 C 0.5819 0.05729 0.5445 0.0
C1742 C 0.57902 0.01165 0.56419 0.0
C1743 C 0.56235 0.029 0.57058 0.0
H1744 H 0.19667 0.35422 0.76923 0.0
H1745 H 0.24901 0.32454 0.81661 0.0
H1746 H 0.22164 0.29236 0.82698 0.0
H1747 H 0.18445 0.27004 0.81867 0.0
H1748 H 0.13382 0.29951 0.7693 0.0
H1749 H 0.15874 0.33437 0.76381 0.0
C1750 C 0.20202 0.34094 0.78211 0.0
C1751 C 0.22495 0.34167 0.79191 0.0
C1752 C 0.18649 0.32225 0.78749 0.0
C1753 C 0.23147 0.32438 0.80872 0.0
C1754 C 0.21586 0.30588 0.81456 0.0
C1755 C 0.17874 0.28435 0.80712 0.0
C1756 C 0.15745 0.28212 0.79424 0.0
C1757 C 0.19356 0.30423 0.8035 0.0
C1758 C 0.15028 0.3007 0.7792 0.0
C1759 C 0.16451 0.32065 0.77603 0.0
H1760 H 0.3963 0.45847 0.51811 0.0
H1761 H 0.4262 0.50391 0.57192 0.0
H1762 H 0.45467 0.47279 0.5826 0.0
H1763 H 0.47419 0.43444 0.5731 0.0
H1764 H 0.4451 0.39077 0.5174 0.0
H1765 H 0.41312 0.41926 0.5112 0.0
C1766 C 0.40879 0.4615 0.53243 0.0
C1767 C 0.40927 0.48359 0.544 0.0
C1768 C 0.42543 0.44384 0.53803 0.0
C1769 C 0.42549 0.4871 0.56264 0.0
C1770 C 0.44186 0.46934 0.56869 0.0
C1771 C 0.46053 0.43099 0.55999 0.0
C1772 C 0.46209 0.41064 0.5456 0.0
C1773 C 0.44247 0.44788 0.556 0.0
C1774 C 0.4444 0.40643 0.52854 0.0
C1775 C 0.42611 0.42272 0.52495 0.0
H1776 H 0.65186 0.1971 0.22174 0.0
H1777 H 0.68848 0.23295 0.16497 0.0
H1778 H 0.72124 0.2043 0.16777 0.0
H1779 H 0.74137 0.1719 0.18984 0.0
H1780 H 0.70369 0.13649 0.24644 0.0
H1781 H 0.6694 0.16193 0.24 0.0
C1782 C 0.66687 0.19844 0.20974 0.0
C1783 C 0.66796 0.21725 0.19342 0.0
C1784 C 0.68554 0.18207 0.21155 0.0
C1785 C 0.68728 0.2186 0.17771 0.0
C1786 C 0.70607 0.20232 0.17942 0.0
C1787 C 0.72549 0.16947 0.20045 0.0
C1788 C 0.7253 0.15253 0.21886 0.0
C1789 C 0.7057 0.18438 0.19678 0.0
C1790 C 0.70449 0.14953 0.23233 0.0
C1791 C 0.68483 0.16412 0.22872 0.0
H1792 H 0.61206 0.95471 0.97079 0.0
H1793 H 0.57717 0.00858 0.92897 0.0
H1794 H 0.54595 0.98026 0.91824 0.0
H1795 H 0.52595 0.94152 0.92519 0.0
H1796 H 0.56081 0.88908 0.96892 0.0
H1797 H 0.59463 0.91538 0.97426 0.0
C1798 C 0.59784 0.96021 0.95901 0.0
C1799 C 0.5968 0.9838 0.95095 0.0
C1800 C 0.57975 0.94408 0.95344 0.0
C1801 C 0.57838 0.99052 0.93549 0.0
C1802 C 0.56042 0.97436 0.92947 0.0
C1803 C 0.54119 0.93574 0.93546 0.0
C1804 C 0.54075 0.9135 0.94687 0.0
C1805 C 0.56051 0.95129 0.93898 0.0
C1806 C 0.56057 0.90624 0.96021 0.0
C1807 C 0.57995 0.92126 0.96329 0.0
H1808 H 0.96901 0.06254 0.42305 0.0
H1809 H 0.93967 0.11282 0.47281 0.0
H1810 H 0.90637 0.0864 0.48055 0.0
H1811 H 0.88816 0.04742 0.47693 0.0
H1812 H 0.91786 0.99559 0.42907 0.0
H1813 H 0.94812 0.02424 0.41656 0.0
C1814 C 0.95504 0.06784 0.43518 0.0
C1815 C 0.95692 0.0895 0.44751 0.0
C1816 C 0.93611 0.05219 0.44008 0.0
C1817 C 0.93878 0.09613 0.46331 0.0
C1818 C 0.91972 0.08103 0.46777 0.0
C1819 C 0.90102 0.04244 0.46349 0.0
C1820 C 0.9009 0.0193 0.45417 0.0
C1821 C 0.91861 0.05874 0.45685 0.0
C1822 C 0.91759 0.01327 0.43661 0.0
C1823 C 0.93498 0.02962 0.42954 0.0
H1824 H 0.0752 0.14729 0.37385 0.0
H1825 H 0.0932 0.09533 0.42709 0.0
H1826 H 0.13522 0.09844 0.41638 0.0
H1827 H 0.16712 0.11922 0.39504 0.0
H1828 H 0.14942 0.17488 0.34556 0.0
H1829 H 0.10705 0.16698 0.35137 0.0
C1830 C 0.0883 0.13628 0.38271 0.0
C1831 C 0.08118 0.12097 0.40108 0.0
C1832 C 0.11251 0.13904 0.37725 0.0
C1833 C 0.09832 0.10718 0.41283 0.0
C1834 C 0.12233 0.10902 0.40677 0.0
C1835 C 0.15397 0.12925 0.38516 0.0
C1836 C 0.16131 0.14749 0.36978 0.0
C1837 C 0.12969 0.12535 0.38946 0.0
C1838 C 0.14413 0.16072 0.35746 0.0
C1839 C 0.11994 0.15625 0.36083 0.0
H1840 H 0.12155 0.91833 0.64829 0.0
H1841 H 0.06369 0.89758 0.60275 0.0
H1842 H 0.07228 0.85564 0.61063 0.0
H1843 H 0.09358 0.82519 0.63373 0.0
H1844 H 0.14799 0.84651 0.6831 0.0
H1845 H 0.14364 0.88787 0.67039 0.0
C1846 C 0.11116 0.9046 0.63969 0.0
C1847 C 0.09215 0.91098 0.62479 0.0
C1848 C 0.11549 0.88063 0.64522 0.0
C1849 C 0.07847 0.89305 0.6142 0.0
C1850 C 0.08333 0.8691 0.61878 0.0
C1851 C 0.1048 0.83886 0.64134 0.0
C1852 C 0.12121 0.83284 0.65919 0.0
C1853 C 0.10141 0.86271 0.63472 0.0
C1854 C 0.13528 0.85074 0.66929 0.0
C1855 C 0.13275 0.87438 0.66207 0.0
H1856 H 0.41848 0.85284 0.88484 0.0
H1857 H 0.40077 0.90057 0.94191 0.0
H1858 H 0.35839 0.89322 0.93528 0.0
H1859 H 0.32677 0.87022 0.91586 0.0
H1860 H 0.34504 0.81866 0.86239 0.0
H1861 H 0.38681 0.83052 0.86482 0.0
C1862 C 0.40529 0.86202 0.89546 0.0
C1863 C 0.41264 0.87743 0.91365 0.0
C1864 C 0.3811 0.85678 0.89232 0.0
C1865 C 0.39546 0.88875 0.92772 0.0
C1866 C 0.37128 0.88447 0.92399 0.0
C1867 C 0.33986 0.8619 0.90445 0.0
C1868 C 0.33288 0.84371 0.88884 0.0
C1869 C 0.36393 0.86808 0.90672 0.0
C1870 C 0.35004 0.83271 0.8745 0.0
C1871 C 0.37389 0.83947 0.87592 0.0
H1872 H 0.40522 0.17347 0.13316 0.0
H1873 H 0.35554 0.1557 0.18855 0.0
H1874 H 0.36118 0.11334 0.1804 0.0
H1875 H 0.38312 0.08151 0.16015 0.0
H1876 H 0.43647 0.09942 0.10828 0.0
H1877 H 0.42651 0.14158 0.11225 0.0
C1878 C 0.39526 0.1603 0.14308 0.0
C1879 C 0.3798 0.1676 0.16125 0.0
C1880 C 0.39949 0.13603 0.13906 0.0
C1881 C 0.36744 0.15042 0.1744 0.0
C1882 C 0.37074 0.12624 0.1698 0.0
C1883 C 0.39227 0.09463 0.14943 0.0
C1884 C 0.4104 0.08742 0.13384 0.0
C1885 C 0.38714 0.11885 0.15256 0.0
C1886 C 0.42245 0.10459 0.12038 0.0
C1887 C 0.41677 0.12867 0.12268 0.0
H1888 H 0.16482 0.87678 0.10543 0.0
H1889 H 0.14557 0.81998 0.15298 0.0
H1890 H 0.1034 0.82871 0.14668 0.0
H1891 H 0.07216 0.84996 0.12464 0.0
H1892 H 0.09176 0.90303 0.07313 0.0
H1893 H 0.13363 0.89859 0.08409 0.0
C1894 C 0.15137 0.86662 0.11475 0.0
C1895 C 0.15822 0.84789 0.12979 0.0
C1896 C 0.12725 0.87104 0.11018 0.0
C1897 C 0.14067 0.83451 0.14137 0.0
C1898 C 0.11659 0.83948 0.13773 0.0
C1899 C 0.0856 0.86089 0.11621 0.0
C1900 C 0.07898 0.87699 0.09831 0.0
C1901 C 0.10968 0.85735 0.12177 0.0
C1902 C 0.09652 0.89063 0.08705 0.0
C1903 C 0.12042 0.88802 0.09325 0.0
H1904 H 0.38065 0.91781 0.35001 0.0
H1905 H 0.43888 0.90233 0.39722 0.0
H1906 H 0.43221 0.85968 0.39195 0.0
H1907 H 0.41212 0.827 0.37111 0.0
H1908 H 0.35722 0.84283 0.32018 0.0
H1909 H 0.36008 0.88514 0.32975 0.0
C1910 C 0.39157 0.90506 0.35948 0.0
C1911 C 0.41009 0.9131 0.37414 0.0
C1912 C 0.38831 0.88067 0.3555 0.0
C1913 C 0.42448 0.89648 0.3859 0.0
C1914 C 0.4207 0.87214 0.38284 0.0
C1915 C 0.40052 0.83971 0.36243 0.0
C1916 C 0.38437 0.83189 0.3451 0.0
C1917 C 0.403 0.86404 0.36728 0.0
C1918 C 0.36976 0.8485 0.3336 0.0
C1919 C 0.37142 0.87266 0.33904 0.0
H1920 H 0.424 0.15516 0.61509 0.0
H1921 H 0.4075 0.10536 0.55948 0.0
H1922 H 0.36496 0.11169 0.56608 0.0
H1923 H 0.3327 0.13417 0.58509 0.0
H1924 H 0.3495 0.18764 0.63713 0.0
H1925 H 0.39165 0.17709 0.63468 0.0
C1926 C 0.41104 0.14535 0.60478 0.0
C1927 C 0.41878 0.12962 0.587 0.0
C1928 C 0.3867 0.14996 0.6079 0.0
C1929 C 0.40189 0.11745 0.57333 0.0
C1930 C 0.37761 0.12114 0.57705 0.0
C1931 C 0.34557 0.14322 0.59619 0.0
C1932 C 0.33804 0.16154 0.61139 0.0
C1933 C 0.36982 0.13775 0.59392 0.0
C1934 C 0.35491 0.17346 0.62532 0.0
C1935 C 0.37898 0.16745 0.62389 0.0
H1936 H 0.09465 0.16355 0.86221 0.0
H1937 H 0.14611 0.14325 0.80934 0.0
H1938 H 0.14037 0.10135 0.81944 0.0
H1939 H 0.11781 0.07045 0.84045 0.0
H1940 H 0.06298 0.0907 0.88986 0.0
H1941 H 0.07301 0.13262 0.8842 0.0
C1942 C 0.10495 0.14996 0.85326 0.0
C1943 C 0.12092 0.15644 0.83518 0.0
C1944 C 0.10076 0.12589 0.85843 0.0
C1945 C 0.13378 0.13866 0.82336 0.0
C1946 C 0.13044 0.11472 0.82908 0.0
C1947 C 0.10838 0.08403 0.85032 0.0
C1948 C 0.08978 0.07752 0.86567 0.0
C1949 C 0.11356 0.1081 0.84618 0.0
C1950 C 0.07739 0.0953 0.87799 0.0
C1951 C 0.08308 0.11926 0.8747 0.0
H1952 H 0.12837 0.40221 0.16979 0.0
H1953 H 0.18182 0.35057 0.15134 0.0
H1954 H 0.17518 0.35845 0.10915 0.0
H1955 H 0.15723 0.38298 0.07791 0.0
H1956 H 0.10741 0.43807 0.09671 0.0
H1957 H 0.10943 0.42592 0.13835 0.0
C1958 C 0.13813 0.3923 0.15647 0.0
C1959 C 0.15536 0.37565 0.16355 0.0
C1960 C 0.13506 0.39782 0.13236 0.0
C1961 C 0.16836 0.36336 0.14623 0.0
C1962 C 0.16465 0.36795 0.12215 0.0
C1963 C 0.14651 0.39206 0.09108 0.0
C1964 C 0.13213 0.41135 0.08428 0.0
C1965 C 0.1485 0.38559 0.11505 0.0
C1966 C 0.11864 0.42321 0.10155 0.0
C1967 C 0.1198 0.41627 0.12534 0.0
H1968 H 0.67362 0.13741 0.8457 0.0
H1969 H 0.62323 0.08722 0.81742 0.0
H1970 H 0.6104 0.07691 0.85749 0.0
H1971 H 0.61622 0.07948 0.90073 0.0
H1972 H 0.66485 0.1314 0.92896 0.0
H1973 H 0.67541 0.14391 0.88887 0.0
C1974 C 0.65959 0.12448 0.84835 0.0
C1975 C 0.64957 0.11292 0.8287 0.0
C1976 C 0.65206 0.11886 0.87144 0.0
C1977 C 0.63121 0.0964 0.8323 0.0
C1978 C 0.62395 0.09038 0.85521 0.0
C1979 C 0.62884 0.09377 0.89806 0.0
C1980 C 0.63991 0.10433 0.91773 0.0
C1981 C 0.63464 0.10109 0.87494 0.0
C1982 C 0.65605 0.12302 0.91409 0.0
C1983 C 0.66222 0.13009 0.89116 0.0
H1984 H 0.82646 0.86601 0.34641 0.0
H1985 H 0.87913 0.91449 0.31922 0.0
H1986 H 0.8917 0.92401 0.35955 0.0
H1987 H 0.88462 0.92183 0.40266 0.0
H1988 H 0.83359 0.87161 0.4298 0.0
H1989 H 0.82366 0.85934 0.38949 0.0
C1990 C 0.84099 0.87831 0.34934 0.0
C1991 C 0.85168 0.8897 0.32991 0.0
C1992 C 0.84828 0.88356 0.37259 0.0
C1993 C 0.87064 0.90543 0.3339 0.0
C1994 C 0.87773 0.91103 0.35697 0.0
C1995 C 0.87162 0.90794 0.39971 0.0
C1996 C 0.85966 0.89784 0.41912 0.0
C1997 C 0.86621 0.90072 0.37647 0.0
C1998 C 0.84305 0.87965 0.41513 0.0
C1999 C 0.83726 0.87271 0.39207 0.0
H2000 H 0.8758 0.10634 0.17312 0.0
H2001 H 0.8191 0.15494 0.15602 0.0
H2002 H 0.82753 0.15021 0.11367 0.0
H2003 H 0.84846 0.12922 0.08161 0.0
H2004 H 0.90146 0.0767 0.09893 0.0
H2005 H 0.89731 0.08607 0.14113 0.0
C2006 C 0.86561 0.11623 0.16011 0.0
C2007 C 0.84699 0.1311 0.16758 0.0
C2008 C 0.86984 0.11255 0.13586 0.0
C2009 C 0.83355 0.14344 0.1506 0.0
C2010 C 0.83834 0.14069 0.12643 0.0
C2011 C 0.85942 0.1202 0.09463 0.0
C2012 C 0.87539 0.10247 0.08729 0.0
C2013 C 0.85608 0.12488 0.11886 0.0
C2014 C 0.88912 0.09047 0.10427 0.0
C2015 C 0.88669 0.09578 0.12834 0.0
H2016 H 0.35135 0.62737 0.58237 0.0
H2017 H 0.40288 0.57345 0.59987 0.0
H2018 H 0.39648 0.58075 0.6422 0.0
H2019 H 0.37344 0.59974 0.67401 0.0
H2020 H 0.31839 0.64996 0.65622 0.0
H2021 H 0.329 0.64706 0.61422 0.0
C2022 C 0.3615 0.61757 0.59548 0.0
C2023 C 0.3777 0.60005 0.58811 0.0
C2024 C 0.35691 0.6211 0.6197 0.0
C2025 C 0.39037 0.58707 0.60521 0.0
C2026 C 0.38666 0.5912 0.62936 0.0
C2027 C 0.36409 0.61037 0.66095 0.0
C2028 C 0.34529 0.62517 0.66812 0.0
C2029 C 0.36958 0.60778 0.6368 0.0
C2030 C 0.33295 0.63848 0.65105 0.0
C2031 C 0.33898 0.63678 0.62707 0.0
H2032 H 0.13726 0.58565 0.33082 0.0
H2033 H 0.19133 0.63697 0.34817 0.0
H2034 H 0.18353 0.63116 0.39049 0.0
H2035 H 0.16372 0.60905 0.42243 0.0
H2036 H 0.11308 0.55438 0.40499 0.0
H2037 H 0.11693 0.564 0.36281 0.0
C2038 C 0.14705 0.59584 0.34388 0.0
C2039 C 0.16473 0.61183 0.33646 0.0
C2040 C 0.14315 0.59166 0.36813 0.0
C2041 C 0.17762 0.62458 0.35352 0.0
C2042 C 0.17319 0.62123 0.37768 0.0
C2043 C 0.15322 0.59954 0.4094 0.0
C2044 C 0.13799 0.58117 0.41675 0.0
C2045 C 0.15632 0.60449 0.38519 0.0
C2046 C 0.12486 0.56863 0.3997 0.0
C2047 C 0.12711 0.5741 0.37562 0.0
H2048 H 0.34828 0.37917 0.91809 0.0
H2049 H 0.39616 0.43602 0.8998 0.0
H2050 H 0.38958 0.42834 0.85759 0.0
H2051 H 0.36736 0.40796 0.82612 0.0
H2052 H 0.31593 0.35437 0.84465 0.0
H2053 H 0.32679 0.35807 0.88652 0.0
C2054 C 0.3576 0.38955 0.90483 0.0
C2055 C 0.37281 0.40801 0.91196 0.0
C2056 C 0.3529 0.38572 0.88067 0.0
C2057 C 0.38441 0.42169 0.89467 0.0
C2058 C 0.3806 0.41734 0.87057 0.0
C2059 C 0.35885 0.3968 0.8393 0.0
C2060 C 0.34098 0.38082 0.83236 0.0
C2061 C 0.36448 0.39976 0.86338 0.0
C2062 C 0.32975 0.36678 0.84962 0.0
C2063 C 0.33593 0.36893 0.87353 0.0
H2064 H 0.59127 0.61383 0.91584 0.0
H2065 H 0.56211 0.66609 0.86808 0.0
H2066 H 0.602 0.67627 0.85437 0.0
H2067 H 0.6455 0.67315 0.85909 0.0
H2068 H 0.67443 0.61903 0.90493 0.0
H2069 H 0.63443 0.60658 0.91602 0.0
C2070 C 0.59366 0.62713 0.90212 0.0
C2071 C 0.57383 0.63934 0.89315 0.0
C2072 C 0.61665 0.6327 0.8941 0.0
C2073 C 0.57711 0.65638 0.87522 0.0
C2074 C 0.59994 0.66234 0.86749 0.0
C2075 C 0.64299 0.65839 0.87119 0.0
C2076 C 0.66287 0.6472 0.88135 0.0
C2077 C 0.61988 0.65106 0.87726 0.0
C2078 C 0.65941 0.62792 0.89682 0.0
C2079 C 0.63653 0.62086 0.9033 0.0
H2080 H 0.64158 0.35067 0.16511 0.0
H2081 H 0.5858 0.31936 0.12315 0.0
H2082 H 0.5753 0.35838 0.1073 0.0
H2083 H 0.5795 0.40197 0.10847 0.0
H2084 H 0.63708 0.4329 0.14831 0.0
H2085 H 0.64957 0.39357 0.16153 0.0
C2086 C 0.62738 0.35241 0.15223 0.0
C2087 C 0.61432 0.33228 0.1455 0.0
C2088 C 0.6217 0.37485 0.14285 0.0
C2089 C 0.59614 0.33464 0.12858 0.0
C2090 C 0.59003 0.35696 0.1196 0.0
C2091 C 0.59504 0.40002 0.11968 0.0
C2092 C 0.60719 0.42032 0.12757 0.0
C2093 C 0.60233 0.37728 0.12704 0.0
C2094 C 0.62743 0.41755 0.14193 0.0
C2095 C 0.63451 0.39506 0.14966 0.0
H2096 H 0.82815 0.37035 0.4113 0.0
H2097 H 0.84273 0.31317 0.3626 0.0
H2098 H 0.88542 0.3205 0.3663 0.0
H2099 H 0.91857 0.3405 0.38649 0.0
H2100 H 0.90381 0.39438 0.43877 0.0
H2101 H 0.86126 0.39123 0.43048 0.0
C2102 C 0.84068 0.35983 0.40114 0.0
C2103 C 0.83237 0.34136 0.38658 0.0
C2104 C 0.86517 0.36345 0.40419 0.0
C2105 C 0.84876 0.32752 0.37388 0.0
C2106 C 0.87315 0.33166 0.37605 0.0
C2107 C 0.90604 0.35185 0.39572 0.0
C2108 C 0.91424 0.36773 0.41312 0.0
C2109 C 0.88157 0.34919 0.3916 0.0
C2110 C 0.89785 0.38203 0.4253 0.0
C2111 C 0.87355 0.3802 0.4206 0.0
H2112 H 0.90209 0.6734 0.63191 0.0
H2113 H 0.85506 0.65415 0.68909 0.0
H2114 H 0.86109 0.612 0.6802 0.0
H2115 H 0.88288 0.58074 0.65879 0.0
H2116 H 0.93365 0.60025 0.60497 0.0
H2117 H 0.92295 0.64214 0.6097 0.0
C2118 C 0.89279 0.65996 0.64209 0.0
C2119 C 0.87799 0.66683 0.661 0.0
C2120 C 0.89722 0.63581 0.63757 0.0
C2121 C 0.86646 0.64926 0.6744 0.0
C2122 C 0.86998 0.62518 0.66937 0.0
C2123 C 0.89124 0.59414 0.64778 0.0
C2124 C 0.9089 0.58745 0.63142 0.0
C2125 C 0.88576 0.61825 0.65137 0.0
C2126 C 0.91998 0.60501 0.61763 0.0
C2127 C 0.9139 0.62894 0.62038 0.0
H2128 H 0.57702 0.34651 0.618 0.0
H2129 H 0.59615 0.40134 0.56815 0.0
H2130 H 0.63754 0.39922 0.58131 0.0
H2131 H 0.66876 0.37911 0.60417 0.0
H2132 H 0.65042 0.32082 0.65026 0.0
H2133 H 0.6082 0.32703 0.64167 0.0
C2134 C 0.59021 0.35829 0.61037 0.0
C2135 C 0.58361 0.37418 0.59227 0.0
C2136 C 0.6141 0.3562 0.61727 0.0
C2137 C 0.60088 0.38901 0.58213 0.0
C2138 C 0.62451 0.38776 0.58962 0.0
C2139 C 0.65546 0.36809 0.6127 0.0
C2140 C 0.66259 0.34967 0.62798 0.0
C2141 C 0.63141 0.37106 0.60679 0.0
C2142 C 0.64528 0.33516 0.6385 0.0
C2143 C 0.62119 0.33867 0.63353 0.0
H2144 H 0.90844 0.32754 0.87202 0.0
H2145 H 0.85574 0.34583 0.81964 0.0
H2146 H 0.86078 0.38803 0.82883 0.0
H2147 H 0.88289 0.41975 0.84899 0.0
H2148 H 0.93928 0.40159 0.89745 0.0
H2149 H 0.93006 0.35933 0.8928 0.0
C2150 C 0.89774 0.34078 0.86298 0.0
C2151 C 0.88156 0.33367 0.84536 0.0
C2152 C 0.90159 0.36502 0.86756 0.0
C2153 C 0.86821 0.35095 0.83334 0.0
C2154 C 0.87115 0.37505 0.83854 0.0
C2155 C 0.89284 0.40653 0.85888 0.0
C2156 C 0.91158 0.41371 0.87372 0.0
C2157 C 0.88816 0.3823 0.85523 0.0
C2158 C 0.92472 0.39644 0.886 0.0
C2159 C 0.91948 0.37231 0.88329 0.0
H2160 H 0.82457 0.63918 0.09383 0.0
H2161 H 0.84264 0.69426 0.14373 0.0
H2162 H 0.88471 0.6838 0.14044 0.0
H2163 H 0.91656 0.66182 0.12023 0.0
H2164 H 0.89868 0.61001 0.06689 0.0
H2165 H 0.85637 0.61611 0.07477 0.0
C2166 C 0.83769 0.64855 0.10434 0.0
C2167 C 0.83056 0.66737 0.1191 0.0
C2168 C 0.8619 0.64312 0.10155 0.0
C2169 C 0.84775 0.67969 0.13227 0.0
C2170 C 0.87179 0.67375 0.13034 0.0
C2171 C 0.90339 0.65153 0.11069 0.0
C2172 C 0.91068 0.6354 0.0931 0.0
C2173 C 0.87912 0.6559 0.11459 0.0
C2174 C 0.89345 0.62251 0.08053 0.0
C2175 C 0.86928 0.62604 0.08498 0.0
H2176 H 0.60373 0.67156 0.3719 0.0
H2177 H 0.65383 0.6551 0.31649 0.0
H2178 H 0.64769 0.61256 0.32318 0.0
H2179 H 0.62471 0.58039 0.34163 0.0
H2180 H 0.57085 0.59724 0.39333 0.0
H2181 H 0.58185 0.63926 0.39146 0.0
C2182 C 0.61371 0.65861 0.36171 0.0
C2183 C 0.62937 0.66634 0.34389 0.0
C2184 C 0.60915 0.63429 0.36483 0.0
C2185 C 0.64177 0.64948 0.33037 0.0
C2186 C 0.63818 0.6252 0.33413 0.0
C2187 C 0.61572 0.59322 0.35282 0.0
C2188 C 0.59708 0.58579 0.36768 0.0
C2189 C 0.62142 0.61743 0.35085 0.0
C2190 C 0.58525 0.6026 0.38176 0.0
C2191 C 0.59151 0.6266 0.38066 0.0
H2192 H 0.6486 0.87186 0.58172 0.0
H2193 H 0.59843 0.92706 0.5991 0.0
H2194 H 0.6037 0.91883 0.64141 0.0
H2195 H 0.62603 0.89915 0.67332 0.0
H2196 H 0.68013 0.84788 0.65575 0.0
H2197 H 0.66977 0.85104 0.6137 0.0
C2198 C 0.63844 0.8817 0.5948 0.0
C2199 C 0.62303 0.89992 0.5874 0.0
C2200 C 0.64247 0.87766 0.61905 0.0
C2201 C 0.61035 0.91292 0.60445 0.0
C2202 C 0.61342 0.90826 0.6286 0.0
C2203 C 0.63514 0.88828 0.6603 0.0
C2204 C 0.65366 0.87316 0.66754 0.0
C2205 C 0.62991 0.89113 0.63611 0.0
C2206 C 0.66575 0.85957 0.65052 0.0
C2207 C 0.65989 0.86145 0.62651 0.0
loop_
_geom_bond_atom_site_label_1
_geom_bond_atom_site_label_2
_geom_bond_distance
_geom_bond_site_symmetry_2
_ccdc_geom_bond_type
O0 Cd1 2.223 . S
O0 C8 1.315 . S
Cd1 O0 2.223 . S
Cd1 O4 2.297 . S
Cd1 O5 2.439 . S
Cd1 O11 2.240 . S
Cd2 O3 2.240 . S
Cd2 O10 2.223 . S
Cd2 O12 2.297 . S
Cd2 O13 2.439 . S
O3 Cd2 2.240 . S
O3 C8 1.279 . S
O4 Cd1 2.297 . S
O4 C6 1.247 . S
O5 Cd1 2.439 . S
O5 C6 1.208 . S
C6 O4 1.247 . S
C6 O5 1.208 . S
C7 O12 1.247 . S
C7 O13 1.208 . S
C8 O0 1.315 . S
C8 O3 1.279 . S
C9 O10 1.315 . S
C9 O11 1.279 . S
O10 Cd2 2.223 . S
O10 C9 1.315 . S
O11 Cd1 2.240 . S
O11 C9 1.279 . S
O12 Cd2 2.297 . S
O12 C7 1.247 . S
O13 Cd2 2.439 . S
O13 C7 1.208 . S
O14 Cd15 2.223 . S
O14 C22 1.315 . S
Cd15 O14 2.223 . S
Cd15 O18 2.297 . S
Cd15 O19 2.439 . S
Cd15 O25 2.240 . S
Cd16 O17 2.240 . S
Cd16 O24 2.223 1_565 S
Cd16 O26 2.297 . S
Cd16 O27 2.439 . S
O17 Cd16 2.240 . S
O17 C22 1.279 1_655 S
O18 Cd15 2.297 . S
O18 C20 1.247 . S
O19 Cd15 2.439 . S
O19 C20 1.208 . S
C20 O18 1.247 . S
C20 O19 1.208 . S
C21 O26 1.247 . S
C21 O27 1.208 . S
C22 O14 1.315 . S
C22 O17 1.279 1_455 S
C23 O24 1.315 1_455 S
C23 O25 1.279 1_545 S
O24 Cd16 2.223 1_545 S
O24 C23 1.315 1_655 S
O25 Cd15 2.240 . S
O25 C23 1.279 1_565 S
O26 Cd16 2.297 . S
O26 C21 1.247 . S
O27 Cd16 2.439 . S
O27 C21 1.208 . S
O28 Cd29 2.223 . S
O28 C36 1.315 . S
Cd29 O28 2.223 . S
Cd29 O32 2.297 . S
Cd29 O33 2.439 . S
Cd29 O39 2.240 . S
Cd30 O31 2.240 . S
Cd30 O38 2.223 . S
Cd30 O40 2.297 . S
Cd30 O41 2.439 . S
O31 Cd30 2.240 . S
O31 C36 1.279 . S
O32 Cd29 2.297 . S
O32 C34 1.247 . S
O33 Cd29 2.439 . S
O33 C34 1.208 . S
C34 O32 1.247 . S
C34 O33 1.208 . S
C35 O40 1.247 . S
C35 O41 1.208 . S
C36 O28 1.315 . S
C36 O31 1.279 . S
C37 O38 1.315 . S
C37 O39 1.279 . S
O38 Cd30 2.223 . S
O38 C37 1.315 . S
O39 Cd29 2.240 . S
O39 C37 1.279 . S
O40 Cd30 2.297 . S
O40 C35 1.247 . S
O41 Cd30 2.439 . S
O41 C35 1.208 . S
O42 Cd43 2.223 . S
O42 C50 1.315 . S
Cd43 O42 2.223 . S
Cd43 O46 2.297 . S
Cd43 O47 2.439 . S
Cd43 O53 2.240 . S
Cd44 O45 2.240 . S
Cd44 O52 2.223 1_545 S
Cd44 O54 2.297 . S
Cd44 O55 2.439 . S
O45 Cd44 2.240 . S
O45 C50 1.279 . S
O46 Cd43 2.297 . S
O46 C48 1.247 . S
O47 Cd43 2.439 . S
O47 C48 1.208 . S
C48 O46 1.247 . S
C48 O47 1.208 . S
C49 O54 1.247 . S
C49 O55 1.208 . S
C50 O42 1.315 . S
C50 O45 1.279 . S
C51 O52 1.315 . S
C51 O53 1.279 1_565 S
O52 Cd44 2.223 1_565 S
O52 C51 1.315 . S
O53 Cd43 2.240 . S
O53 C51 1.279 1_545 S
O54 Cd44 2.297 . S
O54 C49 1.247 . S
O55 Cd44 2.439 . S
O55 C49 1.208 . S
O56 Cd57 2.223 . S
O56 C64 1.315 . S
Cd57 O56 2.223 . S
Cd57 O60 2.297 . S
Cd57 O61 2.439 . S
Cd57 O67 2.240 . S
Cd58 O59 2.240 . S
Cd58 O66 2.223 . S
Cd58 O68 2.297 . S
Cd58 O69 2.439 . S
O59 Cd58 2.240 . S
O59 C64 1.279 . S
O60 Cd57 2.297 . S
O60 C62 1.247 . S
O61 Cd57 2.439 . S
O61 C62 1.208 . S
C62 O60 1.247 . S
C62 O61 1.208 . S
C63 O68 1.247 . S
C63 O69 1.208 . S
C64 O56 1.315 . S
C64 O59 1.279 . S
C65 O66 1.315 . S
C65 O67 1.279 . S
O66 Cd58 2.223 . S
O66 C65 1.315 . S
O67 Cd57 2.240 . S
O67 C65 1.279 . S
O68 Cd58 2.297 . S
O68 C63 1.247 . S
O69 Cd58 2.439 . S
O69 C63 1.208 . S
O70 Cd71 2.223 . S
O70 C78 1.315 . S
Cd71 O70 2.223 . S
Cd71 O74 2.297 . S
Cd71 O75 2.439 . S
Cd71 O81 2.240 . S
Cd72 O73 2.240 . S
Cd72 O80 2.223 1_565 S
Cd72 O82 2.297 . S
Cd72 O83 2.439 . S
O73 Cd72 2.240 . S
O73 C78 1.279 . S
O74 Cd71 2.297 . S
O74 C76 1.247 . S
O75 Cd71 2.439 . S
O75 C76 1.208 . S
C76 O74 1.247 . S
C76 O75 1.208 . S
C77 O82 1.247 . S
C77 O83 1.208 . S
C78 O70 1.315 . S
C78 O73 1.279 . S
C79 O80 1.315 . S
C79 O81 1.279 1_545 S
O80 Cd72 2.223 1_545 S
O80 C79 1.315 . S
O81 Cd71 2.240 . S
O81 C79 1.279 1_565 S
O82 Cd72 2.297 . S
O82 C77 1.247 . S
O83 Cd72 2.439 . S
O83 C77 1.208 . S
O84 Cd85 2.223 . S
O84 C92 1.315 . S
Cd85 O84 2.223 . S
Cd85 O88 2.297 . S
Cd85 O89 2.439 . S
Cd85 O95 2.240 . S
Cd86 O87 2.240 . S
Cd86 O94 2.223 . S
Cd86 O96 2.297 . S
Cd86 O97 2.439 . S
O87 Cd86 2.240 . S
O87 C92 1.279 . S
O88 Cd85 2.297 . S
O88 C90 1.247 . S
O89 Cd85 2.439 . S
O89 C90 1.208 . S
C90 O88 1.247 . S
C90 O89 1.208 . S
C91 O96 1.247 . S
C91 O97 1.208 . S
C92 O84 1.315 . S
C92 O87 1.279 . S
C93 O94 1.315 . S
C93 O95 1.279 . S
O94 Cd86 2.223 . S
O94 C93 1.315 . S
O95 Cd85 2.240 . S
O95 C93 1.279 . S
O96 Cd86 2.297 . S
O96 C91 1.247 . S
O97 Cd86 2.439 . S
O97 C91 1.208 . S
O98 Cd99 2.223 . S
O98 C106 1.315 . S
Cd99 O98 2.223 . S
Cd99 O102 2.297 . S
Cd99 O103 2.439 . S
Cd99 O109 2.240 . S
Cd100 O101 2.240 . S
Cd100 O108 2.223 1_545 S
Cd100 O110 2.297 . S
Cd100 O111 2.439 . S
O101 Cd100 2.240 . S
O101 C106 1.279 1_655 S
O102 Cd99 2.297 . S
O102 C104 1.247 . S
O103 Cd99 2.439 . S
O103 C104 1.208 . S
C104 O102 1.247 . S
C104 O103 1.208 . S
C105 O110 1.247 . S
C105 O111 1.208 . S
C106 O98 1.315 . S
C106 O101 1.279 1_455 S
C107 O108 1.315 1_455 S
C107 O109 1.279 1_565 S
O108 Cd100 2.223 1_565 S
O108 C107 1.315 1_655 S
O109 Cd99 2.240 . S
O109 C107 1.279 1_545 S
O110 Cd100 2.297 . S
O110 C105 1.247 . S
O111 Cd100 2.439 . S
O111 C105 1.208 . S
O112 Cd113 2.223 . S
O112 C120 1.315 . S
Cd113 O112 2.223 . S
Cd113 O116 2.297 . S
Cd113 O117 2.439 . S
Cd113 O123 2.240 . S
Cd114 O115 2.240 . S
Cd114 O122 2.223 . S
Cd114 O124 2.297 . S
Cd114 O125 2.439 . S
O115 Cd114 2.240 . S
O115 C120 1.279 . S
O116 Cd113 2.297 . S
O116 C118 1.247 . S
O117 Cd113 2.439 . S
O117 C118 1.208 . S
C118 O116 1.247 . S
C118 O117 1.208 . S
C119 O124 1.247 . S
C119 O125 1.208 . S
C120 O112 1.315 . S
C120 O115 1.279 . S
C121 O122 1.315 . S
C121 O123 1.279 . S
O122 Cd114 2.223 . S
O122 C121 1.315 . S
O123 Cd113 2.240 . S
O123 C121 1.279 . S
O124 Cd114 2.297 . S
O124 C119 1.247 . S
O125 Cd114 2.439 . S
O125 C119 1.208 . S
O126 Cd127 2.223 . S
O126 C134 1.315 . S
Cd127 O126 2.223 . S
Cd127 O130 2.297 . S
Cd127 O131 2.439 . S
Cd127 O137 2.240 . S
Cd128 O129 2.240 . S
Cd128 O136 2.223 1_455 S
Cd128 O138 2.297 . S
Cd128 O139 2.439 . S
O129 Cd128 2.240 . S
O129 C134 1.279 . S
O130 Cd127 2.297 . S
O130 C132 1.247 . S
O131 Cd127 2.439 . S
O131 C132 1.208 . S
C132 O130 1.247 . S
C132 O131 1.208 . S
C133 O138 1.247 . S
C133 O139 1.208 . S
C134 O126 1.315 . S
C134 O129 1.279 . S
C135 O136 1.315 . S
C135 O137 1.279 1_655 S
O136 Cd128 2.223 1_655 S
O136 C135 1.315 . S
O137 Cd127 2.240 . S
O137 C135 1.279 1_455 S
O138 Cd128 2.297 . S
O138 C133 1.247 . S
O139 Cd128 2.439 . S
O139 C133 1.208 . S
O140 Cd141 2.223 . S
O140 C148 1.315 . S
Cd141 O140 2.223 . S
Cd141 O144 2.297 . S
Cd141 O145 2.439 . S
Cd141 O151 2.240 . S
Cd142 O143 2.240 . S
Cd142 O150 2.223 . S
Cd142 O152 2.297 . S
Cd142 O153 2.439 . S
O143 Cd142 2.240 . S
O143 C148 1.279 . S
O144 Cd141 2.297 . S
O144 C146 1.247 . S
O145 Cd141 2.439 . S
O145 C146 1.208 . S
C146 O144 1.247 . S
C146 O145 1.208 . S
C147 O152 1.247 . S
C147 O153 1.208 . S
C148 O140 1.315 . S
C148 O143 1.279 . S
C149 O150 1.315 . S
C149 O151 1.279 . S
O150 Cd142 2.223 . S
O150 C149 1.315 . S
O151 Cd141 2.240 . S
O151 C149 1.279 . S
O152 Cd142 2.297 . S
O152 C147 1.247 . S
O153 Cd142 2.439 . S
O153 C147 1.208 . S
O154 Cd155 2.223 . S
O154 C162 1.315 . S
Cd155 O154 2.223 . S
Cd155 O158 2.297 . S
Cd155 O159 2.439 . S
Cd155 O165 2.240 . S
Cd156 O157 2.240 . S
Cd156 O164 2.223 . S
Cd156 O166 2.297 . S
Cd156 O167 2.439 . S
O157 Cd156 2.240 . S
O157 C162 1.279 1_554 S
O158 Cd155 2.297 . S
O158 C160 1.247 . S
O159 Cd155 2.439 . S
O159 C160 1.208 . S
C160 O158 1.247 . S
C160 O159 1.208 . S
C161 O166 1.247 . S
C161 O167 1.208 . S
C162 O154 1.315 . S
C162 O157 1.279 1_556 S
C163 O164 1.315 1_556 S
C163 O165 1.279 . S
O164 Cd156 2.223 . S
O164 C163 1.315 1_554 S
O165 Cd155 2.240 . S
O165 C163 1.279 . S
O166 Cd156 2.297 . S
O166 C161 1.247 . S
O167 Cd156 2.439 . S
O167 C161 1.208 . S
O168 Cd169 2.223 . S
O168 C176 1.315 . S
Cd169 O168 2.223 . S
Cd169 O172 2.297 . S
Cd169 O173 2.439 . S
Cd169 O179 2.240 . S
Cd170 O171 2.240 . S
Cd170 O178 2.223 . S
Cd170 O180 2.297 . S
Cd170 O181 2.439 . S
O171 Cd170 2.240 . S
O171 C176 1.279 . S
O172 Cd169 2.297 . S
O172 C174 1.247 . S
O173 Cd169 2.439 . S
O173 C174 1.208 . S
C174 O172 1.247 . S
C174 O173 1.208 . S
C175 O180 1.247 . S
C175 O181 1.208 . S
C176 O168 1.315 . S
C176 O171 1.279 . S
C177 O178 1.315 . S
C177 O179 1.279 . S
O178 Cd170 2.223 . S
O178 C177 1.315 . S
O179 Cd169 2.240 . S
O179 C177 1.279 . S
O180 Cd170 2.297 . S
O180 C175 1.247 . S
O181 Cd170 2.439 . S
O181 C175 1.208 . S
O182 Cd183 2.223 . S
O182 C190 1.315 . S
Cd183 O182 2.223 . S
Cd183 O186 2.297 . S
Cd183 O187 2.439 . S
Cd183 O193 2.240 . S
Cd184 O185 2.240 . S
Cd184 O192 2.223 . S
Cd184 O194 2.297 . S
Cd184 O195 2.439 . S
O185 Cd184 2.240 . S
O185 C190 1.279 . S
O186 Cd183 2.297 . S
O186 C188 1.247 . S
O187 Cd183 2.439 . S
O187 C188 1.208 . S
C188 O186 1.247 . S
C188 O187 1.208 . S
C189 O194 1.247 . S
C189 O195 1.208 . S
C190 O182 1.315 . S
C190 O185 1.279 . S
C191 O192 1.315 . S
C191 O193 1.279 . S
O192 Cd184 2.223 . S
O192 C191 1.315 . S
O193 Cd183 2.240 . S
O193 C191 1.279 . S
O194 Cd184 2.297 . S
O194 C189 1.247 . S
O195 Cd184 2.439 . S
O195 C189 1.208 . S
O196 Cd197 2.223 . S
O196 C204 1.315 . S
Cd197 O196 2.223 . S
Cd197 O200 2.297 . S
Cd197 O201 2.439 . S
Cd197 O207 2.240 . S
Cd198 O199 2.240 . S
Cd198 O206 2.223 . S
Cd198 O208 2.297 . S
Cd198 O209 2.439 . S
O199 Cd198 2.240 . S
O199 C204 1.279 . S
O200 Cd197 2.297 . S
O200 C202 1.247 . S
O201 Cd197 2.439 . S
O201 C202 1.208 . S
C202 O200 1.247 . S
C202 O201 1.208 . S
C203 O208 1.247 . S
C203 O209 1.208 . S
C204 O196 1.315 . S
C204 O199 1.279 . S
C205 O206 1.315 . S
C205 O207 1.279 . S
O206 Cd198 2.223 . S
O206 C205 1.315 . S
O207 Cd197 2.240 . S
O207 C205 1.279 . S
O208 Cd198 2.297 . S
O208 C203 1.247 . S
O209 Cd198 2.439 . S
O209 C203 1.208 . S
O210 Cd211 2.223 . S
O210 C218 1.315 . S
Cd211 O210 2.223 . S
Cd211 O214 2.297 . S
Cd211 O215 2.439 . S
Cd211 O221 2.240 . S
Cd212 O213 2.240 . S
Cd212 O220 2.223 1_455 S
Cd212 O222 2.297 . S
Cd212 O223 2.439 . S
O213 Cd212 2.240 . S
O213 C218 1.279 1_556 S
O214 Cd211 2.297 . S
O214 C216 1.247 . S
O215 Cd211 2.439 . S
O215 C216 1.208 . S
C216 O214 1.247 . S
C216 O215 1.208 . S
C217 O222 1.247 . S
C217 O223 1.208 . S
C218 O210 1.315 . S
C218 O213 1.279 1_554 S
C219 O220 1.315 1_554 S
C219 O221 1.279 1_655 S
O220 Cd212 2.223 1_655 S
O220 C219 1.315 1_556 S
O221 Cd211 2.240 . S
O221 C219 1.279 1_455 S
O222 Cd212 2.297 . S
O222 C217 1.247 . S
O223 Cd212 2.439 . S
O223 C217 1.208 . S
O224 Cd225 2.223 . S
O224 C232 1.315 . S
Cd225 O224 2.223 . S
Cd225 O228 2.297 . S
Cd225 O229 2.439 . S
Cd225 O235 2.240 . S
Cd226 O227 2.240 . S
Cd226 O234 2.223 . S
Cd226 O236 2.297 . S
Cd226 O237 2.439 . S
O227 Cd226 2.240 . S
O227 C232 1.279 . S
O228 Cd225 2.297 . S
O228 C230 1.247 . S
O229 Cd225 2.439 . S
O229 C230 1.208 . S
C230 O228 1.247 . S
C230 O229 1.208 . S
C231 O236 1.247 . S
C231 O237 1.208 . S
C232 O224 1.315 . S
C232 O227 1.279 . S
C233 O234 1.315 . S
C233 O235 1.279 . S
O234 Cd226 2.223 . S
O234 C233 1.315 . S
O235 Cd225 2.240 . S
O235 C233 1.279 . S
O236 Cd226 2.297 . S
O236 C231 1.247 . S
O237 Cd226 2.439 . S
O237 C231 1.208 . S
O238 Cd239 2.223 . S
O238 C246 1.315 . S
Cd239 O238 2.223 . S
Cd239 O242 2.297 . S
Cd239 O243 2.439 . S
Cd239 O249 2.240 . S
Cd240 O241 2.240 . S
Cd240 O248 2.223 . S
Cd240 O250 2.297 . S
Cd240 O251 2.439 . S
O241 Cd240 2.240 . S
O241 C246 1.279 . S
O242 Cd239 2.297 . S
O242 C244 1.247 . S
O243 Cd239 2.439 . S
O243 C244 1.208 . S
C244 O242 1.247 . S
C244 O243 1.208 . S
C245 O250 1.247 . S
C245 O251 1.208 . S
C246 O238 1.315 . S
C246 O241 1.279 . S
C247 O248 1.315 . S
C247 O249 1.279 . S
O248 Cd240 2.223 . S
O248 C247 1.315 . S
O249 Cd239 2.240 . S
O249 C247 1.279 . S
O250 Cd240 2.297 . S
O250 C245 1.247 . S
O251 Cd240 2.439 . S
O251 C245 1.208 . S
O252 Cd253 2.223 . S
O252 C260 1.315 . S
Cd253 O252 2.223 . S
Cd253 O256 2.297 . S
Cd253 O257 2.439 . S
Cd253 O263 2.240 . S
Cd254 O255 2.240 . S
Cd254 O262 2.223 1_554 S
Cd254 O264 2.297 . S
Cd254 O265 2.439 . S
O255 Cd254 2.240 . S
O255 C260 1.279 . S
O256 Cd253 2.297 . S
O256 C258 1.247 . S
O257 Cd253 2.439 . S
O257 C258 1.208 . S
C258 O256 1.247 . S
C258 O257 1.208 . S
C259 O264 1.247 . S
C259 O265 1.208 . S
C260 O252 1.315 . S
C260 O255 1.279 . S
C261 O262 1.315 . S
C261 O263 1.279 1_556 S
O262 Cd254 2.223 1_556 S
O262 C261 1.315 . S
O263 Cd253 2.240 . S
O263 C261 1.279 1_554 S
O264 Cd254 2.297 . S
O264 C259 1.247 . S
O265 Cd254 2.439 . S
O265 C259 1.208 . S
O266 Cd267 2.223 . S
O266 C274 1.315 . S
Cd267 O266 2.223 . S
Cd267 O270 2.297 . S
Cd267 O271 2.439 . S
Cd267 O277 2.240 . S
Cd268 O269 2.240 . S
Cd268 O276 2.223 . S
Cd268 O278 2.297 . S
Cd268 O279 2.439 . S
O269 Cd268 2.240 . S
O269 C274 1.279 . S
O270 Cd267 2.297 . S
O270 C272 1.247 . S
O271 Cd267 2.439 . S
O271 C272 1.208 . S
C272 O270 1.247 . S
C272 O271 1.208 . S
C273 O278 1.247 . S
C273 O279 1.208 . S
C274 O266 1.315 . S
C274 O269 1.279 . S
C275 O276 1.315 . S
C275 O277 1.279 . S
O276 Cd268 2.223 . S
O276 C275 1.315 . S
O277 Cd267 2.240 . S
O277 C275 1.279 . S
O278 Cd268 2.297 . S
O278 C273 1.247 . S
O279 Cd268 2.439 . S
O279 C273 1.208 . S
O280 Cd281 2.223 . S
O280 C288 1.315 . S
Cd281 O280 2.223 . S
Cd281 O284 2.297 . S
Cd281 O285 2.439 . S
Cd281 O291 2.240 . S
Cd282 O283 2.240 . S
Cd282 O290 2.223 1_554 S
Cd282 O292 2.297 . S
Cd282 O293 2.439 . S
O283 Cd282 2.240 . S
O283 C288 1.279 1_565 S
O284 Cd281 2.297 . S
O284 C286 1.247 . S
O285 Cd281 2.439 . S
O285 C286 1.208 . S
C286 O284 1.247 . S
C286 O285 1.208 . S
C287 O292 1.247 . S
C287 O293 1.208 . S
C288 O280 1.315 . S
C288 O283 1.279 1_545 S
C289 O290 1.315 1_545 S
C289 O291 1.279 1_556 S
O290 Cd282 2.223 1_556 S
O290 C289 1.315 1_565 S
O291 Cd281 2.240 . S
O291 C289 1.279 1_554 S
O292 Cd282 2.297 . S
O292 C287 1.247 . S
O293 Cd282 2.439 . S
O293 C287 1.208 . S
O294 Cd295 2.223 . S
O294 C302 1.315 . S
Cd295 O294 2.223 . S
Cd295 O298 2.297 . S
Cd295 O299 2.439 . S
Cd295 O305 2.240 . S
Cd296 O297 2.240 . S
Cd296 O304 2.223 . S
Cd296 O306 2.297 . S
Cd296 O307 2.439 . S
O297 Cd296 2.240 . S
O297 C302 1.279 . S
O298 Cd295 2.297 . S
O298 C300 1.247 . S
O299 Cd295 2.439 . S
O299 C300 1.208 . S
C300 O298 1.247 . S
C300 O299 1.208 . S
C301 O306 1.247 . S
C301 O307 1.208 . S
C302 O294 1.315 . S
C302 O297 1.279 . S
C303 O304 1.315 . S
C303 O305 1.279 . S
O304 Cd296 2.223 . S
O304 C303 1.315 . S
O305 Cd295 2.240 . S
O305 C303 1.279 . S
O306 Cd296 2.297 . S
O306 C301 1.247 . S
O307 Cd296 2.439 . S
O307 C301 1.208 . S
O308 Cd309 2.223 . S
O308 C316 1.315 . S
Cd309 O308 2.223 . S
Cd309 O312 2.297 . S
Cd309 O313 2.439 . S
Cd309 O319 2.240 . S
Cd310 O311 2.240 . S
Cd310 O318 2.223 . S
Cd310 O320 2.297 . S
Cd310 O321 2.439 . S
O311 Cd310 2.240 . S
O311 C316 1.279 . S
O312 Cd309 2.297 . S
O312 C314 1.247 . S
O313 Cd309 2.439 . S
O313 C314 1.208 . S
C314 O312 1.247 . S
C314 O313 1.208 . S
C315 O320 1.247 . S
C315 O321 1.208 . S
C316 O308 1.315 . S
C316 O311 1.279 . S
C317 O318 1.315 . S
C317 O319 1.279 . S
O318 Cd310 2.223 . S
O318 C317 1.315 . S
O319 Cd309 2.240 . S
O319 C317 1.279 . S
O320 Cd310 2.297 . S
O320 C315 1.247 . S
O321 Cd310 2.439 . S
O321 C315 1.208 . S
O322 Cd323 2.223 . S
O322 C330 1.315 . S
Cd323 O322 2.223 . S
Cd323 O326 2.297 . S
Cd323 O327 2.439 . S
Cd323 O333 2.240 . S
Cd324 O325 2.240 . S
Cd324 O332 2.223 1_556 S
Cd324 O334 2.297 . S
Cd324 O335 2.439 . S
O325 Cd324 2.240 . S
O325 C330 1.279 . S
O326 Cd323 2.297 . S
O326 C328 1.247 . S
O327 Cd323 2.439 . S
O327 C328 1.208 . S
C328 O326 1.247 . S
C328 O327 1.208 . S
C329 O334 1.247 . S
C329 O335 1.208 . S
C330 O322 1.315 . S
C330 O325 1.279 . S
C331 O332 1.315 . S
C331 O333 1.279 1_554 S
O332 Cd324 2.223 1_554 S
O332 C331 1.315 . S
O333 Cd323 2.240 . S
O333 C331 1.279 1_556 S
O334 Cd324 2.297 . S
O334 C329 1.247 . S
O335 Cd324 2.439 . S
O335 C329 1.208 . S
O336 Cd337 2.223 . S
O336 C344 1.315 . S
Cd337 O336 2.223 . S
Cd337 O340 2.297 . S
Cd337 O341 2.439 . S
Cd337 O347 2.240 . S
Cd338 O339 2.240 . S
Cd338 O346 2.223 . S
Cd338 O348 2.297 . S
Cd338 O349 2.439 . S
O339 Cd338 2.240 . S
O339 C344 1.279 . S
O340 Cd337 2.297 . S
O340 C342 1.247 . S
O341 Cd337 2.439 . S
O341 C342 1.208 . S
C342 O340 1.247 . S
C342 O341 1.208 . S
C343 O348 1.247 . S
C343 O349 1.208 . S
C344 O336 1.315 . S
C344 O339 1.279 . S
C345 O346 1.315 . S
C345 O347 1.279 . S
O346 Cd338 2.223 . S
O346 C345 1.315 . S
O347 Cd337 2.240 . S
O347 C345 1.279 . S
O348 Cd338 2.297 . S
O348 C343 1.247 . S
O349 Cd338 2.439 . S
O349 C343 1.208 . S
O350 Cd351 2.223 . S
O350 C358 1.315 . S
Cd351 O350 2.223 . S
Cd351 O354 2.297 . S
Cd351 O355 2.439 . S
Cd351 O361 2.240 . S
Cd352 O353 2.240 . S
Cd352 O360 2.223 . S
Cd352 O362 2.297 . S
Cd352 O363 2.439 . S
O353 Cd352 2.240 . S
O353 C358 1.279 . S
O354 Cd351 2.297 . S
O354 C356 1.247 . S
O355 Cd351 2.439 . S
O355 C356 1.208 . S
C356 O354 1.247 . S
C356 O355 1.208 . S
C357 O362 1.247 . S
C357 O363 1.208 . S
C358 O350 1.315 . S
C358 O353 1.279 . S
C359 O360 1.315 . S
C359 O361 1.279 . S
O360 Cd352 2.223 . S
O360 C359 1.315 . S
O361 Cd351 2.240 . S
O361 C359 1.279 . S
O362 Cd352 2.297 . S
O362 C357 1.247 . S
O363 Cd352 2.439 . S
O363 C357 1.208 . S
O364 Cd365 2.223 . S
O364 C372 1.315 . S
Cd365 O364 2.223 . S
Cd365 O368 2.297 . S
Cd365 O369 2.439 . S
Cd365 O375 2.240 . S
Cd366 O367 2.240 . S
Cd366 O374 2.223 . S
Cd366 O376 2.297 . S
Cd366 O377 2.439 . S
O367 Cd366 2.240 . S
O367 C372 1.279 . S
O368 Cd365 2.297 . S
O368 C370 1.247 . S
O369 Cd365 2.439 . S
O369 C370 1.208 . S
C370 O368 1.247 . S
C370 O369 1.208 . S
C371 O376 1.247 . S
C371 O377 1.208 . S
C372 O364 1.315 . S
C372 O367 1.279 . S
C373 O374 1.315 . S
C373 O375 1.279 . S
O374 Cd366 2.223 . S
O374 C373 1.315 . S
O375 Cd365 2.240 . S
O375 C373 1.279 . S
O376 Cd366 2.297 . S
O376 C371 1.247 . S
O377 Cd366 2.439 . S
O377 C371 1.208 . S
O378 Cd379 2.223 . S
O378 C386 1.315 . S
Cd379 O378 2.223 . S
Cd379 O382 2.297 . S
Cd379 O383 2.439 . S
Cd379 O389 2.240 . S
Cd380 O381 2.240 . S
Cd380 O388 2.223 . S
Cd380 O390 2.297 . S
Cd380 O391 2.439 . S
O381 Cd380 2.240 . S
O381 C386 1.279 1_455 S
O382 Cd379 2.297 . S
O382 C384 1.247 . S
O383 Cd379 2.439 . S
O383 C384 1.208 . S
C384 O382 1.247 . S
C384 O383 1.208 . S
C385 O390 1.247 . S
C385 O391 1.208 . S
C386 O378 1.315 . S
C386 O381 1.279 1_655 S
C387 O388 1.315 1_655 S
C387 O389 1.279 . S
O388 Cd380 2.223 . S
O388 C387 1.315 1_455 S
O389 Cd379 2.240 . S
O389 C387 1.279 . S
O390 Cd380 2.297 . S
O390 C385 1.247 . S
O391 Cd380 2.439 . S
O391 C385 1.208 . S
O392 Cd393 2.223 . S
O392 C400 1.315 . S
Cd393 O392 2.223 . S
Cd393 O396 2.297 . S
Cd393 O397 2.439 . S
Cd393 O403 2.240 . S
Cd394 O395 2.240 . S
Cd394 O402 2.223 . S
Cd394 O404 2.297 . S
Cd394 O405 2.439 . S
O395 Cd394 2.240 . S
O395 C400 1.279 . S
O396 Cd393 2.297 . S
O396 C398 1.247 . S
O397 Cd393 2.439 . S
O397 C398 1.208 . S
C398 O396 1.247 . S
C398 O397 1.208 . S
C399 O404 1.247 . S
C399 O405 1.208 . S
C400 O392 1.315 . S
C400 O395 1.279 . S
C401 O402 1.315 . S
C401 O403 1.279 . S
O402 Cd394 2.223 . S
O402 C401 1.315 . S
O403 Cd393 2.240 . S
O403 C401 1.279 . S
O404 Cd394 2.297 . S
O404 C399 1.247 . S
O405 Cd394 2.439 . S
O405 C399 1.208 . S
O406 Cd407 2.223 . S
O406 C414 1.315 . S
Cd407 O406 2.223 . S
Cd407 O410 2.297 . S
Cd407 O411 2.439 . S
Cd407 O417 2.240 . S
Cd408 O409 2.240 . S
Cd408 O416 2.223 . S
Cd408 O418 2.297 . S
Cd408 O419 2.439 . S
O409 Cd408 2.240 . S
O409 C414 1.279 1_455 S
O410 Cd407 2.297 . S
O410 C412 1.247 . S
O411 Cd407 2.439 . S
O411 C412 1.208 . S
C412 O410 1.247 . S
C412 O411 1.208 . S
C413 O418 1.247 . S
C413 O419 1.208 . S
C414 O406 1.315 . S
C414 O409 1.279 1_655 S
C415 O416 1.315 1_655 S
C415 O417 1.279 . S
O416 Cd408 2.223 . S
O416 C415 1.315 1_455 S
O417 Cd407 2.240 . S
O417 C415 1.279 . S
O418 Cd408 2.297 . S
O418 C413 1.247 . S
O419 Cd408 2.439 . S
O419 C413 1.208 . S
O420 Cd421 2.223 . S
O420 C428 1.315 . S
Cd421 O420 2.223 . S
Cd421 O424 2.297 . S
Cd421 O425 2.439 . S
Cd421 O431 2.240 . S
Cd422 O423 2.240 . S
Cd422 O430 2.223 . S
Cd422 O432 2.297 . S
Cd422 O433 2.439 . S
O423 Cd422 2.240 . S
O423 C428 1.279 . S
O424 Cd421 2.297 . S
O424 C426 1.247 . S
O425 Cd421 2.439 . S
O425 C426 1.208 . S
C426 O424 1.247 . S
C426 O425 1.208 . S
C427 O432 1.247 . S
C427 O433 1.208 . S
C428 O420 1.315 . S
C428 O423 1.279 . S
C429 O430 1.315 . S
C429 O431 1.279 . S
O430 Cd422 2.223 . S
O430 C429 1.315 . S
O431 Cd421 2.240 . S
O431 C429 1.279 . S
O432 Cd422 2.297 . S
O432 C427 1.247 . S
O433 Cd422 2.439 . S
O433 C427 1.208 . S
O434 Cd435 2.223 . S
O434 C442 1.315 . S
Cd435 O434 2.223 . S
Cd435 O438 2.297 . S
Cd435 O439 2.439 . S
Cd435 O445 2.240 . S
Cd436 O437 2.240 . S
Cd436 O444 2.223 . S
Cd436 O446 2.297 . S
Cd436 O447 2.439 . S
O437 Cd436 2.240 . S
O437 C442 1.279 . S
O438 Cd435 2.297 . S
O438 C440 1.247 . S
O439 Cd435 2.439 . S
O439 C440 1.208 . S
C440 O438 1.247 . S
C440 O439 1.208 . S
C441 O446 1.247 . S
C441 O447 1.208 . S
C442 O434 1.315 . S
C442 O437 1.279 . S
C443 O444 1.315 . S
C443 O445 1.279 . S
O444 Cd436 2.223 . S
O444 C443 1.315 . S
O445 Cd435 2.240 . S
O445 C443 1.279 . S
O446 Cd436 2.297 . S
O446 C441 1.247 . S
O447 Cd436 2.439 . S
O447 C441 1.208 . S
O448 Cd449 2.223 . S
O448 C456 1.315 . S
Cd449 O448 2.223 . S
Cd449 O452 2.297 . S
Cd449 O453 2.439 . S
Cd449 O459 2.240 . S
Cd450 O451 2.240 . S
Cd450 O458 2.223 . S
Cd450 O460 2.297 . S
Cd450 O461 2.439 . S
O451 Cd450 2.240 . S
O451 C456 1.279 . S
O452 Cd449 2.297 . S
O452 C454 1.247 . S
O453 Cd449 2.439 . S
O453 C454 1.208 . S
C454 O452 1.247 . S
C454 O453 1.208 . S
C455 O460 1.247 . S
C455 O461 1.208 . S
C456 O448 1.315 . S
C456 O451 1.279 . S
C457 O458 1.315 . S
C457 O459 1.279 . S
O458 Cd450 2.223 . S
O458 C457 1.315 . S
O459 Cd449 2.240 . S
O459 C457 1.279 . S
O460 Cd450 2.297 . S
O460 C455 1.247 . S
O461 Cd450 2.439 . S
O461 C455 1.208 . S
O462 Cd463 2.223 . S
O462 C470 1.315 . S
Cd463 O462 2.223 . S
Cd463 O466 2.297 . S
Cd463 O467 2.439 . S
Cd463 O473 2.240 . S
Cd464 O465 2.240 . S
Cd464 O472 2.223 . S
Cd464 O474 2.297 . S
Cd464 O475 2.439 . S
O465 Cd464 2.240 . S
O465 C470 1.279 1_554 S
O466 Cd463 2.297 . S
O466 C468 1.247 . S
O467 Cd463 2.439 . S
O467 C468 1.208 . S
C468 O466 1.247 . S
C468 O467 1.208 . S
C469 O474 1.247 . S
C469 O475 1.208 . S
C470 O462 1.315 . S
C470 O465 1.279 1_556 S
C471 O472 1.315 1_556 S
C471 O473 1.279 . S
O472 Cd464 2.223 . S
O472 C471 1.315 1_554 S
O473 Cd463 2.240 . S
O473 C471 1.279 . S
O474 Cd464 2.297 . S
O474 C469 1.247 . S
O475 Cd464 2.439 . S
O475 C469 1.208 . S
O476 Cd477 2.223 . S
O476 C484 1.315 . S
Cd477 O476 2.223 . S
Cd477 O480 2.297 . S
Cd477 O481 2.439 . S
Cd477 O487 2.240 . S
Cd478 O479 2.240 . S
Cd478 O486 2.223 . S
Cd478 O488 2.297 . S
Cd478 O489 2.439 . S
O479 Cd478 2.240 . S
O479 C484 1.279 . S
O480 Cd477 2.297 . S
O480 C482 1.247 . S
O481 Cd477 2.439 . S
O481 C482 1.208 . S
C482 O480 1.247 . S
C482 O481 1.208 . S
C483 O488 1.247 . S
C483 O489 1.208 . S
C484 O476 1.315 . S
C484 O479 1.279 . S
C485 O486 1.315 . S
C485 O487 1.279 . S
O486 Cd478 2.223 . S
O486 C485 1.315 . S
O487 Cd477 2.240 . S
O487 C485 1.279 . S
O488 Cd478 2.297 . S
O488 C483 1.247 . S
O489 Cd478 2.439 . S
O489 C483 1.208 . S
O490 Cd491 2.223 . S
O490 C498 1.315 . S
Cd491 O490 2.223 . S
Cd491 O494 2.297 . S
Cd491 O495 2.439 . S
Cd491 O501 2.240 . S
Cd492 O493 2.240 . S
Cd492 O500 2.223 1_655 S
Cd492 O502 2.297 . S
Cd492 O503 2.439 . S
O493 Cd492 2.240 . S
O493 C498 1.279 . S
O494 Cd491 2.297 . S
O494 C496 1.247 . S
O495 Cd491 2.439 . S
O495 C496 1.208 . S
C496 O494 1.247 . S
C496 O495 1.208 . S
C497 O502 1.247 . S
C497 O503 1.208 . S
C498 O490 1.315 . S
C498 O493 1.279 . S
C499 O500 1.315 . S
C499 O501 1.279 1_455 S
O500 Cd492 2.223 1_455 S
O500 C499 1.315 . S
O501 Cd491 2.240 . S
O501 C499 1.279 1_655 S
O502 Cd492 2.297 . S
O502 C497 1.247 . S
O503 Cd492 2.439 . S
O503 C497 1.208 . S
O504 Cd505 2.223 . S
O504 C512 1.315 . S
Cd505 O504 2.223 . S
Cd505 O508 2.297 . S
Cd505 O509 2.439 . S
Cd505 O515 2.240 . S
Cd506 O507 2.240 . S
Cd506 O514 2.223 . S
Cd506 O516 2.297 . S
Cd506 O517 2.439 . S
O507 Cd506 2.240 . S
O507 C512 1.279 . S
O508 Cd505 2.297 . S
O508 C510 1.247 . S
O509 Cd505 2.439 . S
O509 C510 1.208 . S
C510 O508 1.247 . S
C510 O509 1.208 . S
C511 O516 1.247 . S
C511 O517 1.208 . S
C512 O504 1.315 . S
C512 O507 1.279 . S
C513 O514 1.315 . S
C513 O515 1.279 . S
O514 Cd506 2.223 . S
O514 C513 1.315 . S
O515 Cd505 2.240 . S
O515 C513 1.279 . S
O516 Cd506 2.297 . S
O516 C511 1.247 . S
O517 Cd506 2.439 . S
O517 C511 1.208 . S
O518 Cd519 2.223 . S
O518 C526 1.315 . S
Cd519 O518 2.223 . S
Cd519 O522 2.297 . S
Cd519 O523 2.439 . S
Cd519 O529 2.240 . S
Cd520 O521 2.240 . S
Cd520 O528 2.223 1_655 S
Cd520 O530 2.297 . S
Cd520 O531 2.439 . S
O521 Cd520 2.240 . S
O521 C526 1.279 1_556 S
O522 Cd519 2.297 . S
O522 C524 1.247 . S
O523 Cd519 2.439 . S
O523 C524 1.208 . S
C524 O522 1.247 . S
C524 O523 1.208 . S
C525 O530 1.247 . S
C525 O531 1.208 . S
C526 O518 1.315 . S
C526 O521 1.279 1_554 S
C527 O528 1.315 1_554 S
C527 O529 1.279 1_455 S
O528 Cd520 2.223 1_455 S
O528 C527 1.315 1_556 S
O529 Cd519 2.240 . S
O529 C527 1.279 1_655 S
O530 Cd520 2.297 . S
O530 C525 1.247 . S
O531 Cd520 2.439 . S
O531 C525 1.208 . S
O532 Cd533 2.223 . S
O532 C540 1.315 . S
Cd533 O532 2.223 . S
Cd533 O536 2.297 . S
Cd533 O537 2.439 . S
Cd533 O543 2.240 . S
Cd534 O535 2.240 . S
Cd534 O542 2.223 . S
Cd534 O544 2.297 . S
Cd534 O545 2.439 . S
O535 Cd534 2.240 . S
O535 C540 1.279 . S
O536 Cd533 2.297 . S
O536 C538 1.247 . S
O537 Cd533 2.439 . S
O537 C538 1.208 . S
C538 O536 1.247 . S
C538 O537 1.208 . S
C539 O544 1.247 . S
C539 O545 1.208 . S
C540 O532 1.315 . S
C540 O535 1.279 . S
C541 O542 1.315 . S
C541 O543 1.279 . S
O542 Cd534 2.223 . S
O542 C541 1.315 . S
O543 Cd533 2.240 . S
O543 C541 1.279 . S
O544 Cd534 2.297 . S
O544 C539 1.247 . S
O545 Cd534 2.439 . S
O545 C539 1.208 . S
O546 Cd547 2.223 . S
O546 C554 1.315 . S
Cd547 O546 2.223 . S
Cd547 O550 2.297 . S
Cd547 O551 2.439 . S
Cd547 O557 2.240 . S
Cd548 O549 2.240 . S
Cd548 O556 2.223 . S
Cd548 O558 2.297 . S
Cd548 O559 2.439 . S
O549 Cd548 2.240 . S
O549 C554 1.279 . S
O550 Cd547 2.297 . S
O550 C552 1.247 . S
O551 Cd547 2.439 . S
O551 C552 1.208 . S
C552 O550 1.247 . S
C552 O551 1.208 . S
C553 O558 1.247 . S
C553 O559 1.208 . S
C554 O546 1.315 . S
C554 O549 1.279 . S
C555 O556 1.315 . S
C555 O557 1.279 . S
O556 Cd548 2.223 . S
O556 C555 1.315 . S
O557 Cd547 2.240 . S
O557 C555 1.279 . S
O558 Cd548 2.297 . S
O558 C553 1.247 . S
O559 Cd548 2.439 . S
O559 C553 1.208 . S
O560 Cd561 2.223 . S
O560 C568 1.315 . S
Cd561 O560 2.223 . S
Cd561 O564 2.297 . S
Cd561 O565 2.439 . S
Cd561 O571 2.240 . S
Cd562 O563 2.240 . S
Cd562 O570 2.223 . S
Cd562 O572 2.297 . S
Cd562 O573 2.439 . S
O563 Cd562 2.240 . S
O563 C568 1.279 . S
O564 Cd561 2.297 . S
O564 C566 1.247 . S
O565 Cd561 2.439 . S
O565 C566 1.208 . S
C566 O564 1.247 . S
C566 O565 1.208 . S
C567 O572 1.247 . S
C567 O573 1.208 . S
C568 O560 1.315 . S
C568 O563 1.279 . S
C569 O570 1.315 . S
C569 O571 1.279 . S
O570 Cd562 2.223 . S
O570 C569 1.315 . S
O571 Cd561 2.240 . S
O571 C569 1.279 . S
O572 Cd562 2.297 . S
O572 C567 1.247 . S
O573 Cd562 2.439 . S
O573 C567 1.208 . S
O574 Cd575 2.223 . S
O574 C582 1.315 . S
Cd575 O574 2.223 . S
Cd575 O578 2.297 . S
Cd575 O579 2.439 . S
Cd575 O585 2.240 . S
Cd576 O577 2.240 . S
Cd576 O584 2.223 . S
Cd576 O586 2.297 . S
Cd576 O587 2.439 . S
O577 Cd576 2.240 . S
O577 C582 1.279 . S
O578 Cd575 2.297 . S
O578 C580 1.247 . S
O579 Cd575 2.439 . S
O579 C580 1.208 . S
C580 O578 1.247 . S
C580 O579 1.208 . S
C581 O586 1.247 . S
C581 O587 1.208 . S
C582 O574 1.315 . S
C582 O577 1.279 . S
C583 O584 1.315 . S
C583 O585 1.279 . S
O584 Cd576 2.223 . S
O584 C583 1.315 . S
O585 Cd575 2.240 . S
O585 C583 1.279 . S
O586 Cd576 2.297 . S
O586 C581 1.247 . S
O587 Cd576 2.439 . S
O587 C581 1.208 . S
O588 Cd589 2.223 . S
O588 C596 1.315 . S
Cd589 O588 2.223 . S
Cd589 O592 2.297 . S
Cd589 O593 2.439 . S
Cd589 O599 2.240 . S
Cd590 O591 2.240 . S
Cd590 O598 2.223 . S
Cd590 O600 2.297 . S
Cd590 O601 2.439 . S
O591 Cd590 2.240 . S
O591 C596 1.279 1_545 S
O592 Cd589 2.297 . S
O592 C594 1.247 . S
O593 Cd589 2.439 . S
O593 C594 1.208 . S
C594 O592 1.247 . S
C594 O593 1.208 . S
C595 O600 1.247 . S
C595 O601 1.208 . S
C596 O588 1.315 . S
C596 O591 1.279 1_565 S
C597 O598 1.315 1_565 S
C597 O599 1.279 . S
O598 Cd590 2.223 . S
O598 C597 1.315 1_545 S
O599 Cd589 2.240 . S
O599 C597 1.279 . S
O600 Cd590 2.297 . S
O600 C595 1.247 . S
O601 Cd590 2.439 . S
O601 C595 1.208 . S
O602 Cd603 2.223 . S
O602 C610 1.315 . S
Cd603 O602 2.223 . S
Cd603 O606 2.297 . S
Cd603 O607 2.439 . S
Cd603 O613 2.240 . S
Cd604 O605 2.240 . S
Cd604 O612 2.223 . S
Cd604 O614 2.297 . S
Cd604 O615 2.439 . S
O605 Cd604 2.240 . S
O605 C610 1.279 . S
O606 Cd603 2.297 . S
O606 C608 1.247 . S
O607 Cd603 2.439 . S
O607 C608 1.208 . S
C608 O606 1.247 . S
C608 O607 1.208 . S
C609 O614 1.247 . S
C609 O615 1.208 . S
C610 O602 1.315 . S
C610 O605 1.279 . S
C611 O612 1.315 . S
C611 O613 1.279 . S
O612 Cd604 2.223 . S
O612 C611 1.315 . S
O613 Cd603 2.240 . S
O613 C611 1.279 . S
O614 Cd604 2.297 . S
O614 C609 1.247 . S
O615 Cd604 2.439 . S
O615 C609 1.208 . S
O616 Cd617 2.223 . S
O616 C624 1.315 . S
Cd617 O616 2.223 . S
Cd617 O620 2.297 . S
Cd617 O621 2.439 . S
Cd617 O627 2.240 . S
Cd618 O619 2.240 . S
Cd618 O626 2.223 . S
Cd618 O628 2.297 . S
Cd618 O629 2.439 . S
O619 Cd618 2.240 . S
O619 C624 1.279 . S
O620 Cd617 2.297 . S
O620 C622 1.247 . S
O621 Cd617 2.439 . S
O621 C622 1.208 . S
C622 O620 1.247 . S
C622 O621 1.208 . S
C623 O628 1.247 . S
C623 O629 1.208 . S
C624 O616 1.315 . S
C624 O619 1.279 . S
C625 O626 1.315 . S
C625 O627 1.279 . S
O626 Cd618 2.223 . S
O626 C625 1.315 . S
O627 Cd617 2.240 . S
O627 C625 1.279 . S
O628 Cd618 2.297 . S
O628 C623 1.247 . S
O629 Cd618 2.439 . S
O629 C623 1.208 . S
O630 Cd631 2.223 . S
O630 C638 1.315 . S
Cd631 O630 2.223 . S
Cd631 O634 2.297 . S
Cd631 O635 2.439 . S
Cd631 O641 2.240 . S
Cd632 O633 2.240 . S
Cd632 O640 2.223 . S
Cd632 O642 2.297 . S
Cd632 O643 2.439 . S
O633 Cd632 2.240 . S
O633 C638 1.279 . S
O634 Cd631 2.297 . S
O634 C636 1.247 . S
O635 Cd631 2.439 . S
O635 C636 1.208 . S
C636 O634 1.247 . S
C636 O635 1.208 . S
C637 O642 1.247 . S
C637 O643 1.208 . S
C638 O630 1.315 . S
C638 O633 1.279 . S
C639 O640 1.315 . S
C639 O641 1.279 . S
O640 Cd632 2.223 . S
O640 C639 1.315 . S
O641 Cd631 2.240 . S
O641 C639 1.279 . S
O642 Cd632 2.297 . S
O642 C637 1.247 . S
O643 Cd632 2.439 . S
O643 C637 1.208 . S
O644 Cd645 2.223 . S
O644 C652 1.315 . S
Cd645 O644 2.223 . S
Cd645 O648 2.297 . S
Cd645 O649 2.439 . S
Cd645 O655 2.240 . S
Cd646 O647 2.240 . S
Cd646 O654 2.223 1_556 S
Cd646 O656 2.297 . S
Cd646 O657 2.439 . S
O647 Cd646 2.240 . S
O647 C652 1.279 1_565 S
O648 Cd645 2.297 . S
O648 C650 1.247 . S
O649 Cd645 2.439 . S
O649 C650 1.208 . S
C650 O648 1.247 . S
C650 O649 1.208 . S
C651 O656 1.247 . S
C651 O657 1.208 . S
C652 O644 1.315 . S
C652 O647 1.279 1_545 S
C653 O654 1.315 1_545 S
C653 O655 1.279 1_554 S
O654 Cd646 2.223 1_554 S
O654 C653 1.315 1_565 S
O655 Cd645 2.240 . S
O655 C653 1.279 1_556 S
O656 Cd646 2.297 . S
O656 C651 1.247 . S
O657 Cd646 2.439 . S
O657 C651 1.208 . S
O658 Cd659 2.223 . S
O658 C666 1.315 . S
Cd659 O658 2.223 . S
Cd659 O662 2.297 . S
Cd659 O663 2.439 . S
Cd659 O669 2.240 . S
Cd660 O661 2.240 . S
Cd660 O668 2.223 . S
Cd660 O670 2.297 . S
Cd660 O671 2.439 . S
O661 Cd660 2.240 . S
O661 C666 1.279 1_545 S
O662 Cd659 2.297 . S
O662 C664 1.247 . S
O663 Cd659 2.439 . S
O663 C664 1.208 . S
C664 O662 1.247 . S
C664 O663 1.208 . S
C665 O670 1.247 . S
C665 O671 1.208 . S
C666 O658 1.315 . S
C666 O661 1.279 1_565 S
C667 O668 1.315 1_565 S
C667 O669 1.279 . S
O668 Cd660 2.223 . S
O668 C667 1.315 1_545 S
O669 Cd659 2.240 . S
O669 C667 1.279 . S
O670 Cd660 2.297 . S
O670 C665 1.247 . S
O671 Cd660 2.439 . S
O671 C665 1.208 . S
H672 C678 0.930 . S
H673 C681 0.930 . S
H674 C682 0.930 . S
H675 C683 0.930 . S
H676 C686 0.930 . S
H677 C687 0.930 . S
C678 H672 0.930 . S
C678 C679 1.355 . S
C678 C680 1.415 . S
C679 C678 1.355 . S
C679 C681 1.419 . S
C680 C678 1.415 . S
C680 C685 1.425 . S
C680 C687 1.409 . S
C681 H673 0.930 . S
C681 C679 1.419 . S
C681 C682 1.362 . S
C682 H674 0.930 . S
C682 C681 1.362 . S
C682 C685 1.409 . S
C683 H675 0.930 . S
C683 C684 1.355 . S
C683 C685 1.415 . S
C684 C683 1.355 . S
C684 C686 1.419 . S
C685 C680 1.425 . S
C685 C682 1.409 . S
C685 C683 1.415 . S
C686 H676 0.930 . S
C686 C684 1.419 . S
C686 C687 1.362 . S
C687 H677 0.930 . S
C687 C680 1.409 . S
C687 C686 1.362 . S
H688 C694 0.930 . S
H689 C697 0.934 . S
H690 C698 0.930 . S
H691 C699 0.930 . S
H692 C702 0.930 . S
H693 C703 0.930 . S
C694 H688 0.930 . S
C694 C695 1.355 1_655 S
C694 C696 1.415 . S
C695 C694 1.355 1_455 S
C695 C697 1.409 1_565 S
C696 C694 1.415 . S
C696 C701 1.425 1_665 S
C696 C703 1.409 . S
C697 H689 0.934 . S
C697 C695 1.409 1_545 S
C697 C698 1.370 . S
C698 H690 0.930 . S
C698 C697 1.370 . S
C698 C701 1.409 . S
C699 H691 0.930 . S
C699 C700 1.369 . S
C699 C701 1.415 . S
C700 C699 1.369 . S
C700 C702 1.401 1_445 S
C701 C696 1.425 1_445 S
C701 C698 1.409 . S
C701 C699 1.415 . S
C702 H692 0.930 . S
C702 C700 1.401 1_665 S
C702 C703 1.362 . S
C703 H693 0.930 . S
C703 C696 1.409 . S
C703 C702 1.362 . S
H704 C710 0.930 . S
H705 C713 0.930 . S
H706 C714 0.930 . S
H707 C715 0.930 . S
H708 C718 0.930 . S
H709 C719 0.930 . S
C710 H704 0.930 . S
C710 C711 1.355 . S
C710 C712 1.415 . S
C711 C710 1.355 . S
C711 C713 1.419 . S
C712 C710 1.415 . S
C712 C717 1.425 1_556 S
C712 C719 1.409 1_556 S
C713 H705 0.930 . S
C713 C711 1.419 . S
C713 C714 1.362 . S
C714 H706 0.930 . S
C714 C713 1.362 . S
C714 C717 1.409 1_556 S
C715 H707 0.930 . S
C715 C716 1.355 . S
C715 C717 1.415 . S
C716 C715 1.355 . S
C716 C718 1.419 . S
C717 C712 1.425 1_554 S
C717 C714 1.409 1_554 S
C717 C715 1.415 . S
C718 H708 0.930 . S
C718 C716 1.419 . S
C718 C719 1.362 . S
C719 H709 0.930 . S
C719 C712 1.409 1_554 S
C719 C718 1.362 . S
H720 C726 0.930 . S
H721 C729 0.930 . S
H722 C730 0.930 . S
H723 C731 0.930 . S
H724 C734 0.930 . S
H725 C735 0.930 . S
C726 H720 0.930 . S
C726 C727 1.355 1_545 S
C726 C728 1.415 . S
C727 C726 1.355 1_565 S
C727 C729 1.419 . S
C728 C726 1.415 . S
C728 C733 1.425 1_545 S
C728 C735 1.409 . S
C729 H721 0.930 . S
C729 C727 1.419 . S
C729 C730 1.362 . S
C730 H722 0.930 . S
C730 C729 1.362 . S
C730 C733 1.409 . S
C731 H723 0.930 . S
C731 C732 1.355 1_565 S
C731 C733 1.415 . S
C732 C731 1.355 1_545 S
C732 C734 1.419 . S
C733 C728 1.425 1_565 S
C733 C730 1.409 . S
C733 C731 1.415 . S
C734 H724 0.930 . S
C734 C732 1.419 . S
C734 C735 1.362 . S
C735 H725 0.930 . S
C735 C728 1.409 . S
C735 C734 1.362 . S
H736 C742 0.930 . S
H737 C745 0.930 . S
H738 C746 0.930 . S
H739 C747 0.930 . S
H740 C750 0.930 . S
H741 C751 0.930 . S
C742 H736 0.930 . S
C742 C743 1.355 . S
C742 C744 1.415 . S
C743 C742 1.355 . S
C743 C745 1.419 . S
C744 C742 1.415 . S
C744 C749 1.425 . S
C744 C751 1.409 . S
C745 H737 0.930 . S
C745 C743 1.419 . S
C745 C746 1.362 . S
C746 H738 0.930 . S
C746 C745 1.362 . S
C746 C749 1.409 . S
C747 H739 0.930 . S
C747 C748 1.355 . S
C747 C749 1.415 . S
C748 C747 1.355 . S
C748 C750 1.419 . S
C749 C744 1.425 . S
C749 C746 1.409 . S
C749 C747 1.415 . S
C750 H740 0.930 . S
C750 C748 1.419 . S
C750 C751 1.362 . S
C751 H741 0.930 . S
C751 C744 1.409 . S
C751 C750 1.362 . S
H752 C758 0.930 . S
H753 C761 0.930 . S
H754 C762 0.930 . S
H755 C763 0.930 . S
H756 C766 0.930 . S
H757 C767 0.930 . S
C758 H752 0.930 . S
C758 C759 1.355 1_455 S
C758 C760 1.415 . S
C759 C758 1.355 1_655 S
C759 C761 1.419 . S
C760 C758 1.415 . S
C760 C765 1.425 1_455 S
C760 C767 1.409 . S
C761 H753 0.930 . S
C761 C759 1.419 . S
C761 C762 1.362 . S
C762 H754 0.930 . S
C762 C761 1.362 . S
C762 C765 1.409 . S
C763 H755 0.930 . S
C763 C764 1.355 1_655 S
C763 C765 1.415 . S
C764 C763 1.355 1_455 S
C764 C766 1.419 . S
C765 C760 1.425 1_655 S
C765 C762 1.409 . S
C765 C763 1.415 . S
C766 H756 0.930 . S
C766 C764 1.419 . S
C766 C767 1.362 . S
C767 H757 0.930 . S
C767 C760 1.409 . S
C767 C766 1.362 . S
H768 C774 0.930 . S
H769 C777 0.930 . S
H770 C778 0.930 . S
H771 C779 0.930 . S
H772 C782 0.930 . S
H773 C783 0.930 . S
C774 H768 0.930 . S
C774 C775 1.355 . S
C774 C776 1.415 . S
C775 C774 1.355 . S
C775 C777 1.419 . S
C776 C774 1.415 . S
C776 C781 1.425 1_455 S
C776 C783 1.409 1_455 S
C777 H769 0.930 . S
C777 C775 1.419 . S
C777 C778 1.362 . S
C778 H770 0.930 . S
C778 C777 1.362 . S
C778 C781 1.409 1_455 S
C779 H771 0.930 . S
C779 C780 1.355 . S
C779 C781 1.415 . S
C780 C779 1.355 . S
C780 C782 1.419 . S
C781 C776 1.425 1_655 S
C781 C778 1.409 1_655 S
C781 C779 1.415 . S
C782 H772 0.930 . S
C782 C780 1.419 . S
C782 C783 1.362 . S
C783 H773 0.930 . S
C783 C776 1.409 1_655 S
C783 C782 1.362 . S
H784 C790 0.924 1_554 S
H785 C793 0.930 . S
H786 C794 0.930 . S
H787 C795 0.930 . S
H788 C798 0.930 . S
H789 C799 0.930 . S
C790 H784 0.924 1_556 S
C790 C791 1.361 . S
C790 C792 1.415 . S
C791 C790 1.361 . S
C791 C793 1.419 . S
C792 C790 1.415 . S
C792 C797 1.431 . S
C792 C799 1.404 1_556 S
C793 H785 0.930 . S
C793 C791 1.419 . S
C793 C794 1.362 . S
C794 H786 0.930 . S
C794 C793 1.362 . S
C794 C797 1.409 . S
C795 H787 0.930 . S
C795 C796 1.355 . S
C795 C797 1.415 . S
C796 C795 1.355 . S
C796 C798 1.419 1_556 S
C797 C792 1.431 . S
C797 C794 1.409 . S
C797 C795 1.415 . S
C798 H788 0.930 . S
C798 C796 1.419 1_554 S
C798 C799 1.362 . S
C799 H789 0.930 . S
C799 C792 1.404 1_554 S
C799 C798 1.362 . S
H800 C806 0.930 . S
H801 C809 0.930 . S
H802 C810 0.930 . S
H803 C811 0.930 . S
H804 C814 0.930 . S
H805 C815 0.930 . S
C806 H800 0.930 . S
C806 C807 1.355 . S
C806 C808 1.415 . S
C807 C806 1.355 . S
C807 C809 1.419 . S
C808 C806 1.415 . S
C808 C813 1.425 . S
C808 C815 1.409 . S
C809 H801 0.930 . S
C809 C807 1.419 . S
C809 C810 1.362 . S
C810 H802 0.930 . S
C810 C809 1.362 . S
C810 C813 1.409 . S
C811 H803 0.930 . S
C811 C812 1.355 . S
C811 C813 1.415 . S
C812 C811 1.355 . S
C812 C814 1.419 . S
C813 C808 1.425 . S
C813 C810 1.409 . S
C813 C811 1.415 . S
C814 H804 0.930 . S
C814 C812 1.419 . S
C814 C815 1.362 . S
C815 H805 0.930 . S
C815 C808 1.409 . S
C815 C814 1.362 . S
H816 C822 0.930 . S
H817 C825 0.930 . S
H818 C826 0.930 . S
H819 C827 0.930 . S
H820 C830 0.930 . S
H821 C831 0.930 . S
C822 H816 0.930 . S
C822 C823 1.355 . S
C822 C824 1.415 . S
C823 C822 1.355 . S
C823 C825 1.419 . S
C824 C822 1.415 . S
C824 C829 1.425 . S
C824 C831 1.409 . S
C825 H817 0.930 . S
C825 C823 1.419 . S
C825 C826 1.362 . S
C826 H818 0.930 . S
C826 C825 1.362 . S
C826 C829 1.409 . S
C827 H819 0.930 . S
C827 C828 1.355 . S
C827 C829 1.415 . S
C828 C827 1.355 . S
C828 C830 1.419 . S
C829 C824 1.425 . S
C829 C826 1.409 . S
C829 C827 1.415 . S
C830 H820 0.930 . S
C830 C828 1.419 . S
C830 C831 1.362 . S
C831 H821 0.930 . S
C831 C824 1.409 . S
C831 C830 1.362 . S
H832 C838 0.930 . S
H833 C841 0.930 . S
H834 C842 0.930 . S
H835 C843 0.930 . S
H836 C846 0.930 . S
H837 C847 0.930 . S
C838 H832 0.930 . S
C838 C839 1.355 . S
C838 C840 1.415 . S
C839 C838 1.355 . S
C839 C841 1.419 . S
C840 C838 1.415 . S
C840 C845 1.425 1_655 S
C840 C847 1.409 1_655 S
C841 H833 0.930 . S
C841 C839 1.419 . S
C841 C842 1.362 . S
C842 H834 0.930 . S
C842 C841 1.362 . S
C842 C845 1.409 1_655 S
C843 H835 0.930 . S
C843 C844 1.355 . S
C843 C845 1.415 . S
C844 C843 1.355 . S
C844 C846 1.419 . S
C845 C840 1.425 1_455 S
C845 C842 1.409 1_455 S
C845 C843 1.415 . S
C846 H836 0.930 . S
C846 C844 1.419 . S
C846 C847 1.362 . S
C847 H837 0.930 . S
C847 C840 1.409 1_455 S
C847 C846 1.362 . S
H848 C854 0.930 . S
H849 C857 0.930 . S
H850 C858 0.930 . S
H851 C859 0.930 . S
H852 C862 0.930 . S
H853 C863 0.930 . S
C854 H848 0.930 . S
C854 C855 1.355 . S
C854 C856 1.415 . S
C855 C854 1.355 . S
C855 C857 1.419 1_654 S
C856 C854 1.415 . S
C856 C861 1.425 1_654 S
C856 C863 1.409 . S
C857 H849 0.930 . S
C857 C855 1.419 1_456 S
C857 C858 1.362 . S
C858 H850 0.930 . S
C858 C857 1.362 . S
C858 C861 1.409 . S
C859 H851 0.930 . S
C859 C860 1.355 1_556 S
C859 C861 1.415 . S
C860 C859 1.355 1_554 S
C860 C862 1.419 1_455 S
C861 C856 1.425 1_456 S
C861 C858 1.409 . S
C861 C859 1.415 . S
C862 H852 0.930 . S
C862 C860 1.419 1_655 S
C862 C863 1.362 . S
C863 H853 0.930 . S
C863 C856 1.409 . S
C863 C862 1.362 . S
H864 C870 0.930 . S
H865 C873 0.930 . S
H866 C874 0.930 . S
H867 C875 0.930 . S
H868 C878 0.930 . S
H869 C879 0.930 . S
C870 H864 0.930 . S
C870 C871 1.355 . S
C870 C872 1.415 . S
C871 C870 1.355 . S
C871 C873 1.419 . S
C872 C870 1.415 . S
C872 C877 1.425 . S
C872 C879 1.409 . S
C873 H865 0.930 . S
C873 C871 1.419 . S
C873 C874 1.362 . S
C874 H866 0.930 . S
C874 C873 1.362 . S
C874 C877 1.409 . S
C875 H867 0.930 . S
C875 C876 1.355 . S
C875 C877 1.415 . S
C876 C875 1.355 . S
C876 C878 1.419 . S
C877 C872 1.425 . S
C877 C874 1.409 . S
C877 C875 1.415 . S
C878 H868 0.930 . S
C878 C876 1.419 . S
C878 C879 1.362 . S
C879 H869 0.930 . S
C879 C872 1.409 . S
C879 C878 1.362 . S
H880 C886 0.930 . S
H881 C889 0.930 . S
H882 C890 0.930 . S
H883 C891 0.930 . S
H884 C894 0.930 . S
H885 C895 0.930 . S
C886 H880 0.930 . S
C886 C887 1.355 . S
C886 C888 1.415 . S
C887 C886 1.355 . S
C887 C889 1.419 . S
C888 C886 1.415 . S
C888 C893 1.425 1_545 S
C888 C895 1.409 1_545 S
C889 H881 0.930 . S
C889 C887 1.419 . S
C889 C890 1.362 . S
C890 H882 0.930 . S
C890 C889 1.362 . S
C890 C893 1.409 1_545 S
C891 H883 0.930 . S
C891 C892 1.355 . S
C891 C893 1.415 . S
C892 C891 1.355 . S
C892 C894 1.419 . S
C893 C888 1.425 1_565 S
C893 C890 1.409 1_565 S
C893 C891 1.415 . S
C894 H884 0.930 . S
C894 C892 1.419 . S
C894 C895 1.362 . S
C895 H885 0.930 . S
C895 C888 1.409 1_565 S
C895 C894 1.362 . S
H896 C902 0.930 . S
H897 C905 0.930 . S
H898 C906 0.930 . S
H899 C907 0.930 . S
H900 C910 0.930 . S
H901 C911 0.930 . S
C902 H896 0.930 . S
C902 C903 1.355 1_556 S
C902 C904 1.415 . S
C903 C902 1.355 1_554 S
C903 C905 1.419 . S
C904 C902 1.415 . S
C904 C909 1.425 1_556 S
C904 C911 1.409 . S
C905 H897 0.930 . S
C905 C903 1.419 . S
C905 C906 1.362 . S
C906 H898 0.930 . S
C906 C905 1.362 . S
C906 C909 1.409 . S
C907 H899 0.930 . S
C907 C908 1.355 1_554 S
C907 C909 1.415 . S
C908 C907 1.355 1_556 S
C908 C910 1.419 . S
C909 C904 1.425 1_554 S
C909 C906 1.409 . S
C909 C907 1.415 . S
C910 H900 0.930 . S
C910 C908 1.419 . S
C910 C911 1.362 . S
C911 H901 0.930 . S
C911 C904 1.409 . S
C911 C910 1.362 . S
H912 C918 0.930 . S
H913 C921 0.930 . S
H914 C922 0.930 . S
H915 C923 0.930 . S
H916 C926 0.930 . S
H917 C927 0.930 . S
C918 H912 0.930 . S
C918 C919 1.355 . S
C918 C920 1.415 . S
C919 C918 1.355 . S
C919 C921 1.419 . S
C920 C918 1.415 . S
C920 C925 1.425 1_545 S
C920 C927 1.409 1_545 S
C921 H913 0.930 . S
C921 C919 1.419 . S
C921 C922 1.362 . S
C922 H914 0.930 . S
C922 C921 1.362 . S
C922 C925 1.409 1_545 S
C923 H915 0.930 . S
C923 C924 1.355 . S
C923 C925 1.415 . S
C924 C923 1.355 . S
C924 C926 1.419 . S
C925 C920 1.425 1_565 S
C925 C922 1.409 1_565 S
C925 C923 1.415 . S
C926 H916 0.930 . S
C926 C924 1.419 . S
C926 C927 1.362 . S
C927 H917 0.930 . S
C927 C920 1.409 1_565 S
C927 C926 1.362 . S
H928 C934 0.930 . S
H929 C937 0.931 . S
H930 C938 0.930 . S
H931 C939 0.927 1_565 S
H932 C942 0.930 . S
H933 C943 0.930 . S
C934 H928 0.930 . S
C934 C935 1.355 1_554 S
C934 C936 1.415 . S
C935 C934 1.355 1_556 S
C935 C937 1.419 . S
C936 C934 1.415 . S
C936 C941 1.425 1_554 S
C936 C943 1.409 . S
C937 H929 0.931 . S
C937 C935 1.419 . S
C937 C938 1.364 . S
C938 H930 0.930 . S
C938 C937 1.364 . S
C938 C941 1.411 . S
C939 H931 0.927 1_545 S
C939 C940 1.356 1_556 S
C939 C941 1.416 . S
C940 C939 1.356 1_554 S
C940 C942 1.419 . S
C941 C936 1.425 1_556 S
C941 C938 1.411 . S
C941 C939 1.416 . S
C942 H932 0.930 . S
C942 C940 1.419 . S
C942 C943 1.362 . S
C943 H933 0.930 . S
C943 C936 1.409 . S
C943 C942 1.362 . S
H944 C950 0.930 . S
H945 C953 0.930 . S
H946 C954 0.930 . S
H947 C955 0.930 . S
H948 C958 0.930 . S
H949 C959 0.930 . S
C950 H944 0.930 . S
C950 C951 1.355 . S
C950 C952 1.415 . S
C951 C950 1.355 . S
C951 C953 1.419 . S
C952 C950 1.415 . S
C952 C957 1.425 . S
C952 C959 1.409 . S
C953 H945 0.930 . S
C953 C951 1.419 . S
C953 C954 1.362 . S
C954 H946 0.930 . S
C954 C953 1.362 . S
C954 C957 1.409 . S
C955 H947 0.930 . S
C955 C956 1.355 . S
C955 C957 1.415 . S
C956 C955 1.355 . S
C956 C958 1.419 . S
C957 C952 1.425 . S
C957 C954 1.409 . S
C957 C955 1.415 . S
C958 H948 0.930 . S
C958 C956 1.419 . S
C958 C959 1.362 . S
C959 H949 0.930 . S
C959 C952 1.409 . S
C959 C958 1.362 . S
H960 C966 0.930 . S
H961 C969 0.930 . S
H962 C970 0.930 . S
H963 C971 0.930 . S
H964 C974 0.930 . S
H965 C975 0.930 . S
C966 H960 0.930 . S
C966 C967 1.355 . S
C966 C968 1.415 . S
C967 C966 1.355 . S
C967 C969 1.419 . S
C968 C966 1.415 . S
C968 C973 1.425 . S
C968 C975 1.409 . S
C969 H961 0.930 . S
C969 C967 1.419 . S
C969 C970 1.362 . S
C970 H962 0.930 . S
C970 C969 1.362 . S
C970 C973 1.409 . S
C971 H963 0.930 . S
C971 C972 1.355 . S
C971 C973 1.415 . S
C972 C971 1.355 . S
C972 C974 1.419 . S
C973 C968 1.425 . S
C973 C970 1.409 . S
C973 C971 1.415 . S
C974 H964 0.930 . S
C974 C972 1.419 . S
C974 C975 1.362 . S
C975 H965 0.930 . S
C975 C968 1.409 . S
C975 C974 1.362 . S
H976 C982 0.930 . S
H977 C985 0.930 . S
H978 C986 0.930 . S
H979 C987 0.930 . S
H980 C990 0.930 . S
H981 C991 0.930 . S
C982 H976 0.930 . S
C982 C983 1.355 . S
C982 C984 1.415 . S
C983 C982 1.355 . S
C983 C985 1.419 . S
C984 C982 1.415 . S
C984 C989 1.425 1_554 S
C984 C991 1.409 1_554 S
C985 H977 0.930 . S
C985 C983 1.419 . S
C985 C986 1.362 . S
C986 H978 0.930 . S
C986 C985 1.362 . S
C986 C989 1.409 1_554 S
C987 H979 0.930 . S
C987 C988 1.355 . S
C987 C989 1.415 . S
C988 C987 1.355 . S
C988 C990 1.419 . S
C989 C984 1.425 1_556 S
C989 C986 1.409 1_556 S
C989 C987 1.415 . S
C990 H980 0.930 . S
C990 C988 1.419 . S
C990 C991 1.362 . S
C991 H981 0.930 . S
C991 C984 1.409 1_556 S
C991 C990 1.362 . S
H992 C998 0.930 . S
H993 C1001 0.930 . S
H994 C1002 0.930 . S
H995 C1003 0.930 . S
H996 C1006 0.930 . S
H997 C1007 0.930 . S
C998 H992 0.930 . S
C998 C999 1.355 . S
C998 C1000 1.415 . S
C999 C998 1.355 . S
C999 C1001 1.419 . S
C1000 C998 1.415 . S
C1000 C1005 1.425 . S
C1000 C1007 1.409 . S
C1001 H993 0.930 . S
C1001 C999 1.419 . S
C1001 C1002 1.362 . S
C1002 H994 0.930 . S
C1002 C1001 1.362 . S
C1002 C1005 1.409 . S
C1003 H995 0.930 . S
C1003 C1004 1.355 . S
C1003 C1005 1.415 . S
C1004 C1003 1.355 . S
C1004 C1006 1.419 . S
C1005 C1000 1.425 . S
C1005 C1002 1.409 . S
C1005 C1003 1.415 . S
C1006 H996 0.930 . S
C1006 C1004 1.419 . S
C1006 C1007 1.362 . S
C1007 H997 0.930 . S
C1007 C1000 1.409 . S
C1007 C1006 1.362 . S
H1008 C1014 0.930 . S
H1009 C1017 0.930 . S
H1010 C1018 0.930 . S
H1011 C1019 0.930 . S
H1012 C1022 0.930 . S
H1013 C1023 0.930 . S
C1014 H1008 0.930 . S
C1014 C1015 1.355 . S
C1014 C1016 1.415 . S
C1015 C1014 1.355 . S
C1015 C1017 1.419 . S
C1016 C1014 1.415 . S
C1016 C1021 1.425 . S
C1016 C1023 1.409 . S
C1017 H1009 0.930 . S
C1017 C1015 1.419 . S
C1017 C1018 1.362 . S
C1018 H1010 0.930 . S
C1018 C1017 1.362 . S
C1018 C1021 1.409 . S
C1019 H1011 0.930 . S
C1019 C1020 1.355 . S
C1019 C1021 1.415 . S
C1020 C1019 1.355 . S
C1020 C1022 1.419 . S
C1021 C1016 1.425 . S
C1021 C1018 1.409 . S
C1021 C1019 1.415 . S
C1022 H1012 0.930 . S
C1022 C1020 1.419 . S
C1022 C1023 1.362 . S
C1023 H1013 0.930 . S
C1023 C1016 1.409 . S
C1023 C1022 1.362 . S
H1024 C1030 0.930 . S
H1025 C1033 0.930 . S
H1026 C1034 0.930 . S
H1027 C1035 0.930 . S
H1028 C1038 0.930 . S
H1029 C1039 0.930 . S
C1030 H1024 0.930 . S
C1030 C1031 1.359 . S
C1030 C1032 1.415 . S
C1031 C1030 1.359 . S
C1031 C1033 1.414 1_655 S
C1032 C1030 1.415 . S
C1032 C1037 1.425 1_655 S
C1032 C1039 1.409 . S
C1033 H1025 0.930 . S
C1033 C1031 1.414 1_455 S
C1033 C1034 1.362 . S
C1034 H1026 0.930 . S
C1034 C1033 1.362 . S
C1034 C1037 1.409 . S
C1035 H1027 0.930 . S
C1035 C1036 1.355 1_455 S
C1035 C1037 1.415 . S
C1036 C1035 1.355 1_655 S
C1036 C1038 1.419 . S
C1037 C1032 1.425 1_455 S
C1037 C1034 1.409 . S
C1037 C1035 1.415 . S
C1038 H1028 0.930 . S
C1038 C1036 1.419 . S
C1038 C1039 1.362 . S
C1039 H1029 0.930 . S
C1039 C1032 1.409 . S
C1039 C1038 1.362 . S
H1040 C1046 0.930 . S
H1041 C1049 0.930 . S
H1042 C1050 0.930 . S
H1043 C1051 0.930 . S
H1044 C1054 0.930 . S
H1045 C1055 0.930 . S
C1046 H1040 0.930 . S
C1046 C1047 1.358 . S
C1046 C1048 1.415 . S
C1047 C1046 1.358 . S
C1047 C1049 1.416 1_565 S
C1048 C1046 1.415 . S
C1048 C1053 1.425 1_565 S
C1048 C1055 1.409 . S
C1049 H1041 0.930 . S
C1049 C1047 1.416 1_545 S
C1049 C1050 1.362 . S
C1050 H1042 0.930 . S
C1050 C1049 1.362 . S
C1050 C1053 1.409 . S
C1051 H1043 0.930 . S
C1051 C1052 1.355 1_545 S
C1051 C1053 1.415 . S
C1052 C1051 1.355 1_565 S
C1052 C1054 1.419 . S
C1053 C1048 1.425 1_545 S
C1053 C1050 1.409 . S
C1053 C1051 1.415 . S
C1054 H1044 0.930 . S
C1054 C1052 1.419 . S
C1054 C1055 1.362 . S
C1055 H1045 0.930 . S
C1055 C1048 1.409 . S
C1055 C1054 1.362 . S
H1056 C1062 0.930 . S
H1057 C1065 0.930 . S
H1058 C1066 0.930 . S
H1059 C1067 0.930 . S
H1060 C1070 0.930 . S
H1061 C1071 0.930 . S
C1062 H1056 0.930 . S
C1062 C1063 1.355 . S
C1062 C1064 1.415 . S
C1063 C1062 1.355 . S
C1063 C1065 1.419 . S
C1064 C1062 1.415 . S
C1064 C1069 1.425 . S
C1064 C1071 1.409 . S
C1065 H1057 0.930 . S
C1065 C1063 1.419 . S
C1065 C1066 1.362 . S
C1066 H1058 0.930 . S
C1066 C1065 1.362 . S
C1066 C1069 1.409 . S
C1067 H1059 0.930 . S
C1067 C1068 1.355 . S
C1067 C1069 1.415 . S
C1068 C1067 1.355 . S
C1068 C1070 1.419 . S
C1069 C1064 1.425 . S
C1069 C1066 1.409 . S
C1069 C1067 1.415 . S
C1070 H1060 0.930 . S
C1070 C1068 1.419 . S
C1070 C1071 1.362 . S
C1071 H1061 0.930 . S
C1071 C1064 1.409 . S
C1071 C1070 1.362 . S
H1072 C1078 0.930 . S
H1073 C1081 0.930 . S
H1074 C1082 0.930 1_545 S
H1075 C1083 0.930 1_545 S
H1076 C1086 0.930 . S
H1077 C1087 0.930 . S
C1078 H1072 0.930 . S
C1078 C1079 1.355 . S
C1078 C1080 1.415 . S
C1079 C1078 1.355 . S
C1079 C1081 1.419 . S
C1080 C1078 1.415 . S
C1080 C1085 1.425 . S
C1080 C1087 1.409 . S
C1081 H1073 0.930 . S
C1081 C1079 1.419 . S
C1081 C1082 1.362 . S
C1082 H1074 0.930 1_565 S
C1082 C1081 1.362 . S
C1082 C1085 1.409 . S
C1083 H1075 0.930 1_565 S
C1083 C1084 1.355 . S
C1083 C1085 1.415 . S
C1084 C1083 1.355 . S
C1084 C1086 1.419 . S
C1085 C1080 1.425 . S
C1085 C1082 1.409 . S
C1085 C1083 1.415 . S
C1086 H1076 0.930 . S
C1086 C1084 1.419 . S
C1086 C1087 1.362 . S
C1087 H1077 0.930 . S
C1087 C1080 1.409 . S
C1087 C1086 1.362 . S
H1088 C1094 0.930 . S
H1089 C1097 0.930 . S
H1090 C1098 0.930 . S
H1091 C1099 0.930 . S
H1092 C1102 0.930 . S
H1093 C1103 0.930 . S
C1094 H1088 0.930 . S
C1094 C1095 1.355 . S
C1094 C1096 1.415 . S
C1095 C1094 1.355 . S
C1095 C1097 1.419 . S
C1096 C1094 1.415 . S
C1096 C1101 1.425 . S
C1096 C1103 1.409 . S
C1097 H1089 0.930 . S
C1097 C1095 1.419 . S
C1097 C1098 1.362 . S
C1098 H1090 0.930 . S
C1098 C1097 1.362 . S
C1098 C1101 1.409 . S
C1099 H1091 0.930 . S
C1099 C1100 1.355 . S
C1099 C1101 1.415 . S
C1100 C1099 1.355 . S
C1100 C1102 1.419 . S
C1101 C1096 1.425 . S
C1101 C1098 1.409 . S
C1101 C1099 1.415 . S
C1102 H1092 0.930 . S
C1102 C1100 1.419 . S
C1102 C1103 1.362 . S
C1103 H1093 0.930 . S
C1103 C1096 1.409 . S
C1103 C1102 1.362 . S
H1104 C1110 0.930 . S
H1105 C1113 0.930 1_556 S
H1106 C1114 0.930 . S
H1107 C1115 0.930 . S
H1108 C1118 0.930 . S
H1109 C1119 0.930 . S
C1110 H1104 0.930 . S
C1110 C1111 1.355 . S
C1110 C1112 1.415 . S
C1111 C1110 1.355 . S
C1111 C1113 1.419 . S
C1112 C1110 1.415 . S
C1112 C1117 1.425 . S
C1112 C1119 1.409 . S
C1113 H1105 0.930 1_554 S
C1113 C1111 1.419 . S
C1113 C1114 1.362 . S
C1114 H1106 0.930 . S
C1114 C1113 1.362 . S
C1114 C1117 1.409 . S
C1115 H1107 0.930 . S
C1115 C1116 1.355 . S
C1115 C1117 1.415 . S
C1116 C1115 1.355 . S
C1116 C1118 1.419 . S
C1117 C1112 1.425 . S
C1117 C1114 1.409 . S
C1117 C1115 1.415 . S
C1118 H1108 0.930 . S
C1118 C1116 1.419 . S
C1118 C1119 1.362 . S
C1119 H1109 0.930 . S
C1119 C1112 1.409 . S
C1119 C1118 1.362 . S
H1120 C1126 0.930 . S
H1121 C1129 0.930 . S
H1122 C1130 0.930 . S
H1123 C1131 0.930 . S
H1124 C1134 0.930 . S
H1125 C1135 0.930 . S
C1126 H1120 0.930 . S
C1126 C1127 1.355 . S
C1126 C1128 1.415 . S
C1127 C1126 1.355 . S
C1127 C1129 1.419 . S
C1128 C1126 1.415 . S
C1128 C1133 1.425 . S
C1128 C1135 1.409 . S
C1129 H1121 0.930 . S
C1129 C1127 1.419 . S
C1129 C1130 1.362 . S
C1130 H1122 0.930 . S
C1130 C1129 1.362 . S
C1130 C1133 1.409 . S
C1131 H1123 0.930 . S
C1131 C1132 1.355 . S
C1131 C1133 1.415 . S
C1132 C1131 1.355 . S
C1132 C1134 1.419 . S
C1133 C1128 1.425 . S
C1133 C1130 1.409 . S
C1133 C1131 1.415 . S
C1134 H1124 0.930 . S
C1134 C1132 1.419 . S
C1134 C1135 1.362 . S
C1135 H1125 0.930 . S
C1135 C1128 1.409 . S
C1135 C1134 1.362 . S
H1136 C1142 0.930 . S
H1137 C1145 0.930 . S
H1138 C1146 0.930 . S
H1139 C1147 0.930 . S
H1140 C1150 0.930 . S
H1141 C1151 0.930 . S
C1142 H1136 0.930 . S
C1142 C1143 1.355 . S
C1142 C1144 1.415 . S
C1143 C1142 1.355 . S
C1143 C1145 1.419 . S
C1144 C1142 1.415 . S
C1144 C1149 1.425 . S
C1144 C1151 1.409 . S
C1145 H1137 0.930 . S
C1145 C1143 1.419 . S
C1145 C1146 1.362 . S
C1146 H1138 0.930 . S
C1146 C1145 1.362 . S
C1146 C1149 1.409 . S
C1147 H1139 0.930 . S
C1147 C1148 1.355 . S
C1147 C1149 1.415 . S
C1148 C1147 1.355 . S
C1148 C1150 1.419 . S
C1149 C1144 1.425 . S
C1149 C1146 1.409 . S
C1149 C1147 1.415 . S
C1150 H1140 0.930 . S
C1150 C1148 1.419 . S
C1150 C1151 1.362 . S
C1151 H1141 0.930 . S
C1151 C1144 1.409 . S
C1151 C1150 1.362 . S
H1152 C1158 0.930 . S
H1153 C1161 0.930 . S
H1154 C1162 0.930 . S
H1155 C1163 0.930 . S
H1156 C1166 0.930 . S
H1157 C1167 0.930 . S
C1158 H1152 0.930 . S
C1158 C1159 1.355 . S
C1158 C1160 1.415 . S
C1159 C1158 1.355 . S
C1159 C1161 1.419 . S
C1160 C1158 1.415 . S
C1160 C1165 1.425 . S
C1160 C1167 1.409 . S
C1161 H1153 0.930 . S
C1161 C1159 1.419 . S
C1161 C1162 1.362 . S
C1162 H1154 0.930 . S
C1162 C1161 1.362 . S
C1162 C1165 1.409 . S
C1163 H1155 0.930 . S
C1163 C1164 1.355 . S
C1163 C1165 1.415 . S
C1164 C1163 1.355 . S
C1164 C1166 1.419 . S
C1165 C1160 1.425 . S
C1165 C1162 1.409 . S
C1165 C1163 1.415 . S
C1166 H1156 0.930 . S
C1166 C1164 1.419 . S
C1166 C1167 1.362 . S
C1167 H1157 0.930 . S
C1167 C1160 1.409 . S
C1167 C1166 1.362 . S
H1168 C1174 0.930 . S
H1169 C1177 0.930 1_554 S
H1170 C1178 0.930 . S
H1171 C1179 0.930 . S
H1172 C1182 0.930 . S
H1173 C1183 0.930 . S
C1174 H1168 0.930 . S
C1174 C1175 1.355 . S
C1174 C1176 1.415 . S
C1175 C1174 1.355 . S
C1175 C1177 1.419 . S
C1176 C1174 1.415 . S
C1176 C1181 1.425 . S
C1176 C1183 1.409 . S
C1177 H1169 0.930 1_556 S
C1177 C1175 1.419 . S
C1177 C1178 1.362 . S
C1178 H1170 0.930 . S
C1178 C1177 1.362 . S
C1178 C1181 1.409 . S
C1179 H1171 0.930 . S
C1179 C1180 1.355 . S
C1179 C1181 1.415 . S
C1180 C1179 1.355 . S
C1180 C1182 1.419 . S
C1181 C1176 1.425 . S
C1181 C1178 1.409 . S
C1181 C1179 1.415 . S
C1182 H1172 0.930 . S
C1182 C1180 1.419 . S
C1182 C1183 1.362 . S
C1183 H1173 0.930 . S
C1183 C1176 1.409 . S
C1183 C1182 1.362 . S
H1184 C1190 0.930 . S
H1185 C1193 0.930 . S
H1186 C1194 0.930 . S
H1187 C1195 0.930 . S
H1188 C1198 0.930 . S
H1189 C1199 0.930 . S
C1190 H1184 0.930 . S
C1190 C1191 1.355 . S
C1190 C1192 1.415 . S
C1191 C1190 1.355 . S
C1191 C1193 1.419 . S
C1192 C1190 1.415 . S
C1192 C1197 1.425 . S
C1192 C1199 1.409 . S
C1193 H1185 0.930 . S
C1193 C1191 1.419 . S
C1193 C1194 1.362 . S
C1194 H1186 0.930 . S
C1194 C1193 1.362 . S
C1194 C1197 1.409 . S
C1195 H1187 0.930 . S
C1195 C1196 1.355 . S
C1195 C1197 1.415 . S
C1196 C1195 1.355 . S
C1196 C1198 1.419 . S
C1197 C1192 1.425 . S
C1197 C1194 1.409 . S
C1197 C1195 1.415 . S
C1198 H1188 0.930 . S
C1198 C1196 1.419 . S
C1198 C1199 1.362 . S
C1199 H1189 0.930 . S
C1199 C1192 1.409 . S
C1199 C1198 1.362 . S
H1200 C1206 0.930 . S
H1201 C1209 0.930 1_655 S
H1202 C1210 0.930 1_655 S
H1203 C1211 0.930 . S
H1204 C1214 0.930 . S
H1205 C1215 0.930 . S
C1206 H1200 0.930 . S
C1206 C1207 1.355 . S
C1206 C1208 1.415 . S
C1207 C1206 1.355 . S
C1207 C1209 1.419 . S
C1208 C1206 1.415 . S
C1208 C1213 1.425 . S
C1208 C1215 1.409 . S
C1209 H1201 0.930 1_455 S
C1209 C1207 1.419 . S
C1209 C1210 1.362 . S
C1210 H1202 0.930 1_455 S
C1210 C1209 1.362 . S
C1210 C1213 1.409 . S
C1211 H1203 0.930 . S
C1211 C1212 1.355 . S
C1211 C1213 1.415 . S
C1212 C1211 1.355 . S
C1212 C1214 1.419 . S
C1213 C1208 1.425 . S
C1213 C1210 1.409 . S
C1213 C1211 1.415 . S
C1214 H1204 0.930 . S
C1214 C1212 1.419 . S
C1214 C1215 1.362 . S
C1215 H1205 0.930 . S
C1215 C1208 1.409 . S
C1215 C1214 1.362 . S
H1216 C1222 0.930 . S
H1217 C1225 0.930 . S
H1218 C1226 0.930 . S
H1219 C1227 0.930 . S
H1220 C1230 0.930 . S
H1221 C1231 0.930 . S
C1222 H1216 0.930 . S
C1222 C1223 1.355 . S
C1222 C1224 1.415 . S
C1223 C1222 1.355 . S
C1223 C1225 1.419 . S
C1224 C1222 1.415 . S
C1224 C1229 1.425 . S
C1224 C1231 1.409 . S
C1225 H1217 0.930 . S
C1225 C1223 1.419 . S
C1225 C1226 1.362 . S
C1226 H1218 0.930 . S
C1226 C1225 1.362 . S
C1226 C1229 1.409 . S
C1227 H1219 0.930 . S
C1227 C1228 1.355 . S
C1227 C1229 1.415 . S
C1228 C1227 1.355 . S
C1228 C1230 1.419 . S
C1229 C1224 1.425 . S
C1229 C1226 1.409 . S
C1229 C1227 1.415 . S
C1230 H1220 0.930 . S
C1230 C1228 1.419 . S
C1230 C1231 1.362 . S
C1231 H1221 0.930 . S
C1231 C1224 1.409 . S
C1231 C1230 1.362 . S
H1232 C1238 0.930 . S
H1233 C1241 0.930 . S
H1234 C1242 0.930 . S
H1235 C1243 0.930 . S
H1236 C1246 0.930 . S
H1237 C1247 0.930 . S
C1238 H1232 0.930 . S
C1238 C1239 1.355 . S
C1238 C1240 1.415 . S
C1239 C1238 1.355 . S
C1239 C1241 1.419 . S
C1240 C1238 1.415 . S
C1240 C1245 1.425 . S
C1240 C1247 1.409 . S
C1241 H1233 0.930 . S
C1241 C1239 1.419 . S
C1241 C1242 1.362 . S
C1242 H1234 0.930 . S
C1242 C1241 1.362 . S
C1242 C1245 1.409 . S
C1243 H1235 0.930 . S
C1243 C1244 1.355 . S
C1243 C1245 1.415 . S
C1244 C1243 1.355 . S
C1244 C1246 1.419 . S
C1245 C1240 1.425 . S
C1245 C1242 1.409 . S
C1245 C1243 1.415 . S
C1246 H1236 0.930 . S
C1246 C1244 1.419 . S
C1246 C1247 1.362 . S
C1247 H1237 0.930 . S
C1247 C1240 1.409 . S
C1247 C1246 1.362 . S
H1248 C1254 0.930 . S
H1249 C1257 0.930 . S
H1250 C1258 0.930 . S
H1251 C1259 0.930 . S
H1252 C1262 0.930 . S
H1253 C1263 0.930 . S
C1254 H1248 0.930 . S
C1254 C1255 1.355 . S
C1254 C1256 1.415 . S
C1255 C1254 1.355 . S
C1255 C1257 1.419 . S
C1256 C1254 1.415 . S
C1256 C1261 1.425 . S
C1256 C1263 1.409 . S
C1257 H1249 0.930 . S
C1257 C1255 1.419 . S
C1257 C1258 1.362 . S
C1258 H1250 0.930 . S
C1258 C1257 1.362 . S
C1258 C1261 1.409 . S
C1259 H1251 0.930 . S
C1259 C1260 1.355 . S
C1259 C1261 1.415 . S
C1260 C1259 1.355 . S
C1260 C1262 1.419 . S
C1261 C1256 1.425 . S
C1261 C1258 1.409 . S
C1261 C1259 1.415 . S
C1262 H1252 0.930 . S
C1262 C1260 1.419 . S
C1262 C1263 1.362 . S
C1263 H1253 0.930 . S
C1263 C1256 1.409 . S
C1263 C1262 1.362 . S
H1264 C1270 0.930 . S
H1265 C1273 0.930 1_565 S
H1266 C1274 0.930 . S
H1267 C1275 0.930 . S
H1268 C1278 0.930 . S
H1269 C1279 0.930 . S
C1270 H1264 0.930 . S
C1270 C1271 1.355 . S
C1270 C1272 1.415 . S
C1271 C1270 1.355 . S
C1271 C1273 1.419 . S
C1272 C1270 1.415 . S
C1272 C1277 1.425 . S
C1272 C1279 1.409 . S
C1273 H1265 0.930 1_545 S
C1273 C1271 1.419 . S
C1273 C1274 1.362 . S
C1274 H1266 0.930 . S
C1274 C1273 1.362 . S
C1274 C1277 1.409 . S
C1275 H1267 0.930 . S
C1275 C1276 1.355 . S
C1275 C1277 1.415 . S
C1276 C1275 1.355 . S
C1276 C1278 1.419 . S
C1277 C1272 1.425 . S
C1277 C1274 1.409 . S
C1277 C1275 1.415 . S
C1278 H1268 0.930 . S
C1278 C1276 1.419 . S
C1278 C1279 1.362 . S
C1279 H1269 0.930 . S
C1279 C1272 1.409 . S
C1279 C1278 1.362 . S
H1280 C1286 0.930 . S
H1281 C1289 0.930 . S
H1282 C1290 0.930 . S
H1283 C1291 0.930 . S
H1284 C1294 0.930 . S
H1285 C1295 0.930 . S
C1286 H1280 0.930 . S
C1286 C1287 1.355 . S
C1286 C1288 1.415 . S
C1287 C1286 1.355 . S
C1287 C1289 1.419 . S
C1288 C1286 1.415 . S
C1288 C1293 1.425 . S
C1288 C1295 1.409 . S
C1289 H1281 0.930 . S
C1289 C1287 1.419 . S
C1289 C1290 1.362 . S
C1290 H1282 0.930 . S
C1290 C1289 1.362 . S
C1290 C1293 1.409 . S
C1291 H1283 0.930 . S
C1291 C1292 1.355 . S
C1291 C1293 1.415 . S
C1292 C1291 1.355 . S
C1292 C1294 1.419 . S
C1293 C1288 1.425 . S
C1293 C1290 1.409 . S
C1293 C1291 1.415 . S
C1294 H1284 0.930 . S
C1294 C1292 1.419 . S
C1294 C1295 1.362 . S
C1295 H1285 0.930 . S
C1295 C1288 1.409 . S
C1295 C1294 1.362 . S
H1296 C1302 0.930 . S
H1297 C1305 0.930 . S
H1298 C1306 0.930 . S
H1299 C1307 0.930 . S
H1300 C1310 0.930 1_655 S
H1301 C1311 0.930 . S
C1302 H1296 0.930 . S
C1302 C1303 1.355 . S
C1302 C1304 1.415 . S
C1303 C1302 1.355 . S
C1303 C1305 1.419 . S
C1304 C1302 1.415 . S
C1304 C1309 1.425 . S
C1304 C1311 1.409 . S
C1305 H1297 0.930 . S
C1305 C1303 1.419 . S
C1305 C1306 1.362 . S
C1306 H1298 0.930 . S
C1306 C1305 1.362 . S
C1306 C1309 1.409 . S
C1307 H1299 0.930 . S
C1307 C1308 1.355 . S
C1307 C1309 1.415 . S
C1308 C1307 1.355 . S
C1308 C1310 1.419 . S
C1309 C1304 1.425 . S
C1309 C1306 1.409 . S
C1309 C1307 1.415 . S
C1310 H1300 0.930 1_455 S
C1310 C1308 1.419 . S
C1310 C1311 1.362 . S
C1311 H1301 0.930 . S
C1311 C1304 1.409 . S
C1311 C1310 1.362 . S
H1312 C1318 0.930 . S
H1313 C1321 0.930 . S
H1314 C1322 0.930 . S
H1315 C1323 0.930 . S
H1316 C1326 0.930 . S
H1317 C1327 0.930 . S
C1318 H1312 0.930 . S
C1318 C1319 1.355 . S
C1318 C1320 1.415 . S
C1319 C1318 1.355 . S
C1319 C1321 1.419 . S
C1320 C1318 1.415 . S
C1320 C1325 1.425 . S
C1320 C1327 1.409 . S
C1321 H1313 0.930 . S
C1321 C1319 1.419 . S
C1321 C1322 1.362 . S
C1322 H1314 0.930 . S
C1322 C1321 1.362 . S
C1322 C1325 1.409 . S
C1323 H1315 0.930 . S
C1323 C1324 1.355 . S
C1323 C1325 1.415 . S
C1324 C1323 1.355 . S
C1324 C1326 1.419 . S
C1325 C1320 1.425 . S
C1325 C1322 1.409 . S
C1325 C1323 1.415 . S
C1326 H1316 0.930 . S
C1326 C1324 1.419 . S
C1326 C1327 1.362 . S
C1327 H1317 0.930 . S
C1327 C1320 1.409 . S
C1327 C1326 1.362 . S
H1328 C1334 0.930 . S
H1329 C1337 0.930 . S
H1330 C1338 0.930 . S
H1331 C1339 0.930 . S
H1332 C1342 0.930 . S
H1333 C1343 0.930 . S
C1334 H1328 0.930 . S
C1334 C1335 1.355 . S
C1334 C1336 1.415 . S
C1335 C1334 1.355 . S
C1335 C1337 1.419 . S
C1336 C1334 1.415 . S
C1336 C1341 1.425 . S
C1336 C1343 1.409 . S
C1337 H1329 0.930 . S
C1337 C1335 1.419 . S
C1337 C1338 1.362 . S
C1338 H1330 0.930 . S
C1338 C1337 1.362 . S
C1338 C1341 1.409 . S
C1339 H1331 0.930 . S
C1339 C1340 1.355 . S
C1339 C1341 1.415 . S
C1340 C1339 1.355 . S
C1340 C1342 1.419 . S
C1341 C1336 1.425 . S
C1341 C1338 1.409 . S
C1341 C1339 1.415 . S
C1342 H1332 0.930 . S
C1342 C1340 1.419 . S
C1342 C1343 1.362 . S
C1343 H1333 0.930 . S
C1343 C1336 1.409 . S
C1343 C1342 1.362 . S
H1344 C1350 0.930 . S
H1345 C1353 0.930 1_655 S
H1346 C1354 0.930 . S
H1347 C1355 0.930 . S
H1348 C1358 0.930 . S
H1349 C1359 0.930 . S
C1350 H1344 0.930 . S
C1350 C1351 1.355 . S
C1350 C1352 1.415 . S
C1351 C1350 1.355 . S
C1351 C1353 1.419 . S
C1352 C1350 1.415 . S
C1352 C1357 1.425 . S
C1352 C1359 1.409 . S
C1353 H1345 0.930 1_455 S
C1353 C1351 1.419 . S
C1353 C1354 1.362 . S
C1354 H1346 0.930 . S
C1354 C1353 1.362 . S
C1354 C1357 1.409 . S
C1355 H1347 0.930 . S
C1355 C1356 1.355 . S
C1355 C1357 1.415 . S
C1356 C1355 1.355 . S
C1356 C1358 1.419 . S
C1357 C1352 1.425 . S
C1357 C1354 1.409 . S
C1357 C1355 1.415 . S
C1358 H1348 0.930 . S
C1358 C1356 1.419 . S
C1358 C1359 1.362 . S
C1359 H1349 0.930 . S
C1359 C1352 1.409 . S
C1359 C1358 1.362 . S
H1360 C1366 0.930 . S
H1361 C1369 0.930 . S
H1362 C1370 0.930 . S
H1363 C1371 0.930 . S
H1364 C1374 0.930 . S
H1365 C1375 0.930 . S
C1366 H1360 0.930 . S
C1366 C1367 1.355 . S
C1366 C1368 1.415 . S
C1367 C1366 1.355 . S
C1367 C1369 1.419 . S
C1368 C1366 1.415 . S
C1368 C1373 1.425 . S
C1368 C1375 1.409 . S
C1369 H1361 0.930 . S
C1369 C1367 1.419 . S
C1369 C1370 1.362 . S
C1370 H1362 0.930 . S
C1370 C1369 1.362 . S
C1370 C1373 1.409 . S
C1371 H1363 0.930 . S
C1371 C1372 1.355 . S
C1371 C1373 1.415 . S
C1372 C1371 1.355 . S
C1372 C1374 1.419 . S
C1373 C1368 1.425 . S
C1373 C1370 1.409 . S
C1373 C1371 1.415 . S
C1374 H1364 0.930 . S
C1374 C1372 1.419 . S
C1374 C1375 1.362 . S
C1375 H1365 0.930 . S
C1375 C1368 1.409 . S
C1375 C1374 1.362 . S
H1376 C1382 0.930 . S
H1377 C1385 0.930 . S
H1378 C1386 0.930 . S
H1379 C1387 0.930 . S
H1380 C1390 0.930 . S
H1381 C1391 0.930 . S
C1382 H1376 0.930 . S
C1382 C1383 1.355 . S
C1382 C1384 1.415 . S
C1383 C1382 1.355 . S
C1383 C1385 1.419 . S
C1384 C1382 1.415 . S
C1384 C1389 1.425 . S
C1384 C1391 1.409 . S
C1385 H1377 0.930 . S
C1385 C1383 1.419 . S
C1385 C1386 1.362 . S
C1386 H1378 0.930 . S
C1386 C1385 1.362 . S
C1386 C1389 1.409 . S
C1387 H1379 0.930 . S
C1387 C1388 1.355 . S
C1387 C1389 1.415 . S
C1388 C1387 1.355 . S
C1388 C1390 1.419 . S
C1389 C1384 1.425 . S
C1389 C1386 1.409 . S
C1389 C1387 1.415 . S
C1390 H1380 0.930 . S
C1390 C1388 1.419 . S
C1390 C1391 1.362 . S
C1391 H1381 0.930 . S
C1391 C1384 1.409 . S
C1391 C1390 1.362 . S
H1392 C1398 0.930 . S
H1393 C1401 0.930 . S
H1394 C1402 0.930 . S
H1395 C1403 0.930 . S
H1396 C1406 0.930 . S
H1397 C1407 0.930 . S
C1398 H1392 0.930 . S
C1398 C1399 1.355 . S
C1398 C1400 1.415 . S
C1399 C1398 1.355 . S
C1399 C1401 1.419 . S
C1400 C1398 1.415 . S
C1400 C1405 1.425 . S
C1400 C1407 1.409 . S
C1401 H1393 0.930 . S
C1401 C1399 1.419 . S
C1401 C1402 1.362 . S
C1402 H1394 0.930 . S
C1402 C1401 1.362 . S
C1402 C1405 1.409 . S
C1403 H1395 0.930 . S
C1403 C1404 1.355 . S
C1403 C1405 1.415 . S
C1404 C1403 1.355 . S
C1404 C1406 1.419 . S
C1405 C1400 1.425 . S
C1405 C1402 1.409 . S
C1405 C1403 1.415 . S
C1406 H1396 0.930 . S
C1406 C1404 1.419 . S
C1406 C1407 1.362 . S
C1407 H1397 0.930 . S
C1407 C1400 1.409 . S
C1407 C1406 1.362 . S
H1408 C1414 0.930 . S
H1409 C1417 0.930 1_655 S
H1410 C1418 0.930 . S
H1411 C1419 0.930 . S
H1412 C1422 0.930 . S
H1413 C1423 0.930 . S
C1414 H1408 0.930 . S
C1414 C1415 1.355 . S
C1414 C1416 1.415 . S
C1415 C1414 1.355 . S
C1415 C1417 1.419 . S
C1416 C1414 1.415 . S
C1416 C1421 1.425 . S
C1416 C1423 1.409 . S
C1417 H1409 0.930 1_455 S
C1417 C1415 1.419 . S
C1417 C1418 1.362 . S
C1418 H1410 0.930 . S
C1418 C1417 1.362 . S
C1418 C1421 1.409 . S
C1419 H1411 0.930 . S
C1419 C1420 1.355 . S
C1419 C1421 1.415 . S
C1420 C1419 1.355 . S
C1420 C1422 1.419 . S
C1421 C1416 1.425 . S
C1421 C1418 1.409 . S
C1421 C1419 1.415 . S
C1422 H1412 0.930 . S
C1422 C1420 1.419 . S
C1422 C1423 1.362 . S
C1423 H1413 0.930 . S
C1423 C1416 1.409 . S
C1423 C1422 1.362 . S
H1424 C1430 0.930 . S
H1425 C1433 0.930 . S
H1426 C1434 0.930 . S
H1427 C1435 0.930 . S
H1428 C1438 0.930 . S
H1429 C1439 0.930 . S
C1430 H1424 0.930 . S
C1430 C1431 1.355 . S
C1430 C1432 1.415 . S
C1431 C1430 1.355 . S
C1431 C1433 1.419 . S
C1432 C1430 1.415 . S
C1432 C1437 1.425 . S
C1432 C1439 1.409 . S
C1433 H1425 0.930 . S
C1433 C1431 1.419 . S
C1433 C1434 1.362 . S
C1434 H1426 0.930 . S
C1434 C1433 1.362 . S
C1434 C1437 1.409 . S
C1435 H1427 0.930 . S
C1435 C1436 1.355 . S
C1435 C1437 1.415 . S
C1436 C1435 1.355 . S
C1436 C1438 1.419 . S
C1437 C1432 1.425 . S
C1437 C1434 1.409 . S
C1437 C1435 1.415 . S
C1438 H1428 0.930 . S
C1438 C1436 1.419 . S
C1438 C1439 1.362 . S
C1439 H1429 0.930 . S
C1439 C1432 1.409 . S
C1439 C1438 1.362 . S
H1440 C1446 0.930 . S
H1441 C1449 0.930 . S
H1442 C1450 0.930 . S
H1443 C1451 0.930 . S
H1444 C1454 0.930 . S
H1445 C1455 0.930 . S
C1446 H1440 0.930 . S
C1446 C1447 1.355 . S
C1446 C1448 1.415 . S
C1447 C1446 1.355 . S
C1447 C1449 1.419 . S
C1448 C1446 1.415 . S
C1448 C1453 1.425 . S
C1448 C1455 1.409 . S
C1449 H1441 0.930 . S
C1449 C1447 1.419 . S
C1449 C1450 1.362 . S
C1450 H1442 0.930 . S
C1450 C1449 1.362 . S
C1450 C1453 1.409 . S
C1451 H1443 0.930 . S
C1451 C1452 1.355 . S
C1451 C1453 1.415 . S
C1452 C1451 1.355 . S
C1452 C1454 1.419 . S
C1453 C1448 1.425 . S
C1453 C1450 1.409 . S
C1453 C1451 1.415 . S
C1454 H1444 0.930 . S
C1454 C1452 1.419 . S
C1454 C1455 1.362 . S
C1455 H1445 0.930 . S
C1455 C1448 1.409 . S
C1455 C1454 1.362 . S
H1456 C1462 0.930 . S
H1457 C1465 0.930 . S
H1458 C1466 0.930 . S
H1459 C1467 0.930 . S
H1460 C1470 0.930 1_556 S
H1461 C1471 0.930 . S
C1462 H1456 0.930 . S
C1462 C1463 1.355 . S
C1462 C1464 1.415 . S
C1463 C1462 1.355 . S
C1463 C1465 1.419 . S
C1464 C1462 1.415 . S
C1464 C1469 1.425 . S
C1464 C1471 1.409 . S
C1465 H1457 0.930 . S
C1465 C1463 1.419 . S
C1465 C1466 1.362 . S
C1466 H1458 0.930 . S
C1466 C1465 1.362 . S
C1466 C1469 1.409 . S
C1467 H1459 0.930 . S
C1467 C1468 1.355 . S
C1467 C1469 1.415 . S
C1468 C1467 1.355 . S
C1468 C1470 1.419 . S
C1469 C1464 1.425 . S
C1469 C1466 1.409 . S
C1469 C1467 1.415 . S
C1470 H1460 0.930 1_554 S
C1470 C1468 1.419 . S
C1470 C1471 1.362 . S
C1471 H1461 0.930 . S
C1471 C1464 1.409 . S
C1471 C1470 1.362 . S
H1472 C1478 0.930 . S
H1473 C1481 0.930 . S
H1474 C1482 0.930 . S
H1475 C1483 0.930 . S
H1476 C1486 0.930 . S
H1477 C1487 0.930 . S
C1478 H1472 0.930 . S
C1478 C1479 1.355 . S
C1478 C1480 1.415 . S
C1479 C1478 1.355 . S
C1479 C1481 1.419 . S
C1480 C1478 1.415 . S
C1480 C1485 1.425 . S
C1480 C1487 1.409 . S
C1481 H1473 0.930 . S
C1481 C1479 1.419 . S
C1481 C1482 1.362 . S
C1482 H1474 0.930 . S
C1482 C1481 1.362 . S
C1482 C1485 1.409 . S
C1483 H1475 0.930 . S
C1483 C1484 1.355 . S
C1483 C1485 1.415 . S
C1484 C1483 1.355 . S
C1484 C1486 1.419 . S
C1485 C1480 1.425 . S
C1485 C1482 1.409 . S
C1485 C1483 1.415 . S
C1486 H1476 0.930 . S
C1486 C1484 1.419 . S
C1486 C1487 1.362 . S
C1487 H1477 0.930 . S
C1487 C1480 1.409 . S
C1487 C1486 1.362 . S
H1488 C1494 0.930 . S
H1489 C1497 0.930 . S
H1490 C1498 0.930 . S
H1491 C1499 0.930 . S
H1492 C1502 0.930 . S
H1493 C1503 0.930 . S
C1494 H1488 0.930 . S
C1494 C1495 1.355 . S
C1494 C1496 1.415 . S
C1495 C1494 1.355 . S
C1495 C1497 1.419 . S
C1496 C1494 1.415 . S
C1496 C1501 1.425 . S
C1496 C1503 1.409 . S
C1497 H1489 0.930 . S
C1497 C1495 1.419 . S
C1497 C1498 1.362 . S
C1498 H1490 0.930 . S
C1498 C1497 1.362 . S
C1498 C1501 1.409 . S
C1499 H1491 0.930 . S
C1499 C1500 1.355 . S
C1499 C1501 1.415 . S
C1500 C1499 1.355 . S
C1500 C1502 1.419 . S
C1501 C1496 1.425 . S
C1501 C1498 1.409 . S
C1501 C1499 1.415 . S
C1502 H1492 0.930 . S
C1502 C1500 1.419 . S
C1502 C1503 1.362 . S
C1503 H1493 0.930 . S
C1503 C1496 1.409 . S
C1503 C1502 1.362 . S
H1504 C1510 0.930 . S
H1505 C1513 0.930 . S
H1506 C1514 0.930 . S
H1507 C1515 0.930 . S
H1508 C1518 0.930 . S
H1509 C1519 0.930 . S
C1510 H1504 0.930 . S
C1510 C1511 1.355 . S
C1510 C1512 1.415 . S
C1511 C1510 1.355 . S
C1511 C1513 1.419 . S
C1512 C1510 1.415 . S
C1512 C1517 1.425 . S
C1512 C1519 1.409 . S
C1513 H1505 0.930 . S
C1513 C1511 1.419 . S
C1513 C1514 1.362 . S
C1514 H1506 0.930 . S
C1514 C1513 1.362 . S
C1514 C1517 1.409 . S
C1515 H1507 0.930 . S
C1515 C1516 1.355 . S
C1515 C1517 1.415 . S
C1516 C1515 1.355 . S
C1516 C1518 1.419 . S
C1517 C1512 1.425 . S
C1517 C1514 1.409 . S
C1517 C1515 1.415 . S
C1518 H1508 0.930 . S
C1518 C1516 1.419 . S
C1518 C1519 1.362 . S
C1519 H1509 0.930 . S
C1519 C1512 1.409 . S
C1519 C1518 1.362 . S
H1520 C1526 0.930 . S
H1521 C1529 0.930 . S
H1522 C1530 0.930 . S
H1523 C1531 0.930 . S
H1524 C1534 0.930 . S
H1525 C1535 0.930 . S
C1526 H1520 0.930 . S
C1526 C1527 1.355 . S
C1526 C1528 1.415 . S
C1527 C1526 1.355 . S
C1527 C1529 1.419 . S
C1528 C1526 1.415 . S
C1528 C1533 1.425 . S
C1528 C1535 1.409 . S
C1529 H1521 0.930 . S
C1529 C1527 1.419 . S
C1529 C1530 1.362 . S
C1530 H1522 0.930 . S
C1530 C1529 1.362 . S
C1530 C1533 1.409 . S
C1531 H1523 0.930 . S
C1531 C1532 1.355 . S
C1531 C1533 1.415 . S
C1532 C1531 1.355 . S
C1532 C1534 1.419 . S
C1533 C1528 1.425 . S
C1533 C1530 1.409 . S
C1533 C1531 1.415 . S
C1534 H1524 0.930 . S
C1534 C1532 1.419 . S
C1534 C1535 1.362 . S
C1535 H1525 0.930 . S
C1535 C1528 1.409 . S
C1535 C1534 1.362 . S
H1536 C1542 0.930 . S
H1537 C1545 0.930 . S
H1538 C1546 0.930 . S
H1539 C1547 0.930 . S
H1540 C1550 0.930 . S
H1541 C1551 0.930 . S
C1542 H1536 0.930 . S
C1542 C1543 1.355 . S
C1542 C1544 1.415 . S
C1543 C1542 1.355 . S
C1543 C1545 1.419 . S
C1544 C1542 1.415 . S
C1544 C1549 1.425 . S
C1544 C1551 1.409 . S
C1545 H1537 0.930 . S
C1545 C1543 1.419 . S
C1545 C1546 1.362 . S
C1546 H1538 0.930 . S
C1546 C1545 1.362 . S
C1546 C1549 1.409 . S
C1547 H1539 0.930 . S
C1547 C1548 1.355 . S
C1547 C1549 1.415 . S
C1548 C1547 1.355 . S
C1548 C1550 1.419 . S
C1549 C1544 1.425 . S
C1549 C1546 1.409 . S
C1549 C1547 1.415 . S
C1550 H1540 0.930 . S
C1550 C1548 1.419 . S
C1550 C1551 1.362 . S
C1551 H1541 0.930 . S
C1551 C1544 1.409 . S
C1551 C1550 1.362 . S
H1552 C1558 0.930 . S
H1553 C1561 0.930 . S
H1554 C1562 0.930 . S
H1555 C1563 0.930 . S
H1556 C1566 0.930 . S
H1557 C1567 0.930 . S
C1558 H1552 0.930 . S
C1558 C1559 1.355 . S
C1558 C1560 1.415 . S
C1559 C1558 1.355 . S
C1559 C1561 1.419 . S
C1560 C1558 1.415 . S
C1560 C1565 1.425 . S
C1560 C1567 1.409 . S
C1561 H1553 0.930 . S
C1561 C1559 1.419 . S
C1561 C1562 1.362 . S
C1562 H1554 0.930 . S
C1562 C1561 1.362 . S
C1562 C1565 1.409 . S
C1563 H1555 0.930 . S
C1563 C1564 1.355 . S
C1563 C1565 1.415 . S
C1564 C1563 1.355 . S
C1564 C1566 1.419 . S
C1565 C1560 1.425 . S
C1565 C1562 1.409 . S
C1565 C1563 1.415 . S
C1566 H1556 0.930 . S
C1566 C1564 1.419 . S
C1566 C1567 1.362 . S
C1567 H1557 0.930 . S
C1567 C1560 1.409 . S
C1567 C1566 1.362 . S
H1568 C1574 0.930 . S
H1569 C1577 0.930 . S
H1570 C1578 0.930 . S
H1571 C1579 0.930 . S
H1572 C1582 0.930 . S
H1573 C1583 0.930 . S
C1574 H1568 0.930 . S
C1574 C1575 1.355 . S
C1574 C1576 1.415 . S
C1575 C1574 1.355 . S
C1575 C1577 1.419 . S
C1576 C1574 1.415 . S
C1576 C1581 1.425 . S
C1576 C1583 1.409 . S
C1577 H1569 0.930 . S
C1577 C1575 1.419 . S
C1577 C1578 1.362 . S
C1578 H1570 0.930 . S
C1578 C1577 1.362 . S
C1578 C1581 1.409 . S
C1579 H1571 0.930 . S
C1579 C1580 1.355 . S
C1579 C1581 1.415 . S
C1580 C1579 1.355 . S
C1580 C1582 1.419 . S
C1581 C1576 1.425 . S
C1581 C1578 1.409 . S
C1581 C1579 1.415 . S
C1582 H1572 0.930 . S
C1582 C1580 1.419 . S
C1582 C1583 1.362 . S
C1583 H1573 0.930 . S
C1583 C1576 1.409 . S
C1583 C1582 1.362 . S
H1584 C1590 0.930 . S
H1585 C1593 0.930 . S
H1586 C1594 0.930 . S
H1587 C1595 0.930 . S
H1588 C1598 0.930 . S
H1589 C1599 0.930 . S
C1590 H1584 0.930 . S
C1590 C1591 1.355 . S
C1590 C1592 1.415 . S
C1591 C1590 1.355 . S
C1591 C1593 1.419 . S
C1592 C1590 1.415 . S
C1592 C1597 1.425 . S
C1592 C1599 1.409 . S
C1593 H1585 0.930 . S
C1593 C1591 1.419 . S
C1593 C1594 1.362 . S
C1594 H1586 0.930 . S
C1594 C1593 1.362 . S
C1594 C1597 1.409 . S
C1595 H1587 0.930 . S
C1595 C1596 1.355 . S
C1595 C1597 1.415 . S
C1596 C1595 1.355 . S
C1596 C1598 1.419 . S
C1597 C1592 1.425 . S
C1597 C1594 1.409 . S
C1597 C1595 1.415 . S
C1598 H1588 0.930 . S
C1598 C1596 1.419 . S
C1598 C1599 1.362 . S
C1599 H1589 0.930 . S
C1599 C1592 1.409 . S
C1599 C1598 1.362 . S
H1600 C1606 0.930 . S
H1601 C1609 0.930 . S
H1602 C1610 0.930 . S
H1603 C1611 0.930 . S
H1604 C1614 0.930 . S
H1605 C1615 0.930 . S
C1606 H1600 0.930 . S
C1606 C1607 1.355 . S
C1606 C1608 1.415 . S
C1607 C1606 1.355 . S
C1607 C1609 1.419 . S
C1608 C1606 1.415 . S
C1608 C1613 1.425 . S
C1608 C1615 1.409 . S
C1609 H1601 0.930 . S
C1609 C1607 1.419 . S
C1609 C1610 1.362 . S
C1610 H1602 0.930 . S
C1610 C1609 1.362 . S
C1610 C1613 1.409 . S
C1611 H1603 0.930 . S
C1611 C1612 1.355 . S
C1611 C1613 1.415 . S
C1612 C1611 1.355 . S
C1612 C1614 1.419 . S
C1613 C1608 1.425 . S
C1613 C1610 1.409 . S
C1613 C1611 1.415 . S
C1614 H1604 0.930 . S
C1614 C1612 1.419 . S
C1614 C1615 1.362 . S
C1615 H1605 0.930 . S
C1615 C1608 1.409 . S
C1615 C1614 1.362 . S
H1616 C1622 0.930 . S
H1617 C1625 0.930 . S
H1618 C1626 0.930 . S
H1619 C1627 0.930 . S
H1620 C1630 0.930 . S
H1621 C1631 0.930 . S
C1622 H1616 0.930 . S
C1622 C1623 1.355 . S
C1622 C1624 1.415 . S
C1623 C1622 1.355 . S
C1623 C1625 1.419 . S
C1624 C1622 1.415 . S
C1624 C1629 1.425 . S
C1624 C1631 1.409 . S
C1625 H1617 0.930 . S
C1625 C1623 1.419 . S
C1625 C1626 1.362 . S
C1626 H1618 0.930 . S
C1626 C1625 1.362 . S
C1626 C1629 1.409 . S
C1627 H1619 0.930 . S
C1627 C1628 1.355 . S
C1627 C1629 1.415 . S
C1628 C1627 1.355 . S
C1628 C1630 1.419 . S
C1629 C1624 1.425 . S
C1629 C1626 1.409 . S
C1629 C1627 1.415 . S
C1630 H1620 0.930 . S
C1630 C1628 1.419 . S
C1630 C1631 1.362 . S
C1631 H1621 0.930 . S
C1631 C1624 1.409 . S
C1631 C1630 1.362 . S
H1632 C1638 0.930 . S
H1633 C1641 0.930 . S
H1634 C1642 0.930 . S
H1635 C1643 0.930 . S
H1636 C1646 0.930 . S
H1637 C1647 0.930 . S
C1638 H1632 0.930 . S
C1638 C1639 1.355 . S
C1638 C1640 1.415 . S
C1639 C1638 1.355 . S
C1639 C1641 1.419 . S
C1640 C1638 1.415 . S
C1640 C1645 1.425 . S
C1640 C1647 1.409 . S
C1641 H1633 0.930 . S
C1641 C1639 1.419 . S
C1641 C1642 1.362 . S
C1642 H1634 0.930 . S
C1642 C1641 1.362 . S
C1642 C1645 1.409 . S
C1643 H1635 0.930 . S
C1643 C1644 1.355 . S
C1643 C1645 1.415 . S
C1644 C1643 1.355 . S
C1644 C1646 1.419 . S
C1645 C1640 1.425 . S
C1645 C1642 1.409 . S
C1645 C1643 1.415 . S
C1646 H1636 0.930 . S
C1646 C1644 1.419 . S
C1646 C1647 1.362 . S
C1647 H1637 0.930 . S
C1647 C1640 1.409 . S
C1647 C1646 1.362 . S
H1648 C1654 0.930 . S
H1649 C1657 0.930 . S
H1650 C1658 0.920 1_455 S
H1651 C1659 0.930 . S
H1652 C1662 0.930 . S
H1653 C1663 0.930 . S
C1654 H1648 0.930 . S
C1654 C1655 1.355 . S
C1654 C1656 1.415 . S
C1655 C1654 1.355 . S
C1655 C1657 1.419 1_655 S
C1656 C1654 1.415 . S
C1656 C1661 1.425 . S
C1656 C1663 1.409 . S
C1657 H1649 0.930 . S
C1657 C1655 1.419 1_455 S
C1657 C1658 1.362 1_455 S
C1658 H1650 0.920 1_655 S
C1658 C1657 1.362 1_655 S
C1658 C1661 1.420 . S
C1659 H1651 0.930 . S
C1659 C1660 1.355 . S
C1659 C1661 1.415 . S
C1660 C1659 1.355 . S
C1660 C1662 1.419 . S
C1661 C1656 1.425 . S
C1661 C1658 1.420 . S
C1661 C1659 1.415 . S
C1662 H1652 0.930 . S
C1662 C1660 1.419 . S
C1662 C1663 1.362 . S
C1663 H1653 0.930 . S
C1663 C1656 1.409 . S
C1663 C1662 1.362 . S
H1664 C1670 0.930 . S
H1665 C1673 0.930 . S
H1666 C1674 0.930 . S
H1667 C1675 0.930 . S
H1668 C1678 0.930 . S
H1669 C1679 0.930 . S
C1670 H1664 0.930 . S
C1670 C1671 1.355 . S
C1670 C1672 1.415 . S
C1671 C1670 1.355 . S
C1671 C1673 1.419 . S
C1672 C1670 1.415 . S
C1672 C1677 1.425 . S
C1672 C1679 1.409 . S
C1673 H1665 0.930 . S
C1673 C1671 1.419 . S
C1673 C1674 1.362 . S
C1674 H1666 0.930 . S
C1674 C1673 1.362 . S
C1674 C1677 1.409 . S
C1675 H1667 0.930 . S
C1675 C1676 1.355 . S
C1675 C1677 1.415 . S
C1676 C1675 1.355 . S
C1676 C1678 1.419 . S
C1677 C1672 1.425 . S
C1677 C1674 1.409 . S
C1677 C1675 1.415 . S
C1678 H1668 0.930 . S
C1678 C1676 1.419 . S
C1678 C1679 1.362 . S
C1679 H1669 0.930 . S
C1679 C1672 1.409 . S
C1679 C1678 1.362 . S
H1680 C1686 0.930 . S
H1681 C1689 0.930 . S
H1682 C1690 0.930 . S
H1683 C1691 0.930 . S
H1684 C1694 0.930 . S
H1685 C1695 0.930 . S
C1686 H1680 0.930 . S
C1686 C1687 1.355 . S
C1686 C1688 1.415 . S
C1687 C1686 1.355 . S
C1687 C1689 1.419 . S
C1688 C1686 1.415 . S
C1688 C1693 1.425 . S
C1688 C1695 1.409 . S
C1689 H1681 0.930 . S
C1689 C1687 1.419 . S
C1689 C1690 1.362 . S
C1690 H1682 0.930 . S
C1690 C1689 1.362 . S
C1690 C1693 1.409 . S
C1691 H1683 0.930 . S
C1691 C1692 1.355 . S
C1691 C1693 1.415 . S
C1692 C1691 1.355 . S
C1692 C1694 1.419 . S
C1693 C1688 1.425 . S
C1693 C1690 1.409 . S
C1693 C1691 1.415 . S
C1694 H1684 0.930 . S
C1694 C1692 1.419 . S
C1694 C1695 1.362 . S
C1695 H1685 0.930 . S
C1695 C1688 1.409 . S
C1695 C1694 1.362 . S
H1696 C1702 0.930 . S
H1697 C1705 0.930 . S
H1698 C1706 0.930 . S
H1699 C1707 0.930 . S
H1700 C1710 0.930 . S
H1701 C1711 0.930 . S
C1702 H1696 0.930 . S
C1702 C1703 1.355 . S
C1702 C1704 1.415 . S
C1703 C1702 1.355 . S
C1703 C1705 1.419 . S
C1704 C1702 1.415 . S
C1704 C1709 1.425 . S
C1704 C1711 1.409 . S
C1705 H1697 0.930 . S
C1705 C1703 1.419 . S
C1705 C1706 1.362 . S
C1706 H1698 0.930 . S
C1706 C1705 1.362 . S
C1706 C1709 1.409 . S
C1707 H1699 0.930 . S
C1707 C1708 1.355 . S
C1707 C1709 1.415 . S
C1708 C1707 1.355 . S
C1708 C1710 1.419 . S
C1709 C1704 1.425 . S
C1709 C1706 1.409 . S
C1709 C1707 1.415 . S
C1710 H1700 0.930 . S
C1710 C1708 1.419 . S
C1710 C1711 1.362 . S
C1711 H1701 0.930 . S
C1711 C1704 1.409 . S
C1711 C1710 1.362 . S
H1712 C1718 0.930 . S
H1713 C1721 0.930 . S
H1714 C1722 0.930 . S
H1715 C1723 0.930 . S
H1716 C1726 0.930 . S
H1717 C1727 0.930 . S
C1718 H1712 0.930 . S
C1718 C1719 1.355 . S
C1718 C1720 1.415 . S
C1719 C1718 1.355 . S
C1719 C1721 1.419 . S
C1720 C1718 1.415 . S
C1720 C1725 1.425 . S
C1720 C1727 1.409 . S
C1721 H1713 0.930 . S
C1721 C1719 1.419 . S
C1721 C1722 1.362 . S
C1722 H1714 0.930 . S
C1722 C1721 1.362 . S
C1722 C1725 1.409 . S
C1723 H1715 0.930 . S
C1723 C1724 1.355 . S
C1723 C1725 1.415 . S
C1724 C1723 1.355 . S
C1724 C1726 1.419 . S
C1725 C1720 1.425 . S
C1725 C1722 1.409 . S
C1725 C1723 1.415 . S
C1726 H1716 0.930 . S
C1726 C1724 1.419 . S
C1726 C1727 1.362 . S
C1727 H1717 0.930 . S
C1727 C1720 1.409 . S
C1727 C1726 1.362 . S
H1728 C1734 0.930 . S
H1729 C1737 0.930 . S
H1730 C1738 0.930 . S
H1731 C1739 0.930 . S
H1732 C1742 0.930 . S
H1733 C1743 0.930 . S
C1734 H1728 0.930 . S
C1734 C1735 1.355 . S
C1734 C1736 1.415 . S
C1735 C1734 1.355 . S
C1735 C1737 1.419 . S
C1736 C1734 1.415 . S
C1736 C1741 1.425 . S
C1736 C1743 1.409 . S
C1737 H1729 0.930 . S
C1737 C1735 1.419 . S
C1737 C1738 1.362 . S
C1738 H1730 0.930 . S
C1738 C1737 1.362 . S
C1738 C1741 1.409 . S
C1739 H1731 0.930 . S
C1739 C1740 1.355 . S
C1739 C1741 1.415 . S
C1740 C1739 1.355 . S
C1740 C1742 1.419 . S
C1741 C1736 1.425 . S
C1741 C1738 1.409 . S
C1741 C1739 1.415 . S
C1742 H1732 0.930 . S
C1742 C1740 1.419 . S
C1742 C1743 1.362 . S
C1743 H1733 0.930 . S
C1743 C1736 1.409 . S
C1743 C1742 1.362 . S
H1744 C1750 0.930 . S
H1745 C1753 0.930 . S
H1746 C1754 0.930 . S
H1747 C1755 0.930 . S
H1748 C1758 0.930 . S
H1749 C1759 0.930 . S
C1750 H1744 0.930 . S
C1750 C1751 1.355 . S
C1750 C1752 1.415 . S
C1751 C1750 1.355 . S
C1751 C1753 1.419 . S
C1752 C1750 1.415 . S
C1752 C1757 1.425 . S
C1752 C1759 1.409 . S
C1753 H1745 0.930 . S
C1753 C1751 1.419 . S
C1753 C1754 1.362 . S
C1754 H1746 0.930 . S
C1754 C1753 1.362 . S
C1754 C1757 1.409 . S
C1755 H1747 0.930 . S
C1755 C1756 1.355 . S
C1755 C1757 1.415 . S
C1756 C1755 1.355 . S
C1756 C1758 1.419 . S
C1757 C1752 1.425 . S
C1757 C1754 1.409 . S
C1757 C1755 1.415 . S
C1758 H1748 0.930 . S
C1758 C1756 1.419 . S
C1758 C1759 1.362 . S
C1759 H1749 0.930 . S
C1759 C1752 1.409 . S
C1759 C1758 1.362 . S
H1760 C1766 0.930 . S
H1761 C1769 0.930 . S
H1762 C1770 0.930 . S
H1763 C1771 0.930 . S
H1764 C1774 0.930 . S
H1765 C1775 0.930 . S
C1766 H1760 0.930 . S
C1766 C1767 1.355 . S
C1766 C1768 1.415 . S
C1767 C1766 1.355 . S
C1767 C1769 1.419 . S
C1768 C1766 1.415 . S
C1768 C1773 1.425 . S
C1768 C1775 1.409 . S
C1769 H1761 0.930 . S
C1769 C1767 1.419 . S
C1769 C1770 1.362 . S
C1770 H1762 0.930 . S
C1770 C1769 1.362 . S
C1770 C1773 1.409 . S
C1771 H1763 0.930 . S
C1771 C1772 1.355 . S
C1771 C1773 1.415 . S
C1772 C1771 1.355 . S
C1772 C1774 1.419 . S
C1773 C1768 1.425 . S
C1773 C1770 1.409 . S
C1773 C1771 1.415 . S
C1774 H1764 0.930 . S
C1774 C1772 1.419 . S
C1774 C1775 1.362 . S
C1775 H1765 0.930 . S
C1775 C1768 1.409 . S
C1775 C1774 1.362 . S
H1776 C1782 0.930 . S
H1777 C1785 0.930 . S
H1778 C1786 0.930 . S
H1779 C1787 0.930 . S
H1780 C1790 0.930 . S
H1781 C1791 0.930 . S
C1782 H1776 0.930 . S
C1782 C1783 1.355 . S
C1782 C1784 1.415 . S
C1783 C1782 1.355 . S
C1783 C1785 1.419 . S
C1784 C1782 1.415 . S
C1784 C1789 1.425 . S
C1784 C1791 1.409 . S
C1785 H1777 0.930 . S
C1785 C1783 1.419 . S
C1785 C1786 1.362 . S
C1786 H1778 0.930 . S
C1786 C1785 1.362 . S
C1786 C1789 1.409 . S
C1787 H1779 0.930 . S
C1787 C1788 1.355 . S
C1787 C1789 1.415 . S
C1788 C1787 1.355 . S
C1788 C1790 1.419 . S
C1789 C1784 1.425 . S
C1789 C1786 1.409 . S
C1789 C1787 1.415 . S
C1790 H1780 0.930 . S
C1790 C1788 1.419 . S
C1790 C1791 1.362 . S
C1791 H1781 0.930 . S
C1791 C1784 1.409 . S
C1791 C1790 1.362 . S
H1792 C1798 0.930 . S
H1793 C1801 0.930 . S
H1794 C1802 0.930 . S
H1795 C1803 0.930 . S
H1796 C1806 0.930 . S
H1797 C1807 0.930 . S
C1798 H1792 0.930 . S
C1798 C1799 1.355 . S
C1798 C1800 1.415 . S
C1799 C1798 1.355 . S
C1799 C1801 1.419 . S
C1800 C1798 1.415 . S
C1800 C1805 1.425 . S
C1800 C1807 1.409 . S
C1801 H1793 0.930 . S
C1801 C1799 1.419 . S
C1801 C1802 1.362 . S
C1802 H1794 0.930 . S
C1802 C1801 1.362 . S
C1802 C1805 1.409 . S
C1803 H1795 0.930 . S
C1803 C1804 1.355 . S
C1803 C1805 1.415 . S
C1804 C1803 1.355 . S
C1804 C1806 1.419 . S
C1805 C1800 1.425 . S
C1805 C1802 1.409 . S
C1805 C1803 1.415 . S
C1806 H1796 0.930 . S
C1806 C1804 1.419 . S
C1806 C1807 1.362 . S
C1807 H1797 0.930 . S
C1807 C1800 1.409 . S
C1807 C1806 1.362 . S
H1808 C1814 0.930 . S
H1809 C1817 0.930 . S
H1810 C1818 0.930 . S
H1811 C1819 0.930 . S
H1812 C1822 0.930 . S
H1813 C1823 0.930 . S
C1814 H1808 0.930 . S
C1814 C1815 1.355 . S
C1814 C1816 1.415 . S
C1815 C1814 1.355 . S
C1815 C1817 1.419 . S
C1816 C1814 1.415 . S
C1816 C1821 1.425 . S
C1816 C1823 1.409 . S
C1817 H1809 0.930 . S
C1817 C1815 1.419 . S
C1817 C1818 1.362 . S
C1818 H1810 0.930 . S
C1818 C1817 1.362 . S
C1818 C1821 1.409 . S
C1819 H1811 0.930 . S
C1819 C1820 1.355 . S
C1819 C1821 1.415 . S
C1820 C1819 1.355 . S
C1820 C1822 1.419 . S
C1821 C1816 1.425 . S
C1821 C1818 1.409 . S
C1821 C1819 1.415 . S
C1822 H1812 0.930 . S
C1822 C1820 1.419 . S
C1822 C1823 1.362 . S
C1823 H1813 0.930 . S
C1823 C1816 1.409 . S
C1823 C1822 1.362 . S
H1824 C1830 0.930 . S
H1825 C1833 0.930 . S
H1826 C1834 0.930 . S
H1827 C1835 0.930 . S
H1828 C1838 0.930 . S
H1829 C1839 0.930 . S
C1830 H1824 0.930 . S
C1830 C1831 1.355 . S
C1830 C1832 1.415 . S
C1831 C1830 1.355 . S
C1831 C1833 1.419 . S
C1832 C1830 1.415 . S
C1832 C1837 1.425 . S
C1832 C1839 1.409 . S
C1833 H1825 0.930 . S
C1833 C1831 1.419 . S
C1833 C1834 1.362 . S
C1834 H1826 0.930 . S
C1834 C1833 1.362 . S
C1834 C1837 1.409 . S
C1835 H1827 0.930 . S
C1835 C1836 1.355 . S
C1835 C1837 1.415 . S
C1836 C1835 1.355 . S
C1836 C1838 1.419 . S
C1837 C1832 1.425 . S
C1837 C1834 1.409 . S
C1837 C1835 1.415 . S
C1838 H1828 0.930 . S
C1838 C1836 1.419 . S
C1838 C1839 1.362 . S
C1839 H1829 0.930 . S
C1839 C1832 1.409 . S
C1839 C1838 1.362 . S
H1840 C1846 0.930 . S
H1841 C1849 0.930 . S
H1842 C1850 0.930 . S
H1843 C1851 0.930 . S
H1844 C1854 0.930 . S
H1845 C1855 0.930 . S
C1846 H1840 0.930 . S
C1846 C1847 1.355 . S
C1846 C1848 1.415 . S
C1847 C1846 1.355 . S
C1847 C1849 1.419 . S
C1848 C1846 1.415 . S
C1848 C1853 1.425 . S
C1848 C1855 1.409 . S
C1849 H1841 0.930 . S
C1849 C1847 1.419 . S
C1849 C1850 1.362 . S
C1850 H1842 0.930 . S
C1850 C1849 1.362 . S
C1850 C1853 1.409 . S
C1851 H1843 0.930 . S
C1851 C1852 1.355 . S
C1851 C1853 1.415 . S
C1852 C1851 1.355 . S
C1852 C1854 1.419 . S
C1853 C1848 1.425 . S
C1853 C1850 1.409 . S
C1853 C1851 1.415 . S
C1854 H1844 0.930 . S
C1854 C1852 1.419 . S
C1854 C1855 1.362 . S
C1855 H1845 0.930 . S
C1855 C1848 1.409 . S
C1855 C1854 1.362 . S
H1856 C1862 0.930 . S
H1857 C1865 0.930 . S
H1858 C1866 0.930 . S
H1859 C1867 0.930 . S
H1860 C1870 0.930 . S
H1861 C1871 0.930 . S
C1862 H1856 0.930 . S
C1862 C1863 1.355 . S
C1862 C1864 1.415 . S
C1863 C1862 1.355 . S
C1863 C1865 1.419 . S
C1864 C1862 1.415 . S
C1864 C1869 1.425 . S
C1864 C1871 1.409 . S
C1865 H1857 0.930 . S
C1865 C1863 1.419 . S
C1865 C1866 1.362 . S
C1866 H1858 0.930 . S
C1866 C1865 1.362 . S
C1866 C1869 1.409 . S
C1867 H1859 0.930 . S
C1867 C1868 1.355 . S
C1867 C1869 1.415 . S
C1868 C1867 1.355 . S
C1868 C1870 1.419 . S
C1869 C1864 1.425 . S
C1869 C1866 1.409 . S
C1869 C1867 1.415 . S
C1870 H1860 0.930 . S
C1870 C1868 1.419 . S
C1870 C1871 1.362 . S
C1871 H1861 0.930 . S
C1871 C1864 1.409 . S
C1871 C1870 1.362 . S
H1872 C1878 0.930 . S
H1873 C1881 0.930 . S
H1874 C1882 0.930 . S
H1875 C1883 0.930 . S
H1876 C1886 0.930 . S
H1877 C1887 0.930 . S
C1878 H1872 0.930 . S
C1878 C1879 1.355 . S
C1878 C1880 1.415 . S
C1879 C1878 1.355 . S
C1879 C1881 1.419 . S
C1880 C1878 1.415 . S
C1880 C1885 1.425 . S
C1880 C1887 1.409 . S
C1881 H1873 0.930 . S
C1881 C1879 1.419 . S
C1881 C1882 1.362 . S
C1882 H1874 0.930 . S
C1882 C1881 1.362 . S
C1882 C1885 1.409 . S
C1883 H1875 0.930 . S
C1883 C1884 1.355 . S
C1883 C1885 1.415 . S
C1884 C1883 1.355 . S
C1884 C1886 1.419 . S
C1885 C1880 1.425 . S
C1885 C1882 1.409 . S
C1885 C1883 1.415 . S
C1886 H1876 0.930 . S
C1886 C1884 1.419 . S
C1886 C1887 1.362 . S
C1887 H1877 0.930 . S
C1887 C1880 1.409 . S
C1887 C1886 1.362 . S
H1888 C1894 0.930 . S
H1889 C1897 0.930 . S
H1890 C1898 0.930 . S
H1891 C1899 0.930 . S
H1892 C1902 0.930 . S
H1893 C1903 0.930 . S
C1894 H1888 0.930 . S
C1894 C1895 1.355 . S
C1894 C1896 1.415 . S
C1895 C1894 1.355 . S
C1895 C1897 1.419 . S
C1896 C1894 1.415 . S
C1896 C1901 1.425 . S
C1896 C1903 1.409 . S
C1897 H1889 0.930 . S
C1897 C1895 1.419 . S
C1897 C1898 1.362 . S
C1898 H1890 0.930 . S
C1898 C1897 1.362 . S
C1898 C1901 1.409 . S
C1899 H1891 0.930 . S
C1899 C1900 1.355 . S
C1899 C1901 1.415 . S
C1900 C1899 1.355 . S
C1900 C1902 1.419 . S
C1901 C1896 1.425 . S
C1901 C1898 1.409 . S
C1901 C1899 1.415 . S
C1902 H1892 0.930 . S
C1902 C1900 1.419 . S
C1902 C1903 1.362 . S
C1903 H1893 0.930 . S
C1903 C1896 1.409 . S
C1903 C1902 1.362 . S
H1904 C1910 0.930 . S
H1905 C1913 0.930 . S
H1906 C1914 0.930 . S
H1907 C1915 0.930 . S
H1908 C1918 0.930 . S
H1909 C1919 0.930 . S
C1910 H1904 0.930 . S
C1910 C1911 1.355 . S
C1910 C1912 1.415 . S
C1911 C1910 1.355 . S
C1911 C1913 1.419 . S
C1912 C1910 1.415 . S
C1912 C1917 1.425 . S
C1912 C1919 1.409 . S
C1913 H1905 0.930 . S
C1913 C1911 1.419 . S
C1913 C1914 1.362 . S
C1914 H1906 0.930 . S
C1914 C1913 1.362 . S
C1914 C1917 1.409 . S
C1915 H1907 0.930 . S
C1915 C1916 1.355 . S
C1915 C1917 1.415 . S
C1916 C1915 1.355 . S
C1916 C1918 1.419 . S
C1917 C1912 1.425 . S
C1917 C1914 1.409 . S
C1917 C1915 1.415 . S
C1918 H1908 0.930 . S
C1918 C1916 1.419 . S
C1918 C1919 1.362 . S
C1919 H1909 0.930 . S
C1919 C1912 1.409 . S
C1919 C1918 1.362 . S
H1920 C1926 0.930 . S
H1921 C1929 0.930 . S
H1922 C1930 0.930 . S
H1923 C1931 0.930 . S
H1924 C1934 0.930 . S
H1925 C1935 0.930 . S
C1926 H1920 0.930 . S
C1926 C1927 1.355 . S
C1926 C1928 1.415 . S
C1927 C1926 1.355 . S
C1927 C1929 1.419 . S
C1928 C1926 1.415 . S
C1928 C1933 1.425 . S
C1928 C1935 1.409 . S
C1929 H1921 0.930 . S
C1929 C1927 1.419 . S
C1929 C1930 1.362 . S
C1930 H1922 0.930 . S
C1930 C1929 1.362 . S
C1930 C1933 1.409 . S
C1931 H1923 0.930 . S
C1931 C1932 1.355 . S
C1931 C1933 1.415 . S
C1932 C1931 1.355 . S
C1932 C1934 1.419 . S
C1933 C1928 1.425 . S
C1933 C1930 1.409 . S
C1933 C1931 1.415 . S
C1934 H1924 0.930 . S
C1934 C1932 1.419 . S
C1934 C1935 1.362 . S
C1935 H1925 0.930 . S
C1935 C1928 1.409 . S
C1935 C1934 1.362 . S
H1936 C1942 0.930 . S
H1937 C1945 0.930 . S
H1938 C1946 0.930 . S
H1939 C1947 0.930 . S
H1940 C1950 0.930 . S
H1941 C1951 0.930 . S
C1942 H1936 0.930 . S
C1942 C1943 1.355 . S
C1942 C1944 1.415 . S
C1943 C1942 1.355 . S
C1943 C1945 1.419 . S
C1944 C1942 1.415 . S
C1944 C1949 1.425 . S
C1944 C1951 1.409 . S
C1945 H1937 0.930 . S
C1945 C1943 1.419 . S
C1945 C1946 1.362 . S
C1946 H1938 0.930 . S
C1946 C1945 1.362 . S
C1946 C1949 1.409 . S
C1947 H1939 0.930 . S
C1947 C1948 1.355 . S
C1947 C1949 1.415 . S
C1948 C1947 1.355 . S
C1948 C1950 1.419 . S
C1949 C1944 1.425 . S
C1949 C1946 1.409 . S
C1949 C1947 1.415 . S
C1950 H1940 0.930 . S
C1950 C1948 1.419 . S
C1950 C1951 1.362 . S
C1951 H1941 0.930 . S
C1951 C1944 1.409 . S
C1951 C1950 1.362 . S
H1952 C1958 0.930 . S
H1953 C1961 0.930 . S
H1954 C1962 0.930 . S
H1955 C1963 0.930 . S
H1956 C1966 0.930 . S
H1957 C1967 0.930 . S
C1958 H1952 0.930 . S
C1958 C1959 1.355 . S
C1958 C1960 1.415 . S
C1959 C1958 1.355 . S
C1959 C1961 1.419 . S
C1960 C1958 1.415 . S
C1960 C1965 1.425 . S
C1960 C1967 1.409 . S
C1961 H1953 0.930 . S
C1961 C1959 1.419 . S
C1961 C1962 1.362 . S
C1962 H1954 0.930 . S
C1962 C1961 1.362 . S
C1962 C1965 1.409 . S
C1963 H1955 0.930 . S
C1963 C1964 1.355 . S
C1963 C1965 1.415 . S
C1964 C1963 1.355 . S
C1964 C1966 1.419 . S
C1965 C1960 1.425 . S
C1965 C1962 1.409 . S
C1965 C1963 1.415 . S
C1966 H1956 0.930 . S
C1966 C1964 1.419 . S
C1966 C1967 1.362 . S
C1967 H1957 0.930 . S
C1967 C1960 1.409 . S
C1967 C1966 1.362 . S
H1968 C1974 0.930 . S
H1969 C1977 0.930 . S
H1970 C1978 0.930 . S
H1971 C1979 0.930 . S
H1972 C1982 0.930 . S
H1973 C1983 0.930 . S
C1974 H1968 0.930 . S
C1974 C1975 1.355 . S
C1974 C1976 1.415 . S
C1975 C1974 1.355 . S
C1975 C1977 1.419 . S
C1976 C1974 1.415 . S
C1976 C1981 1.425 . S
C1976 C1983 1.409 . S
C1977 H1969 0.930 . S
C1977 C1975 1.419 . S
C1977 C1978 1.362 . S
C1978 H1970 0.930 . S
C1978 C1977 1.362 . S
C1978 C1981 1.409 . S
C1979 H1971 0.930 . S
C1979 C1980 1.355 . S
C1979 C1981 1.415 . S
C1980 C1979 1.355 . S
C1980 C1982 1.419 . S
C1981 C1976 1.425 . S
C1981 C1978 1.409 . S
C1981 C1979 1.415 . S
C1982 H1972 0.930 . S
C1982 C1980 1.419 . S
C1982 C1983 1.362 . S
C1983 H1973 0.930 . S
C1983 C1976 1.409 . S
C1983 C1982 1.362 . S
H1984 C1990 0.930 . S
H1985 C1993 0.930 . S
H1986 C1994 0.930 . S
H1987 C1995 0.930 . S
H1988 C1998 0.930 . S
H1989 C1999 0.930 . S
C1990 H1984 0.930 . S
C1990 C1991 1.355 . S
C1990 C1992 1.415 . S
C1991 C1990 1.355 . S
C1991 C1993 1.419 . S
C1992 C1990 1.415 . S
C1992 C1997 1.425 . S
C1992 C1999 1.409 . S
C1993 H1985 0.930 . S
C1993 C1991 1.419 . S
C1993 C1994 1.362 . S
C1994 H1986 0.930 . S
C1994 C1993 1.362 . S
C1994 C1997 1.409 . S
C1995 H1987 0.930 . S
C1995 C1996 1.355 . S
C1995 C1997 1.415 . S
C1996 C1995 1.355 . S
C1996 C1998 1.419 . S
C1997 C1992 1.425 . S
C1997 C1994 1.409 . S
C1997 C1995 1.415 . S
C1998 H1988 0.930 . S
C1998 C1996 1.419 . S
C1998 C1999 1.362 . S
C1999 H1989 0.930 . S
C1999 C1992 1.409 . S
C1999 C1998 1.362 . S
H2000 C2006 0.930 . S
H2001 C2009 0.930 . S
H2002 C2010 0.930 . S
H2003 C2011 0.930 . S
H2004 C2014 0.930 1_565 S
H2005 C2015 0.930 . S
C2006 H2000 0.930 . S
C2006 C2007 1.355 . S
C2006 C2008 1.415 . S
C2007 C2006 1.355 . S
C2007 C2009 1.419 . S
C2008 C2006 1.415 . S
C2008 C2013 1.425 . S
C2008 C2015 1.409 . S
C2009 H2001 0.930 . S
C2009 C2007 1.419 . S
C2009 C2010 1.362 . S
C2010 H2002 0.930 . S
C2010 C2009 1.362 . S
C2010 C2013 1.409 . S
C2011 H2003 0.930 . S
C2011 C2012 1.355 . S
C2011 C2013 1.415 . S
C2012 C2011 1.355 . S
C2012 C2014 1.419 . S
C2013 C2008 1.425 . S
C2013 C2010 1.409 . S
C2013 C2011 1.415 . S
C2014 H2004 0.930 1_545 S
C2014 C2012 1.419 . S
C2014 C2015 1.362 . S
C2015 H2005 0.930 . S
C2015 C2008 1.409 . S
C2015 C2014 1.362 . S
H2016 C2022 0.930 . S
H2017 C2025 0.930 . S
H2018 C2026 0.930 . S
H2019 C2027 0.930 . S
H2020 C2030 0.930 . S
H2021 C2031 0.930 . S
C2022 H2016 0.930 . S
C2022 C2023 1.355 . S
C2022 C2024 1.415 . S
C2023 C2022 1.355 . S
C2023 C2025 1.419 . S
C2024 C2022 1.415 . S
C2024 C2029 1.425 . S
C2024 C2031 1.409 . S
C2025 H2017 0.930 . S
C2025 C2023 1.419 . S
C2025 C2026 1.362 . S
C2026 H2018 0.930 . S
C2026 C2025 1.362 . S
C2026 C2029 1.409 . S
C2027 H2019 0.930 . S
C2027 C2028 1.355 . S
C2027 C2029 1.415 . S
C2028 C2027 1.355 . S
C2028 C2030 1.419 . S
C2029 C2024 1.425 . S
C2029 C2026 1.409 . S
C2029 C2027 1.415 . S
C2030 H2020 0.930 . S
C2030 C2028 1.419 . S
C2030 C2031 1.362 . S
C2031 H2021 0.930 . S
C2031 C2024 1.409 . S
C2031 C2030 1.362 . S
H2032 C2038 0.930 . S
H2033 C2041 0.930 . S
H2034 C2042 0.930 . S
H2035 C2043 0.930 . S
H2036 C2046 0.930 . S
H2037 C2047 0.930 . S
C2038 H2032 0.930 . S
C2038 C2039 1.355 . S
C2038 C2040 1.415 . S
C2039 C2038 1.355 . S
C2039 C2041 1.419 . S
C2040 C2038 1.415 . S
C2040 C2045 1.425 . S
C2040 C2047 1.409 . S
C2041 H2033 0.930 . S
C2041 C2039 1.419 . S
C2041 C2042 1.362 . S
C2042 H2034 0.930 . S
C2042 C2041 1.362 . S
C2042 C2045 1.409 . S
C2043 H2035 0.930 . S
C2043 C2044 1.355 . S
C2043 C2045 1.415 . S
C2044 C2043 1.355 . S
C2044 C2046 1.419 . S
C2045 C2040 1.425 . S
C2045 C2042 1.409 . S
C2045 C2043 1.415 . S
C2046 H2036 0.930 . S
C2046 C2044 1.419 . S
C2046 C2047 1.362 . S
C2047 H2037 0.930 . S
C2047 C2040 1.409 . S
C2047 C2046 1.362 . S
H2048 C2054 0.930 . S
H2049 C2057 0.930 . S
H2050 C2058 0.930 . S
H2051 C2059 0.930 . S
H2052 C2062 0.930 . S
H2053 C2063 0.930 . S
C2054 H2048 0.930 . S
C2054 C2055 1.355 . S
C2054 C2056 1.415 . S
C2055 C2054 1.355 . S
C2055 C2057 1.419 . S
C2056 C2054 1.415 . S
C2056 C2061 1.425 . S
C2056 C2063 1.409 . S
C2057 H2049 0.930 . S
C2057 C2055 1.419 . S
C2057 C2058 1.362 . S
C2058 H2050 0.930 . S
C2058 C2057 1.362 . S
C2058 C2061 1.409 . S
C2059 H2051 0.930 . S
C2059 C2060 1.355 . S
C2059 C2061 1.415 . S
C2060 C2059 1.355 . S
C2060 C2062 1.419 . S
C2061 C2056 1.425 . S
C2061 C2058 1.409 . S
C2061 C2059 1.415 . S
C2062 H2052 0.930 . S
C2062 C2060 1.419 . S
C2062 C2063 1.362 . S
C2063 H2053 0.930 . S
C2063 C2056 1.409 . S
C2063 C2062 1.362 . S
H2064 C2070 0.930 . S
H2065 C2073 0.930 . S
H2066 C2074 0.930 . S
H2067 C2075 0.930 . S
H2068 C2078 0.930 . S
H2069 C2079 0.930 . S
C2070 H2064 0.930 . S
C2070 C2071 1.355 . S
C2070 C2072 1.415 . S
C2071 C2070 1.355 . S
C2071 C2073 1.419 . S
C2072 C2070 1.415 . S
C2072 C2077 1.425 . S
C2072 C2079 1.409 . S
C2073 H2065 0.930 . S
C2073 C2071 1.419 . S
C2073 C2074 1.362 . S
C2074 H2066 0.930 . S
C2074 C2073 1.362 . S
C2074 C2077 1.409 . S
C2075 H2067 0.930 . S
C2075 C2076 1.355 . S
C2075 C2077 1.415 . S
C2076 C2075 1.355 . S
C2076 C2078 1.419 . S
C2077 C2072 1.425 . S
C2077 C2074 1.409 . S
C2077 C2075 1.415 . S
C2078 H2068 0.930 . S
C2078 C2076 1.419 . S
C2078 C2079 1.362 . S
C2079 H2069 0.930 . S
C2079 C2072 1.409 . S
C2079 C2078 1.362 . S
H2080 C2086 0.930 . S
H2081 C2089 0.930 . S
H2082 C2090 0.930 . S
H2083 C2091 0.930 . S
H2084 C2094 0.930 . S
H2085 C2095 0.930 . S
C2086 H2080 0.930 . S
C2086 C2087 1.355 . S
C2086 C2088 1.415 . S
C2087 C2086 1.355 . S
C2087 C2089 1.419 . S
C2088 C2086 1.415 . S
C2088 C2093 1.425 . S
C2088 C2095 1.409 . S
C2089 H2081 0.930 . S
C2089 C2087 1.419 . S
C2089 C2090 1.362 . S
C2090 H2082 0.930 . S
C2090 C2089 1.362 . S
C2090 C2093 1.409 . S
C2091 H2083 0.930 . S
C2091 C2092 1.355 . S
C2091 C2093 1.415 . S
C2092 C2091 1.355 . S
C2092 C2094 1.419 . S
C2093 C2088 1.425 . S
C2093 C2090 1.409 . S
C2093 C2091 1.415 . S
C2094 H2084 0.930 . S
C2094 C2092 1.419 . S
C2094 C2095 1.362 . S
C2095 H2085 0.930 . S
C2095 C2088 1.409 . S
C2095 C2094 1.362 . S
H2096 C2102 0.930 . S
H2097 C2105 0.930 . S
H2098 C2106 0.930 . S
H2099 C2107 0.930 . S
H2100 C2110 0.930 . S
H2101 C2111 0.930 . S
C2102 H2096 0.930 . S
C2102 C2103 1.355 . S
C2102 C2104 1.415 . S
C2103 C2102 1.355 . S
C2103 C2105 1.419 . S
C2104 C2102 1.415 . S
C2104 C2109 1.425 . S
C2104 C2111 1.409 . S
C2105 H2097 0.930 . S
C2105 C2103 1.419 . S
C2105 C2106 1.362 . S
C2106 H2098 0.930 . S
C2106 C2105 1.362 . S
C2106 C2109 1.409 . S
C2107 H2099 0.930 . S
C2107 C2108 1.355 . S
C2107 C2109 1.415 . S
C2108 C2107 1.355 . S
C2108 C2110 1.419 . S
C2109 C2104 1.425 . S
C2109 C2106 1.409 . S
C2109 C2107 1.415 . S
C2110 H2100 0.930 . S
C2110 C2108 1.419 . S
C2110 C2111 1.362 . S
C2111 H2101 0.930 . S
C2111 C2104 1.409 . S
C2111 C2110 1.362 . S
H2112 C2118 0.930 . S
H2113 C2121 0.930 . S
H2114 C2122 0.930 . S
H2115 C2123 0.930 . S
H2116 C2126 0.930 . S
H2117 C2127 0.930 . S
C2118 H2112 0.930 . S
C2118 C2119 1.355 . S
C2118 C2120 1.415 . S
C2119 C2118 1.355 . S
C2119 C2121 1.419 . S
C2120 C2118 1.415 . S
C2120 C2125 1.425 . S
C2120 C2127 1.409 . S
C2121 H2113 0.930 . S
C2121 C2119 1.419 . S
C2121 C2122 1.362 . S
C2122 H2114 0.930 . S
C2122 C2121 1.362 . S
C2122 C2125 1.409 . S
C2123 H2115 0.930 . S
C2123 C2124 1.355 . S
C2123 C2125 1.415 . S
C2124 C2123 1.355 . S
C2124 C2126 1.419 . S
C2125 C2120 1.425 . S
C2125 C2122 1.409 . S
C2125 C2123 1.415 . S
C2126 H2116 0.930 . S
C2126 C2124 1.419 . S
C2126 C2127 1.362 . S
C2127 H2117 0.930 . S
C2127 C2120 1.409 . S
C2127 C2126 1.362 . S
H2128 C2134 0.930 . S
H2129 C2137 0.930 . S
H2130 C2138 0.930 . S
H2131 C2139 0.930 . S
H2132 C2142 0.930 . S
H2133 C2143 0.930 . S
C2134 H2128 0.930 . S
C2134 C2135 1.355 . S
C2134 C2136 1.415 . S
C2135 C2134 1.355 . S
C2135 C2137 1.419 . S
C2136 C2134 1.415 . S
C2136 C2141 1.425 . S
C2136 C2143 1.409 . S
C2137 H2129 0.930 . S
C2137 C2135 1.419 . S
C2137 C2138 1.362 . S
C2138 H2130 0.930 . S
C2138 C2137 1.362 . S
C2138 C2141 1.409 . S
C2139 H2131 0.930 . S
C2139 C2140 1.355 . S
C2139 C2141 1.415 . S
C2140 C2139 1.355 . S
C2140 C2142 1.419 . S
C2141 C2136 1.425 . S
C2141 C2138 1.409 . S
C2141 C2139 1.415 . S
C2142 H2132 0.930 . S
C2142 C2140 1.419 . S
C2142 C2143 1.362 . S
C2143 H2133 0.930 . S
C2143 C2136 1.409 . S
C2143 C2142 1.362 . S
H2144 C2150 0.930 . S
H2145 C2153 0.930 . S
H2146 C2154 0.930 . S
H2147 C2155 0.930 . S
H2148 C2158 0.930 . S
H2149 C2159 0.930 . S
C2150 H2144 0.930 . S
C2150 C2151 1.355 . S
C2150 C2152 1.415 . S
C2151 C2150 1.355 . S
C2151 C2153 1.419 . S
C2152 C2150 1.415 . S
C2152 C2157 1.425 . S
C2152 C2159 1.409 . S
C2153 H2145 0.930 . S
C2153 C2151 1.419 . S
C2153 C2154 1.362 . S
C2154 H2146 0.930 . S
C2154 C2153 1.362 . S
C2154 C2157 1.409 . S
C2155 H2147 0.930 . S
C2155 C2156 1.355 . S
C2155 C2157 1.415 . S
C2156 C2155 1.355 . S
C2156 C2158 1.419 . S
C2157 C2152 1.425 . S
C2157 C2154 1.409 . S
C2157 C2155 1.415 . S
C2158 H2148 0.930 . S
C2158 C2156 1.419 . S
C2158 C2159 1.362 . S
C2159 H2149 0.930 . S
C2159 C2152 1.409 . S
C2159 C2158 1.362 . S
H2160 C2166 0.930 . S
H2161 C2169 0.930 . S
H2162 C2170 0.930 . S
H2163 C2171 0.930 . S
H2164 C2174 0.930 . S
H2165 C2175 0.930 . S
C2166 H2160 0.930 . S
C2166 C2167 1.355 . S
C2166 C2168 1.415 . S
C2167 C2166 1.355 . S
C2167 C2169 1.419 . S
C2168 C2166 1.415 . S
C2168 C2173 1.425 . S
C2168 C2175 1.409 . S
C2169 H2161 0.930 . S
C2169 C2167 1.419 . S
C2169 C2170 1.362 . S
C2170 H2162 0.930 . S
C2170 C2169 1.362 . S
C2170 C2173 1.409 . S
C2171 H2163 0.930 . S
C2171 C2172 1.355 . S
C2171 C2173 1.415 . S
C2172 C2171 1.355 . S
C2172 C2174 1.419 . S
C2173 C2168 1.425 . S
C2173 C2170 1.409 . S
C2173 C2171 1.415 . S
C2174 H2164 0.930 . S
C2174 C2172 1.419 . S
C2174 C2175 1.362 . S
C2175 H2165 0.930 . S
C2175 C2168 1.409 . S
C2175 C2174 1.362 . S
H2176 C2182 0.930 . S
H2177 C2185 0.930 . S
H2178 C2186 0.930 . S
H2179 C2187 0.930 . S
H2180 C2190 0.930 . S
H2181 C2191 0.930 . S
C2182 H2176 0.930 . S
C2182 C2183 1.355 . S
C2182 C2184 1.415 . S
C2183 C2182 1.355 . S
C2183 C2185 1.419 . S
C2184 C2182 1.415 . S
C2184 C2189 1.425 . S
C2184 C2191 1.409 . S
C2185 H2177 0.930 . S
C2185 C2183 1.419 . S
C2185 C2186 1.362 . S
C2186 H2178 0.930 . S
C2186 C2185 1.362 . S
C2186 C2189 1.409 . S
C2187 H2179 0.930 . S
C2187 C2188 1.355 . S
C2187 C2189 1.415 . S
C2188 C2187 1.355 . S
C2188 C2190 1.419 . S
C2189 C2184 1.425 . S
C2189 C2186 1.409 . S
C2189 C2187 1.415 . S
C2190 H2180 0.930 . S
C2190 C2188 1.419 . S
C2190 C2191 1.362 . S
C2191 H2181 0.930 . S
C2191 C2184 1.409 . S
C2191 C2190 1.362 . S
H2192 C2198 0.930 . S
H2193 C2201 0.930 . S
H2194 C2202 0.930 . S
H2195 C2203 0.930 . S
H2196 C2206 0.930 . S
H2197 C2207 0.930 . S
C2198 H2192 0.930 . S
C2198 C2199 1.355 . S
C2198 C2200 1.415 . S
C2199 C2198 1.355 . S
C2199 C2201 1.419 . S
C2200 C2198 1.415 . S
C2200 C2205 1.425 . S
C2200 C2207 1.409 . S
C2201 H2193 0.930 . S
C2201 C2199 1.419 . S
C2201 C2202 1.362 . S
C2202 H2194 0.930 . S
C2202 C2201 1.362 . S
C2202 C2205 1.409 . S
C2203 H2195 0.930 . S
C2203 C2204 1.355 . S
C2203 C2205 1.415 . S
C2204 C2203 1.355 . S
C2204 C2206 1.419 . S
C2205 C2200 1.425 . S
C2205 C2202 1.409 . S
C2205 C2203 1.415 . S
C2206 H2196 0.930 . S
C2206 C2204 1.419 . S
C2206 C2207 1.362 . S
C2207 H2197 0.930 . S
C2207 C2200 1.409 . S
C2207 C2206 1.362 . S
C679 C92 1.209 . S
C684 C8 1.177 . S
C695 C22 1.236 . S
C700 C106 1.282 . S
C711 C36 1.269 . S
C716 C64 1.229 . S
C727 C78 1.191 . S
C732 C50 1.240 . S
C743 C484 1.191 . S
C748 C120 1.181 . S
C759 C498 1.193 . S
C764 C134 1.192 . S
C775 C148 1.220 . S
C780 C456 1.174 . S
C791 C162 1.184 . S
C796 C470 1.208 . S
C807 C540 1.160 . S
C812 C176 1.191 . S
C823 C554 1.260 . S
C828 C190 1.242 . S
C839 C512 1.261 . S
C844 C204 1.265 . S
C855 C526 1.273 . S
C860 C218 1.227 . S
C871 C232 1.185 . S
C876 C582 1.234 . S
C887 C246 1.192 . S
C892 C568 1.170 . S
C903 C260 1.210 . S
C908 C330 1.184 . S
C919 C638 1.263 . S
C924 C274 1.262 . S
C935 C652 1.198 . S
C940 C288 1.210 . S
C951 C610 1.165 . S
C956 C302 1.170 . S
C967 C624 1.256 . S
C972 C316 1.251 . S
C983 C428 1.235 . S
C988 C344 1.184 . S
C999 C442 1.254 . S
C1004 C358 1.209 . S
C1015 C372 1.247 . S
C1020 C400 1.222 . S
C1031 C386 1.267 . S
C1036 C414 1.220 . S
C1047 C666 1.250 . S
C1052 C596 1.201 . S
C1063 C233 1.198 . S
C1068 C7 1.249 . S
C1079 C21 1.166 . S
C1084 C667 1.284 . S
C1095 C35 1.157 . S
C1100 C303 1.254 . S
C1111 C653 1.206 . S
C1116 C49 1.193 . S
C1127 C63 1.151 . S
C1132 C583 1.274 . S
C1143 C597 1.202 . S
C1148 C77 1.207 . S
C1159 C91 1.149 . S
C1164 C611 1.270 . S
C1175 C289 1.226 . S
C1180 C105 1.188 . S
C1191 C119 1.156 . S
C1196 C9 1.279 . S
C1207 C23 1.227 . S
C1212 C133 1.252 . S
C1223 C147 1.240 . S
C1228 C37 1.243 . S
C1239 C161 1.211 . S
C1244 C51 1.223 . S
C1255 C175 1.180 . S
C1260 C65 1.276 . S
C1271 C79 1.244 . S
C1276 C189 1.166 . S
C1287 C203 1.256 . S
C1292 C93 1.229 . S
C1303 C217 1.264 . S
C1308 C107 1.225 . S
C1319 C231 1.250 . S
C1324 C121 1.199 . S
C1335 C245 1.223 . S
C1340 C513 1.257 . S
C1351 C527 1.197 . S
C1356 C259 1.211 . S
C1367 C541 1.283 . S
C1372 C273 1.192 . S
C1383 C287 1.244 . S
C1388 C219 1.253 . S
C1399 C301 1.215 . S
C1404 C149 1.266 . S
C1415 C499 1.211 . S
C1420 C315 1.214 . S
C1431 C471 1.258 . S
C1436 C329 1.224 . S
C1447 C343 1.249 . S
C1452 C569 1.199 . S
C1463 C357 1.162 . S
C1468 C331 1.249 . S
C1479 C371 1.181 . S
C1484 C639 1.211 . S
C1495 C385 1.239 . S
C1500 C317 1.283 . S
C1511 C399 1.202 . S
C1516 C247 1.204 . S
C1527 C261 1.275 . S
C1532 C413 1.163 . S
C1543 C275 1.270 . S
C1548 C427 1.201 . S
C1559 C625 1.209 . S
C1564 C441 1.245 . S
C1575 C345 1.228 . S
C1580 C455 1.168 . S
C1591 C359 1.222 . S
C1596 C469 1.277 . S
C1607 C483 1.245 . S
C1612 C373 1.249 . S
C1623 C387 1.260 . S
C1628 C497 1.222 . S
C1639 C511 1.167 . S
C1644 C401 1.242 . S
C1655 C415 1.229 . S
C1660 C525 1.273 . S
C1671 C539 1.256 . S
C1676 C429 1.206 . S
C1687 C443 1.211 . S
C1692 C553 1.258 . S
C1703 C567 1.230 . S
C1708 C457 1.256 . S
C1719 C581 1.154 . S
C1724 C177 1.253 . S
C1735 C191 1.278 . S
C1740 C595 1.247 . S
C1751 C609 1.246 . S
C1756 C205 1.234 . S
C1767 C623 1.263 . S
C1772 C555 1.213 . S
C1783 C485 1.209 . S
C1788 C637 1.201 . S
C1799 C651 1.218 . S
C1804 C163 1.280 . S
C1815 C135 1.285 . S
C1820 C665 1.221 . S
C1831 C132 0.957 . S
C1836 C6 0.956 . S
C1847 C20 0.814 . S
C1852 C146 0.841 . S
C1863 C160 0.950 . S
C1868 C34 0.945 . S
C1879 C118 0.883 . S
C1884 C48 0.917 . S
C1895 C62 0.849 . S
C1900 C216 0.819 . S
C1911 C76 0.941 . S
C1916 C174 0.918 . S
C1927 C188 0.902 . S
C1932 C90 0.867 . S
C1943 C202 0.871 . S
C1948 C104 0.836 . S
C1959 C230 0.934 . S
C1964 C258 0.903 . S
C1975 C244 0.815 . S
C1980 C650 0.794 . S
C1991 C272 0.799 . S
C1996 C664 0.807 . S
C2007 C636 0.885 . S
C2012 C286 0.918 . S
C2023 C622 0.875 . S
C2028 C300 0.910 . S
C2039 C580 0.925 . S
C2044 C314 0.949 . S
C2055 C328 0.807 . S
C2060 C608 0.831 . S
C2071 C468 0.821 . S
C2076 C342 0.793 . S
C2087 C482 0.859 . S
C2092 C356 0.830 . S
C2103 C370 0.809 . S
C2108 C496 0.833 . S
C2119 C454 0.852 . S
C2124 C384 0.819 . S
C2135 C552 0.952 . S
C2140 C398 0.951 . S
C2151 C510 0.946 . S
C2156 C412 0.949 . S
C2167 C426 0.805 . S
C2172 C524 0.836 . S
C2183 C538 0.935 . S
C2188 C440 0.907 . S
C2199 C594 0.847 . S
C2204 C566 0.812 . S
