# Generated by pormake.
# Topology wjh, (4)-cn, num edge types: 1
# Building blocks:
#     Node 0, Type 0, BuildingBlock: TATPOV_clean_sbu_0, # of connection points: 4
#     Node 1, Type 0, BuildingBlock: TATPOV_clean_sbu_0, # of connection points: 4
#     Node 2, Type 0, BuildingBlock: TATPOV_clean_sbu_0, # of connection points: 4
#     Node 3, Type 0, BuildingBlock: TATPOV_clean_sbu_0, # of connection points: 4
#     Node 4, Type 0, BuildingBlock: TATPOV_clean_sbu_0, # of connection points: 4
#     Node 5, Type 0, BuildingBlock: TATPOV_clean_sbu_0, # of connection points: 4
#     Node 6, Type 0, BuildingBlock: TATPOV_clean_sbu_0, # of connection points: 4
#     Node 7, Type 0, BuildingBlock: TATPOV_clean_sbu_0, # of connection points: 4
#     Node 8, Type 0, BuildingBlock: TATPOV_clean_sbu_0, # of connection points: 4
#     Node 9, Type 0, BuildingBlock: TATPOV_clean_sbu_0, # of connection points: 4
#     Node 10, Type 0, BuildingBlock: TATPOV_clean_sbu_0, # of connection points: 4
#     Node 11, Type 0, BuildingBlock: TATPOV_clean_sbu_0, # of connection points: 4
#     Edge 12, Type (0, 0), BuildingBlock: TEMPAE_clean_linker_10, # of connection points: 2
#     Edge 13, Type (0, 0), BuildingBlock: TEMPAE_clean_linker_10, # of connection points: 2
#     Edge 14, Type (0, 0), BuildingBlock: TEMPAE_clean_linker_10, # of connection points: 2
#     Edge 15, Type (0, 0), BuildingBlock: TEMPAE_clean_linker_10, # of connection points: 2
#     Edge 16, Type (0, 0), BuildingBlock: TEMPAE_clean_linker_10, # of connection points: 2
#     Edge 17, Type (0, 0), BuildingBlock: TEMPAE_clean_linker_10, # of connection points: 2
#     Edge 18, Type (0, 0), BuildingBlock: TEMPAE_clean_linker_10, # of connection points: 2
#     Edge 19, Type (0, 0), BuildingBlock: TEMPAE_clean_linker_10, # of connection points: 2
#     Edge 20, Type (0, 0), BuildingBlock: TEMPAE_clean_linker_10, # of connection points: 2
#     Edge 21, Type (0, 0), BuildingBlock: TEMPAE_clean_linker_10, # of connection points: 2
#     Edge 22, Type (0, 0), BuildingBlock: TEMPAE_clean_linker_10, # of connection points: 2
#     Edge 23, Type (0, 0), BuildingBlock: TEMPAE_clean_linker_10, # of connection points: 2
#     Edge 24, Type (0, 0), BuildingBlock: TEMPAE_clean_linker_10, # of connection points: 2
#     Edge 25, Type (0, 0), BuildingBlock: TEMPAE_clean_linker_10, # of connection points: 2
#     Edge 26, Type (0, 0), BuildingBlock: TEMPAE_clean_linker_10, # of connection points: 2
#     Edge 27, Type (0, 0), BuildingBlock: TEMPAE_clean_linker_10, # of connection points: 2
#     Edge 28, Type (0, 0), BuildingBlock: TEMPAE_clean_linker_10, # of connection points: 2
#     Edge 29, Type (0, 0), BuildingBlock: TEMPAE_clean_linker_10, # of connection points: 2
#     Edge 30, Type (0, 0), BuildingBlock: TEMPAE_clean_linker_10, # of connection points: 2
#     Edge 31, Type (0, 0), BuildingBlock: TEMPAE_clean_linker_10, # of connection points: 2
#     Edge 32, Type (0, 0), BuildingBlock: TEMPAE_clean_linker_10, # of connection points: 2
#     Edge 33, Type (0, 0), BuildingBlock: TEMPAE_clean_linker_10, # of connection points: 2
#     Edge 34, Type (0, 0), BuildingBlock: TEMPAE_clean_linker_10, # of connection points: 2
#     Edge 35, Type (0, 0), BuildingBlock: TEMPAE_clean_linker_10, # of connection points: 2
# Relax obj value: 0.160
# Max RMSD: 0.152
# Mean RMSD: 0.152
data_MOF--net-wjh--node1-TATPOV_clean_sbu_0--edge1-TEMPAE_clean_linker_10
_symmetry_space_group_name_H-M    P1
_symmetry_Int_Tables_number       1
_symmetry_cell_setting            triclinic
loop_
_symmetry_equiv_pos_as_xyz
'x, y, z'
_cell_length_a     63.118131
_cell_length_b     62.994812
_cell_length_c     25.779566
_cell_angle_alpha  90.049424
_cell_angle_beta   90.164331
_cell_angle_gamma 119.96679
loop_
_atom_site_label
_atom_site_type_symbol
_atom_site_fract_x
_atom_site_fract_y
_atom_site_fract_z
_atom_type_partial_charge
Zn0 Zn 0.45802 0.13539 0.05514 0.0
Zn1 Zn 0.4886 0.13641 0.98686 0.0
O2 O 0.49515 0.17227 0.99042 0.0
O3 O 0.46561 0.16924 0.0407 0.0
O4 O 0.50608 0.13484 0.92165 0.0
O5 O 0.42756 0.10718 0.02949 0.0
O6 O 0.45393 0.10576 0.97627 0.0
C7 C 0.48404 0.182 0.01268 0.0
C8 C 0.49713 0.12819 0.09687 0.0
O9 O 0.50478 0.13096 0.05025 0.0
O10 O 0.47804 0.12913 0.10777 0.0
C11 C 0.52846 0.14086 0.91681 0.0
O12 O 0.54308 0.1496 0.95723 0.0
C13 C 0.4322 0.0963 0.99403 0.0
Zn14 Zn 0.30803 0.45044 0.27738 0.0
Zn15 Zn 0.33717 0.4747 0.20623 0.0
O16 O 0.30988 0.48415 0.212 0.0
O17 O 0.2798 0.45323 0.25235 0.0
O18 O 0.35451 0.49015 0.13844 0.0
O19 O 0.30796 0.41939 0.26889 0.0
O20 O 0.33112 0.43887 0.20223 0.0
C21 C 0.28794 0.47329 0.22861 0.0
C22 C 0.35477 0.49137 0.31228 0.0
O23 O 0.36112 0.49254 0.26503 0.0
O24 O 0.33303 0.47636 0.32597 0.0
C25 C 0.36332 0.51282 0.12863 0.0
O26 O 0.36169 0.52696 0.16402 0.0
C27 C 0.3203 0.41963 0.23028 0.0
Zn28 Zn 0.86124 0.33878 0.48587 0.0
Zn29 Zn 0.84954 0.35092 0.40077 0.0
O30 O 0.81954 0.31658 0.41711 0.0
O31 O 0.82849 0.31 0.49584 0.0
O32 O 0.84185 0.36051 0.32983 0.0
O33 O 0.88768 0.33442 0.45727 0.0
O34 O 0.88323 0.35268 0.38892 0.0
C35 C 0.81368 0.30352 0.45821 0.0
C36 C 0.86155 0.38304 0.49771 0.0
O37 O 0.85182 0.3771 0.45274 0.0
O38 O 0.86944 0.3704 0.51961 0.0
C39 C 0.83614 0.37713 0.32399 0.0
O40 O 0.83449 0.38848 0.36521 0.0
C41 C 0.8952 0.34446 0.41368 0.0
Zn42 Zn 0.49254 0.82965 0.54194 0.0
Zn43 Zn 0.4584 0.82971 0.48825 0.0
O44 O 0.45141 0.79369 0.49059 0.0
O45 O 0.48507 0.79629 0.52172 0.0
O46 O 0.43567 0.82998 0.43199 0.0
O47 O 0.52106 0.8588 0.51334 0.0
O48 O 0.4919 0.86074 0.47078 0.0
C49 C 0.46378 0.78352 0.50334 0.0
C50 C 0.45722 0.83703 0.60153 0.0
O51 O 0.4473 0.83588 0.55766 0.0
O52 O 0.47593 0.83455 0.60454 0.0
C53 C 0.44281 0.83188 0.38517 0.0
O54 O 0.46381 0.83297 0.37609 0.0
C55 C 0.51447 0.87015 0.48303 0.0
Zn56 Zn 0.60668 0.50351 0.8101 0.0
Zn57 Zn 0.59538 0.48079 0.72615 0.0
O58 O 0.62461 0.47656 0.75074 0.0
O59 O 0.62708 0.48915 0.8313 0.0
O60 O 0.58573 0.46553 0.65386 0.0
O61 O 0.62182 0.53731 0.78236 0.0
O62 O 0.60194 0.51628 0.71343 0.0
C63 C 0.63338 0.47925 0.79659 0.0
C64 C 0.55785 0.46675 0.81196 0.0
O65 O 0.56491 0.46026 0.7717 0.0
O66 O 0.57192 0.4871 0.83342 0.0
C67 C 0.5711 0.44282 0.64573 0.0
O68 O 0.56244 0.42796 0.68562 0.0
C69 C 0.61342 0.53672 0.73754 0.0
Zn70 Zn 0.10376 0.63888 0.00617 0.0
Zn71 Zn 0.10502 0.61732 0.91972 0.0
O72 O 0.13312 0.65354 0.91427 0.0
O73 O 0.12721 0.67198 0.98065 0.0
O74 O 0.1057 0.6024 0.84982 0.0
O75 O 0.06806 0.62623 0.00055 0.0
O76 O 0.06946 0.61086 0.92476 0.0
C77 C 0.13889 0.67299 0.94017 0.0
C78 C 0.11719 0.60226 0.02241 0.0
O79 O 0.11193 0.5977 0.97442 0.0
O80 O 0.1164 0.61983 0.04431 0.0
C81 C 0.12122 0.59572 0.83941 0.0
O82 O 0.1373 0.59837 0.87503 0.0
C83 C 0.05744 0.61477 0.95959 0.0
Zn84 Zn 0.83868 0.51624 0.83896 0.0
Zn85 Zn 0.83169 0.47864 0.89848 0.0
O86 O 0.79846 0.47797 0.90089 0.0
O87 O 0.8059 0.51107 0.85725 0.0
O88 O 0.83056 0.45516 0.9545 0.0
O89 O 0.86871 0.54142 0.87462 0.0
O90 O 0.86395 0.5097 0.91942 0.0
C91 C 0.79137 0.49227 0.88285 0.0
C92 C 0.83992 0.47637 0.78389 0.0
O93 O 0.83557 0.4659 0.82808 0.0
O94 O 0.84205 0.49738 0.77935 0.0
C95 C 0.812 0.43905 0.9791 0.0
O96 O 0.79015 0.43504 0.96621 0.0
C97 C 0.87645 0.53244 0.90848 0.0
Zn98 Zn 0.33363 0.87785 0.89202 0.0
Zn99 Zn 0.34591 0.86884 0.98162 0.0
O100 O 0.31107 0.83904 0.96976 0.0
O101 O 0.30331 0.84553 0.88984 0.0
O102 O 0.35696 0.86415 0.05314 0.0
O103 O 0.33244 0.90712 0.91434 0.0
O104 O 0.34915 0.9035 0.98632 0.0
C105 C 0.29717 0.83217 0.92978 0.0
C106 C 0.3765 0.87459 0.88587 0.0
O107 O 0.37087 0.86738 0.93256 0.0
O108 O 0.36425 0.88196 0.86047 0.0
C109 C 0.35322 0.84351 0.06961 0.0
O110 O 0.34091 0.82403 0.04019 0.0
C111 C 0.34233 0.91562 0.9578 0.0
Zn112 Zn 0.43146 0.31468 0.15374 0.0
Zn113 Zn 0.46389 0.34837 0.21376 0.0
O114 O 0.4745 0.32228 0.2037 0.0
O115 O 0.44385 0.29149 0.16309 0.0
O116 O 0.48401 0.36934 0.27518 0.0
O117 O 0.40126 0.30939 0.18802 0.0
O118 O 0.42874 0.34092 0.23256 0.0
C119 C 0.46474 0.30087 0.18397 0.0
C120 C 0.46409 0.36229 0.10412 0.0
O121 O 0.47428 0.36916 0.14851 0.0
O122 O 0.44614 0.3408 0.09761 0.0
C123 C 0.50452 0.37205 0.28975 0.0
O124 O 0.51465 0.36194 0.26225 0.0
C125 C 0.40638 0.32609 0.22104 0.0
Zn126 Zn 0.12104 0.45561 0.35582 0.0
Zn127 Zn 0.11688 0.48446 0.41702 0.0
O128 O 0.15258 0.49088 0.41756 0.0
O129 O 0.14992 0.45675 0.39013 0.0
O130 O 0.1144 0.50221 0.48082 0.0
O131 O 0.08814 0.4266 0.36253 0.0
O132 O 0.08501 0.45038 0.42063 0.0
C133 C 0.16268 0.47811 0.40829 0.0
C134 C 0.12116 0.49796 0.30763 0.0
O135 O 0.11488 0.50159 0.35227 0.0
O136 O 0.12621 0.48101 0.30089 0.0
C137 C 0.12823 0.5249 0.49059 0.0
O138 O 0.1452 0.5386 0.45697 0.0
C139 C 0.07564 0.43001 0.39614 0.0
Zn140 Zn 0.63137 0.09615 0.40807 0.0
Zn141 Zn 0.60857 0.1006 0.48874 0.0
O142 O 0.64375 0.13056 0.49194 0.0
O143 O 0.66273 0.12585 0.42519 0.0
O144 O 0.59318 0.10317 0.55645 0.0
O145 O 0.62561 0.06342 0.42637 0.0
O146 O 0.6032 0.06497 0.48984 0.0
C147 C 0.66291 0.13804 0.46426 0.0
C148 C 0.59052 0.10244 0.38106 0.0
O149 O 0.58888 0.10473 0.42981 0.0
O150 O 0.60669 0.09827 0.36283 0.0
C151 C 0.59317 0.1227 0.56921 0.0
O152 O 0.60278 0.1414 0.53719 0.0
C153 C 0.61102 0.05309 0.46345 0.0
Zn154 Zn 0.505 0.64574 0.63907 0.0
Zn155 Zn 0.47636 0.61383 0.7053 0.0
O156 O 0.46683 0.64091 0.69895 0.0
O157 O 0.49822 0.67198 0.66171 0.0
O158 O 0.45868 0.59453 0.76976 0.0
O159 O 0.53583 0.64667 0.65855 0.0
O160 O 0.51173 0.62024 0.7167 0.0
C161 C 0.47751 0.66299 0.68295 0.0
C162 C 0.46607 0.59905 0.59561 0.0
O163 O 0.46151 0.59174 0.64247 0.0
O164 O 0.4825 0.62086 0.58539 0.0
C165 C 0.43614 0.58641 0.77918 0.0
O166 O 0.42275 0.58984 0.74478 0.0
C167 C 0.53281 0.63249 0.69589 0.0
C168 C 0.49706 0.11019 0.18251 0.0
C169 C 0.51017 0.12384 0.1392 0.0
C170 C 0.50898 0.10632 0.22417 0.0
C171 C 0.53468 0.11689 0.22297 0.0
C172 C 0.54807 0.13094 0.17958 0.0
C173 C 0.53557 0.13396 0.13772 0.0
C174 C 0.49403 0.0906 0.26903 0.0
C175 C 0.57558 0.14284 0.17752 0.0
C176 C 0.5685 0.12358 0.34945 0.0
C177 C 0.57393 0.1047 0.34444 0.0
C178 C 0.55557 0.12778 0.31016 0.0
C179 C 0.54745 0.11225 0.266 0.0
C180 C 0.5519 0.09243 0.26227 0.0
C181 C 0.56543 0.08913 0.30123 0.0
C182 C 0.55149 0.14936 0.31486 0.0
C183 C 0.54285 0.07501 0.21661 0.0
H184 H 0.47736 0.10223 0.18349 0.0
H185 H 0.5457 0.14472 0.10444 0.0
H186 H 0.49682 0.07462 0.27317 0.0
H187 H 0.50018 0.10117 0.30577 0.0
H188 H 0.47417 0.08376 0.26394 0.0
H189 H 0.58335 0.15431 0.14235 0.0
H190 H 0.58386 0.15449 0.21236 0.0
H191 H 0.58098 0.12857 0.1778 0.0
H192 H 0.57537 0.13573 0.38273 0.0
H193 H 0.5696 0.07444 0.29771 0.0
H194 H 0.53173 0.14319 0.31143 0.0
H195 H 0.56092 0.16236 0.28264 0.0
H196 H 0.55841 0.15927 0.35226 0.0
H197 H 0.52291 0.06745 0.21109 0.0
H198 H 0.54639 0.05953 0.22154 0.0
H199 H 0.55202 0.08499 0.18064 0.0
C200 C 0.39728 0.51499 0.34772 0.0
C201 C 0.37238 0.5074 0.35183 0.0
C202 C 0.41378 0.52923 0.38697 0.0
C203 C 0.40514 0.5365 0.43029 0.0
C204 C 0.38006 0.52922 0.43398 0.0
C205 C 0.36393 0.51448 0.395 0.0
C206 C 0.44034 0.53628 0.3824 0.0
C207 C 0.37028 0.5372 0.47884 0.0
C208 C 0.43996 0.55727 0.55757 0.0
C209 C 0.45152 0.58279 0.55266 0.0
C210 C 0.42562 0.54189 0.51695 0.0
C211 C 0.42231 0.55237 0.47122 0.0
C212 C 0.43412 0.57813 0.46601 0.0
C213 C 0.44883 0.59302 0.50657 0.0
C214 C 0.41368 0.51447 0.52328 0.0
C215 C 0.4305 0.58998 0.41844 0.0
H216 H 0.40374 0.5093 0.3145 0.0
H217 H 0.34467 0.50875 0.39795 0.0
H218 H 0.45198 0.55651 0.38106 0.0
H219 H 0.44601 0.52989 0.41706 0.0
H220 H 0.44393 0.52841 0.34718 0.0
H221 H 0.35034 0.53032 0.47526 0.0
H222 H 0.37368 0.53045 0.51588 0.0
H223 H 0.37997 0.5575 0.48114 0.0
H224 H 0.4422 0.54935 0.59304 0.0
H225 H 0.4576 0.61277 0.50282 0.0
H226 H 0.41784 0.50632 0.48939 0.0
H227 H 0.39353 0.50628 0.52484 0.0
H228 H 0.41983 0.50933 0.55914 0.0
H229 H 0.43542 0.58345 0.38298 0.0
H230 H 0.44162 0.61029 0.41984 0.0
H231 H 0.41094 0.58466 0.4148 0.0
C232 C 0.85356 0.47832 0.69243 0.0
C233 C 0.84294 0.46446 0.73735 0.0
C234 C 0.85714 0.46762 0.64813 0.0
C235 C 0.84964 0.44241 0.64858 0.0
C236 C 0.83841 0.42819 0.69334 0.0
C237 C 0.83536 0.43944 0.7374 0.0
C238 C 0.86952 0.48341 0.60141 0.0
C239 C 0.82996 0.40114 0.69493 0.0
C240 C 0.84071 0.4058 0.52565 0.0
C241 C 0.86108 0.40256 0.52802 0.0
C242 C 0.83722 0.41981 0.56344 0.0
C243 C 0.85477 0.43106 0.60355 0.0
C244 C 0.87639 0.42955 0.60323 0.0
C245 C 0.87916 0.4151 0.56568 0.0
C246 C 0.8139 0.42096 0.56272 0.0
C247 C 0.89584 0.44183 0.64454 0.0
H248 H 0.85956 0.49772 0.69216 0.0
H249 H 0.82698 0.42862 0.77182 0.0
H250 H 0.88719 0.48409 0.59445 0.0
H251 H 0.85809 0.47538 0.56622 0.0
H252 H 0.8731 0.50245 0.60636 0.0
H253 H 0.82025 0.39241 0.7315 0.0
H254 H 0.81755 0.39162 0.66174 0.0
H255 H 0.84592 0.39837 0.69123 0.0
H256 H 0.82665 0.39594 0.49669 0.0
H257 H 0.89501 0.41269 0.56718 0.0
H258 H 0.81786 0.44004 0.56872 0.0
H259 H 0.80197 0.40978 0.59502 0.0
H260 H 0.80366 0.41392 0.5257 0.0
H261 H 0.90058 0.4612 0.64976 0.0
H262 H 0.91277 0.44138 0.63507 0.0
H263 H 0.88877 0.43239 0.68215 0.0
C264 C 0.42354 0.83767 0.65062 0.0
C265 C 0.44751 0.8419 0.64924 0.0
C266 C 0.4144 0.84281 0.69543 0.0
C267 C 0.4298 0.85288 0.7394 0.0
C268 C 0.45391 0.85689 0.7385 0.0
C269 C 0.46243 0.85115 0.69348 0.0
C270 C 0.38841 0.83794 0.69532 0.0
C271 C 0.47094 0.868 0.78432 0.0
C272 C 0.40933 0.88898 0.82052 0.0
C273 C 0.39514 0.87171 0.85808 0.0
C274 C 0.42256 0.88386 0.78414 0.0
C275 C 0.42095 0.86064 0.78475 0.0
C276 C 0.40818 0.84387 0.82516 0.0
C277 C 0.39556 0.84976 0.86193 0.0
C278 C 0.43658 0.9025 0.74256 0.0
C279 C 0.40593 0.81888 0.82683 0.0
H280 H 0.41191 0.8303 0.61668 0.0
H281 H 0.48104 0.85455 0.69249 0.0
H282 H 0.37837 0.82658 0.72928 0.0
H283 H 0.38843 0.85551 0.69862 0.0
H284 H 0.37833 0.82841 0.65946 0.0
H285 H 0.48852 0.86827 0.77878 0.0
H286 H 0.47492 0.88709 0.79039 0.0
H287 H 0.46217 0.85767 0.82022 0.0
H288 H 0.40903 0.90602 0.81793 0.0
H289 H 0.38437 0.83635 0.89083 0.0
H290 H 0.42651 0.89631 0.70521 0.0
H291 H 0.45484 0.90434 0.73683 0.0
H292 H 0.43906 0.92081 0.75211 0.0
H293 H 0.39321 0.80722 0.79575 0.0
H294 H 0.39876 0.80965 0.86466 0.0
H295 H 0.42384 0.82017 0.81957 0.0
C296 C 0.4985 0.39668 0.05698 0.0
C297 C 0.4738 0.3786 0.05882 0.0
C298 C 0.50857 0.41029 0.0117 0.0
C299 C 0.49339 0.40606 0.96775 0.0
C300 C 0.46817 0.38866 0.97027 0.0
C301 C 0.45872 0.3749 0.01565 0.0
C302 C 0.53564 0.4286 0.01031 0.0
C303 C 0.45134 0.3842 0.92474 0.0
C304 C 0.52415 0.45809 0.87282 0.0
C305 C 0.53578 0.44925 0.84026 0.0
C306 C 0.50822 0.44328 0.91179 0.0
C307 C 0.50439 0.41936 0.91886 0.0
C308 C 0.51425 0.40961 0.88292 0.0
C309 C 0.52968 0.42466 0.84347 0.0
C310 C 0.49736 0.45405 0.94821 0.0
C311 C 0.51065 0.38419 0.8893 0.0
H312 H 0.5102 0.39946 0.09019 0.0
H313 H 0.43952 0.36104 0.01719 0.0
H314 H 0.54448 0.42342 0.97951 0.0
H315 H 0.53867 0.44707 0.00073 0.0
H316 H 0.54485 0.42972 0.04784 0.0
H317 H 0.43182 0.37192 0.93486 0.0
H318 H 0.45362 0.4018 0.91028 0.0
H319 H 0.4561 0.37573 0.89244 0.0
H320 H 0.52874 0.47709 0.86996 0.0
H321 H 0.53877 0.41787 0.81844 0.0
H322 H 0.50773 0.45919 0.98528 0.0
H323 H 0.47806 0.44046 0.95723 0.0
H324 H 0.49811 0.47071 0.93175 0.0
H325 H 0.52134 0.38397 0.92336 0.0
H326 H 0.51676 0.37824 0.85462 0.0
H327 H 0.49116 0.37068 0.89669 0.0
C328 C 0.13741 0.5156 0.22065 0.0
C329 C 0.1224 0.51308 0.26296 0.0
C330 C 0.13853 0.52949 0.17725 0.0
C331 C 0.12391 0.54066 0.17586 0.0
C332 C 0.10854 0.53798 0.21829 0.0
C333 C 0.10819 0.52443 0.26169 0.0
C334 C 0.15557 0.53248 0.1333 0.0
C335 C 0.09243 0.5494 0.21779 0.0
C336 C 0.13922 0.59649 0.09554 0.0
C337 C 0.12237 0.58622 0.05477 0.0
C338 C 0.1411 0.58164 0.13343 0.0
C339 C 0.12524 0.55599 0.13106 0.0
C340 C 0.10915 0.54542 0.08828 0.0
C341 C 0.10811 0.56074 0.05008 0.0
C342 C 0.15899 0.59353 0.17765 0.0
C343 C 0.09178 0.51815 0.08484 0.0
H344 H 0.14857 0.50696 0.22176 0.0
H345 H 0.09644 0.52232 0.2942 0.0
H346 H 0.14514 0.52579 0.0965 0.0
H347 H 0.16911 0.55219 0.12793 0.0
H348 H 0.16558 0.52241 0.1403 0.0
H349 H 0.08066 0.54455 0.25273 0.0
H350 H 0.10391 0.56965 0.21589 0.0
H351 H 0.08055 0.54335 0.1828 0.0
H352 H 0.15034 0.61625 0.09879 0.0
H353 H 0.09494 0.55289 0.01869 0.0
H354 H 0.16944 0.58393 0.18459 0.0
H355 H 0.14886 0.59216 0.21375 0.0
H356 H 0.17212 0.61319 0.17014 0.0
H357 H 0.10164 0.50794 0.09148 0.0
H358 H 0.08236 0.51262 0.04663 0.0
H359 H 0.07774 0.51258 0.11561 0.0
C360 C 0.50045 0.30244 0.14139 0.0
C361 C 0.47958 0.28951 0.17223 0.0
C362 C 0.50941 0.28993 0.11169 0.0
C363 C 0.49745 0.26406 0.11419 0.0
C364 C 0.47837 0.25138 0.15056 0.0
C365 C 0.46935 0.26425 0.17844 0.0
C366 C 0.52972 0.30421 0.07357 0.0
C367 C 0.46568 0.22385 0.15603 0.0
C368 C 0.48176 0.21967 0.00451 0.0
C369 C 0.49537 0.20859 0.01837 0.0
C370 C 0.48492 0.24048 0.03109 0.0
C371 C 0.50142 0.24963 0.07363 0.0
C372 C 0.51748 0.24048 0.08295 0.0
C373 C 0.51442 0.2201 0.05456 0.0
C374 C 0.4682 0.25044 0.01826 0.0
C375 C 0.53545 0.24979 0.12746 0.0
H376 H 0.50812 0.322 0.13601 0.0
H377 H 0.45312 0.25432 0.20211 0.0
H378 H 0.54136 0.2958 0.06801 0.0
H379 H 0.5216 0.30432 0.0354 0.0
H380 H 0.54141 0.32352 0.08633 0.0
H381 H 0.45398 0.21738 0.19114 0.0
H382 H 0.45394 0.2151 0.12153 0.0
H383 H 0.47926 0.21759 0.1582 0.0
H384 H 0.46691 0.2106 0.97676 0.0
H385 H 0.52473 0.21126 0.0657 0.0
H386 H 0.47824 0.27075 0.02036 0.0
H387 H 0.45312 0.24352 0.04695 0.0
H388 H 0.46002 0.24469 0.97895 0.0
H389 H 0.54346 0.26982 0.133 0.0
H390 H 0.55047 0.2457 0.12137 0.0
H391 H 0.52579 0.24061 0.16371 0.0
C392 C 0.24992 0.47533 0.22916 0.0
C393 C 0.27513 0.48697 0.23778 0.0
C394 C 0.23533 0.48211 0.25758 0.0
C395 C 0.24624 0.50026 0.29682 0.0
C396 C 0.27201 0.51402 0.30118 0.0
C397 C 0.28625 0.50738 0.27088 0.0
C398 C 0.20795 0.46775 0.24991 0.0
C399 C 0.28444 0.53353 0.34223 0.0
C400 C 0.19913 0.5105 0.36439 0.0
C401 C 0.18908 0.49034 0.39811 0.0
C402 C 0.21956 0.51577 0.33388 0.0
C403 C 0.23043 0.50094 0.3387 0.0
C404 C 0.22257 0.48306 0.37849 0.0
C405 C 0.20163 0.47766 0.40714 0.0
C406 C 0.22728 0.535 0.29219 0.0
C407 C 0.23438 0.46757 0.38657 0.0
H408 H 0.24137 0.45947 0.20375 0.0
H409 H 0.30578 0.51618 0.27807 0.0
H410 H 0.1995 0.45435 0.28193 0.0
H411 H 0.20015 0.4801 0.25074 0.0
H412 H 0.20283 0.45752 0.21259 0.0
H413 H 0.30373 0.54663 0.33175 0.0
H414 H 0.27468 0.54384 0.34866 0.0
H415 H 0.28449 0.52468 0.37941 0.0
H416 H 0.18927 0.52019 0.3569 0.0
H417 H 0.19382 0.46207 0.43314 0.0
H418 H 0.21767 0.52611 0.25552 0.0
H419 H 0.24722 0.54414 0.28485 0.0
H420 H 0.22236 0.54911 0.30261 0.0
H421 H 0.22865 0.45379 0.35496 0.0
H422 H 0.22904 0.4577 0.4242 0.0
H423 H 0.2546 0.47904 0.38535 0.0
C424 C 0.7074 0.16666 0.45473 0.0
C425 C 0.68471 0.16216 0.47345 0.0
C426 C 0.72769 0.19032 0.45505 0.0
C427 C 0.72512 0.21 0.47398 0.0
C428 C 0.70248 0.20547 0.49468 0.0
C429 C 0.6825 0.18147 0.49454 0.0
C430 C 0.7517 0.19434 0.43378 0.0
C431 C 0.69914 0.22608 0.51503 0.0
C432 C 0.78467 0.26668 0.5086 0.0
C433 C 0.78997 0.28053 0.46286 0.0
C434 C 0.76311 0.24415 0.51353 0.0
C435 C 0.74632 0.23523 0.47182 0.0
C436 C 0.751 0.24948 0.4263 0.0
C437 C 0.77286 0.272 0.42227 0.0
C438 C 0.75885 0.22941 0.56254 0.0
C439 C 0.7333 0.24053 0.38122 0.0
H440 H 0.70914 0.1517 0.43864 0.0
H441 H 0.66488 0.17803 0.5085 0.0
H442 H 0.75692 0.2064 0.39925 0.0
H443 H 0.76642 0.2037 0.46312 0.0
H444 H 0.75084 0.1769 0.42244 0.0
H445 H 0.68077 0.21933 0.53231 0.0
H446 H 0.71324 0.23678 0.54479 0.0
H447 H 0.70157 0.23883 0.48294 0.0
H448 H 0.79766 0.27316 0.54046 0.0
H449 H 0.77673 0.28268 0.38704 0.0
H450 H 0.75952 0.21253 0.55359 0.0
H451 H 0.74044 0.22362 0.57841 0.0
H452 H 0.77272 0.23984 0.59298 0.0
H453 H 0.73269 0.22415 0.36365 0.0
H454 H 0.7385 0.25471 0.3507 0.0
H455 H 0.71457 0.23493 0.39481 0.0
C456 C 0.43295 0.74738 0.55045 0.0
C457 C 0.45164 0.7571 0.51337 0.0
C458 C 0.42909 0.72734 0.58111 0.0
C459 C 0.44388 0.71662 0.57314 0.0
C460 C 0.45992 0.72395 0.53006 0.0
C461 C 0.46394 0.74446 0.50119 0.0
C462 C 0.41164 0.72001 0.62615 0.0
C463 C 0.47524 0.71225 0.51863 0.0
C464 C 0.47491 0.70081 0.67838 0.0
C465 C 0.46343 0.67538 0.67293 0.0
C466 C 0.46661 0.71432 0.65042 0.0
C467 C 0.44694 0.70206 0.61486 0.0
C468 C 0.43362 0.67615 0.61368 0.0
C469 C 0.44189 0.66304 0.64342 0.0
C470 C 0.48074 0.74193 0.65456 0.0
C471 C 0.41257 0.6623 0.57658 0.0
H472 H 0.42359 0.75734 0.56027 0.0
H473 H 0.47843 0.75206 0.47259 0.0
H474 H 0.4028 0.70008 0.63397 0.0
H475 H 0.42196 0.72987 0.6615 0.0
H476 H 0.39724 0.72491 0.61909 0.0
H477 H 0.48327 0.7169 0.47914 0.0
H478 H 0.49041 0.71882 0.54723 0.0
H479 H 0.46414 0.69202 0.52207 0.0
H480 H 0.4916 0.7103 0.70111 0.0
H481 H 0.43316 0.64332 0.63868 0.0
H482 H 0.46809 0.74935 0.65615 0.0
H483 H 0.49242 0.7497 0.61977 0.0
H484 H 0.4927 0.74826 0.68948 0.0
H485 H 0.40186 0.67171 0.5709 0.0
H486 H 0.40014 0.64335 0.59042 0.0
H487 H 0.41987 0.66107 0.53828 0.0
C488 C 0.65503 0.46833 0.86256 0.0
C489 C 0.65188 0.47237 0.81026 0.0
C490 C 0.67527 0.46659 0.87886 0.0
C491 C 0.69288 0.46914 0.84198 0.0
C492 C 0.68867 0.47097 0.7885 0.0
C493 C 0.66808 0.47249 0.77316 0.0
C494 C 0.67884 0.46423 0.93608 0.0
C495 C 0.70695 0.4734 0.74796 0.0
C496 C 0.75955 0.50424 0.88075 0.0
C497 C 0.76544 0.48561 0.88408 0.0
C498 C 0.73575 0.4989 0.86897 0.0
C499 C 0.71738 0.47428 0.85995 0.0
C500 C 0.72283 0.45519 0.86648 0.0
C501 C 0.7469 0.4611 0.87874 0.0
C502 C 0.7306 0.5198 0.86356 0.0
C503 C 0.7037 0.42874 0.85744 0.0
H504 H 0.64222 0.46769 0.89132 0.0
H505 H 0.6656 0.47543 0.73269 0.0
H506 H 0.6853 0.451 0.94285 0.0
H507 H 0.69303 0.48226 0.95154 0.0
H508 H 0.66173 0.45823 0.95834 0.0
H509 H 0.69941 0.47106 0.70803 0.0
H510 H 0.72347 0.49184 0.75096 0.0
H511 H 0.71281 0.45968 0.75446 0.0
H512 H 0.77388 0.52319 0.88506 0.0
H513 H 0.7515 0.44668 0.88068 0.0
H514 H 0.71496 0.51657 0.88841 0.0
H515 H 0.72549 0.52089 0.82283 0.0
H516 H 0.74663 0.53774 0.87439 0.0
H517 H 0.68625 0.42433 0.87652 0.0
H518 H 0.70972 0.41599 0.872 0.0
H519 H 0.69998 0.42551 0.81523 0.0
C520 C 0.18091 0.69689 0.90316 0.0
C521 C 0.16091 0.69644 0.92771 0.0
C522 C 0.20353 0.71871 0.90053 0.0
C523 C 0.20593 0.74043 0.92248 0.0
C524 C 0.1854 0.7403 0.94462 0.0
C525 C 0.16316 0.71828 0.9471 0.0
C526 C 0.22509 0.71828 0.87648 0.0
C527 C 0.18714 0.76321 0.96755 0.0
C528 C 0.26754 0.7916 0.96906 0.0
C529 C 0.27402 0.80848 0.92847 0.0
C530 C 0.24567 0.769 0.96698 0.0
C531 C 0.22996 0.76332 0.92344 0.0
C532 C 0.23652 0.78017 0.88221 0.0
C533 C 0.25845 0.8025 0.8852 0.0
C534 C 0.23918 0.75135 0.01163 0.0
C535 C 0.22014 0.77481 0.83537 0.0
H536 H 0.17926 0.67999 0.88853 0.0
H537 H 0.14765 0.71799 0.96582 0.0
H538 H 0.23373 0.73283 0.84673 0.0
H539 H 0.2391 0.7221 0.90674 0.0
H540 H 0.2198 0.70033 0.85817 0.0
H541 H 0.16913 0.76023 0.9808 0.0
H542 H 0.19988 0.76947 0.00114 0.0
H543 H 0.19464 0.77819 0.93856 0.0
H544 H 0.27955 0.79602 0.00238 0.0
H545 H 0.26328 0.8154 0.85353 0.0
H546 H 0.23554 0.73323 0.99717 0.0
H547 H 0.2222 0.74856 0.03045 0.0
H548 H 0.25392 0.75798 0.04135 0.0
H549 H 0.21604 0.75714 0.81746 0.0
H550 H 0.22847 0.7894 0.80553 0.0
H551 H 0.20246 0.773 0.84744 0.0
C552 C 0.57467 0.10573 0.65656 0.0
C553 C 0.58311 0.12474 0.62004 0.0
C554 C 0.56567 0.1078 0.7051 0.0
C555 C 0.56497 0.12937 0.71752 0.0
C556 C 0.57331 0.14854 0.6807 0.0
C557 C 0.58229 0.14602 0.63258 0.0
C558 C 0.557 0.08695 0.74324 0.0
C559 C 0.57281 0.1718 0.69218 0.0
C560 C 0.52189 0.12725 0.82352 0.0
C561 C 0.53782 0.13779 0.86596 0.0
C562 C 0.53042 0.12422 0.77526 0.0
C563 C 0.55554 0.13195 0.76898 0.0
C564 C 0.5717 0.14253 0.81167 0.0
C565 C 0.56267 0.14529 0.85955 0.0
C566 C 0.51255 0.11284 0.73087 0.0
C567 C 0.59861 0.15106 0.80667 0.0
H568 H 0.57525 0.08923 0.64741 0.0
H569 H 0.58871 0.16083 0.60475 0.0
H570 H 0.56782 0.09348 0.77964 0.0
H571 H 0.5376 0.08021 0.75344 0.0
H572 H 0.55864 0.07138 0.7277 0.0
H573 H 0.5798 0.18494 0.65935 0.0
H574 H 0.55384 0.16741 0.70083 0.0
H575 H 0.58406 0.18089 0.72707 0.0
H576 H 0.50265 0.12132 0.82793 0.0
H577 H 0.57515 0.15344 0.89197 0.0
H578 H 0.51277 0.09636 0.71642 0.0
H579 H 0.51805 0.12596 0.69817 0.0
H580 H 0.49355 0.10744 0.74221 0.0
H581 H 0.60112 0.13561 0.79415 0.0
H582 H 0.60873 0.15859 0.84364 0.0
H583 H 0.60687 0.16543 0.77643 0.0
C584 C 0.44013 0.5723 0.868 0.0
C585 C 0.42541 0.57424 0.82949 0.0
C586 C 0.43044 0.56177 0.91652 0.0
C587 C 0.40536 0.55286 0.9269 0.0
C588 C 0.39031 0.55437 0.88792 0.0
C589 C 0.4005 0.56506 0.8398 0.0
C590 C 0.44713 0.56055 0.95699 0.0
C591 C 0.36347 0.545 0.89728 0.0
C592 C 0.37487 0.50778 0.038 0.0
C593 C 0.3746 0.52306 0.07738 0.0
C594 C 0.38491 0.51721 0.98898 0.0
C595 C 0.39501 0.54256 0.97901 0.0
C596 C 0.395 0.5581 0.01874 0.0
C597 C 0.38478 0.54818 0.0673 0.0
C598 C 0.38452 0.50001 0.94769 0.0
C599 C 0.40565 0.58524 0.00984 0.0
H600 H 0.45939 0.57931 0.86054 0.0
H601 H 0.38893 0.56639 0.81037 0.0
H602 H 0.44791 0.57142 0.99156 0.0
H603 H 0.43983 0.54135 0.96992 0.0
H604 H 0.46603 0.56764 0.94239 0.0
H605 H 0.35407 0.5468 0.86247 0.0
H606 H 0.35424 0.52544 0.90881 0.0
H607 H 0.36127 0.55531 0.92972 0.0
H608 H 0.36705 0.48835 0.04528 0.0
H609 H 0.38472 0.56018 0.09737 0.0
H610 H 0.4034 0.50614 0.9343 0.0
H611 H 0.37394 0.50031 0.91354 0.0
H612 H 0.37628 0.48084 0.96174 0.0
H613 H 0.42509 0.59361 -0.00188 0.0
H614 H 0.40459 0.59491 0.04493 0.0
H615 H 0.39576 0.58829 0.97769 0.0
C616 C 0.79506 0.40876 0.05239 0.0
C617 C 0.81536 0.42691 0.0255 0.0
C618 C 0.79795 0.39876 0.0989 0.0
C619 C 0.8217 0.40722 0.11943 0.0
C620 C 0.8423 0.42493 0.09159 0.0
C621 C 0.83889 0.43447 0.04498 0.0
C622 C 0.77551 0.37973 0.12698 0.0
C623 C 0.86794 0.43457 0.11208 0.0
C624 C 0.82839 0.40441 0.26577 0.0
C625 C 0.83201 0.38428 0.27143 0.0
C626 C 0.82496 0.41193 0.21668 0.0
C627 C 0.82495 0.39895 0.17179 0.0
C628 C 0.82835 0.37845 0.17714 0.0
C629 C 0.83194 0.37142 0.22683 0.0
C630 C 0.82155 0.43398 0.21287 0.0
C631 C 0.82829 0.36401 0.13034 0.0
H632 H 0.77681 0.40267 0.03764 0.0
H633 H 0.85473 0.44846 0.02464 0.0
H634 H 0.77739 0.36356 0.13636 0.0
H635 H 0.77357 0.38742 0.16424 0.0
H636 H 0.75854 0.37355 0.10385 0.0
H637 H 0.88206 0.44711 0.08427 0.0
H638 H 0.87026 0.44463 0.14893 0.0
H639 H 0.87117 0.41917 0.12077 0.0
H640 H 0.82845 0.41455 0.2998 0.0
H641 H 0.83466 0.35582 0.2307 0.0
H642 H 0.80383 0.42876 0.19381 0.0
H643 H 0.83618 0.44826 0.18849 0.0
H644 H 0.82197 0.44206 0.25144 0.0
H645 H 0.81086 0.35708 0.10863 0.0
H646 H 0.83062 0.34822 0.14104 0.0
H647 H 0.84327 0.37608 0.10367 0.0
C648 C 0.40556 0.83192 0.34944 0.0
C649 C 0.42821 0.83334 0.34123 0.0
C650 C 0.39193 0.83349 0.30769 0.0
C651 C 0.40118 0.8366 0.25651 0.0
C652 C 0.42403 0.83806 0.2481 0.0
C653 C 0.4372 0.83639 0.29039 0.0
C654 C 0.36763 0.83179 0.3183 0.0
C655 C 0.43463 0.8414 0.19427 0.0
C656 C 0.35948 0.81875 0.13798 0.0
C657 C 0.36396 0.84163 0.11976 0.0
C658 C 0.37077 0.81677 0.1834 0.0
C659 C 0.38707 0.83819 0.21141 0.0
C660 C 0.39111 0.86127 0.19411 0.0
C661 C 0.3795 0.86271 0.14862 0.0
C662 C 0.36584 0.7918 0.20053 0.0
C663 C 0.40835 0.88456 0.22272 0.0
H664 H 0.39844 0.82958 0.38851 0.0
H665 H 0.45467 0.83755 0.28345 0.0
H666 H 0.36792 0.8486 0.30442 0.0
H667 H 0.35291 0.8161 0.29661 0.0
H668 H 0.36298 0.82942 0.36021 0.0
H669 H 0.45269 0.84237 0.19428 0.0
H670 H 0.42194 0.82596 0.16897 0.0
H671 H 0.43681 0.85847 0.17682 0.0
H672 H 0.34742 0.80232 0.11624 0.0
H673 H 0.38308 0.88048 0.13505 0.0
H674 H 0.36013 0.78868 0.24177 0.0
H675 H 0.38285 0.7908 0.19754 0.0
H676 H 0.35141 0.7768 0.17674 0.0
H677 H 0.40333 0.88293 0.26431 0.0
H678 H 0.4083 0.90084 0.20635 0.0
H679 H 0.42725 0.88764 0.2207 0.0
C680 C 0.54663 0.40832 0.58357 0.0
C681 C 0.56286 0.43337 0.59212 0.0
C682 C 0.53788 0.39915 0.53355 0.0
C683 C 0.54549 0.41538 0.49076 0.0
C684 C 0.56206 0.44065 0.49897 0.0
C685 C 0.57055 0.44933 0.54947 0.0
C686 C 0.5203 0.37207 0.52657 0.0
C687 C 0.57062 0.45856 0.45446 0.0
C688 C 0.538 0.38685 0.35664 0.0
C689 C 0.51589 0.38475 0.33951 0.0
C690 C 0.54812 0.39727 0.40518 0.0
C691 C 0.53587 0.40583 0.4376 0.0
C692 C 0.51386 0.40433 0.42002 0.0
C693 C 0.50416 0.39384 0.37128 0.0
C694 C 0.57164 0.39858 0.4223 0.0
C695 C 0.50023 0.41326 0.45327 0.0
H696 H 0.54055 0.39579 0.61612 0.0
H697 H 0.58304 0.46872 0.55555 0.0
H698 H 0.50278 0.36918 0.51012 0.0
H699 H 0.52788 0.36421 0.49865 0.0
H700 H 0.51642 0.36183 0.56364 0.0
H701 H 0.58385 0.47755 0.46709 0.0
H702 H 0.57942 0.45293 0.42447 0.0
H703 H 0.55473 0.45852 0.43586 0.0
H704 H 0.54727 0.37996 0.33247 0.0
H705 H 0.4871 0.39236 0.35852 0.0
H706 H 0.56827 0.38707 0.45724 0.0
H707 H 0.58534 0.41766 0.43317 0.0
H708 H 0.57955 0.39225 0.39162 0.0
H709 H 0.49407 0.40235 0.48948 0.0
H710 H 0.48399 0.41184 0.4331 0.0
H711 H 0.51251 0.43265 0.46468 0.0
C712 C 0.1092 0.52049 0.57837 0.0
C713 C 0.12592 0.53551 0.54048 0.0
C714 C 0.10756 0.53008 0.62654 0.0
C715 C 0.12294 0.55536 0.63722 0.0
C716 C 0.13952 0.57071 0.5988 0.0
C717 C 0.14084 0.56061 0.55104 0.0
C718 C 0.08968 0.51305 0.6664 0.0
C719 C 0.15615 0.59777 0.60846 0.0
C720 C 0.1059 0.58441 0.74758 0.0
C721 C 0.12138 0.58522 0.78772 0.0
C722 C 0.1062 0.57478 0.69845 0.0
C723 C 0.12226 0.56559 0.68917 0.0
C724 C 0.13781 0.56622 0.72961 0.0
C725 C 0.13723 0.57606 0.77821 0.0
C726 C 0.08941 0.57456 0.65636 0.0
C727 C 0.15511 0.55649 0.72154 0.0
H728 H 0.09756 0.50108 0.57072 0.0
H729 H 0.15377 0.57242 0.52208 0.0
H730 H 0.09972 0.51272 0.70149 0.0
H731 H 0.07723 0.5198 0.67858 0.0
H732 H 0.07848 0.49402 0.65157 0.0
H733 H 0.16734 0.60739 0.57396 0.0
H734 H 0.1452 0.6064 0.61946 0.0
H735 H 0.16865 0.6005 0.64135 0.0
H736 H 0.09361 0.59146 0.75441 0.0
H737 H 0.14923 0.57652 0.80887 0.0
H738 H 0.07715 0.55552 0.64278 0.0
H739 H 0.10032 0.58525 0.6225 0.0
H740 H 0.078 0.58237 0.66971 0.0
H741 H 0.1447 0.53694 0.70974 0.0
H742 H 0.16584 0.55807 0.75703 0.0
H743 H 0.16802 0.56666 0.68972 0.0
C744 C 0.39178 0.05883 0.00923 0.0
C745 C 0.41378 0.07068 0.98129 0.0
C746 C 0.3767 0.03332 0.00713 0.0
C747 C 0.38367 0.01941 0.97591 0.0
C748 C 0.40482 0.03139 0.94453 0.0
C749 C 0.41967 0.05692 0.94766 0.0
C750 C 0.35421 0.02119 0.04089 0.0
C751 C 0.41254 0.01713 0.90986 0.0
C752 C 0.36672 0.95425 0.00875 0.0
C753 C 0.34909 0.94112 0.97061 0.0
C754 C 0.37719 0.97976 0.01292 0.0
C755 C 0.3698 -0.00773 0.9781 0.0
C756 C 0.35066 0.97887 0.94237 0.0
C757 C 0.34046 0.95343 0.9392 0.0
C758 C 0.39727 -0.00651 0.05226 0.0
C759 C 0.34214 -0.00848 0.90495 0.0
H760 H 0.38698 0.0693 0.0352 0.0
H761 H 0.43654 0.06592 0.92574 0.0
H762 H 0.33821 0.00737 0.01845 0.0
H763 H 0.35734 0.01141 0.07313 0.0
H764 H 0.34967 0.03466 0.05778 0.0
H765 H 0.42834 0.02928 0.88499 0.0
H766 H 0.41769 0.00582 0.934 0.0
H767 H 0.3971 0.00444 0.88456 0.0
H768 H 0.37338 0.94486 0.0333 0.0
H769 H 0.32659 0.94336 0.91003 0.0
H770 H 0.39374 0.00647 0.07458 0.0
H771 H 0.41496 0.00443 0.03191 0.0
H772 H 0.3991 0.98096 0.07987 0.0
H773 H 0.33901 0.0052 0.92545 0.0
H774 H 0.32503 0.97835 0.88447 0.0
H775 H 0.35655 0.00154 0.87553 0.0
C776 C 0.39341 0.35271 0.26643 0.0
C777 C 0.38732 0.33211 0.23553 0.0
C778 C 0.37835 0.36317 0.26757 0.0
C779 C 0.35679 0.3528 0.23695 0.0
C780 C 0.34929 0.33062 0.20997 0.0
C781 C 0.36458 0.32041 0.2099 0.0
C782 C 0.38658 0.38649 0.29811 0.0
C783 C 0.32631 0.31885 0.17732 0.0
C784 C 0.31599 0.37994 0.25978 0.0
C785 C 0.32552 0.39933 0.22396 0.0
C786 C 0.32502 0.36368 0.26273 0.0
C787 C 0.34384 0.36675 0.22871 0.0
C788 C 0.35201 0.38489 0.18951 0.0
C789 C 0.34277 0.40103 0.18767 0.0
C790 C 0.31571 0.34447 0.30478 0.0
C791 C 0.37169 0.38833 0.15168 0.0
H792 H 0.41077 0.3617 0.28687 0.0
H793 H 0.35955 0.30432 0.18627 0.0
H794 H 0.39252 0.4021 0.27095 0.0
H795 H 0.37125 0.38528 0.32133 0.0
H796 H 0.40206 0.39052 0.32463 0.0
H797 H 0.32081 0.29969 0.16658 0.0
H798 H 0.31093 0.31889 0.19796 0.0
H799 H 0.32953 0.32955 0.14111 0.0
H800 H 0.30245 0.37829 0.28775 0.0
H801 H 0.35009 0.4158 0.15963 0.0
H802 H 0.32969 0.35023 0.33596 0.0
H803 H 0.31253 0.32665 0.28948 0.0
H804 H 0.29847 0.34179 0.32219 0.0
H805 H 0.38931 0.39523 0.17267 0.0
H806 H 0.37423 0.40154 0.12047 0.0
H807 H 0.36717 0.37056 0.13361 0.0
C808 C 0.03465 0.41617 0.43547 0.0
C809 C 0.0492 0.41215 0.40039 0.0
C810 C 0.00908 0.40194 0.43345 0.0
C811 C -0.00216 0.38336 0.39525 0.0
C812 C 0.0124 0.37837 0.36145 0.0
C813 C 0.03794 0.39276 0.36459 0.0
C814 C -0.00592 0.40745 0.4709 0.0
C815 C 0.00106 0.35869 0.32032 0.0
C816 C 0.93139 0.33899 0.42315 0.0
C817 C 0.91995 0.35023 0.39744 0.0
C818 C 0.95669 0.3486 0.41996 0.0
C819 C 0.97081 0.36983 0.38999 0.0
C820 C 0.95907 0.37977 0.35974 0.0
C821 C 0.93367 0.36981 0.36382 0.0
C822 C 0.96847 0.3373 0.45232 0.0
C823 C 0.97355 0.40213 0.32641 0.0
H824 H 0.04319 0.43103 0.46333 0.0
H825 H 0.04902 0.38949 0.33724 0.0
H826 H -0.01672 0.41404 0.44921 0.0
H827 H -0.01906 0.39054 0.49169 0.0
H828 H 0.00563 0.42159 0.5 0.0
H829 H 0.01483 0.35538 0.30084 0.0
H830 H -0.01325 0.34122 0.33736 0.0
H831 H -0.00795 0.36423 0.29053 0.0
H832 H 0.9208 0.32358 0.44863 0.0
H833 H 0.92494 0.37851 0.34367 0.0
H834 H -0.02212 0.34934 0.48608 0.0
H835 H -0.01754 0.33561 0.42964 0.0
H836 H 0.95483 0.31889 0.46704 0.0
H837 H -0.01612 0.41844 0.35166 0.0
H838 H 0.96159 0.40557 0.30018 0.0
H839 H -0.01294 0.4001 0.30265 0.0
C840 C 0.55469 0.90802 0.49689 0.0
C841 C 0.53196 0.89615 0.47129 0.0
C842 C 0.56931 0.93358 0.49627 0.0
C843 C 0.56126 0.94758 0.46848 0.0
C844 C 0.53919 0.93567 0.43958 0.0
C845 C 0.5247 0.91005 0.44158 0.0
C846 C 0.59268 0.94564 0.52771 0.0
C847 C 0.53039 0.95006 0.40836 0.0
C848 C 0.58264 0.01339 0.50759 0.0
C849 C 0.6006 0.02637 0.47022 0.0
C850 C 0.57016 -0.01234 0.50849 0.0
C851 C 0.5756 0.97473 0.47072 0.0
C852 C 0.59433 -0.01227 0.43424 0.0
C853 C 0.60675 0.01336 0.43475 0.0
C854 C 0.55062 0.9743 0.54876 0.0
C855 C 0.60054 0.97459 0.39318 0.0
H856 H 0.56051 0.89748 0.52 0.0
H857 H 0.50722 0.90103 0.4216 0.0
H858 H 0.60825 0.95862 0.50335 0.0
H859 H 0.59092 0.9564 0.55981 0.0
H860 H 0.59711 0.93209 0.54459 0.0
H861 H 0.51385 0.93799 0.38496 0.0
H862 H 0.52598 0.9612 0.43482 0.0
H863 H 0.54501 0.96292 0.3819 0.0
H864 H 0.57782 0.02328 0.53514 0.0
H865 H 0.62063 0.02316 0.40568 0.0
H866 H 0.55408 0.96095 0.56977 0.0
H867 H 0.53252 0.96377 0.52948 0.0
H868 H 0.54973 -0.013 0.57744 0.0
H869 H 0.60478 0.96118 0.41135 0.0
H870 H 0.61638 -0.01259 0.36913 0.0
H871 H 0.58452 0.96414 0.36729 0.0
C872 C 0.59537 0.55551 0.68035 0.0
C873 C 0.61194 0.55824 0.71965 0.0
C874 C 0.58761 0.5727 0.67452 0.0
C875 C 0.59682 0.59309 0.70856 0.0
C876 C 0.61584 0.59754 0.74367 0.0
C877 C 0.62322 0.58003 0.7488 0.0
C878 C 0.56767 0.56761 0.63566 0.0
C879 C 0.62665 0.61945 0.77953 0.0
C880 C 0.57384 0.63697 0.67894 0.0
C881 C 0.55225 0.62668 0.70835 0.0
C882 C 0.58962 0.62733 0.68103 0.0
C883 C 0.58361 0.60696 0.71323 0.0
C884 C 0.56307 0.59798 0.74646 0.0
C885 C 0.54766 0.608 0.7437 0.0
C886 C 0.61161 0.63776 0.64584 0.0
C887 C 0.55627 0.57651 0.78213 0.0
H888 H 0.58683 0.53892 0.65713 0.0
H889 H 0.63644 0.58255 0.7786 0.0
H890 H 0.55022 0.56166 0.65647 0.0
H891 H 0.57203 0.58445 0.61376 0.0
H892 H 0.56487 0.55302 0.60763 0.0
H893 H 0.6445 0.62316 0.79582 0.0
H894 H 0.62923 0.63608 0.75917 0.0
H895 H 0.61392 0.61588 0.81226 0.0
H896 H 0.57771 0.65161 0.65184 0.0
H897 H 0.5312 0.60012 0.76698 0.0
H898 H 0.60727 0.62587 0.6111 0.0
H899 H 0.62755 0.63834 0.6655 0.0
H900 H 0.61683 0.65653 0.63261 0.0
H901 H 0.55068 0.55973 0.7587 0.0
H902 H 0.54099 0.57309 0.80847 0.0
H903 H 0.57225 0.57972 0.80602 0.0
C904 C 0.01797 0.60925 0.99335 0.0
C905 C 0.03082 0.605 0.95409 0.0
C906 C -0.00746 0.59892 0.99081 0.0
C907 C -0.02036 0.58402 0.94796 0.0
C908 C -0.00752 0.58002 0.90766 0.0
C909 C 0.01796 0.59057 0.9112 0.0
C910 C -0.02056 0.60361 0.03441 0.0
C911 C -0.02076 0.56428 0.86118 0.0
C912 C 0.91255 0.53615 0.95661 0.0
C913 C 0.90179 0.54726 0.92801 0.0
C914 C 0.93785 0.54838 0.96547 0.0
C915 C 0.95263 0.57226 0.94539 0.0
C916 C 0.94168 0.58423 0.91983 0.0
C917 C 0.91635 0.57159 0.91154 0.0
C918 C 0.94891 0.53517 0.99354 0.0
C919 C 0.95686 0.6098 0.8984 0.0
H920 H 0.02774 0.62042 0.02665 0.0
H921 H 0.02773 0.58721 0.88076 0.0
H922 H 0.96849 0.61152 0.01886 0.0
H923 H 0.96652 0.58605 0.05344 0.0
H924 H -0.00772 0.61628 0.06424 0.0
H925 H -0.00803 0.56342 0.8327 0.0
H926 H 0.96608 0.54538 0.874 0.0
H927 H 0.96857 0.57156 0.8414 0.0
H928 H 0.90143 0.51741 0.9697 0.0
H929 H 0.90817 0.5804 0.88974 0.0
H930 H 0.96149 0.54694 0.02464 0.0
H931 H 0.95985 0.53106 0.96593 0.0
H932 H 0.93476 0.51769 0.01101 0.0
H933 H 0.96967 0.62231 0.92837 0.0
H934 H 0.94537 0.61742 0.88429 0.0
H935 H 0.96805 0.6095 0.86559 0.0
loop_
_geom_bond_atom_site_label_1
_geom_bond_atom_site_label_2
_geom_bond_distance
_geom_bond_site_symmetry_2
_ccdc_geom_bond_type
Zn0 O3 2.031 . S
Zn0 O5 2.049 . S
Zn0 O10 2.067 . S
Zn1 O2 1.962 . S
Zn1 O4 1.986 1_554 S
Zn1 O6 1.996 . S
Zn1 O9 1.943 . S
O2 Zn1 1.962 . S
O2 C7 1.254 . S
O3 Zn0 2.031 . S
O3 C7 1.269 . S
O4 Zn1 1.986 1_556 S
O4 C11 1.262 . S
O5 Zn0 2.049 . S
O5 C13 1.260 . S
O6 Zn1 1.996 . S
O6 C13 1.257 . S
C7 O2 1.254 . S
C7 O3 1.269 . S
C8 O9 1.249 . S
C8 O10 1.270 . S
O9 Zn1 1.943 . S
O9 C8 1.249 . S
O10 Zn0 2.067 . S
O10 C8 1.270 . S
C11 O4 1.262 . S
C11 O12 1.232 . S
O12 C11 1.232 . S
C13 O5 1.260 . S
C13 O6 1.257 . S
Zn14 O17 2.031 . S
Zn14 O19 2.049 . S
Zn14 O24 2.067 . S
Zn15 O16 1.962 . S
Zn15 O18 1.986 . S
Zn15 O20 1.996 . S
Zn15 O23 1.943 . S
O16 Zn15 1.962 . S
O16 C21 1.254 . S
O17 Zn14 2.031 . S
O17 C21 1.269 . S
O18 Zn15 1.986 . S
O18 C25 1.262 . S
O19 Zn14 2.049 . S
O19 C27 1.260 . S
O20 Zn15 1.996 . S
O20 C27 1.257 . S
C21 O16 1.254 . S
C21 O17 1.269 . S
C22 O23 1.249 . S
C22 O24 1.270 . S
O23 Zn15 1.943 . S
O23 C22 1.249 . S
O24 Zn14 2.067 . S
O24 C22 1.270 . S
C25 O18 1.262 . S
C25 O26 1.232 . S
O26 C25 1.232 . S
C27 O19 1.260 . S
C27 O20 1.257 . S
Zn28 O31 2.031 . S
Zn28 O33 2.049 . S
Zn28 O38 2.067 . S
Zn29 O30 1.962 . S
Zn29 O32 1.986 . S
Zn29 O34 1.996 . S
Zn29 O37 1.943 . S
O30 Zn29 1.962 . S
O30 C35 1.254 . S
O31 Zn28 2.031 . S
O31 C35 1.269 . S
O32 Zn29 1.986 . S
O32 C39 1.262 . S
O33 Zn28 2.049 . S
O33 C41 1.260 . S
O34 Zn29 1.996 . S
O34 C41 1.257 . S
C35 O30 1.254 . S
C35 O31 1.269 . S
C36 O37 1.249 . S
C36 O38 1.270 . S
O37 Zn29 1.943 . S
O37 C36 1.249 . S
O38 Zn28 2.067 . S
O38 C36 1.270 . S
C39 O32 1.262 . S
C39 O40 1.232 . S
O40 C39 1.232 . S
C41 O33 1.260 . S
C41 O34 1.257 . S
Zn42 O45 2.031 . S
Zn42 O47 2.049 . S
Zn42 O52 2.067 . S
Zn43 O44 1.962 . S
Zn43 O46 1.986 . S
Zn43 O48 1.996 . S
Zn43 O51 1.943 . S
O44 Zn43 1.962 . S
O44 C49 1.254 . S
O45 Zn42 2.031 . S
O45 C49 1.269 . S
O46 Zn43 1.986 . S
O46 C53 1.262 . S
O47 Zn42 2.049 . S
O47 C55 1.260 . S
O48 Zn43 1.996 . S
O48 C55 1.257 . S
C49 O44 1.254 . S
C49 O45 1.269 . S
C50 O51 1.249 . S
C50 O52 1.270 . S
O51 Zn43 1.943 . S
O51 C50 1.249 . S
O52 Zn42 2.067 . S
O52 C50 1.270 . S
C53 O46 1.262 . S
C53 O54 1.232 . S
O54 C53 1.232 . S
C55 O47 1.260 . S
C55 O48 1.257 . S
Zn56 O59 2.031 . S
Zn56 O61 2.049 . S
Zn56 O66 2.067 . S
Zn57 O58 1.962 . S
Zn57 O60 1.986 . S
Zn57 O62 1.996 . S
Zn57 O65 1.943 . S
O58 Zn57 1.962 . S
O58 C63 1.254 . S
O59 Zn56 2.031 . S
O59 C63 1.269 . S
O60 Zn57 1.986 . S
O60 C67 1.262 . S
O61 Zn56 2.049 . S
O61 C69 1.260 . S
O62 Zn57 1.996 . S
O62 C69 1.257 . S
C63 O58 1.254 . S
C63 O59 1.269 . S
C64 O65 1.249 . S
C64 O66 1.270 . S
O65 Zn57 1.943 . S
O65 C64 1.249 . S
O66 Zn56 2.067 . S
O66 C64 1.270 . S
C67 O60 1.262 . S
C67 O68 1.232 . S
O68 C67 1.232 . S
C69 O61 1.260 . S
C69 O62 1.257 . S
Zn70 O73 2.031 . S
Zn70 O75 2.049 . S
Zn70 O80 2.067 . S
Zn71 O72 1.962 . S
Zn71 O74 1.986 . S
Zn71 O76 1.996 . S
Zn71 O79 1.943 . S
O72 Zn71 1.962 . S
O72 C77 1.254 . S
O73 Zn70 2.031 . S
O73 C77 1.269 . S
O74 Zn71 1.986 . S
O74 C81 1.262 . S
O75 Zn70 2.049 . S
O75 C83 1.260 . S
O76 Zn71 1.996 . S
O76 C83 1.257 . S
C77 O72 1.254 . S
C77 O73 1.269 . S
C78 O79 1.249 . S
C78 O80 1.270 . S
O79 Zn71 1.943 . S
O79 C78 1.249 . S
O80 Zn70 2.067 . S
O80 C78 1.270 . S
C81 O74 1.262 . S
C81 O82 1.232 . S
O82 C81 1.232 . S
C83 O75 1.260 . S
C83 O76 1.257 . S
Zn84 O87 2.031 . S
Zn84 O89 2.049 . S
Zn84 O94 2.067 . S
Zn85 O86 1.962 . S
Zn85 O88 1.986 . S
Zn85 O90 1.996 . S
Zn85 O93 1.943 . S
O86 Zn85 1.962 . S
O86 C91 1.254 . S
O87 Zn84 2.031 . S
O87 C91 1.269 . S
O88 Zn85 1.986 . S
O88 C95 1.262 . S
O89 Zn84 2.049 . S
O89 C97 1.260 . S
O90 Zn85 1.996 . S
O90 C97 1.257 . S
C91 O86 1.254 . S
C91 O87 1.269 . S
C92 O93 1.249 . S
C92 O94 1.270 . S
O93 Zn85 1.943 . S
O93 C92 1.249 . S
O94 Zn84 2.067 . S
O94 C92 1.270 . S
C95 O88 1.262 . S
C95 O96 1.232 . S
O96 C95 1.232 . S
C97 O89 1.260 . S
C97 O90 1.257 . S
Zn98 O101 2.031 . S
Zn98 O103 2.049 . S
Zn98 O108 2.067 . S
Zn99 O100 1.962 . S
Zn99 O102 1.986 . S
Zn99 O104 1.996 . S
Zn99 O107 1.943 1_554 S
O100 Zn99 1.962 . S
O100 C105 1.254 . S
O101 Zn98 2.031 . S
O101 C105 1.269 1_556 S
O102 Zn99 1.986 . S
O102 C109 1.262 . S
O103 Zn98 2.049 . S
O103 C111 1.260 1_556 S
O104 Zn99 1.996 . S
O104 C111 1.257 . S
C105 O100 1.254 . S
C105 O101 1.269 1_554 S
C106 O107 1.249 . S
C106 O108 1.270 . S
O107 Zn99 1.943 1_556 S
O107 C106 1.249 . S
O108 Zn98 2.067 . S
O108 C106 1.270 . S
C109 O102 1.262 . S
C109 O110 1.232 . S
O110 C109 1.232 . S
C111 O103 1.260 1_554 S
C111 O104 1.257 . S
Zn112 O115 2.031 . S
Zn112 O117 2.049 . S
Zn112 O122 2.067 . S
Zn113 O114 1.962 . S
Zn113 O116 1.986 . S
Zn113 O118 1.996 . S
Zn113 O121 1.943 . S
O114 Zn113 1.962 . S
O114 C119 1.254 . S
O115 Zn112 2.031 . S
O115 C119 1.269 . S
O116 Zn113 1.986 . S
O116 C123 1.262 . S
O117 Zn112 2.049 . S
O117 C125 1.260 . S
O118 Zn113 1.996 . S
O118 C125 1.257 . S
C119 O114 1.254 . S
C119 O115 1.269 . S
C120 O121 1.249 . S
C120 O122 1.270 . S
O121 Zn113 1.943 . S
O121 C120 1.249 . S
O122 Zn112 2.067 . S
O122 C120 1.270 . S
C123 O116 1.262 . S
C123 O124 1.232 . S
O124 C123 1.232 . S
C125 O117 1.260 . S
C125 O118 1.257 . S
Zn126 O129 2.031 . S
Zn126 O131 2.049 . S
Zn126 O136 2.067 . S
Zn127 O128 1.962 . S
Zn127 O130 1.986 . S
Zn127 O132 1.996 . S
Zn127 O135 1.943 . S
O128 Zn127 1.962 . S
O128 C133 1.254 . S
O129 Zn126 2.031 . S
O129 C133 1.269 . S
O130 Zn127 1.986 . S
O130 C137 1.262 . S
O131 Zn126 2.049 . S
O131 C139 1.260 . S
O132 Zn127 1.996 . S
O132 C139 1.257 . S
C133 O128 1.254 . S
C133 O129 1.269 . S
C134 O135 1.249 . S
C134 O136 1.270 . S
O135 Zn127 1.943 . S
O135 C134 1.249 . S
O136 Zn126 2.067 . S
O136 C134 1.270 . S
C137 O130 1.262 . S
C137 O138 1.232 . S
O138 C137 1.232 . S
C139 O131 1.260 . S
C139 O132 1.257 . S
Zn140 O143 2.031 . S
Zn140 O145 2.049 . S
Zn140 O150 2.067 . S
Zn141 O142 1.962 . S
Zn141 O144 1.986 . S
Zn141 O146 1.996 . S
Zn141 O149 1.943 . S
O142 Zn141 1.962 . S
O142 C147 1.254 . S
O143 Zn140 2.031 . S
O143 C147 1.269 . S
O144 Zn141 1.986 . S
O144 C151 1.262 . S
O145 Zn140 2.049 . S
O145 C153 1.260 . S
O146 Zn141 1.996 . S
O146 C153 1.257 . S
C147 O142 1.254 . S
C147 O143 1.269 . S
C148 O149 1.249 . S
C148 O150 1.270 . S
O149 Zn141 1.943 . S
O149 C148 1.249 . S
O150 Zn140 2.067 . S
O150 C148 1.270 . S
C151 O144 1.262 . S
C151 O152 1.232 . S
O152 C151 1.232 . S
C153 O145 1.260 . S
C153 O146 1.257 . S
Zn154 O157 2.031 . S
Zn154 O159 2.049 . S
Zn154 O164 2.067 . S
Zn155 O156 1.962 . S
Zn155 O158 1.986 . S
Zn155 O160 1.996 . S
Zn155 O163 1.943 . S
O156 Zn155 1.962 . S
O156 C161 1.254 . S
O157 Zn154 2.031 . S
O157 C161 1.269 . S
O158 Zn155 1.986 . S
O158 C165 1.262 . S
O159 Zn154 2.049 . S
O159 C167 1.260 . S
O160 Zn155 1.996 . S
O160 C167 1.257 . S
C161 O156 1.254 . S
C161 O157 1.269 . S
C162 O163 1.249 . S
C162 O164 1.270 . S
O163 Zn155 1.943 . S
O163 C162 1.249 . S
O164 Zn154 2.067 . S
O164 C162 1.270 . S
C165 O158 1.262 . S
C165 O166 1.232 . S
O166 C165 1.232 . S
C167 O159 1.260 . S
C167 O160 1.257 . S
C168 C169 1.391 . S
C168 C170 1.394 . S
C168 H184 0.931 . S
C169 C168 1.391 . S
C169 C173 1.376 . S
C170 C168 1.394 . S
C170 C171 1.369 . S
C170 C174 1.531 . S
C171 C170 1.369 . S
C171 C172 1.410 . S
C171 C179 1.503 . S
C172 C171 1.410 . S
C172 C173 1.392 . S
C172 C175 1.511 . S
C173 C169 1.376 . S
C173 C172 1.392 . S
C173 H185 0.929 . S
C174 C170 1.531 . S
C174 H186 0.960 . S
C174 H187 0.962 . S
C174 H188 0.960 . S
C175 C172 1.511 . S
C175 H189 0.961 . S
C175 H190 0.961 . S
C175 H191 0.961 . S
C176 C177 1.370 . S
C176 C178 1.363 . S
C176 H192 0.931 . S
C177 C176 1.370 . S
C177 C181 1.408 . S
C178 C176 1.363 . S
C178 C179 1.370 . S
C178 C182 1.524 . S
C179 C171 1.503 . S
C179 C178 1.370 . S
C179 C180 1.403 . S
C180 C179 1.403 . S
C180 C181 1.404 . S
C180 C183 1.539 . S
C181 C177 1.408 . S
C181 C180 1.404 . S
C181 H193 0.930 . S
C182 C178 1.524 . S
C182 H194 0.956 . S
C182 H195 0.961 . S
C182 H196 0.961 . S
C183 C180 1.539 . S
C183 H197 0.958 . S
C183 H198 0.961 . S
C183 H199 0.960 . S
H184 C168 0.931 . S
H185 C173 0.929 . S
H186 C174 0.960 . S
H187 C174 0.962 . S
H188 C174 0.960 . S
H189 C175 0.961 . S
H190 C175 0.961 . S
H191 C175 0.961 . S
H192 C176 0.931 . S
H193 C181 0.930 . S
H194 C182 0.956 . S
H195 C182 0.961 . S
H196 C182 0.961 . S
H197 C183 0.958 . S
H198 C183 0.961 . S
H199 C183 0.960 . S
C200 C201 1.391 . S
C200 C202 1.394 . S
C200 H216 0.931 . S
C201 C200 1.391 . S
C201 C205 1.376 . S
C202 C200 1.394 . S
C202 C203 1.369 . S
C202 C206 1.531 . S
C203 C202 1.369 . S
C203 C204 1.410 . S
C203 C211 1.503 . S
C204 C203 1.410 . S
C204 C205 1.392 . S
C204 C207 1.511 . S
C205 C201 1.376 . S
C205 C204 1.392 . S
C205 H217 0.929 . S
C206 C202 1.531 . S
C206 H218 0.960 . S
C206 H219 0.962 . S
C206 H220 0.960 . S
C207 C204 1.511 . S
C207 H221 0.961 . S
C207 H222 0.961 . S
C207 H223 0.961 . S
C208 C209 1.370 . S
C208 C210 1.363 . S
C208 H224 0.931 . S
C209 C208 1.370 . S
C209 C213 1.408 . S
C210 C208 1.363 . S
C210 C211 1.370 . S
C210 C214 1.524 . S
C211 C203 1.503 . S
C211 C210 1.370 . S
C211 C212 1.403 . S
C212 C211 1.403 . S
C212 C213 1.404 . S
C212 C215 1.539 . S
C213 C209 1.408 . S
C213 C212 1.404 . S
C213 H225 0.930 . S
C214 C210 1.524 . S
C214 H226 0.956 . S
C214 H227 0.961 . S
C214 H228 0.961 . S
C215 C212 1.539 . S
C215 H229 0.958 . S
C215 H230 0.961 . S
C215 H231 0.960 . S
H216 C200 0.931 . S
H217 C205 0.929 . S
H218 C206 0.960 . S
H219 C206 0.962 . S
H220 C206 0.960 . S
H221 C207 0.961 . S
H222 C207 0.961 . S
H223 C207 0.961 . S
H224 C208 0.931 . S
H225 C213 0.930 . S
H226 C214 0.956 . S
H227 C214 0.961 . S
H228 C214 0.961 . S
H229 C215 0.958 . S
H230 C215 0.961 . S
H231 C215 0.960 . S
C232 C233 1.391 . S
C232 C234 1.394 . S
C232 H248 0.931 . S
C233 C232 1.391 . S
C233 C237 1.376 . S
C234 C232 1.394 . S
C234 C235 1.369 . S
C234 C238 1.531 . S
C235 C234 1.369 . S
C235 C236 1.410 . S
C235 C243 1.503 . S
C236 C235 1.410 . S
C236 C237 1.392 . S
C236 C239 1.511 . S
C237 C233 1.376 . S
C237 C236 1.392 . S
C237 H249 0.929 . S
C238 C234 1.531 . S
C238 H250 0.960 . S
C238 H251 0.962 . S
C238 H252 0.960 . S
C239 C236 1.511 . S
C239 H253 0.961 . S
C239 H254 0.961 . S
C239 H255 0.961 . S
C240 C241 1.370 . S
C240 C242 1.363 . S
C240 H256 0.931 . S
C241 C240 1.370 . S
C241 C245 1.408 . S
C242 C240 1.363 . S
C242 C243 1.370 . S
C242 C246 1.524 . S
C243 C235 1.503 . S
C243 C242 1.370 . S
C243 C244 1.403 . S
C244 C243 1.403 . S
C244 C245 1.404 . S
C244 C247 1.539 . S
C245 C241 1.408 . S
C245 C244 1.404 . S
C245 H257 0.930 . S
C246 C242 1.524 . S
C246 H258 0.956 . S
C246 H259 0.961 . S
C246 H260 0.961 . S
C247 C244 1.539 . S
C247 H261 0.958 . S
C247 H262 0.961 . S
C247 H263 0.960 . S
H248 C232 0.931 . S
H249 C237 0.929 . S
H250 C238 0.960 . S
H251 C238 0.962 . S
H252 C238 0.960 . S
H253 C239 0.961 . S
H254 C239 0.961 . S
H255 C239 0.961 . S
H256 C240 0.931 . S
H257 C245 0.930 . S
H258 C246 0.956 . S
H259 C246 0.961 . S
H260 C246 0.961 . S
H261 C247 0.958 . S
H262 C247 0.961 . S
H263 C247 0.960 . S
C264 C265 1.391 . S
C264 C266 1.394 . S
C264 H280 0.931 . S
C265 C264 1.391 . S
C265 C269 1.376 . S
C266 C264 1.394 . S
C266 C267 1.369 . S
C266 C270 1.531 . S
C267 C266 1.369 . S
C267 C268 1.410 . S
C267 C275 1.503 . S
C268 C267 1.410 . S
C268 C269 1.392 . S
C268 C271 1.511 . S
C269 C265 1.376 . S
C269 C268 1.392 . S
C269 H281 0.929 . S
C270 C266 1.531 . S
C270 H282 0.960 . S
C270 H283 0.962 . S
C270 H284 0.960 . S
C271 C268 1.511 . S
C271 H285 0.961 . S
C271 H286 0.961 . S
C271 H287 0.961 . S
C272 C273 1.370 . S
C272 C274 1.363 . S
C272 H288 0.931 . S
C273 C272 1.370 . S
C273 C277 1.408 . S
C274 C272 1.363 . S
C274 C275 1.370 . S
C274 C278 1.524 . S
C275 C267 1.503 . S
C275 C274 1.370 . S
C275 C276 1.403 . S
C276 C275 1.403 . S
C276 C277 1.404 . S
C276 C279 1.539 . S
C277 C273 1.408 . S
C277 C276 1.404 . S
C277 H289 0.930 . S
C278 C274 1.524 . S
C278 H290 0.956 . S
C278 H291 0.961 . S
C278 H292 0.961 . S
C279 C276 1.539 . S
C279 H293 0.958 . S
C279 H294 0.961 . S
C279 H295 0.960 . S
H280 C264 0.931 . S
H281 C269 0.929 . S
H282 C270 0.960 . S
H283 C270 0.962 . S
H284 C270 0.960 . S
H285 C271 0.961 . S
H286 C271 0.961 . S
H287 C271 0.961 . S
H288 C272 0.931 . S
H289 C277 0.930 . S
H290 C278 0.956 . S
H291 C278 0.961 . S
H292 C278 0.961 . S
H293 C279 0.958 . S
H294 C279 0.961 . S
H295 C279 0.960 . S
C296 C297 1.391 . S
C296 C298 1.394 . S
C296 H312 0.931 . S
C297 C296 1.391 . S
C297 C301 1.376 . S
C298 C296 1.394 . S
C298 C299 1.369 1_554 S
C298 C302 1.531 . S
C299 C298 1.369 1_556 S
C299 C300 1.410 . S
C299 C307 1.503 . S
C300 C299 1.410 . S
C300 C301 1.392 1_556 S
C300 C303 1.511 . S
C301 C297 1.376 . S
C301 C300 1.392 1_554 S
C301 H313 0.929 . S
C302 C298 1.531 . S
C302 H314 0.960 1_554 S
C302 H315 0.962 . S
C302 H316 0.960 . S
C303 C300 1.511 . S
C303 H317 0.961 . S
C303 H318 0.961 . S
C303 H319 0.961 . S
C304 C305 1.370 . S
C304 C306 1.363 . S
C304 H320 0.931 . S
C305 C304 1.370 . S
C305 C309 1.408 . S
C306 C304 1.363 . S
C306 C307 1.370 . S
C306 C310 1.524 . S
C307 C299 1.503 . S
C307 C306 1.370 . S
C307 C308 1.403 . S
C308 C307 1.403 . S
C308 C309 1.404 . S
C308 C311 1.539 . S
C309 C305 1.408 . S
C309 C308 1.404 . S
C309 H321 0.930 . S
C310 C306 1.524 . S
C310 H322 0.956 1_556 S
C310 H323 0.961 . S
C310 H324 0.961 . S
C311 C308 1.539 . S
C311 H325 0.958 . S
C311 H326 0.961 . S
C311 H327 0.960 . S
H312 C296 0.931 . S
H313 C301 0.929 . S
H314 C302 0.960 1_556 S
H315 C302 0.962 . S
H316 C302 0.960 . S
H317 C303 0.961 . S
H318 C303 0.961 . S
H319 C303 0.961 . S
H320 C304 0.931 . S
H321 C309 0.930 . S
H322 C310 0.956 1_554 S
H323 C310 0.961 . S
H324 C310 0.961 . S
H325 C311 0.958 . S
H326 C311 0.961 . S
H327 C311 0.960 . S
C328 C329 1.391 . S
C328 C330 1.394 . S
C328 H344 0.931 . S
C329 C328 1.391 . S
C329 C333 1.376 . S
C330 C328 1.394 . S
C330 C331 1.369 . S
C330 C334 1.531 . S
C331 C330 1.369 . S
C331 C332 1.410 . S
C331 C339 1.503 . S
C332 C331 1.410 . S
C332 C333 1.392 . S
C332 C335 1.511 . S
C333 C329 1.376 . S
C333 C332 1.392 . S
C333 H345 0.929 . S
C334 C330 1.531 . S
C334 H346 0.960 . S
C334 H347 0.962 . S
C334 H348 0.960 . S
C335 C332 1.511 . S
C335 H349 0.961 . S
C335 H350 0.961 . S
C335 H351 0.961 . S
C336 C337 1.370 . S
C336 C338 1.363 . S
C336 H352 0.931 . S
C337 C336 1.370 . S
C337 C341 1.408 . S
C338 C336 1.363 . S
C338 C339 1.370 . S
C338 C342 1.524 . S
C339 C331 1.503 . S
C339 C338 1.370 . S
C339 C340 1.403 . S
C340 C339 1.403 . S
C340 C341 1.404 . S
C340 C343 1.539 . S
C341 C337 1.408 . S
C341 C340 1.404 . S
C341 H353 0.930 . S
C342 C338 1.524 . S
C342 H354 0.956 . S
C342 H355 0.961 . S
C342 H356 0.961 . S
C343 C340 1.539 . S
C343 H357 0.958 . S
C343 H358 0.961 . S
C343 H359 0.960 . S
H344 C328 0.931 . S
H345 C333 0.929 . S
H346 C334 0.960 . S
H347 C334 0.962 . S
H348 C334 0.960 . S
H349 C335 0.961 . S
H350 C335 0.961 . S
H351 C335 0.961 . S
H352 C336 0.931 . S
H353 C341 0.930 . S
H354 C342 0.956 . S
H355 C342 0.961 . S
H356 C342 0.961 . S
H357 C343 0.958 . S
H358 C343 0.961 . S
H359 C343 0.960 . S
C360 C361 1.391 . S
C360 C362 1.394 . S
C360 H376 0.931 . S
C361 C360 1.391 . S
C361 C365 1.376 . S
C362 C360 1.394 . S
C362 C363 1.369 . S
C362 C366 1.531 . S
C363 C362 1.369 . S
C363 C364 1.410 . S
C363 C371 1.503 . S
C364 C363 1.410 . S
C364 C365 1.392 . S
C364 C367 1.511 . S
C365 C361 1.376 . S
C365 C364 1.392 . S
C365 H377 0.929 . S
C366 C362 1.531 . S
C366 H378 0.960 . S
C366 H379 0.962 . S
C366 H380 0.960 . S
C367 C364 1.511 . S
C367 H381 0.961 . S
C367 H382 0.961 . S
C367 H383 0.961 . S
C368 C369 1.370 . S
C368 C370 1.363 . S
C368 H384 0.931 . S
C369 C368 1.370 . S
C369 C373 1.408 . S
C370 C368 1.363 . S
C370 C371 1.370 . S
C370 C374 1.524 . S
C371 C363 1.503 . S
C371 C370 1.370 . S
C371 C372 1.403 . S
C372 C371 1.403 . S
C372 C373 1.404 . S
C372 C375 1.539 . S
C373 C369 1.408 . S
C373 C372 1.404 . S
C373 H385 0.930 . S
C374 C370 1.524 . S
C374 H386 0.956 . S
C374 H387 0.961 . S
C374 H388 0.961 . S
C375 C372 1.539 . S
C375 H389 0.958 . S
C375 H390 0.961 . S
C375 H391 0.960 . S
H376 C360 0.931 . S
H377 C365 0.929 . S
H378 C366 0.960 . S
H379 C366 0.962 . S
H380 C366 0.960 . S
H381 C367 0.961 . S
H382 C367 0.961 . S
H383 C367 0.961 . S
H384 C368 0.931 . S
H385 C373 0.930 . S
H386 C374 0.956 . S
H387 C374 0.961 . S
H388 C374 0.961 . S
H389 C375 0.958 . S
H390 C375 0.961 . S
H391 C375 0.960 . S
C392 C393 1.391 . S
C392 C394 1.394 . S
C392 H408 0.931 . S
C393 C392 1.391 . S
C393 C397 1.376 . S
C394 C392 1.394 . S
C394 C395 1.369 . S
C394 C398 1.531 . S
C395 C394 1.369 . S
C395 C396 1.410 . S
C395 C403 1.503 . S
C396 C395 1.410 . S
C396 C397 1.392 . S
C396 C399 1.511 . S
C397 C393 1.376 . S
C397 C396 1.392 . S
C397 H409 0.929 . S
C398 C394 1.531 . S
C398 H410 0.960 . S
C398 H411 0.962 . S
C398 H412 0.960 . S
C399 C396 1.511 . S
C399 H413 0.961 . S
C399 H414 0.961 . S
C399 H415 0.961 . S
C400 C401 1.370 . S
C400 C402 1.363 . S
C400 H416 0.931 . S
C401 C400 1.370 . S
C401 C405 1.408 . S
C402 C400 1.363 . S
C402 C403 1.370 . S
C402 C406 1.524 . S
C403 C395 1.503 . S
C403 C402 1.370 . S
C403 C404 1.403 . S
C404 C403 1.403 . S
C404 C405 1.404 . S
C404 C407 1.539 . S
C405 C401 1.408 . S
C405 C404 1.404 . S
C405 H417 0.930 . S
C406 C402 1.524 . S
C406 H418 0.956 . S
C406 H419 0.961 . S
C406 H420 0.961 . S
C407 C404 1.539 . S
C407 H421 0.958 . S
C407 H422 0.961 . S
C407 H423 0.960 . S
H408 C392 0.931 . S
H409 C397 0.929 . S
H410 C398 0.960 . S
H411 C398 0.962 . S
H412 C398 0.960 . S
H413 C399 0.961 . S
H414 C399 0.961 . S
H415 C399 0.961 . S
H416 C400 0.931 . S
H417 C405 0.930 . S
H418 C406 0.956 . S
H419 C406 0.961 . S
H420 C406 0.961 . S
H421 C407 0.958 . S
H422 C407 0.961 . S
H423 C407 0.960 . S
C424 C425 1.391 . S
C424 C426 1.394 . S
C424 H440 0.931 . S
C425 C424 1.391 . S
C425 C429 1.376 . S
C426 C424 1.394 . S
C426 C427 1.369 . S
C426 C430 1.531 . S
C427 C426 1.369 . S
C427 C428 1.410 . S
C427 C435 1.503 . S
C428 C427 1.410 . S
C428 C429 1.392 . S
C428 C431 1.511 . S
C429 C425 1.376 . S
C429 C428 1.392 . S
C429 H441 0.929 . S
C430 C426 1.531 . S
C430 H442 0.960 . S
C430 H443 0.962 . S
C430 H444 0.960 . S
C431 C428 1.511 . S
C431 H445 0.961 . S
C431 H446 0.961 . S
C431 H447 0.961 . S
C432 C433 1.370 . S
C432 C434 1.363 . S
C432 H448 0.931 . S
C433 C432 1.370 . S
C433 C437 1.408 . S
C434 C432 1.363 . S
C434 C435 1.370 . S
C434 C438 1.524 . S
C435 C427 1.503 . S
C435 C434 1.370 . S
C435 C436 1.403 . S
C436 C435 1.403 . S
C436 C437 1.404 . S
C436 C439 1.539 . S
C437 C433 1.408 . S
C437 C436 1.404 . S
C437 H449 0.930 . S
C438 C434 1.524 . S
C438 H450 0.956 . S
C438 H451 0.961 . S
C438 H452 0.961 . S
C439 C436 1.539 . S
C439 H453 0.958 . S
C439 H454 0.961 . S
C439 H455 0.960 . S
H440 C424 0.931 . S
H441 C429 0.929 . S
H442 C430 0.960 . S
H443 C430 0.962 . S
H444 C430 0.960 . S
H445 C431 0.961 . S
H446 C431 0.961 . S
H447 C431 0.961 . S
H448 C432 0.931 . S
H449 C437 0.930 . S
H450 C438 0.956 . S
H451 C438 0.961 . S
H452 C438 0.961 . S
H453 C439 0.958 . S
H454 C439 0.961 . S
H455 C439 0.960 . S
C456 C457 1.391 . S
C456 C458 1.394 . S
C456 H472 0.931 . S
C457 C456 1.391 . S
C457 C461 1.376 . S
C458 C456 1.394 . S
C458 C459 1.369 . S
C458 C462 1.531 . S
C459 C458 1.369 . S
C459 C460 1.410 . S
C459 C467 1.503 . S
C460 C459 1.410 . S
C460 C461 1.392 . S
C460 C463 1.511 . S
C461 C457 1.376 . S
C461 C460 1.392 . S
C461 H473 0.929 . S
C462 C458 1.531 . S
C462 H474 0.960 . S
C462 H475 0.962 . S
C462 H476 0.960 . S
C463 C460 1.511 . S
C463 H477 0.961 . S
C463 H478 0.961 . S
C463 H479 0.961 . S
C464 C465 1.370 . S
C464 C466 1.363 . S
C464 H480 0.931 . S
C465 C464 1.370 . S
C465 C469 1.408 . S
C466 C464 1.363 . S
C466 C467 1.370 . S
C466 C470 1.524 . S
C467 C459 1.503 . S
C467 C466 1.370 . S
C467 C468 1.403 . S
C468 C467 1.403 . S
C468 C469 1.404 . S
C468 C471 1.539 . S
C469 C465 1.408 . S
C469 C468 1.404 . S
C469 H481 0.930 . S
C470 C466 1.524 . S
C470 H482 0.956 . S
C470 H483 0.961 . S
C470 H484 0.961 . S
C471 C468 1.539 . S
C471 H485 0.958 . S
C471 H486 0.961 . S
C471 H487 0.960 . S
H472 C456 0.931 . S
H473 C461 0.929 . S
H474 C462 0.960 . S
H475 C462 0.962 . S
H476 C462 0.960 . S
H477 C463 0.961 . S
H478 C463 0.961 . S
H479 C463 0.961 . S
H480 C464 0.931 . S
H481 C469 0.930 . S
H482 C470 0.956 . S
H483 C470 0.961 . S
H484 C470 0.961 . S
H485 C471 0.958 . S
H486 C471 0.961 . S
H487 C471 0.960 . S
C488 C489 1.391 . S
C488 C490 1.394 . S
C488 H504 0.931 . S
C489 C488 1.391 . S
C489 C493 1.376 . S
C490 C488 1.394 . S
C490 C491 1.369 . S
C490 C494 1.531 . S
C491 C490 1.369 . S
C491 C492 1.410 . S
C491 C499 1.503 . S
C492 C491 1.410 . S
C492 C493 1.392 . S
C492 C495 1.511 . S
C493 C489 1.376 . S
C493 C492 1.392 . S
C493 H505 0.929 . S
C494 C490 1.531 . S
C494 H506 0.960 . S
C494 H507 0.962 . S
C494 H508 0.960 . S
C495 C492 1.511 . S
C495 H509 0.961 . S
C495 H510 0.961 . S
C495 H511 0.961 . S
C496 C497 1.370 . S
C496 C498 1.363 . S
C496 H512 0.931 . S
C497 C496 1.370 . S
C497 C501 1.408 . S
C498 C496 1.363 . S
C498 C499 1.370 . S
C498 C502 1.524 . S
C499 C491 1.503 . S
C499 C498 1.370 . S
C499 C500 1.403 . S
C500 C499 1.403 . S
C500 C501 1.404 . S
C500 C503 1.539 . S
C501 C497 1.408 . S
C501 C500 1.404 . S
C501 H513 0.930 . S
C502 C498 1.524 . S
C502 H514 0.956 . S
C502 H515 0.961 . S
C502 H516 0.961 . S
C503 C500 1.539 . S
C503 H517 0.958 . S
C503 H518 0.961 . S
C503 H519 0.960 . S
H504 C488 0.931 . S
H505 C493 0.929 . S
H506 C494 0.960 . S
H507 C494 0.962 . S
H508 C494 0.960 . S
H509 C495 0.961 . S
H510 C495 0.961 . S
H511 C495 0.961 . S
H512 C496 0.931 . S
H513 C501 0.930 . S
H514 C502 0.956 . S
H515 C502 0.961 . S
H516 C502 0.961 . S
H517 C503 0.958 . S
H518 C503 0.961 . S
H519 C503 0.960 . S
C520 C521 1.391 . S
C520 C522 1.394 . S
C520 H536 0.931 . S
C521 C520 1.391 . S
C521 C525 1.376 . S
C522 C520 1.394 . S
C522 C523 1.369 . S
C522 C526 1.531 . S
C523 C522 1.369 . S
C523 C524 1.410 . S
C523 C531 1.503 . S
C524 C523 1.410 . S
C524 C525 1.392 . S
C524 C527 1.511 . S
C525 C521 1.376 . S
C525 C524 1.392 . S
C525 H537 0.929 . S
C526 C522 1.531 . S
C526 H538 0.960 . S
C526 H539 0.962 . S
C526 H540 0.960 . S
C527 C524 1.511 . S
C527 H541 0.961 . S
C527 H542 0.961 . S
C527 H543 0.961 . S
C528 C529 1.372 . S
C528 C530 1.363 . S
C528 H544 0.931 . S
C529 C528 1.372 . S
C529 C533 1.404 1_554 S
C530 C528 1.363 . S
C530 C531 1.370 1_554 S
C530 C534 1.524 . S
C531 C523 1.503 . S
C531 C530 1.370 1_556 S
C531 C532 1.403 . S
C532 C531 1.403 . S
C532 C533 1.404 . S
C532 C535 1.539 . S
C533 C529 1.404 1_556 S
C533 C532 1.404 . S
C533 H545 0.930 . S
C534 C530 1.524 . S
C534 H546 0.956 . S
C534 H547 0.961 . S
C534 H548 0.961 . S
C535 C532 1.539 . S
C535 H549 0.958 . S
C535 H550 0.961 . S
C535 H551 0.960 . S
H536 C520 0.931 . S
H537 C525 0.929 . S
H538 C526 0.960 . S
H539 C526 0.962 . S
H540 C526 0.960 . S
H541 C527 0.961 . S
H542 C527 0.961 . S
H543 C527 0.961 . S
H544 C528 0.931 . S
H545 C533 0.930 . S
H546 C534 0.956 . S
H547 C534 0.961 . S
H548 C534 0.961 . S
H549 C535 0.958 . S
H550 C535 0.961 . S
H551 C535 0.960 . S
C552 C553 1.391 . S
C552 C554 1.394 . S
C552 H568 0.931 . S
C553 C552 1.391 . S
C553 C557 1.376 . S
C554 C552 1.394 . S
C554 C555 1.369 . S
C554 C558 1.531 . S
C555 C554 1.369 . S
C555 C556 1.410 . S
C555 C563 1.503 . S
C556 C555 1.410 . S
C556 C557 1.392 . S
C556 C559 1.511 . S
C557 C553 1.376 . S
C557 C556 1.392 . S
C557 H569 0.929 . S
C558 C554 1.531 . S
C558 H570 0.960 . S
C558 H571 0.962 . S
C558 H572 0.960 . S
C559 C556 1.511 . S
C559 H573 0.961 . S
C559 H574 0.961 . S
C559 H575 0.961 . S
C560 C561 1.370 . S
C560 C562 1.363 . S
C560 H576 0.931 . S
C561 C560 1.370 . S
C561 C565 1.408 . S
C562 C560 1.363 . S
C562 C563 1.370 . S
C562 C566 1.524 . S
C563 C555 1.503 . S
C563 C562 1.370 . S
C563 C564 1.403 . S
C564 C563 1.403 . S
C564 C565 1.404 . S
C564 C567 1.539 . S
C565 C561 1.408 . S
C565 C564 1.404 . S
C565 H577 0.930 . S
C566 C562 1.524 . S
C566 H578 0.956 . S
C566 H579 0.961 . S
C566 H580 0.961 . S
C567 C564 1.539 . S
C567 H581 0.958 . S
C567 H582 0.961 . S
C567 H583 0.960 . S
H568 C552 0.931 . S
H569 C557 0.929 . S
H570 C558 0.960 . S
H571 C558 0.962 . S
H572 C558 0.960 . S
H573 C559 0.961 . S
H574 C559 0.961 . S
H575 C559 0.961 . S
H576 C560 0.931 . S
H577 C565 0.930 . S
H578 C566 0.956 . S
H579 C566 0.961 . S
H580 C566 0.961 . S
H581 C567 0.958 . S
H582 C567 0.961 . S
H583 C567 0.960 . S
C584 C585 1.391 . S
C584 C586 1.394 . S
C584 H600 0.931 . S
C585 C584 1.391 . S
C585 C589 1.376 . S
C586 C584 1.394 . S
C586 C587 1.369 . S
C586 C590 1.531 . S
C587 C586 1.369 . S
C587 C588 1.410 . S
C587 C595 1.503 . S
C588 C587 1.410 . S
C588 C589 1.392 . S
C588 C591 1.511 . S
C589 C585 1.376 . S
C589 C588 1.392 . S
C589 H601 0.929 . S
C590 C586 1.531 . S
C590 H602 0.960 1_556 S
C590 H603 0.962 . S
C590 H604 0.960 . S
C591 C588 1.511 . S
C591 H605 0.961 . S
C591 H606 0.961 . S
C591 H607 0.961 . S
C592 C593 1.370 . S
C592 C594 1.363 1_554 S
C592 H608 0.931 . S
C593 C592 1.370 . S
C593 C597 1.408 . S
C594 C592 1.363 1_556 S
C594 C595 1.370 . S
C594 C598 1.524 . S
C595 C587 1.503 . S
C595 C594 1.370 . S
C595 C596 1.403 1_556 S
C596 C595 1.403 1_554 S
C596 C597 1.404 . S
C596 C599 1.539 . S
C597 C593 1.408 . S
C597 C596 1.404 . S
C597 H609 0.930 . S
C598 C594 1.524 . S
C598 H610 0.956 . S
C598 H611 0.961 . S
C598 H612 0.961 . S
C599 C596 1.539 . S
C599 H613 0.958 . S
C599 H614 0.961 . S
C599 H615 0.960 1_554 S
H600 C584 0.931 . S
H601 C589 0.929 . S
H602 C590 0.960 1_554 S
H603 C590 0.962 . S
H604 C590 0.960 . S
H605 C591 0.961 . S
H606 C591 0.961 . S
H607 C591 0.961 . S
H608 C592 0.931 . S
H609 C597 0.930 . S
H610 C598 0.956 . S
H611 C598 0.961 . S
H612 C598 0.961 . S
H613 C599 0.958 . S
H614 C599 0.961 . S
H615 C599 0.960 1_556 S
C616 C617 1.391 . S
C616 C618 1.394 . S
C616 H632 0.931 . S
C617 C616 1.391 . S
C617 C621 1.376 . S
C618 C616 1.394 . S
C618 C619 1.369 . S
C618 C622 1.531 . S
C619 C618 1.369 . S
C619 C620 1.410 . S
C619 C627 1.503 . S
C620 C619 1.410 . S
C620 C621 1.392 . S
C620 C623 1.511 . S
C621 C617 1.376 . S
C621 C620 1.392 . S
C621 H633 0.929 . S
C622 C618 1.531 . S
C622 H634 0.960 . S
C622 H635 0.962 . S
C622 H636 0.960 . S
C623 C620 1.511 . S
C623 H637 0.961 . S
C623 H638 0.961 . S
C623 H639 0.961 . S
C624 C625 1.370 . S
C624 C626 1.363 . S
C624 H640 0.931 . S
C625 C624 1.370 . S
C625 C629 1.408 . S
C626 C624 1.363 . S
C626 C627 1.370 . S
C626 C630 1.524 . S
C627 C619 1.503 . S
C627 C626 1.370 . S
C627 C628 1.403 . S
C628 C627 1.403 . S
C628 C629 1.404 . S
C628 C631 1.539 . S
C629 C625 1.408 . S
C629 C628 1.404 . S
C629 H641 0.930 . S
C630 C626 1.524 . S
C630 H642 0.956 . S
C630 H643 0.961 . S
C630 H644 0.961 . S
C631 C628 1.539 . S
C631 H645 0.958 . S
C631 H646 0.961 . S
C631 H647 0.960 . S
H632 C616 0.931 . S
H633 C621 0.929 . S
H634 C622 0.960 . S
H635 C622 0.962 . S
H636 C622 0.960 . S
H637 C623 0.961 . S
H638 C623 0.961 . S
H639 C623 0.961 . S
H640 C624 0.931 . S
H641 C629 0.930 . S
H642 C630 0.956 . S
H643 C630 0.961 . S
H644 C630 0.961 . S
H645 C631 0.958 . S
H646 C631 0.961 . S
H647 C631 0.960 . S
C648 C649 1.391 . S
C648 C650 1.394 . S
C648 H664 0.931 . S
C649 C648 1.391 . S
C649 C653 1.376 . S
C650 C648 1.394 . S
C650 C651 1.369 . S
C650 C654 1.531 . S
C651 C650 1.369 . S
C651 C652 1.410 . S
C651 C659 1.503 . S
C652 C651 1.410 . S
C652 C653 1.392 . S
C652 C655 1.511 . S
C653 C649 1.376 . S
C653 C652 1.392 . S
C653 H665 0.929 . S
C654 C650 1.531 . S
C654 H666 0.960 . S
C654 H667 0.962 . S
C654 H668 0.960 . S
C655 C652 1.511 . S
C655 H669 0.961 . S
C655 H670 0.961 . S
C655 H671 0.961 . S
C656 C657 1.370 . S
C656 C658 1.363 . S
C656 H672 0.931 . S
C657 C656 1.370 . S
C657 C661 1.408 . S
C658 C656 1.363 . S
C658 C659 1.370 . S
C658 C662 1.524 . S
C659 C651 1.503 . S
C659 C658 1.370 . S
C659 C660 1.403 . S
C660 C659 1.403 . S
C660 C661 1.404 . S
C660 C663 1.539 . S
C661 C657 1.408 . S
C661 C660 1.404 . S
C661 H673 0.930 . S
C662 C658 1.524 . S
C662 H674 0.956 . S
C662 H675 0.961 . S
C662 H676 0.961 . S
C663 C660 1.539 . S
C663 H677 0.958 . S
C663 H678 0.961 . S
C663 H679 0.960 . S
H664 C648 0.931 . S
H665 C653 0.929 . S
H666 C654 0.960 . S
H667 C654 0.962 . S
H668 C654 0.960 . S
H669 C655 0.961 . S
H670 C655 0.961 . S
H671 C655 0.961 . S
H672 C656 0.931 . S
H673 C661 0.930 . S
H674 C662 0.956 . S
H675 C662 0.961 . S
H676 C662 0.961 . S
H677 C663 0.958 . S
H678 C663 0.961 . S
H679 C663 0.960 . S
C680 C681 1.391 . S
C680 C682 1.394 . S
C680 H696 0.931 . S
C681 C680 1.391 . S
C681 C685 1.376 . S
C682 C680 1.394 . S
C682 C683 1.369 . S
C682 C686 1.531 . S
C683 C682 1.369 . S
C683 C684 1.410 . S
C683 C691 1.503 . S
C684 C683 1.410 . S
C684 C685 1.392 . S
C684 C687 1.511 . S
C685 C681 1.376 . S
C685 C684 1.392 . S
C685 H697 0.929 . S
C686 C682 1.531 . S
C686 H698 0.960 . S
C686 H699 0.962 . S
C686 H700 0.960 . S
C687 C684 1.511 . S
C687 H701 0.961 . S
C687 H702 0.961 . S
C687 H703 0.961 . S
C688 C689 1.370 . S
C688 C690 1.363 . S
C688 H704 0.931 . S
C689 C688 1.370 . S
C689 C693 1.408 . S
C690 C688 1.363 . S
C690 C691 1.370 . S
C690 C694 1.524 . S
C691 C683 1.503 . S
C691 C690 1.370 . S
C691 C692 1.403 . S
C692 C691 1.403 . S
C692 C693 1.404 . S
C692 C695 1.539 . S
C693 C689 1.408 . S
C693 C692 1.404 . S
C693 H705 0.930 . S
C694 C690 1.524 . S
C694 H706 0.956 . S
C694 H707 0.961 . S
C694 H708 0.961 . S
C695 C692 1.539 . S
C695 H709 0.958 . S
C695 H710 0.961 . S
C695 H711 0.960 . S
H696 C680 0.931 . S
H697 C685 0.929 . S
H698 C686 0.960 . S
H699 C686 0.962 . S
H700 C686 0.960 . S
H701 C687 0.961 . S
H702 C687 0.961 . S
H703 C687 0.961 . S
H704 C688 0.931 . S
H705 C693 0.930 . S
H706 C694 0.956 . S
H707 C694 0.961 . S
H708 C694 0.961 . S
H709 C695 0.958 . S
H710 C695 0.961 . S
H711 C695 0.960 . S
C712 C713 1.391 . S
C712 C714 1.394 . S
C712 H728 0.931 . S
C713 C712 1.391 . S
C713 C717 1.376 . S
C714 C712 1.394 . S
C714 C715 1.369 . S
C714 C718 1.531 . S
C715 C714 1.369 . S
C715 C716 1.410 . S
C715 C723 1.503 . S
C716 C715 1.410 . S
C716 C717 1.392 . S
C716 C719 1.511 . S
C717 C713 1.376 . S
C717 C716 1.392 . S
C717 H729 0.929 . S
C718 C714 1.531 . S
C718 H730 0.960 . S
C718 H731 0.962 . S
C718 H732 0.960 . S
C719 C716 1.511 . S
C719 H733 0.961 . S
C719 H734 0.961 . S
C719 H735 0.961 . S
C720 C721 1.370 . S
C720 C722 1.363 . S
C720 H736 0.931 . S
C721 C720 1.370 . S
C721 C725 1.408 . S
C722 C720 1.363 . S
C722 C723 1.370 . S
C722 C726 1.524 . S
C723 C715 1.503 . S
C723 C722 1.370 . S
C723 C724 1.403 . S
C724 C723 1.403 . S
C724 C725 1.404 . S
C724 C727 1.539 . S
C725 C721 1.408 . S
C725 C724 1.404 . S
C725 H737 0.930 . S
C726 C722 1.524 . S
C726 H738 0.956 . S
C726 H739 0.961 . S
C726 H740 0.961 . S
C727 C724 1.539 . S
C727 H741 0.958 . S
C727 H742 0.961 . S
C727 H743 0.960 . S
H728 C712 0.931 . S
H729 C717 0.929 . S
H730 C718 0.960 . S
H731 C718 0.962 . S
H732 C718 0.960 . S
H733 C719 0.961 . S
H734 C719 0.961 . S
H735 C719 0.961 . S
H736 C720 0.931 . S
H737 C725 0.930 . S
H738 C726 0.956 . S
H739 C726 0.961 . S
H740 C726 0.961 . S
H741 C727 0.958 . S
H742 C727 0.961 . S
H743 C727 0.960 . S
C744 C745 1.391 . S
C744 C746 1.394 . S
C744 H760 0.931 . S
C745 C744 1.391 . S
C745 C749 1.376 . S
C746 C744 1.394 . S
C746 C747 1.369 . S
C746 C750 1.531 . S
C747 C746 1.369 . S
C747 C748 1.410 . S
C747 C755 1.503 1_545 S
C748 C747 1.410 . S
C748 C749 1.392 . S
C748 C751 1.511 . S
C749 C745 1.376 . S
C749 C748 1.392 . S
C749 H761 0.929 . S
C750 C746 1.531 . S
C750 H762 0.920 1_544 S
C750 H763 0.962 . S
C750 H764 0.960 1_554 S
C751 C748 1.511 . S
C751 H765 0.961 . S
C751 H766 0.961 1_545 S
C751 H767 0.961 . S
C752 C753 1.370 . S
C752 C754 1.363 . S
C752 H768 0.931 . S
C753 C752 1.370 . S
C753 C757 1.408 1_554 S
C754 C752 1.363 . S
C754 C755 1.370 . S
C754 C758 1.524 . S
C755 C747 1.503 1_565 S
C755 C754 1.370 . S
C755 C756 1.403 1_554 S
C756 C755 1.403 1_556 S
C756 C757 1.404 . S
C756 C759 1.539 . S
C757 C753 1.408 1_556 S
C757 C756 1.404 . S
C757 H769 0.930 . S
C758 C754 1.524 . S
C758 H770 0.956 . S
C758 H771 0.961 . S
C758 H772 0.961 . S
C759 C756 1.539 . S
C759 H773 0.958 . S
C759 H774 0.961 . S
C759 H775 0.960 1_565 S
H760 C744 0.931 . S
H761 C749 0.929 . S
H762 C750 0.920 1_566 S
H763 C750 0.962 . S
H764 C750 0.960 1_556 S
H765 C751 0.961 . S
H766 C751 0.961 1_565 S
H767 C751 0.961 . S
H768 C752 0.931 . S
H769 C757 0.930 . S
H770 C758 0.956 . S
H771 C758 0.961 . S
H772 C758 0.961 . S
H773 C759 0.958 . S
H774 C759 0.961 . S
H775 C759 0.960 1_545 S
C776 C777 1.391 . S
C776 C778 1.394 . S
C776 H792 0.931 . S
C777 C776 1.391 . S
C777 C781 1.376 . S
C778 C776 1.394 . S
C778 C779 1.369 . S
C778 C782 1.531 . S
C779 C778 1.369 . S
C779 C780 1.410 . S
C779 C787 1.503 . S
C780 C779 1.410 . S
C780 C781 1.392 . S
C780 C783 1.511 . S
C781 C777 1.376 . S
C781 C780 1.392 . S
C781 H793 0.929 . S
C782 C778 1.531 . S
C782 H794 0.960 . S
C782 H795 0.962 . S
C782 H796 0.960 . S
C783 C780 1.511 . S
C783 H797 0.961 . S
C783 H798 0.961 . S
C783 H799 0.961 . S
C784 C785 1.370 . S
C784 C786 1.363 . S
C784 H800 0.931 . S
C785 C784 1.370 . S
C785 C789 1.408 . S
C786 C784 1.363 . S
C786 C787 1.370 . S
C786 C790 1.524 . S
C787 C779 1.503 . S
C787 C786 1.370 . S
C787 C788 1.403 . S
C788 C787 1.403 . S
C788 C789 1.404 . S
C788 C791 1.539 . S
C789 C785 1.408 . S
C789 C788 1.404 . S
C789 H801 0.930 . S
C790 C786 1.524 . S
C790 H802 0.956 . S
C790 H803 0.961 . S
C790 H804 0.961 . S
C791 C788 1.539 . S
C791 H805 0.958 . S
C791 H806 0.961 . S
C791 H807 0.960 . S
H792 C776 0.931 . S
H793 C781 0.929 . S
H794 C782 0.960 . S
H795 C782 0.962 . S
H796 C782 0.960 . S
H797 C783 0.961 . S
H798 C783 0.961 . S
H799 C783 0.961 . S
H800 C784 0.931 . S
H801 C789 0.930 . S
H802 C790 0.956 . S
H803 C790 0.961 . S
H804 C790 0.961 . S
H805 C791 0.958 . S
H806 C791 0.961 . S
H807 C791 0.960 . S
C808 C809 1.391 . S
C808 C810 1.394 . S
C808 H824 0.931 . S
C809 C808 1.391 . S
C809 C813 1.376 . S
C810 C808 1.394 . S
C810 C811 1.369 . S
C810 C814 1.531 . S
C811 C810 1.369 . S
C811 C812 1.410 . S
C811 C819 1.503 1_455 S
C812 C811 1.410 . S
C812 C813 1.392 . S
C812 C815 1.511 . S
C813 C809 1.376 . S
C813 C812 1.392 . S
C813 H825 0.929 . S
C814 C810 1.531 . S
C814 H826 0.982 . S
C814 H827 0.962 . S
C814 H828 0.960 . S
C815 C812 1.511 . S
C815 H829 0.961 . S
C815 H830 0.961 1_455 S
C815 H831 0.961 . S
C816 C817 1.370 . S
C816 C818 1.363 . S
C816 H832 0.931 . S
C817 C816 1.370 . S
C817 C821 1.408 . S
C818 C816 1.363 . S
C818 C819 1.370 . S
C818 C822 1.524 . S
C819 C811 1.503 1_655 S
C819 C818 1.370 . S
C819 C820 1.403 . S
C820 C819 1.403 . S
C820 C821 1.404 . S
C820 C823 1.539 . S
C821 C817 1.408 . S
C821 C820 1.404 . S
C821 H833 0.930 . S
C822 C818 1.524 . S
C822 H834 0.956 . S
C822 H835 0.961 . S
C822 H836 0.961 . S
C823 C820 1.539 . S
C823 H837 0.958 . S
C823 H838 0.961 . S
C823 H839 0.956 1_655 S
H824 C808 0.931 . S
H825 C813 0.929 . S
H826 C814 0.982 . S
H827 C814 0.962 . S
H828 C814 0.960 . S
H829 C815 0.961 . S
H830 C815 0.961 1_655 S
H831 C815 0.961 . S
H832 C816 0.931 . S
H833 C821 0.930 . S
H834 C822 0.956 . S
H835 C822 0.961 . S
H836 C822 0.961 . S
H837 C823 0.958 . S
H838 C823 0.961 . S
H839 C823 0.956 1_455 S
C840 C841 1.391 . S
C840 C842 1.394 . S
C840 H856 0.931 . S
C841 C840 1.391 . S
C841 C845 1.376 . S
C842 C840 1.394 . S
C842 C843 1.369 . S
C842 C846 1.531 . S
C843 C842 1.369 . S
C843 C844 1.410 . S
C843 C851 1.503 1_565 S
C844 C843 1.410 . S
C844 C845 1.392 . S
C844 C847 1.511 . S
C845 C841 1.376 . S
C845 C844 1.392 . S
C845 H857 0.929 . S
C846 C842 1.531 . S
C846 H858 0.959 1_565 S
C846 H859 0.962 . S
C846 H860 0.960 . S
C847 C844 1.511 . S
C847 H861 0.961 . S
C847 H862 0.961 1_565 S
C847 H863 0.961 . S
C848 C849 1.370 . S
C848 C850 1.363 . S
C848 H864 0.931 . S
C849 C848 1.370 . S
C849 C853 1.408 . S
C850 C848 1.363 . S
C850 C851 1.370 . S
C850 C854 1.524 . S
C851 C843 1.503 1_545 S
C851 C850 1.370 . S
C851 C852 1.403 . S
C852 C851 1.403 . S
C852 C853 1.404 . S
C852 C855 1.539 . S
C853 C849 1.408 . S
C853 C852 1.404 . S
C853 H865 0.930 . S
C854 C850 1.524 . S
C854 H866 0.956 . S
C854 H867 0.973 . S
C854 H868 0.961 . S
C855 C852 1.539 . S
C855 H869 0.958 . S
C855 H870 0.961 . S
C855 H871 0.960 1_545 S
H856 C840 0.931 . S
H857 C845 0.929 . S
H858 C846 0.959 1_545 S
H859 C846 0.962 . S
H860 C846 0.960 . S
H861 C847 0.961 . S
H862 C847 0.961 1_545 S
H863 C847 0.961 . S
H864 C848 0.931 . S
H865 C853 0.930 . S
H866 C854 0.956 . S
H867 C854 0.973 . S
H868 C854 0.961 . S
H869 C855 0.958 . S
H870 C855 0.961 . S
H871 C855 0.960 1_565 S
C872 C873 1.391 . S
C872 C874 1.394 . S
C872 H888 0.931 . S
C873 C872 1.391 . S
C873 C877 1.376 . S
C874 C872 1.394 . S
C874 C875 1.369 . S
C874 C878 1.531 . S
C875 C874 1.369 . S
C875 C876 1.410 . S
C875 C883 1.503 . S
C876 C875 1.410 . S
C876 C877 1.392 . S
C876 C879 1.511 . S
C877 C873 1.376 . S
C877 C876 1.392 . S
C877 H889 0.929 . S
C878 C874 1.531 . S
C878 H890 0.960 . S
C878 H891 0.962 . S
C878 H892 0.960 . S
C879 C876 1.511 . S
C879 H893 0.961 . S
C879 H894 0.961 . S
C879 H895 0.961 . S
C880 C881 1.370 . S
C880 C882 1.363 . S
C880 H896 0.931 . S
C881 C880 1.370 . S
C881 C885 1.408 . S
C882 C880 1.363 . S
C882 C883 1.370 . S
C882 C886 1.524 . S
C883 C875 1.503 . S
C883 C882 1.370 . S
C883 C884 1.403 . S
C884 C883 1.403 . S
C884 C885 1.404 . S
C884 C887 1.539 . S
C885 C881 1.408 . S
C885 C884 1.404 . S
C885 H897 0.930 . S
C886 C882 1.524 . S
C886 H898 0.956 . S
C886 H899 0.961 . S
C886 H900 0.961 . S
C887 C884 1.539 . S
C887 H901 0.958 . S
C887 H902 0.961 . S
C887 H903 0.960 . S
H888 C872 0.931 . S
H889 C877 0.929 . S
H890 C878 0.960 . S
H891 C878 0.962 . S
H892 C878 0.960 . S
H893 C879 0.961 . S
H894 C879 0.961 . S
H895 C879 0.961 . S
H896 C880 0.931 . S
H897 C885 0.930 . S
H898 C886 0.956 . S
H899 C886 0.961 . S
H900 C886 0.961 . S
H901 C887 0.958 . S
H902 C887 0.961 . S
H903 C887 0.960 . S
C904 C905 1.391 . S
C904 C906 1.394 . S
C904 H920 0.931 . S
C905 C904 1.391 . S
C905 C909 1.376 . S
C906 C904 1.394 . S
C906 C907 1.369 . S
C906 C910 1.531 . S
C907 C906 1.369 . S
C907 C908 1.410 . S
C907 C915 1.503 1_455 S
C908 C907 1.410 . S
C908 C909 1.392 . S
C908 C911 1.511 . S
C909 C905 1.376 . S
C909 C908 1.392 . S
C909 H921 0.929 . S
C910 C906 1.531 . S
C910 H922 0.960 1_455 S
C910 H923 0.962 . S
C910 H924 0.960 1_556 S
C911 C908 1.511 . S
C911 H925 0.961 . S
C911 H926 0.958 1_455 S
C911 H927 0.961 . S
C912 C913 1.370 . S
C912 C914 1.363 . S
C912 H928 0.931 . S
C913 C912 1.370 . S
C913 C917 1.408 . S
C914 C912 1.363 . S
C914 C915 1.370 . S
C914 C918 1.524 . S
C915 C907 1.503 1_655 S
C915 C914 1.370 . S
C915 C916 1.403 . S
C916 C915 1.403 . S
C916 C917 1.404 . S
C916 C919 1.539 . S
C917 C913 1.408 . S
C917 C916 1.404 . S
C917 H929 0.930 . S
C918 C914 1.524 . S
C918 H930 0.956 . S
C918 H931 0.961 1_655 S
C918 H932 0.961 . S
C919 C916 1.539 . S
C919 H933 0.958 . S
C919 H934 0.961 . S
C919 H935 0.991 . S
H920 C904 0.931 . S
H921 C909 0.929 . S
H922 C910 0.960 1_655 S
H923 C910 0.962 . S
H924 C910 0.960 1_554 S
H925 C911 0.961 . S
H926 C911 0.958 1_655 S
H927 C911 0.961 . S
H928 C912 0.931 . S
H929 C917 0.930 . S
H930 C918 0.956 . S
H931 C918 0.961 1_455 S
H932 C918 0.961 . S
H933 C919 0.958 . S
H934 C919 0.961 . S
H935 C919 0.991 . S
C169 C8 1.568 . S
C177 C148 1.568 . S
C201 C22 1.591 . S
C209 C162 1.575 . S
C233 C92 1.552 . S
C241 C36 1.567 . S
C265 C50 1.584 . S
C273 C106 1.589 . S
C297 C120 1.584 . S
C305 C64 1.589 . S
C329 C134 1.555 . S
C337 C78 1.567 1_554 S
C361 C119 1.054 . S
C369 C7 1.072 . S
C393 C21 1.059 . S
C401 C133 1.079 . S
C425 C147 1.045 . S
C433 C35 1.078 . S
C457 C49 1.091 . S
C465 C161 1.062 . S
C489 C63 1.089 . S
C497 C91 1.067 . S
C521 C77 1.092 . S
C529 C105 1.063 . S
C553 C151 1.396 . S
C561 C11 1.400 . S
C585 C165 1.396 . S
C593 C25 1.400 . S
C617 C95 1.397 1_554 S
C625 C39 1.400 . S
C649 C53 1.396 . S
C657 C109 1.400 . S
C681 C67 1.396 . S
C689 C123 1.400 . S
C713 C137 1.396 . S
C721 C81 1.400 . S
C745 C13 1.227 . S
C753 C111 1.180 . S
C777 C125 1.153 . S
C785 C27 1.206 . S
C809 C139 1.211 . S
C817 C41 1.194 . S
C841 C55 1.225 . S
C849 C153 1.184 . S
C873 C69 1.152 . S
C881 C167 1.205 . S
C905 C83 1.170 . S
C913 C97 1.192 . S
