# Generated by pormake.
# Topology unm, (4)-cn, num edge types: 1
# Building blocks:
#     Node 0, Type 0, BuildingBlock: KUFVIS_clean_sbu_0, # of connection points: 4
#     Node 1, Type 0, BuildingBlock: KUFVIS_clean_sbu_0, # of connection points: 4
#     Node 2, Type 0, BuildingBlock: KUFVIS_clean_sbu_0, # of connection points: 4
#     Node 3, Type 0, BuildingBlock: KUFVIS_clean_sbu_0, # of connection points: 4
#     Node 4, Type 0, BuildingBlock: KUFVIS_clean_sbu_0, # of connection points: 4
#     Node 5, Type 0, BuildingBlock: KUFVIS_clean_sbu_0, # of connection points: 4
#     Node 6, Type 0, BuildingBlock: KUFVIS_clean_sbu_0, # of connection points: 4
#     Node 7, Type 0, BuildingBlock: KUFVIS_clean_sbu_0, # of connection points: 4
#     Edge 8, Type (0, 0), BuildingBlock: EYOCIG_clean_linker_4, # of connection points: 2
#     Edge 9, Type (0, 0), BuildingBlock: EYOCIG_clean_linker_4, # of connection points: 2
#     Edge 10, Type (0, 0), BuildingBlock: EYOCIG_clean_linker_4, # of connection points: 2
#     Edge 11, Type (0, 0), BuildingBlock: EYOCIG_clean_linker_4, # of connection points: 2
#     Edge 12, Type (0, 0), BuildingBlock: EYOCIG_clean_linker_4, # of connection points: 2
#     Edge 13, Type (0, 0), BuildingBlock: EYOCIG_clean_linker_4, # of connection points: 2
#     Edge 14, Type (0, 0), BuildingBlock: EYOCIG_clean_linker_4, # of connection points: 2
#     Edge 15, Type (0, 0), BuildingBlock: EYOCIG_clean_linker_4, # of connection points: 2
#     Edge 16, Type (0, 0), BuildingBlock: EYOCIG_clean_linker_4, # of connection points: 2
#     Edge 17, Type (0, 0), BuildingBlock: EYOCIG_clean_linker_4, # of connection points: 2
#     Edge 18, Type (0, 0), BuildingBlock: EYOCIG_clean_linker_4, # of connection points: 2
#     Edge 19, Type (0, 0), BuildingBlock: EYOCIG_clean_linker_4, # of connection points: 2
#     Edge 20, Type (0, 0), BuildingBlock: EYOCIG_clean_linker_4, # of connection points: 2
#     Edge 21, Type (0, 0), BuildingBlock: EYOCIG_clean_linker_4, # of connection points: 2
#     Edge 22, Type (0, 0), BuildingBlock: EYOCIG_clean_linker_4, # of connection points: 2
#     Edge 23, Type (0, 0), BuildingBlock: EYOCIG_clean_linker_4, # of connection points: 2
# Relax obj value: 0.133
# Max RMSD: 0.132
# Mean RMSD: 0.132
data_MOF--net-unm--node1-KUFVIS_clean_sbu_0--edge1-EYOCIG_clean_linker_4
_symmetry_space_group_name_H-M    P1
_symmetry_Int_Tables_number       1
_symmetry_cell_setting            triclinic
loop_
_symmetry_equiv_pos_as_xyz
'x, y, z'
_cell_length_a     20.062335
_cell_length_b     20.074647
_cell_length_c     35.087316
_cell_angle_alpha  90.011592
_cell_angle_beta   89.992872
_cell_angle_gamma 90.06684
loop_
_atom_site_label
_atom_site_type_symbol
_atom_site_fract_x
_atom_site_fract_y
_atom_site_fract_z
_atom_type_partial_charge
Mn0 Mn 0.11673 0.2777 0.17914 0.0
Mn1 Mn 0.22257 0.38491 0.13578 0.0
C2 C 0.07724 0.36383 0.14271 0.0
C3 C 0.04488 0.25106 0.22938 0.0
C4 C 0.1852 0.25127 0.10255 0.0
O5 O 0.20481 0.2596 0.20727 0.0
O6 O 0.27079 0.33028 0.17418 0.0
C7 C 0.25266 0.46877 0.20321 0.0
N8 N 0.22879 0.46287 0.167 0.0
C9 C 0.20526 0.5803 0.16395 0.0
C10 C 0.22978 0.5876 0.20114 0.0
C11 C 0.25351 0.53156 0.22085 0.0
C12 C 0.20562 0.51647 0.14783 0.0
H13 H 0.27098 0.42598 0.21857 0.0
C14 C 0.26142 0.28644 0.20009 0.0
O15 O 0.06572 0.20543 0.20597 0.0
O16 O 0.07161 0.30943 0.2264 0.0
N17 N 0.18281 0.4422 0.09855 0.0
C18 C 0.16141 0.42696 0.06271 0.0
C19 C 0.13619 0.47764 0.03923 0.0
C20 C 0.13399 0.54354 0.05261 0.0
C21 C 0.15725 0.55822 0.08936 0.0
C22 C 0.18189 0.50565 0.11148 0.0
H23 H 0.16322 0.37647 0.05215 0.0
O24 O 0.04006 0.31255 0.14941 0.0
O25 O 0.13607 0.36436 0.15811 0.0
O26 O 0.15048 0.23017 0.13067 0.0
O27 O 0.21514 0.30739 0.1017 0.0
C28 C 0.1565 0.62286 0.10499 0.0
C29 C 0.18041 0.63388 0.14227 0.0
H30 H 0.23055 0.63596 0.21485 0.0
H31 H 0.27248 0.53676 0.24957 0.0
H32 H 0.11852 0.46595 1.01086 0.0
H33 H 0.11431 0.58246 0.03445 0.0
H34 H 0.13748 0.66444 0.08862 0.0
H35 H 0.17947 0.68379 0.154 0.0
Mn36 Mn 0.22872 0.61648 0.67924 0.0
Mn37 Mn 0.12174 0.72211 0.63573 0.0
C38 C 0.14248 0.57692 0.6428 0.0
C39 C 0.25524 0.54476 0.7295 0.0
C40 C 0.25545 0.68471 0.60262 0.0
O41 O 0.24695 0.70459 0.70733 0.0
O42 O 0.17641 0.77041 0.67414 0.0
C43 C 0.03772 0.75243 0.70305 0.0
N44 N 0.04367 0.72843 0.66688 0.0
C45 C 0.9261 0.70502 0.66372 0.0
C46 C 0.91875 0.72967 0.70087 0.0
C47 C 0.97483 0.75342 0.72062 0.0
C48 C 0.99003 0.70525 0.64767 0.0
H49 H 0.08054 0.77077 0.71844 0.0
C50 C 0.2202 0.76113 0.70009 0.0
O51 O 0.30094 0.56559 0.7061 0.0
O52 O 0.19687 0.57143 0.72651 0.0
N53 N 0.06442 0.68224 0.59849 0.0
C54 C 0.07972 0.66069 0.56269 0.0
C55 C 0.02901 0.63542 0.53918 0.0
C56 C 0.96302 0.63333 0.5525 0.0
C57 C 0.94829 0.65673 0.5892 0.0
C58 C 1.00089 0.6814 0.61136 0.0
H59 H 0.13028 0.66242 0.55219 0.0
O60 O 0.19372 0.53979 0.64953 0.0
O61 O 0.14207 0.63574 0.65816 0.0
O62 O 0.27644 0.6501 0.63078 0.0
O63 O 0.19936 0.7146 0.60172 0.0
C64 C 0.88355 0.65611 0.60476 0.0
C65 C 0.87247 0.68016 0.642 0.0
H66 H 0.87032 0.73055 0.71452 0.0
H67 H 0.96959 0.77249 0.74932 0.0
H68 H 0.04075 0.61764 0.51085 0.0
H69 H 0.92408 0.61362 0.53432 0.0
H70 H 0.84194 0.63708 0.58836 0.0
H71 H 0.82249 0.67932 0.65367 0.0
Mn72 Mn 0.89092 0.72816 0.17899 0.0
Mn73 Mn 0.78482 0.62116 0.13566 0.0
C74 C 0.93018 0.64192 0.14253 0.0
C75 C 0.96289 0.75469 0.22919 0.0
C76 C 0.82235 0.75477 0.10247 0.0
O77 O 0.80292 0.74642 0.20719 0.0
O78 O 0.73676 0.67583 0.17412 0.0
C79 C 0.75464 0.53728 0.20305 0.0
N80 N 0.77849 0.54318 0.16684 0.0
C81 C 0.80171 0.42569 0.16368 0.0
C82 C 0.77722 0.41839 0.20088 0.0
C83 C 0.75364 0.47446 0.22064 0.0
C84 C 0.8015 0.48956 0.14761 0.0
H85 H 0.73644 0.58009 0.21845 0.0
C86 C 0.74625 0.71965 0.20004 0.0
O87 O 0.94211 0.80035 0.2058 0.0
O88 O 0.93606 0.69636 0.22622 0.0
N89 N 0.82443 0.56385 0.09838 0.0
C90 C 0.84588 0.57911 0.06254 0.0
C91 C 0.87097 0.52841 0.03902 0.0
C92 C 0.87301 0.46247 0.05235 0.0
C93 C 0.84973 0.44779 0.08909 0.0
C94 C 0.82522 0.50038 0.11126 0.0
H95 H 0.84418 0.62962 0.05203 0.0
O96 O 0.96748 0.69314 0.14921 0.0
O97 O 0.87137 0.64154 0.15796 0.0
O98 O 0.85719 0.77578 0.13056 0.0
O99 O 0.79232 0.69871 0.10162 0.0
C100 C 0.85032 0.38312 0.10467 0.0
C101 C 0.8264 0.37209 0.14195 0.0
H102 H 0.77633 0.37001 0.21455 0.0
H103 H 0.73469 0.46925 0.24937 0.0
H104 H 0.88866 0.54011 1.01066 0.0
H105 H 0.89259 0.42354 0.03415 0.0
H106 H 0.86921 0.34152 0.08825 0.0
H107 H 0.82722 0.32215 0.15364 0.0
Mn108 Mn 0.77804 0.38955 0.67937 0.0
Mn109 Mn 0.88526 0.28409 0.63588 0.0
C110 C 0.86423 0.42927 0.64294 0.0
C111 C 0.75138 0.46124 0.72964 0.0
C112 C 0.75154 0.32126 0.60273 0.0
O113 O 0.75991 0.30143 0.70744 0.0
O114 O 0.8306 0.23571 0.67426 0.0
C115 C 0.96922 0.25399 0.70324 0.0
N116 N 0.96329 0.27794 0.66706 0.0
C117 C 0.08082 0.30161 0.66396 0.0
C118 C 0.08814 0.27701 0.70112 0.0
C119 C 0.03206 0.25316 0.72084 0.0
C120 C 0.01692 0.30122 0.64788 0.0
H121 H 0.9264 0.23557 0.7186 0.0
C122 C 0.78675 0.24492 0.70019 0.0
O123 O 0.70572 0.44033 0.70623 0.0
O124 O 0.80978 0.43465 0.72665 0.0
N125 N 0.94258 0.32403 0.59866 0.0
C126 C 0.92731 0.34549 0.56284 0.0
C127 C 0.97802 0.37083 0.53936 0.0
C128 C 0.04397 0.37309 0.55271 0.0
C129 C 0.05868 0.34977 0.58943 0.0
C130 C 0.00608 0.32501 0.61156 0.0
H131 H 0.87677 0.34363 0.55232 0.0
O132 O 0.81292 0.46631 0.64968 0.0
O133 O 0.86474 0.37045 0.6583 0.0
O134 O 0.73044 0.35584 0.63089 0.0
O135 O 0.80768 0.29146 0.60184 0.0
C136 C 0.12338 0.35055 0.60502 0.0
C137 C 0.13443 0.32657 0.64228 0.0
H138 H 0.13654 0.27626 0.71481 0.0
H139 H 0.03729 0.23413 0.74954 0.0
H140 H 0.9663 0.38854 0.51101 0.0
H141 H 0.08291 0.39286 0.53455 0.0
H142 H 0.16498 0.36965 0.58864 0.0
H143 H 0.18439 0.32754 0.65398 0.0
Mn144 Mn 0.61667 0.22808 0.35067 0.0
Mn145 Mn 0.72242 0.12118 0.39415 0.0
C146 C 0.57712 0.14207 0.38726 0.0
C147 C 0.54483 0.25448 0.30042 0.0
C148 C 0.68521 0.25491 0.4272 0.0
O149 O 0.70474 0.24615 0.32248 0.0
O150 O 0.77066 0.17568 0.35565 0.0
C151 C 0.75234 0.03704 0.32684 0.0
N152 N 0.72853 0.04308 0.36305 0.0
C153 C 0.705 0.92561 0.36632 0.0
C154 C 0.72945 0.91817 0.32912 0.0
C155 C 0.75316 0.97416 0.3093 0.0
C156 C 0.70539 0.98953 0.38233 0.0
H157 H 0.77064 0.07979 0.31139 0.0
C158 C 0.76132 0.21939 0.32968 0.0
O159 O 0.56575 0.30021 0.32377 0.0
O160 O 0.57145 0.19613 0.30347 0.0
N161 N 0.68265 0.06401 0.43149 0.0
C162 C 0.66132 0.07939 0.46732 0.0
C163 C 0.63614 0.02877 0.49091 0.0
C164 C 0.63392 0.96279 0.47764 0.0
C165 C 0.65712 0.94798 0.4409 0.0
C166 C 0.68171 1.00049 0.41867 0.0
H167 H 0.66315 0.12993 0.47779 0.0
O168 O 0.53998 0.19327 0.38049 0.0
O169 O 0.63592 0.14154 0.37182 0.0
O170 O 0.65051 0.27586 0.39907 0.0
O171 O 0.71509 0.19884 0.42811 0.0
C172 C 0.65635 0.88325 0.42539 0.0
C173 C 0.68019 0.87208 0.38811 0.0
H174 H 0.7302 0.86974 0.3155 0.0
H175 H 0.77208 0.96885 0.28057 0.0
H176 H 0.61853 0.04057 0.51927 0.0
H177 H 0.61428 0.92392 0.49588 0.0
H178 H 0.63737 0.84171 0.44185 0.0
H179 H 0.67924 0.82211 0.37646 0.0
Mn180 Mn 0.27847 0.1166 0.85042 0.0
Mn181 Mn 0.38563 0.22235 0.89391 0.0
C182 C 0.36461 0.07712 0.88688 0.0
C183 C 0.25192 0.0448 0.80015 0.0
C184 C 0.25186 0.18491 0.92703 0.0
O185 O 0.26037 0.20466 0.82232 0.0
O186 O 0.331 0.27058 0.85551 0.0
C187 C 0.46965 0.25263 0.82656 0.0
N188 N 0.46368 0.22867 0.86274 0.0
C189 C 0.5812 0.20522 0.86585 0.0
C190 C 0.58856 0.22983 0.82868 0.0
C191 C 0.53251 0.25358 0.80896 0.0
C192 C 0.51729 0.20549 0.88192 0.0
H193 H 0.42685 0.27097 0.81119 0.0
C194 C 0.28718 0.26124 0.82956 0.0
O195 O 0.20621 0.0656 0.82354 0.0
O196 O 0.31031 0.07155 0.80316 0.0
N197 N 0.44291 0.18257 0.93114 0.0
C198 C 0.4276 0.16108 0.96696 0.0
C199 C 0.47828 0.13583 0.99045 0.0
C200 C 0.54424 0.13368 0.97709 0.0
C201 C 0.55898 0.15702 0.94037 0.0
C202 C 0.50641 0.18169 0.91824 0.0
H203 H 0.37706 0.16286 0.97748 0.0
O204 O 0.31332 0.03996 0.88013 0.0
O205 O 0.36514 0.13593 0.87151 0.0
O206 O 0.2308 0.15025 0.89888 0.0
O207 O 0.308 0.21483 0.92793 0.0
C208 C 0.62369 0.15635 0.92479 0.0
C209 C 0.63478 0.18036 0.88754 0.0
H210 H 0.63697 0.23067 0.81501 0.0
H211 H 0.53776 0.27262 0.78026 0.0
H212 H 0.46654 0.11811 0.01879 0.0
H213 H 0.58316 0.11398 0.99526 0.0
H214 H 0.66528 0.13733 0.94117 0.0
H215 H 0.68475 0.17949 0.87584 0.0
Mn216 Mn 0.39093 0.7778 0.35066 0.0
Mn217 Mn 0.28501 0.88465 0.39408 0.0
C218 C 0.43034 0.86385 0.38727 0.0
C219 C 0.46289 0.75144 0.30044 0.0
C220 C 0.32222 0.75095 0.42714 0.0
O221 O 0.30293 0.75965 0.32241 0.0
O222 O 0.2369 0.8301 0.35554 0.0
C223 C 0.25523 0.96873 0.32674 0.0
N224 N 0.27894 0.96273 0.36297 0.0
C225 C 0.30244 0.08021 0.36625 0.0
C226 C 0.27809 0.08761 0.32904 0.0
C227 C 0.25445 0.0316 0.3092 0.0
C228 C 0.30203 0.0163 0.38226 0.0
H229 H 0.23699 0.92596 0.31128 0.0
C230 C 0.24632 0.78638 0.32957 0.0
O231 O 0.44197 0.7057 0.32377 0.0
O232 O 0.43622 0.80977 0.30349 0.0
N233 N 0.32466 0.94187 0.43144 0.0
C234 C 0.34593 0.92651 0.46729 0.0
C235 C 0.37104 0.97715 0.49089 0.0
C236 C 0.37326 0.04312 0.47762 0.0
C237 C 0.35015 0.0579 0.44087 0.0
C238 C 0.32561 0.00537 0.41862 0.0
H239 H 0.34408 0.87597 0.47775 0.0
O240 O 0.46753 0.81267 0.38052 0.0
O241 O 0.37157 0.86433 0.3718 0.0
O242 O 0.35701 0.73002 0.39903 0.0
O243 O 0.2923 0.80701 0.42803 0.0
C244 C 0.35094 0.12262 0.42535 0.0
C245 C 0.32719 0.13375 0.38805 0.0
H246 H 0.27737 0.13602 0.31541 0.0
H247 H 0.23561 0.03688 0.28046 0.0
H248 H 0.38859 0.96538 0.51926 0.0
H249 H 0.39286 0.08201 0.49587 0.0
H250 H 0.36987 0.16418 0.44182 0.0
H251 H 0.32816 0.18372 0.37641 0.0
Mn252 Mn 0.72834 0.88953 0.85049 0.0
Mn253 Mn 0.62119 0.78392 0.89408 0.0
C254 C 0.64226 0.92912 0.88699 0.0
C255 C 0.75488 0.96126 0.8002 0.0
C256 C 0.75505 0.82131 0.92709 0.0
O257 O 0.74633 0.80142 0.82239 0.0
O258 O 0.67572 0.73559 0.85566 0.0
C259 C 0.53703 0.75353 0.82681 0.0
N260 N 0.54307 0.77758 0.86297 0.0
C261 C 0.42557 0.80107 0.86616 0.0
C262 C 0.41813 0.77637 0.82902 0.0
C263 C 0.47413 0.75256 0.80926 0.0
C264 C 0.48951 0.80081 0.88219 0.0
H265 H 0.57979 0.73515 0.81142 0.0
C266 C 0.7195 0.74487 0.82968 0.0
O267 O 0.8006 0.94044 0.82356 0.0
O268 O 0.69648 0.93455 0.80324 0.0
N269 N 0.564 0.82382 0.93134 0.0
C270 C 0.57939 0.84539 0.96713 0.0
C271 C 0.52876 0.87073 0.99064 0.0
C272 C 0.46277 0.87286 0.97734 0.0
C273 C 0.44795 0.84943 0.94065 0.0
C274 C 0.50047 0.82469 0.91849 0.0
H275 H 0.62995 0.84363 0.97761 0.0
O276 O 0.69358 0.96623 0.88021 0.0
O277 O 0.64168 0.87028 0.87163 0.0
O278 O 0.77607 0.85591 0.89892 0.0
O279 O 0.69887 0.79145 0.92805 0.0
C280 C 0.38321 0.85008 0.92511 0.0
C281 C 0.37203 0.82599 0.88788 0.0
H282 H 0.36968 0.77551 0.81538 0.0
H283 H 0.46881 0.73345 0.78058 0.0
H284 H 0.54057 0.88852 0.01896 0.0
H285 H 0.4239 0.89262 0.99553 0.0
H286 H 0.34166 0.86916 0.94152 0.0
H287 H 0.32205 0.82685 0.87623 0.0
C288 C 0.18723 0.19705 0.03449 0.0
C289 C 0.18267 0.21577 0.06706 0.0
C290 C 0.19749 0.18684 0.99506 0.0
C291 C 0.21627 0.18232 0.9625 0.0
C292 C 0.30981 0.68652 0.53459 0.0
C293 C 0.29101 0.68206 0.56715 0.0
C294 C 0.3201 0.69667 0.49516 0.0
C295 C 0.32472 0.7154 0.4626 0.0
C296 C 0.82012 0.80908 0.03445 0.0
C297 C 0.8248 0.79032 0.067 0.0
C298 C 0.80967 0.81933 0.99505 0.0
C299 C 0.79075 0.82386 0.96252 0.0
C300 C 0.68715 0.30921 0.49523 0.0
C301 C 0.68262 0.29048 0.46267 0.0
C302 C 0.69733 0.31938 0.53467 0.0
C303 C 0.71603 0.32386 0.56725 0.0
C304 C 0.37158 0.26615 0.24004 0.0
C305 C 0.31865 0.27152 0.22362 0.0
C306 C 0.43395 0.26514 0.25942 0.0
C307 C 0.48433 0.26264 0.27846 0.0
C308 C 0.24043 0.87137 0.73998 0.0
C309 C 0.23512 0.81839 0.72361 0.0
C310 C 0.24133 0.93379 0.75928 0.0
C311 C 0.24377 0.98422 0.77827 0.0
C312 C 0.57382 0.74089 0.25946 0.0
C313 C 0.52342 0.74333 0.2785 0.0
C314 C 0.63619 0.73996 0.24008 0.0
C315 C 0.6891 0.73461 0.22364 0.0
C316 C 0.76649 0.13464 0.74002 0.0
C317 C 0.77183 0.18762 0.72368 0.0
C318 C 0.76554 0.07223 0.75931 0.0
C319 C 0.76305 0.02181 0.77831 0.0
C320 C 0.8715 0.23949 0.28967 0.0
C321 C 0.81855 0.23422 0.3061 0.0
C322 C 0.9339 0.24037 0.27031 0.0
C323 C 0.98432 0.24283 0.25129 0.0
C324 C 0.26589 0.43382 0.7704 0.0
C325 C 0.26338 0.48423 0.7514 0.0
C326 C 0.26688 0.37143 0.7897 0.0
C327 C 0.27225 0.31848 0.80607 0.0
C328 C 0.13624 0.7662 0.2895 0.0
C329 C 0.18915 0.7715 0.30595 0.0
C330 C 0.07387 0.7653 0.27013 0.0
C331 C 0.02345 0.76285 0.2511 0.0
C332 C 0.74064 0.5722 0.77053 0.0
C333 C 0.74316 0.52178 0.75153 0.0
C334 C 0.73967 0.63461 0.78983 0.0
C335 C 0.73435 0.68758 0.80619 0.0
C336 C 0.98706 0.53331 0.11734 0.0
C337 C 0.96046 0.58263 0.1289 0.0
C338 C 0.02015 0.47222 0.11739 0.0
C339 C 0.04684 0.423 0.12901 0.0
C340 C 0.97272 0.48657 0.61764 0.0
C341 C 0.92345 0.45979 0.62925 0.0
C342 C 0.03385 0.51976 0.6176 0.0
C343 C 0.08318 0.54648 0.62917 0.0
C344 C 0.52014 0.03362 0.41274 0.0
C345 C 0.5467 0.08292 0.40105 0.0
C346 C 0.48722 0.97237 0.41275 0.0
C347 C 0.4607 0.92305 0.40106 0.0
C348 C 0.47296 0.01988 0.91221 0.0
C349 C 0.42381 0.04673 0.90059 0.0
C350 C 0.5339 0.98647 0.91224 0.0
C351 C 0.58306 0.95959 0.90065 0.0
loop_
_geom_bond_atom_site_label_1
_geom_bond_atom_site_label_2
_geom_bond_distance
_geom_bond_site_symmetry_2
_ccdc_geom_bond_type
Mn0 O5 2.095 . S
Mn0 O15 2.162 . S
Mn0 O16 2.297 . S
Mn0 O24 2.385 . S
Mn0 O25 2.209 . S
Mn0 O26 2.094 . S
Mn1 O6 2.121 . S
Mn1 N8 2.257 . S
Mn1 N17 2.282 . S
Mn1 O25 2.215 . S
Mn1 O27 2.117 . S
C2 O24 1.234 . S
C2 O25 1.283 . S
C3 O15 1.281 . S
C3 O16 1.236 . S
C4 O26 1.240 . S
C4 O27 1.264 . S
O5 Mn0 2.095 . S
O5 C14 1.250 . S
O6 Mn1 2.121 . S
O6 C14 1.258 . S
C7 N8 1.326 . S
C7 C11 1.460 . S
C7 H13 0.929 . S
N8 Mn1 2.257 . S
N8 C7 1.326 . S
N8 C12 1.362 . S
C9 C10 1.258 . S
C9 C12 1.431 . S
C9 C29 1.449 . S
C10 C9 1.258 . S
C10 C11 1.477 . S
C10 H30 0.931 . S
C11 C7 1.460 . S
C11 C10 1.477 . S
C11 H31 0.930 . S
C12 N8 1.362 . S
C12 C9 1.431 . S
C12 C22 1.476 . S
H13 C7 0.929 . S
C14 O5 1.250 . S
C14 O6 1.258 . S
O15 Mn0 2.162 . S
O15 C3 1.281 . S
O16 Mn0 2.297 . S
O16 C3 1.236 . S
N17 Mn1 2.282 . S
N17 C18 1.328 . S
N17 C22 1.318 . S
C18 N17 1.328 . S
C18 C19 1.457 . S
C18 H23 0.929 . S
C19 C18 1.457 . S
C19 C20 1.291 . S
C19 H32 0.931 . S
C20 C19 1.291 . S
C20 C21 1.373 . S
C20 H33 0.929 . S
C21 C20 1.373 . S
C21 C22 1.396 . S
C21 C28 1.403 . S
C22 C12 1.476 . S
C22 N17 1.318 . S
C22 C21 1.396 . S
H23 C18 0.929 . S
O24 Mn0 2.385 . S
O24 C2 1.234 . S
O25 Mn0 2.209 . S
O25 Mn1 2.215 . S
O25 C2 1.283 . S
O26 Mn0 2.094 . S
O26 C4 1.240 . S
O27 Mn1 2.117 . S
O27 C4 1.264 . S
C28 C21 1.403 . S
C28 C29 1.399 . S
C28 H34 0.929 . S
C29 C9 1.449 . S
C29 C28 1.399 . S
C29 H35 0.930 . S
H30 C10 0.931 . S
H31 C11 0.930 . S
H32 C19 0.931 . S
H33 C20 0.929 . S
H34 C28 0.929 . S
H35 C29 0.930 . S
Mn36 O41 2.095 . S
Mn36 O51 2.162 . S
Mn36 O52 2.297 . S
Mn36 O60 2.385 . S
Mn36 O61 2.209 . S
Mn36 O62 2.094 . S
Mn37 O42 2.121 . S
Mn37 N44 2.257 . S
Mn37 N53 2.282 . S
Mn37 O61 2.215 . S
Mn37 O63 2.117 . S
C38 O60 1.234 . S
C38 O61 1.283 . S
C39 O51 1.281 . S
C39 O52 1.236 . S
C40 O62 1.240 . S
C40 O63 1.264 . S
O41 Mn36 2.095 . S
O41 C50 1.250 . S
O42 Mn37 2.121 . S
O42 C50 1.258 . S
C43 N44 1.326 . S
C43 C47 1.460 1_455 S
C43 H49 0.929 . S
N44 Mn37 2.257 . S
N44 C43 1.326 . S
N44 C48 1.362 1_455 S
C45 C46 1.258 . S
C45 C48 1.431 . S
C45 C65 1.449 . S
C46 C45 1.258 . S
C46 C47 1.477 . S
C46 H66 0.931 . S
C47 C43 1.460 1_655 S
C47 C46 1.477 . S
C47 H67 0.930 . S
C48 N44 1.362 1_655 S
C48 C45 1.431 . S
C48 C58 1.476 . S
H49 C43 0.929 . S
C50 O41 1.250 . S
C50 O42 1.258 . S
O51 Mn36 2.162 . S
O51 C39 1.281 . S
O52 Mn36 2.297 . S
O52 C39 1.236 . S
N53 Mn37 2.282 . S
N53 C54 1.328 . S
N53 C58 1.318 1_455 S
C54 N53 1.328 . S
C54 C55 1.457 . S
C54 H59 0.929 . S
C55 C54 1.457 . S
C55 C56 1.291 1_455 S
C55 H68 0.931 . S
C56 C55 1.291 1_655 S
C56 C57 1.373 . S
C56 H69 0.929 . S
C57 C56 1.373 . S
C57 C58 1.396 . S
C57 C64 1.403 . S
C58 C48 1.476 . S
C58 N53 1.318 1_655 S
C58 C57 1.396 . S
H59 C54 0.929 . S
O60 Mn36 2.385 . S
O60 C38 1.234 . S
O61 Mn36 2.209 . S
O61 Mn37 2.215 . S
O61 C38 1.283 . S
O62 Mn36 2.094 . S
O62 C40 1.240 . S
O63 Mn37 2.117 . S
O63 C40 1.264 . S
C64 C57 1.403 . S
C64 C65 1.399 . S
C64 H70 0.929 . S
C65 C45 1.449 . S
C65 C64 1.399 . S
C65 H71 0.930 . S
H66 C46 0.931 . S
H67 C47 0.930 . S
H68 C55 0.931 . S
H69 C56 0.929 . S
H70 C64 0.929 . S
H71 C65 0.930 . S
Mn72 O77 2.095 . S
Mn72 O87 2.162 . S
Mn72 O88 2.297 . S
Mn72 O96 2.385 . S
Mn72 O97 2.209 . S
Mn72 O98 2.094 . S
Mn73 O78 2.121 . S
Mn73 N80 2.257 . S
Mn73 N89 2.282 . S
Mn73 O97 2.215 . S
Mn73 O99 2.117 . S
C74 O96 1.234 . S
C74 O97 1.283 . S
C75 O87 1.281 . S
C75 O88 1.236 . S
C76 O98 1.240 . S
C76 O99 1.264 . S
O77 Mn72 2.095 . S
O77 C86 1.250 . S
O78 Mn73 2.121 . S
O78 C86 1.258 . S
C79 N80 1.326 . S
C79 C83 1.460 . S
C79 H85 0.929 . S
N80 Mn73 2.257 . S
N80 C79 1.326 . S
N80 C84 1.362 . S
C81 C82 1.258 . S
C81 C84 1.431 . S
C81 C101 1.449 . S
C82 C81 1.258 . S
C82 C83 1.477 . S
C82 H102 0.931 . S
C83 C79 1.460 . S
C83 C82 1.477 . S
C83 H103 0.930 . S
C84 N80 1.362 . S
C84 C81 1.431 . S
C84 C94 1.476 . S
H85 C79 0.929 . S
C86 O77 1.250 . S
C86 O78 1.258 . S
O87 Mn72 2.162 . S
O87 C75 1.281 . S
O88 Mn72 2.297 . S
O88 C75 1.236 . S
N89 Mn73 2.282 . S
N89 C90 1.328 . S
N89 C94 1.318 . S
C90 N89 1.328 . S
C90 C91 1.457 . S
C90 H95 0.929 . S
C91 C90 1.457 . S
C91 C92 1.291 . S
C91 H104 0.931 . S
C92 C91 1.291 . S
C92 C93 1.373 . S
C92 H105 0.929 . S
C93 C92 1.373 . S
C93 C94 1.396 . S
C93 C100 1.403 . S
C94 C84 1.476 . S
C94 N89 1.318 . S
C94 C93 1.396 . S
H95 C90 0.929 . S
O96 Mn72 2.385 . S
O96 C74 1.234 . S
O97 Mn72 2.209 . S
O97 Mn73 2.215 . S
O97 C74 1.283 . S
O98 Mn72 2.094 . S
O98 C76 1.240 . S
O99 Mn73 2.117 . S
O99 C76 1.264 . S
C100 C93 1.403 . S
C100 C101 1.399 . S
C100 H106 0.929 . S
C101 C81 1.449 . S
C101 C100 1.399 . S
C101 H107 0.930 . S
H102 C82 0.931 . S
H103 C83 0.930 . S
H104 C91 0.931 . S
H105 C92 0.929 . S
H106 C100 0.929 . S
H107 C101 0.930 . S
Mn108 O113 2.095 . S
Mn108 O123 2.162 . S
Mn108 O124 2.297 . S
Mn108 O132 2.385 . S
Mn108 O133 2.209 . S
Mn108 O134 2.094 . S
Mn109 O114 2.121 . S
Mn109 N116 2.257 . S
Mn109 N125 2.282 . S
Mn109 O133 2.215 . S
Mn109 O135 2.117 . S
C110 O132 1.234 . S
C110 O133 1.283 . S
C111 O123 1.281 . S
C111 O124 1.236 . S
C112 O134 1.240 . S
C112 O135 1.264 . S
O113 Mn108 2.095 . S
O113 C122 1.250 . S
O114 Mn109 2.121 . S
O114 C122 1.258 . S
C115 N116 1.326 . S
C115 C119 1.460 1_655 S
C115 H121 0.929 . S
N116 Mn109 2.257 . S
N116 C115 1.326 . S
N116 C120 1.362 1_655 S
C117 C118 1.258 . S
C117 C120 1.431 . S
C117 C137 1.449 . S
C118 C117 1.258 . S
C118 C119 1.477 . S
C118 H138 0.931 . S
C119 C115 1.460 1_455 S
C119 C118 1.477 . S
C119 H139 0.930 . S
C120 N116 1.362 1_455 S
C120 C117 1.431 . S
C120 C130 1.476 . S
H121 C115 0.929 . S
C122 O113 1.250 . S
C122 O114 1.258 . S
O123 Mn108 2.162 . S
O123 C111 1.281 . S
O124 Mn108 2.297 . S
O124 C111 1.236 . S
N125 Mn109 2.282 . S
N125 C126 1.328 . S
N125 C130 1.318 1_655 S
C126 N125 1.328 . S
C126 C127 1.457 . S
C126 H131 0.929 . S
C127 C126 1.457 . S
C127 C128 1.291 1_655 S
C127 H140 0.931 . S
C128 C127 1.291 1_455 S
C128 C129 1.373 . S
C128 H141 0.929 . S
C129 C128 1.373 . S
C129 C130 1.396 . S
C129 C136 1.403 . S
C130 C120 1.476 . S
C130 N125 1.318 1_455 S
C130 C129 1.396 . S
H131 C126 0.929 . S
O132 Mn108 2.385 . S
O132 C110 1.234 . S
O133 Mn108 2.209 . S
O133 Mn109 2.215 . S
O133 C110 1.283 . S
O134 Mn108 2.094 . S
O134 C112 1.240 . S
O135 Mn109 2.117 . S
O135 C112 1.264 . S
C136 C129 1.403 . S
C136 C137 1.399 . S
C136 H142 0.929 . S
C137 C117 1.449 . S
C137 C136 1.399 . S
C137 H143 0.930 . S
H138 C118 0.931 . S
H139 C119 0.930 . S
H140 C127 0.931 . S
H141 C128 0.929 . S
H142 C136 0.929 . S
H143 C137 0.930 . S
Mn144 O149 2.095 . S
Mn144 O159 2.162 . S
Mn144 O160 2.297 . S
Mn144 O168 2.385 . S
Mn144 O169 2.209 . S
Mn144 O170 2.094 . S
Mn145 O150 2.121 . S
Mn145 N152 2.257 . S
Mn145 N161 2.282 . S
Mn145 O169 2.215 . S
Mn145 O171 2.117 . S
C146 O168 1.234 . S
C146 O169 1.283 . S
C147 O159 1.281 . S
C147 O160 1.236 . S
C148 O170 1.240 . S
C148 O171 1.264 . S
O149 Mn144 2.095 . S
O149 C158 1.250 . S
O150 Mn145 2.121 . S
O150 C158 1.258 . S
C151 N152 1.326 . S
C151 C155 1.460 1_545 S
C151 H157 0.929 . S
N152 Mn145 2.257 . S
N152 C151 1.326 . S
N152 C156 1.362 1_545 S
C153 C154 1.258 . S
C153 C156 1.431 . S
C153 C173 1.449 . S
C154 C153 1.258 . S
C154 C155 1.477 . S
C154 H174 0.931 . S
C155 C151 1.460 1_565 S
C155 C154 1.477 . S
C155 H175 0.930 . S
C156 N152 1.362 1_565 S
C156 C153 1.431 . S
C156 C166 1.476 . S
H157 C151 0.929 . S
C158 O149 1.250 . S
C158 O150 1.258 . S
O159 Mn144 2.162 . S
O159 C147 1.281 . S
O160 Mn144 2.297 . S
O160 C147 1.236 . S
N161 Mn145 2.282 . S
N161 C162 1.328 . S
N161 C166 1.318 1_545 S
C162 N161 1.328 . S
C162 C163 1.457 . S
C162 H167 0.929 . S
C163 C162 1.457 . S
C163 C164 1.291 1_545 S
C163 H176 0.931 . S
C164 C163 1.291 1_565 S
C164 C165 1.373 . S
C164 H177 0.929 . S
C165 C164 1.373 . S
C165 C166 1.396 . S
C165 C172 1.403 . S
C166 C156 1.476 . S
C166 N161 1.318 1_565 S
C166 C165 1.396 . S
H167 C162 0.929 . S
O168 Mn144 2.385 . S
O168 C146 1.234 . S
O169 Mn144 2.209 . S
O169 Mn145 2.215 . S
O169 C146 1.283 . S
O170 Mn144 2.094 . S
O170 C148 1.240 . S
O171 Mn145 2.117 . S
O171 C148 1.264 . S
C172 C165 1.403 . S
C172 C173 1.399 . S
C172 H178 0.929 . S
C173 C153 1.449 . S
C173 C172 1.399 . S
C173 H179 0.930 . S
H174 C154 0.931 . S
H175 C155 0.930 . S
H176 C163 0.931 . S
H177 C164 0.929 . S
H178 C172 0.929 . S
H179 C173 0.930 . S
Mn180 O185 2.095 . S
Mn180 O195 2.162 . S
Mn180 O196 2.297 . S
Mn180 O204 2.385 . S
Mn180 O205 2.209 . S
Mn180 O206 2.094 . S
Mn181 O186 2.121 . S
Mn181 N188 2.257 . S
Mn181 N197 2.282 . S
Mn181 O205 2.215 . S
Mn181 O207 2.117 . S
C182 O204 1.234 . S
C182 O205 1.283 . S
C183 O195 1.281 . S
C183 O196 1.236 . S
C184 O206 1.240 . S
C184 O207 1.264 . S
O185 Mn180 2.095 . S
O185 C194 1.250 . S
O186 Mn181 2.121 . S
O186 C194 1.258 . S
C187 N188 1.326 . S
C187 C191 1.460 . S
C187 H193 0.929 . S
N188 Mn181 2.257 . S
N188 C187 1.326 . S
N188 C192 1.362 . S
C189 C190 1.258 . S
C189 C192 1.431 . S
C189 C209 1.449 . S
C190 C189 1.258 . S
C190 C191 1.477 . S
C190 H210 0.931 . S
C191 C187 1.460 . S
C191 C190 1.477 . S
C191 H211 0.930 . S
C192 N188 1.362 . S
C192 C189 1.431 . S
C192 C202 1.476 . S
H193 C187 0.929 . S
C194 O185 1.250 . S
C194 O186 1.258 . S
O195 Mn180 2.162 . S
O195 C183 1.281 . S
O196 Mn180 2.297 . S
O196 C183 1.236 . S
N197 Mn181 2.282 . S
N197 C198 1.328 . S
N197 C202 1.318 . S
C198 N197 1.328 . S
C198 C199 1.457 . S
C198 H203 0.929 . S
C199 C198 1.457 . S
C199 C200 1.291 . S
C199 H212 0.931 . S
C200 C199 1.291 . S
C200 C201 1.373 . S
C200 H213 0.929 . S
C201 C200 1.373 . S
C201 C202 1.396 . S
C201 C208 1.403 . S
C202 C192 1.476 . S
C202 N197 1.318 . S
C202 C201 1.396 . S
H203 C198 0.929 . S
O204 Mn180 2.385 . S
O204 C182 1.234 . S
O205 Mn180 2.209 . S
O205 Mn181 2.215 . S
O205 C182 1.283 . S
O206 Mn180 2.094 . S
O206 C184 1.240 . S
O207 Mn181 2.117 . S
O207 C184 1.264 . S
C208 C201 1.403 . S
C208 C209 1.399 . S
C208 H214 0.929 . S
C209 C189 1.449 . S
C209 C208 1.399 . S
C209 H215 0.930 . S
H210 C190 0.931 . S
H211 C191 0.930 . S
H212 C199 0.931 . S
H213 C200 0.929 . S
H214 C208 0.929 . S
H215 C209 0.930 . S
Mn216 O221 2.095 . S
Mn216 O231 2.162 . S
Mn216 O232 2.297 . S
Mn216 O240 2.385 . S
Mn216 O241 2.209 . S
Mn216 O242 2.094 . S
Mn217 O222 2.121 . S
Mn217 N224 2.257 . S
Mn217 N233 2.282 . S
Mn217 O241 2.215 . S
Mn217 O243 2.117 . S
C218 O240 1.234 . S
C218 O241 1.283 . S
C219 O231 1.281 . S
C219 O232 1.236 . S
C220 O242 1.240 . S
C220 O243 1.264 . S
O221 Mn216 2.095 . S
O221 C230 1.250 . S
O222 Mn217 2.121 . S
O222 C230 1.258 . S
C223 N224 1.326 . S
C223 C227 1.460 1_565 S
C223 H229 0.929 . S
N224 Mn217 2.257 . S
N224 C223 1.326 . S
N224 C228 1.362 1_565 S
C225 C226 1.258 . S
C225 C228 1.431 . S
C225 C245 1.449 . S
C226 C225 1.258 . S
C226 C227 1.477 . S
C226 H246 0.931 . S
C227 C223 1.460 1_545 S
C227 C226 1.477 . S
C227 H247 0.930 . S
C228 N224 1.362 1_545 S
C228 C225 1.431 . S
C228 C238 1.476 . S
H229 C223 0.929 . S
C230 O221 1.250 . S
C230 O222 1.258 . S
O231 Mn216 2.162 . S
O231 C219 1.281 . S
O232 Mn216 2.297 . S
O232 C219 1.236 . S
N233 Mn217 2.282 . S
N233 C234 1.328 . S
N233 C238 1.318 1_565 S
C234 N233 1.328 . S
C234 C235 1.457 . S
C234 H239 0.929 . S
C235 C234 1.457 . S
C235 C236 1.291 1_565 S
C235 H248 0.931 . S
C236 C235 1.291 1_545 S
C236 C237 1.373 . S
C236 H249 0.929 . S
C237 C236 1.373 . S
C237 C238 1.396 . S
C237 C244 1.403 . S
C238 C228 1.476 . S
C238 N233 1.318 1_545 S
C238 C237 1.396 . S
H239 C234 0.929 . S
O240 Mn216 2.385 . S
O240 C218 1.234 . S
O241 Mn216 2.209 . S
O241 Mn217 2.215 . S
O241 C218 1.283 . S
O242 Mn216 2.094 . S
O242 C220 1.240 . S
O243 Mn217 2.117 . S
O243 C220 1.264 . S
C244 C237 1.403 . S
C244 C245 1.399 . S
C244 H250 0.929 . S
C245 C225 1.449 . S
C245 C244 1.399 . S
C245 H251 0.930 . S
H246 C226 0.931 . S
H247 C227 0.930 . S
H248 C235 0.931 . S
H249 C236 0.929 . S
H250 C244 0.929 . S
H251 C245 0.930 . S
Mn252 O257 2.095 . S
Mn252 O267 2.162 . S
Mn252 O268 2.297 . S
Mn252 O276 2.385 . S
Mn252 O277 2.209 . S
Mn252 O278 2.094 . S
Mn253 O258 2.121 . S
Mn253 N260 2.257 . S
Mn253 N269 2.282 . S
Mn253 O277 2.215 . S
Mn253 O279 2.117 . S
C254 O276 1.234 . S
C254 O277 1.283 . S
C255 O267 1.281 . S
C255 O268 1.236 . S
C256 O278 1.240 . S
C256 O279 1.264 . S
O257 Mn252 2.095 . S
O257 C266 1.250 . S
O258 Mn253 2.121 . S
O258 C266 1.258 . S
C259 N260 1.326 . S
C259 C263 1.460 . S
C259 H265 0.929 . S
N260 Mn253 2.257 . S
N260 C259 1.326 . S
N260 C264 1.362 . S
C261 C262 1.258 . S
C261 C264 1.431 . S
C261 C281 1.449 . S
C262 C261 1.258 . S
C262 C263 1.477 . S
C262 H282 0.931 . S
C263 C259 1.460 . S
C263 C262 1.477 . S
C263 H283 0.930 . S
C264 N260 1.362 . S
C264 C261 1.431 . S
C264 C274 1.476 . S
H265 C259 0.929 . S
C266 O257 1.250 . S
C266 O258 1.258 . S
O267 Mn252 2.162 . S
O267 C255 1.281 . S
O268 Mn252 2.297 . S
O268 C255 1.236 . S
N269 Mn253 2.282 . S
N269 C270 1.328 . S
N269 C274 1.318 . S
C270 N269 1.328 . S
C270 C271 1.457 . S
C270 H275 0.929 . S
C271 C270 1.457 . S
C271 C272 1.291 . S
C271 H284 0.931 . S
C272 C271 1.291 . S
C272 C273 1.373 . S
C272 H285 0.929 . S
C273 C272 1.373 . S
C273 C274 1.396 . S
C273 C280 1.403 . S
C274 C264 1.476 . S
C274 N269 1.318 . S
C274 C273 1.396 . S
H275 C270 0.929 . S
O276 Mn252 2.385 . S
O276 C254 1.234 . S
O277 Mn252 2.209 . S
O277 Mn253 2.215 . S
O277 C254 1.283 . S
O278 Mn252 2.094 . S
O278 C256 1.240 . S
O279 Mn253 2.117 . S
O279 C256 1.264 . S
C280 C273 1.403 . S
C280 C281 1.399 . S
C280 H286 0.929 . S
C281 C261 1.449 . S
C281 C280 1.399 . S
C281 H287 0.930 . S
H282 C262 0.931 . S
H283 C263 0.930 . S
H284 C271 0.931 . S
H285 C272 0.929 . S
H286 C280 0.929 . S
H287 C281 0.930 . S
C288 C289 1.170 . S
C288 C290 1.380 1_554 S
C289 C288 1.170 . S
C290 C288 1.380 1_556 S
C290 C291 1.170 . S
C291 C290 1.170 . S
C292 C293 1.170 . S
C292 C294 1.380 . S
C293 C292 1.170 . S
C294 C292 1.380 . S
C294 C295 1.170 . S
C295 C294 1.170 . S
C296 C297 1.170 . S
C296 C298 1.380 1_554 S
C297 C296 1.170 . S
C298 C296 1.380 1_556 S
C298 C299 1.170 . S
C299 C298 1.170 . S
C300 C301 1.170 . S
C300 C302 1.380 . S
C301 C300 1.170 . S
C302 C300 1.380 . S
C302 C303 1.170 . S
C303 C302 1.170 . S
C304 C305 1.170 . S
C304 C306 1.380 . S
C305 C304 1.170 . S
C306 C304 1.380 . S
C306 C307 1.170 . S
C307 C306 1.170 . S
C308 C309 1.170 . S
C308 C310 1.380 . S
C309 C308 1.170 . S
C310 C308 1.380 . S
C310 C311 1.170 . S
C311 C310 1.170 . S
C312 C313 1.170 . S
C312 C314 1.380 . S
C313 C312 1.170 . S
C314 C312 1.380 . S
C314 C315 1.170 . S
C315 C314 1.170 . S
C316 C317 1.170 . S
C316 C318 1.380 . S
C317 C316 1.170 . S
C318 C316 1.380 . S
C318 C319 1.170 . S
C319 C318 1.170 . S
C320 C321 1.170 . S
C320 C322 1.380 . S
C321 C320 1.170 . S
C322 C320 1.380 . S
C322 C323 1.170 . S
C323 C322 1.170 . S
C324 C325 1.170 . S
C324 C326 1.380 . S
C325 C324 1.170 . S
C326 C324 1.380 . S
C326 C327 1.170 . S
C327 C326 1.170 . S
C328 C329 1.170 . S
C328 C330 1.380 . S
C329 C328 1.170 . S
C330 C328 1.380 . S
C330 C331 1.170 . S
C331 C330 1.170 . S
C332 C333 1.170 . S
C332 C334 1.380 . S
C333 C332 1.170 . S
C334 C332 1.380 . S
C334 C335 1.170 . S
C335 C334 1.170 . S
C336 C337 1.170 . S
C336 C338 1.380 1_655 S
C337 C336 1.170 . S
C338 C336 1.380 1_455 S
C338 C339 1.170 . S
C339 C338 1.170 . S
C340 C341 1.170 . S
C340 C342 1.380 1_655 S
C341 C340 1.170 . S
C342 C340 1.380 1_455 S
C342 C343 1.170 . S
C343 C342 1.170 . S
C344 C345 1.170 . S
C344 C346 1.380 1_545 S
C345 C344 1.170 . S
C346 C344 1.380 1_565 S
C346 C347 1.170 . S
C347 C346 1.170 . S
C348 C349 1.170 . S
C348 C350 1.380 1_545 S
C349 C348 1.170 . S
C350 C348 1.380 1_565 S
C350 C351 1.170 . S
C351 C350 1.170 . S
C289 C4 1.380 . S
C291 C184 1.392 . S
C293 C40 1.393 . S
C295 C220 1.393 . S
C297 C76 1.379 . S
C299 C256 1.390 . S
C301 C148 1.380 . S
C303 C112 1.391 . S
C305 C14 1.579 . S
C307 C147 1.619 . S
C309 C50 1.568 . S
C311 C183 1.636 1_565 S
C313 C219 1.636 . S
C315 C86 1.569 . S
C317 C122 1.570 . S
C319 C255 1.616 1_545 S
C321 C158 1.537 . S
C323 C3 1.639 1_655 S
C325 C39 1.621 . S
C327 C194 1.580 . S
C329 C230 1.580 . S
C331 C75 1.622 1_455 S
C333 C111 1.634 . S
C335 C266 1.534 . S
C337 C74 0.780 . S
C339 C2 0.710 . S
C341 C110 0.747 . S
C343 C38 0.756 . S
C345 C146 0.749 . S
C347 C218 0.726 . S
C349 C182 0.724 . S
C351 C254 0.773 . S
