# Generated by pormake.
# Topology ure, (4)-cn, num edge types: 1
# Building blocks:
#     Node 0, Type 0, BuildingBlock: NAHDIM_clean_sbu_0, # of connection points: 4
#     Node 1, Type 0, BuildingBlock: NAHDIM_clean_sbu_0, # of connection points: 4
#     Node 2, Type 0, BuildingBlock: NAHDIM_clean_sbu_0, # of connection points: 4
#     Node 3, Type 0, BuildingBlock: NAHDIM_clean_sbu_0, # of connection points: 4
#     Node 4, Type 0, BuildingBlock: NAHDIM_clean_sbu_0, # of connection points: 4
#     Node 5, Type 0, BuildingBlock: NAHDIM_clean_sbu_0, # of connection points: 4
#     Node 6, Type 0, BuildingBlock: NAHDIM_clean_sbu_0, # of connection points: 4
#     Node 7, Type 0, BuildingBlock: NAHDIM_clean_sbu_0, # of connection points: 4
#     Node 8, Type 0, BuildingBlock: NAHDIM_clean_sbu_0, # of connection points: 4
#     Node 9, Type 0, BuildingBlock: NAHDIM_clean_sbu_0, # of connection points: 4
#     Node 10, Type 0, BuildingBlock: NAHDIM_clean_sbu_0, # of connection points: 4
#     Node 11, Type 0, BuildingBlock: NAHDIM_clean_sbu_0, # of connection points: 4
#     Node 12, Type 0, BuildingBlock: NAHDIM_clean_sbu_0, # of connection points: 4
#     Node 13, Type 0, BuildingBlock: NAHDIM_clean_sbu_0, # of connection points: 4
#     Node 14, Type 0, BuildingBlock: NAHDIM_clean_sbu_0, # of connection points: 4
#     Node 15, Type 0, BuildingBlock: NAHDIM_clean_sbu_0, # of connection points: 4
#     Edge 16, Type (0, 0), BuildingBlock: AJUNOK_clean_linker_0, # of connection points: 2
#     Edge 17, Type (0, 0), BuildingBlock: AJUNOK_clean_linker_0, # of connection points: 2
#     Edge 18, Type (0, 0), BuildingBlock: AJUNOK_clean_linker_0, # of connection points: 2
#     Edge 19, Type (0, 0), BuildingBlock: AJUNOK_clean_linker_0, # of connection points: 2
#     Edge 20, Type (0, 0), BuildingBlock: AJUNOK_clean_linker_0, # of connection points: 2
#     Edge 21, Type (0, 0), BuildingBlock: AJUNOK_clean_linker_0, # of connection points: 2
#     Edge 22, Type (0, 0), BuildingBlock: AJUNOK_clean_linker_0, # of connection points: 2
#     Edge 23, Type (0, 0), BuildingBlock: AJUNOK_clean_linker_0, # of connection points: 2
#     Edge 24, Type (0, 0), BuildingBlock: AJUNOK_clean_linker_0, # of connection points: 2
#     Edge 25, Type (0, 0), BuildingBlock: AJUNOK_clean_linker_0, # of connection points: 2
#     Edge 26, Type (0, 0), BuildingBlock: AJUNOK_clean_linker_0, # of connection points: 2
#     Edge 27, Type (0, 0), BuildingBlock: AJUNOK_clean_linker_0, # of connection points: 2
#     Edge 28, Type (0, 0), BuildingBlock: AJUNOK_clean_linker_0, # of connection points: 2
#     Edge 29, Type (0, 0), BuildingBlock: AJUNOK_clean_linker_0, # of connection points: 2
#     Edge 30, Type (0, 0), BuildingBlock: AJUNOK_clean_linker_0, # of connection points: 2
#     Edge 31, Type (0, 0), BuildingBlock: AJUNOK_clean_linker_0, # of connection points: 2
#     Edge 32, Type (0, 0), BuildingBlock: AJUNOK_clean_linker_0, # of connection points: 2
#     Edge 33, Type (0, 0), BuildingBlock: AJUNOK_clean_linker_0, # of connection points: 2
#     Edge 34, Type (0, 0), BuildingBlock: AJUNOK_clean_linker_0, # of connection points: 2
#     Edge 35, Type (0, 0), BuildingBlock: AJUNOK_clean_linker_0, # of connection points: 2
#     Edge 36, Type (0, 0), BuildingBlock: AJUNOK_clean_linker_0, # of connection points: 2
#     Edge 37, Type (0, 0), BuildingBlock: AJUNOK_clean_linker_0, # of connection points: 2
#     Edge 38, Type (0, 0), BuildingBlock: AJUNOK_clean_linker_0, # of connection points: 2
#     Edge 39, Type (0, 0), BuildingBlock: AJUNOK_clean_linker_0, # of connection points: 2
#     Edge 40, Type (0, 0), BuildingBlock: AJUNOK_clean_linker_0, # of connection points: 2
#     Edge 41, Type (0, 0), BuildingBlock: AJUNOK_clean_linker_0, # of connection points: 2
#     Edge 42, Type (0, 0), BuildingBlock: AJUNOK_clean_linker_0, # of connection points: 2
#     Edge 43, Type (0, 0), BuildingBlock: AJUNOK_clean_linker_0, # of connection points: 2
#     Edge 44, Type (0, 0), BuildingBlock: AJUNOK_clean_linker_0, # of connection points: 2
#     Edge 45, Type (0, 0), BuildingBlock: AJUNOK_clean_linker_0, # of connection points: 2
#     Edge 46, Type (0, 0), BuildingBlock: AJUNOK_clean_linker_0, # of connection points: 2
#     Edge 47, Type (0, 0), BuildingBlock: AJUNOK_clean_linker_0, # of connection points: 2
# Relax obj value: 0.102
# Max RMSD: 0.078
# Mean RMSD: 0.070
data_MOF--net-ure--node1-NAHDIM_clean_sbu_0--edge1-AJUNOK_clean_linker_0
_symmetry_space_group_name_H-M    P1
_symmetry_Int_Tables_number       1
_symmetry_cell_setting            triclinic
loop_
_symmetry_equiv_pos_as_xyz
'x, y, z'
_cell_length_a     22.599523
_cell_length_b     23.598119
_cell_length_c     24.247633
_cell_angle_alpha  90.38761
_cell_angle_beta   91.240453
_cell_angle_gamma 93.277017
loop_
_atom_site_label
_atom_site_type_symbol
_atom_site_fract_x
_atom_site_fract_y
_atom_site_fract_z
_atom_type_partial_charge
C0 C 0.21323 0.18709 0.19292 0.0
O1 O 0.26661 0.1975 0.17362 0.0
O2 O 0.34126 0.24448 0.26725 0.0
Zn3 Zn 0.25699 0.26581 0.27789 0.0
O4 O 0.24893 0.34614 0.25245 0.0
C5 C 0.2585 0.23116 0.3934 0.0
O6 O 0.29262 0.19151 0.37668 0.0
O7 O 0.1992 0.21192 0.23699 0.0
C8 C 0.20471 0.37301 0.26739 0.0
O9 O 0.16339 0.34619 0.29619 0.0
C10 C 0.38228 0.27045 0.29578 0.0
O11 O 0.3678 0.30945 0.33115 0.0
O12 O 0.23852 0.26539 0.35838 0.0
C13 C 0.03326 0.87661 0.47303 0.0
O14 O 0.00282 0.85359 0.51351 0.0
O15 O 0.90293 0.98248 0.48436 0.0
Zn16 Zn 0.98734 0.98303 0.51033 0.0
O17 O 0.98716 0.96759 0.59136 0.0
C18 C 0.99283 0.10023 0.52603 0.0
O19 O 0.95186 0.0836 0.56098 0.0
O20 O 0.03294 0.92979 0.46558 0.0
C21 C 0.02763 0.98463 0.62565 0.0
O22 O 0.07762 0.00813 0.60775 0.0
C23 C 0.85988 0.96061 0.51122 0.0
O24 O 0.87058 0.92975 0.55481 0.0
O25 O 0.01827 0.06298 0.49856 0.0
C26 C 0.27173 0.82077 0.68188 0.0
O27 O 0.22437 0.79716 0.65671 0.0
O28 O 0.13663 0.78472 0.75844 0.0
Zn29 Zn 0.22052 0.76414 0.77576 0.0
O30 O 0.23006 0.6811 0.75991 0.0
C31 C 0.27667 0.75455 0.8829 0.0
O32 O 0.31381 0.72535 0.85483 0.0
O33 O 0.27908 0.8129 0.73328 0.0
C34 C 0.26955 0.66015 0.73065 0.0
O35 O 0.30792 0.69428 0.70542 0.0
C36 C 0.09453 0.74665 0.75923 0.0
O37 O 0.1068 0.69406 0.76977 0.0
O38 O 0.23421 0.77653 0.85723 0.0
C39 C 0.49805 0.08414 0.9025 0.0
O40 O 0.54537 0.06336 0.88136 0.0
O41 O 0.61135 0.01832 0.99174 0.0
Zn42 Zn 0.52278 0.01252 0.99839 0.0
O43 O 0.50086 0.02629 0.07771 0.0
C44 C 0.52132 0.89565 0.01153 0.0
O45 O 0.55898 0.9151 0.05006 0.0
O46 O 0.48158 0.0678 0.94987 0.0
C47 C 0.53853 0.02634 0.11744 0.0
O48 O 0.59446 0.01962 0.10683 0.0
C49 C 0.647 0.0616 0.98798 0.0
O50 O 0.62621 0.11236 0.98485 0.0
O51 O 0.4973 0.93091 0.97988 0.0
C52 C 0.17762 0.75014 0.32546 0.0
O53 O 0.20676 0.70705 0.3432 0.0
O54 O 0.32914 0.76104 0.25901 0.0
Zn55 Zn 0.24851 0.73355 0.23149 0.0
O56 O 0.24215 0.64832 0.23603 0.0
C57 C 0.289 0.74699 0.12275 0.0
O58 O 0.33504 0.72529 0.14692 0.0
O59 O 0.18731 0.76895 0.27729 0.0
C60 C 0.19463 0.61757 0.24124 0.0
O61 O 0.1439 0.64176 0.24477 0.0
C62 C 0.36174 0.73204 0.28989 0.0
O63 O 0.3402 0.68329 0.30886 0.0
O64 O 0.24367 0.75544 0.15133 0.0
C65 C 0.44172 0.95757 0.55411 0.0
O66 O 0.48636 0.98711 0.5779 0.0
O67 O 0.47639 0.09347 0.4757 0.0
Zn68 Zn 0.49382 0.01205 0.46303 0.0
O69 O 0.57579 0.99709 0.49011 0.0
C70 C 0.46819 0.02986 0.34675 0.0
O71 O 0.43391 0.06862 0.36507 0.0
O72 O 0.43448 0.96094 0.50212 0.0
C73 C 0.61841 0.02208 0.46501 0.0
O74 O 0.60632 0.05781 0.42557 0.0
C75 C 0.50085 0.12717 0.51156 0.0
O76 O 0.54095 0.10851 0.54587 0.0
O77 O 0.49425 0.99865 0.38101 0.0
C78 C 0.35868 0.23719 0.77131 0.0
O79 O 0.37328 0.24697 0.71994 0.0
O80 O 0.26329 0.27202 0.66097 0.0
Zn81 Zn 0.2538 0.29615 0.73962 0.0
O82 O 0.17006 0.27185 0.75983 0.0
C83 C 0.28589 0.41495 0.71114 0.0
O84 O 0.30781 0.39381 0.66622 0.0
O85 O 0.31069 0.25568 0.78879 0.0
C86 C 0.12958 0.30692 0.76307 0.0
O87 O 0.14313 0.36106 0.75515 0.0
C88 C 0.22511 0.28457 0.62452 0.0
O89 O 0.18118 0.31537 0.6387 0.0
O90 O 0.26465 0.38138 0.74744 0.0
C91 C 0.04806 0.03128 0.07066 0.0
O92 O 0.99642 0.01355 0.08992 0.0
O93 O 0.0152 0.88268 0.99206 0.0
Zn94 Zn 0.00562 0.96558 0.97588 0.0
O95 O 0.92117 0.98318 0.99112 0.0
C96 C 0.97979 0.98033 0.86003 0.0
O97 O 0.92509 0.97348 0.87693 0.0
O98 O 0.06209 0.0153 0.02276 0.0
C99 C 0.90104 0.0318 0.98351 0.0
O100 O 0.93709 0.07352 0.96673 0.0
C101 C 0.98517 0.84701 0.96166 0.0
O102 O 0.95056 0.86622 0.92275 0.0
O103 O 0.02223 0.97894 0.89521 0.0
C104 C 0.71883 0.33494 0.82295 0.0
O105 O 0.77559 0.34074 0.83593 0.0
O106 O 0.84236 0.27346 0.76337 0.0
Zn107 Zn 0.75684 0.25261 0.74325 0.0
O108 O 0.73868 0.17096 0.76275 0.0
C109 C 0.78321 0.24589 0.62819 0.0
O110 O 0.82386 0.2132 0.64746 0.0
O111 O 0.70153 0.3004 0.78471 0.0
C112 C 0.70836 0.13485 0.73323 0.0
O113 O 0.68506 0.15094 0.68619 0.0
C114 C 0.87948 0.23544 0.77015 0.0
O115 O 0.86067 0.18182 0.7669 0.0
O116 O 0.74712 0.26605 0.66162 0.0
C117 C 0.94886 0.43719 0.04564 0.0
O118 O 0.99189 0.46856 0.06988 0.0
O119 O 0.98202 0.56985 0.96032 0.0
Zn120 Zn 0.99967 0.48798 0.94961 0.0
O121 O 0.08502 0.47601 0.97169 0.0
C122 C 0.00124 0.50974 0.83426 0.0
O123 O 0.02537 0.55844 0.8524 0.0
O124 O 0.94361 0.43819 0.99345 0.0
C125 C 0.12306 0.5167 0.96387 0.0
O126 O 0.10628 0.56386 0.94165 0.0
C127 C 0.99913 0.60431 0.99869 0.0
O128 O 0.03029 0.58611 0.04065 0.0
O129 O 0.98633 0.47131 0.86863 0.0
C130 C 0.78943 0.66374 0.29208 0.0
O131 O 0.74186 0.63641 0.27093 0.0
O132 O 0.74014 0.75511 0.16988 0.0
Zn133 Zn 0.73327 0.763 0.25189 0.0
O134 O 0.65017 0.74246 0.27628 0.0
C135 C 0.76994 0.88139 0.23627 0.0
O136 O 0.78748 0.86357 0.18823 0.0
O137 O 0.79401 0.71752 0.28969 0.0
C138 C 0.61366 0.78108 0.26979 0.0
O139 O 0.63178 0.82867 0.24609 0.0
C140 C 0.70635 0.72929 0.13425 0.0
O141 O 0.6587 0.70003 0.15033 0.0
O142 O 0.74945 0.84547 0.27079 0.0
C143 C 0.96837 0.54063 0.40969 0.0
O144 O 0.02319 0.56118 0.41705 0.0
O145 O 0.09183 0.46975 0.47432 0.0
Zn146 Zn 0.00526 0.45767 0.48862 0.0
O147 O 0.9957 0.48787 0.56472 0.0
C148 C 0.0207 0.33855 0.47027 0.0
O149 O 0.06238 0.35676 0.43672 0.0
O150 O 0.95159 0.49552 0.43462 0.0
C151 C 0.96332 0.46312 0.6004 0.0
O152 O 0.92817 0.41921 0.58537 0.0
C153 C 0.12243 0.51298 0.4924 0.0
O154 O 0.09627 0.55474 0.51603 0.0
O155 O 0.98817 0.37384 0.49276 0.0
C156 C 0.54091 0.45136 0.9438 0.0
O157 O 0.48729 0.42707 0.94661 0.0
O158 O 0.40865 0.51411 0.99434 0.0
Zn159 Zn 0.49356 0.53347 0.01729 0.0
O160 O 0.50285 0.50494 0.09438 0.0
C161 C 0.48537 0.65111 0.98296 0.0
O162 O 0.45616 0.62927 0.9397 0.0
O163 O 0.5528 0.49791 0.96931 0.0
C164 C 0.53779 0.52678 0.13145 0.0
O165 O 0.57325 0.57077 0.11923 0.0
C166 C 0.37133 0.53364 0.02697 0.0
O167 O 0.3913 0.56328 0.07022 0.0
O168 O 0.50644 0.61824 0.01877 0.0
C169 C 0.69233 0.67663 0.72548 0.0
O170 O 0.7409 0.66149 0.75074 0.0
O171 O 0.8087 0.7667 0.77 0.0
Zn172 Zn 0.72277 0.77872 0.7854 0.0
O173 O 0.70497 0.85961 0.7675 0.0
C174 C 0.74674 0.77226 0.90106 0.0
O175 O 0.7961 0.79826 0.88468 0.0
O176 O 0.67421 0.72567 0.73504 0.0
C177 C 0.70698 0.8995 0.80311 0.0
O178 O 0.71945 0.8881 0.85484 0.0
C179 C 0.84881 0.80583 0.76312 0.0
O180 O 0.83537 0.85911 0.767 0.0
O181 O 0.70618 0.75961 0.8652 0.0
C182 C 0.79536 0.29228 0.18205 0.0
O183 O 0.75574 0.25485 0.16102 0.0
O184 O 0.67105 0.25378 0.2807 0.0
Zn185 Zn 0.7578 0.23891 0.28133 0.0
O186 O 0.76901 0.15971 0.25582 0.0
C187 C 0.76601 0.28265 0.39133 0.0
O188 O 0.73227 0.3202 0.36903 0.0
O189 O 0.8037 0.29411 0.23403 0.0
C190 C 0.73814 0.12023 0.27859 0.0
O191 O 0.69945 0.13369 0.31546 0.0
C192 C 0.62916 0.22831 0.25285 0.0
O193 O 0.64154 0.18959 0.21634 0.0
O194 O 0.78608 0.24479 0.36054 0.0
C195 C 0.57919 0.52402 0.55984 0.0
O196 O 0.59949 0.47351 0.55283 0.0
O197 O 0.49692 0.40284 0.50152 0.0
Zn198 Zn 0.4921 0.48468 0.47689 0.0
O199 O 0.40758 0.50528 0.47527 0.0
C200 C 0.49162 0.47388 0.36029 0.0
O201 O 0.44029 0.44818 0.37152 0.0
O202 O 0.53512 0.53799 0.53073 0.0
C203 C 0.37479 0.49201 0.51552 0.0
O204 O 0.39697 0.46485 0.55758 0.0
C205 C 0.45512 0.3657 0.49076 0.0
O206 O 0.40797 0.38057 0.46308 0.0
O207 O 0.52398 0.49452 0.39992 0.0
C208 C 0.18664 0.12049 0.11437 0.0
C209 C 0.17013 0.14707 0.16339 0.0
C210 C 0.14702 0.08305 0.08504 0.0
C211 C 0.08918 0.07031 0.10351 0.0
H212 H 0.23057 0.12871 0.09817 0.0
H213 H 0.16208 0.06396 0.04749 0.0
S214 S 0.02356 0.12837 0.22967 0.0
N215 N 0.09159 0.15777 0.22929 0.0
N216 N 0.01728 0.08737 0.17421 0.0
C217 C 0.07205 0.09626 0.15269 0.0
C218 C 0.11242 0.13461 0.18256 0.0
C219 C 0.08823 0.86545 0.38589 0.0
C220 C 0.0675 0.84174 0.43549 0.0
C221 C 0.12237 0.8349 0.35005 0.0
C222 C 0.13786 0.77951 0.36252 0.0
H223 H 0.0783 0.90825 0.37453 0.0
H224 H 0.13782 0.85554 0.31284 0.0
S225 S 0.09207 0.69645 0.48555 0.0
N226 N 0.06276 0.75833 0.49406 0.0
N227 N 0.12747 0.70094 0.42675 0.0
C228 C 0.1165 0.75468 0.41141 0.0
C229 C 0.08113 0.78571 0.4478 0.0
C230 C 0.34628 0.89945 0.5635 0.0
C231 C 0.39985 0.92207 0.58747 0.0
C232 C 0.30533 0.86683 0.59433 0.0
C233 C 0.31626 0.85532 0.65042 0.0
H234 H 0.33543 0.90738 0.52061 0.0
H235 H 0.26462 0.85078 0.5739 0.0
S236 S 0.45142 0.90235 0.73227 0.0
N237 N 0.4626 0.92908 0.67042 0.0
N238 N 0.38584 0.86785 0.72828 0.0
C239 C 0.37008 0.8771 0.6748 0.0
C240 C 0.41177 0.91041 0.64338 0.0
C241 C 0.47807 0.13877 0.81629 0.0
C242 C 0.46343 0.12542 0.87101 0.0
C243 C 0.4448 0.17584 0.78493 0.0
C244 C 0.39544 0.20123 0.80691 0.0
H245 H 0.51507 0.11984 0.79703 0.0
H246 H 0.45748 0.18383 0.74273 0.0
S247 S 0.34071 0.18352 0.94956 0.0
N248 N 0.39768 0.14296 0.9468 0.0
N249 N 0.33539 0.21242 0.88801 0.0
C250 C 0.38123 0.18947 0.86211 0.0
C251 C 0.41509 0.15167 0.89405 0.0
C252 C 0.61385 0.3521 0.84566 0.0
C253 C 0.67481 0.36652 0.85352 0.0
C254 C 0.57107 0.37992 0.87482 0.0
C255 C 0.58735 0.42374 0.9127 0.0
H256 H 0.59879 0.31851 0.81714 0.0
H257 H 0.52482 0.3669 0.86745 0.0
S258 S 0.74107 0.47817 0.94846 0.0
N259 N 0.74926 0.42792 0.90203 0.0
N260 N 0.66891 0.48033 0.95668 0.0
C261 C 0.64814 0.43904 0.92072 0.0
C262 C 0.6918 0.41039 0.89124 0.0
C263 C 0.9154 0.39989 0.13666 0.0
C264 C 0.90773 0.40083 0.07895 0.0
C265 C 0.87837 0.36532 0.16944 0.0
C266 C 0.83204 0.33002 0.14599 0.0
H267 H 0.95063 0.4258 0.15696 0.0
H268 H 0.88674 0.36595 0.2136 0.0
S269 S 0.7913 0.31819 0.99687 0.0
N270 N 0.84889 0.36448 0.99965 0.0
N271 N 0.77937 0.29939 0.0613 0.0
C272 C 0.82315 0.33108 0.08833 0.0
C273 C 0.86092 0.36646 0.05484 0.0
C274 C 0.86796 0.54674 0.36518 0.0
C275 C 0.9251 0.57173 0.3764 0.0
C276 C 0.8248 0.57638 0.33698 0.0
C277 C 0.83679 0.63242 0.31937 0.0
H278 H 0.85607 0.50405 0.37879 0.0
H279 H 0.78129 0.55552 0.33005 0.0
S280 S 0.98043 0.7163 0.33521 0.0
N281 N 0.99213 0.65521 0.36511 0.0
N282 N 0.91093 0.71092 0.31261 0.0
C283 C 0.89413 0.65756 0.32913 0.0
C284 C 0.93829 0.62721 0.35743 0.0
C285 C 0.66074 0.55163 0.62776 0.0
C286 C 0.60655 0.56367 0.60206 0.0
C287 C 0.68764 0.5881 0.66791 0.0
C288 C 0.66145 0.63813 0.68415 0.0
H289 H 0.68299 0.51389 0.61658 0.0
H290 H 0.72969 0.57707 0.68592 0.0
S291 S 0.51796 0.68792 0.63147 0.0
N292 N 0.5265 0.62847 0.59705 0.0
N293 N 0.57703 0.69691 0.67249 0.0
C294 C 0.60683 0.65042 0.65927 0.0
C295 C 0.57944 0.61328 0.61826 0.0
C296 C 0.2092 0.28215 0.46876 0.0
C297 C 0.24711 0.23988 0.4528 0.0
C298 C 0.20113 0.29508 0.52436 0.0
C299 C 0.23144 0.26706 0.56635 0.0
H300 H 0.18598 0.30621 0.43808 0.0
H301 H 0.17187 0.32825 0.53431 0.0
S302 S 0.32943 0.14773 0.54743 0.0
N303 N 0.31012 0.16564 0.48413 0.0
N304 N 0.29653 0.19144 0.58869 0.0
C305 C 0.26763 0.22314 0.55129 0.0
C306 C 0.27502 0.20917 0.49455 0.0
C307 C 0.04944 0.97902 0.78102 0.0
C308 C 0.9917 0.98476 0.80033 0.0
C309 C 0.06095 0.97926 0.7244 0.0
C310 C 0.01503 0.98448 0.68514 0.0
H311 H 0.08599 0.97343 0.80973 0.0
H312 H 0.1059 0.97432 0.71129 0.0
S313 S 0.85703 0.00586 0.71387 0.0
N314 N 0.88881 -0.00014 0.7753 0.0
N315 N 0.91035 0.99924 0.66924 0.0
C316 C 0.95736 0.99148 0.7038 0.0
C317 C 0.94574 0.992 0.76131 0.0
C318 C 0.32531 0.72814 0.972 0.0
C319 C 0.28145 0.75758 0.94408 0.0
C320 C 0.3286 0.72677 0.02969 0.0
C321 C 0.28759 0.75412 0.06201 0.0
H322 H 0.35674 0.70477 0.9492 0.0
H323 H 0.36249 0.70239 0.04893 0.0
S324 S 0.16746 0.8416 0.00965 0.0
N325 N 0.1986 0.81837 0.95352 0.0
N326 N 0.20422 0.81483 0.062 0.0
C327 C 0.24458 0.78521 0.03483 0.0
C328 C 0.24162 0.78715 0.97594 0.0
C329 C 0.53874 0.00855 0.2727 0.0
C330 C 0.48358 0.028 0.28777 0.0
C331 C 0.55636 0.00924 0.21773 0.0
C332 C 0.51914 0.0285 0.17539 0.0
H333 H 0.56921 0.99359 0.30374 0.0
H334 H 0.59933 0.99386 0.20843 0.0
S335 S 0.36953 0.08272 0.1929 0.0
N336 N 0.39165 0.06691 0.25602 0.0
N337 N 0.42419 0.06717 0.15232 0.0
C338 C 0.4636 0.04769 0.18979 0.0
C339 C 0.44601 0.04775 0.24603 0.0
C340 C 0.46053 0.22144 0.24488 0.0
C341 C 0.44549 0.25922 0.28687 0.0
C342 C 0.51984 0.2117 0.23403 0.0
C343 C 0.56665 0.23965 0.26454 0.0
H344 H 0.42627 0.19958 0.21961 0.0
H345 H 0.52888 0.18216 0.2013 0.0
S346 S 0.55163 0.3417 0.38007 0.0
N347 N 0.48288 0.32395 0.35981 0.0
N348 N 0.5938 0.30584 0.33953 0.0
C349 C 0.55227 0.27715 0.30701 0.0
C350 C 0.49193 0.28686 0.31817 0.0
C351 C 0.03241 0.23609 0.44925 0.0
C352 C 0.01514 0.27819 0.48584 0.0
C353 C 0.02669 0.17853 0.46318 0.0
C354 C 0.0039 0.1612 0.51436 0.0
H355 H 0.04933 0.24757 0.40912 0.0
H356 H 0.0388 0.14739 0.43304 0.0
S357 S 0.96223 0.25573 0.62827 0.0
N358 N 0.98072 0.29921 0.57771 0.0
N359 N 0.97039 0.19116 0.60407 0.0
C360 C 0.98918 0.20311 0.55231 0.0
C361 C 0.99467 0.26159 0.538 0.0
C362 C 0.95758 0.83151 0.76931 0.0
C363 C 0.91113 0.79127 0.75601 0.0
C364 C 0.01695 0.8174 0.76821 0.0
C365 C 0.03208 0.76218 0.75426 0.0
H366 H 0.94788 0.87358 0.78283 0.0
H367 H 0.05102 0.84941 0.78056 0.0
S368 S 0.92743 0.64254 0.71048 0.0
N369 N 0.88458 0.69508 0.72379 0.0
N370 N 0.99596 0.66815 0.7229 0.0
C371 C 0.98619 0.72205 0.73885 0.0
C372 C 0.92579 0.73667 0.73934 0.0
C373 C 0.48342 0.75052 0.94676 0.0
C374 C 0.49237 0.71347 0.9911 0.0
C375 C 0.49127 0.80965 0.95375 0.0
C376 C 0.50875 0.83368 0.00522 0.0
H377 H 0.47105 0.73378 0.90617 0.0
H378 H 0.48506 0.83657 0.91832 0.0
S379 S 0.53055 0.75568 0.13572 0.0
N380 N 0.51417 0.7056 0.0893 0.0
N381 N 0.52995 0.81619 0.10215 0.0
C382 C 0.51594 0.79719 0.05017 0.0
C383 C 0.5075 0.73726 0.04319 0.0
C384 C 0.50926 0.80904 0.26286 0.0
C385 C 0.55038 0.77149 0.28349 0.0
C386 C 0.44837 0.79744 0.26793 0.0
C387 C 0.42596 0.74829 0.29471 0.0
H388 H 0.52385 0.84636 0.23995 0.0
H389 H 0.41873 0.82623 0.24855 0.0
S390 S 0.5153 0.64474 0.36912 0.0
N391 N 0.56492 0.68861 0.34032 0.0
N392 N 0.44998 0.6674 0.35102 0.0
C393 C 0.46664 0.71337 0.3204 0.0
C394 C 0.52896 0.72482 0.31453 0.0
C395 C 0.44762 0.20678 0.47006 0.0
C396 C 0.48669 0.18781 0.51109 0.0
C397 C 0.43501 0.26386 0.46624 0.0
C398 C 0.46305 0.30498 0.50157 0.0
H399 H 0.42677 0.17745 0.44001 0.0
H400 H 0.40479 0.276 0.43376 0.0
S401 S 0.56166 0.27718 0.6214 0.0
N402 N 0.54755 0.2142 0.59238 0.0
N403 N 0.52598 0.32242 0.58314 0.0
C404 C 0.50027 0.2867 0.54426 0.0
C405 C 0.51183 0.22799 0.54931 0.0
C406 C 0.02312 0.32672 0.77485 0.0
C407 C 0.06686 0.28689 0.7706 0.0
C408 C 0.96293 0.30946 0.77696 0.0
C409 C 0.9438 0.2517 0.77474 0.0
H410 H 0.03519 0.37182 0.77536 0.0
H411 H 0.93101 0.34181 0.77893 0.0
S412 S 0.0407 0.13006 0.76709 0.0
N413 N 0.08701 0.18669 0.76714 0.0
N414 N 0.97387 0.1543 0.77098 0.0
C415 C 0.98717 0.21121 0.7727 0.0
C416 C 0.04862 0.2288 0.7706 0.0
C417 C 0.02073 0.76454 0.01558 0.0
C418 C 0.98741 0.78497 0.97094 0.0
C419 C 0.02311 0.70616 0.02532 0.0
C420 C 0.99173 0.66587 0.99113 0.0
H421 H 0.04528 0.7938 0.04335 0.0
H422 H 0.05052 0.69263 0.05942 0.0
S423 S 0.89391 0.69688 0.87145 0.0
N424 N 0.92061 0.75974 0.89334 0.0
N425 N 0.92322 0.65065 0.91298 0.0
C426 C 0.95678 0.68574 0.9474 0.0
C427 C 0.95514 0.74503 0.93694 0.0
C428 C 0.15219 0.46348 0.27356 0.0
C429 C 0.20184 0.43479 0.25673 0.0
C430 C 0.14967 0.52235 0.26743 0.0
C431 C 0.19698 0.55505 0.24478 0.0
H432 H 0.11507 0.44049 0.29234 0.0
H433 H 0.11087 0.54247 0.28176 0.0
S434 S 0.33579 0.50079 0.19127 0.0
N435 N 0.29831 0.44379 0.21378 0.0
N436 N 0.294 0.55431 0.2034 0.0
C437 C 0.24643 0.52693 0.22685 0.0
C438 C 0.24873 0.4669 0.23246 0.0
C439 C 0.72485 0.06009 0.80354 0.0
C440 C 0.70283 0.07476 0.75105 0.0
C441 C 0.72419 0.00353 0.82056 0.0
C442 C 0.70194 0.95911 0.78565 0.0
H443 H 0.74374 0.09244 0.83168 0.0
H444 H 0.74292 0.99462 0.86089 0.0
S445 S 0.63433 0.97465 0.64601 0.0
N446 N 0.65455 0.04017 0.66558 0.0
N447 N 0.65367 0.93371 0.69752 0.0
C448 C 0.67799 0.97312 0.73374 0.0
C449 C 0.67828 0.03092 0.71649 0.0
C450 C 0.28473 0.48482 0.97606 0.0
C451 C 0.3067 0.52554 0.01533 0.0
C452 C 0.22407 0.47905 0.96195 0.0
C453 C 0.18399 0.51492 0.98553 0.0
H454 H 0.31463 0.45773 0.95551 0.0
H455 H 0.20894 0.44814 0.93079 0.0
S456 S 0.21614 0.62279 0.09468 0.0
N457 N 0.2813 0.59806 0.08154 0.0
N458 N 0.1681 0.58816 0.05289 0.0
C459 C 0.20455 0.55377 0.02628 0.0
C460 C 0.26577 0.55891 0.0417 0.0
C461 C 0.71973 0.01745 0.29873 0.0
C462 C 0.74752 0.05994 0.26634 0.0
C463 C 0.72876 0.96012 0.28962 0.0
C464 C 0.7653 0.94271 0.24715 0.0
H465 H 0.69065 0.02831 0.3316 0.0
H466 H 0.7058 0.9292 0.31554 0.0
S467 S 0.84805 0.03706 0.15 0.0
N468 N 0.81325 0.08071 0.18984 0.0
N469 N 0.82963 0.97261 0.17224 0.0
C470 C 0.7933 0.98465 0.21418 0.0
C471 C 0.78452 0.04329 0.22384 0.0
C472 C 0.81263 0.09009 0.96908 0.0
C473 C 0.83654 0.0396 0.98776 0.0
C474 C 0.75142 0.09725 0.96975 0.0
C475 C 0.71173 0.05413 0.98894 0.0
H476 H 0.84122 0.12416 0.95294 0.0
H477 H 0.73509 0.1365 0.95422 0.0
S478 S 0.7517 0.91561 0.04664 0.0
N479 N 0.81552 0.94693 0.02884 0.0
N480 N 0.70099 0.96046 0.03022 0.0
C481 C 0.73512 0.00395 0.00892 0.0
C482 C 0.79733 0.99668 0.0083 0.0
C483 C 0.30832 0.57378 0.68618 0.0
C484 C 0.27331 0.59764 0.72662 0.0
C485 C 0.31243 0.5148 0.68169 0.0
C486 C 0.28215 0.47732 0.71775 0.0
H487 H 0.33244 0.60075 0.65736 0.0
H488 H 0.33966 0.49858 0.64969 0.0
S489 S 0.18402 0.51823 0.83047 0.0
N490 N 0.20774 0.57905 0.80348 0.0
N491 N 0.21522 0.46863 0.79494 0.0
C492 C 0.24709 0.5007 0.75848 0.0
C493 C 0.24273 0.56066 0.76291 0.0
C494 C 0.20949 0.46351 0.52605 0.0
C495 C 0.18677 0.50984 0.49826 0.0
C496 C 0.2706 0.45899 0.53301 0.0
C497 C 0.31086 0.50023 0.51147 0.0
H498 H 0.1797 0.43085 0.54297 0.0
H499 H 0.28635 0.42222 0.55406 0.0
S500 S 0.27321 0.6304 0.43677 0.0
N501 N 0.20833 0.59853 0.45083 0.0
N502 N 0.32382 0.58949 0.46237 0.0
C503 C 0.28858 0.54704 0.48397 0.0
C504 C 0.22624 0.5521 0.47789 0.0
C505 C 0.68471 0.73237 0.97811 0.0
C506 C 0.73815 0.7594 0.96041 0.0
C507 C 0.67528 0.72112 0.03416 0.0
C508 C 0.71877 0.73669 0.07473 0.0
H509 H 0.64949 0.72027 0.94861 0.0
H510 H 0.63315 0.70105 0.04575 0.0
S511 S 0.8674 0.8062 0.05025 0.0
N512 N 0.83577 0.80002 0.9884 0.0
N513 N 0.81839 0.77816 0.09294 0.0
C514 C 0.77293 0.76239 0.05742 0.0
C515 C 0.78249 0.77398 0.00055 0.0
C516 C 0.55127 0.5251 0.28794 0.0
C517 C 0.50905 0.48179 0.3021 0.0
C518 C 0.56211 0.53828 0.23258 0.0
C519 C 0.53244 0.50741 0.18933 0.0
H520 H 0.57457 0.55047 0.31974 0.0
H521 H 0.59263 0.57399 0.2238 0.0
S522 S 0.42872 0.38092 0.20462 0.0
N523 N 0.44369 0.40309 0.26834 0.0
N524 N 0.4669 0.42522 0.16478 0.0
C525 C 0.49439 0.46056 0.20308 0.0
C526 C 0.48203 0.44834 0.25931 0.0
C527 C 0.81651 0.24488 0.47518 0.0
C528 C 0.7735 0.27904 0.45214 0.0
C529 C 0.81949 0.23479 0.53203 0.0
C530 C 0.78011 0.25911 0.56838 0.0
H531 H 0.84762 0.22489 0.449 0.0
H532 H 0.85249 0.20696 0.54732 0.0
S533 S 0.66342 0.35699 0.52949 0.0
N534 N 0.69316 0.34034 0.47049 0.0
N535 N 0.69974 0.32276 0.57739 0.0
C536 C 0.73874 0.29565 0.54616 0.0
C537 C 0.73539 0.30548 0.48813 0.0
C538 C 0.93396 0.45305 0.69897 0.0
C539 C 0.97134 0.47874 0.65948 0.0
C540 C 0.94365 0.46367 0.75547 0.0
C541 C 0.99113 0.50014 0.77454 0.0
H542 H 0.89726 0.42398 0.68631 0.0
H543 H 0.91366 0.44324 0.78444 0.0
S544 S 0.10267 0.57735 0.68865 0.0
N545 N 0.05813 0.54232 0.64392 0.0
N546 N 0.07596 0.56198 0.7499 0.0
C547 C 0.02838 0.52668 0.73567 0.0
C548 C 0.01863 0.51599 0.6782 0.0
C549 C 0.75001 0.94361 0.51805 0.0
C550 C 0.79876 0.97606 0.49771 0.0
C551 C 0.69186 0.95904 0.50765 0.0
C552 C 0.68032 0.00794 0.47719 0.0
H553 H 0.75671 0.90579 0.54194 0.0
H554 H 0.65572 0.93205 0.52326 0.0
S555 S 0.79284 0.10968 0.41843 0.0
N556 N 0.83181 0.06049 0.44732 0.0
N557 N 0.72282 0.09038 0.42945 0.0
C558 C 0.72877 0.04136 0.45758 0.0
C559 C 0.78787 0.0252 0.4674 0.0
loop_
_geom_bond_atom_site_label_1
_geom_bond_atom_site_label_2
_geom_bond_distance
_geom_bond_site_symmetry_2
_ccdc_geom_bond_type
C0 O1 1.160 . S
C0 O7 1.185 . S
O1 C0 1.160 . S
O2 Zn3 1.899 . S
O2 C10 1.284 . S
Zn3 O2 1.899 . S
Zn3 O4 2.032 . S
Zn3 O7 2.086 . S
Zn3 O12 1.977 . S
O4 Zn3 2.032 . S
O4 C8 1.278 . S
C5 O6 1.203 . S
C5 O12 1.267 . S
O6 C5 1.203 . S
O7 C0 1.185 . S
O7 Zn3 2.086 . S
C8 O4 1.278 . S
C8 O9 1.211 . S
O9 C8 1.211 . S
C10 O2 1.284 . S
C10 O11 1.273 . S
O11 C10 1.273 . S
O12 Zn3 1.977 . S
O12 C5 1.267 . S
C13 O14 1.160 1_455 S
C13 O20 1.185 . S
O14 C13 1.160 1_655 S
O15 Zn16 1.899 . S
O15 C23 1.284 1_545 S
Zn16 O15 1.899 . S
Zn16 O17 2.032 1_545 S
Zn16 O20 2.086 1_645 S
Zn16 O25 1.977 1_655 S
O17 Zn16 2.032 1_565 S
O17 C21 1.278 . S
C18 O19 1.203 . S
C18 O25 1.267 1_655 S
O19 C18 1.203 . S
O20 C13 1.185 . S
O20 Zn16 2.086 1_465 S
C21 O17 1.278 . S
C21 O22 1.211 1_565 S
O22 C21 1.211 1_545 S
C23 O15 1.284 1_565 S
C23 O24 1.273 1_565 S
O24 C23 1.273 1_545 S
O25 Zn16 1.977 1_455 S
O25 C18 1.267 1_455 S
C26 O27 1.160 . S
C26 O33 1.185 . S
O27 C26 1.160 . S
O28 Zn29 1.899 . S
O28 C36 1.284 . S
Zn29 O28 1.899 . S
Zn29 O30 2.032 . S
Zn29 O33 2.086 . S
Zn29 O38 1.977 . S
O30 Zn29 2.032 . S
O30 C34 1.278 . S
C31 O32 1.203 . S
C31 O38 1.267 . S
O32 C31 1.203 . S
O33 C26 1.185 . S
O33 Zn29 2.086 . S
C34 O30 1.278 . S
C34 O35 1.211 . S
O35 C34 1.211 . S
C36 O28 1.284 . S
C36 O37 1.273 . S
O37 C36 1.273 . S
O38 Zn29 1.977 . S
O38 C31 1.267 . S
C39 O40 1.160 . S
C39 O46 1.185 . S
O40 C39 1.160 . S
O41 Zn42 1.899 1_556 S
O41 C49 1.285 . S
Zn42 O41 1.899 1_554 S
Zn42 O43 2.032 1_565 S
Zn42 O46 2.086 1_564 S
Zn42 O51 1.977 1_554 S
O43 Zn42 2.032 1_545 S
O43 C47 1.278 1_545 S
C44 O45 1.203 . S
C44 O51 1.265 1_554 S
O45 C44 1.203 . S
O46 C39 1.185 . S
O46 Zn42 2.086 1_546 S
C47 O43 1.278 1_565 S
C47 O48 1.211 . S
O48 C47 1.211 . S
C49 O41 1.285 . S
C49 O50 1.271 1_556 S
O50 C49 1.271 1_554 S
O51 Zn42 1.977 1_556 S
O51 C44 1.265 1_556 S
C52 O53 1.160 . S
C52 O59 1.185 . S
O53 C52 1.160 . S
O54 Zn55 1.899 . S
O54 C62 1.284 . S
Zn55 O54 1.899 . S
Zn55 O56 2.032 . S
Zn55 O59 2.086 . S
Zn55 O64 1.977 . S
O56 Zn55 2.032 . S
O56 C60 1.278 . S
C57 O58 1.203 . S
C57 O64 1.267 . S
O58 C57 1.203 . S
O59 C52 1.185 . S
O59 Zn55 2.086 . S
C60 O56 1.278 . S
C60 O61 1.211 . S
O61 C60 1.211 . S
C62 O54 1.284 . S
C62 O63 1.273 . S
O63 C62 1.273 . S
O64 Zn55 1.977 . S
O64 C57 1.267 . S
C65 O66 1.160 1_565 S
C65 O72 1.185 . S
O66 C65 1.160 1_545 S
O67 Zn68 1.899 . S
O67 C75 1.284 . S
Zn68 O67 1.899 . S
Zn68 O69 2.032 . S
Zn68 O72 2.086 1_545 S
Zn68 O77 1.977 1_545 S
O69 Zn68 2.032 . S
O69 C73 1.278 . S
C70 O71 1.203 . S
C70 O77 1.267 1_545 S
O71 C70 1.203 . S
O72 C65 1.185 . S
O72 Zn68 2.086 1_565 S
C73 O69 1.278 . S
C73 O74 1.211 . S
O74 C73 1.211 . S
C75 O67 1.284 . S
C75 O76 1.273 . S
O76 C75 1.273 . S
O77 Zn68 1.977 1_565 S
O77 C70 1.267 1_565 S
C78 O79 1.160 . S
C78 O85 1.185 . S
O79 C78 1.160 . S
O80 Zn81 1.899 . S
O80 C88 1.284 . S
Zn81 O80 1.899 . S
Zn81 O82 2.032 . S
Zn81 O85 2.086 . S
Zn81 O90 1.977 . S
O82 Zn81 2.032 . S
O82 C86 1.278 . S
C83 O84 1.203 . S
C83 O90 1.267 . S
O84 C83 1.203 . S
O85 C78 1.185 . S
O85 Zn81 2.086 . S
C86 O82 1.278 . S
C86 O87 1.211 . S
O87 C86 1.211 . S
C88 O80 1.284 . S
C88 O89 1.273 . S
O89 C88 1.273 . S
O90 Zn81 1.977 . S
O90 C83 1.267 . S
C91 O92 1.160 1_545 S
C91 O98 1.169 1_554 S
O92 C91 1.160 1_565 S
O93 Zn94 1.899 1_455 S
O93 C101 1.284 1_455 S
Zn94 O93 1.899 1_655 S
Zn94 O95 2.032 . S
Zn94 O98 2.094 1_665 S
Zn94 O103 1.977 1_665 S
O95 Zn94 2.032 . S
O95 C99 1.278 . S
C96 O97 1.203 . S
C96 O103 1.267 1_665 S
O97 C96 1.203 . S
O98 C91 1.169 1_556 S
O98 Zn94 2.094 1_445 S
C99 O95 1.278 . S
C99 O100 1.211 . S
O100 C99 1.211 . S
C101 O93 1.284 1_655 S
C101 O102 1.273 . S
O102 C101 1.273 . S
O103 Zn94 1.977 1_445 S
O103 C96 1.267 1_445 S
C104 O105 1.160 . S
C104 O111 1.185 . S
O105 C104 1.160 . S
O106 Zn107 1.899 . S
O106 C114 1.284 . S
Zn107 O106 1.899 . S
Zn107 O108 2.032 . S
Zn107 O111 2.086 . S
Zn107 O116 1.977 . S
O108 Zn107 2.032 . S
O108 C112 1.278 . S
C109 O110 1.203 . S
C109 O116 1.267 . S
O110 C109 1.203 . S
O111 C104 1.185 . S
O111 Zn107 2.086 . S
C112 O108 1.278 . S
C112 O113 1.211 . S
O113 C112 1.211 . S
C114 O106 1.284 . S
C114 O115 1.273 . S
O115 C114 1.273 . S
O116 Zn107 1.977 . S
O116 C109 1.267 . S
C117 O118 1.160 . S
C117 O124 1.185 1_554 S
O118 C117 1.160 . S
O119 Zn120 1.899 1_655 S
O119 C127 1.284 1_655 S
Zn120 O119 1.899 1_455 S
Zn120 O121 2.032 . S
Zn120 O124 2.086 1_455 S
Zn120 O129 1.977 1_455 S
O121 Zn120 2.032 . S
O121 C125 1.278 . S
C122 O123 1.203 . S
C122 O129 1.267 1_455 S
O123 C122 1.203 . S
O124 C117 1.185 1_556 S
O124 Zn120 2.086 1_655 S
C125 O121 1.278 . S
C125 O126 1.211 . S
O126 C125 1.211 . S
C127 O119 1.284 1_455 S
C127 O128 1.273 . S
O128 C127 1.273 . S
O129 Zn120 1.977 1_655 S
O129 C122 1.267 1_655 S
C130 O131 1.160 . S
C130 O137 1.185 . S
O131 C130 1.160 . S
O132 Zn133 1.899 . S
O132 C140 1.284 . S
Zn133 O132 1.899 . S
Zn133 O134 2.032 . S
Zn133 O137 2.086 . S
Zn133 O142 1.977 . S
O134 Zn133 2.032 . S
O134 C138 1.278 . S
C135 O136 1.203 . S
C135 O142 1.267 . S
O136 C135 1.203 . S
O137 C130 1.185 . S
O137 Zn133 2.086 . S
C138 O134 1.278 . S
C138 O139 1.211 . S
O139 C138 1.211 . S
C140 O132 1.284 . S
C140 O141 1.273 . S
O141 C140 1.273 . S
O142 Zn133 1.977 . S
O142 C135 1.267 . S
C143 O144 1.160 1_655 S
C143 O150 1.185 . S
O144 C143 1.160 1_455 S
O145 Zn146 1.899 . S
O145 C153 1.284 . S
Zn146 O145 1.899 . S
Zn146 O147 2.029 1_455 S
Zn146 O150 2.086 1_455 S
Zn146 O155 1.977 1_455 S
O147 Zn146 2.029 1_655 S
O147 C151 1.276 1_655 S
C148 O149 1.203 . S
C148 O155 1.267 1_455 S
O149 C148 1.203 . S
O150 C143 1.185 . S
O150 Zn146 2.086 1_655 S
C151 O147 1.276 1_455 S
C151 O152 1.211 . S
O152 C151 1.211 . S
C153 O145 1.284 . S
C153 O154 1.273 . S
O154 C153 1.273 . S
O155 Zn146 1.977 1_655 S
O155 C148 1.267 1_655 S
C156 O157 1.160 . S
C156 O163 1.185 . S
O157 C156 1.160 . S
O158 Zn159 1.899 1_556 S
O158 C166 1.284 1_556 S
Zn159 O158 1.899 1_554 S
Zn159 O160 2.032 . S
Zn159 O163 2.086 1_554 S
Zn159 O168 1.977 . S
O160 Zn159 2.032 . S
O160 C164 1.278 . S
C161 O162 1.203 . S
C161 O168 1.267 . S
O162 C161 1.203 . S
O163 C156 1.185 . S
O163 Zn159 2.086 1_556 S
C164 O160 1.278 . S
C164 O165 1.211 . S
O165 C164 1.211 . S
C166 O158 1.284 1_554 S
C166 O167 1.273 . S
O167 C166 1.273 . S
O168 Zn159 1.977 . S
O168 C161 1.267 . S
C169 O170 1.160 . S
C169 O176 1.185 . S
O170 C169 1.160 . S
O171 Zn172 1.899 . S
O171 C179 1.284 . S
Zn172 O171 1.899 . S
Zn172 O173 2.032 . S
Zn172 O176 2.086 . S
Zn172 O181 1.977 . S
O173 Zn172 2.032 . S
O173 C177 1.278 . S
C174 O175 1.203 . S
C174 O181 1.267 . S
O175 C174 1.203 . S
O176 C169 1.185 . S
O176 Zn172 2.086 . S
C177 O173 1.278 . S
C177 O178 1.211 . S
O178 C177 1.211 . S
C179 O171 1.284 . S
C179 O180 1.273 . S
O180 C179 1.273 . S
O181 Zn172 1.977 . S
O181 C174 1.267 . S
C182 O183 1.160 . S
C182 O189 1.185 . S
O183 C182 1.160 . S
O184 Zn185 1.899 . S
O184 C192 1.284 . S
Zn185 O184 1.899 . S
Zn185 O186 2.032 . S
Zn185 O189 2.086 . S
Zn185 O194 1.977 . S
O186 Zn185 2.032 . S
O186 C190 1.278 . S
C187 O188 1.203 . S
C187 O194 1.267 . S
O188 C187 1.203 . S
O189 C182 1.185 . S
O189 Zn185 2.086 . S
C190 O186 1.278 . S
C190 O191 1.211 . S
O191 C190 1.211 . S
C192 O184 1.284 . S
C192 O193 1.273 . S
O193 C192 1.273 . S
O194 Zn185 1.977 . S
O194 C187 1.267 . S
C195 O196 1.160 . S
C195 O202 1.185 . S
O196 C195 1.160 . S
O197 Zn198 1.899 . S
O197 C205 1.284 . S
Zn198 O197 1.899 . S
Zn198 O199 2.032 . S
Zn198 O202 2.086 . S
Zn198 O207 1.977 . S
O199 Zn198 2.032 . S
O199 C203 1.278 . S
C200 O201 1.203 . S
C200 O207 1.267 . S
O201 C200 1.203 . S
O202 C195 1.185 . S
O202 Zn198 2.086 . S
C203 O199 1.278 . S
C203 O204 1.211 . S
O204 C203 1.211 . S
C205 O197 1.284 . S
C205 O206 1.273 . S
O206 C205 1.273 . S
O207 Zn198 1.977 . S
O207 C200 1.267 . S
C208 C209 1.369 . S
C208 C210 1.419 . S
C208 H212 0.930 . S
C209 C208 1.369 . S
C209 C218 1.429 . S
C210 C208 1.419 . S
C210 C211 1.363 . S
C210 H213 0.929 . S
C211 C210 1.363 . S
C211 C217 1.428 . S
H212 C208 0.930 . S
H213 C210 0.929 . S
S214 N215 1.613 1_655 S
S214 N216 1.612 . S
N215 S214 1.613 1_455 S
N215 C218 1.350 . S
N216 S214 1.612 . S
N216 C217 1.346 1_655 S
C217 C211 1.428 . S
C217 N216 1.346 1_455 S
C217 C218 1.434 . S
C218 C209 1.429 . S
C218 N215 1.350 . S
C218 C217 1.434 . S
C219 C220 1.369 . S
C219 C221 1.419 . S
C219 H223 0.930 . S
C220 C219 1.369 . S
C220 C229 1.429 . S
C221 C219 1.419 . S
C221 C222 1.363 . S
C221 H224 0.929 . S
C222 C221 1.363 . S
C222 C228 1.428 . S
H223 C219 0.930 . S
H224 C221 0.929 . S
S225 N226 1.613 . S
S225 N227 1.610 . S
N226 S225 1.613 . S
N226 C229 1.350 . S
N227 S225 1.610 . S
N227 C228 1.351 . S
C228 C222 1.428 . S
C228 N227 1.351 . S
C228 C229 1.434 . S
C229 C220 1.429 . S
C229 N226 1.350 . S
C229 C228 1.434 . S
C230 C231 1.369 . S
C230 C232 1.419 . S
C230 H234 0.930 . S
C231 C230 1.369 . S
C231 C240 1.429 . S
C232 C230 1.419 . S
C232 C233 1.363 . S
C232 H235 0.929 . S
C233 C232 1.363 . S
C233 C239 1.428 . S
H234 C230 0.930 . S
H235 C232 0.929 . S
S236 N237 1.613 . S
S236 N238 1.610 . S
N237 S236 1.613 . S
N237 C240 1.350 . S
N238 S236 1.610 . S
N238 C239 1.351 . S
C239 C233 1.428 . S
C239 N238 1.351 . S
C239 C240 1.434 . S
C240 C231 1.429 . S
C240 N237 1.350 . S
C240 C239 1.434 . S
C241 C242 1.369 . S
C241 C243 1.419 . S
C241 H245 0.930 . S
C242 C241 1.369 . S
C242 C251 1.429 . S
C243 C241 1.419 . S
C243 C244 1.363 . S
C243 H246 0.929 . S
C244 C243 1.363 . S
C244 C250 1.428 . S
H245 C241 0.930 . S
H246 C243 0.929 . S
S247 N248 1.613 . S
S247 N249 1.610 . S
N248 S247 1.613 . S
N248 C251 1.350 . S
N249 S247 1.610 . S
N249 C250 1.351 . S
C250 C244 1.428 . S
C250 N249 1.351 . S
C250 C251 1.434 . S
C251 C242 1.429 . S
C251 N248 1.350 . S
C251 C250 1.434 . S
C252 C253 1.369 . S
C252 C254 1.419 . S
C252 H256 0.930 . S
C253 C252 1.369 . S
C253 C262 1.429 . S
C254 C252 1.419 . S
C254 C255 1.363 . S
C254 H257 0.929 . S
C255 C254 1.363 . S
C255 C261 1.428 . S
H256 C252 0.930 . S
H257 C254 0.929 . S
S258 N259 1.613 . S
S258 N260 1.610 . S
N259 S258 1.613 . S
N259 C262 1.350 . S
N260 S258 1.610 . S
N260 C261 1.351 . S
C261 C255 1.428 . S
C261 N260 1.351 . S
C261 C262 1.434 . S
C262 C253 1.429 . S
C262 N259 1.350 . S
C262 C261 1.434 . S
C263 C264 1.369 . S
C263 C265 1.419 . S
C263 H267 0.930 . S
C264 C263 1.369 . S
C264 C273 1.429 . S
C265 C263 1.419 . S
C265 C266 1.363 . S
C265 H268 0.929 . S
C266 C265 1.363 . S
C266 C272 1.428 . S
H267 C263 0.930 . S
H268 C265 0.929 . S
S269 N270 1.613 . S
S269 N271 1.610 . S
N270 S269 1.613 . S
N270 C273 1.350 . S
N271 S269 1.610 . S
N271 C272 1.351 . S
C272 C266 1.428 . S
C272 N271 1.351 . S
C272 C273 1.434 . S
C273 C264 1.429 . S
C273 N270 1.350 . S
C273 C272 1.434 . S
C274 C275 1.369 . S
C274 C276 1.419 . S
C274 H278 0.930 . S
C275 C274 1.369 . S
C275 C284 1.429 . S
C276 C274 1.419 . S
C276 C277 1.363 . S
C276 H279 0.929 . S
C277 C276 1.363 . S
C277 C283 1.428 . S
H278 C274 0.930 . S
H279 C276 0.929 . S
S280 N281 1.613 1_455 S
S280 N282 1.610 1_455 S
N281 S280 1.613 1_655 S
N281 C284 1.350 . S
N282 S280 1.610 1_655 S
N282 C283 1.351 . S
C283 C277 1.428 . S
C283 N282 1.351 . S
C283 C284 1.434 . S
C284 C275 1.429 . S
C284 N281 1.350 . S
C284 C283 1.434 . S
C285 C286 1.369 . S
C285 C287 1.419 . S
C285 H289 0.930 . S
C286 C285 1.369 . S
C286 C295 1.429 . S
C287 C285 1.419 . S
C287 C288 1.363 . S
C287 H290 0.929 . S
C288 C287 1.363 . S
C288 C294 1.428 . S
H289 C285 0.930 . S
H290 C287 0.929 . S
S291 N292 1.613 . S
S291 N293 1.610 . S
N292 S291 1.613 . S
N292 C295 1.350 . S
N293 S291 1.610 . S
N293 C294 1.351 . S
C294 C288 1.428 . S
C294 N293 1.351 . S
C294 C295 1.434 . S
C295 C286 1.429 . S
C295 N292 1.350 . S
C295 C294 1.434 . S
C296 C297 1.369 . S
C296 C298 1.419 . S
C296 H300 0.930 . S
C297 C296 1.369 . S
C297 C306 1.429 . S
C298 C296 1.419 . S
C298 C299 1.363 . S
C298 H301 0.929 . S
C299 C298 1.363 . S
C299 C305 1.428 . S
H300 C296 0.930 . S
H301 C298 0.929 . S
S302 N303 1.613 . S
S302 N304 1.610 . S
N303 S302 1.613 . S
N303 C306 1.350 . S
N304 S302 1.610 . S
N304 C305 1.351 . S
C305 C299 1.428 . S
C305 N304 1.351 . S
C305 C306 1.434 . S
C306 C297 1.429 . S
C306 N303 1.350 . S
C306 C305 1.434 . S
C307 C308 1.369 1_455 S
C307 C309 1.419 . S
C307 H311 0.930 . S
C308 C307 1.369 1_655 S
C308 C317 1.429 1_565 S
C309 C307 1.419 . S
C309 C310 1.363 1_455 S
C309 H312 0.929 . S
C310 C309 1.363 1_655 S
C310 C316 1.428 1_565 S
H311 C307 0.930 . S
H312 C309 0.929 . S
S313 N314 1.613 . S
S313 N315 1.610 . S
N314 S313 1.613 . S
N314 C317 1.350 . S
N315 S313 1.610 . S
N315 C316 1.351 . S
C316 C310 1.428 1_545 S
C316 N315 1.351 . S
C316 C317 1.434 . S
C317 C308 1.429 1_545 S
C317 N314 1.350 . S
C317 C316 1.434 . S
C318 C319 1.369 . S
C318 C320 1.419 1_556 S
C318 H322 0.930 . S
C319 C318 1.369 . S
C319 C328 1.429 . S
C320 C318 1.419 1_554 S
C320 C321 1.363 . S
C320 H323 0.929 . S
C321 C320 1.363 . S
C321 C327 1.428 . S
H322 C318 0.930 . S
H323 C320 0.929 . S
S324 N325 1.602 1_554 S
S324 N326 1.623 . S
N325 S324 1.602 1_556 S
N325 C328 1.350 . S
N326 S324 1.623 . S
N326 C327 1.351 . S
C327 C321 1.428 . S
C327 N326 1.351 . S
C327 C328 1.434 1_554 S
C328 C319 1.429 . S
C328 N325 1.350 . S
C328 C327 1.434 1_556 S
C329 C330 1.369 1_565 S
C329 C331 1.419 . S
C329 H333 0.930 . S
C330 C329 1.369 1_545 S
C330 C339 1.429 . S
C331 C329 1.419 . S
C331 C332 1.363 1_565 S
C331 H334 0.929 . S
C332 C331 1.363 1_545 S
C332 C338 1.428 . S
H333 C329 0.930 . S
H334 C331 0.929 . S
S335 N336 1.613 . S
S335 N337 1.610 . S
N336 S335 1.613 . S
N336 C339 1.350 . S
N337 S335 1.610 . S
N337 C338 1.351 . S
C338 C332 1.428 . S
C338 N337 1.351 . S
C338 C339 1.434 . S
C339 C330 1.429 . S
C339 N336 1.350 . S
C339 C338 1.434 . S
C340 C341 1.369 . S
C340 C342 1.419 . S
C340 H344 0.930 . S
C341 C340 1.369 . S
C341 C350 1.429 . S
C342 C340 1.419 . S
C342 C343 1.363 . S
C342 H345 0.929 . S
C343 C342 1.363 . S
C343 C349 1.428 . S
H344 C340 0.930 . S
H345 C342 0.929 . S
S346 N347 1.613 . S
S346 N348 1.610 . S
N347 S346 1.613 . S
N347 C350 1.350 . S
N348 S346 1.610 . S
N348 C349 1.351 . S
C349 C343 1.428 . S
C349 N348 1.351 . S
C349 C350 1.434 . S
C350 C341 1.429 . S
C350 N347 1.350 . S
C350 C349 1.434 . S
C351 C352 1.369 1_455 S
C351 C353 1.419 . S
C351 H355 0.930 . S
C352 C351 1.369 1_655 S
C352 C361 1.429 . S
C353 C351 1.419 . S
C353 C354 1.363 . S
C353 H356 0.929 . S
C354 C353 1.363 . S
C354 C360 1.428 1_455 S
H355 C351 0.930 . S
H356 C353 0.929 . S
S357 N358 1.613 . S
S357 N359 1.610 . S
N358 S357 1.613 . S
N358 C361 1.350 . S
N359 S357 1.610 . S
N359 C360 1.351 . S
C360 C354 1.428 1_655 S
C360 N359 1.351 . S
C360 C361 1.434 . S
C361 C352 1.429 . S
C361 N358 1.350 . S
C361 C360 1.434 . S
C362 C363 1.369 . S
C362 C364 1.419 1_655 S
C362 H366 0.930 . S
C363 C362 1.369 . S
C363 C372 1.429 . S
C364 C362 1.419 1_455 S
C364 C365 1.363 . S
C364 H367 0.929 . S
C365 C364 1.363 . S
C365 C371 1.428 . S
H366 C362 0.930 . S
H367 C364 0.929 . S
S368 N369 1.613 1_455 S
S368 N370 1.610 . S
N369 S368 1.613 1_655 S
N369 C372 1.350 . S
N370 S368 1.610 . S
N370 C371 1.351 . S
C371 C365 1.428 . S
C371 N370 1.351 . S
C371 C372 1.434 1_455 S
C372 C363 1.429 . S
C372 N369 1.350 . S
C372 C371 1.434 1_655 S
C373 C374 1.369 1_556 S
C373 C375 1.419 . S
C373 H377 0.930 . S
C374 C373 1.369 1_554 S
C374 C383 1.429 . S
C375 C373 1.419 . S
C375 C376 1.363 1_556 S
C375 H378 0.929 . S
C376 C375 1.363 1_554 S
C376 C382 1.428 . S
H377 C373 0.930 . S
H378 C375 0.929 . S
S379 N380 1.613 . S
S379 N381 1.610 . S
N380 S379 1.613 . S
N380 C383 1.350 . S
N381 S379 1.610 . S
N381 C382 1.351 . S
C382 C376 1.428 . S
C382 N381 1.351 . S
C382 C383 1.434 . S
C383 C374 1.429 . S
C383 N380 1.350 . S
C383 C382 1.434 . S
C384 C385 1.369 . S
C384 C386 1.419 . S
C384 H388 0.930 . S
C385 C384 1.369 . S
C385 C394 1.429 . S
C386 C384 1.419 . S
C386 C387 1.363 . S
C386 H389 0.929 . S
C387 C386 1.363 . S
C387 C393 1.428 . S
H388 C384 0.930 . S
H389 C386 0.929 . S
S390 N391 1.613 . S
S390 N392 1.610 . S
N391 S390 1.613 . S
N391 C394 1.350 . S
N392 S390 1.610 . S
N392 C393 1.351 . S
C393 C387 1.428 . S
C393 N392 1.351 . S
C393 C394 1.434 . S
C394 C385 1.429 . S
C394 N391 1.350 . S
C394 C393 1.434 . S
C395 C396 1.369 . S
C395 C397 1.419 . S
C395 H399 0.930 . S
C396 C395 1.369 . S
C396 C405 1.429 . S
C397 C395 1.419 . S
C397 C398 1.363 . S
C397 H400 0.929 . S
C398 C397 1.363 . S
C398 C404 1.428 . S
H399 C395 0.930 . S
H400 C397 0.929 . S
S401 N402 1.613 . S
S401 N403 1.610 . S
N402 S401 1.613 . S
N402 C405 1.350 . S
N403 S401 1.610 . S
N403 C404 1.351 . S
C404 C398 1.428 . S
C404 N403 1.351 . S
C404 C405 1.434 . S
C405 C396 1.429 . S
C405 N402 1.350 . S
C405 C404 1.434 . S
C406 C407 1.369 . S
C406 C408 1.419 1_455 S
C406 H410 0.930 . S
C407 C406 1.369 . S
C407 C416 1.429 . S
C408 C406 1.419 1_655 S
C408 C409 1.363 . S
C408 H411 0.929 . S
C409 C408 1.363 . S
C409 C415 1.428 . S
H410 C406 0.930 . S
H411 C408 0.929 . S
S412 N413 1.613 1_655 S
S412 N414 1.610 . S
N413 S412 1.613 1_455 S
N413 C416 1.350 . S
N414 S412 1.610 . S
N414 C415 1.351 . S
C415 C409 1.428 . S
C415 N414 1.351 . S
C415 C416 1.434 1_655 S
C416 C407 1.429 . S
C416 N413 1.350 . S
C416 C415 1.434 1_455 S
C417 C418 1.369 . S
C417 C419 1.419 . S
C417 H421 0.930 . S
C418 C417 1.369 . S
C418 C427 1.429 1_455 S
C419 C417 1.419 . S
C419 C420 1.363 1_455 S
C419 H422 0.929 . S
C420 C419 1.363 1_655 S
C420 C426 1.428 . S
H421 C417 0.930 . S
H422 C419 0.929 . S
S423 N424 1.613 . S
S423 N425 1.610 . S
N424 S423 1.613 . S
N424 C427 1.350 . S
N425 S423 1.610 . S
N425 C426 1.351 . S
C426 C420 1.428 . S
C426 N425 1.351 . S
C426 C427 1.434 . S
C427 C418 1.429 1_655 S
C427 N424 1.350 . S
C427 C426 1.434 . S
C428 C429 1.369 . S
C428 C430 1.419 . S
C428 H432 0.930 . S
C429 C428 1.369 . S
C429 C438 1.429 . S
C430 C428 1.419 . S
C430 C431 1.363 . S
C430 H433 0.929 . S
C431 C430 1.363 . S
C431 C437 1.428 . S
H432 C428 0.930 . S
H433 C430 0.929 . S
S434 N435 1.613 . S
S434 N436 1.610 . S
N435 S434 1.613 . S
N435 C438 1.350 . S
N436 S434 1.610 . S
N436 C437 1.351 . S
C437 C431 1.428 . S
C437 N436 1.351 . S
C437 C438 1.434 . S
C438 C429 1.429 . S
C438 N435 1.350 . S
C438 C437 1.434 . S
C439 C440 1.369 . S
C439 C441 1.419 1_545 S
C439 H443 0.930 . S
C440 C439 1.369 . S
C440 C449 1.429 . S
C441 C439 1.419 1_565 S
C441 C442 1.363 . S
C441 H444 0.929 . S
C442 C441 1.363 . S
C442 C448 1.428 . S
H443 C439 0.930 . S
H444 C441 0.929 . S
S445 N446 1.613 1_565 S
S445 N447 1.610 . S
N446 S445 1.613 1_545 S
N446 C449 1.350 . S
N447 S445 1.610 . S
N447 C448 1.351 . S
C448 C442 1.428 . S
C448 N447 1.351 . S
C448 C449 1.434 1_565 S
C449 C440 1.429 . S
C449 N446 1.350 . S
C449 C448 1.434 1_545 S
C450 C451 1.369 . S
C450 C452 1.419 . S
C450 H454 0.930 . S
C451 C450 1.369 . S
C451 C460 1.429 1_556 S
C452 C450 1.419 . S
C452 C453 1.363 . S
C452 H455 0.929 . S
C453 C452 1.363 . S
C453 C459 1.428 1_556 S
H454 C450 0.930 . S
H455 C452 0.929 . S
S456 N457 1.613 . S
S456 N458 1.610 . S
N457 S456 1.613 . S
N457 C460 1.350 . S
N458 S456 1.610 . S
N458 C459 1.351 . S
C459 C453 1.428 1_554 S
C459 N458 1.351 . S
C459 C460 1.434 . S
C460 C451 1.429 1_554 S
C460 N457 1.350 . S
C460 C459 1.434 . S
C461 C462 1.369 . S
C461 C463 1.419 1_545 S
C461 H465 0.930 . S
C462 C461 1.369 . S
C462 C471 1.429 . S
C463 C461 1.419 1_565 S
C463 C464 1.363 . S
C463 H466 0.929 . S
C464 C463 1.363 . S
C464 C470 1.428 . S
H465 C461 0.930 . S
H466 C463 0.929 . S
S467 N468 1.613 . S
S467 N469 1.610 1_545 S
N468 S467 1.613 . S
N468 C471 1.350 . S
N469 S467 1.610 1_565 S
N469 C470 1.351 . S
C470 C464 1.428 . S
C470 N469 1.351 . S
C470 C471 1.434 1_565 S
C471 C462 1.429 . S
C471 N468 1.350 . S
C471 C470 1.434 1_545 S
C472 C473 1.369 1_545 S
C472 C474 1.419 . S
C472 H476 0.930 . S
C473 C472 1.369 1_565 S
C473 C482 1.429 1_556 S
C474 C472 1.419 . S
C474 C475 1.363 1_545 S
C474 H477 0.929 . S
C475 C474 1.363 1_565 S
C475 C481 1.428 1_556 S
H476 C472 0.930 . S
H477 C474 0.929 . S
S478 N479 1.613 . S
S478 N480 1.610 . S
N479 S478 1.613 . S
N479 C482 1.350 . S
N480 S478 1.610 . S
N480 C481 1.351 . S
C481 C475 1.428 1_554 S
C481 N480 1.351 . S
C481 C482 1.434 . S
C482 C473 1.429 1_554 S
C482 N479 1.350 . S
C482 C481 1.434 . S
C483 C484 1.369 . S
C483 C485 1.419 . S
C483 H487 0.930 . S
C484 C483 1.369 . S
C484 C493 1.429 . S
C485 C483 1.419 . S
C485 C486 1.363 . S
C485 H488 0.929 . S
C486 C485 1.363 . S
C486 C492 1.428 . S
H487 C483 0.930 . S
H488 C485 0.929 . S
S489 N490 1.613 . S
S489 N491 1.610 . S
N490 S489 1.613 . S
N490 C493 1.350 . S
N491 S489 1.610 . S
N491 C492 1.351 . S
C492 C486 1.428 . S
C492 N491 1.351 . S
C492 C493 1.434 . S
C493 C484 1.429 . S
C493 N490 1.350 . S
C493 C492 1.434 . S
C494 C495 1.369 . S
C494 C496 1.419 . S
C494 H498 0.930 . S
C495 C494 1.369 . S
C495 C504 1.429 . S
C496 C494 1.419 . S
C496 C497 1.363 . S
C496 H499 0.929 . S
C497 C496 1.363 . S
C497 C503 1.428 . S
H498 C494 0.930 . S
H499 C496 0.929 . S
S500 N501 1.613 . S
S500 N502 1.610 . S
N501 S500 1.613 . S
N501 C504 1.350 . S
N502 S500 1.610 . S
N502 C503 1.351 . S
C503 C497 1.428 . S
C503 N502 1.351 . S
C503 C504 1.434 . S
C504 C495 1.429 . S
C504 N501 1.350 . S
C504 C503 1.434 . S
C505 C506 1.369 . S
C505 C507 1.419 1_556 S
C505 H509 0.930 . S
C506 C505 1.369 . S
C506 C515 1.429 . S
C507 C505 1.419 1_554 S
C507 C508 1.363 . S
C507 H510 0.929 . S
C508 C507 1.363 . S
C508 C514 1.428 . S
H509 C505 0.930 . S
H510 C507 0.929 . S
S511 N512 1.613 1_554 S
S511 N513 1.610 . S
N512 S511 1.613 1_556 S
N512 C515 1.350 . S
N513 S511 1.610 . S
N513 C514 1.351 . S
C514 C508 1.428 . S
C514 N513 1.351 . S
C514 C515 1.434 1_554 S
C515 C506 1.429 . S
C515 N512 1.350 . S
C515 C514 1.434 1_556 S
C516 C517 1.369 . S
C516 C518 1.419 . S
C516 H520 0.930 . S
C517 C516 1.369 . S
C517 C526 1.429 . S
C518 C516 1.419 . S
C518 C519 1.363 . S
C518 H521 0.929 . S
C519 C518 1.363 . S
C519 C525 1.428 . S
H520 C516 0.930 . S
H521 C518 0.929 . S
S522 N523 1.613 . S
S522 N524 1.610 . S
N523 S522 1.613 . S
N523 C526 1.350 . S
N524 S522 1.610 . S
N524 C525 1.351 . S
C525 C519 1.428 . S
C525 N524 1.351 . S
C525 C526 1.434 . S
C526 C517 1.429 . S
C526 N523 1.350 . S
C526 C525 1.434 . S
C527 C528 1.369 . S
C527 C529 1.419 . S
C527 H531 0.930 . S
C528 C527 1.369 . S
C528 C537 1.429 . S
C529 C527 1.419 . S
C529 C530 1.363 . S
C529 H532 0.929 . S
C530 C529 1.363 . S
C530 C536 1.428 . S
H531 C527 0.930 . S
H532 C529 0.929 . S
S533 N534 1.613 . S
S533 N535 1.610 . S
N534 S533 1.613 . S
N534 C537 1.350 . S
N535 S533 1.610 . S
N535 C536 1.351 . S
C536 C530 1.428 . S
C536 N535 1.351 . S
C536 C537 1.434 . S
C537 C528 1.429 . S
C537 N534 1.350 . S
C537 C536 1.434 . S
C538 C539 1.369 1_655 S
C538 C540 1.419 . S
C538 H542 0.930 . S
C539 C538 1.369 1_455 S
C539 C548 1.429 . S
C540 C538 1.419 . S
C540 C541 1.364 1_655 S
C540 H543 0.929 . S
C541 C540 1.364 1_455 S
C541 C547 1.428 . S
H542 C538 0.930 . S
H543 C540 0.929 . S
S544 N545 1.613 . S
S544 N546 1.610 . S
N545 S544 1.613 . S
N545 C548 1.350 . S
N546 S544 1.610 . S
N546 C547 1.351 . S
C547 C541 1.428 . S
C547 N546 1.351 . S
C547 C548 1.434 . S
C548 C539 1.429 . S
C548 N545 1.350 . S
C548 C547 1.434 . S
C549 C550 1.369 . S
C549 C551 1.419 . S
C549 H553 0.930 . S
C550 C549 1.369 . S
C550 C559 1.429 1_565 S
C551 C549 1.419 . S
C551 C552 1.363 1_565 S
C551 H554 0.929 . S
C552 C551 1.363 1_545 S
C552 C558 1.428 . S
H553 C549 0.930 . S
H554 C551 0.929 . S
S555 N556 1.613 . S
S555 N557 1.610 . S
N556 S555 1.613 . S
N556 C559 1.350 . S
N557 S555 1.610 . S
N557 C558 1.351 . S
C558 C552 1.428 . S
C558 N557 1.351 . S
C558 C559 1.434 . S
C559 C550 1.429 1_545 S
C559 N556 1.350 . S
C559 C558 1.434 . S
C209 C0 1.643 . S
C211 C91 1.673 . S
C220 C13 1.626 . S
C222 C52 1.627 . S
C231 C65 1.642 . S
C233 C26 1.625 . S
C242 C39 1.618 . S
C244 C78 1.632 . S
C253 C104 1.624 . S
C255 C156 1.629 . S
C264 C117 1.639 . S
C266 C182 1.620 . S
C275 C143 1.612 . S
C277 C130 1.630 . S
C286 C195 1.675 . S
C288 C169 1.642 . S
C297 C5 1.243 . S
C299 C88 1.274 . S
C308 C96 1.231 . S
C310 C21 1.206 . S
C319 C31 1.251 . S
C321 C57 1.278 . S
C330 C70 1.264 . S
C332 C47 1.258 1_545 S
C341 C10 1.307 . S
C343 C192 1.314 . S
C352 C148 1.239 1_655 S
C354 C18 1.243 1_455 S
C363 C179 1.311 . S
C365 C36 1.310 . S
C374 C161 1.247 . S
C376 C44 1.235 . S
C385 C138 1.291 . S
C387 C62 1.313 . S
C396 C75 1.318 . S
C398 C205 1.313 . S
C407 C86 1.291 . S
C409 C114 1.312 . S
C418 C101 1.308 1_455 S
C420 C127 1.321 1_655 S
C429 C8 1.260 . S
C431 C60 1.252 . S
C440 C112 1.261 . S
C442 C177 1.256 . S
C451 C166 1.256 1_556 S
C453 C125 1.245 . S
C462 C190 1.195 . S
C464 C135 1.198 . S
C473 C99 1.282 . S
C475 C49 1.305 . S
C484 C34 1.184 . S
C486 C83 1.204 . S
C495 C153 1.310 . S
C497 C203 1.279 . S
C506 C174 1.246 . S
C508 C140 1.272 . S
C517 C200 1.222 . S
C519 C164 1.215 . S
C528 C187 1.255 . S
C530 C109 1.275 . S
C539 C151 1.249 . S
C541 C122 1.268 . S
C550 C23 1.261 . S
C552 C73 1.240 . S
