# Generated by pormake.
# Topology kag, (6)-cn, num edge types: 1
# Building blocks:
#     Node 0, Type 0, BuildingBlock: BETFEN_clean_sbu_0, # of connection points: 6
#     Node 1, Type 0, BuildingBlock: BETFEN_clean_sbu_0, # of connection points: 6
#     Node 2, Type 0, BuildingBlock: BETFEN_clean_sbu_0, # of connection points: 6
#     Edge 3, Type (0, 0), BuildingBlock: FUNLAD_clean_linker_1, # of connection points: 2
#     Edge 4, Type (0, 0), BuildingBlock: FUNLAD_clean_linker_1, # of connection points: 2
#     Edge 5, Type (0, 0), BuildingBlock: FUNLAD_clean_linker_1, # of connection points: 2
#     Edge 6, Type (0, 0), BuildingBlock: FUNLAD_clean_linker_1, # of connection points: 2
#     Edge 7, Type (0, 0), BuildingBlock: FUNLAD_clean_linker_1, # of connection points: 2
#     Edge 8, Type (0, 0), BuildingBlock: FUNLAD_clean_linker_1, # of connection points: 2
#     Edge 9, Type (0, 0), BuildingBlock: FUNLAD_clean_linker_1, # of connection points: 2
#     Edge 10, Type (0, 0), BuildingBlock: FUNLAD_clean_linker_1, # of connection points: 2
#     Edge 11, Type (0, 0), BuildingBlock: FUNLAD_clean_linker_1, # of connection points: 2
# Relax obj value: 0.072
# Max RMSD: 0.191
# Mean RMSD: 0.100
data_MOF--net-kag--node1-BETFEN_clean_sbu_0--edge1-FUNLAD_clean_linker_1
_symmetry_space_group_name_H-M    P1
_symmetry_Int_Tables_number       1
_symmetry_cell_setting            triclinic
loop_
_symmetry_equiv_pos_as_xyz
'x, y, z'
_cell_length_a     32.849677
_cell_length_b     43.618128
_cell_length_c     15.287117
_cell_angle_alpha  94.790523
_cell_angle_beta   90.582573
_cell_angle_gamma 98.082531
loop_
_atom_site_label
_atom_site_type_symbol
_atom_site_fract_x
_atom_site_fract_y
_atom_site_fract_z
_atom_type_partial_charge
Pr0 Pr 0.0582 0.47861 0.01933 0.0
Pr1 Pr 0.06184 0.55297 0.99495 0.0
C2 C 1.04789 0.42261 0.0844 0.0
C3 C 1.01927 0.39353 0.06628 0.0
C4 C 1.02865 0.36575 0.09607 0.0
C5 C 1.0011 0.33818 0.08042 0.0
C6 C 0.96364 0.33796 0.03431 0.0
C7 C 0.95447 0.36595 1.00489 0.0
C8 C 0.98208 0.39341 0.02019 0.0
C9 C 1.05099 0.48781 0.83838 0.0
C10 C 0.96993 0.50925 1.00403 0.0
C11 C 0.07309 0.6091 0.93057 0.0
C12 C 0.10168 0.63801 0.95195 0.0
C13 C 0.09799 0.66462 0.9088 0.0
C14 C 0.12568 0.69195 0.92809 0.0
C15 C 0.1578 0.69301 0.9908 0.0
C16 C 0.16091 0.66626 0.03436 0.0
C17 C 0.13325 0.63902 0.01504 0.0
C18 C 0.06872 0.5438 0.17592 0.0
C19 C 0.15008 0.52218 0.01039 0.0
O20 O 1.03166 0.44646 0.11909 0.0
O21 O 0.0743 0.42984 0.02315 0.0
O22 O 1.05494 0.5085 0.90229 0.0
O23 O 1.04982 0.4608 0.86866 0.0
O24 O 0.99016 0.53591 0.98158 0.0
O25 O 0.98875 0.48601 0.02619 0.0
O26 O 0.08987 0.58537 0.89698 0.0
O27 O 1.04559 0.6016 0.98957 0.0
O28 O 0.06492 0.52311 0.11201 0.0
O29 O 0.06984 0.5708 0.14563 0.0
O30 O 0.12979 0.49551 0.03231 0.0
O31 O 0.13135 0.54553 0.98874 0.0
H32 H 0.05711 0.36545 0.1322 0.0
H33 H 1.00896 0.31737 0.10624 0.0
H34 H 0.92584 0.36658 0.96971 0.0
H35 H 0.97427 0.41464 0.99656 0.0
H36 H 0.07364 0.66429 0.86023 0.0
H37 H 0.1213 0.71212 0.89451 0.0
H38 H 0.18502 0.66635 0.08333 0.0
H39 H 0.13656 0.61868 0.04917 0.0
Pr40 Pr 0.61384 0.02256 0.98947 0.0
Pr41 Pr 0.51518 1.00737 0.02961 0.0
C42 C 0.68537 0.04161 0.91341 0.0
C43 C 0.71939 0.06757 0.9303 0.0
C44 C 0.73724 0.07543 0.01457 0.0
C45 C 0.76765 0.10127 0.03019 0.0
C46 C 0.78035 0.12011 0.96249 0.0
C47 C 0.76296 0.11185 0.87773 0.0
C48 C 0.73278 0.08585 0.86199 0.0
C49 C 0.60174 0.02435 0.17365 0.0
C50 C 0.55883 0.08121 0.03342 0.0
C51 C 0.44351 0.98749 0.10376 0.0
C52 C 0.41067 0.96094 0.08341 0.0
C53 C 0.39791 0.9512 0.99629 0.0
C54 C 0.36897 0.92464 0.97747 0.0
C55 C 0.35273 0.90693 0.04496 0.0
C56 C 0.36511 0.91701 0.1324 0.0
C57 C 0.39386 0.94374 0.15124 0.0
C58 C 0.52734 1.00551 0.84539 0.0
C59 C 0.57053 0.94881 0.98604 0.0
O60 O 0.6502 0.04939 0.88873 0.0
O61 O 0.68142 0.01988 0.96846 0.0
O62 O 0.57436 0.01882 0.11326 0.0
O63 O 0.63747 0.0294 0.1379 0.0
O64 O 0.52642 0.06205 0.05656 0.0
O65 O 0.5925 0.07157 1.00158 0.0
O66 O 0.47879 0.98023 0.12973 0.0
O67 O 0.4474 1.00949 0.04957 0.0
O68 O 0.55468 1.01107 0.90584 0.0
O69 O 0.49163 1.00037 0.88112 0.0
O70 O 0.60224 0.96825 0.9617 0.0
O71 O 0.53682 0.95816 0.01911 0.0
H72 H 0.72734 0.06189 0.06874 0.0
H73 H 0.7807 0.10694 0.0959 0.0
H74 H 0.77276 0.12517 0.82318 0.0
H75 H 0.71951 0.0802 0.79645 0.0
H76 H 0.41074 0.96382 0.94254 0.0
H77 H 0.35986 0.91755 0.90966 0.0
H78 H 0.3525 0.90457 0.18654 0.0
H79 H 0.40337 0.95079 0.21887 0.0
Pr80 Pr 0.56336 0.54992 1.00081 0.0
Pr81 Pr 0.55541 0.4779 0.99711 0.0
C82 C 0.56711 0.61016 0.9679 0.0
C83 C 0.55712 0.64229 0.98175 0.0
C84 C 0.58971 0.66682 0.99555 0.0
C85 C 0.58246 0.69774 1.00172 0.0
C86 C 0.54225 0.70499 0.99372 0.0
C87 C 0.50942 0.68039 0.98259 0.0
C88 C 0.51676 0.64929 0.97583 0.0
C89 C 0.56315 0.5274 0.16625 0.0
C90 C 0.46914 0.50892 1.0049 0.0
C91 C 0.55152 0.41676 0.01668 0.0
C92 C 0.54744 0.38261 0.02293 0.0
C93 C 0.52145 0.36248 0.9631 0.0
C94 C 0.51614 0.33036 0.96881 0.0
C95 C 0.53687 0.31725 0.0339 0.0
C96 C 0.56301 0.33737 0.09418 0.0
C97 C 0.56815 0.36973 0.08873 0.0
C98 C 0.55447 0.50155 0.83295 0.0
C99 C 0.6495 0.51837 0.99335 0.0
O100 O 0.54065 0.58793 0.92805 0.0
O101 O 0.59095 0.60052 0.02562 0.0
O102 O 0.54078 0.51522 0.10193 0.0
O103 O 0.58422 0.55357 0.14902 0.0
O104 O 0.4873 0.48529 0.02611 0.0
O105 O 0.49084 0.53514 0.98333 0.0
O106 O 0.5696 0.43781 0.07634 0.0
O107 O 0.53684 0.42786 0.94807 0.0
O108 O 0.57794 0.51272 0.89645 0.0
O109 O 0.53156 0.47629 0.85106 0.0
O110 O 0.63115 0.54169 0.97061 0.0
O111 O 0.62788 0.49233 0.01613 0.0
H112 H 0.62113 0.66206 1.00035 0.0
H113 H 0.6085 0.71584 0.01349 0.0
H114 H 0.47808 0.68525 0.97729 0.0
H115 H 0.49102 0.63085 0.96508 0.0
H116 H 0.50475 0.37153 0.9119 0.0
H117 H 0.49572 0.31564 0.92162 0.0
H118 H 0.579 0.32841 0.14648 0.0
H119 H 0.58815 0.38465 0.13622 0.0
H120 H 1.03809 0.46988 0.70077 0.0
C121 C 1.04778 0.49125 0.74197 0.0
H122 H 0.07099 0.53877 0.74042 0.0
H123 H 0.1384 0.52321 0.3514 0.0
H124 H 0.20167 0.53373 0.4383 0.0
H125 H 0.20044 0.53679 0.6 0.0
H126 H 0.13591 0.5292 0.67612 0.0
C127 C 0.05864 0.51746 0.7015 0.0
C128 C 0.05884 0.51693 0.60194 0.0
C129 C 0.09669 0.5221 0.55742 0.0
C130 C 0.09738 0.52078 0.46336 0.0
C131 C 0.13591 0.52482 0.42205 0.0
C132 C 0.17253 0.53065 0.47119 0.0
C133 C 0.17184 0.53234 0.56227 0.0
C134 C 0.13453 0.52801 0.60516 0.0
H135 H 0.08158 0.56173 0.31351 0.0
C136 C 0.07169 0.54038 0.27237 0.0
H137 H 1.04776 0.493 0.27406 0.0
H138 H 0.98061 0.50853 0.66312 0.0
H139 H 0.91729 0.49831 0.57626 0.0
H140 H 0.91849 0.4954 0.41454 0.0
H141 H 0.98303 0.50282 0.33838 0.0
C142 C 0.06037 0.51426 0.31294 0.0
C143 C 0.06014 0.51484 0.41251 0.0
C144 C 1.02228 0.50972 0.45705 0.0
C145 C 1.02159 0.51101 0.55111 0.0
C146 C 0.98307 0.507 0.59245 0.0
C147 C 0.94643 0.50132 0.54334 0.0
C148 C 0.94711 0.49972 0.45226 0.0
C149 C 0.98442 0.50395 0.40933 0.0
H150 H 0.62534 0.03303 0.30988 0.0
C151 C 0.59727 0.02515 0.27137 0.0
H152 H 0.53474 1.00648 0.27873 0.0
H153 H 0.5552 0.95525 0.65356 0.0
H154 H 0.54213 0.90754 0.55829 0.0
H155 H 0.53844 0.90867 0.39746 0.0
H156 H 0.54804 0.95755 0.33055 0.0
C157 C 0.5628 0.01599 0.3154 0.0
C158 C 0.56335 0.01572 0.41493 0.0
C159 C 0.55671 0.98706 0.45431 0.0
C160 C 0.55815 0.98642 0.54803 0.0
C161 C 0.55317 0.95724 0.58369 0.0
C162 C 0.54596 0.92961 0.52963 0.0
C163 C 0.54394 0.93025 0.43904 0.0
C164 C 0.5494 0.95851 0.40149 0.0
H165 H 0.50373 0.99667 0.70922 0.0
C166 C 0.53177 1.00476 0.74766 0.0
H167 H 0.59407 0.024 0.74012 0.0
H168 H 0.57353 0.07495 0.36521 0.0
H169 H 0.58616 0.1227 0.46047 0.0
H170 H 0.58968 0.1216 0.62135 0.0
H171 H 0.58036 0.07272 0.68829 0.0
C172 C 0.56609 0.01423 0.70351 0.0
C173 C 0.56543 0.01452 0.60396 0.0
C174 C 0.57196 0.04319 0.56456 0.0
C175 C 0.57056 0.04382 0.47083 0.0
C176 C 0.57547 0.07299 0.43512 0.0
C177 C 0.58245 0.10063 0.48916 0.0
C178 C 0.58438 0.10001 0.57977 0.0
C179 C 0.57907 0.07175 0.61736 0.0
H180 H 0.58163 0.53255 0.73605 0.0
C181 C 0.55933 0.51216 0.74459 0.0
H182 H 0.51759 0.47548 0.68201 0.0
H183 H 0.54433 0.57962 0.38418 0.0
H184 H 0.5079 0.61171 0.48417 0.0
H185 H 0.48848 0.5954 0.63053 0.0
H186 H 0.50548 0.54696 0.67779 0.0
C187 C 0.53867 0.49662 0.67469 0.0
C188 C 0.54786 0.50572 0.58473 0.0
C189 C 0.53731 0.534 0.55794 0.0
C190 C 0.54806 0.54319 0.47319 0.0
C191 C 0.53706 0.57151 0.44792 0.0
C192 C 0.51604 0.59014 0.5046 0.0
C193 C 0.50515 0.58098 0.58703 0.0
C194 C 0.51538 0.5532 0.61358 0.0
H195 H 0.53633 0.49621 0.26303 0.0
C196 C 0.558 0.51697 0.25479 0.0
H197 H 0.59842 0.55436 0.31782 0.0
H198 H 0.57196 0.44985 0.61544 0.0
H199 H 0.60863 0.41784 0.51572 0.0
H200 H 0.62847 0.43429 0.36972 0.0
H201 H 0.61158 0.48275 0.32249 0.0
C202 C 0.57787 0.53295 0.32502 0.0
C203 C 0.56866 0.52382 0.41498 0.0
C204 C 0.57931 0.49558 0.44187 0.0
C205 C 0.56847 0.48635 0.52654 0.0
C206 C 0.57939 0.45801 0.55181 0.0
C207 C 0.60054 0.43942 0.49529 0.0
C208 C 0.61165 0.44866 0.41306 0.0
C209 C 0.60145 0.47644 0.38649 0.0
H210 H 0.21073 0.54998 0.99397 0.0
C211 C 0.19594 0.52718 0.00899 0.0
H212 H 0.20581 0.48197 0.03448 0.0
H213 H 0.38005 0.48972 0.85554 0.0
H214 H 0.33771 0.45391 0.75076 0.0
H215 H 0.26245 0.44388 0.76573 0.0
H216 H 0.22897 0.46976 0.88538 0.0
C217 C 0.21994 0.5053 0.02307 0.0
C218 C 0.26607 0.51135 0.01551 0.0
C219 C 0.28559 0.49561 0.9463 0.0
C220 C 0.32931 0.50107 0.93837 0.0
C221 C 0.34733 0.48584 0.86636 0.0
C222 C 0.32332 0.46537 0.80525 0.0
C223 C 0.28094 0.45975 0.81362 0.0
C224 C 0.26212 0.4747 0.88287 0.0
H225 H 0.40789 0.48257 0.02398 0.0
C226 C 0.42337 0.5051 0.00833 0.0
H227 H 0.4149 0.5505 0.98149 0.0
H228 H 0.23995 0.54374 0.16026 0.0
H229 H 0.28229 0.57972 0.26467 0.0
H230 H 0.35754 0.58982 0.24948 0.0
H231 H 0.39103 0.56382 0.12999 0.0
C232 C 0.40016 0.52743 0.99388 0.0
C233 C 0.35396 0.52192 1.00063 0.0
C234 C 0.33442 0.5378 0.06956 0.0
C235 C 0.2907 0.53233 0.07754 0.0
C236 C 0.27267 0.54762 0.14941 0.0
C237 C 0.29668 0.5682 0.21029 0.0
C238 C 0.33906 0.57386 0.2018 0.0
C239 C 0.35788 0.55882 0.1327 0.0
H240 H 0.8325 0.14795 0.039 0.0
C241 C 0.81206 0.14783 0.98251 0.0
H242 H 0.79483 0.17429 0.88182 0.0
H243 H 0.90158 0.2815 0.1635 0.0
H244 H 0.84691 0.26871 0.26535 0.0
H245 H 0.79096 0.22554 0.22724 0.0
H246 H 0.78971 0.19458 0.08784 0.0
C247 C 0.81518 0.17332 0.93758 0.0
C248 C 0.84748 0.20064 0.95971 0.0
C249 C 0.8469 0.21924 0.04041 0.0
C250 C 0.87823 0.245 0.0609 0.0
C251 C 0.87788 0.26231 0.14344 0.0
C252 C 0.84676 0.25514 0.2027 0.0
C253 C 0.81534 0.23077 0.18136 0.0
C254 C 0.81518 0.21301 0.10125 0.0
H255 H 0.90128 0.31262 1.00224 0.0
C256 C 0.93271 0.30951 0.01823 0.0
H257 H 0.97293 0.27594 0.02857 0.0
H258 H 0.85741 0.17033 0.79884 0.0
H259 H 0.91046 0.18457 0.69459 0.0
H260 H 0.96336 0.23021 0.72825 0.0
H261 H 0.96365 0.26183 0.86661 0.0
C262 C 0.94153 0.28031 0.01932 0.0
C263 C 0.90919 0.2529 0.99935 0.0
C264 C 0.90938 0.23463 0.91823 0.0
C265 C 0.87855 0.20851 0.8984 0.0
C266 C 0.87976 0.19061 0.817 0.0
C267 C 0.9101 0.19848 0.75657 0.0
C268 C 0.93991 0.22415 0.77555 0.0
C269 C 0.93974 0.24209 0.8553 0.0
H270 H 0.6014 0.90763 0.95071 0.0
C271 C 0.57352 0.91505 0.97765 0.0
H272 H 0.51525 0.90057 0.02971 0.0
H273 H 0.49914 0.76122 0.86542 0.0
H274 H 0.44622 0.78078 0.78357 0.0
H275 H 0.43878 0.83643 0.79907 0.0
H276 H 0.4846 0.87297 0.8958 0.0
C277 C 0.54368 0.89357 1.00461 0.0
C278 C 0.54738 0.85962 0.99852 0.0
C279 C 0.51989 0.83833 0.9429 0.0
C280 C 0.52366 0.80602 0.93527 0.0
C281 C 0.49695 0.78573 0.87599 0.0
C282 C 0.46657 0.7967 0.82803 0.0
C283 C 0.46241 0.82804 0.83666 0.0
C284 C 0.48885 0.84875 0.89273 0.0
H285 H 0.5042 0.74283 0.0227 0.0
C286 C 0.53388 0.7379 0.99895 0.0
H287 H 0.59055 0.75694 0.94782 0.0
H288 H 0.60065 0.89293 0.12236 0.0
H289 H 0.65173 0.87313 0.2087 0.0
H290 H 0.65909 0.81745 0.19379 0.0
H291 H 0.61509 0.7812 0.09299 0.0
C292 C 0.56108 0.76148 0.9734 0.0
C293 C 0.55436 0.79482 0.98498 0.0
C294 C 0.58091 0.81599 0.04285 0.0
C295 C 0.57718 0.84827 0.05031 0.0
C296 C 0.60298 0.86844 0.11163 0.0
C297 C 0.63227 0.85733 0.16229 0.0
C298 C 0.63638 0.82598 0.15398 0.0
C299 C 0.61101 0.80544 0.09543 0.0
H300 H 0.90962 0.48155 0.02386 0.0
C301 C 0.92408 0.50413 1.00636 0.0
H302 H 0.91321 0.54801 0.97046 0.0
H303 H 0.72874 0.50243 0.83862 0.0
H304 H 0.76274 0.51066 0.70101 0.0
H305 H 0.83826 0.52276 0.69603 0.0
H306 H 0.88033 0.52651 0.82871 0.0
C307 C 0.89967 0.52558 0.99054 0.0
C308 C 0.85342 0.51874 0.99487 0.0
C309 C 0.82885 0.51735 0.91726 0.0
C310 C 0.78498 0.51091 0.92043 0.0
C311 C 0.76184 0.50828 0.84083 0.0
C312 C 0.78102 0.51269 0.76109 0.0
C313 C 0.82355 0.51946 0.75826 0.0
C314 C 0.84733 0.52165 0.83505 0.0
H315 H 0.71039 0.54429 0.9689 0.0
C316 C 0.69527 0.52222 0.98867 0.0
H317 H 0.7047 0.47863 0.02912 0.0
H318 H 0.89004 0.52201 0.15771 0.0
H319 H 0.85612 0.51336 0.29514 0.0
H320 H 0.78059 0.50149 0.30027 0.0
H321 H 0.73843 0.49836 0.16792 0.0
C322 C 0.71892 0.50049 1.00646 0.0
C323 C 0.76524 0.5065 1.00176 0.0
C324 C 0.78985 0.50765 0.0793 0.0
C325 C 0.83372 0.51405 0.07609 0.0
C326 C 0.85692 0.51632 0.15555 0.0
C327 C 0.8378 0.51165 0.23519 0.0
C328 C 0.79526 0.505 0.23809 0.0
C329 C 0.77142 0.50317 0.16147 0.0
H330 H 0.20643 0.72207 0.07448 0.0
C331 C 0.1879 0.72152 0.01482 0.0
H332 H 0.17866 0.74606 0.90396 0.0
H333 H 0.26549 0.85927 0.19419 0.0
H334 H 0.20394 0.84827 0.27881 0.0
H335 H 0.15106 0.80372 0.23302 0.0
H336 H 0.1595 0.76979 0.10281 0.0
C337 C 0.19426 0.74626 0.96687 0.0
C338 C 0.22568 0.77371 0.9943 0.0
C339 C 0.21995 0.79366 0.07009 0.0
C340 C 0.25014 0.81972 0.09567 0.0
C341 C 0.24363 0.83916 0.17173 0.0
C342 C 0.20836 0.83317 0.22084 0.0
C343 C 0.17862 0.80807 0.19513 0.0
C344 C 0.18404 0.7886 0.12048 0.0
H345 H 0.30596 0.87686 0.95905 0.0
C346 C 0.3226 0.8785 0.02154 0.0
H347 H 0.33292 0.85461 0.13301 0.0
H348 H 0.24634 0.74035 0.8458 0.0
H349 H 0.30845 0.75092 0.76256 0.0
H350 H 0.36141 0.79539 0.80877 0.0
H351 H 0.3524 0.82974 0.93782 0.0
C352 C 0.31644 0.85416 0.07096 0.0
C353 C 0.28562 0.82627 0.04458 0.0
C354 C 0.29162 0.80613 0.9694 0.0
C355 C 0.2614 0.78008 0.94372 0.0
C356 C 0.26818 0.76047 0.86824 0.0
C357 C 0.30379 0.7662 0.81998 0.0
C358 C 0.33357 0.79127 0.84591 0.0
C359 C 0.32783 0.81097 0.91984 0.0
H360 H 0.50311 0.27012 0.99857 0.0
C361 C 0.5294 0.2827 0.03634 0.0
H362 H 0.58068 0.27716 0.11574 0.0
H363 H 0.515 0.14348 0.22702 0.0
H364 H 0.512 0.17488 0.36483 0.0
H365 H 0.52345 0.23213 0.37027 0.0
H366 H 0.53838 0.2584 0.23808 0.0
C367 C 0.55405 0.26585 0.07718 0.0
C368 C 0.54535 0.23102 0.07245 0.0
C369 C 0.53599 0.2159 0.15 0.0
C370 C 0.52875 0.18278 0.14668 0.0
C371 C 0.52036 0.16847 0.2256 0.0
C372 C 0.51855 0.18623 0.30519 0.0
C373 C 0.52504 0.21847 0.30826 0.0
C374 C 0.53365 0.23325 0.23186 0.0
H375 H 0.5876 0.12935 0.02444 0.0
C376 C 0.55915 0.11532 0.04123 0.0
H377 H 0.49826 0.11677 0.08297 0.0
H378 H 0.56704 0.25171 0.91232 0.0
H379 H 0.56654 0.2204 0.77382 0.0
H380 H 0.54736 0.16348 0.7661 0.0
H381 H 0.52949 0.13752 0.89742 0.0
C382 C 0.52687 0.1299 0.06374 0.0
C383 C 0.5306 0.16465 0.06573 0.0
C384 C 0.53842 0.17979 0.98756 0.0
C385 C 0.54708 0.21285 0.99126 0.0
C386 C 0.55811 0.22693 0.91302 0.0
C387 C 0.5583 0.20918 0.83296 0.0
C388 C 0.54768 0.17713 0.82867 0.0
C389 C 0.53782 0.1625 0.90475 0.0
loop_
_geom_bond_atom_site_label_1
_geom_bond_atom_site_label_2
_geom_bond_distance
_geom_bond_site_symmetry_2
_ccdc_geom_bond_type
Pr0 C2 2.880 . S
Pr0 O20 2.562 1_556 S
Pr0 O21 2.490 . S
Pr0 O22 2.695 1_655 S
Pr0 O23 2.512 . S
Pr0 O25 2.437 . S
Pr0 O28 2.436 1_556 S
Pr0 O30 2.438 1_655 S
Pr1 C11 2.880 . S
Pr1 O22 2.436 1_554 S
Pr1 O24 2.438 1_455 S
Pr1 O26 2.562 1_554 S
Pr1 O27 2.490 . S
Pr1 O28 2.695 1_455 S
Pr1 O29 2.512 . S
Pr1 O31 2.437 . S
C2 Pr0 2.880 . S
C2 C3 1.491 . S
C2 O20 1.254 1_556 S
C2 O21 1.225 . S
C3 C2 1.491 . S
C3 C4 1.392 . S
C3 C8 1.356 1_556 S
C4 C3 1.392 . S
C4 C5 1.368 . S
C4 H32 0.929 . S
C5 C4 1.368 . S
C5 C6 1.386 . S
C5 H33 0.929 . S
C6 C5 1.386 . S
C6 C7 1.373 1_556 S
C7 C6 1.373 1_554 S
C7 C8 1.409 . S
C7 H34 0.931 . S
C8 C3 1.356 1_554 S
C8 C7 1.409 . S
C8 H35 0.930 . S
C9 O22 1.270 . S
C9 O23 1.248 1_455 S
C10 O24 1.267 1_556 S
C10 O25 1.278 . S
C11 Pr1 2.880 . S
C11 C12 1.491 . S
C11 O26 1.254 1_554 S
C11 O27 1.225 . S
C12 C11 1.491 . S
C12 C13 1.392 . S
C12 C17 1.356 1_554 S
C13 C12 1.392 . S
C13 C14 1.368 . S
C13 H36 0.929 . S
C14 C13 1.368 . S
C14 C15 1.386 . S
C14 H37 0.929 . S
C15 C14 1.386 . S
C15 C16 1.373 1_554 S
C16 C15 1.373 1_556 S
C16 C17 1.409 . S
C16 H38 0.931 . S
C17 C12 1.356 1_556 S
C17 C16 1.409 . S
C17 H39 0.930 . S
C18 O28 1.270 1_455 S
C18 O29 1.248 . S
C19 O30 1.267 1_554 S
C19 O31 1.278 . S
O20 Pr0 2.562 1_554 S
O20 C2 1.254 1_554 S
O21 Pr0 2.490 . S
O21 C2 1.225 . S
O22 Pr0 2.695 1_455 S
O22 Pr1 2.436 1_556 S
O22 C9 1.270 . S
O23 Pr0 2.512 . S
O23 C9 1.248 1_655 S
O24 Pr1 2.438 1_655 S
O24 C10 1.267 1_554 S
O25 Pr0 2.437 . S
O25 C10 1.278 . S
O26 Pr1 2.562 1_556 S
O26 C11 1.254 1_556 S
O27 Pr1 2.490 . S
O27 C11 1.225 . S
O28 Pr0 2.436 1_554 S
O28 Pr1 2.695 1_655 S
O28 C18 1.270 1_655 S
O29 Pr1 2.512 . S
O29 C18 1.248 . S
O30 Pr0 2.438 1_455 S
O30 C19 1.267 1_556 S
O31 Pr1 2.437 . S
O31 C19 1.278 . S
H32 C4 0.929 . S
H33 C5 0.929 . S
H34 C7 0.931 . S
H35 C8 0.930 . S
H36 C13 0.929 . S
H37 C14 0.929 . S
H38 C16 0.931 . S
H39 C17 0.930 . S
Pr40 C42 2.880 . S
Pr40 O60 2.562 1_554 S
Pr40 O61 2.490 . S
Pr40 O62 2.695 1_545 S
Pr40 O63 2.512 . S
Pr40 O65 2.437 . S
Pr40 O68 2.436 1_554 S
Pr40 O70 2.438 1_545 S
Pr41 C51 2.880 . S
Pr41 O62 2.436 1_556 S
Pr41 O64 2.438 1_565 S
Pr41 O66 2.562 1_556 S
Pr41 O67 2.490 . S
Pr41 O68 2.695 1_565 S
Pr41 O69 2.512 . S
Pr41 O71 2.437 . S
C42 Pr40 2.880 . S
C42 C43 1.491 1_554 S
C42 O60 1.254 1_554 S
C42 O61 1.225 . S
C43 C42 1.491 1_556 S
C43 C44 1.391 1_556 S
C43 C48 1.357 . S
C44 C43 1.391 1_554 S
C44 C45 1.368 . S
C44 H72 0.929 . S
C45 C44 1.368 . S
C45 C46 1.386 1_554 S
C45 H73 0.929 . S
C46 C45 1.386 1_556 S
C46 C47 1.373 . S
C47 C46 1.373 . S
C47 C48 1.409 . S
C47 H74 0.931 . S
C48 C43 1.357 . S
C48 C47 1.409 . S
C48 H75 0.930 . S
C49 O62 1.270 1_545 S
C49 O63 1.248 . S
C50 O64 1.266 1_554 S
C50 O65 1.278 . S
C51 Pr41 2.880 . S
C51 C52 1.490 1_556 S
C51 O66 1.254 1_556 S
C51 O67 1.225 . S
C52 C51 1.490 1_554 S
C52 C53 1.387 1_554 S
C52 C57 1.362 . S
C53 C52 1.387 1_556 S
C53 C54 1.368 . S
C53 H76 0.929 . S
C54 C53 1.368 . S
C54 C55 1.386 1_556 S
C54 H77 0.929 . S
C55 C54 1.386 1_554 S
C55 C56 1.373 . S
C56 C55 1.373 . S
C56 C57 1.409 . S
C56 H78 0.931 . S
C57 C52 1.362 . S
C57 C56 1.409 . S
C57 H79 0.930 . S
C58 O68 1.270 1_565 S
C58 O69 1.248 . S
C59 O70 1.267 1_556 S
C59 O71 1.278 . S
O60 Pr40 2.562 1_556 S
O60 C42 1.254 1_556 S
O61 Pr40 2.490 . S
O61 C42 1.225 . S
O62 Pr40 2.695 1_565 S
O62 Pr41 2.436 1_554 S
O62 C49 1.270 1_565 S
O63 Pr40 2.512 . S
O63 C49 1.248 . S
O64 Pr41 2.438 1_545 S
O64 C50 1.266 1_556 S
O65 Pr40 2.437 . S
O65 C50 1.278 . S
O66 Pr41 2.562 1_554 S
O66 C51 1.254 1_554 S
O67 Pr41 2.490 . S
O67 C51 1.225 . S
O68 Pr40 2.436 1_556 S
O68 Pr41 2.695 1_545 S
O68 C58 1.270 1_545 S
O69 Pr41 2.512 . S
O69 C58 1.248 . S
O70 Pr40 2.438 1_565 S
O70 C59 1.267 1_554 S
O71 Pr41 2.437 . S
O71 C59 1.278 . S
H72 C44 0.929 . S
H73 C45 0.929 . S
H74 C47 0.931 . S
H75 C48 0.930 . S
H76 C53 0.929 . S
H77 C54 0.929 . S
H78 C56 0.931 . S
H79 C57 0.930 . S
Pr80 C82 2.880 . S
Pr80 O100 2.562 1_554 S
Pr80 O101 2.490 . S
Pr80 O102 2.695 . S
Pr80 O103 2.512 . S
Pr80 O105 2.437 . S
Pr80 O108 2.436 1_554 S
Pr80 O110 2.438 . S
Pr81 C91 2.880 . S
Pr81 O102 2.436 1_556 S
Pr81 O104 2.438 . S
Pr81 O106 2.562 1_556 S
Pr81 O107 2.490 . S
Pr81 O108 2.695 . S
Pr81 O109 2.512 . S
Pr81 O111 2.437 . S
C82 Pr80 2.880 . S
C82 C83 1.491 . S
C82 O100 1.254 1_554 S
C82 O101 1.225 . S
C83 C82 1.491 . S
C83 C84 1.392 . S
C83 C88 1.356 1_554 S
C84 C83 1.392 . S
C84 C85 1.368 . S
C84 H112 0.929 . S
C85 C84 1.368 . S
C85 C86 1.392 . S
C85 H113 0.929 . S
C86 C85 1.392 . S
C86 C87 1.368 1_554 S
C87 C86 1.368 1_556 S
C87 C88 1.409 . S
C87 H114 0.931 . S
C88 C83 1.356 1_556 S
C88 C87 1.409 . S
C88 H115 0.930 . S
C89 O102 1.270 . S
C89 O103 1.248 . S
C90 O104 1.267 1_554 S
C90 O105 1.278 . S
C91 Pr81 2.880 . S
C91 C92 1.491 . S
C91 O106 1.254 1_556 S
C91 O107 1.225 . S
C92 C91 1.491 . S
C92 C93 1.392 . S
C92 C97 1.356 1_556 S
C93 C92 1.392 . S
C93 C94 1.368 . S
C93 H116 0.929 . S
C94 C93 1.368 . S
C94 C95 1.388 . S
C94 H117 0.929 . S
C95 C94 1.388 . S
C95 C96 1.372 1_556 S
C96 C95 1.372 1_554 S
C96 C97 1.409 . S
C96 H118 0.931 . S
C97 C92 1.356 1_554 S
C97 C96 1.409 . S
C97 H119 0.930 . S
C98 O108 1.270 . S
C98 O109 1.248 . S
C99 O110 1.267 1_556 S
C99 O111 1.278 . S
O100 Pr80 2.562 1_556 S
O100 C82 1.254 1_556 S
O101 Pr80 2.490 . S
O101 C82 1.225 . S
O102 Pr80 2.695 . S
O102 Pr81 2.436 1_554 S
O102 C89 1.270 . S
O103 Pr80 2.512 . S
O103 C89 1.248 . S
O104 Pr81 2.438 . S
O104 C90 1.267 1_556 S
O105 Pr80 2.437 . S
O105 C90 1.278 . S
O106 Pr81 2.562 1_554 S
O106 C91 1.254 1_554 S
O107 Pr81 2.490 . S
O107 C91 1.225 . S
O108 Pr80 2.436 1_556 S
O108 Pr81 2.695 . S
O108 C98 1.270 . S
O109 Pr81 2.512 . S
O109 C98 1.248 . S
O110 Pr80 2.438 . S
O110 C99 1.267 1_554 S
O111 Pr81 2.437 . S
O111 C99 1.278 . S
H112 C84 0.929 . S
H113 C85 0.929 . S
H114 C87 0.931 . S
H115 C88 0.930 . S
H116 C93 0.929 . S
H117 C94 0.929 . S
H118 C96 0.931 . S
H119 C97 0.930 . S
H120 C121 0.959 . S
C121 H120 0.959 . S
C121 C127 1.259 1_655 S
H122 C127 0.950 . S
H123 C131 0.949 . S
H124 C132 0.950 . S
H125 C133 0.951 . S
H126 C134 0.951 . S
C127 C121 1.259 1_455 S
C127 H122 0.950 . S
C127 C128 1.478 . S
C128 C127 1.478 . S
C128 C129 1.397 . S
C128 C145 1.394 1_455 S
C129 C128 1.397 . S
C129 C130 1.438 . S
C129 C134 1.429 . S
C130 C129 1.438 . S
C130 C131 1.428 . S
C130 C143 1.394 1_455 S
C131 H123 0.949 . S
C131 C130 1.428 . S
C131 C132 1.345 . S
C132 H124 0.950 . S
C132 C131 1.345 . S
C132 C133 1.424 . S
C133 H125 0.951 . S
C133 C132 1.424 . S
C133 C134 1.347 . S
C134 H126 0.951 . S
C134 C129 1.429 . S
C134 C133 1.347 . S
H135 C136 0.951 . S
C136 H135 0.951 . S
C136 C142 1.265 1_455 S
H137 C142 0.950 . S
H138 C146 0.949 . S
H139 C147 0.950 . S
H140 C148 0.951 . S
H141 C149 0.951 . S
C142 C136 1.265 1_655 S
C142 H137 0.950 . S
C142 C143 1.478 . S
C143 C130 1.394 1_655 S
C143 C142 1.478 . S
C143 C144 1.397 . S
C144 C143 1.397 . S
C144 C145 1.438 . S
C144 C149 1.429 . S
C145 C128 1.394 1_655 S
C145 C144 1.438 . S
C145 C146 1.428 . S
C146 H138 0.949 . S
C146 C145 1.428 . S
C146 C147 1.345 . S
C147 H139 0.950 . S
C147 C146 1.345 . S
C147 C148 1.424 . S
C148 H140 0.951 . S
C148 C147 1.424 . S
C148 C149 1.347 . S
C149 H141 0.951 . S
C149 C144 1.429 . S
C149 C148 1.347 . S
H150 C151 0.951 . S
C151 H150 0.951 . S
C151 C157 1.262 1_545 S
H152 C157 0.950 . S
H153 C161 0.949 . S
H154 C162 0.950 . S
H155 C163 0.951 . S
H156 C164 0.951 . S
C157 C151 1.262 1_565 S
C157 H152 0.950 . S
C157 C158 1.478 . S
C158 C157 1.478 . S
C158 C159 1.397 . S
C158 C175 1.394 1_565 S
C159 C158 1.397 . S
C159 C160 1.438 . S
C159 C164 1.429 . S
C160 C159 1.438 . S
C160 C161 1.428 . S
C160 C173 1.394 1_565 S
C161 H153 0.949 . S
C161 C160 1.428 . S
C161 C162 1.345 . S
C162 H154 0.950 . S
C162 C161 1.345 . S
C162 C163 1.424 . S
C163 H155 0.951 . S
C163 C162 1.424 . S
C163 C164 1.347 . S
C164 H156 0.951 . S
C164 C159 1.429 . S
C164 C163 1.347 . S
H165 C166 0.951 . S
C166 H165 0.951 . S
C166 C172 1.262 1_565 S
H167 C172 0.950 . S
H168 C176 0.949 . S
H169 C177 0.950 . S
H170 C178 0.951 . S
H171 C179 0.951 . S
C172 C166 1.262 1_545 S
C172 H167 0.950 . S
C172 C173 1.478 . S
C173 C160 1.394 1_545 S
C173 C172 1.478 . S
C173 C174 1.397 . S
C174 C173 1.397 . S
C174 C175 1.438 . S
C174 C179 1.429 . S
C175 C158 1.394 1_545 S
C175 C174 1.438 . S
C175 C176 1.428 . S
C176 H168 0.949 . S
C176 C175 1.428 . S
C176 C177 1.345 . S
C177 H169 0.950 . S
C177 C176 1.345 . S
C177 C178 1.424 . S
C178 H170 0.951 . S
C178 C177 1.424 . S
C178 C179 1.347 . S
C179 H171 0.951 . S
C179 C174 1.429 . S
C179 C178 1.347 . S
H180 C181 0.951 . S
C181 H180 0.951 . S
C181 C187 1.265 . S
H182 C187 0.950 . S
H183 C191 0.949 . S
H184 C192 0.950 . S
H185 C193 0.951 . S
H186 C194 0.951 . S
C187 C181 1.265 . S
C187 H182 0.950 . S
C187 C188 1.478 . S
C188 C187 1.478 . S
C188 C189 1.397 . S
C188 C205 1.394 . S
C189 C188 1.397 . S
C189 C190 1.438 . S
C189 C194 1.429 . S
C190 C189 1.438 . S
C190 C191 1.428 . S
C190 C203 1.394 . S
C191 H183 0.949 . S
C191 C190 1.428 . S
C191 C192 1.345 . S
C192 H184 0.950 . S
C192 C191 1.345 . S
C192 C193 1.424 . S
C193 H185 0.951 . S
C193 C192 1.424 . S
C193 C194 1.347 . S
C194 H186 0.951 . S
C194 C189 1.429 . S
C194 C193 1.347 . S
H195 C196 0.951 . S
C196 H195 0.951 . S
C196 C202 1.265 . S
H197 C202 0.950 . S
H198 C206 0.949 . S
H199 C207 0.950 . S
H200 C208 0.951 . S
H201 C209 0.951 . S
C202 C196 1.265 . S
C202 H197 0.950 . S
C202 C203 1.478 . S
C203 C190 1.394 . S
C203 C202 1.478 . S
C203 C204 1.397 . S
C204 C203 1.397 . S
C204 C205 1.438 . S
C204 C209 1.429 . S
C205 C188 1.394 . S
C205 C204 1.438 . S
C205 C206 1.428 . S
C206 H198 0.949 . S
C206 C205 1.428 . S
C206 C207 1.345 . S
C207 H199 0.950 . S
C207 C206 1.345 . S
C207 C208 1.424 . S
C208 H200 0.951 . S
C208 C207 1.424 . S
C208 C209 1.347 . S
C209 H201 0.951 . S
C209 C204 1.429 . S
C209 C208 1.347 . S
H210 C211 0.951 . S
C211 H210 0.951 . S
C211 C217 1.265 . S
H212 C217 0.950 . S
H213 C221 0.949 . S
H214 C222 0.950 . S
H215 C223 0.951 . S
H216 C224 0.951 . S
C217 C211 1.265 . S
C217 H212 0.950 . S
C217 C218 1.478 . S
C218 C217 1.478 . S
C218 C219 1.397 . S
C218 C235 1.394 1_556 S
C219 C218 1.397 . S
C219 C220 1.438 . S
C219 C224 1.429 . S
C220 C219 1.438 . S
C220 C221 1.428 . S
C220 C233 1.394 . S
C221 H213 0.949 . S
C221 C220 1.428 . S
C221 C222 1.345 . S
C222 H214 0.950 . S
C222 C221 1.345 . S
C222 C223 1.424 . S
C223 H215 0.951 . S
C223 C222 1.424 . S
C223 C224 1.347 . S
C224 H216 0.951 . S
C224 C219 1.429 . S
C224 C223 1.347 . S
H225 C226 0.951 . S
C226 H225 0.951 . S
C226 C232 1.265 . S
H227 C232 0.950 . S
H228 C236 0.949 . S
H229 C237 0.950 . S
H230 C238 0.951 . S
H231 C239 0.951 . S
C232 C226 1.265 . S
C232 H227 0.950 . S
C232 C233 1.478 . S
C233 C220 1.394 . S
C233 C232 1.478 . S
C233 C234 1.397 1_556 S
C234 C233 1.397 1_554 S
C234 C235 1.438 . S
C234 C239 1.429 . S
C235 C218 1.394 1_554 S
C235 C234 1.438 . S
C235 C236 1.428 . S
C236 H228 0.949 . S
C236 C235 1.428 . S
C236 C237 1.345 . S
C237 H229 0.950 . S
C237 C236 1.345 . S
C237 C238 1.424 . S
C238 H230 0.951 . S
C238 C237 1.424 . S
C238 C239 1.347 . S
C239 H231 0.951 . S
C239 C234 1.429 . S
C239 C238 1.347 . S
H240 C241 0.951 . S
C241 H240 0.951 . S
C241 C247 1.265 1_556 S
H242 C247 0.950 . S
H243 C251 0.949 . S
H244 C252 0.950 . S
H245 C253 0.951 . S
H246 C254 0.951 . S
C247 C241 1.265 1_554 S
C247 H242 0.950 . S
C247 C248 1.478 1_554 S
C248 C247 1.478 1_556 S
C248 C249 1.394 1_556 S
C248 C265 1.397 . S
C249 C248 1.394 1_554 S
C249 C250 1.438 . S
C249 C254 1.429 . S
C250 C249 1.438 . S
C250 C251 1.428 . S
C250 C263 1.394 1_554 S
C251 H243 0.949 . S
C251 C250 1.428 . S
C251 C252 1.345 . S
C252 H244 0.950 . S
C252 C251 1.345 . S
C252 C253 1.424 . S
C253 H245 0.951 . S
C253 C252 1.424 . S
C253 C254 1.347 . S
C254 H246 0.951 . S
C254 C249 1.429 . S
C254 C253 1.347 . S
H255 C256 0.951 . S
C256 H255 0.951 . S
C256 C262 1.265 1_554 S
H257 C262 0.950 . S
H258 C266 0.949 . S
H259 C267 0.950 . S
H260 C268 0.951 . S
H261 C269 0.951 . S
C262 C256 1.265 1_556 S
C262 H257 0.950 . S
C262 C263 1.478 . S
C263 C250 1.394 1_556 S
C263 C262 1.478 . S
C263 C264 1.397 . S
C264 C263 1.397 . S
C264 C265 1.438 . S
C264 C269 1.429 . S
C265 C248 1.397 . S
C265 C264 1.438 . S
C265 C266 1.428 . S
C266 H258 0.949 . S
C266 C265 1.428 . S
C266 C267 1.345 . S
C267 H259 0.950 . S
C267 C266 1.345 . S
C267 C268 1.424 . S
C268 H260 0.951 . S
C268 C267 1.424 . S
C268 C269 1.347 . S
C269 H261 0.951 . S
C269 C264 1.429 . S
C269 C268 1.347 . S
H270 C271 0.951 . S
C271 H270 0.951 . S
C271 C277 1.265 1_556 S
H272 C277 0.950 . S
H273 C281 0.949 . S
H274 C282 0.950 . S
H275 C283 0.951 . S
H276 C284 0.951 . S
C277 C271 1.265 1_554 S
C277 H272 0.950 . S
C277 C278 1.478 . S
C278 C277 1.478 . S
C278 C279 1.397 1_554 S
C278 C295 1.394 . S
C279 C278 1.397 1_556 S
C279 C280 1.438 . S
C279 C284 1.429 . S
C280 C279 1.438 . S
C280 C281 1.428 . S
C280 C293 1.394 . S
C281 H273 0.949 . S
C281 C280 1.428 . S
C281 C282 1.345 . S
C282 H274 0.950 . S
C282 C281 1.345 . S
C282 C283 1.424 . S
C283 H275 0.951 . S
C283 C282 1.424 . S
C283 C284 1.347 . S
C284 H276 0.951 . S
C284 C279 1.429 . S
C284 C283 1.347 . S
H285 C286 0.951 . S
C286 H285 0.951 . S
C286 C292 1.265 1_554 S
H287 C292 0.950 . S
H288 C296 0.949 . S
H289 C297 0.950 . S
H290 C298 0.951 . S
H291 C299 0.951 . S
C292 C286 1.265 1_556 S
C292 H287 0.950 . S
C292 C293 1.478 . S
C293 C280 1.394 . S
C293 C292 1.478 . S
C293 C294 1.397 1_556 S
C294 C293 1.397 1_554 S
C294 C295 1.438 . S
C294 C299 1.429 . S
C295 C278 1.394 . S
C295 C294 1.438 . S
C295 C296 1.428 . S
C296 H288 0.949 . S
C296 C295 1.428 . S
C296 C297 1.345 . S
C297 H289 0.950 . S
C297 C296 1.345 . S
C297 C298 1.424 . S
C298 H290 0.951 . S
C298 C297 1.424 . S
C298 C299 1.347 . S
C299 H291 0.951 . S
C299 C294 1.429 . S
C299 C298 1.347 . S
H300 C301 0.951 . S
C301 H300 0.951 . S
C301 C307 1.265 1_554 S
H302 C307 0.950 . S
H303 C311 0.949 . S
H304 C312 0.950 . S
H305 C313 0.951 . S
H306 C314 0.951 . S
C307 C301 1.265 1_556 S
C307 H302 0.950 . S
C307 C308 1.478 1_556 S
C308 C307 1.478 1_554 S
C308 C309 1.397 1_554 S
C308 C325 1.394 . S
C309 C308 1.397 1_556 S
C309 C310 1.438 . S
C309 C314 1.429 . S
C310 C309 1.438 . S
C310 C311 1.428 . S
C310 C323 1.394 1_556 S
C311 H303 0.949 . S
C311 C310 1.428 . S
C311 C312 1.345 . S
C312 H304 0.950 . S
C312 C311 1.345 . S
C312 C313 1.424 . S
C313 H305 0.951 . S
C313 C312 1.424 . S
C313 C314 1.347 . S
C314 H306 0.951 . S
C314 C309 1.429 . S
C314 C313 1.347 . S
H315 C316 0.951 1_556 S
C316 H315 0.951 1_554 S
C316 C322 1.265 . S
H317 C322 0.950 . S
H318 C326 0.949 . S
H319 C327 0.950 . S
H320 C328 0.951 . S
H321 C329 0.951 . S
C322 C316 1.265 . S
C322 H317 0.950 . S
C322 C323 1.478 . S
C323 C310 1.394 1_554 S
C323 C322 1.478 . S
C323 C324 1.397 . S
C324 C323 1.397 . S
C324 C325 1.438 . S
C324 C329 1.429 . S
C325 C308 1.394 . S
C325 C324 1.438 . S
C325 C326 1.428 . S
C326 H318 0.949 . S
C326 C325 1.428 . S
C326 C327 1.345 . S
C327 H319 0.950 . S
C327 C326 1.345 . S
C327 C328 1.424 . S
C328 H320 0.951 . S
C328 C327 1.424 . S
C328 C329 1.347 . S
C329 H321 0.951 . S
C329 C324 1.429 . S
C329 C328 1.347 . S
H330 C331 0.950 1_556 S
C331 H330 0.950 1_554 S
C331 C337 1.265 . S
H332 C337 0.950 . S
H333 C341 0.949 . S
H334 C342 0.950 . S
H335 C343 0.951 . S
H336 C344 0.951 . S
C337 C331 1.265 . S
C337 H332 0.950 . S
C337 C338 1.478 . S
C338 C337 1.478 . S
C338 C339 1.397 . S
C338 C355 1.394 1_554 S
C339 C338 1.397 . S
C339 C340 1.438 . S
C339 C344 1.429 . S
C340 C339 1.438 . S
C340 C341 1.428 . S
C340 C353 1.394 . S
C341 H333 0.949 . S
C341 C340 1.428 . S
C341 C342 1.345 . S
C342 H334 0.950 . S
C342 C341 1.345 . S
C342 C343 1.424 . S
C343 H335 0.951 . S
C343 C342 1.424 . S
C343 C344 1.347 . S
C344 H336 0.951 . S
C344 C339 1.429 . S
C344 C343 1.347 . S
H345 C346 0.951 . S
C346 H345 0.951 . S
C346 C352 1.265 1_554 S
H347 C352 0.950 . S
H348 C356 0.949 . S
H349 C357 0.950 . S
H350 C358 0.951 . S
H351 C359 0.951 . S
C352 C346 1.265 1_556 S
C352 H347 0.950 . S
C352 C353 1.478 1_556 S
C353 C340 1.394 . S
C353 C352 1.478 1_554 S
C353 C354 1.397 1_554 S
C354 C353 1.397 1_556 S
C354 C355 1.438 . S
C354 C359 1.429 . S
C355 C338 1.394 1_556 S
C355 C354 1.438 . S
C355 C356 1.428 . S
C356 H348 0.949 . S
C356 C355 1.428 . S
C356 C357 1.345 . S
C357 H349 0.950 . S
C357 C356 1.345 . S
C357 C358 1.424 . S
C358 H350 0.951 . S
C358 C357 1.424 . S
C358 C359 1.347 . S
C359 H351 0.951 . S
C359 C354 1.429 . S
C359 C358 1.347 . S
H360 C361 0.951 . S
C361 H360 0.951 . S
C361 C367 1.265 1_556 S
H362 C367 0.950 . S
H363 C371 0.949 . S
H364 C372 0.950 . S
H365 C373 0.951 . S
H366 C374 0.951 . S
C367 C361 1.265 1_554 S
C367 H362 0.950 . S
C367 C368 1.478 . S
C368 C367 1.478 . S
C368 C369 1.397 . S
C368 C385 1.394 1_554 S
C369 C368 1.397 . S
C369 C370 1.438 . S
C369 C374 1.429 . S
C370 C369 1.438 . S
C370 C371 1.428 . S
C370 C383 1.394 1_554 S
C371 H363 0.949 . S
C371 C370 1.428 . S
C371 C372 1.345 . S
C372 H364 0.950 . S
C372 C371 1.345 . S
C372 C373 1.424 . S
C373 H365 0.951 . S
C373 C372 1.424 . S
C373 C374 1.347 . S
C374 H366 0.951 . S
C374 C369 1.429 . S
C374 C373 1.347 . S
H375 C376 0.951 . S
C376 H375 0.951 . S
C376 C382 1.265 1_554 S
H377 C382 0.950 . S
H378 C386 0.949 . S
H379 C387 0.950 . S
H380 C388 0.951 . S
H381 C389 0.951 . S
C382 C376 1.265 1_556 S
C382 H377 0.950 . S
C382 C383 1.478 . S
C383 C370 1.394 1_556 S
C383 C382 1.478 . S
C383 C384 1.397 . S
C384 C383 1.397 . S
C384 C385 1.438 . S
C384 C389 1.429 . S
C385 C368 1.394 1_556 S
C385 C384 1.438 . S
C385 C386 1.428 . S
C386 H378 0.949 . S
C386 C385 1.428 . S
C386 C387 1.345 . S
C387 H379 0.950 . S
C387 C386 1.345 . S
C387 C388 1.424 . S
C388 H380 0.951 . S
C388 C387 1.424 . S
C388 C389 1.347 . S
C389 H381 0.951 . S
C389 C384 1.429 . S
C389 C388 1.347 . S
C121 C9 1.408 1_655 S
C136 C18 1.409 . S
C151 C49 1.399 . S
C166 C58 1.397 . S
C181 C98 1.433 . S
C196 C89 1.433 . S
C211 C19 2.601 1_556 S
C226 C90 2.531 1_556 S
C241 C46 0.905 . S
C256 C6 0.908 1_554 S
C271 C59 2.012 . S
C286 C86 1.988 . S
C301 C10 2.601 1_554 S
C316 C99 2.531 1_554 S
C331 C15 0.910 . S
C346 C55 0.906 . S
C361 C95 1.920 . S
C376 C50 1.981 . S
