# Generated by pormake.
# Topology umu, (4)-cn, num edge types: 1
# Building blocks:
#     Node 0, Type 0, BuildingBlock: CEKHIL_clean_sbu_0, # of connection points: 4
#     Node 1, Type 0, BuildingBlock: CEKHIL_clean_sbu_0, # of connection points: 4
#     Node 2, Type 0, BuildingBlock: CEKHIL_clean_sbu_0, # of connection points: 4
#     Node 3, Type 0, BuildingBlock: CEKHIL_clean_sbu_0, # of connection points: 4
#     Node 4, Type 0, BuildingBlock: CEKHIL_clean_sbu_0, # of connection points: 4
#     Node 5, Type 0, BuildingBlock: CEKHIL_clean_sbu_0, # of connection points: 4
#     Node 6, Type 0, BuildingBlock: CEKHIL_clean_sbu_0, # of connection points: 4
#     Node 7, Type 0, BuildingBlock: CEKHIL_clean_sbu_0, # of connection points: 4
#     Node 8, Type 0, BuildingBlock: CEKHIL_clean_sbu_0, # of connection points: 4
#     Node 9, Type 0, BuildingBlock: CEKHIL_clean_sbu_0, # of connection points: 4
#     Node 10, Type 0, BuildingBlock: CEKHIL_clean_sbu_0, # of connection points: 4
#     Node 11, Type 0, BuildingBlock: CEKHIL_clean_sbu_0, # of connection points: 4
#     Node 12, Type 0, BuildingBlock: CEKHIL_clean_sbu_0, # of connection points: 4
#     Node 13, Type 0, BuildingBlock: CEKHIL_clean_sbu_0, # of connection points: 4
#     Node 14, Type 0, BuildingBlock: CEKHIL_clean_sbu_0, # of connection points: 4
#     Node 15, Type 0, BuildingBlock: CEKHIL_clean_sbu_0, # of connection points: 4
#     Node 16, Type 0, BuildingBlock: CEKHIL_clean_sbu_0, # of connection points: 4
#     Node 17, Type 0, BuildingBlock: CEKHIL_clean_sbu_0, # of connection points: 4
#     Node 18, Type 0, BuildingBlock: CEKHIL_clean_sbu_0, # of connection points: 4
#     Node 19, Type 0, BuildingBlock: CEKHIL_clean_sbu_0, # of connection points: 4
#     Node 20, Type 0, BuildingBlock: CEKHIL_clean_sbu_0, # of connection points: 4
#     Node 21, Type 0, BuildingBlock: CEKHIL_clean_sbu_0, # of connection points: 4
#     Node 22, Type 0, BuildingBlock: CEKHIL_clean_sbu_0, # of connection points: 4
#     Node 23, Type 0, BuildingBlock: CEKHIL_clean_sbu_0, # of connection points: 4
#     Node 24, Type 0, BuildingBlock: CEKHIL_clean_sbu_0, # of connection points: 4
#     Node 25, Type 0, BuildingBlock: CEKHIL_clean_sbu_0, # of connection points: 4
#     Node 26, Type 0, BuildingBlock: CEKHIL_clean_sbu_0, # of connection points: 4
#     Node 27, Type 0, BuildingBlock: CEKHIL_clean_sbu_0, # of connection points: 4
#     Node 28, Type 0, BuildingBlock: CEKHIL_clean_sbu_0, # of connection points: 4
#     Node 29, Type 0, BuildingBlock: CEKHIL_clean_sbu_0, # of connection points: 4
#     Node 30, Type 0, BuildingBlock: CEKHIL_clean_sbu_0, # of connection points: 4
#     Node 31, Type 0, BuildingBlock: CEKHIL_clean_sbu_0, # of connection points: 4
#     Edge 32, Type (0, 0), BuildingBlock: CIFDUS_clean_linker_0, # of connection points: 2
#     Edge 33, Type (0, 0), BuildingBlock: CIFDUS_clean_linker_0, # of connection points: 2
#     Edge 34, Type (0, 0), BuildingBlock: CIFDUS_clean_linker_0, # of connection points: 2
#     Edge 35, Type (0, 0), BuildingBlock: CIFDUS_clean_linker_0, # of connection points: 2
#     Edge 36, Type (0, 0), BuildingBlock: CIFDUS_clean_linker_0, # of connection points: 2
#     Edge 37, Type (0, 0), BuildingBlock: CIFDUS_clean_linker_0, # of connection points: 2
#     Edge 38, Type (0, 0), BuildingBlock: CIFDUS_clean_linker_0, # of connection points: 2
#     Edge 39, Type (0, 0), BuildingBlock: CIFDUS_clean_linker_0, # of connection points: 2
#     Edge 40, Type (0, 0), BuildingBlock: CIFDUS_clean_linker_0, # of connection points: 2
#     Edge 41, Type (0, 0), BuildingBlock: CIFDUS_clean_linker_0, # of connection points: 2
#     Edge 42, Type (0, 0), BuildingBlock: CIFDUS_clean_linker_0, # of connection points: 2
#     Edge 43, Type (0, 0), BuildingBlock: CIFDUS_clean_linker_0, # of connection points: 2
#     Edge 44, Type (0, 0), BuildingBlock: CIFDUS_clean_linker_0, # of connection points: 2
#     Edge 45, Type (0, 0), BuildingBlock: CIFDUS_clean_linker_0, # of connection points: 2
#     Edge 46, Type (0, 0), BuildingBlock: CIFDUS_clean_linker_0, # of connection points: 2
#     Edge 47, Type (0, 0), BuildingBlock: CIFDUS_clean_linker_0, # of connection points: 2
#     Edge 48, Type (0, 0), BuildingBlock: CIFDUS_clean_linker_0, # of connection points: 2
#     Edge 49, Type (0, 0), BuildingBlock: CIFDUS_clean_linker_0, # of connection points: 2
#     Edge 50, Type (0, 0), BuildingBlock: CIFDUS_clean_linker_0, # of connection points: 2
#     Edge 51, Type (0, 0), BuildingBlock: CIFDUS_clean_linker_0, # of connection points: 2
#     Edge 52, Type (0, 0), BuildingBlock: CIFDUS_clean_linker_0, # of connection points: 2
#     Edge 53, Type (0, 0), BuildingBlock: CIFDUS_clean_linker_0, # of connection points: 2
#     Edge 54, Type (0, 0), BuildingBlock: CIFDUS_clean_linker_0, # of connection points: 2
#     Edge 55, Type (0, 0), BuildingBlock: CIFDUS_clean_linker_0, # of connection points: 2
#     Edge 56, Type (0, 0), BuildingBlock: CIFDUS_clean_linker_0, # of connection points: 2
#     Edge 57, Type (0, 0), BuildingBlock: CIFDUS_clean_linker_0, # of connection points: 2
#     Edge 58, Type (0, 0), BuildingBlock: CIFDUS_clean_linker_0, # of connection points: 2
#     Edge 59, Type (0, 0), BuildingBlock: CIFDUS_clean_linker_0, # of connection points: 2
#     Edge 60, Type (0, 0), BuildingBlock: CIFDUS_clean_linker_0, # of connection points: 2
#     Edge 61, Type (0, 0), BuildingBlock: CIFDUS_clean_linker_0, # of connection points: 2
#     Edge 62, Type (0, 0), BuildingBlock: CIFDUS_clean_linker_0, # of connection points: 2
#     Edge 63, Type (0, 0), BuildingBlock: CIFDUS_clean_linker_0, # of connection points: 2
#     Edge 64, Type (0, 0), BuildingBlock: CIFDUS_clean_linker_0, # of connection points: 2
#     Edge 65, Type (0, 0), BuildingBlock: CIFDUS_clean_linker_0, # of connection points: 2
#     Edge 66, Type (0, 0), BuildingBlock: CIFDUS_clean_linker_0, # of connection points: 2
#     Edge 67, Type (0, 0), BuildingBlock: CIFDUS_clean_linker_0, # of connection points: 2
#     Edge 68, Type (0, 0), BuildingBlock: CIFDUS_clean_linker_0, # of connection points: 2
#     Edge 69, Type (0, 0), BuildingBlock: CIFDUS_clean_linker_0, # of connection points: 2
#     Edge 70, Type (0, 0), BuildingBlock: CIFDUS_clean_linker_0, # of connection points: 2
#     Edge 71, Type (0, 0), BuildingBlock: CIFDUS_clean_linker_0, # of connection points: 2
#     Edge 72, Type (0, 0), BuildingBlock: CIFDUS_clean_linker_0, # of connection points: 2
#     Edge 73, Type (0, 0), BuildingBlock: CIFDUS_clean_linker_0, # of connection points: 2
#     Edge 74, Type (0, 0), BuildingBlock: CIFDUS_clean_linker_0, # of connection points: 2
#     Edge 75, Type (0, 0), BuildingBlock: CIFDUS_clean_linker_0, # of connection points: 2
#     Edge 76, Type (0, 0), BuildingBlock: CIFDUS_clean_linker_0, # of connection points: 2
#     Edge 77, Type (0, 0), BuildingBlock: CIFDUS_clean_linker_0, # of connection points: 2
#     Edge 78, Type (0, 0), BuildingBlock: CIFDUS_clean_linker_0, # of connection points: 2
#     Edge 79, Type (0, 0), BuildingBlock: CIFDUS_clean_linker_0, # of connection points: 2
#     Edge 80, Type (0, 0), BuildingBlock: CIFDUS_clean_linker_0, # of connection points: 2
#     Edge 81, Type (0, 0), BuildingBlock: CIFDUS_clean_linker_0, # of connection points: 2
#     Edge 82, Type (0, 0), BuildingBlock: CIFDUS_clean_linker_0, # of connection points: 2
#     Edge 83, Type (0, 0), BuildingBlock: CIFDUS_clean_linker_0, # of connection points: 2
#     Edge 84, Type (0, 0), BuildingBlock: CIFDUS_clean_linker_0, # of connection points: 2
#     Edge 85, Type (0, 0), BuildingBlock: CIFDUS_clean_linker_0, # of connection points: 2
#     Edge 86, Type (0, 0), BuildingBlock: CIFDUS_clean_linker_0, # of connection points: 2
#     Edge 87, Type (0, 0), BuildingBlock: CIFDUS_clean_linker_0, # of connection points: 2
#     Edge 88, Type (0, 0), BuildingBlock: CIFDUS_clean_linker_0, # of connection points: 2
#     Edge 89, Type (0, 0), BuildingBlock: CIFDUS_clean_linker_0, # of connection points: 2
#     Edge 90, Type (0, 0), BuildingBlock: CIFDUS_clean_linker_0, # of connection points: 2
#     Edge 91, Type (0, 0), BuildingBlock: CIFDUS_clean_linker_0, # of connection points: 2
#     Edge 92, Type (0, 0), BuildingBlock: CIFDUS_clean_linker_0, # of connection points: 2
#     Edge 93, Type (0, 0), BuildingBlock: CIFDUS_clean_linker_0, # of connection points: 2
#     Edge 94, Type (0, 0), BuildingBlock: CIFDUS_clean_linker_0, # of connection points: 2
#     Edge 95, Type (0, 0), BuildingBlock: CIFDUS_clean_linker_0, # of connection points: 2
# Relax obj value: 0.131
# Max RMSD: 0.097
# Mean RMSD: 0.097
data_MOF--net-umu--node1-CEKHIL_clean_sbu_0--edge1-CIFDUS_clean_linker_0
_symmetry_space_group_name_H-M    P1
_symmetry_Int_Tables_number       1
_symmetry_cell_setting            triclinic
loop_
_symmetry_equiv_pos_as_xyz
'x, y, z'
_cell_length_a     70.883354
_cell_length_b     71.002385
_cell_length_c     22.37917
_cell_angle_alpha  90.024133
_cell_angle_beta   89.840818
_cell_angle_gamma 90.083355
loop_
_atom_site_label
_atom_site_type_symbol
_atom_site_fract_x
_atom_site_fract_y
_atom_site_fract_z
_atom_type_partial_charge
Co0 Co 0.22464 0.16812 0.09218 0.0
O1 O 0.22167 0.14188 0.06967 0.0
O2 O 0.20067 0.16396 0.05133 0.0
C3 C 0.23565 0.1623 0.18535 0.0
O4 O 0.22223 0.19664 0.10858 0.0
Co5 Co 0.26358 0.18538 0.12987 0.0
O6 O 0.24825 0.2073 0.15518 0.0
C7 C 0.25604 0.17462 0.00447 0.0
C8 C 0.20553 0.14636 0.04638 0.0
C9 C 0.23154 0.20974 0.13582 0.0
O10 O 0.23818 0.17313 0.01477 0.0
O11 O 0.26831 0.17754 0.04532 0.0
O12 O 0.21751 0.16219 0.17564 0.0
O13 O 0.24596 0.16493 0.13907 0.0
Co14 Co 0.11178 0.97135 0.35054 0.0
O15 O 0.13755 0.96808 0.32311 0.0
O16 O 0.11509 0.94711 0.30961 0.0
C17 C 0.11929 0.98257 0.44265 0.0
O18 O 0.08353 0.96938 0.37354 0.0
Co19 Co 0.09626 1.01087 0.39051 0.0
O20 O 0.07553 0.99557 0.42451 0.0
C21 C 0.1025 1.00224 0.26249 0.0
C22 C 0.13265 0.95186 0.3013 0.0
C23 C 0.07186 0.97899 0.40599 0.0
O24 O 0.1054 0.98461 0.27335 0.0
O25 O 0.1002 0.01468 0.30321 0.0
O26 O 0.11909 0.96446 0.43309 0.0
O27 O 0.11625 0.99274 0.39648 0.0
Co28 Co 0.30834 0.85786 0.6013 0.0
O29 O 0.31412 0.88331 0.57403 0.0
O30 O 0.3328 0.85882 0.56178 0.0
C31 C 0.29736 0.86597 0.69318 0.0
O32 O 0.30823 0.82966 0.62261 0.0
Co33 Co 0.26817 0.8442 0.64104 0.0
O34 O 0.28164 0.82181 0.67159 0.0
C35 C 0.27728 0.84982 0.51283 0.0
C36 C 0.32991 0.87668 0.55312 0.0
C37 C 0.29805 0.81777 0.65222 0.0
O38 O 0.29495 0.8525 0.52381 0.0
O39 O 0.26468 0.84768 0.55333 0.0
O40 O 0.31547 0.8645 0.68405 0.0
O41 O 0.28705 0.86366 0.64681 0.0
Co42 Co 0.42105 0.05926 0.84317 0.0
O43 O 0.39503 0.06218 0.81851 0.0
O44 O 0.41722 0.0833 0.80197 0.0
C45 C 0.41417 0.04831 0.93587 0.0
O46 O 0.44948 0.06149 0.86253 0.0
Co47 Co 0.43754 0.02021 0.8822 0.0
O48 O 0.45887 0.03554 0.91192 0.0
C49 C 0.42957 0.02829 0.75487 0.0
C50 C 0.39964 0.07835 0.79566 0.0
C51 C 0.46195 0.05211 0.89234 0.0
O52 O 0.42678 0.04591 0.76589 0.0
O53 O 0.43255 0.01594 0.79539 0.0
O54 O 0.41432 0.0664 0.92589 0.0
O55 O 0.41717 0.03795 0.88995 0.0
Co56 Co 0.22172 0.86018 0.07768 0.0
O57 O 0.21333 0.88523 0.10096 0.0
O58 O 0.19713 0.85926 0.1173 0.0
C59 C 0.23195 0.86775 0.98451 0.0
O60 O 0.22533 0.83184 0.05915 0.0
Co61 Co 0.26407 0.85245 0.04437 0.0
O62 O 0.25392 0.82796 0.01657 0.0
C63 C 0.25295 0.86033 0.16855 0.0
C64 C 0.19829 0.87747 0.12327 0.0
C65 C 0.2378 0.82159 0.03207 0.0
O66 O 0.23538 0.8576 0.15621 0.0
O67 O 0.26601 0.86099 0.12904 0.0
O68 O 0.21407 0.86457 0.99385 0.0
O69 O 0.24219 0.86787 0.03157 0.0
Co70 Co 0.41089 0.97388 0.32046 0.0
O71 O 0.3852 0.96869 0.34472 0.0
O72 O 0.409 0.94953 0.36153 0.0
C73 C 0.40416 0.9843 0.22724 0.0
O74 O 0.43935 0.97448 0.30005 0.0
Co75 Co 0.4225 0.0152 0.28579 0.0
O76 O 0.44521 1.00223 0.25449 0.0
C77 C 0.41469 1.00519 0.41088 0.0
C78 C 0.39106 0.95302 0.36785 0.0
C79 C 0.45026 0.98571 0.27018 0.0
O80 O 0.41535 0.98746 0.3984 0.0
O81 O 0.41516 0.0182 0.37139 0.0
O82 O 0.4054 0.96626 0.23728 0.0
O83 O 0.40521 0.99471 0.27387 0.0
Co84 Co 0.31011 0.16786 0.56783 0.0
O85 O 0.31796 0.14314 0.59566 0.0
O86 O 0.33439 0.16919 0.60837 0.0
C87 C 0.30053 0.15877 0.47566 0.0
O88 O 0.30725 0.19585 0.5447 0.0
Co89 Co 0.26856 0.17631 0.52775 0.0
O90 O 0.27988 0.19969 0.49549 0.0
C91 C 0.27792 0.17201 0.6557 0.0
C92 C 0.33301 0.15111 0.61696 0.0
C93 C 0.29574 0.20595 0.51347 0.0
O94 O 0.29583 0.1721 0.64481 0.0
O95 O 0.2653 0.17187 0.61496 0.0
O96 O 0.31837 0.16194 0.48549 0.0
O97 O 0.28987 0.15973 0.52184 0.0
Co98 Co 0.1121 0.05825 0.82764 0.0
O99 O 0.13781 0.06525 0.84961 0.0
O100 O 0.11263 0.08263 0.86689 0.0
C101 C 0.11873 0.04766 0.73417 0.0
O102 O 0.08354 0.05694 0.81232 0.0
Co103 Co 0.09963 0.01748 0.79205 0.0
O104 O 0.07544 0.02952 0.76912 0.0
C105 C 0.10975 0.02676 0.91667 0.0
C106 C 0.13078 0.08065 0.87191 0.0
C107 C 0.07131 0.04601 0.78736 0.0
O108 O 0.10899 0.0446 0.90588 0.0
O109 O 0.10845 1.01408 0.87619 0.0
O110 O 0.11666 0.06566 0.74363 0.0
O111 O 0.11791 0.0373 0.78097 0.0
Co112 Co 0.8089 0.85644 0.06642 0.0
O113 O 0.8179 0.88113 0.0909 0.0
O114 O 0.83416 0.85486 0.10037 0.0
C115 C 0.79673 0.86471 0.97623 0.0
O116 O 0.80462 0.82843 0.04611 0.0
Co117 Co 0.76587 0.84921 0.04443 0.0
O118 O 0.77506 0.82506 0.01094 0.0
C119 C 0.78028 0.85432 0.16681 0.0
C120 C 0.83311 0.87291 0.10988 0.0
C121 C 0.79144 0.81849 0.02161 0.0
O122 O 0.7974 0.85291 0.148 0.0
O123 O 0.76601 0.8549 0.13193 0.0
O124 O 0.81476 0.86159 0.98162 0.0
O125 O 0.78745 0.86463 0.0256 0.0
Co126 Co 0.9205 0.05601 0.81749 0.0
O127 O 0.89478 0.06156 0.8404 0.0
O128 O 0.9185 0.08115 0.85373 0.0
C129 C 0.91401 0.04337 0.72637 0.0
O130 O 0.94901 0.05494 0.79819 0.0
Co131 Co 0.93205 1.01395 0.79455 0.0
O132 O 0.95491 0.02602 0.76064 0.0
C133 C 0.92523 0.02756 0.91708 0.0
C134 C 0.90062 0.07753 0.86155 0.0
C135 C 0.96001 0.04286 0.77232 0.0
O136 O 0.9249 0.04471 0.89864 0.0
O137 O 0.92621 1.01335 0.88196 0.0
O138 O 0.91512 0.06159 0.73259 0.0
O139 O 0.91495 0.03404 0.77536 0.0
Co140 Co 0.72276 0.16625 0.5726 0.0
O141 O 0.71808 0.14032 0.59508 0.0
O142 O 0.69764 0.16324 0.60858 0.0
C143 C 0.73584 0.16028 0.48143 0.0
O144 O 0.72259 0.19477 0.55377 0.0
Co145 Co 0.76425 0.17994 0.54955 0.0
O146 O 0.75119 0.20219 0.51607 0.0
C147 C 0.75113 0.1719 0.67195 0.0
C148 C 0.7018 0.14553 0.61595 0.0
C149 C 0.7341 0.20639 0.52795 0.0
O150 O 0.73392 0.17099 0.65388 0.0
O151 O 0.76524 0.17367 0.63655 0.0
O152 O 0.71755 0.16064 0.48753 0.0
O153 O 0.74506 0.16172 0.53047 0.0
Co154 Co 0.6017 0.96966 0.32902 0.0
O155 O 0.62722 0.96416 0.35684 0.0
O156 O 0.60394 0.9436 0.35451 0.0
C157 C 0.6104 0.98671 0.24699 0.0
O158 O 0.57357 0.96906 0.30531 0.0
Co159 Co 0.58521 1.01018 0.30995 0.0
O160 O 0.56347 0.99728 0.27316 0.0
C161 C 0.59298 0.99501 0.43117 0.0
C162 C 0.62133 0.9472 0.36878 0.0
C163 C 0.56075 0.97982 0.28275 0.0
O164 O 0.59477 0.97802 0.41177 0.0
O165 O 0.59096 1.00932 0.39701 0.0
O166 O 0.61002 0.96834 0.24404 0.0
O167 O 0.60633 0.99357 0.29819 0.0
Co168 Co 0.81782 0.16872 0.1064 0.0
O169 O 0.82567 0.14332 0.0855 0.0
O170 O 0.84304 0.16871 0.07129 0.0
C171 C 0.80539 0.16228 0.1982 0.0
O172 O 0.81491 0.19721 0.12157 0.0
Co173 Co 0.77507 0.17786 0.12828 0.0
O174 O 0.78457 0.20359 0.14448 0.0
C175 C 0.78909 0.17045 0.00658 0.0
C176 C 0.84115 0.15061 0.06441 0.0
C177 C 0.80159 0.20879 0.13588 0.0
O178 O 0.8063 0.17148 0.0247 0.0
O179 O 0.77488 0.17068 0.04196 0.0
O180 O 0.82354 0.16463 0.19197 0.0
O181 O 0.7961 0.16208 0.14909 0.0
Co182 Co 0.61129 0.06089 0.86083 0.0
O183 O 0.63618 0.06731 0.82974 0.0
O184 O 0.61206 0.0868 0.8317 0.0
C185 C 0.62145 0.04559 0.9441 0.0
O186 O 0.58351 0.05994 0.88867 0.0
Co187 Co 0.59847 0.01916 0.88498 0.0
O188 O 0.57665 0.03115 0.92497 0.0
C189 C 0.60236 0.03405 0.76173 0.0
C190 C 0.62951 0.0838 0.81629 0.0
C191 C 0.57224 0.04826 0.91509 0.0
O192 O 0.60388 0.05121 0.77997 0.0
O193 O 0.60197 0.0198 0.79667 0.0
O194 O 0.61995 0.06391 0.94473 0.0
O195 O 0.61787 0.03782 0.89392 0.0
Co196 Co 0.7144 0.86258 0.60198 0.0
O197 O 0.71033 0.88894 0.58295 0.0
O198 O 0.68952 0.86649 0.56642 0.0
C199 C 0.72741 0.86717 0.69382 0.0
O200 O 0.71331 0.83386 0.61573 0.0
Co201 Co 0.75498 0.84681 0.62487 0.0
O202 O 0.74113 0.82422 0.65331 0.0
C203 C 0.74277 0.85649 0.50254 0.0
C204 C 0.69401 0.88421 0.56135 0.0
C205 C 0.72402 0.82109 0.63896 0.0
O206 O 0.72563 0.8586 0.52046 0.0
O207 O 0.75658 0.85338 0.53794 0.0
O208 O 0.70912 0.8672 0.68763 0.0
O209 O 0.73675 0.86592 0.64479 0.0
Co210 Co 0.92029 0.96151 0.3508 0.0
O211 O 0.8939 0.95796 0.33167 0.0
O212 O 0.91592 0.93676 0.31465 0.0
C213 C 0.91572 0.97446 0.44275 0.0
O214 O 0.94902 0.96004 0.36445 0.0
Co215 Co 0.93658 1.00186 0.37412 0.0
O216 O 0.95909 0.98778 0.40166 0.0
C217 C 0.92646 0.98984 0.25196 0.0
C218 C 0.8983 0.94165 0.30948 0.0
C219 C 0.96198 0.97065 0.38731 0.0
O220 O 0.9245 0.9727 0.26959 0.0
O221 O 0.92961 1.00362 0.28753 0.0
O222 O 0.91547 0.95621 0.43626 0.0
O223 O 0.91724 0.98382 0.39393 0.0
Co224 Co 0.72409 0.67145 0.60441 0.0
O225 O 0.72035 0.64578 0.57691 0.0
O226 O 0.6997 0.6685 0.56414 0.0
C227 C 0.73552 0.66371 0.69616 0.0
O228 O 0.7225 0.69964 0.62753 0.0
Co229 Co 0.76392 0.68666 0.64243 0.0
O230 O 0.74898 0.70746 0.67718 0.0
C231 C 0.75469 0.68089 0.51476 0.0
C232 C 0.70417 0.65093 0.55544 0.0
C233 C 0.73236 0.71125 0.65939 0.0
O234 O 0.73715 0.67779 0.52671 0.0
O235 O 0.76739 0.6833 0.55467 0.0
O236 O 0.71736 0.66408 0.68716 0.0
O237 O 0.74564 0.66675 0.64965 0.0
Co238 Co 0.61144 0.47547 0.85586 0.0
O239 O 0.63646 0.47168 0.82285 0.0
O240 O 0.61464 0.44962 0.82666 0.0
C241 C 0.62123 0.49202 0.93717 0.0
O242 O 0.58396 0.47391 0.88685 0.0
Co243 Co 0.59508 0.51598 0.88032 0.0
O244 O 0.57559 0.50202 0.92537 0.0
C245 C 0.59935 0.50105 0.75709 0.0
C246 C 0.63158 0.45453 0.81008 0.0
C247 C 0.57235 0.48463 0.9158 0.0
O248 O 0.60239 0.48414 0.77557 0.0
O249 O 0.59785 0.5153 0.7918 0.0
O250 O 0.62143 0.47365 0.93866 0.0
O251 O 0.6161 0.49915 0.88747 0.0
Co252 Co 0.80757 0.36128 0.11152 0.0
O253 O 0.8147 0.38725 0.09853 0.0
O254 O 0.83259 0.36309 0.07423 0.0
C255 C 0.79549 0.365 0.20544 0.0
O256 O 0.80474 0.3324 0.11781 0.0
Co257 Co 0.76472 0.35174 0.13269 0.0
O258 O 0.77471 0.32602 0.14513 0.0
C259 C 0.77845 0.36159 0.01233 0.0
C260 C 0.83006 0.38126 0.07327 0.0
C261 C 0.79142 0.32074 0.13195 0.0
O262 O 0.79568 0.36067 0.03002 0.0
O263 O 0.76427 0.36035 0.04769 0.0
O264 O 0.81364 0.36297 0.19801 0.0
O265 O 0.78611 0.36643 0.15687 0.0
Co266 Co 0.92192 0.55881 0.35635 0.0
O267 O 0.8955 0.56229 0.33744 0.0
O268 O 0.91746 0.58364 0.32093 0.0
C269 C 0.91723 0.54572 0.44811 0.0
O270 O 0.95071 0.56035 0.36994 0.0
Co271 Co 0.9382 0.5185 0.37869 0.0
O272 O 0.96086 0.53249 0.40574 0.0
C273 C 0.92796 0.53067 0.25682 0.0
C274 C 0.89983 0.5787 0.31589 0.0
C275 C 0.96374 0.54968 0.39199 0.0
O276 O 0.92609 0.54778 0.27482 0.0
O277 O 0.93112 0.51684 0.29212 0.0
O278 O 0.91708 0.56397 0.44185 0.0
O279 O 0.91883 0.53641 0.39916 0.0
Co280 Co 0.71241 0.35783 0.57909 0.0
O281 O 0.70593 0.3838 0.59844 0.0
O282 O 0.68716 0.35946 0.61311 0.0
C283 C 0.72558 0.36322 0.48779 0.0
O284 O 0.71352 0.32914 0.56549 0.0
Co285 Co 0.75406 0.3449 0.55804 0.0
O286 O 0.74226 0.32101 0.53116 0.0
C287 C 0.7407 0.35517 0.67883 0.0
C288 C 0.68997 0.37747 0.61913 0.0
C289 C 0.72522 0.31691 0.5441 0.0
O290 O 0.72346 0.35493 0.661 0.0
O291 O 0.75483 0.35321 0.64358 0.0
O292 O 0.7073 0.36194 0.4933 0.0
O293 O 0.73474 0.3628 0.53716 0.0
Co294 Co 0.91923 0.46458 0.82175 0.0
O295 O 0.89422 0.45684 0.84769 0.0
O296 O 0.91974 0.43937 0.85656 0.0
C297 C 0.91135 0.47684 0.73134 0.0
O298 O 0.94733 0.46762 0.79987 0.0
Co299 Co 0.92808 0.5072 0.79835 0.0
O300 O 0.95142 0.4968 0.76233 0.0
C301 C 0.92354 0.4932 0.9215 0.0
C302 C 0.90177 0.44133 0.8669 0.0
C303 C 0.9575 0.48027 0.77343 0.0
O304 O 0.92368 0.47605 0.90282 0.0
O305 O 0.92348 0.50745 0.88651 0.0
O306 O 0.91356 0.45872 0.73738 0.0
O307 O 0.91184 0.48621 0.78043 0.0
Co308 Co 0.81097 0.66703 0.08077 0.0
O309 O 0.819 0.64184 0.10449 0.0
O310 O 0.83534 0.66779 0.12031 0.0
C311 C 0.80072 0.65985 0.9873 0.0
O312 O 0.80833 0.69532 0.0635 0.0
Co313 Co 0.76938 0.67692 0.04604 0.0
O314 O 0.78014 0.70166 0.02234 0.0
C315 C 0.77944 0.66841 0.17083 0.0
C316 C 0.83402 0.64965 0.12689 0.0
C317 C 0.79656 0.70678 0.03891 0.0
O318 O 0.79718 0.67 0.15906 0.0
O319 O 0.76654 0.66856 0.13088 0.0
O320 O 0.81867 0.66254 -0.00311 0.0
O321 O 0.79032 0.66004 0.03423 0.0
Co322 Co 0.61054 0.56569 0.32502 0.0
O323 O 0.63543 0.57167 0.35661 0.0
O324 O 0.61188 0.59178 0.35263 0.0
C325 C 0.62114 0.5497 0.24348 0.0
O326 O 0.58283 0.56516 0.29583 0.0
Co327 Co 0.5969 0.52413 0.30188 0.0
O328 O 0.5758 0.53639 0.25967 0.0
C329 C 0.60037 0.53956 0.42479 0.0
C330 C 0.62922 0.58846 0.3684 0.0
C331 C 0.57157 0.55357 0.26896 0.0
O332 O 0.60244 0.55661 0.40608 0.0
O333 O 0.59974 0.5252 0.39026 0.0
O334 O 0.61998 0.56803 0.24162 0.0
O335 O 0.61679 0.5423 0.29365 0.0
Co336 Co 0.31619 0.35715 0.5794 0.0
O337 O 0.32309 0.38268 0.60236 0.0
O338 O 0.34135 0.35781 0.61368 0.0
C339 C 0.30358 0.36394 0.48867 0.0
O340 O 0.31458 0.32876 0.56176 0.0
Co341 Co 0.27439 0.34527 0.5558 0.0
O342 O 0.28582 0.32155 0.52601 0.0
C343 C 0.28755 0.35273 0.67871 0.0
C344 C 0.33889 0.37577 0.62192 0.0
C345 C 0.30274 0.31701 0.53866 0.0
O346 O 0.30481 0.35319 0.66075 0.0
O347 O 0.27347 0.35138 0.64319 0.0
O348 O 0.3218 0.36228 0.4945 0.0
O349 O 0.29416 0.3631 0.53772 0.0
Co350 Co 0.41941 0.56436 0.32771 0.0
O351 O 0.39293 0.56719 0.34773 0.0
O352 O 0.41436 0.5891 0.36326 0.0
C353 C 0.41503 0.55112 0.23599 0.0
O354 O 0.44808 0.56668 0.31247 0.0
Co355 Co 0.43674 0.5245 0.30442 0.0
O356 O 0.45869 0.53919 0.27493 0.0
C357 C 0.42668 0.5364 0.427 0.0
C358 C 0.39686 0.58375 0.36892 0.0
C359 C 0.46121 0.55644 0.2887 0.0
O360 O 0.42412 0.55345 0.40924 0.0
O361 O 0.43011 0.5227 0.39139 0.0
O362 O 0.41429 0.56936 0.24233 0.0
O363 O 0.41685 0.54188 0.28491 0.0
Co364 Co 0.22031 0.66903 0.08868 0.0
O365 O 0.21342 0.64337 0.11135 0.0
O366 O 0.19582 0.66833 0.12838 0.0
C367 C 0.23103 0.66218 0.99528 0.0
O368 O 0.22179 0.69763 0.07257 0.0
Co369 Co 0.26141 0.68104 0.05322 0.0
O370 O 0.24965 0.70533 0.03068 0.0
C371 C 0.25178 0.67119 0.17775 0.0
C372 C 0.19797 0.65023 0.13394 0.0
C373 C 0.23309 0.70972 0.04816 0.0
O374 O 0.23395 0.67226 0.16683 0.0
O375 O 0.26456 0.67217 0.13735 0.0
O376 O 0.21298 0.66425 0.00466 0.0
O377 O 0.24132 0.6631 0.04212 0.0
Co378 Co 0.10894 0.46692 0.83818 0.0
O379 O 0.13428 0.46058 0.86573 0.0
O380 O 0.10919 0.44263 0.87814 0.0
C381 C 0.11736 0.47749 0.74602 0.0
O382 O 0.08073 0.46746 0.81701 0.0
Co383 Co 0.09604 0.50707 0.79745 0.0
O384 O 0.07298 0.49413 0.76908 0.0
C385 C 0.10207 0.49848 0.9257 0.0
C386 C 0.12714 0.44506 0.88694 0.0
C387 C 0.06881 0.47776 0.78834 0.0
O388 O 0.10388 0.48068 0.91533 0.0
O389 O 0.1004 0.51091 0.88466 0.0
O390 O 0.11545 0.45946 0.75544 0.0
O391 O 0.11524 0.48794 0.79222 0.0
Co392 Co 0.30669 0.66932 0.61252 0.0
O393 O 0.31438 0.64484 0.58118 0.0
O394 O 0.33119 0.67083 0.5731 0.0
C395 C 0.29633 0.65937 0.70345 0.0
O396 O 0.30436 0.69703 0.63906 0.0
Co397 Co 0.26526 0.67857 0.65241 0.0
O398 O 0.27711 0.70095 0.6893 0.0
C399 C 0.27523 0.67646 0.5241 0.0
C400 C 0.32962 0.65296 0.5614 0.0
C401 C 0.29314 0.707 0.67188 0.0
O402 O 0.29301 0.6749 0.53554 0.0
O403 O 0.26234 0.67673 0.56418 0.0
O404 O 0.3143 0.66216 0.69439 0.0
O405 O 0.28594 0.66111 0.65701 0.0
Co406 Co 0.11457 0.55343 0.36139 0.0
O407 O 0.14051 0.55812 0.33779 0.0
O408 O 0.1172 0.57781 0.32082 0.0
C409 C 0.12102 0.5425 0.45458 0.0
O410 O 0.08595 0.55371 0.38041 0.0
Co411 Co 0.10118 0.51264 0.39617 0.0
O412 O 0.07853 0.52619 0.42505 0.0
C413 C 0.11063 0.52218 0.27159 0.0
C414 C 0.13507 0.57397 0.31479 0.0
C415 C 0.07427 0.54287 0.4088 0.0
O416 O 0.11012 0.53997 0.28327 0.0
O417 O 0.10947 0.50935 0.31155 0.0
O418 O 0.12016 0.5606 0.44513 0.0
O419 O 0.11946 0.53229 0.40772 0.0
Co420 Co 0.22156 0.36027 0.11454 0.0
O421 O 0.21732 0.38634 0.09327 0.0
O422 O 0.19645 0.36377 0.07961 0.0
C423 C 0.23465 0.36584 0.20559 0.0
O424 O 0.22102 0.33168 0.13214 0.0
Co425 Co 0.26286 0.34611 0.13648 0.0
O426 O 0.24953 0.32383 0.16919 0.0
C427 C 0.2497 0.3542 0.01424 0.0
C428 C 0.2009 0.38146 0.07301 0.0
C429 C 0.23241 0.31984 0.15714 0.0
O430 O 0.23255 0.35563 0.03283 0.0
O431 O 0.2638 0.35212 0.04922 0.0
O432 O 0.21636 0.36562 0.19973 0.0
O433 O 0.24391 0.36445 0.15643 0.0
Co434 Co 0.4213 0.46927 0.86009 0.0
O435 O 0.39506 0.46522 0.83936 0.0
O436 O 0.41765 0.44442 0.82459 0.0
C437 C 0.41615 0.48232 0.95167 0.0
O438 O 0.44988 0.46802 0.87567 0.0
Co439 Co 0.43731 0.50962 0.88375 0.0
O440 O 0.4597 0.49574 0.91339 0.0
C441 C 0.42783 0.49752 0.76105 0.0
C442 C 0.39998 0.4489 0.81822 0.0
C443 C 0.46266 0.47858 0.89953 0.0
O444 O 0.42587 0.48037 0.7787 0.0
O445 O 0.43074 0.51131 0.79677 0.0
O446 O 0.4161 0.46407 0.94534 0.0
O447 O 0.41778 0.49166 0.90278 0.0
H448 H 0.1672 0.07736 0.91174 0.0
H449 H 0.1209 0.11657 0.9024 0.0
H450 H 0.13968 0.14032 0.95444 0.0
H451 H 0.16935 0.1501 0.00374 0.0
H452 H 0.21516 0.11039 0.01639 0.0
H453 H 0.1966 0.08692 0.96258 0.0
C454 C 0.16124 0.09112 0.92086 0.0
C455 C 0.14263 0.09512 0.90275 0.0
C456 C 0.17207 0.10472 0.95183 0.0
C457 C 0.13515 0.11302 0.91565 0.0
C458 C 0.14591 0.12666 0.94552 0.0
C459 C 0.17528 0.13631 0.99476 0.0
C460 C 0.19372 0.13212 0.01427 0.0
C461 C 0.16439 0.12269 0.96404 0.0
C462 C 0.20105 0.11409 0.00223 0.0
C463 C 0.19043 0.10061 0.97124 0.0
H464 H 0.12907 0.91495 0.26245 0.0
H465 H 0.16768 0.962 0.26349 0.0
H466 H 0.19082 0.9436 0.2081 0.0
H467 H 0.20057 0.91414 0.15945 0.0
H468 H 0.16298 0.86636 0.1606 0.0
H469 H 0.13922 0.8849 0.21442 0.0
C470 C 0.14254 0.92117 0.25052 0.0
C471 C 0.14649 0.93996 0.26743 0.0
C472 C 0.15608 0.91032 0.21879 0.0
C473 C 0.16413 0.94765 0.25154 0.0
C474 C 0.17745 0.93711 0.21961 0.0
C475 C 0.18716 0.90775 0.17123 0.0
C476 C 0.18363 0.88882 0.15552 0.0
C477 C 0.17363 0.91844 0.20299 0.0
C478 C 0.16616 0.88086 0.17188 0.0
C479 C 0.15253 0.89149 0.20277 0.0
H480 H 0.39714 0.91732 0.4136 0.0
H481 H 0.35477 0.96064 0.39872 0.0
H482 H 0.33256 0.94139 0.45507 0.0
H483 H 0.32475 0.91222 0.50903 0.0
H484 H 0.36631 0.86815 0.52169 0.0
H485 H 0.38898 0.88755 0.46645 0.0
C486 C 0.38305 0.92252 0.42265 0.0
C487 C 0.37776 0.94051 0.40166 0.0
C488 C 0.37008 0.9112 0.45504 0.0
C489 C 0.35935 0.94691 0.41389 0.0
C490 C 0.34656 0.93589 0.44638 0.0
C491 C 0.33879 0.90686 0.49993 0.0
C492 C 0.34376 0.88872 0.51994 0.0
C493 C 0.35172 0.91802 0.46728 0.0
C494 C 0.36201 0.88203 0.50701 0.0
C495 C 0.37504 0.89315 0.47532 0.0
H496 H 0.40278 0.11497 0.75473 0.0
H497 H 0.36435 0.06783 0.76195 0.0
H498 H 0.34079 0.0858 0.70731 0.0
H499 H 0.33075 0.11485 0.65701 0.0
H500 H 0.3683 0.16265 0.65189 0.0
H501 H 0.3923 0.14462 0.70569 0.0
C502 C 0.38926 0.10864 0.74434 0.0
C503 C 0.38547 0.08997 0.76265 0.0
C504 C 0.3755 0.11922 0.71305 0.0
C505 C 0.36776 0.08212 0.74882 0.0
C506 C 0.35421 0.0924 0.71734 0.0
C507 C 0.34419 0.12135 0.66751 0.0
C508 C 0.34766 0.14012 0.64999 0.0
C509 C 0.35789 0.11095 0.69916 0.0
C510 C 0.36517 0.14826 0.66464 0.0
C511 C 0.37895 0.13793 0.69547 0.0
H512 H 0.82989 0.90738 0.16262 0.0
H513 H 0.86923 0.86185 0.13689 0.0
H514 H 0.89282 0.87866 0.19662 0.0
H515 H 0.90239 0.90662 0.25667 0.0
H516 H 0.86204 0.95125 0.28471 0.0
H517 H 0.83893 0.9345 0.22445 0.0
C518 C 0.84366 0.90115 0.16968 0.0
C519 C 0.84778 0.8834 0.14458 0.0
C520 C 0.85704 0.91075 0.20514 0.0
C521 C 0.86565 0.8755 0.15527 0.0
C522 C 0.87916 0.88512 0.18962 0.0
C523 C 0.88851 0.91262 0.24991 0.0
C524 C 0.88409 0.93027 0.27557 0.0
C525 C 0.87504 0.90278 0.21501 0.0
C526 C 0.86595 0.93774 0.26599 0.0
C527 C 0.85266 0.92817 0.23118 0.0
H528 H 0.90738 0.11249 0.91317 0.0
H529 H 0.8642 0.07013 0.89102 0.0
H530 H 0.84269 0.08827 0.95308 0.0
H531 H 0.83572 0.11605 0.01442 0.0
H532 H 0.87772 0.15953 0.03415 0.0
H533 H 0.89989 0.14119 0.97322 0.0
C534 C 0.89324 0.10729 0.92165 0.0
C535 C 0.88756 0.08985 0.89701 0.0
C536 C 0.88065 0.11798 0.9576 0.0
C537 C 0.8691 0.08344 0.90886 0.0
C538 C 0.85671 0.09381 0.94473 0.0
C539 C 0.84977 0.12148 0.00586 0.0
C540 C 0.85504 0.13911 0.02959 0.0
C541 C 0.86231 0.11105 0.9696 0.0
C542 C 0.87325 0.14599 0.0169 0.0
C543 C 0.88596 0.13549 0.98182 0.0
H544 H 0.6674 0.15171 0.6721 0.0
H545 H 0.70888 0.10856 0.63779 0.0
H546 H 0.69079 0.08621 0.69725 0.0
H547 H 0.66336 0.07854 0.76004 0.0
H548 H 0.62111 0.1209 0.79337 0.0
H549 H 0.63922 0.14368 0.73411 0.0
C550 C 0.67242 0.13739 0.67732 0.0
C551 C 0.68959 0.13196 0.65003 0.0
C552 C 0.66182 0.12437 0.71201 0.0
C553 C 0.69578 0.11328 0.6578 0.0
C554 C 0.68544 0.10041 0.69213 0.0
C555 C 0.65812 0.09278 0.75469 0.0
C556 C 0.64088 0.09794 0.78176 0.0
C557 C 0.66849 0.10577 0.71973 0.0
C558 C 0.63432 0.11646 0.77345 0.0
C559 C 0.64469 0.12953 0.73934 0.0
H560 H 0.65518 0.95268 0.42574 0.0
H561 H 0.61409 0.90972 0.38532 0.0
H562 H 0.63241 0.88663 0.44157 0.0
H563 H 0.6602 0.87843 0.50333 0.0
H564 H 0.7009 0.92167 0.54504 0.0
H565 H 0.68272 0.9446 0.48812 0.0
C566 C 0.65029 0.93824 0.42883 0.0
C567 C 0.63326 0.93302 0.40075 0.0
C568 C 0.66082 0.92498 0.46217 0.0
C569 C 0.62712 0.91422 0.40611 0.0
C570 C 0.6376 0.90096 0.43852 0.0
C571 C 0.66504 0.89289 0.50029 0.0
C572 C 0.68197 0.8982 0.5289 0.0
C573 C 0.65445 0.90615 0.46707 0.0
C574 C 0.68797 0.91706 0.52391 0.0
C575 C 0.67757 0.93025 0.49106 0.0
H576 H 0.66899 0.65674 0.505 0.0
H577 H 0.71187 0.61433 0.52878 0.0
H578 H 0.69299 0.59176 0.47277 0.0
H579 H 0.66427 0.58363 0.41694 0.0
H580 H 0.62086 0.62543 0.39362 0.0
H581 H 0.63985 0.64842 0.44882 0.0
C582 C 0.6742 0.64256 0.498 0.0
C583 C 0.69195 0.63737 0.5215 0.0
C584 C 0.66313 0.62942 0.46545 0.0
C585 C 0.69834 0.61885 0.51165 0.0
C586 C 0.68753 0.60586 0.47938 0.0
C587 C 0.65895 0.59779 0.42363 0.0
C588 C 0.64109 0.6027 0.40068 0.0
C589 C 0.66991 0.61094 0.456 0.0
C590 C 0.63451 0.62116 0.41045 0.0
C591 C 0.64539 0.63435 0.4422 0.0
H592 H 0.62526 0.41827 0.76926 0.0
H593 H 0.66719 0.4624 0.77163 0.0
H594 H 0.68837 0.44307 0.71166 0.0
H595 H 0.69537 0.41361 0.65808 0.0
H596 H 0.65408 0.36898 0.65662 0.0
H597 H 0.63247 0.38842 0.7157 0.0
C598 C 0.63905 0.42363 0.75688 0.0
C599 C 0.64451 0.44187 0.77539 0.0
C600 C 0.65135 0.41234 0.72192 0.0
C601 C 0.66249 0.44848 0.75846 0.0
C602 C 0.67468 0.43742 0.72385 0.0
C603 C 0.68159 0.40816 0.67023 0.0
C604 C 0.6764 0.38982 0.65232 0.0
C605 C 0.66928 0.41935 0.7051 0.0
C606 C 0.65851 0.38302 0.66937 0.0
C607 C 0.64612 0.39414 0.70342 0.0
H608 H 0.86883 0.44728 0.92652 0.0
H609 H 0.90999 0.40416 0.88993 0.0
H610 H 0.89193 0.38172 0.95094 0.0
H611 H 0.86393 0.37423 0.01473 0.0
H612 H 0.82415 0.41854 0.05425 0.0
H613 H 0.84215 0.44041 0.99299 0.0
C614 C 0.87383 0.43294 0.93153 0.0
C615 C 0.89067 0.42741 0.90287 0.0
C616 C 0.86361 0.42025 0.96787 0.0
C617 C 0.89704 0.40883 0.91104 0.0
C618 C 0.88671 0.39597 0.94611 0.0
C619 C 0.8593 0.38871 0.01034 0.0
C620 C 0.84258 0.39458 0.03946 0.0
C621 C 0.86993 0.4015 0.97491 0.0
C622 C 0.8369 0.41347 0.0329 0.0
C623 C 0.84718 0.42607 -0.00252 0.0
H624 H 0.83098 0.61413 0.17362 0.0
H625 H 0.86981 0.66062 0.15677 0.0
H626 H 0.89352 0.6432 0.21356 0.0
H627 H 0.90342 0.6145 0.26864 0.0
H628 H 0.86379 0.56872 0.28842 0.0
H629 H 0.84045 0.58603 0.23077 0.0
C630 C 0.84466 0.62043 0.18209 0.0
C631 C 0.84857 0.63867 0.16037 0.0
C632 C 0.85817 0.61044 0.21591 0.0
C633 C 0.86634 0.64662 0.17266 0.0
C634 C 0.87995 0.63665 0.2053 0.0
C635 C 0.88965 0.60836 0.26061 0.0
C636 C 0.8855 0.59025 0.2832 0.0
C637 C 0.87605 0.61853 0.22737 0.0
C638 C 0.8675 0.5826 0.27206 0.0
C639 C 0.85407 0.59249 0.23876 0.0
H640 H 0.3336 0.41057 0.67158 0.0
H641 H 0.37542 0.36705 0.64989 0.0
H642 H 0.39789 0.38543 0.70895 0.0
H643 H 0.40576 0.41401 0.76758 0.0
H644 H 0.36334 0.4569 0.79159 0.0
H645 H 0.34118 0.43866 0.73168 0.0
C646 C 0.34768 0.40515 0.67939 0.0
C647 C 0.3528 0.38746 0.65572 0.0
C648 C 0.36046 0.41567 0.71445 0.0
C649 C 0.37106 0.38061 0.66721 0.0
C650 C 0.38393 0.39112 0.70119 0.0
C651 C 0.39164 0.41932 0.76 0.0
C652 C 0.38632 0.43687 0.78443 0.0
C653 C 0.3788 0.40866 0.72531 0.0
C654 C 0.36791 0.44346 0.77379 0.0
C655 C 0.35518 0.43305 0.73921 0.0
H656 H 0.32695 0.61793 0.51063 0.0
H657 H 0.36536 0.66456 0.53206 0.0
H658 H 0.38941 0.64775 0.47437 0.0
H659 H 0.39985 0.61942 0.41794 0.0
H660 H 0.36073 0.5734 0.39448 0.0
H661 H 0.33691 0.59027 0.45198 0.0
C662 C 0.3406 0.62442 0.50285 0.0
C663 C 0.34428 0.64251 0.52622 0.0
C664 C 0.35435 0.61474 0.46877 0.0
C665 C 0.36205 0.65069 0.51489 0.0
C666 C 0.37586 0.64105 0.48177 0.0
C667 C 0.38609 0.61313 0.42512 0.0
C668 C 0.38223 0.59506 0.40156 0.0
C669 C 0.37222 0.62303 0.4584 0.0
C670 C 0.36423 0.58723 0.41163 0.0
C671 C 0.35053 0.59688 0.44483 0.0
H672 H 0.12992 0.61017 0.27167 0.0
H673 H 0.17108 0.56558 0.28204 0.0
H674 H 0.19365 0.58464 0.22628 0.0
H675 H 0.20216 0.61406 0.17435 0.0
H676 H 0.16184 0.65938 0.16688 0.0
H677 H 0.13877 0.64012 0.22096 0.0
C678 C 0.14383 0.60463 0.26177 0.0
C679 C 0.14865 0.58634 0.28135 0.0
C680 C 0.15702 0.61585 0.22982 0.0
C681 C 0.16685 0.57954 0.26801 0.0
C682 C 0.17984 0.59046 0.23584 0.0
C683 C 0.1883 0.61972 0.18429 0.0
C684 C 0.18381 0.6382 0.16606 0.0
C685 C 0.17514 0.60863 0.21644 0.0
C686 C 0.16578 0.64526 0.18013 0.0
C687 C 0.15252 0.63421 0.21119 0.0
H688 H 0.16268 0.44927 0.93309 0.0
H689 H 0.11738 0.40901 0.91743 0.0
H690 H 0.13574 0.38584 0.97336 0.0
H691 H 0.16498 0.37677 0.02712 0.0
H692 H 0.20965 0.41772 0.04505 0.0
H693 H 0.19134 0.44058 0.98871 0.0
C694 C 0.15683 0.43541 0.94172 0.0
C695 C 0.13865 0.43095 0.92058 0.0
C696 C 0.1674 0.42217 0.97484 0.0
C697 C 0.13131 0.41292 0.93293 0.0
C698 C 0.14183 0.39961 0.96505 0.0
C699 C 0.17067 0.39071 0.01894 0.0
C700 C 0.18877 0.39538 0.04065 0.0
C701 C 0.15992 0.40404 0.98639 0.0
C702 C 0.19581 0.41361 0.02933 0.0
C703 C 0.18533 0.42677 -0.0032 0.0
H704 H 0.2355 0.17591 0.90253 0.0
H705 H 0.29247 0.16985 0.96779 0.0
H706 H 0.30435 0.16829 0.86575 0.0
H707 H 0.29866 0.16923 0.7578 0.0
H708 H 0.24155 0.17566 0.69356 0.0
H709 H 0.22979 0.17647 0.79529 0.0
C710 C 0.2505 0.17417 0.89448 0.0
C711 C 0.26304 0.17311 0.94263 0.0
C712 C 0.2573 0.1734 0.8358 0.0
C713 C 0.28247 0.17089 0.93143 0.0
C714 C 0.28932 0.16996 0.87309 0.0
C715 C 0.28366 0.17082 0.76606 0.0
C716 C 0.2711 0.17238 0.71801 0.0
C717 C 0.27687 0.17134 0.8249 0.0
C718 C 0.25164 0.17436 0.72958 0.0
C719 C 0.24482 0.17486 0.78784 0.0
H720 H 0.11557 0.98439 0.16279 0.0
H721 H 0.08887 0.03573 0.22279 0.0
H722 H 0.08999 0.04836 0.12206 0.0
H723 H 0.09821 0.04491 0.01658 0.0
H724 H 0.12414 0.99344 0.95522 0.0
H725 H 0.12386 0.98095 0.05676 0.0
C726 C 0.10987 0.99826 0.15368 0.0
C727 C 0.10219 1.00905 0.20027 0.0
C728 C 0.11058 1.00555 0.09549 0.0
C729 C 0.09498 0.0271 0.18782 0.0
C730 C 0.09562 0.03441 0.1302 0.0
C731 C 0.10399 0.03106 0.02563 0.0
C732 C 0.11117 0.02013 0.97873 0.0
C733 C 0.10345 0.02381 0.08377 0.0
C734 C 0.11844 1.0021 0.9908 0.0
C735 C 0.11826 0.99492 0.04874 0.0
H736 H 0.23579 0.84501 0.2653 0.0
H737 H 0.284 0.87816 0.21146 0.0
H738 H 0.29625 0.87735 0.3131 0.0
H739 H 0.29372 0.86648 0.41676 0.0
H740 H 0.24561 0.83305 0.47014 0.0
H741 H 0.23304 0.83451 0.36912 0.0
C742 C 0.24883 0.85226 0.2761 0.0
C743 C 0.25898 0.86158 0.23119 0.0
C744 C 0.25599 0.85145 0.33429 0.0
C745 C 0.27598 0.87078 0.24545 0.0
C746 C 0.28304 0.87028 0.30343 0.0
C747 C 0.28059 0.85938 0.40604 0.0
C748 C 0.27065 0.84966 0.45063 0.0
C749 C 0.27331 0.86042 0.34801 0.0
C750 C 0.25351 0.8407 0.43646 0.0
C751 C 0.24627 0.84155 0.37879 0.0
H752 H 0.41382 0.04601 0.65989 0.0
H753 H 0.44285 0.99506 0.71081 0.0
H754 H 0.43959 0.98277 0.60978 0.0
H755 H 0.42887 0.9866 0.50647 0.0
H756 H 0.40035 0.03775 0.45526 0.0
H757 H 0.4028 0.04969 0.55709 0.0
C758 C 0.41958 0.0323 0.64875 0.0
C759 C 0.4286 0.02153 0.6927 0.0
C760 C 0.41756 0.02522 0.59069 0.0
C761 C 0.43579 1.00366 0.67776 0.0
C762 C 0.43391 0.99657 0.62004 0.0
C763 C 0.42299 1.00024 0.5179 0.0
C764 C 0.41449 1.01128 0.47365 0.0
C765 C 0.42477 1.0072 0.57621 0.0
C766 C 0.40708 0.02903 0.4887 0.0
C767 C 0.40851 0.03591 0.5468 0.0
H768 H 0.74657 0.85937 0.22197 0.0
H769 H 0.80585 0.85103 0.25793 0.0
H770 H 0.79941 0.8514 0.36515 0.0
H771 H 0.77692 0.85332 0.44795 0.0
H772 H 0.71765 0.86165 0.4114 0.0
H773 H 0.72427 0.86208 0.30449 0.0
C774 C 0.75814 0.85763 0.25307 0.0
C775 C 0.77666 0.85504 0.2318 0.0
C776 C 0.75436 0.85783 0.31441 0.0
C777 C 0.79145 0.85297 0.27298 0.0
C778 C 0.78778 0.85317 0.33429 0.0
C779 C 0.76541 0.85526 0.41675 0.0
C780 C 0.74679 0.85733 0.43781 0.0
C781 C 0.76927 0.85546 0.35539 0.0
C782 C 0.7321 0.85994 0.39655 0.0
C783 C 0.73586 0.86018 0.33538 0.0
H784 H 0.92233 0.99363 0.97172 0.0
H785 H 0.9271 0.05321 0.00845 0.0
H786 H 0.92755 0.04671 0.11554 0.0
H787 H 0.92743 0.02412 0.19803 0.0
H788 H 0.92257 0.96457 0.16059 0.0
H789 H 0.92131 0.9712 0.0539 0.0
C790 C 0.92348 1.00525 0.00298 0.0
C791 C 0.92484 0.02387 0.98198 0.0
C792 C 0.92376 1.00144 0.06423 0.0
C793 C 0.9261 0.03873 0.02333 0.0
C794 C 0.92639 0.03503 0.08456 0.0
C795 C 0.9261 1.01255 0.16666 0.0
C796 C 0.92524 0.99386 0.18739 0.0
C797 C 0.92537 0.01643 0.1054 0.0
C798 C 0.92334 0.97909 0.14597 0.0
C799 C 0.92262 0.98285 0.08492 0.0
H800 H 0.75488 0.16895 0.95262 0.0
H801 H 0.8147 0.17035 0.91458 0.0
H802 H 0.80807 0.17068 0.80763 0.0
H803 H 0.78541 0.17138 0.72572 0.0
H804 H 0.7256 0.17009 0.76391 0.0
H805 H 0.73226 0.16891 0.87074 0.0
C806 C 0.76654 0.16927 0.92112 0.0
C807 C 0.78528 0.16973 0.94175 0.0
C808 C 0.76265 0.16955 0.8599 0.0
C809 C 0.80014 0.17006 0.90005 0.0
C810 C 0.79637 0.17027 0.83889 0.0
C811 C 0.77377 0.17085 0.75724 0.0
C812 C 0.75502 0.17095 0.7367 0.0
C813 C 0.77768 0.17018 0.81844 0.0
C814 C 0.74017 0.17011 0.77838 0.0
C815 C 0.74396 0.16943 0.83948 0.0
H816 H 0.60302 0.99985 0.7089 0.0
H817 H 0.5979 0.05932 0.67032 0.0
H818 H 0.59393 0.05209 0.56436 0.0
H819 H 0.59179 0.02911 0.48443 0.0
H820 H 0.59737 0.96966 0.52257 0.0
H821 H 0.60105 0.97684 0.62871 0.0
C822 C 0.601 1.01132 0.67755 0.0
C823 C 0.60065 0.03012 0.6975 0.0
C824 C 0.59869 1.00708 0.61723 0.0
C825 C 0.59821 0.04474 0.65607 0.0
C826 C 0.59589 0.04061 0.59565 0.0
C827 C 0.59371 0.01762 0.51572 0.0
C828 C 0.59423 0.99883 0.49561 0.0
C829 C 0.59604 0.02184 0.57602 0.0
C830 C 0.59683 0.98422 0.53695 0.0
C831 C 0.599 0.98832 0.59747 0.0
H832 H 0.73793 0.66429 0.41918 0.0
H833 H 0.78633 0.69749 0.4706 0.0
H834 H 0.79897 0.6954 0.36961 0.0
H835 H 0.79641 0.68413 0.26665 0.0
H836 H 0.74782 0.6515 0.2141 0.0
H837 H 0.73531 0.65309 0.31573 0.0
C838 C 0.75112 0.67123 0.40802 0.0
C839 C 0.76116 0.68101 0.4522 0.0
C840 C 0.75845 0.66984 0.34994 0.0
C841 C 0.77836 0.68978 0.43735 0.0
C842 C 0.78565 0.68856 0.37969 0.0
C843 C 0.78323 0.67717 0.27776 0.0
C844 C 0.77308 0.66768 0.23332 0.0
C845 C 0.77591 0.67849 0.33578 0.0
C846 C 0.75586 0.65894 0.24784 0.0
C847 C 0.74865 0.65989 0.30576 0.0
H848 H 0.59913 0.5054 0.47763 0.0
H849 H 0.59887 0.56507 0.51679 0.0
H850 H 0.59766 0.55806 0.62364 0.0
H851 H 0.59762 0.53519 0.7043 0.0
H852 H 0.59895 0.47554 0.66507 0.0
H853 H 0.5987 0.48254 0.55819 0.0
C854 C 0.59871 0.51697 0.50926 0.0
C855 C 0.59908 0.53577 0.48926 0.0
C856 C 0.59822 0.51286 0.57007 0.0
C857 C 0.59861 0.5505 0.53106 0.0
C858 C 0.59792 0.5465 0.59201 0.0
C859 C 0.59773 0.52363 0.67262 0.0
C860 C 0.59829 0.50483 0.69262 0.0
C861 C 0.59785 0.52774 0.61178 0.0
C862 C 0.59852 0.49011 0.65079 0.0
C863 C 0.5984 0.49411 0.58983 0.0
H864 H 0.7749 0.35893 0.73192 0.0
H865 H 0.71511 0.35732 0.77036 0.0
H866 H 0.72165 0.36053 0.87677 0.0
H867 H 0.74421 0.36227 0.95851 0.0
H868 H 0.80404 0.36339 0.92048 0.0
H869 H 0.79746 0.3621 0.81361 0.0
C870 C 0.76325 0.35929 0.76343 0.0
C871 C 0.74454 0.35768 0.74314 0.0
C872 C 0.76708 0.36109 0.82444 0.0
C873 C 0.72965 0.3584 0.78469 0.0
C874 C 0.73337 0.36025 0.84556 0.0
C875 C 0.75587 0.36238 0.92702 0.0
C876 C 0.7746 0.36276 0.94763 0.0
C877 C 0.75203 0.3614 0.86586 0.0
C878 C 0.78948 0.36301 0.90595 0.0
C879 C 0.78574 0.36222 0.84482 0.0
H880 H 0.92857 0.49644 0.20229 0.0
H881 H 0.92381 0.55604 0.16591 0.0
H882 H 0.92165 0.54951 0.05928 0.0
H883 H 0.9216 0.52712 0.97683 0.0
H884 H 0.92623 0.46749 0.01249 0.0
H885 H 0.92786 0.47392 0.11953 0.0
C886 C 0.92708 0.50804 0.17116 0.0
C887 C 0.92647 0.52672 0.1922 0.0
C888 C 0.92581 0.50421 0.10992 0.0
C889 C 0.92439 0.54153 0.15107 0.0
C890 C 0.92314 0.53782 0.09005 0.0
C891 C 0.92296 0.51547 0.00782 0.0
C892 C 0.92391 0.49685 0.98649 0.0
C893 C 0.92392 0.51924 0.06906 0.0
C894 C 0.92552 0.48197 0.02758 0.0
C895 C 0.92648 0.48562 0.08879 0.0
H896 H 0.25324 0.35399 0.73308 0.0
H897 H 0.31306 0.35356 0.77025 0.0
H898 H 0.30646 0.35432 0.87718 0.0
H899 H 0.28388 0.35451 0.95952 0.0
H900 H 0.22405 0.35504 0.9228 0.0
H901 H 0.23062 0.3549 0.81567 0.0
C902 C 0.26488 0.35406 0.76442 0.0
C903 C 0.28363 0.35359 0.74352 0.0
C904 C 0.26101 0.35451 0.82577 0.0
C905 C 0.29849 0.35384 0.78497 0.0
C906 C 0.29474 0.35427 0.84615 0.0
C907 C 0.27222 0.35459 0.92826 0.0
C908 C 0.25349 0.35466 0.9493 0.0
C909 C 0.27607 0.3545 0.86694 0.0
C910 C 0.23861 0.35493 0.90793 0.0
C911 C 0.24234 0.35484 0.84666 0.0
H912 H 0.42641 0.50203 0.48011 0.0
H913 H 0.42519 0.56161 0.51956 0.0
H914 H 0.42514 0.55471 0.62637 0.0
H915 H 0.42624 0.53188 0.70805 0.0
H916 H 0.42714 0.47231 0.6685 0.0
H917 H 0.42648 0.47921 0.56175 0.0
C918 C 0.42614 0.51355 0.51194 0.0
C919 C 0.42596 0.53232 0.49173 0.0
C920 C 0.42609 0.50951 0.57316 0.0
C921 C 0.42538 0.54703 0.53378 0.0
C922 C 0.42539 0.5431 0.59488 0.0
C923 C 0.42631 0.52037 0.6762 0.0
C924 C 0.4269 0.5016 0.69637 0.0
C925 C 0.42588 0.52441 0.61499 0.0
C926 C 0.42676 0.48689 0.65432 0.0
C927 C 0.4264 0.49081 0.59325 0.0
H928 H 0.2934 0.66394 0.42459 0.0
H929 H 0.24241 0.69144 0.48428 0.0
H930 H 0.23015 0.69129 0.38289 0.0
H931 H 0.23372 0.68324 0.2773 0.0
H932 H 0.28476 0.65614 0.21669 0.0
H933 H 0.29703 0.656 0.3184 0.0
C934 C 0.2797 0.67005 0.41518 0.0
C935 C 0.26884 0.67763 0.46174 0.0
C936 C 0.27261 0.66979 0.35679 0.0
C937 C 0.25102 0.68538 0.44914 0.0
C938 C 0.24395 0.68529 0.39123 0.0
C939 C 0.24743 0.67713 0.28655 0.0
C940 C 0.2583 0.66972 0.23985 0.0
C941 C 0.25454 0.67738 0.34482 0.0
C942 C 0.27615 0.66203 0.25214 0.0
C943 C 0.28322 0.66197 0.31017 0.0
H944 H 0.0995 0.54102 0.1724 0.0
H945 H 0.12406 0.48867 0.23147 0.0
H946 H 0.12331 0.47647 0.12975 0.0
H947 H 0.11488 0.4803 0.02443 0.0
H948 H 0.08987 0.53254 0.96582 0.0
H949 H 0.09147 0.54502 0.06687 0.0
C950 C 0.10488 0.52704 0.1628 0.0
C951 C 0.11174 0.51576 0.2092 0.0
C952 C 0.10413 0.51996 0.10442 0.0
C953 C 0.11854 0.49759 0.19637 0.0
C954 C 0.1181 0.49056 0.1383 0.0
C955 C 0.10966 0.49435 0.03389 0.0
C956 C 0.10226 0.50541 0.98774 0.0
C957 C 0.11069 0.50153 0.09211 0.0
C958 C 0.09572 0.5237 0.00055 0.0
C959 C 0.09664 0.5309 0.05832 0.0
H960 H 0.23614 0.23493 0.22528 0.0
H961 H 0.21074 0.22862 0.0518 0.0
H962 H 0.20566 0.26276 0.04635 0.0
H963 H 0.21347 0.29491 0.08445 0.0
H964 H 0.23945 0.3003 0.25761 0.0
H965 H 0.23887 0.26622 0.27026 0.0
C966 C 0.22905 0.24098 0.18692 0.0
C967 C 0.224 0.22926 0.13881 0.0
C968 C 0.2264 0.26058 0.18389 0.0
C969 C 0.2147 0.2373 0.08959 0.0
C970 C 0.21196 0.25687 0.08625 0.0
C971 C 0.21835 0.28862 0.12575 0.0
C972 C 0.22658 0.30014 0.16997 0.0
C973 C 0.21842 0.26877 0.13218 0.0
C974 C 0.2331 0.29175 0.2229 0.0
C975 C 0.2329 0.27223 0.23002 0.0
H976 H 0.048 0.95854 0.33341 0.0
H977 H 0.05189 0.98448 0.50729 0.0
H978 H 0.01795 0.98141 0.52095 0.0
H979 H 0.98677 0.97662 0.4767 0.0
H980 H 0.98192 0.95091 0.30314 0.0
H981 H 0.01639 0.94832 0.29645 0.0
C982 C 0.04147 0.96291 0.37502 0.0
C983 C 0.05249 0.97196 0.41896 0.0
C984 C 0.02167 0.96143 0.38226 0.0
C985 C 0.04375 0.97767 0.4725 0.0
C986 C 0.02429 0.97599 0.4803 0.0
C987 C 0.99326 0.96992 0.43819 0.0
C988 C 0.98183 0.96406 0.3904 0.0
C989 C 1.01303 0.96871 0.43445 0.0
C990 C 0.9904 0.9554 0.34078 0.0
C991 C 1.01015 0.95411 0.33669 0.0
H992 H 0.28795 0.79256 0.73744 0.0
H993 H 0.32132 0.79789 0.57701 0.0
H994 H 0.32516 0.76362 0.57297 0.0
H995 H 0.31487 0.73188 0.60708 0.0
H996 H 0.28092 0.72734 0.76687 0.0
H997 H 0.28174 0.76138 0.77946 0.0
C998 C 0.29639 0.78626 0.70221 0.0
C999 C 0.30412 0.79778 0.6572 0.0
C1000 C 0.29828 0.76658 0.69969 0.0
C1001 C 0.31522 0.78939 0.61231 0.0
C1002 C 0.31728 0.76974 0.60969 0.0
C1003 C 0.30808 0.73832 0.64546 0.0
C1004 C 0.29759 0.72704 0.68544 0.0
C1005 C 0.30829 0.75813 0.65196 0.0
C1006 C 0.28886 0.73566 0.7349 0.0
C1007 C 0.28927 0.75517 0.74214 0.0
H1008 H 0.48672 0.04457 0.98091 0.0
H1009 H 0.48177 0.07486 0.81488 0.0
H1010 H 0.5161 0.07924 0.81184 0.0
H1011 H 0.54788 0.06964 0.8483 0.0
H1012 H 0.55196 0.03806 0.01232 0.0
H1013 H 0.51781 0.03929 0.02474 0.0
C1014 C 0.4931 0.05253 0.94471 0.0
C1015 C 0.48168 0.05918 0.89786 0.0
C1016 C 0.51282 0.0546 0.94265 0.0
C1017 C 0.49017 0.06963 0.85164 0.0
C1018 C 0.50987 0.07197 0.84961 0.0
C1019 C 0.5413 0.0636 0.8877 0.0
C1020 C 0.55247 0.05368 0.92923 0.0
C1021 C 0.52142 0.06385 0.89368 0.0
C1022 C 0.54371 0.04569 0.97963 0.0
C1023 C 0.52414 0.0463 0.98661 0.0
H1024 H 0.21593 0.79604 0.09554 0.0
H1025 H 0.25235 0.80103 0.94142 0.0
H1026 H 0.25244 0.76703 0.92923 0.0
H1027 H 0.24546 0.73571 0.96848 0.0
H1028 H 0.20923 0.72959 0.12219 0.0
H1029 H 0.20556 0.76391 0.12778 0.0
C1030 C 0.22351 0.78969 0.05857 0.0
C1031 C 0.23434 0.80119 0.01999 0.0
C1032 C 0.22374 0.76982 0.05203 0.0
C1033 C 0.24413 0.79261 0.97239 0.0
C1034 C 0.24422 0.7731 0.9653 0.0
C1035 C 0.23651 0.74184 0.00272 0.0
C1036 C 0.2278 0.73004 0.04518 0.0
C1037 C 0.23461 0.76154 0.00592 0.0
C1038 C 0.21608 0.73828 0.08877 0.0
C1039 C 0.21409 0.75796 0.09225 0.0
H1040 H 0.47517 0.9634 0.33355 0.0
H1041 H 0.47005 0.99663 0.17298 0.0
H1042 H 0.50396 0.99519 0.15734 0.0
H1043 H 0.53541 0.98915 0.19762 0.0
H1044 H 0.54152 0.95601 0.35749 0.0
H1045 H 0.50717 0.95243 0.36438 0.0
C1046 C 0.48145 0.96984 0.29431 0.0
C1047 C 0.47005 0.98043 0.25516 0.0
C1048 C 0.50125 0.96918 0.28575 0.0
C1049 C 0.47847 0.98868 0.20447 0.0
C1050 C 0.49792 0.9879 0.19542 0.0
C1051 C 0.52924 0.98067 0.23298 0.0
C1052 C 0.541 0.97298 0.27713 0.0
C1053 C 0.50951 0.97891 0.23706 0.0
C1054 C 0.53281 0.96198 0.32262 0.0
C1055 C 0.51311 0.96011 0.32696 0.0
H1056 H 0.31865 0.2304 0.57625 0.0
H1057 H 0.28146 0.22731 0.42405 0.0
H1058 H 0.28215 0.2614 0.41431 0.0
H1059 H 0.28974 0.29225 0.45643 0.0
H1060 H 0.32689 0.29626 0.60801 0.0
H1061 H 0.33001 0.26187 0.60996 0.0
C1062 C 0.31107 0.23717 0.54015 0.0
C1063 C 0.29974 0.22622 0.50164 0.0
C1064 C 0.31132 0.25703 0.53503 0.0
C1065 C 0.29004 0.23531 0.45504 0.0
C1066 C 0.29039 0.25487 0.44937 0.0
C1067 C 0.29881 0.28562 0.48924 0.0
C1068 C 0.30789 0.29681 0.53237 0.0
C1069 C 0.30041 0.26589 0.49035 0.0
C1070 C 0.31976 0.28801 0.57416 0.0
C1071 C 0.32143 0.2683 0.57558 0.0
H1072 H 0.9854 0.06375 0.83803 0.0
H1073 H 0.97972 0.03148 0.67571 0.0
H1074 H 1.01382 0.0313 0.66254 0.0
H1075 H 0.04532 0.03621 0.70425 0.0
H1076 H 0.05189 0.06846 0.86601 0.0
H1077 H 0.01763 0.07291 0.87199 0.0
C1078 C 0.99163 0.05722 0.79889 0.0
C1079 C 0.98 0.04748 0.75821 0.0
C1080 C 1.01149 0.05684 0.79203 0.0
C1081 C 0.98834 0.03892 0.70796 0.0
C1082 C 1.00788 0.03872 0.7005 0.0
C1083 C 0.03928 0.0445 0.74027 0.0
C1084 C 0.05114 0.05179 0.78497 0.0
C1085 C 0.01961 0.04695 0.74345 0.0
C1086 C 0.0431 0.0627 0.83094 0.0
C1087 C 0.02347 0.06515 0.83457 0.0
H1088 H 0.78153 0.73254 0.96319 0.0
H1089 H 0.82214 0.72704 0.10519 0.0
H1090 H 0.826 0.76133 0.10825 0.0
H1091 H 0.81493 0.79321 0.07803 0.0
H1092 H 0.774 0.79781 0.93635 0.0
H1093 H 0.77341 0.76374 0.92535 0.0
C1094 C 0.79142 0.73879 0.99436 0.0
C1095 C 0.80134 0.72719 0.03436 0.0
C1096 C 0.79345 0.75849 0.99619 0.0
C1097 C 0.8143 0.73559 0.07383 0.0
C1098 C 0.81643 0.75525 0.07585 0.0
C1099 C 0.80623 0.78676 0.04389 0.0
C1100 C 0.79435 0.79812 0.0086 0.0
C1101 C 0.8057 0.76691 0.03829 0.0
C1102 C 0.7831 0.78946 0.9647 0.0
C1103 C 0.78272 0.76992 0.95837 0.0
H1104 H 0.71133 0.23051 0.59278 0.0
H1105 H 0.74482 0.22671 0.43197 0.0
H1106 H 0.74294 0.26065 0.41853 0.0
H1107 H 0.73609 0.29175 0.46016 0.0
H1108 H 0.70272 0.29658 0.62052 0.0
H1109 H 0.7 0.26215 0.62605 0.0
C1110 C 0.71769 0.23708 0.55391 0.0
C1111 C 0.7284 0.22606 0.51381 0.0
C1112 C 0.71686 0.2569 0.54686 0.0
C1113 C 0.73668 0.23485 0.46386 0.0
C1114 C 0.73569 0.25431 0.4562 0.0
C1115 C 0.72786 0.28528 0.4956 0.0
C1116 C 0.71978 0.29671 0.54012 0.0
C1117 C 0.7265 0.26554 0.49866 0.0
C1118 C 0.70902 0.28812 0.5855 0.0
C1119 C 0.70761 0.2684 0.58894 0.0
H1120 H 0.81974 0.29612 0.17026 0.0
H1121 H 0.76784 0.29913 0.07017 0.0
H1122 H 0.76722 0.26517 0.06012 0.0
H1123 H 0.77952 0.23452 0.08557 0.0
H1124 H 0.83133 0.22937 0.184 0.0
H1125 H 0.834 0.26402 0.18878 0.0
C1126 C 0.80851 0.28927 0.14567 0.0
C1127 C 0.79367 0.30018 0.1218 0.0
C1128 C 0.80808 0.26933 0.14034 0.0
C1129 C 0.77922 0.29109 0.08988 0.0
C1130 C 0.77884 0.27163 0.08399 0.0
C1131 C 0.79147 0.24096 0.10799 0.0
C1132 C 0.80502 0.22944 0.13523 0.0
C1133 C 0.79286 0.26062 0.11021 0.0
C1134 C 0.82065 0.23797 0.16287 0.0
C1135 C 0.82211 0.25777 0.16573 0.0
H1136 H 0.71152 0.735 0.58774 0.0
H1137 H 0.73873 0.73143 0.75956 0.0
H1138 H 0.73587 0.76533 0.77256 0.0
H1139 H 0.73075 0.79639 0.72808 0.0
H1140 H 0.70379 0.80094 0.55654 0.0
H1141 H 0.70114 0.7665 0.55079 0.0
C1142 C 0.71623 0.74159 0.6288 0.0
C1143 C 0.72556 0.73066 0.6723 0.0
C1144 C 0.71487 0.76139 0.63563 0.0
C1145 C 0.7317 0.73949 0.72509 0.0
C1146 C 0.73015 0.75894 0.73251 0.0
C1147 C 0.7238 0.78985 0.69021 0.0
C1148 C 0.71759 0.80118 0.64267 0.0
C1149 C 0.72256 0.7701 0.68699 0.0
C1150 C 0.70857 0.79254 0.59395 0.0
C1151 C 0.70724 0.77281 0.5904 0.0
H1152 H 0.5483 0.46231 0.85092 0.0
H1153 H 0.55301 0.49305 0.01645 0.0
H1154 H 0.51896 0.49131 0.03081 0.0
H1155 H 0.48766 0.4864 0.98727 0.0
H1156 H 0.48217 0.45615 0.82135 0.0
H1157 H 0.5165 0.4521 0.81649 0.0
C1158 C 0.54192 0.46796 0.8912 0.0
C1159 C 0.55318 0.47793 0.93237 0.0
C1160 C 0.52209 0.46736 0.89844 0.0
C1161 C 0.54465 0.48539 0.984 0.0
C1162 C 0.52514 0.48453 0.99203 0.0
C1163 C 0.49395 0.47848 0.95086 0.0
C1164 C 0.48241 0.47178 0.90443 0.0
C1165 C 0.51366 0.4764 0.94813 0.0
C1166 C 0.49073 0.46141 0.85777 0.0
C1167 C 0.5104 0.45924 0.85473 0.0
H1168 H 0.9889 0.5425 0.47935 0.0
H1169 H 0.98349 0.57073 0.31007 0.0
H1170 H 0.01795 0.57374 0.3031 0.0
H1171 H 0.04983 0.56356 0.3384 0.0
H1172 H 0.05412 0.53499 0.50792 0.0
H1173 H 0.02016 0.53722 0.52199 0.0
C1174 C 0.99525 0.54979 0.44171 0.0
C1175 C 0.98365 0.55629 0.3952 0.0
C1176 C 1.01501 0.55121 0.43772 0.0
C1177 C 0.99208 0.56574 0.34675 0.0
C1178 C 1.01183 0.56726 0.34247 0.0
C1179 C 0.04336 0.55837 0.37915 0.0
C1180 C 0.05455 0.5489 0.42172 0.0
C1181 C 0.02351 0.55939 0.38666 0.0
C1182 C 0.04587 0.54214 0.47413 0.0
C1183 C 0.0264 0.54335 0.4822 0.0
H1184 H 0.98307 0.45827 0.8338 0.0
H1185 H 0.97731 0.49474 0.68077 0.0
H1186 H 1.0114 0.49521 0.66729 0.0
H1187 H 0.04289 0.48906 0.70691 0.0
H1188 H 0.04944 0.45318 0.8608 0.0
H1189 H 0.01523 0.44846 0.8654 0.0
C1190 C 0.98928 0.46588 0.79661 0.0
C1191 C 0.97763 0.47664 0.75879 0.0
C1192 C 1.00912 0.46644 0.78973 0.0
C1193 C 0.98594 0.48653 0.71097 0.0
C1194 C 1.00547 0.48686 0.70328 0.0
C1195 C 0.03688 0.47993 0.74088 0.0
C1196 C 0.04874 0.4717 0.78388 0.0
C1197 C 0.01721 0.47748 0.74371 0.0
C1198 C 0.04069 0.45971 0.82708 0.0
C1199 C 0.02108 0.45711 0.83 0.0
H1200 H 0.48645 0.54856 0.2014 0.0
H1201 H 0.48037 0.57984 0.36525 0.0
H1202 H 0.51464 0.58465 0.36913 0.0
H1203 H 0.54673 0.57519 0.33413 0.0
H1204 H 0.55192 0.54322 0.17103 0.0
H1205 H 0.51782 0.54382 0.15797 0.0
C1206 C 0.49258 0.55686 0.23717 0.0
C1207 C 0.48086 0.56369 0.28321 0.0
C1208 C 0.51227 0.55931 0.23946 0.0
C1209 C 0.48902 0.57451 0.32905 0.0
C1210 C 0.50867 0.5771 0.33155 0.0
C1211 C 0.54042 0.56897 0.2947 0.0
C1212 C 0.55191 0.55907 0.25374 0.0
C1213 C 0.52054 0.56893 0.28818 0.0
C1214 C 0.54344 0.55085 0.2033 0.0
C1215 C 0.52389 0.55107 0.19598 0.0
H1216 H 0.27293 0.16396 0.20888 0.0
H1217 H 0.2188 0.15666 0.2949 0.0
H1218 H 0.23461 0.15369 0.39187 0.0
H1219 H 0.26359 0.15369 0.45119 0.0
H1220 H 0.31757 0.1625 0.36563 0.0
H1221 H 0.30189 0.16402 0.26817 0.0
C1222 C 0.26449 0.16177 0.24875 0.0
C1223 C 0.24464 0.16061 0.24472 0.0
C1224 C 0.27365 0.16022 0.30392 0.0
C1225 C 0.23404 0.15766 0.29685 0.0
C1226 C 0.24309 0.15593 0.35213 0.0
C1227 C 0.27202 0.15595 0.41131 0.0
C1228 C 0.29178 0.15808 0.41569 0.0
C1229 C 0.26287 0.15725 0.35605 0.0
C1230 C 0.3024 0.16078 0.36346 0.0
C1231 C 0.29341 0.16175 0.30791 0.0
H1232 H 0.11917 0.01991 0.46613 0.0
H1233 H 0.12189 0.96572 0.55317 0.0
H1234 H 0.1225 0.98144 0.65084 0.0
H1235 H 0.12159 1.0104 0.71056 0.0
H1236 H 0.11781 0.06452 0.62349 0.0
H1237 H 0.11829 0.04885 0.52578 0.0
C1238 C 0.11988 1.01144 0.50637 0.0
C1239 C 0.12042 0.99159 0.50234 0.0
C1240 C 0.12001 0.02057 0.562 0.0
C1241 C 0.12148 0.98096 0.555 0.0
C1242 C 0.12179 0.98996 0.61074 0.0
C1243 C 0.12085 0.01886 0.6703 0.0
C1244 C 0.11959 0.03868 0.67436 0.0
C1245 C 0.12095 1.00974 0.61465 0.0
C1246 C 0.11877 0.04931 0.62165 0.0
C1247 C 0.11903 0.04033 0.56588 0.0
H1248 H 0.26929 0.87107 0.96069 0.0
H1249 H 0.21519 0.86571 0.87406 0.0
H1250 H 0.23095 0.86541 0.77638 0.0
H1251 H 0.25994 0.86594 0.71677 0.0
H1252 H 0.31418 0.86949 0.80346 0.0
H1253 H 0.29836 0.8712 0.90101 0.0
C1254 C 0.26086 0.86978 0.92057 0.0
C1255 C 0.24101 0.86833 0.92473 0.0
C1256 C 0.27004 0.86926 0.86497 0.0
C1257 C 0.23041 0.86684 0.87213 0.0
C1258 C 0.23945 0.86663 0.81639 0.0
C1259 C 0.26841 0.86704 0.75688 0.0
C1260 C 0.2883 0.86751 0.75279 0.0
C1261 C 0.25924 0.8677 0.81244 0.0
C1262 C 0.29891 0.86908 0.80534 0.0
C1263 C 0.28985 0.87004 0.861 0.0
H1264 H 0.41369 1.01107 0.96032 0.0
H1265 H 0.40869 0.06557 0.04457 0.0
H1266 H 0.40426 0.0502 0.14176 0.0
H1267 H 0.40218 0.02143 0.20194 0.0
H1268 H 0.40803 0.96698 0.11801 0.0
H1269 H 0.41151 0.98232 0.02043 0.0
C1270 C 0.41167 0.01967 -0.00012 0.0
C1271 C 0.41159 0.0395 0.99527 0.0
C1272 C 0.40917 1.01074 0.05522 0.0
C1273 C 0.40885 0.05033 0.04696 0.0
C1274 C 0.4063 0.04153 0.1024 0.0
C1275 C 0.40419 1.01285 0.16236 0.0
C1276 C 0.40489 0.99304 0.16723 0.0
C1277 C 0.40647 0.02177 0.10693 0.0
C1278 C 0.40738 0.9822 0.11543 0.0
C1279 C 0.40945 0.99098 0.05979 0.0
H1280 H 0.75896 0.86799 0.95823 0.0
H1281 H 0.81183 0.86327 0.86325 0.0
H1282 H 0.79488 0.86376 0.76798 0.0
H1283 H 0.76516 0.86522 0.71213 0.0
H1284 H 0.71219 0.86914 0.80686 0.0
H1285 H 0.72915 0.86917 0.90225 0.0
C1286 C 0.76684 0.86706 0.91675 0.0
C1287 C 0.78671 0.86559 0.91799 0.0
C1288 C 0.75697 0.86715 0.86227 0.0
C1289 C 0.79659 0.86445 0.86368 0.0
C1290 C 0.78689 0.86469 0.80922 0.0
C1291 C 0.75725 0.86606 0.75357 0.0
C1292 C 0.73736 0.86717 0.75225 0.0
C1293 C 0.76709 0.86598 0.80804 0.0
C1294 C 0.72745 0.86827 0.80651 0.0
C1295 C 0.73716 0.86829 0.86103 0.0
H1296 H 0.91279 1.00564 0.70752 0.0
H1297 H 0.91525 0.05869 0.61375 0.0
H1298 H 0.91604 0.04187 0.51811 0.0
H1299 H 0.91621 1.01218 0.46163 0.0
H1300 H 0.91405 0.95911 0.55537 0.0
H1301 H 0.91306 0.97593 0.65103 0.0
C1302 C 0.9135 1.01358 0.66621 0.0
C1303 C 0.91396 0.03346 0.66787 0.0
C1304 C 0.91405 1.0038 0.61158 0.0
C1305 C 0.91483 0.04344 0.61382 0.0
C1306 C 0.91532 0.03381 0.55916 0.0
C1307 C 0.91555 1.00423 0.50294 0.0
C1308 C 0.91522 0.98435 0.50128 0.0
C1309 C 0.91498 1.01401 0.55757 0.0
C1310 C 0.91432 0.97436 0.55531 0.0
C1311 C 0.91375 0.984 0.60997 0.0
H1312 H 0.76759 0.15982 0.21679 0.0
H1313 H 0.8205 0.16348 0.3111 0.0
H1314 H 0.8035 0.16292 0.40665 0.0
H1315 H 0.77369 0.16156 0.46291 0.0
H1316 H 0.72074 0.15867 0.36857 0.0
H1317 H 0.73776 0.15878 0.27304 0.0
C1318 C 0.77547 0.16052 0.25818 0.0
C1319 C 0.79537 0.16171 0.25667 0.0
C1320 C 0.76558 0.16034 0.31277 0.0
C1321 C 0.80525 0.16255 0.31087 0.0
C1322 C 0.79551 0.16224 0.36549 0.0
C1323 C 0.7658 0.16097 0.42151 0.0
C1324 C 0.74589 0.16011 0.423 0.0
C1325 C 0.77569 0.16117 0.36692 0.0
C1326 C 0.73601 0.15932 0.3688 0.0
C1327 C 0.74576 0.15939 0.3142 0.0
H1328 H 0.62107 0.97891 0.13067 0.0
H1329 H 0.6064 0.02463 0.24918 0.0
H1330 H 0.60966 0.0471 0.16868 0.0
H1331 H 0.6153 0.05416 0.06248 0.0
H1332 H 0.63128 1.00891 0.94425 0.0
H1333 H 0.62928 0.98639 0.02587 0.0
C1334 C 0.61861 0.99377 0.13874 0.0
C1335 C 0.61311 0.99983 0.19585 0.0
C1336 C 0.6209 1.00697 0.09203 0.0
C1337 C 0.61029 0.01929 0.20558 0.0
C1338 C 0.61227 0.03233 0.15949 0.0
C1339 C 0.6187 0.03946 0.05499 0.0
C1340 C 0.62331 0.03329 -0.00269 0.0
C1341 C 0.61742 0.02639 0.1023 0.0
C1342 C 0.62756 1.01409 0.98828 0.0
C1343 C 0.62635 1.0011 0.03492 0.0
H1344 H 0.76347 0.65643 0.96305 0.0
H1345 H 0.81763 0.66307 0.87683 0.0
H1346 H 0.80198 0.66439 0.77928 0.0
H1347 H 0.77298 0.66438 0.71955 0.0
H1348 H 0.71876 0.65892 0.8062 0.0
H1349 H 0.73449 0.65648 0.90339 0.0
C1350 C 0.77194 0.65817 0.92303 0.0
C1351 C 0.79177 0.65971 0.92734 0.0
C1352 C 0.76282 0.6592 0.86749 0.0
C1353 C 0.80241 0.66183 0.87484 0.0
C1354 C 0.79344 0.66263 0.81915 0.0
C1355 C 0.76452 0.66269 0.75961 0.0
C1356 C 0.74464 0.66189 0.75556 0.0
C1357 C 0.77366 0.66147 0.81509 0.0
C1358 C 0.73401 0.65959 0.80801 0.0
C1359 C 0.74303 0.6582 0.86351 0.0
H1360 H 0.62304 0.55867 0.12392 0.0
H1361 H 0.62609 0.51198 0.24687 0.0
H1362 H 0.62729 0.48982 0.16442 0.0
H1363 H 0.62527 0.48319 0.05644 0.0
H1364 H 0.62324 0.52998 0.93359 0.0
H1365 H 0.62399 0.55217 0.01588 0.0
C1366 C 0.62422 0.54369 0.13251 0.0
C1367 C 0.6242 0.5371 0.19149 0.0
C1368 C 0.62496 0.53081 0.08458 0.0
C1369 C 0.62581 0.51755 0.20183 0.0
C1370 C 0.62652 0.50475 0.15464 0.0
C1371 C 0.62523 0.49822 0.04781 0.0
C1372 C 0.62391 0.50478 0.98894 0.0
C1373 C 0.62574 0.51114 0.09569 0.0
C1374 C 0.62397 0.5244 0.97855 0.0
C1375 C 0.62442 0.53722 0.02565 0.0
H1376 H 0.76353 0.36212 0.46993 0.0
H1377 H 0.71071 0.36505 0.37484 0.0
H1378 H 0.72789 0.36593 0.27973 0.0
H1379 H 0.75773 0.36617 0.22419 0.0
H1380 H 0.81063 0.36235 0.31841 0.0
H1381 H 0.7935 0.36153 0.41387 0.0
C1382 C 0.75571 0.3629 0.42845 0.0
C1383 C 0.73578 0.36354 0.42962 0.0
C1384 C 0.7657 0.36326 0.37401 0.0
C1385 C 0.72598 0.36455 0.37532 0.0
C1386 C 0.73582 0.36506 0.32096 0.0
C1387 C 0.76561 0.36507 0.26547 0.0
C1388 C 0.78552 0.36431 0.26401 0.0
C1389 C 0.75566 0.36446 0.31985 0.0
C1390 C 0.79536 0.36296 0.31816 0.0
C1391 C 0.78555 0.36249 0.37269 0.0
H1392 H 0.90956 0.51457 0.71201 0.0
H1393 H 0.91425 0.46152 0.61902 0.0
H1394 H 0.9166 0.47829 0.52361 0.0
H1395 H 0.91775 0.50797 0.46711 0.0
H1396 H 0.91365 0.56105 0.56026 0.0
H1397 H 0.91084 0.54426 0.65557 0.0
C1398 C 0.91107 0.50662 0.67093 0.0
C1399 C 0.91173 0.48674 0.67279 0.0
C1400 C 0.91264 0.51638 0.61644 0.0
C1401 C 0.91364 0.47676 0.61897 0.0
C1402 C 0.91505 0.48637 0.56444 0.0
C1403 C 0.91628 0.51592 0.50823 0.0
C1404 C 0.91593 0.5358 0.50648 0.0
C1405 C 0.91466 0.50617 0.56271 0.0
C1406 C 0.91399 0.5458 0.56027 0.0
C1407 C 0.91235 0.53618 0.61474 0.0
H1408 H 0.27247 0.36521 0.22399 0.0
H1409 H 0.2193 0.36671 0.31832 0.0
H1410 H 0.23611 0.36651 0.41387 0.0
H1411 H 0.26581 0.36573 0.47016 0.0
H1412 H 0.31897 0.36373 0.37589 0.0
H1413 H 0.30218 0.36434 0.28032 0.0
C1414 C 0.2645 0.36548 0.2654 0.0
C1415 C 0.24459 0.36597 0.26394 0.0
C1416 C 0.27426 0.36529 0.32002 0.0
C1417 C 0.23458 0.36636 0.31811 0.0
C1418 C 0.2442 0.36623 0.37272 0.0
C1419 C 0.27379 0.36543 0.42877 0.0
C1420 C 0.29369 0.36468 0.43026 0.0
C1421 C 0.26403 0.36567 0.37416 0.0
C1422 C 0.30371 0.36433 0.37609 0.0
C1423 C 0.29409 0.36466 0.32147 0.0
H1424 H 0.41539 0.52007 0.97074 0.0
H1425 H 0.41606 0.46694 0.06432 0.0
H1426 H 0.4158 0.48369 0.16013 0.0
H1427 H 0.41545 0.51336 0.21696 0.0
H1428 H 0.41461 0.56648 0.12335 0.0
H1429 H 0.41487 0.54973 0.02755 0.0
C1430 C 0.41549 0.51209 0.01206 0.0
C1431 C 0.41577 0.49221 0.01027 0.0
C1432 C 0.41531 0.52183 0.06684 0.0
C1433 C 0.41583 0.48219 0.06432 0.0
C1434 C 0.41569 0.49178 0.1191 0.0
C1435 C 0.41533 0.52133 0.17564 0.0
C1436 C 0.41503 0.54122 0.17741 0.0
C1437 C 0.41545 0.51159 0.12085 0.0
C1438 C 0.41483 0.55123 0.12335 0.0
C1439 C 0.41499 0.54163 0.06859 0.0
H1440 H 0.26848 0.6611 0.97159 0.0
H1441 H 0.21417 0.65988 0.88479 0.0
H1442 H 0.22991 0.65771 0.78724 0.0
H1443 H 0.25895 0.65673 0.72751 0.0
H1444 H 0.31323 0.65987 0.81407 0.0
H1445 H 0.2975 0.66046 0.91183 0.0
C1446 C 0.25999 0.66042 0.93145 0.0
C1447 C 0.24008 0.66073 0.93555 0.0
C1448 C 0.26914 0.65942 0.87583 0.0
C1449 C 0.22943 0.65971 0.88294 0.0
C1450 C 0.23846 0.65845 0.82726 0.0
C1451 C 0.26744 0.65757 0.76763 0.0
C1452 C 0.28733 0.65834 0.76336 0.0
C1453 C 0.25828 0.65838 0.82328 0.0
C1454 C 0.29798 0.65923 0.81601 0.0
C1455 C 0.28896 0.65965 0.87182 0.0
H1456 H 0.12151 0.50512 0.47803 0.0
H1457 H 0.12132 0.55937 0.56532 0.0
H1458 H 0.12085 0.54368 0.66297 0.0
H1459 H 0.11983 0.51475 0.72252 0.0
H1460 H 0.11878 0.4605 0.63534 0.0
H1461 H 0.12045 0.47615 0.53768 0.0
C1462 C 0.12134 0.5136 0.51832 0.0
C1463 C 0.12139 0.53347 0.51434 0.0
C1464 C 0.12085 0.50449 0.57395 0.0
C1465 C 0.1213 0.54412 0.5671 0.0
C1466 C 0.121 0.53514 0.62283 0.0
C1467 C 0.11994 0.50625 0.68226 0.0
C1468 C 0.11911 0.4864 0.68627 0.0
C1469 C 0.12066 0.51535 0.62665 0.0
C1470 C 0.11941 0.47573 0.63355 0.0
C1471 C 0.12033 0.4847 0.57781 0.0
loop_
_geom_bond_atom_site_label_1
_geom_bond_atom_site_label_2
_geom_bond_distance
_geom_bond_site_symmetry_2
_ccdc_geom_bond_type
Co0 O1 2.216 . S
Co0 O2 2.091 . S
Co0 O4 2.004 . S
Co0 O10 2.021 1_554 S
Co0 O12 2.137 . S
Co0 O13 2.244 . S
O1 Co0 2.216 . S
O1 C8 1.247 . S
O2 Co0 2.091 . S
O2 C8 1.261 . S
C3 O12 1.247 . S
C3 O13 1.272 . S
O4 Co0 2.004 . S
O4 C9 1.259 . S
Co5 O6 2.061 . S
Co5 O11 2.052 . S
Co5 O13 2.135 . S
O6 Co5 2.061 . S
O6 C9 1.235 . S
C7 O10 1.238 . S
C7 O11 1.241 1_556 S
C8 O1 1.247 . S
C8 O2 1.261 . S
C9 O4 1.259 . S
C9 O6 1.235 . S
O10 Co0 2.021 1_556 S
O10 C7 1.238 . S
O11 Co5 2.052 . S
O11 C7 1.241 1_554 S
O12 Co0 2.137 . S
O12 C3 1.247 . S
O13 Co0 2.244 . S
O13 C3 1.272 . S
O13 Co5 2.135 . S
Co14 O15 2.216 . S
Co14 O16 2.091 . S
Co14 O18 2.004 . S
Co14 O24 2.021 . S
Co14 O26 2.137 . S
Co14 O27 2.244 . S
O15 Co14 2.216 . S
O15 C22 1.247 . S
O16 Co14 2.091 . S
O16 C22 1.261 . S
C17 O26 1.247 . S
C17 O27 1.272 . S
O18 Co14 2.004 . S
O18 C23 1.259 . S
Co19 O20 2.061 1_545 S
Co19 O25 2.049 1_545 S
Co19 O27 2.135 1_545 S
O20 Co19 2.061 1_565 S
O20 C23 1.235 . S
C21 O24 1.238 . S
C21 O25 1.261 . S
C22 O15 1.247 . S
C22 O16 1.261 . S
C23 O18 1.259 . S
C23 O20 1.235 . S
O24 Co14 2.021 . S
O24 C21 1.238 . S
O25 Co19 2.049 1_565 S
O25 C21 1.261 . S
O26 Co14 2.137 . S
O26 C17 1.247 . S
O27 Co14 2.244 . S
O27 C17 1.272 . S
O27 Co19 2.135 1_565 S
Co28 O29 2.216 . S
Co28 O30 2.091 . S
Co28 O32 2.004 . S
Co28 O38 2.021 . S
Co28 O40 2.137 . S
Co28 O41 2.244 . S
O29 Co28 2.216 . S
O29 C36 1.247 . S
O30 Co28 2.091 . S
O30 C36 1.261 . S
C31 O40 1.247 . S
C31 O41 1.272 . S
O32 Co28 2.004 . S
O32 C37 1.259 . S
Co33 O34 2.061 . S
Co33 O39 2.052 . S
Co33 O41 2.135 . S
O34 Co33 2.061 . S
O34 C37 1.235 . S
C35 O38 1.238 . S
C35 O39 1.241 . S
C36 O29 1.247 . S
C36 O30 1.261 . S
C37 O32 1.259 . S
C37 O34 1.235 . S
O38 Co28 2.021 . S
O38 C35 1.238 . S
O39 Co33 2.052 . S
O39 C35 1.241 . S
O40 Co28 2.137 . S
O40 C31 1.247 . S
O41 Co28 2.244 . S
O41 C31 1.272 . S
O41 Co33 2.135 . S
Co42 O43 2.216 . S
Co42 O44 2.091 . S
Co42 O46 2.004 . S
Co42 O52 2.021 . S
Co42 O54 2.137 . S
Co42 O55 2.244 . S
O43 Co42 2.216 . S
O43 C50 1.247 . S
O44 Co42 2.091 . S
O44 C50 1.261 . S
C45 O54 1.247 . S
C45 O55 1.272 . S
O46 Co42 2.004 . S
O46 C51 1.259 . S
Co47 O48 2.061 1_565 S
Co47 O53 2.050 1_565 S
Co47 O55 2.135 1_565 S
O48 Co47 2.061 1_545 S
O48 C51 1.235 . S
C49 O52 1.238 . S
C49 O53 1.254 . S
C50 O43 1.247 . S
C50 O44 1.261 . S
C51 O46 1.259 . S
C51 O48 1.235 . S
O52 Co42 2.021 . S
O52 C49 1.238 . S
O53 Co47 2.050 1_545 S
O53 C49 1.254 . S
O54 Co42 2.137 . S
O54 C45 1.247 . S
O55 Co42 2.244 . S
O55 C45 1.272 . S
O55 Co47 2.135 1_545 S
Co56 O57 2.216 . S
Co56 O58 2.091 . S
Co56 O60 2.004 . S
Co56 O66 2.021 . S
Co56 O68 2.137 . S
Co56 O69 2.244 . S
O57 Co56 2.216 . S
O57 C64 1.247 . S
O58 Co56 2.091 . S
O58 C64 1.261 . S
C59 O68 1.247 . S
C59 O69 1.272 . S
O60 Co56 2.004 . S
O60 C65 1.259 . S
Co61 O62 2.061 . S
Co61 O67 2.052 . S
Co61 O69 2.135 . S
O62 Co61 2.061 . S
O62 C65 1.235 . S
C63 O66 1.238 . S
C63 O67 1.241 . S
C64 O57 1.247 . S
C64 O58 1.261 . S
C65 O60 1.259 . S
C65 O62 1.235 . S
O66 Co56 2.021 . S
O66 C63 1.238 . S
O67 Co61 2.052 . S
O67 C63 1.241 . S
O68 Co56 2.137 . S
O68 C59 1.247 . S
O69 Co56 2.244 . S
O69 C59 1.272 . S
O69 Co61 2.135 . S
Co70 O71 2.216 . S
Co70 O72 2.091 . S
Co70 O74 2.004 . S
Co70 O80 2.021 . S
Co70 O82 2.137 . S
Co70 O83 2.244 . S
O71 Co70 2.216 . S
O71 C78 1.247 . S
O72 Co70 2.091 . S
O72 C78 1.261 . S
C73 O82 1.247 . S
C73 O83 1.272 . S
O74 Co70 2.004 . S
O74 C79 1.259 . S
Co75 O76 2.061 1_545 S
Co75 O81 2.049 1_545 S
Co75 O83 2.135 1_545 S
O76 Co75 2.061 1_565 S
O76 C79 1.235 . S
C77 O80 1.238 . S
C77 O81 1.261 . S
C78 O71 1.247 . S
C78 O72 1.261 . S
C79 O74 1.259 . S
C79 O76 1.235 . S
O80 Co70 2.021 . S
O80 C77 1.238 . S
O81 Co75 2.049 1_565 S
O81 C77 1.261 . S
O82 Co70 2.137 . S
O82 C73 1.247 . S
O83 Co70 2.244 . S
O83 C73 1.272 . S
O83 Co75 2.135 1_565 S
Co84 O85 2.216 . S
Co84 O86 2.091 . S
Co84 O88 2.004 . S
Co84 O94 2.021 . S
Co84 O96 2.137 . S
Co84 O97 2.244 . S
O85 Co84 2.216 . S
O85 C92 1.247 . S
O86 Co84 2.091 . S
O86 C92 1.261 . S
C87 O96 1.247 . S
C87 O97 1.272 . S
O88 Co84 2.004 . S
O88 C93 1.259 . S
Co89 O90 2.061 . S
Co89 O95 2.052 . S
Co89 O97 2.135 . S
O90 Co89 2.061 . S
O90 C93 1.235 . S
C91 O94 1.238 . S
C91 O95 1.241 . S
C92 O85 1.247 . S
C92 O86 1.261 . S
C93 O88 1.259 . S
C93 O90 1.235 . S
O94 Co84 2.021 . S
O94 C91 1.238 . S
O95 Co89 2.052 . S
O95 C91 1.241 . S
O96 Co84 2.137 . S
O96 C87 1.247 . S
O97 Co84 2.244 . S
O97 C87 1.272 . S
O97 Co89 2.135 . S
Co98 O99 2.216 . S
Co98 O100 2.091 . S
Co98 O102 2.004 . S
Co98 O108 2.021 . S
Co98 O110 2.137 . S
Co98 O111 2.244 . S
O99 Co98 2.216 . S
O99 C106 1.247 . S
O100 Co98 2.091 . S
O100 C106 1.261 . S
C101 O110 1.247 . S
C101 O111 1.272 . S
O102 Co98 2.004 . S
O102 C107 1.259 . S
Co103 O104 2.061 1_565 S
Co103 O109 2.050 1_565 S
Co103 O111 2.135 1_565 S
O104 Co103 2.061 1_545 S
O104 C107 1.235 . S
C105 O108 1.238 . S
C105 O109 1.253 . S
C106 O99 1.247 . S
C106 O100 1.261 . S
C107 O102 1.259 . S
C107 O104 1.235 . S
O108 Co98 2.021 . S
O108 C105 1.238 . S
O109 Co103 2.050 1_545 S
O109 C105 1.253 . S
O110 Co98 2.137 . S
O110 C101 1.247 . S
O111 Co98 2.244 . S
O111 C101 1.272 . S
O111 Co103 2.135 1_545 S
Co112 O113 2.216 . S
Co112 O114 2.091 . S
Co112 O116 2.004 . S
Co112 O122 2.021 . S
Co112 O124 2.137 . S
Co112 O125 2.244 . S
O113 Co112 2.216 . S
O113 C120 1.247 . S
O114 Co112 2.091 . S
O114 C120 1.261 . S
C115 O124 1.247 . S
C115 O125 1.272 . S
O116 Co112 2.004 . S
O116 C121 1.259 . S
Co117 O118 2.061 . S
Co117 O123 2.052 . S
Co117 O125 2.135 . S
O118 Co117 2.061 . S
O118 C121 1.235 . S
C119 O122 1.238 . S
C119 O123 1.241 . S
C120 O113 1.247 . S
C120 O114 1.261 . S
C121 O116 1.259 . S
C121 O118 1.235 . S
O122 Co112 2.021 . S
O122 C119 1.238 . S
O123 Co117 2.052 . S
O123 C119 1.241 . S
O124 Co112 2.137 . S
O124 C115 1.247 . S
O125 Co112 2.244 . S
O125 C115 1.272 . S
O125 Co117 2.135 . S
Co126 O127 2.216 . S
Co126 O128 2.091 . S
Co126 O130 2.004 . S
Co126 O136 2.021 . S
Co126 O138 2.137 . S
Co126 O139 2.244 . S
O127 Co126 2.216 . S
O127 C134 1.247 . S
O128 Co126 2.091 . S
O128 C134 1.261 . S
C129 O138 1.247 . S
C129 O139 1.272 . S
O130 Co126 2.004 . S
O130 C135 1.259 . S
Co131 O132 2.061 1_565 S
Co131 O137 2.050 1_565 S
Co131 O139 2.135 1_565 S
O132 Co131 2.061 1_545 S
O132 C135 1.235 . S
C133 O136 1.238 . S
C133 O137 1.253 . S
C134 O127 1.247 . S
C134 O128 1.261 . S
C135 O130 1.259 . S
C135 O132 1.235 . S
O136 Co126 2.021 . S
O136 C133 1.238 . S
O137 Co131 2.050 1_545 S
O137 C133 1.253 . S
O138 Co126 2.137 . S
O138 C129 1.247 . S
O139 Co126 2.244 . S
O139 C129 1.272 . S
O139 Co131 2.135 1_545 S
Co140 O141 2.216 . S
Co140 O142 2.091 . S
Co140 O144 2.004 . S
Co140 O150 2.021 . S
Co140 O152 2.137 . S
Co140 O153 2.244 . S
O141 Co140 2.216 . S
O141 C148 1.247 . S
O142 Co140 2.091 . S
O142 C148 1.261 . S
C143 O152 1.247 . S
C143 O153 1.272 . S
O144 Co140 2.004 . S
O144 C149 1.259 . S
Co145 O146 2.061 . S
Co145 O151 2.052 . S
Co145 O153 2.135 . S
O146 Co145 2.061 . S
O146 C149 1.235 . S
C147 O150 1.238 . S
C147 O151 1.241 . S
C148 O141 1.247 . S
C148 O142 1.261 . S
C149 O144 1.259 . S
C149 O146 1.235 . S
O150 Co140 2.021 . S
O150 C147 1.238 . S
O151 Co145 2.052 . S
O151 C147 1.241 . S
O152 Co140 2.137 . S
O152 C143 1.247 . S
O153 Co140 2.244 . S
O153 C143 1.272 . S
O153 Co145 2.135 . S
Co154 O155 2.216 . S
Co154 O156 2.091 . S
Co154 O158 2.004 . S
Co154 O164 2.021 . S
Co154 O166 2.137 . S
Co154 O167 2.244 . S
O155 Co154 2.216 . S
O155 C162 1.247 . S
O156 Co154 2.091 . S
O156 C162 1.261 . S
C157 O166 1.247 . S
C157 O167 1.272 . S
O158 Co154 2.004 . S
O158 C163 1.259 . S
Co159 O160 2.061 1_545 S
Co159 O165 2.049 1_545 S
Co159 O167 2.135 1_545 S
O160 Co159 2.061 1_565 S
O160 C163 1.235 . S
C161 O164 1.238 . S
C161 O165 1.261 . S
C162 O155 1.247 . S
C162 O156 1.261 . S
C163 O158 1.259 . S
C163 O160 1.235 . S
O164 Co154 2.021 . S
O164 C161 1.238 . S
O165 Co159 2.049 1_565 S
O165 C161 1.261 . S
O166 Co154 2.137 . S
O166 C157 1.247 . S
O167 Co154 2.244 . S
O167 C157 1.272 . S
O167 Co159 2.135 1_565 S
Co168 O169 2.216 . S
Co168 O170 2.091 . S
Co168 O172 2.004 . S
Co168 O178 2.021 1_554 S
Co168 O180 2.137 . S
Co168 O181 2.244 . S
O169 Co168 2.216 . S
O169 C176 1.247 . S
O170 Co168 2.091 . S
O170 C176 1.261 . S
C171 O180 1.247 . S
C171 O181 1.272 . S
O172 Co168 2.004 . S
O172 C177 1.259 . S
Co173 O174 2.061 . S
Co173 O179 2.052 . S
Co173 O181 2.135 . S
O174 Co173 2.061 . S
O174 C177 1.235 . S
C175 O178 1.238 . S
C175 O179 1.241 1_556 S
C176 O169 1.247 . S
C176 O170 1.261 . S
C177 O172 1.259 . S
C177 O174 1.235 . S
O178 Co168 2.021 1_556 S
O178 C175 1.238 . S
O179 Co173 2.052 . S
O179 C175 1.241 1_554 S
O180 Co168 2.137 . S
O180 C171 1.247 . S
O181 Co168 2.244 . S
O181 C171 1.272 . S
O181 Co173 2.135 . S
Co182 O183 2.216 . S
Co182 O184 2.091 . S
Co182 O186 2.004 . S
Co182 O192 2.021 . S
Co182 O194 2.137 . S
Co182 O195 2.244 . S
O183 Co182 2.216 . S
O183 C190 1.247 . S
O184 Co182 2.091 . S
O184 C190 1.261 . S
C185 O194 1.247 . S
C185 O195 1.272 . S
O186 Co182 2.004 . S
O186 C191 1.259 . S
Co187 O188 2.061 1_565 S
Co187 O193 2.050 1_565 S
Co187 O195 2.135 1_565 S
O188 Co187 2.061 1_545 S
O188 C191 1.235 . S
C189 O192 1.238 . S
C189 O193 1.254 . S
C190 O183 1.247 . S
C190 O184 1.261 . S
C191 O186 1.259 . S
C191 O188 1.235 . S
O192 Co182 2.021 . S
O192 C189 1.238 . S
O193 Co187 2.050 1_545 S
O193 C189 1.254 . S
O194 Co182 2.137 . S
O194 C185 1.247 . S
O195 Co182 2.244 . S
O195 C185 1.272 . S
O195 Co187 2.135 1_545 S
Co196 O197 2.216 . S
Co196 O198 2.091 . S
Co196 O200 2.004 . S
Co196 O206 2.021 . S
Co196 O208 2.137 . S
Co196 O209 2.244 . S
O197 Co196 2.216 . S
O197 C204 1.247 . S
O198 Co196 2.091 . S
O198 C204 1.261 . S
C199 O208 1.247 . S
C199 O209 1.272 . S
O200 Co196 2.004 . S
O200 C205 1.259 . S
Co201 O202 2.061 . S
Co201 O207 2.052 . S
Co201 O209 2.135 . S
O202 Co201 2.061 . S
O202 C205 1.235 . S
C203 O206 1.238 . S
C203 O207 1.241 . S
C204 O197 1.247 . S
C204 O198 1.261 . S
C205 O200 1.259 . S
C205 O202 1.235 . S
O206 Co196 2.021 . S
O206 C203 1.238 . S
O207 Co201 2.052 . S
O207 C203 1.241 . S
O208 Co196 2.137 . S
O208 C199 1.247 . S
O209 Co196 2.244 . S
O209 C199 1.272 . S
O209 Co201 2.135 . S
Co210 O211 2.216 . S
Co210 O212 2.091 . S
Co210 O214 2.004 . S
Co210 O220 2.021 . S
Co210 O222 2.137 . S
Co210 O223 2.244 . S
O211 Co210 2.216 . S
O211 C218 1.247 . S
O212 Co210 2.091 . S
O212 C218 1.261 . S
C213 O222 1.247 . S
C213 O223 1.272 . S
O214 Co210 2.004 . S
O214 C219 1.259 . S
Co215 O216 2.061 1_545 S
Co215 O221 2.049 1_545 S
Co215 O223 2.135 1_545 S
O216 Co215 2.061 1_565 S
O216 C219 1.235 . S
C217 O220 1.238 . S
C217 O221 1.261 . S
C218 O211 1.247 . S
C218 O212 1.261 . S
C219 O214 1.259 . S
C219 O216 1.235 . S
O220 Co210 2.021 . S
O220 C217 1.238 . S
O221 Co215 2.049 1_565 S
O221 C217 1.261 . S
O222 Co210 2.137 . S
O222 C213 1.247 . S
O223 Co210 2.244 . S
O223 C213 1.272 . S
O223 Co215 2.135 1_565 S
Co224 O225 2.216 . S
Co224 O226 2.091 . S
Co224 O228 2.004 . S
Co224 O234 2.021 . S
Co224 O236 2.137 . S
Co224 O237 2.244 . S
O225 Co224 2.216 . S
O225 C232 1.247 . S
O226 Co224 2.091 . S
O226 C232 1.261 . S
C227 O236 1.247 . S
C227 O237 1.272 . S
O228 Co224 2.004 . S
O228 C233 1.259 . S
Co229 O230 2.061 . S
Co229 O235 2.052 . S
Co229 O237 2.135 . S
O230 Co229 2.061 . S
O230 C233 1.235 . S
C231 O234 1.238 . S
C231 O235 1.241 . S
C232 O225 1.247 . S
C232 O226 1.261 . S
C233 O228 1.259 . S
C233 O230 1.235 . S
O234 Co224 2.021 . S
O234 C231 1.238 . S
O235 Co229 2.052 . S
O235 C231 1.241 . S
O236 Co224 2.137 . S
O236 C227 1.247 . S
O237 Co224 2.244 . S
O237 C227 1.272 . S
O237 Co229 2.135 . S
Co238 O239 2.216 . S
Co238 O240 2.091 . S
Co238 O242 2.004 . S
Co238 O248 2.021 . S
Co238 O250 2.137 . S
Co238 O251 2.244 . S
O239 Co238 2.216 . S
O239 C246 1.247 . S
O240 Co238 2.091 . S
O240 C246 1.261 . S
C241 O250 1.247 . S
C241 O251 1.272 . S
O242 Co238 2.004 . S
O242 C247 1.259 . S
Co243 O244 2.061 . S
Co243 O249 2.052 . S
Co243 O251 2.135 . S
O244 Co243 2.061 . S
O244 C247 1.235 . S
C245 O248 1.238 . S
C245 O249 1.241 . S
C246 O239 1.247 . S
C246 O240 1.261 . S
C247 O242 1.259 . S
C247 O244 1.235 . S
O248 Co238 2.021 . S
O248 C245 1.238 . S
O249 Co243 2.052 . S
O249 C245 1.241 . S
O250 Co238 2.137 . S
O250 C241 1.247 . S
O251 Co238 2.244 . S
O251 C241 1.272 . S
O251 Co243 2.135 . S
Co252 O253 2.216 . S
Co252 O254 2.091 . S
Co252 O256 2.004 . S
Co252 O262 2.021 1_554 S
Co252 O264 2.137 . S
Co252 O265 2.244 . S
O253 Co252 2.216 . S
O253 C260 1.247 . S
O254 Co252 2.091 . S
O254 C260 1.261 . S
C255 O264 1.247 . S
C255 O265 1.272 . S
O256 Co252 2.004 . S
O256 C261 1.259 . S
Co257 O258 2.061 . S
Co257 O263 2.052 . S
Co257 O265 2.135 . S
O258 Co257 2.061 . S
O258 C261 1.235 . S
C259 O262 1.238 . S
C259 O263 1.241 1_556 S
C260 O253 1.247 . S
C260 O254 1.261 . S
C261 O256 1.259 . S
C261 O258 1.235 . S
O262 Co252 2.021 1_556 S
O262 C259 1.238 . S
O263 Co257 2.052 . S
O263 C259 1.241 1_554 S
O264 Co252 2.137 . S
O264 C255 1.247 . S
O265 Co252 2.244 . S
O265 C255 1.272 . S
O265 Co257 2.135 . S
Co266 O267 2.216 . S
Co266 O268 2.091 . S
Co266 O270 2.004 . S
Co266 O276 2.021 . S
Co266 O278 2.137 . S
Co266 O279 2.244 . S
O267 Co266 2.216 . S
O267 C274 1.247 . S
O268 Co266 2.091 . S
O268 C274 1.261 . S
C269 O278 1.247 . S
C269 O279 1.272 . S
O270 Co266 2.004 . S
O270 C275 1.259 . S
Co271 O272 2.061 . S
Co271 O277 2.052 . S
Co271 O279 2.135 . S
O272 Co271 2.061 . S
O272 C275 1.235 . S
C273 O276 1.238 . S
C273 O277 1.241 . S
C274 O267 1.247 . S
C274 O268 1.261 . S
C275 O270 1.259 . S
C275 O272 1.235 . S
O276 Co266 2.021 . S
O276 C273 1.238 . S
O277 Co271 2.052 . S
O277 C273 1.241 . S
O278 Co266 2.137 . S
O278 C269 1.247 . S
O279 Co266 2.244 . S
O279 C269 1.272 . S
O279 Co271 2.135 . S
Co280 O281 2.216 . S
Co280 O282 2.091 . S
Co280 O284 2.004 . S
Co280 O290 2.021 . S
Co280 O292 2.137 . S
Co280 O293 2.244 . S
O281 Co280 2.216 . S
O281 C288 1.247 . S
O282 Co280 2.091 . S
O282 C288 1.261 . S
C283 O292 1.247 . S
C283 O293 1.272 . S
O284 Co280 2.004 . S
O284 C289 1.259 . S
Co285 O286 2.061 . S
Co285 O291 2.052 . S
Co285 O293 2.135 . S
O286 Co285 2.061 . S
O286 C289 1.235 . S
C287 O290 1.238 . S
C287 O291 1.241 . S
C288 O281 1.247 . S
C288 O282 1.261 . S
C289 O284 1.259 . S
C289 O286 1.235 . S
O290 Co280 2.021 . S
O290 C287 1.238 . S
O291 Co285 2.052 . S
O291 C287 1.241 . S
O292 Co280 2.137 . S
O292 C283 1.247 . S
O293 Co280 2.244 . S
O293 C283 1.272 . S
O293 Co285 2.135 . S
Co294 O295 2.216 . S
Co294 O296 2.091 . S
Co294 O298 2.004 . S
Co294 O304 2.021 . S
Co294 O306 2.137 . S
Co294 O307 2.244 . S
O295 Co294 2.216 . S
O295 C302 1.247 . S
O296 Co294 2.091 . S
O296 C302 1.261 . S
C297 O306 1.247 . S
C297 O307 1.272 . S
O298 Co294 2.004 . S
O298 C303 1.259 . S
Co299 O300 2.061 . S
Co299 O305 2.052 . S
Co299 O307 2.135 . S
O300 Co299 2.061 . S
O300 C303 1.235 . S
C301 O304 1.238 . S
C301 O305 1.241 . S
C302 O295 1.247 . S
C302 O296 1.261 . S
C303 O298 1.259 . S
C303 O300 1.235 . S
O304 Co294 2.021 . S
O304 C301 1.238 . S
O305 Co299 2.052 . S
O305 C301 1.241 . S
O306 Co294 2.137 . S
O306 C297 1.247 . S
O307 Co294 2.244 . S
O307 C297 1.272 . S
O307 Co299 2.135 . S
Co308 O309 2.216 . S
Co308 O310 2.091 . S
Co308 O312 2.004 . S
Co308 O318 2.021 . S
Co308 O320 2.137 . S
Co308 O321 2.244 . S
O309 Co308 2.216 . S
O309 C316 1.247 . S
O310 Co308 2.091 . S
O310 C316 1.261 . S
C311 O320 1.247 . S
C311 O321 1.272 . S
O312 Co308 2.004 . S
O312 C317 1.259 . S
Co313 O314 2.061 . S
Co313 O319 2.052 . S
Co313 O321 2.135 . S
O314 Co313 2.061 . S
O314 C317 1.235 . S
C315 O318 1.238 . S
C315 O319 1.241 . S
C316 O309 1.247 . S
C316 O310 1.261 . S
C317 O312 1.259 . S
C317 O314 1.235 . S
O318 Co308 2.021 . S
O318 C315 1.238 . S
O319 Co313 2.052 . S
O319 C315 1.241 . S
O320 Co308 2.137 . S
O320 C311 1.247 . S
O321 Co308 2.244 . S
O321 C311 1.272 . S
O321 Co313 2.135 . S
Co322 O323 2.216 . S
Co322 O324 2.091 . S
Co322 O326 2.004 . S
Co322 O332 2.021 . S
Co322 O334 2.137 . S
Co322 O335 2.244 . S
O323 Co322 2.216 . S
O323 C330 1.247 . S
O324 Co322 2.091 . S
O324 C330 1.261 . S
C325 O334 1.247 . S
C325 O335 1.272 . S
O326 Co322 2.004 . S
O326 C331 1.259 . S
Co327 O328 2.061 . S
Co327 O333 2.052 . S
Co327 O335 2.135 . S
O328 Co327 2.061 . S
O328 C331 1.235 . S
C329 O332 1.238 . S
C329 O333 1.241 . S
C330 O323 1.247 . S
C330 O324 1.261 . S
C331 O326 1.259 . S
C331 O328 1.235 . S
O332 Co322 2.021 . S
O332 C329 1.238 . S
O333 Co327 2.052 . S
O333 C329 1.241 . S
O334 Co322 2.137 . S
O334 C325 1.247 . S
O335 Co322 2.244 . S
O335 C325 1.272 . S
O335 Co327 2.135 . S
Co336 O337 2.216 . S
Co336 O338 2.091 . S
Co336 O340 2.004 . S
Co336 O346 2.021 . S
Co336 O348 2.137 . S
Co336 O349 2.244 . S
O337 Co336 2.216 . S
O337 C344 1.247 . S
O338 Co336 2.091 . S
O338 C344 1.261 . S
C339 O348 1.247 . S
C339 O349 1.272 . S
O340 Co336 2.004 . S
O340 C345 1.259 . S
Co341 O342 2.061 . S
Co341 O347 2.052 . S
Co341 O349 2.135 . S
O342 Co341 2.061 . S
O342 C345 1.235 . S
C343 O346 1.238 . S
C343 O347 1.241 . S
C344 O337 1.247 . S
C344 O338 1.261 . S
C345 O340 1.259 . S
C345 O342 1.235 . S
O346 Co336 2.021 . S
O346 C343 1.238 . S
O347 Co341 2.052 . S
O347 C343 1.241 . S
O348 Co336 2.137 . S
O348 C339 1.247 . S
O349 Co336 2.244 . S
O349 C339 1.272 . S
O349 Co341 2.135 . S
Co350 O351 2.216 . S
Co350 O352 2.091 . S
Co350 O354 2.004 . S
Co350 O360 2.021 . S
Co350 O362 2.137 . S
Co350 O363 2.244 . S
O351 Co350 2.216 . S
O351 C358 1.247 . S
O352 Co350 2.091 . S
O352 C358 1.261 . S
C353 O362 1.247 . S
C353 O363 1.272 . S
O354 Co350 2.004 . S
O354 C359 1.259 . S
Co355 O356 2.061 . S
Co355 O361 2.052 . S
Co355 O363 2.135 . S
O356 Co355 2.061 . S
O356 C359 1.235 . S
C357 O360 1.238 . S
C357 O361 1.241 . S
C358 O351 1.247 . S
C358 O352 1.261 . S
C359 O354 1.259 . S
C359 O356 1.235 . S
O360 Co350 2.021 . S
O360 C357 1.238 . S
O361 Co355 2.052 . S
O361 C357 1.241 . S
O362 Co350 2.137 . S
O362 C353 1.247 . S
O363 Co350 2.244 . S
O363 C353 1.272 . S
O363 Co355 2.135 . S
Co364 O365 2.216 . S
Co364 O366 2.091 . S
Co364 O368 2.004 . S
Co364 O374 2.021 . S
Co364 O376 2.137 . S
Co364 O377 2.244 . S
O365 Co364 2.216 . S
O365 C372 1.247 . S
O366 Co364 2.091 . S
O366 C372 1.261 . S
C367 O376 1.247 . S
C367 O377 1.272 . S
O368 Co364 2.004 . S
O368 C373 1.259 . S
Co369 O370 2.061 . S
Co369 O375 2.052 . S
Co369 O377 2.135 . S
O370 Co369 2.061 . S
O370 C373 1.235 . S
C371 O374 1.238 . S
C371 O375 1.241 . S
C372 O365 1.247 . S
C372 O366 1.261 . S
C373 O368 1.259 . S
C373 O370 1.235 . S
O374 Co364 2.021 . S
O374 C371 1.238 . S
O375 Co369 2.052 . S
O375 C371 1.241 . S
O376 Co364 2.137 . S
O376 C367 1.247 . S
O377 Co364 2.244 . S
O377 C367 1.272 . S
O377 Co369 2.135 . S
Co378 O379 2.216 . S
Co378 O380 2.091 . S
Co378 O382 2.004 . S
Co378 O388 2.021 . S
Co378 O390 2.137 . S
Co378 O391 2.244 . S
O379 Co378 2.216 . S
O379 C386 1.247 . S
O380 Co378 2.091 . S
O380 C386 1.261 . S
C381 O390 1.247 . S
C381 O391 1.272 . S
O382 Co378 2.004 . S
O382 C387 1.259 . S
Co383 O384 2.061 . S
Co383 O389 2.052 . S
Co383 O391 2.135 . S
O384 Co383 2.061 . S
O384 C387 1.235 . S
C385 O388 1.238 . S
C385 O389 1.241 . S
C386 O379 1.247 . S
C386 O380 1.261 . S
C387 O382 1.259 . S
C387 O384 1.235 . S
O388 Co378 2.021 . S
O388 C385 1.238 . S
O389 Co383 2.052 . S
O389 C385 1.241 . S
O390 Co378 2.137 . S
O390 C381 1.247 . S
O391 Co378 2.244 . S
O391 C381 1.272 . S
O391 Co383 2.135 . S
Co392 O393 2.216 . S
Co392 O394 2.091 . S
Co392 O396 2.004 . S
Co392 O402 2.021 . S
Co392 O404 2.137 . S
Co392 O405 2.244 . S
O393 Co392 2.216 . S
O393 C400 1.247 . S
O394 Co392 2.091 . S
O394 C400 1.261 . S
C395 O404 1.247 . S
C395 O405 1.272 . S
O396 Co392 2.004 . S
O396 C401 1.259 . S
Co397 O398 2.061 . S
Co397 O403 2.052 . S
Co397 O405 2.135 . S
O398 Co397 2.061 . S
O398 C401 1.235 . S
C399 O402 1.238 . S
C399 O403 1.241 . S
C400 O393 1.247 . S
C400 O394 1.261 . S
C401 O396 1.259 . S
C401 O398 1.235 . S
O402 Co392 2.021 . S
O402 C399 1.238 . S
O403 Co397 2.052 . S
O403 C399 1.241 . S
O404 Co392 2.137 . S
O404 C395 1.247 . S
O405 Co392 2.244 . S
O405 C395 1.272 . S
O405 Co397 2.135 . S
Co406 O407 2.216 . S
Co406 O408 2.091 . S
Co406 O410 2.004 . S
Co406 O416 2.021 . S
Co406 O418 2.137 . S
Co406 O419 2.244 . S
O407 Co406 2.216 . S
O407 C414 1.247 . S
O408 Co406 2.091 . S
O408 C414 1.261 . S
C409 O418 1.247 . S
C409 O419 1.272 . S
O410 Co406 2.004 . S
O410 C415 1.259 . S
Co411 O412 2.061 . S
Co411 O417 2.052 . S
Co411 O419 2.135 . S
O412 Co411 2.061 . S
O412 C415 1.235 . S
C413 O416 1.238 . S
C413 O417 1.241 . S
C414 O407 1.247 . S
C414 O408 1.261 . S
C415 O410 1.259 . S
C415 O412 1.235 . S
O416 Co406 2.021 . S
O416 C413 1.238 . S
O417 Co411 2.052 . S
O417 C413 1.241 . S
O418 Co406 2.137 . S
O418 C409 1.247 . S
O419 Co406 2.244 . S
O419 C409 1.272 . S
O419 Co411 2.135 . S
Co420 O421 2.216 . S
Co420 O422 2.091 . S
Co420 O424 2.004 . S
Co420 O430 2.021 1_554 S
Co420 O432 2.137 . S
Co420 O433 2.244 . S
O421 Co420 2.216 . S
O421 C428 1.247 . S
O422 Co420 2.091 . S
O422 C428 1.261 . S
C423 O432 1.247 . S
C423 O433 1.272 . S
O424 Co420 2.004 . S
O424 C429 1.259 . S
Co425 O426 2.061 . S
Co425 O431 2.052 . S
Co425 O433 2.135 . S
O426 Co425 2.061 . S
O426 C429 1.235 . S
C427 O430 1.238 . S
C427 O431 1.241 1_556 S
C428 O421 1.247 . S
C428 O422 1.261 . S
C429 O424 1.259 . S
C429 O426 1.235 . S
O430 Co420 2.021 1_556 S
O430 C427 1.238 . S
O431 Co425 2.052 . S
O431 C427 1.241 1_554 S
O432 Co420 2.137 . S
O432 C423 1.247 . S
O433 Co420 2.244 . S
O433 C423 1.272 . S
O433 Co425 2.135 . S
Co434 O435 2.216 . S
Co434 O436 2.091 . S
Co434 O438 2.004 . S
Co434 O444 2.021 . S
Co434 O446 2.137 . S
Co434 O447 2.244 . S
O435 Co434 2.216 . S
O435 C442 1.247 . S
O436 Co434 2.091 . S
O436 C442 1.261 . S
C437 O446 1.247 . S
C437 O447 1.272 . S
O438 Co434 2.004 . S
O438 C443 1.259 . S
Co439 O440 2.061 . S
Co439 O445 2.052 . S
Co439 O447 2.135 . S
O440 Co439 2.061 . S
O440 C443 1.235 . S
C441 O444 1.238 . S
C441 O445 1.241 . S
C442 O435 1.247 . S
C442 O436 1.261 . S
C443 O438 1.259 . S
C443 O440 1.235 . S
O444 Co434 2.021 . S
O444 C441 1.238 . S
O445 Co439 2.052 . S
O445 C441 1.241 . S
O446 Co434 2.137 . S
O446 C437 1.247 . S
O447 Co434 2.244 . S
O447 C437 1.272 . S
O447 Co439 2.135 . S
H448 C454 0.930 . S
H449 C457 0.930 . S
H450 C458 0.930 . S
H451 C459 0.930 . S
H452 C462 0.930 . S
H453 C463 0.930 . S
C454 H448 0.930 . S
C454 C455 1.355 . S
C454 C456 1.415 . S
C455 C454 1.355 . S
C455 C457 1.419 . S
C456 C454 1.415 . S
C456 C461 1.425 . S
C456 C463 1.409 . S
C457 H449 0.930 . S
C457 C455 1.419 . S
C457 C458 1.362 1_556 S
C458 H450 0.930 . S
C458 C457 1.362 1_554 S
C458 C461 1.409 1_554 S
C459 H451 0.930 . S
C459 C460 1.355 . S
C459 C461 1.415 1_554 S
C460 C459 1.355 . S
C460 C462 1.419 1_554 S
C461 C456 1.425 . S
C461 C458 1.409 1_556 S
C461 C459 1.415 1_556 S
C462 H452 0.930 . S
C462 C460 1.419 1_556 S
C462 C463 1.362 . S
C463 H453 0.930 . S
C463 C456 1.409 . S
C463 C462 1.362 . S
H464 C470 0.930 . S
H465 C473 0.930 . S
H466 C474 0.930 . S
H467 C475 0.930 . S
H468 C478 0.930 . S
H469 C479 0.930 . S
C470 H464 0.930 . S
C470 C471 1.355 . S
C470 C472 1.415 . S
C471 C470 1.355 . S
C471 C473 1.419 . S
C472 C470 1.415 . S
C472 C477 1.425 . S
C472 C479 1.409 . S
C473 H465 0.930 . S
C473 C471 1.419 . S
C473 C474 1.362 . S
C474 H466 0.930 . S
C474 C473 1.362 . S
C474 C477 1.409 . S
C475 H467 0.930 . S
C475 C476 1.355 . S
C475 C477 1.415 . S
C476 C475 1.355 . S
C476 C478 1.419 . S
C477 C472 1.425 . S
C477 C474 1.409 . S
C477 C475 1.415 . S
C478 H468 0.930 . S
C478 C476 1.419 . S
C478 C479 1.362 . S
C479 H469 0.930 . S
C479 C472 1.409 . S
C479 C478 1.362 . S
H480 C486 0.930 . S
H481 C489 0.930 . S
H482 C490 0.930 . S
H483 C491 0.930 . S
H484 C494 0.930 . S
H485 C495 0.930 . S
C486 H480 0.930 . S
C486 C487 1.355 . S
C486 C488 1.415 . S
C487 C486 1.355 . S
C487 C489 1.419 . S
C488 C486 1.415 . S
C488 C493 1.425 . S
C488 C495 1.409 . S
C489 H481 0.930 . S
C489 C487 1.419 . S
C489 C490 1.362 . S
C490 H482 0.930 . S
C490 C489 1.362 . S
C490 C493 1.409 . S
C491 H483 0.930 . S
C491 C492 1.355 . S
C491 C493 1.415 . S
C492 C491 1.355 . S
C492 C494 1.419 . S
C493 C488 1.425 . S
C493 C490 1.409 . S
C493 C491 1.415 . S
C494 H484 0.930 . S
C494 C492 1.419 . S
C494 C495 1.362 . S
C495 H485 0.930 . S
C495 C488 1.409 . S
C495 C494 1.362 . S
H496 C502 0.930 . S
H497 C505 0.930 . S
H498 C506 0.930 . S
H499 C507 0.930 . S
H500 C510 0.930 . S
H501 C511 0.930 . S
C502 H496 0.930 . S
C502 C503 1.355 . S
C502 C504 1.415 . S
C503 C502 1.355 . S
C503 C505 1.419 . S
C504 C502 1.415 . S
C504 C509 1.425 . S
C504 C511 1.409 . S
C505 H497 0.930 . S
C505 C503 1.419 . S
C505 C506 1.362 . S
C506 H498 0.930 . S
C506 C505 1.362 . S
C506 C509 1.409 . S
C507 H499 0.930 . S
C507 C508 1.355 . S
C507 C509 1.415 . S
C508 C507 1.355 . S
C508 C510 1.419 . S
C509 C504 1.425 . S
C509 C506 1.409 . S
C509 C507 1.415 . S
C510 H500 0.930 . S
C510 C508 1.419 . S
C510 C511 1.362 . S
C511 H501 0.930 . S
C511 C504 1.409 . S
C511 C510 1.362 . S
H512 C518 0.930 . S
H513 C521 0.930 . S
H514 C522 0.930 . S
H515 C523 0.930 . S
H516 C526 0.930 . S
H517 C527 0.930 . S
C518 H512 0.930 . S
C518 C519 1.355 . S
C518 C520 1.415 . S
C519 C518 1.355 . S
C519 C521 1.419 . S
C520 C518 1.415 . S
C520 C525 1.425 . S
C520 C527 1.409 . S
C521 H513 0.930 . S
C521 C519 1.419 . S
C521 C522 1.362 . S
C522 H514 0.930 . S
C522 C521 1.362 . S
C522 C525 1.409 . S
C523 H515 0.930 . S
C523 C524 1.355 . S
C523 C525 1.415 . S
C524 C523 1.355 . S
C524 C526 1.419 . S
C525 C520 1.425 . S
C525 C522 1.409 . S
C525 C523 1.415 . S
C526 H516 0.930 . S
C526 C524 1.419 . S
C526 C527 1.362 . S
C527 H517 0.930 . S
C527 C520 1.409 . S
C527 C526 1.362 . S
H528 C534 0.930 . S
H529 C537 0.930 . S
H530 C538 0.930 . S
H531 C539 0.930 . S
H532 C542 0.930 . S
H533 C543 0.930 . S
C534 H528 0.930 . S
C534 C535 1.355 . S
C534 C536 1.415 . S
C535 C534 1.355 . S
C535 C537 1.419 . S
C536 C534 1.415 . S
C536 C541 1.425 . S
C536 C543 1.409 . S
C537 H529 0.930 . S
C537 C535 1.419 . S
C537 C538 1.362 . S
C538 H530 0.930 . S
C538 C537 1.362 . S
C538 C541 1.409 . S
C539 H531 0.930 . S
C539 C540 1.355 . S
C539 C541 1.415 1_554 S
C540 C539 1.355 . S
C540 C542 1.419 . S
C541 C536 1.425 . S
C541 C538 1.409 . S
C541 C539 1.415 1_556 S
C542 H532 0.930 . S
C542 C540 1.419 . S
C542 C543 1.362 1_554 S
C543 H533 0.930 . S
C543 C536 1.409 . S
C543 C542 1.362 1_556 S
H544 C550 0.930 . S
H545 C553 0.930 . S
H546 C554 0.930 . S
H547 C555 0.930 . S
H548 C558 0.930 . S
H549 C559 0.930 . S
C550 H544 0.930 . S
C550 C551 1.355 . S
C550 C552 1.415 . S
C551 C550 1.355 . S
C551 C553 1.419 . S
C552 C550 1.415 . S
C552 C557 1.425 . S
C552 C559 1.409 . S
C553 H545 0.930 . S
C553 C551 1.419 . S
C553 C554 1.362 . S
C554 H546 0.930 . S
C554 C553 1.362 . S
C554 C557 1.409 . S
C555 H547 0.930 . S
C555 C556 1.355 . S
C555 C557 1.415 . S
C556 C555 1.355 . S
C556 C558 1.419 . S
C557 C552 1.425 . S
C557 C554 1.409 . S
C557 C555 1.415 . S
C558 H548 0.930 . S
C558 C556 1.419 . S
C558 C559 1.362 . S
C559 H549 0.930 . S
C559 C552 1.409 . S
C559 C558 1.362 . S
H560 C566 0.930 . S
H561 C569 0.930 . S
H562 C570 0.930 . S
H563 C571 0.930 . S
H564 C574 0.930 . S
H565 C575 0.930 . S
C566 H560 0.930 . S
C566 C567 1.355 . S
C566 C568 1.415 . S
C567 C566 1.355 . S
C567 C569 1.419 . S
C568 C566 1.415 . S
C568 C573 1.425 . S
C568 C575 1.409 . S
C569 H561 0.930 . S
C569 C567 1.419 . S
C569 C570 1.362 . S
C570 H562 0.930 . S
C570 C569 1.362 . S
C570 C573 1.409 . S
C571 H563 0.930 . S
C571 C572 1.355 . S
C571 C573 1.415 . S
C572 C571 1.355 . S
C572 C574 1.419 . S
C573 C568 1.425 . S
C573 C570 1.409 . S
C573 C571 1.415 . S
C574 H564 0.930 . S
C574 C572 1.419 . S
C574 C575 1.362 . S
C575 H565 0.930 . S
C575 C568 1.409 . S
C575 C574 1.362 . S
H576 C582 0.930 . S
H577 C585 0.930 . S
H578 C586 0.930 . S
H579 C587 0.930 . S
H580 C590 0.930 . S
H581 C591 0.930 . S
C582 H576 0.930 . S
C582 C583 1.355 . S
C582 C584 1.415 . S
C583 C582 1.355 . S
C583 C585 1.419 . S
C584 C582 1.415 . S
C584 C589 1.425 . S
C584 C591 1.409 . S
C585 H577 0.930 . S
C585 C583 1.419 . S
C585 C586 1.362 . S
C586 H578 0.930 . S
C586 C585 1.362 . S
C586 C589 1.409 . S
C587 H579 0.930 . S
C587 C588 1.355 . S
C587 C589 1.415 . S
C588 C587 1.355 . S
C588 C590 1.419 . S
C589 C584 1.425 . S
C589 C586 1.409 . S
C589 C587 1.415 . S
C590 H580 0.930 . S
C590 C588 1.419 . S
C590 C591 1.362 . S
C591 H581 0.930 . S
C591 C584 1.409 . S
C591 C590 1.362 . S
H592 C598 0.930 . S
H593 C601 0.930 . S
H594 C602 0.930 . S
H595 C603 0.930 . S
H596 C606 0.930 . S
H597 C607 0.930 . S
C598 H592 0.930 . S
C598 C599 1.355 . S
C598 C600 1.415 . S
C599 C598 1.355 . S
C599 C601 1.419 . S
C600 C598 1.415 . S
C600 C605 1.425 . S
C600 C607 1.409 . S
C601 H593 0.930 . S
C601 C599 1.419 . S
C601 C602 1.362 . S
C602 H594 0.930 . S
C602 C601 1.362 . S
C602 C605 1.409 . S
C603 H595 0.930 . S
C603 C604 1.355 . S
C603 C605 1.415 . S
C604 C603 1.355 . S
C604 C606 1.419 . S
C605 C600 1.425 . S
C605 C602 1.409 . S
C605 C603 1.415 . S
C606 H596 0.930 . S
C606 C604 1.419 . S
C606 C607 1.362 . S
C607 H597 0.930 . S
C607 C600 1.409 . S
C607 C606 1.362 . S
H608 C614 0.930 . S
H609 C617 0.930 . S
H610 C618 0.930 . S
H611 C619 0.930 . S
H612 C622 0.930 . S
H613 C623 0.930 . S
C614 H608 0.930 . S
C614 C615 1.355 . S
C614 C616 1.415 . S
C615 C614 1.355 . S
C615 C617 1.419 . S
C616 C614 1.415 . S
C616 C621 1.425 . S
C616 C623 1.409 1_556 S
C617 H609 0.930 . S
C617 C615 1.419 . S
C617 C618 1.362 . S
C618 H610 0.930 . S
C618 C617 1.362 . S
C618 C621 1.409 . S
C619 H611 0.930 . S
C619 C620 1.355 1_556 S
C619 C621 1.415 . S
C620 C619 1.355 1_554 S
C620 C622 1.419 . S
C621 C616 1.425 . S
C621 C618 1.409 . S
C621 C619 1.415 . S
C622 H612 0.930 . S
C622 C620 1.419 . S
C622 C623 1.362 . S
C623 H613 0.930 . S
C623 C616 1.409 1_554 S
C623 C622 1.362 . S
H624 C630 0.930 . S
H625 C633 0.930 . S
H626 C634 0.930 . S
H627 C635 0.930 . S
H628 C638 0.930 . S
H629 C639 0.930 . S
C630 H624 0.930 . S
C630 C631 1.355 . S
C630 C632 1.415 . S
C631 C630 1.355 . S
C631 C633 1.419 . S
C632 C630 1.415 . S
C632 C637 1.425 . S
C632 C639 1.409 . S
C633 H625 0.930 . S
C633 C631 1.419 . S
C633 C634 1.362 . S
C634 H626 0.930 . S
C634 C633 1.362 . S
C634 C637 1.409 . S
C635 H627 0.930 . S
C635 C636 1.355 . S
C635 C637 1.415 . S
C636 C635 1.355 . S
C636 C638 1.419 . S
C637 C632 1.425 . S
C637 C634 1.409 . S
C637 C635 1.415 . S
C638 H628 0.930 . S
C638 C636 1.419 . S
C638 C639 1.362 . S
C639 H629 0.930 . S
C639 C632 1.409 . S
C639 C638 1.362 . S
H640 C646 0.930 . S
H641 C649 0.930 . S
H642 C650 0.930 . S
H643 C651 0.930 . S
H644 C654 0.930 . S
H645 C655 0.930 . S
C646 H640 0.930 . S
C646 C647 1.355 . S
C646 C648 1.415 . S
C647 C646 1.355 . S
C647 C649 1.419 . S
C648 C646 1.415 . S
C648 C653 1.425 . S
C648 C655 1.409 . S
C649 H641 0.930 . S
C649 C647 1.419 . S
C649 C650 1.362 . S
C650 H642 0.930 . S
C650 C649 1.362 . S
C650 C653 1.409 . S
C651 H643 0.930 . S
C651 C652 1.355 . S
C651 C653 1.415 . S
C652 C651 1.355 . S
C652 C654 1.419 . S
C653 C648 1.425 . S
C653 C650 1.409 . S
C653 C651 1.415 . S
C654 H644 0.930 . S
C654 C652 1.419 . S
C654 C655 1.362 . S
C655 H645 0.930 . S
C655 C648 1.409 . S
C655 C654 1.362 . S
H656 C662 0.930 . S
H657 C665 0.930 . S
H658 C666 0.930 . S
H659 C667 0.930 . S
H660 C670 0.930 . S
H661 C671 0.930 . S
C662 H656 0.930 . S
C662 C663 1.355 . S
C662 C664 1.415 . S
C663 C662 1.355 . S
C663 C665 1.419 . S
C664 C662 1.415 . S
C664 C669 1.425 . S
C664 C671 1.409 . S
C665 H657 0.930 . S
C665 C663 1.419 . S
C665 C666 1.362 . S
C666 H658 0.930 . S
C666 C665 1.362 . S
C666 C669 1.409 . S
C667 H659 0.930 . S
C667 C668 1.355 . S
C667 C669 1.415 . S
C668 C667 1.355 . S
C668 C670 1.419 . S
C669 C664 1.425 . S
C669 C666 1.409 . S
C669 C667 1.415 . S
C670 H660 0.930 . S
C670 C668 1.419 . S
C670 C671 1.362 . S
C671 H661 0.930 . S
C671 C664 1.409 . S
C671 C670 1.362 . S
H672 C678 0.930 . S
H673 C681 0.930 . S
H674 C682 0.930 . S
H675 C683 0.930 . S
H676 C686 0.930 . S
H677 C687 0.930 . S
C678 H672 0.930 . S
C678 C679 1.355 . S
C678 C680 1.415 . S
C679 C678 1.355 . S
C679 C681 1.419 . S
C680 C678 1.415 . S
C680 C685 1.425 . S
C680 C687 1.409 . S
C681 H673 0.930 . S
C681 C679 1.419 . S
C681 C682 1.362 . S
C682 H674 0.930 . S
C682 C681 1.362 . S
C682 C685 1.409 . S
C683 H675 0.930 . S
C683 C684 1.355 . S
C683 C685 1.415 . S
C684 C683 1.355 . S
C684 C686 1.419 . S
C685 C680 1.425 . S
C685 C682 1.409 . S
C685 C683 1.415 . S
C686 H676 0.930 . S
C686 C684 1.419 . S
C686 C687 1.362 . S
C687 H677 0.930 . S
C687 C680 1.409 . S
C687 C686 1.362 . S
H688 C694 0.930 . S
H689 C697 0.930 . S
H690 C698 0.930 . S
H691 C699 0.930 . S
H692 C702 0.929 1_554 S
H693 C703 0.930 . S
C694 H688 0.930 . S
C694 C695 1.355 . S
C694 C696 1.415 . S
C695 C694 1.355 . S
C695 C697 1.419 . S
C696 C694 1.415 . S
C696 C701 1.425 . S
C696 C703 1.409 . S
C697 H689 0.930 . S
C697 C695 1.419 . S
C697 C698 1.362 . S
C698 H690 0.930 . S
C698 C697 1.362 . S
C698 C701 1.409 . S
C699 H691 0.930 . S
C699 C700 1.355 . S
C699 C701 1.415 1_554 S
C700 C699 1.355 . S
C700 C702 1.414 1_554 S
C701 C696 1.425 . S
C701 C698 1.409 . S
C701 C699 1.415 1_556 S
C702 H692 0.929 1_556 S
C702 C700 1.414 1_556 S
C702 C703 1.369 . S
C703 H693 0.930 . S
C703 C696 1.409 . S
C703 C702 1.369 . S
H704 C710 0.930 . S
H705 C713 0.930 . S
H706 C714 0.930 . S
H707 C715 0.930 . S
H708 C718 0.930 . S
H709 C719 0.930 . S
C710 H704 0.930 . S
C710 C711 1.355 . S
C710 C712 1.415 . S
C711 C710 1.355 . S
C711 C713 1.419 . S
C712 C710 1.415 . S
C712 C717 1.425 . S
C712 C719 1.409 . S
C713 H705 0.930 . S
C713 C711 1.419 . S
C713 C714 1.362 . S
C714 H706 0.930 . S
C714 C713 1.362 . S
C714 C717 1.409 . S
C715 H707 0.930 . S
C715 C716 1.355 . S
C715 C717 1.415 . S
C716 C715 1.355 . S
C716 C718 1.419 . S
C717 C712 1.425 . S
C717 C714 1.409 . S
C717 C715 1.415 . S
C718 H708 0.930 . S
C718 C716 1.419 . S
C718 C719 1.362 . S
C719 H709 0.930 . S
C719 C712 1.409 . S
C719 C718 1.362 . S
H720 C726 0.930 . S
H721 C729 0.930 . S
H722 C730 0.930 . S
H723 C731 0.930 . S
H724 C734 0.930 . S
H725 C735 0.930 . S
C726 H720 0.930 . S
C726 C727 1.355 . S
C726 C728 1.415 . S
C727 C726 1.355 . S
C727 C729 1.419 1_565 S
C728 C726 1.415 . S
C728 C733 1.425 1_565 S
C728 C735 1.409 . S
C729 H721 0.930 . S
C729 C727 1.419 1_545 S
C729 C730 1.362 . S
C730 H722 0.930 . S
C730 C729 1.362 . S
C730 C733 1.409 . S
C731 H723 0.930 . S
C731 C732 1.355 1_554 S
C731 C733 1.415 . S
C732 C731 1.355 1_556 S
C732 C734 1.419 1_545 S
C733 C728 1.425 1_545 S
C733 C730 1.409 . S
C733 C731 1.415 . S
C734 H724 0.930 . S
C734 C732 1.419 1_565 S
C734 C735 1.362 1_556 S
C735 H725 0.930 . S
C735 C728 1.409 . S
C735 C734 1.362 1_554 S
H736 C742 0.930 . S
H737 C745 0.930 . S
H738 C746 0.930 . S
H739 C747 0.930 . S
H740 C750 0.930 . S
H741 C751 0.930 . S
C742 H736 0.930 . S
C742 C743 1.355 . S
C742 C744 1.415 . S
C743 C742 1.355 . S
C743 C745 1.419 . S
C744 C742 1.415 . S
C744 C749 1.425 . S
C744 C751 1.409 . S
C745 H737 0.930 . S
C745 C743 1.419 . S
C745 C746 1.362 . S
C746 H738 0.930 . S
C746 C745 1.362 . S
C746 C749 1.409 . S
C747 H739 0.930 . S
C747 C748 1.355 . S
C747 C749 1.415 . S
C748 C747 1.355 . S
C748 C750 1.419 . S
C749 C744 1.425 . S
C749 C746 1.409 . S
C749 C747 1.415 . S
C750 H740 0.930 . S
C750 C748 1.419 . S
C750 C751 1.362 . S
C751 H741 0.930 . S
C751 C744 1.409 . S
C751 C750 1.362 . S
H752 C758 0.930 . S
H753 C761 0.930 . S
H754 C762 0.930 . S
H755 C763 0.930 . S
H756 C766 0.930 . S
H757 C767 0.930 . S
C758 H752 0.930 . S
C758 C759 1.355 . S
C758 C760 1.415 . S
C759 C758 1.355 . S
C759 C761 1.419 1_545 S
C760 C758 1.415 . S
C760 C765 1.425 1_545 S
C760 C767 1.409 . S
C761 H753 0.930 . S
C761 C759 1.419 1_565 S
C761 C762 1.362 . S
C762 H754 0.930 . S
C762 C761 1.362 . S
C762 C765 1.409 . S
C763 H755 0.930 . S
C763 C764 1.355 . S
C763 C765 1.415 . S
C764 C763 1.355 . S
C764 C766 1.419 1_565 S
C765 C760 1.425 1_565 S
C765 C762 1.409 . S
C765 C763 1.415 . S
C766 H756 0.930 . S
C766 C764 1.419 1_545 S
C766 C767 1.362 . S
C767 H757 0.930 . S
C767 C760 1.409 . S
C767 C766 1.362 . S
H768 C774 0.930 . S
H769 C777 0.930 . S
H770 C778 0.930 . S
H771 C779 0.930 . S
H772 C782 0.930 . S
H773 C783 0.930 . S
C774 H768 0.930 . S
C774 C775 1.355 . S
C774 C776 1.415 . S
C775 C774 1.355 . S
C775 C777 1.419 . S
C776 C774 1.415 . S
C776 C781 1.425 . S
C776 C783 1.409 . S
C777 H769 0.930 . S
C777 C775 1.419 . S
C777 C778 1.362 . S
C778 H770 0.930 . S
C778 C777 1.362 . S
C778 C781 1.409 . S
C779 H771 0.930 . S
C779 C780 1.355 . S
C779 C781 1.415 . S
C780 C779 1.355 . S
C780 C782 1.419 . S
C781 C776 1.425 . S
C781 C778 1.409 . S
C781 C779 1.415 . S
C782 H772 0.930 . S
C782 C780 1.419 . S
C782 C783 1.362 . S
C783 H773 0.930 . S
C783 C776 1.409 . S
C783 C782 1.362 . S
H784 C790 0.930 1_556 S
H785 C793 0.930 . S
H786 C794 0.930 . S
H787 C795 0.930 . S
H788 C798 0.930 . S
H789 C799 0.930 . S
C790 H784 0.930 1_554 S
C790 C791 1.355 1_564 S
C790 C792 1.415 . S
C791 C790 1.355 1_546 S
C791 C793 1.419 1_556 S
C792 C790 1.415 . S
C792 C797 1.425 1_565 S
C792 C799 1.409 . S
C793 H785 0.930 . S
C793 C791 1.419 1_554 S
C793 C794 1.362 . S
C794 H786 0.930 . S
C794 C793 1.362 . S
C794 C797 1.409 . S
C795 H787 0.930 . S
C795 C796 1.355 1_545 S
C795 C797 1.415 . S
C796 C795 1.355 1_565 S
C796 C798 1.419 . S
C797 C792 1.425 1_545 S
C797 C794 1.409 . S
C797 C795 1.415 . S
C798 H788 0.930 . S
C798 C796 1.419 . S
C798 C799 1.362 . S
C799 H789 0.930 . S
C799 C792 1.409 . S
C799 C798 1.362 . S
H800 C806 0.930 . S
H801 C809 0.930 . S
H802 C810 0.930 . S
H803 C811 0.930 . S
H804 C814 0.930 . S
H805 C815 0.930 . S
C806 H800 0.930 . S
C806 C807 1.355 . S
C806 C808 1.415 . S
C807 C806 1.355 . S
C807 C809 1.419 . S
C808 C806 1.415 . S
C808 C813 1.425 . S
C808 C815 1.409 . S
C809 H801 0.930 . S
C809 C807 1.419 . S
C809 C810 1.362 . S
C810 H802 0.930 . S
C810 C809 1.362 . S
C810 C813 1.409 . S
C811 H803 0.930 . S
C811 C812 1.355 . S
C811 C813 1.415 . S
C812 C811 1.355 . S
C812 C814 1.419 . S
C813 C808 1.425 . S
C813 C810 1.409 . S
C813 C811 1.415 . S
C814 H804 0.930 . S
C814 C812 1.419 . S
C814 C815 1.362 . S
C815 H805 0.930 . S
C815 C808 1.409 . S
C815 C814 1.362 . S
H816 C822 0.930 . S
H817 C825 0.930 . S
H818 C826 0.930 . S
H819 C827 0.930 . S
H820 C830 0.930 . S
H821 C831 0.930 . S
C822 H816 0.930 . S
C822 C823 1.355 1_565 S
C822 C824 1.415 . S
C823 C822 1.355 1_545 S
C823 C825 1.419 . S
C824 C822 1.415 . S
C824 C829 1.425 1_565 S
C824 C831 1.409 . S
C825 H817 0.930 . S
C825 C823 1.419 . S
C825 C826 1.362 . S
C826 H818 0.930 . S
C826 C825 1.362 . S
C826 C829 1.409 . S
C827 H819 0.930 . S
C827 C828 1.355 1_545 S
C827 C829 1.415 . S
C828 C827 1.355 1_565 S
C828 C830 1.419 . S
C829 C824 1.425 1_545 S
C829 C826 1.409 . S
C829 C827 1.415 . S
C830 H820 0.930 . S
C830 C828 1.419 . S
C830 C831 1.362 . S
C831 H821 0.930 . S
C831 C824 1.409 . S
C831 C830 1.362 . S
H832 C838 0.930 . S
H833 C841 0.930 . S
H834 C842 0.930 . S
H835 C843 0.930 . S
H836 C846 0.930 . S
H837 C847 0.930 . S
C838 H832 0.930 . S
C838 C839 1.355 . S
C838 C840 1.415 . S
C839 C838 1.355 . S
C839 C841 1.419 . S
C840 C838 1.415 . S
C840 C845 1.425 . S
C840 C847 1.409 . S
C841 H833 0.930 . S
C841 C839 1.419 . S
C841 C842 1.362 . S
C842 H834 0.930 . S
C842 C841 1.362 . S
C842 C845 1.409 . S
C843 H835 0.930 . S
C843 C844 1.355 . S
C843 C845 1.415 . S
C844 C843 1.355 . S
C844 C846 1.419 . S
C845 C840 1.425 . S
C845 C842 1.409 . S
C845 C843 1.415 . S
C846 H836 0.930 . S
C846 C844 1.419 . S
C846 C847 1.362 . S
C847 H837 0.930 . S
C847 C840 1.409 . S
C847 C846 1.362 . S
H848 C854 0.930 . S
H849 C857 0.930 . S
H850 C858 0.930 . S
H851 C859 0.930 . S
H852 C862 0.930 . S
H853 C863 0.930 . S
C854 H848 0.930 . S
C854 C855 1.355 . S
C854 C856 1.415 . S
C855 C854 1.355 . S
C855 C857 1.419 . S
C856 C854 1.415 . S
C856 C861 1.425 . S
C856 C863 1.409 . S
C857 H849 0.930 . S
C857 C855 1.419 . S
C857 C858 1.362 . S
C858 H850 0.930 . S
C858 C857 1.362 . S
C858 C861 1.409 . S
C859 H851 0.930 . S
C859 C860 1.355 . S
C859 C861 1.415 . S
C860 C859 1.355 . S
C860 C862 1.419 . S
C861 C856 1.425 . S
C861 C858 1.409 . S
C861 C859 1.415 . S
C862 H852 0.930 . S
C862 C860 1.419 . S
C862 C863 1.362 . S
C863 H853 0.930 . S
C863 C856 1.409 . S
C863 C862 1.362 . S
H864 C870 0.930 . S
H865 C873 0.930 . S
H866 C874 0.930 . S
H867 C875 0.930 . S
H868 C878 0.930 . S
H869 C879 0.930 . S
C870 H864 0.930 . S
C870 C871 1.355 . S
C870 C872 1.415 . S
C871 C870 1.355 . S
C871 C873 1.419 . S
C872 C870 1.415 . S
C872 C877 1.425 . S
C872 C879 1.409 . S
C873 H865 0.930 . S
C873 C871 1.419 . S
C873 C874 1.362 . S
C874 H866 0.930 . S
C874 C873 1.362 . S
C874 C877 1.409 . S
C875 H867 0.930 . S
C875 C876 1.355 . S
C875 C877 1.415 . S
C876 C875 1.355 . S
C876 C878 1.419 . S
C877 C872 1.425 . S
C877 C874 1.409 . S
C877 C875 1.415 . S
C878 H868 0.930 . S
C878 C876 1.419 . S
C878 C879 1.362 . S
C879 H869 0.930 . S
C879 C872 1.409 . S
C879 C878 1.362 . S
H880 C886 0.930 . S
H881 C889 0.930 . S
H882 C890 0.930 . S
H883 C891 0.930 1_556 S
H884 C894 0.930 . S
H885 C895 0.930 . S
C886 H880 0.930 . S
C886 C887 1.355 . S
C886 C888 1.415 . S
C887 C886 1.355 . S
C887 C889 1.419 . S
C888 C886 1.415 . S
C888 C893 1.425 . S
C888 C895 1.409 . S
C889 H881 0.930 . S
C889 C887 1.419 . S
C889 C890 1.362 . S
C890 H882 0.930 . S
C890 C889 1.362 . S
C890 C893 1.409 . S
C891 H883 0.930 1_554 S
C891 C892 1.355 1_554 S
C891 C893 1.415 . S
C892 C891 1.355 1_556 S
C892 C894 1.419 1_556 S
C893 C888 1.425 . S
C893 C890 1.409 . S
C893 C891 1.415 . S
C894 H884 0.930 . S
C894 C892 1.419 1_554 S
C894 C895 1.362 . S
C895 H885 0.930 . S
C895 C888 1.409 . S
C895 C894 1.362 . S
H896 C902 0.930 . S
H897 C905 0.930 . S
H898 C906 0.930 . S
H899 C907 0.930 . S
H900 C910 0.930 . S
H901 C911 0.930 . S
C902 H896 0.930 . S
C902 C903 1.355 . S
C902 C904 1.415 . S
C903 C902 1.355 . S
C903 C905 1.419 . S
C904 C902 1.415 . S
C904 C909 1.425 . S
C904 C911 1.409 . S
C905 H897 0.930 . S
C905 C903 1.419 . S
C905 C906 1.362 . S
C906 H898 0.930 . S
C906 C905 1.362 . S
C906 C909 1.409 . S
C907 H899 0.930 . S
C907 C908 1.355 . S
C907 C909 1.415 . S
C908 C907 1.355 . S
C908 C910 1.419 . S
C909 C904 1.425 . S
C909 C906 1.409 . S
C909 C907 1.415 . S
C910 H900 0.930 . S
C910 C908 1.419 . S
C910 C911 1.362 . S
C911 H901 0.930 . S
C911 C904 1.409 . S
C911 C910 1.362 . S
H912 C918 0.930 . S
H913 C921 0.930 . S
H914 C922 0.930 . S
H915 C923 0.930 . S
H916 C926 0.930 . S
H917 C927 0.930 . S
C918 H912 0.930 . S
C918 C919 1.355 . S
C918 C920 1.415 . S
C919 C918 1.355 . S
C919 C921 1.419 . S
C920 C918 1.415 . S
C920 C925 1.425 . S
C920 C927 1.409 . S
C921 H913 0.930 . S
C921 C919 1.419 . S
C921 C922 1.362 . S
C922 H914 0.930 . S
C922 C921 1.362 . S
C922 C925 1.409 . S
C923 H915 0.930 . S
C923 C924 1.355 . S
C923 C925 1.415 . S
C924 C923 1.355 . S
C924 C926 1.419 . S
C925 C920 1.425 . S
C925 C922 1.409 . S
C925 C923 1.415 . S
C926 H916 0.930 . S
C926 C924 1.419 . S
C926 C927 1.362 . S
C927 H917 0.930 . S
C927 C920 1.409 . S
C927 C926 1.362 . S
H928 C934 0.930 . S
H929 C937 0.930 . S
H930 C938 0.930 . S
H931 C939 0.930 . S
H932 C942 0.930 . S
H933 C943 0.930 . S
C934 H928 0.930 . S
C934 C935 1.355 . S
C934 C936 1.415 . S
C935 C934 1.355 . S
C935 C937 1.419 . S
C936 C934 1.415 . S
C936 C941 1.425 . S
C936 C943 1.409 . S
C937 H929 0.930 . S
C937 C935 1.419 . S
C937 C938 1.362 . S
C938 H930 0.930 . S
C938 C937 1.362 . S
C938 C941 1.409 . S
C939 H931 0.930 . S
C939 C940 1.355 . S
C939 C941 1.415 . S
C940 C939 1.355 . S
C940 C942 1.419 . S
C941 C936 1.425 . S
C941 C938 1.409 . S
C941 C939 1.415 . S
C942 H932 0.930 . S
C942 C940 1.419 . S
C942 C943 1.362 . S
C943 H933 0.930 . S
C943 C936 1.409 . S
C943 C942 1.362 . S
H944 C950 0.930 . S
H945 C953 0.930 . S
H946 C954 0.930 . S
H947 C955 0.930 . S
H948 C958 0.930 . S
H949 C959 0.930 . S
C950 H944 0.930 . S
C950 C951 1.355 . S
C950 C952 1.415 . S
C951 C950 1.355 . S
C951 C953 1.419 . S
C952 C950 1.415 . S
C952 C957 1.425 . S
C952 C959 1.409 . S
C953 H945 0.930 . S
C953 C951 1.419 . S
C953 C954 1.362 . S
C954 H946 0.930 . S
C954 C953 1.362 . S
C954 C957 1.409 . S
C955 H947 0.930 . S
C955 C956 1.355 1_554 S
C955 C957 1.415 . S
C956 C955 1.355 1_556 S
C956 C958 1.419 . S
C957 C952 1.425 . S
C957 C954 1.409 . S
C957 C955 1.415 . S
C958 H948 0.930 . S
C958 C956 1.419 . S
C958 C959 1.362 1_556 S
C959 H949 0.930 . S
C959 C952 1.409 . S
C959 C958 1.362 1_554 S
H960 C966 0.930 . S
H961 C969 0.930 1_556 S
H962 C970 0.930 1_556 S
H963 C971 0.930 . S
H964 C974 0.930 . S
H965 C975 0.930 . S
C966 H960 0.930 . S
C966 C967 1.355 . S
C966 C968 1.415 . S
C967 C966 1.355 . S
C967 C969 1.419 . S
C968 C966 1.415 . S
C968 C973 1.425 . S
C968 C975 1.409 . S
C969 H961 0.930 1_554 S
C969 C967 1.419 . S
C969 C970 1.362 . S
C970 H962 0.930 1_554 S
C970 C969 1.362 . S
C970 C973 1.409 . S
C971 H963 0.930 . S
C971 C972 1.355 . S
C971 C973 1.415 . S
C972 C971 1.355 . S
C972 C974 1.419 . S
C973 C968 1.425 . S
C973 C970 1.409 . S
C973 C971 1.415 . S
C974 H964 0.930 . S
C974 C972 1.419 . S
C974 C975 1.362 . S
C975 H965 0.930 . S
C975 C968 1.409 . S
C975 C974 1.362 . S
H976 C982 0.930 . S
H977 C985 0.930 . S
H978 C986 0.930 . S
H979 C987 0.930 . S
H980 C990 0.930 . S
H981 C991 0.930 . S
C982 H976 0.930 . S
C982 C983 1.355 . S
C982 C984 1.415 . S
C983 C982 1.355 . S
C983 C985 1.419 . S
C984 C982 1.415 . S
C984 C989 1.425 1_455 S
C984 C991 1.409 1_455 S
C985 H977 0.930 . S
C985 C983 1.419 . S
C985 C986 1.362 . S
C986 H978 0.930 . S
C986 C985 1.362 . S
C986 C989 1.409 1_455 S
C987 H979 0.930 . S
C987 C988 1.355 . S
C987 C989 1.415 . S
C988 C987 1.355 . S
C988 C990 1.419 . S
C989 C984 1.425 1_655 S
C989 C986 1.409 1_655 S
C989 C987 1.415 . S
C990 H980 0.930 . S
C990 C988 1.419 . S
C990 C991 1.362 . S
C991 H981 0.930 . S
C991 C984 1.409 1_655 S
C991 C990 1.362 . S
H992 C998 0.930 . S
H993 C1001 0.930 . S
H994 C1002 0.930 . S
H995 C1003 0.930 . S
H996 C1006 0.930 . S
H997 C1007 0.930 . S
C998 H992 0.930 . S
C998 C999 1.355 . S
C998 C1000 1.415 . S
C999 C998 1.355 . S
C999 C1001 1.419 . S
C1000 C998 1.415 . S
C1000 C1005 1.425 . S
C1000 C1007 1.409 . S
C1001 H993 0.930 . S
C1001 C999 1.419 . S
C1001 C1002 1.362 . S
C1002 H994 0.930 . S
C1002 C1001 1.362 . S
C1002 C1005 1.409 . S
C1003 H995 0.930 . S
C1003 C1004 1.355 . S
C1003 C1005 1.415 . S
C1004 C1003 1.355 . S
C1004 C1006 1.419 . S
C1005 C1000 1.425 . S
C1005 C1002 1.409 . S
C1005 C1003 1.415 . S
C1006 H996 0.930 . S
C1006 C1004 1.419 . S
C1006 C1007 1.362 . S
C1007 H997 0.930 . S
C1007 C1000 1.409 . S
C1007 C1006 1.362 . S
H1008 C1014 0.930 . S
H1009 C1017 0.930 . S
H1010 C1018 0.930 . S
H1011 C1019 0.930 . S
H1012 C1022 0.930 . S
H1013 C1023 0.930 . S
C1014 H1008 0.930 . S
C1014 C1015 1.355 . S
C1014 C1016 1.415 . S
C1015 C1014 1.355 . S
C1015 C1017 1.419 . S
C1016 C1014 1.415 . S
C1016 C1021 1.425 . S
C1016 C1023 1.409 . S
C1017 H1009 0.930 . S
C1017 C1015 1.419 . S
C1017 C1018 1.362 . S
C1018 H1010 0.930 . S
C1018 C1017 1.362 . S
C1018 C1021 1.409 . S
C1019 H1011 0.930 . S
C1019 C1020 1.355 . S
C1019 C1021 1.415 . S
C1020 C1019 1.355 . S
C1020 C1022 1.419 . S
C1021 C1016 1.425 . S
C1021 C1018 1.409 . S
C1021 C1019 1.415 . S
C1022 H1012 0.930 . S
C1022 C1020 1.419 . S
C1022 C1023 1.362 . S
C1023 H1013 0.930 . S
C1023 C1016 1.409 . S
C1023 C1022 1.362 . S
H1024 C1030 0.930 . S
H1025 C1033 0.930 . S
H1026 C1034 0.930 . S
H1027 C1035 0.930 . S
H1028 C1038 0.930 . S
H1029 C1039 0.930 . S
C1030 H1024 0.930 . S
C1030 C1031 1.355 . S
C1030 C1032 1.415 . S
C1031 C1030 1.355 . S
C1031 C1033 1.419 . S
C1032 C1030 1.415 . S
C1032 C1037 1.425 . S
C1032 C1039 1.409 . S
C1033 H1025 0.930 . S
C1033 C1031 1.419 . S
C1033 C1034 1.362 . S
C1034 H1026 0.930 . S
C1034 C1033 1.362 . S
C1034 C1037 1.409 . S
C1035 H1027 0.930 . S
C1035 C1036 1.355 . S
C1035 C1037 1.415 . S
C1036 C1035 1.355 . S
C1036 C1038 1.419 . S
C1037 C1032 1.425 . S
C1037 C1034 1.409 . S
C1037 C1035 1.415 . S
C1038 H1028 0.930 . S
C1038 C1036 1.419 . S
C1038 C1039 1.362 . S
C1039 H1029 0.930 . S
C1039 C1032 1.409 . S
C1039 C1038 1.362 . S
H1040 C1046 0.930 . S
H1041 C1049 0.930 . S
H1042 C1050 0.930 . S
H1043 C1051 0.930 . S
H1044 C1054 0.930 . S
H1045 C1055 0.930 . S
C1046 H1040 0.930 . S
C1046 C1047 1.355 . S
C1046 C1048 1.415 . S
C1047 C1046 1.355 . S
C1047 C1049 1.419 . S
C1048 C1046 1.415 . S
C1048 C1053 1.425 . S
C1048 C1055 1.409 . S
C1049 H1041 0.930 . S
C1049 C1047 1.419 . S
C1049 C1050 1.362 . S
C1050 H1042 0.930 . S
C1050 C1049 1.362 . S
C1050 C1053 1.409 . S
C1051 H1043 0.930 . S
C1051 C1052 1.355 . S
C1051 C1053 1.415 . S
C1052 C1051 1.355 . S
C1052 C1054 1.419 . S
C1053 C1048 1.425 . S
C1053 C1050 1.409 . S
C1053 C1051 1.415 . S
C1054 H1044 0.930 . S
C1054 C1052 1.419 . S
C1054 C1055 1.362 . S
C1055 H1045 0.930 . S
C1055 C1048 1.409 . S
C1055 C1054 1.362 . S
H1056 C1062 0.930 . S
H1057 C1065 0.930 . S
H1058 C1066 0.930 . S
H1059 C1067 0.930 . S
H1060 C1070 0.930 . S
H1061 C1071 0.930 . S
C1062 H1056 0.930 . S
C1062 C1063 1.355 . S
C1062 C1064 1.415 . S
C1063 C1062 1.355 . S
C1063 C1065 1.419 . S
C1064 C1062 1.415 . S
C1064 C1069 1.425 . S
C1064 C1071 1.409 . S
C1065 H1057 0.930 . S
C1065 C1063 1.419 . S
C1065 C1066 1.362 . S
C1066 H1058 0.930 . S
C1066 C1065 1.362 . S
C1066 C1069 1.409 . S
C1067 H1059 0.930 . S
C1067 C1068 1.355 . S
C1067 C1069 1.415 . S
C1068 C1067 1.355 . S
C1068 C1070 1.419 . S
C1069 C1064 1.425 . S
C1069 C1066 1.409 . S
C1069 C1067 1.415 . S
C1070 H1060 0.930 . S
C1070 C1068 1.419 . S
C1070 C1071 1.362 . S
C1071 H1061 0.930 . S
C1071 C1064 1.409 . S
C1071 C1070 1.362 . S
H1072 C1078 0.930 . S
H1073 C1081 0.930 . S
H1074 C1082 0.930 . S
H1075 C1083 0.930 . S
H1076 C1086 0.930 . S
H1077 C1087 0.930 . S
C1078 H1072 0.930 . S
C1078 C1079 1.355 . S
C1078 C1080 1.415 . S
C1079 C1078 1.355 . S
C1079 C1081 1.419 . S
C1080 C1078 1.415 . S
C1080 C1085 1.425 1_655 S
C1080 C1087 1.409 1_655 S
C1081 H1073 0.930 . S
C1081 C1079 1.419 . S
C1081 C1082 1.362 . S
C1082 H1074 0.930 . S
C1082 C1081 1.362 . S
C1082 C1085 1.409 1_655 S
C1083 H1075 0.930 . S
C1083 C1084 1.355 . S
C1083 C1085 1.415 . S
C1084 C1083 1.355 . S
C1084 C1086 1.419 . S
C1085 C1080 1.425 1_455 S
C1085 C1082 1.409 1_455 S
C1085 C1083 1.415 . S
C1086 H1076 0.930 . S
C1086 C1084 1.419 . S
C1086 C1087 1.362 . S
C1087 H1077 0.930 . S
C1087 C1080 1.409 1_455 S
C1087 C1086 1.362 . S
H1088 C1094 0.930 . S
H1089 C1097 0.930 . S
H1090 C1098 0.930 . S
H1091 C1099 0.930 . S
H1092 C1102 0.930 . S
H1093 C1103 0.930 . S
C1094 H1088 0.930 . S
C1094 C1095 1.355 . S
C1094 C1096 1.415 . S
C1095 C1094 1.355 . S
C1095 C1097 1.419 . S
C1096 C1094 1.415 . S
C1096 C1101 1.425 . S
C1096 C1103 1.409 . S
C1097 H1089 0.930 . S
C1097 C1095 1.419 . S
C1097 C1098 1.362 . S
C1098 H1090 0.930 . S
C1098 C1097 1.362 . S
C1098 C1101 1.409 . S
C1099 H1091 0.930 . S
C1099 C1100 1.355 . S
C1099 C1101 1.415 . S
C1100 C1099 1.355 . S
C1100 C1102 1.419 . S
C1101 C1096 1.425 . S
C1101 C1098 1.409 . S
C1101 C1099 1.415 . S
C1102 H1092 0.930 . S
C1102 C1100 1.419 . S
C1102 C1103 1.362 . S
C1103 H1093 0.930 . S
C1103 C1096 1.409 . S
C1103 C1102 1.362 . S
H1104 C1110 0.930 . S
H1105 C1113 0.930 . S
H1106 C1114 0.930 . S
H1107 C1115 0.930 . S
H1108 C1118 0.930 . S
H1109 C1119 0.930 . S
C1110 H1104 0.930 . S
C1110 C1111 1.355 . S
C1110 C1112 1.415 . S
C1111 C1110 1.355 . S
C1111 C1113 1.419 . S
C1112 C1110 1.415 . S
C1112 C1117 1.425 . S
C1112 C1119 1.409 . S
C1113 H1105 0.930 . S
C1113 C1111 1.419 . S
C1113 C1114 1.362 . S
C1114 H1106 0.930 . S
C1114 C1113 1.362 . S
C1114 C1117 1.409 . S
C1115 H1107 0.930 . S
C1115 C1116 1.355 . S
C1115 C1117 1.415 . S
C1116 C1115 1.355 . S
C1116 C1118 1.419 . S
C1117 C1112 1.425 . S
C1117 C1114 1.409 . S
C1117 C1115 1.415 . S
C1118 H1108 0.930 . S
C1118 C1116 1.419 . S
C1118 C1119 1.362 . S
C1119 H1109 0.930 . S
C1119 C1112 1.409 . S
C1119 C1118 1.362 . S
H1120 C1126 0.930 . S
H1121 C1129 0.930 . S
H1122 C1130 0.930 . S
H1123 C1131 0.930 . S
H1124 C1134 0.930 . S
H1125 C1135 0.930 . S
C1126 H1120 0.930 . S
C1126 C1127 1.355 . S
C1126 C1128 1.415 . S
C1127 C1126 1.355 . S
C1127 C1129 1.419 . S
C1128 C1126 1.415 . S
C1128 C1133 1.425 . S
C1128 C1135 1.409 . S
C1129 H1121 0.930 . S
C1129 C1127 1.419 . S
C1129 C1130 1.362 . S
C1130 H1122 0.930 . S
C1130 C1129 1.362 . S
C1130 C1133 1.409 . S
C1131 H1123 0.930 . S
C1131 C1132 1.355 . S
C1131 C1133 1.415 . S
C1132 C1131 1.355 . S
C1132 C1134 1.419 . S
C1133 C1128 1.425 . S
C1133 C1130 1.409 . S
C1133 C1131 1.415 . S
C1134 H1124 0.930 . S
C1134 C1132 1.419 . S
C1134 C1135 1.362 . S
C1135 H1125 0.930 . S
C1135 C1128 1.409 . S
C1135 C1134 1.362 . S
H1136 C1142 0.930 . S
H1137 C1145 0.930 . S
H1138 C1146 0.930 . S
H1139 C1147 0.930 . S
H1140 C1150 0.930 . S
H1141 C1151 0.930 . S
C1142 H1136 0.930 . S
C1142 C1143 1.355 . S
C1142 C1144 1.415 . S
C1143 C1142 1.355 . S
C1143 C1145 1.419 . S
C1144 C1142 1.415 . S
C1144 C1149 1.425 . S
C1144 C1151 1.409 . S
C1145 H1137 0.930 . S
C1145 C1143 1.419 . S
C1145 C1146 1.362 . S
C1146 H1138 0.930 . S
C1146 C1145 1.362 . S
C1146 C1149 1.409 . S
C1147 H1139 0.930 . S
C1147 C1148 1.355 . S
C1147 C1149 1.415 . S
C1148 C1147 1.355 . S
C1148 C1150 1.419 . S
C1149 C1144 1.425 . S
C1149 C1146 1.409 . S
C1149 C1147 1.415 . S
C1150 H1140 0.930 . S
C1150 C1148 1.419 . S
C1150 C1151 1.362 . S
C1151 H1141 0.930 . S
C1151 C1144 1.409 . S
C1151 C1150 1.362 . S
H1152 C1158 0.930 . S
H1153 C1161 0.930 . S
H1154 C1162 0.930 . S
H1155 C1163 0.930 . S
H1156 C1166 0.930 . S
H1157 C1167 0.930 . S
C1158 H1152 0.930 . S
C1158 C1159 1.355 . S
C1158 C1160 1.415 . S
C1159 C1158 1.355 . S
C1159 C1161 1.419 . S
C1160 C1158 1.415 . S
C1160 C1165 1.425 . S
C1160 C1167 1.409 . S
C1161 H1153 0.930 . S
C1161 C1159 1.419 . S
C1161 C1162 1.362 . S
C1162 H1154 0.930 . S
C1162 C1161 1.362 . S
C1162 C1165 1.409 . S
C1163 H1155 0.930 . S
C1163 C1164 1.355 . S
C1163 C1165 1.415 . S
C1164 C1163 1.355 . S
C1164 C1166 1.419 . S
C1165 C1160 1.425 . S
C1165 C1162 1.409 . S
C1165 C1163 1.415 . S
C1166 H1156 0.930 . S
C1166 C1164 1.419 . S
C1166 C1167 1.362 . S
C1167 H1157 0.930 . S
C1167 C1160 1.409 . S
C1167 C1166 1.362 . S
H1168 C1174 0.930 . S
H1169 C1177 0.930 . S
H1170 C1178 0.930 . S
H1171 C1179 0.930 . S
H1172 C1182 0.930 . S
H1173 C1183 0.930 . S
C1174 H1168 0.930 . S
C1174 C1175 1.355 . S
C1174 C1176 1.415 . S
C1175 C1174 1.355 . S
C1175 C1177 1.419 . S
C1176 C1174 1.415 . S
C1176 C1181 1.425 1_655 S
C1176 C1183 1.409 1_655 S
C1177 H1169 0.930 . S
C1177 C1175 1.419 . S
C1177 C1178 1.362 . S
C1178 H1170 0.930 . S
C1178 C1177 1.362 . S
C1178 C1181 1.409 1_655 S
C1179 H1171 0.930 . S
C1179 C1180 1.355 . S
C1179 C1181 1.415 . S
C1180 C1179 1.355 . S
C1180 C1182 1.419 . S
C1181 C1176 1.425 1_455 S
C1181 C1178 1.409 1_455 S
C1181 C1179 1.415 . S
C1182 H1172 0.930 . S
C1182 C1180 1.419 . S
C1182 C1183 1.362 . S
C1183 H1173 0.930 . S
C1183 C1176 1.409 1_455 S
C1183 C1182 1.362 . S
H1184 C1190 0.930 . S
H1185 C1193 0.930 . S
H1186 C1194 0.930 . S
H1187 C1195 0.930 . S
H1188 C1198 0.930 . S
H1189 C1199 0.930 . S
C1190 H1184 0.930 . S
C1190 C1191 1.355 . S
C1190 C1192 1.415 . S
C1191 C1190 1.355 . S
C1191 C1193 1.419 . S
C1192 C1190 1.415 . S
C1192 C1197 1.425 1_655 S
C1192 C1199 1.409 1_655 S
C1193 H1185 0.930 . S
C1193 C1191 1.419 . S
C1193 C1194 1.362 . S
C1194 H1186 0.930 . S
C1194 C1193 1.362 . S
C1194 C1197 1.409 1_655 S
C1195 H1187 0.930 . S
C1195 C1196 1.355 . S
C1195 C1197 1.415 . S
C1196 C1195 1.355 . S
C1196 C1198 1.419 . S
C1197 C1192 1.425 1_455 S
C1197 C1194 1.409 1_455 S
C1197 C1195 1.415 . S
C1198 H1188 0.930 . S
C1198 C1196 1.419 . S
C1198 C1199 1.362 . S
C1199 H1189 0.930 . S
C1199 C1192 1.409 1_455 S
C1199 C1198 1.362 . S
H1200 C1206 0.930 . S
H1201 C1209 0.930 . S
H1202 C1210 0.930 . S
H1203 C1211 0.930 . S
H1204 C1214 0.930 . S
H1205 C1215 0.930 . S
C1206 H1200 0.930 . S
C1206 C1207 1.355 . S
C1206 C1208 1.415 . S
C1207 C1206 1.355 . S
C1207 C1209 1.419 . S
C1208 C1206 1.415 . S
C1208 C1213 1.425 . S
C1208 C1215 1.409 . S
C1209 H1201 0.930 . S
C1209 C1207 1.419 . S
C1209 C1210 1.362 . S
C1210 H1202 0.930 . S
C1210 C1209 1.362 . S
C1210 C1213 1.409 . S
C1211 H1203 0.930 . S
C1211 C1212 1.355 . S
C1211 C1213 1.415 . S
C1212 C1211 1.355 . S
C1212 C1214 1.419 . S
C1213 C1208 1.425 . S
C1213 C1210 1.409 . S
C1213 C1211 1.415 . S
C1214 H1204 0.930 . S
C1214 C1212 1.419 . S
C1214 C1215 1.362 . S
C1215 H1205 0.930 . S
C1215 C1208 1.409 . S
C1215 C1214 1.362 . S
H1216 C1222 0.930 . S
H1217 C1225 0.930 . S
H1218 C1226 0.930 . S
H1219 C1227 0.930 . S
H1220 C1230 0.930 . S
H1221 C1231 0.930 . S
C1222 H1216 0.930 . S
C1222 C1223 1.355 . S
C1222 C1224 1.415 . S
C1223 C1222 1.355 . S
C1223 C1225 1.419 . S
C1224 C1222 1.415 . S
C1224 C1229 1.425 . S
C1224 C1231 1.409 . S
C1225 H1217 0.930 . S
C1225 C1223 1.419 . S
C1225 C1226 1.362 . S
C1226 H1218 0.930 . S
C1226 C1225 1.362 . S
C1226 C1229 1.409 . S
C1227 H1219 0.930 . S
C1227 C1228 1.355 . S
C1227 C1229 1.415 . S
C1228 C1227 1.355 . S
C1228 C1230 1.419 . S
C1229 C1224 1.425 . S
C1229 C1226 1.409 . S
C1229 C1227 1.415 . S
C1230 H1220 0.930 . S
C1230 C1228 1.419 . S
C1230 C1231 1.362 . S
C1231 H1221 0.930 . S
C1231 C1224 1.409 . S
C1231 C1230 1.362 . S
H1232 C1238 0.930 . S
H1233 C1241 0.930 . S
H1234 C1242 0.930 . S
H1235 C1243 0.930 . S
H1236 C1246 0.930 . S
H1237 C1247 0.930 . S
C1238 H1232 0.930 . S
C1238 C1239 1.355 . S
C1238 C1240 1.405 1_565 S
C1239 C1238 1.355 . S
C1239 C1241 1.419 . S
C1240 C1238 1.405 1_545 S
C1240 C1245 1.423 1_545 S
C1240 C1247 1.420 . S
C1241 H1233 0.930 . S
C1241 C1239 1.419 . S
C1241 C1242 1.362 . S
C1242 H1234 0.930 . S
C1242 C1241 1.362 . S
C1242 C1245 1.425 . S
C1243 H1235 0.930 . S
C1243 C1244 1.355 . S
C1243 C1245 1.402 1_545 S
C1244 C1243 1.355 . S
C1244 C1246 1.419 . S
C1245 C1240 1.423 1_565 S
C1245 C1242 1.425 . S
C1245 C1243 1.402 1_565 S
C1246 H1236 0.930 . S
C1246 C1244 1.419 . S
C1246 C1247 1.362 . S
C1247 H1237 0.930 . S
C1247 C1240 1.420 . S
C1247 C1246 1.362 . S
H1248 C1254 0.930 . S
H1249 C1257 0.930 . S
H1250 C1258 0.930 . S
H1251 C1259 0.930 . S
H1252 C1262 0.930 . S
H1253 C1263 0.930 . S
C1254 H1248 0.930 . S
C1254 C1255 1.355 . S
C1254 C1256 1.415 . S
C1255 C1254 1.355 . S
C1255 C1257 1.419 . S
C1256 C1254 1.415 . S
C1256 C1261 1.425 . S
C1256 C1263 1.409 . S
C1257 H1249 0.930 . S
C1257 C1255 1.419 . S
C1257 C1258 1.362 . S
C1258 H1250 0.930 . S
C1258 C1257 1.362 . S
C1258 C1261 1.409 . S
C1259 H1251 0.930 . S
C1259 C1260 1.355 . S
C1259 C1261 1.415 . S
C1260 C1259 1.355 . S
C1260 C1262 1.419 . S
C1261 C1256 1.425 . S
C1261 C1258 1.409 . S
C1261 C1259 1.415 . S
C1262 H1252 0.930 . S
C1262 C1260 1.419 . S
C1262 C1263 1.362 . S
C1263 H1253 0.930 . S
C1263 C1256 1.409 . S
C1263 C1262 1.362 . S
H1264 C1270 0.960 1_556 S
H1265 C1273 0.930 . S
H1266 C1274 0.930 . S
H1267 C1275 0.955 . S
H1268 C1278 0.930 . S
H1269 C1279 0.930 . S
C1270 H1264 0.960 1_554 S
C1270 C1271 1.312 1_564 S
C1270 C1272 1.429 . S
C1271 C1270 1.312 1_546 S
C1271 C1273 1.419 1_556 S
C1272 C1270 1.429 . S
C1272 C1277 1.425 1_565 S
C1272 C1279 1.409 . S
C1273 H1265 0.930 . S
C1273 C1271 1.419 1_554 S
C1273 C1274 1.362 . S
C1274 H1266 0.930 . S
C1274 C1273 1.362 . S
C1274 C1277 1.409 . S
C1275 H1267 0.955 . S
C1275 C1276 1.320 1_545 S
C1275 C1277 1.426 . S
C1276 C1275 1.320 1_565 S
C1276 C1278 1.419 . S
C1277 C1272 1.425 1_545 S
C1277 C1274 1.409 . S
C1277 C1275 1.426 . S
C1278 H1268 0.930 . S
C1278 C1276 1.419 . S
C1278 C1279 1.362 . S
C1279 H1269 0.930 . S
C1279 C1272 1.409 . S
C1279 C1278 1.362 . S
H1280 C1286 0.930 . S
H1281 C1289 0.930 . S
H1282 C1290 0.930 . S
H1283 C1291 0.930 . S
H1284 C1294 0.930 . S
H1285 C1295 0.930 . S
C1286 H1280 0.930 . S
C1286 C1287 1.355 . S
C1286 C1288 1.415 . S
C1287 C1286 1.355 . S
C1287 C1289 1.419 . S
C1288 C1286 1.415 . S
C1288 C1293 1.425 . S
C1288 C1295 1.409 . S
C1289 H1281 0.930 . S
C1289 C1287 1.419 . S
C1289 C1290 1.362 . S
C1290 H1282 0.930 . S
C1290 C1289 1.362 . S
C1290 C1293 1.409 . S
C1291 H1283 0.930 . S
C1291 C1292 1.355 . S
C1291 C1293 1.415 . S
C1292 C1291 1.355 . S
C1292 C1294 1.419 . S
C1293 C1288 1.425 . S
C1293 C1290 1.409 . S
C1293 C1291 1.415 . S
C1294 H1284 0.930 . S
C1294 C1292 1.419 . S
C1294 C1295 1.362 . S
C1295 H1285 0.930 . S
C1295 C1288 1.409 . S
C1295 C1294 1.362 . S
H1296 C1302 0.930 . S
H1297 C1305 0.930 . S
H1298 C1306 0.922 1_565 S
H1299 C1307 0.930 . S
H1300 C1310 0.930 . S
H1301 C1311 0.919 1_545 S
C1302 H1296 0.930 . S
C1302 C1303 1.355 . S
C1302 C1304 1.415 . S
C1303 C1302 1.355 . S
C1303 C1305 1.419 . S
C1304 C1302 1.415 . S
C1304 C1309 1.425 1_545 S
C1304 C1311 1.402 1_545 S
C1305 H1297 0.930 . S
C1305 C1303 1.419 . S
C1305 C1306 1.378 . S
C1306 H1298 0.922 1_545 S
C1306 C1305 1.378 . S
C1306 C1309 1.403 1_545 S
C1307 H1299 0.930 . S
C1307 C1308 1.355 . S
C1307 C1309 1.415 . S
C1308 C1307 1.355 . S
C1308 C1310 1.419 . S
C1309 C1304 1.425 1_565 S
C1309 C1306 1.403 1_565 S
C1309 C1307 1.415 . S
C1310 H1300 0.930 . S
C1310 C1308 1.419 . S
C1310 C1311 1.382 . S
C1311 H1301 0.919 1_565 S
C1311 C1304 1.402 1_565 S
C1311 C1310 1.382 . S
H1312 C1318 0.930 . S
H1313 C1321 0.930 . S
H1314 C1322 0.930 . S
H1315 C1323 0.930 . S
H1316 C1326 0.930 . S
H1317 C1327 0.930 . S
C1318 H1312 0.930 . S
C1318 C1319 1.355 . S
C1318 C1320 1.415 . S
C1319 C1318 1.355 . S
C1319 C1321 1.419 . S
C1320 C1318 1.415 . S
C1320 C1325 1.425 . S
C1320 C1327 1.409 . S
C1321 H1313 0.930 . S
C1321 C1319 1.419 . S
C1321 C1322 1.362 . S
C1322 H1314 0.930 . S
C1322 C1321 1.362 . S
C1322 C1325 1.409 . S
C1323 H1315 0.930 . S
C1323 C1324 1.355 . S
C1323 C1325 1.415 . S
C1324 C1323 1.355 . S
C1324 C1326 1.419 . S
C1325 C1320 1.425 . S
C1325 C1322 1.409 . S
C1325 C1323 1.415 . S
C1326 H1316 0.930 . S
C1326 C1324 1.419 . S
C1326 C1327 1.362 . S
C1327 H1317 0.930 . S
C1327 C1320 1.409 . S
C1327 C1326 1.362 . S
H1328 C1334 0.930 . S
H1329 C1337 0.930 . S
H1330 C1338 0.930 . S
H1331 C1339 0.930 . S
H1332 C1342 0.930 . S
H1333 C1343 0.930 . S
C1334 H1328 0.930 . S
C1334 C1335 1.355 . S
C1334 C1336 1.415 . S
C1335 C1334 1.355 . S
C1335 C1337 1.419 1_565 S
C1336 C1334 1.415 . S
C1336 C1341 1.425 1_565 S
C1336 C1343 1.409 . S
C1337 H1329 0.930 . S
C1337 C1335 1.419 1_545 S
C1337 C1338 1.362 . S
C1338 H1330 0.930 . S
C1338 C1337 1.362 . S
C1338 C1341 1.409 . S
C1339 H1331 0.930 . S
C1339 C1340 1.355 1_554 S
C1339 C1341 1.415 . S
C1340 C1339 1.355 1_556 S
C1340 C1342 1.419 1_545 S
C1341 C1336 1.425 1_545 S
C1341 C1338 1.409 . S
C1341 C1339 1.415 . S
C1342 H1332 0.930 . S
C1342 C1340 1.419 1_565 S
C1342 C1343 1.362 1_556 S
C1343 H1333 0.930 . S
C1343 C1336 1.409 . S
C1343 C1342 1.362 1_554 S
H1344 C1350 0.930 . S
H1345 C1353 0.930 . S
H1346 C1354 0.930 . S
H1347 C1355 0.930 . S
H1348 C1358 0.930 . S
H1349 C1359 0.930 . S
C1350 H1344 0.930 . S
C1350 C1351 1.355 . S
C1350 C1352 1.415 . S
C1351 C1350 1.355 . S
C1351 C1353 1.419 . S
C1352 C1350 1.415 . S
C1352 C1357 1.425 . S
C1352 C1359 1.409 . S
C1353 H1345 0.930 . S
C1353 C1351 1.419 . S
C1353 C1354 1.362 . S
C1354 H1346 0.930 . S
C1354 C1353 1.362 . S
C1354 C1357 1.409 . S
C1355 H1347 0.930 . S
C1355 C1356 1.355 . S
C1355 C1357 1.415 . S
C1356 C1355 1.355 . S
C1356 C1358 1.419 . S
C1357 C1352 1.425 . S
C1357 C1354 1.409 . S
C1357 C1355 1.415 . S
C1358 H1348 0.930 . S
C1358 C1356 1.419 . S
C1358 C1359 1.362 . S
C1359 H1349 0.930 . S
C1359 C1352 1.409 . S
C1359 C1358 1.362 . S
H1360 C1366 0.930 . S
H1361 C1369 0.930 . S
H1362 C1370 0.930 . S
H1363 C1371 0.930 . S
H1364 C1374 0.930 . S
H1365 C1375 0.930 . S
C1366 H1360 0.930 . S
C1366 C1367 1.355 . S
C1366 C1368 1.415 . S
C1367 C1366 1.355 . S
C1367 C1369 1.419 . S
C1368 C1366 1.415 . S
C1368 C1373 1.425 . S
C1368 C1375 1.409 . S
C1369 H1361 0.930 . S
C1369 C1367 1.419 . S
C1369 C1370 1.362 . S
C1370 H1362 0.930 . S
C1370 C1369 1.362 . S
C1370 C1373 1.409 . S
C1371 H1363 0.930 . S
C1371 C1372 1.355 1_554 S
C1371 C1373 1.415 . S
C1372 C1371 1.355 1_556 S
C1372 C1374 1.419 . S
C1373 C1368 1.425 . S
C1373 C1370 1.409 . S
C1373 C1371 1.415 . S
C1374 H1364 0.930 . S
C1374 C1372 1.419 . S
C1374 C1375 1.362 1_556 S
C1375 H1365 0.930 . S
C1375 C1368 1.409 . S
C1375 C1374 1.362 1_554 S
H1376 C1382 0.930 . S
H1377 C1385 0.930 . S
H1378 C1386 0.930 . S
H1379 C1387 0.930 . S
H1380 C1390 0.930 . S
H1381 C1391 0.930 . S
C1382 H1376 0.930 . S
C1382 C1383 1.355 . S
C1382 C1384 1.415 . S
C1383 C1382 1.355 . S
C1383 C1385 1.419 . S
C1384 C1382 1.415 . S
C1384 C1389 1.425 . S
C1384 C1391 1.409 . S
C1385 H1377 0.930 . S
C1385 C1383 1.419 . S
C1385 C1386 1.362 . S
C1386 H1378 0.930 . S
C1386 C1385 1.362 . S
C1386 C1389 1.409 . S
C1387 H1379 0.930 . S
C1387 C1388 1.355 . S
C1387 C1389 1.415 . S
C1388 C1387 1.355 . S
C1388 C1390 1.419 . S
C1389 C1384 1.425 . S
C1389 C1386 1.409 . S
C1389 C1387 1.415 . S
C1390 H1380 0.930 . S
C1390 C1388 1.419 . S
C1390 C1391 1.362 . S
C1391 H1381 0.930 . S
C1391 C1384 1.409 . S
C1391 C1390 1.362 . S
H1392 C1398 0.930 . S
H1393 C1401 0.930 . S
H1394 C1402 0.930 . S
H1395 C1403 0.930 . S
H1396 C1406 0.930 . S
H1397 C1407 0.930 . S
C1398 H1392 0.930 . S
C1398 C1399 1.355 . S
C1398 C1400 1.415 . S
C1399 C1398 1.355 . S
C1399 C1401 1.419 . S
C1400 C1398 1.415 . S
C1400 C1405 1.425 . S
C1400 C1407 1.409 . S
C1401 H1393 0.930 . S
C1401 C1399 1.419 . S
C1401 C1402 1.362 . S
C1402 H1394 0.930 . S
C1402 C1401 1.362 . S
C1402 C1405 1.409 . S
C1403 H1395 0.930 . S
C1403 C1404 1.355 . S
C1403 C1405 1.415 . S
C1404 C1403 1.355 . S
C1404 C1406 1.419 . S
C1405 C1400 1.425 . S
C1405 C1402 1.409 . S
C1405 C1403 1.415 . S
C1406 H1396 0.930 . S
C1406 C1404 1.419 . S
C1406 C1407 1.362 . S
C1407 H1397 0.930 . S
C1407 C1400 1.409 . S
C1407 C1406 1.362 . S
H1408 C1414 0.930 . S
H1409 C1417 0.930 . S
H1410 C1418 0.930 . S
H1411 C1419 0.930 . S
H1412 C1422 0.930 . S
H1413 C1423 0.930 . S
C1414 H1408 0.930 . S
C1414 C1415 1.355 . S
C1414 C1416 1.415 . S
C1415 C1414 1.355 . S
C1415 C1417 1.419 . S
C1416 C1414 1.415 . S
C1416 C1421 1.425 . S
C1416 C1423 1.409 . S
C1417 H1409 0.930 . S
C1417 C1415 1.419 . S
C1417 C1418 1.362 . S
C1418 H1410 0.930 . S
C1418 C1417 1.362 . S
C1418 C1421 1.409 . S
C1419 H1411 0.930 . S
C1419 C1420 1.355 . S
C1419 C1421 1.415 . S
C1420 C1419 1.355 . S
C1420 C1422 1.419 . S
C1421 C1416 1.425 . S
C1421 C1418 1.409 . S
C1421 C1419 1.415 . S
C1422 H1412 0.930 . S
C1422 C1420 1.419 . S
C1422 C1423 1.362 . S
C1423 H1413 0.930 . S
C1423 C1416 1.409 . S
C1423 C1422 1.362 . S
H1424 C1430 0.930 . S
H1425 C1433 0.930 1_556 S
H1426 C1434 0.930 . S
H1427 C1435 0.930 . S
H1428 C1438 0.930 . S
H1429 C1439 0.930 . S
C1430 H1424 0.930 . S
C1430 C1431 1.355 1_554 S
C1430 C1432 1.415 . S
C1431 C1430 1.355 1_556 S
C1431 C1433 1.419 1_556 S
C1432 C1430 1.415 . S
C1432 C1437 1.425 . S
C1432 C1439 1.409 . S
C1433 H1425 0.930 1_554 S
C1433 C1431 1.419 1_554 S
C1433 C1434 1.362 . S
C1434 H1426 0.930 . S
C1434 C1433 1.362 . S
C1434 C1437 1.409 . S
C1435 H1427 0.930 . S
C1435 C1436 1.355 . S
C1435 C1437 1.415 . S
C1436 C1435 1.355 . S
C1436 C1438 1.419 . S
C1437 C1432 1.425 . S
C1437 C1434 1.409 . S
C1437 C1435 1.415 . S
C1438 H1428 0.930 . S
C1438 C1436 1.419 . S
C1438 C1439 1.362 . S
C1439 H1429 0.930 . S
C1439 C1432 1.409 . S
C1439 C1438 1.362 . S
H1440 C1446 0.930 . S
H1441 C1449 0.930 . S
H1442 C1450 0.930 . S
H1443 C1451 0.930 . S
H1444 C1454 0.930 . S
H1445 C1455 0.930 . S
C1446 H1440 0.930 . S
C1446 C1447 1.355 . S
C1446 C1448 1.415 . S
C1447 C1446 1.355 . S
C1447 C1449 1.419 . S
C1448 C1446 1.415 . S
C1448 C1453 1.425 . S
C1448 C1455 1.409 . S
C1449 H1441 0.930 . S
C1449 C1447 1.419 . S
C1449 C1450 1.362 . S
C1450 H1442 0.930 . S
C1450 C1449 1.362 . S
C1450 C1453 1.409 . S
C1451 H1443 0.930 . S
C1451 C1452 1.355 . S
C1451 C1453 1.415 . S
C1452 C1451 1.355 . S
C1452 C1454 1.419 . S
C1453 C1448 1.425 . S
C1453 C1450 1.409 . S
C1453 C1451 1.415 . S
C1454 H1444 0.930 . S
C1454 C1452 1.419 . S
C1454 C1455 1.362 . S
C1455 H1445 0.930 . S
C1455 C1448 1.409 . S
C1455 C1454 1.362 . S
H1456 C1462 0.930 . S
H1457 C1465 0.930 . S
H1458 C1466 0.930 . S
H1459 C1467 0.930 . S
H1460 C1470 0.930 . S
H1461 C1471 0.930 . S
C1462 H1456 0.930 . S
C1462 C1463 1.355 . S
C1462 C1464 1.415 . S
C1463 C1462 1.355 . S
C1463 C1465 1.419 . S
C1464 C1462 1.415 . S
C1464 C1469 1.425 . S
C1464 C1471 1.409 . S
C1465 H1457 0.930 . S
C1465 C1463 1.419 . S
C1465 C1466 1.362 . S
C1466 H1458 0.930 . S
C1466 C1465 1.362 . S
C1466 C1469 1.409 . S
C1467 H1459 0.930 . S
C1467 C1468 1.355 . S
C1467 C1469 1.415 . S
C1468 C1467 1.355 . S
C1468 C1470 1.419 . S
C1469 C1464 1.425 . S
C1469 C1466 1.409 . S
C1469 C1467 1.415 . S
C1470 H1460 0.930 . S
C1470 C1468 1.419 . S
C1470 C1471 1.362 . S
C1471 H1461 0.930 . S
C1471 C1464 1.409 . S
C1471 C1470 1.362 . S
C455 C106 1.549 . S
C460 C8 1.552 . S
C471 C22 1.597 . S
C476 C64 1.595 . S
C487 C78 1.564 . S
C492 C36 1.555 . S
C503 C50 1.564 . S
C508 C92 1.555 . S
C519 C120 1.590 . S
C524 C218 1.596 . S
C535 C134 1.565 . S
C540 C176 1.555 . S
C551 C148 1.549 . S
C556 C190 1.550 . S
C567 C162 1.556 . S
C572 C204 1.565 . S
C583 C232 1.571 . S
C588 C330 1.561 . S
C599 C246 1.597 . S
C604 C288 1.593 . S
C615 C302 1.585 . S
C620 C260 1.593 . S
C631 C316 1.581 . S
C636 C274 1.590 . S
C647 C344 1.589 . S
C652 C442 1.595 . S
C663 C400 1.593 . S
C668 C358 1.597 . S
C679 C414 1.582 . S
C684 C372 1.572 . S
C695 C386 1.566 . S
C700 C428 1.577 . S
C711 C7 0.742 . S
C716 C91 0.662 . S
C727 C21 0.668 . S
C732 C105 0.712 . S
C743 C63 0.704 . S
C748 C35 0.673 . S
C759 C49 0.677 . S
C764 C77 0.699 . S
C775 C119 0.671 . S
C780 C203 0.753 . S
C791 C133 0.753 . S
C796 C217 0.697 . S
C807 C175 0.753 . S
C812 C147 0.672 . S
C823 C189 0.720 . S
C828 C161 0.742 . S
C839 C231 0.663 . S
C844 C315 0.723 . S
C855 C329 0.746 . S
C860 C245 0.712 . S
C871 C287 0.751 . S
C876 C259 0.703 . S
C887 C273 0.702 . S
C892 C301 0.751 . S
C903 C343 0.750 . S
C908 C427 0.666 . S
C919 C357 0.745 . S
C924 C441 0.663 . S
C935 C399 0.662 . S
C940 C371 0.726 . S
C951 C413 0.688 . S
C956 C385 0.685 . S
C967 C9 1.513 . S
C972 C429 1.510 . S
C983 C23 1.523 . S
C988 C219 1.499 . S
C999 C37 1.526 . S
C1004 C401 1.497 . S
C1015 C51 1.533 . S
C1020 C191 1.489 . S
C1031 C65 1.489 . S
C1036 C373 1.533 . S
C1047 C79 1.489 . S
C1052 C163 1.533 . S
C1063 C93 1.491 . S
C1068 C345 1.531 . S
C1079 C135 1.523 . S
C1084 C107 1.500 . S
C1095 C317 1.532 . S
C1100 C121 1.491 . S
C1111 C149 1.518 . S
C1116 C289 1.504 . S
C1127 C261 1.495 . S
C1132 C177 1.527 . S
C1143 C233 1.513 . S
C1148 C205 1.510 . S
C1159 C247 1.498 . S
C1164 C443 1.525 . S
C1175 C275 1.527 . S
C1180 C415 1.496 . S
C1191 C303 1.489 . S
C1196 C387 1.533 . S
C1207 C359 1.527 . S
C1212 C331 1.496 . S
C1223 C3 1.597 . S
C1228 C87 1.588 . S
C1239 C17 1.604 . S
C1244 C101 1.582 . S
C1255 C59 1.587 1_556 S
C1260 C31 1.598 . S
C1271 C45 1.601 . S
C1276 C73 1.587 . S
C1287 C115 1.592 1_556 S
C1292 C199 1.596 . S
C1303 C129 1.605 . S
C1308 C213 1.582 . S
C1319 C171 1.589 . S
C1324 C143 1.599 . S
C1335 C157 1.597 . S
C1340 C185 1.588 . S
C1351 C311 1.597 1_556 S
C1356 C227 1.592 . S
C1367 C325 1.591 . S
C1372 C241 1.595 . S
C1383 C283 1.582 . S
C1388 C255 1.605 . S
C1399 C297 1.586 . S
C1404 C269 1.602 . S
C1415 C423 1.587 . S
C1420 C339 1.602 . S
C1431 C437 1.605 . S
C1436 C353 1.582 . S
C1447 C367 1.585 1_556 S
C1452 C395 1.603 . S
C1463 C409 1.589 . S
C1468 C381 1.600 . S
