# Generated by pormake.
# Topology ato, (4)-cn, num edge types: 1
# Building blocks:
#     Node 0, Type 0, BuildingBlock: NAHDIM_clean_sbu_0, # of connection points: 4
#     Node 1, Type 0, BuildingBlock: NAHDIM_clean_sbu_0, # of connection points: 4
#     Node 2, Type 0, BuildingBlock: NAHDIM_clean_sbu_0, # of connection points: 4
#     Node 3, Type 0, BuildingBlock: NAHDIM_clean_sbu_0, # of connection points: 4
#     Node 4, Type 0, BuildingBlock: NAHDIM_clean_sbu_0, # of connection points: 4
#     Node 5, Type 0, BuildingBlock: NAHDIM_clean_sbu_0, # of connection points: 4
#     Node 6, Type 0, BuildingBlock: NAHDIM_clean_sbu_0, # of connection points: 4
#     Node 7, Type 0, BuildingBlock: NAHDIM_clean_sbu_0, # of connection points: 4
#     Node 8, Type 0, BuildingBlock: NAHDIM_clean_sbu_0, # of connection points: 4
#     Node 9, Type 0, BuildingBlock: NAHDIM_clean_sbu_0, # of connection points: 4
#     Node 10, Type 0, BuildingBlock: NAHDIM_clean_sbu_0, # of connection points: 4
#     Node 11, Type 0, BuildingBlock: NAHDIM_clean_sbu_0, # of connection points: 4
#     Node 12, Type 0, BuildingBlock: NAHDIM_clean_sbu_0, # of connection points: 4
#     Node 13, Type 0, BuildingBlock: NAHDIM_clean_sbu_0, # of connection points: 4
#     Node 14, Type 0, BuildingBlock: NAHDIM_clean_sbu_0, # of connection points: 4
#     Node 15, Type 0, BuildingBlock: NAHDIM_clean_sbu_0, # of connection points: 4
#     Node 16, Type 0, BuildingBlock: NAHDIM_clean_sbu_0, # of connection points: 4
#     Node 17, Type 0, BuildingBlock: NAHDIM_clean_sbu_0, # of connection points: 4
#     Node 18, Type 0, BuildingBlock: NAHDIM_clean_sbu_0, # of connection points: 4
#     Node 19, Type 0, BuildingBlock: NAHDIM_clean_sbu_0, # of connection points: 4
#     Node 20, Type 0, BuildingBlock: NAHDIM_clean_sbu_0, # of connection points: 4
#     Node 21, Type 0, BuildingBlock: NAHDIM_clean_sbu_0, # of connection points: 4
#     Node 22, Type 0, BuildingBlock: NAHDIM_clean_sbu_0, # of connection points: 4
#     Node 23, Type 0, BuildingBlock: NAHDIM_clean_sbu_0, # of connection points: 4
#     Node 24, Type 0, BuildingBlock: NAHDIM_clean_sbu_0, # of connection points: 4
#     Node 25, Type 0, BuildingBlock: NAHDIM_clean_sbu_0, # of connection points: 4
#     Node 26, Type 0, BuildingBlock: NAHDIM_clean_sbu_0, # of connection points: 4
#     Node 27, Type 0, BuildingBlock: NAHDIM_clean_sbu_0, # of connection points: 4
#     Node 28, Type 0, BuildingBlock: NAHDIM_clean_sbu_0, # of connection points: 4
#     Node 29, Type 0, BuildingBlock: NAHDIM_clean_sbu_0, # of connection points: 4
#     Node 30, Type 0, BuildingBlock: NAHDIM_clean_sbu_0, # of connection points: 4
#     Node 31, Type 0, BuildingBlock: NAHDIM_clean_sbu_0, # of connection points: 4
#     Node 32, Type 0, BuildingBlock: NAHDIM_clean_sbu_0, # of connection points: 4
#     Node 33, Type 0, BuildingBlock: NAHDIM_clean_sbu_0, # of connection points: 4
#     Node 34, Type 0, BuildingBlock: NAHDIM_clean_sbu_0, # of connection points: 4
#     Node 35, Type 0, BuildingBlock: NAHDIM_clean_sbu_0, # of connection points: 4
#     Edge 36, Type (0, 0), BuildingBlock: TEMPAE_clean_linker_10, # of connection points: 2
#     Edge 37, Type (0, 0), BuildingBlock: TEMPAE_clean_linker_10, # of connection points: 2
#     Edge 38, Type (0, 0), BuildingBlock: TEMPAE_clean_linker_10, # of connection points: 2
#     Edge 39, Type (0, 0), BuildingBlock: TEMPAE_clean_linker_10, # of connection points: 2
#     Edge 40, Type (0, 0), BuildingBlock: TEMPAE_clean_linker_10, # of connection points: 2
#     Edge 41, Type (0, 0), BuildingBlock: TEMPAE_clean_linker_10, # of connection points: 2
#     Edge 42, Type (0, 0), BuildingBlock: TEMPAE_clean_linker_10, # of connection points: 2
#     Edge 43, Type (0, 0), BuildingBlock: TEMPAE_clean_linker_10, # of connection points: 2
#     Edge 44, Type (0, 0), BuildingBlock: TEMPAE_clean_linker_10, # of connection points: 2
#     Edge 45, Type (0, 0), BuildingBlock: TEMPAE_clean_linker_10, # of connection points: 2
#     Edge 46, Type (0, 0), BuildingBlock: TEMPAE_clean_linker_10, # of connection points: 2
#     Edge 47, Type (0, 0), BuildingBlock: TEMPAE_clean_linker_10, # of connection points: 2
#     Edge 48, Type (0, 0), BuildingBlock: TEMPAE_clean_linker_10, # of connection points: 2
#     Edge 49, Type (0, 0), BuildingBlock: TEMPAE_clean_linker_10, # of connection points: 2
#     Edge 50, Type (0, 0), BuildingBlock: TEMPAE_clean_linker_10, # of connection points: 2
#     Edge 51, Type (0, 0), BuildingBlock: TEMPAE_clean_linker_10, # of connection points: 2
#     Edge 52, Type (0, 0), BuildingBlock: TEMPAE_clean_linker_10, # of connection points: 2
#     Edge 53, Type (0, 0), BuildingBlock: TEMPAE_clean_linker_10, # of connection points: 2
#     Edge 54, Type (0, 0), BuildingBlock: TEMPAE_clean_linker_10, # of connection points: 2
#     Edge 55, Type (0, 0), BuildingBlock: TEMPAE_clean_linker_10, # of connection points: 2
#     Edge 56, Type (0, 0), BuildingBlock: TEMPAE_clean_linker_10, # of connection points: 2
#     Edge 57, Type (0, 0), BuildingBlock: TEMPAE_clean_linker_10, # of connection points: 2
#     Edge 58, Type (0, 0), BuildingBlock: TEMPAE_clean_linker_10, # of connection points: 2
#     Edge 59, Type (0, 0), BuildingBlock: TEMPAE_clean_linker_10, # of connection points: 2
#     Edge 60, Type (0, 0), BuildingBlock: TEMPAE_clean_linker_10, # of connection points: 2
#     Edge 61, Type (0, 0), BuildingBlock: TEMPAE_clean_linker_10, # of connection points: 2
#     Edge 62, Type (0, 0), BuildingBlock: TEMPAE_clean_linker_10, # of connection points: 2
#     Edge 63, Type (0, 0), BuildingBlock: TEMPAE_clean_linker_10, # of connection points: 2
#     Edge 64, Type (0, 0), BuildingBlock: TEMPAE_clean_linker_10, # of connection points: 2
#     Edge 65, Type (0, 0), BuildingBlock: TEMPAE_clean_linker_10, # of connection points: 2
#     Edge 66, Type (0, 0), BuildingBlock: TEMPAE_clean_linker_10, # of connection points: 2
#     Edge 67, Type (0, 0), BuildingBlock: TEMPAE_clean_linker_10, # of connection points: 2
#     Edge 68, Type (0, 0), BuildingBlock: TEMPAE_clean_linker_10, # of connection points: 2
#     Edge 69, Type (0, 0), BuildingBlock: TEMPAE_clean_linker_10, # of connection points: 2
#     Edge 70, Type (0, 0), BuildingBlock: TEMPAE_clean_linker_10, # of connection points: 2
#     Edge 71, Type (0, 0), BuildingBlock: TEMPAE_clean_linker_10, # of connection points: 2
#     Edge 72, Type (0, 0), BuildingBlock: TEMPAE_clean_linker_10, # of connection points: 2
#     Edge 73, Type (0, 0), BuildingBlock: TEMPAE_clean_linker_10, # of connection points: 2
#     Edge 74, Type (0, 0), BuildingBlock: TEMPAE_clean_linker_10, # of connection points: 2
#     Edge 75, Type (0, 0), BuildingBlock: TEMPAE_clean_linker_10, # of connection points: 2
#     Edge 76, Type (0, 0), BuildingBlock: TEMPAE_clean_linker_10, # of connection points: 2
#     Edge 77, Type (0, 0), BuildingBlock: TEMPAE_clean_linker_10, # of connection points: 2
#     Edge 78, Type (0, 0), BuildingBlock: TEMPAE_clean_linker_10, # of connection points: 2
#     Edge 79, Type (0, 0), BuildingBlock: TEMPAE_clean_linker_10, # of connection points: 2
#     Edge 80, Type (0, 0), BuildingBlock: TEMPAE_clean_linker_10, # of connection points: 2
#     Edge 81, Type (0, 0), BuildingBlock: TEMPAE_clean_linker_10, # of connection points: 2
#     Edge 82, Type (0, 0), BuildingBlock: TEMPAE_clean_linker_10, # of connection points: 2
#     Edge 83, Type (0, 0), BuildingBlock: TEMPAE_clean_linker_10, # of connection points: 2
#     Edge 84, Type (0, 0), BuildingBlock: TEMPAE_clean_linker_10, # of connection points: 2
#     Edge 85, Type (0, 0), BuildingBlock: TEMPAE_clean_linker_10, # of connection points: 2
#     Edge 86, Type (0, 0), BuildingBlock: TEMPAE_clean_linker_10, # of connection points: 2
#     Edge 87, Type (0, 0), BuildingBlock: TEMPAE_clean_linker_10, # of connection points: 2
#     Edge 88, Type (0, 0), BuildingBlock: TEMPAE_clean_linker_10, # of connection points: 2
#     Edge 89, Type (0, 0), BuildingBlock: TEMPAE_clean_linker_10, # of connection points: 2
#     Edge 90, Type (0, 0), BuildingBlock: TEMPAE_clean_linker_10, # of connection points: 2
#     Edge 91, Type (0, 0), BuildingBlock: TEMPAE_clean_linker_10, # of connection points: 2
#     Edge 92, Type (0, 0), BuildingBlock: TEMPAE_clean_linker_10, # of connection points: 2
#     Edge 93, Type (0, 0), BuildingBlock: TEMPAE_clean_linker_10, # of connection points: 2
#     Edge 94, Type (0, 0), BuildingBlock: TEMPAE_clean_linker_10, # of connection points: 2
#     Edge 95, Type (0, 0), BuildingBlock: TEMPAE_clean_linker_10, # of connection points: 2
#     Edge 96, Type (0, 0), BuildingBlock: TEMPAE_clean_linker_10, # of connection points: 2
#     Edge 97, Type (0, 0), BuildingBlock: TEMPAE_clean_linker_10, # of connection points: 2
#     Edge 98, Type (0, 0), BuildingBlock: TEMPAE_clean_linker_10, # of connection points: 2
#     Edge 99, Type (0, 0), BuildingBlock: TEMPAE_clean_linker_10, # of connection points: 2
#     Edge 100, Type (0, 0), BuildingBlock: TEMPAE_clean_linker_10, # of connection points: 2
#     Edge 101, Type (0, 0), BuildingBlock: TEMPAE_clean_linker_10, # of connection points: 2
#     Edge 102, Type (0, 0), BuildingBlock: TEMPAE_clean_linker_10, # of connection points: 2
#     Edge 103, Type (0, 0), BuildingBlock: TEMPAE_clean_linker_10, # of connection points: 2
#     Edge 104, Type (0, 0), BuildingBlock: TEMPAE_clean_linker_10, # of connection points: 2
#     Edge 105, Type (0, 0), BuildingBlock: TEMPAE_clean_linker_10, # of connection points: 2
#     Edge 106, Type (0, 0), BuildingBlock: TEMPAE_clean_linker_10, # of connection points: 2
#     Edge 107, Type (0, 0), BuildingBlock: TEMPAE_clean_linker_10, # of connection points: 2
# Relax obj value: 0.059
# Max RMSD: 0.064
# Mean RMSD: 0.064
data_MOF--net-ato--node1-NAHDIM_clean_sbu_0--edge1-TEMPAE_clean_linker_10
_symmetry_space_group_name_H-M    P1
_symmetry_Int_Tables_number       1
_symmetry_cell_setting            triclinic
loop_
_symmetry_equiv_pos_as_xyz
'x, y, z'
_cell_length_a     102.08692
_cell_length_b     102.08744
_cell_length_c     24.644242
_cell_angle_alpha  89.987606
_cell_angle_beta   89.996564
_cell_angle_gamma 120.00388
loop_
_atom_site_label
_atom_site_type_symbol
_atom_site_fract_x
_atom_site_fract_y
_atom_site_fract_z
_atom_type_partial_charge
C0 C 0.23241 0.02667 0.28146 0.0
O1 O 0.22245 0.02476 0.24397 0.0
O2 O 0.24537 0.06348 0.20676 0.0
Zn3 Zn 0.25179 0.04778 0.20333 0.0
O4 O 0.24154 0.03328 0.14195 0.0
C5 C 0.28361 0.06804 0.22286 0.0
O6 O 0.27861 0.07136 0.26691 0.0
O7 O 0.24627 0.03625 0.2733 0.0
C8 C 0.24042 0.03776 0.09501 0.0
O9 O 0.24564 0.05225 0.08672 0.0
C10 C 0.25287 0.07601 0.18199 0.0
O11 O 0.26464 0.07843 0.15273 0.0
O12 O 0.27419 0.05801 0.1908 0.0
C13 C 0.97127 0.20142 0.34162 0.0
O14 O 0.972 0.1917 0.30859 0.0
O15 O 0.93257 0.17476 0.28123 0.0
Zn16 Zn 0.9481 0.19647 0.26808 0.0
O17 O 0.96132 0.19811 0.20555 0.0
C18 C 0.92864 0.20388 0.21026 0.0
O19 O 0.92696 0.19239 0.18091 0.0
O20 O 0.96136 0.20524 0.33322 0.0
C21 C 0.97017 0.21111 0.18602 0.0
O22 O 0.96996 0.22292 0.20613 0.0
C23 C 0.93411 0.16382 0.26464 0.0
O24 O 0.94653 0.16667 0.23893 0.0
O25 O 0.93743 0.20796 0.25103 0.0
C26 C 0.7993 0.77129 0.33059 0.0
O27 O 0.80769 0.78127 0.29364 0.0
O28 O 0.82255 0.7604 0.2513 0.0
Zn29 Zn 0.80009 0.75173 0.25142 0.0
O30 O 0.79396 0.76058 0.19027 0.0
C31 C 0.79495 0.72292 0.21323 0.0
O32 O 0.80724 0.73156 0.18515 0.0
O33 O 0.79441 0.75736 0.32153 0.0
C34 C 0.7842 0.75243 0.15495 0.0
O35 O 0.77778 0.73765 0.15797 0.0
C36 C 0.83072 0.7661 0.20942 0.0
O37 O 0.82437 0.76658 0.16367 0.0
O38 O 0.78976 0.72905 0.24499 0.0
C39 C 0.0426 0.24173 0.65948 0.0
O40 O 0.05659 0.25295 0.65507 0.0
O41 O 0.06764 0.23572 0.75918 0.0
Zn42 Zn 0.05096 0.24033 0.7708 0.0
O43 O 0.03769 0.22876 0.83295 0.0
C44 C 0.07322 0.27227 0.77504 0.0
O45 O 0.08124 0.26829 0.74477 0.0
O46 O 0.03801 0.23499 0.70467 0.0
C47 C 0.04281 0.23115 0.88106 0.0
O48 O 0.05732 0.24041 0.88906 0.0
C49 C 0.06736 0.22363 0.7734 0.0
O50 O 0.05528 0.21288 0.79759 0.0
O51 O 0.05994 0.26233 0.78918 0.0
C52 C 0.77014 0.8031 0.67579 0.0
O53 O 0.7795 0.80884 0.71697 0.0
O54 O 0.75764 0.82914 0.74589 0.0
Zn55 Zn 0.75033 0.80687 0.748 0.0
O56 O 0.7589 0.80151 0.81203 0.0
C57 C 0.71918 0.80051 0.75836 0.0
O58 O 0.72536 0.81529 0.75961 0.0
O59 O 0.75691 0.80121 0.67987 0.0
C60 C 0.75156 0.79718 0.85628 0.0
O61 O 0.73854 0.79679 0.86038 0.0
C62 C 0.75931 0.8369 0.7883 0.0
O63 O 0.75649 0.83028 0.83598 0.0
O64 O 0.72758 0.79471 0.75251 0.0
C65 C 0.19781 0.96608 0.62766 0.0
O66 O 0.19131 0.96981 0.66591 0.0
O67 O 0.16971 0.92819 0.69831 0.0
Zn68 Zn 0.19198 0.94289 0.7039 0.0
O69 O 0.19636 0.95728 0.76555 0.0
C70 C 0.19889 0.923 0.7607 0.0
O71 O 0.18808 0.92226 0.79177 0.0
O72 O 0.19939 0.95461 0.63461 0.0
C73 C 0.21003 0.96572 0.77978 0.0
O74 O 0.22072 0.96478 0.75345 0.0
C75 C 0.16023 0.92721 0.73382 0.0
O76 O 0.16498 0.93644 0.77557 0.0
O77 O 0.20271 0.93129 0.71858 0.0
C78 C 0.7585 0.97112 0.66788 0.0
O79 O 0.76732 0.97293 0.7094 0.0
O80 O 0.74421 0.93106 0.72883 0.0
Zn81 Zn 0.73773 0.94662 0.73347 0.0
O82 O 0.74637 0.95929 0.8001 0.0
C83 C 0.70825 0.92312 0.76297 0.0
O84 O 0.71623 0.91722 0.78147 0.0
O85 O 0.74493 0.96022 0.66838 0.0
C86 C 0.74717 0.95383 0.84546 0.0
O87 O 0.74223 0.93926 0.84949 0.0
C88 C 0.75711 0.93313 0.74246 0.0
O89 O 0.76765 0.9466 0.7585 0.0
O90 O 0.71503 0.9359 0.73933 0.0
C91 C 0.0233 0.79251 0.6763 0.0
O92 O 0.01905 0.79671 0.72018 0.0
O93 O 0.06383 0.81799 0.74603 0.0
Zn94 Zn 0.04743 0.79626 0.74611 0.0
O95 O 0.03404 0.79168 0.81113 0.0
C96 C 0.06815 0.78767 0.78446 0.0
O97 O 0.07241 0.79999 0.81319 0.0
O98 O 0.03519 0.79147 0.67781 0.0
C99 C 0.03835 0.79956 0.85419 0.0
O100 O 0.05198 0.81148 0.85627 0.0
C101 C 0.06224 0.82921 0.73396 0.0
O102 O 0.04886 0.82693 0.71968 0.0
O103 O 0.05727 0.7835 0.75115 0.0
C104 C 0.20642 0.22865 0.70549 0.0
O105 O 0.20298 0.22046 0.74988 0.0
O106 O 0.17835 0.24031 0.77718 0.0
Zn107 Zn 0.2007 0.24804 0.77395 0.0
O108 O 0.20712 0.24102 0.83946 0.0
C109 C 0.2066 0.27756 0.80393 0.0
O110 O 0.19404 0.26952 0.83149 0.0
O111 O 0.20614 0.24096 0.70616 0.0
C112 C 0.20018 0.2386 0.88439 0.0
O113 O 0.18837 0.24047 0.88772 0.0
C114 C 0.1684 0.23033 0.74634 0.0
O115 O 0.17252 0.22413 0.70828 0.0
O116 O 0.21171 0.27077 0.7752 0.0
C117 C 0.96424 0.76854 0.32732 0.0
O118 O 0.96768 0.77905 0.29036 0.0
O119 O 0.92735 0.75477 0.24165 0.0
Zn120 Zn 0.94398 0.74988 0.24421 0.0
O121 O 0.95907 0.7612 0.1859 0.0
C122 C 0.92808 0.72283 0.18444 0.0
O123 O 0.9281 0.73254 0.14938 0.0
O124 O 0.95414 0.75501 0.31682 0.0
C125 C 0.96997 0.75874 0.17922 0.0
O126 O 0.97107 0.74904 0.21128 0.0
C127 C 0.9291 0.76771 0.23084 0.0
O128 O 0.94276 0.77916 0.22224 0.0
O129 O 0.93464 0.72768 0.22985 0.0
C130 C 0.23546 0.19708 0.35911 0.0
O131 O 0.22501 0.18787 0.32496 0.0
O132 O 0.24918 0.17602 0.27161 0.0
Zn133 Zn 0.25383 0.19757 0.27271 0.0
O134 O 0.24161 0.20097 0.21675 0.0
C135 C 0.27929 0.20922 0.20509 0.0
O136 O 0.2686 0.19973 0.17225 0.0
O137 O 0.24929 0.20284 0.34589 0.0
C138 C 0.24437 0.21438 0.20819 0.0
O139 O 0.25483 0.22546 0.23727 0.0
C140 C 0.24014 0.16629 0.23784 0.0
O141 O 0.23281 0.17011 0.20341 0.0
O142 O 0.27576 0.21062 0.25334 0.0
C143 C 0.79678 0.04088 0.34483 0.0
O144 O 0.79684 0.05378 0.34364 0.0
O145 O 0.82824 0.06348 0.23079 0.0
Zn146 Zn 0.80617 0.04807 0.23301 0.0
O147 O 0.80059 0.03338 0.17193 0.0
C148 C 0.79633 0.06631 0.18067 0.0
O149 O 0.80574 0.06651 0.14386 0.0
O150 O 0.80055 0.03643 0.3026 0.0
C151 C 0.78655 0.02416 0.166 0.0
O152 O 0.77694 0.02482 0.19979 0.0
C153 C 0.83794 0.06413 0.26456 0.0
O154 O 0.83368 0.05385 0.30289 0.0
O155 O 0.79447 0.05894 0.22425 0.0
C156 C 0.8965 0.36219 0.67667 0.0
O157 O 0.88655 0.35909 0.63785 0.0
O158 O 0.91166 0.40006 0.59576 0.0
Zn159 Zn 0.91623 0.38318 0.5973 0.0
O160 O 0.90517 0.36877 0.5369 0.0
C161 C 0.94411 0.40131 0.54509 0.0
O162 O 0.93508 0.40388 0.51458 0.0
O163 O 0.91017 0.37233 0.66872 0.0
C164 C 0.9074 0.35777 0.52854 0.0
O165 O 0.91684 0.35611 0.5601 0.0
C166 C 0.89875 0.39843 0.58516 0.0
O167 O 0.88723 0.38481 0.57653 0.0
O168 O 0.93853 0.39227 0.58495 0.0
C169 C 0.63406 0.5312 0.69507 0.0
O170 O 0.63581 0.52275 0.65886 0.0
O171 O 0.59641 0.50804 0.61937 0.0
Zn172 Zn 0.61303 0.52971 0.6159 0.0
O173 O 0.62704 0.53265 0.55432 0.0
C174 C 0.59473 0.53912 0.56194 0.0
O175 O 0.59203 0.52732 0.53231 0.0
O176 O 0.62465 0.53563 0.6857 0.0
C177 C 0.63825 0.54574 0.54563 0.0
O178 O 0.6404 0.55694 0.57761 0.0
C179 C 0.59717 0.4974 0.59556 0.0
O180 O 0.6095 0.50045 0.56875 0.0
O181 O 0.60371 0.54265 0.60202 0.0
C182 C 0.46278 0.10008 0.6778 0.0
O183 O 0.47105 0.11028 0.64132 0.0
O184 O 0.48667 0.08527 0.6021 0.0
Zn185 Zn 0.4654 0.08132 0.59927 0.0
O186 O 0.46385 0.09415 0.54117 0.0
C187 C 0.4542 0.04919 0.59399 0.0
O188 O 0.46575 0.05257 0.62606 0.0
O189 O 0.45908 0.08636 0.66969 0.0
C190 C 0.46117 0.08966 0.49232 0.0
O191 O 0.45972 0.0765 0.4796 0.0
C192 C 0.49808 0.09818 0.5926 0.0
O193 O 0.49609 0.10971 0.58271 0.0
O194 O 0.45159 0.05959 0.57929 0.0
C195 C 0.69421 0.5619 0.0428 0.0
O196 O 0.68915 0.55322 0.086 0.0
O197 O 0.73339 0.57447 0.12056 0.0
Zn198 Zn 0.71792 0.58107 0.11636 0.0
O199 O 0.70354 0.57283 0.17926 0.0
C200 C 0.73855 0.60978 0.15989 0.0
O201 O 0.74083 0.60102 0.19303 0.0
O202 O 0.70649 0.57446 0.046 0.0
C203 C 0.70659 0.56806 0.22238 0.0
O204 O 0.71943 0.56806 0.22581 0.0
C205 C 0.73204 0.56228 0.10163 0.0
O206 O 0.71954 0.55269 0.07638 0.0
O207 O 0.72895 0.60373 0.12186 0.0
C208 C 0.42306 0.13185 0.99572 0.0
O209 O 0.4102 0.13182 0.99258 0.0
O210 O 0.4289 0.16496 0.09425 0.0
Zn211 Zn 0.42437 0.14359 0.10365 0.0
O212 O 0.43552 0.14212 0.16776 0.0
C213 C 0.39222 0.13346 0.10662 0.0
O214 O 0.39637 0.14654 0.08334 0.0
O215 O 0.43086 0.13648 0.03885 0.0
C216 C 0.42964 0.13994 0.21465 0.0
O217 O 0.41672 0.13967 0.22066 0.0
C218 C 0.43691 0.17355 0.05589 0.0
O219 O 0.44294 0.16852 0.02038 0.0
O220 O 0.40215 0.12981 0.1173 0.0
C221 C 0.86664 0.30249 0.02523 0.0
O222 O 0.86189 0.30679 0.06752 0.0
O223 O 0.84017 0.26392 0.10221 0.0
Zn224 Zn 0.86244 0.2788 0.09801 0.0
O225 O 0.86884 0.29294 0.1615 0.0
C226 C 0.86905 0.25632 0.13519 0.0
O227 O 0.85679 0.25245 0.16378 0.0
O228 O 0.86771 0.29064 0.02866 0.0
C229 C 0.86164 0.28912 0.20612 0.0
O230 O 0.84945 0.27574 0.21035 0.0
C231 C 0.83005 0.26319 0.07037 0.0
O232 O 0.83389 0.27292 0.0303 0.0
O233 O 0.87375 0.26741 0.10256 0.0
C234 C 0.43405 0.30866 0.96585 0.0
O235 O 0.44481 0.30998 -0.00147 0.0
O236 O 0.42191 0.26868 0.02077 0.0
Zn237 Zn 0.4164 0.28451 0.03817 0.0
O238 O 0.42874 0.29707 0.10099 0.0
C239 C 0.38785 0.26129 0.07968 0.0
O240 O 0.39557 0.25426 0.08618 0.0
O241 O 0.42054 0.29818 0.97432 0.0
C242 C 0.42891 0.29132 0.14651 0.0
O243 O 0.42081 0.2766 0.15309 0.0
C244 C 0.43491 0.2704 0.03041 0.0
O245 O 0.44553 0.28332 0.05034 0.0
O246 O 0.39437 0.27444 0.05883 0.0
C247 C 0.69578 0.12795 0.01659 0.0
O248 O 0.69275 0.13427 0.05746 0.0
O249 O 0.73498 0.15347 0.08161 0.0
Zn250 Zn 0.71928 0.13156 0.08817 0.0
O251 O 0.70589 0.1276 0.1529 0.0
C252 C 0.74214 0.12502 0.12218 0.0
O253 O 0.74787 0.13868 0.14261 0.0
O254 O 0.70672 0.12542 0.02061 0.0
C255 C 0.71081 0.13375 0.19883 0.0
O256 O 0.72529 0.14353 0.20467 0.0
C257 C 0.73315 0.16461 0.09259 0.0
O258 O 0.71999 0.16214 0.11055 0.0
O259 O 0.72974 0.11941 0.09618 0.0
C260 C 0.86752 0.56141 0.01918 0.0
O261 O 0.86204 0.55222 0.06095 0.0
O262 O 0.84023 0.57357 0.08392 0.0
Zn263 Zn 0.86242 0.58076 0.08898 0.0
O264 O 0.86738 0.57237 0.15433 0.0
C265 C 0.86796 0.61059 0.11481 0.0
O266 O 0.85381 0.603 0.13093 0.0
O267 O 0.8688 0.57442 0.02197 0.0
C268 C 0.8642 0.57456 0.2021 0.0
O269 O 0.85694 0.58204 0.20894 0.0
C270 C 0.82974 0.56195 0.10724 0.0
O271 O 0.83314 0.55344 0.13732 0.0
O272 O 0.87402 0.60344 0.09458 0.0
C273 C 0.63668 0.10451 0.66791 0.0
O274 O 0.6396 0.11533 0.63281 0.0
O275 O 0.60023 0.09417 0.59322 0.0
Zn276 Zn 0.6152 0.087 0.58698 0.0
O277 O 0.62994 0.09765 0.52677 0.0
C278 C 0.59705 0.05979 0.52744 0.0
O279 O 0.59746 0.06953 0.49169 0.0
O280 O 0.62645 0.09108 0.65699 0.0
C281 C 0.63953 0.09351 0.51671 0.0
O282 O 0.6393 0.08263 0.54596 0.0
C283 C 0.5963 0.09925 0.55314 0.0
O284 O 0.60255 0.10035 0.5055 0.0
O285 O 0.604 0.06466 0.57219 0.0
C286 C 0.89567 0.52948 0.67205 0.0
O287 O 0.88504 0.52062 0.63779 0.0
O288 O 0.90545 0.50529 0.59194 0.0
Zn289 Zn 0.91327 0.52757 0.58834 0.0
O290 O 0.90257 0.53234 0.53029 0.0
C291 C 0.93974 0.53725 0.52438 0.0
O292 O 0.92941 0.52939 0.48774 0.0
O293 O 0.9094 0.53427 0.65968 0.0
C294 C 0.90787 0.54605 0.5164 0.0
O295 O 0.9201 0.55658 0.54055 0.0
C296 C 0.89988 0.49658 0.55126 0.0
O297 O 0.89887 0.50221 0.50454 0.0
O298 O 0.93555 0.53824 0.57202 0.0
C299 C 0.45949 0.37755 0.64239 0.0
O300 O 0.46168 0.39135 0.6458 0.0
O301 O 0.48882 0.40087 0.53025 0.0
Zn302 Zn 0.4669 0.38485 0.52852 0.0
O303 O 0.46276 0.37073 0.4666 0.0
C304 C 0.45864 0.40814 0.53093 0.0
O305 O 0.4717 0.41598 0.55575 0.0
O306 O 0.46103 0.37266 0.59687 0.0
C307 C 0.47023 0.36411 0.45684 0.0
O308 O 0.4818 0.36684 0.4878 0.0
C309 C 0.49844 0.40029 0.56139 0.0
O310 O 0.49414 0.38849 0.59313 0.0
O311 O 0.4542 0.39457 0.51713 0.0
C312 C 0.56509 0.69778 0.98992 0.0
O313 O 0.55472 0.69338 0.9519 0.0
O314 O 0.57656 0.73686 0.9184 0.0
Zn315 Zn 0.58196 0.7206 0.9112 0.0
O316 O 0.56999 0.70586 0.8522 0.0
C317 C 0.60829 0.7356 0.84471 0.0
O318 O 0.59802 0.73341 0.80825 0.0
O319 O 0.57796 0.7094 0.98175 0.0
C320 C 0.56362 0.70859 0.81299 0.0
O321 O 0.56467 0.72192 0.80936 0.0
C322 C 0.56335 0.73476 0.92633 0.0
O323 O 0.55186 0.7209 0.92975 0.0
O324 O 0.6041 0.73078 0.89275 0.0
C325 C 0.28139 0.86678 0.0249 0.0
O326 O 0.26684 0.86139 0.03259 0.0
O327 O 0.25738 0.83705 0.924 0.0
Zn328 Zn 0.27285 0.85882 0.91254 0.0
O329 O 0.28606 0.8611 0.84925 0.0
C330 C 0.25217 0.86566 0.86132 0.0
O331 O 0.24901 0.85315 0.83555 0.0
O332 O 0.28622 0.86686 0.97741 0.0
C333 C 0.29465 0.87444 0.83193 0.0
O334 O 0.29408 0.88573 0.85516 0.0
C335 C 0.25936 0.82626 0.90899 0.0
O336 O 0.27217 0.82934 0.88573 0.0
O337 O 0.26227 0.87058 0.89798 0.0
C338 C 0.12884 0.42904 0.99637 0.0
O339 O 0.13684 0.43917 0.9593 0.0
O340 O 0.15333 0.41606 0.92442 0.0
Zn341 Zn 0.13155 0.41032 0.91834 0.0
O342 O 0.12837 0.4213 0.85727 0.0
C343 C 0.1222 0.37856 0.9222 0.0
O344 O 0.13303 0.38302 0.95853 0.0
O345 O 0.12489 0.41528 0.98792 0.0
C346 C 0.13265 0.42049 0.80965 0.0
O347 O 0.13982 0.41296 0.80167 0.0
C348 C 0.1644 0.42887 0.91139 0.0
O349 O 0.16181 0.43937 0.89224 0.0
O350 O 0.11933 0.38821 0.90129 0.0
C351 C 0.35491 0.8969 0.33562 0.0
O352 O 0.35585 0.88626 0.36234 0.0
O353 O 0.39237 0.90907 0.39851 0.0
Zn354 Zn 0.37619 0.91413 0.41531 0.0
O355 O 0.36282 0.90152 0.47577 0.0
C356 C 0.39863 0.94588 0.42174 0.0
O357 O 0.40537 0.94239 0.38364 0.0
O358 O 0.36315 0.91057 0.3503 0.0
C359 C 0.36786 0.90275 0.52369 0.0
O360 O 0.38236 0.91174 0.53278 0.0
C361 C 0.39237 0.89724 0.41443 0.0
O362 O 0.38096 0.88713 0.44329 0.0
O363 O 0.38592 0.93571 0.43978 0.0
C364 C 0.10225 0.4617 0.34528 0.0
O365 O 0.11203 0.467 0.38537 0.0
O366 O 0.09043 0.48941 0.41818 0.0
Zn367 Zn 0.08439 0.46747 0.42057 0.0
O368 O 0.09491 0.46375 0.48201 0.0
C369 C 0.05638 0.45874 0.47278 0.0
O370 O 0.06535 0.47031 0.50353 0.0
O371 O 0.08952 0.46095 0.35086 0.0
C372 C 0.09018 0.45011 0.49569 0.0
O373 O 0.07866 0.43924 0.46948 0.0
C374 C 0.09903 0.49873 0.38247 0.0
O375 O 0.10476 0.49412 0.34428 0.0
O376 O 0.06202 0.45524 0.43328 0.0
C377 C 0.5395 0.64085 0.34407 0.0
O378 O 0.53312 0.64451 0.38294 0.0
O379 O 0.51282 0.60255 0.41923 0.0
Zn380 Zn 0.53494 0.61814 0.42115 0.0
O381 O 0.53906 0.63271 0.48215 0.0
C382 C 0.54233 0.59814 0.47436 0.0
O383 O 0.53061 0.596 0.50333 0.0
O384 O 0.54152 0.62964 0.35094 0.0
C385 C 0.52867 0.63345 0.50796 0.0
O386 O 0.51446 0.62424 0.49501 0.0
C387 C 0.5037 0.6011 0.38152 0.0
O388 O 0.50868 0.61025 0.33955 0.0
O389 O 0.54664 0.60747 0.43513 0.0
C390 C 0.09827 0.63563 0.32515 0.0
O391 O 0.10857 0.63698 0.36021 0.0
O392 O 0.0853 0.59466 0.37391 0.0
Zn393 Zn 0.07974 0.61037 0.39232 0.0
O394 O 0.09137 0.62214 0.45741 0.0
C395 C 0.05044 0.5869 0.42751 0.0
O396 O 0.0578 0.57955 0.43487 0.0
O397 O 0.08479 0.62476 0.33027 0.0
C398 C 0.09093 0.61602 0.50274 0.0
O399 O 0.0825 0.60129 0.50802 0.0
C400 C 0.09822 0.59627 0.38408 0.0
O401 O 0.10871 0.60894 0.40595 0.0
O402 O 0.05749 0.60032 0.40897 0.0
C403 C 0.36325 0.47056 0.32242 0.0
O404 O 0.36115 0.47921 0.35662 0.0
O405 O 0.40206 0.49503 0.39233 0.0
Zn406 Zn 0.3846 0.47411 0.40297 0.0
O407 O 0.37076 0.47349 0.46148 0.0
C408 C 0.40381 0.46123 0.39933 0.0
O409 O 0.40902 0.46991 0.35619 0.0
O410 O 0.37301 0.46671 0.33358 0.0
C411 C 0.37556 0.47855 0.50873 0.0
O412 O 0.39011 0.48486 0.51898 0.0
C413 C 0.40178 0.50718 0.39997 0.0
O414 O 0.38918 0.5065 0.41603 0.0
O415 O 0.39291 0.46085 0.42555 0.0
C416 C 0.52902 0.899 0.34096 0.0
O417 O 0.52404 0.88999 0.38333 0.0
O418 O 0.50347 0.91362 0.41227 0.0
Zn419 Zn 0.52513 0.91858 0.41363 0.0
O420 O 0.52841 0.90791 0.47588 0.0
C421 C 0.5343 0.94764 0.45768 0.0
O422 O 0.52147 0.93969 0.48386 0.0
O423 O 0.53043 0.91207 0.34413 0.0
C424 C 0.51923 0.90227 0.51532 0.0
O425 O 0.50709 0.90361 0.51663 0.0
C426 C 0.49298 0.90283 0.38556 0.0
O427 O 0.49614 0.89418 0.35529 0.0
O428 O 0.53845 0.94097 0.42416 0.0
C429 C 0.30541 0.43866 0.97043 0.0
O430 O 0.31008 0.44809 0.92925 0.0
O431 O 0.26635 0.42528 0.8911 0.0
Zn432 Zn 0.2825 0.41959 0.89393 0.0
O433 O 0.29699 0.42927 0.83221 0.0
C434 C 0.26376 0.39108 0.84478 0.0
O435 O 0.26192 0.39983 0.81018 0.0
O436 O 0.29369 0.42572 0.96495 0.0
C437 C 0.29953 0.44161 0.8105 0.0
O438 O 0.2924 0.44844 0.82866 0.0
C439 C 0.26483 0.43378 0.92511 0.0
O440 O 0.27449 0.43968 0.96536 0.0
O441 O 0.27241 0.39708 0.88535 0.0
C442 C 0.55251 0.86393 0.99112 0.0
O443 O 0.54173 0.85611 0.95583 0.0
O444 O 0.5627 0.83871 0.90724 0.0
Zn445 Zn 0.57007 0.86099 0.90802 0.0
O446 O 0.56 0.86661 0.85027 0.0
C447 C 0.59669 0.87014 0.84678 0.0
O448 O 0.58653 0.86091 0.81186 0.0
O449 O 0.566 0.8674 0.97975 0.0
C450 C 0.54979 0.85727 0.81858 0.0
O451 O 0.54517 0.84278 0.82298 0.0
C452 C 0.56072 0.83126 0.95074 0.0
O453 O 0.56308 0.8382 0.99763 0.0
O454 O 0.59233 0.8721 0.8928 0.0
C455 C 0.12543 0.70382 -0.00051 0.0
O456 O 0.12661 0.71724 0.00036 0.0
O457 O 0.15381 0.72565 0.88074 0.0
Zn458 Zn 0.13186 0.70996 0.88509 0.0
O459 O 0.12622 0.69518 0.82456 0.0
C460 C 0.12242 0.72886 0.83663 0.0
O461 O 0.13289 0.73038 0.80205 0.0
O462 O 0.12722 0.69864 0.95501 0.0
C463 C 0.13315 0.688 0.81521 0.0
O464 O 0.1448 0.69058 0.84549 0.0
C465 C 0.16397 0.72601 0.91153 0.0
O466 O 0.16025 0.71533 0.94801 0.0
O467 O 0.11969 0.72033 0.87764 0.0
C468 C 0.20256 0.98844 0.57161 0.0
C469 C 0.20317 0.97508 0.57719 0.0
C470 C 0.20752 0.99706 0.5239 0.0
C471 C 0.21313 0.99215 0.48068 0.0
C472 C 0.21381 0.9787 0.48606 0.0
C473 C 0.20886 0.97034 0.53434 0.0
C474 C 0.2067 0.0114 0.51968 0.0
C475 C 0.21968 0.97308 0.44068 0.0
C476 C 0.21243 0.0064 0.33918 0.0
C477 C 0.22753 0.01783 0.33238 0.0
C478 C 0.20761 0.99792 0.3872 0.0
C479 C 0.21813 0.00099 0.42951 0.0
C480 C 0.23338 0.01252 0.42299 0.0
C481 C 0.23792 0.02078 0.37441 0.0
C482 C 0.19125 0.98566 0.39265 0.0
C483 C 0.24489 0.01615 0.46741 0.0
H484 H 0.19823 0.99221 0.6046 0.0
H485 H 0.20935 0.96002 0.53831 0.0
H486 H 0.2181 0.02115 0.51117 0.0
H487 H 0.19927 0.01051 0.48535 0.0
H488 H 0.20228 0.01378 0.55734 0.0
H489 H 0.21956 0.96246 0.45147 0.0
H490 H 0.21269 0.97103 0.40376 0.0
H491 H 0.23143 0.98181 0.4302 0.0
H492 H 0.20434 0.00403 0.30686 0.0
H493 H 0.2496 0.02961 0.36951 0.0
H494 H 0.18602 0.98806 0.42788 0.0
H495 H 0.19054 0.97461 0.40039 0.0
H496 H 0.18453 0.98461 0.35579 0.0
H497 H 0.24123 0.01942 0.50494 0.0
H498 H 0.2563 0.02549 0.45598 0.0
H499 H 0.24573 0.00598 0.47715 0.0
C500 C 0.03712 0.24384 0.5618 0.0
C501 C 0.03229 0.23664 0.61225 0.0
C502 C 0.02746 0.23879 0.51661 0.0
C503 C 0.01267 0.22625 0.52216 0.0
C504 C 0.00768 0.21905 0.57308 0.0
C505 C 0.01754 0.22434 0.61751 0.0
C506 C 0.03311 0.24676 0.46285 0.0
C507 C 0.99199 0.20562 0.5805 0.0
C508 C 0.98221 0.2194 0.41956 0.0
C509 C 0.98202 0.20799 0.38727 0.0
C510 C 0.99235 0.22568 0.46301 0.0
C511 C 0.00246 0.22036 0.47451 0.0
C512 C 0.00242 0.20894 0.44182 0.0
C513 C 0.99221 0.20291 0.39849 0.0
C514 C 0.99214 0.23788 0.49698 0.0
C515 C 0.01299 0.20293 0.45311 0.0
H516 H 0.04848 0.25337 0.55747 0.0
H517 H 0.0137 0.21872 0.65636 0.0
H518 H 0.03306 0.23875 0.4323 0.0
H519 H 0.02546 0.25073 0.4477 0.0
H520 H 0.04476 0.25662 0.4657 0.0
H521 H 0.98977 0.20149 0.62307 0.0
H522 H 0.98338 0.20867 0.56852 0.0
H523 H 0.99047 0.19622 0.55377 0.0
H524 H 0.97442 0.22343 0.41094 0.0
H525 H 0.99214 0.19412 0.37368 0.0
H526 H 0.00358 0.24807 0.49799 0.0
H527 H 0.98904 0.23389 0.53941 0.0
H528 H 0.98399 0.24118 0.48135 0.0
H529 H 0.02489 0.21233 0.45292 0.0
H530 H 0.01182 0.19434 0.42287 0.0
H531 H 0.01068 0.19772 0.49405 0.0
C532 C 0.79981 0.79142 0.38975 0.0
C533 C 0.79556 0.7762 0.38185 0.0
C534 C 0.79612 0.79618 0.43785 0.0
C535 C 0.78806 0.78547 0.47902 0.0
C536 C 0.7839 0.77013 0.4716 0.0
C537 C 0.78767 0.76566 0.42301 0.0
C538 C 0.80068 0.81263 0.44433 0.0
C539 C 0.77536 0.7584 0.51479 0.0
C540 C 0.78889 0.79943 0.62235 0.0
C541 C 0.77486 0.79879 0.62533 0.0
C542 C 0.79337 0.79516 0.57487 0.0
C543 C 0.78362 0.79022 0.52934 0.0
C544 C 0.76951 0.78967 0.53195 0.0
C545 C 0.76528 0.79392 0.57997 0.0
C546 C 0.80848 0.79582 0.57353 0.0
C547 C 0.75884 0.78453 0.48406 0.0
H548 H 0.80591 0.79962 0.35813 0.0
H549 H 0.7844 0.75389 0.41729 0.0
H550 H 0.79045 0.81369 0.44955 0.0
H551 H 0.80768 0.81735 0.48133 0.0
H552 H 0.80717 0.81958 0.4089 0.0
H553 H 0.77335 0.74702 0.50331 0.0
H554 H 0.78173 0.76181 0.55356 0.0
H555 H 0.76427 0.75761 0.5223 0.0
H556 H 0.79634 0.80316 0.65726 0.0
H557 H 0.75444 0.79344 0.5819 0.0
H558 H 0.81553 0.80334 0.54016 0.0
H559 H 0.8068 0.78439 0.56522 0.0
H560 H 0.81478 0.80001 0.61227 0.0
H561 H 0.76457 0.79174 0.44826 0.0
H562 H 0.74838 0.78498 0.49246 0.0
H563 H 0.7556 0.77276 0.47304 0.0
C564 C 0.75456 0.98066 0.57939 0.0
C565 C 0.76428 0.98173 0.62153 0.0
C566 C 0.75993 0.99066 0.53525 0.0
C567 C 0.7754 0.00194 0.53313 0.0
C568 C 0.78526 0.00314 0.5756 0.0
C569 C 0.77957 0.99303 0.61939 0.0
C570 C 0.74908 0.98909 0.49069 0.0
C571 C 0.80184 0.01499 0.57451 0.0
C572 C 0.79189 0.01754 0.39454 0.0
C573 C 0.79182 0.03126 0.39392 0.0
C574 C 0.78671 0.00798 0.43984 0.0
C575 C 0.78133 0.01222 0.48563 0.0
C576 C 0.78141 0.02613 0.48564 0.0
C577 C 0.78668 0.0355 0.43973 0.0
C578 C 0.78685 0.99325 0.43845 0.0
C579 C 0.77576 0.031 0.53386 0.0
H580 H 0.74272 0.972 0.58087 0.0
H581 H 0.78716 0.99393 0.65178 0.0
H582 H 0.7491 -0.0001 0.48545 0.0
H583 H 0.75278 0.98659 0.45163 0.0
H584 H 0.73732 0.97996 0.49914 0.0
H585 H 0.80793 0.0146 0.61128 0.0
H586 H 0.80729 0.01333 0.53826 0.0
H587 H 0.80317 0.02643 0.57129 0.0
H588 H 0.79588 0.01419 0.35937 0.0
H589 H 0.7866 0.04608 0.43956 0.0
H590 H 0.77515 0.98361 0.44282 0.0
H591 H 0.79352 0.99272 0.47305 0.0
H592 H 0.79171 0.99179 0.40016 0.0
H593 H 0.76369 0.02263 0.54144 0.0
H594 H 0.77687 0.0423 0.52786 0.0
H595 H 0.78215 0.03138 0.57081 0.0
C596 C 0.00134 0.79037 0.62379 0.0
C597 C 0.01442 0.78914 0.62562 0.0
C598 C 0.99283 0.78721 0.57596 0.0
C599 C 0.99753 0.78272 0.52895 0.0
C600 C 0.01072 0.78148 0.53049 0.0
C601 C 0.01901 0.78471 0.57882 0.0
C602 C 0.97881 0.78864 0.57574 0.0
C603 C 0.01607 0.77671 0.48109 0.0
C604 C 0.96892 0.76097 0.41857 0.0
C605 C 0.97238 0.77229 0.37972 0.0
C606 C 0.97689 0.76425 0.46765 0.0
C607 C 0.9886 0.77921 0.4781 0.0
C608 C 0.99202 0.79073 0.43944 0.0
C609 C 0.98386 0.78713 0.39066 0.0
C610 C 0.97292 0.75167 0.50801 0.0
C611 C 0.00444 0.80682 0.44928 0.0
H612 H 0.99772 0.7938 0.65976 0.0
H613 H 0.02911 0.78374 0.57987 0.0
H614 H 0.97985 0.79691 0.5444 0.0
H615 H 0.96878 0.77762 0.56507 0.0
H616 H 0.97674 0.79234 0.61564 0.0
H617 H 0.0266 0.77637 0.48897 0.0
H618 H 0.00716 0.76533 0.46758 0.0
H619 H 0.01817 0.78466 0.44712 0.0
H620 H 0.96004 0.74947 0.41047 0.0
H621 H 0.9866 0.79595 0.3609 0.0
H622 H 0.97003 0.75466 0.54778 0.0
H623 H 0.98283 0.75015 0.51455 0.0
H624 H 0.96324 0.74073 0.49433 0.0
H625 H 0.0023 0.81112 0.48768 0.0
H626 H 0.00541 0.81454 0.41576 0.0
H627 H 0.01544 0.80721 0.45375 0.0
C628 C 0.24231 0.21068 0.44813 0.0
C629 C 0.23117 0.20106 0.41127 0.0
C630 C 0.23838 0.2149 0.49695 0.0
C631 C 0.22295 0.2094 0.50906 0.0
C632 C 0.21163 0.19956 0.47235 0.0
C633 C 0.21588 0.19548 0.42391 0.0
C634 C 0.25075 0.22539 0.53526 0.0
C635 C 0.19505 0.1935 0.48389 0.0
C636 C 0.21177 0.21056 0.65514 0.0
C637 C 0.21056 0.22365 0.65524 0.0
C638 C 0.2158 0.20578 0.60782 0.0
C639 C 0.21865 0.21428 0.55951 0.0
C640 C 0.21739 0.22747 0.55928 0.0
C641 C 0.21339 0.23201 0.60717 0.0
C642 C 0.21707 0.19166 0.60954 0.0
C643 C 0.22029 0.23679 0.50842 0.0
H644 H 0.25415 0.21501 0.43872 0.0
H645 H 0.20719 0.18804 0.39565 0.0
H646 H 0.2504 0.23601 0.5403 0.0
H647 H 0.24895 0.22009 0.57592 0.0
H648 H 0.26219 0.2283 0.5206 0.0
H649 H 0.18765 0.18566 0.45176 0.0
H650 H 0.19193 0.18743 0.52329 0.0
H651 H 0.19277 0.20302 0.48723 0.0
H652 H 0.20962 0.20404 0.69213 0.0
H653 H 0.21245 0.24213 0.60686 0.0
H654 H 0.22867 0.19442 0.5979 0.0
H655 H 0.20918 0.18329 0.57974 0.0
H656 H 0.21449 0.18633 0.65037 0.0
H657 H 0.23199 0.24089 0.49384 0.0
H658 H 0.21876 0.24671 0.51499 0.0
H659 H 0.21249 0.2297 0.47572 0.0
C660 C 0.87682 0.34243 0.73688 0.0
C661 C 0.89189 0.35377 0.72852 0.0
C662 C 0.87236 0.33413 0.78539 0.0
C663 C 0.88323 0.33726 0.82643 0.0
C664 C 0.89842 0.34878 0.81848 0.0
C665 C 0.90257 0.3569 0.7696 0.0
C666 C 0.85605 0.32192 0.7925 0.0
C667 C 0.91032 0.35242 0.86141 0.0
C668 C 0.86978 0.32454 0.97058 0.0
C669 C 0.87071 0.31131 0.97423 0.0
C670 C 0.87377 0.33308 0.9226 0.0
C671 C 0.87878 0.32826 0.87729 0.0
C672 C 0.87967 0.31489 0.88061 0.0
C673 C 0.87562 0.30657 0.92905 0.0
C674 C 0.87268 0.34729 0.92046 0.0
C675 C 0.88495 0.3094 0.83305 0.0
H676 H 0.86849 0.33995 0.70538 0.0
H677 H 0.91424 0.36566 0.76349 0.0
H678 H 0.85535 0.31081 0.79824 0.0
H679 H 0.85126 0.32416 0.82942 0.0
H680 H 0.84893 0.32112 0.75713 0.0
H681 H 0.92157 0.36193 0.84934 0.0
H682 H 0.90688 0.35543 0.90003 0.0
H683 H 0.91142 0.34233 0.86947 0.0
H684 H 0.86599 0.32827 0.00529 0.0
H685 H 0.87635 0.29635 0.9315 0.0
H686 H 0.865 0.34647 0.88713 0.0
H687 H 0.88396 0.35719 0.9116 0.0
H688 H 0.86844 0.34941 0.95908 0.0
H689 H 0.87759 0.30753 0.79738 0.0
H690 H 0.88487 0.2987 0.84212 0.0
H691 H 0.89661 0.31812 0.82146 0.0
C692 C 0.6537 0.53108 0.75542 0.0
C693 C 0.64298 0.53558 0.74588 0.0
C694 C 0.66227 0.5352 0.80333 0.0
C695 C 0.66004 0.544 0.84261 0.0
C696 C 0.64924 0.54858 0.83325 0.0
C697 C 0.64084 0.54433 0.78497 0.0
C698 C 0.67372 0.53014 0.81191 0.0
C699 C 0.64654 0.55798 0.87427 0.0
C700 C 0.67187 0.5435 0.98822 0.0
C701 C 0.68563 0.55718 0.99126 0.0
C702 C 0.66348 0.53901 0.93993 0.0
C703 C 0.66899 0.54843 0.89361 0.0
C704 C 0.68293 0.56219 0.89623 0.0
C705 C 0.69108 0.5664 0.94505 0.0
C706 C 0.64865 0.52426 0.93861 0.0
C707 C 0.68916 0.57251 0.84758 0.0
H708 H 0.65543 0.52433 0.7254 0.0
H709 H 0.63258 0.54786 0.77793 0.0
H710 H 0.68515 0.54013 0.81749 0.0
H711 H 0.67097 0.52323 0.8494 0.0
H712 H 0.6741 0.52336 0.77734 0.0
H713 H 0.63772 0.5606 0.86084 0.0
H714 H 0.64301 0.55189 0.9136 0.0
H715 H 0.65719 0.56877 0.8816 0.0
H716 H 0.66758 0.5363 0.0237 0.0
H717 H 0.70172 0.57698 0.94701 0.0
H718 H 0.64892 0.51683 0.90634 0.0
H719 H 0.63929 0.52642 0.92867 0.0
H720 H 0.64606 0.51812 0.97791 0.0
H721 H 0.69047 0.56631 0.81294 0.0
H722 H 0.7003 0.58268 0.85604 0.0
H723 H 0.68113 0.57624 0.83473 0.0
C724 C 0.46101 0.11957 0.73338 0.0
C725 C 0.45714 0.10444 0.72582 0.0
C726 C 0.45531 0.12385 0.77744 0.0
C727 C 0.44553 0.11274 0.81486 0.0
C728 C 0.44166 0.09746 0.80777 0.0
C729 C 0.44753 0.09349 0.76329 0.0
C730 C 0.45972 0.14027 0.78382 0.0
C731 C 0.43128 0.08533 0.84702 0.0
C732 C 0.44214 0.12639 0.95427 0.0
C733 C 0.42858 0.12666 0.94963 0.0
C734 C 0.44768 0.12169 0.91092 0.0
C735 C 0.43947 0.11718 0.86171 0.0
C736 C 0.42571 0.11729 0.85682 0.0
C737 C 0.42041 0.12203 0.90092 0.0
C738 C 0.4624 0.12171 0.9176 0.0
C739 C 0.41668 0.11257 0.80482 0.0
H740 H 0.46843 0.1281 0.70462 0.0
H741 H 0.44448 0.08177 0.75767 0.0
H742 H 0.44945 0.14139 0.78348 0.0
H743 H 0.46538 0.14461 0.8235 0.0
H744 H 0.46744 0.14751 0.75112 0.0
H745 H 0.42941 0.07398 0.8358 0.0
H746 H 0.4361 0.08811 0.88855 0.0
H747 H 0.42017 0.08481 0.84842 0.0
H748 H 0.44851 0.12991 0.99182 0.0
H749 H 0.40992 0.12219 0.89705 0.0
H750 H 0.47082 0.12955 0.8878 0.0
H751 H 0.46065 0.11026 0.90929 0.0
H752 H 0.46721 0.12518 0.95901 0.0
H753 H 0.42355 0.1201 0.77119 0.0
H754 H 0.40603 0.11296 0.80804 0.0
H755 H 0.41383 0.1009 0.79376 0.0
C756 C 0.45432 0.3535 0.68717 0.0
C757 C 0.45555 0.36779 0.69096 0.0
C758 C 0.45073 0.3441 0.73266 0.0
C759 C 0.44826 0.34908 0.78319 0.0
C760 C 0.44942 0.36345 0.78738 0.0
C761 C 0.45308 0.37267 0.74116 0.0
C762 C 0.44965 0.32886 0.72668 0.0
C763 C 0.44681 0.36908 0.84068 0.0
C764 C 0.42603 0.31856 0.88741 0.0
C765 C 0.43763 0.31926 0.92 0.0
C766 C 0.42931 0.32843 0.8434 0.0
C767 C 0.44455 0.3392 0.83161 0.0
C768 C 0.45629 0.34008 0.86469 0.0
C769 C 0.45269 0.33012 0.90859 0.0
C770 C 0.41649 0.32721 0.80904 0.0
C771 C 0.47269 0.35138 0.85314 0.0
H772 H 0.45623 0.34965 0.64857 0.0
H773 H 0.454 0.38368 0.74438 0.0
H774 H 0.45789 0.32815 0.7541 0.0
H775 H 0.43821 0.31975 0.73874 0.0
H776 H 0.45189 0.32668 0.68448 0.0
H777 H 0.448 0.38047 0.83701 0.0
H778 H 0.43531 0.36108 0.8561 0.0
H779 H 0.45499 0.3696 0.87143 0.0
H780 H 0.41435 0.31025 0.89614 0.0
H781 H 0.46171 0.33075 0.93362 0.0
H782 H 0.41759 0.32403 0.76694 0.0
H783 H 0.41701 0.33831 0.807 0.0
H784 H 0.40523 0.31867 0.82503 0.0
H785 H 0.47586 0.34912 0.81261 0.0
H786 H 0.48043 0.35096 0.88388 0.0
H787 H 0.47442 0.36301 0.85218 0.0
C788 C 0.69101 0.11884 0.92059 0.0
C789 C 0.68683 0.12421 0.96601 0.0
C790 C 0.68284 0.11557 0.87196 0.0
C791 C 0.67015 0.11765 0.86883 0.0
C792 C 0.6658 0.12294 0.91461 0.0
C793 C 0.67422 0.12619 0.96266 0.0
C794 C 0.68783 0.11 0.82384 0.0
C795 C 0.65227 0.1252 0.91276 0.0
C796 C 0.65729 0.12248 0.72962 0.0
C797 C 0.64519 0.10791 0.71943 0.0
C798 C 0.66551 0.12582 0.77818 0.0
C799 C 0.66146 0.11432 0.8175 0.0
C800 C 0.64921 0.09961 0.80762 0.0
C801 C 0.64123 0.09656 0.75861 0.0
C802 C 0.67857 0.14163 0.78731 0.0
C803 C 0.64454 0.08708 0.84878 0.0
H804 H 0.70076 0.11731 0.92281 0.0
H805 H 0.67091 0.1303 0.99762 0.0
H806 H 0.67852 0.09879 0.81068 0.0
H807 H 0.69053 0.11787 0.78915 0.0
H808 H 0.69793 0.10896 0.833 0.0
H809 H 0.65028 0.12922 0.95212 0.0
H810 H 0.65392 0.13356 0.88089 0.0
H811 H 0.64197 0.11442 0.9019 0.0
H812 H 0.66043 0.1313 0.69951 0.0
H813 H 0.63186 0.08528 0.7511 0.0
H814 H 0.68916 0.14129 0.79346 0.0
H815 H 0.67662 0.14649 0.82463 0.0
H816 H 0.68023 0.1493 0.75273 0.0
H817 H 0.65408 0.08505 0.85667 0.0
H818 H 0.63462 0.0763 0.83514 0.0
H819 H 0.64168 0.09045 0.88787 0.0
C820 C 0.87661 0.52965 0.73511 0.0
C821 C 0.89168 0.53385 0.72396 0.0
C822 C 0.87267 0.5339 0.78379 0.0
C823 C 0.88406 0.54248 0.82229 0.0
C824 C 0.89927 0.54662 0.8116 0.0
C825 C 0.90291 0.54228 0.76244 0.0
C826 C 0.85634 0.52936 0.79375 0.0
C827 C 0.9117 0.5557 0.85193 0.0
C828 C 0.87638 0.56589 0.92295 0.0
C829 C 0.87198 0.55663 0.96919 0.0
C830 C 0.8804 0.56143 0.87492 0.0
C831 C 0.88009 0.54743 0.87323 0.0
C832 C 0.87581 0.53809 0.91986 0.0
C833 C 0.87175 0.54279 0.96731 0.0
C834 C 0.88485 0.57165 0.82585 0.0
C835 C 0.87544 0.52312 0.91953 0.0
H836 H 0.86788 0.52315 0.70556 0.0
H837 H 0.91457 0.54552 0.75418 0.0
H838 H 0.85228 0.52273 0.83185 0.0
H839 H 0.85531 0.53961 0.79886 0.0
H840 H 0.84882 0.52249 0.76001 0.0
H841 H 0.92289 0.55765 0.83806 0.0
H842 H 0.91253 0.56683 0.85876 0.0
H843 H 0.90901 0.54977 0.8916 0.0
H844 H 0.87656 0.57659 0.92404 0.0
H845 H 0.86841 0.53561 0.00293 0.0
H846 H 0.87706 0.56562 0.79169 0.0
H847 H 0.89641 0.57469 0.81244 0.0
H848 H 0.88462 0.58223 0.83403 0.0
H849 H 0.86731 0.51555 0.88848 0.0
H850 H 0.87214 0.51734 0.95952 0.0
H851 H 0.88673 0.52486 0.90836 0.0
C852 C 0.55013 0.64516 0.25004 0.0
C853 C 0.54384 0.64939 0.29246 0.0
C854 C 0.554 0.65301 0.20055 0.0
C855 C 0.55152 0.66535 0.19342 0.0
C856 C 0.54531 0.66976 0.23621 0.0
C857 C 0.54154 0.66172 0.28523 0.0
C858 C 0.56061 0.648 0.15574 0.0
C859 C 0.54252 0.68288 0.23003 0.0
C860 C 0.57278 0.69404 0.08249 0.0
C861 C 0.56175 0.68937 0.0417 0.0
C862 C 0.56965 0.68624 0.13198 0.0
C863 C 0.55515 0.67351 0.14081 0.0
C864 C 0.54402 0.66868 0.0997 0.0
C865 C 0.54745 0.67668 0.05062 0.0
C866 C 0.5818 0.6917 0.17496 0.0
C867 C 0.52843 0.65514 0.10772 0.0
H868 H 0.55195 0.63565 0.25532 0.0
H869 H 0.53671 0.66507 0.31782 0.0
H870 H 0.55312 0.64456 0.11966 0.0
H871 H 0.57176 0.65754 0.14316 0.0
H872 H 0.56211 0.63837 0.16818 0.0
H873 H 0.53787 0.68503 0.26758 0.0
H874 H 0.55322 0.6933 0.21943 0.0
H875 H 0.53445 0.68061 0.19635 0.0
H876 H 0.58386 0.70383 0.07589 0.0
H877 H 0.53887 0.67299 0.0193 0.0
H878 H 0.58405 0.68248 0.18615 0.0
H879 H 0.57791 0.69484 0.2122 0.0
H880 H 0.59256 0.70163 0.16136 0.0
H881 H 0.52931 0.64498 0.11712 0.0
H882 H 0.52113 0.65272 0.07138 0.0
H883 H 0.52281 0.6571 0.1428 0.0
C884 C 0.33574 0.87793 0.27227 0.0
C885 C 0.34407 0.89293 0.29037 0.0
C886 C 0.32531 0.87392 0.22977 0.0
C887 C 0.32312 0.88519 0.20498 0.0
C888 C 0.33142 0.90034 0.22323 0.0
C889 C 0.34184 0.90405 0.26566 0.0
C890 C 0.31673 0.85766 0.21107 0.0
C891 C 0.32933 0.91263 0.19775 0.0
C892 C 0.30747 0.87725 0.06201 0.0
C893 C 0.29208 0.87212 0.07102 0.0
C894 C 0.31773 0.88175 0.10523 0.0
C895 C 0.31247 0.88115 0.15877 0.0
C896 C 0.29702 0.87627 0.16818 0.0
C897 C 0.28698 0.87178 0.12411 0.0
C898 C 0.33413 0.88688 0.09366 0.0
C899 C 0.29106 0.87555 0.22483 0.0
H900 H 0.33741 0.86928 0.29115 0.0
H901 H 0.3482 0.91566 0.2796 0.0
H902 H 0.30437 0.85325 0.21407 0.0
H903 H 0.31931 0.85695 0.1678 0.0
H904 H 0.31957 0.85023 0.23524 0.0
H905 H 0.33637 0.92378 0.21763 0.0
H906 H 0.33236 0.91374 0.1541 0.0
H907 H 0.31728 0.90959 0.20026 0.0
H908 H 0.31153 0.87759 0.02111 0.0
H909 H 0.27511 0.86786 0.13137 0.0
H910 H 0.33734 0.87918 0.1139 0.0
H911 H 0.3415 0.89837 0.11044 0.0
H912 H 0.33646 0.88709 0.04953 0.0
H913 H 0.29265 0.86737 0.2496 0.0
H914 H 0.27886 0.87207 0.22505 0.0
H915 H 0.29752 0.88675 0.2448 0.0
C916 C 0.11976 0.45688 0.28902 0.0
C917 C 0.10603 0.45677 0.29416 0.0
C918 C 0.12349 0.45223 0.24076 0.0
C919 C 0.11325 0.4474 0.19665 0.0
C920 C 0.09937 0.44726 0.20156 0.0
C921 C 0.09591 0.45193 0.25033 0.0
C922 C 0.13839 0.45249 0.23694 0.0
C923 C 0.0882 0.44222 0.15523 0.0
C924 C 0.12879 0.44883 0.05574 0.0
C925 C 0.12469 0.43366 0.04741 0.0
C926 C 0.12509 0.45345 0.10411 0.0
C927 C 0.11713 0.44264 0.14511 0.0
C928 C 0.11293 0.42731 0.13697 0.0
C929 C 0.11674 0.42299 0.08813 0.0
C930 C 0.12972 0.4699 0.11139 0.0
C931 C 0.10445 0.41548 0.17992 0.0
H932 H 0.12762 0.46058 0.32275 0.0
H933 H 0.08528 0.45183 0.25398 0.0
H934 H 0.13638 0.44102 0.22732 0.0
H935 H 0.14528 0.46009 0.20346 0.0
H936 H 0.14502 0.45642 0.27514 0.0
H937 H 0.07787 0.44271 0.16575 0.0
H938 H 0.09357 0.44949 0.11924 0.0
H939 H 0.08481 0.43046 0.14341 0.0
H940 H 0.13491 0.45714 0.02445 0.0
H941 H 0.11355 0.41125 0.082 0.0
H942 H 0.1372 0.47459 0.14732 0.0
H943 H 0.11959 0.47098 0.119 0.0
H944 H 0.13577 0.47685 0.07538 0.0
H945 H 0.11115 0.41855 0.21795 0.0
H946 H 0.10198 0.40403 0.16717 0.0
H947 H 0.09361 0.41504 0.18938 0.0
C948 C 0.11744 0.65788 0.27219 0.0
C949 C 0.10235 0.64654 0.28006 0.0
C950 C 0.12154 0.668 0.22856 0.0
C951 C 0.11026 0.66676 0.19213 0.0
C952 C 0.09497 0.65557 0.20055 0.0
C953 C 0.0912 0.64556 0.24438 0.0
C954 C 0.13798 0.67978 0.22068 0.0
C955 C 0.08263 0.65394 0.16257 0.0
C956 C 0.11862 0.6995 0.09809 0.0
C957 C 0.1219 0.69463 0.0494 0.0
C958 C 0.11492 0.6906 0.14518 0.0
C959 C 0.11455 0.67656 0.14337 0.0
C960 C 0.11803 0.67168 0.09454 0.0
C961 C 0.12165 0.68076 0.04816 0.0
C962 C 0.11124 0.69613 0.19665 0.0
C963 C 0.11781 0.6568 0.09113 0.0
H964 H 0.12612 0.65873 0.29967 0.0
H965 H 0.0795 0.63688 0.25038 0.0
H966 H 0.14215 0.67766 0.18195 0.0
H967 H 0.13926 0.69121 0.21787 0.0
H968 H 0.14524 0.67976 0.25422 0.0
H969 H 0.0712 0.64519 0.17647 0.0
H970 H 0.08286 0.66488 0.15881 0.0
H971 H 0.08458 0.65082 0.12147 0.0
H972 H 0.1188 0.7102 0.09934 0.0
H973 H 0.12423 0.67693 0.01076 0.0
H974 H 0.11887 0.69675 0.22985 0.0
H975 H 0.0995 0.688 0.20957 0.0
H976 H 0.11234 0.70745 0.19159 0.0
H977 H 0.12566 0.65649 0.12159 0.0
H978 H 0.12111 0.65481 0.05032 0.0
H979 H 0.10632 0.64735 0.10067 0.0
C980 C 0.34316 0.46912 0.26066 0.0
C981 C 0.35445 0.46548 0.2715 0.0
C982 C 0.33485 0.46454 0.21226 0.0
C983 C 0.33795 0.45617 0.17375 0.0
C984 C 0.34926 0.45236 0.18455 0.0
C985 C 0.35737 0.45705 0.23338 0.0
C986 C 0.32283 0.46875 0.20213 0.0
C987 C 0.35289 0.44347 0.1443 0.0
C988 C 0.30822 0.43346 0.06767 0.0
C989 C 0.31368 0.44311 0.02254 0.0
C990 C 0.316 0.43758 0.11725 0.0
C991 C 0.32956 0.45164 0.12165 0.0
C992 C 0.33513 0.46142 0.07628 0.0
C993 C 0.32711 0.45704 0.02727 0.0
C994 C 0.3097 0.4269 0.16493 0.0
C995 C 0.34959 0.47649 0.07949 0.0
H996 H 0.34082 0.47559 0.28999 0.0
H997 H 0.36607 0.45418 0.24146 0.0
H998 H 0.32566 0.47589 0.16522 0.0
H999 H 0.31176 0.45841 0.1947 0.0
H1000 H 0.32158 0.47502 0.23674 0.0
H1001 H 0.36185 0.44124 0.15925 0.0
H1002 H 0.34259 0.43249 0.13551 0.0
H1003 H 0.35669 0.44976 0.10543 0.0
H1004 H 0.29783 0.42268 0.06435 0.0
H1005 H 0.33141 0.46455 0.99257 0.0
H1006 H 0.30756 0.43258 0.19933 0.0
H1007 H 0.31808 0.42374 0.17897 0.0
H1008 H 0.29899 0.4164 0.15483 0.0
H1009 H 0.34858 0.48361 0.11135 0.0
H1010 H 0.35242 0.48276 0.04042 0.0
H1011 H 0.35913 0.47479 0.09112 0.0
C1012 C 0.5313 0.87952 0.28703 0.0
C1013 C 0.53261 0.89385 0.28995 0.0
C1014 C 0.53455 0.87442 0.23884 0.0
C1015 C 0.53919 0.88387 0.1925 0.0
C1016 C 0.54057 0.89835 0.19516 0.0
C1017 C 0.53727 0.90318 0.24391 0.0
C1018 C 0.533 0.85891 0.23746 0.0
C1019 C 0.54548 0.90872 0.14646 0.0
C1020 C 0.56051 0.87669 0.08136 0.0
C1021 C 0.54905 0.86882 0.04299 0.0
C1022 C 0.55744 0.8816 0.13036 0.0
C1023 C 0.54257 0.87858 0.14112 0.0
C1024 C 0.53094 0.87059 0.10272 0.0
C1025 C 0.53432 0.86578 0.0541 0.0
C1026 C 0.57011 0.89006 0.17051 0.0
C1027 C 0.51495 0.86719 0.11288 0.0
H1028 H 0.52773 0.87225 0.32245 0.0
H1029 H 0.5383 0.91426 0.24583 0.0
H1030 H 0.52463 0.85184 0.20615 0.0
H1031 H 0.54396 0.85986 0.22609 0.0
H1032 H 0.52936 0.853 0.27715 0.0
H1033 H 0.54601 0.91965 0.15529 0.0
H1034 H 0.55679 0.91108 0.1326 0.0
H1035 H 0.53749 0.90313 0.11237 0.0
H1036 H 0.57192 0.87905 0.07311 0.0
H1037 H 0.52541 0.85971 0.02464 0.0
H1038 H 0.56719 0.88402 0.20998 0.0
H1039 H 0.57166 0.90147 0.17793 0.0
H1040 H 0.58101 0.89135 0.15618 0.0
H1041 H 0.51053 0.86052 0.15075 0.0
H1042 H 0.5072 0.86078 0.079 0.0
H1043 H 0.51481 0.8779 0.11858 0.0
C1044 C 0.22886 0.98503 0.84322 0.0
C1045 C 0.21383 0.97633 0.82571 0.0
C1046 C 0.23262 0.995 0.88715 0.0
C1047 C 0.22109 0.99632 0.91407 0.0
C1048 C 0.20592 0.98765 0.89645 0.0
C1049 C 0.20246 0.97773 0.85247 0.0
C1050 C 0.24894 0.00405 0.90496 0.0
C1051 C 0.19334 0.9888 0.92417 0.0
C1052 C 0.2298 0.01164 0.05761 0.0
C1053 C 0.23439 0.02694 0.04936 0.0
C1054 C 0.22511 0.00146 0.01404 0.0
C1055 C 0.22497 0.00671 0.96102 0.0
C1056 C 0.22914 0.02202 0.95261 0.0
C1057 C 0.23382 0.03197 0.99692 0.0
C1058 C 0.2207 0.98519 0.02453 0.0
C1059 C 0.22905 0.02799 0.89661 0.0
H1060 H 0.2377 0.984 0.82279 0.0
H1061 H 0.19082 0.97105 0.83912 0.0
H1062 H 0.25284 0.01632 0.90301 0.0
H1063 H 0.25001 0.00135 0.94777 0.0
H1064 H 0.25656 0.00177 0.87949 0.0
H1065 H 0.18215 0.98141 0.90506 0.0
H1066 H 0.1927 0.98561 0.96753 0.0
H1067 H 0.19572 0.00066 0.92291 0.0
H1068 H 0.23016 0.00764 0.09803 0.0
H1069 H 0.23729 0.04376 0.99023 0.0
H1070 H 0.22869 0.98254 0.0034 0.0
H1071 H 0.20926 0.97749 0.00797 0.0
H1072 H 0.22073 0.98275 0.06846 0.0
H1073 H 0.23741 0.02709 0.87045 0.0
H1074 H 0.23184 0.04 0.89735 0.0
H1075 H 0.21779 0.02109 0.87751 0.0
C1076 C 0.98864 0.22667 0.11414 0.0
C1077 C 0.98087 0.21295 0.14236 0.0
C1078 C -0.00116 0.22861 0.07264 0.0
C1079 C 0.00145 0.2166 0.05955 0.0
C1080 C 0.99377 0.20278 0.08829 0.0
C1081 C 0.98348 0.20108 0.12919 0.0
C1082 C 0.00671 0.24347 0.04239 0.0
C1083 C 0.99641 0.1898 0.07576 0.0
C1084 C 0.01654 0.21823 0.91802 0.0
C1085 C 0.03218 0.2255 0.92735 0.0
C1086 C 0.00634 0.21475 0.961 0.0
C1087 C 0.01192 0.21847 0.01465 0.0
C1088 C 0.02761 0.22499 0.0247 0.0
C1089 C 0.03758 0.2285 0.98082 0.0
C1090 C 0.98968 0.20783 0.94868 0.0
C1091 C 0.03392 0.22889 0.08154 0.0
H1092 H 0.98664 0.23587 0.12408 0.0
H1093 H 0.97758 0.19048 0.15118 0.0
H1094 H 0.01915 0.2486 0.04606 0.0
H1095 H 0.00389 0.24151 -0.00143 0.0
H1096 H 0.00347 0.25169 0.05772 0.0
H1097 H 0.98988 0.17996 0.10303 0.0
H1098 H 0.99313 0.18605 0.03321 0.0
H1099 H 0.00861 0.19354 0.07974 0.0
H1100 H 0.01225 0.21582 0.87683 0.0
H1101 H 0.04965 0.23402 0.98837 0.0
H1102 H 0.98593 0.21604 0.95881 0.0
H1103 H 0.98296 0.19763 0.974 0.0
H1104 H 0.98707 0.20462 0.9053 0.0
H1105 H 0.0325 0.23826 0.09756 0.0
H1106 H 0.04613 0.23243 0.083 0.0
H1107 H 0.02764 0.21905 0.10892 0.0
C1108 C 0.77048 0.79111 0.89565 0.0
C1109 C 0.75719 0.79183 0.90154 0.0
C1110 C 0.77546 0.78524 0.93712 0.0
C1111 C 0.76695 0.78001 0.98559 0.0
C1112 C 0.75372 0.78103 0.99229 0.0
C1113 C 0.74899 0.78692 0.95013 0.0
C1114 C 0.78964 0.78433 0.9286 0.0
C1115 C 0.74441 0.77561 0.04358 0.0
C1116 C 0.77021 0.75067 0.06963 0.0
C1117 C 0.77998 0.75954 0.11125 0.0
C1118 C 0.76598 0.75722 0.0282 0.0
C1119 C 0.77161 0.77302 0.02863 0.0
C1120 C 0.78152 0.78206 0.07038 0.0
C1121 C 0.78563 0.77521 0.11116 0.0
C1122 C 0.75544 0.74724 0.9841 0.0
C1123 C 0.78769 0.79893 0.0722 0.0
H1124 H 0.7769 0.79491 0.85824 0.0
H1125 H 0.73873 0.78748 0.95506 0.0
H1126 H 0.79779 0.79025 0.96196 0.0
H1127 H 0.78682 0.77233 0.9295 0.0
H1128 H 0.79525 0.78938 0.88936 0.0
H1129 H 0.73475 0.77775 0.04325 0.0
H1130 H 0.7399 0.76329 0.04872 0.0
H1131 H 0.75159 0.78134 0.07941 0.0
H1132 H 0.76584 0.73856 0.06931 0.0
H1133 H 0.79318 0.78215 0.14325 0.0
H1134 H 0.76086 0.75118 0.94381 0.0
H1135 H 0.74497 0.74799 0.98405 0.0
H1136 H 0.75226 0.73519 0.98921 0.0
H1137 H 0.79395 0.80424 0.03423 0.0
H1138 H 0.79539 0.80437 0.10719 0.0
H1139 H 0.77823 0.80131 0.07495 0.0
C1140 C 0.75762 0.97914 0.88933 0.0
C1141 C 0.75346 0.96383 0.8932 0.0
C1142 C 0.76329 0.98874 0.93437 0.0
C1143 C 0.76492 0.98291 0.98441 0.0
C1144 C 0.76094 0.96753 0.9885 0.0
C1145 C 0.75521 0.95814 0.9428 0.0
C1146 C 0.76737 0.00508 0.92857 0.0
C1147 C 0.76261 0.96097 0.04123 0.0
C1148 C 0.79129 0.01165 0.08719 0.0
C1149 C 0.78104 0.01315 0.1209 0.0
C1150 C 0.78617 0.00157 0.04326 0.0
C1151 C 0.77047 0.99289 0.03269 0.0
C1152 C 0.76007 0.9942 0.067 0.0
C1153 C 0.76549 0.00429 0.11082 0.0
C1154 C 0.79758 0.00038 0.00764 0.0
C1155 C 0.74324 0.98519 0.05673 0.0
H1156 H 0.75631 0.98363 0.85114 0.0
H1157 H 0.75207 0.94634 0.94602 0.0
H1158 H 0.76038 0.00756 0.95662 0.0
H1159 H 0.77937 0.01264 0.93991 0.0
H1160 H 0.76563 0.00788 0.88658 0.0
H1161 H 0.75943 0.9489 0.03723 0.0
H1162 H 0.77448 0.96749 0.05568 0.0
H1163 H 0.75539 0.9619 0.07287 0.0
H1164 H 0.80333 0.01841 0.09491 0.0
H1165 H 0.7575 0.00539 0.13668 0.0
H1166 H 0.79702 0.00411 0.96584 0.0
H1167 H 0.79488 0.98844 0.00506 0.0
H1168 H 0.80933 0.00738 0.02289 0.0
H1169 H 0.74063 0.98827 0.01661 0.0
H1170 H 0.73664 0.98716 0.08826 0.0
H1171 H 0.7394 0.97293 0.05554 0.0
C1172 C 0.03328 0.80295 0.95105 0.0
C1173 C 0.02839 0.79479 0.90237 0.0
C1174 C 0.02419 0.79805 0.99771 0.0
C1175 C 0.0099 0.78467 0.99549 0.0
C1176 C 0.00478 0.77655 0.94624 0.0
C1177 C 0.01408 0.78171 0.90026 0.0
C1178 C 0.02996 0.80702 0.04956 0.0
C1179 C 0.98959 0.76223 0.94234 0.0
C1180 C 0.99197 0.76228 0.12362 0.0
C1181 C 0.98082 0.76611 0.1343 0.0
C1182 C 0.00177 0.76853 0.07924 0.0
C1183 C 0.00039 0.77889 0.04491 0.0
C1184 C 0.98944 0.78313 0.0563 0.0
C1185 C 0.97975 0.77667 0.10086 0.0
C1186 C 0.01332 0.76373 0.06823 0.0
C1187 C 0.9877 0.7942 0.02067 0.0
H1188 H 0.04431 0.81308 0.95297 0.0
H1189 H 0.01019 0.77536 0.86277 0.0
H1190 H 0.02171 0.8102 0.06493 0.0
H1191 H 0.03116 0.79997 0.08124 0.0
H1192 H 0.04107 0.81748 0.04399 0.0
H1193 H 0.98714 0.75746 0.90065 0.0
H1194 H 0.98925 0.75358 0.97048 0.0
H1195 H 0.98047 0.7645 0.9548 0.0
H1196 H 0.99289 0.75415 0.14934 0.0
H1197 H 0.9712 0.77974 0.10902 0.0
H1198 H 0.0248 0.77381 0.06535 0.0
H1199 H 0.01087 0.75776 0.02869 0.0
H1200 H 0.01341 0.75611 0.10025 0.0
H1201 H -0.0013 0.80483 0.01649 0.0
H1202 H 0.97922 0.79698 0.03691 0.0
H1203 H 0.98412 0.78939 0.97938 0.0
C1204 C 0.24069 0.2325 0.151 0.0
C1205 C 0.23662 0.21755 0.16376 0.0
C1206 C 0.23411 0.23573 0.10683 0.0
C1207 C 0.22318 0.22372 0.07483 0.0
C1208 C 0.21873 0.20858 0.08834 0.0
C1209 C 0.22552 0.20568 0.13264 0.0
C1210 C 0.23915 0.25202 0.09357 0.0
C1211 C 0.20705 0.19548 0.05522 0.0
C1212 C 0.19831 0.23191 0.98287 0.0
C1213 C 0.20571 0.23427 0.93282 0.0
C1214 C 0.20377 0.22829 0.02944 0.0
C1215 C 0.21693 0.22705 0.02575 0.0
C1216 C 0.22434 0.22924 0.97524 0.0
C1217 C 0.21863 0.23281 0.92937 0.0
C1218 C 0.19556 0.22598 0.08266 0.0
C1219 C 0.23842 0.22799 0.96977 0.0
H1220 H 0.24924 0.24173 0.1749 0.0
H1221 H 0.22227 0.19408 0.14236 0.0
H1222 H 0.24462 0.25492 0.05305 0.0
H1223 H 0.22923 0.2537 0.09166 0.0
H1224 H 0.24727 0.26 0.12388 0.0
H1225 H 0.20426 0.18436 0.0728 0.0
H1226 H 0.19651 0.19607 0.05229 0.0
H1227 H 0.21131 0.19615 0.01331 0.0
H1228 H 0.1883 0.23299 0.98586 0.0
H1229 H 0.22441 0.23459 0.89083 0.0
H1230 H 0.20319 0.23447 0.11267 0.0
H1231 H 0.19224 0.21465 0.09942 0.0
H1232 H 0.18525 0.22696 0.07838 0.0
H1233 H 0.2475 0.23649 0.99618 0.0
H1234 H 0.24268 0.22978 0.92738 0.0
H1235 H 0.23609 0.21667 0.98346 0.0
C1236 C 0.88943 0.34889 0.45025 0.0
C1237 C 0.89978 0.34726 0.48295 0.0
C1238 C 0.88249 0.33933 0.40577 0.0
C1239 C 0.88602 0.3279 0.39369 0.0
C1240 C 0.89627 0.32604 0.42699 0.0
C1241 C 0.90302 0.33574 0.4713 0.0
C1242 C 0.87157 0.3416 0.37122 0.0
C1243 C 0.90032 0.31397 0.41523 0.0
C1244 C 0.85983 0.29501 0.30344 0.0
C1245 C 0.86746 0.29932 0.25356 0.0
C1246 C 0.86564 0.3043 0.34933 0.0
C1247 C 0.87939 0.31819 0.34515 0.0
C1248 C 0.88701 0.32273 0.29475 0.0
C1249 C 0.88094 0.31324 0.24953 0.0
C1250 C 0.85718 0.29915 0.40244 0.0
C1251 C 0.90171 0.33749 0.28878 0.0
H1252 H 0.88682 0.35774 0.45911 0.0
H1253 H 0.91098 0.33439 0.49641 0.0
H1254 H 0.87602 0.34465 0.32925 0.0
H1255 H 0.86055 0.33093 0.36877 0.0
H1256 H 0.86961 0.35064 0.38731 0.0
H1257 H 0.90814 0.31372 0.446 0.0
H1258 H 0.88993 0.30268 0.41403 0.0
H1259 H 0.90575 0.31596 0.37475 0.0
H1260 H 0.84939 0.28428 0.30685 0.0
H1261 H 0.8869 0.31668 0.21113 0.0
H1262 H 0.85465 0.30784 0.41802 0.0
H1263 H 0.86433 0.29777 0.43322 0.0
H1264 H 0.84639 0.28826 0.39848 0.0
H1265 H 0.90016 0.34706 0.30139 0.0
H1266 H 0.90604 0.3395 0.24646 0.0
H1267 H 0.91042 0.33751 0.31578 0.0
C1268 C 0.69999 0.55927 0.31846 0.0
C1269 C 0.6962 0.56349 0.26935 0.0
C1270 C 0.69062 0.55575 0.36417 0.0
C1271 C 0.67716 0.55647 0.36056 0.0
C1272 C 0.6731 0.56041 0.31081 0.0
C1273 C 0.68267 0.56386 0.26578 0.0
C1274 C 0.69526 0.55155 0.41658 0.0
C1275 C 0.65881 0.56126 0.30541 0.0
C1276 C 0.64615 0.53638 0.46527 0.0
C1277 C 0.6485 0.54838 0.49933 0.0
C1278 C 0.65552 0.5388 0.42032 0.0
C1279 C 0.66751 0.55358 0.40921 0.0
C1280 C 0.67007 0.5657 0.4438 0.0
C1281 C 0.66053 0.56295 0.48849 0.0
C1282 C 0.65248 0.5256 0.38433 0.0
C1283 C 0.68276 0.58162 0.43315 0.0
H1284 H 0.7104 0.55893 0.32152 0.0
H1285 H 0.67963 0.56707 0.22794 0.0
H1286 H 0.69716 0.56004 0.44829 0.0
H1287 H 0.68608 0.54045 0.43127 0.0
H1288 H 0.70576 0.55092 0.41207 0.0
H1289 H 0.65703 0.564 0.26338 0.0
H1290 H 0.64886 0.55033 0.31744 0.0
H1291 H 0.6593 0.57005 0.33316 0.0
H1292 H 0.63689 0.52507 0.47345 0.0
H1293 H 0.66244 0.57228 0.51464 0.0
H1294 H 0.66275 0.52454 0.38138 0.0
H1295 H 0.64972 0.52758 0.34267 0.0
H1296 H 0.64298 0.51474 0.39952 0.0
H1297 H 0.69373 0.58185 0.43159 0.0
H1298 H 0.68346 0.58971 0.4647 0.0
H1299 H 0.68109 0.58554 0.39311 0.0
C1300 C 0.45063 0.13735 0.25531 0.0
C1301 C 0.4361 0.13549 0.25979 0.0
C1302 C 0.45613 0.13139 0.29461 0.0
C1303 C 0.44678 0.12323 0.33888 0.0
C1304 C 0.43237 0.1219 0.34489 0.0
C1305 C 0.42724 0.12816 0.30541 0.0
C1306 C 0.47167 0.13327 0.28749 0.0
C1307 C 0.42204 0.11318 0.39146 0.0
C1308 C 0.45152 0.09205 0.40209 0.0
C1309 C 0.45856 0.09865 0.45137 0.0
C1310 C 0.44785 0.10005 0.3647 0.0
C1311 C 0.45151 0.11507 0.37665 0.0
C1312 C 0.45911 0.12199 0.42546 0.0
C1313 C 0.46245 0.11365 0.46249 0.0
C1314 C 0.43963 0.09226 0.31317 0.0
C1315 C 0.4634 0.13807 0.43905 0.0
H1316 H 0.45757 0.14314 0.22033 0.0
H1317 H 0.416 0.12668 0.30908 0.0
H1318 H 0.47825 0.13738 0.32566 0.0
H1319 H 0.4706 0.12216 0.27796 0.0
H1320 H 0.47813 0.14129 0.25429 0.0
H1321 H 0.41161 0.11404 0.39216 0.0
H1322 H 0.41872 0.10107 0.38812 0.0
H1323 H 0.42802 0.11737 0.43071 0.0
H1324 H 0.44846 0.08045 0.39337 0.0
H1325 H 0.468 0.11884 0.50041 0.0
H1326 H 0.44605 0.09894 0.27728 0.0
H1327 H 0.4284 0.0915 0.31218 0.0
H1328 H 0.43792 0.08066 0.30943 0.0
H1329 H 0.46998 0.14574 0.40527 0.0
H1330 H 0.4702 0.14213 0.47685 0.0
H1331 H 0.45304 0.13889 0.4442 0.0
C1332 C 0.44758 0.31667 0.18331 0.0
C1333 C 0.43733 0.30129 0.19242 0.0
C1334 C 0.45448 0.32664 0.22674 0.0
C1335 C 0.45093 0.32111 0.28052 0.0
C1336 C 0.44119 0.30547 0.28994 0.0
C1337 C 0.43454 0.29571 0.24566 0.0
C1338 C 0.46495 0.34323 0.21508 0.0
C1339 C 0.43709 0.29918 0.34677 0.0
C1340 C 0.47432 0.34672 0.39635 0.0
C1341 C 0.46547 0.35306 0.41195 0.0
C1342 C 0.46974 0.33622 0.35367 0.0
C1343 C 0.45596 0.33193 0.32649 0.0
C1344 C 0.44694 0.33819 0.34242 0.0
C1345 C 0.45183 0.34872 0.38476 0.0
C1346 C 0.47966 0.32982 0.33735 0.0
C1347 C 0.43211 0.33383 0.31461 0.0
H1348 H 0.44994 0.32102 0.14217 0.0
H1349 H 0.42668 0.28383 0.25294 0.0
H1350 H 0.45942 0.34975 0.22741 0.0
H1351 H 0.47553 0.34759 0.239 0.0
H1352 H 0.46793 0.3454 0.17137 0.0
H1353 H 0.43075 0.28662 0.34722 0.0
H1354 H 0.4474 0.30324 0.37196 0.0
H1355 H 0.42997 0.30326 0.36609 0.0
H1356 H 0.48487 0.35004 0.41718 0.0
H1357 H 0.44487 0.35349 0.39673 0.0
H1358 H 0.48323 0.33273 0.29444 0.0
H1359 H 0.47322 0.3173 0.3402 0.0
H1360 H 0.48993 0.33415 0.36311 0.0
H1361 H 0.43411 0.33688 0.27099 0.0
H1362 H 0.42628 0.33949 0.33283 0.0
H1363 H 0.42445 0.32141 0.31703 0.0
C1364 C 0.70569 0.13582 0.29691 0.0
C1365 C 0.70041 0.12924 0.24579 0.0
C1366 C 0.69608 0.13098 0.34226 0.0
C1367 C 0.68089 0.11926 0.33626 0.0
C1368 C 0.67541 0.11282 0.28456 0.0
C1369 C 0.68523 0.11791 0.23993 0.0
C1370 C 0.70226 0.13818 0.39678 0.0
C1371 C 0.65928 0.10027 0.2766 0.0
C1372 C 0.66001 0.09485 0.45752 0.0
C1373 C 0.65052 0.10053 0.47193 0.0
C1374 C 0.67013 0.10102 0.41397 0.0
C1375 C 0.67083 0.11323 0.38434 0.0
C1376 C 0.6615 0.11923 0.39932 0.0
C1377 C 0.65141 0.11278 0.44288 0.0
C1378 C 0.67986 0.09427 0.39898 0.0
C1379 C 0.66201 0.13231 0.36879 0.0
H1380 H 0.71739 0.14462 0.30172 0.0
H1381 H 0.68104 0.11279 0.20055 0.0
H1382 H 0.69509 0.14242 0.41456 0.0
H1383 H 0.70197 0.1296 0.42517 0.0
H1384 H 0.71408 0.14772 0.39405 0.0
H1385 H 0.65665 0.09685 0.23339 0.0
H1386 H 0.6572 0.09022 0.30068 0.0
H1387 H 0.65131 0.10387 0.29149 0.0
H1388 H 0.6594 0.08539 0.47977 0.0
H1389 H 0.64416 0.11728 0.45395 0.0
H1390 H 0.69198 0.10316 0.39918 0.0
H1391 H 0.67708 0.08959 0.35725 0.0
H1392 H 0.67829 0.0851 0.42716 0.0
H1393 H 0.67376 0.142 0.36779 0.0
H1394 H 0.65455 0.13612 0.3872 0.0
H1395 H 0.65845 0.12895 0.32613 0.0
C1396 C 0.88657 0.53915 0.45153 0.0
C1397 C 0.90062 0.55005 0.47256 0.0
C1398 C 0.87977 0.5427 0.40891 0.0
C1399 C 0.88728 0.55743 0.38654 0.0
C1400 C 0.90138 0.56853 0.40798 0.0
C1401 C 0.90785 0.56471 0.45093 0.0
C1402 C 0.86466 0.53062 0.38734 0.0
C1403 C 0.90978 0.58434 0.38482 0.0
C1404 C 0.87859 0.563 0.24172 0.0
C1405 C 0.86939 0.56945 0.24937 0.0
C1406 C 0.88432 0.55886 0.28607 0.0
C1407 C 0.88069 0.56114 0.33935 0.0
C1408 C 0.87114 0.56731 0.34742 0.0
C1409 C 0.86563 0.57145 0.30227 0.0
C1410 C 0.89453 0.55235 0.2759 0.0
C1411 C 0.86694 0.56978 0.40373 0.0
H1412 H 0.88088 0.52781 0.46828 0.0
H1413 H 0.91872 0.57318 0.46692 0.0
H1414 H 0.8564 0.53467 0.38849 0.0
H1415 H 0.86584 0.52818 0.34433 0.0
H1416 H 0.85999 0.51992 0.41084 0.0
H1417 H 0.92045 0.59174 0.40699 0.0
H1418 H 0.91253 0.58388 0.34155 0.0
H1419 H 0.90253 0.58958 0.38634 0.0
H1420 H 0.88155 0.56141 0.20097 0.0
H1421 H 0.85849 0.57637 0.3085 0.0
H1422 H 0.88986 0.54116 0.29591 0.0
H1423 H 0.90584 0.55986 0.29384 0.0
H1424 H 0.89596 0.55098 0.23196 0.0
H1425 H 0.86179 0.55903 0.42699 0.0
H1426 H 0.85887 0.57408 0.40302 0.0
H1427 H 0.87726 0.57802 0.42591 0.0
C1428 C 0.54783 0.65524 0.5624 0.0
C1429 C 0.53263 0.64464 0.552 0.0
C1430 C 0.55186 0.66575 0.60459 0.0
C1431 C 0.54041 0.66562 0.63735 0.0
C1432 C 0.52503 0.6551 0.6267 0.0
C1433 C 0.52131 0.64473 0.584 0.0
C1434 C 0.5684 0.67685 0.61462 0.0
C1435 C 0.51254 0.65462 0.661 0.0
C1436 C 0.55368 0.68248 0.77697 0.0
C1437 C 0.55622 0.6972 0.76971 0.0
C1438 C 0.54792 0.67188 0.73481 0.0
C1439 C 0.54471 0.67613 0.68408 0.0
C1440 C 0.54669 0.69078 0.67708 0.0
C1441 C 0.55239 0.70115 0.72013 0.0
C1442 C 0.54583 0.65631 0.74394 0.0
C1443 C 0.5434 0.6957 0.62345 0.0
H1444 H 0.55665 0.6553 0.53768 0.0
H1445 H 0.50953 0.63658 0.57616 0.0
H1446 H 0.57046 0.68859 0.6137 0.0
H1447 H 0.57167 0.67494 0.65553 0.0
H1448 H 0.57587 0.67584 0.58414 0.0
H1449 H 0.50113 0.64616 0.64601 0.0
H1450 H 0.51371 0.65178 0.70352 0.0
H1451 H 0.51343 0.6659 0.66157 0.0
H1452 H 0.55647 0.67931 0.81538 0.0
H1453 H 0.5543 0.7125 0.7143 0.0
H1454 H 0.5539 0.65481 0.71817 0.0
H1455 H 0.53426 0.64749 0.73193 0.0
H1456 H 0.54771 0.65442 0.78694 0.0
H1457 H 0.55149 0.69618 0.59236 0.0
H1458 H 0.54433 0.707 0.62598 0.0
H1459 H 0.53187 0.68736 0.60927 0.0
C1460 C 0.30821 0.86589 0.76945 0.0
C1461 C 0.30536 0.8773 0.78717 0.0
C1462 C 0.31856 0.86861 0.72752 0.0
C1463 C 0.32607 0.883 0.70244 0.0
C1464 C 0.3232 0.89453 0.72007 0.0
C1465 C 0.31294 0.89156 0.76244 0.0
C1466 C 0.32147 0.85611 0.71003 0.0
C1467 C 0.33088 0.90998 0.69385 0.0
C1468 C 0.36247 0.89754 0.62279 0.0
C1469 C 0.35716 0.89577 0.5693 0.0
C1470 C 0.35238 0.89268 0.66673 0.0
C1471 C 0.33667 0.88603 0.65678 0.0
C1472 C 0.33121 0.88351 0.60285 0.0
C1473 C 0.34152 0.88834 0.55973 0.0
C1474 C 0.35858 0.89534 0.72379 0.0
C1475 C 0.31453 0.87649 0.59063 0.0
H1476 H 0.30244 0.85487 0.78868 0.0
H1477 H 0.31076 0.9004 0.77585 0.0
H1478 H 0.31834 0.85329 0.66676 0.0
H1479 H 0.3337 0.85995 0.7136 0.0
H1480 H 0.31499 0.84568 0.73463 0.0
H1481 H 0.32741 0.9177 0.71243 0.0
H1482 H 0.34334 0.91524 0.69745 0.0
H1483 H 0.32814 0.9089 0.64993 0.0
H1484 H 0.37453 0.90315 0.63047 0.0
H1485 H 0.33732 0.88684 0.5185 0.0
H1486 H 0.35236 0.88489 0.74839 0.0
H1487 H 0.35696 0.9042 0.74348 0.0
H1488 H 0.37082 0.89903 0.72459 0.0
H1489 H 0.30796 0.86577 0.61342 0.0
H1490 H 0.31204 0.87414 0.54668 0.0
H1491 H 0.31051 0.88426 0.60397 0.0
C1492 C 0.13306 0.42598 0.71056 0.0
C1493 C 0.12834 0.42673 0.76333 0.0
C1494 C 0.12794 0.43067 0.66583 0.0
C1495 C 0.11779 0.43613 0.67418 0.0
C1496 C 0.11339 0.43739 0.72747 0.0
C1497 C 0.11877 0.43273 0.77143 0.0
C1498 C 0.133 0.42934 0.60954 0.0
C1499 C 0.10254 0.44312 0.73792 0.0
C1500 C 0.11103 0.45785 0.56333 0.0
C1501 C 0.09747 0.44653 0.54051 0.0
C1502 C 0.11795 0.45459 0.6063 0.0
C1503 C 0.11106 0.43969 0.62713 0.0
C1504 C 0.09743 0.4282 0.60405 0.0
C1505 C 0.09083 0.43175 0.56084 0.0
C1506 C 0.13255 0.46708 0.62968 0.0
C1507 C 0.08969 0.4122 0.62554 0.0
H1508 H 0.14053 0.42144 0.70403 0.0
H1509 H 0.11509 0.43339 0.8121 0.0
H1510 H 0.12317 0.42076 0.58601 0.0
H1511 H 0.13754 0.44025 0.58764 0.0
H1512 H 0.14181 0.42598 0.61029 0.0
H1513 H 0.10087 0.44415 0.78193 0.0
H1514 H 0.10674 0.45433 0.7186 0.0
H1515 H 0.09139 0.43527 0.71949 0.0
H1516 H 0.11626 0.46929 0.54757 0.0
H1517 H 0.08035 0.42295 0.54345 0.0
H1518 H 0.1414 0.46381 0.62834 0.0
H1519 H 0.13089 0.46892 0.67291 0.0
H1520 H 0.13674 0.47794 0.60752 0.0
H1521 H 0.0975 0.40761 0.62351 0.0
H1522 H 0.07926 0.40454 0.60254 0.0
H1523 H 0.08664 0.4121 0.66882 0.0
C1524 C 0.1143 0.67272 0.74416 0.0
C1525 C 0.12788 0.67669 0.77112 0.0
C1526 C 0.10908 0.66215 0.70196 0.0
C1527 C 0.1177 0.65543 0.686 0.0
C1528 C 0.13135 0.65926 0.71326 0.0
C1529 C 0.13627 0.66984 0.75574 0.0
C1530 C 0.0944 0.65829 0.674 0.0
C1531 C 0.14085 0.65236 0.69698 0.0
C1532 C 0.09585 0.61977 0.60251 0.0
C1533 C 0.09912 0.62563 0.54967 0.0
C1534 C 0.10241 0.62924 0.64757 0.0
C1535 C 0.11254 0.64486 0.63933 0.0
C1536 C 0.11652 0.65065 0.58602 0.0
C1537 C 0.10972 0.64098 0.54181 0.0
C1538 C 0.09788 0.62268 0.7039 0.0
C1539 C 0.1274 0.66723 0.57564 0.0
H1540 H 0.10769 0.67789 0.75601 0.0
H1541 H 0.14678 0.67286 0.77645 0.0
H1542 H 0.09656 0.66155 0.63058 0.0
H1543 H 0.08648 0.64591 0.67561 0.0
H1544 H 0.08879 0.66413 0.69266 0.0
H1545 H 0.15089 0.65611 0.72357 0.0
H1546 H 0.13396 0.63984 0.69849 0.0
H1547 H 0.14477 0.65553 0.65451 0.0
H1548 H 0.08771 0.6079 0.60881 0.0
H1549 H 0.11245 0.64554 0.50101 0.0
H1550 H 0.09095 0.62699 0.72319 0.0
H1551 H 0.10803 0.62629 0.72965 0.0
H1552 H 0.0912 0.61012 0.70345 0.0
H1553 H 0.12216 0.67398 0.58859 0.0
H1554 H 0.13051 0.66961 0.53209 0.0
H1555 H 0.13787 0.67115 0.59979 0.0
C1556 C 0.3149 0.46274 0.74576 0.0
C1557 C 0.3108 0.44839 0.76645 0.0
C1558 C 0.3257 0.46926 0.70424 0.0
C1559 C 0.33246 0.46118 0.68291 0.0
C1560 C 0.32838 0.44671 0.70371 0.0
C1561 C 0.31763 0.44051 0.74528 0.0
C1562 C 0.32984 0.48474 0.68307 0.0
C1563 C 0.3353 0.43771 0.68176 0.0
C1564 C 0.34909 0.46832 0.54162 0.0
C1565 C 0.36465 0.47588 0.55271 0.0
C1566 C 0.33847 0.46409 0.58355 0.0
C1567 C 0.34354 0.46756 0.63784 0.0
C1568 C 0.35923 0.4759 0.64911 0.0
C1569 C 0.36962 0.47996 0.60634 0.0
C1570 C 0.32182 0.45521 0.56994 0.0
C1571 C 0.36504 0.47989 0.70655 0.0
H1572 H 0.30971 0.46892 0.76208 0.0
H1573 H 0.31453 0.42941 0.76101 0.0
H1574 H 0.3422 0.49253 0.68712 0.0
H1575 H 0.32708 0.48404 0.63926 0.0
H1576 H 0.32381 0.48968 0.70491 0.0
H1577 H 0.33101 0.42669 0.70283 0.0
H1578 H 0.33277 0.43552 0.63783 0.0
H1579 H 0.34778 0.44427 0.68616 0.0
H1580 H 0.34514 0.46524 0.50023 0.0
H1581 H 0.38163 0.4859 0.61519 0.0
H1582 H 0.3157 0.46035 0.58973 0.0
H1583 H 0.31692 0.44351 0.58573 0.0
H1584 H 0.31974 0.45464 0.52553 0.0
H1585 H 0.35929 0.48515 0.72814 0.0
H1586 H 0.37745 0.48777 0.708 0.0
H1587 H 0.36245 0.46944 0.72895 0.0
C1588 C 0.54835 0.87835 0.77322 0.0
C1589 C 0.54367 0.8629 0.77589 0.0
C1590 C 0.54335 0.88411 0.73156 0.0
C1591 C 0.53344 0.87417 0.69151 0.0
C1592 C 0.52836 0.8585 0.69463 0.0
C1593 C 0.53354 0.85303 0.7369 0.0
C1594 C 0.54899 0.90089 0.72962 0.0
C1595 C 0.51778 0.84759 0.65255 0.0
C1596 C 0.51298 0.88912 0.60527 0.0
C1597 C 0.52237 0.89442 0.55946 0.0
C1598 C 0.51621 0.88212 0.64813 0.0
C1599 C 0.52911 0.88039 0.6449 0.0
C1600 C 0.53842 0.8854 0.59823 0.0
C1601 C 0.53494 0.89236 0.55609 0.0
C1602 C 0.50606 0.87692 0.69739 0.0
C1603 C 0.55226 0.88372 0.59332 0.0
H1604 H 0.55611 0.88605 0.80337 0.0
H1605 H 0.52985 0.84108 0.73878 0.0
H1606 H 0.55582 0.90583 0.69237 0.0
H1607 H 0.5393 0.90294 0.72779 0.0
H1608 H 0.55606 0.90696 0.76537 0.0
H1609 H 0.51418 0.83565 0.66257 0.0
H1610 H 0.50757 0.84873 0.64865 0.0
H1611 H 0.52345 0.85032 0.61239 0.0
H1612 H 0.50322 0.89063 0.60808 0.0
H1613 H 0.5422 0.89633 0.52067 0.0
H1614 H 0.51248 0.88351 0.73344 0.0
H1615 H 0.50216 0.86485 0.70596 0.0
H1616 H 0.496 0.8783 0.69223 0.0
H1617 H 0.56054 0.89047 0.62539 0.0
H1618 H 0.55788 0.88752 0.5532 0.0
H1619 H 0.54914 0.87174 0.59945 0.0
C1620 C 0.36517 0.12711 0.11014 0.0
C1621 C 0.37629 0.12338 0.12293 0.0
C1622 C 0.35012 0.11788 0.12689 0.0
C1623 C 0.34613 0.10463 0.15727 0.0
C1624 C 0.35727 0.10075 0.1701 0.0
C1625 C 0.37221 0.11016 0.15269 0.0
C1626 C 0.33851 0.12234 0.11224 0.0
C1627 C 0.35343 0.08672 0.20251 0.0
C1628 C 0.31021 0.08846 0.24148 0.0
C1629 C 0.2998 0.07683 0.2078 0.0
C1630 C 0.32539 0.09748 0.22588 0.0
C1631 C 0.33025 0.0948 0.1754 0.0
C1632 C 0.31987 0.0829 0.14171 0.0
C1633 C 0.30478 0.07404 0.15834 0.0
C1634 C 0.33618 0.11003 0.26299 0.0
C1635 C 0.32464 0.07969 0.0876 0.0
H1636 H 0.36822 0.1373 0.08716 0.0
H1637 H 0.38074 0.1072 0.16292 0.0
H1638 H 0.32922 0.11317 0.08849 0.0
H1639 H 0.33343 0.12392 0.14967 0.0
H1640 H 0.34344 0.13295 0.08812 0.0
H1641 H 0.36342 0.0853 0.20906 0.0
H1642 H 0.34878 0.08724 0.24263 0.0
H1643 H 0.34456 0.07655 0.18129 0.0
H1644 H 0.30646 0.09068 0.27976 0.0
H1645 H 0.29682 0.06508 0.13203 0.0
H1646 H 0.34057 0.1211 0.24233 0.0
H1647 H 0.34604 0.10865 0.27252 0.0
H1648 H 0.33073 0.11032 0.30165 0.0
H1649 H 0.32867 0.0897 0.06072 0.0
H1650 H 0.31528 0.06977 0.06684 0.0
H1651 H 0.33421 0.07758 0.09317 0.0
C1652 C 0.89136 0.2531 0.11566 0.0
C1653 C 0.87761 0.24827 0.14277 0.0
C1654 C 0.89986 0.24593 0.1244 0.0
C1655 C 0.89444 0.23362 0.16099 0.0
C1656 C 0.88045 0.22852 0.18775 0.0
C1657 C 0.87221 0.23591 0.17836 0.0
C1658 C 0.91474 0.25167 0.09515 0.0
C1659 C 0.87428 0.21538 0.22691 0.0
C1660 C 0.90984 0.20665 0.15354 0.0
C1661 C 0.9202 0.21174 0.19668 0.0
C1662 C 0.90148 0.21376 0.14107 0.0
C1663 C 0.90357 0.22627 0.17241 0.0
C1664 C 0.91413 0.23159 0.21555 0.0
C1665 C 0.92231 0.22424 0.22721 0.0
C1666 C 0.89029 0.20777 0.0948 0.0
C1667 C 0.91668 0.24493 0.24979 0.0
H1668 H 0.89562 0.26264 0.08808 0.0
H1669 H 0.86157 0.23207 0.19936 0.0
H1670 H 0.92409 0.2557 0.12507 0.0
H1671 H 0.91471 0.24237 0.07181 0.0
H1672 H 0.91715 0.26109 0.06685 0.0
H1673 H 0.86301 0.21253 0.2432 0.0
H1674 H 0.87328 0.20523 0.20654 0.0
H1675 H 0.8822 0.21811 0.26144 0.0
H1676 H 0.90814 0.197 0.12972 0.0
H1677 H 0.93032 0.22828 0.2605 0.0
H1678 H 0.89297 0.2169 0.0649 0.0
H1679 H 0.87873 0.20394 0.1103 0.0
H1680 H 0.89027 0.19816 0.07358 0.0
H1681 H 0.92003 0.25496 0.22362 0.0
H1682 H 0.92558 0.24788 0.28101 0.0
H1683 H 0.90601 0.24238 0.2705 0.0
C1684 C 0.74431 0.63578 0.13299 0.0
C1685 C 0.74697 0.62639 0.16726 0.0
C1686 C 0.75213 0.65154 0.14007 0.0
C1687 C 0.76289 0.65803 0.18238 0.0
C1688 C 0.76568 0.64862 0.21695 0.0
C1689 C 0.75768 0.63292 0.20899 0.0
C1690 C 0.74886 0.66123 0.10243 0.0
C1691 C 0.77708 0.65515 0.26245 0.0
C1692 C 0.79277 0.69955 0.1718 0.0
C1693 C 0.78687 0.70629 0.20613 0.0
C1694 C 0.7851 0.68384 0.16378 0.0
C1695 C 0.77118 0.67467 0.19067 0.0
C1696 C 0.76519 0.68139 0.22554 0.0
C1697 C 0.77312 0.69713 0.23291 0.0
C1698 C 0.79185 0.67705 0.12643 0.0
C1699 C 0.75037 0.67197 0.25487 0.0
H1700 H 0.73605 0.63083 0.10065 0.0
H1701 H 0.75983 0.62575 0.23564 0.0
H1702 H 0.74481 0.66774 0.12614 0.0
H1703 H 0.75939 0.66954 0.0814 0.0
H1704 H 0.74021 0.65442 0.07139 0.0
H1705 H 0.778 0.64629 0.28548 0.0
H1706 H 0.78839 0.66331 0.24589 0.0
H1707 H 0.77386 0.66146 0.29101 0.0
H1708 H 0.8034 0.70654 0.15099 0.0
H1709 H 0.76847 0.70225 0.25945 0.0
H1710 H 0.7839 0.67094 0.09276 0.0
H1711 H 0.79368 0.66867 0.14886 0.0
H1712 H 0.80282 0.68574 0.10884 0.0
H1713 H 0.74117 0.66569 0.22507 0.0
H1714 H 0.74728 0.67894 0.28066 0.0
H1715 H 0.75104 0.66345 0.28091 0.0
C1716 C 0.0723 0.29151 0.83524 0.0
C1717 C 0.07988 0.28794 0.79554 0.0
C1718 C 0.07877 0.30614 0.85697 0.0
C1719 C 0.0931 0.3175 0.83821 0.0
C1720 C 0.10072 0.31404 0.79762 0.0
C1721 C 0.09404 0.29928 0.7769 0.0
C1722 C 0.07035 0.30939 0.90041 0.0
C1723 C 0.11597 0.32591 0.77631 0.0
C1724 C 0.1043 0.35863 0.85823 0.0
C1725 C 0.1142 0.36274 0.9026 0.0
C1726 C 0.09728 0.34392 0.83707 0.0
C1727 C 0.10015 0.33301 0.86111 0.0
C1728 C 0.1099 0.33699 0.90653 0.0
C1729 C 0.11685 0.35183 0.92665 0.0
C1730 C 0.087 0.34011 0.78844 0.0
C1731 C 0.11311 0.3256 0.93348 0.0
H1732 H 0.06138 0.2828 0.85005 0.0
H1733 H 0.09994 0.29662 0.74616 0.0
H1734 H 0.07728 0.31332 0.93789 0.0
H1735 H 0.06835 0.31862 0.88698 0.0
H1736 H 0.05928 0.29931 0.91044 0.0
H1737 H 0.12028 0.32145 0.74404 0.0
H1738 H 0.11521 0.33561 0.75964 0.0
H1739 H 0.12431 0.33032 0.8099 0.0
H1740 H 0.10221 0.367 0.83928 0.0
H1741 H 0.12446 0.3549 0.961 0.0
H1742 H 0.07562 0.33048 0.7981 0.0
H1743 H 0.09153 0.33653 0.75413 0.0
H1744 H 0.08578 0.34983 0.77501 0.0
H1745 H 0.10237 0.31558 0.94655 0.0
H1746 H 0.12061 0.33038 0.96939 0.0
H1747 H 0.11857 0.3216 0.90408 0.0
C1748 C 0.69362 0.797 0.77866 0.0
C1749 C 0.70274 0.79066 0.76736 0.0
C1750 C 0.67817 0.78779 0.79008 0.0
C1751 C 0.67168 0.77187 0.78999 0.0
C1752 C 0.68076 0.76539 0.77766 0.0
C1753 C 0.69619 0.77486 0.76657 0.0
C1754 C 0.66883 0.79511 0.80308 0.0
C1755 C 0.67421 0.74845 0.7769 0.0
C1756 C 0.63563 0.74891 0.87106 0.0
C1757 C 0.62454 0.74425 0.83052 0.0
C1758 C 0.65104 0.7578 0.85833 0.0
C1759 C 0.65545 0.76202 0.80374 0.0
C1760 C 0.64434 0.75709 0.7625 0.0
C1761 C 0.62901 0.74831 0.77641 0.0
C1762 C 0.66258 0.7629 0.90343 0.0
C1763 C 0.64864 0.76126 0.70377 0.0
H1764 H 0.69858 0.80919 0.77937 0.0
H1765 H 0.70314 0.76986 0.7578 0.0
H1766 H 0.65913 0.79099 0.77468 0.0
H1767 H 0.6641 0.7919 0.84465 0.0
H1768 H 0.67553 0.80765 0.8005 0.0
H1769 H 0.68269 0.7452 0.76492 0.0
H1770 H 0.66978 0.7437 0.81769 0.0
H1771 H 0.66455 0.74315 0.7482 0.0
H1772 H 0.63226 0.74585 0.91296 0.0
H1773 H 0.62052 0.74469 0.74481 0.0
H1774 H 0.66894 0.77544 0.90553 0.0
H1775 H 0.67089 0.75918 0.89503 0.0
H1776 H 0.6573 0.7584 0.94361 0.0
H1777 H 0.65446 0.77373 0.69895 0.0
H1778 H 0.63866 0.75608 0.67638 0.0
H1779 H 0.65668 0.75756 0.69068 0.0
C1780 C 0.20159 0.90452 0.81945 0.0
C1781 C 0.20663 0.91449 0.77515 0.0
C1782 C 0.20886 0.89646 0.83401 0.0
C1783 C 0.22152 0.89847 0.8037 0.0
C1784 C 0.22667 0.90852 0.75897 0.0
C1785 C 0.21913 0.91639 0.74513 0.0
C1786 C 0.203 0.88578 0.88181 0.0
C1787 C 0.24016 0.911 0.72584 0.0
C1788 C 0.2487 0.88818 0.87032 0.0
C1789 C 0.24425 0.87401 0.8471 0.0
C1790 C 0.24142 0.89628 0.85647 0.0
C1791 C 0.22935 0.89003 0.81875 0.0
C1792 C 0.22474 0.87571 0.79541 0.0
C1793 C 0.23228 0.86789 0.80976 0.0
C1794 C 0.24668 0.91156 0.88202 0.0
C1795 C 0.21185 0.86864 0.75528 0.0
H1796 H 0.19192 0.90297 0.84281 0.0
H1797 H 0.22312 0.9241 0.71094 0.0
H1798 H 0.19984 0.87418 0.86862 0.0
H1799 H 0.21201 0.88926 0.91287 0.0
H1800 H 0.19298 0.88543 0.90097 0.0
H1801 H 0.24278 0.91925 0.69243 0.0
H1802 H 0.25026 0.91518 0.75233 0.0
H1803 H 0.23805 0.90012 0.70807 0.0
H1804 H 0.25797 0.893 0.8991 0.0
H1805 H 0.22874 0.85694 0.79172 0.0
H1806 H 0.23722 0.91147 0.90447 0.0
H1807 H 0.25028 0.92034 0.85 0.0
H1808 H 0.25627 0.91485 0.9105 0.0
H1809 H 0.20139 0.86736 0.77403 0.0
H1810 H 0.2096 0.85737 0.74112 0.0
H1811 H 0.21445 0.87614 0.71949 0.0
C1812 C 0.68323 0.92203 0.75677 0.0
C1813 C 0.6917 0.91522 0.77176 0.0
C1814 C 0.66764 0.91486 0.76714 0.0
C1815 C 0.66037 0.90056 0.79296 0.0
C1816 C 0.66881 0.89352 0.80735 0.0
C1817 C 0.68437 0.90095 0.79663 0.0
C1818 C 0.65898 0.92269 0.75124 0.0
C1819 C 0.66143 0.87824 0.83475 0.0
C1820 C 0.62378 0.88815 0.8696 0.0
C1821 C 0.61296 0.8781 0.83268 0.0
C1822 C 0.63924 0.89567 0.8569 0.0
C1823 C 0.644 0.89305 0.8061 0.0
C1824 C 0.63314 0.88301 0.76849 0.0
C1825 C 0.61775 0.87566 0.78222 0.0
C1826 C 0.65051 0.90631 0.89803 0.0
C1827 C 0.63781 0.87993 0.71397 0.0
H1828 H 0.68882 0.93305 0.73754 0.0
H1829 H 0.69082 0.89558 0.8082 0.0
H1830 H 0.64943 0.91529 0.72417 0.0
H1831 H 0.65408 0.92489 0.78793 0.0
H1832 H 0.66623 0.93361 0.73017 0.0
H1833 H 0.66952 0.87413 0.84197 0.0
H1834 H 0.65658 0.87887 0.8743 0.0
H1835 H 0.65196 0.86979 0.80954 0.0
H1836 H 0.62018 0.89013 0.90862 0.0
H1837 H 0.60946 0.86792 0.75343 0.0
H1838 H 0.65745 0.91772 0.87992 0.0
H1839 H 0.65835 0.90224 0.90989 0.0
H1840 H 0.64494 0.90736 0.93519 0.0
H1841 H 0.64445 0.89067 0.69129 0.0
H1842 H 0.62794 0.87205 0.68887 0.0
H1843 H 0.64522 0.87498 0.71972 0.0
C1844 C 0.08868 0.78422 0.82465 0.0
C1845 C 0.07587 0.77879 0.79127 0.0
C1846 C 0.09614 0.77597 0.83181 0.0
C1847 C 0.09063 0.7619 0.80517 0.0
C1848 C 0.0777 0.75632 0.77151 0.0
C1849 C 0.07049 0.76486 0.76483 0.0
C1850 C 0.10996 0.78232 0.86778 0.0
C1851 C 0.07147 0.74132 0.74267 0.0
C1852 C 0.11796 0.74735 0.78501 0.0
C1853 C 0.11407 0.73707 0.82808 0.0
C1854 C 0.11034 0.75541 0.77681 0.0
C1855 C 0.09848 0.75309 0.8124 0.0
C1856 C 0.09437 0.74262 0.8556 0.0
C1857 C 0.10224 0.73475 0.86302 0.0
C1858 C 0.11508 0.76655 0.73044 0.0
C1859 C 0.08174 0.73981 0.89422 0.0
H1860 H 0.09293 0.79499 0.84513 0.0
H1861 H 0.06058 0.76057 0.73908 0.0
H1862 H 0.10808 0.77434 0.90139 0.0
H1863 H 0.11983 0.7837 0.84419 0.0
H1864 H 0.11282 0.79345 0.88546 0.0
H1865 H 0.06125 0.73853 0.71827 0.0
H1866 H 0.0802 0.74151 0.71535 0.0
H1867 H 0.06851 0.73215 0.77266 0.0
H1868 H 0.12709 0.74921 0.75785 0.0
H1869 H 0.09914 0.7268 0.8963 0.0
H1870 H 0.11893 0.77807 0.74644 0.0
H1871 H 0.10529 0.76358 0.70342 0.0
H1872 H 0.12435 0.76685 0.7059 0.0
H1873 H 0.08452 0.75043 0.91574 0.0
H1874 H 0.07968 0.731 0.92487 0.0
H1875 H 0.07112 0.73622 0.8713 0.0
C1876 C 0.20898 0.3017 0.83824 0.0
C1877 C 0.2149 0.29427 0.80764 0.0
C1878 C 0.21687 0.3175 0.84336 0.0
C1879 C 0.23104 0.32607 0.81736 0.0
C1880 C 0.23703 0.31867 0.78602 0.0
C1881 C 0.22887 0.30285 0.78146 0.0
C1882 C 0.2101 0.32501 0.87696 0.0
C1883 C 0.25212 0.32745 0.75777 0.0
C1884 C 0.24554 0.36785 0.79369 0.0
C1885 C 0.25563 0.37447 0.83714 0.0
C1886 C 0.23753 0.35211 0.78653 0.0
C1887 C 0.23969 0.34278 0.82365 0.0
C1888 C 0.24995 0.34939 0.86731 0.0
C1889 C 0.25779 0.36516 0.87356 0.0
C1890 C 0.22666 0.34545 0.73954 0.0
C1891 C 0.25256 0.33978 0.90764 0.0
H1892 H 0.19817 0.29516 0.8585 0.0
H1893 H 0.23353 0.2972 0.75775 0.0
H1894 H 0.21775 0.33126 0.91119 0.0
H1895 H 0.20889 0.33338 0.85196 0.0
H1896 H 0.19883 0.31674 0.89369 0.0
H1897 H 0.25508 0.32001 0.73424 0.0
H1898 H 0.25199 0.33589 0.72977 0.0
H1899 H 0.26115 0.33378 0.7881 0.0
H1900 H 0.24381 0.37496 0.76535 0.0
H1901 H 0.26558 0.37018 0.9072 0.0
H1902 H 0.21506 0.3378 0.75496 0.0
H1903 H 0.22983 0.33856 0.7138 0.0
H1904 H 0.22644 0.35428 0.71384 0.0
H1905 H 0.24181 0.33195 0.9285 0.0
H1906 H 0.26113 0.3467 0.93878 0.0
H1907 H 0.2564 0.33274 0.88624 0.0
C1908 C 0.91937 0.69602 0.2105 0.0
C1909 C 0.91996 0.70645 0.17214 0.0
C1910 C 0.91118 0.68043 0.20018 0.0
C1911 C 0.90342 0.67515 0.1503 0.0
C1912 C 0.90415 0.68562 0.11106 0.0
C1913 C 0.91242 0.70116 0.12246 0.0
C1914 C 0.91066 0.66958 0.24298 0.0
C1915 C 0.89603 0.6804 0.05736 0.0
C1916 C 0.89217 0.63525 0.10642 0.0
C1917 C 0.87692 0.62718 0.1222 0.0
C1918 C 0.90091 0.65091 0.11489 0.0
C1919 C 0.89423 0.65865 0.13972 0.0
C1920 C 0.87882 0.65061 0.15518 0.0
C1921 C 0.87035 0.63497 0.14622 0.0
C1922 C 0.91731 0.65914 0.09778 0.0
C1923 C 0.87132 0.65851 0.18173 0.0
H1924 H 0.92518 0.70002 0.24896 0.0
H1925 H 0.91283 0.70914 0.09254 0.0
H1926 H 0.89881 0.66209 0.25633 0.0
H1927 H 0.91475 0.66223 0.22584 0.0
H1928 H 0.91763 0.67553 0.27908 0.0
H1929 H 0.89809 0.69001 0.03061 0.0
H1930 H 0.89975 0.67327 0.03584 0.0
H1931 H 0.88368 0.67332 0.06433 0.0
H1932 H 0.89734 0.62932 0.0878 0.0
H1933 H 0.85858 0.62882 0.1585 0.0
H1934 H 0.92465 0.66441 0.13368 0.0
H1935 H 0.91945 0.66839 0.06914 0.0
H1936 H 0.9207 0.65151 0.07799 0.0
H1937 H 0.87716 0.6638 0.22035 0.0
H1938 H 0.85916 0.65066 0.1905 0.0
H1939 H 0.87227 0.66771 0.1551 0.0
C1940 C 0.36361 0.26156 0.09151 0.0
C1941 C 0.3719 0.25408 0.09769 0.0
C1942 C 0.34853 0.25486 0.10898 0.0
C1943 C 0.34159 0.24034 0.13319 0.0
C1944 C 0.3499 0.23275 0.13962 0.0
C1945 C 0.36495 0.2397 0.12177 0.0
C1946 C 0.34 0.26327 0.10141 0.0
C1947 C 0.34288 0.21724 0.16522 0.0
C1948 C 0.3068 0.2273 0.22182 0.0
C1949 C 0.29519 0.2177 0.18636 0.0
C1950 C 0.32196 0.23494 0.20481 0.0
C1951 C 0.32556 0.23294 0.1511 0.0
C1952 C 0.31387 0.22347 0.11488 0.0
C1953 C 0.29883 0.21597 0.13295 0.0
C1954 C 0.33414 0.24496 0.24455 0.0
C1955 C 0.31727 0.22108 0.05726 0.0
H1956 H 0.3689 0.27268 0.07301 0.0
H1957 H 0.37126 0.23384 0.12679 0.0
H1958 H 0.32991 0.25655 0.07554 0.0
H1959 H 0.33588 0.26485 0.14118 0.0
H1960 H 0.34707 0.27454 0.08236 0.0
H1961 H 0.35093 0.21294 0.16778 0.0
H1962 H 0.33885 0.21758 0.20673 0.0
H1963 H 0.33288 0.2091 0.14132 0.0
H1964 H 0.30407 0.22872 0.26313 0.0
H1965 H 0.28993 0.20861 0.1052 0.0
H1966 H 0.34096 0.25653 0.22762 0.0
H1967 H 0.34193 0.2405 0.25146 0.0
H1968 H 0.32942 0.24572 0.28428 0.0
H1969 H 0.3237 0.23211 0.03614 0.0
H1970 H 0.30685 0.21375 0.03368 0.0
H1971 H 0.32447 0.21577 0.05738 0.0
C1972 C 0.7435 0.10135 0.11088 0.0
C1973 C 0.74996 0.11625 0.12997 0.0
C1974 C 0.75077 0.0929 0.1186 0.0
C1975 C 0.76484 0.09955 0.14592 0.0
C1976 C 0.77145 0.11459 0.16512 0.0
C1977 C 0.76392 0.12276 0.15698 0.0
C1978 C 0.74338 0.07687 0.09765 0.0
C1979 C 0.78647 0.12207 0.1943 0.0
C1980 C 0.77776 0.07411 0.21015 0.0
C1981 C 0.78811 0.07464 0.17154 0.0
C1982 C 0.77001 0.08207 0.20212 0.0
C1983 C 0.7727 0.09078 0.15441 0.0
C1984 C 0.78307 0.0913 0.11517 0.0
C1985 C 0.79064 0.08321 0.12418 0.0
C1986 C 0.759 0.08123 0.24482 0.0
C1987 C 0.78625 0.1005 0.06385 0.0
H1988 H 0.73271 0.09623 0.09003 0.0
H1989 H 0.76901 0.13427 0.17182 0.0
H1990 H 0.751 0.07572 0.06835 0.0
H1991 H 0.74141 0.06897 0.13165 0.0
H1992 H 0.7324 0.07336 0.0773 0.0
H1993 H 0.79009 0.13387 0.20655 0.0
H1994 H 0.78575 0.1155 0.23115 0.0
H1995 H 0.79533 0.12221 0.1678 0.0
H1996 H 0.77572 0.06749 0.24681 0.0
H1997 H 0.79862 0.08368 0.09413 0.0
H1998 H 0.74764 0.07696 0.2266 0.0
H1999 H 0.76269 0.09271 0.26093 0.0
H2000 H 0.758 0.07375 0.27922 0.0
H2001 H 0.77561 0.09671 0.04087 0.0
H2002 H 0.79451 0.09957 0.03707 0.0
H2003 H 0.79079 0.11259 0.07416 0.0
C2004 C 0.03063 0.43666 0.45477 0.0
C2005 C 0.03995 0.44994 0.48392 0.0
C2006 C 0.01502 0.42827 0.46472 0.0
C2007 C 0.00857 0.43333 0.5045 0.0
C2008 C 0.01791 0.44668 0.53421 0.0
C2009 C 0.0335 0.4548 0.52368 0.0
C2010 C 0.00542 0.41403 0.43245 0.0
C2011 C 0.01141 0.45248 0.57673 0.0
C2012 C 0.96679 0.42051 0.49415 0.0
C2013 C 0.96056 0.40921 0.53405 0.0
C2014 C 0.9824 0.42841 0.48402 0.0
C2015 C 0.99199 0.42485 0.51426 0.0
C2016 C 0.98577 0.41334 0.55416 0.0
C2017 C 0.97012 0.40568 0.56371 0.0
C2018 C 0.98864 0.44067 0.44131 0.0
C2019 C 0.99566 0.40919 0.58695 0.0
H2020 H 0.03554 0.43279 0.42414 0.0
H2021 H 0.04061 0.46505 0.54633 0.0
H2022 H -0.00077 0.40429 0.46029 0.0
H2023 H 0.99683 0.41523 0.4088 0.0
H2024 H 0.01224 0.41143 0.40396 0.0
H2025 H 0.02024 0.46295 0.59672 0.0
H2026 H 0.00296 0.45489 0.55791 0.0
H2027 H 0.00543 0.44371 0.60827 0.0
H2028 H 0.95949 0.42333 0.47111 0.0
H2029 H 0.96538 0.39693 0.5945 0.0
H2030 H 0.99481 0.43808 0.40996 0.0
H2031 H 0.99686 0.45164 0.46 0.0
H2032 H 0.97963 0.44197 0.42108 0.0
H2033 H 0.00209 0.40584 0.55946 0.0
H2034 H 0.98902 0.39975 0.61564 0.0
H2035 H 0.00405 0.41914 0.61043 0.0
C2036 C 0.59127 0.56146 0.57699 0.0
C2037 C 0.58735 0.54805 0.54885 0.0
C2038 C 0.58429 0.56998 0.56497 0.0
C2039 C 0.57306 0.5649 0.52408 0.0
C2040 C 0.56907 0.55139 0.49548 0.0
C2041 C 0.5763 0.54316 0.50809 0.0
C2042 C 0.58889 0.58437 0.59612 0.0
C2043 C 0.55709 0.54557 0.45182 0.0
C2044 C 0.54466 0.57856 0.52758 0.0
C2045 C 0.5503 0.58976 0.48723 0.0
C2046 C 0.55199 0.57042 0.54006 0.0
C2047 C 0.56531 0.57359 0.51169 0.0
C2048 C 0.57112 0.58493 0.47114 0.0
C2049 C 0.56352 0.59286 0.45928 0.0
C2050 C 0.54541 0.55834 0.58337 0.0
C2051 C 0.58534 0.58867 0.44022 0.0
H2052 H 0.59984 0.56535 0.60841 0.0
H2053 H 0.57318 0.53279 0.4862 0.0
H2054 H 0.59288 0.59404 0.56763 0.0
H2055 H 0.57898 0.58347 0.61807 0.0
H2056 H 0.59801 0.58691 0.62598 0.0
H2057 H 0.55537 0.53493 0.43313 0.0
H2058 H 0.54617 0.54348 0.46914 0.0
H2059 H 0.56026 0.5542 0.41946 0.0
H2060 H 0.53445 0.57607 0.54932 0.0
H2061 H 0.56797 0.60152 0.42813 0.0
H2062 H 0.55386 0.56092 0.61595 0.0
H2063 H 0.54264 0.54724 0.56579 0.0
H2064 H 0.535 0.5573 0.60182 0.0
H2065 H 0.59488 0.59203 0.46888 0.0
H2066 H 0.58851 0.59797 0.41052 0.0
H2067 H 0.58377 0.57852 0.41812 0.0
C2068 C 0.43432 0.03083 0.53084 0.0
C2069 C 0.44514 0.03378 0.57126 0.0
C2070 C 0.42633 0.01656 0.50628 0.0
C2071 C 0.42917 0.00493 0.52276 0.0
C2072 C 0.43983 0.00772 0.56431 0.0
C2073 C 0.44772 0.02213 0.58798 0.0
C2074 C 0.41507 0.01401 0.462 0.0
C2075 C 0.44305 0.99554 0.58321 0.0
C2076 C 0.39979 0.96423 0.49144 0.0
C2077 C 0.40617 0.96118 0.44612 0.0
C2078 C 0.40713 0.97844 0.51669 0.0
C2079 C 0.42113 0.9899 0.49594 0.0
C2080 C 0.42753 0.98698 0.44977 0.0
C2081 C 0.41998 0.97263 0.42547 0.0
C2082 C 0.39999 0.98113 0.56597 0.0
C2083 C 0.44241 -0.00102 0.42631 0.0
H2084 H 0.43227 0.03977 0.51754 0.0
H2085 H 0.45603 0.02431 0.61924 0.0
H2086 H 0.4186 0.01099 0.42362 0.0
H2087 H 0.40379 0.00439 0.4728 0.0
H2088 H 0.41397 0.02415 0.45464 0.0
H2089 H 0.45134 -0.0006 0.61706 0.0
H2090 H 0.43243 0.98545 0.59681 0.0
H2091 H 0.44758 0.99191 0.54902 0.0
H2092 H 0.38914 0.95543 0.50779 0.0
H2093 H 0.42497 0.97037 0.39045 0.0
H2094 H 0.39817 0.99082 0.55863 0.0
H2095 H 0.40771 0.98411 0.60128 0.0
H2096 H 0.38898 0.97107 0.5767 0.0
H2097 H 0.44171 0.00915 0.4154 0.0
H2098 H 0.44571 0.99498 0.38962 0.0
H2099 H 0.45149 0.0025 0.45711 0.0
C2100 C 0.579 0.03793 0.47026 0.0
C2101 C 0.58832 0.04336 0.5162 0.0
C2102 C 0.57035 0.02237 0.45976 0.0
C2103 C 0.57113 0.012 0.49586 0.0
C2104 C 0.58068 0.0174 0.5419 0.0
C2105 C 0.58912 0.03302 0.55164 0.0
C2106 C 0.56022 0.01701 0.41043 0.0
C2107 C 0.58188 0.00667 0.58108 0.0
C2108 C 0.53826 0.97168 0.49925 0.0
C2109 C 0.54375 0.9641 0.46727 0.0
C2110 C 0.54705 0.98728 0.50874 0.0
C2111 C 0.56172 0.99547 0.48604 0.0
C2112 C 0.56736 0.98789 0.45389 0.0
C2113 C 0.55828 0.9723 0.44471 0.0
C2114 C 0.54061 0.995 0.54292 0.0
C2115 C 0.583 0.99626 0.42934 0.0
H2116 H 0.5783 0.04584 0.44273 0.0
H2117 H 0.59635 0.03713 0.5871 0.0
H2118 H 0.56322 0.01007 0.3842 0.0
H2119 H 0.54828 0.00971 0.42315 0.0
H2120 H 0.56105 0.02655 0.386 0.0
H2121 H 0.59014 0.01272 0.6141 0.0
H2122 H 0.57067 -0.00092 0.59957 0.0
H2123 H 0.58536 -0.00058 0.55914 0.0
H2124 H 0.52703 0.96544 0.5167 0.0
H2125 H 0.56262 0.96651 0.42009 0.0
H2126 H 0.54036 0.0041 0.51913 0.0
H2127 H 0.54795 0.0004 0.57873 0.0
H2128 H 0.52897 0.98702 0.55734 0.0
H2129 H 0.58396 0.00535 0.4021 0.0
H2130 H 0.58576 0.98868 0.40574 0.0
H2131 H 0.59158 0.00176 0.46182 0.0
C2132 C 0.96708 0.55326 0.54913 0.0
C2133 C 0.956 0.54476 0.51027 0.0
C2134 C 0.98253 0.56031 0.53622 0.0
C2135 C 0.98697 0.55882 0.48323 0.0
C2136 C 0.97585 0.55031 0.44379 0.0
C2137 C 0.9605 0.54339 0.45778 0.0
C2138 C 0.99409 0.56931 0.57931 0.0
C2139 C 0.98017 0.54847 0.38686 0.0
C2140 C 0.02633 0.58761 0.43443 0.0
C2141 C 0.03419 0.57972 0.44152 0.0
C2142 C 0.01096 0.58096 0.44797 0.0
C2143 C 0.00328 0.56607 0.46908 0.0
C2144 C 0.01113 0.55805 0.47634 0.0
C2145 C 0.0265 0.56497 0.46247 0.0
C2146 C 0.00293 0.58985 0.43966 0.0
C2147 C 0.00331 0.54214 0.49873 0.0
H2148 H 0.96371 0.55439 0.58976 0.0
H2149 H 0.95202 0.53685 0.4275 0.0
H2150 H 0.00153 0.56445 0.58642 0.0
H2151 H 0.00141 0.58114 0.56541 0.0
H2152 H 0.98876 0.56948 0.61843 0.0
H2153 H 0.97014 0.54157 0.36087 0.0
H2154 H 0.98711 0.55972 0.36768 0.0
H2155 H 0.98719 0.54297 0.38809 0.0
H2156 H 0.03218 0.59902 0.41831 0.0
H2157 H 0.03248 0.5588 0.46813 0.0
H2158 H -0.00179 0.591 0.47876 0.0
H2159 H 0.99329 0.58371 0.41136 0.0
H2160 H 0.01055 0.60133 0.42306 0.0
H2161 H -0.0014 0.54195 0.5395 0.0
H2162 H 0.01105 0.53748 0.50209 0.0
H2163 H 0.99368 0.53459 0.4722 0.0
C2164 C 0.42282 0.45277 0.38931 0.0
C2165 C 0.41106 0.45268 0.41898 0.0
C2166 C 0.4302 0.44521 0.4085 0.0
C2167 C 0.42573 0.43742 0.45865 0.0
C2168 C 0.41378 0.43716 0.48858 0.0
C2169 C 0.40656 0.44477 0.46832 0.0
C2170 C 0.44285 0.44565 0.37531 0.0
C2171 C 0.40874 0.429 0.54228 0.0
C2172 C 0.43653 0.40739 0.48411 0.0
C2173 C 0.44969 0.41534 0.51547 0.0
C2174 C 0.42848 0.41437 0.46605 0.0
C2175 C 0.43368 0.42964 0.47987 0.0
C2176 C 0.44672 0.43762 0.51264 0.0
C2177 C 0.45459 0.43038 0.52999 0.0
C2178 C 0.41462 0.40551 0.43114 0.0
C2179 C 0.45253 0.4539 0.52848 0.0
H2180 H 0.42635 0.45883 0.35113 0.0
H2181 H 0.39749 0.44467 0.49157 0.0
H2182 H 0.45351 0.45105 0.39909 0.0
H2183 H 0.44024 0.43397 0.36566 0.0
H2184 H 0.44478 0.45198 0.33672 0.0
H2185 H 0.39914 0.42973 0.56021 0.0
H2186 H 0.40526 0.4169 0.53701 0.0
H2187 H 0.4183 0.43388 0.57144 0.0
H2188 H 0.43265 0.39576 0.47273 0.0
H2189 H 0.46471 0.43659 0.55434 0.0
H2190 H 0.4165 0.41089 0.39061 0.0
H2191 H 0.40476 0.40561 0.44955 0.0
H2192 H 0.41177 0.39357 0.42562 0.0
H2193 H 0.45583 0.46109 0.49158 0.0
H2194 H 0.46246 0.45831 0.55599 0.0
H2195 H 0.44347 0.45504 0.54894 0.0
C2196 C 0.2368 0.08582 0.22127 0.0
C2197 C 0.24896 0.08805 0.1883 0.0
C2198 C 0.23363 0.09754 0.23006 0.0
C2199 C 0.24285 0.11179 0.20539 0.0
C2200 C 0.25487 0.11397 0.17093 0.0
C2201 C 0.25777 0.10207 0.16276 0.0
C2202 C 0.22068 0.0948 0.26688 0.0
C2203 C 0.26496 0.12902 0.14386 0.0
C2204 C 0.23082 0.14129 0.19201 0.0
C2205 C 0.23931 0.15144 0.23342 0.0
C2206 C 0.23134 0.12795 0.18375 0.0
C2207 C 0.24056 0.12474 0.21768 0.0
C2208 C 0.24859 0.13458 0.26109 0.0
C2209 C 0.24785 0.1478 0.26847 0.0
C2210 C 0.22255 0.11765 0.13727 0.0
C2211 C 0.25851 0.1315 0.29826 0.0
H2212 H 0.22991 0.075 0.241 0.0
H2213 H 0.26715 0.10388 0.13708 0.0
H2214 H 0.22513 0.102 0.30357 0.0
H2215 H 0.21306 0.09802 0.24607 0.0
H2216 H 0.21394 0.0828 0.27989 0.0
H2217 H 0.2734 0.12865 0.11637 0.0
H2218 H 0.25805 0.13258 0.12004 0.0
H2219 H 0.27111 0.13781 0.17517 0.0
H2220 H 0.22413 0.14397 0.16491 0.0
H2221 H 0.25436 0.15552 0.30082 0.0
H2222 H 0.21585 0.10577 0.15147 0.0
H2223 H 0.23053 0.11801 0.10592 0.0
H2224 H 0.21478 0.12095 0.11808 0.0
H2225 H 0.25206 0.1199 0.31513 0.0
H2226 H 0.26311 0.13967 0.33245 0.0
H2227 H 0.26814 0.13222 0.27487 0.0
C2228 C 0.85781 0.08811 0.22235 0.0
C2229 C 0.85351 0.07722 0.26348 0.0
C2230 C 0.87191 0.10139 0.22351 0.0
C2231 C 0.88198 0.10385 0.26682 0.0
C2232 C 0.87803 0.09261 0.30714 0.0
C2233 C 0.86381 0.0794 0.30501 0.0
C2234 C 0.87573 0.1131 0.17961 0.0
C2235 C 0.88854 0.09484 0.35374 0.0
C2236 C 0.92207 0.13609 0.24534 0.0
C2237 C 0.92143 0.14812 0.27016 0.0
C2238 C 0.9095 0.1214 0.2459 0.0
C2239 C 0.89603 0.11874 0.2719 0.0
C2240 C 0.89556 0.1307 0.29912 0.0
C2241 C 0.90826 0.14524 0.29791 0.0
C2242 C 0.91042 0.10889 0.21665 0.0
C2243 C 0.8814 0.12829 0.3275 0.0
H2244 H 0.84997 0.08646 0.18985 0.0
H2245 H 0.8606 0.071 0.33682 0.0
H2246 H 0.87654 0.12345 0.19748 0.0
H2247 H 0.88689 0.11636 0.16143 0.0
H2248 H 0.86712 0.10899 0.14678 0.0
H2249 H 0.88451 0.08441 0.37841 0.0
H2250 H 0.90007 0.09838 0.33846 0.0
H2251 H 0.88948 0.104 0.38051 0.0
H2252 H 0.93224 0.13821 0.22402 0.0
H2253 H 0.9077 0.15445 0.3176 0.0
H2254 H 0.90306 0.10547 0.1802 0.0
H2255 H 0.90624 0.09878 0.24307 0.0
H2256 H 0.92214 0.11241 0.20357 0.0
H2257 H 0.87231 0.12537 0.29719 0.0
H2258 H 0.88325 0.13849 0.35012 0.0
H2259 H 0.8773 0.11869 0.35632 0.0
C2260 C 0.90119 0.75673 0.22552 0.0
C2261 C 0.91568 0.76956 0.22621 0.0
C2262 C 0.88826 0.75806 0.22102 0.0
C2263 C 0.8898 0.77261 0.21761 0.0
C2264 C 0.90437 0.78564 0.21806 0.0
C2265 C 0.91719 0.78396 0.22212 0.0
C2266 C 0.8729 0.74387 0.22027 0.0
C2267 C 0.90639 0.80131 0.21492 0.0
C2268 C 0.85469 0.7716 0.16289 0.0
C2269 C 0.84682 0.77033 0.21102 0.0
C2270 C 0.86921 0.77332 0.1643 0.0
C2271 C 0.876 0.77394 0.21502 0.0
C2272 C 0.86856 0.77379 0.26363 0.0
C2273 C 0.854 0.77191 0.26105 0.0
C2274 C 0.87678 0.77338 0.11161 0.0
C2275 C 0.87552 0.77463 0.3185 0.0
H2276 H 0.89993 0.74555 0.22824 0.0
H2277 H 0.92836 0.79392 0.22265 0.0
H2278 H 0.86613 0.74381 0.25559 0.0
H2279 H 0.86664 0.74359 0.18308 0.0
H2280 H 0.8737 0.73341 0.2216 0.0
H2281 H 0.9185 0.81027 0.21435 0.0
H2282 H 0.90084 0.80241 0.17789 0.0
H2283 H 0.90085 0.80325 0.25025 0.0
H2284 H 0.84921 0.77044 0.12409 0.0
H2285 H 0.84805 0.77116 0.29839 0.0
H2286 H 0.87664 0.76249 0.10714 0.0
H2287 H 0.88879 0.78253 0.11152 0.0
H2288 H 0.87101 0.77486 0.0759 0.0
H2289 H 0.87548 0.76391 0.32647 0.0
H2290 H 0.86926 0.77645 0.35177 0.0
H2291 H 0.88747 0.78392 0.31937 0.0
C2292 C 0.09325 0.23331 0.73571 0.0
C2293 C 0.08096 0.22222 0.76529 0.0
C2294 C 0.10672 0.23294 0.73095 0.0
C2295 C 0.10796 0.22119 0.7565 0.0
C2296 C 0.09542 0.20963 0.78471 0.0
C2297 C 0.08202 0.21026 0.78873 0.0
C2298 C 0.11983 0.24545 0.70027 0.0
C2299 C 0.09636 0.19693 0.81239 0.0
C2300 C 0.1417 0.2177 0.71228 0.0
C2301 C 0.15246 0.22658 0.7515 0.0
C2302 C 0.12689 0.21526 0.71455 0.0
C2303 C 0.12281 0.22183 0.75711 0.0
C2304 C 0.13343 0.23023 0.7981 0.0
C2305 C 0.14812 0.23251 0.79476 0.0
C2306 C 0.11584 0.20622 0.67019 0.0
C2307 C 0.12949 0.23736 0.84431 0.0
H2308 H 0.09248 0.24252 0.71704 0.0
H2309 H 0.07255 0.20163 0.81151 0.0
H2310 H 0.12926 0.25222 0.72872 0.0
H2311 H 0.12411 0.24062 0.66936 0.0
H2312 H 0.11667 0.25316 0.67965 0.0
H2313 H 0.08521 0.18807 0.82816 0.0
H2314 H 0.10073 0.1916 0.78389 0.0
H2315 H 0.10441 0.20152 0.84684 0.0
H2316 H 0.14495 0.21302 0.67885 0.0
H2317 H 0.15632 0.23926 0.82557 0.0
H2318 H 0.11347 0.21383 0.64511 0.0
H2319 H 0.10493 0.19751 0.68789 0.0
H2320 H 0.12024 0.20057 0.64327 0.0
H2321 H 0.12738 0.2463 0.82824 0.0
H2322 H 0.13865 0.24253 0.87508 0.0
H2323 H 0.11896 0.22881 0.86463 0.0
C2324 C 0.75973 0.85972 0.82687 0.0
C2325 C 0.76244 0.85263 0.78313 0.0
C2326 C 0.76067 0.87382 0.82036 0.0
C2327 C 0.76459 0.88102 0.76907 0.0
C2328 C 0.76828 0.87436 0.72573 0.0
C2329 C 0.76707 0.86018 0.73319 0.0
C2330 C 0.75657 0.88054 0.86746 0.0
C2331 C 0.77272 0.88182 0.67067 0.0
C2332 C 0.74752 0.90545 0.73474 0.0
C2333 C 0.75955 0.92003 0.7456 0.0
C2334 C 0.74914 0.89272 0.74153 0.0
C2335 C 0.76316 0.8946 0.75921 0.0
C2336 C 0.7755 0.9093 0.76878 0.0
C2337 C 0.77353 0.92187 0.76203 0.0
C2338 C 0.73569 0.87721 0.73103 0.0
C2339 C 0.79065 0.9117 0.78714 0.0
H2340 H 0.75618 0.85396 0.8656 0.0
H2341 H 0.76936 0.85483 0.69937 0.0
H2342 H 0.76539 0.89254 0.87354 0.0
H2343 H 0.74581 0.88031 0.85847 0.0
H2344 H 0.75517 0.87427 0.90587 0.0
H2345 H 0.77706 0.87616 0.64352 0.0
H2346 H 0.76273 0.88141 0.65107 0.0
H2347 H 0.78151 0.8939 0.67478 0.0
H2348 H 0.73668 0.90391 0.72202 0.0
H2349 H 0.78288 0.93311 0.77038 0.0
H2350 H 0.73257 0.87039 0.76881 0.0
H2351 H 0.73861 0.87117 0.7002 0.0
H2352 H 0.72565 0.87773 0.71658 0.0
H2353 H 0.7895 0.90651 0.8277 0.0
H2354 H 0.79935 0.92388 0.78963 0.0
H2355 H 0.79469 0.90603 0.75883 0.0
C2356 C 0.13931 0.90519 0.68547 0.0
C2357 C 0.14438 0.91472 0.73096 0.0
C2358 C 0.12494 0.89222 0.68474 0.0
C2359 C 0.11544 0.88867 0.73068 0.0
C2360 C 0.12014 0.89867 0.77549 0.0
C2361 C 0.13457 0.91162 0.77506 0.0
C2362 C 0.12029 0.88188 0.63601 0.0
C2363 C 0.11029 0.89526 0.82516 0.0
C2364 C 0.07464 0.85708 0.71596 0.0
C2365 C 0.07555 0.84463 0.73526 0.0
C2366 C 0.08748 0.87162 0.71514 0.0
C2367 C 0.10146 0.87368 0.73421 0.0
C2368 C 0.10234 0.86121 0.75488 0.0
C2369 C 0.08939 0.84686 0.7551 0.0
C2370 C 0.08616 0.88468 0.69285 0.0
C2371 C 0.11705 0.86296 0.77582 0.0
H2372 H 0.14676 0.9076 0.65096 0.0
H2373 H 0.13836 0.91897 0.81026 0.0
H2374 H 0.11993 0.87118 0.64727 0.0
H2375 H 0.10878 0.87892 0.62245 0.0
H2376 H 0.12824 0.88705 0.60143 0.0
H2377 H 0.11474 0.90501 0.85353 0.0
H2378 H 0.09859 0.89212 0.81341 0.0
H2379 H 0.10967 0.88546 0.84701 0.0
H2380 H 0.06397 0.85545 0.70066 0.0
H2381 H 0.09018 0.83732 0.77047 0.0
H2382 H 0.09321 0.88915 0.65579 0.0
H2383 H 0.09051 0.89404 0.72279 0.0
H2384 H 0.07431 0.88136 0.68247 0.0
H2385 H 0.1255 0.86686 0.74256 0.0
H2386 H 0.11568 0.85222 0.79238 0.0
H2387 H 0.12172 0.87167 0.8082 0.0
C2388 C 0.8827 0.41054 0.57659 0.0
C2389 C 0.89705 0.41192 0.58003 0.0
C2390 C 0.88114 0.42339 0.57138 0.0
C2391 C 0.89424 0.43789 0.56898 0.0
C2392 C 0.90875 0.43932 0.572 0.0
C2393 C 0.90997 0.42634 0.57778 0.0
C2394 C 0.86551 0.4215 0.56884 0.0
C2395 C 0.92301 0.45458 0.56914 0.0
C2396 C 0.89473 0.47224 0.50873 0.0
C2397 C 0.89614 0.48065 0.55553 0.0
C2398 C 0.89325 0.45785 0.51248 0.0
C2399 C 0.89302 0.45172 0.56425 0.0
C2400 C 0.89342 0.45974 0.61161 0.0
C2401 C 0.89507 0.47416 0.60668 0.0
C2402 C 0.89293 0.44965 0.46106 0.0
C2403 C 0.893 0.45349 0.66753 0.0
H2404 H 0.87268 0.39942 0.57839 0.0
H2405 H 0.92111 0.4275 0.58 0.0
H2406 H 0.86393 0.42766 0.603 0.0
H2407 H 0.86416 0.4265 0.53075 0.0
H2408 H 0.85646 0.40944 0.57077 0.0
H2409 H 0.93341 0.45369 0.57071 0.0
H2410 H 0.92316 0.46045 0.53104 0.0
H2411 H 0.92331 0.46178 0.6034 0.0
H2412 H 0.89551 0.47718 0.46909 0.0
H2413 H 0.89595 0.48054 0.64302 0.0
H2414 H 0.88366 0.4377 0.46259 0.0
H2415 H 0.90371 0.44956 0.45706 0.0
H2416 H 0.89143 0.45508 0.42435 0.0
H2417 H 0.88368 0.44159 0.6705 0.0
H2418 H 0.89149 0.46021 0.69986 0.0
H2419 H 0.90374 0.45355 0.6752 0.0
C2420 C 0.52422 0.41372 0.60349 0.0
C2421 C 0.51401 0.41334 0.56456 0.0
C2422 C 0.53858 0.42659 0.60959 0.0
C2423 C 0.54279 0.43931 0.57589 0.0
C2424 C 0.53274 0.43878 0.53527 0.0
C2425 C 0.51847 0.42581 0.53013 0.0
C2426 C 0.54903 0.42676 0.65328 0.0
C2427 C 0.53685 0.45211 0.49838 0.0
C2428 C 0.57082 0.4788 0.6243 0.0
C2429 C 0.58379 0.48201 0.5944 0.0
C2430 C 0.55757 0.46471 0.62013 0.0
C2431 C 0.55726 0.45358 0.5851 0.0
C2432 C 0.57046 0.45653 0.55632 0.0
C2433 C 0.58359 0.47073 0.56137 0.0
C2434 C 0.54374 0.46195 0.65172 0.0
C2435 C 0.57053 0.4449 0.51863 0.0
H2436 H 0.52087 0.40412 0.63017 0.0
H2437 H 0.51069 0.42558 0.49971 0.0
H2438 H 0.56033 0.43018 0.63599 0.0
H2439 H 0.55065 0.43523 0.68468 0.0
H2440 H 0.54456 0.41556 0.67321 0.0
H2441 H 0.52813 0.44954 0.46679 0.0
H2442 H 0.53822 0.46186 0.5227 0.0
H2443 H 0.54782 0.45565 0.47804 0.0
H2444 H 0.5709 0.48741 0.65022 0.0
H2445 H 0.59358 0.47311 0.53823 0.0
H2446 H 0.53925 0.45135 0.67557 0.0
H2447 H 0.53471 0.46055 0.62321 0.0
H2448 H 0.54614 0.47139 0.67988 0.0
H2449 H 0.56616 0.43391 0.53983 0.0
H2450 H 0.58202 0.44847 0.50276 0.0
H2451 H 0.56291 0.44302 0.48374 0.0
C2452 C 0.57863 0.10338 0.611 0.0
C2453 C 0.58363 0.10222 0.55915 0.0
C2454 C 0.56556 0.10445 0.61768 0.0
C2455 C 0.55721 0.10415 0.57143 0.0
C2456 C 0.56257 0.10368 0.51889 0.0
C2457 C 0.5758 0.10282 0.51336 0.0
C2458 C 0.56031 0.10517 0.67433 0.0
C2459 C 0.5539 0.10323 0.46862 0.0
C2460 C 0.51493 0.08703 0.58903 0.0
C2461 C 0.51332 0.09989 0.58918 0.0
C2462 C 0.52916 0.08831 0.58326 0.0
C2463 C 0.54215 0.10282 0.57816 0.0
C2464 C 0.54066 0.11588 0.57918 0.0
C2465 C 0.52623 0.11426 0.58439 0.0
C2466 C 0.53028 0.0741 0.58196 0.0
C2467 C 0.55431 0.13153 0.57452 0.0
H2468 H 0.58473 0.10308 0.64654 0.0
H2469 H 0.57961 0.10194 0.47319 0.0
H2470 H 0.5576 0.1144 0.67735 0.0
H2471 H 0.54981 0.09442 0.6837 0.0
H2472 H 0.56894 0.10703 0.7055 0.0
H2473 H 0.56025 0.1042 0.4308 0.0
H2474 H 0.54299 0.09241 0.46745 0.0
H2475 H 0.55123 0.11251 0.46946 0.0
H2476 H 0.505 0.07589 0.59248 0.0
H2477 H 0.52506 0.12424 0.58465 0.0
H2478 H 0.5377 0.07433 0.61527 0.0
H2479 H 0.53548 0.07349 0.54319 0.0
H2480 H 0.51907 0.06368 0.58612 0.0
H2481 H 0.56256 0.1333 0.60701 0.0
H2482 H 0.55127 0.14054 0.57749 0.0
H2483 H 0.56007 0.13272 0.53515 0.0
C2484 C 0.75748 0.5691 0.13761 0.0
C2485 C 0.74489 0.55949 0.10584 0.0
C2486 C 0.77033 0.56752 0.13884 0.0
C2487 C 0.77064 0.55608 0.10739 0.0
C2488 C 0.75774 0.54593 0.07699 0.0
C2489 C 0.74497 0.54774 0.07664 0.0
C2490 C 0.78383 0.57853 0.17208 0.0
C2491 C 0.75768 0.53359 0.04306 0.0
C2492 C 0.81022 0.56645 0.06463 0.0
C2493 C 0.814 0.55887 0.10351 0.0
C2494 C 0.79582 0.56496 0.0637 0.0
C2495 C 0.78497 0.55575 0.1029 0.0
C2496 C 0.78847 0.5475 0.14071 0.0
C2497 C 0.80296 0.54912 0.14044 0.0
C2498 C 0.79249 0.57384 0.02236 0.0
C2499 C 0.77718 0.5376 0.18316 0.0
H2500 H 0.75744 0.5781 0.1608 0.0
H2501 H 0.73526 0.54024 0.05217 0.0
H2502 H 0.78758 0.57233 0.19901 0.0
H2503 H 0.7934 0.58571 0.1447 0.0
H2504 H 0.78134 0.58602 0.19743 0.0
H2505 H 0.74628 0.52568 0.02644 0.0
H2506 H 0.76568 0.53873 0.00867 0.0
H2507 H 0.76158 0.52705 0.06742 0.0
H2508 H 0.81864 0.57387 0.03553 0.0
H2509 H 0.80581 0.5432 0.17054 0.0
H2510 H 0.79114 0.58272 0.04322 0.0
H2511 H 0.78172 0.56633 0.00102 0.0
H2512 H 0.80164 0.57937 0.9917 0.0
H2513 H 0.77553 0.5448 0.21296 0.0
H2514 H 0.78096 0.5306 0.20532 0.0
H2515 H 0.76602 0.53001 0.1643 0.0
C2516 C 0.44582 0.19768 0.00418 0.0
C2517 C 0.43871 0.18878 0.05001 0.0
C2518 C 0.44673 0.21175 0.99689 0.0
C2519 C 0.44041 0.21701 0.03647 0.0
C2520 C 0.43359 0.20827 0.08351 0.0
C2521 C 0.43281 0.19426 0.08966 0.0
C2522 C 0.45406 0.22079 0.94623 0.0
C2523 C 0.42678 0.21353 0.12678 0.0
C2524 C 0.45035 0.258 0.0473 0.0
C2525 C 0.43736 0.25736 0.02541 0.0
C2526 C 0.45186 0.24508 0.04892 0.0
C2527 C 0.44014 0.23126 0.0279 0.0
C2528 C 0.4274 0.23076 0.00307 0.0
C2529 C 0.42615 0.24381 0.00222 0.0
C2530 C 0.46561 0.24603 0.07568 0.0
C2531 C 0.41471 0.21625 0.97982 0.0
H2532 H 0.45042 0.19353 0.97339 0.0
H2533 H 0.42736 0.18749 0.12535 0.0
H2534 H 0.44547 0.22167 0.92134 0.0
H2535 H 0.46288 0.23247 0.95704 0.0
H2536 H 0.45929 0.21559 0.9211 0.0
H2537 H 0.42254 0.20572 0.16208 0.0
H2538 H 0.4353 0.22495 0.14138 0.0
H2539 H 0.41722 0.21442 0.10947 0.0
H2540 H 0.45909 0.26844 0.06515 0.0
H2541 H 0.41613 0.24326 0.98478 0.0
H2542 H 0.47061 0.24082 0.04949 0.0
H2543 H 0.46224 0.2396 0.11436 0.0
H2544 H 0.47443 0.25788 0.08462 0.0
H2545 H 0.41927 0.21098 0.95189 0.0
H2546 H 0.40631 0.21808 0.95746 0.0
H2547 H 0.40877 0.20807 0.01314 0.0
C2548 C 0.74539 0.19259 0.10789 0.0
C2549 C 0.74604 0.18017 0.08672 0.0
C2550 C 0.75801 0.20724 0.10522 0.0
C2551 C 0.7715 0.20946 0.08058 0.0
C2552 C 0.77203 0.19704 0.05754 0.0
C2553 C 0.75932 0.18256 0.06103 0.0
C2554 C 0.75708 0.22024 0.13026 0.0
C2555 C 0.78618 0.19895 0.03061 0.0
C2556 C 0.80359 0.24758 0.03529 0.0
C2557 C 0.81432 0.2506 0.07609 0.0
C2558 C 0.7892 0.2346 0.03761 0.0
C2559 C 0.78549 0.22449 0.08183 0.0
C2560 C 0.79595 0.22797 0.12464 0.0
C2561 C 0.81024 0.24097 0.12122 0.0
C2562 C 0.77829 0.23128 0.9913 0.0
C2563 C 0.79238 0.21752 0.17268 0.0
H2564 H 0.73515 0.19082 0.12774 0.0
H2565 H 0.75988 0.17305 0.04411 0.0
H2566 H 0.76471 0.22458 0.16595 0.0
H2567 H 0.76095 0.22971 0.10091 0.0
H2568 H 0.74542 0.21688 0.14363 0.0
H2569 H 0.78444 0.18829 0.01199 0.0
H2570 H 0.79004 0.20776 -0.00138 0.0
H2571 H 0.7954 0.20279 0.06098 0.0
H2572 H 0.80663 0.25503 0.00046 0.0
H2573 H 0.8184 0.24332 0.15329 0.0
H2574 H 0.76687 0.22799 0.00692 0.0
H2575 H 0.77726 0.22159 0.96741 0.0
H2576 H 0.78207 0.24112 0.96369 0.0
H2577 H 0.78123 0.21456 0.1902 0.0
H2578 H 0.80109 0.22261 0.20505 0.0
H2579 H 0.79173 0.20684 0.1592 0.0
C2580 C 0.54655 0.74605 0.93524 0.0
C2581 C 0.56111 0.74795 0.93117 0.0
C2582 C 0.54447 0.75862 0.93921 0.0
C2583 C 0.55725 0.77336 0.93932 0.0
C2584 C 0.57195 0.77532 0.93559 0.0
C2585 C 0.57369 0.7626 0.93147 0.0
C2586 C 0.52863 0.75616 0.94294 0.0
C2587 C 0.58589 0.79087 0.93575 0.0
C2588 C 0.55602 0.80841 0.89792 0.0
C2589 C 0.55753 0.81545 0.94825 0.0
C2590 C 0.55498 0.79421 0.89458 0.0
C2591 C 0.55547 0.78691 0.94271 0.0
C2592 C 0.55606 0.79352 0.99377 0.0
C2593 C 0.55707 0.80773 0.99594 0.0
C2594 C 0.55428 0.78747 0.83938 0.0
C2595 C 0.55654 0.78603 0.04599 0.0
H2596 H 0.53677 0.73476 0.93497 0.0
H2597 H 0.58499 0.76419 0.92851 0.0
H2598 H 0.5274 0.76146 0.98044 0.0
H2599 H 0.52645 0.7617 0.90813 0.0
H2600 H 0.5199 0.74397 0.9431 0.0
H2601 H 0.59651 0.79041 0.93318 0.0
H2602 H 0.58551 0.79756 0.90092 0.0
H2603 H 0.5862 0.797 0.97333 0.0
H2604 H 0.55621 0.81423 0.86087 0.0
H2605 H 0.5581 0.81303 0.03502 0.0
H2606 H 0.54524 0.77542 0.83831 0.0
H2607 H 0.56516 0.78788 0.83094 0.0
H2608 H 0.55216 0.79363 0.8065 0.0
H2609 H 0.54755 0.77396 0.04636 0.0
H2610 H 0.55514 0.79169 0.08223 0.0
H2611 H 0.56756 0.78641 0.0492 0.0
C2612 C 0.18343 0.75001 0.86833 0.0
C2613 C 0.17948 0.73914 0.90931 0.0
C2614 C 0.19748 0.76335 0.86862 0.0
C2615 C 0.20784 0.76591 0.91099 0.0
C2616 C 0.20425 0.75467 0.95105 0.0
C2617 C 0.19009 0.74138 0.9497 0.0
C2618 C 0.20094 0.77503 0.82495 0.0
C2619 C 0.21506 0.75701 0.99674 0.0
C2620 C 0.24765 0.79862 0.88852 0.0
C2621 C 0.24685 0.81048 0.91408 0.0
C2622 C 0.23522 0.78384 0.88896 0.0
C2623 C 0.22176 0.78091 0.91574 0.0
C2624 C 0.22114 0.7927 0.94367 0.0
C2625 C 0.23368 0.80734 0.94242 0.0
C2626 C 0.23627 0.77152 0.85884 0.0
C2627 C 0.207 0.79 0.97301 0.0
H2628 H 0.17535 0.7483 0.83665 0.0
H2629 H 0.18714 0.733 0.98139 0.0
H2630 H 0.20159 0.78528 0.8432 0.0
H2631 H 0.21208 0.77852 0.80616 0.0
H2632 H 0.19221 0.7708 0.79254 0.0
H2633 H 0.21132 0.74656 0.02103 0.0
H2634 H 0.22655 0.76078 0.9806 0.0
H2635 H 0.21594 0.76604 0.02409 0.0
H2636 H 0.25781 0.80095 0.86668 0.0
H2637 H 0.23302 0.81641 0.96273 0.0
H2638 H 0.22875 0.76804 0.82283 0.0
H2639 H 0.23237 0.76139 0.88496 0.0
H2640 H 0.24797 0.77526 0.84495 0.0
H2641 H 0.19776 0.78696 0.94326 0.0
H2642 H 0.20875 0.80011 0.99603 0.0
H2643 H 0.20318 0.78038 0.00163 0.0
C2644 C 0.18259 0.42068 0.94043 0.0
C2645 C 0.18001 0.43161 0.91613 0.0
C2646 C 0.19716 0.42261 0.94296 0.0
C2647 C 0.20945 0.43578 0.92047 0.0
C2648 C 0.20702 0.44706 0.89715 0.0
C2649 C 0.1923 0.44485 0.89532 0.0
C2650 C 0.1993 0.41035 0.96839 0.0
C2651 C 0.21989 0.46124 0.87277 0.0
C2652 C 0.24814 0.44294 0.9636 0.0
C2653 C 0.25157 0.43593 0.92141 0.0
C2654 C 0.23474 0.44361 0.96277 0.0
C2655 C 0.22462 0.43716 0.91866 0.0
C2656 C 0.22839 0.43075 0.87474 0.0
C2657 C 0.24181 0.43019 0.87668 0.0
C2658 C 0.23108 0.45057 0.01026 0.0
C2659 C 0.21792 0.42382 0.82681 0.0
H2660 H 0.17318 0.41046 0.95698 0.0
H2661 H 0.19039 0.45336 0.87658 0.0
H2662 H 0.20329 0.4053 0.93724 0.0
H2663 H 0.20809 0.4152 0.00047 0.0
H2664 H 0.1887 0.40118 0.98655 0.0
H2665 H 0.21631 0.4694 0.85976 0.0
H2666 H 0.22925 0.46689 0.90246 0.0
H2667 H 0.22445 0.45824 0.83699 0.0
H2668 H 0.25566 0.44746 -0.00182 0.0
H2669 H 0.24446 0.42489 0.84362 0.0
H2670 H 0.22138 0.44159 0.03313 0.0
H2671 H 0.22768 0.45874 0.99585 0.0
H2672 H 0.24081 0.45649 0.03848 0.0
H2673 H 0.20736 0.41363 0.84019 0.0
H2674 H 0.2231 0.42047 0.79396 0.0
H2675 H 0.21471 0.4319 0.80996 0.0
C2676 C 0.41707 0.90559 0.36846 0.0
C2677 C 0.40578 0.89566 0.40431 0.0
C2678 C 0.43059 0.90534 0.36237 0.0
C2679 C 0.43291 0.89498 0.39317 0.0
C2680 C 0.4213 0.88447 0.42763 0.0
C2681 C 0.40782 0.8849 0.43265 0.0
C2682 C 0.44265 0.91664 0.32481 0.0
C2683 C 0.42342 0.87329 0.4612 0.0
C2684 C 0.4661 0.88997 0.3535 0.0
C2685 C 0.47739 0.90021 0.38866 0.0
C2686 C 0.45142 0.88789 0.3551 0.0
C2687 C 0.448 0.89617 0.39298 0.0
C2688 C 0.45926 0.90623 0.42941 0.0
C2689 C 0.47382 0.90816 0.42668 0.0
C2690 C 0.43969 0.87711 0.3155 0.0
C2691 C 0.45602 0.9152 0.47064 0.0
H2692 H 0.41551 0.91384 0.34598 0.0
H2693 H 0.39913 0.87717 0.46034 0.0
H2694 H 0.45252 0.92489 0.34896 0.0
H2695 H 0.44667 0.91083 0.29706 0.0
H2696 H 0.43854 0.92296 0.30009 0.0
H2697 H 0.41281 0.86494 0.48179 0.0
H2698 H 0.42745 0.86712 0.43541 0.0
H2699 H 0.43219 0.87945 0.49257 0.0
H2700 H 0.46878 0.88378 0.32406 0.0
H2701 H 0.48245 0.916 0.45431 0.0
H2702 H 0.43628 0.88347 0.28794 0.0
H2703 H 0.4294 0.86875 0.33753 0.0
H2704 H 0.44393 0.87094 0.29058 0.0
H2705 H 0.45305 0.92296 0.44952 0.0
H2706 H 0.46583 0.92201 0.49768 0.0
H2707 H 0.44617 0.90748 0.49604 0.0
C2708 C 0.08976 0.57017 0.35074 0.0
C2709 C 0.10077 0.58335 0.37652 0.0
C2710 C 0.09111 0.5572 0.34848 0.0
C2711 C 0.10377 0.55739 0.37276 0.0
C2712 C 0.11531 0.57087 0.39651 0.0
C2713 C 0.11368 0.58374 0.39803 0.0
C2714 C 0.07862 0.54305 0.32243 0.0
C2715 C 0.12898 0.57149 0.42269 0.0
C2716 C 0.0958 0.5192 0.42416 0.0
C2717 C 0.10159 0.51432 0.38208 0.0
C2718 C 0.09698 0.53346 0.4225 0.0
C2719 C 0.10411 0.54308 0.37763 0.0
C2720 C 0.11051 0.5385 0.33602 0.0
C2721 C 0.10918 0.52415 0.33875 0.0
C2722 C 0.09008 0.53798 0.46785 0.0
C2723 C 0.11823 0.54851 0.28766 0.0
H2724 H 0.07982 0.56983 0.33356 0.0
H2725 H 0.12227 0.5939 0.41787 0.0
H2726 H 0.08339 0.53841 0.29269 0.0
H2727 H 0.07264 0.53427 0.35394 0.0
H2728 H 0.07022 0.54514 0.30137 0.0
H2729 H 0.1377 0.58321 0.43383 0.0
H2730 H 0.12546 0.56448 0.46003 0.0
H2731 H 0.13414 0.56675 0.39509 0.0
H2732 H 0.09003 0.51173 0.45802 0.0
H2733 H 0.11374 0.52048 0.30618 0.0
H2734 H 0.08052 0.53908 0.45185 0.0
H2735 H 0.09853 0.54916 0.48449 0.0
H2736 H 0.08581 0.52961 0.50149 0.0
H2737 H 0.10977 0.54965 0.26292 0.0
H2738 H 0.12384 0.54391 0.26147 0.0
H2739 H 0.1268 0.56003 0.30117 0.0
C2740 C 0.48243 0.57959 0.43053 0.0
C2741 C 0.48779 0.58873 0.38411 0.0
C2742 C 0.46772 0.56716 0.43247 0.0
C2743 C 0.45814 0.56376 0.38683 0.0
C2744 C 0.46327 0.57325 0.34059 0.0
C2745 C 0.47805 0.58566 0.3398 0.0
C2746 C 0.46263 0.55733 0.48263 0.0
C2747 C 0.45335 0.56995 0.2912 0.0
C2748 C 0.42881 0.52236 0.37205 0.0
C2749 C 0.41582 0.5219 0.39313 0.0
C2750 C 0.44252 0.536 0.36823 0.0
C2751 C 0.4433 0.54955 0.38606 0.0
C2752 C 0.43015 0.54927 0.40592 0.0
C2753 C 0.41652 0.53542 0.40915 0.0
C2754 C 0.45629 0.53585 0.34658 0.0
C2755 C 0.43059 0.56351 0.42528 0.0
H2756 H 0.48983 0.58196 0.46517 0.0
H2757 H 0.48209 0.59271 0.30387 0.0
H2758 H 0.45168 0.5558 0.49728 0.0
H2759 H 0.46084 0.54595 0.47265 0.0
H2760 H 0.47102 0.56217 0.51609 0.0
H2761 H 0.45849 0.57916 0.26059 0.0
H2762 H 0.45139 0.55929 0.272 0.0
H2763 H 0.44214 0.5683 0.30302 0.0
H2764 H 0.42835 0.51198 0.35917 0.0
H2765 H 0.40653 0.53515 0.42539 0.0
H2766 H 0.46494 0.53934 0.37902 0.0
H2767 H 0.46142 0.54408 0.31286 0.0
H2768 H 0.45358 0.5245 0.33166 0.0
H2769 H 0.43792 0.56792 0.46168 0.0
H2770 H 0.41917 0.56157 0.43582 0.0
H2771 H 0.43558 0.57241 0.39361 0.0
loop_
_geom_bond_atom_site_label_1
_geom_bond_atom_site_label_2
_geom_bond_distance
_geom_bond_site_symmetry_2
_ccdc_geom_bond_type
C0 O1 1.160 . S
C0 O7 1.185 . S
O1 C0 1.160 . S
O2 Zn3 1.899 . S
O2 C10 1.284 . S
Zn3 O2 1.899 . S
Zn3 O4 2.032 . S
Zn3 O7 2.086 . S
Zn3 O12 1.977 . S
O4 Zn3 2.032 . S
O4 C8 1.278 . S
C5 O6 1.203 . S
C5 O12 1.267 . S
O6 C5 1.203 . S
O7 C0 1.185 . S
O7 Zn3 2.086 . S
C8 O4 1.278 . S
C8 O9 1.211 . S
O9 C8 1.211 . S
C10 O2 1.284 . S
C10 O11 1.273 . S
O11 C10 1.273 . S
O12 Zn3 1.977 . S
O12 C5 1.267 . S
C13 O14 1.160 . S
C13 O20 1.185 . S
O14 C13 1.160 . S
O15 Zn16 1.899 . S
O15 C23 1.284 . S
Zn16 O15 1.899 . S
Zn16 O17 2.032 . S
Zn16 O20 2.086 . S
Zn16 O25 1.977 . S
O17 Zn16 2.032 . S
O17 C21 1.278 . S
C18 O19 1.203 . S
C18 O25 1.267 . S
O19 C18 1.203 . S
O20 C13 1.185 . S
O20 Zn16 2.086 . S
C21 O17 1.278 . S
C21 O22 1.211 . S
O22 C21 1.211 . S
C23 O15 1.284 . S
C23 O24 1.273 . S
O24 C23 1.273 . S
O25 Zn16 1.977 . S
O25 C18 1.267 . S
C26 O27 1.160 . S
C26 O33 1.185 . S
O27 C26 1.160 . S
O28 Zn29 1.899 . S
O28 C36 1.284 . S
Zn29 O28 1.899 . S
Zn29 O30 2.032 . S
Zn29 O33 2.086 . S
Zn29 O38 1.977 . S
O30 Zn29 2.032 . S
O30 C34 1.278 . S
C31 O32 1.203 . S
C31 O38 1.267 . S
O32 C31 1.203 . S
O33 C26 1.185 . S
O33 Zn29 2.086 . S
C34 O30 1.278 . S
C34 O35 1.211 . S
O35 C34 1.211 . S
C36 O28 1.284 . S
C36 O37 1.273 . S
O37 C36 1.273 . S
O38 Zn29 1.977 . S
O38 C31 1.267 . S
C39 O40 1.160 . S
C39 O46 1.185 . S
O40 C39 1.160 . S
O41 Zn42 1.899 . S
O41 C49 1.284 . S
Zn42 O41 1.899 . S
Zn42 O43 2.032 . S
Zn42 O46 2.086 . S
Zn42 O51 1.977 . S
O43 Zn42 2.032 . S
O43 C47 1.278 . S
C44 O45 1.203 . S
C44 O51 1.267 . S
O45 C44 1.203 . S
O46 C39 1.185 . S
O46 Zn42 2.086 . S
C47 O43 1.278 . S
C47 O48 1.211 . S
O48 C47 1.211 . S
C49 O41 1.284 . S
C49 O50 1.273 . S
O50 C49 1.273 . S
O51 Zn42 1.977 . S
O51 C44 1.267 . S
C52 O53 1.160 . S
C52 O59 1.185 . S
O53 C52 1.160 . S
O54 Zn55 1.899 . S
O54 C62 1.284 . S
Zn55 O54 1.899 . S
Zn55 O56 2.032 . S
Zn55 O59 2.086 . S
Zn55 O64 1.977 . S
O56 Zn55 2.032 . S
O56 C60 1.278 . S
C57 O58 1.203 . S
C57 O64 1.267 . S
O58 C57 1.203 . S
O59 C52 1.185 . S
O59 Zn55 2.086 . S
C60 O56 1.278 . S
C60 O61 1.211 . S
O61 C60 1.211 . S
C62 O54 1.284 . S
C62 O63 1.273 . S
O63 C62 1.273 . S
O64 Zn55 1.977 . S
O64 C57 1.267 . S
C65 O66 1.160 . S
C65 O72 1.185 . S
O66 C65 1.160 . S
O67 Zn68 1.899 . S
O67 C75 1.284 . S
Zn68 O67 1.899 . S
Zn68 O69 2.032 . S
Zn68 O72 2.086 . S
Zn68 O77 1.977 . S
O69 Zn68 2.032 . S
O69 C73 1.278 . S
C70 O71 1.203 . S
C70 O77 1.267 . S
O71 C70 1.203 . S
O72 C65 1.185 . S
O72 Zn68 2.086 . S
C73 O69 1.278 . S
C73 O74 1.211 . S
O74 C73 1.211 . S
C75 O67 1.284 . S
C75 O76 1.273 . S
O76 C75 1.273 . S
O77 Zn68 1.977 . S
O77 C70 1.267 . S
C78 O79 1.160 . S
C78 O85 1.185 . S
O79 C78 1.160 . S
O80 Zn81 1.899 . S
O80 C88 1.284 . S
Zn81 O80 1.899 . S
Zn81 O82 2.032 . S
Zn81 O85 2.086 . S
Zn81 O90 1.977 . S
O82 Zn81 2.032 . S
O82 C86 1.278 . S
C83 O84 1.203 . S
C83 O90 1.267 . S
O84 C83 1.203 . S
O85 C78 1.185 . S
O85 Zn81 2.086 . S
C86 O82 1.278 . S
C86 O87 1.211 . S
O87 C86 1.211 . S
C88 O80 1.284 . S
C88 O89 1.273 . S
O89 C88 1.273 . S
O90 Zn81 1.977 . S
O90 C83 1.267 . S
C91 O92 1.160 . S
C91 O98 1.185 . S
O92 C91 1.160 . S
O93 Zn94 1.899 . S
O93 C101 1.284 . S
Zn94 O93 1.899 . S
Zn94 O95 2.032 . S
Zn94 O98 2.086 . S
Zn94 O103 1.977 . S
O95 Zn94 2.032 . S
O95 C99 1.278 . S
C96 O97 1.203 . S
C96 O103 1.267 . S
O97 C96 1.203 . S
O98 C91 1.185 . S
O98 Zn94 2.086 . S
C99 O95 1.278 . S
C99 O100 1.211 . S
O100 C99 1.211 . S
C101 O93 1.284 . S
C101 O102 1.273 . S
O102 C101 1.273 . S
O103 Zn94 1.977 . S
O103 C96 1.267 . S
C104 O105 1.160 . S
C104 O111 1.185 . S
O105 C104 1.160 . S
O106 Zn107 1.899 . S
O106 C114 1.284 . S
Zn107 O106 1.899 . S
Zn107 O108 2.032 . S
Zn107 O111 2.086 . S
Zn107 O116 1.977 . S
O108 Zn107 2.032 . S
O108 C112 1.278 . S
C109 O110 1.203 . S
C109 O116 1.267 . S
O110 C109 1.203 . S
O111 C104 1.185 . S
O111 Zn107 2.086 . S
C112 O108 1.278 . S
C112 O113 1.211 . S
O113 C112 1.211 . S
C114 O106 1.284 . S
C114 O115 1.273 . S
O115 C114 1.273 . S
O116 Zn107 1.977 . S
O116 C109 1.267 . S
C117 O118 1.160 . S
C117 O124 1.185 . S
O118 C117 1.160 . S
O119 Zn120 1.899 . S
O119 C127 1.284 . S
Zn120 O119 1.899 . S
Zn120 O121 2.032 . S
Zn120 O124 2.086 . S
Zn120 O129 1.977 . S
O121 Zn120 2.032 . S
O121 C125 1.278 . S
C122 O123 1.203 . S
C122 O129 1.267 . S
O123 C122 1.203 . S
O124 C117 1.185 . S
O124 Zn120 2.086 . S
C125 O121 1.278 . S
C125 O126 1.211 . S
O126 C125 1.211 . S
C127 O119 1.284 . S
C127 O128 1.273 . S
O128 C127 1.273 . S
O129 Zn120 1.977 . S
O129 C122 1.267 . S
C130 O131 1.160 . S
C130 O137 1.185 . S
O131 C130 1.160 . S
O132 Zn133 1.899 . S
O132 C140 1.284 . S
Zn133 O132 1.899 . S
Zn133 O134 2.032 . S
Zn133 O137 2.086 . S
Zn133 O142 1.977 . S
O134 Zn133 2.032 . S
O134 C138 1.278 . S
C135 O136 1.203 . S
C135 O142 1.267 . S
O136 C135 1.203 . S
O137 C130 1.185 . S
O137 Zn133 2.086 . S
C138 O134 1.278 . S
C138 O139 1.211 . S
O139 C138 1.211 . S
C140 O132 1.284 . S
C140 O141 1.273 . S
O141 C140 1.273 . S
O142 Zn133 1.977 . S
O142 C135 1.267 . S
C143 O144 1.160 . S
C143 O150 1.185 . S
O144 C143 1.160 . S
O145 Zn146 1.899 . S
O145 C153 1.284 . S
Zn146 O145 1.899 . S
Zn146 O147 2.032 . S
Zn146 O150 2.086 . S
Zn146 O155 1.977 . S
O147 Zn146 2.032 . S
O147 C151 1.278 . S
C148 O149 1.203 . S
C148 O155 1.267 . S
O149 C148 1.203 . S
O150 C143 1.185 . S
O150 Zn146 2.086 . S
C151 O147 1.278 . S
C151 O152 1.211 . S
O152 C151 1.211 . S
C153 O145 1.284 . S
C153 O154 1.273 . S
O154 C153 1.273 . S
O155 Zn146 1.977 . S
O155 C148 1.267 . S
C156 O157 1.160 . S
C156 O163 1.185 . S
O157 C156 1.160 . S
O158 Zn159 1.899 . S
O158 C166 1.284 . S
Zn159 O158 1.899 . S
Zn159 O160 2.032 . S
Zn159 O163 2.086 . S
Zn159 O168 1.977 . S
O160 Zn159 2.032 . S
O160 C164 1.278 . S
C161 O162 1.203 . S
C161 O168 1.267 . S
O162 C161 1.203 . S
O163 C156 1.185 . S
O163 Zn159 2.086 . S
C164 O160 1.278 . S
C164 O165 1.211 . S
O165 C164 1.211 . S
C166 O158 1.284 . S
C166 O167 1.273 . S
O167 C166 1.273 . S
O168 Zn159 1.977 . S
O168 C161 1.267 . S
C169 O170 1.160 . S
C169 O176 1.185 . S
O170 C169 1.160 . S
O171 Zn172 1.899 . S
O171 C179 1.284 . S
Zn172 O171 1.899 . S
Zn172 O173 2.032 . S
Zn172 O176 2.086 . S
Zn172 O181 1.977 . S
O173 Zn172 2.032 . S
O173 C177 1.278 . S
C174 O175 1.203 . S
C174 O181 1.267 . S
O175 C174 1.203 . S
O176 C169 1.185 . S
O176 Zn172 2.086 . S
C177 O173 1.278 . S
C177 O178 1.211 . S
O178 C177 1.211 . S
C179 O171 1.284 . S
C179 O180 1.273 . S
O180 C179 1.273 . S
O181 Zn172 1.977 . S
O181 C174 1.267 . S
C182 O183 1.160 . S
C182 O189 1.185 . S
O183 C182 1.160 . S
O184 Zn185 1.899 . S
O184 C192 1.284 . S
Zn185 O184 1.899 . S
Zn185 O186 2.032 . S
Zn185 O189 2.086 . S
Zn185 O194 1.977 . S
O186 Zn185 2.032 . S
O186 C190 1.278 . S
C187 O188 1.203 . S
C187 O194 1.267 . S
O188 C187 1.203 . S
O189 C182 1.185 . S
O189 Zn185 2.086 . S
C190 O186 1.278 . S
C190 O191 1.211 . S
O191 C190 1.211 . S
C192 O184 1.284 . S
C192 O193 1.273 . S
O193 C192 1.273 . S
O194 Zn185 1.977 . S
O194 C187 1.267 . S
C195 O196 1.160 1_556 S
C195 O202 1.185 1_556 S
O196 C195 1.160 1_554 S
O197 Zn198 1.899 . S
O197 C205 1.284 . S
Zn198 O197 1.899 . S
Zn198 O199 2.032 . S
Zn198 O202 2.086 . S
Zn198 O207 1.977 . S
O199 Zn198 2.032 . S
O199 C203 1.278 . S
C200 O201 1.203 . S
C200 O207 1.267 . S
O201 C200 1.203 . S
O202 C195 1.185 1_554 S
O202 Zn198 2.086 . S
C203 O199 1.278 . S
C203 O204 1.211 . S
O204 C203 1.211 . S
C205 O197 1.284 . S
C205 O206 1.273 . S
O206 C205 1.273 . S
O207 Zn198 1.977 . S
O207 C200 1.267 . S
C208 O209 1.160 1_556 S
C208 O215 1.185 1_556 S
O209 C208 1.160 1_554 S
O210 Zn211 1.899 . S
O210 C218 1.284 . S
Zn211 O210 1.899 . S
Zn211 O212 2.032 . S
Zn211 O215 2.086 . S
Zn211 O220 1.977 . S
O212 Zn211 2.032 . S
O212 C216 1.278 . S
C213 O214 1.203 . S
C213 O220 1.267 . S
O214 C213 1.203 . S
O215 C208 1.185 1_554 S
O215 Zn211 2.086 . S
C216 O212 1.278 . S
C216 O217 1.211 . S
O217 C216 1.211 . S
C218 O210 1.284 . S
C218 O219 1.273 . S
O219 C218 1.273 . S
O220 Zn211 1.977 . S
O220 C213 1.267 . S
C221 O222 1.160 1_556 S
C221 O228 1.185 1_556 S
O222 C221 1.160 1_554 S
O223 Zn224 1.899 . S
O223 C231 1.284 . S
Zn224 O223 1.899 . S
Zn224 O225 2.032 . S
Zn224 O228 2.086 . S
Zn224 O233 1.977 . S
O225 Zn224 2.032 . S
O225 C229 1.278 . S
C226 O227 1.203 . S
C226 O233 1.267 . S
O227 C226 1.203 . S
O228 C221 1.185 1_554 S
O228 Zn224 2.086 . S
C229 O225 1.278 . S
C229 O230 1.211 . S
O230 C229 1.211 . S
C231 O223 1.284 . S
C231 O232 1.273 . S
O232 C231 1.273 . S
O233 Zn224 1.977 . S
O233 C226 1.267 . S
C234 O235 1.160 1_556 S
C234 O241 1.185 1_556 S
O235 C234 1.160 1_554 S
O236 Zn237 1.899 . S
O236 C244 1.284 . S
Zn237 O236 1.899 . S
Zn237 O238 2.032 . S
Zn237 O241 2.086 . S
Zn237 O246 1.977 . S
O238 Zn237 2.032 . S
O238 C242 1.278 . S
C239 O240 1.203 . S
C239 O246 1.267 . S
O240 C239 1.203 . S
O241 C234 1.185 1_554 S
O241 Zn237 2.086 . S
C242 O238 1.278 . S
C242 O243 1.211 . S
O243 C242 1.211 . S
C244 O236 1.284 . S
C244 O245 1.273 . S
O245 C244 1.273 . S
O246 Zn237 1.977 . S
O246 C239 1.267 . S
C247 O248 1.160 1_556 S
C247 O254 1.185 1_556 S
O248 C247 1.160 1_554 S
O249 Zn250 1.899 . S
O249 C257 1.284 . S
Zn250 O249 1.899 . S
Zn250 O251 2.032 . S
Zn250 O254 2.086 . S
Zn250 O259 1.977 . S
O251 Zn250 2.032 . S
O251 C255 1.278 . S
C252 O253 1.203 . S
C252 O259 1.267 . S
O253 C252 1.203 . S
O254 C247 1.185 1_554 S
O254 Zn250 2.086 . S
C255 O251 1.278 . S
C255 O256 1.211 . S
O256 C255 1.211 . S
C257 O249 1.284 . S
C257 O258 1.273 . S
O258 C257 1.273 . S
O259 Zn250 1.977 . S
O259 C252 1.267 . S
C260 O261 1.160 1_556 S
C260 O267 1.185 1_556 S
O261 C260 1.160 1_554 S
O262 Zn263 1.899 . S
O262 C270 1.284 . S
Zn263 O262 1.899 . S
Zn263 O264 2.032 . S
Zn263 O267 2.086 . S
Zn263 O272 1.977 . S
O264 Zn263 2.032 . S
O264 C268 1.278 . S
C265 O266 1.203 . S
C265 O272 1.267 . S
O266 C265 1.203 . S
O267 C260 1.185 1_554 S
O267 Zn263 2.086 . S
C268 O264 1.278 . S
C268 O269 1.211 . S
O269 C268 1.211 . S
C270 O262 1.284 . S
C270 O271 1.273 . S
O271 C270 1.273 . S
O272 Zn263 1.977 . S
O272 C265 1.267 . S
C273 O274 1.160 . S
C273 O280 1.185 . S
O274 C273 1.160 . S
O275 Zn276 1.899 . S
O275 C283 1.284 . S
Zn276 O275 1.899 . S
Zn276 O277 2.032 . S
Zn276 O280 2.086 . S
Zn276 O285 1.977 . S
O277 Zn276 2.032 . S
O277 C281 1.278 . S
C278 O279 1.203 . S
C278 O285 1.267 . S
O279 C278 1.203 . S
O280 C273 1.185 . S
O280 Zn276 2.086 . S
C281 O277 1.278 . S
C281 O282 1.211 . S
O282 C281 1.211 . S
C283 O275 1.284 . S
C283 O284 1.273 . S
O284 C283 1.273 . S
O285 Zn276 1.977 . S
O285 C278 1.267 . S
C286 O287 1.160 . S
C286 O293 1.185 . S
O287 C286 1.160 . S
O288 Zn289 1.899 . S
O288 C296 1.284 . S
Zn289 O288 1.899 . S
Zn289 O290 2.032 . S
Zn289 O293 2.086 . S
Zn289 O298 1.977 . S
O290 Zn289 2.032 . S
O290 C294 1.278 . S
C291 O292 1.203 . S
C291 O298 1.267 . S
O292 C291 1.203 . S
O293 C286 1.185 . S
O293 Zn289 2.086 . S
C294 O290 1.278 . S
C294 O295 1.211 . S
O295 C294 1.211 . S
C296 O288 1.284 . S
C296 O297 1.273 . S
O297 C296 1.273 . S
O298 Zn289 1.977 . S
O298 C291 1.267 . S
C299 O300 1.160 . S
C299 O306 1.185 . S
O300 C299 1.160 . S
O301 Zn302 1.899 . S
O301 C309 1.284 . S
Zn302 O301 1.899 . S
Zn302 O303 2.032 . S
Zn302 O306 2.086 . S
Zn302 O311 1.977 . S
O303 Zn302 2.032 . S
O303 C307 1.278 . S
C304 O305 1.203 . S
C304 O311 1.267 . S
O305 C304 1.203 . S
O306 C299 1.185 . S
O306 Zn302 2.086 . S
C307 O303 1.278 . S
C307 O308 1.211 . S
O308 C307 1.211 . S
C309 O301 1.284 . S
C309 O310 1.273 . S
O310 C309 1.273 . S
O311 Zn302 1.977 . S
O311 C304 1.267 . S
C312 O313 1.160 1_554 S
C312 O319 1.185 1_554 S
O313 C312 1.160 1_556 S
O314 Zn315 1.899 . S
O314 C322 1.284 . S
Zn315 O314 1.899 . S
Zn315 O316 2.032 . S
Zn315 O319 2.086 . S
Zn315 O324 1.977 . S
O316 Zn315 2.032 . S
O316 C320 1.278 . S
C317 O318 1.203 . S
C317 O324 1.267 . S
O318 C317 1.203 . S
O319 C312 1.185 1_556 S
O319 Zn315 2.086 . S
C320 O316 1.278 . S
C320 O321 1.211 . S
O321 C320 1.211 . S
C322 O314 1.284 . S
C322 O323 1.273 . S
O323 C322 1.273 . S
O324 Zn315 1.977 . S
O324 C317 1.267 . S
C325 O326 1.160 1_554 S
C325 O332 1.185 1_554 S
O326 C325 1.160 1_556 S
O327 Zn328 1.899 . S
O327 C335 1.284 . S
Zn328 O327 1.899 . S
Zn328 O329 2.032 . S
Zn328 O332 2.086 . S
Zn328 O337 1.977 . S
O329 Zn328 2.032 . S
O329 C333 1.278 . S
C330 O331 1.203 . S
C330 O337 1.267 . S
O331 C330 1.203 . S
O332 C325 1.185 1_556 S
O332 Zn328 2.086 . S
C333 O329 1.278 . S
C333 O334 1.211 . S
O334 C333 1.211 . S
C335 O327 1.284 . S
C335 O336 1.273 . S
O336 C335 1.273 . S
O337 Zn328 1.977 . S
O337 C330 1.267 . S
C338 O339 1.160 1_554 S
C338 O345 1.185 1_554 S
O339 C338 1.160 1_556 S
O340 Zn341 1.899 . S
O340 C348 1.284 . S
Zn341 O340 1.899 . S
Zn341 O342 2.032 . S
Zn341 O345 2.086 . S
Zn341 O350 1.977 . S
O342 Zn341 2.032 . S
O342 C346 1.278 . S
C343 O344 1.203 . S
C343 O350 1.267 . S
O344 C343 1.203 . S
O345 C338 1.185 1_556 S
O345 Zn341 2.086 . S
C346 O342 1.278 . S
C346 O347 1.211 . S
O347 C346 1.211 . S
C348 O340 1.284 . S
C348 O349 1.273 . S
O349 C348 1.273 . S
O350 Zn341 1.977 . S
O350 C343 1.267 . S
C351 O352 1.160 . S
C351 O358 1.185 . S
O352 C351 1.160 . S
O353 Zn354 1.899 . S
O353 C361 1.284 . S
Zn354 O353 1.899 . S
Zn354 O355 2.032 . S
Zn354 O358 2.086 . S
Zn354 O363 1.977 . S
O355 Zn354 2.032 . S
O355 C359 1.278 . S
C356 O357 1.203 . S
C356 O363 1.267 . S
O357 C356 1.203 . S
O358 C351 1.185 . S
O358 Zn354 2.086 . S
C359 O355 1.278 . S
C359 O360 1.211 . S
O360 C359 1.211 . S
C361 O353 1.284 . S
C361 O362 1.273 . S
O362 C361 1.273 . S
O363 Zn354 1.977 . S
O363 C356 1.267 . S
C364 O365 1.160 . S
C364 O371 1.185 . S
O365 C364 1.160 . S
O366 Zn367 1.899 . S
O366 C374 1.284 . S
Zn367 O366 1.899 . S
Zn367 O368 2.032 . S
Zn367 O371 2.086 . S
Zn367 O376 1.977 . S
O368 Zn367 2.032 . S
O368 C372 1.278 . S
C369 O370 1.203 . S
C369 O376 1.267 . S
O370 C369 1.203 . S
O371 C364 1.185 . S
O371 Zn367 2.086 . S
C372 O368 1.278 . S
C372 O373 1.211 . S
O373 C372 1.211 . S
C374 O366 1.284 . S
C374 O375 1.273 . S
O375 C374 1.273 . S
O376 Zn367 1.977 . S
O376 C369 1.267 . S
C377 O378 1.160 . S
C377 O384 1.185 . S
O378 C377 1.160 . S
O379 Zn380 1.899 . S
O379 C387 1.284 . S
Zn380 O379 1.899 . S
Zn380 O381 2.032 . S
Zn380 O384 2.086 . S
Zn380 O389 1.977 . S
O381 Zn380 2.032 . S
O381 C385 1.278 . S
C382 O383 1.203 . S
C382 O389 1.267 . S
O383 C382 1.203 . S
O384 C377 1.185 . S
O384 Zn380 2.086 . S
C385 O381 1.278 . S
C385 O386 1.211 . S
O386 C385 1.211 . S
C387 O379 1.284 . S
C387 O388 1.273 . S
O388 C387 1.273 . S
O389 Zn380 1.977 . S
O389 C382 1.267 . S
C390 O391 1.160 . S
C390 O397 1.185 . S
O391 C390 1.160 . S
O392 Zn393 1.899 . S
O392 C400 1.284 . S
Zn393 O392 1.899 . S
Zn393 O394 2.032 . S
Zn393 O397 2.086 . S
Zn393 O402 1.977 . S
O394 Zn393 2.032 . S
O394 C398 1.278 . S
C395 O396 1.203 . S
C395 O402 1.267 . S
O396 C395 1.203 . S
O397 C390 1.185 . S
O397 Zn393 2.086 . S
C398 O394 1.278 . S
C398 O399 1.211 . S
O399 C398 1.211 . S
C400 O392 1.284 . S
C400 O401 1.273 . S
O401 C400 1.273 . S
O402 Zn393 1.977 . S
O402 C395 1.267 . S
C403 O404 1.160 . S
C403 O410 1.185 . S
O404 C403 1.160 . S
O405 Zn406 1.899 . S
O405 C413 1.284 . S
Zn406 O405 1.899 . S
Zn406 O407 2.032 . S
Zn406 O410 2.086 . S
Zn406 O415 1.977 . S
O407 Zn406 2.032 . S
O407 C411 1.278 . S
C408 O409 1.203 . S
C408 O415 1.267 . S
O409 C408 1.203 . S
O410 C403 1.185 . S
O410 Zn406 2.086 . S
C411 O407 1.278 . S
C411 O412 1.211 . S
O412 C411 1.211 . S
C413 O405 1.284 . S
C413 O414 1.273 . S
O414 C413 1.273 . S
O415 Zn406 1.977 . S
O415 C408 1.267 . S
C416 O417 1.160 . S
C416 O423 1.185 . S
O417 C416 1.160 . S
O418 Zn419 1.899 . S
O418 C426 1.284 . S
Zn419 O418 1.899 . S
Zn419 O420 2.032 . S
Zn419 O423 2.086 . S
Zn419 O428 1.977 . S
O420 Zn419 2.032 . S
O420 C424 1.278 . S
C421 O422 1.203 . S
C421 O428 1.267 . S
O422 C421 1.203 . S
O423 C416 1.185 . S
O423 Zn419 2.086 . S
C424 O420 1.278 . S
C424 O425 1.211 . S
O425 C424 1.211 . S
C426 O418 1.284 . S
C426 O427 1.273 . S
O427 C426 1.273 . S
O428 Zn419 1.977 . S
O428 C421 1.267 . S
C429 O430 1.160 1_554 S
C429 O436 1.185 1_554 S
O430 C429 1.160 1_556 S
O431 Zn432 1.899 . S
O431 C439 1.284 . S
Zn432 O431 1.899 . S
Zn432 O433 2.032 . S
Zn432 O436 2.086 . S
Zn432 O441 1.977 . S
O433 Zn432 2.032 . S
O433 C437 1.278 . S
C434 O435 1.203 . S
C434 O441 1.267 . S
O435 C434 1.203 . S
O436 C429 1.185 1_556 S
O436 Zn432 2.086 . S
C437 O433 1.278 . S
C437 O438 1.211 . S
O438 C437 1.211 . S
C439 O431 1.284 . S
C439 O440 1.273 . S
O440 C439 1.273 . S
O441 Zn432 1.977 . S
O441 C434 1.267 . S
C442 O443 1.160 1_554 S
C442 O449 1.185 1_554 S
O443 C442 1.160 1_556 S
O444 Zn445 1.899 . S
O444 C452 1.284 . S
Zn445 O444 1.899 . S
Zn445 O446 2.032 . S
Zn445 O449 2.086 . S
Zn445 O454 1.977 . S
O446 Zn445 2.032 . S
O446 C450 1.278 . S
C447 O448 1.203 . S
C447 O454 1.267 . S
O448 C447 1.203 . S
O449 C442 1.185 1_556 S
O449 Zn445 2.086 . S
C450 O446 1.278 . S
C450 O451 1.211 . S
O451 C450 1.211 . S
C452 O444 1.284 . S
C452 O453 1.273 . S
O453 C452 1.273 . S
O454 Zn445 1.977 . S
O454 C447 1.267 . S
C455 O456 1.160 1_554 S
C455 O462 1.185 1_554 S
O456 C455 1.160 1_556 S
O457 Zn458 1.899 . S
O457 C465 1.284 . S
Zn458 O457 1.899 . S
Zn458 O459 2.032 . S
Zn458 O462 2.086 . S
Zn458 O467 1.977 . S
O459 Zn458 2.032 . S
O459 C463 1.278 . S
C460 O461 1.203 . S
C460 O467 1.267 . S
O461 C460 1.203 . S
O462 C455 1.185 1_556 S
O462 Zn458 2.086 . S
C463 O459 1.278 . S
C463 O464 1.211 . S
O464 C463 1.211 . S
C465 O457 1.284 . S
C465 O466 1.273 . S
O466 C465 1.273 . S
O467 Zn458 1.977 . S
O467 C460 1.267 . S
C468 C469 1.391 . S
C468 C470 1.394 . S
C468 H484 0.931 . S
C469 C468 1.391 . S
C469 C473 1.376 . S
C470 C468 1.394 . S
C470 C471 1.369 . S
C470 C474 1.531 1_565 S
C471 C470 1.369 . S
C471 C472 1.410 . S
C471 C479 1.503 1_565 S
C472 C471 1.410 . S
C472 C473 1.392 . S
C472 C475 1.511 . S
C473 C469 1.376 . S
C473 C472 1.392 . S
C473 H485 0.929 . S
C474 C470 1.531 1_545 S
C474 H486 0.960 . S
C474 H487 0.954 1_545 S
C474 H488 0.960 . S
C475 C472 1.511 . S
C475 H489 0.961 . S
C475 H490 0.961 . S
C475 H491 0.943 1_565 S
C476 C477 1.370 . S
C476 C478 1.352 1_545 S
C476 H492 0.931 . S
C477 C476 1.370 . S
C477 C481 1.408 . S
C478 C476 1.352 1_565 S
C478 C479 1.364 1_565 S
C478 C482 1.541 . S
C479 C471 1.503 1_545 S
C479 C478 1.364 1_545 S
C479 C480 1.403 . S
C480 C479 1.403 . S
C480 C481 1.404 . S
C480 C483 1.539 . S
C481 C477 1.408 . S
C481 C480 1.404 . S
C481 H493 0.930 . S
C482 C478 1.541 . S
C482 H494 0.956 . S
C482 H495 0.961 . S
C482 H496 0.961 . S
C483 C480 1.539 . S
C483 H497 0.958 . S
C483 H498 0.961 . S
C483 H499 0.960 . S
H484 C468 0.931 . S
H485 C473 0.929 . S
H486 C474 0.960 . S
H487 C474 0.954 1_565 S
H488 C474 0.960 . S
H489 C475 0.961 . S
H490 C475 0.961 . S
H491 C475 0.943 1_545 S
H492 C476 0.931 . S
H493 C481 0.930 . S
H494 C482 0.956 . S
H495 C482 0.961 . S
H496 C482 0.961 . S
H497 C483 0.958 . S
H498 C483 0.961 . S
H499 C483 0.960 . S
C500 C501 1.391 . S
C500 C502 1.394 . S
C500 H516 0.931 . S
C501 C500 1.391 . S
C501 C505 1.376 . S
C502 C500 1.394 . S
C502 C503 1.369 . S
C502 C506 1.531 . S
C503 C502 1.369 . S
C503 C504 1.410 1_455 S
C503 C511 1.503 1_455 S
C504 C503 1.410 1_655 S
C504 C505 1.392 1_655 S
C504 C507 1.511 . S
C505 C501 1.376 . S
C505 C504 1.392 1_455 S
C505 H517 0.929 . S
C506 C502 1.531 . S
C506 H518 0.960 . S
C506 H519 0.962 . S
C506 H520 0.960 . S
C507 C504 1.511 . S
C507 H521 0.961 . S
C507 H522 0.961 . S
C507 H523 0.961 . S
C508 C509 1.370 . S
C508 C510 1.363 . S
C508 H524 0.931 . S
C509 C508 1.370 . S
C509 C513 1.408 . S
C510 C508 1.363 . S
C510 C511 1.370 . S
C510 C514 1.524 1_655 S
C511 C503 1.503 1_655 S
C511 C510 1.370 . S
C511 C512 1.403 . S
C512 C511 1.403 . S
C512 C513 1.404 . S
C512 C515 1.539 . S
C513 C509 1.408 . S
C513 C512 1.404 . S
C513 H525 0.930 . S
C514 C510 1.524 1_455 S
C514 H526 0.956 . S
C514 H527 0.961 . S
C514 H528 0.961 . S
C515 C512 1.539 . S
C515 H529 0.958 . S
C515 H530 0.961 . S
C515 H531 0.960 . S
H516 C500 0.931 . S
H517 C505 0.929 . S
H518 C506 0.960 . S
H519 C506 0.962 . S
H520 C506 0.960 . S
H521 C507 0.961 . S
H522 C507 0.961 . S
H523 C507 0.961 . S
H524 C508 0.931 . S
H525 C513 0.930 . S
H526 C514 0.956 . S
H527 C514 0.961 . S
H528 C514 0.961 . S
H529 C515 0.958 . S
H530 C515 0.961 . S
H531 C515 0.960 . S
C532 C533 1.391 . S
C532 C534 1.394 . S
C532 H548 0.931 . S
C533 C532 1.391 . S
C533 C537 1.376 . S
C534 C532 1.394 . S
C534 C535 1.369 . S
C534 C538 1.531 . S
C535 C534 1.369 . S
C535 C536 1.410 . S
C535 C543 1.503 . S
C536 C535 1.410 . S
C536 C537 1.392 . S
C536 C539 1.511 . S
C537 C533 1.376 . S
C537 C536 1.392 . S
C537 H549 0.929 . S
C538 C534 1.531 . S
C538 H550 0.960 . S
C538 H551 0.962 . S
C538 H552 0.960 . S
C539 C536 1.511 . S
C539 H553 0.961 . S
C539 H554 0.961 . S
C539 H555 0.961 . S
C540 C541 1.370 . S
C540 C542 1.363 . S
C540 H556 0.931 . S
C541 C540 1.370 . S
C541 C545 1.408 . S
C542 C540 1.363 . S
C542 C543 1.370 . S
C542 C546 1.524 . S
C543 C535 1.503 . S
C543 C542 1.370 . S
C543 C544 1.403 . S
C544 C543 1.403 . S
C544 C545 1.404 . S
C544 C547 1.539 . S
C545 C541 1.408 . S
C545 C544 1.404 . S
C545 H557 0.930 . S
C546 C542 1.524 . S
C546 H558 0.956 . S
C546 H559 0.961 . S
C546 H560 0.961 . S
C547 C544 1.539 . S
C547 H561 0.958 . S
C547 H562 0.961 . S
C547 H563 0.960 . S
H548 C532 0.931 . S
H549 C537 0.929 . S
H550 C538 0.960 . S
H551 C538 0.962 . S
H552 C538 0.960 . S
H553 C539 0.961 . S
H554 C539 0.961 . S
H555 C539 0.961 . S
H556 C540 0.931 . S
H557 C545 0.930 . S
H558 C546 0.956 . S
H559 C546 0.961 . S
H560 C546 0.961 . S
H561 C547 0.958 . S
H562 C547 0.961 . S
H563 C547 0.960 . S
C564 C565 1.391 . S
C564 C566 1.394 1_565 S
C564 H580 0.931 . S
C565 C564 1.391 . S
C565 C569 1.376 . S
C566 C564 1.394 1_545 S
C566 C567 1.369 1_545 S
C566 C570 1.531 . S
C567 C566 1.369 1_565 S
C567 C568 1.410 . S
C567 C575 1.503 1_565 S
C568 C567 1.410 . S
C568 C569 1.392 . S
C568 C571 1.511 . S
C569 C565 1.376 . S
C569 C568 1.392 . S
C569 H581 0.929 . S
C570 C566 1.531 . S
C570 H582 0.960 . S
C570 H583 0.962 . S
C570 H584 0.960 . S
C571 C568 1.511 . S
C571 H585 0.961 . S
C571 H586 0.961 . S
C571 H587 0.961 . S
C572 C573 1.370 . S
C572 C574 1.363 . S
C572 H588 0.931 . S
C573 C572 1.370 . S
C573 C577 1.408 . S
C574 C572 1.363 . S
C574 C575 1.370 . S
C574 C578 1.524 1_545 S
C575 C567 1.503 1_545 S
C575 C574 1.370 . S
C575 C576 1.403 . S
C576 C575 1.403 . S
C576 C577 1.404 . S
C576 C579 1.539 . S
C577 C573 1.408 . S
C577 C576 1.404 . S
C577 H589 0.930 . S
C578 C574 1.524 1_565 S
C578 H590 0.956 . S
C578 H591 0.961 . S
C578 H592 0.961 . S
C579 C576 1.539 . S
C579 H593 0.958 . S
C579 H594 0.961 . S
C579 H595 0.960 . S
H580 C564 0.931 . S
H581 C569 0.929 . S
H582 C570 0.960 . S
H583 C570 0.962 . S
H584 C570 0.960 . S
H585 C571 0.961 . S
H586 C571 0.961 . S
H587 C571 0.961 . S
H588 C572 0.931 . S
H589 C577 0.930 . S
H590 C578 0.956 . S
H591 C578 0.961 . S
H592 C578 0.961 . S
H593 C579 0.958 . S
H594 C579 0.961 . S
H595 C579 0.960 . S
C596 C597 1.391 . S
C596 C598 1.394 . S
C596 H612 0.931 . S
C597 C596 1.391 . S
C597 C601 1.376 . S
C598 C596 1.394 . S
C598 C599 1.369 . S
C598 C602 1.531 1_455 S
C599 C598 1.369 . S
C599 C600 1.410 . S
C599 C607 1.503 1_455 S
C600 C599 1.410 . S
C600 C601 1.392 . S
C600 C603 1.511 . S
C601 C597 1.376 . S
C601 C600 1.392 . S
C601 H613 0.929 . S
C602 C598 1.531 1_655 S
C602 H614 0.960 . S
C602 H615 0.962 . S
C602 H616 0.960 . S
C603 C600 1.511 . S
C603 H617 0.961 . S
C603 H618 0.961 . S
C603 H619 0.961 . S
C604 C605 1.370 . S
C604 C606 1.363 . S
C604 H620 0.931 . S
C605 C604 1.370 . S
C605 C609 1.408 . S
C606 C604 1.363 . S
C606 C607 1.370 . S
C606 C610 1.524 . S
C607 C599 1.503 1_655 S
C607 C606 1.370 . S
C607 C608 1.407 1_655 S
C608 C607 1.407 1_455 S
C608 C609 1.378 1_455 S
C608 C611 1.567 . S
C609 C605 1.408 . S
C609 C608 1.378 1_655 S
C609 H621 0.930 . S
C610 C606 1.524 . S
C610 H622 0.956 . S
C610 H623 0.961 . S
C610 H624 0.961 . S
C611 C608 1.567 . S
C611 H625 0.958 . S
C611 H626 0.961 . S
C611 H627 0.960 . S
H612 C596 0.931 . S
H613 C601 0.929 . S
H614 C602 0.960 . S
H615 C602 0.962 . S
H616 C602 0.960 . S
H617 C603 0.961 . S
H618 C603 0.961 . S
H619 C603 0.961 . S
H620 C604 0.931 . S
H621 C609 0.930 . S
H622 C610 0.956 . S
H623 C610 0.961 . S
H624 C610 0.961 . S
H625 C611 0.958 . S
H626 C611 0.961 . S
H627 C611 0.960 . S
C628 C629 1.391 . S
C628 C630 1.394 . S
C628 H644 0.931 . S
C629 C628 1.391 . S
C629 C633 1.376 . S
C630 C628 1.394 . S
C630 C631 1.369 . S
C630 C634 1.531 . S
C631 C630 1.369 . S
C631 C632 1.410 . S
C631 C639 1.503 . S
C632 C631 1.410 . S
C632 C633 1.392 . S
C632 C635 1.511 . S
C633 C629 1.376 . S
C633 C632 1.392 . S
C633 H645 0.929 . S
C634 C630 1.531 . S
C634 H646 0.960 . S
C634 H647 0.962 . S
C634 H648 0.960 . S
C635 C632 1.511 . S
C635 H649 0.961 . S
C635 H650 0.961 . S
C635 H651 0.961 . S
C636 C637 1.370 . S
C636 C638 1.363 . S
C636 H652 0.931 . S
C637 C636 1.370 . S
C637 C641 1.408 . S
C638 C636 1.363 . S
C638 C639 1.370 . S
C638 C642 1.524 . S
C639 C631 1.503 . S
C639 C638 1.370 . S
C639 C640 1.403 . S
C640 C639 1.403 . S
C640 C641 1.404 . S
C640 C643 1.539 . S
C641 C637 1.408 . S
C641 C640 1.404 . S
C641 H653 0.930 . S
C642 C638 1.524 . S
C642 H654 0.956 . S
C642 H655 0.961 . S
C642 H656 0.961 . S
C643 C640 1.539 . S
C643 H657 0.958 . S
C643 H658 0.961 . S
C643 H659 0.960 . S
H644 C628 0.931 . S
H645 C633 0.929 . S
H646 C634 0.960 . S
H647 C634 0.962 . S
H648 C634 0.960 . S
H649 C635 0.961 . S
H650 C635 0.961 . S
H651 C635 0.961 . S
H652 C636 0.931 . S
H653 C641 0.930 . S
H654 C642 0.956 . S
H655 C642 0.961 . S
H656 C642 0.961 . S
H657 C643 0.958 . S
H658 C643 0.961 . S
H659 C643 0.960 . S
C660 C661 1.391 . S
C660 C662 1.394 . S
C660 H676 0.931 . S
C661 C660 1.391 . S
C661 C665 1.376 . S
C662 C660 1.394 . S
C662 C663 1.369 . S
C662 C666 1.531 . S
C663 C662 1.369 . S
C663 C664 1.410 . S
C663 C671 1.503 . S
C664 C663 1.410 . S
C664 C665 1.392 . S
C664 C667 1.511 . S
C665 C661 1.376 . S
C665 C664 1.392 . S
C665 H677 0.929 . S
C666 C662 1.531 . S
C666 H678 0.960 . S
C666 H679 0.962 . S
C666 H680 0.960 . S
C667 C664 1.511 . S
C667 H681 0.961 . S
C667 H682 0.961 . S
C667 H683 0.961 . S
C668 C669 1.370 . S
C668 C670 1.363 . S
C668 H684 0.931 . S
C669 C668 1.370 . S
C669 C673 1.408 . S
C670 C668 1.363 . S
C670 C671 1.370 . S
C670 C674 1.524 . S
C671 C663 1.503 . S
C671 C670 1.370 . S
C671 C672 1.403 . S
C672 C671 1.403 . S
C672 C673 1.404 . S
C672 C675 1.539 . S
C673 C669 1.408 . S
C673 C672 1.404 . S
C673 H685 0.930 . S
C674 C670 1.524 . S
C674 H686 0.956 . S
C674 H687 0.961 . S
C674 H688 0.961 . S
C675 C672 1.539 . S
C675 H689 0.958 . S
C675 H690 0.961 . S
C675 H691 0.960 . S
H676 C660 0.931 . S
H677 C665 0.929 . S
H678 C666 0.960 . S
H679 C666 0.962 . S
H680 C666 0.960 . S
H681 C667 0.961 . S
H682 C667 0.961 . S
H683 C667 0.961 . S
H684 C668 0.931 . S
H685 C673 0.930 . S
H686 C674 0.956 . S
H687 C674 0.961 . S
H688 C674 0.961 . S
H689 C675 0.958 . S
H690 C675 0.961 . S
H691 C675 0.960 . S
C692 C693 1.391 . S
C692 C694 1.394 . S
C692 H708 0.931 . S
C693 C692 1.391 . S
C693 C697 1.376 . S
C694 C692 1.394 . S
C694 C695 1.369 . S
C694 C698 1.531 . S
C695 C694 1.369 . S
C695 C696 1.410 . S
C695 C703 1.503 . S
C696 C695 1.410 . S
C696 C697 1.392 . S
C696 C699 1.511 . S
C697 C693 1.376 . S
C697 C696 1.392 . S
C697 H709 0.929 . S
C698 C694 1.531 . S
C698 H710 0.960 . S
C698 H711 0.962 . S
C698 H712 0.960 . S
C699 C696 1.511 . S
C699 H713 0.961 . S
C699 H714 0.961 . S
C699 H715 0.961 . S
C700 C701 1.370 . S
C700 C702 1.363 . S
C700 H716 0.931 . S
C701 C700 1.370 . S
C701 C705 1.408 . S
C702 C700 1.363 . S
C702 C703 1.370 . S
C702 C706 1.524 . S
C703 C695 1.503 . S
C703 C702 1.370 . S
C703 C704 1.403 . S
C704 C703 1.403 . S
C704 C705 1.404 . S
C704 C707 1.539 . S
C705 C701 1.408 . S
C705 C704 1.404 . S
C705 H717 0.930 . S
C706 C702 1.524 . S
C706 H718 0.956 . S
C706 H719 0.961 . S
C706 H720 0.961 . S
C707 C704 1.539 . S
C707 H721 0.958 . S
C707 H722 0.961 . S
C707 H723 0.960 . S
H708 C692 0.931 . S
H709 C697 0.929 . S
H710 C698 0.960 . S
H711 C698 0.962 . S
H712 C698 0.960 . S
H713 C699 0.961 . S
H714 C699 0.961 . S
H715 C699 0.961 . S
H716 C700 0.931 . S
H717 C705 0.930 . S
H718 C706 0.956 . S
H719 C706 0.961 . S
H720 C706 0.961 . S
H721 C707 0.958 . S
H722 C707 0.961 . S
H723 C707 0.960 . S
C724 C725 1.391 . S
C724 C726 1.394 . S
C724 H740 0.931 . S
C725 C724 1.391 . S
C725 C729 1.376 . S
C726 C724 1.394 . S
C726 C727 1.369 . S
C726 C730 1.531 . S
C727 C726 1.369 . S
C727 C728 1.410 . S
C727 C735 1.503 . S
C728 C727 1.410 . S
C728 C729 1.392 . S
C728 C731 1.511 . S
C729 C725 1.376 . S
C729 C728 1.392 . S
C729 H741 0.929 . S
C730 C726 1.531 . S
C730 H742 0.960 . S
C730 H743 0.962 . S
C730 H744 0.960 . S
C731 C728 1.511 . S
C731 H745 0.961 . S
C731 H746 0.961 . S
C731 H747 0.961 . S
C732 C733 1.370 . S
C732 C734 1.363 . S
C732 H748 0.931 . S
C733 C732 1.370 . S
C733 C737 1.408 . S
C734 C732 1.363 . S
C734 C735 1.370 . S
C734 C738 1.524 . S
C735 C727 1.503 . S
C735 C734 1.370 . S
C735 C736 1.403 . S
C736 C735 1.403 . S
C736 C737 1.404 . S
C736 C739 1.539 . S
C737 C733 1.408 . S
C737 C736 1.404 . S
C737 H749 0.930 . S
C738 C734 1.524 . S
C738 H750 0.956 . S
C738 H751 0.961 . S
C738 H752 0.961 . S
C739 C736 1.539 . S
C739 H753 0.958 . S
C739 H754 0.961 . S
C739 H755 0.960 . S
H740 C724 0.931 . S
H741 C729 0.929 . S
H742 C730 0.960 . S
H743 C730 0.962 . S
H744 C730 0.960 . S
H745 C731 0.961 . S
H746 C731 0.961 . S
H747 C731 0.961 . S
H748 C732 0.931 . S
H749 C737 0.930 . S
H750 C738 0.956 . S
H751 C738 0.961 . S
H752 C738 0.961 . S
H753 C739 0.958 . S
H754 C739 0.961 . S
H755 C739 0.960 . S
C756 C757 1.391 . S
C756 C758 1.394 . S
C756 H772 0.931 . S
C757 C756 1.391 . S
C757 C761 1.376 . S
C758 C756 1.394 . S
C758 C759 1.369 . S
C758 C762 1.531 . S
C759 C758 1.369 . S
C759 C760 1.410 . S
C759 C767 1.503 . S
C760 C759 1.410 . S
C760 C761 1.392 . S
C760 C763 1.511 . S
C761 C757 1.376 . S
C761 C760 1.392 . S
C761 H773 0.929 . S
C762 C758 1.531 . S
C762 H774 0.960 . S
C762 H775 0.962 . S
C762 H776 0.960 . S
C763 C760 1.511 . S
C763 H777 0.961 . S
C763 H778 0.961 . S
C763 H779 0.961 . S
C764 C765 1.370 . S
C764 C766 1.363 . S
C764 H780 0.931 . S
C765 C764 1.370 . S
C765 C769 1.408 . S
C766 C764 1.363 . S
C766 C767 1.370 . S
C766 C770 1.524 . S
C767 C759 1.503 . S
C767 C766 1.370 . S
C767 C768 1.403 . S
C768 C767 1.403 . S
C768 C769 1.404 . S
C768 C771 1.539 . S
C769 C765 1.408 . S
C769 C768 1.404 . S
C769 H781 0.930 . S
C770 C766 1.524 . S
C770 H782 0.956 . S
C770 H783 0.961 . S
C770 H784 0.961 . S
C771 C768 1.539 . S
C771 H785 0.958 . S
C771 H786 0.961 . S
C771 H787 0.960 . S
H772 C756 0.931 . S
H773 C761 0.929 . S
H774 C762 0.960 . S
H775 C762 0.962 . S
H776 C762 0.960 . S
H777 C763 0.961 . S
H778 C763 0.961 . S
H779 C763 0.961 . S
H780 C764 0.931 . S
H781 C769 0.930 . S
H782 C770 0.956 . S
H783 C770 0.961 . S
H784 C770 0.961 . S
H785 C771 0.958 . S
H786 C771 0.961 . S
H787 C771 0.960 . S
C788 C789 1.391 . S
C788 C790 1.394 . S
C788 H804 0.931 . S
C789 C788 1.391 . S
C789 C793 1.376 . S
C790 C788 1.394 . S
C790 C791 1.369 . S
C790 C794 1.531 . S
C791 C790 1.369 . S
C791 C792 1.410 . S
C791 C799 1.503 . S
C792 C791 1.410 . S
C792 C793 1.392 . S
C792 C795 1.511 . S
C793 C789 1.376 . S
C793 C792 1.392 . S
C793 H805 0.929 . S
C794 C790 1.531 . S
C794 H806 0.960 . S
C794 H807 0.962 . S
C794 H808 0.960 . S
C795 C792 1.511 . S
C795 H809 0.961 . S
C795 H810 0.961 . S
C795 H811 0.961 . S
C796 C797 1.370 . S
C796 C798 1.363 . S
C796 H812 0.931 . S
C797 C796 1.370 . S
C797 C801 1.408 . S
C798 C796 1.363 . S
C798 C799 1.370 . S
C798 C802 1.524 . S
C799 C791 1.503 . S
C799 C798 1.370 . S
C799 C800 1.403 . S
C800 C799 1.403 . S
C800 C801 1.404 . S
C800 C803 1.539 . S
C801 C797 1.408 . S
C801 C800 1.404 . S
C801 H813 0.930 . S
C802 C798 1.524 . S
C802 H814 0.956 . S
C802 H815 0.961 . S
C802 H816 0.961 . S
C803 C800 1.539 . S
C803 H817 0.958 . S
C803 H818 0.961 . S
C803 H819 0.960 . S
H804 C788 0.931 . S
H805 C793 0.929 . S
H806 C794 0.960 . S
H807 C794 0.962 . S
H808 C794 0.960 . S
H809 C795 0.961 . S
H810 C795 0.961 . S
H811 C795 0.961 . S
H812 C796 0.931 . S
H813 C801 0.930 . S
H814 C802 0.956 . S
H815 C802 0.961 . S
H816 C802 0.961 . S
H817 C803 0.958 . S
H818 C803 0.961 . S
H819 C803 0.960 . S
C820 C821 1.391 . S
C820 C822 1.394 . S
C820 H836 0.931 . S
C821 C820 1.391 . S
C821 C825 1.376 . S
C822 C820 1.394 . S
C822 C823 1.369 . S
C822 C826 1.531 . S
C823 C822 1.369 . S
C823 C824 1.410 . S
C823 C831 1.503 . S
C824 C823 1.410 . S
C824 C825 1.392 . S
C824 C827 1.511 . S
C825 C821 1.376 . S
C825 C824 1.392 . S
C825 H837 0.929 . S
C826 C822 1.531 . S
C826 H838 0.960 . S
C826 H839 0.962 . S
C826 H840 0.960 . S
C827 C824 1.511 . S
C827 H841 0.961 . S
C827 H842 0.961 . S
C827 H843 0.961 . S
C828 C829 1.370 . S
C828 C830 1.363 . S
C828 H844 0.931 . S
C829 C828 1.370 . S
C829 C833 1.408 . S
C830 C828 1.363 . S
C830 C831 1.370 . S
C830 C834 1.524 . S
C831 C823 1.503 . S
C831 C830 1.370 . S
C831 C832 1.403 . S
C832 C831 1.403 . S
C832 C833 1.404 . S
C832 C835 1.539 . S
C833 C829 1.408 . S
C833 C832 1.404 . S
C833 H845 0.930 . S
C834 C830 1.524 . S
C834 H846 0.956 . S
C834 H847 0.961 . S
C834 H848 0.961 . S
C835 C832 1.539 . S
C835 H849 0.958 . S
C835 H850 0.961 . S
C835 H851 0.960 . S
H836 C820 0.931 . S
H837 C825 0.929 . S
H838 C826 0.960 . S
H839 C826 0.962 . S
H840 C826 0.960 . S
H841 C827 0.961 . S
H842 C827 0.961 . S
H843 C827 0.961 . S
H844 C828 0.931 . S
H845 C833 0.930 . S
H846 C834 0.956 . S
H847 C834 0.961 . S
H848 C834 0.961 . S
H849 C835 0.958 . S
H850 C835 0.961 . S
H851 C835 0.960 . S
C852 C853 1.391 . S
C852 C854 1.394 . S
C852 H868 0.931 . S
C853 C852 1.391 . S
C853 C857 1.376 . S
C854 C852 1.394 . S
C854 C855 1.369 . S
C854 C858 1.531 . S
C855 C854 1.369 . S
C855 C856 1.410 . S
C855 C863 1.503 . S
C856 C855 1.410 . S
C856 C857 1.392 . S
C856 C859 1.511 . S
C857 C853 1.376 . S
C857 C856 1.392 . S
C857 H869 0.929 . S
C858 C854 1.531 . S
C858 H870 0.960 . S
C858 H871 0.962 . S
C858 H872 0.960 . S
C859 C856 1.511 . S
C859 H873 0.961 . S
C859 H874 0.961 . S
C859 H875 0.961 . S
C860 C861 1.370 . S
C860 C862 1.363 . S
C860 H876 0.931 . S
C861 C860 1.370 . S
C861 C865 1.408 . S
C862 C860 1.363 . S
C862 C863 1.370 . S
C862 C866 1.524 . S
C863 C855 1.503 . S
C863 C862 1.370 . S
C863 C864 1.403 . S
C864 C863 1.403 . S
C864 C865 1.404 . S
C864 C867 1.539 . S
C865 C861 1.408 . S
C865 C864 1.404 . S
C865 H877 0.930 . S
C866 C862 1.524 . S
C866 H878 0.956 . S
C866 H879 0.961 . S
C866 H880 0.961 . S
C867 C864 1.539 . S
C867 H881 0.958 . S
C867 H882 0.961 . S
C867 H883 0.960 . S
H868 C852 0.931 . S
H869 C857 0.929 . S
H870 C858 0.960 . S
H871 C858 0.962 . S
H872 C858 0.960 . S
H873 C859 0.961 . S
H874 C859 0.961 . S
H875 C859 0.961 . S
H876 C860 0.931 . S
H877 C865 0.930 . S
H878 C866 0.956 . S
H879 C866 0.961 . S
H880 C866 0.961 . S
H881 C867 0.958 . S
H882 C867 0.961 . S
H883 C867 0.960 . S
C884 C885 1.391 . S
C884 C886 1.394 . S
C884 H900 0.931 . S
C885 C884 1.391 . S
C885 C889 1.376 . S
C886 C884 1.394 . S
C886 C887 1.369 . S
C886 C890 1.531 . S
C887 C886 1.369 . S
C887 C888 1.410 . S
C887 C895 1.503 . S
C888 C887 1.410 . S
C888 C889 1.392 . S
C888 C891 1.511 . S
C889 C885 1.376 . S
C889 C888 1.392 . S
C889 H901 0.929 . S
C890 C886 1.531 . S
C890 H902 0.960 . S
C890 H903 0.962 . S
C890 H904 0.960 . S
C891 C888 1.511 . S
C891 H905 0.961 . S
C891 H906 0.961 . S
C891 H907 0.961 . S
C892 C893 1.370 . S
C892 C894 1.363 . S
C892 H908 0.931 . S
C893 C892 1.370 . S
C893 C897 1.408 . S
C894 C892 1.363 . S
C894 C895 1.370 . S
C894 C898 1.524 . S
C895 C887 1.503 . S
C895 C894 1.370 . S
C895 C896 1.403 . S
C896 C895 1.403 . S
C896 C897 1.404 . S
C896 C899 1.539 . S
C897 C893 1.408 . S
C897 C896 1.404 . S
C897 H909 0.930 . S
C898 C894 1.524 . S
C898 H910 0.956 . S
C898 H911 0.961 . S
C898 H912 0.961 . S
C899 C896 1.539 . S
C899 H913 0.958 . S
C899 H914 0.961 . S
C899 H915 0.960 . S
H900 C884 0.931 . S
H901 C889 0.929 . S
H902 C890 0.960 . S
H903 C890 0.962 . S
H904 C890 0.960 . S
H905 C891 0.961 . S
H906 C891 0.961 . S
H907 C891 0.961 . S
H908 C892 0.931 . S
H909 C897 0.930 . S
H910 C898 0.956 . S
H911 C898 0.961 . S
H912 C898 0.961 . S
H913 C899 0.958 . S
H914 C899 0.961 . S
H915 C899 0.960 . S
C916 C917 1.391 . S
C916 C918 1.394 . S
C916 H932 0.931 . S
C917 C916 1.391 . S
C917 C921 1.376 . S
C918 C916 1.394 . S
C918 C919 1.369 . S
C918 C922 1.531 . S
C919 C918 1.369 . S
C919 C920 1.410 . S
C919 C927 1.503 . S
C920 C919 1.410 . S
C920 C921 1.392 . S
C920 C923 1.511 . S
C921 C917 1.376 . S
C921 C920 1.392 . S
C921 H933 0.929 . S
C922 C918 1.531 . S
C922 H934 0.960 . S
C922 H935 0.962 . S
C922 H936 0.960 . S
C923 C920 1.511 . S
C923 H937 0.961 . S
C923 H938 0.961 . S
C923 H939 0.961 . S
C924 C925 1.370 . S
C924 C926 1.363 . S
C924 H940 0.931 . S
C925 C924 1.370 . S
C925 C929 1.408 . S
C926 C924 1.363 . S
C926 C927 1.370 . S
C926 C930 1.524 . S
C927 C919 1.503 . S
C927 C926 1.370 . S
C927 C928 1.403 . S
C928 C927 1.403 . S
C928 C929 1.404 . S
C928 C931 1.539 . S
C929 C925 1.408 . S
C929 C928 1.404 . S
C929 H941 0.930 . S
C930 C926 1.524 . S
C930 H942 0.956 . S
C930 H943 0.961 . S
C930 H944 0.961 . S
C931 C928 1.539 . S
C931 H945 0.958 . S
C931 H946 0.961 . S
C931 H947 0.960 . S
H932 C916 0.931 . S
H933 C921 0.929 . S
H934 C922 0.960 . S
H935 C922 0.962 . S
H936 C922 0.960 . S
H937 C923 0.961 . S
H938 C923 0.961 . S
H939 C923 0.961 . S
H940 C924 0.931 . S
H941 C929 0.930 . S
H942 C930 0.956 . S
H943 C930 0.961 . S
H944 C930 0.961 . S
H945 C931 0.958 . S
H946 C931 0.961 . S
H947 C931 0.960 . S
C948 C949 1.391 . S
C948 C950 1.394 . S
C948 H964 0.931 . S
C949 C948 1.391 . S
C949 C953 1.376 . S
C950 C948 1.394 . S
C950 C951 1.369 . S
C950 C954 1.531 . S
C951 C950 1.369 . S
C951 C952 1.410 . S
C951 C959 1.503 . S
C952 C951 1.410 . S
C952 C953 1.392 . S
C952 C955 1.511 . S
C953 C949 1.376 . S
C953 C952 1.392 . S
C953 H965 0.929 . S
C954 C950 1.531 . S
C954 H966 0.960 . S
C954 H967 0.962 . S
C954 H968 0.960 . S
C955 C952 1.511 . S
C955 H969 0.961 . S
C955 H970 0.961 . S
C955 H971 0.961 . S
C956 C957 1.370 . S
C956 C958 1.363 . S
C956 H972 0.931 . S
C957 C956 1.370 . S
C957 C961 1.408 . S
C958 C956 1.363 . S
C958 C959 1.370 . S
C958 C962 1.524 . S
C959 C951 1.503 . S
C959 C958 1.370 . S
C959 C960 1.403 . S
C960 C959 1.403 . S
C960 C961 1.404 . S
C960 C963 1.539 . S
C961 C957 1.408 . S
C961 C960 1.404 . S
C961 H973 0.930 . S
C962 C958 1.524 . S
C962 H974 0.956 . S
C962 H975 0.961 . S
C962 H976 0.961 . S
C963 C960 1.539 . S
C963 H977 0.958 . S
C963 H978 0.961 . S
C963 H979 0.960 . S
H964 C948 0.931 . S
H965 C953 0.929 . S
H966 C954 0.960 . S
H967 C954 0.962 . S
H968 C954 0.960 . S
H969 C955 0.961 . S
H970 C955 0.961 . S
H971 C955 0.961 . S
H972 C956 0.931 . S
H973 C961 0.930 . S
H974 C962 0.956 . S
H975 C962 0.961 . S
H976 C962 0.961 . S
H977 C963 0.958 . S
H978 C963 0.961 . S
H979 C963 0.960 . S
C980 C981 1.391 . S
C980 C982 1.394 . S
C980 H996 0.931 . S
C981 C980 1.391 . S
C981 C985 1.376 . S
C982 C980 1.394 . S
C982 C983 1.369 . S
C982 C986 1.531 . S
C983 C982 1.369 . S
C983 C984 1.410 . S
C983 C991 1.503 . S
C984 C983 1.410 . S
C984 C985 1.392 . S
C984 C987 1.511 . S
C985 C981 1.376 . S
C985 C984 1.392 . S
C985 H997 0.929 . S
C986 C982 1.531 . S
C986 H998 0.960 . S
C986 H999 0.962 . S
C986 H1000 0.960 . S
C987 C984 1.511 . S
C987 H1001 0.961 . S
C987 H1002 0.961 . S
C987 H1003 0.961 . S
C988 C989 1.370 . S
C988 C990 1.363 . S
C988 H1004 0.931 . S
C989 C988 1.370 . S
C989 C993 1.408 . S
C990 C988 1.363 . S
C990 C991 1.370 . S
C990 C994 1.524 . S
C991 C983 1.503 . S
C991 C990 1.370 . S
C991 C992 1.403 . S
C992 C991 1.403 . S
C992 C993 1.404 . S
C992 C995 1.539 . S
C993 C989 1.408 . S
C993 C992 1.404 . S
C993 H1005 0.930 . S
C994 C990 1.524 . S
C994 H1006 0.956 . S
C994 H1007 0.961 . S
C994 H1008 0.961 . S
C995 C992 1.539 . S
C995 H1009 0.958 . S
C995 H1010 0.961 . S
C995 H1011 0.960 . S
H996 C980 0.931 . S
H997 C985 0.929 . S
H998 C986 0.960 . S
H999 C986 0.962 . S
H1000 C986 0.960 . S
H1001 C987 0.961 . S
H1002 C987 0.961 . S
H1003 C987 0.961 . S
H1004 C988 0.931 . S
H1005 C993 0.930 . S
H1006 C994 0.956 . S
H1007 C994 0.961 . S
H1008 C994 0.961 . S
H1009 C995 0.958 . S
H1010 C995 0.961 . S
H1011 C995 0.960 . S
C1012 C1013 1.391 . S
C1012 C1014 1.394 . S
C1012 H1028 0.931 . S
C1013 C1012 1.391 . S
C1013 C1017 1.376 . S
C1014 C1012 1.394 . S
C1014 C1015 1.369 . S
C1014 C1018 1.531 . S
C1015 C1014 1.369 . S
C1015 C1016 1.410 . S
C1015 C1023 1.503 . S
C1016 C1015 1.410 . S
C1016 C1017 1.392 . S
C1016 C1019 1.511 . S
C1017 C1013 1.376 . S
C1017 C1016 1.392 . S
C1017 H1029 0.929 . S
C1018 C1014 1.531 . S
C1018 H1030 0.960 . S
C1018 H1031 0.962 . S
C1018 H1032 0.960 . S
C1019 C1016 1.511 . S
C1019 H1033 0.961 . S
C1019 H1034 0.961 . S
C1019 H1035 0.961 . S
C1020 C1021 1.370 . S
C1020 C1022 1.363 . S
C1020 H1036 0.931 . S
C1021 C1020 1.370 . S
C1021 C1025 1.408 . S
C1022 C1020 1.363 . S
C1022 C1023 1.370 . S
C1022 C1026 1.524 . S
C1023 C1015 1.503 . S
C1023 C1022 1.370 . S
C1023 C1024 1.403 . S
C1024 C1023 1.403 . S
C1024 C1025 1.404 . S
C1024 C1027 1.539 . S
C1025 C1021 1.408 . S
C1025 C1024 1.404 . S
C1025 H1037 0.930 . S
C1026 C1022 1.524 . S
C1026 H1038 0.956 . S
C1026 H1039 0.961 . S
C1026 H1040 0.961 . S
C1027 C1024 1.539 . S
C1027 H1041 0.958 . S
C1027 H1042 0.961 . S
C1027 H1043 0.960 . S
H1028 C1012 0.931 . S
H1029 C1017 0.929 . S
H1030 C1018 0.960 . S
H1031 C1018 0.962 . S
H1032 C1018 0.960 . S
H1033 C1019 0.961 . S
H1034 C1019 0.961 . S
H1035 C1019 0.961 . S
H1036 C1020 0.931 . S
H1037 C1025 0.930 . S
H1038 C1026 0.956 . S
H1039 C1026 0.961 . S
H1040 C1026 0.961 . S
H1041 C1027 0.958 . S
H1042 C1027 0.961 . S
H1043 C1027 0.960 . S
C1044 C1045 1.391 . S
C1044 C1046 1.394 . S
C1044 H1060 0.931 . S
C1045 C1044 1.391 . S
C1045 C1049 1.376 . S
C1046 C1044 1.394 . S
C1046 C1047 1.369 . S
C1046 C1050 1.531 1_565 S
C1047 C1046 1.369 . S
C1047 C1048 1.410 . S
C1047 C1055 1.503 1_566 S
C1048 C1047 1.410 . S
C1048 C1049 1.392 . S
C1048 C1051 1.511 . S
C1049 C1045 1.376 . S
C1049 C1048 1.392 . S
C1049 H1061 0.929 . S
C1050 C1046 1.531 1_545 S
C1050 H1062 0.960 . S
C1050 H1063 0.962 1_545 S
C1050 H1064 0.960 . S
C1051 C1048 1.511 . S
C1051 H1065 0.961 . S
C1051 H1066 0.961 1_556 S
C1051 H1067 0.886 1_565 S
C1052 C1053 1.370 . S
C1052 C1054 1.406 . S
C1052 H1068 0.931 . S
C1053 C1052 1.370 . S
C1053 C1057 1.408 . S
C1054 C1052 1.406 . S
C1054 C1055 1.412 . S
C1054 C1058 1.444 1_545 S
C1055 C1047 1.503 1_544 S
C1055 C1054 1.412 . S
C1055 C1056 1.403 . S
C1056 C1055 1.403 . S
C1056 C1057 1.404 . S
C1056 C1059 1.539 1_554 S
C1057 C1053 1.408 . S
C1057 C1056 1.404 . S
C1057 H1069 0.930 . S
C1058 C1054 1.444 1_565 S
C1058 H1070 0.956 . S
C1058 H1071 0.961 . S
C1058 H1072 0.961 . S
C1059 C1056 1.539 1_556 S
C1059 H1073 0.958 . S
C1059 H1074 0.961 . S
C1059 H1075 0.960 . S
H1060 C1044 0.931 . S
H1061 C1049 0.929 . S
H1062 C1050 0.960 . S
H1063 C1050 0.962 1_565 S
H1064 C1050 0.960 . S
H1065 C1051 0.961 . S
H1066 C1051 0.961 1_554 S
H1067 C1051 0.886 1_545 S
H1068 C1052 0.931 . S
H1069 C1057 0.930 . S
H1070 C1058 0.956 . S
H1071 C1058 0.961 . S
H1072 C1058 0.961 . S
H1073 C1059 0.958 . S
H1074 C1059 0.961 . S
H1075 C1059 0.960 . S
C1076 C1077 1.391 . S
C1076 C1078 1.394 . S
C1076 H1092 0.931 . S
C1077 C1076 1.391 . S
C1077 C1081 1.376 . S
C1078 C1076 1.394 . S
C1078 C1079 1.369 . S
C1078 C1082 1.531 . S
C1079 C1078 1.369 . S
C1079 C1080 1.410 . S
C1079 C1087 1.503 1_654 S
C1080 C1079 1.410 . S
C1080 C1081 1.392 . S
C1080 C1083 1.511 1_655 S
C1081 C1077 1.376 . S
C1081 C1080 1.392 . S
C1081 H1093 0.929 . S
C1082 C1078 1.531 . S
C1082 H1094 0.940 1_654 S
C1082 H1095 0.962 1_554 S
C1082 H1096 0.960 . S
C1083 C1080 1.511 1_455 S
C1083 H1097 0.964 . S
C1083 H1098 0.961 . S
C1083 H1099 0.961 . S
C1084 C1085 1.370 . S
C1084 C1086 1.363 . S
C1084 H1100 0.931 . S
C1085 C1084 1.370 . S
C1085 C1089 1.408 . S
C1086 C1084 1.363 . S
C1086 C1087 1.370 . S
C1086 C1090 1.524 1_455 S
C1087 C1079 1.503 1_456 S
C1087 C1086 1.370 . S
C1087 C1088 1.403 . S
C1088 C1087 1.403 . S
C1088 C1089 1.404 . S
C1088 C1091 1.539 1_556 S
C1089 C1085 1.408 . S
C1089 C1088 1.404 . S
C1089 H1101 0.930 . S
C1090 C1086 1.524 1_655 S
C1090 H1102 0.956 . S
C1090 H1103 0.961 . S
C1090 H1104 0.961 . S
C1091 C1088 1.539 1_554 S
C1091 H1105 0.958 . S
C1091 H1106 0.961 . S
C1091 H1107 0.960 . S
H1092 C1076 0.931 . S
H1093 C1081 0.929 . S
H1094 C1082 0.940 1_456 S
H1095 C1082 0.962 1_556 S
H1096 C1082 0.960 . S
H1097 C1083 0.964 . S
H1098 C1083 0.961 . S
H1099 C1083 0.961 . S
H1100 C1084 0.931 . S
H1101 C1089 0.930 . S
H1102 C1090 0.956 . S
H1103 C1090 0.961 . S
H1104 C1090 0.961 . S
H1105 C1091 0.958 . S
H1106 C1091 0.961 . S
H1107 C1091 0.960 . S
C1108 C1109 1.391 . S
C1108 C1110 1.394 . S
C1108 H1124 0.931 . S
C1109 C1108 1.391 . S
C1109 C1113 1.376 . S
C1110 C1108 1.394 . S
C1110 C1111 1.369 . S
C1110 C1114 1.531 . S
C1111 C1110 1.369 . S
C1111 C1112 1.410 . S
C1111 C1119 1.503 1_556 S
C1112 C1111 1.410 . S
C1112 C1113 1.392 . S
C1112 C1115 1.511 . S
C1113 C1109 1.376 . S
C1113 C1112 1.392 . S
C1113 H1125 0.929 . S
C1114 C1110 1.531 . S
C1114 H1126 0.960 1_556 S
C1114 H1127 0.962 . S
C1114 H1128 0.960 . S
C1115 C1112 1.511 . S
C1115 H1129 0.961 . S
C1115 H1130 0.961 . S
C1115 H1131 0.961 1_556 S
C1116 C1117 1.370 . S
C1116 C1118 1.363 . S
C1116 H1132 0.931 . S
C1117 C1116 1.370 . S
C1117 C1121 1.408 . S
C1118 C1116 1.363 . S
C1118 C1119 1.370 . S
C1118 C1122 1.524 1_554 S
C1119 C1111 1.503 1_554 S
C1119 C1118 1.370 . S
C1119 C1120 1.403 . S
C1120 C1119 1.403 . S
C1120 C1121 1.404 . S
C1120 C1123 1.539 . S
C1121 C1117 1.408 . S
C1121 C1120 1.404 . S
C1121 H1133 0.930 . S
C1122 C1118 1.524 1_556 S
C1122 H1134 0.956 . S
C1122 H1135 0.961 . S
C1122 H1136 0.961 . S
C1123 C1120 1.539 . S
C1123 H1137 0.958 . S
C1123 H1138 0.961 . S
C1123 H1139 0.960 . S
H1124 C1108 0.931 . S
H1125 C1113 0.929 . S
H1126 C1114 0.960 1_554 S
H1127 C1114 0.962 . S
H1128 C1114 0.960 . S
H1129 C1115 0.961 . S
H1130 C1115 0.961 . S
H1131 C1115 0.961 1_554 S
H1132 C1116 0.931 . S
H1133 C1121 0.930 . S
H1134 C1122 0.956 . S
H1135 C1122 0.961 . S
H1136 C1122 0.961 . S
H1137 C1123 0.958 . S
H1138 C1123 0.961 . S
H1139 C1123 0.960 . S
C1140 C1141 1.391 . S
C1140 C1142 1.389 1_565 S
C1140 H1156 0.931 . S
C1141 C1140 1.391 . S
C1141 C1145 1.376 . S
C1142 C1140 1.389 1_545 S
C1142 C1143 1.369 1_545 S
C1142 C1146 1.535 . S
C1143 C1142 1.369 1_565 S
C1143 C1144 1.410 . S
C1143 C1151 1.503 1_566 S
C1144 C1143 1.410 . S
C1144 C1145 1.392 . S
C1144 C1147 1.511 1_556 S
C1145 C1141 1.376 . S
C1145 C1144 1.392 . S
C1145 H1157 0.929 . S
C1146 C1142 1.535 . S
C1146 H1158 0.960 . S
C1146 H1159 0.962 . S
C1146 H1160 0.960 . S
C1147 C1144 1.511 1_554 S
C1147 H1161 0.961 . S
C1147 H1162 0.961 . S
C1147 H1163 0.961 . S
C1148 C1149 1.370 . S
C1148 C1150 1.363 . S
C1148 H1164 0.931 . S
C1149 C1148 1.370 . S
C1149 C1153 1.408 . S
C1150 C1148 1.363 . S
C1150 C1151 1.370 . S
C1150 C1154 1.524 1_545 S
C1151 C1143 1.503 1_544 S
C1151 C1150 1.370 . S
C1151 C1152 1.403 . S
C1152 C1151 1.403 . S
C1152 C1153 1.404 . S
C1152 C1155 1.539 1_554 S
C1153 C1149 1.408 . S
C1153 C1152 1.404 . S
C1153 H1165 0.930 . S
C1154 C1150 1.524 1_565 S
C1154 H1166 0.956 . S
C1154 H1167 0.961 . S
C1154 H1168 0.961 . S
C1155 C1152 1.539 1_556 S
C1155 H1169 0.958 . S
C1155 H1170 0.961 1_556 S
C1155 H1171 0.960 . S
H1156 C1140 0.931 . S
H1157 C1145 0.929 . S
H1158 C1146 0.960 . S
H1159 C1146 0.962 . S
H1160 C1146 0.960 . S
H1161 C1147 0.961 . S
H1162 C1147 0.961 . S
H1163 C1147 0.961 . S
H1164 C1148 0.931 . S
H1165 C1153 0.930 . S
H1166 C1154 0.956 . S
H1167 C1154 0.961 . S
H1168 C1154 0.961 . S
H1169 C1155 0.958 . S
H1170 C1155 0.961 1_554 S
H1171 C1155 0.960 . S
C1172 C1173 1.391 . S
C1172 C1174 1.394 . S
C1172 H1188 0.931 . S
C1173 C1172 1.391 . S
C1173 C1177 1.376 . S
C1174 C1172 1.394 . S
C1174 C1175 1.369 . S
C1174 C1178 1.531 1_556 S
C1175 C1174 1.369 . S
C1175 C1176 1.409 . S
C1175 C1183 1.503 1_456 S
C1176 C1175 1.409 . S
C1176 C1177 1.391 . S
C1176 C1179 1.513 1_455 S
C1177 C1173 1.376 . S
C1177 C1176 1.391 . S
C1177 H1189 0.929 . S
C1178 C1174 1.531 1_554 S
C1178 H1190 0.960 . S
C1178 H1191 0.962 . S
C1178 H1192 0.960 . S
C1179 C1176 1.513 1_655 S
C1179 H1193 0.961 . S
C1179 H1194 0.961 . S
C1179 H1195 0.961 . S
C1180 C1181 1.370 . S
C1180 C1182 1.363 . S
C1180 H1196 0.931 . S
C1181 C1180 1.370 . S
C1181 C1185 1.408 . S
C1182 C1180 1.363 . S
C1182 C1183 1.370 . S
C1182 C1186 1.524 . S
C1183 C1175 1.503 1_654 S
C1183 C1182 1.370 . S
C1183 C1184 1.403 . S
C1184 C1183 1.403 . S
C1184 C1185 1.404 . S
C1184 C1187 1.539 . S
C1185 C1181 1.408 . S
C1185 C1184 1.404 . S
C1185 H1197 0.930 . S
C1186 C1182 1.524 . S
C1186 H1198 0.956 1_655 S
C1186 H1199 0.961 1_554 S
C1186 H1200 0.961 . S
C1187 C1184 1.539 . S
C1187 H1201 0.958 1_655 S
C1187 H1202 0.961 . S
C1187 H1203 0.951 1_655 S
H1188 C1172 0.931 . S
H1189 C1177 0.929 . S
H1190 C1178 0.960 . S
H1191 C1178 0.962 . S
H1192 C1178 0.960 . S
H1193 C1179 0.961 . S
H1194 C1179 0.961 . S
H1195 C1179 0.961 . S
H1196 C1180 0.931 . S
H1197 C1185 0.930 . S
H1198 C1186 0.956 1_455 S
H1199 C1186 0.961 1_556 S
H1200 C1186 0.961 . S
H1201 C1187 0.958 1_455 S
H1202 C1187 0.961 . S
H1203 C1187 0.951 1_455 S
C1204 C1205 1.391 . S
C1204 C1206 1.394 . S
C1204 H1220 0.931 . S
C1205 C1204 1.391 . S
C1205 C1209 1.376 . S
C1206 C1204 1.394 . S
C1206 C1207 1.369 . S
C1206 C1210 1.531 1_554 S
C1207 C1206 1.369 . S
C1207 C1208 1.410 . S
C1207 C1215 1.503 1_554 S
C1208 C1207 1.410 . S
C1208 C1209 1.392 . S
C1208 C1211 1.511 . S
C1209 C1205 1.376 . S
C1209 C1208 1.392 . S
C1209 H1221 0.929 . S
C1210 C1206 1.531 1_556 S
C1210 H1222 0.960 . S
C1210 H1223 0.962 . S
C1210 H1224 0.960 . S
C1211 C1208 1.511 . S
C1211 H1225 0.961 . S
C1211 H1226 0.961 . S
C1211 H1227 0.961 . S
C1212 C1213 1.370 . S
C1212 C1214 1.363 . S
C1212 H1228 0.931 . S
C1213 C1212 1.370 . S
C1213 C1217 1.408 . S
C1214 C1212 1.363 . S
C1214 C1215 1.370 . S
C1214 C1218 1.524 1_556 S
C1215 C1207 1.503 1_556 S
C1215 C1214 1.370 . S
C1215 C1216 1.403 . S
C1216 C1215 1.403 . S
C1216 C1217 1.404 . S
C1216 C1219 1.539 . S
C1217 C1213 1.408 . S
C1217 C1216 1.404 . S
C1217 H1229 0.930 . S
C1218 C1214 1.524 1_554 S
C1218 H1230 0.956 . S
C1218 H1231 0.961 . S
C1218 H1232 0.961 . S
C1219 C1216 1.539 . S
C1219 H1233 0.958 . S
C1219 H1234 0.961 . S
C1219 H1235 0.960 . S
H1220 C1204 0.931 . S
H1221 C1209 0.929 . S
H1222 C1210 0.960 . S
H1223 C1210 0.962 . S
H1224 C1210 0.960 . S
H1225 C1211 0.961 . S
H1226 C1211 0.961 . S
H1227 C1211 0.961 . S
H1228 C1212 0.931 . S
H1229 C1217 0.930 . S
H1230 C1218 0.956 . S
H1231 C1218 0.961 . S
H1232 C1218 0.961 . S
H1233 C1219 0.958 . S
H1234 C1219 0.961 . S
H1235 C1219 0.960 . S
C1236 C1237 1.391 . S
C1236 C1238 1.394 . S
C1236 H1252 0.931 . S
C1237 C1236 1.391 . S
C1237 C1241 1.376 . S
C1238 C1236 1.394 . S
C1238 C1239 1.369 . S
C1238 C1242 1.531 . S
C1239 C1238 1.369 . S
C1239 C1240 1.410 . S
C1239 C1247 1.503 . S
C1240 C1239 1.410 . S
C1240 C1241 1.392 . S
C1240 C1243 1.511 . S
C1241 C1237 1.376 . S
C1241 C1240 1.392 . S
C1241 H1253 0.929 . S
C1242 C1238 1.531 . S
C1242 H1254 0.960 . S
C1242 H1255 0.962 . S
C1242 H1256 0.960 . S
C1243 C1240 1.511 . S
C1243 H1257 0.961 . S
C1243 H1258 0.961 . S
C1243 H1259 0.961 . S
C1244 C1245 1.370 . S
C1244 C1246 1.363 . S
C1244 H1260 0.931 . S
C1245 C1244 1.370 . S
C1245 C1249 1.408 . S
C1246 C1244 1.363 . S
C1246 C1247 1.370 . S
C1246 C1250 1.524 . S
C1247 C1239 1.503 . S
C1247 C1246 1.370 . S
C1247 C1248 1.403 . S
C1248 C1247 1.403 . S
C1248 C1249 1.404 . S
C1248 C1251 1.539 . S
C1249 C1245 1.408 . S
C1249 C1248 1.404 . S
C1249 H1261 0.930 . S
C1250 C1246 1.524 . S
C1250 H1262 0.956 . S
C1250 H1263 0.961 . S
C1250 H1264 0.961 . S
C1251 C1248 1.539 . S
C1251 H1265 0.958 . S
C1251 H1266 0.961 . S
C1251 H1267 0.960 . S
H1252 C1236 0.931 . S
H1253 C1241 0.929 . S
H1254 C1242 0.960 . S
H1255 C1242 0.962 . S
H1256 C1242 0.960 . S
H1257 C1243 0.961 . S
H1258 C1243 0.961 . S
H1259 C1243 0.961 . S
H1260 C1244 0.931 . S
H1261 C1249 0.930 . S
H1262 C1250 0.956 . S
H1263 C1250 0.961 . S
H1264 C1250 0.961 . S
H1265 C1251 0.958 . S
H1266 C1251 0.961 . S
H1267 C1251 0.960 . S
C1268 C1269 1.391 . S
C1268 C1270 1.394 . S
C1268 H1284 0.931 . S
C1269 C1268 1.391 . S
C1269 C1273 1.376 . S
C1270 C1268 1.394 . S
C1270 C1271 1.369 . S
C1270 C1274 1.531 . S
C1271 C1270 1.369 . S
C1271 C1272 1.410 . S
C1271 C1279 1.503 . S
C1272 C1271 1.410 . S
C1272 C1273 1.392 . S
C1272 C1275 1.511 . S
C1273 C1269 1.376 . S
C1273 C1272 1.392 . S
C1273 H1285 0.929 . S
C1274 C1270 1.531 . S
C1274 H1286 0.960 . S
C1274 H1287 0.962 . S
C1274 H1288 0.960 . S
C1275 C1272 1.511 . S
C1275 H1289 0.961 . S
C1275 H1290 0.961 . S
C1275 H1291 0.961 . S
C1276 C1277 1.370 . S
C1276 C1278 1.363 . S
C1276 H1292 0.931 . S
C1277 C1276 1.370 . S
C1277 C1281 1.408 . S
C1278 C1276 1.363 . S
C1278 C1279 1.370 . S
C1278 C1282 1.524 . S
C1279 C1271 1.503 . S
C1279 C1278 1.370 . S
C1279 C1280 1.403 . S
C1280 C1279 1.403 . S
C1280 C1281 1.404 . S
C1280 C1283 1.539 . S
C1281 C1277 1.408 . S
C1281 C1280 1.404 . S
C1281 H1293 0.930 . S
C1282 C1278 1.524 . S
C1282 H1294 0.956 . S
C1282 H1295 0.961 . S
C1282 H1296 0.961 . S
C1283 C1280 1.539 . S
C1283 H1297 0.958 . S
C1283 H1298 0.961 . S
C1283 H1299 0.960 . S
H1284 C1268 0.931 . S
H1285 C1273 0.929 . S
H1286 C1274 0.960 . S
H1287 C1274 0.962 . S
H1288 C1274 0.960 . S
H1289 C1275 0.961 . S
H1290 C1275 0.961 . S
H1291 C1275 0.961 . S
H1292 C1276 0.931 . S
H1293 C1281 0.930 . S
H1294 C1282 0.956 . S
H1295 C1282 0.961 . S
H1296 C1282 0.961 . S
H1297 C1283 0.958 . S
H1298 C1283 0.961 . S
H1299 C1283 0.960 . S
C1300 C1301 1.391 . S
C1300 C1302 1.394 . S
C1300 H1316 0.931 . S
C1301 C1300 1.391 . S
C1301 C1305 1.376 . S
C1302 C1300 1.394 . S
C1302 C1303 1.369 . S
C1302 C1306 1.531 . S
C1303 C1302 1.369 . S
C1303 C1304 1.410 . S
C1303 C1311 1.503 . S
C1304 C1303 1.410 . S
C1304 C1305 1.392 . S
C1304 C1307 1.511 . S
C1305 C1301 1.376 . S
C1305 C1304 1.392 . S
C1305 H1317 0.929 . S
C1306 C1302 1.531 . S
C1306 H1318 0.960 . S
C1306 H1319 0.962 . S
C1306 H1320 0.960 . S
C1307 C1304 1.511 . S
C1307 H1321 0.961 . S
C1307 H1322 0.961 . S
C1307 H1323 0.961 . S
C1308 C1309 1.370 . S
C1308 C1310 1.363 . S
C1308 H1324 0.931 . S
C1309 C1308 1.370 . S
C1309 C1313 1.408 . S
C1310 C1308 1.363 . S
C1310 C1311 1.370 . S
C1310 C1314 1.524 . S
C1311 C1303 1.503 . S
C1311 C1310 1.370 . S
C1311 C1312 1.403 . S
C1312 C1311 1.403 . S
C1312 C1313 1.404 . S
C1312 C1315 1.539 . S
C1313 C1309 1.408 . S
C1313 C1312 1.404 . S
C1313 H1325 0.930 . S
C1314 C1310 1.524 . S
C1314 H1326 0.956 . S
C1314 H1327 0.961 . S
C1314 H1328 0.961 . S
C1315 C1312 1.539 . S
C1315 H1329 0.958 . S
C1315 H1330 0.961 . S
C1315 H1331 0.960 . S
H1316 C1300 0.931 . S
H1317 C1305 0.929 . S
H1318 C1306 0.960 . S
H1319 C1306 0.962 . S
H1320 C1306 0.960 . S
H1321 C1307 0.961 . S
H1322 C1307 0.961 . S
H1323 C1307 0.961 . S
H1324 C1308 0.931 . S
H1325 C1313 0.930 . S
H1326 C1314 0.956 . S
H1327 C1314 0.961 . S
H1328 C1314 0.961 . S
H1329 C1315 0.958 . S
H1330 C1315 0.961 . S
H1331 C1315 0.960 . S
C1332 C1333 1.391 . S
C1332 C1334 1.394 . S
C1332 H1348 0.931 . S
C1333 C1332 1.391 . S
C1333 C1337 1.376 . S
C1334 C1332 1.394 . S
C1334 C1335 1.369 . S
C1334 C1338 1.531 . S
C1335 C1334 1.369 . S
C1335 C1336 1.410 . S
C1335 C1343 1.503 . S
C1336 C1335 1.410 . S
C1336 C1337 1.392 . S
C1336 C1339 1.511 . S
C1337 C1333 1.376 . S
C1337 C1336 1.392 . S
C1337 H1349 0.929 . S
C1338 C1334 1.531 . S
C1338 H1350 0.960 . S
C1338 H1351 0.962 . S
C1338 H1352 0.960 . S
C1339 C1336 1.511 . S
C1339 H1353 0.961 . S
C1339 H1354 0.961 . S
C1339 H1355 0.961 . S
C1340 C1341 1.370 . S
C1340 C1342 1.363 . S
C1340 H1356 0.931 . S
C1341 C1340 1.370 . S
C1341 C1345 1.408 . S
C1342 C1340 1.363 . S
C1342 C1343 1.370 . S
C1342 C1346 1.524 . S
C1343 C1335 1.503 . S
C1343 C1342 1.370 . S
C1343 C1344 1.403 . S
C1344 C1343 1.403 . S
C1344 C1345 1.404 . S
C1344 C1347 1.539 . S
C1345 C1341 1.408 . S
C1345 C1344 1.404 . S
C1345 H1357 0.930 . S
C1346 C1342 1.524 . S
C1346 H1358 0.956 . S
C1346 H1359 0.961 . S
C1346 H1360 0.961 . S
C1347 C1344 1.539 . S
C1347 H1361 0.958 . S
C1347 H1362 0.961 . S
C1347 H1363 0.960 . S
H1348 C1332 0.931 . S
H1349 C1337 0.929 . S
H1350 C1338 0.960 . S
H1351 C1338 0.962 . S
H1352 C1338 0.960 . S
H1353 C1339 0.961 . S
H1354 C1339 0.961 . S
H1355 C1339 0.961 . S
H1356 C1340 0.931 . S
H1357 C1345 0.930 . S
H1358 C1346 0.956 . S
H1359 C1346 0.961 . S
H1360 C1346 0.961 . S
H1361 C1347 0.958 . S
H1362 C1347 0.961 . S
H1363 C1347 0.960 . S
C1364 C1365 1.391 . S
C1364 C1366 1.394 . S
C1364 H1380 0.931 . S
C1365 C1364 1.391 . S
C1365 C1369 1.376 . S
C1366 C1364 1.394 . S
C1366 C1367 1.369 . S
C1366 C1370 1.531 . S
C1367 C1366 1.369 . S
C1367 C1368 1.410 . S
C1367 C1375 1.503 . S
C1368 C1367 1.410 . S
C1368 C1369 1.392 . S
C1368 C1371 1.511 . S
C1369 C1365 1.376 . S
C1369 C1368 1.392 . S
C1369 H1381 0.929 . S
C1370 C1366 1.531 . S
C1370 H1382 0.960 . S
C1370 H1383 0.962 . S
C1370 H1384 0.960 . S
C1371 C1368 1.511 . S
C1371 H1385 0.961 . S
C1371 H1386 0.961 . S
C1371 H1387 0.961 . S
C1372 C1373 1.370 . S
C1372 C1374 1.363 . S
C1372 H1388 0.931 . S
C1373 C1372 1.370 . S
C1373 C1377 1.408 . S
C1374 C1372 1.363 . S
C1374 C1375 1.370 . S
C1374 C1378 1.524 . S
C1375 C1367 1.503 . S
C1375 C1374 1.370 . S
C1375 C1376 1.403 . S
C1376 C1375 1.403 . S
C1376 C1377 1.404 . S
C1376 C1379 1.539 . S
C1377 C1373 1.408 . S
C1377 C1376 1.404 . S
C1377 H1389 0.930 . S
C1378 C1374 1.524 . S
C1378 H1390 0.956 . S
C1378 H1391 0.961 . S
C1378 H1392 0.961 . S
C1379 C1376 1.539 . S
C1379 H1393 0.958 . S
C1379 H1394 0.961 . S
C1379 H1395 0.960 . S
H1380 C1364 0.931 . S
H1381 C1369 0.929 . S
H1382 C1370 0.960 . S
H1383 C1370 0.962 . S
H1384 C1370 0.960 . S
H1385 C1371 0.961 . S
H1386 C1371 0.961 . S
H1387 C1371 0.961 . S
H1388 C1372 0.931 . S
H1389 C1377 0.930 . S
H1390 C1378 0.956 . S
H1391 C1378 0.961 . S
H1392 C1378 0.961 . S
H1393 C1379 0.958 . S
H1394 C1379 0.961 . S
H1395 C1379 0.960 . S
C1396 C1397 1.391 . S
C1396 C1398 1.394 . S
C1396 H1412 0.931 . S
C1397 C1396 1.391 . S
C1397 C1401 1.376 . S
C1398 C1396 1.394 . S
C1398 C1399 1.369 . S
C1398 C1402 1.531 . S
C1399 C1398 1.369 . S
C1399 C1400 1.410 . S
C1399 C1407 1.503 . S
C1400 C1399 1.410 . S
C1400 C1401 1.392 . S
C1400 C1403 1.511 . S
C1401 C1397 1.376 . S
C1401 C1400 1.392 . S
C1401 H1413 0.929 . S
C1402 C1398 1.531 . S
C1402 H1414 0.960 . S
C1402 H1415 0.962 . S
C1402 H1416 0.960 . S
C1403 C1400 1.511 . S
C1403 H1417 0.961 . S
C1403 H1418 0.961 . S
C1403 H1419 0.961 . S
C1404 C1405 1.370 . S
C1404 C1406 1.363 . S
C1404 H1420 0.931 . S
C1405 C1404 1.370 . S
C1405 C1409 1.408 . S
C1406 C1404 1.363 . S
C1406 C1407 1.370 . S
C1406 C1410 1.524 . S
C1407 C1399 1.503 . S
C1407 C1406 1.370 . S
C1407 C1408 1.403 . S
C1408 C1407 1.403 . S
C1408 C1409 1.404 . S
C1408 C1411 1.539 . S
C1409 C1405 1.408 . S
C1409 C1408 1.404 . S
C1409 H1421 0.930 . S
C1410 C1406 1.524 . S
C1410 H1422 0.956 . S
C1410 H1423 0.961 . S
C1410 H1424 0.961 . S
C1411 C1408 1.539 . S
C1411 H1425 0.958 . S
C1411 H1426 0.961 . S
C1411 H1427 0.960 . S
H1412 C1396 0.931 . S
H1413 C1401 0.929 . S
H1414 C1402 0.960 . S
H1415 C1402 0.962 . S
H1416 C1402 0.960 . S
H1417 C1403 0.961 . S
H1418 C1403 0.961 . S
H1419 C1403 0.961 . S
H1420 C1404 0.931 . S
H1421 C1409 0.930 . S
H1422 C1410 0.956 . S
H1423 C1410 0.961 . S
H1424 C1410 0.961 . S
H1425 C1411 0.958 . S
H1426 C1411 0.961 . S
H1427 C1411 0.960 . S
C1428 C1429 1.391 . S
C1428 C1430 1.394 . S
C1428 H1444 0.931 . S
C1429 C1428 1.391 . S
C1429 C1433 1.376 . S
C1430 C1428 1.394 . S
C1430 C1431 1.369 . S
C1430 C1434 1.531 . S
C1431 C1430 1.369 . S
C1431 C1432 1.410 . S
C1431 C1439 1.503 . S
C1432 C1431 1.410 . S
C1432 C1433 1.392 . S
C1432 C1435 1.511 . S
C1433 C1429 1.376 . S
C1433 C1432 1.392 . S
C1433 H1445 0.929 . S
C1434 C1430 1.531 . S
C1434 H1446 0.960 . S
C1434 H1447 0.962 . S
C1434 H1448 0.960 . S
C1435 C1432 1.511 . S
C1435 H1449 0.961 . S
C1435 H1450 0.961 . S
C1435 H1451 0.961 . S
C1436 C1437 1.370 . S
C1436 C1438 1.363 . S
C1436 H1452 0.931 . S
C1437 C1436 1.370 . S
C1437 C1441 1.408 . S
C1438 C1436 1.363 . S
C1438 C1439 1.370 . S
C1438 C1442 1.524 . S
C1439 C1431 1.503 . S
C1439 C1438 1.370 . S
C1439 C1440 1.403 . S
C1440 C1439 1.403 . S
C1440 C1441 1.404 . S
C1440 C1443 1.539 . S
C1441 C1437 1.408 . S
C1441 C1440 1.404 . S
C1441 H1453 0.930 . S
C1442 C1438 1.524 . S
C1442 H1454 0.956 . S
C1442 H1455 0.961 . S
C1442 H1456 0.961 . S
C1443 C1440 1.539 . S
C1443 H1457 0.958 . S
C1443 H1458 0.961 . S
C1443 H1459 0.960 . S
H1444 C1428 0.931 . S
H1445 C1433 0.929 . S
H1446 C1434 0.960 . S
H1447 C1434 0.962 . S
H1448 C1434 0.960 . S
H1449 C1435 0.961 . S
H1450 C1435 0.961 . S
H1451 C1435 0.961 . S
H1452 C1436 0.931 . S
H1453 C1441 0.930 . S
H1454 C1442 0.956 . S
H1455 C1442 0.961 . S
H1456 C1442 0.961 . S
H1457 C1443 0.958 . S
H1458 C1443 0.961 . S
H1459 C1443 0.960 . S
C1460 C1461 1.391 . S
C1460 C1462 1.394 . S
C1460 H1476 0.931 . S
C1461 C1460 1.391 . S
C1461 C1465 1.376 . S
C1462 C1460 1.394 . S
C1462 C1463 1.369 . S
C1462 C1466 1.531 . S
C1463 C1462 1.369 . S
C1463 C1464 1.410 . S
C1463 C1471 1.503 . S
C1464 C1463 1.410 . S
C1464 C1465 1.392 . S
C1464 C1467 1.511 . S
C1465 C1461 1.376 . S
C1465 C1464 1.392 . S
C1465 H1477 0.929 . S
C1466 C1462 1.531 . S
C1466 H1478 0.960 . S
C1466 H1479 0.962 . S
C1466 H1480 0.960 . S
C1467 C1464 1.511 . S
C1467 H1481 0.961 . S
C1467 H1482 0.961 . S
C1467 H1483 0.961 . S
C1468 C1469 1.370 . S
C1468 C1470 1.363 . S
C1468 H1484 0.931 . S
C1469 C1468 1.370 . S
C1469 C1473 1.408 . S
C1470 C1468 1.363 . S
C1470 C1471 1.370 . S
C1470 C1474 1.524 . S
C1471 C1463 1.503 . S
C1471 C1470 1.370 . S
C1471 C1472 1.403 . S
C1472 C1471 1.403 . S
C1472 C1473 1.404 . S
C1472 C1475 1.539 . S
C1473 C1469 1.408 . S
C1473 C1472 1.404 . S
C1473 H1485 0.930 . S
C1474 C1470 1.524 . S
C1474 H1486 0.956 . S
C1474 H1487 0.961 . S
C1474 H1488 0.961 . S
C1475 C1472 1.539 . S
C1475 H1489 0.958 . S
C1475 H1490 0.961 . S
C1475 H1491 0.960 . S
H1476 C1460 0.931 . S
H1477 C1465 0.929 . S
H1478 C1466 0.960 . S
H1479 C1466 0.962 . S
H1480 C1466 0.960 . S
H1481 C1467 0.961 . S
H1482 C1467 0.961 . S
H1483 C1467 0.961 . S
H1484 C1468 0.931 . S
H1485 C1473 0.930 . S
H1486 C1474 0.956 . S
H1487 C1474 0.961 . S
H1488 C1474 0.961 . S
H1489 C1475 0.958 . S
H1490 C1475 0.961 . S
H1491 C1475 0.960 . S
C1492 C1493 1.391 . S
C1492 C1494 1.394 . S
C1492 H1508 0.931 . S
C1493 C1492 1.391 . S
C1493 C1497 1.376 . S
C1494 C1492 1.394 . S
C1494 C1495 1.369 . S
C1494 C1498 1.531 . S
C1495 C1494 1.369 . S
C1495 C1496 1.410 . S
C1495 C1503 1.503 . S
C1496 C1495 1.410 . S
C1496 C1497 1.392 . S
C1496 C1499 1.511 . S
C1497 C1493 1.376 . S
C1497 C1496 1.392 . S
C1497 H1509 0.929 . S
C1498 C1494 1.531 . S
C1498 H1510 0.960 . S
C1498 H1511 0.962 . S
C1498 H1512 0.960 . S
C1499 C1496 1.511 . S
C1499 H1513 0.961 . S
C1499 H1514 0.961 . S
C1499 H1515 0.961 . S
C1500 C1501 1.370 . S
C1500 C1502 1.363 . S
C1500 H1516 0.931 . S
C1501 C1500 1.370 . S
C1501 C1505 1.408 . S
C1502 C1500 1.363 . S
C1502 C1503 1.370 . S
C1502 C1506 1.524 . S
C1503 C1495 1.503 . S
C1503 C1502 1.370 . S
C1503 C1504 1.403 . S
C1504 C1503 1.403 . S
C1504 C1505 1.404 . S
C1504 C1507 1.539 . S
C1505 C1501 1.408 . S
C1505 C1504 1.404 . S
C1505 H1517 0.930 . S
C1506 C1502 1.524 . S
C1506 H1518 0.956 . S
C1506 H1519 0.961 . S
C1506 H1520 0.961 . S
C1507 C1504 1.539 . S
C1507 H1521 0.958 . S
C1507 H1522 0.961 . S
C1507 H1523 0.960 . S
H1508 C1492 0.931 . S
H1509 C1497 0.929 . S
H1510 C1498 0.960 . S
H1511 C1498 0.962 . S
H1512 C1498 0.960 . S
H1513 C1499 0.961 . S
H1514 C1499 0.961 . S
H1515 C1499 0.961 . S
H1516 C1500 0.931 . S
H1517 C1505 0.930 . S
H1518 C1506 0.956 . S
H1519 C1506 0.961 . S
H1520 C1506 0.961 . S
H1521 C1507 0.958 . S
H1522 C1507 0.961 . S
H1523 C1507 0.960 . S
C1524 C1525 1.391 . S
C1524 C1526 1.394 . S
C1524 H1540 0.931 . S
C1525 C1524 1.391 . S
C1525 C1529 1.376 . S
C1526 C1524 1.394 . S
C1526 C1527 1.369 . S
C1526 C1530 1.531 . S
C1527 C1526 1.369 . S
C1527 C1528 1.410 . S
C1527 C1535 1.503 . S
C1528 C1527 1.410 . S
C1528 C1529 1.392 . S
C1528 C1531 1.511 . S
C1529 C1525 1.376 . S
C1529 C1528 1.392 . S
C1529 H1541 0.929 . S
C1530 C1526 1.531 . S
C1530 H1542 0.960 . S
C1530 H1543 0.962 . S
C1530 H1544 0.960 . S
C1531 C1528 1.511 . S
C1531 H1545 0.961 . S
C1531 H1546 0.961 . S
C1531 H1547 0.961 . S
C1532 C1533 1.370 . S
C1532 C1534 1.363 . S
C1532 H1548 0.931 . S
C1533 C1532 1.370 . S
C1533 C1537 1.408 . S
C1534 C1532 1.363 . S
C1534 C1535 1.370 . S
C1534 C1538 1.524 . S
C1535 C1527 1.503 . S
C1535 C1534 1.370 . S
C1535 C1536 1.403 . S
C1536 C1535 1.403 . S
C1536 C1537 1.404 . S
C1536 C1539 1.539 . S
C1537 C1533 1.408 . S
C1537 C1536 1.404 . S
C1537 H1549 0.930 . S
C1538 C1534 1.524 . S
C1538 H1550 0.956 . S
C1538 H1551 0.961 . S
C1538 H1552 0.961 . S
C1539 C1536 1.539 . S
C1539 H1553 0.958 . S
C1539 H1554 0.961 . S
C1539 H1555 0.960 . S
H1540 C1524 0.931 . S
H1541 C1529 0.929 . S
H1542 C1530 0.960 . S
H1543 C1530 0.962 . S
H1544 C1530 0.960 . S
H1545 C1531 0.961 . S
H1546 C1531 0.961 . S
H1547 C1531 0.961 . S
H1548 C1532 0.931 . S
H1549 C1537 0.930 . S
H1550 C1538 0.956 . S
H1551 C1538 0.961 . S
H1552 C1538 0.961 . S
H1553 C1539 0.958 . S
H1554 C1539 0.961 . S
H1555 C1539 0.960 . S
C1556 C1557 1.391 . S
C1556 C1558 1.394 . S
C1556 H1572 0.931 . S
C1557 C1556 1.391 . S
C1557 C1561 1.376 . S
C1558 C1556 1.394 . S
C1558 C1559 1.369 . S
C1558 C1562 1.531 . S
C1559 C1558 1.369 . S
C1559 C1560 1.410 . S
C1559 C1567 1.503 . S
C1560 C1559 1.410 . S
C1560 C1561 1.392 . S
C1560 C1563 1.511 . S
C1561 C1557 1.376 . S
C1561 C1560 1.392 . S
C1561 H1573 0.929 . S
C1562 C1558 1.531 . S
C1562 H1574 0.960 . S
C1562 H1575 0.962 . S
C1562 H1576 0.960 . S
C1563 C1560 1.511 . S
C1563 H1577 0.961 . S
C1563 H1578 0.961 . S
C1563 H1579 0.961 . S
C1564 C1565 1.370 . S
C1564 C1566 1.363 . S
C1564 H1580 0.931 . S
C1565 C1564 1.370 . S
C1565 C1569 1.408 . S
C1566 C1564 1.363 . S
C1566 C1567 1.370 . S
C1566 C1570 1.524 . S
C1567 C1559 1.503 . S
C1567 C1566 1.370 . S
C1567 C1568 1.403 . S
C1568 C1567 1.403 . S
C1568 C1569 1.404 . S
C1568 C1571 1.539 . S
C1569 C1565 1.408 . S
C1569 C1568 1.404 . S
C1569 H1581 0.930 . S
C1570 C1566 1.524 . S
C1570 H1582 0.956 . S
C1570 H1583 0.961 . S
C1570 H1584 0.961 . S
C1571 C1568 1.539 . S
C1571 H1585 0.958 . S
C1571 H1586 0.961 . S
C1571 H1587 0.960 . S
H1572 C1556 0.931 . S
H1573 C1561 0.929 . S
H1574 C1562 0.960 . S
H1575 C1562 0.962 . S
H1576 C1562 0.960 . S
H1577 C1563 0.961 . S
H1578 C1563 0.961 . S
H1579 C1563 0.961 . S
H1580 C1564 0.931 . S
H1581 C1569 0.930 . S
H1582 C1570 0.956 . S
H1583 C1570 0.961 . S
H1584 C1570 0.961 . S
H1585 C1571 0.958 . S
H1586 C1571 0.961 . S
H1587 C1571 0.960 . S
C1588 C1589 1.391 . S
C1588 C1590 1.394 . S
C1588 H1604 0.931 . S
C1589 C1588 1.391 . S
C1589 C1593 1.376 . S
C1590 C1588 1.394 . S
C1590 C1591 1.369 . S
C1590 C1594 1.531 . S
C1591 C1590 1.369 . S
C1591 C1592 1.410 . S
C1591 C1599 1.503 . S
C1592 C1591 1.410 . S
C1592 C1593 1.392 . S
C1592 C1595 1.511 . S
C1593 C1589 1.376 . S
C1593 C1592 1.392 . S
C1593 H1605 0.929 . S
C1594 C1590 1.531 . S
C1594 H1606 0.960 . S
C1594 H1607 0.962 . S
C1594 H1608 0.960 . S
C1595 C1592 1.511 . S
C1595 H1609 0.961 . S
C1595 H1610 0.961 . S
C1595 H1611 0.961 . S
C1596 C1597 1.370 . S
C1596 C1598 1.363 . S
C1596 H1612 0.931 . S
C1597 C1596 1.370 . S
C1597 C1601 1.408 . S
C1598 C1596 1.363 . S
C1598 C1599 1.370 . S
C1598 C1602 1.524 . S
C1599 C1591 1.503 . S
C1599 C1598 1.370 . S
C1599 C1600 1.403 . S
C1600 C1599 1.403 . S
C1600 C1601 1.404 . S
C1600 C1603 1.539 . S
C1601 C1597 1.408 . S
C1601 C1600 1.404 . S
C1601 H1613 0.930 . S
C1602 C1598 1.524 . S
C1602 H1614 0.956 . S
C1602 H1615 0.961 . S
C1602 H1616 0.961 . S
C1603 C1600 1.539 . S
C1603 H1617 0.958 . S
C1603 H1618 0.961 . S
C1603 H1619 0.960 . S
H1604 C1588 0.931 . S
H1605 C1593 0.929 . S
H1606 C1594 0.960 . S
H1607 C1594 0.962 . S
H1608 C1594 0.960 . S
H1609 C1595 0.961 . S
H1610 C1595 0.961 . S
H1611 C1595 0.961 . S
H1612 C1596 0.931 . S
H1613 C1601 0.930 . S
H1614 C1602 0.956 . S
H1615 C1602 0.961 . S
H1616 C1602 0.961 . S
H1617 C1603 0.958 . S
H1618 C1603 0.961 . S
H1619 C1603 0.960 . S
C1620 C1621 1.391 . S
C1620 C1622 1.394 . S
C1620 H1636 0.931 . S
C1621 C1620 1.391 . S
C1621 C1625 1.376 . S
C1622 C1620 1.394 . S
C1622 C1623 1.369 . S
C1622 C1626 1.531 . S
C1623 C1622 1.369 . S
C1623 C1624 1.410 . S
C1623 C1631 1.503 . S
C1624 C1623 1.410 . S
C1624 C1625 1.392 . S
C1624 C1627 1.511 . S
C1625 C1621 1.376 . S
C1625 C1624 1.392 . S
C1625 H1637 0.929 . S
C1626 C1622 1.531 . S
C1626 H1638 0.960 . S
C1626 H1639 0.962 . S
C1626 H1640 0.960 . S
C1627 C1624 1.511 . S
C1627 H1641 0.961 . S
C1627 H1642 0.961 . S
C1627 H1643 0.961 . S
C1628 C1629 1.370 . S
C1628 C1630 1.363 . S
C1628 H1644 0.931 . S
C1629 C1628 1.370 . S
C1629 C1633 1.408 . S
C1630 C1628 1.363 . S
C1630 C1631 1.370 . S
C1630 C1634 1.524 . S
C1631 C1623 1.503 . S
C1631 C1630 1.370 . S
C1631 C1632 1.403 . S
C1632 C1631 1.403 . S
C1632 C1633 1.404 . S
C1632 C1635 1.539 . S
C1633 C1629 1.408 . S
C1633 C1632 1.404 . S
C1633 H1645 0.930 . S
C1634 C1630 1.524 . S
C1634 H1646 0.956 . S
C1634 H1647 0.961 . S
C1634 H1648 0.961 . S
C1635 C1632 1.539 . S
C1635 H1649 0.958 . S
C1635 H1650 0.961 . S
C1635 H1651 0.960 . S
H1636 C1620 0.931 . S
H1637 C1625 0.929 . S
H1638 C1626 0.960 . S
H1639 C1626 0.962 . S
H1640 C1626 0.960 . S
H1641 C1627 0.961 . S
H1642 C1627 0.961 . S
H1643 C1627 0.961 . S
H1644 C1628 0.931 . S
H1645 C1633 0.930 . S
H1646 C1634 0.956 . S
H1647 C1634 0.961 . S
H1648 C1634 0.961 . S
H1649 C1635 0.958 . S
H1650 C1635 0.961 . S
H1651 C1635 0.960 . S
C1652 C1653 1.391 . S
C1652 C1654 1.394 . S
C1652 H1668 0.931 . S
C1653 C1652 1.391 . S
C1653 C1657 1.376 . S
C1654 C1652 1.394 . S
C1654 C1655 1.369 . S
C1654 C1658 1.531 . S
C1655 C1654 1.369 . S
C1655 C1656 1.410 . S
C1655 C1663 1.503 . S
C1656 C1655 1.410 . S
C1656 C1657 1.392 . S
C1656 C1659 1.511 . S
C1657 C1653 1.376 . S
C1657 C1656 1.392 . S
C1657 H1669 0.929 . S
C1658 C1654 1.531 . S
C1658 H1670 0.960 . S
C1658 H1671 0.962 . S
C1658 H1672 0.960 . S
C1659 C1656 1.511 . S
C1659 H1673 0.961 . S
C1659 H1674 0.961 . S
C1659 H1675 0.961 . S
C1660 C1661 1.370 . S
C1660 C1662 1.363 . S
C1660 H1676 0.931 . S
C1661 C1660 1.370 . S
C1661 C1665 1.408 . S
C1662 C1660 1.363 . S
C1662 C1663 1.370 . S
C1662 C1666 1.524 . S
C1663 C1655 1.503 . S
C1663 C1662 1.370 . S
C1663 C1664 1.403 . S
C1664 C1663 1.403 . S
C1664 C1665 1.404 . S
C1664 C1667 1.539 . S
C1665 C1661 1.408 . S
C1665 C1664 1.404 . S
C1665 H1677 0.930 . S
C1666 C1662 1.524 . S
C1666 H1678 0.956 . S
C1666 H1679 0.961 . S
C1666 H1680 0.961 . S
C1667 C1664 1.539 . S
C1667 H1681 0.958 . S
C1667 H1682 0.961 . S
C1667 H1683 0.960 . S
H1668 C1652 0.931 . S
H1669 C1657 0.929 . S
H1670 C1658 0.960 . S
H1671 C1658 0.962 . S
H1672 C1658 0.960 . S
H1673 C1659 0.961 . S
H1674 C1659 0.961 . S
H1675 C1659 0.961 . S
H1676 C1660 0.931 . S
H1677 C1665 0.930 . S
H1678 C1666 0.956 . S
H1679 C1666 0.961 . S
H1680 C1666 0.961 . S
H1681 C1667 0.958 . S
H1682 C1667 0.961 . S
H1683 C1667 0.960 . S
C1684 C1685 1.391 . S
C1684 C1686 1.394 . S
C1684 H1700 0.931 . S
C1685 C1684 1.391 . S
C1685 C1689 1.376 . S
C1686 C1684 1.394 . S
C1686 C1687 1.369 . S
C1686 C1690 1.531 . S
C1687 C1686 1.369 . S
C1687 C1688 1.410 . S
C1687 C1695 1.503 . S
C1688 C1687 1.410 . S
C1688 C1689 1.392 . S
C1688 C1691 1.511 . S
C1689 C1685 1.376 . S
C1689 C1688 1.392 . S
C1689 H1701 0.929 . S
C1690 C1686 1.531 . S
C1690 H1702 0.960 . S
C1690 H1703 0.962 . S
C1690 H1704 0.960 . S
C1691 C1688 1.511 . S
C1691 H1705 0.961 . S
C1691 H1706 0.961 . S
C1691 H1707 0.961 . S
C1692 C1693 1.370 . S
C1692 C1694 1.363 . S
C1692 H1708 0.931 . S
C1693 C1692 1.370 . S
C1693 C1697 1.408 . S
C1694 C1692 1.363 . S
C1694 C1695 1.370 . S
C1694 C1698 1.524 . S
C1695 C1687 1.503 . S
C1695 C1694 1.370 . S
C1695 C1696 1.403 . S
C1696 C1695 1.403 . S
C1696 C1697 1.404 . S
C1696 C1699 1.539 . S
C1697 C1693 1.408 . S
C1697 C1696 1.404 . S
C1697 H1709 0.930 . S
C1698 C1694 1.524 . S
C1698 H1710 0.956 . S
C1698 H1711 0.961 . S
C1698 H1712 0.961 . S
C1699 C1696 1.539 . S
C1699 H1713 0.958 . S
C1699 H1714 0.961 . S
C1699 H1715 0.960 . S
H1700 C1684 0.931 . S
H1701 C1689 0.929 . S
H1702 C1690 0.960 . S
H1703 C1690 0.962 . S
H1704 C1690 0.960 . S
H1705 C1691 0.961 . S
H1706 C1691 0.961 . S
H1707 C1691 0.961 . S
H1708 C1692 0.931 . S
H1709 C1697 0.930 . S
H1710 C1698 0.956 . S
H1711 C1698 0.961 . S
H1712 C1698 0.961 . S
H1713 C1699 0.958 . S
H1714 C1699 0.961 . S
H1715 C1699 0.960 . S
C1716 C1717 1.391 . S
C1716 C1718 1.394 . S
C1716 H1732 0.931 . S
C1717 C1716 1.391 . S
C1717 C1721 1.376 . S
C1718 C1716 1.394 . S
C1718 C1719 1.369 . S
C1718 C1722 1.531 . S
C1719 C1718 1.369 . S
C1719 C1720 1.410 . S
C1719 C1727 1.503 . S
C1720 C1719 1.410 . S
C1720 C1721 1.392 . S
C1720 C1723 1.511 . S
C1721 C1717 1.376 . S
C1721 C1720 1.392 . S
C1721 H1733 0.929 . S
C1722 C1718 1.531 . S
C1722 H1734 0.960 . S
C1722 H1735 0.962 . S
C1722 H1736 0.960 . S
C1723 C1720 1.511 . S
C1723 H1737 0.961 . S
C1723 H1738 0.961 . S
C1723 H1739 0.961 . S
C1724 C1725 1.370 . S
C1724 C1726 1.363 . S
C1724 H1740 0.931 . S
C1725 C1724 1.370 . S
C1725 C1729 1.408 . S
C1726 C1724 1.363 . S
C1726 C1727 1.370 . S
C1726 C1730 1.524 . S
C1727 C1719 1.503 . S
C1727 C1726 1.370 . S
C1727 C1728 1.403 . S
C1728 C1727 1.403 . S
C1728 C1729 1.404 . S
C1728 C1731 1.539 . S
C1729 C1725 1.408 . S
C1729 C1728 1.404 . S
C1729 H1741 0.930 . S
C1730 C1726 1.524 . S
C1730 H1742 0.956 . S
C1730 H1743 0.961 . S
C1730 H1744 0.961 . S
C1731 C1728 1.539 . S
C1731 H1745 0.958 . S
C1731 H1746 0.961 . S
C1731 H1747 0.960 . S
H1732 C1716 0.931 . S
H1733 C1721 0.929 . S
H1734 C1722 0.960 . S
H1735 C1722 0.962 . S
H1736 C1722 0.960 . S
H1737 C1723 0.961 . S
H1738 C1723 0.961 . S
H1739 C1723 0.961 . S
H1740 C1724 0.931 . S
H1741 C1729 0.930 . S
H1742 C1730 0.956 . S
H1743 C1730 0.961 . S
H1744 C1730 0.961 . S
H1745 C1731 0.958 . S
H1746 C1731 0.961 . S
H1747 C1731 0.960 . S
C1748 C1749 1.391 . S
C1748 C1750 1.394 . S
C1748 H1764 0.931 . S
C1749 C1748 1.391 . S
C1749 C1753 1.376 . S
C1750 C1748 1.394 . S
C1750 C1751 1.369 . S
C1750 C1754 1.531 . S
C1751 C1750 1.369 . S
C1751 C1752 1.410 . S
C1751 C1759 1.503 . S
C1752 C1751 1.410 . S
C1752 C1753 1.392 . S
C1752 C1755 1.511 . S
C1753 C1749 1.376 . S
C1753 C1752 1.392 . S
C1753 H1765 0.929 . S
C1754 C1750 1.531 . S
C1754 H1766 0.960 . S
C1754 H1767 0.962 . S
C1754 H1768 0.960 . S
C1755 C1752 1.511 . S
C1755 H1769 0.961 . S
C1755 H1770 0.961 . S
C1755 H1771 0.961 . S
C1756 C1757 1.370 . S
C1756 C1758 1.363 . S
C1756 H1772 0.931 . S
C1757 C1756 1.370 . S
C1757 C1761 1.408 . S
C1758 C1756 1.363 . S
C1758 C1759 1.370 . S
C1758 C1762 1.524 . S
C1759 C1751 1.503 . S
C1759 C1758 1.370 . S
C1759 C1760 1.403 . S
C1760 C1759 1.403 . S
C1760 C1761 1.404 . S
C1760 C1763 1.539 . S
C1761 C1757 1.408 . S
C1761 C1760 1.404 . S
C1761 H1773 0.930 . S
C1762 C1758 1.524 . S
C1762 H1774 0.956 . S
C1762 H1775 0.961 . S
C1762 H1776 0.961 . S
C1763 C1760 1.539 . S
C1763 H1777 0.958 . S
C1763 H1778 0.961 . S
C1763 H1779 0.960 . S
H1764 C1748 0.931 . S
H1765 C1753 0.929 . S
H1766 C1754 0.960 . S
H1767 C1754 0.962 . S
H1768 C1754 0.960 . S
H1769 C1755 0.961 . S
H1770 C1755 0.961 . S
H1771 C1755 0.961 . S
H1772 C1756 0.931 . S
H1773 C1761 0.930 . S
H1774 C1762 0.956 . S
H1775 C1762 0.961 . S
H1776 C1762 0.961 . S
H1777 C1763 0.958 . S
H1778 C1763 0.961 . S
H1779 C1763 0.960 . S
C1780 C1781 1.391 . S
C1780 C1782 1.394 . S
C1780 H1796 0.931 . S
C1781 C1780 1.391 . S
C1781 C1785 1.376 . S
C1782 C1780 1.394 . S
C1782 C1783 1.369 . S
C1782 C1786 1.531 . S
C1783 C1782 1.369 . S
C1783 C1784 1.410 . S
C1783 C1791 1.503 . S
C1784 C1783 1.410 . S
C1784 C1785 1.392 . S
C1784 C1787 1.511 . S
C1785 C1781 1.376 . S
C1785 C1784 1.392 . S
C1785 H1797 0.929 . S
C1786 C1782 1.531 . S
C1786 H1798 0.960 . S
C1786 H1799 0.962 . S
C1786 H1800 0.960 . S
C1787 C1784 1.511 . S
C1787 H1801 0.961 . S
C1787 H1802 0.961 . S
C1787 H1803 0.961 . S
C1788 C1789 1.370 . S
C1788 C1790 1.363 . S
C1788 H1804 0.931 . S
C1789 C1788 1.370 . S
C1789 C1793 1.408 . S
C1790 C1788 1.363 . S
C1790 C1791 1.370 . S
C1790 C1794 1.524 . S
C1791 C1783 1.503 . S
C1791 C1790 1.370 . S
C1791 C1792 1.403 . S
C1792 C1791 1.403 . S
C1792 C1793 1.404 . S
C1792 C1795 1.539 . S
C1793 C1789 1.408 . S
C1793 C1792 1.404 . S
C1793 H1805 0.930 . S
C1794 C1790 1.524 . S
C1794 H1806 0.956 . S
C1794 H1807 0.961 . S
C1794 H1808 0.961 . S
C1795 C1792 1.539 . S
C1795 H1809 0.958 . S
C1795 H1810 0.961 . S
C1795 H1811 0.960 . S
H1796 C1780 0.931 . S
H1797 C1785 0.929 . S
H1798 C1786 0.960 . S
H1799 C1786 0.962 . S
H1800 C1786 0.960 . S
H1801 C1787 0.961 . S
H1802 C1787 0.961 . S
H1803 C1787 0.961 . S
H1804 C1788 0.931 . S
H1805 C1793 0.930 . S
H1806 C1794 0.956 . S
H1807 C1794 0.961 . S
H1808 C1794 0.961 . S
H1809 C1795 0.958 . S
H1810 C1795 0.961 . S
H1811 C1795 0.960 . S
C1812 C1813 1.391 . S
C1812 C1814 1.394 . S
C1812 H1828 0.931 . S
C1813 C1812 1.391 . S
C1813 C1817 1.376 . S
C1814 C1812 1.394 . S
C1814 C1815 1.369 . S
C1814 C1818 1.531 . S
C1815 C1814 1.369 . S
C1815 C1816 1.410 . S
C1815 C1823 1.503 . S
C1816 C1815 1.410 . S
C1816 C1817 1.392 . S
C1816 C1819 1.511 . S
C1817 C1813 1.376 . S
C1817 C1816 1.392 . S
C1817 H1829 0.929 . S
C1818 C1814 1.531 . S
C1818 H1830 0.960 . S
C1818 H1831 0.962 . S
C1818 H1832 0.960 . S
C1819 C1816 1.511 . S
C1819 H1833 0.961 . S
C1819 H1834 0.961 . S
C1819 H1835 0.961 . S
C1820 C1821 1.370 . S
C1820 C1822 1.363 . S
C1820 H1836 0.931 . S
C1821 C1820 1.370 . S
C1821 C1825 1.408 . S
C1822 C1820 1.363 . S
C1822 C1823 1.370 . S
C1822 C1826 1.524 . S
C1823 C1815 1.503 . S
C1823 C1822 1.370 . S
C1823 C1824 1.403 . S
C1824 C1823 1.403 . S
C1824 C1825 1.404 . S
C1824 C1827 1.539 . S
C1825 C1821 1.408 . S
C1825 C1824 1.404 . S
C1825 H1837 0.930 . S
C1826 C1822 1.524 . S
C1826 H1838 0.956 . S
C1826 H1839 0.961 . S
C1826 H1840 0.961 . S
C1827 C1824 1.539 . S
C1827 H1841 0.958 . S
C1827 H1842 0.961 . S
C1827 H1843 0.960 . S
H1828 C1812 0.931 . S
H1829 C1817 0.929 . S
H1830 C1818 0.960 . S
H1831 C1818 0.962 . S
H1832 C1818 0.960 . S
H1833 C1819 0.961 . S
H1834 C1819 0.961 . S
H1835 C1819 0.961 . S
H1836 C1820 0.931 . S
H1837 C1825 0.930 . S
H1838 C1826 0.956 . S
H1839 C1826 0.961 . S
H1840 C1826 0.961 . S
H1841 C1827 0.958 . S
H1842 C1827 0.961 . S
H1843 C1827 0.960 . S
C1844 C1845 1.391 . S
C1844 C1846 1.394 . S
C1844 H1860 0.931 . S
C1845 C1844 1.391 . S
C1845 C1849 1.376 . S
C1846 C1844 1.394 . S
C1846 C1847 1.369 . S
C1846 C1850 1.531 . S
C1847 C1846 1.369 . S
C1847 C1848 1.410 . S
C1847 C1855 1.503 . S
C1848 C1847 1.410 . S
C1848 C1849 1.392 . S
C1848 C1851 1.511 . S
C1849 C1845 1.376 . S
C1849 C1848 1.392 . S
C1849 H1861 0.929 . S
C1850 C1846 1.531 . S
C1850 H1862 0.960 . S
C1850 H1863 0.962 . S
C1850 H1864 0.960 . S
C1851 C1848 1.511 . S
C1851 H1865 0.961 . S
C1851 H1866 0.961 . S
C1851 H1867 0.961 . S
C1852 C1853 1.370 . S
C1852 C1854 1.363 . S
C1852 H1868 0.931 . S
C1853 C1852 1.370 . S
C1853 C1857 1.408 . S
C1854 C1852 1.363 . S
C1854 C1855 1.370 . S
C1854 C1858 1.524 . S
C1855 C1847 1.503 . S
C1855 C1854 1.370 . S
C1855 C1856 1.403 . S
C1856 C1855 1.403 . S
C1856 C1857 1.404 . S
C1856 C1859 1.539 . S
C1857 C1853 1.408 . S
C1857 C1856 1.404 . S
C1857 H1869 0.930 . S
C1858 C1854 1.524 . S
C1858 H1870 0.956 . S
C1858 H1871 0.961 . S
C1858 H1872 0.961 . S
C1859 C1856 1.539 . S
C1859 H1873 0.958 . S
C1859 H1874 0.961 . S
C1859 H1875 0.960 . S
H1860 C1844 0.931 . S
H1861 C1849 0.929 . S
H1862 C1850 0.960 . S
H1863 C1850 0.962 . S
H1864 C1850 0.960 . S
H1865 C1851 0.961 . S
H1866 C1851 0.961 . S
H1867 C1851 0.961 . S
H1868 C1852 0.931 . S
H1869 C1857 0.930 . S
H1870 C1858 0.956 . S
H1871 C1858 0.961 . S
H1872 C1858 0.961 . S
H1873 C1859 0.958 . S
H1874 C1859 0.961 . S
H1875 C1859 0.960 . S
C1876 C1877 1.391 . S
C1876 C1878 1.394 . S
C1876 H1892 0.931 . S
C1877 C1876 1.391 . S
C1877 C1881 1.376 . S
C1878 C1876 1.394 . S
C1878 C1879 1.369 . S
C1878 C1882 1.531 . S
C1879 C1878 1.369 . S
C1879 C1880 1.410 . S
C1879 C1887 1.503 . S
C1880 C1879 1.410 . S
C1880 C1881 1.392 . S
C1880 C1883 1.511 . S
C1881 C1877 1.376 . S
C1881 C1880 1.392 . S
C1881 H1893 0.929 . S
C1882 C1878 1.531 . S
C1882 H1894 0.960 . S
C1882 H1895 0.962 . S
C1882 H1896 0.960 . S
C1883 C1880 1.511 . S
C1883 H1897 0.961 . S
C1883 H1898 0.961 . S
C1883 H1899 0.961 . S
C1884 C1885 1.370 . S
C1884 C1886 1.363 . S
C1884 H1900 0.931 . S
C1885 C1884 1.370 . S
C1885 C1889 1.408 . S
C1886 C1884 1.363 . S
C1886 C1887 1.370 . S
C1886 C1890 1.524 . S
C1887 C1879 1.503 . S
C1887 C1886 1.370 . S
C1887 C1888 1.403 . S
C1888 C1887 1.403 . S
C1888 C1889 1.404 . S
C1888 C1891 1.539 . S
C1889 C1885 1.408 . S
C1889 C1888 1.404 . S
C1889 H1901 0.930 . S
C1890 C1886 1.524 . S
C1890 H1902 0.956 . S
C1890 H1903 0.961 . S
C1890 H1904 0.961 . S
C1891 C1888 1.539 . S
C1891 H1905 0.958 . S
C1891 H1906 0.961 . S
C1891 H1907 0.960 . S
H1892 C1876 0.931 . S
H1893 C1881 0.929 . S
H1894 C1882 0.960 . S
H1895 C1882 0.962 . S
H1896 C1882 0.960 . S
H1897 C1883 0.961 . S
H1898 C1883 0.961 . S
H1899 C1883 0.961 . S
H1900 C1884 0.931 . S
H1901 C1889 0.930 . S
H1902 C1890 0.956 . S
H1903 C1890 0.961 . S
H1904 C1890 0.961 . S
H1905 C1891 0.958 . S
H1906 C1891 0.961 . S
H1907 C1891 0.960 . S
C1908 C1909 1.391 . S
C1908 C1910 1.394 . S
C1908 H1924 0.931 . S
C1909 C1908 1.391 . S
C1909 C1913 1.376 . S
C1910 C1908 1.394 . S
C1910 C1911 1.369 . S
C1910 C1914 1.531 . S
C1911 C1910 1.369 . S
C1911 C1912 1.410 . S
C1911 C1919 1.503 . S
C1912 C1911 1.410 . S
C1912 C1913 1.392 . S
C1912 C1915 1.511 . S
C1913 C1909 1.376 . S
C1913 C1912 1.392 . S
C1913 H1925 0.929 . S
C1914 C1910 1.531 . S
C1914 H1926 0.960 . S
C1914 H1927 0.962 . S
C1914 H1928 0.960 . S
C1915 C1912 1.511 . S
C1915 H1929 0.961 . S
C1915 H1930 0.961 . S
C1915 H1931 0.961 . S
C1916 C1917 1.370 . S
C1916 C1918 1.363 . S
C1916 H1932 0.931 . S
C1917 C1916 1.370 . S
C1917 C1921 1.408 . S
C1918 C1916 1.363 . S
C1918 C1919 1.370 . S
C1918 C1922 1.524 . S
C1919 C1911 1.503 . S
C1919 C1918 1.370 . S
C1919 C1920 1.403 . S
C1920 C1919 1.403 . S
C1920 C1921 1.404 . S
C1920 C1923 1.539 . S
C1921 C1917 1.408 . S
C1921 C1920 1.404 . S
C1921 H1933 0.930 . S
C1922 C1918 1.524 . S
C1922 H1934 0.956 . S
C1922 H1935 0.961 . S
C1922 H1936 0.961 . S
C1923 C1920 1.539 . S
C1923 H1937 0.958 . S
C1923 H1938 0.961 . S
C1923 H1939 0.960 . S
H1924 C1908 0.931 . S
H1925 C1913 0.929 . S
H1926 C1914 0.960 . S
H1927 C1914 0.962 . S
H1928 C1914 0.960 . S
H1929 C1915 0.961 . S
H1930 C1915 0.961 . S
H1931 C1915 0.961 . S
H1932 C1916 0.931 . S
H1933 C1921 0.930 . S
H1934 C1922 0.956 . S
H1935 C1922 0.961 . S
H1936 C1922 0.961 . S
H1937 C1923 0.958 . S
H1938 C1923 0.961 . S
H1939 C1923 0.960 . S
C1940 C1941 1.391 . S
C1940 C1942 1.394 . S
C1940 H1956 0.931 . S
C1941 C1940 1.391 . S
C1941 C1945 1.376 . S
C1942 C1940 1.394 . S
C1942 C1943 1.369 . S
C1942 C1946 1.531 . S
C1943 C1942 1.369 . S
C1943 C1944 1.410 . S
C1943 C1951 1.503 . S
C1944 C1943 1.410 . S
C1944 C1945 1.392 . S
C1944 C1947 1.511 . S
C1945 C1941 1.376 . S
C1945 C1944 1.392 . S
C1945 H1957 0.929 . S
C1946 C1942 1.531 . S
C1946 H1958 0.960 . S
C1946 H1959 0.962 . S
C1946 H1960 0.960 . S
C1947 C1944 1.511 . S
C1947 H1961 0.961 . S
C1947 H1962 0.961 . S
C1947 H1963 0.961 . S
C1948 C1949 1.370 . S
C1948 C1950 1.363 . S
C1948 H1964 0.931 . S
C1949 C1948 1.370 . S
C1949 C1953 1.408 . S
C1950 C1948 1.363 . S
C1950 C1951 1.370 . S
C1950 C1954 1.524 . S
C1951 C1943 1.503 . S
C1951 C1950 1.370 . S
C1951 C1952 1.403 . S
C1952 C1951 1.403 . S
C1952 C1953 1.404 . S
C1952 C1955 1.539 . S
C1953 C1949 1.408 . S
C1953 C1952 1.404 . S
C1953 H1965 0.930 . S
C1954 C1950 1.524 . S
C1954 H1966 0.956 . S
C1954 H1967 0.961 . S
C1954 H1968 0.961 . S
C1955 C1952 1.539 . S
C1955 H1969 0.958 . S
C1955 H1970 0.961 . S
C1955 H1971 0.960 . S
H1956 C1940 0.931 . S
H1957 C1945 0.929 . S
H1958 C1946 0.960 . S
H1959 C1946 0.962 . S
H1960 C1946 0.960 . S
H1961 C1947 0.961 . S
H1962 C1947 0.961 . S
H1963 C1947 0.961 . S
H1964 C1948 0.931 . S
H1965 C1953 0.930 . S
H1966 C1954 0.956 . S
H1967 C1954 0.961 . S
H1968 C1954 0.961 . S
H1969 C1955 0.958 . S
H1970 C1955 0.961 . S
H1971 C1955 0.960 . S
C1972 C1973 1.391 . S
C1972 C1974 1.394 . S
C1972 H1988 0.931 . S
C1973 C1972 1.391 . S
C1973 C1977 1.376 . S
C1974 C1972 1.394 . S
C1974 C1975 1.369 . S
C1974 C1978 1.531 . S
C1975 C1974 1.369 . S
C1975 C1976 1.410 . S
C1975 C1983 1.503 . S
C1976 C1975 1.410 . S
C1976 C1977 1.392 . S
C1976 C1979 1.511 . S
C1977 C1973 1.376 . S
C1977 C1976 1.392 . S
C1977 H1989 0.929 . S
C1978 C1974 1.531 . S
C1978 H1990 0.960 . S
C1978 H1991 0.962 . S
C1978 H1992 0.960 . S
C1979 C1976 1.511 . S
C1979 H1993 0.961 . S
C1979 H1994 0.961 . S
C1979 H1995 0.961 . S
C1980 C1981 1.370 . S
C1980 C1982 1.363 . S
C1980 H1996 0.931 . S
C1981 C1980 1.370 . S
C1981 C1985 1.408 . S
C1982 C1980 1.363 . S
C1982 C1983 1.370 . S
C1982 C1986 1.524 . S
C1983 C1975 1.503 . S
C1983 C1982 1.370 . S
C1983 C1984 1.403 . S
C1984 C1983 1.403 . S
C1984 C1985 1.404 . S
C1984 C1987 1.539 . S
C1985 C1981 1.408 . S
C1985 C1984 1.404 . S
C1985 H1997 0.930 . S
C1986 C1982 1.524 . S
C1986 H1998 0.956 . S
C1986 H1999 0.961 . S
C1986 H2000 0.961 . S
C1987 C1984 1.539 . S
C1987 H2001 0.958 . S
C1987 H2002 0.961 . S
C1987 H2003 0.960 . S
H1988 C1972 0.931 . S
H1989 C1977 0.929 . S
H1990 C1978 0.960 . S
H1991 C1978 0.962 . S
H1992 C1978 0.960 . S
H1993 C1979 0.961 . S
H1994 C1979 0.961 . S
H1995 C1979 0.961 . S
H1996 C1980 0.931 . S
H1997 C1985 0.930 . S
H1998 C1986 0.956 . S
H1999 C1986 0.961 . S
H2000 C1986 0.961 . S
H2001 C1987 0.958 . S
H2002 C1987 0.961 . S
H2003 C1987 0.960 . S
C2004 C2005 1.391 . S
C2004 C2006 1.394 . S
C2004 H2020 0.931 . S
C2005 C2004 1.391 . S
C2005 C2009 1.376 . S
C2006 C2004 1.394 . S
C2006 C2007 1.369 . S
C2006 C2010 1.531 . S
C2007 C2006 1.369 . S
C2007 C2008 1.410 . S
C2007 C2015 1.503 1_455 S
C2008 C2007 1.410 . S
C2008 C2009 1.392 . S
C2008 C2011 1.511 . S
C2009 C2005 1.376 . S
C2009 C2008 1.392 . S
C2009 H2021 0.929 . S
C2010 C2006 1.531 . S
C2010 H2022 0.930 1_455 S
C2010 H2023 0.962 . S
C2010 H2024 0.960 . S
C2011 C2008 1.511 . S
C2011 H2025 0.961 . S
C2011 H2026 0.932 1_455 S
C2011 H2027 0.961 . S
C2012 C2013 1.370 . S
C2012 C2014 1.363 . S
C2012 H2028 0.931 . S
C2013 C2012 1.370 . S
C2013 C2017 1.408 . S
C2014 C2012 1.363 . S
C2014 C2015 1.370 . S
C2014 C2018 1.524 . S
C2015 C2007 1.503 1_655 S
C2015 C2014 1.370 . S
C2015 C2016 1.403 . S
C2016 C2015 1.403 . S
C2016 C2017 1.404 . S
C2016 C2019 1.539 . S
C2017 C2013 1.408 . S
C2017 C2016 1.404 . S
C2017 H2029 0.930 . S
C2018 C2014 1.524 . S
C2018 H2030 0.956 . S
C2018 H2031 0.961 . S
C2018 H2032 0.961 . S
C2019 C2016 1.539 . S
C2019 H2033 0.958 . S
C2019 H2034 0.961 . S
C2019 H2035 0.960 1_655 S
H2020 C2004 0.931 . S
H2021 C2009 0.929 . S
H2022 C2010 0.930 1_655 S
H2023 C2010 0.962 . S
H2024 C2010 0.960 . S
H2025 C2011 0.961 . S
H2026 C2011 0.932 1_655 S
H2027 C2011 0.961 . S
H2028 C2012 0.931 . S
H2029 C2017 0.930 . S
H2030 C2018 0.956 . S
H2031 C2018 0.961 . S
H2032 C2018 0.961 . S
H2033 C2019 0.958 . S
H2034 C2019 0.961 . S
H2035 C2019 0.960 1_455 S
C2036 C2037 1.391 . S
C2036 C2038 1.394 . S
C2036 H2052 0.931 . S
C2037 C2036 1.391 . S
C2037 C2041 1.376 . S
C2038 C2036 1.394 . S
C2038 C2039 1.369 . S
C2038 C2042 1.531 . S
C2039 C2038 1.369 . S
C2039 C2040 1.410 . S
C2039 C2047 1.503 . S
C2040 C2039 1.410 . S
C2040 C2041 1.392 . S
C2040 C2043 1.511 . S
C2041 C2037 1.376 . S
C2041 C2040 1.392 . S
C2041 H2053 0.929 . S
C2042 C2038 1.531 . S
C2042 H2054 0.960 . S
C2042 H2055 0.962 . S
C2042 H2056 0.960 . S
C2043 C2040 1.511 . S
C2043 H2057 0.961 . S
C2043 H2058 0.961 . S
C2043 H2059 0.961 . S
C2044 C2045 1.370 . S
C2044 C2046 1.363 . S
C2044 H2060 0.931 . S
C2045 C2044 1.370 . S
C2045 C2049 1.408 . S
C2046 C2044 1.363 . S
C2046 C2047 1.370 . S
C2046 C2050 1.524 . S
C2047 C2039 1.503 . S
C2047 C2046 1.370 . S
C2047 C2048 1.403 . S
C2048 C2047 1.403 . S
C2048 C2049 1.404 . S
C2048 C2051 1.539 . S
C2049 C2045 1.408 . S
C2049 C2048 1.404 . S
C2049 H2061 0.930 . S
C2050 C2046 1.524 . S
C2050 H2062 0.956 . S
C2050 H2063 0.961 . S
C2050 H2064 0.961 . S
C2051 C2048 1.539 . S
C2051 H2065 0.958 . S
C2051 H2066 0.961 . S
C2051 H2067 0.960 . S
H2052 C2036 0.931 . S
H2053 C2041 0.929 . S
H2054 C2042 0.960 . S
H2055 C2042 0.962 . S
H2056 C2042 0.960 . S
H2057 C2043 0.961 . S
H2058 C2043 0.961 . S
H2059 C2043 0.961 . S
H2060 C2044 0.931 . S
H2061 C2049 0.930 . S
H2062 C2050 0.956 . S
H2063 C2050 0.961 . S
H2064 C2050 0.961 . S
H2065 C2051 0.958 . S
H2066 C2051 0.961 . S
H2067 C2051 0.960 . S
C2068 C2069 1.391 . S
C2068 C2070 1.394 . S
C2068 H2084 0.931 . S
C2069 C2068 1.391 . S
C2069 C2073 1.376 . S
C2070 C2068 1.394 . S
C2070 C2071 1.369 . S
C2070 C2074 1.531 . S
C2071 C2070 1.369 . S
C2071 C2072 1.410 . S
C2071 C2079 1.503 1_545 S
C2072 C2071 1.410 . S
C2072 C2073 1.392 . S
C2072 C2075 1.511 . S
C2073 C2069 1.376 . S
C2073 C2072 1.392 . S
C2073 H2085 0.929 . S
C2074 C2070 1.531 . S
C2074 H2086 0.960 . S
C2074 H2087 0.962 . S
C2074 H2088 0.960 . S
C2075 C2072 1.511 . S
C2075 H2089 0.961 . S
C2075 H2090 0.961 1_545 S
C2075 H2091 0.961 . S
C2076 C2077 1.370 . S
C2076 C2078 1.363 . S
C2076 H2092 0.931 . S
C2077 C2076 1.370 . S
C2077 C2081 1.408 . S
C2078 C2076 1.363 . S
C2078 C2079 1.370 . S
C2078 C2082 1.524 . S
C2079 C2071 1.503 1_565 S
C2079 C2078 1.370 . S
C2079 C2080 1.403 . S
C2080 C2079 1.403 . S
C2080 C2081 1.404 . S
C2080 C2083 1.539 . S
C2081 C2077 1.408 . S
C2081 C2080 1.404 . S
C2081 H2093 0.930 . S
C2082 C2078 1.524 . S
C2082 H2094 0.956 . S
C2082 H2095 0.961 . S
C2082 H2096 0.961 . S
C2083 C2080 1.539 . S
C2083 H2097 0.958 . S
C2083 H2098 0.961 . S
C2083 H2099 0.960 1_565 S
H2084 C2068 0.931 . S
H2085 C2073 0.929 . S
H2086 C2074 0.960 . S
H2087 C2074 0.962 . S
H2088 C2074 0.960 . S
H2089 C2075 0.961 . S
H2090 C2075 0.961 1_565 S
H2091 C2075 0.961 . S
H2092 C2076 0.931 . S
H2093 C2081 0.930 . S
H2094 C2082 0.956 . S
H2095 C2082 0.961 . S
H2096 C2082 0.961 . S
H2097 C2083 0.958 . S
H2098 C2083 0.961 . S
H2099 C2083 0.960 1_545 S
C2100 C2101 1.391 . S
C2100 C2102 1.394 . S
C2100 H2116 0.931 . S
C2101 C2100 1.391 . S
C2101 C2105 1.376 . S
C2102 C2100 1.394 . S
C2102 C2103 1.369 . S
C2102 C2106 1.531 . S
C2103 C2102 1.369 . S
C2103 C2104 1.410 . S
C2103 C2111 1.503 1_545 S
C2104 C2103 1.410 . S
C2104 C2105 1.392 . S
C2104 C2107 1.511 . S
C2105 C2101 1.376 . S
C2105 C2104 1.392 . S
C2105 H2117 0.929 . S
C2106 C2102 1.531 . S
C2106 H2118 0.960 . S
C2106 H2119 0.962 . S
C2106 H2120 0.960 . S
C2107 C2104 1.511 . S
C2107 H2121 0.961 . S
C2107 H2122 0.961 1_545 S
C2107 H2123 0.992 . S
C2108 C2109 1.370 . S
C2108 C2110 1.363 . S
C2108 H2124 0.931 . S
C2109 C2108 1.370 . S
C2109 C2113 1.408 . S
C2110 C2108 1.363 . S
C2110 C2111 1.370 . S
C2110 C2114 1.524 . S
C2111 C2103 1.503 1_565 S
C2111 C2110 1.370 . S
C2111 C2112 1.403 . S
C2112 C2111 1.403 . S
C2112 C2113 1.404 . S
C2112 C2115 1.539 . S
C2113 C2109 1.408 . S
C2113 C2112 1.404 . S
C2113 H2125 0.930 . S
C2114 C2110 1.524 . S
C2114 H2126 0.955 1_565 S
C2114 H2127 0.961 . S
C2114 H2128 0.961 . S
C2115 C2112 1.539 . S
C2115 H2129 0.958 . S
C2115 H2130 0.961 . S
C2115 H2131 0.954 . S
H2116 C2100 0.931 . S
H2117 C2105 0.929 . S
H2118 C2106 0.960 . S
H2119 C2106 0.962 . S
H2120 C2106 0.960 . S
H2121 C2107 0.961 . S
H2122 C2107 0.961 1_565 S
H2123 C2107 0.992 . S
H2124 C2108 0.931 . S
H2125 C2113 0.930 . S
H2126 C2114 0.955 1_545 S
H2127 C2114 0.961 . S
H2128 C2114 0.961 . S
H2129 C2115 0.958 . S
H2130 C2115 0.961 . S
H2131 C2115 0.954 . S
C2132 C2133 1.391 . S
C2132 C2134 1.394 . S
C2132 H2148 0.931 . S
C2133 C2132 1.391 . S
C2133 C2137 1.376 . S
C2134 C2132 1.394 . S
C2134 C2135 1.369 . S
C2134 C2138 1.531 . S
C2135 C2134 1.369 . S
C2135 C2136 1.410 . S
C2135 C2143 1.503 1_655 S
C2136 C2135 1.410 . S
C2136 C2137 1.392 . S
C2136 C2139 1.511 . S
C2137 C2133 1.376 . S
C2137 C2136 1.392 . S
C2137 H2149 0.929 . S
C2138 C2134 1.531 . S
C2138 H2150 0.960 1_655 S
C2138 H2151 0.962 . S
C2138 H2152 0.960 . S
C2139 C2136 1.511 . S
C2139 H2153 0.961 . S
C2139 H2154 0.961 . S
C2139 H2155 0.961 . S
C2140 C2141 1.370 . S
C2140 C2142 1.363 . S
C2140 H2156 0.931 . S
C2141 C2140 1.370 . S
C2141 C2145 1.408 . S
C2142 C2140 1.363 . S
C2142 C2143 1.370 . S
C2142 C2146 1.524 . S
C2143 C2135 1.503 1_455 S
C2143 C2142 1.370 . S
C2143 C2144 1.403 . S
C2144 C2143 1.403 . S
C2144 C2145 1.404 . S
C2144 C2147 1.539 . S
C2145 C2141 1.408 . S
C2145 C2144 1.404 . S
C2145 H2157 0.930 . S
C2146 C2142 1.524 . S
C2146 H2158 0.956 1_455 S
C2146 H2159 0.961 1_455 S
C2146 H2160 0.961 . S
C2147 C2144 1.539 . S
C2147 H2161 0.958 . S
C2147 H2162 0.961 . S
C2147 H2163 0.960 . S
H2148 C2132 0.931 . S
H2149 C2137 0.929 . S
H2150 C2138 0.960 1_455 S
H2151 C2138 0.962 . S
H2152 C2138 0.960 . S
H2153 C2139 0.961 . S
H2154 C2139 0.961 . S
H2155 C2139 0.961 . S
H2156 C2140 0.931 . S
H2157 C2145 0.930 . S
H2158 C2146 0.956 1_655 S
H2159 C2146 0.961 1_655 S
H2160 C2146 0.961 . S
H2161 C2147 0.958 . S
H2162 C2147 0.961 . S
H2163 C2147 0.960 . S
C2164 C2165 1.391 . S
C2164 C2166 1.394 . S
C2164 H2180 0.931 . S
C2165 C2164 1.391 . S
C2165 C2169 1.376 . S
C2166 C2164 1.394 . S
C2166 C2167 1.369 . S
C2166 C2170 1.531 . S
C2167 C2166 1.369 . S
C2167 C2168 1.410 . S
C2167 C2175 1.503 . S
C2168 C2167 1.410 . S
C2168 C2169 1.392 . S
C2168 C2171 1.511 . S
C2169 C2165 1.376 . S
C2169 C2168 1.392 . S
C2169 H2181 0.929 . S
C2170 C2166 1.531 . S
C2170 H2182 0.960 . S
C2170 H2183 0.962 . S
C2170 H2184 0.960 . S
C2171 C2168 1.511 . S
C2171 H2185 0.961 . S
C2171 H2186 0.961 . S
C2171 H2187 0.961 . S
C2172 C2173 1.370 . S
C2172 C2174 1.363 . S
C2172 H2188 0.931 . S
C2173 C2172 1.370 . S
C2173 C2177 1.408 . S
C2174 C2172 1.363 . S
C2174 C2175 1.370 . S
C2174 C2178 1.524 . S
C2175 C2167 1.503 . S
C2175 C2174 1.370 . S
C2175 C2176 1.403 . S
C2176 C2175 1.403 . S
C2176 C2177 1.404 . S
C2176 C2179 1.539 . S
C2177 C2173 1.408 . S
C2177 C2176 1.404 . S
C2177 H2189 0.930 . S
C2178 C2174 1.524 . S
C2178 H2190 0.956 . S
C2178 H2191 0.961 . S
C2178 H2192 0.961 . S
C2179 C2176 1.539 . S
C2179 H2193 0.958 . S
C2179 H2194 0.961 . S
C2179 H2195 0.960 . S
H2180 C2164 0.931 . S
H2181 C2169 0.929 . S
H2182 C2170 0.960 . S
H2183 C2170 0.962 . S
H2184 C2170 0.960 . S
H2185 C2171 0.961 . S
H2186 C2171 0.961 . S
H2187 C2171 0.961 . S
H2188 C2172 0.931 . S
H2189 C2177 0.930 . S
H2190 C2178 0.956 . S
H2191 C2178 0.961 . S
H2192 C2178 0.961 . S
H2193 C2179 0.958 . S
H2194 C2179 0.961 . S
H2195 C2179 0.960 . S
C2196 C2197 1.391 . S
C2196 C2198 1.394 . S
C2196 H2212 0.931 . S
C2197 C2196 1.391 . S
C2197 C2201 1.376 . S
C2198 C2196 1.394 . S
C2198 C2199 1.369 . S
C2198 C2202 1.531 . S
C2199 C2198 1.369 . S
C2199 C2200 1.410 . S
C2199 C2207 1.503 . S
C2200 C2199 1.410 . S
C2200 C2201 1.392 . S
C2200 C2203 1.511 . S
C2201 C2197 1.376 . S
C2201 C2200 1.392 . S
C2201 H2213 0.929 . S
C2202 C2198 1.531 . S
C2202 H2214 0.960 . S
C2202 H2215 0.962 . S
C2202 H2216 0.960 . S
C2203 C2200 1.511 . S
C2203 H2217 0.961 . S
C2203 H2218 0.961 . S
C2203 H2219 0.961 . S
C2204 C2205 1.370 . S
C2204 C2206 1.363 . S
C2204 H2220 0.931 . S
C2205 C2204 1.370 . S
C2205 C2209 1.408 . S
C2206 C2204 1.363 . S
C2206 C2207 1.370 . S
C2206 C2210 1.524 . S
C2207 C2199 1.503 . S
C2207 C2206 1.370 . S
C2207 C2208 1.403 . S
C2208 C2207 1.403 . S
C2208 C2209 1.404 . S
C2208 C2211 1.539 . S
C2209 C2205 1.408 . S
C2209 C2208 1.404 . S
C2209 H2221 0.930 . S
C2210 C2206 1.524 . S
C2210 H2222 0.956 . S
C2210 H2223 0.961 . S
C2210 H2224 0.961 . S
C2211 C2208 1.539 . S
C2211 H2225 0.958 . S
C2211 H2226 0.961 . S
C2211 H2227 0.960 . S
H2212 C2196 0.931 . S
H2213 C2201 0.929 . S
H2214 C2202 0.960 . S
H2215 C2202 0.962 . S
H2216 C2202 0.960 . S
H2217 C2203 0.961 . S
H2218 C2203 0.961 . S
H2219 C2203 0.961 . S
H2220 C2204 0.931 . S
H2221 C2209 0.930 . S
H2222 C2210 0.956 . S
H2223 C2210 0.961 . S
H2224 C2210 0.961 . S
H2225 C2211 0.958 . S
H2226 C2211 0.961 . S
H2227 C2211 0.960 . S
C2228 C2229 1.391 . S
C2228 C2230 1.394 . S
C2228 H2244 0.931 . S
C2229 C2228 1.391 . S
C2229 C2233 1.376 . S
C2230 C2228 1.394 . S
C2230 C2231 1.369 . S
C2230 C2234 1.531 . S
C2231 C2230 1.369 . S
C2231 C2232 1.410 . S
C2231 C2239 1.503 . S
C2232 C2231 1.410 . S
C2232 C2233 1.392 . S
C2232 C2235 1.511 . S
C2233 C2229 1.376 . S
C2233 C2232 1.392 . S
C2233 H2245 0.929 . S
C2234 C2230 1.531 . S
C2234 H2246 0.960 . S
C2234 H2247 0.962 . S
C2234 H2248 0.960 . S
C2235 C2232 1.511 . S
C2235 H2249 0.961 . S
C2235 H2250 0.961 . S
C2235 H2251 0.961 . S
C2236 C2237 1.370 . S
C2236 C2238 1.363 . S
C2236 H2252 0.931 . S
C2237 C2236 1.370 . S
C2237 C2241 1.408 . S
C2238 C2236 1.363 . S
C2238 C2239 1.370 . S
C2238 C2242 1.524 . S
C2239 C2231 1.503 . S
C2239 C2238 1.370 . S
C2239 C2240 1.403 . S
C2240 C2239 1.403 . S
C2240 C2241 1.404 . S
C2240 C2243 1.539 . S
C2241 C2237 1.408 . S
C2241 C2240 1.404 . S
C2241 H2253 0.930 . S
C2242 C2238 1.524 . S
C2242 H2254 0.956 . S
C2242 H2255 0.961 . S
C2242 H2256 0.961 . S
C2243 C2240 1.539 . S
C2243 H2257 0.958 . S
C2243 H2258 0.961 . S
C2243 H2259 0.960 . S
H2244 C2228 0.931 . S
H2245 C2233 0.929 . S
H2246 C2234 0.960 . S
H2247 C2234 0.962 . S
H2248 C2234 0.960 . S
H2249 C2235 0.961 . S
H2250 C2235 0.961 . S
H2251 C2235 0.961 . S
H2252 C2236 0.931 . S
H2253 C2241 0.930 . S
H2254 C2242 0.956 . S
H2255 C2242 0.961 . S
H2256 C2242 0.961 . S
H2257 C2243 0.958 . S
H2258 C2243 0.961 . S
H2259 C2243 0.960 . S
C2260 C2261 1.391 . S
C2260 C2262 1.394 . S
C2260 H2276 0.931 . S
C2261 C2260 1.391 . S
C2261 C2265 1.376 . S
C2262 C2260 1.394 . S
C2262 C2263 1.369 . S
C2262 C2266 1.531 . S
C2263 C2262 1.369 . S
C2263 C2264 1.410 . S
C2263 C2271 1.503 . S
C2264 C2263 1.410 . S
C2264 C2265 1.392 . S
C2264 C2267 1.511 . S
C2265 C2261 1.376 . S
C2265 C2264 1.392 . S
C2265 H2277 0.929 . S
C2266 C2262 1.531 . S
C2266 H2278 0.960 . S
C2266 H2279 0.962 . S
C2266 H2280 0.960 . S
C2267 C2264 1.511 . S
C2267 H2281 0.961 . S
C2267 H2282 0.961 . S
C2267 H2283 0.961 . S
C2268 C2269 1.370 . S
C2268 C2270 1.363 . S
C2268 H2284 0.931 . S
C2269 C2268 1.370 . S
C2269 C2273 1.408 . S
C2270 C2268 1.363 . S
C2270 C2271 1.370 . S
C2270 C2274 1.524 . S
C2271 C2263 1.503 . S
C2271 C2270 1.370 . S
C2271 C2272 1.403 . S
C2272 C2271 1.403 . S
C2272 C2273 1.404 . S
C2272 C2275 1.539 . S
C2273 C2269 1.408 . S
C2273 C2272 1.404 . S
C2273 H2285 0.930 . S
C2274 C2270 1.524 . S
C2274 H2286 0.956 . S
C2274 H2287 0.961 . S
C2274 H2288 0.961 . S
C2275 C2272 1.539 . S
C2275 H2289 0.958 . S
C2275 H2290 0.961 . S
C2275 H2291 0.960 . S
H2276 C2260 0.931 . S
H2277 C2265 0.929 . S
H2278 C2266 0.960 . S
H2279 C2266 0.962 . S
H2280 C2266 0.960 . S
H2281 C2267 0.961 . S
H2282 C2267 0.961 . S
H2283 C2267 0.961 . S
H2284 C2268 0.931 . S
H2285 C2273 0.930 . S
H2286 C2274 0.956 . S
H2287 C2274 0.961 . S
H2288 C2274 0.961 . S
H2289 C2275 0.958 . S
H2290 C2275 0.961 . S
H2291 C2275 0.960 . S
C2292 C2293 1.391 . S
C2292 C2294 1.394 . S
C2292 H2308 0.931 . S
C2293 C2292 1.391 . S
C2293 C2297 1.376 . S
C2294 C2292 1.394 . S
C2294 C2295 1.369 . S
C2294 C2298 1.531 . S
C2295 C2294 1.369 . S
C2295 C2296 1.410 . S
C2295 C2303 1.503 . S
C2296 C2295 1.410 . S
C2296 C2297 1.392 . S
C2296 C2299 1.511 . S
C2297 C2293 1.376 . S
C2297 C2296 1.392 . S
C2297 H2309 0.929 . S
C2298 C2294 1.531 . S
C2298 H2310 0.960 . S
C2298 H2311 0.962 . S
C2298 H2312 0.960 . S
C2299 C2296 1.511 . S
C2299 H2313 0.961 . S
C2299 H2314 0.961 . S
C2299 H2315 0.961 . S
C2300 C2301 1.370 . S
C2300 C2302 1.363 . S
C2300 H2316 0.931 . S
C2301 C2300 1.370 . S
C2301 C2305 1.408 . S
C2302 C2300 1.363 . S
C2302 C2303 1.370 . S
C2302 C2306 1.524 . S
C2303 C2295 1.503 . S
C2303 C2302 1.370 . S
C2303 C2304 1.403 . S
C2304 C2303 1.403 . S
C2304 C2305 1.404 . S
C2304 C2307 1.539 . S
C2305 C2301 1.408 . S
C2305 C2304 1.404 . S
C2305 H2317 0.930 . S
C2306 C2302 1.524 . S
C2306 H2318 0.956 . S
C2306 H2319 0.961 . S
C2306 H2320 0.961 . S
C2307 C2304 1.539 . S
C2307 H2321 0.958 . S
C2307 H2322 0.961 . S
C2307 H2323 0.960 . S
H2308 C2292 0.931 . S
H2309 C2297 0.929 . S
H2310 C2298 0.960 . S
H2311 C2298 0.962 . S
H2312 C2298 0.960 . S
H2313 C2299 0.961 . S
H2314 C2299 0.961 . S
H2315 C2299 0.961 . S
H2316 C2300 0.931 . S
H2317 C2305 0.930 . S
H2318 C2306 0.956 . S
H2319 C2306 0.961 . S
H2320 C2306 0.961 . S
H2321 C2307 0.958 . S
H2322 C2307 0.961 . S
H2323 C2307 0.960 . S
C2324 C2325 1.391 . S
C2324 C2326 1.394 . S
C2324 H2340 0.931 . S
C2325 C2324 1.391 . S
C2325 C2329 1.376 . S
C2326 C2324 1.394 . S
C2326 C2327 1.369 . S
C2326 C2330 1.531 . S
C2327 C2326 1.369 . S
C2327 C2328 1.410 . S
C2327 C2335 1.503 . S
C2328 C2327 1.410 . S
C2328 C2329 1.392 . S
C2328 C2331 1.511 . S
C2329 C2325 1.376 . S
C2329 C2328 1.392 . S
C2329 H2341 0.929 . S
C2330 C2326 1.531 . S
C2330 H2342 0.960 . S
C2330 H2343 0.962 . S
C2330 H2344 0.960 . S
C2331 C2328 1.511 . S
C2331 H2345 0.961 . S
C2331 H2346 0.961 . S
C2331 H2347 0.961 . S
C2332 C2333 1.370 . S
C2332 C2334 1.363 . S
C2332 H2348 0.931 . S
C2333 C2332 1.370 . S
C2333 C2337 1.408 . S
C2334 C2332 1.363 . S
C2334 C2335 1.370 . S
C2334 C2338 1.524 . S
C2335 C2327 1.503 . S
C2335 C2334 1.370 . S
C2335 C2336 1.403 . S
C2336 C2335 1.403 . S
C2336 C2337 1.404 . S
C2336 C2339 1.539 . S
C2337 C2333 1.408 . S
C2337 C2336 1.404 . S
C2337 H2349 0.930 . S
C2338 C2334 1.524 . S
C2338 H2350 0.956 . S
C2338 H2351 0.961 . S
C2338 H2352 0.961 . S
C2339 C2336 1.539 . S
C2339 H2353 0.958 . S
C2339 H2354 0.961 . S
C2339 H2355 0.960 . S
H2340 C2324 0.931 . S
H2341 C2329 0.929 . S
H2342 C2330 0.960 . S
H2343 C2330 0.962 . S
H2344 C2330 0.960 . S
H2345 C2331 0.961 . S
H2346 C2331 0.961 . S
H2347 C2331 0.961 . S
H2348 C2332 0.931 . S
H2349 C2337 0.930 . S
H2350 C2338 0.956 . S
H2351 C2338 0.961 . S
H2352 C2338 0.961 . S
H2353 C2339 0.958 . S
H2354 C2339 0.961 . S
H2355 C2339 0.960 . S
C2356 C2357 1.391 . S
C2356 C2358 1.394 . S
C2356 H2372 0.931 . S
C2357 C2356 1.391 . S
C2357 C2361 1.376 . S
C2358 C2356 1.394 . S
C2358 C2359 1.369 . S
C2358 C2362 1.531 . S
C2359 C2358 1.369 . S
C2359 C2360 1.410 . S
C2359 C2367 1.503 . S
C2360 C2359 1.410 . S
C2360 C2361 1.392 . S
C2360 C2363 1.511 . S
C2361 C2357 1.376 . S
C2361 C2360 1.392 . S
C2361 H2373 0.929 . S
C2362 C2358 1.531 . S
C2362 H2374 0.960 . S
C2362 H2375 0.962 . S
C2362 H2376 0.960 . S
C2363 C2360 1.511 . S
C2363 H2377 0.961 . S
C2363 H2378 0.961 . S
C2363 H2379 0.961 . S
C2364 C2365 1.370 . S
C2364 C2366 1.363 . S
C2364 H2380 0.931 . S
C2365 C2364 1.370 . S
C2365 C2369 1.408 . S
C2366 C2364 1.363 . S
C2366 C2367 1.370 . S
C2366 C2370 1.524 . S
C2367 C2359 1.503 . S
C2367 C2366 1.370 . S
C2367 C2368 1.403 . S
C2368 C2367 1.403 . S
C2368 C2369 1.404 . S
C2368 C2371 1.539 . S
C2369 C2365 1.408 . S
C2369 C2368 1.404 . S
C2369 H2381 0.930 . S
C2370 C2366 1.524 . S
C2370 H2382 0.956 . S
C2370 H2383 0.961 . S
C2370 H2384 0.961 . S
C2371 C2368 1.539 . S
C2371 H2385 0.958 . S
C2371 H2386 0.961 . S
C2371 H2387 0.960 . S
H2372 C2356 0.931 . S
H2373 C2361 0.929 . S
H2374 C2362 0.960 . S
H2375 C2362 0.962 . S
H2376 C2362 0.960 . S
H2377 C2363 0.961 . S
H2378 C2363 0.961 . S
H2379 C2363 0.961 . S
H2380 C2364 0.931 . S
H2381 C2369 0.930 . S
H2382 C2370 0.956 . S
H2383 C2370 0.961 . S
H2384 C2370 0.961 . S
H2385 C2371 0.958 . S
H2386 C2371 0.961 . S
H2387 C2371 0.960 . S
C2388 C2389 1.391 . S
C2388 C2390 1.394 . S
C2388 H2404 0.931 . S
C2389 C2388 1.391 . S
C2389 C2393 1.376 . S
C2390 C2388 1.394 . S
C2390 C2391 1.369 . S
C2390 C2394 1.531 . S
C2391 C2390 1.369 . S
C2391 C2392 1.410 . S
C2391 C2399 1.503 . S
C2392 C2391 1.410 . S
C2392 C2393 1.392 . S
C2392 C2395 1.511 . S
C2393 C2389 1.376 . S
C2393 C2392 1.392 . S
C2393 H2405 0.929 . S
C2394 C2390 1.531 . S
C2394 H2406 0.960 . S
C2394 H2407 0.962 . S
C2394 H2408 0.960 . S
C2395 C2392 1.511 . S
C2395 H2409 0.961 . S
C2395 H2410 0.961 . S
C2395 H2411 0.961 . S
C2396 C2397 1.370 . S
C2396 C2398 1.363 . S
C2396 H2412 0.931 . S
C2397 C2396 1.370 . S
C2397 C2401 1.408 . S
C2398 C2396 1.363 . S
C2398 C2399 1.370 . S
C2398 C2402 1.524 . S
C2399 C2391 1.503 . S
C2399 C2398 1.370 . S
C2399 C2400 1.403 . S
C2400 C2399 1.403 . S
C2400 C2401 1.404 . S
C2400 C2403 1.539 . S
C2401 C2397 1.408 . S
C2401 C2400 1.404 . S
C2401 H2413 0.930 . S
C2402 C2398 1.524 . S
C2402 H2414 0.956 . S
C2402 H2415 0.961 . S
C2402 H2416 0.961 . S
C2403 C2400 1.539 . S
C2403 H2417 0.958 . S
C2403 H2418 0.961 . S
C2403 H2419 0.960 . S
H2404 C2388 0.931 . S
H2405 C2393 0.929 . S
H2406 C2394 0.960 . S
H2407 C2394 0.962 . S
H2408 C2394 0.960 . S
H2409 C2395 0.961 . S
H2410 C2395 0.961 . S
H2411 C2395 0.961 . S
H2412 C2396 0.931 . S
H2413 C2401 0.930 . S
H2414 C2402 0.956 . S
H2415 C2402 0.961 . S
H2416 C2402 0.961 . S
H2417 C2403 0.958 . S
H2418 C2403 0.961 . S
H2419 C2403 0.960 . S
C2420 C2421 1.391 . S
C2420 C2422 1.394 . S
C2420 H2436 0.931 . S
C2421 C2420 1.391 . S
C2421 C2425 1.376 . S
C2422 C2420 1.394 . S
C2422 C2423 1.369 . S
C2422 C2426 1.531 . S
C2423 C2422 1.369 . S
C2423 C2424 1.410 . S
C2423 C2431 1.503 . S
C2424 C2423 1.410 . S
C2424 C2425 1.392 . S
C2424 C2427 1.511 . S
C2425 C2421 1.376 . S
C2425 C2424 1.392 . S
C2425 H2437 0.929 . S
C2426 C2422 1.531 . S
C2426 H2438 0.960 . S
C2426 H2439 0.962 . S
C2426 H2440 0.960 . S
C2427 C2424 1.511 . S
C2427 H2441 0.961 . S
C2427 H2442 0.961 . S
C2427 H2443 0.961 . S
C2428 C2429 1.370 . S
C2428 C2430 1.363 . S
C2428 H2444 0.931 . S
C2429 C2428 1.370 . S
C2429 C2433 1.408 . S
C2430 C2428 1.363 . S
C2430 C2431 1.370 . S
C2430 C2434 1.524 . S
C2431 C2423 1.503 . S
C2431 C2430 1.370 . S
C2431 C2432 1.403 . S
C2432 C2431 1.403 . S
C2432 C2433 1.404 . S
C2432 C2435 1.539 . S
C2433 C2429 1.408 . S
C2433 C2432 1.404 . S
C2433 H2445 0.930 . S
C2434 C2430 1.524 . S
C2434 H2446 0.956 . S
C2434 H2447 0.961 . S
C2434 H2448 0.961 . S
C2435 C2432 1.539 . S
C2435 H2449 0.958 . S
C2435 H2450 0.961 . S
C2435 H2451 0.960 . S
H2436 C2420 0.931 . S
H2437 C2425 0.929 . S
H2438 C2426 0.960 . S
H2439 C2426 0.962 . S
H2440 C2426 0.960 . S
H2441 C2427 0.961 . S
H2442 C2427 0.961 . S
H2443 C2427 0.961 . S
H2444 C2428 0.931 . S
H2445 C2433 0.930 . S
H2446 C2434 0.956 . S
H2447 C2434 0.961 . S
H2448 C2434 0.961 . S
H2449 C2435 0.958 . S
H2450 C2435 0.961 . S
H2451 C2435 0.960 . S
C2452 C2453 1.391 . S
C2452 C2454 1.394 . S
C2452 H2468 0.931 . S
C2453 C2452 1.391 . S
C2453 C2457 1.376 . S
C2454 C2452 1.394 . S
C2454 C2455 1.369 . S
C2454 C2458 1.531 . S
C2455 C2454 1.369 . S
C2455 C2456 1.410 . S
C2455 C2463 1.503 . S
C2456 C2455 1.410 . S
C2456 C2457 1.392 . S
C2456 C2459 1.511 . S
C2457 C2453 1.376 . S
C2457 C2456 1.392 . S
C2457 H2469 0.929 . S
C2458 C2454 1.531 . S
C2458 H2470 0.960 . S
C2458 H2471 0.962 . S
C2458 H2472 0.960 . S
C2459 C2456 1.511 . S
C2459 H2473 0.961 . S
C2459 H2474 0.961 . S
C2459 H2475 0.961 . S
C2460 C2461 1.370 . S
C2460 C2462 1.363 . S
C2460 H2476 0.931 . S
C2461 C2460 1.370 . S
C2461 C2465 1.408 . S
C2462 C2460 1.363 . S
C2462 C2463 1.370 . S
C2462 C2466 1.524 . S
C2463 C2455 1.503 . S
C2463 C2462 1.370 . S
C2463 C2464 1.403 . S
C2464 C2463 1.403 . S
C2464 C2465 1.404 . S
C2464 C2467 1.539 . S
C2465 C2461 1.408 . S
C2465 C2464 1.404 . S
C2465 H2477 0.930 . S
C2466 C2462 1.524 . S
C2466 H2478 0.956 . S
C2466 H2479 0.961 . S
C2466 H2480 0.961 . S
C2467 C2464 1.539 . S
C2467 H2481 0.958 . S
C2467 H2482 0.961 . S
C2467 H2483 0.960 . S
H2468 C2452 0.931 . S
H2469 C2457 0.929 . S
H2470 C2458 0.960 . S
H2471 C2458 0.962 . S
H2472 C2458 0.960 . S
H2473 C2459 0.961 . S
H2474 C2459 0.961 . S
H2475 C2459 0.961 . S
H2476 C2460 0.931 . S
H2477 C2465 0.930 . S
H2478 C2466 0.956 . S
H2479 C2466 0.961 . S
H2480 C2466 0.961 . S
H2481 C2467 0.958 . S
H2482 C2467 0.961 . S
H2483 C2467 0.960 . S
C2484 C2485 1.391 . S
C2484 C2486 1.394 . S
C2484 H2500 0.931 . S
C2485 C2484 1.391 . S
C2485 C2489 1.376 . S
C2486 C2484 1.394 . S
C2486 C2487 1.369 . S
C2486 C2490 1.531 . S
C2487 C2486 1.369 . S
C2487 C2488 1.410 . S
C2487 C2495 1.503 . S
C2488 C2487 1.410 . S
C2488 C2489 1.392 . S
C2488 C2491 1.511 . S
C2489 C2485 1.376 . S
C2489 C2488 1.392 . S
C2489 H2501 0.929 . S
C2490 C2486 1.531 . S
C2490 H2502 0.960 . S
C2490 H2503 0.962 . S
C2490 H2504 0.960 . S
C2491 C2488 1.511 . S
C2491 H2505 0.961 . S
C2491 H2506 0.961 . S
C2491 H2507 0.961 . S
C2492 C2493 1.370 . S
C2492 C2494 1.363 . S
C2492 H2508 0.931 . S
C2493 C2492 1.370 . S
C2493 C2497 1.408 . S
C2494 C2492 1.363 . S
C2494 C2495 1.370 . S
C2494 C2498 1.524 . S
C2495 C2487 1.503 . S
C2495 C2494 1.370 . S
C2495 C2496 1.403 . S
C2496 C2495 1.403 . S
C2496 C2497 1.404 . S
C2496 C2499 1.539 . S
C2497 C2493 1.408 . S
C2497 C2496 1.404 . S
C2497 H2509 0.930 . S
C2498 C2494 1.524 . S
C2498 H2510 0.956 . S
C2498 H2511 0.961 . S
C2498 H2512 0.952 1_554 S
C2499 C2496 1.539 . S
C2499 H2513 0.958 . S
C2499 H2514 0.961 . S
C2499 H2515 0.960 . S
H2500 C2484 0.931 . S
H2501 C2489 0.929 . S
H2502 C2490 0.960 . S
H2503 C2490 0.962 . S
H2504 C2490 0.960 . S
H2505 C2491 0.961 . S
H2506 C2491 0.961 . S
H2507 C2491 0.961 . S
H2508 C2492 0.931 . S
H2509 C2497 0.930 . S
H2510 C2498 0.956 . S
H2511 C2498 0.961 . S
H2512 C2498 0.952 1_556 S
H2513 C2499 0.958 . S
H2514 C2499 0.961 . S
H2515 C2499 0.960 . S
C2516 C2517 1.391 . S
C2516 C2518 1.394 . S
C2516 H2532 0.931 . S
C2517 C2516 1.391 . S
C2517 C2521 1.376 . S
C2518 C2516 1.394 . S
C2518 C2519 1.369 . S
C2518 C2522 1.531 . S
C2519 C2518 1.369 . S
C2519 C2520 1.410 . S
C2519 C2527 1.503 . S
C2520 C2519 1.410 . S
C2520 C2521 1.392 . S
C2520 C2523 1.511 . S
C2521 C2517 1.376 . S
C2521 C2520 1.392 . S
C2521 H2533 0.929 . S
C2522 C2518 1.531 . S
C2522 H2534 0.960 . S
C2522 H2535 0.962 . S
C2522 H2536 0.960 . S
C2523 C2520 1.511 . S
C2523 H2537 0.961 . S
C2523 H2538 0.961 . S
C2523 H2539 0.961 . S
C2524 C2525 1.370 . S
C2524 C2526 1.363 . S
C2524 H2540 0.931 . S
C2525 C2524 1.370 . S
C2525 C2529 1.408 . S
C2526 C2524 1.363 . S
C2526 C2527 1.370 . S
C2526 C2530 1.524 . S
C2527 C2519 1.503 . S
C2527 C2526 1.370 . S
C2527 C2528 1.403 . S
C2528 C2527 1.403 . S
C2528 C2529 1.404 . S
C2528 C2531 1.539 1_554 S
C2529 C2525 1.408 . S
C2529 C2528 1.404 . S
C2529 H2541 0.930 . S
C2530 C2526 1.524 . S
C2530 H2542 0.956 . S
C2530 H2543 0.961 . S
C2530 H2544 0.961 . S
C2531 C2528 1.539 1_556 S
C2531 H2545 0.958 . S
C2531 H2546 0.961 . S
C2531 H2547 0.960 . S
H2532 C2516 0.931 . S
H2533 C2521 0.929 . S
H2534 C2522 0.960 . S
H2535 C2522 0.962 . S
H2536 C2522 0.960 . S
H2537 C2523 0.961 . S
H2538 C2523 0.961 . S
H2539 C2523 0.961 . S
H2540 C2524 0.931 . S
H2541 C2529 0.930 . S
H2542 C2530 0.956 . S
H2543 C2530 0.961 . S
H2544 C2530 0.961 . S
H2545 C2531 0.958 . S
H2546 C2531 0.961 . S
H2547 C2531 0.960 . S
C2548 C2549 1.391 . S
C2548 C2550 1.394 . S
C2548 H2564 0.931 . S
C2549 C2548 1.391 . S
C2549 C2553 1.376 . S
C2550 C2548 1.394 . S
C2550 C2551 1.369 . S
C2550 C2554 1.531 . S
C2551 C2550 1.369 . S
C2551 C2552 1.410 . S
C2551 C2559 1.503 . S
C2552 C2551 1.410 . S
C2552 C2553 1.392 . S
C2552 C2555 1.511 . S
C2553 C2549 1.376 . S
C2553 C2552 1.392 . S
C2553 H2565 0.929 . S
C2554 C2550 1.531 . S
C2554 H2566 0.960 . S
C2554 H2567 0.962 . S
C2554 H2568 0.960 . S
C2555 C2552 1.511 . S
C2555 H2569 0.961 . S
C2555 H2570 0.961 . S
C2555 H2571 0.961 . S
C2556 C2557 1.370 . S
C2556 C2558 1.363 . S
C2556 H2572 0.931 . S
C2557 C2556 1.370 . S
C2557 C2561 1.408 . S
C2558 C2556 1.363 . S
C2558 C2559 1.370 . S
C2558 C2562 1.524 . S
C2559 C2551 1.503 . S
C2559 C2558 1.370 . S
C2559 C2560 1.403 . S
C2560 C2559 1.403 . S
C2560 C2561 1.404 . S
C2560 C2563 1.539 . S
C2561 C2557 1.408 . S
C2561 C2560 1.404 . S
C2561 H2573 0.930 . S
C2562 C2558 1.524 . S
C2562 H2574 0.956 . S
C2562 H2575 0.961 . S
C2562 H2576 0.961 . S
C2563 C2560 1.539 . S
C2563 H2577 0.958 . S
C2563 H2578 0.961 . S
C2563 H2579 0.960 . S
H2564 C2548 0.931 . S
H2565 C2553 0.929 . S
H2566 C2554 0.960 . S
H2567 C2554 0.962 . S
H2568 C2554 0.960 . S
H2569 C2555 0.961 . S
H2570 C2555 0.961 . S
H2571 C2555 0.961 . S
H2572 C2556 0.931 . S
H2573 C2561 0.930 . S
H2574 C2562 0.956 . S
H2575 C2562 0.961 . S
H2576 C2562 0.961 . S
H2577 C2563 0.958 . S
H2578 C2563 0.961 . S
H2579 C2563 0.960 . S
C2580 C2581 1.391 . S
C2580 C2582 1.394 . S
C2580 H2596 0.931 . S
C2581 C2580 1.391 . S
C2581 C2585 1.376 . S
C2582 C2580 1.394 . S
C2582 C2583 1.369 . S
C2582 C2586 1.531 . S
C2583 C2582 1.369 . S
C2583 C2584 1.410 . S
C2583 C2591 1.503 . S
C2584 C2583 1.410 . S
C2584 C2585 1.392 . S
C2584 C2587 1.511 . S
C2585 C2581 1.376 . S
C2585 C2584 1.392 . S
C2585 H2597 0.929 . S
C2586 C2582 1.531 . S
C2586 H2598 0.960 . S
C2586 H2599 0.962 . S
C2586 H2600 0.960 . S
C2587 C2584 1.511 . S
C2587 H2601 0.961 1_556 S
C2587 H2602 0.961 . S
C2587 H2603 0.961 1_556 S
C2588 C2589 1.370 . S
C2588 C2590 1.363 . S
C2588 H2604 0.931 . S
C2589 C2588 1.370 . S
C2589 C2593 1.408 . S
C2590 C2588 1.363 . S
C2590 C2591 1.370 . S
C2590 C2594 1.524 . S
C2591 C2583 1.503 . S
C2591 C2590 1.370 . S
C2591 C2592 1.403 . S
C2592 C2591 1.403 . S
C2592 C2593 1.404 . S
C2592 C2595 1.539 . S
C2593 C2589 1.408 . S
C2593 C2592 1.404 . S
C2593 H2605 0.930 . S
C2594 C2590 1.524 . S
C2594 H2606 0.956 . S
C2594 H2607 0.961 . S
C2594 H2608 0.961 . S
C2595 C2592 1.539 . S
C2595 H2609 0.958 . S
C2595 H2610 0.961 . S
C2595 H2611 0.960 . S
H2596 C2580 0.931 . S
H2597 C2585 0.929 . S
H2598 C2586 0.960 . S
H2599 C2586 0.962 . S
H2600 C2586 0.960 . S
H2601 C2587 0.961 1_554 S
H2602 C2587 0.961 . S
H2603 C2587 0.961 1_554 S
H2604 C2588 0.931 . S
H2605 C2593 0.930 . S
H2606 C2594 0.956 . S
H2607 C2594 0.961 . S
H2608 C2594 0.961 . S
H2609 C2595 0.958 . S
H2610 C2595 0.961 . S
H2611 C2595 0.960 . S
C2612 C2613 1.391 . S
C2612 C2614 1.394 . S
C2612 H2628 0.931 . S
C2613 C2612 1.391 . S
C2613 C2617 1.376 . S
C2614 C2612 1.394 . S
C2614 C2615 1.369 . S
C2614 C2618 1.531 . S
C2615 C2614 1.369 . S
C2615 C2616 1.410 . S
C2615 C2623 1.503 . S
C2616 C2615 1.410 . S
C2616 C2617 1.392 . S
C2616 C2619 1.511 . S
C2617 C2613 1.376 . S
C2617 C2616 1.392 . S
C2617 H2629 0.929 . S
C2618 C2614 1.531 . S
C2618 H2630 0.960 . S
C2618 H2631 0.962 . S
C2618 H2632 0.960 . S
C2619 C2616 1.511 . S
C2619 H2633 0.961 . S
C2619 H2634 0.961 . S
C2619 H2635 0.961 . S
C2620 C2621 1.370 . S
C2620 C2622 1.363 . S
C2620 H2636 0.931 . S
C2621 C2620 1.370 . S
C2621 C2625 1.408 . S
C2622 C2620 1.363 . S
C2622 C2623 1.370 . S
C2622 C2626 1.524 . S
C2623 C2615 1.503 . S
C2623 C2622 1.370 . S
C2623 C2624 1.403 . S
C2624 C2623 1.403 . S
C2624 C2625 1.404 . S
C2624 C2627 1.541 . S
C2625 C2621 1.408 . S
C2625 C2624 1.404 . S
C2625 H2637 0.930 . S
C2626 C2622 1.524 . S
C2626 H2638 0.956 . S
C2626 H2639 0.961 . S
C2626 H2640 0.961 . S
C2627 C2624 1.541 . S
C2627 H2641 0.956 1_556 S
C2627 H2642 0.960 1_556 S
C2627 H2643 0.960 . S
H2628 C2612 0.931 . S
H2629 C2617 0.929 . S
H2630 C2618 0.960 . S
H2631 C2618 0.962 . S
H2632 C2618 0.960 . S
H2633 C2619 0.961 . S
H2634 C2619 0.961 . S
H2635 C2619 0.961 . S
H2636 C2620 0.931 . S
H2637 C2625 0.930 . S
H2638 C2626 0.956 . S
H2639 C2626 0.961 . S
H2640 C2626 0.961 . S
H2641 C2627 0.956 1_554 S
H2642 C2627 0.960 1_554 S
H2643 C2627 0.960 . S
C2644 C2645 1.391 . S
C2644 C2646 1.394 . S
C2644 H2660 0.931 . S
C2645 C2644 1.391 . S
C2645 C2649 1.376 . S
C2646 C2644 1.394 . S
C2646 C2647 1.369 . S
C2646 C2650 1.531 . S
C2647 C2646 1.369 . S
C2647 C2648 1.410 . S
C2647 C2655 1.503 . S
C2648 C2647 1.410 . S
C2648 C2649 1.392 . S
C2648 C2651 1.511 . S
C2649 C2645 1.376 . S
C2649 C2648 1.392 . S
C2649 H2661 0.929 . S
C2650 C2646 1.531 . S
C2650 H2662 0.960 . S
C2650 H2663 0.962 1_556 S
C2650 H2664 0.960 . S
C2651 C2648 1.511 . S
C2651 H2665 0.961 . S
C2651 H2666 0.961 . S
C2651 H2667 0.961 . S
C2652 C2653 1.370 . S
C2652 C2654 1.363 . S
C2652 H2668 0.931 . S
C2653 C2652 1.370 . S
C2653 C2657 1.408 . S
C2654 C2652 1.363 . S
C2654 C2655 1.370 . S
C2654 C2658 1.524 . S
C2655 C2647 1.503 . S
C2655 C2654 1.370 . S
C2655 C2656 1.403 . S
C2656 C2655 1.403 . S
C2656 C2657 1.404 . S
C2656 C2659 1.539 . S
C2657 C2653 1.408 . S
C2657 C2656 1.404 . S
C2657 H2669 0.930 . S
C2658 C2654 1.524 . S
C2658 H2670 0.956 . S
C2658 H2671 0.961 . S
C2658 H2672 0.961 . S
C2659 C2656 1.539 . S
C2659 H2673 0.958 . S
C2659 H2674 0.961 . S
C2659 H2675 0.960 . S
H2660 C2644 0.931 . S
H2661 C2649 0.929 . S
H2662 C2650 0.960 . S
H2663 C2650 0.962 1_554 S
H2664 C2650 0.960 . S
H2665 C2651 0.961 . S
H2666 C2651 0.961 . S
H2667 C2651 0.961 . S
H2668 C2652 0.931 . S
H2669 C2657 0.930 . S
H2670 C2658 0.956 . S
H2671 C2658 0.961 . S
H2672 C2658 0.961 . S
H2673 C2659 0.958 . S
H2674 C2659 0.961 . S
H2675 C2659 0.960 . S
C2676 C2677 1.391 . S
C2676 C2678 1.394 . S
C2676 H2692 0.931 . S
C2677 C2676 1.391 . S
C2677 C2681 1.376 . S
C2678 C2676 1.394 . S
C2678 C2679 1.369 . S
C2678 C2682 1.531 . S
C2679 C2678 1.369 . S
C2679 C2680 1.410 . S
C2679 C2687 1.503 . S
C2680 C2679 1.410 . S
C2680 C2681 1.392 . S
C2680 C2683 1.511 . S
C2681 C2677 1.376 . S
C2681 C2680 1.392 . S
C2681 H2693 0.929 . S
C2682 C2678 1.531 . S
C2682 H2694 0.960 . S
C2682 H2695 0.962 . S
C2682 H2696 0.960 . S
C2683 C2680 1.511 . S
C2683 H2697 0.961 . S
C2683 H2698 0.961 . S
C2683 H2699 0.961 . S
C2684 C2685 1.370 . S
C2684 C2686 1.363 . S
C2684 H2700 0.931 . S
C2685 C2684 1.370 . S
C2685 C2689 1.408 . S
C2686 C2684 1.363 . S
C2686 C2687 1.370 . S
C2686 C2690 1.524 . S
C2687 C2679 1.503 . S
C2687 C2686 1.370 . S
C2687 C2688 1.403 . S
C2688 C2687 1.403 . S
C2688 C2689 1.404 . S
C2688 C2691 1.539 . S
C2689 C2685 1.408 . S
C2689 C2688 1.404 . S
C2689 H2701 0.930 . S
C2690 C2686 1.524 . S
C2690 H2702 0.956 . S
C2690 H2703 0.961 . S
C2690 H2704 0.961 . S
C2691 C2688 1.539 . S
C2691 H2705 0.958 . S
C2691 H2706 0.961 . S
C2691 H2707 0.960 . S
H2692 C2676 0.931 . S
H2693 C2681 0.929 . S
H2694 C2682 0.960 . S
H2695 C2682 0.962 . S
H2696 C2682 0.960 . S
H2697 C2683 0.961 . S
H2698 C2683 0.961 . S
H2699 C2683 0.961 . S
H2700 C2684 0.931 . S
H2701 C2689 0.930 . S
H2702 C2690 0.956 . S
H2703 C2690 0.961 . S
H2704 C2690 0.961 . S
H2705 C2691 0.958 . S
H2706 C2691 0.961 . S
H2707 C2691 0.960 . S
C2708 C2709 1.391 . S
C2708 C2710 1.394 . S
C2708 H2724 0.931 . S
C2709 C2708 1.391 . S
C2709 C2713 1.376 . S
C2710 C2708 1.394 . S
C2710 C2711 1.369 . S
C2710 C2714 1.531 . S
C2711 C2710 1.369 . S
C2711 C2712 1.410 . S
C2711 C2719 1.503 . S
C2712 C2711 1.410 . S
C2712 C2713 1.392 . S
C2712 C2715 1.511 . S
C2713 C2709 1.376 . S
C2713 C2712 1.392 . S
C2713 H2725 0.929 . S
C2714 C2710 1.531 . S
C2714 H2726 0.960 . S
C2714 H2727 0.962 . S
C2714 H2728 0.960 . S
C2715 C2712 1.511 . S
C2715 H2729 0.961 . S
C2715 H2730 0.961 . S
C2715 H2731 0.961 . S
C2716 C2717 1.370 . S
C2716 C2718 1.363 . S
C2716 H2732 0.931 . S
C2717 C2716 1.370 . S
C2717 C2721 1.408 . S
C2718 C2716 1.363 . S
C2718 C2719 1.370 . S
C2718 C2722 1.524 . S
C2719 C2711 1.503 . S
C2719 C2718 1.370 . S
C2719 C2720 1.403 . S
C2720 C2719 1.403 . S
C2720 C2721 1.404 . S
C2720 C2723 1.539 . S
C2721 C2717 1.408 . S
C2721 C2720 1.404 . S
C2721 H2733 0.930 . S
C2722 C2718 1.524 . S
C2722 H2734 0.956 . S
C2722 H2735 0.961 . S
C2722 H2736 0.961 . S
C2723 C2720 1.539 . S
C2723 H2737 0.958 . S
C2723 H2738 0.961 . S
C2723 H2739 0.960 . S
H2724 C2708 0.931 . S
H2725 C2713 0.929 . S
H2726 C2714 0.960 . S
H2727 C2714 0.962 . S
H2728 C2714 0.960 . S
H2729 C2715 0.961 . S
H2730 C2715 0.961 . S
H2731 C2715 0.961 . S
H2732 C2716 0.931 . S
H2733 C2721 0.930 . S
H2734 C2722 0.956 . S
H2735 C2722 0.961 . S
H2736 C2722 0.961 . S
H2737 C2723 0.958 . S
H2738 C2723 0.961 . S
H2739 C2723 0.960 . S
C2740 C2741 1.391 . S
C2740 C2742 1.394 . S
C2740 H2756 0.931 . S
C2741 C2740 1.391 . S
C2741 C2745 1.376 . S
C2742 C2740 1.394 . S
C2742 C2743 1.369 . S
C2742 C2746 1.531 . S
C2743 C2742 1.369 . S
C2743 C2744 1.410 . S
C2743 C2751 1.503 . S
C2744 C2743 1.410 . S
C2744 C2745 1.392 . S
C2744 C2747 1.511 . S
C2745 C2741 1.376 . S
C2745 C2744 1.392 . S
C2745 H2757 0.929 . S
C2746 C2742 1.531 . S
C2746 H2758 0.960 . S
C2746 H2759 0.962 . S
C2746 H2760 0.960 . S
C2747 C2744 1.511 . S
C2747 H2761 0.961 . S
C2747 H2762 0.961 . S
C2747 H2763 0.961 . S
C2748 C2749 1.370 . S
C2748 C2750 1.363 . S
C2748 H2764 0.931 . S
C2749 C2748 1.370 . S
C2749 C2753 1.408 . S
C2750 C2748 1.363 . S
C2750 C2751 1.370 . S
C2750 C2754 1.524 . S
C2751 C2743 1.503 . S
C2751 C2750 1.370 . S
C2751 C2752 1.403 . S
C2752 C2751 1.403 . S
C2752 C2753 1.404 . S
C2752 C2755 1.539 . S
C2753 C2749 1.408 . S
C2753 C2752 1.404 . S
C2753 H2765 0.930 . S
C2754 C2750 1.524 . S
C2754 H2766 0.956 . S
C2754 H2767 0.961 . S
C2754 H2768 0.961 . S
C2755 C2752 1.539 . S
C2755 H2769 0.958 . S
C2755 H2770 0.961 . S
C2755 H2771 0.960 . S
H2756 C2740 0.931 . S
H2757 C2745 0.929 . S
H2758 C2746 0.960 . S
H2759 C2746 0.962 . S
H2760 C2746 0.960 . S
H2761 C2747 0.961 . S
H2762 C2747 0.961 . S
H2763 C2747 0.961 . S
H2764 C2748 0.931 . S
H2765 C2753 0.930 . S
H2766 C2754 0.956 . S
H2767 C2754 0.961 . S
H2768 C2754 0.961 . S
H2769 C2755 0.958 . S
H2770 C2755 0.961 . S
H2771 C2755 0.960 . S
C469 C65 1.547 . S
C477 C0 1.530 . S
C501 C39 1.527 . S
C509 C13 1.526 . S
C533 C26 1.546 . S
C541 C52 1.529 . S
C565 C78 1.530 . S
C573 C143 1.527 . S
C597 C91 1.511 . S
C605 C117 1.537 . S
C629 C130 1.547 . S
C637 C104 1.528 . S
C661 C156 1.545 . S
C669 C221 1.529 . S
C693 C169 1.546 . S
C701 C195 1.536 . S
C725 C182 1.541 . S
C733 C208 1.527 . S
C757 C299 1.528 . S
C765 C234 1.527 . S
C789 C247 1.548 . S
C797 C273 1.531 . S
C821 C286 1.511 . S
C829 C260 1.537 . S
C853 C377 1.521 . S
C861 C312 1.527 . S
C885 C351 1.537 . S
C893 C325 1.526 . S
C917 C364 1.548 . S
C925 C338 1.533 . S
C949 C390 1.528 . S
C957 C455 1.541 . S
C981 C403 1.511 . S
C989 C429 1.537 . S
C1013 C416 1.518 . S
C1021 C442 1.530 . S
C1045 C73 1.221 . S
C1053 C8 1.195 . S
C1077 C21 1.201 . S
C1085 C47 1.186 . S
C1109 C60 1.172 . S
C1117 C34 1.201 . S
C1141 C86 1.177 . S
C1149 C151 1.181 . S
C1173 C99 1.222 . S
C1181 C125 1.211 . S
C1205 C138 1.198 . S
C1213 C112 1.212 . S
C1237 C164 1.199 . S
C1245 C229 1.210 . S
C1269 C203 1.164 . S
C1277 C177 1.181 . S
C1301 C216 1.214 . S
C1309 C190 1.212 . S
C1333 C242 1.156 . S
C1341 C307 1.190 . S
C1365 C255 1.222 . S
C1373 C281 1.211 . S
C1397 C294 1.208 . S
C1405 C268 1.185 . S
C1429 C385 1.232 . S
C1437 C320 1.208 . S
C1461 C333 1.191 . S
C1469 C359 1.208 . S
C1493 C346 1.163 . S
C1501 C372 1.181 . S
C1525 C463 1.170 . S
C1533 C398 1.205 . S
C1557 C437 1.224 . S
C1565 C411 1.192 . S
C1589 C450 1.163 . S
C1597 C424 1.201 . S
C1621 C213 1.592 . S
C1629 C5 1.577 . S
C1653 C226 1.590 . S
C1661 C18 1.581 . S
C1685 C200 1.572 . S
C1693 C31 1.582 . S
C1717 C44 1.546 . S
C1725 C343 1.570 . S
C1749 C57 1.589 . S
C1757 C317 1.573 . S
C1781 C70 1.561 . S
C1789 C330 1.563 . S
C1813 C83 1.573 . S
C1821 C447 1.564 . S
C1845 C96 1.552 . S
C1853 C460 1.578 . S
C1877 C109 1.559 . S
C1885 C434 1.580 . S
C1909 C122 1.566 . S
C1917 C265 1.563 . S
C1941 C239 1.575 . S
C1949 C135 1.564 . S
C1973 C252 1.580 . S
C1981 C148 1.565 . S
C2005 C369 1.560 . S
C2013 C161 1.579 . S
C2037 C174 1.549 . S
C2045 C382 1.573 . S
C2069 C187 1.546 . S
C2077 C356 1.568 . S
C2101 C278 1.585 . S
C2109 C421 1.581 . S
C2133 C291 1.567 . S
C2141 C395 1.563 . S
C2165 C408 1.545 . S
C2173 C304 1.571 . S
C2197 C10 1.294 . S
C2205 C140 1.293 . S
C2229 C153 1.299 . S
C2237 C23 1.298 . S
C2261 C127 1.304 . S
C2269 C36 1.298 . S
C2293 C49 1.277 . S
C2301 C114 1.286 . S
C2325 C62 1.294 . S
C2333 C88 1.295 . S
C2357 C75 1.288 . S
C2365 C101 1.291 . S
C2389 C166 1.301 . S
C2397 C296 1.296 . S
C2421 C309 1.273 . S
C2429 C179 1.286 . S
C2453 C283 1.297 . S
C2461 C192 1.294 . S
C2485 C205 1.273 . S
C2493 C270 1.285 . S
C2517 C218 1.304 . S
C2525 C244 1.298 . S
C2549 C257 1.276 . S
C2557 C231 1.288 . S
C2581 C322 1.299 . S
C2589 C452 1.297 . S
C2613 C465 1.305 . S
C2621 C335 1.299 . S
C2645 C348 1.276 . S
C2653 C439 1.286 . S
C2677 C361 1.276 . S
C2685 C426 1.286 . S
C2709 C400 1.296 . S
C2717 C374 1.294 . S
C2741 C387 1.289 . S
C2749 C413 1.293 . S
