# Generated by pormake.
# Topology umq, (4)-cn, num edge types: 1
# Building blocks:
#     Node 0, Type 0, BuildingBlock: QUQFOY_clean_sbu_3, # of connection points: 4
#     Node 1, Type 0, BuildingBlock: QUQFOY_clean_sbu_3, # of connection points: 4
#     Node 2, Type 0, BuildingBlock: QUQFOY_clean_sbu_3, # of connection points: 4
#     Node 3, Type 0, BuildingBlock: QUQFOY_clean_sbu_3, # of connection points: 4
#     Node 4, Type 0, BuildingBlock: QUQFOY_clean_sbu_3, # of connection points: 4
#     Node 5, Type 0, BuildingBlock: QUQFOY_clean_sbu_3, # of connection points: 4
#     Node 6, Type 0, BuildingBlock: QUQFOY_clean_sbu_3, # of connection points: 4
#     Node 7, Type 0, BuildingBlock: QUQFOY_clean_sbu_3, # of connection points: 4
#     Node 8, Type 0, BuildingBlock: QUQFOY_clean_sbu_3, # of connection points: 4
#     Node 9, Type 0, BuildingBlock: QUQFOY_clean_sbu_3, # of connection points: 4
#     Node 10, Type 0, BuildingBlock: QUQFOY_clean_sbu_3, # of connection points: 4
#     Node 11, Type 0, BuildingBlock: QUQFOY_clean_sbu_3, # of connection points: 4
#     Node 12, Type 0, BuildingBlock: QUQFOY_clean_sbu_3, # of connection points: 4
#     Node 13, Type 0, BuildingBlock: QUQFOY_clean_sbu_3, # of connection points: 4
#     Node 14, Type 0, BuildingBlock: QUQFOY_clean_sbu_3, # of connection points: 4
#     Node 15, Type 0, BuildingBlock: QUQFOY_clean_sbu_3, # of connection points: 4
#     Node 16, Type 0, BuildingBlock: QUQFOY_clean_sbu_3, # of connection points: 4
#     Node 17, Type 0, BuildingBlock: QUQFOY_clean_sbu_3, # of connection points: 4
#     Node 18, Type 0, BuildingBlock: QUQFOY_clean_sbu_3, # of connection points: 4
#     Node 19, Type 0, BuildingBlock: QUQFOY_clean_sbu_3, # of connection points: 4
#     Node 20, Type 0, BuildingBlock: QUQFOY_clean_sbu_3, # of connection points: 4
#     Node 21, Type 0, BuildingBlock: QUQFOY_clean_sbu_3, # of connection points: 4
#     Node 22, Type 0, BuildingBlock: QUQFOY_clean_sbu_3, # of connection points: 4
#     Node 23, Type 0, BuildingBlock: QUQFOY_clean_sbu_3, # of connection points: 4
#     Node 24, Type 0, BuildingBlock: QUQFOY_clean_sbu_3, # of connection points: 4
#     Node 25, Type 0, BuildingBlock: QUQFOY_clean_sbu_3, # of connection points: 4
#     Node 26, Type 0, BuildingBlock: QUQFOY_clean_sbu_3, # of connection points: 4
#     Node 27, Type 0, BuildingBlock: QUQFOY_clean_sbu_3, # of connection points: 4
#     Node 28, Type 0, BuildingBlock: QUQFOY_clean_sbu_3, # of connection points: 4
#     Node 29, Type 0, BuildingBlock: QUQFOY_clean_sbu_3, # of connection points: 4
#     Node 30, Type 0, BuildingBlock: QUQFOY_clean_sbu_3, # of connection points: 4
#     Node 31, Type 0, BuildingBlock: QUQFOY_clean_sbu_3, # of connection points: 4
#     Edge 32, Type (0, 0), BuildingBlock: KIFKEQ_clean_linker_1, # of connection points: 2
#     Edge 33, Type (0, 0), BuildingBlock: KIFKEQ_clean_linker_1, # of connection points: 2
#     Edge 34, Type (0, 0), BuildingBlock: KIFKEQ_clean_linker_1, # of connection points: 2
#     Edge 35, Type (0, 0), BuildingBlock: KIFKEQ_clean_linker_1, # of connection points: 2
#     Edge 36, Type (0, 0), BuildingBlock: KIFKEQ_clean_linker_1, # of connection points: 2
#     Edge 37, Type (0, 0), BuildingBlock: KIFKEQ_clean_linker_1, # of connection points: 2
#     Edge 38, Type (0, 0), BuildingBlock: KIFKEQ_clean_linker_1, # of connection points: 2
#     Edge 39, Type (0, 0), BuildingBlock: KIFKEQ_clean_linker_1, # of connection points: 2
#     Edge 40, Type (0, 0), BuildingBlock: KIFKEQ_clean_linker_1, # of connection points: 2
#     Edge 41, Type (0, 0), BuildingBlock: KIFKEQ_clean_linker_1, # of connection points: 2
#     Edge 42, Type (0, 0), BuildingBlock: KIFKEQ_clean_linker_1, # of connection points: 2
#     Edge 43, Type (0, 0), BuildingBlock: KIFKEQ_clean_linker_1, # of connection points: 2
#     Edge 44, Type (0, 0), BuildingBlock: KIFKEQ_clean_linker_1, # of connection points: 2
#     Edge 45, Type (0, 0), BuildingBlock: KIFKEQ_clean_linker_1, # of connection points: 2
#     Edge 46, Type (0, 0), BuildingBlock: KIFKEQ_clean_linker_1, # of connection points: 2
#     Edge 47, Type (0, 0), BuildingBlock: KIFKEQ_clean_linker_1, # of connection points: 2
#     Edge 48, Type (0, 0), BuildingBlock: KIFKEQ_clean_linker_1, # of connection points: 2
#     Edge 49, Type (0, 0), BuildingBlock: KIFKEQ_clean_linker_1, # of connection points: 2
#     Edge 50, Type (0, 0), BuildingBlock: KIFKEQ_clean_linker_1, # of connection points: 2
#     Edge 51, Type (0, 0), BuildingBlock: KIFKEQ_clean_linker_1, # of connection points: 2
#     Edge 52, Type (0, 0), BuildingBlock: KIFKEQ_clean_linker_1, # of connection points: 2
#     Edge 53, Type (0, 0), BuildingBlock: KIFKEQ_clean_linker_1, # of connection points: 2
#     Edge 54, Type (0, 0), BuildingBlock: KIFKEQ_clean_linker_1, # of connection points: 2
#     Edge 55, Type (0, 0), BuildingBlock: KIFKEQ_clean_linker_1, # of connection points: 2
#     Edge 56, Type (0, 0), BuildingBlock: KIFKEQ_clean_linker_1, # of connection points: 2
#     Edge 57, Type (0, 0), BuildingBlock: KIFKEQ_clean_linker_1, # of connection points: 2
#     Edge 58, Type (0, 0), BuildingBlock: KIFKEQ_clean_linker_1, # of connection points: 2
#     Edge 59, Type (0, 0), BuildingBlock: KIFKEQ_clean_linker_1, # of connection points: 2
#     Edge 60, Type (0, 0), BuildingBlock: KIFKEQ_clean_linker_1, # of connection points: 2
#     Edge 61, Type (0, 0), BuildingBlock: KIFKEQ_clean_linker_1, # of connection points: 2
#     Edge 62, Type (0, 0), BuildingBlock: KIFKEQ_clean_linker_1, # of connection points: 2
#     Edge 63, Type (0, 0), BuildingBlock: KIFKEQ_clean_linker_1, # of connection points: 2
#     Edge 64, Type (0, 0), BuildingBlock: KIFKEQ_clean_linker_1, # of connection points: 2
#     Edge 65, Type (0, 0), BuildingBlock: KIFKEQ_clean_linker_1, # of connection points: 2
#     Edge 66, Type (0, 0), BuildingBlock: KIFKEQ_clean_linker_1, # of connection points: 2
#     Edge 67, Type (0, 0), BuildingBlock: KIFKEQ_clean_linker_1, # of connection points: 2
#     Edge 68, Type (0, 0), BuildingBlock: KIFKEQ_clean_linker_1, # of connection points: 2
#     Edge 69, Type (0, 0), BuildingBlock: KIFKEQ_clean_linker_1, # of connection points: 2
#     Edge 70, Type (0, 0), BuildingBlock: KIFKEQ_clean_linker_1, # of connection points: 2
#     Edge 71, Type (0, 0), BuildingBlock: KIFKEQ_clean_linker_1, # of connection points: 2
#     Edge 72, Type (0, 0), BuildingBlock: KIFKEQ_clean_linker_1, # of connection points: 2
#     Edge 73, Type (0, 0), BuildingBlock: KIFKEQ_clean_linker_1, # of connection points: 2
#     Edge 74, Type (0, 0), BuildingBlock: KIFKEQ_clean_linker_1, # of connection points: 2
#     Edge 75, Type (0, 0), BuildingBlock: KIFKEQ_clean_linker_1, # of connection points: 2
#     Edge 76, Type (0, 0), BuildingBlock: KIFKEQ_clean_linker_1, # of connection points: 2
#     Edge 77, Type (0, 0), BuildingBlock: KIFKEQ_clean_linker_1, # of connection points: 2
#     Edge 78, Type (0, 0), BuildingBlock: KIFKEQ_clean_linker_1, # of connection points: 2
#     Edge 79, Type (0, 0), BuildingBlock: KIFKEQ_clean_linker_1, # of connection points: 2
#     Edge 80, Type (0, 0), BuildingBlock: KIFKEQ_clean_linker_1, # of connection points: 2
#     Edge 81, Type (0, 0), BuildingBlock: KIFKEQ_clean_linker_1, # of connection points: 2
#     Edge 82, Type (0, 0), BuildingBlock: KIFKEQ_clean_linker_1, # of connection points: 2
#     Edge 83, Type (0, 0), BuildingBlock: KIFKEQ_clean_linker_1, # of connection points: 2
#     Edge 84, Type (0, 0), BuildingBlock: KIFKEQ_clean_linker_1, # of connection points: 2
#     Edge 85, Type (0, 0), BuildingBlock: KIFKEQ_clean_linker_1, # of connection points: 2
#     Edge 86, Type (0, 0), BuildingBlock: KIFKEQ_clean_linker_1, # of connection points: 2
#     Edge 87, Type (0, 0), BuildingBlock: KIFKEQ_clean_linker_1, # of connection points: 2
#     Edge 88, Type (0, 0), BuildingBlock: KIFKEQ_clean_linker_1, # of connection points: 2
#     Edge 89, Type (0, 0), BuildingBlock: KIFKEQ_clean_linker_1, # of connection points: 2
#     Edge 90, Type (0, 0), BuildingBlock: KIFKEQ_clean_linker_1, # of connection points: 2
#     Edge 91, Type (0, 0), BuildingBlock: KIFKEQ_clean_linker_1, # of connection points: 2
#     Edge 92, Type (0, 0), BuildingBlock: KIFKEQ_clean_linker_1, # of connection points: 2
#     Edge 93, Type (0, 0), BuildingBlock: KIFKEQ_clean_linker_1, # of connection points: 2
#     Edge 94, Type (0, 0), BuildingBlock: KIFKEQ_clean_linker_1, # of connection points: 2
#     Edge 95, Type (0, 0), BuildingBlock: KIFKEQ_clean_linker_1, # of connection points: 2
# Relax obj value: 0.064
# Max RMSD: 0.052
# Mean RMSD: 0.052
data_MOF--net-umq--node1-QUQFOY_clean_sbu_3--edge1-KIFKEQ_clean_linker_1
_symmetry_space_group_name_H-M    P1
_symmetry_Int_Tables_number       1
_symmetry_cell_setting            triclinic
loop_
_symmetry_equiv_pos_as_xyz
'x, y, z'
_cell_length_a     69.080397
_cell_length_b     69.147187
_cell_length_c     46.872145
_cell_angle_alpha  89.995384
_cell_angle_beta   89.974803
_cell_angle_gamma 89.995296
loop_
_atom_site_label
_atom_site_type_symbol
_atom_site_fract_x
_atom_site_fract_y
_atom_site_fract_z
_atom_type_partial_charge
C0 C 0.22884 0.10546 0.08921 0.0
O1 O 0.21967 0.12126 0.09219 0.0
Cd2 Cd 0.20816 0.13498 0.1359 0.0
O3 O 0.23395 0.09542 0.11072 0.0
Cd4 Cd 0.23259 0.0994 0.16331 0.0
C5 C 0.2528 0.14444 0.16335 0.0
O6 O 0.19856 0.10814 0.16415 0.0
O7 O 0.2129 0.10933 0.2047 0.0
O8 O 0.23341 0.0642 0.16494 0.0
C9 C 0.19739 0.11139 0.19063 0.0
O10 O 0.23634 0.15088 0.1557 0.0
C11 C 0.2456 0.06319 0.18515 0.0
O12 O 0.25591 0.12631 0.16529 0.0
O13 O 0.25212 0.07908 0.19476 0.0
C14 C 0.89502 0.21947 0.09792 0.0
O15 O 0.88148 0.20867 0.10697 0.0
Cd16 Cd 0.86969 0.20546 0.15425 0.0
O17 O 0.90439 0.23037 0.11502 0.0
Cd18 Cd 0.90332 0.23657 0.16763 0.0
C19 C 0.85751 0.25316 0.16538 0.0
O20 O 0.89797 0.20344 0.18232 0.0
O21 O 0.89235 0.22451 0.21467 0.0
O22 O 0.93847 0.23918 0.16837 0.0
C23 C 0.89306 0.20681 0.20778 0.0
O24 O 0.85235 0.23548 0.16418 0.0
C25 C 0.93886 0.25423 0.1839 0.0
O26 O 0.87531 0.2579 0.16428 0.0
O27 O 0.92267 0.26151 0.19086 0.0
C28 C 0.77087 0.90135 0.08946 0.0
O29 O 0.7816 0.88647 0.08947 0.0
Cd30 Cd 0.78473 0.86401 0.12756 0.0
O31 O 0.76137 0.90636 0.11153 0.0
Cd32 Cd 0.75936 0.89503 0.16194 0.0
C33 C 0.7368 0.85375 0.14385 0.0
O34 O 0.79209 0.8829 0.16818 0.0
O35 O 0.77122 0.87334 0.19941 0.0
O36 O 0.76789 0.92498 0.18442 0.0
C37 C 0.78871 0.87381 0.19111 0.0
O38 O 0.75318 0.84855 0.13392 0.0
C39 C 0.75122 0.92898 0.19398 0.0
O40 O 0.73444 0.87053 0.15455 0.0
O41 O 0.73761 0.91722 0.18837 0.0
C42 C 0.08845 0.76921 0.09412 0.0
O43 O 0.10159 0.78179 0.09764 0.0
Cd44 Cd 0.12109 0.78478 0.13898 0.0
O45 O 0.08347 0.75783 0.11422 0.0
Cd46 Cd 0.09104 0.75493 0.16631 0.0
C47 C 0.13485 0.73709 0.15001 0.0
O48 O 0.09813 0.78875 0.1761 0.0
O49 O 0.1076 0.76882 0.20824 0.0
O50 O 0.05631 0.75324 0.17342 0.0
C51 C 0.10596 0.78623 0.20017 0.0
O52 O 0.13932 0.75441 0.14336 0.0
C53 C 0.0568 0.73936 0.19112 0.0
O54 O 0.11774 0.73284 0.15788 0.0
O55 O 0.07332 0.73238 0.19707 0.0
C56 C 0.21387 0.90235 0.38081 0.0
O57 O 0.2015 0.88912 0.37643 0.0
Cd58 Cd 0.20002 0.86992 0.33468 0.0
O59 O 0.22547 0.90778 0.36121 0.0
Cd60 Cd 0.2291 0.90149 0.3088 0.0
C61 C 0.24871 0.85857 0.32546 0.0
O62 O 0.19586 0.89288 0.29777 0.0
O63 O 0.21671 0.88455 0.26618 0.0
O64 O 0.22852 0.93632 0.30306 0.0
C65 C 0.19911 0.88528 0.27373 0.0
O66 O 0.23149 0.85343 0.33166 0.0
C67 C 0.24264 0.93714 0.28578 0.0
O68 O 0.25238 0.87578 0.31741 0.0
O69 O 0.25086 0.92128 0.27942 0.0
C70 C 0.0945 0.2216 0.38503 0.0
O71 O 0.10793 0.20953 0.37999 0.0
Cd72 Cd 0.12533 0.20578 0.3366 0.0
O73 O 0.08817 0.23291 0.36568 0.0
Cd74 Cd 0.09422 0.23693 0.31334 0.0
C75 C 0.1397 0.25302 0.32548 0.0
O76 O 0.09973 0.20298 0.30338 0.0
O77 O 0.1065 0.22198 0.26872 0.0
O78 O 0.05942 0.24095 0.30888 0.0
C79 C 0.1053 0.20479 0.27787 0.0
O80 O 0.14431 0.23545 0.33005 0.0
C81 C 0.06031 0.25466 0.29091 0.0
O82 O 0.12219 0.25778 0.32066 0.0
O83 O 0.07706 0.26064 0.28409 0.0
C84 C 0.7776 0.09053 0.38855 0.0
O85 O 0.78954 0.10441 0.3868 0.0
Cd86 Cd 0.79238 0.12537 0.34701 0.0
O87 O 0.76722 0.08556 0.36733 0.0
Cd88 Cd 0.76589 0.09419 0.31566 0.0
C89 C 0.74423 0.13612 0.33203 0.0
O90 O 0.79898 0.10453 0.30831 0.0
O91 O 0.7789 0.11381 0.27603 0.0
O92 O 0.773 0.06163 0.30193 0.0
C93 C 0.79627 0.11299 0.28474 0.0
O94 O 0.76092 0.1412 0.34093 0.0
C95 C 0.75728 0.0583 0.28891 0.0
O96 O 0.74134 0.11914 0.32236 0.0
O97 O 0.74481 0.07184 0.28841 0.0
C98 C 0.89746 0.77233 0.38713 0.0
O99 O 0.88447 0.78451 0.38054 0.0
Cd100 Cd 0.86678 0.78444 0.33722 0.0
O101 O 0.90341 0.75983 0.36914 0.0
Cd102 Cd 0.89854 0.75355 0.31704 0.0
C103 C 0.85445 0.73588 0.33195 0.0
O104 O 0.89093 0.7862 0.30144 0.0
O105 O 0.88336 0.76374 0.27191 0.0
O106 O 0.93352 0.75298 0.31282 0.0
C107 C 0.88411 0.78167 0.27732 0.0
O108 O 0.84945 0.75343 0.33586 0.0
C109 C 0.93425 0.73792 0.2974 0.0
O110 O 0.8719 0.73149 0.326 0.0
O111 O 0.91828 0.7297 0.29162 0.0
C112 C 0.77594 0.89945 0.88662 0.0
O113 O 0.78704 0.88502 0.88297 0.0
Cd114 Cd 0.78945 0.86615 0.84112 0.0
O115 O 0.76543 0.90581 0.86631 0.0
Cd116 Cd 0.76146 0.89865 0.8142 0.0
C117 C 0.74091 0.85576 0.82995 0.0
O118 O 0.79485 0.88983 0.80545 0.0
O119 O 0.77522 0.88195 0.77205 0.0
O120 O 0.76172 0.93353 0.80804 0.0
C121 C 0.79252 0.88256 0.781 0.0
O122 O 0.75794 0.85018 0.83643 0.0
C123 C 0.74809 0.93403 0.78991 0.0
O124 O 0.73771 0.87314 0.82226 0.0
O125 O 0.74031 0.918 0.78331 0.0
C126 C 0.09453 0.7719 0.88774 0.0
O127 O 0.10866 0.7831 0.8826 0.0
Cd128 Cd 0.12612 0.78548 0.83938 0.0
O129 O 0.08762 0.76099 0.86828 0.0
Cd130 Cd 0.09368 0.75616 0.81595 0.0
C131 C 0.13767 0.73723 0.82971 0.0
O132 O 0.10146 0.78953 0.80472 0.0
O133 O 0.10912 0.76902 0.77236 0.0
O134 O 0.05869 0.75519 0.81016 0.0
C135 C 0.10822 0.78655 0.78007 0.0
O136 O 0.14302 0.75452 0.83486 0.0
C137 C 0.05861 0.74114 0.79273 0.0
O138 O 0.12012 0.7334 0.82359 0.0
O139 O 0.07487 0.73361 0.78669 0.0
C140 C 0.21842 0.09025 0.88451 0.0
O141 O 0.20543 0.10302 0.88089 0.0
Cd142 Cd 0.19739 0.11879 0.83725 0.0
O143 O 0.22801 0.0834 0.86356 0.0
Cd144 Cd 0.22737 0.08642 0.81052 0.0
C145 C 0.24364 0.13239 0.81668 0.0
O146 O 0.19306 0.0924 0.80615 0.0
O147 O 0.20918 0.09697 0.76771 0.0
O148 O 0.23103 0.05149 0.80722 0.0
C149 C 0.1929 0.09719 0.78016 0.0
O150 O 0.22652 0.13713 0.82413 0.0
C151 C 0.24414 0.05205 0.78821 0.0
O152 O 0.2481 0.11479 0.81211 0.0
O153 O 0.24983 0.06865 0.78023 0.0
C154 C 0.89788 0.2174 0.88703 0.0
O155 O 0.88473 0.20529 0.88088 0.0
Cd156 Cd 0.86753 0.20359 0.83722 0.0
O157 O 0.90422 0.22932 0.86848 0.0
Cd158 Cd 0.89926 0.23441 0.81605 0.0
C159 C 0.85481 0.25189 0.82911 0.0
O160 O 0.8922 0.20127 0.8026 0.0
O161 O 0.88354 0.22261 0.77205 0.0
O162 O 0.93426 0.23512 0.81137 0.0
C163 C 0.88491 0.20487 0.77848 0.0
O164 O 0.84994 0.23426 0.83257 0.0
C165 C 0.93478 0.24935 0.79428 0.0
O166 O 0.87241 0.25654 0.82471 0.0
O167 O 0.91872 0.25723 0.78802 0.0
C168 C 0.77435 0.09698 0.59315 0.0
O169 O 0.78464 0.1118 0.59814 0.0
Cd170 Cd 0.7857 0.12937 0.64124 0.0
O171 O 0.76373 0.08958 0.61259 0.0
Cd172 Cd 0.7582 0.09546 0.66475 0.0
C173 C 0.73674 0.1382 0.65071 0.0
O174 O 0.79123 0.10457 0.67521 0.0
O175 O 0.771 0.11128 0.70839 0.0
O176 O 0.75921 0.06044 0.66896 0.0
C177 C 0.78844 0.111 0.70006 0.0
O178 O 0.75375 0.14441 0.64553 0.0
C179 C 0.74541 0.05916 0.68672 0.0
O180 O 0.73385 0.12052 0.65705 0.0
O181 O 0.73712 0.07482 0.69389 0.0
C182 C 0.893 0.77302 0.59733 0.0
O183 O 0.87911 0.78372 0.60542 0.0
Cd184 Cd 0.86597 0.78655 0.65184 0.0
O185 O 0.90193 0.76223 0.6151 0.0
Cd186 Cd 0.8996 0.75637 0.6678 0.0
C187 C 0.85438 0.73854 0.6624 0.0
O188 O 0.89354 0.78962 0.6813 0.0
O189 O 0.8869 0.76889 0.71371 0.0
O190 O 0.93482 0.75478 0.66947 0.0
C191 C 0.88798 0.78652 0.70653 0.0
O192 O 0.84901 0.75613 0.66051 0.0
C193 C 0.93554 0.74037 0.68624 0.0
O194 O 0.87228 0.73411 0.66291 0.0
O195 O 0.9195 0.73287 0.69349 0.0
C196 C 0.21512 0.89219 0.58797 0.0
O197 O 0.20429 0.87793 0.59401 0.0
Cd198 Cd 0.20223 0.86161 0.63825 0.0
O199 O 0.22606 0.89974 0.60688 0.0
Cd200 Cd 0.23173 0.89471 0.65918 0.0
C201 C 0.25053 0.85035 0.64796 0.0
O202 O 0.19852 0.88712 0.67161 0.0
O203 O 0.21936 0.8806 0.70405 0.0
O204 O 0.23259 0.92972 0.66349 0.0
C205 C 0.20174 0.88111 0.6966 0.0
O206 O 0.23318 0.84485 0.64353 0.0
C207 C 0.24706 0.93021 0.68015 0.0
O208 O 0.25442 0.86807 0.65269 0.0
O209 O 0.25487 0.91414 0.68641 0.0
C210 C 0.09881 0.21626 0.59385 0.0
O211 O 0.11306 0.20547 0.6002 0.0
Cd212 Cd 0.12678 0.1994 0.64561 0.0
O213 O 0.08977 0.22573 0.6131 0.0
Cd214 Cd 0.09263 0.22854 0.66634 0.0
C215 C 0.13839 0.24636 0.66231 0.0
O216 O 0.09853 0.1945 0.67312 0.0
O217 O 0.10252 0.21134 0.71091 0.0
O218 O 0.05746 0.232 0.66826 0.0
C219 C 0.10236 0.19476 0.69941 0.0
O220 O 0.14404 0.22909 0.65786 0.0
C221 C 0.05758 0.24531 0.68695 0.0
O222 O 0.12044 0.25038 0.66419 0.0
O223 O 0.07402 0.25129 0.69519 0.0
C224 C 0.71465 0.5982 0.5956 0.0
O225 O 0.70412 0.61287 0.60069 0.0
Cd226 Cd 0.69987 0.62923 0.64454 0.0
O227 O 0.72433 0.59 0.61541 0.0
Cd228 Cd 0.72823 0.59374 0.66827 0.0
C229 C 0.74827 0.63823 0.65947 0.0
O230 O 0.69499 0.60246 0.67478 0.0
O231 O 0.71179 0.60466 0.71295 0.0
O232 O 0.72876 0.55859 0.66885 0.0
C233 C 0.69546 0.60652 0.70098 0.0
O234 O 0.73136 0.64419 0.65303 0.0
C235 C 0.74217 0.55716 0.68725 0.0
O236 O 0.7514 0.62045 0.66494 0.0
O237 O 0.74951 0.57283 0.69635 0.0
C238 C 0.395 0.71518 0.59369 0.0
O239 O 0.3808 0.704 0.5987 0.0
Cd240 Cd 0.3646 0.69872 0.64267 0.0
O241 O 0.40274 0.72514 0.61357 0.0
Cd242 Cd 0.39827 0.72873 0.6662 0.0
C243 C 0.35282 0.74634 0.65661 0.0
O244 O 0.39133 0.69509 0.67343 0.0
O245 O 0.38714 0.71238 0.71076 0.0
O246 O 0.43331 0.7317 0.66918 0.0
C247 C 0.38663 0.69576 0.6994 0.0
O248 O 0.34739 0.72904 0.65167 0.0
C249 C 0.43314 0.74553 0.68703 0.0
O250 O 0.37059 0.75035 0.6608 0.0
O251 O 0.41668 0.75189 0.69464 0.0
C252 C 0.27388 0.39136 0.59622 0.0
O253 O 0.28503 0.37739 0.60254 0.0
Cd254 Cd 0.28877 0.36227 0.64759 0.0
O255 O 0.2633 0.39935 0.61521 0.0
Cd256 Cd 0.25855 0.39582 0.66801 0.0
C257 C 0.24096 0.35031 0.66022 0.0
O258 O 0.29219 0.38931 0.6782 0.0
O259 O 0.27327 0.38564 0.71398 0.0
O260 O 0.25616 0.43091 0.66926 0.0
C261 C 0.29039 0.38528 0.70433 0.0
O262 O 0.2583 0.34508 0.65508 0.0
C263 C 0.24197 0.43141 0.68647 0.0
O264 O 0.23681 0.36803 0.66448 0.0
O265 O 0.23502 0.41528 0.69437 0.0
C266 C 0.58822 0.27362 0.59928 0.0
O267 O 0.60107 0.2857 0.60677 0.0
Cd268 Cd 0.61722 0.28628 0.6513 0.0
O269 O 0.58157 0.26117 0.61684 0.0
Cd270 Cd 0.58524 0.25492 0.66925 0.0
C271 C 0.62987 0.23775 0.6569 0.0
O272 O 0.5917 0.28775 0.68464 0.0
O273 O 0.60018 0.2659 0.71446 0.0
O274 O 0.55017 0.25401 0.67233 0.0
C275 C 0.59863 0.28376 0.70885 0.0
O276 O 0.63476 0.25547 0.65472 0.0
C277 C 0.54936 0.23937 0.68863 0.0
O278 O 0.61221 0.23297 0.6604 0.0
O279 O 0.56532 0.23139 0.69515 0.0
C280 C 0.71793 0.3978 0.88487 0.0
O281 O 0.70499 0.38482 0.88321 0.0
Cd282 Cd 0.70101 0.36467 0.84268 0.0
O283 O 0.72816 0.40236 0.86326 0.0
Cd284 Cd 0.72849 0.39511 0.81109 0.0
C285 C 0.749 0.35275 0.82832 0.0
O286 O 0.69467 0.38654 0.80489 0.0
O287 O 0.71359 0.37731 0.77119 0.0
O288 O 0.72782 0.42983 0.80456 0.0
C289 C 0.69649 0.37837 0.78092 0.0
O290 O 0.73218 0.34787 0.83695 0.0
C291 C 0.74091 0.43037 0.78558 0.0
O292 O 0.75216 0.36965 0.81858 0.0
O293 O 0.74852 0.41436 0.77841 0.0
C294 C 0.59102 0.72245 0.88808 0.0
O295 O 0.60504 0.71085 0.88437 0.0
Cd296 Cd 0.62348 0.70639 0.84215 0.0
O297 O 0.58458 0.73298 0.86786 0.0
Cd298 Cd 0.59106 0.73639 0.81563 0.0
C299 C 0.63593 0.75413 0.82839 0.0
O300 O 0.5982 0.70264 0.80896 0.0
O301 O 0.60373 0.72005 0.77209 0.0
O302 O 0.55612 0.73847 0.81178 0.0
C303 C 0.60374 0.70339 0.78335 0.0
O304 O 0.64086 0.73683 0.83442 0.0
C305 C 0.55602 0.75158 0.79283 0.0
O306 O 0.61842 0.75831 0.82244 0.0
O307 O 0.57235 0.75818 0.785 0.0
C308 C 0.27272 0.58948 0.88584 0.0
O309 O 0.2844 0.60341 0.8819 0.0
Cd310 Cd 0.28898 0.6217 0.83958 0.0
O311 O 0.26211 0.58299 0.86574 0.0
Cd312 Cd 0.25872 0.58924 0.81344 0.0
C313 C 0.24122 0.6342 0.82635 0.0
O314 O 0.29247 0.5963 0.80656 0.0
O315 O 0.27504 0.60169 0.76968 0.0
O316 O 0.2559 0.55437 0.80915 0.0
C317 C 0.29171 0.6018 0.78094 0.0
O318 O 0.25854 0.63924 0.8321 0.0
C319 C 0.2425 0.55472 0.79061 0.0
O320 O 0.23708 0.61669 0.82054 0.0
O321 O 0.23621 0.57123 0.78317 0.0
C322 C 0.38827 0.25924 0.89473 0.0
O323 O 0.37303 0.26946 0.89306 0.0
Cd324 Cd 0.35772 0.28113 0.85078 0.0
O325 O 0.39703 0.25329 0.87246 0.0
Cd326 Cd 0.39129 0.25487 0.82003 0.0
C327 C 0.34541 0.23655 0.82484 0.0
O328 O 0.38368 0.28919 0.81963 0.0
O329 O 0.38116 0.27481 0.77922 0.0
O330 O 0.42635 0.2525 0.81549 0.0
C331 C 0.37981 0.29036 0.79332 0.0
O332 O 0.34015 0.25295 0.83444 0.0
C333 C 0.42606 0.2402 0.79537 0.0
O334 O 0.36315 0.23304 0.8194 0.0
O335 O 0.40955 0.23433 0.78719 0.0
C336 C 0.27457 0.39953 0.38843 0.0
O337 O 0.28677 0.38601 0.38491 0.0
Cd338 Cd 0.29187 0.36783 0.34271 0.0
O339 O 0.26418 0.40574 0.36788 0.0
Cd340 Cd 0.26242 0.39981 0.3151 0.0
C341 C 0.24446 0.35498 0.3275 0.0
O342 O 0.29647 0.39297 0.3092 0.0
O343 O 0.27934 0.3874 0.27202 0.0
O344 O 0.25999 0.43474 0.31058 0.0
C345 C 0.29594 0.38759 0.28349 0.0
O346 O 0.26148 0.35019 0.3353 0.0
C347 C 0.24686 0.43449 0.29164 0.0
O348 O 0.24066 0.37227 0.31998 0.0
O349 O 0.2405 0.41803 0.28413 0.0
C350 C 0.60291 0.27476 0.39019 0.0
O351 O 0.6174 0.28512 0.38349 0.0
Cd352 Cd 0.63141 0.28854 0.33754 0.0
O353 O 0.59411 0.26473 0.37137 0.0
Cd354 Cd 0.59747 0.25956 0.31879 0.0
C355 C 0.64251 0.24078 0.32562 0.0
O356 O 0.60382 0.2932 0.30818 0.0
O357 O 0.60801 0.27408 0.27277 0.0
O358 O 0.56233 0.25728 0.31791 0.0
C359 C 0.60772 0.29129 0.28203 0.0
O360 O 0.64836 0.25811 0.32887 0.0
C361 C 0.56174 0.24329 0.30039 0.0
O362 O 0.62454 0.23702 0.32336 0.0
O363 O 0.57784 0.23638 0.29222 0.0
C364 C 0.71726 0.59044 0.38935 0.0
O365 O 0.70569 0.60454 0.38608 0.0
Cd366 Cd 0.70094 0.62333 0.3442 0.0
O367 O 0.72751 0.58402 0.3688 0.0
Cd368 Cd 0.73028 0.59068 0.31667 0.0
C369 C 0.74874 0.63513 0.33029 0.0
O370 O 0.6966 0.59851 0.3104 0.0
O371 O 0.71406 0.60383 0.27346 0.0
O372 O 0.732 0.55582 0.31183 0.0
C373 C 0.69743 0.60419 0.28485 0.0
O374 O 0.73158 0.64044 0.33647 0.0
C375 C 0.74538 0.55587 0.29325 0.0
O376 O 0.7525 0.6176 0.32398 0.0
O377 O 0.75218 0.57221 0.286 0.0
C378 C 0.39694 0.72408 0.38762 0.0
O379 O 0.38263 0.71272 0.38466 0.0
Cd380 Cd 0.36397 0.70765 0.34276 0.0
O381 O 0.4035 0.734 0.36683 0.0
Cd382 Cd 0.3966 0.73675 0.31473 0.0
C383 C 0.35195 0.75519 0.32749 0.0
O384 O 0.38899 0.70296 0.30928 0.0
O385 O 0.38388 0.7199 0.27177 0.0
O386 O 0.43154 0.73858 0.31055 0.0
C387 C 0.38356 0.70343 0.2836 0.0
O388 O 0.3468 0.73807 0.33412 0.0
C389 C 0.43164 0.75144 0.29123 0.0
O390 O 0.36949 0.75904 0.32124 0.0
O391 O 0.41533 0.758 0.28328 0.0
C392 C 0.27595 0.59724 0.0928 0.0
O393 O 0.28641 0.6119 0.09827 0.0
Cd394 Cd 0.29042 0.62807 0.14249 0.0
O395 O 0.26603 0.58901 0.11232 0.0
Cd396 Cd 0.26139 0.59331 0.16485 0.0
C397 C 0.24219 0.63808 0.1551 0.0
O398 O 0.29469 0.60146 0.17329 0.0
O399 O 0.27656 0.605 0.20993 0.0
O400 O 0.26006 0.55819 0.16746 0.0
C401 C 0.29338 0.60604 0.19925 0.0
O402 O 0.25937 0.64408 0.15066 0.0
C403 C 0.24619 0.55759 0.18523 0.0
O404 O 0.23872 0.62018 0.15906 0.0
O405 O 0.23893 0.57366 0.19285 0.0
C406 C 0.40205 0.27007 0.09832 0.0
O407 O 0.38946 0.28332 0.10114 0.0
Cd408 Cd 0.37238 0.29089 0.14384 0.0
O409 O 0.40806 0.26038 0.11971 0.0
Cd410 Cd 0.40402 0.26129 0.17271 0.0
C411 C 0.35844 0.24458 0.16413 0.0
O412 O 0.39771 0.29558 0.17691 0.0
O413 O 0.39274 0.27929 0.21513 0.0
O414 O 0.43895 0.25819 0.17661 0.0
C415 C 0.39254 0.29558 0.20277 0.0
O416 O 0.35406 0.26142 0.15508 0.0
C417 C 0.43851 0.24516 0.19569 0.0
O418 O 0.37576 0.2404 0.17103 0.0
O419 O 0.42194 0.23924 0.20358 0.0
C420 C 0.72684 0.39355 0.08832 0.0
O421 O 0.71698 0.37812 0.09056 0.0
Cd422 Cd 0.70582 0.36296 0.13331 0.0
O423 O 0.73271 0.40276 0.1102 0.0
Cd424 Cd 0.73154 0.39779 0.16263 0.0
C425 C 0.75108 0.35246 0.15868 0.0
O426 O 0.69755 0.38907 0.16384 0.0
O427 O 0.7122 0.38769 0.20416 0.0
O428 O 0.73291 0.43285 0.16634 0.0
C429 C 0.69665 0.38547 0.19025 0.0
O430 O 0.73469 0.34656 0.14981 0.0
C431 C 0.7457 0.43308 0.18579 0.0
O432 O 0.75413 0.37037 0.16332 0.0
O433 O 0.75223 0.41684 0.19402 0.0
C434 C 0.59482 0.71577 0.09489 0.0
O435 O 0.60922 0.70495 0.10034 0.0
Cd436 Cd 0.62525 0.70069 0.1446 0.0
O437 O 0.58678 0.72581 0.11444 0.0
Cd438 Cd 0.59089 0.73016 0.16706 0.0
C439 C 0.63587 0.74881 0.15708 0.0
O440 O 0.5984 0.69674 0.17514 0.0
O441 O 0.60217 0.71449 0.2121 0.0
O442 O 0.55578 0.73235 0.16942 0.0
C443 C 0.60292 0.69775 0.20115 0.0
O444 O 0.64164 0.73159 0.15239 0.0
C445 C 0.55548 0.74631 0.18703 0.0
O446 O 0.61804 0.75244 0.16146 0.0
O447 O 0.57172 0.7531 0.1948 0.0
H448 H 0.32162 0.24633 0.1433 0.0
H449 H 0.36068 0.20903 0.1898 0.0
H450 H 0.29663 0.22173 0.14587 0.0
H451 H 0.33533 0.18455 0.19323 0.0
H452 H 0.29188 0.13772 0.16236 0.0
H453 H 0.31771 0.16179 0.1645 0.0
H454 H 0.27514 0.20665 0.17847 0.0
H455 H 0.24944 0.18277 0.17526 0.0
C456 C 0.32482 0.23294 0.15434 0.0
C457 C 0.34315 0.22966 0.16634 0.0
C458 C 0.31042 0.21886 0.156 0.0
C459 C 0.3139 0.20119 0.16996 0.0
C460 C 0.33223 0.19791 0.18208 0.0
C461 C 0.34672 0.21198 0.18022 0.0
C462 C 0.28811 0.1527 0.16621 0.0
C463 C 0.26863 0.1584 0.16828 0.0
C464 C 0.3029 0.1665 0.16753 0.0
C465 C 0.29849 0.18621 0.17124 0.0
C466 C 0.27904 0.19168 0.17481 0.0
C467 C 0.2643 0.17796 0.17316 0.0
H468 H 0.81976 0.24842 0.18055 0.0
H469 H 0.86127 0.29206 0.15573 0.0
H470 H 0.79448 0.27281 0.18231 0.0
H471 H 0.83573 0.31644 0.15649 0.0
H472 H 0.78735 0.35838 0.18107 0.0
H473 H 0.81344 0.33472 0.18578 0.0
H474 H 0.77661 0.29102 0.14836 0.0
H475 H 0.75056 0.31429 0.14452 0.0
C476 C 0.82348 0.26323 0.17537 0.0
C477 C 0.84247 0.26828 0.16769 0.0
C478 C 0.80896 0.27722 0.17628 0.0
C479 C 0.81301 0.29655 0.16919 0.0
C480 C 0.83214 0.30172 0.16232 0.0
C481 C 0.84676 0.28773 0.16169 0.0
C482 C 0.78483 0.34369 0.17406 0.0
C483 C 0.76686 0.33823 0.16248 0.0
C484 C 0.7998 0.33015 0.1766 0.0
C485 C 0.7971 0.31095 0.16754 0.0
C486 C 0.77909 0.30556 0.1561 0.0
C487 C 0.76416 0.31899 0.15373 0.0
H488 H 0.62871 0.78781 0.15646 0.0
H489 H 0.67524 0.74601 0.15593 0.0
H490 H 0.65228 0.81395 0.15223 0.0
H491 H 0.69871 0.77205 0.15256 0.0
H492 H 0.73467 0.81964 0.11494 0.0
H493 H 0.70964 0.79507 0.1181 0.0
H494 H 0.67779 0.8308 0.17745 0.0
H495 H 0.70267 0.85576 0.17361 0.0
C496 C 0.64396 0.7842 0.15574 0.0
C497 C 0.65009 0.76481 0.15633 0.0
C498 C 0.65747 0.79919 0.15341 0.0
C499 C 0.67738 0.79509 0.15175 0.0
C500 C 0.68347 0.77571 0.1531 0.0
C501 C 0.67 0.76076 0.15524 0.0
C502 C 0.72227 0.82235 0.12853 0.0
C503 C 0.72073 0.83961 0.14417 0.0
C504 C 0.70797 0.80818 0.1305 0.0
C505 C 0.69184 0.81083 0.14836 0.0
C506 C 0.68997 0.82835 0.16336 0.0
C507 C 0.70425 0.84263 0.16122 0.0
H508 H 0.20333 0.6307 0.15105 0.0
H509 H 0.24462 0.67736 0.15872 0.0
H510 H 0.17703 0.65416 0.14857 0.0
H511 H 0.21837 0.70071 0.15737 0.0
H512 H 0.1704 0.73878 0.12467 0.0
H513 H 0.19577 0.71441 0.12535 0.0
H514 H 0.15917 0.67701 0.17593 0.0
H515 H 0.13349 0.70113 0.17426 0.0
C516 C 0.20677 0.64595 0.15251 0.0
C517 C 0.22607 0.65217 0.15494 0.0
C518 C 0.19169 0.65941 0.15121 0.0
C519 C 0.19556 0.67936 0.15259 0.0
C520 C 0.21486 0.6855 0.15557 0.0
C521 C 0.22993 0.67208 0.15656 0.0
C522 C 0.16772 0.72532 0.13582 0.0
C523 C 0.14995 0.72192 0.14947 0.0
C524 C 0.18233 0.71138 0.13639 0.0
C525 C 0.17962 0.69379 0.15094 0.0
C526 C 0.1617 0.69028 0.16424 0.0
C527 C 0.147 0.70416 0.1634 0.0
H528 H 0.28452 0.86036 0.30062 0.0
H529 H 0.24856 0.8242 0.35395 0.0
H530 H 0.30969 0.83566 0.30101 0.0
H531 H 0.27397 0.79991 0.35544 0.0
H532 H 0.31272 0.75117 0.32638 0.0
H533 H 0.28838 0.77648 0.32605 0.0
H534 H 0.33347 0.81982 0.3289 0.0
H535 H 0.3579 0.79436 0.32796 0.0
C536 C 0.2821 0.84724 0.31274 0.0
C537 C 0.2645 0.84417 0.32708 0.0
C538 C 0.29657 0.8331 0.31309 0.0
C539 C 0.29386 0.81568 0.3281 0.0
C540 C 0.27642 0.81291 0.34308 0.0
C541 C 0.26187 0.82691 0.3424 0.0
C542 C 0.31746 0.7661 0.32692 0.0
C543 C 0.33725 0.77075 0.32723 0.0
C544 C 0.30347 0.78065 0.32694 0.0
C545 C 0.3089 0.80025 0.32769 0.0
C546 C 0.32873 0.8049 0.32795 0.0
C547 C 0.34276 0.79031 0.32755 0.0
H548 H 0.2448 0.31951 0.35305 0.0
H549 H 0.20902 0.35709 0.30164 0.0
H550 H 0.21933 0.29526 0.35311 0.0
H551 H 0.18379 0.33249 0.30069 0.0
H552 H 0.13498 0.29226 0.3281 0.0
H553 H 0.1601 0.31697 0.32919 0.0
H554 H 0.20393 0.2725 0.32328 0.0
H555 H 0.17886 0.24783 0.32337 0.0
C556 C 0.23155 0.32253 0.34154 0.0
C557 C 0.22895 0.34023 0.32732 0.0
C558 C 0.21696 0.30856 0.34143 0.0
C559 C 0.19949 0.31183 0.3268 0.0
C560 C 0.19691 0.32956 0.31255 0.0
C561 C 0.21143 0.34364 0.31295 0.0
C562 C 0.14999 0.28778 0.32706 0.0
C563 C 0.15492 0.26808 0.32574 0.0
C564 C 0.16441 0.30196 0.32751 0.0
C565 C 0.18409 0.29677 0.32633 0.0
C566 C 0.18897 0.27705 0.32477 0.0
C567 C 0.17457 0.26288 0.32465 0.0
H568 H 0.70895 0.13379 0.30538 0.0
H569 H 0.7436 0.17101 0.35902 0.0
H570 H 0.68393 0.1587 0.30306 0.0
H571 H 0.71848 0.19553 0.35741 0.0
H572 H 0.63572 0.20173 0.32827 0.0
H573 H 0.65966 0.1758 0.3305 0.0
H574 H 0.70559 0.21798 0.32371 0.0
H575 H 0.68181 0.24382 0.32235 0.0
C576 C 0.71113 0.14718 0.31694 0.0
C577 C 0.72834 0.15047 0.33219 0.0
C578 C 0.69676 0.16143 0.31569 0.0
C579 C 0.69928 0.17921 0.32979 0.0
C580 C 0.71625 0.1822 0.34573 0.0
C581 C 0.73062 0.16806 0.34681 0.0
C582 C 0.65094 0.20544 0.32717 0.0
C583 C 0.65685 0.22486 0.32535 0.0
C584 C 0.66465 0.19057 0.32833 0.0
C585 C 0.68455 0.19481 0.32757 0.0
C586 C 0.6904 0.21421 0.32502 0.0
C587 C 0.67674 0.22905 0.32405 0.0
H588 H 0.78768 0.6285 0.33396 0.0
H589 H 0.74544 0.67437 0.32771 0.0
H590 H 0.81355 0.6524 0.3361 0.0
H591 H 0.77126 0.69823 0.32844 0.0
H592 H 0.81906 0.73762 0.35764 0.0
H593 H 0.79404 0.71289 0.35842 0.0
H594 H 0.83087 0.67508 0.30881 0.0
H595 H 0.85623 0.69953 0.3093 0.0
C596 C 0.78395 0.64369 0.33275 0.0
C597 C 0.76453 0.64956 0.33076 0.0
C598 C 0.79879 0.65741 0.33383 0.0
C599 C 0.79456 0.6773 0.33253 0.0
C600 C 0.77509 0.68309 0.33016 0.0
C601 C 0.76026 0.6694 0.32952 0.0
C602 C 0.82184 0.72397 0.34705 0.0
C603 C 0.8396 0.72053 0.33337 0.0
C604 C 0.80743 0.70982 0.34729 0.0
C605 C 0.8103 0.69199 0.33344 0.0
C606 C 0.8282 0.68849 0.32005 0.0
C607 C 0.84274 0.70255 0.3202 0.0
H608 H 0.74016 0.82109 0.85756 0.0
H609 H 0.70532 0.85853 0.80457 0.0
H610 H 0.71432 0.79727 0.85801 0.0
H611 H 0.67968 0.83428 0.80395 0.0
H612 H 0.63057 0.79339 0.82962 0.0
H613 H 0.65539 0.81847 0.83123 0.0
H614 H 0.69982 0.77447 0.82762 0.0
H615 H 0.67509 0.74954 0.82724 0.0
C616 C 0.72699 0.82419 0.84585 0.0
C617 C 0.72482 0.84166 0.83092 0.0
C618 C 0.7122 0.81045 0.84594 0.0
C619 C 0.69495 0.8137 0.83075 0.0
C620 C 0.69266 0.83135 0.81616 0.0
C621 C 0.70739 0.84522 0.81639 0.0
C622 C 0.64565 0.78912 0.82918 0.0
C623 C 0.65086 0.76947 0.82847 0.0
C624 C 0.6599 0.80349 0.82996 0.0
C625 C 0.67966 0.79854 0.82973 0.0
C626 C 0.68478 0.77886 0.82852 0.0
C627 C 0.67058 0.76453 0.82811 0.0
H628 H 0.17311 0.7378 0.85518 0.0
H629 H 0.13513 0.70128 0.80565 0.0
H630 H 0.19756 0.71254 0.85517 0.0
H631 H 0.15995 0.67624 0.80447 0.0
H632 H 0.2021 0.62839 0.82958 0.0
H633 H 0.17673 0.65283 0.83162 0.0
H634 H 0.22002 0.69776 0.82461 0.0
H635 H 0.24533 0.67338 0.8239 0.0
C636 C 0.17004 0.72439 0.84413 0.0
C637 C 0.15221 0.72155 0.83035 0.0
C638 C 0.18412 0.70993 0.84394 0.0
C639 C 0.18086 0.69236 0.82958 0.0
C640 C 0.16291 0.68946 0.81606 0.0
C641 C 0.14869 0.70385 0.81661 0.0
C642 C 0.20617 0.6435 0.82848 0.0
C643 C 0.22573 0.64895 0.82671 0.0
C644 C 0.19161 0.65753 0.8295 0.0
C645 C 0.19627 0.67733 0.8284 0.0
C646 C 0.21586 0.6827 0.82618 0.0
C647 C 0.2304 0.6687 0.82556 0.0
H648 H 0.3487 0.20219 0.79585 0.0
H649 H 0.30863 0.2364 0.84555 0.0
H650 H 0.32404 0.17713 0.79048 0.0
H651 H 0.28445 0.21124 0.84126 0.0
H652 H 0.23831 0.17126 0.81076 0.0
H653 H 0.26294 0.19636 0.80929 0.0
H654 H 0.30759 0.15283 0.81696 0.0
H655 H 0.28292 0.12768 0.81711 0.0
C656 C 0.33467 0.20433 0.80569 0.0
C657 C 0.33061 0.22131 0.82104 0.0
C658 C 0.32056 0.18994 0.80275 0.0
C659 C 0.30219 0.19216 0.81534 0.0
C660 C 0.29823 0.20917 0.83069 0.0
C661 C 0.3122 0.22359 0.83334 0.0
C662 C 0.25339 0.16705 0.81194 0.0
C663 C 0.25866 0.14751 0.81427 0.0
C664 C 0.26754 0.18145 0.81125 0.0
C665 C 0.28729 0.17668 0.81336 0.0
C666 C 0.29256 0.15706 0.81496 0.0
C667 C 0.2784 0.14262 0.81523 0.0
H668 H 0.85961 0.29123 0.83158 0.0
H669 H 0.81567 0.2468 0.82794 0.0
H670 H 0.83443 0.31596 0.83268 0.0
H671 H 0.79063 0.27143 0.82799 0.0
H672 H 0.78463 0.35505 0.80291 0.0
H673 H 0.81038 0.33096 0.80349 0.0
H674 H 0.77548 0.29447 0.85796 0.0
H675 H 0.74953 0.31819 0.8565 0.0
C676 C 0.84459 0.28674 0.83088 0.0
C677 C 0.83966 0.26704 0.82979 0.0
C678 C 0.83015 0.30093 0.83134 0.0
C679 C 0.81047 0.29572 0.83049 0.0
C680 C 0.8056 0.27599 0.82925 0.0
C681 C 0.82 0.26184 0.82905 0.0
C682 C 0.78248 0.34189 0.81505 0.0
C683 C 0.76498 0.33849 0.82951 0.0
C684 C 0.7973 0.32812 0.81553 0.0
C685 C 0.79501 0.3107 0.83068 0.0
C686 C 0.77762 0.30752 0.84559 0.0
C687 C 0.76276 0.32119 0.84488 0.0
H688 H 0.66891 0.2427 0.66067 0.0
H689 H 0.62516 0.19863 0.65003 0.0
H690 H 0.694 0.21818 0.65865 0.0
H691 H 0.65042 0.17402 0.64689 0.0
H692 H 0.7004 0.13353 0.67315 0.0
H693 H 0.6742 0.1572 0.6743 0.0
H694 H 0.70963 0.19722 0.62635 0.0
H695 H 0.73596 0.17393 0.62623 0.0
C696 C 0.66465 0.22777 0.65762 0.0
C697 C 0.64503 0.22264 0.65544 0.0
C698 C 0.67907 0.21368 0.65626 0.0
C699 C 0.67429 0.19409 0.65235 0.0
C700 C 0.65463 0.18893 0.65023 0.0
C701 C 0.64015 0.20305 0.65188 0.0
C702 C 0.70253 0.14737 0.66277 0.0
C703 C 0.72031 0.15192 0.64983 0.0
C704 C 0.68748 0.16091 0.66329 0.0
C705 C 0.68983 0.17922 0.65064 0.0
C706 C 0.70744 0.18347 0.63693 0.0
C707 C 0.72252 0.17005 0.6367 0.0
H708 H 0.78492 0.63313 0.68088 0.0
H709 H 0.74814 0.67523 0.63955 0.0
H710 H 0.81101 0.65694 0.68297 0.0
H711 H 0.77424 0.69864 0.64075 0.0
H712 H 0.81595 0.74296 0.67344 0.0
H713 H 0.79099 0.71828 0.67403 0.0
H714 H 0.83379 0.67473 0.65399 0.0
H715 H 0.85902 0.69949 0.6544 0.0
C716 C 0.78244 0.64739 0.67208 0.0
C717 C 0.7644 0.65231 0.66025 0.0
C718 C 0.79742 0.66101 0.67315 0.0
C719 C 0.79469 0.67977 0.66225 0.0
C720 C 0.77674 0.6845 0.64997 0.0
C721 C 0.76177 0.671 0.64912 0.0
C722 C 0.82009 0.72812 0.66921 0.0
C723 C 0.83946 0.72322 0.66364 0.0
C724 C 0.80574 0.71396 0.6694 0.0
C725 C 0.81032 0.69453 0.66369 0.0
C726 C 0.82977 0.68953 0.6587 0.0
C727 C 0.84422 0.70373 0.65878 0.0
H728 H 0.24962 0.81396 0.62577 0.0
H729 H 0.28674 0.85376 0.6711 0.0
H730 H 0.27474 0.78942 0.62779 0.0
H731 H 0.31166 0.82887 0.67428 0.0
H732 H 0.35901 0.78523 0.65099 0.0
H733 H 0.33474 0.81075 0.6481 0.0
H734 H 0.28953 0.76832 0.6605 0.0
H735 H 0.3137 0.74282 0.66211 0.0
C736 C 0.26313 0.81743 0.63632 0.0
C737 C 0.26618 0.83578 0.64834 0.0
C738 C 0.27751 0.80329 0.63768 0.0
C739 C 0.29519 0.80704 0.65149 0.0
C740 C 0.29832 0.82552 0.6632 0.0
C741 C 0.28401 0.83978 0.66149 0.0
C742 C 0.34388 0.7814 0.65319 0.0
C743 C 0.33826 0.762 0.65659 0.0
C744 C 0.32996 0.79604 0.65166 0.0
C745 C 0.31013 0.79162 0.65385 0.0
C746 C 0.30461 0.77224 0.65801 0.0
C747 C 0.31849 0.7576 0.65915 0.0
H748 H 0.13264 0.28537 0.65695 0.0
H749 H 0.1771 0.24264 0.67212 0.0
H750 H 0.15713 0.31076 0.65682 0.0
H751 H 0.20143 0.268 0.67321 0.0
H752 H 0.24263 0.31341 0.64005 0.0
H753 H 0.21754 0.28887 0.64143 0.0
H754 H 0.17941 0.3288 0.68485 0.0
H755 H 0.20439 0.3537 0.68236 0.0
C756 C 0.14761 0.28143 0.66066 0.0
C757 C 0.15296 0.26198 0.66431 0.0
C758 C 0.16165 0.29601 0.66072 0.0
C759 C 0.18132 0.29145 0.66476 0.0
C760 C 0.18651 0.27203 0.66932 0.0
C761 C 0.17253 0.25747 0.6689 0.0
C762 C 0.2289 0.31697 0.6499 0.0
C763 C 0.22552 0.3355 0.66115 0.0
C764 C 0.21452 0.30283 0.65088 0.0
C765 C 0.19646 0.30675 0.66349 0.0
C766 C 0.19305 0.32533 0.67468 0.0
C767 C 0.2074 0.33958 0.67338 0.0
H768 H 0.22469 0.06884 0.06861 0.0
H769 H 0.24148 0.12672 0.04453 0.0
H770 H 0.22568 0.05901 0.01818 0.0
H771 H 0.24326 0.11671 -0.00543 0.0
H772 H 0.2542 0.08805 0.9084 0.0
H773 H 0.26135 0.08698 0.95974 0.0
H774 H 0.20061 0.07908 0.97773 0.0
H775 H 0.19339 0.08097 0.92672 0.0
C776 C 0.22922 0.07922 0.05264 0.0
C777 C 0.23289 0.09853 0.06019 0.0
C778 C 0.22981 0.07361 0.02396 0.0
C779 C 0.23472 0.0871 0.00279 0.0
C780 C 0.23972 0.10602 0.01066 0.0
C781 C 0.23856 0.11177 0.03911 0.0
C782 C 0.24252 0.08543 0.92333 0.0
C783 C 0.22326 0.08466 0.91386 0.0
C784 C 0.2466 0.08483 0.95255 0.0
C785 C 0.23151 0.08284 0.9724 0.0
C786 C 0.21247 0.08036 0.9627 0.0
C787 C 0.20834 0.08154 0.93364 0.0
H788 H 0.90487 0.18682 0.92125 0.0
H789 H 0.90612 0.2492 0.91953 0.0
H790 H 0.9093 0.18725 0.97274 0.0
H791 H 0.90968 0.24974 0.97157 0.0
H792 H 0.92106 0.24208 0.06813 0.0
H793 H 0.92725 0.24156 0.01654 0.0
H794 H 0.88491 0.19603 0.00699 0.0
H795 H 0.87907 0.19624 0.05769 0.0
C796 C 0.90644 0.20063 0.93194 0.0
C797 C 0.90487 0.21797 0.91664 0.0
C798 C 0.90887 0.2009 0.96141 0.0
C799 C 0.90928 0.21853 0.9763 0.0
C800 C 0.9094 0.23593 0.9607 0.0
C801 C 0.90732 0.23564 0.93096 0.0
C802 C 0.91325 0.23187 0.05494 0.0
C803 C 0.89958 0.2192 0.06706 0.0
C804 C 0.91676 0.23161 0.02545 0.0
C805 C 0.90677 0.21858 0.00774 0.0
C806 C 0.89324 0.20591 0.02004 0.0
C807 C 0.88974 0.20618 0.04922 0.0
H808 H 0.8038 0.8984 0.92701 0.0
H809 H 0.74623 0.92021 0.91092 0.0
H810 H 0.80109 0.90753 0.97653 0.0
H811 H 0.74353 0.9298 0.96119 0.0
H812 H 0.73944 0.90256 0.05514 0.0
H813 H 0.73992 0.9102 0.00429 0.0
H814 H 0.79847 0.93156 0.01269 0.0
H815 H 0.79817 0.92284 0.06317 0.0
C816 C 0.79067 0.90556 0.934 0.0
C817 C 0.7751 0.90828 0.91524 0.0
C818 C 0.78919 0.91106 0.96243 0.0
C819 C 0.77206 0.91941 0.97294 0.0
C820 C 0.75687 0.92329 0.95376 0.0
C821 C 0.75843 0.91787 0.92502 0.0
C822 C 0.75207 0.90961 0.04621 0.0
C823 C 0.76882 0.91201 0.06267 0.0
C824 C 0.75237 0.91406 0.01711 0.0
C825 C 0.76942 0.92107 0.00429 0.0
C826 C 0.78529 0.92573 0.0218 0.0
C827 C 0.78511 0.9209 0.05068 0.0
H828 H 0.07257 0.74354 0.91347 0.0
H829 H 0.09888 0.79933 0.92833 0.0
H830 H 0.0634 0.74184 0.96404 0.0
H831 H 0.09023 0.79752 0.97809 0.0
H832 H 0.07137 0.79767 0.06399 0.0
H833 H 0.06511 0.79769 0.01281 0.0
H834 H 0.08172 0.73747 0.00855 0.0
H835 H 0.08685 0.73732 0.06022 0.0
C836 C 0.0761 0.75554 0.92738 0.0
C837 C 0.08664 0.77147 0.91703 0.0
C838 C 0.07093 0.75453 0.95629 0.0
C839 C 0.07601 0.76955 0.97512 0.0
C840 C 0.0857 0.78583 0.96423 0.0
C841 C 0.09092 0.78677 0.93564 0.0
C842 C 0.07292 0.78428 0.05219 0.0
C843 C 0.07973 0.76756 0.06571 0.0
C844 C 0.06948 0.78429 0.02291 0.0
C845 C 0.07348 0.76774 0.00648 0.0
C846 C 0.07847 0.75045 0.02055 0.0
C847 C 0.08147 0.75035 0.0501 0.0
H848 H 0.24626 0.90609 0.41343 0.0
H849 H 0.18456 0.91558 0.41344 0.0
H850 H 0.24679 0.90956 0.46541 0.0
H851 H 0.18511 0.92012 0.46499 0.0
H852 H 0.24119 0.91664 0.56175 0.0
H853 H 0.24141 0.9264 0.51136 0.0
H854 H 0.18879 0.89386 0.49775 0.0
H855 H 0.18839 0.88457 0.5473 0.0
C856 C 0.23299 0.9098 0.42449 0.0
C857 C 0.21532 0.91028 0.40977 0.0
C858 C 0.23327 0.91184 0.45421 0.0
C859 C 0.2159 0.91461 0.46937 0.0
C860 C 0.19865 0.91744 0.45399 0.0
C861 C 0.19832 0.91498 0.42451 0.0
C862 C 0.22955 0.91188 0.54797 0.0
C863 C 0.21487 0.8997 0.55844 0.0
C864 C 0.2297 0.91742 0.51917 0.0
C865 C 0.21504 0.91105 0.50058 0.0
C866 C 0.20009 0.89942 0.51149 0.0
C867 C 0.2 0.89386 0.53996 0.0
H868 H 0.07532 0.24326 0.56759 0.0
H869 H 0.1091 0.19176 0.55152 0.0
H870 H 0.0678 0.24541 0.5164 0.0
H871 H 0.10195 0.19404 0.50132 0.0
H872 H 0.08125 0.1916 0.41592 0.0
H873 H 0.07596 0.19085 0.4673 0.0
H874 H 0.08658 0.25238 0.47156 0.0
H875 H 0.0909 0.25316 0.41961 0.0
C876 C 0.08096 0.23234 0.55326 0.0
C877 C 0.0929 0.21741 0.56357 0.0
C878 C 0.0767 0.2336 0.52403 0.0
C879 C 0.0841 0.21979 0.50486 0.0
C880 C 0.09562 0.20469 0.51549 0.0
C881 C 0.09994 0.20352 0.54436 0.0
C882 C 0.08178 0.20504 0.42778 0.0
C883 C 0.08668 0.22238 0.41412 0.0
C884 C 0.07886 0.20463 0.45715 0.0
C885 C 0.08139 0.22147 0.47355 0.0
C886 C 0.08452 0.23918 0.4595 0.0
C887 C 0.08705 0.23964 0.42983 0.0
H888 H 0.74727 0.07383 0.56678 0.0
H889 H 0.80275 0.10138 0.55411 0.0
H890 H 0.74718 0.06378 0.51651 0.0
H891 H 0.80257 0.0918 0.50467 0.0
H892 H 0.80544 0.0731 0.41955 0.0
H893 H 0.80411 0.06621 0.47055 0.0
H894 H 0.74354 0.08194 0.47154 0.0
H895 H 0.74477 0.08767 0.42009 0.0
C896 C 0.75956 0.07743 0.55343 0.0
C897 C 0.77489 0.08861 0.56421 0.0
C898 C 0.75948 0.07173 0.52471 0.0
C899 C 0.77488 0.07691 0.50658 0.0
C900 C 0.79062 0.08719 0.51801 0.0
C901 C 0.79061 0.09296 0.54638 0.0
C902 C 0.79169 0.07425 0.43057 0.0
C903 C 0.77526 0.08107 0.41628 0.0
C904 C 0.79092 0.07043 0.45973 0.0
C905 C 0.77387 0.07411 0.47523 0.0
C906 C 0.75689 0.07894 0.46025 0.0
C907 C 0.75757 0.0823 0.43083 0.0
H908 H 0.8791 0.79702 0.55647 0.0
H909 H 0.91894 0.74951 0.56888 0.0
H910 H 0.88573 0.79672 0.50601 0.0
H911 H 0.926 0.74952 0.51753 0.0
H912 H 0.9054 0.80343 0.41994 0.0
H913 H 0.91007 0.80388 0.47141 0.0
H914 H 0.90877 0.74138 0.47284 0.0
H915 H 0.90508 0.74103 0.42087 0.0
C916 C 0.8895 0.78661 0.54848 0.0
C917 C 0.89841 0.77322 0.56678 0.0
C918 C 0.89348 0.78659 0.51944 0.0
C919 C 0.90659 0.77325 0.50772 0.0
C920 C 0.91582 0.75997 0.52596 0.0
C921 C 0.91182 0.76001 0.55532 0.0
C922 C 0.90667 0.7898 0.43121 0.0
C923 C 0.90459 0.77221 0.41668 0.0
C924 C 0.90924 0.79003 0.46066 0.0
C925 C 0.90922 0.77268 0.47629 0.0
C926 C 0.90885 0.755 0.46142 0.0
C927 C 0.90668 0.75478 0.43171 0.0
H928 H 0.6884 0.60479 0.55402 0.0
H929 H 0.74218 0.57487 0.57054 0.0
H930 H 0.69014 0.59566 0.50442 0.0
H931 H 0.74384 0.56537 0.52005 0.0
H932 H 0.7493 0.58834 0.42286 0.0
H933 H 0.74923 0.58379 0.47469 0.0
H934 H 0.68851 0.56889 0.4714 0.0
H935 H 0.6885 0.57445 0.42002 0.0
C936 C 0.70052 0.59602 0.54709 0.0
C937 C 0.71527 0.59073 0.56613 0.0
C938 C 0.70139 0.59054 0.51863 0.0
C939 C 0.71705 0.57962 0.50831 0.0
C940 C 0.7316 0.57378 0.52746 0.0
C941 C 0.73063 0.57917 0.55627 0.0
C942 C 0.73618 0.58342 0.43324 0.0
C943 C 0.71884 0.58196 0.41786 0.0
C944 C 0.73613 0.58075 0.46284 0.0
C945 C 0.71874 0.57643 0.47715 0.0
C946 C 0.702 0.57268 0.46102 0.0
C947 C 0.70198 0.57574 0.43166 0.0
H948 H 0.41571 0.69555 0.41501 0.0
H949 H 0.39741 0.75486 0.42362 0.0
H950 H 0.4228 0.69417 0.46596 0.0
H951 H 0.40358 0.75336 0.47503 0.0
H952 H 0.38993 0.68906 0.55144 0.0
H953 H 0.39757 0.69259 0.50143 0.0
H954 H 0.42391 0.74814 0.51823 0.0
H955 H 0.41592 0.74463 0.56903 0.0
C956 C 0.41377 0.70845 0.42782 0.0
C957 C 0.40596 0.72525 0.41578 0.0
C958 C 0.4177 0.70767 0.45694 0.0
C959 C 0.4133 0.7235 0.4746 0.0
C960 C 0.4072 0.74095 0.46199 0.0
C961 C 0.4036 0.74182 0.43264 0.0
C962 C 0.39758 0.70194 0.54464 0.0
C963 C 0.40211 0.71667 0.56409 0.0
C964 C 0.4022 0.70387 0.51593 0.0
C965 C 0.41145 0.72063 0.50583 0.0
C966 C 0.41674 0.73509 0.52543 0.0
C967 C 0.41223 0.73306 0.55444 0.0
H968 H 0.30279 0.41466 0.42104 0.0
H969 H 0.24185 0.40122 0.42082 0.0
H970 H 0.30183 0.41922 0.47259 0.0
H971 H 0.24095 0.40484 0.47285 0.0
H972 H 0.24656 0.41416 0.56952 0.0
H973 H 0.24559 0.42303 0.51876 0.0
H974 H 0.29931 0.39231 0.50532 0.0
H975 H 0.3004 0.38379 0.55521 0.0
C976 C 0.28907 0.41323 0.43206 0.0
C977 C 0.27244 0.40746 0.41727 0.0
C978 C 0.28852 0.41571 0.46153 0.0
C979 C 0.27144 0.41186 0.47684 0.0
C980 C 0.25431 0.40793 0.46165 0.0
C981 C 0.2548 0.40582 0.43193 0.0
C982 C 0.25825 0.40958 0.55568 0.0
C983 C 0.27349 0.39816 0.56632 0.0
C984 C 0.25766 0.41461 0.52668 0.0
C985 C 0.27245 0.40854 0.50808 0.0
C986 C 0.28788 0.39761 0.51909 0.0
C987 C 0.28839 0.3925 0.54774 0.0
H988 H 0.58179 0.24231 0.56499 0.0
H989 H 0.58188 0.30471 0.56575 0.0
H990 H 0.58083 0.24264 0.51272 0.0
H991 H 0.58009 0.30513 0.51389 0.0
H992 H 0.61604 0.29756 0.43311 0.0
H993 H 0.60686 0.29711 0.48278 0.0
H994 H 0.56564 0.25152 0.46595 0.0
H995 H 0.57516 0.25174 0.41547 0.0
C996 C 0.58082 0.25605 0.55398 0.0
C997 C 0.58226 0.27349 0.56917 0.0
C998 C 0.58025 0.25626 0.5241 0.0
C999 C 0.58089 0.27393 0.50922 0.0
C1000 C 0.58014 0.2913 0.52475 0.0
C1001 C 0.58106 0.29108 0.55441 0.0
C1002 C 0.60493 0.28747 0.43977 0.0
C1003 C 0.59639 0.27464 0.42027 0.0
C1004 C 0.59949 0.28736 0.46831 0.0
C1005 C 0.58531 0.27446 0.47827 0.0
C1006 C 0.5766 0.26164 0.45885 0.0
C1007 C 0.58202 0.2618 0.43 0.0
H1008 H 0.69199 0.40834 0.92531 0.0
H1009 H 0.75329 0.40516 0.90799 0.0
H1010 H 0.69879 0.41446 0.97562 0.0
H1011 H 0.76008 0.41063 0.95874 0.0
H1012 H 0.74563 0.37418 0.04691 0.0
H1013 H 0.74758 0.38293 -0.00351 0.0
H1014 H 0.71862 0.43691 0.01436 0.0
H1015 H 0.71739 0.4284 0.06532 0.0
C1016 C 0.70692 0.40957 0.93219 0.0
C1017 C 0.72213 0.40616 0.91301 0.0
C1018 C 0.71081 0.4132 0.96087 0.0
C1019 C 0.72994 0.41298 0.97089 0.0
C1020 C 0.74523 0.41099 0.95135 0.0
C1021 C 0.74134 0.40787 0.92243 0.0
C1022 C 0.74034 0.3882 0.04014 0.0
C1023 C 0.73136 0.40065 0.05966 0.0
C1024 C 0.74157 0.39327 0.01144 0.0
C1025 C 0.73333 0.41062 0.00173 0.0
C1026 C 0.72524 0.42356 0.02152 0.0
C1027 C 0.72452 0.41871 0.05049 0.0
H1028 H 0.60174 0.68984 0.05291 0.0
H1029 H 0.57223 0.74378 0.06966 0.0
H1030 H 0.59388 0.69249 0.00291 0.0
H1031 H 0.56397 0.74634 0.01884 0.0
H1032 H 0.57477 0.69304 0.91692 0.0
H1033 H 0.56838 0.69187 0.96805 0.0
H1034 H 0.58331 0.7524 0.97494 0.0
H1035 H 0.58871 0.75365 0.9233 0.0
C1036 C 0.59329 0.70217 0.04594 0.0
C1037 C 0.5878 0.71671 0.06518 0.0
C1038 C 0.58855 0.70357 0.01723 0.0
C1039 C 0.57817 0.71958 0.00688 0.0
C1040 C 0.57201 0.73386 0.02623 0.0
C1041 C 0.57668 0.73236 0.05526 0.0
C1042 C 0.57593 0.70622 0.9293 0.0
C1043 C 0.58235 0.72338 0.91655 0.0
C1044 C 0.5724 0.70556 0.95852 0.0
C1045 C 0.57584 0.72191 0.97562 0.0
C1046 C 0.58048 0.73958 0.96234 0.0
C1047 C 0.58363 0.74032 0.93286 0.0
H1048 H 0.24903 0.57334 0.06755 0.0
H1049 H 0.30185 0.60494 0.05102 0.0
H1050 H 0.24745 0.56417 0.01696 0.0
H1051 H 0.30016 0.59614 0.00127 0.0
H1052 H 0.30214 0.57484 0.91656 0.0
H1053 H 0.30254 0.56964 0.968 0.0
H1054 H 0.24133 0.58238 0.97174 0.0
H1055 H 0.24088 0.58659 0.91982 0.0
C1056 C 0.2604 0.57809 0.05325 0.0
C1057 C 0.27547 0.59 0.06318 0.0
C1058 C 0.25946 0.5729 0.02436 0.0
C1059 C 0.27375 0.5793 0.00517 0.0
C1060 C 0.28912 0.5906 0.01551 0.0
C1061 C 0.28996 0.59587 0.04407 0.0
C1062 C 0.28866 0.57577 0.92833 0.0
C1063 C 0.27153 0.58127 0.91459 0.0
C1064 C 0.28888 0.57291 0.95773 0.0
C1065 C 0.27208 0.57613 0.97398 0.0
C1066 C 0.25449 0.57977 0.95979 0.0
C1067 C 0.25422 0.58223 0.93014 0.0
H1068 H 0.42463 0.26575 0.91493 0.0
H1069 H 0.36858 0.24337 0.93853 0.0
H1070 H 0.43471 0.26471 0.96527 0.0
H1071 H 0.37884 0.24156 0.98836 0.0
H1072 H 0.40534 0.23414 0.07514 0.0
H1073 H 0.40751 0.22662 0.02402 0.0
H1074 H 0.41487 0.28728 0.00534 0.0
H1075 H 0.41196 0.29485 0.05609 0.0
C1076 C 0.4148 0.25993 0.93076 0.0
C1077 C 0.39586 0.2547 0.92317 0.0
C1078 C 0.42053 0.25933 0.95939 0.0
C1079 C 0.40757 0.25292 0.98046 0.0
C1080 C 0.38917 0.24627 0.9724 0.0
C1081 C 0.38327 0.24741 0.94402 0.0
C1082 C 0.40809 0.24574 0.06013 0.0
C1083 C 0.40837 0.26506 0.06931 0.0
C1084 C 0.40932 0.24144 0.03102 0.0
C1085 C 0.41143 0.25639 0.01096 0.0
C1086 C 0.4135 0.27551 0.02048 0.0
C1087 C 0.41172 0.27984 0.04941 0.0
H1088 H 0.26331 0.05712 0.2364 0.0
H1089 H 0.23899 0.02705 0.16399 0.0
H1090 H 0.26717 0.02631 0.26135 0.0
H1091 H 0.24304 -0.00371 0.18887 0.0
H1092 H 0.23461 0.9734 0.30478 0.0
H1093 H 0.24016 0.00387 0.27988 0.0
H1094 H 0.26837 0.97315 0.2113 0.0
H1095 H 0.26305 0.94253 0.23645 0.0
C1096 C 0.25918 0.04391 0.22559 0.0
C1097 C 0.25066 0.04449 0.19838 0.0
C1098 C 0.26134 0.02632 0.2399 0.0
C1099 C 0.25533 0.00898 0.22705 0.0
C1100 C 0.24794 0.00944 0.19915 0.0
C1101 C 0.2455 0.02705 0.18501 0.0
C1102 C 0.2423 0.97317 0.28463 0.0
C1103 C 0.24829 0.95562 0.27244 0.0
C1104 C 0.24559 0.99062 0.27049 0.0
C1105 C 0.25466 0.99081 0.24367 0.0
C1106 C 0.2613 0.97334 0.23192 0.0
C1107 C 0.25831 0.95588 0.24634 0.0
H1108 H 0.97556 0.24616 0.16613 0.0
H1109 H 0.94345 0.27808 0.22973 0.0
H1110 H 0.00553 0.25263 0.19199 0.0
H1111 H 0.97347 0.2843 0.25578 0.0
H1112 H 0.02303 0.2515 0.30905 0.0
H1113 H 0.99382 0.25776 0.28131 0.0
H1114 H 0.0287 0.27927 0.21175 0.0
H1115 H 0.05802 0.2733 0.23973 0.0
C1116 C 0.97498 0.25495 0.18525 0.0
C1117 C 0.95717 0.26143 0.1961 0.0
C1118 C 0.99213 0.25875 0.19995 0.0
C1119 C 0.99173 0.26885 0.22593 0.0
C1120 C 0.9741 0.27641 0.23583 0.0
C1121 C 0.95697 0.27288 0.22088 0.0
C1122 C 0.02443 0.25803 0.28813 0.0
C1123 C 0.04276 0.26176 0.27643 0.0
C1124 C 0.00773 0.26172 0.27233 0.0
C1125 C 0.00907 0.26892 0.24438 0.0
C1126 C 0.02733 0.27367 0.23325 0.0
C1127 C 0.04406 0.27031 0.24929 0.0
H1128 H 0.78494 0.03402 0.2701 0.0
H1129 H 0.72287 0.0404 0.27551 0.0
H1130 H 0.78105 0.00252 0.24856 0.0
H1131 H 0.71882 0.00797 0.25498 0.0
H1132 H 0.7229 0.9565 0.18915 0.0
H1133 H 0.7225 0.98818 0.21281 0.0
H1134 H 0.77249 0.97129 0.2625 0.0
H1135 H 0.77351 0.94053 0.23756 0.0
C1136 C 0.77041 0.02854 0.26691 0.0
C1137 C 0.75422 0.03954 0.27474 0.0
C1138 C 0.76815 0.01035 0.25477 0.0
C1139 C 0.74962 0.00241 0.25071 0.0
C1140 C 0.7333 0.01363 0.25785 0.0
C1141 C 0.73559 0.03214 0.26964 0.0
C1142 C 0.73356 0.95962 0.20545 0.0
C1143 C 0.7484 0.94637 0.21139 0.0
C1144 C 0.73334 0.9777 0.21903 0.0
C1145 C 0.74779 0.9825 0.23903 0.0
C1146 C 0.76159 0.96842 0.24645 0.0
C1147 C 0.76209 0.95071 0.23242 0.0
H1148 H 0.01969 0.74381 0.17308 0.0
H1149 H 0.05391 0.72043 0.24206 0.0
H1150 H 0.99019 0.73745 0.20014 0.0
H1151 H 0.02428 0.71437 0.26941 0.0
H1152 H 0.97069 0.74635 0.31548 0.0
H1153 H 0.00088 0.7408 0.28971 0.0
H1154 H 0.96957 0.71021 0.22404 0.0
H1155 H 0.93929 0.71549 0.25008 0.0
C1156 C 0.02086 0.73699 0.19382 0.0
C1157 C 0.03905 0.73276 0.20561 0.0
C1158 C 0.00399 0.73322 0.2092 0.0
C1159 C 0.00502 0.72546 0.23684 0.0
C1160 C 0.02315 0.72038 0.24812 0.0
C1161 C 0.04005 0.72381 0.23248 0.0
C1162 C 0.97032 0.73803 0.29591 0.0
C1163 C 0.95266 0.73151 0.28461 0.0
C1164 C 0.9876 0.73474 0.28127 0.0
C1165 C 0.98748 0.72516 0.25487 0.0
C1166 C 0.96998 0.71768 0.24435 0.0
C1167 C 0.95271 0.72066 0.25927 0.0
H1168 H 0.75483 0.9706 0.80882 0.0
H1169 H 0.72915 0.93868 0.73923 0.0
H1170 H 0.74937 0.0008 0.78309 0.0
H1171 H 0.72398 0.969 0.71325 0.0
H1172 H 0.75417 0.0231 0.6673 0.0
H1173 H 0.75009 0.99249 0.69256 0.0
H1174 H 0.72195 0.02243 0.76194 0.0
H1175 H 0.72575 0.05311 0.73646 0.0
C1176 C 0.74776 0.97008 0.78821 0.0
C1177 C 0.74252 0.95231 0.77593 0.0
C1178 C 0.74453 0.98736 0.77358 0.0
C1179 C 0.73628 0.98717 0.74621 0.0
C1180 C 0.73039 0.96947 0.73433 0.0
C1181 C 0.73331 0.95219 0.74921 0.0
C1182 C 0.74677 0.0231 0.68768 0.0
C1183 C 0.7404 0.04048 0.70003 0.0
C1184 C 0.74433 0.00558 0.70203 0.0
C1185 C 0.73577 0.00517 0.7292 0.0
C1186 C 0.72865 0.02242 0.74103 0.0
C1187 C 0.73077 0.03992 0.72643 0.0
H1188 H 0.97209 0.74826 0.66763 0.0
H1189 H 0.94058 0.71897 0.73453 0.0
H1190 H 0.00229 0.74309 0.69364 0.0
H1191 H 0.97081 0.71411 0.76074 0.0
H1192 H 0.05508 0.72179 0.74226 0.0
H1193 H 0.02531 0.71645 0.71497 0.0
H1194 H 0.99193 0.74158 0.78345 0.0
H1195 H 0.0216 0.74726 0.81046 0.0
C1196 C 0.97168 0.74036 0.68758 0.0
C1197 C 0.95399 0.73416 0.69918 0.0
C1198 C 0.98896 0.73732 0.70238 0.0
C1199 C 0.98879 0.7283 0.72923 0.0
C1200 C 0.97126 0.72116 0.74011 0.0
C1201 C 0.95401 0.72389 0.72506 0.0
C1202 C 0.04134 0.7258 0.75169 0.0
C1203 C 0.04062 0.73507 0.77836 0.0
C1204 C 0.02436 0.7228 0.73606 0.0
C1205 C 0.0064 0.72862 0.74715 0.0
C1206 C 0.0056 0.7368 0.77455 0.0
C1207 C 0.02257 0.74015 0.78991 0.0
H1208 H 0.23913 0.96687 0.6626 0.0
H1209 H 0.26826 0.93461 0.72884 0.0
H1210 H 0.24419 -0.00331 0.68936 0.0
H1211 H 0.27309 0.96453 0.75583 0.0
H1212 H 0.26373 0.04908 0.73785 0.0
H1213 H 0.27005 0.01957 0.71067 0.0
H1214 H 0.24629 0.98543 0.77939 0.0
H1215 H 0.23975 0.01487 0.80645 0.0
C1216 C 0.24696 0.96622 0.6826 0.0
C1217 C 0.25315 0.94843 0.69378 0.0
C1218 C 0.24997 0.9833 0.69782 0.0
C1219 C 0.25895 0.98285 0.72469 0.0
C1220 C 0.26606 0.96521 0.73519 0.0
C1221 C 0.26335 0.94814 0.71971 0.0
C1222 C 0.26025 0.03525 0.74741 0.0
C1223 C 0.25104 0.03426 0.77412 0.0
C1224 C 0.26383 0.0184 0.73182 0.0
C1225 C 0.25858 0.00029 0.74292 0.0
C1226 C 0.25062 -0.00078 0.77046 0.0
C1227 C 0.24677 0.01606 0.78585 0.0
H1228 H 0.97146 0.24188 0.81226 0.0
H1229 H 0.93924 0.26912 0.74427 0.0
H1230 H 0.00137 0.24628 0.78533 0.0
H1231 H 0.96925 0.27325 0.71708 0.0
H1232 H 0.02051 0.23975 0.66854 0.0
H1233 H 0.99075 0.24621 0.69501 0.0
H1234 H 0.02406 0.27193 0.76304 0.0
H1235 H 0.05387 0.26571 0.73645 0.0
C1236 C 0.97084 0.24915 0.7918 0.0
C1237 C 0.95304 0.25504 0.78026 0.0
C1238 C 0.98796 0.25176 0.77646 0.0
C1239 C 0.98756 0.26003 0.74909 0.0
C1240 C 0.9699 0.26677 0.7381 0.0
C1241 C 0.95278 0.26448 0.7537 0.0
C1242 C 0.02145 0.24717 0.68885 0.0
C1243 C 0.03951 0.25206 0.70055 0.0
C1244 C 0.00441 0.25097 0.70391 0.0
C1245 C 0.00516 0.25947 0.7311 0.0
C1246 C 0.02313 0.26528 0.74216 0.0
C1247 C 0.04015 0.26175 0.7269 0.0
H1248 H 0.76248 0.55009 0.73609 0.0
H1249 H 0.73389 0.52146 0.66582 0.0
H1250 H 0.76679 0.51889 0.75982 0.0
H1251 H 0.73839 0.49033 0.68946 0.0
H1252 H 0.75881 0.4355 0.73408 0.0
H1253 H 0.76387 0.46615 0.70884 0.0
H1254 H 0.74 0.49717 0.78065 0.0
H1255 H 0.73472 0.4667 0.80563 0.0
C1256 C 0.75752 0.5371 0.72542 0.0
C1257 C 0.74765 0.53821 0.69926 0.0
C1258 C 0.75994 0.51929 0.73904 0.0
C1259 C 0.75283 0.50227 0.7265 0.0
C1260 C 0.74413 0.50323 0.69948 0.0
C1261 C 0.74145 0.52105 0.68606 0.0
C1262 C 0.75495 0.44891 0.7446 0.0
C1263 C 0.74623 0.44875 0.77169 0.0
C1264 C 0.7578 0.46639 0.73015 0.0
C1265 C 0.75233 0.48397 0.74284 0.0
C1266 C 0.74454 0.48383 0.77051 0.0
C1267 C 0.74138 0.46639 0.7847 0.0
H1268 H 0.55179 0.76955 0.74132 0.0
H1269 H 0.51928 0.74613 0.8121 0.0
H1270 H 0.52173 0.77351 0.7143 0.0
H1271 H 0.48935 0.75027 0.78526 0.0
H1272 H 0.47012 0.73925 0.66897 0.0
H1273 H 0.49992 0.74651 0.69472 0.0
H1274 H 0.46682 0.77465 0.76094 0.0
H1275 H 0.43693 0.76753 0.73507 0.0
C1276 C 0.53819 0.76573 0.75137 0.0
C1277 C 0.53785 0.75735 0.77868 0.0
C1278 C 0.52104 0.76793 0.73587 0.0
C1279 C 0.50327 0.76211 0.74767 0.0
C1280 C 0.50282 0.75502 0.77574 0.0
C1281 C 0.51997 0.75254 0.79103 0.0
C1282 C 0.46923 0.74734 0.68872 0.0
C1283 C 0.4512 0.75263 0.70017 0.0
C1284 C 0.48629 0.75162 0.70335 0.0
C1285 C 0.48562 0.76106 0.72986 0.0
C1286 C 0.46769 0.76727 0.74059 0.0
C1287 C 0.45062 0.76323 0.72575 0.0
H1288 H 0.22011 0.4365 0.73439 0.0
H1289 H 0.24931 0.46787 0.66726 0.0
H1290 H 0.21457 0.46685 0.75993 0.0
H1291 H 0.24358 0.49813 0.69264 0.0
H1292 H 0.2469 0.51781 0.80963 0.0
H1293 H 0.24086 0.48808 0.78313 0.0
H1294 H 0.21776 0.52135 0.71302 0.0
H1295 H 0.2236 0.55121 0.73973 0.0
C1296 C 0.22489 0.44991 0.72473 0.0
C1297 C 0.23535 0.44983 0.69901 0.0
C1298 C 0.22176 0.46723 0.73939 0.0
C1299 C 0.22874 0.48476 0.72831 0.0
C1300 C 0.23792 0.48483 0.70156 0.0
C1301 C 0.2413 0.4675 0.68712 0.0
C1302 C 0.24014 0.51875 0.78883 0.0
C1303 C 0.23589 0.5368 0.77662 0.0
C1304 C 0.23656 0.50174 0.77375 0.0
C1305 C 0.22891 0.50247 0.74601 0.0
C1306 C 0.22373 0.52045 0.73434 0.0
C1307 C 0.22702 0.53748 0.74966 0.0
H1308 H 0.46317 0.24466 0.81396 0.0
H1309 H 0.42948 0.2227 0.7434 0.0
H1310 H 0.49284 0.23911 0.78691 0.0
H1311 H 0.45924 0.21736 0.71621 0.0
H1312 H 0.51294 0.24803 0.6705 0.0
H1313 H 0.48273 0.24306 0.69645 0.0
H1314 H 0.5138 0.21283 0.76276 0.0
H1315 H 0.5441 0.21759 0.7366 0.0
C1316 C 0.46213 0.23834 0.79287 0.0
C1317 C 0.44402 0.23427 0.78069 0.0
C1318 C 0.47912 0.23504 0.77747 0.0
C1319 C 0.47829 0.22786 0.74946 0.0
C1320 C 0.46024 0.22298 0.73774 0.0
C1321 C 0.44324 0.22599 0.75333 0.0
C1322 C 0.51327 0.23993 0.69029 0.0
C1323 C 0.53087 0.23333 0.70166 0.0
C1324 C 0.49596 0.237 0.70505 0.0
C1325 C 0.49599 0.22766 0.73166 0.0
C1326 C 0.51344 0.22016 0.74234 0.0
C1327 C 0.53073 0.22281 0.72731 0.0
H1328 H 0.25417 0.52105 0.16686 0.0
H1329 H 0.22497 0.5526 0.23382 0.0
H1330 H 0.24892 0.49092 0.19283 0.0
H1331 H 0.21992 0.52239 0.25993 0.0
H1332 H 0.25168 0.47147 0.31025 0.0
H1333 H 0.24611 0.50115 0.28335 0.0
H1334 H 0.22306 0.4678 0.2133 0.0
H1335 H 0.22843 0.438 0.24037 0.0
C1336 C 0.2463 0.52149 0.18685 0.0
C1337 C 0.24015 0.53918 0.19846 0.0
C1338 C 0.24319 0.50423 0.20161 0.0
C1339 C 0.23411 0.50439 0.22843 0.0
C1340 C 0.22704 0.52194 0.23935 0.0
C1341 C 0.22989 0.53918 0.22436 0.0
C1342 C 0.24505 0.47049 0.28936 0.0
C1343 C 0.24064 0.45244 0.2773 0.0
C1344 C 0.24174 0.48749 0.27405 0.0
C1345 C 0.23422 0.48672 0.24623 0.0
C1346 C 0.22895 0.46874 0.23468 0.0
C1347 C 0.23196 0.45173 0.2502 0.0
H1348 H 0.55654 0.22171 0.25228 0.0
H1349 H 0.52527 0.25086 0.31958 0.0
H1350 H 0.52618 0.2166 0.22656 0.0
H1351 H 0.49499 0.24557 0.294 0.0
H1352 H 0.44181 0.22626 0.24659 0.0
H1353 H 0.47159 0.22014 0.27337 0.0
H1354 H 0.50521 0.24308 0.20346 0.0
H1355 H 0.47555 0.2494 0.17685 0.0
C1356 C 0.54314 0.22657 0.26193 0.0
C1357 C 0.54326 0.23689 0.28776 0.0
C1358 C 0.52581 0.22369 0.24717 0.0
C1359 C 0.50831 0.2308 0.25824 0.0
C1360 C 0.50827 0.23982 0.28509 0.0
C1361 C 0.52561 0.24295 0.29964 0.0
C1362 C 0.45559 0.22961 0.23672 0.0
C1363 C 0.45639 0.2385 0.20977 0.0
C1364 C 0.47258 0.22615 0.25207 0.0
C1365 C 0.49064 0.23119 0.24048 0.0
C1366 C 0.49148 0.23889 0.21278 0.0
C1367 C 0.47451 0.24263 0.19763 0.0
H1368 H 0.76466 0.55203 0.24269 0.0
H1369 H 0.73938 0.51901 0.31153 0.0
H1370 H 0.76983 0.52216 0.21573 0.0
H1371 H 0.74471 0.48926 0.28474 0.0
H1372 H 0.7654 0.4374 0.23585 0.0
H1373 H 0.77052 0.46739 0.26243 0.0
H1374 H 0.74407 0.49977 0.194 0.0
H1375 H 0.7388 0.46986 0.16752 0.0
C1376 C 0.76063 0.53837 0.25232 0.0
C1377 C 0.75144 0.53782 0.27907 0.0
C1378 C 0.76352 0.52133 0.23686 0.0
C1379 C 0.7576 0.50346 0.24814 0.0
C1380 C 0.74957 0.50283 0.27565 0.0
C1381 C 0.7464 0.51986 0.2909 0.0
C1382 C 0.76102 0.45096 0.22625 0.0
C1383 C 0.7515 0.45129 0.19977 0.0
C1384 C 0.76392 0.46808 0.24149 0.0
C1385 C 0.75762 0.48583 0.23029 0.0
C1386 C 0.74922 0.48629 0.20302 0.0
C1387 C 0.74608 0.46916 0.18796 0.0
H1388 H 0.46834 0.74647 0.31088 0.0
H1389 H 0.43595 0.76864 0.23916 0.0
H1390 H 0.49838 0.75065 0.28427 0.0
H1391 H 0.46612 0.77264 0.21236 0.0
H1392 H 0.5188 0.73895 0.16858 0.0
H1393 H 0.48864 0.74578 0.19373 0.0
H1394 H 0.52056 0.77536 0.25978 0.0
H1395 H 0.55081 0.76868 0.23451 0.0
C1396 C 0.46769 0.7526 0.28963 0.0
C1397 C 0.44983 0.75707 0.27698 0.0
C1398 C 0.48489 0.75511 0.27447 0.0
C1399 C 0.48452 0.76189 0.24623 0.0
C1400 C 0.46675 0.76731 0.23407 0.0
C1401 C 0.44954 0.76508 0.24943 0.0
C1402 C 0.51935 0.74726 0.18816 0.0
C1403 C 0.53716 0.7531 0.19975 0.0
C1404 C 0.50208 0.75128 0.20244 0.0
C1405 C 0.50232 0.76102 0.22874 0.0
C1406 C 0.52003 0.76775 0.23959 0.0
C1407 C 0.5373 0.76396 0.2251 0.0
H1408 H 0.16584 0.1257 0.16256 0.0
H1409 H 0.19083 0.11984 0.24662 0.0
H1410 H 0.14012 0.14594 0.18227 0.0
H1411 H 0.16522 0.14012 0.26622 0.0
H1412 H 0.11055 0.16795 0.29716 0.0
H1413 H 0.12979 0.14245 0.27508 0.0
H1414 H 0.14046 0.17937 0.20243 0.0
H1415 H 0.1211 0.20487 0.22439 0.0
C1416 C 0.16567 0.12847 0.1853 0.0
C1417 C 0.18044 0.12133 0.20304 0.0
C1418 C 0.151 0.14013 0.19652 0.0
C1419 C 0.15073 0.1447 0.22572 0.0
C1420 C 0.16494 0.13671 0.24367 0.0
C1421 C 0.17968 0.12519 0.23243 0.0
C1422 C 0.11672 0.17052 0.27626 0.0
C1423 C 0.1145 0.1885 0.26263 0.0
C1424 C 0.1278 0.15594 0.2637 0.0
C1425 C 0.13676 0.15898 0.23718 0.0
C1426 C 0.13361 0.17656 0.22281 0.0
C1427 C 0.12262 0.1912 0.23545 0.0
H1428 H 0.89556 0.16767 0.20306 0.0
H1429 H 0.86491 0.21305 0.24755 0.0
H1430 H 0.87294 0.14376 0.22249 0.0
H1431 H 0.84213 0.18919 0.26632 0.0
H1432 H 0.79186 0.14481 0.25099 0.0
H1433 H 0.81719 0.16712 0.23526 0.0
H1434 H 0.86056 0.13112 0.27483 0.0
H1435 H 0.8352 0.10894 0.29123 0.0
C1436 C 0.88424 0.17246 0.21742 0.0
C1437 C 0.88196 0.19219 0.22377 0.0
C1438 C 0.87133 0.15881 0.22843 0.0
C1439 C 0.85574 0.16478 0.24549 0.0
C1440 C 0.85397 0.18435 0.25293 0.0
C1441 C 0.8671 0.19794 0.24241 0.0
C1442 C 0.80681 0.14154 0.25607 0.0
C1443 C 0.8116 0.12518 0.27233 0.0
C1444 C 0.82123 0.15437 0.24731 0.0
C1445 C 0.8407 0.15084 0.25417 0.0
C1446 C 0.84561 0.13411 0.26942 0.0
C1447 C 0.83114 0.12147 0.27871 0.0
H1448 H 0.88608 0.82102 0.2795 0.0
H1449 H 0.85563 0.77395 0.23869 0.0
H1450 H 0.86373 0.84414 0.2575 0.0
H1451 H 0.83315 0.79705 0.2173 0.0
H1452 H 0.78317 0.84252 0.22553 0.0
H1453 H 0.80782 0.82042 0.24389 0.0
H1454 H 0.85253 0.85483 0.20442 0.0
H1455 H 0.82785 0.87681 0.18543 0.0
C1456 C 0.8748 0.81566 0.26553 0.0
C1457 C 0.87254 0.79571 0.26087 0.0
C1458 C 0.86206 0.82886 0.25299 0.0
C1459 C 0.84668 0.82227 0.23605 0.0
C1460 C 0.84483 0.80241 0.23054 0.0
C1461 C 0.85777 0.78924 0.24262 0.0
C1462 C 0.79825 0.84544 0.22091 0.0
C1463 C 0.80362 0.86135 0.20405 0.0
C1464 C 0.81231 0.83274 0.23122 0.0
C1465 C 0.83197 0.83592 0.22531 0.0
C1466 C 0.83743 0.85212 0.20918 0.0
C1467 C 0.82333 0.86463 0.19836 0.0
H1468 H 0.15992 0.88737 0.27989 0.0
H1469 H 0.20507 0.85502 0.2375 0.0
H1470 H 0.13582 0.86414 0.2625 0.0
H1471 H 0.18105 0.83168 0.22083 0.0
H1472 H 0.1364 0.78239 0.23671 0.0
H1473 H 0.15828 0.80785 0.25305 0.0
H1474 H 0.12355 0.85067 0.20994 0.0
H1475 H 0.10179 0.82514 0.19288 0.0
C1476 C 0.16463 0.87545 0.26658 0.0
C1477 C 0.18435 0.87296 0.26006 0.0
C1478 C 0.15088 0.86222 0.2567 0.0
C1479 C 0.15671 0.8461 0.24069 0.0
C1480 C 0.1763 0.84394 0.23341 0.0
C1481 C 0.18999 0.85736 0.24276 0.0
C1482 C 0.13325 0.79725 0.23103 0.0
C1483 C 0.11744 0.8018 0.21345 0.0
C1484 C 0.14584 0.81175 0.2402 0.0
C1485 C 0.14262 0.83109 0.23244 0.0
C1486 C 0.12629 0.83582 0.21609 0.0
C1487 C 0.11389 0.82125 0.20641 0.0
H1488 H 0.89182 0.82555 0.70182 0.0
H1489 H 0.85866 0.78124 0.74472 0.0
H1490 H 0.86963 0.85025 0.72023 0.0
H1491 H 0.8363 0.80589 0.76242 0.0
H1492 H 0.78804 0.852 0.74486 0.0
H1493 H 0.813 0.82921 0.72945 0.0
H1494 H 0.85647 0.86284 0.77308 0.0
H1495 H 0.83142 0.88549 0.78922 0.0
C1496 C 0.88002 0.82116 0.7156 0.0
C1497 C 0.87693 0.80151 0.72183 0.0
C1498 C 0.86736 0.83525 0.72603 0.0
C1499 C 0.85122 0.82982 0.74233 0.0
C1500 C 0.8486 0.81031 0.74962 0.0
C1501 C 0.86147 0.79628 0.73971 0.0
C1502 C 0.80294 0.85469 0.75084 0.0
C1503 C 0.80782 0.87048 0.76825 0.0
C1504 C 0.81715 0.84158 0.74225 0.0
C1505 C 0.83651 0.84426 0.75042 0.0
C1506 C 0.84158 0.86052 0.76666 0.0
C1507 C 0.8273 0.87343 0.77578 0.0
H1508 H 0.20748 0.85286 0.73624 0.0
H1509 H 0.16258 0.88368 0.69092 0.0
H1510 H 0.18319 0.83075 0.7556 0.0
H1511 H 0.13823 0.86174 0.71104 0.0
H1512 H 0.105 0.82561 0.7862 0.0
H1513 H 0.12681 0.8504 0.76692 0.0
H1514 H 0.15945 0.80617 0.72336 0.0
H1515 H 0.1375 0.78145 0.74185 0.0
C1516 C 0.19239 0.85518 0.73094 0.0
C1517 C 0.18689 0.86992 0.71199 0.0
C1518 C 0.17857 0.84247 0.74185 0.0
C1519 C 0.159 0.84455 0.73449 0.0
C1520 C 0.15329 0.85992 0.7169 0.0
C1521 C 0.16718 0.87242 0.70547 0.0
C1522 C 0.11664 0.82126 0.77209 0.0
C1523 C 0.11959 0.80164 0.76552 0.0
C1524 C 0.12906 0.8354 0.76116 0.0
C1525 C 0.14482 0.83003 0.74405 0.0
C1526 C 0.14744 0.81053 0.73677 0.0
C1527 C 0.13481 0.79646 0.74717 0.0
H1528 H 0.10879 0.15932 0.67594 0.0
H1529 H 0.1165 0.19187 0.75384 0.0
H1530 H 0.12784 0.1329 0.69577 0.0
H1531 H 0.13566 0.16535 0.77363 0.0
H1532 H 0.16004 0.109 0.80744 0.0
H1533 H 0.13489 0.1304 0.7889 0.0
H1534 H 0.16325 0.13084 0.70677 0.0
H1535 H 0.18839 0.10946 0.72523 0.0
C1536 C 0.1143 0.16072 0.69748 0.0
C1537 C 0.11134 0.17778 0.71323 0.0
C1538 C 0.12528 0.14561 0.70874 0.0
C1539 C 0.13338 0.14716 0.73609 0.0
C1540 C 0.12948 0.16373 0.75253 0.0
C1541 C 0.11859 0.17893 0.74117 0.0
C1542 C 0.16073 0.1134 0.78528 0.0
C1543 C 0.17627 0.10768 0.76781 0.0
C1544 C 0.14639 0.12573 0.77476 0.0
C1545 C 0.14719 0.13237 0.74648 0.0
C1546 C 0.16218 0.12583 0.72861 0.0
C1547 C 0.17662 0.11366 0.7392 0.0
H1548 H 0.85434 0.21093 0.7428 0.0
H1549 H 0.88822 0.16569 0.78222 0.0
H1550 H 0.83151 0.18673 0.72519 0.0
H1551 H 0.8655 0.14145 0.76391 0.0
H1552 H 0.82742 0.10798 0.69323 0.0
H1553 H 0.85229 0.13002 0.71148 0.0
H1554 H 0.80831 0.16264 0.75576 0.0
H1555 H 0.78348 0.14042 0.73814 0.0
C1556 C 0.85714 0.1958 0.74718 0.0
C1557 C 0.87302 0.19016 0.76393 0.0
C1558 C 0.84399 0.18202 0.73733 0.0
C1559 C 0.84671 0.16236 0.74356 0.0
C1560 C 0.86313 0.15657 0.75897 0.0
C1561 C 0.87609 0.1704 0.76934 0.0
C1562 C 0.82314 0.11966 0.70728 0.0
C1563 C 0.80356 0.12253 0.71428 0.0
C1564 C 0.83733 0.13222 0.71765 0.0
C1565 C 0.83208 0.14806 0.73465 0.0
C1566 C 0.81261 0.15059 0.7424 0.0
C1567 C 0.79847 0.13781 0.73253 0.0
H1568 H 0.69305 0.61985 0.75587 0.0
H1569 H 0.66194 0.6183 0.6759 0.0
H1570 H 0.66846 0.64152 0.77554 0.0
H1571 H 0.63747 0.6399 0.69558 0.0
H1572 H 0.61832 0.70081 0.72924 0.0
H1573 H 0.63858 0.67502 0.7098 0.0
H1574 H 0.63304 0.64321 0.78867 0.0
H1575 H 0.61281 0.66893 0.80815 0.0
C1576 C 0.68084 0.6239 0.74267 0.0
C1577 C 0.67952 0.61751 0.7143 0.0
C1578 C 0.66674 0.63624 0.75393 0.0
C1579 C 0.65117 0.64249 0.73696 0.0
C1580 C 0.64946 0.63549 0.70899 0.0
C1581 C 0.66343 0.62305 0.69782 0.0
C1582 C 0.62122 0.6882 0.74226 0.0
C1583 C 0.61409 0.68695 0.77025 0.0
C1584 C 0.63274 0.67341 0.73112 0.0
C1585 C 0.63745 0.65719 0.74783 0.0
C1586 C 0.6298 0.65566 0.77547 0.0
C1587 C 0.61813 0.67034 0.78651 0.0
H1588 H 0.32579 0.61177 0.8062 0.0
H1589 H 0.29442 0.61609 0.72668 0.0
H1590 H 0.35114 0.63259 0.78699 0.0
H1591 H 0.31989 0.6369 0.70748 0.0
H1592 H 0.3765 0.6616 0.67465 0.0
H1593 H 0.35546 0.63658 0.69415 0.0
H1594 H 0.35161 0.66813 0.77344 0.0
H1595 H 0.37267 0.6933 0.75395 0.0
C1596 C 0.32443 0.61695 0.78448 0.0
C1597 C 0.30804 0.61241 0.76797 0.0
C1598 C 0.3389 0.62894 0.77359 0.0
C1599 C 0.33741 0.63642 0.74586 0.0
C1600 C 0.32146 0.6312 0.72889 0.0
C1601 C 0.30686 0.61937 0.73989 0.0
C1602 C 0.3714 0.6631 0.6964 0.0
C1603 C 0.37611 0.67951 0.71272 0.0
C1604 C 0.35928 0.64881 0.70746 0.0
C1605 C 0.35181 0.65052 0.73517 0.0
C1606 C 0.35727 0.66642 0.75203 0.0
C1607 C 0.36927 0.68084 0.74087 0.0
H1608 H 0.36653 0.32234 0.82153 0.0
H1609 H 0.37167 0.29727 0.73743 0.0
H1610 H 0.34744 0.34892 0.80171 0.0
H1611 H 0.35255 0.32366 0.71775 0.0
H1612 H 0.3272 0.3787 0.68581 0.0
H1613 H 0.35189 0.35886 0.70868 0.0
H1614 H 0.3142 0.35047 0.78119 0.0
H1615 H 0.28955 0.3705 0.75847 0.0
C1616 C 0.36384 0.32266 0.79877 0.0
C1617 C 0.37045 0.30766 0.78103 0.0
C1618 C 0.35284 0.33782 0.78748 0.0
C1619 C 0.34845 0.33833 0.75823 0.0
C1620 C 0.35587 0.32379 0.74034 0.0
C1621 C 0.36672 0.30859 0.75163 0.0
C1622 C 0.3243 0.37291 0.70685 0.0
C1623 C 0.30632 0.37593 0.72018 0.0
C1624 C 0.33842 0.36149 0.71988 0.0
C1625 C 0.33489 0.35293 0.74655 0.0
C1626 C 0.31739 0.35697 0.7607 0.0
C1627 C 0.30323 0.36836 0.74762 0.0
H1628 H 0.62913 0.27741 0.7446 0.0
H1629 H 0.59474 0.32292 0.70688 0.0
H1630 H 0.652 0.30152 0.7624 0.0
H1631 H 0.61749 0.34705 0.72533 0.0
H1632 H 0.65781 0.38119 0.79184 0.0
H1633 H 0.63227 0.35875 0.77681 0.0
H1634 H 0.67445 0.32524 0.73025 0.0
H1635 H 0.69987 0.34779 0.74459 0.0
C1636 C 0.62619 0.29257 0.74074 0.0
C1637 C 0.61021 0.29831 0.72425 0.0
C1638 C 0.63934 0.30632 0.75072 0.0
C1639 C 0.63652 0.32603 0.74489 0.0
C1640 C 0.61992 0.3319 0.73003 0.0
C1641 C 0.60695 0.31812 0.71954 0.0
C1642 C 0.66154 0.36917 0.77808 0.0
C1643 C 0.6808 0.36622 0.76936 0.0
C1644 C 0.64697 0.35638 0.76957 0.0
C1645 C 0.65154 0.34022 0.75276 0.0
C1646 C 0.67068 0.3375 0.74354 0.0
C1647 C 0.68516 0.35049 0.75153 0.0
H1648 H 0.38014 0.29983 0.25767 0.0
H1649 H 0.38103 0.32868 0.17588 0.0
H1650 H 0.35898 0.32504 0.27646 0.0
H1651 H 0.35988 0.35392 0.19477 0.0
H1652 H 0.29875 0.37311 0.22936 0.0
H1653 H 0.32495 0.35346 0.20979 0.0
H1654 H 0.35713 0.3603 0.28812 0.0
H1655 H 0.33095 0.37987 0.30777 0.0
C1656 C 0.37608 0.31173 0.24386 0.0
C1657 C 0.38212 0.3122 0.21526 0.0
C1658 C 0.36404 0.32621 0.25465 0.0
C1659 C 0.3577 0.34137 0.237 0.0
C1660 C 0.3644 0.34229 0.20874 0.0
C1661 C 0.37659 0.32789 0.19801 0.0
C1662 C 0.31154 0.37066 0.24222 0.0
C1663 C 0.31271 0.37787 0.27018 0.0
C1664 C 0.32658 0.3595 0.23097 0.0
C1665 C 0.34301 0.35526 0.24754 0.0
C1666 C 0.34453 0.36317 0.27502 0.0
C1667 C 0.32957 0.37444 0.28619 0.0
H1668 H 0.62282 0.29052 0.22802 0.0
H1669 H 0.61175 0.32869 0.29919 0.0
H1670 H 0.6412 0.31611 0.20448 0.0
H1671 H 0.62993 0.35427 0.27552 0.0
H1672 H 0.69019 0.37774 0.24638 0.0
H1673 H 0.66512 0.35714 0.26662 0.0
H1674 H 0.6404 0.34913 0.1828 0.0
H1675 H 0.66564 0.36973 0.16243 0.0
C1676 C 0.62398 0.30448 0.23836 0.0
C1677 C 0.61611 0.3075 0.26563 0.0
C1678 C 0.63442 0.31917 0.22482 0.0
C1679 C 0.63717 0.33712 0.23833 0.0
C1680 C 0.62829 0.34048 0.26482 0.0
C1681 C 0.61783 0.32584 0.2783 0.0
C1682 C 0.67924 0.37183 0.23233 0.0
C1683 C 0.67996 0.37522 0.20283 0.0
C1684 C 0.6648 0.36012 0.24393 0.0
C1685 C 0.65084 0.35147 0.22625 0.0
C1686 C 0.65108 0.35548 0.19687 0.0
C1687 C 0.66546 0.36735 0.18528 0.0
H1688 H 0.66371 0.6151 0.31045 0.0
H1689 H 0.69461 0.6179 0.23034 0.0
H1690 H 0.63846 0.63593 0.29094 0.0
H1691 H 0.66927 0.63871 0.21086 0.0
H1692 H 0.61278 0.66311 0.17769 0.0
H1693 H 0.63371 0.63832 0.19799 0.0
H1694 H 0.638 0.67124 0.276 0.0
H1695 H 0.61702 0.69618 0.2557 0.0
C1696 C 0.66499 0.61995 0.28855 0.0
C1697 C 0.6812 0.61496 0.27193 0.0
C1698 C 0.65058 0.63195 0.27749 0.0
C1699 C 0.65197 0.63898 0.24948 0.0
C1700 C 0.66777 0.63336 0.23247 0.0
C1701 C 0.68231 0.62152 0.24364 0.0
C1702 C 0.61795 0.66497 0.19933 0.0
C1703 C 0.6134 0.68169 0.21504 0.0
C1704 C 0.63002 0.6508 0.21085 0.0
C1705 C 0.63759 0.65296 0.23842 0.0
C1706 C 0.63226 0.66918 0.25471 0.0
C1707 C 0.62032 0.68348 0.24308 0.0
H1708 H 0.32801 0.61664 0.17632 0.0
H1709 H 0.29413 0.62033 0.2537 0.0
H1710 H 0.35208 0.63831 0.19688 0.0
H1711 H 0.31832 0.64205 0.27424 0.0
H1712 H 0.37324 0.66968 0.3095 0.0
H1713 H 0.35337 0.64371 0.28989 0.0
H1714 H 0.35062 0.67382 0.20928 0.0
H1715 H 0.37049 0.69986 0.22885 0.0
C1716 C 0.32583 0.62186 0.19788 0.0
C1717 C 0.30908 0.61693 0.21333 0.0
C1718 C 0.33957 0.63433 0.20954 0.0
C1719 C 0.33696 0.64197 0.237 0.0
C1720 C 0.32073 0.63628 0.25305 0.0
C1721 C 0.30687 0.62391 0.24128 0.0
C1722 C 0.3686 0.67065 0.28748 0.0
C1723 C 0.37332 0.68686 0.27072 0.0
C1724 C 0.35715 0.65583 0.27635 0.0
C1725 C 0.35041 0.65681 0.24816 0.0
C1726 C 0.35577 0.67263 0.23104 0.0
C1727 C 0.36705 0.68757 0.24226 0.0
loop_
_geom_bond_atom_site_label_1
_geom_bond_atom_site_label_2
_geom_bond_distance
_geom_bond_site_symmetry_2
_ccdc_geom_bond_type
C0 O1 1.306 . S
C0 O3 1.160 . S
O1 C0 1.306 . S
O1 Cd2 2.228 . S
Cd2 O1 2.228 . S
Cd2 O6 2.273 . S
Cd2 O10 2.277 . S
O3 C0 1.160 . S
O3 Cd4 2.203 . S
Cd4 O3 2.203 . S
Cd4 O6 2.411 . S
Cd4 O7 2.333 . S
Cd4 O8 2.352 . S
Cd4 O12 2.277 . S
Cd4 O13 2.356 . S
C5 O10 1.209 . S
C5 O12 1.226 . S
O6 Cd2 2.273 . S
O6 Cd4 2.411 . S
O6 C9 1.320 . S
O7 Cd4 2.333 . S
O7 C9 1.214 . S
O8 Cd4 2.352 . S
O8 C11 1.258 . S
C9 O6 1.320 . S
C9 O7 1.214 . S
O10 Cd2 2.277 . S
O10 C5 1.209 . S
C11 O8 1.258 . S
C11 O13 1.282 . S
O12 Cd4 2.277 . S
O12 C5 1.226 . S
O13 Cd4 2.356 . S
O13 C11 1.282 . S
C14 O15 1.306 . S
C14 O17 1.160 . S
O15 C14 1.306 . S
O15 Cd16 2.228 . S
Cd16 O15 2.228 . S
Cd16 O20 2.273 . S
Cd16 O24 2.277 . S
O17 C14 1.160 . S
O17 Cd18 2.203 . S
Cd18 O17 2.203 . S
Cd18 O20 2.411 . S
Cd18 O21 2.333 . S
Cd18 O22 2.352 . S
Cd18 O26 2.277 . S
Cd18 O27 2.356 . S
C19 O24 1.209 . S
C19 O26 1.226 . S
O20 Cd16 2.273 . S
O20 Cd18 2.411 . S
O20 C23 1.320 . S
O21 Cd18 2.333 . S
O21 C23 1.214 . S
O22 Cd18 2.352 . S
O22 C25 1.258 . S
C23 O20 1.320 . S
C23 O21 1.214 . S
O24 Cd16 2.277 . S
O24 C19 1.209 . S
C25 O22 1.258 . S
C25 O27 1.282 . S
O26 Cd18 2.277 . S
O26 C19 1.226 . S
O27 Cd18 2.356 . S
O27 C25 1.282 . S
C28 O29 1.306 . S
C28 O31 1.160 . S
O29 C28 1.306 . S
O29 Cd30 2.228 . S
Cd30 O29 2.228 . S
Cd30 O34 2.273 . S
Cd30 O38 2.277 . S
O31 C28 1.160 . S
O31 Cd32 2.203 . S
Cd32 O31 2.203 . S
Cd32 O34 2.411 . S
Cd32 O35 2.333 . S
Cd32 O36 2.352 . S
Cd32 O40 2.277 . S
Cd32 O41 2.356 . S
C33 O38 1.209 . S
C33 O40 1.226 . S
O34 Cd30 2.273 . S
O34 Cd32 2.411 . S
O34 C37 1.320 . S
O35 Cd32 2.333 . S
O35 C37 1.214 . S
O36 Cd32 2.352 . S
O36 C39 1.258 . S
C37 O34 1.320 . S
C37 O35 1.214 . S
O38 Cd30 2.277 . S
O38 C33 1.209 . S
C39 O36 1.258 . S
C39 O41 1.282 . S
O40 Cd32 2.277 . S
O40 C33 1.226 . S
O41 Cd32 2.356 . S
O41 C39 1.282 . S
C42 O43 1.306 . S
C42 O45 1.160 . S
O43 C42 1.306 . S
O43 Cd44 2.228 . S
Cd44 O43 2.228 . S
Cd44 O48 2.273 . S
Cd44 O52 2.277 . S
O45 C42 1.160 . S
O45 Cd46 2.203 . S
Cd46 O45 2.203 . S
Cd46 O48 2.411 . S
Cd46 O49 2.333 . S
Cd46 O50 2.352 . S
Cd46 O54 2.277 . S
Cd46 O55 2.356 . S
C47 O52 1.209 . S
C47 O54 1.226 . S
O48 Cd44 2.273 . S
O48 Cd46 2.411 . S
O48 C51 1.320 . S
O49 Cd46 2.333 . S
O49 C51 1.214 . S
O50 Cd46 2.352 . S
O50 C53 1.258 . S
C51 O48 1.320 . S
C51 O49 1.214 . S
O52 Cd44 2.277 . S
O52 C47 1.209 . S
C53 O50 1.258 . S
C53 O55 1.282 . S
O54 Cd46 2.277 . S
O54 C47 1.226 . S
O55 Cd46 2.356 . S
O55 C53 1.282 . S
C56 O57 1.306 . S
C56 O59 1.160 . S
O57 C56 1.306 . S
O57 Cd58 2.228 . S
Cd58 O57 2.228 . S
Cd58 O62 2.273 . S
Cd58 O66 2.277 . S
O59 C56 1.160 . S
O59 Cd60 2.203 . S
Cd60 O59 2.203 . S
Cd60 O62 2.411 . S
Cd60 O63 2.333 . S
Cd60 O64 2.352 . S
Cd60 O68 2.277 . S
Cd60 O69 2.356 . S
C61 O66 1.209 . S
C61 O68 1.226 . S
O62 Cd58 2.273 . S
O62 Cd60 2.411 . S
O62 C65 1.320 . S
O63 Cd60 2.333 . S
O63 C65 1.214 . S
O64 Cd60 2.352 . S
O64 C67 1.258 . S
C65 O62 1.320 . S
C65 O63 1.214 . S
O66 Cd58 2.277 . S
O66 C61 1.209 . S
C67 O64 1.258 . S
C67 O69 1.282 . S
O68 Cd60 2.277 . S
O68 C61 1.226 . S
O69 Cd60 2.356 . S
O69 C67 1.282 . S
C70 O71 1.306 . S
C70 O73 1.160 . S
O71 C70 1.306 . S
O71 Cd72 2.228 . S
Cd72 O71 2.228 . S
Cd72 O76 2.273 . S
Cd72 O80 2.277 . S
O73 C70 1.160 . S
O73 Cd74 2.203 . S
Cd74 O73 2.203 . S
Cd74 O76 2.411 . S
Cd74 O77 2.333 . S
Cd74 O78 2.352 . S
Cd74 O82 2.277 . S
Cd74 O83 2.356 . S
C75 O80 1.209 . S
C75 O82 1.226 . S
O76 Cd72 2.273 . S
O76 Cd74 2.411 . S
O76 C79 1.320 . S
O77 Cd74 2.333 . S
O77 C79 1.214 . S
O78 Cd74 2.352 . S
O78 C81 1.258 . S
C79 O76 1.320 . S
C79 O77 1.214 . S
O80 Cd72 2.277 . S
O80 C75 1.209 . S
C81 O78 1.258 . S
C81 O83 1.282 . S
O82 Cd74 2.277 . S
O82 C75 1.226 . S
O83 Cd74 2.356 . S
O83 C81 1.282 . S
C84 O85 1.306 . S
C84 O87 1.160 . S
O85 C84 1.306 . S
O85 Cd86 2.228 . S
Cd86 O85 2.228 . S
Cd86 O90 2.273 . S
Cd86 O94 2.277 . S
O87 C84 1.160 . S
O87 Cd88 2.203 . S
Cd88 O87 2.203 . S
Cd88 O90 2.411 . S
Cd88 O91 2.333 . S
Cd88 O92 2.352 . S
Cd88 O96 2.277 . S
Cd88 O97 2.356 . S
C89 O94 1.209 . S
C89 O96 1.226 . S
O90 Cd86 2.273 . S
O90 Cd88 2.411 . S
O90 C93 1.320 . S
O91 Cd88 2.333 . S
O91 C93 1.214 . S
O92 Cd88 2.352 . S
O92 C95 1.258 . S
C93 O90 1.320 . S
C93 O91 1.214 . S
O94 Cd86 2.277 . S
O94 C89 1.209 . S
C95 O92 1.258 . S
C95 O97 1.282 . S
O96 Cd88 2.277 . S
O96 C89 1.226 . S
O97 Cd88 2.356 . S
O97 C95 1.282 . S
C98 O99 1.306 . S
C98 O101 1.160 . S
O99 C98 1.306 . S
O99 Cd100 2.228 . S
Cd100 O99 2.228 . S
Cd100 O104 2.273 . S
Cd100 O108 2.277 . S
O101 C98 1.160 . S
O101 Cd102 2.203 . S
Cd102 O101 2.203 . S
Cd102 O104 2.411 . S
Cd102 O105 2.333 . S
Cd102 O106 2.352 . S
Cd102 O110 2.277 . S
Cd102 O111 2.356 . S
C103 O108 1.209 . S
C103 O110 1.226 . S
O104 Cd100 2.273 . S
O104 Cd102 2.411 . S
O104 C107 1.320 . S
O105 Cd102 2.333 . S
O105 C107 1.214 . S
O106 Cd102 2.352 . S
O106 C109 1.258 . S
C107 O104 1.320 . S
C107 O105 1.214 . S
O108 Cd100 2.277 . S
O108 C103 1.209 . S
C109 O106 1.258 . S
C109 O111 1.282 . S
O110 Cd102 2.277 . S
O110 C103 1.226 . S
O111 Cd102 2.356 . S
O111 C109 1.282 . S
C112 O113 1.306 . S
C112 O115 1.160 . S
O113 C112 1.306 . S
O113 Cd114 2.228 . S
Cd114 O113 2.228 . S
Cd114 O118 2.273 . S
Cd114 O122 2.277 . S
O115 C112 1.160 . S
O115 Cd116 2.203 . S
Cd116 O115 2.203 . S
Cd116 O118 2.411 . S
Cd116 O119 2.333 . S
Cd116 O120 2.352 . S
Cd116 O124 2.277 . S
Cd116 O125 2.356 . S
C117 O122 1.209 . S
C117 O124 1.226 . S
O118 Cd114 2.273 . S
O118 Cd116 2.411 . S
O118 C121 1.320 . S
O119 Cd116 2.333 . S
O119 C121 1.214 . S
O120 Cd116 2.352 . S
O120 C123 1.258 . S
C121 O118 1.320 . S
C121 O119 1.214 . S
O122 Cd114 2.277 . S
O122 C117 1.209 . S
C123 O120 1.258 . S
C123 O125 1.282 . S
O124 Cd116 2.277 . S
O124 C117 1.226 . S
O125 Cd116 2.356 . S
O125 C123 1.282 . S
C126 O127 1.306 . S
C126 O129 1.160 . S
O127 C126 1.306 . S
O127 Cd128 2.228 . S
Cd128 O127 2.228 . S
Cd128 O132 2.273 . S
Cd128 O136 2.277 . S
O129 C126 1.160 . S
O129 Cd130 2.203 . S
Cd130 O129 2.203 . S
Cd130 O132 2.411 . S
Cd130 O133 2.333 . S
Cd130 O134 2.352 . S
Cd130 O138 2.277 . S
Cd130 O139 2.356 . S
C131 O136 1.209 . S
C131 O138 1.226 . S
O132 Cd128 2.273 . S
O132 Cd130 2.411 . S
O132 C135 1.320 . S
O133 Cd130 2.333 . S
O133 C135 1.214 . S
O134 Cd130 2.352 . S
O134 C137 1.258 . S
C135 O132 1.320 . S
C135 O133 1.214 . S
O136 Cd128 2.277 . S
O136 C131 1.209 . S
C137 O134 1.258 . S
C137 O139 1.282 . S
O138 Cd130 2.277 . S
O138 C131 1.226 . S
O139 Cd130 2.356 . S
O139 C137 1.282 . S
C140 O141 1.306 . S
C140 O143 1.160 . S
O141 C140 1.306 . S
O141 Cd142 2.228 . S
Cd142 O141 2.228 . S
Cd142 O146 2.273 . S
Cd142 O150 2.277 . S
O143 C140 1.160 . S
O143 Cd144 2.203 . S
Cd144 O143 2.203 . S
Cd144 O146 2.411 . S
Cd144 O147 2.333 . S
Cd144 O148 2.352 . S
Cd144 O152 2.277 . S
Cd144 O153 2.356 . S
C145 O150 1.209 . S
C145 O152 1.226 . S
O146 Cd142 2.273 . S
O146 Cd144 2.411 . S
O146 C149 1.320 . S
O147 Cd144 2.333 . S
O147 C149 1.214 . S
O148 Cd144 2.352 . S
O148 C151 1.258 . S
C149 O146 1.320 . S
C149 O147 1.214 . S
O150 Cd142 2.277 . S
O150 C145 1.209 . S
C151 O148 1.258 . S
C151 O153 1.282 . S
O152 Cd144 2.277 . S
O152 C145 1.226 . S
O153 Cd144 2.356 . S
O153 C151 1.282 . S
C154 O155 1.306 . S
C154 O157 1.160 . S
O155 C154 1.306 . S
O155 Cd156 2.228 . S
Cd156 O155 2.228 . S
Cd156 O160 2.273 . S
Cd156 O164 2.277 . S
O157 C154 1.160 . S
O157 Cd158 2.203 . S
Cd158 O157 2.203 . S
Cd158 O160 2.411 . S
Cd158 O161 2.333 . S
Cd158 O162 2.352 . S
Cd158 O166 2.277 . S
Cd158 O167 2.356 . S
C159 O164 1.209 . S
C159 O166 1.226 . S
O160 Cd156 2.273 . S
O160 Cd158 2.411 . S
O160 C163 1.320 . S
O161 Cd158 2.333 . S
O161 C163 1.214 . S
O162 Cd158 2.352 . S
O162 C165 1.258 . S
C163 O160 1.320 . S
C163 O161 1.214 . S
O164 Cd156 2.277 . S
O164 C159 1.209 . S
C165 O162 1.258 . S
C165 O167 1.282 . S
O166 Cd158 2.277 . S
O166 C159 1.226 . S
O167 Cd158 2.356 . S
O167 C165 1.282 . S
C168 O169 1.306 . S
C168 O171 1.160 . S
O169 C168 1.306 . S
O169 Cd170 2.228 . S
Cd170 O169 2.228 . S
Cd170 O174 2.273 . S
Cd170 O178 2.277 . S
O171 C168 1.160 . S
O171 Cd172 2.203 . S
Cd172 O171 2.203 . S
Cd172 O174 2.411 . S
Cd172 O175 2.333 . S
Cd172 O176 2.352 . S
Cd172 O180 2.277 . S
Cd172 O181 2.356 . S
C173 O178 1.209 . S
C173 O180 1.226 . S
O174 Cd170 2.273 . S
O174 Cd172 2.411 . S
O174 C177 1.320 . S
O175 Cd172 2.333 . S
O175 C177 1.214 . S
O176 Cd172 2.352 . S
O176 C179 1.258 . S
C177 O174 1.320 . S
C177 O175 1.214 . S
O178 Cd170 2.277 . S
O178 C173 1.209 . S
C179 O176 1.258 . S
C179 O181 1.282 . S
O180 Cd172 2.277 . S
O180 C173 1.226 . S
O181 Cd172 2.356 . S
O181 C179 1.282 . S
C182 O183 1.306 . S
C182 O185 1.160 . S
O183 C182 1.306 . S
O183 Cd184 2.228 . S
Cd184 O183 2.228 . S
Cd184 O188 2.273 . S
Cd184 O192 2.277 . S
O185 C182 1.160 . S
O185 Cd186 2.203 . S
Cd186 O185 2.203 . S
Cd186 O188 2.411 . S
Cd186 O189 2.333 . S
Cd186 O190 2.352 . S
Cd186 O194 2.277 . S
Cd186 O195 2.356 . S
C187 O192 1.209 . S
C187 O194 1.226 . S
O188 Cd184 2.273 . S
O188 Cd186 2.411 . S
O188 C191 1.320 . S
O189 Cd186 2.333 . S
O189 C191 1.214 . S
O190 Cd186 2.352 . S
O190 C193 1.258 . S
C191 O188 1.320 . S
C191 O189 1.214 . S
O192 Cd184 2.277 . S
O192 C187 1.209 . S
C193 O190 1.258 . S
C193 O195 1.282 . S
O194 Cd186 2.277 . S
O194 C187 1.226 . S
O195 Cd186 2.356 . S
O195 C193 1.282 . S
C196 O197 1.306 . S
C196 O199 1.160 . S
O197 C196 1.306 . S
O197 Cd198 2.228 . S
Cd198 O197 2.228 . S
Cd198 O202 2.273 . S
Cd198 O206 2.277 . S
O199 C196 1.160 . S
O199 Cd200 2.203 . S
Cd200 O199 2.203 . S
Cd200 O202 2.411 . S
Cd200 O203 2.333 . S
Cd200 O204 2.352 . S
Cd200 O208 2.277 . S
Cd200 O209 2.356 . S
C201 O206 1.209 . S
C201 O208 1.226 . S
O202 Cd198 2.273 . S
O202 Cd200 2.411 . S
O202 C205 1.320 . S
O203 Cd200 2.333 . S
O203 C205 1.214 . S
O204 Cd200 2.352 . S
O204 C207 1.258 . S
C205 O202 1.320 . S
C205 O203 1.214 . S
O206 Cd198 2.277 . S
O206 C201 1.209 . S
C207 O204 1.258 . S
C207 O209 1.282 . S
O208 Cd200 2.277 . S
O208 C201 1.226 . S
O209 Cd200 2.356 . S
O209 C207 1.282 . S
C210 O211 1.306 . S
C210 O213 1.160 . S
O211 C210 1.306 . S
O211 Cd212 2.228 . S
Cd212 O211 2.228 . S
Cd212 O216 2.273 . S
Cd212 O220 2.277 . S
O213 C210 1.160 . S
O213 Cd214 2.203 . S
Cd214 O213 2.203 . S
Cd214 O216 2.411 . S
Cd214 O217 2.333 . S
Cd214 O218 2.352 . S
Cd214 O222 2.277 . S
Cd214 O223 2.356 . S
C215 O220 1.209 . S
C215 O222 1.226 . S
O216 Cd212 2.273 . S
O216 Cd214 2.411 . S
O216 C219 1.320 . S
O217 Cd214 2.333 . S
O217 C219 1.214 . S
O218 Cd214 2.352 . S
O218 C221 1.258 . S
C219 O216 1.320 . S
C219 O217 1.214 . S
O220 Cd212 2.277 . S
O220 C215 1.209 . S
C221 O218 1.258 . S
C221 O223 1.282 . S
O222 Cd214 2.277 . S
O222 C215 1.226 . S
O223 Cd214 2.356 . S
O223 C221 1.282 . S
C224 O225 1.306 . S
C224 O227 1.160 . S
O225 C224 1.306 . S
O225 Cd226 2.228 . S
Cd226 O225 2.228 . S
Cd226 O230 2.273 . S
Cd226 O234 2.277 . S
O227 C224 1.160 . S
O227 Cd228 2.203 . S
Cd228 O227 2.203 . S
Cd228 O230 2.411 . S
Cd228 O231 2.333 . S
Cd228 O232 2.352 . S
Cd228 O236 2.277 . S
Cd228 O237 2.356 . S
C229 O234 1.209 . S
C229 O236 1.226 . S
O230 Cd226 2.273 . S
O230 Cd228 2.411 . S
O230 C233 1.320 . S
O231 Cd228 2.333 . S
O231 C233 1.214 . S
O232 Cd228 2.352 . S
O232 C235 1.258 . S
C233 O230 1.320 . S
C233 O231 1.214 . S
O234 Cd226 2.277 . S
O234 C229 1.209 . S
C235 O232 1.258 . S
C235 O237 1.282 . S
O236 Cd228 2.277 . S
O236 C229 1.226 . S
O237 Cd228 2.356 . S
O237 C235 1.282 . S
C238 O239 1.306 . S
C238 O241 1.160 . S
O239 C238 1.306 . S
O239 Cd240 2.228 . S
Cd240 O239 2.228 . S
Cd240 O244 2.273 . S
Cd240 O248 2.277 . S
O241 C238 1.160 . S
O241 Cd242 2.203 . S
Cd242 O241 2.203 . S
Cd242 O244 2.411 . S
Cd242 O245 2.333 . S
Cd242 O246 2.352 . S
Cd242 O250 2.277 . S
Cd242 O251 2.356 . S
C243 O248 1.209 . S
C243 O250 1.226 . S
O244 Cd240 2.273 . S
O244 Cd242 2.411 . S
O244 C247 1.320 . S
O245 Cd242 2.333 . S
O245 C247 1.214 . S
O246 Cd242 2.352 . S
O246 C249 1.258 . S
C247 O244 1.320 . S
C247 O245 1.214 . S
O248 Cd240 2.277 . S
O248 C243 1.209 . S
C249 O246 1.258 . S
C249 O251 1.282 . S
O250 Cd242 2.277 . S
O250 C243 1.226 . S
O251 Cd242 2.356 . S
O251 C249 1.282 . S
C252 O253 1.306 . S
C252 O255 1.160 . S
O253 C252 1.306 . S
O253 Cd254 2.228 . S
Cd254 O253 2.228 . S
Cd254 O258 2.273 . S
Cd254 O262 2.277 . S
O255 C252 1.160 . S
O255 Cd256 2.203 . S
Cd256 O255 2.203 . S
Cd256 O258 2.411 . S
Cd256 O259 2.333 . S
Cd256 O260 2.352 . S
Cd256 O264 2.277 . S
Cd256 O265 2.356 . S
C257 O262 1.209 . S
C257 O264 1.226 . S
O258 Cd254 2.273 . S
O258 Cd256 2.411 . S
O258 C261 1.320 . S
O259 Cd256 2.333 . S
O259 C261 1.214 . S
O260 Cd256 2.352 . S
O260 C263 1.258 . S
C261 O258 1.320 . S
C261 O259 1.214 . S
O262 Cd254 2.277 . S
O262 C257 1.209 . S
C263 O260 1.258 . S
C263 O265 1.282 . S
O264 Cd256 2.277 . S
O264 C257 1.226 . S
O265 Cd256 2.356 . S
O265 C263 1.282 . S
C266 O267 1.306 . S
C266 O269 1.160 . S
O267 C266 1.306 . S
O267 Cd268 2.228 . S
Cd268 O267 2.228 . S
Cd268 O272 2.273 . S
Cd268 O276 2.277 . S
O269 C266 1.160 . S
O269 Cd270 2.203 . S
Cd270 O269 2.203 . S
Cd270 O272 2.411 . S
Cd270 O273 2.333 . S
Cd270 O274 2.352 . S
Cd270 O278 2.277 . S
Cd270 O279 2.356 . S
C271 O276 1.209 . S
C271 O278 1.226 . S
O272 Cd268 2.273 . S
O272 Cd270 2.411 . S
O272 C275 1.320 . S
O273 Cd270 2.333 . S
O273 C275 1.214 . S
O274 Cd270 2.352 . S
O274 C277 1.258 . S
C275 O272 1.320 . S
C275 O273 1.214 . S
O276 Cd268 2.277 . S
O276 C271 1.209 . S
C277 O274 1.258 . S
C277 O279 1.282 . S
O278 Cd270 2.277 . S
O278 C271 1.226 . S
O279 Cd270 2.356 . S
O279 C277 1.282 . S
C280 O281 1.306 . S
C280 O283 1.160 . S
O281 C280 1.306 . S
O281 Cd282 2.228 . S
Cd282 O281 2.228 . S
Cd282 O286 2.273 . S
Cd282 O290 2.277 . S
O283 C280 1.160 . S
O283 Cd284 2.203 . S
Cd284 O283 2.203 . S
Cd284 O286 2.411 . S
Cd284 O287 2.333 . S
Cd284 O288 2.352 . S
Cd284 O292 2.277 . S
Cd284 O293 2.356 . S
C285 O290 1.209 . S
C285 O292 1.226 . S
O286 Cd282 2.273 . S
O286 Cd284 2.411 . S
O286 C289 1.320 . S
O287 Cd284 2.333 . S
O287 C289 1.214 . S
O288 Cd284 2.352 . S
O288 C291 1.258 . S
C289 O286 1.320 . S
C289 O287 1.214 . S
O290 Cd282 2.277 . S
O290 C285 1.209 . S
C291 O288 1.258 . S
C291 O293 1.282 . S
O292 Cd284 2.277 . S
O292 C285 1.226 . S
O293 Cd284 2.356 . S
O293 C291 1.282 . S
C294 O295 1.306 . S
C294 O297 1.160 . S
O295 C294 1.306 . S
O295 Cd296 2.228 . S
Cd296 O295 2.228 . S
Cd296 O300 2.273 . S
Cd296 O304 2.277 . S
O297 C294 1.160 . S
O297 Cd298 2.203 . S
Cd298 O297 2.203 . S
Cd298 O300 2.411 . S
Cd298 O301 2.333 . S
Cd298 O302 2.352 . S
Cd298 O306 2.277 . S
Cd298 O307 2.356 . S
C299 O304 1.209 . S
C299 O306 1.226 . S
O300 Cd296 2.273 . S
O300 Cd298 2.411 . S
O300 C303 1.320 . S
O301 Cd298 2.333 . S
O301 C303 1.214 . S
O302 Cd298 2.352 . S
O302 C305 1.258 . S
C303 O300 1.320 . S
C303 O301 1.214 . S
O304 Cd296 2.277 . S
O304 C299 1.209 . S
C305 O302 1.258 . S
C305 O307 1.282 . S
O306 Cd298 2.277 . S
O306 C299 1.226 . S
O307 Cd298 2.356 . S
O307 C305 1.282 . S
C308 O309 1.306 . S
C308 O311 1.160 . S
O309 C308 1.306 . S
O309 Cd310 2.228 . S
Cd310 O309 2.228 . S
Cd310 O314 2.273 . S
Cd310 O318 2.277 . S
O311 C308 1.160 . S
O311 Cd312 2.203 . S
Cd312 O311 2.203 . S
Cd312 O314 2.411 . S
Cd312 O315 2.333 . S
Cd312 O316 2.352 . S
Cd312 O320 2.277 . S
Cd312 O321 2.356 . S
C313 O318 1.209 . S
C313 O320 1.226 . S
O314 Cd310 2.273 . S
O314 Cd312 2.411 . S
O314 C317 1.320 . S
O315 Cd312 2.333 . S
O315 C317 1.214 . S
O316 Cd312 2.352 . S
O316 C319 1.258 . S
C317 O314 1.320 . S
C317 O315 1.214 . S
O318 Cd310 2.277 . S
O318 C313 1.209 . S
C319 O316 1.258 . S
C319 O321 1.282 . S
O320 Cd312 2.277 . S
O320 C313 1.226 . S
O321 Cd312 2.356 . S
O321 C319 1.282 . S
C322 O323 1.306 . S
C322 O325 1.160 . S
O323 C322 1.306 . S
O323 Cd324 2.228 . S
Cd324 O323 2.228 . S
Cd324 O328 2.273 . S
Cd324 O332 2.277 . S
O325 C322 1.160 . S
O325 Cd326 2.203 . S
Cd326 O325 2.203 . S
Cd326 O328 2.411 . S
Cd326 O329 2.333 . S
Cd326 O330 2.352 . S
Cd326 O334 2.277 . S
Cd326 O335 2.356 . S
C327 O332 1.209 . S
C327 O334 1.226 . S
O328 Cd324 2.273 . S
O328 Cd326 2.411 . S
O328 C331 1.320 . S
O329 Cd326 2.333 . S
O329 C331 1.214 . S
O330 Cd326 2.352 . S
O330 C333 1.258 . S
C331 O328 1.320 . S
C331 O329 1.214 . S
O332 Cd324 2.277 . S
O332 C327 1.209 . S
C333 O330 1.258 . S
C333 O335 1.282 . S
O334 Cd326 2.277 . S
O334 C327 1.226 . S
O335 Cd326 2.356 . S
O335 C333 1.282 . S
C336 O337 1.306 . S
C336 O339 1.160 . S
O337 C336 1.306 . S
O337 Cd338 2.228 . S
Cd338 O337 2.228 . S
Cd338 O342 2.273 . S
Cd338 O346 2.277 . S
O339 C336 1.160 . S
O339 Cd340 2.203 . S
Cd340 O339 2.203 . S
Cd340 O342 2.411 . S
Cd340 O343 2.333 . S
Cd340 O344 2.352 . S
Cd340 O348 2.277 . S
Cd340 O349 2.356 . S
C341 O346 1.209 . S
C341 O348 1.226 . S
O342 Cd338 2.273 . S
O342 Cd340 2.411 . S
O342 C345 1.320 . S
O343 Cd340 2.333 . S
O343 C345 1.214 . S
O344 Cd340 2.352 . S
O344 C347 1.258 . S
C345 O342 1.320 . S
C345 O343 1.214 . S
O346 Cd338 2.277 . S
O346 C341 1.209 . S
C347 O344 1.258 . S
C347 O349 1.282 . S
O348 Cd340 2.277 . S
O348 C341 1.226 . S
O349 Cd340 2.356 . S
O349 C347 1.282 . S
C350 O351 1.306 . S
C350 O353 1.160 . S
O351 C350 1.306 . S
O351 Cd352 2.228 . S
Cd352 O351 2.228 . S
Cd352 O356 2.273 . S
Cd352 O360 2.277 . S
O353 C350 1.160 . S
O353 Cd354 2.203 . S
Cd354 O353 2.203 . S
Cd354 O356 2.411 . S
Cd354 O357 2.333 . S
Cd354 O358 2.352 . S
Cd354 O362 2.277 . S
Cd354 O363 2.356 . S
C355 O360 1.209 . S
C355 O362 1.226 . S
O356 Cd352 2.273 . S
O356 Cd354 2.411 . S
O356 C359 1.320 . S
O357 Cd354 2.333 . S
O357 C359 1.214 . S
O358 Cd354 2.352 . S
O358 C361 1.258 . S
C359 O356 1.320 . S
C359 O357 1.214 . S
O360 Cd352 2.277 . S
O360 C355 1.209 . S
C361 O358 1.258 . S
C361 O363 1.282 . S
O362 Cd354 2.277 . S
O362 C355 1.226 . S
O363 Cd354 2.356 . S
O363 C361 1.282 . S
C364 O365 1.306 . S
C364 O367 1.160 . S
O365 C364 1.306 . S
O365 Cd366 2.228 . S
Cd366 O365 2.228 . S
Cd366 O370 2.273 . S
Cd366 O374 2.277 . S
O367 C364 1.160 . S
O367 Cd368 2.203 . S
Cd368 O367 2.203 . S
Cd368 O370 2.411 . S
Cd368 O371 2.333 . S
Cd368 O372 2.352 . S
Cd368 O376 2.277 . S
Cd368 O377 2.356 . S
C369 O374 1.209 . S
C369 O376 1.226 . S
O370 Cd366 2.273 . S
O370 Cd368 2.411 . S
O370 C373 1.320 . S
O371 Cd368 2.333 . S
O371 C373 1.214 . S
O372 Cd368 2.352 . S
O372 C375 1.258 . S
C373 O370 1.320 . S
C373 O371 1.214 . S
O374 Cd366 2.277 . S
O374 C369 1.209 . S
C375 O372 1.258 . S
C375 O377 1.282 . S
O376 Cd368 2.277 . S
O376 C369 1.226 . S
O377 Cd368 2.356 . S
O377 C375 1.282 . S
C378 O379 1.306 . S
C378 O381 1.160 . S
O379 C378 1.306 . S
O379 Cd380 2.228 . S
Cd380 O379 2.228 . S
Cd380 O384 2.273 . S
Cd380 O388 2.277 . S
O381 C378 1.160 . S
O381 Cd382 2.203 . S
Cd382 O381 2.203 . S
Cd382 O384 2.411 . S
Cd382 O385 2.333 . S
Cd382 O386 2.352 . S
Cd382 O390 2.277 . S
Cd382 O391 2.356 . S
C383 O388 1.209 . S
C383 O390 1.226 . S
O384 Cd380 2.273 . S
O384 Cd382 2.411 . S
O384 C387 1.320 . S
O385 Cd382 2.333 . S
O385 C387 1.214 . S
O386 Cd382 2.352 . S
O386 C389 1.258 . S
C387 O384 1.320 . S
C387 O385 1.214 . S
O388 Cd380 2.277 . S
O388 C383 1.209 . S
C389 O386 1.258 . S
C389 O391 1.282 . S
O390 Cd382 2.277 . S
O390 C383 1.226 . S
O391 Cd382 2.356 . S
O391 C389 1.282 . S
C392 O393 1.306 . S
C392 O395 1.160 . S
O393 C392 1.306 . S
O393 Cd394 2.228 . S
Cd394 O393 2.228 . S
Cd394 O398 2.273 . S
Cd394 O402 2.277 . S
O395 C392 1.160 . S
O395 Cd396 2.203 . S
Cd396 O395 2.203 . S
Cd396 O398 2.411 . S
Cd396 O399 2.333 . S
Cd396 O400 2.352 . S
Cd396 O404 2.277 . S
Cd396 O405 2.356 . S
C397 O402 1.209 . S
C397 O404 1.226 . S
O398 Cd394 2.273 . S
O398 Cd396 2.411 . S
O398 C401 1.320 . S
O399 Cd396 2.333 . S
O399 C401 1.214 . S
O400 Cd396 2.352 . S
O400 C403 1.258 . S
C401 O398 1.320 . S
C401 O399 1.214 . S
O402 Cd394 2.277 . S
O402 C397 1.209 . S
C403 O400 1.258 . S
C403 O405 1.282 . S
O404 Cd396 2.277 . S
O404 C397 1.226 . S
O405 Cd396 2.356 . S
O405 C403 1.282 . S
C406 O407 1.306 . S
C406 O409 1.160 . S
O407 C406 1.306 . S
O407 Cd408 2.228 . S
Cd408 O407 2.228 . S
Cd408 O412 2.273 . S
Cd408 O416 2.277 . S
O409 C406 1.160 . S
O409 Cd410 2.203 . S
Cd410 O409 2.203 . S
Cd410 O412 2.411 . S
Cd410 O413 2.333 . S
Cd410 O414 2.352 . S
Cd410 O418 2.277 . S
Cd410 O419 2.356 . S
C411 O416 1.209 . S
C411 O418 1.226 . S
O412 Cd408 2.273 . S
O412 Cd410 2.411 . S
O412 C415 1.320 . S
O413 Cd410 2.333 . S
O413 C415 1.214 . S
O414 Cd410 2.352 . S
O414 C417 1.258 . S
C415 O412 1.320 . S
C415 O413 1.214 . S
O416 Cd408 2.277 . S
O416 C411 1.209 . S
C417 O414 1.258 . S
C417 O419 1.282 . S
O418 Cd410 2.277 . S
O418 C411 1.226 . S
O419 Cd410 2.356 . S
O419 C417 1.282 . S
C420 O421 1.306 . S
C420 O423 1.160 . S
O421 C420 1.306 . S
O421 Cd422 2.228 . S
Cd422 O421 2.228 . S
Cd422 O426 2.273 . S
Cd422 O430 2.277 . S
O423 C420 1.160 . S
O423 Cd424 2.203 . S
Cd424 O423 2.203 . S
Cd424 O426 2.411 . S
Cd424 O427 2.333 . S
Cd424 O428 2.352 . S
Cd424 O432 2.277 . S
Cd424 O433 2.356 . S
C425 O430 1.209 . S
C425 O432 1.226 . S
O426 Cd422 2.273 . S
O426 Cd424 2.411 . S
O426 C429 1.320 . S
O427 Cd424 2.333 . S
O427 C429 1.214 . S
O428 Cd424 2.352 . S
O428 C431 1.258 . S
C429 O426 1.320 . S
C429 O427 1.214 . S
O430 Cd422 2.277 . S
O430 C425 1.209 . S
C431 O428 1.258 . S
C431 O433 1.282 . S
O432 Cd424 2.277 . S
O432 C425 1.226 . S
O433 Cd424 2.356 . S
O433 C431 1.282 . S
C434 O435 1.306 . S
C434 O437 1.160 . S
O435 C434 1.306 . S
O435 Cd436 2.228 . S
Cd436 O435 2.228 . S
Cd436 O440 2.273 . S
Cd436 O444 2.277 . S
O437 C434 1.160 . S
O437 Cd438 2.203 . S
Cd438 O437 2.203 . S
Cd438 O440 2.411 . S
Cd438 O441 2.333 . S
Cd438 O442 2.352 . S
Cd438 O446 2.277 . S
Cd438 O447 2.356 . S
C439 O444 1.209 . S
C439 O446 1.226 . S
O440 Cd436 2.273 . S
O440 Cd438 2.411 . S
O440 C443 1.320 . S
O441 Cd438 2.333 . S
O441 C443 1.214 . S
O442 Cd438 2.352 . S
O442 C445 1.258 . S
C443 O440 1.320 . S
C443 O441 1.214 . S
O444 Cd436 2.277 . S
O444 C439 1.209 . S
C445 O442 1.258 . S
C445 O447 1.282 . S
O446 Cd438 2.277 . S
O446 C439 1.226 . S
O447 Cd438 2.356 . S
O447 C445 1.282 . S
H448 C456 0.950 . S
H449 C461 0.950 . S
H450 C458 0.950 . S
H451 C460 0.950 . S
H452 C462 0.950 . S
H453 C464 0.950 . S
H454 C466 0.950 . S
H455 C467 0.950 . S
C456 H448 0.950 . S
C456 C457 1.386 . S
C456 C458 1.391 . S
C457 C456 1.386 . S
C457 C461 1.393 . S
C458 H450 0.950 . S
C458 C456 1.391 . S
C458 C459 1.400 . S
C459 C458 1.400 . S
C459 C460 1.398 . S
C459 C465 1.491 . S
C460 H451 0.950 . S
C460 C459 1.398 . S
C460 C461 1.391 . S
C461 H449 0.950 . S
C461 C457 1.393 . S
C461 C460 1.391 . S
C462 H452 0.950 . S
C462 C463 1.386 . S
C462 C464 1.391 . S
C463 C462 1.386 . S
C463 C467 1.393 . S
C464 H453 0.950 . S
C464 C462 1.391 . S
C464 C465 1.400 . S
C465 C459 1.491 . S
C465 C464 1.400 . S
C465 C466 1.398 . S
C466 H454 0.950 . S
C466 C465 1.398 . S
C466 C467 1.391 . S
C467 H455 0.950 . S
C467 C463 1.393 . S
C467 C466 1.391 . S
H468 C476 0.950 . S
H469 C481 0.950 . S
H470 C478 0.950 . S
H471 C480 0.950 . S
H472 C482 0.950 . S
H473 C484 0.950 . S
H474 C486 0.950 . S
H475 C487 0.950 . S
C476 H468 0.950 . S
C476 C477 1.386 . S
C476 C478 1.391 . S
C477 C476 1.386 . S
C477 C481 1.393 . S
C478 H470 0.950 . S
C478 C476 1.391 . S
C478 C479 1.400 . S
C479 C478 1.400 . S
C479 C480 1.398 . S
C479 C485 1.491 . S
C480 H471 0.950 . S
C480 C479 1.398 . S
C480 C481 1.391 . S
C481 H469 0.950 . S
C481 C477 1.393 . S
C481 C480 1.391 . S
C482 H472 0.950 . S
C482 C483 1.386 . S
C482 C484 1.391 . S
C483 C482 1.386 . S
C483 C487 1.393 . S
C484 H473 0.950 . S
C484 C482 1.391 . S
C484 C485 1.400 . S
C485 C479 1.491 . S
C485 C484 1.400 . S
C485 C486 1.398 . S
C486 H474 0.950 . S
C486 C485 1.398 . S
C486 C487 1.391 . S
C487 H475 0.950 . S
C487 C483 1.393 . S
C487 C486 1.391 . S
H488 C496 0.950 . S
H489 C501 0.950 . S
H490 C498 0.950 . S
H491 C500 0.950 . S
H492 C502 0.950 . S
H493 C504 0.950 . S
H494 C506 0.950 . S
H495 C507 0.950 . S
C496 H488 0.950 . S
C496 C497 1.386 . S
C496 C498 1.391 . S
C497 C496 1.386 . S
C497 C501 1.393 . S
C498 H490 0.950 . S
C498 C496 1.391 . S
C498 C499 1.400 . S
C499 C498 1.400 . S
C499 C500 1.398 . S
C499 C505 1.491 . S
C500 H491 0.950 . S
C500 C499 1.398 . S
C500 C501 1.391 . S
C501 H489 0.950 . S
C501 C497 1.393 . S
C501 C500 1.391 . S
C502 H492 0.950 . S
C502 C503 1.386 . S
C502 C504 1.391 . S
C503 C502 1.386 . S
C503 C507 1.393 . S
C504 H493 0.950 . S
C504 C502 1.391 . S
C504 C505 1.400 . S
C505 C499 1.491 . S
C505 C504 1.400 . S
C505 C506 1.398 . S
C506 H494 0.950 . S
C506 C505 1.398 . S
C506 C507 1.391 . S
C507 H495 0.950 . S
C507 C503 1.393 . S
C507 C506 1.391 . S
H508 C516 0.950 . S
H509 C521 0.950 . S
H510 C518 0.950 . S
H511 C520 0.950 . S
H512 C522 0.950 . S
H513 C524 0.950 . S
H514 C526 0.950 . S
H515 C527 0.950 . S
C516 H508 0.950 . S
C516 C517 1.386 . S
C516 C518 1.391 . S
C517 C516 1.386 . S
C517 C521 1.393 . S
C518 H510 0.950 . S
C518 C516 1.391 . S
C518 C519 1.400 . S
C519 C518 1.400 . S
C519 C520 1.398 . S
C519 C525 1.491 . S
C520 H511 0.950 . S
C520 C519 1.398 . S
C520 C521 1.391 . S
C521 H509 0.950 . S
C521 C517 1.393 . S
C521 C520 1.391 . S
C522 H512 0.950 . S
C522 C523 1.386 . S
C522 C524 1.391 . S
C523 C522 1.386 . S
C523 C527 1.393 . S
C524 H513 0.950 . S
C524 C522 1.391 . S
C524 C525 1.400 . S
C525 C519 1.491 . S
C525 C524 1.400 . S
C525 C526 1.398 . S
C526 H514 0.950 . S
C526 C525 1.398 . S
C526 C527 1.391 . S
C527 H515 0.950 . S
C527 C523 1.393 . S
C527 C526 1.391 . S
H528 C536 0.950 . S
H529 C541 0.950 . S
H530 C538 0.950 . S
H531 C540 0.950 . S
H532 C542 0.950 . S
H533 C544 0.950 . S
H534 C546 0.950 . S
H535 C547 0.950 . S
C536 H528 0.950 . S
C536 C537 1.386 . S
C536 C538 1.391 . S
C537 C536 1.386 . S
C537 C541 1.393 . S
C538 H530 0.950 . S
C538 C536 1.391 . S
C538 C539 1.400 . S
C539 C538 1.400 . S
C539 C540 1.398 . S
C539 C545 1.491 . S
C540 H531 0.950 . S
C540 C539 1.398 . S
C540 C541 1.391 . S
C541 H529 0.950 . S
C541 C537 1.393 . S
C541 C540 1.391 . S
C542 H532 0.950 . S
C542 C543 1.386 . S
C542 C544 1.391 . S
C543 C542 1.386 . S
C543 C547 1.393 . S
C544 H533 0.950 . S
C544 C542 1.391 . S
C544 C545 1.400 . S
C545 C539 1.491 . S
C545 C544 1.400 . S
C545 C546 1.398 . S
C546 H534 0.950 . S
C546 C545 1.398 . S
C546 C547 1.391 . S
C547 H535 0.950 . S
C547 C543 1.393 . S
C547 C546 1.391 . S
H548 C556 0.950 . S
H549 C561 0.950 . S
H550 C558 0.950 . S
H551 C560 0.950 . S
H552 C562 0.950 . S
H553 C564 0.950 . S
H554 C566 0.950 . S
H555 C567 0.950 . S
C556 H548 0.950 . S
C556 C557 1.386 . S
C556 C558 1.391 . S
C557 C556 1.386 . S
C557 C561 1.393 . S
C558 H550 0.950 . S
C558 C556 1.391 . S
C558 C559 1.400 . S
C559 C558 1.400 . S
C559 C560 1.398 . S
C559 C565 1.491 . S
C560 H551 0.950 . S
C560 C559 1.398 . S
C560 C561 1.391 . S
C561 H549 0.950 . S
C561 C557 1.393 . S
C561 C560 1.391 . S
C562 H552 0.950 . S
C562 C563 1.386 . S
C562 C564 1.391 . S
C563 C562 1.386 . S
C563 C567 1.393 . S
C564 H553 0.950 . S
C564 C562 1.391 . S
C564 C565 1.400 . S
C565 C559 1.491 . S
C565 C564 1.400 . S
C565 C566 1.398 . S
C566 H554 0.950 . S
C566 C565 1.398 . S
C566 C567 1.391 . S
C567 H555 0.950 . S
C567 C563 1.393 . S
C567 C566 1.391 . S
H568 C576 0.950 . S
H569 C581 0.950 . S
H570 C578 0.950 . S
H571 C580 0.950 . S
H572 C582 0.950 . S
H573 C584 0.950 . S
H574 C586 0.950 . S
H575 C587 0.950 . S
C576 H568 0.950 . S
C576 C577 1.386 . S
C576 C578 1.391 . S
C577 C576 1.386 . S
C577 C581 1.393 . S
C578 H570 0.950 . S
C578 C576 1.391 . S
C578 C579 1.400 . S
C579 C578 1.400 . S
C579 C580 1.398 . S
C579 C585 1.491 . S
C580 H571 0.950 . S
C580 C579 1.398 . S
C580 C581 1.391 . S
C581 H569 0.950 . S
C581 C577 1.393 . S
C581 C580 1.391 . S
C582 H572 0.950 . S
C582 C583 1.386 . S
C582 C584 1.391 . S
C583 C582 1.386 . S
C583 C587 1.393 . S
C584 H573 0.950 . S
C584 C582 1.391 . S
C584 C585 1.400 . S
C585 C579 1.491 . S
C585 C584 1.400 . S
C585 C586 1.398 . S
C586 H574 0.950 . S
C586 C585 1.398 . S
C586 C587 1.391 . S
C587 H575 0.950 . S
C587 C583 1.393 . S
C587 C586 1.391 . S
H588 C596 0.950 . S
H589 C601 0.950 . S
H590 C598 0.950 . S
H591 C600 0.950 . S
H592 C602 0.950 . S
H593 C604 0.950 . S
H594 C606 0.950 . S
H595 C607 0.950 . S
C596 H588 0.950 . S
C596 C597 1.386 . S
C596 C598 1.391 . S
C597 C596 1.386 . S
C597 C601 1.393 . S
C598 H590 0.950 . S
C598 C596 1.391 . S
C598 C599 1.400 . S
C599 C598 1.400 . S
C599 C600 1.398 . S
C599 C605 1.491 . S
C600 H591 0.950 . S
C600 C599 1.398 . S
C600 C601 1.391 . S
C601 H589 0.950 . S
C601 C597 1.393 . S
C601 C600 1.391 . S
C602 H592 0.950 . S
C602 C603 1.386 . S
C602 C604 1.391 . S
C603 C602 1.386 . S
C603 C607 1.393 . S
C604 H593 0.950 . S
C604 C602 1.391 . S
C604 C605 1.400 . S
C605 C599 1.491 . S
C605 C604 1.400 . S
C605 C606 1.398 . S
C606 H594 0.950 . S
C606 C605 1.398 . S
C606 C607 1.391 . S
C607 H595 0.950 . S
C607 C603 1.393 . S
C607 C606 1.391 . S
H608 C616 0.950 . S
H609 C621 0.950 . S
H610 C618 0.950 . S
H611 C620 0.950 . S
H612 C622 0.950 . S
H613 C624 0.950 . S
H614 C626 0.950 . S
H615 C627 0.950 . S
C616 H608 0.950 . S
C616 C617 1.386 . S
C616 C618 1.391 . S
C617 C616 1.386 . S
C617 C621 1.393 . S
C618 H610 0.950 . S
C618 C616 1.391 . S
C618 C619 1.400 . S
C619 C618 1.400 . S
C619 C620 1.398 . S
C619 C625 1.491 . S
C620 H611 0.950 . S
C620 C619 1.398 . S
C620 C621 1.391 . S
C621 H609 0.950 . S
C621 C617 1.393 . S
C621 C620 1.391 . S
C622 H612 0.950 . S
C622 C623 1.386 . S
C622 C624 1.391 . S
C623 C622 1.386 . S
C623 C627 1.393 . S
C624 H613 0.950 . S
C624 C622 1.391 . S
C624 C625 1.400 . S
C625 C619 1.491 . S
C625 C624 1.400 . S
C625 C626 1.398 . S
C626 H614 0.950 . S
C626 C625 1.398 . S
C626 C627 1.391 . S
C627 H615 0.950 . S
C627 C623 1.393 . S
C627 C626 1.391 . S
H628 C636 0.950 . S
H629 C641 0.950 . S
H630 C638 0.950 . S
H631 C640 0.950 . S
H632 C642 0.950 . S
H633 C644 0.950 . S
H634 C646 0.950 . S
H635 C647 0.950 . S
C636 H628 0.950 . S
C636 C637 1.386 . S
C636 C638 1.391 . S
C637 C636 1.386 . S
C637 C641 1.393 . S
C638 H630 0.950 . S
C638 C636 1.391 . S
C638 C639 1.400 . S
C639 C638 1.400 . S
C639 C640 1.398 . S
C639 C645 1.491 . S
C640 H631 0.950 . S
C640 C639 1.398 . S
C640 C641 1.391 . S
C641 H629 0.950 . S
C641 C637 1.393 . S
C641 C640 1.391 . S
C642 H632 0.950 . S
C642 C643 1.386 . S
C642 C644 1.391 . S
C643 C642 1.386 . S
C643 C647 1.393 . S
C644 H633 0.950 . S
C644 C642 1.391 . S
C644 C645 1.400 . S
C645 C639 1.491 . S
C645 C644 1.400 . S
C645 C646 1.398 . S
C646 H634 0.950 . S
C646 C645 1.398 . S
C646 C647 1.391 . S
C647 H635 0.950 . S
C647 C643 1.393 . S
C647 C646 1.391 . S
H648 C656 0.950 . S
H649 C661 0.950 . S
H650 C658 0.950 . S
H651 C660 0.950 . S
H652 C662 0.950 . S
H653 C664 0.950 . S
H654 C666 0.950 . S
H655 C667 0.950 . S
C656 H648 0.950 . S
C656 C657 1.386 . S
C656 C658 1.391 . S
C657 C656 1.386 . S
C657 C661 1.393 . S
C658 H650 0.950 . S
C658 C656 1.391 . S
C658 C659 1.400 . S
C659 C658 1.400 . S
C659 C660 1.398 . S
C659 C665 1.491 . S
C660 H651 0.950 . S
C660 C659 1.398 . S
C660 C661 1.391 . S
C661 H649 0.950 . S
C661 C657 1.393 . S
C661 C660 1.391 . S
C662 H652 0.950 . S
C662 C663 1.386 . S
C662 C664 1.391 . S
C663 C662 1.386 . S
C663 C667 1.393 . S
C664 H653 0.950 . S
C664 C662 1.391 . S
C664 C665 1.400 . S
C665 C659 1.491 . S
C665 C664 1.400 . S
C665 C666 1.398 . S
C666 H654 0.950 . S
C666 C665 1.398 . S
C666 C667 1.391 . S
C667 H655 0.950 . S
C667 C663 1.393 . S
C667 C666 1.391 . S
H668 C676 0.950 . S
H669 C681 0.950 . S
H670 C678 0.950 . S
H671 C680 0.950 . S
H672 C682 0.950 . S
H673 C684 0.950 . S
H674 C686 0.950 . S
H675 C687 0.950 . S
C676 H668 0.950 . S
C676 C677 1.386 . S
C676 C678 1.391 . S
C677 C676 1.386 . S
C677 C681 1.393 . S
C678 H670 0.950 . S
C678 C676 1.391 . S
C678 C679 1.400 . S
C679 C678 1.400 . S
C679 C680 1.398 . S
C679 C685 1.491 . S
C680 H671 0.950 . S
C680 C679 1.398 . S
C680 C681 1.391 . S
C681 H669 0.950 . S
C681 C677 1.393 . S
C681 C680 1.391 . S
C682 H672 0.950 . S
C682 C683 1.386 . S
C682 C684 1.391 . S
C683 C682 1.386 . S
C683 C687 1.393 . S
C684 H673 0.950 . S
C684 C682 1.391 . S
C684 C685 1.400 . S
C685 C679 1.491 . S
C685 C684 1.400 . S
C685 C686 1.398 . S
C686 H674 0.950 . S
C686 C685 1.398 . S
C686 C687 1.391 . S
C687 H675 0.950 . S
C687 C683 1.393 . S
C687 C686 1.391 . S
H688 C696 0.950 . S
H689 C701 0.950 . S
H690 C698 0.950 . S
H691 C700 0.950 . S
H692 C702 0.950 . S
H693 C704 0.950 . S
H694 C706 0.950 . S
H695 C707 0.950 . S
C696 H688 0.950 . S
C696 C697 1.386 . S
C696 C698 1.391 . S
C697 C696 1.386 . S
C697 C701 1.393 . S
C698 H690 0.950 . S
C698 C696 1.391 . S
C698 C699 1.400 . S
C699 C698 1.400 . S
C699 C700 1.398 . S
C699 C705 1.491 . S
C700 H691 0.950 . S
C700 C699 1.398 . S
C700 C701 1.391 . S
C701 H689 0.950 . S
C701 C697 1.393 . S
C701 C700 1.391 . S
C702 H692 0.950 . S
C702 C703 1.386 . S
C702 C704 1.391 . S
C703 C702 1.386 . S
C703 C707 1.393 . S
C704 H693 0.950 . S
C704 C702 1.391 . S
C704 C705 1.400 . S
C705 C699 1.491 . S
C705 C704 1.400 . S
C705 C706 1.398 . S
C706 H694 0.950 . S
C706 C705 1.398 . S
C706 C707 1.391 . S
C707 H695 0.950 . S
C707 C703 1.393 . S
C707 C706 1.391 . S
H708 C716 0.950 . S
H709 C721 0.950 . S
H710 C718 0.950 . S
H711 C720 0.950 . S
H712 C722 0.950 . S
H713 C724 0.950 . S
H714 C726 0.950 . S
H715 C727 0.950 . S
C716 H708 0.950 . S
C716 C717 1.386 . S
C716 C718 1.391 . S
C717 C716 1.386 . S
C717 C721 1.393 . S
C718 H710 0.950 . S
C718 C716 1.391 . S
C718 C719 1.400 . S
C719 C718 1.400 . S
C719 C720 1.398 . S
C719 C725 1.491 . S
C720 H711 0.950 . S
C720 C719 1.398 . S
C720 C721 1.391 . S
C721 H709 0.950 . S
C721 C717 1.393 . S
C721 C720 1.391 . S
C722 H712 0.950 . S
C722 C723 1.386 . S
C722 C724 1.391 . S
C723 C722 1.386 . S
C723 C727 1.393 . S
C724 H713 0.950 . S
C724 C722 1.391 . S
C724 C725 1.400 . S
C725 C719 1.491 . S
C725 C724 1.400 . S
C725 C726 1.398 . S
C726 H714 0.950 . S
C726 C725 1.398 . S
C726 C727 1.391 . S
C727 H715 0.950 . S
C727 C723 1.393 . S
C727 C726 1.391 . S
H728 C736 0.950 . S
H729 C741 0.950 . S
H730 C738 0.950 . S
H731 C740 0.950 . S
H732 C742 0.950 . S
H733 C744 0.950 . S
H734 C746 0.950 . S
H735 C747 0.950 . S
C736 H728 0.950 . S
C736 C737 1.386 . S
C736 C738 1.391 . S
C737 C736 1.386 . S
C737 C741 1.393 . S
C738 H730 0.950 . S
C738 C736 1.391 . S
C738 C739 1.400 . S
C739 C738 1.400 . S
C739 C740 1.398 . S
C739 C745 1.491 . S
C740 H731 0.950 . S
C740 C739 1.398 . S
C740 C741 1.391 . S
C741 H729 0.950 . S
C741 C737 1.393 . S
C741 C740 1.391 . S
C742 H732 0.950 . S
C742 C743 1.386 . S
C742 C744 1.391 . S
C743 C742 1.386 . S
C743 C747 1.393 . S
C744 H733 0.950 . S
C744 C742 1.391 . S
C744 C745 1.400 . S
C745 C739 1.491 . S
C745 C744 1.400 . S
C745 C746 1.398 . S
C746 H734 0.950 . S
C746 C745 1.398 . S
C746 C747 1.391 . S
C747 H735 0.950 . S
C747 C743 1.393 . S
C747 C746 1.391 . S
H748 C756 0.950 . S
H749 C761 0.950 . S
H750 C758 0.950 . S
H751 C760 0.950 . S
H752 C762 0.950 . S
H753 C764 0.950 . S
H754 C766 0.950 . S
H755 C767 0.950 . S
C756 H748 0.950 . S
C756 C757 1.386 . S
C756 C758 1.391 . S
C757 C756 1.386 . S
C757 C761 1.393 . S
C758 H750 0.950 . S
C758 C756 1.391 . S
C758 C759 1.400 . S
C759 C758 1.400 . S
C759 C760 1.398 . S
C759 C765 1.491 . S
C760 H751 0.950 . S
C760 C759 1.398 . S
C760 C761 1.391 . S
C761 H749 0.950 . S
C761 C757 1.393 . S
C761 C760 1.391 . S
C762 H752 0.950 . S
C762 C763 1.386 . S
C762 C764 1.391 . S
C763 C762 1.386 . S
C763 C767 1.393 . S
C764 H753 0.950 . S
C764 C762 1.391 . S
C764 C765 1.400 . S
C765 C759 1.491 . S
C765 C764 1.400 . S
C765 C766 1.398 . S
C766 H754 0.950 . S
C766 C765 1.398 . S
C766 C767 1.391 . S
C767 H755 0.950 . S
C767 C763 1.393 . S
C767 C766 1.391 . S
H768 C776 0.950 . S
H769 C781 0.950 . S
H770 C778 0.950 . S
H771 C780 0.950 . S
H772 C782 0.950 . S
H773 C784 0.950 . S
H774 C786 0.950 . S
H775 C787 0.950 . S
C776 H768 0.950 . S
C776 C777 1.386 . S
C776 C778 1.391 . S
C777 C776 1.386 . S
C777 C781 1.393 . S
C778 H770 0.950 . S
C778 C776 1.391 . S
C778 C779 1.400 . S
C779 C778 1.400 . S
C779 C780 1.398 . S
C779 C785 1.491 1_554 S
C780 H771 0.950 . S
C780 C779 1.398 . S
C780 C781 1.391 . S
C781 H769 0.950 . S
C781 C777 1.393 . S
C781 C780 1.391 . S
C782 H772 0.950 . S
C782 C783 1.386 . S
C782 C784 1.391 . S
C783 C782 1.386 . S
C783 C787 1.393 . S
C784 H773 0.950 . S
C784 C782 1.391 . S
C784 C785 1.400 . S
C785 C779 1.491 1_556 S
C785 C784 1.400 . S
C785 C786 1.398 . S
C786 H774 0.950 . S
C786 C785 1.398 . S
C786 C787 1.391 . S
C787 H775 0.950 . S
C787 C783 1.393 . S
C787 C786 1.391 . S
H788 C796 0.950 . S
H789 C801 0.950 . S
H790 C798 0.950 . S
H791 C800 0.950 . S
H792 C802 0.950 . S
H793 C804 0.950 . S
H794 C806 0.950 . S
H795 C807 0.950 . S
C796 H788 0.950 . S
C796 C797 1.386 . S
C796 C798 1.391 . S
C797 C796 1.386 . S
C797 C801 1.393 . S
C798 H790 0.950 . S
C798 C796 1.391 . S
C798 C799 1.400 . S
C799 C798 1.400 . S
C799 C800 1.398 . S
C799 C805 1.491 1_556 S
C800 H791 0.950 . S
C800 C799 1.398 . S
C800 C801 1.391 . S
C801 H789 0.950 . S
C801 C797 1.393 . S
C801 C800 1.391 . S
C802 H792 0.950 . S
C802 C803 1.386 . S
C802 C804 1.391 . S
C803 C802 1.386 . S
C803 C807 1.393 . S
C804 H793 0.950 . S
C804 C802 1.391 . S
C804 C805 1.400 . S
C805 C799 1.491 1_554 S
C805 C804 1.400 . S
C805 C806 1.398 . S
C806 H794 0.950 . S
C806 C805 1.398 . S
C806 C807 1.391 . S
C807 H795 0.950 . S
C807 C803 1.393 . S
C807 C806 1.391 . S
H808 C816 0.950 . S
H809 C821 0.950 . S
H810 C818 0.950 . S
H811 C820 0.950 . S
H812 C822 0.950 . S
H813 C824 0.950 . S
H814 C826 0.950 . S
H815 C827 0.950 . S
C816 H808 0.950 . S
C816 C817 1.386 . S
C816 C818 1.391 . S
C817 C816 1.386 . S
C817 C821 1.393 . S
C818 H810 0.950 . S
C818 C816 1.391 . S
C818 C819 1.400 . S
C819 C818 1.400 . S
C819 C820 1.398 . S
C819 C825 1.491 1_556 S
C820 H811 0.950 . S
C820 C819 1.398 . S
C820 C821 1.391 . S
C821 H809 0.950 . S
C821 C817 1.393 . S
C821 C820 1.391 . S
C822 H812 0.950 . S
C822 C823 1.386 . S
C822 C824 1.391 . S
C823 C822 1.386 . S
C823 C827 1.393 . S
C824 H813 0.950 . S
C824 C822 1.391 . S
C824 C825 1.400 . S
C825 C819 1.491 1_554 S
C825 C824 1.400 . S
C825 C826 1.398 . S
C826 H814 0.950 . S
C826 C825 1.398 . S
C826 C827 1.391 . S
C827 H815 0.950 . S
C827 C823 1.393 . S
C827 C826 1.391 . S
H828 C836 0.950 . S
H829 C841 0.950 . S
H830 C838 0.950 . S
H831 C840 0.950 . S
H832 C842 0.950 . S
H833 C844 0.950 . S
H834 C846 0.950 . S
H835 C847 0.950 . S
C836 H828 0.950 . S
C836 C837 1.386 . S
C836 C838 1.391 . S
C837 C836 1.386 . S
C837 C841 1.393 . S
C838 H830 0.950 . S
C838 C836 1.391 . S
C838 C839 1.400 . S
C839 C838 1.400 . S
C839 C840 1.398 . S
C839 C845 1.491 1_556 S
C840 H831 0.950 . S
C840 C839 1.398 . S
C840 C841 1.391 . S
C841 H829 0.950 . S
C841 C837 1.393 . S
C841 C840 1.391 . S
C842 H832 0.950 . S
C842 C843 1.386 . S
C842 C844 1.391 . S
C843 C842 1.386 . S
C843 C847 1.393 . S
C844 H833 0.950 . S
C844 C842 1.391 . S
C844 C845 1.400 . S
C845 C839 1.491 1_554 S
C845 C844 1.400 . S
C845 C846 1.398 . S
C846 H834 0.950 . S
C846 C845 1.398 . S
C846 C847 1.391 . S
C847 H835 0.950 . S
C847 C843 1.393 . S
C847 C846 1.391 . S
H848 C856 0.950 . S
H849 C861 0.950 . S
H850 C858 0.950 . S
H851 C860 0.950 . S
H852 C862 0.950 . S
H853 C864 0.950 . S
H854 C866 0.950 . S
H855 C867 0.950 . S
C856 H848 0.950 . S
C856 C857 1.386 . S
C856 C858 1.391 . S
C857 C856 1.386 . S
C857 C861 1.393 . S
C858 H850 0.950 . S
C858 C856 1.391 . S
C858 C859 1.400 . S
C859 C858 1.400 . S
C859 C860 1.398 . S
C859 C865 1.491 . S
C860 H851 0.950 . S
C860 C859 1.398 . S
C860 C861 1.391 . S
C861 H849 0.950 . S
C861 C857 1.393 . S
C861 C860 1.391 . S
C862 H852 0.950 . S
C862 C863 1.386 . S
C862 C864 1.391 . S
C863 C862 1.386 . S
C863 C867 1.393 . S
C864 H853 0.950 . S
C864 C862 1.391 . S
C864 C865 1.400 . S
C865 C859 1.491 . S
C865 C864 1.400 . S
C865 C866 1.398 . S
C866 H854 0.950 . S
C866 C865 1.398 . S
C866 C867 1.391 . S
C867 H855 0.950 . S
C867 C863 1.393 . S
C867 C866 1.391 . S
H868 C876 0.950 . S
H869 C881 0.950 . S
H870 C878 0.950 . S
H871 C880 0.950 . S
H872 C882 0.950 . S
H873 C884 0.950 . S
H874 C886 0.950 . S
H875 C887 0.950 . S
C876 H868 0.950 . S
C876 C877 1.386 . S
C876 C878 1.391 . S
C877 C876 1.386 . S
C877 C881 1.393 . S
C878 H870 0.950 . S
C878 C876 1.391 . S
C878 C879 1.400 . S
C879 C878 1.400 . S
C879 C880 1.398 . S
C879 C885 1.491 . S
C880 H871 0.950 . S
C880 C879 1.398 . S
C880 C881 1.391 . S
C881 H869 0.950 . S
C881 C877 1.393 . S
C881 C880 1.391 . S
C882 H872 0.950 . S
C882 C883 1.386 . S
C882 C884 1.391 . S
C883 C882 1.386 . S
C883 C887 1.393 . S
C884 H873 0.950 . S
C884 C882 1.391 . S
C884 C885 1.400 . S
C885 C879 1.491 . S
C885 C884 1.400 . S
C885 C886 1.398 . S
C886 H874 0.950 . S
C886 C885 1.398 . S
C886 C887 1.391 . S
C887 H875 0.950 . S
C887 C883 1.393 . S
C887 C886 1.391 . S
H888 C896 0.950 . S
H889 C901 0.950 . S
H890 C898 0.950 . S
H891 C900 0.950 . S
H892 C902 0.950 . S
H893 C904 0.950 . S
H894 C906 0.950 . S
H895 C907 0.950 . S
C896 H888 0.950 . S
C896 C897 1.386 . S
C896 C898 1.391 . S
C897 C896 1.386 . S
C897 C901 1.393 . S
C898 H890 0.950 . S
C898 C896 1.391 . S
C898 C899 1.400 . S
C899 C898 1.400 . S
C899 C900 1.398 . S
C899 C905 1.491 . S
C900 H891 0.950 . S
C900 C899 1.398 . S
C900 C901 1.391 . S
C901 H889 0.950 . S
C901 C897 1.393 . S
C901 C900 1.391 . S
C902 H892 0.950 . S
C902 C903 1.386 . S
C902 C904 1.391 . S
C903 C902 1.386 . S
C903 C907 1.393 . S
C904 H893 0.950 . S
C904 C902 1.391 . S
C904 C905 1.400 . S
C905 C899 1.491 . S
C905 C904 1.400 . S
C905 C906 1.398 . S
C906 H894 0.950 . S
C906 C905 1.398 . S
C906 C907 1.391 . S
C907 H895 0.950 . S
C907 C903 1.393 . S
C907 C906 1.391 . S
H908 C916 0.950 . S
H909 C921 0.950 . S
H910 C918 0.950 . S
H911 C920 0.950 . S
H912 C922 0.950 . S
H913 C924 0.950 . S
H914 C926 0.950 . S
H915 C927 0.950 . S
C916 H908 0.950 . S
C916 C917 1.386 . S
C916 C918 1.391 . S
C917 C916 1.386 . S
C917 C921 1.393 . S
C918 H910 0.950 . S
C918 C916 1.391 . S
C918 C919 1.400 . S
C919 C918 1.400 . S
C919 C920 1.398 . S
C919 C925 1.491 . S
C920 H911 0.950 . S
C920 C919 1.398 . S
C920 C921 1.391 . S
C921 H909 0.950 . S
C921 C917 1.393 . S
C921 C920 1.391 . S
C922 H912 0.950 . S
C922 C923 1.386 . S
C922 C924 1.391 . S
C923 C922 1.386 . S
C923 C927 1.393 . S
C924 H913 0.950 . S
C924 C922 1.391 . S
C924 C925 1.400 . S
C925 C919 1.491 . S
C925 C924 1.400 . S
C925 C926 1.398 . S
C926 H914 0.950 . S
C926 C925 1.398 . S
C926 C927 1.391 . S
C927 H915 0.950 . S
C927 C923 1.393 . S
C927 C926 1.391 . S
H928 C936 0.950 . S
H929 C941 0.950 . S
H930 C938 0.950 . S
H931 C940 0.950 . S
H932 C942 0.950 . S
H933 C944 0.950 . S
H934 C946 0.950 . S
H935 C947 0.950 . S
C936 H928 0.950 . S
C936 C937 1.386 . S
C936 C938 1.391 . S
C937 C936 1.386 . S
C937 C941 1.393 . S
C938 H930 0.950 . S
C938 C936 1.391 . S
C938 C939 1.400 . S
C939 C938 1.400 . S
C939 C940 1.398 . S
C939 C945 1.491 . S
C940 H931 0.950 . S
C940 C939 1.398 . S
C940 C941 1.391 . S
C941 H929 0.950 . S
C941 C937 1.393 . S
C941 C940 1.391 . S
C942 H932 0.950 . S
C942 C943 1.386 . S
C942 C944 1.391 . S
C943 C942 1.386 . S
C943 C947 1.393 . S
C944 H933 0.950 . S
C944 C942 1.391 . S
C944 C945 1.400 . S
C945 C939 1.491 . S
C945 C944 1.400 . S
C945 C946 1.398 . S
C946 H934 0.950 . S
C946 C945 1.398 . S
C946 C947 1.391 . S
C947 H935 0.950 . S
C947 C943 1.393 . S
C947 C946 1.391 . S
H948 C956 0.950 . S
H949 C961 0.950 . S
H950 C958 0.950 . S
H951 C960 0.950 . S
H952 C962 0.950 . S
H953 C964 0.950 . S
H954 C966 0.950 . S
H955 C967 0.950 . S
C956 H948 0.950 . S
C956 C957 1.386 . S
C956 C958 1.391 . S
C957 C956 1.386 . S
C957 C961 1.393 . S
C958 H950 0.950 . S
C958 C956 1.391 . S
C958 C959 1.400 . S
C959 C958 1.400 . S
C959 C960 1.398 . S
C959 C965 1.491 . S
C960 H951 0.950 . S
C960 C959 1.398 . S
C960 C961 1.391 . S
C961 H949 0.950 . S
C961 C957 1.393 . S
C961 C960 1.391 . S
C962 H952 0.950 . S
C962 C963 1.386 . S
C962 C964 1.391 . S
C963 C962 1.386 . S
C963 C967 1.393 . S
C964 H953 0.950 . S
C964 C962 1.391 . S
C964 C965 1.400 . S
C965 C959 1.491 . S
C965 C964 1.400 . S
C965 C966 1.398 . S
C966 H954 0.950 . S
C966 C965 1.398 . S
C966 C967 1.391 . S
C967 H955 0.950 . S
C967 C963 1.393 . S
C967 C966 1.391 . S
H968 C976 0.950 . S
H969 C981 0.950 . S
H970 C978 0.950 . S
H971 C980 0.950 . S
H972 C982 0.950 . S
H973 C984 0.950 . S
H974 C986 0.950 . S
H975 C987 0.950 . S
C976 H968 0.950 . S
C976 C977 1.386 . S
C976 C978 1.391 . S
C977 C976 1.386 . S
C977 C981 1.393 . S
C978 H970 0.950 . S
C978 C976 1.391 . S
C978 C979 1.400 . S
C979 C978 1.400 . S
C979 C980 1.398 . S
C979 C985 1.491 . S
C980 H971 0.950 . S
C980 C979 1.398 . S
C980 C981 1.391 . S
C981 H969 0.950 . S
C981 C977 1.393 . S
C981 C980 1.391 . S
C982 H972 0.950 . S
C982 C983 1.386 . S
C982 C984 1.391 . S
C983 C982 1.386 . S
C983 C987 1.393 . S
C984 H973 0.950 . S
C984 C982 1.391 . S
C984 C985 1.400 . S
C985 C979 1.491 . S
C985 C984 1.400 . S
C985 C986 1.398 . S
C986 H974 0.950 . S
C986 C985 1.398 . S
C986 C987 1.391 . S
C987 H975 0.950 . S
C987 C983 1.393 . S
C987 C986 1.391 . S
H988 C996 0.950 . S
H989 C1001 0.950 . S
H990 C998 0.950 . S
H991 C1000 0.950 . S
H992 C1002 0.950 . S
H993 C1004 0.950 . S
H994 C1006 0.950 . S
H995 C1007 0.950 . S
C996 H988 0.950 . S
C996 C997 1.386 . S
C996 C998 1.391 . S
C997 C996 1.386 . S
C997 C1001 1.393 . S
C998 H990 0.950 . S
C998 C996 1.391 . S
C998 C999 1.400 . S
C999 C998 1.400 . S
C999 C1000 1.398 . S
C999 C1005 1.491 . S
C1000 H991 0.950 . S
C1000 C999 1.398 . S
C1000 C1001 1.391 . S
C1001 H989 0.950 . S
C1001 C997 1.393 . S
C1001 C1000 1.391 . S
C1002 H992 0.950 . S
C1002 C1003 1.386 . S
C1002 C1004 1.391 . S
C1003 C1002 1.386 . S
C1003 C1007 1.393 . S
C1004 H993 0.950 . S
C1004 C1002 1.391 . S
C1004 C1005 1.400 . S
C1005 C999 1.491 . S
C1005 C1004 1.400 . S
C1005 C1006 1.398 . S
C1006 H994 0.950 . S
C1006 C1005 1.398 . S
C1006 C1007 1.391 . S
C1007 H995 0.950 . S
C1007 C1003 1.393 . S
C1007 C1006 1.391 . S
H1008 C1016 0.950 . S
H1009 C1021 0.950 . S
H1010 C1018 0.950 . S
H1011 C1020 0.950 . S
H1012 C1022 0.950 . S
H1013 C1024 0.950 . S
H1014 C1026 0.950 . S
H1015 C1027 0.950 . S
C1016 H1008 0.950 . S
C1016 C1017 1.386 . S
C1016 C1018 1.391 . S
C1017 C1016 1.386 . S
C1017 C1021 1.393 . S
C1018 H1010 0.950 . S
C1018 C1016 1.391 . S
C1018 C1019 1.400 . S
C1019 C1018 1.400 . S
C1019 C1020 1.398 . S
C1019 C1025 1.491 1_556 S
C1020 H1011 0.950 . S
C1020 C1019 1.398 . S
C1020 C1021 1.391 . S
C1021 H1009 0.950 . S
C1021 C1017 1.393 . S
C1021 C1020 1.391 . S
C1022 H1012 0.950 . S
C1022 C1023 1.386 . S
C1022 C1024 1.391 . S
C1023 C1022 1.386 . S
C1023 C1027 1.393 . S
C1024 H1013 0.950 . S
C1024 C1022 1.391 . S
C1024 C1025 1.400 . S
C1025 C1019 1.491 1_554 S
C1025 C1024 1.400 . S
C1025 C1026 1.398 . S
C1026 H1014 0.950 . S
C1026 C1025 1.398 . S
C1026 C1027 1.391 . S
C1027 H1015 0.950 . S
C1027 C1023 1.393 . S
C1027 C1026 1.391 . S
H1028 C1036 0.950 . S
H1029 C1041 0.950 . S
H1030 C1038 0.950 . S
H1031 C1040 0.950 . S
H1032 C1042 0.950 . S
H1033 C1044 0.950 . S
H1034 C1046 0.950 . S
H1035 C1047 0.950 . S
C1036 H1028 0.950 . S
C1036 C1037 1.386 . S
C1036 C1038 1.391 . S
C1037 C1036 1.386 . S
C1037 C1041 1.393 . S
C1038 H1030 0.950 . S
C1038 C1036 1.391 . S
C1038 C1039 1.400 . S
C1039 C1038 1.400 . S
C1039 C1040 1.398 . S
C1039 C1045 1.491 1_554 S
C1040 H1031 0.950 . S
C1040 C1039 1.398 . S
C1040 C1041 1.391 . S
C1041 H1029 0.950 . S
C1041 C1037 1.393 . S
C1041 C1040 1.391 . S
C1042 H1032 0.950 . S
C1042 C1043 1.386 . S
C1042 C1044 1.391 . S
C1043 C1042 1.386 . S
C1043 C1047 1.393 . S
C1044 H1033 0.950 . S
C1044 C1042 1.391 . S
C1044 C1045 1.400 . S
C1045 C1039 1.491 1_556 S
C1045 C1044 1.400 . S
C1045 C1046 1.398 . S
C1046 H1034 0.950 . S
C1046 C1045 1.398 . S
C1046 C1047 1.391 . S
C1047 H1035 0.950 . S
C1047 C1043 1.393 . S
C1047 C1046 1.391 . S
H1048 C1056 0.950 . S
H1049 C1061 0.950 . S
H1050 C1058 0.950 . S
H1051 C1060 0.950 . S
H1052 C1062 0.950 . S
H1053 C1064 0.950 . S
H1054 C1066 0.950 . S
H1055 C1067 0.950 . S
C1056 H1048 0.950 . S
C1056 C1057 1.386 . S
C1056 C1058 1.391 . S
C1057 C1056 1.386 . S
C1057 C1061 1.393 . S
C1058 H1050 0.950 . S
C1058 C1056 1.391 . S
C1058 C1059 1.400 . S
C1059 C1058 1.400 . S
C1059 C1060 1.398 . S
C1059 C1065 1.491 1_554 S
C1060 H1051 0.950 . S
C1060 C1059 1.398 . S
C1060 C1061 1.391 . S
C1061 H1049 0.950 . S
C1061 C1057 1.393 . S
C1061 C1060 1.391 . S
C1062 H1052 0.950 . S
C1062 C1063 1.386 . S
C1062 C1064 1.391 . S
C1063 C1062 1.386 . S
C1063 C1067 1.393 . S
C1064 H1053 0.950 . S
C1064 C1062 1.391 . S
C1064 C1065 1.400 . S
C1065 C1059 1.491 1_556 S
C1065 C1064 1.400 . S
C1065 C1066 1.398 . S
C1066 H1054 0.950 . S
C1066 C1065 1.398 . S
C1066 C1067 1.391 . S
C1067 H1055 0.950 . S
C1067 C1063 1.393 . S
C1067 C1066 1.391 . S
H1068 C1076 0.950 . S
H1069 C1081 0.950 . S
H1070 C1078 0.950 . S
H1071 C1080 0.950 . S
H1072 C1082 0.950 . S
H1073 C1084 0.950 . S
H1074 C1086 0.950 . S
H1075 C1087 0.950 . S
C1076 H1068 0.950 . S
C1076 C1077 1.386 . S
C1076 C1078 1.391 . S
C1077 C1076 1.386 . S
C1077 C1081 1.393 . S
C1078 H1070 0.950 . S
C1078 C1076 1.391 . S
C1078 C1079 1.400 . S
C1079 C1078 1.400 . S
C1079 C1080 1.398 . S
C1079 C1085 1.491 1_556 S
C1080 H1071 0.950 . S
C1080 C1079 1.398 . S
C1080 C1081 1.391 . S
C1081 H1069 0.950 . S
C1081 C1077 1.393 . S
C1081 C1080 1.391 . S
C1082 H1072 0.950 . S
C1082 C1083 1.386 . S
C1082 C1084 1.391 . S
C1083 C1082 1.386 . S
C1083 C1087 1.393 . S
C1084 H1073 0.950 . S
C1084 C1082 1.391 . S
C1084 C1085 1.400 . S
C1085 C1079 1.491 1_554 S
C1085 C1084 1.400 . S
C1085 C1086 1.398 . S
C1086 H1074 0.950 . S
C1086 C1085 1.398 . S
C1086 C1087 1.391 . S
C1087 H1075 0.950 . S
C1087 C1083 1.393 . S
C1087 C1086 1.391 . S
H1088 C1096 0.950 . S
H1089 C1101 0.950 . S
H1090 C1098 0.950 . S
H1091 C1100 0.950 . S
H1092 C1102 0.950 . S
H1093 C1104 0.950 . S
H1094 C1106 0.950 . S
H1095 C1107 0.950 . S
C1096 H1088 0.950 . S
C1096 C1097 1.386 . S
C1096 C1098 1.391 . S
C1097 C1096 1.386 . S
C1097 C1101 1.393 . S
C1098 H1090 0.950 . S
C1098 C1096 1.391 . S
C1098 C1099 1.400 . S
C1099 C1098 1.400 . S
C1099 C1100 1.398 . S
C1099 C1105 1.491 1_545 S
C1100 H1091 0.950 . S
C1100 C1099 1.398 . S
C1100 C1101 1.391 . S
C1101 H1089 0.950 . S
C1101 C1097 1.393 . S
C1101 C1100 1.391 . S
C1102 H1092 0.950 . S
C1102 C1103 1.386 . S
C1102 C1104 1.391 . S
C1103 C1102 1.386 . S
C1103 C1107 1.393 . S
C1104 H1093 0.950 . S
C1104 C1102 1.391 . S
C1104 C1105 1.400 . S
C1105 C1099 1.491 1_565 S
C1105 C1104 1.400 . S
C1105 C1106 1.398 . S
C1106 H1094 0.950 . S
C1106 C1105 1.398 . S
C1106 C1107 1.391 . S
C1107 H1095 0.950 . S
C1107 C1103 1.393 . S
C1107 C1106 1.391 . S
H1108 C1116 0.950 . S
H1109 C1121 0.950 . S
H1110 C1118 0.950 1_455 S
H1111 C1120 0.950 . S
H1112 C1122 0.950 . S
H1113 C1124 0.950 1_655 S
H1114 C1126 0.950 . S
H1115 C1127 0.950 . S
C1116 H1108 0.950 . S
C1116 C1117 1.386 . S
C1116 C1118 1.391 . S
C1117 C1116 1.386 . S
C1117 C1121 1.393 . S
C1118 H1110 0.950 1_655 S
C1118 C1116 1.391 . S
C1118 C1119 1.400 . S
C1119 C1118 1.400 . S
C1119 C1120 1.398 . S
C1119 C1125 1.491 1_655 S
C1120 H1111 0.950 . S
C1120 C1119 1.398 . S
C1120 C1121 1.391 . S
C1121 H1109 0.950 . S
C1121 C1117 1.393 . S
C1121 C1120 1.391 . S
C1122 H1112 0.950 . S
C1122 C1123 1.386 . S
C1122 C1124 1.391 . S
C1123 C1122 1.386 . S
C1123 C1127 1.393 . S
C1124 H1113 0.950 1_455 S
C1124 C1122 1.391 . S
C1124 C1125 1.400 . S
C1125 C1119 1.491 1_455 S
C1125 C1124 1.400 . S
C1125 C1126 1.398 . S
C1126 H1114 0.950 . S
C1126 C1125 1.398 . S
C1126 C1127 1.391 . S
C1127 H1115 0.950 . S
C1127 C1123 1.393 . S
C1127 C1126 1.391 . S
H1128 C1136 0.950 . S
H1129 C1141 0.950 . S
H1130 C1138 0.950 . S
H1131 C1140 0.950 . S
H1132 C1142 0.950 . S
H1133 C1144 0.950 . S
H1134 C1146 0.950 . S
H1135 C1147 0.950 . S
C1136 H1128 0.950 . S
C1136 C1137 1.386 . S
C1136 C1138 1.391 . S
C1137 C1136 1.386 . S
C1137 C1141 1.393 . S
C1138 H1130 0.950 . S
C1138 C1136 1.391 . S
C1138 C1139 1.400 . S
C1139 C1138 1.400 . S
C1139 C1140 1.398 . S
C1139 C1145 1.491 1_545 S
C1140 H1131 0.950 . S
C1140 C1139 1.398 . S
C1140 C1141 1.391 . S
C1141 H1129 0.950 . S
C1141 C1137 1.393 . S
C1141 C1140 1.391 . S
C1142 H1132 0.950 . S
C1142 C1143 1.386 . S
C1142 C1144 1.391 . S
C1143 C1142 1.386 . S
C1143 C1147 1.393 . S
C1144 H1133 0.950 . S
C1144 C1142 1.391 . S
C1144 C1145 1.400 . S
C1145 C1139 1.491 1_565 S
C1145 C1144 1.400 . S
C1145 C1146 1.398 . S
C1146 H1134 0.950 . S
C1146 C1145 1.398 . S
C1146 C1147 1.391 . S
C1147 H1135 0.950 . S
C1147 C1143 1.393 . S
C1147 C1146 1.391 . S
H1148 C1156 0.950 . S
H1149 C1161 0.950 . S
H1150 C1158 0.950 1_655 S
H1151 C1160 0.950 . S
H1152 C1162 0.950 . S
H1153 C1164 0.950 1_455 S
H1154 C1166 0.950 . S
H1155 C1167 0.950 . S
C1156 H1148 0.950 . S
C1156 C1157 1.386 . S
C1156 C1158 1.391 . S
C1157 C1156 1.386 . S
C1157 C1161 1.393 . S
C1158 H1150 0.950 1_455 S
C1158 C1156 1.391 . S
C1158 C1159 1.400 . S
C1159 C1158 1.400 . S
C1159 C1160 1.398 . S
C1159 C1165 1.491 1_455 S
C1160 H1151 0.950 . S
C1160 C1159 1.398 . S
C1160 C1161 1.391 . S
C1161 H1149 0.950 . S
C1161 C1157 1.393 . S
C1161 C1160 1.391 . S
C1162 H1152 0.950 . S
C1162 C1163 1.386 . S
C1162 C1164 1.391 . S
C1163 C1162 1.386 . S
C1163 C1167 1.393 . S
C1164 H1153 0.950 1_655 S
C1164 C1162 1.391 . S
C1164 C1165 1.400 . S
C1165 C1159 1.491 1_655 S
C1165 C1164 1.400 . S
C1165 C1166 1.398 . S
C1166 H1154 0.950 . S
C1166 C1165 1.398 . S
C1166 C1167 1.391 . S
C1167 H1155 0.950 . S
C1167 C1163 1.393 . S
C1167 C1166 1.391 . S
H1168 C1176 0.950 . S
H1169 C1181 0.950 . S
H1170 C1178 0.950 . S
H1171 C1180 0.950 . S
H1172 C1182 0.950 . S
H1173 C1184 0.950 . S
H1174 C1186 0.950 . S
H1175 C1187 0.950 . S
C1176 H1168 0.950 . S
C1176 C1177 1.386 . S
C1176 C1178 1.391 . S
C1177 C1176 1.386 . S
C1177 C1181 1.393 . S
C1178 H1170 0.950 . S
C1178 C1176 1.391 . S
C1178 C1179 1.400 . S
C1179 C1178 1.400 . S
C1179 C1180 1.398 . S
C1179 C1185 1.491 1_565 S
C1180 H1171 0.950 . S
C1180 C1179 1.398 . S
C1180 C1181 1.391 . S
C1181 H1169 0.950 . S
C1181 C1177 1.393 . S
C1181 C1180 1.391 . S
C1182 H1172 0.950 . S
C1182 C1183 1.386 . S
C1182 C1184 1.391 . S
C1183 C1182 1.386 . S
C1183 C1187 1.393 . S
C1184 H1173 0.950 . S
C1184 C1182 1.391 . S
C1184 C1185 1.400 . S
C1185 C1179 1.491 1_545 S
C1185 C1184 1.400 . S
C1185 C1186 1.398 . S
C1186 H1174 0.950 . S
C1186 C1185 1.398 . S
C1186 C1187 1.391 . S
C1187 H1175 0.950 . S
C1187 C1183 1.393 . S
C1187 C1186 1.391 . S
H1188 C1196 0.950 . S
H1189 C1201 0.950 . S
H1190 C1198 0.950 . S
H1191 C1200 0.950 . S
H1192 C1202 0.950 . S
H1193 C1204 0.950 . S
H1194 C1206 0.950 . S
H1195 C1207 0.950 . S
C1196 H1188 0.950 . S
C1196 C1197 1.386 . S
C1196 C1198 1.391 . S
C1197 C1196 1.386 . S
C1197 C1201 1.393 . S
C1198 H1190 0.950 . S
C1198 C1196 1.391 . S
C1198 C1199 1.400 . S
C1199 C1198 1.400 . S
C1199 C1200 1.398 . S
C1199 C1205 1.491 1_655 S
C1200 H1191 0.950 . S
C1200 C1199 1.398 . S
C1200 C1201 1.391 . S
C1201 H1189 0.950 . S
C1201 C1197 1.393 . S
C1201 C1200 1.391 . S
C1202 H1192 0.950 . S
C1202 C1203 1.386 . S
C1202 C1204 1.391 . S
C1203 C1202 1.386 . S
C1203 C1207 1.393 . S
C1204 H1193 0.950 . S
C1204 C1202 1.391 . S
C1204 C1205 1.400 . S
C1205 C1199 1.491 1_455 S
C1205 C1204 1.400 . S
C1205 C1206 1.398 . S
C1206 H1194 0.950 . S
C1206 C1205 1.398 . S
C1206 C1207 1.391 . S
C1207 H1195 0.950 . S
C1207 C1203 1.393 . S
C1207 C1206 1.391 . S
H1208 C1216 0.950 . S
H1209 C1221 0.950 . S
H1210 C1218 0.950 . S
H1211 C1220 0.950 . S
H1212 C1222 0.950 . S
H1213 C1224 0.950 . S
H1214 C1226 0.950 . S
H1215 C1227 0.950 . S
C1216 H1208 0.950 . S
C1216 C1217 1.386 . S
C1216 C1218 1.391 . S
C1217 C1216 1.386 . S
C1217 C1221 1.393 . S
C1218 H1210 0.950 . S
C1218 C1216 1.391 . S
C1218 C1219 1.400 . S
C1219 C1218 1.400 . S
C1219 C1220 1.398 . S
C1219 C1225 1.491 1_565 S
C1220 H1211 0.950 . S
C1220 C1219 1.398 . S
C1220 C1221 1.391 . S
C1221 H1209 0.950 . S
C1221 C1217 1.393 . S
C1221 C1220 1.391 . S
C1222 H1212 0.950 . S
C1222 C1223 1.386 . S
C1222 C1224 1.391 . S
C1223 C1222 1.386 . S
C1223 C1227 1.393 . S
C1224 H1213 0.950 . S
C1224 C1222 1.391 . S
C1224 C1225 1.400 . S
C1225 C1219 1.491 1_545 S
C1225 C1224 1.400 . S
C1225 C1226 1.398 . S
C1226 H1214 0.950 . S
C1226 C1225 1.398 . S
C1226 C1227 1.391 . S
C1227 H1215 0.950 . S
C1227 C1223 1.393 . S
C1227 C1226 1.391 . S
H1228 C1236 0.950 . S
H1229 C1241 0.950 . S
H1230 C1238 0.950 1_455 S
H1231 C1240 0.950 . S
H1232 C1242 0.950 . S
H1233 C1244 0.950 1_655 S
H1234 C1246 0.950 . S
H1235 C1247 0.950 . S
C1236 H1228 0.950 . S
C1236 C1237 1.386 . S
C1236 C1238 1.391 . S
C1237 C1236 1.386 . S
C1237 C1241 1.393 . S
C1238 H1230 0.950 1_655 S
C1238 C1236 1.391 . S
C1238 C1239 1.400 . S
C1239 C1238 1.400 . S
C1239 C1240 1.398 . S
C1239 C1245 1.491 1_655 S
C1240 H1231 0.950 . S
C1240 C1239 1.398 . S
C1240 C1241 1.391 . S
C1241 H1229 0.950 . S
C1241 C1237 1.393 . S
C1241 C1240 1.391 . S
C1242 H1232 0.950 . S
C1242 C1243 1.386 . S
C1242 C1244 1.391 . S
C1243 C1242 1.386 . S
C1243 C1247 1.393 . S
C1244 H1233 0.950 1_455 S
C1244 C1242 1.391 . S
C1244 C1245 1.400 . S
C1245 C1239 1.491 1_455 S
C1245 C1244 1.400 . S
C1245 C1246 1.398 . S
C1246 H1234 0.950 . S
C1246 C1245 1.398 . S
C1246 C1247 1.391 . S
C1247 H1235 0.950 . S
C1247 C1243 1.393 . S
C1247 C1246 1.391 . S
H1248 C1256 0.950 . S
H1249 C1261 0.950 . S
H1250 C1258 0.950 . S
H1251 C1260 0.950 . S
H1252 C1262 0.950 . S
H1253 C1264 0.950 . S
H1254 C1266 0.950 . S
H1255 C1267 0.950 . S
C1256 H1248 0.950 . S
C1256 C1257 1.386 . S
C1256 C1258 1.391 . S
C1257 C1256 1.386 . S
C1257 C1261 1.393 . S
C1258 H1250 0.950 . S
C1258 C1256 1.391 . S
C1258 C1259 1.400 . S
C1259 C1258 1.400 . S
C1259 C1260 1.398 . S
C1259 C1265 1.491 . S
C1260 H1251 0.950 . S
C1260 C1259 1.398 . S
C1260 C1261 1.391 . S
C1261 H1249 0.950 . S
C1261 C1257 1.393 . S
C1261 C1260 1.391 . S
C1262 H1252 0.950 . S
C1262 C1263 1.386 . S
C1262 C1264 1.391 . S
C1263 C1262 1.386 . S
C1263 C1267 1.393 . S
C1264 H1253 0.950 . S
C1264 C1262 1.391 . S
C1264 C1265 1.400 . S
C1265 C1259 1.491 . S
C1265 C1264 1.400 . S
C1265 C1266 1.398 . S
C1266 H1254 0.950 . S
C1266 C1265 1.398 . S
C1266 C1267 1.391 . S
C1267 H1255 0.950 . S
C1267 C1263 1.393 . S
C1267 C1266 1.391 . S
H1268 C1276 0.950 . S
H1269 C1281 0.950 . S
H1270 C1278 0.950 . S
H1271 C1280 0.950 . S
H1272 C1282 0.950 . S
H1273 C1284 0.950 . S
H1274 C1286 0.950 . S
H1275 C1287 0.950 . S
C1276 H1268 0.950 . S
C1276 C1277 1.386 . S
C1276 C1278 1.391 . S
C1277 C1276 1.386 . S
C1277 C1281 1.393 . S
C1278 H1270 0.950 . S
C1278 C1276 1.391 . S
C1278 C1279 1.400 . S
C1279 C1278 1.400 . S
C1279 C1280 1.398 . S
C1279 C1285 1.491 . S
C1280 H1271 0.950 . S
C1280 C1279 1.398 . S
C1280 C1281 1.391 . S
C1281 H1269 0.950 . S
C1281 C1277 1.393 . S
C1281 C1280 1.391 . S
C1282 H1272 0.950 . S
C1282 C1283 1.386 . S
C1282 C1284 1.391 . S
C1283 C1282 1.386 . S
C1283 C1287 1.393 . S
C1284 H1273 0.950 . S
C1284 C1282 1.391 . S
C1284 C1285 1.400 . S
C1285 C1279 1.491 . S
C1285 C1284 1.400 . S
C1285 C1286 1.398 . S
C1286 H1274 0.950 . S
C1286 C1285 1.398 . S
C1286 C1287 1.391 . S
C1287 H1275 0.950 . S
C1287 C1283 1.393 . S
C1287 C1286 1.391 . S
H1288 C1296 0.950 . S
H1289 C1301 0.950 . S
H1290 C1298 0.950 . S
H1291 C1300 0.950 . S
H1292 C1302 0.950 . S
H1293 C1304 0.950 . S
H1294 C1306 0.950 . S
H1295 C1307 0.950 . S
C1296 H1288 0.950 . S
C1296 C1297 1.386 . S
C1296 C1298 1.391 . S
C1297 C1296 1.386 . S
C1297 C1301 1.393 . S
C1298 H1290 0.950 . S
C1298 C1296 1.391 . S
C1298 C1299 1.400 . S
C1299 C1298 1.400 . S
C1299 C1300 1.398 . S
C1299 C1305 1.491 . S
C1300 H1291 0.950 . S
C1300 C1299 1.398 . S
C1300 C1301 1.391 . S
C1301 H1289 0.950 . S
C1301 C1297 1.393 . S
C1301 C1300 1.391 . S
C1302 H1292 0.950 . S
C1302 C1303 1.386 . S
C1302 C1304 1.391 . S
C1303 C1302 1.386 . S
C1303 C1307 1.393 . S
C1304 H1293 0.950 . S
C1304 C1302 1.391 . S
C1304 C1305 1.400 . S
C1305 C1299 1.491 . S
C1305 C1304 1.400 . S
C1305 C1306 1.398 . S
C1306 H1294 0.950 . S
C1306 C1305 1.398 . S
C1306 C1307 1.391 . S
C1307 H1295 0.950 . S
C1307 C1303 1.393 . S
C1307 C1306 1.391 . S
H1308 C1316 0.950 . S
H1309 C1321 0.950 . S
H1310 C1318 0.950 . S
H1311 C1320 0.950 . S
H1312 C1322 0.950 . S
H1313 C1324 0.950 . S
H1314 C1326 0.950 . S
H1315 C1327 0.950 . S
C1316 H1308 0.950 . S
C1316 C1317 1.386 . S
C1316 C1318 1.391 . S
C1317 C1316 1.386 . S
C1317 C1321 1.393 . S
C1318 H1310 0.950 . S
C1318 C1316 1.391 . S
C1318 C1319 1.400 . S
C1319 C1318 1.400 . S
C1319 C1320 1.398 . S
C1319 C1325 1.491 . S
C1320 H1311 0.950 . S
C1320 C1319 1.398 . S
C1320 C1321 1.391 . S
C1321 H1309 0.950 . S
C1321 C1317 1.393 . S
C1321 C1320 1.391 . S
C1322 H1312 0.950 . S
C1322 C1323 1.386 . S
C1322 C1324 1.391 . S
C1323 C1322 1.386 . S
C1323 C1327 1.393 . S
C1324 H1313 0.950 . S
C1324 C1322 1.391 . S
C1324 C1325 1.400 . S
C1325 C1319 1.491 . S
C1325 C1324 1.400 . S
C1325 C1326 1.398 . S
C1326 H1314 0.950 . S
C1326 C1325 1.398 . S
C1326 C1327 1.391 . S
C1327 H1315 0.950 . S
C1327 C1323 1.393 . S
C1327 C1326 1.391 . S
H1328 C1336 0.950 . S
H1329 C1341 0.950 . S
H1330 C1338 0.950 . S
H1331 C1340 0.950 . S
H1332 C1342 0.950 . S
H1333 C1344 0.950 . S
H1334 C1346 0.950 . S
H1335 C1347 0.950 . S
C1336 H1328 0.950 . S
C1336 C1337 1.386 . S
C1336 C1338 1.391 . S
C1337 C1336 1.386 . S
C1337 C1341 1.393 . S
C1338 H1330 0.950 . S
C1338 C1336 1.391 . S
C1338 C1339 1.400 . S
C1339 C1338 1.400 . S
C1339 C1340 1.398 . S
C1339 C1345 1.491 . S
C1340 H1331 0.950 . S
C1340 C1339 1.398 . S
C1340 C1341 1.391 . S
C1341 H1329 0.950 . S
C1341 C1337 1.393 . S
C1341 C1340 1.391 . S
C1342 H1332 0.950 . S
C1342 C1343 1.386 . S
C1342 C1344 1.391 . S
C1343 C1342 1.386 . S
C1343 C1347 1.393 . S
C1344 H1333 0.950 . S
C1344 C1342 1.391 . S
C1344 C1345 1.400 . S
C1345 C1339 1.491 . S
C1345 C1344 1.400 . S
C1345 C1346 1.398 . S
C1346 H1334 0.950 . S
C1346 C1345 1.398 . S
C1346 C1347 1.391 . S
C1347 H1335 0.950 . S
C1347 C1343 1.393 . S
C1347 C1346 1.391 . S
H1348 C1356 0.950 . S
H1349 C1361 0.950 . S
H1350 C1358 0.950 . S
H1351 C1360 0.950 . S
H1352 C1362 0.950 . S
H1353 C1364 0.950 . S
H1354 C1366 0.950 . S
H1355 C1367 0.950 . S
C1356 H1348 0.950 . S
C1356 C1357 1.386 . S
C1356 C1358 1.391 . S
C1357 C1356 1.386 . S
C1357 C1361 1.393 . S
C1358 H1350 0.950 . S
C1358 C1356 1.391 . S
C1358 C1359 1.400 . S
C1359 C1358 1.400 . S
C1359 C1360 1.398 . S
C1359 C1365 1.491 . S
C1360 H1351 0.950 . S
C1360 C1359 1.398 . S
C1360 C1361 1.391 . S
C1361 H1349 0.950 . S
C1361 C1357 1.393 . S
C1361 C1360 1.391 . S
C1362 H1352 0.950 . S
C1362 C1363 1.386 . S
C1362 C1364 1.391 . S
C1363 C1362 1.386 . S
C1363 C1367 1.393 . S
C1364 H1353 0.950 . S
C1364 C1362 1.391 . S
C1364 C1365 1.400 . S
C1365 C1359 1.491 . S
C1365 C1364 1.400 . S
C1365 C1366 1.398 . S
C1366 H1354 0.950 . S
C1366 C1365 1.398 . S
C1366 C1367 1.391 . S
C1367 H1355 0.950 . S
C1367 C1363 1.393 . S
C1367 C1366 1.391 . S
H1368 C1376 0.950 . S
H1369 C1381 0.950 . S
H1370 C1378 0.950 . S
H1371 C1380 0.950 . S
H1372 C1382 0.950 . S
H1373 C1384 0.950 . S
H1374 C1386 0.950 . S
H1375 C1387 0.950 . S
C1376 H1368 0.950 . S
C1376 C1377 1.386 . S
C1376 C1378 1.391 . S
C1377 C1376 1.386 . S
C1377 C1381 1.393 . S
C1378 H1370 0.950 . S
C1378 C1376 1.391 . S
C1378 C1379 1.400 . S
C1379 C1378 1.400 . S
C1379 C1380 1.398 . S
C1379 C1385 1.491 . S
C1380 H1371 0.950 . S
C1380 C1379 1.398 . S
C1380 C1381 1.391 . S
C1381 H1369 0.950 . S
C1381 C1377 1.393 . S
C1381 C1380 1.391 . S
C1382 H1372 0.950 . S
C1382 C1383 1.386 . S
C1382 C1384 1.391 . S
C1383 C1382 1.386 . S
C1383 C1387 1.393 . S
C1384 H1373 0.950 . S
C1384 C1382 1.391 . S
C1384 C1385 1.400 . S
C1385 C1379 1.491 . S
C1385 C1384 1.400 . S
C1385 C1386 1.398 . S
C1386 H1374 0.950 . S
C1386 C1385 1.398 . S
C1386 C1387 1.391 . S
C1387 H1375 0.950 . S
C1387 C1383 1.393 . S
C1387 C1386 1.391 . S
H1388 C1396 0.950 . S
H1389 C1401 0.950 . S
H1390 C1398 0.950 . S
H1391 C1400 0.950 . S
H1392 C1402 0.950 . S
H1393 C1404 0.950 . S
H1394 C1406 0.950 . S
H1395 C1407 0.950 . S
C1396 H1388 0.950 . S
C1396 C1397 1.386 . S
C1396 C1398 1.391 . S
C1397 C1396 1.386 . S
C1397 C1401 1.393 . S
C1398 H1390 0.950 . S
C1398 C1396 1.391 . S
C1398 C1399 1.400 . S
C1399 C1398 1.400 . S
C1399 C1400 1.398 . S
C1399 C1405 1.491 . S
C1400 H1391 0.950 . S
C1400 C1399 1.398 . S
C1400 C1401 1.391 . S
C1401 H1389 0.950 . S
C1401 C1397 1.393 . S
C1401 C1400 1.391 . S
C1402 H1392 0.950 . S
C1402 C1403 1.386 . S
C1402 C1404 1.391 . S
C1403 C1402 1.386 . S
C1403 C1407 1.393 . S
C1404 H1393 0.950 . S
C1404 C1402 1.391 . S
C1404 C1405 1.400 . S
C1405 C1399 1.491 . S
C1405 C1404 1.400 . S
C1405 C1406 1.398 . S
C1406 H1394 0.950 . S
C1406 C1405 1.398 . S
C1406 C1407 1.391 . S
C1407 H1395 0.950 . S
C1407 C1403 1.393 . S
C1407 C1406 1.391 . S
H1408 C1416 0.950 . S
H1409 C1421 0.950 . S
H1410 C1418 0.950 . S
H1411 C1420 0.950 . S
H1412 C1422 0.950 . S
H1413 C1424 0.950 . S
H1414 C1426 0.950 . S
H1415 C1427 0.950 . S
C1416 H1408 0.950 . S
C1416 C1417 1.386 . S
C1416 C1418 1.391 . S
C1417 C1416 1.386 . S
C1417 C1421 1.393 . S
C1418 H1410 0.950 . S
C1418 C1416 1.391 . S
C1418 C1419 1.400 . S
C1419 C1418 1.400 . S
C1419 C1420 1.398 . S
C1419 C1425 1.491 . S
C1420 H1411 0.950 . S
C1420 C1419 1.398 . S
C1420 C1421 1.391 . S
C1421 H1409 0.950 . S
C1421 C1417 1.393 . S
C1421 C1420 1.391 . S
C1422 H1412 0.950 . S
C1422 C1423 1.386 . S
C1422 C1424 1.391 . S
C1423 C1422 1.386 . S
C1423 C1427 1.393 . S
C1424 H1413 0.950 . S
C1424 C1422 1.391 . S
C1424 C1425 1.400 . S
C1425 C1419 1.491 . S
C1425 C1424 1.400 . S
C1425 C1426 1.398 . S
C1426 H1414 0.950 . S
C1426 C1425 1.398 . S
C1426 C1427 1.391 . S
C1427 H1415 0.950 . S
C1427 C1423 1.393 . S
C1427 C1426 1.391 . S
H1428 C1436 0.950 . S
H1429 C1441 0.950 . S
H1430 C1438 0.950 . S
H1431 C1440 0.950 . S
H1432 C1442 0.950 . S
H1433 C1444 0.950 . S
H1434 C1446 0.950 . S
H1435 C1447 0.950 . S
C1436 H1428 0.950 . S
C1436 C1437 1.386 . S
C1436 C1438 1.391 . S
C1437 C1436 1.386 . S
C1437 C1441 1.393 . S
C1438 H1430 0.950 . S
C1438 C1436 1.391 . S
C1438 C1439 1.400 . S
C1439 C1438 1.400 . S
C1439 C1440 1.398 . S
C1439 C1445 1.491 . S
C1440 H1431 0.950 . S
C1440 C1439 1.398 . S
C1440 C1441 1.391 . S
C1441 H1429 0.950 . S
C1441 C1437 1.393 . S
C1441 C1440 1.391 . S
C1442 H1432 0.950 . S
C1442 C1443 1.386 . S
C1442 C1444 1.391 . S
C1443 C1442 1.386 . S
C1443 C1447 1.393 . S
C1444 H1433 0.950 . S
C1444 C1442 1.391 . S
C1444 C1445 1.400 . S
C1445 C1439 1.491 . S
C1445 C1444 1.400 . S
C1445 C1446 1.398 . S
C1446 H1434 0.950 . S
C1446 C1445 1.398 . S
C1446 C1447 1.391 . S
C1447 H1435 0.950 . S
C1447 C1443 1.393 . S
C1447 C1446 1.391 . S
H1448 C1456 0.950 . S
H1449 C1461 0.950 . S
H1450 C1458 0.950 . S
H1451 C1460 0.950 . S
H1452 C1462 0.950 . S
H1453 C1464 0.950 . S
H1454 C1466 0.950 . S
H1455 C1467 0.950 . S
C1456 H1448 0.950 . S
C1456 C1457 1.386 . S
C1456 C1458 1.391 . S
C1457 C1456 1.386 . S
C1457 C1461 1.393 . S
C1458 H1450 0.950 . S
C1458 C1456 1.391 . S
C1458 C1459 1.400 . S
C1459 C1458 1.400 . S
C1459 C1460 1.398 . S
C1459 C1465 1.491 . S
C1460 H1451 0.950 . S
C1460 C1459 1.398 . S
C1460 C1461 1.391 . S
C1461 H1449 0.950 . S
C1461 C1457 1.393 . S
C1461 C1460 1.391 . S
C1462 H1452 0.950 . S
C1462 C1463 1.386 . S
C1462 C1464 1.391 . S
C1463 C1462 1.386 . S
C1463 C1467 1.393 . S
C1464 H1453 0.950 . S
C1464 C1462 1.391 . S
C1464 C1465 1.400 . S
C1465 C1459 1.491 . S
C1465 C1464 1.400 . S
C1465 C1466 1.398 . S
C1466 H1454 0.950 . S
C1466 C1465 1.398 . S
C1466 C1467 1.391 . S
C1467 H1455 0.950 . S
C1467 C1463 1.393 . S
C1467 C1466 1.391 . S
H1468 C1476 0.950 . S
H1469 C1481 0.950 . S
H1470 C1478 0.950 . S
H1471 C1480 0.950 . S
H1472 C1482 0.950 . S
H1473 C1484 0.950 . S
H1474 C1486 0.950 . S
H1475 C1487 0.950 . S
C1476 H1468 0.950 . S
C1476 C1477 1.386 . S
C1476 C1478 1.391 . S
C1477 C1476 1.386 . S
C1477 C1481 1.393 . S
C1478 H1470 0.950 . S
C1478 C1476 1.391 . S
C1478 C1479 1.400 . S
C1479 C1478 1.400 . S
C1479 C1480 1.398 . S
C1479 C1485 1.491 . S
C1480 H1471 0.950 . S
C1480 C1479 1.398 . S
C1480 C1481 1.391 . S
C1481 H1469 0.950 . S
C1481 C1477 1.393 . S
C1481 C1480 1.391 . S
C1482 H1472 0.950 . S
C1482 C1483 1.386 . S
C1482 C1484 1.391 . S
C1483 C1482 1.386 . S
C1483 C1487 1.393 . S
C1484 H1473 0.950 . S
C1484 C1482 1.391 . S
C1484 C1485 1.400 . S
C1485 C1479 1.491 . S
C1485 C1484 1.400 . S
C1485 C1486 1.398 . S
C1486 H1474 0.950 . S
C1486 C1485 1.398 . S
C1486 C1487 1.391 . S
C1487 H1475 0.950 . S
C1487 C1483 1.393 . S
C1487 C1486 1.391 . S
H1488 C1496 0.950 . S
H1489 C1501 0.950 . S
H1490 C1498 0.950 . S
H1491 C1500 0.950 . S
H1492 C1502 0.950 . S
H1493 C1504 0.950 . S
H1494 C1506 0.950 . S
H1495 C1507 0.950 . S
C1496 H1488 0.950 . S
C1496 C1497 1.386 . S
C1496 C1498 1.391 . S
C1497 C1496 1.386 . S
C1497 C1501 1.393 . S
C1498 H1490 0.950 . S
C1498 C1496 1.391 . S
C1498 C1499 1.400 . S
C1499 C1498 1.400 . S
C1499 C1500 1.398 . S
C1499 C1505 1.491 . S
C1500 H1491 0.950 . S
C1500 C1499 1.398 . S
C1500 C1501 1.391 . S
C1501 H1489 0.950 . S
C1501 C1497 1.393 . S
C1501 C1500 1.391 . S
C1502 H1492 0.950 . S
C1502 C1503 1.386 . S
C1502 C1504 1.391 . S
C1503 C1502 1.386 . S
C1503 C1507 1.393 . S
C1504 H1493 0.950 . S
C1504 C1502 1.391 . S
C1504 C1505 1.400 . S
C1505 C1499 1.491 . S
C1505 C1504 1.400 . S
C1505 C1506 1.398 . S
C1506 H1494 0.950 . S
C1506 C1505 1.398 . S
C1506 C1507 1.391 . S
C1507 H1495 0.950 . S
C1507 C1503 1.393 . S
C1507 C1506 1.391 . S
H1508 C1516 0.950 . S
H1509 C1521 0.950 . S
H1510 C1518 0.950 . S
H1511 C1520 0.950 . S
H1512 C1522 0.950 . S
H1513 C1524 0.950 . S
H1514 C1526 0.950 . S
H1515 C1527 0.950 . S
C1516 H1508 0.950 . S
C1516 C1517 1.386 . S
C1516 C1518 1.391 . S
C1517 C1516 1.386 . S
C1517 C1521 1.393 . S
C1518 H1510 0.950 . S
C1518 C1516 1.391 . S
C1518 C1519 1.400 . S
C1519 C1518 1.400 . S
C1519 C1520 1.398 . S
C1519 C1525 1.491 . S
C1520 H1511 0.950 . S
C1520 C1519 1.398 . S
C1520 C1521 1.391 . S
C1521 H1509 0.950 . S
C1521 C1517 1.393 . S
C1521 C1520 1.391 . S
C1522 H1512 0.950 . S
C1522 C1523 1.386 . S
C1522 C1524 1.391 . S
C1523 C1522 1.386 . S
C1523 C1527 1.393 . S
C1524 H1513 0.950 . S
C1524 C1522 1.391 . S
C1524 C1525 1.400 . S
C1525 C1519 1.491 . S
C1525 C1524 1.400 . S
C1525 C1526 1.398 . S
C1526 H1514 0.950 . S
C1526 C1525 1.398 . S
C1526 C1527 1.391 . S
C1527 H1515 0.950 . S
C1527 C1523 1.393 . S
C1527 C1526 1.391 . S
H1528 C1536 0.950 . S
H1529 C1541 0.950 . S
H1530 C1538 0.950 . S
H1531 C1540 0.950 . S
H1532 C1542 0.950 . S
H1533 C1544 0.950 . S
H1534 C1546 0.950 . S
H1535 C1547 0.950 . S
C1536 H1528 0.950 . S
C1536 C1537 1.386 . S
C1536 C1538 1.391 . S
C1537 C1536 1.386 . S
C1537 C1541 1.393 . S
C1538 H1530 0.950 . S
C1538 C1536 1.391 . S
C1538 C1539 1.400 . S
C1539 C1538 1.400 . S
C1539 C1540 1.398 . S
C1539 C1545 1.491 . S
C1540 H1531 0.950 . S
C1540 C1539 1.398 . S
C1540 C1541 1.391 . S
C1541 H1529 0.950 . S
C1541 C1537 1.393 . S
C1541 C1540 1.391 . S
C1542 H1532 0.950 . S
C1542 C1543 1.386 . S
C1542 C1544 1.391 . S
C1543 C1542 1.386 . S
C1543 C1547 1.393 . S
C1544 H1533 0.950 . S
C1544 C1542 1.391 . S
C1544 C1545 1.400 . S
C1545 C1539 1.491 . S
C1545 C1544 1.400 . S
C1545 C1546 1.398 . S
C1546 H1534 0.950 . S
C1546 C1545 1.398 . S
C1546 C1547 1.391 . S
C1547 H1535 0.950 . S
C1547 C1543 1.393 . S
C1547 C1546 1.391 . S
H1548 C1556 0.950 . S
H1549 C1561 0.950 . S
H1550 C1558 0.950 . S
H1551 C1560 0.950 . S
H1552 C1562 0.950 . S
H1553 C1564 0.950 . S
H1554 C1566 0.950 . S
H1555 C1567 0.950 . S
C1556 H1548 0.950 . S
C1556 C1557 1.386 . S
C1556 C1558 1.391 . S
C1557 C1556 1.386 . S
C1557 C1561 1.393 . S
C1558 H1550 0.950 . S
C1558 C1556 1.391 . S
C1558 C1559 1.400 . S
C1559 C1558 1.400 . S
C1559 C1560 1.398 . S
C1559 C1565 1.491 . S
C1560 H1551 0.950 . S
C1560 C1559 1.398 . S
C1560 C1561 1.391 . S
C1561 H1549 0.950 . S
C1561 C1557 1.393 . S
C1561 C1560 1.391 . S
C1562 H1552 0.950 . S
C1562 C1563 1.386 . S
C1562 C1564 1.391 . S
C1563 C1562 1.386 . S
C1563 C1567 1.393 . S
C1564 H1553 0.950 . S
C1564 C1562 1.391 . S
C1564 C1565 1.400 . S
C1565 C1559 1.491 . S
C1565 C1564 1.400 . S
C1565 C1566 1.398 . S
C1566 H1554 0.950 . S
C1566 C1565 1.398 . S
C1566 C1567 1.391 . S
C1567 H1555 0.950 . S
C1567 C1563 1.393 . S
C1567 C1566 1.391 . S
H1568 C1576 0.950 . S
H1569 C1581 0.950 . S
H1570 C1578 0.950 . S
H1571 C1580 0.950 . S
H1572 C1582 0.950 . S
H1573 C1584 0.950 . S
H1574 C1586 0.950 . S
H1575 C1587 0.950 . S
C1576 H1568 0.950 . S
C1576 C1577 1.386 . S
C1576 C1578 1.391 . S
C1577 C1576 1.386 . S
C1577 C1581 1.393 . S
C1578 H1570 0.950 . S
C1578 C1576 1.391 . S
C1578 C1579 1.400 . S
C1579 C1578 1.400 . S
C1579 C1580 1.398 . S
C1579 C1585 1.491 . S
C1580 H1571 0.950 . S
C1580 C1579 1.398 . S
C1580 C1581 1.391 . S
C1581 H1569 0.950 . S
C1581 C1577 1.393 . S
C1581 C1580 1.391 . S
C1582 H1572 0.950 . S
C1582 C1583 1.386 . S
C1582 C1584 1.391 . S
C1583 C1582 1.386 . S
C1583 C1587 1.393 . S
C1584 H1573 0.950 . S
C1584 C1582 1.391 . S
C1584 C1585 1.400 . S
C1585 C1579 1.491 . S
C1585 C1584 1.400 . S
C1585 C1586 1.398 . S
C1586 H1574 0.950 . S
C1586 C1585 1.398 . S
C1586 C1587 1.391 . S
C1587 H1575 0.950 . S
C1587 C1583 1.393 . S
C1587 C1586 1.391 . S
H1588 C1596 0.950 . S
H1589 C1601 0.950 . S
H1590 C1598 0.950 . S
H1591 C1600 0.950 . S
H1592 C1602 0.950 . S
H1593 C1604 0.950 . S
H1594 C1606 0.950 . S
H1595 C1607 0.950 . S
C1596 H1588 0.950 . S
C1596 C1597 1.386 . S
C1596 C1598 1.391 . S
C1597 C1596 1.386 . S
C1597 C1601 1.393 . S
C1598 H1590 0.950 . S
C1598 C1596 1.391 . S
C1598 C1599 1.400 . S
C1599 C1598 1.400 . S
C1599 C1600 1.398 . S
C1599 C1605 1.491 . S
C1600 H1591 0.950 . S
C1600 C1599 1.398 . S
C1600 C1601 1.391 . S
C1601 H1589 0.950 . S
C1601 C1597 1.393 . S
C1601 C1600 1.391 . S
C1602 H1592 0.950 . S
C1602 C1603 1.386 . S
C1602 C1604 1.391 . S
C1603 C1602 1.386 . S
C1603 C1607 1.393 . S
C1604 H1593 0.950 . S
C1604 C1602 1.391 . S
C1604 C1605 1.400 . S
C1605 C1599 1.491 . S
C1605 C1604 1.400 . S
C1605 C1606 1.398 . S
C1606 H1594 0.950 . S
C1606 C1605 1.398 . S
C1606 C1607 1.391 . S
C1607 H1595 0.950 . S
C1607 C1603 1.393 . S
C1607 C1606 1.391 . S
H1608 C1616 0.950 . S
H1609 C1621 0.950 . S
H1610 C1618 0.950 . S
H1611 C1620 0.950 . S
H1612 C1622 0.950 . S
H1613 C1624 0.950 . S
H1614 C1626 0.950 . S
H1615 C1627 0.950 . S
C1616 H1608 0.950 . S
C1616 C1617 1.386 . S
C1616 C1618 1.391 . S
C1617 C1616 1.386 . S
C1617 C1621 1.393 . S
C1618 H1610 0.950 . S
C1618 C1616 1.391 . S
C1618 C1619 1.400 . S
C1619 C1618 1.400 . S
C1619 C1620 1.398 . S
C1619 C1625 1.491 . S
C1620 H1611 0.950 . S
C1620 C1619 1.398 . S
C1620 C1621 1.391 . S
C1621 H1609 0.950 . S
C1621 C1617 1.393 . S
C1621 C1620 1.391 . S
C1622 H1612 0.950 . S
C1622 C1623 1.386 . S
C1622 C1624 1.391 . S
C1623 C1622 1.386 . S
C1623 C1627 1.393 . S
C1624 H1613 0.950 . S
C1624 C1622 1.391 . S
C1624 C1625 1.400 . S
C1625 C1619 1.491 . S
C1625 C1624 1.400 . S
C1625 C1626 1.398 . S
C1626 H1614 0.950 . S
C1626 C1625 1.398 . S
C1626 C1627 1.391 . S
C1627 H1615 0.950 . S
C1627 C1623 1.393 . S
C1627 C1626 1.391 . S
H1628 C1636 0.950 . S
H1629 C1641 0.950 . S
H1630 C1638 0.950 . S
H1631 C1640 0.950 . S
H1632 C1642 0.950 . S
H1633 C1644 0.950 . S
H1634 C1646 0.950 . S
H1635 C1647 0.950 . S
C1636 H1628 0.950 . S
C1636 C1637 1.386 . S
C1636 C1638 1.391 . S
C1637 C1636 1.386 . S
C1637 C1641 1.393 . S
C1638 H1630 0.950 . S
C1638 C1636 1.391 . S
C1638 C1639 1.400 . S
C1639 C1638 1.400 . S
C1639 C1640 1.398 . S
C1639 C1645 1.491 . S
C1640 H1631 0.950 . S
C1640 C1639 1.398 . S
C1640 C1641 1.391 . S
C1641 H1629 0.950 . S
C1641 C1637 1.393 . S
C1641 C1640 1.391 . S
C1642 H1632 0.950 . S
C1642 C1643 1.386 . S
C1642 C1644 1.391 . S
C1643 C1642 1.386 . S
C1643 C1647 1.393 . S
C1644 H1633 0.950 . S
C1644 C1642 1.391 . S
C1644 C1645 1.400 . S
C1645 C1639 1.491 . S
C1645 C1644 1.400 . S
C1645 C1646 1.398 . S
C1646 H1634 0.950 . S
C1646 C1645 1.398 . S
C1646 C1647 1.391 . S
C1647 H1635 0.950 . S
C1647 C1643 1.393 . S
C1647 C1646 1.391 . S
H1648 C1656 0.950 . S
H1649 C1661 0.950 . S
H1650 C1658 0.950 . S
H1651 C1660 0.950 . S
H1652 C1662 0.950 . S
H1653 C1664 0.950 . S
H1654 C1666 0.950 . S
H1655 C1667 0.950 . S
C1656 H1648 0.950 . S
C1656 C1657 1.386 . S
C1656 C1658 1.391 . S
C1657 C1656 1.386 . S
C1657 C1661 1.393 . S
C1658 H1650 0.950 . S
C1658 C1656 1.391 . S
C1658 C1659 1.400 . S
C1659 C1658 1.400 . S
C1659 C1660 1.398 . S
C1659 C1665 1.491 . S
C1660 H1651 0.950 . S
C1660 C1659 1.398 . S
C1660 C1661 1.391 . S
C1661 H1649 0.950 . S
C1661 C1657 1.393 . S
C1661 C1660 1.391 . S
C1662 H1652 0.950 . S
C1662 C1663 1.386 . S
C1662 C1664 1.391 . S
C1663 C1662 1.386 . S
C1663 C1667 1.393 . S
C1664 H1653 0.950 . S
C1664 C1662 1.391 . S
C1664 C1665 1.400 . S
C1665 C1659 1.491 . S
C1665 C1664 1.400 . S
C1665 C1666 1.398 . S
C1666 H1654 0.950 . S
C1666 C1665 1.398 . S
C1666 C1667 1.391 . S
C1667 H1655 0.950 . S
C1667 C1663 1.393 . S
C1667 C1666 1.391 . S
H1668 C1676 0.950 . S
H1669 C1681 0.950 . S
H1670 C1678 0.950 . S
H1671 C1680 0.950 . S
H1672 C1682 0.950 . S
H1673 C1684 0.950 . S
H1674 C1686 0.950 . S
H1675 C1687 0.950 . S
C1676 H1668 0.950 . S
C1676 C1677 1.386 . S
C1676 C1678 1.391 . S
C1677 C1676 1.386 . S
C1677 C1681 1.393 . S
C1678 H1670 0.950 . S
C1678 C1676 1.391 . S
C1678 C1679 1.400 . S
C1679 C1678 1.400 . S
C1679 C1680 1.398 . S
C1679 C1685 1.491 . S
C1680 H1671 0.950 . S
C1680 C1679 1.398 . S
C1680 C1681 1.391 . S
C1681 H1669 0.950 . S
C1681 C1677 1.393 . S
C1681 C1680 1.391 . S
C1682 H1672 0.950 . S
C1682 C1683 1.386 . S
C1682 C1684 1.391 . S
C1683 C1682 1.386 . S
C1683 C1687 1.393 . S
C1684 H1673 0.950 . S
C1684 C1682 1.391 . S
C1684 C1685 1.400 . S
C1685 C1679 1.491 . S
C1685 C1684 1.400 . S
C1685 C1686 1.398 . S
C1686 H1674 0.950 . S
C1686 C1685 1.398 . S
C1686 C1687 1.391 . S
C1687 H1675 0.950 . S
C1687 C1683 1.393 . S
C1687 C1686 1.391 . S
H1688 C1696 0.950 . S
H1689 C1701 0.950 . S
H1690 C1698 0.950 . S
H1691 C1700 0.950 . S
H1692 C1702 0.950 . S
H1693 C1704 0.950 . S
H1694 C1706 0.950 . S
H1695 C1707 0.950 . S
C1696 H1688 0.950 . S
C1696 C1697 1.386 . S
C1696 C1698 1.391 . S
C1697 C1696 1.386 . S
C1697 C1701 1.393 . S
C1698 H1690 0.950 . S
C1698 C1696 1.391 . S
C1698 C1699 1.400 . S
C1699 C1698 1.400 . S
C1699 C1700 1.398 . S
C1699 C1705 1.491 . S
C1700 H1691 0.950 . S
C1700 C1699 1.398 . S
C1700 C1701 1.391 . S
C1701 H1689 0.950 . S
C1701 C1697 1.393 . S
C1701 C1700 1.391 . S
C1702 H1692 0.950 . S
C1702 C1703 1.386 . S
C1702 C1704 1.391 . S
C1703 C1702 1.386 . S
C1703 C1707 1.393 . S
C1704 H1693 0.950 . S
C1704 C1702 1.391 . S
C1704 C1705 1.400 . S
C1705 C1699 1.491 . S
C1705 C1704 1.400 . S
C1705 C1706 1.398 . S
C1706 H1694 0.950 . S
C1706 C1705 1.398 . S
C1706 C1707 1.391 . S
C1707 H1695 0.950 . S
C1707 C1703 1.393 . S
C1707 C1706 1.391 . S
H1708 C1716 0.950 . S
H1709 C1721 0.950 . S
H1710 C1718 0.950 . S
H1711 C1720 0.950 . S
H1712 C1722 0.950 . S
H1713 C1724 0.950 . S
H1714 C1726 0.950 . S
H1715 C1727 0.950 . S
C1716 H1708 0.950 . S
C1716 C1717 1.386 . S
C1716 C1718 1.391 . S
C1717 C1716 1.386 . S
C1717 C1721 1.393 . S
C1718 H1710 0.950 . S
C1718 C1716 1.391 . S
C1718 C1719 1.400 . S
C1719 C1718 1.400 . S
C1719 C1720 1.398 . S
C1719 C1725 1.491 . S
C1720 H1711 0.950 . S
C1720 C1719 1.398 . S
C1720 C1721 1.391 . S
C1721 H1709 0.950 . S
C1721 C1717 1.393 . S
C1721 C1720 1.391 . S
C1722 H1712 0.950 . S
C1722 C1723 1.386 . S
C1722 C1724 1.391 . S
C1723 C1722 1.386 . S
C1723 C1727 1.393 . S
C1724 H1713 0.950 . S
C1724 C1722 1.391 . S
C1724 C1725 1.400 . S
C1725 C1719 1.491 . S
C1725 C1724 1.400 . S
C1725 C1726 1.398 . S
C1726 H1714 0.950 . S
C1726 C1725 1.398 . S
C1726 C1727 1.391 . S
C1727 H1715 0.950 . S
C1727 C1723 1.393 . S
C1727 C1726 1.391 . S
C457 C411 1.563 . S
C463 C5 1.564 . S
C477 C19 1.565 . S
C483 C425 1.561 . S
C497 C439 1.562 . S
C503 C33 1.565 . S
C517 C397 1.565 . S
C523 C47 1.561 . S
C537 C61 1.565 . S
C543 C383 1.562 . S
C557 C341 1.565 . S
C563 C75 1.562 . S
C577 C89 1.565 . S
C583 C355 1.561 . S
C597 C369 1.565 . S
C603 C103 1.562 . S
C617 C117 1.565 . S
C623 C299 1.562 . S
C637 C131 1.564 . S
C643 C313 1.563 . S
C657 C327 1.562 . S
C663 C145 1.565 . S
C677 C159 1.565 . S
C683 C285 1.561 . S
C697 C271 1.564 . S
C703 C173 1.562 . S
C717 C229 1.561 . S
C723 C187 1.565 . S
C737 C201 1.564 . S
C743 C243 1.562 . S
C757 C215 1.561 . S
C763 C257 1.565 . S
C777 C0 1.389 . S
C783 C140 1.401 . S
C797 C154 1.396 . S
C803 C14 1.394 . S
C817 C112 1.400 . S
C823 C28 1.390 . S
C837 C126 1.387 . S
C843 C42 1.403 . S
C857 C56 1.396 . S
C863 C196 1.394 . S
C877 C210 1.386 . S
C883 C70 1.404 . S
C897 C168 1.386 . S
C903 C84 1.404 . S
C917 C182 1.389 . S
C923 C98 1.401 . S
C937 C224 1.386 . S
C943 C364 1.404 . S
C957 C378 1.392 . S
C963 C238 1.398 . S
C977 C336 1.403 . S
C983 C252 1.387 . S
C997 C266 1.402 . S
C1003 C350 1.388 . S
C1017 C280 1.386 . S
C1023 C420 1.404 . S
C1037 C434 1.397 . S
C1043 C294 1.393 . S
C1057 C392 1.386 . S
C1063 C308 1.404 . S
C1077 C322 1.393 . S
C1083 C406 1.397 . S
C1097 C11 1.487 . S
C1103 C67 1.483 . S
C1117 C25 1.488 . S
C1123 C81 1.495 . S
C1137 C95 1.494 . S
C1143 C39 1.498 . S
C1157 C53 1.485 . S
C1163 C109 1.491 . S
C1177 C123 1.497 . S
C1183 C179 1.497 . S
C1197 C193 1.487 . S
C1203 C137 1.483 . S
C1217 C207 1.483 . S
C1223 C151 1.486 . S
C1237 C165 1.490 . S
C1243 C221 1.484 . S
C1257 C235 1.497 . S
C1263 C291 1.492 . S
C1277 C305 1.484 . S
C1283 C249 1.488 . S
C1297 C263 1.483 . S
C1303 C319 1.487 . S
C1317 C333 1.487 . S
C1323 C277 1.493 . S
C1337 C403 1.484 . S
C1343 C347 1.484 . S
C1357 C361 1.489 . S
C1363 C417 1.495 . S
C1377 C375 1.491 . S
C1383 C431 1.496 . S
C1397 C389 1.491 . S
C1403 C445 1.485 . S
C1417 C9 1.396 . S
C1423 C79 1.392 . S
C1437 C23 1.392 . S
C1443 C93 1.395 . S
C1457 C107 1.393 . S
C1463 C37 1.394 . S
C1477 C65 1.394 . S
C1483 C51 1.393 . S
C1497 C191 1.397 . S
C1503 C121 1.395 . S
C1517 C205 1.395 . S
C1523 C135 1.392 . S
C1537 C219 1.393 . S
C1543 C149 1.397 . S
C1557 C163 1.395 . S
C1563 C177 1.393 . S
C1577 C233 1.392 . S
C1583 C303 1.396 . S
C1597 C317 1.397 . S
C1603 C247 1.393 . S
C1617 C331 1.396 . S
C1623 C261 1.392 . S
C1637 C275 1.397 . S
C1643 C289 1.394 . S
C1657 C415 1.396 . S
C1663 C345 1.392 . S
C1677 C359 1.396 . S
C1683 C429 1.392 . S
C1697 C373 1.393 . S
C1703 C443 1.397 . S
C1717 C401 1.393 . S
C1723 C387 1.397 . S
