# Generated by pormake.
# Topology yfj, (5)-cn, num edge types: 1
# Building blocks:
#     Node 0, Type 0, BuildingBlock: XOMCOT_clean_sbu_0, # of connection points: 5
#     Node 1, Type 0, BuildingBlock: XOMCOT_clean_sbu_0, # of connection points: 5
#     Node 2, Type 0, BuildingBlock: XOMCOT_clean_sbu_0, # of connection points: 5
#     Node 3, Type 0, BuildingBlock: XOMCOT_clean_sbu_0, # of connection points: 5
#     Node 4, Type 0, BuildingBlock: XOMCOT_clean_sbu_0, # of connection points: 5
#     Node 5, Type 0, BuildingBlock: XOMCOT_clean_sbu_0, # of connection points: 5
#     Node 6, Type 0, BuildingBlock: XOMCOT_clean_sbu_0, # of connection points: 5
#     Node 7, Type 0, BuildingBlock: XOMCOT_clean_sbu_0, # of connection points: 5
#     Node 8, Type 0, BuildingBlock: XOMCOT_clean_sbu_0, # of connection points: 5
#     Node 9, Type 0, BuildingBlock: XOMCOT_clean_sbu_0, # of connection points: 5
#     Node 10, Type 0, BuildingBlock: XOMCOT_clean_sbu_0, # of connection points: 5
#     Node 11, Type 0, BuildingBlock: XOMCOT_clean_sbu_0, # of connection points: 5
#     Node 12, Type 0, BuildingBlock: XOMCOT_clean_sbu_0, # of connection points: 5
#     Node 13, Type 0, BuildingBlock: XOMCOT_clean_sbu_0, # of connection points: 5
#     Node 14, Type 0, BuildingBlock: XOMCOT_clean_sbu_0, # of connection points: 5
#     Node 15, Type 0, BuildingBlock: XOMCOT_clean_sbu_0, # of connection points: 5
#     Edge 16, Type (0, 0), BuildingBlock: XIVTED_clean_linker_0, # of connection points: 2
#     Edge 17, Type (0, 0), BuildingBlock: XIVTED_clean_linker_0, # of connection points: 2
#     Edge 18, Type (0, 0), BuildingBlock: XIVTED_clean_linker_0, # of connection points: 2
#     Edge 19, Type (0, 0), BuildingBlock: XIVTED_clean_linker_0, # of connection points: 2
#     Edge 20, Type (0, 0), BuildingBlock: XIVTED_clean_linker_0, # of connection points: 2
#     Edge 21, Type (0, 0), BuildingBlock: XIVTED_clean_linker_0, # of connection points: 2
#     Edge 22, Type (0, 0), BuildingBlock: XIVTED_clean_linker_0, # of connection points: 2
#     Edge 23, Type (0, 0), BuildingBlock: XIVTED_clean_linker_0, # of connection points: 2
#     Edge 24, Type (0, 0), BuildingBlock: XIVTED_clean_linker_0, # of connection points: 2
#     Edge 25, Type (0, 0), BuildingBlock: XIVTED_clean_linker_0, # of connection points: 2
#     Edge 26, Type (0, 0), BuildingBlock: XIVTED_clean_linker_0, # of connection points: 2
#     Edge 27, Type (0, 0), BuildingBlock: XIVTED_clean_linker_0, # of connection points: 2
#     Edge 28, Type (0, 0), BuildingBlock: XIVTED_clean_linker_0, # of connection points: 2
#     Edge 29, Type (0, 0), BuildingBlock: XIVTED_clean_linker_0, # of connection points: 2
#     Edge 30, Type (0, 0), BuildingBlock: XIVTED_clean_linker_0, # of connection points: 2
#     Edge 31, Type (0, 0), BuildingBlock: XIVTED_clean_linker_0, # of connection points: 2
#     Edge 32, Type (0, 0), BuildingBlock: XIVTED_clean_linker_0, # of connection points: 2
#     Edge 33, Type (0, 0), BuildingBlock: XIVTED_clean_linker_0, # of connection points: 2
#     Edge 34, Type (0, 0), BuildingBlock: XIVTED_clean_linker_0, # of connection points: 2
#     Edge 35, Type (0, 0), BuildingBlock: XIVTED_clean_linker_0, # of connection points: 2
#     Edge 36, Type (0, 0), BuildingBlock: XIVTED_clean_linker_0, # of connection points: 2
#     Edge 37, Type (0, 0), BuildingBlock: XIVTED_clean_linker_0, # of connection points: 2
#     Edge 38, Type (0, 0), BuildingBlock: XIVTED_clean_linker_0, # of connection points: 2
#     Edge 39, Type (0, 0), BuildingBlock: XIVTED_clean_linker_0, # of connection points: 2
#     Edge 40, Type (0, 0), BuildingBlock: XIVTED_clean_linker_0, # of connection points: 2
#     Edge 41, Type (0, 0), BuildingBlock: XIVTED_clean_linker_0, # of connection points: 2
#     Edge 42, Type (0, 0), BuildingBlock: XIVTED_clean_linker_0, # of connection points: 2
#     Edge 43, Type (0, 0), BuildingBlock: XIVTED_clean_linker_0, # of connection points: 2
#     Edge 44, Type (0, 0), BuildingBlock: XIVTED_clean_linker_0, # of connection points: 2
#     Edge 45, Type (0, 0), BuildingBlock: XIVTED_clean_linker_0, # of connection points: 2
#     Edge 46, Type (0, 0), BuildingBlock: XIVTED_clean_linker_0, # of connection points: 2
#     Edge 47, Type (0, 0), BuildingBlock: XIVTED_clean_linker_0, # of connection points: 2
#     Edge 48, Type (0, 0), BuildingBlock: XIVTED_clean_linker_0, # of connection points: 2
#     Edge 49, Type (0, 0), BuildingBlock: XIVTED_clean_linker_0, # of connection points: 2
#     Edge 50, Type (0, 0), BuildingBlock: XIVTED_clean_linker_0, # of connection points: 2
#     Edge 51, Type (0, 0), BuildingBlock: XIVTED_clean_linker_0, # of connection points: 2
#     Edge 52, Type (0, 0), BuildingBlock: XIVTED_clean_linker_0, # of connection points: 2
#     Edge 53, Type (0, 0), BuildingBlock: XIVTED_clean_linker_0, # of connection points: 2
#     Edge 54, Type (0, 0), BuildingBlock: XIVTED_clean_linker_0, # of connection points: 2
#     Edge 55, Type (0, 0), BuildingBlock: XIVTED_clean_linker_0, # of connection points: 2
# Relax obj value: 0.401
# Max RMSD: 0.239
# Mean RMSD: 0.239
data_MOF--net-yfj--node1-XOMCOT_clean_sbu_0--edge1-XIVTED_clean_linker_0
_symmetry_space_group_name_H-M    P1
_symmetry_Int_Tables_number       1
_symmetry_cell_setting            triclinic
loop_
_symmetry_equiv_pos_as_xyz
'x, y, z'
_cell_length_a     47.914875
_cell_length_b     47.982611
_cell_length_c     48.033373
_cell_angle_alpha  90.010186
_cell_angle_beta   89.746719
_cell_angle_gamma 90.013098
loop_
_atom_site_label
_atom_site_type_symbol
_atom_site_fract_x
_atom_site_fract_y
_atom_site_fract_z
_atom_type_partial_charge
Co0 Co 0.13117 0.14167 0.3311 0.0
C1 C 0.16062 0.14451 0.27681 0.0
C2 C 0.1459 0.18494 0.28845 0.0
C3 C 0.16226 0.18734 0.26467 0.0
N4 N 0.14482 0.15793 0.2961 0.0
N5 N 0.17176 0.1618 0.2575 0.0
H6 H 0.16494 0.12249 0.27753 0.0
H7 H 0.13678 0.20201 0.30003 0.0
C8 C 0.09892 0.18454 0.36446 0.0
O9 O 0.08281 0.16532 0.37549 0.0
N10 N 0.11908 0.1241 0.36558 0.0
C11 C 0.10427 0.10031 0.36788 0.0
C12 C 0.10258 0.09295 0.39545 0.0
C13 C 0.12711 0.13027 0.39186 0.0
N14 N 0.11692 0.11177 0.41059 0.0
C15 C 0.10356 0.10546 0.29378 0.0
C16 C 0.04989 0.11413 0.31279 0.0
C17 C 0.05578 0.08999 0.29727 0.0
C18 C 0.08263 0.08686 0.28623 0.0
C19 C 0.07151 0.13284 0.31921 0.0
N20 N 0.09844 0.12697 0.31173 0.0
H21 H 0.12448 0.10068 0.28719 0.0
H22 H 0.06665 0.15077 0.33159 0.0
H23 H 0.09585 0.08847 0.35074 0.0
H24 H 0.14037 0.14776 0.39704 0.0
O25 O 0.15566 0.10996 0.32589 0.0
O26 O 0.16653 0.14967 0.34729 0.0
O27 O 0.1138 0.17895 0.34278 0.0
C28 C 0.17403 0.12513 0.3387 0.0
H29 H 0.1679 0.20664 0.25444 0.0
H30 H 0.09159 0.07501 0.40362 0.0
H31 H 0.02914 0.11777 0.32104 0.0
H32 H 0.0882 0.06868 0.27405 0.0
Co33 Co 0.85863 0.63614 0.58618 0.0
C34 C 0.85638 0.67294 0.53579 0.0
C35 C 0.82169 0.64481 0.53723 0.0
C36 C 0.82032 0.66016 0.51287 0.0
N37 N 0.8444 0.65275 0.55166 0.0
N38 N 0.84231 0.67776 0.51186 0.0
H39 H 0.87551 0.68347 0.54118 0.0
H40 H 0.80759 0.62833 0.54346 0.0
C41 C 0.8081 0.61132 0.6171 0.0
O42 O 0.82321 0.59077 0.62667 0.0
N43 N 0.87327 0.62125 0.62085 0.0
C44 C 0.89844 0.60912 0.62439 0.0
C45 C 0.90414 0.60771 0.65245 0.0
C46 C 0.86452 0.62788 0.64681 0.0
N47 N 0.88269 0.61938 0.66638 0.0
C48 C 0.8806 0.60366 0.54203 0.0
C49 C 0.88594 0.55469 0.57141 0.0
C50 C 0.90375 0.5594 0.54866 0.0
C51 C 0.89932 0.58337 0.53275 0.0
C52 C 0.8672 0.57554 0.57991 0.0
N53 N 0.86622 0.60077 0.56659 0.0
H54 H 0.88095 0.62321 0.5311 0.0
H55 H 0.85703 0.57236 0.59942 0.0
H56 H 0.9124 0.60311 0.60768 0.0
H57 H 0.84595 0.63998 0.65124 0.0
O58 O 0.89508 0.65168 0.57943 0.0
O59 O 0.86053 0.67254 0.60268 0.0
O60 O 0.81819 0.6279 0.59853 0.0
C61 C 0.88635 0.67271 0.59406 0.0
H62 H 0.80486 0.6577 0.49671 0.0
H63 H 0.92283 0.59936 0.66189 0.0
H64 H 0.88844 0.5364 0.58437 0.0
H65 H 0.91199 0.58763 0.51451 0.0
Co66 Co 0.3628 0.37053 0.83166 0.0
C67 C 0.32417 0.36844 0.78247 0.0
C68 C 0.3478 0.33082 0.78698 0.0
C69 C 0.33188 0.3289 0.76317 0.0
N70 N 0.34296 0.35556 0.79929 0.0
N71 N 0.31696 0.3526 0.76015 0.0
H72 H 0.31629 0.38921 0.78617 0.0
H73 H 0.36266 0.31551 0.7942 0.0
C74 C 0.38915 0.32259 0.86397 0.0
O75 O 0.40972 0.33886 0.87171 0.0
N76 N 0.38193 0.38638 0.86365 0.0
C77 C 0.40187 0.40619 0.8635 0.0
C78 C 0.40846 0.41279 0.89059 0.0
C79 C 0.37586 0.3821 0.89087 0.0
N80 N 0.39219 0.39753 0.90782 0.0
C81 C 0.39337 0.39586 0.78861 0.0
C82 C 0.44587 0.37848 0.80399 0.0
C83 C 0.44335 0.4028 0.7878 0.0
C84 C 0.41663 0.41007 0.77851 0.0
C85 C 0.42178 0.36477 0.81366 0.0
N86 N 0.39595 0.37543 0.8082 0.0
H87 H 0.37302 0.40336 0.7827 0.0
H88 H 0.42427 0.34668 0.8264 0.0
H89 H 0.41072 0.41566 0.84505 0.0
H90 H 0.36027 0.3674 0.89803 0.0
O91 O 0.34704 0.40715 0.82562 0.0
O92 O 0.32824 0.37388 0.85185 0.0
O93 O 0.37177 0.33079 0.84524 0.0
C94 C 0.32742 0.39933 0.84256 0.0
H95 H 0.33218 0.31162 0.74871 0.0
H96 H 0.42372 0.42809 0.89704 0.0
H97 H 0.46614 0.37093 0.81039 0.0
H98 H 0.41316 0.42823 0.76564 0.0
Co99 Co 0.63506 0.8751 0.08925 0.0
C100 C 0.63792 0.83908 0.03805 0.0
C101 C 0.67382 0.86544 0.04187 0.0
C102 C 0.67628 0.85005 0.01767 0.0
N103 N 0.6498 0.85855 0.05483 0.0
N104 N 0.65363 0.8335 1.01516 0.0
H105 H 0.61801 0.82935 0.04225 0.0
H106 H 0.68836 0.88105 0.04909 0.0
C107 C 0.68366 0.90138 0.12082 0.0
O108 O 0.66709 0.91995 0.1322 0.0
N109 N 0.61977 0.89047 0.12367 0.0
C110 C 0.59728 0.9071 0.1265 0.0
C111 C 0.59145 0.91034 0.15443 0.0
C112 C 0.62647 0.88283 0.14995 0.0
N113 N 0.60991 0.89514 0.16923 0.0
C114 C 0.60801 0.90583 0.04761 0.0
C115 C 0.61388 0.9578 0.07126 0.0
C116 C 0.5917 0.95314 0.05281 0.0
C117 C 0.59033 0.92733 0.03935 0.0
C118 C 0.63155 0.93567 0.07858 0.0
N119 N 0.62662 0.90939 0.06881 0.0
H120 H 0.6042 0.88535 0.03919 0.0
H121 H 0.64719 0.93952 0.09383 0.0
H122 H 0.58535 0.91568 0.10948 0.0
H123 H 0.64299 0.86824 0.15475 0.0
O124 O 0.59925 0.85761 0.08353 0.0
O125 O 0.63502 0.83919 0.10663 0.0
O126 O 0.67487 0.88554 0.10107 0.0
C127 C 0.60923 0.8374 0.09839 0.0
H128 H 0.69311 0.85163 1.00265 0.0
H129 H 0.57481 0.92293 0.16307 0.0
H130 H 0.61634 0.97779 0.08144 0.0
H131 H 0.5738 0.9227 0.02475 0.0
Co132 Co 0.1485 0.37176 0.94569 0.0
C133 C 0.17992 0.36689 0.9989 0.0
C134 C 0.15733 0.32935 0.99057 0.0
C135 C 0.17127 0.32645 1.01564 0.0
N136 N 0.16282 0.35478 0.97996 0.0
N137 N 0.18539 0.35022 0.0209 0.0
H138 H 0.18831 0.38764 0.99682 0.0
H139 H 0.14384 0.31403 0.98112 0.0
C140 C 0.12953 0.31371 0.92332 0.0
O141 O 0.10628 0.31251 0.93782 0.0
N142 N 0.13511 0.3894 0.91189 0.0
C143 C 0.12275 0.4146 0.91074 0.0
C144 C 0.11582 0.42022 0.88367 0.0
C145 C 0.13584 0.38012 0.88534 0.0
N146 N 0.12389 0.39853 0.86766 0.0
C147 C 0.10735 0.38503 0.98552 0.0
C148 C 0.06447 0.38679 0.94738 0.0
C149 C 0.06314 0.40425 0.97082 0.0
C150 C 0.08388 0.40139 0.9911 0.0
C151 C 0.08826 0.37045 0.94273 0.0
N152 N 0.1105 0.37196 0.96043 0.0
H153 H 0.12474 0.38665 0.99962 0.0
H154 H 0.09042 0.36039 0.92271 0.0
H155 H 0.11869 0.42787 0.92851 0.0
H156 H 0.14446 0.36021 0.87916 0.0
O157 O 0.15906 0.40851 0.95875 0.0
O158 O 0.18582 0.37959 0.93402 0.0
O159 O 0.14646 0.33409 0.92638 0.0
C160 C 0.1824 0.40386 0.94562 0.0
H161 H 0.17053 0.30842 0.02915 0.0
H162 H 0.10578 0.43903 0.87638 0.0
H163 H 0.04857 0.38779 0.93145 0.0
H164 H 0.08379 0.41427 1.00962 0.0
Co165 Co 0.64293 0.63922 0.19571 0.0
C166 C 0.64731 0.67317 0.24804 0.0
C167 C 0.68193 0.64531 0.24332 0.0
C168 C 0.68469 0.65951 0.26822 0.0
N169 N 0.65848 0.65388 0.23053 0.0
N170 N 0.6628 0.677 0.27129 0.0
H171 H 0.62795 0.68396 0.24416 0.0
H172 H 0.69575 0.62927 0.23551 0.0
C173 C 0.69206 0.61622 0.16136 0.0
O174 O 0.6757 0.59889 0.14808 0.0
N175 N 0.62648 0.62579 0.1611 0.0
C176 C 0.60206 0.61189 0.15912 0.0
C177 C 0.59371 0.61158 0.13174 0.0
C178 C 0.63208 0.63456 0.13484 0.0
N179 N 0.61265 0.62571 0.11653 0.0
C180 C 0.61935 0.605 0.23713 0.0
C181 C 0.6205 0.5561 0.20706 0.0
C182 C 0.60033 0.55926 0.22813 0.0
C183 C 0.60143 0.5833 0.24458 0.0
C184 C 0.63846 0.57829 0.20057 0.0
N185 N 0.63589 0.60333 0.2139 0.0
H186 H 0.61695 0.62454 0.24798 0.0
H187 H 0.65175 0.57605 0.18281 0.0
H188 H 0.59026 0.60385 0.1766 0.0
H189 H 0.64939 0.64805 0.12942 0.0
O190 O 0.60698 0.65522 0.20421 0.0
O191 O 0.64136 0.67624 0.18084 0.0
O192 O 0.68274 0.6306 0.18203 0.0
C193 C 0.61585 0.67667 0.1903 0.0
H194 H 0.70113 0.65645 0.28328 0.0
H195 H 0.57488 0.60212 0.12368 0.0
H196 H 0.62092 0.53751 0.19426 0.0
H197 H 0.58644 0.58675 0.26117 0.0
Co198 Co 0.39505 0.142 0.4518 0.0
C199 C 0.35598 0.1423 0.50053 0.0
C200 C 0.38145 0.17903 0.49881 0.0
C201 C 0.3647 0.18032 0.52227 0.0
N202 N 0.37597 0.15524 0.48513 0.0
N203 N 0.3486 0.15717 0.5235 0.0
H204 H 0.34705 0.12238 0.49502 0.0
H205 H 0.39691 0.19418 0.49241 0.0
C206 C 0.39953 0.19626 0.42259 0.0
O207 O 0.42505 0.1947 0.43236 0.0
N208 N 0.41372 0.12807 0.41791 0.0
C209 C 0.43118 0.10606 0.41548 0.0
C210 C 0.43628 0.10077 0.38782 0.0
C211 C 0.40828 0.1354 0.39111 0.0
N212 N 0.42167 0.11906 0.37239 0.0
C213 C 0.40269 0.09068 0.48246 0.0
C214 C 0.45961 0.09795 0.48882 0.0
C215 C 0.4478 0.07175 0.49444 0.0
C216 C 0.41881 0.06872 0.49265 0.0
C217 C 0.44256 0.11969 0.47937 0.0
N218 N 0.41494 0.11512 0.47441 0.0
H219 H 0.38066 0.08723 0.47957 0.0
H220 H 0.45189 0.1393 0.47325 0.0
H221 H 0.4388 0.09326 0.43219 0.0
H222 H 0.39347 0.15122 0.38515 0.0
O223 O 0.36346 0.11629 0.4432 0.0
O224 O 0.36435 0.15799 0.42851 0.0
O225 O 0.38192 0.17666 0.42916 0.0
C226 C 0.35129 0.13457 0.42886 0.0
H227 H 0.36499 0.19686 0.53757 0.0
H228 H 0.44917 0.08406 0.37982 0.0
H229 H 0.48195 0.10108 0.49016 0.0
H230 H 0.40894 0.04886 0.49697 0.0
Co231 Co 0.88454 0.86947 0.7001 0.0
C232 C 0.88312 0.83113 0.74961 0.0
C233 C 0.84927 0.86027 0.75017 0.0
C234 C 0.84842 0.84469 0.77436 0.0
N235 N 0.87102 0.85181 0.7345 0.0
N236 N 0.86982 0.82631 0.7742 0.0
H237 H 0.9018 0.82037 0.74311 0.0
H238 H 0.83554 0.87735 0.74493 0.0
C239 C 0.83504 0.89661 0.6705 0.0
O240 O 0.85103 0.9162 0.66006 0.0
N241 N 0.89895 0.88613 0.66598 0.0
C242 C 0.92151 0.90276 0.66349 0.0
C243 C 0.92628 0.90801 0.63572 0.0
C244 C 0.89136 0.88018 0.63953 0.0
N245 N 0.90721 0.89393 0.62066 0.0
C246 C 0.91373 0.89848 0.74168 0.0
C247 C 0.90742 0.95128 0.72003 0.0
C248 C 0.9303 0.94583 0.73739 0.0
C249 C 0.93199 0.91956 0.74988 0.0
C250 C 0.88912 0.92957 0.71285 0.0
N251 N 0.89418 0.90292 0.7215 0.0
H252 H 0.91768 0.87767 0.7492 0.0
H253 H 0.87288 0.93403 0.6984 0.0
H254 H 0.93417 0.91003 0.68059 0.0
H255 H 0.87418 0.86653 0.63429 0.0
O256 O 0.92033 0.8512 0.70368 0.0
O257 O 0.88332 0.8344 0.68129 0.0
O258 O 0.84427 0.88053 0.68991 0.0
C259 C 0.90937 0.83183 0.68834 0.0
H260 H 0.83361 0.84757 0.79116 0.0
H261 H 0.94294 0.92072 0.62726 0.0
H262 H 0.90478 0.97161 0.71061 0.0
H263 H 0.94908 0.91436 0.76362 0.0
Co264 Co 0.61488 0.64597 0.83057 0.0
C265 C 0.65389 0.64704 0.78184 0.0
C266 C 0.62467 0.68086 0.78093 0.0
C267 C 0.64113 0.68202 0.75723 0.0
N268 N 0.63266 0.65894 0.79639 0.0
N269 N 0.65949 0.66063 0.75766 0.0
H270 H 0.66497 0.62871 0.78874 0.0
H271 H 0.60762 0.69468 0.78622 0.0
C272 C 0.61071 0.70288 0.85623 0.0
O273 O 0.58526 0.70185 0.84622 0.0
N274 N 0.59791 0.63199 0.86509 0.0
C275 C 0.59212 0.60485 0.87015 0.0
C276 C 0.58912 0.60074 0.89833 0.0
C277 C 0.59822 0.64389 0.89078 0.0
N278 N 0.59295 0.62528 0.91121 0.0
C279 C 0.6099 0.59452 0.79986 0.0
C280 C 0.55215 0.59506 0.799 0.0
C281 C 0.56631 0.57055 0.79142 0.0
C282 C 0.59554 0.57087 0.7909 0.0
C283 C 0.56737 0.61829 0.80807 0.0
N284 N 0.59575 0.61725 0.80959 0.0
H285 H 0.63236 0.59369 0.80056 0.0
H286 H 0.55645 0.63645 0.81582 0.0
H287 H 0.59269 0.58836 0.85489 0.0
H288 H 0.60498 0.66486 0.89509 0.0
O289 O 0.6477 0.62183 0.83935 0.0
O290 O 0.64501 0.6638 0.85305 0.0
O291 O 0.62751 0.6821 0.8514 0.0
C292 C 0.65897 0.64091 0.85342 0.0
H293 H 0.63903 0.69702 0.74055 0.0
H294 H 0.58637 0.5809 0.90873 0.0
H295 H 0.52957 0.59567 0.79969 0.0
H296 H 0.60724 0.55256 0.7847 0.0
Co297 Co 0.37241 0.13979 0.08805 0.0
C298 C 0.36751 0.1776 0.03833 0.0
C299 C 0.33246 0.15014 0.04238 0.0
C300 C 0.32943 0.1656 0.01835 0.0
N301 N 0.35631 0.15765 0.05509 0.0
N302 N 0.35154 0.18287 1.01563 0.0
H303 H 0.38726 0.18767 0.0423 0.0
H304 H 0.31864 0.13378 0.04949 0.0
C305 C 0.32445 0.11434 0.12169 0.0
O306 O 0.34118 0.0958 0.13273 0.0
N307 N 0.38941 0.12278 0.12077 0.0
C308 C 0.41185 0.10583 0.12087 0.0
C309 C 0.42008 0.1015 0.14792 0.0
C310 C 0.38529 0.12968 0.14785 0.0
N311 N 0.40333 0.11643 0.16494 0.0
C312 C 0.39687 0.10928 0.04444 0.0
C313 C 0.39057 0.05738 0.06828 0.0
C314 C 0.4127 0.06181 0.04951 0.0
C315 C 0.41416 0.08752 0.03583 0.0
C316 C 0.37332 0.07976 0.07595 0.0
N317 N 0.37873 0.10596 0.06621 0.0
H318 H 0.40085 0.12976 0.03603 0.0
H319 H 0.35797 0.07632 0.09179 0.0
H320 H 0.42242 0.09811 0.10251 0.0
H321 H 0.36933 0.14407 0.15484 0.0
O322 O 0.40823 0.15684 0.0807 0.0
O323 O 0.37418 0.17488 0.10684 0.0
O324 O 0.33293 0.12989 0.10156 0.0
C325 C 0.3996 0.17642 0.0973 0.0
H326 H 0.31268 0.16337 1.00349 0.0
H327 H 0.43778 0.08914 0.15443 0.0
H328 H 0.38807 0.03749 0.07865 0.0
H329 H 0.43062 0.09191 0.02094 0.0
Co330 Co 0.87025 0.86981 0.33541 0.0
C331 C 0.83309 0.86625 0.28554 0.0
C332 C 0.86023 0.83091 0.28849 0.0
C333 C 0.84484 0.82872 0.26431 0.0
N334 N 0.85286 0.85445 0.30191 0.0
N335 N 0.82784 0.85108 0.26234 0.0
H336 H 0.82313 0.88591 0.2901 0.0
H337 H 0.87638 0.81674 0.29526 0.0
C338 C 0.89449 0.82115 0.36873 0.0
O339 O 0.91384 0.83718 0.3794 0.0
N340 N 0.88662 0.886 0.36873 0.0
C341 C 0.90345 0.90848 0.36989 0.0
C342 C 0.9077 0.91543 0.39732 0.0
C343 C 0.87968 0.88057 0.39553 0.0
N344 N 0.89286 0.89778 0.4135 0.0
C345 C 0.90177 0.89345 0.29207 0.0
C346 C 0.95314 0.88891 0.31722 0.0
C347 C 0.94881 0.91032 0.2978 0.0
C348 C 0.92345 0.91087 0.28353 0.0
C349 C 0.93088 0.8714 0.32474 0.0
N350 N 0.90479 0.87592 0.31429 0.0
H351 H 0.88144 0.89698 0.28318 0.0
H352 H 0.93429 0.85667 0.341 0.0
H353 H 0.91149 0.91964 0.35203 0.0
H354 H 0.86509 0.86446 0.40164 0.0
O355 O 0.85422 0.90605 0.32828 0.0
O356 O 0.83443 0.87213 0.35315 0.0
O357 O 0.879 0.83005 0.34877 0.0
C358 C 0.83365 0.89757 0.34377 0.0
H359 H 0.84688 0.8124 0.24889 0.0
H360 H 0.92082 0.93221 0.40469 0.0
H361 H 0.9728 0.88717 0.32813 0.0
H362 H 0.91917 0.92681 0.26816 0.0
Co363 Co 0.13008 0.37213 0.58218 0.0
C364 C 0.13365 0.33289 0.53368 0.0
C365 C 0.16588 0.3638 0.5323 0.0
C366 C 0.16721 0.348 0.50824 0.0
N367 N 0.14479 0.35438 0.54835 0.0
N368 N 0.14676 0.3286 0.50894 0.0
H369 H 0.11563 0.32121 0.54048 0.0
H370 H 0.17861 0.38177 0.53707 0.0
C371 C 0.17787 0.40213 0.61166 0.0
O372 O 0.16109 0.42146 0.62128 0.0
N373 N 0.11465 0.38868 0.61579 0.0
C374 C 0.09035 0.4026 0.61827 0.0
C375 C 0.08452 0.40634 0.64611 0.0
C376 C 0.12252 0.38303 0.64215 0.0
N377 N 0.10484 0.39407 0.66115 0.0
C378 C 0.10046 0.39833 0.5392 0.0
C379 C 0.10111 0.45153 0.56086 0.0
C380 C 0.07928 0.44387 0.54298 0.0
C381 C 0.08063 0.4176 0.53039 0.0
C382 C 0.12099 0.43155 0.56884 0.0
N383 N 0.11879 0.40453 0.56003 0.0
H384 H 0.09859 0.37728 0.5316 0.0
H385 H 0.13591 0.4374 0.5842 0.0
H386 H 0.07701 0.40842 0.60113 0.0
H387 H 0.1408 0.37083 0.64716 0.0
O388 O 0.09535 0.3519 0.57869 0.0
O389 O 0.13288 0.33767 0.60195 0.0
O390 O 0.16962 0.38542 0.59235 0.0
C391 C 0.10701 0.33366 0.59489 0.0
H392 H 0.18139 0.35154 0.49101 0.0
H393 H 0.06608 0.41634 0.65449 0.0
H394 H 0.1014 0.47185 0.57067 0.0
H395 H 0.06497 0.41105 0.51557 0.0
Co396 Co 0.6456 0.86526 0.45441 0.0
C397 C 0.68391 0.86343 0.50378 0.0
C398 C 0.65929 0.82632 0.50048 0.0
C399 C 0.67538 0.82469 0.52426 0.0
N400 N 0.66465 0.8506 0.48746 0.0
N401 N 0.6909 0.84811 0.52649 0.0
H402 H 0.69238 0.88382 0.49942 0.0
H403 H 0.6441 0.81114 0.49368 0.0
C404 C 0.62137 0.81656 0.42131 0.0
O405 O 0.60141 0.8326 0.41179 0.0
N406 N 0.62746 0.88106 0.42172 0.0
C407 C 0.60822 0.90154 0.42158 0.0
C408 C 0.60213 0.90832 0.39446 0.0
C409 C 0.63391 0.87678 0.39453 0.0
N410 N 0.61809 0.89258 0.37738 0.0
C411 C 0.61366 0.88894 0.4976 0.0
C412 C 0.5618 0.87599 0.47662 0.0
C413 C 0.56445 0.89899 0.49447 0.0
C414 C 0.59039 0.90389 0.50676 0.0
C415 C 0.58568 0.86105 0.46857 0.0
N416 N 0.61154 0.86976 0.47668 0.0
H417 H 0.6339 0.89525 0.5051 0.0
H418 H 0.58318 0.84419 0.45431 0.0
H419 H 0.59958 0.91142 0.43991 0.0
H420 H 0.64925 0.86175 0.38752 0.0
O421 O 0.66054 0.90205 0.4611 0.0
O422 O 0.68073 0.86887 0.43558 0.0
O423 O 0.63765 0.8253 0.44077 0.0
C424 C 0.68093 0.89429 0.44502 0.0
H425 H 0.67488 0.80782 0.53919 0.0
H426 H 0.58737 0.92403 0.38788 0.0
H427 H 0.54184 0.87087 0.46744 0.0
H428 H 0.59337 0.92117 0.52096 0.0
Co429 Co 0.15078 0.13325 0.69497 0.0
C430 C 0.1533 0.17157 0.74442 0.0
C431 C 0.19097 0.14794 0.73953 0.0
C432 C 0.19333 0.16455 0.7629 0.0
N433 N 0.1659 0.15237 0.72774 0.0
N434 N 0.16958 0.17937 0.7661 0.0
H435 H 0.13251 0.17959 0.74103 0.0
H436 H 0.20637 0.13322 0.73211 0.0
C437 C 0.19927 0.1064 0.66288 0.0
O438 O 0.1829 0.0869 0.65298 0.0
N439 N 0.13475 0.11525 0.66245 0.0
C440 C 0.11239 0.09818 0.66184 0.0
C441 C 0.10542 0.09309 0.63454 0.0
C442 C 0.14006 0.12148 0.63548 0.0
N443 N 0.12288 0.10773 0.618 0.0
C444 C 0.12432 0.10434 0.73863 0.0
C445 C 0.13125 0.05158 0.71697 0.0
C446 C 0.10844 0.05672 0.73474 0.0
C447 C 0.10656 0.08296 0.74732 0.0
C448 C 0.14897 0.07361 0.70923 0.0
N449 N 0.1434 0.1002 0.71779 0.0
H450 H 0.12007 0.1251 0.74614 0.0
H451 H 0.16503 0.0695 0.69427 0.0
H452 H 0.10109 0.09083 0.67992 0.0
H453 H 0.15634 0.13568 0.62885 0.0
O454 O 0.11492 0.15083 0.70059 0.0
O455 O 0.14989 0.16769 0.67493 0.0
O456 O 0.19059 0.12267 0.68245 0.0
C457 C 0.12423 0.1698 0.68365 0.0
H458 H 0.21094 0.165 0.77692 0.0
H459 H 0.08819 0.08039 0.62746 0.0
H460 H 0.13411 0.03129 0.70751 0.0
H461 H 0.08958 0.08794 0.76142 0.0
Co462 Co 0.87991 0.64408 0.95403 0.0
C463 C 0.8573 0.6465 1.0114 0.0
C464 C 0.87436 0.68603 0.99968 0.0
C465 C 0.86047 0.68885 0.0249 0.0
N466 N 0.87236 0.65936 0.99114 0.0
N467 N 0.84949 0.66392 0.03221 0.0
H468 H 0.8502 0.62523 1.0099 0.0
H469 H 0.88366 0.70274 0.98772 0.0
C470 C 0.91627 0.68277 0.92009 0.0
O471 O 0.92975 0.66186 0.9086 0.0
N472 N 0.88573 0.6276 0.91753 0.0
C473 C 0.89368 0.6011 0.9124 0.0
C474 C 0.89163 0.596 0.88431 0.0
C475 C 0.87826 0.63802 0.89247 0.0
N476 N 0.88215 0.61926 0.8719 0.0
C477 C 0.90466 0.59965 0.9841 0.0
C478 C 0.95903 0.60694 0.96653 0.0
C479 C 0.95153 0.58168 0.97933 0.0
C480 C 0.92425 0.5789 0.98941 0.0
C481 C 0.93872 0.62761 0.96217 0.0
N482 N 0.91142 0.62285 0.96898 0.0
H483 H 0.88349 0.59584 0.99061 0.0
H484 H 0.94508 0.64687 0.95276 0.0
H485 H 0.89981 0.58613 0.928 0.0
H486 H 0.8699 0.65875 0.88938 0.0
O487 O 0.851 0.61649 0.95964 0.0
O488 O 0.84502 0.65893 0.942 0.0
O489 O 0.90208 0.67884 0.94261 0.0
C490 C 0.83433 0.63529 0.94968 0.0
H491 H 0.85776 0.70813 0.03627 0.0
H492 H 0.89682 0.57674 0.87373 0.0
H493 H 0.98021 0.61041 0.95935 0.0
H494 H 0.91743 0.55994 0.99961 0.0
Co495 Co 0.37644 0.37541 0.19435 0.0
C496 C 0.37327 0.33672 0.24371 0.0
C497 C 0.3375 0.36337 0.2408 0.0
C498 C 0.3346 0.34673 0.26405 0.0
N499 N 0.36167 0.35707 0.22781 0.0
N500 N 0.35712 0.32996 0.266 0.0
H501 H 0.39321 0.32712 0.23928 0.0
H502 H 0.3231 0.37939 0.23423 0.0
C503 C 0.32724 0.40189 0.16382 0.0
O504 O 0.34313 0.42137 0.15301 0.0
N505 N 0.3917 0.39275 0.16089 0.0
C506 C 0.41431 0.40937 0.15905 0.0
C507 C 0.42045 0.41385 0.13136 0.0
C508 C 0.38523 0.38637 0.13424 0.0
N509 N 0.40208 0.39942 0.11573 0.0
C510 C 0.40353 0.40474 0.23695 0.0
C511 C 0.39695 0.45723 0.21464 0.0
C512 C 0.41992 0.4521 0.23199 0.0
C513 C 0.42164 0.42603 0.24494 0.0
C514 C 0.37899 0.43527 0.20748 0.0
N515 N 0.38436 0.40878 0.21636 0.0
H516 H 0.40753 0.38404 0.24475 0.0
H517 H 0.36287 0.43935 0.19275 0.0
H518 H 0.42621 0.41697 0.17655 0.0
H519 H 0.36882 0.37195 0.12862 0.0
O520 O 0.41237 0.35786 0.19935 0.0
O521 O 0.37688 0.34061 0.17495 0.0
O522 O 0.33656 0.3858 0.18306 0.0
C523 C 0.4027 0.33863 0.18299 0.0
H524 H 0.31752 0.34756 0.27885 0.0
H525 H 0.43733 0.42661 0.12346 0.0
H526 H 0.39413 0.47743 0.20499 0.0
H527 H 0.43871 0.42103 0.25877 0.0
H528 H 0.12833 0.15609 0.44431 0.0
H529 H 0.10713 0.06641 0.58315 0.0
H530 H 0.11321 0.0674 0.44549 0.0
H531 H 0.13909 0.15044 0.58425 0.0
H532 H 0.10712 0.06761 0.53241 0.0
H533 H 0.13125 0.15554 0.49526 0.0
C534 C 0.12586 0.13648 0.45517 0.0
C535 C 0.12027 0.11178 0.44046 0.0
C536 C 0.11422 0.08581 0.54368 0.0
C537 C 0.12318 0.11111 0.49877 0.0
C538 C 0.11402 0.08519 0.57269 0.0
C539 C 0.12303 0.10837 0.58799 0.0
C540 C 0.1233 0.1099 0.52969 0.0
C541 C 0.13219 0.13201 0.57328 0.0
C542 C 0.12739 0.13622 0.48428 0.0
C543 C 0.11696 0.08706 0.4558 0.0
N544 N 0.13196 0.13223 0.54492 0.0
N545 N 0.11832 0.08741 0.48401 0.0
H546 H 0.90203 0.66159 0.84056 0.0
H547 H 0.83752 0.60792 0.69799 0.0
H548 H 0.85462 0.58546 0.83666 0.0
H549 H 0.92192 0.63848 0.70181 0.0
H550 H 0.83449 0.61079 0.74915 0.0
H551 H 0.90038 0.66471 0.7893 0.0
C552 C 0.89084 0.6459 0.82885 0.0
C553 C 0.87848 0.62321 0.84253 0.0
C554 C 0.85354 0.61709 0.73869 0.0
C555 C 0.87616 0.6268 0.7846 0.0
C556 C 0.85523 0.61555 0.70968 0.0
C557 C 0.88007 0.62276 0.69597 0.0
C558 C 0.87659 0.6267 0.75385 0.0
C559 C 0.90257 0.63246 0.71183 0.0
C560 C 0.89007 0.64756 0.79979 0.0
C561 C 0.86445 0.60315 0.82665 0.0
N562 N 0.90028 0.6343 0.74001 0.0
N563 N 0.86354 0.60545 0.79846 0.0
H564 H 0.44435 0.40908 0.07896 0.0
H565 H 0.35024 0.38333 0.94368 0.0
H566 H 0.35719 0.3867 0.08338 0.0
H567 H 0.43598 0.41075 0.94103 0.0
H568 H 0.35246 0.38267 0.99463 0.0
H569 H 0.4417 0.40828 0.02834 0.0
C570 C 0.42459 0.4041 0.06936 0.0
C571 C 0.40094 0.39808 0.08566 0.0
C572 C 0.37076 0.38885 0.98287 0.0
C573 C 0.39781 0.39685 0.02728 0.0
C574 C 0.36955 0.38911 0.95374 0.0
C575 C 0.39293 0.3972 0.93791 0.0
C576 C 0.39557 0.39662 0.99634 0.0
C577 C 0.41729 0.40478 0.95224 0.0
C578 C 0.42312 0.40352 0.04034 0.0
C579 C 0.37606 0.39122 0.07179 0.0
N580 N 0.41796 0.40427 0.98052 0.0
N581 N 0.37513 0.39087 0.04345 0.0
H582 H 0.57412 0.90607 0.34466 0.0
H583 H 0.65525 0.88111 0.20051 0.0
H584 H 0.65938 0.87739 0.34096 0.0
H585 H 0.56837 0.90399 0.20702 0.0
H586 H 0.65769 0.87913 0.25142 0.0
H587 H 0.57236 0.9056 0.29408 0.0
C588 C 0.59261 0.89986 0.33324 0.0
C589 C 0.61703 0.892 0.34727 0.0
C590 C 0.63809 0.88452 0.24166 0.0
C591 C 0.61503 0.89106 0.28879 0.0
C592 C 0.63662 0.8855 0.21253 0.0
C593 C 0.61156 0.89285 0.19925 0.0
C594 C 0.61436 0.89095 0.25772 0.0
C595 C 0.58825 0.89868 0.21613 0.0
C596 C 0.59151 0.89939 0.30423 0.0
C597 C 0.64007 0.8835 0.33112 0.0
N598 N 0.59026 0.89766 0.24434 0.0
N599 N 0.63855 0.88337 0.30275 0.0
H600 H 0.13588 0.35792 0.69235 0.0
H601 H 0.08448 0.42407 0.83635 0.0
H602 H 0.07896 0.42744 0.69904 0.0
H603 H 0.15371 0.36673 0.83095 0.0
H604 H 0.07935 0.42178 0.78614 0.0
H605 H 0.14012 0.35749 0.74299 0.0
C606 C 0.12431 0.37316 0.7043 0.0
C607 C 0.10704 0.39283 0.69113 0.0
C608 C 0.09571 0.40969 0.79587 0.0
C609 C 0.11156 0.39206 0.74932 0.0
C610 C 0.09877 0.4111 0.82463 0.0
C611 C 0.11987 0.39591 0.83801 0.0
C612 C 0.11376 0.39285 0.78012 0.0
C613 C 0.13714 0.37877 0.82161 0.0
C614 C 0.12668 0.37278 0.73329 0.0
C615 C 0.09224 0.41166 0.70803 0.0
N616 N 0.13378 0.37779 0.79348 0.0
N617 N 0.09486 0.4108 0.73614 0.0
H618 H 0.56538 0.66041 0.94566 0.0
H619 H 0.65548 0.6214 0.07991 0.0
H620 H 0.6307 0.59894 0.94317 0.0
H621 H 0.56775 0.64008 0.08577 0.0
H622 H 0.65232 0.62436 0.02879 0.0
H623 H 0.57146 0.66422 0.99658 0.0
C624 C 0.58113 0.64797 0.95591 0.0
C625 C 0.59736 0.62914 0.94055 0.0
C626 C 0.63385 0.62808 0.04134 0.0
C627 C 0.60488 0.63371 0.99811 0.0
C628 C 0.6357 0.62657 0.07039 0.0
C629 C 0.6118 0.63032 0.08691 0.0
C630 C 0.60807 0.63407 0.02885 0.0
C631 C 0.58655 0.63678 0.07365 0.0
C632 C 0.58456 0.65005 0.9848 0.0
C633 C 0.61762 0.61343 0.95453 0.0
N634 N 0.58533 0.63853 0.0454 0.0
N635 N 0.6209 0.61612 0.98253 0.0
H636 H 0.4316 0.076 0.33675 0.0
H637 H 0.38724 0.15911 0.1991 0.0
H638 H 0.40444 0.1618 0.33884 0.0
H639 H 0.42285 0.07656 0.19967 0.0
H640 H 0.39102 0.16048 0.2501 0.0
H641 H 0.42664 0.076 0.28655 0.0
C642 C 0.42482 0.095 0.32676 0.0
C643 C 0.41869 0.11903 0.34237 0.0
C644 C 0.39801 0.1421 0.239 0.0
C645 C 0.41245 0.11897 0.28417 0.0
C646 C 0.39571 0.14124 0.2099 0.0
C647 C 0.40487 0.11772 0.19497 0.0
C648 C 0.40936 0.11919 0.25329 0.0
C649 C 0.41593 0.0953 0.21013 0.0
C650 C 0.4218 0.09491 0.2979 0.0
C651 C 0.40927 0.14271 0.32786 0.0
N652 N 0.41782 0.0966 0.2383 0.0
N653 N 0.40647 0.1421 0.29961 0.0
H654 H 0.88028 0.85358 0.44701 0.0
H655 H 0.92087 0.93616 0.58581 0.0
H656 H 0.90398 0.94035 0.44912 0.0
H657 H 0.88579 0.85338 0.58719 0.0
H658 H 0.91566 0.93719 0.53541 0.0
H659 H 0.8821 0.85244 0.49795 0.0
C660 C 0.88558 0.87247 0.4581 0.0
C661 C 0.89215 0.89708 0.44358 0.0
C662 C 0.90903 0.91877 0.54666 0.0
C663 C 0.89468 0.89576 0.50196 0.0
C664 C 0.91223 0.91809 0.57549 0.0
C665 C 0.90394 0.89458 0.5908 0.0
C666 C 0.8976 0.89569 0.5328 0.0
C667 C 0.8923 0.872 0.57626 0.0
C668 C 0.88677 0.87174 0.48722 0.0
C669 C 0.89924 0.92077 0.45922 0.0
N670 N 0.8896 0.87305 0.54804 0.0
N671 N 0.90043 0.91947 0.48744 0.0
H672 H 0.29069 0.16125 0.11896 0.0
H673 H 0.20407 0.11491 0.25427 0.0
H674 H 0.29747 0.08126 0.15935 0.0
H675 H 0.18669 0.19188 0.21109 0.0
H676 H 0.23752 0.10278 0.21847 0.0
H677 H 0.25161 0.17293 0.15036 0.0
C678 C 0.28365 0.14592 0.13398 0.0
C679 C 0.29758 0.12022 0.13647 0.0
C680 C 0.22632 0.12228 0.2166 0.0
C681 C 0.25318 0.13369 0.17285 0.0
C682 C 0.20686 0.12926 0.23716 0.0
C683 C 0.19192 0.15449 0.2359 0.0
C684 C 0.23148 0.14061 0.19437 0.0
C685 C 0.19762 0.1723 0.21321 0.0
C686 C 0.26147 0.15271 0.15207 0.0
C687 C 0.28763 0.10138 0.15662 0.0
N688 N 0.21694 0.16507 0.19343 0.0
N689 N 0.26635 0.10856 0.17402 0.0
H690 H 0.89412 0.69856 0.50011 0.0
H691 H 0.84445 0.79222 0.37066 0.0
H692 H 0.80897 0.69975 0.4712 0.0
H693 H 0.92797 0.79158 0.40375 0.0
H694 H 0.83154 0.75536 0.40397 0.0
H695 H 0.90699 0.73024 0.46267 0.0
C696 C 0.87798 0.70554 0.48608 0.0
C697 C 0.85024 0.69643 0.48927 0.0
C698 C 0.85278 0.76306 0.40366 0.0
C699 C 0.86518 0.73289 0.44548 0.0
C700 C 0.86025 0.78392 0.38441 0.0
C701 C 0.88739 0.79512 0.38429 0.0
C702 C 0.87259 0.75326 0.42292 0.0
C703 C 0.90679 0.78375 0.40302 0.0
C704 C 0.88546 0.72359 0.46441 0.0
C705 C 0.83061 0.70597 0.46967 0.0
N706 N 0.899 0.76372 0.42155 0.0
N707 N 0.83841 0.7237 0.44878 0.0
H708 H 0.29301 0.31729 0.72228 0.0
H709 H 0.20685 0.43781 0.64517 0.0
H710 H 0.29794 0.40428 0.74466 0.0
H711 H 0.20606 0.35212 0.61819 0.0
H712 H 0.24194 0.42609 0.67998 0.0
H713 H 0.26269 0.32958 0.68347 0.0
C714 C 0.28798 0.33901 0.7191 0.0
C715 C 0.29842 0.35969 0.73716 0.0
C716 C 0.23444 0.40984 0.66627 0.0
C717 C 0.26301 0.37394 0.69226 0.0
C718 C 0.21445 0.41657 0.64616 0.0
C719 C 0.20343 0.396 0.62845 0.0
C720 C 0.24353 0.38216 0.66918 0.0
C721 C 0.2141 0.3688 0.63105 0.0
C722 C 0.27047 0.346 0.69681 0.0
C723 C 0.29043 0.38743 0.73178 0.0
N724 N 0.23327 0.36264 0.65117 0.0
N725 N 0.2733 0.39365 0.70999 0.0
H726 H 0.6023 0.81643 0.99741 0.0
H727 H 0.66265 0.71766 0.87594 0.0
H728 H 0.69022 0.80768 0.97989 0.0
H729 H 0.57526 0.73661 0.88615 0.0
H730 H 0.67331 0.74933 0.91461 0.0
H731 H 0.59211 0.78571 0.95804 0.0
C732 C 0.61951 0.80796 0.98547 0.0
C733 C 0.64722 0.81483 0.99219 0.0
C734 C 0.6518 0.74665 0.90833 0.0
C735 C 0.63559 0.77952 0.94659 0.0
C736 C 0.64569 0.72847 0.88626 0.0
C737 C 0.61798 0.72419 0.87778 0.0
C738 C 0.63004 0.76068 0.92227 0.0
C739 C 0.59695 0.73922 0.89177 0.0
C740 C 0.61365 0.79052 0.96277 0.0
C741 C 0.66854 0.80334 0.97547 0.0
N742 N 0.60338 0.75654 0.91333 0.0
N743 N 0.66231 0.78628 0.95362 0.0
H744 H 0.21159 0.31428 0.05655 0.0
H745 H 0.29475 0.43684 0.1331 0.0
H746 H 0.19871 0.40184 0.04065 0.0
H747 H 0.3007 0.35102 0.15897 0.0
H748 H 0.25762 0.42408 0.10094 0.0
H749 H 0.24244 0.32665 0.09531 0.0
C750 C 0.215 0.33606 0.06123 0.0
C751 C 0.20263 0.35697 0.04483 0.0
C752 C 0.26669 0.40801 0.11387 0.0
C753 C 0.23822 0.37131 0.08928 0.0
C754 C 0.28786 0.41535 0.13242 0.0
C755 C 0.30088 0.39504 0.14892 0.0
C756 C 0.25856 0.37997 0.11127 0.0
C757 C 0.29109 0.36746 0.14691 0.0
C758 C 0.23272 0.34312 0.08338 0.0
C759 C 0.20813 0.38487 0.05203 0.0
N760 N 0.27081 0.36067 0.12817 0.0
N761 N 0.22552 0.39114 0.07346 0.0
H762 H 0.67168 0.78878 0.41437 0.0
H763 H 0.61204 0.69737 0.28744 0.0
H764 H 0.58528 0.78627 0.38979 0.0
H765 H 0.69912 0.69784 0.30994 0.0
H766 H 0.60203 0.72788 0.32678 0.0
H767 H 0.68211 0.75268 0.37936 0.0
C768 C 0.65479 0.78017 0.40218 0.0
C769 C 0.62753 0.79066 0.40514 0.0
C770 C 0.62336 0.7213 0.32322 0.0
C771 C 0.63942 0.74975 0.36453 0.0
C772 C 0.62916 0.70394 0.30048 0.0
C773 C 0.65657 0.69496 0.29495 0.0
C774 C 0.64504 0.73006 0.34084 0.0
C775 C 0.67765 0.70395 0.31329 0.0
C776 C 0.6608 0.75977 0.38193 0.0
C777 C 0.60662 0.77898 0.38829 0.0
N778 N 0.67149 0.72104 0.33524 0.0
N779 N 0.61301 0.75945 0.36873 0.0
H780 H 0.22813 0.07149 0.62819 0.0
H781 H 0.32434 0.1916 0.56222 0.0
H782 H 0.22963 0.15555 0.65988 0.0
H783 H 0.32619 0.10582 0.53512 0.0
H784 H 0.2911 0.17882 0.59871 0.0
H785 H 0.26552 0.08344 0.59564 0.0
C786 C 0.23663 0.0924 0.62868 0.0
C787 C 0.22558 0.11248 0.64703 0.0
C788 C 0.29884 0.16277 0.58484 0.0
C789 C 0.26847 0.1266 0.60896 0.0
C790 C 0.31803 0.17003 0.56388 0.0
C791 C 0.32846 0.14985 0.54519 0.0
C792 C 0.2897 0.13505 0.58738 0.0
C793 C 0.31877 0.12232 0.54857 0.0
C794 C 0.25797 0.09927 0.60987 0.0
C795 C 0.23755 0.13926 0.6464 0.0
N796 N 0.30005 0.11583 0.56909 0.0
N797 N 0.25808 0.14559 0.62754 0.0
H798 H 0.87406 0.72213 0.92325 0.0
H799 H 0.9184 0.79626 0.77933 0.0
H800 H 0.94762 0.70072 0.87583 0.0
H801 H 0.83948 0.81125 0.82054 0.0
H802 H 0.93087 0.76411 0.81644 0.0
H803 H 0.8632 0.7583 0.88868 0.0
C804 C 0.8883 0.72541 0.90598 0.0
C805 C 0.91193 0.7083 0.90267 0.0
C806 C 0.91083 0.77449 0.81741 0.0
C807 C 0.89928 0.74949 0.86255 0.0
C808 C 0.90352 0.79293 0.79596 0.0
C809 C 0.87764 0.80689 0.79629 0.0
C810 C 0.89231 0.76974 0.83971 0.0
C811 C 0.85973 0.80145 0.81909 0.0
C812 C 0.8819 0.74589 0.88603 0.0
C813 C 0.92922 0.71333 0.87943 0.0
N814 N 0.86736 0.78342 0.83971 0.0
N815 N 0.92253 0.73325 0.86035 0.0
H816 H 0.68347 0.60979 0.74817 0.0
H817 H 0.77938 0.66152 0.6201 0.0
H818 H 0.68202 0.69421 0.71726 0.0
H819 H 0.77794 0.57736 0.65156 0.0
H820 H 0.74196 0.6737 0.65322 0.0
H821 H 0.71701 0.59767 0.71176 0.0
C822 C 0.69024 0.6259 0.73391 0.0
C823 C 0.67971 0.65318 0.73615 0.0
C824 C 0.74963 0.65249 0.65262 0.0
C825 C 0.71833 0.63917 0.69365 0.0
C826 C 0.77085 0.64545 0.63347 0.0
C827 C 0.78196 0.61831 0.63286 0.0
C828 C 0.7394 0.63229 0.67138 0.0
C829 C 0.77022 0.59855 0.65117 0.0
C830 C 0.70935 0.61887 0.71286 0.0
C831 C 0.68919 0.67287 0.71643 0.0
N832 N 0.74988 0.60594 0.66964 0.0
N833 N 0.70792 0.66552 0.69618 0.0
H834 H 0.40194 0.20477 0.99981 0.0
H835 H 0.33974 0.2935 0.872 0.0
H836 H 0.31472 0.20417 0.97775 0.0
H837 H 0.42609 0.29471 0.89691 0.0
H838 H 0.33047 0.25798 0.90784 0.0
H839 H 0.41123 0.2358 0.96059 0.0
C840 C 0.38464 0.21118 0.98692 0.0
C841 C 0.35742 0.20163 0.99247 0.0
C842 C 0.35152 0.2658 0.90522 0.0
C843 C 0.36812 0.23728 0.94675 0.0
C844 C 0.35688 0.28589 0.88451 0.0
C845 C 0.38376 0.29722 0.88129 0.0
C846 C 0.37318 0.2569 0.92288 0.0
C847 C 0.405 0.28675 0.89855 0.0
C848 C 0.39004 0.22884 0.96426 0.0
C849 C 0.33609 0.21057 0.97438 0.0
N850 N 0.39924 0.26746 0.91856 0.0
N851 N 0.34187 0.22785 0.9525 0.0
H852 H 0.80511 0.81598 0.22368 0.0
H853 H 0.7143 0.93679 0.1528 0.0
H854 H 0.8078 0.90247 0.24821 0.0
H855 H 0.71251 0.85158 0.12436 0.0
H856 H 0.75133 0.92473 0.1853 0.0
H857 H 0.77364 0.82845 0.18561 0.0
C858 C 0.7993 0.8376 0.22108 0.0
C859 C 0.80921 0.8581 0.23956 0.0
C860 C 0.74319 0.90866 0.17175 0.0
C861 C 0.77285 0.87255 0.19576 0.0
C862 C 0.7221 0.9156 0.15298 0.0
C863 C 0.71021 0.89522 0.13568 0.0
C864 C 0.75249 0.88096 0.17368 0.0
C865 C 0.72119 0.86807 0.13705 0.0
C866 C 0.78121 0.84469 0.19929 0.0
C867 C 0.80052 0.88574 0.23504 0.0
N868 N 0.74145 0.86166 0.15595 0.0
N869 N 0.7829 0.89206 0.21377 0.0
H870 H 0.14408 0.22058 0.36268 0.0
H871 H 0.09715 0.30096 0.5023 0.0
H872 H 0.06632 0.20633 0.40595 0.0
H873 H 0.17839 0.31138 0.46442 0.0
H874 H 0.08468 0.26875 0.46523 0.0
H875 H 0.15554 0.25702 0.3968 0.0
C876 C 0.12911 0.22549 0.37892 0.0
C877 C 0.10411 0.21028 0.38127 0.0
C878 C 0.10525 0.27809 0.46496 0.0
C879 C 0.11738 0.25174 0.42085 0.0
C880 C 0.11255 0.29649 0.4864 0.0
C881 C 0.13907 0.30913 0.48694 0.0
C882 C 0.12445 0.27204 0.44357 0.0
C883 C 0.15766 0.30252 0.46505 0.0
C884 C 0.13582 0.24613 0.39861 0.0
C885 C 0.08583 0.21739 0.40317 0.0
N886 N 0.15004 0.28449 0.4444 0.0
N887 N 0.09287 0.23736 0.42204 0.0
H888 H 0.7107 0.89993 0.54013 0.0
H889 H 0.80673 0.84631 0.66655 0.0
H890 H 0.71502 0.81362 0.56509 0.0
H891 H 0.80473 0.93112 0.637 0.0
H892 H 0.77003 0.83438 0.63285 0.0
H893 H 0.74266 0.91184 0.57765 0.0
C894 C 0.71834 0.88336 0.55329 0.0
C895 C 0.70991 0.85558 0.54897 0.0
C896 C 0.77738 0.85568 0.63401 0.0
C897 C 0.74677 0.86939 0.59285 0.0
C898 C 0.79814 0.86259 0.65353 0.0
C899 C 0.80892 0.88984 0.65482 0.0
C900 C 0.76719 0.87615 0.61561 0.0
C901 C 0.79721 0.90985 0.63688 0.0
C902 C 0.73659 0.89027 0.575 0.0
C903 C 0.72051 0.83533 0.56745 0.0
N904 N 0.77726 0.9026 0.61807 0.0
N905 N 0.73833 0.8426 0.58839 0.0
H906 H 0.17872 0.30528 0.89504 0.0
H907 H 0.11823 0.19236 0.78759 0.0
H908 H 0.09449 0.27392 0.90054 0.0
H909 H 0.20584 0.2107 0.79636 0.0
H910 H 0.10812 0.22421 0.82643 0.0
H911 H 0.18806 0.27271 0.85704 0.0
C912 C 0.16216 0.29144 0.88842 0.0
C913 C 0.13575 0.29241 0.9013 0.0
C914 C 0.12955 0.22122 0.81986 0.0
C915 C 0.14635 0.25496 0.85708 0.0
C916 C 0.13534 0.20316 0.7975 0.0
C917 C 0.163 0.19866 0.78855 0.0
C918 C 0.1515 0.23527 0.83329 0.0
C919 C 0.18426 0.21314 0.80259 0.0
C920 C 0.16755 0.27279 0.8666 0.0
C921 C 0.11522 0.27387 0.8915 0.0
N922 N 0.17808 0.23075 0.82404 0.0
N923 N 0.12088 0.2561 0.86994 0.0
H924 H 0.81918 0.70056 0.06432 0.0
H925 H 0.72505 0.58076 0.13151 0.0
H926 H 0.83509 0.61272 0.05281 0.0
H927 H 0.72168 0.66568 0.16057 0.0
H928 H 0.76586 0.59241 0.10318 0.0
H929 H 0.78423 0.68892 0.0998 0.0
C930 C 0.81567 0.67886 0.06927 0.0
C931 C 0.83019 0.65766 0.05494 0.0
C932 C 0.75654 0.60849 0.11602 0.0
C933 C 0.78956 0.64419 0.09568 0.0
C934 C 0.73322 0.60179 0.13234 0.0
C935 C 0.71991 0.62219 0.14865 0.0
C936 C 0.76654 0.63602 0.11536 0.0
C937 C 0.73143 0.64917 0.14862 0.0
C938 C 0.79553 0.67224 0.0896 0.0
C939 C 0.82423 0.62992 0.06254 0.0
N940 N 0.75379 0.6554 0.13195 0.0
N941 N 0.80435 0.62407 0.08205 0.0
H942 H 0.31938 0.30185 0.29801 0.0
H943 H 0.43563 0.23092 0.39478 0.0
H944 H 0.40785 0.31224 0.28486 0.0
H945 H 0.34836 0.2093 0.39936 0.0
H946 H 0.42541 0.26281 0.35652 0.0
H947 H 0.32918 0.26988 0.33644 0.0
C948 C 0.3409 0.29751 0.3032 0.0
C949 C 0.3628 0.31 0.28805 0.0
C950 C 0.40845 0.25113 0.36585 0.0
C951 C 0.37421 0.2731 0.33239 0.0
C952 C 0.41423 0.23295 0.38791 0.0
C953 C 0.39285 0.21717 0.40045 0.0
C954 C 0.38097 0.25394 0.35615 0.0
C955 C 0.36558 0.22078 0.39032 0.0
C956 C 0.34647 0.27909 0.32514 0.0
C957 C 0.39025 0.30306 0.29566 0.0
N958 N 0.36044 0.23875 0.36887 0.0
N959 N 0.39514 0.28529 0.3173 0.0
H960 H 0.02552 0.06714 0.33977 0.0
H961 H 0.9672 0.93847 0.25119 0.0
H962 H 0.04238 0.05754 0.25202 0.0
H963 H 0.97194 0.93912 0.34084 0.0
H964 H 0.99133 0.9836 0.25009 0.0
H965 H 1.00043 0.02273 0.3394 0.0
C966 C 0.02336 0.05602 0.32027 0.0
C967 C 0.036 0.06613 0.29587 0.0
C968 C 0.98735 0.97369 0.26997 0.0
C969 C 0.00787 0.01487 0.29542 0.0
C970 C 0.97372 0.94789 0.2706 0.0
C971 C 0.96777 0.93485 0.29613 0.0
C972 C 0.99465 0.9868 0.29507 0.0
C973 C 0.97653 0.94811 0.32066 0.0
C974 C 0.0094 0.03044 0.32016 0.0
C975 C 0.03302 0.05047 0.27132 0.0
N976 N 0.98926 0.97342 0.31953 0.0
N977 N 0.01933 0.0256 0.27172 0.0
H978 H 0.02531 0.4255 0.54279 0.0
H979 H 0.95651 0.57719 0.53559 0.0
H980 H 0.07377 0.50124 0.53876 0.0
H981 H 0.90966 0.50219 0.55244 0.0
H982 H 0.99901 0.54948 0.5318 0.0
H983 H 0.98268 0.45299 0.54151 0.0
C984 C 0.02707 0.44794 0.54116 0.0
C985 C 0.05337 0.46099 0.54054 0.0
C986 C 0.97943 0.53903 0.53614 0.0
C987 C 1.00414 0.49282 0.53967 0.0
C988 C 0.955 0.5548 0.53801 0.0
C989 C 0.92924 0.54203 0.54411 0.0
C990 C 0.9783 0.51012 0.54032 0.0
C991 C 0.92896 0.51299 0.5478 0.0
C992 C 1.00259 0.46366 0.54072 0.0
C993 C 0.05405 0.49024 0.53931 0.0
N994 N 0.95308 0.49806 0.54584 0.0
N995 N 0.02982 0.50515 0.53888 0.0
H996 H 0.48669 0.41376 0.82359 0.0
H997 H 0.52002 0.5612 0.75897 0.0
H998 H 0.45418 0.43827 0.74347 0.0
H999 H 0.57735 0.51966 0.81409 0.0
H1000 H 0.49375 0.51742 0.75442 0.0
H1001 H 0.51945 0.45255 0.82135 0.0
C1002 C 0.48675 0.42678 0.8052 0.0
C1003 C 0.46714 0.42269 0.78387 0.0
C1004 C 0.51229 0.51786 0.76724 0.0
C1005 C 0.50414 0.46805 0.78181 0.0
C1006 C 0.52714 0.54284 0.76995 0.0
C1007 C 0.55093 0.54402 0.78684 0.0
C1008 C 0.52092 0.49411 0.78203 0.0
C1009 C 0.55931 0.51959 0.8006 0.0
C1010 C 0.50536 0.44919 0.80411 0.0
C1011 C 0.4682 0.44089 0.76086 0.0
N1012 N 0.54416 0.49576 0.79817 0.0
N1013 N 0.48597 0.46302 0.76068 0.0
H1014 H 0.44278 0.04481 1.0034 0.0
H1015 H 0.5657 0.98036 0.09553 0.0
H1016 H 0.43901 0.03621 0.09274 0.0
H1017 H 0.5617 0.96905 1.00652 0.0
H1018 H 0.52149 0.00555 0.09403 0.0
H1019 H 0.48752 0.01988 1.0033 0.0
C1020 C 0.45113 0.0373 0.02293 0.0
C1021 C 0.43696 0.04244 0.04809 0.0
C1022 C 0.53035 0.99776 0.07477 0.0
C1023 C 0.48846 0.01454 0.04819 0.0
C1024 C 0.55587 0.98373 0.07554 0.0
C1025 C 0.56758 0.97264 0.05109 0.0
C1026 C 0.51636 1.00094 0.04932 0.0
C1027 C 0.5534 0.97714 0.0259 0.0
C1028 C 0.47671 0.02319 0.02286 0.0
C1029 C 0.44886 0.03232 0.07278 0.0
N1030 N 0.52853 0.99089 0.02566 0.0
N1031 N 0.47397 0.01914 0.07223 0.0
H1032 H 0.0489 0.43889 0.92799 0.0
H1033 H 0.96074 0.54507 0.02237 0.0
H1034 H 0.0347 0.42632 1.01588 0.0
H1035 H 0.98506 0.5619 0.93746 0.0
H1036 H 0.98662 0.50112 0.02042 0.0
H1037 H 0.02303 0.48258 0.93064 0.0
C1038 C 0.03982 0.44497 0.94777 0.0
C1039 C 0.04384 0.42864 0.97172 0.0
C1040 C 0.98649 0.51451 1.00228 0.0
C1041 C 0.01474 0.47937 0.97504 0.0
C1042 C 0.97177 0.53965 1.0034 0.0
C1043 C 0.9707 0.55724 0.98003 0.0
C1044 C 1.00009 0.50667 0.97752 0.0
C1045 C 0.98554 0.54919 0.95607 0.0
C1046 C 0.02538 0.47021 0.94934 0.0
C1047 C 0.03221 0.43819 0.9969 0.0
N1048 N 0.99939 0.52443 0.95537 0.0
N1049 N 0.01824 0.4629 0.9979 0.0
H1050 H 0.44342 0.48065 0.18863 0.0
H1051 H 0.57366 0.53905 0.27503 0.0
H1052 H 0.45311 0.46629 0.27674 0.0
H1053 H 0.56949 0.53814 0.18533 0.0
H1054 H 0.52867 0.51466 0.27694 0.0
H1055 H 0.48771 0.50572 0.18814 0.0
C1056 C 0.45452 0.4833 0.20804 0.0
C1057 C 0.44434 0.47139 0.2328 0.0
C1058 C 0.53776 0.51957 0.25686 0.0
C1059 C 0.49575 0.49956 0.23222 0.0
C1060 C 0.56348 0.53341 0.25574 0.0
C1061 C 0.57554 0.54052 0.22997 0.0
C1062 C 0.52375 0.5131 0.23203 0.0
C1063 C 0.56133 0.53269 0.20566 0.0
C1064 C 0.48009 0.49728 0.20766 0.0
C1065 C 0.46017 0.47499 0.25714 0.0
N1066 N 0.53617 0.51965 0.20731 0.0
N1067 N 0.48508 0.48868 0.25623 0.0
H1068 H 0.5379 0.92372 0.45126 0.0
H1069 H 0.447 0.03278 0.53651 0.0
H1070 H 0.54271 0.92524 0.54088 0.0
H1071 H 0.48776 0.05307 0.45895 0.0
H1072 H 0.47338 0.98861 0.53793 0.0
H1073 H 0.50902 0.96575 0.45271 0.0
C1074 C 0.53221 0.93245 0.4713 0.0
C1075 C 0.54254 0.92086 0.49601 0.0
C1076 C 0.47664 1.00292 0.52078 0.0
C1077 C 0.50982 0.96917 0.49774 0.0
C1078 C 0.46173 0.02804 0.52 0.0
C1079 C 0.46558 0.04668 0.49777 0.0
C1080 C 0.49469 0.9961 0.4987 0.0
C1081 C 0.48458 0.03948 0.47668 0.0
C1082 C 0.51609 0.95664 0.47207 0.0
C1083 C 0.53507 0.93351 0.52138 0.0
N1084 N 0.49816 0.01463 0.47748 0.0
N1085 N 0.51909 0.95701 0.52163 0.0
H1086 H 0.0834 0.02878 0.69212 0.0
H1087 H 0.96082 0.96129 0.78345 0.0
H1088 H 0.07735 0.04145 0.78085 0.0
H1089 H 0.95611 0.97312 0.69459 0.0
H1090 H 1.00515 0.98702 0.78374 0.0
H1091 H 0.0394 1.00305 0.69348 0.0
C1092 C 0.07316 0.02561 0.71203 0.0
C1093 C 0.08427 0.03716 0.73645 0.0
C1094 C 0.99424 0.98422 0.76425 0.0
C1095 C 0.03333 0.00816 0.73804 0.0
C1096 C 0.9689 0.96964 0.76408 0.0
C1097 C 0.95457 0.96522 0.73898 0.0
C1098 C 1.00565 0.994 0.73908 0.0
C1099 C 0.96613 0.9764 0.71448 0.0
C1100 C 0.04778 0.01126 0.71271 0.0
C1101 C 0.06957 0.03293 0.76152 0.0
N1102 N 0.99106 0.98998 0.71511 0.0
N1103 N 0.04489 0.01878 0.76167 0.0
H1104 H 0.33609 0.16239 0.38243 0.0
H1105 H 0.1934 0.08173 0.36934 0.0
H1106 H 0.31451 0.09153 0.43341 0.0
H1107 H 0.21898 0.14973 0.31655 0.0
H1108 H 0.2416 0.07732 0.3859 0.0
H1109 H 0.29713 0.15174 0.35197 0.0
C1110 C 0.32286 0.14474 0.38732 0.0
C1111 C 0.32774 0.12832 0.41081 0.0
C1112 C 0.23686 0.09265 0.37007 0.0
C1113 C 0.28339 0.11572 0.37604 0.0
C1114 C 0.20951 0.09496 0.36054 0.0
C1115 C 0.20271 0.11631 0.34202 0.0
C1116 C 0.25694 0.11207 0.36101 0.0
C1117 C 0.22377 0.13326 0.3312 0.0
C1118 C 0.30088 0.13838 0.36973 0.0
C1119 C 0.31086 0.10499 0.4157 0.0
N1120 N 0.24999 0.13108 0.3412 0.0
N1121 N 0.28902 0.09959 0.39865 0.0
H1122 H 0.91894 0.66905 0.63923 0.0
H1123 H 0.93275 0.83205 0.63756 0.0
H1124 H 0.89712 0.72344 0.57139 0.0
H1125 H 0.92203 0.78159 0.71097 0.0
H1126 H 0.94467 0.79024 0.61092 0.0
H1127 H 0.94364 0.70768 0.66166 0.0
C1128 C 0.92013 0.68902 0.62877 0.0
C1129 C 0.90577 0.69365 0.60392 0.0
C1130 C 0.94084 0.78844 0.63309 0.0
C1131 C 0.93361 0.73738 0.6291 0.0
C1132 C 0.93414 0.81221 0.64824 0.0
C1133 C 0.92611 0.80977 0.67615 0.0
C1134 C 0.93882 0.76231 0.64603 0.0
C1135 C 0.92797 0.78394 0.68932 0.0
C1136 C 0.93426 0.7109 0.64144 0.0
C1137 C 0.90776 0.71951 0.59085 0.0
N1138 N 0.93356 0.76091 0.67392 0.0
N1139 N 0.92109 0.74071 0.60388 0.0
H1140 H 0.17639 0.44818 0.91175 0.0
H1141 H 0.27567 0.41426 0.82499 0.0
H1142 H 0.23491 0.4072 0.96576 0.0
H1143 H 0.33657 0.42906 0.88896 0.0
H1144 H 0.24042 0.4374 0.85376 0.0
H1145 H 0.21543 0.46757 0.88493 0.0
C1146 C 0.19751 0.44462 0.91888 0.0
C1147 C 0.20279 0.42571 0.94042 0.0
C1148 C 0.26176 0.43691 0.86104 0.0
C1149 C 0.24694 0.44673 0.90969 0.0
C1150 C 0.28172 0.42342 0.84468 0.0
C1151 C 0.30855 0.41952 0.8551 0.0
C1152 C 0.26879 0.44553 0.88818 0.0
C1153 C 0.31573 0.43146 0.88065 0.0
C1154 C 0.21971 0.45538 0.9034 0.0
C1155 C 0.23027 0.42145 0.94892 0.0
N1156 N 0.29569 0.44322 0.89681 0.0
N1157 N 0.25149 0.43139 0.93307 0.0
H1158 H 0.59623 0.78796 0.07421 0.0
H1159 H 0.60731 0.72651 0.21553 0.0
H1160 H 0.58268 0.83777 0.14761 0.0
H1161 H 0.58249 0.67627 0.14559 0.0
H1162 H 0.5862 0.76717 0.19343 0.0
H1163 H 0.57871 0.74715 0.09927 0.0
C1164 C 0.58856 0.79034 0.09533 0.0
C1165 C 0.59128 0.81565 0.10932 0.0
C1166 C 0.5844 0.74711 0.18326 0.0
C1167 C 0.57233 0.76954 0.13828 0.0
C1168 C 0.59653 0.72403 0.19591 0.0
C1169 C 0.59687 0.69859 0.1819 0.0
C1170 C 0.57382 0.7446 0.15606 0.0
C1171 C 0.5828 0.69596 0.15661 0.0
C1172 C 0.57851 0.76717 0.10968 0.0
C1173 C 0.58123 0.81816 0.13655 0.0
N1174 N 0.57244 0.71897 0.14401 0.0
N1175 N 0.57282 0.79511 0.15051 0.0
H1176 H 0.69424 0.59635 0.85446 0.0
H1177 H 0.79264 0.67069 0.96194 0.0
H1178 H 0.67478 0.67348 0.89642 0.0
H1179 H 0.80955 0.5888 0.92909 0.0
H1180 H 0.74478 0.66717 0.9456 0.0
H1181 H 0.73264 0.58884 0.88711 0.0
C1182 C 0.69819 0.61171 0.87051 0.0
C1183 C 0.6822 0.63606 0.87227 0.0
C1184 C 0.75867 0.64967 0.94235 0.0
C1185 C 0.72522 0.62744 0.90977 0.0
C1186 C 0.7859 0.65172 0.95172 0.0
C1187 C 0.80472 0.63021 0.94622 0.0
C1188 C 0.75076 0.62635 0.92656 0.0
C1189 C 0.79534 0.60584 0.93337 0.0
C1190 C 0.71981 0.60729 0.88928 0.0
C1191 C 0.68742 0.655 0.89373 0.0
N1192 N 0.769 0.60481 0.92321 0.0
N1193 N 0.70869 0.65041 0.91152 0.0
H1194 H 0.4277 0.21673 0.06857 0.0
H1195 H 0.43236 0.2982 0.20965 0.0
H1196 H 0.4147 0.18273 0.15061 0.0
H1197 H 0.41434 0.33226 0.12873 0.0
H1198 H 0.45246 0.25679 0.18703 0.0
H1199 H 0.44939 0.25805 0.08969 0.0
C1200 C 0.43028 0.21768 0.09095 0.0
C1201 C 0.41865 0.19727 0.10816 0.0
C1202 C 0.44505 0.27384 0.17425 0.0
C1203 C 0.44315 0.24357 0.13216 0.0
C1204 C 0.43351 0.29723 0.18714 0.0
C1205 C 0.4209 0.31769 0.17079 0.0
C1206 C 0.44361 0.27129 0.1451 0.0
C1207 C 0.42311 0.31615 0.14183 0.0
C1208 C 0.44273 0.24103 0.10297 0.0
C1209 C 0.42269 0.19879 0.1369 0.0
N1210 N 0.43377 0.29299 0.1298 0.0
N1211 N 0.4342 0.22191 0.14814 0.0
H1212 H 0.78233 0.90636 0.32197 0.0
H1213 H 0.67407 0.93152 0.40374 0.0
H1214 H 0.8368 0.93033 0.38888 0.0
H1215 H 0.73422 0.90031 0.46234 0.0
H1216 H 0.71218 0.95225 0.37637 0.0
H1217 H 0.74277 0.92548 0.3478 0.0
C1218 C 0.78598 0.91687 0.3416 0.0
C1219 C 0.81238 0.91669 0.3537 0.0
C1220 C 0.71692 0.9417 0.39571 0.0
C1221 C 0.76767 0.93789 0.38359 0.0
C1222 C 0.69529 0.93009 0.41134 0.0
C1223 C 0.70149 0.91403 0.43482 0.0
C1224 C 0.74459 0.93664 0.40372 0.0
C1225 C 0.72897 0.9124 0.44405 0.0
C1226 C 0.7635 0.92799 0.35632 0.0
C1227 C 0.81642 0.93008 0.37921 0.0
N1228 N 0.74972 0.92322 0.42815 0.0
N1229 N 0.79405 0.9394 0.39384 0.0
H1230 H 0.09162 0.208 0.71057 0.0
H1231 H 0.08195 0.29002 0.56868 0.0
H1232 H 0.11455 0.17744 0.62927 0.0
H1233 H 0.09661 0.3264 0.64932 0.0
H1234 H 0.0677 0.24645 0.59159 0.0
H1235 H 0.06819 0.24787 0.68837 0.0
C1236 C 0.09099 0.2094 0.68806 0.0
C1237 C 0.10569 0.19041 0.67152 0.0
C1238 C 0.07299 0.26437 0.60424 0.0
C1239 C 0.0788 0.23475 0.64634 0.0
C1240 C 0.08116 0.28904 0.5912 0.0
C1241 C 0.09118 0.31104 0.60736 0.0
C1242 C 0.07509 0.26216 0.63336 0.0
C1243 C 0.08967 0.30929 0.63636 0.0
C1244 C 0.07754 0.23186 0.67546 0.0
C1245 C 0.10412 0.19243 0.64256 0.0
N1246 N 0.08228 0.28495 0.64855 0.0
N1247 N 0.09125 0.21454 0.63081 0.0
loop_
_geom_bond_atom_site_label_1
_geom_bond_atom_site_label_2
_geom_bond_distance
_geom_bond_site_symmetry_2
_ccdc_geom_bond_type
Co0 N4 2.148 . S
Co0 N10 2.128 . S
Co0 N20 2.194 . S
Co0 O25 2.351 . S
Co0 O26 2.155 . S
Co0 O27 2.096 . S
C1 N4 1.301 . S
C1 N5 1.328 . S
C1 H6 0.930 . S
C2 C3 1.333 . S
C2 N4 1.317 . S
C2 H7 0.930 . S
C3 C2 1.333 . S
C3 N5 1.350 . S
C3 H29 0.931 . S
N4 Co0 2.148 . S
N4 C1 1.301 . S
N4 C2 1.317 . S
N5 C1 1.328 . S
N5 C3 1.350 . S
H6 C1 0.930 . S
H7 C2 0.930 . S
C8 O9 1.224 . S
C8 O27 1.247 . S
O9 C8 1.224 . S
N10 Co0 2.128 . S
N10 C11 1.355 . S
N10 C13 1.311 . S
C11 N10 1.355 . S
C11 C12 1.363 . S
C11 H23 0.929 . S
C12 C11 1.363 . S
C12 N14 1.375 . S
C12 H30 0.931 . S
C13 N10 1.311 . S
C13 N14 1.347 . S
C13 H24 0.929 . S
N14 C12 1.375 . S
N14 C13 1.347 . S
C15 C18 1.365 . S
C15 N20 1.328 . S
C15 H21 0.929 . S
C16 C17 1.362 . S
C16 C19 1.378 . S
C16 H31 0.929 . S
C17 C16 1.362 . S
C17 C18 1.366 . S
C18 C15 1.365 . S
C18 C17 1.366 . S
C18 H32 0.930 . S
C19 C16 1.378 . S
C19 N20 1.315 . S
C19 H22 0.930 . S
N20 Co0 2.194 . S
N20 C15 1.328 . S
N20 C19 1.315 . S
H21 C15 0.929 . S
H22 C19 0.930 . S
H23 C11 0.929 . S
H24 C13 0.929 . S
O25 Co0 2.351 . S
O25 C28 1.244 . S
O26 Co0 2.155 . S
O26 C28 1.240 . S
O27 Co0 2.096 . S
O27 C8 1.247 . S
C28 O25 1.244 . S
C28 O26 1.240 . S
H29 C3 0.931 . S
H30 C12 0.931 . S
H31 C16 0.929 . S
H32 C18 0.930 . S
Co33 N37 2.148 . S
Co33 N43 2.128 . S
Co33 N53 2.194 . S
Co33 O58 2.351 . S
Co33 O59 2.155 . S
Co33 O60 2.096 . S
C34 N37 1.301 . S
C34 N38 1.328 . S
C34 H39 0.930 . S
C35 C36 1.333 . S
C35 N37 1.317 . S
C35 H40 0.930 . S
C36 C35 1.333 . S
C36 N38 1.350 . S
C36 H62 0.931 . S
N37 Co33 2.148 . S
N37 C34 1.301 . S
N37 C35 1.317 . S
N38 C34 1.328 . S
N38 C36 1.350 . S
H39 C34 0.930 . S
H40 C35 0.930 . S
C41 O42 1.224 . S
C41 O60 1.247 . S
O42 C41 1.224 . S
N43 Co33 2.128 . S
N43 C44 1.355 . S
N43 C46 1.311 . S
C44 N43 1.355 . S
C44 C45 1.363 . S
C44 H56 0.929 . S
C45 C44 1.363 . S
C45 N47 1.375 . S
C45 H63 0.931 . S
C46 N43 1.311 . S
C46 N47 1.347 . S
C46 H57 0.929 . S
N47 C45 1.375 . S
N47 C46 1.347 . S
C48 C51 1.365 . S
C48 N53 1.328 . S
C48 H54 0.929 . S
C49 C50 1.362 . S
C49 C52 1.378 . S
C49 H64 0.929 . S
C50 C49 1.362 . S
C50 C51 1.366 . S
C51 C48 1.365 . S
C51 C50 1.366 . S
C51 H65 0.930 . S
C52 C49 1.378 . S
C52 N53 1.315 . S
C52 H55 0.930 . S
N53 Co33 2.194 . S
N53 C48 1.328 . S
N53 C52 1.315 . S
H54 C48 0.929 . S
H55 C52 0.930 . S
H56 C44 0.929 . S
H57 C46 0.929 . S
O58 Co33 2.351 . S
O58 C61 1.244 . S
O59 Co33 2.155 . S
O59 C61 1.240 . S
O60 Co33 2.096 . S
O60 C41 1.247 . S
C61 O58 1.244 . S
C61 O59 1.240 . S
H62 C36 0.931 . S
H63 C45 0.931 . S
H64 C49 0.929 . S
H65 C51 0.930 . S
Co66 N70 2.148 . S
Co66 N76 2.128 . S
Co66 N86 2.194 . S
Co66 O91 2.351 . S
Co66 O92 2.155 . S
Co66 O93 2.096 . S
C67 N70 1.301 . S
C67 N71 1.328 . S
C67 H72 0.930 . S
C68 C69 1.333 . S
C68 N70 1.317 . S
C68 H73 0.930 . S
C69 C68 1.333 . S
C69 N71 1.350 . S
C69 H95 0.931 . S
N70 Co66 2.148 . S
N70 C67 1.301 . S
N70 C68 1.317 . S
N71 C67 1.328 . S
N71 C69 1.350 . S
H72 C67 0.930 . S
H73 C68 0.930 . S
C74 O75 1.224 . S
C74 O93 1.247 . S
O75 C74 1.224 . S
N76 Co66 2.128 . S
N76 C77 1.355 . S
N76 C79 1.311 . S
C77 N76 1.355 . S
C77 C78 1.363 . S
C77 H89 0.929 . S
C78 C77 1.363 . S
C78 N80 1.375 . S
C78 H96 0.931 . S
C79 N76 1.311 . S
C79 N80 1.347 . S
C79 H90 0.929 . S
N80 C78 1.375 . S
N80 C79 1.347 . S
C81 C84 1.365 . S
C81 N86 1.328 . S
C81 H87 0.929 . S
C82 C83 1.362 . S
C82 C85 1.378 . S
C82 H97 0.929 . S
C83 C82 1.362 . S
C83 C84 1.366 . S
C84 C81 1.365 . S
C84 C83 1.366 . S
C84 H98 0.930 . S
C85 C82 1.378 . S
C85 N86 1.315 . S
C85 H88 0.930 . S
N86 Co66 2.194 . S
N86 C81 1.328 . S
N86 C85 1.315 . S
H87 C81 0.929 . S
H88 C85 0.930 . S
H89 C77 0.929 . S
H90 C79 0.929 . S
O91 Co66 2.351 . S
O91 C94 1.244 . S
O92 Co66 2.155 . S
O92 C94 1.240 . S
O93 Co66 2.096 . S
O93 C74 1.247 . S
C94 O91 1.244 . S
C94 O92 1.240 . S
H95 C69 0.931 . S
H96 C78 0.931 . S
H97 C82 0.929 . S
H98 C84 0.930 . S
Co99 N103 2.148 . S
Co99 N109 2.128 . S
Co99 N119 2.194 . S
Co99 O124 2.351 . S
Co99 O125 2.155 . S
Co99 O126 2.096 . S
C100 N103 1.301 . S
C100 N104 1.328 . S
C100 H105 0.930 . S
C101 C102 1.333 . S
C101 N103 1.317 . S
C101 H106 0.930 . S
C102 C101 1.333 . S
C102 N104 1.350 . S
C102 H128 0.931 . S
N103 Co99 2.148 . S
N103 C100 1.301 . S
N103 C101 1.317 . S
N104 C100 1.328 . S
N104 C102 1.350 . S
H105 C100 0.930 . S
H106 C101 0.930 . S
C107 O108 1.224 . S
C107 O126 1.247 . S
O108 C107 1.224 . S
N109 Co99 2.128 . S
N109 C110 1.355 . S
N109 C112 1.311 . S
C110 N109 1.355 . S
C110 C111 1.363 . S
C110 H122 0.929 . S
C111 C110 1.363 . S
C111 N113 1.375 . S
C111 H129 0.931 . S
C112 N109 1.311 . S
C112 N113 1.347 . S
C112 H123 0.929 . S
N113 C111 1.375 . S
N113 C112 1.347 . S
C114 C117 1.365 . S
C114 N119 1.328 . S
C114 H120 0.929 . S
C115 C116 1.362 . S
C115 C118 1.378 . S
C115 H130 0.929 . S
C116 C115 1.362 . S
C116 C117 1.366 . S
C117 C114 1.365 . S
C117 C116 1.366 . S
C117 H131 0.930 . S
C118 C115 1.378 . S
C118 N119 1.315 . S
C118 H121 0.930 . S
N119 Co99 2.194 . S
N119 C114 1.328 . S
N119 C118 1.315 . S
H120 C114 0.929 . S
H121 C118 0.930 . S
H122 C110 0.929 . S
H123 C112 0.929 . S
O124 Co99 2.351 . S
O124 C127 1.244 . S
O125 Co99 2.155 . S
O125 C127 1.240 . S
O126 Co99 2.096 . S
O126 C107 1.247 . S
C127 O124 1.244 . S
C127 O125 1.240 . S
H128 C102 0.931 . S
H129 C111 0.931 . S
H130 C115 0.929 . S
H131 C117 0.930 . S
Co132 N136 2.148 . S
Co132 N142 2.128 . S
Co132 N152 2.194 . S
Co132 O157 2.351 . S
Co132 O158 2.155 . S
Co132 O159 2.096 . S
C133 N136 1.301 . S
C133 N137 1.328 . S
C133 H138 0.930 . S
C134 C135 1.333 . S
C134 N136 1.317 . S
C134 H139 0.930 . S
C135 C134 1.333 . S
C135 N137 1.350 . S
C135 H161 0.931 . S
N136 Co132 2.148 . S
N136 C133 1.301 . S
N136 C134 1.317 . S
N137 C133 1.328 . S
N137 C135 1.350 . S
H138 C133 0.930 . S
H139 C134 0.930 . S
C140 O141 1.224 . S
C140 O159 1.247 . S
O141 C140 1.224 . S
N142 Co132 2.128 . S
N142 C143 1.355 . S
N142 C145 1.311 . S
C143 N142 1.355 . S
C143 C144 1.363 . S
C143 H155 0.929 . S
C144 C143 1.363 . S
C144 N146 1.375 . S
C144 H162 0.931 . S
C145 N142 1.311 . S
C145 N146 1.347 . S
C145 H156 0.929 . S
N146 C144 1.375 . S
N146 C145 1.347 . S
C147 C150 1.365 . S
C147 N152 1.328 . S
C147 H153 0.929 . S
C148 C149 1.362 . S
C148 C151 1.378 . S
C148 H163 0.929 . S
C149 C148 1.362 . S
C149 C150 1.366 . S
C150 C147 1.365 . S
C150 C149 1.366 . S
C150 H164 0.930 . S
C151 C148 1.378 . S
C151 N152 1.315 . S
C151 H154 0.930 . S
N152 Co132 2.194 . S
N152 C147 1.328 . S
N152 C151 1.315 . S
H153 C147 0.929 . S
H154 C151 0.930 . S
H155 C143 0.929 . S
H156 C145 0.929 . S
O157 Co132 2.351 . S
O157 C160 1.244 . S
O158 Co132 2.155 . S
O158 C160 1.240 . S
O159 Co132 2.096 . S
O159 C140 1.247 . S
C160 O157 1.244 . S
C160 O158 1.240 . S
H161 C135 0.931 . S
H162 C144 0.931 . S
H163 C148 0.929 . S
H164 C150 0.930 . S
Co165 N169 2.148 . S
Co165 N175 2.128 . S
Co165 N185 2.194 . S
Co165 O190 2.351 . S
Co165 O191 2.155 . S
Co165 O192 2.096 . S
C166 N169 1.301 . S
C166 N170 1.328 . S
C166 H171 0.930 . S
C167 C168 1.333 . S
C167 N169 1.317 . S
C167 H172 0.930 . S
C168 C167 1.333 . S
C168 N170 1.350 . S
C168 H194 0.931 . S
N169 Co165 2.148 . S
N169 C166 1.301 . S
N169 C167 1.317 . S
N170 C166 1.328 . S
N170 C168 1.350 . S
H171 C166 0.930 . S
H172 C167 0.930 . S
C173 O174 1.224 . S
C173 O192 1.247 . S
O174 C173 1.224 . S
N175 Co165 2.128 . S
N175 C176 1.355 . S
N175 C178 1.311 . S
C176 N175 1.355 . S
C176 C177 1.363 . S
C176 H188 0.929 . S
C177 C176 1.363 . S
C177 N179 1.375 . S
C177 H195 0.931 . S
C178 N175 1.311 . S
C178 N179 1.347 . S
C178 H189 0.929 . S
N179 C177 1.375 . S
N179 C178 1.347 . S
C180 C183 1.365 . S
C180 N185 1.328 . S
C180 H186 0.929 . S
C181 C182 1.362 . S
C181 C184 1.378 . S
C181 H196 0.929 . S
C182 C181 1.362 . S
C182 C183 1.366 . S
C183 C180 1.365 . S
C183 C182 1.366 . S
C183 H197 0.930 . S
C184 C181 1.378 . S
C184 N185 1.315 . S
C184 H187 0.930 . S
N185 Co165 2.194 . S
N185 C180 1.328 . S
N185 C184 1.315 . S
H186 C180 0.929 . S
H187 C184 0.930 . S
H188 C176 0.929 . S
H189 C178 0.929 . S
O190 Co165 2.351 . S
O190 C193 1.244 . S
O191 Co165 2.155 . S
O191 C193 1.240 . S
O192 Co165 2.096 . S
O192 C173 1.247 . S
C193 O190 1.244 . S
C193 O191 1.240 . S
H194 C168 0.931 . S
H195 C177 0.931 . S
H196 C181 0.929 . S
H197 C183 0.930 . S
Co198 N202 2.148 . S
Co198 N208 2.128 . S
Co198 N218 2.194 . S
Co198 O223 2.351 . S
Co198 O224 2.155 . S
Co198 O225 2.096 . S
C199 N202 1.301 . S
C199 N203 1.328 . S
C199 H204 0.930 . S
C200 C201 1.333 . S
C200 N202 1.317 . S
C200 H205 0.930 . S
C201 C200 1.333 . S
C201 N203 1.350 . S
C201 H227 0.931 . S
N202 Co198 2.148 . S
N202 C199 1.301 . S
N202 C200 1.317 . S
N203 C199 1.328 . S
N203 C201 1.350 . S
H204 C199 0.930 . S
H205 C200 0.930 . S
C206 O207 1.224 . S
C206 O225 1.247 . S
O207 C206 1.224 . S
N208 Co198 2.128 . S
N208 C209 1.355 . S
N208 C211 1.311 . S
C209 N208 1.355 . S
C209 C210 1.363 . S
C209 H221 0.929 . S
C210 C209 1.363 . S
C210 N212 1.375 . S
C210 H228 0.931 . S
C211 N208 1.311 . S
C211 N212 1.347 . S
C211 H222 0.929 . S
N212 C210 1.375 . S
N212 C211 1.347 . S
C213 C216 1.365 . S
C213 N218 1.328 . S
C213 H219 0.929 . S
C214 C215 1.362 . S
C214 C217 1.378 . S
C214 H229 0.929 . S
C215 C214 1.362 . S
C215 C216 1.366 . S
C216 C213 1.365 . S
C216 C215 1.366 . S
C216 H230 0.930 . S
C217 C214 1.378 . S
C217 N218 1.315 . S
C217 H220 0.930 . S
N218 Co198 2.194 . S
N218 C213 1.328 . S
N218 C217 1.315 . S
H219 C213 0.929 . S
H220 C217 0.930 . S
H221 C209 0.929 . S
H222 C211 0.929 . S
O223 Co198 2.351 . S
O223 C226 1.244 . S
O224 Co198 2.155 . S
O224 C226 1.240 . S
O225 Co198 2.096 . S
O225 C206 1.247 . S
C226 O223 1.244 . S
C226 O224 1.240 . S
H227 C201 0.931 . S
H228 C210 0.931 . S
H229 C214 0.929 . S
H230 C216 0.930 . S
Co231 N235 2.148 . S
Co231 N241 2.128 . S
Co231 N251 2.194 . S
Co231 O256 2.351 . S
Co231 O257 2.155 . S
Co231 O258 2.096 . S
C232 N235 1.301 . S
C232 N236 1.328 . S
C232 H237 0.930 . S
C233 C234 1.333 . S
C233 N235 1.317 . S
C233 H238 0.930 . S
C234 C233 1.333 . S
C234 N236 1.350 . S
C234 H260 0.931 . S
N235 Co231 2.148 . S
N235 C232 1.301 . S
N235 C233 1.317 . S
N236 C232 1.328 . S
N236 C234 1.350 . S
H237 C232 0.930 . S
H238 C233 0.930 . S
C239 O240 1.224 . S
C239 O258 1.247 . S
O240 C239 1.224 . S
N241 Co231 2.128 . S
N241 C242 1.355 . S
N241 C244 1.311 . S
C242 N241 1.355 . S
C242 C243 1.363 . S
C242 H254 0.929 . S
C243 C242 1.363 . S
C243 N245 1.375 . S
C243 H261 0.931 . S
C244 N241 1.311 . S
C244 N245 1.347 . S
C244 H255 0.929 . S
N245 C243 1.375 . S
N245 C244 1.347 . S
C246 C249 1.365 . S
C246 N251 1.328 . S
C246 H252 0.929 . S
C247 C248 1.362 . S
C247 C250 1.378 . S
C247 H262 0.929 . S
C248 C247 1.362 . S
C248 C249 1.366 . S
C249 C246 1.365 . S
C249 C248 1.366 . S
C249 H263 0.930 . S
C250 C247 1.378 . S
C250 N251 1.315 . S
C250 H253 0.930 . S
N251 Co231 2.194 . S
N251 C246 1.328 . S
N251 C250 1.315 . S
H252 C246 0.929 . S
H253 C250 0.930 . S
H254 C242 0.929 . S
H255 C244 0.929 . S
O256 Co231 2.351 . S
O256 C259 1.244 . S
O257 Co231 2.155 . S
O257 C259 1.240 . S
O258 Co231 2.096 . S
O258 C239 1.247 . S
C259 O256 1.244 . S
C259 O257 1.240 . S
H260 C234 0.931 . S
H261 C243 0.931 . S
H262 C247 0.929 . S
H263 C249 0.930 . S
Co264 N268 2.148 . S
Co264 N274 2.128 . S
Co264 N284 2.194 . S
Co264 O289 2.351 . S
Co264 O290 2.155 . S
Co264 O291 2.096 . S
C265 N268 1.301 . S
C265 N269 1.328 . S
C265 H270 0.930 . S
C266 C267 1.333 . S
C266 N268 1.317 . S
C266 H271 0.930 . S
C267 C266 1.333 . S
C267 N269 1.350 . S
C267 H293 0.931 . S
N268 Co264 2.148 . S
N268 C265 1.301 . S
N268 C266 1.317 . S
N269 C265 1.328 . S
N269 C267 1.350 . S
H270 C265 0.930 . S
H271 C266 0.930 . S
C272 O273 1.224 . S
C272 O291 1.247 . S
O273 C272 1.224 . S
N274 Co264 2.128 . S
N274 C275 1.355 . S
N274 C277 1.311 . S
C275 N274 1.355 . S
C275 C276 1.363 . S
C275 H287 0.929 . S
C276 C275 1.363 . S
C276 N278 1.375 . S
C276 H294 0.931 . S
C277 N274 1.311 . S
C277 N278 1.347 . S
C277 H288 0.929 . S
N278 C276 1.375 . S
N278 C277 1.347 . S
C279 C282 1.365 . S
C279 N284 1.328 . S
C279 H285 0.929 . S
C280 C281 1.362 . S
C280 C283 1.378 . S
C280 H295 0.929 . S
C281 C280 1.362 . S
C281 C282 1.366 . S
C282 C279 1.365 . S
C282 C281 1.366 . S
C282 H296 0.930 . S
C283 C280 1.378 . S
C283 N284 1.315 . S
C283 H286 0.930 . S
N284 Co264 2.194 . S
N284 C279 1.328 . S
N284 C283 1.315 . S
H285 C279 0.929 . S
H286 C283 0.930 . S
H287 C275 0.929 . S
H288 C277 0.929 . S
O289 Co264 2.351 . S
O289 C292 1.244 . S
O290 Co264 2.155 . S
O290 C292 1.240 . S
O291 Co264 2.096 . S
O291 C272 1.247 . S
C292 O289 1.244 . S
C292 O290 1.240 . S
H293 C267 0.931 . S
H294 C276 0.931 . S
H295 C280 0.929 . S
H296 C282 0.930 . S
Co297 N301 2.148 . S
Co297 N307 2.128 . S
Co297 N317 2.194 . S
Co297 O322 2.351 . S
Co297 O323 2.155 . S
Co297 O324 2.096 . S
C298 N301 1.301 . S
C298 N302 1.328 . S
C298 H303 0.930 . S
C299 C300 1.333 . S
C299 N301 1.317 . S
C299 H304 0.930 . S
C300 C299 1.333 . S
C300 N302 1.350 . S
C300 H326 0.931 . S
N301 Co297 2.148 . S
N301 C298 1.301 . S
N301 C299 1.317 . S
N302 C298 1.328 . S
N302 C300 1.350 . S
H303 C298 0.930 . S
H304 C299 0.930 . S
C305 O306 1.224 . S
C305 O324 1.247 . S
O306 C305 1.224 . S
N307 Co297 2.128 . S
N307 C308 1.355 . S
N307 C310 1.311 . S
C308 N307 1.355 . S
C308 C309 1.363 . S
C308 H320 0.929 . S
C309 C308 1.363 . S
C309 N311 1.375 . S
C309 H327 0.931 . S
C310 N307 1.311 . S
C310 N311 1.347 . S
C310 H321 0.929 . S
N311 C309 1.375 . S
N311 C310 1.347 . S
C312 C315 1.365 . S
C312 N317 1.328 . S
C312 H318 0.929 . S
C313 C314 1.362 . S
C313 C316 1.378 . S
C313 H328 0.929 . S
C314 C313 1.362 . S
C314 C315 1.366 . S
C315 C312 1.365 . S
C315 C314 1.366 . S
C315 H329 0.930 . S
C316 C313 1.378 . S
C316 N317 1.315 . S
C316 H319 0.930 . S
N317 Co297 2.194 . S
N317 C312 1.328 . S
N317 C316 1.315 . S
H318 C312 0.929 . S
H319 C316 0.930 . S
H320 C308 0.929 . S
H321 C310 0.929 . S
O322 Co297 2.351 . S
O322 C325 1.244 . S
O323 Co297 2.155 . S
O323 C325 1.240 . S
O324 Co297 2.096 . S
O324 C305 1.247 . S
C325 O322 1.244 . S
C325 O323 1.240 . S
H326 C300 0.931 . S
H327 C309 0.931 . S
H328 C313 0.929 . S
H329 C315 0.930 . S
Co330 N334 2.148 . S
Co330 N340 2.128 . S
Co330 N350 2.194 . S
Co330 O355 2.351 . S
Co330 O356 2.155 . S
Co330 O357 2.096 . S
C331 N334 1.301 . S
C331 N335 1.328 . S
C331 H336 0.930 . S
C332 C333 1.333 . S
C332 N334 1.317 . S
C332 H337 0.930 . S
C333 C332 1.333 . S
C333 N335 1.350 . S
C333 H359 0.931 . S
N334 Co330 2.148 . S
N334 C331 1.301 . S
N334 C332 1.317 . S
N335 C331 1.328 . S
N335 C333 1.350 . S
H336 C331 0.930 . S
H337 C332 0.930 . S
C338 O339 1.224 . S
C338 O357 1.247 . S
O339 C338 1.224 . S
N340 Co330 2.128 . S
N340 C341 1.355 . S
N340 C343 1.311 . S
C341 N340 1.355 . S
C341 C342 1.363 . S
C341 H353 0.929 . S
C342 C341 1.363 . S
C342 N344 1.375 . S
C342 H360 0.931 . S
C343 N340 1.311 . S
C343 N344 1.347 . S
C343 H354 0.929 . S
N344 C342 1.375 . S
N344 C343 1.347 . S
C345 C348 1.365 . S
C345 N350 1.328 . S
C345 H351 0.929 . S
C346 C347 1.362 . S
C346 C349 1.378 . S
C346 H361 0.929 . S
C347 C346 1.362 . S
C347 C348 1.366 . S
C348 C345 1.365 . S
C348 C347 1.366 . S
C348 H362 0.930 . S
C349 C346 1.378 . S
C349 N350 1.315 . S
C349 H352 0.930 . S
N350 Co330 2.194 . S
N350 C345 1.328 . S
N350 C349 1.315 . S
H351 C345 0.929 . S
H352 C349 0.930 . S
H353 C341 0.929 . S
H354 C343 0.929 . S
O355 Co330 2.351 . S
O355 C358 1.244 . S
O356 Co330 2.155 . S
O356 C358 1.240 . S
O357 Co330 2.096 . S
O357 C338 1.247 . S
C358 O355 1.244 . S
C358 O356 1.240 . S
H359 C333 0.931 . S
H360 C342 0.931 . S
H361 C346 0.929 . S
H362 C348 0.930 . S
Co363 N367 2.148 . S
Co363 N373 2.128 . S
Co363 N383 2.194 . S
Co363 O388 2.351 . S
Co363 O389 2.155 . S
Co363 O390 2.096 . S
C364 N367 1.301 . S
C364 N368 1.328 . S
C364 H369 0.930 . S
C365 C366 1.333 . S
C365 N367 1.317 . S
C365 H370 0.930 . S
C366 C365 1.333 . S
C366 N368 1.350 . S
C366 H392 0.931 . S
N367 Co363 2.148 . S
N367 C364 1.301 . S
N367 C365 1.317 . S
N368 C364 1.328 . S
N368 C366 1.350 . S
H369 C364 0.930 . S
H370 C365 0.930 . S
C371 O372 1.224 . S
C371 O390 1.247 . S
O372 C371 1.224 . S
N373 Co363 2.128 . S
N373 C374 1.355 . S
N373 C376 1.311 . S
C374 N373 1.355 . S
C374 C375 1.363 . S
C374 H386 0.929 . S
C375 C374 1.363 . S
C375 N377 1.375 . S
C375 H393 0.931 . S
C376 N373 1.311 . S
C376 N377 1.347 . S
C376 H387 0.929 . S
N377 C375 1.375 . S
N377 C376 1.347 . S
C378 C381 1.365 . S
C378 N383 1.328 . S
C378 H384 0.929 . S
C379 C380 1.362 . S
C379 C382 1.378 . S
C379 H394 0.929 . S
C380 C379 1.362 . S
C380 C381 1.366 . S
C381 C378 1.365 . S
C381 C380 1.366 . S
C381 H395 0.930 . S
C382 C379 1.378 . S
C382 N383 1.315 . S
C382 H385 0.930 . S
N383 Co363 2.194 . S
N383 C378 1.328 . S
N383 C382 1.315 . S
H384 C378 0.929 . S
H385 C382 0.930 . S
H386 C374 0.929 . S
H387 C376 0.929 . S
O388 Co363 2.351 . S
O388 C391 1.244 . S
O389 Co363 2.155 . S
O389 C391 1.240 . S
O390 Co363 2.096 . S
O390 C371 1.247 . S
C391 O388 1.244 . S
C391 O389 1.240 . S
H392 C366 0.931 . S
H393 C375 0.931 . S
H394 C379 0.929 . S
H395 C381 0.930 . S
Co396 N400 2.148 . S
Co396 N406 2.128 . S
Co396 N416 2.194 . S
Co396 O421 2.351 . S
Co396 O422 2.155 . S
Co396 O423 2.096 . S
C397 N400 1.301 . S
C397 N401 1.328 . S
C397 H402 0.930 . S
C398 C399 1.333 . S
C398 N400 1.317 . S
C398 H403 0.930 . S
C399 C398 1.333 . S
C399 N401 1.350 . S
C399 H425 0.931 . S
N400 Co396 2.148 . S
N400 C397 1.301 . S
N400 C398 1.317 . S
N401 C397 1.328 . S
N401 C399 1.350 . S
H402 C397 0.930 . S
H403 C398 0.930 . S
C404 O405 1.224 . S
C404 O423 1.247 . S
O405 C404 1.224 . S
N406 Co396 2.128 . S
N406 C407 1.355 . S
N406 C409 1.311 . S
C407 N406 1.355 . S
C407 C408 1.363 . S
C407 H419 0.929 . S
C408 C407 1.363 . S
C408 N410 1.375 . S
C408 H426 0.931 . S
C409 N406 1.311 . S
C409 N410 1.347 . S
C409 H420 0.929 . S
N410 C408 1.375 . S
N410 C409 1.347 . S
C411 C414 1.365 . S
C411 N416 1.328 . S
C411 H417 0.929 . S
C412 C413 1.362 . S
C412 C415 1.378 . S
C412 H427 0.929 . S
C413 C412 1.362 . S
C413 C414 1.366 . S
C414 C411 1.365 . S
C414 C413 1.366 . S
C414 H428 0.930 . S
C415 C412 1.378 . S
C415 N416 1.315 . S
C415 H418 0.930 . S
N416 Co396 2.194 . S
N416 C411 1.328 . S
N416 C415 1.315 . S
H417 C411 0.929 . S
H418 C415 0.930 . S
H419 C407 0.929 . S
H420 C409 0.929 . S
O421 Co396 2.351 . S
O421 C424 1.244 . S
O422 Co396 2.155 . S
O422 C424 1.240 . S
O423 Co396 2.096 . S
O423 C404 1.247 . S
C424 O421 1.244 . S
C424 O422 1.240 . S
H425 C399 0.931 . S
H426 C408 0.931 . S
H427 C412 0.929 . S
H428 C414 0.930 . S
Co429 N433 2.148 . S
Co429 N439 2.128 . S
Co429 N449 2.194 . S
Co429 O454 2.351 . S
Co429 O455 2.155 . S
Co429 O456 2.096 . S
C430 N433 1.301 . S
C430 N434 1.328 . S
C430 H435 0.930 . S
C431 C432 1.333 . S
C431 N433 1.317 . S
C431 H436 0.930 . S
C432 C431 1.333 . S
C432 N434 1.350 . S
C432 H458 0.931 . S
N433 Co429 2.148 . S
N433 C430 1.301 . S
N433 C431 1.317 . S
N434 C430 1.328 . S
N434 C432 1.350 . S
H435 C430 0.930 . S
H436 C431 0.930 . S
C437 O438 1.224 . S
C437 O456 1.247 . S
O438 C437 1.224 . S
N439 Co429 2.128 . S
N439 C440 1.355 . S
N439 C442 1.311 . S
C440 N439 1.355 . S
C440 C441 1.363 . S
C440 H452 0.929 . S
C441 C440 1.363 . S
C441 N443 1.375 . S
C441 H459 0.931 . S
C442 N439 1.311 . S
C442 N443 1.347 . S
C442 H453 0.929 . S
N443 C441 1.375 . S
N443 C442 1.347 . S
C444 C447 1.365 . S
C444 N449 1.328 . S
C444 H450 0.929 . S
C445 C446 1.362 . S
C445 C448 1.378 . S
C445 H460 0.929 . S
C446 C445 1.362 . S
C446 C447 1.366 . S
C447 C444 1.365 . S
C447 C446 1.366 . S
C447 H461 0.930 . S
C448 C445 1.378 . S
C448 N449 1.315 . S
C448 H451 0.930 . S
N449 Co429 2.194 . S
N449 C444 1.328 . S
N449 C448 1.315 . S
H450 C444 0.929 . S
H451 C448 0.930 . S
H452 C440 0.929 . S
H453 C442 0.929 . S
O454 Co429 2.351 . S
O454 C457 1.244 . S
O455 Co429 2.155 . S
O455 C457 1.240 . S
O456 Co429 2.096 . S
O456 C437 1.247 . S
C457 O454 1.244 . S
C457 O455 1.240 . S
H458 C432 0.931 . S
H459 C441 0.931 . S
H460 C445 0.929 . S
H461 C447 0.930 . S
Co462 N466 2.148 . S
Co462 N472 2.128 . S
Co462 N482 2.194 . S
Co462 O487 2.351 . S
Co462 O488 2.155 . S
Co462 O489 2.096 . S
C463 N466 1.301 . S
C463 N467 1.328 . S
C463 H468 0.930 . S
C464 C465 1.333 . S
C464 N466 1.317 . S
C464 H469 0.930 . S
C465 C464 1.333 . S
C465 N467 1.350 . S
C465 H491 0.931 . S
N466 Co462 2.148 . S
N466 C463 1.301 . S
N466 C464 1.317 . S
N467 C463 1.328 . S
N467 C465 1.350 . S
H468 C463 0.930 . S
H469 C464 0.930 . S
C470 O471 1.224 . S
C470 O489 1.247 . S
O471 C470 1.224 . S
N472 Co462 2.128 . S
N472 C473 1.355 . S
N472 C475 1.311 . S
C473 N472 1.355 . S
C473 C474 1.363 . S
C473 H485 0.929 . S
C474 C473 1.363 . S
C474 N476 1.375 . S
C474 H492 0.931 . S
C475 N472 1.311 . S
C475 N476 1.347 . S
C475 H486 0.929 . S
N476 C474 1.375 . S
N476 C475 1.347 . S
C477 C480 1.365 . S
C477 N482 1.328 . S
C477 H483 0.929 . S
C478 C479 1.362 . S
C478 C481 1.378 . S
C478 H493 0.929 . S
C479 C478 1.362 . S
C479 C480 1.366 . S
C480 C477 1.365 . S
C480 C479 1.366 . S
C480 H494 0.930 . S
C481 C478 1.378 . S
C481 N482 1.315 . S
C481 H484 0.930 . S
N482 Co462 2.194 . S
N482 C477 1.328 . S
N482 C481 1.315 . S
H483 C477 0.929 . S
H484 C481 0.930 . S
H485 C473 0.929 . S
H486 C475 0.929 . S
O487 Co462 2.351 . S
O487 C490 1.244 . S
O488 Co462 2.155 . S
O488 C490 1.240 . S
O489 Co462 2.096 . S
O489 C470 1.247 . S
C490 O487 1.244 . S
C490 O488 1.240 . S
H491 C465 0.931 . S
H492 C474 0.931 . S
H493 C478 0.929 . S
H494 C480 0.930 . S
Co495 N499 2.148 . S
Co495 N505 2.128 . S
Co495 N515 2.194 . S
Co495 O520 2.351 . S
Co495 O521 2.155 . S
Co495 O522 2.096 . S
C496 N499 1.301 . S
C496 N500 1.328 . S
C496 H501 0.930 . S
C497 C498 1.333 . S
C497 N499 1.317 . S
C497 H502 0.930 . S
C498 C497 1.333 . S
C498 N500 1.350 . S
C498 H524 0.931 . S
N499 Co495 2.148 . S
N499 C496 1.301 . S
N499 C497 1.317 . S
N500 C496 1.328 . S
N500 C498 1.350 . S
H501 C496 0.930 . S
H502 C497 0.930 . S
C503 O504 1.224 . S
C503 O522 1.247 . S
O504 C503 1.224 . S
N505 Co495 2.128 . S
N505 C506 1.355 . S
N505 C508 1.311 . S
C506 N505 1.355 . S
C506 C507 1.363 . S
C506 H518 0.929 . S
C507 C506 1.363 . S
C507 N509 1.375 . S
C507 H525 0.931 . S
C508 N505 1.311 . S
C508 N509 1.347 . S
C508 H519 0.929 . S
N509 C507 1.375 . S
N509 C508 1.347 . S
C510 C513 1.365 . S
C510 N515 1.328 . S
C510 H516 0.929 . S
C511 C512 1.362 . S
C511 C514 1.378 . S
C511 H526 0.929 . S
C512 C511 1.362 . S
C512 C513 1.366 . S
C513 C510 1.365 . S
C513 C512 1.366 . S
C513 H527 0.930 . S
C514 C511 1.378 . S
C514 N515 1.315 . S
C514 H517 0.930 . S
N515 Co495 2.194 . S
N515 C510 1.328 . S
N515 C514 1.315 . S
H516 C510 0.929 . S
H517 C514 0.930 . S
H518 C506 0.929 . S
H519 C508 0.929 . S
O520 Co495 2.351 . S
O520 C523 1.244 . S
O521 Co495 2.155 . S
O521 C523 1.240 . S
O522 Co495 2.096 . S
O522 C503 1.247 . S
C523 O520 1.244 . S
C523 O521 1.240 . S
H524 C498 0.931 . S
H525 C507 0.931 . S
H526 C511 0.929 . S
H527 C513 0.930 . S
H528 C534 0.930 . S
H529 C538 0.930 . S
H530 C543 0.929 . S
H531 C541 0.929 . S
H532 C536 0.929 . S
H533 C542 0.929 . S
C534 H528 0.930 . S
C534 C535 1.367 . S
C534 C542 1.378 . S
C535 C534 1.367 . S
C535 C543 1.433 . S
C536 H532 0.929 . S
C536 C538 1.378 . S
C536 C540 1.350 . S
C537 C540 1.463 . S
C537 C542 1.350 . S
C537 N545 1.427 . S
C538 H529 0.930 . S
C538 C536 1.378 . S
C538 C539 1.367 . S
C539 C538 1.367 . S
C539 C541 1.433 . S
C540 C536 1.350 . S
C540 C537 1.463 . S
C540 N544 1.427 . S
C541 H531 0.929 . S
C541 C539 1.433 . S
C541 N544 1.384 . S
C542 H533 0.929 . S
C542 C534 1.378 . S
C542 C537 1.350 . S
C543 H530 0.929 . S
C543 C535 1.433 . S
C543 N545 1.384 . S
N544 C540 1.427 . S
N544 C541 1.384 . S
N545 C537 1.427 . S
N545 C543 1.384 . S
H546 C552 0.930 . S
H547 C556 0.930 . S
H548 C561 0.929 . S
H549 C559 0.929 . S
H550 C554 0.929 . S
H551 C560 0.929 . S
C552 H546 0.930 . S
C552 C553 1.367 . S
C552 C560 1.378 . S
C553 C552 1.367 . S
C553 C561 1.433 . S
C554 H550 0.929 . S
C554 C556 1.378 . S
C554 C558 1.350 . S
C555 C558 1.463 . S
C555 C560 1.350 . S
C555 N563 1.427 . S
C556 H547 0.930 . S
C556 C554 1.378 . S
C556 C557 1.367 . S
C557 C556 1.367 . S
C557 C559 1.433 . S
C558 C554 1.350 . S
C558 C555 1.463 . S
C558 N562 1.427 . S
C559 H549 0.929 . S
C559 C557 1.433 . S
C559 N562 1.384 . S
C560 H551 0.929 . S
C560 C552 1.378 . S
C560 C555 1.350 . S
C561 H548 0.929 . S
C561 C553 1.433 . S
C561 N563 1.384 . S
N562 C558 1.427 . S
N562 C559 1.384 . S
N563 C555 1.427 . S
N563 C561 1.384 . S
H564 C570 0.930 . S
H565 C574 0.930 . S
H566 C579 0.929 . S
H567 C577 0.929 . S
H568 C572 0.929 . S
H569 C578 0.929 . S
C570 H564 0.930 . S
C570 C571 1.367 . S
C570 C578 1.378 . S
C571 C570 1.367 . S
C571 C579 1.433 . S
C572 H568 0.929 . S
C572 C574 1.378 . S
C572 C576 1.350 . S
C573 C576 1.463 1_554 S
C573 C578 1.350 . S
C573 N581 1.427 . S
C574 H565 0.930 . S
C574 C572 1.378 . S
C574 C575 1.367 . S
C575 C574 1.367 . S
C575 C577 1.433 . S
C576 C572 1.350 . S
C576 C573 1.463 1_556 S
C576 N580 1.427 . S
C577 H567 0.929 . S
C577 C575 1.433 . S
C577 N580 1.384 . S
C578 H569 0.929 . S
C578 C570 1.378 . S
C578 C573 1.350 . S
C579 H566 0.929 . S
C579 C571 1.433 . S
C579 N581 1.384 . S
N580 C576 1.427 . S
N580 C577 1.384 . S
N581 C573 1.427 . S
N581 C579 1.384 . S
H582 C588 0.930 . S
H583 C592 0.930 . S
H584 C597 0.929 . S
H585 C595 0.929 . S
H586 C590 0.929 . S
H587 C596 0.929 . S
C588 H582 0.930 . S
C588 C589 1.367 . S
C588 C596 1.378 . S
C589 C588 1.367 . S
C589 C597 1.433 . S
C590 H586 0.929 . S
C590 C592 1.378 . S
C590 C594 1.350 . S
C591 C594 1.463 . S
C591 C596 1.350 . S
C591 N599 1.427 . S
C592 H583 0.930 . S
C592 C590 1.378 . S
C592 C593 1.367 . S
C593 C592 1.367 . S
C593 C595 1.433 . S
C594 C590 1.350 . S
C594 C591 1.463 . S
C594 N598 1.427 . S
C595 H585 0.929 . S
C595 C593 1.433 . S
C595 N598 1.384 . S
C596 H587 0.929 . S
C596 C588 1.378 . S
C596 C591 1.350 . S
C597 H584 0.929 . S
C597 C589 1.433 . S
C597 N599 1.384 . S
N598 C594 1.427 . S
N598 C595 1.384 . S
N599 C591 1.427 . S
N599 C597 1.384 . S
H600 C606 0.930 . S
H601 C610 0.930 . S
H602 C615 0.929 . S
H603 C613 0.929 . S
H604 C608 0.929 . S
H605 C614 0.929 . S
C606 H600 0.930 . S
C606 C607 1.367 . S
C606 C614 1.378 . S
C607 C606 1.367 . S
C607 C615 1.433 . S
C608 H604 0.929 . S
C608 C610 1.378 . S
C608 C612 1.350 . S
C609 C612 1.463 . S
C609 C614 1.350 . S
C609 N617 1.427 . S
C610 H601 0.930 . S
C610 C608 1.378 . S
C610 C611 1.367 . S
C611 C610 1.367 . S
C611 C613 1.433 . S
C612 C608 1.350 . S
C612 C609 1.463 . S
C612 N616 1.427 . S
C613 H603 0.929 . S
C613 C611 1.433 . S
C613 N616 1.384 . S
C614 H605 0.929 . S
C614 C606 1.378 . S
C614 C609 1.350 . S
C615 H602 0.929 . S
C615 C607 1.433 . S
C615 N617 1.384 . S
N616 C612 1.427 . S
N616 C613 1.384 . S
N617 C609 1.427 . S
N617 C615 1.384 . S
H618 C624 0.930 . S
H619 C628 0.930 . S
H620 C633 0.929 . S
H621 C631 0.929 . S
H622 C626 0.929 . S
H623 C632 0.929 . S
C624 H618 0.930 . S
C624 C625 1.367 . S
C624 C632 1.378 . S
C625 C624 1.367 . S
C625 C633 1.433 . S
C626 H622 0.929 . S
C626 C628 1.378 . S
C626 C630 1.350 . S
C627 C630 1.463 1_556 S
C627 C632 1.350 . S
C627 N635 1.427 . S
C628 H619 0.930 . S
C628 C626 1.378 . S
C628 C629 1.367 . S
C629 C628 1.367 . S
C629 C631 1.433 . S
C630 C626 1.350 . S
C630 C627 1.463 1_554 S
C630 N634 1.427 . S
C631 H621 0.929 . S
C631 C629 1.433 . S
C631 N634 1.384 . S
C632 H623 0.929 . S
C632 C624 1.378 . S
C632 C627 1.350 . S
C633 H620 0.929 . S
C633 C625 1.433 . S
C633 N635 1.384 . S
N634 C630 1.427 . S
N634 C631 1.384 . S
N635 C627 1.427 . S
N635 C633 1.384 . S
H636 C642 0.930 . S
H637 C646 0.930 . S
H638 C651 0.929 . S
H639 C649 0.929 . S
H640 C644 0.929 . S
H641 C650 0.929 . S
C642 H636 0.930 . S
C642 C643 1.367 . S
C642 C650 1.378 . S
C643 C642 1.367 . S
C643 C651 1.433 . S
C644 H640 0.929 . S
C644 C646 1.378 . S
C644 C648 1.350 . S
C645 C648 1.463 . S
C645 C650 1.350 . S
C645 N653 1.427 . S
C646 H637 0.930 . S
C646 C644 1.378 . S
C646 C647 1.367 . S
C647 C646 1.367 . S
C647 C649 1.433 . S
C648 C644 1.350 . S
C648 C645 1.463 . S
C648 N652 1.427 . S
C649 H639 0.929 . S
C649 C647 1.433 . S
C649 N652 1.384 . S
C650 H641 0.929 . S
C650 C642 1.378 . S
C650 C645 1.350 . S
C651 H638 0.929 . S
C651 C643 1.433 . S
C651 N653 1.384 . S
N652 C648 1.427 . S
N652 C649 1.384 . S
N653 C645 1.427 . S
N653 C651 1.384 . S
H654 C660 0.930 . S
H655 C664 0.930 . S
H656 C669 0.929 . S
H657 C667 0.929 . S
H658 C662 0.929 . S
H659 C668 0.929 . S
C660 H654 0.930 . S
C660 C661 1.367 . S
C660 C668 1.378 . S
C661 C660 1.367 . S
C661 C669 1.433 . S
C662 H658 0.929 . S
C662 C664 1.378 . S
C662 C666 1.350 . S
C663 C666 1.463 . S
C663 C668 1.350 . S
C663 N671 1.427 . S
C664 H655 0.930 . S
C664 C662 1.378 . S
C664 C665 1.367 . S
C665 C664 1.367 . S
C665 C667 1.433 . S
C666 C662 1.350 . S
C666 C663 1.463 . S
C666 N670 1.427 . S
C667 H657 0.929 . S
C667 C665 1.433 . S
C667 N670 1.384 . S
C668 H659 0.929 . S
C668 C660 1.378 . S
C668 C663 1.350 . S
C669 H656 0.929 . S
C669 C661 1.433 . S
C669 N671 1.384 . S
N670 C666 1.427 . S
N670 C667 1.384 . S
N671 C663 1.427 . S
N671 C669 1.384 . S
H672 C678 0.930 . S
H673 C682 0.930 . S
H674 C687 0.929 . S
H675 C685 0.929 . S
H676 C680 0.929 . S
H677 C686 0.929 . S
C678 H672 0.930 . S
C678 C679 1.367 . S
C678 C686 1.378 . S
C679 C678 1.367 . S
C679 C687 1.433 . S
C680 H676 0.929 . S
C680 C682 1.378 . S
C680 C684 1.350 . S
C681 C684 1.463 . S
C681 C686 1.350 . S
C681 N689 1.427 . S
C682 H673 0.930 . S
C682 C680 1.378 . S
C682 C683 1.367 . S
C683 C682 1.367 . S
C683 C685 1.433 . S
C684 C680 1.350 . S
C684 C681 1.463 . S
C684 N688 1.427 . S
C685 H675 0.929 . S
C685 C683 1.433 . S
C685 N688 1.384 . S
C686 H677 0.929 . S
C686 C678 1.378 . S
C686 C681 1.350 . S
C687 H674 0.929 . S
C687 C679 1.433 . S
C687 N689 1.384 . S
N688 C684 1.427 . S
N688 C685 1.384 . S
N689 C681 1.427 . S
N689 C687 1.384 . S
H690 C696 0.930 . S
H691 C700 0.930 . S
H692 C705 0.929 . S
H693 C703 0.929 . S
H694 C698 0.929 . S
H695 C704 0.929 . S
C696 H690 0.930 . S
C696 C697 1.367 . S
C696 C704 1.378 . S
C697 C696 1.367 . S
C697 C705 1.433 . S
C698 H694 0.929 . S
C698 C700 1.378 . S
C698 C702 1.350 . S
C699 C702 1.463 . S
C699 C704 1.350 . S
C699 N707 1.427 . S
C700 H691 0.930 . S
C700 C698 1.378 . S
C700 C701 1.367 . S
C701 C700 1.367 . S
C701 C703 1.433 . S
C702 C698 1.350 . S
C702 C699 1.463 . S
C702 N706 1.427 . S
C703 H693 0.929 . S
C703 C701 1.433 . S
C703 N706 1.384 . S
C704 H695 0.929 . S
C704 C696 1.378 . S
C704 C699 1.350 . S
C705 H692 0.929 . S
C705 C697 1.433 . S
C705 N707 1.384 . S
N706 C702 1.427 . S
N706 C703 1.384 . S
N707 C699 1.427 . S
N707 C705 1.384 . S
H708 C714 0.930 . S
H709 C718 0.930 . S
H710 C723 0.929 . S
H711 C721 0.929 . S
H712 C716 0.929 . S
H713 C722 0.929 . S
C714 H708 0.930 . S
C714 C715 1.367 . S
C714 C722 1.378 . S
C715 C714 1.367 . S
C715 C723 1.433 . S
C716 H712 0.929 . S
C716 C718 1.378 . S
C716 C720 1.350 . S
C717 C720 1.463 . S
C717 C722 1.350 . S
C717 N725 1.427 . S
C718 H709 0.930 . S
C718 C716 1.378 . S
C718 C719 1.367 . S
C719 C718 1.367 . S
C719 C721 1.433 . S
C720 C716 1.350 . S
C720 C717 1.463 . S
C720 N724 1.427 . S
C721 H711 0.929 . S
C721 C719 1.433 . S
C721 N724 1.384 . S
C722 H713 0.929 . S
C722 C714 1.378 . S
C722 C717 1.350 . S
C723 H710 0.929 . S
C723 C715 1.433 . S
C723 N725 1.384 . S
N724 C720 1.427 . S
N724 C721 1.384 . S
N725 C717 1.427 . S
N725 C723 1.384 . S
H726 C732 0.930 1_554 S
H727 C736 0.930 . S
H728 C741 0.929 . S
H729 C739 0.929 . S
H730 C734 0.929 . S
H731 C740 0.929 . S
C732 H726 0.930 1_556 S
C732 C733 1.367 . S
C732 C740 1.378 . S
C733 C732 1.367 . S
C733 C741 1.433 . S
C734 H730 0.929 . S
C734 C736 1.378 . S
C734 C738 1.350 . S
C735 C738 1.463 . S
C735 C740 1.350 . S
C735 N743 1.427 . S
C736 H727 0.930 . S
C736 C734 1.378 . S
C736 C737 1.367 . S
C737 C736 1.367 . S
C737 C739 1.433 . S
C738 C734 1.350 . S
C738 C735 1.463 . S
C738 N742 1.427 . S
C739 H729 0.929 . S
C739 C737 1.433 . S
C739 N742 1.384 . S
C740 H731 0.929 . S
C740 C732 1.378 . S
C740 C735 1.350 . S
C741 H728 0.929 . S
C741 C733 1.433 . S
C741 N743 1.384 . S
N742 C738 1.427 . S
N742 C739 1.384 . S
N743 C735 1.427 . S
N743 C741 1.384 . S
H744 C750 0.930 . S
H745 C754 0.930 . S
H746 C759 0.929 . S
H747 C757 0.929 . S
H748 C752 0.929 . S
H749 C758 0.929 . S
C750 H744 0.930 . S
C750 C751 1.367 . S
C750 C758 1.378 . S
C751 C750 1.367 . S
C751 C759 1.433 . S
C752 H748 0.929 . S
C752 C754 1.378 . S
C752 C756 1.350 . S
C753 C756 1.463 . S
C753 C758 1.350 . S
C753 N761 1.427 . S
C754 H745 0.930 . S
C754 C752 1.378 . S
C754 C755 1.367 . S
C755 C754 1.367 . S
C755 C757 1.433 . S
C756 C752 1.350 . S
C756 C753 1.463 . S
C756 N760 1.427 . S
C757 H747 0.929 . S
C757 C755 1.433 . S
C757 N760 1.384 . S
C758 H749 0.929 . S
C758 C750 1.378 . S
C758 C753 1.350 . S
C759 H746 0.929 . S
C759 C751 1.433 . S
C759 N761 1.384 . S
N760 C756 1.427 . S
N760 C757 1.384 . S
N761 C753 1.427 . S
N761 C759 1.384 . S
H762 C768 0.930 . S
H763 C772 0.930 . S
H764 C777 0.929 . S
H765 C775 0.929 . S
H766 C770 0.929 . S
H767 C776 0.929 . S
C768 H762 0.930 . S
C768 C769 1.367 . S
C768 C776 1.378 . S
C769 C768 1.367 . S
C769 C777 1.433 . S
C770 H766 0.929 . S
C770 C772 1.378 . S
C770 C774 1.350 . S
C771 C774 1.463 . S
C771 C776 1.350 . S
C771 N779 1.427 . S
C772 H763 0.930 . S
C772 C770 1.378 . S
C772 C773 1.367 . S
C773 C772 1.367 . S
C773 C775 1.433 . S
C774 C770 1.350 . S
C774 C771 1.463 . S
C774 N778 1.427 . S
C775 H765 0.929 . S
C775 C773 1.433 . S
C775 N778 1.384 . S
C776 H767 0.929 . S
C776 C768 1.378 . S
C776 C771 1.350 . S
C777 H764 0.929 . S
C777 C769 1.433 . S
C777 N779 1.384 . S
N778 C774 1.427 . S
N778 C775 1.384 . S
N779 C771 1.427 . S
N779 C777 1.384 . S
H780 C786 0.930 . S
H781 C790 0.930 . S
H782 C795 0.929 . S
H783 C793 0.929 . S
H784 C788 0.929 . S
H785 C794 0.929 . S
C786 H780 0.930 . S
C786 C787 1.367 . S
C786 C794 1.378 . S
C787 C786 1.367 . S
C787 C795 1.433 . S
C788 H784 0.929 . S
C788 C790 1.378 . S
C788 C792 1.350 . S
C789 C792 1.463 . S
C789 C794 1.350 . S
C789 N797 1.427 . S
C790 H781 0.930 . S
C790 C788 1.378 . S
C790 C791 1.367 . S
C791 C790 1.367 . S
C791 C793 1.433 . S
C792 C788 1.350 . S
C792 C789 1.463 . S
C792 N796 1.427 . S
C793 H783 0.929 . S
C793 C791 1.433 . S
C793 N796 1.384 . S
C794 H785 0.929 . S
C794 C786 1.378 . S
C794 C789 1.350 . S
C795 H782 0.929 . S
C795 C787 1.433 . S
C795 N797 1.384 . S
N796 C792 1.427 . S
N796 C793 1.384 . S
N797 C789 1.427 . S
N797 C795 1.384 . S
H798 C804 0.930 . S
H799 C808 0.930 . S
H800 C813 0.929 . S
H801 C811 0.929 . S
H802 C806 0.929 . S
H803 C812 0.929 . S
C804 H798 0.930 . S
C804 C805 1.367 . S
C804 C812 1.378 . S
C805 C804 1.367 . S
C805 C813 1.433 . S
C806 H802 0.929 . S
C806 C808 1.378 . S
C806 C810 1.350 . S
C807 C810 1.463 . S
C807 C812 1.350 . S
C807 N815 1.427 . S
C808 H799 0.930 . S
C808 C806 1.378 . S
C808 C809 1.367 . S
C809 C808 1.367 . S
C809 C811 1.433 . S
C810 C806 1.350 . S
C810 C807 1.463 . S
C810 N814 1.427 . S
C811 H801 0.929 . S
C811 C809 1.433 . S
C811 N814 1.384 . S
C812 H803 0.929 . S
C812 C804 1.378 . S
C812 C807 1.350 . S
C813 H800 0.929 . S
C813 C805 1.433 . S
C813 N815 1.384 . S
N814 C810 1.427 . S
N814 C811 1.384 . S
N815 C807 1.427 . S
N815 C813 1.384 . S
H816 C822 0.930 . S
H817 C826 0.930 . S
H818 C831 0.929 . S
H819 C829 0.929 . S
H820 C824 0.929 . S
H821 C830 0.929 . S
C822 H816 0.930 . S
C822 C823 1.367 . S
C822 C830 1.378 . S
C823 C822 1.367 . S
C823 C831 1.433 . S
C824 H820 0.929 . S
C824 C826 1.378 . S
C824 C828 1.350 . S
C825 C828 1.463 . S
C825 C830 1.350 . S
C825 N833 1.427 . S
C826 H817 0.930 . S
C826 C824 1.378 . S
C826 C827 1.367 . S
C827 C826 1.367 . S
C827 C829 1.433 . S
C828 C824 1.350 . S
C828 C825 1.463 . S
C828 N832 1.427 . S
C829 H819 0.929 . S
C829 C827 1.433 . S
C829 N832 1.384 . S
C830 H821 0.929 . S
C830 C822 1.378 . S
C830 C825 1.350 . S
C831 H818 0.929 . S
C831 C823 1.433 . S
C831 N833 1.384 . S
N832 C828 1.427 . S
N832 C829 1.384 . S
N833 C825 1.427 . S
N833 C831 1.384 . S
H834 C840 0.930 . S
H835 C844 0.930 . S
H836 C849 0.929 . S
H837 C847 0.929 . S
H838 C842 0.929 . S
H839 C848 0.929 . S
C840 H834 0.930 . S
C840 C841 1.367 . S
C840 C848 1.378 . S
C841 C840 1.367 . S
C841 C849 1.433 . S
C842 H838 0.929 . S
C842 C844 1.378 . S
C842 C846 1.350 . S
C843 C846 1.463 . S
C843 C848 1.350 . S
C843 N851 1.427 . S
C844 H835 0.930 . S
C844 C842 1.378 . S
C844 C845 1.367 . S
C845 C844 1.367 . S
C845 C847 1.433 . S
C846 C842 1.350 . S
C846 C843 1.463 . S
C846 N850 1.427 . S
C847 H837 0.929 . S
C847 C845 1.433 . S
C847 N850 1.384 . S
C848 H839 0.929 . S
C848 C840 1.378 . S
C848 C843 1.350 . S
C849 H836 0.929 . S
C849 C841 1.433 . S
C849 N851 1.384 . S
N850 C846 1.427 . S
N850 C847 1.384 . S
N851 C843 1.427 . S
N851 C849 1.384 . S
H852 C858 0.930 . S
H853 C862 0.930 . S
H854 C867 0.929 . S
H855 C865 0.929 . S
H856 C860 0.929 . S
H857 C866 0.929 . S
C858 H852 0.930 . S
C858 C859 1.367 . S
C858 C866 1.378 . S
C859 C858 1.367 . S
C859 C867 1.433 . S
C860 H856 0.929 . S
C860 C862 1.378 . S
C860 C864 1.350 . S
C861 C864 1.463 . S
C861 C866 1.350 . S
C861 N869 1.427 . S
C862 H853 0.930 . S
C862 C860 1.378 . S
C862 C863 1.367 . S
C863 C862 1.367 . S
C863 C865 1.433 . S
C864 C860 1.350 . S
C864 C861 1.463 . S
C864 N868 1.427 . S
C865 H855 0.929 . S
C865 C863 1.433 . S
C865 N868 1.384 . S
C866 H857 0.929 . S
C866 C858 1.378 . S
C866 C861 1.350 . S
C867 H854 0.929 . S
C867 C859 1.433 . S
C867 N869 1.384 . S
N868 C864 1.427 . S
N868 C865 1.384 . S
N869 C861 1.427 . S
N869 C867 1.384 . S
H870 C876 0.930 . S
H871 C880 0.930 . S
H872 C885 0.929 . S
H873 C883 0.929 . S
H874 C878 0.929 . S
H875 C884 0.929 . S
C876 H870 0.930 . S
C876 C877 1.367 . S
C876 C884 1.378 . S
C877 C876 1.367 . S
C877 C885 1.433 . S
C878 H874 0.929 . S
C878 C880 1.378 . S
C878 C882 1.350 . S
C879 C882 1.463 . S
C879 C884 1.350 . S
C879 N887 1.427 . S
C880 H871 0.930 . S
C880 C878 1.378 . S
C880 C881 1.367 . S
C881 C880 1.367 . S
C881 C883 1.433 . S
C882 C878 1.350 . S
C882 C879 1.463 . S
C882 N886 1.427 . S
C883 H873 0.929 . S
C883 C881 1.433 . S
C883 N886 1.384 . S
C884 H875 0.929 . S
C884 C876 1.378 . S
C884 C879 1.350 . S
C885 H872 0.929 . S
C885 C877 1.433 . S
C885 N887 1.384 . S
N886 C882 1.427 . S
N886 C883 1.384 . S
N887 C879 1.427 . S
N887 C885 1.384 . S
H888 C894 0.930 . S
H889 C898 0.930 . S
H890 C903 0.929 . S
H891 C901 0.929 . S
H892 C896 0.929 . S
H893 C902 0.929 . S
C894 H888 0.930 . S
C894 C895 1.367 . S
C894 C902 1.378 . S
C895 C894 1.367 . S
C895 C903 1.433 . S
C896 H892 0.929 . S
C896 C898 1.378 . S
C896 C900 1.350 . S
C897 C900 1.463 . S
C897 C902 1.350 . S
C897 N905 1.427 . S
C898 H889 0.930 . S
C898 C896 1.378 . S
C898 C899 1.367 . S
C899 C898 1.367 . S
C899 C901 1.433 . S
C900 C896 1.350 . S
C900 C897 1.463 . S
C900 N904 1.427 . S
C901 H891 0.929 . S
C901 C899 1.433 . S
C901 N904 1.384 . S
C902 H893 0.929 . S
C902 C894 1.378 . S
C902 C897 1.350 . S
C903 H890 0.929 . S
C903 C895 1.433 . S
C903 N905 1.384 . S
N904 C900 1.427 . S
N904 C901 1.384 . S
N905 C897 1.427 . S
N905 C903 1.384 . S
H906 C912 0.930 . S
H907 C916 0.930 . S
H908 C921 0.929 . S
H909 C919 0.929 . S
H910 C914 0.929 . S
H911 C920 0.929 . S
C912 H906 0.930 . S
C912 C913 1.367 . S
C912 C920 1.378 . S
C913 C912 1.367 . S
C913 C921 1.433 . S
C914 H910 0.929 . S
C914 C916 1.378 . S
C914 C918 1.350 . S
C915 C918 1.463 . S
C915 C920 1.350 . S
C915 N923 1.427 . S
C916 H907 0.930 . S
C916 C914 1.378 . S
C916 C917 1.367 . S
C917 C916 1.367 . S
C917 C919 1.433 . S
C918 C914 1.350 . S
C918 C915 1.463 . S
C918 N922 1.427 . S
C919 H909 0.929 . S
C919 C917 1.433 . S
C919 N922 1.384 . S
C920 H911 0.929 . S
C920 C912 1.378 . S
C920 C915 1.350 . S
C921 H908 0.929 . S
C921 C913 1.433 . S
C921 N923 1.384 . S
N922 C918 1.427 . S
N922 C919 1.384 . S
N923 C915 1.427 . S
N923 C921 1.384 . S
H924 C930 0.930 . S
H925 C934 0.930 . S
H926 C939 0.929 . S
H927 C937 0.929 . S
H928 C932 0.929 . S
H929 C938 0.929 . S
C930 H924 0.930 . S
C930 C931 1.367 . S
C930 C938 1.378 . S
C931 C930 1.367 . S
C931 C939 1.433 . S
C932 H928 0.929 . S
C932 C934 1.378 . S
C932 C936 1.350 . S
C933 C936 1.463 . S
C933 C938 1.350 . S
C933 N941 1.427 . S
C934 H925 0.930 . S
C934 C932 1.378 . S
C934 C935 1.367 . S
C935 C934 1.367 . S
C935 C937 1.433 . S
C936 C932 1.350 . S
C936 C933 1.463 . S
C936 N940 1.427 . S
C937 H927 0.929 . S
C937 C935 1.433 . S
C937 N940 1.384 . S
C938 H929 0.929 . S
C938 C930 1.378 . S
C938 C933 1.350 . S
C939 H926 0.929 . S
C939 C931 1.433 . S
C939 N941 1.384 . S
N940 C936 1.427 . S
N940 C937 1.384 . S
N941 C933 1.427 . S
N941 C939 1.384 . S
H942 C948 0.930 . S
H943 C952 0.930 . S
H944 C957 0.929 . S
H945 C955 0.929 . S
H946 C950 0.929 . S
H947 C956 0.929 . S
C948 H942 0.930 . S
C948 C949 1.367 . S
C948 C956 1.378 . S
C949 C948 1.367 . S
C949 C957 1.433 . S
C950 H946 0.929 . S
C950 C952 1.378 . S
C950 C954 1.350 . S
C951 C954 1.463 . S
C951 C956 1.350 . S
C951 N959 1.427 . S
C952 H943 0.930 . S
C952 C950 1.378 . S
C952 C953 1.367 . S
C953 C952 1.367 . S
C953 C955 1.433 . S
C954 C950 1.350 . S
C954 C951 1.463 . S
C954 N958 1.427 . S
C955 H945 0.929 . S
C955 C953 1.433 . S
C955 N958 1.384 . S
C956 H947 0.929 . S
C956 C948 1.378 . S
C956 C951 1.350 . S
C957 H944 0.929 . S
C957 C949 1.433 . S
C957 N959 1.384 . S
N958 C954 1.427 . S
N958 C955 1.384 . S
N959 C951 1.427 . S
N959 C957 1.384 . S
H960 C966 0.930 . S
H961 C970 0.930 . S
H962 C975 0.929 . S
H963 C973 0.929 . S
H964 C968 0.929 1_455 S
H965 C974 0.929 1_655 S
C966 H960 0.930 . S
C966 C967 1.367 . S
C966 C974 1.378 . S
C967 C966 1.367 . S
C967 C975 1.433 . S
C968 H964 0.929 1_655 S
C968 C970 1.378 . S
C968 C972 1.350 . S
C969 C972 1.463 1_445 S
C969 C974 1.350 . S
C969 N977 1.427 . S
C970 H961 0.930 . S
C970 C968 1.378 . S
C970 C971 1.367 . S
C971 C970 1.367 . S
C971 C973 1.433 . S
C972 C968 1.350 . S
C972 C969 1.463 1_665 S
C972 N976 1.427 . S
C973 H963 0.929 . S
C973 C971 1.433 . S
C973 N976 1.384 . S
C974 H965 0.929 1_455 S
C974 C966 1.378 . S
C974 C969 1.350 . S
C975 H962 0.929 . S
C975 C967 1.433 . S
C975 N977 1.384 . S
N976 C972 1.427 . S
N976 C973 1.384 . S
N977 C969 1.427 . S
N977 C975 1.384 . S
H978 C984 0.930 . S
H979 C988 0.930 . S
H980 C993 0.929 . S
H981 C991 0.929 . S
H982 C986 0.929 1_455 S
H983 C992 0.929 1_655 S
C984 H978 0.930 . S
C984 C985 1.367 . S
C984 C992 1.378 . S
C985 C984 1.367 . S
C985 C993 1.433 . S
C986 H982 0.929 1_655 S
C986 C988 1.378 . S
C986 C990 1.350 . S
C987 C990 1.463 1_455 S
C987 C992 1.350 . S
C987 N995 1.427 . S
C988 H979 0.930 . S
C988 C986 1.378 . S
C988 C989 1.367 . S
C989 C988 1.367 . S
C989 C991 1.433 . S
C990 C986 1.350 . S
C990 C987 1.463 1_655 S
C990 N994 1.427 . S
C991 H981 0.929 . S
C991 C989 1.433 . S
C991 N994 1.384 . S
C992 H983 0.929 1_455 S
C992 C984 1.378 . S
C992 C987 1.350 . S
C993 H980 0.929 . S
C993 C985 1.433 . S
C993 N995 1.384 . S
N994 C990 1.427 . S
N994 C991 1.384 . S
N995 C987 1.427 . S
N995 C993 1.384 . S
H996 C1002 0.930 . S
H997 C1006 0.930 . S
H998 C1011 0.929 . S
H999 C1009 0.929 . S
H1000 C1004 0.929 . S
H1001 C1010 0.929 . S
C1002 H996 0.930 . S
C1002 C1003 1.367 . S
C1002 C1010 1.378 . S
C1003 C1002 1.367 . S
C1003 C1011 1.433 . S
C1004 H1000 0.929 . S
C1004 C1006 1.378 . S
C1004 C1008 1.350 . S
C1005 C1008 1.463 . S
C1005 C1010 1.350 . S
C1005 N1013 1.427 . S
C1006 H997 0.930 . S
C1006 C1004 1.378 . S
C1006 C1007 1.367 . S
C1007 C1006 1.367 . S
C1007 C1009 1.433 . S
C1008 C1004 1.350 . S
C1008 C1005 1.463 . S
C1008 N1012 1.427 . S
C1009 H999 0.929 . S
C1009 C1007 1.433 . S
C1009 N1012 1.384 . S
C1010 H1001 0.929 . S
C1010 C1002 1.378 . S
C1010 C1005 1.350 . S
C1011 H998 0.929 . S
C1011 C1003 1.433 . S
C1011 N1013 1.384 . S
N1012 C1008 1.427 . S
N1012 C1009 1.384 . S
N1013 C1005 1.427 . S
N1013 C1011 1.384 . S
H1014 C1020 0.930 . S
H1015 C1024 0.930 . S
H1016 C1029 0.929 . S
H1017 C1027 0.929 . S
H1018 C1022 0.929 . S
H1019 C1028 0.929 . S
C1020 H1014 0.930 . S
C1020 C1021 1.367 . S
C1020 C1028 1.378 . S
C1021 C1020 1.367 . S
C1021 C1029 1.433 . S
C1022 H1018 0.929 . S
C1022 C1024 1.378 . S
C1022 C1026 1.350 . S
C1023 C1026 1.463 1_545 S
C1023 C1028 1.350 . S
C1023 N1031 1.427 . S
C1024 H1015 0.930 . S
C1024 C1022 1.378 . S
C1024 C1025 1.367 . S
C1025 C1024 1.367 . S
C1025 C1027 1.433 . S
C1026 C1022 1.350 . S
C1026 C1023 1.463 1_565 S
C1026 N1030 1.427 . S
C1027 H1017 0.929 . S
C1027 C1025 1.433 . S
C1027 N1030 1.384 . S
C1028 H1019 0.929 . S
C1028 C1020 1.378 . S
C1028 C1023 1.350 . S
C1029 H1016 0.929 . S
C1029 C1021 1.433 . S
C1029 N1031 1.384 . S
N1030 C1026 1.427 . S
N1030 C1027 1.384 . S
N1031 C1023 1.427 . S
N1031 C1029 1.384 . S
H1032 C1038 0.930 . S
H1033 C1042 0.930 . S
H1034 C1047 0.929 . S
H1035 C1045 0.929 . S
H1036 C1040 0.929 1_455 S
H1037 C1046 0.929 1_655 S
C1038 H1032 0.930 . S
C1038 C1039 1.367 . S
C1038 C1046 1.378 . S
C1039 C1038 1.367 . S
C1039 C1047 1.433 . S
C1040 H1036 0.929 1_655 S
C1040 C1042 1.378 . S
C1040 C1044 1.350 . S
C1041 C1044 1.463 1_455 S
C1041 C1046 1.350 . S
C1041 N1049 1.427 . S
C1042 H1033 0.930 . S
C1042 C1040 1.378 . S
C1042 C1043 1.367 . S
C1043 C1042 1.367 . S
C1043 C1045 1.433 . S
C1044 C1040 1.350 . S
C1044 C1041 1.463 1_655 S
C1044 N1048 1.427 . S
C1045 H1035 0.929 . S
C1045 C1043 1.433 . S
C1045 N1048 1.384 . S
C1046 H1037 0.929 1_455 S
C1046 C1038 1.378 . S
C1046 C1041 1.350 . S
C1047 H1034 0.929 . S
C1047 C1039 1.433 . S
C1047 N1049 1.384 . S
N1048 C1044 1.427 . S
N1048 C1045 1.384 . S
N1049 C1041 1.427 . S
N1049 C1047 1.384 . S
H1050 C1056 0.930 . S
H1051 C1060 0.930 . S
H1052 C1065 0.929 . S
H1053 C1063 0.929 . S
H1054 C1058 0.929 . S
H1055 C1064 0.929 . S
C1056 H1050 0.930 . S
C1056 C1057 1.367 . S
C1056 C1064 1.378 . S
C1057 C1056 1.367 . S
C1057 C1065 1.433 . S
C1058 H1054 0.929 . S
C1058 C1060 1.378 . S
C1058 C1062 1.350 . S
C1059 C1062 1.463 . S
C1059 C1064 1.350 . S
C1059 N1067 1.427 . S
C1060 H1051 0.930 . S
C1060 C1058 1.378 . S
C1060 C1061 1.367 . S
C1061 C1060 1.367 . S
C1061 C1063 1.433 . S
C1062 C1058 1.350 . S
C1062 C1059 1.463 . S
C1062 N1066 1.427 . S
C1063 H1053 0.929 . S
C1063 C1061 1.433 . S
C1063 N1066 1.384 . S
C1064 H1055 0.929 . S
C1064 C1056 1.378 . S
C1064 C1059 1.350 . S
C1065 H1052 0.929 . S
C1065 C1057 1.433 . S
C1065 N1067 1.384 . S
N1066 C1062 1.427 . S
N1066 C1063 1.384 . S
N1067 C1059 1.427 . S
N1067 C1065 1.384 . S
H1068 C1074 0.930 . S
H1069 C1078 0.930 . S
H1070 C1083 0.929 . S
H1071 C1081 0.929 . S
H1072 C1076 0.929 . S
H1073 C1082 0.929 . S
C1074 H1068 0.930 . S
C1074 C1075 1.367 . S
C1074 C1082 1.378 . S
C1075 C1074 1.367 . S
C1075 C1083 1.433 . S
C1076 H1072 0.929 . S
C1076 C1078 1.378 . S
C1076 C1080 1.350 . S
C1077 C1080 1.463 1_565 S
C1077 C1082 1.350 . S
C1077 N1085 1.427 . S
C1078 H1069 0.930 . S
C1078 C1076 1.378 . S
C1078 C1079 1.367 . S
C1079 C1078 1.367 . S
C1079 C1081 1.433 . S
C1080 C1076 1.350 . S
C1080 C1077 1.463 1_545 S
C1080 N1084 1.427 . S
C1081 H1071 0.929 . S
C1081 C1079 1.433 . S
C1081 N1084 1.384 . S
C1082 H1073 0.929 . S
C1082 C1074 1.378 . S
C1082 C1077 1.350 . S
C1083 H1070 0.929 . S
C1083 C1075 1.433 . S
C1083 N1085 1.384 . S
N1084 C1080 1.427 . S
N1084 C1081 1.384 . S
N1085 C1077 1.427 . S
N1085 C1083 1.384 . S
H1086 C1092 0.930 . S
H1087 C1096 0.930 . S
H1088 C1101 0.929 . S
H1089 C1099 0.929 . S
H1090 C1094 0.929 . S
H1091 C1100 0.929 . S
C1092 H1086 0.930 . S
C1092 C1093 1.367 . S
C1092 C1100 1.378 . S
C1093 C1092 1.367 . S
C1093 C1101 1.433 . S
C1094 H1090 0.929 . S
C1094 C1096 1.378 . S
C1094 C1098 1.350 . S
C1095 C1098 1.463 1_445 S
C1095 C1100 1.350 . S
C1095 N1103 1.427 . S
C1096 H1087 0.930 . S
C1096 C1094 1.378 . S
C1096 C1097 1.367 . S
C1097 C1096 1.367 . S
C1097 C1099 1.433 . S
C1098 C1094 1.350 . S
C1098 C1095 1.463 1_665 S
C1098 N1102 1.427 . S
C1099 H1089 0.929 . S
C1099 C1097 1.433 . S
C1099 N1102 1.384 . S
C1100 H1091 0.929 . S
C1100 C1092 1.378 . S
C1100 C1095 1.350 . S
C1101 H1088 0.929 . S
C1101 C1093 1.433 . S
C1101 N1103 1.384 . S
N1102 C1098 1.427 . S
N1102 C1099 1.384 . S
N1103 C1095 1.427 . S
N1103 C1101 1.384 . S
H1104 C1110 0.930 . S
H1105 C1114 0.930 . S
H1106 C1119 0.929 . S
H1107 C1117 0.929 . S
H1108 C1112 0.929 . S
H1109 C1118 0.929 . S
C1110 H1104 0.930 . S
C1110 C1111 1.367 . S
C1110 C1118 1.378 . S
C1111 C1110 1.367 . S
C1111 C1119 1.433 . S
C1112 H1108 0.929 . S
C1112 C1114 1.378 . S
C1112 C1116 1.350 . S
C1113 C1116 1.463 . S
C1113 C1118 1.350 . S
C1113 N1121 1.427 . S
C1114 H1105 0.930 . S
C1114 C1112 1.378 . S
C1114 C1115 1.367 . S
C1115 C1114 1.367 . S
C1115 C1117 1.433 . S
C1116 C1112 1.350 . S
C1116 C1113 1.463 . S
C1116 N1120 1.427 . S
C1117 H1107 0.929 . S
C1117 C1115 1.433 . S
C1117 N1120 1.384 . S
C1118 H1109 0.929 . S
C1118 C1110 1.378 . S
C1118 C1113 1.350 . S
C1119 H1106 0.929 . S
C1119 C1111 1.433 . S
C1119 N1121 1.384 . S
N1120 C1116 1.427 . S
N1120 C1117 1.384 . S
N1121 C1113 1.427 . S
N1121 C1119 1.384 . S
H1122 C1128 0.930 . S
H1123 C1132 0.930 . S
H1124 C1137 0.929 . S
H1125 C1135 0.929 . S
H1126 C1130 0.929 . S
H1127 C1136 0.929 . S
C1128 H1122 0.930 . S
C1128 C1129 1.367 . S
C1128 C1136 1.378 . S
C1129 C1128 1.367 . S
C1129 C1137 1.433 . S
C1130 H1126 0.929 . S
C1130 C1132 1.378 . S
C1130 C1134 1.350 . S
C1131 C1134 1.463 . S
C1131 C1136 1.350 . S
C1131 N1139 1.427 . S
C1132 H1123 0.930 . S
C1132 C1130 1.378 . S
C1132 C1133 1.367 . S
C1133 C1132 1.367 . S
C1133 C1135 1.433 . S
C1134 C1130 1.350 . S
C1134 C1131 1.463 . S
C1134 N1138 1.427 . S
C1135 H1125 0.929 . S
C1135 C1133 1.433 . S
C1135 N1138 1.384 . S
C1136 H1127 0.929 . S
C1136 C1128 1.378 . S
C1136 C1131 1.350 . S
C1137 H1124 0.929 . S
C1137 C1129 1.433 . S
C1137 N1139 1.384 . S
N1138 C1134 1.427 . S
N1138 C1135 1.384 . S
N1139 C1131 1.427 . S
N1139 C1137 1.384 . S
H1140 C1146 0.930 . S
H1141 C1150 0.930 . S
H1142 C1155 0.929 . S
H1143 C1153 0.929 . S
H1144 C1148 0.929 . S
H1145 C1154 0.929 . S
C1146 H1140 0.930 . S
C1146 C1147 1.367 . S
C1146 C1154 1.378 . S
C1147 C1146 1.367 . S
C1147 C1155 1.433 . S
C1148 H1144 0.929 . S
C1148 C1150 1.378 . S
C1148 C1152 1.350 . S
C1149 C1152 1.463 . S
C1149 C1154 1.350 . S
C1149 N1157 1.427 . S
C1150 H1141 0.930 . S
C1150 C1148 1.378 . S
C1150 C1151 1.367 . S
C1151 C1150 1.367 . S
C1151 C1153 1.433 . S
C1152 C1148 1.350 . S
C1152 C1149 1.463 . S
C1152 N1156 1.427 . S
C1153 H1143 0.929 . S
C1153 C1151 1.433 . S
C1153 N1156 1.384 . S
C1154 H1145 0.929 . S
C1154 C1146 1.378 . S
C1154 C1149 1.350 . S
C1155 H1142 0.929 . S
C1155 C1147 1.433 . S
C1155 N1157 1.384 . S
N1156 C1152 1.427 . S
N1156 C1153 1.384 . S
N1157 C1149 1.427 . S
N1157 C1155 1.384 . S
H1158 C1164 0.930 . S
H1159 C1168 0.930 . S
H1160 C1173 0.929 . S
H1161 C1171 0.929 . S
H1162 C1166 0.929 . S
H1163 C1172 0.929 . S
C1164 H1158 0.930 . S
C1164 C1165 1.367 . S
C1164 C1172 1.378 . S
C1165 C1164 1.367 . S
C1165 C1173 1.433 . S
C1166 H1162 0.929 . S
C1166 C1168 1.378 . S
C1166 C1170 1.350 . S
C1167 C1170 1.463 . S
C1167 C1172 1.350 . S
C1167 N1175 1.427 . S
C1168 H1159 0.930 . S
C1168 C1166 1.378 . S
C1168 C1169 1.367 . S
C1169 C1168 1.367 . S
C1169 C1171 1.433 . S
C1170 C1166 1.350 . S
C1170 C1167 1.463 . S
C1170 N1174 1.427 . S
C1171 H1161 0.929 . S
C1171 C1169 1.433 . S
C1171 N1174 1.384 . S
C1172 H1163 0.929 . S
C1172 C1164 1.378 . S
C1172 C1167 1.350 . S
C1173 H1160 0.929 . S
C1173 C1165 1.433 . S
C1173 N1175 1.384 . S
N1174 C1170 1.427 . S
N1174 C1171 1.384 . S
N1175 C1167 1.427 . S
N1175 C1173 1.384 . S
H1176 C1182 0.930 . S
H1177 C1186 0.930 . S
H1178 C1191 0.929 . S
H1179 C1189 0.929 . S
H1180 C1184 0.929 . S
H1181 C1190 0.929 . S
C1182 H1176 0.930 . S
C1182 C1183 1.367 . S
C1182 C1190 1.378 . S
C1183 C1182 1.367 . S
C1183 C1191 1.433 . S
C1184 H1180 0.929 . S
C1184 C1186 1.378 . S
C1184 C1188 1.350 . S
C1185 C1188 1.463 . S
C1185 C1190 1.350 . S
C1185 N1193 1.427 . S
C1186 H1177 0.930 . S
C1186 C1184 1.378 . S
C1186 C1187 1.367 . S
C1187 C1186 1.367 . S
C1187 C1189 1.433 . S
C1188 C1184 1.350 . S
C1188 C1185 1.463 . S
C1188 N1192 1.427 . S
C1189 H1179 0.929 . S
C1189 C1187 1.433 . S
C1189 N1192 1.384 . S
C1190 H1181 0.929 . S
C1190 C1182 1.378 . S
C1190 C1185 1.350 . S
C1191 H1178 0.929 . S
C1191 C1183 1.433 . S
C1191 N1193 1.384 . S
N1192 C1188 1.427 . S
N1192 C1189 1.384 . S
N1193 C1185 1.427 . S
N1193 C1191 1.384 . S
H1194 C1200 0.930 . S
H1195 C1204 0.930 . S
H1196 C1209 0.929 . S
H1197 C1207 0.929 . S
H1198 C1202 0.929 . S
H1199 C1208 0.929 . S
C1200 H1194 0.930 . S
C1200 C1201 1.367 . S
C1200 C1208 1.378 . S
C1201 C1200 1.367 . S
C1201 C1209 1.433 . S
C1202 H1198 0.929 . S
C1202 C1204 1.378 . S
C1202 C1206 1.350 . S
C1203 C1206 1.463 . S
C1203 C1208 1.350 . S
C1203 N1211 1.427 . S
C1204 H1195 0.930 . S
C1204 C1202 1.378 . S
C1204 C1205 1.367 . S
C1205 C1204 1.367 . S
C1205 C1207 1.433 . S
C1206 C1202 1.350 . S
C1206 C1203 1.463 . S
C1206 N1210 1.427 . S
C1207 H1197 0.929 . S
C1207 C1205 1.433 . S
C1207 N1210 1.384 . S
C1208 H1199 0.929 . S
C1208 C1200 1.378 . S
C1208 C1203 1.350 . S
C1209 H1196 0.929 . S
C1209 C1201 1.433 . S
C1209 N1211 1.384 . S
N1210 C1206 1.427 . S
N1210 C1207 1.384 . S
N1211 C1203 1.427 . S
N1211 C1209 1.384 . S
H1212 C1218 0.930 . S
H1213 C1222 0.930 . S
H1214 C1227 0.929 . S
H1215 C1225 0.929 . S
H1216 C1220 0.929 . S
H1217 C1226 0.929 . S
C1218 H1212 0.930 . S
C1218 C1219 1.367 . S
C1218 C1226 1.378 . S
C1219 C1218 1.367 . S
C1219 C1227 1.433 . S
C1220 H1216 0.929 . S
C1220 C1222 1.378 . S
C1220 C1224 1.350 . S
C1221 C1224 1.463 . S
C1221 C1226 1.350 . S
C1221 N1229 1.427 . S
C1222 H1213 0.930 . S
C1222 C1220 1.378 . S
C1222 C1223 1.367 . S
C1223 C1222 1.367 . S
C1223 C1225 1.433 . S
C1224 C1220 1.350 . S
C1224 C1221 1.463 . S
C1224 N1228 1.427 . S
C1225 H1215 0.929 . S
C1225 C1223 1.433 . S
C1225 N1228 1.384 . S
C1226 H1217 0.929 . S
C1226 C1218 1.378 . S
C1226 C1221 1.350 . S
C1227 H1214 0.929 . S
C1227 C1219 1.433 . S
C1227 N1229 1.384 . S
N1228 C1224 1.427 . S
N1228 C1225 1.384 . S
N1229 C1221 1.427 . S
N1229 C1227 1.384 . S
H1230 C1236 0.930 . S
H1231 C1240 0.930 . S
H1232 C1245 0.929 . S
H1233 C1243 0.929 . S
H1234 C1238 0.929 . S
H1235 C1244 0.929 . S
C1236 H1230 0.930 . S
C1236 C1237 1.367 . S
C1236 C1244 1.378 . S
C1237 C1236 1.367 . S
C1237 C1245 1.433 . S
C1238 H1234 0.929 . S
C1238 C1240 1.378 . S
C1238 C1242 1.350 . S
C1239 C1242 1.463 . S
C1239 C1244 1.350 . S
C1239 N1247 1.427 . S
C1240 H1231 0.930 . S
C1240 C1238 1.378 . S
C1240 C1241 1.367 . S
C1241 C1240 1.367 . S
C1241 C1243 1.433 . S
C1242 C1238 1.350 . S
C1242 C1239 1.463 . S
C1242 N1246 1.427 . S
C1243 H1233 0.929 . S
C1243 C1241 1.433 . S
C1243 N1246 1.384 . S
C1244 H1235 0.929 . S
C1244 C1236 1.378 . S
C1244 C1239 1.350 . S
C1245 H1232 0.929 . S
C1245 C1237 1.433 . S
C1245 N1247 1.384 . S
N1246 C1242 1.427 . S
N1246 C1243 1.384 . S
N1247 C1239 1.427 . S
N1247 C1245 1.384 . S
C535 N14 0.556 . S
C539 N443 0.557 . S
C553 N476 0.562 . S
C557 N47 0.562 . S
C571 N509 0.523 . S
C575 N80 0.522 . S
C589 N410 0.559 . S
C593 N113 0.559 . S
C607 N377 0.529 . S
C611 N146 0.529 . S
C625 N278 0.562 . S
C629 N179 0.562 . S
C643 N212 0.517 . S
C647 N311 0.516 . S
C661 N344 0.529 . S
C665 N245 0.529 . S
C679 C305 2.136 . S
C683 N5 2.217 . S
C697 N38 2.217 . S
C701 C338 2.136 . S
C715 N71 2.223 . S
C719 C371 2.138 . S
C733 N104 2.216 1_556 S
C737 C272 2.138 . S
C751 N137 2.223 1_554 S
C755 C503 2.138 . S
C769 C404 2.129 . S
C773 N170 2.223 . S
C787 C437 2.131 . S
C791 N203 2.225 . S
C805 C470 2.131 . S
C809 N236 2.220 . S
C823 N269 2.220 . S
C827 C41 2.130 . S
C841 N302 2.222 1_556 S
C845 C74 2.130 . S
C859 N335 2.225 . S
C863 C107 2.131 . S
C877 C8 2.130 . S
C881 N368 2.221 . S
C895 N401 2.219 . S
C899 C239 2.133 . S
C913 C140 2.130 . S
C917 N434 2.224 . S
C931 N467 2.223 1_554 S
C935 C173 2.138 . S
C949 N500 2.224 . S
C953 C206 2.135 . S
C967 C17 1.446 . S
C971 C347 1.449 . S
C985 C380 1.443 . S
C989 C50 1.444 . S
C1003 C83 1.446 . S
C1007 C281 1.449 . S
C1021 C314 1.445 . S
C1025 C116 1.442 . S
C1039 C149 1.446 . S
C1043 C479 1.449 . S
C1057 C512 1.442 . S
C1061 C182 1.445 . S
C1075 C413 1.444 . S
C1079 C215 1.449 . S
C1093 C446 1.443 . S
C1097 C248 1.448 . S
C1111 C226 0.498 . S
C1115 C28 0.518 . S
C1129 C61 0.505 . S
C1133 C259 0.494 . S
C1147 C160 0.538 . S
C1151 C94 0.517 . S
C1165 C127 0.535 . S
C1169 C193 0.546 . S
C1183 C292 0.545 . S
C1187 C490 0.530 . S
C1201 C325 0.536 . S
C1205 C523 0.546 . S
C1219 C358 0.500 . S
C1223 C424 0.521 . S
C1237 C457 0.533 . S
C1241 C391 0.546 . S
