# Generated by pormake.
# Topology pcb, (4)-cn, num edge types: 1
# Building blocks:
#     Node 0, Type 0, BuildingBlock: TATPOV_clean_sbu_0, # of connection points: 4
#     Node 1, Type 0, BuildingBlock: TATPOV_clean_sbu_0, # of connection points: 4
#     Node 2, Type 0, BuildingBlock: TATPOV_clean_sbu_0, # of connection points: 4
#     Node 3, Type 0, BuildingBlock: TATPOV_clean_sbu_0, # of connection points: 4
#     Node 4, Type 0, BuildingBlock: TATPOV_clean_sbu_0, # of connection points: 4
#     Node 5, Type 0, BuildingBlock: TATPOV_clean_sbu_0, # of connection points: 4
#     Node 6, Type 0, BuildingBlock: TATPOV_clean_sbu_0, # of connection points: 4
#     Node 7, Type 0, BuildingBlock: TATPOV_clean_sbu_0, # of connection points: 4
#     Node 8, Type 0, BuildingBlock: TATPOV_clean_sbu_0, # of connection points: 4
#     Node 9, Type 0, BuildingBlock: TATPOV_clean_sbu_0, # of connection points: 4
#     Node 10, Type 0, BuildingBlock: TATPOV_clean_sbu_0, # of connection points: 4
#     Node 11, Type 0, BuildingBlock: TATPOV_clean_sbu_0, # of connection points: 4
#     Node 12, Type 0, BuildingBlock: TATPOV_clean_sbu_0, # of connection points: 4
#     Node 13, Type 0, BuildingBlock: TATPOV_clean_sbu_0, # of connection points: 4
#     Node 14, Type 0, BuildingBlock: TATPOV_clean_sbu_0, # of connection points: 4
#     Node 15, Type 0, BuildingBlock: TATPOV_clean_sbu_0, # of connection points: 4
#     Edge 16, Type (0, 0), BuildingBlock: OJICUG_clean_linker_0, # of connection points: 2
#     Edge 17, Type (0, 0), BuildingBlock: OJICUG_clean_linker_0, # of connection points: 2
#     Edge 18, Type (0, 0), BuildingBlock: OJICUG_clean_linker_0, # of connection points: 2
#     Edge 19, Type (0, 0), BuildingBlock: OJICUG_clean_linker_0, # of connection points: 2
#     Edge 20, Type (0, 0), BuildingBlock: OJICUG_clean_linker_0, # of connection points: 2
#     Edge 21, Type (0, 0), BuildingBlock: OJICUG_clean_linker_0, # of connection points: 2
#     Edge 22, Type (0, 0), BuildingBlock: OJICUG_clean_linker_0, # of connection points: 2
#     Edge 23, Type (0, 0), BuildingBlock: OJICUG_clean_linker_0, # of connection points: 2
#     Edge 24, Type (0, 0), BuildingBlock: OJICUG_clean_linker_0, # of connection points: 2
#     Edge 25, Type (0, 0), BuildingBlock: OJICUG_clean_linker_0, # of connection points: 2
#     Edge 26, Type (0, 0), BuildingBlock: OJICUG_clean_linker_0, # of connection points: 2
#     Edge 27, Type (0, 0), BuildingBlock: OJICUG_clean_linker_0, # of connection points: 2
#     Edge 28, Type (0, 0), BuildingBlock: OJICUG_clean_linker_0, # of connection points: 2
#     Edge 29, Type (0, 0), BuildingBlock: OJICUG_clean_linker_0, # of connection points: 2
#     Edge 30, Type (0, 0), BuildingBlock: OJICUG_clean_linker_0, # of connection points: 2
#     Edge 31, Type (0, 0), BuildingBlock: OJICUG_clean_linker_0, # of connection points: 2
#     Edge 32, Type (0, 0), BuildingBlock: OJICUG_clean_linker_0, # of connection points: 2
#     Edge 33, Type (0, 0), BuildingBlock: OJICUG_clean_linker_0, # of connection points: 2
#     Edge 34, Type (0, 0), BuildingBlock: OJICUG_clean_linker_0, # of connection points: 2
#     Edge 35, Type (0, 0), BuildingBlock: OJICUG_clean_linker_0, # of connection points: 2
#     Edge 36, Type (0, 0), BuildingBlock: OJICUG_clean_linker_0, # of connection points: 2
#     Edge 37, Type (0, 0), BuildingBlock: OJICUG_clean_linker_0, # of connection points: 2
#     Edge 38, Type (0, 0), BuildingBlock: OJICUG_clean_linker_0, # of connection points: 2
#     Edge 39, Type (0, 0), BuildingBlock: OJICUG_clean_linker_0, # of connection points: 2
#     Edge 40, Type (0, 0), BuildingBlock: OJICUG_clean_linker_0, # of connection points: 2
#     Edge 41, Type (0, 0), BuildingBlock: OJICUG_clean_linker_0, # of connection points: 2
#     Edge 42, Type (0, 0), BuildingBlock: OJICUG_clean_linker_0, # of connection points: 2
#     Edge 43, Type (0, 0), BuildingBlock: OJICUG_clean_linker_0, # of connection points: 2
#     Edge 44, Type (0, 0), BuildingBlock: OJICUG_clean_linker_0, # of connection points: 2
#     Edge 45, Type (0, 0), BuildingBlock: OJICUG_clean_linker_0, # of connection points: 2
#     Edge 46, Type (0, 0), BuildingBlock: OJICUG_clean_linker_0, # of connection points: 2
#     Edge 47, Type (0, 0), BuildingBlock: OJICUG_clean_linker_0, # of connection points: 2
# Relax obj value: 0.182
# Max RMSD: 0.083
# Mean RMSD: 0.083
data_MOF--net-pcb--node1-TATPOV_clean_sbu_0--edge1-OJICUG_clean_linker_0
_symmetry_space_group_name_H-M    P1
_symmetry_Int_Tables_number       1
_symmetry_cell_setting            triclinic
loop_
_symmetry_equiv_pos_as_xyz
'x, y, z'
_cell_length_a     34.579904
_cell_length_b     33.700721
_cell_length_c     33.755882
_cell_angle_alpha  90.416513
_cell_angle_beta   90.648937
_cell_angle_gamma 89.880763
loop_
_atom_site_label
_atom_site_type_symbol
_atom_site_fract_x
_atom_site_fract_y
_atom_site_fract_z
_atom_type_partial_charge
Zn0 Zn 0.15054 0.09925 0.06784 0.0
Zn1 Zn 0.16585 0.11849 0.13702 0.0
O2 O 0.10707 0.12057 0.14187 0.0
O3 O 0.09568 0.11939 0.07753 0.0
O4 O 0.18874 0.13979 0.1883 0.0
O5 O 0.16097 0.04208 0.07462 0.0
O6 O 0.18209 0.05834 0.13414 0.0
C7 C 0.08358 0.12315 0.11268 0.0
C8 C 0.19423 0.16333 0.06162 0.0
O9 O 0.18385 0.16267 0.09775 0.0
O10 O 0.18922 0.13273 0.04046 0.0
C11 C 0.17715 0.17341 0.20089 0.0
O12 O 0.1483 0.19094 0.1823 0.0
C13 C 0.17567 0.03195 0.10745 0.0
Zn14 Zn 0.85889 0.05423 0.07854 0.0
Zn15 Zn 0.83611 0.12291 0.10111 0.0
O16 O 0.8945 0.13012 0.10817 0.0
O17 O 0.91197 0.06751 0.10205 0.0
O18 O 0.8124 0.17194 0.12459 0.0
O19 O 0.84717 0.06698 0.02197 0.0
O20 O 0.82088 0.12329 0.04112 0.0
C21 C 0.92039 0.1033 0.10997 0.0
C22 C 0.80714 0.04426 0.13841 0.0
O23 O 0.81349 0.08145 0.13987 0.0
O24 O 0.82041 0.02395 0.11005 0.0
C25 C 0.82367 0.18276 0.159 0.0
O26 O 0.85292 0.16421 0.17583 0.0
C27 C 0.82958 0.09882 0.01352 0.0
Zn28 Zn 0.89214 0.89635 0.20603 0.0
Zn29 Zn 0.84716 0.8392 0.20514 0.0
O30 O 0.90239 0.81703 0.2196 0.0
O31 O 0.94049 0.86895 0.22269 0.0
O32 O 0.80994 0.79935 0.22641 0.0
O33 O 0.86598 0.93341 0.24396 0.0
O34 O 0.82183 0.89273 0.22173 0.0
C35 C 0.93592 0.83195 0.22553 0.0
C36 C 0.85438 0.87159 0.12789 0.0
O37 O 0.84204 0.84099 0.1456 0.0
O38 O 0.87421 0.89738 0.14695 0.0
C39 C 0.78702 0.77712 0.20672 0.0
O40 O 0.78736 0.77775 0.16783 0.0
C41 C 0.83076 0.92641 0.23663 0.0
Zn42 Zn 0.12287 0.78705 0.11637 0.0
Zn43 Zn 0.16797 0.78845 0.17267 0.0
O44 O 0.11218 0.77812 0.19525 0.0
O45 O 0.07391 0.7747 0.14305 0.0
O46 O 0.20559 0.76656 0.21282 0.0
O47 O 0.14639 0.74519 0.08178 0.0
O48 O 0.19221 0.76957 0.11925 0.0
C49 C 0.07839 0.77352 0.18015 0.0
C50 C 0.162 0.86491 0.13828 0.0
O51 O 0.17409 0.84778 0.16953 0.0
O52 O 0.14222 0.84551 0.11264 0.0
C53 C 0.2344 0.78502 0.22763 0.0
O54 O 0.2398 0.82251 0.21893 0.0
C55 C 0.18185 0.75247 0.08701 0.0
Zn56 Zn 0.13039 0.89193 0.95135 0.0
Zn57 Zn 0.16152 0.87914 0.88481 0.0
O58 O 0.10405 0.86956 0.87298 0.0
O59 O 0.08062 0.86552 0.93304 0.0
O60 O 0.18796 0.85994 0.83535 0.0
O61 O 0.13586 0.95009 0.94369 0.0
O62 O 0.16953 0.94036 0.88951 0.0
C63 C 0.07592 0.86277 0.89587 0.0
C64 C 0.19009 0.84002 0.96328 0.0
O65 O 0.18767 0.84067 0.9256 0.0
O66 O 0.16963 0.86338 0.9836 0.0
C67 C 0.17699 0.82604 0.82276 0.0
O68 O 0.1481 0.8084 0.84038 0.0
C69 C 0.15455 0.96395 0.91494 0.0
Zn70 Zn 0.08195 0.2045 0.91397 0.0
Zn71 Zn 0.1301 0.20944 0.85793 0.0
O72 O 0.07615 0.22182 0.83331 0.0
O73 O 0.03493 0.21953 0.88216 0.0
O74 O 0.16594 0.22952 0.81679 0.0
O75 O 0.10663 0.24347 0.95161 0.0
O76 O 0.15342 0.23321 0.90978 0.0
C77 C 0.04162 0.22478 0.84585 0.0
C78 C 0.12482 0.13025 0.89088 0.0
O79 O 0.1381 0.15012 0.86221 0.0
O80 O 0.10207 0.14665 0.91547 0.0
C81 C 0.18429 0.209 0.7915 0.0
O82 O 0.18083 0.17019 0.79113 0.0
C83 C 0.14217 0.2456 0.94355 0.0
Zn84 Zn 0.86453 0.11915 0.76584 0.0
Zn85 Zn 0.81723 0.16852 0.77341 0.0
O86 O 0.87323 0.19278 0.77211 0.0
O87 O 0.91287 0.14682 0.751 0.0
O88 O 0.78207 0.20771 0.74578 0.0
O89 O 0.84154 0.07795 0.72968 0.0
O90 O 0.79607 0.11154 0.75906 0.0
C91 C 0.90729 0.18209 0.76236 0.0
C92 C 0.82732 0.13762 0.84743 0.0
O93 O 0.8089 0.16641 0.83179 0.0
O94 O 0.84976 0.11626 0.82627 0.0
C95 C 0.77927 0.24409 0.75558 0.0
O96 O 0.79861 0.25728 0.78669 0.0
C97 C 0.80727 0.07956 0.74213 0.0
Zn98 Zn 0.86039 0.9406 0.89254 0.0
Zn99 Zn 0.83148 0.87352 0.87489 0.0
O100 O 0.88961 0.86357 0.8688 0.0
O101 O 0.91183 0.92462 0.86907 0.0
O102 O 0.80674 0.82312 0.85373 0.0
O103 O 0.85197 0.9311 0.94986 0.0
O104 O 0.8204 0.8761 0.9356 0.0
C105 C 0.9175 0.88771 0.86494 0.0
C106 C 0.80447 0.95331 0.83638 0.0
O107 O 0.80737 0.91554 0.83577 0.0
O108 O 0.82265 0.97314 0.86236 0.0
C109 C 0.82117 0.80775 0.82264 0.0
O110 O 0.8522 0.82385 0.80753 0.0
C111 C 0.83331 0.90108 0.96117 0.0
Zn112 Zn 0.6177 0.70349 0.62478 0.0
Zn113 Zn 0.66114 0.68788 0.67913 0.0
O114 O 0.60826 0.7113 0.69909 0.0
O115 O 0.57863 0.73908 0.6489 0.0
O116 O 0.69788 0.70207 0.72387 0.0
O117 O 0.61085 0.64195 0.62735 0.0
O118 O 0.65215 0.62913 0.67591 0.0
C119 C 0.57988 0.73147 0.68539 0.0
C120 C 0.6854 0.71313 0.59238 0.0
O121 O 0.69155 0.69827 0.62658 0.0
O122 O 0.65193 0.72554 0.5838 0.0
C123 C 0.73444 0.70249 0.7205 0.0
O124 O 0.74991 0.68951 0.68747 0.0
C125 C 0.62795 0.61703 0.64982 0.0
Zn126 Zn 0.38617 0.66752 0.64711 0.0
Zn127 Zn 0.34156 0.69851 0.68827 0.0
O128 O 0.39644 0.71953 0.70531 0.0
O129 O 0.43047 0.66852 0.68556 0.0
O130 O 0.30597 0.73226 0.72084 0.0
O131 O 0.38128 0.70806 0.60355 0.0
O132 O 0.32427 0.70965 0.63047 0.0
C133 C 0.42827 0.70037 0.70528 0.0
C134 C 0.33247 0.61245 0.67407 0.0
O135 O 0.32907 0.63916 0.70084 0.0
O136 O 0.35245 0.61949 0.64381 0.0
C137 C 0.26942 0.72913 0.71887 0.0
O138 O 0.2539 0.70175 0.69582 0.0
C139 C 0.3455 0.71533 0.60045 0.0
Zn140 Zn 0.38522 0.39615 0.64051 0.0
Zn141 Zn 0.33265 0.35871 0.66442 0.0
O142 O 0.38268 0.33366 0.68783 0.0
O143 O 0.41878 0.3865 0.68872 0.0
O144 O 0.29106 0.32838 0.69094 0.0
O145 O 0.3568 0.44723 0.63576 0.0
O146 O 0.31964 0.4181 0.67897 0.0
C147 C 0.41401 0.3507 0.69834 0.0
C148 C 0.35758 0.34117 0.58283 0.0
O149 O 0.32805 0.34275 0.60505 0.0
O150 O 0.38836 0.3586 0.5937 0.0
C151 C 0.29003 0.29073 0.68963 0.0
O152 O 0.31619 0.27133 0.6692 0.0
C153 C 0.33022 0.44935 0.661 0.0
Zn154 Zn 0.55639 0.38703 0.58063 0.0
Zn155 Zn 0.6213 0.36433 0.60567 0.0
O156 O 0.58072 0.3372 0.64185 0.0
O157 O 0.5258 0.34795 0.61064 0.0
O158 O 0.66959 0.3393 0.62877 0.0
O159 O 0.56677 0.37595 0.52466 0.0
O160 O 0.62234 0.35066 0.54417 0.0
C161 C 0.54446 0.33153 0.63839 0.0
C162 C 0.59903 0.45122 0.61548 0.0
O163 O 0.62545 0.42478 0.6179 0.0
O164 O 0.5659 0.44195 0.60204 0.0
C165 C 0.67831 0.34698 0.66474 0.0
O166 O 0.65819 0.37394 0.6839 0.0
C167 C 0.59813 0.35872 0.51636 0.0
Zn168 Zn 0.6082 0.37379 0.2652 0.0
Zn169 Zn 0.65481 0.32224 0.27427 0.0
O170 O 0.60063 0.30057 0.25535 0.0
O171 O 0.56682 0.34969 0.23111 0.0
O172 O 0.69246 0.28404 0.25035 0.0
O173 O 0.63829 0.42002 0.2458 0.0
O174 O 0.68098 0.37765 0.26816 0.0
C175 C 0.56985 0.31311 0.2383 0.0
C176 C 0.62667 0.34074 0.34862 0.0
O177 O 0.65187 0.31786 0.33335 0.0
O178 O 0.60688 0.36391 0.32648 0.0
C179 C 0.7289 0.28545 0.25519 0.0
O180 O 0.74399 0.31127 0.28025 0.0
C181 C 0.67258 0.41261 0.25663 0.0
Zn182 Zn 0.68095 0.56802 0.4203 0.0
Zn183 Zn 0.68157 0.62658 0.36942 0.0
O184 O 0.62291 0.62376 0.37402 0.0
O185 O 0.62176 0.57498 0.41714 0.0
O186 O 0.69404 0.67071 0.33224 0.0
O187 O 0.71132 0.59762 0.46224 0.0
O188 O 0.70624 0.64784 0.42153 0.0
C189 C 0.60393 0.60011 0.39572 0.0
C190 C 0.71128 0.54186 0.34808 0.0
O191 O 0.70225 0.57744 0.33948 0.0
O192 O 0.70723 0.52977 0.38317 0.0
C193 C 0.69423 0.66731 0.29472 0.0
O194 O 0.68195 0.63424 0.27807 0.0
C195 C 0.71667 0.63397 0.45503 0.0
Zn196 Zn 0.36034 0.57718 0.43123 0.0
Zn197 Zn 0.35729 0.62572 0.37222 0.0
O198 O 0.41629 0.62382 0.37481 0.0
O199 O 0.41923 0.58194 0.42463 0.0
O200 O 0.34031 0.66121 0.32776 0.0
O201 O 0.33144 0.53328 0.40446 0.0
O202 O 0.33595 0.57129 0.3522 0.0
C203 C 0.43618 0.60316 0.39916 0.0
C204 C 0.32665 0.64742 0.45623 0.0
O205 O 0.33591 0.65635 0.421 0.0
O206 O 0.33226 0.61262 0.46868 0.0
C207 C 0.33907 0.69885 0.33026 0.0
O208 O 0.35414 0.71666 0.36153 0.0
C209 C 0.32634 0.53844 0.36776 0.0
Zn210 Zn 0.40554 0.33616 0.35433 0.0
Zn211 Zn 0.34926 0.29689 0.33216 0.0
O212 O 0.39742 0.28017 0.29726 0.0
O213 O 0.44699 0.30472 0.3303 0.0
O214 O 0.30799 0.26026 0.3096 0.0
O215 O 0.39596 0.32841 0.41119 0.0
O216 O 0.34921 0.28742 0.39372 0.0
C217 C 0.43395 0.28354 0.30233 0.0
C218 C 0.34929 0.38567 0.31908 0.0
O219 O 0.32953 0.35393 0.32171 0.0
O220 O 0.38506 0.38511 0.32737 0.0
C221 C 0.27242 0.26919 0.30553 0.0
O222 O 0.26021 0.30392 0.31818 0.0
C223 C 0.3697 0.30441 0.42062 0.0
C224 C 0.25882 0.20483 0.27008 0.0
C225 C 0.24612 0.24244 0.28287 0.0
H226 H 0.24684 0.15323 0.23465 0.0
C227 C 0.20894 0.25528 0.27151 0.0
H228 H 0.2872 0.19389 0.27849 0.0
C229 C 0.18586 0.23201 0.24624 0.0
C230 C 0.19929 0.19525 0.23196 0.0
H231 H 0.19814 0.28398 0.28095 0.0
H232 H 0.15793 0.24346 0.23695 0.0
C233 C 0.23562 0.18143 0.24502 0.0
C234 C 0.73908 0.24362 0.19492 0.0
C235 C 0.7539 0.26024 0.23025 0.0
H236 H 0.74977 0.20699 0.14426 0.0
C237 C 0.79263 0.25297 0.2409 0.0
H238 H 0.70945 0.24906 0.18566 0.0
C239 C 0.81572 0.22847 0.21725 0.0
C240 C 0.80067 0.2115 0.18216 0.0
H241 H 0.80485 0.26554 0.26787 0.0
H242 H 0.84522 0.22253 0.22662 0.0
C243 C 0.7623 0.21981 0.17097 0.0
C244 C 0.74098 0.71958 0.20848 0.0
C245 C 0.76044 0.75073 0.22809 0.0
H246 H 0.70449 0.66864 0.21418 0.0
C247 C 0.75512 0.75607 0.26898 0.0
H248 H 0.74436 0.71487 0.17693 0.0
C249 C 0.73207 0.73002 0.29013 0.0
C250 C 0.71403 0.69773 0.271 0.0
H251 H 0.76927 0.7801 0.28491 0.0
H252 H 0.72947 0.73457 0.32179 0.0
C253 C 0.71808 0.69319 0.2298 0.0
C254 C 0.28959 0.70103 0.27588 0.0
C255 C 0.31497 0.72136 0.3017 0.0
H256 H 0.24401 0.70515 0.23287 0.0
C257 C 0.31459 0.76309 0.30205 0.0
H258 H 0.28897 0.6689 0.27492 0.0
C259 C 0.28884 0.78399 0.27754 0.0
C260 C 0.26259 0.76349 0.25279 0.0
H261 H 0.33377 0.77959 0.32165 0.0
H262 H 0.28888 0.81612 0.27865 0.0
C263 C 0.26353 0.72183 0.25197 0.0
C264 C 0.2604 0.79026 0.76036 0.0
C265 C 0.24483 0.75571 0.74289 0.0
H266 H 0.25087 0.8402 0.79867 0.0
C267 C 0.20588 0.74638 0.74938 0.0
H268 H 0.29025 0.79845 0.75559 0.0
C269 C 0.18344 0.77014 0.77428 0.0
C270 C 0.19933 0.80403 0.79269 0.0
H271 H 0.19302 0.72007 0.73621 0.0
H272 H 0.15383 0.7615 0.77974 0.0
C273 C 0.23778 0.81436 0.78479 0.0
C274 C 0.20998 0.27088 0.76179 0.0
C275 C 0.20998 0.22924 0.7635 0.0
H276 H 0.23486 0.32277 0.73696 0.0
C277 C 0.23525 0.20769 0.73911 0.0
H278 H 0.19066 0.28841 0.77995 0.0
C279 C 0.26084 0.22755 0.71433 0.0
C280 C 0.26141 0.26925 0.71345 0.0
H281 H 0.23582 0.17556 0.73973 0.0
H282 H 0.28057 0.21026 0.69641 0.0
C283 C 0.23532 0.29063 0.73702 0.0
C284 C 0.74425 0.30875 0.74653 0.0
C285 C 0.75496 0.27133 0.73161 0.0
H286 H 0.71165 0.36204 0.73706 0.0
C287 C 0.74215 0.26007 0.69347 0.0
H288 H 0.75375 0.31836 0.77574 0.0
C289 C 0.71858 0.28535 0.67104 0.0
C290 C 0.70682 0.32223 0.68649 0.0
H291 H 0.75018 0.23157 0.68095 0.0
H292 H 0.70864 0.27545 0.64208 0.0
C293 C 0.72019 0.3338 0.72433 0.0
C294 C 0.76259 0.76551 0.80964 0.0
C295 C 0.80081 0.77578 0.80052 0.0
H296 H 0.71159 0.73398 0.79161 0.0
C297 C 0.81836 0.75779 0.76757 0.0
H298 H 0.74829 0.77872 0.83491 0.0
C299 C 0.79744 0.73202 0.74286 0.0
C300 C 0.7584 0.72386 0.7504 0.0
H301 H 0.84792 0.76474 0.75994 0.0
H302 H 0.81141 0.72001 0.71682 0.0
C303 C 0.74155 0.73989 0.78476 0.0
C304 C 0.15645 0.25329 0.01567 0.0
C305 C 0.17019 0.24603 0.97719 0.0
H306 H 0.15532 0.2322 0.07522 0.0
C307 C 0.20474 0.22428 0.9731 0.0
H308 H 0.13065 0.271 0.02009 0.0
C309 C 0.21847 0.20138 0.00465 0.0
C310 C 0.1985 0.20128 0.04063 0.0
H311 H 0.21709 0.21915 0.94416 0.0
H312 H 0.24063 0.17936 -0.00107 0.0
C313 C 0.17075 0.231 0.04747 0.0
C314 C 0.83152 0.08896 0.90221 0.0
C315 C 0.82293 0.12766 0.88976 0.0
H316 H 0.83923 0.04941 0.95056 0.0
C317 C 0.81209 0.15619 0.91819 0.0
H318 H 0.83918 0.06605 0.88099 0.0
C319 C 0.8123 0.14663 0.95866 0.0
C320 C 0.82297 0.10832 0.97112 0.0
H321 H 0.80511 0.18621 0.90934 0.0
H322 H 0.80564 0.16958 0.98016 0.0
C323 C 0.83137 0.07938 0.94224 0.0
C324 C 0.8413 0.92473 0.03069 0.0
C325 C 0.83154 0.89373 0.00435 0.0
H326 H 0.85633 0.94191 0.08977 0.0
C327 C 0.82599 0.85544 0.01959 0.0
H328 H 0.8454 0.95471 0.02013 0.0
C329 C 0.83234 0.84804 0.06007 0.0
C330 C 0.84462 0.87877 0.08571 0.0
H331 H 0.81865 0.83091 2e-05 0.0
H332 H 0.82909 0.81809 0.07096 0.0
C333 C 0.84792 0.91733 0.0707 0.0
C334 C 0.23029 0.7918 0.05116 0.0
C335 C 0.20513 0.759 0.05104 0.0
H336 H 0.24487 0.84539 0.02122 0.0
C337 C 0.1906 0.74519 0.01433 0.0
H338 H 0.24313 0.80264 0.07858 0.0
C339 C 0.19257 0.76945 0.98094 0.0
C340 C 0.20913 0.8073 0.98438 0.0
H341 H 0.17204 0.71933 0.01297 0.0
H342 H 0.17547 0.76156 0.95496 0.0
C343 C 0.23144 0.81648 0.01814 0.0
C344 C 0.02445 0.09599 0.14325 0.0
C345 C 0.04165 0.12443 0.11898 0.0
H346 H 0.97189 0.06642 0.15871 0.0
C347 C 0.01814 0.14923 0.09568 0.0
H348 H 0.04215 0.07618 0.16098 0.0
C349 C 0.97798 0.14449 0.09537 0.0
C350 C 0.96108 0.11389 0.11715 0.0
H351 H 0.03096 0.17108 0.07648 0.0
H352 H 0.96048 0.16279 0.07589 0.0
C353 C 0.98444 0.09027 0.14179 0.0
C354 C 0.7787 0.95653 0.19581 0.0
C355 C 0.80559 0.96084 0.22721 0.0
H356 H 0.75854 0.98095 0.14096 0.0
C357 C 0.81871 0.99927 0.23683 0.0
H358 H 0.76685 0.92769 0.1882 0.0
C359 C 0.81294 0.03028 0.21003 0.0
C360 C 0.79414 0.02279 0.17365 0.0
H361 H 0.83858 0.00389 0.26147 0.0
H362 H 0.82842 0.05784 0.21496 0.0
C363 C 0.77385 0.98711 0.16851 0.0
C364 C 0.00507 0.82144 0.24462 0.0
C365 C 0.97087 0.80664 0.2271 0.0
H366 H 0.06701 0.82077 0.24451 0.0
C367 C 0.97298 0.77284 0.20265 0.0
H368 H 0.0042 0.84738 0.26374 0.0
C369 C 0.00901 0.7581 0.19105 0.0
C370 C 0.04331 0.77632 0.20454 0.0
H371 H 0.94714 0.76085 0.18866 0.0
H372 H 0.00999 0.73513 0.16845 0.0
C373 C 0.04108 0.80603 0.23379 0.0
C374 C 0.17383 0.96164 0.08438 0.0
C375 C 0.17976 0.98894 0.11558 0.0
H376 H 0.16341 0.9015 0.06722 0.0
C377 C 0.18387 0.97448 0.15441 0.0
H378 H 0.17093 0.97155 0.05402 0.0
C379 C 0.17967 0.93378 0.16197 0.0
C380 C 0.1709 0.90713 0.13087 0.0
H381 H 0.18836 0.99472 0.17909 0.0
H382 H 0.18148 0.9235 0.19226 0.0
C383 C 0.16922 0.92138 0.09195 0.0
C384 C 0.96914 0.84341 0.8906 0.0
C385 C 0.95749 0.87302 0.86392 0.0
H386 H 0.01674 0.81716 0.92224 0.0
C387 C 0.98551 0.89354 0.84249 0.0
H388 H 0.94797 0.82751 0.90774 0.0
C389 C 0.02477 0.88663 0.84982 0.0
C390 C 0.03636 0.86023 0.87972 0.0
H391 H 0.97707 0.91661 0.82192 0.0
H392 H 0.04585 0.90473 0.83482 0.0
C393 C 0.00838 0.83756 0.89899 0.0
C394 C 0.14121 0.0318 0.94077 0.0
C395 C 0.15397 0.00753 0.90944 0.0
H396 H 0.12176 0.08901 0.95928 0.0
C397 C 0.16038 0.02482 0.8723 0.0
H398 H 0.13639 0.01966 0.96994 0.0
C399 C 0.15198 0.06514 0.86619 0.0
C400 C 0.13671 0.08851 0.89704 0.0
H401 H 0.17005 0.00688 0.84756 0.0
H402 H 0.15597 0.07756 0.83702 0.0
C403 C 0.13248 0.07161 0.9346 0.0
C404 C 0.01138 0.20783 0.78048 0.0
C405 C 0.00864 0.22655 0.81768 0.0
H406 H 0.98057 0.17909 0.73295 0.0
C407 C 0.97224 0.23946 0.83068 0.0
H408 H 0.03907 0.19764 0.76963 0.0
C409 C 0.93878 0.22969 0.80916 0.0
C410 C 0.94119 0.20593 0.77487 0.0
H411 H 0.96936 0.2543 0.85908 0.0
H412 H 0.91098 0.23691 0.82184 0.0
C413 C 0.97785 0.19722 0.75942 0.0
C414 C 0.76444 0.00886 0.81175 0.0
C415 C 0.78727 0.97551 0.80318 0.0
H416 H 0.75034 0.06844 0.79647 0.0
C417 C 0.8045 0.97243 0.76584 0.0
H418 H 0.75075 0.01177 0.84035 0.0
C419 C 0.80519 0.00544 0.74086 0.0
C420 C 0.78853 0.04163 0.75313 0.0
H421 H 0.82228 0.94694 0.75857 0.0
H422 H 0.82341 0.00427 0.71498 0.0
C423 C 0.76435 0.04146 0.78642 0.0
C424 C 0.71252 0.70075 0.48711 0.0
C425 C 0.7257 0.66128 0.48845 0.0
H426 H 0.69006 0.74963 0.52055 0.0
C427 C 0.7383 0.64589 0.52501 0.0
H428 H 0.70322 0.71382 0.45936 0.0
C429 C 0.73146 0.66687 0.56014 0.0
C430 C 0.71117 0.70306 0.55908 0.0
H431 H 0.7494 0.61587 0.52691 0.0
H432 H 0.73703 0.65206 0.58802 0.0
C433 C 0.70511 0.72145 0.52227 0.0
C434 C 0.35046 0.72708 0.52806 0.0
C435 C 0.32834 0.71444 0.56026 0.0
H436 H 0.36574 0.71606 0.46769 0.0
C437 C 0.29678 0.68905 0.55308 0.0
H438 H 0.37485 0.74675 0.53281 0.0
C439 C 0.29237 0.67055 0.51616 0.0
C440 C 0.3185 0.67849 0.48576 0.0
H441 H 0.27915 0.67881 0.57728 0.0
H442 H 0.2715 0.64678 0.51286 0.0
C443 C 0.34521 0.70949 0.49074 0.0
C444 C 0.39459 0.29623 0.4886 0.0
C445 C 0.36242 0.29973 0.46322 0.0
H446 H 0.41791 0.30619 0.54659 0.0
C447 C 0.32633 0.30981 0.47926 0.0
H448 H 0.42274 0.28866 0.47688 0.0
C449 C 0.32353 0.3203 0.51954 0.0
C450 C 0.35688 0.32097 0.54379 0.0
H451 H 0.30126 0.31335 0.46006 0.0
H452 H 0.29619 0.33106 0.53073 0.0
C453 C 0.39187 0.30671 0.52842 0.0
C454 C 0.64762 0.32913 0.41979 0.0
C455 C 0.61957 0.34133 0.3918 0.0
H456 H 0.66325 0.32525 0.48165 0.0
C457 C 0.58431 0.3565 0.40533 0.0
H458 H 0.67511 0.31731 0.41012 0.0
C459 C 0.57748 0.36066 0.44561 0.0
C460 C 0.60584 0.35018 0.47391 0.0
H461 H 0.56187 0.36573 0.38469 0.0
H462 H 0.54994 0.37309 0.45439 0.0
C463 C 0.64088 0.33373 0.46064 0.0
C464 C 0.51527 0.76242 0.69543 0.0
C465 C 0.54352 0.73489 0.70769 0.0
H466 H 0.45473 0.77343 0.68693 0.0
C467 C 0.53236 0.70297 0.73151 0.0
H468 H 0.52316 0.78743 0.67724 0.0
C469 C 0.49315 0.6945 0.73624 0.0
C470 C 0.46487 0.71859 0.71835 0.0
H471 H 0.55344 0.6813 0.74148 0.0
H472 H 0.48511 0.66665 0.74967 0.0
C473 C 0.47604 0.75448 0.70111 0.0
C474 C 0.30182 0.55377 0.64336 0.0
C475 C 0.31673 0.57207 0.67777 0.0
H476 H 0.29364 0.49929 0.61153 0.0
C477 C 0.32607 0.54856 0.71072 0.0
H478 H 0.29449 0.57132 0.61755 0.0
C479 C 0.32529 0.50699 0.70728 0.0
C480 C 0.31515 0.48895 0.67093 0.0
H481 H 0.33813 0.56201 0.73734 0.0
H482 H 0.33681 0.48927 0.73134 0.0
C483 C 0.30122 0.51256 0.63991 0.0
C484 C 0.49141 0.28963 0.66145 0.0
C485 C 0.52169 0.31574 0.67108 0.0
H486 H 0.43095 0.27876 0.66626 0.0
C487 C 0.51829 0.34014 0.70473 0.0
H488 H 0.4936 0.27018 0.63586 0.0
C489 C 0.48191 0.34609 0.72145 0.0
C490 C 0.44939 0.32702 0.70482 0.0
H491 H 0.54148 0.36025 0.71303 0.0
H492 H 0.47823 0.37055 0.7421 0.0
C493 C 0.45532 0.29471 0.67899 0.0
C494 C 0.64696 0.54505 0.65598 0.0
C495 C 0.62013 0.5742 0.64409 0.0
H496 H 0.66174 0.48302 0.65584 0.0
C497 C 0.58614 0.56233 0.62428 0.0
H498 H 0.67352 0.55339 0.67116 0.0
C499 C 0.57931 0.52242 0.61589 0.0
C500 C 0.6065 0.49319 0.62659 0.0
H501 H 0.56479 0.58398 0.6149 0.0
H502 H 0.55287 0.51465 0.60018 0.0
C503 C 0.64034 0.50485 0.64703 0.0
C504 C 0.49503 0.25084 0.28464 0.0
C505 C 0.46187 0.27148 0.27204 0.0
H506 H 0.55655 0.24672 0.28194 0.0
C507 C 0.46385 0.29477 0.23784 0.0
H508 H 0.49417 0.23277 0.31105 0.0
C509 C 0.49987 0.30378 0.22169 0.0
C510 C 0.53401 0.28907 0.23936 0.0
H511 H 0.43867 0.31114 0.22766 0.0
H512 H 0.50123 0.32635 0.19905 0.0
C513 C 0.53093 0.25918 0.26802 0.0
C514 C 0.6884 0.48477 0.25582 0.0
C515 C 0.69768 0.44625 0.26854 0.0
H516 H 0.6868 0.5464 0.27113 0.0
C517 C 0.72265 0.44178 0.30141 0.0
H518 H 0.66971 0.48919 0.23025 0.0
C519 C 0.73175 0.47451 0.32538 0.0
C520 C 0.71685 0.51217 0.31617 0.0
H521 H 0.73085 0.41256 0.31175 0.0
H522 H 0.74685 0.46958 0.35322 0.0
C523 C 0.69821 0.51762 0.27937 0.0
C524 C 0.53993 0.62685 0.37101 0.0
C525 C 0.56101 0.60156 0.39632 0.0
H526 H 0.48395 0.64723 0.35185 0.0
C527 C 0.54063 0.57723 0.42247 0.0
H528 H 0.55471 0.64597 0.35047 0.0
C529 C 0.50031 0.57804 0.42334 0.0
C530 C 0.47911 0.60311 0.39798 0.0
H531 H 0.55581 0.55742 0.44246 0.0
H532 H 0.48578 0.55875 0.44392 0.0
C533 C 0.49937 0.62755 0.37177 0.0
C534 C 0.34934 0.45613 0.29842 0.0
C535 C 0.33035 0.42474 0.31717 0.0
H536 H 0.36124 0.5184 0.29898 0.0
C537 C 0.30109 0.43339 0.34441 0.0
H538 H 0.37211 0.45008 0.2774 0.0
C539 C 0.29572 0.47238 0.3577 0.0
C540 C 0.31871 0.50313 0.34292 0.0
H541 H 0.28624 0.40968 0.35948 0.0
H542 H 0.27669 0.47779 0.38245 0.0
C543 C 0.34308 0.49526 0.3108 0.0
loop_
_geom_bond_atom_site_label_1
_geom_bond_atom_site_label_2
_geom_bond_distance
_geom_bond_site_symmetry_2
_ccdc_geom_bond_type
Zn0 O3 2.031 . S
Zn0 O5 2.049 . S
Zn0 O10 2.067 . S
Zn1 O2 1.962 . S
Zn1 O4 1.986 . S
Zn1 O6 1.996 . S
Zn1 O9 1.943 . S
O2 Zn1 1.962 . S
O2 C7 1.254 . S
O3 Zn0 2.031 . S
O3 C7 1.269 . S
O4 Zn1 1.986 . S
O4 C11 1.262 . S
O5 Zn0 2.049 . S
O5 C13 1.260 . S
O6 Zn1 1.996 . S
O6 C13 1.257 . S
C7 O2 1.254 . S
C7 O3 1.269 . S
C8 O9 1.249 . S
C8 O10 1.270 . S
O9 Zn1 1.943 . S
O9 C8 1.249 . S
O10 Zn0 2.067 . S
O10 C8 1.270 . S
C11 O4 1.262 . S
C11 O12 1.232 . S
O12 C11 1.232 . S
C13 O5 1.260 . S
C13 O6 1.257 . S
Zn14 O17 2.031 . S
Zn14 O19 2.049 . S
Zn14 O24 2.067 . S
Zn15 O16 1.962 . S
Zn15 O18 1.986 . S
Zn15 O20 1.996 . S
Zn15 O23 1.943 . S
O16 Zn15 1.962 . S
O16 C21 1.254 . S
O17 Zn14 2.031 . S
O17 C21 1.269 . S
O18 Zn15 1.986 . S
O18 C25 1.262 . S
O19 Zn14 2.049 . S
O19 C27 1.260 . S
O20 Zn15 1.996 . S
O20 C27 1.257 . S
C21 O16 1.254 . S
C21 O17 1.269 . S
C22 O23 1.249 . S
C22 O24 1.270 . S
O23 Zn15 1.943 . S
O23 C22 1.249 . S
O24 Zn14 2.067 . S
O24 C22 1.270 . S
C25 O18 1.262 . S
C25 O26 1.232 . S
O26 C25 1.232 . S
C27 O19 1.260 . S
C27 O20 1.257 . S
Zn28 O31 2.031 . S
Zn28 O33 2.049 . S
Zn28 O38 2.067 . S
Zn29 O30 1.962 . S
Zn29 O32 1.986 . S
Zn29 O34 1.996 . S
Zn29 O37 1.943 . S
O30 Zn29 1.962 . S
O30 C35 1.254 . S
O31 Zn28 2.031 . S
O31 C35 1.269 . S
O32 Zn29 1.986 . S
O32 C39 1.262 . S
O33 Zn28 2.049 . S
O33 C41 1.260 . S
O34 Zn29 1.996 . S
O34 C41 1.257 . S
C35 O30 1.254 . S
C35 O31 1.269 . S
C36 O37 1.249 . S
C36 O38 1.270 . S
O37 Zn29 1.943 . S
O37 C36 1.249 . S
O38 Zn28 2.067 . S
O38 C36 1.270 . S
C39 O32 1.262 . S
C39 O40 1.232 . S
O40 C39 1.232 . S
C41 O33 1.260 . S
C41 O34 1.257 . S
Zn42 O45 2.031 . S
Zn42 O47 2.049 . S
Zn42 O52 2.067 . S
Zn43 O44 1.962 . S
Zn43 O46 1.986 . S
Zn43 O48 1.996 . S
Zn43 O51 1.943 . S
O44 Zn43 1.962 . S
O44 C49 1.254 . S
O45 Zn42 2.031 . S
O45 C49 1.269 . S
O46 Zn43 1.986 . S
O46 C53 1.262 . S
O47 Zn42 2.049 . S
O47 C55 1.260 . S
O48 Zn43 1.996 . S
O48 C55 1.257 . S
C49 O44 1.254 . S
C49 O45 1.269 . S
C50 O51 1.249 . S
C50 O52 1.270 . S
O51 Zn43 1.943 . S
O51 C50 1.249 . S
O52 Zn42 2.067 . S
O52 C50 1.270 . S
C53 O46 1.262 . S
C53 O54 1.232 . S
O54 C53 1.232 . S
C55 O47 1.260 . S
C55 O48 1.257 . S
Zn56 O59 2.031 . S
Zn56 O61 2.049 . S
Zn56 O66 2.067 . S
Zn57 O58 1.962 . S
Zn57 O60 1.986 . S
Zn57 O62 1.996 . S
Zn57 O65 1.943 . S
O58 Zn57 1.962 . S
O58 C63 1.254 . S
O59 Zn56 2.031 . S
O59 C63 1.269 . S
O60 Zn57 1.986 . S
O60 C67 1.262 . S
O61 Zn56 2.049 . S
O61 C69 1.260 . S
O62 Zn57 1.996 . S
O62 C69 1.257 . S
C63 O58 1.254 . S
C63 O59 1.269 . S
C64 O65 1.249 . S
C64 O66 1.270 . S
O65 Zn57 1.943 . S
O65 C64 1.249 . S
O66 Zn56 2.067 . S
O66 C64 1.270 . S
C67 O60 1.262 . S
C67 O68 1.232 . S
O68 C67 1.232 . S
C69 O61 1.260 . S
C69 O62 1.257 . S
Zn70 O73 2.031 . S
Zn70 O75 2.049 . S
Zn70 O80 2.067 . S
Zn71 O72 1.962 . S
Zn71 O74 1.986 . S
Zn71 O76 1.996 . S
Zn71 O79 1.943 . S
O72 Zn71 1.962 . S
O72 C77 1.254 . S
O73 Zn70 2.031 . S
O73 C77 1.269 . S
O74 Zn71 1.986 . S
O74 C81 1.262 . S
O75 Zn70 2.049 . S
O75 C83 1.260 . S
O76 Zn71 1.996 . S
O76 C83 1.257 . S
C77 O72 1.254 . S
C77 O73 1.269 . S
C78 O79 1.249 . S
C78 O80 1.270 . S
O79 Zn71 1.943 . S
O79 C78 1.249 . S
O80 Zn70 2.067 . S
O80 C78 1.270 . S
C81 O74 1.262 . S
C81 O82 1.232 . S
O82 C81 1.232 . S
C83 O75 1.260 . S
C83 O76 1.257 . S
Zn84 O87 2.031 . S
Zn84 O89 2.049 . S
Zn84 O94 2.067 . S
Zn85 O86 1.962 . S
Zn85 O88 1.986 . S
Zn85 O90 1.996 . S
Zn85 O93 1.943 . S
O86 Zn85 1.962 . S
O86 C91 1.254 . S
O87 Zn84 2.031 . S
O87 C91 1.269 . S
O88 Zn85 1.986 . S
O88 C95 1.262 . S
O89 Zn84 2.049 . S
O89 C97 1.260 . S
O90 Zn85 1.996 . S
O90 C97 1.257 . S
C91 O86 1.254 . S
C91 O87 1.269 . S
C92 O93 1.249 . S
C92 O94 1.270 . S
O93 Zn85 1.943 . S
O93 C92 1.249 . S
O94 Zn84 2.067 . S
O94 C92 1.270 . S
C95 O88 1.262 . S
C95 O96 1.232 . S
O96 C95 1.232 . S
C97 O89 1.260 . S
C97 O90 1.257 . S
Zn98 O101 2.031 . S
Zn98 O103 2.049 . S
Zn98 O108 2.067 . S
Zn99 O100 1.962 . S
Zn99 O102 1.986 . S
Zn99 O104 1.996 . S
Zn99 O107 1.943 . S
O100 Zn99 1.962 . S
O100 C105 1.254 . S
O101 Zn98 2.031 . S
O101 C105 1.269 . S
O102 Zn99 1.986 . S
O102 C109 1.262 . S
O103 Zn98 2.049 . S
O103 C111 1.260 . S
O104 Zn99 1.996 . S
O104 C111 1.257 . S
C105 O100 1.254 . S
C105 O101 1.269 . S
C106 O107 1.249 . S
C106 O108 1.270 . S
O107 Zn99 1.943 . S
O107 C106 1.249 . S
O108 Zn98 2.067 . S
O108 C106 1.270 . S
C109 O102 1.262 . S
C109 O110 1.232 . S
O110 C109 1.232 . S
C111 O103 1.260 . S
C111 O104 1.257 . S
Zn112 O115 2.031 . S
Zn112 O117 2.049 . S
Zn112 O122 2.067 . S
Zn113 O114 1.962 . S
Zn113 O116 1.986 . S
Zn113 O118 1.996 . S
Zn113 O121 1.943 . S
O114 Zn113 1.962 . S
O114 C119 1.254 . S
O115 Zn112 2.031 . S
O115 C119 1.269 . S
O116 Zn113 1.986 . S
O116 C123 1.262 . S
O117 Zn112 2.049 . S
O117 C125 1.260 . S
O118 Zn113 1.996 . S
O118 C125 1.257 . S
C119 O114 1.254 . S
C119 O115 1.269 . S
C120 O121 1.249 . S
C120 O122 1.270 . S
O121 Zn113 1.943 . S
O121 C120 1.249 . S
O122 Zn112 2.067 . S
O122 C120 1.270 . S
C123 O116 1.262 . S
C123 O124 1.232 . S
O124 C123 1.232 . S
C125 O117 1.260 . S
C125 O118 1.257 . S
Zn126 O129 2.031 . S
Zn126 O131 2.049 . S
Zn126 O136 2.067 . S
Zn127 O128 1.962 . S
Zn127 O130 1.986 . S
Zn127 O132 1.996 . S
Zn127 O135 1.943 . S
O128 Zn127 1.962 . S
O128 C133 1.254 . S
O129 Zn126 2.031 . S
O129 C133 1.269 . S
O130 Zn127 1.986 . S
O130 C137 1.262 . S
O131 Zn126 2.049 . S
O131 C139 1.260 . S
O132 Zn127 1.996 . S
O132 C139 1.257 . S
C133 O128 1.254 . S
C133 O129 1.269 . S
C134 O135 1.249 . S
C134 O136 1.270 . S
O135 Zn127 1.943 . S
O135 C134 1.249 . S
O136 Zn126 2.067 . S
O136 C134 1.270 . S
C137 O130 1.262 . S
C137 O138 1.232 . S
O138 C137 1.232 . S
C139 O131 1.260 . S
C139 O132 1.257 . S
Zn140 O143 2.031 . S
Zn140 O145 2.049 . S
Zn140 O150 2.067 . S
Zn141 O142 1.962 . S
Zn141 O144 1.986 . S
Zn141 O146 1.996 . S
Zn141 O149 1.943 . S
O142 Zn141 1.962 . S
O142 C147 1.254 . S
O143 Zn140 2.031 . S
O143 C147 1.269 . S
O144 Zn141 1.986 . S
O144 C151 1.262 . S
O145 Zn140 2.049 . S
O145 C153 1.260 . S
O146 Zn141 1.996 . S
O146 C153 1.257 . S
C147 O142 1.254 . S
C147 O143 1.269 . S
C148 O149 1.249 . S
C148 O150 1.270 . S
O149 Zn141 1.943 . S
O149 C148 1.249 . S
O150 Zn140 2.067 . S
O150 C148 1.270 . S
C151 O144 1.262 . S
C151 O152 1.232 . S
O152 C151 1.232 . S
C153 O145 1.260 . S
C153 O146 1.257 . S
Zn154 O157 2.031 . S
Zn154 O159 2.049 . S
Zn154 O164 2.067 . S
Zn155 O156 1.962 . S
Zn155 O158 1.986 . S
Zn155 O160 1.996 . S
Zn155 O163 1.943 . S
O156 Zn155 1.962 . S
O156 C161 1.254 . S
O157 Zn154 2.031 . S
O157 C161 1.269 . S
O158 Zn155 1.986 . S
O158 C165 1.262 . S
O159 Zn154 2.049 . S
O159 C167 1.260 . S
O160 Zn155 1.996 . S
O160 C167 1.257 . S
C161 O156 1.254 . S
C161 O157 1.269 . S
C162 O163 1.249 . S
C162 O164 1.270 . S
O163 Zn155 1.943 . S
O163 C162 1.249 . S
O164 Zn154 2.067 . S
O164 C162 1.270 . S
C165 O158 1.262 . S
C165 O166 1.232 . S
O166 C165 1.232 . S
C167 O159 1.260 . S
C167 O160 1.257 . S
Zn168 O171 2.031 . S
Zn168 O173 2.049 . S
Zn168 O178 2.067 . S
Zn169 O170 1.962 . S
Zn169 O172 1.986 . S
Zn169 O174 1.996 . S
Zn169 O177 1.943 . S
O170 Zn169 1.962 . S
O170 C175 1.254 . S
O171 Zn168 2.031 . S
O171 C175 1.269 . S
O172 Zn169 1.986 . S
O172 C179 1.262 . S
O173 Zn168 2.049 . S
O173 C181 1.260 . S
O174 Zn169 1.996 . S
O174 C181 1.257 . S
C175 O170 1.254 . S
C175 O171 1.269 . S
C176 O177 1.249 . S
C176 O178 1.270 . S
O177 Zn169 1.943 . S
O177 C176 1.249 . S
O178 Zn168 2.067 . S
O178 C176 1.270 . S
C179 O172 1.262 . S
C179 O180 1.232 . S
O180 C179 1.232 . S
C181 O173 1.260 . S
C181 O174 1.257 . S
Zn182 O185 2.031 . S
Zn182 O187 2.049 . S
Zn182 O192 2.067 . S
Zn183 O184 1.962 . S
Zn183 O186 1.986 . S
Zn183 O188 1.996 . S
Zn183 O191 1.943 . S
O184 Zn183 1.962 . S
O184 C189 1.254 . S
O185 Zn182 2.031 . S
O185 C189 1.269 . S
O186 Zn183 1.986 . S
O186 C193 1.262 . S
O187 Zn182 2.049 . S
O187 C195 1.260 . S
O188 Zn183 1.996 . S
O188 C195 1.257 . S
C189 O184 1.254 . S
C189 O185 1.269 . S
C190 O191 1.249 . S
C190 O192 1.270 . S
O191 Zn183 1.943 . S
O191 C190 1.249 . S
O192 Zn182 2.067 . S
O192 C190 1.270 . S
C193 O186 1.262 . S
C193 O194 1.232 . S
O194 C193 1.232 . S
C195 O187 1.260 . S
C195 O188 1.257 . S
Zn196 O199 2.031 . S
Zn196 O201 2.049 . S
Zn196 O206 2.067 . S
Zn197 O198 1.962 . S
Zn197 O200 1.986 . S
Zn197 O202 1.996 . S
Zn197 O205 1.943 . S
O198 Zn197 1.962 . S
O198 C203 1.254 . S
O199 Zn196 2.031 . S
O199 C203 1.269 . S
O200 Zn197 1.986 . S
O200 C207 1.262 . S
O201 Zn196 2.049 . S
O201 C209 1.260 . S
O202 Zn197 1.996 . S
O202 C209 1.257 . S
C203 O198 1.254 . S
C203 O199 1.269 . S
C204 O205 1.249 . S
C204 O206 1.270 . S
O205 Zn197 1.943 . S
O205 C204 1.249 . S
O206 Zn196 2.067 . S
O206 C204 1.270 . S
C207 O200 1.262 . S
C207 O208 1.232 . S
O208 C207 1.232 . S
C209 O201 1.260 . S
C209 O202 1.257 . S
Zn210 O213 2.031 . S
Zn210 O215 2.049 . S
Zn210 O220 2.067 . S
Zn211 O212 1.962 . S
Zn211 O214 1.986 . S
Zn211 O216 1.996 . S
Zn211 O219 1.943 . S
O212 Zn211 1.962 . S
O212 C217 1.254 . S
O213 Zn210 2.031 . S
O213 C217 1.269 . S
O214 Zn211 1.986 . S
O214 C221 1.262 . S
O215 Zn210 2.049 . S
O215 C223 1.260 . S
O216 Zn211 1.996 . S
O216 C223 1.257 . S
C217 O212 1.254 . S
C217 O213 1.269 . S
C218 O219 1.249 . S
C218 O220 1.270 . S
O219 Zn211 1.943 . S
O219 C218 1.249 . S
O220 Zn210 2.067 . S
O220 C218 1.270 . S
C221 O214 1.262 . S
C221 O222 1.232 . S
O222 C221 1.232 . S
C223 O215 1.260 . S
C223 O216 1.257 . S
C224 C225 1.387 . S
C224 H228 0.950 . S
C224 C233 1.390 . S
C225 C224 1.387 . S
C225 C227 1.387 . S
H226 C233 0.950 . S
C227 C225 1.387 . S
C227 C229 1.390 . S
C227 H231 0.950 . S
H228 C224 0.950 . S
C229 C227 1.390 . S
C229 C230 1.387 . S
C229 H232 0.950 . S
C230 C229 1.387 . S
C230 C233 1.387 . S
H231 C227 0.950 . S
H232 C229 0.950 . S
C233 C224 1.390 . S
C233 H226 0.950 . S
C233 C230 1.387 . S
C234 C235 1.387 . S
C234 H238 0.950 . S
C234 C243 1.390 . S
C235 C234 1.387 . S
C235 C237 1.387 . S
H236 C243 0.950 . S
C237 C235 1.387 . S
C237 C239 1.390 . S
C237 H241 0.950 . S
H238 C234 0.950 . S
C239 C237 1.390 . S
C239 C240 1.387 . S
C239 H242 0.950 . S
C240 C239 1.387 . S
C240 C243 1.387 . S
H241 C237 0.950 . S
H242 C239 0.950 . S
C243 C234 1.390 . S
C243 H236 0.950 . S
C243 C240 1.387 . S
C244 C245 1.387 . S
C244 H248 0.950 . S
C244 C253 1.390 . S
C245 C244 1.387 . S
C245 C247 1.387 . S
H246 C253 0.950 . S
C247 C245 1.387 . S
C247 C249 1.390 . S
C247 H251 0.950 . S
H248 C244 0.950 . S
C249 C247 1.390 . S
C249 C250 1.387 . S
C249 H252 0.950 . S
C250 C249 1.387 . S
C250 C253 1.387 . S
H251 C247 0.950 . S
H252 C249 0.950 . S
C253 C244 1.390 . S
C253 H246 0.950 . S
C253 C250 1.387 . S
C254 C255 1.387 . S
C254 H258 0.950 . S
C254 C263 1.390 . S
C255 C254 1.387 . S
C255 C257 1.387 . S
H256 C263 0.950 . S
C257 C255 1.387 . S
C257 C259 1.390 . S
C257 H261 0.950 . S
H258 C254 0.950 . S
C259 C257 1.390 . S
C259 C260 1.387 . S
C259 H262 0.950 . S
C260 C259 1.387 . S
C260 C263 1.387 . S
H261 C257 0.950 . S
H262 C259 0.950 . S
C263 C254 1.390 . S
C263 H256 0.950 . S
C263 C260 1.387 . S
C264 C265 1.387 . S
C264 H268 0.950 . S
C264 C273 1.390 . S
C265 C264 1.387 . S
C265 C267 1.387 . S
H266 C273 0.950 . S
C267 C265 1.387 . S
C267 C269 1.390 . S
C267 H271 0.950 . S
H268 C264 0.950 . S
C269 C267 1.390 . S
C269 C270 1.387 . S
C269 H272 0.950 . S
C270 C269 1.387 . S
C270 C273 1.387 . S
H271 C267 0.950 . S
H272 C269 0.950 . S
C273 C264 1.390 . S
C273 H266 0.950 . S
C273 C270 1.387 . S
C274 C275 1.387 . S
C274 H278 0.950 . S
C274 C283 1.390 . S
C275 C274 1.387 . S
C275 C277 1.387 . S
H276 C283 0.950 . S
C277 C275 1.387 . S
C277 C279 1.390 . S
C277 H281 0.950 . S
H278 C274 0.950 . S
C279 C277 1.390 . S
C279 C280 1.387 . S
C279 H282 0.950 . S
C280 C279 1.387 . S
C280 C283 1.387 . S
H281 C277 0.950 . S
H282 C279 0.950 . S
C283 C274 1.390 . S
C283 H276 0.950 . S
C283 C280 1.387 . S
C284 C285 1.387 . S
C284 H288 0.950 . S
C284 C293 1.390 . S
C285 C284 1.387 . S
C285 C287 1.387 . S
H286 C293 0.950 . S
C287 C285 1.387 . S
C287 C289 1.390 . S
C287 H291 0.950 . S
H288 C284 0.950 . S
C289 C287 1.390 . S
C289 C290 1.387 . S
C289 H292 0.950 . S
C290 C289 1.387 . S
C290 C293 1.387 . S
H291 C287 0.950 . S
H292 C289 0.950 . S
C293 C284 1.390 . S
C293 H286 0.950 . S
C293 C290 1.387 . S
C294 C295 1.387 . S
C294 H298 0.950 . S
C294 C303 1.390 . S
C295 C294 1.387 . S
C295 C297 1.387 . S
H296 C303 0.950 . S
C297 C295 1.387 . S
C297 C299 1.390 . S
C297 H301 0.950 . S
H298 C294 0.950 . S
C299 C297 1.390 . S
C299 C300 1.387 . S
C299 H302 0.950 . S
C300 C299 1.387 . S
C300 C303 1.387 . S
H301 C297 0.950 . S
H302 C299 0.950 . S
C303 C294 1.390 . S
C303 H296 0.950 . S
C303 C300 1.387 . S
C304 C305 1.387 . S
C304 H308 0.950 . S
C304 C313 1.390 1_556 S
C305 C304 1.387 . S
C305 C307 1.387 . S
H306 C313 0.950 . S
C307 C305 1.387 . S
C307 C309 1.390 1_556 S
C307 H311 0.950 . S
H308 C304 0.950 . S
C309 C307 1.390 1_554 S
C309 C310 1.387 . S
C309 H312 0.950 . S
C310 C309 1.387 . S
C310 C313 1.387 . S
H311 C307 0.950 . S
H312 C309 0.950 . S
C313 C304 1.390 1_554 S
C313 H306 0.950 . S
C313 C310 1.387 . S
C314 C315 1.387 . S
C314 H318 0.950 . S
C314 C323 1.390 1_556 S
C315 C314 1.387 . S
C315 C317 1.387 . S
H316 C323 0.950 . S
C317 C315 1.387 . S
C317 C319 1.390 1_556 S
C317 H321 0.950 . S
H318 C314 0.950 . S
C319 C317 1.390 1_554 S
C319 C320 1.387 . S
C319 H322 0.950 . S
C320 C319 1.387 . S
C320 C323 1.387 . S
H321 C317 0.950 . S
H322 C319 0.950 . S
C323 C314 1.390 1_554 S
C323 H316 0.950 . S
C323 C320 1.387 . S
C324 C325 1.387 . S
C324 H328 0.950 . S
C324 C333 1.390 1_556 S
C325 C324 1.387 . S
C325 C327 1.387 1_556 S
H326 C333 0.950 . S
C327 C325 1.387 1_554 S
C327 C329 1.390 . S
C327 H331 0.950 1_554 S
H328 C324 0.950 . S
C329 C327 1.390 . S
C329 C330 1.387 . S
C329 H332 0.950 . S
C330 C329 1.387 . S
C330 C333 1.387 . S
H331 C327 0.950 1_556 S
H332 C329 0.950 . S
C333 C324 1.390 1_554 S
C333 H326 0.950 . S
C333 C330 1.387 . S
C334 C335 1.387 . S
C334 H338 0.950 . S
C334 C343 1.390 1_554 S
C335 C334 1.387 . S
C335 C337 1.387 . S
H336 C343 0.950 . S
C337 C335 1.387 . S
C337 C339 1.390 1_554 S
C337 H341 0.950 . S
H338 C334 0.950 . S
C339 C337 1.390 1_556 S
C339 C340 1.387 . S
C339 H342 0.950 . S
C340 C339 1.387 . S
C340 C343 1.387 . S
H341 C337 0.950 . S
H342 C339 0.950 . S
C343 C334 1.390 1_556 S
C343 H336 0.950 . S
C343 C340 1.387 . S
C344 C345 1.387 . S
C344 H348 0.950 . S
C344 C353 1.390 1_455 S
C345 C344 1.387 . S
C345 C347 1.387 . S
H346 C353 0.950 . S
C347 C345 1.387 . S
C347 C349 1.390 1_455 S
C347 H351 0.950 . S
H348 C344 0.950 . S
C349 C347 1.390 1_655 S
C349 C350 1.387 . S
C349 H352 0.950 . S
C350 C349 1.387 . S
C350 C353 1.387 . S
H351 C347 0.950 . S
H352 C349 0.950 . S
C353 C344 1.390 1_655 S
C353 H346 0.950 . S
C353 C350 1.387 . S
C354 C355 1.387 . S
C354 H358 0.950 . S
C354 C363 1.390 1_565 S
C355 C354 1.387 . S
C355 C357 1.387 . S
H356 C363 0.950 . S
C357 C355 1.387 . S
C357 C359 1.390 1_565 S
C357 H361 0.950 . S
H358 C354 0.950 . S
C359 C357 1.390 1_545 S
C359 C360 1.387 . S
C359 H362 0.950 . S
C360 C359 1.387 . S
C360 C363 1.387 . S
H361 C357 0.950 . S
H362 C359 0.950 . S
C363 C354 1.390 1_545 S
C363 H356 0.950 . S
C363 C360 1.387 . S
C364 C365 1.387 . S
C364 H368 0.950 . S
C364 C373 1.390 1_655 S
C365 C364 1.387 . S
C365 C367 1.387 . S
H366 C373 0.950 . S
C367 C365 1.387 . S
C367 C369 1.390 1_655 S
C367 H371 0.950 . S
H368 C364 0.950 . S
C369 C367 1.390 1_455 S
C369 C370 1.387 . S
C369 H372 0.950 . S
C370 C369 1.387 . S
C370 C373 1.387 . S
H371 C367 0.950 . S
H372 C369 0.950 . S
C373 C364 1.390 1_455 S
C373 H366 0.950 . S
C373 C370 1.387 . S
C374 C375 1.387 . S
C374 H378 0.950 . S
C374 C383 1.390 1_545 S
C375 C374 1.387 . S
C375 C377 1.387 1_545 S
H376 C383 0.950 . S
C377 C375 1.387 1_565 S
C377 C379 1.390 . S
C377 H381 0.950 1_565 S
H378 C374 0.950 . S
C379 C377 1.390 . S
C379 C380 1.387 . S
C379 H382 0.950 . S
C380 C379 1.387 . S
C380 C383 1.387 . S
H381 C377 0.950 1_545 S
H382 C379 0.950 . S
C383 C374 1.390 1_565 S
C383 H376 0.950 . S
C383 C380 1.387 . S
C384 C385 1.387 . S
C384 H388 0.950 . S
C384 C393 1.390 1_655 S
C385 C384 1.387 . S
C385 C387 1.387 . S
H386 C393 0.950 . S
C387 C385 1.387 . S
C387 C389 1.390 1_655 S
C387 H391 0.950 . S
H388 C384 0.950 . S
C389 C387 1.390 1_455 S
C389 C390 1.387 . S
C389 H392 0.950 . S
C390 C389 1.387 . S
C390 C393 1.387 . S
H391 C387 0.950 . S
H392 C389 0.950 . S
C393 C384 1.390 1_455 S
C393 H386 0.950 . S
C393 C390 1.387 . S
C394 C395 1.387 1_545 S
C394 H398 0.950 1_545 S
C394 C403 1.390 . S
C395 C394 1.387 1_565 S
C395 C397 1.387 . S
H396 C403 0.950 . S
C397 C395 1.387 . S
C397 C399 1.390 1_565 S
C397 H401 0.950 . S
H398 C394 0.950 1_565 S
C399 C397 1.390 1_545 S
C399 C400 1.387 . S
C399 H402 0.950 . S
C400 C399 1.387 . S
C400 C403 1.387 . S
H401 C397 0.950 . S
H402 C399 0.950 . S
C403 C394 1.390 . S
C403 H396 0.950 . S
C403 C400 1.387 . S
C404 C405 1.387 . S
C404 H408 0.950 . S
C404 C413 1.390 1_455 S
C405 C404 1.387 . S
C405 C407 1.387 . S
H406 C413 0.950 . S
C407 C405 1.387 . S
C407 C409 1.390 1_455 S
C407 H411 0.950 . S
H408 C404 0.950 . S
C409 C407 1.390 1_655 S
C409 C410 1.387 . S
C409 H412 0.950 . S
C410 C409 1.387 . S
C410 C413 1.387 . S
H411 C407 0.950 . S
H412 C409 0.950 . S
C413 C404 1.390 1_655 S
C413 H406 0.950 . S
C413 C410 1.387 . S
C414 C415 1.387 . S
C414 H418 0.950 . S
C414 C423 1.390 1_565 S
C415 C414 1.387 . S
C415 C417 1.387 . S
H416 C423 0.950 . S
C417 C415 1.387 . S
C417 C419 1.390 . S
C417 H421 0.950 . S
H418 C414 0.950 . S
C419 C417 1.390 . S
C419 C420 1.387 1_565 S
C419 H422 0.950 1_565 S
C420 C419 1.387 1_545 S
C420 C423 1.387 . S
H421 C417 0.950 . S
H422 C419 0.950 1_545 S
C423 C414 1.390 1_545 S
C423 H416 0.950 . S
C423 C420 1.387 . S
C424 C425 1.387 . S
C424 H428 0.950 . S
C424 C433 1.390 . S
C425 C424 1.387 . S
C425 C427 1.387 . S
H426 C433 0.950 . S
C427 C425 1.387 . S
C427 C429 1.390 . S
C427 H431 0.950 . S
H428 C424 0.950 . S
C429 C427 1.390 . S
C429 C430 1.387 . S
C429 H432 0.950 . S
C430 C429 1.387 . S
C430 C433 1.387 . S
H431 C427 0.950 . S
H432 C429 0.950 . S
C433 C424 1.390 . S
C433 H426 0.950 . S
C433 C430 1.387 . S
C434 C435 1.387 . S
C434 H438 0.950 . S
C434 C443 1.390 . S
C435 C434 1.387 . S
C435 C437 1.387 . S
H436 C443 0.950 . S
C437 C435 1.387 . S
C437 C439 1.390 . S
C437 H441 0.950 . S
H438 C434 0.950 . S
C439 C437 1.390 . S
C439 C440 1.387 . S
C439 H442 0.950 . S
C440 C439 1.387 . S
C440 C443 1.387 . S
H441 C437 0.950 . S
H442 C439 0.950 . S
C443 C434 1.390 . S
C443 H436 0.950 . S
C443 C440 1.387 . S
C444 C445 1.387 . S
C444 H448 0.950 . S
C444 C453 1.390 . S
C445 C444 1.387 . S
C445 C447 1.387 . S
H446 C453 0.950 . S
C447 C445 1.387 . S
C447 C449 1.390 . S
C447 H451 0.950 . S
H448 C444 0.950 . S
C449 C447 1.390 . S
C449 C450 1.387 . S
C449 H452 0.950 . S
C450 C449 1.387 . S
C450 C453 1.387 . S
H451 C447 0.950 . S
H452 C449 0.950 . S
C453 C444 1.390 . S
C453 H446 0.950 . S
C453 C450 1.387 . S
C454 C455 1.387 . S
C454 H458 0.950 . S
C454 C463 1.390 . S
C455 C454 1.387 . S
C455 C457 1.387 . S
H456 C463 0.950 . S
C457 C455 1.387 . S
C457 C459 1.390 . S
C457 H461 0.950 . S
H458 C454 0.950 . S
C459 C457 1.390 . S
C459 C460 1.387 . S
C459 H462 0.950 . S
C460 C459 1.387 . S
C460 C463 1.387 . S
H461 C457 0.950 . S
H462 C459 0.950 . S
C463 C454 1.390 . S
C463 H456 0.950 . S
C463 C460 1.387 . S
C464 C465 1.387 . S
C464 H468 0.950 . S
C464 C473 1.390 . S
C465 C464 1.387 . S
C465 C467 1.387 . S
H466 C473 0.950 . S
C467 C465 1.387 . S
C467 C469 1.390 . S
C467 H471 0.950 . S
H468 C464 0.950 . S
C469 C467 1.390 . S
C469 C470 1.387 . S
C469 H472 0.950 . S
C470 C469 1.387 . S
C470 C473 1.387 . S
H471 C467 0.950 . S
H472 C469 0.950 . S
C473 C464 1.390 . S
C473 H466 0.950 . S
C473 C470 1.387 . S
C474 C475 1.387 . S
C474 H478 0.950 . S
C474 C483 1.390 . S
C475 C474 1.387 . S
C475 C477 1.387 . S
H476 C483 0.950 . S
C477 C475 1.387 . S
C477 C479 1.390 . S
C477 H481 0.950 . S
H478 C474 0.950 . S
C479 C477 1.390 . S
C479 C480 1.387 . S
C479 H482 0.950 . S
C480 C479 1.387 . S
C480 C483 1.387 . S
H481 C477 0.950 . S
H482 C479 0.950 . S
C483 C474 1.390 . S
C483 H476 0.950 . S
C483 C480 1.387 . S
C484 C485 1.387 . S
C484 H488 0.950 . S
C484 C493 1.390 . S
C485 C484 1.387 . S
C485 C487 1.387 . S
H486 C493 0.950 . S
C487 C485 1.387 . S
C487 C489 1.390 . S
C487 H491 0.950 . S
H488 C484 0.950 . S
C489 C487 1.390 . S
C489 C490 1.387 . S
C489 H492 0.950 . S
C490 C489 1.387 . S
C490 C493 1.387 . S
H491 C487 0.950 . S
H492 C489 0.950 . S
C493 C484 1.390 . S
C493 H486 0.950 . S
C493 C490 1.387 . S
C494 C495 1.387 . S
C494 H498 0.950 . S
C494 C503 1.390 . S
C495 C494 1.387 . S
C495 C497 1.387 . S
H496 C503 0.950 . S
C497 C495 1.387 . S
C497 C499 1.390 . S
C497 H501 0.950 . S
H498 C494 0.950 . S
C499 C497 1.390 . S
C499 C500 1.387 . S
C499 H502 0.950 . S
C500 C499 1.387 . S
C500 C503 1.387 . S
H501 C497 0.950 . S
H502 C499 0.950 . S
C503 C494 1.390 . S
C503 H496 0.950 . S
C503 C500 1.387 . S
C504 C505 1.387 . S
C504 H508 0.950 . S
C504 C513 1.390 . S
C505 C504 1.387 . S
C505 C507 1.387 . S
H506 C513 0.950 . S
C507 C505 1.387 . S
C507 C509 1.390 . S
C507 H511 0.950 . S
H508 C504 0.950 . S
C509 C507 1.390 . S
C509 C510 1.387 . S
C509 H512 0.950 . S
C510 C509 1.387 . S
C510 C513 1.387 . S
H511 C507 0.950 . S
H512 C509 0.950 . S
C513 C504 1.390 . S
C513 H506 0.950 . S
C513 C510 1.387 . S
C514 C515 1.387 . S
C514 H518 0.950 . S
C514 C523 1.390 . S
C515 C514 1.387 . S
C515 C517 1.387 . S
H516 C523 0.950 . S
C517 C515 1.387 . S
C517 C519 1.390 . S
C517 H521 0.950 . S
H518 C514 0.950 . S
C519 C517 1.390 . S
C519 C520 1.387 . S
C519 H522 0.950 . S
C520 C519 1.387 . S
C520 C523 1.387 . S
H521 C517 0.950 . S
H522 C519 0.950 . S
C523 C514 1.390 . S
C523 H516 0.950 . S
C523 C520 1.387 . S
C524 C525 1.387 . S
C524 H528 0.950 . S
C524 C533 1.390 . S
C525 C524 1.387 . S
C525 C527 1.387 . S
H526 C533 0.950 . S
C527 C525 1.387 . S
C527 C529 1.390 . S
C527 H531 0.950 . S
H528 C524 0.950 . S
C529 C527 1.390 . S
C529 C530 1.387 . S
C529 H532 0.950 . S
C530 C529 1.387 . S
C530 C533 1.387 . S
H531 C527 0.950 . S
H532 C529 0.950 . S
C533 C524 1.390 . S
C533 H526 0.950 . S
C533 C530 1.387 . S
C534 C535 1.387 . S
C534 H538 0.950 . S
C534 C543 1.390 . S
C535 C534 1.387 . S
C535 C537 1.387 . S
H536 C543 0.950 . S
C537 C535 1.387 . S
C537 C539 1.390 . S
C537 H541 0.950 . S
H538 C534 0.950 . S
C539 C537 1.390 . S
C539 C540 1.387 . S
C539 H542 0.950 . S
C540 C539 1.387 . S
C540 C543 1.387 . S
H541 C537 0.950 . S
H542 C539 0.950 . S
C543 C534 1.390 . S
C543 H536 0.950 . S
C543 C540 1.387 . S
C225 C221 1.138 . S
C230 C11 1.138 . S
C235 C179 1.138 . S
C240 C25 1.138 . S
C245 C39 1.139 . S
C250 C193 1.138 . S
C255 C207 1.138 . S
C260 C53 1.138 . S
C265 C137 1.138 . S
C270 C67 1.138 . S
C275 C81 1.138 . S
C280 C151 1.138 . S
C285 C95 1.139 . S
C290 C165 1.139 . S
C295 C109 1.138 . S
C300 C123 1.138 . S
C305 C83 1.259 . S
C310 C8 1.437 . S
C315 C92 1.440 . S
C320 C27 1.253 . S
C325 C111 1.255 . S
C330 C36 1.438 . S
C335 C55 1.253 . S
C340 C64 1.440 . S
C345 C7 1.419 . S
C350 C21 1.420 . S
C355 C41 1.253 . S
C360 C22 1.440 . S
C365 C35 1.418 . S
C370 C49 1.420 . S
C375 C13 1.255 . S
C380 C50 1.438 . S
C385 C105 1.419 . S
C390 C63 1.420 . S
C395 C69 1.256 . S
C400 C78 1.440 . S
C405 C77 1.419 . S
C410 C91 1.418 . S
C415 C106 1.438 . S
C420 C97 1.254 . S
C425 C195 1.259 . S
C430 C120 1.438 . S
C435 C139 1.258 . S
C440 C204 1.439 . S
C445 C223 1.258 . S
C450 C148 1.439 . S
C455 C176 1.438 . S
C460 C167 1.259 . S
C465 C119 1.418 . S
C470 C133 1.418 . S
C475 C134 1.440 . S
C480 C153 1.255 . S
C485 C161 1.419 . S
C490 C147 1.420 . S
C495 C125 1.257 . S
C500 C162 1.439 . S
C505 C217 1.418 . S
C510 C175 1.419 . S
C515 C181 1.259 . S
C520 C190 1.438 . S
C525 C189 1.418 . S
C530 C203 1.418 . S
C535 C218 1.439 . S
C540 C209 1.258 . S
