# Generated by pormake.
# Topology tfs, (6)-cn, num edge types: 1
# Building blocks:
#     Node 0, Type 0, BuildingBlock: BETDIP_clean_sbu_0, # of connection points: 6
#     Node 1, Type 0, BuildingBlock: BETDIP_clean_sbu_0, # of connection points: 6
#     Node 2, Type 0, BuildingBlock: BETDIP_clean_sbu_0, # of connection points: 6
#     Node 3, Type 0, BuildingBlock: BETDIP_clean_sbu_0, # of connection points: 6
#     Node 4, Type 0, BuildingBlock: BETDIP_clean_sbu_0, # of connection points: 6
#     Node 5, Type 0, BuildingBlock: BETDIP_clean_sbu_0, # of connection points: 6
#     Edge 6, Type (0, 0), BuildingBlock: FUNLAD_clean_linker_0, # of connection points: 2
#     Edge 7, Type (0, 0), BuildingBlock: FUNLAD_clean_linker_0, # of connection points: 2
#     Edge 8, Type (0, 0), BuildingBlock: FUNLAD_clean_linker_0, # of connection points: 2
#     Edge 9, Type (0, 0), BuildingBlock: FUNLAD_clean_linker_0, # of connection points: 2
#     Edge 10, Type (0, 0), BuildingBlock: FUNLAD_clean_linker_0, # of connection points: 2
#     Edge 11, Type (0, 0), BuildingBlock: FUNLAD_clean_linker_0, # of connection points: 2
#     Edge 12, Type (0, 0), BuildingBlock: FUNLAD_clean_linker_0, # of connection points: 2
#     Edge 13, Type (0, 0), BuildingBlock: FUNLAD_clean_linker_0, # of connection points: 2
#     Edge 14, Type (0, 0), BuildingBlock: FUNLAD_clean_linker_0, # of connection points: 2
#     Edge 15, Type (0, 0), BuildingBlock: FUNLAD_clean_linker_0, # of connection points: 2
#     Edge 16, Type (0, 0), BuildingBlock: FUNLAD_clean_linker_0, # of connection points: 2
#     Edge 17, Type (0, 0), BuildingBlock: FUNLAD_clean_linker_0, # of connection points: 2
#     Edge 18, Type (0, 0), BuildingBlock: FUNLAD_clean_linker_0, # of connection points: 2
#     Edge 19, Type (0, 0), BuildingBlock: FUNLAD_clean_linker_0, # of connection points: 2
#     Edge 20, Type (0, 0), BuildingBlock: FUNLAD_clean_linker_0, # of connection points: 2
#     Edge 21, Type (0, 0), BuildingBlock: FUNLAD_clean_linker_0, # of connection points: 2
#     Edge 22, Type (0, 0), BuildingBlock: FUNLAD_clean_linker_0, # of connection points: 2
#     Edge 23, Type (0, 0), BuildingBlock: FUNLAD_clean_linker_0, # of connection points: 2
# Relax obj value: 0.566
# Max RMSD: 0.298
# Mean RMSD: 0.298
data_MOF--net-tfs--node1-BETDIP_clean_sbu_0--edge1-FUNLAD_clean_linker_0
_symmetry_space_group_name_H-M    P1
_symmetry_Int_Tables_number       1
_symmetry_cell_setting            triclinic
loop_
_symmetry_equiv_pos_as_xyz
'x, y, z'
_cell_length_a     61.458292
_cell_length_b     61.420296
_cell_length_c     16.805034
_cell_angle_alpha  89.998702
_cell_angle_beta   89.992505
_cell_angle_gamma 119.95729
loop_
_atom_site_label
_atom_site_type_symbol
_atom_site_fract_x
_atom_site_fract_y
_atom_site_fract_z
_atom_type_partial_charge
Tb0 Tb 0.18822 0.43551 0.04351 0.0
Tb1 Tb 0.21399 0.40722 0.99943 0.0
C2 C 0.17463 0.46419 0.10507 0.0
C3 C 0.18178 0.49069 0.09532 0.0
C4 C 0.17008 0.50079 0.14188 0.0
C5 C 0.17602 0.52573 0.13135 0.0
C6 C 0.19376 0.54103 0.07384 0.0
C7 C 0.20571 0.53085 0.02797 0.0
C8 C 0.19974 0.50587 0.03857 0.0
C9 C 0.18784 0.4262 0.88896 0.0
C10 C 0.24662 0.46553 1.00797 0.0
C11 C 0.22962 0.38094 0.93194 0.0
C12 C 0.23158 0.35803 0.9381 0.0
C13 C 0.23232 0.34622 0.86764 0.0
C14 C 0.23992 0.32824 0.86886 0.0
C15 C 0.24694 0.32173 0.94072 0.0
C16 C 0.24427 0.33214 0.01215 0.0
C17 C 0.23672 0.35023 0.01086 0.0
C18 C 0.21412 0.41577 0.15461 0.0
C19 C 0.1551 0.37786 0.0358 0.0
O20 O 0.19169 0.45995 0.13619 0.0
O21 O 0.16355 0.44974 0.0438 0.0
O22 O 0.20573 0.43219 0.93646 0.0
O23 O 0.17006 0.42737 0.92622 0.0
O24 O 0.22772 0.46508 0.04668 0.0
O25 O 0.2437 0.44529 0.97064 0.0
O26 O 0.20766 0.37863 0.91709 0.0
O27 O 0.24264 0.39882 0.98304 0.0
O28 O 0.19658 0.41048 0.10641 0.0
O29 O 0.23123 0.41329 0.118 0.0
O30 O 0.17374 0.3779 0.99563 0.0
O31 O 0.15853 0.39813 0.07393 0.0
H32 H 0.15623 0.48932 0.18611 0.0
H33 H 0.16678 0.53307 0.16861 0.0
H34 H 0.21928 0.54201 0.98271 0.0
H35 H 0.2089 0.4983 1.00189 0.0
H36 H 0.22848 0.35199 0.81089 0.0
H37 H 0.24146 0.32031 0.81301 0.0
H38 H 0.24967 0.32761 0.06841 0.0
H39 H 0.23633 0.35913 0.06606 0.0
Tb40 Tb 0.75827 0.19294 0.03775 0.0
Tb41 Tb 0.81362 0.21571 1.00058 0.0
C42 C 0.71635 0.18077 0.09916 0.0
C43 C 0.69723 0.18835 0.09242 0.0
C44 C 0.67643 0.17752 0.14332 0.0
C45 C 0.65716 0.18315 0.13476 0.0
C46 C 0.6583 0.19969 0.0748 0.0
C47 C 0.67956 0.211 0.02497 0.0
C48 C 0.69888 0.20535 0.0337 0.0
C49 C 0.76947 0.19551 0.88485 0.0
C50 C 0.7916 0.25193 0.01407 0.0
C51 C 0.85592 0.22968 0.93832 0.0
C52 C 0.87995 0.23005 0.94985 0.0
C53 C 0.89121 0.22544 0.88435 0.0
C54 C 0.91606 0.23055 0.88859 0.0
C55 C 0.93029 0.24059 0.9584 0.0
C56 C 0.91841 0.24371 0.02558 0.0
C57 C 0.8935 0.23848 0.0214 0.0
C58 C 0.8026 0.21247 0.15391 0.0
C59 C 0.77875 0.15616 0.02 0.0
O60 O 0.73785 0.19718 0.13079 0.0
O61 O 0.7192 0.16989 0.03629 0.0
O62 O 0.78189 0.2114 0.93735 0.0
O63 O 0.74838 0.17871 0.91537 0.0
O64 O 0.7714 0.23322 0.04729 0.0
O65 O 0.80853 0.24798 0.97828 0.0
O66 O 0.83581 0.20828 0.92119 0.0
O67 O 0.85118 0.24334 0.98719 0.0
O68 O 0.7901 0.19705 0.1005 0.0
O69 O 0.82395 0.22889 0.12399 0.0
O70 O 0.79931 0.17487 0.98726 0.0
O71 O 0.76235 0.16038 0.05787 0.0
H72 H 0.67493 0.16441 0.18913 0.0
H73 H 0.64133 0.17449 0.17514 0.0
H74 H 0.68097 0.22367 0.97787 0.0
H75 H 0.71486 0.21387 0.99379 0.0
H76 H 0.88116 0.219 0.82852 0.0
H77 H 0.92439 0.2274 0.83622 0.0
H78 H 0.92874 0.25156 0.08018 0.0
H79 H 0.88531 0.24224 0.07295 0.0
Tb80 Tb 0.56539 0.7532 0.03375 0.0
Tb81 Tb 0.59923 0.80831 0.99396 0.0
C82 C 0.53571 0.71147 0.09655 0.0
C83 C 0.50964 0.69117 0.08616 0.0
C84 C 0.49951 0.67118 0.14029 0.0
C85 C 0.47557 0.65054 0.12802 0.0
C86 C 0.4613 0.64948 0.06108 0.0
C87 C 0.47128 0.66998 1.00805 0.0
C88 C 0.4953 0.69066 0.02046 0.0
C89 C 0.57297 0.76368 0.8798 0.0
C90 C 0.54143 0.78799 0.01297 0.0
C91 C 0.62754 0.84995 0.92759 0.0
C92 C 0.64993 0.87502 0.93741 0.0
C93 C 0.66291 0.88809 0.86896 0.0
C94 C 0.6804 0.91376 0.87257 0.0
C95 C 0.68527 0.92691 0.94489 0.0
C96 C 0.67366 0.91338 0.01466 0.0
C97 C 0.65602 0.88763 0.01092 0.0
C98 C 0.59237 0.79806 0.14813 0.0
C99 C 0.62168 0.77165 1.0094 0.0
O100 O 0.53905 0.73296 0.1233 0.0
O101 O 0.55097 0.71436 0.0381 0.0
O102 O 0.57073 0.77674 0.93284 0.0
O103 O 0.56771 0.74231 0.91049 0.0
O104 O 0.53958 0.76778 0.0473 0.0
O105 O 0.56209 0.80406 0.97436 0.0
O106 O 0.63052 0.8304 0.92008 0.0
O107 O 0.60803 0.84518 0.97098 0.0
O108 O 0.59415 0.78488 0.09453 0.0
O109 O 0.59826 0.81965 0.11779 0.0
O110 O 0.62365 0.79184 0.97355 0.0
O111 O 0.60185 0.75694 0.05327 0.0
H112 H 0.51032 0.67131 0.19139 0.0
H113 H 0.46828 0.63532 0.17078 0.0
H114 H 0.46089 0.66969 0.95566 0.0
H115 H 0.50291 0.70596 0.9779 0.0
H116 H 0.65843 0.87875 0.81164 0.0
H117 H 0.68926 0.9236 0.81802 0.0
H118 H 0.67692 0.923 0.07117 0.0
H119 H 0.64614 0.87793 0.06453 0.0
Tb120 Tb 0.81695 0.56842 0.04256 0.0
Tb121 Tb 0.79161 0.59849 1.0042 0.0
C122 C 0.83066 0.5397 0.10294 0.0
C123 C 0.82313 0.51295 0.09672 0.0
C124 C 0.82865 0.50141 0.15927 0.0
C125 C 0.82263 0.47631 0.15325 0.0
C126 C 0.81103 0.46227 0.08428 0.0
C127 C 0.80519 0.47384 0.02205 0.0
C128 C 0.8111 0.49894 0.02836 0.0
C129 C 0.81272 0.57531 0.88926 0.0
C130 C 0.75763 0.5405 0.02554 0.0
C131 C 0.77583 0.62503 0.93971 0.0
C132 C 0.77624 0.64924 0.94485 0.0
C133 C 0.77653 0.66148 0.87412 0.0
C134 C 0.77157 0.68136 0.87516 0.0
C135 C 0.76607 0.68934 0.9471 0.0
C136 C 0.76756 0.6782 0.01859 0.0
C137 C 0.77257 0.65831 0.0175 0.0
C138 C 0.79599 0.5921 0.15778 0.0
C139 C 0.85148 0.62591 0.02252 0.0
O140 O 0.81452 0.54478 0.13678 0.0
O141 O 0.8408 0.55329 0.03925 0.0
O142 O 0.79688 0.57138 0.94252 0.0
O143 O 0.83064 0.57278 0.9196 0.0
O144 O 0.77723 0.54055 0.05797 0.0
O145 O 0.76016 0.56039 0.98666 0.0
O146 O 0.79623 0.62513 0.91654 0.0
O147 O 0.76411 0.60883 0.99665 0.0
O148 O 0.81157 0.59557 0.10416 0.0
O149 O 0.77854 0.59546 0.12767 0.0
O150 O 0.83201 0.62666 0.99104 0.0
O151 O 0.84855 0.60574 0.06032 0.0
H152 H 0.83794 0.51194 0.21246 0.0
H153 H 0.82758 0.46805 0.20191 0.0
H154 H 0.79597 0.46346 0.96863 0.0
H155 H 0.80651 0.50748 0.9796 0.0
H156 H 0.77929 0.6548 0.81742 0.0
H157 H 0.77104 0.68982 0.81919 0.0
H158 H 0.7633 0.68374 0.07501 0.0
H159 H 0.77224 0.64919 0.07302 0.0
Tb160 Tb 0.24862 0.81138 0.04046 0.0
Tb161 Tb 0.19477 0.78883 0.99603 0.0
C162 C 0.29011 0.82306 0.1045 0.0
C163 C 0.30966 0.81613 0.09599 0.0
C164 C 0.33038 0.82683 0.14722 0.0
C165 C 0.34995 0.82171 0.13739 0.0
C166 C 0.3492 0.8058 0.07583 0.0
C167 C 0.32807 0.79469 0.02546 0.0
C168 C 0.30845 0.79983 0.03544 0.0
C169 C 0.24032 0.81227 0.8856 0.0
C170 C 0.21685 0.75303 1.00509 0.0
C171 C 0.15337 0.77569 0.9287 0.0
C172 C 0.12926 0.77527 0.93611 0.0
C173 C 0.11753 0.77685 0.86659 0.0
C174 C 0.09233 0.77063 0.86785 0.0
C175 C 0.07835 0.76263 0.93877 0.0
C176 C 0.09074 0.76306 1.00971 0.0
C177 C 0.11599 0.76929 1.00839 0.0
C178 C 0.20282 0.7883 0.15129 0.0
C179 C 0.22759 0.84766 0.02942 0.0
O180 O 0.26844 0.80572 0.13242 0.0
O181 O 0.28761 0.83506 0.04418 0.0
O182 O 0.22733 0.7948 0.9334 0.0
O183 O 0.26009 0.82895 0.92258 0.0
O184 O 0.23602 0.77111 0.04411 0.0
O185 O 0.20076 0.75762 0.96698 0.0
O186 O 0.17372 0.79716 0.91466 0.0
O187 O 0.15726 0.76164 0.97844 0.0
O188 O 0.21596 0.80548 0.10288 0.0
O189 O 0.18272 0.77203 0.1148 0.0
O190 O 0.20809 0.82953 0.99104 0.0
O191 O 0.24352 0.84296 0.06799 0.0
H192 H 0.33156 0.8394 0.19439 0.0
H193 H 0.36568 0.8302 0.17816 0.0
H194 H 0.32696 0.78251 0.97713 0.0
H195 H 0.29256 0.79145 0.9952 0.0
H196 H 0.1274 0.7814 0.81021 0.0
H197 H 0.08343 0.77085 0.81246 0.0
H198 H 0.08048 0.75687 0.06523 0.0
H199 H 0.12464 0.76793 0.0629 0.0
Tb200 Tb 0.43945 0.24936 0.02856 0.0
Tb201 Tb 0.40755 0.19403 0.99062 0.0
C202 C 0.46893 0.29161 0.08805 0.0
C203 C 0.49495 0.31179 0.07431 0.0
C204 C 0.50951 0.32603 0.13891 0.0
C205 C 0.53381 0.34611 0.12674 0.0
C206 C 0.54392 0.3524 0.04953 0.0
C207 C 0.52941 0.33781 0.98497 0.0
C208 C 0.50518 0.31759 0.99728 0.0
C209 C 0.43139 0.23835 0.87521 0.0
C210 C 0.46561 0.21649 1.00646 0.0
C211 C 0.3803 0.15199 0.92562 0.0
C212 C 0.35727 0.12741 0.93422 0.0
C213 C 0.34596 0.11356 0.86518 0.0
C214 C 0.32813 0.08802 0.8701 0.0
C215 C 0.32128 0.07586 0.94432 0.0
C216 C 0.33109 0.09026 0.0139 0.0
C217 C 0.34905 0.11586 1.0089 0.0
C218 C 0.41515 0.20474 0.14423 0.0
C219 C 0.38209 0.22799 0.01198 0.0
O220 O 0.46598 0.27049 0.11675 0.0
O221 O 0.45285 0.28802 0.03147 0.0
O222 O 0.43483 0.226 0.92797 0.0
O223 O 0.43552 0.25938 0.90573 0.0
O224 O 0.46667 0.23638 0.0407 0.0
O225 O 0.44511 0.1998 0.96865 0.0
O226 O 0.37825 0.17179 0.91045 0.0
O227 O 0.39842 0.15674 0.97564 0.0
O228 O 0.41211 0.21727 0.09115 0.0
O229 O 0.41031 0.18344 0.1139 0.0
O230 O 0.38066 0.20785 0.97746 0.0
O231 O 0.40249 0.24424 0.051 0.0
H232 H 0.50193 0.32183 0.19874 0.0
H233 H 0.54446 0.35711 0.17757 0.0
H234 H 0.53683 0.34201 0.92497 0.0
H235 H 0.49434 0.3067 0.94653 0.0
H236 H 0.35209 0.1221 0.80702 0.0
H237 H 0.32066 0.07747 0.81557 0.0
H238 H 0.32627 0.08138 0.07189 0.0
H239 H 0.35762 0.1262 0.06301 0.0
C240 C 0.36472 0.25666 0.03067 0.0
C241 C 0.36084 0.23295 1.00776 0.0
C242 C 0.34563 0.26249 0.02317 0.0
C243 C 0.32203 0.24475 0.99291 0.0
C244 C 0.31768 0.22068 0.97279 0.0
C245 C 0.33704 0.2149 0.97921 0.0
C246 C 0.30209 0.25147 0.9822 0.0
C247 C 0.3077 0.27421 0.95393 0.0
C248 C 0.28951 0.28331 0.94602 0.0
C249 C 0.29424 0.30169 0.88848 0.0
C250 C 0.27963 0.31321 0.88489 0.0
C251 C 0.26012 0.30695 0.93976 0.0
H252 H 0.26559 0.26251 0.0455 0.0
C253 C 0.25496 0.28815 0.99658 0.0
C254 C 0.26941 0.27627 0.99937 0.0
H255 H 0.24007 0.28299 0.03972 0.0
H256 H 0.38274 0.27104 0.05319 0.0
H257 H 0.34938 0.28098 0.0412 0.0
H258 H 0.29954 0.20661 0.95008 0.0
H259 H 0.33341 0.19643 0.96151 0.0
H260 H 0.28274 0.23744 0.99508 0.0
H261 H 0.32679 0.28694 0.93399 0.0
H262 H 0.30975 0.30764 0.84722 0.0
H263 H 0.28442 0.32791 0.84127 0.0
C264 C 0.12136 0.33696 0.97845 0.0
C265 C 0.1299 0.35511 0.03915 0.0
C266 C 0.09627 0.3174 0.97718 0.0
C267 C 0.07939 0.31559 0.03714 0.0
C268 C 0.08847 0.3329 0.10008 0.0
C269 C 0.11331 0.35254 0.10074 0.0
C270 C 0.05206 0.29673 0.03539 0.0
C271 C 0.03895 0.28733 0.96753 0.0
C272 C 0.01094 0.27285 0.96487 0.0
C273 C 0.99883 0.2738 0.89524 0.0
C274 C 0.97269 0.26264 0.89241 0.0
C275 C 0.95787 0.24995 0.95902 0.0
H276 H 0.00463 0.25715 0.08422 0.0
C277 C 0.9699 0.24788 0.02749 0.0
C278 C 0.99612 0.25913 0.03039 0.0
H279 H 0.95908 0.23777 0.07927 0.0
H280 H 0.13376 0.33843 0.93035 0.0
H281 H 0.09014 0.30397 0.92888 0.0
H282 H 0.07602 0.33184 0.14751 0.0
H283 H 0.11937 0.36605 0.14889 0.0
H284 H 0.04201 0.29301 0.0914 0.0
H285 H 0.04877 0.29289 0.91094 0.0
H286 H 0.0097 0.28408 0.84368 0.0
H287 H 0.96422 0.26494 0.8389 0.0
C288 C 0.74926 0.11011 0.03402 0.0
C289 C 0.77344 0.12982 0.01495 0.0
C290 C 0.74323 0.08511 0.02651 0.0
C291 C 0.76123 0.07904 1.00008 0.0
C292 C 0.78568 0.09862 0.98347 0.0
C293 C 0.79167 0.12384 0.98985 0.0
C294 C 0.75447 0.0523 0.99029 0.0
C295 C 0.73202 0.0352 0.96014 0.0
C296 C 0.723 0.0079 0.95265 0.0
C297 C 0.70547 0.99435 0.8929 0.0
C298 C 0.69414 0.96824 0.88885 0.0
C299 C 0.69971 0.95488 0.94546 0.0
H300 H 0.74239 0.00458 0.05582 0.0
C301 C 0.71759 0.96841 1.00478 0.0
C302 C 0.72931 0.99473 1.00802 0.0
H303 H 0.7222 0.9586 0.04931 0.0
H304 H 0.73471 0.11391 0.05373 0.0
H305 H 0.72441 0.07049 0.04184 0.0
H306 H 0.79995 0.0944 0.96376 0.0
H307 H 0.81049 0.13858 0.97512 0.0
H308 H 0.76829 0.04688 1.00548 0.0
H309 H 0.71954 0.04161 0.93794 0.0
H310 H 0.70007 0.00398 0.85004 0.0
H311 H 0.68015 0.9584 0.84322 0.0
C312 C 0.73815 0.70423 0.88937 0.0
C313 C 0.75604 0.707 0.94671 0.0
C314 C 0.72627 0.71852 0.89366 0.0
C315 C 0.73187 0.73592 0.95562 0.0
C316 C 0.75076 0.7398 1.0103 0.0
C317 C 0.76258 0.72532 1.00638 0.0
C318 C 0.71717 0.74898 0.96652 0.0
C319 C 0.6922 0.73685 0.95366 0.0
C320 C 0.67561 0.74731 0.97187 0.0
C321 C 0.65117 0.73061 0.99792 0.0
C322 C 0.63418 0.73892 0.0119 0.0
C323 C 0.64094 0.76411 0.99838 0.0
H324 H 0.70145 0.78594 0.93833 0.0
C325 C 0.66545 0.78101 0.97206 0.0
C326 C 0.68279 0.77272 0.95968 0.0
H327 H 0.67116 0.80051 0.96085 0.0
H328 H 0.73248 0.69022 0.8429 0.0
H329 H 0.71226 0.71552 0.84929 0.0
H330 H 0.7556 0.75327 0.05815 0.0
H331 H 0.7765 0.72815 0.05087 0.0
H332 H 0.72634 0.76762 0.99286 0.0
H333 H 0.68291 0.71724 0.93545 0.0
H334 H 0.64511 0.71093 1.00732 0.0
H335 H 0.61541 0.72528 0.03137 0.0
C336 C 0.03708 0.75466 0.997 0.0
C337 C 0.05049 0.75054 0.93664 0.0
C338 C 0.01075 0.7406 0.99928 0.0
C339 C 0.99745 0.72196 0.94168 0.0
C340 C 0.01085 0.71848 0.88021 0.0
C341 C 0.03699 0.73269 0.87731 0.0
C342 C 0.97023 0.7036 0.9492 0.0
C343 C 0.95332 0.70827 0.98461 0.0
C344 C 0.92706 0.68771 0.997 0.0
C345 C 0.90666 0.69153 0.98312 0.0
C346 C 0.8819 0.67157 0.9915 0.0
C347 C 0.87727 0.64772 0.01595 0.0
H348 H 0.93767 0.66065 0.03604 0.0
C349 C 0.89782 0.64434 0.03252 0.0
C350 C 0.92234 0.66401 0.02295 0.0
H351 H 0.89505 0.62629 0.0516 0.0
H352 H 0.04697 0.76828 0.04354 0.0
H353 H 1.00101 0.74342 0.04837 0.0
H354 H 1.00109 0.70409 0.83556 0.0
H355 H 0.04668 0.72869 0.83074 0.0
H356 H 0.96377 0.68503 0.92413 0.0
H357 H 0.95857 0.72718 1.00339 0.0
H358 H 0.90988 0.70973 0.96382 0.0
H359 H 0.86646 0.6748 0.97869 0.0
C360 C 0.25523 0.89335 0.05788 0.0
C361 C 0.23235 0.87383 0.02835 0.0
C362 C 0.26122 0.91835 0.0509 0.0
C363 C 0.24443 0.92453 0.01457 0.0
C364 C 0.221 0.90507 0.98862 0.0
C365 C 0.2151 0.8799 0.99462 0.0
C366 C 0.25162 0.95124 1.00197 0.0
C367 C 0.27494 0.96813 0.9775 0.0
C368 C 0.28403 0.99523 0.96457 0.0
C369 C 0.30311 0.00811 0.9084 0.0
C370 C 0.31429 0.03409 0.89985 0.0
C371 C 0.30698 0.04796 0.94835 0.0
H372 H 0.26166 0.99952 0.05655 0.0
C373 C 0.28757 0.03508 1.00395 0.0
C374 C 0.27601 0.00887 0.0116 0.0
H375 H 0.28163 0.04532 0.04231 0.0
H376 H 0.26895 0.88945 0.0847 0.0
H377 H 0.27915 0.93291 0.0734 0.0
H378 H 0.20765 0.90938 0.96113 0.0
H379 H 0.19725 0.8653 0.97173 0.0
H380 H 0.23741 0.95669 1.00858 0.0
H381 H 0.28802 0.96161 0.96342 0.0
H382 H 0.30979 0.99808 0.87199 0.0
H383 H 0.32949 0.04346 0.85746 0.0
C384 C 0.23032 0.72212 0.04436 0.0
C385 C 0.2138 0.72753 1.00236 0.0
C386 C 0.22656 0.6977 0.04584 0.0
C387 C 0.20624 0.67812 1.00465 0.0
C388 C 0.18997 0.68367 0.9619 0.0
C389 C 0.1937 0.70806 0.96057 0.0
C390 C 0.20039 0.65148 1.00864 0.0
C391 C 0.21693 0.64432 0.03152 0.0
C392 C 0.21033 0.61755 0.03966 0.0
C393 C 0.22963 0.6116 0.03807 0.0
C394 C 0.2243 0.58681 0.0484 0.0
C395 C 0.19951 0.56737 0.06135 0.0
H396 H 0.17012 0.60183 0.05699 0.0
C397 C 0.18019 0.57332 0.06315 0.0
C398 C 0.18551 0.59808 0.05282 0.0
H399 H 0.16086 0.5588 0.07239 0.0
H400 H 0.24592 0.73665 0.07766 0.0
H401 H 0.23921 0.69428 0.08136 0.0
H402 H 0.17407 0.66899 0.93003 0.0
H403 H 0.18057 0.71153 0.92772 0.0
H404 H 0.18167 0.63727 0.99034 0.0
H405 H 0.23631 0.65846 0.04295 0.0
H406 H 0.24895 0.62621 0.02902 0.0
H407 H 0.23968 0.58295 0.04775 0.0
C408 C 0.51012 0.23099 0.04693 0.0
C409 C 0.48814 0.21355 1.00696 0.0
C410 C 0.53108 0.22773 0.04983 0.0
C411 C 0.53059 0.20699 0.01225 0.0
C412 C 0.50864 0.18966 0.97212 0.0
C413 C 0.4877 0.19291 0.96927 0.0
C414 C 0.55188 0.20191 0.01706 0.0
C415 C 0.57569 0.21937 0.03572 0.0
C416 C 0.5965 0.21367 0.04362 0.0
C417 C 0.62146 0.23335 0.03668 0.0
C418 C 0.64152 0.22887 0.04608 0.0
C419 C 0.63708 0.20459 0.06348 0.0
H420 H 0.57325 0.17379 0.06965 0.0
C421 C 0.61211 0.18492 0.0707 0.0
C422 C 0.59208 0.18938 0.06131 0.0
H423 H 0.60798 0.16594 0.08339 0.0
H424 H 0.51106 0.24701 0.07716 0.0
H425 H 0.54725 0.24118 0.08338 0.0
H426 H 0.5076 0.17341 0.94314 0.0
H427 H 0.47108 0.17906 0.93813 0.0
H428 H 0.54767 0.18299 1.00243 0.0
H429 H 0.58051 0.23881 0.0433 0.0
H430 H 0.62547 0.2523 0.02402 0.0
H431 H 0.66051 0.24452 0.04113 0.0
C432 C 0.416 0.62866 0.01786 0.0
C433 C 0.43651 0.62668 0.04575 0.0
C434 C 0.39266 0.60709 1.0047 0.0
C435 C 0.38934 0.58302 0.01939 0.0
C436 C 0.41002 0.58111 0.04541 0.0
C437 C 0.43326 0.60261 0.0587 0.0
C438 C 0.36486 0.55945 1.00779 0.0
C439 C 0.34241 0.5584 1.0092 0.0
C440 C 0.31794 0.53446 1.00482 0.0
C441 C 0.29658 0.53371 0.03773 0.0
C442 C 0.27343 0.51144 0.03786 0.0
C443 C 0.27098 0.48936 1.00422 0.0
H444 H 0.33113 0.51249 0.94056 0.0
C445 C 0.29213 0.49024 0.96889 0.0
C446 C 0.31536 0.51254 0.969 0.0
H447 H 0.29085 0.47363 0.9418 0.0
H448 H 0.41787 0.64691 1.00716 0.0
H449 H 0.37747 0.60945 0.98236 0.0
H450 H 0.40815 0.56286 0.05632 0.0
H451 H 0.44879 0.60035 0.0785 0.0
H452 H 0.36542 0.5421 1.00385 0.0
H453 H 0.34168 0.57543 0.02022 0.0
H454 H 0.2979 0.55032 0.06494 0.0
H455 H 0.25749 0.51154 0.06506 0.0
C456 C 0.81047 0.42709 1.00586 0.0
C457 C 0.80548 0.43584 0.07707 0.0
C458 C 0.80615 0.40251 1.00017 0.0
C459 C 0.79678 0.3861 0.06582 0.0
C460 C 0.79122 0.39468 0.13616 0.0
C461 C 0.79563 0.41927 0.14194 0.0
C462 C 0.79211 0.35985 0.06319 0.0
C463 C 0.80385 0.35199 0.01264 0.0
C464 C 0.79998 0.32602 0.01296 0.0
C465 C 0.81874 0.32193 0.98072 0.0
C466 C 0.81602 0.29791 0.98068 0.0
C467 C 0.79435 0.27733 0.01248 0.0
H468 H 0.76271 0.30736 0.06608 0.0
C469 C 0.77532 0.28129 0.0433 0.0
C470 C 0.77803 0.3053 0.04324 0.0
H471 H 0.75822 0.26582 0.06737 0.0
H472 H 0.81812 0.4394 0.95483 0.0
H473 H 0.80999 0.39647 0.94406 0.0
H474 H 0.78368 0.3824 0.18734 0.0
H475 H 0.79119 0.42527 0.1972 0.0
H476 H 0.77964 0.34703 0.10825 0.0
H477 H 0.81803 0.36541 0.97242 0.0
H478 H 0.83574 0.33744 0.95628 0.0
H479 H 0.83101 0.29554 0.9562 0.0
C480 C 0.39549 0.82095 0.07249 0.0
C481 C 0.3706 0.80122 0.06381 0.0
C482 C 0.41566 0.81669 0.06302 0.0
C483 C 0.41145 0.79257 0.04386 0.0
C484 C 0.38657 0.77287 0.03518 0.0
C485 C 0.36638 0.77714 0.04465 0.0
C486 C 0.43233 0.78696 0.03653 0.0
C487 C 0.45637 0.80456 0.02122 0.0
C488 C 0.47751 0.79923 0.01747 0.0
C489 C 0.49979 0.81646 0.97858 0.0
C490 C 0.52046 0.81274 0.97636 0.0
C491 C 0.51939 0.79173 0.01356 0.0
H492 H 0.46004 0.76486 0.08772 0.0
C493 C 0.49713 0.77449 0.05266 0.0
C494 C 0.47647 0.77821 0.05489 0.0
H495 H 0.49569 0.75819 0.08253 0.0
H496 H 0.39944 0.83978 0.08655 0.0
H497 H 0.4344 0.83229 0.07259 0.0
H498 H 0.38271 0.75404 0.02131 0.0
H499 H 0.34745 0.76145 0.03854 0.0
H500 H 0.42738 0.76741 0.04187 0.0
H501 H 0.4609 0.82369 1.0086 0.0
H502 H 0.50125 0.83294 0.94987 0.0
H503 H 0.53733 0.82645 0.94595 0.0
C504 C 0.71192 0.51497 0.98881 0.0
C505 C 0.73281 0.5173 0.03052 0.0
C506 C 0.68844 0.4931 0.99569 0.0
C507 C 0.68543 0.47317 0.04471 0.0
C508 C 0.7063 0.47563 0.08644 0.0
C509 C 0.72973 0.49731 0.07906 0.0
C510 C 0.66075 0.45005 0.05725 0.0
C511 C 0.64205 0.44071 1.00314 0.0
C512 C 0.61728 0.41748 0.0157 0.0
C513 C 0.59728 0.41286 0.9648 0.0
C514 C 0.57359 0.3916 0.97499 0.0
C515 C 0.56932 0.37442 0.0365 0.0
H516 H 0.62799 0.40187 0.11494 0.0
C517 C 0.58937 0.37868 0.08646 0.0
C518 C 0.61311 0.39982 0.07597 0.0
H519 H 0.58677 0.36548 0.13336 0.0
H520 H 0.71363 0.53009 0.95129 0.0
H521 H 0.67265 0.4922 0.96424 0.0
H522 H 0.7045 0.46068 0.12503 0.0
H523 H 0.74535 0.49847 0.11243 0.0
H524 H 0.65843 0.44036 0.11321 0.0
H525 H 0.64478 0.45055 0.94711 0.0
H526 H 0.59989 0.42594 0.9175 0.0
H527 H 0.55845 0.3889 0.93577 0.0
C528 C 0.2103 0.42545 0.76457 0.0
C529 C 0.18883 0.42337 0.80151 0.0
C530 C 0.21124 0.42334 0.68155 0.0
C531 C 0.19065 0.41915 0.63348 0.0
C532 C 0.16908 0.41663 0.67117 0.0
C533 C 0.16819 0.41879 0.75392 0.0
C534 C 0.19041 0.41663 0.54465 0.0
C535 C 0.21117 0.42461 0.49907 0.0
C536 C 0.21094 0.42211 0.41025 0.0
C537 C 0.23241 0.42433 0.37271 0.0
C538 C 0.23336 0.42233 0.28994 0.0
C539 C 0.21292 0.41824 0.24216 0.0
H540 H 0.17385 0.41721 0.38766 0.0
C541 C 0.19152 0.41639 0.27898 0.0
C542 C 0.19051 0.41832 0.36207 0.0
H543 H 0.17555 0.41344 0.24358 0.0
H544 H 0.22642 0.42873 0.79984 0.0
H545 H 0.228 0.42468 0.65596 0.0
H546 H 0.15282 0.41317 0.63633 0.0
H547 H 0.15131 0.41695 0.78062 0.0
H548 H 0.17216 0.40801 0.5161 0.0
H549 H 0.22944 0.43321 0.52755 0.0
H550 H 0.24854 0.42747 0.40766 0.0
H551 H 0.25017 0.42397 0.26334 0.0
C552 C 0.75924 0.18066 0.74418 0.0
C553 C 0.77592 0.19815 0.79949 0.0
C554 C 0.76502 0.18352 0.66295 0.0
C555 C 0.78764 0.20407 0.63539 0.0
C556 C 0.80453 0.22117 0.69131 0.0
C557 C 0.79871 0.21832 0.77245 0.0
C558 C 0.79462 0.20809 0.54951 0.0
C559 C 0.77783 0.19845 0.4895 0.0
C560 C 0.78481 0.20265 0.40366 0.0
C561 C 0.76809 0.1855 0.34754 0.0
C562 C 0.77381 0.18868 0.26634 0.0
C563 C 0.79632 0.20927 0.23944 0.0
H564 H 0.82025 0.23769 0.41694 0.0
C565 C 0.81289 0.22672 0.29504 0.0
C566 C 0.80721 0.22352 0.37632 0.0
H567 H 0.83027 0.24291 0.27571 0.0
H568 H 0.74166 0.16477 0.76365 0.0
H569 H 0.75184 0.16938 0.62257 0.0
H570 H 0.82219 0.237 0.67209 0.0
H571 H 0.812 0.23198 0.81394 0.0
H572 H 0.81442 0.21985 0.53593 0.0
H573 H 0.75802 0.18667 0.50297 0.0
H574 H 0.7506 0.16941 0.36664 0.0
H575 H 0.76066 0.17496 0.2247 0.0
C576 C 0.57647 0.75288 0.73866 0.0
C577 C 0.5769 0.77012 0.79434 0.0
C578 C 0.57975 0.75878 0.65748 0.0
C579 C 0.58343 0.7821 0.63025 0.0
C580 C 0.58435 0.79947 0.68655 0.0
C581 C 0.58103 0.79353 0.76764 0.0
C582 C 0.58703 0.78936 0.54445 0.0
C583 C 0.57946 0.77272 0.48381 0.0
C584 C 0.58297 0.77996 0.39801 0.0
C585 C 0.58208 0.76262 0.34167 0.0
C586 C 0.58514 0.76847 0.26051 0.0
C587 C 0.58894 0.79176 0.23375 0.0
H588 H 0.58641 0.81683 0.41145 0.0
C589 C 0.58944 0.80901 0.28954 0.0
C590 C 0.58643 0.8032 0.3708 0.0
H591 H 0.59208 0.82701 0.27035 0.0
H592 H 0.57361 0.73479 0.75785 0.0
H593 H 0.57976 0.74513 0.6169 0.0
H594 H 0.58742 0.81767 0.66768 0.0
H595 H 0.58163 0.80727 0.80939 0.0
H596 H 0.59603 0.8093 0.53151 0.0
H597 H 0.57047 0.75278 0.49673 0.0
H598 H 0.57921 0.7445 0.36056 0.0
H599 H 0.58458 0.75476 0.21876 0.0
C600 C 0.82782 0.5811 0.74868 0.0
C601 C 0.80958 0.57865 0.80384 0.0
C602 C 0.82475 0.58384 0.66748 0.0
C603 C 0.80322 0.58405 0.63968 0.0
C604 C 0.78526 0.58209 0.69542 0.0
C605 C 0.78834 0.57932 0.77659 0.0
C606 C 0.79904 0.58691 0.55379 0.0
C607 C 0.81009 0.58145 0.49361 0.0
C608 C 0.80588 0.58424 0.4077 0.0
C609 C 0.82381 0.58613 0.35198 0.0
C610 C 0.82065 0.58868 0.27073 0.0
C611 C 0.79933 0.58917 0.24336 0.0
H612 H 0.76958 0.5821 0.41998 0.0
C613 C 0.78115 0.58687 0.29854 0.0
C614 C 0.78432 0.58436 0.37983 0.0
H615 H 0.76439 0.58692 0.27885 0.0
H616 H 0.84453 0.58094 0.76829 0.0
H617 H 0.83951 0.58618 0.62736 0.0
H618 H 0.76864 0.58246 0.67604 0.0
H619 H 0.77404 0.57761 0.81793 0.0
H620 H 0.78603 0.5935 0.5404 0.0
H621 H 0.82309 0.57485 0.507 0.0
H622 H 0.84048 0.58585 0.37143 0.0
H623 H 0.83494 0.59035 0.22943 0.0
C624 C 0.22701 0.80978 0.27557 0.0
C625 C 0.20648 0.78924 0.23881 0.0
C626 C 0.22994 0.81054 0.35866 0.0
C627 C 0.21231 0.79072 0.40687 0.0
C628 C 0.19207 0.77008 0.36937 0.0
C629 C 0.18913 0.76938 0.28663 0.0
C630 C 0.21447 0.79023 0.49568 0.0
C631 C 0.22856 0.81069 0.54129 0.0
C632 C 0.23072 0.81019 0.63011 0.0
C633 C 0.25089 0.83087 0.66774 0.0
C634 C 0.25385 0.8315 0.75047 0.0
C635 C 0.23661 0.81152 0.79814 0.0
H636 H 0.19692 0.77427 0.65265 0.0
C637 C 0.21614 0.79096 0.76126 0.0
C638 C 0.21317 0.79027 0.67822 0.0
H639 H 0.2024 0.77539 0.79658 0.0
H640 H 0.24082 0.82527 0.24013 0.0
H641 H 0.24624 0.8265 0.3842 0.0
H642 H 0.17828 0.75442 0.40433 0.0
H643 H 0.17318 0.75322 0.26009 0.0
H644 H 0.20359 0.77207 0.52416 0.0
H645 H 0.23944 0.82885 0.51279 0.0
H646 H 0.2646 0.8466 0.63287 0.0
H647 H 0.26976 0.84768 0.77712 0.0
C648 C 0.42714 0.24859 0.73417 0.0
C649 C 0.42782 0.23191 0.78982 0.0
C650 C 0.42433 0.24275 0.65297 0.0
C651 C 0.42225 0.22007 0.62578 0.0
C652 C 0.42238 0.2032 0.68202 0.0
C653 C 0.42524 0.20908 0.76312 0.0
C654 C 0.41929 0.21298 0.53998 0.0
C655 C 0.42655 0.22972 0.47977 0.0
C656 C 0.42364 0.22266 0.39395 0.0
C657 C 0.4236 0.23959 0.33775 0.0
C658 C 0.4209 0.23381 0.25658 0.0
C659 C 0.41841 0.21103 0.22976 0.0
H660 H 0.42237 0.18678 0.40733 0.0
C661 C 0.41892 0.19426 0.28541 0.0
C662 C 0.42156 0.2 0.36668 0.0
H663 H 0.41731 0.17668 0.26614 0.0
H664 H 0.4288 0.26619 0.75337 0.0
H665 H 0.42343 0.25592 0.61231 0.0
H666 H 0.42053 0.18549 0.66309 0.0
H667 H 0.42553 0.19579 0.80486 0.0
H668 H 0.4111 0.19313 0.52669 0.0
H669 H 0.43475 0.24957 0.49308 0.0
H670 H 0.42542 0.25729 0.35675 0.0
H671 H 0.42068 0.24715 0.21489 0.0
loop_
_geom_bond_atom_site_label_1
_geom_bond_atom_site_label_2
_geom_bond_distance
_geom_bond_site_symmetry_2
_ccdc_geom_bond_type
Tb0 C2 2.809 1_556 S
Tb0 O20 2.484 1_556 S
Tb0 O21 2.440 . S
Tb0 O22 2.658 . S
Tb0 O23 2.409 . S
Tb0 O24 2.378 . S
Tb0 O28 2.325 1_556 S
Tb0 O31 2.341 . S
Tb1 C11 2.809 1_554 S
Tb1 O22 2.325 1_554 S
Tb1 O25 2.341 . S
Tb1 O26 2.484 1_554 S
Tb1 O27 2.440 . S
Tb1 O28 2.658 . S
Tb1 O29 2.409 . S
Tb1 O30 2.378 . S
C2 Tb0 2.809 1_554 S
C2 C3 1.514 . S
C2 O20 1.248 . S
C2 O21 1.266 1_554 S
C3 C2 1.514 . S
C3 C4 1.359 . S
C3 C8 1.348 1_554 S
C4 C3 1.359 . S
C4 C5 1.380 . S
C4 H32 0.929 . S
C5 C4 1.380 . S
C5 C6 1.347 . S
C5 H33 0.931 . S
C6 C5 1.347 . S
C6 C7 1.369 1_554 S
C7 C6 1.369 1_556 S
C7 C8 1.408 . S
C7 H34 0.930 . S
C8 C3 1.348 1_556 S
C8 C7 1.408 . S
C8 H35 0.930 . S
C9 O22 1.281 . S
C9 O23 1.254 . S
C10 O24 1.236 . S
C10 O25 1.266 1_556 S
C11 Tb1 2.809 1_556 S
C11 C12 1.514 . S
C11 O26 1.248 . S
C11 O27 1.266 1_556 S
C12 C11 1.514 . S
C12 C13 1.359 . S
C12 C17 1.348 1_556 S
C13 C12 1.359 . S
C13 C14 1.380 . S
C13 H36 0.929 . S
C14 C13 1.380 . S
C14 C15 1.347 . S
C14 H37 0.931 . S
C15 C14 1.347 . S
C15 C16 1.369 1_556 S
C16 C15 1.369 1_554 S
C16 C17 1.408 . S
C16 H38 0.930 . S
C17 C12 1.348 1_554 S
C17 C16 1.408 . S
C17 H39 0.930 . S
C18 O28 1.281 . S
C18 O29 1.254 . S
C19 O30 1.236 . S
C19 O31 1.266 1_554 S
O20 Tb0 2.484 1_554 S
O20 C2 1.248 . S
O21 Tb0 2.440 . S
O21 C2 1.266 1_556 S
O22 Tb0 2.658 . S
O22 Tb1 2.325 1_556 S
O22 C9 1.281 . S
O23 Tb0 2.409 . S
O23 C9 1.254 . S
O24 Tb0 2.378 . S
O24 C10 1.236 . S
O25 Tb1 2.341 . S
O25 C10 1.266 1_554 S
O26 Tb1 2.484 1_556 S
O26 C11 1.248 . S
O27 Tb1 2.440 . S
O27 C11 1.266 1_554 S
O28 Tb0 2.325 1_554 S
O28 Tb1 2.658 . S
O28 C18 1.281 . S
O29 Tb1 2.409 . S
O29 C18 1.254 . S
O30 Tb1 2.378 . S
O30 C19 1.236 . S
O31 Tb0 2.341 . S
O31 C19 1.266 1_556 S
H32 C4 0.929 . S
H33 C5 0.931 . S
H34 C7 0.930 . S
H35 C8 0.930 . S
H36 C13 0.929 . S
H37 C14 0.931 . S
H38 C16 0.930 . S
H39 C17 0.930 . S
Tb40 C42 2.809 1_556 S
Tb40 O60 2.484 1_556 S
Tb40 O61 2.440 . S
Tb40 O62 2.658 . S
Tb40 O63 2.409 . S
Tb40 O64 2.378 . S
Tb40 O68 2.325 1_556 S
Tb40 O71 2.341 . S
Tb41 C51 2.809 1_554 S
Tb41 O62 2.325 1_554 S
Tb41 O65 2.341 . S
Tb41 O66 2.484 1_554 S
Tb41 O67 2.440 . S
Tb41 O68 2.658 . S
Tb41 O69 2.409 . S
Tb41 O70 2.378 . S
C42 Tb40 2.809 1_554 S
C42 C43 1.514 . S
C42 O60 1.248 . S
C42 O61 1.266 1_554 S
C43 C42 1.514 . S
C43 C44 1.359 . S
C43 C48 1.348 1_554 S
C44 C43 1.359 . S
C44 C45 1.380 . S
C44 H72 0.929 . S
C45 C44 1.380 . S
C45 C46 1.347 . S
C45 H73 0.931 . S
C46 C45 1.347 . S
C46 C47 1.369 1_554 S
C47 C46 1.369 1_556 S
C47 C48 1.408 . S
C47 H74 0.930 . S
C48 C43 1.348 1_556 S
C48 C47 1.408 . S
C48 H75 0.930 . S
C49 O62 1.281 . S
C49 O63 1.254 . S
C50 O64 1.236 . S
C50 O65 1.266 1_556 S
C51 Tb41 2.809 1_556 S
C51 C52 1.514 . S
C51 O66 1.248 . S
C51 O67 1.266 1_556 S
C52 C51 1.514 . S
C52 C53 1.359 . S
C52 C57 1.348 1_556 S
C53 C52 1.359 . S
C53 C54 1.380 . S
C53 H76 0.929 . S
C54 C53 1.380 . S
C54 C55 1.347 . S
C54 H77 0.931 . S
C55 C54 1.347 . S
C55 C56 1.369 1_556 S
C56 C55 1.369 1_554 S
C56 C57 1.408 . S
C56 H78 0.930 . S
C57 C52 1.348 1_554 S
C57 C56 1.408 . S
C57 H79 0.930 . S
C58 O68 1.281 . S
C58 O69 1.254 . S
C59 O70 1.236 . S
C59 O71 1.266 1_554 S
O60 Tb40 2.484 1_554 S
O60 C42 1.248 . S
O61 Tb40 2.440 . S
O61 C42 1.266 1_556 S
O62 Tb40 2.658 . S
O62 Tb41 2.325 1_556 S
O62 C49 1.281 . S
O63 Tb40 2.409 . S
O63 C49 1.254 . S
O64 Tb40 2.378 . S
O64 C50 1.236 . S
O65 Tb41 2.341 . S
O65 C50 1.266 1_554 S
O66 Tb41 2.484 1_556 S
O66 C51 1.248 . S
O67 Tb41 2.440 . S
O67 C51 1.266 1_554 S
O68 Tb40 2.325 1_554 S
O68 Tb41 2.658 . S
O68 C58 1.281 . S
O69 Tb41 2.409 . S
O69 C58 1.254 . S
O70 Tb41 2.378 . S
O70 C59 1.236 . S
O71 Tb40 2.341 . S
O71 C59 1.266 1_556 S
H72 C44 0.929 . S
H73 C45 0.931 . S
H74 C47 0.930 . S
H75 C48 0.930 . S
H76 C53 0.929 . S
H77 C54 0.931 . S
H78 C56 0.930 . S
H79 C57 0.930 . S
Tb80 C82 2.809 1_556 S
Tb80 O100 2.484 1_556 S
Tb80 O101 2.440 . S
Tb80 O102 2.658 . S
Tb80 O103 2.409 . S
Tb80 O104 2.378 . S
Tb80 O108 2.325 1_556 S
Tb80 O111 2.341 . S
Tb81 C91 2.809 1_554 S
Tb81 O102 2.325 1_554 S
Tb81 O105 2.341 . S
Tb81 O106 2.484 1_554 S
Tb81 O107 2.440 . S
Tb81 O108 2.658 . S
Tb81 O109 2.409 . S
Tb81 O110 2.378 . S
C82 Tb80 2.809 1_554 S
C82 C83 1.514 . S
C82 O100 1.248 . S
C82 O101 1.266 1_554 S
C83 C82 1.514 . S
C83 C84 1.359 . S
C83 C88 1.348 1_554 S
C84 C83 1.359 . S
C84 C85 1.380 . S
C84 H112 0.929 . S
C85 C84 1.380 . S
C85 C86 1.347 . S
C85 H113 0.931 . S
C86 C85 1.347 . S
C86 C87 1.369 1_554 S
C87 C86 1.369 1_556 S
C87 C88 1.408 . S
C87 H114 0.930 . S
C88 C83 1.348 1_556 S
C88 C87 1.408 . S
C88 H115 0.930 . S
C89 O102 1.281 . S
C89 O103 1.254 . S
C90 O104 1.236 . S
C90 O105 1.266 1_556 S
C91 Tb81 2.809 1_556 S
C91 C92 1.514 . S
C91 O106 1.248 . S
C91 O107 1.266 1_556 S
C92 C91 1.514 . S
C92 C93 1.359 . S
C92 C97 1.348 1_556 S
C93 C92 1.359 . S
C93 C94 1.380 . S
C93 H116 0.929 . S
C94 C93 1.380 . S
C94 C95 1.347 . S
C94 H117 0.931 . S
C95 C94 1.347 . S
C95 C96 1.369 1_556 S
C96 C95 1.369 1_554 S
C96 C97 1.408 . S
C96 H118 0.930 . S
C97 C92 1.348 1_554 S
C97 C96 1.408 . S
C97 H119 0.930 . S
C98 O108 1.281 . S
C98 O109 1.254 . S
C99 O110 1.236 . S
C99 O111 1.266 1_554 S
O100 Tb80 2.484 1_554 S
O100 C82 1.248 . S
O101 Tb80 2.440 . S
O101 C82 1.266 1_556 S
O102 Tb80 2.658 . S
O102 Tb81 2.325 1_556 S
O102 C89 1.281 . S
O103 Tb80 2.409 . S
O103 C89 1.254 . S
O104 Tb80 2.378 . S
O104 C90 1.236 . S
O105 Tb81 2.341 . S
O105 C90 1.266 1_554 S
O106 Tb81 2.484 1_556 S
O106 C91 1.248 . S
O107 Tb81 2.440 . S
O107 C91 1.266 1_554 S
O108 Tb80 2.325 1_554 S
O108 Tb81 2.658 . S
O108 C98 1.281 . S
O109 Tb81 2.409 . S
O109 C98 1.254 . S
O110 Tb81 2.378 . S
O110 C99 1.236 . S
O111 Tb80 2.341 . S
O111 C99 1.266 1_556 S
H112 C84 0.929 . S
H113 C85 0.931 . S
H114 C87 0.930 . S
H115 C88 0.930 . S
H116 C93 0.929 . S
H117 C94 0.931 . S
H118 C96 0.930 . S
H119 C97 0.930 . S
Tb120 C122 2.809 1_556 S
Tb120 O140 2.484 1_556 S
Tb120 O141 2.440 . S
Tb120 O142 2.658 . S
Tb120 O143 2.409 . S
Tb120 O144 2.378 . S
Tb120 O148 2.325 1_556 S
Tb120 O151 2.341 . S
Tb121 C131 2.809 1_554 S
Tb121 O142 2.325 1_554 S
Tb121 O145 2.341 . S
Tb121 O146 2.484 1_554 S
Tb121 O147 2.440 . S
Tb121 O148 2.658 . S
Tb121 O149 2.409 . S
Tb121 O150 2.378 . S
C122 Tb120 2.809 1_554 S
C122 C123 1.514 . S
C122 O140 1.248 . S
C122 O141 1.266 1_554 S
C123 C122 1.514 . S
C123 C124 1.359 . S
C123 C128 1.348 1_554 S
C124 C123 1.359 . S
C124 C125 1.380 . S
C124 H152 0.929 . S
C125 C124 1.380 . S
C125 C126 1.347 . S
C125 H153 0.931 . S
C126 C125 1.347 . S
C126 C127 1.369 1_554 S
C127 C126 1.369 1_556 S
C127 C128 1.408 . S
C127 H154 0.930 . S
C128 C123 1.348 1_556 S
C128 C127 1.408 . S
C128 H155 0.930 . S
C129 O142 1.281 . S
C129 O143 1.254 . S
C130 O144 1.236 . S
C130 O145 1.266 1_556 S
C131 Tb121 2.809 1_556 S
C131 C132 1.514 . S
C131 O146 1.248 . S
C131 O147 1.266 1_556 S
C132 C131 1.514 . S
C132 C133 1.359 . S
C132 C137 1.348 1_556 S
C133 C132 1.359 . S
C133 C134 1.380 . S
C133 H156 0.929 . S
C134 C133 1.380 . S
C134 C135 1.347 . S
C134 H157 0.931 . S
C135 C134 1.347 . S
C135 C136 1.369 1_556 S
C136 C135 1.369 1_554 S
C136 C137 1.408 . S
C136 H158 0.930 . S
C137 C132 1.348 1_554 S
C137 C136 1.408 . S
C137 H159 0.930 . S
C138 O148 1.281 . S
C138 O149 1.254 . S
C139 O150 1.236 . S
C139 O151 1.266 1_554 S
O140 Tb120 2.484 1_554 S
O140 C122 1.248 . S
O141 Tb120 2.440 . S
O141 C122 1.266 1_556 S
O142 Tb120 2.658 . S
O142 Tb121 2.325 1_556 S
O142 C129 1.281 . S
O143 Tb120 2.409 . S
O143 C129 1.254 . S
O144 Tb120 2.378 . S
O144 C130 1.236 . S
O145 Tb121 2.341 . S
O145 C130 1.266 1_554 S
O146 Tb121 2.484 1_556 S
O146 C131 1.248 . S
O147 Tb121 2.440 . S
O147 C131 1.266 1_554 S
O148 Tb120 2.325 1_554 S
O148 Tb121 2.658 . S
O148 C138 1.281 . S
O149 Tb121 2.409 . S
O149 C138 1.254 . S
O150 Tb121 2.378 . S
O150 C139 1.236 . S
O151 Tb120 2.341 . S
O151 C139 1.266 1_556 S
H152 C124 0.929 . S
H153 C125 0.931 . S
H154 C127 0.930 . S
H155 C128 0.930 . S
H156 C133 0.929 . S
H157 C134 0.931 . S
H158 C136 0.930 . S
H159 C137 0.930 . S
Tb160 C162 2.809 1_556 S
Tb160 O180 2.484 1_556 S
Tb160 O181 2.440 . S
Tb160 O182 2.658 . S
Tb160 O183 2.409 . S
Tb160 O184 2.378 . S
Tb160 O188 2.325 1_556 S
Tb160 O191 2.341 . S
Tb161 C171 2.809 1_554 S
Tb161 O182 2.325 1_554 S
Tb161 O185 2.341 . S
Tb161 O186 2.484 1_554 S
Tb161 O187 2.440 . S
Tb161 O188 2.658 . S
Tb161 O189 2.409 . S
Tb161 O190 2.378 . S
C162 Tb160 2.809 1_554 S
C162 C163 1.514 . S
C162 O180 1.248 . S
C162 O181 1.266 1_554 S
C163 C162 1.514 . S
C163 C164 1.359 . S
C163 C168 1.348 1_554 S
C164 C163 1.359 . S
C164 C165 1.380 . S
C164 H192 0.929 . S
C165 C164 1.380 . S
C165 C166 1.347 . S
C165 H193 0.931 . S
C166 C165 1.347 . S
C166 C167 1.369 1_554 S
C167 C166 1.369 1_556 S
C167 C168 1.408 . S
C167 H194 0.930 . S
C168 C163 1.348 1_556 S
C168 C167 1.408 . S
C168 H195 0.930 . S
C169 O182 1.281 . S
C169 O183 1.254 . S
C170 O184 1.236 . S
C170 O185 1.266 1_556 S
C171 Tb161 2.809 1_556 S
C171 C172 1.514 . S
C171 O186 1.248 . S
C171 O187 1.266 1_556 S
C172 C171 1.514 . S
C172 C173 1.359 . S
C172 C177 1.348 1_556 S
C173 C172 1.359 . S
C173 C174 1.380 . S
C173 H196 0.929 . S
C174 C173 1.380 . S
C174 C175 1.347 . S
C174 H197 0.931 . S
C175 C174 1.347 . S
C175 C176 1.369 1_556 S
C176 C175 1.369 1_554 S
C176 C177 1.408 . S
C176 H198 0.930 . S
C177 C172 1.348 1_554 S
C177 C176 1.408 . S
C177 H199 0.930 . S
C178 O188 1.281 . S
C178 O189 1.254 . S
C179 O190 1.236 . S
C179 O191 1.266 1_554 S
O180 Tb160 2.484 1_554 S
O180 C162 1.248 . S
O181 Tb160 2.440 . S
O181 C162 1.266 1_556 S
O182 Tb160 2.658 . S
O182 Tb161 2.325 1_556 S
O182 C169 1.281 . S
O183 Tb160 2.409 . S
O183 C169 1.254 . S
O184 Tb160 2.378 . S
O184 C170 1.236 . S
O185 Tb161 2.341 . S
O185 C170 1.266 1_554 S
O186 Tb161 2.484 1_556 S
O186 C171 1.248 . S
O187 Tb161 2.440 . S
O187 C171 1.266 1_554 S
O188 Tb160 2.325 1_554 S
O188 Tb161 2.658 . S
O188 C178 1.281 . S
O189 Tb161 2.409 . S
O189 C178 1.254 . S
O190 Tb161 2.378 . S
O190 C179 1.236 . S
O191 Tb160 2.341 . S
O191 C179 1.266 1_556 S
H192 C164 0.929 . S
H193 C165 0.931 . S
H194 C167 0.930 . S
H195 C168 0.930 . S
H196 C173 0.929 . S
H197 C174 0.931 . S
H198 C176 0.930 . S
H199 C177 0.930 . S
Tb200 C202 2.809 1_556 S
Tb200 O220 2.484 1_556 S
Tb200 O221 2.440 . S
Tb200 O222 2.658 . S
Tb200 O223 2.409 . S
Tb200 O224 2.378 . S
Tb200 O228 2.325 1_556 S
Tb200 O231 2.341 . S
Tb201 C211 2.809 1_554 S
Tb201 O222 2.325 1_554 S
Tb201 O225 2.341 . S
Tb201 O226 2.484 1_554 S
Tb201 O227 2.440 . S
Tb201 O228 2.658 . S
Tb201 O229 2.409 . S
Tb201 O230 2.378 . S
C202 Tb200 2.809 1_554 S
C202 C203 1.514 . S
C202 O220 1.248 . S
C202 O221 1.266 1_554 S
C203 C202 1.514 . S
C203 C204 1.359 . S
C203 C208 1.348 1_554 S
C204 C203 1.359 . S
C204 C205 1.380 . S
C204 H232 0.929 . S
C205 C204 1.380 . S
C205 C206 1.347 . S
C205 H233 0.931 . S
C206 C205 1.347 . S
C206 C207 1.369 1_554 S
C207 C206 1.369 1_556 S
C207 C208 1.408 . S
C207 H234 0.930 . S
C208 C203 1.348 1_556 S
C208 C207 1.408 . S
C208 H235 0.930 . S
C209 O222 1.281 . S
C209 O223 1.254 . S
C210 O224 1.236 . S
C210 O225 1.266 1_556 S
C211 Tb201 2.809 1_556 S
C211 C212 1.514 . S
C211 O226 1.248 . S
C211 O227 1.266 1_556 S
C212 C211 1.514 . S
C212 C213 1.359 . S
C212 C217 1.348 1_556 S
C213 C212 1.359 . S
C213 C214 1.380 . S
C213 H236 0.929 . S
C214 C213 1.380 . S
C214 C215 1.347 . S
C214 H237 0.931 . S
C215 C214 1.347 . S
C215 C216 1.369 1_556 S
C216 C215 1.369 1_554 S
C216 C217 1.408 . S
C216 H238 0.930 . S
C217 C212 1.348 1_554 S
C217 C216 1.408 . S
C217 H239 0.930 . S
C218 O228 1.281 . S
C218 O229 1.254 . S
C219 O230 1.236 . S
C219 O231 1.266 1_554 S
O220 Tb200 2.484 1_554 S
O220 C202 1.248 . S
O221 Tb200 2.440 . S
O221 C202 1.266 1_556 S
O222 Tb200 2.658 . S
O222 Tb201 2.325 1_556 S
O222 C209 1.281 . S
O223 Tb200 2.409 . S
O223 C209 1.254 . S
O224 Tb200 2.378 . S
O224 C210 1.236 . S
O225 Tb201 2.341 . S
O225 C210 1.266 1_554 S
O226 Tb201 2.484 1_556 S
O226 C211 1.248 . S
O227 Tb201 2.440 . S
O227 C211 1.266 1_554 S
O228 Tb200 2.325 1_554 S
O228 Tb201 2.658 . S
O228 C218 1.281 . S
O229 Tb201 2.409 . S
O229 C218 1.254 . S
O230 Tb201 2.378 . S
O230 C219 1.236 . S
O231 Tb200 2.341 . S
O231 C219 1.266 1_556 S
H232 C204 0.929 . S
H233 C205 0.931 . S
H234 C207 0.930 . S
H235 C208 0.930 . S
H236 C213 0.929 . S
H237 C214 0.931 . S
H238 C216 0.930 . S
H239 C217 0.930 . S
C240 C241 1.394 . S
C240 C242 1.383 . S
C240 H256 0.951 . S
C241 C240 1.394 . S
C241 C245 1.376 1_556 S
C242 C240 1.383 . S
C242 C243 1.402 . S
C242 H257 0.951 . S
C243 C242 1.402 . S
C243 C244 1.375 1_556 S
C243 C246 1.481 . S
C244 C243 1.375 1_554 S
C244 C245 1.367 . S
C244 H258 0.951 . S
C245 C241 1.376 1_554 S
C245 C244 1.367 . S
C245 H259 0.950 . S
C246 C243 1.481 . S
C246 C247 1.297 . S
C246 H260 0.950 1_556 S
C247 C246 1.297 . S
C247 C248 1.479 . S
C247 H261 0.950 . S
C248 C247 1.479 . S
C248 C249 1.375 . S
C248 C254 1.404 . S
C249 C248 1.375 . S
C249 C250 1.369 . S
C249 H262 0.950 . S
C250 C249 1.369 . S
C250 C251 1.392 . S
C250 H263 0.951 . S
C251 C250 1.392 . S
C251 C253 1.384 . S
H252 C254 0.949 1_554 S
C253 C251 1.384 . S
C253 C254 1.385 . S
C253 H255 0.950 1_556 S
C254 C248 1.404 . S
C254 H252 0.949 1_556 S
C254 C253 1.385 . S
H255 C253 0.950 1_554 S
H256 C240 0.951 . S
H257 C242 0.951 . S
H258 C244 0.951 . S
H259 C245 0.950 . S
H260 C246 0.950 1_554 S
H261 C247 0.950 . S
H262 C249 0.950 . S
H263 C250 0.951 . S
C264 C265 1.386 1_556 S
C264 C266 1.383 . S
C264 H280 0.951 . S
C265 C264 1.386 1_554 S
C265 C269 1.383 . S
C266 C264 1.383 . S
C266 C267 1.402 1_556 S
C266 H281 0.951 . S
C267 C266 1.402 1_554 S
C267 C268 1.375 . S
C267 C270 1.481 . S
C268 C267 1.375 . S
C268 C269 1.367 . S
C268 H282 0.951 . S
C269 C265 1.383 . S
C269 C268 1.367 . S
C269 H283 0.950 . S
C270 C267 1.481 . S
C270 C271 1.297 1_554 S
C270 H284 0.950 . S
C271 C270 1.297 1_556 S
C271 C272 1.479 . S
C271 H285 0.950 . S
C272 C271 1.479 . S
C272 C273 1.375 . S
C272 C278 1.404 1_556 S
C273 C272 1.375 . S
C273 C274 1.369 1_455 S
C273 H286 0.950 . S
C274 C273 1.369 1_655 S
C274 C275 1.392 . S
C274 H287 0.951 . S
C275 C274 1.392 . S
C275 C277 1.384 1_556 S
H276 C278 0.949 . S
C277 C275 1.384 1_554 S
C277 C278 1.385 1_655 S
C277 H279 0.950 . S
C278 C272 1.404 1_554 S
C278 H276 0.949 . S
C278 C277 1.385 1_455 S
H279 C277 0.950 . S
H280 C264 0.951 . S
H281 C266 0.951 . S
H282 C268 0.951 . S
H283 C269 0.950 . S
H284 C270 0.950 . S
H285 C271 0.950 . S
H286 C273 0.950 . S
H287 C274 0.951 . S
C288 C289 1.386 . S
C288 C290 1.383 . S
C288 H304 0.951 . S
C289 C288 1.386 . S
C289 C293 1.383 1_556 S
C290 C288 1.383 . S
C290 C291 1.402 . S
C290 H305 0.951 . S
C291 C290 1.402 . S
C291 C292 1.375 1_556 S
C291 C294 1.481 . S
C292 C291 1.375 1_554 S
C292 C293 1.367 . S
C292 H306 0.951 . S
C293 C289 1.383 1_554 S
C293 C292 1.367 . S
C293 H307 0.950 . S
C294 C291 1.481 . S
C294 C295 1.297 . S
C294 H308 0.950 . S
C295 C294 1.297 . S
C295 C296 1.479 . S
C295 H309 0.950 . S
C296 C295 1.479 . S
C296 C297 1.375 1_545 S
C296 C302 1.404 . S
C297 C296 1.375 1_565 S
C297 C298 1.369 . S
C297 H310 0.950 . S
C298 C297 1.369 . S
C298 C299 1.392 . S
C298 H311 0.951 . S
C299 C298 1.392 . S
C299 C301 1.384 . S
H300 C302 0.949 . S
C301 C299 1.384 . S
C301 C302 1.385 1_565 S
C301 H303 0.950 . S
C302 C296 1.404 . S
C302 H300 0.949 . S
C302 C301 1.385 1_545 S
H303 C301 0.950 . S
H304 C288 0.951 . S
H305 C290 0.951 . S
H306 C292 0.951 . S
H307 C293 0.950 . S
H308 C294 0.950 . S
H309 C295 0.950 . S
H310 C297 0.950 . S
H311 C298 0.951 . S
C312 C313 1.386 . S
C312 C314 1.383 . S
C312 H328 0.951 . S
C313 C312 1.386 . S
C313 C317 1.383 1_556 S
C314 C312 1.383 . S
C314 C315 1.402 1_556 S
C314 H329 0.951 . S
C315 C314 1.402 1_554 S
C315 C316 1.375 . S
C315 C318 1.481 . S
C316 C315 1.375 . S
C316 C317 1.367 . S
C316 H330 0.951 . S
C317 C313 1.383 1_554 S
C317 C316 1.367 . S
C317 H331 0.950 . S
C318 C315 1.481 . S
C318 C319 1.297 . S
C318 H332 0.950 . S
C319 C318 1.297 . S
C319 C320 1.479 . S
C319 H333 0.947 1_554 S
C320 C319 1.479 . S
C320 C321 1.375 1_554 S
C320 C326 1.404 . S
C321 C320 1.375 1_556 S
C321 C322 1.369 . S
C321 H334 0.950 . S
C322 C321 1.369 . S
C322 C323 1.392 1_556 S
C322 H335 0.951 . S
C323 C322 1.392 1_554 S
C323 C325 1.384 . S
H324 C326 0.949 . S
C325 C323 1.384 . S
C325 C326 1.385 . S
C325 H327 0.950 . S
C326 C320 1.404 . S
C326 H324 0.949 . S
C326 C325 1.385 . S
H327 C325 0.950 . S
H328 C312 0.951 . S
H329 C314 0.951 . S
H330 C316 0.951 . S
H331 C317 0.950 . S
H332 C318 0.950 . S
H333 C319 0.947 1_556 S
H334 C321 0.950 . S
H335 C322 0.951 . S
C336 C337 1.386 1_554 S
C336 C338 1.383 1_455 S
C336 H352 0.951 . S
C337 C336 1.386 1_556 S
C337 C341 1.383 . S
C338 C336 1.383 1_655 S
C338 C339 1.402 1_554 S
C338 H353 0.951 . S
C339 C338 1.402 1_556 S
C339 C340 1.375 1_655 S
C339 C342 1.481 . S
C340 C339 1.375 1_455 S
C340 C341 1.367 . S
C340 H354 0.952 1_455 S
C341 C337 1.383 . S
C341 C340 1.367 . S
C341 H355 0.950 . S
C342 C339 1.481 . S
C342 C343 1.297 . S
C342 H356 0.950 . S
C343 C342 1.297 . S
C343 C344 1.479 . S
C343 H357 0.950 1_556 S
C344 C343 1.479 . S
C344 C345 1.375 1_556 S
C344 C350 1.404 . S
C345 C344 1.375 1_554 S
C345 C346 1.369 . S
C345 H358 0.950 . S
C346 C345 1.369 . S
C346 C347 1.392 1_554 S
C346 H359 0.951 . S
C347 C346 1.392 1_556 S
C347 C349 1.384 . S
H348 C350 0.949 . S
C349 C347 1.384 . S
C349 C350 1.385 . S
C349 H351 0.950 . S
C350 C344 1.404 . S
C350 H348 0.949 . S
C350 C349 1.385 . S
H351 C349 0.950 . S
H352 C336 0.951 . S
H353 C338 0.951 . S
H354 C340 0.952 1_655 S
H355 C341 0.950 . S
H356 C342 0.950 . S
H357 C343 0.950 1_554 S
H358 C345 0.950 . S
H359 C346 0.951 . S
C360 C361 1.386 . S
C360 C362 1.383 . S
C360 H376 0.951 . S
C361 C360 1.386 . S
C361 C365 1.383 1_556 S
C362 C360 1.383 . S
C362 C363 1.402 . S
C362 H377 0.951 . S
C363 C362 1.402 . S
C363 C364 1.375 . S
C363 C366 1.481 . S
C364 C363 1.375 . S
C364 C365 1.367 1_556 S
C364 H378 0.951 1_556 S
C365 C361 1.383 1_554 S
C365 C364 1.367 1_554 S
C365 H379 0.950 . S
C366 C363 1.481 . S
C366 C367 1.297 . S
C366 H380 0.950 . S
C367 C366 1.297 . S
C367 C368 1.479 . S
C367 H381 0.950 . S
C368 C367 1.479 . S
C368 C369 1.375 1_565 S
C368 C374 1.404 . S
C369 C368 1.375 1_545 S
C369 C370 1.369 . S
C369 H382 0.950 . S
C370 C369 1.369 . S
C370 C371 1.392 . S
C370 H383 0.951 . S
C371 C370 1.392 . S
C371 C373 1.384 . S
H372 C374 0.949 . S
C373 C371 1.384 . S
C373 C374 1.385 1_545 S
C373 H375 0.950 . S
C374 C368 1.404 . S
C374 H372 0.949 . S
C374 C373 1.385 1_565 S
H375 C373 0.950 . S
H376 C360 0.951 . S
H377 C362 0.951 . S
H378 C364 0.951 1_554 S
H379 C365 0.950 . S
H380 C366 0.950 . S
H381 C367 0.950 . S
H382 C369 0.950 . S
H383 C370 0.951 . S
C384 C385 1.386 1_556 S
C384 C386 1.382 1_556 S
C384 H400 0.951 . S
C385 C384 1.386 1_554 S
C385 C389 1.383 . S
C386 C384 1.382 1_554 S
C386 C387 1.404 . S
C386 H401 0.949 1_554 S
C387 C386 1.404 . S
C387 C388 1.375 . S
C387 C390 1.481 . S
C388 C387 1.375 . S
C388 C389 1.367 . S
C388 H402 0.951 . S
C389 C385 1.383 . S
C389 C388 1.367 . S
C389 H403 0.950 . S
C390 C387 1.481 . S
C390 C391 1.297 . S
C390 H404 0.950 . S
C391 C390 1.297 . S
C391 C392 1.479 . S
C391 H405 0.950 . S
C392 C391 1.479 . S
C392 C393 1.375 . S
C392 C398 1.404 . S
C393 C392 1.375 . S
C393 C394 1.369 . S
C393 H406 0.950 1_554 S
C394 C393 1.369 . S
C394 C395 1.392 . S
C394 H407 0.951 1_554 S
C395 C394 1.392 . S
C395 C397 1.384 . S
H396 C398 0.949 . S
C397 C395 1.384 . S
C397 C398 1.385 . S
C397 H399 0.950 . S
C398 C392 1.404 . S
C398 H396 0.949 . S
C398 C397 1.385 . S
H399 C397 0.950 . S
H400 C384 0.951 . S
H401 C386 0.949 1_556 S
H402 C388 0.951 . S
H403 C389 0.950 . S
H404 C390 0.950 . S
H405 C391 0.950 . S
H406 C393 0.950 1_556 S
H407 C394 0.951 1_556 S
C408 C409 1.386 1_556 S
C408 C410 1.383 . S
C408 H424 0.951 . S
C409 C408 1.386 1_554 S
C409 C413 1.383 . S
C410 C408 1.383 . S
C410 C411 1.402 1_556 S
C410 H425 0.951 . S
C411 C410 1.402 1_554 S
C411 C412 1.375 . S
C411 C414 1.481 . S
C412 C411 1.375 . S
C412 C413 1.367 . S
C412 H426 0.951 . S
C413 C409 1.383 . S
C413 C412 1.367 . S
C413 H427 0.950 . S
C414 C411 1.481 . S
C414 C415 1.297 . S
C414 H428 0.950 . S
C415 C414 1.297 . S
C415 C416 1.479 . S
C415 H429 0.950 1_554 S
C416 C415 1.479 . S
C416 C417 1.375 1_554 S
C416 C422 1.404 . S
C417 C416 1.375 1_556 S
C417 C418 1.369 . S
C417 H430 0.950 . S
C418 C417 1.369 . S
C418 C419 1.392 1_556 S
C418 H431 0.951 . S
C419 C418 1.392 1_554 S
C419 C421 1.384 . S
H420 C422 0.949 . S
C421 C419 1.384 . S
C421 C422 1.385 . S
C421 H423 0.950 . S
C422 C416 1.404 . S
C422 H420 0.949 . S
C422 C421 1.385 . S
H423 C421 0.950 . S
H424 C408 0.951 . S
H425 C410 0.951 . S
H426 C412 0.951 . S
H427 C413 0.950 . S
H428 C414 0.950 . S
H429 C415 0.950 1_556 S
H430 C417 0.950 . S
H431 C418 0.951 . S
C432 C433 1.386 1_556 S
C432 C434 1.383 . S
C432 H448 0.951 . S
C433 C432 1.386 1_554 S
C433 C437 1.383 . S
C434 C432 1.383 . S
C434 C435 1.402 1_556 S
C434 H449 0.951 . S
C435 C434 1.402 1_554 S
C435 C436 1.375 . S
C435 C438 1.481 . S
C436 C435 1.375 . S
C436 C437 1.367 . S
C436 H450 0.951 . S
C437 C433 1.383 . S
C437 C436 1.367 . S
C437 H451 0.950 . S
C438 C435 1.481 . S
C438 C439 1.297 1_554 S
C438 H452 0.950 . S
C439 C438 1.297 1_556 S
C439 C440 1.479 . S
C439 H453 0.950 . S
C440 C439 1.479 . S
C440 C441 1.375 . S
C440 C446 1.404 1_556 S
C441 C440 1.375 . S
C441 C442 1.369 . S
C441 H454 0.950 . S
C442 C441 1.369 . S
C442 C443 1.392 . S
C442 H455 0.951 . S
C443 C442 1.392 . S
C443 C445 1.384 1_556 S
H444 C446 0.949 . S
C445 C443 1.384 1_554 S
C445 C446 1.385 . S
C445 H447 0.950 . S
C446 C440 1.404 1_554 S
C446 H444 0.949 . S
C446 C445 1.385 . S
H447 C445 0.950 . S
H448 C432 0.951 . S
H449 C434 0.951 . S
H450 C436 0.951 . S
H451 C437 0.950 . S
H452 C438 0.950 . S
H453 C439 0.950 . S
H454 C441 0.950 . S
H455 C442 0.951 . S
C456 C457 1.386 . S
C456 C458 1.383 . S
C456 H472 0.951 1_554 S
C457 C456 1.386 . S
C457 C461 1.383 . S
C458 C456 1.383 . S
C458 C459 1.402 . S
C458 H473 0.951 1_554 S
C459 C458 1.402 . S
C459 C460 1.375 . S
C459 C462 1.481 . S
C460 C459 1.375 . S
C460 C461 1.367 . S
C460 H474 0.951 . S
C461 C457 1.383 . S
C461 C460 1.367 . S
C461 H475 0.950 . S
C462 C459 1.481 . S
C462 C463 1.297 . S
C462 H476 0.950 . S
C463 C462 1.297 . S
C463 C464 1.479 . S
C463 H477 0.950 . S
C464 C463 1.479 . S
C464 C465 1.382 . S
C464 C470 1.404 . S
C465 C464 1.382 . S
C465 C466 1.366 1_554 S
C465 H478 0.946 1_554 S
C466 C465 1.366 1_556 S
C466 C467 1.392 1_556 S
C466 H479 0.951 . S
C467 C466 1.392 1_554 S
C467 C469 1.384 . S
H468 C470 0.949 . S
C469 C467 1.384 . S
C469 C470 1.385 . S
C469 H471 0.950 . S
C470 C464 1.404 . S
C470 H468 0.949 . S
C470 C469 1.385 . S
H471 C469 0.950 . S
H472 C456 0.951 1_556 S
H473 C458 0.951 1_556 S
H474 C460 0.951 . S
H475 C461 0.950 . S
H476 C462 0.950 . S
H477 C463 0.950 . S
H478 C465 0.946 1_556 S
H479 C466 0.951 . S
C480 C481 1.386 . S
C480 C482 1.383 . S
C480 H496 0.951 . S
C481 C480 1.386 . S
C481 C485 1.383 1_554 S
C482 C480 1.383 . S
C482 C483 1.402 . S
C482 H497 0.951 . S
C483 C482 1.402 . S
C483 C484 1.375 1_554 S
C483 C486 1.481 . S
C484 C483 1.375 1_556 S
C484 C485 1.367 . S
C484 H498 0.951 . S
C485 C481 1.383 1_556 S
C485 C484 1.367 . S
C485 H499 0.950 . S
C486 C483 1.481 . S
C486 C487 1.297 . S
C486 H500 0.950 1_554 S
C487 C486 1.297 . S
C487 C488 1.479 . S
C487 H501 0.950 . S
C488 C487 1.479 . S
C488 C489 1.375 . S
C488 C494 1.398 1_554 S
C489 C488 1.375 . S
C489 C490 1.369 . S
C489 H502 0.950 . S
C490 C489 1.369 . S
C490 C491 1.392 . S
C490 H503 0.951 . S
C491 C490 1.392 . S
C491 C493 1.384 1_554 S
H492 C494 0.952 . S
C493 C491 1.384 1_556 S
C493 C494 1.387 . S
C493 H495 0.950 . S
C494 C488 1.398 1_556 S
C494 H492 0.952 . S
C494 C493 1.387 . S
H495 C493 0.950 . S
H496 C480 0.951 . S
H497 C482 0.951 . S
H498 C484 0.951 . S
H499 C485 0.950 . S
H500 C486 0.950 1_556 S
H501 C487 0.950 . S
H502 C489 0.950 . S
H503 C490 0.951 . S
C504 C505 1.386 1_556 S
C504 C506 1.383 . S
C504 H520 0.951 . S
C505 C504 1.386 1_554 S
C505 C509 1.383 . S
C506 C504 1.383 . S
C506 C507 1.402 1_556 S
C506 H521 0.951 . S
C507 C506 1.402 1_554 S
C507 C508 1.375 . S
C507 C510 1.481 . S
C508 C507 1.375 . S
C508 C509 1.367 . S
C508 H522 0.951 . S
C509 C505 1.383 . S
C509 C508 1.367 . S
C509 H523 0.950 . S
C510 C507 1.481 . S
C510 C511 1.297 1_554 S
C510 H524 0.950 . S
C511 C510 1.297 1_556 S
C511 C512 1.479 . S
C511 H525 0.950 . S
C512 C511 1.479 . S
C512 C513 1.375 . S
C512 C518 1.404 1_556 S
C513 C512 1.375 . S
C513 C514 1.369 . S
C513 H526 0.950 . S
C514 C513 1.369 . S
C514 C515 1.392 1_556 S
C514 H527 0.951 . S
C515 C514 1.392 1_554 S
C515 C517 1.384 . S
H516 C518 0.949 . S
C517 C515 1.384 . S
C517 C518 1.385 . S
C517 H519 0.950 . S
C518 C512 1.404 1_554 S
C518 H516 0.949 . S
C518 C517 1.385 . S
H519 C517 0.950 . S
H520 C504 0.951 . S
H521 C506 0.951 . S
H522 C508 0.951 . S
H523 C509 0.950 . S
H524 C510 0.950 . S
H525 C511 0.950 . S
H526 C513 0.950 . S
H527 C514 0.951 . S
C528 C529 1.386 . S
C528 C530 1.383 . S
C528 H544 0.951 . S
C529 C528 1.386 . S
C529 C533 1.383 . S
C530 C528 1.383 . S
C530 C531 1.402 . S
C530 H545 0.951 . S
C531 C530 1.402 . S
C531 C532 1.375 . S
C531 C534 1.481 . S
C532 C531 1.375 . S
C532 C533 1.367 . S
C532 H546 0.951 . S
C533 C529 1.383 . S
C533 C532 1.367 . S
C533 H547 0.950 . S
C534 C531 1.481 . S
C534 C535 1.297 . S
C534 H548 0.950 . S
C535 C534 1.297 . S
C535 C536 1.479 . S
C535 H549 0.950 . S
C536 C535 1.479 . S
C536 C537 1.375 . S
C536 C542 1.404 . S
C537 C536 1.375 . S
C537 C538 1.369 . S
C537 H550 0.950 . S
C538 C537 1.369 . S
C538 C539 1.392 . S
C538 H551 0.951 . S
C539 C538 1.392 . S
C539 C541 1.384 . S
H540 C542 0.949 . S
C541 C539 1.384 . S
C541 C542 1.385 . S
C541 H543 0.950 . S
C542 C536 1.404 . S
C542 H540 0.949 . S
C542 C541 1.385 . S
H543 C541 0.950 . S
H544 C528 0.951 . S
H545 C530 0.951 . S
H546 C532 0.951 . S
H547 C533 0.950 . S
H548 C534 0.950 . S
H549 C535 0.950 . S
H550 C537 0.950 . S
H551 C538 0.951 . S
C552 C553 1.386 . S
C552 C554 1.383 . S
C552 H568 0.951 . S
C553 C552 1.386 . S
C553 C557 1.383 . S
C554 C552 1.383 . S
C554 C555 1.402 . S
C554 H569 0.951 . S
C555 C554 1.402 . S
C555 C556 1.375 . S
C555 C558 1.481 . S
C556 C555 1.375 . S
C556 C557 1.367 . S
C556 H570 0.951 . S
C557 C553 1.383 . S
C557 C556 1.367 . S
C557 H571 0.950 . S
C558 C555 1.481 . S
C558 C559 1.297 . S
C558 H572 0.950 . S
C559 C558 1.297 . S
C559 C560 1.479 . S
C559 H573 0.950 . S
C560 C559 1.479 . S
C560 C561 1.375 . S
C560 C566 1.404 . S
C561 C560 1.375 . S
C561 C562 1.369 . S
C561 H574 0.950 . S
C562 C561 1.369 . S
C562 C563 1.392 . S
C562 H575 0.951 . S
C563 C562 1.392 . S
C563 C565 1.384 . S
H564 C566 0.949 . S
C565 C563 1.384 . S
C565 C566 1.385 . S
C565 H567 0.950 . S
C566 C560 1.404 . S
C566 H564 0.949 . S
C566 C565 1.385 . S
H567 C565 0.950 . S
H568 C552 0.951 . S
H569 C554 0.951 . S
H570 C556 0.951 . S
H571 C557 0.950 . S
H572 C558 0.950 . S
H573 C559 0.950 . S
H574 C561 0.950 . S
H575 C562 0.951 . S
C576 C577 1.386 . S
C576 C578 1.383 . S
C576 H592 0.951 . S
C577 C576 1.386 . S
C577 C581 1.383 . S
C578 C576 1.383 . S
C578 C579 1.402 . S
C578 H593 0.951 . S
C579 C578 1.402 . S
C579 C580 1.375 . S
C579 C582 1.481 . S
C580 C579 1.375 . S
C580 C581 1.367 . S
C580 H594 0.951 . S
C581 C577 1.383 . S
C581 C580 1.367 . S
C581 H595 0.950 . S
C582 C579 1.481 . S
C582 C583 1.297 . S
C582 H596 0.950 . S
C583 C582 1.297 . S
C583 C584 1.479 . S
C583 H597 0.950 . S
C584 C583 1.479 . S
C584 C585 1.375 . S
C584 C590 1.404 . S
C585 C584 1.375 . S
C585 C586 1.369 . S
C585 H598 0.950 . S
C586 C585 1.369 . S
C586 C587 1.392 . S
C586 H599 0.951 . S
C587 C586 1.392 . S
C587 C589 1.384 . S
H588 C590 0.949 . S
C589 C587 1.384 . S
C589 C590 1.385 . S
C589 H591 0.950 . S
C590 C584 1.404 . S
C590 H588 0.949 . S
C590 C589 1.385 . S
H591 C589 0.950 . S
H592 C576 0.951 . S
H593 C578 0.951 . S
H594 C580 0.951 . S
H595 C581 0.950 . S
H596 C582 0.950 . S
H597 C583 0.950 . S
H598 C585 0.950 . S
H599 C586 0.951 . S
C600 C601 1.386 . S
C600 C602 1.383 . S
C600 H616 0.951 . S
C601 C600 1.386 . S
C601 C605 1.383 . S
C602 C600 1.383 . S
C602 C603 1.402 . S
C602 H617 0.951 . S
C603 C602 1.402 . S
C603 C604 1.375 . S
C603 C606 1.481 . S
C604 C603 1.375 . S
C604 C605 1.367 . S
C604 H618 0.951 . S
C605 C601 1.383 . S
C605 C604 1.367 . S
C605 H619 0.950 . S
C606 C603 1.481 . S
C606 C607 1.297 . S
C606 H620 0.950 . S
C607 C606 1.297 . S
C607 C608 1.479 . S
C607 H621 0.950 . S
C608 C607 1.479 . S
C608 C609 1.375 . S
C608 C614 1.404 . S
C609 C608 1.375 . S
C609 C610 1.369 . S
C609 H622 0.950 . S
C610 C609 1.369 . S
C610 C611 1.392 . S
C610 H623 0.951 . S
C611 C610 1.392 . S
C611 C613 1.384 . S
H612 C614 0.949 . S
C613 C611 1.384 . S
C613 C614 1.385 . S
C613 H615 0.950 . S
C614 C608 1.404 . S
C614 H612 0.949 . S
C614 C613 1.385 . S
H615 C613 0.950 . S
H616 C600 0.951 . S
H617 C602 0.951 . S
H618 C604 0.951 . S
H619 C605 0.950 . S
H620 C606 0.950 . S
H621 C607 0.950 . S
H622 C609 0.950 . S
H623 C610 0.951 . S
C624 C625 1.386 . S
C624 C626 1.383 . S
C624 H640 0.951 . S
C625 C624 1.386 . S
C625 C629 1.383 . S
C626 C624 1.383 . S
C626 C627 1.402 . S
C626 H641 0.951 . S
C627 C626 1.402 . S
C627 C628 1.375 . S
C627 C630 1.481 . S
C628 C627 1.375 . S
C628 C629 1.367 . S
C628 H642 0.951 . S
C629 C625 1.383 . S
C629 C628 1.367 . S
C629 H643 0.950 . S
C630 C627 1.481 . S
C630 C631 1.297 . S
C630 H644 0.950 . S
C631 C630 1.297 . S
C631 C632 1.479 . S
C631 H645 0.950 . S
C632 C631 1.479 . S
C632 C633 1.375 . S
C632 C638 1.404 . S
C633 C632 1.375 . S
C633 C634 1.369 . S
C633 H646 0.950 . S
C634 C633 1.369 . S
C634 C635 1.392 . S
C634 H647 0.951 . S
C635 C634 1.392 . S
C635 C637 1.384 . S
H636 C638 0.949 . S
C637 C635 1.384 . S
C637 C638 1.385 . S
C637 H639 0.950 . S
C638 C632 1.404 . S
C638 H636 0.949 . S
C638 C637 1.385 . S
H639 C637 0.950 . S
H640 C624 0.951 . S
H641 C626 0.951 . S
H642 C628 0.951 . S
H643 C629 0.950 . S
H644 C630 0.950 . S
H645 C631 0.950 . S
H646 C633 0.950 . S
H647 C634 0.951 . S
C648 C649 1.386 . S
C648 C650 1.383 . S
C648 H664 0.951 . S
C649 C648 1.386 . S
C649 C653 1.383 . S
C650 C648 1.383 . S
C650 C651 1.402 . S
C650 H665 0.951 . S
C651 C650 1.402 . S
C651 C652 1.375 . S
C651 C654 1.481 . S
C652 C651 1.375 . S
C652 C653 1.367 . S
C652 H666 0.951 . S
C653 C649 1.383 . S
C653 C652 1.367 . S
C653 H667 0.950 . S
C654 C651 1.481 . S
C654 C655 1.297 . S
C654 H668 0.950 . S
C655 C654 1.297 . S
C655 C656 1.479 . S
C655 H669 0.950 . S
C656 C655 1.479 . S
C656 C657 1.375 . S
C656 C662 1.404 . S
C657 C656 1.375 . S
C657 C658 1.369 . S
C657 H670 0.950 . S
C658 C657 1.369 . S
C658 C659 1.392 . S
C658 H671 0.951 . S
C659 C658 1.392 . S
C659 C661 1.384 . S
H660 C662 0.949 . S
C661 C659 1.384 . S
C661 C662 1.385 . S
C661 H663 0.950 . S
C662 C656 1.404 . S
C662 H660 0.949 . S
C662 C661 1.385 . S
H663 C661 0.950 . S
H664 C648 0.951 . S
H665 C650 0.951 . S
H666 C652 0.951 . S
H667 C653 0.950 . S
H668 C654 0.950 . S
H669 C655 0.950 . S
H670 C657 0.950 . S
H671 C658 0.951 . S
C241 C219 1.754 1_556 S
C251 C15 1.624 . S
C265 C19 1.745 . S
C275 C55 1.649 . S
C289 C59 1.758 1_556 S
C299 C95 1.600 . S
C313 C135 1.600 . S
C323 C99 1.705 . S
C337 C175 1.599 . S
C347 C139 1.762 1_556 S
C361 C179 1.758 1_556 S
C371 C215 1.593 . S
C385 C170 1.987 1_554 S
C395 C6 1.986 . S
C409 C210 1.990 1_554 S
C419 C46 1.987 . S
C433 C86 1.977 . S
C443 C10 1.960 . S
C457 C126 1.990 . S
C467 C50 1.980 1_554 S
C481 C166 1.989 . S
C491 C90 1.986 1_554 S
C505 C130 1.987 1_554 S
C515 C206 1.972 . S
C529 C9 1.410 . S
C539 C18 1.434 . S
C553 C49 1.470 . S
C563 C58 1.396 . S
C577 C89 1.469 . S
C587 C98 1.412 . S
C601 C129 1.430 . S
C611 C138 1.482 . S
C625 C178 1.423 . S
C635 C169 1.485 . S
C649 C209 1.406 . S
C659 C218 1.472 . S
