# Generated by pormake.
# Topology smw, (6)-cn, num edge types: 1
# Building blocks:
#     Node 0, Type 0, BuildingBlock: OJICUG_clean_sbu_0, # of connection points: 6
#     Node 1, Type 0, BuildingBlock: OJICUG_clean_sbu_0, # of connection points: 6
#     Node 2, Type 0, BuildingBlock: OJICUG_clean_sbu_0, # of connection points: 6
#     Node 3, Type 0, BuildingBlock: OJICUG_clean_sbu_0, # of connection points: 6
#     Node 4, Type 0, BuildingBlock: OJICUG_clean_sbu_0, # of connection points: 6
#     Node 5, Type 0, BuildingBlock: OJICUG_clean_sbu_0, # of connection points: 6
#     Node 6, Type 0, BuildingBlock: OJICUG_clean_sbu_0, # of connection points: 6
#     Node 7, Type 0, BuildingBlock: OJICUG_clean_sbu_0, # of connection points: 6
#     Node 8, Type 0, BuildingBlock: OJICUG_clean_sbu_0, # of connection points: 6
#     Node 9, Type 0, BuildingBlock: OJICUG_clean_sbu_0, # of connection points: 6
#     Node 10, Type 0, BuildingBlock: OJICUG_clean_sbu_0, # of connection points: 6
#     Node 11, Type 0, BuildingBlock: OJICUG_clean_sbu_0, # of connection points: 6
#     Edge 12, Type (0, 0), BuildingBlock: CIFDUS_clean_linker_0, # of connection points: 2
#     Edge 13, Type (0, 0), BuildingBlock: CIFDUS_clean_linker_0, # of connection points: 2
#     Edge 14, Type (0, 0), BuildingBlock: CIFDUS_clean_linker_0, # of connection points: 2
#     Edge 15, Type (0, 0), BuildingBlock: CIFDUS_clean_linker_0, # of connection points: 2
#     Edge 16, Type (0, 0), BuildingBlock: CIFDUS_clean_linker_0, # of connection points: 2
#     Edge 17, Type (0, 0), BuildingBlock: CIFDUS_clean_linker_0, # of connection points: 2
#     Edge 18, Type (0, 0), BuildingBlock: CIFDUS_clean_linker_0, # of connection points: 2
#     Edge 19, Type (0, 0), BuildingBlock: CIFDUS_clean_linker_0, # of connection points: 2
#     Edge 20, Type (0, 0), BuildingBlock: CIFDUS_clean_linker_0, # of connection points: 2
#     Edge 21, Type (0, 0), BuildingBlock: CIFDUS_clean_linker_0, # of connection points: 2
#     Edge 22, Type (0, 0), BuildingBlock: CIFDUS_clean_linker_0, # of connection points: 2
#     Edge 23, Type (0, 0), BuildingBlock: CIFDUS_clean_linker_0, # of connection points: 2
#     Edge 24, Type (0, 0), BuildingBlock: CIFDUS_clean_linker_0, # of connection points: 2
#     Edge 25, Type (0, 0), BuildingBlock: CIFDUS_clean_linker_0, # of connection points: 2
#     Edge 26, Type (0, 0), BuildingBlock: CIFDUS_clean_linker_0, # of connection points: 2
#     Edge 27, Type (0, 0), BuildingBlock: CIFDUS_clean_linker_0, # of connection points: 2
#     Edge 28, Type (0, 0), BuildingBlock: CIFDUS_clean_linker_0, # of connection points: 2
#     Edge 29, Type (0, 0), BuildingBlock: CIFDUS_clean_linker_0, # of connection points: 2
#     Edge 30, Type (0, 0), BuildingBlock: CIFDUS_clean_linker_0, # of connection points: 2
#     Edge 31, Type (0, 0), BuildingBlock: CIFDUS_clean_linker_0, # of connection points: 2
#     Edge 32, Type (0, 0), BuildingBlock: CIFDUS_clean_linker_0, # of connection points: 2
#     Edge 33, Type (0, 0), BuildingBlock: CIFDUS_clean_linker_0, # of connection points: 2
#     Edge 34, Type (0, 0), BuildingBlock: CIFDUS_clean_linker_0, # of connection points: 2
#     Edge 35, Type (0, 0), BuildingBlock: CIFDUS_clean_linker_0, # of connection points: 2
#     Edge 36, Type (0, 0), BuildingBlock: CIFDUS_clean_linker_0, # of connection points: 2
#     Edge 37, Type (0, 0), BuildingBlock: CIFDUS_clean_linker_0, # of connection points: 2
#     Edge 38, Type (0, 0), BuildingBlock: CIFDUS_clean_linker_0, # of connection points: 2
#     Edge 39, Type (0, 0), BuildingBlock: CIFDUS_clean_linker_0, # of connection points: 2
#     Edge 40, Type (0, 0), BuildingBlock: CIFDUS_clean_linker_0, # of connection points: 2
#     Edge 41, Type (0, 0), BuildingBlock: CIFDUS_clean_linker_0, # of connection points: 2
#     Edge 42, Type (0, 0), BuildingBlock: CIFDUS_clean_linker_0, # of connection points: 2
#     Edge 43, Type (0, 0), BuildingBlock: CIFDUS_clean_linker_0, # of connection points: 2
#     Edge 44, Type (0, 0), BuildingBlock: CIFDUS_clean_linker_0, # of connection points: 2
#     Edge 45, Type (0, 0), BuildingBlock: CIFDUS_clean_linker_0, # of connection points: 2
#     Edge 46, Type (0, 0), BuildingBlock: CIFDUS_clean_linker_0, # of connection points: 2
#     Edge 47, Type (0, 0), BuildingBlock: CIFDUS_clean_linker_0, # of connection points: 2
# Relax obj value: 0.103
# Max RMSD: 0.108
# Mean RMSD: 0.108
data_MOF--net-smw--node1-OJICUG_clean_sbu_0--edge1-CIFDUS_clean_linker_0
_symmetry_space_group_name_H-M    P1
_symmetry_Int_Tables_number       1
_symmetry_cell_setting            triclinic
loop_
_symmetry_equiv_pos_as_xyz
'x, y, z'
_cell_length_a     48.806451
_cell_length_b     48.721172
_cell_length_c     19.99877
_cell_angle_alpha  89.768998
_cell_angle_beta   90.178542
_cell_angle_gamma 119.7947
loop_
_atom_site_label
_atom_site_type_symbol
_atom_site_fract_x
_atom_site_fract_y
_atom_site_fract_z
_atom_type_partial_charge
Sc0 Sc 0.49959 0.16307 0.98054 0.0
Sc1 Sc 0.41593 0.11758 0.9826 0.0
Sc2 Sc 0.46201 0.08089 0.97941 0.0
O3 O 0.45909 0.12068 0.98059 0.0
C4 C 0.51216 0.12244 0.87133 0.0
C5 C 0.45499 0.17472 0.88095 0.0
C6 C 0.39877 0.0578 0.89507 0.0
C7 C 0.45622 0.17553 0.08122 0.0
C8 C 0.52195 0.12456 0.06917 0.0
C9 C 0.41139 0.06691 0.09081 0.0
O10 O 0.5204 0.1481 0.90292 0.0
O11 O 0.42902 0.15292 0.9049 0.0
O12 O 0.42041 0.05435 0.92151 0.0
O13 O 0.48291 0.18216 0.05711 0.0
O14 O 0.50377 0.09928 0.0385 0.0
O15 O 0.39961 0.08207 0.06174 0.0
O16 O 0.52149 0.15006 0.05914 0.0
O17 O 0.43032 0.15288 0.05964 0.0
O18 O 0.43527 0.06571 0.06938 0.0
O19 O 0.48185 0.18065 0.90302 0.0
O20 O 0.48929 0.09579 0.88951 0.0
O21 O 0.39569 0.08179 0.90552 0.0
Sc22 Sc 0.33734 0.50083 -0.01097 0.0
Sc23 Sc 0.29489 0.41709 0.98544 0.0
Sc24 Sc 0.37736 0.45857 0.96648 0.0
O25 O 0.33648 0.45883 0.98077 0.0
C26 C 0.39036 0.51901 0.87978 0.0
C27 C 0.27795 0.46037 0.89382 0.0
C28 C 0.33152 0.40469 0.86809 0.0
C29 C 0.28396 0.45875 0.09387 0.0
C30 C 0.39668 0.51147 0.07795 0.0
C31 C 0.33953 0.39864 0.06327 0.0
O32 O 0.3688 0.52249 0.90651 0.0
O33 O 0.27379 0.43361 0.91283 0.0
O34 O 0.35837 0.42819 0.88166 0.0
O35 O 0.30577 0.48501 0.07206 0.0
O36 O 0.39943 0.48943 0.05041 0.0
O37 O 0.31263 0.39661 0.0575 0.0
O38 O 0.37609 0.51885 0.05977 0.0
O39 O 0.27699 0.43241 0.06723 0.0
O40 O 0.36374 0.4188 0.03144 0.0
O41 O 0.29907 0.48646 0.91856 0.0
O42 O 0.39654 0.49774 0.89818 0.0
O43 O 0.307 0.39631 0.90337 0.0
Sc44 Sc 0.84604 0.33202 0.97472 0.0
Sc45 Sc 0.88951 0.29169 0.98038 0.0
Sc46 Sc 0.92701 0.37389 0.00496 0.0
O47 O 0.88747 0.33241 -0.01338 0.0
C48 C 0.89462 0.39342 0.89149 0.0
C49 C 0.8409 0.28302 0.86453 0.0
C50 C 0.95371 0.33891 0.91331 0.0
C51 C 0.82613 0.26976 0.06181 0.0
C52 C 0.87661 0.38354 0.08749 0.0
C53 C 0.93549 0.32784 0.10224 0.0
O54 O 0.86698 0.37295 0.91039 0.0
O55 O 0.85869 0.27487 0.89473 0.0
O56 O 0.95595 0.36212 0.94614 0.0
O57 O 0.82111 0.29094 0.03696 0.0
O58 O 0.90437 0.39175 0.06843 0.0
O59 O 0.9214 0.30396 0.06419 0.0
O60 O 0.85236 0.3604 0.06186 0.0
O61 O 0.85043 0.26761 0.04818 0.0
O62 O 0.93683 0.35423 0.0915 0.0
O63 O 0.83509 0.30398 0.88651 0.0
O64 O 0.91953 0.39602 0.91827 0.0
O65 O 0.92902 0.31185 0.91306 0.0
Sc66 Sc 0.50292 0.84412 -0.01217 0.0
Sc67 Sc 0.58675 0.88264 0.985 0.0
Sc68 Sc 0.54775 0.92681 -0.0083 0.0
O69 O 0.5458 0.88442 -0.01203 0.0
C70 C 0.4914 0.88929 0.88925 0.0
C71 C 0.5423 0.82658 0.88587 0.0
C72 C 0.60426 0.94115 0.89093 0.0
C73 C 0.54392 0.82691 0.0861 0.0
C74 C 0.48983 0.88652 0.09008 0.0
C75 C 0.60359 0.93808 0.08904 0.0
O76 O 0.4839 0.86215 0.91292 0.0
O77 O 0.56901 0.84649 0.90982 0.0
O78 O 0.5848 0.94733 0.91961 0.0
O79 O 0.5178 0.8224 0.06238 0.0
O80 O 0.51138 0.91217 0.06527 0.0
O81 O 0.61003 0.91878 0.06028 0.0
O82 O 0.48407 0.85958 0.06871 0.0
O83 O 0.57063 0.84801 0.06396 0.0
O84 O 0.58082 0.94219 0.07214 0.0
O85 O 0.51644 0.82348 0.90779 0.0
O86 O 0.51444 0.91477 0.91148 0.0
O87 O 0.60685 0.91714 0.90555 0.0
Sc88 Sc 0.65906 0.49375 0.97875 0.0
Sc89 Sc 0.69309 0.57704 -0.00844 0.0
Sc90 Sc 0.61089 0.5279 0.97509 0.0
O91 O 0.65446 0.53295 0.98229 0.0
C92 C 0.60276 0.47297 0.87608 0.0
C93 C 0.71785 0.54296 0.8921 0.0
C94 C 0.65183 0.58462 0.87627 0.0
C95 C 0.70937 0.5359 0.09109 0.0
C96 C 0.5997 0.47314 0.07618 0.0
C97 C 0.64387 0.58746 0.07365 0.0
O98 O 0.62728 0.47245 0.89536 0.0
O99 O 0.71954 0.56713 0.91985 0.0
O100 O 0.62614 0.56021 0.893 0.0
O101 O 0.69157 0.51011 0.06093 0.0
O102 O 0.59382 0.49458 0.05638 0.0
O103 O 0.67205 0.59366 0.0641 0.0
O104 O 0.62137 0.4691 0.05066 0.0
O105 O 0.71219 0.56234 0.07323 0.0
O106 O 0.62051 0.56503 0.04412 0.0
O107 O 0.69694 0.51483 0.90711 0.0
O108 O 0.59374 0.49058 0.90311 0.0
O109 O 0.67757 0.59515 0.90896 0.0
Sc110 Sc 0.15227 0.66219 -0.01307 0.0
Sc111 Sc 0.1112 0.70479 -0.00627 0.0
Sc112 Sc 0.0698 0.62126 0.00435 0.0
O113 O 0.11107 0.66278 -0.00508 0.0
C114 C 0.10622 0.60347 0.89593 0.0
C115 C 0.16324 0.71668 0.88331 0.0
C116 C 0.05051 0.66112 0.90659 0.0
C117 C 0.17139 0.72101 0.08309 0.0
C118 C 0.11601 0.60807 0.0955 0.0
C119 C 0.05994 0.66552 0.10645 0.0
O120 O 0.13351 0.62489 0.91414 0.0
O121 O 0.14365 0.72334 0.91014 0.0
O122 O 0.04607 0.63545 0.93305 0.0
O123 O 0.17554 0.69929 0.05884 0.0
O124 O 0.08862 0.60225 0.07751 0.0
O125 O 0.07912 0.69148 0.07808 0.0
O126 O 0.14103 0.62918 0.06764 0.0
O127 O 0.14916 0.72577 0.06463 0.0
O128 O 0.05469 0.63869 0.0862 0.0
O129 O 0.16826 0.69514 0.9056 0.0
O130 O 0.08099 0.59949 0.92328 0.0
O131 O 0.07337 0.68808 0.92217 0.0
Sc132 Sc 0.92393 0.55026 0.49515 0.0
Sc133 Sc 0.88099 0.59104 0.49645 0.0
Sc134 Sc 0.84145 0.50799 0.47732 0.0
O135 O 0.88211 0.54981 0.48939 0.0
C136 C 0.88837 0.49902 0.38138 0.0
C137 C 0.9416 0.61127 0.40521 0.0
C138 C 0.82863 0.55391 0.38461 0.0
C139 C 0.93263 0.60056 0.60561 0.0
C140 C 0.87908 0.48871 0.58071 0.0
C141 C 0.82117 0.54333 0.58316 0.0
O142 O 0.9134 0.51978 0.41001 0.0
O143 O 0.91837 0.61449 0.42332 0.0
O144 O 0.82436 0.52675 0.40043 0.0
O145 O 0.93838 0.58002 0.58108 0.0
O146 O 0.85367 0.48468 0.554 0.0
O147 O 0.84323 0.57116 0.56924 0.0
O148 O 0.90612 0.51096 0.56354 0.0
O149 O 0.91338 0.60802 0.58004 0.0
O150 O 0.81758 0.5189 0.55294 0.0
O151 O 0.94674 0.58992 0.42841 0.0
O152 O 0.86091 0.49223 0.40043 0.0
O153 O 0.84799 0.57901 0.41513 0.0
Sc154 Sc 0.36905 0.92231 0.49093 0.0
Sc155 Sc 0.28673 0.89273 0.48548 0.0
Sc156 Sc 0.31766 0.84052 0.49078 0.0
O157 O 0.32441 0.8852 0.4892 0.0
C158 C 0.37681 0.87522 0.39227 0.0
C159 C 0.33504 0.94633 0.38805 0.0
C160 C 0.26531 0.83418 0.38713 0.0
C161 C 0.33341 0.94679 0.58517 0.0
C162 C 0.37464 0.87473 0.59313 0.0
C163 C 0.26263 0.83478 0.58713 0.0
O164 O 0.38478 0.9029 0.41276 0.0
O165 O 0.30682 0.92686 0.40518 0.0
O166 O 0.28453 0.82609 0.4102 0.0
O167 O 0.35783 0.94556 0.56821 0.0
O168 O 0.35028 0.85013 0.57197 0.0
O169 O 0.2625 0.85932 0.56545 0.0
O170 O 0.38434 0.90192 0.56755 0.0
O171 O 0.30633 0.92988 0.55916 0.0
O172 O 0.28073 0.82536 0.56372 0.0
O173 O 0.35895 0.94724 0.41563 0.0
O174 O 0.35369 0.85051 0.41707 0.0
O175 O 0.26276 0.85699 0.41065 0.0
Sc176 Sc 0.42696 0.36409 0.47745 0.0
Sc177 Sc 0.38319 0.28074 0.48038 0.0
Sc178 Sc 0.46702 0.32121 0.47911 0.0
O179 O 0.42567 0.3219 0.47903 0.0
C180 C 0.48362 0.37813 0.37843 0.0
C181 C 0.37033 0.32351 0.37828 0.0
C182 C 0.42393 0.26448 0.37989 0.0
C183 C 0.36928 0.32398 0.57651 0.0
C184 C 0.48265 0.37815 0.57934 0.0
C185 C 0.4248 0.26511 0.58043 0.0
O186 O 0.46334 0.38411 0.4035 0.0
O187 O 0.36273 0.29676 0.40396 0.0
O188 O 0.45034 0.2851 0.40398 0.0
O189 O 0.39035 0.34938 0.54984 0.0
O190 O 0.48826 0.35739 0.55483 0.0
O191 O 0.39848 0.25993 0.55657 0.0
O192 O 0.46073 0.38274 0.5576 0.0
O193 O 0.36438 0.29675 0.55977 0.0
O194 O 0.45122 0.28665 0.55813 0.0
O195 O 0.39355 0.3494 0.39777 0.0
O196 O 0.48753 0.35562 0.39931 0.0
O197 O 0.3976 0.26027 0.40161 0.0
Sc198 Sc 0.0713 0.44349 0.5121 0.0
Sc199 Sc 0.10791 0.39808 0.48477 0.0
Sc200 Sc 0.1528 0.48197 0.48569 0.0
O201 O 0.11075 0.44119 0.49369 0.0
C202 C 0.10574 0.49629 0.39996 0.0
C203 C 0.04504 0.38423 0.41323 0.0
C204 C 0.16089 0.43832 0.37759 0.0
C205 C 0.06101 0.38673 0.60446 0.0
C206 C 0.12036 0.5024 0.59799 0.0
C207 C 0.16878 0.43794 0.57716 0.0
O208 O 0.0809 0.47574 0.42992 0.0
O209 O 0.06891 0.38029 0.41487 0.0
O210 O 0.16793 0.465 0.40238 0.0
O211 O 0.05951 0.41172 0.59469 0.0
O212 O 0.14472 0.50536 0.56875 0.0
O213 O 0.14615 0.41191 0.55541 0.0
O214 O 0.09276 0.48143 0.5816 0.0
O215 O 0.07547 0.37742 0.56647 0.0
O216 O 0.17434 0.46491 0.55593 0.0
O217 O 0.04327 0.40519 0.44713 0.0
O218 O 0.13336 0.50157 0.4152 0.0
O219 O 0.13956 0.41236 0.40164 0.0
Sc220 Sc 0.62963 0.08539 0.48815 0.0
Sc221 Sc 0.70945 0.1061 0.48042 0.0
Sc222 Sc 0.68634 0.16462 0.47863 0.0
O223 O 0.6754 0.11875 0.48223 0.0
C224 C 0.6264 0.13104 0.38196 0.0
C225 C 0.65617 0.04924 0.39993 0.0
C226 C 0.73242 0.16098 0.37092 0.0
C227 C 0.66208 0.06317 0.59533 0.0
C228 C 0.63003 0.13935 0.57906 0.0
C229 C 0.7419 0.16811 0.56938 0.0
O230 O 0.61847 0.10291 0.39956 0.0
O231 O 0.68527 0.06902 0.40765 0.0
O232 O 0.71569 0.17225 0.39335 0.0
O233 O 0.63943 0.06731 0.57686 0.0
O234 O 0.65786 0.16087 0.5646 0.0
O235 O 0.73814 0.14128 0.55309 0.0
O236 O 0.61676 0.11277 0.55003 0.0
O237 O 0.68776 0.07316 0.56287 0.0
O238 O 0.72551 0.17934 0.54492 0.0
O239 O 0.6346 0.05203 0.42853 0.0
O240 O 0.64824 0.15536 0.41077 0.0
O241 O 0.73385 0.13808 0.39848 0.0
Sc242 Sc 0.55774 0.63047 0.47192 0.0
Sc243 Sc 0.60572 0.71315 0.48604 0.0
Sc244 Sc 0.52216 0.67718 0.48726 0.0
O245 O 0.56191 0.67371 0.4819 0.0
C246 C 0.50092 0.62247 0.37903 0.0
C247 C 0.61455 0.67133 0.37442 0.0
C248 C 0.56729 0.73469 0.39127 0.0
C249 C 0.61596 0.66499 0.57394 0.0
C250 C 0.50456 0.61679 0.57882 0.0
C251 C 0.56681 0.7301 0.59122 0.0
O252 O 0.52057 0.61425 0.39857 0.0
O253 O 0.62479 0.69733 0.40572 0.0
O254 O 0.5404 0.71497 0.41516 0.0
O255 O 0.59452 0.6411 0.54336 0.0
O256 O 0.50039 0.63948 0.56022 0.0
O257 O 0.59255 0.73425 0.56609 0.0
O258 O 0.52469 0.61104 0.55197 0.0
O259 O 0.62221 0.69313 0.5617 0.0
O260 O 0.53994 0.70987 0.56869 0.0
O261 O 0.59 0.64599 0.39127 0.0
O262 O 0.49907 0.64509 0.40567 0.0
O263 O 0.59299 0.73669 0.41129 0.0
H264 H 0.40422 0.1704 0.14393 0.0
H265 H 0.5062 0.22461 0.14455 0.0
H266 H 0.50493 0.25656 0.23649 0.0
H267 H 0.47525 0.26916 0.3165 0.0
H268 H 0.3733 0.21545 0.31664 0.0
H269 H 0.37435 0.18328 0.22436 0.0
C270 C 0.42622 0.18919 0.16407 0.0
C271 C 0.45527 0.19499 0.13707 0.0
C272 C 0.42538 0.20758 0.21708 0.0
C273 C 0.48347 0.21952 0.16403 0.0
C274 C 0.4828 0.23785 0.21674 0.0
C275 C 0.45317 0.25041 0.29662 0.0
C276 C 0.42423 0.24478 0.32381 0.0
C277 C 0.45391 0.23207 0.24362 0.0
C278 C 0.39594 0.22039 0.29687 0.0
C279 C 0.39651 0.20194 0.24406 0.0
H280 H 0.21661 0.4859 0.33146 0.0
H281 H 0.1473 0.388 0.29667 0.0
H282 H 0.17979 0.38533 0.20727 0.0
H283 H 0.22797 0.41071 0.13944 0.0
H284 H 0.29724 0.50857 0.17547 0.0
H285 H 0.26466 0.51111 0.26437 0.0
C286 C 0.20844 0.46403 0.30403 0.0
C287 C 0.17955 0.43725 0.32069 0.0
C288 C 0.22734 0.46251 0.25329 0.0
C289 C 0.16949 0.409 0.28496 0.0
C290 C 0.18807 0.40741 0.2339 0.0
C291 C 0.23607 0.43253 0.16705 0.0
C292 C 0.265 0.45937 0.15068 0.0
C293 C 0.21713 0.43397 0.21794 0.0
C294 C 0.27502 0.48752 0.18678 0.0
C295 C 0.25639 0.48907 0.23761 0.0
H296 H 0.83115 0.226 0.1387 0.0
H297 H 0.76972 0.26431 0.09707 0.0
H298 H 0.73454 0.2324 0.18641 0.0
H299 H 0.723 0.19671 0.28064 0.0
H300 H 0.78398 0.15833 0.32488 0.0
H301 H 0.8174 0.18702 0.22937 0.0
C302 C 0.80991 0.22715 0.14867 0.0
C303 C 0.80336 0.24786 0.1116 0.0
C304 C 0.78979 0.2089 0.20069 0.0
C305 C 0.7756 0.24888 0.12511 0.0
C306 C 0.75542 0.23063 0.17626 0.0
C307 C 0.74358 0.19453 0.26946 0.0
C308 C 0.75129 0.17583 0.31035 0.0
C309 C 0.76264 0.21112 0.21513 0.0
C310 C 0.77763 0.17272 0.29428 0.0
C311 C 0.79677 0.18917 0.23986 0.0
H312 H 0.51768 0.73247 0.32481 0.0
H313 H 0.61964 0.78352 0.33286 0.0
H314 H 0.62133 0.81646 0.23899 0.0
H315 H 0.59393 0.83033 0.15418 0.0
H316 H 0.49192 0.77876 0.14627 0.0
H317 H 0.49038 0.74641 0.24078 0.0
C318 C 0.54033 0.75089 0.30642 0.0
C319 C 0.56847 0.75549 0.33601 0.0
C320 C 0.54117 0.76957 0.25229 0.0
C321 C 0.59757 0.7794 0.31107 0.0
C322 C 0.59859 0.79825 0.25734 0.0
C323 C 0.57133 0.81199 0.17294 0.0
C324 C 0.54312 0.80702 0.1429 0.0
C325 C 0.57053 0.79343 0.22741 0.0
C326 C 0.51406 0.78316 0.1682 0.0
C327 C 0.5131 0.76463 0.22237 0.0
H328 H 0.75856 0.58531 0.15582 0.0
H329 H 0.70231 0.48329 0.15495 0.0
H330 H 0.7344 0.48007 0.24434 0.0
H331 H 0.77867 0.50568 0.32158 0.0
H332 H 0.8353 0.60757 0.32428 0.0
H333 H 0.80283 0.6112 0.23533 0.0
C334 C 0.75319 0.56239 0.17547 0.0
C335 C 0.72809 0.53464 0.14829 0.0
C336 C 0.77191 0.56058 0.22699 0.0
C337 C 0.72157 0.50512 0.1744 0.0
C338 C 0.73993 0.50317 0.22564 0.0
C339 C 0.78407 0.52873 0.30268 0.0
C340 C 0.80949 0.55626 0.32957 0.0
C341 C 0.76527 0.5307 0.25191 0.0
C342 C 0.81588 0.58592 0.30459 0.0
C343 C 0.79731 0.58805 0.25372 0.0
H344 H 0.26903 0.78925 0.31487 0.0
H345 H 0.21684 0.8392 0.33017 0.0
H346 H 0.18378 0.80916 0.23588 0.0
H347 H 0.16916 0.76813 0.15098 0.0
H348 H 0.22157 0.71832 0.13665 0.0
H349 H 0.25522 0.74922 0.229 0.0
C350 C 0.2504 0.79361 0.29783 0.0
C351 C 0.24533 0.81632 0.32986 0.0
C352 C 0.23157 0.77637 0.24377 0.0
C353 C 0.22124 0.8218 0.30655 0.0
C354 C 0.20232 0.80465 0.25265 0.0
C355 C 0.18801 0.76408 0.16775 0.0
C356 C 0.19272 0.74086 0.13691 0.0
C357 C 0.20723 0.7818 0.22111 0.0
C358 C 0.21733 0.736 0.15941 0.0
C359 C 0.23659 0.75361 0.21232 0.0
H360 H 0.51701 0.73021 0.65182 0.0
H361 H 0.61877 0.77521 0.65867 0.0
H362 H 0.61999 0.80887 0.75017 0.0
H363 H 0.5923 0.82581 0.8272 0.0
H364 H 0.49054 0.78087 0.81949 0.0
H365 H 0.48937 0.74692 0.72892 0.0
C366 C 0.53954 0.74729 0.67326 0.0
C367 C 0.56778 0.75009 0.64809 0.0
C368 C 0.5401 0.76666 0.72558 0.0
C369 C 0.59666 0.77247 0.67679 0.0
C370 C 0.59739 0.79177 0.72914 0.0
C371 C 0.5698 0.80862 0.80585 0.0
C372 C 0.54153 0.80601 0.8304 0.0
C373 C 0.56926 0.78913 0.75373 0.0
C374 C 0.51268 0.78351 0.80182 0.0
C375 C 0.51197 0.76403 0.74997 0.0
H376 H 0.71652 0.49934 0.80585 0.0
H377 H 0.77041 0.5984 0.8569 0.0
H378 H 0.80685 0.60742 0.76544 0.0
H379 H 0.82329 0.58732 0.67039 0.0
H380 H 0.76885 0.4882 0.6196 0.0
H381 H 0.73286 0.47931 0.71139 0.0
C382 C 0.73632 0.52289 0.79733 0.0
C383 C 0.74066 0.54808 0.83833 0.0
C384 C 0.75708 0.52803 0.74439 0.0
C385 C 0.76639 0.5785 0.8261 0.0
C386 C 0.78728 0.58374 0.77373 0.0
C387 C 0.8035 0.5638 0.67918 0.0
C388 C 0.79889 0.53856 0.63794 0.0
C389 C 0.78277 0.5587 0.73234 0.0
C390 C 0.77312 0.50817 0.65042 0.0
C391 C 0.75245 0.50297 0.70304 0.0
H392 H 0.25309 0.77898 0.63691 0.0
H393 H 0.22333 0.8483 0.66136 0.0
H394 H 0.18893 0.81737 0.75389 0.0
H395 H 0.16851 0.77114 0.82996 0.0
H396 H 0.19958 0.70285 0.80305 0.0
H397 H 0.23217 0.73303 0.70929 0.0
C398 C 0.23914 0.78749 0.66223 0.0
C399 C 0.241 0.81607 0.64222 0.0
C400 C 0.21959 0.76975 0.71516 0.0
C401 C 0.22245 0.82641 0.67566 0.0
C402 C 0.20278 0.80874 0.72865 0.0
C403 C 0.18227 0.76278 0.80333 0.0
C404 C 0.18165 0.7348 0.82411 0.0
C405 C 0.2013 0.78043 0.74912 0.0
C406 C 0.19969 0.72438 0.78885 0.0
C407 C 0.21839 0.74161 0.735 0.0
H408 H 0.47573 0.26903 0.64472 0.0
H409 H 0.37375 0.21643 0.64316 0.0
H410 H 0.37404 0.18386 0.7359 0.0
H411 H 0.40326 0.17028 0.81738 0.0
H412 H 0.5053 0.22332 0.81769 0.0
H413 H 0.50474 0.25564 0.72544 0.0
C414 C 0.4535 0.25046 0.66447 0.0
C415 C 0.42479 0.24526 0.63675 0.0
C416 C 0.45378 0.23183 0.7177 0.0
C417 C 0.39626 0.22103 0.66334 0.0
C418 C 0.39637 0.20235 0.71645 0.0
C419 C 0.42539 0.1889 0.79736 0.0
C420 C 0.45424 0.19425 0.82474 0.0
C421 C 0.425 0.20754 0.74401 0.0
C422 C 0.48268 0.21855 0.79788 0.0
C423 C 0.48244 0.23712 0.74499 0.0
H424 H 0.20973 0.48698 0.65486 0.0
H425 H 0.17116 0.38657 0.62618 0.0
H426 H 0.20086 0.38463 0.72276 0.0
H427 H 0.2373 0.41126 0.8155 0.0
H428 H 0.27557 0.51164 0.84435 0.0
H429 H 0.2461 0.51357 0.7475 0.0
C430 C 0.20797 0.46466 0.66922 0.0
C431 C 0.18829 0.43698 0.633 0.0
C432 C 0.22479 0.46362 0.72518 0.0
C433 C 0.18611 0.40826 0.65302 0.0
C434 C 0.20303 0.4071 0.70836 0.0
C435 C 0.23908 0.43357 0.80105 0.0
C436 C 0.2586 0.46123 0.8375 0.0
C437 C 0.22227 0.4346 0.74502 0.0
C438 C 0.26073 0.48994 0.81744 0.0
C439 C 0.24395 0.49111 0.7619 0.0
H440 H 0.83181 0.22662 0.818 0.0
H441 H 0.81542 0.30386 0.77002 0.0
H442 H 0.7857 0.27593 0.6711 0.0
H443 H 0.76123 0.22854 0.60351 0.0
H444 H 0.77518 0.14984 0.65183 0.0
H445 H 0.80956 0.17977 0.74501 0.0
C446 C 0.82202 0.23745 0.78546 0.0
C447 C 0.82545 0.26705 0.80179 0.0
C448 C 0.80449 0.22105 0.72903 0.0
C449 C 0.8127 0.28086 0.75914 0.0
C450 C 0.79576 0.26498 0.70247 0.0
C451 C 0.77184 0.21785 0.63408 0.0
C452 C 0.76528 0.18684 0.62128 0.0
C453 C 0.79096 0.23483 0.68787 0.0
C454 C 0.77971 0.17365 0.66083 0.0
C455 C 0.79927 0.19069 0.71423 0.0
H456 H 0.38832 0.00146 0.36843 0.0
H457 H 0.29552 0.94231 0.28517 0.0
H458 H 0.30961 0.97749 0.1876 0.0
H459 H 0.35098 0.02181 0.12043 0.0
H460 H 0.44423 0.07763 0.20409 0.0
H461 H 0.42726 0.04716 0.3076 0.0
C462 C 0.37102 0.99626 0.32916 0.0
C463 C 0.34117 0.96903 0.33325 0.0
C464 C 0.37947 0.01603 0.27331 0.0
C465 C 0.31878 0.96307 0.28283 0.0
C466 C 0.32688 0.98309 0.227 0.0
C467 C 0.36718 0.02756 0.16213 0.0
C468 C 0.39872 0.05168 0.15533 0.0
C469 C 0.35749 0.00918 0.22087 0.0
C470 C 0.41985 0.05898 0.20879 0.0
C471 C 0.41022 0.04156 0.26769 0.0
H472 H 0.39121 0.3328 0.25349 0.0
H473 H 0.3133 0.32085 0.37454 0.0
H474 H 0.29371 0.33978 0.282 0.0
H475 H 0.30422 0.36773 0.17327 0.0
H476 H 0.3846 0.38183 0.05671 0.0
H477 H 0.39763 0.35381 0.14031 0.0
C478 C 0.36933 0.33334 0.25844 0.0
C479 C 0.35341 0.32532 0.31962 0.0
C480 C 0.35909 0.34523 0.20631 0.0
C481 C 0.32547 0.32652 0.32694 0.0
C482 C 0.31458 0.33769 0.27444 0.0
C483 C 0.32418 0.36408 0.16572 0.0
C484 C 0.34381 0.37744 0.10967 0.0
C485 C 0.33198 0.34836 0.21484 0.0
C486 C 0.36953 0.37242 0.10022 0.0
C487 C 0.37698 0.35629 0.14784 0.0
H488 H 0.04399 0.35273 0.29921 0.0
H489 H 0.9852 0.3724 0.4288 0.0
H490 H 0.94325 0.35154 0.34617 0.0
H491 H 0.92715 0.33681 0.23032 0.0
H492 H 0.98448 0.31651 0.09905 0.0
H493 H 0.02292 0.32795 0.18914 0.0
C494 C 0.0217 0.35168 0.30983 0.0
C495 C 0.01809 0.36504 0.36888 0.0
C496 C 0.99755 0.33985 0.2616 0.0
C497 C 0.98892 0.36313 0.38265 0.0
C498 C 0.96483 0.35115 0.33558 0.0
C499 C 0.94762 0.33401 0.22242 0.0
C500 C 0.95343 0.32619 0.15902 0.0
C501 C 0.9695 0.34089 0.2738 0.0
C502 C 0.97977 0.32244 0.14826 0.0
C503 C 0.00179 0.32924 0.19942 0.0
H504 H 0.58115 0.93393 0.21135 0.0
H505 H 0.6663 0.98212 0.09501 0.0
H506 H 0.6926 0.01979 0.18674 0.0
H507 H 0.68791 0.04309 0.29336 0.0
H508 H 0.60123 0.99393 0.40614 0.0
H509 H 0.57909 0.95227 0.32306 0.0
C510 C 0.60575 0.95224 0.20707 0.0
C511 C 0.62192 0.95565 0.14734 0.0
C512 C 0.62021 0.9738 0.25897 0.0
C513 C 0.65367 0.97922 0.14132 0.0
C514 C 0.66851 0.00081 0.19338 0.0
C515 C 0.66448 0.02292 0.30023 0.0
C516 C 0.64596 0.02199 0.35487 0.0
C517 C 0.65156 -0.00098 0.25151 0.0
C518 C 0.61568 0.9956 0.36361 0.0
C519 C 0.60298 0.97167 0.31628 0.0
H520 H 0.68194 0.62805 0.17182 0.0
H521 H 0.59109 0.59246 0.07575 0.0
H522 H 0.5772 0.62161 0.1534 0.0
H523 H 0.5875 0.65114 0.25643 0.0
H524 H 0.67577 0.68433 0.36003 0.0
H525 H 0.69462 0.66333 0.27052 0.0
C526 C 0.65929 0.627 0.16759 0.0
C527 C 0.63735 0.60749 0.11891 0.0
C528 C 0.6511 0.64363 0.21339 0.0
C529 C 0.60817 0.60662 0.11363 0.0
C530 C 0.60022 0.62349 0.15772 0.0
C531 C 0.61127 0.65464 0.25814 0.0
C532 C 0.63033 0.6692 0.314 0.0
C533 C 0.62107 0.64126 0.20877 0.0
C534 C 0.66096 0.67354 0.31665 0.0
C535 C 0.67145 0.66107 0.2661 0.0
H536 H 0.00421 0.63394 0.39351 0.0
H537 H 0.92484 0.6316 0.293 0.0
H538 H 0.95646 0.65292 0.19125 0.0
H539 H 0.00429 0.66418 0.12645 0.0
H540 H 0.08297 0.66583 0.22833 0.0
H541 H 0.05433 0.65325 0.33433 0.0
C542 C 0.9941 0.63882 0.34974 0.0
C543 C 0.96224 0.63093 0.35027 0.0
C544 C 0.01228 0.65073 0.29162 0.0
C545 C 0.9494 0.6376 0.29369 0.0
C546 C 0.96738 0.64951 0.23538 0.0
C547 C 0.01536 0.66277 0.17246 0.0
C548 C 0.0456 0.66603 0.17037 0.0
C549 C -0.0015 0.65506 0.23304 0.0
C550 C 0.05978 0.66368 0.22952 0.0
C551 C 0.04334 0.65627 0.28984 0.0
H552 H 0.66698 0.01095 0.62146 0.0
H553 H 0.64812 0.08007 0.71181 0.0
H554 H 0.63306 0.05009 0.81613 0.0
H555 H 0.61888 0.00159 0.87571 0.0
H556 H 0.63279 0.92924 0.78506 0.0
H557 H 0.65684 0.9633 0.68704 0.0
C558 C 0.66022 0.01958 0.66472 0.0
C559 C 0.65843 0.04739 0.65967 0.0
C560 C 0.65044 0.00154 0.72384 0.0
C561 C 0.64941 0.05852 0.71515 0.0
C562 C 0.64077 0.04141 0.77452 0.0
C563 C 0.62739 0.99328 0.83479 0.0
C564 C 0.6235 0.96275 0.83685 0.0
C565 C 0.64014 0.01242 0.7785 0.0
C566 C 0.63536 0.95263 0.78429 0.0
C567 C 0.64892 0.97201 0.72819 0.0
H568 H 0.6667 0.64544 0.8494 0.0
H569 H 0.63611 0.55449 0.75924 0.0
H570 H 0.62695 0.57341 0.65313 0.0
H571 H 0.621 0.61293 0.59122 0.0
H572 H 0.64742 0.7031 0.68103 0.0
H573 H 0.66551 0.68778 0.78155 0.0
C574 C 0.65871 0.63021 0.80586 0.0
C575 C 0.65188 0.5987 0.81147 0.0
C576 C 0.65248 0.64097 0.74541 0.0
C577 C 0.64129 0.57881 0.7555 0.0
C578 C 0.63601 0.58957 0.69506 0.0
C579 C 0.63105 0.62944 0.63243 0.0
C580 C 0.63232 0.65883 0.62924 0.0
C581 C 0.64045 0.62017 0.69023 0.0
C582 C 0.64603 0.68022 0.68245 0.0
C583 C 0.65618 0.67139 0.74008 0.0
H584 H 0.98527 0.65618 0.63253 0.0
H585 H 0.9113 0.57137 0.72315 0.0
H586 H 0.94009 0.58473 0.82918 0.0
H587 H 0.98942 0.61647 0.89015 0.0
H588 H 0.06434 0.701 0.79993 0.0
H589 H 0.03203 0.69224 0.69996 0.0
C590 C 0.97521 0.64132 0.67634 0.0
C591 C 0.94637 0.61305 0.67107 0.0
C592 C 0.99225 0.64884 0.73659 0.0
C593 C 0.93345 0.59342 0.72708 0.0
C594 C 0.94998 0.60091 0.7873 0.0
C595 C -0.00154 0.63321 0.84897 0.0
C596 C 0.0293 0.659 0.85176 0.0
C597 C 0.9799 0.62791 0.79178 0.0
C598 C 0.04062 0.68088 0.79872 0.0
C599 C 0.02224 0.67581 0.74145 0.0
H600 H 0.3359 0.93775 0.71624 0.0
H601 H 0.34024 0.00524 0.57117 0.0
H602 H 0.35643 0.04575 0.65845 0.0
H603 H 0.37665 0.06347 0.77327 0.0
H604 H 0.37379 0.99539 0.91569 0.0
H605 H 0.34896 0.95337 0.83318 0.0
C606 C 0.33967 0.96115 0.70446 0.0
C607 C 0.33704 0.96885 0.63829 0.0
C608 C 0.34934 0.98417 0.75442 0.0
C609 C 0.34209 -0.00092 0.62246 0.0
C610 C 0.35145 0.02217 0.67215 0.0
C611 C 0.36966 0.03925 0.78648 0.0
C612 C 0.37723 0.03245 0.84989 0.0
C613 C 0.35617 0.01526 0.73799 0.0
C614 C 0.36839 0.00109 0.8667 0.0
C615 C 0.35433 0.97709 0.81959 0.0
H616 H 0.32581 0.34678 0.85419 0.0
H617 H 0.33251 0.42611 0.74416 0.0
H618 H 0.33874 0.40399 0.63963 0.0
H619 H 0.35072 0.36705 0.58357 0.0
H620 H 0.34845 0.2895 0.6927 0.0
H621 H 0.33114 0.30523 0.79352 0.0
C622 C 0.32779 0.35858 0.80685 0.0
C623 C 0.32876 0.38787 0.80593 0.0
C624 C 0.3324 0.34618 0.74731 0.0
C625 C 0.33171 0.40348 0.74518 0.0
C626 C 0.33537 0.39092 0.68573 0.0
C627 C 0.34579 0.35321 0.62914 0.0
C628 C 0.35129 0.32755 0.63142 0.0
C629 C 0.33701 0.36302 0.68672 0.0
C630 C 0.34437 0.30939 0.69007 0.0
C631 C 0.3348 0.31859 0.74775 0.0
H632 H 0.95405 0.3064 0.80307 0.0
H633 H 0.01426 0.38536 0.9299 0.0
H634 H 0.05636 0.40415 0.8478 0.0
H635 H 0.07154 0.40416 0.73186 0.0
H636 H 0.01188 0.3267 0.60252 0.0
H637 H 0.9742 0.30078 0.69404 0.0
C638 C 0.97667 0.32721 0.81333 0.0
C639 C 0.98072 0.34512 0.87103 0.0
C640 C 0.00069 0.33828 0.76529 0.0
C641 C 0.01029 0.37175 0.88458 0.0
C642 C 0.03442 0.38252 0.83785 0.0
C643 C 0.05074 0.38111 0.72477 0.0
C644 C 0.04389 0.36729 0.66153 0.0
C645 C 0.0292 0.36694 0.77671 0.0
C646 C 0.01725 0.33748 0.65163 0.0
C647 C 0.99569 0.32289 0.70357 0.0
H648 H 0.55894 0.16956 0.16096 0.0
H649 H 0.53184 0.07522 0.09343 0.0
H650 H 0.56171 0.06919 0.18361 0.0
H651 H 0.59366 0.08934 0.28414 0.0
H652 H 0.62229 0.18375 0.35229 0.0
H653 H 0.59378 0.19101 0.25943 0.0
C654 C 0.55983 0.14783 0.16563 0.0
C655 C 0.54286 0.12285 0.1207 0.0
C656 C 0.57713 0.14433 0.21803 0.0
C657 C 0.54438 0.09483 0.12748 0.0
C658 C 0.56146 0.09125 0.17918 0.0
C659 C 0.59361 0.11149 0.27883 0.0
C660 C 0.60975 0.13579 0.32533 0.0
C661 C 0.5775 0.11561 0.22525 0.0
C662 C 0.60994 0.16459 0.31711 0.0
C663 C 0.59364 0.16877 0.26408 0.0
H664 H 0.39969 0.56083 0.14828 0.0
H665 H 0.44296 0.50231 0.13304 0.0
H666 H 0.47887 0.53148 0.22408 0.0
H667 H 0.49803 0.5734 0.30818 0.0
H668 H 0.45489 0.63201 0.32359 0.0
H669 H 0.41902 0.60293 0.23225 0.0
C670 C 0.41694 0.55439 0.16475 0.0
C671 C 0.41848 0.52932 0.13355 0.0
C672 C 0.43763 0.57128 0.21726 0.0
C673 C 0.44111 0.52145 0.15586 0.0
C674 C 0.46173 0.53813 0.20804 0.0
C675 C 0.4808 0.57988 0.29172 0.0
C676 C 0.47923 0.60489 0.32309 0.0
C677 C 0.46019 0.56307 0.23911 0.0
C678 C 0.45672 0.61288 0.30065 0.0
C679 C 0.43613 0.59625 0.24833 0.0
H680 H 0.84088 0.44909 0.31575 0.0
H681 H 0.9424 0.50884 0.31958 0.0
H682 H 0.94732 0.47833 0.22898 0.0
H683 H 0.9232 0.4346 0.15052 0.0
H684 H 0.82182 0.37427 0.14614 0.0
H685 H 0.81657 0.40535 0.2357 0.0
C686 C 0.86411 0.45559 0.29667 0.0
C687 C 0.89123 0.48124 0.32465 0.0
C688 C 0.86683 0.43784 0.24478 0.0
C689 C 0.92111 0.4892 0.29923 0.0
C690 C 0.92398 0.47176 0.24741 0.0
C691 C 0.89986 0.42812 0.16892 0.0
C692 C 0.87293 0.40206 0.14159 0.0
C693 C 0.89703 0.44598 0.22017 0.0
C694 C 0.84296 0.39418 0.16625 0.0
C695 C 0.83993 0.41194 0.21742 0.0
H696 H 0.42648 0.92187 0.32416 0.0
H697 H 0.36803 0.82028 0.33475 0.0
H698 H 0.39759 0.81454 0.24278 0.0
H699 H 0.44012 0.83847 0.15843 0.0
H700 H 0.4979 0.94029 0.14948 0.0
H701 H 0.4685 0.94554 0.24129 0.0
C702 C 0.42014 0.89841 0.30662 0.0
C703 C 0.395 0.87161 0.33672 0.0
C704 C 0.43714 0.89522 0.2536 0.0
C705 C 0.38725 0.84143 0.3128 0.0
C706 C 0.40416 0.83808 0.26005 0.0
C707 C 0.44628 0.8618 0.17652 0.0
C708 C 0.47126 0.88886 0.1465 0.0
C709 C 0.42916 0.86483 0.22991 0.0
C710 C 0.47882 0.91891 0.17103 0.0
C711 C 0.46201 0.92204 0.22382 0.0
H712 H 0.55265 0.47507 0.14432 0.0
H713 H 0.60377 0.42395 0.13357 0.0
H714 H 0.57244 0.38997 0.22591 0.0
H715 H 0.53058 0.37493 0.31024 0.0
H716 H 0.48013 0.42685 0.31946 0.0
H717 H 0.51125 0.46022 0.22724 0.0
C718 C 0.55702 0.45651 0.16191 0.0
C719 C 0.58059 0.45217 0.1318 0.0
C720 C 0.53904 0.43713 0.215 0.0
C721 C 0.5858 0.42791 0.15566 0.0
C722 C 0.56789 0.40843 0.20855 0.0
C723 C 0.5264 0.39354 0.29215 0.0
C724 C 0.50303 0.39828 0.32218 0.0
C725 C 0.54446 0.41286 0.23871 0.0
C726 C 0.49796 0.42256 0.29775 0.0
C727 C 0.51575 0.44174 0.24481 0.0
H728 H 0.15239 0.54247 0.32457 0.0
H729 H 0.05112 0.49152 0.35034 0.0
H730 H 0.04537 0.52146 0.25878 0.0
H731 H 0.06898 0.562 0.1711 0.0
H732 H 0.17031 0.61282 0.14597 0.0
H733 H 0.17592 0.58295 0.23756 0.0
C734 C 0.12902 0.53786 0.31035 0.0
C735 C 0.10228 0.51471 0.34457 0.0
C736 C 0.1258 0.55513 0.2576 0.0
C737 C 0.0722 0.50917 0.32512 0.0
C738 C 0.06884 0.52629 0.27264 0.0
C739 C 0.09231 0.56657 0.18552 0.0
C740 C 0.11912 0.58966 0.15135 0.0
C741 C 0.09548 0.5493 0.23847 0.0
C742 C 0.14917 0.59522 0.17111 0.0
C743 C 0.15247 0.57814 0.2236 0.0
H744 H 0.43866 0.84138 0.831 0.0
H745 H 0.50178 0.94243 0.82164 0.0
H746 H 0.47111 0.94658 0.73009 0.0
H747 H 0.4268 0.92192 0.65267 0.0
H748 H 0.36329 0.82098 0.66093 0.0
H749 H 0.39382 0.81657 0.75315 0.0
C750 C 0.44576 0.86432 0.80898 0.0
C751 C 0.47256 0.89151 0.83342 0.0
C752 C 0.42798 0.86664 0.75618 0.0
C753 C 0.48129 0.92105 0.80414 0.0
C754 C 0.46377 0.9235 0.75165 0.0
C755 C 0.41952 0.89888 0.67446 0.0
C756 C 0.39277 0.87183 0.64962 0.0
C757 C 0.43712 0.89648 0.72731 0.0
C758 C 0.38378 0.84224 0.67888 0.0
C759 C 0.40123 0.83967 0.73165 0.0
H760 H 0.55174 0.47144 0.81807 0.0
H761 H 0.6109 0.42884 0.80674 0.0
H762 H 0.57889 0.39561 0.71406 0.0
H763 H 0.53402 0.37874 0.63642 0.0
H764 H 0.47563 0.42225 0.64931 0.0
H765 H 0.50761 0.455 0.74145 0.0
C766 C 0.55776 0.45489 0.79563 0.0
C767 C 0.58373 0.45266 0.81968 0.0
C768 C 0.53938 0.43599 0.74255 0.0
C769 C 0.59106 0.4311 0.78941 0.0
C770 C 0.57275 0.41207 0.73639 0.0
C771 C 0.52824 0.39535 0.65935 0.0
C772 C 0.50237 0.39792 0.63564 0.0
C773 C 0.54683 0.41431 0.71257 0.0
C774 C 0.49536 0.41969 0.66614 0.0
C775 C 0.51364 0.43848 0.719 0.0
H776 H 0.07319 0.5026 0.6688 0.0
H777 H 0.17483 0.551 0.65152 0.0
H778 H 0.17934 0.58661 0.74213 0.0
H779 H 0.15432 0.60388 0.82578 0.0
H780 H 0.05255 0.55495 0.84168 0.0
H781 H 0.04836 0.51962 0.75154 0.0
C782 C 0.09643 0.52089 0.68462 0.0
C783 C 0.12365 0.52407 0.65315 0.0
C784 C 0.09884 0.54121 0.73643 0.0
C785 C 0.15347 0.54798 0.67469 0.0
C786 C 0.15607 0.56836 0.7265 0.0
C787 C 0.13119 0.58551 0.80963 0.0
C788 C 0.1038 0.58216 0.84073 0.0
C789 C 0.12889 0.56518 0.75766 0.0
C790 C 0.07406 0.55817 0.81889 0.0
C791 C 0.07161 0.5379 0.76728 0.0
H792 H 0.56886 0.1006 0.60962 0.0
H793 H 0.65046 0.18805 0.67058 0.0
H794 H 0.62047 0.1916 0.76522 0.0
H795 H 0.57173 0.16774 0.834 0.0
H796 H 0.49194 0.07896 0.77204 0.0
H797 H 0.5209 0.07809 0.67428 0.0
C798 C 0.5803 0.1206 0.64328 0.0
C799 C 0.61202 0.14389 0.63323 0.0
C800 C 0.56327 0.12212 0.69769 0.0
C801 C 0.62609 0.16975 0.67716 0.0
C802 C 0.60899 0.17171 0.73139 0.0
C803 C 0.56066 0.14835 0.79879 0.0
C804 C 0.52979 0.12331 0.81067 0.0
C805 C 0.57767 0.14772 0.7427 0.0
C806 C 0.51577 0.09832 0.76466 0.0
C807 C 0.53226 0.09783 0.70856 0.0
H808 H 0.45812 0.61936 0.64971 0.0
H809 H 0.50829 0.56736 0.63316 0.0
H810 H 0.47752 0.53297 0.72444 0.0
H811 H 0.43666 0.51742 0.8086 0.0
H812 H 0.38587 0.56865 0.82666 0.0
H813 H 0.41673 0.60353 0.73502 0.0
C814 C 0.46232 0.60051 0.66602 0.0
C815 C 0.48549 0.59603 0.63436 0.0
C816 C 0.44449 0.58064 0.71881 0.0
C817 C 0.4906 0.57144 0.65632 0.0
C818 C 0.47302 0.55169 0.70866 0.0
C819 C 0.43226 0.53621 0.79274 0.0
C820 C 0.40899 0.54038 0.82461 0.0
C821 C 0.44995 0.55608 0.74019 0.0
C822 C 0.40367 0.56487 0.80306 0.0
C823 C 0.42129 0.58485 0.75064 0.0
H824 H 0.92729 0.49225 0.65687 0.0
H825 H 0.8262 0.4371 0.62947 0.0
H826 H 0.82241 0.40321 0.72299 0.0
H827 H 0.84733 0.38953 0.81296 0.0
H828 H 0.94833 0.44423 0.84131 0.0
H829 H 0.95247 0.47803 0.74676 0.0
C830 C 0.90441 0.47274 0.67102 0.0
C831 C 0.87708 0.46732 0.63588 0.0
C832 C 0.90231 0.45333 0.72518 0.0
C833 C 0.84766 0.44192 0.65536 0.0
C834 C 0.84543 0.42251 0.70899 0.0
C835 C 0.87032 0.40889 0.79883 0.0
C836 C 0.89747 0.41435 0.83464 0.0
C837 C 0.87255 0.42811 0.74441 0.0
C838 C 0.92702 0.43945 0.81488 0.0
C839 C 0.92941 0.45879 0.76074 0.0
loop_
_geom_bond_atom_site_label_1
_geom_bond_atom_site_label_2
_geom_bond_distance
_geom_bond_site_symmetry_2
_ccdc_geom_bond_type
Sc0 O3 2.025 . S
Sc0 O10 2.105 1_554 S
Sc0 O13 2.105 . S
Sc0 O16 2.105 . S
Sc0 O19 2.105 1_554 S
Sc1 O3 2.025 . S
Sc1 O11 2.105 1_554 S
Sc1 O15 2.105 . S
Sc1 O17 2.105 . S
Sc1 O21 2.105 1_554 S
Sc2 O3 2.025 . S
Sc2 O12 2.105 1_554 S
Sc2 O14 2.105 . S
Sc2 O18 2.105 . S
Sc2 O20 2.105 1_554 S
O3 Sc0 2.025 . S
O3 Sc1 2.025 . S
O3 Sc2 2.025 . S
C4 O10 1.268 . S
C4 O20 1.268 . S
C5 O11 1.268 . S
C5 O19 1.268 . S
C6 O12 1.268 . S
C6 O21 1.268 . S
C7 O13 1.268 . S
C7 O17 1.268 . S
C8 O14 1.268 . S
C8 O16 1.268 . S
C9 O15 1.268 . S
C9 O18 1.268 . S
O10 Sc0 2.105 1_556 S
O10 C4 1.268 . S
O11 Sc1 2.105 1_556 S
O11 C5 1.268 . S
O12 Sc2 2.105 1_556 S
O12 C6 1.268 . S
O13 Sc0 2.105 . S
O13 C7 1.268 . S
O14 Sc2 2.105 . S
O14 C8 1.268 . S
O15 Sc1 2.105 . S
O15 C9 1.268 . S
O16 Sc0 2.105 . S
O16 C8 1.268 . S
O17 Sc1 2.105 . S
O17 C7 1.268 . S
O18 Sc2 2.105 . S
O18 C9 1.268 . S
O19 Sc0 2.105 1_556 S
O19 C5 1.268 . S
O20 Sc2 2.105 1_556 S
O20 C4 1.268 . S
O21 Sc1 2.105 1_556 S
O21 C6 1.268 . S
Sc22 O25 2.025 . S
Sc22 O32 2.105 1_554 S
Sc22 O35 2.105 . S
Sc22 O38 2.105 . S
Sc22 O41 2.105 1_554 S
Sc23 O25 2.025 . S
Sc23 O33 2.105 1_554 S
Sc23 O37 2.105 . S
Sc23 O39 2.105 . S
Sc23 O43 2.105 1_554 S
Sc24 O25 2.025 . S
Sc24 O34 2.105 1_554 S
Sc24 O36 2.105 . S
Sc24 O40 2.105 . S
Sc24 O42 2.105 1_554 S
O25 Sc22 2.025 . S
O25 Sc23 2.025 . S
O25 Sc24 2.025 . S
C26 O32 1.268 . S
C26 O42 1.268 . S
C27 O33 1.268 . S
C27 O41 1.268 . S
C28 O34 1.268 . S
C28 O43 1.268 . S
C29 O35 1.268 . S
C29 O39 1.268 . S
C30 O36 1.268 . S
C30 O38 1.268 . S
C31 O37 1.268 . S
C31 O40 1.268 . S
O32 Sc22 2.105 1_556 S
O32 C26 1.268 . S
O33 Sc23 2.105 1_556 S
O33 C27 1.268 . S
O34 Sc24 2.105 1_556 S
O34 C28 1.268 . S
O35 Sc22 2.105 . S
O35 C29 1.268 . S
O36 Sc24 2.105 . S
O36 C30 1.268 . S
O37 Sc23 2.105 . S
O37 C31 1.268 . S
O38 Sc22 2.105 . S
O38 C30 1.268 . S
O39 Sc23 2.105 . S
O39 C29 1.268 . S
O40 Sc24 2.105 . S
O40 C31 1.268 . S
O41 Sc22 2.105 1_556 S
O41 C27 1.268 . S
O42 Sc24 2.105 1_556 S
O42 C26 1.268 . S
O43 Sc23 2.105 1_556 S
O43 C28 1.268 . S
Sc44 O47 2.025 . S
Sc44 O54 2.105 1_554 S
Sc44 O57 2.105 . S
Sc44 O60 2.105 . S
Sc44 O63 2.105 1_554 S
Sc45 O47 2.025 . S
Sc45 O55 2.105 1_554 S
Sc45 O59 2.105 . S
Sc45 O61 2.105 . S
Sc45 O65 2.105 1_554 S
Sc46 O47 2.025 . S
Sc46 O56 2.105 1_554 S
Sc46 O58 2.105 . S
Sc46 O62 2.105 . S
Sc46 O64 2.105 1_554 S
O47 Sc44 2.025 . S
O47 Sc45 2.025 . S
O47 Sc46 2.025 . S
C48 O54 1.268 . S
C48 O64 1.268 . S
C49 O55 1.268 . S
C49 O63 1.268 . S
C50 O56 1.268 . S
C50 O65 1.268 . S
C51 O57 1.268 . S
C51 O61 1.268 . S
C52 O58 1.268 . S
C52 O60 1.268 . S
C53 O59 1.268 . S
C53 O62 1.268 . S
O54 Sc44 2.105 1_556 S
O54 C48 1.268 . S
O55 Sc45 2.105 1_556 S
O55 C49 1.268 . S
O56 Sc46 2.105 1_556 S
O56 C50 1.268 . S
O57 Sc44 2.105 . S
O57 C51 1.268 . S
O58 Sc46 2.105 . S
O58 C52 1.268 . S
O59 Sc45 2.105 . S
O59 C53 1.268 . S
O60 Sc44 2.105 . S
O60 C52 1.268 . S
O61 Sc45 2.105 . S
O61 C51 1.268 . S
O62 Sc46 2.105 . S
O62 C53 1.268 . S
O63 Sc44 2.105 1_556 S
O63 C49 1.268 . S
O64 Sc46 2.105 1_556 S
O64 C48 1.268 . S
O65 Sc45 2.105 1_556 S
O65 C50 1.268 . S
Sc66 O69 2.025 . S
Sc66 O76 2.105 1_554 S
Sc66 O79 2.105 . S
Sc66 O82 2.105 . S
Sc66 O85 2.105 1_554 S
Sc67 O69 2.025 . S
Sc67 O77 2.105 1_554 S
Sc67 O81 2.105 . S
Sc67 O83 2.105 . S
Sc67 O87 2.105 1_554 S
Sc68 O69 2.025 . S
Sc68 O78 2.105 1_554 S
Sc68 O80 2.105 . S
Sc68 O84 2.105 . S
Sc68 O86 2.105 1_554 S
O69 Sc66 2.025 . S
O69 Sc67 2.025 . S
O69 Sc68 2.025 . S
C70 O76 1.268 . S
C70 O86 1.268 . S
C71 O77 1.268 . S
C71 O85 1.268 . S
C72 O78 1.268 . S
C72 O87 1.268 . S
C73 O79 1.268 . S
C73 O83 1.268 . S
C74 O80 1.268 . S
C74 O82 1.268 . S
C75 O81 1.268 . S
C75 O84 1.268 . S
O76 Sc66 2.105 1_556 S
O76 C70 1.268 . S
O77 Sc67 2.105 1_556 S
O77 C71 1.268 . S
O78 Sc68 2.105 1_556 S
O78 C72 1.268 . S
O79 Sc66 2.105 . S
O79 C73 1.268 . S
O80 Sc68 2.105 . S
O80 C74 1.268 . S
O81 Sc67 2.105 . S
O81 C75 1.268 . S
O82 Sc66 2.105 . S
O82 C74 1.268 . S
O83 Sc67 2.105 . S
O83 C73 1.268 . S
O84 Sc68 2.105 . S
O84 C75 1.268 . S
O85 Sc66 2.105 1_556 S
O85 C71 1.268 . S
O86 Sc68 2.105 1_556 S
O86 C70 1.268 . S
O87 Sc67 2.105 1_556 S
O87 C72 1.268 . S
Sc88 O91 2.025 . S
Sc88 O98 2.105 1_554 S
Sc88 O101 2.105 . S
Sc88 O104 2.105 . S
Sc88 O107 2.105 1_554 S
Sc89 O91 2.025 . S
Sc89 O99 2.105 1_554 S
Sc89 O103 2.105 . S
Sc89 O105 2.105 . S
Sc89 O109 2.105 1_554 S
Sc90 O91 2.025 . S
Sc90 O100 2.105 1_554 S
Sc90 O102 2.105 . S
Sc90 O106 2.105 . S
Sc90 O108 2.105 1_554 S
O91 Sc88 2.025 . S
O91 Sc89 2.025 . S
O91 Sc90 2.025 . S
C92 O98 1.268 . S
C92 O108 1.268 . S
C93 O99 1.268 . S
C93 O107 1.268 . S
C94 O100 1.268 . S
C94 O109 1.268 . S
C95 O101 1.268 . S
C95 O105 1.268 . S
C96 O102 1.268 . S
C96 O104 1.268 . S
C97 O103 1.268 . S
C97 O106 1.268 . S
O98 Sc88 2.105 1_556 S
O98 C92 1.268 . S
O99 Sc89 2.105 1_556 S
O99 C93 1.268 . S
O100 Sc90 2.105 1_556 S
O100 C94 1.268 . S
O101 Sc88 2.105 . S
O101 C95 1.268 . S
O102 Sc90 2.105 . S
O102 C96 1.268 . S
O103 Sc89 2.105 . S
O103 C97 1.268 . S
O104 Sc88 2.105 . S
O104 C96 1.268 . S
O105 Sc89 2.105 . S
O105 C95 1.268 . S
O106 Sc90 2.105 . S
O106 C97 1.268 . S
O107 Sc88 2.105 1_556 S
O107 C93 1.268 . S
O108 Sc90 2.105 1_556 S
O108 C92 1.268 . S
O109 Sc89 2.105 1_556 S
O109 C94 1.268 . S
Sc110 O113 2.025 . S
Sc110 O120 2.105 1_554 S
Sc110 O123 2.105 . S
Sc110 O126 2.105 . S
Sc110 O129 2.105 1_554 S
Sc111 O113 2.025 . S
Sc111 O121 2.105 1_554 S
Sc111 O125 2.105 . S
Sc111 O127 2.105 . S
Sc111 O131 2.105 1_554 S
Sc112 O113 2.025 . S
Sc112 O122 2.105 1_554 S
Sc112 O124 2.105 . S
Sc112 O128 2.105 . S
Sc112 O130 2.105 1_554 S
O113 Sc110 2.025 . S
O113 Sc111 2.025 . S
O113 Sc112 2.025 . S
C114 O120 1.268 . S
C114 O130 1.268 . S
C115 O121 1.268 . S
C115 O129 1.268 . S
C116 O122 1.268 . S
C116 O131 1.268 . S
C117 O123 1.268 . S
C117 O127 1.268 . S
C118 O124 1.268 . S
C118 O126 1.268 . S
C119 O125 1.268 . S
C119 O128 1.268 . S
O120 Sc110 2.105 1_556 S
O120 C114 1.268 . S
O121 Sc111 2.105 1_556 S
O121 C115 1.268 . S
O122 Sc112 2.105 1_556 S
O122 C116 1.268 . S
O123 Sc110 2.105 . S
O123 C117 1.268 . S
O124 Sc112 2.105 . S
O124 C118 1.268 . S
O125 Sc111 2.105 . S
O125 C119 1.268 . S
O126 Sc110 2.105 . S
O126 C118 1.268 . S
O127 Sc111 2.105 . S
O127 C117 1.268 . S
O128 Sc112 2.105 . S
O128 C119 1.268 . S
O129 Sc110 2.105 1_556 S
O129 C115 1.268 . S
O130 Sc112 2.105 1_556 S
O130 C114 1.268 . S
O131 Sc111 2.105 1_556 S
O131 C116 1.268 . S
Sc132 O135 2.025 . S
Sc132 O142 2.105 . S
Sc132 O145 2.105 . S
Sc132 O148 2.105 . S
Sc132 O151 2.105 . S
Sc133 O135 2.025 . S
Sc133 O143 2.105 . S
Sc133 O147 2.105 . S
Sc133 O149 2.105 . S
Sc133 O153 2.105 . S
Sc134 O135 2.025 . S
Sc134 O144 2.105 . S
Sc134 O146 2.105 . S
Sc134 O150 2.105 . S
Sc134 O152 2.105 . S
O135 Sc132 2.025 . S
O135 Sc133 2.025 . S
O135 Sc134 2.025 . S
C136 O142 1.268 . S
C136 O152 1.268 . S
C137 O143 1.268 . S
C137 O151 1.268 . S
C138 O144 1.268 . S
C138 O153 1.268 . S
C139 O145 1.268 . S
C139 O149 1.268 . S
C140 O146 1.268 . S
C140 O148 1.268 . S
C141 O147 1.268 . S
C141 O150 1.268 . S
O142 Sc132 2.105 . S
O142 C136 1.268 . S
O143 Sc133 2.105 . S
O143 C137 1.268 . S
O144 Sc134 2.105 . S
O144 C138 1.268 . S
O145 Sc132 2.105 . S
O145 C139 1.268 . S
O146 Sc134 2.105 . S
O146 C140 1.268 . S
O147 Sc133 2.105 . S
O147 C141 1.268 . S
O148 Sc132 2.105 . S
O148 C140 1.268 . S
O149 Sc133 2.105 . S
O149 C139 1.268 . S
O150 Sc134 2.105 . S
O150 C141 1.268 . S
O151 Sc132 2.105 . S
O151 C137 1.268 . S
O152 Sc134 2.105 . S
O152 C136 1.268 . S
O153 Sc133 2.105 . S
O153 C138 1.268 . S
Sc154 O157 2.025 . S
Sc154 O164 2.105 . S
Sc154 O167 2.105 . S
Sc154 O170 2.105 . S
Sc154 O173 2.105 . S
Sc155 O157 2.025 . S
Sc155 O165 2.105 . S
Sc155 O169 2.105 . S
Sc155 O171 2.105 . S
Sc155 O175 2.105 . S
Sc156 O157 2.025 . S
Sc156 O166 2.105 . S
Sc156 O168 2.105 . S
Sc156 O172 2.105 . S
Sc156 O174 2.105 . S
O157 Sc154 2.025 . S
O157 Sc155 2.025 . S
O157 Sc156 2.025 . S
C158 O164 1.268 . S
C158 O174 1.268 . S
C159 O165 1.268 . S
C159 O173 1.268 . S
C160 O166 1.268 . S
C160 O175 1.268 . S
C161 O167 1.268 . S
C161 O171 1.268 . S
C162 O168 1.268 . S
C162 O170 1.268 . S
C163 O169 1.268 . S
C163 O172 1.268 . S
O164 Sc154 2.105 . S
O164 C158 1.268 . S
O165 Sc155 2.105 . S
O165 C159 1.268 . S
O166 Sc156 2.105 . S
O166 C160 1.268 . S
O167 Sc154 2.105 . S
O167 C161 1.268 . S
O168 Sc156 2.105 . S
O168 C162 1.268 . S
O169 Sc155 2.105 . S
O169 C163 1.268 . S
O170 Sc154 2.105 . S
O170 C162 1.268 . S
O171 Sc155 2.105 . S
O171 C161 1.268 . S
O172 Sc156 2.105 . S
O172 C163 1.268 . S
O173 Sc154 2.105 . S
O173 C159 1.268 . S
O174 Sc156 2.105 . S
O174 C158 1.268 . S
O175 Sc155 2.105 . S
O175 C160 1.268 . S
Sc176 O179 2.025 . S
Sc176 O186 2.105 . S
Sc176 O189 2.105 . S
Sc176 O192 2.105 . S
Sc176 O195 2.105 . S
Sc177 O179 2.025 . S
Sc177 O187 2.105 . S
Sc177 O191 2.105 . S
Sc177 O193 2.105 . S
Sc177 O197 2.105 . S
Sc178 O179 2.025 . S
Sc178 O188 2.105 . S
Sc178 O190 2.105 . S
Sc178 O194 2.105 . S
Sc178 O196 2.105 . S
O179 Sc176 2.025 . S
O179 Sc177 2.025 . S
O179 Sc178 2.025 . S
C180 O186 1.268 . S
C180 O196 1.268 . S
C181 O187 1.268 . S
C181 O195 1.268 . S
C182 O188 1.268 . S
C182 O197 1.268 . S
C183 O189 1.268 . S
C183 O193 1.268 . S
C184 O190 1.268 . S
C184 O192 1.268 . S
C185 O191 1.268 . S
C185 O194 1.268 . S
O186 Sc176 2.105 . S
O186 C180 1.268 . S
O187 Sc177 2.105 . S
O187 C181 1.268 . S
O188 Sc178 2.105 . S
O188 C182 1.268 . S
O189 Sc176 2.105 . S
O189 C183 1.268 . S
O190 Sc178 2.105 . S
O190 C184 1.268 . S
O191 Sc177 2.105 . S
O191 C185 1.268 . S
O192 Sc176 2.105 . S
O192 C184 1.268 . S
O193 Sc177 2.105 . S
O193 C183 1.268 . S
O194 Sc178 2.105 . S
O194 C185 1.268 . S
O195 Sc176 2.105 . S
O195 C181 1.268 . S
O196 Sc178 2.105 . S
O196 C180 1.268 . S
O197 Sc177 2.105 . S
O197 C182 1.268 . S
Sc198 O201 2.025 . S
Sc198 O208 2.105 . S
Sc198 O211 2.105 . S
Sc198 O214 2.105 . S
Sc198 O217 2.105 . S
Sc199 O201 2.025 . S
Sc199 O209 2.105 . S
Sc199 O213 2.105 . S
Sc199 O215 2.105 . S
Sc199 O219 2.105 . S
Sc200 O201 2.025 . S
Sc200 O210 2.105 . S
Sc200 O212 2.105 . S
Sc200 O216 2.105 . S
Sc200 O218 2.105 . S
O201 Sc198 2.025 . S
O201 Sc199 2.025 . S
O201 Sc200 2.025 . S
C202 O208 1.268 . S
C202 O218 1.268 . S
C203 O209 1.268 . S
C203 O217 1.268 . S
C204 O210 1.268 . S
C204 O219 1.268 . S
C205 O211 1.268 . S
C205 O215 1.268 . S
C206 O212 1.268 . S
C206 O214 1.268 . S
C207 O213 1.268 . S
C207 O216 1.268 . S
O208 Sc198 2.105 . S
O208 C202 1.268 . S
O209 Sc199 2.105 . S
O209 C203 1.268 . S
O210 Sc200 2.105 . S
O210 C204 1.268 . S
O211 Sc198 2.105 . S
O211 C205 1.268 . S
O212 Sc200 2.105 . S
O212 C206 1.268 . S
O213 Sc199 2.105 . S
O213 C207 1.268 . S
O214 Sc198 2.105 . S
O214 C206 1.268 . S
O215 Sc199 2.105 . S
O215 C205 1.268 . S
O216 Sc200 2.105 . S
O216 C207 1.268 . S
O217 Sc198 2.105 . S
O217 C203 1.268 . S
O218 Sc200 2.105 . S
O218 C202 1.268 . S
O219 Sc199 2.105 . S
O219 C204 1.268 . S
Sc220 O223 2.025 . S
Sc220 O230 2.105 . S
Sc220 O233 2.105 . S
Sc220 O236 2.105 . S
Sc220 O239 2.105 . S
Sc221 O223 2.025 . S
Sc221 O231 2.105 . S
Sc221 O235 2.105 . S
Sc221 O237 2.105 . S
Sc221 O241 2.105 . S
Sc222 O223 2.025 . S
Sc222 O232 2.105 . S
Sc222 O234 2.105 . S
Sc222 O238 2.105 . S
Sc222 O240 2.105 . S
O223 Sc220 2.025 . S
O223 Sc221 2.025 . S
O223 Sc222 2.025 . S
C224 O230 1.268 . S
C224 O240 1.268 . S
C225 O231 1.268 . S
C225 O239 1.268 . S
C226 O232 1.268 . S
C226 O241 1.268 . S
C227 O233 1.268 . S
C227 O237 1.268 . S
C228 O234 1.268 . S
C228 O236 1.268 . S
C229 O235 1.268 . S
C229 O238 1.268 . S
O230 Sc220 2.105 . S
O230 C224 1.268 . S
O231 Sc221 2.105 . S
O231 C225 1.268 . S
O232 Sc222 2.105 . S
O232 C226 1.268 . S
O233 Sc220 2.105 . S
O233 C227 1.268 . S
O234 Sc222 2.105 . S
O234 C228 1.268 . S
O235 Sc221 2.105 . S
O235 C229 1.268 . S
O236 Sc220 2.105 . S
O236 C228 1.268 . S
O237 Sc221 2.105 . S
O237 C227 1.268 . S
O238 Sc222 2.105 . S
O238 C229 1.268 . S
O239 Sc220 2.105 . S
O239 C225 1.268 . S
O240 Sc222 2.105 . S
O240 C224 1.268 . S
O241 Sc221 2.105 . S
O241 C226 1.268 . S
Sc242 O245 2.025 . S
Sc242 O252 2.105 . S
Sc242 O255 2.105 . S
Sc242 O258 2.105 . S
Sc242 O261 2.105 . S
Sc243 O245 2.025 . S
Sc243 O253 2.105 . S
Sc243 O257 2.105 . S
Sc243 O259 2.105 . S
Sc243 O263 2.105 . S
Sc244 O245 2.025 . S
Sc244 O254 2.105 . S
Sc244 O256 2.105 . S
Sc244 O260 2.105 . S
Sc244 O262 2.105 . S
O245 Sc242 2.025 . S
O245 Sc243 2.025 . S
O245 Sc244 2.025 . S
C246 O252 1.268 . S
C246 O262 1.268 . S
C247 O253 1.268 . S
C247 O261 1.268 . S
C248 O254 1.268 . S
C248 O263 1.268 . S
C249 O255 1.268 . S
C249 O259 1.268 . S
C250 O256 1.268 . S
C250 O258 1.268 . S
C251 O257 1.268 . S
C251 O260 1.268 . S
O252 Sc242 2.105 . S
O252 C246 1.268 . S
O253 Sc243 2.105 . S
O253 C247 1.268 . S
O254 Sc244 2.105 . S
O254 C248 1.268 . S
O255 Sc242 2.105 . S
O255 C249 1.268 . S
O256 Sc244 2.105 . S
O256 C250 1.268 . S
O257 Sc243 2.105 . S
O257 C251 1.268 . S
O258 Sc242 2.105 . S
O258 C250 1.268 . S
O259 Sc243 2.105 . S
O259 C249 1.268 . S
O260 Sc244 2.105 . S
O260 C251 1.268 . S
O261 Sc242 2.105 . S
O261 C247 1.268 . S
O262 Sc244 2.105 . S
O262 C246 1.268 . S
O263 Sc243 2.105 . S
O263 C248 1.268 . S
H264 C270 0.930 . S
H265 C273 0.930 . S
H266 C274 0.930 . S
H267 C275 0.930 . S
H268 C278 0.930 . S
H269 C279 0.930 . S
C270 H264 0.930 . S
C270 C271 1.355 . S
C270 C272 1.415 . S
C271 C270 1.355 . S
C271 C273 1.419 . S
C272 C270 1.415 . S
C272 C277 1.425 . S
C272 C279 1.409 . S
C273 H265 0.930 . S
C273 C271 1.419 . S
C273 C274 1.362 . S
C274 H266 0.930 . S
C274 C273 1.362 . S
C274 C277 1.409 . S
C275 H267 0.930 . S
C275 C276 1.355 . S
C275 C277 1.415 . S
C276 C275 1.355 . S
C276 C278 1.419 . S
C277 C272 1.425 . S
C277 C274 1.409 . S
C277 C275 1.415 . S
C278 H268 0.930 . S
C278 C276 1.419 . S
C278 C279 1.362 . S
C279 H269 0.930 . S
C279 C272 1.409 . S
C279 C278 1.362 . S
H280 C286 0.930 . S
H281 C289 0.930 . S
H282 C290 0.930 . S
H283 C291 0.930 . S
H284 C294 0.930 . S
H285 C295 0.930 . S
C286 H280 0.930 . S
C286 C287 1.355 . S
C286 C288 1.415 . S
C287 C286 1.355 . S
C287 C289 1.419 . S
C288 C286 1.415 . S
C288 C293 1.425 . S
C288 C295 1.409 . S
C289 H281 0.930 . S
C289 C287 1.419 . S
C289 C290 1.362 . S
C290 H282 0.930 . S
C290 C289 1.362 . S
C290 C293 1.409 . S
C291 H283 0.930 . S
C291 C292 1.355 . S
C291 C293 1.415 . S
C292 C291 1.355 . S
C292 C294 1.419 . S
C293 C288 1.425 . S
C293 C290 1.409 . S
C293 C291 1.415 . S
C294 H284 0.930 . S
C294 C292 1.419 . S
C294 C295 1.362 . S
C295 H285 0.930 . S
C295 C288 1.409 . S
C295 C294 1.362 . S
H296 C302 0.930 . S
H297 C305 0.930 . S
H298 C306 0.930 . S
H299 C307 0.930 . S
H300 C310 0.930 . S
H301 C311 0.930 . S
C302 H296 0.930 . S
C302 C303 1.355 . S
C302 C304 1.415 . S
C303 C302 1.355 . S
C303 C305 1.419 . S
C304 C302 1.415 . S
C304 C309 1.425 . S
C304 C311 1.409 . S
C305 H297 0.930 . S
C305 C303 1.419 . S
C305 C306 1.362 . S
C306 H298 0.930 . S
C306 C305 1.362 . S
C306 C309 1.409 . S
C307 H299 0.930 . S
C307 C308 1.355 . S
C307 C309 1.415 . S
C308 C307 1.355 . S
C308 C310 1.419 . S
C309 C304 1.425 . S
C309 C306 1.409 . S
C309 C307 1.415 . S
C310 H300 0.930 . S
C310 C308 1.419 . S
C310 C311 1.362 . S
C311 H301 0.930 . S
C311 C304 1.409 . S
C311 C310 1.362 . S
H312 C318 0.930 . S
H313 C321 0.930 . S
H314 C322 0.930 . S
H315 C323 0.930 . S
H316 C326 0.930 . S
H317 C327 0.930 . S
C318 H312 0.930 . S
C318 C319 1.355 . S
C318 C320 1.415 . S
C319 C318 1.355 . S
C319 C321 1.419 . S
C320 C318 1.415 . S
C320 C325 1.425 . S
C320 C327 1.409 . S
C321 H313 0.930 . S
C321 C319 1.419 . S
C321 C322 1.362 . S
C322 H314 0.930 . S
C322 C321 1.362 . S
C322 C325 1.409 . S
C323 H315 0.930 . S
C323 C324 1.355 . S
C323 C325 1.415 . S
C324 C323 1.355 . S
C324 C326 1.419 . S
C325 C320 1.425 . S
C325 C322 1.409 . S
C325 C323 1.415 . S
C326 H316 0.930 . S
C326 C324 1.419 . S
C326 C327 1.362 . S
C327 H317 0.930 . S
C327 C320 1.409 . S
C327 C326 1.362 . S
H328 C334 0.930 . S
H329 C337 0.930 . S
H330 C338 0.930 . S
H331 C339 0.930 . S
H332 C342 0.930 . S
H333 C343 0.930 . S
C334 H328 0.930 . S
C334 C335 1.355 . S
C334 C336 1.415 . S
C335 C334 1.355 . S
C335 C337 1.419 . S
C336 C334 1.415 . S
C336 C341 1.425 . S
C336 C343 1.409 . S
C337 H329 0.930 . S
C337 C335 1.419 . S
C337 C338 1.362 . S
C338 H330 0.930 . S
C338 C337 1.362 . S
C338 C341 1.409 . S
C339 H331 0.930 . S
C339 C340 1.355 . S
C339 C341 1.415 . S
C340 C339 1.355 . S
C340 C342 1.419 . S
C341 C336 1.425 . S
C341 C338 1.409 . S
C341 C339 1.415 . S
C342 H332 0.930 . S
C342 C340 1.419 . S
C342 C343 1.362 . S
C343 H333 0.930 . S
C343 C336 1.409 . S
C343 C342 1.362 . S
H344 C350 0.930 . S
H345 C353 0.930 . S
H346 C354 0.930 . S
H347 C355 0.930 . S
H348 C358 0.930 . S
H349 C359 0.930 . S
C350 H344 0.930 . S
C350 C351 1.355 . S
C350 C352 1.415 . S
C351 C350 1.355 . S
C351 C353 1.419 . S
C352 C350 1.415 . S
C352 C357 1.425 . S
C352 C359 1.409 . S
C353 H345 0.930 . S
C353 C351 1.419 . S
C353 C354 1.362 . S
C354 H346 0.930 . S
C354 C353 1.362 . S
C354 C357 1.409 . S
C355 H347 0.930 . S
C355 C356 1.355 . S
C355 C357 1.415 . S
C356 C355 1.355 . S
C356 C358 1.419 . S
C357 C352 1.425 . S
C357 C354 1.409 . S
C357 C355 1.415 . S
C358 H348 0.930 . S
C358 C356 1.419 . S
C358 C359 1.362 . S
C359 H349 0.930 . S
C359 C352 1.409 . S
C359 C358 1.362 . S
H360 C366 0.930 . S
H361 C369 0.930 . S
H362 C370 0.930 . S
H363 C371 0.930 . S
H364 C374 0.930 . S
H365 C375 0.930 . S
C366 H360 0.930 . S
C366 C367 1.355 . S
C366 C368 1.415 . S
C367 C366 1.355 . S
C367 C369 1.419 . S
C368 C366 1.415 . S
C368 C373 1.425 . S
C368 C375 1.409 . S
C369 H361 0.930 . S
C369 C367 1.419 . S
C369 C370 1.362 . S
C370 H362 0.930 . S
C370 C369 1.362 . S
C370 C373 1.409 . S
C371 H363 0.930 . S
C371 C372 1.355 . S
C371 C373 1.415 . S
C372 C371 1.355 . S
C372 C374 1.419 . S
C373 C368 1.425 . S
C373 C370 1.409 . S
C373 C371 1.415 . S
C374 H364 0.930 . S
C374 C372 1.419 . S
C374 C375 1.362 . S
C375 H365 0.930 . S
C375 C368 1.409 . S
C375 C374 1.362 . S
H376 C382 0.930 . S
H377 C385 0.930 . S
H378 C386 0.930 . S
H379 C387 0.930 . S
H380 C390 0.930 . S
H381 C391 0.930 . S
C382 H376 0.930 . S
C382 C383 1.355 . S
C382 C384 1.415 . S
C383 C382 1.355 . S
C383 C385 1.419 . S
C384 C382 1.415 . S
C384 C389 1.425 . S
C384 C391 1.409 . S
C385 H377 0.930 . S
C385 C383 1.419 . S
C385 C386 1.362 . S
C386 H378 0.930 . S
C386 C385 1.362 . S
C386 C389 1.409 . S
C387 H379 0.930 . S
C387 C388 1.355 . S
C387 C389 1.415 . S
C388 C387 1.355 . S
C388 C390 1.419 . S
C389 C384 1.425 . S
C389 C386 1.409 . S
C389 C387 1.415 . S
C390 H380 0.930 . S
C390 C388 1.419 . S
C390 C391 1.362 . S
C391 H381 0.930 . S
C391 C384 1.409 . S
C391 C390 1.362 . S
H392 C398 0.930 . S
H393 C401 0.930 . S
H394 C402 0.930 . S
H395 C403 0.930 . S
H396 C406 0.930 . S
H397 C407 0.930 . S
C398 H392 0.930 . S
C398 C399 1.355 . S
C398 C400 1.415 . S
C399 C398 1.355 . S
C399 C401 1.419 . S
C400 C398 1.415 . S
C400 C405 1.425 . S
C400 C407 1.409 . S
C401 H393 0.930 . S
C401 C399 1.419 . S
C401 C402 1.362 . S
C402 H394 0.930 . S
C402 C401 1.362 . S
C402 C405 1.409 . S
C403 H395 0.930 . S
C403 C404 1.355 . S
C403 C405 1.415 . S
C404 C403 1.355 . S
C404 C406 1.419 . S
C405 C400 1.425 . S
C405 C402 1.409 . S
C405 C403 1.415 . S
C406 H396 0.930 . S
C406 C404 1.419 . S
C406 C407 1.362 . S
C407 H397 0.930 . S
C407 C400 1.409 . S
C407 C406 1.362 . S
H408 C414 0.930 . S
H409 C417 0.930 . S
H410 C418 0.930 . S
H411 C419 0.930 . S
H412 C422 0.930 . S
H413 C423 0.930 . S
C414 H408 0.930 . S
C414 C415 1.355 . S
C414 C416 1.415 . S
C415 C414 1.355 . S
C415 C417 1.419 . S
C416 C414 1.415 . S
C416 C421 1.425 . S
C416 C423 1.409 . S
C417 H409 0.930 . S
C417 C415 1.419 . S
C417 C418 1.362 . S
C418 H410 0.930 . S
C418 C417 1.362 . S
C418 C421 1.409 . S
C419 H411 0.930 . S
C419 C420 1.355 . S
C419 C421 1.415 . S
C420 C419 1.355 . S
C420 C422 1.419 . S
C421 C416 1.425 . S
C421 C418 1.409 . S
C421 C419 1.415 . S
C422 H412 0.930 . S
C422 C420 1.419 . S
C422 C423 1.362 . S
C423 H413 0.930 . S
C423 C416 1.409 . S
C423 C422 1.362 . S
H424 C430 0.930 . S
H425 C433 0.930 . S
H426 C434 0.930 . S
H427 C435 0.930 . S
H428 C438 0.930 . S
H429 C439 0.930 . S
C430 H424 0.930 . S
C430 C431 1.355 . S
C430 C432 1.415 . S
C431 C430 1.355 . S
C431 C433 1.419 . S
C432 C430 1.415 . S
C432 C437 1.425 . S
C432 C439 1.409 . S
C433 H425 0.930 . S
C433 C431 1.419 . S
C433 C434 1.362 . S
C434 H426 0.930 . S
C434 C433 1.362 . S
C434 C437 1.409 . S
C435 H427 0.930 . S
C435 C436 1.355 . S
C435 C437 1.415 . S
C436 C435 1.355 . S
C436 C438 1.419 . S
C437 C432 1.425 . S
C437 C434 1.409 . S
C437 C435 1.415 . S
C438 H428 0.930 . S
C438 C436 1.419 . S
C438 C439 1.362 . S
C439 H429 0.930 . S
C439 C432 1.409 . S
C439 C438 1.362 . S
H440 C446 0.930 . S
H441 C449 0.930 . S
H442 C450 0.930 . S
H443 C451 0.930 . S
H444 C454 0.930 . S
H445 C455 0.930 . S
C446 H440 0.930 . S
C446 C447 1.355 . S
C446 C448 1.415 . S
C447 C446 1.355 . S
C447 C449 1.419 . S
C448 C446 1.415 . S
C448 C453 1.425 . S
C448 C455 1.409 . S
C449 H441 0.930 . S
C449 C447 1.419 . S
C449 C450 1.362 . S
C450 H442 0.930 . S
C450 C449 1.362 . S
C450 C453 1.409 . S
C451 H443 0.930 . S
C451 C452 1.355 . S
C451 C453 1.415 . S
C452 C451 1.355 . S
C452 C454 1.419 . S
C453 C448 1.425 . S
C453 C450 1.409 . S
C453 C451 1.415 . S
C454 H444 0.930 . S
C454 C452 1.419 . S
C454 C455 1.362 . S
C455 H445 0.930 . S
C455 C448 1.409 . S
C455 C454 1.362 . S
H456 C462 0.930 . S
H457 C465 0.930 . S
H458 C466 0.930 . S
H459 C467 0.930 . S
H460 C470 0.930 . S
H461 C471 0.930 . S
C462 H456 0.930 . S
C462 C463 1.355 . S
C462 C464 1.415 . S
C463 C462 1.355 . S
C463 C465 1.419 . S
C464 C462 1.415 . S
C464 C469 1.425 1_565 S
C464 C471 1.409 1_565 S
C465 H457 0.930 . S
C465 C463 1.419 . S
C465 C466 1.362 . S
C466 H458 0.930 . S
C466 C465 1.362 . S
C466 C469 1.409 1_565 S
C467 H459 0.930 . S
C467 C468 1.355 . S
C467 C469 1.415 . S
C468 C467 1.355 . S
C468 C470 1.419 . S
C469 C464 1.425 1_545 S
C469 C466 1.409 1_545 S
C469 C467 1.415 . S
C470 H460 0.930 . S
C470 C468 1.419 . S
C470 C471 1.362 . S
C471 H461 0.930 . S
C471 C464 1.409 1_545 S
C471 C470 1.362 . S
H472 C478 0.930 . S
H473 C481 0.930 . S
H474 C482 0.930 . S
H475 C483 0.930 . S
H476 C486 0.930 . S
H477 C487 0.930 . S
C478 H472 0.930 . S
C478 C479 1.355 . S
C478 C480 1.415 . S
C479 C478 1.355 . S
C479 C481 1.419 . S
C480 C478 1.415 . S
C480 C485 1.425 . S
C480 C487 1.409 . S
C481 H473 0.930 . S
C481 C479 1.419 . S
C481 C482 1.362 . S
C482 H474 0.930 . S
C482 C481 1.362 . S
C482 C485 1.409 . S
C483 H475 0.930 . S
C483 C484 1.355 . S
C483 C485 1.415 . S
C484 C483 1.355 . S
C484 C486 1.419 . S
C485 C480 1.425 . S
C485 C482 1.409 . S
C485 C483 1.415 . S
C486 H476 0.930 . S
C486 C484 1.419 . S
C486 C487 1.362 . S
C487 H477 0.930 . S
C487 C480 1.409 . S
C487 C486 1.362 . S
H488 C494 0.930 . S
H489 C497 0.930 . S
H490 C498 0.930 . S
H491 C499 0.930 . S
H492 C502 0.930 . S
H493 C503 0.930 . S
C494 H488 0.930 . S
C494 C495 1.355 . S
C494 C496 1.415 . S
C495 C494 1.355 . S
C495 C497 1.419 . S
C496 C494 1.415 . S
C496 C501 1.425 1_455 S
C496 C503 1.409 . S
C497 H489 0.930 . S
C497 C495 1.419 . S
C497 C498 1.362 1_455 S
C498 H490 0.930 . S
C498 C497 1.362 1_655 S
C498 C501 1.409 . S
C499 H491 0.930 . S
C499 C500 1.355 . S
C499 C501 1.415 . S
C500 C499 1.355 . S
C500 C502 1.419 . S
C501 C496 1.425 1_655 S
C501 C498 1.409 . S
C501 C499 1.415 . S
C502 H492 0.930 . S
C502 C500 1.419 . S
C502 C503 1.362 1_655 S
C503 H493 0.930 . S
C503 C496 1.409 . S
C503 C502 1.362 1_455 S
H504 C510 0.930 . S
H505 C513 0.930 . S
H506 C514 0.930 . S
H507 C515 0.930 . S
H508 C518 0.930 . S
H509 C519 0.930 . S
C510 H504 0.930 . S
C510 C511 1.355 . S
C510 C512 1.415 1_565 S
C511 C510 1.355 . S
C511 C513 1.419 . S
C512 C510 1.415 1_545 S
C512 C517 1.427 1_545 S
C512 C519 1.408 . S
C513 H505 0.930 . S
C513 C511 1.419 . S
C513 C514 1.362 . S
C514 H506 0.930 . S
C514 C513 1.362 . S
C514 C517 1.408 . S
C515 H507 0.930 . S
C515 C516 1.355 . S
C515 C517 1.415 1_545 S
C516 C515 1.355 . S
C516 C518 1.419 . S
C517 C512 1.427 1_565 S
C517 C514 1.408 . S
C517 C515 1.415 1_565 S
C518 H508 0.930 . S
C518 C516 1.419 . S
C518 C519 1.362 . S
C519 H509 0.930 . S
C519 C512 1.408 . S
C519 C518 1.362 . S
H520 C526 0.930 . S
H521 C529 0.930 . S
H522 C530 0.930 . S
H523 C531 0.930 . S
H524 C534 0.930 . S
H525 C535 0.930 . S
C526 H520 0.930 . S
C526 C527 1.355 . S
C526 C528 1.415 . S
C527 C526 1.355 . S
C527 C529 1.419 . S
C528 C526 1.415 . S
C528 C533 1.425 . S
C528 C535 1.409 . S
C529 H521 0.930 . S
C529 C527 1.419 . S
C529 C530 1.362 . S
C530 H522 0.930 . S
C530 C529 1.362 . S
C530 C533 1.409 . S
C531 H523 0.930 . S
C531 C532 1.355 . S
C531 C533 1.415 . S
C532 C531 1.355 . S
C532 C534 1.419 . S
C533 C528 1.425 . S
C533 C530 1.409 . S
C533 C531 1.415 . S
C534 H524 0.930 . S
C534 C532 1.419 . S
C534 C535 1.362 . S
C535 H525 0.930 . S
C535 C528 1.409 . S
C535 C534 1.362 . S
H536 C542 0.930 . S
H537 C545 0.930 . S
H538 C546 0.930 . S
H539 C547 0.930 . S
H540 C550 0.930 . S
H541 C551 0.930 . S
C542 H536 0.930 . S
C542 C543 1.355 . S
C542 C544 1.415 . S
C543 C542 1.355 . S
C543 C545 1.419 . S
C544 C542 1.415 . S
C544 C549 1.425 1_655 S
C544 C551 1.409 1_655 S
C545 H537 0.930 . S
C545 C543 1.419 . S
C545 C546 1.362 . S
C546 H538 0.930 . S
C546 C545 1.362 . S
C546 C549 1.409 1_655 S
C547 H539 0.930 . S
C547 C548 1.355 . S
C547 C549 1.415 . S
C548 C547 1.355 . S
C548 C550 1.419 . S
C549 C544 1.425 1_455 S
C549 C546 1.409 1_455 S
C549 C547 1.415 . S
C550 H540 0.930 . S
C550 C548 1.419 . S
C550 C551 1.362 . S
C551 H541 0.930 . S
C551 C544 1.409 1_455 S
C551 C550 1.362 . S
H552 C558 0.930 . S
H553 C561 0.930 . S
H554 C562 0.930 . S
H555 C563 0.930 . S
H556 C566 0.930 . S
H557 C567 0.930 . S
C558 H552 0.930 . S
C558 C559 1.355 . S
C558 C560 1.415 1_545 S
C559 C558 1.355 . S
C559 C561 1.419 . S
C560 C558 1.415 1_565 S
C560 C565 1.425 1_565 S
C560 C567 1.409 . S
C561 H553 0.930 . S
C561 C559 1.419 . S
C561 C562 1.362 . S
C562 H554 0.930 . S
C562 C561 1.362 . S
C562 C565 1.409 . S
C563 H555 0.930 . S
C563 C564 1.355 . S
C563 C565 1.415 1_565 S
C564 C563 1.355 . S
C564 C566 1.419 . S
C565 C560 1.425 1_545 S
C565 C562 1.409 . S
C565 C563 1.415 1_545 S
C566 H556 0.930 . S
C566 C564 1.419 . S
C566 C567 1.362 . S
C567 H557 0.930 . S
C567 C560 1.409 . S
C567 C566 1.362 . S
H568 C574 0.930 . S
H569 C577 0.930 . S
H570 C578 0.930 . S
H571 C579 0.930 . S
H572 C582 0.930 . S
H573 C583 0.930 . S
C574 H568 0.930 . S
C574 C575 1.355 . S
C574 C576 1.415 . S
C575 C574 1.355 . S
C575 C577 1.419 . S
C576 C574 1.415 . S
C576 C581 1.425 . S
C576 C583 1.409 . S
C577 H569 0.930 . S
C577 C575 1.419 . S
C577 C578 1.362 . S
C578 H570 0.930 . S
C578 C577 1.362 . S
C578 C581 1.409 . S
C579 H571 0.930 . S
C579 C580 1.355 . S
C579 C581 1.415 . S
C580 C579 1.355 . S
C580 C582 1.419 . S
C581 C576 1.425 . S
C581 C578 1.409 . S
C581 C579 1.415 . S
C582 H572 0.930 . S
C582 C580 1.419 . S
C582 C583 1.362 . S
C583 H573 0.930 . S
C583 C576 1.409 . S
C583 C582 1.362 . S
H584 C590 0.930 . S
H585 C593 0.930 . S
H586 C594 0.930 . S
H587 C595 0.930 . S
H588 C598 0.930 . S
H589 C599 0.930 . S
C590 H584 0.930 . S
C590 C591 1.355 . S
C590 C592 1.415 1_655 S
C591 C590 1.355 . S
C591 C593 1.419 . S
C592 C590 1.415 1_455 S
C592 C597 1.425 1_455 S
C592 C599 1.409 . S
C593 H585 0.930 . S
C593 C591 1.419 . S
C593 C594 1.362 . S
C594 H586 0.930 . S
C594 C593 1.362 . S
C594 C597 1.409 . S
C595 H587 0.930 . S
C595 C596 1.355 . S
C595 C597 1.415 1_455 S
C596 C595 1.355 . S
C596 C598 1.419 . S
C597 C592 1.425 1_655 S
C597 C594 1.409 . S
C597 C595 1.415 1_655 S
C598 H588 0.930 . S
C598 C596 1.419 . S
C598 C599 1.362 . S
C599 H589 0.930 . S
C599 C592 1.409 . S
C599 C598 1.362 . S
H600 C606 0.930 . S
H601 C609 0.930 . S
H602 C610 0.930 1_545 S
H603 C611 0.930 . S
H604 C614 0.930 . S
H605 C615 0.930 1_565 S
C606 H600 0.930 . S
C606 C607 1.355 . S
C606 C608 1.415 . S
C607 C606 1.355 . S
C607 C609 1.419 . S
C608 C606 1.415 . S
C608 C613 1.425 1_565 S
C608 C615 1.409 1_565 S
C609 H601 0.930 . S
C609 C607 1.419 . S
C609 C610 1.362 . S
C610 H602 0.930 1_565 S
C610 C609 1.362 . S
C610 C613 1.409 1_565 S
C611 H603 0.930 . S
C611 C612 1.355 . S
C611 C613 1.415 . S
C612 C611 1.355 . S
C612 C614 1.419 . S
C613 C608 1.425 1_545 S
C613 C610 1.409 1_545 S
C613 C611 1.415 . S
C614 H604 0.930 . S
C614 C612 1.419 . S
C614 C615 1.362 . S
C615 H605 0.930 1_545 S
C615 C608 1.409 1_545 S
C615 C614 1.362 . S
H616 C622 0.930 . S
H617 C625 0.930 . S
H618 C626 0.930 . S
H619 C627 0.930 . S
H620 C630 0.930 . S
H621 C631 0.930 . S
C622 H616 0.930 . S
C622 C623 1.355 . S
C622 C624 1.415 . S
C623 C622 1.355 . S
C623 C625 1.419 . S
C624 C622 1.415 . S
C624 C629 1.425 . S
C624 C631 1.409 . S
C625 H617 0.930 . S
C625 C623 1.419 . S
C625 C626 1.362 . S
C626 H618 0.930 . S
C626 C625 1.362 . S
C626 C629 1.409 . S
C627 H619 0.930 . S
C627 C628 1.355 . S
C627 C629 1.415 . S
C628 C627 1.355 . S
C628 C630 1.419 . S
C629 C624 1.425 . S
C629 C626 1.409 . S
C629 C627 1.415 . S
C630 H620 0.930 . S
C630 C628 1.419 . S
C630 C631 1.362 . S
C631 H621 0.930 . S
C631 C624 1.409 . S
C631 C630 1.362 . S
H632 C638 0.930 . S
H633 C641 0.930 . S
H634 C642 0.930 . S
H635 C643 0.930 . S
H636 C646 0.930 . S
H637 C647 0.930 . S
C638 H632 0.930 . S
C638 C639 1.355 . S
C638 C640 1.415 . S
C639 C638 1.355 . S
C639 C641 1.419 . S
C640 C638 1.415 . S
C640 C645 1.425 1_655 S
C640 C647 1.409 . S
C641 H633 0.930 . S
C641 C639 1.419 . S
C641 C642 1.362 1_655 S
C642 H634 0.930 . S
C642 C641 1.362 1_455 S
C642 C645 1.409 . S
C643 H635 0.930 . S
C643 C644 1.355 . S
C643 C645 1.415 . S
C644 C643 1.355 . S
C644 C646 1.419 . S
C645 C640 1.425 1_455 S
C645 C642 1.409 . S
C645 C643 1.415 . S
C646 H636 0.930 . S
C646 C644 1.419 . S
C646 C647 1.362 1_455 S
C647 H637 0.930 . S
C647 C640 1.409 . S
C647 C646 1.362 1_655 S
H648 C654 0.930 . S
H649 C657 0.930 . S
H650 C658 0.930 . S
H651 C659 0.930 . S
H652 C662 0.930 . S
H653 C663 0.930 . S
C654 H648 0.930 . S
C654 C655 1.355 . S
C654 C656 1.415 . S
C655 C654 1.355 . S
C655 C657 1.419 . S
C656 C654 1.415 . S
C656 C661 1.425 . S
C656 C663 1.409 . S
C657 H649 0.930 . S
C657 C655 1.419 . S
C657 C658 1.362 . S
C658 H650 0.930 . S
C658 C657 1.362 . S
C658 C661 1.409 . S
C659 H651 0.930 . S
C659 C660 1.355 . S
C659 C661 1.415 . S
C660 C659 1.355 . S
C660 C662 1.419 . S
C661 C656 1.425 . S
C661 C658 1.409 . S
C661 C659 1.415 . S
C662 H652 0.930 . S
C662 C660 1.419 . S
C662 C663 1.362 . S
C663 H653 0.930 . S
C663 C656 1.409 . S
C663 C662 1.362 . S
H664 C670 0.930 . S
H665 C673 0.930 . S
H666 C674 0.930 . S
H667 C675 0.930 . S
H668 C678 0.930 . S
H669 C679 0.930 . S
C670 H664 0.930 . S
C670 C671 1.355 . S
C670 C672 1.415 . S
C671 C670 1.355 . S
C671 C673 1.419 . S
C672 C670 1.415 . S
C672 C677 1.425 . S
C672 C679 1.409 . S
C673 H665 0.930 . S
C673 C671 1.419 . S
C673 C674 1.362 . S
C674 H666 0.930 . S
C674 C673 1.362 . S
C674 C677 1.409 . S
C675 H667 0.930 . S
C675 C676 1.355 . S
C675 C677 1.415 . S
C676 C675 1.355 . S
C676 C678 1.419 . S
C677 C672 1.425 . S
C677 C674 1.409 . S
C677 C675 1.415 . S
C678 H668 0.930 . S
C678 C676 1.419 . S
C678 C679 1.362 . S
C679 H669 0.930 . S
C679 C672 1.409 . S
C679 C678 1.362 . S
H680 C686 0.930 . S
H681 C689 0.930 . S
H682 C690 0.930 . S
H683 C691 0.930 . S
H684 C694 0.930 . S
H685 C695 0.930 . S
C686 H680 0.930 . S
C686 C687 1.355 . S
C686 C688 1.415 . S
C687 C686 1.355 . S
C687 C689 1.419 . S
C688 C686 1.415 . S
C688 C693 1.425 . S
C688 C695 1.409 . S
C689 H681 0.930 . S
C689 C687 1.419 . S
C689 C690 1.362 . S
C690 H682 0.930 . S
C690 C689 1.362 . S
C690 C693 1.409 . S
C691 H683 0.930 . S
C691 C692 1.355 . S
C691 C693 1.415 . S
C692 C691 1.355 . S
C692 C694 1.419 . S
C693 C688 1.425 . S
C693 C690 1.409 . S
C693 C691 1.415 . S
C694 H684 0.930 . S
C694 C692 1.419 . S
C694 C695 1.362 . S
C695 H685 0.930 . S
C695 C688 1.409 . S
C695 C694 1.362 . S
H696 C702 0.930 . S
H697 C705 0.930 . S
H698 C706 0.930 . S
H699 C707 0.930 . S
H700 C710 0.930 . S
H701 C711 0.930 . S
C702 H696 0.930 . S
C702 C703 1.355 . S
C702 C704 1.415 . S
C703 C702 1.355 . S
C703 C705 1.419 . S
C704 C702 1.415 . S
C704 C709 1.425 . S
C704 C711 1.409 . S
C705 H697 0.930 . S
C705 C703 1.419 . S
C705 C706 1.362 . S
C706 H698 0.930 . S
C706 C705 1.362 . S
C706 C709 1.409 . S
C707 H699 0.930 . S
C707 C708 1.355 . S
C707 C709 1.415 . S
C708 C707 1.355 . S
C708 C710 1.419 . S
C709 C704 1.425 . S
C709 C706 1.409 . S
C709 C707 1.415 . S
C710 H700 0.930 . S
C710 C708 1.419 . S
C710 C711 1.362 . S
C711 H701 0.930 . S
C711 C704 1.409 . S
C711 C710 1.362 . S
H712 C718 0.930 . S
H713 C721 0.930 . S
H714 C722 0.930 . S
H715 C723 0.930 . S
H716 C726 0.930 . S
H717 C727 0.930 . S
C718 H712 0.930 . S
C718 C719 1.355 . S
C718 C720 1.415 . S
C719 C718 1.355 . S
C719 C721 1.419 . S
C720 C718 1.415 . S
C720 C725 1.425 . S
C720 C727 1.409 . S
C721 H713 0.930 . S
C721 C719 1.419 . S
C721 C722 1.362 . S
C722 H714 0.930 . S
C722 C721 1.362 . S
C722 C725 1.409 . S
C723 H715 0.930 . S
C723 C724 1.355 . S
C723 C725 1.415 . S
C724 C723 1.355 . S
C724 C726 1.419 . S
C725 C720 1.425 . S
C725 C722 1.409 . S
C725 C723 1.415 . S
C726 H716 0.930 . S
C726 C724 1.419 . S
C726 C727 1.362 . S
C727 H717 0.930 . S
C727 C720 1.409 . S
C727 C726 1.362 . S
H728 C734 0.930 . S
H729 C737 0.930 . S
H730 C738 0.930 . S
H731 C739 0.930 . S
H732 C742 0.930 . S
H733 C743 0.930 . S
C734 H728 0.930 . S
C734 C735 1.355 . S
C734 C736 1.415 . S
C735 C734 1.355 . S
C735 C737 1.419 . S
C736 C734 1.415 . S
C736 C741 1.425 . S
C736 C743 1.409 . S
C737 H729 0.930 . S
C737 C735 1.419 . S
C737 C738 1.362 . S
C738 H730 0.930 . S
C738 C737 1.362 . S
C738 C741 1.409 . S
C739 H731 0.930 . S
C739 C740 1.355 . S
C739 C741 1.415 . S
C740 C739 1.355 . S
C740 C742 1.419 . S
C741 C736 1.425 . S
C741 C738 1.409 . S
C741 C739 1.415 . S
C742 H732 0.930 . S
C742 C740 1.419 . S
C742 C743 1.362 . S
C743 H733 0.930 . S
C743 C736 1.409 . S
C743 C742 1.362 . S
H744 C750 0.930 . S
H745 C753 0.930 . S
H746 C754 0.930 . S
H747 C755 0.930 . S
H748 C758 0.930 . S
H749 C759 0.930 . S
C750 H744 0.930 . S
C750 C751 1.355 . S
C750 C752 1.415 . S
C751 C750 1.355 . S
C751 C753 1.419 . S
C752 C750 1.415 . S
C752 C757 1.425 . S
C752 C759 1.409 . S
C753 H745 0.930 . S
C753 C751 1.419 . S
C753 C754 1.362 . S
C754 H746 0.930 . S
C754 C753 1.362 . S
C754 C757 1.409 . S
C755 H747 0.930 . S
C755 C756 1.355 . S
C755 C757 1.415 . S
C756 C755 1.355 . S
C756 C758 1.419 . S
C757 C752 1.425 . S
C757 C754 1.409 . S
C757 C755 1.415 . S
C758 H748 0.930 . S
C758 C756 1.419 . S
C758 C759 1.362 . S
C759 H749 0.930 . S
C759 C752 1.409 . S
C759 C758 1.362 . S
H760 C766 0.930 . S
H761 C769 0.930 . S
H762 C770 0.930 . S
H763 C771 0.930 . S
H764 C774 0.930 . S
H765 C775 0.930 . S
C766 H760 0.930 . S
C766 C767 1.355 . S
C766 C768 1.415 . S
C767 C766 1.355 . S
C767 C769 1.419 . S
C768 C766 1.415 . S
C768 C773 1.425 . S
C768 C775 1.409 . S
C769 H761 0.930 . S
C769 C767 1.419 . S
C769 C770 1.362 . S
C770 H762 0.930 . S
C770 C769 1.362 . S
C770 C773 1.409 . S
C771 H763 0.930 . S
C771 C772 1.355 . S
C771 C773 1.415 . S
C772 C771 1.355 . S
C772 C774 1.419 . S
C773 C768 1.425 . S
C773 C770 1.409 . S
C773 C771 1.415 . S
C774 H764 0.930 . S
C774 C772 1.419 . S
C774 C775 1.362 . S
C775 H765 0.930 . S
C775 C768 1.409 . S
C775 C774 1.362 . S
H776 C782 0.930 . S
H777 C785 0.930 . S
H778 C786 0.930 . S
H779 C787 0.930 . S
H780 C790 0.930 . S
H781 C791 0.930 . S
C782 H776 0.930 . S
C782 C783 1.355 . S
C782 C784 1.415 . S
C783 C782 1.355 . S
C783 C785 1.419 . S
C784 C782 1.415 . S
C784 C789 1.425 . S
C784 C791 1.409 . S
C785 H777 0.930 . S
C785 C783 1.419 . S
C785 C786 1.362 . S
C786 H778 0.930 . S
C786 C785 1.362 . S
C786 C789 1.409 . S
C787 H779 0.930 . S
C787 C788 1.355 . S
C787 C789 1.415 . S
C788 C787 1.355 . S
C788 C790 1.419 . S
C789 C784 1.425 . S
C789 C786 1.409 . S
C789 C787 1.415 . S
C790 H780 0.930 . S
C790 C788 1.419 . S
C790 C791 1.362 . S
C791 H781 0.930 . S
C791 C784 1.409 . S
C791 C790 1.362 . S
H792 C798 0.930 . S
H793 C801 0.930 . S
H794 C802 0.930 . S
H795 C803 0.930 . S
H796 C806 0.930 . S
H797 C807 0.930 . S
C798 H792 0.930 . S
C798 C799 1.355 . S
C798 C800 1.415 . S
C799 C798 1.355 . S
C799 C801 1.419 . S
C800 C798 1.415 . S
C800 C805 1.425 . S
C800 C807 1.409 . S
C801 H793 0.930 . S
C801 C799 1.419 . S
C801 C802 1.362 . S
C802 H794 0.930 . S
C802 C801 1.362 . S
C802 C805 1.409 . S
C803 H795 0.930 . S
C803 C804 1.355 . S
C803 C805 1.415 . S
C804 C803 1.355 . S
C804 C806 1.419 . S
C805 C800 1.425 . S
C805 C802 1.409 . S
C805 C803 1.415 . S
C806 H796 0.930 . S
C806 C804 1.419 . S
C806 C807 1.362 . S
C807 H797 0.930 . S
C807 C800 1.409 . S
C807 C806 1.362 . S
H808 C814 0.930 . S
H809 C817 0.930 . S
H810 C818 0.930 . S
H811 C819 0.930 . S
H812 C822 0.930 . S
H813 C823 0.930 . S
C814 H808 0.930 . S
C814 C815 1.355 . S
C814 C816 1.415 . S
C815 C814 1.355 . S
C815 C817 1.419 . S
C816 C814 1.415 . S
C816 C821 1.425 . S
C816 C823 1.409 . S
C817 H809 0.930 . S
C817 C815 1.419 . S
C817 C818 1.362 . S
C818 H810 0.930 . S
C818 C817 1.362 . S
C818 C821 1.409 . S
C819 H811 0.930 . S
C819 C820 1.355 . S
C819 C821 1.415 . S
C820 C819 1.355 . S
C820 C822 1.419 . S
C821 C816 1.425 . S
C821 C818 1.409 . S
C821 C819 1.415 . S
C822 H812 0.930 . S
C822 C820 1.419 . S
C822 C823 1.362 . S
C823 H813 0.930 . S
C823 C816 1.409 . S
C823 C822 1.362 . S
H824 C830 0.930 . S
H825 C833 0.930 . S
H826 C834 0.930 . S
H827 C835 0.930 . S
H828 C838 0.930 . S
H829 C839 0.930 . S
C830 H824 0.930 . S
C830 C831 1.355 . S
C830 C832 1.415 . S
C831 C830 1.355 . S
C831 C833 1.419 . S
C832 C830 1.415 . S
C832 C837 1.425 . S
C832 C839 1.409 . S
C833 H825 0.930 . S
C833 C831 1.419 . S
C833 C834 1.362 . S
C834 H826 0.930 . S
C834 C833 1.362 . S
C834 C837 1.409 . S
C835 H827 0.930 . S
C835 C836 1.355 . S
C835 C837 1.415 . S
C836 C835 1.355 . S
C836 C838 1.419 . S
C837 C832 1.425 . S
C837 C834 1.409 . S
C837 C835 1.415 . S
C838 H828 0.930 . S
C838 C836 1.419 . S
C838 C839 1.362 . S
C839 H829 0.930 . S
C839 C832 1.409 . S
C839 C838 1.362 . S
C271 C7 1.290 . S
C276 C182 1.291 . S
C287 C204 1.264 . S
C292 C29 1.252 . S
C303 C51 1.251 . S
C308 C226 1.255 . S
C319 C248 1.286 . S
C324 C73 1.273 . S
C335 C95 1.251 . S
C340 C138 1.253 . S
C351 C160 1.278 . S
C356 C117 1.263 . S
C367 C251 1.291 . S
C372 C71 1.283 . S
C383 C93 1.251 . S
C388 C141 1.259 . S
C399 C163 1.254 . S
C404 C115 1.252 . S
C415 C185 1.274 . S
C420 C5 1.263 . S
C431 C207 1.292 . S
C436 C27 1.288 . S
C447 C49 1.273 . S
C452 C229 1.287 . S
C463 C159 1.345 . S
C468 C9 1.317 . S
C479 C181 1.319 . S
C484 C31 1.311 . S
C495 C203 1.312 . S
C500 C53 1.331 . S
C511 C75 1.351 . S
C516 C225 1.323 . S
C527 C97 1.313 . S
C532 C247 1.332 . S
C543 C137 1.333 . S
C548 C119 1.355 . S
C559 C227 1.339 . S
C564 C72 1.362 . S
C575 C94 1.361 . S
C580 C249 1.357 . S
C591 C139 1.362 . S
C596 C116 1.345 . S
C607 C161 1.352 . S
C612 C6 1.328 . S
C623 C28 1.316 . S
C628 C183 1.342 . S
C639 C50 1.323 . S
C644 C205 1.313 . S
C655 C8 1.520 . S
C660 C224 1.516 . S
C671 C30 1.540 . S
C676 C246 1.549 . S
C687 C136 1.518 . S
C692 C52 1.519 . S
C703 C158 1.545 . S
C708 C74 1.532 . S
C719 C96 1.559 . S
C724 C180 1.561 . S
C735 C202 1.524 . S
C740 C118 1.532 . S
C751 C70 1.552 . S
C756 C162 1.561 . S
C767 C92 1.539 . S
C772 C184 1.530 . S
C783 C206 1.561 . S
C788 C114 1.557 . S
C799 C228 1.554 . S
C804 C4 1.545 . S
C815 C250 1.552 . S
C820 C26 1.561 . S
C831 C140 1.521 . S
C836 C48 1.519 . S
