# Generated by pormake.
# Topology sow, (4)-cn, num edge types: 1
# Building blocks:
#     Node 0, Type 0, BuildingBlock: CEKHIL_clean_sbu_0, # of connection points: 4
#     Node 1, Type 0, BuildingBlock: CEKHIL_clean_sbu_0, # of connection points: 4
#     Node 2, Type 0, BuildingBlock: CEKHIL_clean_sbu_0, # of connection points: 4
#     Node 3, Type 0, BuildingBlock: CEKHIL_clean_sbu_0, # of connection points: 4
#     Node 4, Type 0, BuildingBlock: CEKHIL_clean_sbu_0, # of connection points: 4
#     Node 5, Type 0, BuildingBlock: CEKHIL_clean_sbu_0, # of connection points: 4
#     Node 6, Type 0, BuildingBlock: CEKHIL_clean_sbu_0, # of connection points: 4
#     Node 7, Type 0, BuildingBlock: CEKHIL_clean_sbu_0, # of connection points: 4
#     Edge 8, Type (0, 0), BuildingBlock: MIFKUJ_clean_linker_0, # of connection points: 2
#     Edge 9, Type (0, 0), BuildingBlock: MIFKUJ_clean_linker_0, # of connection points: 2
#     Edge 10, Type (0, 0), BuildingBlock: MIFKUJ_clean_linker_0, # of connection points: 2
#     Edge 11, Type (0, 0), BuildingBlock: MIFKUJ_clean_linker_0, # of connection points: 2
#     Edge 12, Type (0, 0), BuildingBlock: MIFKUJ_clean_linker_0, # of connection points: 2
#     Edge 13, Type (0, 0), BuildingBlock: MIFKUJ_clean_linker_0, # of connection points: 2
#     Edge 14, Type (0, 0), BuildingBlock: MIFKUJ_clean_linker_0, # of connection points: 2
#     Edge 15, Type (0, 0), BuildingBlock: MIFKUJ_clean_linker_0, # of connection points: 2
#     Edge 16, Type (0, 0), BuildingBlock: MIFKUJ_clean_linker_0, # of connection points: 2
#     Edge 17, Type (0, 0), BuildingBlock: MIFKUJ_clean_linker_0, # of connection points: 2
#     Edge 18, Type (0, 0), BuildingBlock: MIFKUJ_clean_linker_0, # of connection points: 2
#     Edge 19, Type (0, 0), BuildingBlock: MIFKUJ_clean_linker_0, # of connection points: 2
#     Edge 20, Type (0, 0), BuildingBlock: MIFKUJ_clean_linker_0, # of connection points: 2
#     Edge 21, Type (0, 0), BuildingBlock: MIFKUJ_clean_linker_0, # of connection points: 2
#     Edge 22, Type (0, 0), BuildingBlock: MIFKUJ_clean_linker_0, # of connection points: 2
#     Edge 23, Type (0, 0), BuildingBlock: MIFKUJ_clean_linker_0, # of connection points: 2
# Relax obj value: 0.164
# Max RMSD: 0.205
# Mean RMSD: 0.205
data_MOF--net-sow--node1-CEKHIL_clean_sbu_0--edge1-MIFKUJ_clean_linker_0
_symmetry_space_group_name_H-M    P1
_symmetry_Int_Tables_number       1
_symmetry_cell_setting            triclinic
loop_
_symmetry_equiv_pos_as_xyz
'x, y, z'
_cell_length_a     50.284512
_cell_length_b     29.068217
_cell_length_c     30.407061
_cell_angle_alpha  90.056488
_cell_angle_beta   90.011688
_cell_angle_gamma 89.995358
loop_
_atom_site_label
_atom_site_type_symbol
_atom_site_fract_x
_atom_site_fract_y
_atom_site_fract_z
_atom_type_partial_charge
Co0 Co 0.13298 0.18624 0.06161 0.0
O1 O 0.16091 0.17167 0.02115 0.0
O2 O 0.14614 0.24211 0.03508 0.0
C3 C 0.10469 0.13139 0.03865 0.0
O4 O 0.10375 0.21386 0.09952 0.0
Co5 Co 0.11477 0.11389 0.13099 0.0
O6 O 0.08331 0.15535 0.13421 0.0
C7 C 0.16449 0.16576 0.14443 0.0
C8 C 0.1619 0.21537 0.01271 0.0
C9 C 0.08441 0.19734 0.12218 0.0
O10 O 0.15909 0.19195 0.11155 0.0
O11 O 0.15071 0.13048 0.15512 0.0
O12 O 0.10639 0.17006 0.01744 0.0
O13 O 0.12183 0.12561 0.06971 0.0
Co14 Co 0.34961 0.32027 0.56281 0.0
O15 O 0.31986 0.33176 0.52491 0.0
O16 O 0.3353 0.26255 0.5421 0.0
C17 C 0.37722 0.37205 0.53239 0.0
O18 O 0.38036 0.29526 0.59928 0.0
Co19 Co 0.37123 0.39823 0.62386 0.0
O20 O 0.40151 0.35514 0.63099 0.0
C21 C 0.32161 0.34963 0.64687 0.0
C22 C 0.31851 0.28748 0.51994 0.0
C23 C 0.39987 0.31267 0.62097 0.0
O24 O 0.32549 0.3202 0.6158 0.0
O25 O 0.33625 0.38517 0.65271 0.0
O26 O 0.37427 0.33181 0.51443 0.0
O27 O 0.36149 0.38101 0.56477 0.0
Co28 Co 0.64997 0.32779 0.96187 0.0
O29 O 0.67941 0.32994 0.00205 0.0
O30 O 0.66183 0.26613 0.97419 0.0
C31 C 0.62351 0.37674 -0.00109 0.0
O32 O 0.61932 0.31139 0.92114 0.0
Co33 Co 0.62977 0.41527 0.91289 0.0
O34 O 0.59798 0.37628 0.90203 0.0
C35 C 0.67762 0.3657 0.88084 0.0
C36 C 0.67887 0.28531 0.00061 0.0
C37 C 0.59949 0.33255 0.90381 0.0
O38 O 0.6746 0.3338 0.90985 0.0
O39 O 0.66307 0.40184 0.87911 0.0
O40 O 0.62491 0.33384 0.01058 0.0
O41 O 0.6399 0.38928 0.96864 0.0
Co42 Co 0.84825 0.18387 0.45847 0.0
O43 O 0.82055 0.17951 0.50167 0.0
O44 O 0.83434 0.24436 0.47038 0.0
C45 C 0.87844 0.13986 0.49334 0.0
O46 O 0.87664 0.20209 0.41423 0.0
Co47 Co 0.86803 0.09601 0.40943 0.0
O48 O 0.89648 0.13803 0.38884 0.0
C49 C 0.81787 0.14026 0.38217 0.0
C50 C 0.81902 0.22397 0.49874 0.0
C51 C 0.89478 0.18172 0.39165 0.0
O52 O 0.8218 0.17362 0.40938 0.0
O53 O 0.8328 0.10466 0.3801 0.0
O54 O 0.87536 0.18265 0.50448 0.0
O55 O 0.86119 0.12406 0.46575 0.0
Co56 Co 0.84746 0.80821 0.92832 0.0
O57 O 0.81779 0.81974 0.96624 0.0
O58 O 0.83008 0.75084 0.94257 0.0
C59 C 0.87627 0.85255 0.96592 0.0
O60 O 0.8777 0.78279 0.89092 0.0
Co61 Co 0.87502 0.88784 0.8773 0.0
O62 O 0.90426 0.84212 0.87301 0.0
C63 C 0.82452 0.84827 0.84401 0.0
C64 C 0.81454 0.77549 0.96743 0.0
C65 C 0.8997 0.7991 0.87606 0.0
O66 O 0.82467 0.81728 0.87434 0.0
O67 O 0.84172 0.88069 0.84173 0.0
O68 O 0.87149 0.8108 0.97879 0.0
O69 O 0.86203 0.86706 0.93349 0.0
Co70 Co 0.64273 0.68423 0.42483 0.0
O71 O 0.66952 0.67265 0.46839 0.0
O72 O 0.65889 0.74156 0.44252 0.0
C73 C 0.61082 0.64006 0.45484 0.0
O74 O 0.61559 0.70954 0.38145 0.0
Co75 Co 0.62071 0.60384 0.36737 0.0
O76 O 0.59218 0.6494 0.35522 0.0
C77 C 0.67325 0.64369 0.34739 0.0
C78 C 0.67298 0.71689 0.46957 0.0
C79 C 0.59572 0.69249 0.36041 0.0
O80 O 0.66945 0.67573 0.37603 0.0
O81 O 0.65728 0.60986 0.34187 0.0
O82 O 0.615 0.68131 0.46978 0.0
O83 O 0.62777 0.62551 0.42618 0.0
Co84 Co 0.34508 0.66572 0.04654 0.0
O85 O 0.31979 0.65567 0.00046 0.0
O86 O 0.33072 0.72404 0.02738 0.0
C87 C 0.3775 0.62067 0.01978 0.0
O88 O 0.3714 0.68902 0.09236 0.0
Co89 Co 0.3625 0.58291 0.105 0.0
O90 O 0.38964 0.62742 0.12568 0.0
C91 C 0.31081 0.62732 0.12104 0.0
C92 C 0.31739 0.70007 0.99868 0.0
C93 C 0.38843 0.67063 0.11864 0.0
O94 O 0.3164 0.65873 0.09261 0.0
O95 O 0.32558 0.59216 0.12779 0.0
O96 O 0.37427 0.66202 0.00463 0.0
O97 O 0.35907 0.60615 0.04586 0.0
Co98 Co 0.14142 0.80846 0.55004 0.0
O99 O 0.1631 0.81954 0.49941 0.0
O100 O 0.15124 0.75042 0.52326 0.0
C101 C 0.11027 0.8614 0.53448 0.0
O102 O 0.11795 0.78441 0.59945 0.0
Co103 Co 0.1336 0.88724 0.61875 0.0
O104 O 0.10721 0.84375 0.64381 0.0
C105 C 0.18393 0.83622 0.61614 0.0
C106 C 0.16332 0.77531 0.49383 0.0
C107 C 0.10514 0.80169 0.6322 0.0
O108 O 0.17368 0.8066 0.58956 0.0
O109 O 0.17227 0.87357 0.62735 0.0
O110 O 0.10949 0.82128 0.51563 0.0
O111 O 0.13116 0.86958 0.55777 0.0
H112 H 0.29346 0.27002 0.65983 0.0
H113 H 0.26321 0.25287 0.72049 0.0
H114 H 0.27193 0.39164 0.7689 0.0
H115 H 0.30246 0.40891 0.70895 0.0
H116 H 0.2799 0.33171 0.83282 0.0
H117 H 0.21363 0.35514 0.7228 0.0
H118 H 0.19162 0.34493 0.65099 0.0
H119 H 0.18056 0.20123 0.67794 0.0
H120 H 0.20286 0.21042 0.74968 0.0
H121 H 0.1754 0.30474 0.99457 0.0
H122 H 0.20089 0.33261 0.93096 0.0
H123 H 0.21022 0.19315 0.88501 0.0
H124 H 0.18546 0.16503 0.94851 0.0
H125 H 0.19095 0.25904 0.82029 0.0
H126 H 0.26055 0.23557 0.92735 0.0
H127 H 0.28267 0.24603 -0.00098 0.0
H128 H 0.28689 0.39173 0.97696 0.0
H129 H 0.26439 0.38218 0.90536 0.0
C130 C 0.2886 0.29713 0.68293 0.0
C131 C 0.30055 0.34072 0.67971 0.0
C132 C 0.27125 0.2873 0.71755 0.0
C133 C 0.2653 0.32105 0.74916 0.0
C134 C 0.27636 0.36506 0.74499 0.0
C135 C 0.29378 0.37485 0.71061 0.0
C136 C 0.24906 0.30955 0.78823 0.0
C137 C 0.26023 0.31666 0.83004 0.0
C138 C 0.22364 0.28909 0.78457 0.0
C139 C 0.21013 0.28341 0.74149 0.0
C140 C 0.2067 0.32128 0.71328 0.0
C141 C 0.19414 0.31569 0.67261 0.0
C142 C 0.18476 0.27244 0.65987 0.0
C143 C 0.18786 0.23471 0.68783 0.0
C144 C 0.20043 0.2401 0.72853 0.0
C145 C 0.18312 0.2801 0.97107 0.0
C146 C 0.17855 0.23276 0.9765 0.0
C147 C 0.19757 0.29602 0.93485 0.0
C148 C 0.20722 0.26482 0.90341 0.0
C149 C 0.20278 0.21764 0.90891 0.0
C150 C 0.18879 0.20169 0.94536 0.0
C151 C 0.22191 0.28108 0.86446 0.0
C152 C 0.21048 0.2747 0.82282 0.0
C153 C 0.24703 0.30239 0.86822 0.0
C154 C 0.26044 0.30824 0.9113 0.0
C155 C 0.2659 0.2699 0.938 0.0
C156 C 0.27858 0.27565 0.97856 0.0
C157 C 0.28609 0.31954 0.99262 0.0
C158 C 0.28099 0.35777 0.96608 0.0
C159 C 0.26829 0.35221 0.92551 0.0
H160 H 0.29592 0.32392 0.02401 0.0
H161 H 0.17504 0.26819 0.62836 0.0
H162 H 0.20953 0.11965 0.16731 0.0
H163 H 0.23992 0.13918 0.22765 0.0
H164 H 0.19368 0.26131 0.25465 0.0
H165 H 0.16489 0.24363 0.19215 0.0
H166 H 0.24139 0.28018 0.27084 0.0
H167 H 0.18577 0.14908 0.31026 0.0
H168 H 0.16846 0.07037 0.29973 0.0
H169 H 0.24771 0.01611 0.3088 0.0
H170 H 0.26548 0.09455 0.31898 0.0
H171 H 0.27161 0.32214 0.49072 0.0
H172 H 0.24661 0.29738 0.42598 0.0
H173 H 0.30181 0.18544 0.40657 0.0
H174 H 0.3261 0.20884 0.47276 0.0
H175 H 0.25365 0.15926 0.38414 0.0
H176 H 0.30826 0.29149 0.35162 0.0
H177 H 0.3246 0.37058 0.36339 0.0
H178 H 0.24589 0.42349 0.34233 0.0
H179 H 0.22902 0.34467 0.33099 0.0
C180 C 0.20646 0.15122 0.18558 0.0
C181 C 0.18514 0.18035 0.17537 0.0
C182 C 0.22354 0.1621 0.22034 0.0
C183 C 0.21862 0.20097 0.24675 0.0
C184 C 0.19792 0.23106 0.23501 0.0
C185 C 0.18148 0.22105 0.19932 0.0
C186 C 0.23388 0.20941 0.28787 0.0
C187 C 0.24383 0.25378 0.29571 0.0
C188 C 0.23772 0.17478 0.32011 0.0
C189 C 0.22695 0.12763 0.31503 0.0
C190 C 0.19948 0.12033 0.30992 0.0
C191 C 0.1896 0.07579 0.304 0.0
C192 C 0.20698 0.03828 0.30351 0.0
C193 C 0.23427 0.0452 0.30916 0.0
C194 C 0.24426 0.08966 0.31506 0.0
C195 C 0.27803 0.29165 0.47315 0.0
C196 C 0.30085 0.26757 0.48638 0.0
C197 C 0.2639 0.27777 0.43598 0.0
C198 C 0.27289 0.24052 0.41056 0.0
C199 C 0.29467 0.21458 0.42542 0.0
C200 C 0.30848 0.22786 0.46328 0.0
C201 C 0.26046 0.23025 0.36741 0.0
C202 C 0.25124 0.18555 0.35914 0.0
C203 C 0.25709 0.26466 0.3349 0.0
C204 C 0.26737 0.31215 0.3407 0.0
C205 C 0.29443 0.31999 0.34963 0.0
C206 C 0.30378 0.36476 0.35624 0.0
C207 C 0.28629 0.40202 0.35366 0.0
C208 C 0.25942 0.3946 0.34431 0.0
C209 C 0.24997 0.34989 0.33773 0.0
H210 H 0.29355 0.43665 0.35887 0.0
H211 H 0.19931 0.00383 0.29883 0.0
H212 H 0.81264 0.08959 0.30729 0.0
H213 H 0.78562 0.10736 0.24358 0.0
H214 H 0.74874 0.21927 0.31432 0.0
H215 H 0.77702 0.20314 0.37804 0.0
H216 H 0.73824 0.11196 0.2178 0.0
H217 H 0.73819 0.30878 0.24695 0.0
H218 H 0.76484 0.36762 0.28555 0.0
H219 H 0.8341 0.28179 0.27577 0.0
H220 H 0.80795 0.22277 0.23662 0.0
H221 H 0.65953 0.21783 0.05233 0.0
H222 H 0.68056 0.18586 0.11781 0.0
H223 H 0.75286 0.25954 0.08699 0.0
H224 H 0.73073 0.29486 0.02376 0.0
H225 H 0.74466 0.27281 0.16479 0.0
H226 H 0.7435 0.13317 0.08161 0.0
H227 H 0.72444 0.07069 0.03661 0.0
H228 H 0.67099 0.03583 0.14152 0.0
H229 H 0.68952 0.09845 0.18696 0.0
C230 C 0.79851 0.1176 0.3098 0.0
C231 C 0.79738 0.14553 0.34759 0.0
C232 C 0.78295 0.12762 0.27318 0.0
C233 C 0.76559 0.16535 0.27366 0.0
C234 C 0.76257 0.19075 0.31275 0.0
C235 C 0.77862 0.18135 0.34925 0.0
C236 C 0.75271 0.18012 0.23205 0.0
C237 C 0.73954 0.14717 0.20619 0.0
C238 C 0.75508 0.22571 0.21622 0.0
C239 C 0.77102 0.26118 0.23937 0.0
C240 C 0.75912 0.30256 0.25296 0.0
C241 C 0.77413 0.33592 0.27493 0.0
C242 C 0.80112 0.32837 0.28326 0.0
C243 C 0.81318 0.28753 0.26945 0.0
C244 C 0.79827 0.25411 0.24739 0.0
C245 C 0.68013 0.22619 0.05909 0.0
C246 C 0.6937 0.25839 0.03313 0.0
C247 C 0.69222 0.20779 0.09649 0.0
C248 C 0.71849 0.2198 0.10746 0.0
C249 C 0.73252 0.24994 0.07965 0.0
C250 C 0.72005 0.26976 0.04328 0.0
C251 C 0.73054 0.20444 0.1497 0.0
C252 C 0.74333 0.23748 0.17604 0.0
C253 C 0.72898 0.1584 0.16482 0.0
C254 C 0.71773 0.12079 0.13752 0.0
C255 C 0.72755 0.1124 0.09495 0.0
C256 C 0.71686 0.07692 0.06939 0.0
C257 C 0.69647 0.04939 0.08615 0.0
C258 C 0.68676 0.05721 0.12855 0.0
C259 C 0.69737 0.09266 0.15425 0.0
H260 H 0.68823 0.02194 0.06631 0.0
H261 H 0.8127 0.35421 0.30031 0.0
H262 H 0.68362 0.4182 0.80722 0.0
H263 H 0.7093 0.40015 0.74199 0.0
H264 H 0.74162 0.28027 0.80636 0.0
H265 H 0.71494 0.29709 0.87174 0.0
H266 H 0.75739 0.39154 0.71767 0.0
H267 H 0.74711 0.19314 0.73364 0.0
H268 H 0.71653 0.13651 0.76676 0.0
H269 H 0.65263 0.23429 0.76013 0.0
H270 H 0.68271 0.2912 0.72638 0.0
H271 H 0.83832 0.28495 0.55706 0.0
H272 H 0.81542 0.31562 0.62144 0.0
H273 H 0.7422 0.25283 0.57712 0.0
H274 H 0.76604 0.21851 0.51491 0.0
H275 H 0.74556 0.23532 0.65503 0.0
H276 H 0.75641 0.37779 0.57968 0.0
H277 H 0.77979 0.43969 0.53995 0.0
H278 H 0.82994 0.46294 0.65209 0.0
H279 H 0.80708 0.40082 0.69231 0.0
C280 C 0.69642 0.38824 0.80798 0.0
C281 C 0.69687 0.35865 0.84462 0.0
C282 C 0.7112 0.37808 0.77051 0.0
C283 C 0.72698 0.33839 0.7689 0.0
C284 C 0.72906 0.31054 0.80654 0.0
C285 C 0.71392 0.32032 0.84397 0.0
C286 C 0.73963 0.32482 0.7268 0.0
C287 C 0.75489 0.35736 0.70391 0.0
C288 C 0.73556 0.28079 0.70811 0.0
C289 C 0.71726 0.24657 0.728 0.0
C290 C 0.72652 0.20247 0.73914 0.0
C291 C 0.70927 0.17034 0.75802 0.0
C292 C 0.68268 0.18186 0.7657 0.0
C293 C 0.67325 0.22547 0.75433 0.0
C294 C 0.6904 0.25768 0.73535 0.0
C295 C 0.81719 0.27872 0.56074 0.0
C296 C 0.80372 0.25 0.53118 0.0
C297 C 0.80403 0.29641 0.59743 0.0
C298 C 0.77687 0.28721 0.60414 0.0
C299 C 0.76316 0.2603 0.573 0.0
C300 C 0.77662 0.2411 0.53725 0.0
C301 C 0.76341 0.30212 0.64534 0.0
C302 C 0.74808 0.26966 0.66837 0.0
C303 C 0.76633 0.34701 0.66299 0.0
C304 C 0.78017 0.38436 0.63886 0.0
C305 C 0.77255 0.39589 0.59575 0.0
C306 C 0.78569 0.43105 0.57317 0.0
C307 C 0.80638 0.45516 0.59345 0.0
C308 C 0.81393 0.44422 0.6364 0.0
C309 C 0.80086 0.40907 0.65913 0.0
H310 H 0.81652 0.48237 0.5759 0.0
H311 H 0.66938 0.15695 0.78036 0.0
H312 H 0.80628 0.68376 0.98416 0.0
H313 H 0.78476 0.651 0.04955 0.0
H314 H 0.76374 0.78736 0.09329 0.0
H315 H 0.78457 0.82022 0.02819 0.0
H316 H 0.79399 0.73188 0.15525 0.0
H317 H 0.7167 0.72551 0.05936 0.0
H318 H 0.69212 0.70144 0.99304 0.0
H319 H 0.70493 0.55957 0.02614 0.0
H320 H 0.72994 0.58287 0.09238 0.0
H321 H 0.70074 0.72177 0.32673 0.0
H322 H 0.72963 0.73328 0.26346 0.0
H323 H 0.72445 0.58869 0.23213 0.0
H324 H 0.69479 0.57716 0.29474 0.0
H325 H 0.71258 0.63603 0.16325 0.0
H326 H 0.78425 0.64033 0.26416 0.0
H327 H 0.809 0.66237 0.33092 0.0
H328 H 0.80888 0.80353 0.2895 0.0
H329 H 0.78379 0.78249 0.22277 0.0
C330 C 0.79649 0.70661 0.00718 0.0
C331 C 0.79727 0.75457 0.00118 0.0
C332 C 0.78435 0.68788 0.04454 0.0
C333 C 0.77306 0.71694 0.07633 0.0
C334 C 0.77262 0.76451 0.06923 0.0
C335 C 0.7844 0.78315 0.03183 0.0
C336 C 0.76295 0.69853 0.11835 0.0
C337 C 0.77613 0.71105 0.15723 0.0
C338 C 0.74034 0.66989 0.12043 0.0
C339 C 0.72552 0.65593 0.08045 0.0
C340 C 0.71456 0.68919 0.05221 0.0
C341 C 0.70047 0.67569 0.01471 0.0
C342 C 0.69705 0.629 0.00529 0.0
C343 C 0.70766 0.59572 0.03341 0.0
C344 C 0.72178 0.60905 0.07094 0.0
C345 C 0.70629 0.69216 0.30712 0.0
C346 C 0.69523 0.64866 0.31548 0.0
C347 C 0.72293 0.69876 0.27093 0.0
C348 C 0.72926 0.66181 0.24298 0.0
C349 C 0.7197 0.61774 0.25307 0.0
C350 C 0.70281 0.61121 0.28894 0.0
C351 C 0.74318 0.67039 0.20077 0.0
C352 C 0.73078 0.65602 0.16164 0.0
C353 C 0.76673 0.69691 0.19849 0.0
C354 C 0.78197 0.70982 0.23852 0.0
C355 C 0.78933 0.67613 0.2694 0.0
C356 C 0.80346 0.68844 0.30724 0.0
C357 C 0.81047 0.73433 0.31448 0.0
C358 C 0.80343 0.76799 0.28384 0.0
C359 C 0.78929 0.75587 0.24596 0.0
H360 H 0.82139 0.7438 0.34381 0.0
H361 H 0.68612 0.61862 0.97627 0.0
H362 H 0.67443 0.80685 0.49587 0.0
H363 H 0.69958 0.83904 0.55785 0.0
H364 H 0.73518 0.70633 0.58138 0.0
H365 H 0.71011 0.67393 0.51992 0.0
H366 H 0.69679 0.80946 0.64664 0.0
H367 H 0.79915 0.72543 0.61504 0.0
H368 H 0.82679 0.70044 0.5524 0.0
H369 H 0.78924 0.80088 0.46961 0.0
H370 H 0.76166 0.82692 0.53191 0.0
H371 H 0.7829 0.78741 0.83534 0.0
H372 H 0.75504 0.77558 0.77014 0.0
H373 H 0.7948 0.88765 0.7047 0.0
H374 H 0.82242 0.90017 0.76929 0.0
H375 H 0.79522 0.80485 0.65737 0.0
H376 H 0.73395 0.904 0.7324 0.0
H377 H 0.70636 0.92974 0.79477 0.0
H378 H 0.66205 0.80359 0.78958 0.0
H379 H 0.68963 0.77679 0.72754 0.0
C380 C 0.68793 0.78476 0.51386 0.0
C381 C 0.69035 0.73791 0.50309 0.0
C382 C 0.70209 0.80309 0.54939 0.0
C383 C 0.71917 0.77501 0.57407 0.0
C384 C 0.7222 0.72859 0.56253 0.0
C385 C 0.70787 0.71017 0.52741 0.0
C386 C 0.73332 0.79349 0.61286 0.0
C387 C 0.71832 0.80876 0.64897 0.0
C388 C 0.76137 0.79268 0.61563 0.0
C389 C 0.77819 0.77785 0.57809 0.0
C390 C 0.79689 0.74234 0.58353 0.0
C391 C 0.81253 0.72796 0.54807 0.0
C392 C 0.80972 0.74898 0.50702 0.0
C393 C 0.79133 0.78453 0.50139 0.0
C394 C 0.77566 0.79906 0.53675 0.0
C395 C 0.78542 0.81004 0.80737 0.0
C396 C 0.80509 0.84447 0.80752 0.0
C397 C 0.76945 0.80328 0.77022 0.0
C398 C 0.77302 0.83066 0.73268 0.0
C399 C 0.79185 0.8661 0.73335 0.0
C400 C 0.80758 0.8732 0.77047 0.0
C401 C 0.75871 0.82013 0.69144 0.0
C402 C 0.7737 0.80602 0.65494 0.0
C403 C 0.7307 0.82216 0.68835 0.0
C404 C 0.71402 0.83822 0.72557 0.0
C405 C 0.71848 0.88157 0.7448 0.0
C406 C 0.7028 0.89639 0.78004 0.0
C407 C 0.6825 0.86828 0.7962 0.0
C408 C 0.67779 0.82532 0.77706 0.0
C409 C 0.69342 0.81032 0.74182 0.0
H410 H 0.67039 0.87982 0.82348 0.0
H411 H 0.82182 0.73776 0.4796 0.0
H412 H 0.32162 0.78857 0.96866 0.0
H413 H 0.30465 0.81835 0.89863 0.0
H414 H 0.26458 0.68941 0.87498 0.0
H415 H 0.28175 0.65935 0.94421 0.0
H416 H 0.29496 0.71408 0.80596 0.0
H417 H 0.2306 0.78823 0.90232 0.0
H418 H 0.21686 0.83895 0.96331 0.0
H419 H 0.256 0.95322 0.90163 0.0
H420 H 0.27024 0.90301 0.84053 0.0
H421 H 0.1987 0.75079 0.64263 0.0
H422 H 0.22921 0.73317 0.70234 0.0
H423 H 0.25381 0.87545 0.70696 0.0
H424 H 0.22206 0.8936 0.64859 0.0
H425 H 0.239 0.85233 0.78303 0.0
H426 H 0.29793 0.78172 0.68124 0.0
H427 H 0.31177 0.73203 0.61958 0.0
H428 H 0.2847 0.61275 0.68969 0.0
H429 H 0.27035 0.66172 0.75151 0.0
C430 C 0.30868 0.76704 0.94897 0.0
C431 C 0.30309 0.72158 0.96171 0.0
C432 C 0.29909 0.78401 0.90892 0.0
C433 C 0.28355 0.7559 0.88146 0.0
C434 C 0.2768 0.71145 0.89544 0.0
C435 C 0.28648 0.69444 0.93514 0.0
C436 C 0.27532 0.77134 0.8371 0.0
C437 C 0.28257 0.74416 0.80082 0.0
C438 C 0.26025 0.8117 0.83032 0.0
C439 C 0.25176 0.84175 0.86716 0.0
C440 C 0.23648 0.82407 0.90199 0.0
C441 C 0.22856 0.85275 0.93652 0.0
C442 C 0.23563 0.89924 0.93643 0.0
C443 C 0.25059 0.91718 0.90172 0.0
C444 C 0.25858 0.88864 0.86713 0.0
C445 C 0.21133 0.77798 0.65522 0.0
C446 C 0.20789 0.82361 0.64128 0.0
C447 C 0.22889 0.76787 0.68942 0.0
C448 C 0.2439 0.80299 0.70936 0.0
C449 C 0.24231 0.84783 0.69241 0.0
C450 C 0.2243 0.85814 0.65889 0.0
C451 C 0.25787 0.79422 0.75159 0.0
C452 C 0.25182 0.8227 0.78766 0.0
C453 C 0.27422 0.75518 0.75808 0.0
C454 C 0.28295 0.7255 0.72098 0.0
C455 C 0.29477 0.74493 0.68341 0.0
C456 C 0.30273 0.71687 0.64844 0.0
C457 C 0.29909 0.66928 0.6507 0.0
C458 C 0.28753 0.64962 0.68798 0.0
C459 C 0.27952 0.67751 0.72305 0.0
H460 H 0.30525 0.64762 0.62357 0.0
H461 H 0.22947 0.92139 0.96318 0.0
H462 H 0.27385 0.69698 0.1199 0.0
H463 H 0.24245 0.71648 0.17839 0.0
H464 H 0.26581 0.59504 0.25009 0.0
H465 H 0.29648 0.57447 0.1915 0.0
H466 H 0.21448 0.61238 0.26342 0.0
H467 H 0.29659 0.6992 0.26766 0.0
H468 H 0.33085 0.75084 0.23714 0.0
H469 H 0.27231 0.85682 0.21953 0.0
H470 H 0.23763 0.80554 0.24941 0.0
H471 H 0.18426 0.68891 0.48222 0.0
H472 H 0.20493 0.65828 0.41511 0.0
H473 H 0.18745 0.78554 0.34779 0.0
H474 H 0.16844 0.81681 0.41502 0.0
H475 H 0.23471 0.76387 0.33072 0.0
H476 H 0.15248 0.67737 0.33111 0.0
H477 H 0.11889 0.62479 0.36217 0.0
H478 H 0.17755 0.51796 0.37229 0.0
H479 H 0.21157 0.57007 0.34178 0.0
C480 C 0.27187 0.67384 0.1476 0.0
C481 C 0.28812 0.63465 0.15134 0.0
C482 C 0.25397 0.68512 0.18109 0.0
C483 C 0.25235 0.65783 0.21912 0.0
C484 C 0.26687 0.61677 0.22121 0.0
C485 C 0.28453 0.60519 0.18761 0.0
C486 C 0.23787 0.67421 0.2586 0.0
C487 C 0.21889 0.64545 0.2783 0.0
C488 C 0.24358 0.71742 0.27786 0.0
C489 C 0.26449 0.7484 0.26035 0.0
C490 C 0.29101 0.73343 0.25704 0.0
C491 C 0.3105 0.76263 0.23988 0.0
C492 C 0.30375 0.80704 0.2263 0.0
C493 C 0.27751 0.82239 0.22999 0.0
C494 C 0.25793 0.79328 0.24705 0.0
C495 C 0.18489 0.71011 0.45296 0.0
C496 C 0.17505 0.75529 0.45379 0.0
C497 C 0.19646 0.69252 0.41454 0.0
C498 C 0.19751 0.7194 0.37608 0.0
C499 C 0.18706 0.76416 0.37696 0.0
C500 C 0.17621 0.78205 0.41545 0.0
C501 C 0.21073 0.70254 0.33542 0.0
C502 C 0.22984 0.73106 0.31568 0.0
C503 C 0.2051 0.65912 0.31633 0.0
C504 C 0.18461 0.62777 0.33452 0.0
C505 C 0.15825 0.64277 0.34023 0.0
C506 C 0.13913 0.61302 0.35769 0.0
C507 C 0.14609 0.5681 0.36929 0.0
C508 C 0.17218 0.55278 0.36334 0.0
C509 C 0.19138 0.58238 0.34592 0.0
H510 H 0.13126 0.54514 0.38282 0.0
H511 H 0.31886 0.8296 0.21302 0.0
H512 H 0.03167 0.1798 0.12601 0.0
H513 H -0.00169 0.22303 0.16694 0.0
H514 H 0.0567 0.32691 0.19791 0.0
H515 H 0.09019 0.28396 0.15559 0.0
H516 H 0.0366 0.28293 0.27036 0.0
H517 H 0.00072 0.36625 0.1543 0.0
H518 H 0.98497 0.38406 0.07948 0.0
H519 H 0.9221 0.2852 0.09315 0.0
H520 H 0.93766 0.26617 0.16773 0.0
H521 H 0.89762 0.27631 0.38424 0.0
H522 H 0.92942 0.32086 0.3398 0.0
H523 H 0.96687 0.19487 0.29797 0.0
H524 H 0.9352 0.15041 0.34064 0.0
H525 H 0.94037 0.30255 0.23984 0.0
H526 H 0.0325 0.21494 0.31934 0.0
H527 H 0.04754 0.19236 0.39334 0.0
H528 H -0.0018 0.29688 0.45085 0.0
H529 H 0.98325 0.32078 0.37711 0.0
C530 C 0.03713 0.21267 0.14025 0.0
C531 C 0.06344 0.22841 0.13819 0.0
C532 C 0.018 0.23765 0.16324 0.0
C533 C 0.02498 0.27838 0.18529 0.0
C534 C 0.05086 0.29587 0.18069 0.0
C535 C 0.06994 0.27129 0.15669 0.0
C536 C 0.00707 0.29518 0.22042 0.0
C537 C 0.01566 0.28876 0.26389 0.0
C538 C 0.97989 0.30409 0.21199 0.0
C539 C 0.97037 0.31489 0.16687 0.0
C540 C 0.98362 0.34808 0.14131 0.0
C541 C 0.9747 0.35842 0.0989 0.0
C542 C 0.95253 0.33582 0.0816 0.0
C543 C 0.93923 0.30278 0.10665 0.0
C544 C 0.94806 0.2923 0.14908 0.0
C545 C 0.91274 0.25817 0.36572 0.0
C546 C 0.91409 0.2097 0.36646 0.0
C547 C 0.93079 0.28368 0.34041 0.0
C548 C 0.95059 0.26097 0.31629 0.0
C549 C 0.95192 0.21289 0.31702 0.0
C550 C 0.93381 0.18754 0.34156 0.0
C551 C 0.96984 0.28578 0.28846 0.0
C552 C 0.96149 0.29956 0.24652 0.0
C553 C -0.00273 0.28326 0.2981 0.0
C554 C 0.00681 0.2698 0.34256 0.0
C555 C 0.0251 0.23356 0.34768 0.0
C556 C 0.03359 0.22045 0.38962 0.0
C557 C 0.02386 0.2432 0.42677 0.0
C558 C 0.00571 0.27924 0.42205 0.0
C559 C -0.00278 0.2926 0.38017 0.0
H560 H 0.03036 0.23285 0.45922 0.0
H561 H 0.94565 0.3439 0.04877 0.0
H562 H 0.4478 0.29364 0.58467 0.0
H563 H 0.4867 0.26406 0.62434 0.0
H564 H 0.43754 0.23906 0.73822 0.0
H565 H 0.39877 0.2674 0.69812 0.0
H566 H 0.50268 0.31345 0.68997 0.0
H567 H 0.46671 0.16849 0.8107 0.0
H568 H 0.44129 0.09609 0.80687 0.0
H569 H 0.45913 0.08415 0.66926 0.0
H570 H 0.48498 0.15608 0.67232 0.0
H571 H 0.54685 0.35161 0.89723 0.0
H572 H 0.51578 0.31937 0.84361 0.0
H573 H 0.57501 0.22076 0.80315 0.0
H574 H 0.60641 0.25341 0.85665 0.0
H575 H 0.51486 0.19131 0.80216 0.0
H576 H 0.57865 0.29939 0.74206 0.0
H577 H 0.60533 0.37053 0.74568 0.0
H578 H 0.53394 0.45094 0.75586 0.0
H579 H 0.5069 0.38011 0.75334 0.0
C580 C 0.44523 0.27961 0.61741 0.0
C581 C 0.42054 0.28243 0.63856 0.0
C582 C 0.46739 0.26287 0.64009 0.0
C583 C 0.46511 0.24949 0.68435 0.0
C584 C 0.43982 0.24843 0.70395 0.0
C585 C 0.41766 0.26481 0.68115 0.0
C586 C 0.48909 0.24714 0.71271 0.0
C587 C 0.50561 0.28605 0.71368 0.0
C588 C 0.49319 0.21143 0.74369 0.0
C589 C 0.47772 0.16794 0.74174 0.0
C590 C 0.46537 0.15032 0.77967 0.0
C591 C 0.45083 0.10937 0.77761 0.0
C592 C 0.44856 0.08558 0.73784 0.0
C593 C 0.46083 0.10268 0.70003 0.0
C594 C 0.47538 0.14361 0.70189 0.0
C595 C 0.55305 0.32254 0.87748 0.0
C596 C 0.57914 0.30579 0.88012 0.0
C597 C 0.53524 0.30381 0.84729 0.0
C598 C 0.54328 0.26806 0.81927 0.0
C599 C 0.56848 0.24821 0.82471 0.0
C600 C 0.58636 0.26697 0.85515 0.0
C601 C 0.52718 0.25815 0.77979 0.0
C602 C 0.51222 0.21755 0.77721 0.0
C603 C 0.52465 0.29183 0.74665 0.0
C604 C 0.54078 0.33454 0.7473 0.0
C605 C 0.56867 0.33226 0.74519 0.0
C606 C 0.58386 0.37249 0.74712 0.0
C607 C 0.57134 0.41523 0.75087 0.0
C608 C 0.5436 0.41782 0.75277 0.0
C609 C 0.52835 0.37766 0.75104 0.0
H610 H 0.58313 0.44634 0.75232 0.0
H611 H 0.4373 0.05388 0.73633 0.0
H612 H 0.07953 0.7228 0.60547 0.0
H613 H 0.04508 0.68035 0.64612 0.0
H614 H 0.05535 0.77194 0.75656 0.0
H615 H 0.08931 0.81412 0.71658 0.0
H616 H 0.04663 0.68048 0.78236 0.0
H617 H 0.01077 0.7953 0.67537 0.0
H618 H 0.00345 0.82168 0.59907 0.0
H619 H 0.9671 0.69228 0.56702 0.0
H620 H 0.97462 0.66502 0.64295 0.0
H621 H 0.95298 0.80825 0.88319 0.0
H622 H 0.98696 0.76487 0.84404 0.0
H623 H 0.92659 0.67642 0.7889 0.0
H624 H 0.89226 0.7197 0.82915 0.0
H625 H 0.95674 0.71869 0.72608 0.0
H626 H 0.97477 0.62364 0.84456 0.0
H627 H 0.98098 0.59858 0.92125 0.0
H628 H 0.04957 0.68564 0.93304 0.0
H629 H 0.04358 0.71189 0.85669 0.0
C630 C 0.07475 0.73318 0.63876 0.0
C631 C 0.08685 0.77215 0.65767 0.0
C632 C 0.05514 0.70888 0.6619 0.0
C633 C 0.04768 0.72303 0.70433 0.0
C634 C 0.06092 0.76019 0.724 0.0
C635 C 0.08016 0.78462 0.7009 0.0
C636 C 0.02395 0.7043 0.72689 0.0
C637 C 0.02686 0.68797 0.77005 0.0
C638 C -0.00189 0.71159 0.70987 0.0
C639 C 0.99358 0.728 0.66445 0.0
C640 C 0.00139 0.77249 0.65187 0.0
C641 C -0.00281 0.78758 0.60878 0.0
C642 C 0.98488 0.75865 0.57821 0.0
C643 C 0.97671 0.71459 0.5907 0.0
C644 C 0.98097 0.69929 0.63372 0.0
C645 C 0.94702 0.77877 0.86369 0.0
C646 C 0.92008 0.76747 0.85884 0.0
C647 C 0.96646 0.75366 0.84163 0.0
C648 C 0.95935 0.7171 0.81379 0.0
C649 C 0.9325 0.70418 0.81058 0.0
C650 C 0.91297 0.72888 0.83352 0.0
C651 C 0.97965 0.69902 0.78298 0.0
C652 C 0.97617 0.70835 0.73808 0.0
C653 C 0.00489 0.68494 0.79841 0.0
C654 C 0.00873 0.66967 0.84465 0.0
C655 C 0.99111 0.63768 0.86353 0.0
C656 C 0.9946 0.62323 0.90698 0.0
C657 C 0.01567 0.64047 0.93198 0.0
C658 C 0.03329 0.67222 0.91358 0.0
C659 C 0.0299 0.68681 0.87014 0.0
H660 H 0.01835 0.62922 0.96562 0.0
H661 H 0.98162 0.7704 0.54488 0.0
H662 H 0.40572 0.75729 0.09562 0.0
H663 H 0.44255 0.80058 0.12949 0.0
H664 H 0.4525 0.69281 0.22539 0.0
H665 H 0.41557 0.6505 0.19316 0.0
H666 H 0.45301 0.80873 0.24626 0.0
H667 H 0.51985 0.66783 0.17674 0.0
H668 H 0.52523 0.62155 0.10931 0.0
H669 H 0.49217 0.73135 0.03239 0.0
H670 H 0.48755 0.77896 0.09917 0.0
H671 H 0.54268 0.6908 0.37041 0.0
H672 H 0.50968 0.72988 0.32466 0.0
H673 H 0.57241 0.8004 0.25546 0.0
H674 H 0.6056 0.7619 0.30233 0.0
H675 H 0.5407 0.7454 0.2025 0.0
H676 H 0.52634 0.86746 0.3005 0.0
H677 H 0.52091 0.90643 0.37196 0.0
H678 H 0.44949 0.82962 0.39622 0.0
H679 H 0.45466 0.78963 0.32527 0.0
C680 C 0.41548 0.74336 0.12444 0.0
C681 C 0.40812 0.70007 0.14126 0.0
C682 C 0.43651 0.768 0.14354 0.0
C683 C 0.45037 0.74935 0.17938 0.0
C684 C 0.44211 0.70747 0.19748 0.0
C685 C 0.42113 0.68321 0.17881 0.0
C686 C 0.47465 0.7707 0.19731 0.0
C687 C 0.47241 0.79625 0.23625 0.0
C688 C 0.49988 0.75485 0.18354 0.0
C689 C 0.50309 0.72681 0.14304 0.0
C690 C 0.51393 0.68227 0.1454 0.0
C691 C 0.51694 0.65586 0.10727 0.0
C692 C 0.50895 0.67342 0.06661 0.0
C693 C 0.49823 0.71768 0.06394 0.0
C694 C 0.49546 0.74444 0.10192 0.0
C695 C 0.54927 0.71585 0.34642 0.0
C696 C 0.57644 0.72342 0.33957 0.0
C697 C 0.53049 0.73841 0.3206 0.0
C698 C 0.53858 0.76831 0.28696 0.0
C699 C 0.56577 0.77792 0.28164 0.0
C700 C 0.58464 0.75599 0.3083 0.0
C701 C 0.51886 0.78113 0.25297 0.0
C702 C 0.52183 0.76094 0.21136 0.0
C703 C 0.49432 0.80162 0.26452 0.0
C704 C 0.49087 0.82564 0.30731 0.0
C705 C 0.50952 0.85872 0.32112 0.0
C706 C 0.50648 0.881 0.36157 0.0
C707 C 0.48485 0.87056 0.38858 0.0
C708 C 0.4662 0.83779 0.37519 0.0
C709 C 0.46914 0.81539 0.33477 0.0
H710 H 0.48254 0.88783 0.41989 0.0
H711 H 0.51106 0.65272 0.0372 0.0
H712 H 0.0992 0.04582 0.07355 0.0
H713 H 0.06065 0.99477 0.06789 0.0
H714 H 0.02079 0.09437 0.98601 0.0
H715 H 0.05933 0.14559 0.99135 0.0
H716 H 0.98956 0.06075 0.05599 0.0
H717 H 0.04592 0.00283 0.93947 0.0
H718 H 0.08753 0.97165 0.90856 0.0
H719 H 0.08289 0.85604 0.99602 0.0
H720 H 0.04141 0.88689 0.02789 0.0
H721 H 0.88715 0.94208 0.94892 0.0
H722 H 0.9263 0.98574 0.97099 0.0
H723 H 0.95601 0.86791 0.04186 0.0
H724 H 0.91667 0.82364 0.01959 0.0
H725 H 0.99346 0.90575 0.98771 0.0
H726 H 0.93486 0.95816 0.09892 0.0
H727 H 0.89336 0.98843 0.13092 0.0
H728 H 0.90223 0.11305 0.05668 0.0
H729 H 0.94359 0.08326 0.02367 0.0
C730 C 0.08229 0.05667 0.05406 0.0
C731 C 0.08222 0.09956 0.03276 0.0
C732 C 0.06035 0.0275 0.05087 0.0
C733 C 0.03799 0.04089 0.02651 0.0
C734 C 0.03792 0.08358 0.00502 0.0
C735 C 0.05996 0.11261 0.00787 0.0
C736 C 0.01446 0.0107 0.02388 0.0
C737 C 0.99028 0.02701 0.04074 0.0
C738 C 0.01584 0.96604 0.00559 0.0
C739 C 0.04075 0.94745 0.98643 0.0
C740 C 0.05391 0.97098 0.9524 0.0
C741 C 0.07744 0.95332 0.93464 0.0
C742 C 0.08789 0.91197 0.95042 0.0
C743 C 0.07479 0.88812 0.9839 0.0
C744 C 0.05127 0.90566 0.0018 0.0
C745 C 0.90186 0.92556 0.96959 0.0
C746 C 0.89892 0.8795 0.98254 0.0
C747 C 0.92415 0.95062 0.98236 0.0
C748 C 0.94389 0.93015 0.00838 0.0
C749 C 0.94089 0.8843 0.02192 0.0
C750 C 0.91842 0.85918 0.00932 0.0
C751 C 0.96831 0.95623 0.01882 0.0
C752 C 0.99272 0.93919 0.00354 0.0
C753 C 0.96718 1.00013 0.03885 0.0
C754 C 0.94226 0.01829 0.05855 0.0
C755 C 0.92786 0.99186 0.08911 0.0
C756 C 0.90437 0.00897 0.10749 0.0
C757 C 0.89514 0.0526 0.09578 0.0
C758 C 0.9094 0.07925 0.0657 0.0
C759 C 0.93289 0.06228 0.04719 0.0
H760 H 0.87695 0.06579 0.11006 0.0
H761 H 0.10611 0.89835 0.93662 0.0
H762 H 0.59327 0.56197 0.41489 0.0
H763 H 0.55137 0.52183 0.42721 0.0
H764 H 0.5306 0.61951 0.52835 0.0
H765 H 0.57244 0.66095 0.5154 0.0
H766 H 0.52515 0.52248 0.55131 0.0
H767 H 0.49263 0.63059 0.44501 0.0
H768 H 0.49196 0.67593 0.37672 0.0
H769 H 0.49642 0.55184 0.30025 0.0
H770 H 0.49634 0.50562 0.36844 0.0
H771 H 0.39101 0.45182 0.57323 0.0
H772 H 0.43025 0.49907 0.5597 0.0
H773 H 0.45365 0.40857 0.45409 0.0
H774 H 0.41444 0.36046 0.4678 0.0
H775 H 0.45691 0.50493 0.4344 0.0
H776 H 0.4866 0.39699 0.54413 0.0
H777 H 0.48391 0.35444 0.61398 0.0
H778 H 0.48391 0.48148 0.68596 0.0
H779 H 0.48678 0.52498 0.61637 0.0
C780 C 0.57981 0.57513 0.43966 0.0
C781 C 0.58608 0.61471 0.4641 0.0
C782 C 0.55584 0.55224 0.44649 0.0
C783 C 0.53791 0.56809 0.47832 0.0
C784 C 0.54423 0.60706 0.50345 0.0
C785 C 0.56809 0.63053 0.4961 0.0
C786 C 0.51307 0.5425 0.48611 0.0
C787 C 0.50998 0.51924 0.52611 0.0
C788 C 0.49373 0.53754 0.45277 0.0
C789 C 0.49481 0.56479 0.41171 0.0
C790 C 0.49371 0.61303 0.41362 0.0
C791 C 0.49332 0.63886 0.37492 0.0
C792 C 0.49447 0.61687 0.33407 0.0
C793 C 0.49567 0.56887 0.3319 0.0
C794 C 0.49565 0.54281 0.37056 0.0
C795 C 0.40443 0.44195 0.54703 0.0
C796 C 0.3998 0.40227 0.52174 0.0
C797 C 0.42685 0.46893 0.53946 0.0
C798 C 0.44487 0.45688 0.50628 0.0
C799 C 0.43991 0.41818 0.47996 0.0
C800 C 0.41758 0.39082 0.48782 0.0
C801 C 0.46903 0.4847 0.49952 0.0
C802 C 0.47204 0.50824 0.45966 0.0
C803 C 0.48821 0.49011 0.53316 0.0
C804 C 0.48657 0.46422 0.57505 0.0
C805 C 0.48581 0.41588 0.57483 0.0
C806 C 0.48429 0.39158 0.61437 0.0
C807 C 0.48342 0.4152 0.65436 0.0
C808 C 0.48445 0.46324 0.65493 0.0
C809 C 0.48612 0.48774 0.61545 0.0
H810 H 0.482 0.39628 0.68487 0.0
H811 H 0.49429 0.63701 0.30414 0.0
H812 H 0.38905 0.53317 0.04518 0.0
H813 H 0.43254 0.4956 0.04436 0.0
H814 H 0.46732 0.61685 0.98611 0.0
H815 H 0.42377 0.65416 0.98582 0.0
H816 H 0.48625 0.54275 0.94811 0.0
H817 H 0.47431 0.59408 0.09368 0.0
H818 H 0.45479 0.6058 0.16691 0.0
H819 H 0.45669 0.46029 0.19045 0.0
H820 H 0.47692 0.44772 0.1175 0.0
H821 H 0.61819 0.46844 0.98478 0.0
H822 H 0.57765 0.51424 0.99146 0.0
H823 H 0.53594 0.39589 0.04215 0.0
H824 H 0.57663 0.35009 0.03645 0.0
H825 H 0.52232 0.47415 0.08508 0.0
H826 H 0.53154 0.42706 0.9305 0.0
H827 H 0.55461 0.42321 0.85864 0.0
H828 H 0.55982 0.5704 0.85526 0.0
H829 H 0.53672 0.57526 0.9267 0.0
C830 C 0.40593 0.5516 0.03181 0.0
C831 C 0.40308 0.59651 0.01558 0.0
C832 C 0.43077 0.53027 0.03166 0.0
C833 C 0.4532 0.55376 0.01584 0.0
C834 C 0.45025 0.59818 0.99851 0.0
C835 C 0.42537 0.61938 0.99832 0.0
C836 C 0.47971 0.53185 0.01735 0.0
C837 C 0.49428 0.52825 0.9782 0.0
C838 C 0.49013 0.51292 0.05662 0.0
C839 C 0.47712 0.51999 0.09997 0.0
C840 C 0.47054 0.56455 0.11436 0.0
C841 C 0.45934 0.57137 0.15588 0.0
C842 C 0.45429 0.53383 0.18326 0.0
C843 C 0.46059 0.48936 0.1692 0.0
C844 C 0.47208 0.4824 0.12784 0.0
C845 C 0.60047 0.4524 0.99802 0.0
C846 C 0.60044 0.40568 0.00983 0.0
C847 C 0.57731 0.47849 0.00149 0.0
C848 C 0.55369 0.45809 0.01625 0.0
C849 C 0.55397 0.41212 0.03037 0.0
C850 C 0.57722 0.38607 0.02725 0.0
C851 C 0.52845 0.4841 0.0157 0.0
C852 C 0.51419 0.48862 0.05507 0.0
C853 C 0.51855 0.50468 0.97682 0.0
C854 C 0.53264 0.50147 0.93408 0.0
C855 C 0.53778 0.45854 0.91451 0.0
C856 C 0.55079 0.45617 0.87388 0.0
C857 C 0.5588 0.49644 0.85266 0.0
C858 C 0.55366 0.53923 0.8718 0.0
C859 C 0.54054 0.54182 0.91225 0.0
H860 H 0.56891 0.49453 0.82131 0.0
H861 H 0.44558 0.53922 0.2154 0.0
H862 H 0.10523 0.94274 0.57842 0.0
H863 H 0.06753 0.99593 0.57645 0.0
H864 H 0.02699 0.90637 0.48524 0.0
H865 H 0.06455 0.8529 0.4871 0.0
H866 H 0.02796 0.9995 0.46028 0.0
H867 H 0.01038 0.90703 0.58977 0.0
H868 H 0.0219 0.87551 0.66259 0.0
H869 H 0.02637 0.0121 0.71574 0.0
H870 H 0.01565 0.04456 0.64292 0.0
H871 H 0.89321 0.05589 0.46223 0.0
H872 H 0.93561 0.01691 0.47302 0.0
H873 H 0.96161 0.12604 0.55904 0.0
H874 H 0.91919 0.16618 0.54756 0.0
H875 H 0.97192 0.03409 0.59053 0.0
H876 H 0.98867 0.12829 0.46714 0.0
H877 H 0.98361 0.16529 0.39479 0.0
H878 H 0.98477 0.03309 0.33173 0.0
H879 H 0.98934 0.99514 0.40384 0.0
C880 C 0.08827 0.93436 0.55797 0.0
C881 C 0.08777 0.89371 0.53288 0.0
C882 C 0.06677 0.96469 0.55703 0.0
C883 C 0.04452 0.95481 0.53092 0.0
C884 C 0.04406 0.91446 0.50559 0.0
C885 C 0.06547 0.88399 0.50672 0.0
C886 C 0.02178 0.98681 0.52919 0.0
C887 C 0.0155 0.00672 0.4886 0.0
C888 C 0.0065 0.99786 0.56681 0.0
C889 C 0.01251 0.97823 0.61074 0.0
C890 C 0.01405 0.93036 0.61688 0.0
C891 C 0.0204 0.91231 0.65817 0.0
C892 C 0.02485 0.94174 0.69375 0.0
C893 C 0.02295 0.98932 0.68813 0.0
C894 C 0.01677 0.00757 0.64684 0.0
C895 C 0.90785 0.07167 0.48354 0.0
C896 C 0.90296 0.1143 0.50377 0.0
C897 C 0.9321 0.0494 0.48955 0.0
C898 C 0.95176 0.069 0.51632 0.0
C899 C 0.94664 0.11063 0.53805 0.0
C900 C 0.92245 0.13338 0.53152 0.0
C901 C 0.97755 0.04538 0.52114 0.0
C902 C 0.98448 0.02716 0.56227 0.0
C903 C 0.99378 0.03644 0.48418 0.0
C904 C 0.98914 0.05883 0.441 0.0
C905 C 0.98741 0.10703 0.43795 0.0
C906 C 0.98481 0.1282 0.39693 0.0
C907 C 0.98405 0.10156 0.35867 0.0
C908 C 0.98547 0.05367 0.36139 0.0
C909 C 0.98805 0.03231 0.40233 0.0
H910 H 0.98237 0.11798 0.32688 0.0
H911 H 0.02974 0.92766 0.72569 0.0
loop_
_geom_bond_atom_site_label_1
_geom_bond_atom_site_label_2
_geom_bond_distance
_geom_bond_site_symmetry_2
_ccdc_geom_bond_type
Co0 O1 2.216 . S
Co0 O2 2.091 . S
Co0 O4 2.004 . S
Co0 O10 2.021 . S
Co0 O12 2.137 . S
Co0 O13 2.244 . S
O1 Co0 2.216 . S
O1 C8 1.247 . S
O2 Co0 2.091 . S
O2 C8 1.261 . S
C3 O12 1.247 . S
C3 O13 1.272 . S
O4 Co0 2.004 . S
O4 C9 1.259 . S
Co5 O6 2.061 . S
Co5 O11 2.052 . S
Co5 O13 2.135 . S
O6 Co5 2.061 . S
O6 C9 1.235 . S
C7 O10 1.238 . S
C7 O11 1.241 . S
C8 O1 1.247 . S
C8 O2 1.261 . S
C9 O4 1.259 . S
C9 O6 1.235 . S
O10 Co0 2.021 . S
O10 C7 1.238 . S
O11 Co5 2.052 . S
O11 C7 1.241 . S
O12 Co0 2.137 . S
O12 C3 1.247 . S
O13 Co0 2.244 . S
O13 C3 1.272 . S
O13 Co5 2.135 . S
Co14 O15 2.216 . S
Co14 O16 2.091 . S
Co14 O18 2.004 . S
Co14 O24 2.021 . S
Co14 O26 2.137 . S
Co14 O27 2.244 . S
O15 Co14 2.216 . S
O15 C22 1.247 . S
O16 Co14 2.091 . S
O16 C22 1.261 . S
C17 O26 1.247 . S
C17 O27 1.272 . S
O18 Co14 2.004 . S
O18 C23 1.259 . S
Co19 O20 2.061 . S
Co19 O25 2.052 . S
Co19 O27 2.135 . S
O20 Co19 2.061 . S
O20 C23 1.235 . S
C21 O24 1.238 . S
C21 O25 1.241 . S
C22 O15 1.247 . S
C22 O16 1.261 . S
C23 O18 1.259 . S
C23 O20 1.235 . S
O24 Co14 2.021 . S
O24 C21 1.238 . S
O25 Co19 2.052 . S
O25 C21 1.241 . S
O26 Co14 2.137 . S
O26 C17 1.247 . S
O27 Co14 2.244 . S
O27 C17 1.272 . S
O27 Co19 2.135 . S
Co28 O29 2.216 . S
Co28 O30 2.091 . S
Co28 O32 2.004 . S
Co28 O38 2.021 . S
Co28 O40 2.137 . S
Co28 O41 2.244 . S
O29 Co28 2.216 . S
O29 C36 1.247 . S
O30 Co28 2.091 . S
O30 C36 1.261 . S
C31 O40 1.247 . S
C31 O41 1.272 . S
O32 Co28 2.004 . S
O32 C37 1.259 . S
Co33 O34 2.061 . S
Co33 O39 2.052 . S
Co33 O41 2.135 . S
O34 Co33 2.061 . S
O34 C37 1.235 . S
C35 O38 1.238 . S
C35 O39 1.241 . S
C36 O29 1.247 . S
C36 O30 1.261 . S
C37 O32 1.259 . S
C37 O34 1.235 . S
O38 Co28 2.021 . S
O38 C35 1.238 . S
O39 Co33 2.052 . S
O39 C35 1.241 . S
O40 Co28 2.137 . S
O40 C31 1.247 . S
O41 Co28 2.244 . S
O41 C31 1.272 . S
O41 Co33 2.135 . S
Co42 O43 2.216 . S
Co42 O44 2.091 . S
Co42 O46 2.004 . S
Co42 O52 2.021 . S
Co42 O54 2.137 . S
Co42 O55 2.244 . S
O43 Co42 2.216 . S
O43 C50 1.247 . S
O44 Co42 2.091 . S
O44 C50 1.261 . S
C45 O54 1.247 . S
C45 O55 1.272 . S
O46 Co42 2.004 . S
O46 C51 1.259 . S
Co47 O48 2.061 . S
Co47 O53 2.052 . S
Co47 O55 2.135 . S
O48 Co47 2.061 . S
O48 C51 1.235 . S
C49 O52 1.238 . S
C49 O53 1.241 . S
C50 O43 1.247 . S
C50 O44 1.261 . S
C51 O46 1.259 . S
C51 O48 1.235 . S
O52 Co42 2.021 . S
O52 C49 1.238 . S
O53 Co47 2.052 . S
O53 C49 1.241 . S
O54 Co42 2.137 . S
O54 C45 1.247 . S
O55 Co42 2.244 . S
O55 C45 1.272 . S
O55 Co47 2.135 . S
Co56 O57 2.216 . S
Co56 O58 2.091 . S
Co56 O60 2.004 . S
Co56 O66 2.021 . S
Co56 O68 2.137 . S
Co56 O69 2.244 . S
O57 Co56 2.216 . S
O57 C64 1.247 . S
O58 Co56 2.091 . S
O58 C64 1.261 . S
C59 O68 1.247 . S
C59 O69 1.272 . S
O60 Co56 2.004 . S
O60 C65 1.259 . S
Co61 O62 2.061 . S
Co61 O67 2.052 . S
Co61 O69 2.135 . S
O62 Co61 2.061 . S
O62 C65 1.235 . S
C63 O66 1.238 . S
C63 O67 1.241 . S
C64 O57 1.247 . S
C64 O58 1.261 . S
C65 O60 1.259 . S
C65 O62 1.235 . S
O66 Co56 2.021 . S
O66 C63 1.238 . S
O67 Co61 2.052 . S
O67 C63 1.241 . S
O68 Co56 2.137 . S
O68 C59 1.247 . S
O69 Co56 2.244 . S
O69 C59 1.272 . S
O69 Co61 2.135 . S
Co70 O71 2.216 . S
Co70 O72 2.091 . S
Co70 O74 2.004 . S
Co70 O80 2.021 . S
Co70 O82 2.137 . S
Co70 O83 2.244 . S
O71 Co70 2.216 . S
O71 C78 1.247 . S
O72 Co70 2.091 . S
O72 C78 1.261 . S
C73 O82 1.247 . S
C73 O83 1.272 . S
O74 Co70 2.004 . S
O74 C79 1.259 . S
Co75 O76 2.061 . S
Co75 O81 2.052 . S
Co75 O83 2.135 . S
O76 Co75 2.061 . S
O76 C79 1.235 . S
C77 O80 1.238 . S
C77 O81 1.241 . S
C78 O71 1.247 . S
C78 O72 1.261 . S
C79 O74 1.259 . S
C79 O76 1.235 . S
O80 Co70 2.021 . S
O80 C77 1.238 . S
O81 Co75 2.052 . S
O81 C77 1.241 . S
O82 Co70 2.137 . S
O82 C73 1.247 . S
O83 Co70 2.244 . S
O83 C73 1.272 . S
O83 Co75 2.135 . S
Co84 O85 2.216 . S
Co84 O86 2.091 . S
Co84 O88 2.004 . S
Co84 O94 2.021 . S
Co84 O96 2.137 . S
Co84 O97 2.244 . S
O85 Co84 2.216 . S
O85 C92 1.247 . S
O86 Co84 2.091 . S
O86 C92 1.261 . S
C87 O96 1.247 . S
C87 O97 1.272 . S
O88 Co84 2.004 . S
O88 C93 1.259 . S
Co89 O90 2.061 . S
Co89 O95 2.052 . S
Co89 O97 2.135 . S
O90 Co89 2.061 . S
O90 C93 1.235 . S
C91 O94 1.238 . S
C91 O95 1.241 . S
C92 O85 1.247 . S
C92 O86 1.261 . S
C93 O88 1.259 . S
C93 O90 1.235 . S
O94 Co84 2.021 . S
O94 C91 1.238 . S
O95 Co89 2.052 . S
O95 C91 1.241 . S
O96 Co84 2.137 . S
O96 C87 1.247 . S
O97 Co84 2.244 . S
O97 C87 1.272 . S
O97 Co89 2.135 . S
Co98 O99 2.216 . S
Co98 O100 2.091 . S
Co98 O102 2.004 . S
Co98 O108 2.021 . S
Co98 O110 2.137 . S
Co98 O111 2.244 . S
O99 Co98 2.216 . S
O99 C106 1.247 . S
O100 Co98 2.091 . S
O100 C106 1.261 . S
C101 O110 1.247 . S
C101 O111 1.272 . S
O102 Co98 2.004 . S
O102 C107 1.259 . S
Co103 O104 2.061 . S
Co103 O109 2.052 . S
Co103 O111 2.135 . S
O104 Co103 2.061 . S
O104 C107 1.235 . S
C105 O108 1.238 . S
C105 O109 1.241 . S
C106 O99 1.247 . S
C106 O100 1.261 . S
C107 O102 1.259 . S
C107 O104 1.235 . S
O108 Co98 2.021 . S
O108 C105 1.238 . S
O109 Co103 2.052 . S
O109 C105 1.241 . S
O110 Co98 2.137 . S
O110 C101 1.247 . S
O111 Co98 2.244 . S
O111 C101 1.272 . S
O111 Co103 2.135 . S
H112 C130 0.951 . S
H113 C132 0.951 . S
H114 C134 0.950 . S
H115 C135 0.950 . S
H116 C137 0.950 . S
H117 C140 0.950 . S
H118 C141 0.950 . S
H119 C143 0.950 . S
H120 C144 0.950 . S
H121 C145 0.951 . S
H122 C147 0.951 . S
H123 C149 0.950 . S
H124 C150 0.950 . S
H125 C152 0.950 . S
H126 C155 0.950 . S
H127 C156 0.950 . S
H128 C158 0.950 . S
H129 C159 0.950 . S
C130 H112 0.951 . S
C130 C131 1.366 . S
C130 C132 1.388 . S
C131 C130 1.366 . S
C131 C135 1.385 . S
C132 H113 0.951 . S
C132 C130 1.388 . S
C132 C133 1.366 . S
C133 C132 1.366 . S
C133 C134 1.414 . S
C133 C136 1.499 . S
C134 H114 0.950 . S
C134 C133 1.414 . S
C134 C135 1.374 . S
C135 H115 0.950 . S
C135 C131 1.385 . S
C135 C134 1.374 . S
C136 C133 1.499 . S
C136 C137 1.373 . S
C136 C138 1.389 . S
C137 H116 0.950 . S
C137 C136 1.373 . S
C137 C153 1.377 . S
C138 C136 1.389 . S
C138 C139 1.524 . S
C138 C152 1.377 . S
C139 C138 1.524 . S
C139 C140 1.397 . S
C139 C144 1.363 . S
C140 H117 0.950 . S
C140 C139 1.397 . S
C140 C141 1.334 . S
C141 H118 0.950 . S
C141 C140 1.334 . S
C141 C142 1.287 . S
C142 C141 1.287 . S
C142 C143 1.524 . S
C142 H161 0.913 . S
C143 H119 0.950 . S
C143 C142 1.524 . S
C143 C144 1.415 . S
C144 H120 0.950 . S
C144 C139 1.363 . S
C144 C143 1.415 . S
C145 H121 0.951 . S
C145 C146 1.366 . S
C145 C147 1.388 . S
C146 C145 1.366 . S
C146 C150 1.385 . S
C147 H122 0.951 . S
C147 C145 1.388 . S
C147 C148 1.366 . S
C148 C147 1.366 . S
C148 C149 1.414 . S
C148 C151 1.499 . S
C149 H123 0.950 . S
C149 C148 1.414 . S
C149 C150 1.374 . S
C150 H124 0.950 . S
C150 C146 1.385 . S
C150 C149 1.374 . S
C151 C148 1.499 . S
C151 C152 1.373 . S
C151 C153 1.389 . S
C152 H125 0.950 . S
C152 C138 1.377 . S
C152 C151 1.373 . S
C153 C137 1.377 . S
C153 C151 1.389 . S
C153 C154 1.524 . S
C154 C153 1.524 . S
C154 C155 1.397 . S
C154 C159 1.363 . S
C155 H126 0.950 . S
C155 C154 1.397 . S
C155 C156 1.334 . S
C156 H127 0.950 . S
C156 C155 1.334 . S
C156 C157 1.287 . S
C157 C156 1.287 . S
C157 C158 1.524 . S
C157 H160 0.999 1_556 S
C158 H128 0.950 . S
C158 C157 1.524 . S
C158 C159 1.415 . S
C159 H129 0.950 . S
C159 C154 1.363 . S
C159 C158 1.415 . S
H160 C157 0.999 1_554 S
H161 C142 0.913 . S
H162 C180 0.951 . S
H163 C182 0.951 . S
H164 C184 0.950 . S
H165 C185 0.950 . S
H166 C187 0.950 . S
H167 C190 0.950 . S
H168 C191 0.950 . S
H169 C193 0.950 . S
H170 C194 0.950 . S
H171 C195 0.951 . S
H172 C197 0.951 . S
H173 C199 0.950 . S
H174 C200 0.950 . S
H175 C202 0.950 . S
H176 C205 0.950 . S
H177 C206 0.950 . S
H178 C208 0.950 . S
H179 C209 0.950 . S
C180 H162 0.951 . S
C180 C181 1.366 . S
C180 C182 1.388 . S
C181 C180 1.366 . S
C181 C185 1.385 . S
C182 H163 0.951 . S
C182 C180 1.388 . S
C182 C183 1.366 . S
C183 C182 1.366 . S
C183 C184 1.414 . S
C183 C186 1.499 . S
C184 H164 0.950 . S
C184 C183 1.414 . S
C184 C185 1.374 . S
C185 H165 0.950 . S
C185 C181 1.385 . S
C185 C184 1.374 . S
C186 C183 1.499 . S
C186 C187 1.373 . S
C186 C188 1.389 . S
C187 H166 0.950 . S
C187 C186 1.373 . S
C187 C203 1.377 . S
C188 C186 1.389 . S
C188 C189 1.524 . S
C188 C202 1.377 . S
C189 C188 1.524 . S
C189 C190 1.397 . S
C189 C194 1.363 . S
C190 H167 0.950 . S
C190 C189 1.397 . S
C190 C191 1.334 . S
C191 H168 0.950 . S
C191 C190 1.334 . S
C191 C192 1.287 . S
C192 C191 1.287 . S
C192 C193 1.524 . S
C192 H211 0.913 . S
C193 H169 0.950 . S
C193 C192 1.524 . S
C193 C194 1.415 . S
C194 H170 0.950 . S
C194 C189 1.363 . S
C194 C193 1.415 . S
C195 H171 0.951 . S
C195 C196 1.366 . S
C195 C197 1.388 . S
C196 C195 1.366 . S
C196 C200 1.385 . S
C197 H172 0.951 . S
C197 C195 1.388 . S
C197 C198 1.366 . S
C198 C197 1.366 . S
C198 C199 1.414 . S
C198 C201 1.499 . S
C199 H173 0.950 . S
C199 C198 1.414 . S
C199 C200 1.374 . S
C200 H174 0.950 . S
C200 C196 1.385 . S
C200 C199 1.374 . S
C201 C198 1.499 . S
C201 C202 1.373 . S
C201 C203 1.389 . S
C202 H175 0.950 . S
C202 C188 1.377 . S
C202 C201 1.373 . S
C203 C187 1.377 . S
C203 C201 1.389 . S
C203 C204 1.524 . S
C204 C203 1.524 . S
C204 C205 1.397 . S
C204 C209 1.363 . S
C205 H176 0.950 . S
C205 C204 1.397 . S
C205 C206 1.334 . S
C206 H177 0.950 . S
C206 C205 1.334 . S
C206 C207 1.287 . S
C207 C206 1.287 . S
C207 C208 1.524 . S
C207 H210 0.999 . S
C208 H178 0.950 . S
C208 C207 1.524 . S
C208 C209 1.415 . S
C209 H179 0.950 . S
C209 C204 1.363 . S
C209 C208 1.415 . S
H210 C207 0.999 . S
H211 C192 0.913 . S
H212 C230 0.951 . S
H213 C232 0.951 . S
H214 C234 0.950 . S
H215 C235 0.950 . S
H216 C237 0.950 . S
H217 C240 0.950 . S
H218 C241 0.950 . S
H219 C243 0.950 . S
H220 C244 0.950 . S
H221 C245 0.951 . S
H222 C247 0.951 . S
H223 C249 0.950 . S
H224 C250 0.960 . S
H225 C252 0.950 . S
H226 C255 0.950 . S
H227 C256 0.950 . S
H228 C258 0.950 . S
H229 C259 0.950 . S
C230 H212 0.951 . S
C230 C231 1.366 . S
C230 C232 1.388 . S
C231 C230 1.366 . S
C231 C235 1.385 . S
C232 H213 0.951 . S
C232 C230 1.388 . S
C232 C233 1.366 . S
C233 C232 1.366 . S
C233 C234 1.414 . S
C233 C236 1.499 . S
C234 H214 0.950 . S
C234 C233 1.414 . S
C234 C235 1.374 . S
C235 H215 0.950 . S
C235 C231 1.385 . S
C235 C234 1.374 . S
C236 C233 1.499 . S
C236 C237 1.373 . S
C236 C238 1.389 . S
C237 H216 0.950 . S
C237 C236 1.373 . S
C237 C253 1.377 . S
C238 C236 1.389 . S
C238 C239 1.524 . S
C238 C252 1.377 . S
C239 C238 1.524 . S
C239 C240 1.397 . S
C239 C244 1.363 . S
C240 H217 0.950 . S
C240 C239 1.397 . S
C240 C241 1.334 . S
C241 H218 0.950 . S
C241 C240 1.334 . S
C241 C242 1.287 . S
C242 C241 1.287 . S
C242 C243 1.524 . S
C242 H261 0.913 . S
C243 H219 0.950 . S
C243 C242 1.524 . S
C243 C244 1.415 . S
C244 H220 0.950 . S
C244 C239 1.363 . S
C244 C243 1.415 . S
C245 H221 0.951 . S
C245 C246 1.366 . S
C245 C247 1.388 . S
C246 C245 1.366 . S
C246 C250 1.385 . S
C247 H222 0.951 . S
C247 C245 1.388 . S
C247 C248 1.366 . S
C248 C247 1.366 . S
C248 C249 1.414 . S
C248 C251 1.499 . S
C249 H223 0.950 . S
C249 C248 1.414 . S
C249 C250 1.374 . S
C250 H224 0.960 . S
C250 C246 1.385 . S
C250 C249 1.374 . S
C251 C248 1.499 . S
C251 C252 1.373 . S
C251 C253 1.389 . S
C252 H225 0.950 . S
C252 C238 1.377 . S
C252 C251 1.373 . S
C253 C237 1.377 . S
C253 C251 1.389 . S
C253 C254 1.524 . S
C254 C253 1.524 . S
C254 C255 1.397 . S
C254 C259 1.363 . S
C255 H226 0.950 . S
C255 C254 1.397 . S
C255 C256 1.334 . S
C256 H227 0.950 . S
C256 C255 1.334 . S
C256 C257 1.287 . S
C257 C256 1.287 . S
C257 C258 1.524 . S
C257 H260 0.999 . S
C258 H228 0.950 . S
C258 C257 1.524 . S
C258 C259 1.415 . S
C259 H229 0.950 . S
C259 C254 1.363 . S
C259 C258 1.415 . S
H260 C257 0.999 . S
H261 C242 0.913 . S
H262 C280 0.951 . S
H263 C282 0.951 . S
H264 C284 0.950 . S
H265 C285 0.950 . S
H266 C287 0.950 . S
H267 C290 0.950 . S
H268 C291 0.950 . S
H269 C293 0.950 . S
H270 C294 0.950 . S
H271 C295 0.951 . S
H272 C297 0.951 . S
H273 C299 0.950 . S
H274 C300 0.950 . S
H275 C302 0.950 . S
H276 C305 0.950 . S
H277 C306 0.950 . S
H278 C308 0.950 . S
H279 C309 0.950 . S
C280 H262 0.951 . S
C280 C281 1.366 . S
C280 C282 1.388 . S
C281 C280 1.366 . S
C281 C285 1.385 . S
C282 H263 0.951 . S
C282 C280 1.388 . S
C282 C283 1.366 . S
C283 C282 1.366 . S
C283 C284 1.414 . S
C283 C286 1.499 . S
C284 H264 0.950 . S
C284 C283 1.414 . S
C284 C285 1.374 . S
C285 H265 0.950 . S
C285 C281 1.385 . S
C285 C284 1.374 . S
C286 C283 1.499 . S
C286 C287 1.373 . S
C286 C288 1.389 . S
C287 H266 0.950 . S
C287 C286 1.373 . S
C287 C303 1.377 . S
C288 C286 1.389 . S
C288 C289 1.524 . S
C288 C302 1.377 . S
C289 C288 1.524 . S
C289 C290 1.397 . S
C289 C294 1.363 . S
C290 H267 0.950 . S
C290 C289 1.397 . S
C290 C291 1.334 . S
C291 H268 0.950 . S
C291 C290 1.334 . S
C291 C292 1.287 . S
C292 C291 1.287 . S
C292 C293 1.524 . S
C292 H311 0.913 . S
C293 H269 0.950 . S
C293 C292 1.524 . S
C293 C294 1.415 . S
C294 H270 0.950 . S
C294 C289 1.363 . S
C294 C293 1.415 . S
C295 H271 0.951 . S
C295 C296 1.366 . S
C295 C297 1.388 . S
C296 C295 1.366 . S
C296 C300 1.385 . S
C297 H272 0.951 . S
C297 C295 1.388 . S
C297 C298 1.366 . S
C298 C297 1.366 . S
C298 C299 1.414 . S
C298 C301 1.499 . S
C299 H273 0.950 . S
C299 C298 1.414 . S
C299 C300 1.374 . S
C300 H274 0.950 . S
C300 C296 1.385 . S
C300 C299 1.374 . S
C301 C298 1.499 . S
C301 C302 1.373 . S
C301 C303 1.389 . S
C302 H275 0.950 . S
C302 C288 1.377 . S
C302 C301 1.373 . S
C303 C287 1.377 . S
C303 C301 1.389 . S
C303 C304 1.524 . S
C304 C303 1.524 . S
C304 C305 1.397 . S
C304 C309 1.363 . S
C305 H276 0.950 . S
C305 C304 1.397 . S
C305 C306 1.334 . S
C306 H277 0.950 . S
C306 C305 1.334 . S
C306 C307 1.287 . S
C307 C306 1.287 . S
C307 C308 1.524 . S
C307 H310 0.999 . S
C308 H278 0.950 . S
C308 C307 1.524 . S
C308 C309 1.415 . S
C309 H279 0.950 . S
C309 C304 1.363 . S
C309 C308 1.415 . S
H310 C307 0.999 . S
H311 C292 0.913 . S
H312 C330 0.951 . S
H313 C332 0.951 . S
H314 C334 0.950 . S
H315 C335 0.950 . S
H316 C337 0.950 . S
H317 C340 0.950 . S
H318 C341 0.950 . S
H319 C343 0.950 . S
H320 C344 0.950 . S
H321 C345 0.951 . S
H322 C347 0.951 . S
H323 C349 0.950 . S
H324 C350 0.950 . S
H325 C352 0.950 . S
H326 C355 0.950 . S
H327 C356 0.950 . S
H328 C358 0.950 . S
H329 C359 0.950 . S
C330 H312 0.951 . S
C330 C331 1.366 . S
C330 C332 1.388 . S
C331 C330 1.366 . S
C331 C335 1.385 . S
C332 H313 0.951 . S
C332 C330 1.388 . S
C332 C333 1.366 . S
C333 C332 1.366 . S
C333 C334 1.414 . S
C333 C336 1.499 . S
C334 H314 0.950 . S
C334 C333 1.414 . S
C334 C335 1.374 . S
C335 H315 0.950 . S
C335 C331 1.385 . S
C335 C334 1.374 . S
C336 C333 1.499 . S
C336 C337 1.373 . S
C336 C338 1.389 . S
C337 H316 0.950 . S
C337 C336 1.373 . S
C337 C353 1.377 . S
C338 C336 1.389 . S
C338 C339 1.524 . S
C338 C352 1.377 . S
C339 C338 1.524 . S
C339 C340 1.397 . S
C339 C344 1.363 . S
C340 H317 0.950 . S
C340 C339 1.397 . S
C340 C341 1.334 . S
C341 H318 0.950 . S
C341 C340 1.334 . S
C341 C342 1.287 . S
C342 C341 1.287 . S
C342 C343 1.524 . S
C342 H361 0.913 1_554 S
C343 H319 0.950 . S
C343 C342 1.524 . S
C343 C344 1.415 . S
C344 H320 0.950 . S
C344 C339 1.363 . S
C344 C343 1.415 . S
C345 H321 0.951 . S
C345 C346 1.366 . S
C345 C347 1.388 . S
C346 C345 1.366 . S
C346 C350 1.385 . S
C347 H322 0.951 . S
C347 C345 1.388 . S
C347 C348 1.366 . S
C348 C347 1.366 . S
C348 C349 1.414 . S
C348 C351 1.499 . S
C349 H323 0.950 . S
C349 C348 1.414 . S
C349 C350 1.374 . S
C350 H324 0.950 . S
C350 C346 1.385 . S
C350 C349 1.374 . S
C351 C348 1.499 . S
C351 C352 1.373 . S
C351 C353 1.389 . S
C352 H325 0.950 . S
C352 C338 1.377 . S
C352 C351 1.373 . S
C353 C337 1.377 . S
C353 C351 1.389 . S
C353 C354 1.524 . S
C354 C353 1.524 . S
C354 C355 1.397 . S
C354 C359 1.363 . S
C355 H326 0.950 . S
C355 C354 1.397 . S
C355 C356 1.334 . S
C356 H327 0.950 . S
C356 C355 1.334 . S
C356 C357 1.287 . S
C357 C356 1.287 . S
C357 C358 1.524 . S
C357 H360 0.999 . S
C358 H328 0.950 . S
C358 C357 1.524 . S
C358 C359 1.415 . S
C359 H329 0.950 . S
C359 C354 1.363 . S
C359 C358 1.415 . S
H360 C357 0.999 . S
H361 C342 0.913 1_556 S
H362 C380 0.951 . S
H363 C382 0.951 . S
H364 C384 0.950 . S
H365 C385 0.950 . S
H366 C387 0.950 . S
H367 C390 0.950 . S
H368 C391 0.950 . S
H369 C393 0.950 . S
H370 C394 0.950 . S
H371 C395 0.951 . S
H372 C397 0.951 . S
H373 C399 0.950 . S
H374 C400 0.950 . S
H375 C402 0.950 . S
H376 C405 0.950 . S
H377 C406 0.950 . S
H378 C408 0.950 . S
H379 C409 0.950 . S
C380 H362 0.951 . S
C380 C381 1.366 . S
C380 C382 1.388 . S
C381 C380 1.366 . S
C381 C385 1.385 . S
C382 H363 0.951 . S
C382 C380 1.388 . S
C382 C383 1.366 . S
C383 C382 1.366 . S
C383 C384 1.414 . S
C383 C386 1.499 . S
C384 H364 0.950 . S
C384 C383 1.414 . S
C384 C385 1.374 . S
C385 H365 0.950 . S
C385 C381 1.385 . S
C385 C384 1.374 . S
C386 C383 1.499 . S
C386 C387 1.373 . S
C386 C388 1.389 . S
C387 H366 0.950 . S
C387 C386 1.373 . S
C387 C403 1.377 . S
C388 C386 1.389 . S
C388 C389 1.524 . S
C388 C402 1.377 . S
C389 C388 1.524 . S
C389 C390 1.397 . S
C389 C394 1.363 . S
C390 H367 0.950 . S
C390 C389 1.397 . S
C390 C391 1.334 . S
C391 H368 0.950 . S
C391 C390 1.334 . S
C391 C392 1.287 . S
C392 C391 1.287 . S
C392 C393 1.524 . S
C392 H411 0.913 . S
C393 H369 0.950 . S
C393 C392 1.524 . S
C393 C394 1.415 . S
C394 H370 0.950 . S
C394 C389 1.363 . S
C394 C393 1.415 . S
C395 H371 0.951 . S
C395 C396 1.366 . S
C395 C397 1.388 . S
C396 C395 1.366 . S
C396 C400 1.385 . S
C397 H372 0.951 . S
C397 C395 1.388 . S
C397 C398 1.366 . S
C398 C397 1.366 . S
C398 C399 1.414 . S
C398 C401 1.499 . S
C399 H373 0.950 . S
C399 C398 1.414 . S
C399 C400 1.374 . S
C400 H374 0.950 . S
C400 C396 1.385 . S
C400 C399 1.374 . S
C401 C398 1.499 . S
C401 C402 1.373 . S
C401 C403 1.389 . S
C402 H375 0.950 . S
C402 C388 1.377 . S
C402 C401 1.373 . S
C403 C387 1.377 . S
C403 C401 1.389 . S
C403 C404 1.524 . S
C404 C403 1.524 . S
C404 C405 1.397 . S
C404 C409 1.363 . S
C405 H376 0.950 . S
C405 C404 1.397 . S
C405 C406 1.334 . S
C406 H377 0.950 . S
C406 C405 1.334 . S
C406 C407 1.287 . S
C407 C406 1.287 . S
C407 C408 1.524 . S
C407 H410 0.999 . S
C408 H378 0.950 . S
C408 C407 1.524 . S
C408 C409 1.415 . S
C409 H379 0.950 . S
C409 C404 1.363 . S
C409 C408 1.415 . S
H410 C407 0.999 . S
H411 C392 0.913 . S
H412 C430 0.951 . S
H413 C432 0.951 . S
H414 C434 0.950 . S
H415 C435 0.950 . S
H416 C437 0.950 . S
H417 C440 0.950 . S
H418 C441 0.950 . S
H419 C443 0.950 . S
H420 C444 0.950 . S
H421 C445 0.951 . S
H422 C447 0.951 . S
H423 C449 0.950 . S
H424 C450 0.950 . S
H425 C452 0.950 . S
H426 C455 0.950 . S
H427 C456 0.950 . S
H428 C458 0.950 . S
H429 C459 0.950 . S
C430 H412 0.951 . S
C430 C431 1.366 . S
C430 C432 1.388 . S
C431 C430 1.366 . S
C431 C435 1.385 . S
C432 H413 0.951 . S
C432 C430 1.388 . S
C432 C433 1.366 . S
C433 C432 1.366 . S
C433 C434 1.414 . S
C433 C436 1.499 . S
C434 H414 0.950 . S
C434 C433 1.414 . S
C434 C435 1.374 . S
C435 H415 0.950 . S
C435 C431 1.385 . S
C435 C434 1.374 . S
C436 C433 1.499 . S
C436 C437 1.373 . S
C436 C438 1.389 . S
C437 H416 0.950 . S
C437 C436 1.373 . S
C437 C453 1.377 . S
C438 C436 1.389 . S
C438 C439 1.524 . S
C438 C452 1.377 . S
C439 C438 1.524 . S
C439 C440 1.397 . S
C439 C444 1.363 . S
C440 H417 0.950 . S
C440 C439 1.397 . S
C440 C441 1.334 . S
C441 H418 0.950 . S
C441 C440 1.334 . S
C441 C442 1.287 . S
C442 C441 1.287 . S
C442 C443 1.524 . S
C442 H461 0.913 . S
C443 H419 0.950 . S
C443 C442 1.524 . S
C443 C444 1.415 . S
C444 H420 0.950 . S
C444 C439 1.363 . S
C444 C443 1.415 . S
C445 H421 0.951 . S
C445 C446 1.366 . S
C445 C447 1.388 . S
C446 C445 1.366 . S
C446 C450 1.385 . S
C447 H422 0.951 . S
C447 C445 1.388 . S
C447 C448 1.366 . S
C448 C447 1.366 . S
C448 C449 1.414 . S
C448 C451 1.499 . S
C449 H423 0.950 . S
C449 C448 1.414 . S
C449 C450 1.374 . S
C450 H424 0.950 . S
C450 C446 1.385 . S
C450 C449 1.374 . S
C451 C448 1.499 . S
C451 C452 1.373 . S
C451 C453 1.389 . S
C452 H425 0.950 . S
C452 C438 1.377 . S
C452 C451 1.373 . S
C453 C437 1.377 . S
C453 C451 1.389 . S
C453 C454 1.524 . S
C454 C453 1.524 . S
C454 C455 1.397 . S
C454 C459 1.363 . S
C455 H426 0.950 . S
C455 C454 1.397 . S
C455 C456 1.334 . S
C456 H427 0.950 . S
C456 C455 1.334 . S
C456 C457 1.287 . S
C457 C456 1.287 . S
C457 C458 1.524 . S
C457 H460 0.999 . S
C458 H428 0.950 . S
C458 C457 1.524 . S
C458 C459 1.415 . S
C459 H429 0.950 . S
C459 C454 1.363 . S
C459 C458 1.415 . S
H460 C457 0.999 . S
H461 C442 0.913 . S
H462 C480 0.951 . S
H463 C482 0.951 . S
H464 C484 0.950 . S
H465 C485 0.950 . S
H466 C487 0.950 . S
H467 C490 0.950 . S
H468 C491 0.950 . S
H469 C493 0.950 . S
H470 C494 0.950 . S
H471 C495 0.951 . S
H472 C497 0.951 . S
H473 C499 0.950 . S
H474 C500 0.950 . S
H475 C502 0.950 . S
H476 C505 0.950 . S
H477 C506 0.950 . S
H478 C508 0.950 . S
H479 C509 0.950 . S
C480 H462 0.951 . S
C480 C481 1.366 . S
C480 C482 1.388 . S
C481 C480 1.366 . S
C481 C485 1.385 . S
C482 H463 0.951 . S
C482 C480 1.388 . S
C482 C483 1.366 . S
C483 C482 1.366 . S
C483 C484 1.414 . S
C483 C486 1.499 . S
C484 H464 0.950 . S
C484 C483 1.414 . S
C484 C485 1.374 . S
C485 H465 0.950 . S
C485 C481 1.385 . S
C485 C484 1.374 . S
C486 C483 1.499 . S
C486 C487 1.373 . S
C486 C488 1.389 . S
C487 H466 0.950 . S
C487 C486 1.373 . S
C487 C503 1.377 . S
C488 C486 1.389 . S
C488 C489 1.524 . S
C488 C502 1.377 . S
C489 C488 1.524 . S
C489 C490 1.397 . S
C489 C494 1.363 . S
C490 H467 0.950 . S
C490 C489 1.397 . S
C490 C491 1.334 . S
C491 H468 0.950 . S
C491 C490 1.334 . S
C491 C492 1.287 . S
C492 C491 1.287 . S
C492 C493 1.524 . S
C492 H511 0.913 . S
C493 H469 0.950 . S
C493 C492 1.524 . S
C493 C494 1.415 . S
C494 H470 0.950 . S
C494 C489 1.363 . S
C494 C493 1.415 . S
C495 H471 0.951 . S
C495 C496 1.366 . S
C495 C497 1.388 . S
C496 C495 1.366 . S
C496 C500 1.385 . S
C497 H472 0.951 . S
C497 C495 1.388 . S
C497 C498 1.366 . S
C498 C497 1.366 . S
C498 C499 1.414 . S
C498 C501 1.499 . S
C499 H473 0.950 . S
C499 C498 1.414 . S
C499 C500 1.374 . S
C500 H474 0.950 . S
C500 C496 1.385 . S
C500 C499 1.374 . S
C501 C498 1.499 . S
C501 C502 1.373 . S
C501 C503 1.389 . S
C502 H475 0.950 . S
C502 C488 1.377 . S
C502 C501 1.373 . S
C503 C487 1.377 . S
C503 C501 1.389 . S
C503 C504 1.524 . S
C504 C503 1.524 . S
C504 C505 1.397 . S
C504 C509 1.363 . S
C505 H476 0.950 . S
C505 C504 1.397 . S
C505 C506 1.334 . S
C506 H477 0.950 . S
C506 C505 1.334 . S
C506 C507 1.287 . S
C507 C506 1.287 . S
C507 C508 1.524 . S
C507 H510 0.999 . S
C508 H478 0.950 . S
C508 C507 1.524 . S
C508 C509 1.415 . S
C509 H479 0.950 . S
C509 C504 1.363 . S
C509 C508 1.415 . S
H510 C507 0.999 . S
H511 C492 0.913 . S
H512 C530 0.951 . S
H513 C532 0.951 . S
H514 C534 0.950 . S
H515 C535 0.950 . S
H516 C537 0.950 . S
H517 C540 0.961 . S
H518 C541 0.950 . S
H519 C543 0.950 . S
H520 C544 0.950 . S
H521 C545 0.951 . S
H522 C547 0.951 . S
H523 C549 0.950 . S
H524 C550 0.950 . S
H525 C552 0.950 . S
H526 C555 0.961 . S
H527 C556 0.950 . S
H528 C558 0.950 . S
H529 C559 0.950 . S
C530 H512 0.951 . S
C530 C531 1.366 . S
C530 C532 1.388 . S
C531 C530 1.366 . S
C531 C535 1.385 . S
C532 H513 0.951 . S
C532 C530 1.388 . S
C532 C533 1.366 . S
C533 C532 1.366 . S
C533 C534 1.414 . S
C533 C536 1.499 . S
C534 H514 0.950 . S
C534 C533 1.414 . S
C534 C535 1.374 . S
C535 H515 0.950 . S
C535 C531 1.385 . S
C535 C534 1.374 . S
C536 C533 1.499 . S
C536 C537 1.373 . S
C536 C538 1.389 1_455 S
C537 H516 0.950 . S
C537 C536 1.373 . S
C537 C553 1.377 . S
C538 C536 1.389 1_655 S
C538 C539 1.524 . S
C538 C552 1.377 . S
C539 C538 1.524 . S
C539 C540 1.397 . S
C539 C544 1.363 . S
C540 H517 0.961 . S
C540 C539 1.397 . S
C540 C541 1.334 . S
C541 H518 0.950 . S
C541 C540 1.334 . S
C541 C542 1.287 . S
C542 C541 1.287 . S
C542 C543 1.524 . S
C542 H561 0.913 . S
C543 H519 0.950 . S
C543 C542 1.524 . S
C543 C544 1.415 . S
C544 H520 0.950 . S
C544 C539 1.363 . S
C544 C543 1.415 . S
C545 H521 0.951 . S
C545 C546 1.366 . S
C545 C547 1.388 . S
C546 C545 1.366 . S
C546 C550 1.385 . S
C547 H522 0.951 . S
C547 C545 1.388 . S
C547 C548 1.366 . S
C548 C547 1.366 . S
C548 C549 1.414 . S
C548 C551 1.499 . S
C549 H523 0.950 . S
C549 C548 1.414 . S
C549 C550 1.374 . S
C550 H524 0.950 . S
C550 C546 1.385 . S
C550 C549 1.374 . S
C551 C548 1.499 . S
C551 C552 1.373 . S
C551 C553 1.389 1_655 S
C552 H525 0.950 . S
C552 C538 1.377 . S
C552 C551 1.373 . S
C553 C537 1.377 . S
C553 C551 1.389 1_455 S
C553 C554 1.524 . S
C554 C553 1.524 . S
C554 C555 1.397 . S
C554 C559 1.363 . S
C555 H526 0.961 . S
C555 C554 1.397 . S
C555 C556 1.334 . S
C556 H527 0.950 . S
C556 C555 1.334 . S
C556 C557 1.287 . S
C557 C556 1.287 . S
C557 C558 1.524 . S
C557 H560 0.999 . S
C558 H528 0.950 . S
C558 C557 1.524 . S
C558 C559 1.415 . S
C559 H529 0.950 . S
C559 C554 1.363 . S
C559 C558 1.415 . S
H560 C557 0.999 . S
H561 C542 0.913 . S
H562 C580 0.951 . S
H563 C582 0.951 . S
H564 C584 0.950 . S
H565 C585 0.950 . S
H566 C587 0.950 . S
H567 C590 0.950 . S
H568 C591 0.950 . S
H569 C593 0.950 . S
H570 C594 0.950 . S
H571 C595 0.951 . S
H572 C597 0.951 . S
H573 C599 0.950 . S
H574 C600 0.950 . S
H575 C602 0.950 . S
H576 C605 0.950 . S
H577 C606 0.950 . S
H578 C608 0.950 . S
H579 C609 0.950 . S
C580 H562 0.951 . S
C580 C581 1.366 . S
C580 C582 1.388 . S
C581 C580 1.366 . S
C581 C585 1.385 . S
C582 H563 0.951 . S
C582 C580 1.388 . S
C582 C583 1.366 . S
C583 C582 1.366 . S
C583 C584 1.414 . S
C583 C586 1.499 . S
C584 H564 0.950 . S
C584 C583 1.414 . S
C584 C585 1.374 . S
C585 H565 0.950 . S
C585 C581 1.385 . S
C585 C584 1.374 . S
C586 C583 1.499 . S
C586 C587 1.373 . S
C586 C588 1.389 . S
C587 H566 0.950 . S
C587 C586 1.373 . S
C587 C603 1.377 . S
C588 C586 1.389 . S
C588 C589 1.524 . S
C588 C602 1.377 . S
C589 C588 1.524 . S
C589 C590 1.397 . S
C589 C594 1.363 . S
C590 H567 0.950 . S
C590 C589 1.397 . S
C590 C591 1.334 . S
C591 H568 0.950 . S
C591 C590 1.334 . S
C591 C592 1.287 . S
C592 C591 1.287 . S
C592 C593 1.524 . S
C592 H611 0.913 . S
C593 H569 0.950 . S
C593 C592 1.524 . S
C593 C594 1.415 . S
C594 H570 0.950 . S
C594 C589 1.363 . S
C594 C593 1.415 . S
C595 H571 0.951 . S
C595 C596 1.366 . S
C595 C597 1.388 . S
C596 C595 1.366 . S
C596 C600 1.385 . S
C597 H572 0.951 . S
C597 C595 1.388 . S
C597 C598 1.366 . S
C598 C597 1.366 . S
C598 C599 1.414 . S
C598 C601 1.499 . S
C599 H573 0.950 . S
C599 C598 1.414 . S
C599 C600 1.374 . S
C600 H574 0.950 . S
C600 C596 1.385 . S
C600 C599 1.374 . S
C601 C598 1.499 . S
C601 C602 1.373 . S
C601 C603 1.389 . S
C602 H575 0.950 . S
C602 C588 1.377 . S
C602 C601 1.373 . S
C603 C587 1.377 . S
C603 C601 1.389 . S
C603 C604 1.524 . S
C604 C603 1.524 . S
C604 C605 1.397 . S
C604 C609 1.363 . S
C605 H576 0.950 . S
C605 C604 1.397 . S
C605 C606 1.334 . S
C606 H577 0.950 . S
C606 C605 1.334 . S
C606 C607 1.287 . S
C607 C606 1.287 . S
C607 C608 1.524 . S
C607 H610 0.999 . S
C608 H578 0.950 . S
C608 C607 1.524 . S
C608 C609 1.415 . S
C609 H579 0.950 . S
C609 C604 1.363 . S
C609 C608 1.415 . S
H610 C607 0.999 . S
H611 C592 0.913 . S
H612 C630 0.951 . S
H613 C632 0.951 . S
H614 C634 0.950 . S
H615 C635 0.950 . S
H616 C637 0.950 . S
H617 C640 0.950 . S
H618 C641 0.950 . S
H619 C643 0.950 . S
H620 C644 0.950 . S
H621 C645 0.951 . S
H622 C647 0.951 . S
H623 C649 0.950 . S
H624 C650 0.950 . S
H625 C652 0.950 . S
H626 C655 0.950 . S
H627 C656 0.950 . S
H628 C658 0.950 . S
H629 C659 0.950 . S
C630 H612 0.951 . S
C630 C631 1.366 . S
C630 C632 1.388 . S
C631 C630 1.366 . S
C631 C635 1.385 . S
C632 H613 0.951 . S
C632 C630 1.388 . S
C632 C633 1.366 . S
C633 C632 1.366 . S
C633 C634 1.414 . S
C633 C636 1.499 . S
C634 H614 0.950 . S
C634 C633 1.414 . S
C634 C635 1.374 . S
C635 H615 0.950 . S
C635 C631 1.385 . S
C635 C634 1.374 . S
C636 C633 1.499 . S
C636 C637 1.373 . S
C636 C638 1.389 . S
C637 H616 0.950 . S
C637 C636 1.373 . S
C637 C653 1.377 1_455 S
C638 C636 1.389 . S
C638 C639 1.524 . S
C638 C652 1.377 1_455 S
C639 C638 1.524 . S
C639 C640 1.397 . S
C639 C644 1.363 1_455 S
C640 H617 0.950 . S
C640 C639 1.397 . S
C640 C641 1.334 . S
C641 H618 0.950 . S
C641 C640 1.334 . S
C641 C642 1.287 . S
C642 C641 1.287 . S
C642 C643 1.524 1_455 S
C642 H661 0.913 . S
C643 H619 0.950 . S
C643 C642 1.524 1_655 S
C643 C644 1.415 . S
C644 H620 0.950 . S
C644 C639 1.363 1_655 S
C644 C643 1.415 . S
C645 H621 0.951 . S
C645 C646 1.366 . S
C645 C647 1.388 . S
C646 C645 1.366 . S
C646 C650 1.385 . S
C647 H622 0.951 . S
C647 C645 1.388 . S
C647 C648 1.366 . S
C648 C647 1.366 . S
C648 C649 1.414 . S
C648 C651 1.499 . S
C649 H623 0.950 . S
C649 C648 1.414 . S
C649 C650 1.374 . S
C650 H624 0.950 . S
C650 C646 1.385 . S
C650 C649 1.374 . S
C651 C648 1.499 . S
C651 C652 1.373 . S
C651 C653 1.389 . S
C652 H625 0.950 . S
C652 C638 1.377 1_655 S
C652 C651 1.373 . S
C653 C637 1.377 1_655 S
C653 C651 1.389 . S
C653 C654 1.524 . S
C654 C653 1.524 . S
C654 C655 1.397 . S
C654 C659 1.363 1_655 S
C655 H626 0.950 . S
C655 C654 1.397 . S
C655 C656 1.334 . S
C656 H627 0.950 . S
C656 C655 1.334 . S
C656 C657 1.287 . S
C657 C656 1.287 . S
C657 C658 1.524 1_655 S
C657 H660 0.999 . S
C658 H628 0.950 . S
C658 C657 1.524 1_455 S
C658 C659 1.415 . S
C659 H629 0.950 . S
C659 C654 1.363 1_455 S
C659 C658 1.415 . S
H660 C657 0.999 . S
H661 C642 0.913 . S
H662 C680 0.951 . S
H663 C682 0.951 . S
H664 C684 0.950 . S
H665 C685 0.950 . S
H666 C687 0.950 . S
H667 C690 0.950 . S
H668 C691 0.950 . S
H669 C693 0.950 . S
H670 C694 0.950 . S
H671 C695 0.951 . S
H672 C697 0.951 . S
H673 C699 0.950 . S
H674 C700 0.950 . S
H675 C702 0.950 . S
H676 C705 0.950 . S
H677 C706 0.950 . S
H678 C708 0.950 . S
H679 C709 0.950 . S
C680 H662 0.951 . S
C680 C681 1.366 . S
C680 C682 1.388 . S
C681 C680 1.366 . S
C681 C685 1.385 . S
C682 H663 0.951 . S
C682 C680 1.388 . S
C682 C683 1.366 . S
C683 C682 1.366 . S
C683 C684 1.414 . S
C683 C686 1.499 . S
C684 H664 0.950 . S
C684 C683 1.414 . S
C684 C685 1.374 . S
C685 H665 0.950 . S
C685 C681 1.385 . S
C685 C684 1.374 . S
C686 C683 1.499 . S
C686 C687 1.373 . S
C686 C688 1.389 . S
C687 H666 0.950 . S
C687 C686 1.373 . S
C687 C703 1.377 . S
C688 C686 1.389 . S
C688 C689 1.524 . S
C688 C702 1.377 . S
C689 C688 1.524 . S
C689 C690 1.397 . S
C689 C694 1.363 . S
C690 H667 0.950 . S
C690 C689 1.397 . S
C690 C691 1.334 . S
C691 H668 0.950 . S
C691 C690 1.334 . S
C691 C692 1.287 . S
C692 C691 1.287 . S
C692 C693 1.524 . S
C692 H711 0.913 . S
C693 H669 0.950 . S
C693 C692 1.524 . S
C693 C694 1.415 . S
C694 H670 0.950 . S
C694 C689 1.363 . S
C694 C693 1.415 . S
C695 H671 0.951 . S
C695 C696 1.366 . S
C695 C697 1.388 . S
C696 C695 1.366 . S
C696 C700 1.385 . S
C697 H672 0.951 . S
C697 C695 1.388 . S
C697 C698 1.366 . S
C698 C697 1.366 . S
C698 C699 1.414 . S
C698 C701 1.499 . S
C699 H673 0.950 . S
C699 C698 1.414 . S
C699 C700 1.374 . S
C700 H674 0.950 . S
C700 C696 1.385 . S
C700 C699 1.374 . S
C701 C698 1.499 . S
C701 C702 1.373 . S
C701 C703 1.389 . S
C702 H675 0.950 . S
C702 C688 1.377 . S
C702 C701 1.373 . S
C703 C687 1.377 . S
C703 C701 1.389 . S
C703 C704 1.524 . S
C704 C703 1.524 . S
C704 C705 1.397 . S
C704 C709 1.363 . S
C705 H676 0.950 . S
C705 C704 1.397 . S
C705 C706 1.334 . S
C706 H677 0.950 . S
C706 C705 1.334 . S
C706 C707 1.287 . S
C707 C706 1.287 . S
C707 C708 1.524 . S
C707 H710 0.999 . S
C708 H678 0.950 . S
C708 C707 1.524 . S
C708 C709 1.415 . S
C709 H679 0.950 . S
C709 C704 1.363 . S
C709 C708 1.415 . S
H710 C707 0.999 . S
H711 C692 0.913 . S
H712 C730 0.951 . S
H713 C732 0.951 . S
H714 C734 0.950 . S
H715 C735 0.950 . S
H716 C737 0.950 . S
H717 C740 0.950 . S
H718 C741 0.950 . S
H719 C743 0.950 . S
H720 C744 0.950 . S
H721 C745 0.951 . S
H722 C747 0.951 . S
H723 C749 0.950 . S
H724 C750 0.950 . S
H725 C752 0.950 . S
H726 C755 0.950 . S
H727 C756 0.950 . S
H728 C758 0.950 . S
H729 C759 0.950 . S
C730 H712 0.951 . S
C730 C731 1.366 . S
C730 C732 1.388 . S
C731 C730 1.366 . S
C731 C735 1.385 . S
C732 H713 0.951 . S
C732 C730 1.388 . S
C732 C733 1.366 . S
C733 C732 1.366 . S
C733 C734 1.414 . S
C733 C736 1.499 . S
C734 H714 0.950 . S
C734 C733 1.414 . S
C734 C735 1.374 . S
C735 H715 0.950 . S
C735 C731 1.385 . S
C735 C734 1.374 . S
C736 C733 1.499 . S
C736 C737 1.373 1_455 S
C736 C738 1.389 1_544 S
C737 H716 0.950 . S
C737 C736 1.373 1_655 S
C737 C753 1.377 . S
C738 C736 1.389 1_566 S
C738 C739 1.524 . S
C738 C752 1.377 . S
C739 C738 1.524 . S
C739 C740 1.397 1_565 S
C739 C744 1.363 . S
C740 H717 0.950 . S
C740 C739 1.397 1_545 S
C740 C741 1.334 . S
C741 H718 0.950 . S
C741 C740 1.334 . S
C741 C742 1.287 1_545 S
C742 C741 1.287 1_565 S
C742 C743 1.524 . S
C742 H761 0.913 . S
C743 H719 0.950 . S
C743 C742 1.524 . S
C743 C744 1.415 . S
C744 H720 0.950 . S
C744 C739 1.363 . S
C744 C743 1.415 . S
C745 H721 0.951 . S
C745 C746 1.366 . S
C745 C747 1.388 . S
C746 C745 1.366 . S
C746 C750 1.385 . S
C747 H722 0.951 . S
C747 C745 1.388 . S
C747 C748 1.366 . S
C748 C747 1.366 . S
C748 C749 1.414 . S
C748 C751 1.499 . S
C749 H723 0.950 . S
C749 C748 1.414 . S
C749 C750 1.374 . S
C750 H724 0.950 . S
C750 C746 1.385 . S
C750 C749 1.374 . S
C751 C748 1.499 . S
C751 C752 1.373 1_655 S
C751 C753 1.389 1_566 S
C752 H725 0.950 . S
C752 C738 1.377 . S
C752 C751 1.373 1_455 S
C753 C737 1.377 . S
C753 C751 1.389 1_544 S
C753 C754 1.524 . S
C754 C753 1.524 . S
C754 C755 1.397 1_545 S
C754 C759 1.363 . S
C755 H726 0.950 . S
C755 C754 1.397 1_565 S
C755 C756 1.334 . S
C756 H727 0.950 . S
C756 C755 1.334 . S
C756 C757 1.287 1_565 S
C757 C756 1.287 1_545 S
C757 C758 1.524 . S
C757 H760 0.999 . S
C758 H728 0.950 . S
C758 C757 1.524 . S
C758 C759 1.415 . S
C759 H729 0.950 . S
C759 C754 1.363 . S
C759 C758 1.415 . S
H760 C757 0.999 . S
H761 C742 0.913 . S
H762 C780 0.951 . S
H763 C782 0.951 . S
H764 C784 0.950 . S
H765 C785 0.950 . S
H766 C787 0.950 . S
H767 C790 0.950 . S
H768 C791 0.950 . S
H769 C793 0.950 . S
H770 C794 0.950 . S
H771 C795 0.951 . S
H772 C797 0.951 . S
H773 C799 0.950 . S
H774 C800 0.950 . S
H775 C802 0.950 . S
H776 C805 0.950 . S
H777 C806 0.950 . S
H778 C808 0.950 . S
H779 C809 0.950 . S
C780 H762 0.951 . S
C780 C781 1.366 . S
C780 C782 1.388 . S
C781 C780 1.366 . S
C781 C785 1.385 . S
C782 H763 0.951 . S
C782 C780 1.388 . S
C782 C783 1.366 . S
C783 C782 1.366 . S
C783 C784 1.414 . S
C783 C786 1.499 . S
C784 H764 0.950 . S
C784 C783 1.414 . S
C784 C785 1.374 . S
C785 H765 0.950 . S
C785 C781 1.385 . S
C785 C784 1.374 . S
C786 C783 1.499 . S
C786 C787 1.373 . S
C786 C788 1.389 . S
C787 H766 0.950 . S
C787 C786 1.373 . S
C787 C803 1.377 . S
C788 C786 1.389 . S
C788 C789 1.524 . S
C788 C802 1.377 . S
C789 C788 1.524 . S
C789 C790 1.397 . S
C789 C794 1.363 . S
C790 H767 0.950 . S
C790 C789 1.397 . S
C790 C791 1.334 . S
C791 H768 0.950 . S
C791 C790 1.334 . S
C791 C792 1.287 . S
C792 C791 1.287 . S
C792 C793 1.524 . S
C792 H811 0.913 . S
C793 H769 0.950 . S
C793 C792 1.524 . S
C793 C794 1.415 . S
C794 H770 0.950 . S
C794 C789 1.363 . S
C794 C793 1.415 . S
C795 H771 0.951 . S
C795 C796 1.366 . S
C795 C797 1.388 . S
C796 C795 1.366 . S
C796 C800 1.385 . S
C797 H772 0.951 . S
C797 C795 1.388 . S
C797 C798 1.366 . S
C798 C797 1.366 . S
C798 C799 1.414 . S
C798 C801 1.499 . S
C799 H773 0.950 . S
C799 C798 1.414 . S
C799 C800 1.374 . S
C800 H774 0.950 . S
C800 C796 1.385 . S
C800 C799 1.374 . S
C801 C798 1.499 . S
C801 C802 1.373 . S
C801 C803 1.389 . S
C802 H775 0.950 . S
C802 C788 1.377 . S
C802 C801 1.373 . S
C803 C787 1.377 . S
C803 C801 1.389 . S
C803 C804 1.524 . S
C804 C803 1.524 . S
C804 C805 1.397 . S
C804 C809 1.363 . S
C805 H776 0.950 . S
C805 C804 1.397 . S
C805 C806 1.334 . S
C806 H777 0.950 . S
C806 C805 1.334 . S
C806 C807 1.287 . S
C807 C806 1.287 . S
C807 C808 1.524 . S
C807 H810 0.999 . S
C808 H778 0.950 . S
C808 C807 1.524 . S
C808 C809 1.415 . S
C809 H779 0.950 . S
C809 C804 1.363 . S
C809 C808 1.415 . S
H810 C807 0.999 . S
H811 C792 0.913 . S
H812 C830 0.951 1_556 S
H813 C832 0.951 . S
H814 C834 0.950 . S
H815 C835 0.950 . S
H816 C837 0.950 . S
H817 C840 0.950 . S
H818 C841 0.950 . S
H819 C843 0.950 1_556 S
H820 C844 0.950 . S
H821 C845 0.951 1_554 S
H822 C847 0.951 . S
H823 C849 0.950 . S
H824 C850 0.950 . S
H825 C852 0.950 . S
H826 C855 0.950 . S
H827 C856 0.950 . S
H828 C858 0.950 1_554 S
H829 C859 0.950 . S
C830 H812 0.951 1_554 S
C830 C831 1.366 . S
C830 C832 1.388 1_554 S
C831 C830 1.366 . S
C831 C835 1.385 . S
C832 H813 0.951 . S
C832 C830 1.388 1_556 S
C832 C833 1.366 1_556 S
C833 C832 1.366 1_554 S
C833 C834 1.414 . S
C833 C836 1.499 . S
C834 H814 0.950 . S
C834 C833 1.414 . S
C834 C835 1.374 . S
C835 H815 0.950 . S
C835 C831 1.385 . S
C835 C834 1.374 . S
C836 C833 1.499 . S
C836 C837 1.373 . S
C836 C838 1.389 . S
C837 H816 0.950 . S
C837 C836 1.373 . S
C837 C853 1.377 1_554 S
C838 C836 1.389 . S
C838 C839 1.524 . S
C838 C852 1.377 1_554 S
C839 C838 1.524 . S
C839 C840 1.397 . S
C839 C844 1.363 1_554 S
C840 H817 0.950 . S
C840 C839 1.397 . S
C840 C841 1.334 . S
C841 H818 0.950 . S
C841 C840 1.334 . S
C841 C842 1.287 . S
C842 C841 1.287 . S
C842 C843 1.524 . S
C842 H861 0.913 . S
C843 H819 0.950 1_554 S
C843 C842 1.524 . S
C843 C844 1.415 1_554 S
C844 H820 0.950 . S
C844 C839 1.363 1_556 S
C844 C843 1.415 1_556 S
C845 H821 0.951 1_556 S
C845 C846 1.366 . S
C845 C847 1.388 1_556 S
C846 C845 1.366 . S
C846 C850 1.385 . S
C847 H822 0.951 . S
C847 C845 1.388 1_554 S
C847 C848 1.366 1_554 S
C848 C847 1.366 1_556 S
C848 C849 1.414 . S
C848 C851 1.499 . S
C849 H823 0.950 . S
C849 C848 1.414 . S
C849 C850 1.374 . S
C850 H824 0.950 . S
C850 C846 1.385 . S
C850 C849 1.374 . S
C851 C848 1.499 . S
C851 C852 1.373 . S
C851 C853 1.389 . S
C852 H825 0.950 . S
C852 C838 1.377 1_556 S
C852 C851 1.373 . S
C853 C837 1.377 1_556 S
C853 C851 1.389 . S
C853 C854 1.524 . S
C854 C853 1.524 . S
C854 C855 1.397 . S
C854 C859 1.363 1_556 S
C855 H826 0.950 . S
C855 C854 1.397 . S
C855 C856 1.334 . S
C856 H827 0.950 . S
C856 C855 1.334 . S
C856 C857 1.287 . S
C857 C856 1.287 . S
C857 C858 1.524 . S
C857 H860 0.999 . S
C858 H828 0.950 1_556 S
C858 C857 1.524 . S
C858 C859 1.415 1_556 S
C859 H829 0.950 . S
C859 C854 1.363 1_554 S
C859 C858 1.415 1_554 S
H860 C857 0.999 . S
H861 C842 0.913 . S
H862 C880 0.951 . S
H863 C882 0.951 . S
H864 C884 0.950 . S
H865 C885 0.950 . S
H866 C887 0.950 . S
H867 C890 0.950 . S
H868 C891 0.950 . S
H869 C893 0.950 . S
H870 C894 0.950 . S
H871 C895 0.951 . S
H872 C897 0.951 . S
H873 C899 0.950 . S
H874 C900 0.950 . S
H875 C902 0.950 . S
H876 C905 0.950 . S
H877 C906 0.950 . S
H878 C908 0.950 . S
H879 C909 0.950 . S
C880 H862 0.951 . S
C880 C881 1.366 . S
C880 C882 1.388 . S
C881 C880 1.366 . S
C881 C885 1.385 . S
C882 H863 0.951 . S
C882 C880 1.388 . S
C882 C883 1.366 . S
C883 C882 1.366 . S
C883 C884 1.414 . S
C883 C886 1.499 . S
C884 H864 0.950 . S
C884 C883 1.414 . S
C884 C885 1.374 . S
C885 H865 0.950 . S
C885 C881 1.385 . S
C885 C884 1.374 . S
C886 C883 1.499 . S
C886 C887 1.373 . S
C886 C888 1.389 1_565 S
C887 H866 0.950 . S
C887 C886 1.373 . S
C887 C903 1.377 1_455 S
C888 C886 1.389 1_545 S
C888 C889 1.524 . S
C888 C902 1.377 1_455 S
C889 C888 1.524 . S
C889 C890 1.397 1_545 S
C889 C894 1.363 . S
C890 H867 0.950 . S
C890 C889 1.397 1_565 S
C890 C891 1.334 . S
C891 H868 0.950 . S
C891 C890 1.334 . S
C891 C892 1.287 1_565 S
C892 C891 1.287 1_545 S
C892 C893 1.524 . S
C892 H911 0.913 . S
C893 H869 0.950 . S
C893 C892 1.524 . S
C893 C894 1.415 . S
C894 H870 0.950 . S
C894 C889 1.363 . S
C894 C893 1.415 . S
C895 H871 0.951 . S
C895 C896 1.366 . S
C895 C897 1.388 . S
C896 C895 1.366 . S
C896 C900 1.385 . S
C897 H872 0.951 . S
C897 C895 1.388 . S
C897 C898 1.366 . S
C898 C897 1.366 . S
C898 C899 1.414 . S
C898 C901 1.499 . S
C899 H873 0.950 . S
C899 C898 1.414 . S
C899 C900 1.374 . S
C900 H874 0.950 . S
C900 C896 1.385 . S
C900 C899 1.374 . S
C901 C898 1.499 . S
C901 C902 1.373 . S
C901 C903 1.389 1_545 S
C902 H875 0.950 . S
C902 C888 1.377 1_655 S
C902 C901 1.373 . S
C903 C887 1.377 1_655 S
C903 C901 1.389 1_565 S
C903 C904 1.524 . S
C904 C903 1.524 . S
C904 C905 1.397 1_565 S
C904 C909 1.363 . S
C905 H876 0.950 . S
C905 C904 1.397 1_545 S
C905 C906 1.334 . S
C906 H877 0.950 . S
C906 C905 1.334 . S
C906 C907 1.287 1_545 S
C907 C906 1.287 1_565 S
C907 C908 1.524 . S
C907 H910 0.999 . S
C908 H878 0.950 . S
C908 C907 1.524 . S
C908 C909 1.415 . S
C909 H879 0.950 . S
C909 C904 1.363 . S
C909 C908 1.415 . S
H910 C907 0.999 . S
H911 C892 0.913 . S
C131 C21 1.643 . S
C146 C8 1.675 1_556 S
C181 C7 1.643 . S
C196 C22 1.675 . S
C231 C49 1.643 . S
C246 C36 1.674 1_554 S
C281 C35 1.643 . S
C296 C50 1.674 . S
C331 C64 1.675 1_554 S
C346 C77 1.643 . S
C381 C78 1.675 . S
C396 C63 1.643 . S
C431 C92 1.674 1_556 S
C446 C105 1.643 . S
C481 C91 1.643 . S
C496 C106 1.674 . S
C531 C9 0.574 . S
C546 C51 0.575 . S
C581 C23 0.573 . S
C596 C37 0.577 . S
C631 C107 0.577 . S
C646 C65 0.573 . S
C681 C93 0.577 . S
C696 C79 0.573 . S
C731 C3 1.553 . S
C746 C59 1.553 . S
C781 C73 1.553 . S
C796 C17 1.553 . S
C831 C87 1.553 . S
C846 C31 1.553 . S
C881 C101 1.553 . S
C896 C45 1.553 . S
