# Generated by pormake.
# Topology loh, (5)-cn, num edge types: 1
# Building blocks:
#     Node 0, Type 0, BuildingBlock: BEQFEK_clean_sbu_0, # of connection points: 5
#     Node 1, Type 0, BuildingBlock: BEQFEK_clean_sbu_0, # of connection points: 5
#     Node 2, Type 0, BuildingBlock: BEQFEK_clean_sbu_0, # of connection points: 5
#     Node 3, Type 0, BuildingBlock: BEQFEK_clean_sbu_0, # of connection points: 5
#     Node 4, Type 0, BuildingBlock: BEQFEK_clean_sbu_0, # of connection points: 5
#     Node 5, Type 0, BuildingBlock: BEQFEK_clean_sbu_0, # of connection points: 5
#     Node 6, Type 0, BuildingBlock: BEQFEK_clean_sbu_0, # of connection points: 5
#     Node 7, Type 0, BuildingBlock: BEQFEK_clean_sbu_0, # of connection points: 5
#     Edge 8, Type (0, 0), BuildingBlock: AJUNOK_clean_linker_0, # of connection points: 2
#     Edge 9, Type (0, 0), BuildingBlock: AJUNOK_clean_linker_0, # of connection points: 2
#     Edge 10, Type (0, 0), BuildingBlock: AJUNOK_clean_linker_0, # of connection points: 2
#     Edge 11, Type (0, 0), BuildingBlock: AJUNOK_clean_linker_0, # of connection points: 2
#     Edge 12, Type (0, 0), BuildingBlock: AJUNOK_clean_linker_0, # of connection points: 2
#     Edge 13, Type (0, 0), BuildingBlock: AJUNOK_clean_linker_0, # of connection points: 2
#     Edge 14, Type (0, 0), BuildingBlock: AJUNOK_clean_linker_0, # of connection points: 2
#     Edge 15, Type (0, 0), BuildingBlock: AJUNOK_clean_linker_0, # of connection points: 2
#     Edge 16, Type (0, 0), BuildingBlock: AJUNOK_clean_linker_0, # of connection points: 2
#     Edge 17, Type (0, 0), BuildingBlock: AJUNOK_clean_linker_0, # of connection points: 2
#     Edge 18, Type (0, 0), BuildingBlock: AJUNOK_clean_linker_0, # of connection points: 2
#     Edge 19, Type (0, 0), BuildingBlock: AJUNOK_clean_linker_0, # of connection points: 2
#     Edge 20, Type (0, 0), BuildingBlock: AJUNOK_clean_linker_0, # of connection points: 2
#     Edge 21, Type (0, 0), BuildingBlock: AJUNOK_clean_linker_0, # of connection points: 2
#     Edge 22, Type (0, 0), BuildingBlock: AJUNOK_clean_linker_0, # of connection points: 2
#     Edge 23, Type (0, 0), BuildingBlock: AJUNOK_clean_linker_0, # of connection points: 2
#     Edge 24, Type (0, 0), BuildingBlock: AJUNOK_clean_linker_0, # of connection points: 2
#     Edge 25, Type (0, 0), BuildingBlock: AJUNOK_clean_linker_0, # of connection points: 2
#     Edge 26, Type (0, 0), BuildingBlock: AJUNOK_clean_linker_0, # of connection points: 2
#     Edge 27, Type (0, 0), BuildingBlock: AJUNOK_clean_linker_0, # of connection points: 2
# Relax obj value: 0.196
# Max RMSD: 0.139
# Mean RMSD: 0.139
data_MOF--net-loh--node1-BEQFEK_clean_sbu_0--edge1-AJUNOK_clean_linker_0
_symmetry_space_group_name_H-M    P1
_symmetry_Int_Tables_number       1
_symmetry_cell_setting            triclinic
loop_
_symmetry_equiv_pos_as_xyz
'x, y, z'
_cell_length_a     16.206351
_cell_length_b     21.78551
_cell_length_c     33.347438
_cell_angle_alpha  90.005787
_cell_angle_beta   89.944978
_cell_angle_gamma 90.167921
loop_
_atom_site_label
_atom_site_type_symbol
_atom_site_fract_x
_atom_site_fract_y
_atom_site_fract_z
_atom_type_partial_charge
Co0 Co 0.95275 0.38539 0.12071 0.0
Co1 Co 0.98923 0.25651 0.15689 0.0
C2 C 0.84316 0.27711 0.10366 0.0
O3 O 0.86462 0.33291 0.10129 0.0
O4 O 0.88469 0.2389 0.12452 0.0
C5 C 0.84603 0.48458 0.10093 0.0
O6 O 0.78509 0.4481 0.11102 0.0
C7 C 0.98236 0.13162 0.19543 0.0
C8 C 0.10381 0.1289 0.22524 0.0
C9 C 0.03216 0.09504 0.21988 0.0
N10 N 0.02262 0.18462 0.1874 0.0
N11 N 0.09547 0.1821 0.20508 0.0
C12 C 0.90069 0.11502 0.17751 0.0
H13 H 0.90197 0.1244 0.14484 0.0
H14 H 0.85197 0.14421 0.19098 0.0
H15 H 0.88562 0.06583 0.18225 0.0
C16 C 0.96295 0.42527 0.20306 0.0
N17 N 0.96646 0.38039 0.17561 0.0
N18 N 0.97694 0.32691 0.19312 0.0
C19 C 0.9784 0.3368 0.23338 0.0
C20 C 0.96945 0.39976 0.24075 0.0
C21 C 0.95416 0.49208 0.19324 0.0
H22 H 0.99399 0.50395 0.16731 0.0
H23 H 0.88903 0.50167 0.18525 0.0
H24 H 0.97173 0.52163 0.21898 0.0
O25 O 0.05388 0.36621 0.09154 0.0
O26 O 0.07995 0.27349 0.11569 0.0
H27 H 0.05141 0.27362 0.26664 0.0
H28 H 0.96386 0.30324 0.29383 0.0
C29 C 0.9857 0.28718 0.26407 0.0
H30 H 0.94987 0.24625 0.25447 0.0
H31 H 0.13936 0.21722 0.2038 0.0
O32 O 0.92013 0.46716 0.10544 0.0
C33 C 0.09769 0.31806 0.09204 0.0
Co34 Co 0.50488 0.67152 0.62613 0.0
Co35 Co 0.4811 0.80466 0.65816 0.0
C36 C 0.60852 0.78197 0.59917 0.0
O37 O 0.57875 0.72836 0.59914 0.0
O38 O 0.58397 0.82101 0.62497 0.0
C39 C 0.63652 0.59513 0.61963 0.0
O40 O 0.67021 0.64191 0.63839 0.0
C41 C 0.49007 0.93278 0.69183 0.0
C42 C 0.37253 0.93756 0.72506 0.0
C43 C 0.4434 0.97103 0.71669 0.0
N44 N 0.44897 0.87925 0.6865 0.0
N45 N 0.37845 0.88301 0.70624 0.0
C46 C 0.56928 0.94822 0.67104 0.0
H47 H 0.56417 0.93637 0.6388 0.0
H48 H 0.61986 0.92034 0.68402 0.0
H49 H 0.58434 0.99777 0.67367 0.0
C50 C 0.50022 0.63945 0.70953 0.0
N51 N 0.49846 0.68237 0.6808 0.0
N52 N 0.49446 0.73747 0.69668 0.0
C53 C 0.49656 0.73061 0.73721 0.0
C54 C 0.49982 0.66785 0.7464 0.0
C55 C 0.50296 0.57178 0.7017 0.0
H56 H 0.46849 0.5606 0.67391 0.0
H57 H 0.56814 0.55746 0.6979 0.0
H58 H 0.47624 0.54557 0.72716 0.0
O59 O 0.39881 0.68218 0.601 0.0
O60 O 0.39137 0.78183 0.61638 0.0
H61 H 0.43129 0.79718 0.77147 0.0
H62 H 0.52288 0.76838 0.79554 0.0
C63 C 0.49601 0.78261 0.76638 0.0
H64 H 0.53067 0.82229 0.75393 0.0
H65 H 0.33472 0.84776 0.70744 0.0
O66 O 0.55883 0.59417 0.61402 0.0
C67 C 0.36448 0.73429 0.5974 0.0
Co68 Co 0.07148 0.6728 0.94969 0.0
Co69 Co 0.10081 0.80439 0.91535 0.0
C70 C 0.96242 0.78208 0.97028 0.0
O71 O 0.98938 0.72786 0.97169 0.0
O72 O 0.99685 0.82159 0.94757 0.0
C73 C 0.94644 0.59268 0.96213 0.0
O74 O 0.91012 0.6273 0.93523 0.0
C75 C 0.08833 0.92283 0.86938 0.0
C76 C 0.21753 0.95477 0.87135 0.0
C77 C 0.13971 0.9717 0.85815 0.0
N78 N 0.13393 0.87985 0.88836 0.0
N79 N 0.21107 0.89959 0.88932 0.0
C80 C 0.99681 0.91843 0.86419 0.0
H81 H 0.9695 0.88666 0.88646 0.0
H82 H 0.98297 0.90001 0.83393 0.0
H83 H 0.96806 0.96443 0.86698 0.0
C84 C 0.07977 0.63624 0.8671 0.0
N85 N 0.08214 0.68061 0.89484 0.0
N86 N 0.08972 0.73484 0.87781 0.0
C87 C 0.09053 0.72569 0.83744 0.0
C88 C 0.0837 0.66257 0.8296 0.0
C89 C 0.07482 0.56908 0.87653 0.0
H90 H 0.10934 0.55899 0.90445 0.0
H91 H 0.00927 0.55591 0.88094 0.0
H92 H 0.10042 0.54108 0.85166 0.0
O93 O 0.17435 0.68804 0.97721 0.0
O94 O 0.18937 0.78509 0.95762 0.0
H95 H 0.14321 0.80975 0.81603 0.0
H96 H 0.10869 0.75765 0.77681 0.0
C97 C 0.09513 0.77605 0.80714 0.0
H98 H 0.0351 0.80033 0.80639 0.0
H99 H 0.25945 0.8757 0.90277 0.0
O100 O 0.02456 0.59436 0.96521 0.0
C101 C 0.21237 0.73898 0.97883 0.0
Co102 Co 0.6338 0.38525 0.44904 0.0
Co103 Co 0.59083 0.25343 0.4169 0.0
C104 C 0.72814 0.27386 0.47581 0.0
O105 O 0.70781 0.32974 0.47481 0.0
O106 O 0.69167 0.23495 0.45308 0.0
C107 C 0.74002 0.47413 0.48115 0.0
O108 O 0.7996 0.4359 0.47212 0.0
C109 C 0.58965 0.13541 0.36843 0.0
C110 C 0.46409 0.10215 0.38215 0.0
C111 C 0.5349 0.08662 0.36123 0.0
N112 N 0.55232 0.1771 0.39234 0.0
N113 N 0.47741 0.15634 0.40037 0.0
C114 C 0.67442 0.1439 0.35167 0.0
H115 H 0.69459 0.19241 0.35489 0.0
H116 H 0.6756 0.13025 0.31961 0.0
H117 H 0.71817 0.11437 0.36838 0.0
C118 C 0.6394 0.41637 0.36544 0.0
N119 N 0.63217 0.37333 0.39387 0.0
N120 N 0.60894 0.32061 0.37808 0.0
C121 C 0.59689 0.33031 0.33817 0.0
C122 C 0.61537 0.39182 0.32907 0.0
C123 C 0.66787 0.48074 0.37355 0.0
H124 H 0.61889 0.50585 0.38998 0.0
H125 H 0.7239 0.47964 0.39258 0.0
H126 H 0.68311 0.50575 0.34554 0.0
O127 O 0.52518 0.37403 0.47397 0.0
O128 O 0.4985 0.27874 0.45443 0.0
H129 H 0.53123 0.30608 0.2842 0.0
H130 H 0.61209 0.25415 0.29883 0.0
C131 C 0.56149 0.28363 0.31018 0.0
H132 H 0.51665 0.25393 0.32627 0.0
H133 H 0.43501 0.17905 0.41859 0.0
O134 O 0.67003 0.4675 0.46465 0.0
C135 C 0.47926 0.32677 0.47438 0.0
Co136 Co 0.57366 0.88621 0.12315 0.0
Co137 Co 0.59965 0.75391 0.15669 0.0
C138 C 0.463 0.7777 0.10149 0.0
O139 O 0.49124 0.83175 0.10023 0.0
O140 O 0.49582 0.73795 0.12442 0.0
C141 C 0.45072 0.96788 0.10937 0.0
O142 O 0.4114 0.93301 0.13525 0.0
C143 C 0.584 0.63511 0.20203 0.0
C144 C 0.71026 0.59855 0.19638 0.0
C145 C 0.63274 0.58408 0.21137 0.0
N146 N 0.63073 0.67702 0.18247 0.0
N147 N 0.70606 0.65446 0.17924 0.0
C148 C 0.4935 0.64256 0.20939 0.0
H149 H 0.46653 0.67575 0.18797 0.0
H150 H 0.48383 0.66084 0.24006 0.0
H151 H 0.46128 0.59767 0.20696 0.0
C152 C 0.57834 0.92145 0.20618 0.0
N153 N 0.58241 0.87754 0.17814 0.0
N154 N 0.58827 0.82296 0.19488 0.0
C155 C 0.58585 0.83152 0.23533 0.0
C156 C 0.57904 0.8945 0.24352 0.0
C157 C 0.57306 0.98871 0.19724 0.0
H158 H 0.60946 0.99979 0.17 0.0
H159 H 0.50768 1.00115 0.19187 0.0
H160 H 0.5963 1.01653 0.22277 0.0
O161 O 0.67712 0.87113 0.09612 0.0
O162 O 0.68892 0.77337 0.11446 0.0
H163 H 0.6267 0.74288 0.25489 0.0
H164 H 0.60882 0.79797 0.29498 0.0
C165 C 0.58685 0.78089 0.26548 0.0
H166 H 0.52318 0.76293 0.26919 0.0
H167 H 0.75466 0.67689 0.16472 0.0
O168 O 0.52894 0.96522 0.1075 0.0
C169 C 0.71358 0.81979 0.09388 0.0
Co170 Co 0.1368 0.17585 0.6215 0.0
Co171 Co 0.09569 0.30513 0.65541 0.0
C172 C 0.22382 0.29017 0.59347 0.0
O173 O 0.20338 0.2343 0.59339 0.0
O174 O 0.19417 0.32687 0.61958 0.0
C175 C 0.25684 0.09138 0.5936 0.0
O176 O 0.30884 0.13758 0.5959 0.0
C177 C 0.09761 0.42193 0.70329 0.0
C178 C 0.97217 0.45644 0.6912 0.0
C179 C 0.04506 0.47168 0.71058 0.0
N180 N 0.05749 0.38044 0.6803 0.0
N181 N 0.98268 0.40174 0.67321 0.0
C182 C 0.18257 0.4117 0.71935 0.0
H183 H 0.19613 0.36184 0.72075 0.0
H184 H 0.18935 0.43261 0.74953 0.0
H185 H 0.22815 0.43298 0.69873 0.0
C186 C 0.14318 0.14176 0.70472 0.0
N187 N 0.13712 0.18592 0.67692 0.0
N188 N 0.11527 0.23819 0.69357 0.0
C189 C 0.10413 0.2275 0.73342 0.0
C190 C 0.12115 0.16563 0.74155 0.0
C191 C 0.16705 0.07681 0.6955 0.0
H192 H 0.22508 0.07675 0.67794 0.0
H193 H 0.17736 0.04928 0.72299 0.0
H194 H 0.1181 0.05493 0.67711 0.0
O195 O 0.02592 0.1822 0.59802 0.0
O196 O 0.00595 0.27868 0.61675 0.0
H197 H 0.03692 0.25024 0.78716 0.0
H198 H 0.12226 0.30005 0.77536 0.0
C199 C 0.07034 0.27345 0.76232 0.0
H200 H 0.02868 0.30585 0.74666 0.0
H201 H 0.93864 0.37906 0.65578 0.0
O202 O 0.18326 0.09763 0.60619 0.0
C203 C 0.98363 0.23117 0.59681 0.0
Co204 Co 0.46465 0.17279 0.94587 0.0
Co205 Co 0.49189 0.30616 0.9158 0.0
C206 C 0.35574 0.27935 0.97129 0.0
O207 O 0.38449 0.22545 0.9716 0.0
O208 O 0.38576 0.31957 0.94746 0.0
C209 C 0.35319 0.07812 0.96831 0.0
O210 O 0.29512 0.11925 0.96305 0.0
C211 C 0.49009 0.4258 0.87001 0.0
C212 C 0.61475 0.46032 0.88417 0.0
C213 C 0.5435 0.47568 0.86351 0.0
N214 N 0.52876 0.38379 0.89309 0.0
N215 N 0.60308 0.40523 0.90146 0.0
C216 C 0.40506 0.4166 0.8537 0.0
H217 H 0.38631 0.36771 0.85634 0.0
H218 H 0.40228 0.43142 0.82189 0.0
H219 H 0.36093 0.44463 0.87131 0.0
C220 C 0.47233 0.14172 0.86233 0.0
N221 N 0.47291 0.18457 0.89115 0.0
N222 N 0.48408 0.23957 0.87571 0.0
C223 C 0.4905 0.23247 0.83524 0.0
C224 C 0.4832 0.16995 0.82572 0.0
C225 C 0.46113 0.07438 0.87019 0.0
H226 H 0.5076 0.05895 0.89239 0.0
H227 H 0.39905 0.06633 0.88313 0.0
H228 H 0.4667 0.04625 0.84265 0.0
O229 O 0.5697 0.18569 0.97303 0.0
O230 O 0.57668 0.28523 0.95911 0.0
H231 H 0.54565 0.31916 0.8203 0.0
H232 H 0.5349 0.26616 0.77845 0.0
C233 C 0.50582 0.28363 0.80635 0.0
H234 H 0.44599 0.30501 0.79841 0.0
H235 H 0.64613 0.38227 0.91918 0.0
O236 O 0.42704 0.09059 0.95829 0.0
C237 C 0.60266 0.23797 0.9781 0.0
Co238 Co 0.0172 0.88417 0.45372 0.0
Co239 Co 0.98065 0.75503 0.41766 0.0
C240 C 0.12064 0.77211 0.47251 0.0
O241 O 0.09614 0.82684 0.47494 0.0
O242 O 0.08442 0.73424 0.44928 0.0
C243 C 0.14753 0.96175 0.4637 0.0
O244 O 0.18025 0.92412 0.43741 0.0
C245 C 0.98547 0.63869 0.36942 0.0
C246 C 0.85868 0.60452 0.37903 0.0
C247 C 0.93293 0.58909 0.36103 0.0
N248 N 0.94392 0.68022 0.39163 0.0
N249 N 0.86825 0.6591 0.39721 0.0
C250 C 0.07182 0.64894 0.35501 0.0
H251 H 0.08662 0.69871 0.35494 0.0
H252 H 0.08029 0.62956 0.32451 0.0
H253 H 0.11533 0.6262 0.37588 0.0
C254 C 0.00874 0.92341 0.37093 0.0
N255 N 0.0069 0.87814 0.39818 0.0
N256 N 0.99386 0.82482 0.38061 0.0
C257 C 0.98734 0.83551 0.34052 0.0
C258 C 0.99689 0.89853 0.33329 0.0
C259 C 0.02127 0.9898 0.38123 0.0
H260 H 0.08791 0.99831 0.38632 0.0
H261 H 1.00074 1.02083 0.35694 0.0
H262 H 0.98736 1.0011 0.40917 0.0
O263 O 0.91285 0.87073 0.48193 0.0
O264 O 0.89189 0.77624 0.45894 0.0
H265 H 0.92805 0.75143 0.32305 0.0
H266 H 0.93853 0.80792 0.28321 0.0
C267 C 0.96845 0.78738 0.30995 0.0
H268 H 0.02696 0.76556 0.30029 0.0
H269 H 0.82308 0.68192 0.41347 0.0
O270 O 0.07013 0.96015 0.46998 0.0
C271 C 0.8709 0.82132 0.48144 0.0
C272 C 0.26776 0.24665 1.02917 0.0
C273 C 0.28999 0.29305 1.00147 0.0
C274 C 0.20768 0.25582 0.05866 0.0
C275 C 0.16625 0.312 0.06226 0.0
H276 H 0.29714 0.20212 1.02837 0.0
H277 H 0.19301 0.21791 0.07847 0.0
S278 S 0.20351 0.4504 0.99898 0.0
N279 N 0.26748 0.39851 0.98074 0.0
N280 N 0.15405 0.41638 0.03623 0.0
C281 C 0.18869 0.35965 1.03536 0.0
C282 C 0.25047 0.35009 1.00507 0.0
C283 C 0.30129 0.7947 0.54211 0.0
C284 C 0.30131 0.74124 0.56554 0.0
C285 C 0.24751 0.80107 0.50961 0.0
C286 C 0.18939 0.75521 0.49971 0.0
H287 H 0.34398 0.83179 0.54854 0.0
H288 H 0.24964 0.84354 0.49279 0.0
S289 S 0.16675 0.60485 0.55046 0.0
N290 N 0.24212 0.63944 0.57511 0.0
N291 N 0.13758 0.65322 0.51505 0.0
C292 C 0.19035 0.70056 0.52199 0.0
C293 C 0.24676 0.69336 0.55476 0.0
C294 C 0.34605 0.81212 0.05877 0.0
C295 C 0.39432 0.76323 0.07342 0.0
C296 C 0.29011 0.80423 1.02728 0.0
C297 C 0.27768 0.74647 1.0097 0.0
H298 H 0.35203 0.8575 0.07154 0.0
H299 H 0.25509 0.84366 1.01728 0.0
S300 S 0.38364 0.60189 0.03849 0.0
N301 N 0.42381 0.65424 0.06862 0.0
N302 N 0.31553 0.6383 1.01044 0.0
C303 C 0.32288 0.6963 1.02503 0.0
C304 C 0.38148 0.70479 0.05676 0.0
C305 C 0.40575 0.36048 0.53728 0.0
C306 C 0.40636 0.32562 0.5015 0.0
C307 C 0.34374 0.35238 0.56653 0.0
C308 C 0.2798 0.30975 0.56055 0.0
H309 H 0.45567 0.39203 0.54366 0.0
H310 H 0.34842 0.37701 0.59466 0.0
S311 S 0.24266 0.21819 0.46803 0.0
N312 N 0.3304 0.25445 0.45938 0.0
N313 N 0.21335 0.24015 0.51319 0.0
C314 C 0.27579 0.27911 0.52323 0.0
C315 C 0.33913 0.28675 0.494 0.0
C316 C 0.78621 0.75598 0.04286 0.0
C317 C 0.77843 0.81242 0.06273 0.0
C318 C 0.8415 0.7488 1.01096 0.0
C319 C 0.89364 0.79696 0.99818 0.0
H320 H 0.74809 0.71718 0.05142 0.0
H321 H 0.84426 0.70444 0.9965 0.0
S322 S 0.89611 0.95481 0.03956 0.0
N323 N 0.82491 0.91872 0.06619 0.0
N324 N 0.93201 0.90386 1.0073 0.0
C325 C 0.88542 0.85416 1.01713 0.0
C326 C 0.82751 0.86203 0.04926 0.0
C327 C 0.88035 0.29494 0.56118 0.0
C328 C 0.91386 0.23664 0.5678 0.0
C329 C 0.82231 0.30508 0.53124 0.0
C330 C 0.79225 0.25751 0.50634 0.0
H331 H 0.90068 0.33424 0.57851 0.0
H332 H 0.80167 0.35178 0.52776 0.0
S333 S 0.85686 0.09459 0.51211 0.0
N334 N 0.91172 0.12909 0.54734 0.0
N335 N 0.79942 0.1485 0.49136 0.0
C336 C 0.82345 0.1982 0.51301 0.0
C337 C 0.88458 0.18773 0.5436 0.0
C338 C 0.78191 0.20973 0.05009 0.0
C339 C 0.77338 0.25828 0.07764 0.0
C340 C 0.72634 0.20291 1.01781 0.0
C341 C 0.66217 0.24544 1.01149 0.0
H342 H 0.83405 0.17892 0.05225 0.0
H343 H 0.73529 0.16544 0.99691 0.0
S344 S 0.60532 0.37359 0.07909 0.0
N345 N 0.68842 0.34344 0.0997 0.0
N346 N 0.58758 0.33279 0.03827 0.0
C347 C 0.65079 0.29197 0.04001 0.0
C348 C 0.70542 0.29774 0.07328 0.0
C349 C 0.72954 0.84355 0.57235 0.0
C350 C 0.67085 0.79647 0.56759 0.0
C351 C 0.7927 0.85254 0.54378 0.0
C352 C 0.79947 0.81483 0.50941 0.0
H353 H 0.7283 0.87231 0.59884 0.0
H354 H 0.838 0.88817 0.54936 0.0
S355 S 0.6543 0.69071 0.48011 0.0
N356 N 0.61889 0.71579 0.52346 0.0
N357 N 0.7369 0.73265 0.47072 0.0
C358 C 0.73885 0.76961 0.50354 0.0
C359 C 0.67478 0.76052 0.53231 0.0
C360 C 0.88327 0.46657 0.28381 0.0
C361 C 0.95788 0.43497 0.27848 0.0
C362 C 0.87629 0.51489 0.3112 0.0
C363 C 0.94384 0.53423 0.33461 0.0
H364 H 0.83122 0.4567 0.26466 0.0
H365 H 0.81817 0.53925 0.31252 0.0
S366 S 0.1494 0.45921 0.33685 0.0
N367 N 0.09853 0.42181 0.30149 0.0
N368 N 0.08477 0.51097 0.35478 0.0
C369 C 0.01732 0.49987 0.3318 0.0
C370 C 0.02443 0.45059 0.3034 0.0
C371 C 0.44608 0.60969 0.80561 0.0
C372 C 0.51365 0.6345 0.78461 0.0
C373 C 0.45587 0.55983 0.83214 0.0
C374 C 0.53355 0.53219 0.83818 0.0
H375 H 0.38454 0.62661 0.79976 0.0
H376 H 0.40171 0.54237 0.84726 0.0
S377 S 0.73108 0.58413 0.79213 0.0
N378 N 0.66114 0.63104 0.77348 0.0
N379 N 0.68046 0.53772 0.82266 0.0
C380 C 0.6023 0.55952 0.81904 0.0
C381 C 0.5921 0.61038 0.79241 0.0
C382 C 0.98845 0.54667 0.76011 0.0
C383 C 0.05571 0.52708 0.73661 0.0
C384 C 0.996 0.59556 0.78722 0.0
C385 C 0.07089 0.6275 0.79189 0.0
H386 H 0.93024 0.52216 0.75902 0.0
H387 H 0.94419 0.60592 0.80663 0.0
S388 S 0.26111 0.60295 0.73242 0.0
N389 N 0.19612 0.55049 0.71542 0.0
N390 N 0.21109 0.64074 0.76786 0.0
C391 C 0.13694 0.6116 0.76671 0.0
C392 C 0.12922 0.56177 0.73876 0.0
C393 C 0.5528 0.48319 0.29629 0.0
C394 C 0.60034 0.42945 0.29245 0.0
C395 C 0.5597 0.53166 0.26877 0.0
C396 C 0.61274 0.52788 0.23545 0.0
H397 H 0.51555 0.49019 0.3229 0.0
H398 H 0.52794 0.57386 0.2757 0.0
S399 S 0.73438 0.39039 0.20621 0.0
N400 N 0.69193 0.37105 0.24952 0.0
N401 N 0.70244 0.46086 0.19654 0.0
C402 C 0.65367 0.4715 0.22894 0.0
C403 C 0.64751 0.4224 0.2575 0.0
C404 C 0.62871 0.94943 0.30509 0.0
C405 C 0.5627 0.92888 0.28122 0.0
C406 C 0.61915 0.99909 0.33194 0.0
C407 C 0.54369 0.03077 0.33527 0.0
H408 H 0.68918 0.92921 0.30132 0.0
H409 H 0.67162 1.01329 0.34967 0.0
S410 S 0.34975 0.99029 0.28182 0.0
N411 N 0.41786 0.94024 0.26507 0.0
N412 N 0.39968 0.03343 0.31455 0.0
C413 C 0.47596 1.00768 0.31334 0.0
C414 C 0.48561 0.95698 0.28651 0.0
C415 C 0.06332 1.02701 0.80298 0.0
C416 C 0.12119 1.02846 0.83443 0.0
C417 C 0.05634 0.07593 0.77578 0.0
C418 C 0.10816 0.12782 0.77822 0.0
H419 H 0.02735 0.98618 0.79715 0.0
H420 H 0.01517 0.07064 0.75042 0.0
S421 S 0.25897 0.16003 0.85872 0.0
N422 N 0.22255 0.09111 0.8697 0.0
N423 N 0.2111 0.18169 0.8174 0.0
C424 C 0.16113 0.13245 0.81124 0.0
C425 C 0.16771 0.08294 0.83938 0.0
C426 C 0.40075 0.07543 0.74084 0.0
C427 C 0.4638 0.03166 0.73542 0.0
C428 C 0.41144 0.12669 0.76607 0.0
C429 C 0.48563 0.1362 0.78697 0.0
H430 H 0.34075 0.06793 0.72749 0.0
H431 H 0.35881 0.15581 0.77207 0.0
S432 S 0.67112 0.0375 0.78262 0.0
N433 N 0.60431 1.0031 0.75271 0.0
N434 N 0.62471 0.10012 0.79886 0.0
C435 C 0.55121 0.09564 0.77946 0.0
C436 C 0.54018 0.04304 0.75418 0.0
C437 C 0.07562 0.99166 0.24584 0.0
C438 C 0.01343 0.03631 0.24121 0.0
C439 C 0.06608 0.94192 0.27251 0.0
C440 C 0.994 0.93497 0.29556 0.0
H441 H 0.13399 0.99704 0.23034 0.0
H442 H 0.11792 0.91156 0.27741 0.0
S443 S 0.81364 0.03876 0.29518 0.0
N444 N 0.8776 0.06975 0.26245 0.0
N445 N 0.85877 0.97555 0.31124 0.0
C446 C 0.92967 0.9771 0.2895 0.0
C447 C 0.93966 1.02805 0.26278 0.0
C448 C 0.83524 0.53503 0.99741 0.0
C449 C 0.9003 0.57749 0.99844 0.0
C450 C 0.80244 0.51196 1.0333 0.0
C451 C 0.83436 0.53143 0.07045 0.0
H452 H 0.81506 0.51561 0.96915 0.0
H453 H 0.76074 0.47303 1.03179 0.0
S454 S 0.98501 0.65589 0.0883 0.0
N455 N 0.98213 0.64786 0.0391 0.0
N456 N 0.91744 0.60604 0.10616 0.0
C457 C 0.88826 0.58152 0.07143 0.0
C458 C 0.92339 0.60357 1.03535 0.0
C459 C 0.7394 0.58781 0.56529 0.0
C460 C 0.68695 0.55796 0.59284 0.0
C461 C 0.7638 0.55839 0.52987 0.0
C462 C 0.73708 0.49848 0.52184 0.0
H463 H 0.75449 0.63598 0.56903 0.0
H464 H 0.79769 0.58413 0.50741 0.0
S465 S 0.61307 0.39757 0.58837 0.0
N466 N 0.61963 0.46333 0.61279 0.0
N467 N 0.66519 0.40766 0.5463 0.0
C468 C 0.6921 0.46632 0.5512 0.0
C469 C 0.66718 0.49624 0.58691 0.0
C470 C 0.31239 0.05164 0.03726 0.0
C471 C 0.3452 0.03252 1.00018 0.0
C472 C 0.34334 1.02786 0.07328 0.0
C473 C 0.4076 0.98499 0.0726 0.0
H474 H 0.27025 0.09008 0.03874 0.0
H475 H 0.3219 0.04665 0.1015 0.0
S476 S 0.49452 0.90726 0.98308 0.0
N477 N 0.42885 0.95788 0.96487 0.0
N478 N 0.48983 0.91476 1.03228 0.0
C479 C 0.43209 0.95961 1.03573 0.0
C480 C 0.39899 0.98245 0.99944 0.0
C481 C 0.25314 0.03367 0.49067 0.0
C482 C 0.19919 0.98407 0.49634 0.0
C483 C 0.28752 0.06359 0.52392 0.0
C484 C 0.26792 0.04417 0.56309 0.0
H485 H 0.26258 0.05272 0.461 0.0
H486 H 0.32004 0.10648 0.51906 0.0
S487 S 0.14898 0.90621 0.59218 0.0
N488 N 0.14098 0.90962 0.54288 0.0
N489 N 0.20857 0.96456 0.60504 0.0
C490 C 0.22566 0.98868 0.56833 0.0
C491 C 0.18923 0.95929 0.53489 0.0
loop_
_geom_bond_atom_site_label_1
_geom_bond_atom_site_label_2
_geom_bond_distance
_geom_bond_site_symmetry_2
_ccdc_geom_bond_type
Co0 O3 1.970 1_455 S
Co0 N17 1.989 . S
Co0 O25 1.967 . S
Co0 O32 1.920 . S
Co1 O4 1.966 1_455 S
Co1 N10 2.022 . S
Co1 N18 1.993 . S
Co1 O26 1.941 . S
C2 O3 1.258 . S
C2 O4 1.263 . S
O3 Co0 1.970 1_655 S
O3 C2 1.258 . S
O4 Co1 1.966 1_655 S
O4 C2 1.263 . S
C5 O6 1.235 . S
C5 O32 1.289 1_655 S
O6 C5 1.235 . S
C7 C9 1.400 1_655 S
C7 N10 1.351 1_655 S
C7 C12 1.501 . S
C8 C9 1.387 . S
C8 N11 1.341 . S
C9 C7 1.400 1_455 S
C9 C8 1.387 . S
N10 Co1 2.022 . S
N10 C7 1.351 1_455 S
N10 N11 1.365 . S
N11 C8 1.341 . S
N11 N10 1.365 . S
N11 H31 0.862 . S
C12 C7 1.501 . S
C12 H13 0.961 . S
C12 H14 0.961 . S
C12 H15 0.960 . S
H13 C12 0.961 . S
H14 C12 0.961 . S
H15 C12 0.960 . S
C16 N17 1.342 . S
C16 C20 1.401 . S
C16 C21 1.499 . S
N17 Co0 1.989 . S
N17 C16 1.342 . S
N17 N18 1.388 . S
N18 Co1 1.993 . S
N18 N17 1.388 . S
N18 C19 1.346 . S
C19 N18 1.346 . S
C19 C20 1.396 . S
C19 C29 1.510 . S
C20 C16 1.401 . S
C20 C19 1.396 . S
C21 C16 1.499 . S
C21 H22 0.959 . S
C21 H23 0.960 . S
C21 H24 0.961 . S
H22 C21 0.959 . S
H23 C21 0.960 . S
H24 C21 0.961 . S
O25 Co0 1.967 . S
O25 C33 1.258 . S
O26 Co1 1.941 . S
O26 C33 1.266 . S
H27 C29 0.959 . S
H28 C29 0.961 1_655 S
C29 C19 1.510 . S
C29 H27 0.959 . S
C29 H28 0.961 1_455 S
C29 H30 0.960 . S
H30 C29 0.960 . S
H31 N11 0.862 . S
O32 Co0 1.920 . S
O32 C5 1.289 1_455 S
C33 O25 1.258 . S
C33 O26 1.266 . S
Co34 O37 1.970 . S
Co34 N51 1.989 . S
Co34 O59 1.967 . S
Co34 O66 1.920 . S
Co35 O38 1.966 . S
Co35 N44 2.022 . S
Co35 N52 1.993 . S
Co35 O60 1.941 . S
C36 O37 1.258 . S
C36 O38 1.263 . S
O37 Co34 1.970 . S
O37 C36 1.258 . S
O38 Co35 1.966 . S
O38 C36 1.263 . S
C39 O40 1.235 . S
C39 O66 1.289 . S
O40 C39 1.235 . S
C41 C43 1.400 . S
C41 N44 1.351 . S
C41 C46 1.501 . S
C42 C43 1.387 . S
C42 N45 1.341 . S
C43 C41 1.400 . S
C43 C42 1.387 . S
N44 Co35 2.022 . S
N44 C41 1.351 . S
N44 N45 1.365 . S
N45 C42 1.341 . S
N45 N44 1.365 . S
N45 H65 0.862 . S
C46 C41 1.501 . S
C46 H47 0.961 . S
C46 H48 0.961 . S
C46 H49 0.960 . S
H47 C46 0.961 . S
H48 C46 0.961 . S
H49 C46 0.960 . S
C50 N51 1.342 . S
C50 C54 1.401 . S
C50 C55 1.499 . S
N51 Co34 1.989 . S
N51 C50 1.342 . S
N51 N52 1.388 . S
N52 Co35 1.993 . S
N52 N51 1.388 . S
N52 C53 1.346 . S
C53 N52 1.346 . S
C53 C54 1.396 . S
C53 C63 1.510 . S
C54 C50 1.401 . S
C54 C53 1.396 . S
C55 C50 1.499 . S
C55 H56 0.959 . S
C55 H57 0.960 . S
C55 H58 0.961 . S
H56 C55 0.959 . S
H57 C55 0.960 . S
H58 C55 0.961 . S
O59 Co34 1.967 . S
O59 C67 1.258 . S
O60 Co35 1.941 . S
O60 C67 1.266 . S
H61 C63 0.959 . S
H62 C63 0.961 . S
C63 C53 1.510 . S
C63 H61 0.959 . S
C63 H62 0.961 . S
C63 H64 0.960 . S
H64 C63 0.960 . S
H65 N45 0.862 . S
O66 Co34 1.920 . S
O66 C39 1.289 . S
C67 O59 1.258 . S
C67 O60 1.266 . S
Co68 O71 1.970 1_455 S
Co68 N85 1.989 . S
Co68 O93 1.967 . S
Co68 O100 1.920 . S
Co69 O72 1.966 1_455 S
Co69 N78 2.022 . S
Co69 N86 1.993 . S
Co69 O94 1.941 . S
C70 O71 1.258 . S
C70 O72 1.263 . S
O71 Co68 1.970 1_655 S
O71 C70 1.258 . S
O72 Co69 1.966 1_655 S
O72 C70 1.263 . S
C73 O74 1.235 . S
C73 O100 1.289 1_655 S
O74 C73 1.235 . S
C75 C77 1.400 1_655 S
C75 N78 1.351 1_655 S
C75 C80 1.501 . S
C76 C77 1.387 . S
C76 N79 1.341 . S
C77 C75 1.400 1_455 S
C77 C76 1.387 . S
N78 Co69 2.022 . S
N78 C75 1.351 1_455 S
N78 N79 1.365 . S
N79 C76 1.341 . S
N79 N78 1.365 . S
N79 H99 0.862 . S
C80 C75 1.501 . S
C80 H81 0.961 . S
C80 H82 0.961 . S
C80 H83 0.960 . S
H81 C80 0.961 . S
H82 C80 0.961 . S
H83 C80 0.960 . S
C84 N85 1.342 . S
C84 C88 1.401 . S
C84 C89 1.499 . S
N85 Co68 1.989 . S
N85 C84 1.342 . S
N85 N86 1.388 . S
N86 Co69 1.993 . S
N86 N85 1.388 . S
N86 C87 1.346 . S
C87 N86 1.346 . S
C87 C88 1.396 . S
C87 C97 1.510 . S
C88 C84 1.401 . S
C88 C87 1.396 . S
C89 C84 1.499 . S
C89 H90 0.959 . S
C89 H91 0.960 . S
C89 H92 0.961 . S
H90 C89 0.959 . S
H91 C89 0.960 . S
H92 C89 0.961 . S
O93 Co68 1.967 . S
O93 C101 1.258 . S
O94 Co69 1.941 . S
O94 C101 1.266 . S
H95 C97 0.959 . S
H96 C97 0.961 1_655 S
C97 C87 1.510 . S
C97 H95 0.959 . S
C97 H96 0.961 1_455 S
C97 H98 0.960 . S
H98 C97 0.960 . S
H99 N79 0.862 . S
O100 Co68 1.920 . S
O100 C73 1.289 1_455 S
C101 O93 1.258 . S
C101 O94 1.266 . S
Co102 O105 1.970 . S
Co102 N119 1.989 . S
Co102 O127 1.967 . S
Co102 O134 1.920 . S
Co103 O106 1.966 . S
Co103 N112 2.022 . S
Co103 N120 1.993 . S
Co103 O128 1.941 . S
C104 O105 1.258 . S
C104 O106 1.263 . S
O105 Co102 1.970 . S
O105 C104 1.258 . S
O106 Co103 1.966 . S
O106 C104 1.263 . S
C107 O108 1.235 . S
C107 O134 1.289 . S
O108 C107 1.235 . S
C109 C111 1.400 . S
C109 N112 1.351 . S
C109 C114 1.501 . S
C110 C111 1.387 . S
C110 N113 1.341 . S
C111 C109 1.400 . S
C111 C110 1.387 . S
N112 Co103 2.022 . S
N112 C109 1.351 . S
N112 N113 1.365 . S
N113 C110 1.341 . S
N113 N112 1.365 . S
N113 H133 0.862 . S
C114 C109 1.501 . S
C114 H115 0.961 . S
C114 H116 0.961 . S
C114 H117 0.960 . S
H115 C114 0.961 . S
H116 C114 0.961 . S
H117 C114 0.960 . S
C118 N119 1.342 . S
C118 C122 1.401 . S
C118 C123 1.499 . S
N119 Co102 1.989 . S
N119 C118 1.342 . S
N119 N120 1.388 . S
N120 Co103 1.993 . S
N120 N119 1.388 . S
N120 C121 1.346 . S
C121 N120 1.346 . S
C121 C122 1.396 . S
C121 C131 1.510 . S
C122 C118 1.401 . S
C122 C121 1.396 . S
C123 C118 1.499 . S
C123 H124 0.959 . S
C123 H125 0.960 . S
C123 H126 0.961 . S
H124 C123 0.959 . S
H125 C123 0.960 . S
H126 C123 0.961 . S
O127 Co102 1.967 . S
O127 C135 1.258 . S
O128 Co103 1.941 . S
O128 C135 1.266 . S
H129 C131 0.959 . S
H130 C131 0.961 . S
C131 C121 1.510 . S
C131 H129 0.959 . S
C131 H130 0.961 . S
C131 H132 0.960 . S
H132 C131 0.960 . S
H133 N113 0.862 . S
O134 Co102 1.920 . S
O134 C107 1.289 . S
C135 O127 1.258 . S
C135 O128 1.266 . S
Co136 O139 1.970 . S
Co136 N153 1.989 . S
Co136 O161 1.967 . S
Co136 O168 1.920 . S
Co137 O140 1.966 . S
Co137 N146 2.022 . S
Co137 N154 1.993 . S
Co137 O162 1.941 . S
C138 O139 1.258 . S
C138 O140 1.263 . S
O139 Co136 1.970 . S
O139 C138 1.258 . S
O140 Co137 1.966 . S
O140 C138 1.263 . S
C141 O142 1.235 . S
C141 O168 1.289 . S
O142 C141 1.235 . S
C143 C145 1.400 . S
C143 N146 1.351 . S
C143 C148 1.501 . S
C144 C145 1.387 . S
C144 N147 1.341 . S
C145 C143 1.400 . S
C145 C144 1.387 . S
N146 Co137 2.022 . S
N146 C143 1.351 . S
N146 N147 1.365 . S
N147 C144 1.341 . S
N147 N146 1.365 . S
N147 H167 0.862 . S
C148 C143 1.501 . S
C148 H149 0.961 . S
C148 H150 0.961 . S
C148 H151 0.960 . S
H149 C148 0.961 . S
H150 C148 0.961 . S
H151 C148 0.960 . S
C152 N153 1.342 . S
C152 C156 1.401 . S
C152 C157 1.499 . S
N153 Co136 1.989 . S
N153 C152 1.342 . S
N153 N154 1.388 . S
N154 Co137 1.993 . S
N154 N153 1.388 . S
N154 C155 1.346 . S
C155 N154 1.346 . S
C155 C156 1.396 . S
C155 C165 1.510 . S
C156 C152 1.401 . S
C156 C155 1.396 . S
C157 C152 1.499 . S
C157 H158 0.959 . S
C157 H159 0.960 . S
C157 H160 0.961 . S
H158 C157 0.959 . S
H159 C157 0.960 . S
H160 C157 0.961 . S
O161 Co136 1.967 . S
O161 C169 1.258 . S
O162 Co137 1.941 . S
O162 C169 1.266 . S
H163 C165 0.959 . S
H164 C165 0.961 . S
C165 C155 1.510 . S
C165 H163 0.959 . S
C165 H164 0.961 . S
C165 H166 0.960 . S
H166 C165 0.960 . S
H167 N147 0.862 . S
O168 Co136 1.920 . S
O168 C141 1.289 . S
C169 O161 1.258 . S
C169 O162 1.266 . S
Co170 O173 1.970 . S
Co170 N187 1.989 . S
Co170 O195 1.967 1_455 S
Co170 O202 1.920 . S
Co171 O174 1.966 . S
Co171 N180 2.022 . S
Co171 N188 1.993 . S
Co171 O196 1.941 1_455 S
C172 O173 1.258 . S
C172 O174 1.263 . S
O173 Co170 1.970 . S
O173 C172 1.258 . S
O174 Co171 1.966 . S
O174 C172 1.263 . S
C175 O176 1.235 . S
C175 O202 1.289 . S
O176 C175 1.235 . S
C177 C179 1.400 . S
C177 N180 1.351 . S
C177 C182 1.501 . S
C178 C179 1.387 1_655 S
C178 N181 1.341 . S
C179 C177 1.400 . S
C179 C178 1.387 1_455 S
N180 Co171 2.022 . S
N180 C177 1.351 . S
N180 N181 1.365 1_455 S
N181 C178 1.341 . S
N181 N180 1.365 1_655 S
N181 H201 0.862 . S
C182 C177 1.501 . S
C182 H183 0.961 . S
C182 H184 0.961 . S
C182 H185 0.960 . S
H183 C182 0.961 . S
H184 C182 0.961 . S
H185 C182 0.960 . S
C186 N187 1.342 . S
C186 C190 1.401 . S
C186 C191 1.499 . S
N187 Co170 1.989 . S
N187 C186 1.342 . S
N187 N188 1.388 . S
N188 Co171 1.993 . S
N188 N187 1.388 . S
N188 C189 1.346 . S
C189 N188 1.346 . S
C189 C190 1.396 . S
C189 C199 1.510 . S
C190 C186 1.401 . S
C190 C189 1.396 . S
C191 C186 1.499 . S
C191 H192 0.959 . S
C191 H193 0.960 . S
C191 H194 0.961 1_455 S
H192 C191 0.959 . S
H193 C191 0.960 . S
H194 C191 0.961 1_655 S
O195 Co170 1.967 1_655 S
O195 C203 1.258 . S
O196 Co171 1.941 1_655 S
O196 C203 1.266 . S
H197 C199 0.959 1_655 S
H198 C199 0.961 . S
C199 C189 1.510 . S
C199 H197 0.959 1_455 S
C199 H198 0.961 . S
C199 H200 0.960 . S
H200 C199 0.960 . S
H201 N181 0.862 . S
O202 Co170 1.920 . S
O202 C175 1.289 . S
C203 O195 1.258 . S
C203 O196 1.266 . S
Co204 O207 1.970 . S
Co204 N221 1.989 . S
Co204 O229 1.967 . S
Co204 O236 1.920 . S
Co205 O208 1.966 . S
Co205 N214 2.022 . S
Co205 N222 1.993 . S
Co205 O230 1.941 . S
C206 O207 1.258 . S
C206 O208 1.263 . S
O207 Co204 1.970 . S
O207 C206 1.258 . S
O208 Co205 1.966 . S
O208 C206 1.263 . S
C209 O210 1.235 . S
C209 O236 1.289 . S
O210 C209 1.235 . S
C211 C213 1.400 . S
C211 N214 1.351 . S
C211 C216 1.501 . S
C212 C213 1.387 . S
C212 N215 1.341 . S
C213 C211 1.400 . S
C213 C212 1.387 . S
N214 Co205 2.022 . S
N214 C211 1.351 . S
N214 N215 1.365 . S
N215 C212 1.341 . S
N215 N214 1.365 . S
N215 H235 0.862 . S
C216 C211 1.501 . S
C216 H217 0.961 . S
C216 H218 0.961 . S
C216 H219 0.960 . S
H217 C216 0.961 . S
H218 C216 0.961 . S
H219 C216 0.960 . S
C220 N221 1.342 . S
C220 C224 1.401 . S
C220 C225 1.499 . S
N221 Co204 1.989 . S
N221 C220 1.342 . S
N221 N222 1.388 . S
N222 Co205 1.993 . S
N222 N221 1.388 . S
N222 C223 1.346 . S
C223 N222 1.346 . S
C223 C224 1.396 . S
C223 C233 1.510 . S
C224 C220 1.401 . S
C224 C223 1.396 . S
C225 C220 1.499 . S
C225 H226 0.959 . S
C225 H227 0.960 . S
C225 H228 0.961 . S
H226 C225 0.959 . S
H227 C225 0.960 . S
H228 C225 0.961 . S
O229 Co204 1.967 . S
O229 C237 1.258 . S
O230 Co205 1.941 . S
O230 C237 1.266 . S
H231 C233 0.959 . S
H232 C233 0.961 . S
C233 C223 1.510 . S
C233 H231 0.959 . S
C233 H232 0.961 . S
C233 H234 0.960 . S
H234 C233 0.960 . S
H235 N215 0.862 . S
O236 Co204 1.920 . S
O236 C209 1.289 . S
C237 O229 1.258 . S
C237 O230 1.266 . S
Co238 O241 1.970 . S
Co238 N255 1.989 . S
Co238 O263 1.967 1_455 S
Co238 O270 1.920 . S
Co239 O242 1.966 . S
Co239 N248 2.022 . S
Co239 N256 1.993 . S
Co239 O264 1.941 1_455 S
C240 O241 1.258 . S
C240 O242 1.263 . S
O241 Co238 1.970 . S
O241 C240 1.258 . S
O242 Co239 1.966 . S
O242 C240 1.263 . S
C243 O244 1.235 . S
C243 O270 1.289 . S
O244 C243 1.235 . S
C245 C247 1.400 . S
C245 N248 1.351 . S
C245 C250 1.501 . S
C246 C247 1.387 1_655 S
C246 N249 1.341 . S
C247 C245 1.400 . S
C247 C246 1.387 1_455 S
N248 Co239 2.022 . S
N248 C245 1.351 . S
N248 N249 1.365 1_455 S
N249 C246 1.341 . S
N249 N248 1.365 1_655 S
N249 H269 0.862 . S
C250 C245 1.501 . S
C250 H251 0.961 . S
C250 H252 0.961 . S
C250 H253 0.960 . S
H251 C250 0.961 . S
H252 C250 0.961 . S
H253 C250 0.960 . S
C254 N255 1.342 . S
C254 C258 1.401 . S
C254 C259 1.499 . S
N255 Co238 1.989 . S
N255 C254 1.342 . S
N255 N256 1.388 . S
N256 Co239 1.993 . S
N256 N255 1.388 . S
N256 C257 1.346 . S
C257 N256 1.346 . S
C257 C258 1.396 . S
C257 C267 1.510 . S
C258 C254 1.401 . S
C258 C257 1.396 . S
C259 C254 1.499 . S
C259 H260 0.959 . S
C259 H261 0.960 . S
C259 H262 0.961 1_455 S
H260 C259 0.959 . S
H261 C259 0.960 . S
H262 C259 0.961 1_655 S
O263 Co238 1.967 1_655 S
O263 C271 1.258 . S
O264 Co239 1.941 1_655 S
O264 C271 1.266 . S
H265 C267 0.959 1_655 S
H266 C267 0.961 . S
C267 C257 1.510 . S
C267 H265 0.959 1_455 S
C267 H266 0.961 . S
C267 H268 0.960 . S
H268 C267 0.960 . S
H269 N249 0.862 . S
O270 Co238 1.920 . S
O270 C243 1.289 . S
C271 O263 1.258 . S
C271 O264 1.266 . S
C272 C273 1.370 1_554 S
C272 C274 1.418 . S
C272 H276 0.930 . S
C273 C272 1.370 1_556 S
C273 C282 1.429 . S
C274 C272 1.418 . S
C274 C275 1.363 . S
C274 H277 0.929 . S
C275 C274 1.363 . S
C275 C281 1.428 1_554 S
H276 C272 0.930 . S
H277 C274 0.929 . S
S278 N279 1.613 . S
S278 N280 1.610 . S
N279 S278 1.613 . S
N279 C282 1.350 . S
N280 S278 1.610 . S
N280 C281 1.351 . S
C281 C275 1.428 1_556 S
C281 N280 1.351 . S
C281 C282 1.434 . S
C282 C273 1.429 . S
C282 N279 1.350 . S
C282 C281 1.434 . S
C283 C284 1.369 . S
C283 C285 1.419 . S
C283 H287 0.930 . S
C284 C283 1.369 . S
C284 C293 1.429 . S
C285 C283 1.419 . S
C285 C286 1.363 . S
C285 H288 0.929 . S
C286 C285 1.363 . S
C286 C292 1.428 . S
H287 C283 0.930 . S
H288 C285 0.929 . S
S289 N290 1.613 . S
S289 N291 1.610 . S
N290 S289 1.613 . S
N290 C293 1.350 . S
N291 S289 1.610 . S
N291 C292 1.351 . S
C292 C286 1.428 . S
C292 N291 1.351 . S
C292 C293 1.434 . S
C293 C284 1.429 . S
C293 N290 1.350 . S
C293 C292 1.434 . S
C294 C295 1.369 1_556 S
C294 C296 1.419 . S
C294 H298 0.930 . S
C295 C294 1.369 1_554 S
C295 C304 1.429 . S
C296 C294 1.419 . S
C296 C297 1.363 . S
C296 H299 0.929 . S
C297 C296 1.363 . S
C297 C303 1.428 1_556 S
H298 C294 0.930 . S
H299 C296 0.929 . S
S300 N301 1.613 . S
S300 N302 1.610 . S
N301 S300 1.613 . S
N301 C304 1.350 . S
N302 S300 1.610 . S
N302 C303 1.351 . S
C303 C297 1.428 1_554 S
C303 N302 1.351 . S
C303 C304 1.434 . S
C304 C295 1.429 . S
C304 N301 1.350 . S
C304 C303 1.434 . S
C305 C306 1.369 . S
C305 C307 1.419 . S
C305 H309 0.930 . S
C306 C305 1.369 . S
C306 C315 1.429 . S
C307 C305 1.419 . S
C307 C308 1.363 . S
C307 H310 0.929 . S
C308 C307 1.363 . S
C308 C314 1.428 . S
H309 C305 0.930 . S
H310 C307 0.929 . S
S311 N312 1.613 . S
S311 N313 1.610 . S
N312 S311 1.613 . S
N312 C315 1.350 . S
N313 S311 1.610 . S
N313 C314 1.351 . S
C314 C308 1.428 . S
C314 N313 1.351 . S
C314 C315 1.434 . S
C315 C306 1.429 . S
C315 N312 1.350 . S
C315 C314 1.434 . S
C316 C317 1.369 . S
C316 C318 1.419 1_554 S
C316 H320 0.930 . S
C317 C316 1.369 . S
C317 C326 1.429 . S
C318 C316 1.419 1_556 S
C318 C319 1.363 . S
C318 H321 0.929 . S
C319 C318 1.363 . S
C319 C325 1.428 . S
H320 C316 0.930 . S
H321 C318 0.929 . S
S322 N323 1.613 . S
S322 N324 1.610 1_554 S
N323 S322 1.613 . S
N323 C326 1.350 . S
N324 S322 1.610 1_556 S
N324 C325 1.351 . S
C325 C319 1.428 . S
C325 N324 1.351 . S
C325 C326 1.434 1_556 S
C326 C317 1.429 . S
C326 N323 1.350 . S
C326 C325 1.434 1_554 S
C327 C328 1.369 . S
C327 C329 1.419 . S
C327 H331 0.930 . S
C328 C327 1.369 . S
C328 C337 1.429 . S
C329 C327 1.419 . S
C329 C330 1.363 . S
C329 H332 0.929 . S
C330 C329 1.363 . S
C330 C336 1.428 . S
H331 C327 0.930 . S
H332 C329 0.929 . S
S333 N334 1.613 . S
S333 N335 1.610 . S
N334 S333 1.613 . S
N334 C337 1.350 . S
N335 S333 1.610 . S
N335 C336 1.351 . S
C336 C330 1.428 . S
C336 N335 1.351 . S
C336 C337 1.434 . S
C337 C328 1.429 . S
C337 N334 1.350 . S
C337 C336 1.434 . S
C338 C339 1.369 . S
C338 C340 1.419 1_554 S
C338 H342 0.930 . S
C339 C338 1.369 . S
C339 C348 1.429 . S
C340 C338 1.419 1_556 S
C340 C341 1.363 . S
C340 H343 0.929 . S
C341 C340 1.363 . S
C341 C347 1.444 . S
H342 C338 0.930 . S
H343 C340 0.929 . S
S344 N345 1.613 . S
S344 N346 1.610 . S
N345 S344 1.613 . S
N345 C348 1.350 . S
N346 S344 1.610 . S
N346 C347 1.350 1_554 S
C347 C341 1.444 . S
C347 N346 1.350 1_556 S
C347 C348 1.417 1_556 S
C348 C339 1.429 . S
C348 N345 1.350 . S
C348 C347 1.417 1_554 S
C349 C350 1.369 . S
C349 C351 1.419 . S
C349 H353 0.930 . S
C350 C349 1.369 . S
C350 C359 1.429 . S
C351 C349 1.419 . S
C351 C352 1.363 . S
C351 H354 0.929 . S
C352 C351 1.363 . S
C352 C358 1.428 . S
H353 C349 0.930 . S
H354 C351 0.929 . S
S355 N356 1.613 . S
S355 N357 1.610 . S
N356 S355 1.613 . S
N356 C359 1.350 . S
N357 S355 1.610 . S
N357 C358 1.351 . S
C358 C352 1.428 . S
C358 N357 1.351 . S
C358 C359 1.434 . S
C359 C350 1.429 . S
C359 N356 1.350 . S
C359 C358 1.434 . S
C360 C361 1.369 . S
C360 C362 1.419 . S
C360 H364 0.930 . S
C361 C360 1.369 . S
C361 C370 1.429 . S
C362 C360 1.419 . S
C362 C363 1.363 . S
C362 H365 0.929 . S
C363 C362 1.363 . S
C363 C369 1.428 . S
H364 C360 0.930 . S
H365 C362 0.929 . S
S366 N367 1.613 . S
S366 N368 1.610 . S
N367 S366 1.613 . S
N367 C370 1.350 . S
N368 S366 1.610 . S
N368 C369 1.351 . S
C369 C363 1.428 . S
C369 N368 1.351 . S
C369 C370 1.434 . S
C370 C361 1.429 . S
C370 N367 1.350 . S
C370 C369 1.434 . S
C371 C372 1.369 . S
C371 C373 1.419 . S
C371 H375 0.930 . S
C372 C371 1.369 . S
C372 C381 1.429 . S
C373 C371 1.419 . S
C373 C374 1.363 . S
C373 H376 0.929 . S
C374 C373 1.363 . S
C374 C380 1.428 . S
H375 C371 0.930 . S
H376 C373 0.929 . S
S377 N378 1.613 . S
S377 N379 1.610 . S
N378 S377 1.613 . S
N378 C381 1.350 . S
N379 S377 1.610 . S
N379 C380 1.351 . S
C380 C374 1.428 . S
C380 N379 1.351 . S
C380 C381 1.434 . S
C381 C372 1.429 . S
C381 N378 1.350 . S
C381 C380 1.434 . S
C382 C383 1.369 . S
C382 C384 1.419 . S
C382 H386 0.930 . S
C383 C382 1.369 . S
C383 C392 1.429 . S
C384 C382 1.419 . S
C384 C385 1.363 . S
C384 H387 0.929 1_455 S
C385 C384 1.363 . S
C385 C391 1.428 . S
H386 C382 0.930 . S
H387 C384 0.929 1_655 S
S388 N389 1.613 . S
S388 N390 1.610 . S
N389 S388 1.613 . S
N389 C392 1.350 . S
N390 S388 1.610 . S
N390 C391 1.351 . S
C391 C385 1.428 . S
C391 N390 1.351 . S
C391 C392 1.434 . S
C392 C383 1.429 . S
C392 N389 1.350 . S
C392 C391 1.434 . S
C393 C394 1.369 . S
C393 C395 1.419 . S
C393 H397 0.930 . S
C394 C393 1.369 . S
C394 C403 1.429 . S
C395 C393 1.419 . S
C395 C396 1.363 . S
C395 H398 0.929 . S
C396 C395 1.363 . S
C396 C402 1.428 . S
H397 C393 0.930 . S
H398 C395 0.929 . S
S399 N400 1.613 . S
S399 N401 1.610 . S
N400 S399 1.613 . S
N400 C403 1.350 . S
N401 S399 1.610 . S
N401 C402 1.351 . S
C402 C396 1.428 . S
C402 N401 1.351 . S
C402 C403 1.434 . S
C403 C394 1.429 . S
C403 N400 1.350 . S
C403 C402 1.434 . S
C404 C405 1.369 . S
C404 C406 1.419 1_565 S
C404 H408 0.930 . S
C405 C404 1.369 . S
C405 C414 1.429 1_565 S
C406 C404 1.419 1_545 S
C406 C407 1.363 . S
C406 H409 0.929 . S
C407 C406 1.363 . S
C407 C413 1.428 . S
H408 C404 0.930 . S
H409 C406 0.929 . S
S410 N411 1.613 . S
S410 N412 1.610 . S
N411 S410 1.613 . S
N411 C414 1.350 . S
N412 S410 1.610 . S
N412 C413 1.351 . S
C413 C407 1.428 . S
C413 N412 1.351 . S
C413 C414 1.434 . S
C414 C405 1.429 1_545 S
C414 N411 1.350 . S
C414 C413 1.434 . S
C415 C416 1.369 . S
C415 C417 1.419 . S
C415 H419 0.930 . S
C416 C415 1.369 . S
C416 C425 1.429 1_655 S
C417 C415 1.419 . S
C417 C418 1.363 1_565 S
C417 H420 0.929 . S
C418 C417 1.363 1_545 S
C418 C424 1.429 1_655 S
H419 C415 0.930 . S
H420 C417 0.929 . S
S421 N422 1.619 . S
S421 N423 1.610 . S
N422 S421 1.619 . S
N422 C425 1.349 1_545 S
N423 S421 1.610 . S
N423 C424 1.351 . S
C424 C418 1.429 1_455 S
C424 N423 1.351 . S
C424 C425 1.434 1_545 S
C425 C416 1.429 1_455 S
C425 N422 1.349 1_565 S
C425 C424 1.434 1_565 S
C426 C427 1.369 . S
C426 C428 1.419 1_565 S
C426 H430 0.930 . S
C427 C426 1.369 . S
C427 C436 1.429 . S
C428 C426 1.419 1_545 S
C428 C429 1.363 . S
C428 H431 0.929 . S
C429 C428 1.363 . S
C429 C435 1.428 . S
H430 C426 0.930 . S
H431 C428 0.929 . S
S432 N433 1.613 . S
S432 N434 1.610 1_565 S
N433 S432 1.613 . S
N433 C436 1.350 . S
N434 S432 1.610 1_545 S
N434 C435 1.351 . S
C435 C429 1.428 . S
C435 N434 1.351 . S
C435 C436 1.434 1_545 S
C436 C427 1.429 . S
C436 N433 1.350 . S
C436 C435 1.434 1_565 S
C437 C438 1.369 1_455 S
C437 C439 1.419 1_545 S
C437 H441 0.930 . S
C438 C437 1.369 1_655 S
C438 C447 1.429 . S
C439 C437 1.419 1_565 S
C439 C440 1.361 1_455 S
C439 H442 0.929 . S
C440 C439 1.361 1_655 S
C440 C446 1.417 1_565 S
H441 C437 0.930 . S
H442 C439 0.929 . S
S443 N444 1.613 . S
S443 N445 1.610 . S
N444 S443 1.613 . S
N444 C447 1.350 . S
N445 S443 1.610 . S
N445 C446 1.352 . S
C446 C440 1.417 1_545 S
C446 N445 1.352 . S
C446 C447 1.449 . S
C447 C438 1.429 . S
C447 N444 1.350 . S
C447 C446 1.449 . S
C448 C449 1.369 . S
C448 C450 1.402 1_556 S
C448 H452 0.931 . S
C449 C448 1.369 . S
C449 C458 1.404 1_556 S
C450 C448 1.402 1_554 S
C450 C451 1.381 . S
C450 H453 0.928 1_654 S
C451 C450 1.381 . S
C451 C457 1.428 . S
H452 C448 0.931 . S
H453 C450 0.928 1_456 S
S454 N455 1.613 . S
S454 N456 1.610 . S
N455 S454 1.613 . S
N455 C458 1.354 . S
N456 S454 1.610 . S
N456 C457 1.351 . S
C457 C451 1.428 . S
C457 N456 1.351 . S
C457 C458 1.458 . S
C458 C449 1.404 1_554 S
C458 N455 1.354 . S
C458 C457 1.458 . S
C459 C460 1.369 . S
C459 C461 1.419 . S
C459 H463 0.930 . S
C460 C459 1.369 . S
C460 C469 1.429 . S
C461 C459 1.419 . S
C461 C462 1.363 . S
C461 H464 0.929 . S
C462 C461 1.363 . S
C462 C468 1.428 . S
H463 C459 0.930 . S
H464 C461 0.929 . S
S465 N466 1.613 . S
S465 N467 1.610 . S
N466 S465 1.613 . S
N466 C469 1.350 . S
N467 S465 1.610 . S
N467 C468 1.351 . S
C468 C462 1.428 . S
C468 N467 1.351 . S
C468 C469 1.434 . S
C469 C460 1.429 . S
C469 N466 1.350 . S
C469 C468 1.434 . S
C470 C471 1.378 . S
C470 C472 1.410 1_556 S
C470 H474 0.930 1_556 S
C471 C470 1.378 . S
C471 C480 1.429 1_545 S
C472 C470 1.410 1_554 S
C472 C473 1.363 1_545 S
C472 H475 0.929 . S
C473 C472 1.363 1_565 S
C473 C479 1.401 1_554 S
H474 C470 0.930 1_554 S
H475 C472 0.929 . S
S476 N477 1.613 . S
S476 N478 1.610 . S
N477 S476 1.613 . S
N477 C480 1.350 . S
N478 S476 1.610 . S
N478 C479 1.356 . S
C479 C473 1.401 1_556 S
C479 N478 1.356 . S
C479 C480 1.460 . S
C480 C471 1.429 1_565 S
C480 N477 1.350 . S
C480 C479 1.460 . S
C481 C482 1.369 1_545 S
C481 C483 1.419 . S
C481 H485 0.930 . S
C482 C481 1.369 1_565 S
C482 C491 1.429 . S
C483 C481 1.419 . S
C483 C484 1.363 . S
C483 H486 0.929 . S
C484 C483 1.363 . S
C484 C490 1.428 1_545 S
H485 C481 0.930 . S
H486 C483 0.929 . S
S487 N488 1.613 . S
S487 N489 1.610 . S
N488 S487 1.613 . S
N488 C491 1.350 . S
N489 S487 1.610 . S
N489 C490 1.351 . S
C490 C484 1.428 1_565 S
C490 N489 1.351 . S
C490 C491 1.434 . S
C491 C482 1.429 . S
C491 N488 1.350 . S
C491 C490 1.434 . S
C273 C206 1.633 . S
C275 C33 1.679 . S
C284 C67 1.678 . S
C286 C240 1.632 . S
C295 C138 1.632 . S
C297 C101 1.679 . S
C306 C135 1.682 . S
C308 C172 1.628 . S
C317 C169 1.678 . S
C319 C70 1.632 . S
C328 C203 1.680 . S
C330 C104 1.629 . S
C339 C2 1.627 . S
C341 C237 1.681 . S
C350 C36 1.625 . S
C352 C271 1.683 . S
C361 C20 1.889 . S
C363 C247 1.782 . S
C372 C54 1.885 . S
C374 C213 1.782 . S
C383 C179 1.788 . S
C385 C88 1.889 . S
C394 C122 1.887 . S
C396 C145 1.781 . S
C405 C156 1.885 . S
C407 C111 1.786 . S
C416 C77 1.783 1_655 S
C418 C190 1.889 1_655 S
C427 C43 1.788 . S
C429 C224 1.886 . S
C438 C9 1.787 1_655 S
C440 C258 1.885 1_655 S
C449 C73 0.347 . S
C451 C5 0.366 . S
C460 C39 0.365 . S
C462 C107 0.347 . S
C471 C209 0.366 . S
C473 C141 0.347 . S
C482 C243 0.344 . S
C484 C175 0.364 . S
