# Generated by pormake.
# Topology yfb, (5)-cn, num edge types: 1
# Building blocks:
#     Node 0, Type 0, BuildingBlock: XOMCOT_clean_sbu_1, # of connection points: 5
#     Node 1, Type 0, BuildingBlock: XOMCOT_clean_sbu_1, # of connection points: 5
#     Node 2, Type 0, BuildingBlock: XOMCOT_clean_sbu_1, # of connection points: 5
#     Node 3, Type 0, BuildingBlock: XOMCOT_clean_sbu_1, # of connection points: 5
#     Node 4, Type 0, BuildingBlock: XOMCOT_clean_sbu_1, # of connection points: 5
#     Node 5, Type 0, BuildingBlock: XOMCOT_clean_sbu_1, # of connection points: 5
#     Node 6, Type 0, BuildingBlock: XOMCOT_clean_sbu_1, # of connection points: 5
#     Node 7, Type 0, BuildingBlock: XOMCOT_clean_sbu_1, # of connection points: 5
#     Node 8, Type 0, BuildingBlock: XOMCOT_clean_sbu_1, # of connection points: 5
#     Node 9, Type 0, BuildingBlock: XOMCOT_clean_sbu_1, # of connection points: 5
#     Node 10, Type 0, BuildingBlock: XOMCOT_clean_sbu_1, # of connection points: 5
#     Node 11, Type 0, BuildingBlock: XOMCOT_clean_sbu_1, # of connection points: 5
#     Node 12, Type 0, BuildingBlock: XOMCOT_clean_sbu_1, # of connection points: 5
#     Node 13, Type 0, BuildingBlock: XOMCOT_clean_sbu_1, # of connection points: 5
#     Node 14, Type 0, BuildingBlock: XOMCOT_clean_sbu_1, # of connection points: 5
#     Node 15, Type 0, BuildingBlock: XOMCOT_clean_sbu_1, # of connection points: 5
#     Edge 16, Type (0, 0), BuildingBlock: XUDNAN_clean_linker_2, # of connection points: 2
#     Edge 17, Type (0, 0), BuildingBlock: XUDNAN_clean_linker_2, # of connection points: 2
#     Edge 18, Type (0, 0), BuildingBlock: XUDNAN_clean_linker_2, # of connection points: 2
#     Edge 19, Type (0, 0), BuildingBlock: XUDNAN_clean_linker_2, # of connection points: 2
#     Edge 20, Type (0, 0), BuildingBlock: XUDNAN_clean_linker_2, # of connection points: 2
#     Edge 21, Type (0, 0), BuildingBlock: XUDNAN_clean_linker_2, # of connection points: 2
#     Edge 22, Type (0, 0), BuildingBlock: XUDNAN_clean_linker_2, # of connection points: 2
#     Edge 23, Type (0, 0), BuildingBlock: XUDNAN_clean_linker_2, # of connection points: 2
#     Edge 24, Type (0, 0), BuildingBlock: XUDNAN_clean_linker_2, # of connection points: 2
#     Edge 25, Type (0, 0), BuildingBlock: XUDNAN_clean_linker_2, # of connection points: 2
#     Edge 26, Type (0, 0), BuildingBlock: XUDNAN_clean_linker_2, # of connection points: 2
#     Edge 27, Type (0, 0), BuildingBlock: XUDNAN_clean_linker_2, # of connection points: 2
#     Edge 28, Type (0, 0), BuildingBlock: XUDNAN_clean_linker_2, # of connection points: 2
#     Edge 29, Type (0, 0), BuildingBlock: XUDNAN_clean_linker_2, # of connection points: 2
#     Edge 30, Type (0, 0), BuildingBlock: XUDNAN_clean_linker_2, # of connection points: 2
#     Edge 31, Type (0, 0), BuildingBlock: XUDNAN_clean_linker_2, # of connection points: 2
#     Edge 32, Type (0, 0), BuildingBlock: XUDNAN_clean_linker_2, # of connection points: 2
#     Edge 33, Type (0, 0), BuildingBlock: XUDNAN_clean_linker_2, # of connection points: 2
#     Edge 34, Type (0, 0), BuildingBlock: XUDNAN_clean_linker_2, # of connection points: 2
#     Edge 35, Type (0, 0), BuildingBlock: XUDNAN_clean_linker_2, # of connection points: 2
#     Edge 36, Type (0, 0), BuildingBlock: XUDNAN_clean_linker_2, # of connection points: 2
#     Edge 37, Type (0, 0), BuildingBlock: XUDNAN_clean_linker_2, # of connection points: 2
#     Edge 38, Type (0, 0), BuildingBlock: XUDNAN_clean_linker_2, # of connection points: 2
#     Edge 39, Type (0, 0), BuildingBlock: XUDNAN_clean_linker_2, # of connection points: 2
#     Edge 40, Type (0, 0), BuildingBlock: XUDNAN_clean_linker_2, # of connection points: 2
#     Edge 41, Type (0, 0), BuildingBlock: XUDNAN_clean_linker_2, # of connection points: 2
#     Edge 42, Type (0, 0), BuildingBlock: XUDNAN_clean_linker_2, # of connection points: 2
#     Edge 43, Type (0, 0), BuildingBlock: XUDNAN_clean_linker_2, # of connection points: 2
#     Edge 44, Type (0, 0), BuildingBlock: XUDNAN_clean_linker_2, # of connection points: 2
#     Edge 45, Type (0, 0), BuildingBlock: XUDNAN_clean_linker_2, # of connection points: 2
#     Edge 46, Type (0, 0), BuildingBlock: XUDNAN_clean_linker_2, # of connection points: 2
#     Edge 47, Type (0, 0), BuildingBlock: XUDNAN_clean_linker_2, # of connection points: 2
#     Edge 48, Type (0, 0), BuildingBlock: XUDNAN_clean_linker_2, # of connection points: 2
#     Edge 49, Type (0, 0), BuildingBlock: XUDNAN_clean_linker_2, # of connection points: 2
#     Edge 50, Type (0, 0), BuildingBlock: XUDNAN_clean_linker_2, # of connection points: 2
#     Edge 51, Type (0, 0), BuildingBlock: XUDNAN_clean_linker_2, # of connection points: 2
#     Edge 52, Type (0, 0), BuildingBlock: XUDNAN_clean_linker_2, # of connection points: 2
#     Edge 53, Type (0, 0), BuildingBlock: XUDNAN_clean_linker_2, # of connection points: 2
#     Edge 54, Type (0, 0), BuildingBlock: XUDNAN_clean_linker_2, # of connection points: 2
#     Edge 55, Type (0, 0), BuildingBlock: XUDNAN_clean_linker_2, # of connection points: 2
# Relax obj value: 0.749
# Max RMSD: 0.275
# Mean RMSD: 0.275
data_MOF--net-yfb--node1-XOMCOT_clean_sbu_1--edge1-XUDNAN_clean_linker_2
_symmetry_space_group_name_H-M    P1
_symmetry_Int_Tables_number       1
_symmetry_cell_setting            triclinic
loop_
_symmetry_equiv_pos_as_xyz
'x, y, z'
_cell_length_a     41.960332
_cell_length_b     41.923751
_cell_length_c     42.992805
_cell_angle_alpha  90.149722
_cell_angle_beta   89.807858
_cell_angle_gamma 89.960647
loop_
_atom_site_label
_atom_site_type_symbol
_atom_site_fract_x
_atom_site_fract_y
_atom_site_fract_z
_atom_type_partial_charge
C0 C 0.63525 0.01807 0.12964 0.0
C1 C 0.60885 1.0016 0.11948 0.0
N2 N 0.59699 0.0164 0.09421 0.0
N3 N 0.64037 0.04344 0.11111 0.0
C4 C 0.6161 0.0421 0.09018 0.0
H5 H 0.65081 0.01067 0.14824 0.0
Co6 Co 0.67848 0.06799 0.11042 0.0
C7 C 0.65915 0.13324 0.09217 0.0
O8 O 0.68376 0.13442 0.07321 0.0
N9 N 0.71713 0.09227 0.11027 0.0
C10 C 0.76346 0.11431 0.09692 0.0
C11 C 0.74477 0.08747 0.09469 0.0
C12 C 0.72129 0.12107 0.12418 0.0
N13 N 0.74828 0.13582 0.11492 0.0
O14 O 0.67908 0.0719 0.15538 0.0
H15 H 0.75079 0.06671 0.08111 0.0
H16 H 0.70301 0.13271 0.13793 0.0
O17 O 0.65311 0.1078 0.10757 0.0
C18 C 0.69913 0.05309 0.16818 0.0
O19 O 0.71189 0.03038 0.15108 0.0
N20 N 0.68064 0.062 0.0667 0.0
C21 C 0.70552 0.05989 1.00704 0.0
C22 C 0.67806 0.07794 1.01335 0.0
C23 C 0.66573 0.07849 0.04352 0.0
C24 C 0.70182 0.03864 0.05905 0.0
C25 C 0.71533 0.0376 0.02935 0.0
H26 H 0.64593 0.09414 0.04833 0.0
H27 H 0.71159 0.02376 0.07721 0.0
H28 H 0.61348 0.05832 0.071 0.0
H29 H 0.60004 0.97952 0.12922 0.0
H30 H 0.78543 0.11858 0.08431 0.0
H31 H 0.6684 0.09409 0.99615 0.0
H32 H 0.73583 0.0224 0.02547 0.0
C33 C 0.49553 0.61621 0.11041 0.0
C34 C 0.50726 0.59208 0.09144 0.0
N35 N 0.48246 0.57603 0.07915 0.0
N36 N 0.4634 0.61549 0.1103 0.0
C37 C 0.45631 0.59029 0.09158 0.0
H38 H 0.50952 0.63438 0.12191 0.0
Co39 Co 0.43507 0.6473 0.12632 0.0
C40 C 0.37439 0.63301 0.09564 0.0
O41 O 0.37573 0.6609 0.08201 0.0
N42 N 0.40424 0.67853 0.14201 0.0
C43 C 0.35874 0.69328 0.1655 0.0
C44 C 0.38347 0.67198 0.16537 0.0
C45 C 0.39056 0.70442 0.12812 0.0
N46 N 0.36255 0.71326 0.14149 0.0
O47 O 0.43374 0.62414 0.16518 0.0
H48 H 0.38315 0.65047 0.17898 0.0
H49 H 0.3983 0.71406 0.10613 0.0
O50 O 0.39792 0.62311 0.1118 0.0
C51 C 0.4381 0.62809 0.19446 0.0
O52 O 0.43542 0.60276 0.21222 0.0
N53 N 0.44085 0.67 0.08906 0.0
C54 C 0.45864 0.70558 0.03683 0.0
C55 C 0.4465 0.67448 0.03368 0.0
C56 C 0.43763 0.65721 0.05998 0.0
C57 C 0.45591 0.69853 0.09275 0.0
C58 C 0.4639 0.71723 0.06709 0.0
H59 H 0.42792 0.63363 0.0568 0.0
H60 H 0.46066 0.7074 0.11592 0.0
H61 H 0.43225 0.58363 0.08546 0.0
H62 H 0.53204 0.58822 0.0854 0.0
H63 H 0.33727 0.69115 0.17939 0.0
H64 H 0.44345 0.66346 1.01111 0.0
H65 H 0.47319 0.7409 0.07126 0.0
C66 C 0.86442 0.49613 0.12128 0.0
C67 C 0.89026 0.50655 0.10398 0.0
N68 N 0.90359 0.48128 0.08934 0.0
N69 N 0.8613 0.46433 0.11786 0.0
C70 C 0.88552 0.4561 0.09842 0.0
H71 H 0.84841 0.51103 0.13468 0.0
Co72 Co 0.82812 0.43717 0.13191 0.0
C73 C 0.85544 0.37177 0.12695 0.0
O74 O 0.82823 0.36103 0.11648 0.0
N75 N 0.79477 0.40884 0.14597 0.0
C76 C 0.7753 0.36897 0.17446 0.0
C77 C 0.79484 0.39497 0.17429 0.0
C78 C 0.77347 0.39094 0.12966 0.0
N79 N 0.76283 0.36519 0.14589 0.0
O80 O 0.83764 0.44697 0.17509 0.0
H81 H 0.81173 0.39969 0.19242 0.0
H82 H 0.76982 0.39369 0.10498 0.0
O83 O 0.85886 0.40152 0.1326 0.0
C84 C 0.81854 0.46754 0.18695 0.0
O85 O 0.80064 0.48409 0.16782 0.0
N86 N 0.81626 0.43111 0.09037 0.0
C87 C 0.78863 0.43333 0.03146 0.0
C88 C 0.81406 0.41242 0.03755 0.0
C89 C 0.82802 0.41204 0.06718 0.0
C90 C 0.7923 0.45211 0.08447 0.0
C91 C 0.77808 0.45355 0.05535 0.0
H92 H 0.8482 0.39667 0.07109 0.0
H93 H 0.7838 0.46752 0.10294 0.0
H94 H 0.88896 0.43205 0.09009 0.0
H95 H 0.89812 0.53103 0.10207 0.0
H96 H 0.77489 0.35143 0.19287 0.0
H97 H 0.82319 0.39674 0.01955 0.0
H98 H 0.75832 0.46978 0.05189 0.0
C99 C 0.0148 0.88378 0.10063 0.0
C100 C 1.00108 0.91237 0.09223 0.0
N101 N 0.0238 0.93502 0.09218 0.0
N102 N 0.04644 0.88768 0.1049 0.0
C103 C 0.05038 0.91968 0.10195 0.0
H104 H 1.00271 0.86104 0.10094 0.0
Co105 Co 0.0763 0.85284 0.1018 0.0
C106 C 0.12442 0.90627 0.09052 0.0
O107 O 0.10902 0.9186 0.06679 0.0
N108 N 0.10453 0.81808 0.09831 0.0
C109 C 0.12513 0.77243 0.0809 0.0
C110 C 0.09784 0.79057 0.08333 0.0
C111 C 0.13579 0.81554 0.10575 0.0
N112 N 0.14896 0.78821 0.09505 0.0
O113 O 0.07756 0.84804 0.14612 0.0
H114 H 0.07489 0.78473 0.07348 0.0
H115 H 0.14913 0.83391 0.11742 0.0
O116 O 0.11325 0.88173 0.10441 0.0
C117 C 0.05749 0.82831 0.15735 0.0
O118 O 0.03436 0.81803 0.13944 0.0
N119 N 0.07409 0.85411 0.058 0.0
C120 C 0.07085 0.83297 0.99609 0.0
C121 C 0.09742 0.8501 1.00708 0.0
C122 C 0.09947 0.85821 0.03848 0.0
C123 C 0.04671 0.84093 0.04688 0.0
C124 C 0.04457 0.83014 0.01626 0.0
H125 H 0.1226 0.8646 0.04725 0.0
H126 H 0.02785 0.83458 0.06273 0.0
H127 H 0.07245 0.93177 0.10596 0.0
H128 H 0.97666 0.91563 0.08489 0.0
H129 H 0.12748 0.74975 0.069 0.0
H130 H 0.11812 0.85433 0.99267 0.0
H131 H 0.02359 0.81667 1.01 0.0
C132 C 0.62172 0.49077 0.40785 0.0
C133 C 0.59543 0.50838 0.41717 0.0
N134 N 0.58943 0.50199 0.44733 0.0
N135 N 0.63303 0.47411 0.43232 0.0
C136 C 0.61231 0.48113 0.45563 0.0
H137 H 0.63007 0.48845 0.38416 0.0
Co138 Co 0.66087 0.43876 0.43639 0.0
C139 C 0.61196 0.40267 0.44589 0.0
O140 O 0.62241 0.41136 0.47343 0.0
N141 N 0.68591 0.40205 0.44211 0.0
C142 C 0.71273 0.3632 0.46546 0.0
C143 C 0.69982 0.39317 0.46898 0.0
C144 C 0.68998 0.37678 0.42283 0.0
N145 N 0.70633 0.35278 0.43648 0.0
O146 O 0.67881 0.44283 0.39401 0.0
H147 H 0.69963 0.40723 0.49011 0.0
H148 H 0.68012 0.3756 0.39963 0.0
O149 O 0.62712 0.4122 0.42199 0.0
C150 C 0.69163 0.46633 0.37965 0.0
O151 O 0.69094 0.49495 0.39215 0.0
N152 N 0.69429 0.46459 0.45296 0.0
C153 C 0.74319 0.48331 0.49324 0.0
C154 C 0.71215 0.49534 0.49678 0.0
C155 C 0.68796 0.4848 0.47715 0.0
C156 C 0.72528 0.45756 0.44574 0.0
C157 C 0.74992 0.46593 0.46592 0.0
H158 H 0.66404 0.49108 0.4834 0.0
H159 H 0.73081 0.4418 0.42654 0.0
H160 H 0.61351 0.47028 0.47837 0.0
H161 H 0.58068 0.52303 0.40234 0.0
H162 H 0.72435 0.34942 0.48342 0.0
H163 H 0.7057 0.51066 0.51607 0.0
H164 H 0.77321 0.45602 0.46121 0.0
C165 C 0.01478 0.6419 0.39489 0.0
C166 C 1.00269 0.61362 0.4061 0.0
N167 N 0.02292 0.60192 0.42756 0.0
N168 N 0.04275 0.64814 0.40892 0.0
C169 C 0.04706 0.62329 0.42873 0.0
H170 H 1.00334 0.6573 0.3782 0.0
Co171 Co 0.06728 0.68548 0.40469 0.0
C172 C 0.13181 0.66815 0.42619 0.0
O173 O 0.13377 0.69569 0.44075 0.0
N174 N 0.09257 0.72295 0.40015 0.0
C175 C 0.12016 0.76769 0.40786 0.0
C176 C 0.09253 0.75139 0.41508 0.0
C177 C 0.11956 0.72359 0.38277 0.0
N178 N 0.13731 0.74987 0.38778 0.0
O179 O 0.07193 0.67914 0.36046 0.0
H180 H 0.07499 0.75915 0.43186 0.0
H181 H 0.12805 0.70319 0.36969 0.0
O182 O 0.10607 0.66031 0.41225 0.0
C183 C 0.05254 0.69707 0.34572 0.0
O184 O 0.02956 0.71094 0.36161 0.0
N185 N 0.05974 0.69424 0.44688 0.0
C186 C 0.04576 0.72188 0.50423 0.0
C187 C 0.06824 0.69708 0.50188 0.0
C188 C 0.07441 0.68302 0.47296 0.0
C189 C 0.03484 0.71493 0.44953 0.0
C190 C 0.02757 0.72928 0.47794 0.0
H191 H 0.09175 0.6641 0.4717 0.0
H192 H 0.0221 0.72212 0.42887 0.0
H193 H 0.06739 0.62097 0.44393 0.0
H194 H 0.98011 0.60308 0.39964 0.0
H195 H 0.12786 0.79001 0.41806 0.0
H196 H 0.08242 0.68993 0.52166 0.0
H197 H 0.00915 0.74738 0.47886 0.0
C198 C 0.88348 0.01404 0.41812 0.0
C199 C 0.91204 1.00407 0.43077 0.0
N200 N 0.92728 0.02963 0.44273 0.0
N201 N 0.88047 0.04582 0.42183 0.0
C202 C 0.90779 0.05462 0.43637 0.0
H203 H 0.86499 0.99868 0.40907 0.0
Co204 Co 0.84165 0.06874 0.41912 0.0
C205 C 0.86009 0.1342 0.43803 0.0
O206 O 0.83541 0.13634 0.45681 0.0
N207 N 0.80226 0.09148 0.41619 0.0
C208 C 0.75092 0.10563 0.41764 0.0
C209 C 0.77242 0.08143 0.42307 0.0
C210 C 0.79765 0.12125 0.40471 0.0
N211 N 0.76704 0.13081 0.40653 0.0
O212 O 0.84391 0.07129 0.37434 0.0
H213 H 0.76618 0.05805 0.43148 0.0
H214 H 0.81638 0.13603 0.39523 0.0
O215 O 0.86526 0.10886 0.42226 0.0
C216 C 0.8264 0.05108 0.3601 0.0
O217 O 0.81522 0.02672 0.3759 0.0
N218 N 0.83728 0.06435 0.46269 0.0
C219 C 0.81812 0.057 0.5246 0.0
C220 C 0.84517 0.07524 0.51702 0.0
C221 C 0.85447 0.07848 0.48591 0.0
C222 C 0.81486 0.04226 0.47012 0.0
C223 C 0.80406 0.03901 0.50058 0.0
H224 H 0.87485 0.09317 0.48082 0.0
H225 H 0.80417 0.02809 0.45191 0.0
H226 H 0.9121 0.07859 0.44454 0.0
H227 H 0.92006 0.97961 0.43232 0.0
H228 H 0.7256 0.10519 0.42258 0.0
H229 H 0.85845 0.08793 0.53467 0.0
H230 H 0.78362 0.02386 0.5044 0.0
C231 C 0.48985 0.87061 0.38449 0.0
C232 C 0.50215 0.89939 0.39454 0.0
N233 N 0.48394 0.91038 0.41815 0.0
N234 N 0.46369 0.86353 0.40138 0.0
C235 C 0.46073 0.88833 0.42166 0.0
H236 H 0.4997 0.85564 0.36634 0.0
Co237 Co 0.43846 0.82624 0.3995 0.0
C238 C 0.37197 0.8487 0.41031 0.0
O239 O 0.36526 0.82292 0.42627 0.0
N240 N 0.41267 0.7889 0.39768 0.0
C241 C 0.38405 0.7463 0.41088 0.0
C242 C 0.41114 0.76368 0.41717 0.0
C243 C 0.38734 0.7849 0.37853 0.0
N244 N 0.36905 0.75984 0.38668 0.0
O245 O 0.43872 0.826 0.35421 0.0
H246 H 0.42687 0.75945 0.43651 0.0
H247 H 0.38007 0.8025 0.36158 0.0
O248 O 0.40021 0.85358 0.40011 0.0
C249 C 0.45761 0.80422 0.3443 0.0
O250 O 0.47667 0.7907 0.36455 0.0
N251 N 0.44115 0.8234 0.4431 0.0
C252 C 0.44831 0.80188 0.50386 0.0
C253 C 0.42444 0.82409 0.49644 0.0
C254 C 0.4216 0.83505 0.46592 0.0
C255 C 0.467 0.80545 0.45077 0.0
C256 C 0.47104 0.7943 0.48101 0.0
H257 H 0.40319 0.85208 0.46094 0.0
H258 H 0.4832 0.79764 0.43266 0.0
H259 H 0.44178 0.89044 0.43861 0.0
H260 H 0.52329 0.91102 0.38558 0.0
H261 H 0.37459 0.72699 0.42479 0.0
H262 H 0.40672 0.83135 0.5134 0.0
H263 H 0.49057 0.77819 0.4859 0.0
C264 C 0.39585 0.97902 0.90301 0.0
C265 C 0.42378 0.98933 0.91693 0.0
N266 N 0.43339 0.967 0.93743 0.0
N267 N 0.38773 0.95028 0.91463 0.0
C268 C 0.41129 0.94362 0.93518 0.0
H269 H 0.38152 0.9926 0.88693 0.0
Co270 Co 0.34877 0.92709 0.91235 0.0
C271 C 0.37261 0.85777 0.91121 0.0
O272 O 0.34479 0.84446 0.91609 0.0
N273 N 0.30961 0.90423 0.91053 0.0
C274 C 0.26387 0.88237 0.92566 0.0
C275 C 0.28545 0.90634 0.93125 0.0
C276 C 0.30041 0.88069 0.89079 0.0
N277 N 0.27354 0.86587 0.90045 0.0
O278 O 0.3469 0.93092 0.86756 0.0
H279 H 0.28466 0.92268 0.95074 0.0
H280 H 0.31526 0.87192 0.87197 0.0
O281 O 0.37511 0.88814 0.9099 0.0
C282 C 0.3283 0.95439 0.86206 0.0
O283 O 0.31926 0.97226 0.88567 0.0
N284 N 0.34778 0.92611 0.95602 0.0
C285 C 0.32853 0.93325 0.01758 0.0
C286 C 0.3356 0.90286 1.00549 0.0
C287 C 0.34553 0.89981 0.97454 0.0
C288 C 0.34417 0.95587 0.96836 0.0
C289 C 0.33559 0.96001 0.99935 0.0
H290 H 0.34805 0.87624 0.96501 0.0
H291 H 0.34575 0.97656 0.95346 0.0
H292 H 0.41056 0.92315 0.95039 0.0
H293 H 0.43539 0.012 0.913 0.0
H294 H 0.24409 0.8758 0.94057 0.0
H295 H 0.33036 0.88146 0.01857 0.0
H296 H 0.33121 0.98394 1.00792 0.0
C297 C 0.51684 0.36758 0.88873 0.0
C298 C 0.50052 0.39321 0.90108 0.0
N299 N 0.52027 0.41001 0.91964 0.0
N300 N 0.5471 0.36779 0.89907 0.0
C301 C 0.54844 0.39416 0.91772 0.0
H302 H 0.50651 0.34904 0.87454 0.0
Co303 Co 0.57668 0.33335 0.89498 0.0
C304 C 0.62169 0.38845 0.88549 0.0
O305 O 0.60357 0.40427 0.86603 0.0
N306 N 0.60683 0.29948 0.89222 0.0
C307 C 0.63773 0.25872 0.87747 0.0
C308 C 0.60886 0.27381 0.87316 0.0
C309 C 0.63417 0.29832 0.90882 0.0
N310 N 0.65359 0.2743 0.89995 0.0
O311 O 0.57553 0.33517 0.84938 0.0
H312 H 0.5911 0.26646 0.85663 0.0
H313 H 0.6403 0.31552 0.92654 0.0
O314 O 0.61219 0.36219 0.89701 0.0
C315 C 0.55611 0.31445 0.83837 0.0
O316 O 0.53732 0.29969 0.85818 0.0
N317 N 0.57601 0.32849 0.93793 0.0
C318 C 0.57664 0.30726 0.99951 0.0
C319 C 0.5906 0.33666 0.99116 0.0
C320 C 0.59089 0.34638 0.96009 0.0
C321 C 0.55975 0.30174 0.94582 0.0
C322 C 0.56025 0.29034 0.97613 0.0
H323 H 0.60405 0.36755 0.95389 0.0
H324 H 0.5481 0.28795 0.92784 0.0
H325 H 0.56944 0.40125 0.93037 0.0
H326 H 0.4754 0.39788 0.89784 0.0
H327 H 0.64654 0.23816 0.86479 0.0
H328 H 0.6025 0.35165 1.00797 0.0
H329 H 0.54942 0.26737 0.98013 0.0
C330 C 0.1136 0.51687 0.90059 0.0
C331 C 0.08703 0.50118 0.91154 0.0
N332 N 0.07434 0.51814 0.93524 0.0
N333 N 0.11802 0.54389 0.91708 0.0
C334 C 0.09318 0.54428 0.93757 0.0
H335 H 0.12969 0.50791 0.88296 0.0
Co336 Co 0.15569 0.56918 0.91683 0.0
C337 C 0.13604 0.63457 0.93086 0.0
O338 O 0.16007 0.63588 0.95037 0.0
N339 N 0.19372 0.59465 0.91623 0.0
C340 C 0.23784 0.6209 0.92944 0.0
C341 C 0.21964 0.59412 0.93481 0.0
C342 C 0.19809 0.62104 0.8984 0.0
N343 N 0.22391 0.6382 0.9069 0.0
O344 O 0.15782 0.56898 0.87176 0.0
H345 H 0.22449 0.5766 0.95248 0.0
H346 H 0.18065 0.62934 0.88177 0.0
O347 O 0.12961 0.60845 0.91674 0.0
C348 C 0.17886 0.54801 0.86483 0.0
O349 O 0.19009 0.5301 0.88731 0.0
N350 N 0.1569 0.56573 0.96056 0.0
C351 C 0.17784 0.55835 0.02125 0.0
C352 C 0.15298 0.57966 1.01452 0.0
C353 C 0.1423 0.58256 0.98388 0.0
C354 C 0.17649 0.54097 0.96779 0.0
C355 C 0.18768 0.53704 0.99795 0.0
H356 H 0.1236 0.59946 0.97903 0.0
H357 H 0.18618 0.52627 0.94935 0.0
H358 H 0.09004 0.56219 0.95536 0.0
H359 H 0.07862 0.47821 0.90351 0.0
H360 H 0.25888 0.62784 0.94228 0.0
H361 H 0.14364 0.59558 0.03222 0.0
H362 H 0.20646 0.51982 1.00193 0.0
C363 C 0.01233 0.15592 0.9164 0.0
C364 C 0.02704 0.12974 0.92935 0.0
N365 N 1.00521 0.11295 0.94552 0.0
N366 N 0.98125 0.15591 0.92432 0.0
C367 C 0.9775 0.12884 0.94131 0.0
H368 H 0.02438 0.17545 0.90502 0.0
Co369 Co 0.95545 0.19277 0.92492 0.0
C370 C 0.8925 0.17005 0.94671 0.0
O371 O 0.89085 0.19445 0.96594 0.0
N372 N 0.92938 0.2302 0.92544 0.0
C373 C 0.90602 0.27587 0.93913 0.0
C374 C 0.93378 0.25846 0.94004 0.0
C375 C 0.89956 0.23259 0.91349 0.0
N376 N 0.88426 0.25924 0.92294 0.0
O377 O 0.95038 0.19232 0.88032 0.0
H378 H 0.955 0.26578 0.95213 0.0
H379 H 0.88793 0.21345 0.90097 0.0
O380 O 0.91734 0.16588 0.92983 0.0
C381 C 0.96966 0.21161 0.86704 0.0
O382 O 0.99264 0.22415 0.88376 0.0
N383 N 0.96305 0.19577 0.96812 0.0
C384 C 0.9734 0.21546 0.02917 0.0
C385 C 0.95586 0.18759 0.02285 0.0
C386 C 0.95078 0.17822 0.99207 0.0
C387 C 0.98566 0.21813 0.9742 0.0
C388 C 0.99044 0.22923 1.0044 0.0
H389 H 0.93585 0.1578 0.98789 0.0
H390 H 0.99779 0.22968 0.95504 0.0
H391 H 0.95576 0.12274 0.95341 0.0
H392 H 0.05241 0.12506 0.9292 0.0
H393 H 0.90149 0.29806 0.95133 0.0
H394 H 0.94431 0.17429 0.04123 0.0
H395 H 1.0052 0.25011 1.00745 0.0
C396 C 0.37126 0.51919 0.62121 0.0
C397 C 0.39851 0.51014 0.60534 0.0
N398 N 0.41337 0.53656 0.59488 0.0
N399 N 0.36884 0.55126 0.62111 0.0
C400 C 0.39518 0.56104 0.60542 0.0
H401 H 0.35304 0.50321 0.62972 0.0
Co402 Co 0.3316 0.57556 0.62884 0.0
C403 C 0.35255 0.64261 0.61925 0.0
O404 O 0.32592 0.64906 0.60456 0.0
N405 N 0.29411 0.59989 0.63671 0.0
C406 C 0.24516 0.62062 0.63699 0.0
C407 C 0.26406 0.59611 0.62608 0.0
C408 C 0.29215 0.62583 0.65551 0.0
N409 N 0.26311 0.63962 0.65508 0.0
O410 O 0.33523 0.57083 0.67323 0.0
H411 H 0.25612 0.57734 0.61078 0.0
H412 H 0.3122 0.63551 0.66817 0.0
O413 O 0.35789 0.6145 0.62943 0.0
C414 C 0.31659 0.54788 0.68038 0.0
O415 O 0.3049 0.53042 0.65771 0.0
N416 N 0.32518 0.57701 0.58561 0.0
C417 C 0.30439 0.57368 0.52414 0.0
C418 C 0.3303 0.59319 0.53235 0.0
C419 C 0.34047 0.59438 0.56326 0.0
C420 C 0.30343 0.5546 0.57714 0.0
C421 C 0.29205 0.55303 0.54682 0.0
H422 H 0.36026 0.60953 0.56888 0.0
H423 H 0.29348 0.53896 0.59461 0.0
H424 H 0.39983 0.58567 0.59991 0.0
H425 H 0.40523 0.48587 0.59972 0.0
H426 H 0.22068 0.62522 0.6305 0.0
H427 H 0.34185 0.60835 0.51537 0.0
H428 H 0.27234 0.53717 0.54202 0.0
C429 C 0.00732 0.39988 0.62236 0.0
C430 C 0.01827 0.42547 0.60481 0.0
N431 N 0.99649 0.43202 0.58271 0.0
N432 N 0.97867 0.39054 0.61147 0.0
C433 C 0.97278 0.41091 0.58778 0.0
H434 H 0.02025 0.38788 0.64064 0.0
Co435 Co 0.95269 0.35437 0.61898 0.0
C436 C 0.90105 0.40098 0.63385 0.0
O437 O 0.90744 0.40253 0.66369 0.0
N438 N 0.92646 0.31893 0.62525 0.0
C439 C 0.90938 0.26883 0.62292 0.0
C440 C 0.93552 0.2885 0.6202 0.0
C441 C 0.89489 0.31717 0.63163 0.0
N442 N 0.88386 0.28695 0.63011 0.0
O443 O 0.95462 0.35931 0.66335 0.0
H444 H 0.95935 0.2813 0.61357 0.0
H445 H 0.87979 0.33769 0.63557 0.0
O446 O 0.91653 0.38222 0.61604 0.0
C447 C 0.97424 0.34038 0.67645 0.0
O448 O 0.99643 0.32697 0.65918 0.0
N449 N 0.95161 0.34626 0.57639 0.0
C450 C 0.95138 0.31829 0.5178 0.0
C451 C 0.92405 0.33365 0.52932 0.0
C452 C 0.92452 0.34721 0.55892 0.0
C453 C 0.97907 0.33371 0.56464 0.0
C454 C 0.97951 0.31954 0.53526 0.0
H455 H 0.90244 0.35618 0.5685 0.0
H456 H 1.0001 0.3327 0.5791 0.0
H457 H 0.95194 0.40917 0.57325 0.0
H458 H 0.04126 0.43694 0.60693 0.0
H459 H 0.90897 0.2433 0.61909 0.0
H460 H 0.90167 0.33257 0.51687 0.0
H461 H 1.001 0.30776 0.52719 0.0
C462 C 0.13749 0.99841 0.6301 0.0
C463 C 0.11299 0.01474 0.61599 0.0
N464 N 0.10088 0.99647 0.59301 0.0
N465 N 0.1411 0.96975 0.61626 0.0
C466 C 0.11809 0.96914 0.59399 0.0
H467 H 0.15256 1.00761 0.64835 0.0
Co468 Co 0.17481 0.94028 0.62229 0.0
C469 C 0.14354 0.87577 0.61927 0.0
O470 O 0.16974 0.86171 0.60969 0.0
N471 N 0.20857 0.91086 0.62829 0.0
C472 C 0.24905 0.87742 0.62088 0.0
C473 C 0.23413 0.90453 0.61017 0.0
C474 C 0.20984 0.88852 0.65094 0.0
N475 N 0.23321 0.86679 0.64617 0.0
O476 O 0.17305 0.94528 0.66712 0.0
H477 H 0.24034 0.91722 0.58918 0.0
H478 H 0.19162 0.88629 0.66865 0.0
O479 O 0.14264 0.906 0.62335 0.0
C480 C 0.19572 0.96414 0.67465 0.0
O481 O 0.21107 0.97902 0.65231 0.0
N482 N 0.18009 0.93817 0.57906 0.0
C483 C 0.20529 0.94011 0.51913 0.0
C484 C 0.18414 0.91572 0.52788 0.0
C485 C 0.17146 0.91534 0.55802 0.0
C486 C 0.19787 0.96366 0.56992 0.0
C487 C 0.2106 0.96522 0.54004 0.0
H488 H 0.15589 0.8961 0.56428 0.0
H489 H 0.20386 0.98195 0.58669 0.0
H490 H 0.11531 0.94981 0.5775 0.0
H491 H 0.10535 0.03873 0.62166 0.0
H492 H 0.26816 0.86492 0.60906 0.0
H493 H 0.17906 0.89595 0.51242 0.0
H494 H 0.22603 0.98498 0.53404 0.0
C495 C 0.53358 0.11076 0.61056 0.0
C496 C 0.51677 0.08661 0.59542 0.0
N497 N 0.52956 0.08243 0.56685 0.0
N498 N 0.55699 0.12137 0.5916 0.0
C499 C 0.55374 0.10353 0.56558 0.0
H500 H 0.52853 0.12018 0.63348 0.0
Co501 Co 0.58978 0.1519 0.58934 0.0
C502 C 0.62942 0.10025 0.60561 0.0
O503 O 0.61859 0.08677 0.58017 0.0
N504 N 0.62379 0.18064 0.5841 0.0
C505 C 0.66611 0.2017 0.56063 0.0
C506 C 0.63817 0.18557 0.55639 0.0
C507 C 0.64403 0.19386 0.60509 0.0
N508 N 0.67016 0.20658 0.59126 0.0
O509 O 0.57665 0.17645 0.62645 0.0
H510 H 0.63069 0.17576 0.53446 0.0
H511 H 0.64113 0.19168 0.63003 0.0
O512 O 0.61731 0.12652 0.61462 0.0
C513 C 0.5744 0.17132 0.65569 0.0
O514 O 0.57856 0.14232 0.66642 0.0
N515 N 0.56339 0.17679 0.56354 0.0
C516 C 0.53317 0.21706 0.52113 0.0
C517 C 0.55373 0.19268 0.51092 0.0
C518 C 0.56787 0.17241 0.53244 0.0
C519 C 0.54061 0.19762 0.57381 0.0
C520 C 0.52499 0.21775 0.55292 0.0
H521 H 0.584 0.15415 0.52421 0.0
H522 H 0.53467 0.19955 0.59817 0.0
H523 H 0.56945 0.10584 0.54575 0.0
H524 H 0.49624 0.07394 0.60435 0.0
H525 H 0.68312 0.20775 0.54259 0.0
H526 H 0.56089 0.19032 0.48685 0.0
H527 H 0.50783 0.23468 0.56198 0.0
H528 H 0.7245 0.01006 0.20864 0.0
H529 H 0.70787 0.11132 0.19676 0.0
H530 H 0.74112 0.12247 0.24316 0.0
H531 H 0.722 0.01108 0.29404 0.0
H532 H 0.75219 0.98065 0.29707 0.0
H533 H 0.72617 0.98142 0.26385 0.0
H534 H 0.77555 0.98291 0.22754 0.0
H535 H 0.80171 0.98294 0.26065 0.0
H536 H 0.80455 0.01427 0.23215 0.0
H537 H 0.78068 0.12213 0.28911 0.0
H538 H 0.81466 0.11013 0.33467 0.0
H539 H 0.80266 0.00894 0.31742 0.0
C540 C 0.7273 0.03457 0.21617 0.0
C541 C 0.71339 0.05982 0.19916 0.0
C542 C 0.71784 0.09156 0.20967 0.0
C543 C 0.73702 0.09811 0.23582 0.0
C544 C 0.75121 0.07263 0.25151 0.0
C545 C 0.74586 0.04144 0.24244 0.0
C546 C 0.76325 0.01819 0.26336 0.0
C547 C 0.73949 0.99657 0.28061 0.0
C548 C 0.78771 0.99842 0.24481 0.0
C549 C 0.77963 0.04106 0.28549 0.0
C550 C 0.7728 0.07241 0.27813 0.0
C551 C 0.78591 0.09764 0.29511 0.0
C552 C 0.80553 0.0906 0.32078 0.0
C553 C 0.81155 0.05859 0.32955 0.0
C554 C 0.79869 0.03366 0.31125 0.0
H555 H 0.43346 0.74499 0.34055 0.0
H556 H 0.46965 0.82154 0.2832 0.0
H557 H 0.46767 0.7857 0.23685 0.0
H558 H 0.47717 0.68359 0.30646 0.0
H559 H 0.44611 0.6541 0.3097 0.0
H560 H 0.44764 0.68676 0.33687 0.0
H561 H 0.39 0.70225 0.32297 0.0
H562 H 0.3878 0.66984 0.29551 0.0
H563 H 0.37955 0.71002 0.28303 0.0
H564 H 0.46638 0.73738 0.19746 0.0
H565 H 0.4619 0.68516 0.17009 0.0
H566 H 0.42495 0.64279 0.25464 0.0
C567 C 0.44008 0.75451 0.31804 0.0
C568 C 0.45109 0.78619 0.31525 0.0
C569 C 0.46043 0.79756 0.28563 0.0
C570 C 0.45961 0.77722 0.25929 0.0
C571 C 0.44925 0.74568 0.26303 0.0
C572 C 0.43922 0.73473 0.29177 0.0
C573 C 0.43025 0.69981 0.29053 0.0
C574 C 0.45157 0.67991 0.31217 0.0
C575 C 0.39478 0.69523 0.29845 0.0
C576 C 0.43704 0.69241 0.2567 0.0
C577 C 0.44808 0.71892 0.24096 0.0
C578 C 0.45717 0.71677 0.20962 0.0
C579 C 0.45448 0.68703 0.19414 0.0
C580 C 0.44247 0.65988 0.20988 0.0
C581 C 0.43401 0.66295 0.24164 0.0
H582 H 0.6998 0.50422 0.32825 0.0
H583 H 0.73189 0.41594 0.37003 0.0
H584 H 0.77227 0.40974 0.32827 0.0
H585 H 0.70658 0.47539 0.24875 0.0
H586 H 0.71841 0.5137 0.2337 0.0
H587 H 0.69344 0.51149 0.26775 0.0
H588 H 0.73435 0.54587 0.29795 0.0
H589 H 0.75978 0.54754 0.26414 0.0
H590 H 0.77519 0.53275 0.30044 0.0
H591 H 0.81199 0.41553 0.2831 0.0
H592 H 0.83868 0.42558 0.23266 0.0
H593 H 0.77634 0.50667 0.21757 0.0
C594 C 0.71521 0.48348 0.32844 0.0
C595 C 0.71278 0.4606 0.35242 0.0
C596 C 0.73317 0.43364 0.35177 0.0
C597 C 0.75643 0.43012 0.32831 0.0
C598 C 0.75862 0.45344 0.30528 0.0
C599 C 0.73791 0.47911 0.30469 0.0
C600 C 0.74354 0.49948 0.27608 0.0
C601 C 0.71373 0.50003 0.25534 0.0
C602 C 0.75383 0.53342 0.28521 0.0
C603 C 0.7707 0.48138 0.26069 0.0
C604 C 0.77963 0.45534 0.27824 0.0
C605 C 0.8047 0.43552 0.26892 0.0
C606 C 0.81981 0.44147 0.24019 0.0
C607 C 0.80906 0.46631 0.22049 0.0
C608 C 0.78499 0.48718 0.2317 0.0
H609 H 0.01069 0.72268 0.30447 0.0
H610 H 0.11105 0.70158 0.31646 0.0
H611 H 0.12382 0.73494 0.27066 0.0
H612 H 0.01248 0.72166 0.21843 0.0
H613 H 0.98326 0.75308 0.216 0.0
H614 H 0.98268 0.726 0.24845 0.0
H615 H 0.98548 0.77425 0.28613 0.0
H616 H 0.98699 0.80144 0.25382 0.0
H617 H 0.01798 0.80215 0.28274 0.0
H618 H 0.12554 0.77634 0.22664 0.0
H619 H 0.11545 0.81299 0.18258 0.0
H620 H 0.01371 0.80358 0.19773 0.0
C621 C 0.03531 0.72438 0.297 0.0
C622 C 0.05989 0.70967 0.31424 0.0
C623 C 0.09179 0.71257 0.30371 0.0
C624 C 0.09928 0.7317 0.2778 0.0
C625 C 0.07451 0.74715 0.26224 0.0
C626 C 0.04308 0.74281 0.27094 0.0
C627 C 0.02074 0.7617 0.25036 0.0
C628 C 0.99848 0.73927 0.23223 0.0
C629 C 1.00168 0.78634 0.26941 0.0
C630 C 0.04446 0.77785 0.22897 0.0
C631 C 0.07541 0.76957 0.2364 0.0
C632 C 0.10136 0.78262 0.22047 0.0
C633 C 0.09543 0.80375 0.19573 0.0
C634 C 0.0638 0.81125 0.18688 0.0
C635 C 0.03813 0.79833 0.20403 0.0
H636 H 0.30336 0.91066 0.81971 0.0
H637 H 0.31633 0.01179 0.83701 0.0
H638 H 0.28052 0.02437 0.7935 0.0
H639 H 0.29835 0.91695 0.73338 0.0
H640 H 0.26826 0.88644 0.73044 0.0
H641 H 0.2969 0.88519 0.76155 0.0
H642 H 0.25067 0.88347 0.80146 0.0
H643 H 0.22189 0.88552 0.77051 0.0
H644 H 0.22108 0.91466 0.80141 0.0
H645 H 0.24167 0.02682 0.75061 0.0
H646 H 0.20697 0.01898 0.70506 0.0
H647 H 0.21678 0.91651 0.71424 0.0
C648 C 0.29947 0.93538 0.81355 0.0
C649 C 0.31309 0.96033 0.83148 0.0
C650 C 0.3065 0.99237 0.8234 0.0
C651 C 0.28595 0.99976 0.79887 0.0
C652 C 0.27187 0.97485 0.78249 0.0
C653 C 0.27868 0.94328 0.78894 0.0
C654 C 0.25968 0.92136 0.76756 0.0
C655 C 0.28214 0.9013 0.74701 0.0
C656 C 0.23698 0.89999 0.78637 0.0
C657 C 0.24121 0.94562 0.74832 0.0
C658 C 0.24861 0.97629 0.75765 0.0
C659 C 0.23558 1.00293 0.74314 0.0
C660 C 0.21559 0.99826 0.7175 0.0
C661 C 0.20844 0.96723 0.70661 0.0
C662 C 0.22088 0.94049 0.7227 0.0
H663 H 0.53996 0.25437 0.82013 0.0
H664 H 0.58165 0.34165 0.78467 0.0
H665 H 0.58832 0.31568 0.73287 0.0
H666 H 0.59396 0.20228 0.78119 0.0
H667 H 0.56463 0.17151 0.7751 0.0
H668 H 0.56104 0.19806 0.8079 0.0
H669 H 0.50423 0.21383 0.79021 0.0
H670 H 0.50764 0.18739 0.75728 0.0
H671 H 0.49828 0.22891 0.75143 0.0
H672 H 0.58932 0.27862 0.68402 0.0
H673 H 0.59011 0.23421 0.6459 0.0
H674 H 0.55207 0.17051 0.71606 0.0
C675 C 0.55009 0.26839 0.80144 0.0
C676 C 0.55973 0.30043 0.80646 0.0
C677 C 0.57376 0.31729 0.78142 0.0
C678 C 0.57759 0.30265 0.75191 0.0
C679 C 0.56784 0.27092 0.74795 0.0
C680 C 0.55479 0.25397 0.77234 0.0
C681 C 0.54824 0.2196 0.76323 0.0
C682 C 0.56816 0.19651 0.78302 0.0
C683 C 0.51247 0.212 0.76568 0.0
C684 C 0.55933 0.21961 0.72965 0.0
C685 C 0.57016 0.24949 0.72101 0.0
C686 C 0.58102 0.2552 0.69078 0.0
C687 C 0.58122 0.22979 0.66918 0.0
C688 C 0.57119 0.19872 0.67788 0.0
C689 C 0.56 0.19385 0.70859 0.0
H690 H 0.29288 0.59406 0.72084 0.0
H691 H 0.30497 0.49205 0.70851 0.0
H692 H 0.26802 0.48215 0.75199 0.0
H693 H 0.28545 0.59186 0.80784 0.0
H694 H 0.25581 0.623 0.8086 0.0
H695 H 0.2856 0.62232 0.77831 0.0
H696 H 0.24084 0.62311 0.73703 0.0
H697 H 0.21093 0.62294 0.76721 0.0
H698 H 0.21075 0.59246 0.73756 0.0
H699 H 0.22676 0.48231 0.79248 0.0
H700 H 0.18994 0.49242 0.83605 0.0
H701 H 0.20321 0.59436 0.82498 0.0
C702 C 0.28872 0.56975 0.72824 0.0
C703 C 0.30229 0.54373 0.71165 0.0
C704 C 0.29528 0.51224 0.7212 0.0
C705 C 0.27402 0.50638 0.74566 0.0
C706 C 0.25982 0.53229 0.76052 0.0
C707 C 0.26734 0.5634 0.7529 0.0
C708 C 0.24796 0.58661 0.77279 0.0
C709 C 0.27002 0.60716 0.79309 0.0
C710 C 0.22635 0.60751 0.75243 0.0
C711 C 0.22839 0.56355 0.7925 0.0
C712 C 0.23555 0.53239 0.78453 0.0
C713 C 0.22106 0.50658 0.7991 0.0
C714 C 0.1999 0.51257 0.82363 0.0
C715 C 0.19327 0.54408 0.83356 0.0
C716 C 0.2071 0.57004 0.81728 0.0
H717 H 0.01304 0.23375 0.8251 0.0
H718 H 0.9114 0.22387 0.84039 0.0
H719 H 0.90111 0.2582 0.79456 0.0
H720 H 0.01352 0.31396 0.80266 0.0
H721 H 0.04366 0.30956 0.77298 0.0
H722 H 0.043 0.28281 0.80567 0.0
H723 H 0.04001 0.23404 0.76864 0.0
H724 H 0.04154 0.2606 0.73581 0.0
H725 H 0.00928 0.23248 0.73947 0.0
H726 H 0.9027 0.29838 0.74928 0.0
H727 H 0.91552 0.33234 0.70383 0.0
H728 H 0.01609 0.31333 0.71724 0.0
C729 C 0.98859 0.23818 0.81835 0.0
C730 C 0.96301 0.22591 0.83615 0.0
C731 C 0.93136 0.23252 0.82677 0.0
C732 C 0.92533 0.25234 0.80099 0.0
C733 C 0.9512 0.26497 0.78456 0.0
C734 C 0.9822 0.2574 0.79247 0.0
C735 C 1.0059 0.27358 0.771 0.0
C736 C 0.0278 0.29632 0.78918 0.0
C737 C 0.02532 0.24869 0.75263 0.0
C738 C 0.98354 0.29188 0.74996 0.0
C739 C 0.95207 0.287 0.75831 0.0
C740 C 0.92727 0.30211 0.74249 0.0
C741 C 0.9348 0.32172 0.71692 0.0
C742 C 0.96684 0.32577 0.70712 0.0
C743 C 0.9914 0.31092 0.72428 0.0
H744 H 0.46359 0.0206 0.96029 0.0
H745 H 0.46257 0.91718 0.96594 0.0
H746 H 0.50339 0.91924 1.00674 0.0
H747 H 0.5497 0.02925 0.97177 0.0
H748 H 0.54591 0.06516 0.99464 0.0
H749 H 0.51661 0.05589 0.96542 0.0
H750 H 0.47196 0.06001 1.00692 0.0
H751 H 0.50113 0.06909 0.03629 0.0
H752 H 0.47431 0.03595 0.04154 0.0
H753 H 0.543 0.93193 0.04811 0.0
H754 H 0.58134 0.95415 0.08531 0.0
H755 H 0.55909 0.04976 0.05335 0.0
C756 C 0.47219 0.99834 0.96976 0.0
C757 C 0.45928 0.96866 0.95982 0.0
C758 C 0.47131 0.94025 0.9733 0.0
C759 C 0.49474 0.94115 0.9965 0.0
C760 C 0.50642 0.97066 1.00611 0.0
C761 C 0.49586 0.99877 0.99302 0.0
C762 C 0.51265 0.02725 1.0078 0.0
C763 C 0.53239 0.04546 0.98346 0.0
C764 C 0.48857 0.04938 0.02411 0.0
C765 C 0.53409 0.01067 0.0313 0.0
C766 C 0.5299 0.97802 0.02988 0.0
C767 C 0.54649 0.95747 0.0494 0.0
C768 C 0.56812 0.97046 0.07078 0.0
C769 C 0.57334 1.00386 0.07274 0.0
C770 C 0.55592 0.02416 0.05251 0.0
H771 H 0.55072 0.43279 0.97238 0.0
H772 H 0.4698 0.44996 0.91188 0.0
H773 H 0.45179 0.49308 0.9464 0.0
H774 H 0.5107 0.448 0.0447 0.0
H775 H 0.54364 0.4685 0.06265 0.0
H776 H 0.55101 0.43878 0.03313 0.0
H777 H 0.58309 0.47983 1.00093 0.0
H778 H 0.57599 0.50963 0.03044 0.0
H779 H 0.56487 0.5173 0.9907 0.0
H780 H 0.44059 0.5331 0.98824 0.0
H781 H 0.4392 0.57009 0.03275 0.0
H782 H 0.52807 0.53038 0.06652 0.0
C783 C 0.52943 0.4458 0.9661 0.0
C784 C 0.51156 0.43721 0.93922 0.0
C785 C 0.48372 0.45514 0.93239 0.0
C786 C 0.47329 0.47999 0.95188 0.0
C787 C 0.49096 0.48733 0.97831 0.0
C788 C 0.51867 0.47111 0.98534 0.0
C789 C 0.53314 0.48429 0.01527 0.0
C790 C 0.53471 0.45834 0.04042 0.0
C791 C 0.56624 0.49862 1.00895 0.0
C792 C 0.50907 0.51018 0.02396 0.0
C793 C 0.48488 0.51126 1.00228 0.0
C794 C 0.45947 0.5325 1.00531 0.0
C795 C 0.45873 0.55333 0.03096 0.0
C796 C 0.48332 0.55322 0.05353 0.0
C797 C 0.50893 0.53125 0.04974 0.0
H798 H 0.03325 0.55461 0.97063 0.0
H799 H 0.06045 0.45684 0.95022 0.0
H800 H 0.02049 0.43756 0.98757 0.0
H801 H 0.01898 0.54328 0.05317 0.0
H802 H 0.98484 0.56936 0.05475 0.0
H803 H 0.01574 0.57606 0.0263 0.0
H804 H 0.97397 0.57351 0.9822 0.0
H805 H 0.94293 0.56691 1.01052 0.0
H806 H 0.94851 0.53904 0.97896 0.0
H807 H 0.97873 0.42825 0.02809 0.0
H808 H 0.93594 0.42929 0.06693 0.0
H809 H 0.93289 0.53283 0.06101 0.0
C810 C 0.0308 0.52917 0.97406 0.0
C811 C 0.05007 0.50733 0.95703 0.0
C812 C 0.04582 0.47418 0.96228 0.0
C813 C 0.02326 0.46292 0.98376 0.0
C814 C 1.00471 0.48494 1.00003 0.0
C815 C 0.008 0.51737 0.99538 0.0
C816 C 0.98443 0.5357 0.01573 0.0
C817 C 1.00205 0.55738 0.03886 0.0
C818 C 0.96107 0.55492 0.99565 0.0
C819 C 0.96753 0.50846 0.03245 0.0
C820 C 0.97987 0.47946 0.0231 0.0
C821 C 0.96865 0.45085 0.03537 0.0
C822 C 0.94397 0.45176 0.0575 0.0
C823 C 0.93011 0.48108 0.06726 0.0
C824 C 0.94253 0.50985 0.05446 0.0
H825 H 0.97027 0.06022 0.96143 0.0
H826 H 0.05507 0.11389 0.98517 0.0
H827 H 0.06644 0.07631 0.02772 0.0
H828 H 0.94768 0.03799 0.04044 0.0
H829 H 0.93513 0.9983 0.02993 0.0
H830 H 0.93249 0.03017 1.00199 0.0
H831 H 0.96664 0.99753 0.96298 0.0
H832 H 0.96908 0.96548 0.99067 0.0
H833 H 1.00502 0.98265 0.97491 0.0
H834 H 0.06875 0.03328 0.0681 0.0
H835 H 0.0651 0.98471 0.09986 0.0
H836 H 0.98056 0.95621 0.04876 0.0
C837 C 0.99115 0.06398 0.97568 0.0
C838 C 0.0119 0.08996 0.96977 0.0
C839 C 0.03911 0.09398 0.98886 0.0
C840 C 0.04561 0.0729 1.01333 0.0
C841 C 0.02483 0.04755 0.01853 0.0
C842 C 0.99834 0.0427 1.00006 0.0
C843 C 0.98094 0.01247 1.00978 0.0
C844 C 0.94705 0.0202 0.02121 0.0
C845 C 0.9804 0.98809 0.98299 0.0
C846 C 1.00189 1.0011 0.03641 0.0
C847 C 0.02678 0.022 0.04129 0.0
C848 C 0.04944 0.01662 0.06433 0.0
C849 C 0.0472 0.98875 0.08228 0.0
C850 C 0.02274 0.96601 0.07698 0.0
C851 C 0.99942 0.9729 0.05398 0.0
H852 H 0.45866 0.491 0.58256 0.0
H853 H 0.42683 0.58531 0.55469 0.0
H854 H 0.46866 0.58684 0.51466 0.0
H855 H 0.54316 0.50468 0.57063 0.0
H856 H 0.55057 0.46513 0.55571 0.0
H857 H 0.51865 0.47177 0.5831 0.0
H858 H 0.47883 0.44638 0.54444 0.0
H859 H 0.51055 0.43999 0.51678 0.0
H860 H 0.47566 0.46224 0.50563 0.0
H861 H 0.51292 0.57727 0.4754 0.0
H862 H 0.55763 0.55825 0.4425 0.0
H863 H 0.56048 0.47022 0.49522 0.0
C864 C 0.46041 0.51202 0.56811 0.0
C865 C 0.43921 0.53808 0.57229 0.0
C866 C 0.4428 0.56516 0.55275 0.0
C867 C 0.46647 0.56619 0.52957 0.0
C868 C 0.48663 0.54001 0.52594 0.0
C869 C 0.48397 0.51347 0.54478 0.0
C870 C 0.50859 0.48843 0.53588 0.0
C871 C 0.53161 0.48215 0.56294 0.0
C872 C 0.49243 0.45743 0.52505 0.0
C873 C 0.52538 0.50499 0.50907 0.0
C874 C 0.51228 0.53467 0.5036 0.0
C875 C 0.52343 0.55411 0.4796 0.0
C876 C 0.54874 0.54305 0.46088 0.0
C877 C 0.56288 0.51287 0.46627 0.0
C878 C 0.55076 0.49366 0.49073 0.0
H879 H 0.02817 0.48944 0.5789 0.0
H880 H 0.97144 0.42244 0.52541 0.0
H881 H 0.97365 0.45813 0.48038 0.0
H882 H 0.99273 0.56067 0.54754 0.0
H883 H 0.02931 0.58315 0.54618 0.0
H884 H 0.02428 0.55207 0.57463 0.0
H885 H 0.07581 0.52466 0.55483 0.0
H886 H 0.08098 0.55566 0.52628 0.0
H887 H 0.07954 0.51449 0.51421 0.0
H888 H 0.98059 0.50072 0.44112 0.0
H889 H 0.99149 0.54861 0.40987 0.0
H890 H 0.04412 0.58971 0.48689 0.0
C891 C 0.01648 0.48223 0.55762 0.0
C892 C 0.99927 0.45311 0.55608 0.0
C893 C 0.98415 0.44475 0.52771 0.0
C894 C 0.9855 0.46481 0.50175 0.0
C895 C 1.00222 0.49335 0.50409 0.0
C896 C 0.01752 0.5022 0.53119 0.0
C897 C 0.0332 0.53475 0.52726 0.0
C898 C 0.01902 0.5591 0.55027 0.0
C899 C 0.06954 0.53223 0.53086 0.0
C900 C 0.02411 0.54269 0.49386 0.0
C901 C 1.00632 0.51829 0.48106 0.0
C902 C 0.99451 0.52 0.45088 0.0
C903 C 1.0007 0.54745 0.43331 0.0
C904 C 0.01855 0.57314 0.44577 0.0
C905 C 0.0307 0.57044 0.47648 0.0
H906 H 0.95503 0.97905 0.47367 0.0
H907 H 0.96466 0.0808 0.45695 0.0
H908 H 0.01005 0.08257 0.49289 0.0
H909 H 0.97407 0.98048 0.55433 0.0
H910 H 0.99659 0.94384 0.55382 0.0
H911 H 0.96513 0.94994 0.52607 0.0
H912 H 1.00472 0.93931 0.48091 0.0
H913 H 0.03623 0.93306 0.50863 0.0
H914 H 0.04086 0.96241 0.47837 0.0
H915 H 0.05301 0.07435 0.53232 0.0
H916 H 0.09217 0.05628 0.57094 0.0
H917 H 0.05724 0.95933 0.56188 0.0
C918 C 0.96685 1.00169 0.47706 0.0
C919 C 0.95564 0.02989 0.46226 0.0
C920 C 0.97202 0.05891 0.46807 0.0
C921 C 0.99812 0.06015 0.48844 0.0
C922 C 0.0081 0.03215 0.50287 0.0
C923 C 0.99322 1.00335 0.49728 0.0
C924 C 0.00875 0.97685 0.51621 0.0
C925 C 0.9847 0.96191 0.53896 0.0
C926 C 0.02352 0.9514 0.49475 0.0
C927 C 0.03443 0.99537 0.53351 0.0
C928 C 0.03346 0.02725 0.5254 0.0
C929 C 0.05403 0.04943 0.53874 0.0
C930 C 0.07612 0.03892 0.56092 0.0
C931 C 0.07786 1.00638 0.56977 0.0
C932 C 0.05675 0.9843 0.55554 0.0
H933 H 0.47651 0.91998 0.48097 0.0
H934 H 0.50258 0.96705 0.39495 0.0
H935 H 0.513 0.01688 0.4239 0.0
H936 H 0.43902 0.98942 0.51933 0.0
H937 H 0.45483 0.98007 0.55716 0.0
H938 H 0.44684 0.94853 0.5297 0.0
H939 H 0.50514 0.92902 0.53434 0.0
H940 H 0.5133 0.96044 0.56183 0.0
H941 H 0.53728 0.95658 0.52715 0.0
H942 H 0.52193 0.06099 0.46141 0.0
H943 H 0.53264 0.09643 0.50571 0.0
H944 H 0.50376 0.02183 0.56963 0.0
C945 C 0.48394 0.94099 0.46829 0.0
C946 C 0.48853 0.93969 0.43554 0.0
C947 C 0.49897 0.96746 0.41989 0.0
C948 C 0.50479 0.99592 0.43616 0.0
C949 C 0.50039 0.99639 0.46833 0.0
C950 C 0.49042 0.96968 0.48439 0.0
C951 C 0.48964 0.97645 0.5193 0.0
C952 C 0.45555 0.97344 0.53213 0.0
C953 C 0.51272 0.95431 0.53668 0.0
C954 C 0.50103 0.01099 0.52027 0.0
C955 C 0.50665 0.02192 0.49043 0.0
C956 C 0.51774 0.05264 0.48486 0.0
C957 C 0.52395 0.07259 0.51032 0.0
C958 C 0.5195 0.06199 0.54135 0.0
C959 C 0.50724 0.0308 0.54629 0.0
H960 H 0.54378 0.25769 0.0287 0.0
H961 H 0.62525 0.32069 0.04137 0.0
H962 H 0.64415 0.28694 0.08291 0.0
H963 H 0.54276 0.21975 0.11095 0.0
H964 H 0.53518 0.18116 0.09394 0.0
H965 H 0.51878 0.21657 0.07638 0.0
H966 H 0.54527 0.20118 0.02392 0.0
H967 H 0.56165 0.16606 0.04126 0.0
H968 H 0.5877 0.19439 0.02255 0.0
H969 H 0.66501 0.24087 0.10772 0.0
H970 H 0.68573 0.18664 0.11372 0.0
H971 H 0.59669 0.14765 0.08095 0.0
C972 C 0.56542 0.2649 0.04024 0.0
C973 C 0.58303 0.29202 0.03049 0.0
C974 C 0.61048 0.30067 0.0478 0.0
C975 C 0.62171 0.28134 0.07182 0.0
C976 C 0.60573 0.25302 0.07826 0.0
C977 C 0.57797 0.24479 0.06307 0.0
C978 C 0.56984 0.20988 0.06827 0.0
C979 C 0.53986 0.20666 0.0886 0.0
C980 C 0.56594 0.19185 0.03716 0.0
C981 C 0.59921 0.19903 0.08577 0.0
C982 C 0.61866 0.22478 0.09273 0.0
C983 C 0.64941 0.22071 0.10404 0.0
C984 C 0.66112 0.18978 0.10716 0.0
C985 C 0.64244 0.16325 0.09855 0.0
C986 C 0.6107 0.16771 0.08897 0.0
H987 H 0.19762 0.61504 0.04416 0.0
H988 H 0.20754 0.51313 0.05768 0.0
H989 H 0.25661 0.52237 0.08789 0.0
H990 H 0.27023 0.6288 0.025 0.0
H991 H 0.27587 0.66693 0.04369 0.0
H992 H 0.2366 0.65436 0.03308 0.0
H993 H 0.21699 0.66105 0.08985 0.0
H994 H 0.25616 0.67474 0.10063 0.0
H995 H 0.2382 0.64175 0.12098 0.0
H996 H 0.31097 0.5415 0.10399 0.0
H997 H 0.36296 0.56943 0.10804 0.0
H998 H 0.31672 0.65813 0.08265 0.0
C999 C 0.20884 0.59477 0.0552 0.0
C1000 C 0.1987 0.56339 0.04862 0.0
C1001 C 0.2149 0.53741 0.06245 0.0
C1002 C 0.24279 0.54245 0.0797 0.0
C1003 C 0.25376 0.57363 0.08335 0.0
C1004 C 0.23673 0.59948 0.07215 0.0
C1005 C 0.25586 0.62998 0.07422 0.0
C1006 C 0.25988 0.64588 0.0421 0.0
C1007 C 0.24092 0.65324 0.09784 0.0
C1008 C 0.28703 0.61686 0.08604 0.0
C1009 C 0.28532 0.58455 0.09203 0.0
C1010 C 0.31234 0.56696 0.10018 0.0
C1011 C 0.34178 0.58288 0.10219 0.0
C1012 C 0.34383 0.61579 0.09535 0.0
C1013 C 0.31596 0.63288 0.08783 0.0
H1014 H 0.92138 0.21382 0.06786 0.0
H1015 H 0.01372 0.2595 0.05782 0.0
H1016 H 0.99628 0.30183 0.0937 0.0
H1017 H 0.87725 0.2744 0.06214 0.0
H1018 H 0.84737 0.26506 0.09094 0.0
H1019 H 0.86972 0.2336 0.07315 0.0
H1020 H 0.88857 0.21368 0.12698 0.0
H1021 H 0.86542 0.24482 0.14526 0.0
H1022 H 0.90732 0.24104 0.15365 0.0
H1023 H 0.96325 0.34659 0.11577 0.0
H1024 H 0.91993 0.38525 0.12668 0.0
H1025 H 0.85167 0.30773 0.12699 0.0
C1026 C 0.93894 0.2314 0.07441 0.0
C1027 C 0.96868 0.23347 0.05895 0.0
C1028 C 0.9903 0.25771 0.06825 0.0
C1029 C 0.98076 0.28178 0.08906 0.0
C1030 C 0.95007 0.28056 0.1015 0.0
C1031 C 0.92994 0.25518 0.09543 0.0
C1032 C 0.89672 0.26128 0.10781 0.0
C1033 C 0.87135 0.25846 0.08197 0.0
C1034 C 0.88907 0.23888 0.13506 0.0
C1035 C 0.90046 0.29526 0.11891 0.0
C1036 C 0.93149 0.30593 0.11583 0.0
C1037 C 0.93918 0.33818 0.11955 0.0
C1038 C 0.91445 0.36003 0.12566 0.0
C1039 C 0.88254 0.34938 0.12767 0.0
C1040 C 0.87592 0.31649 0.12578 0.0
H1041 H 0.27823 0.97322 0.02198 0.0
H1042 H 0.32732 0.89866 0.07245 0.0
H1043 H 0.28133 0.8945 0.10829 0.0
H1044 H 0.22782 1.00658 0.09047 0.0
H1045 H 0.19496 0.01206 0.06412 0.0
H1046 H 0.23532 0.0176 0.05061 0.0
H1047 H 0.22516 0.97674 1.00645 0.0
H1048 H 0.18532 0.97062 0.01993 0.0
H1049 H 0.21198 0.93706 0.01626 0.0
H1050 H 0.22614 0.88958 0.12994 0.0
H1051 H 0.16802 0.88133 0.13193 0.0
H1052 H 0.15505 0.95642 0.06411 0.0
C1053 C 0.28038 0.95744 0.04173 0.0
C1054 C 0.30663 0.93659 0.04461 0.0
C1055 C 0.30755 0.91504 0.06989 0.0
C1056 C 0.2816 0.91273 0.09051 0.0
C1057 C 0.25511 0.93229 0.08564 0.0
C1058 C 0.25458 0.95454 0.06194 0.0
C1059 C 0.22146 0.96771 0.05679 0.0
C1060 C 0.2198 1.00309 0.06607 0.0
C1061 C 0.21037 0.96267 0.0229 0.0
C1062 C 0.20285 0.94735 0.07928 0.0
C1063 C 0.2227 0.92813 0.09679 0.0
C1064 C 0.2105 0.9048 0.11659 0.0
C1065 C 0.17743 0.8999 0.11717 0.0
C1066 C 0.1572 0.91725 0.09705 0.0
C1067 C 0.16997 0.94252 0.07947 0.0
H1068 H 0.5684 0.39201 0.49047 0.0
H1069 H 0.59723 0.36071 0.39858 0.0
H1070 H 0.562 0.31367 0.4035 0.0
H1071 H 0.57992 0.32495 0.52391 0.0
H1072 H 0.54762 0.32634 0.55167 0.0
H1073 H 0.5632 0.3626 0.53622 0.0
H1074 H 0.50682 0.37847 0.51741 0.0
H1075 H 0.49095 0.34174 0.53272 0.0
H1076 H 0.48475 0.3519 0.49248 0.0
H1077 H 0.5356 0.26447 0.42342 0.0
H1078 H 0.52751 0.21751 0.45654 0.0
H1079 H 0.52214 0.27938 0.53755 0.0
C1080 C 0.5662 0.37591 0.47085 0.0
C1081 C 0.58541 0.37979 0.44421 0.0
C1082 C 0.58232 0.3583 0.41905 0.0
C1083 C 0.56225 0.33158 0.42167 0.0
C1084 C 0.54535 0.32706 0.44943 0.0
C1085 C 0.54698 0.34898 0.47352 0.0
C1086 C 0.53321 0.33574 0.50336 0.0
C1087 C 0.55745 0.33747 0.53029 0.0
C1088 C 0.50207 0.35298 0.51198 0.0
C1089 C 0.52674 0.3018 0.4933 0.0
C1090 C 0.53203 0.2977 0.46176 0.0
C1091 C 0.53113 0.26756 0.44805 0.0
C1092 C 0.52699 0.24087 0.46727 0.0
C1093 C 0.52533 0.24434 0.5001 0.0
C1094 C 0.52299 0.27543 0.51273 0.0
H1095 H 0.19292 0.68541 0.43504 0.0
H1096 H 0.13305 0.60283 0.41937 0.0
H1097 H 0.17921 0.56747 0.42947 0.0
H1098 H 0.27293 0.64717 0.40768 0.0
H1099 H 0.29223 0.67047 0.43743 0.0
H1100 H 0.25752 0.68581 0.41776 0.0
H1101 H 0.23097 0.69341 0.47426 0.0
H1102 H 0.26647 0.67715 0.4909 0.0
H1103 H 0.2284 0.65896 0.49895 0.0
H1104 H 0.22782 0.54201 0.45236 0.0
H1105 H 0.27068 0.52935 0.48931 0.0
H1106 H 0.29685 0.62943 0.49239 0.0
C1107 C 0.18977 0.65986 0.43286 0.0
C1108 C 0.15958 0.64672 0.42668 0.0
C1109 C 0.15618 0.61329 0.42391 0.0
C1110 C 0.18231 0.59309 0.42943 0.0
C1111 C 0.21162 0.60685 0.43704 0.0
C1112 C 0.21544 0.6396 0.43842 0.0
C1113 C 0.24721 0.64875 0.45219 0.0
C1114 C 0.26876 0.66398 0.42734 0.0
C1115 C 0.24301 0.67083 0.48072 0.0
C1116 C 0.25946 0.61622 0.4613 0.0
C1117 C 0.23941 0.59221 0.45109 0.0
C1118 C 0.24389 0.56059 0.46003 0.0
C1119 C 0.26816 0.55369 0.48136 0.0
C1120 C 0.28691 0.57848 0.49439 0.0
C1121 C 0.28358 0.60972 0.48263 0.0
H1122 H 0.91387 0.1453 0.47019 0.0
H1123 H 0.85098 0.18559 0.4012 0.0
H1124 H 0.87939 0.2371 0.40482 0.0
H1125 H 0.91068 0.20611 0.51862 0.0
H1126 H 0.95128 0.20505 0.53216 0.0
H1127 H 0.93328 0.16953 0.51709 0.0
H1128 H 0.97899 0.16384 0.47673 0.0
H1129 H 0.99725 0.1996 0.4918 0.0
H1130 H 0.98799 0.19652 0.45099 0.0
H1131 H 0.90409 0.28608 0.42541 0.0
H1132 H 0.92264 0.32816 0.46136 0.0
H1133 H 0.97013 0.25665 0.51706 0.0
C1134 C 0.90736 0.16464 0.4548 0.0
C1135 C 0.88107 0.16171 0.43488 0.0
C1136 C 0.87173 0.18752 0.416 0.0
C1137 C 0.88778 0.21675 0.41789 0.0
C1138 C 0.91299 0.21955 0.43879 0.0
C1139 C 0.92299 0.19402 0.45671 0.0
C1140 C 0.94653 0.20448 0.48125 0.0
C1141 C 0.9347 0.19581 0.51419 0.0
C1142 C 0.97966 0.19027 0.47479 0.0
C1143 C 0.94633 0.24016 0.47596 0.0
C1144 C 0.92758 0.24834 0.45079 0.0
C1145 C 0.91974 0.28002 0.44446 0.0
C1146 C 0.93026 0.30377 0.46501 0.0
C1147 C 0.94825 0.29562 0.49159 0.0
C1148 C 0.95749 0.26363 0.49623 0.0
H1149 H 0.37002 0.90098 0.44645 0.0
H1150 H 0.31825 0.84917 0.37588 0.0
H1151 H 0.26966 0.88015 0.38817 0.0
H1152 H 0.31691 0.89243 0.50013 0.0
H1153 H 0.32063 0.93042 0.51954 0.0
H1154 H 0.3535 0.91487 0.4976 0.0
H1155 H 0.35521 0.96603 0.46404 0.0
H1156 H 0.32242 0.98218 0.48631 0.0
H1157 H 0.31967 0.97943 0.44456 0.0
H1158 H 0.22465 0.90251 0.41835 0.0
H1159 H 0.18812 0.91769 0.46108 0.0
H1160 H 0.26856 0.95293 0.51405 0.0
C1161 C 0.34888 0.8978 0.43239 0.0
C1162 C 0.3478 0.87376 0.40959 0.0
C1163 C 0.31953 0.86843 0.39269 0.0
C1164 C 0.29184 0.88576 0.3997 0.0
C1165 C 0.29282 0.90776 0.42407 0.0
C1166 C 0.32086 0.91426 0.43984 0.0
C1167 C 0.31453 0.93377 0.46888 0.0
C1168 C 0.32711 0.91683 0.49822 0.0
C1169 C 0.3288 0.96735 0.46574 0.0
C1170 C 0.2785 0.93491 0.46838 0.0
C1171 C 0.26638 0.92063 0.44193 0.0
C1172 C 0.23381 0.91476 0.43862 0.0
C1173 C 0.21324 0.92315 0.46314 0.0
C1174 C 0.22539 0.9369 0.49077 0.0
C1175 C 0.25831 0.94362 0.49281 0.0
H1176 H 0.42528 0.70339 0.98223 0.0
H1177 H 0.49999 0.75684 0.02858 0.0
H1178 H 0.49539 0.79877 0.98897 0.0
H1179 H 0.44737 0.73316 0.89842 0.0
H1180 H 0.4056 0.73251 0.88876 0.0
H1181 H 0.42184 0.70278 0.91451 0.0
H1182 H 0.37943 0.71787 0.95583 0.0
H1183 H 0.36395 0.74775 0.93058 0.0
H1184 H 0.37676 0.7587 0.96912 0.0
H1185 H 0.47206 0.84046 0.95453 0.0
H1186 H 0.43269 0.87596 0.93003 0.0
H1187 H 0.37621 0.79402 0.90361 0.0
C1188 C 0.44214 0.72281 0.98333 0.0
C1189 C 0.46257 0.72672 1.00912 0.0
C1190 C 0.48335 0.75342 1.00971 0.0
C1191 C 0.48137 0.77722 0.98688 0.0
C1192 C 0.45941 0.77348 0.96287 0.0
C1193 C 0.44086 0.74634 0.96048 0.0
C1194 C 0.41564 0.74988 0.93574 0.0
C1195 C 0.42308 0.72831 0.90769 0.0
C1196 C 0.38201 0.74318 0.94872 0.0
C1197 C 0.42008 0.7846 0.92748 0.0
C1198 C 0.44636 0.79754 0.94225 0.0
C1199 C 0.45205 0.83036 0.94211 0.0
C1200 C 0.42943 0.85047 0.92823 0.0
C1201 C 0.40116 0.83765 0.91546 0.0
C1202 C 0.3977 0.80432 0.91322 0.0
H1203 H 0.76833 0.38156 0.99816 0.0
H1204 H 0.76895 0.48495 0.99754 0.0
H1205 H 0.73161 0.48486 0.95326 0.0
H1206 H 0.75893 0.36969 0.9117 0.0
H1207 H 0.73206 0.33667 0.91691 0.0
H1208 H 0.76334 0.34371 0.94476 0.0
H1209 H 0.72242 0.34531 0.98907 0.0
H1210 H 0.68979 0.33934 0.96273 0.0
H1211 H 0.69002 0.37359 0.98792 0.0
H1212 H 0.68697 0.47354 0.91551 0.0
H1213 H 0.64034 0.45152 0.88743 0.0
H1214 H 0.67126 0.35598 0.91083 0.0
C1215 C 0.76174 0.40413 0.9878 0.0
C1216 C 0.77164 0.43324 1.00119 0.0
C1217 C 0.76155 0.46235 0.98768 0.0
C1218 C 0.7405 0.46254 0.9624 0.0
C1219 C 0.73006 0.43343 0.95056 0.0
C1220 C 0.74077 0.40472 0.96253 0.0
C1221 C 0.72308 0.37685 0.94834 0.0
C1222 C 0.74572 0.35547 0.92931 0.0
C1223 C 0.70532 0.35765 0.97351 0.0
C1224 C 0.70006 0.39438 0.92745 0.0
C1225 C 0.70453 0.42697 0.92869 0.0
C1226 C 0.68373 0.44799 0.91378 0.0
C1227 C 0.65734 0.43532 0.89783 0.0
C1228 C 0.65196 0.40201 0.89721 0.0
C1229 C 0.67436 0.3815 0.91126 0.0
H1230 H 0.12583 0.81031 0.96863 0.0
H1231 H 0.02277 0.80493 0.95993 0.0
H1232 H 0.02883 0.75518 0.93008 0.0
H1233 H 0.14753 0.77093 0.89164 0.0
H1234 H 0.18031 0.7511 0.91036 0.0
H1235 H 0.16886 0.79065 0.92256 0.0
H1236 H 0.16322 0.77072 0.97905 0.0
H1237 H 0.17323 0.73067 0.9682 0.0
H1238 H 0.13607 0.73864 0.98762 0.0
H1239 H 0.04576 0.69825 0.91681 0.0
H1240 H 0.07244 0.64521 0.91686 0.0
H1241 H 0.16349 0.69174 0.92976 0.0
C1242 C 0.10422 0.80037 0.95921 0.0
C1243 C 0.07373 0.81156 0.96813 0.0
C1244 C 0.04659 0.79645 0.95493 0.0
C1245 C 0.04976 0.76822 0.93743 0.0
C1246 C 0.08026 0.75613 0.93208 0.0
C1247 C 0.10705 0.77257 0.94168 0.0
C1248 C 0.13684 0.75274 0.93833 0.0
C1249 C 0.15972 0.76725 0.91428 0.0
C1250 C 0.15327 0.74795 0.97013 0.0
C1251 C 0.12265 0.72204 0.92665 0.0
C1252 C 0.08999 0.72409 0.92296 0.0
C1253 C 0.07145 0.6967 0.91834 0.0
C1254 C 0.08668 0.66669 0.91844 0.0
C1255 C 0.11988 0.66469 0.92342 0.0
C1256 C 0.13801 0.69274 0.92582 0.0
H1257 H 0.71925 0.12075 0.99107 0.0
H1258 H 0.74534 0.0229 0.97019 0.0
H1259 H 0.79369 0.0421 0.94307 0.0
H1260 H 0.75594 0.15927 0.91907 0.0
H1261 H 0.76866 0.19302 0.942 0.0
H1262 H 0.73212 0.17264 0.95153 0.0
H1263 H 0.75208 0.164 1.0075 0.0
H1264 H 0.7888 0.18382 0.99859 0.0
H1265 H 0.78946 0.1438 1.01382 0.0
H1266 H 0.84434 0.07121 0.92881 0.0
H1267 H 0.89111 0.10736 0.92778 0.0
H1268 H 0.83121 0.18529 0.95949 0.0
C1269 C 0.73397 0.10332 0.97919 0.0
C1270 C 0.72823 0.07029 0.98249 0.0
C1271 C 0.74914 0.04833 0.96784 0.0
C1272 C 0.77663 0.05905 0.9523 0.0
C1273 C 0.78263 0.09179 0.95138 0.0
C1274 C 0.76147 0.11362 0.96402 0.0
C1275 C 0.77539 0.14688 0.96474 0.0
C1276 C 0.75694 0.16928 0.94302 0.0
C1277 C 0.77652 0.16036 0.99813 0.0
C1278 C 0.80838 0.14009 0.9523 0.0
C1279 C 0.81201 0.10842 0.94393 0.0
C1280 C 0.84152 0.09619 0.93459 0.0
C1281 C 0.86795 0.11679 0.93418 0.0
C1282 C 0.86466 0.14893 0.94375 0.0
C1283 C 0.83438 0.16074 0.95216 0.0
H1284 H 0.45918 0.73828 0.51035 0.0
H1285 H 0.43048 0.82218 0.56261 0.0
H1286 H 0.4141 0.78776 0.60629 0.0
H1287 H 0.39724 0.69469 0.52576 0.0
H1288 H 0.41672 0.65652 0.52917 0.0
H1289 H 0.43477 0.68737 0.50644 0.0
H1290 H 0.48628 0.68336 0.53932 0.0
H1291 H 0.46826 0.65209 0.56211 0.0
H1292 H 0.484 0.68709 0.58106 0.0
H1293 H 0.38807 0.74501 0.63699 0.0
H1294 H 0.3562 0.69787 0.6519 0.0
H1295 H 0.40393 0.64175 0.58139 0.0
C1296 C 0.45122 0.74966 0.53162 0.0
C1297 C 0.44629 0.78299 0.53304 0.0
C1298 C 0.43438 0.7967 0.56088 0.0
C1299 C 0.4253 0.77733 0.58596 0.0
C1300 C 0.42884 0.74435 0.58308 0.0
C1301 C 0.44215 0.73065 0.55676 0.0
C1302 C 0.43862 0.6947 0.55699 0.0
C1303 C 0.42076 0.68267 0.5279 0.0
C1304 C 0.47124 0.67835 0.56007 0.0
C1305 C 0.41898 0.69049 0.58623 0.0
C1306 C 0.41426 0.71929 0.60145 0.0
C1307 C 0.39258 0.72219 0.62599 0.0
C1308 C 0.37443 0.69543 0.63425 0.0
C1309 C 0.37808 0.66637 0.61802 0.0
C1310 C 0.40159 0.66348 0.5948 0.0
H1311 H 0.80923 0.4759 0.49209 0.0
H1312 H 0.72978 0.48992 0.55621 0.0
H1313 H 0.76505 0.47985 0.59981 0.0
H1314 H 0.83338 0.40781 0.52736 0.0
H1315 H 0.87551 0.41326 0.52103 0.0
H1316 H 0.8474 0.43118 0.49494 0.0
H1317 H 0.87219 0.48685 0.50522 0.0
H1318 H 0.90065 0.46894 0.53122 0.0
H1319 H 0.87573 0.50126 0.54461 0.0
H1320 H 0.806 0.45913 0.63669 0.0
H1321 H 0.84881 0.42804 0.66221 0.0
H1322 H 0.89808 0.42033 0.57366 0.0
C1323 C 0.79899 0.47741 0.51514 0.0
C1324 C 0.76622 0.484 0.5199 0.0
C1325 C 0.75469 0.48602 0.55105 0.0
C1326 C 0.77463 0.48 0.5764 0.0
C1327 C 0.8061 0.47157 0.57059 0.0
C1328 C 0.81826 0.47027 0.54068 0.0
C1329 C 0.8511 0.45533 0.54019 0.0
C1330 C 0.85186 0.42511 0.51968 0.0
C1331 C 0.87641 0.47955 0.5297 0.0
C1332 C 0.85477 0.44725 0.57424 0.0
C1333 C 0.82907 0.45765 0.59162 0.0
C1334 C 0.82651 0.45128 0.6234 0.0
C1335 C 0.8508 0.43355 0.63768 0.0
C1336 C 0.87668 0.42177 0.61991 0.0
C1337 C 0.8787 0.4291 0.58793 0.0
H1338 H 0.04075 0.78656 0.50505 0.0
H1339 H 0.05128 0.70504 0.56598 0.0
H1340 H 0.06373 0.74128 0.60952 0.0
H1341 H 0.10351 0.82464 0.52643 0.0
H1342 H 0.0884 0.86487 0.52481 0.0
H1343 H 0.07021 0.83437 0.50177 0.0
H1344 H 0.0154 0.84684 0.52692 0.0
H1345 H 0.03359 0.87773 0.55012 0.0
H1346 H 0.01119 0.84636 0.56866 0.0
H1347 H 0.09036 0.78268 0.64024 0.0
H1348 H 0.12767 0.82542 0.6552 0.0
H1349 H 0.09706 0.88179 0.5768 0.0
C1350 C 0.04379 0.77637 0.52795 0.0
C1351 C 0.0449 0.74294 0.53209 0.0
C1352 C 0.05042 0.73055 0.56218 0.0
C1353 C 0.05718 0.75102 0.58715 0.0
C1354 C 0.05777 0.78386 0.58182 0.0
C1355 C 0.05056 0.79653 0.55301 0.0
C1356 C 0.05836 0.83181 0.55161 0.0
C1357 C 0.0815 0.8393 0.5246 0.0
C1358 C 0.02781 0.85186 0.5492 0.0
C1359 C 0.07399 0.8363 0.58299 0.0
C1360 C 0.0725 0.8086 0.6005 0.0
C1361 C 0.09046 0.80492 0.62752 0.0
C1362 C 0.11155 0.82931 0.63594 0.0
C1363 C 0.11418 0.85708 0.61764 0.0
C1364 C 0.09409 0.86132 0.59186 0.0
H1365 H 0.65782 0.04239 0.59968 0.0
H1366 H 0.67353 0.13808 0.63435 0.0
H1367 H 0.73128 0.12925 0.63265 0.0
H1368 H 0.73844 1.00629 0.63572 0.0
H1369 H 0.74207 0.98118 0.60179 0.0
H1370 H 0.70326 0.98974 0.61799 0.0
H1371 H 0.68485 0.01002 0.56421 0.0
H1372 H 0.72334 1.00226 0.54803 0.0
H1373 H 0.70666 0.04182 0.54559 0.0
H1374 H 0.78208 0.1193 0.60726 0.0
H1375 H 0.82026 0.10774 0.56594 0.0
H1376 H 0.77786 0.01399 0.55382 0.0
C1377 C 0.67352 0.06064 0.60876 0.0
C1378 C 0.66133 0.09092 0.61677 0.0
C1379 C 0.68229 0.11462 0.62815 0.0
C1380 C 0.71529 0.10974 0.62735 0.0
C1381 C 0.72687 0.08061 0.61629 0.0
C1382 C 0.70656 0.05583 0.60844 0.0
C1383 C 0.72447 0.02922 0.59202 0.0
C1384 C 0.72723 0.99987 0.61315 0.0
C1385 C 0.70891 0.0204 0.56063 0.0
C1386 C 0.75664 0.04497 0.58764 0.0
C1387 C 0.75793 0.07411 0.60275 0.0
C1388 C 0.78204 0.096 0.59639 0.0
C1389 C 0.80396 0.08901 0.57267 0.0
C1390 C 0.80206 0.05998 0.55568 0.0
C1391 C 0.77968 0.03679 0.56543 0.0
H1392 H 0.7393 0.31411 0.17807 0.0
H1393 H 0.76723 0.34448 0.08527 0.0
H1394 H 0.76532 0.28889 0.06755 0.0
H1395 H 0.78982 0.24728 0.17835 0.0
H1396 H 0.76336 0.22224 0.2006 0.0
H1397 H 0.76195 0.2649 0.20538 0.0
H1398 H 0.70209 0.26465 0.19284 0.0
H1399 H 0.70268 0.22201 0.18743 0.0
H1400 H 0.6883 0.24756 0.15694 0.0
H1401 H 0.7675 0.22943 0.06125 0.0
H1402 H 0.76636 0.1708 0.06531 0.0
H1403 H 0.73916 0.17813 0.16235 0.0
C1404 C 0.74454 0.30936 0.15386 0.0
C1405 C 0.75383 0.33425 0.13339 0.0
C1406 C 0.75991 0.32647 0.10173 0.0
C1407 C 0.7592 0.29468 0.09138 0.0
C1408 C 0.75223 0.27077 0.1128 0.0
C1409 C 0.74455 0.27773 0.14329 0.0
C1410 C 0.74025 0.24747 0.16222 0.0
C1411 C 0.76534 0.24537 0.18817 0.0
C1412 C 0.70631 0.24527 0.17562 0.0
C1413 C 0.74623 0.22236 0.13744 0.0
C1414 C 0.7535 0.23638 0.1092 0.0
C1415 C 0.76151 0.21823 0.08316 0.0
C1416 C 0.76123 0.18492 0.08579 0.0
C1417 C 0.75286 0.16991 0.11417 0.0
C1418 C 0.74563 0.18901 0.14041 0.0
H1419 H 0.18962 0.79059 0.14402 0.0
H1420 H 0.18316 0.76547 0.0465 0.0
H1421 H 0.23998 0.74945 0.04644 0.0
H1422 H 0.27215 0.81962 0.14365 0.0
H1423 H 0.28139 0.80206 0.18078 0.0
H1424 H 0.24123 0.81461 0.17243 0.0
H1425 H 0.22039 0.75785 0.18488 0.0
H1426 H 0.26038 0.74526 0.19358 0.0
H1427 H 0.23742 0.72401 0.16485 0.0
H1428 H 0.29735 0.73517 0.05743 0.0
H1429 H 0.34809 0.71677 0.07981 0.0
H1430 H 0.31656 0.74737 0.17125 0.0
C1431 C 0.20044 0.78215 0.12264 0.0
C1432 C 0.18221 0.77948 0.09518 0.0
C1433 C 0.1968 0.76763 0.06773 0.0
C1434 C 0.22908 0.75872 0.06746 0.0
C1435 C 0.24644 0.76148 0.09495 0.0
C1436 C 0.23252 0.77248 0.12215 0.0
C1437 C 0.25562 0.77032 0.14915 0.0
C1438 C 0.26304 0.80364 0.16227 0.0
C1439 C 0.24268 0.74803 0.17461 0.0
C1440 C 0.28455 0.75604 0.133 0.0
C1441 C 0.27899 0.7518 0.10161 0.0
C1442 C 0.30196 0.73847 0.08198 0.0
C1443 C 0.33091 0.72821 0.09492 0.0
C1444 C 0.33644 0.73052 0.12737 0.0
C1445 C 0.31311 0.74541 0.14638 0.0
H1446 H 0.75689 0.31463 0.44937 0.0
H1447 H 0.66861 0.31864 0.39745 0.0
H1448 H 0.67622 0.26251 0.3811 0.0
H1449 H 0.80055 0.26312 0.39443 0.0
H1450 H 0.82056 0.24195 0.42514 0.0
H1451 H 0.80906 0.28296 0.43074 0.0
H1452 H 0.77783 0.26683 0.48046 0.0
H1453 H 0.7892 0.22586 0.47463 0.0
H1454 H 0.74767 0.23635 0.47796 0.0
H1455 H 0.69068 0.20399 0.37529 0.0
H1456 H 0.71318 0.14921 0.37721 0.0
H1457 H 0.79333 0.18434 0.43029 0.0
C1458 C 0.73935 0.30377 0.4343 0.0
C1459 C 0.71219 0.32106 0.4246 0.0
C1460 C 0.68981 0.30604 0.40479 0.0
C1461 C 0.69385 0.2741 0.39555 0.0
C1462 C 0.72065 0.25759 0.40594 0.0
C1463 C 0.74325 0.27207 0.42457 0.0
C1464 C 0.76954 0.24892 0.43318 0.0
C1465 C 0.80183 0.25991 0.42007 0.0
C1466 C 0.77113 0.24422 0.46865 0.0
C1467 C 0.75798 0.219 0.4169 0.0
C1468 C 0.72963 0.22439 0.40147 0.0
C1469 C 0.71319 0.19967 0.38676 0.0
C1470 C 0.72602 0.1687 0.38797 0.0
C1471 C 0.7552 0.16285 0.40329 0.0
C1472 C 0.77145 0.18844 0.41763 0.0
H1473 H 0.32064 0.77844 0.42381 0.0
H1474 H 0.34244 0.73561 0.33465 0.0
H1475 H 0.28448 0.73072 0.32359 0.0
H1476 H 0.25378 0.73444 0.44392 0.0
H1477 H 0.23061 0.76677 0.45984 0.0
H1478 H 0.27348 0.76852 0.46041 0.0
H1479 H 0.27352 0.8218 0.43065 0.0
H1480 H 0.23057 0.82133 0.431 0.0
H1481 H 0.25174 0.82492 0.39467 0.0
H1482 H 0.22404 0.72857 0.32389 0.0
H1483 H 0.16613 0.72956 0.33489 0.0
H1484 H 0.18421 0.77637 0.4231 0.0
C1485 C 0.31305 0.76818 0.40194 0.0
C1486 C 0.33565 0.75695 0.38011 0.0
C1487 C 0.32523 0.7439 0.35163 0.0
C1488 C 0.29248 0.74124 0.3452 0.0
C1489 C 0.27067 0.75253 0.36727 0.0
C1490 C 0.28058 0.76616 0.39491 0.0
C1491 C 0.25245 0.77691 0.41455 0.0
C1492 C 0.25257 0.76068 0.44658 0.0
C1493 C 0.25207 0.81342 0.41793 0.0
C1494 C 0.22506 0.76557 0.39448 0.0
C1495 C 0.23605 0.75205 0.36708 0.0
C1496 C 0.2152 0.73931 0.34515 0.0
C1497 C 0.18237 0.73995 0.35159 0.0
C1498 C 0.17058 0.75322 0.37971 0.0
C1499 C 0.19235 0.76664 0.40113 0.0
H1500 H 0.2775 0.81696 0.94061 0.0
H1501 H 0.25174 0.84091 0.84621 0.0
H1502 H 0.23648 0.78429 0.83655 0.0
H1503 H 0.31085 0.73743 0.92134 0.0
H1504 H 0.29786 0.72172 0.95822 0.0
H1505 H 0.30784 0.76338 0.95484 0.0
H1506 H 0.25264 0.77527 0.97789 0.0
H1507 H 0.23946 0.73441 0.97727 0.0
H1508 H 0.21759 0.76466 0.95647 0.0
H1509 H 0.22256 0.72435 0.83869 0.0
H1510 H 0.21305 0.66746 0.85148 0.0
H1511 H 0.24914 0.68394 0.9445 0.0
C1512 C 0.2686 0.81016 0.91793 0.0
C1513 C 0.2653 0.83313 0.89418 0.0
C1514 C 0.25417 0.82352 0.86462 0.0
C1515 C 0.24553 0.7915 0.85904 0.0
C1516 C 0.24881 0.76939 0.88315 0.0
C1517 C 0.26052 0.77837 0.91188 0.0
C1518 C 0.26211 0.75033 0.93396 0.0
C1519 C 0.29675 0.74281 0.94265 0.0
C1520 C 0.24171 0.75645 0.96314 0.0
C1521 C 0.24843 0.72419 0.91362 0.0
C1522 C 0.24125 0.73543 0.88425 0.0
C1523 C 0.2284 0.71536 0.86155 0.0
C1524 C 0.22302 0.68309 0.86901 0.0
C1525 C 0.23068 0.67103 0.89884 0.0
C1526 C 0.24358 0.6921 0.92129 0.0
H1527 H 0.84083 0.25075 0.87678 0.0
H1528 H 0.85066 0.27517 0.97427 0.0
H1529 H 0.79214 0.27824 0.9796 0.0
H1530 H 0.77436 0.3049 0.86328 0.0
H1531 H 0.75514 0.27866 0.83588 0.0
H1532 H 0.79781 0.27766 0.84009 0.0
H1533 H 0.79486 0.21716 0.85123 0.0
H1534 H 0.75207 0.21796 0.84783 0.0
H1535 H 0.77034 0.20293 0.88269 0.0
H1536 H 0.73277 0.27866 0.97457 0.0
H1537 H 0.67629 0.2808 0.95829 0.0
H1538 H 0.70427 0.25765 0.8638 0.0
C1539 C 0.8305 0.25683 0.89913 0.0
C1540 C 0.85019 0.26302 0.92504 0.0
C1541 C 0.83599 0.27093 0.95401 0.0
C1542 C 0.80279 0.2724 0.95733 0.0
C1543 C 0.78401 0.26614 0.9314 0.0
C1544 C 0.79728 0.25896 0.90273 0.0
C1545 C 0.7716 0.25498 0.87826 0.0
C1546 C 0.77493 0.28058 0.85288 0.0
C1547 C 0.77226 0.22125 0.86419 0.0
C1548 C 0.74188 0.26041 0.8978 0.0
C1549 C 0.74963 0.26673 0.92841 0.0
C1550 C 0.7264 0.27365 0.95069 0.0
C1551 C 0.69445 0.27494 0.94126 0.0
C1552 C 0.68598 0.26939 0.90989 0.0
C1553 C 0.71003 0.26147 0.88805 0.0
H1554 H 0.30107 0.69136 0.65065 0.0
H1555 H 0.20683 0.6607 0.67837 0.0
H1556 H 0.19116 0.71709 0.68688 0.0
H1557 H 0.30619 0.76364 0.70373 0.0
H1558 H 0.32699 0.78608 0.67429 0.0
H1559 H 0.33229 0.74353 0.67676 0.0
H1560 H 0.31562 0.73827 0.61874 0.0
H1561 H 0.30998 0.78069 0.61658 0.0
H1562 H 0.27774 0.7542 0.6066 0.0
H1563 H 0.18413 0.77655 0.68614 0.0
H1564 H 0.18477 0.83354 0.6737 0.0
H1565 H 0.28397 0.82602 0.6455 0.0
C1566 C 0.27766 0.6965 0.65984 0.0
C1567 C 0.25536 0.67172 0.66452 0.0
C1568 C 0.22429 0.67938 0.67499 0.0
C1569 C 0.21531 0.71129 0.68 0.0
C1570 C 0.23771 0.73525 0.67441 0.0
C1571 C 0.26834 0.72821 0.66467 0.0
C1572 C 0.28671 0.75829 0.65672 0.0
C1573 C 0.3147 0.76316 0.67921 0.0
C1574 C 0.29816 0.75782 0.62265 0.0
C1575 C 0.26115 0.78328 0.66205 0.0
C1576 C 0.23336 0.76957 0.67302 0.0
C1577 C 0.20594 0.78758 0.67805 0.0
C1578 C 0.20664 0.82021 0.67099 0.0
C1579 C 0.2345 0.8347 0.65855 0.0
C1580 C 0.26229 0.81588 0.65489 0.0
H1581 H 0.85525 0.24298 0.59346 0.0
H1582 H 0.83812 0.30881 0.66947 0.0
H1583 H 0.78125 0.29247 0.67085 0.0
H1584 H 0.78277 0.25898 0.55425 0.0
H1585 H 0.77745 0.21862 0.54074 0.0
H1586 H 0.81692 0.23369 0.54771 0.0
H1587 H 0.8279 0.18683 0.58558 0.0
H1588 H 0.78847 0.17171 0.57826 0.0
H1589 H 0.80092 0.17987 0.61759 0.0
H1590 H 0.72528 0.26897 0.66264 0.0
H1591 H 0.67547 0.24425 0.64262 0.0
H1592 H 0.73035 0.19549 0.57142 0.0
C1593 C 0.83964 0.25348 0.61078 0.0
C1594 C 0.85107 0.2768 0.63169 0.0
C1595 C 0.82973 0.29082 0.65335 0.0
C1596 C 0.7975 0.28157 0.65437 0.0
C1597 C 0.78694 0.25851 0.6333 0.0
C1598 C 0.80742 0.24491 0.61173 0.0
C1599 C 0.78993 0.22247 0.5901 0.0
C1600 C 0.79188 0.23416 0.55621 0.0
C1601 C 0.80257 0.18819 0.5931 0.0
C1602 C 0.75642 0.22541 0.60289 0.0
C1603 C 0.75502 0.24604 0.62797 0.0
C1604 C 0.72618 0.25276 0.64304 0.0
C1605 C 0.69805 0.23855 0.63169 0.0
C1606 C 0.69903 0.21829 0.60534 0.0
C1607 C 0.72876 0.21127 0.59134 0.0
loop_
_geom_bond_atom_site_label_1
_geom_bond_atom_site_label_2
_geom_bond_distance
_geom_bond_site_symmetry_2
_ccdc_geom_bond_type
C0 C1 1.351 . S
C0 N3 1.368 . S
C0 H5 0.931 . S
C1 C0 1.351 . S
C1 N2 1.373 . S
C1 H29 0.930 1_545 S
N2 C1 1.373 . S
N2 C4 1.340 . S
N3 C0 1.368 . S
N3 C4 1.321 . S
N3 Co6 2.135 . S
C4 N2 1.340 . S
C4 N3 1.321 . S
C4 H28 0.930 . S
H5 C0 0.931 . S
Co6 N3 2.135 . S
Co6 N9 2.121 . S
Co6 O14 2.055 . S
Co6 O17 2.039 . S
Co6 N20 2.140 . S
C7 O8 1.227 . S
C7 O17 1.265 . S
O8 C7 1.227 . S
N9 Co6 2.121 . S
N9 C11 1.375 . S
N9 C12 1.313 . S
C10 C11 1.338 . S
C10 N13 1.377 . S
C10 H30 0.930 . S
C11 N9 1.375 . S
C11 C10 1.338 . S
C11 H15 0.931 . S
C12 N9 1.313 . S
C12 N13 1.344 . S
C12 H16 0.930 . S
N13 C10 1.377 . S
N13 C12 1.344 . S
O14 Co6 2.055 . S
O14 C18 1.253 . S
H15 C11 0.931 . S
H16 C12 0.930 . S
O17 Co6 2.039 . S
O17 C7 1.265 . S
C18 O14 1.253 . S
C18 O19 1.227 . S
O19 C18 1.227 . S
N20 Co6 2.140 . S
N20 C23 1.346 . S
N20 C24 1.345 . S
C21 C22 1.387 . S
C21 C25 1.391 . S
C22 C21 1.387 . S
C22 C23 1.369 . S
C22 H31 0.929 . S
C23 N20 1.346 . S
C23 C22 1.369 . S
C23 H26 0.928 . S
C24 N20 1.345 . S
C24 C25 1.371 . S
C24 H27 0.931 . S
C25 C21 1.391 . S
C25 C24 1.371 . S
C25 H32 0.930 . S
H26 C23 0.928 . S
H27 C24 0.931 . S
H28 C4 0.930 . S
H29 C1 0.930 1_565 S
H30 C10 0.930 . S
H31 C22 0.929 . S
H32 C25 0.930 . S
C33 C34 1.351 . S
C33 N36 1.368 . S
C33 H38 0.931 . S
C34 C33 1.351 . S
C34 N35 1.373 . S
C34 H62 0.930 . S
N35 C34 1.373 . S
N35 C37 1.340 . S
N36 C33 1.368 . S
N36 C37 1.321 . S
N36 Co39 2.135 . S
C37 N35 1.340 . S
C37 N36 1.321 . S
C37 H61 0.930 . S
H38 C33 0.931 . S
Co39 N36 2.135 . S
Co39 N42 2.121 . S
Co39 O47 2.055 . S
Co39 O50 2.039 . S
Co39 N53 2.140 . S
C40 O41 1.227 . S
C40 O50 1.265 . S
O41 C40 1.227 . S
N42 Co39 2.121 . S
N42 C44 1.375 . S
N42 C45 1.313 . S
C43 C44 1.338 . S
C43 N46 1.377 . S
C43 H63 0.930 . S
C44 N42 1.375 . S
C44 C43 1.338 . S
C44 H48 0.931 . S
C45 N42 1.313 . S
C45 N46 1.344 . S
C45 H49 0.930 . S
N46 C43 1.377 . S
N46 C45 1.344 . S
O47 Co39 2.055 . S
O47 C51 1.253 . S
H48 C44 0.931 . S
H49 C45 0.930 . S
O50 Co39 2.039 . S
O50 C40 1.265 . S
C51 O47 1.253 . S
C51 O52 1.227 . S
O52 C51 1.227 . S
N53 Co39 2.140 . S
N53 C56 1.346 . S
N53 C57 1.345 . S
C54 C55 1.387 . S
C54 C58 1.391 . S
C55 C54 1.387 . S
C55 C56 1.369 . S
C55 H64 0.929 . S
C56 N53 1.346 . S
C56 C55 1.369 . S
C56 H59 0.928 . S
C57 N53 1.345 . S
C57 C58 1.371 . S
C57 H60 0.931 . S
C58 C54 1.391 . S
C58 C57 1.371 . S
C58 H65 0.930 . S
H59 C56 0.928 . S
H60 C57 0.931 . S
H61 C37 0.930 . S
H62 C34 0.930 . S
H63 C43 0.930 . S
H64 C55 0.929 . S
H65 C58 0.930 . S
C66 C67 1.351 . S
C66 N69 1.368 . S
C66 H71 0.931 . S
C67 C66 1.351 . S
C67 N68 1.373 . S
C67 H95 0.930 . S
N68 C67 1.373 . S
N68 C70 1.340 . S
N69 C66 1.368 . S
N69 C70 1.321 . S
N69 Co72 2.135 . S
C70 N68 1.340 . S
C70 N69 1.321 . S
C70 H94 0.930 . S
H71 C66 0.931 . S
Co72 N69 2.135 . S
Co72 N75 2.121 . S
Co72 O80 2.055 . S
Co72 O83 2.039 . S
Co72 N86 2.140 . S
C73 O74 1.227 . S
C73 O83 1.265 . S
O74 C73 1.227 . S
N75 Co72 2.121 . S
N75 C77 1.375 . S
N75 C78 1.313 . S
C76 C77 1.338 . S
C76 N79 1.377 . S
C76 H96 0.930 . S
C77 N75 1.375 . S
C77 C76 1.338 . S
C77 H81 0.931 . S
C78 N75 1.313 . S
C78 N79 1.344 . S
C78 H82 0.930 . S
N79 C76 1.377 . S
N79 C78 1.344 . S
O80 Co72 2.055 . S
O80 C84 1.253 . S
H81 C77 0.931 . S
H82 C78 0.930 . S
O83 Co72 2.039 . S
O83 C73 1.265 . S
C84 O80 1.253 . S
C84 O85 1.227 . S
O85 C84 1.227 . S
N86 Co72 2.140 . S
N86 C89 1.346 . S
N86 C90 1.345 . S
C87 C88 1.387 . S
C87 C91 1.391 . S
C88 C87 1.387 . S
C88 C89 1.369 . S
C88 H97 0.929 . S
C89 N86 1.346 . S
C89 C88 1.369 . S
C89 H92 0.928 . S
C90 N86 1.345 . S
C90 C91 1.371 . S
C90 H93 0.931 . S
C91 C87 1.391 . S
C91 C90 1.371 . S
C91 H98 0.930 . S
H92 C89 0.928 . S
H93 C90 0.931 . S
H94 C70 0.930 . S
H95 C67 0.930 . S
H96 C76 0.930 . S
H97 C88 0.929 . S
H98 C91 0.930 . S
C99 C100 1.351 . S
C99 N102 1.368 . S
C99 H104 0.931 . S
C100 C99 1.351 . S
C100 N101 1.373 . S
C100 H128 0.930 1_455 S
N101 C100 1.373 . S
N101 C103 1.340 . S
N102 C99 1.368 . S
N102 C103 1.321 . S
N102 Co105 2.135 . S
C103 N101 1.340 . S
C103 N102 1.321 . S
C103 H127 0.930 . S
H104 C99 0.931 . S
Co105 N102 2.135 . S
Co105 N108 2.121 . S
Co105 O113 2.055 . S
Co105 O116 2.039 . S
Co105 N119 2.140 . S
C106 O107 1.227 . S
C106 O116 1.265 . S
O107 C106 1.227 . S
N108 Co105 2.121 . S
N108 C110 1.375 . S
N108 C111 1.313 . S
C109 C110 1.338 . S
C109 N112 1.377 . S
C109 H129 0.930 . S
C110 N108 1.375 . S
C110 C109 1.338 . S
C110 H114 0.931 . S
C111 N108 1.313 . S
C111 N112 1.344 . S
C111 H115 0.930 . S
N112 C109 1.377 . S
N112 C111 1.344 . S
O113 Co105 2.055 . S
O113 C117 1.253 . S
H114 C110 0.931 . S
H115 C111 0.930 . S
O116 Co105 2.039 . S
O116 C106 1.265 . S
C117 O113 1.253 . S
C117 O118 1.227 . S
O118 C117 1.227 . S
N119 Co105 2.140 . S
N119 C122 1.346 . S
N119 C123 1.345 . S
C120 C121 1.387 . S
C120 C124 1.391 . S
C121 C120 1.387 . S
C121 C122 1.369 . S
C121 H130 0.929 . S
C122 N119 1.346 . S
C122 C121 1.369 . S
C122 H125 0.928 . S
C123 N119 1.345 . S
C123 C124 1.371 . S
C123 H126 0.931 . S
C124 C120 1.391 . S
C124 C123 1.371 . S
C124 H131 0.930 . S
H125 C122 0.928 . S
H126 C123 0.931 . S
H127 C103 0.930 . S
H128 C100 0.930 1_655 S
H129 C109 0.930 . S
H130 C121 0.929 . S
H131 C124 0.930 . S
C132 C133 1.351 . S
C132 N135 1.368 . S
C132 H137 0.931 . S
C133 C132 1.351 . S
C133 N134 1.373 . S
C133 H161 0.930 . S
N134 C133 1.373 . S
N134 C136 1.340 . S
N135 C132 1.368 . S
N135 C136 1.321 . S
N135 Co138 2.135 . S
C136 N134 1.340 . S
C136 N135 1.321 . S
C136 H160 0.930 . S
H137 C132 0.931 . S
Co138 N135 2.135 . S
Co138 N141 2.121 . S
Co138 O146 2.055 . S
Co138 O149 2.039 . S
Co138 N152 2.140 . S
C139 O140 1.227 . S
C139 O149 1.265 . S
O140 C139 1.227 . S
N141 Co138 2.121 . S
N141 C143 1.375 . S
N141 C144 1.313 . S
C142 C143 1.338 . S
C142 N145 1.377 . S
C142 H162 0.930 . S
C143 N141 1.375 . S
C143 C142 1.338 . S
C143 H147 0.931 . S
C144 N141 1.313 . S
C144 N145 1.344 . S
C144 H148 0.930 . S
N145 C142 1.377 . S
N145 C144 1.344 . S
O146 Co138 2.055 . S
O146 C150 1.253 . S
H147 C143 0.931 . S
H148 C144 0.930 . S
O149 Co138 2.039 . S
O149 C139 1.265 . S
C150 O146 1.253 . S
C150 O151 1.227 . S
O151 C150 1.227 . S
N152 Co138 2.140 . S
N152 C155 1.346 . S
N152 C156 1.345 . S
C153 C154 1.387 . S
C153 C157 1.391 . S
C154 C153 1.387 . S
C154 C155 1.369 . S
C154 H163 0.929 . S
C155 N152 1.346 . S
C155 C154 1.369 . S
C155 H158 0.928 . S
C156 N152 1.345 . S
C156 C157 1.371 . S
C156 H159 0.931 . S
C157 C153 1.391 . S
C157 C156 1.371 . S
C157 H164 0.930 . S
H158 C155 0.928 . S
H159 C156 0.931 . S
H160 C136 0.930 . S
H161 C133 0.930 . S
H162 C142 0.930 . S
H163 C154 0.929 . S
H164 C157 0.930 . S
C165 C166 1.351 . S
C165 N168 1.368 . S
C165 H170 0.931 . S
C166 C165 1.351 . S
C166 N167 1.373 . S
C166 H194 0.930 1_455 S
N167 C166 1.373 . S
N167 C169 1.340 . S
N168 C165 1.368 . S
N168 C169 1.321 . S
N168 Co171 2.135 . S
C169 N167 1.340 . S
C169 N168 1.321 . S
C169 H193 0.930 . S
H170 C165 0.931 . S
Co171 N168 2.135 . S
Co171 N174 2.121 . S
Co171 O179 2.055 . S
Co171 O182 2.039 . S
Co171 N185 2.140 . S
C172 O173 1.227 . S
C172 O182 1.265 . S
O173 C172 1.227 . S
N174 Co171 2.121 . S
N174 C176 1.375 . S
N174 C177 1.313 . S
C175 C176 1.338 . S
C175 N178 1.377 . S
C175 H195 0.930 . S
C176 N174 1.375 . S
C176 C175 1.338 . S
C176 H180 0.931 . S
C177 N174 1.313 . S
C177 N178 1.344 . S
C177 H181 0.930 . S
N178 C175 1.377 . S
N178 C177 1.344 . S
O179 Co171 2.055 . S
O179 C183 1.253 . S
H180 C176 0.931 . S
H181 C177 0.930 . S
O182 Co171 2.039 . S
O182 C172 1.265 . S
C183 O179 1.253 . S
C183 O184 1.227 . S
O184 C183 1.227 . S
N185 Co171 2.140 . S
N185 C188 1.346 . S
N185 C189 1.345 . S
C186 C187 1.387 . S
C186 C190 1.391 . S
C187 C186 1.387 . S
C187 C188 1.369 . S
C187 H196 0.929 . S
C188 N185 1.346 . S
C188 C187 1.369 . S
C188 H191 0.928 . S
C189 N185 1.345 . S
C189 C190 1.371 . S
C189 H192 0.931 . S
C190 C186 1.391 . S
C190 C189 1.371 . S
C190 H197 0.930 . S
H191 C188 0.928 . S
H192 C189 0.931 . S
H193 C169 0.930 . S
H194 C166 0.930 1_655 S
H195 C175 0.930 . S
H196 C187 0.929 . S
H197 C190 0.930 . S
C198 C199 1.351 . S
C198 N201 1.368 . S
C198 H203 0.931 . S
C199 C198 1.351 . S
C199 N200 1.373 . S
C199 H227 0.930 1_545 S
N200 C199 1.373 . S
N200 C202 1.340 . S
N201 C198 1.368 . S
N201 C202 1.321 . S
N201 Co204 2.135 . S
C202 N200 1.340 . S
C202 N201 1.321 . S
C202 H226 0.930 . S
H203 C198 0.931 . S
Co204 N201 2.135 . S
Co204 N207 2.121 . S
Co204 O212 2.055 . S
Co204 O215 2.039 . S
Co204 N218 2.140 . S
C205 O206 1.227 . S
C205 O215 1.265 . S
O206 C205 1.227 . S
N207 Co204 2.121 . S
N207 C209 1.375 . S
N207 C210 1.313 . S
C208 C209 1.338 . S
C208 N211 1.377 . S
C208 H228 0.930 . S
C209 N207 1.375 . S
C209 C208 1.338 . S
C209 H213 0.931 . S
C210 N207 1.313 . S
C210 N211 1.344 . S
C210 H214 0.930 . S
N211 C208 1.377 . S
N211 C210 1.344 . S
O212 Co204 2.055 . S
O212 C216 1.253 . S
H213 C209 0.931 . S
H214 C210 0.930 . S
O215 Co204 2.039 . S
O215 C205 1.265 . S
C216 O212 1.253 . S
C216 O217 1.227 . S
O217 C216 1.227 . S
N218 Co204 2.140 . S
N218 C221 1.346 . S
N218 C222 1.345 . S
C219 C220 1.387 . S
C219 C223 1.391 . S
C220 C219 1.387 . S
C220 C221 1.369 . S
C220 H229 0.929 . S
C221 N218 1.346 . S
C221 C220 1.369 . S
C221 H224 0.928 . S
C222 N218 1.345 . S
C222 C223 1.371 . S
C222 H225 0.931 . S
C223 C219 1.391 . S
C223 C222 1.371 . S
C223 H230 0.930 . S
H224 C221 0.928 . S
H225 C222 0.931 . S
H226 C202 0.930 . S
H227 C199 0.930 1_565 S
H228 C208 0.930 . S
H229 C220 0.929 . S
H230 C223 0.930 . S
C231 C232 1.351 . S
C231 N234 1.368 . S
C231 H236 0.931 . S
C232 C231 1.351 . S
C232 N233 1.373 . S
C232 H260 0.930 . S
N233 C232 1.373 . S
N233 C235 1.340 . S
N234 C231 1.368 . S
N234 C235 1.321 . S
N234 Co237 2.135 . S
C235 N233 1.340 . S
C235 N234 1.321 . S
C235 H259 0.930 . S
H236 C231 0.931 . S
Co237 N234 2.135 . S
Co237 N240 2.121 . S
Co237 O245 2.055 . S
Co237 O248 2.039 . S
Co237 N251 2.140 . S
C238 O239 1.227 . S
C238 O248 1.265 . S
O239 C238 1.227 . S
N240 Co237 2.121 . S
N240 C242 1.375 . S
N240 C243 1.313 . S
C241 C242 1.338 . S
C241 N244 1.377 . S
C241 H261 0.930 . S
C242 N240 1.375 . S
C242 C241 1.338 . S
C242 H246 0.931 . S
C243 N240 1.313 . S
C243 N244 1.344 . S
C243 H247 0.930 . S
N244 C241 1.377 . S
N244 C243 1.344 . S
O245 Co237 2.055 . S
O245 C249 1.253 . S
H246 C242 0.931 . S
H247 C243 0.930 . S
O248 Co237 2.039 . S
O248 C238 1.265 . S
C249 O245 1.253 . S
C249 O250 1.227 . S
O250 C249 1.227 . S
N251 Co237 2.140 . S
N251 C254 1.346 . S
N251 C255 1.345 . S
C252 C253 1.387 . S
C252 C256 1.391 . S
C253 C252 1.387 . S
C253 C254 1.369 . S
C253 H262 0.929 . S
C254 N251 1.346 . S
C254 C253 1.369 . S
C254 H257 0.928 . S
C255 N251 1.345 . S
C255 C256 1.371 . S
C255 H258 0.931 . S
C256 C252 1.391 . S
C256 C255 1.371 . S
C256 H263 0.930 . S
H257 C254 0.928 . S
H258 C255 0.931 . S
H259 C235 0.930 . S
H260 C232 0.930 . S
H261 C241 0.930 . S
H262 C253 0.929 . S
H263 C256 0.930 . S
C264 C265 1.351 . S
C264 N267 1.368 . S
C264 H269 0.931 . S
C265 C264 1.351 . S
C265 N266 1.373 . S
C265 H293 0.930 1_565 S
N266 C265 1.373 . S
N266 C268 1.340 . S
N267 C264 1.368 . S
N267 C268 1.321 . S
N267 Co270 2.135 . S
C268 N266 1.340 . S
C268 N267 1.321 . S
C268 H292 0.930 . S
H269 C264 0.931 . S
Co270 N267 2.135 . S
Co270 N273 2.121 . S
Co270 O278 2.055 . S
Co270 O281 2.039 . S
Co270 N284 2.140 . S
C271 O272 1.227 . S
C271 O281 1.265 . S
O272 C271 1.227 . S
N273 Co270 2.121 . S
N273 C275 1.375 . S
N273 C276 1.313 . S
C274 C275 1.338 . S
C274 N277 1.377 . S
C274 H294 0.930 . S
C275 N273 1.375 . S
C275 C274 1.338 . S
C275 H279 0.931 . S
C276 N273 1.313 . S
C276 N277 1.344 . S
C276 H280 0.930 . S
N277 C274 1.377 . S
N277 C276 1.344 . S
O278 Co270 2.055 . S
O278 C282 1.253 . S
H279 C275 0.931 . S
H280 C276 0.930 . S
O281 Co270 2.039 . S
O281 C271 1.265 . S
C282 O278 1.253 . S
C282 O283 1.227 . S
O283 C282 1.227 . S
N284 Co270 2.140 . S
N284 C287 1.346 . S
N284 C288 1.345 . S
C285 C286 1.387 . S
C285 C289 1.391 . S
C286 C285 1.387 . S
C286 C287 1.369 . S
C286 H295 0.929 . S
C287 N284 1.346 . S
C287 C286 1.369 . S
C287 H290 0.928 . S
C288 N284 1.345 . S
C288 C289 1.371 . S
C288 H291 0.931 . S
C289 C285 1.391 . S
C289 C288 1.371 . S
C289 H296 0.930 . S
H290 C287 0.928 . S
H291 C288 0.931 . S
H292 C268 0.930 . S
H293 C265 0.930 1_545 S
H294 C274 0.930 . S
H295 C286 0.929 . S
H296 C289 0.930 . S
C297 C298 1.351 . S
C297 N300 1.368 . S
C297 H302 0.931 . S
C298 C297 1.351 . S
C298 N299 1.373 . S
C298 H326 0.930 . S
N299 C298 1.373 . S
N299 C301 1.340 . S
N300 C297 1.368 . S
N300 C301 1.321 . S
N300 Co303 2.135 . S
C301 N299 1.340 . S
C301 N300 1.321 . S
C301 H325 0.930 . S
H302 C297 0.931 . S
Co303 N300 2.135 . S
Co303 N306 2.121 . S
Co303 O311 2.055 . S
Co303 O314 2.039 . S
Co303 N317 2.140 . S
C304 O305 1.227 . S
C304 O314 1.265 . S
O305 C304 1.227 . S
N306 Co303 2.121 . S
N306 C308 1.375 . S
N306 C309 1.313 . S
C307 C308 1.338 . S
C307 N310 1.377 . S
C307 H327 0.930 . S
C308 N306 1.375 . S
C308 C307 1.338 . S
C308 H312 0.931 . S
C309 N306 1.313 . S
C309 N310 1.344 . S
C309 H313 0.930 . S
N310 C307 1.377 . S
N310 C309 1.344 . S
O311 Co303 2.055 . S
O311 C315 1.253 . S
H312 C308 0.931 . S
H313 C309 0.930 . S
O314 Co303 2.039 . S
O314 C304 1.265 . S
C315 O311 1.253 . S
C315 O316 1.227 . S
O316 C315 1.227 . S
N317 Co303 2.140 . S
N317 C320 1.346 . S
N317 C321 1.345 . S
C318 C319 1.387 . S
C318 C322 1.391 . S
C319 C318 1.387 . S
C319 C320 1.369 . S
C319 H328 0.929 . S
C320 N317 1.346 . S
C320 C319 1.369 . S
C320 H323 0.928 . S
C321 N317 1.345 . S
C321 C322 1.371 . S
C321 H324 0.931 . S
C322 C318 1.391 . S
C322 C321 1.371 . S
C322 H329 0.930 . S
H323 C320 0.928 . S
H324 C321 0.931 . S
H325 C301 0.930 . S
H326 C298 0.930 . S
H327 C307 0.930 . S
H328 C319 0.929 . S
H329 C322 0.930 . S
C330 C331 1.351 . S
C330 N333 1.368 . S
C330 H335 0.931 . S
C331 C330 1.351 . S
C331 N332 1.373 . S
C331 H359 0.930 . S
N332 C331 1.373 . S
N332 C334 1.340 . S
N333 C330 1.368 . S
N333 C334 1.321 . S
N333 Co336 2.135 . S
C334 N332 1.340 . S
C334 N333 1.321 . S
C334 H358 0.930 . S
H335 C330 0.931 . S
Co336 N333 2.135 . S
Co336 N339 2.121 . S
Co336 O344 2.055 . S
Co336 O347 2.039 . S
Co336 N350 2.140 . S
C337 O338 1.227 . S
C337 O347 1.265 . S
O338 C337 1.227 . S
N339 Co336 2.121 . S
N339 C341 1.375 . S
N339 C342 1.313 . S
C340 C341 1.338 . S
C340 N343 1.377 . S
C340 H360 0.930 . S
C341 N339 1.375 . S
C341 C340 1.338 . S
C341 H345 0.931 . S
C342 N339 1.313 . S
C342 N343 1.344 . S
C342 H346 0.930 . S
N343 C340 1.377 . S
N343 C342 1.344 . S
O344 Co336 2.055 . S
O344 C348 1.253 . S
H345 C341 0.931 . S
H346 C342 0.930 . S
O347 Co336 2.039 . S
O347 C337 1.265 . S
C348 O344 1.253 . S
C348 O349 1.227 . S
O349 C348 1.227 . S
N350 Co336 2.140 . S
N350 C353 1.346 . S
N350 C354 1.345 . S
C351 C352 1.387 . S
C351 C355 1.391 . S
C352 C351 1.387 . S
C352 C353 1.369 . S
C352 H361 0.929 . S
C353 N350 1.346 . S
C353 C352 1.369 . S
C353 H356 0.928 . S
C354 N350 1.345 . S
C354 C355 1.371 . S
C354 H357 0.931 . S
C355 C351 1.391 . S
C355 C354 1.371 . S
C355 H362 0.930 . S
H356 C353 0.928 . S
H357 C354 0.931 . S
H358 C334 0.930 . S
H359 C331 0.930 . S
H360 C340 0.930 . S
H361 C352 0.929 . S
H362 C355 0.930 . S
C363 C364 1.351 . S
C363 N366 1.368 . S
C363 H368 0.931 . S
C364 C363 1.351 . S
C364 N365 1.373 . S
C364 H392 0.930 1_655 S
N365 C364 1.373 . S
N365 C367 1.340 . S
N366 C363 1.368 . S
N366 C367 1.321 . S
N366 Co369 2.135 . S
C367 N365 1.340 . S
C367 N366 1.321 . S
C367 H391 0.930 . S
H368 C363 0.931 . S
Co369 N366 2.135 . S
Co369 N372 2.121 . S
Co369 O377 2.055 . S
Co369 O380 2.039 . S
Co369 N383 2.140 . S
C370 O371 1.227 . S
C370 O380 1.265 . S
O371 C370 1.227 . S
N372 Co369 2.121 . S
N372 C374 1.375 . S
N372 C375 1.313 . S
C373 C374 1.338 . S
C373 N376 1.377 . S
C373 H393 0.930 . S
C374 N372 1.375 . S
C374 C373 1.338 . S
C374 H378 0.931 . S
C375 N372 1.313 . S
C375 N376 1.344 . S
C375 H379 0.930 . S
N376 C373 1.377 . S
N376 C375 1.344 . S
O377 Co369 2.055 . S
O377 C381 1.253 . S
H378 C374 0.931 . S
H379 C375 0.930 . S
O380 Co369 2.039 . S
O380 C370 1.265 . S
C381 O377 1.253 . S
C381 O382 1.227 . S
O382 C381 1.227 . S
N383 Co369 2.140 . S
N383 C386 1.346 . S
N383 C387 1.345 . S
C384 C385 1.387 . S
C384 C388 1.391 . S
C385 C384 1.387 . S
C385 C386 1.369 . S
C385 H394 0.929 . S
C386 N383 1.346 . S
C386 C385 1.369 . S
C386 H389 0.928 . S
C387 N383 1.345 . S
C387 C388 1.371 . S
C387 H390 0.931 . S
C388 C384 1.391 . S
C388 C387 1.371 . S
C388 H395 0.930 . S
H389 C386 0.928 . S
H390 C387 0.931 . S
H391 C367 0.930 . S
H392 C364 0.930 1_455 S
H393 C373 0.930 . S
H394 C385 0.929 . S
H395 C388 0.930 . S
C396 C397 1.351 . S
C396 N399 1.368 . S
C396 H401 0.931 . S
C397 C396 1.351 . S
C397 N398 1.373 . S
C397 H425 0.930 . S
N398 C397 1.373 . S
N398 C400 1.340 . S
N399 C396 1.368 . S
N399 C400 1.321 . S
N399 Co402 2.135 . S
C400 N398 1.340 . S
C400 N399 1.321 . S
C400 H424 0.930 . S
H401 C396 0.931 . S
Co402 N399 2.135 . S
Co402 N405 2.121 . S
Co402 O410 2.055 . S
Co402 O413 2.039 . S
Co402 N416 2.140 . S
C403 O404 1.227 . S
C403 O413 1.265 . S
O404 C403 1.227 . S
N405 Co402 2.121 . S
N405 C407 1.375 . S
N405 C408 1.313 . S
C406 C407 1.338 . S
C406 N409 1.377 . S
C406 H426 0.930 . S
C407 N405 1.375 . S
C407 C406 1.338 . S
C407 H411 0.931 . S
C408 N405 1.313 . S
C408 N409 1.344 . S
C408 H412 0.930 . S
N409 C406 1.377 . S
N409 C408 1.344 . S
O410 Co402 2.055 . S
O410 C414 1.253 . S
H411 C407 0.931 . S
H412 C408 0.930 . S
O413 Co402 2.039 . S
O413 C403 1.265 . S
C414 O410 1.253 . S
C414 O415 1.227 . S
O415 C414 1.227 . S
N416 Co402 2.140 . S
N416 C419 1.346 . S
N416 C420 1.345 . S
C417 C418 1.387 . S
C417 C421 1.391 . S
C418 C417 1.387 . S
C418 C419 1.369 . S
C418 H427 0.929 . S
C419 N416 1.346 . S
C419 C418 1.369 . S
C419 H422 0.928 . S
C420 N416 1.345 . S
C420 C421 1.371 . S
C420 H423 0.931 . S
C421 C417 1.391 . S
C421 C420 1.371 . S
C421 H428 0.930 . S
H422 C419 0.928 . S
H423 C420 0.931 . S
H424 C400 0.930 . S
H425 C397 0.930 . S
H426 C406 0.930 . S
H427 C418 0.929 . S
H428 C421 0.930 . S
C429 C430 1.351 . S
C429 N432 1.368 . S
C429 H434 0.931 . S
C430 C429 1.351 . S
C430 N431 1.373 . S
C430 H458 0.930 1_655 S
N431 C430 1.373 . S
N431 C433 1.340 . S
N432 C429 1.368 . S
N432 C433 1.321 . S
N432 Co435 2.135 . S
C433 N431 1.340 . S
C433 N432 1.321 . S
C433 H457 0.930 . S
H434 C429 0.931 . S
Co435 N432 2.135 . S
Co435 N438 2.121 . S
Co435 O443 2.055 . S
Co435 O446 2.039 . S
Co435 N449 2.140 . S
C436 O437 1.227 . S
C436 O446 1.265 . S
O437 C436 1.227 . S
N438 Co435 2.121 . S
N438 C440 1.375 . S
N438 C441 1.313 . S
C439 C440 1.338 . S
C439 N442 1.377 . S
C439 H459 0.930 . S
C440 N438 1.375 . S
C440 C439 1.338 . S
C440 H444 0.931 . S
C441 N438 1.313 . S
C441 N442 1.344 . S
C441 H445 0.930 . S
N442 C439 1.377 . S
N442 C441 1.344 . S
O443 Co435 2.055 . S
O443 C447 1.253 . S
H444 C440 0.931 . S
H445 C441 0.930 . S
O446 Co435 2.039 . S
O446 C436 1.265 . S
C447 O443 1.253 . S
C447 O448 1.227 . S
O448 C447 1.227 . S
N449 Co435 2.140 . S
N449 C452 1.346 . S
N449 C453 1.345 . S
C450 C451 1.387 . S
C450 C454 1.391 . S
C451 C450 1.387 . S
C451 C452 1.369 . S
C451 H460 0.929 . S
C452 N449 1.346 . S
C452 C451 1.369 . S
C452 H455 0.928 . S
C453 N449 1.345 . S
C453 C454 1.371 . S
C453 H456 0.931 . S
C454 C450 1.391 . S
C454 C453 1.371 . S
C454 H461 0.930 . S
H455 C452 0.928 . S
H456 C453 0.931 . S
H457 C433 0.930 . S
H458 C430 0.930 1_455 S
H459 C439 0.930 . S
H460 C451 0.929 . S
H461 C454 0.930 . S
C462 C463 1.351 . S
C462 N465 1.368 . S
C462 H467 0.931 . S
C463 C462 1.351 . S
C463 N464 1.373 . S
C463 H491 0.930 1_565 S
N464 C463 1.373 . S
N464 C466 1.340 . S
N465 C462 1.368 . S
N465 C466 1.321 . S
N465 Co468 2.135 . S
C466 N464 1.340 . S
C466 N465 1.321 . S
C466 H490 0.930 . S
H467 C462 0.931 . S
Co468 N465 2.135 . S
Co468 N471 2.121 . S
Co468 O476 2.055 . S
Co468 O479 2.039 . S
Co468 N482 2.140 . S
C469 O470 1.227 . S
C469 O479 1.265 . S
O470 C469 1.227 . S
N471 Co468 2.121 . S
N471 C473 1.375 . S
N471 C474 1.313 . S
C472 C473 1.338 . S
C472 N475 1.377 . S
C472 H492 0.930 . S
C473 N471 1.375 . S
C473 C472 1.338 . S
C473 H477 0.931 . S
C474 N471 1.313 . S
C474 N475 1.344 . S
C474 H478 0.930 . S
N475 C472 1.377 . S
N475 C474 1.344 . S
O476 Co468 2.055 . S
O476 C480 1.253 . S
H477 C473 0.931 . S
H478 C474 0.930 . S
O479 Co468 2.039 . S
O479 C469 1.265 . S
C480 O476 1.253 . S
C480 O481 1.227 . S
O481 C480 1.227 . S
N482 Co468 2.140 . S
N482 C485 1.346 . S
N482 C486 1.345 . S
C483 C484 1.387 . S
C483 C487 1.391 . S
C484 C483 1.387 . S
C484 C485 1.369 . S
C484 H493 0.929 . S
C485 N482 1.346 . S
C485 C484 1.369 . S
C485 H488 0.928 . S
C486 N482 1.345 . S
C486 C487 1.371 . S
C486 H489 0.931 . S
C487 C483 1.391 . S
C487 C486 1.371 . S
C487 H494 0.930 . S
H488 C485 0.928 . S
H489 C486 0.931 . S
H490 C466 0.930 . S
H491 C463 0.930 1_545 S
H492 C472 0.930 . S
H493 C484 0.929 . S
H494 C487 0.930 . S
C495 C496 1.351 . S
C495 N498 1.368 . S
C495 H500 0.931 . S
C496 C495 1.351 . S
C496 N497 1.373 . S
C496 H524 0.930 . S
N497 C496 1.373 . S
N497 C499 1.340 . S
N498 C495 1.368 . S
N498 C499 1.321 . S
N498 Co501 2.135 . S
C499 N497 1.340 . S
C499 N498 1.321 . S
C499 H523 0.930 . S
H500 C495 0.931 . S
Co501 N498 2.135 . S
Co501 N504 2.121 . S
Co501 O509 2.055 . S
Co501 O512 2.039 . S
Co501 N515 2.140 . S
C502 O503 1.227 . S
C502 O512 1.265 . S
O503 C502 1.227 . S
N504 Co501 2.121 . S
N504 C506 1.375 . S
N504 C507 1.313 . S
C505 C506 1.338 . S
C505 N508 1.377 . S
C505 H525 0.930 . S
C506 N504 1.375 . S
C506 C505 1.338 . S
C506 H510 0.931 . S
C507 N504 1.313 . S
C507 N508 1.344 . S
C507 H511 0.930 . S
N508 C505 1.377 . S
N508 C507 1.344 . S
O509 Co501 2.055 . S
O509 C513 1.253 . S
H510 C506 0.931 . S
H511 C507 0.930 . S
O512 Co501 2.039 . S
O512 C502 1.265 . S
C513 O509 1.253 . S
C513 O514 1.227 . S
O514 C513 1.227 . S
N515 Co501 2.140 . S
N515 C518 1.346 . S
N515 C519 1.345 . S
C516 C517 1.387 . S
C516 C520 1.391 . S
C517 C516 1.387 . S
C517 C518 1.369 . S
C517 H526 0.929 . S
C518 N515 1.346 . S
C518 C517 1.369 . S
C518 H521 0.928 . S
C519 N515 1.345 . S
C519 C520 1.371 . S
C519 H522 0.931 . S
C520 C516 1.391 . S
C520 C519 1.371 . S
C520 H527 0.930 . S
H521 C518 0.928 . S
H522 C519 0.931 . S
H523 C499 0.930 . S
H524 C496 0.930 . S
H525 C505 0.930 . S
H526 C517 0.929 . S
H527 C520 0.930 . S
H528 C540 0.930 . S
H529 C542 0.930 . S
H530 C543 0.930 . S
H531 C547 0.959 . S
H532 C547 0.959 . S
H533 C547 0.961 . S
H534 C548 0.960 . S
H535 C548 0.961 . S
H536 C548 0.959 . S
H537 C551 0.929 . S
H538 C552 0.931 . S
H539 C554 0.930 . S
C540 H528 0.930 . S
C540 C541 1.399 . S
C540 C545 1.399 . S
C541 C540 1.399 . S
C541 C542 1.376 . S
C542 H529 0.930 . S
C542 C541 1.376 . S
C542 C543 1.388 . S
C543 H530 0.930 . S
C543 C542 1.388 . S
C543 C544 1.390 . S
C544 C543 1.390 . S
C544 C545 1.394 . S
C544 C550 1.465 . S
C545 C540 1.399 . S
C545 C544 1.394 . S
C545 C546 1.516 . S
C546 C545 1.516 . S
C546 C547 1.502 . S
C546 C548 1.561 . S
C546 C549 1.526 . S
C547 H531 0.959 . S
C547 H532 0.959 . S
C547 H533 0.961 . S
C547 C546 1.502 . S
C548 H534 0.960 . S
C548 H535 0.961 . S
C548 H536 0.959 . S
C548 C546 1.561 . S
C549 C546 1.526 . S
C549 C550 1.396 . S
C549 C554 1.390 . S
C550 C544 1.465 . S
C550 C549 1.396 . S
C550 C551 1.399 . S
C551 H537 0.929 . S
C551 C550 1.399 . S
C551 C552 1.385 . S
C552 H538 0.931 . S
C552 C551 1.385 . S
C552 C553 1.389 . S
C553 C552 1.389 . S
C553 C554 1.387 . S
C554 H539 0.930 . S
C554 C549 1.390 . S
C554 C553 1.387 . S
H555 C567 0.930 . S
H556 C569 0.930 . S
H557 C570 0.930 . S
H558 C574 0.959 . S
H559 C574 0.959 . S
H560 C574 0.961 . S
H561 C575 0.960 . S
H562 C575 0.961 . S
H563 C575 0.959 . S
H564 C578 0.929 . S
H565 C579 0.931 . S
H566 C581 0.930 . S
C567 H555 0.930 . S
C567 C568 1.399 . S
C567 C572 1.399 . S
C568 C567 1.399 . S
C568 C569 1.376 . S
C569 H556 0.930 . S
C569 C568 1.376 . S
C569 C570 1.388 . S
C570 H557 0.930 . S
C570 C569 1.388 . S
C570 C571 1.390 . S
C571 C570 1.390 . S
C571 C572 1.394 . S
C571 C577 1.465 . S
C572 C567 1.399 . S
C572 C571 1.394 . S
C572 C573 1.516 . S
C573 C572 1.516 . S
C573 C574 1.502 . S
C573 C575 1.561 . S
C573 C576 1.526 . S
C574 H558 0.959 . S
C574 H559 0.959 . S
C574 H560 0.961 . S
C574 C573 1.502 . S
C575 H561 0.960 . S
C575 H562 0.961 . S
C575 H563 0.959 . S
C575 C573 1.561 . S
C576 C573 1.526 . S
C576 C577 1.396 . S
C576 C581 1.390 . S
C577 C571 1.465 . S
C577 C576 1.396 . S
C577 C578 1.399 . S
C578 H564 0.929 . S
C578 C577 1.399 . S
C578 C579 1.385 . S
C579 H565 0.931 . S
C579 C578 1.385 . S
C579 C580 1.389 . S
C580 C579 1.389 . S
C580 C581 1.387 . S
C581 H566 0.930 . S
C581 C576 1.390 . S
C581 C580 1.387 . S
H582 C594 0.930 . S
H583 C596 0.930 . S
H584 C597 0.930 . S
H585 C601 0.959 . S
H586 C601 0.959 . S
H587 C601 0.961 . S
H588 C602 0.960 . S
H589 C602 0.961 . S
H590 C602 0.959 . S
H591 C605 0.929 . S
H592 C606 0.931 . S
H593 C608 0.930 . S
C594 H582 0.930 . S
C594 C595 1.399 . S
C594 C599 1.399 . S
C595 C594 1.399 . S
C595 C596 1.376 . S
C596 H583 0.930 . S
C596 C595 1.376 . S
C596 C597 1.388 . S
C597 H584 0.930 . S
C597 C596 1.388 . S
C597 C598 1.390 . S
C598 C597 1.390 . S
C598 C599 1.394 . S
C598 C604 1.465 . S
C599 C594 1.399 . S
C599 C598 1.394 . S
C599 C600 1.516 . S
C600 C599 1.516 . S
C600 C601 1.502 . S
C600 C602 1.561 . S
C600 C603 1.526 . S
C601 H585 0.959 . S
C601 H586 0.959 . S
C601 H587 0.961 . S
C601 C600 1.502 . S
C602 H588 0.960 . S
C602 H589 0.961 . S
C602 H590 0.959 . S
C602 C600 1.561 . S
C603 C600 1.526 . S
C603 C604 1.396 . S
C603 C608 1.390 . S
C604 C598 1.465 . S
C604 C603 1.396 . S
C604 C605 1.399 . S
C605 H591 0.929 . S
C605 C604 1.399 . S
C605 C606 1.385 . S
C606 H592 0.931 . S
C606 C605 1.385 . S
C606 C607 1.389 . S
C607 C606 1.389 . S
C607 C608 1.387 . S
C608 H593 0.930 . S
C608 C603 1.390 . S
C608 C607 1.387 . S
H609 C621 0.930 . S
H610 C623 0.930 . S
H611 C624 0.930 . S
H612 C628 0.959 . S
H613 C628 0.959 . S
H614 C628 0.961 . S
H615 C629 0.960 . S
H616 C629 0.961 . S
H617 C629 0.959 . S
H618 C632 0.929 . S
H619 C633 0.931 . S
H620 C635 0.930 . S
C621 H609 0.930 . S
C621 C622 1.399 . S
C621 C626 1.399 . S
C622 C621 1.399 . S
C622 C623 1.376 . S
C623 H610 0.930 . S
C623 C622 1.376 . S
C623 C624 1.388 . S
C624 H611 0.930 . S
C624 C623 1.388 . S
C624 C625 1.390 . S
C625 C624 1.390 . S
C625 C626 1.394 . S
C625 C631 1.465 . S
C626 C621 1.399 . S
C626 C625 1.394 . S
C626 C627 1.516 . S
C627 C626 1.516 . S
C627 C628 1.502 . S
C627 C629 1.561 . S
C627 C630 1.526 . S
C628 H612 0.959 . S
C628 H613 0.959 . S
C628 H614 0.961 . S
C628 C627 1.502 . S
C629 H615 0.960 . S
C629 H616 0.961 . S
C629 H617 0.959 . S
C629 C627 1.561 . S
C630 C627 1.526 . S
C630 C631 1.396 . S
C630 C635 1.390 . S
C631 C625 1.465 . S
C631 C630 1.396 . S
C631 C632 1.399 . S
C632 H618 0.929 . S
C632 C631 1.399 . S
C632 C633 1.385 . S
C633 H619 0.931 . S
C633 C632 1.385 . S
C633 C634 1.389 . S
C634 C633 1.389 . S
C634 C635 1.387 . S
C635 H620 0.930 . S
C635 C630 1.390 . S
C635 C634 1.387 . S
H636 C648 0.930 . S
H637 C650 0.930 . S
H638 C651 0.930 . S
H639 C655 0.959 . S
H640 C655 0.959 . S
H641 C655 0.961 . S
H642 C656 0.960 . S
H643 C656 0.961 . S
H644 C656 0.959 . S
H645 C659 0.929 . S
H646 C660 0.931 . S
H647 C662 0.930 . S
C648 H636 0.930 . S
C648 C649 1.399 . S
C648 C653 1.399 . S
C649 C648 1.399 . S
C649 C650 1.376 . S
C650 H637 0.930 . S
C650 C649 1.376 . S
C650 C651 1.388 . S
C651 H638 0.930 . S
C651 C650 1.388 . S
C651 C652 1.390 . S
C652 C651 1.390 . S
C652 C653 1.394 . S
C652 C658 1.465 . S
C653 C648 1.399 . S
C653 C652 1.394 . S
C653 C654 1.516 . S
C654 C653 1.516 . S
C654 C655 1.502 . S
C654 C656 1.561 . S
C654 C657 1.526 . S
C655 H639 0.959 . S
C655 H640 0.959 . S
C655 H641 0.961 . S
C655 C654 1.502 . S
C656 H642 0.960 . S
C656 H643 0.961 . S
C656 H644 0.959 . S
C656 C654 1.561 . S
C657 C654 1.526 . S
C657 C658 1.396 . S
C657 C662 1.390 . S
C658 C652 1.465 . S
C658 C657 1.396 . S
C658 C659 1.399 . S
C659 H645 0.929 . S
C659 C658 1.399 . S
C659 C660 1.385 . S
C660 H646 0.931 . S
C660 C659 1.385 . S
C660 C661 1.389 . S
C661 C660 1.389 . S
C661 C662 1.387 . S
C662 H647 0.930 . S
C662 C657 1.390 . S
C662 C661 1.387 . S
H663 C675 0.930 . S
H664 C677 0.930 . S
H665 C678 0.930 . S
H666 C682 0.959 . S
H667 C682 0.959 . S
H668 C682 0.961 . S
H669 C683 0.960 . S
H670 C683 0.961 . S
H671 C683 0.959 . S
H672 C686 0.929 . S
H673 C687 0.931 . S
H674 C689 0.930 . S
C675 H663 0.930 . S
C675 C676 1.399 . S
C675 C680 1.399 . S
C676 C675 1.399 . S
C676 C677 1.376 . S
C677 H664 0.930 . S
C677 C676 1.376 . S
C677 C678 1.388 . S
C678 H665 0.930 . S
C678 C677 1.388 . S
C678 C679 1.390 . S
C679 C678 1.390 . S
C679 C680 1.394 . S
C679 C685 1.465 . S
C680 C675 1.399 . S
C680 C679 1.394 . S
C680 C681 1.516 . S
C681 C680 1.516 . S
C681 C682 1.502 . S
C681 C683 1.561 . S
C681 C684 1.526 . S
C682 H666 0.959 . S
C682 H667 0.959 . S
C682 H668 0.961 . S
C682 C681 1.502 . S
C683 H669 0.960 . S
C683 H670 0.961 . S
C683 H671 0.959 . S
C683 C681 1.561 . S
C684 C681 1.526 . S
C684 C685 1.396 . S
C684 C689 1.390 . S
C685 C679 1.465 . S
C685 C684 1.396 . S
C685 C686 1.399 . S
C686 H672 0.929 . S
C686 C685 1.399 . S
C686 C687 1.385 . S
C687 H673 0.931 . S
C687 C686 1.385 . S
C687 C688 1.389 . S
C688 C687 1.389 . S
C688 C689 1.387 . S
C689 H674 0.930 . S
C689 C684 1.390 . S
C689 C688 1.387 . S
H690 C702 0.930 . S
H691 C704 0.930 . S
H692 C705 0.930 . S
H693 C709 0.959 . S
H694 C709 0.959 . S
H695 C709 0.961 . S
H696 C710 0.960 . S
H697 C710 0.961 . S
H698 C710 0.959 . S
H699 C713 0.929 . S
H700 C714 0.931 . S
H701 C716 0.930 . S
C702 H690 0.930 . S
C702 C703 1.399 . S
C702 C707 1.399 . S
C703 C702 1.399 . S
C703 C704 1.376 . S
C704 H691 0.930 . S
C704 C703 1.376 . S
C704 C705 1.388 . S
C705 H692 0.930 . S
C705 C704 1.388 . S
C705 C706 1.390 . S
C706 C705 1.390 . S
C706 C707 1.394 . S
C706 C712 1.465 . S
C707 C702 1.399 . S
C707 C706 1.394 . S
C707 C708 1.516 . S
C708 C707 1.516 . S
C708 C709 1.502 . S
C708 C710 1.561 . S
C708 C711 1.526 . S
C709 H693 0.959 . S
C709 H694 0.959 . S
C709 H695 0.961 . S
C709 C708 1.502 . S
C710 H696 0.960 . S
C710 H697 0.961 . S
C710 H698 0.959 . S
C710 C708 1.561 . S
C711 C708 1.526 . S
C711 C712 1.396 . S
C711 C716 1.390 . S
C712 C706 1.465 . S
C712 C711 1.396 . S
C712 C713 1.399 . S
C713 H699 0.929 . S
C713 C712 1.399 . S
C713 C714 1.385 . S
C714 H700 0.931 . S
C714 C713 1.385 . S
C714 C715 1.389 . S
C715 C714 1.389 . S
C715 C716 1.387 . S
C716 H701 0.930 . S
C716 C711 1.390 . S
C716 C715 1.387 . S
H717 C729 0.930 . S
H718 C731 0.930 . S
H719 C732 0.930 . S
H720 C736 0.959 . S
H721 C736 0.959 . S
H722 C736 0.961 . S
H723 C737 0.960 . S
H724 C737 0.961 . S
H725 C737 0.959 . S
H726 C740 0.929 . S
H727 C741 0.931 . S
H728 C743 0.930 . S
C729 H717 0.930 . S
C729 C730 1.399 . S
C729 C734 1.399 . S
C730 C729 1.399 . S
C730 C731 1.376 . S
C731 H718 0.930 . S
C731 C730 1.376 . S
C731 C732 1.388 . S
C732 H719 0.930 . S
C732 C731 1.388 . S
C732 C733 1.390 . S
C733 C732 1.390 . S
C733 C734 1.394 . S
C733 C739 1.465 . S
C734 C729 1.399 . S
C734 C733 1.394 . S
C734 C735 1.516 . S
C735 C734 1.516 . S
C735 C736 1.502 . S
C735 C737 1.561 . S
C735 C738 1.526 . S
C736 H720 0.959 . S
C736 H721 0.959 . S
C736 H722 0.961 . S
C736 C735 1.502 . S
C737 H723 0.960 . S
C737 H724 0.961 . S
C737 H725 0.959 . S
C737 C735 1.561 . S
C738 C735 1.526 . S
C738 C739 1.396 . S
C738 C743 1.390 . S
C739 C733 1.465 . S
C739 C738 1.396 . S
C739 C740 1.399 . S
C740 H726 0.929 . S
C740 C739 1.399 . S
C740 C741 1.385 . S
C741 H727 0.931 . S
C741 C740 1.385 . S
C741 C742 1.389 . S
C742 C741 1.389 . S
C742 C743 1.387 . S
C743 H728 0.930 . S
C743 C738 1.390 . S
C743 C742 1.387 . S
H744 C756 0.930 . S
H745 C758 0.930 . S
H746 C759 0.930 1_554 S
H747 C763 0.959 . S
H748 C763 0.959 . S
H749 C763 0.961 . S
H750 C764 0.960 1_556 S
H751 C764 0.961 . S
H752 C764 0.959 . S
H753 C767 0.929 . S
H754 C768 0.931 . S
H755 C770 0.930 . S
C756 H744 0.930 . S
C756 C757 1.399 1_545 S
C756 C761 1.399 . S
C757 C756 1.399 1_565 S
C757 C758 1.376 . S
C758 H745 0.930 . S
C758 C757 1.376 . S
C758 C759 1.388 . S
C759 H746 0.930 1_556 S
C759 C758 1.388 . S
C759 C760 1.390 . S
C760 C759 1.390 . S
C760 C761 1.394 1_565 S
C760 C766 1.465 1_556 S
C761 C756 1.399 . S
C761 C760 1.394 1_545 S
C761 C762 1.516 . S
C762 C761 1.516 . S
C762 C763 1.502 . S
C762 C764 1.561 1_556 S
C762 C765 1.526 1_556 S
C763 H747 0.959 . S
C763 H748 0.959 . S
C763 H749 0.961 . S
C763 C762 1.502 . S
C764 H750 0.960 1_554 S
C764 H751 0.961 . S
C764 H752 0.959 . S
C764 C762 1.561 1_554 S
C765 C762 1.526 1_554 S
C765 C766 1.396 1_545 S
C765 C770 1.390 . S
C766 C760 1.465 1_554 S
C766 C765 1.396 1_565 S
C766 C767 1.399 . S
C767 H753 0.929 . S
C767 C766 1.399 . S
C767 C768 1.385 . S
C768 H754 0.931 . S
C768 C767 1.385 . S
C768 C769 1.389 1_565 S
C769 C768 1.389 1_545 S
C769 C770 1.387 . S
C770 H755 0.930 . S
C770 C765 1.390 . S
C770 C769 1.387 . S
H771 C783 0.930 . S
H772 C785 0.930 . S
H773 C786 0.930 . S
H774 C790 0.959 . S
H775 C790 0.959 . S
H776 C790 0.961 . S
H777 C791 0.960 . S
H778 C791 0.961 . S
H779 C791 0.959 . S
H780 C794 0.929 . S
H781 C795 0.931 . S
H782 C797 0.930 . S
C783 H771 0.930 . S
C783 C784 1.399 . S
C783 C788 1.399 . S
C784 C783 1.399 . S
C784 C785 1.376 . S
C785 H772 0.930 . S
C785 C784 1.376 . S
C785 C786 1.388 . S
C786 H773 0.930 . S
C786 C785 1.388 . S
C786 C787 1.390 . S
C787 C786 1.390 . S
C787 C788 1.394 . S
C787 C793 1.465 . S
C788 C783 1.399 . S
C788 C787 1.394 . S
C788 C789 1.516 1_556 S
C789 C788 1.516 1_554 S
C789 C790 1.502 . S
C789 C791 1.561 . S
C789 C792 1.526 . S
C790 H774 0.959 . S
C790 H775 0.959 . S
C790 H776 0.961 . S
C790 C789 1.502 . S
C791 H777 0.960 . S
C791 H778 0.961 . S
C791 H779 0.959 . S
C791 C789 1.561 . S
C792 C789 1.526 . S
C792 C793 1.396 1_554 S
C792 C797 1.390 . S
C793 C787 1.465 . S
C793 C792 1.396 1_556 S
C793 C794 1.399 . S
C794 H780 0.929 . S
C794 C793 1.399 . S
C794 C795 1.385 1_556 S
C795 H781 0.931 . S
C795 C794 1.385 1_554 S
C795 C796 1.389 . S
C796 C795 1.389 . S
C796 C797 1.387 . S
C797 H782 0.930 . S
C797 C792 1.390 . S
C797 C796 1.387 . S
H798 C810 0.930 . S
H799 C812 0.930 . S
H800 C813 0.930 . S
H801 C817 0.959 . S
H802 C817 0.959 . S
H803 C817 0.961 . S
H804 C818 0.960 1_455 S
H805 C818 0.961 1_554 S
H806 C818 0.959 . S
H807 C821 0.929 1_556 S
H808 C822 0.931 . S
H809 C824 0.930 . S
C810 H798 0.930 . S
C810 C811 1.399 . S
C810 C815 1.399 . S
C811 C810 1.399 . S
C811 C812 1.376 . S
C812 H799 0.930 . S
C812 C811 1.376 . S
C812 C813 1.388 . S
C813 H800 0.930 . S
C813 C812 1.388 . S
C813 C814 1.390 . S
C814 C813 1.390 . S
C814 C815 1.394 . S
C814 C820 1.465 1_456 S
C815 C810 1.399 . S
C815 C814 1.394 . S
C815 C816 1.516 1_556 S
C816 C815 1.516 1_554 S
C816 C817 1.502 . S
C816 C818 1.561 1_454 S
C816 C819 1.526 1_455 S
C817 H801 0.959 . S
C817 H802 0.959 . S
C817 H803 0.961 . S
C817 C816 1.502 . S
C818 H804 0.960 1_655 S
C818 H805 0.961 1_556 S
C818 H806 0.959 . S
C818 C816 1.561 1_656 S
C819 C816 1.526 1_655 S
C819 C820 1.396 . S
C819 C824 1.390 . S
C820 C814 1.465 1_654 S
C820 C819 1.396 . S
C820 C821 1.399 . S
C821 H807 0.929 1_554 S
C821 C820 1.399 . S
C821 C822 1.385 . S
C822 H808 0.931 . S
C822 C821 1.385 . S
C822 C823 1.389 . S
C823 C822 1.389 . S
C823 C824 1.387 . S
C824 H809 0.930 . S
C824 C819 1.390 . S
C824 C823 1.387 . S
H825 C837 0.930 . S
H826 C839 0.930 . S
H827 C840 0.930 . S
H828 C844 0.959 . S
H829 C844 0.959 . S
H830 C844 0.961 . S
H831 C845 0.960 . S
H832 C845 0.961 . S
H833 C845 0.959 . S
H834 C848 0.929 1_545 S
H835 C849 0.931 . S
H836 C851 0.930 1_655 S
C837 H825 0.930 . S
C837 C838 1.399 . S
C837 C842 1.399 . S
C838 C837 1.399 . S
C838 C839 1.376 1_655 S
C839 H826 0.930 . S
C839 C838 1.376 1_455 S
C839 C840 1.388 1_556 S
C840 H827 0.930 . S
C840 C839 1.388 1_554 S
C840 C841 1.390 . S
C841 C840 1.390 . S
C841 C842 1.394 1_454 S
C841 C847 1.465 1_545 S
C842 C837 1.399 . S
C842 C841 1.394 1_656 S
C842 C843 1.516 1_545 S
C843 C842 1.516 1_565 S
C843 C844 1.502 . S
C843 C845 1.561 1_655 S
C843 C846 1.526 1_656 S
C844 H828 0.959 . S
C844 H829 0.959 . S
C844 H830 0.961 . S
C844 C843 1.502 . S
C845 H831 0.960 . S
C845 H832 0.961 . S
C845 H833 0.959 . S
C845 C843 1.561 1_455 S
C846 C843 1.526 1_454 S
C846 C847 1.396 . S
C846 C851 1.390 . S
C847 C841 1.465 1_565 S
C847 C846 1.396 . S
C847 C848 1.399 . S
C848 H834 0.929 1_565 S
C848 C847 1.399 . S
C848 C849 1.385 . S
C849 H835 0.931 . S
C849 C848 1.385 . S
C849 C850 1.389 . S
C850 C849 1.389 . S
C850 C851 1.387 . S
C851 H836 0.930 1_455 S
C851 C846 1.390 . S
C851 C850 1.387 . S
H852 C864 0.930 . S
H853 C866 0.930 . S
H854 C867 0.930 . S
H855 C871 0.959 . S
H856 C871 0.959 . S
H857 C871 0.961 . S
H858 C872 0.960 . S
H859 C872 0.961 . S
H860 C872 0.959 . S
H861 C875 0.929 . S
H862 C876 0.931 . S
H863 C878 0.930 . S
C864 H852 0.930 . S
C864 C865 1.399 . S
C864 C869 1.399 . S
C865 C864 1.399 . S
C865 C866 1.376 . S
C866 H853 0.930 . S
C866 C865 1.376 . S
C866 C867 1.388 . S
C867 H854 0.930 . S
C867 C866 1.388 . S
C867 C868 1.390 . S
C868 C867 1.390 . S
C868 C869 1.394 . S
C868 C874 1.465 . S
C869 C864 1.399 . S
C869 C868 1.394 . S
C869 C870 1.516 . S
C870 C869 1.516 . S
C870 C871 1.502 . S
C870 C872 1.561 . S
C870 C873 1.526 . S
C871 H855 0.959 . S
C871 H856 0.959 . S
C871 H857 0.961 . S
C871 C870 1.502 . S
C872 H858 0.960 . S
C872 H859 0.961 . S
C872 H860 0.959 . S
C872 C870 1.561 . S
C873 C870 1.526 . S
C873 C874 1.396 . S
C873 C878 1.390 . S
C874 C868 1.465 . S
C874 C873 1.396 . S
C874 C875 1.399 . S
C875 H861 0.929 . S
C875 C874 1.399 . S
C875 C876 1.385 . S
C876 H862 0.931 . S
C876 C875 1.385 . S
C876 C877 1.389 . S
C877 C876 1.389 . S
C877 C878 1.387 . S
C878 H863 0.930 . S
C878 C873 1.390 . S
C878 C877 1.387 . S
H879 C891 0.930 . S
H880 C893 0.930 . S
H881 C894 0.930 . S
H882 C898 0.959 1_655 S
H883 C898 0.959 . S
H884 C898 0.961 . S
H885 C899 0.960 . S
H886 C899 0.961 . S
H887 C899 0.959 . S
H888 C902 0.929 . S
H889 C903 0.931 . S
H890 C905 0.930 . S
C891 H879 0.930 . S
C891 C892 1.399 1_455 S
C891 C896 1.399 . S
C892 C891 1.399 1_655 S
C892 C893 1.376 . S
C893 H880 0.930 . S
C893 C892 1.376 . S
C893 C894 1.388 . S
C894 H881 0.930 . S
C894 C893 1.388 . S
C894 C895 1.390 . S
C895 C894 1.390 . S
C895 C896 1.394 1_655 S
C895 C901 1.465 . S
C896 C891 1.399 . S
C896 C895 1.394 1_455 S
C896 C897 1.516 . S
C897 C896 1.516 . S
C897 C898 1.502 . S
C897 C899 1.561 . S
C897 C900 1.526 . S
C898 H882 0.959 1_455 S
C898 H883 0.959 . S
C898 H884 0.961 . S
C898 C897 1.502 . S
C899 H885 0.960 . S
C899 H886 0.961 . S
C899 H887 0.959 . S
C899 C897 1.561 . S
C900 C897 1.526 . S
C900 C901 1.396 1_455 S
C900 C905 1.390 . S
C901 C895 1.465 . S
C901 C900 1.396 1_655 S
C901 C902 1.399 . S
C902 H888 0.929 . S
C902 C901 1.399 . S
C902 C903 1.385 . S
C903 H889 0.931 . S
C903 C902 1.385 . S
C903 C904 1.389 1_655 S
C904 C903 1.389 1_455 S
C904 C905 1.387 . S
C905 H890 0.930 . S
C905 C900 1.390 . S
C905 C904 1.387 . S
H906 C918 0.930 . S
H907 C920 0.930 . S
H908 C921 0.930 1_455 S
H909 C925 0.959 . S
H910 C925 0.959 . S
H911 C925 0.961 . S
H912 C926 0.960 . S
H913 C926 0.953 1_455 S
H914 C926 0.959 1_455 S
H915 C929 0.929 . S
H916 C930 0.931 . S
H917 C932 0.930 . S
C918 H906 0.930 . S
C918 C919 1.399 1_565 S
C918 C923 1.399 . S
C919 C918 1.399 1_545 S
C919 C920 1.376 . S
C920 H907 0.930 . S
C920 C919 1.376 . S
C920 C921 1.388 . S
C921 H908 0.930 1_655 S
C921 C920 1.388 . S
C921 C922 1.390 . S
C922 C921 1.390 . S
C922 C923 1.394 1_545 S
C922 C928 1.465 1_655 S
C923 C918 1.399 . S
C923 C922 1.394 1_565 S
C923 C924 1.516 . S
C924 C923 1.516 . S
C924 C925 1.502 . S
C924 C926 1.561 . S
C924 C927 1.526 1_655 S
C925 H909 0.959 . S
C925 H910 0.959 . S
C925 H911 0.961 . S
C925 C924 1.502 . S
C926 H912 0.960 . S
C926 H913 0.953 1_655 S
C926 H914 0.959 1_655 S
C926 C924 1.561 . S
C927 C924 1.526 1_455 S
C927 C928 1.396 1_565 S
C927 C932 1.390 . S
C928 C922 1.465 1_455 S
C928 C927 1.396 1_545 S
C928 C929 1.399 . S
C929 H915 0.929 . S
C929 C928 1.399 . S
C929 C930 1.385 . S
C930 H916 0.931 . S
C930 C929 1.385 . S
C930 C931 1.389 1_545 S
C931 C930 1.389 1_565 S
C931 C932 1.387 . S
C932 H917 0.930 . S
C932 C927 1.390 . S
C932 C931 1.387 . S
H933 C945 0.930 . S
H934 C947 0.930 . S
H935 C948 0.930 . S
H936 C952 0.959 1_545 S
H937 C952 0.959 . S
H938 C952 0.961 . S
H939 C953 0.960 . S
H940 C953 0.961 . S
H941 C953 0.959 . S
H942 C956 0.929 . S
H943 C957 0.931 . S
H944 C959 0.930 . S
C945 H933 0.930 . S
C945 C946 1.399 . S
C945 C950 1.399 . S
C946 C945 1.399 . S
C946 C947 1.376 . S
C947 H934 0.930 . S
C947 C946 1.376 . S
C947 C948 1.388 . S
C948 H935 0.930 . S
C948 C947 1.388 . S
C948 C949 1.390 . S
C949 C948 1.390 . S
C949 C950 1.394 . S
C949 C955 1.465 1_565 S
C950 C945 1.399 . S
C950 C949 1.394 . S
C950 C951 1.516 . S
C951 C950 1.516 . S
C951 C952 1.502 . S
C951 C953 1.561 . S
C951 C954 1.526 1_565 S
C952 H936 0.959 1_565 S
C952 H937 0.959 . S
C952 H938 0.961 . S
C952 C951 1.502 . S
C953 H939 0.960 . S
C953 H940 0.961 . S
C953 H941 0.959 . S
C953 C951 1.561 . S
C954 C951 1.526 1_545 S
C954 C955 1.396 . S
C954 C959 1.390 . S
C955 C949 1.465 1_545 S
C955 C954 1.396 . S
C955 C956 1.399 . S
C956 H942 0.929 . S
C956 C955 1.399 . S
C956 C957 1.385 . S
C957 H943 0.931 . S
C957 C956 1.385 . S
C957 C958 1.389 . S
C958 C957 1.389 . S
C958 C959 1.387 . S
C959 H944 0.930 . S
C959 C954 1.390 . S
C959 C958 1.387 . S
H960 C972 0.930 . S
H961 C974 0.930 . S
H962 C975 0.930 . S
H963 C979 0.959 . S
H964 C979 0.959 . S
H965 C979 0.961 1_556 S
H966 C980 0.960 . S
H967 C980 0.961 . S
H968 C980 0.959 . S
H969 C983 0.929 . S
H970 C984 0.931 . S
H971 C986 0.930 . S
C972 H960 0.930 . S
C972 C973 1.399 . S
C972 C977 1.399 . S
C973 C972 1.399 . S
C973 C974 1.376 . S
C974 H961 0.930 . S
C974 C973 1.376 . S
C974 C975 1.388 1_556 S
C975 H962 0.930 . S
C975 C974 1.388 1_554 S
C975 C976 1.390 . S
C976 C975 1.390 . S
C976 C977 1.394 1_554 S
C976 C982 1.465 . S
C977 C972 1.399 . S
C977 C976 1.394 1_556 S
C977 C978 1.516 1_556 S
C978 C977 1.516 1_554 S
C978 C979 1.502 . S
C978 C980 1.561 1_554 S
C978 C981 1.526 . S
C979 H963 0.959 . S
C979 H964 0.959 . S
C979 H965 0.961 1_554 S
C979 C978 1.502 . S
C980 H966 0.960 . S
C980 H967 0.961 . S
C980 H968 0.959 . S
C980 C978 1.561 1_556 S
C981 C978 1.526 . S
C981 C982 1.396 . S
C981 C986 1.390 . S
C982 C976 1.465 . S
C982 C981 1.396 . S
C982 C983 1.399 . S
C983 H969 0.929 . S
C983 C982 1.399 . S
C983 C984 1.385 . S
C984 H970 0.931 . S
C984 C983 1.385 . S
C984 C985 1.389 . S
C985 C984 1.389 . S
C985 C986 1.387 . S
C986 H971 0.930 . S
C986 C981 1.390 . S
C986 C985 1.387 . S
H987 C999 0.930 1_554 S
H988 C1001 0.930 . S
H989 C1002 0.930 . S
H990 C1006 0.959 . S
H991 C1006 0.959 . S
H992 C1006 0.961 . S
H993 C1007 0.960 . S
H994 C1007 0.961 . S
H995 C1007 0.959 . S
H996 C1010 0.929 1_556 S
H997 C1011 0.931 . S
H998 C1013 0.930 . S
C999 H987 0.930 1_556 S
C999 C1000 1.399 . S
C999 C1004 1.399 1_556 S
C1000 C999 1.399 . S
C1000 C1001 1.376 . S
C1001 H988 0.930 . S
C1001 C1000 1.376 . S
C1001 C1002 1.388 . S
C1002 H989 0.930 . S
C1002 C1001 1.388 . S
C1002 C1003 1.390 . S
C1003 C1002 1.390 . S
C1003 C1004 1.394 1_556 S
C1003 C1009 1.465 1_556 S
C1004 C999 1.399 1_554 S
C1004 C1003 1.394 1_554 S
C1004 C1005 1.516 . S
C1005 C1004 1.516 . S
C1005 C1006 1.502 . S
C1005 C1007 1.561 . S
C1005 C1008 1.526 . S
C1006 H990 0.959 . S
C1006 H991 0.959 . S
C1006 H992 0.961 . S
C1006 C1005 1.502 . S
C1007 H993 0.960 . S
C1007 H994 0.961 . S
C1007 H995 0.959 . S
C1007 C1005 1.561 . S
C1008 C1005 1.526 . S
C1008 C1009 1.396 . S
C1008 C1013 1.390 . S
C1009 C1003 1.465 1_554 S
C1009 C1008 1.396 . S
C1009 C1010 1.399 . S
C1010 H996 0.929 1_554 S
C1010 C1009 1.399 . S
C1010 C1011 1.385 . S
C1011 H997 0.931 . S
C1011 C1010 1.385 . S
C1011 C1012 1.389 . S
C1012 C1011 1.389 . S
C1012 C1013 1.387 . S
C1013 H998 0.930 . S
C1013 C1008 1.390 . S
C1013 C1012 1.387 . S
H1014 C1026 0.930 . S
H1015 C1028 0.930 . S
H1016 C1029 0.930 . S
H1017 C1033 0.959 . S
H1018 C1033 0.959 . S
H1019 C1033 0.961 . S
H1020 C1034 0.960 . S
H1021 C1034 0.961 . S
H1022 C1034 0.959 . S
H1023 C1037 0.929 . S
H1024 C1038 0.931 . S
H1025 C1040 0.930 . S
C1026 H1014 0.930 . S
C1026 C1027 1.399 . S
C1026 C1031 1.399 . S
C1027 C1026 1.399 . S
C1027 C1028 1.376 . S
C1028 H1015 0.930 . S
C1028 C1027 1.376 . S
C1028 C1029 1.388 1_556 S
C1029 H1016 0.930 . S
C1029 C1028 1.388 1_554 S
C1029 C1030 1.390 . S
C1030 C1029 1.390 . S
C1030 C1031 1.394 1_554 S
C1030 C1036 1.465 . S
C1031 C1026 1.399 . S
C1031 C1030 1.394 1_556 S
C1031 C1032 1.516 1_556 S
C1032 C1031 1.516 1_554 S
C1032 C1033 1.502 1_554 S
C1032 C1034 1.561 . S
C1032 C1035 1.526 . S
C1033 H1017 0.959 . S
C1033 H1018 0.959 . S
C1033 H1019 0.961 . S
C1033 C1032 1.502 1_556 S
C1034 H1020 0.960 . S
C1034 H1021 0.961 . S
C1034 H1022 0.959 . S
C1034 C1032 1.561 . S
C1035 C1032 1.526 . S
C1035 C1036 1.396 . S
C1035 C1040 1.390 . S
C1036 C1030 1.465 . S
C1036 C1035 1.396 . S
C1036 C1037 1.399 . S
C1037 H1023 0.929 . S
C1037 C1036 1.399 . S
C1037 C1038 1.385 . S
C1038 H1024 0.931 . S
C1038 C1037 1.385 . S
C1038 C1039 1.389 . S
C1039 C1038 1.389 . S
C1039 C1040 1.387 . S
C1040 H1025 0.930 . S
C1040 C1035 1.390 . S
C1040 C1039 1.387 . S
H1041 C1053 0.930 . S
H1042 C1055 0.930 . S
H1043 C1056 0.930 . S
H1044 C1060 0.959 1_554 S
H1045 C1060 0.959 . S
H1046 C1060 0.961 . S
H1047 C1061 0.960 . S
H1048 C1061 0.961 . S
H1049 C1061 0.959 . S
H1050 C1064 0.929 . S
H1051 C1065 0.931 . S
H1052 C1067 0.930 . S
C1053 H1041 0.930 . S
C1053 C1054 1.399 . S
C1053 C1058 1.399 . S
C1054 C1053 1.399 . S
C1054 C1055 1.376 . S
C1055 H1042 0.930 . S
C1055 C1054 1.376 . S
C1055 C1056 1.388 1_556 S
C1056 H1043 0.930 . S
C1056 C1055 1.388 1_554 S
C1056 C1057 1.390 . S
C1057 C1056 1.390 . S
C1057 C1058 1.394 1_554 S
C1057 C1063 1.465 . S
C1058 C1053 1.399 . S
C1058 C1057 1.394 1_556 S
C1058 C1059 1.516 . S
C1059 C1058 1.516 . S
C1059 C1060 1.502 . S
C1059 C1061 1.561 . S
C1059 C1062 1.526 1_556 S
C1060 H1044 0.959 1_556 S
C1060 H1045 0.959 . S
C1060 H1046 0.961 . S
C1060 C1059 1.502 . S
C1061 H1047 0.960 . S
C1061 H1048 0.961 . S
C1061 H1049 0.959 . S
C1061 C1059 1.561 . S
C1062 C1059 1.526 1_554 S
C1062 C1063 1.396 . S
C1062 C1067 1.390 . S
C1063 C1057 1.465 . S
C1063 C1062 1.396 . S
C1063 C1064 1.399 . S
C1064 H1050 0.929 . S
C1064 C1063 1.399 . S
C1064 C1065 1.385 . S
C1065 H1051 0.931 . S
C1065 C1064 1.385 . S
C1065 C1066 1.389 . S
C1066 C1065 1.389 . S
C1066 C1067 1.387 . S
C1067 H1052 0.930 . S
C1067 C1062 1.390 . S
C1067 C1066 1.387 . S
H1068 C1080 0.930 . S
H1069 C1082 0.930 . S
H1070 C1083 0.930 . S
H1071 C1087 0.959 . S
H1072 C1087 0.959 . S
H1073 C1087 0.961 . S
H1074 C1088 0.960 . S
H1075 C1088 0.961 . S
H1076 C1088 0.959 . S
H1077 C1091 0.929 . S
H1078 C1092 0.931 . S
H1079 C1094 0.930 . S
C1080 H1068 0.930 . S
C1080 C1081 1.399 . S
C1080 C1085 1.399 . S
C1081 C1080 1.399 . S
C1081 C1082 1.376 . S
C1082 H1069 0.930 . S
C1082 C1081 1.376 . S
C1082 C1083 1.388 . S
C1083 H1070 0.930 . S
C1083 C1082 1.388 . S
C1083 C1084 1.390 . S
C1084 C1083 1.390 . S
C1084 C1085 1.394 . S
C1084 C1090 1.465 . S
C1085 C1080 1.399 . S
C1085 C1084 1.394 . S
C1085 C1086 1.516 . S
C1086 C1085 1.516 . S
C1086 C1087 1.502 . S
C1086 C1088 1.561 . S
C1086 C1089 1.526 . S
C1087 H1071 0.959 . S
C1087 H1072 0.959 . S
C1087 H1073 0.961 . S
C1087 C1086 1.502 . S
C1088 H1074 0.960 . S
C1088 H1075 0.961 . S
C1088 H1076 0.959 . S
C1088 C1086 1.561 . S
C1089 C1086 1.526 . S
C1089 C1090 1.396 . S
C1089 C1094 1.390 . S
C1090 C1084 1.465 . S
C1090 C1089 1.396 . S
C1090 C1091 1.399 . S
C1091 H1077 0.929 . S
C1091 C1090 1.399 . S
C1091 C1092 1.385 . S
C1092 H1078 0.931 . S
C1092 C1091 1.385 . S
C1092 C1093 1.389 . S
C1093 C1092 1.389 . S
C1093 C1094 1.387 . S
C1094 H1079 0.930 . S
C1094 C1089 1.390 . S
C1094 C1093 1.387 . S
H1095 C1107 0.930 . S
H1096 C1109 0.930 . S
H1097 C1110 0.930 . S
H1098 C1114 0.959 . S
H1099 C1114 0.959 . S
H1100 C1114 0.961 . S
H1101 C1115 0.960 . S
H1102 C1115 0.961 . S
H1103 C1115 0.959 . S
H1104 C1118 0.929 . S
H1105 C1119 0.931 . S
H1106 C1121 0.930 . S
C1107 H1095 0.930 . S
C1107 C1108 1.399 . S
C1107 C1112 1.399 . S
C1108 C1107 1.399 . S
C1108 C1109 1.376 . S
C1109 H1096 0.930 . S
C1109 C1108 1.376 . S
C1109 C1110 1.388 . S
C1110 H1097 0.930 . S
C1110 C1109 1.388 . S
C1110 C1111 1.390 . S
C1111 C1110 1.390 . S
C1111 C1112 1.394 . S
C1111 C1117 1.465 . S
C1112 C1107 1.399 . S
C1112 C1111 1.394 . S
C1112 C1113 1.516 . S
C1113 C1112 1.516 . S
C1113 C1114 1.502 . S
C1113 C1115 1.561 . S
C1113 C1116 1.526 . S
C1114 H1098 0.959 . S
C1114 H1099 0.959 . S
C1114 H1100 0.961 . S
C1114 C1113 1.502 . S
C1115 H1101 0.960 . S
C1115 H1102 0.961 . S
C1115 H1103 0.959 . S
C1115 C1113 1.561 . S
C1116 C1113 1.526 . S
C1116 C1117 1.396 . S
C1116 C1121 1.390 . S
C1117 C1111 1.465 . S
C1117 C1116 1.396 . S
C1117 C1118 1.399 . S
C1118 H1104 0.929 . S
C1118 C1117 1.399 . S
C1118 C1119 1.385 . S
C1119 H1105 0.931 . S
C1119 C1118 1.385 . S
C1119 C1120 1.389 . S
C1120 C1119 1.389 . S
C1120 C1121 1.387 . S
C1121 H1106 0.930 . S
C1121 C1116 1.390 . S
C1121 C1120 1.387 . S
H1122 C1134 0.930 . S
H1123 C1136 0.930 . S
H1124 C1137 0.930 . S
H1125 C1141 0.959 . S
H1126 C1141 0.959 . S
H1127 C1141 0.961 . S
H1128 C1142 0.960 . S
H1129 C1142 0.961 . S
H1130 C1142 0.959 . S
H1131 C1145 0.929 . S
H1132 C1146 0.931 . S
H1133 C1148 0.930 . S
C1134 H1122 0.930 . S
C1134 C1135 1.399 . S
C1134 C1139 1.399 . S
C1135 C1134 1.399 . S
C1135 C1136 1.376 . S
C1136 H1123 0.930 . S
C1136 C1135 1.376 . S
C1136 C1137 1.388 . S
C1137 H1124 0.930 . S
C1137 C1136 1.388 . S
C1137 C1138 1.390 . S
C1138 C1137 1.390 . S
C1138 C1139 1.394 . S
C1138 C1144 1.465 . S
C1139 C1134 1.399 . S
C1139 C1138 1.394 . S
C1139 C1140 1.516 . S
C1140 C1139 1.516 . S
C1140 C1141 1.502 . S
C1140 C1142 1.561 . S
C1140 C1143 1.526 . S
C1141 H1125 0.959 . S
C1141 H1126 0.959 . S
C1141 H1127 0.961 . S
C1141 C1140 1.502 . S
C1142 H1128 0.960 . S
C1142 H1129 0.961 . S
C1142 H1130 0.959 . S
C1142 C1140 1.561 . S
C1143 C1140 1.526 . S
C1143 C1144 1.396 . S
C1143 C1148 1.390 . S
C1144 C1138 1.465 . S
C1144 C1143 1.396 . S
C1144 C1145 1.399 . S
C1145 H1131 0.929 . S
C1145 C1144 1.399 . S
C1145 C1146 1.385 . S
C1146 H1132 0.931 . S
C1146 C1145 1.385 . S
C1146 C1147 1.389 . S
C1147 C1146 1.389 . S
C1147 C1148 1.387 . S
C1148 H1133 0.930 . S
C1148 C1143 1.390 . S
C1148 C1147 1.387 . S
H1149 C1161 0.930 . S
H1150 C1163 0.930 . S
H1151 C1164 0.930 . S
H1152 C1168 0.959 . S
H1153 C1168 0.959 . S
H1154 C1168 0.961 . S
H1155 C1169 0.960 . S
H1156 C1169 0.961 . S
H1157 C1169 0.959 . S
H1158 C1172 0.929 . S
H1159 C1173 0.931 . S
H1160 C1175 0.930 . S
C1161 H1149 0.930 . S
C1161 C1162 1.399 . S
C1161 C1166 1.399 . S
C1162 C1161 1.399 . S
C1162 C1163 1.376 . S
C1163 H1150 0.930 . S
C1163 C1162 1.376 . S
C1163 C1164 1.388 . S
C1164 H1151 0.930 . S
C1164 C1163 1.388 . S
C1164 C1165 1.390 . S
C1165 C1164 1.390 . S
C1165 C1166 1.394 . S
C1165 C1171 1.465 . S
C1166 C1161 1.399 . S
C1166 C1165 1.394 . S
C1166 C1167 1.516 . S
C1167 C1166 1.516 . S
C1167 C1168 1.502 . S
C1167 C1169 1.561 . S
C1167 C1170 1.526 . S
C1168 H1152 0.959 . S
C1168 H1153 0.959 . S
C1168 H1154 0.961 . S
C1168 C1167 1.502 . S
C1169 H1155 0.960 . S
C1169 H1156 0.961 . S
C1169 H1157 0.959 . S
C1169 C1167 1.561 . S
C1170 C1167 1.526 . S
C1170 C1171 1.396 . S
C1170 C1175 1.390 . S
C1171 C1165 1.465 . S
C1171 C1170 1.396 . S
C1171 C1172 1.399 . S
C1172 H1158 0.929 . S
C1172 C1171 1.399 . S
C1172 C1173 1.385 . S
C1173 H1159 0.931 . S
C1173 C1172 1.385 . S
C1173 C1174 1.389 . S
C1174 C1173 1.389 . S
C1174 C1175 1.387 . S
C1175 H1160 0.930 . S
C1175 C1170 1.390 . S
C1175 C1174 1.387 . S
H1176 C1188 0.930 1_556 S
H1177 C1190 0.930 . S
H1178 C1191 0.930 . S
H1179 C1195 0.959 . S
H1180 C1195 0.959 . S
H1181 C1195 0.961 . S
H1182 C1196 0.960 . S
H1183 C1196 0.961 . S
H1184 C1196 0.959 . S
H1185 C1199 0.929 1_554 S
H1186 C1200 0.931 . S
H1187 C1202 0.930 . S
C1188 H1176 0.930 1_554 S
C1188 C1189 1.399 . S
C1188 C1193 1.399 1_554 S
C1189 C1188 1.399 . S
C1189 C1190 1.376 . S
C1190 H1177 0.930 . S
C1190 C1189 1.376 . S
C1190 C1191 1.388 . S
C1191 H1178 0.930 . S
C1191 C1190 1.388 . S
C1191 C1192 1.390 . S
C1192 C1191 1.390 . S
C1192 C1193 1.394 1_554 S
C1192 C1198 1.465 1_554 S
C1193 C1188 1.399 1_556 S
C1193 C1192 1.394 1_556 S
C1193 C1194 1.516 . S
C1194 C1193 1.516 . S
C1194 C1195 1.502 . S
C1194 C1196 1.561 . S
C1194 C1197 1.526 . S
C1195 H1179 0.959 . S
C1195 H1180 0.959 . S
C1195 H1181 0.961 . S
C1195 C1194 1.502 . S
C1196 H1182 0.960 . S
C1196 H1183 0.961 . S
C1196 H1184 0.959 . S
C1196 C1194 1.561 . S
C1197 C1194 1.526 . S
C1197 C1198 1.396 . S
C1197 C1202 1.390 . S
C1198 C1192 1.465 1_556 S
C1198 C1197 1.396 . S
C1198 C1199 1.399 . S
C1199 H1185 0.929 1_556 S
C1199 C1198 1.399 . S
C1199 C1200 1.385 . S
C1200 H1186 0.931 . S
C1200 C1199 1.385 . S
C1200 C1201 1.389 . S
C1201 C1200 1.389 . S
C1201 C1202 1.387 . S
C1202 H1187 0.930 . S
C1202 C1197 1.390 . S
C1202 C1201 1.387 . S
H1203 C1215 0.930 . S
H1204 C1217 0.930 . S
H1205 C1218 0.930 . S
H1206 C1222 0.959 . S
H1207 C1222 0.959 . S
H1208 C1222 0.961 1_554 S
H1209 C1223 0.960 . S
H1210 C1223 0.961 . S
H1211 C1223 0.959 . S
H1212 C1226 0.929 . S
H1213 C1227 0.931 . S
H1214 C1229 0.930 . S
C1215 H1203 0.930 . S
C1215 C1216 1.399 . S
C1215 C1220 1.399 . S
C1216 C1215 1.399 . S
C1216 C1217 1.376 . S
C1217 H1204 0.930 . S
C1217 C1216 1.376 . S
C1217 C1218 1.388 1_554 S
C1218 H1205 0.930 . S
C1218 C1217 1.388 1_556 S
C1218 C1219 1.390 . S
C1219 C1218 1.390 . S
C1219 C1220 1.394 1_556 S
C1219 C1225 1.465 . S
C1220 C1215 1.399 . S
C1220 C1219 1.394 1_554 S
C1220 C1221 1.516 1_554 S
C1221 C1220 1.516 1_556 S
C1221 C1222 1.502 . S
C1221 C1223 1.561 1_556 S
C1221 C1224 1.526 . S
C1222 H1206 0.959 . S
C1222 H1207 0.959 . S
C1222 H1208 0.961 1_556 S
C1222 C1221 1.502 . S
C1223 H1209 0.960 . S
C1223 H1210 0.961 . S
C1223 H1211 0.959 . S
C1223 C1221 1.561 1_554 S
C1224 C1221 1.526 . S
C1224 C1225 1.396 . S
C1224 C1229 1.390 . S
C1225 C1219 1.465 . S
C1225 C1224 1.396 . S
C1225 C1226 1.399 . S
C1226 H1212 0.929 . S
C1226 C1225 1.399 . S
C1226 C1227 1.385 . S
C1227 H1213 0.931 . S
C1227 C1226 1.385 . S
C1227 C1228 1.389 . S
C1228 C1227 1.389 . S
C1228 C1229 1.387 . S
C1229 H1214 0.930 . S
C1229 C1224 1.390 . S
C1229 C1228 1.387 . S
H1230 C1242 0.930 1_556 S
H1231 C1244 0.930 . S
H1232 C1245 0.930 . S
H1233 C1249 0.959 . S
H1234 C1249 0.959 . S
H1235 C1249 0.961 . S
H1236 C1250 0.960 . S
H1237 C1250 0.961 . S
H1238 C1250 0.959 . S
H1239 C1253 0.929 1_554 S
H1240 C1254 0.931 . S
H1241 C1256 0.930 . S
C1242 H1230 0.930 1_554 S
C1242 C1243 1.399 . S
C1242 C1247 1.399 1_554 S
C1243 C1242 1.399 . S
C1243 C1244 1.376 . S
C1244 H1231 0.930 . S
C1244 C1243 1.376 . S
C1244 C1245 1.388 . S
C1245 H1232 0.930 . S
C1245 C1244 1.388 . S
C1245 C1246 1.390 . S
C1246 C1245 1.390 . S
C1246 C1247 1.394 1_554 S
C1246 C1252 1.465 1_554 S
C1247 C1242 1.399 1_556 S
C1247 C1246 1.394 1_556 S
C1247 C1248 1.516 . S
C1248 C1247 1.516 . S
C1248 C1249 1.502 . S
C1248 C1250 1.561 . S
C1248 C1251 1.526 . S
C1249 H1233 0.959 . S
C1249 H1234 0.959 . S
C1249 H1235 0.961 . S
C1249 C1248 1.502 . S
C1250 H1236 0.960 . S
C1250 H1237 0.961 . S
C1250 H1238 0.959 . S
C1250 C1248 1.561 . S
C1251 C1248 1.526 . S
C1251 C1252 1.396 . S
C1251 C1256 1.390 . S
C1252 C1246 1.465 1_556 S
C1252 C1251 1.396 . S
C1252 C1253 1.399 . S
C1253 H1239 0.929 1_556 S
C1253 C1252 1.399 . S
C1253 C1254 1.385 . S
C1254 H1240 0.931 . S
C1254 C1253 1.385 . S
C1254 C1255 1.389 . S
C1255 C1254 1.389 . S
C1255 C1256 1.387 . S
C1256 H1241 0.930 . S
C1256 C1251 1.390 . S
C1256 C1255 1.387 . S
H1257 C1269 0.930 . S
H1258 C1271 0.930 . S
H1259 C1272 0.930 . S
H1260 C1276 0.959 . S
H1261 C1276 0.959 . S
H1262 C1276 0.961 1_554 S
H1263 C1277 0.960 . S
H1264 C1277 0.961 . S
H1265 C1277 0.959 . S
H1266 C1280 0.929 . S
H1267 C1281 0.931 . S
H1268 C1283 0.930 . S
C1269 H1257 0.930 . S
C1269 C1270 1.399 . S
C1269 C1274 1.399 . S
C1270 C1269 1.399 . S
C1270 C1271 1.376 . S
C1271 H1258 0.930 . S
C1271 C1270 1.376 . S
C1271 C1272 1.388 1_554 S
C1272 H1259 0.930 . S
C1272 C1271 1.388 1_556 S
C1272 C1273 1.390 . S
C1273 C1272 1.390 . S
C1273 C1274 1.394 1_556 S
C1273 C1279 1.465 . S
C1274 C1269 1.399 . S
C1274 C1273 1.394 1_554 S
C1274 C1275 1.516 . S
C1275 C1274 1.516 . S
C1275 C1276 1.502 1_554 S
C1275 C1277 1.561 . S
C1275 C1278 1.526 1_554 S
C1276 H1260 0.959 . S
C1276 H1261 0.959 . S
C1276 H1262 0.961 1_556 S
C1276 C1275 1.502 1_556 S
C1277 H1263 0.960 . S
C1277 H1264 0.961 . S
C1277 H1265 0.959 . S
C1277 C1275 1.561 . S
C1278 C1275 1.526 1_556 S
C1278 C1279 1.396 . S
C1278 C1283 1.390 . S
C1279 C1273 1.465 . S
C1279 C1278 1.396 . S
C1279 C1280 1.399 . S
C1280 H1266 0.929 . S
C1280 C1279 1.399 . S
C1280 C1281 1.385 . S
C1281 H1267 0.931 . S
C1281 C1280 1.385 . S
C1281 C1282 1.389 . S
C1282 C1281 1.389 . S
C1282 C1283 1.387 . S
C1283 H1268 0.930 . S
C1283 C1278 1.390 . S
C1283 C1282 1.387 . S
H1284 C1296 0.930 . S
H1285 C1298 0.930 . S
H1286 C1299 0.930 . S
H1287 C1303 0.959 . S
H1288 C1303 0.959 . S
H1289 C1303 0.961 . S
H1290 C1304 0.960 . S
H1291 C1304 0.961 . S
H1292 C1304 0.959 . S
H1293 C1307 0.929 . S
H1294 C1308 0.931 . S
H1295 C1310 0.930 . S
C1296 H1284 0.930 . S
C1296 C1297 1.399 . S
C1296 C1301 1.399 . S
C1297 C1296 1.399 . S
C1297 C1298 1.376 . S
C1298 H1285 0.930 . S
C1298 C1297 1.376 . S
C1298 C1299 1.388 . S
C1299 H1286 0.930 . S
C1299 C1298 1.388 . S
C1299 C1300 1.390 . S
C1300 C1299 1.390 . S
C1300 C1301 1.394 . S
C1300 C1306 1.465 . S
C1301 C1296 1.399 . S
C1301 C1300 1.394 . S
C1301 C1302 1.516 . S
C1302 C1301 1.516 . S
C1302 C1303 1.502 . S
C1302 C1304 1.561 . S
C1302 C1305 1.526 . S
C1303 H1287 0.959 . S
C1303 H1288 0.959 . S
C1303 H1289 0.961 . S
C1303 C1302 1.502 . S
C1304 H1290 0.960 . S
C1304 H1291 0.961 . S
C1304 H1292 0.959 . S
C1304 C1302 1.561 . S
C1305 C1302 1.526 . S
C1305 C1306 1.396 . S
C1305 C1310 1.390 . S
C1306 C1300 1.465 . S
C1306 C1305 1.396 . S
C1306 C1307 1.399 . S
C1307 H1293 0.929 . S
C1307 C1306 1.399 . S
C1307 C1308 1.385 . S
C1308 H1294 0.931 . S
C1308 C1307 1.385 . S
C1308 C1309 1.389 . S
C1309 C1308 1.389 . S
C1309 C1310 1.387 . S
C1310 H1295 0.930 . S
C1310 C1305 1.390 . S
C1310 C1309 1.387 . S
H1311 C1323 0.930 . S
H1312 C1325 0.930 . S
H1313 C1326 0.930 . S
H1314 C1330 0.959 . S
H1315 C1330 0.959 . S
H1316 C1330 0.961 . S
H1317 C1331 0.960 . S
H1318 C1331 0.961 . S
H1319 C1331 0.959 . S
H1320 C1334 0.929 . S
H1321 C1335 0.931 . S
H1322 C1337 0.930 . S
C1323 H1311 0.930 . S
C1323 C1324 1.399 . S
C1323 C1328 1.399 . S
C1324 C1323 1.399 . S
C1324 C1325 1.376 . S
C1325 H1312 0.930 . S
C1325 C1324 1.376 . S
C1325 C1326 1.388 . S
C1326 H1313 0.930 . S
C1326 C1325 1.388 . S
C1326 C1327 1.390 . S
C1327 C1326 1.390 . S
C1327 C1328 1.394 . S
C1327 C1333 1.465 . S
C1328 C1323 1.399 . S
C1328 C1327 1.394 . S
C1328 C1329 1.516 . S
C1329 C1328 1.516 . S
C1329 C1330 1.502 . S
C1329 C1331 1.561 . S
C1329 C1332 1.526 . S
C1330 H1314 0.959 . S
C1330 H1315 0.959 . S
C1330 H1316 0.961 . S
C1330 C1329 1.502 . S
C1331 H1317 0.960 . S
C1331 H1318 0.961 . S
C1331 H1319 0.959 . S
C1331 C1329 1.561 . S
C1332 C1329 1.526 . S
C1332 C1333 1.396 . S
C1332 C1337 1.390 . S
C1333 C1327 1.465 . S
C1333 C1332 1.396 . S
C1333 C1334 1.399 . S
C1334 H1320 0.929 . S
C1334 C1333 1.399 . S
C1334 C1335 1.385 . S
C1335 H1321 0.931 . S
C1335 C1334 1.385 . S
C1335 C1336 1.389 . S
C1336 C1335 1.389 . S
C1336 C1337 1.387 . S
C1337 H1322 0.930 . S
C1337 C1332 1.390 . S
C1337 C1336 1.387 . S
H1338 C1350 0.930 . S
H1339 C1352 0.930 . S
H1340 C1353 0.930 . S
H1341 C1357 0.959 . S
H1342 C1357 0.959 . S
H1343 C1357 0.961 . S
H1344 C1358 0.974 . S
H1345 C1358 0.961 . S
H1346 C1358 0.959 . S
H1347 C1361 0.929 . S
H1348 C1362 0.931 . S
H1349 C1364 0.930 . S
C1350 H1338 0.930 . S
C1350 C1351 1.399 . S
C1350 C1355 1.399 . S
C1351 C1350 1.399 . S
C1351 C1352 1.376 . S
C1352 H1339 0.930 . S
C1352 C1351 1.376 . S
C1352 C1353 1.388 . S
C1353 H1340 0.930 . S
C1353 C1352 1.388 . S
C1353 C1354 1.390 . S
C1354 C1353 1.390 . S
C1354 C1355 1.394 . S
C1354 C1360 1.465 . S
C1355 C1350 1.399 . S
C1355 C1354 1.394 . S
C1355 C1356 1.516 . S
C1356 C1355 1.516 . S
C1356 C1357 1.502 . S
C1356 C1358 1.561 . S
C1356 C1359 1.526 . S
C1357 H1341 0.959 . S
C1357 H1342 0.959 . S
C1357 H1343 0.961 . S
C1357 C1356 1.502 . S
C1358 H1344 0.974 . S
C1358 H1345 0.961 . S
C1358 H1346 0.959 . S
C1358 C1356 1.561 . S
C1359 C1356 1.526 . S
C1359 C1360 1.396 . S
C1359 C1364 1.390 . S
C1360 C1354 1.465 . S
C1360 C1359 1.396 . S
C1360 C1361 1.399 . S
C1361 H1347 0.929 . S
C1361 C1360 1.399 . S
C1361 C1362 1.385 . S
C1362 H1348 0.931 . S
C1362 C1361 1.385 . S
C1362 C1363 1.389 . S
C1363 C1362 1.389 . S
C1363 C1364 1.387 . S
C1364 H1349 0.930 . S
C1364 C1359 1.390 . S
C1364 C1363 1.387 . S
H1365 C1377 0.930 . S
H1366 C1379 0.930 . S
H1367 C1380 0.930 . S
H1368 C1384 0.959 . S
H1369 C1384 0.959 . S
H1370 C1384 0.961 . S
H1371 C1385 0.960 . S
H1372 C1385 0.961 . S
H1373 C1385 0.959 . S
H1374 C1388 0.929 . S
H1375 C1389 0.931 . S
H1376 C1391 0.930 . S
C1377 H1365 0.930 . S
C1377 C1378 1.399 . S
C1377 C1382 1.399 . S
C1378 C1377 1.399 . S
C1378 C1379 1.376 . S
C1379 H1366 0.930 . S
C1379 C1378 1.376 . S
C1379 C1380 1.388 . S
C1380 H1367 0.930 . S
C1380 C1379 1.388 . S
C1380 C1381 1.390 . S
C1381 C1380 1.390 . S
C1381 C1382 1.394 . S
C1381 C1387 1.465 . S
C1382 C1377 1.399 . S
C1382 C1381 1.394 . S
C1382 C1383 1.516 . S
C1383 C1382 1.516 . S
C1383 C1384 1.502 . S
C1383 C1385 1.561 . S
C1383 C1386 1.526 . S
C1384 H1368 0.959 . S
C1384 H1369 0.959 . S
C1384 H1370 0.961 . S
C1384 C1383 1.502 . S
C1385 H1371 0.960 . S
C1385 H1372 0.961 . S
C1385 H1373 0.959 . S
C1385 C1383 1.561 . S
C1386 C1383 1.526 . S
C1386 C1387 1.396 . S
C1386 C1391 1.390 . S
C1387 C1381 1.465 . S
C1387 C1386 1.396 . S
C1387 C1388 1.399 . S
C1388 H1374 0.929 . S
C1388 C1387 1.399 . S
C1388 C1389 1.385 . S
C1389 H1375 0.931 . S
C1389 C1388 1.385 . S
C1389 C1390 1.389 . S
C1390 C1389 1.389 . S
C1390 C1391 1.387 . S
C1391 H1376 0.930 . S
C1391 C1386 1.390 . S
C1391 C1390 1.387 . S
H1392 C1404 0.930 . S
H1393 C1406 0.930 . S
H1394 C1407 0.930 . S
H1395 C1411 0.959 . S
H1396 C1411 0.959 . S
H1397 C1411 0.961 . S
H1398 C1412 0.960 . S
H1399 C1412 0.961 . S
H1400 C1412 0.959 . S
H1401 C1415 0.929 . S
H1402 C1416 0.931 . S
H1403 C1418 0.930 . S
C1404 H1392 0.930 . S
C1404 C1405 1.399 . S
C1404 C1409 1.399 . S
C1405 C1404 1.399 . S
C1405 C1406 1.376 . S
C1406 H1393 0.930 . S
C1406 C1405 1.376 . S
C1406 C1407 1.388 . S
C1407 H1394 0.930 . S
C1407 C1406 1.388 . S
C1407 C1408 1.390 . S
C1408 C1407 1.390 . S
C1408 C1409 1.394 . S
C1408 C1414 1.465 . S
C1409 C1404 1.399 . S
C1409 C1408 1.394 . S
C1409 C1410 1.516 . S
C1410 C1409 1.516 . S
C1410 C1411 1.502 . S
C1410 C1412 1.561 . S
C1410 C1413 1.526 . S
C1411 H1395 0.959 . S
C1411 H1396 0.959 . S
C1411 H1397 0.961 . S
C1411 C1410 1.502 . S
C1412 H1398 0.960 . S
C1412 H1399 0.961 . S
C1412 H1400 0.959 . S
C1412 C1410 1.561 . S
C1413 C1410 1.526 . S
C1413 C1414 1.396 . S
C1413 C1418 1.390 . S
C1414 C1408 1.465 . S
C1414 C1413 1.396 . S
C1414 C1415 1.399 . S
C1415 H1401 0.929 . S
C1415 C1414 1.399 . S
C1415 C1416 1.385 . S
C1416 H1402 0.931 . S
C1416 C1415 1.385 . S
C1416 C1417 1.389 . S
C1417 C1416 1.389 . S
C1417 C1418 1.387 . S
C1418 H1403 0.930 . S
C1418 C1413 1.390 . S
C1418 C1417 1.387 . S
H1419 C1431 0.930 . S
H1420 C1433 0.930 . S
H1421 C1434 0.930 . S
H1422 C1438 0.959 . S
H1423 C1438 0.959 . S
H1424 C1438 0.961 . S
H1425 C1439 0.960 . S
H1426 C1439 0.961 . S
H1427 C1439 0.959 . S
H1428 C1442 0.929 . S
H1429 C1443 0.931 . S
H1430 C1445 0.930 . S
C1431 H1419 0.930 . S
C1431 C1432 1.399 . S
C1431 C1436 1.399 . S
C1432 C1431 1.399 . S
C1432 C1433 1.376 . S
C1433 H1420 0.930 . S
C1433 C1432 1.376 . S
C1433 C1434 1.388 . S
C1434 H1421 0.930 . S
C1434 C1433 1.388 . S
C1434 C1435 1.390 . S
C1435 C1434 1.390 . S
C1435 C1436 1.394 . S
C1435 C1441 1.465 . S
C1436 C1431 1.399 . S
C1436 C1435 1.394 . S
C1436 C1437 1.516 . S
C1437 C1436 1.516 . S
C1437 C1438 1.502 . S
C1437 C1439 1.561 . S
C1437 C1440 1.526 . S
C1438 H1422 0.959 . S
C1438 H1423 0.959 . S
C1438 H1424 0.961 . S
C1438 C1437 1.502 . S
C1439 H1425 0.960 . S
C1439 H1426 0.961 . S
C1439 H1427 0.959 . S
C1439 C1437 1.561 . S
C1440 C1437 1.526 . S
C1440 C1441 1.396 . S
C1440 C1445 1.390 . S
C1441 C1435 1.465 . S
C1441 C1440 1.396 . S
C1441 C1442 1.399 . S
C1442 H1428 0.929 . S
C1442 C1441 1.399 . S
C1442 C1443 1.385 . S
C1443 H1429 0.931 . S
C1443 C1442 1.385 . S
C1443 C1444 1.389 . S
C1444 C1443 1.389 . S
C1444 C1445 1.387 . S
C1445 H1430 0.930 . S
C1445 C1440 1.390 . S
C1445 C1444 1.387 . S
H1446 C1458 0.930 . S
H1447 C1460 0.930 . S
H1448 C1461 0.930 . S
H1449 C1465 0.959 . S
H1450 C1465 0.959 . S
H1451 C1465 0.961 . S
H1452 C1466 0.960 . S
H1453 C1466 0.961 . S
H1454 C1466 0.959 . S
H1455 C1469 0.929 . S
H1456 C1470 0.931 . S
H1457 C1472 0.930 . S
C1458 H1446 0.930 . S
C1458 C1459 1.399 . S
C1458 C1463 1.399 . S
C1459 C1458 1.399 . S
C1459 C1460 1.376 . S
C1460 H1447 0.930 . S
C1460 C1459 1.376 . S
C1460 C1461 1.388 . S
C1461 H1448 0.930 . S
C1461 C1460 1.388 . S
C1461 C1462 1.390 . S
C1462 C1461 1.390 . S
C1462 C1463 1.394 . S
C1462 C1468 1.465 . S
C1463 C1458 1.399 . S
C1463 C1462 1.394 . S
C1463 C1464 1.516 . S
C1464 C1463 1.516 . S
C1464 C1465 1.502 . S
C1464 C1466 1.561 . S
C1464 C1467 1.526 . S
C1465 H1449 0.959 . S
C1465 H1450 0.959 . S
C1465 H1451 0.961 . S
C1465 C1464 1.502 . S
C1466 H1452 0.960 . S
C1466 H1453 0.961 . S
C1466 H1454 0.959 . S
C1466 C1464 1.561 . S
C1467 C1464 1.526 . S
C1467 C1468 1.396 . S
C1467 C1472 1.390 . S
C1468 C1462 1.465 . S
C1468 C1467 1.396 . S
C1468 C1469 1.399 . S
C1469 H1455 0.929 . S
C1469 C1468 1.399 . S
C1469 C1470 1.385 . S
C1470 H1456 0.931 . S
C1470 C1469 1.385 . S
C1470 C1471 1.389 . S
C1471 C1470 1.389 . S
C1471 C1472 1.387 . S
C1472 H1457 0.930 . S
C1472 C1467 1.390 . S
C1472 C1471 1.387 . S
H1473 C1485 0.930 . S
H1474 C1487 0.930 . S
H1475 C1488 0.930 . S
H1476 C1492 0.959 . S
H1477 C1492 0.959 . S
H1478 C1492 0.961 . S
H1479 C1493 0.960 . S
H1480 C1493 0.961 . S
H1481 C1493 0.959 . S
H1482 C1496 0.929 . S
H1483 C1497 0.931 . S
H1484 C1499 0.930 . S
C1485 H1473 0.930 . S
C1485 C1486 1.399 . S
C1485 C1490 1.399 . S
C1486 C1485 1.399 . S
C1486 C1487 1.376 . S
C1487 H1474 0.930 . S
C1487 C1486 1.376 . S
C1487 C1488 1.388 . S
C1488 H1475 0.930 . S
C1488 C1487 1.388 . S
C1488 C1489 1.390 . S
C1489 C1488 1.390 . S
C1489 C1490 1.394 . S
C1489 C1495 1.465 . S
C1490 C1485 1.399 . S
C1490 C1489 1.394 . S
C1490 C1491 1.516 . S
C1491 C1490 1.516 . S
C1491 C1492 1.502 . S
C1491 C1493 1.561 . S
C1491 C1494 1.526 . S
C1492 H1476 0.959 . S
C1492 H1477 0.959 . S
C1492 H1478 0.961 . S
C1492 C1491 1.502 . S
C1493 H1479 0.960 . S
C1493 H1480 0.961 . S
C1493 H1481 0.959 . S
C1493 C1491 1.561 . S
C1494 C1491 1.526 . S
C1494 C1495 1.396 . S
C1494 C1499 1.390 . S
C1495 C1489 1.465 . S
C1495 C1494 1.396 . S
C1495 C1496 1.399 . S
C1496 H1482 0.929 . S
C1496 C1495 1.399 . S
C1496 C1497 1.385 . S
C1497 H1483 0.931 . S
C1497 C1496 1.385 . S
C1497 C1498 1.389 . S
C1498 C1497 1.389 . S
C1498 C1499 1.387 . S
C1499 H1484 0.930 . S
C1499 C1494 1.390 . S
C1499 C1498 1.387 . S
H1500 C1512 0.930 . S
H1501 C1514 0.930 . S
H1502 C1515 0.930 . S
H1503 C1519 0.959 . S
H1504 C1519 0.959 . S
H1505 C1519 0.961 . S
H1506 C1520 0.960 . S
H1507 C1520 0.961 . S
H1508 C1520 0.959 . S
H1509 C1523 0.929 . S
H1510 C1524 0.931 . S
H1511 C1526 0.930 . S
C1512 H1500 0.930 . S
C1512 C1513 1.399 . S
C1512 C1517 1.399 . S
C1513 C1512 1.399 . S
C1513 C1514 1.376 . S
C1514 H1501 0.930 . S
C1514 C1513 1.376 . S
C1514 C1515 1.388 . S
C1515 H1502 0.930 . S
C1515 C1514 1.388 . S
C1515 C1516 1.390 . S
C1516 C1515 1.390 . S
C1516 C1517 1.394 . S
C1516 C1522 1.465 . S
C1517 C1512 1.399 . S
C1517 C1516 1.394 . S
C1517 C1518 1.516 . S
C1518 C1517 1.516 . S
C1518 C1519 1.502 . S
C1518 C1520 1.561 . S
C1518 C1521 1.526 . S
C1519 H1503 0.959 . S
C1519 H1504 0.959 . S
C1519 H1505 0.961 . S
C1519 C1518 1.502 . S
C1520 H1506 0.960 . S
C1520 H1507 0.961 . S
C1520 H1508 0.959 . S
C1520 C1518 1.561 . S
C1521 C1518 1.526 . S
C1521 C1522 1.396 . S
C1521 C1526 1.390 . S
C1522 C1516 1.465 . S
C1522 C1521 1.396 . S
C1522 C1523 1.399 . S
C1523 H1509 0.929 . S
C1523 C1522 1.399 . S
C1523 C1524 1.385 . S
C1524 H1510 0.931 . S
C1524 C1523 1.385 . S
C1524 C1525 1.389 . S
C1525 C1524 1.389 . S
C1525 C1526 1.387 . S
C1526 H1511 0.930 . S
C1526 C1521 1.390 . S
C1526 C1525 1.387 . S
H1527 C1539 0.930 . S
H1528 C1541 0.930 . S
H1529 C1542 0.930 . S
H1530 C1546 0.959 . S
H1531 C1546 0.959 . S
H1532 C1546 0.961 . S
H1533 C1547 0.960 . S
H1534 C1547 0.961 . S
H1535 C1547 0.959 . S
H1536 C1550 0.929 . S
H1537 C1551 0.931 . S
H1538 C1553 0.930 . S
C1539 H1527 0.930 . S
C1539 C1540 1.399 . S
C1539 C1544 1.399 . S
C1540 C1539 1.399 . S
C1540 C1541 1.376 . S
C1541 H1528 0.930 . S
C1541 C1540 1.376 . S
C1541 C1542 1.388 . S
C1542 H1529 0.930 . S
C1542 C1541 1.388 . S
C1542 C1543 1.390 . S
C1543 C1542 1.390 . S
C1543 C1544 1.394 . S
C1543 C1549 1.465 . S
C1544 C1539 1.399 . S
C1544 C1543 1.394 . S
C1544 C1545 1.516 . S
C1545 C1544 1.516 . S
C1545 C1546 1.502 . S
C1545 C1547 1.561 . S
C1545 C1548 1.526 . S
C1546 H1530 0.959 . S
C1546 H1531 0.959 . S
C1546 H1532 0.961 . S
C1546 C1545 1.502 . S
C1547 H1533 0.960 . S
C1547 H1534 0.961 . S
C1547 H1535 0.959 . S
C1547 C1545 1.561 . S
C1548 C1545 1.526 . S
C1548 C1549 1.396 . S
C1548 C1553 1.390 . S
C1549 C1543 1.465 . S
C1549 C1548 1.396 . S
C1549 C1550 1.399 . S
C1550 H1536 0.929 . S
C1550 C1549 1.399 . S
C1550 C1551 1.385 . S
C1551 H1537 0.931 . S
C1551 C1550 1.385 . S
C1551 C1552 1.389 . S
C1552 C1551 1.389 . S
C1552 C1553 1.387 . S
C1553 H1538 0.930 . S
C1553 C1548 1.390 . S
C1553 C1552 1.387 . S
H1554 C1566 0.930 . S
H1555 C1568 0.930 . S
H1556 C1569 0.930 . S
H1557 C1573 0.959 . S
H1558 C1573 0.959 . S
H1559 C1573 0.961 . S
H1560 C1574 0.960 . S
H1561 C1574 0.961 . S
H1562 C1574 0.959 . S
H1563 C1577 0.929 . S
H1564 C1578 0.931 . S
H1565 C1580 0.930 . S
C1566 H1554 0.930 . S
C1566 C1567 1.399 . S
C1566 C1571 1.399 . S
C1567 C1566 1.399 . S
C1567 C1568 1.376 . S
C1568 H1555 0.930 . S
C1568 C1567 1.376 . S
C1568 C1569 1.388 . S
C1569 H1556 0.930 . S
C1569 C1568 1.388 . S
C1569 C1570 1.390 . S
C1570 C1569 1.390 . S
C1570 C1571 1.394 . S
C1570 C1576 1.465 . S
C1571 C1566 1.399 . S
C1571 C1570 1.394 . S
C1571 C1572 1.516 . S
C1572 C1571 1.516 . S
C1572 C1573 1.502 . S
C1572 C1574 1.561 . S
C1572 C1575 1.526 . S
C1573 H1557 0.959 . S
C1573 H1558 0.959 . S
C1573 H1559 0.961 . S
C1573 C1572 1.502 . S
C1574 H1560 0.960 . S
C1574 H1561 0.961 . S
C1574 H1562 0.959 . S
C1574 C1572 1.561 . S
C1575 C1572 1.526 . S
C1575 C1576 1.396 . S
C1575 C1580 1.390 . S
C1576 C1570 1.465 . S
C1576 C1575 1.396 . S
C1576 C1577 1.399 . S
C1577 H1563 0.929 . S
C1577 C1576 1.399 . S
C1577 C1578 1.385 . S
C1578 H1564 0.931 . S
C1578 C1577 1.385 . S
C1578 C1579 1.389 . S
C1579 C1578 1.389 . S
C1579 C1580 1.387 . S
C1580 H1565 0.930 . S
C1580 C1575 1.390 . S
C1580 C1579 1.387 . S
H1581 C1593 0.930 . S
H1582 C1595 0.930 . S
H1583 C1596 0.930 . S
H1584 C1600 0.959 . S
H1585 C1600 0.959 . S
H1586 C1600 0.961 . S
H1587 C1601 0.960 . S
H1588 C1601 0.961 . S
H1589 C1601 0.959 . S
H1590 C1604 0.929 . S
H1591 C1605 0.931 . S
H1592 C1607 0.930 . S
C1593 H1581 0.930 . S
C1593 C1594 1.399 . S
C1593 C1598 1.399 . S
C1594 C1593 1.399 . S
C1594 C1595 1.376 . S
C1595 H1582 0.930 . S
C1595 C1594 1.376 . S
C1595 C1596 1.388 . S
C1596 H1583 0.930 . S
C1596 C1595 1.388 . S
C1596 C1597 1.390 . S
C1597 C1596 1.390 . S
C1597 C1598 1.394 . S
C1597 C1603 1.465 . S
C1598 C1593 1.399 . S
C1598 C1597 1.394 . S
C1598 C1599 1.516 . S
C1599 C1598 1.516 . S
C1599 C1600 1.502 . S
C1599 C1601 1.561 . S
C1599 C1602 1.526 . S
C1600 H1584 0.959 . S
C1600 H1585 0.959 . S
C1600 H1586 0.961 . S
C1600 C1599 1.502 . S
C1601 H1587 0.960 . S
C1601 H1588 0.961 . S
C1601 H1589 0.959 . S
C1601 C1599 1.561 . S
C1602 C1599 1.526 . S
C1602 C1603 1.396 . S
C1602 C1607 1.390 . S
C1603 C1597 1.465 . S
C1603 C1602 1.396 . S
C1603 C1604 1.399 . S
C1604 H1590 0.929 . S
C1604 C1603 1.399 . S
C1604 C1605 1.385 . S
C1605 H1591 0.931 . S
C1605 C1604 1.385 . S
C1605 C1606 1.389 . S
C1606 C1605 1.389 . S
C1606 C1607 1.387 . S
C1607 H1592 0.930 . S
C1607 C1602 1.390 . S
C1607 C1606 1.387 . S
C541 C18 1.595 . S
C553 C216 1.682 . S
C568 C249 1.693 . S
C580 C51 1.603 . S
C595 C150 1.603 . S
C607 C84 1.650 . S
C622 C183 1.693 . S
C634 C117 1.602 . S
C649 C282 1.627 . S
C661 C480 1.682 . S
C676 C315 1.621 . S
C688 C513 1.685 . S
C703 C414 1.622 . S
C715 C348 1.685 . S
C730 C381 1.697 . S
C742 C447 1.603 . S
C757 N266 2.246 . S
C769 N2 2.270 . S
C784 N299 2.249 . S
C796 N35 2.257 . S
C811 N332 2.266 . S
C823 N68 2.242 . S
C838 N365 2.270 . S
C850 N101 2.246 . S
C865 N398 2.248 . S
C877 N134 2.268 . S
C892 N431 2.260 . S
C904 N167 2.258 . S
C919 N200 2.243 . S
C931 N464 2.272 . S
C946 N233 2.273 . S
C958 N497 2.242 . S
C973 C318 0.563 . S
C985 C7 0.625 . S
C1000 C351 0.696 . S
C1012 C40 0.607 . S
C1027 C384 0.751 . S
C1039 C73 0.716 . S
C1054 C285 0.599 . S
C1066 C106 0.662 . S
C1081 C139 0.717 . S
C1093 C516 0.717 . S
C1108 C172 0.671 . S
C1120 C417 0.761 . S
C1135 C205 0.719 . S
C1147 C450 0.730 . S
C1162 C238 0.717 . S
C1174 C483 0.749 . S
C1189 C54 0.611 . S
C1201 C271 0.596 . S
C1216 C87 0.767 . S
C1228 C304 0.710 . S
C1243 C120 0.655 . S
C1255 C337 0.621 . S
C1270 C21 0.770 . S
C1282 C370 0.714 . S
C1297 C252 0.746 . S
C1309 C403 0.710 . S
C1324 C153 0.716 . S
C1336 C436 0.695 . S
C1351 C186 0.610 . S
C1363 C469 0.627 . S
C1378 C502 0.590 . S
C1390 C219 0.604 . S
C1405 N79 0.482 . S
C1417 N13 0.528 . S
C1432 N112 0.549 . S
C1444 N46 0.471 . S
C1459 N145 0.620 . S
C1471 N211 0.735 . S
C1486 N244 0.666 . S
C1498 N178 0.725 . S
C1513 N277 0.737 . S
C1525 N343 0.675 . S
C1540 N376 0.453 . S
C1552 N310 0.538 . S
C1567 N409 0.734 . S
C1579 N475 0.662 . S
C1594 N442 0.735 . S
C1606 N508 0.704 . S
