# Generated by pormake.
# Topology whw, (6)-cn, num edge types: 1
# Building blocks:
#     Node 0, Type 0, BuildingBlock: JUFBIX_clean_sbu_0, # of connection points: 6
#     Node 1, Type 0, BuildingBlock: JUFBIX_clean_sbu_0, # of connection points: 6
#     Node 2, Type 0, BuildingBlock: JUFBIX_clean_sbu_0, # of connection points: 6
#     Node 3, Type 0, BuildingBlock: JUFBIX_clean_sbu_0, # of connection points: 6
#     Node 4, Type 0, BuildingBlock: JUFBIX_clean_sbu_0, # of connection points: 6
#     Node 5, Type 0, BuildingBlock: JUFBIX_clean_sbu_0, # of connection points: 6
#     Node 6, Type 0, BuildingBlock: JUFBIX_clean_sbu_0, # of connection points: 6
#     Node 7, Type 0, BuildingBlock: JUFBIX_clean_sbu_0, # of connection points: 6
#     Node 8, Type 0, BuildingBlock: JUFBIX_clean_sbu_0, # of connection points: 6
#     Node 9, Type 0, BuildingBlock: JUFBIX_clean_sbu_0, # of connection points: 6
#     Node 10, Type 0, BuildingBlock: JUFBIX_clean_sbu_0, # of connection points: 6
#     Node 11, Type 0, BuildingBlock: JUFBIX_clean_sbu_0, # of connection points: 6
#     Node 12, Type 0, BuildingBlock: JUFBIX_clean_sbu_0, # of connection points: 6
#     Node 13, Type 0, BuildingBlock: JUFBIX_clean_sbu_0, # of connection points: 6
#     Node 14, Type 0, BuildingBlock: JUFBIX_clean_sbu_0, # of connection points: 6
#     Node 15, Type 0, BuildingBlock: JUFBIX_clean_sbu_0, # of connection points: 6
#     Edge 16, Type (0, 0), BuildingBlock: UVAHIK_clean_linker_0, # of connection points: 2
#     Edge 17, Type (0, 0), BuildingBlock: UVAHIK_clean_linker_0, # of connection points: 2
#     Edge 18, Type (0, 0), BuildingBlock: UVAHIK_clean_linker_0, # of connection points: 2
#     Edge 19, Type (0, 0), BuildingBlock: UVAHIK_clean_linker_0, # of connection points: 2
#     Edge 20, Type (0, 0), BuildingBlock: UVAHIK_clean_linker_0, # of connection points: 2
#     Edge 21, Type (0, 0), BuildingBlock: UVAHIK_clean_linker_0, # of connection points: 2
#     Edge 22, Type (0, 0), BuildingBlock: UVAHIK_clean_linker_0, # of connection points: 2
#     Edge 23, Type (0, 0), BuildingBlock: UVAHIK_clean_linker_0, # of connection points: 2
#     Edge 24, Type (0, 0), BuildingBlock: UVAHIK_clean_linker_0, # of connection points: 2
#     Edge 25, Type (0, 0), BuildingBlock: UVAHIK_clean_linker_0, # of connection points: 2
#     Edge 26, Type (0, 0), BuildingBlock: UVAHIK_clean_linker_0, # of connection points: 2
#     Edge 27, Type (0, 0), BuildingBlock: UVAHIK_clean_linker_0, # of connection points: 2
#     Edge 28, Type (0, 0), BuildingBlock: UVAHIK_clean_linker_0, # of connection points: 2
#     Edge 29, Type (0, 0), BuildingBlock: UVAHIK_clean_linker_0, # of connection points: 2
#     Edge 30, Type (0, 0), BuildingBlock: UVAHIK_clean_linker_0, # of connection points: 2
#     Edge 31, Type (0, 0), BuildingBlock: UVAHIK_clean_linker_0, # of connection points: 2
#     Edge 32, Type (0, 0), BuildingBlock: UVAHIK_clean_linker_0, # of connection points: 2
#     Edge 33, Type (0, 0), BuildingBlock: UVAHIK_clean_linker_0, # of connection points: 2
#     Edge 34, Type (0, 0), BuildingBlock: UVAHIK_clean_linker_0, # of connection points: 2
#     Edge 35, Type (0, 0), BuildingBlock: UVAHIK_clean_linker_0, # of connection points: 2
#     Edge 36, Type (0, 0), BuildingBlock: UVAHIK_clean_linker_0, # of connection points: 2
#     Edge 37, Type (0, 0), BuildingBlock: UVAHIK_clean_linker_0, # of connection points: 2
#     Edge 38, Type (0, 0), BuildingBlock: UVAHIK_clean_linker_0, # of connection points: 2
#     Edge 39, Type (0, 0), BuildingBlock: UVAHIK_clean_linker_0, # of connection points: 2
#     Edge 40, Type (0, 0), BuildingBlock: UVAHIK_clean_linker_0, # of connection points: 2
#     Edge 41, Type (0, 0), BuildingBlock: UVAHIK_clean_linker_0, # of connection points: 2
#     Edge 42, Type (0, 0), BuildingBlock: UVAHIK_clean_linker_0, # of connection points: 2
#     Edge 43, Type (0, 0), BuildingBlock: UVAHIK_clean_linker_0, # of connection points: 2
#     Edge 44, Type (0, 0), BuildingBlock: UVAHIK_clean_linker_0, # of connection points: 2
#     Edge 45, Type (0, 0), BuildingBlock: UVAHIK_clean_linker_0, # of connection points: 2
#     Edge 46, Type (0, 0), BuildingBlock: UVAHIK_clean_linker_0, # of connection points: 2
#     Edge 47, Type (0, 0), BuildingBlock: UVAHIK_clean_linker_0, # of connection points: 2
#     Edge 48, Type (0, 0), BuildingBlock: UVAHIK_clean_linker_0, # of connection points: 2
#     Edge 49, Type (0, 0), BuildingBlock: UVAHIK_clean_linker_0, # of connection points: 2
#     Edge 50, Type (0, 0), BuildingBlock: UVAHIK_clean_linker_0, # of connection points: 2
#     Edge 51, Type (0, 0), BuildingBlock: UVAHIK_clean_linker_0, # of connection points: 2
#     Edge 52, Type (0, 0), BuildingBlock: UVAHIK_clean_linker_0, # of connection points: 2
#     Edge 53, Type (0, 0), BuildingBlock: UVAHIK_clean_linker_0, # of connection points: 2
#     Edge 54, Type (0, 0), BuildingBlock: UVAHIK_clean_linker_0, # of connection points: 2
#     Edge 55, Type (0, 0), BuildingBlock: UVAHIK_clean_linker_0, # of connection points: 2
#     Edge 56, Type (0, 0), BuildingBlock: UVAHIK_clean_linker_0, # of connection points: 2
#     Edge 57, Type (0, 0), BuildingBlock: UVAHIK_clean_linker_0, # of connection points: 2
#     Edge 58, Type (0, 0), BuildingBlock: UVAHIK_clean_linker_0, # of connection points: 2
#     Edge 59, Type (0, 0), BuildingBlock: UVAHIK_clean_linker_0, # of connection points: 2
#     Edge 60, Type (0, 0), BuildingBlock: UVAHIK_clean_linker_0, # of connection points: 2
#     Edge 61, Type (0, 0), BuildingBlock: UVAHIK_clean_linker_0, # of connection points: 2
#     Edge 62, Type (0, 0), BuildingBlock: UVAHIK_clean_linker_0, # of connection points: 2
#     Edge 63, Type (0, 0), BuildingBlock: UVAHIK_clean_linker_0, # of connection points: 2
# Relax obj value: 0.828
# Max RMSD: 0.254
# Mean RMSD: 0.250
data_MOF--net-whw--node1-JUFBIX_clean_sbu_0--edge1-UVAHIK_clean_linker_0
_symmetry_space_group_name_H-M    P1
_symmetry_Int_Tables_number       1
_symmetry_cell_setting            triclinic
loop_
_symmetry_equiv_pos_as_xyz
'x, y, z'
_cell_length_a     64.518414
_cell_length_b     64.628324
_cell_length_c     33.33827
_cell_angle_alpha  85.943188
_cell_angle_beta   89.877044
_cell_angle_gamma 88.497625
loop_
_atom_site_label
_atom_site_type_symbol
_atom_site_fract_x
_atom_site_fract_y
_atom_site_fract_z
_atom_type_partial_charge
Co0 Co 0.01113 0.11142 0.13751 0.0
C1 C 0.99262 0.07879 0.10343 0.0
Co2 Co 0.98121 0.11981 0.10874 0.0
C3 C 0.04203 0.10816 0.19923 0.0
C4 C 0.05216 0.09341 0.14687 0.0
N5 N 0.03583 0.10361 0.16243 0.0
N6 N 0.06163 0.10142 0.20712 0.0
C7 C 0.06817 0.09221 0.17425 0.0
H8 H 0.03268 0.11711 0.21914 0.0
H9 H 0.05257 0.08772 0.11713 0.0
C10 C -0.00065 0.15159 0.14613 0.0
N11 N 0.95678 0.12751 0.08253 0.0
C12 C 0.95287 0.12442 0.04378 0.0
C13 C 0.94114 0.14 0.09391 0.0
N14 N 0.93588 0.13513 0.02965 0.0
C15 C 0.92827 0.14475 0.06142 0.0
C16 C 0.97654 0.10872 0.18931 0.0
O17 O 0.01416 0.13847 0.15196 0.0
O18 O 0.98374 0.14699 0.12567 0.0
O19 O 0.9665 0.11305 0.1569 0.0
O20 O -0.00384 0.10587 0.18739 0.0
O21 O 0.97872 0.09236 0.09291 0.0
H22 H 0.94001 0.14643 0.12296 0.0
H23 H 0.96315 0.11542 0.02571 0.0
O24 O 0.00801 0.08397 0.12368 0.0
O25 O 0.02582 0.11803 0.08802 0.0
O26 O -0.00396 0.12733 0.06055 0.0
C27 C 0.01558 0.12544 0.05754 0.0
H28 H 0.08347 0.08541 0.17016 0.0
H29 H 0.91536 0.15581 0.06055 0.0
Co30 Co 0.13786 0.77089 0.40608 0.0
C31 C 0.17574 0.7509 0.39691 0.0
Co32 Co 0.13794 0.74753 0.36023 0.0
C33 C 0.12193 0.79221 0.47374 0.0
C34 C 0.15127 0.80384 0.45405 0.0
N35 N 0.13701 0.78986 0.44594 0.0
N36 N 0.12624 0.80702 0.49901 0.0
C37 C 0.14475 0.81433 0.48662 0.0
H38 H 0.10822 0.7829 0.47586 0.0
H39 H 0.16554 0.80619 0.43744 0.0
C40 C 0.10091 0.7687 0.36607 0.0
N41 N 0.13795 0.7281 0.32085 0.0
C42 C 0.12761 0.72865 0.28535 0.0
C43 C 0.1472 0.7091 0.32441 0.0
N44 N 0.12983 0.71064 0.26705 0.0
C45 C 0.14226 0.69841 0.29163 0.0
C46 C 0.12781 0.73104 0.43562 0.0
O47 O 0.1093 0.77636 0.39589 0.0
O48 O 0.11076 0.75531 0.34698 0.0
O49 O 0.12869 0.72708 0.39888 0.0
O50 O 0.13165 0.74921 0.44545 0.0
O51 O 0.16536 0.74041 0.3736 0.0
H52 H 0.15645 0.70314 0.34988 0.0
H53 H 0.1179 0.74167 0.274 0.0
O54 O 0.16683 0.76554 0.41457 0.0
O55 O 0.14405 0.79219 0.36579 0.0
O56 O 0.14722 0.76819 0.3222 0.0
C57 C 0.14819 0.78707 0.33039 0.0
H58 H 0.15295 0.82656 0.49987 0.0
H59 H 0.14724 0.68268 0.28659 0.0
Co60 Co 0.47571 0.87403 0.67754 0.0
C61 C 0.49465 0.90043 0.62107 0.0
Co62 Co 0.50453 0.8612 0.65402 0.0
C63 C 0.44595 0.88404 0.7366 0.0
C64 C 0.43551 0.89477 0.67774 0.0
N65 N 0.45174 0.88539 0.69775 0.0
N66 N 0.42665 0.89183 0.7418 0.0
C67 C 0.4199 0.89852 0.70482 0.0
H68 H 0.45512 0.876 0.76032 0.0
H69 H 0.4347 0.89772 0.64543 0.0
C70 C 0.48572 0.83561 0.71206 0.0
N71 N 0.52869 0.85025 0.63408 0.0
C72 C 0.53404 0.85146 0.59504 0.0
C73 C 0.54576 0.84259 0.65388 0.0
N74 N 0.55384 0.84529 0.58948 0.0
C75 C 0.56139 0.83966 0.62639 0.0
C76 C 0.51121 0.8808 0.72275 0.0
O77 O 0.47107 0.84902 0.70838 0.0
O78 O 0.50192 0.83771 0.69058 0.0
O79 O 0.52002 0.87352 0.69268 0.0
O80 O 0.49152 0.88306 0.72255 0.0
O81 O 0.50708 0.88507 0.61834 0.0
H82 H 0.54708 0.84035 0.68626 0.0
H83 H 0.52399 0.85815 0.57131 0.0
O84 O 0.48023 0.89923 0.64697 0.0
O85 O 0.46042 0.86408 0.63286 0.0
O86 O 0.48903 0.84837 0.61468 0.0
C87 C 0.46982 0.8523 0.6092 0.0
H88 H 0.40448 0.90472 0.69772 0.0
H89 H 0.57718 0.83447 0.63306 0.0
Co90 Co 0.38906 0.22197 0.8505 0.0
C91 C 0.42181 0.23726 0.89199 0.0
Co92 Co 0.38163 0.24997 0.8818 0.0
C93 C 0.38955 0.19403 0.78846 0.0
C94 C 0.40634 0.18105 0.83989 0.0
N95 N 0.39576 0.19823 0.82544 0.0
N96 N 0.39562 0.17484 0.7791 0.0
C97 C 0.40633 0.16662 0.81136 0.0
H98 H 0.3808 0.20502 0.76873 0.0
H99 H 0.41332 0.17904 0.86944 0.0
C100 C 0.34804 0.23351 0.84386 0.0
N101 N 0.37408 0.27378 0.90624 0.0
C102 C 0.38128 0.28089 0.94046 0.0
C103 C 0.3598 0.28817 0.89238 0.0
N104 N 0.37197 0.29907 0.94849 0.0
C105 C 0.35838 0.30368 0.91843 0.0
C106 C 0.39349 0.25814 0.80149 0.0
O107 O 0.36137 0.22036 0.83275 0.0
O108 O 0.35369 0.24736 0.86626 0.0
O109 O 0.38703 0.26652 0.83276 0.0
O110 O 0.39565 0.23851 0.80279 0.0
O111 O 0.40924 0.25214 0.89809 0.0
H112 H 0.35113 0.28756 0.86478 0.0
H113 H 0.39306 0.27287 0.95919 0.0
O114 O 0.4165 0.22339 0.8691 0.0
O115 O 0.38311 0.20554 0.89822 0.0
O116 O 0.3773 0.23327 0.93109 0.0
C117 C 0.38013 0.21366 0.93141 0.0
H118 H 0.41341 0.15123 0.81443 0.0
H119 H 0.34859 0.31755 0.91498 0.0
Co120 Co 0.00011 0.84133 0.91886 0.0
C121 C 0.98362 0.81531 0.86518 0.0
Co122 Co 0.97116 0.85293 0.88929 0.0
C123 C 0.03411 0.83681 0.97576 0.0
C124 C 0.03859 0.81822 0.92572 0.0
N125 N 0.02475 0.83115 0.94219 0.0
N126 N 0.0533 0.82812 0.98061 0.0
C127 C 0.05604 0.81625 0.94928 0.0
H128 H 0.02734 0.84784 0.99528 0.0
H129 H 0.03653 0.81125 0.89749 0.0
C130 C 0.98827 0.88045 0.93896 0.0
N131 N 0.94712 0.86325 0.86457 0.0
C132 C 0.94351 0.86387 0.82477 0.0
C133 C 0.92944 0.87068 0.8806 0.0
N134 N 0.92435 0.87128 0.81509 0.0
C135 C 0.91527 0.87546 0.85012 0.0
C136 C 0.96482 0.83129 0.96391 0.0
O137 O 0.00207 0.86624 0.94535 0.0
O138 O 0.97352 0.87772 0.91497 0.0
O139 O 0.95556 0.84118 0.93438 0.0
O140 O 0.98451 0.82936 0.96308 0.0
O141 O 0.96886 0.82862 0.8628 0.0
H142 H 0.92687 0.87208 0.91238 0.0
H143 H 0.95443 0.85804 0.80334 0.0
O144 O -0.00214 0.81692 0.89094 0.0
O145 O 0.0157 0.8528 0.87481 0.0
O146 O 0.98723 0.86384 0.84398 0.0
C147 C 0.00682 0.86095 0.84345 0.0
H148 H 0.06977 0.80698 0.94335 0.0
H149 H 0.89949 0.88119 0.85347 0.0
Co150 Co 0.36793 0.74788 0.1529 0.0
C151 C 0.40103 0.72237 0.14276 0.0
Co152 Co 0.36139 0.72423 0.10944 0.0
C153 C 0.38058 0.76591 0.22766 0.0
C154 C 0.36379 0.7873 0.18707 0.0
N155 N 0.37121 0.76757 0.19111 0.0
N156 N 0.37909 0.78381 0.24657 0.0
C157 C 0.36852 0.79723 0.22088 0.0
H158 H 0.38806 0.75176 0.24037 0.0
H159 H 0.35542 0.79408 0.16108 0.0
C160 C 0.32745 0.74851 0.12253 0.0
N161 N 0.3592 0.70508 0.07004 0.0
C162 C 0.37404 0.70131 0.04245 0.0
C163 C 0.34381 0.69228 0.06205 0.0
N164 N 0.36869 0.68667 0.01764 0.0
C165 C 0.34956 0.68101 0.02983 0.0
C166 C 0.3535 0.71011 0.18693 0.0
O167 O 0.34048 0.7574 0.1436 0.0
O168 O 0.33318 0.73282 0.10382 0.0
O169 O 0.35399 0.70416 0.15128 0.0
O170 O 0.35848 0.72854 0.19321 0.0
O171 O 0.38914 0.71557 0.11681 0.0
H172 H 0.32941 0.69114 0.07864 0.0
H173 H 0.3885 0.70942 0.04035 0.0
O174 O 0.39512 0.73767 0.16216 0.0
O175 O 0.37719 0.76706 0.11184 0.0
O176 O 0.36869 0.74467 0.06855 0.0
C177 C 0.37521 0.76243 0.0757 0.0
H178 H 0.36473 0.81326 0.22584 0.0
H179 H 0.34048 0.66931 0.01691 0.0
Co180 Co 0.49703 0.12436 0.33633 0.0
C181 C 0.52059 0.15407 0.29459 0.0
Co182 Co 0.5272 0.11325 0.31509 0.0
C183 C 0.46343 0.13087 0.38987 0.0
C184 C 0.45708 0.14546 0.33147 0.0
N185 N 0.47177 0.13451 0.35312 0.0
N186 N 0.44397 0.13888 0.39221 0.0
C187 C 0.43995 0.1482 0.35545 0.0
H188 H 0.47164 0.12243 0.41438 0.0
H189 H 0.45855 0.15071 0.30008 0.0
C190 C 0.50327 0.08294 0.35492 0.0
N191 N 0.55246 0.10245 0.29831 0.0
C192 C 0.56463 0.10979 0.26788 0.0
C193 C 0.56294 0.0856 0.31487 0.0
N194 N 0.58216 0.09817 0.2648 0.0
C195 C 0.58113 0.08282 0.29406 0.0
C196 C 0.52838 0.12664 0.39317 0.0
O197 O 0.49107 0.09806 0.36114 0.0
O198 O 0.51939 0.08618 0.33386 0.0
O199 O 0.53917 0.11744 0.36732 0.0
O200 O 0.50966 0.13174 0.38467 0.0
O201 O 0.53471 0.14007 0.29623 0.0
H202 H 0.55785 0.07604 0.34079 0.0
H203 H 0.56072 0.12335 0.24815 0.0
O204 O 0.50302 0.15052 0.31056 0.0
O205 O 0.48452 0.11729 0.28869 0.0
O206 O 0.5148 0.11 0.26256 0.0
C207 C 0.49522 0.11285 0.25845 0.0
H208 H 0.42557 0.15608 0.34615 0.0
H209 H 0.59291 0.07081 0.30047 0.0
Co210 Co 0.11287 0.24076 0.62155 0.0
C211 C 0.14663 0.25456 0.66252 0.0
Co212 Co 0.10638 0.26888 0.65305 0.0
C213 C 0.11657 0.21244 0.55839 0.0
C214 C 0.12854 0.19958 0.61479 0.0
N215 N 0.11928 0.21675 0.59695 0.0
N216 N 0.12376 0.19317 0.55136 0.0
C217 C 0.13123 0.18507 0.58702 0.0
H218 H 0.10966 0.22341 0.53599 0.0
H219 H 0.13314 0.19774 0.64605 0.0
C220 C 0.07369 0.2561 0.60834 0.0
N221 N 0.10079 0.29276 0.67838 0.0
C222 C 0.1069 0.29633 0.71575 0.0
C223 C 0.09132 0.31059 0.66394 0.0
N224 N 0.10174 0.31568 0.72541 0.0
C225 C 0.09191 0.32478 0.69289 0.0
C226 C 0.11718 0.27715 0.5731 0.0
O227 O 0.08561 0.24064 0.60267 0.0
O228 O 0.07913 0.26933 0.63251 0.0
O229 O 0.11398 0.28515 0.60632 0.0
O230 O 0.11932 0.25749 0.57316 0.0
O231 O 0.1339 0.26854 0.67253 0.0
H232 H 0.08464 0.31316 0.63421 0.0
H233 H 0.11541 0.285 0.73521 0.0
O234 O 0.1406 0.2411 0.63958 0.0
O235 O 0.10528 0.2244 0.66973 0.0
O236 O 0.09808 0.25262 0.70003 0.0
C237 C 0.09897 0.23294 0.7009 0.0
H238 H 0.13793 0.16966 0.59309 0.0
H239 H 0.08538 0.34042 0.69041 0.0
Co240 Co 0.87891 0.27894 0.63142 0.0
C241 C 0.90514 0.27887 0.56646 0.0
Co242 Co 0.87252 0.25383 0.59078 0.0
C243 C 0.889 0.29774 0.70666 0.0
C244 C 0.88526 0.32011 0.65659 0.0
N245 N 0.88421 0.29962 0.66687 0.0
N246 N 0.89317 0.31623 0.72142 0.0
C247 C 0.89067 0.33028 0.68977 0.0
H248 H 0.89003 0.28299 0.72413 0.0
H249 H 0.88265 0.32722 0.62661 0.0
C250 C 0.84513 0.25502 0.65397 0.0
N251 N 0.86826 0.23307 0.55518 0.0
C252 C 0.8828 0.22303 0.53378 0.0
C253 C 0.85008 0.22583 0.54311 0.0
N254 N 0.87446 0.20998 0.50849 0.0
C255 C 0.85381 0.2117 0.51463 0.0
C256 C 0.89893 0.24145 0.65365 0.0
O257 O 0.85634 0.26985 0.66338 0.0
O258 O 0.84949 0.24547 0.62277 0.0
O259 O 0.8899 0.23519 0.62304 0.0
O260 O 0.89671 0.26032 0.6616 0.0
O261 O 0.89509 0.26296 0.55924 0.0
H262 H 0.83502 0.23081 0.55372 0.0
H263 H 0.89921 0.22579 0.53587 0.0
O264 O 0.90128 0.28805 0.59825 0.0
O265 O 0.86082 0.29718 0.60024 0.0
O266 O 0.85518 0.27269 0.55932 0.0
C267 C 0.85226 0.29129 0.56877 0.0
H268 H 0.89265 0.34683 0.69029 0.0
H269 H 0.84208 0.20345 0.49956 0.0
Co270 Co 0.63211 0.75015 0.10625 0.0
C271 C 0.66216 0.77479 0.13512 0.0
Co272 Co 0.61951 0.77689 0.13624 0.0
C273 C 0.63779 0.72062 0.04652 0.0
C274 C 0.65818 0.71413 0.09662 0.0
N275 N 0.6432 0.72755 0.0821 0.0
N276 N 0.64873 0.70336 0.03822 0.0
C277 C 0.66156 0.69917 0.06974 0.0
H278 H 0.62567 0.72786 0.02753 0.0
H279 H 0.66605 0.71511 0.12502 0.0
C280 C 0.59009 0.75053 0.11037 0.0
N281 N 0.609 0.79948 0.16065 0.0
C282 C 0.6164 0.80618 0.19496 0.0
C283 C 0.59356 0.81307 0.14922 0.0
N284 N 0.60621 0.82333 0.20581 0.0
C285 C 0.59179 0.82782 0.17708 0.0
C286 C 0.62389 0.785 0.05396 0.0
O287 O 0.60583 0.74126 0.09682 0.0
O288 O 0.5923 0.76722 0.12789 0.0
O289 O 0.61853 0.79241 0.08669 0.0
O290 O 0.63125 0.76645 0.05482 0.0
O291 O 0.64677 0.7858 0.14547 0.0
H292 H 0.58418 0.81223 0.12255 0.0
H293 H 0.62916 0.79855 0.21161 0.0
O294 O 0.65898 0.75883 0.11624 0.0
O295 O 0.63172 0.7339 0.15836 0.0
O296 O 0.62 0.76149 0.18625 0.0
C297 C 0.62525 0.74244 0.1896 0.0
H298 H 0.67267 0.68632 0.07301 0.0
H299 H 0.58042 0.84045 0.17682 0.0
Co300 Co 0.62339 0.23117 0.91935 0.0
C301 C 0.65023 0.23008 0.85548 0.0
Co302 Co 0.61684 0.20575 0.87951 0.0
C303 C 0.61307 0.26119 0.97762 0.0
C304 C 0.64533 0.26161 0.96281 0.0
N305 N 0.62757 0.25221 0.95446 0.0
N306 N 0.62102 0.2757 1.00006 0.0
C307 C 0.64134 0.27607 0.99061 0.0
H308 H 0.59686 0.25729 0.97785 0.0
H309 H 0.66027 0.25804 0.94987 0.0
C310 C 0.59111 0.2058 0.94498 0.0
N311 N 0.61152 0.18505 0.84419 0.0
C312 C 0.60689 0.18714 0.80435 0.0
C313 C 0.61017 0.16456 0.85419 0.0
N314 N 0.60249 0.1688 0.78926 0.0
C315 C 0.60469 0.1546 0.82075 0.0
C316 C 0.64418 0.19402 0.9414 0.0
O317 O 0.6013 0.22167 0.95178 0.0
O318 O 0.59465 0.19657 0.91313 0.0
O319 O 0.63523 0.18768 0.91069 0.0
O320 O 0.64132 0.21276 0.95014 0.0
O321 O 0.63923 0.21493 0.84699 0.0
H322 H 0.6126 0.15734 0.88413 0.0
H323 H 0.60611 0.20196 0.78708 0.0
O324 O 0.64592 0.23987 0.8864 0.0
O325 O 0.60541 0.24942 0.88783 0.0
O326 O 0.59875 0.2242 0.84946 0.0
C327 C 0.59627 0.24302 0.8575 0.0
H328 H 0.65263 0.28574 1.00359 0.0
H329 H 0.60243 0.13811 0.81993 0.0
Co330 Co 0.86778 0.70359 0.37457 0.0
C331 C 0.90383 0.7238 0.38864 0.0
Co332 Co 0.86328 0.73317 0.40265 0.0
C333 C 0.86443 0.67281 0.31742 0.0
C334 C 0.88366 0.66202 0.36716 0.0
N335 N 0.87195 0.67842 0.3526 0.0
N336 N 0.87118 0.65366 0.30902 0.0
C337 C 0.88326 0.64678 0.3404 0.0
H338 H 0.85503 0.68304 0.29736 0.0
H339 H 0.89243 0.6614 0.39486 0.0
C340 C 0.82677 0.71408 0.38549 0.0
N341 N 0.85858 0.7583 0.42446 0.0
C342 C 0.8682 0.76591 0.45586 0.0
C343 C 0.84413 0.77289 0.41259 0.0
N344 N 0.86026 0.78467 0.46434 0.0
C345 C 0.8451 0.78908 0.43704 0.0
C346 C 0.86558 0.73725 0.31817 0.0
O347 O 0.83879 0.70018 0.37256 0.0
O348 O 0.83451 0.72945 0.40109 0.0
O349 O 0.86265 0.74712 0.34951 0.0
O350 O 0.8672 0.71758 0.32214 0.0
O351 O 0.89169 0.73693 0.40362 0.0
H352 H 0.83339 0.77167 0.38806 0.0
H353 H 0.88083 0.75776 0.47199 0.0
O354 O 0.89666 0.70748 0.37539 0.0
O355 O 0.86911 0.68989 0.42698 0.0
O356 O 0.865 0.71925 0.45533 0.0
C357 C 0.86846 0.69973 0.45863 0.0
H358 H 0.89173 0.63208 0.34328 0.0
H359 H 0.83504 0.80277 0.43531 0.0
Co360 Co 0.52345 0.63323 0.62781 0.0
C361 C 0.50472 0.60449 0.58372 0.0
Co362 Co 0.49423 0.64467 0.59972 0.0
C363 C 0.55431 0.62614 0.68883 0.0
C364 C 0.56378 0.61291 0.63446 0.0
N365 N 0.548 0.62339 0.65115 0.0
N366 N 0.57346 0.61797 0.69641 0.0
C367 C 0.57955 0.60965 0.66222 0.0
H368 H 0.5453 0.63473 0.70981 0.0
H369 H 0.56396 0.60831 0.60389 0.0
C370 C 0.51267 0.67232 0.64717 0.0
N371 N 0.46935 0.6542 0.57714 0.0
C372 C 0.4617 0.65039 0.54086 0.0
C373 C 0.45364 0.66381 0.59588 0.0
N374 N 0.44175 0.65687 0.53653 0.0
C375 C 0.4366 0.66539 0.571 0.0
C376 C 0.48885 0.62738 0.67765 0.0
O377 O 0.52725 0.65879 0.6488 0.0
O378 O 0.497 0.66984 0.6251 0.0
O379 O 0.47948 0.63413 0.64578 0.0
O380 O 0.50849 0.62485 0.67652 0.0
O381 O 0.49158 0.61913 0.57554 0.0
H382 H 0.45427 0.66853 0.62634 0.0
H383 H 0.47025 0.64201 0.51888 0.0
O384 O 0.5196 0.60732 0.60731 0.0
O385 O 0.53807 0.64236 0.57934 0.0
O386 O 0.50906 0.65562 0.55344 0.0
C387 C 0.52853 0.65233 0.5503 0.0
H388 H 0.59437 0.60197 0.65749 0.0
H389 H 0.42152 0.67195 0.57795 0.0
Co390 Co 0.97071 0.3776 0.19098 0.0
C391 C 0.99259 0.4085 0.14862 0.0
Co392 Co 0.00077 0.36726 0.16797 0.0
C393 C 0.93671 0.38302 0.24577 0.0
C394 C 0.93212 0.4006 0.18955 0.0
N395 N 0.94567 0.38748 0.20976 0.0
N396 N 0.91806 0.39278 0.24887 0.0
C397 C 0.91511 0.40385 0.21348 0.0
H398 H 0.94357 0.37237 0.26884 0.0
H399 H 0.93442 0.40727 0.15924 0.0
C400 C 0.97915 0.33702 0.21208 0.0
N401 N 0.02579 0.35798 0.14857 0.0
C402 C 0.03281 0.36244 0.11104 0.0
C403 C 0.04121 0.34665 0.16742 0.0
N404 N 0.05197 0.3544 0.10538 0.0
C405 C 0.05741 0.34444 0.14084 0.0
C406 C 0.00394 0.37918 0.24506 0.0
O407 O 0.96466 0.35064 0.21166 0.0
O408 O -0.00384 0.34096 0.19422 0.0
O409 O 0.01414 0.37467 0.21423 0.0
O410 O 0.98429 0.38185 0.24215 0.0
O411 O 0.0053 0.39375 0.14273 0.0
H412 H 0.04075 0.34057 0.19848 0.0
H413 H 0.02407 0.37184 0.08849 0.0
O414 O 0.97679 0.40492 0.17045 0.0
O415 O 0.95767 0.37234 0.1401 0.0
O416 O 0.9874 0.35937 0.12088 0.0
C417 C 0.96837 0.3635 0.11367 0.0
H418 H 0.90168 0.41364 0.20546 0.0
H419 H 0.07188 0.33598 0.14698 0.0
Co420 Co 0.51636 0.36841 0.40131 0.0
C421 C 0.49863 0.33715 0.36173 0.0
Co422 Co 0.48763 0.37765 0.36894 0.0
C423 C 0.54263 0.3626 0.46963 0.0
C424 C 0.55571 0.34769 0.41983 0.0
N425 N 0.5397 0.35996 0.43036 0.0
N426 N 0.55943 0.35191 0.4847 0.0
C427 C 0.56787 0.34268 0.45322 0.0
H428 H 0.53193 0.37141 0.48723 0.0
H429 H 0.55766 0.34171 0.39052 0.0
C430 C 0.50594 0.40969 0.40529 0.0
N431 N 0.46422 0.38624 0.34042 0.0
C432 C 0.45961 0.3815 0.3029 0.0
C433 C 0.44832 0.39857 0.35144 0.0
N434 N 0.44151 0.39037 0.28978 0.0
C435 C 0.43424 0.40108 0.32032 0.0
C436 C 0.48023 0.36413 0.44814 0.0
O437 O 0.51914 0.39573 0.4174 0.0
O438 O 0.49108 0.40498 0.38314 0.0
O439 O 0.47106 0.37169 0.41645 0.0
O440 O 0.49979 0.36161 0.44739 0.0
O441 O 0.48433 0.35066 0.35419 0.0
H442 H 0.44709 0.40532 0.38016 0.0
H443 H 0.46928 0.37137 0.28582 0.0
O444 O 0.51362 0.34132 0.38422 0.0
O445 O 0.53277 0.37447 0.35524 0.0
O446 O 0.50444 0.38258 0.32107 0.0
C447 C 0.52396 0.37895 0.3216 0.0
H448 H 0.58093 0.3318 0.45473 0.0
H449 H 0.41993 0.41021 0.32009 0.0
Co450 Co 0.99348 0.63686 0.86797 0.0
C451 C 0.0123 0.66392 0.8118 0.0
Co452 Co 0.02224 0.62452 0.84202 0.0
C453 C 0.96129 0.64214 0.92568 0.0
C454 C 0.95489 0.66028 0.87081 0.0
N455 N 0.96928 0.64743 0.88918 0.0
N456 N 0.94234 0.65091 0.93092 0.0
C457 C 0.93832 0.66249 0.89641 0.0
H458 H 0.96896 0.63131 0.94733 0.0
H459 H 0.95605 0.66709 0.84033 0.0
C460 C 0.00326 0.59662 0.89592 0.0
N461 N 0.04621 0.61386 0.8203 0.0
C462 C 0.05104 0.61483 0.78093 0.0
C463 C 0.06336 0.60581 0.83926 0.0
N464 N 0.07056 0.60802 0.77446 0.0
C465 C 0.07853 0.60247 0.81104 0.0
C466 C 0.02843 0.64411 0.9133 0.0
O467 O 0.99025 0.61148 0.89905 0.0
O468 O 0.01837 0.59898 0.87176 0.0
O469 O 0.03781 0.63431 0.88644 0.0
O470 O 0.00894 0.64715 0.91032 0.0
O471 O 0.02617 0.6497 0.81183 0.0
H472 H 0.06508 0.60352 0.87155 0.0
H473 H 0.04097 0.6219 0.75757 0.0
O474 O -0.00299 0.66188 0.83576 0.0
O475 O 0.97793 0.62695 0.82622 0.0
O476 O 0.00615 0.6156 0.79754 0.0
C477 C 0.98658 0.61894 0.79669 0.0
H478 H 0.92434 0.67166 0.88971 0.0
H479 H 0.09439 0.59728 0.81695 0.0
C480 C 0.01417 0.13923 0.98528 0.0
C481 C 0.02603 0.13308 0.01966 0.0
C482 C 0.02353 0.14804 0.95044 0.0
C483 C 0.06951 0.1771 0.91638 0.0
H484 H 0.05104 0.16485 0.8102 0.0
C485 C 0.08739 0.22978 0.77312 0.0
C486 C 0.09243 0.22025 0.73758 0.0
C487 C 0.08075 0.218 0.80744 0.0
C488 C 0.05653 0.16834 0.83958 0.0
H489 H 0.05723 0.13106 0.04388 0.0
H490 H 0.07361 0.14654 0.98295 0.0
H491 H 0.03714 0.14567 0.86956 0.0
H492 H 0.09459 0.19072 0.71058 0.0
H493 H 0.08291 0.17018 0.77042 0.0
H494 H 0.08881 0.19987 0.88639 0.0
C495 C 0.05698 0.1446 0.98313 0.0
C496 C 0.04841 0.15746 0.87368 0.0
C497 C 0.04762 0.13559 0.01797 0.0
C498 C 0.0908 0.19859 0.73737 0.0
C499 C 0.084 0.18682 0.77164 0.0
C500 C 0.07752 0.18809 0.88228 0.0
C501 C 0.04502 0.15112 0.94901 0.0
C502 C 0.05465 0.1618 0.91258 0.0
C503 C 0.07883 0.19638 0.80713 0.0
C504 C 0.07102 0.18399 0.84341 0.0
H505 H -0.00249 0.13758 0.98544 0.0
H506 H 0.01377 0.15306 0.92501 0.0
H507 H 0.07456 0.181 0.94581 0.0
H508 H 0.08846 0.24642 0.77445 0.0
H509 H 0.07668 0.22594 0.834 0.0
C510 C 0.16317 0.79909 0.26458 0.0
C511 C 0.14998 0.80285 0.29686 0.0
C512 C 0.15993 0.80974 0.22715 0.0
C513 C 0.12329 0.84771 0.17054 0.0
H514 H 0.12475 0.80477 0.09495 0.0
C515 C 0.06171 0.83822 0.04886 0.0
C516 C 0.0682 0.83156 0.01147 0.0
C517 C 0.07609 0.8404 0.07945 0.0
C518 C 0.12456 0.81714 0.11527 0.0
H519 H 0.12452 0.82195 0.31702 0.0
H520 H 0.11805 0.83973 0.25156 0.0
H521 H 0.14402 0.79954 0.15693 0.0
H522 H 0.09517 0.82336 0.97626 0.0
H523 H 0.12008 0.82661 0.03 0.0
H524 H 0.10226 0.86444 0.12943 0.0
C525 C 0.13131 0.82914 0.25478 0.0
C526 C 0.13579 0.81424 0.15093 0.0
C527 C 0.13498 0.81892 0.2925 0.0
C528 C 0.08951 0.82796 0.00494 0.0
C529 C 0.10384 0.83001 0.03558 0.0
C530 C 0.11176 0.85046 0.13497 0.0
C531 C 0.1429 0.82369 0.22105 0.0
C532 C 0.13479 0.82917 0.17974 0.0
C533 C 0.09723 0.83588 0.07335 0.0
C534 C 0.11185 0.8349 0.10761 0.0
H535 H 0.17496 0.78682 0.26752 0.0
H536 H 0.1697 0.80573 0.20226 0.0
H537 H 0.12246 0.85973 0.19156 0.0
H538 H 0.04546 0.84101 0.05508 0.0
H539 H 0.07053 0.84466 0.10851 0.0
C540 C 0.40531 0.77841 0.30127 0.0
C541 C 0.38706 0.78823 0.2856 0.0
C542 C 0.41371 0.78399 0.33775 0.0
C543 C 0.40073 0.81046 0.43088 0.0
H544 H 0.4599 0.81864 0.43579 0.0
C545 C 0.43908 0.85049 0.5625 0.0
C546 C 0.4591 0.84362 0.57474 0.0
C547 C 0.42982 0.84293 0.52845 0.0
C548 C 0.44338 0.81615 0.43537 0.0
H549 H 0.36291 0.811 0.29719 0.0
H550 H 0.37746 0.82069 0.36029 0.0
H551 H 0.44483 0.80617 0.37543 0.0
H552 H 0.48477 0.82287 0.56117 0.0
H553 H 0.46857 0.80942 0.50311 0.0
H554 H 0.39926 0.82036 0.49088 0.0
C555 C 0.38538 0.80871 0.34451 0.0
C556 C 0.43472 0.80898 0.40056 0.0
C557 C 0.37712 0.80329 0.30799 0.0
C558 C 0.46939 0.82869 0.55258 0.0
C559 C 0.46012 0.82105 0.51889 0.0
C560 C 0.40941 0.81752 0.46584 0.0
C561 C 0.40393 0.79935 0.35974 0.0
C562 C 0.41325 0.80611 0.39768 0.0
C563 C 0.4403 0.82821 0.50588 0.0
C564 C 0.43089 0.82054 0.46865 0.0
H565 H 0.41342 0.76683 0.28479 0.0
H566 H 0.4279 0.77627 0.34873 0.0
H567 H 0.38416 0.80822 0.43001 0.0
H568 H 0.43074 0.86204 0.57869 0.0
H569 H 0.41464 0.84904 0.51932 0.0
C570 C 0.40566 0.15026 0.72846 0.0
C571 C 0.3921 0.16578 0.74154 0.0
C572 C 0.40381 0.1435 0.6898 0.0
C573 C 0.39005 0.16519 0.59165 0.0
H574 H 0.39869 0.10913 0.55957 0.0
C575 C 0.4349 0.12335 0.45963 0.0
C576 C 0.43071 0.13793 0.42714 0.0
C577 C 0.42378 0.12398 0.49538 0.0
C578 C 0.39631 0.12489 0.56801 0.0
H579 H 0.36467 0.18479 0.72559 0.0
H580 H 0.362 0.1735 0.65769 0.0
H581 H 0.39114 0.11485 0.62986 0.0
H582 H 0.41015 0.1635 0.40591 0.0
H583 H 0.39017 0.16401 0.46769 0.0
H584 H 0.39684 0.17554 0.53112 0.0
C585 C 0.37411 0.16673 0.67735 0.0
C586 C 0.39187 0.1281 0.60816 0.0
C587 C 0.37581 0.17333 0.71609 0.0
C588 C 0.41399 0.15213 0.43029 0.0
C589 C 0.40263 0.15255 0.46596 0.0
C590 C 0.39483 0.16203 0.55174 0.0
C591 C 0.38846 0.15222 0.6635 0.0
C592 C 0.3893 0.14832 0.62045 0.0
C593 C 0.40788 0.13896 0.49944 0.0
C594 C 0.39873 0.14188 0.53967 0.0
H595 H 0.41838 0.14413 0.74716 0.0
H596 H 0.41521 0.13242 0.67963 0.0
H597 H 0.38836 0.18097 0.60048 0.0
H598 H 0.44717 0.11172 0.45807 0.0
H599 H 0.42846 0.11333 0.52046 0.0
C600 C 0.87466 0.7698 0.27651 0.0
C601 C 0.87053 0.74847 0.27879 0.0
C602 C 0.88284 0.77964 0.2413 0.0
C603 C 0.89135 0.77459 0.13182 0.0
H604 H 0.93779 0.81018 0.14656 0.0
C605 C 0.93111 0.82203 0.99872 0.0
C606 C 0.95293 0.82226 0.99912 0.0
C607 C 0.92006 0.81351 0.03202 0.0
C608 C 0.92488 0.80025 0.14183 0.0
H609 H 0.87095 0.72105 0.24484 0.0
H610 H 0.88488 0.73826 0.18341 0.0
H611 H 0.91968 0.79474 0.20515 0.0
H612 H 0.98013 0.81365 0.03527 0.0
H613 H 0.96094 0.79897 0.09312 0.0
H614 H 0.89678 0.77993 0.06841 0.0
C615 C 0.88183 0.7474 0.20888 0.0
C616 C 0.91432 0.79156 0.1755 0.0
C617 C 0.87383 0.7375 0.24421 0.0
C618 C 0.96336 0.81378 0.03377 0.0
C619 C 0.95232 0.80546 0.06714 0.0
C620 C 0.9018 0.78346 0.09808 0.0
C621 C 0.88694 0.76849 0.20724 0.0
C622 C 0.89749 0.77849 0.17104 0.0
C623 C 0.93052 0.80518 0.0668 0.0
C624 C 0.91884 0.79627 0.10262 0.0
H625 H 0.87242 0.77876 0.30251 0.0
H626 H 0.88628 0.79596 0.24099 0.0
H627 H 0.87839 0.76471 0.12718 0.0
H628 H 0.92253 0.82842 0.97262 0.0
H629 H 0.90329 0.81373 0.03076 0.0
C630 C 0.919 0.23389 0.71685 0.0
C631 C 0.90857 0.22651 0.68401 0.0
C632 C 0.92322 0.22079 0.75099 0.0
C633 C 0.92498 0.16687 0.79489 0.0
H634 H 0.906 0.19283 0.89031 0.0
C635 C 0.91074 0.14831 0.97725 0.0
C636 C 0.93026 0.13943 0.98792 0.0
C637 C 0.90657 0.15551 0.93749 0.0
C638 C 0.91107 0.18523 0.86392 0.0
H639 H 0.89626 0.19912 0.65955 0.0
H640 H 0.90371 0.17616 0.71949 0.0
H641 H 0.90432 0.21232 0.8253 0.0
H642 H 0.96021 0.13004 0.96387 0.0
H643 H 0.95285 0.14243 0.89532 0.0
H644 H 0.93184 0.13976 0.83394 0.0
C645 C 0.90851 0.19212 0.71876 0.0
C646 C 0.91045 0.19651 0.82678 0.0
C647 C 0.90429 0.20527 0.68443 0.0
C648 C 0.94494 0.13663 0.95726 0.0
C649 C 0.94073 0.14374 0.91761 0.0
C650 C 0.92575 0.15557 0.83227 0.0
C651 C 0.91709 0.20005 0.753 0.0
C652 C 0.91767 0.18758 0.79199 0.0
C653 C 0.92178 0.15387 0.90754 0.0
C654 C 0.91897 0.16474 0.86721 0.0
H655 H 0.92273 0.25013 0.71725 0.0
H656 H 0.93034 0.22716 0.77665 0.0
H657 H 0.93054 0.15961 0.76847 0.0
H658 H 0.89891 0.1503 0.99979 0.0
H659 H 0.89166 0.16296 0.9304 0.0
C660 C 0.60051 0.17873 0.71555 0.0
C661 C 0.59572 0.16505 0.74888 0.0
C662 C 0.59397 0.17486 0.67658 0.0
C663 C 0.55494 0.14534 0.62315 0.0
H664 H 0.5906 0.15535 0.53044 0.0
C665 C 0.52427 0.14061 0.46133 0.0
C666 C 0.53706 0.13134 0.43299 0.0
C667 C 0.53195 0.14496 0.499 0.0
C668 C 0.58048 0.15232 0.55601 0.0
H669 H 0.57985 0.13666 0.76668 0.0
H670 H 0.56881 0.12985 0.69945 0.0
H671 H 0.60295 0.16249 0.59733 0.0
H672 H 0.56821 0.11958 0.42243 0.0
H673 H 0.58165 0.12711 0.48846 0.0
H674 H 0.5326 0.13492 0.58224 0.0
C675 C 0.57754 0.14367 0.70325 0.0
C676 C 0.58748 0.15666 0.5944 0.0
C677 C 0.58413 0.14747 0.74201 0.0
C678 C 0.55789 0.12671 0.44342 0.0
C679 C 0.56563 0.13115 0.48125 0.0
C680 C 0.54793 0.14111 0.58488 0.0
C681 C 0.58229 0.15729 0.66989 0.0
C682 C 0.57483 0.15316 0.6286 0.0
C683 C 0.55271 0.14023 0.50973 0.0
C684 C 0.56055 0.14454 0.55065 0.0
H685 H 0.6095 0.19235 0.71944 0.0
H686 H 0.59781 0.18582 0.65178 0.0
H687 H 0.54461 0.14264 0.64851 0.0
H688 H 0.50817 0.14451 0.45451 0.0
H689 H 0.52156 0.15226 0.51966 0.0
C690 C 0.58545 0.85384 0.5504 0.0
C691 C 0.5648 0.84741 0.55203 0.0
C692 C 0.59507 0.85827 0.51323 0.0
C693 C 0.58212 0.87016 0.40567 0.0
H694 H 0.63526 0.84384 0.38452 0.0
C695 C 0.6165 0.8216 0.27695 0.0
C696 C 0.60901 0.83324 0.24261 0.0
C697 C 0.61741 0.83039 0.31372 0.0
C698 C 0.62051 0.85152 0.39 0.0
H699 H 0.53842 0.83953 0.5167 0.0
H700 H 0.55516 0.8468 0.45217 0.0
H701 H 0.62322 0.84514 0.45367 0.0
H702 H 0.59806 0.86368 0.21921 0.0
H703 H 0.5996 0.87922 0.28396 0.0
H704 H 0.57831 0.87468 0.34222 0.0
C705 C 0.56375 0.84918 0.47927 0.0
C706 C 0.61371 0.85242 0.42964 0.0
C707 C 0.55421 0.8448 0.51616 0.0
C708 C 0.60352 0.85426 0.24539 0.0
C709 C 0.60453 0.86315 0.28236 0.0
C710 C 0.58877 0.86904 0.36612 0.0
C711 C 0.58412 0.85634 0.47734 0.0
C712 C 0.59387 0.86058 0.43755 0.0
C713 C 0.61089 0.8511 0.31718 0.0
C714 C 0.60744 0.8585 0.35781 0.0
H715 H 0.59385 0.85614 0.57772 0.0
H716 H 0.61085 0.86361 0.51254 0.0
H717 H 0.567 0.87712 0.41111 0.0
H718 H 0.62058 0.80529 0.2761 0.0
H719 H 0.62191 0.82043 0.33991 0.0
C720 C 0.61672 0.70923 0.23068 0.0
C721 C 0.62108 0.7305 0.22861 0.0
C722 C 0.60859 0.69938 0.26618 0.0
C723 C 0.57835 0.71285 0.35607 0.0
H724 H 0.59149 0.65656 0.39776 0.0
C725 C 0.52933 0.67199 0.48227 0.0
C726 C 0.53982 0.66005 0.51321 0.0
C727 C 0.53984 0.67953 0.44761 0.0
C728 C 0.58771 0.67235 0.38666 0.0
H729 H 0.62162 0.75767 0.26321 0.0
H730 H 0.60802 0.74058 0.3246 0.0
H731 H 0.60974 0.67132 0.33826 0.0
H732 H 0.56975 0.64646 0.53127 0.0
H733 H 0.5881 0.65967 0.47082 0.0
H734 H 0.55651 0.71408 0.40431 0.0
C735 C 0.61028 0.73153 0.29875 0.0
C736 C 0.59806 0.68075 0.35227 0.0
C737 C 0.61831 0.7413 0.26352 0.0
C738 C 0.56113 0.65563 0.50818 0.0
C739 C 0.57165 0.66311 0.47332 0.0
C740 C 0.56796 0.70445 0.39013 0.0
C741 C 0.60464 0.71061 0.30031 0.0
C742 C 0.59362 0.7012 0.33663 0.0
C743 C 0.56119 0.67531 0.44263 0.0
C744 C 0.57246 0.68408 0.40605 0.0
H745 H 0.61846 0.70049 0.20428 0.0
H746 H 0.60443 0.68326 0.26619 0.0
H747 H 0.57422 0.72853 0.34471 0.0
H748 H 0.51291 0.67563 0.48484 0.0
H749 H 0.53114 0.68858 0.42449 0.0
C750 C 0.5894 0.27926 0.82824 0.0
C751 C 0.5861 0.25786 0.82762 0.0
C752 C 0.58468 0.29262 0.79447 0.0
C753 C 0.58382 0.28939 0.68637 0.0
H754 H 0.56004 0.34524 0.68075 0.0
C755 C 0.549 0.34924 0.55633 0.0
C756 C 0.56439 0.34745 0.52665 0.0
C757 C 0.55275 0.3419 0.59604 0.0
C758 C 0.56679 0.32969 0.68202 0.0
H759 H 0.5731 0.23406 0.79316 0.0
H760 H 0.56467 0.2574 0.73467 0.0
H761 H 0.56136 0.32467 0.7455 0.0
H762 H 0.59641 0.33819 0.5165 0.0
H763 H 0.6029 0.32513 0.58595 0.0
H764 H 0.58899 0.29406 0.62319 0.0
C765 C 0.57139 0.26375 0.76075 0.0
C766 C 0.56756 0.31797 0.71896 0.0
C767 C 0.5761 0.25043 0.79435 0.0
C768 C 0.58408 0.33939 0.53833 0.0
C769 C 0.58781 0.33196 0.5781 0.0
C770 C 0.58321 0.30109 0.6497 0.0
C771 C 0.57658 0.28474 0.75976 0.0
C772 C 0.57577 0.29758 0.72126 0.0
C773 C 0.57195 0.33254 0.60701 0.0
C774 C 0.5745 0.32127 0.64699 0.0
H775 H 0.59705 0.28546 0.85351 0.0
H776 H 0.58876 0.30877 0.79451 0.0
H777 H 0.59063 0.27386 0.68742 0.0
H778 H 0.53358 0.35517 0.54876 0.0
H779 H 0.54017 0.34238 0.61754 0.0
C780 C 0.9383 0.36204 0.06489 0.0
C781 C 0.95934 0.35811 0.07459 0.0
C782 C 0.93035 0.35702 0.02756 0.0
C783 C 0.94762 0.34672 0.9238 0.0
H784 H 0.89316 0.32377 0.91325 0.0
C785 C 0.9112 0.33823 0.76788 0.0
C786 C 0.89997 0.32033 0.76159 0.0
C787 C 0.91775 0.34246 0.80639 0.0
C788 C 0.90847 0.33003 0.91567 0.0
H789 H 0.98835 0.34551 0.05235 0.0
H790 H 0.97459 0.33674 0.98824 0.0
H791 H 0.90562 0.33181 0.97959 0.0
H792 H 0.88686 0.2929 0.79184 0.0
H793 H 0.89854 0.30017 0.85917 0.0
H794 H 0.95072 0.34471 0.86028 0.0
C795 C 0.9642 0.34396 0.009 0.0
C796 C 0.91553 0.33488 0.95372 0.0
C797 C 0.97209 0.3489 0.04611 0.0
C798 C 0.89555 0.30675 0.79529 0.0
C799 C 0.90208 0.31105 0.83405 0.0
C800 C 0.94057 0.34196 0.8859 0.0
C801 C 0.94326 0.34805 0.9989 0.0
C802 C 0.93527 0.34324 0.95838 0.0
C803 C 0.91337 0.32896 0.84014 0.0
C804 C 0.92088 0.33357 0.88113 0.0
H805 H 0.92801 0.3691 0.08602 0.0
H806 H 0.91418 0.36055 0.02084 0.0
H807 H 0.96279 0.35336 0.92587 0.0
H808 H 0.91521 0.34898 0.74292 0.0
H809 H 0.92615 0.35653 0.80971 0.0
C810 C 0.88539 0.63205 0.25694 0.0
C811 C 0.8693 0.6447 0.27092 0.0
C812 C 0.88574 0.62693 0.21705 0.0
C813 C 0.86958 0.65106 0.12036 0.0
H814 H 0.90035 0.60392 0.08253 0.0
C815 C 0.9074 0.65171 0.96231 0.0
C816 C 0.92886 0.64721 0.96514 0.0
C817 C 0.89443 0.64766 0.99547 0.0
C818 C 0.89147 0.61705 0.09255 0.0
H819 H 0.8397 0.6598 0.25537 0.0
H820 H 0.84035 0.65089 0.1854 0.0
H821 H 0.88588 0.60174 0.15039 0.0
H822 H 0.95335 0.63528 0.00587 0.0
H823 H 0.93077 0.62785 0.06272 0.0
H824 H 0.87608 0.66668 0.06312 0.0
C825 C 0.85292 0.64534 0.20515 0.0
C826 C 0.88323 0.61583 0.13133 0.0
C827 C 0.85259 0.65049 0.24514 0.0
C828 C 0.93693 0.63852 1.00191 0.0
C829 C 0.92397 0.6342 0.03466 0.0
C830 C 0.87767 0.6522 0.08143 0.0
C831 C 0.86996 0.63427 0.19026 0.0
C832 C 0.8732 0.63323 0.14639 0.0
C833 C 0.90263 0.63873 0.0318 0.0
C834 C 0.8896 0.63559 0.06805 0.0
H835 H 0.89854 0.62738 0.27583 0.0
H836 H 0.89924 0.61858 0.20658 0.0
H837 H 0.86207 0.66481 0.13104 0.0
H838 H 0.90051 0.6582 0.93452 0.0
H839 H 0.87801 0.6514 0.99271 0.0
C840 C 0.4795 0.3517 0.52103 0.0
C841 C 0.46864 0.35712 0.48509 0.0
C842 C 0.46924 0.34334 0.55519 0.0
C843 C 0.42302 0.31396 0.58584 0.0
H844 H 0.43867 0.32774 0.6928 0.0
C845 C 0.40481 0.26152 0.72914 0.0
C846 C 0.39917 0.271 0.76445 0.0
C847 C 0.41116 0.27344 0.69479 0.0
C848 C 0.43392 0.32383 0.66319 0.0
H849 H 0.43825 0.35838 0.45735 0.0
H850 H 0.42024 0.34367 0.51722 0.0
H851 H 0.45329 0.34678 0.63405 0.0
H852 H 0.3955 0.30059 0.79085 0.0
H853 H 0.40662 0.32137 0.7309 0.0
H854 H 0.40379 0.29087 0.61503 0.0
C855 C 0.4368 0.34584 0.51875 0.0
C856 C 0.44247 0.33464 0.62944 0.0
C857 C 0.44708 0.35441 0.48453 0.0
C858 C 0.39975 0.29275 0.76425 0.0
C859 C 0.40624 0.30467 0.72992 0.0
C860 C 0.41457 0.30305 0.61961 0.0
C861 C 0.4478 0.34001 0.55443 0.0
C862 C 0.43734 0.32969 0.59029 0.0
C863 C 0.41217 0.29516 0.69479 0.0
C864 C 0.42009 0.30767 0.65877 0.0
H865 H 0.49611 0.35355 0.52264 0.0
H866 H 0.47829 0.33885 0.58187 0.0
H867 H 0.41882 0.30961 0.55621 0.0
H868 H 0.40456 0.24481 0.72813 0.0
H869 H 0.41583 0.26553 0.66852 0.0
C870 C 0.43614 0.65588 0.46375 0.0
C871 C 0.42838 0.65402 0.50309 0.0
C872 C 0.42302 0.65398 0.43109 0.0
C873 C 0.39466 0.64368 0.36473 0.0
H874 H 0.34092 0.67138 0.37158 0.0
C875 C 0.35489 0.67423 0.22065 0.0
C876 C 0.35002 0.69546 0.22205 0.0
C877 C 0.35749 0.66169 0.2564 0.0
C878 C 0.35582 0.66346 0.36913 0.0
H879 H 0.40118 0.64755 0.53949 0.0
H880 H 0.37826 0.64357 0.48254 0.0
H881 H 0.36139 0.66412 0.43203 0.0
H882 H 0.34132 0.71964 0.26116 0.0
H883 H 0.3462 0.69827 0.32282 0.0
H884 H 0.39009 0.64507 0.30131 0.0
C885 C 0.39433 0.64716 0.47667 0.0
C886 C 0.36753 0.65905 0.40401 0.0
C887 C 0.40742 0.64945 0.50932 0.0
C888 C 0.3454 0.70337 0.25924 0.0
C889 C 0.34802 0.69095 0.29476 0.0
C890 C 0.38315 0.64849 0.32976 0.0
C891 C 0.40186 0.64977 0.43704 0.0
C892 C 0.38758 0.65008 0.40193 0.0
C893 C 0.35527 0.67026 0.29393 0.0
C894 C 0.36408 0.65949 0.33127 0.0
H895 H 0.45222 0.65954 0.45825 0.0
H896 H 0.42938 0.65663 0.40115 0.0
H897 H 0.40969 0.63604 0.36216 0.0
H898 H 0.35839 0.6677 0.19228 0.0
H899 H 0.36259 0.64569 0.25464 0.0
C900 C 0.11466 0.68401 0.22681 0.0
C901 C 0.11983 0.70479 0.2308 0.0
C902 C 0.10511 0.67809 0.1919 0.0
C903 C 0.0972 0.69281 0.08396 0.0
H904 H 0.05092 0.65574 0.09533 0.0
C905 C 0.06144 0.65163 0.95008 0.0
C906 C 0.03964 0.65163 0.94836 0.0
C907 C 0.07163 0.65874 0.98357 0.0
C908 C 0.06379 0.66614 0.09155 0.0
H909 H 0.11905 0.73561 0.20072 0.0
H910 H 0.10245 0.72521 0.13926 0.0
H911 H 0.0675 0.66735 0.15519 0.0
H912 H 0.01155 0.65916 0.98082 0.0
H913 H 0.02921 0.67119 0.0389 0.0
H914 H 0.09346 0.69144 0.02013 0.0
C915 C 0.10584 0.71351 0.16341 0.0
C916 C 0.0734 0.67269 0.12592 0.0
C917 C 0.11519 0.71952 0.19872 0.0
C918 C 0.02835 0.6589 0.98095 0.0
C919 C 0.03848 0.66572 0.01447 0.0
C920 C 0.08774 0.68601 0.04947 0.0
C921 C 0.10059 0.69271 0.15965 0.0
C922 C 0.09022 0.68614 0.12267 0.0
C923 C 0.06025 0.66571 0.01636 0.0
C924 C 0.07083 0.67265 0.05283 0.0
H925 H 0.11776 0.67228 0.25099 0.0
H926 H 0.10143 0.66193 0.19 0.0
H927 H 0.11021 0.70303 0.08035 0.0
H928 H 0.07064 0.64617 0.92555 0.0
H929 H 0.08841 0.65839 0.98416 0.0
C930 C 0.10636 0.31118 0.79873 0.0
C931 C 0.10539 0.32425 0.7633 0.0
C932 C 0.10868 0.31939 0.83586 0.0
C933 C 0.0957 0.36661 0.88439 0.0
H934 H 0.11795 0.3332 0.97638 0.0
C935 C 0.05314 0.35881 0.03157 0.0
C936 C 0.06361 0.35601 0.0685 0.0
C937 C 0.0641 0.36037 0.99563 0.0
C938 C 0.11209 0.34309 0.95112 0.0
H939 H 0.10727 0.35609 0.7387 0.0
H940 H 0.11135 0.37059 0.80398 0.0
H941 H 0.12893 0.32577 0.90886 0.0
H942 H 0.09389 0.35296 0.09669 0.0
H943 H 0.11324 0.35537 0.03321 0.0
H944 H 0.07845 0.38356 0.92658 0.0
C945 C 0.11005 0.35396 0.80294 0.0
C946 C 0.11818 0.33867 0.91238 0.0
C947 C 0.1076 0.3457 0.76564 0.0
C948 C 0.08541 0.35491 0.06865 0.0
C949 C 0.09646 0.35643 0.03242 0.0
C950 C 0.08981 0.37117 0.92309 0.0
C951 C 0.1102 0.34091 0.83855 0.0
C952 C 0.109 0.34951 0.87859 0.0
C953 C 0.08586 0.35915 0.99554 0.0
C954 C 0.09689 0.35858 0.95663 0.0
H955 H 0.1044 0.29463 0.79803 0.0
H956 H 0.10817 0.30888 0.86261 0.0
H957 H 0.08838 0.37536 0.85915 0.0
H958 H 0.03638 0.35922 0.03023 0.0
H959 H 0.05541 0.36177 0.96776 0.0
C960 C 0.96074 0.3047 0.23192 0.0
C961 C 0.97732 0.31773 0.23699 0.0
C962 C 0.96114 0.28479 0.25095 0.0
C963 C 0.00307 0.24821 0.27388 0.0
H964 H 0.95715 0.21104 0.26917 0.0
C965 C 0.01302 0.17141 0.20122 0.0
C966 C -0.00193 0.16942 0.17115 0.0
C967 C 0.00997 0.18575 0.23008 0.0
C968 C 0.97018 0.22116 0.27118 0.0
H969 H 0.00538 0.32224 0.27042 0.0
H970 H 0.00572 0.28769 0.30515 0.0
H971 H 0.95107 0.24583 0.29161 0.0
H972 H 0.96835 0.18101 0.14752 0.0
H973 H 0.96355 0.20679 0.19664 0.0
H974 H 0.02186 0.22433 0.25052 0.0
C975 C 0.99293 0.29226 0.28517 0.0
C976 C 0.96673 0.24102 0.28412 0.0
C977 C 0.99285 0.3119 0.26515 0.0
C978 C 0.98024 0.18233 0.17002 0.0
C979 C 0.97725 0.19673 0.19878 0.0
C980 C 0.00652 0.22839 0.2612 0.0
C981 C 0.97799 0.27791 0.2758 0.0
C982 C 0.98278 0.25535 0.28185 0.0
C983 C 0.992 0.19846 0.22928 0.0
C984 C 0.98977 0.21542 0.25647 0.0
H985 H 0.94842 0.30927 0.21083 0.0
H986 H 0.94931 0.27426 0.24285 0.0
H987 H 0.01597 0.25862 0.27205 0.0
H988 H 0.02679 0.16144 0.20334 0.0
H989 H 0.02163 0.18685 0.2531 0.0
C990 C 0.93458 0.74446 0.40059 0.0
C991 C 0.92471 0.73022 0.37782 0.0
C992 C 0.95197 0.75458 0.38542 0.0
C993 C 0.99356 0.75034 0.31189 0.0
H994 H 0.00445 0.80545 0.34475 0.0
C995 C 0.06572 0.78354 0.3786 0.0
C996 C 0.08033 0.77578 0.35204 0.0
C997 C 0.04522 0.78688 0.36622 0.0
C998 C 0.00141 0.79028 0.33451 0.0
H999 H 0.92505 0.71517 0.3217 0.0
H1000 H 0.95535 0.73304 0.29488 0.0
H1001 H 0.96984 0.7914 0.3539 0.0
H1002 H 0.08618 0.76864 0.29029 0.0
H1003 H 0.05035 0.77448 0.26875 0.0
H1004 H 0.02519 0.74865 0.29443 0.0
C1005 C 0.94995 0.73614 0.3247 0.0
C1006 C 0.98176 0.78213 0.34015 0.0
C1007 C 0.93279 0.72571 0.34024 0.0
C1008 C 0.0749 0.77389 0.31172 0.0
C1009 C 0.05453 0.7775 0.29921 0.0
C1010 C 0.01306 0.75856 0.30581 0.0
C1011 C 0.9595 0.75093 0.34688 0.0
C1012 C 0.97812 0.76157 0.33133 0.0
C1013 C 0.03928 0.78264 0.32709 0.0
C1014 C 0.0175 0.77803 0.31951 0.0
H1015 H 0.92843 0.74826 0.42952 0.0
H1016 H 0.95942 0.76535 0.40386 0.0
H1017 H 0.99129 0.73448 0.3047 0.0
H1018 H 0.06974 0.78549 0.40962 0.0
H1019 H 0.03375 0.79077 0.38843 0.0
C1020 C 0.49317 0.69871 0.6842 0.0
C1021 C 0.51149 0.68709 0.6788 0.0
C1022 C 0.49038 0.70949 0.71862 0.0
C1023 C 0.52007 0.7365 0.78736 0.0
H1024 H 0.46425 0.75005 0.82161 0.0
C1025 C 0.46904 0.80513 0.74644 0.0
C1026 C 0.48512 0.81919 0.74428 0.0
C1027 C 0.47067 0.78739 0.77268 0.0
C1028 C 0.48007 0.74633 0.81324 0.0
H1029 H 0.54131 0.67763 0.70541 0.0
H1030 H 0.53655 0.69693 0.76502 0.0
H1031 H 0.47193 0.71629 0.79607 0.0
H1032 H 0.51336 0.82843 0.77215 0.0
H1033 H 0.51579 0.79796 0.81962 0.0
H1034 H 0.52795 0.76692 0.79973 0.0
C1035 C 0.52428 0.69748 0.74281 0.0
C1036 C 0.48444 0.72698 0.79859 0.0
C1037 C 0.52711 0.68673 0.70831 0.0
C1038 C 0.50125 0.81711 0.77246 0.0
C1039 C 0.50252 0.79976 0.79973 0.0
C1040 C 0.51566 0.75583 0.80163 0.0
C1041 C 0.50584 0.70889 0.74841 0.0
C1042 C 0.50389 0.72301 0.78126 0.0
C1043 C 0.48834 0.7837 0.79745 0.0
C1044 C 0.49495 0.76188 0.80925 0.0
H1045 H 0.48073 0.69909 0.66236 0.0
H1046 H 0.47626 0.71874 0.72135 0.0
H1047 H 0.53543 0.73363 0.77545 0.0
H1048 H 0.45618 0.80693 0.72553 0.0
H1049 H 0.45918 0.77567 0.76998 0.0
C1050 C 0.56028 0.18464 0.96333 0.0
C1051 C 0.57524 0.19853 0.97405 0.0
C1052 C 0.54311 0.18098 0.98799 0.0
C1053 C 0.51298 0.21598 0.04227 0.0
H1054 H 0.47341 0.1758 0.01249 0.0
C1055 C 0.43943 0.24212 0.9571 0.0
C1056 C 0.43882 0.2323 0.92074 0.0
C1057 C 0.45198 0.23401 0.98881 0.0
C1058 C 0.48411 0.18713 0.02201 0.0
H1059 H 0.58603 0.21667 0.02194 0.0
H1060 H 0.55599 0.21029 0.06496 0.0
H1061 H 0.50822 0.16415 0.03316 0.0
H1062 H 0.45132 0.20665 0.88885 0.0
H1063 H 0.47389 0.19318 0.94312 0.0
H1064 H 0.4897 0.23919 0.02709 0.0
C1065 C 0.55718 0.20263 0.03715 0.0
C1066 C 0.50402 0.18045 0.03406 0.0
C1067 C 0.57424 0.20647 0.01224 0.0
C1068 C 0.45155 0.21468 0.91629 0.0
C1069 C 0.46405 0.20663 0.94786 0.0
C1070 C 0.49307 0.22265 0.03049 0.0
C1071 C 0.54065 0.19119 0.02381 0.0
C1072 C 0.51932 0.19517 0.03868 0.0
C1073 C 0.46417 0.21598 0.98468 0.0
C1074 C 0.47943 0.20848 0.01572 0.0
H1075 H 0.56096 0.17789 0.9345 0.0
H1076 H 0.53079 0.17201 0.97651 0.0
H1077 H 0.52412 0.22779 0.04714 0.0
H1078 H 0.42952 0.25551 0.96182 0.0
H1079 H 0.45202 0.2417 0.01664 0.0
C1080 C 0.0043 0.78836 0.83214 0.0
C1081 C 0.98784 0.80293 0.83051 0.0
C1082 C 0.01143 0.78 0.79719 0.0
C1083 C 0.02878 0.76659 0.72145 0.0
H1084 H 0.98296 0.73838 0.67727 0.0
C1085 C 0.02941 0.68377 0.75404 0.0
C1086 C 0.01257 0.68125 0.78071 0.0
C1087 C 0.02935 0.70023 0.72442 0.0
C1088 C -0.0038 0.7464 0.68792 0.0
H1089 H 0.96596 0.82031 0.79068 0.0
H1090 H 0.97829 0.80538 0.72967 0.0
H1091 H 0.9772 0.77256 0.70086 0.0
H1092 H 0.98177 0.69276 0.79498 0.0
H1093 H 0.9818 0.72146 0.74514 0.0
H1094 H 0.04666 0.73885 0.71576 0.0
C1095 C 0.9857 0.80049 0.758 0.0
C1096 C 0.99287 0.76613 0.70159 0.0
C1097 C 0.97841 0.80873 0.79315 0.0
C1098 C 0.9952 0.69458 0.7756 0.0
C1099 C 0.99506 0.71083 0.74604 0.0
C1100 C 0.03181 0.74653 0.70926 0.0
C1101 C 0.00243 0.78614 0.75954 0.0
C1102 C 0.00847 0.77481 0.72399 0.0
C1103 C 0.0124 0.71435 0.72086 0.0
C1104 C 0.01444 0.73517 0.69958 0.0
H1105 H 0.012 0.78376 0.86034 0.0
H1106 H 0.02379 0.76833 0.8 0.0
H1107 H 0.0415 0.77378 0.73588 0.0
H1108 H 0.04284 0.67335 0.75664 0.0
H1109 H 0.04293 0.70249 0.70563 0.0
C1110 C 0.56899 0.72079 0.09382 0.0
C1111 C 0.57079 0.73909 0.1139 0.0
C1112 C 0.55349 0.70687 0.10443 0.0
C1113 C 0.51559 0.69392 0.18515 0.0
H1114 H 0.47957 0.68308 0.09675 0.0
C1115 C 0.43481 0.71915 0.17878 0.0
C1116 C 0.42075 0.71134 0.15211 0.0
C1117 C 0.45402 0.70927 0.18544 0.0
C1118 C 0.48962 0.68504 0.12211 0.0
H1119 H 0.55729 0.75768 0.15941 0.0
H1120 H 0.52954 0.73384 0.17661 0.0
H1121 H 0.51479 0.69285 0.08296 0.0
H1122 H 0.41458 0.68575 0.11523 0.0
H1123 H 0.44834 0.66868 0.12654 0.0
H1124 H 0.48961 0.68812 0.22383 0.0
C1125 C 0.54066 0.72987 0.15382 0.0
C1126 C 0.50989 0.6908 0.11405 0.0
C1127 C 0.55617 0.74379 0.14323 0.0
C1128 C 0.42544 0.69249 0.13502 0.0
C1129 C 0.44461 0.68252 0.14191 0.0
C1130 C 0.4953 0.6881 0.19323 0.0
C1131 C 0.53951 0.71107 0.13518 0.0
C1132 C 0.52227 0.69718 0.14514 0.0
C1133 C 0.45946 0.69138 0.16559 0.0
C1134 C 0.48161 0.68584 0.16124 0.0
H1135 H 0.58014 0.71674 0.0711 0.0
H1136 H 0.55268 0.69266 0.08917 0.0
H1137 H 0.52526 0.69804 0.20975 0.0
H1138 H 0.43138 0.73339 0.19307 0.0
H1139 H 0.46519 0.71671 0.20349 0.0
C1140 C 0.50916 0.17903 0.23928 0.0
C1141 C 0.52347 0.17324 0.26984 0.0
C1142 C 0.50999 0.19855 0.21891 0.0
C1143 C 0.53612 0.24967 0.22372 0.0
H1144 H 0.47982 0.26648 0.24946 0.0
C1145 C 0.51838 0.3066 0.33876 0.0
C1146 C 0.50061 0.31961 0.33611 0.0
C1147 C 0.52243 0.29275 0.30941 0.0
C1148 C 0.49554 0.26241 0.24094 0.0
H1149 H 0.55127 0.1816 0.30012 0.0
H1150 H 0.55182 0.21644 0.26744 0.0
H1151 H 0.48653 0.23238 0.22776 0.0
H1152 H 0.47308 0.32824 0.30064 0.0
H1153 H 0.48006 0.30375 0.24983 0.0
H1154 H 0.54509 0.27943 0.24104 0.0
C1155 C 0.54031 0.20596 0.25775 0.0
C1156 C 0.49947 0.24269 0.22818 0.0
C1157 C 0.53985 0.18615 0.27717 0.0
C1158 C 0.48676 0.31819 0.30394 0.0
C1159 C 0.49088 0.30439 0.27448 0.0
C1160 C 0.53217 0.26944 0.2367 0.0
C1161 C 0.52455 0.21285 0.23029 0.0
C1162 C 0.52003 0.23542 0.22333 0.0
C1163 C 0.50882 0.29164 0.27679 0.0
C1164 C 0.51206 0.27517 0.24879 0.0
H1165 H 0.49684 0.16877 0.23232 0.0
H1166 H 0.49808 0.20309 0.19694 0.0
H1167 H 0.55203 0.24479 0.21853 0.0
H1168 H 0.52947 0.30749 0.36291 0.0
H1169 H 0.53606 0.28263 0.31272 0.0
C1170 C 0.04477 0.27969 0.58332 0.0
C1171 C 0.05749 0.26213 0.57844 0.0
C1172 C 0.03229 0.28797 0.55186 0.0
C1173 C 0.00346 0.27067 0.46998 0.0
H1174 H 0.98319 0.32741 0.47424 0.0
C1175 C 0.92159 0.27932 0.49865 0.0
C1176 C 0.92069 0.28676 0.53728 0.0
C1177 C 0.93786 0.28469 0.47265 0.0
C1178 C 0.98878 0.31163 0.47137 0.0
H1179 H 0.06755 0.23981 0.53611 0.0
H1180 H 0.04526 0.25405 0.48146 0.0
H1181 H 0.01939 0.31875 0.48956 0.0
H1182 H 0.93438 0.3077 0.577 0.0
H1183 H 0.96329 0.31617 0.53306 0.0
H1184 H 0.97263 0.26294 0.45656 0.0
C1185 C 0.04502 0.2614 0.50967 0.0
C1186 C 0.00952 0.30666 0.48028 0.0
C1187 C 0.05745 0.25302 0.5413 0.0
C1188 C 0.93501 0.30134 0.5478 0.0
C1189 C 0.9514 0.30651 0.52205 0.0
C1190 C 0.98278 0.27565 0.46111 0.0
C1191 C 0.03227 0.27897 0.51463 0.0
C1192 C 0.01618 0.28573 0.48461 0.0
C1193 C 0.95373 0.29721 0.48521 0.0
C1194 C 0.97476 0.29562 0.46742 0.0
H1195 H 0.0447 0.28727 0.6113 0.0
H1196 H 0.02215 0.30111 0.55728 0.0
H1197 H 0.00827 0.25445 0.47167 0.0
H1198 H 0.91027 0.26859 0.48914 0.0
H1199 H 0.93896 0.27761 0.4442 0.0
C1200 C 0.97509 0.05154 0.06713 0.0
C1201 C 0.99136 0.05733 0.09153 0.0
C1202 C 0.97454 0.0314 0.05459 0.0
C1203 C 0.00874 0.98674 0.03719 0.0
H1204 H 0.95722 0.95742 0.03278 0.0
C1205 C 0.00499 0.90323 0.9866 0.0
C1206 C 0.98897 0.89986 0.95953 0.0
C1207 C 0.00533 0.92165 0.00611 0.0
C1208 C 0.9717 0.96548 0.03366 0.0
H1209 H 0.01954 0.04649 0.12274 0.0
H1210 H 0.01844 0.01137 0.10108 0.0
H1211 H 0.95742 0.99125 0.06092 0.0
H1212 H 0.96076 0.91309 0.93169 0.0
H1213 H 0.96154 0.94519 0.96529 0.0
H1214 H 0.02296 0.96113 0.00935 0.0
C1215 C 0.00629 0.02244 0.09123 0.0
C1216 C 0.97181 0.98482 0.04972 0.0
C1217 C 0.00684 0.04253 0.10376 0.0
C1218 C 0.97331 0.9152 0.95243 0.0
C1219 C 0.97365 0.93353 0.97192 0.0
C1220 C 0.00864 0.9674 0.02111 0.0
C1221 C 0.99025 0.01673 0.06622 0.0
C1222 C 0.99028 -0.00426 0.05121 0.0
C1223 C 0.98963 0.93695 0.99896 0.0
C1224 C 0.99006 0.95671 0.01872 0.0
H1225 H 0.96296 0.06262 0.05718 0.0
H1226 H 0.9621 0.02748 0.03495 0.0
H1227 H 0.02317 -0.00508 0.0375 0.0
H1228 H 0.01722 0.89165 0.99278 0.0
H1229 H 0.01777 0.92384 0.02705 0.0
C1230 C 0.20855 0.7686 0.38344 0.0
C1231 C 0.19834 0.74991 0.39238 0.0
C1232 C 0.22506 0.76918 0.35626 0.0
C1233 C 0.23418 0.74262 0.26706 0.0
H1234 H 0.28312 0.77571 0.25214 0.0
C1235 C 0.29246 0.73613 0.13887 0.0
C1236 C 0.30545 0.75293 0.13023 0.0
C1237 C 0.27627 0.73792 0.16633 0.0
C1238 C 0.26917 0.76679 0.25554 0.0
H1239 H 0.19999 0.71666 0.38783 0.0
H1240 H 0.22922 0.71756 0.34145 0.0
H1241 H 0.2663 0.77269 0.31787 0.0
H1242 H 0.30938 0.78573 0.13639 0.0
H1243 H 0.28046 0.78915 0.18276 0.0
H1244 H 0.23675 0.73689 0.20482 0.0
C1245 C 0.22399 0.73185 0.35383 0.0
C1246 C 0.2598 0.76483 0.29336 0.0
C1247 C 0.20748 0.7313 0.38083 0.0
C1248 C 0.29969 0.77248 0.14315 0.0
C1249 C 0.28338 0.77434 0.17022 0.0
C1250 C 0.24341 0.74472 0.22921 0.0
C1251 C 0.23157 0.751 0.33862 0.0
C1252 C 0.24243 0.75246 0.29956 0.0
C1253 C 0.27274 0.75665 0.18469 0.0
C1254 C 0.26114 0.75665 0.22309 0.0
H1255 H 0.20184 0.78317 0.39213 0.0
H1256 H 0.23087 0.78412 0.34537 0.0
H1257 H 0.22036 0.73351 0.27075 0.0
H1258 H 0.29656 0.72089 0.12924 0.0
H1259 H 0.26823 0.72402 0.17648 0.0
C1260 C 0.48389 0.05926 0.4032 0.0
C1261 C 0.49985 0.06222 0.37482 0.0
C1262 C 0.48239 0.04037 0.42589 0.0
C1263 C 0.51549 -0.00338 0.46404 0.0
H1264 H 0.46338 0.97179 0.49594 0.0
C1265 C 0.51106 0.91963 0.56208 0.0
C1266 C 0.49603 0.91888 0.59268 0.0
C1267 C 0.51139 0.93645 0.53347 0.0
C1268 C 0.47803 0.97866 0.48749 0.0
H1269 H 0.52599 0.04737 0.34618 0.0
H1270 H 0.52317 0.01434 0.38548 0.0
H1271 H 0.46339 0.00184 0.44725 0.0
H1272 H 0.46981 0.93529 0.61777 0.0
H1273 H 0.4706 0.96478 0.56814 0.0
H1274 H 0.53011 0.97366 0.50464 0.0
C1275 C 0.51209 0.02674 0.39072 0.0
C1276 C 0.47803 -0.0042 0.4596 0.0
C1277 C 0.51362 0.04562 0.36809 0.0
C1278 C 0.48157 0.93542 0.59453 0.0
C1279 C 0.4819 0.95221 0.56591 0.0
C1280 C 0.51548 0.97949 0.4919 0.0
C1281 C 0.49679 0.02411 0.42054 0.0
C1282 C 0.49675 0.00506 0.44787 0.0
C1283 C 0.49668 0.95281 0.53491 0.0
C1284 C 0.49674 0.97047 0.5042 0.0
H1285 H 0.47305 0.07178 0.40907 0.0
H1286 H 0.47053 0.03885 0.44887 0.0
H1287 H 0.53013 0.00365 0.45612 0.0
H1288 H 0.52235 0.90707 0.55976 0.0
H1289 H 0.52287 0.93644 0.50971 0.0
C1290 C 0.3207 0.22001 0.80025 0.0
C1291 C 0.32659 0.23379 0.82866 0.0
C1292 C 0.30095 0.2217 0.78308 0.0
C1293 C 0.25886 0.26003 0.76132 0.0
H1294 H 0.22628 0.21206 0.74275 0.0
C1295 C 0.17396 0.26679 0.70759 0.0
C1296 C 0.16781 0.25316 0.67912 0.0
C1297 C 0.19353 0.2645 0.72534 0.0
C1298 C 0.23532 0.22558 0.74731 0.0
H1299 H 0.31618 0.25961 0.86255 0.0
H1300 H 0.28171 0.26237 0.83288 0.0
H1301 H 0.25983 0.20724 0.77625 0.0
H1302 H 0.17749 0.22677 0.64615 0.0
H1303 H 0.21175 0.22299 0.67673 0.0
H1304 H 0.23444 0.27838 0.73229 0.0
C1305 C 0.29246 0.25051 0.8234 0.0
C1306 C 0.25449 0.22281 0.76654 0.0
C1307 C 0.31215 0.24882 0.84056 0.0
C1308 C 0.18176 0.23748 0.6681 0.0
C1309 C 0.20132 0.23521 0.68582 0.0
C1310 C 0.23973 0.26279 0.74205 0.0
C1311 C 0.28678 0.2372 0.794 0.0
C1312 C 0.26641 0.24002 0.77382 0.0
C1313 C 0.20732 0.24855 0.71492 0.0
C1314 C 0.22775 0.24561 0.7349 0.0
H1315 H 0.33152 0.2083 0.79042 0.0
H1316 H 0.29703 0.21132 0.76029 0.0
H1317 H 0.2679 0.27356 0.76589 0.0
H1318 H 0.16352 0.27897 0.71682 0.0
H1319 H 0.19765 0.27489 0.74798 0.0
C1320 C 0.67318 0.22443 0.79674 0.0
C1321 C 0.66889 0.23497 0.83138 0.0
C1322 C 0.69197 0.22706 0.77655 0.0
C1323 C 0.73708 0.26079 0.76466 0.0
H1324 H 0.76535 0.21047 0.73448 0.0
C1325 C 0.82173 0.26072 0.71204 0.0
C1326 C 0.82621 0.25025 0.67738 0.0
C1327 C 0.80278 0.25819 0.73164 0.0
C1328 C 0.75756 0.22466 0.7424 0.0
H1329 H 0.68052 0.25722 0.87104 0.0
H1330 H 0.71344 0.2617 0.83584 0.0
H1331 H 0.73108 0.20847 0.76527 0.0
H1332 H 0.81471 0.22826 0.63705 0.0
H1333 H 0.78149 0.22392 0.6713 0.0
H1334 H 0.76358 0.27697 0.74186 0.0
C1335 C 0.70221 0.2515 0.82419 0.0
C1336 C 0.73793 0.22354 0.75992 0.0
C1337 C 0.68338 0.2489 0.8444 0.0
C1338 C 0.81171 0.23652 0.66372 0.0
C1339 C 0.79271 0.234 0.68336 0.0
C1340 C 0.75671 0.26191 0.74715 0.0
C1341 C 0.70686 0.24026 0.79058 0.0
C1342 C 0.72749 0.2416 0.77123 0.0
C1343 C 0.7879 0.24516 0.71702 0.0
C1344 C 0.76716 0.24385 0.73593 0.0
H1345 H 0.66225 0.21372 0.78573 0.0
H1346 H 0.69496 0.21852 0.75023 0.0
H1347 H 0.7293 0.27499 0.77261 0.0
H1348 H 0.83266 0.27128 0.72353 0.0
H1349 H 0.79965 0.26666 0.758 0.0
C1350 C 0.79812 0.70427 0.34156 0.0
C1351 C 0.80478 0.71533 0.37369 0.0
C1352 C 0.78025 0.71074 0.32029 0.0
C1353 C 0.75256 0.76006 0.29543 0.0
H1354 H 0.71876 0.72611 0.23174 0.0
C1355 C 0.68405 0.78742 0.18923 0.0
C1356 C 0.68255 0.77676 0.15404 0.0
C1357 C 0.70018 0.7825 0.21641 0.0
C1358 C 0.72827 0.73575 0.24915 0.0
H1359 H 0.79642 0.7397 0.41272 0.0
H1360 H 0.76481 0.75053 0.37639 0.0
H1361 H 0.74048 0.70959 0.28511 0.0
H1362 H 0.69842 0.75529 0.11647 0.0
H1363 H 0.72659 0.74688 0.16378 0.0
H1364 H 0.74 0.78625 0.25943 0.0
C1365 C 0.77384 0.73746 0.36654 0.0
C1366 C 0.74059 0.72631 0.27981 0.0
C1367 C 0.79181 0.7311 0.38761 0.0
C1368 C 0.69899 0.76348 0.14369 0.0
C1369 C 0.71501 0.75853 0.17086 0.0
C1370 C 0.74 0.76953 0.26501 0.0
C1371 C 0.76863 0.7282 0.33118 0.0
C1372 C 0.7532 0.73831 0.3028 0.0
C1373 C 0.71494 0.76697 0.20847 0.0
C1374 C 0.72814 0.75739 0.24108 0.0
H1375 H 0.80775 0.69199 0.3302 0.0
H1376 H 0.77669 0.7032 0.29324 0.0
H1377 H 0.76236 0.76976 0.31208 0.0
H1378 H 0.67167 0.79784 0.19792 0.0
H1379 H 0.69997 0.78936 0.24514 0.0
C1380 C 0.51834 0.56879 0.57416 0.0
C1381 C 0.50362 0.58475 0.56441 0.0
C1382 C 0.51842 0.55062 0.55413 0.0
C1383 C 0.48615 0.5185 0.4948 0.0
H1384 H 0.53926 0.49571 0.46188 0.0
C1385 C 0.49236 0.44619 0.40429 0.0
C1386 C 0.50707 0.43095 0.41825 0.0
C1387 C 0.49235 0.46591 0.41868 0.0
C1388 C 0.52435 0.50183 0.47111 0.0
H1389 H 0.47717 0.59405 0.5266 0.0
H1390 H 0.47737 0.56212 0.49141 0.0
H1391 H 0.53785 0.5284 0.49424 0.0
H1392 H 0.53365 0.42454 0.45733 0.0
H1393 H 0.53352 0.45901 0.48275 0.0
H1394 H 0.47267 0.49179 0.47215 0.0
C1395 C 0.48876 0.56373 0.51473 0.0
C1396 C 0.52353 0.52051 0.48962 0.0
C1397 C 0.48867 0.58198 0.53482 0.0
C1398 C 0.52215 0.43598 0.44599 0.0
C1399 C 0.52213 0.45574 0.46039 0.0
C1400 C 0.48697 0.49981 0.47628 0.0
C1401 C 0.50382 0.548 0.52391 0.0
C1402 C 0.50446 0.52887 0.50212 0.0
C1403 C 0.50704 0.47078 0.44729 0.0
C1404 C 0.5061 0.49119 0.46468 0.0
H1405 H 0.53001 0.5704 0.59697 0.0
H1406 H 0.52995 0.53858 0.56237 0.0
H1407 H 0.47127 0.5245 0.5045 0.0
H1408 H 0.4806 0.44282 0.38272 0.0
H1409 H 0.48074 0.47731 0.40763 0.0
C1410 C 0.01644 0.56115 0.91902 0.0
C1411 C 0.00146 0.57718 0.92143 0.0
C1412 C 0.01543 0.54317 0.94454 0.0
C1413 C 0.99403 0.5233 0.04154 0.0
H1414 H 0.00604 0.46964 1.00036 0.0
C1415 C 0.98028 0.44504 0.13152 0.0
C1416 C 0.99525 0.42911 0.12766 0.0
C1417 C 0.98162 0.46378 0.10825 0.0
C1418 C 0.00291 0.48454 0.01239 0.0
H1419 H 0.97349 0.58685 0.95206 0.0
H1420 H 0.9716 0.55526 0.99636 0.0
H1421 H 0.0064 0.50078 0.95478 0.0
H1422 H 0.02384 0.42062 0.09776 0.0
H1423 H 0.02624 0.4534 0.05745 0.0
H1424 H 0.99042 0.50695 0.09919 0.0
C1425 C 0.98427 0.55675 0.97507 0.0
C1426 C 0.00308 0.50235 0.98629 0.0
C1427 C 0.98528 0.57476 0.94951 0.0
C1428 C 0.01201 0.43257 0.10127 0.0
C1429 C 0.01332 0.45127 0.07799 0.0
C1430 C 0.99383 0.50545 0.06768 0.0
C1431 C -0.00059 0.54084 0.97298 0.0
C1432 C -0.00129 0.52192 1.00061 0.0
C1433 C -0.00207 0.46688 0.08067 0.0
C1434 C -0.00164 0.48591 0.05335 0.0
H1435 H 0.02915 0.56258 0.89781 0.0
H1436 H 0.02746 0.53128 0.94257 0.0
H1437 H 0.99088 0.53821 0.05352 0.0
H1438 H 0.96718 0.44283 0.15159 0.0
H1439 H 0.96947 0.4755 0.11074 0.0
C1440 C 0.09411 0.11193 0.23751 0.0
C1441 C 0.07354 0.10555 0.24174 0.0
C1442 C 0.10469 0.11873 0.27043 0.0
C1443 C 0.11155 0.14903 0.336 0.0
H1444 H 0.11051 0.12134 0.44308 0.0
C1445 C 0.1105 0.19112 0.48207 0.0
C1446 C 0.12318 0.18309 0.5141 0.0
C1447 C 0.10912 0.18073 0.44693 0.0
C1448 C 0.1112 0.12912 0.41325 0.0
H1449 H 0.04828 0.09997 0.28356 0.0
H1450 H 0.06689 0.11147 0.34143 0.0
H1451 H 0.09983 0.10277 0.3854 0.0
H1452 H 0.14515 0.15815 0.53283 0.0
H1453 H 0.142 0.13976 0.47212 0.0
H1454 H 0.12182 0.17576 0.36412 0.0
C1455 C 0.07479 0.11135 0.31273 0.0
C1456 C 0.10504 0.11854 0.38041 0.0
C1457 C 0.06411 0.10494 0.27972 0.0
C1458 C 0.13484 0.16466 0.50947 0.0
C1459 C 0.1332 0.15414 0.47454 0.0
C1460 C 0.11742 0.15971 0.36892 0.0
C1461 C 0.09496 0.11881 0.30812 0.0
C1462 C 0.10473 0.12858 0.34168 0.0
C1463 C 0.12018 0.16198 0.44319 0.0
C1464 C 0.11683 0.14997 0.40787 0.0
H1465 H 0.10159 0.11267 0.20835 0.0
H1466 H 0.12024 0.12444 0.26627 0.0
H1467 H 0.11125 0.15714 0.30642 0.0
H1468 H 0.10113 0.20509 0.4843 0.0
H1469 H 0.09875 0.18694 0.42328 0.0
C1470 C 0.12341 0.82139 0.56596 0.0
C1471 C 0.11389 0.81352 0.53249 0.0
C1472 C 0.11155 0.82773 0.59838 0.0
C1473 C 0.05887 0.84537 0.62689 0.0
H1474 H 0.07755 0.82952 0.73538 0.0
C1475 C 0.0084 0.85888 0.76856 0.0
C1476 C 0.01853 0.86201 0.8049 0.0
C1477 C 0.01981 0.85456 0.73407 0.0
C1478 C 0.07222 0.83447 0.70538 0.0
H1479 H 0.08428 0.80644 0.50692 0.0
H1480 H 0.06355 0.81758 0.5635 0.0
H1481 H 0.09761 0.81847 0.67849 0.0
H1482 H 0.04861 0.86425 0.8327 0.0
H1483 H 0.06846 0.85789 0.77236 0.0
H1484 H 0.03359 0.86161 0.65373 0.0
C1485 C 0.08024 0.81883 0.56458 0.0
C1486 C 0.08374 0.828 0.67264 0.0
C1487 C 0.09214 0.81225 0.5323 0.0
C1488 C 0.04031 0.86199 0.80519 0.0
C1489 C 0.05171 0.85798 0.77064 0.0
C1490 C 0.04741 0.85204 0.65969 0.0
C1491 C 0.0898 0.8266 0.59814 0.0
C1492 C 0.07726 0.83337 0.63294 0.0
C1493 C 0.04167 0.8535 0.73488 0.0
C1494 C 0.05394 0.84674 0.69951 0.0
H1495 H 0.1401 0.82242 0.56737 0.0
H1496 H 0.11945 0.83377 0.62352 0.0
H1497 H 0.05352 0.84998 0.59672 0.0
H1498 H 0.99165 0.85834 0.76741 0.0
H1499 H 0.01142 0.85101 0.70744 0.0
C1500 C 0.36823 0.77632 0.00548 0.0
C1501 C 0.3783 0.77817 0.04226 0.0
C1502 C 0.36966 0.79185 0.97451 0.0
C1503 C 0.38559 0.8466 0.95241 0.0
H1504 H 0.38867 0.8293 0.84351 0.0
C1505 C 0.42402 0.88946 0.81536 0.0
C1506 C 0.41463 0.88821 0.7777 0.0
C1507 C 0.4148 0.88049 0.85002 0.0
C1508 C 0.38739 0.83443 0.87369 0.0
H1509 H 0.39795 0.79756 0.07553 0.0
H1510 H 0.40154 0.82422 0.02052 0.0
H1511 H 0.38371 0.80355 0.89883 0.0
H1512 H 0.38743 0.87847 0.74692 0.0
H1513 H 0.37134 0.86252 0.80759 0.0
H1514 H 0.39083 0.87742 0.92664 0.0
C1515 C 0.39188 0.81113 0.01601 0.0
C1516 C 0.38454 0.81966 0.90553 0.0
C1517 C 0.39006 0.79575 0.04738 0.0
C1518 C 0.3949 0.87971 0.77567 0.0
C1519 C 0.38579 0.87049 0.81026 0.0
C1520 C 0.38884 0.86136 0.92045 0.0
C1521 C 0.38161 0.80941 0.9792 0.0
C1522 C 0.38376 0.82548 0.94537 0.0
C1523 C 0.39617 0.86995 0.84732 0.0
C1524 C 0.38989 0.85534 0.88088 0.0
H1525 H 0.35873 0.76311 1.00092 0.0
H1526 H 0.36114 0.79015 0.94706 0.0
H1527 H 0.38469 0.85172 0.9826 0.0
H1528 H 0.4392 0.89606 0.81748 0.0
H1529 H 0.42315 0.8802 0.87822 0.0
C1530 C 0.49486 0.12647 0.18603 0.0
C1531 C 0.48499 0.11571 0.21854 0.0
C1532 C 0.48326 0.13498 0.1529 0.0
C1533 C 0.43118 0.13478 0.10342 0.0
H1534 H 0.44335 0.19166 0.06862 0.0
C1535 C 0.38928 0.1796 0.9686 0.0
C1536 C 0.38611 0.20121 0.96911 0.0
C1537 C 0.40026 0.16834 0.99947 0.0
C1538 C 0.43959 0.17584 0.07818 0.0
H1539 H 0.4555 0.10442 0.24064 0.0
H1540 H 0.43548 0.11869 0.18298 0.0
H1541 H 0.46577 0.17251 0.11782 0.0
H1542 H 0.39133 0.2277 1.00389 0.0
H1543 H 0.40992 0.20799 0.05833 0.0
H1544 H 0.40478 0.13823 0.06449 0.0
C1545 C 0.45209 0.12066 0.18271 0.0
C1546 C 0.45269 0.16471 0.106 0.0
C1547 C 0.46361 0.11237 0.21583 0.0
C1548 C 0.39316 0.21105 1.00267 0.0
C1549 C 0.40422 0.19977 0.03358 0.0
C1550 C 0.41815 0.14588 0.07548 0.0
C1551 C 0.46159 0.13273 0.15141 0.0
C1552 C 0.4486 0.14404 0.11926 0.0
C1553 C 0.40845 0.17834 0.03187 0.0
C1554 C 0.42209 0.16661 0.0625 0.0
H1555 H 0.51122 0.12969 0.18757 0.0
H1556 H 0.49116 0.14395 0.12911 0.0
H1557 H 0.42756 0.11888 0.11267 0.0
H1558 H 0.38431 0.17151 0.94306 0.0
H1559 H 0.40328 0.15194 0.99672 0.0
C1560 C 0.86107 0.81839 0.49534 0.0
C1561 C 0.86624 0.79705 0.49655 0.0
C1562 C 0.86665 0.83028 0.52684 0.0
C1563 C 0.90416 0.83148 0.60852 0.0
H1564 H 0.86355 0.86651 0.65923 0.0
C1565 C 0.92766 0.87552 0.74165 0.0
C1566 C 0.91524 0.87153 0.77581 0.0
C1567 C 0.9205 0.87142 0.70371 0.0
C1568 C 0.87505 0.85689 0.64515 0.0
H1569 H 0.88108 0.77153 0.53258 0.0
H1570 H 0.89116 0.79233 0.58676 0.0
H1571 H 0.85374 0.84841 0.60016 0.0
H1572 H 0.88502 0.86184 0.7969 0.0
H1573 H 0.87244 0.85445 0.73038 0.0
H1574 H 0.92529 0.83926 0.65386 0.0
C1575 C 0.88291 0.79985 0.56123 0.0
C1576 C 0.86949 0.84665 0.61132 0.0
C1577 C 0.87717 0.78794 0.53001 0.0
C1578 C 0.89485 0.8651 0.77098 0.0
C1579 C 0.88767 0.86089 0.73292 0.0
C1580 C 0.90975 0.84179 0.64198 0.0
C1581 C 0.87771 0.82111 0.55994 0.0
C1582 C 0.88391 0.83353 0.59328 0.0
C1583 C 0.9008 0.86316 0.69924 0.0
C1584 C 0.89518 0.85434 0.66106 0.0
H1585 H 0.85291 0.82604 0.46991 0.0
H1586 H 0.86261 0.8467 0.52504 0.0
H1587 H 0.91562 0.8216 0.59491 0.0
H1588 H 0.94332 0.88086 0.74461 0.0
H1589 H 0.93078 0.87374 0.67814 0.0
C1590 C 0.90655 0.19281 0.48314 0.0
C1591 C 0.88518 0.19768 0.47954 0.0
C1592 C 0.91686 0.18116 0.45478 0.0
C1593 C 0.90729 0.14504 0.37454 0.0
H1594 H 0.96213 0.16044 0.33761 0.0
C1595 C 0.94454 0.11537 0.23004 0.0
C1596 C 0.96618 0.11212 0.22845 0.0
C1597 C 0.93507 0.12339 0.26373 0.0
C1598 C 0.94697 0.15565 0.34802 0.0
H1599 H 0.85818 0.19409 0.44212 0.0
H1600 H 0.87601 0.17389 0.39329 0.0
H1601 H 0.94509 0.17947 0.38962 0.0
H1602 H 0.99467 0.11401 0.26226 0.0
H1603 H 0.97812 0.12765 0.32124 0.0
H1604 H 0.90905 0.12139 0.33261 0.0
C1605 C 0.88478 0.17879 0.41844 0.0
C1606 C 0.93714 0.16664 0.3779 0.0
C1607 C 0.87449 0.19046 0.44666 0.0
C1608 C 0.97795 0.11608 0.26246 0.0
C1609 C 0.96848 0.12423 0.29612 0.0
C1610 C 0.91711 0.13405 0.3447 0.0
C1611 C 0.90612 0.17395 0.42199 0.0
C1612 C 0.91706 0.16164 0.39136 0.0
C1613 C 0.94695 0.12851 0.29683 0.0
C1614 C 0.93703 0.1393 0.33068 0.0
H1615 H 0.91536 0.19779 0.50812 0.0
H1616 H 0.93324 0.17756 0.45891 0.0
H1617 H 0.892 0.14043 0.38455 0.0
H1618 H 0.93497 0.11271 0.20435 0.0
H1619 H 0.91851 0.12658 0.26285 0.0
C1620 C 0.65962 0.18512 0.00899 0.0
C1621 C 0.65447 0.17895 0.9708 0.0
C1622 C 0.66314 0.17033 0.04089 0.0
C1623 C 0.64342 0.11883 0.06873 0.0
H1624 H 0.66425 0.13239 0.17238 0.0
C1625 C 0.60803 0.08537 0.21731 0.0
C1626 C 0.59873 0.10184 0.23668 0.0
C1627 C 0.62292 0.08929 0.18735 0.0
C1628 C 0.65868 0.12811 0.14355 0.0
H1629 H 0.65227 0.15254 0.93452 0.0
H1630 H 0.65922 0.12666 0.98995 0.0
H1631 H 0.67919 0.14862 0.11096 0.0
H1632 H 0.59845 0.13499 0.2422 0.0
H1633 H 0.62474 0.14188 0.19043 0.0
H1634 H 0.62246 0.09888 0.10156 0.0
C1635 C 0.6596 0.14292 0.99575 0.0
C1636 C 0.66709 0.13749 0.10835 0.0
C1637 C 0.65576 0.15776 0.96386 0.0
C1638 C 0.6053 0.12211 0.2273 0.0
C1639 C 0.62049 0.12598 0.19814 0.0
C1640 C 0.63535 0.10915 0.10387 0.0
C1641 C 0.66186 0.14902 0.03519 0.0
C1642 C 0.65855 0.13407 0.07062 0.0
C1643 C 0.62909 0.10968 0.17728 0.0
C1644 C 0.64204 0.11468 0.14152 0.0
H1645 H 0.65905 0.20134 0.01528 0.0
H1646 H 0.66481 0.17582 0.07061 0.0
H1647 H 0.63627 0.11575 0.04051 0.0
H1648 H 0.60309 0.06962 0.22412 0.0
H1649 H 0.62922 0.07653 0.17135 0.0
C1650 C 0.51445 0.87426 0.79746 0.0
C1651 C 0.5235 0.88055 0.76033 0.0
C1652 C 0.52691 0.86673 0.83005 0.0
C1653 C 0.57798 0.84056 0.84765 0.0
H1654 H 0.56653 0.84782 0.95993 0.0
C1655 C 0.61391 0.7877 0.9806 0.0
C1656 C 0.61853 0.79732 0.01592 0.0
C1657 C 0.60417 0.7991 0.94808 0.0
C1658 C 0.57009 0.84574 0.92869 0.0
H1659 H 0.55273 0.8857 0.72951 0.0
H1660 H 0.57435 0.87324 0.78644 0.0
H1661 H 0.54571 0.86706 0.9081 0.0
H1662 H 0.618 0.82673 0.04353 0.0
H1663 H 0.60157 0.84649 0.98698 0.0
H1664 H 0.60233 0.81919 0.86826 0.0
C1665 C 0.55766 0.87352 0.79017 0.0
C1666 C 0.55799 0.85666 0.89898 0.0
C1667 C 0.54526 0.88099 0.75772 0.0
C1668 C 0.61452 0.81879 0.0169 0.0
C1669 C 0.60488 0.83011 0.98459 0.0
C1670 C 0.59 0.82954 0.87737 0.0
C1671 C 0.54866 0.86541 0.82615 0.0
C1672 C 0.56181 0.85427 0.85805 0.0
C1673 C 0.5989 0.82031 0.95031 0.0
C1674 C 0.58626 0.83203 0.91831 0.0
H1675 H 0.49776 0.87334 0.80029 0.0
H1676 H 0.51943 0.8606 0.85731 0.0
H1677 H 0.58115 0.83804 0.81642 0.0
H1678 H 0.61659 0.77116 0.97905 0.0
H1679 H 0.59979 0.79105 0.92212 0.0
C1680 C 0.60699 0.62197 0.73033 0.0
C1681 C 0.58538 0.61985 0.73231 0.0
C1682 C 0.61812 0.62652 0.7644 0.0
C1683 C 0.63197 0.65368 0.82974 0.0
H1684 H 0.61795 0.63277 0.93805 0.0
C1685 C 0.64013 0.70155 0.96659 0.0
C1686 C 0.64653 0.69161 1.00347 0.0
C1687 C 0.63685 0.69009 0.93338 0.0
C1688 C 0.62233 0.63854 0.90801 0.0
H1689 H 0.55874 0.61932 0.77199 0.0
H1690 H 0.57802 0.62751 0.83121 0.0
H1691 H 0.60468 0.6157 0.88072 0.0
H1692 H 0.65493 0.66192 0.03428 0.0
H1693 H 0.64919 0.64182 0.97602 0.0
H1694 H 0.64915 0.67685 0.85698 0.0
C1695 C 0.58643 0.62562 0.8035 0.0
C1696 C 0.61459 0.62888 0.87521 0.0
C1697 C 0.57533 0.62118 0.76946 0.0
C1698 C 0.65011 0.67001 0.00617 0.0
C1699 C 0.64668 0.6585 0.97295 0.0
C1700 C 0.63965 0.66337 0.86252 0.0
C1701 C 0.60786 0.62887 0.8011 0.0
C1702 C 0.61884 0.63672 0.83573 0.0
C1703 C 0.63983 0.66842 0.93633 0.0
C1704 C 0.63441 0.65627 0.90195 0.0
H1705 H 0.61514 0.62109 0.70207 0.0
H1706 H 0.63466 0.62878 0.76178 0.0
H1707 H 0.63541 0.66018 0.7997 0.0
H1708 H 0.63751 0.71819 0.96346 0.0
H1709 H 0.63132 0.69816 0.90571 0.0
C1710 C 0.52514 0.37576 0.24644 0.0
C1711 C 0.5353 0.37449 0.28395 0.0
C1712 C 0.5343 0.36696 0.21308 0.0
C1713 C 0.56865 0.32375 0.19041 0.0
H1714 H 0.57561 0.35105 0.08406 0.0
C1715 C 0.59387 0.2791 0.05226 0.0
C1716 C 0.61028 0.28764 0.02927 0.0
C1717 C 0.58404 0.29034 0.08173 0.0
C1718 C 0.57375 0.34322 0.11361 0.0
H1719 H 0.5636 0.36371 0.31482 0.0
H1720 H 0.57922 0.34826 0.25712 0.0
H1721 H 0.56004 0.37035 0.13799 0.0
H1722 H 0.62878 0.31496 0.01859 0.0
H1723 H 0.61138 0.33474 0.06955 0.0
H1724 H 0.58206 0.29658 0.1662 0.0
C1725 C 0.5642 0.35606 0.25354 0.0
C1726 C 0.56475 0.35424 0.14437 0.0
C1727 C 0.55527 0.36514 0.28655 0.0
C1728 C 0.61631 0.30788 0.03595 0.0
C1729 C 0.60623 0.31927 0.06493 0.0
C1730 C 0.57724 0.31264 0.15953 0.0
C1731 C 0.55364 0.3564 0.21671 0.0
C1732 C 0.56236 0.34469 0.18326 0.0
C1733 C 0.59011 0.31056 0.0885 0.0
C1734 C 0.58012 0.32228 0.12082 0.0
H1735 H 0.50967 0.38261 0.24334 0.0
H1736 H 0.52579 0.36746 0.18504 0.0
H1737 H 0.56682 0.31591 0.21997 0.0
H1738 H 0.58895 0.26351 0.04812 0.0
H1739 H 0.57162 0.28321 0.09921 0.0
C1740 C 0.91145 0.38568 0.3213 0.0
C1741 C 0.90393 0.39085 0.28233 0.0
C1742 C 0.8978 0.38208 0.3533 0.0
C1743 C 0.86676 0.38078 0.42022 0.0
H1744 H 0.82402 0.34194 0.3991 0.0
C1745 C 0.84018 0.32765 0.549 0.0
C1746 C 0.84265 0.30688 0.53954 0.0
C1747 C 0.83746 0.34341 0.51841 0.0
C1748 C 0.83574 0.35292 0.40558 0.0
H1749 H 0.87608 0.39711 0.24668 0.0
H1750 H 0.85214 0.39102 0.30287 0.0
H1751 H 0.84143 0.36041 0.3431 0.0
H1752 H 0.84123 0.28608 0.49139 0.0
H1753 H 0.83734 0.3133 0.43835 0.0
H1754 H 0.86276 0.37184 0.48231 0.0
C1755 C 0.86866 0.38959 0.3085 0.0
C1756 C 0.84559 0.36371 0.37341 0.0
C1757 C 0.88238 0.39322 0.27638 0.0
C1758 C 0.83966 0.30196 0.49965 0.0
C1759 C 0.83726 0.3177 0.46907 0.0
C1760 C 0.85714 0.36982 0.4523 0.0
C1761 C 0.87622 0.38363 0.34721 0.0
C1762 C 0.86205 0.37682 0.38043 0.0
C1763 C 0.83752 0.33869 0.47785 0.0
C1764 C 0.84238 0.35482 0.4453 0.0
H1765 H 0.92794 0.38407 0.32702 0.0
H1766 H 0.90422 0.37718 0.38253 0.0
H1767 H 0.87897 0.39125 0.42662 0.0
H1768 H 0.84197 0.3319 0.57964 0.0
H1769 H 0.83699 0.35938 0.52638 0.0
C1770 C 0.9837 0.62328 0.72165 0.0
C1771 C 0.97441 0.61831 0.75915 0.0
C1772 C 0.97142 0.62903 0.68779 0.0
C1773 C 0.91781 0.63007 0.64651 0.0
H1774 H 0.93405 0.68198 0.59135 0.0
C1775 C 0.87813 0.6673 0.50105 0.0
C1776 C 0.8755 0.68904 0.49737 0.0
C1777 C 0.88866 0.65738 0.53402 0.0
C1778 C 0.92922 0.66755 0.60659 0.0
H1779 H 0.94505 0.61389 0.78982 0.0
H1780 H 0.92372 0.62332 0.73073 0.0
H1781 H 0.95628 0.66529 0.6439 0.0
H1782 H 0.8811 0.71729 0.52665 0.0
H1783 H 0.89943 0.69995 0.58421 0.0
H1784 H 0.89063 0.63248 0.60927 0.0
C1785 C 0.94043 0.62296 0.72739 0.0
C1786 C 0.94213 0.65781 0.63632 0.0
C1787 C 0.95267 0.6175 0.76128 0.0
C1788 C 0.88272 0.70052 0.52857 0.0
C1789 C 0.89346 0.6906 0.56134 0.0
C1790 C 0.90498 0.63971 0.6164 0.0
C1791 C 0.94963 0.62964 0.69063 0.0
C1792 C 0.93655 0.63901 0.65684 0.0
C1793 C 0.89703 0.66896 0.56394 0.0
C1794 C 0.91045 0.65868 0.59631 0.0
H1795 H 0.00039 0.62434 0.71912 0.0
H1796 H 0.97899 0.63383 0.65976 0.0
H1797 H 0.91306 0.6156 0.6617 0.0
H1798 H 0.87283 0.65798 0.47752 0.0
H1799 H 0.89117 0.64071 0.53499 0.0
C1800 C 0.41021 0.3891 0.24738 0.0
C1801 C 0.43189 0.38796 0.25158 0.0
C1802 C 0.40095 0.38448 0.21132 0.0
C1803 C 0.41289 0.37489 0.10451 0.0
H1804 H 0.36772 0.33651 0.11703 0.0
C1805 C 0.39686 0.31309 0.99455 0.0
C1806 C 0.37643 0.31167 0.98095 0.0
C1807 C 0.40135 0.32596 0.02506 0.0
C1808 C 0.3801 0.34747 0.11306 0.0
H1809 H 0.46086 0.38263 0.22035 0.0
H1810 H 0.44487 0.37386 0.15845 0.0
H1811 H 0.37953 0.35399 0.17499 0.0
H1812 H 0.3446 0.32214 0.98879 0.0
H1813 H 0.35242 0.34434 0.04324 0.0
H1814 H 0.41424 0.36722 0.04309 0.0
C1815 C 0.43491 0.37851 0.18258 0.0
C1816 C 0.38681 0.35758 0.14613 0.0
C1817 C 0.44411 0.3832 0.21841 0.0
C1818 C 0.36049 0.32312 0.9987 0.0
C1819 C 0.36493 0.33572 0.02976 0.0
C1820 C 0.40638 0.36455 0.07166 0.0
C1821 C 0.41321 0.37866 0.17884 0.0
C1822 C 0.40371 0.37092 0.14249 0.0
C1823 C 0.38542 0.33735 0.04289 0.0
C1824 C 0.39032 0.35035 0.07599 0.0
H1825 H 0.40038 0.39272 0.27241 0.0
H1826 H 0.38419 0.385 0.2092 0.0
H1827 H 0.42561 0.38544 0.10047 0.0
H1828 H 0.40941 0.30455 0.98106 0.0
H1829 H 0.41725 0.32681 0.03509 0.0
C1830 C 0.40284 0.67902 0.98649 0.0
C1831 C 0.38104 0.67872 0.98538 0.0
C1832 C 0.41483 0.67154 0.9552 0.0
C1833 C 0.41209 0.63902 0.86661 0.0
H1834 H 0.46273 0.66684 0.8352 0.0
C1835 C 0.45552 0.62692 0.71668 0.0
C1836 C 0.47734 0.6269 0.71651 0.0
C1837 C 0.44428 0.63094 0.75145 0.0
C1838 C 0.4488 0.65867 0.84391 0.0
H1839 H 0.35487 0.67036 0.94987 0.0
H1840 H 0.37565 0.65767 0.89509 0.0
H1841 H 0.44212 0.67893 0.89065 0.0
H1842 H 0.50441 0.6306 0.75346 0.0
H1843 H 0.4848 0.63754 0.81421 0.0
H1844 H 0.4186 0.6191 0.81904 0.0
C1845 C 0.38358 0.66327 0.9206 0.0
C1846 C 0.43691 0.66562 0.87586 0.0
C1847 C 0.37159 0.67063 0.95207 0.0
C1848 C 0.48764 0.63017 0.7526 0.0
C1849 C 0.47638 0.63446 0.78731 0.0
C1850 C 0.42392 0.63217 0.83447 0.0
C1851 C 0.40543 0.66362 0.92159 0.0
C1852 C 0.41831 0.65596 0.88771 0.0
C1853 C 0.45452 0.63534 0.78697 0.0
C1854 C 0.44242 0.64192 0.82257 0.0
H1855 H 0.41072 0.68476 0.01192 0.0
H1856 H 0.43155 0.67174 0.95773 0.0
H1857 H 0.39813 0.63086 0.87509 0.0
H1858 H 0.44706 0.62468 0.68935 0.0
H1859 H 0.42751 0.63162 0.74985 0.0
C1860 C 0.12954 0.7163 0.50676 0.0
C1861 C 0.12352 0.71438 0.46676 0.0
C1862 C 0.12639 0.70016 0.53599 0.0
C1863 C 0.09215 0.65896 0.56375 0.0
H1864 H 0.13617 0.63788 0.63576 0.0
C1865 C 0.0721 0.60613 0.70136 0.0
C1866 C 0.08144 0.6112 0.73716 0.0
C1867 C 0.08017 0.61335 0.66427 0.0
C1868 C 0.12367 0.64365 0.61608 0.0
H1869 H 0.10934 0.6942 0.42595 0.0
H1870 H 0.10311 0.66621 0.4777 0.0
H1871 H 0.14416 0.66222 0.57874 0.0
H1872 H 0.107 0.62668 0.76281 0.0
H1873 H 0.12071 0.64014 0.6984 0.0
H1874 H 0.07133 0.64188 0.60213 0.0
C1875 C 0.11058 0.6801 0.48604 0.0
C1876 C 0.12829 0.65748 0.58338 0.0
C1877 C 0.11411 0.69609 0.45659 0.0
C1878 C 0.09975 0.62241 0.73544 0.0
C1879 C 0.10757 0.63006 0.69839 0.0
C1880 C 0.08744 0.64547 0.59683 0.0
C1881 C 0.11683 0.68198 0.52588 0.0
C1882 C 0.11249 0.66554 0.55749 0.0
C1883 C 0.09739 0.62631 0.66236 0.0
C1884 C 0.10306 0.63798 0.62398 0.0
H1885 H 0.13695 0.73016 0.51539 0.0
H1886 H 0.13108 0.70202 0.56668 0.0
H1887 H 0.0797 0.66513 0.54429 0.0
H1888 H 0.058 0.59738 0.70227 0.0
H1889 H 0.07227 0.60961 0.63719 0.0
C1890 C 0.00489 0.36732 0.31866 0.0
C1891 C 0.01485 0.37633 0.28437 0.0
C1892 C 0.01659 0.35854 0.35149 0.0
C1893 C 0.06817 0.33404 0.37086 0.0
H1894 H 0.05544 0.33763 0.4838 0.0
C1895 C 0.10627 0.2804 0.50035 0.0
C1896 C 0.11168 0.28992 0.53544 0.0
C1897 C 0.09544 0.29166 0.46906 0.0
C1898 C 0.05925 0.33654 0.45235 0.0
H1899 H 0.04475 0.3846 0.25914 0.0
H1900 H 0.06492 0.36976 0.31623 0.0
H1901 H 0.03379 0.3569 0.43284 0.0
H1902 H 0.1109 0.31918 0.56372 0.0
H1903 H 0.09229 0.33866 0.50924 0.0
H1904 H 0.09344 0.31352 0.39025 0.0
C1905 C 0.04818 0.36904 0.31759 0.0
C1906 C 0.04674 0.34747 0.42318 0.0
C1907 C 0.03657 0.37781 0.28505 0.0
C1908 C 0.10711 0.31128 0.53719 0.0
C1909 C 0.09615 0.32243 0.50618 0.0
C1910 C 0.08045 0.32289 0.39996 0.0
C1911 C 0.03844 0.35855 0.35053 0.0
C1912 C 0.05122 0.34658 0.38204 0.0
C1913 C 0.08965 0.31264 0.47224 0.0
C1914 C 0.0763 0.32416 0.4411 0.0
H1915 H 0.98824 0.36556 0.31882 0.0
H1916 H 0.00859 0.35059 0.37643 0.0
H1917 H 0.07187 0.33271 0.33942 0.0
H1918 H 0.10916 0.26394 0.49811 0.0
H1919 H 0.09064 0.28364 0.44333 0.0
loop_
_geom_bond_atom_site_label_1
_geom_bond_atom_site_label_2
_geom_bond_distance
_geom_bond_site_symmetry_2
_ccdc_geom_bond_type
Co0 N5 2.057 . S
Co0 O17 2.021 . S
Co0 O20 2.062 1_455 S
Co0 O24 2.117 . S
Co0 O25 2.020 . S
C1 O21 1.259 1_455 S
C1 O24 1.258 . S
Co2 N11 2.057 . S
Co2 O18 2.117 . S
Co2 O19 2.020 . S
Co2 O21 2.021 . S
Co2 O26 2.062 1_655 S
C3 N5 1.316 . S
C3 N6 1.347 . S
C3 H8 0.931 . S
C4 N5 1.375 . S
C4 C7 1.350 . S
C4 H9 0.930 . S
N5 Co0 2.057 . S
N5 C3 1.316 . S
N5 C4 1.375 . S
N6 C3 1.347 . S
N6 C7 1.373 . S
C7 C4 1.350 . S
C7 N6 1.373 . S
C7 H28 0.931 . S
H8 C3 0.931 . S
H9 C4 0.930 . S
C10 O17 1.259 . S
C10 O18 1.258 1_455 S
N11 Co2 2.057 . S
N11 C12 1.316 . S
N11 C13 1.375 . S
C12 N11 1.316 . S
C12 N14 1.347 1_554 S
C12 H23 0.931 . S
C13 N11 1.375 . S
C13 C15 1.350 1_554 S
C13 H22 0.930 . S
N14 C12 1.347 1_556 S
N14 C15 1.373 . S
C15 C13 1.350 1_556 S
C15 N14 1.373 . S
C15 H29 0.931 . S
C16 O19 1.256 . S
C16 O20 1.255 . S
O17 Co0 2.021 . S
O17 C10 1.259 . S
O18 Co2 2.117 . S
O18 C10 1.258 1_655 S
O19 Co2 2.020 . S
O19 C16 1.256 . S
O20 Co0 2.062 1_655 S
O20 C16 1.255 . S
O21 C1 1.259 1_655 S
O21 Co2 2.021 . S
H22 C13 0.930 . S
H23 C12 0.931 . S
O24 Co0 2.117 . S
O24 C1 1.258 . S
O25 Co0 2.020 . S
O25 C27 1.256 . S
O26 Co2 2.062 1_455 S
O26 C27 1.255 . S
C27 O25 1.256 . S
C27 O26 1.255 . S
H28 C7 0.931 . S
H29 C15 0.931 . S
Co30 N35 2.057 . S
Co30 O47 2.021 . S
Co30 O50 2.062 . S
Co30 O54 2.117 . S
Co30 O55 2.020 . S
C31 O51 1.259 . S
C31 O54 1.258 . S
Co32 N41 2.057 . S
Co32 O48 2.117 . S
Co32 O49 2.020 . S
Co32 O51 2.021 . S
Co32 O56 2.062 . S
C33 N35 1.316 . S
C33 N36 1.347 . S
C33 H38 0.931 . S
C34 N35 1.375 . S
C34 C37 1.350 . S
C34 H39 0.930 . S
N35 Co30 2.057 . S
N35 C33 1.316 . S
N35 C34 1.375 . S
N36 C33 1.347 . S
N36 C37 1.373 . S
C37 C34 1.350 . S
C37 N36 1.373 . S
C37 H58 0.931 . S
H38 C33 0.931 . S
H39 C34 0.930 . S
C40 O47 1.259 . S
C40 O48 1.258 . S
N41 Co32 2.057 . S
N41 C42 1.316 . S
N41 C43 1.375 . S
C42 N41 1.316 . S
C42 N44 1.347 . S
C42 H53 0.931 . S
C43 N41 1.375 . S
C43 C45 1.350 . S
C43 H52 0.930 . S
N44 C42 1.347 . S
N44 C45 1.373 . S
C45 C43 1.350 . S
C45 N44 1.373 . S
C45 H59 0.931 . S
C46 O49 1.256 . S
C46 O50 1.255 . S
O47 Co30 2.021 . S
O47 C40 1.259 . S
O48 Co32 2.117 . S
O48 C40 1.258 . S
O49 Co32 2.020 . S
O49 C46 1.256 . S
O50 Co30 2.062 . S
O50 C46 1.255 . S
O51 C31 1.259 . S
O51 Co32 2.021 . S
H52 C43 0.930 . S
H53 C42 0.931 . S
O54 Co30 2.117 . S
O54 C31 1.258 . S
O55 Co30 2.020 . S
O55 C57 1.256 . S
O56 Co32 2.062 . S
O56 C57 1.255 . S
C57 O55 1.256 . S
C57 O56 1.255 . S
H58 C37 0.931 . S
H59 C45 0.931 . S
Co60 N65 2.057 . S
Co60 O77 2.021 . S
Co60 O80 2.062 . S
Co60 O84 2.117 . S
Co60 O85 2.020 . S
C61 O81 1.259 . S
C61 O84 1.258 . S
Co62 N71 2.057 . S
Co62 O78 2.117 . S
Co62 O79 2.020 . S
Co62 O81 2.021 . S
Co62 O86 2.062 . S
C63 N65 1.316 . S
C63 N66 1.347 . S
C63 H68 0.931 . S
C64 N65 1.375 . S
C64 C67 1.350 . S
C64 H69 0.930 . S
N65 Co60 2.057 . S
N65 C63 1.316 . S
N65 C64 1.375 . S
N66 C63 1.347 . S
N66 C67 1.373 . S
C67 C64 1.350 . S
C67 N66 1.373 . S
C67 H88 0.931 . S
H68 C63 0.931 . S
H69 C64 0.930 . S
C70 O77 1.259 . S
C70 O78 1.258 . S
N71 Co62 2.057 . S
N71 C72 1.316 . S
N71 C73 1.375 . S
C72 N71 1.316 . S
C72 N74 1.347 . S
C72 H83 0.931 . S
C73 N71 1.375 . S
C73 C75 1.350 . S
C73 H82 0.930 . S
N74 C72 1.347 . S
N74 C75 1.373 . S
C75 C73 1.350 . S
C75 N74 1.373 . S
C75 H89 0.931 . S
C76 O79 1.256 . S
C76 O80 1.255 . S
O77 Co60 2.021 . S
O77 C70 1.259 . S
O78 Co62 2.117 . S
O78 C70 1.258 . S
O79 Co62 2.020 . S
O79 C76 1.256 . S
O80 Co60 2.062 . S
O80 C76 1.255 . S
O81 C61 1.259 . S
O81 Co62 2.021 . S
H82 C73 0.930 . S
H83 C72 0.931 . S
O84 Co60 2.117 . S
O84 C61 1.258 . S
O85 Co60 2.020 . S
O85 C87 1.256 . S
O86 Co62 2.062 . S
O86 C87 1.255 . S
C87 O85 1.256 . S
C87 O86 1.255 . S
H88 C67 0.931 . S
H89 C75 0.931 . S
Co90 N95 2.057 . S
Co90 O107 2.021 . S
Co90 O110 2.062 . S
Co90 O114 2.117 . S
Co90 O115 2.020 . S
C91 O111 1.259 . S
C91 O114 1.258 . S
Co92 N101 2.057 . S
Co92 O108 2.117 . S
Co92 O109 2.020 . S
Co92 O111 2.021 . S
Co92 O116 2.062 . S
C93 N95 1.316 . S
C93 N96 1.347 . S
C93 H98 0.931 . S
C94 N95 1.375 . S
C94 C97 1.350 . S
C94 H99 0.930 . S
N95 Co90 2.057 . S
N95 C93 1.316 . S
N95 C94 1.375 . S
N96 C93 1.347 . S
N96 C97 1.373 . S
C97 C94 1.350 . S
C97 N96 1.373 . S
C97 H118 0.931 . S
H98 C93 0.931 . S
H99 C94 0.930 . S
C100 O107 1.259 . S
C100 O108 1.258 . S
N101 Co92 2.057 . S
N101 C102 1.316 . S
N101 C103 1.375 . S
C102 N101 1.316 . S
C102 N104 1.347 . S
C102 H113 0.931 . S
C103 N101 1.375 . S
C103 C105 1.350 . S
C103 H112 0.930 . S
N104 C102 1.347 . S
N104 C105 1.373 . S
C105 C103 1.350 . S
C105 N104 1.373 . S
C105 H119 0.931 . S
C106 O109 1.256 . S
C106 O110 1.255 . S
O107 Co90 2.021 . S
O107 C100 1.259 . S
O108 Co92 2.117 . S
O108 C100 1.258 . S
O109 Co92 2.020 . S
O109 C106 1.256 . S
O110 Co90 2.062 . S
O110 C106 1.255 . S
O111 C91 1.259 . S
O111 Co92 2.021 . S
H112 C103 0.930 . S
H113 C102 0.931 . S
O114 Co90 2.117 . S
O114 C91 1.258 . S
O115 Co90 2.020 . S
O115 C117 1.256 . S
O116 Co92 2.062 . S
O116 C117 1.255 . S
C117 O115 1.256 . S
C117 O116 1.255 . S
H118 C97 0.931 . S
H119 C105 0.931 . S
Co120 N125 2.057 . S
Co120 O137 2.021 . S
Co120 O140 2.062 1_455 S
Co120 O144 2.117 . S
Co120 O145 2.020 . S
C121 O141 1.259 1_455 S
C121 O144 1.258 . S
Co122 N131 2.057 . S
Co122 O138 2.117 . S
Co122 O139 2.020 . S
Co122 O141 2.021 . S
Co122 O146 2.062 1_655 S
C123 N125 1.316 . S
C123 N126 1.347 1_556 S
C123 H128 0.931 . S
C124 N125 1.375 . S
C124 C127 1.350 1_556 S
C124 H129 0.930 . S
N125 Co120 2.057 . S
N125 C123 1.316 . S
N125 C124 1.375 . S
N126 C123 1.347 1_554 S
N126 C127 1.373 . S
C127 C124 1.350 1_554 S
C127 N126 1.373 . S
C127 H148 0.931 . S
H128 C123 0.931 . S
H129 C124 0.930 . S
C130 O137 1.259 . S
C130 O138 1.258 1_455 S
N131 Co122 2.057 . S
N131 C132 1.316 . S
N131 C133 1.375 . S
C132 N131 1.316 . S
C132 N134 1.347 . S
C132 H143 0.931 . S
C133 N131 1.375 . S
C133 C135 1.350 . S
C133 H142 0.930 . S
N134 C132 1.347 . S
N134 C135 1.373 . S
C135 C133 1.350 . S
C135 N134 1.373 . S
C135 H149 0.931 . S
C136 O139 1.256 . S
C136 O140 1.255 . S
O137 Co120 2.021 . S
O137 C130 1.259 . S
O138 Co122 2.117 . S
O138 C130 1.258 1_655 S
O139 Co122 2.020 . S
O139 C136 1.256 . S
O140 Co120 2.062 1_655 S
O140 C136 1.255 . S
O141 C121 1.259 1_655 S
O141 Co122 2.021 . S
H142 C133 0.930 . S
H143 C132 0.931 . S
O144 Co120 2.117 . S
O144 C121 1.258 . S
O145 Co120 2.020 . S
O145 C147 1.256 . S
O146 Co122 2.062 1_455 S
O146 C147 1.255 . S
C147 O145 1.256 . S
C147 O146 1.255 . S
H148 C127 0.931 . S
H149 C135 0.931 . S
Co150 N155 2.057 . S
Co150 O167 2.021 . S
Co150 O170 2.062 . S
Co150 O174 2.117 . S
Co150 O175 2.020 . S
C151 O171 1.259 . S
C151 O174 1.258 . S
Co152 N161 2.057 . S
Co152 O168 2.117 . S
Co152 O169 2.020 . S
Co152 O171 2.021 . S
Co152 O176 2.062 . S
C153 N155 1.316 . S
C153 N156 1.347 . S
C153 H158 0.931 . S
C154 N155 1.375 . S
C154 C157 1.350 . S
C154 H159 0.930 . S
N155 Co150 2.057 . S
N155 C153 1.316 . S
N155 C154 1.375 . S
N156 C153 1.347 . S
N156 C157 1.373 . S
C157 C154 1.350 . S
C157 N156 1.373 . S
C157 H178 0.931 . S
H158 C153 0.931 . S
H159 C154 0.930 . S
C160 O167 1.259 . S
C160 O168 1.258 . S
N161 Co152 2.057 . S
N161 C162 1.316 . S
N161 C163 1.375 . S
C162 N161 1.316 . S
C162 N164 1.347 . S
C162 H173 0.931 . S
C163 N161 1.375 . S
C163 C165 1.350 . S
C163 H172 0.930 . S
N164 C162 1.347 . S
N164 C165 1.373 . S
C165 C163 1.350 . S
C165 N164 1.373 . S
C165 H179 0.931 . S
C166 O169 1.256 . S
C166 O170 1.255 . S
O167 Co150 2.021 . S
O167 C160 1.259 . S
O168 Co152 2.117 . S
O168 C160 1.258 . S
O169 Co152 2.020 . S
O169 C166 1.256 . S
O170 Co150 2.062 . S
O170 C166 1.255 . S
O171 C151 1.259 . S
O171 Co152 2.021 . S
H172 C163 0.930 . S
H173 C162 0.931 . S
O174 Co150 2.117 . S
O174 C151 1.258 . S
O175 Co150 2.020 . S
O175 C177 1.256 . S
O176 Co152 2.062 . S
O176 C177 1.255 . S
C177 O175 1.256 . S
C177 O176 1.255 . S
H178 C157 0.931 . S
H179 C165 0.931 . S
Co180 N185 2.057 . S
Co180 O197 2.021 . S
Co180 O200 2.062 . S
Co180 O204 2.117 . S
Co180 O205 2.020 . S
C181 O201 1.259 . S
C181 O204 1.258 . S
Co182 N191 2.057 . S
Co182 O198 2.117 . S
Co182 O199 2.020 . S
Co182 O201 2.021 . S
Co182 O206 2.062 . S
C183 N185 1.316 . S
C183 N186 1.347 . S
C183 H188 0.931 . S
C184 N185 1.375 . S
C184 C187 1.350 . S
C184 H189 0.930 . S
N185 Co180 2.057 . S
N185 C183 1.316 . S
N185 C184 1.375 . S
N186 C183 1.347 . S
N186 C187 1.373 . S
C187 C184 1.350 . S
C187 N186 1.373 . S
C187 H208 0.931 . S
H188 C183 0.931 . S
H189 C184 0.930 . S
C190 O197 1.259 . S
C190 O198 1.258 . S
N191 Co182 2.057 . S
N191 C192 1.316 . S
N191 C193 1.375 . S
C192 N191 1.316 . S
C192 N194 1.347 . S
C192 H203 0.931 . S
C193 N191 1.375 . S
C193 C195 1.350 . S
C193 H202 0.930 . S
N194 C192 1.347 . S
N194 C195 1.373 . S
C195 C193 1.350 . S
C195 N194 1.373 . S
C195 H209 0.931 . S
C196 O199 1.256 . S
C196 O200 1.255 . S
O197 Co180 2.021 . S
O197 C190 1.259 . S
O198 Co182 2.117 . S
O198 C190 1.258 . S
O199 Co182 2.020 . S
O199 C196 1.256 . S
O200 Co180 2.062 . S
O200 C196 1.255 . S
O201 C181 1.259 . S
O201 Co182 2.021 . S
H202 C193 0.930 . S
H203 C192 0.931 . S
O204 Co180 2.117 . S
O204 C181 1.258 . S
O205 Co180 2.020 . S
O205 C207 1.256 . S
O206 Co182 2.062 . S
O206 C207 1.255 . S
C207 O205 1.256 . S
C207 O206 1.255 . S
H208 C187 0.931 . S
H209 C195 0.931 . S
Co210 N215 2.057 . S
Co210 O227 2.021 . S
Co210 O230 2.062 . S
Co210 O234 2.117 . S
Co210 O235 2.020 . S
C211 O231 1.259 . S
C211 O234 1.258 . S
Co212 N221 2.057 . S
Co212 O228 2.117 . S
Co212 O229 2.020 . S
Co212 O231 2.021 . S
Co212 O236 2.062 . S
C213 N215 1.316 . S
C213 N216 1.347 . S
C213 H218 0.931 . S
C214 N215 1.375 . S
C214 C217 1.350 . S
C214 H219 0.930 . S
N215 Co210 2.057 . S
N215 C213 1.316 . S
N215 C214 1.375 . S
N216 C213 1.347 . S
N216 C217 1.373 . S
C217 C214 1.350 . S
C217 N216 1.373 . S
C217 H238 0.931 . S
H218 C213 0.931 . S
H219 C214 0.930 . S
C220 O227 1.259 . S
C220 O228 1.258 . S
N221 Co212 2.057 . S
N221 C222 1.316 . S
N221 C223 1.375 . S
C222 N221 1.316 . S
C222 N224 1.347 . S
C222 H233 0.931 . S
C223 N221 1.375 . S
C223 C225 1.350 . S
C223 H232 0.930 . S
N224 C222 1.347 . S
N224 C225 1.373 . S
C225 C223 1.350 . S
C225 N224 1.373 . S
C225 H239 0.931 . S
C226 O229 1.256 . S
C226 O230 1.255 . S
O227 Co210 2.021 . S
O227 C220 1.259 . S
O228 Co212 2.117 . S
O228 C220 1.258 . S
O229 Co212 2.020 . S
O229 C226 1.256 . S
O230 Co210 2.062 . S
O230 C226 1.255 . S
O231 C211 1.259 . S
O231 Co212 2.021 . S
H232 C223 0.930 . S
H233 C222 0.931 . S
O234 Co210 2.117 . S
O234 C211 1.258 . S
O235 Co210 2.020 . S
O235 C237 1.256 . S
O236 Co212 2.062 . S
O236 C237 1.255 . S
C237 O235 1.256 . S
C237 O236 1.255 . S
H238 C217 0.931 . S
H239 C225 0.931 . S
Co240 N245 2.057 . S
Co240 O257 2.021 . S
Co240 O260 2.062 . S
Co240 O264 2.117 . S
Co240 O265 2.020 . S
C241 O261 1.259 . S
C241 O264 1.258 . S
Co242 N251 2.057 . S
Co242 O258 2.117 . S
Co242 O259 2.020 . S
Co242 O261 2.021 . S
Co242 O266 2.062 . S
C243 N245 1.316 . S
C243 N246 1.347 . S
C243 H248 0.931 . S
C244 N245 1.375 . S
C244 C247 1.350 . S
C244 H249 0.930 . S
N245 Co240 2.057 . S
N245 C243 1.316 . S
N245 C244 1.375 . S
N246 C243 1.347 . S
N246 C247 1.373 . S
C247 C244 1.350 . S
C247 N246 1.373 . S
C247 H268 0.931 . S
H248 C243 0.931 . S
H249 C244 0.930 . S
C250 O257 1.259 . S
C250 O258 1.258 . S
N251 Co242 2.057 . S
N251 C252 1.316 . S
N251 C253 1.375 . S
C252 N251 1.316 . S
C252 N254 1.347 . S
C252 H263 0.931 . S
C253 N251 1.375 . S
C253 C255 1.350 . S
C253 H262 0.930 . S
N254 C252 1.347 . S
N254 C255 1.373 . S
C255 C253 1.350 . S
C255 N254 1.373 . S
C255 H269 0.931 . S
C256 O259 1.256 . S
C256 O260 1.255 . S
O257 Co240 2.021 . S
O257 C250 1.259 . S
O258 Co242 2.117 . S
O258 C250 1.258 . S
O259 Co242 2.020 . S
O259 C256 1.256 . S
O260 Co240 2.062 . S
O260 C256 1.255 . S
O261 C241 1.259 . S
O261 Co242 2.021 . S
H262 C253 0.930 . S
H263 C252 0.931 . S
O264 Co240 2.117 . S
O264 C241 1.258 . S
O265 Co240 2.020 . S
O265 C267 1.256 . S
O266 Co242 2.062 . S
O266 C267 1.255 . S
C267 O265 1.256 . S
C267 O266 1.255 . S
H268 C247 0.931 . S
H269 C255 0.931 . S
Co270 N275 2.057 . S
Co270 O287 2.021 . S
Co270 O290 2.062 . S
Co270 O294 2.117 . S
Co270 O295 2.020 . S
C271 O291 1.259 . S
C271 O294 1.258 . S
Co272 N281 2.057 . S
Co272 O288 2.117 . S
Co272 O289 2.020 . S
Co272 O291 2.021 . S
Co272 O296 2.062 . S
C273 N275 1.316 . S
C273 N276 1.347 . S
C273 H278 0.931 . S
C274 N275 1.375 . S
C274 C277 1.350 . S
C274 H279 0.930 . S
N275 Co270 2.057 . S
N275 C273 1.316 . S
N275 C274 1.375 . S
N276 C273 1.347 . S
N276 C277 1.373 . S
C277 C274 1.350 . S
C277 N276 1.373 . S
C277 H298 0.931 . S
H278 C273 0.931 . S
H279 C274 0.930 . S
C280 O287 1.259 . S
C280 O288 1.258 . S
N281 Co272 2.057 . S
N281 C282 1.316 . S
N281 C283 1.375 . S
C282 N281 1.316 . S
C282 N284 1.347 . S
C282 H293 0.931 . S
C283 N281 1.375 . S
C283 C285 1.350 . S
C283 H292 0.930 . S
N284 C282 1.347 . S
N284 C285 1.373 . S
C285 C283 1.350 . S
C285 N284 1.373 . S
C285 H299 0.931 . S
C286 O289 1.256 . S
C286 O290 1.255 . S
O287 Co270 2.021 . S
O287 C280 1.259 . S
O288 Co272 2.117 . S
O288 C280 1.258 . S
O289 Co272 2.020 . S
O289 C286 1.256 . S
O290 Co270 2.062 . S
O290 C286 1.255 . S
O291 C271 1.259 . S
O291 Co272 2.021 . S
H292 C283 0.930 . S
H293 C282 0.931 . S
O294 Co270 2.117 . S
O294 C271 1.258 . S
O295 Co270 2.020 . S
O295 C297 1.256 . S
O296 Co272 2.062 . S
O296 C297 1.255 . S
C297 O295 1.256 . S
C297 O296 1.255 . S
H298 C277 0.931 . S
H299 C285 0.931 . S
Co300 N305 2.057 . S
Co300 O317 2.021 . S
Co300 O320 2.062 . S
Co300 O324 2.117 . S
Co300 O325 2.020 . S
C301 O321 1.259 . S
C301 O324 1.258 . S
Co302 N311 2.057 . S
Co302 O318 2.117 . S
Co302 O319 2.020 . S
Co302 O321 2.021 . S
Co302 O326 2.062 . S
C303 N305 1.316 . S
C303 N306 1.347 . S
C303 H308 0.931 . S
C304 N305 1.375 . S
C304 C307 1.350 . S
C304 H309 0.930 . S
N305 Co300 2.057 . S
N305 C303 1.316 . S
N305 C304 1.375 . S
N306 C303 1.347 . S
N306 C307 1.373 . S
C307 C304 1.350 . S
C307 N306 1.373 . S
C307 H328 0.931 . S
H308 C303 0.931 . S
H309 C304 0.930 . S
C310 O317 1.259 . S
C310 O318 1.258 . S
N311 Co302 2.057 . S
N311 C312 1.316 . S
N311 C313 1.375 . S
C312 N311 1.316 . S
C312 N314 1.347 . S
C312 H323 0.931 . S
C313 N311 1.375 . S
C313 C315 1.350 . S
C313 H322 0.930 . S
N314 C312 1.347 . S
N314 C315 1.373 . S
C315 C313 1.350 . S
C315 N314 1.373 . S
C315 H329 0.931 . S
C316 O319 1.256 . S
C316 O320 1.255 . S
O317 Co300 2.021 . S
O317 C310 1.259 . S
O318 Co302 2.117 . S
O318 C310 1.258 . S
O319 Co302 2.020 . S
O319 C316 1.256 . S
O320 Co300 2.062 . S
O320 C316 1.255 . S
O321 C301 1.259 . S
O321 Co302 2.021 . S
H322 C313 0.930 . S
H323 C312 0.931 . S
O324 Co300 2.117 . S
O324 C301 1.258 . S
O325 Co300 2.020 . S
O325 C327 1.256 . S
O326 Co302 2.062 . S
O326 C327 1.255 . S
C327 O325 1.256 . S
C327 O326 1.255 . S
H328 C307 0.931 . S
H329 C315 0.931 . S
Co330 N335 2.057 . S
Co330 O347 2.021 . S
Co330 O350 2.062 . S
Co330 O354 2.117 . S
Co330 O355 2.020 . S
C331 O351 1.259 . S
C331 O354 1.258 . S
Co332 N341 2.057 . S
Co332 O348 2.117 . S
Co332 O349 2.020 . S
Co332 O351 2.021 . S
Co332 O356 2.062 . S
C333 N335 1.316 . S
C333 N336 1.347 . S
C333 H338 0.931 . S
C334 N335 1.375 . S
C334 C337 1.350 . S
C334 H339 0.930 . S
N335 Co330 2.057 . S
N335 C333 1.316 . S
N335 C334 1.375 . S
N336 C333 1.347 . S
N336 C337 1.373 . S
C337 C334 1.350 . S
C337 N336 1.373 . S
C337 H358 0.931 . S
H338 C333 0.931 . S
H339 C334 0.930 . S
C340 O347 1.259 . S
C340 O348 1.258 . S
N341 Co332 2.057 . S
N341 C342 1.316 . S
N341 C343 1.375 . S
C342 N341 1.316 . S
C342 N344 1.347 . S
C342 H353 0.931 . S
C343 N341 1.375 . S
C343 C345 1.350 . S
C343 H352 0.930 . S
N344 C342 1.347 . S
N344 C345 1.373 . S
C345 C343 1.350 . S
C345 N344 1.373 . S
C345 H359 0.931 . S
C346 O349 1.256 . S
C346 O350 1.255 . S
O347 Co330 2.021 . S
O347 C340 1.259 . S
O348 Co332 2.117 . S
O348 C340 1.258 . S
O349 Co332 2.020 . S
O349 C346 1.256 . S
O350 Co330 2.062 . S
O350 C346 1.255 . S
O351 C331 1.259 . S
O351 Co332 2.021 . S
H352 C343 0.930 . S
H353 C342 0.931 . S
O354 Co330 2.117 . S
O354 C331 1.258 . S
O355 Co330 2.020 . S
O355 C357 1.256 . S
O356 Co332 2.062 . S
O356 C357 1.255 . S
C357 O355 1.256 . S
C357 O356 1.255 . S
H358 C337 0.931 . S
H359 C345 0.931 . S
Co360 N365 2.057 . S
Co360 O377 2.021 . S
Co360 O380 2.062 . S
Co360 O384 2.117 . S
Co360 O385 2.020 . S
C361 O381 1.259 . S
C361 O384 1.258 . S
Co362 N371 2.057 . S
Co362 O378 2.117 . S
Co362 O379 2.020 . S
Co362 O381 2.021 . S
Co362 O386 2.062 . S
C363 N365 1.316 . S
C363 N366 1.347 . S
C363 H368 0.931 . S
C364 N365 1.375 . S
C364 C367 1.350 . S
C364 H369 0.930 . S
N365 Co360 2.057 . S
N365 C363 1.316 . S
N365 C364 1.375 . S
N366 C363 1.347 . S
N366 C367 1.373 . S
C367 C364 1.350 . S
C367 N366 1.373 . S
C367 H388 0.931 . S
H368 C363 0.931 . S
H369 C364 0.930 . S
C370 O377 1.259 . S
C370 O378 1.258 . S
N371 Co362 2.057 . S
N371 C372 1.316 . S
N371 C373 1.375 . S
C372 N371 1.316 . S
C372 N374 1.347 . S
C372 H383 0.931 . S
C373 N371 1.375 . S
C373 C375 1.350 . S
C373 H382 0.930 . S
N374 C372 1.347 . S
N374 C375 1.373 . S
C375 C373 1.350 . S
C375 N374 1.373 . S
C375 H389 0.931 . S
C376 O379 1.256 . S
C376 O380 1.255 . S
O377 Co360 2.021 . S
O377 C370 1.259 . S
O378 Co362 2.117 . S
O378 C370 1.258 . S
O379 Co362 2.020 . S
O379 C376 1.256 . S
O380 Co360 2.062 . S
O380 C376 1.255 . S
O381 C361 1.259 . S
O381 Co362 2.021 . S
H382 C373 0.930 . S
H383 C372 0.931 . S
O384 Co360 2.117 . S
O384 C361 1.258 . S
O385 Co360 2.020 . S
O385 C387 1.256 . S
O386 Co362 2.062 . S
O386 C387 1.255 . S
C387 O385 1.256 . S
C387 O386 1.255 . S
H388 C367 0.931 . S
H389 C375 0.931 . S
Co390 N395 2.057 . S
Co390 O407 2.021 . S
Co390 O410 2.062 1_655 S
Co390 O414 2.117 . S
Co390 O415 2.020 . S
C391 O411 1.259 . S
C391 O414 1.258 1_455 S
Co392 N401 2.057 . S
Co392 O408 2.117 . S
Co392 O409 2.020 . S
Co392 O411 2.021 . S
Co392 O416 2.062 1_455 S
C393 N395 1.316 . S
C393 N396 1.347 . S
C393 H398 0.931 . S
C394 N395 1.375 . S
C394 C397 1.350 . S
C394 H399 0.930 . S
N395 Co390 2.057 . S
N395 C393 1.316 . S
N395 C394 1.375 . S
N396 C393 1.347 . S
N396 C397 1.373 . S
C397 C394 1.350 . S
C397 N396 1.373 . S
C397 H418 0.931 . S
H398 C393 0.931 . S
H399 C394 0.930 . S
C400 O407 1.258 1_455 S
C400 O408 1.260 . S
N401 Co392 2.057 . S
N401 C402 1.316 . S
N401 C403 1.375 . S
C402 N401 1.316 . S
C402 N404 1.347 . S
C402 H413 0.931 . S
C403 N401 1.375 . S
C403 C405 1.350 . S
C403 H412 0.930 . S
N404 C402 1.347 . S
N404 C405 1.373 . S
C405 C403 1.350 . S
C405 N404 1.373 . S
C405 H419 0.931 . S
C406 O409 1.256 . S
C406 O410 1.255 . S
O407 Co390 2.021 . S
O407 C400 1.258 1_655 S
O408 Co392 2.117 . S
O408 C400 1.260 . S
O409 Co392 2.020 . S
O409 C406 1.256 . S
O410 Co390 2.062 1_455 S
O410 C406 1.255 . S
O411 C391 1.259 . S
O411 Co392 2.021 . S
H412 C403 0.930 . S
H413 C402 0.931 . S
O414 Co390 2.117 . S
O414 C391 1.258 1_655 S
O415 Co390 2.020 . S
O415 C417 1.256 . S
O416 Co392 2.062 1_655 S
O416 C417 1.255 . S
C417 O415 1.256 . S
C417 O416 1.255 . S
H418 C397 0.931 . S
H419 C405 0.931 . S
Co420 N425 2.057 . S
Co420 O437 2.021 . S
Co420 O440 2.062 . S
Co420 O444 2.117 . S
Co420 O445 2.020 . S
C421 O441 1.259 . S
C421 O444 1.258 . S
Co422 N431 2.057 . S
Co422 O438 2.117 . S
Co422 O439 2.020 . S
Co422 O441 2.021 . S
Co422 O446 2.062 . S
C423 N425 1.316 . S
C423 N426 1.347 . S
C423 H428 0.931 . S
C424 N425 1.375 . S
C424 C427 1.350 . S
C424 H429 0.930 . S
N425 Co420 2.057 . S
N425 C423 1.316 . S
N425 C424 1.375 . S
N426 C423 1.347 . S
N426 C427 1.373 . S
C427 C424 1.350 . S
C427 N426 1.373 . S
C427 H448 0.931 . S
H428 C423 0.931 . S
H429 C424 0.930 . S
C430 O437 1.259 . S
C430 O438 1.258 . S
N431 Co422 2.057 . S
N431 C432 1.316 . S
N431 C433 1.375 . S
C432 N431 1.316 . S
C432 N434 1.347 . S
C432 H443 0.931 . S
C433 N431 1.375 . S
C433 C435 1.350 . S
C433 H442 0.930 . S
N434 C432 1.347 . S
N434 C435 1.373 . S
C435 C433 1.350 . S
C435 N434 1.373 . S
C435 H449 0.931 . S
C436 O439 1.256 . S
C436 O440 1.255 . S
O437 Co420 2.021 . S
O437 C430 1.259 . S
O438 Co422 2.117 . S
O438 C430 1.258 . S
O439 Co422 2.020 . S
O439 C436 1.256 . S
O440 Co420 2.062 . S
O440 C436 1.255 . S
O441 C421 1.259 . S
O441 Co422 2.021 . S
H442 C433 0.930 . S
H443 C432 0.931 . S
O444 Co420 2.117 . S
O444 C421 1.258 . S
O445 Co420 2.020 . S
O445 C447 1.256 . S
O446 Co422 2.062 . S
O446 C447 1.255 . S
C447 O445 1.256 . S
C447 O446 1.255 . S
H448 C427 0.931 . S
H449 C435 0.931 . S
Co450 N455 2.057 . S
Co450 O467 2.021 . S
Co450 O470 2.062 1_655 S
Co450 O474 2.117 . S
Co450 O475 2.020 . S
C451 O471 1.259 . S
C451 O474 1.258 1_455 S
Co452 N461 2.057 . S
Co452 O468 2.117 . S
Co452 O469 2.020 . S
Co452 O471 2.021 . S
Co452 O476 2.062 1_455 S
C453 N455 1.316 . S
C453 N456 1.347 . S
C453 H458 0.931 . S
C454 N455 1.375 . S
C454 C457 1.350 . S
C454 H459 0.930 . S
N455 Co450 2.057 . S
N455 C453 1.316 . S
N455 C454 1.375 . S
N456 C453 1.347 . S
N456 C457 1.373 . S
C457 C454 1.350 . S
C457 N456 1.373 . S
C457 H478 0.931 . S
H458 C453 0.931 . S
H459 C454 0.930 . S
C460 O467 1.259 1_455 S
C460 O468 1.258 . S
N461 Co452 2.057 . S
N461 C462 1.316 . S
N461 C463 1.375 . S
C462 N461 1.316 . S
C462 N464 1.347 . S
C462 H473 0.931 . S
C463 N461 1.375 . S
C463 C465 1.350 . S
C463 H472 0.930 . S
N464 C462 1.347 . S
N464 C465 1.373 . S
C465 C463 1.350 . S
C465 N464 1.373 . S
C465 H479 0.931 . S
C466 O469 1.256 . S
C466 O470 1.255 . S
O467 Co450 2.021 . S
O467 C460 1.259 1_655 S
O468 Co452 2.117 . S
O468 C460 1.258 . S
O469 Co452 2.020 . S
O469 C466 1.256 . S
O470 Co450 2.062 1_455 S
O470 C466 1.255 . S
O471 C451 1.259 . S
O471 Co452 2.021 . S
H472 C463 0.930 . S
H473 C462 0.931 . S
O474 Co450 2.117 . S
O474 C451 1.258 1_655 S
O475 Co450 2.020 . S
O475 C477 1.256 . S
O476 Co452 2.062 1_655 S
O476 C477 1.255 . S
C477 O475 1.256 . S
C477 O476 1.255 . S
H478 C457 0.931 . S
H479 C465 0.931 . S
C480 C481 1.326 1_556 S
C480 C482 1.327 . S
C480 H505 0.950 . S
C481 C480 1.326 1_554 S
C481 C497 1.353 . S
C482 C480 1.327 . S
C482 C501 1.429 . S
C482 H506 0.950 . S
C483 C500 1.574 . S
C483 C502 1.368 . S
C483 H507 0.949 . S
H484 C488 0.949 . S
C485 C486 1.349 . S
C485 C487 1.327 . S
C485 H508 0.950 . S
C486 C485 1.349 . S
C486 C498 1.349 . S
C487 C485 1.327 . S
C487 C503 1.429 . S
C487 H509 0.950 . S
C488 H484 0.949 . S
C488 C496 1.574 . S
C488 C504 1.368 . S
H489 C497 0.950 . S
H490 C495 0.950 . S
H491 C496 0.949 . S
H492 C498 0.950 . S
H493 C499 0.950 . S
H494 C500 0.949 . S
C495 H490 0.950 . S
C495 C497 1.327 1_556 S
C495 C501 1.429 . S
C496 C488 1.574 . S
C496 H491 0.949 . S
C496 C502 1.368 . S
C497 C481 1.353 . S
C497 H489 0.950 . S
C497 C495 1.327 1_554 S
C498 C486 1.349 . S
C498 H492 0.950 . S
C498 C499 1.327 . S
C499 H493 0.950 . S
C499 C498 1.327 . S
C499 C503 1.429 . S
C500 C483 1.574 . S
C500 H494 0.949 . S
C500 C504 1.368 . S
C501 C482 1.429 . S
C501 C495 1.429 . S
C501 C502 1.523 . S
C502 C483 1.368 . S
C502 C496 1.368 . S
C502 C501 1.523 . S
C503 C487 1.429 . S
C503 C499 1.429 . S
C503 C504 1.523 . S
C504 C488 1.368 . S
C504 C500 1.368 . S
C504 C503 1.523 . S
H505 C480 0.950 . S
H506 C482 0.950 . S
H507 C483 0.949 . S
H508 C485 0.950 . S
H509 C487 0.950 . S
C510 C511 1.349 . S
C510 C512 1.327 . S
C510 H535 0.950 . S
C511 C510 1.349 . S
C511 C527 1.349 . S
C512 C510 1.327 . S
C512 C531 1.429 . S
C512 H536 0.950 . S
C513 C530 1.574 . S
C513 C532 1.368 . S
C513 H537 0.949 . S
H514 C518 0.949 . S
C515 C516 1.349 . S
C515 C517 1.327 . S
C515 H538 0.950 . S
C516 C515 1.349 . S
C516 C528 1.349 . S
C517 C515 1.327 . S
C517 C533 1.429 . S
C517 H539 0.950 . S
C518 H514 0.949 . S
C518 C526 1.574 . S
C518 C534 1.368 . S
H519 C527 0.950 . S
H520 C525 0.950 . S
H521 C526 0.949 . S
H522 C528 0.950 . S
H523 C529 0.950 . S
H524 C530 0.949 . S
C525 H520 0.950 . S
C525 C527 1.327 . S
C525 C531 1.429 . S
C526 C518 1.574 . S
C526 H521 0.949 . S
C526 C532 1.368 . S
C527 C511 1.349 . S
C527 H519 0.950 . S
C527 C525 1.327 . S
C528 C516 1.349 . S
C528 H522 0.950 . S
C528 C529 1.327 . S
C529 H523 0.950 . S
C529 C528 1.327 . S
C529 C533 1.429 . S
C530 C513 1.574 . S
C530 H524 0.949 . S
C530 C534 1.368 . S
C531 C512 1.429 . S
C531 C525 1.429 . S
C531 C532 1.523 . S
C532 C513 1.368 . S
C532 C526 1.368 . S
C532 C531 1.523 . S
C533 C517 1.429 . S
C533 C529 1.429 . S
C533 C534 1.523 . S
C534 C518 1.368 . S
C534 C530 1.368 . S
C534 C533 1.523 . S
H535 C510 0.950 . S
H536 C512 0.950 . S
H537 C513 0.949 . S
H538 C515 0.950 . S
H539 C517 0.950 . S
C540 C541 1.349 . S
C540 C542 1.327 . S
C540 H565 0.950 . S
C541 C540 1.349 . S
C541 C557 1.349 . S
C542 C540 1.327 . S
C542 C561 1.429 . S
C542 H566 0.950 . S
C543 C560 1.574 . S
C543 C562 1.368 . S
C543 H567 0.949 . S
H544 C548 0.949 . S
C545 C546 1.349 . S
C545 C547 1.327 . S
C545 H568 0.950 . S
C546 C545 1.349 . S
C546 C558 1.349 . S
C547 C545 1.327 . S
C547 C563 1.429 . S
C547 H569 0.950 . S
C548 H544 0.949 . S
C548 C556 1.574 . S
C548 C564 1.368 . S
H549 C557 0.950 . S
H550 C555 0.950 . S
H551 C556 0.949 . S
H552 C558 0.950 . S
H553 C559 0.950 . S
H554 C560 0.949 . S
C555 H550 0.950 . S
C555 C557 1.327 . S
C555 C561 1.429 . S
C556 C548 1.574 . S
C556 H551 0.949 . S
C556 C562 1.368 . S
C557 C541 1.349 . S
C557 H549 0.950 . S
C557 C555 1.327 . S
C558 C546 1.349 . S
C558 H552 0.950 . S
C558 C559 1.327 . S
C559 H553 0.950 . S
C559 C558 1.327 . S
C559 C563 1.429 . S
C560 C543 1.574 . S
C560 H554 0.949 . S
C560 C564 1.368 . S
C561 C542 1.429 . S
C561 C555 1.429 . S
C561 C562 1.523 . S
C562 C543 1.368 . S
C562 C556 1.368 . S
C562 C561 1.523 . S
C563 C547 1.429 . S
C563 C559 1.429 . S
C563 C564 1.523 . S
C564 C548 1.368 . S
C564 C560 1.368 . S
C564 C563 1.523 . S
H565 C540 0.950 . S
H566 C542 0.950 . S
H567 C543 0.949 . S
H568 C545 0.950 . S
H569 C547 0.950 . S
C570 C571 1.349 . S
C570 C572 1.327 . S
C570 H595 0.950 . S
C571 C570 1.349 . S
C571 C587 1.349 . S
C572 C570 1.327 . S
C572 C591 1.429 . S
C572 H596 0.950 . S
C573 C590 1.574 . S
C573 C592 1.368 . S
C573 H597 0.949 . S
H574 C578 0.949 . S
C575 C576 1.349 . S
C575 C577 1.327 . S
C575 H598 0.950 . S
C576 C575 1.349 . S
C576 C588 1.349 . S
C577 C575 1.327 . S
C577 C593 1.429 . S
C577 H599 0.950 . S
C578 H574 0.949 . S
C578 C586 1.574 . S
C578 C594 1.368 . S
H579 C587 0.950 . S
H580 C585 0.950 . S
H581 C586 0.949 . S
H582 C588 0.950 . S
H583 C589 0.950 . S
H584 C590 0.949 . S
C585 H580 0.950 . S
C585 C587 1.327 . S
C585 C591 1.429 . S
C586 C578 1.574 . S
C586 H581 0.949 . S
C586 C592 1.368 . S
C587 C571 1.349 . S
C587 H579 0.950 . S
C587 C585 1.327 . S
C588 C576 1.349 . S
C588 H582 0.950 . S
C588 C589 1.327 . S
C589 H583 0.950 . S
C589 C588 1.327 . S
C589 C593 1.429 . S
C590 C573 1.574 . S
C590 H584 0.949 . S
C590 C594 1.368 . S
C591 C572 1.429 . S
C591 C585 1.429 . S
C591 C592 1.523 . S
C592 C573 1.368 . S
C592 C586 1.368 . S
C592 C591 1.523 . S
C593 C577 1.429 . S
C593 C589 1.429 . S
C593 C594 1.523 . S
C594 C578 1.368 . S
C594 C590 1.368 . S
C594 C593 1.523 . S
H595 C570 0.950 . S
H596 C572 0.950 . S
H597 C573 0.949 . S
H598 C575 0.950 . S
H599 C577 0.950 . S
C600 C601 1.349 . S
C600 C602 1.327 . S
C600 H625 0.950 . S
C601 C600 1.349 . S
C601 C617 1.349 . S
C602 C600 1.327 . S
C602 C621 1.429 . S
C602 H626 0.950 . S
C603 C620 1.574 . S
C603 C622 1.368 . S
C603 H627 0.949 . S
H604 C608 0.949 . S
C605 C606 1.352 . S
C605 C607 1.327 1_556 S
C605 H628 0.950 . S
C606 C605 1.352 . S
C606 C618 1.327 1_556 S
C607 C605 1.327 1_554 S
C607 C623 1.429 . S
C607 H629 0.950 . S
C608 H604 0.949 . S
C608 C616 1.574 . S
C608 C624 1.368 . S
H609 C617 0.950 . S
H610 C615 0.950 . S
H611 C616 0.949 . S
H612 C618 0.950 . S
H613 C619 0.950 . S
H614 C620 0.949 . S
C615 H610 0.950 . S
C615 C617 1.327 . S
C615 C621 1.429 . S
C616 C608 1.574 . S
C616 H611 0.949 . S
C616 C622 1.368 . S
C617 C601 1.349 . S
C617 H609 0.950 . S
C617 C615 1.327 . S
C618 C606 1.327 1_554 S
C618 H612 0.950 . S
C618 C619 1.327 . S
C619 H613 0.950 . S
C619 C618 1.327 . S
C619 C623 1.429 . S
C620 C603 1.574 . S
C620 H614 0.949 . S
C620 C624 1.368 . S
C621 C602 1.429 . S
C621 C615 1.429 . S
C621 C622 1.523 . S
C622 C603 1.368 . S
C622 C616 1.368 . S
C622 C621 1.523 . S
C623 C607 1.429 . S
C623 C619 1.429 . S
C623 C624 1.523 . S
C624 C608 1.368 . S
C624 C620 1.368 . S
C624 C623 1.523 . S
H625 C600 0.950 . S
H626 C602 0.950 . S
H627 C603 0.949 . S
H628 C605 0.950 . S
H629 C607 0.950 . S
C630 C631 1.349 . S
C630 C632 1.327 . S
C630 H655 0.950 . S
C631 C630 1.349 . S
C631 C647 1.349 . S
C632 C630 1.327 . S
C632 C651 1.429 . S
C632 H656 0.950 . S
C633 C650 1.574 . S
C633 C652 1.368 . S
C633 H657 0.949 . S
H634 C638 0.949 . S
C635 C636 1.349 . S
C635 C637 1.327 . S
C635 H658 0.950 . S
C636 C635 1.349 . S
C636 C648 1.349 . S
C637 C635 1.327 . S
C637 C653 1.429 . S
C637 H659 0.950 . S
C638 H634 0.949 . S
C638 C646 1.574 . S
C638 C654 1.368 . S
H639 C647 0.950 . S
H640 C645 0.950 . S
H641 C646 0.949 . S
H642 C648 0.950 . S
H643 C649 0.950 . S
H644 C650 0.949 . S
C645 H640 0.950 . S
C645 C647 1.327 . S
C645 C651 1.429 . S
C646 C638 1.574 . S
C646 H641 0.949 . S
C646 C652 1.368 . S
C647 C631 1.349 . S
C647 H639 0.950 . S
C647 C645 1.327 . S
C648 C636 1.349 . S
C648 H642 0.950 . S
C648 C649 1.327 . S
C649 H643 0.950 . S
C649 C648 1.327 . S
C649 C653 1.429 . S
C650 C633 1.574 . S
C650 H644 0.949 . S
C650 C654 1.368 . S
C651 C632 1.429 . S
C651 C645 1.429 . S
C651 C652 1.523 . S
C652 C633 1.368 . S
C652 C646 1.368 . S
C652 C651 1.523 . S
C653 C637 1.429 . S
C653 C649 1.429 . S
C653 C654 1.523 . S
C654 C638 1.368 . S
C654 C650 1.368 . S
C654 C653 1.523 . S
H655 C630 0.950 . S
H656 C632 0.950 . S
H657 C633 0.949 . S
H658 C635 0.950 . S
H659 C637 0.950 . S
C660 C661 1.349 . S
C660 C662 1.327 . S
C660 H685 0.950 . S
C661 C660 1.349 . S
C661 C677 1.349 . S
C662 C660 1.327 . S
C662 C681 1.429 . S
C662 H686 0.950 . S
C663 C680 1.574 . S
C663 C682 1.368 . S
C663 H687 0.949 . S
H664 C668 0.949 . S
C665 C666 1.349 . S
C665 C667 1.327 . S
C665 H688 0.950 . S
C666 C665 1.349 . S
C666 C678 1.349 . S
C667 C665 1.327 . S
C667 C683 1.429 . S
C667 H689 0.950 . S
C668 H664 0.949 . S
C668 C676 1.574 . S
C668 C684 1.368 . S
H669 C677 0.950 . S
H670 C675 0.950 . S
H671 C676 0.949 . S
H672 C678 0.950 . S
H673 C679 0.950 . S
H674 C680 0.949 . S
C675 H670 0.950 . S
C675 C677 1.327 . S
C675 C681 1.429 . S
C676 C668 1.574 . S
C676 H671 0.949 . S
C676 C682 1.368 . S
C677 C661 1.349 . S
C677 H669 0.950 . S
C677 C675 1.327 . S
C678 C666 1.349 . S
C678 H672 0.950 . S
C678 C679 1.327 . S
C679 H673 0.950 . S
C679 C678 1.327 . S
C679 C683 1.429 . S
C680 C663 1.574 . S
C680 H674 0.949 . S
C680 C684 1.368 . S
C681 C662 1.429 . S
C681 C675 1.429 . S
C681 C682 1.523 . S
C682 C663 1.368 . S
C682 C676 1.368 . S
C682 C681 1.523 . S
C683 C667 1.429 . S
C683 C679 1.429 . S
C683 C684 1.523 . S
C684 C668 1.368 . S
C684 C680 1.368 . S
C684 C683 1.523 . S
H685 C660 0.950 . S
H686 C662 0.950 . S
H687 C663 0.949 . S
H688 C665 0.950 . S
H689 C667 0.950 . S
C690 C691 1.349 . S
C690 C692 1.327 . S
C690 H715 0.950 . S
C691 C690 1.349 . S
C691 C707 1.349 . S
C692 C690 1.327 . S
C692 C711 1.429 . S
C692 H716 0.950 . S
C693 C710 1.574 . S
C693 C712 1.368 . S
C693 H717 0.949 . S
H694 C698 0.949 . S
C695 C696 1.349 . S
C695 C697 1.327 . S
C695 H718 0.950 . S
C696 C695 1.349 . S
C696 C708 1.349 . S
C697 C695 1.327 . S
C697 C713 1.429 . S
C697 H719 0.950 . S
C698 H694 0.949 . S
C698 C706 1.574 . S
C698 C714 1.368 . S
H699 C707 0.950 . S
H700 C705 0.950 . S
H701 C706 0.949 . S
H702 C708 0.950 . S
H703 C709 0.950 . S
H704 C710 0.949 . S
C705 H700 0.950 . S
C705 C707 1.327 . S
C705 C711 1.429 . S
C706 C698 1.574 . S
C706 H701 0.949 . S
C706 C712 1.368 . S
C707 C691 1.349 . S
C707 H699 0.950 . S
C707 C705 1.327 . S
C708 C696 1.349 . S
C708 H702 0.950 . S
C708 C709 1.327 . S
C709 H703 0.950 . S
C709 C708 1.327 . S
C709 C713 1.429 . S
C710 C693 1.574 . S
C710 H704 0.949 . S
C710 C714 1.368 . S
C711 C692 1.429 . S
C711 C705 1.429 . S
C711 C712 1.523 . S
C712 C693 1.368 . S
C712 C706 1.368 . S
C712 C711 1.523 . S
C713 C697 1.429 . S
C713 C709 1.429 . S
C713 C714 1.523 . S
C714 C698 1.368 . S
C714 C710 1.368 . S
C714 C713 1.523 . S
H715 C690 0.950 . S
H716 C692 0.950 . S
H717 C693 0.949 . S
H718 C695 0.950 . S
H719 C697 0.950 . S
C720 C721 1.349 . S
C720 C722 1.327 . S
C720 H745 0.950 . S
C721 C720 1.349 . S
C721 C737 1.349 . S
C722 C720 1.327 . S
C722 C741 1.429 . S
C722 H746 0.950 . S
C723 C740 1.574 . S
C723 C742 1.368 . S
C723 H747 0.949 . S
H724 C728 0.949 . S
C725 C726 1.349 . S
C725 C727 1.327 . S
C725 H748 0.950 . S
C726 C725 1.349 . S
C726 C738 1.349 . S
C727 C725 1.327 . S
C727 C743 1.429 . S
C727 H749 0.950 . S
C728 H724 0.949 . S
C728 C736 1.574 . S
C728 C744 1.368 . S
H729 C737 0.950 . S
H730 C735 0.950 . S
H731 C736 0.949 . S
H732 C738 0.950 . S
H733 C739 0.950 . S
H734 C740 0.949 . S
C735 H730 0.950 . S
C735 C737 1.327 . S
C735 C741 1.429 . S
C736 C728 1.574 . S
C736 H731 0.949 . S
C736 C742 1.368 . S
C737 C721 1.349 . S
C737 H729 0.950 . S
C737 C735 1.327 . S
C738 C726 1.349 . S
C738 H732 0.950 . S
C738 C739 1.327 . S
C739 H733 0.950 . S
C739 C738 1.327 . S
C739 C743 1.429 . S
C740 C723 1.574 . S
C740 H734 0.949 . S
C740 C744 1.368 . S
C741 C722 1.429 . S
C741 C735 1.429 . S
C741 C742 1.523 . S
C742 C723 1.368 . S
C742 C736 1.368 . S
C742 C741 1.523 . S
C743 C727 1.429 . S
C743 C739 1.429 . S
C743 C744 1.523 . S
C744 C728 1.368 . S
C744 C740 1.368 . S
C744 C743 1.523 . S
H745 C720 0.950 . S
H746 C722 0.950 . S
H747 C723 0.949 . S
H748 C725 0.950 . S
H749 C727 0.950 . S
C750 C751 1.349 . S
C750 C752 1.327 . S
C750 H775 0.950 . S
C751 C750 1.349 . S
C751 C767 1.349 . S
C752 C750 1.327 . S
C752 C771 1.429 . S
C752 H776 0.950 . S
C753 C770 1.574 . S
C753 C772 1.368 . S
C753 H777 0.949 . S
H754 C758 0.949 . S
C755 C756 1.349 . S
C755 C757 1.327 . S
C755 H778 0.950 . S
C756 C755 1.349 . S
C756 C768 1.349 . S
C757 C755 1.327 . S
C757 C773 1.429 . S
C757 H779 0.950 . S
C758 H754 0.949 . S
C758 C766 1.574 . S
C758 C774 1.368 . S
H759 C767 0.950 . S
H760 C765 0.950 . S
H761 C766 0.949 . S
H762 C768 0.950 . S
H763 C769 0.950 . S
H764 C770 0.949 . S
C765 H760 0.950 . S
C765 C767 1.327 . S
C765 C771 1.429 . S
C766 C758 1.574 . S
C766 H761 0.949 . S
C766 C772 1.368 . S
C767 C751 1.349 . S
C767 H759 0.950 . S
C767 C765 1.327 . S
C768 C756 1.349 . S
C768 H762 0.950 . S
C768 C769 1.327 . S
C769 H763 0.950 . S
C769 C768 1.327 . S
C769 C773 1.429 . S
C770 C753 1.574 . S
C770 H764 0.949 . S
C770 C774 1.368 . S
C771 C752 1.429 . S
C771 C765 1.429 . S
C771 C772 1.523 . S
C772 C753 1.368 . S
C772 C766 1.368 . S
C772 C771 1.523 . S
C773 C757 1.429 . S
C773 C769 1.429 . S
C773 C774 1.523 . S
C774 C758 1.368 . S
C774 C770 1.368 . S
C774 C773 1.523 . S
H775 C750 0.950 . S
H776 C752 0.950 . S
H777 C753 0.949 . S
H778 C755 0.950 . S
H779 C757 0.950 . S
C780 C781 1.349 . S
C780 C782 1.327 . S
C780 H805 0.950 . S
C781 C780 1.349 . S
C781 C797 1.349 . S
C782 C780 1.327 . S
C782 C801 1.429 1_554 S
C782 H806 0.950 . S
C783 C800 1.574 . S
C783 C802 1.368 . S
C783 H807 0.949 . S
H784 C788 0.949 . S
C785 C786 1.349 . S
C785 C787 1.327 . S
C785 H808 0.950 . S
C786 C785 1.349 . S
C786 C798 1.349 . S
C787 C785 1.327 . S
C787 C803 1.429 . S
C787 H809 0.950 . S
C788 H784 0.949 . S
C788 C796 1.574 . S
C788 C804 1.368 . S
H789 C797 0.950 . S
H790 C795 0.950 . S
H791 C796 0.949 . S
H792 C798 0.950 . S
H793 C799 0.950 . S
H794 C800 0.949 . S
C795 H790 0.950 . S
C795 C797 1.327 1_556 S
C795 C801 1.429 . S
C796 C788 1.574 . S
C796 H791 0.949 . S
C796 C802 1.368 . S
C797 C781 1.349 . S
C797 H789 0.950 . S
C797 C795 1.327 1_554 S
C798 C786 1.349 . S
C798 H792 0.950 . S
C798 C799 1.327 . S
C799 H793 0.950 . S
C799 C798 1.327 . S
C799 C803 1.429 . S
C800 C783 1.574 . S
C800 H794 0.949 . S
C800 C804 1.368 . S
C801 C782 1.429 1_556 S
C801 C795 1.429 . S
C801 C802 1.523 . S
C802 C783 1.368 . S
C802 C796 1.368 . S
C802 C801 1.523 . S
C803 C787 1.429 . S
C803 C799 1.429 . S
C803 C804 1.523 . S
C804 C788 1.368 . S
C804 C800 1.368 . S
C804 C803 1.523 . S
H805 C780 0.950 . S
H806 C782 0.950 . S
H807 C783 0.949 . S
H808 C785 0.950 . S
H809 C787 0.950 . S
C810 C811 1.349 . S
C810 C812 1.327 . S
C810 H835 0.950 . S
C811 C810 1.349 . S
C811 C827 1.349 . S
C812 C810 1.327 . S
C812 C831 1.429 . S
C812 H836 0.950 . S
C813 C830 1.574 . S
C813 C832 1.368 . S
C813 H837 0.949 . S
H814 C818 0.949 . S
C815 C816 1.349 . S
C815 C817 1.327 1_556 S
C815 H838 0.950 . S
C816 C815 1.349 . S
C816 C828 1.349 1_556 S
C817 C815 1.327 1_554 S
C817 C833 1.429 . S
C817 H839 0.950 . S
C818 H814 0.949 . S
C818 C826 1.574 . S
C818 C834 1.368 . S
H819 C827 0.950 . S
H820 C825 0.950 . S
H821 C826 0.949 . S
H822 C828 0.950 . S
H823 C829 0.950 . S
H824 C830 0.949 . S
C825 H820 0.950 . S
C825 C827 1.327 . S
C825 C831 1.429 . S
C826 C818 1.574 . S
C826 H821 0.949 . S
C826 C832 1.368 . S
C827 C811 1.349 . S
C827 H819 0.950 . S
C827 C825 1.327 . S
C828 C816 1.349 1_554 S
C828 H822 0.950 . S
C828 C829 1.327 . S
C829 H823 0.950 . S
C829 C828 1.327 . S
C829 C833 1.429 . S
C830 C813 1.574 . S
C830 H824 0.949 . S
C830 C834 1.368 . S
C831 C812 1.429 . S
C831 C825 1.429 . S
C831 C832 1.523 . S
C832 C813 1.368 . S
C832 C826 1.368 . S
C832 C831 1.523 . S
C833 C817 1.429 . S
C833 C829 1.429 . S
C833 C834 1.523 . S
C834 C818 1.368 . S
C834 C830 1.368 . S
C834 C833 1.523 . S
H835 C810 0.950 . S
H836 C812 0.950 . S
H837 C813 0.949 . S
H838 C815 0.950 . S
H839 C817 0.950 . S
C840 C841 1.349 . S
C840 C842 1.327 . S
C840 H865 0.950 . S
C841 C840 1.349 . S
C841 C857 1.349 . S
C842 C840 1.327 . S
C842 C861 1.429 . S
C842 H866 0.950 . S
C843 C860 1.574 . S
C843 C862 1.368 . S
C843 H867 0.949 . S
H844 C848 0.949 . S
C845 C846 1.349 . S
C845 C847 1.327 . S
C845 H868 0.950 . S
C846 C845 1.349 . S
C846 C858 1.349 . S
C847 C845 1.327 . S
C847 C863 1.429 . S
C847 H869 0.950 . S
C848 H844 0.949 . S
C848 C856 1.574 . S
C848 C864 1.368 . S
H849 C857 0.950 . S
H850 C855 0.950 . S
H851 C856 0.949 . S
H852 C858 0.950 . S
H853 C859 0.950 . S
H854 C860 0.949 . S
C855 H850 0.950 . S
C855 C857 1.327 . S
C855 C861 1.429 . S
C856 C848 1.574 . S
C856 H851 0.949 . S
C856 C862 1.368 . S
C857 C841 1.349 . S
C857 H849 0.950 . S
C857 C855 1.327 . S
C858 C846 1.349 . S
C858 H852 0.950 . S
C858 C859 1.327 . S
C859 H853 0.950 . S
C859 C858 1.327 . S
C859 C863 1.429 . S
C860 C843 1.574 . S
C860 H854 0.949 . S
C860 C864 1.368 . S
C861 C842 1.429 . S
C861 C855 1.429 . S
C861 C862 1.523 . S
C862 C843 1.368 . S
C862 C856 1.368 . S
C862 C861 1.523 . S
C863 C847 1.429 . S
C863 C859 1.429 . S
C863 C864 1.523 . S
C864 C848 1.368 . S
C864 C860 1.368 . S
C864 C863 1.523 . S
H865 C840 0.950 . S
H866 C842 0.950 . S
H867 C843 0.949 . S
H868 C845 0.950 . S
H869 C847 0.950 . S
C870 C871 1.349 . S
C870 C872 1.327 . S
C870 H895 0.950 . S
C871 C870 1.349 . S
C871 C887 1.349 . S
C872 C870 1.327 . S
C872 C891 1.429 . S
C872 H896 0.950 . S
C873 C890 1.574 . S
C873 C892 1.368 . S
C873 H897 0.949 . S
H874 C878 0.949 . S
C875 C876 1.349 . S
C875 C877 1.327 . S
C875 H898 0.950 . S
C876 C875 1.349 . S
C876 C888 1.349 . S
C877 C875 1.327 . S
C877 C893 1.429 . S
C877 H899 0.950 . S
C878 H874 0.949 . S
C878 C886 1.574 . S
C878 C894 1.368 . S
H879 C887 0.950 . S
H880 C885 0.950 . S
H881 C886 0.949 . S
H882 C888 0.950 . S
H883 C889 0.950 . S
H884 C890 0.949 . S
C885 H880 0.950 . S
C885 C887 1.327 . S
C885 C891 1.429 . S
C886 C878 1.574 . S
C886 H881 0.949 . S
C886 C892 1.368 . S
C887 C871 1.349 . S
C887 H879 0.950 . S
C887 C885 1.327 . S
C888 C876 1.349 . S
C888 H882 0.950 . S
C888 C889 1.327 . S
C889 H883 0.950 . S
C889 C888 1.327 . S
C889 C893 1.429 . S
C890 C873 1.574 . S
C890 H884 0.949 . S
C890 C894 1.368 . S
C891 C872 1.429 . S
C891 C885 1.429 . S
C891 C892 1.523 . S
C892 C873 1.368 . S
C892 C886 1.368 . S
C892 C891 1.523 . S
C893 C877 1.429 . S
C893 C889 1.429 . S
C893 C894 1.523 . S
C894 C878 1.368 . S
C894 C890 1.368 . S
C894 C893 1.523 . S
H895 C870 0.950 . S
H896 C872 0.950 . S
H897 C873 0.949 . S
H898 C875 0.950 . S
H899 C877 0.950 . S
C900 C901 1.349 . S
C900 C902 1.327 . S
C900 H925 0.950 . S
C901 C900 1.349 . S
C901 C917 1.349 . S
C902 C900 1.327 . S
C902 C921 1.429 . S
C902 H926 0.950 . S
C903 C920 1.574 . S
C903 C922 1.368 . S
C903 H927 0.949 . S
H904 C908 0.949 . S
C905 C906 1.349 . S
C905 C907 1.327 . S
C905 H928 0.950 . S
C906 C905 1.349 . S
C906 C918 1.349 . S
C907 C905 1.327 . S
C907 C923 1.429 1_556 S
C907 H929 0.950 . S
C908 H904 0.949 . S
C908 C916 1.574 . S
C908 C924 1.368 . S
H909 C917 0.950 . S
H910 C915 0.950 . S
H911 C916 0.949 . S
H912 C918 0.950 . S
H913 C919 0.950 . S
H914 C920 0.949 . S
C915 H910 0.950 . S
C915 C917 1.327 . S
C915 C921 1.429 . S
C916 C908 1.574 . S
C916 H911 0.949 . S
C916 C922 1.368 . S
C917 C901 1.349 . S
C917 H909 0.950 . S
C917 C915 1.327 . S
C918 C906 1.349 . S
C918 H912 0.950 . S
C918 C919 1.327 1_556 S
C919 H913 0.950 . S
C919 C918 1.327 1_554 S
C919 C923 1.429 . S
C920 C903 1.574 . S
C920 H914 0.949 . S
C920 C924 1.368 . S
C921 C902 1.429 . S
C921 C915 1.429 . S
C921 C922 1.523 . S
C922 C903 1.368 . S
C922 C916 1.368 . S
C922 C921 1.523 . S
C923 C907 1.429 1_554 S
C923 C919 1.429 . S
C923 C924 1.523 . S
C924 C908 1.368 . S
C924 C920 1.368 . S
C924 C923 1.523 . S
H925 C900 0.950 . S
H926 C902 0.950 . S
H927 C903 0.949 . S
H928 C905 0.950 . S
H929 C907 0.950 . S
C930 C931 1.349 . S
C930 C932 1.327 . S
C930 H955 0.950 . S
C931 C930 1.349 . S
C931 C947 1.349 . S
C932 C930 1.327 . S
C932 C951 1.429 . S
C932 H956 0.950 . S
C933 C950 1.574 . S
C933 C952 1.368 . S
C933 H957 0.949 . S
H934 C938 0.949 . S
C935 C936 1.349 1_556 S
C935 C937 1.327 . S
C935 H958 0.950 . S
C936 C935 1.349 1_554 S
C936 C948 1.349 . S
C937 C935 1.327 . S
C937 C953 1.429 . S
C937 H959 0.950 . S
C938 H934 0.949 . S
C938 C946 1.574 . S
C938 C954 1.368 . S
H939 C947 0.950 . S
H940 C945 0.950 . S
H941 C946 0.949 . S
H942 C948 0.950 . S
H943 C949 0.950 . S
H944 C950 0.949 . S
C945 H940 0.950 . S
C945 C947 1.327 . S
C945 C951 1.429 . S
C946 C938 1.574 . S
C946 H941 0.949 . S
C946 C952 1.368 . S
C947 C931 1.349 . S
C947 H939 0.950 . S
C947 C945 1.327 . S
C948 C936 1.349 . S
C948 H942 0.950 . S
C948 C949 1.327 1_554 S
C949 H943 0.950 . S
C949 C948 1.327 1_556 S
C949 C953 1.429 . S
C950 C933 1.574 . S
C950 H944 0.949 . S
C950 C954 1.368 . S
C951 C932 1.429 . S
C951 C945 1.429 . S
C951 C952 1.523 . S
C952 C933 1.368 . S
C952 C946 1.368 . S
C952 C951 1.523 . S
C953 C937 1.429 . S
C953 C949 1.429 . S
C953 C954 1.523 . S
C954 C938 1.368 . S
C954 C950 1.368 . S
C954 C953 1.523 . S
H955 C930 0.950 . S
H956 C932 0.950 . S
H957 C933 0.949 . S
H958 C935 0.950 . S
H959 C937 0.950 . S
C960 C961 1.349 1_655 S
C960 C962 1.327 . S
C960 H985 0.950 . S
C961 C960 1.349 1_455 S
C961 C977 1.349 . S
C962 C960 1.327 . S
C962 C981 1.429 1_655 S
C962 H986 0.950 . S
C963 C980 1.574 . S
C963 C982 1.368 . S
C963 H987 0.949 . S
H964 C968 0.949 . S
C965 C966 1.349 . S
C965 C967 1.327 . S
C965 H988 0.950 . S
C966 C965 1.349 . S
C966 C978 1.349 1_455 S
C967 C965 1.327 . S
C967 C983 1.429 . S
C967 H989 0.950 . S
C968 H964 0.949 . S
C968 C976 1.574 . S
C968 C984 1.368 1_655 S
H969 C977 0.950 . S
H970 C975 0.950 . S
H971 C976 0.949 . S
H972 C978 0.950 . S
H973 C979 0.950 . S
H974 C980 0.949 . S
C975 H970 0.950 . S
C975 C977 1.327 . S
C975 C981 1.429 . S
C976 C968 1.574 . S
C976 H971 0.949 . S
C976 C982 1.368 1_655 S
C977 C961 1.349 . S
C977 H969 0.950 . S
C977 C975 1.327 . S
C978 C966 1.349 1_655 S
C978 H972 0.950 . S
C978 C979 1.327 . S
C979 H973 0.950 . S
C979 C978 1.327 . S
C979 C983 1.429 1_655 S
C980 C963 1.574 . S
C980 H974 0.949 . S
C980 C984 1.368 . S
C981 C962 1.429 1_455 S
C981 C975 1.429 . S
C981 C982 1.523 . S
C982 C963 1.368 . S
C982 C976 1.368 1_455 S
C982 C981 1.523 . S
C983 C967 1.429 . S
C983 C979 1.429 1_455 S
C983 C984 1.523 . S
C984 C968 1.368 1_455 S
C984 C980 1.368 . S
C984 C983 1.523 . S
H985 C960 0.950 . S
H986 C962 0.950 . S
H987 C963 0.949 . S
H988 C965 0.950 . S
H989 C967 0.950 . S
C990 C991 1.349 . S
C990 C992 1.327 . S
C990 H1015 0.950 . S
C991 C990 1.349 . S
C991 C1007 1.349 . S
C992 C990 1.327 . S
C992 C1011 1.429 . S
C992 H1016 0.950 . S
C993 C1010 1.574 1_655 S
C993 C1012 1.368 . S
C993 H1017 0.949 . S
H994 C998 0.949 . S
C995 C996 1.349 . S
C995 C997 1.327 . S
C995 H1018 0.950 . S
C996 C995 1.349 . S
C996 C1008 1.349 . S
C997 C995 1.327 . S
C997 C1013 1.429 . S
C997 H1019 0.950 . S
C998 H994 0.949 . S
C998 C1006 1.574 1_455 S
C998 C1014 1.368 . S
H999 C1007 0.950 . S
H1000 C1005 0.950 . S
H1001 C1006 0.949 . S
H1002 C1008 0.950 . S
H1003 C1009 0.950 . S
H1004 C1010 0.949 . S
C1005 H1000 0.950 . S
C1005 C1007 1.327 . S
C1005 C1011 1.429 . S
C1006 C998 1.574 1_655 S
C1006 H1001 0.949 . S
C1006 C1012 1.368 . S
C1007 C991 1.349 . S
C1007 H999 0.950 . S
C1007 C1005 1.327 . S
C1008 C996 1.349 . S
C1008 H1002 0.950 . S
C1008 C1009 1.327 . S
C1009 H1003 0.950 . S
C1009 C1008 1.327 . S
C1009 C1013 1.429 . S
C1010 C993 1.574 1_455 S
C1010 H1004 0.949 . S
C1010 C1014 1.368 . S
C1011 C992 1.429 . S
C1011 C1005 1.429 . S
C1011 C1012 1.523 . S
C1012 C993 1.368 . S
C1012 C1006 1.368 . S
C1012 C1011 1.523 . S
C1013 C997 1.429 . S
C1013 C1009 1.429 . S
C1013 C1014 1.523 . S
C1014 C998 1.368 . S
C1014 C1010 1.368 . S
C1014 C1013 1.523 . S
H1015 C990 0.950 . S
H1016 C992 0.950 . S
H1017 C993 0.949 . S
H1018 C995 0.950 . S
H1019 C997 0.950 . S
C1020 C1021 1.349 . S
C1020 C1022 1.327 . S
C1020 H1045 0.950 . S
C1021 C1020 1.349 . S
C1021 C1037 1.349 . S
C1022 C1020 1.327 . S
C1022 C1041 1.429 . S
C1022 H1046 0.950 . S
C1023 C1040 1.574 . S
C1023 C1042 1.368 . S
C1023 H1047 0.949 . S
H1024 C1028 0.949 . S
C1025 C1026 1.349 . S
C1025 C1027 1.327 . S
C1025 H1048 0.950 . S
C1026 C1025 1.349 . S
C1026 C1038 1.349 . S
C1027 C1025 1.327 . S
C1027 C1043 1.429 . S
C1027 H1049 0.950 . S
C1028 H1024 0.949 . S
C1028 C1036 1.574 . S
C1028 C1044 1.368 . S
H1029 C1037 0.950 . S
H1030 C1035 0.950 . S
H1031 C1036 0.949 . S
H1032 C1038 0.950 . S
H1033 C1039 0.950 . S
H1034 C1040 0.949 . S
C1035 H1030 0.950 . S
C1035 C1037 1.327 . S
C1035 C1041 1.429 . S
C1036 C1028 1.574 . S
C1036 H1031 0.949 . S
C1036 C1042 1.368 . S
C1037 C1021 1.349 . S
C1037 H1029 0.950 . S
C1037 C1035 1.327 . S
C1038 C1026 1.349 . S
C1038 H1032 0.950 . S
C1038 C1039 1.327 . S
C1039 H1033 0.950 . S
C1039 C1038 1.327 . S
C1039 C1043 1.429 . S
C1040 C1023 1.574 . S
C1040 H1034 0.949 . S
C1040 C1044 1.368 . S
C1041 C1022 1.429 . S
C1041 C1035 1.429 . S
C1041 C1042 1.523 . S
C1042 C1023 1.368 . S
C1042 C1036 1.368 . S
C1042 C1041 1.523 . S
C1043 C1027 1.429 . S
C1043 C1039 1.429 . S
C1043 C1044 1.523 . S
C1044 C1028 1.368 . S
C1044 C1040 1.368 . S
C1044 C1043 1.523 . S
H1045 C1020 0.950 . S
H1046 C1022 0.950 . S
H1047 C1023 0.949 . S
H1048 C1025 0.950 . S
H1049 C1027 0.950 . S
C1050 C1051 1.349 . S
C1050 C1052 1.327 . S
C1050 H1075 0.950 . S
C1051 C1050 1.349 . S
C1051 C1067 1.349 . S
C1052 C1050 1.327 . S
C1052 C1071 1.429 . S
C1052 H1076 0.950 . S
C1053 C1070 1.574 . S
C1053 C1072 1.368 . S
C1053 H1077 0.949 . S
H1054 C1058 0.949 . S
C1055 C1056 1.349 . S
C1055 C1057 1.327 . S
C1055 H1078 0.950 . S
C1056 C1055 1.349 . S
C1056 C1068 1.349 . S
C1057 C1055 1.327 . S
C1057 C1073 1.429 . S
C1057 H1079 0.950 . S
C1058 H1054 0.949 . S
C1058 C1066 1.574 . S
C1058 C1074 1.368 . S
H1059 C1067 0.950 . S
H1060 C1065 0.950 . S
H1061 C1066 0.949 . S
H1062 C1068 0.950 . S
H1063 C1069 0.950 . S
H1064 C1070 0.949 . S
C1065 H1060 0.950 . S
C1065 C1067 1.327 . S
C1065 C1071 1.429 . S
C1066 C1058 1.574 . S
C1066 H1061 0.949 . S
C1066 C1072 1.368 . S
C1067 C1051 1.349 . S
C1067 H1059 0.950 . S
C1067 C1065 1.327 . S
C1068 C1056 1.349 . S
C1068 H1062 0.950 . S
C1068 C1069 1.327 . S
C1069 H1063 0.950 . S
C1069 C1068 1.327 . S
C1069 C1073 1.429 . S
C1070 C1053 1.574 . S
C1070 H1064 0.949 . S
C1070 C1074 1.368 . S
C1071 C1052 1.429 . S
C1071 C1065 1.429 . S
C1071 C1072 1.523 . S
C1072 C1053 1.368 . S
C1072 C1066 1.368 . S
C1072 C1071 1.523 . S
C1073 C1057 1.429 . S
C1073 C1069 1.429 . S
C1073 C1074 1.523 . S
C1074 C1058 1.368 . S
C1074 C1070 1.368 . S
C1074 C1073 1.523 . S
H1075 C1050 0.950 . S
H1076 C1052 0.950 . S
H1077 C1053 0.949 . S
H1078 C1055 0.950 . S
H1079 C1057 0.950 . S
C1080 C1081 1.349 1_655 S
C1080 C1082 1.327 . S
C1080 H1105 0.950 . S
C1081 C1080 1.349 1_455 S
C1081 C1097 1.349 . S
C1082 C1080 1.327 . S
C1082 C1101 1.429 1_655 S
C1082 H1106 0.950 . S
C1083 C1100 1.574 . S
C1083 C1102 1.368 . S
C1083 H1107 0.949 . S
H1084 C1088 0.949 . S
C1085 C1086 1.349 . S
C1085 C1087 1.327 . S
C1085 H1108 0.950 . S
C1086 C1085 1.349 . S
C1086 C1098 1.349 1_455 S
C1087 C1085 1.327 . S
C1087 C1103 1.429 . S
C1087 H1109 0.950 . S
C1088 H1084 0.949 . S
C1088 C1096 1.574 . S
C1088 C1104 1.368 1_655 S
H1089 C1097 0.950 . S
H1090 C1095 0.950 . S
H1091 C1096 0.949 . S
H1092 C1098 0.950 . S
H1093 C1099 0.950 . S
H1094 C1100 0.949 . S
C1095 H1090 0.950 . S
C1095 C1097 1.327 . S
C1095 C1101 1.429 . S
C1096 C1088 1.574 . S
C1096 H1091 0.949 . S
C1096 C1102 1.368 1_655 S
C1097 C1081 1.349 . S
C1097 H1089 0.950 . S
C1097 C1095 1.327 . S
C1098 C1086 1.349 1_655 S
C1098 H1092 0.950 . S
C1098 C1099 1.327 . S
C1099 H1093 0.950 . S
C1099 C1098 1.327 . S
C1099 C1103 1.429 1_655 S
C1100 C1083 1.574 . S
C1100 H1094 0.949 . S
C1100 C1104 1.368 . S
C1101 C1082 1.429 1_455 S
C1101 C1095 1.429 . S
C1101 C1102 1.523 . S
C1102 C1083 1.368 . S
C1102 C1096 1.368 1_455 S
C1102 C1101 1.523 . S
C1103 C1087 1.429 . S
C1103 C1099 1.429 1_455 S
C1103 C1104 1.523 . S
C1104 C1088 1.368 1_455 S
C1104 C1100 1.368 . S
C1104 C1103 1.523 . S
H1105 C1080 0.950 . S
H1106 C1082 0.950 . S
H1107 C1083 0.949 . S
H1108 C1085 0.950 . S
H1109 C1087 0.950 . S
C1110 C1111 1.349 . S
C1110 C1112 1.327 . S
C1110 H1135 0.950 . S
C1111 C1110 1.349 . S
C1111 C1127 1.349 . S
C1112 C1110 1.327 . S
C1112 C1131 1.429 . S
C1112 H1136 0.950 . S
C1113 C1130 1.574 . S
C1113 C1132 1.368 . S
C1113 H1137 0.949 . S
H1114 C1118 0.949 . S
C1115 C1116 1.349 . S
C1115 C1117 1.327 . S
C1115 H1138 0.950 . S
C1116 C1115 1.349 . S
C1116 C1128 1.349 . S
C1117 C1115 1.327 . S
C1117 C1133 1.429 . S
C1117 H1139 0.950 . S
C1118 H1114 0.949 . S
C1118 C1126 1.574 . S
C1118 C1134 1.368 . S
H1119 C1127 0.950 . S
H1120 C1125 0.950 . S
H1121 C1126 0.949 . S
H1122 C1128 0.950 . S
H1123 C1129 0.950 . S
H1124 C1130 0.949 . S
C1125 H1120 0.950 . S
C1125 C1127 1.327 . S
C1125 C1131 1.429 . S
C1126 C1118 1.574 . S
C1126 H1121 0.949 . S
C1126 C1132 1.368 . S
C1127 C1111 1.349 . S
C1127 H1119 0.950 . S
C1127 C1125 1.327 . S
C1128 C1116 1.349 . S
C1128 H1122 0.950 . S
C1128 C1129 1.327 . S
C1129 H1123 0.950 . S
C1129 C1128 1.327 . S
C1129 C1133 1.429 . S
C1130 C1113 1.574 . S
C1130 H1124 0.949 . S
C1130 C1134 1.368 . S
C1131 C1112 1.429 . S
C1131 C1125 1.429 . S
C1131 C1132 1.523 . S
C1132 C1113 1.368 . S
C1132 C1126 1.368 . S
C1132 C1131 1.523 . S
C1133 C1117 1.429 . S
C1133 C1129 1.429 . S
C1133 C1134 1.523 . S
C1134 C1118 1.368 . S
C1134 C1130 1.368 . S
C1134 C1133 1.523 . S
H1135 C1110 0.950 . S
H1136 C1112 0.950 . S
H1137 C1113 0.949 . S
H1138 C1115 0.950 . S
H1139 C1117 0.950 . S
C1140 C1141 1.349 . S
C1140 C1142 1.327 . S
C1140 H1165 0.950 . S
C1141 C1140 1.349 . S
C1141 C1157 1.349 . S
C1142 C1140 1.327 . S
C1142 C1161 1.429 . S
C1142 H1166 0.950 . S
C1143 C1160 1.574 . S
C1143 C1162 1.368 . S
C1143 H1167 0.949 . S
H1144 C1148 0.949 . S
C1145 C1146 1.349 . S
C1145 C1147 1.327 . S
C1145 H1168 0.950 . S
C1146 C1145 1.349 . S
C1146 C1158 1.349 . S
C1147 C1145 1.327 . S
C1147 C1163 1.429 . S
C1147 H1169 0.950 . S
C1148 H1144 0.949 . S
C1148 C1156 1.574 . S
C1148 C1164 1.368 . S
H1149 C1157 0.950 . S
H1150 C1155 0.950 . S
H1151 C1156 0.949 . S
H1152 C1158 0.950 . S
H1153 C1159 0.950 . S
H1154 C1160 0.949 . S
C1155 H1150 0.950 . S
C1155 C1157 1.327 . S
C1155 C1161 1.429 . S
C1156 C1148 1.574 . S
C1156 H1151 0.949 . S
C1156 C1162 1.368 . S
C1157 C1141 1.349 . S
C1157 H1149 0.950 . S
C1157 C1155 1.327 . S
C1158 C1146 1.349 . S
C1158 H1152 0.950 . S
C1158 C1159 1.327 . S
C1159 H1153 0.950 . S
C1159 C1158 1.327 . S
C1159 C1163 1.429 . S
C1160 C1143 1.574 . S
C1160 H1154 0.949 . S
C1160 C1164 1.368 . S
C1161 C1142 1.429 . S
C1161 C1155 1.429 . S
C1161 C1162 1.523 . S
C1162 C1143 1.368 . S
C1162 C1156 1.368 . S
C1162 C1161 1.523 . S
C1163 C1147 1.429 . S
C1163 C1159 1.429 . S
C1163 C1164 1.523 . S
C1164 C1148 1.368 . S
C1164 C1160 1.368 . S
C1164 C1163 1.523 . S
H1165 C1140 0.950 . S
H1166 C1142 0.950 . S
H1167 C1143 0.949 . S
H1168 C1145 0.950 . S
H1169 C1147 0.950 . S
C1170 C1171 1.349 . S
C1170 C1172 1.327 . S
C1170 H1195 0.950 . S
C1171 C1170 1.349 . S
C1171 C1187 1.349 . S
C1172 C1170 1.327 . S
C1172 C1191 1.429 . S
C1172 H1196 0.950 . S
C1173 C1190 1.574 1_455 S
C1173 C1192 1.368 . S
C1173 H1197 0.949 . S
H1174 C1178 0.949 . S
C1175 C1176 1.349 . S
C1175 C1177 1.327 . S
C1175 H1198 0.950 . S
C1176 C1175 1.349 . S
C1176 C1188 1.349 . S
C1177 C1175 1.327 . S
C1177 C1193 1.429 . S
C1177 H1199 0.950 . S
C1178 H1174 0.949 . S
C1178 C1186 1.574 1_655 S
C1178 C1194 1.368 . S
H1179 C1187 0.950 . S
H1180 C1185 0.950 . S
H1181 C1186 0.949 . S
H1182 C1188 0.950 . S
H1183 C1189 0.950 . S
H1184 C1190 0.949 . S
C1185 H1180 0.950 . S
C1185 C1187 1.327 . S
C1185 C1191 1.429 . S
C1186 C1178 1.574 1_455 S
C1186 H1181 0.949 . S
C1186 C1192 1.368 . S
C1187 C1171 1.349 . S
C1187 H1179 0.950 . S
C1187 C1185 1.327 . S
C1188 C1176 1.349 . S
C1188 H1182 0.950 . S
C1188 C1189 1.327 . S
C1189 H1183 0.950 . S
C1189 C1188 1.327 . S
C1189 C1193 1.429 . S
C1190 C1173 1.574 1_655 S
C1190 H1184 0.949 . S
C1190 C1194 1.368 . S
C1191 C1172 1.429 . S
C1191 C1185 1.429 . S
C1191 C1192 1.523 . S
C1192 C1173 1.368 . S
C1192 C1186 1.368 . S
C1192 C1191 1.523 . S
C1193 C1177 1.429 . S
C1193 C1189 1.429 . S
C1193 C1194 1.523 . S
C1194 C1178 1.368 . S
C1194 C1190 1.368 . S
C1194 C1193 1.523 . S
H1195 C1170 0.950 . S
H1196 C1172 0.950 . S
H1197 C1173 0.949 . S
H1198 C1175 0.950 . S
H1199 C1177 0.950 . S
C1200 C1201 1.349 1_655 S
C1200 C1202 1.327 . S
C1200 H1225 0.950 . S
C1201 C1200 1.349 1_455 S
C1201 C1217 1.349 . S
C1202 C1200 1.327 . S
C1202 C1221 1.429 1_655 S
C1202 H1226 0.950 . S
C1203 C1220 1.574 1_545 S
C1203 C1222 1.368 1_556 S
C1203 H1227 0.949 . S
H1204 C1208 0.949 . S
C1205 C1206 1.349 . S
C1205 C1207 1.327 . S
C1205 H1228 0.950 . S
C1206 C1205 1.349 . S
C1206 C1218 1.349 1_455 S
C1207 C1205 1.327 . S
C1207 C1223 1.429 . S
C1207 H1229 0.950 . S
C1208 H1204 0.949 . S
C1208 C1216 1.574 1_565 S
C1208 C1224 1.368 1_654 S
H1209 C1217 0.950 . S
H1210 C1215 0.950 . S
H1211 C1216 0.949 . S
H1212 C1218 0.950 . S
H1213 C1219 0.950 . S
H1214 C1220 0.949 . S
C1215 H1210 0.950 . S
C1215 C1217 1.327 . S
C1215 C1221 1.429 . S
C1216 C1208 1.574 1_545 S
C1216 H1211 0.949 . S
C1216 C1222 1.368 1_655 S
C1217 C1201 1.349 . S
C1217 H1209 0.950 . S
C1217 C1215 1.327 . S
C1218 C1206 1.349 1_655 S
C1218 H1212 0.950 . S
C1218 C1219 1.327 . S
C1219 H1213 0.950 . S
C1219 C1218 1.327 . S
C1219 C1223 1.429 1_655 S
C1220 C1203 1.574 1_565 S
C1220 H1214 0.949 . S
C1220 C1224 1.368 . S
C1221 C1202 1.429 1_455 S
C1221 C1215 1.429 . S
C1221 C1222 1.523 . S
C1222 C1203 1.368 1_554 S
C1222 C1216 1.368 1_455 S
C1222 C1221 1.523 . S
C1223 C1207 1.429 . S
C1223 C1219 1.429 1_455 S
C1223 C1224 1.523 . S
C1224 C1208 1.368 1_456 S
C1224 C1220 1.368 . S
C1224 C1223 1.523 . S
H1225 C1200 0.950 . S
H1226 C1202 0.950 . S
H1227 C1203 0.949 . S
H1228 C1205 0.950 . S
H1229 C1207 0.950 . S
C1230 C1231 1.349 . S
C1230 C1232 1.327 . S
C1230 H1255 0.950 . S
C1231 C1230 1.349 . S
C1231 C1247 1.349 . S
C1232 C1230 1.327 . S
C1232 C1251 1.429 . S
C1232 H1256 0.950 . S
C1233 C1250 1.574 . S
C1233 C1252 1.368 . S
C1233 H1257 0.949 . S
H1234 C1238 0.949 . S
C1235 C1236 1.349 . S
C1235 C1237 1.327 . S
C1235 H1258 0.950 . S
C1236 C1235 1.349 . S
C1236 C1248 1.349 . S
C1237 C1235 1.327 . S
C1237 C1253 1.429 . S
C1237 H1259 0.950 . S
C1238 H1234 0.949 . S
C1238 C1246 1.574 . S
C1238 C1254 1.368 . S
H1239 C1247 0.950 . S
H1240 C1245 0.950 . S
H1241 C1246 0.949 . S
H1242 C1248 0.950 . S
H1243 C1249 0.950 . S
H1244 C1250 0.949 . S
C1245 H1240 0.950 . S
C1245 C1247 1.327 . S
C1245 C1251 1.429 . S
C1246 C1238 1.574 . S
C1246 H1241 0.949 . S
C1246 C1252 1.368 . S
C1247 C1231 1.349 . S
C1247 H1239 0.950 . S
C1247 C1245 1.327 . S
C1248 C1236 1.349 . S
C1248 H1242 0.950 . S
C1248 C1249 1.327 . S
C1249 H1243 0.950 . S
C1249 C1248 1.327 . S
C1249 C1253 1.429 . S
C1250 C1233 1.574 . S
C1250 H1244 0.949 . S
C1250 C1254 1.368 . S
C1251 C1232 1.429 . S
C1251 C1245 1.429 . S
C1251 C1252 1.523 . S
C1252 C1233 1.368 . S
C1252 C1246 1.368 . S
C1252 C1251 1.523 . S
C1253 C1237 1.429 . S
C1253 C1249 1.429 . S
C1253 C1254 1.523 . S
C1254 C1238 1.368 . S
C1254 C1250 1.368 . S
C1254 C1253 1.523 . S
H1255 C1230 0.950 . S
H1256 C1232 0.950 . S
H1257 C1233 0.949 . S
H1258 C1235 0.950 . S
H1259 C1237 0.950 . S
C1260 C1261 1.349 . S
C1260 C1262 1.327 . S
C1260 H1285 0.950 . S
C1261 C1260 1.349 . S
C1261 C1277 1.349 . S
C1262 C1260 1.327 . S
C1262 C1281 1.429 . S
C1262 H1286 0.950 . S
C1263 C1280 1.574 . S
C1263 C1282 1.368 1_565 S
C1263 H1287 0.949 . S
H1264 C1268 0.949 . S
C1265 C1266 1.349 . S
C1265 C1267 1.327 . S
C1265 H1288 0.950 . S
C1266 C1265 1.349 . S
C1266 C1278 1.349 . S
C1267 C1265 1.327 . S
C1267 C1283 1.429 . S
C1267 H1289 0.950 . S
C1268 H1264 0.949 . S
C1268 C1276 1.574 . S
C1268 C1284 1.368 1_545 S
H1269 C1277 0.950 . S
H1270 C1275 0.950 . S
H1271 C1276 0.949 . S
H1272 C1278 0.950 . S
H1273 C1279 0.950 . S
H1274 C1280 0.949 . S
C1275 H1270 0.950 . S
C1275 C1277 1.327 . S
C1275 C1281 1.429 . S
C1276 C1268 1.574 . S
C1276 H1271 0.949 . S
C1276 C1282 1.368 . S
C1277 C1261 1.349 . S
C1277 H1269 0.950 . S
C1277 C1275 1.327 . S
C1278 C1266 1.349 . S
C1278 H1272 0.950 . S
C1278 C1279 1.327 . S
C1279 H1273 0.950 . S
C1279 C1278 1.327 . S
C1279 C1283 1.429 . S
C1280 C1263 1.574 . S
C1280 H1274 0.949 . S
C1280 C1284 1.368 . S
C1281 C1262 1.429 . S
C1281 C1275 1.429 . S
C1281 C1282 1.523 . S
C1282 C1263 1.368 1_545 S
C1282 C1276 1.368 . S
C1282 C1281 1.523 . S
C1283 C1267 1.429 . S
C1283 C1279 1.429 . S
C1283 C1284 1.523 . S
C1284 C1268 1.368 1_565 S
C1284 C1280 1.368 . S
C1284 C1283 1.523 . S
H1285 C1260 0.950 . S
H1286 C1262 0.950 . S
H1287 C1263 0.949 . S
H1288 C1265 0.950 . S
H1289 C1267 0.950 . S
C1290 C1291 1.349 . S
C1290 C1292 1.327 . S
C1290 H1315 0.950 . S
C1291 C1290 1.349 . S
C1291 C1307 1.349 . S
C1292 C1290 1.327 . S
C1292 C1311 1.429 . S
C1292 H1316 0.950 . S
C1293 C1310 1.574 . S
C1293 C1312 1.368 . S
C1293 H1317 0.949 . S
H1294 C1298 0.949 . S
C1295 C1296 1.349 . S
C1295 C1297 1.327 . S
C1295 H1318 0.950 . S
C1296 C1295 1.349 . S
C1296 C1308 1.349 . S
C1297 C1295 1.327 . S
C1297 C1313 1.429 . S
C1297 H1319 0.950 . S
C1298 H1294 0.949 . S
C1298 C1306 1.574 . S
C1298 C1314 1.368 . S
H1299 C1307 0.950 . S
H1300 C1305 0.950 . S
H1301 C1306 0.949 . S
H1302 C1308 0.950 . S
H1303 C1309 0.950 . S
H1304 C1310 0.949 . S
C1305 H1300 0.950 . S
C1305 C1307 1.327 . S
C1305 C1311 1.429 . S
C1306 C1298 1.574 . S
C1306 H1301 0.949 . S
C1306 C1312 1.368 . S
C1307 C1291 1.349 . S
C1307 H1299 0.950 . S
C1307 C1305 1.327 . S
C1308 C1296 1.349 . S
C1308 H1302 0.950 . S
C1308 C1309 1.327 . S
C1309 H1303 0.950 . S
C1309 C1308 1.327 . S
C1309 C1313 1.429 . S
C1310 C1293 1.574 . S
C1310 H1304 0.949 . S
C1310 C1314 1.368 . S
C1311 C1292 1.429 . S
C1311 C1305 1.429 . S
C1311 C1312 1.523 . S
C1312 C1293 1.368 . S
C1312 C1306 1.368 . S
C1312 C1311 1.523 . S
C1313 C1297 1.429 . S
C1313 C1309 1.429 . S
C1313 C1314 1.523 . S
C1314 C1298 1.368 . S
C1314 C1310 1.368 . S
C1314 C1313 1.523 . S
H1315 C1290 0.950 . S
H1316 C1292 0.950 . S
H1317 C1293 0.949 . S
H1318 C1295 0.950 . S
H1319 C1297 0.950 . S
C1320 C1321 1.349 . S
C1320 C1322 1.327 . S
C1320 H1345 0.950 . S
C1321 C1320 1.349 . S
C1321 C1337 1.349 . S
C1322 C1320 1.327 . S
C1322 C1341 1.429 . S
C1322 H1346 0.950 . S
C1323 C1340 1.574 . S
C1323 C1342 1.368 . S
C1323 H1347 0.949 . S
H1324 C1328 0.949 . S
C1325 C1326 1.349 . S
C1325 C1327 1.327 . S
C1325 H1348 0.950 . S
C1326 C1325 1.349 . S
C1326 C1338 1.349 . S
C1327 C1325 1.327 . S
C1327 C1343 1.429 . S
C1327 H1349 0.950 . S
C1328 H1324 0.949 . S
C1328 C1336 1.574 . S
C1328 C1344 1.368 . S
H1329 C1337 0.950 . S
H1330 C1335 0.950 . S
H1331 C1336 0.949 . S
H1332 C1338 0.950 . S
H1333 C1339 0.950 . S
H1334 C1340 0.949 . S
C1335 H1330 0.950 . S
C1335 C1337 1.327 . S
C1335 C1341 1.429 . S
C1336 C1328 1.574 . S
C1336 H1331 0.949 . S
C1336 C1342 1.368 . S
C1337 C1321 1.349 . S
C1337 H1329 0.950 . S
C1337 C1335 1.327 . S
C1338 C1326 1.349 . S
C1338 H1332 0.950 . S
C1338 C1339 1.327 . S
C1339 H1333 0.950 . S
C1339 C1338 1.327 . S
C1339 C1343 1.429 . S
C1340 C1323 1.574 . S
C1340 H1334 0.949 . S
C1340 C1344 1.368 . S
C1341 C1322 1.429 . S
C1341 C1335 1.429 . S
C1341 C1342 1.523 . S
C1342 C1323 1.368 . S
C1342 C1336 1.368 . S
C1342 C1341 1.523 . S
C1343 C1327 1.429 . S
C1343 C1339 1.429 . S
C1343 C1344 1.523 . S
C1344 C1328 1.368 . S
C1344 C1340 1.368 . S
C1344 C1343 1.523 . S
H1345 C1320 0.950 . S
H1346 C1322 0.950 . S
H1347 C1323 0.949 . S
H1348 C1325 0.950 . S
H1349 C1327 0.950 . S
C1350 C1351 1.349 . S
C1350 C1352 1.327 . S
C1350 H1375 0.950 . S
C1351 C1350 1.349 . S
C1351 C1367 1.349 . S
C1352 C1350 1.327 . S
C1352 C1371 1.429 . S
C1352 H1376 0.950 . S
C1353 C1370 1.574 . S
C1353 C1372 1.368 . S
C1353 H1377 0.949 . S
H1354 C1358 0.949 . S
C1355 C1356 1.349 . S
C1355 C1357 1.327 . S
C1355 H1378 0.950 . S
C1356 C1355 1.349 . S
C1356 C1368 1.349 . S
C1357 C1355 1.327 . S
C1357 C1373 1.429 . S
C1357 H1379 0.950 . S
C1358 H1354 0.949 . S
C1358 C1366 1.574 . S
C1358 C1374 1.368 . S
H1359 C1367 0.950 . S
H1360 C1365 0.950 . S
H1361 C1366 0.949 . S
H1362 C1368 0.950 . S
H1363 C1369 0.950 . S
H1364 C1370 0.949 . S
C1365 H1360 0.950 . S
C1365 C1367 1.327 . S
C1365 C1371 1.429 . S
C1366 C1358 1.574 . S
C1366 H1361 0.949 . S
C1366 C1372 1.368 . S
C1367 C1351 1.349 . S
C1367 H1359 0.950 . S
C1367 C1365 1.327 . S
C1368 C1356 1.349 . S
C1368 H1362 0.950 . S
C1368 C1369 1.327 . S
C1369 H1363 0.950 . S
C1369 C1368 1.327 . S
C1369 C1373 1.429 . S
C1370 C1353 1.574 . S
C1370 H1364 0.949 . S
C1370 C1374 1.368 . S
C1371 C1352 1.429 . S
C1371 C1365 1.429 . S
C1371 C1372 1.523 . S
C1372 C1353 1.368 . S
C1372 C1366 1.368 . S
C1372 C1371 1.523 . S
C1373 C1357 1.429 . S
C1373 C1369 1.429 . S
C1373 C1374 1.523 . S
C1374 C1358 1.368 . S
C1374 C1370 1.368 . S
C1374 C1373 1.523 . S
H1375 C1350 0.950 . S
H1376 C1352 0.950 . S
H1377 C1353 0.949 . S
H1378 C1355 0.950 . S
H1379 C1357 0.950 . S
C1380 C1381 1.349 . S
C1380 C1382 1.327 . S
C1380 H1405 0.950 . S
C1381 C1380 1.349 . S
C1381 C1397 1.349 . S
C1382 C1380 1.327 . S
C1382 C1401 1.429 . S
C1382 H1406 0.950 . S
C1383 C1400 1.574 . S
C1383 C1402 1.368 . S
C1383 H1407 0.949 . S
H1384 C1388 0.949 . S
C1385 C1386 1.349 . S
C1385 C1387 1.327 . S
C1385 H1408 0.950 . S
C1386 C1385 1.349 . S
C1386 C1398 1.349 . S
C1387 C1385 1.327 . S
C1387 C1403 1.429 . S
C1387 H1409 0.950 . S
C1388 H1384 0.949 . S
C1388 C1396 1.574 . S
C1388 C1404 1.368 . S
H1389 C1397 0.950 . S
H1390 C1395 0.950 . S
H1391 C1396 0.949 . S
H1392 C1398 0.950 . S
H1393 C1399 0.950 . S
H1394 C1400 0.949 . S
C1395 H1390 0.950 . S
C1395 C1397 1.327 . S
C1395 C1401 1.429 . S
C1396 C1388 1.574 . S
C1396 H1391 0.949 . S
C1396 C1402 1.368 . S
C1397 C1381 1.349 . S
C1397 H1389 0.950 . S
C1397 C1395 1.327 . S
C1398 C1386 1.349 . S
C1398 H1392 0.950 . S
C1398 C1399 1.327 . S
C1399 H1393 0.950 . S
C1399 C1398 1.327 . S
C1399 C1403 1.429 . S
C1400 C1383 1.574 . S
C1400 H1394 0.949 . S
C1400 C1404 1.368 . S
C1401 C1382 1.429 . S
C1401 C1395 1.429 . S
C1401 C1402 1.523 . S
C1402 C1383 1.368 . S
C1402 C1396 1.368 . S
C1402 C1401 1.523 . S
C1403 C1387 1.429 . S
C1403 C1399 1.429 . S
C1403 C1404 1.523 . S
C1404 C1388 1.368 . S
C1404 C1400 1.368 . S
C1404 C1403 1.523 . S
H1405 C1380 0.950 . S
H1406 C1382 0.950 . S
H1407 C1383 0.949 . S
H1408 C1385 0.950 . S
H1409 C1387 0.950 . S
C1410 C1411 1.349 . S
C1410 C1412 1.327 . S
C1410 H1435 0.950 . S
C1411 C1410 1.349 . S
C1411 C1427 1.349 1_455 S
C1412 C1410 1.327 . S
C1412 C1431 1.429 . S
C1412 H1436 0.950 . S
C1413 C1430 1.574 1_556 S
C1413 C1432 1.368 1_655 S
C1413 H1437 0.949 . S
H1414 C1418 0.949 . S
C1415 C1416 1.349 1_655 S
C1415 C1417 1.327 . S
C1415 H1438 0.950 . S
C1416 C1415 1.349 1_455 S
C1416 C1428 1.349 . S
C1417 C1415 1.327 . S
C1417 C1433 1.429 1_655 S
C1417 H1439 0.950 . S
C1418 H1414 0.949 . S
C1418 C1426 1.574 1_554 S
C1418 C1434 1.368 . S
H1419 C1427 0.950 . S
H1420 C1425 0.950 . S
H1421 C1426 0.949 . S
H1422 C1428 0.950 . S
H1423 C1429 0.950 . S
H1424 C1430 0.949 . S
C1425 H1420 0.950 . S
C1425 C1427 1.327 . S
C1425 C1431 1.429 1_655 S
C1426 C1418 1.574 1_556 S
C1426 H1421 0.949 . S
C1426 C1432 1.368 . S
C1427 C1411 1.349 1_655 S
C1427 H1419 0.950 . S
C1427 C1425 1.327 . S
C1428 C1416 1.349 . S
C1428 H1422 0.950 . S
C1428 C1429 1.327 . S
C1429 H1423 0.950 . S
C1429 C1428 1.327 . S
C1429 C1433 1.429 . S
C1430 C1413 1.574 1_554 S
C1430 H1424 0.949 . S
C1430 C1434 1.368 1_655 S
C1431 C1412 1.429 . S
C1431 C1425 1.429 1_455 S
C1431 C1432 1.523 . S
C1432 C1413 1.368 1_455 S
C1432 C1426 1.368 . S
C1432 C1431 1.523 . S
C1433 C1417 1.429 1_455 S
C1433 C1429 1.429 . S
C1433 C1434 1.523 . S
C1434 C1418 1.368 . S
C1434 C1430 1.368 1_455 S
C1434 C1433 1.523 . S
H1435 C1410 0.950 . S
H1436 C1412 0.950 . S
H1437 C1413 0.949 . S
H1438 C1415 0.950 . S
H1439 C1417 0.950 . S
C1440 C1441 1.349 . S
C1440 C1442 1.327 . S
C1440 H1465 0.950 . S
C1441 C1440 1.349 . S
C1441 C1457 1.349 . S
C1442 C1440 1.327 . S
C1442 C1461 1.429 . S
C1442 H1466 0.950 . S
C1443 C1460 1.574 . S
C1443 C1462 1.368 . S
C1443 H1467 0.949 . S
H1444 C1448 0.949 . S
C1445 C1446 1.349 . S
C1445 C1447 1.327 . S
C1445 H1468 0.950 . S
C1446 C1445 1.349 . S
C1446 C1458 1.349 . S
C1447 C1445 1.327 . S
C1447 C1463 1.429 . S
C1447 H1469 0.950 . S
C1448 H1444 0.949 . S
C1448 C1456 1.574 . S
C1448 C1464 1.368 . S
H1449 C1457 0.950 . S
H1450 C1455 0.950 . S
H1451 C1456 0.949 . S
H1452 C1458 0.950 . S
H1453 C1459 0.950 . S
H1454 C1460 0.949 . S
C1455 H1450 0.950 . S
C1455 C1457 1.327 . S
C1455 C1461 1.429 . S
C1456 C1448 1.574 . S
C1456 H1451 0.949 . S
C1456 C1462 1.368 . S
C1457 C1441 1.349 . S
C1457 H1449 0.950 . S
C1457 C1455 1.327 . S
C1458 C1446 1.349 . S
C1458 H1452 0.950 . S
C1458 C1459 1.327 . S
C1459 H1453 0.950 . S
C1459 C1458 1.327 . S
C1459 C1463 1.429 . S
C1460 C1443 1.574 . S
C1460 H1454 0.949 . S
C1460 C1464 1.368 . S
C1461 C1442 1.429 . S
C1461 C1455 1.429 . S
C1461 C1462 1.523 . S
C1462 C1443 1.368 . S
C1462 C1456 1.368 . S
C1462 C1461 1.523 . S
C1463 C1447 1.429 . S
C1463 C1459 1.429 . S
C1463 C1464 1.523 . S
C1464 C1448 1.368 . S
C1464 C1460 1.368 . S
C1464 C1463 1.523 . S
H1465 C1440 0.950 . S
H1466 C1442 0.950 . S
H1467 C1443 0.949 . S
H1468 C1445 0.950 . S
H1469 C1447 0.950 . S
C1470 C1471 1.349 . S
C1470 C1472 1.327 . S
C1470 H1495 0.950 . S
C1471 C1470 1.349 . S
C1471 C1487 1.349 . S
C1472 C1470 1.327 . S
C1472 C1491 1.429 . S
C1472 H1496 0.950 . S
C1473 C1490 1.574 . S
C1473 C1492 1.368 . S
C1473 H1497 0.949 . S
H1474 C1478 0.949 . S
C1475 C1476 1.349 . S
C1475 C1477 1.327 . S
C1475 H1498 0.950 . S
C1476 C1475 1.349 . S
C1476 C1488 1.349 . S
C1477 C1475 1.327 . S
C1477 C1493 1.429 . S
C1477 H1499 0.950 . S
C1478 H1474 0.949 . S
C1478 C1486 1.574 . S
C1478 C1494 1.368 . S
H1479 C1487 0.950 . S
H1480 C1485 0.950 . S
H1481 C1486 0.949 . S
H1482 C1488 0.950 . S
H1483 C1489 0.950 . S
H1484 C1490 0.949 . S
C1485 H1480 0.950 . S
C1485 C1487 1.327 . S
C1485 C1491 1.429 . S
C1486 C1478 1.574 . S
C1486 H1481 0.949 . S
C1486 C1492 1.368 . S
C1487 C1471 1.349 . S
C1487 H1479 0.950 . S
C1487 C1485 1.327 . S
C1488 C1476 1.349 . S
C1488 H1482 0.950 . S
C1488 C1489 1.327 . S
C1489 H1483 0.950 . S
C1489 C1488 1.327 . S
C1489 C1493 1.429 . S
C1490 C1473 1.574 . S
C1490 H1484 0.949 . S
C1490 C1494 1.368 . S
C1491 C1472 1.429 . S
C1491 C1485 1.429 . S
C1491 C1492 1.523 . S
C1492 C1473 1.368 . S
C1492 C1486 1.368 . S
C1492 C1491 1.523 . S
C1493 C1477 1.429 . S
C1493 C1489 1.429 . S
C1493 C1494 1.523 . S
C1494 C1478 1.368 . S
C1494 C1490 1.368 . S
C1494 C1493 1.523 . S
H1495 C1470 0.950 . S
H1496 C1472 0.950 . S
H1497 C1473 0.949 . S
H1498 C1475 0.950 . S
H1499 C1477 0.950 . S
C1500 C1501 1.349 . S
C1500 C1502 1.327 1_554 S
C1500 H1525 0.950 . S
C1501 C1500 1.349 . S
C1501 C1517 1.349 . S
C1502 C1500 1.327 1_556 S
C1502 C1521 1.429 . S
C1502 H1526 0.950 . S
C1503 C1520 1.574 . S
C1503 C1522 1.368 . S
C1503 H1527 0.949 . S
H1504 C1508 0.949 . S
C1505 C1506 1.349 . S
C1505 C1507 1.327 . S
C1505 H1528 0.950 . S
C1506 C1505 1.349 . S
C1506 C1518 1.349 . S
C1507 C1505 1.327 . S
C1507 C1523 1.429 . S
C1507 H1529 0.950 . S
C1508 H1504 0.949 . S
C1508 C1516 1.574 . S
C1508 C1524 1.368 . S
H1509 C1517 0.950 . S
H1510 C1515 0.950 . S
H1511 C1516 0.949 . S
H1512 C1518 0.950 . S
H1513 C1519 0.950 . S
H1514 C1520 0.949 . S
C1515 H1510 0.950 . S
C1515 C1517 1.327 . S
C1515 C1521 1.429 1_554 S
C1516 C1508 1.574 . S
C1516 H1511 0.949 . S
C1516 C1522 1.368 . S
C1517 C1501 1.349 . S
C1517 H1509 0.950 . S
C1517 C1515 1.327 . S
C1518 C1506 1.349 . S
C1518 H1512 0.950 . S
C1518 C1519 1.327 . S
C1519 H1513 0.950 . S
C1519 C1518 1.327 . S
C1519 C1523 1.429 . S
C1520 C1503 1.574 . S
C1520 H1514 0.949 . S
C1520 C1524 1.368 . S
C1521 C1502 1.429 . S
C1521 C1515 1.429 1_556 S
C1521 C1522 1.523 . S
C1522 C1503 1.368 . S
C1522 C1516 1.368 . S
C1522 C1521 1.523 . S
C1523 C1507 1.429 . S
C1523 C1519 1.429 . S
C1523 C1524 1.523 . S
C1524 C1508 1.368 . S
C1524 C1520 1.368 . S
C1524 C1523 1.523 . S
H1525 C1500 0.950 . S
H1526 C1502 0.950 . S
H1527 C1503 0.949 . S
H1528 C1505 0.950 . S
H1529 C1507 0.950 . S
C1530 C1531 1.349 . S
C1530 C1532 1.327 . S
C1530 H1555 0.950 . S
C1531 C1530 1.349 . S
C1531 C1547 1.349 . S
C1532 C1530 1.327 . S
C1532 C1551 1.429 . S
C1532 H1556 0.950 . S
C1533 C1550 1.574 . S
C1533 C1552 1.368 . S
C1533 H1557 0.949 . S
H1534 C1538 0.949 . S
C1535 C1536 1.349 . S
C1535 C1537 1.327 1_556 S
C1535 H1558 0.950 . S
C1536 C1535 1.349 . S
C1536 C1548 1.349 . S
C1537 C1535 1.327 1_554 S
C1537 C1553 1.429 . S
C1537 H1559 0.950 . S
C1538 H1534 0.949 . S
C1538 C1546 1.574 . S
C1538 C1554 1.368 . S
H1539 C1547 0.950 . S
H1540 C1545 0.950 . S
H1541 C1546 0.949 . S
H1542 C1548 0.950 . S
H1543 C1549 0.950 . S
H1544 C1550 0.949 . S
C1545 H1540 0.950 . S
C1545 C1547 1.327 . S
C1545 C1551 1.429 . S
C1546 C1538 1.574 . S
C1546 H1541 0.949 . S
C1546 C1552 1.368 . S
C1547 C1531 1.349 . S
C1547 H1539 0.950 . S
C1547 C1545 1.327 . S
C1548 C1536 1.349 . S
C1548 H1542 0.950 . S
C1548 C1549 1.327 1_556 S
C1549 H1543 0.950 . S
C1549 C1548 1.327 1_554 S
C1549 C1553 1.429 . S
C1550 C1533 1.574 . S
C1550 H1544 0.949 . S
C1550 C1554 1.368 . S
C1551 C1532 1.429 . S
C1551 C1545 1.429 . S
C1551 C1552 1.523 . S
C1552 C1533 1.368 . S
C1552 C1546 1.368 . S
C1552 C1551 1.523 . S
C1553 C1537 1.429 . S
C1553 C1549 1.429 . S
C1553 C1554 1.523 . S
C1554 C1538 1.368 . S
C1554 C1550 1.368 . S
C1554 C1553 1.523 . S
H1555 C1530 0.950 . S
H1556 C1532 0.950 . S
H1557 C1533 0.949 . S
H1558 C1535 0.950 . S
H1559 C1537 0.950 . S
C1560 C1561 1.349 . S
C1560 C1562 1.327 . S
C1560 H1585 0.950 . S
C1561 C1560 1.349 . S
C1561 C1577 1.349 . S
C1562 C1560 1.327 . S
C1562 C1581 1.429 . S
C1562 H1586 0.950 . S
C1563 C1580 1.574 . S
C1563 C1582 1.368 . S
C1563 H1587 0.949 . S
H1564 C1568 0.949 . S
C1565 C1566 1.349 . S
C1565 C1567 1.327 . S
C1565 H1588 0.950 . S
C1566 C1565 1.349 . S
C1566 C1578 1.349 . S
C1567 C1565 1.327 . S
C1567 C1583 1.429 . S
C1567 H1589 0.950 . S
C1568 H1564 0.949 . S
C1568 C1576 1.574 . S
C1568 C1584 1.368 . S
H1569 C1577 0.950 . S
H1570 C1575 0.950 . S
H1571 C1576 0.949 . S
H1572 C1578 0.950 . S
H1573 C1579 0.950 . S
H1574 C1580 0.949 . S
C1575 H1570 0.950 . S
C1575 C1577 1.327 . S
C1575 C1581 1.429 . S
C1576 C1568 1.574 . S
C1576 H1571 0.949 . S
C1576 C1582 1.368 . S
C1577 C1561 1.349 . S
C1577 H1569 0.950 . S
C1577 C1575 1.327 . S
C1578 C1566 1.349 . S
C1578 H1572 0.950 . S
C1578 C1579 1.327 . S
C1579 H1573 0.950 . S
C1579 C1578 1.327 . S
C1579 C1583 1.429 . S
C1580 C1563 1.574 . S
C1580 H1574 0.949 . S
C1580 C1584 1.368 . S
C1581 C1562 1.429 . S
C1581 C1575 1.429 . S
C1581 C1582 1.523 . S
C1582 C1563 1.368 . S
C1582 C1576 1.368 . S
C1582 C1581 1.523 . S
C1583 C1567 1.429 . S
C1583 C1579 1.429 . S
C1583 C1584 1.523 . S
C1584 C1568 1.368 . S
C1584 C1580 1.368 . S
C1584 C1583 1.523 . S
H1585 C1560 0.950 . S
H1586 C1562 0.950 . S
H1587 C1563 0.949 . S
H1588 C1565 0.950 . S
H1589 C1567 0.950 . S
C1590 C1591 1.349 . S
C1590 C1592 1.327 . S
C1590 H1615 0.950 . S
C1591 C1590 1.349 . S
C1591 C1607 1.349 . S
C1592 C1590 1.327 . S
C1592 C1611 1.429 . S
C1592 H1616 0.950 . S
C1593 C1610 1.574 . S
C1593 C1612 1.368 . S
C1593 H1617 0.949 . S
H1594 C1598 0.949 . S
C1595 C1596 1.349 . S
C1595 C1597 1.327 . S
C1595 H1618 0.950 . S
C1596 C1595 1.349 . S
C1596 C1608 1.349 . S
C1597 C1595 1.327 . S
C1597 C1613 1.429 . S
C1597 H1619 0.950 . S
C1598 H1594 0.949 . S
C1598 C1606 1.574 . S
C1598 C1614 1.368 . S
H1599 C1607 0.950 . S
H1600 C1605 0.950 . S
H1601 C1606 0.949 . S
H1602 C1608 0.950 . S
H1603 C1609 0.950 . S
H1604 C1610 0.949 . S
C1605 H1600 0.950 . S
C1605 C1607 1.327 . S
C1605 C1611 1.429 . S
C1606 C1598 1.574 . S
C1606 H1601 0.949 . S
C1606 C1612 1.368 . S
C1607 C1591 1.349 . S
C1607 H1599 0.950 . S
C1607 C1605 1.327 . S
C1608 C1596 1.349 . S
C1608 H1602 0.950 . S
C1608 C1609 1.327 . S
C1609 H1603 0.950 . S
C1609 C1608 1.327 . S
C1609 C1613 1.429 . S
C1610 C1593 1.574 . S
C1610 H1604 0.949 . S
C1610 C1614 1.368 . S
C1611 C1592 1.429 . S
C1611 C1605 1.429 . S
C1611 C1612 1.523 . S
C1612 C1593 1.368 . S
C1612 C1606 1.368 . S
C1612 C1611 1.523 . S
C1613 C1597 1.429 . S
C1613 C1609 1.429 . S
C1613 C1614 1.523 . S
C1614 C1598 1.368 . S
C1614 C1610 1.368 . S
C1614 C1613 1.523 . S
H1615 C1590 0.950 . S
H1616 C1592 0.950 . S
H1617 C1593 0.949 . S
H1618 C1595 0.950 . S
H1619 C1597 0.950 . S
C1620 C1621 1.349 . S
C1620 C1622 1.327 1_556 S
C1620 H1645 0.950 . S
C1621 C1620 1.349 . S
C1621 C1637 1.349 . S
C1622 C1620 1.327 1_554 S
C1622 C1641 1.429 . S
C1622 H1646 0.950 . S
C1623 C1640 1.574 . S
C1623 C1642 1.368 . S
C1623 H1647 0.949 . S
H1624 C1628 0.949 . S
C1625 C1626 1.349 . S
C1625 C1627 1.327 . S
C1625 H1648 0.950 . S
C1626 C1625 1.349 . S
C1626 C1638 1.349 . S
C1627 C1625 1.327 . S
C1627 C1643 1.429 . S
C1627 H1649 0.950 . S
C1628 H1624 0.949 . S
C1628 C1636 1.574 . S
C1628 C1644 1.368 . S
H1629 C1637 0.950 . S
H1630 C1635 0.950 1_554 S
H1631 C1636 0.949 . S
H1632 C1638 0.950 . S
H1633 C1639 0.950 . S
H1634 C1640 0.949 . S
C1635 H1630 0.950 1_556 S
C1635 C1637 1.327 . S
C1635 C1641 1.429 1_556 S
C1636 C1628 1.574 . S
C1636 H1631 0.949 . S
C1636 C1642 1.368 . S
C1637 C1621 1.349 . S
C1637 H1629 0.950 . S
C1637 C1635 1.327 . S
C1638 C1626 1.349 . S
C1638 H1632 0.950 . S
C1638 C1639 1.327 . S
C1639 H1633 0.950 . S
C1639 C1638 1.327 . S
C1639 C1643 1.429 . S
C1640 C1623 1.574 . S
C1640 H1634 0.949 . S
C1640 C1644 1.368 . S
C1641 C1622 1.429 . S
C1641 C1635 1.429 1_554 S
C1641 C1642 1.523 . S
C1642 C1623 1.368 . S
C1642 C1636 1.368 . S
C1642 C1641 1.523 . S
C1643 C1627 1.429 . S
C1643 C1639 1.429 . S
C1643 C1644 1.523 . S
C1644 C1628 1.368 . S
C1644 C1640 1.368 . S
C1644 C1643 1.523 . S
H1645 C1620 0.950 . S
H1646 C1622 0.950 . S
H1647 C1623 0.949 . S
H1648 C1625 0.950 . S
H1649 C1627 0.950 . S
C1650 C1651 1.349 . S
C1650 C1652 1.327 . S
C1650 H1675 0.950 . S
C1651 C1650 1.349 . S
C1651 C1667 1.349 . S
C1652 C1650 1.327 . S
C1652 C1671 1.429 . S
C1652 H1676 0.950 . S
C1653 C1670 1.574 . S
C1653 C1672 1.368 . S
C1653 H1677 0.949 . S
H1654 C1658 0.949 . S
C1655 C1656 1.349 1_556 S
C1655 C1657 1.327 . S
C1655 H1678 0.950 . S
C1656 C1655 1.349 1_554 S
C1656 C1668 1.349 . S
C1657 C1655 1.327 . S
C1657 C1673 1.429 . S
C1657 H1679 0.950 . S
C1658 H1654 0.949 . S
C1658 C1666 1.574 . S
C1658 C1674 1.368 . S
H1659 C1667 0.950 . S
H1660 C1665 0.950 . S
H1661 C1666 0.949 . S
H1662 C1668 0.950 . S
H1663 C1669 0.950 . S
H1664 C1670 0.949 . S
C1665 H1660 0.950 . S
C1665 C1667 1.327 . S
C1665 C1671 1.429 . S
C1666 C1658 1.574 . S
C1666 H1661 0.949 . S
C1666 C1672 1.368 . S
C1667 C1651 1.349 . S
C1667 H1659 0.950 . S
C1667 C1665 1.327 . S
C1668 C1656 1.349 . S
C1668 H1662 0.950 . S
C1668 C1669 1.327 1_554 S
C1669 H1663 0.950 . S
C1669 C1668 1.327 1_556 S
C1669 C1673 1.429 . S
C1670 C1653 1.574 . S
C1670 H1664 0.949 . S
C1670 C1674 1.368 . S
C1671 C1652 1.429 . S
C1671 C1665 1.429 . S
C1671 C1672 1.523 . S
C1672 C1653 1.368 . S
C1672 C1666 1.368 . S
C1672 C1671 1.523 . S
C1673 C1657 1.429 . S
C1673 C1669 1.429 . S
C1673 C1674 1.523 . S
C1674 C1658 1.368 . S
C1674 C1670 1.368 . S
C1674 C1673 1.523 . S
H1675 C1650 0.950 . S
H1676 C1652 0.950 . S
H1677 C1653 0.949 . S
H1678 C1655 0.950 . S
H1679 C1657 0.950 . S
C1680 C1681 1.349 . S
C1680 C1682 1.327 . S
C1680 H1705 0.950 . S
C1681 C1680 1.349 . S
C1681 C1697 1.349 . S
C1682 C1680 1.327 . S
C1682 C1701 1.429 . S
C1682 H1706 0.950 . S
C1683 C1700 1.574 . S
C1683 C1702 1.368 . S
C1683 H1707 0.949 . S
H1684 C1688 0.949 . S
C1685 C1686 1.349 . S
C1685 C1687 1.327 . S
C1685 H1708 0.950 . S
C1686 C1685 1.349 . S
C1686 C1698 1.349 . S
C1687 C1685 1.327 . S
C1687 C1703 1.429 . S
C1687 H1709 0.950 . S
C1688 H1684 0.949 . S
C1688 C1696 1.574 . S
C1688 C1704 1.368 . S
H1689 C1697 0.950 . S
H1690 C1695 0.950 . S
H1691 C1696 0.949 . S
H1692 C1698 0.950 1_554 S
H1693 C1699 0.950 . S
H1694 C1700 0.949 . S
C1695 H1690 0.950 . S
C1695 C1697 1.327 . S
C1695 C1701 1.429 . S
C1696 C1688 1.574 . S
C1696 H1691 0.949 . S
C1696 C1702 1.368 . S
C1697 C1681 1.349 . S
C1697 H1689 0.950 . S
C1697 C1695 1.327 . S
C1698 C1686 1.349 . S
C1698 H1692 0.950 1_556 S
C1698 C1699 1.327 . S
C1699 H1693 0.950 . S
C1699 C1698 1.327 . S
C1699 C1703 1.429 . S
C1700 C1683 1.574 . S
C1700 H1694 0.949 . S
C1700 C1704 1.368 . S
C1701 C1682 1.429 . S
C1701 C1695 1.429 . S
C1701 C1702 1.523 . S
C1702 C1683 1.368 . S
C1702 C1696 1.368 . S
C1702 C1701 1.523 . S
C1703 C1687 1.429 . S
C1703 C1699 1.429 . S
C1703 C1704 1.523 . S
C1704 C1688 1.368 . S
C1704 C1700 1.368 . S
C1704 C1703 1.523 . S
H1705 C1680 0.950 . S
H1706 C1682 0.950 . S
H1707 C1683 0.949 . S
H1708 C1685 0.950 . S
H1709 C1687 0.950 . S
C1710 C1711 1.349 . S
C1710 C1712 1.327 . S
C1710 H1735 0.950 . S
C1711 C1710 1.349 . S
C1711 C1727 1.349 . S
C1712 C1710 1.327 . S
C1712 C1731 1.429 . S
C1712 H1736 0.950 . S
C1713 C1730 1.574 . S
C1713 C1732 1.368 . S
C1713 H1737 0.949 . S
H1714 C1718 0.949 . S
C1715 C1716 1.349 . S
C1715 C1717 1.327 . S
C1715 H1738 0.950 . S
C1716 C1715 1.349 . S
C1716 C1728 1.349 . S
C1717 C1715 1.327 . S
C1717 C1733 1.429 . S
C1717 H1739 0.950 . S
C1718 H1714 0.949 . S
C1718 C1726 1.574 . S
C1718 C1734 1.368 . S
H1719 C1727 0.950 . S
H1720 C1725 0.950 . S
H1721 C1726 0.949 . S
H1722 C1728 0.950 . S
H1723 C1729 0.950 . S
H1724 C1730 0.949 . S
C1725 H1720 0.950 . S
C1725 C1727 1.327 . S
C1725 C1731 1.429 . S
C1726 C1718 1.574 . S
C1726 H1721 0.949 . S
C1726 C1732 1.368 . S
C1727 C1711 1.349 . S
C1727 H1719 0.950 . S
C1727 C1725 1.327 . S
C1728 C1716 1.349 . S
C1728 H1722 0.950 . S
C1728 C1729 1.327 . S
C1729 H1723 0.950 . S
C1729 C1728 1.327 . S
C1729 C1733 1.429 . S
C1730 C1713 1.574 . S
C1730 H1724 0.949 . S
C1730 C1734 1.368 . S
C1731 C1712 1.429 . S
C1731 C1725 1.429 . S
C1731 C1732 1.523 . S
C1732 C1713 1.368 . S
C1732 C1726 1.368 . S
C1732 C1731 1.523 . S
C1733 C1717 1.429 . S
C1733 C1729 1.429 . S
C1733 C1734 1.523 . S
C1734 C1718 1.368 . S
C1734 C1730 1.368 . S
C1734 C1733 1.523 . S
H1735 C1710 0.950 . S
H1736 C1712 0.950 . S
H1737 C1713 0.949 . S
H1738 C1715 0.950 . S
H1739 C1717 0.950 . S
C1740 C1741 1.349 . S
C1740 C1742 1.327 . S
C1740 H1765 0.950 . S
C1741 C1740 1.349 . S
C1741 C1757 1.349 . S
C1742 C1740 1.327 . S
C1742 C1761 1.429 . S
C1742 H1766 0.950 . S
C1743 C1760 1.574 . S
C1743 C1762 1.368 . S
C1743 H1767 0.949 . S
H1744 C1748 0.949 . S
C1745 C1746 1.349 . S
C1745 C1747 1.327 . S
C1745 H1768 0.950 . S
C1746 C1745 1.349 . S
C1746 C1758 1.349 . S
C1747 C1745 1.327 . S
C1747 C1763 1.429 . S
C1747 H1769 0.950 . S
C1748 H1744 0.949 . S
C1748 C1756 1.574 . S
C1748 C1764 1.368 . S
H1749 C1757 0.950 . S
H1750 C1755 0.950 . S
H1751 C1756 0.949 . S
H1752 C1758 0.950 . S
H1753 C1759 0.950 . S
H1754 C1760 0.949 . S
C1755 H1750 0.950 . S
C1755 C1757 1.327 . S
C1755 C1761 1.429 . S
C1756 C1748 1.574 . S
C1756 H1751 0.949 . S
C1756 C1762 1.368 . S
C1757 C1741 1.349 . S
C1757 H1749 0.950 . S
C1757 C1755 1.327 . S
C1758 C1746 1.349 . S
C1758 H1752 0.950 . S
C1758 C1759 1.327 . S
C1759 H1753 0.950 . S
C1759 C1758 1.327 . S
C1759 C1763 1.429 . S
C1760 C1743 1.574 . S
C1760 H1754 0.949 . S
C1760 C1764 1.368 . S
C1761 C1742 1.429 . S
C1761 C1755 1.429 . S
C1761 C1762 1.523 . S
C1762 C1743 1.368 . S
C1762 C1756 1.368 . S
C1762 C1761 1.523 . S
C1763 C1747 1.429 . S
C1763 C1759 1.429 . S
C1763 C1764 1.523 . S
C1764 C1748 1.368 . S
C1764 C1760 1.368 . S
C1764 C1763 1.523 . S
H1765 C1740 0.950 . S
H1766 C1742 0.950 . S
H1767 C1743 0.949 . S
H1768 C1745 0.950 . S
H1769 C1747 0.950 . S
C1770 C1771 1.349 . S
C1770 C1772 1.327 . S
C1770 H1795 0.950 . S
C1771 C1770 1.349 . S
C1771 C1787 1.349 . S
C1772 C1770 1.327 . S
C1772 C1791 1.429 . S
C1772 H1796 0.950 . S
C1773 C1790 1.574 . S
C1773 C1792 1.368 . S
C1773 H1797 0.949 . S
H1774 C1778 0.949 . S
C1775 C1776 1.349 . S
C1775 C1777 1.327 . S
C1775 H1798 0.950 . S
C1776 C1775 1.349 . S
C1776 C1788 1.349 . S
C1777 C1775 1.327 . S
C1777 C1793 1.429 . S
C1777 H1799 0.950 . S
C1778 H1774 0.949 . S
C1778 C1786 1.574 . S
C1778 C1794 1.368 . S
H1779 C1787 0.950 . S
H1780 C1785 0.950 . S
H1781 C1786 0.949 . S
H1782 C1788 0.950 . S
H1783 C1789 0.950 . S
H1784 C1790 0.949 . S
C1785 H1780 0.950 . S
C1785 C1787 1.327 . S
C1785 C1791 1.429 . S
C1786 C1778 1.574 . S
C1786 H1781 0.949 . S
C1786 C1792 1.368 . S
C1787 C1771 1.349 . S
C1787 H1779 0.950 . S
C1787 C1785 1.327 . S
C1788 C1776 1.349 . S
C1788 H1782 0.950 . S
C1788 C1789 1.327 . S
C1789 H1783 0.950 . S
C1789 C1788 1.327 . S
C1789 C1793 1.429 . S
C1790 C1773 1.574 . S
C1790 H1784 0.949 . S
C1790 C1794 1.368 . S
C1791 C1772 1.429 . S
C1791 C1785 1.429 . S
C1791 C1792 1.523 . S
C1792 C1773 1.368 . S
C1792 C1786 1.368 . S
C1792 C1791 1.523 . S
C1793 C1777 1.429 . S
C1793 C1789 1.429 . S
C1793 C1794 1.523 . S
C1794 C1778 1.368 . S
C1794 C1790 1.368 . S
C1794 C1793 1.523 . S
H1795 C1770 0.950 . S
H1796 C1772 0.950 . S
H1797 C1773 0.949 . S
H1798 C1775 0.950 . S
H1799 C1777 0.950 . S
C1800 C1801 1.349 . S
C1800 C1802 1.327 . S
C1800 H1825 0.950 . S
C1801 C1800 1.349 . S
C1801 C1817 1.349 . S
C1802 C1800 1.327 . S
C1802 C1821 1.429 . S
C1802 H1826 0.950 . S
C1803 C1820 1.574 . S
C1803 C1822 1.368 . S
C1803 H1827 0.949 . S
H1804 C1808 0.949 . S
C1805 C1806 1.349 . S
C1805 C1807 1.327 . S
C1805 H1828 0.950 1_554 S
C1806 C1805 1.349 . S
C1806 C1818 1.349 . S
C1807 C1805 1.327 . S
C1807 C1823 1.429 . S
C1807 H1829 0.950 . S
C1808 H1804 0.949 . S
C1808 C1816 1.574 . S
C1808 C1824 1.368 . S
H1809 C1817 0.950 . S
H1810 C1815 0.950 . S
H1811 C1816 0.949 . S
H1812 C1818 0.950 . S
H1813 C1819 0.950 . S
H1814 C1820 0.949 . S
C1815 H1810 0.950 . S
C1815 C1817 1.327 . S
C1815 C1821 1.429 . S
C1816 C1808 1.574 . S
C1816 H1811 0.949 . S
C1816 C1822 1.368 . S
C1817 C1801 1.349 . S
C1817 H1809 0.950 . S
C1817 C1815 1.327 . S
C1818 C1806 1.349 . S
C1818 H1812 0.950 . S
C1818 C1819 1.327 . S
C1819 H1813 0.950 . S
C1819 C1818 1.327 . S
C1819 C1823 1.429 . S
C1820 C1803 1.574 . S
C1820 H1814 0.949 . S
C1820 C1824 1.368 . S
C1821 C1802 1.429 . S
C1821 C1815 1.429 . S
C1821 C1822 1.523 . S
C1822 C1803 1.368 . S
C1822 C1816 1.368 . S
C1822 C1821 1.523 . S
C1823 C1807 1.429 . S
C1823 C1819 1.429 . S
C1823 C1824 1.523 . S
C1824 C1808 1.368 . S
C1824 C1820 1.368 . S
C1824 C1823 1.523 . S
H1825 C1800 0.950 . S
H1826 C1802 0.950 . S
H1827 C1803 0.949 . S
H1828 C1805 0.950 1_556 S
H1829 C1807 0.950 . S
C1830 C1831 1.349 . S
C1830 C1832 1.327 . S
C1830 H1855 0.950 . S
C1831 C1830 1.349 . S
C1831 C1847 1.349 . S
C1832 C1830 1.327 . S
C1832 C1851 1.429 . S
C1832 H1856 0.950 . S
C1833 C1850 1.574 . S
C1833 C1852 1.368 . S
C1833 H1857 0.949 . S
H1834 C1838 0.949 . S
C1835 C1836 1.349 . S
C1835 C1837 1.327 . S
C1835 H1858 0.950 . S
C1836 C1835 1.349 . S
C1836 C1848 1.349 . S
C1837 C1835 1.327 . S
C1837 C1853 1.429 . S
C1837 H1859 0.950 . S
C1838 H1834 0.949 . S
C1838 C1846 1.574 . S
C1838 C1854 1.368 . S
H1839 C1847 0.950 . S
H1840 C1845 0.950 . S
H1841 C1846 0.949 . S
H1842 C1848 0.950 . S
H1843 C1849 0.950 . S
H1844 C1850 0.949 . S
C1845 H1840 0.950 . S
C1845 C1847 1.327 . S
C1845 C1851 1.429 . S
C1846 C1838 1.574 . S
C1846 H1841 0.949 . S
C1846 C1852 1.368 . S
C1847 C1831 1.349 . S
C1847 H1839 0.950 . S
C1847 C1845 1.327 . S
C1848 C1836 1.349 . S
C1848 H1842 0.950 . S
C1848 C1849 1.327 . S
C1849 H1843 0.950 . S
C1849 C1848 1.327 . S
C1849 C1853 1.429 . S
C1850 C1833 1.574 . S
C1850 H1844 0.949 . S
C1850 C1854 1.368 . S
C1851 C1832 1.429 . S
C1851 C1845 1.429 . S
C1851 C1852 1.523 . S
C1852 C1833 1.368 . S
C1852 C1846 1.368 . S
C1852 C1851 1.523 . S
C1853 C1837 1.429 . S
C1853 C1849 1.429 . S
C1853 C1854 1.523 . S
C1854 C1838 1.368 . S
C1854 C1850 1.368 . S
C1854 C1853 1.523 . S
H1855 C1830 0.950 . S
H1856 C1832 0.950 . S
H1857 C1833 0.949 . S
H1858 C1835 0.950 . S
H1859 C1837 0.950 . S
C1860 C1861 1.349 . S
C1860 C1862 1.327 . S
C1860 H1885 0.950 . S
C1861 C1860 1.349 . S
C1861 C1877 1.349 . S
C1862 C1860 1.327 . S
C1862 C1881 1.429 . S
C1862 H1886 0.950 . S
C1863 C1880 1.574 . S
C1863 C1882 1.368 . S
C1863 H1887 0.949 . S
H1864 C1868 0.949 . S
C1865 C1866 1.349 . S
C1865 C1867 1.327 . S
C1865 H1888 0.950 . S
C1866 C1865 1.349 . S
C1866 C1878 1.349 . S
C1867 C1865 1.327 . S
C1867 C1883 1.429 . S
C1867 H1889 0.950 . S
C1868 H1864 0.949 . S
C1868 C1876 1.574 . S
C1868 C1884 1.368 . S
H1869 C1877 0.950 . S
H1870 C1875 0.950 . S
H1871 C1876 0.949 . S
H1872 C1878 0.950 . S
H1873 C1879 0.950 . S
H1874 C1880 0.949 . S
C1875 H1870 0.950 . S
C1875 C1877 1.327 . S
C1875 C1881 1.429 . S
C1876 C1868 1.574 . S
C1876 H1871 0.949 . S
C1876 C1882 1.368 . S
C1877 C1861 1.349 . S
C1877 H1869 0.950 . S
C1877 C1875 1.327 . S
C1878 C1866 1.349 . S
C1878 H1872 0.950 . S
C1878 C1879 1.327 . S
C1879 H1873 0.950 . S
C1879 C1878 1.327 . S
C1879 C1883 1.429 . S
C1880 C1863 1.574 . S
C1880 H1874 0.949 . S
C1880 C1884 1.368 . S
C1881 C1862 1.429 . S
C1881 C1875 1.429 . S
C1881 C1882 1.523 . S
C1882 C1863 1.368 . S
C1882 C1876 1.368 . S
C1882 C1881 1.523 . S
C1883 C1867 1.429 . S
C1883 C1879 1.429 . S
C1883 C1884 1.523 . S
C1884 C1868 1.368 . S
C1884 C1880 1.368 . S
C1884 C1883 1.523 . S
H1885 C1860 0.950 . S
H1886 C1862 0.950 . S
H1887 C1863 0.949 . S
H1888 C1865 0.950 . S
H1889 C1867 0.950 . S
C1890 C1891 1.349 . S
C1890 C1892 1.327 . S
C1890 H1915 0.950 . S
C1891 C1890 1.349 . S
C1891 C1907 1.349 . S
C1892 C1890 1.327 . S
C1892 C1911 1.429 . S
C1892 H1916 0.950 . S
C1893 C1910 1.574 . S
C1893 C1912 1.368 . S
C1893 H1917 0.949 . S
H1894 C1898 0.949 . S
C1895 C1896 1.349 . S
C1895 C1897 1.327 . S
C1895 H1918 0.950 . S
C1896 C1895 1.349 . S
C1896 C1908 1.349 . S
C1897 C1895 1.327 . S
C1897 C1913 1.429 . S
C1897 H1919 0.950 . S
C1898 H1894 0.949 . S
C1898 C1906 1.574 . S
C1898 C1914 1.368 . S
H1899 C1907 0.950 . S
H1900 C1905 0.950 . S
H1901 C1906 0.949 . S
H1902 C1908 0.950 . S
H1903 C1909 0.950 . S
H1904 C1910 0.949 . S
C1905 H1900 0.950 . S
C1905 C1907 1.327 . S
C1905 C1911 1.429 . S
C1906 C1898 1.574 . S
C1906 H1901 0.949 . S
C1906 C1912 1.368 . S
C1907 C1891 1.349 . S
C1907 H1899 0.950 . S
C1907 C1905 1.327 . S
C1908 C1896 1.349 . S
C1908 H1902 0.950 . S
C1908 C1909 1.327 . S
C1909 H1903 0.950 . S
C1909 C1908 1.327 . S
C1909 C1913 1.429 . S
C1910 C1893 1.574 . S
C1910 H1904 0.949 . S
C1910 C1914 1.368 . S
C1911 C1892 1.429 . S
C1911 C1905 1.429 . S
C1911 C1912 1.523 . S
C1912 C1893 1.368 . S
C1912 C1906 1.368 . S
C1912 C1911 1.523 . S
C1913 C1897 1.429 . S
C1913 C1909 1.429 . S
C1913 C1914 1.523 . S
C1914 C1898 1.368 . S
C1914 C1910 1.368 . S
C1914 C1913 1.523 . S
H1915 C1890 0.950 . S
H1916 C1892 0.950 . S
H1917 C1893 0.949 . S
H1918 C1895 0.950 . S
H1919 C1897 0.950 . S
C481 C27 1.725 . S
C486 C237 1.692 . S
C511 C57 0.420 . S
C516 N126 0.567 . S
C541 N156 1.297 . S
C546 C87 1.380 . S
C571 N96 0.496 . S
C576 N186 0.532 . S
C601 C346 1.692 . S
C606 C136 1.725 . S
C631 C256 0.420 . S
C636 N14 0.567 . S
C661 N314 1.297 . S
C666 C196 1.380 . S
C691 N74 0.532 . S
C696 N284 0.496 . S
C721 C297 1.692 . S
C726 C387 1.705 . S
C751 C327 0.420 . S
C756 N426 0.567 . S
C781 C417 1.380 . S
C786 N246 1.297 . S
C811 N336 0.496 . S
C816 N456 0.532 . S
C841 C436 1.705 . S
C846 C106 1.692 . S
C871 N374 0.567 . S
C876 C166 0.420 . S
C901 N44 1.297 . S
C906 C466 1.380 . S
C931 N224 0.496 . S
C936 N404 0.532 . S
C961 C400 0.258 . S
C966 C10 0.198 . S
C991 C331 0.141 . S
C996 C40 0.151 . S
C1021 C370 0.198 . S
C1026 C70 0.257 . S
C1051 C310 0.151 . S
C1056 C91 0.141 . S
C1081 C121 0.198 . S
C1086 C451 0.257 . S
C1111 C280 0.141 . S
C1116 C151 0.151 . S
C1141 C181 0.257 . S
C1146 C421 0.198 . S
C1171 C220 0.141 . S
C1176 C241 0.151 . S
C1201 C1 0.674 . S
C1206 C130 0.674 . S
C1231 C31 0.817 . S
C1236 C160 0.817 . S
C1261 C190 0.975 . S
C1266 C61 0.975 . S
C1291 C100 0.793 . S
C1296 C211 0.793 . S
C1321 C301 0.817 . S
C1326 C250 0.817 . S
C1351 C340 0.793 . S
C1356 C271 0.793 . S
C1381 C361 0.673 . S
C1386 C430 0.673 . S
C1411 C460 0.976 . S
C1416 C391 0.976 . S
C1441 N6 0.649 . S
C1446 N216 0.649 . S
C1471 N36 1.875 . S
C1476 C147 1.833 . S
C1501 C177 0.863 . S
C1506 N66 0.871 . S
C1531 C207 2.066 . S
C1536 C117 2.050 . S
C1561 N344 0.649 . S
C1566 N134 0.649 . S
C1591 N254 1.875 . S
C1596 C16 1.832 . S
C1621 C316 0.863 . S
C1626 N194 0.872 . S
C1651 C76 2.066 . S
C1656 C286 2.050 . S
C1681 N366 0.649 . S
C1686 N276 0.649 1_556 S
C1711 C447 1.833 . S
C1716 N306 1.875 1_554 S
C1741 N396 0.872 . S
C1746 C267 0.863 . S
C1771 C477 2.066 . S
C1776 C357 2.050 . S
C1801 N434 0.649 . S
C1806 N104 0.649 1_554 S
C1831 N164 1.875 1_556 S
C1836 C376 1.832 . S
C1861 C46 0.863 . S
C1866 N464 0.872 . S
C1891 C406 2.066 . S
C1896 C226 2.050 . S
