# Generated by pormake.
# Topology bmn, (3)-cn, num edge types: 1
# Building blocks:
#     Node 0, Type 0, BuildingBlock: OLANEW_clean_sbu_2, # of connection points: 3
#     Node 1, Type 0, BuildingBlock: OLANEW_clean_sbu_2, # of connection points: 3
#     Node 2, Type 0, BuildingBlock: OLANEW_clean_sbu_2, # of connection points: 3
#     Node 3, Type 0, BuildingBlock: OLANEW_clean_sbu_2, # of connection points: 3
#     Node 4, Type 0, BuildingBlock: OLANEW_clean_sbu_2, # of connection points: 3
#     Node 5, Type 0, BuildingBlock: OLANEW_clean_sbu_2, # of connection points: 3
#     Node 6, Type 0, BuildingBlock: OLANEW_clean_sbu_2, # of connection points: 3
#     Node 7, Type 0, BuildingBlock: OLANEW_clean_sbu_2, # of connection points: 3
#     Node 8, Type 0, BuildingBlock: OLANEW_clean_sbu_2, # of connection points: 3
#     Node 9, Type 0, BuildingBlock: OLANEW_clean_sbu_2, # of connection points: 3
#     Node 10, Type 0, BuildingBlock: OLANEW_clean_sbu_2, # of connection points: 3
#     Node 11, Type 0, BuildingBlock: OLANEW_clean_sbu_2, # of connection points: 3
#     Node 12, Type 0, BuildingBlock: OLANEW_clean_sbu_2, # of connection points: 3
#     Node 13, Type 0, BuildingBlock: OLANEW_clean_sbu_2, # of connection points: 3
#     Node 14, Type 0, BuildingBlock: OLANEW_clean_sbu_2, # of connection points: 3
#     Node 15, Type 0, BuildingBlock: OLANEW_clean_sbu_2, # of connection points: 3
#     Node 16, Type 0, BuildingBlock: OLANEW_clean_sbu_2, # of connection points: 3
#     Node 17, Type 0, BuildingBlock: OLANEW_clean_sbu_2, # of connection points: 3
#     Node 18, Type 0, BuildingBlock: OLANEW_clean_sbu_2, # of connection points: 3
#     Node 19, Type 0, BuildingBlock: OLANEW_clean_sbu_2, # of connection points: 3
#     Node 20, Type 0, BuildingBlock: OLANEW_clean_sbu_2, # of connection points: 3
#     Node 21, Type 0, BuildingBlock: OLANEW_clean_sbu_2, # of connection points: 3
#     Node 22, Type 0, BuildingBlock: OLANEW_clean_sbu_2, # of connection points: 3
#     Node 23, Type 0, BuildingBlock: OLANEW_clean_sbu_2, # of connection points: 3
#     Edge 24, Type (0, 0), BuildingBlock: CIFDUS_clean_linker_0, # of connection points: 2
#     Edge 25, Type (0, 0), BuildingBlock: CIFDUS_clean_linker_0, # of connection points: 2
#     Edge 26, Type (0, 0), BuildingBlock: CIFDUS_clean_linker_0, # of connection points: 2
#     Edge 27, Type (0, 0), BuildingBlock: CIFDUS_clean_linker_0, # of connection points: 2
#     Edge 28, Type (0, 0), BuildingBlock: CIFDUS_clean_linker_0, # of connection points: 2
#     Edge 29, Type (0, 0), BuildingBlock: CIFDUS_clean_linker_0, # of connection points: 2
#     Edge 30, Type (0, 0), BuildingBlock: CIFDUS_clean_linker_0, # of connection points: 2
#     Edge 31, Type (0, 0), BuildingBlock: CIFDUS_clean_linker_0, # of connection points: 2
#     Edge 32, Type (0, 0), BuildingBlock: CIFDUS_clean_linker_0, # of connection points: 2
#     Edge 33, Type (0, 0), BuildingBlock: CIFDUS_clean_linker_0, # of connection points: 2
#     Edge 34, Type (0, 0), BuildingBlock: CIFDUS_clean_linker_0, # of connection points: 2
#     Edge 35, Type (0, 0), BuildingBlock: CIFDUS_clean_linker_0, # of connection points: 2
#     Edge 36, Type (0, 0), BuildingBlock: CIFDUS_clean_linker_0, # of connection points: 2
#     Edge 37, Type (0, 0), BuildingBlock: CIFDUS_clean_linker_0, # of connection points: 2
#     Edge 38, Type (0, 0), BuildingBlock: CIFDUS_clean_linker_0, # of connection points: 2
#     Edge 39, Type (0, 0), BuildingBlock: CIFDUS_clean_linker_0, # of connection points: 2
#     Edge 40, Type (0, 0), BuildingBlock: CIFDUS_clean_linker_0, # of connection points: 2
#     Edge 41, Type (0, 0), BuildingBlock: CIFDUS_clean_linker_0, # of connection points: 2
#     Edge 42, Type (0, 0), BuildingBlock: CIFDUS_clean_linker_0, # of connection points: 2
#     Edge 43, Type (0, 0), BuildingBlock: CIFDUS_clean_linker_0, # of connection points: 2
#     Edge 44, Type (0, 0), BuildingBlock: CIFDUS_clean_linker_0, # of connection points: 2
#     Edge 45, Type (0, 0), BuildingBlock: CIFDUS_clean_linker_0, # of connection points: 2
#     Edge 46, Type (0, 0), BuildingBlock: CIFDUS_clean_linker_0, # of connection points: 2
#     Edge 47, Type (0, 0), BuildingBlock: CIFDUS_clean_linker_0, # of connection points: 2
#     Edge 48, Type (0, 0), BuildingBlock: CIFDUS_clean_linker_0, # of connection points: 2
#     Edge 49, Type (0, 0), BuildingBlock: CIFDUS_clean_linker_0, # of connection points: 2
#     Edge 50, Type (0, 0), BuildingBlock: CIFDUS_clean_linker_0, # of connection points: 2
#     Edge 51, Type (0, 0), BuildingBlock: CIFDUS_clean_linker_0, # of connection points: 2
#     Edge 52, Type (0, 0), BuildingBlock: CIFDUS_clean_linker_0, # of connection points: 2
#     Edge 53, Type (0, 0), BuildingBlock: CIFDUS_clean_linker_0, # of connection points: 2
#     Edge 54, Type (0, 0), BuildingBlock: CIFDUS_clean_linker_0, # of connection points: 2
#     Edge 55, Type (0, 0), BuildingBlock: CIFDUS_clean_linker_0, # of connection points: 2
#     Edge 56, Type (0, 0), BuildingBlock: CIFDUS_clean_linker_0, # of connection points: 2
#     Edge 57, Type (0, 0), BuildingBlock: CIFDUS_clean_linker_0, # of connection points: 2
#     Edge 58, Type (0, 0), BuildingBlock: CIFDUS_clean_linker_0, # of connection points: 2
#     Edge 59, Type (0, 0), BuildingBlock: CIFDUS_clean_linker_0, # of connection points: 2
# Relax obj value: 0.033
# Max RMSD: 0.069
# Mean RMSD: 0.033
data_MOF--net-bmn--node1-OLANEW_clean_sbu_2--edge1-CIFDUS_clean_linker_0
_symmetry_space_group_name_H-M    P1
_symmetry_Int_Tables_number       1
_symmetry_cell_setting            triclinic
loop_
_symmetry_equiv_pos_as_xyz
'x, y, z'
_cell_length_a     54.974935
_cell_length_b     54.784849
_cell_length_c     55.075768
_cell_angle_alpha  102.79188
_cell_angle_beta   97.040049
_cell_angle_gamma 97.142895
loop_
_atom_site_label
_atom_site_type_symbol
_atom_site_fract_x
_atom_site_fract_y
_atom_site_fract_z
_atom_type_partial_charge
O0 O 0.21788 0.54347 0.33074 0.0
Cd1 Cd 0.18952 0.56268 0.3574 0.0
O2 O 0.24805 0.57592 0.34398 0.0
Cd3 Cd 0.22401 0.59975 0.36357 0.0
O4 O 0.19719 0.62589 0.36973 0.0
C5 C 0.18334 0.62663 0.38666 0.0
O6 O 0.18529 0.61131 0.40184 0.0
C7 C 0.24002 0.55354 0.33078 0.0
C8 C 0.18183 0.53617 0.39435 0.0
O9 O 0.16777 0.53007 0.37289 0.0
O10 O 0.1994 0.55499 0.39843 0.0
O11 O 0.97694 0.94634 0.53919 0.0
Cd12 Cd 0.96193 0.91824 0.5648 0.0
O13 O 0.95027 0.97299 0.54565 0.0
Cd14 Cd 0.9289 0.9499 0.56577 0.0
O15 O 0.90073 0.92631 0.5789 0.0
C16 C 0.87806 0.92675 0.57117 0.0
O17 O 0.8727 0.94151 0.55609 0.0
C18 C 0.96904 0.96644 0.53603 0.0
C19 C 0.00354 0.90971 0.59431 0.0
O20 O 0.99538 0.89531 0.57235 0.0
O21 O 0.9915 0.92758 0.60261 0.0
O22 O 0.42951 0.63598 0.7371 0.0
Cd23 Cd 0.41623 0.59628 0.74859 0.0
O24 O 0.42187 0.65618 0.77378 0.0
Cd25 Cd 0.41957 0.69127 0.80102 0.0
O26 O 0.42749 0.73079 0.82223 0.0
C27 C 0.44228 0.73688 0.84297 0.0
O28 O 0.45171 0.719 0.8516 0.0
C29 C 0.42938 0.65672 0.75291 0.0
C30 C 0.45094 0.56296 0.74432 0.0
O31 O 0.43352 0.56151 0.72606 0.0
O32 O 0.45211 0.58035 0.76448 0.0
O33 O 0.69335 0.37585 0.07089 0.0
Cd34 Cd 0.72359 0.39465 0.10891 0.0
O35 O 0.66115 0.38438 0.08953 0.0
Cd36 Cd 0.68124 0.39601 0.12797 0.0
O37 O 0.68294 0.39631 0.16789 0.0
C38 C 0.66892 0.40918 0.18039 0.0
O39 O 0.65538 0.4229 0.16925 0.0
C40 C 0.67011 0.37591 0.06969 0.0
C41 C 0.77127 0.40197 0.0965 0.0
O42 O 0.76292 0.38173 0.1028 0.0
O43 O 0.75717 0.4189 0.09633 0.0
O44 O 0.01929 0.08352 0.45742 0.0
Cd45 Cd 0.03614 0.10406 0.42655 0.0
O46 O 0.0274 0.04787 0.43521 0.0
Cd47 Cd 0.02492 0.00652 0.42534 0.0
O48 O 0.01956 0.96541 0.42021 0.0
C49 C 0.03722 0.95291 0.41604 0.0
O50 O 0.059 0.96504 0.41469 0.0
C51 C 0.01894 0.05977 0.45413 0.0
C52 C 0.05868 0.15429 0.44636 0.0
O53 O 0.03545 0.1488 0.43757 0.0
O54 O 0.07115 0.13598 0.44608 0.0
O55 O 0.50589 0.80742 0.75522 0.0
Cd56 Cd 0.5232 0.84686 0.74556 0.0
O57 O 0.47306 0.80442 0.72725 0.0
Cd58 Cd 0.4356 0.78988 0.70642 0.0
O59 O 0.39974 0.79033 0.68447 0.0
C60 C 0.38117 0.79483 0.69545 0.0
O61 O 0.3835 0.79777 0.72 0.0
C62 C 0.48492 0.79539 0.74364 0.0
C63 C 0.55606 0.83805 0.71095 0.0
O64 O 0.56367 0.84288 0.73471 0.0
O65 O 0.53292 0.83755 0.70358 0.0
O66 O 0.53672 0.31581 0.95512 0.0
Cd67 Cd 0.50507 0.29384 0.91917 0.0
O68 O 0.56682 0.29796 0.93926 0.0
Cd69 Cd 0.54056 0.26874 0.91176 0.0
O70 O 0.51879 0.23096 0.90378 0.0
C71 C 0.50644 0.22648 0.9208 0.0
O72 O 0.50628 0.24503 0.94051 0.0
C73 C 0.55967 0.31406 0.95624 0.0
C74 C 0.50868 0.31839 0.88014 0.0
O75 O 0.49479 0.32499 0.89673 0.0
O76 O 0.52044 0.29989 0.88176 0.0
O77 O 0.32984 0.46654 0.24027 0.0
Cd78 Cd 0.35536 0.4454 0.2114 0.0
O79 O 0.29812 0.4541 0.20982 0.0
Cd80 Cd 0.25997 0.45262 0.19178 0.0
O81 O 0.22206 0.44865 0.17225 0.0
C82 C 0.21771 0.44171 0.14832 0.0
O83 O 0.23626 0.43733 0.13589 0.0
C84 C 0.30695 0.46573 0.23246 0.0
C85 C 0.39482 0.42828 0.23611 0.0
O86 O 0.39723 0.45061 0.2322 0.0
O87 O 0.37367 0.4141 0.22846 0.0
O88 O 0.27788 0.28211 0.56637 0.0
Cd89 Cd 0.29984 0.24687 0.57144 0.0
O90 O 0.30688 0.31254 0.58955 0.0
Cd91 Cd 0.3276 0.28518 0.60267 0.0
O92 O 0.34242 0.25602 0.61883 0.0
C93 C 0.33481 0.25154 0.63852 0.0
O94 O 0.31864 0.2648 0.64855 0.0
C95 C 0.28605 0.30559 0.5752 0.0
C96 C 0.33626 0.24039 0.54031 0.0
O97 O 0.31347 0.23091 0.53194 0.0
O98 O 0.34183 0.25299 0.56331 0.0
O99 O 0.37185 0.05775 0.68087 0.0
Cd100 Cd 0.40303 0.09541 0.69885 0.0
O101 O 0.34999 0.06736 0.71153 0.0
Cd102 Cd 0.37861 0.0965 0.73621 0.0
O103 O 0.39889 0.1068 0.77457 0.0
C104 C 0.39604 0.12626 0.7908 0.0
O105 O 0.38206 0.14202 0.78376 0.0
C106 C 0.35246 0.05326 0.69059 0.0
C107 C 0.39019 0.13611 0.67994 0.0
O108 O 0.4039 0.12125 0.66896 0.0
O109 O 0.38278 0.13187 0.70001 0.0
O110 O 0.41685 0.08977 0.04709 0.0
Cd111 Cd 0.3939 0.11859 0.07243 0.0
O112 O 0.4161 0.1147 0.02102 0.0
Cd113 Cd 0.42073 0.12356 0.9849 0.0
O114 O 0.41971 0.12744 0.94624 0.0
C115 C 0.41446 0.14736 0.93995 0.0
O116 O 0.40987 0.16621 0.95726 0.0
C117 C 0.42234 0.0949 0.02685 0.0
C118 C 0.41612 0.13736 0.12258 0.0
O119 O 0.40074 0.11661 0.11565 0.0
O120 O 0.42127 0.14909 0.10568 0.0
O121 O 0.48951 0.23036 0.40134 0.0
Cd122 Cd 0.4594 0.19523 0.40546 0.0
O123 O 0.47926 0.21768 0.36044 0.0
Cd124 Cd 0.48079 0.2141 0.32029 0.0
O125 O 0.47109 0.19946 0.27948 0.0
C126 C 0.45757 0.17782 0.27199 0.0
O127 O 0.45085 0.16587 0.2889 0.0
C128 C 0.49274 0.23294 0.37953 0.0
C129 C 0.42394 0.20928 0.43578 0.0
O130 O 0.4454 0.20606 0.44541 0.0
O131 O 0.41939 0.2063 0.41183 0.0
O132 O 0.61335 0.33585 0.35844 0.0
Cd133 Cd 0.64902 0.36792 0.35964 0.0
O134 O 0.58822 0.35492 0.33774 0.0
Cd135 Cd 0.55237 0.36273 0.32177 0.0
O136 O 0.51948 0.37545 0.30524 0.0
C137 C 0.52149 0.39799 0.30245 0.0
O138 O 0.54315 0.41268 0.30969 0.0
C139 C 0.59158 0.33689 0.34827 0.0
C140 C 0.65773 0.37437 0.31244 0.0
O141 O 0.66752 0.358 0.32216 0.0
O142 O 0.64355 0.38743 0.32491 0.0
O143 O 0.02091 0.4192 0.0107 0.0
Cd144 Cd 0.03856 0.38959 0.03253 0.0
O145 O 0.98795 0.41277 0.02843 0.0
Cd146 Cd 0.95122 0.41781 0.03855 0.0
O147 O 0.91467 0.41671 0.05049 0.0
C148 C 0.90775 0.39904 0.06086 0.0
O149 O 0.92276 0.38268 0.06384 0.0
C150 C 0.99905 0.42328 0.01354 0.0
C151 C 0.08743 0.40577 0.05678 0.0
O152 O 0.0826 0.3938 0.03352 0.0
O153 O 0.06912 0.41054 0.06845 0.0
O154 O 0.99408 0.69015 0.36947 0.0
Cd155 Cd 0.02538 0.72276 0.39806 0.0
O156 O 0.97861 0.71516 0.34744 0.0
Cd157 Cd 0.00058 0.75044 0.3706 0.0
O158 O 0.01167 0.79133 0.38512 0.0
C159 C 0.0324 0.80267 0.38237 0.0
O160 O 0.04809 0.78929 0.37154 0.0
C161 C 0.97908 0.69316 0.35127 0.0
C162 C 0.06857 0.70144 0.40431 0.0
O163 O 0.06457 0.71337 0.38702 0.0
O164 O 0.05249 0.70028 0.41918 0.0
O165 O 0.72475 0.76177 0.56071 0.0
Cd166 Cd 0.72033 0.80028 0.59101 0.0
O167 O 0.68496 0.74804 0.54743 0.0
Cd168 Cd 0.67301 0.77734 0.57518 0.0
O169 O 0.6517 0.79571 0.60293 0.0
C170 C 0.62933 0.7976 0.59558 0.0
O171 O 0.6203 0.78948 0.57149 0.0
C172 C 0.7075 0.74563 0.54614 0.0
C173 C 0.75651 0.83911 0.587 0.0
O174 O 0.76108 0.82485 0.60203 0.0
O175 O 0.73463 0.83541 0.57438 0.0
O176 O 0.19425 0.41602 0.55422 0.0
Cd177 Cd 0.16825 0.44841 0.54969 0.0
O178 O 0.16431 0.38684 0.53138 0.0
Cd179 Cd 0.14586 0.34858 0.51131 0.0
O180 O 0.12805 0.30914 0.49706 0.0
C181 C 0.10467 0.30385 0.49036 0.0
O182 O 0.09153 0.32243 0.49174 0.0
C183 C 0.18589 0.39274 0.54448 0.0
C184 C 0.17791 0.47342 0.51209 0.0
O185 O 0.18994 0.48132 0.53453 0.0
O186 O 0.16159 0.45343 0.50734 0.0
O187 O 0.24928 0.91629 0.63415 0.0
Cd188 Cd 0.22753 0.87273 0.62313 0.0
O189 O 0.22583 0.92934 0.66249 0.0
Cd190 Cd 0.19612 0.89698 0.64863 0.0
O191 O 0.15683 0.88406 0.63359 0.0
C192 C 0.14157 0.89576 0.64536 0.0
O193 O 0.15022 0.91324 0.66621 0.0
C194 C 0.24475 0.93343 0.65196 0.0
C195 C 0.25959 0.84438 0.6439 0.0
O196 O 0.25977 0.84692 0.62134 0.0
O197 O 0.24357 0.85442 0.65627 0.0
O198 O 0.61486 0.43934 0.72428 0.0
Cd199 Cd 0.58673 0.4386 0.75544 0.0
O200 O 0.59384 0.40425 0.69896 0.0
Cd201 Cd 0.57074 0.39573 0.72645 0.0
O202 O 0.55944 0.37503 0.75386 0.0
C203 C 0.54518 0.38205 0.76966 0.0
O204 O 0.53597 0.40309 0.76985 0.0
C205 C 0.61148 0.42279 0.70344 0.0
C206 C 0.55548 0.4752 0.75638 0.0
O207 O 0.57617 0.47973 0.77133 0.0
O208 O 0.54962 0.45341 0.74089 0.0
O209 O 0.71671 0.42549 0.60169 0.0
Cd210 Cd 0.7471 0.41725 0.57318 0.0
O211 O 0.74671 0.43878 0.63377 0.0
Cd212 Cd 0.764 0.45051 0.67342 0.0
O213 O 0.78632 0.46305 0.7109 0.0
C214 C 0.80964 0.46916 0.71247 0.0
O215 O 0.81929 0.46766 0.69162 0.0
C216 C 0.72359 0.43404 0.62527 0.0
C217 C 0.74638 0.4472 0.53835 0.0
O218 O 0.73163 0.42615 0.53403 0.0
O219 O 0.76142 0.45412 0.55921 0.0
O220 O 0.92607 0.50779 0.92131 0.0
Cd221 Cd 0.90748 0.53841 0.90173 0.0
O222 O 0.89495 0.50608 0.94256 0.0
Cd223 Cd 0.87723 0.49623 0.9733 0.0
O224 O 0.86622 0.49296 0.00933 0.0
C225 C 0.84673 0.50107 0.01582 0.0
O226 O 0.83292 0.5105 0.00011 0.0
C227 C 0.91537 0.49914 0.93752 0.0
C228 C 0.87767 0.51697 0.85525 0.0
O229 O 0.90096 0.52446 0.85673 0.0
O230 O 0.86854 0.51931 0.87583 0.0
O231 O 0.90286 0.53877 0.27206 0.0
Cd232 Cd 0.87268 0.50281 0.24684 0.0
O233 O 0.88934 0.56412 0.24943 0.0
Cd234 Cd 0.87023 0.53331 0.21803 0.0
O235 O 0.86468 0.51243 0.17862 0.0
C236 C 0.84785 0.51676 0.16286 0.0
O237 O 0.83276 0.53243 0.17107 0.0
C238 C 0.90279 0.56096 0.26863 0.0
C239 C 0.82797 0.50831 0.26493 0.0
O240 O 0.84329 0.49569 0.2742 0.0
O241 O 0.83334 0.5174 0.24638 0.0
O242 O 0.74245 0.61762 0.4449 0.0
Cd243 Cd 0.75822 0.58082 0.4223 0.0
O244 O 0.70291 0.60327 0.4306 0.0
Cd245 Cd 0.71232 0.57079 0.40454 0.0
O246 O 0.73112 0.54603 0.37882 0.0
C247 C 0.73159 0.54909 0.35667 0.0
O248 O 0.71953 0.56617 0.34944 0.0
C249 C 0.71976 0.62024 0.44479 0.0
C250 C 0.76177 0.54684 0.45302 0.0
O251 O 0.7798 0.56449 0.45413 0.0
O252 O 0.74224 0.54492 0.43697 0.0
O253 O 0.47839 0.96271 0.943 0.0
Cd254 Cd 0.50181 0.93691 0.91514 0.0
O255 O 0.48333 0.98989 0.91963 0.0
Cd256 Cd 0.47958 0.02445 0.90673 0.0
O257 O 0.4832 0.06129 0.89737 0.0
C258 C 0.47219 0.07839 0.90879 0.0
O259 O 0.45787 0.073 0.9249 0.0
C260 C 0.47536 0.98406 0.93868 0.0
C261 C 0.47939 0.88686 0.89416 0.0
O262 O 0.49387 0.89297 0.91538 0.0
O263 O 0.47509 0.90454 0.88315 0.0
H264 H 0.32073 0.50914 0.26887 0.0
H265 H 0.25819 0.4508 0.23475 0.0
H266 H 0.23203 0.47273 0.26226 0.0
H267 H 0.22686 0.50864 0.29579 0.0
H268 H 0.28944 0.56713 0.32998 0.0
H269 H 0.3157 0.54483 0.30291 0.0
C270 C 0.30137 0.50125 0.26752 0.0
C271 C 0.29122 0.47874 0.24939 0.0
C272 C 0.28649 0.51391 0.2835 0.0
C273 C 0.26619 0.4686 0.24789 0.0
C274 C 0.2513 0.48097 0.26384 0.0
C275 C 0.24627 0.51649 0.29742 0.0
C276 C 0.25613 0.53955 0.31492 0.0
C277 C 0.26122 0.50371 0.28162 0.0
C278 C 0.28132 0.54945 0.31667 0.0
C279 C 0.29637 0.53671 0.30118 0.0
H280 H 0.03387 0.01958 0.46969 0.0
H281 H 0.97972 0.07014 0.47828 0.0
H282 H 0.95974 0.04616 0.50502 0.0
H283 H 0.95665 0.00966 0.52433 0.0
H284 H 0.01015 0.95826 0.51408 0.0
H285 H 0.03086 0.98323 0.48887 0.0
C286 C 0.01733 0.02496 0.47688 0.0
C287 C 0.00779 0.04607 0.47136 0.0
C288 C 0.00576 0.01086 0.49183 0.0
C289 C 0.98726 0.05378 0.4821 0.0
C290 C 0.97578 0.04002 0.49728 0.0
C291 C 0.97286 0.00393 0.51663 0.0
C292 C 0.98173 0.98203 0.52107 0.0
C293 C 0.98469 0.01834 0.50202 0.0
C294 C 0.00283 0.97496 0.51095 0.0
C295 C 0.01475 0.98925 0.49654 0.0
H296 H 0.45706 0.69863 0.78457 0.0
H297 H 0.42133 0.66902 0.70764 0.0
H298 H 0.43445 0.70979 0.69799 0.0
H299 H 0.45652 0.75374 0.71156 0.0
H300 H 0.49178 0.78309 0.78877 0.0
H301 H 0.47774 0.74275 0.79848 0.0
C302 C 0.45155 0.70133 0.76589 0.0
C303 C 0.43765 0.68115 0.74702 0.0
C304 C 0.459 0.72478 0.7606 0.0
C305 C 0.43187 0.68441 0.7225 0.0
C306 C 0.43928 0.70772 0.71703 0.0
C307 C 0.46064 0.75146 0.7306 0.0
C308 C 0.47485 0.77145 0.74951 0.0
C309 C 0.45279 0.72807 0.73596 0.0
C310 C 0.48083 0.76795 0.77392 0.0
C311 C 0.47285 0.7449 0.77947 0.0
H312 H 0.60996 0.31646 0.96362 0.0
H313 H 0.54999 0.34644 0.99802 0.0
H314 H 0.5791 0.36914 0.03557 0.0
H315 H 0.62104 0.37856 0.0596 0.0
H316 H 0.6812 0.34878 0.02546 0.0
H317 H 0.65252 0.32808 0.98679 0.0
C318 C 0.60326 0.32811 0.97924 0.0
C319 C 0.57776 0.32955 0.97802 0.0
C320 C 0.6201 0.34108 0.00088 0.0
C321 C 0.56948 0.34489 0.99842 0.0
C322 C 0.58611 0.35786 0.01996 0.0
C323 C 0.62795 0.36766 0.04367 0.0
C324 C 0.65321 0.36506 0.04554 0.0
C325 C 0.61138 0.35577 0.02155 0.0
C326 C 0.66184 0.35107 0.02459 0.0
C327 C 0.64544 0.33916 0.00247 0.0
H328 H 0.23609 0.39844 0.55485 0.0
H329 H 0.17014 0.34371 0.54615 0.0
H330 H 0.19536 0.31153 0.55248 0.0
H331 H 0.23616 0.29917 0.56202 0.0
H332 H 0.3021 0.35495 0.57565 0.0
H333 H 0.27695 0.38659 0.56639 0.0
C334 C 0.22725 0.37942 0.55422 0.0
C335 C 0.20121 0.37319 0.5487 0.0
C336 C 0.24191 0.36127 0.5591 0.0
C337 C 0.19006 0.34864 0.54859 0.0
C338 C 0.20452 0.33032 0.55279 0.0
C339 C 0.24504 0.31821 0.56279 0.0
C340 C 0.27095 0.32467 0.56932 0.0
C341 C 0.23044 0.33641 0.55804 0.0
C342 C 0.28217 0.34953 0.57068 0.0
C343 C 0.26781 0.3676 0.56536 0.0
H344 H 0.30894 0.03943 0.70614 0.0
H345 H 0.35326 0.01639 0.64808 0.0
H346 H 0.32343 0.97762 0.63049 0.0
H347 H 0.28578 0.94934 0.63286 0.0
H348 H 0.24187 0.97269 0.69128 0.0
H349 H 0.2706 0.01225 0.7074 0.0
C350 C 0.31206 0.02605 0.68953 0.0
C351 C 0.33342 0.0308 0.67856 0.0
C352 C 0.29497 0.00374 0.67964 0.0
C353 C 0.33701 0.01323 0.65696 0.0
C354 C 0.31999 0.991 0.64692 0.0
C355 C 0.28243 0.96312 0.64906 0.0
C356 C 0.26175 0.95791 0.66091 0.0
C357 C 0.29907 0.9859 0.65832 0.0
C358 C 0.25765 0.97609 0.6818 0.0
C359 C 0.27408 0.99876 0.69107 0.0
H360 H 0.41423 0.04361 0.01552 0.0
H361 H 0.4591 0.10751 0.0009 0.0
H362 H 0.4799 0.07892 0.9727 0.0
H363 H 0.48473 0.03567 0.95156 0.0
H364 H 0.43923 0.97169 0.96538 0.0
H365 H 0.41921 0.00029 0.99445 0.0
C366 C 0.42849 0.05119 0.00603 0.0
C367 C 0.4349 0.07756 0.00992 0.0
C368 C 0.44 0.03462 0.98945 0.0
C369 C 0.45348 0.08725 0.99769 0.0
C370 C 0.4654 0.07091 0.98162 0.0
C371 C 0.46998 0.028 0.96038 0.0
C372 C 0.46298 0.00161 0.95576 0.0
C373 C 0.45855 0.04456 0.97705 0.0
C374 C 0.44476 0.99195 0.96844 0.0
C375 C 0.43331 0.00828 0.98506 0.0
H376 H 0.49553 0.25745 0.34137 0.0
H377 H 0.53495 0.25274 0.41251 0.0
H378 H 0.5688 0.28441 0.40907 0.0
H379 H 0.58753 0.31309 0.38581 0.0
H380 H 0.549 0.31751 0.31424 0.0
H381 H 0.51459 0.28619 0.31774 0.0
C382 C 0.51172 0.26298 0.35585 0.0
C383 C 0.51287 0.25237 0.37693 0.0
C384 C 0.53121 0.2813 0.35377 0.0
C385 C 0.53358 0.26056 0.39606 0.0
C386 C 0.55301 0.27863 0.39409 0.0
C387 C 0.5716 0.30717 0.37095 0.0
C388 C 0.5706 0.31796 0.35003 0.0
C389 C 0.55205 0.28906 0.37302 0.0
C390 C 0.54986 0.31013 0.33094 0.0
C391 C 0.53031 0.29199 0.3328 0.0
H392 H 0.96446 0.50159 0.95309 0.0
H393 H 0.89291 0.45867 0.95203 0.0
H394 H 0.91241 0.43166 0.97589 0.0
H395 H 0.9499 0.41976 0.99621 0.0
H396 H 0.02148 0.46303 0.99808 0.0
H397 H 0.002 0.48996 0.97407 0.0
C398 C 0.95319 0.48628 0.95808 0.0
C399 C 0.92727 0.48238 0.95127 0.0
C400 C 0.96455 0.47086 0.97181 0.0
C401 C 0.91284 0.46247 0.95772 0.0
C402 C 0.924 0.4469 0.97116 0.0
C403 C 0.96116 0.43555 0.99209 0.0
C404 C 0.98701 0.43985 0.99959 0.0
C405 C 0.94982 0.45102 0.97844 0.0
C406 C 0.0015 0.45949 0.99272 0.0
C407 C 0.99038 0.4749 0.97901 0.0
H408 H 0.97581 0.64362 0.35338 0.0
H409 H 0.94523 0.69284 0.31047 0.0
H410 H 0.91891 0.65638 0.28141 0.0
H411 H 0.90502 0.61059 0.26774 0.0
H412 H 0.93543 0.56118 0.31047 0.0
H413 H 0.96135 0.59772 0.34002 0.0
C414 C 0.96334 0.64641 0.33772 0.0
C415 C 0.96258 0.67098 0.33414 0.0
C416 C 0.94825 0.62533 0.32099 0.0
C417 C 0.94626 0.67418 0.31372 0.0
C418 C 0.93119 0.65332 0.29705 0.0
C419 C 0.91729 0.60775 0.28351 0.0
C420 C 0.9183 0.58312 0.28679 0.0
C421 C 0.93213 0.62882 0.30043 0.0
C422 C 0.93428 0.57989 0.30743 0.0
C423 C 0.94912 0.60079 0.32436 0.0
H424 H 0.7513 0.65925 0.47705 0.0
H425 H 0.67337 0.63179 0.45047 0.0
H426 H 0.66271 0.66834 0.47919 0.0
H427 H 0.67554 0.70767 0.5124 0.0
H428 H 0.75359 0.73474 0.53887 0.0
H429 H 0.76409 0.6987 0.50958 0.0
C430 C 0.73196 0.66123 0.47745 0.0
C431 C 0.71318 0.64273 0.46162 0.0
C432 C 0.72596 0.68221 0.49403 0.0
C433 C 0.68822 0.64571 0.46243 0.0
C434 C 0.6821 0.6666 0.47887 0.0
C435 C 0.69485 0.70574 0.51175 0.0
C436 C 0.71372 0.72391 0.5279 0.0
C437 C 0.70082 0.6849 0.49485 0.0
C438 C 0.73865 0.72107 0.52672 0.0
C439 C 0.74471 0.70044 0.50996 0.0
H440 H 0.67762 0.40704 0.61722 0.0
H441 H 0.72669 0.46791 0.67095 0.0
H442 H 0.69598 0.47044 0.6996 0.0
H443 H 0.6556 0.45428 0.70991 0.0
H444 H 0.60662 0.39354 0.65562 0.0
H445 H 0.63666 0.39244 0.62649 0.0
C446 C 0.68156 0.42096 0.63516 0.0
C447 C 0.70472 0.43673 0.64228 0.0
C448 C 0.66373 0.42244 0.65138 0.0
C449 C 0.70946 0.45479 0.66547 0.0
C450 C 0.69175 0.45648 0.68172 0.0
C451 C 0.65138 0.44097 0.69161 0.0
C452 C 0.62889 0.42395 0.68505 0.0
C453 C 0.66892 0.44018 0.675 0.0
C454 C 0.6238 0.40679 0.66126 0.0
C455 C 0.64099 0.4061 0.64456 0.0
H456 H 0.10497 0.6998 0.37502 0.0
H457 H 0.08101 0.67297 0.43756 0.0
H458 H 0.115 0.64823 0.43831 0.0
H459 H 0.15027 0.63253 0.41981 0.0
H460 H 0.1738 0.65922 0.35699 0.0
H461 H 0.14128 0.6857 0.35785 0.0
C462 C 0.10727 0.68871 0.38896 0.0
C463 C 0.09038 0.68818 0.40612 0.0
C464 C 0.12672 0.67436 0.38916 0.0
C465 C 0.09371 0.67372 0.42409 0.0
C466 C 0.11311 0.6595 0.4245 0.0
C467 C 0.14839 0.64423 0.40639 0.0
C468 C 0.1644 0.64372 0.38827 0.0
C469 C 0.12953 0.6594 0.40689 0.0
C470 C 0.16171 0.65912 0.37109 0.0
C471 C 0.14308 0.6743 0.37154 0.0
H472 H 0.80559 0.84745 0.60659 0.0
H473 H 0.75166 0.87414 0.55909 0.0
H474 H 0.7844 0.90422 0.55084 0.0
H475 H 0.82844 0.92172 0.55565 0.0
H476 H 0.8826 0.89446 0.60237 0.0
H477 H 0.84962 0.86589 0.6124 0.0
C478 C 0.80095 0.85998 0.59459 0.0
C479 C 0.77619 0.85848 0.58344 0.0
C480 C 0.81992 0.87705 0.58967 0.0
C481 C 0.77056 0.87483 0.56788 0.0
C482 C 0.78928 0.89203 0.56311 0.0
C483 C 0.83307 0.90963 0.56813 0.0
C484 C 0.858 0.91019 0.57815 0.0
C485 C 0.81404 0.8931 0.57367 0.0
C486 C 0.86359 0.89438 0.59431 0.0
C487 C 0.84473 0.87802 0.60007 0.0
H488 H 0.49298 0.56488 0.77687 0.0
H489 H 0.44899 0.51999 0.70737 0.0
H490 H 0.47746 0.489 0.7049 0.0
H491 H 0.51439 0.47416 0.72289 0.0
H492 H 0.55893 0.51957 0.79185 0.0
H493 H 0.53072 0.55081 0.79406 0.0
C494 C 0.48963 0.54834 0.76116 0.0
C495 C 0.4688 0.54473 0.74241 0.0
C496 C 0.50616 0.53064 0.75976 0.0
C497 C 0.46487 0.52327 0.72208 0.0
C498 C 0.48112 0.50549 0.72066 0.0
C499 C 0.51795 0.4909 0.73839 0.0
C500 C 0.53869 0.49444 0.75723 0.0
C501 C 0.50175 0.5089 0.73947 0.0
C502 C 0.54312 0.51635 0.77709 0.0
C503 C 0.52697 0.53423 0.7784 0.0
H504 H 0.87235 0.42955 0.05779 0.0
H505 H 0.8878 0.36294 0.08284 0.0
H506 H 0.84724 0.35822 0.09632 0.0
H507 H 0.80716 0.37256 0.1006 0.0
H508 H 0.79151 0.43916 0.07573 0.0
H509 H 0.83207 0.44386 0.06211 0.0
C510 C 0.86686 0.41401 0.06621 0.0
C511 C 0.88314 0.39661 0.06924 0.0
C512 C 0.84343 0.41134 0.07394 0.0
C513 C 0.87569 0.37662 0.08025 0.0
C514 C 0.85247 0.37387 0.08798 0.0
C515 C 0.81267 0.38823 0.09235 0.0
C516 C 0.79629 0.40545 0.0892 0.0
C517 C 0.83617 0.39108 0.08487 0.0
C518 C 0.80377 0.42566 0.07851 0.0
C519 C 0.82703 0.42846 0.07078 0.0
H520 H 0.06933 0.92024 0.40211 0.0
H521 H 0.99571 0.92277 0.42134 0.0
H522 H 0.98824 0.87669 0.41377 0.0
H523 H 0.00198 0.83562 0.40036 0.0
H524 H 0.07524 0.83285 0.38025 0.0
H525 H 0.08347 0.87908 0.38965 0.0
C526 C 0.05168 0.91074 0.40475 0.0
C527 C 0.03309 0.92498 0.41218 0.0
C528 C 0.04741 0.88417 0.40019 0.0
C529 C 0.01033 0.91231 0.4155 0.0
C530 C 0.00602 0.88593 0.4112 0.0
C531 C 0.01982 0.84509 0.39817 0.0
C532 C 0.03794 0.83073 0.38955 0.0
C533 C 0.02435 0.87166 0.40334 0.0
C534 C 0.06093 0.84339 0.38681 0.0
C535 C 0.06566 0.86985 0.39215 0.0
H536 H 0.64114 0.81233 0.64674 0.0
H537 H 0.58083 0.8036 0.58583 0.0
H538 H 0.55311 0.81612 0.6161 0.0
H539 H 0.54548 0.82784 0.65983 0.0
H540 H 0.60563 0.83617 0.72078 0.0
H541 H 0.63388 0.82557 0.6905 0.0
C542 C 0.62198 0.81332 0.64006 0.0
C543 C 0.61309 0.80691 0.61402 0.0
C544 C 0.60605 0.82035 0.65758 0.0
C545 C 0.58819 0.80835 0.60574 0.0
C546 C 0.57228 0.81548 0.62305 0.0
C547 C 0.56479 0.82744 0.66651 0.0
C548 C 0.57337 0.83268 0.69255 0.0
C549 C 0.58093 0.82123 0.64901 0.0
C550 C 0.59849 0.83216 0.70085 0.0
C551 C 0.61467 0.82608 0.68355 0.0
H552 H 0.53611 0.30822 0.84238 0.0
H553 H 0.48811 0.35976 0.87312 0.0
H554 H 0.49473 0.38375 0.84138 0.0
H555 H 0.51511 0.39079 0.80558 0.0
H556 H 0.5631 0.33902 0.77514 0.0
H557 H 0.55545 0.3145 0.80606 0.0
C558 C 0.52699 0.32464 0.8421 0.0
C559 C 0.5117 0.3322 0.86016 0.0
C560 C 0.53093 0.33839 0.82388 0.0
C561 C 0.5 0.35351 0.85945 0.0
C562 C 0.5038 0.36728 0.84132 0.0
C563 C 0.52384 0.37411 0.80566 0.0
C564 C 0.53973 0.36687 0.78808 0.0
C565 C 0.51939 0.36001 0.82356 0.0
C566 C 0.55082 0.34512 0.78844 0.0
C567 C 0.54648 0.33104 0.80614 0.0
H568 H 0.2022 0.42474 0.09783 0.0
H569 H 0.17539 0.44987 0.16823 0.0
H570 H 0.13289 0.44201 0.14598 0.0
H571 H 0.10318 0.42668 0.10675 0.0
H572 H 0.12998 0.40081 0.0365 0.0
H573 H 0.17263 0.41043 0.05851 0.0
C574 C 0.1871 0.4286 0.10833 0.0
C575 C 0.19202 0.4378 0.13469 0.0
C576 C 0.16267 0.42389 0.09545 0.0
C577 C 0.17217 0.44271 0.14795 0.0
C578 C 0.14783 0.43823 0.13524 0.0
C579 C 0.11835 0.42329 0.09621 0.0
C580 C 0.11335 0.41298 0.07001 0.0
C581 C 0.14284 0.42863 0.10902 0.0
C582 C 0.13326 0.40867 0.05668 0.0
C583 C 0.15768 0.41415 0.06926 0.0
H584 H 0.36019 0.16946 0.69803 0.0
H585 H 0.40354 0.15027 0.63825 0.0
H586 H 0.39059 0.18449 0.6204 0.0
H587 H 0.36642 0.21943 0.62135 0.0
H588 H 0.32283 0.23829 0.681 0.0
H589 H 0.33646 0.20466 0.69926 0.0
C590 C 0.36688 0.17279 0.68113 0.0
C591 C 0.3828 0.15729 0.66951 0.0
C592 C 0.35929 0.19243 0.6709 0.0
C593 C 0.39126 0.16189 0.6476 0.0
C594 C 0.38385 0.18146 0.63736 0.0
C595 C 0.35995 0.21625 0.63838 0.0
C596 C 0.3436 0.23139 0.64975 0.0
C597 C 0.36779 0.19678 0.64878 0.0
C598 C 0.33539 0.22694 0.67181 0.0
C599 C 0.34317 0.20769 0.68229 0.0
H600 H 0.39346 0.1652 0.8305 0.0
H601 H 0.41856 0.09264 0.81203 0.0
H602 H 0.42742 0.09336 0.85664 0.0
H603 H 0.42389 0.11231 0.90038 0.0
H604 H 0.40066 0.18568 0.9195 0.0
H605 H 0.39477 0.18664 0.87504 0.0
C606 C 0.40114 0.14968 0.83623 0.0
C607 C 0.40493 0.12872 0.81787 0.0
C608 C 0.40612 0.15012 0.86198 0.0
C609 C 0.41522 0.10893 0.82569 0.0
C610 C 0.4202 0.10924 0.85122 0.0
C611 C 0.41799 0.12876 0.89494 0.0
C612 C 0.41263 0.14883 0.91328 0.0
C613 C 0.41507 0.12939 0.86946 0.0
C614 C 0.4048 0.16988 0.90578 0.0
C615 C 0.40146 0.17047 0.88036 0.0
H616 H 0.40872 0.11677 0.16215 0.0
H617 H 0.4481 0.18155 0.14331 0.0
H618 H 0.46485 0.19958 0.18776 0.0
H619 H 0.46748 0.19745 0.23216 0.0
H620 H 0.42783 0.13258 0.2507 0.0
H621 H 0.41211 0.11414 0.20622 0.0
C622 C 0.42104 0.13479 0.16773 0.0
C623 C 0.42708 0.14779 0.1494 0.0
C624 C 0.43054 0.14509 0.19331 0.0
C625 C 0.44311 0.17112 0.157 0.0
C626 C 0.45269 0.18148 0.18244 0.0
C627 C 0.45546 0.17925 0.22647 0.0
C628 C 0.44881 0.16649 0.2448 0.0
C629 C 0.4464 0.16871 0.20079 0.0
C630 C 0.43325 0.14288 0.23705 0.0
C631 C 0.42421 0.13229 0.21158 0.0
H632 H 0.4304 0.22591 0.48678 0.0
H633 H 0.37428 0.20633 0.42066 0.0
H634 H 0.34217 0.2142 0.44713 0.0
H635 H 0.3299 0.22563 0.48915 0.0
H636 H 0.38625 0.24679 0.55512 0.0
H637 H 0.41838 0.23933 0.52862 0.0
C638 C 0.41115 0.22343 0.47815 0.0
C639 C 0.40474 0.21541 0.4518 0.0
C640 C 0.39281 0.2282 0.49346 0.0
C641 C 0.37973 0.21252 0.4409 0.0
C642 C 0.36134 0.21694 0.45603 0.0
C643 C 0.34922 0.22861 0.49771 0.0
C644 C 0.35566 0.23659 0.52407 0.0
C645 C 0.36764 0.2246 0.48234 0.0
C646 C 0.38079 0.24066 0.53487 0.0
C647 C 0.39918 0.23636 0.51974 0.0
H648 H 0.64101 0.40855 0.28804 0.0
H649 H 0.68615 0.34901 0.28121 0.0
H650 H 0.69456 0.35532 0.24033 0.0
H651 H 0.68833 0.37706 0.20606 0.0
H652 H 0.64277 0.43626 0.2128 0.0
H653 H 0.63552 0.43087 0.25425 0.0
C654 C 0.6527 0.39695 0.27764 0.0
C655 C 0.66284 0.37827 0.28767 0.0
C656 C 0.65747 0.40066 0.25413 0.0
C657 C 0.67803 0.36348 0.27393 0.0
C658 C 0.68289 0.36709 0.25054 0.0
C659 C 0.67697 0.38893 0.21666 0.0
C660 C 0.66609 0.40701 0.20627 0.0
C661 C 0.67263 0.38556 0.24042 0.0
C662 C 0.65134 0.42215 0.22028 0.0
C663 C 0.64713 0.41906 0.24399 0.0
H664 H 0.12596 0.26127 0.48836 0.0
H665 H 0.0556 0.28633 0.47234 0.0
H666 H 0.03516 0.24238 0.45769 0.0
H667 H 0.03725 0.19682 0.44913 0.0
H668 H 0.10758 0.17178 0.46529 0.0
H669 H 0.12797 0.21573 0.48024 0.0
C670 C 0.10616 0.25715 0.48164 0.0
C671 C 0.09237 0.27712 0.48141 0.0
C672 C 0.09448 0.23181 0.4733 0.0
C673 C 0.0667 0.27137 0.47273 0.0
C674 C 0.05497 0.24622 0.46433 0.0
C675 C 0.05703 0.20096 0.45597 0.0
C676 C 0.07084 0.181 0.45606 0.0
C677 C 0.06867 0.22629 0.46451 0.0
C678 C 0.09647 0.18674 0.46501 0.0
C679 C 0.10817 0.21189 0.47354 0.0
H680 H 0.03591 0.87771 0.57934 0.0
H681 H 0.02433 0.93587 0.642 0.0
H682 H 0.06529 0.93499 0.66424 0.0
H683 H 0.1056 0.92034 0.66442 0.0
H684 H 0.1179 0.86319 0.60127 0.0
H685 H 0.07536 0.86089 0.58084 0.0
C686 C 0.04221 0.88998 0.59799 0.0
C687 C 0.02712 0.90697 0.60888 0.0
C688 C 0.06598 0.88967 0.61054 0.0
C689 C 0.03559 0.92271 0.63309 0.0
C690 C 0.05905 0.92225 0.64582 0.0
C691 C 0.09894 0.90717 0.64631 0.0
C692 C 0.11503 0.89214 0.63431 0.0
C693 C 0.0746 0.90622 0.63449 0.0
C694 C 0.10598 0.87509 0.61089 0.0
C695 C 0.08166 0.8738 0.59915 0.0
H696 H 0.48685 0.84536 0.91185 0.0
H697 H 0.44825 0.86808 0.84942 0.0
H698 H 0.43271 0.82375 0.82847 0.0
H699 H 0.43129 0.7785 0.82715 0.0
H700 H 0.47044 0.75582 0.88932 0.0
H701 H 0.48448 0.80018 0.91107 0.0
C702 C 0.47491 0.84065 0.89374 0.0
C703 C 0.46878 0.86005 0.88222 0.0
C704 C 0.46618 0.81511 0.88169 0.0
C705 C 0.45329 0.85355 0.85872 0.0
C706 C 0.44441 0.82819 0.8467 0.0
C707 C 0.44275 0.78324 0.84554 0.0
C708 C 0.44981 0.76382 0.85656 0.0
C709 C 0.45091 0.8088 0.8579 0.0
C710 C 0.46477 0.77035 0.88035 0.0
C711 C 0.47282 0.79573 0.89283 0.0
H712 H 0.15248 0.46397 0.46454 0.0
H713 H 0.21315 0.5144 0.51562 0.0
H714 H 0.21973 0.53818 0.48375 0.0
H715 H 0.20802 0.54497 0.44154 0.0
H716 H 0.14705 0.4948 0.39065 0.0
H717 H 0.14083 0.4707 0.42232 0.0
C718 C 0.16721 0.4801 0.46869 0.0
C719 C 0.1823 0.48735 0.49244 0.0
C720 C 0.1708 0.49382 0.45033 0.0
C721 C 0.20124 0.50839 0.4975 0.0
C722 C 0.20501 0.52203 0.47929 0.0
C723 C 0.19336 0.52877 0.43736 0.0
C724 C 0.17802 0.52174 0.41373 0.0
C725 C 0.18985 0.51498 0.45567 0.0
C726 C 0.15912 0.50067 0.40867 0.0
C727 C 0.15555 0.48684 0.42677 0.0
H728 H 0.50506 0.1835 0.88405 0.0
H729 H 0.48321 0.21048 0.95673 0.0
H730 H 0.46997 0.16703 0.95895 0.0
H731 H 0.46741 0.12139 0.94182 0.0
H732 H 0.4888 0.09401 0.86913 0.0
H733 H 0.49946 0.1376 0.86538 0.0
C734 C 0.49712 0.1799 0.90023 0.0
C735 C 0.49543 0.20026 0.92032 0.0
C736 C 0.48962 0.15479 0.90149 0.0
C737 C 0.48491 0.19522 0.94106 0.0
C738 C 0.47739 0.17034 0.94241 0.0
C739 C 0.47404 0.12496 0.92498 0.0
C740 C 0.47724 0.10456 0.90575 0.0
C741 C 0.48011 0.15 0.92298 0.0
C742 C 0.48625 0.10945 0.88423 0.0
C743 C 0.49228 0.13435 0.88205 0.0
H744 H 0.44149 0.45385 0.25418 0.0
H745 H 0.3956 0.3818 0.24642 0.0
H746 H 0.4306 0.36617 0.26646 0.0
H747 H 0.47438 0.37273 0.28569 0.0
H748 H 0.52019 0.44482 0.29332 0.0
H749 H 0.48505 0.46059 0.27385 0.0
C750 C 0.4391 0.43474 0.2569 0.0
C751 C 0.41594 0.41903 0.24876 0.0
C752 C 0.45931 0.42583 0.26839 0.0
C753 C 0.41321 0.39432 0.25248 0.0
C754 C 0.43323 0.38534 0.26393 0.0
C755 C 0.47669 0.39191 0.28313 0.0
C756 C 0.49994 0.40752 0.29094 0.0
C757 C 0.45639 0.40089 0.27188 0.0
C758 C 0.50254 0.43234 0.28749 0.0
C759 C 0.48244 0.44141 0.27634 0.0
H760 H 0.29692 0.82336 0.62325 0.0
H761 H 0.26495 0.83766 0.69186 0.0
H762 H 0.29884 0.82172 0.71335 0.0
H763 H 0.33922 0.80697 0.71362 0.0
H764 H 0.37158 0.79343 0.64521 0.0
H765 H 0.33577 0.80563 0.62271 0.0
C766 C 0.29719 0.82272 0.64283 0.0
C767 C 0.2785 0.8319 0.65595 0.0
C768 C 0.3169 0.81381 0.65518 0.0
C769 C 0.27913 0.83083 0.6813 0.0
C770 C 0.29856 0.82177 0.69364 0.0
C771 C 0.33836 0.80643 0.69372 0.0
C772 C 0.35822 0.79952 0.68122 0.0
C773 C 0.31781 0.81372 0.68092 0.0
C774 C 0.35666 0.7988 0.65538 0.0
C775 C 0.33619 0.80582 0.64248 0.0
H776 H 0.79583 0.47373 0.75897 0.0
H777 H 0.85973 0.48458 0.72188 0.0
H778 H 0.88638 0.49979 0.76266 0.0
H779 H 0.89157 0.51062 0.80882 0.0
H780 H 0.82776 0.49993 0.84605 0.0
H781 H 0.80113 0.48398 0.80525 0.0
C782 C 0.81559 0.47939 0.75979 0.0
C783 C 0.82571 0.47805 0.73735 0.0
C784 C 0.83086 0.48814 0.78334 0.0
C785 C 0.85139 0.48542 0.73881 0.0
C786 C 0.86668 0.49413 0.76214 0.0
C787 C 0.87185 0.50473 0.80804 0.0
C788 C 0.8617 0.50651 0.83049 0.0
C789 C 0.85662 0.49565 0.78452 0.0
C790 C 0.83609 0.49878 0.82909 0.0
C791 C 0.82082 0.48967 0.80575 0.0
H792 H 0.81685 0.52555 0.12437 0.0
H793 H 0.87893 0.48716 0.13968 0.0
H794 H 0.8829 0.47731 0.09506 0.0
H795 H 0.87136 0.48315 0.05249 0.0
H796 H 0.8094 0.52172 0.03722 0.0
H797 H 0.80278 0.52781 0.08102 0.0
C798 C 0.83108 0.51477 0.11794 0.0
C799 C 0.84781 0.50749 0.13545 0.0
C800 C 0.83349 0.50944 0.09229 0.0
C801 C 0.86595 0.49327 0.12669 0.0
C802 C 0.86833 0.48771 0.10117 0.0
C803 C 0.85629 0.49274 0.05867 0.0
C804 C 0.84112 0.50226 0.04164 0.0
C805 C 0.85266 0.49634 0.08394 0.0
C806 C 0.82148 0.51433 0.04993 0.0
C807 C 0.81768 0.51787 0.07501 0.0
H808 H 0.81403 0.49518 0.3066 0.0
H809 H 0.79236 0.53471 0.24976 0.0
H810 H 0.7591 0.54902 0.27214 0.0
H811 H 0.73868 0.5535 0.30971 0.0
H812 H 0.76114 0.51496 0.36717 0.0
H813 H 0.79141 0.49692 0.34254 0.0
C814 C 0.80183 0.50664 0.29891 0.0
C815 C 0.80584 0.51403 0.27665 0.0
C816 C 0.78298 0.51516 0.31208 0.0
C817 C 0.78979 0.52883 0.26693 0.0
C818 C 0.77079 0.5371 0.27975 0.0
C819 C 0.74999 0.54093 0.31675 0.0
C820 C 0.7478 0.53583 0.34039 0.0
C821 C 0.76761 0.53088 0.30265 0.0
C822 C 0.76252 0.51936 0.34911 0.0
C823 C 0.77989 0.50906 0.33505 0.0
H824 H 0.78018 0.48778 0.53814 0.0
H825 H 0.71181 0.44203 0.49677 0.0
H826 H 0.71077 0.46852 0.46646 0.0
H827 H 0.72887 0.50512 0.45213 0.0
H828 H 0.79773 0.55029 0.49301 0.0
H829 H 0.79903 0.52348 0.52297 0.0
C830 C 0.76504 0.48361 0.5225 0.0
C831 C 0.74604 0.46305 0.51981 0.0
C832 C 0.76466 0.49878 0.50502 0.0
C833 C 0.72667 0.45776 0.4993 0.0
C834 C 0.72605 0.4729 0.48196 0.0
C835 C 0.74421 0.50906 0.46755 0.0
C836 C 0.76312 0.52974 0.47036 0.0
C837 C 0.74489 0.49352 0.48469 0.0
C838 C 0.78293 0.53449 0.49037 0.0
C839 C 0.78366 0.5192 0.50757 0.0
loop_
_geom_bond_atom_site_label_1
_geom_bond_atom_site_label_2
_geom_bond_distance
_geom_bond_site_symmetry_2
_ccdc_geom_bond_type
O0 Cd1 2.300 . S
O0 C7 1.275 . S
Cd1 O0 2.300 . S
Cd1 O9 2.381 . S
Cd1 O10 2.378 . S
O2 Cd3 2.385 . S
O2 C7 1.255 . S
Cd3 O2 2.385 . S
Cd3 O4 2.317 . S
O4 Cd3 2.317 . S
O4 C5 1.232 . S
C5 O4 1.232 . S
C5 O6 1.218 . S
O6 C5 1.218 . S
C7 O0 1.275 . S
C7 O2 1.255 . S
C8 O9 1.258 . S
C8 O10 1.256 . S
O9 Cd1 2.381 . S
O9 C8 1.258 . S
O10 Cd1 2.378 . S
O10 C8 1.256 . S
O11 Cd12 2.300 . S
O11 C18 1.275 . S
Cd12 O11 2.300 . S
Cd12 O20 2.381 . S
Cd12 O21 2.378 . S
O13 Cd14 2.385 . S
O13 C18 1.255 1_655 S
Cd14 O13 2.385 . S
Cd14 O15 2.317 . S
O15 Cd14 2.317 . S
O15 C16 1.232 . S
C16 O15 1.232 . S
C16 O17 1.218 . S
O17 C16 1.218 . S
C18 O11 1.275 . S
C18 O13 1.255 1_455 S
C19 O20 1.258 . S
C19 O21 1.256 . S
O20 Cd12 2.381 . S
O20 C19 1.258 . S
O21 Cd12 2.378 . S
O21 C19 1.256 . S
O22 Cd23 2.300 . S
O22 C29 1.275 . S
Cd23 O22 2.300 . S
Cd23 O31 2.381 . S
Cd23 O32 2.378 . S
O24 Cd25 2.385 . S
O24 C29 1.255 . S
Cd25 O24 2.385 . S
Cd25 O26 2.317 . S
O26 Cd25 2.317 . S
O26 C27 1.232 . S
C27 O26 1.232 . S
C27 O28 1.218 . S
O28 C27 1.218 . S
C29 O22 1.275 . S
C29 O24 1.255 . S
C30 O31 1.258 . S
C30 O32 1.256 . S
O31 Cd23 2.381 . S
O31 C30 1.258 . S
O32 Cd23 2.378 . S
O32 C30 1.256 . S
O33 Cd34 2.300 . S
O33 C40 1.275 . S
Cd34 O33 2.300 . S
Cd34 O42 2.381 . S
Cd34 O43 2.378 . S
O35 Cd36 2.385 . S
O35 C40 1.255 . S
Cd36 O35 2.385 . S
Cd36 O37 2.317 . S
O37 Cd36 2.317 . S
O37 C38 1.232 . S
C38 O37 1.232 . S
C38 O39 1.218 . S
O39 C38 1.218 . S
C40 O33 1.275 . S
C40 O35 1.255 . S
C41 O42 1.258 . S
C41 O43 1.256 . S
O42 Cd34 2.381 . S
O42 C41 1.258 . S
O43 Cd34 2.378 . S
O43 C41 1.256 . S
O44 Cd45 2.300 1_655 S
O44 C51 1.275 1_545 S
Cd45 O44 2.300 1_455 S
Cd45 O53 2.381 . S
Cd45 O54 2.378 . S
O46 Cd47 2.385 . S
O46 C51 1.255 1_455 S
Cd47 O46 2.385 . S
Cd47 O48 2.317 . S
O48 Cd47 2.317 . S
O48 C49 1.232 . S
C49 O48 1.232 . S
C49 O50 1.218 . S
O50 C49 1.218 . S
C51 O44 1.275 1_565 S
C51 O46 1.255 1_655 S
C52 O53 1.258 . S
C52 O54 1.256 . S
O53 Cd45 2.381 . S
O53 C52 1.258 . S
O54 Cd45 2.378 . S
O54 C52 1.256 . S
O55 Cd56 2.300 . S
O55 C62 1.275 . S
Cd56 O55 2.300 . S
Cd56 O64 2.381 . S
Cd56 O65 2.378 . S
O57 Cd58 2.385 . S
O57 C62 1.255 . S
Cd58 O57 2.385 . S
Cd58 O59 2.317 . S
O59 Cd58 2.317 . S
O59 C60 1.232 . S
C60 O59 1.232 . S
C60 O61 1.218 . S
O61 C60 1.218 . S
C62 O55 1.275 . S
C62 O57 1.255 . S
C63 O64 1.258 . S
C63 O65 1.256 . S
O64 Cd56 2.381 . S
O64 C63 1.258 . S
O65 Cd56 2.378 . S
O65 C63 1.256 . S
O66 Cd67 2.300 . S
O66 C73 1.275 . S
Cd67 O66 2.300 . S
Cd67 O75 2.381 . S
Cd67 O76 2.378 . S
O68 Cd69 2.385 . S
O68 C73 1.255 . S
Cd69 O68 2.385 . S
Cd69 O70 2.317 . S
O70 Cd69 2.317 . S
O70 C71 1.232 . S
C71 O70 1.232 . S
C71 O72 1.218 . S
O72 C71 1.218 . S
C73 O66 1.275 . S
C73 O68 1.255 . S
C74 O75 1.258 . S
C74 O76 1.256 . S
O75 Cd67 2.381 . S
O75 C74 1.258 . S
O76 Cd67 2.378 . S
O76 C74 1.256 . S
O77 Cd78 2.300 . S
O77 C84 1.275 . S
Cd78 O77 2.300 . S
Cd78 O86 2.381 . S
Cd78 O87 2.378 . S
O79 Cd80 2.385 . S
O79 C84 1.255 . S
Cd80 O79 2.385 . S
Cd80 O81 2.317 . S
O81 Cd80 2.317 . S
O81 C82 1.232 . S
C82 O81 1.232 . S
C82 O83 1.218 . S
O83 C82 1.218 . S
C84 O77 1.275 . S
C84 O79 1.255 . S
C85 O86 1.258 . S
C85 O87 1.256 . S
O86 Cd78 2.381 . S
O86 C85 1.258 . S
O87 Cd78 2.378 . S
O87 C85 1.256 . S
O88 Cd89 2.300 . S
O88 C95 1.275 . S
Cd89 O88 2.300 . S
Cd89 O97 2.381 . S
Cd89 O98 2.378 . S
O90 Cd91 2.385 . S
O90 C95 1.255 . S
Cd91 O90 2.385 . S
Cd91 O92 2.317 . S
O92 Cd91 2.317 . S
O92 C93 1.232 . S
C93 O92 1.232 . S
C93 O94 1.218 . S
O94 C93 1.218 . S
C95 O88 1.275 . S
C95 O90 1.255 . S
C96 O97 1.258 . S
C96 O98 1.256 . S
O97 Cd89 2.381 . S
O97 C96 1.258 . S
O98 Cd89 2.378 . S
O98 C96 1.256 . S
O99 Cd100 2.300 . S
O99 C106 1.275 . S
Cd100 O99 2.300 . S
Cd100 O108 2.381 . S
Cd100 O109 2.378 . S
O101 Cd102 2.385 . S
O101 C106 1.255 . S
Cd102 O101 2.385 . S
Cd102 O103 2.317 . S
O103 Cd102 2.317 . S
O103 C104 1.232 . S
C104 O103 1.232 . S
C104 O105 1.218 . S
O105 C104 1.218 . S
C106 O99 1.275 . S
C106 O101 1.255 . S
C107 O108 1.258 . S
C107 O109 1.256 . S
O108 Cd100 2.381 . S
O108 C107 1.258 . S
O109 Cd100 2.378 . S
O109 C107 1.256 . S
O110 Cd111 2.300 . S
O110 C117 1.275 1_554 S
Cd111 O110 2.300 . S
Cd111 O119 2.381 . S
Cd111 O120 2.378 . S
O112 Cd113 2.385 . S
O112 C117 1.255 . S
Cd113 O112 2.385 . S
Cd113 O114 2.317 . S
O114 Cd113 2.317 . S
O114 C115 1.232 . S
C115 O114 1.232 . S
C115 O116 1.218 . S
O116 C115 1.218 . S
C117 O110 1.275 1_556 S
C117 O112 1.255 . S
C118 O119 1.258 . S
C118 O120 1.256 . S
O119 Cd111 2.381 . S
O119 C118 1.258 . S
O120 Cd111 2.378 . S
O120 C118 1.256 . S
O121 Cd122 2.300 . S
O121 C128 1.275 . S
Cd122 O121 2.300 . S
Cd122 O130 2.381 . S
Cd122 O131 2.378 . S
O123 Cd124 2.385 . S
O123 C128 1.255 . S
Cd124 O123 2.385 . S
Cd124 O125 2.317 . S
O125 Cd124 2.317 . S
O125 C126 1.232 . S
C126 O125 1.232 . S
C126 O127 1.218 . S
O127 C126 1.218 . S
C128 O121 1.275 . S
C128 O123 1.255 . S
C129 O130 1.258 . S
C129 O131 1.256 . S
O130 Cd122 2.381 . S
O130 C129 1.258 . S
O131 Cd122 2.378 . S
O131 C129 1.256 . S
O132 Cd133 2.300 . S
O132 C139 1.275 . S
Cd133 O132 2.300 . S
Cd133 O141 2.381 . S
Cd133 O142 2.378 . S
O134 Cd135 2.385 . S
O134 C139 1.255 . S
Cd135 O134 2.385 . S
Cd135 O136 2.317 . S
O136 Cd135 2.317 . S
O136 C137 1.232 . S
C137 O136 1.232 . S
C137 O138 1.218 . S
O138 C137 1.218 . S
C139 O132 1.275 . S
C139 O134 1.255 . S
C140 O141 1.258 . S
C140 O142 1.256 . S
O141 Cd133 2.381 . S
O141 C140 1.258 . S
O142 Cd133 2.378 . S
O142 C140 1.256 . S
O143 Cd144 2.300 . S
O143 C150 1.275 1_455 S
Cd144 O143 2.300 . S
Cd144 O152 2.381 . S
Cd144 O153 2.378 . S
O145 Cd146 2.385 . S
O145 C150 1.255 . S
Cd146 O145 2.385 . S
Cd146 O147 2.317 . S
O147 Cd146 2.317 . S
O147 C148 1.232 . S
C148 O147 1.232 . S
C148 O149 1.218 . S
O149 C148 1.218 . S
C150 O143 1.275 1_655 S
C150 O145 1.255 . S
C151 O152 1.258 . S
C151 O153 1.256 . S
O152 Cd144 2.381 . S
O152 C151 1.258 . S
O153 Cd144 2.378 . S
O153 C151 1.256 . S
O154 Cd155 2.300 . S
O154 C161 1.275 . S
Cd155 O154 2.300 . S
Cd155 O163 2.381 . S
Cd155 O164 2.378 . S
O156 Cd157 2.385 . S
O156 C161 1.255 . S
Cd157 O156 2.385 . S
Cd157 O158 2.317 . S
O158 Cd157 2.317 . S
O158 C159 1.232 . S
C159 O158 1.232 . S
C159 O160 1.218 . S
O160 C159 1.218 . S
C161 O154 1.275 . S
C161 O156 1.255 . S
C162 O163 1.258 . S
C162 O164 1.256 . S
O163 Cd155 2.381 . S
O163 C162 1.258 . S
O164 Cd155 2.378 . S
O164 C162 1.256 . S
O165 Cd166 2.300 . S
O165 C172 1.275 . S
Cd166 O165 2.300 . S
Cd166 O174 2.381 . S
Cd166 O175 2.378 . S
O167 Cd168 2.385 . S
O167 C172 1.255 . S
Cd168 O167 2.385 . S
Cd168 O169 2.317 . S
O169 Cd168 2.317 . S
O169 C170 1.232 . S
C170 O169 1.232 . S
C170 O171 1.218 . S
O171 C170 1.218 . S
C172 O165 1.275 . S
C172 O167 1.255 . S
C173 O174 1.258 . S
C173 O175 1.256 . S
O174 Cd166 2.381 . S
O174 C173 1.258 . S
O175 Cd166 2.378 . S
O175 C173 1.256 . S
O176 Cd177 2.300 . S
O176 C183 1.275 . S
Cd177 O176 2.300 . S
Cd177 O185 2.381 . S
Cd177 O186 2.378 . S
O178 Cd179 2.385 . S
O178 C183 1.255 . S
Cd179 O178 2.385 . S
Cd179 O180 2.317 . S
O180 Cd179 2.317 . S
O180 C181 1.232 . S
C181 O180 1.232 . S
C181 O182 1.218 . S
O182 C181 1.218 . S
C183 O176 1.275 . S
C183 O178 1.255 . S
C184 O185 1.258 . S
C184 O186 1.256 . S
O185 Cd177 2.381 . S
O185 C184 1.258 . S
O186 Cd177 2.378 . S
O186 C184 1.256 . S
O187 Cd188 2.300 . S
O187 C194 1.275 . S
Cd188 O187 2.300 . S
Cd188 O196 2.381 . S
Cd188 O197 2.378 . S
O189 Cd190 2.385 . S
O189 C194 1.255 . S
Cd190 O189 2.385 . S
Cd190 O191 2.317 . S
O191 Cd190 2.317 . S
O191 C192 1.232 . S
C192 O191 1.232 . S
C192 O193 1.218 . S
O193 C192 1.218 . S
C194 O187 1.275 . S
C194 O189 1.255 . S
C195 O196 1.258 . S
C195 O197 1.256 . S
O196 Cd188 2.381 . S
O196 C195 1.258 . S
O197 Cd188 2.378 . S
O197 C195 1.256 . S
O198 Cd199 2.300 . S
O198 C205 1.275 . S
Cd199 O198 2.300 . S
Cd199 O207 2.381 . S
Cd199 O208 2.378 . S
O200 Cd201 2.385 . S
O200 C205 1.255 . S
Cd201 O200 2.385 . S
Cd201 O202 2.317 . S
O202 Cd201 2.317 . S
O202 C203 1.232 . S
C203 O202 1.232 . S
C203 O204 1.218 . S
O204 C203 1.218 . S
C205 O198 1.275 . S
C205 O200 1.255 . S
C206 O207 1.258 . S
C206 O208 1.256 . S
O207 Cd199 2.381 . S
O207 C206 1.258 . S
O208 Cd199 2.378 . S
O208 C206 1.256 . S
O209 Cd210 2.300 . S
O209 C216 1.275 . S
Cd210 O209 2.300 . S
Cd210 O218 2.381 . S
Cd210 O219 2.378 . S
O211 Cd212 2.385 . S
O211 C216 1.255 . S
Cd212 O211 2.385 . S
Cd212 O213 2.317 . S
O213 Cd212 2.317 . S
O213 C214 1.232 . S
C214 O213 1.232 . S
C214 O215 1.218 . S
O215 C214 1.218 . S
C216 O209 1.275 . S
C216 O211 1.255 . S
C217 O218 1.258 . S
C217 O219 1.256 . S
O218 Cd210 2.381 . S
O218 C217 1.258 . S
O219 Cd210 2.378 . S
O219 C217 1.256 . S
O220 Cd221 2.300 . S
O220 C227 1.275 1_556 S
Cd221 O220 2.300 . S
Cd221 O229 2.381 . S
Cd221 O230 2.378 . S
O222 Cd223 2.385 . S
O222 C227 1.255 . S
Cd223 O222 2.385 . S
Cd223 O224 2.317 . S
O224 Cd223 2.317 . S
O224 C225 1.232 . S
C225 O224 1.232 . S
C225 O226 1.218 . S
O226 C225 1.218 . S
C227 O220 1.275 1_554 S
C227 O222 1.255 . S
C228 O229 1.258 . S
C228 O230 1.256 . S
O229 Cd221 2.381 . S
O229 C228 1.258 . S
O230 Cd221 2.378 . S
O230 C228 1.256 . S
O231 Cd232 2.300 . S
O231 C238 1.275 . S
Cd232 O231 2.300 . S
Cd232 O240 2.381 . S
Cd232 O241 2.378 . S
O233 Cd234 2.385 . S
O233 C238 1.255 . S
Cd234 O233 2.385 . S
Cd234 O235 2.317 . S
O235 Cd234 2.317 . S
O235 C236 1.232 . S
C236 O235 1.232 . S
C236 O237 1.218 . S
O237 C236 1.218 . S
C238 O231 1.275 . S
C238 O233 1.255 . S
C239 O240 1.258 . S
C239 O241 1.256 . S
O240 Cd232 2.381 . S
O240 C239 1.258 . S
O241 Cd232 2.378 . S
O241 C239 1.256 . S
O242 Cd243 2.300 . S
O242 C249 1.275 . S
Cd243 O242 2.300 . S
Cd243 O251 2.381 . S
Cd243 O252 2.378 . S
O244 Cd245 2.385 . S
O244 C249 1.255 . S
Cd245 O244 2.385 . S
Cd245 O246 2.317 . S
O246 Cd245 2.317 . S
O246 C247 1.232 . S
C247 O246 1.232 . S
C247 O248 1.218 . S
O248 C247 1.218 . S
C249 O242 1.275 . S
C249 O244 1.255 . S
C250 O251 1.258 . S
C250 O252 1.256 . S
O251 Cd243 2.381 . S
O251 C250 1.258 . S
O252 Cd243 2.378 . S
O252 C250 1.256 . S
O253 Cd254 2.300 . S
O253 C260 1.275 1_565 S
Cd254 O253 2.300 . S
Cd254 O262 2.381 . S
Cd254 O263 2.378 . S
O255 Cd256 2.385 . S
O255 C260 1.255 . S
Cd256 O255 2.385 . S
Cd256 O257 2.317 . S
O257 Cd256 2.317 . S
O257 C258 1.232 . S
C258 O257 1.232 . S
C258 O259 1.218 . S
O259 C258 1.218 . S
C260 O253 1.275 1_545 S
C260 O255 1.255 . S
C261 O262 1.258 . S
C261 O263 1.256 . S
O262 Cd254 2.381 . S
O262 C261 1.258 . S
O263 Cd254 2.378 . S
O263 C261 1.256 . S
H264 C270 0.930 . S
H265 C273 0.930 . S
H266 C274 0.930 . S
H267 C275 0.930 . S
H268 C278 0.930 . S
H269 C279 0.930 . S
C270 H264 0.930 . S
C270 C271 1.355 . S
C270 C272 1.415 . S
C271 C270 1.355 . S
C271 C273 1.419 . S
C272 C270 1.415 . S
C272 C277 1.425 . S
C272 C279 1.409 . S
C273 H265 0.930 . S
C273 C271 1.419 . S
C273 C274 1.362 . S
C274 H266 0.930 . S
C274 C273 1.362 . S
C274 C277 1.409 . S
C275 H267 0.930 . S
C275 C276 1.355 . S
C275 C277 1.415 . S
C276 C275 1.355 . S
C276 C278 1.419 . S
C277 C272 1.425 . S
C277 C274 1.409 . S
C277 C275 1.415 . S
C278 H268 0.930 . S
C278 C276 1.419 . S
C278 C279 1.362 . S
C279 H269 0.930 . S
C279 C272 1.409 . S
C279 C278 1.362 . S
H280 C286 0.930 . S
H281 C289 0.930 . S
H282 C290 0.930 . S
H283 C291 0.930 . S
H284 C294 0.930 . S
H285 C295 0.930 . S
C286 H280 0.930 . S
C286 C287 1.355 1_455 S
C286 C288 1.415 . S
C287 C286 1.355 1_655 S
C287 C289 1.419 . S
C288 C286 1.415 . S
C288 C293 1.425 1_455 S
C288 C295 1.409 . S
C289 H281 0.930 . S
C289 C287 1.419 . S
C289 C290 1.362 . S
C290 H282 0.930 . S
C290 C289 1.362 . S
C290 C293 1.409 . S
C291 H283 0.930 . S
C291 C292 1.355 . S
C291 C293 1.415 . S
C292 C291 1.355 . S
C292 C294 1.419 1_655 S
C293 C288 1.425 1_655 S
C293 C290 1.409 . S
C293 C291 1.415 . S
C294 H284 0.930 . S
C294 C292 1.419 1_455 S
C294 C295 1.362 . S
C295 H285 0.930 . S
C295 C288 1.409 . S
C295 C294 1.362 . S
H296 C302 0.930 . S
H297 C305 0.930 . S
H298 C306 0.930 . S
H299 C307 0.930 . S
H300 C310 0.930 . S
H301 C311 0.930 . S
C302 H296 0.930 . S
C302 C303 1.355 . S
C302 C304 1.415 . S
C303 C302 1.355 . S
C303 C305 1.419 . S
C304 C302 1.415 . S
C304 C309 1.425 . S
C304 C311 1.409 . S
C305 H297 0.930 . S
C305 C303 1.419 . S
C305 C306 1.362 . S
C306 H298 0.930 . S
C306 C305 1.362 . S
C306 C309 1.409 . S
C307 H299 0.930 . S
C307 C308 1.355 . S
C307 C309 1.415 . S
C308 C307 1.355 . S
C308 C310 1.419 . S
C309 C304 1.425 . S
C309 C306 1.409 . S
C309 C307 1.415 . S
C310 H300 0.930 . S
C310 C308 1.419 . S
C310 C311 1.362 . S
C311 H301 0.930 . S
C311 C304 1.409 . S
C311 C310 1.362 . S
H312 C318 0.930 . S
H313 C321 0.930 . S
H314 C322 0.930 . S
H315 C323 0.930 . S
H316 C326 0.930 . S
H317 C327 0.930 1_556 S
C318 H312 0.930 . S
C318 C319 1.355 . S
C318 C320 1.415 . S
C319 C318 1.355 . S
C319 C321 1.419 . S
C320 C318 1.415 . S
C320 C325 1.425 1_556 S
C320 C327 1.409 1_556 S
C321 H313 0.930 . S
C321 C319 1.419 . S
C321 C322 1.362 1_556 S
C322 H314 0.930 . S
C322 C321 1.362 1_554 S
C322 C325 1.409 . S
C323 H315 0.930 . S
C323 C324 1.355 . S
C323 C325 1.415 . S
C324 C323 1.355 . S
C324 C326 1.419 . S
C325 C320 1.425 1_554 S
C325 C322 1.409 . S
C325 C323 1.415 . S
C326 H316 0.930 . S
C326 C324 1.419 . S
C326 C327 1.362 . S
C327 H317 0.930 1_554 S
C327 C320 1.409 1_554 S
C327 C326 1.362 . S
H328 C334 0.930 . S
H329 C337 0.930 . S
H330 C338 0.930 . S
H331 C339 0.930 . S
H332 C342 0.930 . S
H333 C343 0.930 . S
C334 H328 0.930 . S
C334 C335 1.355 . S
C334 C336 1.415 . S
C335 C334 1.355 . S
C335 C337 1.419 . S
C336 C334 1.415 . S
C336 C341 1.425 . S
C336 C343 1.409 . S
C337 H329 0.930 . S
C337 C335 1.419 . S
C337 C338 1.362 . S
C338 H330 0.930 . S
C338 C337 1.362 . S
C338 C341 1.409 . S
C339 H331 0.930 . S
C339 C340 1.355 . S
C339 C341 1.415 . S
C340 C339 1.355 . S
C340 C342 1.419 . S
C341 C336 1.425 . S
C341 C338 1.409 . S
C341 C339 1.415 . S
C342 H332 0.930 . S
C342 C340 1.419 . S
C342 C343 1.362 . S
C343 H333 0.930 . S
C343 C336 1.409 . S
C343 C342 1.362 . S
H344 C350 0.930 . S
H345 C353 0.930 . S
H346 C354 0.930 . S
H347 C355 0.930 . S
H348 C358 0.930 . S
H349 C359 0.930 . S
C350 H344 0.930 . S
C350 C351 1.355 . S
C350 C352 1.415 . S
C351 C350 1.355 . S
C351 C353 1.419 . S
C352 C350 1.415 . S
C352 C357 1.425 1_545 S
C352 C359 1.409 1_545 S
C353 H345 0.930 . S
C353 C351 1.419 . S
C353 C354 1.362 . S
C354 H346 0.930 . S
C354 C353 1.362 . S
C354 C357 1.409 1_545 S
C355 H347 0.930 . S
C355 C356 1.355 . S
C355 C357 1.415 . S
C356 C355 1.355 . S
C356 C358 1.419 . S
C357 C352 1.425 1_565 S
C357 C354 1.409 1_565 S
C357 C355 1.415 . S
C358 H348 0.930 . S
C358 C356 1.419 . S
C358 C359 1.362 . S
C359 H349 0.930 . S
C359 C352 1.409 1_565 S
C359 C358 1.362 . S
H360 C366 0.930 . S
H361 C369 0.930 1_554 S
H362 C370 0.930 1_554 S
H363 C371 0.930 . S
H364 C374 0.930 1_565 S
H365 C375 0.930 1_565 S
C366 H360 0.930 . S
C366 C367 1.355 . S
C366 C368 1.415 . S
C367 C366 1.355 . S
C367 C369 1.419 . S
C368 C366 1.415 . S
C368 C373 1.425 . S
C368 C375 1.409 . S
C369 H361 0.930 1_556 S
C369 C367 1.419 . S
C369 C370 1.362 . S
C370 H362 0.930 1_556 S
C370 C369 1.362 . S
C370 C373 1.409 . S
C371 H363 0.930 . S
C371 C372 1.355 . S
C371 C373 1.415 . S
C372 C371 1.355 . S
C372 C374 1.419 . S
C373 C368 1.425 . S
C373 C370 1.409 . S
C373 C371 1.415 . S
C374 H364 0.930 1_545 S
C374 C372 1.419 . S
C374 C375 1.362 . S
C375 H365 0.930 1_545 S
C375 C368 1.409 . S
C375 C374 1.362 . S
H376 C382 0.930 . S
H377 C385 0.930 . S
H378 C386 0.930 . S
H379 C387 0.930 . S
H380 C390 0.930 . S
H381 C391 0.930 . S
C382 H376 0.930 . S
C382 C383 1.355 . S
C382 C384 1.415 . S
C383 C382 1.355 . S
C383 C385 1.419 . S
C384 C382 1.415 . S
C384 C389 1.425 . S
C384 C391 1.409 . S
C385 H377 0.930 . S
C385 C383 1.419 . S
C385 C386 1.362 . S
C386 H378 0.930 . S
C386 C385 1.362 . S
C386 C389 1.409 . S
C387 H379 0.930 . S
C387 C388 1.355 . S
C387 C389 1.415 . S
C388 C387 1.355 . S
C388 C390 1.419 . S
C389 C384 1.425 . S
C389 C386 1.409 . S
C389 C387 1.415 . S
C390 H380 0.930 . S
C390 C388 1.419 . S
C390 C391 1.362 . S
C391 H381 0.930 . S
C391 C384 1.409 . S
C391 C390 1.362 . S
H392 C398 0.930 . S
H393 C401 0.930 . S
H394 C402 0.930 . S
H395 C403 0.930 . S
H396 C406 0.930 1_455 S
H397 C407 0.930 1_455 S
C398 H392 0.930 . S
C398 C399 1.355 . S
C398 C400 1.415 . S
C399 C398 1.355 . S
C399 C401 1.419 . S
C400 C398 1.415 . S
C400 C405 1.425 . S
C400 C407 1.409 . S
C401 H393 0.930 . S
C401 C399 1.419 . S
C401 C402 1.362 . S
C402 H394 0.930 . S
C402 C401 1.362 . S
C402 C405 1.409 . S
C403 H395 0.930 . S
C403 C404 1.355 . S
C403 C405 1.415 . S
C404 C403 1.355 . S
C404 C406 1.419 . S
C405 C400 1.425 . S
C405 C402 1.409 . S
C405 C403 1.415 . S
C406 H396 0.930 1_655 S
C406 C404 1.419 . S
C406 C407 1.362 . S
C407 H397 0.930 1_655 S
C407 C400 1.409 . S
C407 C406 1.362 . S
H408 C414 0.930 . S
H409 C417 0.930 . S
H410 C418 0.930 . S
H411 C419 0.930 . S
H412 C422 0.930 . S
H413 C423 0.930 . S
C414 H408 0.930 . S
C414 C415 1.355 . S
C414 C416 1.415 . S
C415 C414 1.355 . S
C415 C417 1.419 . S
C416 C414 1.415 . S
C416 C421 1.425 . S
C416 C423 1.409 . S
C417 H409 0.930 . S
C417 C415 1.419 . S
C417 C418 1.362 . S
C418 H410 0.930 . S
C418 C417 1.362 . S
C418 C421 1.409 . S
C419 H411 0.930 . S
C419 C420 1.355 . S
C419 C421 1.415 . S
C420 C419 1.355 . S
C420 C422 1.419 . S
C421 C416 1.425 . S
C421 C418 1.409 . S
C421 C419 1.415 . S
C422 H412 0.930 . S
C422 C420 1.419 . S
C422 C423 1.362 . S
C423 H413 0.930 . S
C423 C416 1.409 . S
C423 C422 1.362 . S
H424 C430 0.930 . S
H425 C433 0.930 . S
H426 C434 0.930 . S
H427 C435 0.930 . S
H428 C438 0.930 . S
H429 C439 0.930 . S
C430 H424 0.930 . S
C430 C431 1.355 . S
C430 C432 1.415 . S
C431 C430 1.355 . S
C431 C433 1.419 . S
C432 C430 1.415 . S
C432 C437 1.425 . S
C432 C439 1.409 . S
C433 H425 0.930 . S
C433 C431 1.419 . S
C433 C434 1.362 . S
C434 H426 0.930 . S
C434 C433 1.362 . S
C434 C437 1.409 . S
C435 H427 0.930 . S
C435 C436 1.355 . S
C435 C437 1.415 . S
C436 C435 1.355 . S
C436 C438 1.419 . S
C437 C432 1.425 . S
C437 C434 1.409 . S
C437 C435 1.415 . S
C438 H428 0.930 . S
C438 C436 1.419 . S
C438 C439 1.362 . S
C439 H429 0.930 . S
C439 C432 1.409 . S
C439 C438 1.362 . S
H440 C446 0.930 . S
H441 C449 0.930 . S
H442 C450 0.930 . S
H443 C451 0.930 . S
H444 C454 0.930 . S
H445 C455 0.930 . S
C446 H440 0.930 . S
C446 C447 1.355 . S
C446 C448 1.415 . S
C447 C446 1.355 . S
C447 C449 1.419 . S
C448 C446 1.415 . S
C448 C453 1.425 . S
C448 C455 1.409 . S
C449 H441 0.930 . S
C449 C447 1.419 . S
C449 C450 1.362 . S
C450 H442 0.930 . S
C450 C449 1.362 . S
C450 C453 1.409 . S
C451 H443 0.930 . S
C451 C452 1.355 . S
C451 C453 1.415 . S
C452 C451 1.355 . S
C452 C454 1.419 . S
C453 C448 1.425 . S
C453 C450 1.409 . S
C453 C451 1.415 . S
C454 H444 0.930 . S
C454 C452 1.419 . S
C454 C455 1.362 . S
C455 H445 0.930 . S
C455 C448 1.409 . S
C455 C454 1.362 . S
H456 C462 0.930 . S
H457 C465 0.930 . S
H458 C466 0.930 . S
H459 C467 0.930 . S
H460 C470 0.930 . S
H461 C471 0.930 . S
C462 H456 0.930 . S
C462 C463 1.355 . S
C462 C464 1.415 . S
C463 C462 1.355 . S
C463 C465 1.419 . S
C464 C462 1.415 . S
C464 C469 1.425 . S
C464 C471 1.409 . S
C465 H457 0.930 . S
C465 C463 1.419 . S
C465 C466 1.362 . S
C466 H458 0.930 . S
C466 C465 1.362 . S
C466 C469 1.409 . S
C467 H459 0.930 . S
C467 C468 1.355 . S
C467 C469 1.415 . S
C468 C467 1.355 . S
C468 C470 1.419 . S
C469 C464 1.425 . S
C469 C466 1.409 . S
C469 C467 1.415 . S
C470 H460 0.930 . S
C470 C468 1.419 . S
C470 C471 1.362 . S
C471 H461 0.930 . S
C471 C464 1.409 . S
C471 C470 1.362 . S
H472 C478 0.930 . S
H473 C481 0.930 . S
H474 C482 0.930 . S
H475 C483 0.930 . S
H476 C486 0.930 . S
H477 C487 0.930 . S
C478 H472 0.930 . S
C478 C479 1.355 . S
C478 C480 1.415 . S
C479 C478 1.355 . S
C479 C481 1.419 . S
C480 C478 1.415 . S
C480 C485 1.425 . S
C480 C487 1.409 . S
C481 H473 0.930 . S
C481 C479 1.419 . S
C481 C482 1.362 . S
C482 H474 0.930 . S
C482 C481 1.362 . S
C482 C485 1.409 . S
C483 H475 0.930 . S
C483 C484 1.355 . S
C483 C485 1.415 . S
C484 C483 1.355 . S
C484 C486 1.419 . S
C485 C480 1.425 . S
C485 C482 1.409 . S
C485 C483 1.415 . S
C486 H476 0.930 . S
C486 C484 1.419 . S
C486 C487 1.362 . S
C487 H477 0.930 . S
C487 C480 1.409 . S
C487 C486 1.362 . S
H488 C494 0.930 . S
H489 C497 0.930 . S
H490 C498 0.930 . S
H491 C499 0.930 . S
H492 C502 0.930 . S
H493 C503 0.930 . S
C494 H488 0.930 . S
C494 C495 1.355 . S
C494 C496 1.415 . S
C495 C494 1.355 . S
C495 C497 1.419 . S
C496 C494 1.415 . S
C496 C501 1.425 . S
C496 C503 1.409 . S
C497 H489 0.930 . S
C497 C495 1.419 . S
C497 C498 1.362 . S
C498 H490 0.930 . S
C498 C497 1.362 . S
C498 C501 1.409 . S
C499 H491 0.930 . S
C499 C500 1.355 . S
C499 C501 1.415 . S
C500 C499 1.355 . S
C500 C502 1.419 . S
C501 C496 1.425 . S
C501 C498 1.409 . S
C501 C499 1.415 . S
C502 H492 0.930 . S
C502 C500 1.419 . S
C502 C503 1.362 . S
C503 H493 0.930 . S
C503 C496 1.409 . S
C503 C502 1.362 . S
H504 C510 0.930 . S
H505 C513 0.930 . S
H506 C514 0.930 . S
H507 C515 0.930 . S
H508 C518 0.930 . S
H509 C519 0.930 . S
C510 H504 0.930 . S
C510 C511 1.355 . S
C510 C512 1.415 . S
C511 C510 1.355 . S
C511 C513 1.419 . S
C512 C510 1.415 . S
C512 C517 1.425 . S
C512 C519 1.409 . S
C513 H505 0.930 . S
C513 C511 1.419 . S
C513 C514 1.362 . S
C514 H506 0.930 . S
C514 C513 1.362 . S
C514 C517 1.409 . S
C515 H507 0.930 . S
C515 C516 1.355 . S
C515 C517 1.415 . S
C516 C515 1.355 . S
C516 C518 1.419 . S
C517 C512 1.425 . S
C517 C514 1.409 . S
C517 C515 1.415 . S
C518 H508 0.930 . S
C518 C516 1.419 . S
C518 C519 1.362 . S
C519 H509 0.930 . S
C519 C512 1.409 . S
C519 C518 1.362 . S
H520 C526 0.930 1_655 S
H521 C529 0.930 . S
H522 C530 0.930 . S
H523 C531 0.930 . S
H524 C534 0.930 . S
H525 C535 0.930 1_655 S
C526 H520 0.930 1_455 S
C526 C527 1.355 . S
C526 C528 1.415 . S
C527 C526 1.355 . S
C527 C529 1.419 . S
C528 C526 1.415 . S
C528 C533 1.425 . S
C528 C535 1.409 . S
C529 H521 0.930 . S
C529 C527 1.419 . S
C529 C530 1.362 . S
C530 H522 0.930 . S
C530 C529 1.362 . S
C530 C533 1.409 . S
C531 H523 0.930 . S
C531 C532 1.355 . S
C531 C533 1.415 . S
C532 C531 1.355 . S
C532 C534 1.419 . S
C533 C528 1.425 . S
C533 C530 1.409 . S
C533 C531 1.415 . S
C534 H524 0.930 . S
C534 C532 1.419 . S
C534 C535 1.362 . S
C535 H525 0.930 1_455 S
C535 C528 1.409 . S
C535 C534 1.362 . S
H536 C542 0.930 . S
H537 C545 0.930 . S
H538 C546 0.930 . S
H539 C547 0.930 . S
H540 C550 0.930 . S
H541 C551 0.930 . S
C542 H536 0.930 . S
C542 C543 1.355 . S
C542 C544 1.415 . S
C543 C542 1.355 . S
C543 C545 1.419 . S
C544 C542 1.415 . S
C544 C549 1.425 . S
C544 C551 1.409 . S
C545 H537 0.930 . S
C545 C543 1.419 . S
C545 C546 1.362 . S
C546 H538 0.930 . S
C546 C545 1.362 . S
C546 C549 1.409 . S
C547 H539 0.930 . S
C547 C548 1.355 . S
C547 C549 1.415 . S
C548 C547 1.355 . S
C548 C550 1.419 . S
C549 C544 1.425 . S
C549 C546 1.409 . S
C549 C547 1.415 . S
C550 H540 0.930 . S
C550 C548 1.419 . S
C550 C551 1.362 . S
C551 H541 0.930 . S
C551 C544 1.409 . S
C551 C550 1.362 . S
H552 C558 0.930 . S
H553 C561 0.930 . S
H554 C562 0.930 . S
H555 C563 0.930 . S
H556 C566 0.930 . S
H557 C567 0.930 . S
C558 H552 0.930 . S
C558 C559 1.355 . S
C558 C560 1.415 . S
C559 C558 1.355 . S
C559 C561 1.419 . S
C560 C558 1.415 . S
C560 C565 1.425 . S
C560 C567 1.409 . S
C561 H553 0.930 . S
C561 C559 1.419 . S
C561 C562 1.362 . S
C562 H554 0.930 . S
C562 C561 1.362 . S
C562 C565 1.409 . S
C563 H555 0.930 . S
C563 C564 1.355 . S
C563 C565 1.415 . S
C564 C563 1.355 . S
C564 C566 1.419 . S
C565 C560 1.425 . S
C565 C562 1.409 . S
C565 C563 1.415 . S
C566 H556 0.930 . S
C566 C564 1.419 . S
C566 C567 1.362 . S
C567 H557 0.930 . S
C567 C560 1.409 . S
C567 C566 1.362 . S
H568 C574 0.930 . S
H569 C577 0.930 . S
H570 C578 0.930 . S
H571 C579 0.930 . S
H572 C582 0.930 . S
H573 C583 0.930 . S
C574 H568 0.930 . S
C574 C575 1.355 . S
C574 C576 1.415 . S
C575 C574 1.355 . S
C575 C577 1.419 . S
C576 C574 1.415 . S
C576 C581 1.425 . S
C576 C583 1.409 . S
C577 H569 0.930 . S
C577 C575 1.419 . S
C577 C578 1.362 . S
C578 H570 0.930 . S
C578 C577 1.362 . S
C578 C581 1.409 . S
C579 H571 0.930 . S
C579 C580 1.355 . S
C579 C581 1.415 . S
C580 C579 1.355 . S
C580 C582 1.419 . S
C581 C576 1.425 . S
C581 C578 1.409 . S
C581 C579 1.415 . S
C582 H572 0.930 . S
C582 C580 1.419 . S
C582 C583 1.362 . S
C583 H573 0.930 . S
C583 C576 1.409 . S
C583 C582 1.362 . S
H584 C590 0.930 . S
H585 C593 0.930 . S
H586 C594 0.930 . S
H587 C595 0.930 . S
H588 C598 0.930 . S
H589 C599 0.930 . S
C590 H584 0.930 . S
C590 C591 1.355 . S
C590 C592 1.415 . S
C591 C590 1.355 . S
C591 C593 1.419 . S
C592 C590 1.415 . S
C592 C597 1.425 . S
C592 C599 1.409 . S
C593 H585 0.930 . S
C593 C591 1.419 . S
C593 C594 1.362 . S
C594 H586 0.930 . S
C594 C593 1.362 . S
C594 C597 1.409 . S
C595 H587 0.930 . S
C595 C596 1.355 . S
C595 C597 1.415 . S
C596 C595 1.355 . S
C596 C598 1.419 . S
C597 C592 1.425 . S
C597 C594 1.409 . S
C597 C595 1.415 . S
C598 H588 0.930 . S
C598 C596 1.419 . S
C598 C599 1.362 . S
C599 H589 0.930 . S
C599 C592 1.409 . S
C599 C598 1.362 . S
H600 C606 0.930 . S
H601 C609 0.930 . S
H602 C610 0.930 . S
H603 C611 0.930 . S
H604 C614 0.930 . S
H605 C615 0.930 . S
C606 H600 0.930 . S
C606 C607 1.355 . S
C606 C608 1.415 . S
C607 C606 1.355 . S
C607 C609 1.419 . S
C608 C606 1.415 . S
C608 C613 1.425 . S
C608 C615 1.409 . S
C609 H601 0.930 . S
C609 C607 1.419 . S
C609 C610 1.362 . S
C610 H602 0.930 . S
C610 C609 1.362 . S
C610 C613 1.409 . S
C611 H603 0.930 . S
C611 C612 1.355 . S
C611 C613 1.415 . S
C612 C611 1.355 . S
C612 C614 1.419 . S
C613 C608 1.425 . S
C613 C610 1.409 . S
C613 C611 1.415 . S
C614 H604 0.930 . S
C614 C612 1.419 . S
C614 C615 1.362 . S
C615 H605 0.930 . S
C615 C608 1.409 . S
C615 C614 1.362 . S
H616 C622 0.930 . S
H617 C625 0.930 . S
H618 C626 0.930 . S
H619 C627 0.930 . S
H620 C630 0.930 . S
H621 C631 0.930 . S
C622 H616 0.930 . S
C622 C623 1.355 . S
C622 C624 1.415 . S
C623 C622 1.355 . S
C623 C625 1.419 . S
C624 C622 1.415 . S
C624 C629 1.425 . S
C624 C631 1.409 . S
C625 H617 0.930 . S
C625 C623 1.419 . S
C625 C626 1.362 . S
C626 H618 0.930 . S
C626 C625 1.362 . S
C626 C629 1.409 . S
C627 H619 0.930 . S
C627 C628 1.355 . S
C627 C629 1.415 . S
C628 C627 1.355 . S
C628 C630 1.419 . S
C629 C624 1.425 . S
C629 C626 1.409 . S
C629 C627 1.415 . S
C630 H620 0.930 . S
C630 C628 1.419 . S
C630 C631 1.362 . S
C631 H621 0.930 . S
C631 C624 1.409 . S
C631 C630 1.362 . S
H632 C638 0.930 . S
H633 C641 0.930 . S
H634 C642 0.930 . S
H635 C643 0.930 . S
H636 C646 0.930 . S
H637 C647 0.930 . S
C638 H632 0.930 . S
C638 C639 1.355 . S
C638 C640 1.415 . S
C639 C638 1.355 . S
C639 C641 1.419 . S
C640 C638 1.415 . S
C640 C645 1.425 . S
C640 C647 1.409 . S
C641 H633 0.930 . S
C641 C639 1.419 . S
C641 C642 1.362 . S
C642 H634 0.930 . S
C642 C641 1.362 . S
C642 C645 1.409 . S
C643 H635 0.930 . S
C643 C644 1.355 . S
C643 C645 1.415 . S
C644 C643 1.355 . S
C644 C646 1.419 . S
C645 C640 1.425 . S
C645 C642 1.409 . S
C645 C643 1.415 . S
C646 H636 0.930 . S
C646 C644 1.419 . S
C646 C647 1.362 . S
C647 H637 0.930 . S
C647 C640 1.409 . S
C647 C646 1.362 . S
H648 C654 0.930 . S
H649 C657 0.930 . S
H650 C658 0.930 . S
H651 C659 0.930 . S
H652 C662 0.930 . S
H653 C663 0.930 . S
C654 H648 0.930 . S
C654 C655 1.355 . S
C654 C656 1.415 . S
C655 C654 1.355 . S
C655 C657 1.419 . S
C656 C654 1.415 . S
C656 C661 1.425 . S
C656 C663 1.409 . S
C657 H649 0.930 . S
C657 C655 1.419 . S
C657 C658 1.362 . S
C658 H650 0.930 . S
C658 C657 1.362 . S
C658 C661 1.409 . S
C659 H651 0.930 . S
C659 C660 1.355 . S
C659 C661 1.415 . S
C660 C659 1.355 . S
C660 C662 1.419 . S
C661 C656 1.425 . S
C661 C658 1.409 . S
C661 C659 1.415 . S
C662 H652 0.930 . S
C662 C660 1.419 . S
C662 C663 1.362 . S
C663 H653 0.930 . S
C663 C656 1.409 . S
C663 C662 1.362 . S
H664 C670 0.930 . S
H665 C673 0.930 . S
H666 C674 0.930 . S
H667 C675 0.930 . S
H668 C678 0.930 . S
H669 C679 0.930 . S
C670 H664 0.930 . S
C670 C671 1.355 . S
C670 C672 1.415 . S
C671 C670 1.355 . S
C671 C673 1.419 . S
C672 C670 1.415 . S
C672 C677 1.425 . S
C672 C679 1.409 . S
C673 H665 0.930 . S
C673 C671 1.419 . S
C673 C674 1.362 . S
C674 H666 0.930 . S
C674 C673 1.362 . S
C674 C677 1.409 . S
C675 H667 0.930 . S
C675 C676 1.355 . S
C675 C677 1.415 . S
C676 C675 1.355 . S
C676 C678 1.419 . S
C677 C672 1.425 . S
C677 C674 1.409 . S
C677 C675 1.415 . S
C678 H668 0.930 . S
C678 C676 1.419 . S
C678 C679 1.362 . S
C679 H669 0.930 . S
C679 C672 1.409 . S
C679 C678 1.362 . S
H680 C686 0.930 . S
H681 C689 0.930 . S
H682 C690 0.930 . S
H683 C691 0.930 . S
H684 C694 0.930 . S
H685 C695 0.930 . S
C686 H680 0.930 . S
C686 C687 1.355 . S
C686 C688 1.415 . S
C687 C686 1.355 . S
C687 C689 1.419 . S
C688 C686 1.415 . S
C688 C693 1.425 . S
C688 C695 1.409 . S
C689 H681 0.930 . S
C689 C687 1.419 . S
C689 C690 1.362 . S
C690 H682 0.930 . S
C690 C689 1.362 . S
C690 C693 1.409 . S
C691 H683 0.930 . S
C691 C692 1.355 . S
C691 C693 1.415 . S
C692 C691 1.355 . S
C692 C694 1.419 . S
C693 C688 1.425 . S
C693 C690 1.409 . S
C693 C691 1.415 . S
C694 H684 0.930 . S
C694 C692 1.419 . S
C694 C695 1.362 . S
C695 H685 0.930 . S
C695 C688 1.409 . S
C695 C694 1.362 . S
H696 C702 0.930 . S
H697 C705 0.930 . S
H698 C706 0.930 . S
H699 C707 0.930 . S
H700 C710 0.930 . S
H701 C711 0.930 . S
C702 H696 0.930 . S
C702 C703 1.355 . S
C702 C704 1.415 . S
C703 C702 1.355 . S
C703 C705 1.419 . S
C704 C702 1.415 . S
C704 C709 1.425 . S
C704 C711 1.409 . S
C705 H697 0.930 . S
C705 C703 1.419 . S
C705 C706 1.362 . S
C706 H698 0.930 . S
C706 C705 1.362 . S
C706 C709 1.409 . S
C707 H699 0.930 . S
C707 C708 1.355 . S
C707 C709 1.415 . S
C708 C707 1.355 . S
C708 C710 1.419 . S
C709 C704 1.425 . S
C709 C706 1.409 . S
C709 C707 1.415 . S
C710 H700 0.930 . S
C710 C708 1.419 . S
C710 C711 1.362 . S
C711 H701 0.930 . S
C711 C704 1.409 . S
C711 C710 1.362 . S
H712 C718 0.930 . S
H713 C721 0.930 . S
H714 C722 0.930 . S
H715 C723 0.930 . S
H716 C726 0.930 . S
H717 C727 0.930 . S
C718 H712 0.930 . S
C718 C719 1.355 . S
C718 C720 1.415 . S
C719 C718 1.355 . S
C719 C721 1.419 . S
C720 C718 1.415 . S
C720 C725 1.425 . S
C720 C727 1.409 . S
C721 H713 0.930 . S
C721 C719 1.419 . S
C721 C722 1.362 . S
C722 H714 0.930 . S
C722 C721 1.362 . S
C722 C725 1.409 . S
C723 H715 0.930 . S
C723 C724 1.355 . S
C723 C725 1.415 . S
C724 C723 1.355 . S
C724 C726 1.419 . S
C725 C720 1.425 . S
C725 C722 1.409 . S
C725 C723 1.415 . S
C726 H716 0.930 . S
C726 C724 1.419 . S
C726 C727 1.362 . S
C727 H717 0.930 . S
C727 C720 1.409 . S
C727 C726 1.362 . S
H728 C734 0.930 . S
H729 C737 0.930 . S
H730 C738 0.930 . S
H731 C739 0.930 . S
H732 C742 0.930 . S
H733 C743 0.930 . S
C734 H728 0.930 . S
C734 C735 1.355 . S
C734 C736 1.415 . S
C735 C734 1.355 . S
C735 C737 1.419 . S
C736 C734 1.415 . S
C736 C741 1.425 . S
C736 C743 1.409 . S
C737 H729 0.930 . S
C737 C735 1.419 . S
C737 C738 1.362 . S
C738 H730 0.930 . S
C738 C737 1.362 . S
C738 C741 1.409 . S
C739 H731 0.930 . S
C739 C740 1.355 . S
C739 C741 1.415 . S
C740 C739 1.355 . S
C740 C742 1.419 . S
C741 C736 1.425 . S
C741 C738 1.409 . S
C741 C739 1.415 . S
C742 H732 0.930 . S
C742 C740 1.419 . S
C742 C743 1.362 . S
C743 H733 0.930 . S
C743 C736 1.409 . S
C743 C742 1.362 . S
H744 C750 0.930 . S
H745 C753 0.930 . S
H746 C754 0.930 . S
H747 C755 0.930 . S
H748 C758 0.930 . S
H749 C759 0.930 . S
C750 H744 0.930 . S
C750 C751 1.355 . S
C750 C752 1.415 . S
C751 C750 1.355 . S
C751 C753 1.419 . S
C752 C750 1.415 . S
C752 C757 1.425 . S
C752 C759 1.409 . S
C753 H745 0.930 . S
C753 C751 1.419 . S
C753 C754 1.362 . S
C754 H746 0.930 . S
C754 C753 1.362 . S
C754 C757 1.409 . S
C755 H747 0.930 . S
C755 C756 1.355 . S
C755 C757 1.415 . S
C756 C755 1.355 . S
C756 C758 1.419 . S
C757 C752 1.425 . S
C757 C754 1.409 . S
C757 C755 1.415 . S
C758 H748 0.930 . S
C758 C756 1.419 . S
C758 C759 1.362 . S
C759 H749 0.930 . S
C759 C752 1.409 . S
C759 C758 1.362 . S
H760 C766 0.930 . S
H761 C769 0.930 . S
H762 C770 0.930 . S
H763 C771 0.930 . S
H764 C774 0.930 . S
H765 C775 0.930 . S
C766 H760 0.930 . S
C766 C767 1.355 . S
C766 C768 1.415 . S
C767 C766 1.355 . S
C767 C769 1.419 . S
C768 C766 1.415 . S
C768 C773 1.425 . S
C768 C775 1.409 . S
C769 H761 0.930 . S
C769 C767 1.419 . S
C769 C770 1.362 . S
C770 H762 0.930 . S
C770 C769 1.362 . S
C770 C773 1.409 . S
C771 H763 0.930 . S
C771 C772 1.355 . S
C771 C773 1.415 . S
C772 C771 1.355 . S
C772 C774 1.419 . S
C773 C768 1.425 . S
C773 C770 1.409 . S
C773 C771 1.415 . S
C774 H764 0.930 . S
C774 C772 1.419 . S
C774 C775 1.362 . S
C775 H765 0.930 . S
C775 C768 1.409 . S
C775 C774 1.362 . S
H776 C782 0.930 . S
H777 C785 0.930 . S
H778 C786 0.930 . S
H779 C787 0.930 . S
H780 C790 0.930 . S
H781 C791 0.930 . S
C782 H776 0.930 . S
C782 C783 1.355 . S
C782 C784 1.415 . S
C783 C782 1.355 . S
C783 C785 1.419 . S
C784 C782 1.415 . S
C784 C789 1.425 . S
C784 C791 1.409 . S
C785 H777 0.930 . S
C785 C783 1.419 . S
C785 C786 1.362 . S
C786 H778 0.930 . S
C786 C785 1.362 . S
C786 C789 1.409 . S
C787 H779 0.930 . S
C787 C788 1.355 . S
C787 C789 1.415 . S
C788 C787 1.355 . S
C788 C790 1.419 . S
C789 C784 1.425 . S
C789 C786 1.409 . S
C789 C787 1.415 . S
C790 H780 0.930 . S
C790 C788 1.419 . S
C790 C791 1.362 . S
C791 H781 0.930 . S
C791 C784 1.409 . S
C791 C790 1.362 . S
H792 C798 0.930 . S
H793 C801 0.930 . S
H794 C802 0.930 . S
H795 C803 0.930 . S
H796 C806 0.930 . S
H797 C807 0.930 . S
C798 H792 0.930 . S
C798 C799 1.355 . S
C798 C800 1.415 . S
C799 C798 1.355 . S
C799 C801 1.419 . S
C800 C798 1.415 . S
C800 C805 1.425 . S
C800 C807 1.409 . S
C801 H793 0.930 . S
C801 C799 1.419 . S
C801 C802 1.362 . S
C802 H794 0.930 . S
C802 C801 1.362 . S
C802 C805 1.409 . S
C803 H795 0.930 . S
C803 C804 1.355 . S
C803 C805 1.415 . S
C804 C803 1.355 . S
C804 C806 1.419 . S
C805 C800 1.425 . S
C805 C802 1.409 . S
C805 C803 1.415 . S
C806 H796 0.930 . S
C806 C804 1.419 . S
C806 C807 1.362 . S
C807 H797 0.930 . S
C807 C800 1.409 . S
C807 C806 1.362 . S
H808 C814 0.930 . S
H809 C817 0.930 . S
H810 C818 0.930 . S
H811 C819 0.930 . S
H812 C822 0.930 . S
H813 C823 0.930 . S
C814 H808 0.930 . S
C814 C815 1.355 . S
C814 C816 1.415 . S
C815 C814 1.355 . S
C815 C817 1.419 . S
C816 C814 1.415 . S
C816 C821 1.425 . S
C816 C823 1.409 . S
C817 H809 0.930 . S
C817 C815 1.419 . S
C817 C818 1.362 . S
C818 H810 0.930 . S
C818 C817 1.362 . S
C818 C821 1.409 . S
C819 H811 0.930 . S
C819 C820 1.355 . S
C819 C821 1.415 . S
C820 C819 1.355 . S
C820 C822 1.419 . S
C821 C816 1.425 . S
C821 C818 1.409 . S
C821 C819 1.415 . S
C822 H812 0.930 . S
C822 C820 1.419 . S
C822 C823 1.362 . S
C823 H813 0.930 . S
C823 C816 1.409 . S
C823 C822 1.362 . S
H824 C830 0.930 . S
H825 C833 0.930 . S
H826 C834 0.930 . S
H827 C835 0.930 . S
H828 C838 0.930 . S
H829 C839 0.930 . S
C830 H824 0.930 . S
C830 C831 1.355 . S
C830 C832 1.415 . S
C831 C830 1.355 . S
C831 C833 1.419 . S
C832 C830 1.415 . S
C832 C837 1.425 . S
C832 C839 1.409 . S
C833 H825 0.930 . S
C833 C831 1.419 . S
C833 C834 1.362 . S
C834 H826 0.930 . S
C834 C833 1.362 . S
C834 C837 1.409 . S
C835 H827 0.930 . S
C835 C836 1.355 . S
C835 C837 1.415 . S
C836 C835 1.355 . S
C836 C838 1.419 . S
C837 C832 1.425 . S
C837 C834 1.409 . S
C837 C835 1.415 . S
C838 H828 0.930 . S
C838 C836 1.419 . S
C838 C839 1.362 . S
C839 H829 0.930 . S
C839 C832 1.409 . S
C839 C838 1.362 . S
C271 C84 1.453 . S
C276 C7 1.599 . S
C287 C51 1.342 . S
C292 C18 1.385 1_655 S
C303 C29 1.261 . S
C308 C62 1.391 . S
C319 C73 1.458 . S
C324 C40 1.302 . S
C335 C183 1.345 . S
C340 C95 1.433 . S
C351 C106 1.350 . S
C356 C194 1.342 . S
C367 C117 1.161 . S
C372 C260 1.165 . S
C383 C128 1.316 . S
C388 C139 1.266 . S
C399 C227 1.289 . S
C404 C150 1.315 . S
C415 C161 1.533 1_655 S
C420 C238 1.519 . S
C431 C249 1.481 . S
C436 C172 1.460 . S
C447 C216 1.340 . S
C452 C205 1.533 . S
C463 C162 1.758 . S
C468 C5 1.610 . S
C479 C173 1.679 . S
C484 C16 1.504 . S
C495 C30 1.493 . S
C500 C206 1.529 . S
C511 C148 1.307 . S
C516 C41 1.518 . S
C527 C49 1.261 . S
C532 C159 1.586 . S
C543 C170 1.482 . S
C548 C63 1.674 . S
C559 C74 1.451 . S
C564 C203 1.224 . S
C575 C82 1.268 . S
C580 C151 1.700 . S
C591 C107 1.492 . S
C596 C93 1.284 . S
C607 C104 1.304 . S
C612 C115 1.176 . S
C623 C118 1.594 . S
C628 C126 1.307 . S
C639 C129 1.514 . S
C644 C96 1.517 . S
C655 C140 1.701 . S
C660 C38 1.306 . S
C671 C181 1.526 . S
C676 C52 1.845 . S
C687 C19 1.478 . S
C692 C192 1.278 . S
C703 C261 1.651 . S
C708 C27 1.322 . S
C719 C184 1.742 . S
C724 C8 1.823 . S
C735 C71 1.325 . S
C740 C258 1.128 . S
C751 C85 1.730 . S
C756 C137 1.499 . S
C767 C195 1.614 . S
C772 C60 1.385 . S
C783 C214 1.547 . S
C788 C228 1.905 . S
C799 C236 1.520 . S
C804 C225 1.353 . S
C815 C239 1.743 . S
C820 C247 1.577 . S
C831 C217 1.818 . S
C836 C250 1.873 . S
