# Generated by pormake.
# Topology ict, (4)-cn, num edge types: 1
# Building blocks:
#     Node 0, Type 0, BuildingBlock: QUQFOY_clean_sbu_1, # of connection points: 4
#     Node 1, Type 0, BuildingBlock: QUQFOY_clean_sbu_1, # of connection points: 4
#     Node 2, Type 0, BuildingBlock: QUQFOY_clean_sbu_1, # of connection points: 4
#     Node 3, Type 0, BuildingBlock: QUQFOY_clean_sbu_1, # of connection points: 4
#     Node 4, Type 0, BuildingBlock: QUQFOY_clean_sbu_1, # of connection points: 4
#     Node 5, Type 0, BuildingBlock: QUQFOY_clean_sbu_1, # of connection points: 4
#     Node 6, Type 0, BuildingBlock: QUQFOY_clean_sbu_1, # of connection points: 4
#     Node 7, Type 0, BuildingBlock: QUQFOY_clean_sbu_1, # of connection points: 4
#     Node 8, Type 0, BuildingBlock: QUQFOY_clean_sbu_1, # of connection points: 4
#     Node 9, Type 0, BuildingBlock: QUQFOY_clean_sbu_1, # of connection points: 4
#     Node 10, Type 0, BuildingBlock: QUQFOY_clean_sbu_1, # of connection points: 4
#     Node 11, Type 0, BuildingBlock: QUQFOY_clean_sbu_1, # of connection points: 4
#     Node 12, Type 0, BuildingBlock: QUQFOY_clean_sbu_1, # of connection points: 4
#     Node 13, Type 0, BuildingBlock: QUQFOY_clean_sbu_1, # of connection points: 4
#     Node 14, Type 0, BuildingBlock: QUQFOY_clean_sbu_1, # of connection points: 4
#     Node 15, Type 0, BuildingBlock: QUQFOY_clean_sbu_1, # of connection points: 4
#     Node 16, Type 0, BuildingBlock: QUQFOY_clean_sbu_1, # of connection points: 4
#     Node 17, Type 0, BuildingBlock: QUQFOY_clean_sbu_1, # of connection points: 4
#     Node 18, Type 0, BuildingBlock: QUQFOY_clean_sbu_1, # of connection points: 4
#     Node 19, Type 0, BuildingBlock: QUQFOY_clean_sbu_1, # of connection points: 4
#     Node 20, Type 0, BuildingBlock: QUQFOY_clean_sbu_1, # of connection points: 4
#     Node 21, Type 0, BuildingBlock: QUQFOY_clean_sbu_1, # of connection points: 4
#     Node 22, Type 0, BuildingBlock: QUQFOY_clean_sbu_1, # of connection points: 4
#     Node 23, Type 0, BuildingBlock: QUQFOY_clean_sbu_1, # of connection points: 4
#     Node 24, Type 0, BuildingBlock: QUQFOY_clean_sbu_1, # of connection points: 4
#     Node 25, Type 0, BuildingBlock: QUQFOY_clean_sbu_1, # of connection points: 4
#     Node 26, Type 0, BuildingBlock: QUQFOY_clean_sbu_1, # of connection points: 4
#     Node 27, Type 0, BuildingBlock: QUQFOY_clean_sbu_1, # of connection points: 4
#     Node 28, Type 0, BuildingBlock: QUQFOY_clean_sbu_1, # of connection points: 4
#     Node 29, Type 0, BuildingBlock: QUQFOY_clean_sbu_1, # of connection points: 4
#     Node 30, Type 0, BuildingBlock: QUQFOY_clean_sbu_1, # of connection points: 4
#     Node 31, Type 0, BuildingBlock: QUQFOY_clean_sbu_1, # of connection points: 4
#     Node 32, Type 0, BuildingBlock: QUQFOY_clean_sbu_1, # of connection points: 4
#     Node 33, Type 0, BuildingBlock: QUQFOY_clean_sbu_1, # of connection points: 4
#     Node 34, Type 0, BuildingBlock: QUQFOY_clean_sbu_1, # of connection points: 4
#     Node 35, Type 0, BuildingBlock: QUQFOY_clean_sbu_1, # of connection points: 4
#     Edge 36, Type (0, 0), BuildingBlock: UVAHIK_clean_linker_0, # of connection points: 2
#     Edge 37, Type (0, 0), BuildingBlock: UVAHIK_clean_linker_0, # of connection points: 2
#     Edge 38, Type (0, 0), BuildingBlock: UVAHIK_clean_linker_0, # of connection points: 2
#     Edge 39, Type (0, 0), BuildingBlock: UVAHIK_clean_linker_0, # of connection points: 2
#     Edge 40, Type (0, 0), BuildingBlock: UVAHIK_clean_linker_0, # of connection points: 2
#     Edge 41, Type (0, 0), BuildingBlock: UVAHIK_clean_linker_0, # of connection points: 2
#     Edge 42, Type (0, 0), BuildingBlock: UVAHIK_clean_linker_0, # of connection points: 2
#     Edge 43, Type (0, 0), BuildingBlock: UVAHIK_clean_linker_0, # of connection points: 2
#     Edge 44, Type (0, 0), BuildingBlock: UVAHIK_clean_linker_0, # of connection points: 2
#     Edge 45, Type (0, 0), BuildingBlock: UVAHIK_clean_linker_0, # of connection points: 2
#     Edge 46, Type (0, 0), BuildingBlock: UVAHIK_clean_linker_0, # of connection points: 2
#     Edge 47, Type (0, 0), BuildingBlock: UVAHIK_clean_linker_0, # of connection points: 2
#     Edge 48, Type (0, 0), BuildingBlock: UVAHIK_clean_linker_0, # of connection points: 2
#     Edge 49, Type (0, 0), BuildingBlock: UVAHIK_clean_linker_0, # of connection points: 2
#     Edge 50, Type (0, 0), BuildingBlock: UVAHIK_clean_linker_0, # of connection points: 2
#     Edge 51, Type (0, 0), BuildingBlock: UVAHIK_clean_linker_0, # of connection points: 2
#     Edge 52, Type (0, 0), BuildingBlock: UVAHIK_clean_linker_0, # of connection points: 2
#     Edge 53, Type (0, 0), BuildingBlock: UVAHIK_clean_linker_0, # of connection points: 2
#     Edge 54, Type (0, 0), BuildingBlock: UVAHIK_clean_linker_0, # of connection points: 2
#     Edge 55, Type (0, 0), BuildingBlock: UVAHIK_clean_linker_0, # of connection points: 2
#     Edge 56, Type (0, 0), BuildingBlock: UVAHIK_clean_linker_0, # of connection points: 2
#     Edge 57, Type (0, 0), BuildingBlock: UVAHIK_clean_linker_0, # of connection points: 2
#     Edge 58, Type (0, 0), BuildingBlock: UVAHIK_clean_linker_0, # of connection points: 2
#     Edge 59, Type (0, 0), BuildingBlock: UVAHIK_clean_linker_0, # of connection points: 2
#     Edge 60, Type (0, 0), BuildingBlock: UVAHIK_clean_linker_0, # of connection points: 2
#     Edge 61, Type (0, 0), BuildingBlock: UVAHIK_clean_linker_0, # of connection points: 2
#     Edge 62, Type (0, 0), BuildingBlock: UVAHIK_clean_linker_0, # of connection points: 2
#     Edge 63, Type (0, 0), BuildingBlock: UVAHIK_clean_linker_0, # of connection points: 2
#     Edge 64, Type (0, 0), BuildingBlock: UVAHIK_clean_linker_0, # of connection points: 2
#     Edge 65, Type (0, 0), BuildingBlock: UVAHIK_clean_linker_0, # of connection points: 2
#     Edge 66, Type (0, 0), BuildingBlock: UVAHIK_clean_linker_0, # of connection points: 2
#     Edge 67, Type (0, 0), BuildingBlock: UVAHIK_clean_linker_0, # of connection points: 2
#     Edge 68, Type (0, 0), BuildingBlock: UVAHIK_clean_linker_0, # of connection points: 2
#     Edge 69, Type (0, 0), BuildingBlock: UVAHIK_clean_linker_0, # of connection points: 2
#     Edge 70, Type (0, 0), BuildingBlock: UVAHIK_clean_linker_0, # of connection points: 2
#     Edge 71, Type (0, 0), BuildingBlock: UVAHIK_clean_linker_0, # of connection points: 2
#     Edge 72, Type (0, 0), BuildingBlock: UVAHIK_clean_linker_0, # of connection points: 2
#     Edge 73, Type (0, 0), BuildingBlock: UVAHIK_clean_linker_0, # of connection points: 2
#     Edge 74, Type (0, 0), BuildingBlock: UVAHIK_clean_linker_0, # of connection points: 2
#     Edge 75, Type (0, 0), BuildingBlock: UVAHIK_clean_linker_0, # of connection points: 2
#     Edge 76, Type (0, 0), BuildingBlock: UVAHIK_clean_linker_0, # of connection points: 2
#     Edge 77, Type (0, 0), BuildingBlock: UVAHIK_clean_linker_0, # of connection points: 2
#     Edge 78, Type (0, 0), BuildingBlock: UVAHIK_clean_linker_0, # of connection points: 2
#     Edge 79, Type (0, 0), BuildingBlock: UVAHIK_clean_linker_0, # of connection points: 2
#     Edge 80, Type (0, 0), BuildingBlock: UVAHIK_clean_linker_0, # of connection points: 2
#     Edge 81, Type (0, 0), BuildingBlock: UVAHIK_clean_linker_0, # of connection points: 2
#     Edge 82, Type (0, 0), BuildingBlock: UVAHIK_clean_linker_0, # of connection points: 2
#     Edge 83, Type (0, 0), BuildingBlock: UVAHIK_clean_linker_0, # of connection points: 2
#     Edge 84, Type (0, 0), BuildingBlock: UVAHIK_clean_linker_0, # of connection points: 2
#     Edge 85, Type (0, 0), BuildingBlock: UVAHIK_clean_linker_0, # of connection points: 2
#     Edge 86, Type (0, 0), BuildingBlock: UVAHIK_clean_linker_0, # of connection points: 2
#     Edge 87, Type (0, 0), BuildingBlock: UVAHIK_clean_linker_0, # of connection points: 2
#     Edge 88, Type (0, 0), BuildingBlock: UVAHIK_clean_linker_0, # of connection points: 2
#     Edge 89, Type (0, 0), BuildingBlock: UVAHIK_clean_linker_0, # of connection points: 2
#     Edge 90, Type (0, 0), BuildingBlock: UVAHIK_clean_linker_0, # of connection points: 2
#     Edge 91, Type (0, 0), BuildingBlock: UVAHIK_clean_linker_0, # of connection points: 2
#     Edge 92, Type (0, 0), BuildingBlock: UVAHIK_clean_linker_0, # of connection points: 2
#     Edge 93, Type (0, 0), BuildingBlock: UVAHIK_clean_linker_0, # of connection points: 2
#     Edge 94, Type (0, 0), BuildingBlock: UVAHIK_clean_linker_0, # of connection points: 2
#     Edge 95, Type (0, 0), BuildingBlock: UVAHIK_clean_linker_0, # of connection points: 2
#     Edge 96, Type (0, 0), BuildingBlock: UVAHIK_clean_linker_0, # of connection points: 2
#     Edge 97, Type (0, 0), BuildingBlock: UVAHIK_clean_linker_0, # of connection points: 2
#     Edge 98, Type (0, 0), BuildingBlock: UVAHIK_clean_linker_0, # of connection points: 2
#     Edge 99, Type (0, 0), BuildingBlock: UVAHIK_clean_linker_0, # of connection points: 2
#     Edge 100, Type (0, 0), BuildingBlock: UVAHIK_clean_linker_0, # of connection points: 2
#     Edge 101, Type (0, 0), BuildingBlock: UVAHIK_clean_linker_0, # of connection points: 2
#     Edge 102, Type (0, 0), BuildingBlock: UVAHIK_clean_linker_0, # of connection points: 2
#     Edge 103, Type (0, 0), BuildingBlock: UVAHIK_clean_linker_0, # of connection points: 2
#     Edge 104, Type (0, 0), BuildingBlock: UVAHIK_clean_linker_0, # of connection points: 2
#     Edge 105, Type (0, 0), BuildingBlock: UVAHIK_clean_linker_0, # of connection points: 2
#     Edge 106, Type (0, 0), BuildingBlock: UVAHIK_clean_linker_0, # of connection points: 2
#     Edge 107, Type (0, 0), BuildingBlock: UVAHIK_clean_linker_0, # of connection points: 2
# Relax obj value: 0.123
# Max RMSD: 0.186
# Mean RMSD: 0.186
data_MOF--net-ict--node1-QUQFOY_clean_sbu_1--edge1-UVAHIK_clean_linker_0
_symmetry_space_group_name_H-M    P1
_symmetry_Int_Tables_number       1
_symmetry_cell_setting            triclinic
loop_
_symmetry_equiv_pos_as_xyz
'x, y, z'
_cell_length_a     89.868204
_cell_length_b     89.855212
_cell_length_c     46.921811
_cell_angle_alpha  89.989578
_cell_angle_beta   90.023684
_cell_angle_gamma 120.0027
loop_
_atom_site_label
_atom_site_type_symbol
_atom_site_fract_x
_atom_site_fract_y
_atom_site_fract_z
_atom_type_partial_charge
O0 O 0.24161 0.17748 0.03593 0.0
Cd1 Cd 0.2481 0.20267 0.04382 0.0
Cd2 Cd 0.21383 0.18953 0.04143 0.0
O3 O 0.21413 0.16791 0.02793 0.0
O4 O 0.27282 0.21667 0.03426 0.0
O5 O 0.25249 0.21888 0.01125 0.0
C6 C 0.26858 0.22372 0.01432 0.0
C7 C 0.1955 0.1971 0.01851 0.0
C8 C 0.22682 0.16537 0.02883 0.0
C9 C 0.2314 0.20415 0.09739 0.0
O10 O 0.2173 0.19526 0.08423 0.0
O11 O 0.24562 0.20944 0.08464 0.0
O12 O 0.18972 0.18378 0.03471 0.0
O13 O 0.21191 0.20609 0.01465 0.0
O14 O 0.81653 0.065 0.04004 0.0
Cd15 Cd 0.79197 0.04429 0.04495 0.0
Cd16 Cd 0.8071 0.02541 0.03982 0.0
O17 O 0.82746 0.04877 0.02765 0.0
O18 O 0.77471 0.05057 0.03266 0.0
O19 O 0.77983 0.03204 0.00934 0.0
C20 C 0.77146 0.04023 0.01147 0.0
C21 C 0.80177 0.00041 0.01597 0.0
C22 C 0.82913 0.06356 0.03117 0.0
C23 C 0.79067 0.02443 0.09599 0.0
O24 O 0.80097 0.02125 0.0824 0.0
O25 O 0.78441 0.03279 0.08421 0.0
O26 O 0.81508 0.00881 0.03193 0.0
O27 O 0.79172 0.00666 0.01236 0.0
O28 O 0.9302 0.74749 0.04462 0.0
Cd29 Cd 0.9507 0.74338 0.0496 0.0
Cd30 Cd 0.96954 0.77662 0.03795 0.0
O31 O 0.94604 0.77274 0.02423 0.0
O32 O 0.94342 0.71923 0.03961 0.0
O33 O 0.96225 0.74173 0.01443 0.0
C34 C 0.95348 0.72525 0.0178 0.0
C35 C 0.99408 0.79451 0.0114 0.0
C36 C 0.93141 0.7604 0.03143 0.0
C37 C 0.97163 0.76484 0.09714 0.0
O38 O 0.97417 0.77733 0.0812 0.0
O39 O 0.96339 0.74955 0.08785 0.0
O40 O 0.986 0.8005 0.02567 0.0
O41 O 0.98787 0.77808 0.01133 0.0
O42 O 0.18334 0.24886 0.44506 0.0
Cd43 Cd 0.20845 0.2545 0.43914 0.0
Cd44 Cd 0.19504 0.22053 0.44722 0.0
O45 O 0.174 0.22229 0.45944 0.0
O46 O 0.22378 0.27926 0.44723 0.0
O47 O 0.22301 0.25845 0.47376 0.0
C48 C 0.22927 0.27468 0.46906 0.0
C49 C 0.20133 0.2016 0.47143 0.0
C50 C 0.17138 0.23474 0.45494 0.0
C51 C 0.2097 0.23496 0.38945 0.0
O52 O 0.20033 0.22174 0.40438 0.0
O53 O 0.21555 0.24987 0.39994 0.0
O54 O 0.18783 0.19622 0.45582 0.0
O55 O 0.2111 0.218 0.47445 0.0
O56 O 0.75106 0.9326 0.44766 0.0
Cd57 Cd 0.74624 0.95252 0.44041 0.0
Cd58 Cd 0.78049 0.97231 0.44218 0.0
O59 O 0.77866 0.94976 0.4562 0.0
O60 O 0.72275 0.94583 0.45354 0.0
O61 O 0.74653 0.96611 0.47438 0.0
C62 C 0.72994 0.95722 0.47332 0.0
C63 C 0.80109 0.99818 0.46274 0.0
C64 C 0.7656 0.93474 0.4552 0.0
C65 C 0.76266 0.96994 0.38658 0.0
O66 O 0.77668 0.97442 0.39951 0.0
O67 O 0.74845 0.96174 0.39962 0.0
O68 O 0.80528 0.98953 0.44599 0.0
O69 O 0.78503 0.99182 0.46885 0.0
O70 O 0.07068 0.82272 0.44721 0.0
Cd71 Cd 0.05053 0.79843 0.43792 0.0
Cd72 Cd 0.03127 0.8133 0.4436 0.0
O73 O 0.05401 0.83328 0.45873 0.0
O74 O 0.05823 0.78164 0.44577 0.0
O75 O 0.0378 0.78279 0.47054 0.0
C76 C 0.04716 0.77579 0.46622 0.0
C77 C 0.00576 0.80592 0.46755 0.0
C78 C 0.06889 0.83498 0.45673 0.0
C79 C 0.03252 0.79989 0.3858 0.0
O80 O 0.0285 0.80929 0.40027 0.0
O81 O 0.04061 0.79325 0.39732 0.0
O82 O 0.01388 0.81996 0.45318 0.0
O83 O 0.01243 0.79612 0.46913 0.0
O84 O 0.75155 0.81706 0.94474 0.0
Cd85 Cd 0.74697 0.79242 0.9376 0.0
Cd86 Cd 0.78066 0.80625 0.9457 0.0
O87 O 0.77818 0.82673 0.95906 0.0
O88 O 0.72293 0.77563 0.94847 0.0
O89 O 0.74576 0.77847 0.97154 0.0
C90 C 0.72924 0.77102 0.96913 0.0
C91 C 0.79786 0.79851 0.97172 0.0
C92 C 0.7655 0.82905 0.95506 0.0
C93 C 0.76692 0.79233 0.88751 0.0
O94 O 0.78009 0.8017 0.9026 0.0
O95 O 0.75196 0.78618 0.89798 0.0
O96 O 0.80439 0.8127 0.95762 0.0
O97 O 0.78136 0.78879 0.97183 0.0
O98 O 0.17606 0.92945 0.94549 0.0
Cd99 Cd 0.20087 0.9499 0.94176 0.0
Cd100 Cd 0.18553 0.96895 0.94586 0.0
O101 O 0.16449 0.94546 0.95525 0.0
O102 O 0.21692 0.94194 0.95351 0.0
O103 O 0.2138 0.96153 0.97731 0.0
C104 C 0.22114 0.95236 0.97482 0.0
C105 C 0.18985 0.99339 0.97044 0.0
C106 C 0.16306 0.93074 0.95224 0.0
C107 C 0.20368 0.97072 0.891 0.0
O108 O 0.19337 0.97409 0.90412 0.0
O109 O 0.2092 0.96172 0.90282 0.0
O110 O 0.17722 0.98536 0.95302 0.0
O111 O 0.19976 0.98708 0.97505 0.0
O112 O 0.06473 0.25032 0.95098 0.0
Cd113 Cd 0.04483 0.25536 0.9456 0.0
Cd114 Cd 0.02479 0.22132 0.9511 0.0
O115 O 0.04778 0.22315 0.96256 0.0
O116 O 0.05262 0.27919 0.95815 0.0
O117 O 0.03232 0.25611 0.9803 0.0
C118 C 0.0417 0.27266 0.97875 0.0
C119 C 0.99961 0.20137 0.97435 0.0
C120 C 0.06278 0.23597 0.95924 0.0
C121 C 0.02486 0.2374 0.89454 0.0
O122 O 0.02078 0.22384 0.90864 0.0
O123 O 0.03396 0.25206 0.90589 0.0
O124 O 0.00794 0.19668 0.95781 0.0
O125 O 0.006 0.21761 0.97885 0.0
O126 O 0.8223 0.75394 0.53666 0.0
Cd127 Cd 0.79748 0.74898 0.54355 0.0
Cd128 Cd 0.81188 0.78297 0.54039 0.0
O129 O 0.83277 0.78136 0.52672 0.0
O130 O 0.78138 0.72502 0.53154 0.0
O131 O 0.78333 0.74785 0.50976 0.0
C132 C 0.7764 0.73133 0.51141 0.0
C133 C 0.80506 0.80208 0.51825 0.0
C134 C 0.83474 0.76835 0.52874 0.0
C135 C 0.79694 0.76632 0.5967 0.0
O136 O 0.80662 0.78013 0.58333 0.0
O137 O 0.79063 0.75191 0.58412 0.0
O138 O 0.81863 0.80737 0.53369 0.0
O139 O 0.79552 0.78573 0.51432 0.0
O140 O 0.25338 0.07005 0.54416 0.0
Cd141 Cd 0.25826 0.05023 0.55199 0.0
Cd142 Cd 0.22424 0.0305 0.54838 0.0
O143 O 0.22612 0.05289 0.53337 0.0
O144 O 0.28201 0.05762 0.53947 0.0
O145 O 0.2588 0.03663 0.51868 0.0
C146 C 0.27535 0.04609 0.51975 0.0
C147 C 0.20464 0.00443 0.5271 0.0
C148 C 0.23907 0.06793 0.53532 0.0
C149 C 0.24087 0.03281 0.60515 0.0
O150 O 0.22712 0.02858 0.59149 0.0
O151 O 0.25533 0.0408 0.59276 0.0
O152 O 0.19969 0.01309 0.54228 0.0
O153 O 0.22093 0.01089 0.52302 0.0
O154 O 0.93661 0.17961 0.54176 0.0
Cd155 Cd 0.95668 0.20448 0.54785 0.0
Cd156 Cd 0.97609 0.18962 0.54885 0.0
O157 O 0.95318 0.16799 0.53928 0.0
O158 O 0.94899 0.2207 0.53563 0.0
O159 O 0.96915 0.21785 0.51307 0.0
C160 C 0.95991 0.22512 0.51506 0.0
C161 C 0.00089 0.1958 0.52371 0.0
C162 C 0.93837 0.16653 0.53835 0.0
C163 C 0.97522 0.20721 0.60219 0.0
O164 O 0.97986 0.19744 0.59051 0.0
O165 O 0.96644 0.21229 0.58838 0.0
O166 O 0.99392 0.1832 0.54149 0.0
O167 O 0.99344 0.20473 0.51948 0.0
O168 O 0.9168 0.51462 0.37256 0.0
Cd169 Cd 0.92161 0.53924 0.38104 0.0
Cd170 Cd 0.88756 0.52493 0.37548 0.0
O171 O 0.88979 0.50468 0.36022 0.0
O172 O 0.94607 0.55554 0.37229 0.0
O173 O 0.92441 0.55453 0.34794 0.0
C174 C 0.94078 0.56128 0.35176 0.0
C175 C 0.86848 0.53185 0.35348 0.0
C176 C 0.90268 0.50256 0.36284 0.0
C177 C 0.90276 0.5383 0.43324 0.0
O178 O 0.88931 0.52891 0.41882 0.0
O179 O 0.91746 0.54499 0.42162 0.0
O180 O 0.86319 0.51791 0.36791 0.0
O181 O 0.88485 0.54174 0.35045 0.0
O182 O 0.48934 0.40178 0.37998 0.0
Cd183 Cd 0.46458 0.38154 0.38556 0.0
Cd184 Cd 0.47908 0.36215 0.37857 0.0
O185 O 0.50012 0.38539 0.36789 0.0
O186 O 0.44818 0.38927 0.37462 0.0
O187 O 0.45096 0.36944 0.3509 0.0
C188 C 0.44366 0.37864 0.35353 0.0
C189 C 0.47246 0.33768 0.35186 0.0
C190 C 0.50194 0.40022 0.37157 0.0
C191 C 0.46342 0.361 0.43567 0.0
O192 O 0.47301 0.35729 0.42106 0.0
O193 O 0.45757 0.37001 0.42496 0.0
O194 O 0.48582 0.34491 0.36802 0.0
O195 O 0.46302 0.34474 0.34996 0.0
O196 O 0.60073 0.08807 0.37436 0.0
Cd197 Cd 0.62072 0.08365 0.38347 0.0
Cd198 Cd 0.64035 0.11755 0.37638 0.0
O199 O 0.61761 0.1151 0.36193 0.0
O200 O 0.61259 0.05898 0.37664 0.0
O201 O 0.63301 0.08002 0.35098 0.0
C202 C 0.62353 0.06377 0.35603 0.0
C203 C 0.6657 0.13489 0.35139 0.0
C204 C 0.60265 0.10212 0.36459 0.0
C205 C 0.63939 0.10367 0.43472 0.0
O206 O 0.64357 0.11694 0.41969 0.0
O207 O 0.63094 0.0888 0.42382 0.0
O208 O 0.65799 0.14131 0.36562 0.0
O209 O 0.65869 0.11836 0.35054 0.0
O210 O 0.84363 0.57895 0.77782 0.0
Cd211 Cd 0.86825 0.58295 0.77278 0.0
Cd212 Cd 0.85279 0.54886 0.77867 0.0
O213 O 0.83212 0.55163 0.78949 0.0
O214 O 0.8847 0.60735 0.78173 0.0
O215 O 0.88213 0.58558 0.8078 0.0
C216 C 0.88946 0.60196 0.80348 0.0
C217 C 0.85869 0.53011 0.80416 0.0
C218 C 0.83074 0.56491 0.78593 0.0
C219 C 0.86923 0.56361 0.72231 0.0
O220 O 0.85898 0.55025 0.73622 0.0
O221 O 0.87547 0.57835 0.73365 0.0
O222 O 0.84532 0.5246 0.78815 0.0
O223 O 0.86847 0.54653 0.8069 0.0
O224 O 0.42148 0.26675 0.78604 0.0
Cd225 Cd 0.4162 0.28633 0.77856 0.0
Cd226 Cd 0.45006 0.30623 0.78432 0.0
O227 O 0.44855 0.28376 0.79795 0.0
O228 O 0.39137 0.2765 0.78656 0.0
O229 O 0.41183 0.29795 0.81138 0.0
C230 C 0.39567 0.28737 0.8072 0.0
C231 C 0.46696 0.33164 0.80924 0.0
C232 C 0.43572 0.26875 0.79497 0.0
C233 C 0.43518 0.30519 0.7268 0.0
O234 O 0.4487 0.30932 0.74111 0.0
O235 O 0.42048 0.29677 0.73834 0.0
O236 O 0.47369 0.32417 0.79519 0.0
O237 O 0.45042 0.32442 0.80994 0.0
O238 O 0.73386 0.15221 0.78417 0.0
Cd239 Cd 0.71322 0.12791 0.77684 0.0
Cd240 Cd 0.69431 0.1426 0.78571 0.0
O241 O 0.71754 0.16239 0.79966 0.0
O242 O 0.7196 0.1102 0.78562 0.0
O243 O 0.70105 0.11412 0.81126 0.0
C244 C 0.70931 0.10598 0.80712 0.0
C245 C 0.66935 0.13503 0.81159 0.0
C246 C 0.73236 0.1643 0.79526 0.0
C247 C 0.69362 0.12922 0.72712 0.0
O248 O 0.6904 0.1389 0.74248 0.0
O249 O 0.70175 0.12229 0.7374 0.0
O250 O 0.67723 0.14927 0.79766 0.0
O251 O 0.67601 0.12521 0.81173 0.0
O252 O 0.41912 0.15466 0.2784 0.0
Cd253 Cd 0.41404 0.12976 0.27208 0.0
Cd254 Cd 0.44819 0.14379 0.27796 0.0
O255 O 0.44632 0.16484 0.2898 0.0
O256 O 0.38966 0.11369 0.28166 0.0
O257 O 0.41153 0.11534 0.30627 0.0
C258 C 0.39513 0.10841 0.30261 0.0
C259 C 0.4676 0.13798 0.30163 0.0
C260 C 0.43348 0.16702 0.28674 0.0
C261 C 0.43267 0.12842 0.22107 0.0
O262 O 0.44619 0.13782 0.23533 0.0
O263 O 0.41798 0.12278 0.2323 0.0
O264 O 0.47266 0.15125 0.28555 0.0
O265 O 0.45127 0.1282 0.30545 0.0
O266 O 0.84934 0.2655 0.28321 0.0
Cd267 Cd 0.8741 0.28591 0.278 0.0
Cd268 Cd 0.85916 0.30498 0.28204 0.0
O269 O 0.83853 0.28197 0.29462 0.0
O270 O 0.89084 0.27872 0.28924 0.0
O271 O 0.88705 0.29787 0.31332 0.0
C272 C 0.89482 0.28913 0.31051 0.0
C273 C 0.86503 0.33046 0.3048 0.0
C274 C 0.83674 0.26711 0.29148 0.0
C275 C 0.87502 0.30489 0.22596 0.0
O276 O 0.86477 0.30825 0.23927 0.0
O277 O 0.88154 0.29694 0.23831 0.0
O278 O 0.85159 0.32197 0.28917 0.0
O279 O 0.87492 0.32404 0.30873 0.0
O280 O 0.73566 0.5823 0.28041 0.0
Cd281 Cd 0.71555 0.58672 0.27252 0.0
Cd282 Cd 0.69591 0.55274 0.28036 0.0
O283 O 0.71893 0.5554 0.2937 0.0
O284 O 0.72379 0.61138 0.27979 0.0
O285 O 0.70388 0.59029 0.30606 0.0
C286 C 0.71332 0.60656 0.30109 0.0
C287 C 0.67106 0.53487 0.30618 0.0
C288 C 0.73386 0.56833 0.29034 0.0
C289 C 0.69581 0.56644 0.22216 0.0
O290 O 0.69194 0.55328 0.23727 0.0
O291 O 0.70448 0.58139 0.23272 0.0
O292 O 0.6788 0.52879 0.29116 0.0
O293 O 0.67775 0.55135 0.3073 0.0
O294 O 0.4859 0.08373 0.87541 0.0
Cd295 Cd 0.46133 0.07994 0.87998 0.0
Cd296 Cd 0.47667 0.11392 0.8754 0.0
O297 O 0.49725 0.11111 0.86424 0.0
O298 O 0.44407 0.0563 0.86802 0.0
O299 O 0.44904 0.07978 0.84436 0.0
C300 C 0.44071 0.06324 0.84674 0.0
C301 C 0.47123 0.13321 0.85057 0.0
C302 C 0.49875 0.09788 0.86757 0.0
C303 C 0.46029 0.09844 0.93142 0.0
O304 O 0.47056 0.11198 0.91792 0.0
O305 O 0.45389 0.08387 0.91943 0.0
O306 O 0.48446 0.13839 0.86683 0.0
O307 O 0.46127 0.11685 0.84742 0.0
O308 O 0.91429 0.40138 0.87766 0.0
Cd309 Cd 0.91993 0.38201 0.8847 0.0
Cd310 Cd 0.88605 0.36119 0.87975 0.0
O311 O 0.88724 0.38358 0.86638 0.0
O312 O 0.94361 0.38961 0.87143 0.0
O313 O 0.92025 0.3686 0.85098 0.0
C314 C 0.9368 0.3781 0.8517 0.0
C315 C 0.86678 0.33532 0.85751 0.0
C316 C 0.8998 0.39881 0.86891 0.0
C317 C 0.90248 0.36285 0.93664 0.0
O318 O 0.88879 0.35821 0.92255 0.0
O319 O 0.91704 0.37197 0.92502 0.0
O320 O 0.86162 0.34355 0.87335 0.0
O321 O 0.88309 0.34218 0.85316 0.0
O322 O 0.59793 0.51635 0.87646 0.0
Cd323 Cd 0.61789 0.54116 0.88253 0.0
Cd324 Cd 0.63735 0.52708 0.87232 0.0
O325 O 0.61432 0.50707 0.85787 0.0
O326 O 0.60862 0.55666 0.87479 0.0
O327 O 0.62902 0.55632 0.84871 0.0
C328 C 0.61895 0.56247 0.85331 0.0
C329 C 0.66234 0.53389 0.84702 0.0
C330 C 0.59951 0.50466 0.86405 0.0
C331 C 0.63798 0.54055 0.93143 0.0
O332 O 0.64116 0.53094 0.91576 0.0
O333 O 0.6297 0.54742 0.92154 0.0
O334 O 0.65419 0.5199 0.8615 0.0
O335 O 0.656 0.544 0.84612 0.0
O336 O 0.58249 0.85246 0.71234 0.0
Cd337 Cd 0.58856 0.87765 0.71803 0.0
Cd338 Cd 0.5543 0.86529 0.7143 0.0
O339 O 0.55466 0.84275 0.70792 0.0
O340 O 0.61234 0.89353 0.70501 0.0
O341 O 0.58908 0.8907 0.68317 0.0
C342 C 0.60562 0.89784 0.68459 0.0
C343 C 0.53421 0.86961 0.6895 0.0
C344 C 0.56729 0.8401 0.70845 0.0
C345 C 0.57216 0.88294 0.76892 0.0
O346 O 0.55828 0.87503 0.75486 0.0
O347 O 0.58622 0.88557 0.75813 0.0
O348 O 0.52967 0.85791 0.7087 0.0
O349 O 0.55033 0.87857 0.68325 0.0
O350 O 0.15089 0.73495 0.70291 0.0
Cd351 Cd 0.12615 0.71512 0.71059 0.0
Cd352 Cd 0.14063 0.69549 0.70785 0.0
O353 O 0.16116 0.71785 0.69286 0.0
O354 O 0.10991 0.72271 0.69817 0.0
O355 O 0.11195 0.70169 0.67714 0.0
C356 C 0.10495 0.71123 0.67837 0.0
C357 C 0.13418 0.66939 0.68681 0.0
C358 C 0.16316 0.73286 0.69446 0.0
C359 C 0.12589 0.69777 0.76412 0.0
O360 O 0.1356 0.69362 0.75087 0.0
O361 O 0.11946 0.70568 0.75135 0.0
O362 O 0.14775 0.67805 0.70208 0.0
O363 O 0.12439 0.67587 0.68249 0.0
O364 O 0.26094 0.41819 0.7154 0.0
Cd365 Cd 0.28161 0.41418 0.71893 0.0
Cd366 Cd 0.30043 0.44848 0.71433 0.0
O367 O 0.27678 0.44576 0.70534 0.0
O368 O 0.27436 0.3905 0.70605 0.0
O369 O 0.29368 0.41389 0.68329 0.0
C370 C 0.28484 0.39731 0.68495 0.0
C371 C 0.32454 0.46878 0.68926 0.0
C372 C 0.26211 0.43243 0.70859 0.0
C373 C 0.30245 0.43237 0.76946 0.0
O374 O 0.30581 0.44596 0.75604 0.0
O375 O 0.29343 0.41775 0.75791 0.0
O376 O 0.31653 0.47325 0.70693 0.0
O377 O 0.31843 0.45257 0.68478 0.0
O378 O 0.51916 0.9148 0.12269 0.0
Cd379 Cd 0.54424 0.92079 0.11619 0.0
Cd380 Cd 0.53143 0.88655 0.11978 0.0
O381 O 0.50958 0.88732 0.13088 0.0
O382 O 0.55969 0.9447 0.12895 0.0
O383 O 0.55836 0.92194 0.14999 0.0
C384 C 0.56489 0.93843 0.14881 0.0
C385 C 0.53675 0.86638 0.14201 0.0
C386 C 0.50698 0.89997 0.1294 0.0
C387 C 0.54754 0.90436 0.06404 0.0
O388 O 0.5391 0.89041 0.07779 0.0
O389 O 0.5516 0.91861 0.07576 0.0
O390 O 0.52411 0.86188 0.12466 0.0
O391 O 0.54614 0.88252 0.14789 0.0
O392 O 0.08386 0.59829 0.11008 0.0
Cd393 Cd 0.07886 0.61814 0.10339 0.0
Cd394 Cd 0.113 0.63837 0.10899 0.0
O395 O 0.11093 0.61552 0.12194 0.0
O396 O 0.05509 0.6107 0.11593 0.0
O397 O 0.07832 0.63119 0.1375 0.0
C398 C 0.06176 0.62189 0.13615 0.0
C399 C 0.13301 0.66371 0.13175 0.0
C400 C 0.09815 0.60045 0.11907 0.0
C401 C 0.09703 0.63779 0.0521 0.0
O402 O 0.11058 0.64194 0.06631 0.0
O403 O 0.08235 0.62877 0.06342 0.0
O404 O 0.13766 0.65516 0.11566 0.0
O405 O 0.11677 0.65749 0.136 0.0
O406 O 0.40251 0.48446 0.11462 0.0
Cd407 Cd 0.38216 0.45975 0.10882 0.0
Cd408 Cd 0.36323 0.47514 0.11292 0.0
O409 O 0.38633 0.49569 0.12539 0.0
O410 O 0.3905 0.44365 0.11805 0.0
O411 O 0.37066 0.44547 0.14342 0.0
C412 C 0.38011 0.43855 0.13945 0.0
C413 C 0.33801 0.46985 0.13594 0.0
C414 C 0.40109 0.49722 0.12261 0.0
C415 C 0.36332 0.45924 0.05673 0.0
O416 O 0.35987 0.46939 0.07018 0.0
O417 O 0.37131 0.45271 0.06896 0.0
O418 O 0.34655 0.48311 0.11996 0.0
O419 O 0.34417 0.45974 0.13991 0.0
O420 O 0.08176 0.48536 0.61619 0.0
Cd421 Cd 0.07681 0.46079 0.60778 0.0
Cd422 Cd 0.11027 0.47326 0.61941 0.0
O423 O 0.10831 0.49446 0.63051 0.0
O424 O 0.05224 0.44419 0.61526 0.0
O425 O 0.07363 0.44553 0.64096 0.0
C426 C 0.05732 0.43857 0.63629 0.0
C427 C 0.12744 0.46634 0.64744 0.0
C428 C 0.09586 0.49714 0.62642 0.0
C429 C 0.0979 0.46012 0.5599 0.0
O430 O 0.11053 0.46776 0.57686 0.0
O431 O 0.08279 0.45561 0.56819 0.0
O432 O 0.13394 0.47988 0.63172 0.0
O433 O 0.11092 0.45681 0.64809 0.0
O434 O 0.50716 0.6023 0.61848 0.0
Cd435 Cd 0.5325 0.62072 0.61107 0.0
Cd436 Cd 0.51953 0.64233 0.61356 0.0
O437 O 0.49756 0.62027 0.62568 0.0
O438 O 0.54631 0.60998 0.62179 0.0
O439 O 0.54836 0.63272 0.64393 0.0
C440 C 0.55319 0.62142 0.64156 0.0
C441 C 0.52583 0.66828 0.6351 0.0
C442 C 0.49499 0.60503 0.62492 0.0
C443 C 0.53517 0.63961 0.55802 0.0
O444 O 0.52654 0.64506 0.57134 0.0
O445 O 0.53978 0.63002 0.57038 0.0
O446 O 0.51332 0.66055 0.61739 0.0
O447 O 0.53457 0.66092 0.64164 0.0
O448 O 0.39978 0.91692 0.61216 0.0
Cd449 Cd 0.37919 0.92072 0.60514 0.0
Cd450 Cd 0.36049 0.8869 0.61081 0.0
O451 O 0.38335 0.89012 0.62622 0.0
O452 O 0.38554 0.9445 0.61611 0.0
O453 O 0.3665 0.92126 0.63973 0.0
C454 C 0.37496 0.93779 0.63711 0.0
C455 C 0.3347 0.86755 0.63301 0.0
C456 C 0.3982 0.90314 0.62264 0.0
C457 C 0.36132 0.9017 0.55323 0.0
O458 O 0.35814 0.88841 0.56745 0.0
O459 O 0.36865 0.91637 0.56502 0.0
O460 O 0.3436 0.86243 0.61889 0.0
O461 O 0.34083 0.8839 0.63564 0.0
O462 O 0.15524 0.42046 0.20908 0.0
Cd463 Cd 0.13072 0.41532 0.21848 0.0
Cd464 Cd 0.14377 0.44936 0.21047 0.0
O465 O 0.16479 0.44755 0.19761 0.0
O466 O 0.11442 0.39072 0.21071 0.0
O467 O 0.11479 0.41203 0.18619 0.0
C468 C 0.1082 0.39572 0.19049 0.0
C469 C 0.13713 0.46797 0.18607 0.0
C470 C 0.1672 0.43481 0.19996 0.0
C471 C 0.13054 0.43491 0.26908 0.0
O472 O 0.13841 0.4481 0.25337 0.0
O473 O 0.12569 0.42006 0.25906 0.0
O474 O 0.1507 0.47357 0.2016 0.0
O475 O 0.12749 0.45155 0.18329 0.0
O476 O 0.58506 0.73119 0.20807 0.0
Cd477 Cd 0.58917 0.71078 0.21495 0.0
Cd478 Cd 0.55537 0.69172 0.20774 0.0
O479 O 0.55822 0.7148 0.19426 0.0
O480 O 0.61351 0.71841 0.20612 0.0
O481 O 0.59158 0.69882 0.18076 0.0
C482 C 0.60798 0.70793 0.1848 0.0
C483 C 0.53708 0.66672 0.18262 0.0
C484 C 0.5712 0.72963 0.19807 0.0
C485 C 0.56939 0.69153 0.26564 0.0
O486 O 0.5562 0.68807 0.25087 0.0
O487 O 0.58427 0.6997 0.25469 0.0
O488 O 0.53127 0.67472 0.19756 0.0
O489 O 0.55354 0.67324 0.18111 0.0
O490 O 0.2688 0.84615 0.20237 0.0
Cd491 Cd 0.28866 0.87092 0.20945 0.0
Cd492 Cd 0.30842 0.85603 0.20383 0.0
O493 O 0.28548 0.83574 0.19005 0.0
O494 O 0.2793 0.88645 0.20267 0.0
O495 O 0.29946 0.8863 0.17563 0.0
C496 C 0.2895 0.89247 0.18108 0.0
C497 C 0.33388 0.86173 0.18115 0.0
C498 C 0.27058 0.83384 0.19306 0.0
C499 C 0.30802 0.87105 0.26081 0.0
O500 O 0.31165 0.8612 0.2468 0.0
O501 O 0.29972 0.87742 0.24917 0.0
O502 O 0.32514 0.84815 0.19636 0.0
O503 O 0.32777 0.87193 0.17768 0.0
C504 C 0.38666 0.29928 0.84786 0.0
C505 C 0.38238 0.28697 0.82625 0.0
C506 C 0.37418 0.2978 0.86732 0.0
C507 C 0.32682 0.27272 0.88222 0.0
H508 H 0.34183 0.27958 0.96093 0.0
C509 C 0.29878 0.23961 -0.00322 0.0
C510 C 0.28183 0.2364 -0.00503 0.0
C511 C 0.31114 0.2504 0.97721 0.0
C512 C 0.33739 0.27757 0.93906 0.0
H513 H 0.36157 0.26387 0.80741 0.0
H514 H 0.34014 0.26094 0.8416 0.0
H515 H 0.36305 0.2897 0.92309 0.0
H516 H 0.26474 0.24269 0.97206 0.0
H517 H 0.28651 0.26192 0.93807 0.0
H518 H 0.30114 0.25925 0.8982 0.0
C519 C 0.35292 0.27201 0.84334 0.0
C520 C 0.34961 0.28364 0.91727 0.0
C521 C 0.3653 0.27358 0.8238 0.0
C522 C 0.27767 0.24481 0.97384 0.0
C523 C 0.29014 0.25577 0.95431 0.0
C524 C 0.3146 0.26641 0.90401 0.0
C525 C 0.35723 0.2839 0.86569 0.0
C526 C 0.34446 0.28067 0.88855 0.0
C527 C 0.30696 0.25844 0.95543 0.0
C528 C 0.31974 0.26814 0.9327 0.0
H529 H 0.3997 0.30984 0.85012 0.0
H530 H 0.37791 0.30736 0.88397 0.0
H531 H 0.32238 0.27064 0.86035 0.0
H532 H 0.30242 0.23333 0.01277 0.0
H533 H 0.3238 0.25179 0.9785 0.0
C534 C 0.7088 0.09623 0.85677 0.0
C535 C 0.70809 0.09301 0.82748 0.0
C536 C 0.7105 0.08536 0.87611 0.0
C537 C 0.72425 0.05234 0.87764 0.0
H538 H 0.71664 0.05483 0.9582 0.0
C539 C 0.76452 0.04171 0.9608 0.0
C540 C 0.75933 0.03887 0.98933 0.0
C541 C 0.75427 0.0435 0.94027 0.0
C542 C 0.71856 0.05347 0.93582 0.0
H543 H 0.70711 0.07534 0.79525 0.0
H544 H 0.70851 0.05547 0.82895 0.0
H545 H 0.70417 0.06553 0.92438 0.0
H546 H 0.73896 0.03418 0.0188 0.0
H547 H 0.72024 0.03563 0.98274 0.0
H548 H 0.73752 0.03909 0.88892 0.0
C549 C 0.70887 0.06688 0.83724 0.0
C550 C 0.71168 0.0601 0.91622 0.0
C551 C 0.70785 0.07814 0.81784 0.0
C552 C 0.74323 0.03655 -0.00317 0.0
C553 C 0.73263 0.03763 0.97612 0.0
C554 C 0.73054 0.04508 0.89715 0.0
C555 C 0.71093 0.07067 0.86664 0.0
C556 C 0.71518 0.06047 0.88692 0.0
C557 C 0.73829 0.04188 0.94769 0.0
C558 C 0.72859 0.04633 0.92667 0.0
H559 H 0.70916 0.10774 0.8646 0.0
H560 H 0.71239 0.08913 0.89829 0.0
H561 H 0.72736 0.05224 0.8554 0.0
H562 H 0.77701 0.0437 0.9547 0.0
H563 H 0.75945 0.04709 0.91898 0.0
C564 C 0.962 0.71978 0.96985 0.0
C565 C 0.95398 0.71349 -0.00368 0.0
C566 C 0.96032 0.70841 0.94812 0.0
C567 C 0.94627 0.66291 0.93138 0.0
H568 H 0.92821 0.672 0.86267 0.0
C569 C 0.90266 0.60993 0.85203 0.0
C570 C 0.90234 0.6144 0.82347 0.0
C571 C 0.91321 0.62246 0.87175 0.0
C572 C 0.93363 0.66937 0.8813 0.0
H573 H 0.939 0.69044 0.02148 0.0
H574 H 0.93606 0.67064 0.98356 0.0
H575 H 0.93983 0.69347 0.89998 0.0
H576 H 0.9138 0.63503 0.79254 0.0
H577 H 0.9327 0.65672 0.82657 0.0
H578 H 0.9397 0.63861 0.91284 0.0
C579 C 0.94365 0.68433 0.97959 0.0
C580 C 0.94028 0.68173 0.90278 0.0
C581 C 0.94522 0.69568 0.00124 0.0
C582 C 0.91359 0.63131 0.81456 0.0
C583 C 0.92435 0.64375 0.83412 0.0
C584 C 0.93975 0.65057 0.90971 0.0
C585 C 0.95072 0.69056 0.95254 0.0
C586 C 0.94628 0.67848 0.92832 0.0
C587 C 0.92384 0.63965 0.86317 0.0
C588 C 0.93294 0.65348 0.88468 0.0
H589 H 0.96892 0.73345 0.96548 0.0
H590 H 0.96604 0.71356 0.92754 0.0
H591 H 0.95096 0.66014 0.95079 0.0
H592 H 0.89409 0.59697 0.85945 0.0
H593 H 0.91232 0.61882 0.89395 0.0
C594 C 0.27824 0.36849 0.66701 0.0
C595 C 0.28597 0.3863 0.66267 0.0
C596 C 0.27757 0.35773 0.645 0.0
C597 C 0.27457 0.35535 0.56821 0.0
H598 H 0.27853 0.3146 0.57787 0.0
C599 C 0.25162 0.30492 0.47987 0.0
C600 C 0.24164 0.28779 0.48885 0.0
C601 C 0.26166 0.31782 0.49936 0.0
C602 C 0.27731 0.32588 0.57484 0.0
H603 H 0.29984 0.40693 0.63236 0.0
H604 H 0.29843 0.38803 0.59365 0.0
H605 H 0.28803 0.33598 0.61597 0.0
H606 H 0.23496 0.27054 0.5249 0.0
H607 H 0.25189 0.29311 0.55923 0.0
H608 H 0.26294 0.34499 0.52804 0.0
C609 C 0.2929 0.38244 0.61413 0.0
C610 C 0.28283 0.33815 0.5966 0.0
C611 C 0.29373 0.39324 0.63629 0.0
C612 C 0.24255 0.28365 0.5174 0.0
C613 C 0.25237 0.29661 0.53704 0.0
C614 C 0.2689 0.34304 0.54663 0.0
C615 C 0.28448 0.36454 0.61811 0.0
C616 C 0.28117 0.35282 0.59371 0.0
C617 C 0.26166 0.31393 0.5284 0.0
C618 C 0.26983 0.32795 0.54988 0.0
H619 H 0.27225 0.36276 0.68718 0.0
H620 H 0.27086 0.34398 0.64861 0.0
H621 H 0.27288 0.36639 0.56554 0.0
H622 H 0.25136 0.30843 0.45786 0.0
H623 H 0.26901 0.33093 0.49176 0.0
C624 C 0.61365 0.90514 0.63384 0.0
C625 C 0.61669 0.90985 0.66257 0.0
C626 C 0.62574 0.91513 0.61319 0.0
C627 C 0.67226 0.94869 0.60775 0.0
H628 H 0.66064 0.94223 0.52759 0.0
C629 C 0.72227 0.95746 0.524 0.0
C630 C 0.71931 0.95903 0.49519 0.0
C631 C 0.7104 0.95603 0.54457 0.0
C632 C 0.66432 0.94468 0.54978 0.0
H633 H 0.6338 0.92919 0.69241 0.0
H634 H 0.65419 0.94756 0.6563 0.0
H635 H 0.63806 0.93253 0.56238 0.0
H636 H 0.70263 0.96178 0.4651 0.0
H637 H 0.68268 0.96094 0.50105 0.0
H638 H 0.69854 0.96201 0.59513 0.0
C639 C 0.64312 0.93566 0.6495 0.0
C640 C 0.65117 0.93865 0.56999 0.0
C641 C 0.63134 0.92529 0.67026 0.0
C642 C 0.70502 0.96042 0.48732 0.0
C643 C 0.69348 0.95968 0.50798 0.0
C644 C 0.68542 0.95534 0.58753 0.0
C645 C 0.64089 0.93041 0.62074 0.0
C646 C 0.65488 0.93978 0.59932 0.0
C647 C 0.69557 0.95672 0.53685 0.0
C648 C 0.68169 0.95269 0.55822 0.0
H649 H 0.60246 0.89315 0.62756 0.0
H650 H 0.62349 0.91026 0.59161 0.0
H651 H 0.67591 0.94992 0.62995 0.0
H652 H 0.73317 0.95618 0.53041 0.0
H653 H 0.71252 0.95343 0.56625 0.0
C654 C 0.0405 0.76078 0.51329 0.0
C655 C 0.04607 0.76213 0.485 0.0
C656 C 0.04204 0.74961 0.53224 0.0
C657 C 0.06866 0.72925 0.54105 0.0
H658 H 0.04135 0.71087 0.60954 0.0
C659 C 0.09084 0.70158 0.63065 0.0
C660 C 0.09245 0.70996 0.6567 0.0
C661 C 0.081 0.70273 0.60858 0.0
C662 C 0.04899 0.71581 0.59037 0.0
H663 H 0.05613 0.75181 0.45354 0.0
H664 H 0.0581 0.73178 0.48613 0.0
H665 H 0.03125 0.72227 0.57156 0.0
H666 H 0.08397 0.72493 0.6809 0.0
H667 H 0.06678 0.72685 0.64251 0.0
H668 H 0.08655 0.72315 0.56008 0.0
C669 C 0.05322 0.73982 0.49416 0.0
C670 C 0.04329 0.72244 0.56869 0.0
C671 C 0.05201 0.75123 0.47541 0.0
C672 C 0.08309 0.71846 0.66097 0.0
C673 C 0.07311 0.71943 0.63906 0.0
C674 C 0.07423 0.72245 0.56252 0.0
C675 C 0.04891 0.73936 0.5231 0.0
C676 C 0.05333 0.72975 0.54413 0.0
C677 C 0.07243 0.71207 0.61234 0.0
C678 C 0.06474 0.71615 0.58776 0.0
H679 H 0.03588 0.76907 0.52123 0.0
H680 H 0.03874 0.74978 0.55438 0.0
H681 H 0.07695 0.73502 0.5228 0.0
H682 H 0.09786 0.69488 0.62679 0.0
H683 H 0.08058 0.69684 0.58823 0.0
C684 C 0.61569 0.70265 0.13616 0.0
C685 C 0.62028 0.70734 0.16471 0.0
C686 C 0.62815 0.70482 0.11617 0.0
C687 C 0.67498 0.73186 0.1063 0.0
H688 H 0.66548 0.7066 0.03534 0.0
C689 C 0.72448 0.75611 0.01613 0.0
C690 C 0.71781 0.75833 0.99041 0.0
C691 C 0.71343 0.7459 0.03782 0.0
C692 C 0.66833 0.71369 0.05516 0.0
H693 H 0.64104 0.71641 0.19539 0.0
H694 H 0.66261 0.71945 0.16091 0.0
H695 H 0.64429 0.69537 0.07379 0.0
H696 H 0.69441 0.75062 0.96643 0.0
H697 H 0.67517 0.73281 0.00426 0.0
H698 H 0.69881 0.75032 0.08754 0.0
C699 C 0.6496 0.71481 0.15355 0.0
C700 C 0.65618 0.70732 0.07714 0.0
C701 C 0.63722 0.71297 0.17338 0.0
C702 C 0.69994 0.74926 0.98611 0.0
C703 C 0.68891 0.73894 0.00768 0.0
C704 C 0.68715 0.73809 0.08453 0.0
C705 C 0.6454 0.71144 0.12449 0.0
C706 C 0.65916 0.7166 0.1027 0.0
C707 C 0.69553 0.73759 0.03406 0.0
C708 C 0.68377 0.72933 0.05846 0.0
H709 H 0.6027 0.69829 0.12892 0.0
H710 H 0.62442 0.70222 0.09399 0.0
H711 H 0.67766 0.73959 0.12536 0.0
H712 H 0.7382 0.76286 0.02001 0.0
H713 H 0.71886 0.74495 0.05789 0.0
C714 C 0.29362 0.9067 0.13363 0.0
C715 C 0.28889 0.90536 0.16241 0.0
C716 C 0.29047 0.91699 0.11505 0.0
C717 C 0.26096 0.93422 0.10907 0.0
H718 H 0.28625 0.95407 0.03925 0.0
C719 C 0.2348 0.96061 0.02313 0.0
C720 C 0.23349 0.95308 -0.00368 0.0
C721 C 0.24503 0.95941 0.04448 0.0
C722 C 0.27914 0.94868 0.05878 0.0
H723 H 0.27861 0.91482 0.19496 0.0
H724 H 0.27379 0.9333 0.16293 0.0
H725 H 0.29844 0.94383 0.07569 0.0
H726 H 0.24269 0.9394 0.97023 0.0
H727 H 0.26051 0.93739 0.00738 0.0
H728 H 0.24154 0.93875 0.09195 0.0
C729 C 0.27927 0.92592 0.15432 0.0
C730 C 0.28606 0.94273 0.07958 0.0
C731 C 0.28212 0.91541 0.17273 0.0
C732 C 0.24333 0.94522 0.99076 0.0
C733 C 0.25368 0.9442 0.01195 0.0
C734 C 0.25416 0.94033 0.08846 0.0
C735 C 0.28278 0.92634 0.12503 0.0
C736 C 0.27682 0.93498 0.10466 0.0
C737 C 0.25427 0.95088 0.03925 0.0
C738 C 0.26294 0.94718 0.06278 0.0
H739 H 0.29884 0.89906 0.12512 0.0
H740 H 0.29321 0.91683 0.09262 0.0
H741 H 0.25328 0.92807 0.12779 0.0
H742 H 0.22741 0.9668 0.02799 0.0
H743 H 0.24535 0.96476 0.06531 0.0
C744 C 0.09272 0.38707 0.14383 0.0
C745 C 0.09451 0.38294 0.17198 0.0
C746 C 0.08147 0.37424 0.12512 0.0
C747 C 0.06172 0.32732 0.11627 0.0
H748 H 0.04191 0.33569 0.04901 0.0
C749 C 0.033 0.27716 0.02725 0.0
C750 C 0.04084 0.28391 0.00083 0.0
C751 C 0.03445 0.28817 0.04949 0.0
C752 C 0.04725 0.33314 0.06784 0.0
H753 H 0.08491 0.36259 0.20348 0.0
H754 H 0.06476 0.34037 0.17134 0.0
H755 H 0.05363 0.35728 0.08682 0.0
H756 H 0.05516 0.30732 0.97625 0.0
H757 H 0.05762 0.32646 0.01495 0.0
H758 H 0.05568 0.30339 0.09707 0.0
C759 C 0.07251 0.35331 0.16321 0.0
C760 C 0.05406 0.34552 0.08942 0.0
C761 C 0.08399 0.36605 0.1817 0.0
C762 C 0.04912 0.30175 -0.00354 0.0
C763 C 0.05039 0.31272 0.01855 0.0
C764 C 0.05474 0.31489 0.09492 0.0
C765 C 0.07158 0.35708 0.13438 0.0
C766 C 0.06187 0.34299 0.11352 0.0
C767 C 0.04356 0.30607 0.04554 0.0
C768 C 0.04791 0.31789 0.07011 0.0
H769 H 0.1007 0.40001 0.1358 0.0
H770 H 0.08128 0.37765 0.10306 0.0
H771 H 0.06787 0.32496 0.13416 0.0
H772 H 0.02648 0.26345 0.0312 0.0
H773 H 0.02896 0.28272 0.07007 0.0
C774 C 0.70804 0.61556 0.34868 0.0
C775 C 0.71305 0.6195 0.32009 0.0
C776 C 0.71034 0.62854 0.36767 0.0
C777 C 0.73807 0.6755 0.37545 0.0
H778 H 0.71201 0.66771 0.44513 0.0
C779 C 0.76208 0.72638 0.46377 0.0
C780 C 0.76385 0.71987 0.48999 0.0
C781 C 0.75201 0.71518 0.44209 0.0
C782 C 0.71931 0.67009 0.42563 0.0
H783 H 0.72295 0.63968 0.28828 0.0
H784 H 0.72627 0.66216 0.32101 0.0
H785 H 0.70089 0.64588 0.40767 0.0
H786 H 0.7555 0.69665 0.51482 0.0
H787 H 0.7379 0.67718 0.47709 0.0
H788 H 0.75661 0.69952 0.39361 0.0
C789 C 0.72123 0.64925 0.32918 0.0
C790 C 0.71302 0.65756 0.40425 0.0
C791 C 0.71924 0.63636 0.31035 0.0
C792 C 0.7545 0.70205 0.49475 0.0
C793 C 0.74428 0.69089 0.47323 0.0
C794 C 0.74422 0.68806 0.39663 0.0
C795 C 0.71745 0.64566 0.35832 0.0
C796 C 0.72258 0.65989 0.37922 0.0
C797 C 0.74336 0.69731 0.4464 0.0
C798 C 0.73517 0.68529 0.42227 0.0
H799 H 0.70325 0.60266 0.35674 0.0
H800 H 0.70743 0.62526 0.38996 0.0
H801 H 0.746 0.6777 0.3568 0.0
H802 H 0.7691 0.74007 0.45953 0.0
H803 H 0.75141 0.72046 0.42164 0.0
C804 C 0.30433 0.05335 0.50173 0.0
C805 C 0.28643 0.04471 0.49793 0.0
C806 C 0.31511 0.05426 0.47958 0.0
C807 C 0.31612 0.05666 0.40296 0.0
H808 H 0.35925 0.057 0.41087 0.0
C809 C 0.3658 0.08427 0.31369 0.0
C810 C 0.38279 0.09533 0.32243 0.0
C811 C 0.35349 0.07325 0.33319 0.0
C812 C 0.34729 0.05702 0.40832 0.0
H813 H 0.26569 0.02926 0.46862 0.0
H814 H 0.2846 0.03107 0.42966 0.0
H815 H 0.33825 0.04584 0.44958 0.0
H816 H 0.4005 0.10299 0.35797 0.0
H817 H 0.37888 0.08437 0.39242 0.0
H818 H 0.32537 0.06882 0.36278 0.0
C819 C 0.29025 0.03715 0.44982 0.0
C820 C 0.33524 0.05053 0.43042 0.0
C821 C 0.27945 0.03609 0.47212 0.0
C822 C 0.38747 0.09458 0.35069 0.0
C823 C 0.37506 0.08379 0.37038 0.0
C824 C 0.32821 0.06332 0.38107 0.0
C825 C 0.3082 0.04666 0.45309 0.0
C826 C 0.31971 0.05066 0.42819 0.0
C827 C 0.3578 0.07332 0.36203 0.0
C828 C 0.34413 0.06398 0.38371 0.0
H829 H 0.31009 0.06001 0.52147 0.0
H830 H 0.32888 0.0618 0.48265 0.0
H831 H 0.3044 0.05719 0.40081 0.0
H832 H 0.36191 0.08439 0.29187 0.0
H833 H 0.34045 0.06504 0.32577 0.0
C834 C 0.92262 0.29117 0.32331 0.0
C835 C 0.90717 0.29005 0.33187 0.0
C836 C 0.93335 0.28974 0.34334 0.0
C837 C 0.93752 0.28414 0.4223 0.0
H838 H 0.96114 0.26095 0.39446 0.0
C839 C 0.96202 0.2529 0.50192 0.0
C840 C 0.96085 0.2374 0.49354 0.0
C841 C 0.96051 0.26352 0.48177 0.0
C842 C 0.95441 0.26717 0.40281 0.0
H843 H 0.8908 0.28697 0.36774 0.0
H844 H 0.90856 0.28305 0.40241 0.0
H845 H 0.94817 0.27133 0.36098 0.0
H846 H 0.95758 0.2208 0.45792 0.0
H847 H 0.9535 0.23837 0.42305 0.0
H848 H 0.94197 0.2782 0.46416 0.0
C849 C 0.91315 0.28593 0.38069 0.0
C850 C 0.94725 0.27359 0.38337 0.0
C851 C 0.9028 0.28804 0.36078 0.0
C852 C 0.9587 0.23285 0.46471 0.0
C853 C 0.9565 0.2431 0.44469 0.0
C854 C 0.94409 0.27713 0.44175 0.0
C855 C 0.92845 0.28637 0.37222 0.0
C856 C 0.93825 0.28178 0.3928 0.0
C857 C 0.95699 0.25844 0.45298 0.0
C858 C 0.95225 0.2681 0.43234 0.0
H859 H 0.92627 0.29289 0.30102 0.0
H860 H 0.94524 0.29083 0.33588 0.0
H861 H 0.93133 0.29091 0.43065 0.0
H862 H 0.96383 0.25667 0.52416 0.0
H863 H 0.96163 0.27546 0.48908 0.0
C864 C 0.05759 0.63161 0.184 0.0
C865 C 0.05065 0.62318 0.15804 0.0
C866 C 0.04676 0.63068 0.20616 0.0
C867 C 0.00195 0.6184 0.22468 0.0
H868 H 0.01076 0.59976 0.29294 0.0
C869 C 0.94883 0.57545 0.30398 0.0
C870 C 0.95329 0.5745 0.3323 0.0
C871 C 0.96144 0.5861 0.28445 0.0
C872 C 0.00823 0.60538 0.27447 0.0
H873 H 0.02705 0.60826 0.13415 0.0
H874 H 0.0082 0.60669 0.17273 0.0
H875 H 0.03193 0.61076 0.25516 0.0
H876 H 0.97401 0.58501 0.36315 0.0
H877 H 0.99585 0.60415 0.32953 0.0
H878 H 0.97804 0.61268 0.2438 0.0
C879 C 0.02197 0.614 0.17602 0.0
C880 C 0.02042 0.61167 0.25272 0.0
C881 C 0.03277 0.61478 0.15401 0.0
C882 C 0.97029 0.5853 0.34129 0.0
C883 C 0.98281 0.59618 0.32195 0.0
C884 C 0.98979 0.61228 0.24663 0.0
C885 C 0.02882 0.62148 0.2026 0.0
C886 C 0.0172 0.61778 0.22728 0.0
C887 C 0.97871 0.59622 0.29302 0.0
C888 C 0.99256 0.60521 0.27148 0.0
H889 H 0.07133 0.63825 0.18768 0.0
H890 H 0.05236 0.63666 0.2264 0.0
H891 H 0.99923 0.6232 0.20535 0.0
H892 H 0.9358 0.56723 0.29651 0.0
H893 H 0.95776 0.58562 0.26235 0.0
C894 C 0.42215 0.38662 0.33696 0.0
C895 C 0.43122 0.37787 0.33216 0.0
C896 C 0.412 0.38774 0.31549 0.0
C897 C 0.41144 0.38986 0.23866 0.0
H898 H 0.36858 0.38962 0.24996 0.0
C899 C 0.38575 0.41473 0.15066 0.0
C900 C 0.3799 0.42583 0.15952 0.0
C901 C 0.38787 0.40429 0.17033 0.0
C902 C 0.38058 0.38981 0.24647 0.0
H903 H 0.43598 0.36257 0.30169 0.0
H904 H 0.41836 0.36472 0.264 0.0
H905 H 0.37983 0.3793 0.28787 0.0
H906 H 0.3708 0.43412 0.19554 0.0
H907 H 0.3752 0.41648 0.23023 0.0
H908 H 0.41294 0.40127 0.19821 0.0
C909 C 0.41917 0.37074 0.28439 0.0
C910 C 0.38695 0.38381 0.26813 0.0
C911 C 0.42922 0.36949 0.30597 0.0
C912 C 0.37532 0.42565 0.18816 0.0
C913 C 0.37776 0.41544 0.208 0.0
C914 C 0.4052 0.396 0.2172 0.0
C915 C 0.41082 0.38025 0.28871 0.0
C916 C 0.40263 0.38411 0.26461 0.0
C917 C 0.38456 0.40501 0.19944 0.0
C918 C 0.38986 0.39639 0.221 0.0
H919 H 0.42334 0.39311 0.35699 0.0
H920 H 0.40584 0.39528 0.31937 0.0
H921 H 0.4237 0.39052 0.2355 0.0
H922 H 0.38911 0.41442 0.12858 0.0
H923 H 0.39264 0.39607 0.1628 0.0
C924 C 0.57892 0.94338 0.19669 0.0
C925 C 0.57727 0.94989 0.17039 0.0
C926 C 0.5888 0.9546 0.2185 0.0
C927 C 0.62099 0.9998 0.23536 0.0
H928 H 0.59315 0.9922 0.30272 0.0
C929 C 0.6299 0.05454 0.30955 0.0
C930 C 0.62438 0.0508 0.33794 0.0
C931 C 0.62824 0.04149 0.29132 0.0
C932 C 0.60141 0.9944 0.28453 0.0
H933 H 0.58565 0.97309 0.1455 0.0
H934 H 0.60292 0.9926 0.18342 0.0
H935 H 0.58338 0.97018 0.26633 0.0
H936 H 0.61426 0.03095 0.37032 0.0
H937 H 0.61207 0.00836 0.33897 0.0
H938 H 0.63887 0.02422 0.25331 0.0
C939 C 0.5966 0.97888 0.18727 0.0
C940 C 0.59574 0.98172 0.26359 0.0
C941 C 0.58657 0.96771 0.16564 0.0
C942 C 0.61834 0.03411 0.34835 0.0
C943 C 0.61701 0.02115 0.33032 0.0
C944 C 0.6268 0.01244 0.25652 0.0
C945 C 0.59737 0.97248 0.21419 0.0
C946 C 0.60519 0.98451 0.2384 0.0
C947 C 0.62129 0.0245 0.30128 0.0
C948 C 0.61679 0.01013 0.28096 0.0
H949 H 0.57194 0.9297 0.2009 0.0
H950 H 0.58927 0.94935 0.23904 0.0
H951 H 0.62859 0.00218 0.21621 0.0
H952 H 0.63459 0.06732 0.301 0.0
H953 H 0.63152 0.04459 0.26907 0.0
C954 C 0.37505 0.9459 0.68766 0.0
C955 C 0.37379 0.94895 0.65876 0.0
C956 C 0.37718 0.95812 0.70807 0.0
C957 C 0.39129 0.00494 0.71269 0.0
H958 H 0.38561 0.99368 0.79298 0.0
C959 C 0.43307 0.05498 0.79611 0.0
C960 C 0.42839 0.05233 0.82488 0.0
C961 C 0.42259 0.04305 0.77564 0.0
C962 C 0.387 0.99727 0.77074 0.0
H963 H 0.37225 0.96624 0.62841 0.0
H964 H 0.37434 0.98688 0.66407 0.0
H965 H 0.37229 0.971 0.75843 0.0
H966 H 0.40868 0.03611 0.85494 0.0
H967 H 0.38953 0.01607 0.81913 0.0
H968 H 0.40486 0.03128 0.72499 0.0
C969 C 0.37483 0.97568 0.67118 0.0
C970 C 0.37963 0.98405 0.75067 0.0
C971 C 0.37338 0.96375 0.65067 0.0
C972 C 0.41257 0.03826 0.83277 0.0
C973 C 0.40173 0.02666 0.81218 0.0
C974 C 0.39807 0.01819 0.73275 0.0
C975 C 0.37753 0.97344 0.70011 0.0
C976 C 0.38238 0.9876 0.72132 0.0
C977 C 0.40686 0.02847 0.78339 0.0
C978 C 0.3968 0.01457 0.76212 0.0
H979 H 0.37556 0.93461 0.69428 0.0
H980 H 0.37952 0.95583 0.7298 0.0
H981 H 0.39386 0.00848 0.69046 0.0
H982 H 0.44535 0.06572 0.78966 0.0
H983 H 0.42737 0.04493 0.75403 0.0
C984 C 0.04898 0.42402 0.68371 0.0
C985 C 0.04463 0.42525 0.65543 0.0
C986 C 0.03629 0.41322 0.70299 0.0
C987 C 0.98951 0.39396 0.71277 0.0
H988 H 0.99851 0.37581 0.78152 0.0
C989 C 0.94056 0.36803 0.8039 0.0
C990 C 0.94771 0.37663 0.82966 0.0
C991 C 0.95121 0.36878 0.78157 0.0
C992 C 0.99578 0.38069 0.76228 0.0
H993 H 0.02402 0.41508 0.62437 0.0
H994 H 0.00203 0.39569 0.65757 0.0
H995 H 0.0196 0.38631 0.74294 0.0
H996 H 0.97149 0.39164 0.85304 0.0
H997 H 0.99003 0.39287 0.81418 0.0
H998 H 0.96589 0.38867 0.73234 0.0
C999 C 0.01505 0.40354 0.66531 0.0
C1000 C 0.00788 0.3868 0.74025 0.0
C1001 C 0.02766 0.41459 0.64621 0.0
C1002 C 0.96561 0.38501 0.83335 0.0
C1003 C 0.97623 0.38558 0.81118 0.0
C1004 C 0.97736 0.38766 0.73459 0.0
C1005 C 0.01905 0.40321 0.69421 0.0
C1006 C 0.00515 0.39404 0.7156 0.0
C1007 C 0.96917 0.37794 0.78478 0.0
C1008 C 0.9806 0.38147 0.75992 0.0
H1009 H 0.06198 0.43212 0.69138 0.0
H1010 H 0.03989 0.41349 0.72508 0.0
H1011 H 0.987 0.39968 0.69443 0.0
H1012 H 0.9268 0.36142 0.8005 0.0
H1013 H 0.94545 0.3627 0.76146 0.0
C1014 C 0.60519 0.57901 0.83624 0.0
C1015 C 0.6184 0.57506 0.8337 0.0
C1016 C 0.60332 0.58934 0.81605 0.0
C1017 C 0.60327 0.61494 0.77508 0.0
H1018 H 0.60883 0.60457 0.69701 0.0
C1019 C 0.57437 0.63404 0.68183 0.0
C1020 C 0.56577 0.62104 0.66143 0.0
C1021 C 0.5854 0.63286 0.70165 0.0
C1022 C 0.60717 0.6076 0.71869 0.0
H1023 H 0.64072 0.57976 0.809 0.0
H1024 H 0.63778 0.59827 0.77404 0.0
H1025 H 0.61952 0.59449 0.73554 0.0
H1026 H 0.56232 0.59688 0.64532 0.0
H1027 H 0.58087 0.59453 0.68014 0.0
H1028 H 0.58957 0.62673 0.75831 0.0
C1029 C 0.62855 0.59298 0.79125 0.0
C1030 C 0.61358 0.60205 0.74087 0.0
C1031 C 0.6303 0.58244 0.81135 0.0
C1032 C 0.56877 0.60715 0.66072 0.0
C1033 C 0.57961 0.60589 0.6806 0.0
C1034 C 0.59661 0.62024 0.75292 0.0
C1035 C 0.61476 0.59619 0.79293 0.0
C1036 C 0.61111 0.60506 0.76942 0.0
C1037 C 0.58792 0.6186 0.70157 0.0
C1038 C 0.59788 0.61604 0.7245 0.0
H1039 H 0.59579 0.57353 0.8532 0.0
H1040 H 0.59236 0.5912 0.8179 0.0
H1041 H 0.60156 0.61792 0.79677 0.0
H1042 H 0.57241 0.64498 0.68276 0.0
H1043 H 0.59175 0.643 0.71726 0.0
C1044 C 0.20973 0.02165 0.99381 0.0
C1045 C 0.1935 0.01009 0.98245 0.0
C1046 C 0.21391 0.03847 0.00078 0.0
C1047 C 0.20125 0.07025 0.98089 0.0
H1048 H 0.22801 0.09573 0.04663 0.0
C1049 C 0.20793 0.13486 0.01352 0.0
C1050 C 0.2241 0.14801 0.02267 0.0
C1051 C 0.20502 0.11828 0.00885 0.0
C1052 C 0.2207 0.08882 0.02799 0.0
H1053 H 0.16853 0.00665 0.97141 0.0
H1054 H 0.17565 0.03569 0.9841 0.0
H1055 H 0.22101 0.06591 0.03978 0.0
H1056 H 0.24996 0.15404 0.03391 0.0
H1057 H 0.24484 0.125 0.02556 0.0
H1058 H 0.20084 0.09302 0.96908 0.0
C1059 C 0.18534 0.03201 0.98687 0.0
C1060 C 0.21668 0.07176 0.02411 0.0
C1061 C 0.18122 0.01532 0.9798 0.0
C1062 C 0.23735 0.14421 0.02683 0.0
C1063 C 0.2344 0.12756 0.02225 0.0
C1064 C 0.20524 0.08723 0.98477 0.0
C1065 C 0.20189 0.04395 -0.00342 0.0
C1066 C 0.20671 0.06222 0.00068 0.0
C1067 C 0.21819 0.11441 0.01325 0.0
C1068 C 0.21484 0.09666 0.00852 0.0
H1069 H 0.21947 0.01799 -0.00397 0.0
H1070 H 0.22677 0.04737 0.0082 0.0
H1071 H 0.19394 0.06342 0.9622 0.0
H1072 H 0.19741 0.1373 0.01019 0.0
H1073 H 0.19231 0.10839 0.00227 0.0
C1074 C 0.97695 0.17087 0.98183 0.0
C1075 C 0.98262 0.18842 0.98558 0.0
C1076 C 0.96011 0.15848 0.98838 0.0
C1077 C 0.92096 0.14964 0.02711 0.0
H1078 H 0.89901 0.11442 0.96917 0.0
C1079 C 0.84906 0.09561 0.03193 0.0
C1080 C 0.84601 0.07903 0.02548 0.0
C1081 C 0.86528 0.11003 0.02722 0.0
C1082 C 0.90497 0.12409 0.98564 0.0
H1083 H 0.97532 0.20669 0.00062 0.0
H1084 H 0.94567 0.18485 0.01214 0.0
H1085 H 0.9284 0.13754 0.96221 0.0
H1086 H 0.85763 0.06464 0.00893 0.0
H1087 H 0.8857 0.08961 0.00088 0.0
H1088 H 0.89744 0.13593 0.05068 0.0
C1089 C 0.95436 0.18077 0.0041 0.0
C1090 C 0.92182 0.13733 0.98167 0.0
C1091 C 0.97131 0.19326 -0.00249 0.0
C1092 C 0.85946 0.0772 0.01407 0.0
C1093 C 0.87557 0.09155 0.00928 0.0
C1094 C 0.90402 0.13631 0.03112 0.0
C1095 C 0.94848 0.1633 -0.00121 0.0
C1096 C 0.93014 0.15004 0.0026 0.0
C1097 C 0.87869 0.10813 0.01578 0.0
C1098 C 0.89599 0.12321 0.01065 0.0
H1099 H 0.98538 0.16668 0.97298 0.0
H1100 H 0.95608 0.14508 0.98472 0.0
H1101 H 0.92706 0.15928 0.04359 0.0
H1102 H 0.83897 0.09746 0.04081 0.0
H1103 H 0.86728 0.12267 0.03227 0.0
C1104 C 0.82526 0.80564 -0.00414 0.0
C1105 C 0.80922 0.79318 0.9853 0.0
C1106 C 0.83724 0.80104 0.00471 0.0
C1107 C 0.84373 0.76347 0.01801 0.0
H1108 H 0.89064 0.79731 -0.00118 0.0
C1109 C 0.90164 0.75391 0.04374 0.0
C1110 C 0.91594 0.76165 0.02553 0.0
C1111 C 0.88782 0.75675 0.03979 0.0
C1112 C 0.87761 0.78754 0.00392 0.0
H1113 H 0.79274 0.76607 0.97662 0.0
H1114 H 0.81395 0.75806 0.9906 0.0
H1115 H 0.86809 0.80399 0.9914 0.0
H1116 H 0.92659 0.77747 0.98793 0.0
H1117 H 0.90219 0.78163 0.98 0.0
H1118 H 0.85328 0.74663 0.02881 0.0
C1119 C 0.8172 0.77133 0.99302 0.0
C1120 C 0.86462 0.79155 0.00028 0.0
C1121 C 0.80502 0.7759 0.9849 0.0
C1122 C 0.91582 0.77155 0.00252 0.0
C1123 C 0.90187 0.77406 -0.00181 0.0
C1124 C 0.85674 0.75932 0.02116 0.0
C1125 C 0.83367 0.78394 0.00229 0.0
C1126 C 0.84748 0.77962 0.00731 0.0
C1127 C 0.88788 0.76711 0.01722 0.0
C1128 C 0.87386 0.7713 0.01404 0.0
H1129 H 0.82871 0.81904 -0.00332 0.0
H1130 H 0.8495 0.81105 0.01269 0.0
H1131 H 0.83075 0.75398 0.02398 0.0
H1132 H 0.90147 0.74628 0.06175 0.0
H1133 H 0.8774 0.7513 0.05506 0.0
C1134 C 0.1408 0.21646 0.47016 0.0
C1135 C 0.15402 0.2323 0.45996 0.0
C1136 C 0.12414 0.21359 0.47333 0.0
C1137 C 0.09889 0.23519 0.48185 0.0
H1138 H 0.06123 0.19053 0.45974 0.0
C1139 C 0.0274 0.21618 0.49639 0.0
C1140 C 0.01739 0.20024 0.50994 0.0
C1141 C 0.04379 0.22089 0.48603 0.0
C1142 C 0.07161 0.20305 0.46604 0.0
H1143 H 0.16013 0.25771 0.44566 0.0
H1144 H 0.13088 0.25264 0.45128 0.0
H1145 H 0.09073 0.19759 0.45053 0.0
H1146 H 0.01643 0.1765 0.52232 0.0
H1147 H 0.04482 0.18465 0.50424 0.0
H1148 H 0.07967 0.24046 0.49793 0.0
C1149 C 0.13351 0.24248 0.45684 0.0
C1150 C 0.0885 0.20709 0.46084 0.0
C1151 C 0.15024 0.24536 0.45358 0.0
C1152 C 0.02381 0.18888 0.51201 0.0
C1153 C 0.04006 0.19351 0.50148 0.0
C1154 C 0.08194 0.23114 0.48706 0.0
C1155 C 0.12025 0.22647 0.46641 0.0
C1156 C 0.10234 0.22302 0.46933 0.0
C1157 C 0.05035 0.20965 0.48875 0.0
C1158 C 0.06814 0.21486 0.47982 0.0
H1159 H 0.14323 0.20614 0.47544 0.0
H1160 H 0.11429 0.20124 0.48134 0.0
H1161 H 0.10928 0.24755 0.48875 0.0
H1162 H 0.0228 0.22521 0.49454 0.0
H1163 H 0.0514 0.23336 0.47613 0.0
C1164 C 0.81154 0.83217 0.51065 0.0
C1165 C 0.80014 0.81447 0.50742 0.0
C1166 C 0.80639 0.84403 0.50398 0.0
C1167 C 0.77454 0.85069 0.46528 0.0
H1168 H 0.7879 0.88724 0.52071 0.0
C1169 C 0.75428 0.90286 0.45755 0.0
C1170 C 0.76766 0.91979 0.46223 0.0
C1171 C 0.75669 0.88891 0.46332 0.0
C1172 C 0.78414 0.87718 0.50496 0.0
H1173 H 0.77462 0.79535 0.4934 0.0
H1174 H 0.76556 0.81623 0.48173 0.0
H1175 H 0.79523 0.86495 0.52894 0.0
H1176 H 0.79399 0.93531 0.47685 0.0
H1177 H 0.79814 0.91113 0.48681 0.0
H1178 H 0.76359 0.86315 0.44117 0.0
C1179 C 0.77851 0.82086 0.48941 0.0
C1180 C 0.78837 0.86442 0.50963 0.0
C1181 C 0.78369 0.80892 0.49609 0.0
C1182 C 0.78339 0.92246 0.47304 0.0
C1183 C 0.78575 0.90857 0.47892 0.0
C1184 C 0.77029 0.86351 0.46058 0.0
C1185 C 0.78969 0.83851 0.49399 0.0
C1186 C 0.78396 0.85124 0.48959 0.0
C1187 C 0.77247 0.89165 0.4741 0.0
C1188 C 0.77537 0.87708 0.48012 0.0
H1189 H 0.82436 0.83691 0.51904 0.0
H1190 H 0.81544 0.85758 0.50707 0.0
H1191 H 0.77099 0.8407 0.44945 0.0
H1192 H 0.74201 0.90037 0.44918 0.0
H1193 H 0.7462 0.87599 0.45955 0.0
C1194 C 0.08189 0.86448 0.47752 0.0
C1195 C 0.0841 0.85153 0.46487 0.0
C1196 C 0.09606 0.88035 0.48438 0.0
C1197 C 0.14124 0.90957 0.46613 0.0
H1198 H 0.14085 0.93164 0.53691 0.0
C1199 C 0.19707 0.97621 0.50412 0.0
C1200 C 0.19191 0.98717 0.51647 0.0
C1201 C 0.18484 0.95925 0.49705 0.0
C1202 C 0.1411 0.92571 0.51696 0.0
H1203 H 0.10302 0.84513 0.44968 0.0
H1204 H 0.12788 0.87301 0.4618 0.0
H1205 H 0.11798 0.90247 0.52712 0.0
H1206 H 0.16986 0.98921 0.52978 0.0
H1207 H 0.1487 0.9599 0.5172 0.0
H1208 H 0.16434 0.93303 0.45591 0.0
C1209 C 0.1151 0.8708 0.46621 0.0
C1210 C 0.12801 0.90898 0.51137 0.0
C1211 C 0.10087 0.85482 0.45944 0.0
C1212 C 0.1743 0.98107 0.52056 0.0
C1213 C 0.16216 0.96421 0.51353 0.0
C1214 C 0.1544 0.92638 0.47174 0.0
C1215 C 0.11282 0.88373 0.47875 0.0
C1216 C 0.12772 0.90085 0.48566 0.0
C1217 C 0.16729 0.95299 0.50229 0.0
C1218 C 0.15424 0.93473 0.49697 0.0
H1219 H 0.06917 0.86243 0.48196 0.0
H1220 H 0.09385 0.89012 0.49364 0.0
H1221 H 0.1413 0.90366 0.44605 0.0
H1222 H 0.21055 0.98055 0.50074 0.0
H1223 H 0.18917 0.95089 0.48841 0.0
C1224 C 0.8093 0.97754 0.00809 0.0
C1225 C 0.79758 0.98342 0.00448 0.0
C1226 C 0.80466 0.96067 0.00123 0.0
C1227 C 0.77405 0.92198 0.96172 0.0
H1228 H 0.78642 0.89905 0.01925 0.0
C1229 C 0.75429 0.84972 0.95506 0.0
C1230 C 0.76738 0.84604 0.96163 0.0
C1231 C 0.75658 0.86609 0.9603 0.0
C1232 C 0.78297 0.90529 0.00287 0.0
H1233 H 0.7721 0.97649 0.98941 0.0
H1234 H 0.76397 0.94684 0.97733 0.0
H1235 H 0.7934 0.92863 0.0267 0.0
H1236 H 0.79311 0.85667 0.97904 0.0
H1237 H 0.7971 0.88502 0.98794 0.0
H1238 H 0.76381 0.89858 0.93773 0.0
C1239 C 0.77675 0.95536 0.9855 0.0
C1240 C 0.78699 0.92224 0.00713 0.0
C1241 C 0.78141 0.97232 0.99242 0.0
C1242 C 0.78272 0.859 0.97379 0.0
C1243 C 0.78498 0.87527 0.97906 0.0
C1244 C 0.77005 0.90495 0.9574 0.0
C1245 C 0.78818 0.94926 0.99063 0.0
C1246 C 0.78287 0.93089 0.9864 0.0
C1247 C 0.77198 0.87904 0.97235 0.0
C1248 C 0.77476 0.89654 0.97774 0.0
H1249 H 0.82192 0.9858 0.01706 0.0
H1250 H 0.81389 0.95646 0.00478 0.0
H1251 H 0.77073 0.92834 0.94538 0.0
H1252 H 0.74232 0.84003 0.94564 0.0
H1253 H 0.74628 0.86857 0.95511 0.0
C1254 C 0.14375 0.89861 0.95228 0.0
C1255 C 0.14593 0.91516 0.95541 0.0
C1256 C 0.12737 0.88404 0.9541 0.0
C1257 C 0.08141 0.87074 0.94758 0.0
H1258 H 0.07345 0.83189 0.99443 0.0
C1259 C 0.01564 0.82386 0.99477 0.0
C1260 C 0.01053 0.80638 -0.00269 0.0
C1261 C 0.03194 0.83562 0.98461 0.0
C1262 C 0.0755 0.84247 0.98079 0.0
H1263 H 0.13259 0.9293 0.96333 0.0
H1264 H 0.10422 0.90402 0.96665 0.0
H1265 H 0.10278 0.85547 0.98704 0.0
H1266 H 0.0183 0.78738 0.99024 0.0
H1267 H 0.04698 0.80808 0.97243 0.0
H1268 H 0.05416 0.85802 0.9419 0.0
C1269 C 0.1151 0.90228 0.96238 0.0
C1270 C 0.09229 0.85599 0.97662 0.0
C1271 C 0.13142 0.91679 0.96071 0.0
C1272 C 0.02188 0.80079 0.98848 0.0
C1273 C 0.03831 0.81263 0.97848 0.0
C1274 C 0.06467 0.85725 0.95171 0.0
C1275 C 0.11286 0.88575 0.95887 0.0
C1276 C 0.09537 0.87048 0.96061 0.0
C1277 C 0.04359 0.83022 0.97686 0.0
C1278 C 0.06148 0.84319 0.96899 0.0
H1279 H 0.15467 0.8969 0.94816 0.0
H1280 H 0.12602 0.87146 0.95126 0.0
H1281 H 0.08342 0.88156 0.93459 0.0
H1282 H 0.00719 0.82858 0.00136 0.0
H1283 H 0.03566 0.84909 0.98398 0.0
C1284 C 0.16577 0.19052 0.00695 0.0
C1285 C 0.18353 0.20209 0.006 0.0
C1286 C 0.15415 0.19544 -0.00249 0.0
C1287 C 0.14936 0.23317 0.98862 0.0
H1288 H 0.10791 0.2009 0.94839 0.0
C1289 C 0.09469 0.24735 0.95866 0.0
C1290 C 0.07789 0.23376 0.96362 0.0
C1291 C 0.10876 0.24475 0.96119 0.0
C1292 C 0.11938 0.21003 0.95974 0.0
H1293 H 0.20311 0.22782 0.99378 0.0
H1294 H 0.18265 0.2365 0.97728 0.0
H1295 H 0.13064 0.19404 0.9559 0.0
H1296 H 0.06281 0.20692 0.97585 0.0
H1297 H 0.08723 0.20249 0.98045 0.0
H1298 H 0.13785 0.24897 0.99302 0.0
C1299 C 0.17779 0.22361 0.98545 0.0
C1300 C 0.13241 0.20612 0.96397 0.0
C1301 C 0.18948 0.21861 0.99471 0.0
C1302 C 0.07553 0.21766 0.9717 0.0
C1303 C 0.08953 0.21507 0.97412 0.0
C1304 C 0.13628 0.2371 0.98438 0.0
C1305 C 0.16 0.21209 0.98699 0.0
C1306 C 0.14735 0.21743 0.97909 0.0
C1307 C 0.10628 0.2285 0.96857 0.0
C1308 C 0.12097 0.22535 0.97054 0.0
H1309 H 0.16076 0.17769 0.01551 0.0
H1310 H 0.14054 0.18633 -0.00066 0.0
H1311 H 0.16068 0.24208 0.00053 0.0
H1312 H 0.09696 0.25992 0.9524 0.0
H1313 H 0.12152 0.25534 0.95673 0.0
C1314 C 0.98316 0.81293 0.48114 0.0
C1315 C 0.98887 0.80097 0.48031 0.0
C1316 C 0.96663 0.80808 0.49051 0.0
C1317 C 0.92355 0.77059 0.49602 0.0
H1318 H 0.91466 0.80199 0.53964 0.0
C1319 C 0.85489 0.75653 0.527 0.0
C1320 C 0.85193 0.77039 0.5235 0.0
C1321 C 0.87146 0.75896 0.524 0.0
C1322 C 0.91693 0.79311 0.52733 0.0
H1323 H 0.98187 0.7746 0.48941 0.0
H1324 H 0.95279 0.76606 0.50587 0.0
H1325 H 0.94416 0.80857 0.53221 0.0
H1326 H 0.86402 0.79755 0.51327 0.0
H1327 H 0.89272 0.80169 0.50786 0.0
H1328 H 0.89624 0.75532 0.4907 0.0
C1329 C 0.96117 0.77919 0.49909 0.0
C1330 C 0.93382 0.79686 0.52313 0.0
C1331 C 0.97783 0.78411 0.48986 0.0
C1332 C 0.86581 0.7866 0.51629 0.0
C1333 C 0.88232 0.78902 0.5134 0.0
C1334 C 0.90659 0.76682 0.50026 0.0
C1335 C 0.95535 0.7911 0.4992 0.0
C1336 C 0.93735 0.78587 0.50684 0.0
C1337 C 0.88539 0.77531 0.51759 0.0
C1338 C 0.90315 0.77828 0.51536 0.0
H1339 H 0.99134 0.82603 0.47394 0.0
H1340 H 0.96249 0.81751 0.48996 0.0
H1341 H 0.92586 0.76194 0.48317 0.0
H1342 H 0.84447 0.74387 0.53257 0.0
H1343 H 0.87345 0.74815 0.52738 0.0
C1344 C 0.19422 0.17151 0.48107 0.0
C1345 C 0.20597 0.1892 0.48321 0.0
C1346 C 0.19913 0.15951 0.48807 0.0
C1347 C 0.23097 0.15247 0.52568 0.0
H1348 H 0.21674 0.1157 0.47039 0.0
C1349 C 0.25052 0.09982 0.53303 0.0
C1350 C 0.23712 0.08292 0.52817 0.0
C1351 C 0.24819 0.11383 0.52736 0.0
C1352 C 0.22073 0.12581 0.48613 0.0
H1353 H 0.23185 0.20818 0.49586 0.0
H1354 H 0.24047 0.18704 0.50819 0.0
H1355 H 0.20966 0.1382 0.46252 0.0
H1356 H 0.21082 0.06754 0.51331 0.0
H1357 H 0.20679 0.09181 0.5036 0.0
H1358 H 0.24186 0.13983 0.54947 0.0
C1359 C 0.22744 0.18255 0.50105 0.0
C1360 C 0.21665 0.13869 0.48165 0.0
C1361 C 0.22251 0.19463 0.49401 0.0
C1362 C 0.22145 0.08036 0.51723 0.0
C1363 C 0.21916 0.09431 0.5115 0.0
C1364 C 0.23504 0.1395 0.53022 0.0
C1365 C 0.21592 0.16488 0.49733 0.0
C1366 C 0.22141 0.15197 0.50162 0.0
C1367 C 0.23246 0.1112 0.51654 0.0
C1368 C 0.22965 0.12585 0.51073 0.0
H1369 H 0.18131 0.16688 0.47313 0.0
H1370 H 0.18983 0.14598 0.48565 0.0
H1371 H 0.2348 0.16255 0.54143 0.0
H1372 H 0.26275 0.10224 0.5415 0.0
H1373 H 0.25872 0.12671 0.53125 0.0
C1374 C 0.92394 0.13465 0.54182 0.0
C1375 C 0.92321 0.14934 0.53395 0.0
C1376 C 0.90995 0.11829 0.53715 0.0
C1377 C 0.8634 0.09453 0.51755 0.0
H1378 H 0.8746 0.05972 0.49543 0.0
C1379 C 0.81101 0.0236 0.49548 0.0
C1380 C 0.81439 0.01521 0.4733 0.0
C1381 C 0.8238 0.03985 0.50478 0.0
C1382 C 0.87118 0.06929 0.50126 0.0
H1383 H 0.90716 0.15847 0.5154 0.0
H1384 H 0.88291 0.1298 0.50585 0.0
H1385 H 0.89746 0.08829 0.50701 0.0
H1386 H 0.83361 0.01743 0.44296 0.0
H1387 H 0.8555 0.04574 0.45829 0.0
H1388 H 0.83708 0.07559 0.51007 0.0
C1389 C 0.89412 0.1309 0.51643 0.0
C1390 C 0.88435 0.08569 0.50846 0.0
C1391 C 0.90806 0.14734 0.52169 0.0
C1392 C 0.83066 0.02343 0.46041 0.0
C1393 C 0.84329 0.03968 0.46936 0.0
C1394 C 0.85019 0.07812 0.50989 0.0
C1395 C 0.89497 0.11613 0.52382 0.0
C1396 C 0.88069 0.09857 0.51669 0.0
C1397 C 0.84013 0.04808 0.49183 0.0
C1398 C 0.85394 0.06533 0.50142 0.0
H1399 H 0.93534 0.1358 0.5518 0.0
H1400 H 0.91095 0.10731 0.54395 0.0
H1401 H 0.86004 0.10402 0.52414 0.0
H1402 H 0.79856 0.01756 0.50579 0.0
H1403 H 0.82095 0.04585 0.52232 0.0
C1404 C 0.88541 0.47268 0.34382 0.0
C1405 C 0.90084 0.48566 0.3557 0.0
C1406 C 0.8831 0.4564 0.33846 0.0
C1407 C 0.89812 0.42681 0.36011 0.0
H1408 H 0.87396 0.40249 0.29173 0.0
C1409 C 0.88584 0.35883 0.32713 0.0
C1410 C 0.86952 0.34768 0.31558 0.0
C1411 C 0.89072 0.37592 0.3334 0.0
C1412 C 0.88061 0.40906 0.31105 0.0
H1413 H 0.92606 0.49172 0.37091 0.0
H1414 H 0.92203 0.46317 0.3613 0.0
H1415 H 0.88117 0.4322 0.29852 0.0
H1416 H 0.84519 0.3454 0.30322 0.0
H1417 H 0.85361 0.37497 0.31441 0.0
H1418 H 0.89741 0.40348 0.3726 0.0
C1419 C 0.91168 0.46564 0.35641 0.0
C1420 C 0.88475 0.42609 0.31492 0.0
C1421 C 0.91402 0.48201 0.36172 0.0
C1422 C 0.85792 0.35369 0.31181 0.0
C1423 C 0.86278 0.37069 0.31804 0.0
C1424 C 0.89398 0.40971 0.35619 0.0
C1425 C 0.89616 0.45264 0.34481 0.0
C1426 C 0.89326 0.43507 0.33972 0.0
C1427 C 0.87938 0.38212 0.32815 0.0
C1428 C 0.88487 0.40057 0.33187 0.0
H1429 H 0.87495 0.47499 0.33898 0.0
H1430 H 0.87089 0.44661 0.3299 0.0
H1431 H 0.90458 0.43336 0.37954 0.0
H1432 H 0.89506 0.35457 0.33024 0.0
H1433 H 0.9036 0.38446 0.3412 0.0
C1434 C 0.64908 0.50544 0.32179 0.0
C1435 C 0.65456 0.52305 0.3202 0.0
C1436 C 0.63282 0.49381 0.33225 0.0
C1437 C 0.58968 0.48776 0.3394 0.0
H1438 H 0.58198 0.44813 0.38381 0.0
C1439 C 0.52167 0.43229 0.3712 0.0
C1440 C 0.51908 0.41563 0.36731 0.0
C1441 C 0.53811 0.44668 0.36849 0.0
C1442 C 0.58392 0.4591 0.37133 0.0
H1443 H 0.64747 0.54237 0.32915 0.0
H1444 H 0.61885 0.52189 0.34751 0.0
H1445 H 0.61124 0.47135 0.37537 0.0
H1446 H 0.53173 0.4011 0.35702 0.0
H1447 H 0.56021 0.42609 0.35218 0.0
H1448 H 0.5623 0.47524 0.33484 0.0
C1449 C 0.6272 0.51715 0.34049 0.0
C1450 C 0.60067 0.47241 0.36655 0.0
C1451 C 0.6436 0.52886 0.33017 0.0
C1452 C 0.53323 0.41371 0.36027 0.0
C1453 C 0.54961 0.42804 0.35773 0.0
C1454 C 0.57287 0.47442 0.34424 0.0
C1455 C 0.62158 0.49946 0.34131 0.0
C1456 C 0.60377 0.48667 0.34988 0.0
C1457 C 0.55228 0.44467 0.36206 0.0
C1458 C 0.56986 0.45974 0.3596 0.0
H1459 H 0.65721 0.50054 0.31431 0.0
H1460 H 0.62882 0.48026 0.33223 0.0
H1461 H 0.59166 0.49852 0.32628 0.0
H1462 H 0.51104 0.43421 0.37664 0.0
H1463 H 0.5398 0.45935 0.37198 0.0
C1464 C 0.49788 0.14523 0.30973 0.0
C1465 C 0.48025 0.13357 0.31307 0.0
C1466 C 0.51 0.14046 0.31653 0.0
C1467 C 0.51779 0.10955 0.35561 0.0
H1468 H 0.55348 0.12242 0.29869 0.0
C1469 C 0.57071 0.09042 0.36318 0.0
C1470 C 0.58749 0.10375 0.35728 0.0
C1471 C 0.55656 0.09252 0.3575 0.0
C1472 C 0.54368 0.11882 0.31488 0.0
H1473 H 0.46153 0.10802 0.3276 0.0
H1474 H 0.48289 0.09964 0.33958 0.0
H1475 H 0.53081 0.12927 0.29097 0.0
H1476 H 0.60252 0.12963 0.34046 0.0
H1477 H 0.57799 0.13325 0.33073 0.0
H1478 H 0.53092 0.09931 0.3797 0.0
C1479 C 0.48725 0.11249 0.33166 0.0
C1480 C 0.5307 0.12276 0.31047 0.0
C1481 C 0.47504 0.11729 0.32481 0.0
C1482 C 0.58979 0.11907 0.34522 0.0
C1483 C 0.5757 0.12113 0.33947 0.0
C1484 C 0.53086 0.10562 0.36007 0.0
C1485 C 0.50482 0.12389 0.32679 0.0
C1486 C 0.51781 0.1185 0.33103 0.0
C1487 C 0.55893 0.10792 0.34563 0.0
C1488 C 0.54413 0.11053 0.33997 0.0
H1489 H 0.50235 0.15794 0.30103 0.0
H1490 H 0.52348 0.14967 0.3132 0.0
H1491 H 0.50803 0.10613 0.37182 0.0
H1492 H 0.56849 0.07846 0.37252 0.0
H1493 H 0.54377 0.08206 0.36227 0.0
C1494 C 0.8117 0.57803 0.78627 0.0
C1495 C 0.81378 0.56364 0.78992 0.0
C1496 C 0.79542 0.57642 0.78863 0.0
C1497 C 0.74938 0.54396 0.78396 0.0
H1498 H 0.74206 0.57566 0.82972 0.0
C1499 C 0.68399 0.52599 0.83151 0.0
C1500 C 0.67891 0.53841 0.83342 0.0
C1501 C 0.70028 0.53038 0.82151 0.0
C1502 C 0.74393 0.56689 0.8164 0.0
H1503 H 0.8004 0.53632 0.79942 0.0
H1504 H 0.7722 0.53358 0.80362 0.0
H1505 H 0.77128 0.58111 0.82198 0.0
H1506 H 0.68674 0.56511 0.82551 0.0
H1507 H 0.71542 0.57285 0.80795 0.0
H1508 H 0.72209 0.52952 0.77887 0.0
C1509 C 0.78307 0.54606 0.79855 0.0
C1510 C 0.76066 0.56999 0.81203 0.0
C1511 C 0.79929 0.54768 0.79637 0.0
C1512 C 0.6903 0.55526 0.82422 0.0
C1513 C 0.70674 0.55971 0.81437 0.0
C1514 C 0.73272 0.54089 0.78826 0.0
C1515 C 0.78091 0.56035 0.79444 0.0
C1516 C 0.76349 0.55829 0.79643 0.0
C1517 C 0.71195 0.54734 0.81324 0.0
C1518 C 0.72976 0.55205 0.80518 0.0
H1519 H 0.8226 0.59051 0.78129 0.0
H1520 H 0.79412 0.58765 0.78533 0.0
H1521 H 0.7512 0.53492 0.77129 0.0
H1522 H 0.67552 0.51289 0.8384 0.0
H1523 H 0.70395 0.52059 0.82129 0.0
C1524 C 0.47925 0.1634 0.83914 0.0
C1525 C 0.46714 0.14578 0.83778 0.0
C1526 C 0.47493 0.17558 0.8303 0.0
C1527 C 0.43781 0.18164 0.82287 0.0
H1528 H 0.47084 0.2238 0.78524 0.0
C1529 C 0.42428 0.23687 0.79471 0.0
C1530 C 0.43783 0.25363 0.80001 0.0
C1531 C 0.42685 0.22279 0.79722 0.0
C1532 C 0.46151 0.21214 0.79592 0.0
H1533 H 0.44118 0.12704 0.82512 0.0
H1534 H 0.43361 0.14844 0.80954 0.0
H1535 H 0.47723 0.20063 0.79116 0.0
H1536 H 0.46454 0.26865 0.81302 0.0
H1537 H 0.46891 0.24417 0.81767 0.0
H1538 H 0.42223 0.19333 0.82808 0.0
C1539 C 0.44641 0.15278 0.81768 0.0
C1540 C 0.46515 0.19885 0.79924 0.0
C1541 C 0.45079 0.14054 0.82638 0.0
C1542 C 0.45384 0.25595 0.80861 0.0
C1543 C 0.4564 0.24191 0.81105 0.0
C1544 C 0.43415 0.19495 0.81953 0.0
C1545 C 0.45838 0.17044 0.81996 0.0
C1546 C 0.45352 0.1836 0.81329 0.0
C1547 C 0.44302 0.22521 0.80498 0.0
C1548 C 0.44614 0.21049 0.80657 0.0
H1549 H 0.49197 0.16786 0.8478 0.0
H1550 H 0.48439 0.18906 0.83267 0.0
H1551 H 0.42865 0.17011 0.83406 0.0
H1552 H 0.41179 0.23463 0.78801 0.0
H1553 H 0.41631 0.21007 0.79235 0.0
C1554 C 0.76434 0.18452 0.7945 0.0
C1555 C 0.74776 0.18094 0.80238 0.0
C1556 C 0.77867 0.20064 0.80025 0.0
C1557 C 0.79279 0.23885 0.84606 0.0
H1558 H 0.82634 0.26342 0.78677 0.0
C1559 C 0.83669 0.31132 0.85184 0.0
C1560 C 0.85431 0.318 0.8468 0.0
C1561 C 0.82488 0.29428 0.84532 0.0
C1562 C 0.81718 0.25662 0.80362 0.0
H1563 H 0.73331 0.19143 0.82277 0.0
H1564 H 0.75813 0.21933 0.8326 0.0
H1565 H 0.80359 0.23366 0.77861 0.0
H1566 H 0.87327 0.31224 0.82963 0.0
H1567 H 0.85243 0.28225 0.81802 0.0
H1568 H 0.80605 0.26178 0.87085 0.0
C1569 C 0.76014 0.2097 0.82225 0.0
C1570 C 0.8042 0.23959 0.799 0.0
C1571 C 0.74587 0.1937 0.81644 0.0
C1572 C 0.85977 0.30745 0.83377 0.0
C1573 C 0.84787 0.29031 0.82713 0.0
C1574 C 0.80567 0.25579 0.85062 0.0
C1575 C 0.77669 0.21339 0.81418 0.0
C1576 C 0.79163 0.23068 0.81996 0.0
C1577 C 0.83036 0.28347 0.83356 0.0
C1578 C 0.81776 0.265 0.82923 0.0
H1579 H 0.76622 0.17497 0.7836 0.0
H1580 H 0.79129 0.20309 0.79393 0.0
H1581 H 0.78354 0.2322 0.86288 0.0
H1582 H 0.83201 0.31913 0.8616 0.0
H1583 H 0.81142 0.28948 0.84991 0.0
C1584 C 0.45188 0.19805 0.2993 0.0
C1585 C 0.43571 0.18433 0.29143 0.0
C1586 C 0.45451 0.21465 0.30192 0.0
C1587 C 0.43264 0.23935 0.31352 0.0
H1588 H 0.47542 0.27684 0.28436 0.0
C1589 C 0.45108 0.31073 0.32658 0.0
C1590 C 0.46768 0.32121 0.33763 0.0
C1591 C 0.4461 0.29424 0.31635 0.0
C1592 C 0.46342 0.26652 0.29262 0.0
H1593 H 0.40949 0.17727 0.2808 0.0
H1594 H 0.41413 0.20642 0.28554 0.0
H1595 H 0.46844 0.24726 0.27626 0.0
H1596 H 0.4923 0.32297 0.34546 0.0
H1597 H 0.4837 0.29442 0.32763 0.0
H1598 H 0.42786 0.2587 0.33053 0.0
C1599 C 0.42474 0.20423 0.28965 0.0
C1600 C 0.45944 0.24958 0.28804 0.0
C1601 C 0.4221 0.18756 0.2869 0.0
C1602 C 0.47941 0.3152 0.33712 0.0
C1603 C 0.4745 0.29885 0.32673 0.0
C1604 C 0.43664 0.25635 0.31813 0.0
C1605 C 0.44105 0.21798 0.2968 0.0
C1606 C 0.44423 0.23582 0.29908 0.0
C1607 C 0.45772 0.28806 0.31669 0.0
C1608 C 0.45229 0.27011 0.30835 0.0
H1609 H 0.46264 0.19606 0.3031 0.0
H1610 H 0.46713 0.22491 0.30807 0.0
H1611 H 0.42085 0.22902 0.32237 0.0
H1612 H 0.44175 0.31501 0.32676 0.0
H1613 H 0.43312 0.28625 0.30853 0.0
C1614 C 0.80548 0.25385 0.30261 0.0
C1615 C 0.81957 0.25177 0.29586 0.0
C1616 C 0.789 0.23965 0.30477 0.0
C1617 C 0.76483 0.19331 0.31759 0.0
H1618 H 0.7276 0.19736 0.28383 0.0
C1619 C 0.69332 0.14011 0.32906 0.0
C1620 C 0.68254 0.14635 0.33803 0.0
C1621 C 0.71 0.15148 0.31941 0.0
C1622 C 0.73784 0.19602 0.29339 0.0
H1623 H 0.8274 0.23299 0.28684 0.0
H1624 H 0.79843 0.20804 0.2909 0.0
H1625 H 0.7572 0.22014 0.2766 0.0
H1626 H 0.6805 0.16928 0.34287 0.0
H1627 H 0.70936 0.18897 0.32612 0.0
H1628 H 0.74536 0.1694 0.33513 0.0
C1629 C 0.80026 0.22076 0.2944 0.0
C1630 C 0.75479 0.20907 0.28928 0.0
C1631 C 0.81682 0.23505 0.29205 0.0
C1632 C 0.68849 0.16405 0.33614 0.0
C1633 C 0.70502 0.17534 0.32634 0.0
C1634 C 0.74782 0.18023 0.32177 0.0
C1635 C 0.78616 0.22297 0.30034 0.0
C1636 C 0.76843 0.20809 0.30199 0.0
C1637 C 0.71608 0.16925 0.31828 0.0
C1638 C 0.73413 0.18169 0.31036 0.0
H1639 H 0.80708 0.26651 0.30583 0.0
H1640 H 0.77844 0.24174 0.30996 0.0
H1641 H 0.77509 0.19223 0.32769 0.0
H1642 H 0.6891 0.12653 0.33034 0.0
H1643 H 0.7182 0.14641 0.31315 0.0
C1644 C 0.83832 0.52521 0.34612 0.0
C1645 C 0.85599 0.5367 0.34281 0.0
C1646 C 0.82636 0.53025 0.33956 0.0
C1647 C 0.81902 0.56133 0.30035 0.0
H1648 H 0.78315 0.54867 0.35686 0.0
C1649 C 0.76584 0.58011 0.2914 0.0
C1650 C 0.74908 0.56675 0.2974 0.0
C1651 C 0.78004 0.57814 0.29727 0.0
C1652 C 0.79301 0.55222 0.34079 0.0
H1653 H 0.87496 0.56226 0.32871 0.0
H1654 H 0.85389 0.5711 0.31706 0.0
H1655 H 0.8058 0.54184 0.36512 0.0
H1656 H 0.73417 0.54091 0.31445 0.0
H1657 H 0.75878 0.5375 0.32447 0.0
H1658 H 0.80594 0.57145 0.27579 0.0
C1659 C 0.84938 0.55818 0.32482 0.0
C1660 C 0.80598 0.5483 0.34551 0.0
C1661 C 0.86142 0.55313 0.33149 0.0
C1662 C 0.74687 0.55149 0.30962 0.0
C1663 C 0.76101 0.54956 0.31554 0.0
C1664 C 0.80596 0.56524 0.29556 0.0
C1665 C 0.83176 0.54691 0.3295 0.0
C1666 C 0.81891 0.55246 0.32509 0.0
C1667 C 0.77776 0.56283 0.30943 0.0
C1668 C 0.79261 0.56038 0.31549 0.0
H1669 H 0.83367 0.51241 0.35453 0.0
H1670 H 0.81285 0.52115 0.34277 0.0
H1671 H 0.82882 0.56468 0.28425 0.0
H1672 H 0.76798 0.59202 0.28195 0.0
H1673 H 0.79281 0.58862 0.2925 0.0
C1674 C 0.64166 0.11274 0.8338 0.0
C1675 C 0.65262 0.12982 0.82522 0.0
C1676 C 0.625 0.10754 0.84341 0.0
C1677 C 0.59729 0.12437 0.86957 0.0
H1678 H 0.56017 0.08394 0.83362 0.0
C1679 C 0.53021 0.11562 0.85788 0.0
C1680 C 0.51587 0.09948 0.86396 0.0
C1681 C 0.54662 0.11766 0.85644 0.0
C1682 C 0.57039 0.0951 0.84419 0.0
H1683 H 0.65504 0.15498 0.82116 0.0
H1684 H 0.6262 0.14598 0.83786 0.0
H1685 H 0.58986 0.09059 0.82696 0.0
H1686 H 0.50752 0.07271 0.87258 0.0
H1687 H 0.53638 0.07632 0.86974 0.0
H1688 H 0.57793 0.12922 0.886 0.0
C1689 C 0.63038 0.13658 0.83734 0.0
C1690 C 0.58738 0.09889 0.84045 0.0
C1691 C 0.6469 0.14173 0.82759 0.0
C1692 C 0.5183 0.08531 0.86786 0.0
C1693 C 0.5348 0.08736 0.86622 0.0
C1694 C 0.58036 0.12062 0.87323 0.0
C1695 C 0.61912 0.11938 0.84489 0.0
C1696 C 0.60104 0.11384 0.85245 0.0
C1697 C 0.54914 0.10363 0.86093 0.0
C1698 C 0.56678 0.10623 0.85991 0.0
H1699 H 0.64571 0.10326 0.83216 0.0
H1700 H 0.61665 0.09422 0.84929 0.0
H1701 H 0.60751 0.1358 0.87956 0.0
H1702 H 0.52886 0.12682 0.85463 0.0
H1703 H 0.55737 0.13029 0.85173 0.0
C1704 C 0.87979 0.52341 0.82772 0.0
C1705 C 0.86328 0.51783 0.81664 0.0
C1706 C 0.8848 0.51145 0.83524 0.0
C1707 C 0.87437 0.4676 0.81659 0.0
H1708 H 0.90023 0.46969 0.8841 0.0
C1709 C 0.88125 0.41041 0.85187 0.0
C1710 C 0.89719 0.41347 0.86237 0.0
C1711 C 0.87838 0.42403 0.84647 0.0
C1712 C 0.89322 0.46909 0.86495 0.0
H1713 H 0.83873 0.49537 0.80663 0.0
H1714 H 0.84735 0.47466 0.82003 0.0
H1715 H 0.89254 0.49195 0.87591 0.0
H1716 H 0.92266 0.43333 0.87534 0.0
H1717 H 0.91763 0.45722 0.86564 0.0
H1718 H 0.87493 0.44484 0.80554 0.0
C1719 C 0.85658 0.48822 0.82228 0.0
C1720 C 0.88879 0.4818 0.86032 0.0
C1721 C 0.8516 0.50011 0.81478 0.0
C1722 C 0.91024 0.43053 0.86722 0.0
C1723 C 0.90734 0.44421 0.86185 0.0
C1724 C 0.8788 0.45499 0.82116 0.0
C1725 C 0.87337 0.49375 0.83175 0.0
C1726 C 0.87902 0.48097 0.83634 0.0
C1727 C 0.89136 0.44108 0.85138 0.0
C1728 C 0.888 0.45539 0.84563 0.0
H1729 H 0.88908 0.53699 0.82936 0.0
H1730 H 0.89783 0.51607 0.84251 0.0
H1731 H 0.86723 0.46687 0.79751 0.0
H1732 H 0.87086 0.39745 0.848 0.0
H1733 H 0.86584 0.42115 0.83885 0.0
C1734 C 0.56965 0.48139 0.8757 0.0
C1735 C 0.58423 0.48779 0.85816 0.0
C1736 C 0.55593 0.46465 0.87193 0.0
C1737 C 0.54627 0.42322 0.83822 0.0
H1738 H 0.49924 0.41004 0.85667 0.0
C1739 C 0.49422 0.35253 0.83303 0.0
C1740 C 0.47815 0.3486 0.82213 0.0
C1741 C 0.50612 0.36931 0.84104 0.0
C1742 C 0.51227 0.41349 0.85114 0.0
H1743 H 0.59551 0.4822 0.82189 0.0
H1744 H 0.5713 0.45349 0.81416 0.0
H1745 H 0.52163 0.44003 0.86049 0.0
H1746 H 0.46152 0.35884 0.81192 0.0
H1747 H 0.48258 0.3884 0.82443 0.0
H1748 H 0.53693 0.39708 0.82709 0.0
C1749 C 0.57066 0.46095 0.83175 0.0
C1750 C 0.5252 0.43072 0.85372 0.0
C1751 C 0.58451 0.47749 0.83596 0.0
C1752 C 0.47383 0.36157 0.82052 0.0
C1753 C 0.48592 0.37851 0.82778 0.0
C1754 C 0.53335 0.40614 0.8351 0.0
C1755 C 0.55637 0.45409 0.85015 0.0
C1756 C 0.5424 0.43582 0.84726 0.0
C1757 C 0.50243 0.3827 0.8374 0.0
C1758 C 0.51615 0.40097 0.84162 0.0
H1759 H 0.56915 0.48904 0.89312 0.0
H1760 H 0.5453 0.45985 0.88676 0.0
H1761 H 0.55936 0.42646 0.83363 0.0
H1762 H 0.49776 0.34267 0.83474 0.0
H1763 H 0.5184 0.37182 0.84935 0.0
C1764 C 0.52325 0.69457 0.63323 0.0
C1765 C 0.53033 0.68543 0.64619 0.0
C1766 C 0.52769 0.71099 0.64254 0.0
C1767 C 0.56034 0.7482 0.68406 0.0
H1768 H 0.52553 0.76154 0.67955 0.0
C1769 C 0.57657 0.81911 0.69374 0.0
C1770 C 0.564 0.82237 0.70502 0.0
C1771 C 0.57289 0.8022 0.68925 0.0
C1772 C 0.5354 0.75805 0.68149 0.0
H1773 H 0.5476 0.68632 0.67925 0.0
H1774 H 0.55495 0.71495 0.69637 0.0
H1775 H 0.51799 0.73237 0.66839 0.0
H1776 H 0.53814 0.81058 0.72199 0.0
H1777 H 0.53201 0.78125 0.71555 0.0
H1778 H 0.57758 0.77383 0.69834 0.0
C1779 C 0.54622 0.70951 0.67851 0.0
C1780 C 0.53112 0.7413 0.67453 0.0
C1781 C 0.54193 0.69307 0.66887 0.0
C1782 C 0.54798 0.80845 0.71276 0.0
C1783 C 0.54444 0.79161 0.70888 0.0
C1784 C 0.56457 0.76497 0.6915 0.0
C1785 C 0.53913 0.71868 0.66543 0.0
C1786 C 0.54358 0.73621 0.67518 0.0
C1787 C 0.55668 0.7882 0.69648 0.0
C1788 C 0.55219 0.77018 0.68998 0.0
H1789 H 0.51446 0.68917 0.61543 0.0
H1790 H 0.52231 0.71776 0.63137 0.0
H1791 H 0.57031 0.7448 0.68464 0.0
H1792 H 0.58903 0.82963 0.68757 0.0
H1793 H 0.58259 0.80015 0.67934 0.0
C1794 C 0.18347 0.76477 0.69178 0.0
C1795 C 0.18009 0.74787 0.68733 0.0
C1796 C 0.19979 0.7788 0.68609 0.0
C1797 C 0.23946 0.7908 0.64557 0.0
H1798 H 0.26164 0.82786 0.70044 0.0
C1799 C 0.31168 0.83725 0.6413 0.0
C1800 C 0.31744 0.8549 0.64371 0.0
C1801 C 0.29473 0.82509 0.64777 0.0
C1802 C 0.25553 0.81769 0.68479 0.0
H1803 H 0.19119 0.73252 0.67316 0.0
H1804 H 0.21946 0.75685 0.66344 0.0
H1805 H 0.23193 0.80501 0.70833 0.0
H1806 H 0.31014 0.87362 0.65611 0.0
H1807 H 0.28034 0.85222 0.66749 0.0
H1808 H 0.263 0.80325 0.6222 0.0
C1809 C 0.20951 0.75931 0.67103 0.0
C1810 C 0.23852 0.80464 0.68926 0.0
C1811 C 0.19329 0.74534 0.67677 0.0
C1812 C 0.30607 0.8601 0.65406 0.0
C1813 C 0.28903 0.84787 0.66058 0.0
C1814 C 0.25639 0.80377 0.64115 0.0
C1815 C 0.21298 0.7762 0.67567 0.0
C1816 C 0.23043 0.79089 0.66993 0.0
C1817 C 0.28309 0.83025 0.65678 0.0
C1818 C 0.26473 0.81718 0.66096 0.0
H1819 H 0.17359 0.76716 0.69992 0.0
H1820 H 0.20204 0.79167 0.68967 0.0
H1821 H 0.23347 0.7806 0.62995 0.0
H1822 H 0.32014 0.83279 0.63365 0.0
H1823 H 0.29065 0.8116 0.64528 0.0
C1824 C 0.24802 0.45001 0.70053 0.0
C1825 C 0.24647 0.43389 0.7057 0.0
C1826 C 0.23348 0.45177 0.69918 0.0
C1827 C 0.18722 0.42833 0.68531 0.0
H1828 H 0.18947 0.46856 0.72013 0.0
C1829 C 0.13281 0.44458 0.67185 0.0
C1830 C 0.13884 0.46152 0.66254 0.0
C1831 C 0.14431 0.43971 0.68256 0.0
C1832 C 0.18862 0.45724 0.71034 0.0
H1833 H 0.22833 0.40688 0.71306 0.0
H1834 H 0.2028 0.41 0.71048 0.0
H1835 H 0.21283 0.4626 0.72762 0.0
H1836 H 0.16142 0.48681 0.6585 0.0
H1837 H 0.18131 0.47839 0.6772 0.0
H1838 H 0.16324 0.4233 0.66727 0.0
C1839 C 0.21535 0.42125 0.70752 0.0
C1840 C 0.20201 0.45385 0.71457 0.0
C1841 C 0.22996 0.41949 0.70904 0.0
C1842 C 0.15638 0.47365 0.66543 0.0
C1843 C 0.16778 0.46884 0.67634 0.0
C1844 C 0.17379 0.43173 0.68105 0.0
C1845 C 0.217 0.43746 0.70289 0.0
C1846 C 0.20171 0.43966 0.7014 0.0
C1847 C 0.16196 0.45175 0.68448 0.0
C1848 C 0.17462 0.44652 0.69284 0.0
H1849 H 0.2605 0.46138 0.69776 0.0
H1850 H 0.23516 0.46438 0.69498 0.0
H1851 H 0.18666 0.41732 0.67482 0.0
H1852 H 0.11936 0.43495 0.6698 0.0
H1853 H 0.13945 0.42647 0.68886 0.0
C1854 C 0.35619 0.85361 0.17199 0.0
C1855 C 0.35098 0.86593 0.17024 0.0
C1856 C 0.37306 0.858 0.16573 0.0
C1857 C 0.41346 0.89034 0.13161 0.0
H1858 H 0.43366 0.87289 0.18576 0.0
C1859 C 0.48583 0.91054 0.13091 0.0
C1860 C 0.4895 0.89717 0.13466 0.0
C1861 C 0.46913 0.90759 0.13495 0.0
C1862 C 0.42819 0.87775 0.1703 0.0
H1863 H 0.35914 0.89235 0.15914 0.0
H1864 H 0.38882 0.9001 0.14831 0.0
H1865 H 0.40401 0.86597 0.19181 0.0
H1866 H 0.47847 0.87022 0.1457 0.0
H1867 H 0.44949 0.86511 0.15261 0.0
H1868 H 0.43776 0.9021 0.1101 0.0
C1869 C 0.37977 0.887 0.15444 0.0
C1870 C 0.41117 0.87376 0.17373 0.0
C1871 C 0.36279 0.88256 0.16065 0.0
C1872 C 0.47614 0.88084 0.14273 0.0
C1873 C 0.45952 0.87792 0.14684 0.0
C1874 C 0.43055 0.89435 0.12817 0.0
C1875 C 0.38519 0.87486 0.1577 0.0
C1876 C 0.40352 0.87979 0.15423 0.0
C1877 C 0.4558 0.89123 0.14297 0.0
C1878 C 0.43801 0.8879 0.1473 0.0
H1879 H 0.34736 0.84062 0.17901 0.0
H1880 H 0.37671 0.84824 0.16775 0.0
H1881 H 0.4079 0.89513 0.11619 0.0
H1882 H 0.49582 0.92327 0.12467 0.0
H1883 H 0.4667 0.91814 0.13207 0.0
C1884 C 0.08697 0.56856 0.12062 0.0
C1885 C 0.10025 0.58548 0.12577 0.0
C1886 C 0.08937 0.5546 0.1264 0.0
C1887 C 0.11657 0.54289 0.16896 0.0
H1888 H 0.10339 0.50609 0.11408 0.0
C1889 C 0.14385 0.49793 0.17614 0.0
C1890 C 0.13231 0.48019 0.17402 0.0
C1891 C 0.13876 0.50973 0.1687 0.0
C1892 C 0.10696 0.51619 0.12972 0.0
H1893 H 0.12644 0.60096 0.14107 0.0
H1894 H 0.13059 0.57679 0.15095 0.0
H1895 H 0.09615 0.52862 0.10512 0.0
H1896 H 0.10662 0.46092 0.16097 0.0
H1897 H 0.09769 0.48172 0.14786 0.0
H1898 H 0.12756 0.53074 0.19338 0.0
C1899 C 0.11826 0.57423 0.14277 0.0
C1900 C 0.10279 0.52905 0.12464 0.0
C1901 C 0.1159 0.58812 0.13693 0.0
C1902 C 0.1158 0.47452 0.16283 0.0
C1903 C 0.11069 0.4864 0.15533 0.0
C1904 C 0.12074 0.53013 0.17398 0.0
C1905 C 0.10504 0.55731 0.13763 0.0
C1906 C 0.10788 0.54273 0.14396 0.0
C1907 C 0.122 0.50412 0.15899 0.0
C1908 C 0.11632 0.51684 0.15416 0.0
H1909 H 0.07476 0.56608 0.11197 0.0
H1910 H 0.07892 0.5417 0.12238 0.0
H1911 H 0.12031 0.55302 0.18459 0.0
H1912 H 0.15672 0.50275 0.18438 0.0
H1913 H 0.1479 0.52331 0.17109 0.0
C1914 C 0.53062 0.63889 0.15951 0.0
C1915 C 0.52503 0.65008 0.16922 0.0
C1916 C 0.5187 0.62236 0.14993 0.0
C1917 C 0.47364 0.59568 0.1255 0.0
H1918 H 0.4766 0.55763 0.1584 0.0
C1919 C 0.41483 0.5285 0.13408 0.0
C1920 C 0.41659 0.51425 0.12711 0.0
C1921 C 0.42923 0.54485 0.13637 0.0
C1922 C 0.47574 0.56811 0.14869 0.0
H1923 H 0.50271 0.65302 0.17538 0.0
H1924 H 0.48208 0.62441 0.15872 0.0
H1925 H 0.50007 0.58707 0.16568 0.0
H1926 H 0.435 0.50598 0.11779 0.0
H1927 H 0.46028 0.53469 0.12199 0.0
H1928 H 0.44914 0.57684 0.10918 0.0
C1929 C 0.4956 0.62832 0.15834 0.0
C1930 C 0.48919 0.58496 0.15279 0.0
C1931 C 0.50744 0.6447 0.16808 0.0
C1932 C 0.43319 0.51669 0.12319 0.0
C1933 C 0.44767 0.53311 0.12562 0.0
C1934 C 0.46023 0.5789 0.12145 0.0
C1935 C 0.50104 0.61685 0.14959 0.0
C1936 C 0.48807 0.59894 0.14184 0.0
C1937 C 0.44579 0.54739 0.13183 0.0
C1938 C 0.46092 0.56496 0.13363 0.0
H1939 H 0.5441 0.64267 0.1602 0.0
H1940 H 0.52327 0.61383 0.14311 0.0
H1941 H 0.47255 0.60616 0.11634 0.0
H1942 H 0.40227 0.52712 0.13739 0.0
H1943 H 0.42739 0.55554 0.14178 0.0
C1944 C 0.14105 0.64593 0.68077 0.0
C1945 C 0.12958 0.65206 0.67649 0.0
C1946 C 0.13622 0.62897 0.67428 0.0
C1947 C 0.10561 0.59057 0.63411 0.0
H1948 H 0.11773 0.56718 0.69115 0.0
C1949 C 0.08516 0.51821 0.62657 0.0
C1950 C 0.09811 0.51428 0.63296 0.0
C1951 C 0.0877 0.53465 0.63198 0.0
C1952 C 0.11436 0.57355 0.67492 0.0
H1953 H 0.10428 0.64539 0.66087 0.0
H1954 H 0.09579 0.61556 0.64948 0.0
H1955 H 0.1248 0.59675 0.69915 0.0
H1956 H 0.12384 0.52454 0.65018 0.0
H1957 H 0.12824 0.55305 0.65942 0.0
H1958 H 0.09533 0.5673 0.60974 0.0
C1959 C 0.10855 0.62398 0.65785 0.0
C1960 C 0.11842 0.5905 0.67948 0.0
C1961 C 0.1134 0.64103 0.66439 0.0
C1962 C 0.11355 0.52708 0.64508 0.0
C1963 C 0.11605 0.54343 0.65053 0.0
C1964 C 0.10155 0.57355 0.6295 0.0
C1965 C 0.11979 0.61769 0.66339 0.0
C1966 C 0.11438 0.59931 0.65893 0.0
C1967 C 0.10319 0.54742 0.64403 0.0
C1968 C 0.10616 0.56497 0.64967 0.0
H1969 H 0.15368 0.65412 0.6898 0.0
H1970 H 0.14532 0.62462 0.67816 0.0
H1971 H 0.10239 0.59705 0.61786 0.0
H1972 H 0.07312 0.50865 0.6172 0.0
H1973 H 0.0775 0.53731 0.62695 0.0
C1974 C 0.35263 0.47756 0.66497 0.0
C1975 C 0.34095 0.48198 0.67663 0.0
C1976 C 0.36919 0.4904 0.65718 0.0
C1977 C 0.40041 0.53548 0.67475 0.0
H1978 H 0.42535 0.53359 0.60875 0.0
C1979 C 0.46436 0.59343 0.63946 0.0
C1980 C 0.47759 0.59041 0.63085 0.0
C1981 C 0.44782 0.57974 0.6444 0.0
C1982 C 0.41859 0.53418 0.62743 0.0
H1983 H 0.33701 0.50323 0.68738 0.0
H1984 H 0.36559 0.5255 0.67321 0.0
H1985 H 0.39582 0.51049 0.617 0.0
H1986 H 0.48378 0.57056 0.62065 0.0
H1987 H 0.45482 0.54661 0.62944 0.0
H1988 H 0.42304 0.55913 0.68519 0.0
C1989 C 0.36222 0.51218 0.67086 0.0
C1990 C 0.40169 0.52097 0.63213 0.0
C1991 C 0.34578 0.49941 0.67879 0.0
C1992 C 0.47389 0.57334 0.62731 0.0
C1993 C 0.45728 0.55962 0.63214 0.0
C1994 C 0.41722 0.54865 0.67003 0.0
C1995 C 0.3743 0.50786 0.66081 0.0
C1996 C 0.39236 0.52158 0.65571 0.0
C1997 C 0.44409 0.56269 0.64079 0.0
C1998 C 0.42645 0.54825 0.64619 0.0
H1999 H 0.34927 0.46422 0.66313 0.0
H2000 H 0.37821 0.48665 0.64955 0.0
H2001 H 0.39377 0.53614 0.69354 0.0
H2002 H 0.46672 0.6064 0.6423 0.0
H2003 H 0.43788 0.58254 0.65069 0.0
C2004 C 0.41159 0.88713 0.64381 0.0
C2005 C 0.41355 0.90185 0.62986 0.0
C2006 C 0.42581 0.88533 0.64961 0.0
C2007 C 0.46985 0.89938 0.62649 0.0
H2008 H 0.47198 0.87972 0.6989 0.0
C2009 C 0.52628 0.88886 0.6626 0.0
C2010 C 0.52132 0.8734 0.67718 0.0
C2011 C 0.51399 0.89341 0.65505 0.0
C2012 C 0.4715 0.8851 0.67848 0.0
H2013 H 0.43209 0.92631 0.61124 0.0
H2014 H 0.45708 0.92313 0.62153 0.0
H2015 H 0.44926 0.88642 0.69047 0.0
H2016 H 0.49953 0.85008 0.69352 0.0
H2017 H 0.47823 0.85789 0.68007 0.0
H2018 H 0.4921 0.89784 0.61452 0.0
C2019 C 0.44444 0.91297 0.62778 0.0
C2020 C 0.45851 0.88896 0.67368 0.0
C2021 C 0.43015 0.91483 0.62208 0.0
C2022 C 0.5038 0.86218 0.68261 0.0
C2023 C 0.49159 0.8667 0.67508 0.0
C2024 C 0.48292 0.8955 0.63133 0.0
C2025 C 0.44239 0.89818 0.6416 0.0
C2026 C 0.4573 0.8958 0.64744 0.0
C2027 C 0.49658 0.88258 0.66202 0.0
C2028 C 0.48363 0.88796 0.65716 0.0
H2029 H 0.399 0.87686 0.65007 0.0
H2030 H 0.42377 0.87366 0.65991 0.0
H2031 H 0.46918 0.90456 0.606 0.0
H2032 H 0.5397 0.89776 0.65817 0.0
H2033 H 0.51819 0.90572 0.64495 0.0
C2034 C 0.18788 0.42369 0.19782 0.0
C2035 C 0.18426 0.437 0.19295 0.0
C2036 C 0.20427 0.42615 0.19223 0.0
C2037 C 0.2437 0.45369 0.15118 0.0
H2038 H 0.26604 0.43904 0.20613 0.0
C2039 C 0.31563 0.47799 0.14431 0.0
C2040 C 0.32107 0.46589 0.1473 0.0
C2041 C 0.2989 0.47373 0.15138 0.0
C2042 C 0.25989 0.44303 0.19046 0.0
H2043 H 0.195 0.4633 0.17818 0.0
H2044 H 0.22344 0.46756 0.1686 0.0
H2045 H 0.23649 0.43251 0.21447 0.0
H2046 H 0.31346 0.44006 0.16134 0.0
H2047 H 0.28403 0.43255 0.17367 0.0
H2048 H 0.26701 0.46429 0.12724 0.0
C2049 C 0.21361 0.45517 0.17646 0.0
C2050 C 0.24298 0.43928 0.1952 0.0
C2051 C 0.1973 0.45274 0.1821 0.0
C2052 C 0.30964 0.44966 0.15883 0.0
C2053 C 0.2928 0.44537 0.1659 0.0
C2054 C 0.26054 0.45744 0.14647 0.0
C2055 C 0.21731 0.44193 0.18152 0.0
C2056 C 0.2348 0.4448 0.17578 0.0
C2057 C 0.28715 0.45724 0.16153 0.0
C2058 C 0.26894 0.4524 0.16625 0.0
H2059 H 0.17813 0.41141 0.20618 0.0
H2060 H 0.20669 0.41566 0.1961 0.0
H2061 H 0.23764 0.4578 0.13551 0.0
H2062 H 0.32416 0.49067 0.13577 0.0
H2063 H 0.29507 0.48331 0.14844 0.0
C2064 C 0.55677 0.85825 0.16581 0.0
C2065 C 0.54091 0.8534 0.15268 0.0
C2066 C 0.56145 0.84588 0.17205 0.0
C2067 C 0.55219 0.80327 0.14737 0.0
H2068 H 0.57337 0.80079 0.21786 0.0
C2069 C 0.5548 0.74313 0.17883 0.0
C2070 C 0.56977 0.74502 0.19171 0.0
C2071 C 0.55292 0.75739 0.17385 0.0
C2072 C 0.5677 0.80149 0.1979 0.0
H2073 H 0.51712 0.83171 0.13748 0.0
H2074 H 0.52517 0.81028 0.14865 0.0
H2075 H 0.56669 0.82386 0.21101 0.0
H2076 H 0.5946 0.76349 0.20929 0.0
H2077 H 0.59129 0.78854 0.20044 0.0
H2078 H 0.55301 0.78092 0.13424 0.0
C2079 C 0.53417 0.82363 0.15351 0.0
C2080 C 0.56385 0.81466 0.19402 0.0
C2081 C 0.52951 0.83591 0.14729 0.0
C2082 C 0.58292 0.7616 0.19928 0.0
C2083 C 0.58098 0.77592 0.19439 0.0
C2084 C 0.55604 0.79018 0.15121 0.0
C2085 C 0.55036 0.8285 0.16521 0.0
C2086 C 0.55571 0.81544 0.16894 0.0
C2087 C 0.56594 0.77394 0.18165 0.0
C2088 C 0.5635 0.78891 0.17673 0.0
H2089 H 0.56582 0.87164 0.17018 0.0
H2090 H 0.57401 0.85 0.18111 0.0
H2091 H 0.54633 0.80379 0.12749 0.0
H2092 H 0.54439 0.73057 0.17278 0.0
H2093 H 0.54106 0.75539 0.16439 0.0
C2094 C 0.16355 0.68623 0.13938 0.0
C2095 C 0.14602 0.6807 0.1429 0.0
C2096 C 0.17602 0.70301 0.14615 0.0
C2097 C 0.18481 0.74203 0.1854 0.0
H2098 H 0.22082 0.76416 0.1288 0.0
C2099 C 0.23859 0.81378 0.19225 0.0
C2100 C 0.2553 0.81699 0.18645 0.0
C2101 C 0.22431 0.79758 0.18691 0.0
C2102 C 0.21093 0.75814 0.14491 0.0
H2103 H 0.12784 0.68819 0.15764 0.0
H2104 H 0.14979 0.71773 0.16952 0.0
H2105 H 0.19768 0.73486 0.12099 0.0
H2106 H 0.27006 0.80567 0.17032 0.0
H2107 H 0.2453 0.77758 0.16115 0.0
H2108 H 0.19829 0.76538 0.20944 0.0
C2109 C 0.15381 0.70899 0.16151 0.0
C2110 C 0.19768 0.74134 0.14046 0.0
C2111 C 0.14126 0.69209 0.15471 0.0
C2112 C 0.25739 0.8037 0.17497 0.0
C2113 C 0.24317 0.78759 0.16955 0.0
C2114 C 0.19814 0.7589 0.18989 0.0
C2115 C 0.17129 0.71472 0.15655 0.0
C2116 C 0.18465 0.73297 0.16088 0.0
C2117 C 0.22647 0.78432 0.17548 0.0
C2118 C 0.21151 0.76701 0.1699 0.0
H2119 H 0.16767 0.67773 0.13062 0.0
H2120 H 0.1894 0.70692 0.14275 0.0
H2121 H 0.17495 0.73588 0.20152 0.0
H2122 H 0.23653 0.82373 0.20115 0.0
H2123 H 0.21159 0.79547 0.19149 0.0
C2124 C 0.21646 0.19797 0.14429 0.0
C2125 C 0.23115 0.20816 0.12779 0.0
C2126 C 0.21614 0.20157 0.1731 0.0
C2127 C 0.23279 0.23564 0.22474 0.0
H2128 H 0.21945 0.19917 0.2803 0.0
C2129 C 0.22742 0.24634 0.34511 0.0
C2130 C 0.21372 0.2328 0.35979 0.0
C2131 C 0.23132 0.24399 0.31722 0.0
C2132 C 0.223 0.20946 0.26506 0.0
H2133 H 0.25694 0.23022 0.1283 0.0
H2134 H 0.25614 0.23679 0.17882 0.0
H2135 H 0.22282 0.19383 0.23047 0.0
H2136 H 0.19312 0.20631 0.35661 0.0
H2137 H 0.19945 0.20241 0.30786 0.0
H2138 H 0.23218 0.25107 0.25891 0.0
C2139 C 0.24502 0.22592 0.16935 0.0
C2140 C 0.22504 0.2064 0.23661 0.0
C2141 C 0.24547 0.22212 0.14058 0.0
C2142 C 0.20388 0.21695 0.34597 0.0
C2143 C 0.20761 0.21468 0.31805 0.0
C2144 C 0.23048 0.23864 0.25318 0.0
C2145 C 0.23038 0.21559 0.18581 0.0
C2146 C 0.22971 0.21938 0.21619 0.0
C2147 C 0.22145 0.2281 0.30337 0.0
C2148 C 0.22527 0.22548 0.27359 0.0
H2149 H 0.20525 0.1871 0.13503 0.0
H2150 H 0.20466 0.19352 0.1854 0.0
H2151 H 0.23631 0.2458 0.20923 0.0
H2152 H 0.23529 0.25867 0.35531 0.0
H2153 H 0.24218 0.25455 0.30667 0.0
C2154 C 0.77168 0.0178 0.13878 0.0
C2155 C 0.78581 0.01806 0.12544 0.0
C2156 C 0.76686 0.01123 0.16635 0.0
C2157 C 0.7729 0.98388 0.21912 0.0
H2158 H 0.75924 0.00702 0.27412 0.0
C2159 C 0.77762 0.97797 0.33971 0.0
C2160 C 0.76305 0.9741 0.35611 0.0
C2161 C 0.77817 0.98187 0.31087 0.0
C2162 C 0.7628 0.00032 0.25882 0.0
H2163 H 0.80619 0.01201 0.13071 0.0
H2164 H 0.79818 0.00111 0.17888 0.0
H2165 H 0.76465 0.01695 0.22469 0.0
H2166 H 0.73769 0.97143 0.35532 0.0
H2167 H 0.73889 0.97875 0.30466 0.0
H2168 H 0.77184 0.96781 0.25364 0.0
C2169 C 0.79045 0.00546 0.16787 0.0
C2170 C 0.76587 0.00595 0.23054 0.0
C2171 C 0.79515 0.01185 0.1403 0.0
C2172 C 0.74905 0.97431 0.34312 0.0
C2173 C 0.74974 0.97854 0.31428 0.0
C2174 C 0.77006 0.97842 0.24739 0.0
C2175 C 0.77617 0.00492 0.18116 0.0
C2176 C 0.77131 0.99801 0.21051 0.0
C2177 C 0.76428 0.98224 0.29795 0.0
C2178 C 0.76531 0.9868 0.26755 0.0
H2179 H 0.76418 0.02243 0.12778 0.0
H2180 H 0.75571 0.01086 0.17587 0.0
H2181 H 0.77662 0.97718 0.20409 0.0
H2182 H 0.78858 0.97786 0.34909 0.0
H2183 H 0.78958 0.98486 0.29872 0.0
C2184 C 0.02266 0.80695 0.34063 0.0
C2185 C 0.02749 0.79646 0.35554 0.0
C2186 C 0.01758 0.80354 0.31217 0.0
C2187 C 0.9981 0.76895 0.26074 0.0
H2188 H 0.01757 0.8052 0.20409 0.0
C2189 C 0.97993 0.75562 0.14184 0.0
C2190 C 0.97839 0.76822 0.12652 0.0
C2191 C 0.98661 0.75897 0.16946 0.0
C2192 C 0.01182 0.79498 0.2197 0.0
H2193 H 0.03076 0.77417 0.35238 0.0
H2194 H 0.02151 0.76804 0.30264 0.0
H2195 H 0.02797 0.81136 0.25308 0.0
H2196 H 0.98235 0.79407 0.12822 0.0
H2197 H 0.99339 0.7997 0.17669 0.0
H2198 H 0.98151 0.75268 0.22784 0.0
C2199 C 0.0218 0.77894 0.31305 0.0
C2200 C 0.01786 0.79851 0.24768 0.0
C2201 C 0.02716 0.7825 0.34141 0.0
C2202 C 0.98351 0.78416 0.13942 0.0
C2203 C 0.98997 0.78742 0.16716 0.0
C2204 C 0.99187 0.76547 0.23285 0.0
C2205 C 0.01698 0.78944 0.29823 0.0
C2206 C 0.01101 0.78554 0.26842 0.0
C2207 C 0.99168 0.77491 0.18249 0.0
C2208 C 0.9986 0.77846 0.212 0.0
H2209 H 0.02283 0.81782 0.35094 0.0
H2210 H 0.01379 0.81174 0.3012 0.0
H2211 H 0.9925 0.75879 0.2765 0.0
H2212 H 0.9762 0.74325 0.13234 0.0
H2213 H 0.988 0.74913 0.18043 0.0
C2214 C 0.7556 0.77469 0.84313 0.0
C2215 C 0.76914 0.78841 0.8578 0.0
C2216 C 0.75798 0.77069 0.81533 0.0
C2217 C 0.79249 0.77836 0.76378 0.0
H2218 H 0.75616 0.76436 0.70773 0.0
C2219 C 0.80397 0.78192 0.64306 0.0
C2220 C 0.79321 0.76716 0.62707 0.0
C2221 C 0.80054 0.78291 0.67174 0.0
C2222 C 0.76632 0.76807 0.7233 0.0
H2223 H 0.79563 0.80898 0.85467 0.0
H2224 H 0.79959 0.80246 0.806 0.0
H2225 H 0.75103 0.76949 0.75692 0.0
H2226 H 0.77036 0.74193 0.62844 0.0
H2227 H 0.76414 0.7439 0.67874 0.0
H2228 H 0.80797 0.77762 0.72974 0.0
C2229 C 0.7873 0.79438 0.81616 0.0
C2230 C 0.7634 0.77096 0.75147 0.0
C2231 C 0.78499 0.79822 0.84401 0.0
C2232 C 0.77889 0.75343 0.6403 0.0
C2233 C 0.77529 0.75456 0.66895 0.0
C2234 C 0.79547 0.7757 0.73558 0.0
C2235 C 0.77388 0.78047 0.80154 0.0
C2236 C 0.77654 0.77637 0.77197 0.0
C2237 C 0.78615 0.76929 0.68488 0.0
C2238 C 0.78248 0.77074 0.71507 0.0
H2239 H 0.74326 0.76683 0.85329 0.0
H2240 H 0.74743 0.75978 0.80485 0.0
H2241 H 0.80276 0.78207 0.77912 0.0
H2242 H 0.81512 0.79268 0.63347 0.0
H2243 H 0.80901 0.79446 0.68356 0.0
C2244 C 0.22514 0.02477 0.65133 0.0
C2245 C 0.23984 0.02835 0.63559 0.0
C2246 C 0.22384 0.02024 0.67998 0.0
C2247 C 0.23686 0.99929 0.73129 0.0
H2248 H 0.22253 0.02154 0.78689 0.0
C2249 C 0.22377 0.97789 0.84958 0.0
C2250 C 0.2095 0.97774 0.86211 0.0
C2251 C 0.2296 0.98526 0.82272 0.0
C2252 C 0.22639 0.01509 0.77159 0.0
H2253 H 0.26473 0.02995 0.63739 0.0
H2254 H 0.26221 0.02152 0.68769 0.0
H2255 H 0.22904 0.03253 0.7383 0.0
H2256 H 0.18986 0.98477 0.85603 0.0
H2257 H 0.19962 0.99707 0.80906 0.0
H2258 H 0.23342 0.98131 0.76412 0.0
C2259 C 0.25183 0.02245 0.67772 0.0
C2260 C 0.23022 0.02147 0.74388 0.0
C2261 C 0.25327 0.02731 0.64908 0.0
C2262 C 0.201 0.98482 0.84709 0.0
C2263 C 0.2067 0.99202 0.82022 0.0
C2264 C 0.23281 0.99274 0.75899 0.0
C2265 C 0.23711 0.01893 0.69335 0.0
C2266 C 0.23515 0.01342 0.72338 0.0
C2267 C 0.22117 0.9925 0.80782 0.0
C2268 C 0.22715 0.00035 0.77926 0.0
H2269 H 0.21461 0.02552 0.64153 0.0
H2270 H 0.21229 0.01741 0.69157 0.0
H2271 H 0.24054 0.99282 0.71571 0.0
H2272 H 0.23064 0.97259 0.86073 0.0
H2273 H 0.24085 0.98553 0.81385 0.0
C2274 C 0.97954 0.22656 0.64367 0.0
C2275 C 0.97959 0.2121 0.63231 0.0
C2276 C 0.9835 0.23089 0.6724 0.0
C2277 C 0.98148 0.21199 0.74113 0.0
H2278 H 0.02083 0.25533 0.76399 0.0
C2279 C 0.01203 0.22008 0.85062 0.0
C2280 C 0.01888 0.23591 0.86482 0.0
C2281 C 0.00619 0.21839 0.82268 0.0
C2282 C 0.00958 0.24331 0.75806 0.0
H2283 H 0.98369 0.1908 0.64204 0.0
H2284 H 0.99015 0.19814 0.69226 0.0
H2285 H 0.01218 0.25035 0.71385 0.0
H2286 H 0.02493 0.26241 0.8609 0.0
H2287 H 0.0143 0.25935 0.81206 0.0
H2288 H 0.97868 0.20484 0.785 0.0
C2289 C 0.98721 0.20617 0.67887 0.0
C2290 C 0.0047 0.24048 0.72939 0.0
C2291 C 0.98361 0.20205 0.65015 0.0
C2292 C 0.01978 0.25006 0.85044 0.0
C2293 C 0.01374 0.24832 0.82245 0.0
C2294 C 0.98617 0.2149 0.76976 0.0
C2295 C 0.98716 0.22058 0.69021 0.0
C2296 C 0.99092 0.22462 0.72069 0.0
C2297 C 0.00683 0.23243 0.8083 0.0
C2298 C 0.00061 0.23037 0.77846 0.0
H2299 H 0.97655 0.23456 0.63033 0.0
H2300 H 0.98342 0.24207 0.68083 0.0
H2301 H 0.97066 0.19974 0.73484 0.0
H2302 H 0.01132 0.20897 0.86098 0.0
H2303 H 0.00138 0.20608 0.81223 0.0
C2304 C 0.91462 0.55537 0.47805 0.0
C2305 C 0.90118 0.54139 0.46366 0.0
C2306 C 0.9128 0.55844 0.50669 0.0
C2307 C 0.88973 0.53718 0.57153 0.0
H2308 H 0.89619 0.58157 0.59403 0.0
C2309 C 0.86442 0.54631 0.67817 0.0
C2310 C 0.87404 0.56184 0.69296 0.0
C2311 C 0.86905 0.5444 0.65065 0.0
C2312 C 0.89464 0.5692 0.58827 0.0
H2313 H 0.87545 0.51948 0.46802 0.0
H2314 H 0.87245 0.52467 0.51812 0.0
H2315 H 0.90249 0.57715 0.54515 0.0
H2316 H 0.89613 0.58756 0.69062 0.0
H2317 H 0.90453 0.58407 0.64275 0.0
H2318 H 0.88207 0.52918 0.61447 0.0
C2319 C 0.88432 0.53329 0.50719 0.0
C2320 C 0.8982 0.56669 0.56028 0.0
C2321 C 0.88601 0.53039 0.47851 0.0
C2322 C 0.8884 0.57546 0.67966 0.0
C2323 C 0.89317 0.57348 0.65219 0.0
C2324 C 0.88639 0.53975 0.59957 0.0
C2325 C 0.89765 0.54737 0.52147 0.0
C2326 C 0.89546 0.55056 0.5516 0.0
C2327 C 0.88357 0.5579 0.63739 0.0
C2328 C 0.88845 0.55567 0.60814 0.0
H2329 H 0.92643 0.56409 0.46709 0.0
H2330 H 0.92325 0.56936 0.51735 0.0
H2331 H 0.88774 0.5247 0.56536 0.0
H2332 H 0.85319 0.53562 0.68775 0.0
H2333 H 0.86111 0.53237 0.63966 0.0
C2334 C 0.44526 0.35444 0.4795 0.0
C2335 C 0.45915 0.35473 0.46527 0.0
C2336 C 0.44115 0.34816 0.50736 0.0
C2337 C 0.44911 0.32198 0.56009 0.0
H2338 H 0.43446 0.34435 0.61492 0.0
C2339 C 0.45173 0.31454 0.68132 0.0
C2340 C 0.43663 0.31015 0.69653 0.0
C2341 C 0.45312 0.31909 0.65263 0.0
C2342 C 0.43838 0.33791 0.5997 0.0
H2343 H 0.47987 0.34907 0.46918 0.0
H2344 H 0.47315 0.33877 0.51788 0.0
H2345 H 0.43961 0.35422 0.5655 0.0
H2346 H 0.41122 0.3073 0.69381 0.0
H2347 H 0.41389 0.31571 0.64359 0.0
H2348 H 0.44856 0.30619 0.59471 0.0
C2349 C 0.46502 0.3428 0.50738 0.0
C2350 C 0.44127 0.34348 0.5714 0.0
C2351 C 0.46897 0.34884 0.47949 0.0
C2352 C 0.42299 0.31056 0.68257 0.0
C2353 C 0.42452 0.31543 0.65395 0.0
C2354 C 0.44648 0.31661 0.58843 0.0
C2355 C 0.45099 0.34225 0.52162 0.0
C2356 C 0.44688 0.33572 0.55132 0.0
C2357 C 0.43956 0.31962 0.63876 0.0
C2358 C 0.44127 0.32464 0.60849 0.0
H2359 H 0.4374 0.35881 0.469 0.0
H2360 H 0.43013 0.34773 0.51754 0.0
H2361 H 0.45299 0.31541 0.54509 0.0
H2362 H 0.46243 0.3143 0.6915 0.0
H2363 H 0.4649 0.32242 0.64135 0.0
C2364 C 0.68677 0.112 0.68225 0.0
C2365 C 0.6878 0.12602 0.69721 0.0
C2366 C 0.68098 0.10886 0.65408 0.0
C2367 C 0.65735 0.11997 0.60106 0.0
H2368 H 0.67818 0.10327 0.54683 0.0
C2369 C 0.64932 0.12109 0.47934 0.0
C2370 C 0.64443 0.10559 0.46498 0.0
C2371 C 0.65406 0.12293 0.508 0.0
C2372 C 0.67219 0.10781 0.56186 0.0
H2373 H 0.68392 0.14794 0.69435 0.0
H2374 H 0.67447 0.14288 0.64499 0.0
H2375 H 0.68783 0.108 0.59632 0.0
H2376 H 0.64082 0.07994 0.4692 0.0
H2377 H 0.64948 0.08335 0.51929 0.0
H2378 H 0.64215 0.12032 0.56617 0.0
C2379 C 0.67758 0.13395 0.65516 0.0
C2380 C 0.67763 0.11045 0.59021 0.0
C2381 C 0.68311 0.13694 0.68342 0.0
C2382 C 0.64447 0.09201 0.47977 0.0
C2383 C 0.64949 0.09396 0.50832 0.0
C2384 C 0.65211 0.11757 0.57264 0.0
C2385 C 0.67634 0.11982 0.64018 0.0
C2386 C 0.67031 0.11663 0.61015 0.0
C2387 C 0.65425 0.10941 0.52265 0.0
C2388 C 0.65951 0.11152 0.55283 0.0
H2389 H 0.69018 0.1033 0.69242 0.0
H2390 H 0.67994 0.09771 0.64336 0.0
H2391 H 0.65116 0.12437 0.61592 0.0
H2392 H 0.64937 0.13176 0.46852 0.0
H2393 H 0.65781 0.13501 0.51862 0.0
C2394 C 0.42025 0.11024 0.17744 0.0
C2395 C 0.43422 0.12393 0.1914 0.0
C2396 C 0.42208 0.10571 0.14969 0.0
C2397 C 0.45568 0.11153 0.0976 0.0
H2398 H 0.4193 0.09848 0.04193 0.0
C2399 C 0.46696 0.11461 0.97716 0.0
C2400 C 0.45617 0.09976 0.96139 0.0
C2401 C 0.46342 0.11587 0.00567 0.0
C2402 C 0.42946 0.10192 0.05741 0.0
H2403 H 0.46089 0.14393 0.18704 0.0
H2404 H 0.46391 0.13647 0.13855 0.0
H2405 H 0.41468 0.10412 0.09118 0.0
H2406 H 0.43306 0.07472 0.9629 0.0
H2407 H 0.42666 0.07718 0.01292 0.0
H2408 H 0.47067 0.11004 0.06347 0.0
C2409 C 0.45169 0.12882 0.1492 0.0
C2410 C 0.42683 0.1051 0.08559 0.0
C2411 C 0.44993 0.13319 0.17697 0.0
C2412 C 0.44163 0.08628 0.9746 0.0
C2413 C 0.43792 0.08769 0.00308 0.0
C2414 C 0.45837 0.10859 0.06942 0.0
C2415 C 0.43787 0.11491 0.13532 0.0
C2416 C 0.44004 0.11023 0.10589 0.0
C2417 C 0.4489 0.10244 0.01885 0.0
C2418 C 0.44538 0.10402 0.04904 0.0
H2419 H 0.408 0.10282 0.18811 0.0
H2420 H 0.41122 0.09484 0.13972 0.0
H2421 H 0.46596 0.11499 0.11283 0.0
H2422 H 0.47828 0.12519 0.9676 0.0
H2423 H 0.47197 0.12743 0.0174 0.0
C2424 C 0.86824 0.31393 0.17986 0.0
C2425 C 0.87912 0.31013 0.1959 0.0
C2426 C 0.87188 0.31876 0.15139 0.0
C2427 C 0.90613 0.33946 0.10033 0.0
H2428 H 0.87002 0.31597 0.04431 0.0
C2429 C 0.91534 0.35767 0.98035 0.0
C2430 C 0.90123 0.35715 0.96648 0.0
C2431 C 0.91365 0.35132 0.00809 0.0
C2432 C 0.88019 0.32279 0.05971 0.0
H2433 H 0.90248 0.30863 0.19488 0.0
H2434 H 0.90906 0.31756 0.14489 0.0
H2435 H 0.8652 0.30592 0.09346 0.0
H2436 H 0.87449 0.35018 0.97109 0.0
H2437 H 0.87171 0.3397 0.01953 0.0
H2438 H 0.92088 0.35682 0.06691 0.0
C2439 C 0.89764 0.31658 0.1545 0.0
C2440 C 0.87745 0.31695 0.08776 0.0
C2441 C 0.89383 0.31142 0.18295 0.0
C2442 C 0.88555 0.35058 0.98108 0.0
C2443 C 0.88393 0.34443 0.0088 0.0
C2444 C 0.90882 0.34548 0.07226 0.0
C2445 C 0.8866 0.32015 0.13849 0.0
C2446 C 0.89027 0.3254 0.10837 0.0
C2447 C 0.89786 0.34448 0.02252 0.0
C2448 C 0.89573 0.3374 0.05176 0.0
H2449 H 0.85679 0.31301 0.18923 0.0
H2450 H 0.86327 0.32162 0.13948 0.0
H2451 H 0.91617 0.34621 0.11599 0.0
H2452 H 0.92757 0.36261 0.96956 0.0
H2453 H 0.9246 0.35145 0.01798 0.0
C2454 C 0.68964 0.57768 0.17759 0.0
C2455 C 0.69006 0.56427 0.19223 0.0
C2456 C 0.68379 0.57541 0.14947 0.0
C2457 C 0.65876 0.54118 0.09631 0.0
H2458 H 0.68006 0.57888 0.04244 0.0
C2459 C 0.64855 0.53261 0.97485 0.0
C2460 C 0.64388 0.54363 0.9613 0.0
C2461 C 0.65394 0.53535 0.0032 0.0
C2462 C 0.67395 0.56831 0.05737 0.0
H2463 H 0.6851 0.5381 0.18876 0.0
H2464 H 0.67555 0.53435 0.13948 0.0
H2465 H 0.69027 0.58326 0.09161 0.0
H2466 H 0.64144 0.5663 0.96666 0.0
H2467 H 0.65123 0.57127 0.01622 0.0
H2468 H 0.64283 0.52613 0.06164 0.0
C2469 C 0.67917 0.54645 0.14989 0.0
C2470 C 0.67971 0.5708 0.08555 0.0
C2471 C 0.68476 0.54863 0.17811 0.0
C2472 C 0.64489 0.55756 0.97658 0.0
C2473 C 0.65056 0.56046 0.00483 0.0
C2474 C 0.65319 0.53864 0.06806 0.0
C2475 C 0.67848 0.55975 0.13527 0.0
C2476 C 0.67221 0.55725 0.10536 0.0
C2477 C 0.65502 0.54932 0.01839 0.0
C2478 C 0.66075 0.55216 0.04837 0.0
H2479 H 0.69353 0.58985 0.18801 0.0
H2480 H 0.68319 0.58585 0.13905 0.0
H2481 H 0.6524 0.53056 0.11108 0.0
H2482 H 0.64787 0.52175 0.96364 0.0
H2483 H 0.65744 0.52666 0.0132 0.0
C2484 C 0.56029 0.9188 0.01741 0.0
C2485 C 0.55233 0.90381 0.03411 0.0
C2486 C 0.56397 0.91797 0.98871 0.0
C2487 C 0.54939 0.88738 0.92938 0.0
H2488 H 0.59163 0.92086 0.89243 0.0
C2489 C 0.55646 0.88745 0.80868 0.0
C2490 C 0.57161 0.88848 0.79834 0.0
C2491 C 0.5552 0.89118 0.83707 0.0
C2492 C 0.57981 0.9114 0.90254 0.0
H2493 H 0.54264 0.8763 0.03407 0.0
H2494 H 0.54918 0.8749 0.98426 0.0
H2495 H 0.58777 0.92336 0.94355 0.0
H2496 H 0.59763 0.89499 0.80935 0.0
H2497 H 0.59532 0.90128 0.85932 0.0
H2498 H 0.54149 0.8752 0.8888 0.0
C2499 C 0.55229 0.88724 0.99317 0.0
C2500 C 0.57755 0.91291 0.93168 0.0
C2501 C 0.5486 0.88807 0.02176 0.0
C2502 C 0.58577 0.89403 0.81673 0.0
C2503 C 0.58447 0.89771 0.84528 0.0
C2504 C 0.55163 0.8859 0.90039 0.0
C2505 C 0.55974 0.90212 0.97623 0.0
C2506 C 0.56233 0.90084 0.94537 0.0
C2507 C 0.56903 0.89593 0.85584 0.0
C2508 C 0.56684 0.89788 0.88663 0.0
H2509 H 0.56336 0.93114 0.02633 0.0
H2510 H 0.56963 0.92962 0.97609 0.0
H2511 H 0.53743 0.87802 0.93925 0.0
H2512 H 0.54539 0.88345 0.79497 0.0
H2513 H 0.54326 0.89005 0.84447 0.0
C2514 C 0.08468 0.64397 0.00875 0.0
C2515 C 0.09858 0.64402 0.02254 0.0
C2516 C 0.08665 0.65085 0.98134 0.0
C2517 C 0.12061 0.67986 0.93077 0.0
H2518 H 0.08485 0.65762 0.87379 0.0
C2519 C 0.13303 0.68955 0.81069 0.0
C2520 C 0.12212 0.69323 0.79448 0.0
C2521 C 0.12944 0.68491 0.83926 0.0
C2522 C 0.09483 0.66407 0.88966 0.0
H2523 H 0.12525 0.65072 0.0181 0.0
H2524 H 0.12852 0.6621 0.97021 0.0
H2525 H 0.07974 0.64635 0.92243 0.0
H2526 H 0.09885 0.69487 0.79537 0.0
H2527 H 0.09234 0.68629 0.8455 0.0
H2528 H 0.13594 0.69708 0.89761 0.0
C2529 C 0.11625 0.65733 0.98077 0.0
C2530 C 0.09192 0.65766 0.91749 0.0
C2531 C 0.11434 0.65066 0.00818 0.0
C2532 C 0.10751 0.69217 0.80742 0.0
C2533 C 0.10374 0.68721 0.83596 0.0
C2534 C 0.12358 0.6861 0.90294 0.0
C2535 C 0.10252 0.65774 0.96715 0.0
C2536 C 0.10492 0.66529 0.93822 0.0
C2537 C 0.11472 0.6836 0.85207 0.0
C2538 C 0.11083 0.67808 0.88207 0.0
H2539 H 0.07239 0.639 0.01936 0.0
H2540 H 0.07585 0.65107 0.97154 0.0
H2541 H 0.13074 0.68635 0.94638 0.0
H2542 H 0.14441 0.6903 0.80133 0.0
H2543 H 0.138 0.68203 0.85122 0.0
C2544 C 0.35701 0.44067 0.01344 0.0
C2545 C 0.35819 0.45528 0.0266 0.0
C2546 C 0.35196 0.437 0.98492 0.0
C2547 C 0.35137 0.45738 0.9184 0.0
H2548 H 0.31158 0.41388 0.89755 0.0
C2549 C 0.31624 0.44943 0.81326 0.0
C2550 C 0.30932 0.43377 0.79853 0.0
C2551 C 0.32308 0.45107 0.84047 0.0
C2552 C 0.32291 0.42596 0.90287 0.0
H2553 H 0.35522 0.47759 0.02021 0.0
H2554 H 0.34678 0.47134 0.97035 0.0
H2555 H 0.32245 0.41847 0.94643 0.0
H2556 H 0.30414 0.40748 0.80077 0.0
H2557 H 0.3165 0.41046 0.84826 0.0
H2558 H 0.35204 0.46496 0.8751 0.0
C2559 C 0.34966 0.46271 0.98214 0.0
C2560 C 0.32908 0.42858 0.93084 0.0
C2561 C 0.35439 0.46621 0.01069 0.0
C2562 C 0.30932 0.41971 0.81167 0.0
C2563 C 0.31635 0.4214 0.83889 0.0
C2564 C 0.34538 0.45471 0.89042 0.0
C2565 C 0.34837 0.44808 0.96905 0.0
C2566 C 0.34309 0.44446 0.93892 0.0
C2567 C 0.32338 0.43714 0.85353 0.0
C2568 C 0.33079 0.43915 0.8825 0.0
H2569 H 0.35981 0.432 0.02525 0.0
H2570 H 0.35105 0.42565 0.97516 0.0
H2571 H 0.36236 0.46965 0.92412 0.0
H2572 H 0.31629 0.46047 0.80386 0.0
H2573 H 0.32797 0.46325 0.85138 0.0
C2574 C 0.08751 0.44988 0.5103 0.0
C2575 C 0.10092 0.45658 0.53037 0.0
C2576 C 0.09054 0.4469 0.48225 0.0
C2577 C 0.12564 0.45999 0.43027 0.0
H2578 H 0.09206 0.41981 0.38875 0.0
C2579 C 0.13087 0.45314 0.30956 0.0
C2580 C 0.12694 0.43691 0.29912 0.0
C2581 C 0.12749 0.45512 0.33788 0.0
C2582 C 0.10162 0.43102 0.40015 0.0
H2583 H 0.12792 0.46504 0.53694 0.0
H2584 H 0.13308 0.45958 0.48821 0.0
H2585 H 0.08665 0.42366 0.43839 0.0
H2586 H 0.11638 0.41003 0.31022 0.0
H2587 H 0.11075 0.41359 0.35986 0.0
H2588 H 0.14079 0.46717 0.39233 0.0
C2589 C 0.12033 0.45695 0.49396 0.0
C2590 C 0.09843 0.43332 0.42846 0.0
C2591 C 0.11733 0.46 0.52193 0.0
C2592 C 0.11953 0.42271 0.3176 0.0
C2593 C 0.1162 0.42471 0.346 0.0
C2594 C 0.12884 0.45767 0.40203 0.0
C2595 C 0.107 0.45049 0.47376 0.0
C2596 C 0.1104 0.44786 0.44381 0.0
C2597 C 0.12019 0.44095 0.35644 0.0
C2598 C 0.11685 0.4432 0.38661 0.0
H2599 H 0.07473 0.44714 0.51611 0.0
H2600 H 0.08004 0.4421 0.46709 0.0
H2601 H 0.13502 0.47143 0.44139 0.0
H2602 H 0.13647 0.46432 0.29586 0.0
H2603 H 0.13044 0.46775 0.34515 0.0
C2604 C 0.55219 0.68247 0.31042 0.0
C2605 C 0.56733 0.68629 0.29581 0.0
C2606 C 0.55029 0.67793 0.33913 0.0
C2607 C 0.56283 0.65834 0.39388 0.0
H2608 H 0.55016 0.68359 0.44611 0.0
C2609 C 0.55328 0.6435 0.51495 0.0
C2610 C 0.53986 0.64469 0.52802 0.0
C2611 C 0.55804 0.64906 0.48686 0.0
C2612 C 0.55348 0.67625 0.43179 0.0
H2613 H 0.59221 0.68802 0.29957 0.0
H2614 H 0.58863 0.6796 0.34993 0.0
H2615 H 0.55569 0.69219 0.39627 0.0
H2616 H 0.52049 0.65206 0.52169 0.0
H2617 H 0.52829 0.6611 0.47266 0.0
H2618 H 0.5599 0.64191 0.42902 0.0
C2619 C 0.57839 0.68034 0.33904 0.0
C2620 C 0.55675 0.68127 0.40333 0.0
C2621 C 0.58044 0.68521 0.31036 0.0
C2622 C 0.53104 0.65117 0.51233 0.0
C2623 C 0.53561 0.65649 0.48424 0.0
C2624 C 0.55929 0.65312 0.42233 0.0
C2625 C 0.56337 0.67685 0.35365 0.0
C2626 C 0.56123 0.67223 0.3841 0.0
C2627 C 0.54931 0.65573 0.47125 0.0
C2628 C 0.5543 0.66187 0.44151 0.0
H2629 H 0.54189 0.68323 0.29978 0.0
H2630 H 0.53854 0.67515 0.34999 0.0
H2631 H 0.5662 0.65115 0.37929 0.0
H2632 H 0.56035 0.63861 0.52661 0.0
H2633 H 0.56874 0.64842 0.47759 0.0
C2634 C 0.3194 0.86544 0.30558 0.0
C2635 C 0.31373 0.87524 0.29069 0.0
C2636 C 0.32509 0.8695 0.33365 0.0
C2637 C 0.32374 0.89357 0.39669 0.0
H2638 H 0.36138 0.88726 0.42162 0.0
C2639 C 0.35562 0.9132 0.50844 0.0
C2640 C 0.35659 0.89998 0.52282 0.0
C2641 C 0.35094 0.91135 0.47969 0.0
C2642 C 0.35085 0.88906 0.4149 0.0
H2643 H 0.30964 0.89703 0.29344 0.0
H2644 H 0.32006 0.90444 0.34228 0.0
H2645 H 0.35233 0.88213 0.37192 0.0
H2646 H 0.35364 0.8746 0.51838 0.0
H2647 H 0.34579 0.87155 0.46812 0.0
H2648 H 0.32253 0.90074 0.43985 0.0
C2649 C 0.31974 0.89338 0.33248 0.0
C2650 C 0.34558 0.88603 0.38652 0.0
C2651 C 0.31384 0.88918 0.30446 0.0
C2652 C 0.35296 0.88498 0.5079 0.0
C2653 C 0.34856 0.88327 0.47912 0.0
C2654 C 0.32917 0.89682 0.42505 0.0
C2655 C 0.32548 0.8836 0.34738 0.0
C2656 C 0.33176 0.88794 0.37717 0.0
C2657 C 0.34748 0.8964 0.46481 0.0
C2658 C 0.34258 0.89431 0.43444 0.0
H2659 H 0.31932 0.85453 0.29564 0.0
H2660 H 0.32903 0.86145 0.34467 0.0
H2661 H 0.31293 0.89499 0.39032 0.0
H2662 H 0.3583 0.92488 0.51944 0.0
H2663 H 0.35022 0.92166 0.469 0.0
loop_
_geom_bond_atom_site_label_1
_geom_bond_atom_site_label_2
_geom_bond_distance
_geom_bond_site_symmetry_2
_ccdc_geom_bond_type
O0 Cd1 2.223 . S
O0 C8 1.315 . S
Cd1 O0 2.223 . S
Cd1 O4 2.297 . S
Cd1 O5 2.439 1_554 S
Cd1 O11 2.240 . S
Cd2 O3 2.240 . S
Cd2 O10 2.223 . S
Cd2 O12 2.297 . S
Cd2 O13 2.439 . S
O3 Cd2 2.240 . S
O3 C8 1.279 . S
O4 Cd1 2.297 . S
O4 C6 1.247 1_554 S
O5 Cd1 2.439 1_556 S
O5 C6 1.208 . S
C6 O4 1.247 1_556 S
C6 O5 1.208 . S
C7 O12 1.247 . S
C7 O13 1.208 . S
C8 O0 1.315 . S
C8 O3 1.279 . S
C9 O10 1.315 . S
C9 O11 1.279 . S
O10 Cd2 2.223 . S
O10 C9 1.315 . S
O11 Cd1 2.240 . S
O11 C9 1.279 . S
O12 Cd2 2.297 . S
O12 C7 1.247 . S
O13 Cd2 2.439 . S
O13 C7 1.208 . S
O14 Cd15 2.223 . S
O14 C22 1.315 . S
Cd15 O14 2.223 . S
Cd15 O18 2.297 . S
Cd15 O19 2.439 1_554 S
Cd15 O25 2.252 . S
Cd16 O17 2.240 1_565 S
Cd16 O24 2.223 1_565 S
Cd16 O26 2.297 . S
Cd16 O27 2.439 . S
O17 Cd16 2.240 1_545 S
O17 C22 1.279 . S
O18 Cd15 2.297 . S
O18 C20 1.247 1_554 S
O19 Cd15 2.439 1_556 S
O19 C20 1.208 . S
C20 O18 1.247 1_556 S
C20 O19 1.208 . S
C21 O26 1.247 . S
C21 O27 1.208 . S
C22 O14 1.315 . S
C22 O17 1.279 . S
C23 O24 1.315 . S
C23 O25 1.276 . S
O24 Cd16 2.223 1_545 S
O24 C23 1.315 . S
O25 Cd15 2.252 . S
O25 C23 1.276 . S
O26 Cd16 2.297 . S
O26 C21 1.247 . S
O27 Cd16 2.439 . S
O27 C21 1.208 . S
O28 Cd29 2.223 . S
O28 C36 1.315 . S
Cd29 O28 2.223 . S
Cd29 O32 2.297 . S
Cd29 O33 2.439 1_554 S
Cd29 O39 2.244 . S
Cd30 O31 2.240 1_455 S
Cd30 O38 2.223 1_455 S
Cd30 O40 2.297 . S
Cd30 O41 2.439 . S
O31 Cd30 2.240 1_655 S
O31 C36 1.279 . S
O32 Cd29 2.297 . S
O32 C34 1.247 1_554 S
O33 Cd29 2.439 1_556 S
O33 C34 1.208 . S
C34 O32 1.247 1_556 S
C34 O33 1.208 . S
C35 O40 1.247 . S
C35 O41 1.208 . S
C36 O28 1.315 . S
C36 O31 1.279 . S
C37 O38 1.315 . S
C37 O39 1.288 . S
O38 Cd30 2.223 1_655 S
O38 C37 1.315 . S
O39 Cd29 2.244 . S
O39 C37 1.288 . S
O40 Cd30 2.297 . S
O40 C35 1.247 . S
O41 Cd30 2.439 . S
O41 C35 1.208 . S
O42 Cd43 2.223 . S
O42 C50 1.315 . S
Cd43 O42 2.223 . S
Cd43 O46 2.297 . S
Cd43 O47 2.439 . S
Cd43 O53 2.240 . S
Cd44 O45 2.240 . S
Cd44 O52 2.223 . S
Cd44 O54 2.297 . S
Cd44 O55 2.439 . S
O45 Cd44 2.240 . S
O45 C50 1.279 . S
O46 Cd43 2.297 . S
O46 C48 1.247 . S
O47 Cd43 2.439 . S
O47 C48 1.208 . S
C48 O46 1.247 . S
C48 O47 1.208 . S
C49 O54 1.247 . S
C49 O55 1.208 . S
C50 O42 1.315 . S
C50 O45 1.279 . S
C51 O52 1.315 . S
C51 O53 1.279 . S
O52 Cd44 2.223 . S
O52 C51 1.315 . S
O53 Cd43 2.240 . S
O53 C51 1.279 . S
O54 Cd44 2.297 . S
O54 C49 1.247 . S
O55 Cd44 2.439 . S
O55 C49 1.208 . S
O56 Cd57 2.223 . S
O56 C64 1.315 . S
Cd57 O56 2.223 . S
Cd57 O60 2.297 . S
Cd57 O61 2.439 . S
Cd57 O67 2.244 . S
Cd58 O59 2.240 1_545 S
Cd58 O66 2.223 1_545 S
Cd58 O68 2.297 . S
Cd58 O69 2.439 . S
O59 Cd58 2.240 1_565 S
O59 C64 1.279 . S
O60 Cd57 2.297 . S
O60 C62 1.247 . S
O61 Cd57 2.439 . S
O61 C62 1.208 . S
C62 O60 1.247 . S
C62 O61 1.208 . S
C63 O68 1.247 . S
C63 O69 1.208 . S
C64 O56 1.315 . S
C64 O59 1.279 . S
C65 O66 1.315 . S
C65 O67 1.288 . S
O66 Cd58 2.223 1_565 S
O66 C65 1.315 . S
O67 Cd57 2.244 . S
O67 C65 1.288 . S
O68 Cd58 2.297 . S
O68 C63 1.247 . S
O69 Cd58 2.439 . S
O69 C63 1.208 . S
O70 Cd71 2.223 . S
O70 C78 1.315 . S
Cd71 O70 2.223 . S
Cd71 O74 2.297 . S
Cd71 O75 2.439 . S
Cd71 O81 2.252 . S
Cd72 O73 2.240 1_655 S
Cd72 O80 2.223 1_655 S
Cd72 O82 2.297 . S
Cd72 O83 2.439 . S
O73 Cd72 2.240 1_455 S
O73 C78 1.279 . S
O74 Cd71 2.297 . S
O74 C76 1.247 . S
O75 Cd71 2.439 . S
O75 C76 1.208 . S
C76 O74 1.247 . S
C76 O75 1.208 . S
C77 O82 1.247 . S
C77 O83 1.208 . S
C78 O70 1.315 . S
C78 O73 1.279 . S
C79 O80 1.315 . S
C79 O81 1.276 . S
O80 Cd72 2.223 1_455 S
O80 C79 1.315 . S
O81 Cd71 2.252 . S
O81 C79 1.276 . S
O82 Cd72 2.297 . S
O82 C77 1.247 . S
O83 Cd72 2.439 . S
O83 C77 1.208 . S
O84 Cd85 2.223 . S
O84 C92 1.315 . S
Cd85 O84 2.223 . S
Cd85 O88 2.297 . S
Cd85 O89 2.439 1_556 S
Cd85 O95 2.240 . S
Cd86 O87 2.240 . S
Cd86 O94 2.223 . S
Cd86 O96 2.297 . S
Cd86 O97 2.439 . S
O87 Cd86 2.240 . S
O87 C92 1.279 . S
O88 Cd85 2.297 . S
O88 C90 1.247 1_556 S
O89 Cd85 2.439 1_554 S
O89 C90 1.208 . S
C90 O88 1.247 1_554 S
C90 O89 1.208 . S
C91 O96 1.247 . S
C91 O97 1.208 . S
C92 O84 1.315 . S
C92 O87 1.279 . S
C93 O94 1.315 . S
C93 O95 1.279 . S
O94 Cd86 2.223 . S
O94 C93 1.315 . S
O95 Cd85 2.240 . S
O95 C93 1.279 . S
O96 Cd86 2.297 . S
O96 C91 1.247 . S
O97 Cd86 2.439 . S
O97 C91 1.208 . S
O98 Cd99 2.223 . S
O98 C106 1.315 . S
Cd99 O98 2.223 . S
Cd99 O102 2.297 . S
Cd99 O103 2.439 1_556 S
Cd99 O109 2.252 . S
Cd100 O101 2.240 1_545 S
Cd100 O108 2.223 1_545 S
Cd100 O110 2.297 . S
Cd100 O111 2.439 . S
O101 Cd100 2.240 1_565 S
O101 C106 1.279 . S
O102 Cd99 2.297 . S
O102 C104 1.247 1_556 S
O103 Cd99 2.439 1_554 S
O103 C104 1.208 . S
C104 O102 1.247 1_554 S
C104 O103 1.208 . S
C105 O110 1.247 . S
C105 O111 1.208 . S
C106 O98 1.315 . S
C106 O101 1.279 . S
C107 O108 1.315 . S
C107 O109 1.276 . S
O108 Cd100 2.223 1_565 S
O108 C107 1.315 . S
O109 Cd99 2.252 . S
O109 C107 1.276 . S
O110 Cd100 2.297 . S
O110 C105 1.247 . S
O111 Cd100 2.439 . S
O111 C105 1.208 . S
O112 Cd113 2.223 . S
O112 C120 1.315 . S
Cd113 O112 2.223 . S
Cd113 O116 2.297 . S
Cd113 O117 2.439 1_556 S
Cd113 O123 2.244 . S
Cd114 O115 2.240 1_655 S
Cd114 O122 2.223 1_655 S
Cd114 O124 2.297 . S
Cd114 O125 2.439 . S
O115 Cd114 2.240 1_455 S
O115 C120 1.279 . S
O116 Cd113 2.297 . S
O116 C118 1.247 1_556 S
O117 Cd113 2.439 1_554 S
O117 C118 1.208 . S
C118 O116 1.247 1_554 S
C118 O117 1.208 . S
C119 O124 1.247 . S
C119 O125 1.208 . S
C120 O112 1.315 . S
C120 O115 1.279 . S
C121 O122 1.315 . S
C121 O123 1.288 . S
O122 Cd114 2.223 1_455 S
O122 C121 1.315 . S
O123 Cd113 2.244 . S
O123 C121 1.288 . S
O124 Cd114 2.297 . S
O124 C119 1.247 . S
O125 Cd114 2.439 . S
O125 C119 1.208 . S
O126 Cd127 2.223 . S
O126 C134 1.315 . S
Cd127 O126 2.223 . S
Cd127 O130 2.297 . S
Cd127 O131 2.439 . S
Cd127 O137 2.240 . S
Cd128 O129 2.240 . S
Cd128 O136 2.223 . S
Cd128 O138 2.297 . S
Cd128 O139 2.439 . S
O129 Cd128 2.240 . S
O129 C134 1.279 . S
O130 Cd127 2.297 . S
O130 C132 1.247 . S
O131 Cd127 2.439 . S
O131 C132 1.208 . S
C132 O130 1.247 . S
C132 O131 1.208 . S
C133 O138 1.247 . S
C133 O139 1.208 . S
C134 O126 1.315 . S
C134 O129 1.279 . S
C135 O136 1.315 . S
C135 O137 1.279 . S
O136 Cd128 2.223 . S
O136 C135 1.315 . S
O137 Cd127 2.240 . S
O137 C135 1.279 . S
O138 Cd128 2.297 . S
O138 C133 1.247 . S
O139 Cd128 2.439 . S
O139 C133 1.208 . S
O140 Cd141 2.223 . S
O140 C148 1.315 . S
Cd141 O140 2.223 . S
Cd141 O144 2.297 . S
Cd141 O145 2.439 . S
Cd141 O151 2.244 . S
Cd142 O143 2.240 1_565 S
Cd142 O150 2.223 1_565 S
Cd142 O152 2.297 . S
Cd142 O153 2.439 . S
O143 Cd142 2.240 1_545 S
O143 C148 1.279 . S
O144 Cd141 2.297 . S
O144 C146 1.247 . S
O145 Cd141 2.439 . S
O145 C146 1.208 . S
C146 O144 1.247 . S
C146 O145 1.208 . S
C147 O152 1.247 . S
C147 O153 1.208 . S
C148 O140 1.315 . S
C148 O143 1.279 . S
C149 O150 1.315 . S
C149 O151 1.288 . S
O150 Cd142 2.223 1_545 S
O150 C149 1.315 . S
O151 Cd141 2.244 . S
O151 C149 1.288 . S
O152 Cd142 2.297 . S
O152 C147 1.247 . S
O153 Cd142 2.439 . S
O153 C147 1.208 . S
O154 Cd155 2.223 . S
O154 C162 1.315 . S
Cd155 O154 2.223 . S
Cd155 O158 2.297 . S
Cd155 O159 2.439 . S
Cd155 O165 2.252 . S
Cd156 O157 2.240 1_455 S
Cd156 O164 2.223 1_455 S
Cd156 O166 2.297 . S
Cd156 O167 2.439 . S
O157 Cd156 2.240 1_655 S
O157 C162 1.279 . S
O158 Cd155 2.297 . S
O158 C160 1.247 . S
O159 Cd155 2.439 . S
O159 C160 1.208 . S
C160 O158 1.247 . S
C160 O159 1.208 . S
C161 O166 1.247 . S
C161 O167 1.208 . S
C162 O154 1.315 . S
C162 O157 1.279 . S
C163 O164 1.315 . S
C163 O165 1.276 . S
O164 Cd156 2.223 1_655 S
O164 C163 1.315 . S
O165 Cd155 2.252 . S
O165 C163 1.276 . S
O166 Cd156 2.297 . S
O166 C161 1.247 . S
O167 Cd156 2.439 . S
O167 C161 1.208 . S
O168 Cd169 2.223 . S
O168 C176 1.315 . S
Cd169 O168 2.223 . S
Cd169 O172 2.297 . S
Cd169 O173 2.439 . S
Cd169 O179 2.240 . S
Cd170 O171 2.240 . S
Cd170 O178 2.223 . S
Cd170 O180 2.297 . S
Cd170 O181 2.439 . S
O171 Cd170 2.240 . S
O171 C176 1.279 . S
O172 Cd169 2.297 . S
O172 C174 1.247 . S
O173 Cd169 2.439 . S
O173 C174 1.208 . S
C174 O172 1.247 . S
C174 O173 1.208 . S
C175 O180 1.247 . S
C175 O181 1.208 . S
C176 O168 1.315 . S
C176 O171 1.279 . S
C177 O178 1.315 . S
C177 O179 1.279 . S
O178 Cd170 2.223 . S
O178 C177 1.315 . S
O179 Cd169 2.240 . S
O179 C177 1.279 . S
O180 Cd170 2.297 . S
O180 C175 1.247 . S
O181 Cd170 2.439 . S
O181 C175 1.208 . S
O182 Cd183 2.223 . S
O182 C190 1.315 . S
Cd183 O182 2.223 . S
Cd183 O186 2.297 . S
Cd183 O187 2.439 . S
Cd183 O193 2.240 . S
Cd184 O185 2.240 . S
Cd184 O192 2.223 . S
Cd184 O194 2.297 . S
Cd184 O195 2.439 . S
O185 Cd184 2.240 . S
O185 C190 1.279 . S
O186 Cd183 2.297 . S
O186 C188 1.247 . S
O187 Cd183 2.439 . S
O187 C188 1.208 . S
C188 O186 1.247 . S
C188 O187 1.208 . S
C189 O194 1.247 . S
C189 O195 1.208 . S
C190 O182 1.315 . S
C190 O185 1.279 . S
C191 O192 1.315 . S
C191 O193 1.279 . S
O192 Cd184 2.223 . S
O192 C191 1.315 . S
O193 Cd183 2.240 . S
O193 C191 1.279 . S
O194 Cd184 2.297 . S
O194 C189 1.247 . S
O195 Cd184 2.439 . S
O195 C189 1.208 . S
O196 Cd197 2.223 . S
O196 C204 1.315 . S
Cd197 O196 2.223 . S
Cd197 O200 2.297 . S
Cd197 O201 2.439 . S
Cd197 O207 2.240 . S
Cd198 O199 2.240 . S
Cd198 O206 2.223 . S
Cd198 O208 2.297 . S
Cd198 O209 2.439 . S
O199 Cd198 2.240 . S
O199 C204 1.279 . S
O200 Cd197 2.297 . S
O200 C202 1.247 . S
O201 Cd197 2.439 . S
O201 C202 1.208 . S
C202 O200 1.247 . S
C202 O201 1.208 . S
C203 O208 1.247 . S
C203 O209 1.208 . S
C204 O196 1.315 . S
C204 O199 1.279 . S
C205 O206 1.315 . S
C205 O207 1.279 . S
O206 Cd198 2.223 . S
O206 C205 1.315 . S
O207 Cd197 2.240 . S
O207 C205 1.279 . S
O208 Cd198 2.297 . S
O208 C203 1.247 . S
O209 Cd198 2.439 . S
O209 C203 1.208 . S
O210 Cd211 2.223 . S
O210 C218 1.315 . S
Cd211 O210 2.223 . S
Cd211 O214 2.297 . S
Cd211 O215 2.439 . S
Cd211 O221 2.240 . S
Cd212 O213 2.240 . S
Cd212 O220 2.223 . S
Cd212 O222 2.297 . S
Cd212 O223 2.439 . S
O213 Cd212 2.240 . S
O213 C218 1.279 . S
O214 Cd211 2.297 . S
O214 C216 1.247 . S
O215 Cd211 2.439 . S
O215 C216 1.208 . S
C216 O214 1.247 . S
C216 O215 1.208 . S
C217 O222 1.247 . S
C217 O223 1.208 . S
C218 O210 1.315 . S
C218 O213 1.279 . S
C219 O220 1.315 . S
C219 O221 1.279 . S
O220 Cd212 2.223 . S
O220 C219 1.315 . S
O221 Cd211 2.240 . S
O221 C219 1.279 . S
O222 Cd212 2.297 . S
O222 C217 1.247 . S
O223 Cd212 2.439 . S
O223 C217 1.208 . S
O224 Cd225 2.223 . S
O224 C232 1.315 . S
Cd225 O224 2.223 . S
Cd225 O228 2.297 . S
Cd225 O229 2.439 . S
Cd225 O235 2.240 . S
Cd226 O227 2.240 . S
Cd226 O234 2.223 . S
Cd226 O236 2.297 . S
Cd226 O237 2.439 . S
O227 Cd226 2.240 . S
O227 C232 1.279 . S
O228 Cd225 2.297 . S
O228 C230 1.247 . S
O229 Cd225 2.439 . S
O229 C230 1.208 . S
C230 O228 1.247 . S
C230 O229 1.208 . S
C231 O236 1.247 . S
C231 O237 1.208 . S
C232 O224 1.315 . S
C232 O227 1.279 . S
C233 O234 1.315 . S
C233 O235 1.279 . S
O234 Cd226 2.223 . S
O234 C233 1.315 . S
O235 Cd225 2.240 . S
O235 C233 1.279 . S
O236 Cd226 2.297 . S
O236 C231 1.247 . S
O237 Cd226 2.439 . S
O237 C231 1.208 . S
O238 Cd239 2.223 . S
O238 C246 1.315 . S
Cd239 O238 2.223 . S
Cd239 O242 2.297 . S
Cd239 O243 2.439 . S
Cd239 O249 2.240 . S
Cd240 O241 2.240 . S
Cd240 O248 2.223 . S
Cd240 O250 2.297 . S
Cd240 O251 2.439 . S
O241 Cd240 2.240 . S
O241 C246 1.279 . S
O242 Cd239 2.297 . S
O242 C244 1.247 . S
O243 Cd239 2.439 . S
O243 C244 1.208 . S
C244 O242 1.247 . S
C244 O243 1.208 . S
C245 O250 1.247 . S
C245 O251 1.208 . S
C246 O238 1.315 . S
C246 O241 1.279 . S
C247 O248 1.315 . S
C247 O249 1.279 . S
O248 Cd240 2.223 . S
O248 C247 1.315 . S
O249 Cd239 2.240 . S
O249 C247 1.279 . S
O250 Cd240 2.297 . S
O250 C245 1.247 . S
O251 Cd240 2.439 . S
O251 C245 1.208 . S
O252 Cd253 2.223 . S
O252 C260 1.315 . S
Cd253 O252 2.223 . S
Cd253 O256 2.297 . S
Cd253 O257 2.439 . S
Cd253 O263 2.240 . S
Cd254 O255 2.240 . S
Cd254 O262 2.223 . S
Cd254 O264 2.297 . S
Cd254 O265 2.439 . S
O255 Cd254 2.240 . S
O255 C260 1.279 . S
O256 Cd253 2.297 . S
O256 C258 1.247 . S
O257 Cd253 2.439 . S
O257 C258 1.208 . S
C258 O256 1.247 . S
C258 O257 1.208 . S
C259 O264 1.247 . S
C259 O265 1.208 . S
C260 O252 1.315 . S
C260 O255 1.279 . S
C261 O262 1.315 . S
C261 O263 1.279 . S
O262 Cd254 2.223 . S
O262 C261 1.315 . S
O263 Cd253 2.240 . S
O263 C261 1.279 . S
O264 Cd254 2.297 . S
O264 C259 1.247 . S
O265 Cd254 2.439 . S
O265 C259 1.208 . S
O266 Cd267 2.223 . S
O266 C274 1.315 . S
Cd267 O266 2.223 . S
Cd267 O270 2.297 . S
Cd267 O271 2.439 . S
Cd267 O277 2.240 . S
Cd268 O269 2.240 . S
Cd268 O276 2.223 . S
Cd268 O278 2.297 . S
Cd268 O279 2.439 . S
O269 Cd268 2.240 . S
O269 C274 1.279 . S
O270 Cd267 2.297 . S
O270 C272 1.247 . S
O271 Cd267 2.439 . S
O271 C272 1.208 . S
C272 O270 1.247 . S
C272 O271 1.208 . S
C273 O278 1.247 . S
C273 O279 1.208 . S
C274 O266 1.315 . S
C274 O269 1.279 . S
C275 O276 1.315 . S
C275 O277 1.279 . S
O276 Cd268 2.223 . S
O276 C275 1.315 . S
O277 Cd267 2.240 . S
O277 C275 1.279 . S
O278 Cd268 2.297 . S
O278 C273 1.247 . S
O279 Cd268 2.439 . S
O279 C273 1.208 . S
O280 Cd281 2.223 . S
O280 C288 1.315 . S
Cd281 O280 2.223 . S
Cd281 O284 2.297 . S
Cd281 O285 2.439 . S
Cd281 O291 2.240 . S
Cd282 O283 2.240 . S
Cd282 O290 2.223 . S
Cd282 O292 2.297 . S
Cd282 O293 2.439 . S
O283 Cd282 2.240 . S
O283 C288 1.279 . S
O284 Cd281 2.297 . S
O284 C286 1.247 . S
O285 Cd281 2.439 . S
O285 C286 1.208 . S
C286 O284 1.247 . S
C286 O285 1.208 . S
C287 O292 1.247 . S
C287 O293 1.208 . S
C288 O280 1.315 . S
C288 O283 1.279 . S
C289 O290 1.315 . S
C289 O291 1.279 . S
O290 Cd282 2.223 . S
O290 C289 1.315 . S
O291 Cd281 2.240 . S
O291 C289 1.279 . S
O292 Cd282 2.297 . S
O292 C287 1.247 . S
O293 Cd282 2.439 . S
O293 C287 1.208 . S
O294 Cd295 2.223 . S
O294 C302 1.315 . S
Cd295 O294 2.223 . S
Cd295 O298 2.297 . S
Cd295 O299 2.439 . S
Cd295 O305 2.240 . S
Cd296 O297 2.240 . S
Cd296 O304 2.223 . S
Cd296 O306 2.297 . S
Cd296 O307 2.439 . S
O297 Cd296 2.240 . S
O297 C302 1.279 . S
O298 Cd295 2.297 . S
O298 C300 1.247 . S
O299 Cd295 2.439 . S
O299 C300 1.208 . S
C300 O298 1.247 . S
C300 O299 1.208 . S
C301 O306 1.247 . S
C301 O307 1.208 . S
C302 O294 1.315 . S
C302 O297 1.279 . S
C303 O304 1.315 . S
C303 O305 1.279 . S
O304 Cd296 2.223 . S
O304 C303 1.315 . S
O305 Cd295 2.240 . S
O305 C303 1.279 . S
O306 Cd296 2.297 . S
O306 C301 1.247 . S
O307 Cd296 2.439 . S
O307 C301 1.208 . S
O308 Cd309 2.223 . S
O308 C316 1.315 . S
Cd309 O308 2.223 . S
Cd309 O312 2.297 . S
Cd309 O313 2.439 . S
Cd309 O319 2.240 . S
Cd310 O311 2.240 . S
Cd310 O318 2.223 . S
Cd310 O320 2.297 . S
Cd310 O321 2.439 . S
O311 Cd310 2.240 . S
O311 C316 1.279 . S
O312 Cd309 2.297 . S
O312 C314 1.247 . S
O313 Cd309 2.439 . S
O313 C314 1.208 . S
C314 O312 1.247 . S
C314 O313 1.208 . S
C315 O320 1.247 . S
C315 O321 1.208 . S
C316 O308 1.315 . S
C316 O311 1.279 . S
C317 O318 1.315 . S
C317 O319 1.279 . S
O318 Cd310 2.223 . S
O318 C317 1.315 . S
O319 Cd309 2.240 . S
O319 C317 1.279 . S
O320 Cd310 2.297 . S
O320 C315 1.247 . S
O321 Cd310 2.439 . S
O321 C315 1.208 . S
O322 Cd323 2.223 . S
O322 C330 1.315 . S
Cd323 O322 2.223 . S
Cd323 O326 2.297 . S
Cd323 O327 2.439 . S
Cd323 O333 2.240 . S
Cd324 O325 2.240 . S
Cd324 O332 2.223 . S
Cd324 O334 2.297 . S
Cd324 O335 2.439 . S
O325 Cd324 2.240 . S
O325 C330 1.279 . S
O326 Cd323 2.297 . S
O326 C328 1.247 . S
O327 Cd323 2.439 . S
O327 C328 1.208 . S
C328 O326 1.247 . S
C328 O327 1.208 . S
C329 O334 1.247 . S
C329 O335 1.208 . S
C330 O322 1.315 . S
C330 O325 1.279 . S
C331 O332 1.315 . S
C331 O333 1.279 . S
O332 Cd324 2.223 . S
O332 C331 1.315 . S
O333 Cd323 2.240 . S
O333 C331 1.279 . S
O334 Cd324 2.297 . S
O334 C329 1.247 . S
O335 Cd324 2.439 . S
O335 C329 1.208 . S
O336 Cd337 2.223 . S
O336 C344 1.315 . S
Cd337 O336 2.223 . S
Cd337 O340 2.297 . S
Cd337 O341 2.439 . S
Cd337 O347 2.240 . S
Cd338 O339 2.240 . S
Cd338 O346 2.223 . S
Cd338 O348 2.297 . S
Cd338 O349 2.439 . S
O339 Cd338 2.240 . S
O339 C344 1.279 . S
O340 Cd337 2.297 . S
O340 C342 1.247 . S
O341 Cd337 2.439 . S
O341 C342 1.208 . S
C342 O340 1.247 . S
C342 O341 1.208 . S
C343 O348 1.247 . S
C343 O349 1.208 . S
C344 O336 1.315 . S
C344 O339 1.279 . S
C345 O346 1.315 . S
C345 O347 1.279 . S
O346 Cd338 2.223 . S
O346 C345 1.315 . S
O347 Cd337 2.240 . S
O347 C345 1.279 . S
O348 Cd338 2.297 . S
O348 C343 1.247 . S
O349 Cd338 2.439 . S
O349 C343 1.208 . S
O350 Cd351 2.223 . S
O350 C358 1.315 . S
Cd351 O350 2.223 . S
Cd351 O354 2.297 . S
Cd351 O355 2.439 . S
Cd351 O361 2.240 . S
Cd352 O353 2.240 . S
Cd352 O360 2.223 . S
Cd352 O362 2.297 . S
Cd352 O363 2.439 . S
O353 Cd352 2.240 . S
O353 C358 1.279 . S
O354 Cd351 2.297 . S
O354 C356 1.247 . S
O355 Cd351 2.439 . S
O355 C356 1.208 . S
C356 O354 1.247 . S
C356 O355 1.208 . S
C357 O362 1.247 . S
C357 O363 1.208 . S
C358 O350 1.315 . S
C358 O353 1.279 . S
C359 O360 1.315 . S
C359 O361 1.279 . S
O360 Cd352 2.223 . S
O360 C359 1.315 . S
O361 Cd351 2.240 . S
O361 C359 1.279 . S
O362 Cd352 2.297 . S
O362 C357 1.247 . S
O363 Cd352 2.439 . S
O363 C357 1.208 . S
O364 Cd365 2.223 . S
O364 C372 1.315 . S
Cd365 O364 2.223 . S
Cd365 O368 2.297 . S
Cd365 O369 2.439 . S
Cd365 O375 2.240 . S
Cd366 O367 2.240 . S
Cd366 O374 2.223 . S
Cd366 O376 2.297 . S
Cd366 O377 2.439 . S
O367 Cd366 2.240 . S
O367 C372 1.279 . S
O368 Cd365 2.297 . S
O368 C370 1.247 . S
O369 Cd365 2.439 . S
O369 C370 1.208 . S
C370 O368 1.247 . S
C370 O369 1.208 . S
C371 O376 1.247 . S
C371 O377 1.208 . S
C372 O364 1.315 . S
C372 O367 1.279 . S
C373 O374 1.315 . S
C373 O375 1.279 . S
O374 Cd366 2.223 . S
O374 C373 1.315 . S
O375 Cd365 2.240 . S
O375 C373 1.279 . S
O376 Cd366 2.297 . S
O376 C371 1.247 . S
O377 Cd366 2.439 . S
O377 C371 1.208 . S
O378 Cd379 2.223 . S
O378 C386 1.315 . S
Cd379 O378 2.223 . S
Cd379 O382 2.297 . S
Cd379 O383 2.439 . S
Cd379 O389 2.240 . S
Cd380 O381 2.240 . S
Cd380 O388 2.223 . S
Cd380 O390 2.297 . S
Cd380 O391 2.439 . S
O381 Cd380 2.240 . S
O381 C386 1.279 . S
O382 Cd379 2.297 . S
O382 C384 1.247 . S
O383 Cd379 2.439 . S
O383 C384 1.208 . S
C384 O382 1.247 . S
C384 O383 1.208 . S
C385 O390 1.247 . S
C385 O391 1.208 . S
C386 O378 1.315 . S
C386 O381 1.279 . S
C387 O388 1.315 . S
C387 O389 1.279 . S
O388 Cd380 2.223 . S
O388 C387 1.315 . S
O389 Cd379 2.240 . S
O389 C387 1.279 . S
O390 Cd380 2.297 . S
O390 C385 1.247 . S
O391 Cd380 2.439 . S
O391 C385 1.208 . S
O392 Cd393 2.223 . S
O392 C400 1.315 . S
Cd393 O392 2.223 . S
Cd393 O396 2.297 . S
Cd393 O397 2.439 . S
Cd393 O403 2.240 . S
Cd394 O395 2.240 . S
Cd394 O402 2.223 . S
Cd394 O404 2.297 . S
Cd394 O405 2.439 . S
O395 Cd394 2.240 . S
O395 C400 1.279 . S
O396 Cd393 2.297 . S
O396 C398 1.247 . S
O397 Cd393 2.439 . S
O397 C398 1.208 . S
C398 O396 1.247 . S
C398 O397 1.208 . S
C399 O404 1.247 . S
C399 O405 1.208 . S
C400 O392 1.315 . S
C400 O395 1.279 . S
C401 O402 1.315 . S
C401 O403 1.279 . S
O402 Cd394 2.223 . S
O402 C401 1.315 . S
O403 Cd393 2.240 . S
O403 C401 1.279 . S
O404 Cd394 2.297 . S
O404 C399 1.247 . S
O405 Cd394 2.439 . S
O405 C399 1.208 . S
O406 Cd407 2.223 . S
O406 C414 1.315 . S
Cd407 O406 2.223 . S
Cd407 O410 2.297 . S
Cd407 O411 2.439 . S
Cd407 O417 2.240 . S
Cd408 O409 2.240 . S
Cd408 O416 2.223 . S
Cd408 O418 2.297 . S
Cd408 O419 2.439 . S
O409 Cd408 2.240 . S
O409 C414 1.279 . S
O410 Cd407 2.297 . S
O410 C412 1.247 . S
O411 Cd407 2.439 . S
O411 C412 1.208 . S
C412 O410 1.247 . S
C412 O411 1.208 . S
C413 O418 1.247 . S
C413 O419 1.208 . S
C414 O406 1.315 . S
C414 O409 1.279 . S
C415 O416 1.315 . S
C415 O417 1.279 . S
O416 Cd408 2.223 . S
O416 C415 1.315 . S
O417 Cd407 2.240 . S
O417 C415 1.279 . S
O418 Cd408 2.297 . S
O418 C413 1.247 . S
O419 Cd408 2.439 . S
O419 C413 1.208 . S
O420 Cd421 2.223 . S
O420 C428 1.315 . S
Cd421 O420 2.223 . S
Cd421 O424 2.297 . S
Cd421 O425 2.439 . S
Cd421 O431 2.240 . S
Cd422 O423 2.240 . S
Cd422 O430 2.223 . S
Cd422 O432 2.297 . S
Cd422 O433 2.439 . S
O423 Cd422 2.240 . S
O423 C428 1.279 . S
O424 Cd421 2.297 . S
O424 C426 1.247 . S
O425 Cd421 2.439 . S
O425 C426 1.208 . S
C426 O424 1.247 . S
C426 O425 1.208 . S
C427 O432 1.247 . S
C427 O433 1.208 . S
C428 O420 1.315 . S
C428 O423 1.279 . S
C429 O430 1.315 . S
C429 O431 1.279 . S
O430 Cd422 2.223 . S
O430 C429 1.315 . S
O431 Cd421 2.240 . S
O431 C429 1.279 . S
O432 Cd422 2.297 . S
O432 C427 1.247 . S
O433 Cd422 2.439 . S
O433 C427 1.208 . S
O434 Cd435 2.223 . S
O434 C442 1.315 . S
Cd435 O434 2.223 . S
Cd435 O438 2.297 . S
Cd435 O439 2.439 . S
Cd435 O445 2.240 . S
Cd436 O437 2.240 . S
Cd436 O444 2.223 . S
Cd436 O446 2.297 . S
Cd436 O447 2.439 . S
O437 Cd436 2.240 . S
O437 C442 1.279 . S
O438 Cd435 2.297 . S
O438 C440 1.247 . S
O439 Cd435 2.439 . S
O439 C440 1.208 . S
C440 O438 1.247 . S
C440 O439 1.208 . S
C441 O446 1.247 . S
C441 O447 1.208 . S
C442 O434 1.315 . S
C442 O437 1.279 . S
C443 O444 1.315 . S
C443 O445 1.279 . S
O444 Cd436 2.223 . S
O444 C443 1.315 . S
O445 Cd435 2.240 . S
O445 C443 1.279 . S
O446 Cd436 2.297 . S
O446 C441 1.247 . S
O447 Cd436 2.439 . S
O447 C441 1.208 . S
O448 Cd449 2.223 . S
O448 C456 1.315 . S
Cd449 O448 2.223 . S
Cd449 O452 2.297 . S
Cd449 O453 2.439 . S
Cd449 O459 2.240 . S
Cd450 O451 2.240 . S
Cd450 O458 2.223 . S
Cd450 O460 2.297 . S
Cd450 O461 2.439 . S
O451 Cd450 2.240 . S
O451 C456 1.279 . S
O452 Cd449 2.297 . S
O452 C454 1.247 . S
O453 Cd449 2.439 . S
O453 C454 1.208 . S
C454 O452 1.247 . S
C454 O453 1.208 . S
C455 O460 1.247 . S
C455 O461 1.208 . S
C456 O448 1.315 . S
C456 O451 1.279 . S
C457 O458 1.315 . S
C457 O459 1.279 . S
O458 Cd450 2.223 . S
O458 C457 1.315 . S
O459 Cd449 2.240 . S
O459 C457 1.279 . S
O460 Cd450 2.297 . S
O460 C455 1.247 . S
O461 Cd450 2.439 . S
O461 C455 1.208 . S
O462 Cd463 2.223 . S
O462 C470 1.315 . S
Cd463 O462 2.223 . S
Cd463 O466 2.297 . S
Cd463 O467 2.439 . S
Cd463 O473 2.240 . S
Cd464 O465 2.240 . S
Cd464 O472 2.223 . S
Cd464 O474 2.297 . S
Cd464 O475 2.439 . S
O465 Cd464 2.240 . S
O465 C470 1.279 . S
O466 Cd463 2.297 . S
O466 C468 1.247 . S
O467 Cd463 2.439 . S
O467 C468 1.208 . S
C468 O466 1.247 . S
C468 O467 1.208 . S
C469 O474 1.247 . S
C469 O475 1.208 . S
C470 O462 1.315 . S
C470 O465 1.279 . S
C471 O472 1.315 . S
C471 O473 1.279 . S
O472 Cd464 2.223 . S
O472 C471 1.315 . S
O473 Cd463 2.240 . S
O473 C471 1.279 . S
O474 Cd464 2.297 . S
O474 C469 1.247 . S
O475 Cd464 2.439 . S
O475 C469 1.208 . S
O476 Cd477 2.223 . S
O476 C484 1.315 . S
Cd477 O476 2.223 . S
Cd477 O480 2.297 . S
Cd477 O481 2.439 . S
Cd477 O487 2.240 . S
Cd478 O479 2.240 . S
Cd478 O486 2.223 . S
Cd478 O488 2.297 . S
Cd478 O489 2.439 . S
O479 Cd478 2.240 . S
O479 C484 1.279 . S
O480 Cd477 2.297 . S
O480 C482 1.247 . S
O481 Cd477 2.439 . S
O481 C482 1.208 . S
C482 O480 1.247 . S
C482 O481 1.208 . S
C483 O488 1.247 . S
C483 O489 1.208 . S
C484 O476 1.315 . S
C484 O479 1.279 . S
C485 O486 1.315 . S
C485 O487 1.279 . S
O486 Cd478 2.223 . S
O486 C485 1.315 . S
O487 Cd477 2.240 . S
O487 C485 1.279 . S
O488 Cd478 2.297 . S
O488 C483 1.247 . S
O489 Cd478 2.439 . S
O489 C483 1.208 . S
O490 Cd491 2.223 . S
O490 C498 1.315 . S
Cd491 O490 2.223 . S
Cd491 O494 2.297 . S
Cd491 O495 2.439 . S
Cd491 O501 2.240 . S
Cd492 O493 2.240 . S
Cd492 O500 2.223 . S
Cd492 O502 2.297 . S
Cd492 O503 2.439 . S
O493 Cd492 2.240 . S
O493 C498 1.279 . S
O494 Cd491 2.297 . S
O494 C496 1.247 . S
O495 Cd491 2.439 . S
O495 C496 1.208 . S
C496 O494 1.247 . S
C496 O495 1.208 . S
C497 O502 1.247 . S
C497 O503 1.208 . S
C498 O490 1.315 . S
C498 O493 1.279 . S
C499 O500 1.315 . S
C499 O501 1.279 . S
O500 Cd492 2.223 . S
O500 C499 1.315 . S
O501 Cd491 2.240 . S
O501 C499 1.279 . S
O502 Cd492 2.297 . S
O502 C497 1.247 . S
O503 Cd492 2.439 . S
O503 C497 1.208 . S
C504 C505 1.349 . S
C504 C506 1.327 . S
C504 H529 0.950 . S
C505 C504 1.349 . S
C505 C521 1.349 . S
C506 C504 1.327 . S
C506 C525 1.429 . S
C506 H530 0.950 . S
C507 C524 1.574 . S
C507 C526 1.368 . S
C507 H531 0.949 . S
H508 C512 0.949 . S
C509 C510 1.349 . S
C509 C511 1.327 . S
C509 H532 0.950 . S
C510 C509 1.349 . S
C510 C522 1.349 . S
C511 C509 1.327 . S
C511 C527 1.429 . S
C511 H533 0.950 . S
C512 H508 0.949 . S
C512 C520 1.574 . S
C512 C528 1.368 . S
H513 C521 0.950 . S
H514 C519 0.950 . S
H515 C520 0.949 . S
H516 C522 0.950 . S
H517 C523 0.950 . S
H518 C524 0.949 . S
C519 H514 0.950 . S
C519 C521 1.327 . S
C519 C525 1.429 . S
C520 C512 1.574 . S
C520 H515 0.949 . S
C520 C526 1.368 . S
C521 C505 1.349 . S
C521 H513 0.950 . S
C521 C519 1.327 . S
C522 C510 1.349 . S
C522 H516 0.950 . S
C522 C523 1.327 . S
C523 H517 0.950 . S
C523 C522 1.327 . S
C523 C527 1.429 . S
C524 C507 1.574 . S
C524 H518 0.949 . S
C524 C528 1.368 . S
C525 C506 1.429 . S
C525 C519 1.429 . S
C525 C526 1.523 . S
C526 C507 1.368 . S
C526 C520 1.368 . S
C526 C525 1.523 . S
C527 C511 1.429 . S
C527 C523 1.429 . S
C527 C528 1.523 . S
C528 C512 1.368 . S
C528 C524 1.368 . S
C528 C527 1.523 . S
H529 C504 0.950 . S
H530 C506 0.950 . S
H531 C507 0.949 . S
H532 C509 0.950 . S
H533 C511 0.950 . S
C534 C535 1.349 . S
C534 C536 1.327 . S
C534 H559 0.950 . S
C535 C534 1.349 . S
C535 C551 1.349 . S
C536 C534 1.327 . S
C536 C555 1.429 . S
C536 H560 0.950 . S
C537 C554 1.574 . S
C537 C556 1.368 . S
C537 H561 0.949 . S
H538 C542 0.949 . S
C539 C540 1.349 . S
C539 C541 1.327 . S
C539 H562 0.950 . S
C540 C539 1.349 . S
C540 C552 1.349 . S
C541 C539 1.327 . S
C541 C557 1.429 . S
C541 H563 0.950 . S
C542 H538 0.949 . S
C542 C550 1.574 . S
C542 C558 1.368 . S
H543 C551 0.950 . S
H544 C549 0.950 . S
H545 C550 0.949 . S
H546 C552 0.950 1_554 S
H547 C553 0.950 . S
H548 C554 0.949 . S
C549 H544 0.950 . S
C549 C551 1.327 . S
C549 C555 1.429 . S
C550 C542 1.574 . S
C550 H545 0.949 . S
C550 C556 1.368 . S
C551 C535 1.349 . S
C551 H543 0.950 . S
C551 C549 1.327 . S
C552 C540 1.349 . S
C552 H546 0.950 1_556 S
C552 C553 1.327 . S
C553 H547 0.950 . S
C553 C552 1.327 . S
C553 C557 1.429 . S
C554 C537 1.574 . S
C554 H548 0.949 . S
C554 C558 1.368 . S
C555 C536 1.429 . S
C555 C549 1.429 . S
C555 C556 1.523 . S
C556 C537 1.368 . S
C556 C550 1.368 . S
C556 C555 1.523 . S
C557 C541 1.429 . S
C557 C553 1.429 . S
C557 C558 1.523 . S
C558 C542 1.368 . S
C558 C554 1.368 . S
C558 C557 1.523 . S
H559 C534 0.950 . S
H560 C536 0.950 . S
H561 C537 0.949 . S
H562 C539 0.950 . S
H563 C541 0.950 . S
C564 C565 1.349 . S
C564 C566 1.327 . S
C564 H589 0.950 . S
C565 C564 1.349 . S
C565 C581 1.349 . S
C566 C564 1.327 . S
C566 C585 1.429 . S
C566 H590 0.950 . S
C567 C584 1.574 . S
C567 C586 1.368 . S
C567 H591 0.949 . S
H568 C572 0.949 . S
C569 C570 1.349 . S
C569 C571 1.327 . S
C569 H592 0.950 . S
C570 C569 1.349 . S
C570 C582 1.349 . S
C571 C569 1.327 . S
C571 C587 1.429 . S
C571 H593 0.950 . S
C572 H568 0.949 . S
C572 C580 1.574 . S
C572 C588 1.368 . S
H573 C581 0.950 1_554 S
H574 C579 0.950 . S
H575 C580 0.949 . S
H576 C582 0.950 . S
H577 C583 0.950 . S
H578 C584 0.949 . S
C579 H574 0.950 . S
C579 C581 1.327 . S
C579 C585 1.429 . S
C580 C572 1.574 . S
C580 H575 0.949 . S
C580 C586 1.368 . S
C581 C565 1.349 . S
C581 H573 0.950 1_556 S
C581 C579 1.327 . S
C582 C570 1.349 . S
C582 H576 0.950 . S
C582 C583 1.327 . S
C583 H577 0.950 . S
C583 C582 1.327 . S
C583 C587 1.429 . S
C584 C567 1.574 . S
C584 H578 0.949 . S
C584 C588 1.368 . S
C585 C566 1.429 . S
C585 C579 1.429 . S
C585 C586 1.523 . S
C586 C567 1.368 . S
C586 C580 1.368 . S
C586 C585 1.523 . S
C587 C571 1.429 . S
C587 C583 1.429 . S
C587 C588 1.523 . S
C588 C572 1.368 . S
C588 C584 1.368 . S
C588 C587 1.523 . S
H589 C564 0.950 . S
H590 C566 0.950 . S
H591 C567 0.949 . S
H592 C569 0.950 . S
H593 C571 0.950 . S
C594 C595 1.349 . S
C594 C596 1.327 . S
C594 H619 0.950 . S
C595 C594 1.349 . S
C595 C611 1.349 . S
C596 C594 1.327 . S
C596 C615 1.429 . S
C596 H620 0.950 . S
C597 C614 1.574 . S
C597 C616 1.368 . S
C597 H621 0.949 . S
H598 C602 0.949 . S
C599 C600 1.349 . S
C599 C601 1.327 . S
C599 H622 0.950 . S
C600 C599 1.349 . S
C600 C612 1.349 . S
C601 C599 1.327 . S
C601 C617 1.429 . S
C601 H623 0.950 . S
C602 H598 0.949 . S
C602 C610 1.574 . S
C602 C618 1.368 . S
H603 C611 0.950 . S
H604 C609 0.950 . S
H605 C610 0.949 . S
H606 C612 0.950 . S
H607 C613 0.950 . S
H608 C614 0.949 . S
C609 H604 0.950 . S
C609 C611 1.327 . S
C609 C615 1.429 . S
C610 C602 1.574 . S
C610 H605 0.949 . S
C610 C616 1.368 . S
C611 C595 1.349 . S
C611 H603 0.950 . S
C611 C609 1.327 . S
C612 C600 1.349 . S
C612 H606 0.950 . S
C612 C613 1.327 . S
C613 H607 0.950 . S
C613 C612 1.327 . S
C613 C617 1.429 . S
C614 C597 1.574 . S
C614 H608 0.949 . S
C614 C618 1.368 . S
C615 C596 1.429 . S
C615 C609 1.429 . S
C615 C616 1.523 . S
C616 C597 1.368 . S
C616 C610 1.368 . S
C616 C615 1.523 . S
C617 C601 1.429 . S
C617 C613 1.429 . S
C617 C618 1.523 . S
C618 C602 1.368 . S
C618 C614 1.368 . S
C618 C617 1.523 . S
H619 C594 0.950 . S
H620 C596 0.950 . S
H621 C597 0.949 . S
H622 C599 0.950 . S
H623 C601 0.950 . S
C624 C625 1.349 . S
C624 C626 1.327 . S
C624 H649 0.950 . S
C625 C624 1.349 . S
C625 C641 1.349 . S
C626 C624 1.327 . S
C626 C645 1.429 . S
C626 H650 0.950 . S
C627 C644 1.574 . S
C627 C646 1.368 . S
C627 H651 0.949 . S
H628 C632 0.949 . S
C629 C630 1.349 . S
C629 C631 1.327 . S
C629 H652 0.950 . S
C630 C629 1.349 . S
C630 C642 1.349 . S
C631 C629 1.327 . S
C631 C647 1.429 . S
C631 H653 0.950 . S
C632 H628 0.949 . S
C632 C640 1.574 . S
C632 C648 1.368 . S
H633 C641 0.950 . S
H634 C639 0.950 . S
H635 C640 0.949 . S
H636 C642 0.950 . S
H637 C643 0.950 . S
H638 C644 0.949 . S
C639 H634 0.950 . S
C639 C641 1.327 . S
C639 C645 1.429 . S
C640 C632 1.574 . S
C640 H635 0.949 . S
C640 C646 1.368 . S
C641 C625 1.349 . S
C641 H633 0.950 . S
C641 C639 1.327 . S
C642 C630 1.349 . S
C642 H636 0.950 . S
C642 C643 1.327 . S
C643 H637 0.950 . S
C643 C642 1.327 . S
C643 C647 1.429 . S
C644 C627 1.574 . S
C644 H638 0.949 . S
C644 C648 1.368 . S
C645 C626 1.429 . S
C645 C639 1.429 . S
C645 C646 1.523 . S
C646 C627 1.368 . S
C646 C640 1.368 . S
C646 C645 1.523 . S
C647 C631 1.429 . S
C647 C643 1.429 . S
C647 C648 1.523 . S
C648 C632 1.368 . S
C648 C644 1.368 . S
C648 C647 1.523 . S
H649 C624 0.950 . S
H650 C626 0.950 . S
H651 C627 0.949 . S
H652 C629 0.950 . S
H653 C631 0.950 . S
C654 C655 1.349 . S
C654 C656 1.327 . S
C654 H679 0.950 . S
C655 C654 1.349 . S
C655 C671 1.349 . S
C656 C654 1.327 . S
C656 C675 1.429 . S
C656 H680 0.950 . S
C657 C674 1.574 . S
C657 C676 1.368 . S
C657 H681 0.949 . S
H658 C662 0.949 . S
C659 C660 1.349 . S
C659 C661 1.327 . S
C659 H682 0.950 . S
C660 C659 1.349 . S
C660 C672 1.349 . S
C661 C659 1.327 . S
C661 C677 1.429 . S
C661 H683 0.950 . S
C662 H658 0.949 . S
C662 C670 1.574 . S
C662 C678 1.368 . S
H663 C671 0.950 . S
H664 C669 0.950 . S
H665 C670 0.949 . S
H666 C672 0.950 . S
H667 C673 0.950 . S
H668 C674 0.949 . S
C669 H664 0.950 . S
C669 C671 1.327 . S
C669 C675 1.429 . S
C670 C662 1.574 . S
C670 H665 0.949 . S
C670 C676 1.368 . S
C671 C655 1.349 . S
C671 H663 0.950 . S
C671 C669 1.327 . S
C672 C660 1.349 . S
C672 H666 0.950 . S
C672 C673 1.327 . S
C673 H667 0.950 . S
C673 C672 1.327 . S
C673 C677 1.429 . S
C674 C657 1.574 . S
C674 H668 0.949 . S
C674 C678 1.368 . S
C675 C656 1.429 . S
C675 C669 1.429 . S
C675 C676 1.523 . S
C676 C657 1.368 . S
C676 C670 1.368 . S
C676 C675 1.523 . S
C677 C661 1.429 . S
C677 C673 1.429 . S
C677 C678 1.523 . S
C678 C662 1.368 . S
C678 C674 1.368 . S
C678 C677 1.523 . S
H679 C654 0.950 . S
H680 C656 0.950 . S
H681 C657 0.949 . S
H682 C659 0.950 . S
H683 C661 0.950 . S
C684 C685 1.349 . S
C684 C686 1.327 . S
C684 H709 0.950 . S
C685 C684 1.349 . S
C685 C701 1.349 . S
C686 C684 1.327 . S
C686 C705 1.429 . S
C686 H710 0.950 . S
C687 C704 1.574 . S
C687 C706 1.368 . S
C687 H711 0.949 . S
H688 C692 0.949 . S
C689 C690 1.349 . S
C689 C691 1.327 . S
C689 H712 0.950 . S
C690 C689 1.349 . S
C690 C702 1.349 . S
C691 C689 1.327 . S
C691 C707 1.429 . S
C691 H713 0.950 . S
C692 H688 0.949 . S
C692 C700 1.574 . S
C692 C708 1.368 . S
H693 C701 0.950 . S
H694 C699 0.950 . S
H695 C700 0.949 . S
H696 C702 0.943 1_556 S
H697 C703 0.950 . S
H698 C704 0.949 . S
C699 H694 0.950 . S
C699 C701 1.327 . S
C699 C705 1.429 . S
C700 C692 1.574 . S
C700 H695 0.949 . S
C700 C706 1.368 . S
C701 C685 1.349 . S
C701 H693 0.950 . S
C701 C699 1.327 . S
C702 C690 1.349 . S
C702 H696 0.943 1_554 S
C702 C703 1.327 . S
C703 H697 0.950 . S
C703 C702 1.327 . S
C703 C707 1.429 . S
C704 C687 1.574 . S
C704 H698 0.949 . S
C704 C708 1.368 . S
C705 C686 1.429 . S
C705 C699 1.429 . S
C705 C706 1.523 . S
C706 C687 1.368 . S
C706 C700 1.368 . S
C706 C705 1.523 . S
C707 C691 1.429 . S
C707 C703 1.429 . S
C707 C708 1.523 . S
C708 C692 1.368 . S
C708 C704 1.368 . S
C708 C707 1.523 . S
H709 C684 0.950 . S
H710 C686 0.950 . S
H711 C687 0.949 . S
H712 C689 0.950 . S
H713 C691 0.950 . S
C714 C715 1.349 . S
C714 C716 1.327 . S
C714 H739 0.950 . S
C715 C714 1.349 . S
C715 C731 1.349 . S
C716 C714 1.327 . S
C716 C735 1.429 . S
C716 H740 0.950 . S
C717 C734 1.574 . S
C717 C736 1.368 . S
C717 H741 0.949 . S
H718 C722 0.949 . S
C719 C720 1.349 . S
C719 C721 1.327 . S
C719 H742 0.950 . S
C720 C719 1.349 . S
C720 C732 1.349 . S
C721 C719 1.327 . S
C721 C737 1.429 . S
C721 H743 0.950 . S
C722 H718 0.949 . S
C722 C730 1.574 . S
C722 C738 1.368 . S
H723 C731 0.950 . S
H724 C729 0.950 . S
H725 C730 0.949 . S
H726 C732 0.936 1_556 S
H727 C733 0.950 . S
H728 C734 0.949 . S
C729 H724 0.950 . S
C729 C731 1.327 . S
C729 C735 1.429 . S
C730 C722 1.574 . S
C730 H725 0.949 . S
C730 C736 1.368 . S
C731 C715 1.349 . S
C731 H723 0.950 . S
C731 C729 1.327 . S
C732 C720 1.349 . S
C732 H726 0.936 1_554 S
C732 C733 1.327 . S
C733 H727 0.950 . S
C733 C732 1.327 . S
C733 C737 1.429 . S
C734 C717 1.574 . S
C734 H728 0.949 . S
C734 C738 1.368 . S
C735 C716 1.429 . S
C735 C729 1.429 . S
C735 C736 1.523 . S
C736 C717 1.368 . S
C736 C730 1.368 . S
C736 C735 1.523 . S
C737 C721 1.429 . S
C737 C733 1.429 . S
C737 C738 1.523 . S
C738 C722 1.368 . S
C738 C734 1.368 . S
C738 C737 1.523 . S
H739 C714 0.950 . S
H740 C716 0.950 . S
H741 C717 0.949 . S
H742 C719 0.950 . S
H743 C721 0.950 . S
C744 C745 1.349 . S
C744 C746 1.327 . S
C744 H769 0.950 . S
C745 C744 1.349 . S
C745 C761 1.349 . S
C746 C744 1.327 . S
C746 C765 1.429 . S
C746 H770 0.950 . S
C747 C764 1.574 . S
C747 C766 1.368 . S
C747 H771 0.949 . S
H748 C752 0.949 . S
C749 C750 1.349 . S
C749 C751 1.327 . S
C749 H772 0.950 . S
C750 C749 1.349 . S
C750 C762 1.349 . S
C751 C749 1.327 . S
C751 C767 1.429 . S
C751 H773 0.950 . S
C752 H748 0.949 . S
C752 C760 1.574 . S
C752 C768 1.368 . S
H753 C761 0.950 . S
H754 C759 0.950 . S
H755 C760 0.949 . S
H756 C762 0.950 1_556 S
H757 C763 0.950 . S
H758 C764 0.949 . S
C759 H754 0.950 . S
C759 C761 1.327 . S
C759 C765 1.429 . S
C760 C752 1.574 . S
C760 H755 0.949 . S
C760 C766 1.368 . S
C761 C745 1.349 . S
C761 H753 0.950 . S
C761 C759 1.327 . S
C762 C750 1.349 . S
C762 H756 0.950 1_554 S
C762 C763 1.327 . S
C763 H757 0.950 . S
C763 C762 1.327 . S
C763 C767 1.429 . S
C764 C747 1.574 . S
C764 H758 0.949 . S
C764 C768 1.368 . S
C765 C746 1.429 . S
C765 C759 1.429 . S
C765 C766 1.523 . S
C766 C747 1.368 . S
C766 C760 1.368 . S
C766 C765 1.523 . S
C767 C751 1.429 . S
C767 C763 1.429 . S
C767 C768 1.523 . S
C768 C752 1.368 . S
C768 C764 1.368 . S
C768 C767 1.523 . S
H769 C744 0.950 . S
H770 C746 0.950 . S
H771 C747 0.949 . S
H772 C749 0.950 . S
H773 C751 0.950 . S
C774 C775 1.349 . S
C774 C776 1.327 . S
C774 H799 0.950 . S
C775 C774 1.349 . S
C775 C791 1.349 . S
C776 C774 1.327 . S
C776 C795 1.429 . S
C776 H800 0.950 . S
C777 C794 1.574 . S
C777 C796 1.368 . S
C777 H801 0.949 . S
H778 C782 0.949 . S
C779 C780 1.349 . S
C779 C781 1.327 . S
C779 H802 0.950 . S
C780 C779 1.349 . S
C780 C792 1.349 . S
C781 C779 1.327 . S
C781 C797 1.429 . S
C781 H803 0.950 . S
C782 H778 0.949 . S
C782 C790 1.574 . S
C782 C798 1.368 . S
H783 C791 0.950 . S
H784 C789 0.950 . S
H785 C790 0.949 . S
H786 C792 0.950 . S
H787 C793 0.950 . S
H788 C794 0.949 . S
C789 H784 0.950 . S
C789 C791 1.327 . S
C789 C795 1.429 . S
C790 C782 1.574 . S
C790 H785 0.949 . S
C790 C796 1.368 . S
C791 C775 1.349 . S
C791 H783 0.950 . S
C791 C789 1.327 . S
C792 C780 1.349 . S
C792 H786 0.950 . S
C792 C793 1.327 . S
C793 H787 0.950 . S
C793 C792 1.327 . S
C793 C797 1.429 . S
C794 C777 1.574 . S
C794 H788 0.949 . S
C794 C798 1.368 . S
C795 C776 1.429 . S
C795 C789 1.429 . S
C795 C796 1.523 . S
C796 C777 1.368 . S
C796 C790 1.368 . S
C796 C795 1.523 . S
C797 C781 1.429 . S
C797 C793 1.429 . S
C797 C798 1.523 . S
C798 C782 1.368 . S
C798 C794 1.368 . S
C798 C797 1.523 . S
H799 C774 0.950 . S
H800 C776 0.950 . S
H801 C777 0.949 . S
H802 C779 0.950 . S
H803 C781 0.950 . S
C804 C805 1.349 . S
C804 C806 1.327 . S
C804 H829 0.950 . S
C805 C804 1.349 . S
C805 C821 1.349 . S
C806 C804 1.327 . S
C806 C825 1.429 . S
C806 H830 0.950 . S
C807 C824 1.574 . S
C807 C826 1.368 . S
C807 H831 0.949 . S
H808 C812 0.949 . S
C809 C810 1.349 . S
C809 C811 1.327 . S
C809 H832 0.950 . S
C810 C809 1.349 . S
C810 C822 1.349 . S
C811 C809 1.327 . S
C811 C827 1.429 . S
C811 H833 0.950 . S
C812 H808 0.949 . S
C812 C820 1.574 . S
C812 C828 1.368 . S
H813 C821 0.950 . S
H814 C819 0.950 . S
H815 C820 0.949 . S
H816 C822 0.950 . S
H817 C823 0.950 . S
H818 C824 0.949 . S
C819 H814 0.950 . S
C819 C821 1.327 . S
C819 C825 1.429 . S
C820 C812 1.574 . S
C820 H815 0.949 . S
C820 C826 1.368 . S
C821 C805 1.349 . S
C821 H813 0.950 . S
C821 C819 1.327 . S
C822 C810 1.349 . S
C822 H816 0.950 . S
C822 C823 1.327 . S
C823 H817 0.950 . S
C823 C822 1.327 . S
C823 C827 1.429 . S
C824 C807 1.574 . S
C824 H818 0.949 . S
C824 C828 1.368 . S
C825 C806 1.429 . S
C825 C819 1.429 . S
C825 C826 1.523 . S
C826 C807 1.368 . S
C826 C820 1.368 . S
C826 C825 1.523 . S
C827 C811 1.429 . S
C827 C823 1.429 . S
C827 C828 1.523 . S
C828 C812 1.368 . S
C828 C824 1.368 . S
C828 C827 1.523 . S
H829 C804 0.950 . S
H830 C806 0.950 . S
H831 C807 0.949 . S
H832 C809 0.950 . S
H833 C811 0.950 . S
C834 C835 1.349 . S
C834 C836 1.327 . S
C834 H859 0.950 . S
C835 C834 1.349 . S
C835 C851 1.349 . S
C836 C834 1.327 . S
C836 C855 1.429 . S
C836 H860 0.950 . S
C837 C854 1.574 . S
C837 C856 1.368 . S
C837 H861 0.949 . S
H838 C842 0.949 . S
C839 C840 1.349 . S
C839 C841 1.327 . S
C839 H862 0.950 . S
C840 C839 1.349 . S
C840 C852 1.349 . S
C841 C839 1.327 . S
C841 C857 1.429 . S
C841 H863 0.950 . S
C842 H838 0.949 . S
C842 C850 1.574 . S
C842 C858 1.368 . S
H843 C851 0.950 . S
H844 C849 0.950 . S
H845 C850 0.949 . S
H846 C852 0.950 . S
H847 C853 0.950 . S
H848 C854 0.949 . S
C849 H844 0.950 . S
C849 C851 1.327 . S
C849 C855 1.429 . S
C850 C842 1.574 . S
C850 H845 0.949 . S
C850 C856 1.368 . S
C851 C835 1.349 . S
C851 H843 0.950 . S
C851 C849 1.327 . S
C852 C840 1.349 . S
C852 H846 0.950 . S
C852 C853 1.327 . S
C853 H847 0.950 . S
C853 C852 1.327 . S
C853 C857 1.429 . S
C854 C837 1.574 . S
C854 H848 0.949 . S
C854 C858 1.368 . S
C855 C836 1.429 . S
C855 C849 1.429 . S
C855 C856 1.523 . S
C856 C837 1.368 . S
C856 C850 1.368 . S
C856 C855 1.523 . S
C857 C841 1.429 . S
C857 C853 1.429 . S
C857 C858 1.523 . S
C858 C842 1.368 . S
C858 C854 1.368 . S
C858 C857 1.523 . S
H859 C834 0.950 . S
H860 C836 0.950 . S
H861 C837 0.949 . S
H862 C839 0.950 . S
H863 C841 0.950 . S
C864 C865 1.349 . S
C864 C866 1.327 . S
C864 H889 0.950 . S
C865 C864 1.349 . S
C865 C881 1.349 . S
C866 C864 1.327 . S
C866 C885 1.429 . S
C866 H890 0.950 . S
C867 C884 1.574 1_455 S
C867 C886 1.368 . S
C867 H891 0.949 . S
H868 C872 0.949 . S
C869 C870 1.349 . S
C869 C871 1.327 . S
C869 H892 0.950 . S
C870 C869 1.349 . S
C870 C882 1.349 . S
C871 C869 1.327 . S
C871 C887 1.429 . S
C871 H893 0.950 . S
C872 H868 0.949 . S
C872 C880 1.574 1_655 S
C872 C888 1.368 . S
H873 C881 0.950 . S
H874 C879 0.950 . S
H875 C880 0.949 . S
H876 C882 0.950 . S
H877 C883 0.950 . S
H878 C884 0.949 . S
C879 H874 0.950 . S
C879 C881 1.327 . S
C879 C885 1.429 . S
C880 C872 1.574 1_455 S
C880 H875 0.949 . S
C880 C886 1.368 . S
C881 C865 1.349 . S
C881 H873 0.950 . S
C881 C879 1.327 . S
C882 C870 1.349 . S
C882 H876 0.950 . S
C882 C883 1.327 . S
C883 H877 0.950 . S
C883 C882 1.327 . S
C883 C887 1.429 . S
C884 C867 1.574 1_655 S
C884 H878 0.949 . S
C884 C888 1.368 . S
C885 C866 1.429 . S
C885 C879 1.429 . S
C885 C886 1.523 . S
C886 C867 1.368 . S
C886 C880 1.368 . S
C886 C885 1.523 . S
C887 C871 1.429 . S
C887 C883 1.429 . S
C887 C888 1.523 . S
C888 C872 1.368 . S
C888 C884 1.368 . S
C888 C887 1.523 . S
H889 C864 0.950 . S
H890 C866 0.950 . S
H891 C867 0.949 . S
H892 C869 0.950 . S
H893 C871 0.950 . S
C894 C895 1.349 . S
C894 C896 1.327 . S
C894 H919 0.950 . S
C895 C894 1.349 . S
C895 C911 1.349 . S
C896 C894 1.327 . S
C896 C915 1.429 . S
C896 H920 0.950 . S
C897 C914 1.574 . S
C897 C916 1.368 . S
C897 H921 0.949 . S
H898 C902 0.949 . S
C899 C900 1.349 . S
C899 C901 1.327 . S
C899 H922 0.950 . S
C900 C899 1.349 . S
C900 C912 1.349 . S
C901 C899 1.327 . S
C901 C917 1.429 . S
C901 H923 0.950 . S
C902 H898 0.949 . S
C902 C910 1.574 . S
C902 C918 1.368 . S
H903 C911 0.950 . S
H904 C909 0.950 . S
H905 C910 0.949 . S
H906 C912 0.950 . S
H907 C913 0.950 . S
H908 C914 0.949 . S
C909 H904 0.950 . S
C909 C911 1.327 . S
C909 C915 1.429 . S
C910 C902 1.574 . S
C910 H905 0.949 . S
C910 C916 1.368 . S
C911 C895 1.349 . S
C911 H903 0.950 . S
C911 C909 1.327 . S
C912 C900 1.349 . S
C912 H906 0.950 . S
C912 C913 1.327 . S
C913 H907 0.950 . S
C913 C912 1.327 . S
C913 C917 1.429 . S
C914 C897 1.574 . S
C914 H908 0.949 . S
C914 C918 1.368 . S
C915 C896 1.429 . S
C915 C909 1.429 . S
C915 C916 1.523 . S
C916 C897 1.368 . S
C916 C910 1.368 . S
C916 C915 1.523 . S
C917 C901 1.429 . S
C917 C913 1.429 . S
C917 C918 1.523 . S
C918 C902 1.368 . S
C918 C914 1.368 . S
C918 C917 1.523 . S
H919 C894 0.950 . S
H920 C896 0.950 . S
H921 C897 0.949 . S
H922 C899 0.950 . S
H923 C901 0.950 . S
C924 C925 1.349 . S
C924 C926 1.327 . S
C924 H949 0.950 . S
C925 C924 1.349 . S
C925 C941 1.349 . S
C926 C924 1.327 . S
C926 C945 1.429 . S
C926 H950 0.950 . S
C927 C944 1.574 1_565 S
C927 C946 1.368 . S
C927 H951 0.949 . S
H928 C932 0.949 . S
C929 C930 1.349 . S
C929 C931 1.327 . S
C929 H952 0.950 . S
C930 C929 1.349 . S
C930 C942 1.349 . S
C931 C929 1.327 . S
C931 C947 1.429 . S
C931 H953 0.950 . S
C932 H928 0.949 . S
C932 C940 1.574 1_545 S
C932 C948 1.368 . S
H933 C941 0.950 . S
H934 C939 0.950 . S
H935 C940 0.949 . S
H936 C942 0.950 . S
H937 C943 0.950 . S
H938 C944 0.949 . S
C939 H934 0.950 . S
C939 C941 1.327 . S
C939 C945 1.429 . S
C940 C932 1.574 1_565 S
C940 H935 0.949 . S
C940 C946 1.368 . S
C941 C925 1.349 . S
C941 H933 0.950 . S
C941 C939 1.327 . S
C942 C930 1.349 . S
C942 H936 0.950 . S
C942 C943 1.327 . S
C943 H937 0.950 . S
C943 C942 1.327 . S
C943 C947 1.429 . S
C944 C927 1.574 1_545 S
C944 H938 0.949 . S
C944 C948 1.368 . S
C945 C926 1.429 . S
C945 C939 1.429 . S
C945 C946 1.523 . S
C946 C927 1.368 . S
C946 C940 1.368 . S
C946 C945 1.523 . S
C947 C931 1.429 . S
C947 C943 1.429 . S
C947 C948 1.523 . S
C948 C932 1.368 . S
C948 C944 1.368 . S
C948 C947 1.523 . S
H949 C924 0.950 . S
H950 C926 0.950 . S
H951 C927 0.949 . S
H952 C929 0.950 . S
H953 C931 0.950 . S
C954 C955 1.349 . S
C954 C956 1.327 . S
C954 H979 0.950 . S
C955 C954 1.349 . S
C955 C971 1.349 . S
C956 C954 1.327 . S
C956 C975 1.429 . S
C956 H980 0.950 . S
C957 C974 1.518 1_565 S
C957 C976 1.420 . S
C957 H981 0.957 . S
H958 C962 0.957 . S
C959 C960 1.349 . S
C959 C961 1.327 . S
C959 H982 0.950 . S
C960 C959 1.349 . S
C960 C972 1.349 . S
C961 C959 1.327 . S
C961 C977 1.429 . S
C961 H983 0.950 . S
C962 H958 0.957 . S
C962 C970 1.519 1_545 S
C962 C978 1.419 . S
H963 C971 0.950 . S
H964 C969 0.950 . S
H965 C970 0.949 . S
H966 C972 0.950 . S
H967 C973 0.950 . S
H968 C974 0.949 . S
C969 H964 0.950 . S
C969 C971 1.327 . S
C969 C975 1.429 . S
C970 C962 1.519 1_565 S
C970 H965 0.949 . S
C970 C976 1.368 . S
C971 C955 1.349 . S
C971 H963 0.950 . S
C971 C969 1.327 . S
C972 C960 1.349 . S
C972 H966 0.950 . S
C972 C973 1.327 . S
C973 H967 0.950 . S
C973 C972 1.327 . S
C973 C977 1.429 . S
C974 C957 1.518 1_545 S
C974 H968 0.949 . S
C974 C978 1.368 . S
C975 C956 1.429 . S
C975 C969 1.429 . S
C975 C976 1.523 . S
C976 C957 1.420 . S
C976 C970 1.368 . S
C976 C975 1.523 . S
C977 C961 1.429 . S
C977 C973 1.429 . S
C977 C978 1.523 . S
C978 C962 1.419 . S
C978 C974 1.368 . S
C978 C977 1.523 . S
H979 C954 0.950 . S
H980 C956 0.950 . S
H981 C957 0.957 . S
H982 C959 0.950 . S
H983 C961 0.950 . S
C984 C985 1.349 . S
C984 C986 1.327 . S
C984 H1009 0.950 . S
C985 C984 1.349 . S
C985 C1001 1.349 . S
C986 C984 1.327 . S
C986 C1005 1.429 . S
C986 H1010 0.950 . S
C987 C1004 1.574 1_455 S
C987 C1006 1.368 . S
C987 H1011 0.949 . S
H988 C992 0.949 . S
C989 C990 1.349 . S
C989 C991 1.327 . S
C989 H1012 0.950 . S
C990 C989 1.349 . S
C990 C1002 1.349 . S
C991 C989 1.327 . S
C991 C1007 1.429 . S
C991 H1013 0.950 . S
C992 H988 0.949 . S
C992 C1000 1.574 1_655 S
C992 C1008 1.368 . S
H993 C1001 0.950 . S
H994 C999 0.950 . S
H995 C1000 0.949 . S
H996 C1002 0.950 . S
H997 C1003 0.950 . S
H998 C1004 0.949 . S
C999 H994 0.950 . S
C999 C1001 1.327 . S
C999 C1005 1.429 . S
C1000 C992 1.574 1_455 S
C1000 H995 0.949 . S
C1000 C1006 1.368 . S
C1001 C985 1.349 . S
C1001 H993 0.950 . S
C1001 C999 1.327 . S
C1002 C990 1.349 . S
C1002 H996 0.950 . S
C1002 C1003 1.327 . S
C1003 H997 0.950 . S
C1003 C1002 1.327 . S
C1003 C1007 1.429 . S
C1004 C987 1.574 1_655 S
C1004 H998 0.949 . S
C1004 C1008 1.368 . S
C1005 C986 1.429 . S
C1005 C999 1.429 . S
C1005 C1006 1.523 . S
C1006 C987 1.368 . S
C1006 C1000 1.368 . S
C1006 C1005 1.523 . S
C1007 C991 1.429 . S
C1007 C1003 1.429 . S
C1007 C1008 1.523 . S
C1008 C992 1.368 . S
C1008 C1004 1.368 . S
C1008 C1007 1.523 . S
H1009 C984 0.950 . S
H1010 C986 0.950 . S
H1011 C987 0.949 . S
H1012 C989 0.950 . S
H1013 C991 0.950 . S
C1014 C1015 1.349 . S
C1014 C1016 1.327 . S
C1014 H1039 0.950 . S
C1015 C1014 1.349 . S
C1015 C1031 1.349 . S
C1016 C1014 1.327 . S
C1016 C1035 1.429 . S
C1016 H1040 0.950 . S
C1017 C1034 1.574 . S
C1017 C1036 1.368 . S
C1017 H1041 0.949 . S
H1018 C1022 0.949 . S
C1019 C1020 1.349 . S
C1019 C1021 1.327 . S
C1019 H1042 0.950 . S
C1020 C1019 1.349 . S
C1020 C1032 1.349 . S
C1021 C1019 1.327 . S
C1021 C1037 1.429 . S
C1021 H1043 0.950 . S
C1022 H1018 0.949 . S
C1022 C1030 1.574 . S
C1022 C1038 1.368 . S
H1023 C1031 0.950 . S
H1024 C1029 0.950 . S
H1025 C1030 0.949 . S
H1026 C1032 0.950 . S
H1027 C1033 0.950 . S
H1028 C1034 0.949 . S
C1029 H1024 0.950 . S
C1029 C1031 1.327 . S
C1029 C1035 1.429 . S
C1030 C1022 1.574 . S
C1030 H1025 0.949 . S
C1030 C1036 1.368 . S
C1031 C1015 1.349 . S
C1031 H1023 0.950 . S
C1031 C1029 1.327 . S
C1032 C1020 1.349 . S
C1032 H1026 0.950 . S
C1032 C1033 1.327 . S
C1033 H1027 0.950 . S
C1033 C1032 1.327 . S
C1033 C1037 1.429 . S
C1034 C1017 1.574 . S
C1034 H1028 0.949 . S
C1034 C1038 1.368 . S
C1035 C1016 1.429 . S
C1035 C1029 1.429 . S
C1035 C1036 1.523 . S
C1036 C1017 1.368 . S
C1036 C1030 1.368 . S
C1036 C1035 1.523 . S
C1037 C1021 1.429 . S
C1037 C1033 1.429 . S
C1037 C1038 1.523 . S
C1038 C1022 1.368 . S
C1038 C1034 1.368 . S
C1038 C1037 1.523 . S
H1039 C1014 0.950 . S
H1040 C1016 0.950 . S
H1041 C1017 0.949 . S
H1042 C1019 0.950 . S
H1043 C1021 0.950 . S
C1044 C1045 1.349 1_554 S
C1044 C1046 1.327 . S
C1044 H1069 0.950 . S
C1045 C1044 1.349 1_556 S
C1045 C1061 1.349 . S
C1046 C1044 1.327 . S
C1046 C1065 1.429 1_554 S
C1046 H1070 0.950 . S
C1047 C1064 1.574 . S
C1047 C1066 1.349 1_556 S
C1047 H1071 0.949 . S
H1048 C1052 0.949 . S
C1049 C1050 1.349 . S
C1049 C1051 1.327 . S
C1049 H1072 0.950 1_554 S
C1050 C1049 1.349 . S
C1050 C1062 1.349 . S
C1051 C1049 1.327 . S
C1051 C1067 1.429 . S
C1051 H1073 0.950 1_554 S
C1052 H1048 0.949 . S
C1052 C1060 1.574 . S
C1052 C1068 1.368 . S
H1053 C1061 0.950 . S
H1054 C1059 0.950 . S
H1055 C1060 0.949 . S
H1056 C1062 0.950 . S
H1057 C1063 0.950 . S
H1058 C1064 0.949 . S
C1059 H1054 0.950 . S
C1059 C1061 1.327 . S
C1059 C1065 1.429 . S
C1060 C1052 1.574 . S
C1060 H1055 0.949 . S
C1060 C1066 1.393 . S
C1061 C1045 1.349 . S
C1061 H1053 0.950 . S
C1061 C1059 1.327 . S
C1062 C1050 1.349 . S
C1062 H1056 0.950 . S
C1062 C1063 1.327 . S
C1063 H1057 0.950 . S
C1063 C1062 1.327 . S
C1063 C1067 1.429 . S
C1064 C1047 1.574 . S
C1064 H1058 0.949 . S
C1064 C1068 1.368 1_556 S
C1065 C1046 1.429 1_556 S
C1065 C1059 1.429 . S
C1065 C1066 1.517 1_556 S
C1066 C1047 1.349 1_554 S
C1066 C1060 1.393 . S
C1066 C1065 1.517 1_554 S
C1067 C1051 1.429 . S
C1067 C1063 1.429 . S
C1067 C1068 1.523 . S
C1068 C1052 1.368 . S
C1068 C1064 1.368 1_554 S
C1068 C1067 1.523 . S
H1069 C1044 0.950 . S
H1070 C1046 0.950 . S
H1071 C1047 0.949 . S
H1072 C1049 0.950 1_556 S
H1073 C1051 0.950 1_556 S
C1074 C1075 1.349 1_554 S
C1074 C1076 1.327 . S
C1074 H1099 0.950 . S
C1075 C1074 1.349 1_556 S
C1075 C1091 1.349 . S
C1076 C1074 1.327 . S
C1076 C1095 1.429 1_554 S
C1076 H1100 0.950 . S
C1077 C1094 1.574 . S
C1077 C1096 1.352 1_556 S
C1077 H1101 0.949 . S
H1078 C1082 0.949 . S
C1079 C1080 1.349 . S
C1079 C1081 1.327 . S
C1079 H1102 0.950 1_554 S
C1080 C1079 1.349 . S
C1080 C1092 1.349 . S
C1081 C1079 1.327 . S
C1081 C1097 1.429 . S
C1081 H1103 0.950 1_554 S
C1082 H1078 0.949 . S
C1082 C1090 1.574 . S
C1082 C1098 1.368 . S
H1083 C1091 0.950 . S
H1084 C1089 0.950 . S
H1085 C1090 0.949 . S
H1086 C1092 0.950 . S
H1087 C1093 0.950 . S
H1088 C1094 0.949 . S
C1089 H1084 0.950 . S
C1089 C1091 1.327 . S
C1089 C1095 1.429 . S
C1090 C1082 1.574 . S
C1090 H1085 0.949 . S
C1090 C1096 1.390 . S
C1091 C1075 1.349 . S
C1091 H1083 0.950 . S
C1091 C1089 1.327 . S
C1092 C1080 1.349 . S
C1092 H1086 0.950 . S
C1092 C1093 1.327 . S
C1093 H1087 0.950 . S
C1093 C1092 1.327 . S
C1093 C1097 1.429 . S
C1094 C1077 1.574 . S
C1094 H1088 0.949 . S
C1094 C1098 1.368 1_556 S
C1095 C1076 1.429 1_556 S
C1095 C1089 1.429 . S
C1095 C1096 1.517 1_556 S
C1096 C1077 1.352 1_554 S
C1096 C1090 1.390 . S
C1096 C1095 1.517 1_554 S
C1097 C1081 1.429 . S
C1097 C1093 1.429 . S
C1097 C1098 1.523 . S
C1098 C1082 1.368 . S
C1098 C1094 1.368 1_554 S
C1098 C1097 1.523 . S
H1099 C1074 0.950 . S
H1100 C1076 0.950 . S
H1101 C1077 0.949 . S
H1102 C1079 0.950 1_556 S
H1103 C1081 0.950 1_556 S
C1104 C1105 1.349 . S
C1104 C1106 1.327 1_556 S
C1104 H1129 0.950 1_556 S
C1105 C1104 1.349 . S
C1105 C1121 1.349 . S
C1106 C1104 1.327 1_554 S
C1106 C1125 1.429 1_554 S
C1106 H1130 0.950 . S
C1107 C1124 1.574 . S
C1107 C1126 1.356 1_556 S
C1107 H1131 0.949 . S
H1108 C1112 0.949 . S
C1109 C1110 1.349 . S
C1109 C1111 1.327 . S
C1109 H1132 0.950 . S
C1110 C1109 1.349 . S
C1110 C1122 1.349 . S
C1111 C1109 1.327 . S
C1111 C1127 1.429 . S
C1111 H1133 0.950 1_554 S
C1112 H1108 0.949 . S
C1112 C1120 1.574 . S
C1112 C1128 1.368 . S
H1113 C1121 0.950 . S
H1114 C1119 0.950 . S
H1115 C1120 0.949 . S
H1116 C1122 0.950 . S
H1117 C1123 0.950 . S
H1118 C1124 0.949 . S
C1119 H1114 0.950 . S
C1119 C1121 1.327 . S
C1119 C1125 1.429 . S
C1120 C1112 1.574 . S
C1120 H1115 0.949 . S
C1120 C1126 1.385 . S
C1121 C1105 1.349 . S
C1121 H1113 0.950 . S
C1121 C1119 1.327 . S
C1122 C1110 1.349 . S
C1122 H1116 0.950 . S
C1122 C1123 1.327 . S
C1123 H1117 0.950 . S
C1123 C1122 1.327 . S
C1123 C1127 1.429 . S
C1124 C1107 1.574 . S
C1124 H1118 0.949 . S
C1124 C1128 1.368 1_556 S
C1125 C1106 1.429 1_556 S
C1125 C1119 1.429 . S
C1125 C1126 1.517 1_556 S
C1126 C1107 1.356 1_554 S
C1126 C1120 1.385 . S
C1126 C1125 1.517 1_554 S
C1127 C1111 1.429 . S
C1127 C1123 1.429 . S
C1127 C1128 1.523 . S
C1128 C1112 1.368 . S
C1128 C1124 1.368 1_554 S
C1128 C1127 1.523 . S
H1129 C1104 0.950 1_554 S
H1130 C1106 0.950 . S
H1131 C1107 0.949 . S
H1132 C1109 0.950 . S
H1133 C1111 0.950 1_556 S
C1134 C1135 1.349 . S
C1134 C1136 1.327 . S
C1134 H1159 0.950 . S
C1135 C1134 1.349 . S
C1135 C1151 1.349 . S
C1136 C1134 1.327 . S
C1136 C1155 1.429 . S
C1136 H1160 0.950 . S
C1137 C1154 1.574 . S
C1137 C1156 1.368 . S
C1137 H1161 0.949 . S
H1138 C1142 0.949 . S
C1139 C1140 1.349 . S
C1139 C1141 1.327 . S
C1139 H1162 0.950 . S
C1140 C1139 1.349 . S
C1140 C1152 1.349 . S
C1141 C1139 1.327 . S
C1141 C1157 1.429 . S
C1141 H1163 0.950 . S
C1142 H1138 0.949 . S
C1142 C1150 1.574 . S
C1142 C1158 1.368 . S
H1143 C1151 0.950 . S
H1144 C1149 0.950 . S
H1145 C1150 0.949 . S
H1146 C1152 0.950 . S
H1147 C1153 0.950 . S
H1148 C1154 0.949 . S
C1149 H1144 0.950 . S
C1149 C1151 1.327 . S
C1149 C1155 1.429 . S
C1150 C1142 1.574 . S
C1150 H1145 0.949 . S
C1150 C1156 1.368 . S
C1151 C1135 1.349 . S
C1151 H1143 0.950 . S
C1151 C1149 1.327 . S
C1152 C1140 1.349 . S
C1152 H1146 0.950 . S
C1152 C1153 1.327 . S
C1153 H1147 0.950 . S
C1153 C1152 1.327 . S
C1153 C1157 1.429 . S
C1154 C1137 1.574 . S
C1154 H1148 0.949 . S
C1154 C1158 1.368 . S
C1155 C1136 1.429 . S
C1155 C1149 1.429 . S
C1155 C1156 1.523 . S
C1156 C1137 1.368 . S
C1156 C1150 1.368 . S
C1156 C1155 1.523 . S
C1157 C1141 1.429 . S
C1157 C1153 1.429 . S
C1157 C1158 1.523 . S
C1158 C1142 1.368 . S
C1158 C1154 1.368 . S
C1158 C1157 1.523 . S
H1159 C1134 0.950 . S
H1160 C1136 0.950 . S
H1161 C1137 0.949 . S
H1162 C1139 0.950 . S
H1163 C1141 0.950 . S
C1164 C1165 1.349 . S
C1164 C1166 1.327 . S
C1164 H1189 0.950 . S
C1165 C1164 1.349 . S
C1165 C1181 1.349 . S
C1166 C1164 1.327 . S
C1166 C1185 1.429 . S
C1166 H1190 0.950 . S
C1167 C1184 1.574 . S
C1167 C1186 1.368 . S
C1167 H1191 0.949 . S
H1168 C1172 0.949 . S
C1169 C1170 1.349 . S
C1169 C1171 1.327 . S
C1169 H1192 0.950 . S
C1170 C1169 1.349 . S
C1170 C1182 1.349 . S
C1171 C1169 1.327 . S
C1171 C1187 1.429 . S
C1171 H1193 0.950 . S
C1172 H1168 0.949 . S
C1172 C1180 1.574 . S
C1172 C1188 1.368 . S
H1173 C1181 0.950 . S
H1174 C1179 0.950 . S
H1175 C1180 0.949 . S
H1176 C1182 0.950 . S
H1177 C1183 0.950 . S
H1178 C1184 0.949 . S
C1179 H1174 0.950 . S
C1179 C1181 1.327 . S
C1179 C1185 1.429 . S
C1180 C1172 1.574 . S
C1180 H1175 0.949 . S
C1180 C1186 1.368 . S
C1181 C1165 1.349 . S
C1181 H1173 0.950 . S
C1181 C1179 1.327 . S
C1182 C1170 1.349 . S
C1182 H1176 0.950 . S
C1182 C1183 1.327 . S
C1183 H1177 0.950 . S
C1183 C1182 1.327 . S
C1183 C1187 1.429 . S
C1184 C1167 1.574 . S
C1184 H1178 0.949 . S
C1184 C1188 1.368 . S
C1185 C1166 1.429 . S
C1185 C1179 1.429 . S
C1185 C1186 1.523 . S
C1186 C1167 1.368 . S
C1186 C1180 1.368 . S
C1186 C1185 1.523 . S
C1187 C1171 1.429 . S
C1187 C1183 1.429 . S
C1187 C1188 1.523 . S
C1188 C1172 1.368 . S
C1188 C1184 1.368 . S
C1188 C1187 1.523 . S
H1189 C1164 0.950 . S
H1190 C1166 0.950 . S
H1191 C1167 0.949 . S
H1192 C1169 0.950 . S
H1193 C1171 0.950 . S
C1194 C1195 1.349 . S
C1194 C1196 1.327 . S
C1194 H1219 0.950 . S
C1195 C1194 1.349 . S
C1195 C1211 1.349 . S
C1196 C1194 1.327 . S
C1196 C1215 1.429 . S
C1196 H1220 0.950 . S
C1197 C1214 1.574 . S
C1197 C1216 1.368 . S
C1197 H1221 0.949 . S
H1198 C1202 0.949 . S
C1199 C1200 1.349 . S
C1199 C1201 1.327 . S
C1199 H1222 0.950 . S
C1200 C1199 1.349 . S
C1200 C1212 1.349 . S
C1201 C1199 1.327 . S
C1201 C1217 1.429 . S
C1201 H1223 0.950 . S
C1202 H1198 0.949 . S
C1202 C1210 1.574 . S
C1202 C1218 1.368 . S
H1203 C1211 0.950 . S
H1204 C1209 0.950 . S
H1205 C1210 0.949 . S
H1206 C1212 0.950 . S
H1207 C1213 0.950 . S
H1208 C1214 0.949 . S
C1209 H1204 0.950 . S
C1209 C1211 1.327 . S
C1209 C1215 1.429 . S
C1210 C1202 1.574 . S
C1210 H1205 0.949 . S
C1210 C1216 1.368 . S
C1211 C1195 1.349 . S
C1211 H1203 0.950 . S
C1211 C1209 1.327 . S
C1212 C1200 1.349 . S
C1212 H1206 0.950 . S
C1212 C1213 1.327 . S
C1213 H1207 0.950 . S
C1213 C1212 1.327 . S
C1213 C1217 1.429 . S
C1214 C1197 1.574 . S
C1214 H1208 0.949 . S
C1214 C1218 1.368 . S
C1215 C1196 1.429 . S
C1215 C1209 1.429 . S
C1215 C1216 1.523 . S
C1216 C1197 1.368 . S
C1216 C1210 1.368 . S
C1216 C1215 1.523 . S
C1217 C1201 1.429 . S
C1217 C1213 1.429 . S
C1217 C1218 1.523 . S
C1218 C1202 1.368 . S
C1218 C1214 1.368 . S
C1218 C1217 1.523 . S
H1219 C1194 0.950 . S
H1220 C1196 0.950 . S
H1221 C1197 0.949 . S
H1222 C1199 0.950 . S
H1223 C1201 0.950 . S
C1224 C1225 1.349 . S
C1224 C1226 1.327 . S
C1224 H1249 0.950 . S
C1225 C1224 1.349 . S
C1225 C1241 1.349 1_554 S
C1226 C1224 1.327 . S
C1226 C1245 1.429 . S
C1226 H1250 0.950 . S
C1227 C1244 1.574 . S
C1227 C1246 1.395 . S
C1227 H1251 0.949 . S
H1228 C1232 0.949 . S
C1229 C1230 1.349 . S
C1229 C1231 1.327 . S
C1229 H1252 0.950 . S
C1230 C1229 1.349 . S
C1230 C1242 1.349 . S
C1231 C1229 1.327 . S
C1231 C1247 1.429 . S
C1231 H1253 0.950 . S
C1232 H1228 0.949 . S
C1232 C1240 1.574 . S
C1232 C1248 1.368 1_554 S
H1233 C1241 0.950 . S
H1234 C1239 0.950 . S
H1235 C1240 0.949 . S
H1236 C1242 0.950 1_554 S
H1237 C1243 0.987 . S
H1238 C1244 0.949 . S
C1239 H1234 0.950 . S
C1239 C1241 1.327 . S
C1239 C1245 1.429 1_556 S
C1240 C1232 1.574 . S
C1240 H1235 0.949 . S
C1240 C1246 1.346 1_554 S
C1241 C1225 1.349 1_556 S
C1241 H1233 0.950 . S
C1241 C1239 1.327 . S
C1242 C1230 1.349 . S
C1242 H1236 0.950 1_556 S
C1242 C1243 1.318 1_556 S
C1243 H1237 0.987 . S
C1243 C1242 1.318 1_554 S
C1243 C1247 1.401 1_554 S
C1244 C1227 1.574 . S
C1244 H1238 0.949 . S
C1244 C1248 1.368 . S
C1245 C1226 1.429 . S
C1245 C1239 1.429 1_554 S
C1245 C1246 1.517 1_554 S
C1246 C1227 1.395 . S
C1246 C1240 1.346 1_556 S
C1246 C1245 1.517 1_556 S
C1247 C1231 1.429 . S
C1247 C1243 1.401 1_556 S
C1247 C1248 1.523 . S
C1248 C1232 1.368 1_556 S
C1248 C1244 1.368 . S
C1248 C1247 1.523 . S
H1249 C1224 0.950 . S
H1250 C1226 0.950 . S
H1251 C1227 0.949 . S
H1252 C1229 0.950 . S
H1253 C1231 0.950 . S
C1254 C1255 1.349 . S
C1254 C1256 1.327 . S
C1254 H1279 0.950 . S
C1255 C1254 1.349 . S
C1255 C1271 1.349 . S
C1256 C1254 1.327 . S
C1256 C1275 1.429 . S
C1256 H1280 0.950 . S
C1257 C1274 1.574 . S
C1257 C1276 1.368 1_554 S
C1257 H1281 0.949 . S
H1258 C1262 0.949 . S
C1259 C1260 1.349 . S
C1259 C1261 1.327 . S
C1259 H1282 0.950 . S
C1260 C1259 1.349 . S
C1260 C1272 1.349 1_554 S
C1261 C1259 1.327 . S
C1261 C1277 1.429 . S
C1261 H1283 0.950 . S
C1262 H1258 0.949 . S
C1262 C1270 1.574 . S
C1262 C1278 1.388 . S
H1263 C1271 0.950 . S
H1264 C1269 0.950 1_554 S
H1265 C1270 0.949 . S
H1266 C1272 0.950 . S
H1267 C1273 0.950 . S
H1268 C1274 0.949 . S
C1269 H1264 0.950 1_556 S
C1269 C1271 1.327 . S
C1269 C1275 1.429 . S
C1270 C1262 1.574 . S
C1270 H1265 0.949 . S
C1270 C1276 1.368 . S
C1271 C1255 1.349 . S
C1271 H1263 0.950 . S
C1271 C1269 1.327 . S
C1272 C1260 1.349 1_556 S
C1272 H1266 0.950 . S
C1272 C1273 1.327 . S
C1273 H1267 0.950 . S
C1273 C1272 1.327 . S
C1273 C1277 1.429 1_556 S
C1274 C1257 1.574 . S
C1274 H1268 0.949 . S
C1274 C1278 1.353 1_554 S
C1275 C1256 1.429 . S
C1275 C1269 1.429 . S
C1275 C1276 1.523 . S
C1276 C1257 1.368 1_556 S
C1276 C1270 1.368 . S
C1276 C1275 1.523 . S
C1277 C1261 1.429 . S
C1277 C1273 1.429 1_554 S
C1277 C1278 1.517 1_554 S
C1278 C1262 1.388 . S
C1278 C1274 1.353 1_556 S
C1278 C1277 1.517 1_556 S
H1279 C1254 0.950 . S
H1280 C1256 0.950 . S
H1281 C1257 0.949 . S
H1282 C1259 0.950 . S
H1283 C1261 0.950 . S
C1284 C1285 1.349 . S
C1284 C1286 1.327 . S
C1284 H1309 0.950 . S
C1285 C1284 1.349 . S
C1285 C1301 1.349 . S
C1286 C1284 1.327 . S
C1286 C1305 1.429 . S
C1286 H1310 0.950 . S
C1287 C1304 1.574 . S
C1287 C1306 1.385 . S
C1287 H1311 0.949 . S
H1288 C1292 0.949 . S
C1289 C1290 1.349 . S
C1289 C1291 1.327 . S
C1289 H1312 0.950 . S
C1290 C1289 1.349 . S
C1290 C1302 1.349 . S
C1291 C1289 1.327 . S
C1291 C1307 1.429 . S
C1291 H1313 0.950 . S
C1292 H1288 0.949 . S
C1292 C1300 1.574 . S
C1292 C1308 1.368 1_554 S
H1293 C1301 0.950 1_556 S
H1294 C1299 0.950 . S
H1295 C1300 0.949 . S
H1296 C1302 0.950 . S
H1297 C1303 0.950 1_554 S
H1298 C1304 0.949 . S
C1299 H1294 0.950 . S
C1299 C1301 1.327 1_556 S
C1299 C1305 1.429 1_556 S
C1300 C1292 1.574 . S
C1300 H1295 0.949 . S
C1300 C1306 1.356 1_554 S
C1301 C1285 1.349 . S
C1301 H1293 0.950 1_554 S
C1301 C1299 1.327 1_554 S
C1302 C1290 1.349 . S
C1302 H1296 0.950 . S
C1302 C1303 1.327 . S
C1303 H1297 0.950 1_556 S
C1303 C1302 1.327 . S
C1303 C1307 1.429 . S
C1304 C1287 1.574 . S
C1304 H1298 0.949 . S
C1304 C1308 1.368 . S
C1305 C1286 1.429 . S
C1305 C1299 1.429 1_554 S
C1305 C1306 1.517 1_554 S
C1306 C1287 1.385 . S
C1306 C1300 1.356 1_556 S
C1306 C1305 1.517 1_556 S
C1307 C1291 1.429 . S
C1307 C1303 1.429 . S
C1307 C1308 1.523 . S
C1308 C1292 1.368 1_556 S
C1308 C1304 1.368 . S
C1308 C1307 1.523 . S
H1309 C1284 0.950 . S
H1310 C1286 0.950 . S
H1311 C1287 0.949 . S
H1312 C1289 0.950 . S
H1313 C1291 0.950 . S
C1314 C1315 1.349 . S
C1314 C1316 1.327 . S
C1314 H1339 0.950 . S
C1315 C1314 1.349 . S
C1315 C1331 1.349 . S
C1316 C1314 1.327 . S
C1316 C1335 1.429 . S
C1316 H1340 0.950 . S
C1317 C1334 1.574 . S
C1317 C1336 1.368 . S
C1317 H1341 0.949 . S
H1318 C1322 0.949 . S
C1319 C1320 1.349 . S
C1319 C1321 1.327 . S
C1319 H1342 0.950 . S
C1320 C1319 1.349 . S
C1320 C1332 1.349 . S
C1321 C1319 1.327 . S
C1321 C1337 1.429 . S
C1321 H1343 0.950 . S
C1322 H1318 0.949 . S
C1322 C1330 1.574 . S
C1322 C1338 1.368 . S
H1323 C1331 0.950 . S
H1324 C1329 0.950 . S
H1325 C1330 0.949 . S
H1326 C1332 0.950 . S
H1327 C1333 0.950 . S
H1328 C1334 0.949 . S
C1329 H1324 0.950 . S
C1329 C1331 1.327 . S
C1329 C1335 1.429 . S
C1330 C1322 1.574 . S
C1330 H1325 0.949 . S
C1330 C1336 1.368 . S
C1331 C1315 1.349 . S
C1331 H1323 0.950 . S
C1331 C1329 1.327 . S
C1332 C1320 1.349 . S
C1332 H1326 0.950 . S
C1332 C1333 1.327 . S
C1333 H1327 0.950 . S
C1333 C1332 1.327 . S
C1333 C1337 1.429 . S
C1334 C1317 1.574 . S
C1334 H1328 0.949 . S
C1334 C1338 1.368 . S
C1335 C1316 1.429 . S
C1335 C1329 1.429 . S
C1335 C1336 1.523 . S
C1336 C1317 1.368 . S
C1336 C1330 1.368 . S
C1336 C1335 1.523 . S
C1337 C1321 1.429 . S
C1337 C1333 1.429 . S
C1337 C1338 1.523 . S
C1338 C1322 1.368 . S
C1338 C1334 1.368 . S
C1338 C1337 1.523 . S
H1339 C1314 0.950 . S
H1340 C1316 0.950 . S
H1341 C1317 0.949 . S
H1342 C1319 0.950 . S
H1343 C1321 0.950 . S
C1344 C1345 1.349 . S
C1344 C1346 1.327 . S
C1344 H1369 0.950 . S
C1345 C1344 1.349 . S
C1345 C1361 1.349 . S
C1346 C1344 1.327 . S
C1346 C1365 1.429 . S
C1346 H1370 0.950 . S
C1347 C1364 1.574 . S
C1347 C1366 1.368 . S
C1347 H1371 0.949 . S
H1348 C1352 0.949 . S
C1349 C1350 1.349 . S
C1349 C1351 1.327 . S
C1349 H1372 0.950 . S
C1350 C1349 1.349 . S
C1350 C1362 1.349 . S
C1351 C1349 1.327 . S
C1351 C1367 1.429 . S
C1351 H1373 0.950 . S
C1352 H1348 0.949 . S
C1352 C1360 1.574 . S
C1352 C1368 1.368 . S
H1353 C1361 0.950 . S
H1354 C1359 0.950 . S
H1355 C1360 0.949 . S
H1356 C1362 0.950 . S
H1357 C1363 0.950 . S
H1358 C1364 0.949 . S
C1359 H1354 0.950 . S
C1359 C1361 1.327 . S
C1359 C1365 1.429 . S
C1360 C1352 1.574 . S
C1360 H1355 0.949 . S
C1360 C1366 1.368 . S
C1361 C1345 1.349 . S
C1361 H1353 0.950 . S
C1361 C1359 1.327 . S
C1362 C1350 1.349 . S
C1362 H1356 0.950 . S
C1362 C1363 1.327 . S
C1363 H1357 0.950 . S
C1363 C1362 1.327 . S
C1363 C1367 1.429 . S
C1364 C1347 1.574 . S
C1364 H1358 0.949 . S
C1364 C1368 1.368 . S
C1365 C1346 1.429 . S
C1365 C1359 1.429 . S
C1365 C1366 1.523 . S
C1366 C1347 1.368 . S
C1366 C1360 1.368 . S
C1366 C1365 1.523 . S
C1367 C1351 1.429 . S
C1367 C1363 1.429 . S
C1367 C1368 1.523 . S
C1368 C1352 1.368 . S
C1368 C1364 1.368 . S
C1368 C1367 1.523 . S
H1369 C1344 0.950 . S
H1370 C1346 0.950 . S
H1371 C1347 0.949 . S
H1372 C1349 0.950 . S
H1373 C1351 0.950 . S
C1374 C1375 1.349 . S
C1374 C1376 1.327 . S
C1374 H1399 0.950 . S
C1375 C1374 1.349 . S
C1375 C1391 1.349 . S
C1376 C1374 1.327 . S
C1376 C1395 1.429 . S
C1376 H1400 0.950 . S
C1377 C1394 1.574 . S
C1377 C1396 1.368 . S
C1377 H1401 0.949 . S
H1378 C1382 0.949 . S
C1379 C1380 1.349 . S
C1379 C1381 1.327 . S
C1379 H1402 0.950 . S
C1380 C1379 1.349 . S
C1380 C1392 1.349 . S
C1381 C1379 1.327 . S
C1381 C1397 1.429 . S
C1381 H1403 0.950 . S
C1382 H1378 0.949 . S
C1382 C1390 1.574 . S
C1382 C1398 1.368 . S
H1383 C1391 0.950 . S
H1384 C1389 0.950 . S
H1385 C1390 0.949 . S
H1386 C1392 0.950 . S
H1387 C1393 0.950 . S
H1388 C1394 0.949 . S
C1389 H1384 0.950 . S
C1389 C1391 1.327 . S
C1389 C1395 1.429 . S
C1390 C1382 1.574 . S
C1390 H1385 0.949 . S
C1390 C1396 1.368 . S
C1391 C1375 1.349 . S
C1391 H1383 0.950 . S
C1391 C1389 1.327 . S
C1392 C1380 1.349 . S
C1392 H1386 0.950 . S
C1392 C1393 1.327 . S
C1393 H1387 0.950 . S
C1393 C1392 1.327 . S
C1393 C1397 1.429 . S
C1394 C1377 1.574 . S
C1394 H1388 0.949 . S
C1394 C1398 1.368 . S
C1395 C1376 1.429 . S
C1395 C1389 1.429 . S
C1395 C1396 1.523 . S
C1396 C1377 1.368 . S
C1396 C1390 1.368 . S
C1396 C1395 1.523 . S
C1397 C1381 1.429 . S
C1397 C1393 1.429 . S
C1397 C1398 1.523 . S
C1398 C1382 1.368 . S
C1398 C1394 1.368 . S
C1398 C1397 1.523 . S
H1399 C1374 0.950 . S
H1400 C1376 0.950 . S
H1401 C1377 0.949 . S
H1402 C1379 0.950 . S
H1403 C1381 0.950 . S
C1404 C1405 1.349 . S
C1404 C1406 1.327 . S
C1404 H1429 0.950 . S
C1405 C1404 1.349 . S
C1405 C1421 1.349 . S
C1406 C1404 1.327 . S
C1406 C1425 1.429 . S
C1406 H1430 0.950 . S
C1407 C1424 1.574 . S
C1407 C1426 1.368 . S
C1407 H1431 0.949 . S
H1408 C1412 0.949 . S
C1409 C1410 1.349 . S
C1409 C1411 1.327 . S
C1409 H1432 0.950 . S
C1410 C1409 1.349 . S
C1410 C1422 1.349 . S
C1411 C1409 1.327 . S
C1411 C1427 1.429 . S
C1411 H1433 0.950 . S
C1412 H1408 0.949 . S
C1412 C1420 1.574 . S
C1412 C1428 1.368 . S
H1413 C1421 0.950 . S
H1414 C1419 0.950 . S
H1415 C1420 0.949 . S
H1416 C1422 0.950 . S
H1417 C1423 0.950 . S
H1418 C1424 0.949 . S
C1419 H1414 0.950 . S
C1419 C1421 1.327 . S
C1419 C1425 1.429 . S
C1420 C1412 1.574 . S
C1420 H1415 0.949 . S
C1420 C1426 1.368 . S
C1421 C1405 1.349 . S
C1421 H1413 0.950 . S
C1421 C1419 1.327 . S
C1422 C1410 1.349 . S
C1422 H1416 0.950 . S
C1422 C1423 1.327 . S
C1423 H1417 0.950 . S
C1423 C1422 1.327 . S
C1423 C1427 1.429 . S
C1424 C1407 1.574 . S
C1424 H1418 0.949 . S
C1424 C1428 1.368 . S
C1425 C1406 1.429 . S
C1425 C1419 1.429 . S
C1425 C1426 1.523 . S
C1426 C1407 1.368 . S
C1426 C1420 1.368 . S
C1426 C1425 1.523 . S
C1427 C1411 1.429 . S
C1427 C1423 1.429 . S
C1427 C1428 1.523 . S
C1428 C1412 1.368 . S
C1428 C1424 1.368 . S
C1428 C1427 1.523 . S
H1429 C1404 0.950 . S
H1430 C1406 0.950 . S
H1431 C1407 0.949 . S
H1432 C1409 0.950 . S
H1433 C1411 0.950 . S
C1434 C1435 1.349 . S
C1434 C1436 1.327 . S
C1434 H1459 0.950 . S
C1435 C1434 1.349 . S
C1435 C1451 1.349 . S
C1436 C1434 1.327 . S
C1436 C1455 1.429 . S
C1436 H1460 0.950 . S
C1437 C1454 1.574 . S
C1437 C1456 1.368 . S
C1437 H1461 0.949 . S
H1438 C1442 0.949 . S
C1439 C1440 1.349 . S
C1439 C1441 1.327 . S
C1439 H1462 0.950 . S
C1440 C1439 1.349 . S
C1440 C1452 1.349 . S
C1441 C1439 1.327 . S
C1441 C1457 1.429 . S
C1441 H1463 0.950 . S
C1442 H1438 0.949 . S
C1442 C1450 1.574 . S
C1442 C1458 1.368 . S
H1443 C1451 0.950 . S
H1444 C1449 0.950 . S
H1445 C1450 0.949 . S
H1446 C1452 0.950 . S
H1447 C1453 0.950 . S
H1448 C1454 0.949 . S
C1449 H1444 0.950 . S
C1449 C1451 1.327 . S
C1449 C1455 1.429 . S
C1450 C1442 1.574 . S
C1450 H1445 0.949 . S
C1450 C1456 1.368 . S
C1451 C1435 1.349 . S
C1451 H1443 0.950 . S
C1451 C1449 1.327 . S
C1452 C1440 1.349 . S
C1452 H1446 0.950 . S
C1452 C1453 1.327 . S
C1453 H1447 0.950 . S
C1453 C1452 1.327 . S
C1453 C1457 1.429 . S
C1454 C1437 1.574 . S
C1454 H1448 0.949 . S
C1454 C1458 1.368 . S
C1455 C1436 1.429 . S
C1455 C1449 1.429 . S
C1455 C1456 1.523 . S
C1456 C1437 1.368 . S
C1456 C1450 1.368 . S
C1456 C1455 1.523 . S
C1457 C1441 1.429 . S
C1457 C1453 1.429 . S
C1457 C1458 1.523 . S
C1458 C1442 1.368 . S
C1458 C1454 1.368 . S
C1458 C1457 1.523 . S
H1459 C1434 0.950 . S
H1460 C1436 0.950 . S
H1461 C1437 0.949 . S
H1462 C1439 0.950 . S
H1463 C1441 0.950 . S
C1464 C1465 1.349 . S
C1464 C1466 1.327 . S
C1464 H1489 0.950 . S
C1465 C1464 1.349 . S
C1465 C1481 1.349 . S
C1466 C1464 1.327 . S
C1466 C1485 1.429 . S
C1466 H1490 0.950 . S
C1467 C1484 1.574 . S
C1467 C1486 1.368 . S
C1467 H1491 0.949 . S
H1468 C1472 0.949 . S
C1469 C1470 1.349 . S
C1469 C1471 1.327 . S
C1469 H1492 0.950 . S
C1470 C1469 1.349 . S
C1470 C1482 1.349 . S
C1471 C1469 1.327 . S
C1471 C1487 1.429 . S
C1471 H1493 0.950 . S
C1472 H1468 0.949 . S
C1472 C1480 1.574 . S
C1472 C1488 1.368 . S
H1473 C1481 0.950 . S
H1474 C1479 0.950 . S
H1475 C1480 0.949 . S
H1476 C1482 0.950 . S
H1477 C1483 0.950 . S
H1478 C1484 0.949 . S
C1479 H1474 0.950 . S
C1479 C1481 1.327 . S
C1479 C1485 1.429 . S
C1480 C1472 1.574 . S
C1480 H1475 0.949 . S
C1480 C1486 1.368 . S
C1481 C1465 1.349 . S
C1481 H1473 0.950 . S
C1481 C1479 1.327 . S
C1482 C1470 1.349 . S
C1482 H1476 0.950 . S
C1482 C1483 1.327 . S
C1483 H1477 0.950 . S
C1483 C1482 1.327 . S
C1483 C1487 1.429 . S
C1484 C1467 1.574 . S
C1484 H1478 0.949 . S
C1484 C1488 1.368 . S
C1485 C1466 1.429 . S
C1485 C1479 1.429 . S
C1485 C1486 1.523 . S
C1486 C1467 1.368 . S
C1486 C1480 1.368 . S
C1486 C1485 1.523 . S
C1487 C1471 1.429 . S
C1487 C1483 1.429 . S
C1487 C1488 1.523 . S
C1488 C1472 1.368 . S
C1488 C1484 1.368 . S
C1488 C1487 1.523 . S
H1489 C1464 0.950 . S
H1490 C1466 0.950 . S
H1491 C1467 0.949 . S
H1492 C1469 0.950 . S
H1493 C1471 0.950 . S
C1494 C1495 1.349 . S
C1494 C1496 1.327 . S
C1494 H1519 0.950 . S
C1495 C1494 1.349 . S
C1495 C1511 1.349 . S
C1496 C1494 1.327 . S
C1496 C1515 1.429 . S
C1496 H1520 0.950 . S
C1497 C1514 1.574 . S
C1497 C1516 1.368 . S
C1497 H1521 0.949 . S
H1498 C1502 0.949 . S
C1499 C1500 1.349 . S
C1499 C1501 1.327 . S
C1499 H1522 0.950 . S
C1500 C1499 1.349 . S
C1500 C1512 1.349 . S
C1501 C1499 1.327 . S
C1501 C1517 1.429 . S
C1501 H1523 0.950 . S
C1502 H1498 0.949 . S
C1502 C1510 1.574 . S
C1502 C1518 1.368 . S
H1503 C1511 0.950 . S
H1504 C1509 0.950 . S
H1505 C1510 0.949 . S
H1506 C1512 0.950 . S
H1507 C1513 0.950 . S
H1508 C1514 0.949 . S
C1509 H1504 0.950 . S
C1509 C1511 1.327 . S
C1509 C1515 1.429 . S
C1510 C1502 1.574 . S
C1510 H1505 0.949 . S
C1510 C1516 1.368 . S
C1511 C1495 1.349 . S
C1511 H1503 0.950 . S
C1511 C1509 1.327 . S
C1512 C1500 1.349 . S
C1512 H1506 0.950 . S
C1512 C1513 1.327 . S
C1513 H1507 0.950 . S
C1513 C1512 1.327 . S
C1513 C1517 1.429 . S
C1514 C1497 1.574 . S
C1514 H1508 0.949 . S
C1514 C1518 1.368 . S
C1515 C1496 1.429 . S
C1515 C1509 1.429 . S
C1515 C1516 1.523 . S
C1516 C1497 1.368 . S
C1516 C1510 1.368 . S
C1516 C1515 1.523 . S
C1517 C1501 1.429 . S
C1517 C1513 1.429 . S
C1517 C1518 1.523 . S
C1518 C1502 1.368 . S
C1518 C1514 1.368 . S
C1518 C1517 1.523 . S
H1519 C1494 0.950 . S
H1520 C1496 0.950 . S
H1521 C1497 0.949 . S
H1522 C1499 0.950 . S
H1523 C1501 0.950 . S
C1524 C1525 1.349 . S
C1524 C1526 1.327 . S
C1524 H1549 0.950 . S
C1525 C1524 1.349 . S
C1525 C1541 1.349 . S
C1526 C1524 1.327 . S
C1526 C1545 1.429 . S
C1526 H1550 0.950 . S
C1527 C1544 1.574 . S
C1527 C1546 1.368 . S
C1527 H1551 0.949 . S
H1528 C1532 0.949 . S
C1529 C1530 1.349 . S
C1529 C1531 1.327 . S
C1529 H1552 0.950 . S
C1530 C1529 1.349 . S
C1530 C1542 1.349 . S
C1531 C1529 1.327 . S
C1531 C1547 1.429 . S
C1531 H1553 0.950 . S
C1532 H1528 0.949 . S
C1532 C1540 1.574 . S
C1532 C1548 1.368 . S
H1533 C1541 0.950 . S
H1534 C1539 0.950 . S
H1535 C1540 0.949 . S
H1536 C1542 0.950 . S
H1537 C1543 0.950 . S
H1538 C1544 0.949 . S
C1539 H1534 0.950 . S
C1539 C1541 1.327 . S
C1539 C1545 1.429 . S
C1540 C1532 1.574 . S
C1540 H1535 0.949 . S
C1540 C1546 1.368 . S
C1541 C1525 1.349 . S
C1541 H1533 0.950 . S
C1541 C1539 1.327 . S
C1542 C1530 1.349 . S
C1542 H1536 0.950 . S
C1542 C1543 1.327 . S
C1543 H1537 0.950 . S
C1543 C1542 1.327 . S
C1543 C1547 1.429 . S
C1544 C1527 1.574 . S
C1544 H1538 0.949 . S
C1544 C1548 1.368 . S
C1545 C1526 1.429 . S
C1545 C1539 1.429 . S
C1545 C1546 1.523 . S
C1546 C1527 1.368 . S
C1546 C1540 1.368 . S
C1546 C1545 1.523 . S
C1547 C1531 1.429 . S
C1547 C1543 1.429 . S
C1547 C1548 1.523 . S
C1548 C1532 1.368 . S
C1548 C1544 1.368 . S
C1548 C1547 1.523 . S
H1549 C1524 0.950 . S
H1550 C1526 0.950 . S
H1551 C1527 0.949 . S
H1552 C1529 0.950 . S
H1553 C1531 0.950 . S
C1554 C1555 1.349 . S
C1554 C1556 1.327 . S
C1554 H1579 0.950 . S
C1555 C1554 1.349 . S
C1555 C1571 1.349 . S
C1556 C1554 1.327 . S
C1556 C1575 1.429 . S
C1556 H1580 0.950 . S
C1557 C1574 1.574 . S
C1557 C1576 1.368 . S
C1557 H1581 0.949 . S
H1558 C1562 0.949 . S
C1559 C1560 1.349 . S
C1559 C1561 1.327 . S
C1559 H1582 0.950 . S
C1560 C1559 1.349 . S
C1560 C1572 1.349 . S
C1561 C1559 1.327 . S
C1561 C1577 1.429 . S
C1561 H1583 0.950 . S
C1562 H1558 0.949 . S
C1562 C1570 1.574 . S
C1562 C1578 1.368 . S
H1563 C1571 0.950 . S
H1564 C1569 0.950 . S
H1565 C1570 0.949 . S
H1566 C1572 0.950 . S
H1567 C1573 0.950 . S
H1568 C1574 0.949 . S
C1569 H1564 0.950 . S
C1569 C1571 1.327 . S
C1569 C1575 1.429 . S
C1570 C1562 1.574 . S
C1570 H1565 0.949 . S
C1570 C1576 1.368 . S
C1571 C1555 1.349 . S
C1571 H1563 0.950 . S
C1571 C1569 1.327 . S
C1572 C1560 1.349 . S
C1572 H1566 0.950 . S
C1572 C1573 1.327 . S
C1573 H1567 0.950 . S
C1573 C1572 1.327 . S
C1573 C1577 1.429 . S
C1574 C1557 1.574 . S
C1574 H1568 0.949 . S
C1574 C1578 1.368 . S
C1575 C1556 1.429 . S
C1575 C1569 1.429 . S
C1575 C1576 1.523 . S
C1576 C1557 1.368 . S
C1576 C1570 1.368 . S
C1576 C1575 1.523 . S
C1577 C1561 1.429 . S
C1577 C1573 1.429 . S
C1577 C1578 1.523 . S
C1578 C1562 1.368 . S
C1578 C1574 1.368 . S
C1578 C1577 1.523 . S
H1579 C1554 0.950 . S
H1580 C1556 0.950 . S
H1581 C1557 0.949 . S
H1582 C1559 0.950 . S
H1583 C1561 0.950 . S
C1584 C1585 1.349 . S
C1584 C1586 1.327 . S
C1584 H1609 0.950 . S
C1585 C1584 1.349 . S
C1585 C1601 1.349 . S
C1586 C1584 1.327 . S
C1586 C1605 1.429 . S
C1586 H1610 0.950 . S
C1587 C1604 1.574 . S
C1587 C1606 1.368 . S
C1587 H1611 0.949 . S
H1588 C1592 0.949 . S
C1589 C1590 1.349 . S
C1589 C1591 1.327 . S
C1589 H1612 0.950 . S
C1590 C1589 1.349 . S
C1590 C1602 1.349 . S
C1591 C1589 1.327 . S
C1591 C1607 1.429 . S
C1591 H1613 0.950 . S
C1592 H1588 0.949 . S
C1592 C1600 1.574 . S
C1592 C1608 1.368 . S
H1593 C1601 0.950 . S
H1594 C1599 0.950 . S
H1595 C1600 0.949 . S
H1596 C1602 0.950 . S
H1597 C1603 0.950 . S
H1598 C1604 0.949 . S
C1599 H1594 0.950 . S
C1599 C1601 1.327 . S
C1599 C1605 1.429 . S
C1600 C1592 1.574 . S
C1600 H1595 0.949 . S
C1600 C1606 1.368 . S
C1601 C1585 1.349 . S
C1601 H1593 0.950 . S
C1601 C1599 1.327 . S
C1602 C1590 1.349 . S
C1602 H1596 0.950 . S
C1602 C1603 1.327 . S
C1603 H1597 0.950 . S
C1603 C1602 1.327 . S
C1603 C1607 1.429 . S
C1604 C1587 1.574 . S
C1604 H1598 0.949 . S
C1604 C1608 1.368 . S
C1605 C1586 1.429 . S
C1605 C1599 1.429 . S
C1605 C1606 1.523 . S
C1606 C1587 1.368 . S
C1606 C1600 1.368 . S
C1606 C1605 1.523 . S
C1607 C1591 1.429 . S
C1607 C1603 1.429 . S
C1607 C1608 1.523 . S
C1608 C1592 1.368 . S
C1608 C1604 1.368 . S
C1608 C1607 1.523 . S
H1609 C1584 0.950 . S
H1610 C1586 0.950 . S
H1611 C1587 0.949 . S
H1612 C1589 0.950 . S
H1613 C1591 0.950 . S
C1614 C1615 1.349 . S
C1614 C1616 1.327 . S
C1614 H1639 0.950 . S
C1615 C1614 1.349 . S
C1615 C1631 1.349 . S
C1616 C1614 1.327 . S
C1616 C1635 1.429 . S
C1616 H1640 0.950 . S
C1617 C1634 1.574 . S
C1617 C1636 1.368 . S
C1617 H1641 0.949 . S
H1618 C1622 0.949 . S
C1619 C1620 1.349 . S
C1619 C1621 1.327 . S
C1619 H1642 0.950 . S
C1620 C1619 1.349 . S
C1620 C1632 1.349 . S
C1621 C1619 1.327 . S
C1621 C1637 1.429 . S
C1621 H1643 0.950 . S
C1622 H1618 0.949 . S
C1622 C1630 1.574 . S
C1622 C1638 1.368 . S
H1623 C1631 0.950 . S
H1624 C1629 0.950 . S
H1625 C1630 0.949 . S
H1626 C1632 0.950 . S
H1627 C1633 0.950 . S
H1628 C1634 0.949 . S
C1629 H1624 0.950 . S
C1629 C1631 1.327 . S
C1629 C1635 1.429 . S
C1630 C1622 1.574 . S
C1630 H1625 0.949 . S
C1630 C1636 1.368 . S
C1631 C1615 1.349 . S
C1631 H1623 0.950 . S
C1631 C1629 1.327 . S
C1632 C1620 1.349 . S
C1632 H1626 0.950 . S
C1632 C1633 1.327 . S
C1633 H1627 0.950 . S
C1633 C1632 1.327 . S
C1633 C1637 1.429 . S
C1634 C1617 1.574 . S
C1634 H1628 0.949 . S
C1634 C1638 1.368 . S
C1635 C1616 1.429 . S
C1635 C1629 1.429 . S
C1635 C1636 1.523 . S
C1636 C1617 1.368 . S
C1636 C1630 1.368 . S
C1636 C1635 1.523 . S
C1637 C1621 1.429 . S
C1637 C1633 1.429 . S
C1637 C1638 1.523 . S
C1638 C1622 1.368 . S
C1638 C1634 1.368 . S
C1638 C1637 1.523 . S
H1639 C1614 0.950 . S
H1640 C1616 0.950 . S
H1641 C1617 0.949 . S
H1642 C1619 0.950 . S
H1643 C1621 0.950 . S
C1644 C1645 1.349 . S
C1644 C1646 1.327 . S
C1644 H1669 0.950 . S
C1645 C1644 1.349 . S
C1645 C1661 1.349 . S
C1646 C1644 1.327 . S
C1646 C1665 1.429 . S
C1646 H1670 0.950 . S
C1647 C1664 1.574 . S
C1647 C1666 1.368 . S
C1647 H1671 0.949 . S
H1648 C1652 0.949 . S
C1649 C1650 1.349 . S
C1649 C1651 1.327 . S
C1649 H1672 0.950 . S
C1650 C1649 1.349 . S
C1650 C1662 1.349 . S
C1651 C1649 1.327 . S
C1651 C1667 1.429 . S
C1651 H1673 0.950 . S
C1652 H1648 0.949 . S
C1652 C1660 1.574 . S
C1652 C1668 1.368 . S
H1653 C1661 0.950 . S
H1654 C1659 0.950 . S
H1655 C1660 0.949 . S
H1656 C1662 0.950 . S
H1657 C1663 0.950 . S
H1658 C1664 0.949 . S
C1659 H1654 0.950 . S
C1659 C1661 1.327 . S
C1659 C1665 1.429 . S
C1660 C1652 1.574 . S
C1660 H1655 0.949 . S
C1660 C1666 1.368 . S
C1661 C1645 1.349 . S
C1661 H1653 0.950 . S
C1661 C1659 1.327 . S
C1662 C1650 1.349 . S
C1662 H1656 0.950 . S
C1662 C1663 1.327 . S
C1663 H1657 0.950 . S
C1663 C1662 1.327 . S
C1663 C1667 1.429 . S
C1664 C1647 1.574 . S
C1664 H1658 0.949 . S
C1664 C1668 1.368 . S
C1665 C1646 1.429 . S
C1665 C1659 1.429 . S
C1665 C1666 1.523 . S
C1666 C1647 1.368 . S
C1666 C1660 1.368 . S
C1666 C1665 1.523 . S
C1667 C1651 1.429 . S
C1667 C1663 1.429 . S
C1667 C1668 1.523 . S
C1668 C1652 1.368 . S
C1668 C1664 1.368 . S
C1668 C1667 1.523 . S
H1669 C1644 0.950 . S
H1670 C1646 0.950 . S
H1671 C1647 0.949 . S
H1672 C1649 0.950 . S
H1673 C1651 0.950 . S
C1674 C1675 1.349 . S
C1674 C1676 1.327 . S
C1674 H1699 0.950 . S
C1675 C1674 1.349 . S
C1675 C1691 1.349 . S
C1676 C1674 1.327 . S
C1676 C1695 1.429 . S
C1676 H1700 0.950 . S
C1677 C1694 1.574 . S
C1677 C1696 1.368 . S
C1677 H1701 0.949 . S
H1678 C1682 0.949 . S
C1679 C1680 1.349 . S
C1679 C1681 1.327 . S
C1679 H1702 0.950 . S
C1680 C1679 1.349 . S
C1680 C1692 1.349 . S
C1681 C1679 1.327 . S
C1681 C1697 1.429 . S
C1681 H1703 0.950 . S
C1682 H1678 0.949 . S
C1682 C1690 1.574 . S
C1682 C1698 1.368 . S
H1683 C1691 0.950 . S
H1684 C1689 0.950 . S
H1685 C1690 0.949 . S
H1686 C1692 0.950 . S
H1687 C1693 0.950 . S
H1688 C1694 0.949 . S
C1689 H1684 0.950 . S
C1689 C1691 1.327 . S
C1689 C1695 1.429 . S
C1690 C1682 1.574 . S
C1690 H1685 0.949 . S
C1690 C1696 1.368 . S
C1691 C1675 1.349 . S
C1691 H1683 0.950 . S
C1691 C1689 1.327 . S
C1692 C1680 1.349 . S
C1692 H1686 0.950 . S
C1692 C1693 1.327 . S
C1693 H1687 0.950 . S
C1693 C1692 1.327 . S
C1693 C1697 1.429 . S
C1694 C1677 1.574 . S
C1694 H1688 0.949 . S
C1694 C1698 1.368 . S
C1695 C1676 1.429 . S
C1695 C1689 1.429 . S
C1695 C1696 1.523 . S
C1696 C1677 1.368 . S
C1696 C1690 1.368 . S
C1696 C1695 1.523 . S
C1697 C1681 1.429 . S
C1697 C1693 1.429 . S
C1697 C1698 1.523 . S
C1698 C1682 1.368 . S
C1698 C1694 1.368 . S
C1698 C1697 1.523 . S
H1699 C1674 0.950 . S
H1700 C1676 0.950 . S
H1701 C1677 0.949 . S
H1702 C1679 0.950 . S
H1703 C1681 0.950 . S
C1704 C1705 1.349 . S
C1704 C1706 1.327 . S
C1704 H1729 0.950 . S
C1705 C1704 1.349 . S
C1705 C1721 1.349 . S
C1706 C1704 1.327 . S
C1706 C1725 1.429 . S
C1706 H1730 0.950 . S
C1707 C1724 1.574 . S
C1707 C1726 1.368 . S
C1707 H1731 0.949 . S
H1708 C1712 0.949 . S
C1709 C1710 1.349 . S
C1709 C1711 1.327 . S
C1709 H1732 0.950 . S
C1710 C1709 1.349 . S
C1710 C1722 1.349 . S
C1711 C1709 1.327 . S
C1711 C1727 1.429 . S
C1711 H1733 0.950 . S
C1712 H1708 0.949 . S
C1712 C1720 1.574 . S
C1712 C1728 1.368 . S
H1713 C1721 0.950 . S
H1714 C1719 0.950 . S
H1715 C1720 0.949 . S
H1716 C1722 0.950 . S
H1717 C1723 0.950 . S
H1718 C1724 0.949 . S
C1719 H1714 0.950 . S
C1719 C1721 1.327 . S
C1719 C1725 1.429 . S
C1720 C1712 1.574 . S
C1720 H1715 0.949 . S
C1720 C1726 1.368 . S
C1721 C1705 1.349 . S
C1721 H1713 0.950 . S
C1721 C1719 1.327 . S
C1722 C1710 1.349 . S
C1722 H1716 0.950 . S
C1722 C1723 1.327 . S
C1723 H1717 0.950 . S
C1723 C1722 1.327 . S
C1723 C1727 1.429 . S
C1724 C1707 1.574 . S
C1724 H1718 0.949 . S
C1724 C1728 1.368 . S
C1725 C1706 1.429 . S
C1725 C1719 1.429 . S
C1725 C1726 1.523 . S
C1726 C1707 1.368 . S
C1726 C1720 1.368 . S
C1726 C1725 1.523 . S
C1727 C1711 1.429 . S
C1727 C1723 1.429 . S
C1727 C1728 1.523 . S
C1728 C1712 1.368 . S
C1728 C1724 1.368 . S
C1728 C1727 1.523 . S
H1729 C1704 0.950 . S
H1730 C1706 0.950 . S
H1731 C1707 0.949 . S
H1732 C1709 0.950 . S
H1733 C1711 0.950 . S
C1734 C1735 1.349 . S
C1734 C1736 1.327 . S
C1734 H1759 0.950 . S
C1735 C1734 1.349 . S
C1735 C1751 1.349 . S
C1736 C1734 1.327 . S
C1736 C1755 1.429 . S
C1736 H1760 0.950 . S
C1737 C1754 1.574 . S
C1737 C1756 1.368 . S
C1737 H1761 0.949 . S
H1738 C1742 0.949 . S
C1739 C1740 1.349 . S
C1739 C1741 1.327 . S
C1739 H1762 0.950 . S
C1740 C1739 1.349 . S
C1740 C1752 1.349 . S
C1741 C1739 1.327 . S
C1741 C1757 1.429 . S
C1741 H1763 0.950 . S
C1742 H1738 0.949 . S
C1742 C1750 1.574 . S
C1742 C1758 1.368 . S
H1743 C1751 0.950 . S
H1744 C1749 0.950 . S
H1745 C1750 0.949 . S
H1746 C1752 0.950 . S
H1747 C1753 0.950 . S
H1748 C1754 0.949 . S
C1749 H1744 0.950 . S
C1749 C1751 1.327 . S
C1749 C1755 1.429 . S
C1750 C1742 1.574 . S
C1750 H1745 0.949 . S
C1750 C1756 1.368 . S
C1751 C1735 1.349 . S
C1751 H1743 0.950 . S
C1751 C1749 1.327 . S
C1752 C1740 1.349 . S
C1752 H1746 0.950 . S
C1752 C1753 1.327 . S
C1753 H1747 0.950 . S
C1753 C1752 1.327 . S
C1753 C1757 1.429 . S
C1754 C1737 1.574 . S
C1754 H1748 0.949 . S
C1754 C1758 1.368 . S
C1755 C1736 1.429 . S
C1755 C1749 1.429 . S
C1755 C1756 1.523 . S
C1756 C1737 1.368 . S
C1756 C1750 1.368 . S
C1756 C1755 1.523 . S
C1757 C1741 1.429 . S
C1757 C1753 1.429 . S
C1757 C1758 1.523 . S
C1758 C1742 1.368 . S
C1758 C1754 1.368 . S
C1758 C1757 1.523 . S
H1759 C1734 0.950 . S
H1760 C1736 0.950 . S
H1761 C1737 0.949 . S
H1762 C1739 0.950 . S
H1763 C1741 0.950 . S
C1764 C1765 1.349 . S
C1764 C1766 1.327 . S
C1764 H1789 0.950 . S
C1765 C1764 1.349 . S
C1765 C1781 1.349 . S
C1766 C1764 1.327 . S
C1766 C1785 1.429 . S
C1766 H1790 0.950 . S
C1767 C1784 1.574 . S
C1767 C1786 1.368 . S
C1767 H1791 0.949 . S
H1768 C1772 0.949 . S
C1769 C1770 1.349 . S
C1769 C1771 1.327 . S
C1769 H1792 0.950 . S
C1770 C1769 1.349 . S
C1770 C1782 1.349 . S
C1771 C1769 1.327 . S
C1771 C1787 1.429 . S
C1771 H1793 0.950 . S
C1772 H1768 0.949 . S
C1772 C1780 1.574 . S
C1772 C1788 1.368 . S
H1773 C1781 0.950 . S
H1774 C1779 0.950 . S
H1775 C1780 0.949 . S
H1776 C1782 0.950 . S
H1777 C1783 0.950 . S
H1778 C1784 0.949 . S
C1779 H1774 0.950 . S
C1779 C1781 1.327 . S
C1779 C1785 1.429 . S
C1780 C1772 1.574 . S
C1780 H1775 0.949 . S
C1780 C1786 1.368 . S
C1781 C1765 1.349 . S
C1781 H1773 0.950 . S
C1781 C1779 1.327 . S
C1782 C1770 1.349 . S
C1782 H1776 0.950 . S
C1782 C1783 1.327 . S
C1783 H1777 0.950 . S
C1783 C1782 1.327 . S
C1783 C1787 1.429 . S
C1784 C1767 1.574 . S
C1784 H1778 0.949 . S
C1784 C1788 1.368 . S
C1785 C1766 1.429 . S
C1785 C1779 1.429 . S
C1785 C1786 1.523 . S
C1786 C1767 1.368 . S
C1786 C1780 1.368 . S
C1786 C1785 1.523 . S
C1787 C1771 1.429 . S
C1787 C1783 1.429 . S
C1787 C1788 1.523 . S
C1788 C1772 1.368 . S
C1788 C1784 1.368 . S
C1788 C1787 1.523 . S
H1789 C1764 0.950 . S
H1790 C1766 0.950 . S
H1791 C1767 0.949 . S
H1792 C1769 0.950 . S
H1793 C1771 0.950 . S
C1794 C1795 1.349 . S
C1794 C1796 1.327 . S
C1794 H1819 0.950 . S
C1795 C1794 1.349 . S
C1795 C1811 1.349 . S
C1796 C1794 1.327 . S
C1796 C1815 1.429 . S
C1796 H1820 0.950 . S
C1797 C1814 1.574 . S
C1797 C1816 1.368 . S
C1797 H1821 0.949 . S
H1798 C1802 0.949 . S
C1799 C1800 1.349 . S
C1799 C1801 1.327 . S
C1799 H1822 0.950 . S
C1800 C1799 1.349 . S
C1800 C1812 1.349 . S
C1801 C1799 1.327 . S
C1801 C1817 1.429 . S
C1801 H1823 0.950 . S
C1802 H1798 0.949 . S
C1802 C1810 1.574 . S
C1802 C1818 1.368 . S
H1803 C1811 0.950 . S
H1804 C1809 0.950 . S
H1805 C1810 0.949 . S
H1806 C1812 0.950 . S
H1807 C1813 0.950 . S
H1808 C1814 0.949 . S
C1809 H1804 0.950 . S
C1809 C1811 1.327 . S
C1809 C1815 1.429 . S
C1810 C1802 1.574 . S
C1810 H1805 0.949 . S
C1810 C1816 1.368 . S
C1811 C1795 1.349 . S
C1811 H1803 0.950 . S
C1811 C1809 1.327 . S
C1812 C1800 1.349 . S
C1812 H1806 0.950 . S
C1812 C1813 1.327 . S
C1813 H1807 0.950 . S
C1813 C1812 1.327 . S
C1813 C1817 1.429 . S
C1814 C1797 1.574 . S
C1814 H1808 0.949 . S
C1814 C1818 1.368 . S
C1815 C1796 1.429 . S
C1815 C1809 1.429 . S
C1815 C1816 1.523 . S
C1816 C1797 1.368 . S
C1816 C1810 1.368 . S
C1816 C1815 1.523 . S
C1817 C1801 1.429 . S
C1817 C1813 1.429 . S
C1817 C1818 1.523 . S
C1818 C1802 1.368 . S
C1818 C1814 1.368 . S
C1818 C1817 1.523 . S
H1819 C1794 0.950 . S
H1820 C1796 0.950 . S
H1821 C1797 0.949 . S
H1822 C1799 0.950 . S
H1823 C1801 0.950 . S
C1824 C1825 1.349 . S
C1824 C1826 1.327 . S
C1824 H1849 0.950 . S
C1825 C1824 1.349 . S
C1825 C1841 1.349 . S
C1826 C1824 1.327 . S
C1826 C1845 1.429 . S
C1826 H1850 0.950 . S
C1827 C1844 1.574 . S
C1827 C1846 1.368 . S
C1827 H1851 0.949 . S
H1828 C1832 0.949 . S
C1829 C1830 1.349 . S
C1829 C1831 1.327 . S
C1829 H1852 0.950 . S
C1830 C1829 1.349 . S
C1830 C1842 1.349 . S
C1831 C1829 1.327 . S
C1831 C1847 1.429 . S
C1831 H1853 0.950 . S
C1832 H1828 0.949 . S
C1832 C1840 1.574 . S
C1832 C1848 1.368 . S
H1833 C1841 0.950 . S
H1834 C1839 0.950 . S
H1835 C1840 0.949 . S
H1836 C1842 0.950 . S
H1837 C1843 0.950 . S
H1838 C1844 0.949 . S
C1839 H1834 0.950 . S
C1839 C1841 1.327 . S
C1839 C1845 1.429 . S
C1840 C1832 1.574 . S
C1840 H1835 0.949 . S
C1840 C1846 1.368 . S
C1841 C1825 1.349 . S
C1841 H1833 0.950 . S
C1841 C1839 1.327 . S
C1842 C1830 1.349 . S
C1842 H1836 0.950 . S
C1842 C1843 1.327 . S
C1843 H1837 0.950 . S
C1843 C1842 1.327 . S
C1843 C1847 1.429 . S
C1844 C1827 1.574 . S
C1844 H1838 0.949 . S
C1844 C1848 1.368 . S
C1845 C1826 1.429 . S
C1845 C1839 1.429 . S
C1845 C1846 1.523 . S
C1846 C1827 1.368 . S
C1846 C1840 1.368 . S
C1846 C1845 1.523 . S
C1847 C1831 1.429 . S
C1847 C1843 1.429 . S
C1847 C1848 1.523 . S
C1848 C1832 1.368 . S
C1848 C1844 1.368 . S
C1848 C1847 1.523 . S
H1849 C1824 0.950 . S
H1850 C1826 0.950 . S
H1851 C1827 0.949 . S
H1852 C1829 0.950 . S
H1853 C1831 0.950 . S
C1854 C1855 1.349 . S
C1854 C1856 1.327 . S
C1854 H1879 0.950 . S
C1855 C1854 1.349 . S
C1855 C1871 1.349 . S
C1856 C1854 1.327 . S
C1856 C1875 1.429 . S
C1856 H1880 0.950 . S
C1857 C1874 1.574 . S
C1857 C1876 1.368 . S
C1857 H1881 0.949 . S
H1858 C1862 0.949 . S
C1859 C1860 1.349 . S
C1859 C1861 1.327 . S
C1859 H1882 0.950 . S
C1860 C1859 1.349 . S
C1860 C1872 1.349 . S
C1861 C1859 1.327 . S
C1861 C1877 1.429 . S
C1861 H1883 0.950 . S
C1862 H1858 0.949 . S
C1862 C1870 1.574 . S
C1862 C1878 1.368 . S
H1863 C1871 0.950 . S
H1864 C1869 0.950 . S
H1865 C1870 0.949 . S
H1866 C1872 0.950 . S
H1867 C1873 0.950 . S
H1868 C1874 0.949 . S
C1869 H1864 0.950 . S
C1869 C1871 1.327 . S
C1869 C1875 1.429 . S
C1870 C1862 1.574 . S
C1870 H1865 0.949 . S
C1870 C1876 1.368 . S
C1871 C1855 1.349 . S
C1871 H1863 0.950 . S
C1871 C1869 1.327 . S
C1872 C1860 1.349 . S
C1872 H1866 0.950 . S
C1872 C1873 1.327 . S
C1873 H1867 0.950 . S
C1873 C1872 1.327 . S
C1873 C1877 1.429 . S
C1874 C1857 1.574 . S
C1874 H1868 0.949 . S
C1874 C1878 1.368 . S
C1875 C1856 1.429 . S
C1875 C1869 1.429 . S
C1875 C1876 1.523 . S
C1876 C1857 1.368 . S
C1876 C1870 1.368 . S
C1876 C1875 1.523 . S
C1877 C1861 1.429 . S
C1877 C1873 1.429 . S
C1877 C1878 1.523 . S
C1878 C1862 1.368 . S
C1878 C1874 1.368 . S
C1878 C1877 1.523 . S
H1879 C1854 0.950 . S
H1880 C1856 0.950 . S
H1881 C1857 0.949 . S
H1882 C1859 0.950 . S
H1883 C1861 0.950 . S
C1884 C1885 1.349 . S
C1884 C1886 1.327 . S
C1884 H1909 0.950 . S
C1885 C1884 1.349 . S
C1885 C1901 1.349 . S
C1886 C1884 1.327 . S
C1886 C1905 1.429 . S
C1886 H1910 0.950 . S
C1887 C1904 1.574 . S
C1887 C1906 1.368 . S
C1887 H1911 0.949 . S
H1888 C1892 0.949 . S
C1889 C1890 1.349 . S
C1889 C1891 1.327 . S
C1889 H1912 0.950 . S
C1890 C1889 1.349 . S
C1890 C1902 1.349 . S
C1891 C1889 1.327 . S
C1891 C1907 1.429 . S
C1891 H1913 0.950 . S
C1892 H1888 0.949 . S
C1892 C1900 1.574 . S
C1892 C1908 1.368 . S
H1893 C1901 0.950 . S
H1894 C1899 0.950 . S
H1895 C1900 0.949 . S
H1896 C1902 0.950 . S
H1897 C1903 0.950 . S
H1898 C1904 0.949 . S
C1899 H1894 0.950 . S
C1899 C1901 1.327 . S
C1899 C1905 1.429 . S
C1900 C1892 1.574 . S
C1900 H1895 0.949 . S
C1900 C1906 1.368 . S
C1901 C1885 1.349 . S
C1901 H1893 0.950 . S
C1901 C1899 1.327 . S
C1902 C1890 1.349 . S
C1902 H1896 0.950 . S
C1902 C1903 1.327 . S
C1903 H1897 0.950 . S
C1903 C1902 1.327 . S
C1903 C1907 1.429 . S
C1904 C1887 1.574 . S
C1904 H1898 0.949 . S
C1904 C1908 1.368 . S
C1905 C1886 1.429 . S
C1905 C1899 1.429 . S
C1905 C1906 1.523 . S
C1906 C1887 1.368 . S
C1906 C1900 1.368 . S
C1906 C1905 1.523 . S
C1907 C1891 1.429 . S
C1907 C1903 1.429 . S
C1907 C1908 1.523 . S
C1908 C1892 1.368 . S
C1908 C1904 1.368 . S
C1908 C1907 1.523 . S
H1909 C1884 0.950 . S
H1910 C1886 0.950 . S
H1911 C1887 0.949 . S
H1912 C1889 0.950 . S
H1913 C1891 0.950 . S
C1914 C1915 1.349 . S
C1914 C1916 1.327 . S
C1914 H1939 0.950 . S
C1915 C1914 1.349 . S
C1915 C1931 1.349 . S
C1916 C1914 1.327 . S
C1916 C1935 1.429 . S
C1916 H1940 0.950 . S
C1917 C1934 1.574 . S
C1917 C1936 1.368 . S
C1917 H1941 0.949 . S
H1918 C1922 0.949 . S
C1919 C1920 1.349 . S
C1919 C1921 1.327 . S
C1919 H1942 0.950 . S
C1920 C1919 1.349 . S
C1920 C1932 1.349 . S
C1921 C1919 1.327 . S
C1921 C1937 1.429 . S
C1921 H1943 0.950 . S
C1922 H1918 0.949 . S
C1922 C1930 1.574 . S
C1922 C1938 1.368 . S
H1923 C1931 0.950 . S
H1924 C1929 0.950 . S
H1925 C1930 0.949 . S
H1926 C1932 0.950 . S
H1927 C1933 0.950 . S
H1928 C1934 0.949 . S
C1929 H1924 0.950 . S
C1929 C1931 1.327 . S
C1929 C1935 1.429 . S
C1930 C1922 1.574 . S
C1930 H1925 0.949 . S
C1930 C1936 1.368 . S
C1931 C1915 1.349 . S
C1931 H1923 0.950 . S
C1931 C1929 1.327 . S
C1932 C1920 1.349 . S
C1932 H1926 0.950 . S
C1932 C1933 1.327 . S
C1933 H1927 0.950 . S
C1933 C1932 1.327 . S
C1933 C1937 1.429 . S
C1934 C1917 1.574 . S
C1934 H1928 0.949 . S
C1934 C1938 1.368 . S
C1935 C1916 1.429 . S
C1935 C1929 1.429 . S
C1935 C1936 1.523 . S
C1936 C1917 1.368 . S
C1936 C1930 1.368 . S
C1936 C1935 1.523 . S
C1937 C1921 1.429 . S
C1937 C1933 1.429 . S
C1937 C1938 1.523 . S
C1938 C1922 1.368 . S
C1938 C1934 1.368 . S
C1938 C1937 1.523 . S
H1939 C1914 0.950 . S
H1940 C1916 0.950 . S
H1941 C1917 0.949 . S
H1942 C1919 0.950 . S
H1943 C1921 0.950 . S
C1944 C1945 1.349 . S
C1944 C1946 1.327 . S
C1944 H1969 0.950 . S
C1945 C1944 1.349 . S
C1945 C1961 1.349 . S
C1946 C1944 1.327 . S
C1946 C1965 1.429 . S
C1946 H1970 0.950 . S
C1947 C1964 1.574 . S
C1947 C1966 1.368 . S
C1947 H1971 0.949 . S
H1948 C1952 0.949 . S
C1949 C1950 1.349 . S
C1949 C1951 1.327 . S
C1949 H1972 0.950 . S
C1950 C1949 1.349 . S
C1950 C1962 1.349 . S
C1951 C1949 1.327 . S
C1951 C1967 1.429 . S
C1951 H1973 0.950 . S
C1952 H1948 0.949 . S
C1952 C1960 1.574 . S
C1952 C1968 1.368 . S
H1953 C1961 0.950 . S
H1954 C1959 0.950 . S
H1955 C1960 0.949 . S
H1956 C1962 0.950 . S
H1957 C1963 0.950 . S
H1958 C1964 0.949 . S
C1959 H1954 0.950 . S
C1959 C1961 1.327 . S
C1959 C1965 1.429 . S
C1960 C1952 1.574 . S
C1960 H1955 0.949 . S
C1960 C1966 1.368 . S
C1961 C1945 1.349 . S
C1961 H1953 0.950 . S
C1961 C1959 1.327 . S
C1962 C1950 1.349 . S
C1962 H1956 0.950 . S
C1962 C1963 1.327 . S
C1963 H1957 0.950 . S
C1963 C1962 1.327 . S
C1963 C1967 1.429 . S
C1964 C1947 1.574 . S
C1964 H1958 0.949 . S
C1964 C1968 1.368 . S
C1965 C1946 1.429 . S
C1965 C1959 1.429 . S
C1965 C1966 1.523 . S
C1966 C1947 1.368 . S
C1966 C1960 1.368 . S
C1966 C1965 1.523 . S
C1967 C1951 1.429 . S
C1967 C1963 1.429 . S
C1967 C1968 1.523 . S
C1968 C1952 1.368 . S
C1968 C1964 1.368 . S
C1968 C1967 1.523 . S
H1969 C1944 0.950 . S
H1970 C1946 0.950 . S
H1971 C1947 0.949 . S
H1972 C1949 0.950 . S
H1973 C1951 0.950 . S
C1974 C1975 1.349 . S
C1974 C1976 1.327 . S
C1974 H1999 0.950 . S
C1975 C1974 1.349 . S
C1975 C1991 1.349 . S
C1976 C1974 1.327 . S
C1976 C1995 1.429 . S
C1976 H2000 0.950 . S
C1977 C1994 1.574 . S
C1977 C1996 1.368 . S
C1977 H2001 0.949 . S
H1978 C1982 0.949 . S
C1979 C1980 1.349 . S
C1979 C1981 1.327 . S
C1979 H2002 0.950 . S
C1980 C1979 1.349 . S
C1980 C1992 1.349 . S
C1981 C1979 1.327 . S
C1981 C1997 1.429 . S
C1981 H2003 0.950 . S
C1982 H1978 0.949 . S
C1982 C1990 1.574 . S
C1982 C1998 1.368 . S
H1983 C1991 0.950 . S
H1984 C1989 0.950 . S
H1985 C1990 0.949 . S
H1986 C1992 0.950 . S
H1987 C1993 0.950 . S
H1988 C1994 0.949 . S
C1989 H1984 0.950 . S
C1989 C1991 1.327 . S
C1989 C1995 1.429 . S
C1990 C1982 1.574 . S
C1990 H1985 0.949 . S
C1990 C1996 1.368 . S
C1991 C1975 1.349 . S
C1991 H1983 0.950 . S
C1991 C1989 1.327 . S
C1992 C1980 1.349 . S
C1992 H1986 0.950 . S
C1992 C1993 1.327 . S
C1993 H1987 0.950 . S
C1993 C1992 1.327 . S
C1993 C1997 1.429 . S
C1994 C1977 1.574 . S
C1994 H1988 0.949 . S
C1994 C1998 1.368 . S
C1995 C1976 1.429 . S
C1995 C1989 1.429 . S
C1995 C1996 1.523 . S
C1996 C1977 1.368 . S
C1996 C1990 1.368 . S
C1996 C1995 1.523 . S
C1997 C1981 1.429 . S
C1997 C1993 1.429 . S
C1997 C1998 1.523 . S
C1998 C1982 1.368 . S
C1998 C1994 1.368 . S
C1998 C1997 1.523 . S
H1999 C1974 0.950 . S
H2000 C1976 0.950 . S
H2001 C1977 0.949 . S
H2002 C1979 0.950 . S
H2003 C1981 0.950 . S
C2004 C2005 1.349 . S
C2004 C2006 1.327 . S
C2004 H2029 0.950 . S
C2005 C2004 1.349 . S
C2005 C2021 1.349 . S
C2006 C2004 1.327 . S
C2006 C2025 1.429 . S
C2006 H2030 0.950 . S
C2007 C2024 1.574 . S
C2007 C2026 1.368 . S
C2007 H2031 0.949 . S
H2008 C2012 0.949 . S
C2009 C2010 1.349 . S
C2009 C2011 1.327 . S
C2009 H2032 0.950 . S
C2010 C2009 1.349 . S
C2010 C2022 1.349 . S
C2011 C2009 1.327 . S
C2011 C2027 1.429 . S
C2011 H2033 0.950 . S
C2012 H2008 0.949 . S
C2012 C2020 1.574 . S
C2012 C2028 1.368 . S
H2013 C2021 0.950 . S
H2014 C2019 0.950 . S
H2015 C2020 0.949 . S
H2016 C2022 0.950 . S
H2017 C2023 0.950 . S
H2018 C2024 0.949 . S
C2019 H2014 0.950 . S
C2019 C2021 1.327 . S
C2019 C2025 1.429 . S
C2020 C2012 1.574 . S
C2020 H2015 0.949 . S
C2020 C2026 1.368 . S
C2021 C2005 1.349 . S
C2021 H2013 0.950 . S
C2021 C2019 1.327 . S
C2022 C2010 1.349 . S
C2022 H2016 0.950 . S
C2022 C2023 1.327 . S
C2023 H2017 0.950 . S
C2023 C2022 1.327 . S
C2023 C2027 1.429 . S
C2024 C2007 1.574 . S
C2024 H2018 0.949 . S
C2024 C2028 1.368 . S
C2025 C2006 1.429 . S
C2025 C2019 1.429 . S
C2025 C2026 1.523 . S
C2026 C2007 1.368 . S
C2026 C2020 1.368 . S
C2026 C2025 1.523 . S
C2027 C2011 1.429 . S
C2027 C2023 1.429 . S
C2027 C2028 1.523 . S
C2028 C2012 1.368 . S
C2028 C2024 1.368 . S
C2028 C2027 1.523 . S
H2029 C2004 0.950 . S
H2030 C2006 0.950 . S
H2031 C2007 0.949 . S
H2032 C2009 0.950 . S
H2033 C2011 0.950 . S
C2034 C2035 1.349 . S
C2034 C2036 1.327 . S
C2034 H2059 0.950 . S
C2035 C2034 1.349 . S
C2035 C2051 1.349 . S
C2036 C2034 1.327 . S
C2036 C2055 1.429 . S
C2036 H2060 0.950 . S
C2037 C2054 1.574 . S
C2037 C2056 1.368 . S
C2037 H2061 0.949 . S
H2038 C2042 0.949 . S
C2039 C2040 1.349 . S
C2039 C2041 1.327 . S
C2039 H2062 0.950 . S
C2040 C2039 1.349 . S
C2040 C2052 1.349 . S
C2041 C2039 1.327 . S
C2041 C2057 1.429 . S
C2041 H2063 0.950 . S
C2042 H2038 0.949 . S
C2042 C2050 1.574 . S
C2042 C2058 1.368 . S
H2043 C2051 0.950 . S
H2044 C2049 0.950 . S
H2045 C2050 0.949 . S
H2046 C2052 0.950 . S
H2047 C2053 0.950 . S
H2048 C2054 0.949 . S
C2049 H2044 0.950 . S
C2049 C2051 1.327 . S
C2049 C2055 1.429 . S
C2050 C2042 1.574 . S
C2050 H2045 0.949 . S
C2050 C2056 1.368 . S
C2051 C2035 1.349 . S
C2051 H2043 0.950 . S
C2051 C2049 1.327 . S
C2052 C2040 1.349 . S
C2052 H2046 0.950 . S
C2052 C2053 1.327 . S
C2053 H2047 0.950 . S
C2053 C2052 1.327 . S
C2053 C2057 1.429 . S
C2054 C2037 1.574 . S
C2054 H2048 0.949 . S
C2054 C2058 1.368 . S
C2055 C2036 1.429 . S
C2055 C2049 1.429 . S
C2055 C2056 1.523 . S
C2056 C2037 1.368 . S
C2056 C2050 1.368 . S
C2056 C2055 1.523 . S
C2057 C2041 1.429 . S
C2057 C2053 1.429 . S
C2057 C2058 1.523 . S
C2058 C2042 1.368 . S
C2058 C2054 1.368 . S
C2058 C2057 1.523 . S
H2059 C2034 0.950 . S
H2060 C2036 0.950 . S
H2061 C2037 0.949 . S
H2062 C2039 0.950 . S
H2063 C2041 0.950 . S
C2064 C2065 1.349 . S
C2064 C2066 1.327 . S
C2064 H2089 0.950 . S
C2065 C2064 1.349 . S
C2065 C2081 1.349 . S
C2066 C2064 1.327 . S
C2066 C2085 1.429 . S
C2066 H2090 0.950 . S
C2067 C2084 1.574 . S
C2067 C2086 1.368 . S
C2067 H2091 0.949 . S
H2068 C2072 0.949 . S
C2069 C2070 1.349 . S
C2069 C2071 1.327 . S
C2069 H2092 0.950 . S
C2070 C2069 1.349 . S
C2070 C2082 1.349 . S
C2071 C2069 1.327 . S
C2071 C2087 1.429 . S
C2071 H2093 0.950 . S
C2072 H2068 0.949 . S
C2072 C2080 1.574 . S
C2072 C2088 1.368 . S
H2073 C2081 0.950 . S
H2074 C2079 0.950 . S
H2075 C2080 0.949 . S
H2076 C2082 0.950 . S
H2077 C2083 0.950 . S
H2078 C2084 0.949 . S
C2079 H2074 0.950 . S
C2079 C2081 1.327 . S
C2079 C2085 1.429 . S
C2080 C2072 1.574 . S
C2080 H2075 0.949 . S
C2080 C2086 1.368 . S
C2081 C2065 1.349 . S
C2081 H2073 0.950 . S
C2081 C2079 1.327 . S
C2082 C2070 1.349 . S
C2082 H2076 0.950 . S
C2082 C2083 1.327 . S
C2083 H2077 0.950 . S
C2083 C2082 1.327 . S
C2083 C2087 1.429 . S
C2084 C2067 1.574 . S
C2084 H2078 0.949 . S
C2084 C2088 1.368 . S
C2085 C2066 1.429 . S
C2085 C2079 1.429 . S
C2085 C2086 1.523 . S
C2086 C2067 1.368 . S
C2086 C2080 1.368 . S
C2086 C2085 1.523 . S
C2087 C2071 1.429 . S
C2087 C2083 1.429 . S
C2087 C2088 1.523 . S
C2088 C2072 1.368 . S
C2088 C2084 1.368 . S
C2088 C2087 1.523 . S
H2089 C2064 0.950 . S
H2090 C2066 0.950 . S
H2091 C2067 0.949 . S
H2092 C2069 0.950 . S
H2093 C2071 0.950 . S
C2094 C2095 1.349 . S
C2094 C2096 1.327 . S
C2094 H2119 0.950 . S
C2095 C2094 1.349 . S
C2095 C2111 1.349 . S
C2096 C2094 1.327 . S
C2096 C2115 1.429 . S
C2096 H2120 0.950 . S
C2097 C2114 1.574 . S
C2097 C2116 1.368 . S
C2097 H2121 0.949 . S
H2098 C2102 0.949 . S
C2099 C2100 1.349 . S
C2099 C2101 1.327 . S
C2099 H2122 0.950 . S
C2100 C2099 1.349 . S
C2100 C2112 1.349 . S
C2101 C2099 1.327 . S
C2101 C2117 1.429 . S
C2101 H2123 0.950 . S
C2102 H2098 0.949 . S
C2102 C2110 1.574 . S
C2102 C2118 1.368 . S
H2103 C2111 0.950 . S
H2104 C2109 0.950 . S
H2105 C2110 0.949 . S
H2106 C2112 0.950 . S
H2107 C2113 0.950 . S
H2108 C2114 0.949 . S
C2109 H2104 0.950 . S
C2109 C2111 1.327 . S
C2109 C2115 1.429 . S
C2110 C2102 1.574 . S
C2110 H2105 0.949 . S
C2110 C2116 1.368 . S
C2111 C2095 1.349 . S
C2111 H2103 0.950 . S
C2111 C2109 1.327 . S
C2112 C2100 1.349 . S
C2112 H2106 0.950 . S
C2112 C2113 1.327 . S
C2113 H2107 0.950 . S
C2113 C2112 1.327 . S
C2113 C2117 1.429 . S
C2114 C2097 1.574 . S
C2114 H2108 0.949 . S
C2114 C2118 1.368 . S
C2115 C2096 1.429 . S
C2115 C2109 1.429 . S
C2115 C2116 1.523 . S
C2116 C2097 1.368 . S
C2116 C2110 1.368 . S
C2116 C2115 1.523 . S
C2117 C2101 1.429 . S
C2117 C2113 1.429 . S
C2117 C2118 1.523 . S
C2118 C2102 1.368 . S
C2118 C2114 1.368 . S
C2118 C2117 1.523 . S
H2119 C2094 0.950 . S
H2120 C2096 0.950 . S
H2121 C2097 0.949 . S
H2122 C2099 0.950 . S
H2123 C2101 0.950 . S
C2124 C2125 1.349 . S
C2124 C2126 1.327 . S
C2124 H2149 0.950 . S
C2125 C2124 1.349 . S
C2125 C2141 1.349 . S
C2126 C2124 1.327 . S
C2126 C2145 1.429 . S
C2126 H2150 0.950 . S
C2127 C2144 1.574 . S
C2127 C2146 1.368 . S
C2127 H2151 0.949 . S
H2128 C2132 0.949 . S
C2129 C2130 1.349 . S
C2129 C2131 1.327 . S
C2129 H2152 0.950 . S
C2130 C2129 1.349 . S
C2130 C2142 1.349 . S
C2131 C2129 1.327 . S
C2131 C2147 1.429 . S
C2131 H2153 0.950 . S
C2132 H2128 0.949 . S
C2132 C2140 1.574 . S
C2132 C2148 1.368 . S
H2133 C2141 0.950 . S
H2134 C2139 0.950 . S
H2135 C2140 0.949 . S
H2136 C2142 0.950 . S
H2137 C2143 0.950 . S
H2138 C2144 0.949 . S
C2139 H2134 0.950 . S
C2139 C2141 1.327 . S
C2139 C2145 1.429 . S
C2140 C2132 1.574 . S
C2140 H2135 0.949 . S
C2140 C2146 1.368 . S
C2141 C2125 1.349 . S
C2141 H2133 0.950 . S
C2141 C2139 1.327 . S
C2142 C2130 1.349 . S
C2142 H2136 0.950 . S
C2142 C2143 1.327 . S
C2143 H2137 0.950 . S
C2143 C2142 1.327 . S
C2143 C2147 1.429 . S
C2144 C2127 1.574 . S
C2144 H2138 0.949 . S
C2144 C2148 1.368 . S
C2145 C2126 1.429 . S
C2145 C2139 1.429 . S
C2145 C2146 1.523 . S
C2146 C2127 1.368 . S
C2146 C2140 1.368 . S
C2146 C2145 1.523 . S
C2147 C2131 1.429 . S
C2147 C2143 1.429 . S
C2147 C2148 1.523 . S
C2148 C2132 1.368 . S
C2148 C2144 1.368 . S
C2148 C2147 1.523 . S
H2149 C2124 0.950 . S
H2150 C2126 0.950 . S
H2151 C2127 0.949 . S
H2152 C2129 0.950 . S
H2153 C2131 0.950 . S
C2154 C2155 1.349 . S
C2154 C2156 1.327 . S
C2154 H2179 0.950 . S
C2155 C2154 1.349 . S
C2155 C2171 1.349 1_545 S
C2156 C2154 1.327 . S
C2156 C2175 1.429 . S
C2156 H2180 0.950 . S
C2157 C2174 1.574 . S
C2157 C2176 1.297 1_565 S
C2157 H2181 0.949 . S
H2158 C2162 0.949 . S
C2159 C2160 1.349 . S
C2159 C2161 1.327 . S
C2159 H2182 0.950 . S
C2160 C2159 1.349 . S
C2160 C2172 1.349 1_565 S
C2161 C2159 1.327 . S
C2161 C2177 1.429 . S
C2161 H2183 0.950 . S
C2162 H2158 0.949 . S
C2162 C2170 1.574 . S
C2162 C2178 1.296 1_545 S
H2163 C2171 0.950 . S
H2164 C2169 0.950 . S
H2165 C2170 0.949 . S
H2166 C2172 0.950 . S
H2167 C2173 0.950 . S
H2168 C2174 0.949 . S
C2169 H2164 0.950 . S
C2169 C2171 1.327 . S
C2169 C2175 1.429 1_565 S
C2170 C2162 1.574 . S
C2170 H2165 0.949 . S
C2170 C2176 1.437 . S
C2171 C2155 1.349 1_565 S
C2171 H2163 0.950 . S
C2171 C2169 1.327 . S
C2172 C2160 1.349 1_545 S
C2172 H2166 0.950 . S
C2172 C2173 1.327 . S
C2173 H2167 0.950 . S
C2173 C2172 1.327 . S
C2173 C2177 1.429 1_545 S
C2174 C2157 1.574 . S
C2174 H2168 0.949 . S
C2174 C2178 1.439 . S
C2175 C2156 1.429 . S
C2175 C2169 1.429 1_545 S
C2175 C2176 1.528 . S
C2176 C2157 1.297 1_545 S
C2176 C2170 1.437 . S
C2176 C2175 1.528 . S
C2177 C2161 1.429 . S
C2177 C2173 1.429 1_565 S
C2177 C2178 1.529 . S
C2178 C2162 1.296 1_565 S
C2178 C2174 1.439 . S
C2178 C2177 1.529 . S
H2179 C2154 0.950 . S
H2180 C2156 0.950 . S
H2181 C2157 0.949 . S
H2182 C2159 0.950 . S
H2183 C2161 0.950 . S
C2184 C2185 1.349 . S
C2184 C2186 1.327 . S
C2184 H2209 0.950 . S
C2185 C2184 1.349 . S
C2185 C2201 1.349 1_455 S
C2186 C2184 1.327 . S
C2186 C2205 1.429 . S
C2186 H2210 0.950 . S
C2187 C2204 1.574 . S
C2187 C2206 1.328 1_655 S
C2187 H2211 0.949 . S
H2188 C2192 0.949 . S
C2189 C2190 1.349 . S
C2189 C2191 1.327 . S
C2189 H2212 0.950 . S
C2190 C2189 1.349 . S
C2190 C2202 1.349 1_655 S
C2191 C2189 1.327 . S
C2191 C2207 1.429 . S
C2191 H2213 0.950 . S
C2192 H2188 0.949 . S
C2192 C2200 1.574 . S
C2192 C2208 1.327 1_455 S
H2193 C2201 0.950 . S
H2194 C2199 0.950 . S
H2195 C2200 0.949 . S
H2196 C2202 0.950 . S
H2197 C2203 0.950 . S
H2198 C2204 0.949 . S
C2199 H2194 0.950 . S
C2199 C2201 1.327 . S
C2199 C2205 1.429 1_655 S
C2200 C2192 1.574 . S
C2200 H2195 0.949 . S
C2200 C2206 1.409 . S
C2201 C2185 1.349 1_655 S
C2201 H2193 0.950 . S
C2201 C2199 1.327 . S
C2202 C2190 1.349 1_455 S
C2202 H2196 0.950 . S
C2202 C2203 1.327 . S
C2203 H2197 0.950 . S
C2203 C2202 1.327 . S
C2203 C2207 1.429 1_455 S
C2204 C2187 1.574 . S
C2204 H2198 0.949 . S
C2204 C2208 1.410 . S
C2205 C2186 1.429 . S
C2205 C2199 1.429 1_455 S
C2205 C2206 1.528 . S
C2206 C2187 1.328 1_455 S
C2206 C2200 1.409 . S
C2206 C2205 1.528 . S
C2207 C2191 1.429 . S
C2207 C2203 1.429 1_655 S
C2207 C2208 1.529 . S
C2208 C2192 1.327 1_655 S
C2208 C2204 1.410 . S
C2208 C2207 1.529 . S
H2209 C2184 0.950 . S
H2210 C2186 0.950 . S
H2211 C2187 0.949 . S
H2212 C2189 0.950 . S
H2213 C2191 0.950 . S
C2214 C2215 1.349 . S
C2214 C2216 1.327 . S
C2214 H2239 0.950 . S
C2215 C2214 1.349 . S
C2215 C2231 1.349 . S
C2216 C2214 1.327 . S
C2216 C2235 1.429 . S
C2216 H2240 0.950 . S
C2217 C2234 1.574 . S
C2217 C2236 1.368 . S
C2217 H2241 0.949 . S
H2218 C2222 0.949 . S
C2219 C2220 1.349 . S
C2219 C2221 1.327 . S
C2219 H2242 0.950 . S
C2220 C2219 1.349 . S
C2220 C2232 1.349 . S
C2221 C2219 1.327 . S
C2221 C2237 1.429 . S
C2221 H2243 0.950 . S
C2222 H2218 0.949 . S
C2222 C2230 1.574 . S
C2222 C2238 1.368 . S
H2223 C2231 0.950 . S
H2224 C2229 0.950 . S
H2225 C2230 0.949 . S
H2226 C2232 0.950 . S
H2227 C2233 0.950 . S
H2228 C2234 0.949 . S
C2229 H2224 0.950 . S
C2229 C2231 1.327 . S
C2229 C2235 1.429 . S
C2230 C2222 1.574 . S
C2230 H2225 0.949 . S
C2230 C2236 1.368 . S
C2231 C2215 1.349 . S
C2231 H2223 0.950 . S
C2231 C2229 1.327 . S
C2232 C2220 1.349 . S
C2232 H2226 0.950 . S
C2232 C2233 1.327 . S
C2233 H2227 0.950 . S
C2233 C2232 1.327 . S
C2233 C2237 1.429 . S
C2234 C2217 1.574 . S
C2234 H2228 0.949 . S
C2234 C2238 1.368 . S
C2235 C2216 1.429 . S
C2235 C2229 1.429 . S
C2235 C2236 1.523 . S
C2236 C2217 1.368 . S
C2236 C2230 1.368 . S
C2236 C2235 1.523 . S
C2237 C2221 1.429 . S
C2237 C2233 1.429 . S
C2237 C2238 1.523 . S
C2238 C2222 1.368 . S
C2238 C2234 1.368 . S
C2238 C2237 1.523 . S
H2239 C2214 0.950 . S
H2240 C2216 0.950 . S
H2241 C2217 0.949 . S
H2242 C2219 0.950 . S
H2243 C2221 0.950 . S
C2244 C2245 1.349 . S
C2244 C2246 1.327 . S
C2244 H2269 0.950 . S
C2245 C2244 1.349 . S
C2245 C2261 1.349 1_545 S
C2246 C2244 1.327 . S
C2246 C2265 1.429 . S
C2246 H2270 0.950 . S
C2247 C2264 1.574 . S
C2247 C2266 1.296 1_565 S
C2247 H2271 0.949 . S
H2248 C2252 0.949 . S
C2249 C2250 1.349 . S
C2249 C2251 1.327 . S
C2249 H2272 0.950 . S
C2250 C2249 1.349 . S
C2250 C2262 1.349 1_565 S
C2251 C2249 1.327 . S
C2251 C2267 1.429 . S
C2251 H2273 0.950 . S
C2252 H2248 0.949 . S
C2252 C2260 1.574 . S
C2252 C2268 1.297 1_545 S
H2253 C2261 0.950 . S
H2254 C2259 0.950 . S
H2255 C2260 0.949 . S
H2256 C2262 0.950 . S
H2257 C2263 0.950 . S
H2258 C2264 0.949 . S
C2259 H2254 0.950 . S
C2259 C2261 1.327 . S
C2259 C2265 1.429 1_565 S
C2260 C2252 1.574 . S
C2260 H2255 0.949 . S
C2260 C2266 1.438 . S
C2261 C2245 1.349 1_565 S
C2261 H2253 0.950 . S
C2261 C2259 1.327 . S
C2262 C2250 1.349 1_545 S
C2262 H2256 0.950 . S
C2262 C2263 1.327 . S
C2263 H2257 0.950 . S
C2263 C2262 1.327 . S
C2263 C2267 1.429 1_545 S
C2264 C2247 1.574 . S
C2264 H2258 0.949 . S
C2264 C2268 1.437 . S
C2265 C2246 1.429 . S
C2265 C2259 1.429 1_545 S
C2265 C2266 1.529 . S
C2266 C2247 1.296 1_545 S
C2266 C2260 1.438 . S
C2266 C2265 1.529 . S
C2267 C2251 1.429 . S
C2267 C2263 1.429 1_565 S
C2267 C2268 1.528 . S
C2268 C2252 1.297 1_565 S
C2268 C2264 1.437 . S
C2268 C2267 1.528 . S
H2269 C2244 0.950 . S
H2270 C2246 0.950 . S
H2271 C2247 0.949 . S
H2272 C2249 0.950 . S
H2273 C2251 0.950 . S
C2274 C2275 1.349 . S
C2274 C2276 1.327 . S
C2274 H2299 0.950 . S
C2275 C2274 1.349 . S
C2275 C2291 1.349 . S
C2276 C2274 1.327 . S
C2276 C2295 1.429 . S
C2276 H2300 0.950 . S
C2277 C2294 1.579 . S
C2277 C2296 1.293 1_455 S
C2277 H2301 0.984 . S
H2278 C2282 0.983 . S
C2279 C2280 1.349 . S
C2279 C2281 1.327 . S
C2279 H2302 0.950 . S
C2280 C2279 1.349 . S
C2280 C2292 1.349 . S
C2281 C2279 1.327 . S
C2281 C2297 1.429 . S
C2281 H2303 0.950 . S
C2282 H2278 0.983 . S
C2282 C2290 1.579 . S
C2282 C2298 1.293 1_655 S
H2283 C2291 0.950 . S
H2284 C2289 0.951 1_455 S
H2285 C2290 0.949 . S
H2286 C2292 0.950 . S
H2287 C2293 0.952 1_655 S
H2288 C2294 0.949 . S
C2289 H2284 0.951 1_655 S
C2289 C2291 1.327 . S
C2289 C2295 1.429 . S
C2290 C2282 1.579 . S
C2290 H2285 0.949 . S
C2290 C2296 1.409 . S
C2291 C2275 1.349 . S
C2291 H2283 0.950 . S
C2291 C2289 1.327 . S
C2292 C2280 1.349 . S
C2292 H2286 0.950 . S
C2292 C2293 1.327 . S
C2293 H2287 0.952 1_455 S
C2293 C2292 1.327 . S
C2293 C2297 1.429 . S
C2294 C2277 1.579 . S
C2294 H2288 0.949 . S
C2294 C2298 1.410 . S
C2295 C2276 1.429 . S
C2295 C2289 1.429 . S
C2295 C2296 1.528 . S
C2296 C2277 1.293 1_655 S
C2296 C2290 1.409 . S
C2296 C2295 1.528 . S
C2297 C2281 1.429 . S
C2297 C2293 1.429 . S
C2297 C2298 1.529 . S
C2298 C2282 1.293 1_455 S
C2298 C2294 1.410 . S
C2298 C2297 1.529 . S
H2299 C2274 0.950 . S
H2300 C2276 0.950 . S
H2301 C2277 0.984 . S
H2302 C2279 0.950 . S
H2303 C2281 0.950 . S
C2304 C2305 1.349 . S
C2304 C2306 1.327 . S
C2304 H2329 0.950 . S
C2305 C2304 1.349 . S
C2305 C2321 1.349 . S
C2306 C2304 1.327 . S
C2306 C2325 1.429 . S
C2306 H2330 0.950 . S
C2307 C2324 1.574 . S
C2307 C2326 1.368 . S
C2307 H2331 0.949 . S
H2308 C2312 0.949 . S
C2309 C2310 1.349 . S
C2309 C2311 1.327 . S
C2309 H2332 0.950 . S
C2310 C2309 1.349 . S
C2310 C2322 1.349 . S
C2311 C2309 1.327 . S
C2311 C2327 1.429 . S
C2311 H2333 0.950 . S
C2312 H2308 0.949 . S
C2312 C2320 1.574 . S
C2312 C2328 1.368 . S
H2313 C2321 0.950 . S
H2314 C2319 0.950 . S
H2315 C2320 0.949 . S
H2316 C2322 0.950 . S
H2317 C2323 0.950 . S
H2318 C2324 0.949 . S
C2319 H2314 0.950 . S
C2319 C2321 1.327 . S
C2319 C2325 1.429 . S
C2320 C2312 1.574 . S
C2320 H2315 0.949 . S
C2320 C2326 1.368 . S
C2321 C2305 1.349 . S
C2321 H2313 0.950 . S
C2321 C2319 1.327 . S
C2322 C2310 1.349 . S
C2322 H2316 0.950 . S
C2322 C2323 1.327 . S
C2323 H2317 0.950 . S
C2323 C2322 1.327 . S
C2323 C2327 1.429 . S
C2324 C2307 1.574 . S
C2324 H2318 0.949 . S
C2324 C2328 1.368 . S
C2325 C2306 1.429 . S
C2325 C2319 1.429 . S
C2325 C2326 1.523 . S
C2326 C2307 1.368 . S
C2326 C2320 1.368 . S
C2326 C2325 1.523 . S
C2327 C2311 1.429 . S
C2327 C2323 1.429 . S
C2327 C2328 1.523 . S
C2328 C2312 1.368 . S
C2328 C2324 1.368 . S
C2328 C2327 1.523 . S
H2329 C2304 0.950 . S
H2330 C2306 0.950 . S
H2331 C2307 0.949 . S
H2332 C2309 0.950 . S
H2333 C2311 0.950 . S
C2334 C2335 1.349 . S
C2334 C2336 1.327 . S
C2334 H2359 0.950 . S
C2335 C2334 1.349 . S
C2335 C2351 1.349 . S
C2336 C2334 1.327 . S
C2336 C2355 1.429 . S
C2336 H2360 0.950 . S
C2337 C2354 1.574 . S
C2337 C2356 1.368 . S
C2337 H2361 0.949 . S
H2338 C2342 0.949 . S
C2339 C2340 1.349 . S
C2339 C2341 1.327 . S
C2339 H2362 0.950 . S
C2340 C2339 1.349 . S
C2340 C2352 1.349 . S
C2341 C2339 1.327 . S
C2341 C2357 1.429 . S
C2341 H2363 0.950 . S
C2342 H2338 0.949 . S
C2342 C2350 1.574 . S
C2342 C2358 1.368 . S
H2343 C2351 0.950 . S
H2344 C2349 0.950 . S
H2345 C2350 0.949 . S
H2346 C2352 0.950 . S
H2347 C2353 0.950 . S
H2348 C2354 0.949 . S
C2349 H2344 0.950 . S
C2349 C2351 1.327 . S
C2349 C2355 1.429 . S
C2350 C2342 1.574 . S
C2350 H2345 0.949 . S
C2350 C2356 1.368 . S
C2351 C2335 1.349 . S
C2351 H2343 0.950 . S
C2351 C2349 1.327 . S
C2352 C2340 1.349 . S
C2352 H2346 0.950 . S
C2352 C2353 1.327 . S
C2353 H2347 0.950 . S
C2353 C2352 1.327 . S
C2353 C2357 1.429 . S
C2354 C2337 1.574 . S
C2354 H2348 0.949 . S
C2354 C2358 1.368 . S
C2355 C2336 1.429 . S
C2355 C2349 1.429 . S
C2355 C2356 1.523 . S
C2356 C2337 1.368 . S
C2356 C2350 1.368 . S
C2356 C2355 1.523 . S
C2357 C2341 1.429 . S
C2357 C2353 1.429 . S
C2357 C2358 1.523 . S
C2358 C2342 1.368 . S
C2358 C2354 1.368 . S
C2358 C2357 1.523 . S
H2359 C2334 0.950 . S
H2360 C2336 0.950 . S
H2361 C2337 0.949 . S
H2362 C2339 0.950 . S
H2363 C2341 0.950 . S
C2364 C2365 1.349 . S
C2364 C2366 1.327 . S
C2364 H2389 0.950 . S
C2365 C2364 1.349 . S
C2365 C2381 1.349 . S
C2366 C2364 1.327 . S
C2366 C2385 1.429 . S
C2366 H2390 0.950 . S
C2367 C2384 1.574 . S
C2367 C2386 1.368 . S
C2367 H2391 0.949 . S
H2368 C2372 0.949 . S
C2369 C2370 1.349 . S
C2369 C2371 1.327 . S
C2369 H2392 0.950 . S
C2370 C2369 1.349 . S
C2370 C2382 1.349 . S
C2371 C2369 1.327 . S
C2371 C2387 1.429 . S
C2371 H2393 0.950 . S
C2372 H2368 0.949 . S
C2372 C2380 1.574 . S
C2372 C2388 1.368 . S
H2373 C2381 0.950 . S
H2374 C2379 0.950 . S
H2375 C2380 0.949 . S
H2376 C2382 0.950 . S
H2377 C2383 0.950 . S
H2378 C2384 0.949 . S
C2379 H2374 0.950 . S
C2379 C2381 1.327 . S
C2379 C2385 1.429 . S
C2380 C2372 1.574 . S
C2380 H2375 0.949 . S
C2380 C2386 1.368 . S
C2381 C2365 1.349 . S
C2381 H2373 0.950 . S
C2381 C2379 1.327 . S
C2382 C2370 1.349 . S
C2382 H2376 0.950 . S
C2382 C2383 1.327 . S
C2383 H2377 0.950 . S
C2383 C2382 1.327 . S
C2383 C2387 1.429 . S
C2384 C2367 1.574 . S
C2384 H2378 0.949 . S
C2384 C2388 1.368 . S
C2385 C2366 1.429 . S
C2385 C2379 1.429 . S
C2385 C2386 1.523 . S
C2386 C2367 1.368 . S
C2386 C2380 1.368 . S
C2386 C2385 1.523 . S
C2387 C2371 1.429 . S
C2387 C2383 1.429 . S
C2387 C2388 1.523 . S
C2388 C2372 1.368 . S
C2388 C2384 1.368 . S
C2388 C2387 1.523 . S
H2389 C2364 0.950 . S
H2390 C2366 0.950 . S
H2391 C2367 0.949 . S
H2392 C2369 0.950 . S
H2393 C2371 0.950 . S
C2394 C2395 1.349 . S
C2394 C2396 1.327 . S
C2394 H2419 0.950 . S
C2395 C2394 1.349 . S
C2395 C2411 1.349 . S
C2396 C2394 1.327 . S
C2396 C2415 1.429 . S
C2396 H2420 0.950 . S
C2397 C2414 1.574 . S
C2397 C2416 1.368 . S
C2397 H2421 0.949 . S
H2398 C2402 0.949 . S
C2399 C2400 1.349 . S
C2399 C2401 1.327 1_556 S
C2399 H2422 0.950 . S
C2400 C2399 1.349 . S
C2400 C2412 1.349 . S
C2401 C2399 1.327 1_554 S
C2401 C2417 1.429 . S
C2401 H2423 0.950 . S
C2402 H2398 0.949 . S
C2402 C2410 1.574 . S
C2402 C2418 1.368 . S
H2403 C2411 0.950 . S
H2404 C2409 0.950 . S
H2405 C2410 0.949 . S
H2406 C2412 0.950 . S
H2407 C2413 0.950 . S
H2408 C2414 0.949 . S
C2409 H2404 0.950 . S
C2409 C2411 1.327 . S
C2409 C2415 1.429 . S
C2410 C2402 1.574 . S
C2410 H2405 0.949 . S
C2410 C2416 1.368 . S
C2411 C2395 1.349 . S
C2411 H2403 0.950 . S
C2411 C2409 1.327 . S
C2412 C2400 1.349 . S
C2412 H2406 0.950 . S
C2412 C2413 1.327 1_556 S
C2413 H2407 0.950 . S
C2413 C2412 1.327 1_554 S
C2413 C2417 1.429 . S
C2414 C2397 1.574 . S
C2414 H2408 0.949 . S
C2414 C2418 1.368 . S
C2415 C2396 1.429 . S
C2415 C2409 1.429 . S
C2415 C2416 1.523 . S
C2416 C2397 1.368 . S
C2416 C2410 1.368 . S
C2416 C2415 1.523 . S
C2417 C2401 1.429 . S
C2417 C2413 1.429 . S
C2417 C2418 1.523 . S
C2418 C2402 1.368 . S
C2418 C2414 1.368 . S
C2418 C2417 1.523 . S
H2419 C2394 0.950 . S
H2420 C2396 0.950 . S
H2421 C2397 0.949 . S
H2422 C2399 0.950 . S
H2423 C2401 0.950 . S
C2424 C2425 1.349 . S
C2424 C2426 1.327 . S
C2424 H2449 0.950 . S
C2425 C2424 1.349 . S
C2425 C2441 1.349 . S
C2426 C2424 1.327 . S
C2426 C2445 1.429 . S
C2426 H2450 0.950 . S
C2427 C2444 1.574 . S
C2427 C2446 1.368 . S
C2427 H2451 0.949 . S
H2428 C2432 0.949 . S
C2429 C2430 1.349 . S
C2429 C2431 1.327 1_556 S
C2429 H2452 0.950 . S
C2430 C2429 1.349 . S
C2430 C2442 1.349 . S
C2431 C2429 1.327 1_554 S
C2431 C2447 1.429 . S
C2431 H2453 0.950 . S
C2432 H2428 0.949 . S
C2432 C2440 1.574 . S
C2432 C2448 1.368 . S
H2433 C2441 0.950 . S
H2434 C2439 0.950 . S
H2435 C2440 0.949 . S
H2436 C2442 0.950 . S
H2437 C2443 0.950 . S
H2438 C2444 0.949 . S
C2439 H2434 0.950 . S
C2439 C2441 1.327 . S
C2439 C2445 1.429 . S
C2440 C2432 1.574 . S
C2440 H2435 0.949 . S
C2440 C2446 1.368 . S
C2441 C2425 1.349 . S
C2441 H2433 0.950 . S
C2441 C2439 1.327 . S
C2442 C2430 1.349 . S
C2442 H2436 0.950 . S
C2442 C2443 1.327 1_556 S
C2443 H2437 0.950 . S
C2443 C2442 1.327 1_554 S
C2443 C2447 1.429 . S
C2444 C2427 1.574 . S
C2444 H2438 0.949 . S
C2444 C2448 1.368 . S
C2445 C2426 1.429 . S
C2445 C2439 1.429 . S
C2445 C2446 1.523 . S
C2446 C2427 1.368 . S
C2446 C2440 1.368 . S
C2446 C2445 1.523 . S
C2447 C2431 1.429 . S
C2447 C2443 1.429 . S
C2447 C2448 1.523 . S
C2448 C2432 1.368 . S
C2448 C2444 1.368 . S
C2448 C2447 1.523 . S
H2449 C2424 0.950 . S
H2450 C2426 0.950 . S
H2451 C2427 0.949 . S
H2452 C2429 0.950 . S
H2453 C2431 0.950 . S
C2454 C2455 1.349 . S
C2454 C2456 1.327 . S
C2454 H2479 0.950 . S
C2455 C2454 1.349 . S
C2455 C2471 1.349 . S
C2456 C2454 1.327 . S
C2456 C2475 1.429 . S
C2456 H2480 0.950 . S
C2457 C2474 1.574 . S
C2457 C2476 1.368 . S
C2457 H2481 0.949 . S
H2458 C2462 0.949 . S
C2459 C2460 1.349 . S
C2459 C2461 1.327 1_556 S
C2459 H2482 0.950 . S
C2460 C2459 1.349 . S
C2460 C2472 1.349 . S
C2461 C2459 1.327 1_554 S
C2461 C2477 1.429 . S
C2461 H2483 0.950 . S
C2462 H2458 0.949 . S
C2462 C2470 1.574 . S
C2462 C2478 1.368 . S
H2463 C2471 0.950 . S
H2464 C2469 0.950 . S
H2465 C2470 0.949 . S
H2466 C2472 0.950 . S
H2467 C2473 0.950 . S
H2468 C2474 0.949 . S
C2469 H2464 0.950 . S
C2469 C2471 1.327 . S
C2469 C2475 1.429 . S
C2470 C2462 1.574 . S
C2470 H2465 0.949 . S
C2470 C2476 1.368 . S
C2471 C2455 1.349 . S
C2471 H2463 0.950 . S
C2471 C2469 1.327 . S
C2472 C2460 1.349 . S
C2472 H2466 0.950 . S
C2472 C2473 1.327 1_556 S
C2473 H2467 0.950 . S
C2473 C2472 1.327 1_554 S
C2473 C2477 1.429 . S
C2474 C2457 1.574 . S
C2474 H2468 0.949 . S
C2474 C2478 1.368 . S
C2475 C2456 1.429 . S
C2475 C2469 1.429 . S
C2475 C2476 1.523 . S
C2476 C2457 1.368 . S
C2476 C2470 1.368 . S
C2476 C2475 1.523 . S
C2477 C2461 1.429 . S
C2477 C2473 1.429 . S
C2477 C2478 1.523 . S
C2478 C2462 1.368 . S
C2478 C2474 1.368 . S
C2478 C2477 1.523 . S
H2479 C2454 0.950 . S
H2480 C2456 0.950 . S
H2481 C2457 0.949 . S
H2482 C2459 0.950 . S
H2483 C2461 0.950 . S
C2484 C2485 1.349 . S
C2484 C2486 1.327 1_554 S
C2484 H2509 0.950 . S
C2485 C2484 1.349 . S
C2485 C2501 1.349 . S
C2486 C2484 1.327 1_556 S
C2486 C2505 1.429 . S
C2486 H2510 0.950 . S
C2487 C2504 1.574 . S
C2487 C2506 1.368 . S
C2487 H2511 0.949 . S
H2488 C2492 0.949 . S
C2489 C2490 1.349 . S
C2489 C2491 1.327 . S
C2489 H2512 0.950 . S
C2490 C2489 1.349 . S
C2490 C2502 1.349 . S
C2491 C2489 1.327 . S
C2491 C2507 1.429 . S
C2491 H2513 0.950 . S
C2492 H2488 0.949 . S
C2492 C2500 1.574 . S
C2492 C2508 1.368 . S
H2493 C2501 0.950 . S
H2494 C2499 0.950 . S
H2495 C2500 0.949 . S
H2496 C2502 0.950 . S
H2497 C2503 0.950 . S
H2498 C2504 0.949 . S
C2499 H2494 0.950 . S
C2499 C2501 1.327 1_556 S
C2499 C2505 1.429 . S
C2500 C2492 1.574 . S
C2500 H2495 0.949 . S
C2500 C2506 1.368 . S
C2501 C2485 1.349 . S
C2501 H2493 0.950 . S
C2501 C2499 1.327 1_554 S
C2502 C2490 1.349 . S
C2502 H2496 0.950 . S
C2502 C2503 1.327 . S
C2503 H2497 0.950 . S
C2503 C2502 1.327 . S
C2503 C2507 1.429 . S
C2504 C2487 1.574 . S
C2504 H2498 0.949 . S
C2504 C2508 1.368 . S
C2505 C2486 1.429 . S
C2505 C2499 1.429 . S
C2505 C2506 1.523 . S
C2506 C2487 1.368 . S
C2506 C2500 1.368 . S
C2506 C2505 1.523 . S
C2507 C2491 1.429 . S
C2507 C2503 1.429 . S
C2507 C2508 1.523 . S
C2508 C2492 1.368 . S
C2508 C2504 1.368 . S
C2508 C2507 1.523 . S
H2509 C2484 0.950 . S
H2510 C2486 0.950 . S
H2511 C2487 0.949 . S
H2512 C2489 0.950 . S
H2513 C2491 0.950 . S
C2514 C2515 1.349 . S
C2514 C2516 1.327 1_554 S
C2514 H2539 0.950 . S
C2515 C2514 1.349 . S
C2515 C2531 1.349 . S
C2516 C2514 1.327 1_556 S
C2516 C2535 1.429 . S
C2516 H2540 0.950 . S
C2517 C2534 1.574 . S
C2517 C2536 1.368 . S
C2517 H2541 0.949 . S
H2518 C2522 0.949 . S
C2519 C2520 1.349 . S
C2519 C2521 1.327 . S
C2519 H2542 0.950 . S
C2520 C2519 1.349 . S
C2520 C2532 1.349 . S
C2521 C2519 1.327 . S
C2521 C2537 1.429 . S
C2521 H2543 0.950 . S
C2522 H2518 0.949 . S
C2522 C2530 1.574 . S
C2522 C2538 1.368 . S
H2523 C2531 0.950 . S
H2524 C2529 0.950 . S
H2525 C2530 0.949 . S
H2526 C2532 0.950 . S
H2527 C2533 0.950 . S
H2528 C2534 0.949 . S
C2529 H2524 0.950 . S
C2529 C2531 1.327 1_556 S
C2529 C2535 1.429 . S
C2530 C2522 1.574 . S
C2530 H2525 0.949 . S
C2530 C2536 1.368 . S
C2531 C2515 1.349 . S
C2531 H2523 0.950 . S
C2531 C2529 1.327 1_554 S
C2532 C2520 1.349 . S
C2532 H2526 0.950 . S
C2532 C2533 1.327 . S
C2533 H2527 0.950 . S
C2533 C2532 1.327 . S
C2533 C2537 1.429 . S
C2534 C2517 1.574 . S
C2534 H2528 0.949 . S
C2534 C2538 1.368 . S
C2535 C2516 1.429 . S
C2535 C2529 1.429 . S
C2535 C2536 1.523 . S
C2536 C2517 1.368 . S
C2536 C2530 1.368 . S
C2536 C2535 1.523 . S
C2537 C2521 1.429 . S
C2537 C2533 1.429 . S
C2537 C2538 1.523 . S
C2538 C2522 1.368 . S
C2538 C2534 1.368 . S
C2538 C2537 1.523 . S
H2539 C2514 0.950 . S
H2540 C2516 0.950 . S
H2541 C2517 0.949 . S
H2542 C2519 0.950 . S
H2543 C2521 0.950 . S
C2544 C2545 1.349 . S
C2544 C2546 1.327 1_554 S
C2544 H2569 0.950 . S
C2545 C2544 1.349 . S
C2545 C2561 1.349 . S
C2546 C2544 1.327 1_556 S
C2546 C2565 1.429 . S
C2546 H2570 0.950 . S
C2547 C2564 1.574 . S
C2547 C2566 1.368 . S
C2547 H2571 0.949 . S
H2548 C2552 0.949 . S
C2549 C2550 1.349 . S
C2549 C2551 1.327 . S
C2549 H2572 0.950 . S
C2550 C2549 1.349 . S
C2550 C2562 1.349 . S
C2551 C2549 1.327 . S
C2551 C2567 1.429 . S
C2551 H2573 0.950 . S
C2552 H2548 0.949 . S
C2552 C2560 1.574 . S
C2552 C2568 1.368 . S
H2553 C2561 0.950 . S
H2554 C2559 0.950 . S
H2555 C2560 0.949 . S
H2556 C2562 0.950 . S
H2557 C2563 0.950 . S
H2558 C2564 0.949 . S
C2559 H2554 0.950 . S
C2559 C2561 1.327 1_556 S
C2559 C2565 1.429 . S
C2560 C2552 1.574 . S
C2560 H2555 0.949 . S
C2560 C2566 1.368 . S
C2561 C2545 1.349 . S
C2561 H2553 0.950 . S
C2561 C2559 1.327 1_554 S
C2562 C2550 1.349 . S
C2562 H2556 0.950 . S
C2562 C2563 1.327 . S
C2563 H2557 0.950 . S
C2563 C2562 1.327 . S
C2563 C2567 1.429 . S
C2564 C2547 1.574 . S
C2564 H2558 0.949 . S
C2564 C2568 1.368 . S
C2565 C2546 1.429 . S
C2565 C2559 1.429 . S
C2565 C2566 1.523 . S
C2566 C2547 1.368 . S
C2566 C2560 1.368 . S
C2566 C2565 1.523 . S
C2567 C2551 1.429 . S
C2567 C2563 1.429 . S
C2567 C2568 1.523 . S
C2568 C2552 1.368 . S
C2568 C2564 1.368 . S
C2568 C2567 1.523 . S
H2569 C2544 0.950 . S
H2570 C2546 0.950 . S
H2571 C2547 0.949 . S
H2572 C2549 0.950 . S
H2573 C2551 0.950 . S
C2574 C2575 1.349 . S
C2574 C2576 1.327 . S
C2574 H2599 0.950 . S
C2575 C2574 1.349 . S
C2575 C2591 1.349 . S
C2576 C2574 1.327 . S
C2576 C2595 1.429 . S
C2576 H2600 0.950 . S
C2577 C2594 1.574 . S
C2577 C2596 1.368 . S
C2577 H2601 0.949 . S
H2578 C2582 0.949 . S
C2579 C2580 1.349 . S
C2579 C2581 1.327 . S
C2579 H2602 0.950 . S
C2580 C2579 1.349 . S
C2580 C2592 1.349 . S
C2581 C2579 1.327 . S
C2581 C2597 1.429 . S
C2581 H2603 0.950 . S
C2582 H2578 0.949 . S
C2582 C2590 1.574 . S
C2582 C2598 1.368 . S
H2583 C2591 0.950 . S
H2584 C2589 0.950 . S
H2585 C2590 0.949 . S
H2586 C2592 0.950 . S
H2587 C2593 0.950 . S
H2588 C2594 0.949 . S
C2589 H2584 0.950 . S
C2589 C2591 1.327 . S
C2589 C2595 1.429 . S
C2590 C2582 1.574 . S
C2590 H2585 0.949 . S
C2590 C2596 1.368 . S
C2591 C2575 1.349 . S
C2591 H2583 0.950 . S
C2591 C2589 1.327 . S
C2592 C2580 1.349 . S
C2592 H2586 0.950 . S
C2592 C2593 1.327 . S
C2593 H2587 0.950 . S
C2593 C2592 1.327 . S
C2593 C2597 1.429 . S
C2594 C2577 1.574 . S
C2594 H2588 0.949 . S
C2594 C2598 1.368 . S
C2595 C2576 1.429 . S
C2595 C2589 1.429 . S
C2595 C2596 1.523 . S
C2596 C2577 1.368 . S
C2596 C2590 1.368 . S
C2596 C2595 1.523 . S
C2597 C2581 1.429 . S
C2597 C2593 1.429 . S
C2597 C2598 1.523 . S
C2598 C2582 1.368 . S
C2598 C2594 1.368 . S
C2598 C2597 1.523 . S
H2599 C2574 0.950 . S
H2600 C2576 0.950 . S
H2601 C2577 0.949 . S
H2602 C2579 0.950 . S
H2603 C2581 0.950 . S
C2604 C2605 1.349 . S
C2604 C2606 1.327 . S
C2604 H2629 0.950 . S
C2605 C2604 1.349 . S
C2605 C2621 1.349 . S
C2606 C2604 1.327 . S
C2606 C2625 1.429 . S
C2606 H2630 0.950 . S
C2607 C2624 1.574 . S
C2607 C2626 1.368 . S
C2607 H2631 0.949 . S
H2608 C2612 0.949 . S
C2609 C2610 1.349 . S
C2609 C2611 1.327 . S
C2609 H2632 0.950 . S
C2610 C2609 1.349 . S
C2610 C2622 1.349 . S
C2611 C2609 1.327 . S
C2611 C2627 1.429 . S
C2611 H2633 0.950 . S
C2612 H2608 0.949 . S
C2612 C2620 1.574 . S
C2612 C2628 1.368 . S
H2613 C2621 0.950 . S
H2614 C2619 0.950 . S
H2615 C2620 0.949 . S
H2616 C2622 0.950 . S
H2617 C2623 0.950 . S
H2618 C2624 0.949 . S
C2619 H2614 0.950 . S
C2619 C2621 1.327 . S
C2619 C2625 1.429 . S
C2620 C2612 1.574 . S
C2620 H2615 0.949 . S
C2620 C2626 1.368 . S
C2621 C2605 1.349 . S
C2621 H2613 0.950 . S
C2621 C2619 1.327 . S
C2622 C2610 1.349 . S
C2622 H2616 0.950 . S
C2622 C2623 1.327 . S
C2623 H2617 0.950 . S
C2623 C2622 1.327 . S
C2623 C2627 1.429 . S
C2624 C2607 1.574 . S
C2624 H2618 0.949 . S
C2624 C2628 1.368 . S
C2625 C2606 1.429 . S
C2625 C2619 1.429 . S
C2625 C2626 1.523 . S
C2626 C2607 1.368 . S
C2626 C2620 1.368 . S
C2626 C2625 1.523 . S
C2627 C2611 1.429 . S
C2627 C2623 1.429 . S
C2627 C2628 1.523 . S
C2628 C2612 1.368 . S
C2628 C2624 1.368 . S
C2628 C2627 1.523 . S
H2629 C2604 0.950 . S
H2630 C2606 0.950 . S
H2631 C2607 0.949 . S
H2632 C2609 0.950 . S
H2633 C2611 0.950 . S
C2634 C2635 1.349 . S
C2634 C2636 1.327 . S
C2634 H2659 0.950 . S
C2635 C2634 1.349 . S
C2635 C2651 1.349 . S
C2636 C2634 1.327 . S
C2636 C2655 1.429 . S
C2636 H2660 0.950 . S
C2637 C2654 1.574 . S
C2637 C2656 1.368 . S
C2637 H2661 0.949 . S
H2638 C2642 0.949 . S
C2639 C2640 1.349 . S
C2639 C2641 1.327 . S
C2639 H2662 0.950 . S
C2640 C2639 1.349 . S
C2640 C2652 1.349 . S
C2641 C2639 1.327 . S
C2641 C2657 1.429 . S
C2641 H2663 0.950 . S
C2642 H2638 0.949 . S
C2642 C2650 1.574 . S
C2642 C2658 1.368 . S
H2643 C2651 0.950 . S
H2644 C2649 0.950 . S
H2645 C2650 0.949 . S
H2646 C2652 0.950 . S
H2647 C2653 0.950 . S
H2648 C2654 0.949 . S
C2649 H2644 0.950 . S
C2649 C2651 1.327 . S
C2649 C2655 1.429 . S
C2650 C2642 1.574 . S
C2650 H2645 0.949 . S
C2650 C2656 1.368 . S
C2651 C2635 1.349 . S
C2651 H2643 0.950 . S
C2651 C2649 1.327 . S
C2652 C2640 1.349 . S
C2652 H2646 0.950 . S
C2652 C2653 1.327 . S
C2653 H2647 0.950 . S
C2653 C2652 1.327 . S
C2653 C2657 1.429 . S
C2654 C2637 1.574 . S
C2654 H2648 0.949 . S
C2654 C2658 1.368 . S
C2655 C2636 1.429 . S
C2655 C2649 1.429 . S
C2655 C2656 1.523 . S
C2656 C2637 1.368 . S
C2656 C2650 1.368 . S
C2656 C2655 1.523 . S
C2657 C2641 1.429 . S
C2657 C2653 1.429 . S
C2657 C2658 1.523 . S
C2658 C2642 1.368 . S
C2658 C2654 1.368 . S
C2658 C2657 1.523 . S
H2659 C2634 0.950 . S
H2660 C2636 0.950 . S
H2661 C2637 0.949 . S
H2662 C2639 0.950 . S
H2663 C2641 0.950 . S
C505 C230 1.016 . S
C510 C6 1.016 . S
C535 C244 1.017 . S
C540 C20 1.017 . S
C565 C34 1.017 . S
C570 C216 1.017 . S
C595 C370 1.016 . S
C600 C48 1.016 . S
C625 C342 1.017 . S
C630 C62 1.017 . S
C655 C76 1.017 . S
C660 C356 1.017 . S
C685 C482 1.016 . S
C690 C90 1.016 . S
C715 C496 1.017 . S
C720 C104 1.017 . S
C745 C468 1.017 . S
C750 C118 1.017 . S
C775 C286 1.016 . S
C780 C132 1.016 . S
C805 C146 1.017 . S
C810 C258 1.017 . S
C835 C272 1.017 . S
C840 C160 1.017 . S
C865 C398 1.016 . S
C870 C174 1.016 . S
C895 C188 1.017 . S
C900 C412 1.017 . S
C925 C384 1.016 . S
C930 C202 1.016 . S
C955 C454 1.016 . S
C960 C300 1.016 . S
C985 C426 1.016 . S
C990 C314 1.016 . S
C1015 C328 1.017 . S
C1020 C440 1.017 . S
C1045 C105 1.642 . S
C1050 C8 1.692 . S
C1075 C119 1.642 . S
C1080 C22 1.692 . S
C1105 C91 1.642 . S
C1110 C36 1.692 . S
C1135 C50 1.692 . S
C1140 C161 1.642 . S
C1165 C133 1.642 . S
C1170 C64 1.692 . S
C1195 C78 1.692 . S
C1200 C147 1.642 . S
C1225 C21 1.642 . S
C1230 C92 1.692 . S
C1255 C106 1.692 . S
C1260 C35 1.642 . S
C1285 C7 1.642 . S
C1290 C120 1.692 . S
C1315 C77 1.642 . S
C1320 C134 1.692 . S
C1345 C49 1.642 . S
C1350 C148 1.692 . S
C1375 C162 1.692 . S
C1380 C63 1.642 . S
C1405 C176 1.692 . S
C1410 C273 1.642 . S
C1435 C287 1.642 . S
C1440 C190 1.692 . S
C1465 C259 1.642 . S
C1470 C204 1.692 . S
C1495 C218 1.692 . S
C1500 C329 1.642 . S
C1525 C301 1.642 . S
C1530 C232 1.692 . S
C1555 C246 1.692 . S
C1560 C315 1.642 . S
C1585 C260 1.692 . S
C1590 C189 1.642 . S
C1615 C274 1.692 . S
C1620 C203 1.642 . S
C1645 C175 1.642 . S
C1650 C288 1.692 . S
C1675 C245 1.642 . S
C1680 C302 1.692 . S
C1705 C217 1.642 . S
C1710 C316 1.692 . S
C1735 C330 1.692 . S
C1740 C231 1.642 . S
C1765 C441 1.642 . S
C1770 C344 1.692 . S
C1795 C358 1.692 . S
C1800 C455 1.642 . S
C1825 C372 1.692 . S
C1830 C427 1.642 . S
C1855 C497 1.642 . S
C1860 C386 1.692 . S
C1885 C400 1.692 . S
C1890 C469 1.642 . S
C1915 C483 1.642 . S
C1920 C414 1.692 . S
C1945 C357 1.642 . S
C1950 C428 1.692 . S
C1975 C371 1.642 . S
C1980 C442 1.692 . S
C2005 C456 1.692 . S
C2010 C343 1.642 . S
C2035 C470 1.692 . S
C2040 C413 1.642 . S
C2065 C385 1.642 . S
C2070 C484 1.692 . S
C2095 C399 1.642 . S
C2100 C498 1.692 . S
C2125 C9 1.862 . S
C2130 C51 1.862 . S
C2155 C23 1.862 . S
C2160 C65 1.862 . S
C2185 C79 1.862 . S
C2190 C37 1.862 . S
C2215 C93 1.862 . S
C2220 C135 1.862 . S
C2245 C149 1.862 . S
C2250 C107 1.862 . S
C2275 C163 1.862 . S
C2280 C121 1.862 . S
C2305 C177 1.862 . S
C2310 C219 1.862 . S
C2335 C191 1.862 . S
C2340 C233 1.862 . S
C2365 C247 1.862 . S
C2370 C205 1.862 . S
C2395 C261 1.862 . S
C2400 C303 1.862 . S
C2425 C275 1.862 . S
C2430 C317 1.862 . S
C2455 C289 1.862 . S
C2460 C331 1.862 . S
C2485 C387 1.862 . S
C2490 C345 1.862 . S
C2515 C401 1.862 . S
C2520 C359 1.862 . S
C2545 C415 1.862 . S
C2550 C373 1.862 . S
C2575 C429 1.862 . S
C2580 C471 1.862 . S
C2605 C485 1.862 . S
C2610 C443 1.862 . S
C2635 C499 1.862 . S
C2640 C457 1.862 . S
