# Generated by pormake.
# Topology sxc, (6)-cn, num edge types: 1
# Building blocks:
#     Node 0, Type 0, BuildingBlock: KUMJIN_clean_sbu_1, # of connection points: 6
#     Node 1, Type 0, BuildingBlock: KUMJIN_clean_sbu_1, # of connection points: 6
#     Node 2, Type 0, BuildingBlock: KUMJIN_clean_sbu_1, # of connection points: 6
#     Edge 3, Type (0, 0), BuildingBlock: XIVTED_clean_linker_0, # of connection points: 2
#     Edge 4, Type (0, 0), BuildingBlock: XIVTED_clean_linker_0, # of connection points: 2
#     Edge 5, Type (0, 0), BuildingBlock: XIVTED_clean_linker_0, # of connection points: 2
#     Edge 6, Type (0, 0), BuildingBlock: XIVTED_clean_linker_0, # of connection points: 2
#     Edge 7, Type (0, 0), BuildingBlock: XIVTED_clean_linker_0, # of connection points: 2
#     Edge 8, Type (0, 0), BuildingBlock: XIVTED_clean_linker_0, # of connection points: 2
#     Edge 9, Type (0, 0), BuildingBlock: XIVTED_clean_linker_0, # of connection points: 2
#     Edge 10, Type (0, 0), BuildingBlock: XIVTED_clean_linker_0, # of connection points: 2
#     Edge 11, Type (0, 0), BuildingBlock: XIVTED_clean_linker_0, # of connection points: 2
# Relax obj value: 0.259
# Max RMSD: 0.160
# Mean RMSD: 0.117
data_MOF--net-sxc--node1-KUMJIN_clean_sbu_1--edge1-XIVTED_clean_linker_0
_symmetry_space_group_name_H-M    P1
_symmetry_Int_Tables_number       1
_symmetry_cell_setting            triclinic
loop_
_symmetry_equiv_pos_as_xyz
'x, y, z'
_cell_length_a     15.598537
_cell_length_b     16.346487
_cell_length_c     44.594349
_cell_angle_alpha  111.33175
_cell_angle_beta   99.597161
_cell_angle_gamma 95.568229
loop_
_atom_site_label
_atom_site_type_symbol
_atom_site_fract_x
_atom_site_fract_y
_atom_site_fract_z
_atom_type_partial_charge
Eu0 Eu 0.94727 0.18785 0.99483 0.0
C1 C 0.31821 1.10644 0.03553 0.0
N2 N 0.25432 0.14601 0.04982 0.0
C3 C 0.27273 1.0745 0.08824 0.0
C4 C 0.35939 1.04601 0.0464 0.0
C5 C 0.23402 0.13422 0.07676 0.0
C6 C 0.33504 1.02953 0.07279 0.0
C7 C 0.40907 1.08689 0.995 0.0
C8 C 0.34269 0.12682 0.01006 0.0
C9 C 0.44846 1.02488 0.0052 0.0
C10 C 0.42376 1.00457 0.03082 0.0
Eu11 Eu 0.19792 0.25042 0.03033 0.0
N12 N 0.30461 0.18828 1.001 0.0
C13 C 0.43554 1.11205 0.97067 0.0
C14 C 0.33344 0.21619 0.97845 0.0
C15 C 0.39817 0.17758 0.96261 0.0
H16 H 0.18718 0.17013 0.08905 0.0
H17 H 0.42026 0.19949 0.94458 0.0
H18 H 0.95882 0.26731 0.93592 0.0
H19 H 0.72408 0.24053 0.08031 0.0
H20 H 0.30866 0.27006 0.97326 0.0
H21 H 0.48641 1.08303 0.95859 0.0
H22 H 0.83537 0.16897 0.05169 0.0
H23 H 0.25495 1.06363 0.1091 0.0
H24 H 0.49924 0.99335 0.99379 0.0
H25 H 0.45562 0.95747 0.03867 0.0
H26 H 0.89224 0.37423 0.9158 0.0
H27 H 0.36498 0.98336 0.08178 0.0
H28 H 0.65907 0.35745 0.06624 0.0
N29 N 0.8914 0.29208 0.97509 0.0
C30 C 0.82765 0.33218 0.98931 0.0
C31 C 0.87409 0.36357 0.93665 0.0
C32 C 0.78717 0.3929 0.97841 0.0
C33 C 0.91214 0.3036 0.94817 0.0
C34 C 0.812 0.4091 0.95203 0.0
N35 N 0.84029 0.25052 0.0239 0.0
C36 C 0.81105 0.22298 0.04646 0.0
C37 C 0.73665 0.35274 0.02982 0.0
C38 C 0.80278 0.31217 0.01478 0.0
C39 C 0.70976 0.32794 0.05417 0.0
C40 C 0.7465 0.26216 0.06227 0.0
H41 H 0.78261 0.4555 0.94303 0.0
H42 H 0.69177 0.48237 0.98611 0.0
H43 H 0.6474 0.4471 0.031 0.0
O44 O 0.81339 1.11276 0.97725 0.0
O45 O 1.00411 0.34305 0.01201 0.0
O46 O 0.15367 0.36286 0.0136 0.0
O47 O 0.90166 1.09341 0.94368 0.0
O48 O 0.98568 0.18151 0.04512 0.0
O49 O 0.10043 0.2949 0.06315 0.0
O50 O 0.33184 0.32545 0.04792 0.0
O51 O 0.14128 1.09527 0.01313 0.0
O52 O 0.99187 1.07583 0.01178 0.0
O53 O 0.24389 0.34421 0.08156 0.0
O54 O 0.15874 0.25671 0.98009 0.0
O55 O 1.04403 0.14301 0.9617 0.0
C56 C 0.07819 0.39484 0.01346 0.0
C57 C 0.80131 0.9669 0.93718 0.0
C58 C 0.73781 0.83696 0.9459 0.0
C59 C 0.75543 0.78112 0.91597 0.0
C60 C 0.8181 0.91008 0.90727 0.0
C61 C 0.79539 0.8177 0.89682 0.0
C62 C 0.76075 0.9297 0.95623 0.0
C63 C 1.04426 0.24206 0.0695 0.0
C64 C 0.82625 1.06449 0.94841 0.0
C65 C 0.72307 0.435 0.99397 0.0
C66 C 0.69795 0.41504 0.0196 0.0
C67 C 1.06727 1.0437 0.01183 0.0
C68 C 0.34619 0.47044 0.08894 0.0
C69 C 0.4132 0.60126 0.08156 0.0
C70 C 0.39753 0.65614 0.112 0.0
C71 C 0.33123 0.52629 0.11934 0.0
C72 C 0.38758 0.50855 0.07031 0.0
C73 C 0.35667 0.61863 0.13072 0.0
C74 C 0.10077 0.19579 0.95557 0.0
C75 C 0.31955 0.37283 0.07695 0.0
H76 H 0.73895 0.70932 0.90751 0.0
H77 H 0.84894 0.93711 0.89204 0.0
H78 H 0.80885 0.77431 0.87381 0.0
H79 H 0.74566 0.97294 0.97898 0.0
H80 H 0.41616 0.7279 0.12117 0.0
H81 H 0.29993 0.49852 0.13428 0.0
H82 H 0.40131 0.46597 0.04718 0.0
H83 H 0.3447 0.66128 0.15413 0.0
Eu84 Eu 1.06778 1.08104 0.30418 0.0
C85 C 0.21275 0.49732 0.36357 0.0
N86 N 0.23905 0.43203 0.37314 0.0
C87 C 0.39049 0.49145 0.37855 0.0
C88 C 0.27434 0.56021 0.35984 0.0
C89 C 0.32699 0.43158 0.38235 0.0
C90 C 0.364 0.55517 0.36671 0.0
C91 C 0.09511 0.57532 0.35196 0.0
C92 C 0.12465 0.50528 0.35985 0.0
C93 C 0.15545 0.63563 0.34675 0.0
C94 C 0.24492 0.62803 0.35065 0.0
Eu95 Eu 0.1259 0.33127 0.37783 0.0
N96 N 1.0682 0.44634 0.36528 0.0
C97 C 1.00618 0.58379 0.35031 0.0
C98 C 0.98224 0.45637 0.36508 0.0
C99 C 0.9497 0.52453 0.35722 0.0
H100 H 0.34911 0.38707 0.39361 0.0
H101 H 0.8812 0.53148 0.35661 0.0
H102 H 0.16572 1.10056 0.24565 0.0
H103 H 0.7445 0.89695 0.29177 0.0
H104 H 0.93854 0.4111 0.37064 0.0
H105 H 0.98092 0.6368 0.34439 0.0
H106 H 0.8968 0.97682 0.31992 0.0
H107 H 0.45995 0.4895 0.3854 0.0
H108 H 0.13401 0.68961 0.34047 0.0
H109 H 0.29109 0.6763 0.34734 0.0
H110 H 0.1265 1.07348 0.18627 0.0
H111 H 0.41338 0.60235 0.36425 0.0
H112 H 0.68767 0.87238 0.23334 0.0
N113 N 1.03661 1.04943 0.24702 0.0
C114 C 0.95371 1.00943 0.22971 0.0
C115 C 0.07718 1.05518 0.1982 0.0
C116 C 0.92827 0.99199 0.19584 0.0
C117 C 0.09909 1.07069 0.23177 0.0
C118 C 0.99109 1.01639 0.18019 0.0
N119 N 0.92435 0.99828 0.27805 0.0
C120 C 0.87236 0.96596 0.2944 0.0
C121 C 0.80956 0.93742 0.22863 0.0
C122 C 0.8955 0.98279 0.24579 0.0
C123 C 0.75431 0.90738 0.24559 0.0
C124 C 0.78623 0.92094 0.27855 0.0
H125 H 0.97421 1.00453 0.15421 0.0
H126 H 0.82057 0.93599 0.1527 0.0
H127 H 0.71645 0.88798 0.18146 0.0
O128 O 0.12573 1.00187 0.32934 0.0
O129 O 0.94572 0.14688 0.31434 0.0
O130 O 0.98139 0.26198 0.36697 0.0
O131 O 0.11509 0.9594 0.27666 0.0
O132 O 1.03775 1.09151 0.35392 0.0
O133 O 0.15251 0.20043 0.37856 0.0
O134 O 0.20426 0.40359 0.42747 0.0
O135 O 0.24316 0.25416 0.36867 0.0
O136 O 0.20712 0.16143 0.3134 0.0
O137 O 1.06337 0.37547 0.42057 0.0
O138 O 1.06116 0.31982 0.32606 0.0
O139 O 0.12607 0.20565 0.29938 0.0
C140 C 0.92327 0.20503 0.34034 0.0
C141 C 0.2453 0.94306 0.30938 0.0
C142 C 0.37483 0.94097 0.34799 0.0
C143 C 0.42772 0.94273 0.32568 0.0
C144 C 0.29878 0.94614 0.28722 0.0
C145 C 0.38953 0.94549 0.29536 0.0
C146 C 0.28402 0.9394 0.33937 0.0
C147 C 0.09065 0.1465 0.38136 0.0
C148 C 0.15071 0.94987 0.30358 0.0
C149 C 0.84175 0.94947 0.1787 0.0
C150 C 0.78246 0.92216 0.19508 0.0
C151 C 0.26683 0.20501 0.34128 0.0
C152 C 0.14141 0.50844 0.46459 0.0
C153 C 0.19362 0.66684 0.48092 0.0
C154 C 0.17639 0.68356 0.51229 0.0
C155 C 0.12306 0.52553 0.49584 0.0
C156 C 0.17452 0.57961 0.45708 0.0
C157 C 0.13983 0.61303 0.5195 0.0
C158 C 0.07865 0.26637 0.29862 0.0
C159 C 0.13747 0.41654 0.44146 0.0
H160 H 0.4978 0.94222 0.3317 0.0
H161 H 0.27101 0.95009 0.26395 0.0
H162 H 0.43045 0.94788 0.27824 0.0
H163 H 0.24293 0.93553 0.35637 0.0
H164 H 0.19105 0.75061 0.53101 0.0
H165 H 0.09824 0.47118 0.50221 0.0
H166 H 0.19019 0.56657 0.43315 0.0
H167 H 0.12645 0.62592 0.54371 0.0
Eu168 Eu 0.14314 0.25834 0.6862 0.0
C169 C 0.25523 0.89629 0.62733 0.0
N170 N 0.20983 0.95201 0.61715 0.0
C171 C 0.29377 0.93819 0.57569 0.0
C172 C 0.3243 0.86191 0.61262 0.0
C173 C 0.226 0.97082 0.59103 0.0
C174 C 0.34362 0.8841 0.58669 0.0
C175 C 0.28205 0.82006 0.66483 0.0
C176 C 0.23418 0.87554 0.65322 0.0
C177 C 0.35109 0.7862 0.65029 0.0
C178 C 0.37209 0.807 0.62427 0.0
Eu179 Eu 0.09322 0.9981 0.64336 0.0
N180 N 0.16741 0.90969 0.66711 0.0
C181 C 0.25901 0.79997 0.69071 0.0
C182 C 0.14345 0.88869 0.69186 0.0
C183 C 0.18921 0.83412 0.70416 0.0
H184 H 0.18617 1.00984 0.58165 0.0
H185 H 0.17006 0.81774 0.72381 0.0
H186 H 1.02501 0.25447 0.74233 0.0
H187 H 0.14484 0.46941 0.61539 0.0
H188 H 0.08772 0.91195 0.7017 0.0
H189 H 0.29413 0.7575 0.70026 0.0
H190 H 0.19885 0.36073 0.63739 0.0
H191 H 0.3069 0.95399 0.55515 0.0
H192 H 0.38861 0.74365 0.65896 0.0
H193 H 0.42554 0.7803 0.61334 0.0
H194 H 0.90153 0.32156 0.76408 0.0
H195 H 0.39612 0.85899 0.57476 0.0
H196 H 1.01714 0.53806 0.63244 0.0
N197 N 1.02571 0.31859 0.70868 0.0
C198 C 0.99344 0.3801 0.69808 0.0
C199 C 0.92639 0.33813 0.74538 0.0
C200 C 0.92348 0.42068 0.70998 0.0
C201 C 0.99598 0.29988 0.73296 0.0
C202 C 0.88933 0.39807 0.7336 0.0
N203 N 0.0994 0.36392 0.66484 0.0
C204 C 0.14131 0.38816 0.64407 0.0
C205 C 0.99869 0.46614 0.66385 0.0
C206 C 1.03058 0.40244 0.67523 0.0
C207 C 1.03966 0.48933 0.64172 0.0
C208 C 0.11166 0.45059 0.63197 0.0
H209 H 0.83533 0.42748 0.74324 0.0
H210 H 0.83633 0.51422 0.70686 0.0
H211 H 0.90279 0.55463 0.66675 0.0
O212 O 0.22272 0.39134 0.70816 0.0
O213 O 0.99463 0.19818 0.66601 0.0
O214 O 0.97523 1.05303 0.66292 0.0
O215 O 0.22667 0.30628 0.73562 0.0
O216 O 0.16302 0.20435 0.63382 0.0
O217 O 1.0576 1.07846 0.61183 0.0
O218 O 1.02341 0.86326 0.62956 0.0
O219 O 0.2393 1.06665 0.66728 0.0
O220 O 0.25183 0.2002 0.66113 0.0
O221 O 1.01936 0.92125 0.59295 0.0
O222 O 1.06154 1.04773 0.6943 0.0
O223 O 0.16727 0.17189 0.7159 0.0
C224 C 0.94339 0.12545 0.66347 0.0
C225 C 0.36168 0.39341 0.73972 0.0
C226 C 0.49733 0.44855 0.72744 0.0
C227 C 0.54607 0.4118 0.74727 0.0
C228 C 0.41163 0.35844 0.75998 0.0
C229 C 0.50326 0.36752 0.76362 0.0
C230 C 0.40539 0.43904 0.72386 0.0
C231 C 0.10641 0.14347 0.6085 0.0
C232 C 0.26416 0.37822 0.73349 0.0
C233 C 0.89038 0.48273 0.69815 0.0
C234 C 0.92803 0.50555 0.67523 0.0
C235 C 0.28811 0.13433 0.6651 0.0
C236 C 0.89061 0.82486 0.58928 0.0
C237 C 0.7571 0.74597 0.5949 0.0
C238 C 0.70624 0.77291 0.5722 0.0
C239 C 0.83888 0.85011 0.56618 0.0
C240 C 0.84915 0.77142 0.60301 0.0
C241 C 0.74722 0.82405 0.55772 0.0
C242 C 0.1104 1.11458 0.72001 0.0
C243 C 0.98712 0.8553 0.5999 0.0
H244 H 0.6171 0.4182 0.75043 0.0
H245 H 0.37982 0.32297 0.7726 0.0
H246 H 0.54116 0.33974 0.77902 0.0
H247 H 0.3675 0.46522 0.70782 0.0
H248 H 0.63504 0.75408 0.56558 0.0
H249 H 0.86895 0.89066 0.5549 0.0
H250 H 0.88837 0.75196 0.62096 0.0
H251 H 0.70776 0.84426 0.54011 0.0
H252 H 0.94452 0.50221 0.02286 0.0
H253 H 0.20101 0.93642 0.00253 0.0
H254 H 0.20697 0.51582 0.00523 0.0
H255 H 0.93856 0.92284 0.02014 0.0
H256 H 0.20479 0.78701 0.00373 0.0
H257 H 0.94076 0.65167 0.0217 0.0
C258 C 1.00153 0.53523 0.01837 0.0
C259 C 0.07568 0.49156 0.01361 0.0
C260 C 0.14603 0.8161 0.00744 0.0
C261 C 0.07256 0.67113 0.01299 0.0
C262 C 0.14398 0.9034 0.00701 0.0
C263 C 1.0698 0.94704 0.01174 0.0
C264 C 0.07295 0.76754 0.01242 0.0
C265 C 0.99801 0.89523 0.01642 0.0
C266 C 0.9995 0.62256 0.01797 0.0
C267 C 0.1475 0.5434 0.00895 0.0
N268 N 1.00155 0.81068 0.01666 0.0
N269 N 0.14396 0.62798 0.00873 0.0
H270 H 0.40826 0.25631 0.39469 0.0
H271 H 0.77961 0.12267 0.2878 0.0
H272 H 0.34837 0.14546 0.28839 0.0
H273 H 0.84208 0.28383 0.39207 0.0
H274 H 0.62208 0.11966 0.28791 0.0
H275 H 0.56542 0.25626 0.39451 0.0
C276 C 0.42781 0.2325 0.37123 0.0
C277 C 0.36374 0.20238 0.3415 0.0
C278 C 0.67012 0.15575 0.3108 0.0
C279 C 0.546 0.20036 0.34115 0.0
C280 C 0.76068 0.15727 0.31082 0.0
C281 C 0.82576 0.20341 0.34002 0.0
C282 C 0.64283 0.20023 0.34023 0.0
C283 C 0.79543 0.24744 0.36887 0.0
C284 C 0.5181 0.23215 0.37118 0.0
C285 C 0.39446 0.17008 0.31201 0.0
N286 N 0.70699 0.24446 0.36824 0.0
N287 N 0.48261 0.16996 0.3126 0.0
H288 H 0.80392 0.59942 0.60492 0.0
H289 H 0.46519 0.60328 0.72122 0.0
H290 H 0.61616 0.77934 0.62375 0.0
H291 H 0.62702 0.40002 0.69298 0.0
H292 H 0.52518 0.67204 0.68733 0.0
H293 H 0.74264 0.52643 0.6377 0.0
C294 C 0.74951 0.62322 0.61587 0.0
C295 C 0.71502 0.69554 0.61173 0.0
C296 C 0.54777 0.61248 0.68853 0.0
C297 C 0.64582 0.6135 0.64956 0.0
C298 C 0.51352 0.57316 0.70787 0.0
C299 C 0.54054 0.49532 0.70964 0.0
C300 C 0.60999 0.5741 0.67091 0.0
C301 C 0.60472 0.46024 0.69241 0.0
C302 C 0.71477 0.58171 0.63459 0.0
C303 C 0.64411 0.72331 0.62612 0.0
N304 N 0.6371 0.49977 0.67361 0.0
N305 N 0.61227 0.68263 0.64462 0.0
H306 H 0.84317 0.24911 0.65442 0.0
H307 H 0.39259 1.0196 0.67919 0.0
H308 H 0.81954 1.00571 0.67158 0.0
H309 H 0.40924 0.25053 0.65399 0.0
H310 H 0.54855 1.0161 0.67799 0.0
H311 H 0.68729 0.25381 0.65597 0.0
C312 C 0.80577 0.19682 0.65877 0.0
C313 C 0.84637 0.12754 0.66332 0.0
C314 C 0.51832 1.06754 0.67263 0.0
C315 C 0.66474 0.13177 0.66458 0.0
C316 C 0.42842 1.06927 0.67308 0.0
C317 C 0.38562 0.13417 0.66591 0.0
C318 C 0.56787 0.13212 0.66546 0.0
C319 C 0.43802 0.19837 0.65933 0.0
C320 C 0.716 0.19933 0.65945 0.0
C321 C 0.79234 1.06082 0.66804 0.0
N322 N 0.52557 0.19562 0.65923 0.0
N323 N 0.70523 1.06477 0.66862 0.0
H324 H 0.77693 0.88961 0.01308 0.0
H325 H 0.37132 0.55378 0.01473 0.0
H326 H 0.59737 0.70049 0.92508 0.0
H327 H 0.55702 0.73458 0.10272 0.0
H328 H 0.45182 0.60896 0.98161 0.0
H329 H 0.69681 0.83476 0.04641 0.0
C330 C 0.72073 0.83635 1.00075 0.0
C331 C 0.69367 0.79968 0.96622 0.0
C332 C 0.47493 0.63678 0.00816 0.0
C333 C 0.60156 0.73657 0.00426 0.0
C334 C 0.42904 0.60523 0.02709 0.0
C335 C 0.45774 0.63935 0.06154 0.0
C336 C 0.55019 0.70308 0.02374 0.0
C337 C 0.53215 0.70694 0.07626 0.0
C338 C 0.67507 0.805 0.01981 0.0
C339 C 0.62103 0.73009 0.95159 0.0
N340 N 0.57606 0.73637 0.05725 0.0
N341 N 0.57724 0.70105 0.9707 0.0
H342 H 0.12811 0.71937 0.4322 0.0
H343 H 0.37577 1.05885 0.40941 0.0
H344 H 0.35792 0.76801 0.50906 0.0
H345 H 0.44051 0.80209 0.35723 0.0
H346 H 0.35349 1.01172 0.45421 0.0
H347 H 0.21137 0.81066 0.41009 0.0
C348 C 0.1953 0.7516 0.44492 0.0
C349 C 0.23633 0.73754 0.4726 0.0
C350 C 0.37777 0.96791 0.43386 0.0
C351 C 0.33151 0.83877 0.44708 0.0
C352 C 0.39096 0.99473 0.40843 0.0
C353 C 0.40875 0.93351 0.37955 0.0
C354 C 0.38304 0.87993 0.43015 0.0
C355 C 0.42654 0.85084 0.3791 0.0
C356 C 0.24259 0.80276 0.43226 0.0
C357 C 0.32421 0.77892 0.48793 0.0
N358 N 0.41001 0.82499 0.40358 0.0
N359 N 0.37008 0.82691 0.47455 0.0
H360 H 0.92911 0.20751 0.25009 0.0
H361 H 0.1461 0.37217 0.12645 0.0
H362 H 0.19164 0.35811 0.27703 0.0
H363 H 0.93911 0.14328 0.09265 0.0
H364 H 0.14766 0.38956 0.18335 0.0
H365 H 0.91425 0.20778 0.19427 0.0
C366 C 0.98248 0.243 0.24446 0.0
C367 C 1.06119 0.284 0.26815 0.0
C368 C 0.10148 0.3359 0.16347 0.0
C369 C 1.04561 0.28328 0.20444 0.0
C370 C 0.10054 0.3257 0.13085 0.0
C371 C 1.0423 0.25603 0.10441 0.0
C372 C 1.04297 0.27684 0.17 0.0
C373 C 0.98455 0.19855 0.11205 0.0
C374 C 0.97446 0.24227 0.21257 0.0
C375 C 0.12949 0.32687 0.25949 0.0
N376 N 0.98625 0.21029 0.14406 0.0
N377 N 0.12024 0.32533 0.22835 0.0
H378 H 0.96901 1.0445 0.39799 0.0
H379 H 0.21888 0.2444 0.58915 0.0
H380 H 0.20502 0.24378 0.43999 0.0
H381 H 0.98307 1.0448 0.55096 0.0
H382 H 0.21108 0.24565 0.53434 0.0
H383 H 0.96949 1.04331 0.45314 0.0
C384 C 1.02063 1.08813 0.41874 0.0
C385 C 0.08681 0.14459 0.41427 0.0
C386 C 0.16058 0.20177 0.53785 0.0
C387 C 0.08791 0.14357 0.47738 0.0
C388 C 0.16464 0.20158 0.56937 0.0
C389 C 0.10079 0.1455 0.57503 0.0
C390 C 0.09239 0.14507 0.51137 0.0
C391 C 1.03357 1.08961 0.54791 0.0
C392 C 1.02091 1.08744 0.45021 0.0
C393 C 0.15217 0.19955 0.4421 0.0
N394 N 1.03109 1.09082 0.51732 0.0
N395 N 0.15101 0.19759 0.47224 0.0
H396 H 0.99791 1.01446 0.74054 0.0
H397 H 0.20161 0.29967 0.93339 0.0
H398 H 0.22034 0.22959 0.77808 0.0
H399 H 1.00655 1.06071 0.89801 0.0
H400 H 0.2052 0.27675 0.87638 0.0
H401 H 0.99598 1.03136 0.79749 0.0
C402 C 1.04659 1.06489 0.76062 0.0
C403 C 0.10932 0.12064 0.75424 0.0
C404 C 0.16181 0.22899 0.88102 0.0
C405 C 0.10684 0.14107 0.81969 0.0
C406 C 0.16004 0.24186 0.91371 0.0
C407 C 0.1044 0.18162 0.92078 0.0
C408 C 0.10694 0.15565 0.85488 0.0
C409 C 1.05068 1.10897 0.89393 0.0
C410 C 1.04531 1.07465 0.79318 0.0
C411 C 0.17026 0.18524 0.78148 0.0
N412 N 1.05318 1.09815 0.86228 0.0
N413 N 0.16725 0.19374 0.81279 0.0
loop_
_geom_bond_atom_site_label_1
_geom_bond_atom_site_label_2
_geom_bond_distance
_geom_bond_site_symmetry_2
_ccdc_geom_bond_type
Eu0 N29 2.600 . S
Eu0 N35 2.562 1_556 S
Eu0 O44 2.462 1_546 S
Eu0 O45 2.373 . S
Eu0 O47 2.432 1_545 S
Eu0 O48 2.291 1_556 S
Eu0 O52 2.335 1_545 S
Eu0 O55 2.372 . S
Eu0 C64 2.787 1_545 S
C1 N2 1.365 . S
C1 C4 1.405 . S
C1 C8 1.448 . S
N2 C1 1.365 . S
N2 C5 1.319 . S
N2 Eu11 2.600 . S
C3 C5 1.397 . S
C3 C6 1.367 . S
C3 H23 0.931 . S
C4 C1 1.405 . S
C4 C6 1.403 . S
C4 C10 1.439 . S
C5 N2 1.319 . S
C5 C3 1.397 . S
C5 H16 0.930 . S
C6 C3 1.367 . S
C6 C4 1.403 . S
C6 H27 0.929 . S
C7 C8 1.430 . S
C7 C9 1.387 . S
C7 C13 1.405 1_554 S
C8 C1 1.448 . S
C8 C7 1.430 . S
C8 N12 1.351 . S
C9 C7 1.387 . S
C9 C10 1.374 . S
C9 H24 0.931 1_545 S
C10 C4 1.439 . S
C10 C9 1.374 . S
C10 H25 0.931 . S
Eu11 N2 2.600 . S
Eu11 N12 2.562 . S
Eu11 O46 2.335 . S
Eu11 O49 2.372 . S
Eu11 O50 2.462 . S
Eu11 O51 2.373 . S
Eu11 O53 2.432 . S
Eu11 O54 2.291 1_554 S
Eu11 C75 2.787 . S
N12 C8 1.351 . S
N12 Eu11 2.562 . S
N12 C14 1.325 1_554 S
C13 C7 1.405 1_556 S
C13 C15 1.377 . S
C13 H21 0.920 1_545 S
C14 N12 1.325 1_556 S
C14 C15 1.416 . S
C14 H20 0.929 . S
C15 C13 1.377 . S
C15 C14 1.416 . S
C15 H17 0.930 . S
H16 C5 0.930 . S
H17 C15 0.930 . S
H18 C33 0.930 . S
H19 C40 0.930 . S
H20 C14 0.929 . S
H21 C13 0.920 1_565 S
H22 C36 0.929 . S
H23 C3 0.931 . S
H24 C9 0.931 1_565 S
H25 C10 0.931 . S
H26 C31 0.931 . S
H27 C6 0.929 . S
H28 C39 0.930 . S
N29 Eu0 2.600 . S
N29 C30 1.365 . S
N29 C33 1.319 . S
C30 N29 1.365 . S
C30 C32 1.405 . S
C30 C38 1.448 . S
C31 H26 0.931 . S
C31 C33 1.397 . S
C31 C34 1.367 . S
C32 C30 1.405 . S
C32 C34 1.403 . S
C32 C65 1.439 . S
C33 H18 0.930 . S
C33 N29 1.319 . S
C33 C31 1.397 . S
C34 C31 1.367 . S
C34 C32 1.403 . S
C34 H41 0.929 . S
N35 Eu0 2.562 1_554 S
N35 C36 1.325 . S
N35 C38 1.351 1_554 S
C36 H22 0.929 . S
C36 N35 1.325 . S
C36 C40 1.416 . S
C37 C38 1.432 . S
C37 C39 1.393 1_556 S
C37 C66 1.395 . S
C38 C30 1.448 . S
C38 N35 1.351 1_556 S
C38 C37 1.432 . S
C39 H28 0.930 . S
C39 C37 1.393 1_554 S
C39 C40 1.366 . S
C40 H19 0.930 . S
C40 C36 1.416 . S
C40 C39 1.366 . S
H41 C34 0.929 . S
H42 C65 0.931 . S
H43 C66 0.931 . S
O44 Eu0 2.462 1_564 S
O44 C64 1.252 1_554 S
O45 Eu0 2.373 . S
O45 C56 1.249 1_556 S
O46 Eu11 2.335 . S
O46 C56 1.264 1_455 S
O47 Eu0 2.432 1_565 S
O47 C64 1.268 . S
O48 Eu0 2.291 1_554 S
O48 C63 1.255 . S
O49 Eu11 2.372 . S
O49 C63 1.257 1_455 S
O50 Eu11 2.462 . S
O50 C75 1.252 . S
O51 Eu11 2.373 . S
O51 C67 1.249 1_545 S
O52 Eu0 2.335 1_565 S
O52 C67 1.264 1_656 S
O53 Eu11 2.432 . S
O53 C75 1.268 . S
O54 Eu11 2.291 1_556 S
O54 C74 1.255 . S
O55 Eu0 2.372 . S
O55 C74 1.257 1_655 S
C56 O45 1.249 1_554 S
C56 O46 1.264 1_655 S
C57 C60 1.382 . S
C57 C62 1.390 1_556 S
C57 C64 1.506 . S
C58 C59 1.398 1_554 S
C58 C62 1.392 . S
C59 C58 1.398 1_556 S
C59 C61 1.372 . S
C59 H76 0.931 . S
C60 C57 1.382 . S
C60 C61 1.390 . S
C60 H77 0.931 . S
C61 C59 1.372 . S
C61 C60 1.390 . S
C61 H78 0.929 . S
C62 C57 1.390 1_554 S
C62 C58 1.392 . S
C62 H79 0.930 . S
C63 O48 1.255 . S
C63 O49 1.257 1_655 S
C64 Eu0 2.787 1_565 S
C64 O44 1.252 1_556 S
C64 O47 1.268 . S
C64 C57 1.506 . S
C65 C32 1.439 . S
C65 H42 0.931 . S
C65 C66 1.374 . S
C66 C37 1.395 . S
C66 H43 0.931 . S
C66 C65 1.374 . S
C67 O51 1.249 1_565 S
C67 O52 1.264 1_454 S
C68 C71 1.382 . S
C68 C72 1.390 . S
C68 C75 1.506 . S
C69 C70 1.398 . S
C69 C72 1.392 . S
C70 C69 1.398 . S
C70 C73 1.372 . S
C70 H80 0.931 . S
C71 C68 1.382 . S
C71 C73 1.390 . S
C71 H81 0.931 . S
C72 C68 1.390 . S
C72 C69 1.392 . S
C72 H82 0.930 1_554 S
C73 C70 1.372 . S
C73 C71 1.390 . S
C73 H83 0.929 . S
C74 O54 1.255 . S
C74 O55 1.257 1_455 S
C75 Eu11 2.787 . S
C75 O50 1.252 . S
C75 O53 1.268 . S
C75 C68 1.506 . S
H76 C59 0.931 . S
H77 C60 0.931 . S
H78 C61 0.929 . S
H79 C62 0.930 . S
H80 C70 0.931 . S
H81 C71 0.931 . S
H82 C72 0.930 1_556 S
H83 C73 0.929 . S
Eu84 N113 2.600 1_545 S
Eu84 N119 2.562 1_545 S
Eu84 O128 2.462 1_645 S
Eu84 O129 2.373 . S
Eu84 O131 2.432 1_645 S
Eu84 O132 2.291 . S
Eu84 O136 2.335 1_655 S
Eu84 O139 2.372 1_655 S
Eu84 C148 2.787 1_645 S
C85 N86 1.365 . S
C85 C88 1.405 . S
C85 C92 1.448 . S
N86 C85 1.365 . S
N86 C89 1.319 . S
N86 Eu95 2.600 . S
C87 C89 1.397 . S
C87 C90 1.367 . S
C87 H107 0.931 . S
C88 C85 1.405 . S
C88 C90 1.403 . S
C88 C94 1.439 . S
C89 N86 1.319 . S
C89 C87 1.397 . S
C89 H100 0.930 . S
C90 C87 1.367 . S
C90 C88 1.403 . S
C90 H111 0.929 . S
C91 C92 1.430 . S
C91 C93 1.387 . S
C91 C97 1.404 . S
C92 C85 1.448 . S
C92 C91 1.430 . S
C92 N96 1.351 . S
C93 C91 1.387 . S
C93 C94 1.374 . S
C93 H108 0.931 . S
C94 C88 1.439 . S
C94 C93 1.374 . S
C94 H109 0.931 . S
Eu95 N86 2.600 . S
Eu95 N96 2.562 . S
Eu95 O130 2.335 1_455 S
Eu95 O133 2.372 . S
Eu95 O134 2.462 . S
Eu95 O135 2.373 . S
Eu95 O137 2.432 . S
Eu95 O138 2.291 . S
Eu95 C159 2.787 . S
N96 C92 1.351 . S
N96 Eu95 2.562 . S
N96 C98 1.325 . S
C97 C91 1.404 . S
C97 C99 1.366 . S
C97 H105 0.930 . S
C98 N96 1.325 . S
C98 C99 1.416 . S
C98 H104 0.929 . S
C99 C97 1.366 . S
C99 C98 1.416 . S
C99 H101 0.930 . S
H100 C89 0.930 . S
H101 C99 0.930 . S
H102 C117 0.930 . S
H103 C124 0.930 . S
H104 C98 0.929 . S
H105 C97 0.930 . S
H106 C120 0.929 . S
H107 C87 0.931 . S
H108 C93 0.931 . S
H109 C94 0.931 . S
H110 C115 0.931 . S
H111 C90 0.929 . S
H112 C123 0.930 . S
N113 Eu84 2.600 1_565 S
N113 C114 1.365 . S
N113 C117 1.319 . S
C114 N113 1.365 . S
C114 C116 1.405 . S
C114 C122 1.448 . S
C115 H110 0.931 . S
C115 C117 1.397 . S
C115 C118 1.367 . S
C116 C114 1.405 . S
C116 C118 1.403 . S
C116 C149 1.439 . S
C117 H102 0.930 . S
C117 N113 1.319 . S
C117 C115 1.397 . S
C118 C115 1.367 . S
C118 C116 1.403 . S
C118 H125 0.929 . S
N119 Eu84 2.562 1_565 S
N119 C120 1.325 . S
N119 C122 1.351 . S
C120 H106 0.929 . S
C120 N119 1.325 . S
C120 C124 1.416 . S
C121 C122 1.430 . S
C121 C123 1.404 . S
C121 C150 1.387 . S
C122 C114 1.448 . S
C122 N119 1.351 . S
C122 C121 1.430 . S
C123 H112 0.930 . S
C123 C121 1.404 . S
C123 C124 1.366 . S
C124 H103 0.930 . S
C124 C120 1.416 . S
C124 C123 1.366 . S
H125 C118 0.929 . S
H126 C149 0.931 . S
H127 C150 0.931 . S
O128 Eu84 2.462 1_465 S
O128 C148 1.252 . S
O129 Eu84 2.373 . S
O129 C140 1.249 . S
O130 Eu95 2.335 1_655 S
O130 C140 1.264 . S
O131 Eu84 2.432 1_465 S
O131 C148 1.268 . S
O132 Eu84 2.291 . S
O132 C147 1.255 1_655 S
O133 Eu95 2.372 . S
O133 C147 1.257 . S
O134 Eu95 2.462 . S
O134 C159 1.252 . S
O135 Eu95 2.373 . S
O135 C151 1.249 . S
O136 Eu84 2.335 1_455 S
O136 C151 1.264 . S
O137 Eu95 2.432 . S
O137 C159 1.268 . S
O138 Eu95 2.291 . S
O138 C158 1.255 . S
O139 Eu84 2.372 1_455 S
O139 C158 1.257 . S
C140 O129 1.249 . S
C140 O130 1.264 . S
C141 C144 1.382 . S
C141 C146 1.390 . S
C141 C148 1.506 . S
C142 C143 1.398 . S
C142 C146 1.392 . S
C143 C142 1.398 . S
C143 C145 1.372 . S
C143 H160 0.931 . S
C144 C141 1.382 . S
C144 C145 1.390 . S
C144 H161 0.931 . S
C145 C143 1.372 . S
C145 C144 1.390 . S
C145 H162 0.929 . S
C146 C141 1.390 . S
C146 C142 1.392 . S
C146 H163 0.930 . S
C147 O132 1.255 1_455 S
C147 O133 1.257 . S
C148 Eu84 2.787 1_465 S
C148 O128 1.252 . S
C148 O131 1.268 . S
C148 C141 1.506 . S
C149 C116 1.439 . S
C149 H126 0.931 . S
C149 C150 1.374 . S
C150 C121 1.387 . S
C150 H127 0.931 . S
C150 C149 1.374 . S
C151 O135 1.249 . S
C151 O136 1.264 . S
C152 C155 1.382 . S
C152 C156 1.390 1_455 S
C152 C159 1.506 . S
C153 C154 1.398 . S
C153 C156 1.392 . S
C154 C153 1.398 . S
C154 C157 1.371 . S
C154 H164 0.931 . S
C155 C152 1.382 . S
C155 C157 1.390 1_455 S
C155 H165 0.931 . S
C156 C152 1.390 1_655 S
C156 C153 1.392 . S
C156 H166 0.930 . S
C157 C154 1.371 . S
C157 C155 1.390 1_655 S
C157 H167 0.926 . S
C158 O138 1.255 . S
C158 O139 1.257 . S
C159 Eu95 2.787 . S
C159 O134 1.252 . S
C159 O137 1.268 . S
C159 C152 1.506 . S
H160 C143 0.931 . S
H161 C144 0.931 . S
H162 C145 0.929 . S
H163 C146 0.930 . S
H164 C154 0.931 . S
H165 C155 0.931 . S
H166 C156 0.930 . S
H167 C157 0.926 . S
Eu168 N197 2.600 . S
Eu168 N203 2.562 . S
Eu168 O212 2.462 . S
Eu168 O213 2.373 1_455 S
Eu168 O215 2.432 . S
Eu168 O216 2.291 . S
Eu168 O220 2.335 . S
Eu168 O223 2.372 . S
Eu168 C232 2.787 . S
C169 N170 1.365 . S
C169 C172 1.405 . S
C169 C176 1.448 . S
N170 C169 1.365 . S
N170 C173 1.319 . S
N170 Eu179 2.600 . S
C171 C173 1.397 . S
C171 C174 1.367 . S
C171 H191 0.931 . S
C172 C169 1.405 . S
C172 C174 1.403 . S
C172 C178 1.439 . S
C173 N170 1.319 . S
C173 C171 1.397 . S
C173 H184 0.930 . S
C174 C171 1.367 . S
C174 C172 1.403 . S
C174 H195 0.929 . S
C175 C176 1.430 . S
C175 C177 1.387 . S
C175 C181 1.404 . S
C176 C169 1.448 . S
C176 C175 1.430 . S
C176 N180 1.351 . S
C177 C175 1.387 . S
C177 C178 1.374 . S
C177 H192 0.931 . S
C178 C172 1.439 . S
C178 C177 1.374 . S
C178 H193 0.931 . S
Eu179 N170 2.600 . S
Eu179 N180 2.562 . S
Eu179 O214 2.335 1_455 S
Eu179 O217 2.372 . S
Eu179 O218 2.462 1_455 S
Eu179 O219 2.373 . S
Eu179 O221 2.432 1_455 S
Eu179 O222 2.291 . S
Eu179 C243 2.787 1_455 S
N180 C176 1.351 . S
N180 Eu179 2.562 . S
N180 C182 1.325 . S
C181 C175 1.404 . S
C181 C183 1.366 . S
C181 H189 0.930 . S
C182 N180 1.325 . S
C182 C183 1.416 . S
C182 H188 0.929 . S
C183 C181 1.366 . S
C183 C182 1.416 . S
C183 H185 0.930 . S
H184 C173 0.930 . S
H185 C183 0.930 . S
H186 C201 0.930 . S
H187 C208 0.930 . S
H188 C182 0.929 . S
H189 C181 0.930 . S
H190 C204 0.929 . S
H191 C171 0.931 . S
H192 C177 0.931 . S
H193 C178 0.931 . S
H194 C199 0.931 . S
H195 C174 0.929 . S
H196 C207 0.930 . S
N197 Eu168 2.600 . S
N197 C198 1.365 . S
N197 C201 1.319 . S
C198 N197 1.365 . S
C198 C200 1.405 . S
C198 C206 1.448 . S
C199 H194 0.931 . S
C199 C201 1.397 . S
C199 C202 1.367 . S
C200 C198 1.405 . S
C200 C202 1.403 . S
C200 C233 1.439 1_455 S
C201 H186 0.930 . S
C201 N197 1.319 . S
C201 C199 1.397 . S
C202 C199 1.367 . S
C202 C200 1.403 . S
C202 H209 0.929 . S
N203 Eu168 2.562 . S
N203 C204 1.325 . S
N203 C206 1.351 . S
C204 H190 0.929 . S
C204 N203 1.325 . S
C204 C208 1.416 1_455 S
C205 C206 1.430 1_655 S
C205 C207 1.404 . S
C205 C234 1.387 . S
C206 C198 1.448 . S
C206 N203 1.351 . S
C206 C205 1.430 1_455 S
C207 H196 0.930 . S
C207 C205 1.404 . S
C207 C208 1.366 . S
C208 H187 0.930 . S
C208 C204 1.416 1_655 S
C208 C207 1.366 . S
H209 C202 0.929 . S
H210 C233 0.931 . S
H211 C234 0.931 . S
O212 Eu168 2.462 . S
O212 C232 1.252 . S
O213 Eu168 2.373 1_655 S
O213 C224 1.249 . S
O214 Eu179 2.335 1_655 S
O214 C224 1.264 1_565 S
O215 Eu168 2.432 . S
O215 C232 1.268 . S
O216 Eu168 2.291 . S
O216 C231 1.255 . S
O217 Eu179 2.372 . S
O217 C231 1.257 1_565 S
O218 Eu179 2.462 1_655 S
O218 C243 1.252 . S
O219 Eu179 2.373 . S
O219 C235 1.249 1_565 S
O220 Eu168 2.335 . S
O220 C235 1.264 . S
O221 Eu179 2.432 1_655 S
O221 C243 1.268 . S
O222 Eu179 2.291 . S
O222 C242 1.255 1_565 S
O223 Eu168 2.372 . S
O223 C242 1.257 . S
C224 O213 1.249 . S
C224 O214 1.264 1_545 S
C225 C228 1.382 . S
C225 C230 1.390 . S
C225 C232 1.506 . S
C226 C227 1.398 . S
C226 C230 1.392 . S
C227 C226 1.398 . S
C227 C229 1.372 . S
C227 H244 0.931 . S
C228 C225 1.382 . S
C228 C229 1.390 . S
C228 H245 0.931 . S
C229 C227 1.372 . S
C229 C228 1.390 . S
C229 H246 0.929 . S
C230 C225 1.390 . S
C230 C226 1.392 . S
C230 H247 0.930 . S
C231 O216 1.255 . S
C231 O217 1.257 1_545 S
C232 Eu168 2.787 . S
C232 O212 1.252 . S
C232 O215 1.268 . S
C232 C225 1.506 . S
C233 C200 1.439 1_655 S
C233 H210 0.931 . S
C233 C234 1.374 . S
C234 C205 1.387 . S
C234 H211 0.931 . S
C234 C233 1.374 . S
C235 O219 1.249 1_545 S
C235 O220 1.264 . S
C236 C239 1.382 . S
C236 C240 1.390 . S
C236 C243 1.506 . S
C237 C238 1.398 . S
C237 C240 1.392 . S
C238 C237 1.398 . S
C238 C241 1.372 . S
C238 H248 0.931 . S
C239 C236 1.382 . S
C239 C241 1.390 . S
C239 H249 0.931 . S
C240 C236 1.390 . S
C240 C237 1.392 . S
C240 H250 0.930 . S
C241 C238 1.372 . S
C241 C239 1.390 . S
C241 H251 0.929 . S
C242 O222 1.255 1_545 S
C242 O223 1.257 . S
C243 Eu179 2.787 1_655 S
C243 O218 1.252 . S
C243 O221 1.268 . S
C243 C236 1.506 . S
H244 C227 0.931 . S
H245 C228 0.931 . S
H246 C229 0.929 . S
H247 C230 0.930 . S
H248 C238 0.931 . S
H249 C239 0.931 . S
H250 C240 0.930 . S
H251 C241 0.929 . S
H252 C258 0.930 . S
H253 C262 0.930 . S
H254 C267 0.929 . S
H255 C265 0.929 . S
H256 C260 0.929 . S
H257 C266 0.929 . S
C258 H252 0.930 . S
C258 C259 1.367 1_556 S
C258 C266 1.378 . S
C259 C258 1.367 1_554 S
C259 C267 1.433 1_655 S
C260 H256 0.929 . S
C260 C262 1.378 . S
C260 C264 1.350 . S
C261 C264 1.463 1_655 S
C261 C266 1.350 1_554 S
C261 N269 1.427 1_655 S
C262 H253 0.930 . S
C262 C260 1.378 . S
C262 C263 1.367 . S
C263 C262 1.367 . S
C263 C265 1.433 1_454 S
C264 C260 1.350 . S
C264 C261 1.463 1_455 S
C264 N268 1.427 1_454 S
C265 H255 0.929 . S
C265 C263 1.433 1_656 S
C265 N268 1.384 . S
C266 H257 0.929 . S
C266 C258 1.378 . S
C266 C261 1.350 1_556 S
C267 H254 0.929 . S
C267 C259 1.433 1_455 S
C267 N269 1.384 . S
N268 C264 1.427 1_656 S
N268 C265 1.384 . S
N269 C261 1.427 1_455 S
N269 C267 1.384 . S
H270 C276 0.930 . S
H271 C280 0.930 . S
H272 C285 0.929 . S
H273 C283 0.929 . S
H274 C278 0.929 . S
H275 C284 0.929 . S
C276 H270 0.930 . S
C276 C277 1.367 . S
C276 C284 1.378 . S
C277 C276 1.367 . S
C277 C285 1.433 . S
C278 H274 0.929 . S
C278 C280 1.378 . S
C278 C282 1.350 . S
C279 C282 1.463 . S
C279 C284 1.350 . S
C279 N287 1.427 . S
C280 H271 0.930 . S
C280 C278 1.378 . S
C280 C281 1.367 . S
C281 C280 1.367 . S
C281 C283 1.433 . S
C282 C278 1.350 . S
C282 C279 1.463 . S
C282 N286 1.427 . S
C283 H273 0.929 . S
C283 C281 1.433 . S
C283 N286 1.384 . S
C284 H275 0.929 . S
C284 C276 1.378 . S
C284 C279 1.350 . S
C285 H272 0.929 . S
C285 C277 1.433 . S
C285 N287 1.384 . S
N286 C282 1.427 . S
N286 C283 1.384 . S
N287 C279 1.427 . S
N287 C285 1.384 . S
H288 C294 0.930 . S
H289 C298 0.930 . S
H290 C303 0.929 . S
H291 C301 0.929 . S
H292 C296 0.929 . S
H293 C302 0.929 . S
C294 H288 0.930 . S
C294 C295 1.367 . S
C294 C302 1.378 . S
C295 C294 1.367 . S
C295 C303 1.433 . S
C296 H292 0.929 . S
C296 C298 1.378 . S
C296 C300 1.350 . S
C297 C300 1.463 . S
C297 C302 1.350 . S
C297 N305 1.427 . S
C298 H289 0.930 . S
C298 C296 1.378 . S
C298 C299 1.367 . S
C299 C298 1.367 . S
C299 C301 1.433 . S
C300 C296 1.350 . S
C300 C297 1.463 . S
C300 N304 1.427 . S
C301 H291 0.929 . S
C301 C299 1.433 . S
C301 N304 1.384 . S
C302 H293 0.929 . S
C302 C294 1.378 . S
C302 C297 1.350 . S
C303 H290 0.929 . S
C303 C295 1.433 . S
C303 N305 1.384 . S
N304 C300 1.427 . S
N304 C301 1.384 . S
N305 C297 1.427 . S
N305 C303 1.384 . S
H306 C312 0.930 . S
H307 C316 0.930 . S
H308 C321 0.929 . S
H309 C319 0.929 . S
H310 C314 0.929 . S
H311 C320 0.929 . S
C312 H306 0.930 . S
C312 C313 1.367 . S
C312 C320 1.378 . S
C313 C312 1.367 . S
C313 C321 1.433 1_545 S
C314 H310 0.929 . S
C314 C316 1.378 . S
C314 C318 1.350 1_565 S
C315 C318 1.463 . S
C315 C320 1.350 . S
C315 N323 1.427 1_545 S
C316 H307 0.930 . S
C316 C314 1.378 . S
C316 C317 1.367 1_565 S
C317 C316 1.367 1_545 S
C317 C319 1.433 . S
C318 C314 1.350 1_545 S
C318 C315 1.463 . S
C318 N322 1.427 . S
C319 H309 0.929 . S
C319 C317 1.433 . S
C319 N322 1.384 . S
C320 H311 0.929 . S
C320 C312 1.378 . S
C320 C315 1.350 . S
C321 H308 0.929 . S
C321 C313 1.433 1_565 S
C321 N323 1.384 . S
N322 C318 1.427 . S
N322 C319 1.384 . S
N323 C315 1.427 1_565 S
N323 C321 1.384 . S
H324 C330 0.930 . S
H325 C334 0.930 . S
H326 C339 0.929 . S
H327 C337 0.929 . S
H328 C332 0.929 . S
H329 C338 0.929 . S
C330 H324 0.930 . S
C330 C331 1.367 1_556 S
C330 C338 1.378 . S
C331 C330 1.367 1_554 S
C331 C339 1.433 . S
C332 H328 0.929 . S
C332 C334 1.378 . S
C332 C336 1.350 . S
C333 C336 1.463 . S
C333 C338 1.350 1_554 S
C333 N341 1.427 . S
C334 H325 0.930 . S
C334 C332 1.378 . S
C334 C335 1.367 1_554 S
C335 C334 1.367 1_556 S
C335 C337 1.433 . S
C336 C332 1.350 . S
C336 C333 1.463 . S
C336 N340 1.427 1_554 S
C337 H327 0.929 . S
C337 C335 1.433 . S
C337 N340 1.384 . S
C338 H329 0.929 . S
C338 C330 1.378 . S
C338 C333 1.350 1_556 S
C339 H326 0.929 . S
C339 C331 1.433 . S
C339 N341 1.384 . S
N340 C336 1.427 1_556 S
N340 C337 1.384 . S
N341 C333 1.427 . S
N341 C339 1.384 . S
H342 C348 0.930 . S
H343 C352 0.930 . S
H344 C357 0.929 . S
H345 C355 0.929 . S
H346 C350 0.929 . S
H347 C356 0.929 . S
C348 H342 0.930 . S
C348 C349 1.367 1_455 S
C348 C356 1.378 . S
C349 C348 1.367 1_655 S
C349 C357 1.433 . S
C350 H346 0.929 . S
C350 C352 1.378 1_655 S
C350 C354 1.350 1_655 S
C351 C354 1.463 . S
C351 C356 1.350 . S
C351 N359 1.427 1_455 S
C352 H343 0.930 . S
C352 C350 1.378 1_455 S
C352 C353 1.367 . S
C353 C352 1.367 . S
C353 C355 1.433 . S
C354 C350 1.350 1_455 S
C354 C351 1.463 . S
C354 N358 1.427 . S
C355 H345 0.929 . S
C355 C353 1.433 . S
C355 N358 1.384 . S
C356 H347 0.929 . S
C356 C348 1.378 . S
C356 C351 1.350 . S
C357 H344 0.929 . S
C357 C349 1.433 . S
C357 N359 1.384 . S
N358 C354 1.427 . S
N358 C355 1.384 . S
N359 C351 1.427 1_655 S
N359 C357 1.384 . S
H360 C366 0.930 . S
H361 C370 0.930 . S
H362 C375 0.929 . S
H363 C373 0.929 . S
H364 C368 0.929 . S
H365 C374 0.929 . S
C366 H360 0.930 . S
C366 C367 1.367 1_655 S
C366 C374 1.378 . S
C367 C366 1.367 1_455 S
C367 C375 1.433 . S
C368 H364 0.929 . S
C368 C370 1.378 . S
C368 C372 1.346 1_455 S
C369 C372 1.463 1_455 S
C369 C374 1.350 1_455 S
C369 N377 1.427 . S
C370 H361 0.930 . S
C370 C368 1.378 . S
C370 C371 1.367 1_455 S
C371 C370 1.367 1_655 S
C371 C373 1.433 . S
C372 C368 1.346 1_655 S
C372 C369 1.463 1_655 S
C372 N376 1.431 . S
C373 H363 0.929 . S
C373 C371 1.433 . S
C373 N376 1.384 . S
C374 H365 0.929 . S
C374 C366 1.378 . S
C374 C369 1.350 1_655 S
C375 H362 0.929 . S
C375 C367 1.433 . S
C375 N377 1.384 . S
N376 C372 1.431 . S
N376 C373 1.384 . S
N377 C369 1.427 . S
N377 C375 1.384 . S
H378 C384 0.930 . S
H379 C388 0.930 . S
H380 C393 0.929 . S
H381 C391 0.929 1_655 S
H382 C386 0.929 . S
H383 C392 0.929 1_565 S
C384 H378 0.930 . S
C384 C385 1.367 1_655 S
C384 C392 1.378 . S
C385 C384 1.367 1_455 S
C385 C393 1.433 . S
C386 H382 0.929 . S
C386 C388 1.378 . S
C386 C390 1.350 . S
C387 C390 1.463 . S
C387 C392 1.350 1_455 S
C387 N395 1.427 . S
C388 H379 0.930 . S
C388 C386 1.378 . S
C388 C389 1.367 . S
C389 C388 1.367 . S
C389 C391 1.433 1_545 S
C390 C386 1.350 . S
C390 C387 1.463 . S
C390 N394 1.427 1_545 S
C391 H381 0.929 1_455 S
C391 C389 1.433 1_565 S
C391 N394 1.384 . S
C392 H383 0.929 1_545 S
C392 C384 1.378 . S
C392 C387 1.350 1_655 S
C393 H380 0.929 . S
C393 C385 1.433 . S
C393 N395 1.384 . S
N394 C390 1.427 1_565 S
N394 C391 1.384 . S
N395 C387 1.427 . S
N395 C393 1.384 . S
H396 C402 0.930 . S
H397 C406 0.930 . S
H398 C411 0.929 . S
H399 C409 0.929 1_655 S
H400 C404 0.929 . S
H401 C410 0.929 . S
C402 H396 0.930 . S
C402 C403 1.367 1_565 S
C402 C410 1.378 . S
C403 C402 1.367 1_545 S
C403 C411 1.433 . S
C404 H400 0.929 . S
C404 C406 1.378 . S
C404 C408 1.350 . S
C405 C408 1.463 . S
C405 C410 1.350 1_545 S
C405 N413 1.427 . S
C406 H397 0.930 . S
C406 C404 1.378 . S
C406 C407 1.367 . S
C407 C406 1.367 . S
C407 C409 1.433 1_545 S
C408 C404 1.350 . S
C408 C405 1.463 . S
C408 N412 1.427 1_545 S
C409 H399 0.929 1_455 S
C409 C407 1.433 1_565 S
C409 N412 1.384 . S
C410 H401 0.929 . S
C410 C402 1.378 . S
C410 C405 1.350 1_565 S
C411 H398 0.929 . S
C411 C403 1.433 . S
C411 N413 1.384 . S
N412 C408 1.427 1_565 S
N412 C409 1.384 . S
N413 C405 1.427 . S
N413 C411 1.384 . S
C259 C56 4.288 . S
C263 C67 4.288 . S
C277 C151 2.609 . S
C281 C140 2.609 . S
C295 C237 0.628 . S
C299 C226 0.628 . S
C313 C224 2.576 . S
C317 C235 2.576 . S
C331 C58 0.766 . S
C335 C69 0.766 1_556 S
C349 C153 1.200 . S
C353 C142 1.200 . S
C367 C158 1.518 . S
C371 C63 1.528 . S
C385 C147 1.602 . S
C389 C231 1.581 . S
C403 C242 1.574 . S
C407 C74 1.582 . S
