# Generated by pormake.
# Topology uml, (4)-cn, num edge types: 1
# Building blocks:
#     Node 0, Type 0, BuildingBlock: KOZSID_clean_sbu_0, # of connection points: 4
#     Node 1, Type 0, BuildingBlock: KOZSID_clean_sbu_0, # of connection points: 4
#     Node 2, Type 0, BuildingBlock: KOZSID_clean_sbu_0, # of connection points: 4
#     Node 3, Type 0, BuildingBlock: KOZSID_clean_sbu_0, # of connection points: 4
#     Node 4, Type 0, BuildingBlock: KOZSID_clean_sbu_0, # of connection points: 4
#     Node 5, Type 0, BuildingBlock: KOZSID_clean_sbu_0, # of connection points: 4
#     Node 6, Type 0, BuildingBlock: KOZSID_clean_sbu_0, # of connection points: 4
#     Node 7, Type 0, BuildingBlock: KOZSID_clean_sbu_0, # of connection points: 4
#     Node 8, Type 0, BuildingBlock: KOZSID_clean_sbu_0, # of connection points: 4
#     Node 9, Type 0, BuildingBlock: KOZSID_clean_sbu_0, # of connection points: 4
#     Node 10, Type 0, BuildingBlock: KOZSID_clean_sbu_0, # of connection points: 4
#     Node 11, Type 0, BuildingBlock: KOZSID_clean_sbu_0, # of connection points: 4
#     Node 12, Type 0, BuildingBlock: KOZSID_clean_sbu_0, # of connection points: 4
#     Node 13, Type 0, BuildingBlock: KOZSID_clean_sbu_0, # of connection points: 4
#     Node 14, Type 0, BuildingBlock: KOZSID_clean_sbu_0, # of connection points: 4
#     Node 15, Type 0, BuildingBlock: KOZSID_clean_sbu_0, # of connection points: 4
#     Node 16, Type 0, BuildingBlock: KOZSID_clean_sbu_0, # of connection points: 4
#     Node 17, Type 0, BuildingBlock: KOZSID_clean_sbu_0, # of connection points: 4
#     Node 18, Type 0, BuildingBlock: KOZSID_clean_sbu_0, # of connection points: 4
#     Node 19, Type 0, BuildingBlock: KOZSID_clean_sbu_0, # of connection points: 4
#     Node 20, Type 0, BuildingBlock: KOZSID_clean_sbu_0, # of connection points: 4
#     Node 21, Type 0, BuildingBlock: KOZSID_clean_sbu_0, # of connection points: 4
#     Node 22, Type 0, BuildingBlock: KOZSID_clean_sbu_0, # of connection points: 4
#     Node 23, Type 0, BuildingBlock: KOZSID_clean_sbu_0, # of connection points: 4
#     Node 24, Type 0, BuildingBlock: KOZSID_clean_sbu_0, # of connection points: 4
#     Node 25, Type 0, BuildingBlock: KOZSID_clean_sbu_0, # of connection points: 4
#     Node 26, Type 0, BuildingBlock: KOZSID_clean_sbu_0, # of connection points: 4
#     Node 27, Type 0, BuildingBlock: KOZSID_clean_sbu_0, # of connection points: 4
#     Node 28, Type 0, BuildingBlock: KOZSID_clean_sbu_0, # of connection points: 4
#     Node 29, Type 0, BuildingBlock: KOZSID_clean_sbu_0, # of connection points: 4
#     Node 30, Type 0, BuildingBlock: KOZSID_clean_sbu_0, # of connection points: 4
#     Node 31, Type 0, BuildingBlock: KOZSID_clean_sbu_0, # of connection points: 4
#     Node 32, Type 0, BuildingBlock: KOZSID_clean_sbu_0, # of connection points: 4
#     Node 33, Type 0, BuildingBlock: KOZSID_clean_sbu_0, # of connection points: 4
#     Node 34, Type 0, BuildingBlock: KOZSID_clean_sbu_0, # of connection points: 4
#     Node 35, Type 0, BuildingBlock: KOZSID_clean_sbu_0, # of connection points: 4
#     Edge 36, Type (0, 0), BuildingBlock: AJUNOK_clean_linker_0, # of connection points: 2
#     Edge 37, Type (0, 0), BuildingBlock: AJUNOK_clean_linker_0, # of connection points: 2
#     Edge 38, Type (0, 0), BuildingBlock: AJUNOK_clean_linker_0, # of connection points: 2
#     Edge 39, Type (0, 0), BuildingBlock: AJUNOK_clean_linker_0, # of connection points: 2
#     Edge 40, Type (0, 0), BuildingBlock: AJUNOK_clean_linker_0, # of connection points: 2
#     Edge 41, Type (0, 0), BuildingBlock: AJUNOK_clean_linker_0, # of connection points: 2
#     Edge 42, Type (0, 0), BuildingBlock: AJUNOK_clean_linker_0, # of connection points: 2
#     Edge 43, Type (0, 0), BuildingBlock: AJUNOK_clean_linker_0, # of connection points: 2
#     Edge 44, Type (0, 0), BuildingBlock: AJUNOK_clean_linker_0, # of connection points: 2
#     Edge 45, Type (0, 0), BuildingBlock: AJUNOK_clean_linker_0, # of connection points: 2
#     Edge 46, Type (0, 0), BuildingBlock: AJUNOK_clean_linker_0, # of connection points: 2
#     Edge 47, Type (0, 0), BuildingBlock: AJUNOK_clean_linker_0, # of connection points: 2
#     Edge 48, Type (0, 0), BuildingBlock: AJUNOK_clean_linker_0, # of connection points: 2
#     Edge 49, Type (0, 0), BuildingBlock: AJUNOK_clean_linker_0, # of connection points: 2
#     Edge 50, Type (0, 0), BuildingBlock: AJUNOK_clean_linker_0, # of connection points: 2
#     Edge 51, Type (0, 0), BuildingBlock: AJUNOK_clean_linker_0, # of connection points: 2
#     Edge 52, Type (0, 0), BuildingBlock: AJUNOK_clean_linker_0, # of connection points: 2
#     Edge 53, Type (0, 0), BuildingBlock: AJUNOK_clean_linker_0, # of connection points: 2
#     Edge 54, Type (0, 0), BuildingBlock: AJUNOK_clean_linker_0, # of connection points: 2
#     Edge 55, Type (0, 0), BuildingBlock: AJUNOK_clean_linker_0, # of connection points: 2
#     Edge 56, Type (0, 0), BuildingBlock: AJUNOK_clean_linker_0, # of connection points: 2
#     Edge 57, Type (0, 0), BuildingBlock: AJUNOK_clean_linker_0, # of connection points: 2
#     Edge 58, Type (0, 0), BuildingBlock: AJUNOK_clean_linker_0, # of connection points: 2
#     Edge 59, Type (0, 0), BuildingBlock: AJUNOK_clean_linker_0, # of connection points: 2
#     Edge 60, Type (0, 0), BuildingBlock: AJUNOK_clean_linker_0, # of connection points: 2
#     Edge 61, Type (0, 0), BuildingBlock: AJUNOK_clean_linker_0, # of connection points: 2
#     Edge 62, Type (0, 0), BuildingBlock: AJUNOK_clean_linker_0, # of connection points: 2
#     Edge 63, Type (0, 0), BuildingBlock: AJUNOK_clean_linker_0, # of connection points: 2
#     Edge 64, Type (0, 0), BuildingBlock: AJUNOK_clean_linker_0, # of connection points: 2
#     Edge 65, Type (0, 0), BuildingBlock: AJUNOK_clean_linker_0, # of connection points: 2
#     Edge 66, Type (0, 0), BuildingBlock: AJUNOK_clean_linker_0, # of connection points: 2
#     Edge 67, Type (0, 0), BuildingBlock: AJUNOK_clean_linker_0, # of connection points: 2
#     Edge 68, Type (0, 0), BuildingBlock: AJUNOK_clean_linker_0, # of connection points: 2
#     Edge 69, Type (0, 0), BuildingBlock: AJUNOK_clean_linker_0, # of connection points: 2
#     Edge 70, Type (0, 0), BuildingBlock: AJUNOK_clean_linker_0, # of connection points: 2
#     Edge 71, Type (0, 0), BuildingBlock: AJUNOK_clean_linker_0, # of connection points: 2
#     Edge 72, Type (0, 0), BuildingBlock: AJUNOK_clean_linker_0, # of connection points: 2
#     Edge 73, Type (0, 0), BuildingBlock: AJUNOK_clean_linker_0, # of connection points: 2
#     Edge 74, Type (0, 0), BuildingBlock: AJUNOK_clean_linker_0, # of connection points: 2
#     Edge 75, Type (0, 0), BuildingBlock: AJUNOK_clean_linker_0, # of connection points: 2
#     Edge 76, Type (0, 0), BuildingBlock: AJUNOK_clean_linker_0, # of connection points: 2
#     Edge 77, Type (0, 0), BuildingBlock: AJUNOK_clean_linker_0, # of connection points: 2
#     Edge 78, Type (0, 0), BuildingBlock: AJUNOK_clean_linker_0, # of connection points: 2
#     Edge 79, Type (0, 0), BuildingBlock: AJUNOK_clean_linker_0, # of connection points: 2
#     Edge 80, Type (0, 0), BuildingBlock: AJUNOK_clean_linker_0, # of connection points: 2
#     Edge 81, Type (0, 0), BuildingBlock: AJUNOK_clean_linker_0, # of connection points: 2
#     Edge 82, Type (0, 0), BuildingBlock: AJUNOK_clean_linker_0, # of connection points: 2
#     Edge 83, Type (0, 0), BuildingBlock: AJUNOK_clean_linker_0, # of connection points: 2
#     Edge 84, Type (0, 0), BuildingBlock: AJUNOK_clean_linker_0, # of connection points: 2
#     Edge 85, Type (0, 0), BuildingBlock: AJUNOK_clean_linker_0, # of connection points: 2
#     Edge 86, Type (0, 0), BuildingBlock: AJUNOK_clean_linker_0, # of connection points: 2
#     Edge 87, Type (0, 0), BuildingBlock: AJUNOK_clean_linker_0, # of connection points: 2
#     Edge 88, Type (0, 0), BuildingBlock: AJUNOK_clean_linker_0, # of connection points: 2
#     Edge 89, Type (0, 0), BuildingBlock: AJUNOK_clean_linker_0, # of connection points: 2
#     Edge 90, Type (0, 0), BuildingBlock: AJUNOK_clean_linker_0, # of connection points: 2
#     Edge 91, Type (0, 0), BuildingBlock: AJUNOK_clean_linker_0, # of connection points: 2
#     Edge 92, Type (0, 0), BuildingBlock: AJUNOK_clean_linker_0, # of connection points: 2
#     Edge 93, Type (0, 0), BuildingBlock: AJUNOK_clean_linker_0, # of connection points: 2
#     Edge 94, Type (0, 0), BuildingBlock: AJUNOK_clean_linker_0, # of connection points: 2
#     Edge 95, Type (0, 0), BuildingBlock: AJUNOK_clean_linker_0, # of connection points: 2
#     Edge 96, Type (0, 0), BuildingBlock: AJUNOK_clean_linker_0, # of connection points: 2
#     Edge 97, Type (0, 0), BuildingBlock: AJUNOK_clean_linker_0, # of connection points: 2
#     Edge 98, Type (0, 0), BuildingBlock: AJUNOK_clean_linker_0, # of connection points: 2
#     Edge 99, Type (0, 0), BuildingBlock: AJUNOK_clean_linker_0, # of connection points: 2
#     Edge 100, Type (0, 0), BuildingBlock: AJUNOK_clean_linker_0, # of connection points: 2
#     Edge 101, Type (0, 0), BuildingBlock: AJUNOK_clean_linker_0, # of connection points: 2
#     Edge 102, Type (0, 0), BuildingBlock: AJUNOK_clean_linker_0, # of connection points: 2
#     Edge 103, Type (0, 0), BuildingBlock: AJUNOK_clean_linker_0, # of connection points: 2
#     Edge 104, Type (0, 0), BuildingBlock: AJUNOK_clean_linker_0, # of connection points: 2
#     Edge 105, Type (0, 0), BuildingBlock: AJUNOK_clean_linker_0, # of connection points: 2
#     Edge 106, Type (0, 0), BuildingBlock: AJUNOK_clean_linker_0, # of connection points: 2
#     Edge 107, Type (0, 0), BuildingBlock: AJUNOK_clean_linker_0, # of connection points: 2
# Relax obj value: 0.047
# Max RMSD: 0.158
# Mean RMSD: 0.154
data_MOF--net-uml--node1-KOZSID_clean_sbu_0--edge1-AJUNOK_clean_linker_0
_symmetry_space_group_name_H-M    P1
_symmetry_Int_Tables_number       1
_symmetry_cell_setting            triclinic
loop_
_symmetry_equiv_pos_as_xyz
'x, y, z'
_cell_length_a     81.375869
_cell_length_b     81.40145
_cell_length_c     30.339834
_cell_angle_alpha  89.936424
_cell_angle_beta   90.055308
_cell_angle_gamma 120.00073
loop_
_atom_site_label
_atom_site_type_symbol
_atom_site_fract_x
_atom_site_fract_y
_atom_site_fract_z
_atom_type_partial_charge
C0 C 0.38044 0.08379 0.16812 0.0
C1 C 0.39938 0.08853 0.16707 0.0
C2 C 0.40966 0.10656 0.18353 0.0
C3 C 0.39654 0.11189 0.19345 0.0
N4 N 0.37862 0.09834 0.18428 0.0
Co5 Co 0.35559 0.10055 0.19261 0.0
N6 N 0.37075 0.12874 0.19402 0.0
C7 C 0.38959 0.13908 0.20104 0.0
C8 C 0.39631 0.15824 0.20136 0.0
C9 C 0.3807 0.16014 0.19461 0.0
C10 C 0.36524 0.14192 0.19052 0.0
N11 N 0.33265 0.10284 0.20225 0.0
C12 C 0.33028 0.11822 0.19946 0.0
C13 C 0.31183 0.11331 0.21056 0.0
C14 C 0.30257 0.09436 0.22139 0.0
C15 C 0.31576 0.08867 0.21625 0.0
N16 N 0.34076 0.07239 0.18983 0.0
C17 C 0.32289 0.06147 0.2043 0.0
C18 C 0.31611 0.04249 0.19648 0.0
C19 C 0.33068 0.04152 0.17588 0.0
C20 C 0.34558 0.05998 0.17216 0.0
N21 N 0.35784 0.09948 0.25739 0.0
C22 C 0.35285 0.09404 0.34943 0.0
C23 C 0.35585 0.08162 0.32304 0.0
C24 C 0.35864 0.08476 0.27727 0.0
C25 C 0.35329 0.10966 0.3289 0.0
C26 C 0.35577 0.11211 0.28329 0.0
N27 N 0.35237 0.10109 0.12858 0.0
C28 C 0.33094 0.09023 0.06674 0.0
C29 C 0.34604 0.09882 0.03705 0.0
C30 C 0.36451 0.10932 0.05442 0.0
C31 C 0.36736 0.11041 0.10037 0.0
C32 C 0.33439 0.09118 0.11177 0.0
H33 H 0.38164 0.11848 0.11305 0.0
H34 H 0.32232 0.08355 0.13287 0.0
H35 H 0.36066 0.07483 0.25774 0.0
H36 H 0.35501 0.12379 0.26893 0.0
C37 C 0.40072 0.13044 0.20205 0.0
C38 C 0.36455 0.06527 0.15476 0.0
C39 C 0.34545 0.13778 0.18936 0.0
C40 C 0.31217 0.06985 0.2175 0.0
H41 H 0.40525 0.08004 0.15512 0.0
H42 H 0.42496 0.11514 0.18552 0.0
H43 H 0.41085 0.16952 0.20538 0.0
H44 H 0.38067 0.17341 0.19411 0.0
H45 H 0.30575 0.12246 0.21112 0.0
H46 H 0.28781 0.08567 0.23059 0.0
H47 H 0.30201 0.03082 0.20321 0.0
H48 H 0.33043 0.02874 0.16495 0.0
H49 H 0.35586 0.06946 0.33758 0.0
H50 H 0.3509 0.11957 0.34774 0.0
H51 H 0.31637 0.08268 0.05541 0.0
H52 H 0.37667 0.11638 0.03277 0.0
C53 C 0.92732 0.29883 0.1679 0.0
C54 C 0.92262 0.31305 0.16819 0.0
C55 C 0.90461 0.30514 0.18494 0.0
C56 C 0.89927 0.28659 0.19371 0.0
N57 N 0.91279 0.28232 0.18353 0.0
Co58 Co 0.91062 0.25704 0.19009 0.0
N59 N 0.88243 0.24399 0.19183 0.0
C60 C 0.87211 0.25237 0.20032 0.0
C61 C 0.85293 0.2399 0.20058 0.0
C62 C 0.85104 0.22251 0.19217 0.0
C63 C 0.86926 0.22535 0.1872 0.0
N64 N 0.90836 0.23174 0.1976 0.0
C65 C 0.89302 0.21403 0.1934 0.0
C66 C 0.89797 0.20037 0.20276 0.0
C67 C 0.91687 0.2099 0.21403 0.0
C68 C 0.92252 0.22884 0.21079 0.0
N69 N 0.93878 0.2704 0.18732 0.0
C70 C 0.9497 0.26336 0.20124 0.0
C71 C 0.9687 0.27572 0.194 0.0
C72 C 0.96968 0.29147 0.1744 0.0
C73 C 0.95119 0.28784 0.17064 0.0
N74 N 0.91177 0.25965 0.255 0.0
C75 C 0.91848 0.25855 0.346 0.0
C76 C 0.93015 0.2747 0.32057 0.0
C77 C 0.92646 0.27504 0.27528 0.0
C78 C 0.9024 0.24384 0.32553 0.0
C79 C 0.89938 0.2446 0.28038 0.0
N80 N 0.90998 0.25396 0.1259 0.0
C81 C 0.92108 0.24447 0.06266 0.0
C82 C 0.9111 0.24983 0.03413 0.0
C83 C 0.90032 0.25725 0.05275 0.0
C84 C 0.89984 0.25906 0.09881 0.0
C85 C 0.92047 0.24677 0.10789 0.0
H86 H 0.8915 0.26477 0.1125 0.0
H87 H 0.92873 0.2428 0.12822 0.0
H88 H 0.9361 0.28734 0.25624 0.0
H89 H 0.88751 0.23239 0.26575 0.0
C90 C 0.88073 0.27213 0.20236 0.0
C91 C 0.94585 0.30161 0.15411 0.0
C92 C 0.87344 0.20978 0.18382 0.0
C93 C 0.94133 0.24409 0.21302 0.0
H94 H 0.93116 0.32756 0.15706 0.0
H95 H 0.89606 0.31186 0.18796 0.0
H96 H 0.84165 0.24309 0.20551 0.0
H97 H 0.83777 0.2092 0.19106 0.0
H98 H 0.88884 0.18512 0.20195 0.0
H99 H 0.92556 0.20372 0.22227 0.0
H100 H 0.98039 0.27328 0.2004 0.0
H101 H 0.98247 0.30415 0.16414 0.0
H102 H 0.94254 0.28663 0.335 0.0
H103 H 0.89242 0.23143 0.34399 0.0
H104 H 0.92941 0.23847 0.05016 0.0
H105 H 0.89262 0.26193 0.03203 0.0
C106 C 0.71398 0.6298 0.16321 0.0
C107 C 0.7 0.61078 0.16327 0.0
C108 C 0.70806 0.60094 0.18071 0.0
C109 C 0.72646 0.6144 0.19014 0.0
N110 N 0.73051 0.6321 0.17977 0.0
Co111 Co 0.75556 0.65549 0.18736 0.0
N112 N 0.76905 0.64076 0.1905 0.0
C113 C 0.7608 0.62203 0.19871 0.0
C114 C 0.77348 0.6156 0.20049 0.0
C115 C 0.79087 0.63129 0.19348 0.0
C116 C 0.78784 0.64652 0.18773 0.0
N117 N 0.78063 0.67879 0.19597 0.0
C118 C 0.79854 0.68148 0.1936 0.0
C119 C 0.81183 0.7002 0.20304 0.0
C120 C 0.80187 0.70929 0.21268 0.0
C121 C 0.78306 0.69575 0.20838 0.0
N122 N 0.74174 0.66982 0.18307 0.0
C123 C 0.7484 0.68776 0.19663 0.0
C124 C 0.73586 0.69409 0.18832 0.0
C125 C 0.72039 0.67914 0.16837 0.0
C126 C 0.72435 0.66449 0.16547 0.0
N127 N 0.75234 0.65392 0.25227 0.0
C128 C 0.75237 0.66112 0.3436 0.0
C129 C 0.73655 0.65687 0.31697 0.0
C130 C 0.73672 0.65306 0.27167 0.0
C131 C 0.76749 0.66028 0.32373 0.0
C132 C 0.76722 0.65673 0.27854 0.0
N133 N 0.75928 0.65811 0.12321 0.0
C134 C 0.76929 0.67889 0.06005 0.0
C135 C 0.76429 0.66363 0.03174 0.0
C136 C 0.75661 0.64538 0.05004 0.0
C137 C 0.75443 0.64295 0.09606 0.0
C138 C 0.76655 0.67584 0.10522 0.0
H139 H 0.7487 0.62887 0.10968 0.0
H140 H 0.77015 0.68798 0.12546 0.0
H141 H 0.7246 0.65044 0.25192 0.0
H142 H 0.77967 0.65735 0.26469 0.0
C143 C 0.74105 0.61064 0.19971 0.0
C144 C 0.71091 0.64529 0.14874 0.0
C145 C 0.80332 0.66638 0.1858 0.0
C146 C 0.76755 0.69893 0.20921 0.0
H147 H 0.68555 0.6046 0.15154 0.0
H148 H 0.70156 0.5857 0.1838 0.0
H149 H 0.77043 0.60119 0.20573 0.0
H150 H 0.8043 0.63155 0.19399 0.0
H151 H 0.82711 0.70657 0.20344 0.0
H152 H 0.8077 0.72414 0.22064 0.0
H153 H 0.738 0.70813 0.19428 0.0
H154 H 0.70767 0.679 0.1573 0.0
H155 H 0.72448 0.65735 0.33036 0.0
H156 H 0.77985 0.66295 0.34274 0.0
H157 H 0.77491 0.69314 0.04722 0.0
H158 H 0.75246 0.63318 0.02902 0.0
C159 C 0.08756 0.37898 0.38099 0.0
C160 C 0.09272 0.39804 0.38179 0.0
C161 C 0.11066 0.40797 0.36475 0.0
C162 C 0.11562 0.39457 0.35499 0.0
N163 N 0.10192 0.3768 0.36488 0.0
Co164 Co 0.1039 0.35355 0.35816 0.0
N165 N 0.13211 0.3685 0.35542 0.0
C166 C 0.14252 0.38722 0.34704 0.0
C167 C 0.16166 0.3938 0.3462 0.0
C168 C 0.16347 0.37821 0.35405 0.0
C169 C 0.14523 0.36291 0.3593 0.0
N170 N 0.10594 0.33038 0.35047 0.0
C171 C 0.12128 0.32792 0.35342 0.0
C172 C 0.11618 0.30931 0.34375 0.0
C173 C 0.09715 0.29999 0.33371 0.0
C174 C 0.09161 0.31333 0.33787 0.0
N175 N 0.07573 0.33892 0.36198 0.0
C176 C 0.06466 0.32089 0.34867 0.0
C177 C 0.04572 0.31436 0.35639 0.0
C178 C 0.04491 0.32925 0.37564 0.0
C179 C 0.06344 0.3441 0.37874 0.0
N180 N 0.10236 0.35491 0.29328 0.0
C181 C 0.09558 0.34783 0.20195 0.0
C182 C 0.08386 0.35198 0.22814 0.0
C183 C 0.08763 0.35572 0.27349 0.0
C184 C 0.11148 0.34868 0.22224 0.0
C185 C 0.11457 0.35217 0.26745 0.0
N186 N 0.10496 0.35126 0.42234 0.0
C187 C 0.09423 0.33099 0.48631 0.0
C188 C 0.10443 0.34651 0.51403 0.0
C189 C 0.11512 0.36458 0.49495 0.0
C190 C 0.11533 0.36663 0.44888 0.0
C191 C 0.09456 0.33366 0.44095 0.0
H192 H 0.1237 0.38059 0.43473 0.0
H193 H 0.08608 0.32136 0.42104 0.0
H194 H 0.07804 0.3583 0.29293 0.0
H195 H 0.12638 0.35161 0.28171 0.0
C196 C 0.13403 0.39846 0.34579 0.0
C197 C 0.06881 0.36334 0.39435 0.0
C198 C 0.14096 0.34313 0.36221 0.0
C199 C 0.07285 0.30989 0.33656 0.0
H200 H 0.08463 0.40431 0.39404 0.0
H201 H 0.11946 0.42323 0.36237 0.0
H202 H 0.17299 0.40825 0.34127 0.0
H203 H 0.1767 0.37807 0.35464 0.0
H204 H 0.12528 0.30315 0.34355 0.0
H205 H 0.08833 0.28513 0.32556 0.0
H206 H 0.03395 0.30023 0.35041 0.0
H207 H 0.03219 0.32925 0.38603 0.0
H208 H 0.07135 0.35148 0.21436 0.0
H209 H 0.12127 0.34608 0.2035 0.0
H210 H 0.08563 0.31685 0.49972 0.0
H211 H 0.12327 0.37695 0.51541 0.0
C212 C 0.63618 0.71236 0.38453 0.0
C213 C 0.6173 0.69806 0.38395 0.0
C214 C 0.60726 0.70566 0.36508 0.0
C215 C 0.6205 0.72412 0.35526 0.0
N216 N 0.63822 0.72854 0.36667 0.0
Co217 Co 0.66138 0.75365 0.35923 0.0
N218 N 0.64636 0.76674 0.35545 0.0
C219 C 0.62768 0.75832 0.34633 0.0
C220 C 0.62108 0.77087 0.34462 0.0
C221 C 0.63661 0.78831 0.35266 0.0
C222 C 0.65191 0.78543 0.35888 0.0
N223 N 0.68453 0.77875 0.35091 0.0
C224 C 0.68699 0.79652 0.35378 0.0
C225 C 0.70564 0.81002 0.34424 0.0
C226 C 0.71494 0.80029 0.33431 0.0
C227 C 0.70157 0.78142 0.33843 0.0
N228 N 0.67603 0.74023 0.36408 0.0
C229 C 0.69397 0.74695 0.35046 0.0
C230 C 0.70052 0.73467 0.35982 0.0
C231 C 0.68572 0.71935 0.38062 0.0
C232 C 0.67094 0.72314 0.3829 0.0
N233 N 0.65995 0.75037 0.29453 0.0
C234 C 0.66441 0.74923 0.20259 0.0
C235 C 0.66127 0.73387 0.22946 0.0
C236 C 0.65878 0.7346 0.27525 0.0
C237 C 0.66462 0.76481 0.22262 0.0
C238 C 0.66243 0.76512 0.26821 0.0
N239 N 0.66361 0.75739 0.42314 0.0
C240 C 0.68378 0.76754 0.48718 0.0
C241 C 0.66818 0.76244 0.51445 0.0
C242 C 0.65012 0.75468 0.49527 0.0
C243 C 0.64816 0.75249 0.44931 0.0
C244 C 0.68119 0.76477 0.44193 0.0
H245 H 0.63421 0.7467 0.43495 0.0
H246 H 0.69353 0.76844 0.42225 0.0
H247 H 0.65652 0.72266 0.29522 0.0
H248 H 0.66357 0.77779 0.28215 0.0
C249 C 0.61649 0.73851 0.345 0.0
C250 C 0.6519 0.70999 0.40075 0.0
C251 C 0.67171 0.80094 0.36209 0.0
C252 C 0.70501 0.76608 0.33762 0.0
H253 H 0.61136 0.68372 0.39631 0.0
H254 H 0.59201 0.69886 0.36144 0.0
H255 H 0.60666 0.7677 0.33893 0.0
H256 H 0.63674 0.80167 0.35267 0.0
H257 H 0.71182 0.82528 0.34402 0.0
H258 H 0.72982 0.80632 0.32634 0.0
H259 H 0.71465 0.73696 0.35427 0.0
H260 H 0.6858 0.7069 0.39287 0.0
H261 H 0.66084 0.72146 0.21526 0.0
H262 H 0.66717 0.77707 0.20332 0.0
H263 H 0.6979 0.77325 0.50089 0.0
H264 H 0.6377 0.75049 0.51557 0.0
C265 C 0.30041 0.92189 0.38297 0.0
C266 C 0.31412 0.9165 0.382 0.0
C267 C 0.30567 0.89868 0.364 0.0
C268 C 0.28732 0.89414 0.35517 0.0
N269 N 0.28368 0.90798 0.36648 0.0
Co270 Co 0.2589 0.90697 0.36017 0.0
N271 N 0.2449 0.8788 0.35536 0.0
C272 C 0.25275 0.86814 0.34506 0.0
C273 C 0.23974 0.84914 0.34239 0.0
C274 C 0.22258 0.84774 0.35109 0.0
C275 C 0.22608 0.86605 0.35872 0.0
N276 N 0.23408 0.90589 0.3542 0.0
C277 C 0.21607 0.89091 0.35767 0.0
C278 C 0.20293 0.89676 0.3506 0.0
C279 C 0.21308 0.91587 0.34147 0.0
C280 C 0.23184 0.92073 0.34372 0.0
N281 N 0.27335 0.93515 0.36433 0.0
C282 C 0.267 0.94676 0.35124 0.0
C283 C 0.28 0.96555 0.35897 0.0
C284 C 0.29543 0.96566 0.37802 0.0
C285 C 0.29097 0.94689 0.38105 0.0
N286 N 0.2617 0.90897 0.29533 0.0
C287 C 0.26234 0.91592 0.20405 0.0
C288 C 0.27833 0.92693 0.23047 0.0
C289 C 0.27782 0.92305 0.27587 0.0
C290 C 0.24648 0.90079 0.22397 0.0
C291 C 0.2464 0.89763 0.26929 0.0
N292 N 0.25556 0.90536 0.42454 0.0
C293 C 0.25042 0.91848 0.49075 0.0
C294 C 0.24883 0.90341 0.51639 0.0
C295 C 0.25073 0.8892 0.49418 0.0
C296 C 0.25477 0.89081 0.44878 0.0
C297 C 0.25294 0.91875 0.44539 0.0
H298 H 0.25679 0.88005 0.43323 0.0
H299 H 0.2526 0.92994 0.42741 0.0
H300 H 0.29022 0.93192 0.29549 0.0
H301 H 0.23352 0.88644 0.28338 0.0
C302 C 0.27247 0.8761 0.34424 0.0
C303 C 0.30398 0.94061 0.39764 0.0
C304 C 0.21101 0.87086 0.36399 0.0
C305 C 0.24764 0.93921 0.34132 0.0
H306 H 0.32866 0.92453 0.39326 0.0
H307 H 0.31192 0.88976 0.35985 0.0
H308 H 0.24244 0.83763 0.33586 0.0
H309 H 0.209 0.83474 0.35081 0.0
H310 H 0.18763 0.88809 0.35126 0.0
H311 H 0.20741 0.92515 0.33491 0.0
H312 H 0.27812 0.97766 0.35362 0.0
H313 H 0.30839 0.97805 0.3887 0.0
H314 H 0.29105 0.93855 0.21627 0.0
H315 H 0.23383 0.89186 0.20492 0.0
H316 H 0.24963 0.93021 0.5052 0.0
H317 H 0.24878 0.87664 0.51086 0.0
C318 C 0.66662 0.94805 0.88556 0.0
C319 C 0.68177 0.96644 0.88323 0.0
C320 C 0.69647 0.96538 0.8637 0.0
C321 C 0.68952 0.94644 0.85521 0.0
N322 N 0.67137 0.93554 0.8681 0.0
Co323 Co 0.65616 0.9073 0.86361 0.0
N324 N 0.67891 0.90484 0.85183 0.0
C325 C 0.69595 0.91913 0.83881 0.0
C326 C 0.70898 0.91337 0.83195 0.0
C327 C 0.69953 0.89427 0.84064 0.0
C328 C 0.68111 0.88932 0.85212 0.0
N329 N 0.64083 0.87901 0.86267 0.0
C330 C 0.64632 0.86573 0.86414 0.0
C331 C 0.63072 0.84753 0.86204 0.0
C332 C 0.615 0.84946 0.8587 0.0
C333 C 0.6218 0.86864 0.85899 0.0
N334 N 0.63327 0.90973 0.87327 0.0
C335 C 0.6152 0.8961 0.86565 0.0
C336 C 0.60224 0.90163 0.87547 0.0
C337 C 0.61273 0.91988 0.89035 0.0
C338 C 0.63163 0.92451 0.88858 0.0
N339 N 0.6535 0.90874 0.79843 0.0
C340 C 0.66006 0.91281 0.70567 0.0
C341 C 0.65061 0.8949 0.72622 0.0
C342 C 0.64854 0.89329 0.77205 0.0
C343 C 0.66351 0.92831 0.73271 0.0
C344 C 0.65916 0.92577 0.77791 0.0
N345 N 0.65966 0.90628 0.92726 0.0
C346 C 0.64748 0.89709 1.00102 0.0
C347 C 0.66596 0.90687 1.01814 0.0
C348 C 0.68111 0.91623 0.98903 0.0
C349 C 0.67768 0.91585 0.94405 0.0
C350 C 0.64464 0.89679 0.95531 0.0
H351 H 0.68975 0.92368 0.92308 0.0
H352 H 0.63034 0.88906 0.94273 0.0
H353 H 0.64332 0.87933 0.78517 0.0
H354 H 0.66131 0.93803 0.79603 0.0
C355 C 0.69995 0.93804 0.84039 0.0
C356 C 0.64755 0.94308 0.90141 0.0
C357 C 0.66602 0.8697 0.86161 0.0
C358 C 0.61079 0.87738 0.85865 0.0
H359 H 0.68207 0.97924 0.89413 0.0
H360 H 0.71067 0.97699 0.85761 0.0
H361 H 0.7238 0.92213 0.82328 0.0
H362 H 0.70553 0.88506 0.8388 0.0
H363 H 0.63072 0.83424 0.86142 0.0
H364 H 0.60036 0.83821 0.85641 0.0
H365 H 0.58692 0.89306 0.87454 0.0
H366 H 0.60704 0.92858 0.90197 0.0
H367 H 0.64487 0.88183 0.70804 0.0
H368 H 0.66997 0.9426 0.72009 0.0
H369 H 0.63538 0.88972 1.02273 0.0
H370 H 0.69557 0.92424 1.00105 0.0
C371 C 0.0622 0.7212 0.88707 0.0
C372 C 0.04372 0.71736 0.88121 0.0
C373 C 0.04484 0.73285 0.85997 0.0
C374 C 0.06391 0.74528 0.85394 0.0
N375 N 0.07477 0.73856 0.87019 0.0
Co376 Co 0.103 0.75217 0.86957 0.0
N377 N 0.10513 0.77725 0.85825 0.0
C378 C 0.09097 0.77975 0.84307 0.0
C379 C 0.0965 0.79855 0.83706 0.0
C380 C 0.11536 0.80843 0.8485 0.0
C381 C 0.12041 0.79511 0.86069 0.0
N382 N 0.13127 0.76548 0.86991 0.0
C383 C 0.14434 0.78426 0.87229 0.0
C384 C 0.16264 0.78713 0.86957 0.0
C385 C 0.16096 0.76965 0.86481 0.0
C386 C 0.14182 0.75709 0.86486 0.0
N387 N 0.10101 0.72712 0.87991 0.0
C388 C 0.11483 0.72293 0.87285 0.0
C389 C 0.10954 0.70455 0.88341 0.0
C390 C 0.09122 0.69663 0.89802 0.0
C391 C 0.08631 0.71067 0.8953 0.0
N392 N 0.10271 0.74851 0.80509 0.0
C393 C 0.09691 0.74795 0.71317 0.0
C394 C 0.11261 0.76318 0.73348 0.0
C395 C 0.11523 0.76321 0.77904 0.0
C396 C 0.085 0.73227 0.7397 0.0
C397 C 0.08831 0.73272 0.78535 0.0
N398 N 0.10267 0.75622 0.93331 0.0
C399 C 0.11114 0.75398 1.00844 0.0
C400 C 0.09938 0.76079 1.02418 0.0
C401 C 0.08983 0.76569 0.99333 0.0
C402 C 0.09155 0.76321 0.94856 0.0
C403 C 0.11258 0.75178 0.96279 0.0
H404 H 0.08359 0.76685 0.92634 0.0
H405 H 0.1215 0.74634 0.95134 0.0
H406 H 0.12685 0.77573 0.79324 0.0
H407 H 0.07854 0.72072 0.80499 0.0
C408 C 0.07226 0.76436 0.84066 0.0
C409 C 0.0674 0.70768 0.90586 0.0
C410 C 0.14008 0.7998 0.87085 0.0
C411 C 0.13339 0.73736 0.86494 0.0
H412 H 0.03085 0.70469 0.89114 0.0
H413 H 0.03317 0.73507 0.85159 0.0
H414 H 0.08777 0.80442 0.82663 0.0
H415 H 0.12443 0.82369 0.84734 0.0
H416 H 0.17587 0.80049 0.86951 0.0
H417 H 0.17234 0.76647 0.86207 0.0
H418 H 0.11826 0.69796 0.88282 0.0
H419 H 0.0826 0.68221 0.90967 0.0
H420 H 0.12255 0.77543 0.7145 0.0
H421 H 0.07263 0.72012 0.72589 0.0
H422 H 0.11891 0.75011 0.03118 0.0
H423 H 0.08107 0.77155 1.00363 0.0
C424 C 0.29159 0.34411 0.88098 0.0
C425 C 0.29533 0.32931 0.87809 0.0
C426 C 0.27976 0.31446 0.85819 0.0
C427 C 0.26739 0.321 0.84993 0.0
N428 N 0.27425 0.33897 0.86344 0.0
Co429 Co 0.2607 0.35357 0.85968 0.0
N430 N 0.23551 0.3304 0.85163 0.0
C431 C 0.23283 0.31338 0.83896 0.0
C432 C 0.21396 0.29999 0.83485 0.0
C433 C 0.20421 0.30926 0.84492 0.0
C434 C 0.21769 0.3279 0.85447 0.0
N435 N 0.24745 0.36853 0.85705 0.0
C436 C 0.22872 0.36293 0.8605 0.0
C437 C 0.22582 0.37825 0.85517 0.0
C438 C 0.24325 0.39385 0.84767 0.0
C439 C 0.25581 0.38726 0.84879 0.0
N440 N 0.28589 0.3768 0.86672 0.0
C441 C 0.29008 0.39456 0.85644 0.0
C442 C 0.30854 0.40787 0.86578 0.0
C443 C 0.31647 0.39788 0.88305 0.0
C444 C 0.30237 0.37891 0.88306 0.0
N445 N 0.26364 0.35507 0.7948 0.0
C446 C 0.26333 0.34811 0.7034 0.0
C447 C 0.24832 0.34901 0.72366 0.0
C448 C 0.24872 0.35242 0.76891 0.0
C449 C 0.27917 0.35215 0.72967 0.0
C450 C 0.27915 0.35584 0.77504 0.0
N451 N 0.2573 0.35111 0.92382 0.0
C452 C 0.26038 0.36408 0.99681 0.0
C453 C 0.25299 0.34591 1.0156 0.0
C454 C 0.24778 0.33057 0.98726 0.0
C455 C 0.25014 0.33345 0.94201 0.0
C456 C 0.26229 0.36635 0.95075 0.0
H457 H 0.24627 0.32122 0.92183 0.0
H458 H 0.26798 0.38038 0.93694 0.0
H459 H 0.23635 0.35187 0.78311 0.0
H460 H 0.29129 0.35833 0.79454 0.0
C461 C 0.24819 0.30997 0.83764 0.0
C462 C 0.30519 0.36326 0.89755 0.0
C463 C 0.21317 0.34312 0.86273 0.0
C464 C 0.27557 0.3985 0.84733 0.0
H465 H 0.30797 0.32928 0.88917 0.0
H466 H 0.27743 0.30034 0.85232 0.0
H467 H 0.20795 0.28514 0.82671 0.0
H468 H 0.18895 0.30305 0.8447 0.0
H469 H 0.21246 0.37811 0.85532 0.0
H470 H 0.24639 0.4083 0.8426 0.0
H471 H 0.31515 0.42313 0.86287 0.0
H472 H 0.3309 0.40396 0.89482 0.0
H473 H 0.23594 0.34649 0.7049 0.0
H474 H 0.29116 0.35161 0.71593 0.0
H475 H 0.26495 0.37646 1.0174 0.0
H476 H 0.24181 0.31626 0.99991 0.0
C477 C 0.95221 0.66698 0.66369 0.0
C478 C 0.9707 0.68146 0.67016 0.0
C479 C 0.96963 0.69573 0.69195 0.0
C480 C 0.95057 0.68921 0.69763 0.0
N481 N 0.93967 0.67178 0.68068 0.0
Co482 Co 0.91143 0.65734 0.68077 0.0
N483 N 0.90945 0.6803 0.69288 0.0
C484 C 0.92363 0.6968 0.70868 0.0
C485 C 0.9182 0.71012 0.71497 0.0
C486 C 0.8994 0.70136 0.70306 0.0
C487 C 0.89427 0.68304 0.69033 0.0
N488 N 0.88319 0.64254 0.67996 0.0
C489 C 0.87022 0.64838 0.67767 0.0
C490 C 0.85186 0.63301 0.68012 0.0
C491 C 0.85342 0.61712 0.68462 0.0
C492 C 0.87254 0.62358 0.68469 0.0
N493 N 0.91327 0.63427 0.66967 0.0
C494 C 0.89944 0.61627 0.67672 0.0
C495 C 0.90476 0.60317 0.66653 0.0
C496 C 0.92312 0.61356 0.65214 0.0
C497 C 0.92797 0.63251 0.65442 0.0
N498 N 0.91147 0.65349 0.74515 0.0
C499 C 0.91656 0.65734 0.83731 0.0
C500 C 0.92859 0.65383 0.8107 0.0
C501 C 0.92564 0.65168 0.76484 0.0
C502 C 0.90117 0.65747 0.81703 0.0
C503 C 0.8989 0.65557 0.77127 0.0
N504 N 0.91198 0.66221 0.61717 0.0
C505 C 0.90355 0.65215 0.54166 0.0
C506 C 0.91526 0.67086 0.52658 0.0
C507 C 0.92476 0.68504 0.55803 0.0
C508 C 0.92309 0.68045 0.60261 0.0
C509 C 0.90208 0.64812 0.58716 0.0
H510 H 0.93107 0.69184 0.62524 0.0
H511 H 0.89316 0.63367 0.59807 0.0
H512 H 0.9354 0.64946 0.74514 0.0
H513 H 0.88752 0.65691 0.75705 0.0
C514 C 0.94228 0.69994 0.71127 0.0
C515 C 0.94689 0.64839 0.64395 0.0
C516 C 0.87461 0.66822 0.67952 0.0
C517 C 0.88088 0.61219 0.68459 0.0
H518 H 0.98357 0.68164 0.66025 0.0
H519 H 0.98134 0.70951 0.7009 0.0
H520 H 0.92697 0.72464 0.72586 0.0
H521 H 0.89042 0.70764 0.70426 0.0
H522 H 0.83868 0.63325 0.68023 0.0
H523 H 0.84197 0.60259 0.68717 0.0
H524 H 0.89607 0.58786 0.66743 0.0
H525 H 0.93188 0.60783 0.64113 0.0
H526 H 0.94041 0.65312 0.82507 0.0
H527 H 0.89143 0.66002 0.83616 0.0
H528 H 0.89582 0.64069 0.51851 0.0
H529 H 0.93346 0.69975 0.54838 0.0
C530 C 0.34603 0.28805 0.67184 0.0
C531 C 0.33114 0.29165 0.67514 0.0
C532 C 0.31643 0.27601 0.6952 0.0
C533 C 0.32312 0.26374 0.70311 0.0
N534 N 0.34108 0.27074 0.68926 0.0
Co535 Co 0.35591 0.25741 0.69236 0.0
N536 N 0.33289 0.23213 0.70048 0.0
C537 C 0.31584 0.22928 0.71353 0.0
C538 C 0.30259 0.21038 0.71767 0.0
C539 C 0.31198 0.20079 0.70724 0.0
C540 C 0.33057 0.2144 0.69747 0.0
N541 N 0.37111 0.24442 0.69426 0.0
C542 C 0.36567 0.22575 0.69055 0.0
C543 C 0.38114 0.22303 0.69538 0.0
C544 C 0.39665 0.24052 0.70287 0.0
C545 C 0.38989 0.25293 0.70225 0.0
N546 N 0.37896 0.28269 0.68532 0.0
C547 C 0.39678 0.2871 0.69566 0.0
C548 C 0.4099 0.3057 0.6869 0.0
C549 C 0.39969 0.31346 0.66989 0.0
C550 C 0.38084 0.29909 0.66927 0.0
N551 N 0.35753 0.2602 0.75725 0.0
C552 C 0.34979 0.25897 0.84827 0.0
C553 C 0.35151 0.24448 0.82784 0.0
C554 C 0.35523 0.24529 0.78271 0.0
C555 C 0.35392 0.27504 0.82284 0.0
C556 C 0.35793 0.27544 0.77751 0.0
N557 N 0.35331 0.2541 0.62822 0.0
C558 C 0.36613 0.25723 0.55505 0.0
C559 C 0.34789 0.24958 0.53651 0.0
C560 C 0.33258 0.24424 0.56509 0.0
C561 C 0.33558 0.24674 0.61029 0.0
C562 C 0.36852 0.25923 0.60107 0.0
H563 H 0.32337 0.24277 0.63066 0.0
H564 H 0.38261 0.26508 0.61467 0.0
H565 H 0.3551 0.23318 0.76822 0.0
H566 H 0.36032 0.28765 0.75843 0.0
C567 C 0.31226 0.24452 0.71527 0.0
C568 C 0.36506 0.30163 0.65463 0.0
C569 C 0.3459 0.21007 0.68889 0.0
C570 C 0.40097 0.27271 0.70421 0.0
H571 H 0.33096 0.30422 0.66416 0.0
H572 H 0.30228 0.27356 0.70135 0.0
H573 H 0.28774 0.20424 0.72611 0.0
H574 H 0.3059 0.18555 0.70738 0.0
H575 H 0.38114 0.20974 0.69501 0.0
H576 H 0.41116 0.24379 0.70772 0.0
H577 H 0.42517 0.31253 0.69009 0.0
H578 H 0.40549 0.32796 0.65879 0.0
H579 H 0.34934 0.23216 0.8463 0.0
H580 H 0.3532 0.28682 0.83729 0.0
H581 H 0.3785 0.26194 0.53431 0.0
H582 H 0.31821 0.23808 0.55267 0.0
C583 C 0.72532 0.06174 0.67081 0.0
C584 C 0.72178 0.04329 0.67479 0.0
C585 C 0.73734 0.04435 0.69562 0.0
C586 C 0.74951 0.06334 0.70325 0.0
N587 N 0.74254 0.07421 0.68848 0.0
Co588 Co 0.75576 0.10241 0.69146 0.0
N589 N 0.78099 0.10481 0.70153 0.0
C590 C 0.78378 0.09066 0.71545 0.0
C591 C 0.80267 0.09641 0.72077 0.0
C592 C 0.81229 0.11537 0.71016 0.0
C593 C 0.79872 0.12025 0.69911 0.0
N594 N 0.76865 0.1306 0.6928 0.0
C595 C 0.78734 0.14387 0.68952 0.0
C596 C 0.78996 0.16204 0.69338 0.0
C597 C 0.7724 0.16003 0.69977 0.0
C598 C 0.76003 0.14085 0.6995 0.0
N599 N 0.73048 0.10005 0.68267 0.0
C600 C 0.72596 0.11346 0.69199 0.0
C601 C 0.70739 0.10789 0.68252 0.0
C602 C 0.69976 0.08985 0.66615 0.0
C603 C 0.71417 0.08541 0.66658 0.0
N604 N 0.75237 0.10127 0.75605 0.0
C605 C 0.75395 0.09461 0.84686 0.0
C606 C 0.76727 0.11177 0.82721 0.0
C607 C 0.76653 0.11459 0.78202 0.0
C608 C 0.73853 0.08183 0.82067 0.0
C609 C 0.73775 0.08568 0.77579 0.0
N610 N 0.75974 0.1031 0.62785 0.0
C611 C 0.75799 0.11333 0.55441 0.0
C612 C 0.7659 0.10279 0.53729 0.0
C613 C 0.77045 0.09237 0.56623 0.0
C614 C 0.76723 0.09267 0.61105 0.0
C615 C 0.75517 0.11343 0.60004 0.0
H616 H 0.7707 0.0842 0.63199 0.0
H617 H 0.74924 0.12172 0.61285 0.0
H618 H 0.77817 0.12717 0.76808 0.0
H619 H 0.72588 0.07541 0.75657 0.0
C620 C 0.7686 0.0718 0.71666 0.0
C621 C 0.71168 0.067 0.65296 0.0
C622 C 0.80306 0.13984 0.68932 0.0
C623 C 0.74023 0.13208 0.70053 0.0
H624 H 0.70927 0.03048 0.6639 0.0
H625 H 0.73978 0.0327 0.70263 0.0
H626 H 0.80878 0.08776 0.72998 0.0
H627 H 0.82753 0.12458 0.71086 0.0
H628 H 0.80324 0.17535 0.69311 0.0
H629 H 0.76904 0.17125 0.70365 0.0
H630 H 0.70049 0.11628 0.68492 0.0
H631 H 0.68531 0.08106 0.65481 0.0
H632 H 0.77867 0.12289 0.84612 0.0
H633 H 0.72747 0.06854 0.83406 0.0
H634 H 0.75415 0.12147 0.53278 0.0
H635 H 0.77611 0.08367 0.55422 0.0
C636 C 0.04698 0.41643 0.49997 0.0
C637 C 0.06584 0.42093 0.50031 0.0
C638 C 0.07606 0.43882 0.51765 0.0
C639 C 0.06294 0.44425 0.52686 0.0
N640 N 0.04511 0.43088 0.51648 0.0
Co641 Co 0.02205 0.43305 0.52428 0.0
N642 N 0.03723 0.46122 0.527 0.0
C643 C 0.05601 0.47144 0.53507 0.0
C644 C 0.06275 0.4906 0.53645 0.0
C645 C 0.04723 0.49262 0.52933 0.0
C646 C 0.03178 0.47447 0.52397 0.0
N647 N 0.99903 0.43528 0.53304 0.0
C648 C 0.99668 0.45068 0.53037 0.0
C649 C 0.97809 0.44565 0.54019 0.0
C650 C 0.96872 0.42663 0.55027 0.0
C651 C 0.98199 0.421 0.54589 0.0
N652 N 0.00723 0.40491 0.52057 0.0
C653 C 0.9893 0.3939 0.53458 0.0
C654 C 0.98262 0.37496 0.52643 0.0
C655 C 0.99731 0.37411 0.50609 0.0
C656 C 0.01217 0.39261 0.50286 0.0
N657 N 0.02383 0.43153 0.58899 0.0
C658 C 0.01842 0.42537 0.68066 0.0
C659 C 0.02204 0.41344 0.65398 0.0
C660 C 0.02495 0.4169 0.60836 0.0
C661 C 0.01871 0.44103 0.66072 0.0
C662 C 0.02137 0.44381 0.61523 0.0
N663 N 0.01937 0.43412 0.46029 0.0
C664 C 0.99865 0.42362 0.39712 0.0
C665 C 0.014 0.4338 0.36896 0.0
C666 C 0.03225 0.44418 0.3873 0.0
C667 C 0.03461 0.44435 0.43326 0.0
C668 C 1.00163 0.42385 0.44231 0.0
H669 H 0.04869 0.45255 0.44693 0.0
H670 H 0.98944 0.41541 0.46258 0.0
H671 H 0.02734 0.40729 0.58854 0.0
H672 H 0.02046 0.45547 0.60123 0.0
C673 C 0.0671 0.46274 0.53626 0.0
C674 C 0.03118 0.39811 0.48541 0.0
C675 C 0.01202 0.47039 0.52212 0.0
C676 C 0.97843 0.40219 0.54716 0.0
H677 H 0.07164 0.41228 0.48891 0.0
H678 H 0.09133 0.44723 0.52086 0.0
H679 H 0.07725 0.50181 0.54147 0.0
H680 H 0.04723 0.50591 0.52949 0.0
H681 H 0.97199 0.4548 0.54059 0.0
H682 H 0.95387 0.41787 0.5586 0.0
H683 H 0.96849 0.36324 0.53266 0.0
H684 H 0.99713 0.36141 0.49489 0.0
H685 H 0.0224 0.4014 0.66812 0.0
H686 H 0.01605 0.45067 0.67989 0.0
H687 H 0.9844 0.41515 0.38417 0.0
H688 H 0.0445 0.45217 0.36636 0.0
C689 C 0.59661 0.63387 0.50769 0.0
C690 C 0.59127 0.64765 0.5073 0.0
C691 C 0.57209 0.63849 0.5123 0.0
C692 C 0.56668 0.6197 0.5153 0.0
N693 N 0.5812 0.61619 0.51337 0.0
Co694 Co 0.57866 0.59029 0.51447 0.0
N695 N 0.55071 0.57738 0.527 0.0
C696 C 0.53994 0.58567 0.52649 0.0
C697 C 0.52121 0.5736 0.53618 0.0
C698 C 0.51985 0.5564 0.54292 0.0
C699 C 0.53791 0.55899 0.5368 0.0
N700 N 0.57602 0.5644 0.51574 0.0
C701 C 0.56095 0.54708 0.52635 0.0
C702 C 0.56537 0.53281 0.52082 0.0
C703 C 0.58366 0.54135 0.50578 0.0
C704 C 0.5894 0.56029 0.5029 0.0
N705 N 0.6066 0.60335 0.50115 0.0
C706 C 0.61633 0.5945 0.4906 0.0
C707 C 0.63508 0.60672 0.48114 0.0
C708 C 0.63736 0.62449 0.48476 0.0
C709 C 0.61978 0.62212 0.49591 0.0
N710 N 0.58411 0.59266 0.57875 0.0
C711 C 0.58919 0.59096 0.67074 0.0
C712 C 0.59941 0.5867 0.64029 0.0
C713 C 0.59675 0.5877 0.59498 0.0
C714 C 0.57704 0.59709 0.65406 0.0
C715 C 0.57465 0.59777 0.60809 0.0
N716 N 0.5735 0.58737 0.45031 0.0
C717 C 0.58511 0.59856 0.37687 0.0
C718 C 0.57384 0.58035 0.35965 0.0
C719 C 0.56105 0.5661 0.38799 0.0
C720 C 0.56099 0.56998 0.43299 0.0
C721 C 0.58449 0.60181 0.42191 0.0
H722 H 0.55147 0.55854 0.45389 0.0
H723 H 0.59359 0.61585 0.43367 0.0
H724 H 0.60468 0.58387 0.57332 0.0
H725 H 0.56479 0.60198 0.59655 0.0
C726 C 0.54811 0.60508 0.52039 0.0
C727 C 0.61591 0.63801 0.49599 0.0
C728 C 0.5417 0.5432 0.53707 0.0
C729 C 0.6075 0.57472 0.49102 0.0
H730 H 0.60003 0.66273 0.50202 0.0
H731 H 0.56309 0.64477 0.51276 0.0
H732 H 0.50994 0.57695 0.53859 0.0
H733 H 0.50696 0.54335 0.55078 0.0
H734 H 0.55613 0.51775 0.52606 0.0
H735 H 0.59181 0.53454 0.49791 0.0
H736 H 0.64577 0.60314 0.47206 0.0
H737 H 0.65029 0.63769 0.47816 0.0
H738 H 0.60928 0.58231 0.65142 0.0
H739 H 0.56892 0.60068 0.67633 0.0
H740 H 0.59469 0.61017 0.35578 0.0
H741 H 0.5518 0.55184 0.37601 0.0
C742 C 0.37926 0.96149 0.50093 0.0
C743 C 0.36535 0.94245 0.50085 0.0
C744 C 0.37346 0.93268 0.51847 0.0
C745 C 0.39182 0.9462 0.52809 0.0
N746 N 0.39578 0.96388 0.51766 0.0
Co747 Co 0.42074 0.98734 0.52531 0.0
N748 N 0.43434 0.97275 0.52865 0.0
C749 C 0.4262 0.95403 0.53696 0.0
C750 C 0.43897 0.94772 0.53863 0.0
C751 C 0.45631 0.96348 0.53144 0.0
C752 C 0.45314 0.97862 0.52574 0.0
N753 N 0.4457 0.01074 0.53394 0.0
C754 C 0.46363 0.01353 0.53153 0.0
C755 C 0.47686 0.03224 0.54121 0.0
C756 C 0.46682 0.04125 0.55088 0.0
C757 C 0.44804 0.02765 0.54643 0.0
N758 N 0.40682 1.00157 0.5209 0.0
C759 C 0.41336 0.01949 0.53447 0.0
C760 C 0.40077 0.02573 0.5259 0.0
C761 C 0.3854 0.01075 0.50576 0.0
C762 C 0.38947 0.99616 0.50304 0.0
N763 N 0.41743 0.98573 0.5901 0.0
C764 C 0.41667 0.99169 0.68163 0.0
C765 C 0.401 0.9876 0.65476 0.0
C766 C 0.40157 0.98443 0.60926 0.0
C767 C 0.43217 0.99157 0.66196 0.0
C768 C 0.4323 0.98864 0.61656 0.0
N769 N 0.42452 0.98993 0.46123 0.0
C770 C 0.43445 0.01058 0.39789 0.0
C771 C 0.42965 0.9953 0.36981 0.0
C772 C 0.4221 0.9771 0.38831 0.0
C773 C 0.41985 0.97475 0.43431 0.0
C774 C 0.43166 0.00761 0.44307 0.0
H775 H 0.41422 0.96071 0.44808 0.0
H776 H 0.43512 0.01976 0.46318 0.0
H777 H 0.38946 0.98168 0.58932 0.0
H778 H 0.44497 0.98972 0.60277 0.0
C779 C 0.40646 0.94254 0.53786 0.0
C780 C 0.37616 0.97694 0.4863 0.0
C781 C 0.46849 0.99851 0.52357 0.0
C782 C 0.43247 0.03075 0.54721 0.0
H783 H 0.35093 0.93619 0.48889 0.0
H784 H 0.36703 0.91744 0.52151 0.0
H785 H 0.43603 0.93334 0.54382 0.0
H786 H 0.46978 0.96385 0.53173 0.0
H787 H 0.49215 0.03865 0.54175 0.0
H788 H 0.47259 0.05608 0.55896 0.0
H789 H 0.40283 0.03975 0.53178 0.0
H790 H 0.37268 0.01054 0.49444 0.0
H791 H 0.3885 0.98707 0.66865 0.0
H792 H 0.44458 0.99458 0.68124 0.0
H793 H 0.43994 0.02478 0.38487 0.0
H794 H 0.41809 0.96488 0.36747 0.0
C795 C 0.75449 0.71374 0.71119 0.0
C796 C 0.75925 0.73268 0.71151 0.0
C797 C 0.77715 0.74279 0.69419 0.0
C798 C 0.78237 0.72956 0.6845 0.0
N799 N 0.76886 0.71175 0.69458 0.0
Co800 Co 0.77089 0.6886 0.6869 0.0
N801 N 0.79908 0.70367 0.68441 0.0
C802 C 0.80942 0.72244 0.67654 0.0
C803 C 0.82859 0.7291 0.67576 0.0
C804 C 0.83046 0.71353 0.68306 0.0
C805 C 0.81224 0.69814 0.68788 0.0
N806 N 0.773 0.66554 0.67817 0.0
C807 C 0.78838 0.66314 0.68064 0.0
C808 C 0.78336 0.64463 0.67004 0.0
C809 C 0.76433 0.63533 0.65994 0.0
C810 C 0.75871 0.64858 0.66494 0.0
N811 N 0.74275 0.67392 0.69054 0.0
C812 C 0.73168 0.656 0.6766 0.0
C813 C 0.71276 0.64937 0.68502 0.0
C814 C 0.71201 0.6641 0.70546 0.0
C815 C 0.73054 0.67892 0.7085 0.0
N816 N 0.76943 0.69034 0.62199 0.0
C817 C 0.76304 0.68415 0.53031 0.0
C818 C 0.7511 0.68785 0.5568 0.0
C819 C 0.75467 0.69115 0.60236 0.0
C820 C 0.77886 0.68482 0.55046 0.0
C821 C 0.78176 0.68786 0.59589 0.0
N822 N 0.77182 0.68584 0.75104 0.0
C823 C 0.76084 0.66495 0.81394 0.0
C824 C 0.77092 0.68013 0.84275 0.0
C825 C 0.78167 0.69841 0.82444 0.0
C826 C 0.78203 0.70094 0.77842 0.0
C827 C 0.76137 0.66809 0.76877 0.0
H828 H 0.79034 0.71506 0.76501 0.0
H829 H 0.75305 0.65596 0.74826 0.0
H830 H 0.74502 0.69356 0.62198 0.0
H831 H 0.79353 0.68718 0.61002 0.0
C832 C 0.80084 0.73363 0.67532 0.0
C833 C 0.73609 0.69799 0.72566 0.0
C834 C 0.80804 0.67836 0.68971 0.0
C835 C 0.73991 0.64509 0.66378 0.0
H836 H 0.75086 0.73866 0.72352 0.0
H837 H 0.78574 0.75806 0.6915 0.0
H838 H 0.83987 0.7436 0.67112 0.0
H839 H 0.84372 0.71345 0.68346 0.0
H840 H 0.79253 0.63855 0.66921 0.0
H841 H 0.75557 0.62054 0.65114 0.0
H842 H 0.70099 0.63526 0.67889 0.0
H843 H 0.69934 0.66398 0.71679 0.0
H844 H 0.73895 0.68797 0.54257 0.0
H845 H 0.78856 0.68214 0.53153 0.0
H846 H 0.75253 0.65056 0.82616 0.0
H847 H 0.78945 0.71069 0.84537 0.0
C848 C 0.29756 0.04358 0.71442 0.0
C849 C 0.27841 0.02989 0.71515 0.0
C850 C 0.26874 0.03814 0.69783 0.0
C851 C 0.28236 0.05641 0.68801 0.0
N852 N 0.30003 0.0602 0.69808 0.0
Co853 Co 0.32353 0.08524 0.69163 0.0
N854 N 0.30895 0.09887 0.68902 0.0
C855 C 0.29026 0.09084 0.68055 0.0
C856 C 0.28396 0.10363 0.67987 0.0
C857 C 0.29971 0.12087 0.68789 0.0
C858 C 0.31482 0.11763 0.69307 0.0
N859 N 0.34697 0.11026 0.68414 0.0
C860 C 0.34972 0.12816 0.68701 0.0
C861 C 0.3684 0.14146 0.67725 0.0
C862 C 0.37746 0.13151 0.66722 0.0
C863 C 0.36391 0.11271 0.67148 0.0
N864 N 0.33777 0.07132 0.69543 0.0
C865 C 0.35577 0.078 0.68219 0.0
C866 C 0.36202 0.06539 0.69019 0.0
C867 C 0.34697 0.04984 0.70958 0.0
C868 C 0.33233 0.05383 0.71248 0.0
N869 N 0.32225 0.08254 0.62667 0.0
C870 C 0.33035 0.08361 0.53584 0.0
C871 C 0.32566 0.06742 0.56134 0.0
C872 C 0.3215 0.0671 0.60657 0.0
C873 C 0.32902 0.09837 0.55609 0.0
C874 C 0.32511 0.09763 0.60113 0.0
N875 N 0.32579 0.08842 0.75585 0.0
C876 C 0.346 0.09753 0.8199 0.0
C877 C 0.33051 0.09238 0.84761 0.0
C878 C 0.31248 0.08532 0.82846 0.0
C879 C 0.31045 0.0836 0.78237 0.0
C880 C 0.34334 0.09532 0.77452 0.0
H881 H 0.29652 0.07824 0.76818 0.0
H882 H 0.35562 0.09901 0.75463 0.0
H883 H 0.31868 0.05477 0.6257 0.0
H884 H 0.32553 0.1099 0.61551 0.0
C885 C 0.27877 0.07114 0.67898 0.0
C886 C 0.31301 0.04023 0.72827 0.0
C887 C 0.33472 0.13292 0.69581 0.0
C888 C 0.36704 0.09719 0.67011 0.0
H889 H 0.2719 0.01555 0.72761 0.0
H890 H 0.2535 0.03191 0.69544 0.0
H891 H 0.26958 0.10074 0.67488 0.0
H892 H 0.30008 0.13435 0.68857 0.0
H893 H 0.37476 0.15674 0.67695 0.0
H894 H 0.39229 0.13735 0.65896 0.0
H895 H 0.37608 0.06752 0.68438 0.0
H896 H 0.34675 0.03704 0.72024 0.0
H897 H 0.32606 0.05544 0.54704 0.0
H898 H 0.33164 0.11083 0.53756 0.0
H899 H 0.36011 0.10282 0.83332 0.0
H900 H 0.30013 0.08125 0.84889 0.0
C901 C 0.96941 0.25886 0.71289 0.0
C902 C 0.98345 0.25391 0.71297 0.0
C903 C 0.97537 0.23587 0.69636 0.0
C904 C 0.95689 0.23077 0.68726 0.0
N905 N 0.95284 0.24447 0.69707 0.0
Co906 Co 0.92773 0.24268 0.68977 0.0
N907 N 0.91433 0.21448 0.68809 0.0
C908 C 0.92253 0.20393 0.68025 0.0
C909 C 0.90985 0.18481 0.68009 0.0
C910 C 0.89252 0.18319 0.68781 0.0
C911 C 0.8956 0.2015 0.69227 0.0
N912 N 0.90263 0.24083 0.68151 0.0
C913 C 0.88479 0.22562 0.68488 0.0
C914 C 0.87137 0.2308 0.67466 0.0
C915 C 0.8812 0.24974 0.66388 0.0
C916 C 0.90005 0.25516 0.66814 0.0
N917 N 0.94146 0.27085 0.69257 0.0
C918 C 0.9347 0.28198 0.67846 0.0
C919 C 0.94723 0.30092 0.68587 0.0
C920 C 0.9628 0.30165 0.70581 0.0
C921 C 0.95891 0.28308 0.70958 0.0
N922 N 0.93058 0.24372 0.6249 0.0
C923 C 0.93072 0.24879 0.5328 0.0
C924 C 0.9464 0.26111 0.55875 0.0
C925 C 0.94617 0.25816 0.60459 0.0
C926 C 0.9154 0.2335 0.55382 0.0
C927 C 0.91559 0.23124 0.59945 0.0
N928 N 0.92435 0.24201 0.75385 0.0
C929 C 0.91423 0.25265 0.81685 0.0
C930 C 0.91889 0.24207 0.84504 0.0
C931 C 0.92655 0.2315 0.82682 0.0
C932 C 0.92897 0.23149 0.78093 0.0
C933 C 0.91719 0.25256 0.77173 0.0
H934 H 0.93461 0.22307 0.76735 0.0
H935 H 0.91374 0.26122 0.75139 0.0
H936 H 0.95833 0.26797 0.62379 0.0
H937 H 0.90307 0.21981 0.61417 0.0
C938 C 0.94228 0.21231 0.67863 0.0
C939 C 0.97243 0.27749 0.72653 0.0
C940 C 0.88019 0.20596 0.69456 0.0
C941 C 0.91549 0.27387 0.66625 0.0
H942 H 0.99796 0.26232 0.72425 0.0
H943 H 0.98191 0.22716 0.69364 0.0
H944 H 0.91286 0.17338 0.67564 0.0
H945 H 0.8791 0.17003 0.68877 0.0
H946 H 0.8561 0.2218 0.67459 0.0
H947 H 0.87525 0.2586 0.65517 0.0
H948 H 0.94501 0.31275 0.67935 0.0
H949 H 0.97554 0.31433 0.71629 0.0
H950 H 0.95865 0.27302 0.5438 0.0
H951 H 0.90291 0.2237 0.53531 0.0
H952 H 0.90863 0.26128 0.82973 0.0
H953 H 0.93044 0.22321 0.8478 0.0
C954 C 0.33407 0.28168 0.21238 0.0
C955 C 0.34887 0.30021 0.20912 0.0
C956 C 0.36369 0.29943 0.18926 0.0
C957 C 0.35713 0.2805 0.1814 0.0
N958 N 0.33917 0.26943 0.19512 0.0
Co959 Co 0.32453 0.24128 0.19176 0.0
N960 N 0.34769 0.23923 0.18369 0.0
C961 C 0.36472 0.25355 0.17088 0.0
C962 C 0.37809 0.24804 0.16694 0.0
C963 C 0.36881 0.22905 0.17727 0.0
C964 C 0.35017 0.22392 0.18682 0.0
N965 N 0.30955 0.21308 0.18943 0.0
C966 C 0.31513 0.19995 0.19302 0.0
C967 C 0.29979 0.18173 0.18788 0.0
C968 C 0.28419 0.18356 0.18035 0.0
C969 C 0.2908 0.2027 0.18127 0.0
N970 N 0.30132 0.24326 0.1989 0.0
C971 C 0.28353 0.22968 0.18884 0.0
C972 C 0.27023 0.23483 0.1982 0.0
C973 C 0.28027 0.25279 0.21521 0.0
C974 C 0.29925 0.25766 0.21502 0.0
N975 N 0.32289 0.24261 0.12693 0.0
C976 C 0.32789 0.24815 0.03498 0.0
C977 C 0.32797 0.23279 0.05554 0.0
C978 C 0.32548 0.23029 0.10112 0.0
C979 C 0.32447 0.2603 0.06131 0.0
C980 C 0.32171 0.25712 0.10706 0.0
N981 N 0.32709 0.2404 0.25588 0.0
C982 C 0.31415 0.23027 0.32881 0.0
C983 C 0.33235 0.24078 0.3473 0.0
C984 C 0.3477 0.25113 0.31924 0.0
C985 C 0.34478 0.25085 0.27402 0.0
C986 C 0.31184 0.23008 0.28282 0.0
H987 H 0.35697 0.25937 0.25383 0.0
H988 H 0.2978 0.22175 0.26904 0.0
H989 H 0.32655 0.21879 0.11552 0.0
H990 H 0.31932 0.26682 0.12655 0.0
C991 C 0.36814 0.27231 0.16927 0.0
C992 C 0.31494 0.27619 0.22901 0.0
C993 C 0.33493 0.2042 0.19529 0.0
C994 C 0.27956 0.21122 0.17984 0.0
H995 H 0.34891 0.3129 0.21991 0.0
H996 H 0.3778 0.3112 0.18314 0.0
H997 H 0.39295 0.25686 0.15872 0.0
H998 H 0.375 0.21997 0.17722 0.0
H999 H 0.29991 0.1685 0.1882 0.0
H1000 H 0.26973 0.17225 0.17543 0.0
H1001 H 0.25496 0.22619 0.19544 0.0
H1002 H 0.2742 0.26115 0.2269 0.0
H1003 H 0.33072 0.22312 0.03672 0.0
H1004 H 0.32408 0.27226 0.04673 0.0
H1005 H 0.30189 0.22216 0.34966 0.0
H1006 H 0.36191 0.25973 0.33227 0.0
C1007 C 0.72909 0.05532 0.22141 0.0
C1008 C 0.71131 0.05306 0.22944 0.0
C1009 C 0.71235 0.0699 0.21871 0.0
C1010 C 0.73068 0.08154 0.20491 0.0
N1011 N 0.74128 0.07299 0.20522 0.0
Co1012 Co 0.76929 0.08565 0.19308 0.0
N1013 N 0.77157 0.11108 0.18255 0.0
C1014 C 0.75698 0.11451 0.17925 0.0
C1015 C 0.76279 0.1333 0.17215 0.0
C1016 C 0.78221 0.14236 0.17101 0.0
C1017 C 0.78722 0.12857 0.17758 0.0
N1018 N 0.7975 0.0984 0.18443 0.0
C1019 C 0.8108 0.11708 0.18124 0.0
C1020 C 0.82898 0.11971 0.17797 0.0
C1021 C 0.82716 0.10214 0.17985 0.0
C1022 C 0.80807 0.08985 0.18415 0.0
N1023 N 0.76703 0.06012 0.20129 0.0
C1024 C 0.78097 0.05594 0.19507 0.0
C1025 C 0.7756 0.03742 0.20378 0.0
C1026 C 0.75714 0.02925 0.21678 0.0
C1027 C 0.75222 0.04331 0.21509 0.0
N1028 N 0.76474 0.08071 0.12818 0.0
C1029 C 0.76117 0.08081 0.03486 0.0
C1030 C 0.77533 0.07824 0.05483 0.0
C1031 C 0.77697 0.07844 0.1011 0.0
C1032 C 0.7481 0.0818 0.06288 0.0
C1033 C 0.74983 0.08122 0.10848 0.0
N1034 N 0.7734 0.09091 0.25707 0.0
C1035 C 0.78197 0.08513 0.3295 0.0
C1036 C 0.77404 0.09517 0.34915 0.0
C1037 C 0.76684 0.1038 0.32186 0.0
C1038 C 0.7666 0.10148 0.27662 0.0
C1039 C 0.78165 0.08331 0.28333 0.0
H1040 H 0.76027 0.10802 0.25842 0.0
H1041 H 0.78769 0.07539 0.26941 0.0
H1042 H 0.78835 0.07694 0.11411 0.0
H1043 H 0.73901 0.08169 0.12676 0.0
C1044 C 0.73851 0.10052 0.19129 0.0
C1045 C 0.73371 0.04026 0.22942 0.0
C1046 C 0.80698 0.13283 0.18095 0.0
C1047 C 0.79962 0.07025 0.18821 0.0
H1048 H 0.69893 0.04055 0.24202 0.0
H1049 H 0.70114 0.07333 0.22125 0.0
H1050 H 0.75402 0.13981 0.1705 0.0
H1051 H 0.79163 0.15747 0.16721 0.0
H1052 H 0.84221 0.13296 0.17474 0.0
H1053 H 0.83842 0.09874 0.17868 0.0
H1054 H 0.78438 0.03089 0.20321 0.0
H1055 H 0.74859 0.01474 0.22783 0.0
H1056 H 0.78524 0.0762 0.03517 0.0
H1057 H 0.73669 0.08361 0.05 0.0
H1058 H 0.78782 0.07827 0.34954 0.0
H1059 H 0.76099 0.11209 0.33547 0.0
C1060 C 0.96019 0.68059 0.2042 0.0
C1061 C 0.96452 0.66613 0.20167 0.0
C1062 C 0.9484 0.65016 0.18689 0.0
C1063 C 0.93518 0.6557 0.17988 0.0
N1064 N 0.94209 0.67411 0.18928 0.0
Co1065 Co 0.92795 0.68797 0.18149 0.0
N1066 N 0.90282 0.66451 0.18155 0.0
C1067 C 0.90004 0.64708 0.17289 0.0
C1068 C 0.88112 0.63352 0.17268 0.0
C1069 C 0.87151 0.64313 0.18105 0.0
C1070 C 0.8851 0.66212 0.18591 0.0
N1071 N 0.91444 0.70245 0.1752 0.0
C1072 C 0.89602 0.69723 0.18261 0.0
C1073 C 0.89273 0.71196 0.17195 0.0
C1074 C 0.90948 0.72653 0.15601 0.0
C1075 C 0.92211 0.72004 0.15815 0.0
N1076 N 0.95289 0.71145 0.17884 0.0
C1077 C 0.95597 0.72613 0.15298 0.0
C1078 C 0.97427 0.73618 0.13776 0.0
C1079 C 0.98326 0.72731 0.15584 0.0
C1080 C 0.97027 0.71334 0.18388 0.0
N1081 N 0.92853 0.68562 0.11651 0.0
C1082 C 0.92688 0.67753 0.02536 0.0
C1083 C 0.91195 0.67821 0.04673 0.0
C1084 C 0.91299 0.68215 0.09189 0.0
C1085 C 0.94293 0.68154 0.05069 0.0
C1086 C 0.94353 0.68569 0.09584 0.0
N1087 N 0.92679 0.68909 0.24599 0.0
C1088 C 0.93065 0.70504 0.31553 0.0
C1089 C 0.92334 0.68766 0.33814 0.0
C1090 C 0.91816 0.67131 0.31384 0.0
C1091 C 0.92017 0.67235 0.2684 0.0
C1092 C 0.9321 0.70542 0.26906 0.0
H1093 H 0.91633 0.65934 0.25153 0.0
H1094 H 0.93745 0.71875 0.25176 0.0
H1095 H 0.90086 0.68181 0.10698 0.0
H1096 H 0.95597 0.68836 0.11417 0.0
C1097 C 0.91562 0.64391 0.17118 0.0
C1098 C 0.97414 0.70102 0.21254 0.0
C1099 C 0.88072 0.67765 0.19121 0.0
C1100 C 0.94121 0.72992 0.14489 0.0
H1101 H 0.97807 0.66711 0.20776 0.0
H1102 H 0.94654 0.63614 0.18235 0.0
H1103 H 0.87501 0.61839 0.16801 0.0
H1104 H 0.85626 0.6369 0.18276 0.0
H1105 H 0.87936 0.7118 0.17295 0.0
H1106 H 0.91201 0.74006 0.1435 0.0
H1107 H 0.98027 0.74826 0.11571 0.0
H1108 H 0.99785 0.73101 0.15016 0.0
H1109 H 0.89932 0.67547 0.02878 0.0
H1110 H 0.95474 0.68088 0.03625 0.0
H1111 H 0.93497 0.71807 0.33346 0.0
H1112 H 0.91282 0.6577 0.33003 0.0
C1113 C 0.61698 0.99877 1.0083 0.0
C1114 C 0.63547 0.01363 1.01198 0.0
C1115 C 0.63453 0.02826 0.03235 0.0
C1116 C 0.61555 0.02155 0.04007 0.0
N1117 N 0.6046 1.00367 0.02573 0.0
Co1118 Co 0.57644 0.98887 0.0289 0.0
N1119 N 0.57419 0.01184 0.0384 0.0
C1120 C 0.58839 0.02874 0.05219 0.0
C1121 C 0.58273 0.04196 0.05718 0.0
C1122 C 0.56377 0.0327 0.04647 0.0
C1123 C 0.55882 0.01424 0.03557 0.0
N1124 N 0.54824 0.97376 0.03087 0.0
C1125 C 0.53507 0.97928 0.02742 0.0
C1126 C 0.51685 0.96386 0.03193 0.0
C1127 C 0.51873 0.94827 0.03885 0.0
C1128 C 0.5379 0.95495 0.03822 0.0
N1129 N 0.57857 0.96579 1.02063 0.0
C1130 C 0.56501 0.94791 0.03001 0.0
C1131 C 0.57029 0.93475 1.02018 0.0
C1132 C 0.5883 0.94497 1.0036 0.0
C1133 C 0.59309 0.96392 1.0045 0.0
N1134 N 0.57775 0.98675 0.09362 0.0
C1135 C 0.58427 0.9926 0.18518 0.0
C1136 C 0.56845 0.99208 0.16542 0.0
C1137 C 0.56548 0.98919 0.11997 0.0
C1138 C 0.59608 0.98884 0.15842 0.0
C1139 C 0.59244 0.98571 0.11291 0.0
N1140 N 0.57572 0.99195 0.96485 0.0
C1141 C 0.56754 0.97965 0.89081 0.0
C1142 C 0.57825 0.99805 0.87322 0.0
C1143 C 0.58686 0.01322 0.9027 0.0
C1144 C 0.58575 0.00988 0.94781 0.0
C1145 C 0.56635 0.97691 0.93682 0.0
H1146 H 0.5934 0.02199 0.96878 0.0
H1147 H 0.55818 0.96268 0.94968 0.0
H1148 H 0.55374 0.98998 0.10601 0.0
H1149 H 0.60202 0.98328 0.09305 0.0
C1150 C 0.60722 0.03231 0.05329 0.0
C1151 C 0.61167 0.97975 0.99126 0.0
C1152 C 0.53924 0.99906 0.0256 0.0
C1153 C 0.5465 0.94378 0.03902 0.0
H1154 H 0.64824 0.01382 1.00124 0.0
H1155 H 0.64623 0.04234 0.03908 0.0
H1156 H 0.59146 0.05673 0.0662 0.0
H1157 H 0.55463 0.0388 0.04696 0.0
H1158 H 0.50358 0.96393 0.03149 0.0
H1159 H 0.50744 0.93374 0.0431 0.0
H1160 H 0.56169 0.91946 1.02241 0.0
H1161 H 0.59678 0.93906 0.99176 0.0
H1162 H 0.55884 0.99478 0.18466 0.0
H1163 H 0.60821 0.9886 0.17239 0.0
H1164 H 0.56045 0.96746 0.86929 0.0
H1165 H 0.59461 0.02774 0.89112 0.0
C1166 C 0.01206 0.62031 1.00804 0.0
C1167 C 0.99713 0.6238 1.01251 0.0
C1168 C 0.98261 0.60805 0.03261 0.0
C1169 C 0.98944 0.59584 0.03938 0.0
N1170 N 0.00731 0.60293 1.02469 0.0
Co1171 Co 0.02234 0.58978 0.02718 0.0
N1172 N 0.99949 0.56446 0.03676 0.0
C1173 C 0.98255 0.56157 0.0508 0.0
C1174 C 0.96944 0.54266 0.0558 0.0
C1175 C 0.97881 0.53312 0.04482 0.0
C1176 C 0.99722 0.54675 0.0338 0.0
N1177 N 0.03764 0.57689 0.02852 0.0
C1178 C 0.03223 0.55822 1.02496 0.0
C1179 C 0.04776 0.55556 0.02894 0.0
C1180 C 0.06331 0.5731 0.03563 0.0
C1181 C 0.05649 0.58547 0.0354 0.0
N1182 N 0.04527 0.6151 1.01879 0.0
C1183 C 0.06323 0.61954 0.02771 0.0
C1184 C 0.07625 0.63809 1.01826 0.0
C1185 C 0.06585 0.64583 1.00245 0.0
C1186 C 0.04696 0.63152 1.00332 0.0
N1187 N 0.02462 0.59308 0.09183 0.0
C1188 C 0.01822 0.59305 0.18328 0.0
C1189 C 0.01924 0.57808 0.16315 0.0
C1190 C 0.0224 0.57835 0.11782 0.0
C1191 C 0.02199 0.60877 0.15691 0.0
C1192 C 0.02542 0.60861 0.11148 0.0
N1193 N 0.01914 0.58606 0.96321 0.0
C1194 C 0.03139 0.58971 0.88929 0.0
C1195 C 0.01297 0.58189 0.87171 0.0
C1196 C 0.99781 0.57558 0.90118 0.0
C1197 C 1.00119 0.57811 0.94626 0.0
C1198 C 0.03416 0.59156 0.93521 0.0
H1199 H 0.9891 0.57376 0.96729 0.0
H1200 H 0.0484 0.59765 0.94805 0.0
H1201 H 0.02192 0.56602 0.10364 0.0
H1202 H 0.02765 0.62063 0.09188 0.0
C1203 C 0.97884 0.57671 0.05237 0.0
C1204 C 0.031 0.63423 0.99099 0.0
C1205 C 0.01248 0.54251 1.02362 0.0
C1206 C 0.06754 0.60525 0.03624 0.0
H1207 H 0.99685 0.63642 1.00251 0.0
H1208 H 0.96852 0.60556 0.03988 0.0
H1209 H 0.95468 0.53649 0.06504 0.0
H1210 H 0.9728 0.51788 0.04523 0.0
H1211 H 0.0478 0.54229 0.02833 0.0
H1212 H 0.07788 0.57644 0.03949 0.0
H1213 H 0.09156 0.64491 1.02039 0.0
H1214 H 0.07158 0.6603 0.99127 0.0
H1215 H 0.01695 0.56583 0.18209 0.0
H1216 H 0.02136 0.62071 0.17062 0.0
H1217 H 0.04358 0.59465 0.86779 0.0
H1218 H 0.98328 0.56873 0.88964 0.0
C1219 C 0.39054 0.39374 1.00967 0.0
C1220 C 0.38671 0.37521 1.01402 0.0
C1221 C 0.40222 0.37607 0.03463 0.0
C1222 C 0.41466 0.39505 0.04183 0.0
N1223 N 0.40788 0.40607 0.027 0.0
Co1224 Co 0.42154 0.43425 0.02909 0.0
N1225 N 0.44665 0.43625 0.03861 0.0
C1226 C 0.44921 0.422 0.05279 0.0
C1227 C 0.46807 0.42744 0.05722 0.0
C1228 C 0.4779 0.44631 0.04576 0.0
C1229 C 0.4645 0.45145 0.03508 0.0
N1230 N 0.43488 0.46246 0.02989 0.0
C1231 C 0.45362 0.47547 0.02616 0.0
C1232 C 0.45661 0.49378 0.03007 0.0
C1233 C 0.43922 0.49212 0.03691 0.0
C1234 C 0.42659 0.47299 0.03684 0.0
N1235 N 0.39642 0.43234 1.02075 0.0
C1236 C 0.39228 0.44605 0.02975 0.0
C1237 C 0.37383 0.44086 1.02006 0.0
C1238 C 0.36585 0.42276 1.00392 0.0
C1239 C 0.37993 0.41785 1.00487 0.0
N1240 N 0.41843 0.43352 0.09386 0.0
C1241 C 0.41818 0.42846 0.18598 0.0
C1242 C 0.43345 0.44385 0.16508 0.0
C1243 C 0.43331 0.44611 0.11942 0.0
C1244 C 0.40257 0.41609 0.15993 0.0
C1245 C 0.40284 0.41904 0.11409 0.0
N1246 N 0.42513 0.43449 0.96512 0.0
C1247 C 0.42161 0.44292 0.89087 0.0
C1248 C 0.4293 0.43214 0.87376 0.0
C1249 C 0.43545 0.42327 0.90362 0.0
C1250 C 0.43288 0.42426 0.94857 0.0
C1251 C 0.41977 0.44404 0.93675 0.0
H1252 H 0.43707 0.41646 0.96983 0.0
H1253 H 0.41381 0.45234 0.94927 0.0
H1254 H 0.44582 0.45759 0.10478 0.0
H1255 H 0.39076 0.40915 0.09481 0.0
C1256 C 0.4338 0.40328 0.05467 0.0
C1257 C 0.37701 0.39919 0.99189 0.0
C1258 C 0.4691 0.47109 1.02491 0.0
C1259 C 0.40683 0.46456 0.03804 0.0
H1260 H 0.37404 0.36247 1.00347 0.0
H1261 H 0.40446 0.36431 0.04173 0.0
H1262 H 0.474 0.41862 0.06634 0.0
H1263 H 0.49318 0.45528 0.04569 0.0
H1264 H 0.47002 0.50696 0.02941 0.0
H1265 H 0.43614 0.50352 0.04084 0.0
H1266 H 0.36725 0.44956 1.02205 0.0
H1267 H 0.3514 0.41428 0.99235 0.0
H1268 H 0.44588 0.4537 0.18366 0.0
H1269 H 0.39035 0.40411 0.17478 0.0
H1270 H 0.41679 0.45019 0.86906 0.0
H1271 H 0.44225 0.41549 0.8925 0.0
C1272 C 0.71608 0.75253 0.83573 0.0
C1273 C 0.73514 0.75773 0.8354 0.0
C1274 C 0.74494 0.77573 0.85231 0.0
C1275 C 0.73142 0.78058 0.86181 0.0
N1276 N 0.71372 0.76675 0.85197 0.0
Co1277 Co 0.69025 0.76825 0.85936 0.0
N1278 N 0.70476 0.79646 0.86155 0.0
C1279 C 0.72351 0.80716 0.86933 0.0
C1280 C 0.72975 0.82624 0.8697 0.0
C1281 C 0.71391 0.82767 0.86219 0.0
C1282 C 0.69879 0.80929 0.85762 0.0
N1283 N 0.66682 0.76977 0.86776 0.0
C1284 C 0.66396 0.78486 0.86484 0.0
C1285 C 0.64532 0.77943 0.87519 0.0
C1286 C 0.6364 0.76046 0.88563 0.0
C1287 C 0.64999 0.75527 0.88102 0.0
N1288 N 0.67604 0.74009 0.85597 0.0
C1289 C 0.65816 0.72876 0.86995 0.0
C1290 C 0.65192 0.70988 0.86215 0.0
C1291 C 0.66686 0.70941 0.84207 0.0
C1292 C 0.68141 0.72805 0.83862 0.0
N1293 N 0.69199 0.76695 0.92415 0.0
C1294 C 0.68478 0.76018 1.01524 0.0
C1295 C 0.68932 0.74866 0.98946 0.0
C1296 C 0.69304 0.75238 0.94408 0.0
C1297 C 0.68581 0.77616 0.99507 0.0
C1298 C 0.68928 0.7792 0.94988 0.0
N1299 N 0.68761 0.76911 0.79538 0.0
C1300 C 0.66706 0.75813 0.73205 0.0
C1301 C 0.68237 0.76865 0.70382 0.0
C1302 C 0.7005 0.77957 0.7226 0.0
C1303 C 0.70279 0.77973 0.76855 0.0
C1304 C 0.66998 0.75844 0.77726 0.0
H1305 H 0.7168 0.78824 0.78234 0.0
H1306 H 0.65782 0.74982 0.79748 0.0
H1307 H 0.69577 0.74287 0.92474 0.0
H1308 H 0.68864 0.79096 0.93558 0.0
C1309 C 0.73505 0.79896 0.87066 0.0
C1310 C 0.70058 0.73387 0.82174 0.0
C1311 C 0.67884 0.80462 0.85544 0.0
C1312 C 0.64692 0.73664 0.88249 0.0
H1313 H 0.74139 0.74954 0.82367 0.0
H1314 H 0.76019 0.78461 0.8549 0.0
H1315 H 0.74414 0.83777 0.87415 0.0
H1316 H 0.71347 0.84074 0.86141 0.0
H1317 H 0.63889 0.78828 0.87558 0.0
H1318 H 0.62163 0.75144 0.89434 0.0
H1319 H 0.63794 0.69794 0.86852 0.0
H1320 H 0.66707 0.69684 0.83131 0.0
H1321 H 0.68913 0.73637 1.00371 0.0
H1322 H 0.6833 0.78601 1.01381 0.0
H1323 H 0.65278 0.74964 0.71934 0.0
H1324 H 0.71286 0.78766 0.70207 0.0
C1325 C 0.25903 0.96546 0.83561 0.0
C1326 C 0.25412 0.97951 0.83456 0.0
C1327 C 0.23608 0.97159 0.85121 0.0
C1328 C 0.23099 0.9532 0.86145 0.0
N1329 N 0.2447 0.94908 0.85237 0.0
Co1330 Co 0.2431 0.9242 0.86168 0.0
N1331 N 0.21488 0.9107 0.86395 0.0
C1332 C 0.20431 0.91893 0.87131 0.0
C1333 C 0.18521 0.90621 0.87228 0.0
C1334 C 0.18362 0.88884 0.86567 0.0
C1335 C 0.20194 0.89193 0.86099 0.0
N1336 N 0.24147 0.89928 0.87089 0.0
C1337 C 0.22628 0.88138 0.86839 0.0
C1338 C 0.23161 0.86812 0.87904 0.0
C1339 C 0.25062 0.8781 0.88923 0.0
C1340 C 0.25593 0.8969 0.88415 0.0
N1341 N 0.27135 0.93819 0.85966 0.0
C1342 C 0.28255 0.93173 0.87515 0.0
C1343 C 0.30149 0.94433 0.86794 0.0
C1344 C 0.30215 0.95962 0.84669 0.0
C1345 C 0.28353 0.95549 0.842 0.0
N1346 N 0.24419 0.92761 0.92641 0.0
C1347 C 0.25094 0.92753 1.01782 0.0
C1348 C 0.2625 0.94345 0.99153 0.0
C1349 C 0.2587 0.94332 0.94614 0.0
C1350 C 0.23509 0.91241 0.99767 0.0
C1351 C 0.23204 0.91268 0.95241 0.0
N1352 N 0.24238 0.92011 0.79763 0.0
C1353 C 0.25603 0.91343 0.73455 0.0
C1354 C 0.2413 0.91147 0.70713 0.0
C1355 C 0.22742 0.91479 0.72622 0.0
C1356 C 0.2285 0.91956 0.77115 0.0
C1357 C 0.25578 0.91677 0.77937 0.0
H1358 H 0.21792 0.92244 0.78453 0.0
H1359 H 0.2666 0.9165 0.79907 0.0
H1360 H 0.26818 0.95552 0.9266 0.0
H1361 H 0.22038 0.90015 0.93832 0.0
C1362 C 0.21261 0.93869 0.87123 0.0
C1363 C 0.27769 0.96841 0.82258 0.0
C1364 C 0.20648 0.87658 0.85947 0.0
C1365 C 0.27453 0.91249 0.88688 0.0
H1366 H 0.26265 0.99394 0.82286 0.0
H1367 H 0.2274 0.97818 0.8535 0.0
H1368 H 0.17376 0.90922 0.87643 0.0
H1369 H 0.17047 0.87539 0.8655 0.0
H1370 H 0.22264 0.85285 0.88002 0.0
H1371 H 0.25955 0.87231 0.89849 0.0
H1372 H 0.31337 0.94226 0.87504 0.0
H1373 H 0.3148 0.97225 0.8356 0.0
H1374 H 0.27496 0.95555 1.00518 0.0
H1375 H 0.22535 0.9 1.01647 0.0
H1376 H 0.26798 0.91254 0.72199 0.0
H1377 H 0.21571 0.91366 0.70692 0.0
C1378 C 0.04704 0.29698 0.83378 0.0
C1379 C 0.03288 0.27804 0.83267 0.0
C1380 C 0.04063 0.26781 0.84955 0.0
C1381 C 0.05904 0.28097 0.85976 0.0
N1382 N 0.06338 0.29886 0.85037 0.0
Co1383 Co 0.08856 0.32193 0.859 0.0
N1384 N 0.10167 0.30685 0.86121 0.0
C1385 C 0.0932 0.28803 0.86844 0.0
C1386 C 0.1057 0.28137 0.86934 0.0
C1387 C 0.1232 0.29699 0.86275 0.0
C1388 C 0.1204 0.31241 0.85815 0.0
N1389 N 0.11374 0.34492 0.86887 0.0
C1390 C 0.13154 0.34735 0.86646 0.0
C1391 C 0.145 0.36581 0.87754 0.0
C1392 C 0.13524 0.37504 0.88798 0.0
C1393 C 0.11639 0.3618 0.88264 0.0
N1394 N 0.07519 0.3367 0.85553 0.0
C1395 C 0.08204 0.35455 0.86997 0.0
C1396 C 0.0698 0.36126 0.86183 0.0
C1397 C 0.05432 0.34666 0.84106 0.0
C1398 C 0.05798 0.33182 0.83758 0.0
N1399 N 0.08502 0.31974 0.92367 0.0
C1400 C 0.08422 0.32534 1.01528 0.0
C1401 C 0.06871 0.32172 0.98837 0.0
C1402 C 0.06928 0.31871 0.94282 0.0
C1403 C 0.09953 0.32484 0.99563 0.0
C1404 C 0.09968 0.32208 0.95016 0.0
N1405 N 0.09249 0.32507 0.79504 0.0
C1406 C 0.10271 0.34635 0.73293 0.0
C1407 C 0.09624 0.33119 0.70347 0.0
C1408 C 0.08853 0.31278 0.72106 0.0
C1409 C 0.0869 0.31004 0.76703 0.0
C1410 C 0.1004 0.343 0.77802 0.0
H1411 H 0.08084 0.29581 0.77989 0.0
H1412 H 0.10481 0.3551 0.799 0.0
H1413 H 0.05732 0.31637 0.92283 0.0
H1414 H 0.11223 0.32289 0.93634 0.0
C1415 C 0.07342 0.27685 0.86899 0.0
C1416 C 0.04437 0.31283 0.82015 0.0
C1417 C 0.136 0.3322 0.85676 0.0
C1418 C 0.1011 0.36532 0.88348 0.0
H1419 H 0.01854 0.27212 0.82044 0.0
H1420 H 0.03394 0.25252 0.85167 0.0
H1421 H 0.10247 0.26685 0.8736 0.0
H1422 H 0.13654 0.29708 0.86264 0.0
H1423 H 0.16025 0.37194 0.87835 0.0
H1424 H 0.14125 0.38979 0.89707 0.0
H1425 H 0.07215 0.37534 0.86848 0.0
H1426 H 0.04179 0.34686 0.82989 0.0
H1427 H 0.05633 0.32147 1.00226 0.0
H1428 H 0.1118 0.32746 1.01497 0.0
H1429 H 0.1095 0.36087 0.72135 0.0
H1430 H 0.08349 0.3006 0.69954 0.0
C1431 C 0.41876 0.04471 0.04805 0.0
C1432 C 0.4235 0.06364 0.0481 0.0
C1433 C 0.44149 0.07377 0.03131 0.0
C1434 C 0.44679 0.06056 1.02217 0.0
N1435 N 0.43326 0.04274 0.03213 0.0
Co1436 Co 0.43541 0.01962 1.02484 0.0
N1437 N 0.46361 0.03473 1.0227 0.0
C1438 C 0.47392 0.0535 1.0147 0.0
C1439 C 0.49309 0.06019 1.01391 0.0
C1440 C 0.49501 0.04465 1.02138 0.0
C1441 C 0.47681 0.02924 0.02638 0.0
N1442 N 0.43762 0.99658 1.01655 0.0
C1443 C 0.453 0.99419 1.01974 0.0
C1444 C 0.44797 0.9756 1.01001 0.0
C1445 C 0.42899 0.96627 0.9995 0.0
C1446 C 0.42338 0.97956 1.00353 0.0
N1447 N 0.40724 0.00487 0.02809 0.0
C1448 C 0.39626 0.98692 1.01418 0.0
C1449 C 0.37728 0.98029 1.02175 0.0
C1450 C 0.37637 0.99503 0.04157 0.0
C1451 C 0.39486 0.00988 0.04513 0.0
N1452 N 0.4341 0.02129 0.95991 0.0
C1453 C 0.42759 0.01427 0.86843 0.0
C1454 C 0.41566 0.01819 0.89451 0.0
C1455 C 0.41931 0.02192 0.93993 0.0
C1456 C 0.44355 0.01535 0.88893 0.0
C1457 C 0.44651 0.01881 0.9342 0.0
N1458 N 0.43623 0.01694 0.08899 0.0
C1459 C 0.4256 0.99607 0.15191 0.0
C1460 C 0.43573 0.01128 0.18065 0.0
C1461 C 0.44626 0.02957 0.16224 0.0
C1462 C 0.44645 0.03207 0.11626 0.0
C1463 C 0.42589 0.99919 0.10679 0.0
H1464 H 0.45468 0.04619 0.10278 0.0
H1465 H 0.41753 0.98704 0.08637 0.0
H1466 H 0.40956 0.0243 0.95925 0.0
H1467 H 0.45837 0.01837 0.94856 0.0
C1468 C 0.4653 0.06464 1.01327 0.0
C1469 C 0.40022 0.02896 0.06183 0.0
C1470 C 0.47267 0.00948 0.0286 0.0
C1471 C 0.40458 0.97604 1.00192 0.0
H1472 H 0.41497 0.06958 0.05946 0.0
H1473 H 0.45005 0.08903 0.02848 0.0
H1474 H 0.50435 0.07469 1.0091 0.0
H1475 H 0.50829 0.04461 1.02177 0.0
H1476 H 0.4571 0.96948 1.01002 0.0
H1477 H 0.42024 0.95142 0.99115 0.0
H1478 H 0.36557 0.96617 1.01538 0.0
H1479 H 0.36361 0.99492 0.0521 0.0
H1480 H 0.40308 0.01751 0.88061 0.0
H1481 H 0.45351 0.01295 0.87033 0.0
H1482 H 0.41744 0.98167 0.16413 0.0
H1483 H 0.45403 0.04189 0.18307 0.0
C1484 C 0.96616 0.37638 0.04693 0.0
C1485 C 0.9472 0.36224 0.04688 0.0
C1486 C 0.93717 0.37015 0.02964 0.0
C1487 C 0.95047 0.38862 1.02038 0.0
N1488 N 0.96824 0.39284 0.0307 0.0
Co1489 Co 0.99144 0.41805 1.02378 0.0
N1490 N 0.97643 0.43122 1.02106 0.0
C1491 C 0.9577 0.42285 1.01263 0.0
C1492 C 0.95109 0.43539 1.01154 0.0
C1493 C 0.96666 0.45281 1.01926 0.0
C1494 C 0.98199 0.44992 1.02468 0.0
N1495 N 0.01459 0.44326 1.01587 0.0
C1496 C 0.01705 0.46104 1.01898 0.0
C1497 C 0.03569 0.47457 1.00958 0.0
C1498 C 0.04501 0.46489 0.99938 0.0
C1499 C 0.03165 0.44601 1.00325 0.0
N1500 N 1.00613 0.40458 0.02754 0.0
C1501 C 0.02412 0.4115 1.01405 0.0
C1502 C 0.0307 0.39915 1.02223 0.0
C1503 C 0.01585 0.38354 0.042 0.0
C1504 C 1.00102 0.38724 0.04489 0.0
N1505 N 0.98997 0.41509 0.95899 0.0
C1506 C 0.99669 0.4151 0.86764 0.0
C1507 C 0.99257 0.39929 0.89407 0.0
C1508 C 0.989 0.39947 0.93943 0.0
C1509 C 0.99603 0.43026 0.88772 0.0
C1510 C 0.99271 0.43001 0.93298 0.0
N1511 N 0.99382 0.42139 0.0879 0.0
C1512 C 0.01423 0.43076 0.15154 0.0
C1513 C 0.9988 0.42539 0.17972 0.0
C1514 C 0.98067 0.41805 0.16076 0.0
C1515 C 0.97851 0.4163 0.11469 0.0
C1516 C 0.01145 0.42854 0.10625 0.0
H1517 H 0.96449 0.41062 0.10074 0.0
H1518 H 0.02373 0.4325 0.08616 0.0
H1519 H 0.98644 0.38734 0.95905 0.0
H1520 H 0.99339 0.44245 0.94711 0.0
C1521 C 0.94649 0.40309 1.01117 0.0
C1522 C 0.98186 0.37359 0.06127 0.0
C1523 C 1.00178 0.46548 0.02738 0.0
C1524 C 0.03512 0.4307 1.00186 0.0
H1525 H 0.94114 0.34781 0.05857 0.0
H1526 H 0.92191 0.3635 0.02666 0.0
H1527 H 0.93663 0.43223 1.00641 0.0
H1528 H 0.96677 0.46616 1.01956 0.0
H1529 H 0.04187 0.48983 1.00958 0.0
H1530 H 0.05989 0.47096 0.99134 0.0
H1531 H 0.04484 0.40152 1.01637 0.0
H1532 H 0.01589 0.3709 0.05296 0.0
H1533 H 0.99296 0.3872 0.88045 0.0
H1534 H 0.99863 0.44262 0.86878 0.0
H1535 H 0.02851 0.4367 0.16436 0.0
H1536 H 0.96822 0.41338 0.18123 0.0
C1537 C 0.63566 0.5899 0.03992 0.0
C1538 C 0.64969 0.58493 0.03904 0.0
C1539 C 0.64158 0.56706 1.02144 0.0
C1540 C 0.62309 0.56203 1.01279 0.0
N1541 N 0.61906 0.57563 1.02382 0.0
Co1542 Co 0.59386 0.57377 1.01819 0.0
N1543 N 0.58051 0.5456 1.01538 0.0
C1544 C 0.5887 0.53516 1.00605 0.0
C1545 C 0.57605 0.51603 1.00559 0.0
C1546 C 0.55877 0.5143 1.01472 0.0
C1547 C 0.56184 0.53257 1.02029 0.0
N1548 N 0.56867 0.57188 1.01177 0.0
C1549 C 0.55089 0.55663 1.01571 0.0
C1550 C 0.53734 0.56179 1.00693 0.0
C1551 C 0.54703 0.58079 0.99654 0.0
C1552 C 0.56594 0.58624 0.99957 0.0
N1553 N 0.60754 0.6019 1.02206 0.0
C1554 C 0.60063 0.61308 1.00919 0.0
C1555 C 0.61311 0.63195 1.01746 0.0
C1556 C 0.62877 0.63258 0.03665 0.0
C1557 C 0.62499 0.61402 0.03916 0.0
N1558 N 0.5962 0.57523 0.95304 0.0
C1559 C 0.59593 0.58032 0.86076 0.0
C1560 C 0.61171 0.59262 0.88654 0.0
C1561 C 0.61168 0.58968 0.93242 0.0
C1562 C 0.58063 0.56515 0.88218 0.0
C1563 C 0.58102 0.56288 0.92784 0.0
N1564 N 0.59091 0.57262 0.0825 0.0
C1565 C 0.58075 0.58246 0.14681 0.0
C1566 C 0.58503 0.57123 0.17381 0.0
C1567 C 0.59273 0.56092 0.15445 0.0
C1568 C 0.59539 0.56165 0.10847 0.0
C1569 C 0.58391 0.58307 0.10165 0.0
H1570 H 0.60096 0.55335 0.0939 0.0
H1571 H 0.58057 0.59206 0.08224 0.0
H1572 H 0.62394 0.59946 0.95139 0.0
H1573 H 0.56855 0.55146 0.94278 0.0
C1574 C 0.60845 0.54362 1.00373 0.0
C1575 C 0.63866 0.60838 0.05495 0.0
C1576 C 0.54645 0.53696 1.02462 0.0
C1577 C 0.58134 0.60498 0.99781 0.0
H1578 H 0.66418 0.59316 0.05047 0.0
H1579 H 0.6481 0.55835 1.0179 0.0
H1580 H 0.57907 0.50466 1.00014 0.0
H1581 H 0.54538 0.50111 1.01603 0.0
H1582 H 0.52208 0.55275 1.00758 0.0
H1583 H 0.54098 0.58965 0.98896 0.0
H1584 H 0.61077 0.64378 1.01212 0.0
H1585 H 0.64149 0.6452 0.04753 0.0
H1586 H 0.62397 0.60445 0.87139 0.0
H1587 H 0.56803 0.55538 0.86395 0.0
H1588 H 0.5751 0.59089 0.16064 0.0
H1589 H 0.59635 0.55218 0.17451 0.0
C1590 C 1.00157 0.61496 0.54604 0.0
C1591 C 0.01654 0.63341 0.54271 0.0
C1592 C 0.03137 0.63238 0.52383 0.0
C1593 C 0.02467 0.61339 0.51658 0.0
N1594 N 1.0066 0.60247 0.52985 0.0
Co1595 Co 0.9917 0.57431 0.52612 0.0
N1596 N 0.01474 0.57199 0.51839 0.0
C1597 C 0.03188 0.58622 0.50596 0.0
C1598 C 0.0451 0.58051 0.50182 0.0
C1599 C 0.0356 0.56148 0.51165 0.0
C1600 C 0.01701 0.55654 0.52118 0.0
N1601 N 0.97651 0.54611 0.52328 0.0
C1602 C 0.98193 0.53285 0.52685 0.0
C1603 C 0.9665 0.51469 0.52162 0.0
C1604 C 0.951 0.51668 0.51409 0.0
C1605 C 0.95776 0.53585 0.5151 0.0
N1606 N 0.96859 0.57655 0.53297 0.0
C1607 C 0.95074 0.56298 0.52324 0.0
C1608 C 0.9375 0.56819 0.53263 0.0
C1609 C 0.94761 0.5862 0.54918 0.0
C1610 C 0.96661 0.5911 0.54857 0.0
N1611 N 0.99028 0.5759 0.46139 0.0
C1612 C 0.99605 0.58219 0.36988 0.0
C1613 C 0.99581 0.56657 0.38989 0.0
C1614 C 0.99296 0.56371 0.43533 0.0
C1615 C 0.99219 0.594 0.39636 0.0
C1616 C 0.98912 0.59047 0.44188 0.0
N1617 N 0.99393 0.57315 0.59025 0.0
C1618 C 0.98038 0.56292 0.66263 0.0
C1619 C 0.9984 0.57355 0.68198 0.0
C1620 C 0.01403 0.5837 0.6545 0.0
C1621 C 0.01149 0.58344 0.60907 0.0
C1622 C 0.97847 0.56279 0.61656 0.0
H1623 H 0.02386 0.59189 0.58929 0.0
H1624 H 0.96454 0.55449 0.60225 0.0
H1625 H 0.99386 0.55206 0.44947 0.0
H1626 H 0.98653 0.59999 0.46154 0.0
C1627 C 0.03553 0.60503 0.50462 0.0
C1628 C 0.98237 0.60986 0.56131 0.0
C1629 C 1.00165 0.5369 0.52954 0.0
C1630 C 0.94666 0.54451 0.51407 0.0
H1631 H 0.01666 0.64624 0.55265 0.0
H1632 H 0.04555 0.64404 0.5177 0.0
H1633 H 0.05998 0.58922 0.49375 0.0
H1634 H 0.04162 0.55225 0.51135 0.0
H1635 H 0.96649 0.50139 0.52203 0.0
H1636 H 0.93649 0.50546 0.50925 0.0
H1637 H 0.92222 0.55956 0.5301 0.0
H1638 H 0.94155 0.59457 0.56081 0.0
H1639 H 0.99863 0.557 0.37083 0.0
H1640 H 0.99177 0.60599 0.38213 0.0
H1641 H 0.96793 0.55478 0.68289 0.0
H1642 H 0.02814 0.59224 0.66813 0.0
C1643 C 0.39745 0.38795 0.54787 0.0
C1644 C 0.37895 0.38433 0.54455 0.0
C1645 C 0.37987 0.40019 0.52579 0.0
C1646 C 0.39884 0.41261 0.51855 0.0
N1647 N 0.40982 0.40551 0.53171 0.0
Co1648 Co 0.43798 0.419 0.52865 0.0
N1649 N 0.44013 0.4443 0.52238 0.0
C1650 C 0.42592 0.44721 0.50975 0.0
C1651 C 0.4315 0.46615 0.50713 0.0
C1652 C 0.45042 0.47568 0.51829 0.0
C1653 C 0.45543 0.46201 0.52699 0.0
N1654 N 0.46618 0.4322 0.52662 0.0
C1655 C 0.4793 0.45083 0.53191 0.0
C1656 C 0.49755 0.45379 0.52662 0.0
C1657 C 0.49574 0.4365 0.51736 0.0
C1658 C 0.47658 0.42396 0.51745 0.0
N1659 N 0.43591 0.3937 0.53407 0.0
C1660 C 0.44958 0.38966 0.52371 0.0
C1661 C 0.44453 0.3712 0.5326 0.0
C1662 C 0.42656 0.36309 0.54953 0.0
C1663 C 0.42148 0.37706 0.54957 0.0
N1664 N 0.43675 0.41678 0.46366 0.0
C1665 C 0.43014 0.41825 0.37271 0.0
C1666 C 0.44614 0.43293 0.39351 0.0
C1667 C 0.4491 0.432 0.43863 0.0
C1668 C 0.41849 0.40197 0.39779 0.0
C1669 C 0.42213 0.40146 0.44306 0.0
N1670 N 0.43874 0.4217 0.59291 0.0
C1671 C 0.44898 0.41833 0.66527 0.0
C1672 C 0.43822 0.42556 0.68461 0.0
C1673 C 0.42788 0.43083 0.65717 0.0
C1674 C 0.42821 0.42866 0.61179 0.0
C1675 C 0.44918 0.41665 0.61917 0.0
H1676 H 0.41969 0.43251 0.59208 0.0
H1677 H 0.45762 0.41121 0.60476 0.0
H1678 H 0.46091 0.44417 0.45352 0.0
H1679 H 0.41251 0.38905 0.46182 0.0
C1680 C 0.40714 0.43194 0.5074 0.0
C1681 C 0.40275 0.37397 0.56313 0.0
C1682 C 0.47504 0.46631 0.5363 0.0
C1683 C 0.46805 0.40424 0.51506 0.0
H1684 H 0.36617 0.37156 0.55451 0.0
H1685 H 0.36815 0.40264 0.51989 0.0
H1686 H 0.42276 0.47233 0.49937 0.0
H1687 H 0.45952 0.49093 0.51943 0.0
H1688 H 0.51079 0.46712 0.52819 0.0
H1689 H 0.50707 0.4334 0.51211 0.0
H1690 H 0.45329 0.3647 0.52974 0.0
H1691 H 0.4184 0.34864 0.56114 0.0
H1692 H 0.45611 0.44545 0.37534 0.0
H1693 H 0.40616 0.39006 0.38311 0.0
H1694 H 0.45721 0.41412 0.68554 0.0
H1695 H 0.4192 0.43623 0.6708 0.0
C1696 C 0.62488 0.01201 0.54828 0.0
C1697 C 0.62874 0.99729 0.54504 0.0
C1698 C 0.61308 0.98232 0.5258 0.0
C1699 C 0.60053 0.98869 0.51823 0.0
N1700 N 0.60735 0.00669 0.53162 0.0
Co1701 Co 0.59357 0.02109 0.52799 0.0
N1702 N 0.56845 0.99777 0.52007 0.0
C1703 C 0.56591 0.98081 0.50736 0.0
C1704 C 0.54708 0.96735 0.50291 0.0
C1705 C 0.5372 0.9765 0.51284 0.0
C1706 C 0.55057 0.99513 0.52274 0.0
N1707 N 0.58007 0.03582 0.5255 0.0
C1708 C 0.56131 0.03005 0.52918 0.0
C1709 C 0.55821 0.04527 0.52419 0.0
C1710 C 0.57554 0.06097 0.5167 0.0
C1711 C 0.58823 0.05455 0.51749 0.0
N1712 N 0.6187 0.04448 0.53489 0.0
C1713 C 0.6226 0.06222 0.52524 0.0
C1714 C 0.64093 0.07572 0.53496 0.0
C1715 C 0.64913 0.06591 0.55171 0.0
C1716 C 0.63534 0.04681 0.55083 0.0
N1717 N 0.59643 0.02257 0.46307 0.0
C1718 C 0.59591 0.01544 0.3717 0.0
C1719 C 0.58093 0.01632 0.39212 0.0
C1720 C 0.58142 0.01983 0.43734 0.0
C1721 C 0.61185 0.01962 0.39777 0.0
C1722 C 0.61192 0.0234 0.44313 0.0
N1723 N 0.59022 0.01864 0.59218 0.0
C1724 C 0.59314 0.03174 0.66495 0.0
C1725 C 0.58583 0.01364 0.68382 0.0
C1726 C 0.58068 0.99822 0.65591 0.0
C1727 C 0.58312 1.00102 0.61059 0.0
C1728 C 0.59507 0.03392 0.6189 0.0
H1729 H 0.57943 0.98879 0.59055 0.0
H1730 H 0.60059 0.0479 0.60493 0.0
H1731 H 0.56906 0.01925 0.45166 0.0
H1732 H 0.62414 0.02599 0.46246 0.0
C1733 C 0.58135 0.97756 0.50605 0.0
C1734 C 0.63867 0.03128 0.56394 0.0
C1735 C 0.54589 0.0102 0.53142 0.0
C1736 C 0.60795 0.06594 0.51629 0.0
H1737 H 0.64154 0.99741 0.55531 0.0
H1738 H 0.61085 0.96825 0.51968 0.0
H1739 H 0.54118 0.95253 0.49458 0.0
H1740 H 0.52193 0.97021 0.51239 0.0
H1741 H 0.54477 0.04499 0.52465 0.0
H1742 H 0.57855 0.0754 0.51197 0.0
H1743 H 0.64727 0.09097 0.53271 0.0
H1744 H 0.66352 0.07226 0.56381 0.0
H1745 H 0.56849 0.01371 0.3735 0.0
H1746 H 0.62383 0.01911 0.38388 0.0
H1747 H 0.59724 0.04405 0.68555 0.0
H1748 H 0.5752 0.98406 0.66915 0.0
C1749 C 0.28478 0.33157 0.33897 0.0
C1750 C 0.30333 0.34633 0.34239 0.0
C1751 C 0.30256 0.3611 0.36255 0.0
C1752 C 0.28363 0.35455 0.37043 0.0
N1753 N 0.27253 0.33664 0.35643 0.0
Co1754 Co 0.24438 0.322 0.36011 0.0
N1755 N 0.24233 0.34511 0.3688 0.0
C1756 C 0.25667 0.36211 0.38169 0.0
C1757 C 0.25117 0.37548 0.38592 0.0
C1758 C 0.23217 0.36623 0.37568 0.0
C1759 C 0.22701 0.34761 0.36592 0.0
N1760 N 0.21619 0.307 0.36279 0.0
C1761 C 0.20304 0.31259 0.35959 0.0
C1762 C 0.18483 0.29724 0.3649 0.0
C1763 C 0.18669 0.28164 0.3721 0.0
C1764 C 0.20583 0.28825 0.37084 0.0
N1765 N 0.24635 0.29882 0.35234 0.0
C1766 C 0.23281 0.28102 0.36241 0.0
C1767 C 0.23799 0.26776 0.35281 0.0
C1768 C 0.25592 0.27784 0.33561 0.0
C1769 C 0.26073 0.29679 0.33587 0.0
N1770 N 0.24589 0.32022 0.42487 0.0
C1771 C 0.25227 0.3259 0.5165 0.0
C1772 C 0.23662 0.32567 0.4966 0.0
C1773 C 0.23373 0.32287 0.45113 0.0
C1774 C 0.26404 0.32205 0.4898 0.0
C1775 C 0.26047 0.31901 0.44424 0.0
N1776 N 0.24337 0.32472 0.29606 0.0
C1777 C 0.23335 0.31196 0.22296 0.0
C1778 C 0.24386 0.3302 0.20471 0.0
C1779 C 0.25406 0.3455 0.23297 0.0
C1780 C 0.25376 0.34246 0.27816 0.0
C1781 C 0.23311 0.30954 0.26893 0.0
H1782 H 0.26223 0.35461 0.29848 0.0
H1783 H 0.22481 0.29545 0.28253 0.0
H1784 H 0.22209 0.32385 0.43713 0.0
H1785 H 0.26998 0.31646 0.42443 0.0
C1786 C 0.27544 0.36552 0.383 0.0
C1787 C 0.27925 0.3125 0.32189 0.0
C1788 C 0.20728 0.33238 0.35742 0.0
C1789 C 0.21437 0.27702 0.37183 0.0
H1790 H 0.31601 0.34638 0.33152 0.0
H1791 H 0.31435 0.37518 0.3689 0.0
H1792 H 0.26001 0.39031 0.39422 0.0
H1793 H 0.2231 0.37242 0.37589 0.0
H1794 H 0.17159 0.29736 0.36489 0.0
H1795 H 0.17539 0.26717 0.37702 0.0
H1796 H 0.22939 0.25249 0.35563 0.0
H1797 H 0.26435 0.27185 0.32386 0.0
H1798 H 0.22708 0.32849 0.51576 0.0
H1799 H 0.27605 0.32162 0.50389 0.0
H1800 H 0.22533 0.29974 0.20194 0.0
H1801 H 0.26262 0.35975 0.22012 0.0
C1802 C 0.6803 0.95453 0.33982 0.0
C1803 C 0.66499 0.95749 0.34254 0.0
C1804 C 0.65055 0.94168 0.36263 0.0
C1805 C 0.65782 0.92994 0.37107 0.0
N1806 N 0.6759 0.93742 0.35756 0.0
Co1807 Co 0.69152 0.92488 0.36127 0.0
N1808 N 0.66904 0.89941 0.37153 0.0
C1809 C 0.65192 0.89621 0.38513 0.0
C1810 C 0.63916 0.87726 0.39098 0.0
C1811 C 0.64892 0.86802 0.38097 0.0
C1812 C 0.66721 0.88188 0.36966 0.0
N1813 N 0.70733 0.91249 0.36205 0.0
C1814 C 0.70222 0.89389 0.3586 0.0
C1815 C 0.718 0.8916 0.36142 0.0
C1816 C 0.73342 0.90931 0.36731 0.0
C1817 C 0.72627 0.9214 0.36775 0.0
N1818 N 0.71411 0.95042 0.35295 0.0
C1819 C 0.7322 0.95523 0.36172 0.0
C1820 C 0.74491 0.97385 0.35214 0.0
C1821 C 0.7342 0.98122 0.33626 0.0
C1822 C 0.71542 0.96664 0.33725 0.0
N1823 N 0.69371 0.9283 0.42636 0.0
C1824 C 0.68622 0.92546 0.51839 0.0
C1825 C 0.69425 0.91559 0.49805 0.0
C1826 C 0.69681 0.91635 0.45239 0.0
C1827 C 0.68465 0.93883 0.49181 0.0
C1828 C 0.68937 0.94066 0.44681 0.0
N1829 N 0.68844 0.92101 0.29746 0.0
C1830 C 0.701 0.9245 0.22399 0.0
C1831 C 0.68262 0.91632 0.20618 0.0
C1832 C 0.66735 0.91041 0.23509 0.0
C1833 C 0.67054 0.91291 0.2802 0.0
C1834 C 0.7036 0.92663 0.26983 0.0
H1835 H 0.65836 0.90842 0.30099 0.0
H1836 H 0.71782 0.93301 0.28289 0.0
H1837 H 0.70065 0.90658 0.43879 0.0
H1838 H 0.68842 0.95148 0.42845 0.0
C1839 C 0.64761 0.91094 0.38506 0.0
C1840 C 0.69925 0.9687 0.32346 0.0
C1841 C 0.6826 0.87795 0.35891 0.0
C1842 C 0.73697 0.94119 0.36917 0.0
H1843 H 0.6644 0.96983 0.33143 0.0
H1844 H 0.63626 0.93882 0.36883 0.0
H1845 H 0.62434 0.87085 0.3999 0.0
H1846 H 0.64319 0.85283 0.38184 0.0
H1847 H 0.71829 0.87846 0.36076 0.0
H1848 H 0.7481 0.91292 0.37048 0.0
H1849 H 0.76024 0.98091 0.3538 0.0
H1850 H 0.73969 0.99557 0.32448 0.0
H1851 H 0.6983 0.90682 0.51643 0.0
H1852 H 0.67929 0.9476 0.50474 0.0
H1853 H 0.71327 0.92952 0.20274 0.0
H1854 H 0.65291 0.90384 0.22295 0.0
C1855 C 0.05643 0.72702 0.34205 0.0
C1856 C 0.05364 0.70882 0.3382 0.0
C1857 C 0.06942 0.70923 0.35616 0.0
C1858 C 0.08112 0.72761 0.36983 0.0
N1859 N 0.07359 0.73868 0.36147 0.0
Co1860 Co 0.08683 0.76669 0.36931 0.0
N1861 N 0.11236 0.76921 0.37247 0.0
C1862 C 0.11558 0.75487 0.38166 0.0
C1863 C 0.13462 0.76075 0.38335 0.0
C1864 C 0.14384 0.77998 0.37536 0.0
C1865 C 0.12992 0.78486 0.36922 0.0
N1866 N 0.09954 0.79471 0.37539 0.0
C1867 C 0.11802 0.80824 0.36994 0.0
C1868 C 0.12061 0.82614 0.37872 0.0
C1869 C 0.10327 0.82363 0.39076 0.0
C1870 C 0.09104 0.80443 0.38861 0.0
N1871 N 0.06142 0.76424 0.36845 0.0
C1872 C 0.05701 0.77663 0.38636 0.0
C1873 C 0.03783 0.77001 0.38686 0.0
C1874 C 0.02971 0.75234 0.36797 0.0
C1875 C 0.04452 0.74936 0.35637 0.0
N1876 N 0.08514 0.76378 0.43412 0.0
C1877 C 0.08557 0.75736 0.52544 0.0
C1878 C 0.10065 0.7731 0.50502 0.0
C1879 C 0.10021 0.776 0.45971 0.0
C1880 C 0.06988 0.74521 0.4993 0.0
C1881 C 0.06988 0.74875 0.45387 0.0
N1882 N 0.08902 0.76906 0.30484 0.0
C1883 C 0.08389 0.77947 0.2342 0.0
C1884 C 0.09219 0.77011 0.21264 0.0
C1885 C 0.09873 0.76032 0.23806 0.0
C1886 C 0.09684 0.7598 0.28354 0.0
C1887 C 0.08264 0.77896 0.28065 0.0
H1888 H 0.10155 0.7515 0.30121 0.0
H1889 H 0.07639 0.78631 0.29696 0.0
H1890 H 0.11248 0.78788 0.4453 0.0
H1891 H 0.05772 0.73905 0.43456 0.0
C1892 C 0.10051 0.73591 0.38082 0.0
C1893 C 0.04226 0.7329 0.33135 0.0
C1894 C 0.13378 0.80454 0.36314 0.0
C1895 C 0.07137 0.7952 0.39537 0.0
H1896 H 0.04168 0.69654 0.32383 0.0
H1897 H 0.07245 0.69771 0.35668 0.0
H1898 H 0.14106 0.75204 0.38826 0.0
H1899 H 0.15906 0.78932 0.37437 0.0
H1900 H 0.13378 0.83956 0.37818 0.0
H1901 H 0.09999 0.83453 0.39988 0.0
H1902 H 0.03065 0.77745 0.39774 0.0
H1903 H 0.01473 0.743 0.36186 0.0
H1904 H 0.11308 0.78287 0.52373 0.0
H1905 H 0.05773 0.73305 0.51379 0.0
H1906 H 0.07856 0.78714 0.21544 0.0
H1907 H 0.10491 0.75265 0.22273 0.0
C1908 C 0.32784 0.07094 0.45805 0.0
C1909 C 0.33723 0.08568 0.48904 0.0
C1910 C 0.33343 0.0734 0.41331 0.0
C1911 C 0.3486 0.09069 0.39775 0.0
H1912 H 0.31569 0.05763 0.46808 0.0
H1913 H 0.32534 0.06193 0.39042 0.0
S1914 S 0.3797 0.13265 0.46632 0.0
N1915 N 0.36394 0.1174 0.5014 0.0
N1916 N 0.37405 0.12203 0.41785 0.0
C1917 C 0.35863 0.10515 0.42876 0.0
C1918 C 0.35307 0.10265 0.47415 0.0
C1919 C 0.93206 0.26921 0.46832 0.0
C1920 C 0.92971 0.2519 0.4844 0.0
C1921 C 0.92885 0.27148 0.42352 0.0
C1922 C 0.92318 0.25654 0.39297 0.0
H1923 H 0.93572 0.28085 0.49085 0.0
H1924 H 0.93023 0.28484 0.41309 0.0
S1925 S 0.91789 0.20935 0.4172 0.0
N1926 N 0.92317 0.22025 0.46534 0.0
N1927 N 0.91756 0.22454 0.38162 0.0
C1928 C 0.92177 0.23951 0.4084 0.0
C1929 C 0.92491 0.23719 0.45387 0.0
C1930 C 0.77391 0.68805 0.45123 0.0
C1931 C 0.75916 0.67915 0.48226 0.0
C1932 C 0.77135 0.68242 0.40676 0.0
C1933 C 0.75396 0.66743 0.39095 0.0
H1934 H 0.78769 0.69942 0.46152 0.0
H1935 H 0.78325 0.68988 0.38455 0.0
S1936 S 0.71075 0.63922 0.45884 0.0
N1937 N 0.72639 0.65461 0.49393 0.0
N1938 N 0.72164 0.64381 0.41069 0.0
C1939 C 0.73893 0.65862 0.42149 0.0
C1940 C 0.74152 0.6645 0.46691 0.0
C1941 C 0.0906 0.32108 0.0945 0.0
C1942 C 0.08505 0.33016 0.06326 0.0
C1943 C 0.09344 0.3266 0.13903 0.0
C1944 C 0.09108 0.34163 0.15459 0.0
H1945 H 0.09297 0.30968 0.08434 0.0
H1946 H 0.09768 0.31903 0.16147 0.0
S1947 S 0.07681 0.37027 0.08605 0.0
N1948 N 0.07714 0.3549 0.05106 0.0
N1949 N 0.08275 0.36548 0.13446 0.0
C1950 C 0.08515 0.35061 0.12382 0.0
C1951 C 0.0821 0.34486 0.07836 0.0
C1952 C 0.68309 0.74753 0.13783 0.0
C1953 C 0.66802 0.74964 0.15412 0.0
C1954 C 0.68817 0.75041 0.09279 0.0
C1955 C 0.67836 0.75549 0.0623 0.0
H1956 H 0.69148 0.74439 0.16034 0.0
H1957 H 0.70028 0.74932 0.0821 0.0
S1958 S 0.63597 0.75983 0.08725 0.0
N1959 N 0.64223 0.75523 0.13544 0.0
N1960 N 0.65137 0.7602 0.05129 0.0
C1961 C 0.66261 0.75657 0.07799 0.0
C1962 C 0.65756 0.75377 0.12366 0.0
C1963 C 0.25583 0.90545 0.12495 0.0
C1964 C 0.26164 0.92008 0.15619 0.0
C1965 C 0.25302 0.90826 0.08051 0.0
C1966 C 0.25557 0.92577 0.06508 0.0
H1967 H 0.25322 0.89158 0.1351 0.0
H1968 H 0.24861 0.89645 0.05806 0.0
S1969 S 0.2707 0.96874 0.13385 0.0
N1970 N 0.27018 0.95286 0.16865 0.0
N1971 N 0.26445 0.95807 0.08543 0.0
C1972 C 0.26179 0.94068 0.09589 0.0
C1973 C 0.26489 0.93785 0.14125 0.0
C1974 C 0.67092 0.93225 0.63433 0.0
C1975 C 0.6664 0.9154 0.65751 0.0
C1976 C 0.67768 0.9355 0.59065 0.0
C1977 C 0.67938 0.92171 0.56602 0.0
H1978 H 0.66933 0.94335 0.64949 0.0
H1979 H 0.68163 0.94917 0.57656 0.0
S1980 S 0.66849 0.87433 0.60885 0.0
N1981 N 0.66554 0.88503 0.65152 0.0
N1982 N 0.67402 0.88942 0.56784 0.0
C1983 C 0.67408 0.90438 0.58792 0.0
C1984 C 0.66861 0.90164 0.6336 0.0
C1985 C 0.09218 0.76876 0.60394 0.0
C1986 C 0.08665 0.75385 0.57358 0.0
C1987 C 0.09501 0.76651 0.64873 0.0
C1988 C 0.09268 0.74927 0.66542 0.0
H1989 H 0.09446 0.78241 0.59291 0.0
H1990 H 0.09917 0.7785 0.67048 0.0
S1991 S 0.07854 0.70578 0.59947 0.0
N1992 N 0.07884 0.72113 0.56338 0.0
N1993 N 0.08446 0.71694 0.64731 0.0
C1994 C 0.08683 0.7341 0.63551 0.0
C1995 C 0.08378 0.73637 0.58978 0.0
C1996 C 0.24151 0.32167 0.59558 0.0
C1997 C 0.25622 0.33066 0.56452 0.0
C1998 C 0.24417 0.32711 0.64015 0.0
C1999 C 0.26162 0.34199 0.65596 0.0
H2000 H 0.22769 0.31038 0.58523 0.0
H2001 H 0.2323 0.31959 0.66243 0.0
S2002 S 0.30473 0.37038 0.58793 0.0
N2003 N 0.289 0.35516 0.55274 0.0
N2004 N 0.29394 0.36563 0.63621 0.0
C2005 C 0.2766 0.35089 0.62536 0.0
C2006 C 0.27391 0.3452 0.57985 0.0
C2007 C 0.90533 0.65227 0.91614 0.0
C2008 C 0.92018 0.66163 0.88554 0.0
C2009 C 0.9078 0.65725 0.96103 0.0
C2010 C 0.92517 0.67199 0.97753 0.0
H2011 H 0.89159 0.64105 0.90519 0.0
H2012 H 0.89588 0.64946 0.98301 0.0
S2013 S 0.96841 0.70147 0.91066 0.0
N2014 N 0.95288 0.68648 0.8748 0.0
N2015 N 0.95745 0.69612 0.95875 0.0
C2016 C 0.94023 0.68136 0.94726 0.0
C2017 C 0.93774 0.67613 0.9015 0.0
C2018 C 0.34677 0.269 0.97088 0.0
C2019 C 0.33198 0.25152 0.98663 0.0
C2020 C 0.35221 0.27156 0.92606 0.0
C2021 C 0.34304 0.25674 0.89518 0.0
H2022 H 0.35468 0.28057 0.99367 0.0
H2023 H 0.36407 0.28504 0.91584 0.0
S2024 S 0.30154 0.20917 0.9185 0.0
N2025 N 0.3071 0.21983 0.96692 0.0
N2026 N 0.31692 0.22465 0.88318 0.0
C2027 C 0.32758 0.23954 0.91029 0.0
C2028 C 0.32217 0.23693 0.95577 0.0
C2029 C 0.74021 0.07977 0.92098 0.0
C2030 C 0.75622 0.09013 0.89394 0.0
C2031 C 0.74198 0.07605 0.96545 0.0
C2032 C 0.75987 0.08293 0.98579 0.0
H2033 H 0.72608 0.07478 0.90815 0.0
H2034 H 0.72905 0.06789 0.98416 0.0
S2035 S 0.80644 0.10941 0.9289 0.0
N2036 N 0.7907 0.1053 0.88994 0.0
N2037 N 0.79404 0.10013 0.97424 0.0
C2038 C 0.77603 0.09288 0.95887 0.0
C2039 C 0.77421 0.09611 0.91306 0.0
C2040 C 0.01772 0.43388 0.80414 0.0
C2041 C 1.00268 0.41659 0.8202 0.0
C2042 C 0.02306 0.43634 0.75952 0.0
C2043 C 0.01381 0.42158 0.72873 0.0
H2044 H 0.02541 0.44577 0.82624 0.0
H2045 H 0.03446 0.45005 0.74892 0.0
S2046 S 0.97364 0.37342 0.75291 0.0
N2047 N 0.97863 0.38436 0.80103 0.0
N2048 N 0.98893 0.38893 0.71745 0.0
C2049 C 0.99912 0.40403 0.74432 0.0
C2050 C 0.99353 0.40155 0.78986 0.0
C2051 C 0.59564 0.60299 0.74973 0.0
C2052 C 0.59082 0.58819 0.71924 0.0
C2053 C 0.59786 0.6006 0.79513 0.0
C2054 C 0.59501 0.5832 0.81204 0.0
H2055 H 0.59792 0.61659 0.73833 0.0
H2056 H 0.60145 0.61234 0.81731 0.0
S2057 S 0.58198 0.53994 0.74631 0.0
N2058 N 0.58317 0.5555 0.70963 0.0
N2059 N 0.58719 0.55101 0.79424 0.0
C2060 C 0.59013 0.56833 0.78185 0.0
C2061 C 0.58809 0.57082 0.73578 0.0
C2062 C 0.42602 0.99327 0.80545 0.0
C2063 C 0.42323 0.00805 0.821 0.0
C2064 C 0.4233 0.98774 0.76092 0.0
C2065 C 0.41743 0.99653 0.72962 0.0
H2066 H 0.43049 0.9859 0.8279 0.0
H2067 H 0.426 0.97655 0.7508 0.0
S2068 S 0.40804 0.03591 0.75228 0.0
N2069 N 0.41419 0.03136 0.80072 0.0
N2070 N 0.40877 0.02073 0.71735 0.0
C2071 C 0.41406 0.01097 0.74468 0.0
C2072 C 0.417 0.01675 0.79015 0.0
C2073 C 0.5766 0.99417 0.30896 0.0
C2074 C 0.59407 0.00917 0.32436 0.0
C2075 C 0.57379 0.98859 0.26448 0.0
C2076 C 0.58836 0.99756 0.2331 0.0
H2077 H 0.56483 0.98667 0.33151 0.0
H2078 H 0.55997 0.97721 0.25446 0.0
S2079 S 0.63686 0.03756 0.25537 0.0
N2080 N 0.62625 0.03289 0.30388 0.0
N2081 N 0.62104 0.02218 0.22057 0.0
C2082 C 0.60608 0.01223 0.24801 0.0
C2083 C 0.60892 0.01806 0.29343 0.0
C2084 C 0.99179 0.57135 0.29098 0.0
C2085 C 1.00082 0.58608 0.32192 0.0
C2086 C 0.99724 0.57395 0.24645 0.0
C2087 C 0.01215 0.59138 0.23064 0.0
H2088 H 0.98047 0.55756 0.3014 0.0
H2089 H 0.98972 0.56208 0.2242 0.0
S2090 S 0.04061 0.63453 0.29837 0.0
N2091 N 0.02537 0.61884 0.33362 0.0
N2092 N 0.03584 0.62369 0.25015 0.0
C2093 C 0.02109 0.60639 0.26111 0.0
C2094 C 0.0154 0.60375 0.30658 0.0
C2095 C 0.41684 0.40793 0.25019 0.0
C2096 C 0.41917 0.42526 0.23434 0.0
C2097 C 0.41998 0.40554 0.29496 0.0
C2098 C 0.42554 0.42039 0.32574 0.0
H2099 H 0.41325 0.39635 0.2275 0.0
H2100 H 0.41862 0.39217 0.30521 0.0
S2101 S 0.43077 0.4676 0.30212 0.0
N2102 N 0.42561 0.45683 0.25383 0.0
N2103 N 0.43107 0.45233 0.33751 0.0
C2104 C 0.42695 0.43744 0.31052 0.0
C2105 C 0.42389 0.43988 0.26507 0.0
C2106 C 0.33563 0.17651 0.23128 0.0
C2107 C 0.33867 0.18786 0.1937 0.0
C2108 C 0.33731 0.16008 0.22949 0.0
C2109 C 0.34182 0.15419 0.18986 0.0
H2110 H 0.33183 0.18033 0.26226 0.0
H2111 H 0.33527 0.15201 0.25942 0.0
S2112 S 0.3505 0.17851 0.08191 0.0
N2113 N 0.34584 0.19165 0.11545 0.0
N2114 N 0.34923 0.16104 0.11226 0.0
C2115 C 0.3448 0.16537 0.15211 0.0
C2116 C 0.34311 0.18207 0.15393 0.0
C2117 C 0.82971 0.16407 0.14416 0.0
C2118 C 0.8234 0.15284 0.18254 0.0
C2119 C 0.84615 0.18222 0.14452 0.0
C2120 C 0.85703 0.18973 0.18312 0.0
H2121 H 0.82198 0.1587 0.11357 0.0
H2122 H 0.85035 0.1905 0.11443 0.0
S2123 S 0.84616 0.16628 0.29256 0.0
N2124 N 0.82916 0.15071 0.26022 0.0
N2125 N 0.85974 0.18475 0.26108 0.0
C2126 C 0.85072 0.1787 0.22173 0.0
C2127 C 0.83403 0.16028 0.22135 0.0
C2128 C 0.84967 0.66817 0.15224 0.0
C2129 C 0.86055 0.67376 0.19125 0.0
C2130 C 0.83149 0.66637 0.15042 0.0
C2131 C 0.82351 0.67029 0.18735 0.0
H2132 H 0.85537 0.66539 0.12276 0.0
H2133 H 0.82354 0.66178 0.1199 0.0
S2134 S 0.84598 0.68493 0.29759 0.0
N2135 N 0.86194 0.68311 0.2676 0.0
N2136 N 0.82775 0.6793 0.26459 0.0
C2137 C 0.83421 0.67573 0.22659 0.0
C2138 C 0.85272 0.67763 0.22836 0.0
C2139 C 0.16308 0.33457 0.32274 0.0
C2140 C 0.15728 0.33936 0.3621 0.0
C2141 C 0.1795 0.33285 0.32119 0.0
C2142 C 0.19092 0.33611 0.35877 0.0
H2143 H 0.15497 0.33236 0.2928 0.0
H2144 H 0.18327 0.32886 0.2904 0.0
S2145 S 0.18173 0.34861 0.46999 0.0
N2146 N 0.16425 0.34722 0.43947 0.0
N2147 N 0.1948 0.34371 0.4368 0.0
C2148 C 0.18519 0.34078 0.39831 0.0
C2149 C 0.16851 0.34253 0.39986 0.0
C2150 C 0.67289 0.82924 0.39933 0.0
C2151 C 0.67555 0.82102 0.36117 0.0
C2152 C 0.67486 0.84747 0.39832 0.0
C2153 C 0.67927 0.85804 0.35892 0.0
H2154 H 0.66918 0.82147 0.43014 0.0
H2155 H 0.67303 0.85341 0.4286 0.0
S2156 S 0.68698 0.84266 0.24975 0.0
N2157 N 0.68231 0.82467 0.28272 0.0
N2158 N 0.68614 0.85886 0.28093 0.0
C2159 C 0.68189 0.84993 0.32061 0.0
C2160 C 0.67993 0.83143 0.32165 0.0
C2161 C 0.18332 0.84292 0.40124 0.0
C2162 C 0.1907 0.85485 0.36412 0.0
C2163 C 0.16517 0.82649 0.40047 0.0
C2164 C 0.15375 0.82117 0.36232 0.0
H2165 H 0.19177 0.84622 0.43098 0.0
H2166 H 0.15996 0.81793 0.43002 0.0
S2167 S 0.16661 0.84708 0.25598 0.0
N2168 N 0.18527 0.85974 0.28775 0.0
N2169 N 0.15117 0.82919 0.28662 0.0
C2170 C 0.16095 0.83296 0.32509 0.0
C2171 C 0.17941 0.84965 0.32584 0.0
C2172 C 0.66749 0.84233 0.89729 0.0
C2173 C 0.66973 0.85333 0.85948 0.0
C2174 C 0.66994 0.82635 0.89559 0.0
C2175 C 0.67455 0.8206 0.85589 0.0
H2176 H 0.66383 0.84614 0.92846 0.0
H2177 H 0.66846 0.81855 0.92568 0.0
S2178 S 0.68131 0.84405 0.74731 0.0
N2179 N 0.67619 0.85684 0.78086 0.0
N2180 N 0.68112 0.82715 0.77793 0.0
C2181 C 0.6767 0.83139 0.81788 0.0
C2182 C 0.67416 0.8476 0.81956 0.0
C2183 C 0.18441 0.84673 0.90173 0.0
C2184 C 0.19029 0.85646 0.86122 0.0
C2185 C 0.1679 0.82872 0.90482 0.0
C2186 C 0.15648 0.81982 0.86765 0.0
H2187 H 0.19251 0.85324 0.93135 0.0
H2188 H 0.16407 0.82164 0.9365 0.0
S2189 S 0.16588 0.83914 0.75389 0.0
N2190 N 0.1834 0.85579 0.78326 0.0
N2191 N 0.15272 0.82192 0.7888 0.0
C2192 C 0.16231 0.82936 0.82697 0.0
C2193 C 0.17907 0.84767 0.82387 0.0
C2194 C 0.1666 0.34066 0.89679 0.0
C2195 C 0.1561 0.33592 0.85726 0.0
C2196 C 0.18478 0.34248 0.89858 0.0
C2197 C 0.19306 0.33935 0.8611 0.0
H2198 H 0.16062 0.34279 0.92666 0.0
H2199 H 0.19248 0.34643 0.92949 0.0
S2200 S 0.17159 0.32695 0.74955 0.0
N2201 N 0.1554 0.32822 0.77985 0.0
N2202 N 0.18951 0.33186 0.78301 0.0
C2203 C 0.18272 0.33469 0.82141 0.0
C2204 C 0.16426 0.33286 0.8196 0.0
C2205 C 0.83049 0.67104 0.64777 0.0
C2206 C 0.82443 0.67472 0.68819 0.0
C2207 C 0.84702 0.66958 0.64499 0.0
C2208 C 0.85829 0.67196 0.68239 0.0
H2209 H 0.82248 0.66949 0.61801 0.0
H2210 H 0.85097 0.66641 0.61338 0.0
S2211 S 0.8484 0.68144 0.79602 0.0
N2212 N 0.831 0.68068 0.7663 0.0
N2213 N 0.86172 0.67754 0.76135 0.0
C2214 C 0.85229 0.67553 0.72298 0.0
C2215 C 0.83551 0.67706 0.72576 0.0
C2216 C 0.34539 0.18169 0.65354 0.0
C2217 C 0.34231 0.19006 0.69091 0.0
C2218 C 0.34354 0.16351 0.65559 0.0
C2219 C 0.3388 0.1531 0.69526 0.0
H2220 H 0.34929 0.18929 0.6225 0.0
H2221 H 0.34558 0.15743 0.62579 0.0
S2222 S 0.33002 0.1689 0.80276 0.0
N2223 N 0.33496 0.18674 0.76907 0.0
N2224 N 0.3312 0.1526 0.77268 0.0
C2225 C 0.33584 0.16138 0.73283 0.0
C2226 C 0.33773 0.17985 0.73077 0.0
C2227 C 0.83148 0.16739 0.65313 0.0
C2228 C 0.82307 0.1563 0.691 0.0
C2229 C 0.84966 0.18373 0.65471 0.0
C2230 C 0.86004 0.18977 0.69436 0.0
H2231 H 0.82391 0.16339 0.62206 0.0
H2232 H 0.85577 0.19159 0.62458 0.0
S2233 S 0.84413 0.16624 0.80306 0.0
N2234 N 0.82631 0.153 0.7696 0.0
N2235 N 0.86047 0.18341 0.77233 0.0
C2236 C 0.85173 0.17889 0.73243 0.0
C2237 C 0.83325 0.16229 0.73086 0.0
C2238 C 0.01165 0.49839 0.4869 0.0
C2239 C 0.00843 0.48682 0.52417 0.0
C2240 C 0.00997 0.51482 0.48906 0.0
C2241 C 1.00526 0.52047 0.52874 0.0
H2242 H 0.01557 0.49473 0.45587 0.0
H2243 H 0.01217 0.52307 0.45936 0.0
S2244 S 0.99612 0.49559 0.63602 0.0
N2245 N 1.00093 0.48264 0.60226 0.0
N2246 N 0.9975 0.51321 0.60607 0.0
C2247 C 1.00211 0.50909 0.5662 0.0
C2248 C 1.00383 0.49241 0.56402 0.0
C2249 C 0.50224 0.49418 0.57524 0.0
C2250 C 0.4914 0.48638 0.53669 0.0
C2251 C 0.5187 0.51234 0.57512 0.0
C2252 C 0.52507 0.52325 0.5363 0.0
H2253 H 0.49801 0.48612 0.60563 0.0
H2254 H 0.52645 0.51793 0.6056 0.0
S2255 S 0.50233 0.50897 0.4263 0.0
N2256 N 0.48871 0.49078 0.45844 0.0
N2257 N 0.51933 0.52475 0.45828 0.0
C2258 C 0.51445 0.51551 0.49756 0.0
C2259 C 0.49774 0.49712 0.49771 0.0
C2260 C 0.51537 1.00142 0.49075 0.0
C2261 C 0.52573 0.00624 0.53051 0.0
C2262 C 0.49715 0.99949 0.48846 0.0
C2263 C 0.48867 1.00256 0.52565 0.0
H2264 H 0.52151 0.99934 0.4611 0.0
H2265 H 0.48957 0.99546 0.45741 0.0
S2266 S 0.50969 0.01509 0.63761 0.0
N2267 N 0.52608 0.01395 0.6078 0.0
N2268 N 0.49188 0.01006 0.60372 0.0
C2269 C 0.49886 0.00729 0.56556 0.0
C2270 C 0.51737 0.00924 0.56788 0.0
C2271 C 0.50037 0.00909 0.06556 0.0
C2272 C 0.4891 0.00585 0.0277 0.0
C2273 C 0.51683 0.00743 0.06447 0.0
C2274 C 0.52284 1.00274 0.02529 0.0
H2275 H 0.49644 0.01301 0.09622 0.0
H2276 H 0.5248 0.00962 0.09462 0.0
S2277 S 0.49885 0.99355 0.91681 0.0
N2278 N 0.48559 0.99834 0.94962 0.0
N2279 N 0.51623 0.99497 0.94779 0.0
C2280 C 0.51177 0.99958 0.98725 0.0
C2281 C 0.49504 1.00126 0.98835 0.0
C2282 C 1.00423 0.51183 0.06291 0.0
C2283 C 0.00891 0.52248 1.0236 0.0
C2284 C 1.00243 0.49366 0.06415 0.0
C2285 C 1.00553 0.48556 0.02633 0.0
H2286 H 1.00211 0.51768 0.09301 0.0
H2287 H 0.99851 0.48584 0.0949 0.0
S2288 S 0.0178 0.50746 0.9152 0.0
N2289 N 0.01653 0.52351 0.94604 0.0
N2290 N 0.01296 0.48942 0.9482 0.0
C2291 C 0.01015 0.49605 0.98687 0.0
C2292 C 0.01195 0.51449 0.98561 0.0
C2293 C 0.4972 0.49817 0.98664 0.0
C2294 C 0.48924 0.48735 0.0251 0.0
C2295 C 0.51543 0.51448 0.98691 0.0
C2296 C 0.52632 0.52075 0.0258 0.0
H2297 H 0.48921 0.49402 0.95614 0.0
H2298 H 0.52114 0.52214 0.95637 0.0
S2299 S 0.51175 0.49805 0.13565 0.0
N2300 N 0.49349 0.48462 0.10348 0.0
N2301 N 0.52774 0.51494 0.10373 0.0
C2302 C 0.51849 0.51015 0.06445 0.0
C2303 C 0.49996 0.49359 0.06421 0.0
C2304 C 0.3861 0.03381 0.13132 0.0
C2305 C 0.3865 0.03343 0.08493 0.0
C2306 C 0.3773 0.04252 0.15403 0.0
C2307 C 0.36879 0.05148 0.13124 0.0
H2308 H 0.39368 0.02838 0.15017 0.0
H2309 H 0.37839 0.04349 0.18962 0.0
S2310 S 0.36464 0.05317 1.0099 0.0
N2311 N 0.37622 0.0415 1.01722 0.0
N2312 N 0.36023 0.05822 0.05971 0.0
C2313 C 0.3681 0.05017 0.08501 0.0
C2314 C 0.37681 0.04109 0.06193 0.0
C2315 C 0.96015 0.32058 0.08477 0.0
C2316 C 0.95959 0.31979 0.13115 0.0
C2317 C 0.969 0.3381 0.06209 0.0
C2318 C 0.97737 0.35553 0.08491 0.0
H2319 H 0.95268 0.30759 0.0659 0.0
H2320 H 0.96808 0.33802 0.02646 0.0
S2321 S 0.98104 0.36129 0.20624 0.0
N2322 N 0.96955 0.33805 0.19892 0.0
N2323 N 0.98563 0.37079 0.15643 0.0
C2324 C 0.97791 0.35491 0.13114 0.0
C2325 C 0.96915 0.33711 0.15421 0.0
C2326 C 0.69186 0.63963 0.0788 0.0
C2327 C 0.69264 0.64041 0.1252 0.0
C2328 C 0.67435 0.63069 0.05598 0.0
C2329 C 0.65685 0.62185 0.07863 0.0
H2330 H 0.70488 0.64501 0.06008 0.0
H2331 H 0.67449 0.62958 1.02043 0.0
S2332 S 0.651 0.62092 0.19989 0.0
N2333 N 0.67425 0.63263 0.1927 0.0
N2334 N 0.64154 0.61551 0.15006 0.0
C2335 C 0.65746 0.62344 0.12483 0.0
C2336 C 0.67526 0.63275 0.14802 0.0
C2337 C 0.03888 0.38686 0.41521 0.0
C2338 C 0.03567 0.38472 0.46099 0.0
C2339 C 0.04796 0.37835 0.39299 0.0
C2340 C 0.05477 0.36783 0.41587 0.0
H2341 H 0.03533 0.3961 0.39686 0.0
H2342 H 0.05096 0.3812 0.35816 0.0
S2343 S 0.04788 0.3561 0.53487 0.0
N2344 N 0.03822 0.36957 0.52748 0.0
N2345 N 0.05577 0.35414 0.48611 0.0
C2346 C 0.05044 0.36449 0.46099 0.0
C2347 C 0.04088 0.37287 0.48348 0.0
C2348 C 0.6448 0.69151 0.47187 0.0
C2349 C 0.64732 0.69223 0.42584 0.0
C2350 C 0.63616 0.67408 0.49496 0.0
C2351 C 0.62912 0.65658 0.4728 0.0
H2352 H 0.64865 0.70443 0.48986 0.0
H2353 H 0.6338 0.67419 0.53006 0.0
S2354 S 0.63394 0.65099 0.35278 0.0
N2355 N 0.64366 0.67414 0.35957 0.0
N2356 N 0.62706 0.64152 0.40225 0.0
C2357 C 0.63269 0.6573 0.42712 0.0
C2358 C 0.64177 0.67505 0.40384 0.0
C2359 C 0.32337 0.95501 0.46611 0.0
C2360 C 0.32238 0.95377 0.42063 0.0
C2361 C 0.34109 0.96439 0.48642 0.0
C2362 C 0.35813 0.97207 0.46198 0.0
H2363 H 0.31061 0.94802 0.48594 0.0
H2364 H 0.34165 0.96441 0.52211 0.0
S2365 S 0.36291 0.9765 0.32775 0.0
N2366 N 0.3419 0.96525 0.35331 0.0
N2367 N 0.34913 0.96871 0.3748 0.0
C2368 C 0.35935 0.97283 0.41507 0.0
C2369 C 0.34113 0.96404 0.39561 0.0
C2370 C 0.63443 0.96704 0.99191 0.0
C2371 C 0.62549 0.97539 0.96839 0.0
C2372 C 0.64305 0.95798 0.96994 0.0
C2373 C 0.64333 0.95715 0.9236 0.0
H2374 H 0.63348 0.96626 0.02753 0.0
H2375 H 0.64844 0.95052 0.98937 0.0
S2376 S 0.62363 0.97845 0.84681 0.0
N2377 N 0.61869 0.98335 0.89623 0.0
N2378 N 0.63523 0.96685 0.85509 0.0
C2379 C 0.63571 0.96669 0.89983 0.0
C2380 C 0.62673 0.97567 0.92217 0.0
C2381 C 0.04461 0.6723 0.90274 0.0
C2382 C 0.05325 0.68928 0.92736 0.0
C2383 C 0.0359 0.65437 0.9236 0.0
C2384 C 0.03522 0.6527 0.96987 0.0
H2385 H 0.04593 0.67292 0.86717 0.0
H2386 H 0.03077 0.64177 0.90343 0.0
S2387 S 0.05413 0.6927 0.04916 0.0
N2388 N 0.05941 0.70315 1.00038 0.0
N2389 N 0.04268 0.66963 0.03944 0.0
C2390 C 0.04254 0.66954 0.99468 0.0
C2391 C 0.05163 0.68776 0.97347 0.0
C2392 C 0.3582 0.38494 0.92219 0.0
C2393 C 0.35885 0.38548 0.9686 0.0
C2394 C 0.34074 0.37614 0.89917 0.0
C2395 C 0.32321 0.36778 0.92163 0.0
H2396 H 0.37126 0.39238 0.90354 0.0
H2397 H 0.34095 0.37707 0.86353 0.0
S2398 S 0.31705 0.36423 0.04289 0.0
N2399 N 0.34032 0.37564 0.036 0.0
N2400 N 0.30772 0.35963 0.9929 0.0
C2401 C 0.32369 0.36729 0.9679 0.0
C2402 C 0.34143 0.37601 0.99132 0.0
C2403 C 0.95987 0.641 0.57626 0.0
C2404 C 0.96086 0.64397 0.62214 0.0
C2405 C 0.96846 0.63156 0.55608 0.0
C2406 C 0.97798 0.62424 0.58113 0.0
H2407 H 0.95136 0.64493 0.55618 0.0
H2408 H 0.96641 0.62867 0.52106 0.0
S2409 S 0.98621 0.62989 0.70163 0.0
N2410 N 0.97364 0.64031 0.69134 0.0
N2411 N 0.98932 0.6222 0.6537 0.0
C2412 C 0.98016 0.62824 0.6265 0.0
C2413 C 0.97166 0.63812 0.64695 0.0
C2414 C 0.38179 0.33813 0.562 0.0
C2415 C 0.38872 0.35546 0.58479 0.0
C2416 C 0.37267 0.32055 0.58433 0.0
C2417 C 0.36955 0.31951 0.63014 0.0
H2418 H 0.38471 0.33825 0.52713 0.0
H2419 H 0.36903 0.30774 0.56604 0.0
S2420 S 0.38211 0.36041 0.70383 0.0
N2421 N 0.38994 0.37023 0.65498 0.0
N2422 N 0.37233 0.33727 0.69658 0.0
C2423 C 0.37489 0.33659 0.65255 0.0
C2424 C 0.38448 0.35452 0.62995 0.0
C2425 C 0.67455 0.04642 0.56164 0.0
C2426 C 0.65737 0.03598 0.58505 0.0
C2427 C 0.69229 0.05514 0.58335 0.0
C2428 C 0.69367 0.05333 0.62918 0.0
H2429 H 0.67417 0.04905 0.52674 0.0
H2430 H 0.70494 0.0643 0.56454 0.0
S2431 S 0.6533 0.02523 0.70454 0.0
N2432 N 0.64313 0.02283 0.65596 0.0
N2433 N 0.67638 0.03868 0.6964 0.0
C2434 C 0.67674 0.04161 0.65227 0.0
C2435 C 0.65866 0.033 0.63028 0.0
C2436 C 0.70476 0.71945 0.75184 0.0
C2437 C 0.7053 0.72041 0.79822 0.0
C2438 C 0.71319 0.71055 0.72841 0.0
C2439 C 0.72271 0.70244 0.75042 0.0
H2440 H 0.69875 0.72662 0.73345 0.0
H2441 H 0.71342 0.71118 0.69274 0.0
S2442 S 0.72695 0.69989 0.87151 0.0
N2443 N 0.71491 0.71115 0.8652 0.0
N2444 N 0.73109 0.69496 0.82131 0.0
C2445 C 0.72239 0.70236 0.79673 0.0
C2446 C 0.71362 0.7112 0.82057 0.0
C2447 C 0.28861 0.98692 0.75165 0.0
C2448 C 0.29097 0.98614 0.79744 0.0
C2449 C 0.29731 1.00433 0.7286 0.0
C2450 C 0.30824 0.02177 0.75064 0.0
H2451 H 0.27912 0.97406 0.7339 0.0
H2452 H 0.29433 1.00426 0.69378 0.0
S2453 S 0.32083 0.02732 0.86918 0.0
N2454 N 0.30683 1.0042 0.86298 0.0
N2455 N 0.32264 0.03686 0.82004 0.0
C2456 C 0.3118 0.02105 0.79575 0.0
C2457 C 0.30321 1.00329 0.81909 0.0
C2458 C 0.00886 0.30002 0.81909 0.0
C2459 C 0.02635 0.30855 0.79645 0.0
C2460 C 0.99137 0.29132 0.79623 0.0
C2461 C 0.99064 0.29104 0.74983 0.0
H2462 H 0.00871 0.29888 0.85467 0.0
H2463 H 0.97834 0.28375 0.81495 0.0
S2464 S 0.03231 0.31295 0.67517 0.0
N2465 N 0.04173 0.31723 0.72507 0.0
N2466 N 0.00905 0.30139 0.68228 0.0
C2467 C 0.00802 0.30071 0.72698 0.0
C2468 C 0.02579 0.30934 0.75022 0.0
C2469 C 0.30187 0.29867 0.22961 0.0
C2470 C 0.31048 0.28982 0.25246 0.0
C2471 C 0.29311 0.30743 0.25228 0.0
C2472 C 0.29288 0.30797 0.29867 0.0
H2473 H 0.30073 0.29762 0.19403 0.0
H2474 H 0.28546 0.31278 0.23344 0.0
S2475 S 0.31494 0.2885 0.37377 0.0
N2476 N 0.31923 0.2833 0.324 0.0
N2477 N 0.30332 0.30013 0.36639 0.0
C2478 C 0.30263 0.30039 0.32169 0.0
C2479 C 0.31129 0.29126 0.29866 0.0
C2480 C 0.71075 1.00389 0.32191 0.0
C2481 C 0.70301 0.98642 0.2994 0.0
C2482 C 0.71929 0.02133 0.29892 0.0
C2483 C 0.72023 0.02197 0.25255 0.0
H2484 H 0.71147 1.00411 0.35757 0.0
H2485 H 0.7263 0.03441 0.31761 0.0
S2486 S 0.70021 0.98023 0.17819 0.0
N2487 N 0.69557 0.9709 0.22818 0.0
N2488 N 0.71107 1.00348 0.18508 0.0
C2489 C 0.71119 0.00457 0.22976 0.0
C2490 C 0.70273 0.98686 0.25314 0.0
C2491 C 0.01222 0.7045 0.29753 0.0
C2492 C 0.02621 0.72393 0.2976 0.0
C2493 C 0.99572 0.69725 0.27051 0.0
C2494 C 0.99179 0.70907 0.24318 0.0
H2495 H 0.01339 0.69484 0.32 0.0
H2496 H 0.98557 0.68232 0.27328 0.0
S2497 S 0.02177 0.76212 0.24226 0.0
N2498 N 0.0345 0.75499 0.26969 0.0
N2499 N 1.00187 0.74256 0.23057 0.0
C2500 C 1.00496 0.72887 0.24729 0.0
C2501 C 0.02251 0.73588 0.27093 0.0
C2502 C 0.35164 0.11258 0.96031 0.0
C2503 C 0.34219 0.09682 0.98852 0.0
C2504 C 0.34747 0.11114 0.91502 0.0
C2505 C 0.3335 0.09395 0.89618 0.0
H2506 H 0.36217 0.12622 0.97338 0.0
H2507 H 0.35522 0.1236 0.89451 0.0
S2508 S 0.3056 0.04813 0.95452 0.0
N2509 N 0.31912 0.06304 0.99317 0.0
N2510 N 0.31075 0.06073 0.90871 0.0
C2511 C 0.324 0.07809 0.9238 0.0
C2512 C 0.32849 0.07942 0.9697 0.0
C2513 C 0.93029 0.25275 0.96656 0.0
C2514 C 0.91256 0.24786 0.9855 0.0
C2515 C 0.93211 0.2502 0.92145 0.0
C2516 C 0.91634 0.2429 0.89327 0.0
H2517 H 0.94297 0.25878 0.98673 0.0
H2518 H 0.94605 0.25444 0.90832 0.0
S2519 S 0.86668 0.22707 0.92563 0.0
N2520 N 0.87877 0.23453 0.97213 0.0
N2521 N 0.88237 0.23038 0.8871 0.0
C2522 C 0.89855 0.23793 0.91146 0.0
C2523 C 0.89663 0.2403 0.95754 0.0
C2524 C 0.75058 0.65886 0.95569 0.0
C2525 C 0.76654 0.66712 0.98339 0.0
C2526 C 0.75212 0.66349 0.91069 0.0
C2527 C 0.76973 0.67643 0.89134 0.0
H2528 H 0.73671 0.64912 0.96916 0.0
H2529 H 0.73931 0.65699 0.89094 0.0
S2530 S 0.81598 0.70111 0.94975 0.0
N2531 N 0.80054 0.6885 0.98854 0.0
N2532 N 0.80359 0.69676 0.90378 0.0
C2533 C 0.78583 0.6846 0.91879 0.0
C2534 C 0.7842 0.68002 0.96474 0.0
C2535 C 0.10442 0.32577 0.6267 0.0
C2536 C 0.0978 0.33491 0.65494 0.0
C2537 C 0.10692 0.3299 0.58136 0.0
C2538 C 0.10313 0.3435 0.56257 0.0
H2539 H 0.10797 0.31555 0.63977 0.0
H2540 H 0.11194 0.32244 0.5608 0.0
S2541 S 0.08404 0.3703 0.62102 0.0
N2542 N 0.08611 0.35719 0.65972 0.0
N2543 N 0.09164 0.36544 0.57512 0.0
C2544 C 0.09638 0.35263 0.59021 0.0
C2545 C 0.09349 0.3482 0.63615 0.0
C2546 C 0.66668 0.74997 0.63535 0.0
C2547 C 0.67906 0.76761 0.65524 0.0
C2548 C 0.66267 0.74851 0.59008 0.0
C2549 C 0.67104 0.76458 0.56281 0.0
H2550 H 0.66019 0.73709 0.65483 0.0
H2551 H 0.65337 0.73463 0.5761 0.0
S2552 S 0.70356 0.81414 0.59798 0.0
N2553 N 0.69885 0.80163 0.64385 0.0
N2554 N 0.69178 0.7987 0.5585 0.0
C2555 C 0.68333 0.78229 0.582 0.0
C2556 C 0.68725 0.78384 0.62821 0.0
C2557 C 0.23402 0.91444 0.62744 0.0
C2558 C 0.24114 0.90689 0.65892 0.0
C2559 C 0.23556 0.91215 0.5821 0.0
C2560 C 0.2452 0.90306 0.56535 0.0
H2561 H 0.22764 0.92273 0.63753 0.0
H2562 H 0.22932 0.91801 0.56013 0.0
S2563 S 0.26389 0.87804 0.63381 0.0
N2564 N 0.25493 0.88659 0.66976 0.0
N2565 N 0.26071 0.88509 0.5852 0.0
C2566 C 0.25168 0.8947 0.59653 0.0
C2567 C 0.24905 0.89603 0.64288 0.0
C2568 C 0.66619 0.91896 0.13886 0.0
C2569 C 0.67895 0.91402 0.15788 0.0
C2570 C 0.66159 0.91605 0.09392 0.0
C2571 C 0.66972 0.90825 0.0662 0.0
H2572 H 0.65977 0.92528 0.15885 0.0
H2573 H 0.65196 0.92034 0.08056 0.0
S2574 S 0.70314 0.89201 0.09953 0.0
N2575 N 0.69898 0.90016 0.14552 0.0
N2576 N 0.69067 0.89511 0.06078 0.0
C2577 C 0.68243 0.90318 0.08463 0.0
C2578 C 0.687 0.906 0.13048 0.0
C2579 C 0.11159 0.77549 0.14448 0.0
C2580 C 0.09375 0.76956 0.16391 0.0
C2581 C 0.11329 0.77247 0.09953 0.0
C2582 C 0.09721 0.76326 0.07223 0.0
H2583 H 0.12432 0.78227 0.16449 0.0
H2584 H 0.12732 0.77746 0.08604 0.0
S2585 S 0.04713 0.74365 0.10799 0.0
N2586 N 0.05969 0.75341 0.153 0.0
N2587 N 0.0627 0.74739 0.06877 0.0
C2588 C 0.07925 0.75715 0.09143 0.0
C2589 C 0.07758 0.7604 0.13713 0.0
C2590 C 0.25274 0.32532 0.12888 0.0
C2591 C 0.24505 0.33361 0.1564 0.0
C2592 C 0.25565 0.32975 0.0838 0.0
C2593 C 0.25076 0.34249 0.06424 0.0
H2594 H 0.25699 0.31569 0.14253 0.0
H2595 H 0.26195 0.32323 0.06414 0.0
S2596 S 0.22917 0.36721 0.1222 0.0
N2597 N 0.23225 0.35484 0.16123 0.0
N2598 N 0.23709 0.36272 0.07628 0.0
C2599 C 0.24286 0.35072 0.09153 0.0
C2600 C 0.24011 0.34635 0.13756 0.0
C2601 C 0.90166 0.66877 0.45075 0.0
C2602 C 0.9176 0.67588 0.47863 0.0
C2603 C 0.90355 0.67359 0.40578 0.0
C2604 C 0.92142 0.68583 0.3869 0.0
H2605 H 0.8876 0.6594 0.46374 0.0
H2606 H 0.89096 0.66733 0.38527 0.0
S2607 S 0.96773 0.70738 0.44441 0.0
N2608 N 0.95204 0.6952 0.48315 0.0
N2609 N 0.95535 0.70441 0.39897 0.0
C2610 C 0.93743 0.69315 0.41427 0.0
C2611 C 0.93558 0.68813 0.45997 0.0
C2612 C 0.33131 0.25177 0.46853 0.0
C2613 C 0.34438 0.24728 0.4879 0.0
C2614 C 0.32694 0.24895 0.42341 0.0
C2615 C 0.33565 0.24179 0.39564 0.0
H2616 H 0.32448 0.25771 0.48833 0.0
H2617 H 0.31703 0.25286 0.40995 0.0
S2618 S 0.37002 0.22682 0.42932 0.0
N2619 N 0.36522 0.23434 0.47544 0.0
N2620 N 0.35748 0.22971 0.39042 0.0
C2621 C 0.34865 0.23716 0.41431 0.0
C2622 C 0.35294 0.23979 0.46038 0.0
C2623 C 0.75316 0.09573 0.46059 0.0
C2624 C 0.76861 0.10166 0.48934 0.0
C2625 C 0.75498 0.09311 0.41564 0.0
C2626 C 0.77237 0.09646 0.39761 0.0
H2627 H 0.73947 0.09274 0.47307 0.0
H2628 H 0.74263 0.08841 0.39472 0.0
S2629 S 0.81733 0.11295 0.45892 0.0
N2630 N 0.80196 0.11117 0.49685 0.0
N2631 N 0.80544 0.10651 0.41201 0.0
C2632 C 0.78794 0.10242 0.42604 0.0
C2633 C 0.78606 0.105 0.47194 0.0
C2634 C 0.01474 0.42243 0.24791 0.0
C2635 C 1.00208 0.42742 0.22839 0.0
C2636 C 0.01904 0.42514 0.29306 0.0
C2637 C 0.01068 0.43273 0.32066 0.0
H2638 H 0.02131 0.41621 0.22816 0.0
H2639 H 0.02862 0.42083 0.30669 0.0
S2640 S 0.97722 0.44881 0.28657 0.0
N2641 N 0.98183 0.44106 0.24054 0.0
N2642 N 0.98946 0.44555 0.32563 0.0
C2643 C 0.998 0.43777 0.30186 0.0
C2644 C 0.99377 0.43522 0.25576 0.0
C2645 C 0.59699 0.57911 0.25143 0.0
C2646 C 0.58162 0.57095 0.22195 0.0
C2647 C 0.59428 0.58185 0.296 0.0
C2648 C 0.57607 0.57631 0.31281 0.0
H2649 H 0.61127 0.58412 0.23956 0.0
H2650 H 0.60657 0.58857 0.31742 0.0
S2651 S 0.53113 0.55351 0.24922 0.0
N2652 N 0.54756 0.55682 0.2127 0.0
N2653 N 0.54242 0.56172 0.29645 0.0
C2654 C 0.56054 0.56752 0.28389 0.0
C2655 C 0.56333 0.56494 0.23848 0.0
C2656 C 0.41592 0.98982 0.29375 0.0
C2657 C 0.43184 0.99864 0.32143 0.0
C2658 C 0.41729 0.99432 0.24872 0.0
C2659 C 0.43472 0.00762 0.22924 0.0
H2660 H 0.40219 0.97974 0.30727 0.0
H2661 H 0.40446 0.98743 0.22909 0.0
S2662 S 0.48095 0.0336 0.2875 0.0
N2663 N 0.46569 0.02082 0.32642 0.0
N2664 N 0.46848 0.02876 0.24152 0.0
C2665 C 0.45084 0.01627 0.25664 0.0
C2666 C 0.44936 0.01186 0.30267 0.0
C2667 C 0.56484 0.99267 0.79616 0.0
C2668 C 0.58054 1.00179 0.82468 0.0
C2669 C 0.56658 0.99686 0.75084 0.0
C2670 C 0.58401 0.01051 0.73233 0.0
H2671 H 0.55104 0.98241 0.80901 0.0
H2672 H 0.55415 0.98942 0.73007 0.0
S2673 S 0.62977 0.03724 0.79153 0.0
N2674 N 0.61449 0.02407 0.82999 0.0
N2675 N 0.61741 0.03243 0.74543 0.0
C2676 C 0.59982 0.0196 0.76023 0.0
C2677 C 0.59818 0.01511 0.80616 0.0
C2678 C 0.01473 0.57109 0.74987 0.0
C2679 C 1.00118 0.57483 0.73057 0.0
C2680 C 0.01862 0.57356 0.7953 0.0
C2681 C 0.00928 0.58011 0.82315 0.0
H2682 H 0.02235 0.56615 0.72963 0.0
H2683 H 0.02885 0.5701 0.80873 0.0
S2684 S 0.97383 0.59359 0.78786 0.0
N2685 N 0.97904 0.58613 0.74223 0.0
N2686 N 0.98678 0.59155 0.82704 0.0
C2687 C 0.99599 0.58429 0.80389 0.0
C2688 C 0.99182 0.58145 0.75782 0.0
C2689 C 0.44057 0.44447 0.75197 0.0
C2690 C 0.43697 0.42717 0.73313 0.0
C2691 C 0.43787 0.44595 0.79722 0.0
C2692 C 0.43122 0.43012 0.82534 0.0
H2693 H 0.44552 0.45698 0.73149 0.0
H2694 H 0.44124 0.45966 0.81032 0.0
S2695 S 0.41813 0.38118 0.79117 0.0
N2696 N 0.42581 0.39379 0.74545 0.0
N2697 N 0.41986 0.3962 0.82989 0.0
C2698 C 0.42719 0.41263 0.8065 0.0
C2699 C 0.4303 0.41125 0.76063 0.0
loop_
_geom_bond_atom_site_label_1
_geom_bond_atom_site_label_2
_geom_bond_distance
_geom_bond_site_symmetry_2
_ccdc_geom_bond_type
C0 C1 1.443 . S
C0 N4 1.376 . S
C0 C38 1.389 . S
C1 C0 1.443 . S
C1 C2 1.340 . S
C1 H41 0.951 . S
C2 C1 1.340 . S
C2 C3 1.439 . S
C2 H42 0.950 . S
C3 C2 1.439 . S
C3 N4 1.374 . S
C3 C37 1.395 . S
N4 C0 1.376 . S
N4 C3 1.374 . S
N4 Co5 2.008 . S
Co5 N4 2.008 . S
Co5 N6 1.995 . S
Co5 N11 2.008 . S
Co5 N16 1.995 . S
Co5 N21 2.282 . S
Co5 N27 2.282 . S
N6 Co5 1.995 . S
N6 C7 1.376 . S
N6 C10 1.383 . S
C7 N6 1.376 . S
C7 C8 1.446 . S
C7 C37 1.391 . S
C8 C7 1.446 . S
C8 C9 1.339 . S
C8 H43 0.949 . S
C9 C8 1.339 . S
C9 C10 1.439 . S
C9 H44 0.950 . S
C10 N6 1.383 . S
C10 C9 1.439 . S
C10 C39 1.392 . S
N11 Co5 2.008 . S
N11 C12 1.376 . S
N11 C15 1.374 . S
C12 N11 1.376 . S
C12 C13 1.443 . S
C12 C39 1.389 . S
C13 C12 1.443 . S
C13 C14 1.340 . S
C13 H45 0.951 . S
C14 C13 1.340 . S
C14 C15 1.439 . S
C14 H46 0.950 . S
C15 N11 1.374 . S
C15 C14 1.439 . S
C15 C40 1.395 . S
N16 Co5 1.995 . S
N16 C17 1.376 . S
N16 C20 1.383 . S
C17 N16 1.376 . S
C17 C18 1.446 . S
C17 C40 1.391 . S
C18 C17 1.446 . S
C18 C19 1.339 . S
C18 H47 0.949 . S
C19 C18 1.339 . S
C19 C20 1.439 . S
C19 H48 0.950 . S
C20 N16 1.383 . S
C20 C19 1.439 . S
C20 C38 1.392 . S
N21 Co5 2.282 . S
N21 C24 1.332 . S
N21 C26 1.332 . S
C22 C23 1.386 . S
C22 C25 1.388 . S
C23 C22 1.386 . S
C23 C24 1.382 . S
C23 H49 0.950 . S
C24 N21 1.332 . S
C24 C23 1.382 . S
C24 H35 0.952 . S
C25 C22 1.388 . S
C25 C26 1.382 . S
C25 H50 0.950 . S
C26 N21 1.332 . S
C26 C25 1.382 . S
C26 H36 0.948 . S
N27 Co5 2.282 . S
N27 C31 1.332 . S
N27 C32 1.332 . S
C28 C29 1.388 1_554 S
C28 C32 1.382 . S
C28 H51 0.950 1_554 S
C29 C28 1.388 1_556 S
C29 C30 1.386 1_556 S
C30 C29 1.386 1_554 S
C30 C31 1.382 . S
C30 H52 0.950 1_554 S
C31 N27 1.332 . S
C31 C30 1.382 . S
C31 H33 0.952 . S
C32 N27 1.332 . S
C32 C28 1.382 . S
C32 H34 0.948 . S
H33 C31 0.952 . S
H34 C32 0.948 . S
H35 C24 0.952 . S
H36 C26 0.948 . S
C37 C3 1.395 . S
C37 C7 1.391 . S
C38 C0 1.389 . S
C38 C20 1.392 . S
C39 C10 1.392 . S
C39 C12 1.389 . S
C40 C15 1.395 . S
C40 C17 1.391 . S
H41 C1 0.951 . S
H42 C2 0.950 . S
H43 C8 0.949 . S
H44 C9 0.950 . S
H45 C13 0.951 . S
H46 C14 0.950 . S
H47 C18 0.949 . S
H48 C19 0.950 . S
H49 C23 0.950 . S
H50 C25 0.950 . S
H51 C28 0.950 1_556 S
H52 C30 0.950 1_556 S
C53 C54 1.443 . S
C53 N57 1.376 . S
C53 C91 1.389 . S
C54 C53 1.443 . S
C54 C55 1.340 . S
C54 H94 0.951 . S
C55 C54 1.340 . S
C55 C56 1.439 . S
C55 H95 0.950 . S
C56 C55 1.439 . S
C56 N57 1.374 . S
C56 C90 1.395 . S
N57 C53 1.376 . S
N57 C56 1.374 . S
N57 Co58 2.008 . S
Co58 N57 2.008 . S
Co58 N59 1.995 . S
Co58 N64 2.008 . S
Co58 N69 1.995 . S
Co58 N74 2.282 . S
Co58 N80 2.282 . S
N59 Co58 1.995 . S
N59 C60 1.376 . S
N59 C63 1.383 . S
C60 N59 1.376 . S
C60 C61 1.446 . S
C60 C90 1.391 . S
C61 C60 1.446 . S
C61 C62 1.339 . S
C61 H96 0.949 . S
C62 C61 1.339 . S
C62 C63 1.439 . S
C62 H97 0.950 . S
C63 N59 1.383 . S
C63 C62 1.439 . S
C63 C92 1.392 . S
N64 Co58 2.008 . S
N64 C65 1.376 . S
N64 C68 1.374 . S
C65 N64 1.376 . S
C65 C66 1.443 . S
C65 C92 1.389 . S
C66 C65 1.443 . S
C66 C67 1.340 . S
C66 H98 0.951 . S
C67 C66 1.340 . S
C67 C68 1.439 . S
C67 H99 0.950 . S
C68 N64 1.374 . S
C68 C67 1.439 . S
C68 C93 1.395 . S
N69 Co58 1.995 . S
N69 C70 1.376 . S
N69 C73 1.383 . S
C70 N69 1.376 . S
C70 C71 1.446 . S
C70 C93 1.391 . S
C71 C70 1.446 . S
C71 C72 1.339 . S
C71 H100 0.949 . S
C72 C71 1.339 . S
C72 C73 1.439 . S
C72 H101 0.950 . S
C73 N69 1.383 . S
C73 C72 1.439 . S
C73 C91 1.392 . S
N74 Co58 2.282 . S
N74 C77 1.332 . S
N74 C79 1.332 . S
C75 C76 1.386 . S
C75 C78 1.388 . S
C76 C75 1.386 . S
C76 C77 1.382 . S
C76 H102 0.950 . S
C77 N74 1.332 . S
C77 C76 1.382 . S
C77 H88 0.952 . S
C78 C75 1.388 . S
C78 C79 1.382 . S
C78 H103 0.950 . S
C79 N74 1.332 . S
C79 C78 1.382 . S
C79 H89 0.948 . S
N80 Co58 2.282 . S
N80 C84 1.332 . S
N80 C85 1.332 . S
C81 C82 1.388 1_554 S
C81 C85 1.382 . S
C81 H104 0.950 1_554 S
C82 C81 1.388 1_556 S
C82 C83 1.386 1_556 S
C83 C82 1.386 1_554 S
C83 C84 1.382 . S
C83 H105 0.950 1_554 S
C84 N80 1.332 . S
C84 C83 1.382 . S
C84 H86 0.952 . S
C85 N80 1.332 . S
C85 C81 1.382 . S
C85 H87 0.948 . S
H86 C84 0.952 . S
H87 C85 0.948 . S
H88 C77 0.952 . S
H89 C79 0.948 . S
C90 C56 1.395 . S
C90 C60 1.391 . S
C91 C53 1.389 . S
C91 C73 1.392 . S
C92 C63 1.392 . S
C92 C65 1.389 . S
C93 C68 1.395 . S
C93 C70 1.391 . S
H94 C54 0.951 . S
H95 C55 0.950 . S
H96 C61 0.949 . S
H97 C62 0.950 . S
H98 C66 0.951 . S
H99 C67 0.950 . S
H100 C71 0.949 . S
H101 C72 0.950 . S
H102 C76 0.950 . S
H103 C78 0.950 . S
H104 C81 0.950 1_556 S
H105 C83 0.950 1_556 S
C106 C107 1.443 . S
C106 N110 1.376 . S
C106 C144 1.389 . S
C107 C106 1.443 . S
C107 C108 1.340 . S
C107 H147 0.951 . S
C108 C107 1.340 . S
C108 C109 1.439 . S
C108 H148 0.950 . S
C109 C108 1.439 . S
C109 N110 1.374 . S
C109 C143 1.395 . S
N110 C106 1.376 . S
N110 C109 1.374 . S
N110 Co111 2.008 . S
Co111 N110 2.008 . S
Co111 N112 1.995 . S
Co111 N117 2.008 . S
Co111 N122 1.995 . S
Co111 N127 2.282 . S
Co111 N133 2.282 . S
N112 Co111 1.995 . S
N112 C113 1.376 . S
N112 C116 1.383 . S
C113 N112 1.376 . S
C113 C114 1.446 . S
C113 C143 1.391 . S
C114 C113 1.446 . S
C114 C115 1.339 . S
C114 H149 0.949 . S
C115 C114 1.339 . S
C115 C116 1.439 . S
C115 H150 0.950 . S
C116 N112 1.383 . S
C116 C115 1.439 . S
C116 C145 1.392 . S
N117 Co111 2.008 . S
N117 C118 1.376 . S
N117 C121 1.374 . S
C118 N117 1.376 . S
C118 C119 1.443 . S
C118 C145 1.389 . S
C119 C118 1.443 . S
C119 C120 1.340 . S
C119 H151 0.951 . S
C120 C119 1.340 . S
C120 C121 1.439 . S
C120 H152 0.950 . S
C121 N117 1.374 . S
C121 C120 1.439 . S
C121 C146 1.395 . S
N122 Co111 1.995 . S
N122 C123 1.376 . S
N122 C126 1.383 . S
C123 N122 1.376 . S
C123 C124 1.446 . S
C123 C146 1.391 . S
C124 C123 1.446 . S
C124 C125 1.339 . S
C124 H153 0.949 . S
C125 C124 1.339 . S
C125 C126 1.439 . S
C125 H154 0.950 . S
C126 N122 1.383 . S
C126 C125 1.439 . S
C126 C144 1.392 . S
N127 Co111 2.282 . S
N127 C130 1.332 . S
N127 C132 1.332 . S
C128 C129 1.386 . S
C128 C131 1.388 . S
C129 C128 1.386 . S
C129 C130 1.382 . S
C129 H155 0.950 . S
C130 N127 1.332 . S
C130 C129 1.382 . S
C130 H141 0.952 . S
C131 C128 1.388 . S
C131 C132 1.382 . S
C131 H156 0.950 . S
C132 N127 1.332 . S
C132 C131 1.382 . S
C132 H142 0.948 . S
N133 Co111 2.282 . S
N133 C137 1.332 . S
N133 C138 1.332 . S
C134 C135 1.388 1_554 S
C134 C138 1.382 . S
C134 H157 0.950 1_554 S
C135 C134 1.388 1_556 S
C135 C136 1.386 1_556 S
C136 C135 1.386 1_554 S
C136 C137 1.382 . S
C136 H158 0.950 1_554 S
C137 N133 1.332 . S
C137 C136 1.382 . S
C137 H139 0.952 . S
C138 N133 1.332 . S
C138 C134 1.382 . S
C138 H140 0.948 . S
H139 C137 0.952 . S
H140 C138 0.948 . S
H141 C130 0.952 . S
H142 C132 0.948 . S
C143 C109 1.395 . S
C143 C113 1.391 . S
C144 C106 1.389 . S
C144 C126 1.392 . S
C145 C116 1.392 . S
C145 C118 1.389 . S
C146 C121 1.395 . S
C146 C123 1.391 . S
H147 C107 0.951 . S
H148 C108 0.950 . S
H149 C114 0.949 . S
H150 C115 0.950 . S
H151 C119 0.951 . S
H152 C120 0.950 . S
H153 C124 0.949 . S
H154 C125 0.950 . S
H155 C129 0.950 . S
H156 C131 0.950 . S
H157 C134 0.950 1_556 S
H158 C136 0.950 1_556 S
C159 C160 1.443 . S
C159 N163 1.376 . S
C159 C197 1.389 . S
C160 C159 1.443 . S
C160 C161 1.340 . S
C160 H200 0.951 . S
C161 C160 1.340 . S
C161 C162 1.439 . S
C161 H201 0.950 . S
C162 C161 1.439 . S
C162 N163 1.374 . S
C162 C196 1.395 . S
N163 C159 1.376 . S
N163 C162 1.374 . S
N163 Co164 2.008 . S
Co164 N163 2.008 . S
Co164 N165 1.995 . S
Co164 N170 2.008 . S
Co164 N175 1.995 . S
Co164 N180 2.282 . S
Co164 N186 2.282 . S
N165 Co164 1.995 . S
N165 C166 1.376 . S
N165 C169 1.383 . S
C166 N165 1.376 . S
C166 C167 1.446 . S
C166 C196 1.391 . S
C167 C166 1.446 . S
C167 C168 1.339 . S
C167 H202 0.949 . S
C168 C167 1.339 . S
C168 C169 1.439 . S
C168 H203 0.950 . S
C169 N165 1.383 . S
C169 C168 1.439 . S
C169 C198 1.392 . S
N170 Co164 2.008 . S
N170 C171 1.376 . S
N170 C174 1.374 . S
C171 N170 1.376 . S
C171 C172 1.443 . S
C171 C198 1.389 . S
C172 C171 1.443 . S
C172 C173 1.340 . S
C172 H204 0.951 . S
C173 C172 1.340 . S
C173 C174 1.439 . S
C173 H205 0.950 . S
C174 N170 1.374 . S
C174 C173 1.439 . S
C174 C199 1.395 . S
N175 Co164 1.995 . S
N175 C176 1.376 . S
N175 C179 1.383 . S
C176 N175 1.376 . S
C176 C177 1.446 . S
C176 C199 1.391 . S
C177 C176 1.446 . S
C177 C178 1.339 . S
C177 H206 0.949 . S
C178 C177 1.339 . S
C178 C179 1.439 . S
C178 H207 0.950 . S
C179 N175 1.383 . S
C179 C178 1.439 . S
C179 C197 1.392 . S
N180 Co164 2.282 . S
N180 C183 1.332 . S
N180 C185 1.332 . S
C181 C182 1.386 . S
C181 C184 1.388 . S
C182 C181 1.386 . S
C182 C183 1.382 . S
C182 H208 0.950 . S
C183 N180 1.332 . S
C183 C182 1.382 . S
C183 H194 0.952 . S
C184 C181 1.388 . S
C184 C185 1.382 . S
C184 H209 0.950 . S
C185 N180 1.332 . S
C185 C184 1.382 . S
C185 H195 0.948 . S
N186 Co164 2.282 . S
N186 C190 1.332 . S
N186 C191 1.332 . S
C187 C188 1.388 . S
C187 C191 1.382 . S
C187 H210 0.950 . S
C188 C187 1.388 . S
C188 C189 1.386 . S
C189 C188 1.386 . S
C189 C190 1.382 . S
C189 H211 0.950 . S
C190 N186 1.332 . S
C190 C189 1.382 . S
C190 H192 0.952 . S
C191 N186 1.332 . S
C191 C187 1.382 . S
C191 H193 0.948 . S
H192 C190 0.952 . S
H193 C191 0.948 . S
H194 C183 0.952 . S
H195 C185 0.948 . S
C196 C162 1.395 . S
C196 C166 1.391 . S
C197 C159 1.389 . S
C197 C179 1.392 . S
C198 C169 1.392 . S
C198 C171 1.389 . S
C199 C174 1.395 . S
C199 C176 1.391 . S
H200 C160 0.951 . S
H201 C161 0.950 . S
H202 C167 0.949 . S
H203 C168 0.950 . S
H204 C172 0.951 . S
H205 C173 0.950 . S
H206 C177 0.949 . S
H207 C178 0.950 . S
H208 C182 0.950 . S
H209 C184 0.950 . S
H210 C187 0.950 . S
H211 C189 0.950 . S
C212 C213 1.443 . S
C212 N216 1.376 . S
C212 C250 1.389 . S
C213 C212 1.443 . S
C213 C214 1.340 . S
C213 H253 0.951 . S
C214 C213 1.340 . S
C214 C215 1.439 . S
C214 H254 0.950 . S
C215 C214 1.439 . S
C215 N216 1.374 . S
C215 C249 1.395 . S
N216 C212 1.376 . S
N216 C215 1.374 . S
N216 Co217 2.008 . S
Co217 N216 2.008 . S
Co217 N218 1.995 . S
Co217 N223 2.008 . S
Co217 N228 1.995 . S
Co217 N233 2.282 . S
Co217 N239 2.282 . S
N218 Co217 1.995 . S
N218 C219 1.376 . S
N218 C222 1.383 . S
C219 N218 1.376 . S
C219 C220 1.446 . S
C219 C249 1.391 . S
C220 C219 1.446 . S
C220 C221 1.339 . S
C220 H255 0.949 . S
C221 C220 1.339 . S
C221 C222 1.439 . S
C221 H256 0.950 . S
C222 N218 1.383 . S
C222 C221 1.439 . S
C222 C251 1.392 . S
N223 Co217 2.008 . S
N223 C224 1.376 . S
N223 C227 1.374 . S
C224 N223 1.376 . S
C224 C225 1.443 . S
C224 C251 1.389 . S
C225 C224 1.443 . S
C225 C226 1.340 . S
C225 H257 0.951 . S
C226 C225 1.340 . S
C226 C227 1.439 . S
C226 H258 0.950 . S
C227 N223 1.374 . S
C227 C226 1.439 . S
C227 C252 1.395 . S
N228 Co217 1.995 . S
N228 C229 1.376 . S
N228 C232 1.383 . S
C229 N228 1.376 . S
C229 C230 1.446 . S
C229 C252 1.391 . S
C230 C229 1.446 . S
C230 C231 1.339 . S
C230 H259 0.949 . S
C231 C230 1.339 . S
C231 C232 1.439 . S
C231 H260 0.950 . S
C232 N228 1.383 . S
C232 C231 1.439 . S
C232 C250 1.392 . S
N233 Co217 2.282 . S
N233 C236 1.332 . S
N233 C238 1.332 . S
C234 C235 1.386 . S
C234 C237 1.388 . S
C235 C234 1.386 . S
C235 C236 1.382 . S
C235 H261 0.950 . S
C236 N233 1.332 . S
C236 C235 1.382 . S
C236 H247 0.952 . S
C237 C234 1.388 . S
C237 C238 1.382 . S
C237 H262 0.950 . S
C238 N233 1.332 . S
C238 C237 1.382 . S
C238 H248 0.948 . S
N239 Co217 2.282 . S
N239 C243 1.332 . S
N239 C244 1.332 . S
C240 C241 1.388 . S
C240 C244 1.382 . S
C240 H263 0.950 . S
C241 C240 1.388 . S
C241 C242 1.386 . S
C242 C241 1.386 . S
C242 C243 1.382 . S
C242 H264 0.950 . S
C243 N239 1.332 . S
C243 C242 1.382 . S
C243 H245 0.952 . S
C244 N239 1.332 . S
C244 C240 1.382 . S
C244 H246 0.948 . S
H245 C243 0.952 . S
H246 C244 0.948 . S
H247 C236 0.952 . S
H248 C238 0.948 . S
C249 C215 1.395 . S
C249 C219 1.391 . S
C250 C212 1.389 . S
C250 C232 1.392 . S
C251 C222 1.392 . S
C251 C224 1.389 . S
C252 C227 1.395 . S
C252 C229 1.391 . S
H253 C213 0.951 . S
H254 C214 0.950 . S
H255 C220 0.949 . S
H256 C221 0.950 . S
H257 C225 0.951 . S
H258 C226 0.950 . S
H259 C230 0.949 . S
H260 C231 0.950 . S
H261 C235 0.950 . S
H262 C237 0.950 . S
H263 C240 0.950 . S
H264 C242 0.950 . S
C265 C266 1.443 . S
C265 N269 1.376 . S
C265 C303 1.389 . S
C266 C265 1.443 . S
C266 C267 1.340 . S
C266 H306 0.951 . S
C267 C266 1.340 . S
C267 C268 1.439 . S
C267 H307 0.950 . S
C268 C267 1.439 . S
C268 N269 1.374 . S
C268 C302 1.395 . S
N269 C265 1.376 . S
N269 C268 1.374 . S
N269 Co270 2.008 . S
Co270 N269 2.008 . S
Co270 N271 1.995 . S
Co270 N276 2.008 . S
Co270 N281 1.995 . S
Co270 N286 2.282 . S
Co270 N292 2.282 . S
N271 Co270 1.995 . S
N271 C272 1.376 . S
N271 C275 1.383 . S
C272 N271 1.376 . S
C272 C273 1.446 . S
C272 C302 1.391 . S
C273 C272 1.446 . S
C273 C274 1.339 . S
C273 H308 0.949 . S
C274 C273 1.339 . S
C274 C275 1.439 . S
C274 H309 0.950 . S
C275 N271 1.383 . S
C275 C274 1.439 . S
C275 C304 1.392 . S
N276 Co270 2.008 . S
N276 C277 1.376 . S
N276 C280 1.374 . S
C277 N276 1.376 . S
C277 C278 1.443 . S
C277 C304 1.389 . S
C278 C277 1.443 . S
C278 C279 1.340 . S
C278 H310 0.951 . S
C279 C278 1.340 . S
C279 C280 1.439 . S
C279 H311 0.950 . S
C280 N276 1.374 . S
C280 C279 1.439 . S
C280 C305 1.395 . S
N281 Co270 1.995 . S
N281 C282 1.376 . S
N281 C285 1.383 . S
C282 N281 1.376 . S
C282 C283 1.446 . S
C282 C305 1.391 . S
C283 C282 1.446 . S
C283 C284 1.339 . S
C283 H312 0.949 . S
C284 C283 1.339 . S
C284 C285 1.439 . S
C284 H313 0.950 . S
C285 N281 1.383 . S
C285 C284 1.439 . S
C285 C303 1.392 . S
N286 Co270 2.282 . S
N286 C289 1.332 . S
N286 C291 1.332 . S
C287 C288 1.386 . S
C287 C290 1.388 . S
C288 C287 1.386 . S
C288 C289 1.382 . S
C288 H314 0.950 . S
C289 N286 1.332 . S
C289 C288 1.382 . S
C289 H300 0.952 . S
C290 C287 1.388 . S
C290 C291 1.382 . S
C290 H315 0.950 . S
C291 N286 1.332 . S
C291 C290 1.382 . S
C291 H301 0.948 . S
N292 Co270 2.282 . S
N292 C296 1.332 . S
N292 C297 1.332 . S
C293 C294 1.388 . S
C293 C297 1.382 . S
C293 H316 0.950 . S
C294 C293 1.388 . S
C294 C295 1.386 . S
C295 C294 1.386 . S
C295 C296 1.382 . S
C295 H317 0.950 . S
C296 N292 1.332 . S
C296 C295 1.382 . S
C296 H298 0.952 . S
C297 N292 1.332 . S
C297 C293 1.382 . S
C297 H299 0.948 . S
H298 C296 0.952 . S
H299 C297 0.948 . S
H300 C289 0.952 . S
H301 C291 0.948 . S
C302 C268 1.395 . S
C302 C272 1.391 . S
C303 C265 1.389 . S
C303 C285 1.392 . S
C304 C275 1.392 . S
C304 C277 1.389 . S
C305 C280 1.395 . S
C305 C282 1.391 . S
H306 C266 0.951 . S
H307 C267 0.950 . S
H308 C273 0.949 . S
H309 C274 0.950 . S
H310 C278 0.951 . S
H311 C279 0.950 . S
H312 C283 0.949 . S
H313 C284 0.950 . S
H314 C288 0.950 . S
H315 C290 0.950 . S
H316 C293 0.950 . S
H317 C295 0.950 . S
C318 C319 1.443 . S
C318 N322 1.376 . S
C318 C356 1.389 . S
C319 C318 1.443 . S
C319 C320 1.340 . S
C319 H359 0.951 . S
C320 C319 1.340 . S
C320 C321 1.439 . S
C320 H360 0.950 . S
C321 C320 1.439 . S
C321 N322 1.374 . S
C321 C355 1.395 . S
N322 C318 1.376 . S
N322 C321 1.374 . S
N322 Co323 2.008 . S
Co323 N322 2.008 . S
Co323 N324 1.995 . S
Co323 N329 2.008 . S
Co323 N334 1.995 . S
Co323 N339 2.282 . S
Co323 N345 2.282 . S
N324 Co323 1.995 . S
N324 C325 1.376 . S
N324 C328 1.383 . S
C325 N324 1.376 . S
C325 C326 1.446 . S
C325 C355 1.391 . S
C326 C325 1.446 . S
C326 C327 1.339 . S
C326 H361 0.949 . S
C327 C326 1.339 . S
C327 C328 1.439 . S
C327 H362 0.950 . S
C328 N324 1.383 . S
C328 C327 1.439 . S
C328 C357 1.392 . S
N329 Co323 2.008 . S
N329 C330 1.376 . S
N329 C333 1.374 . S
C330 N329 1.376 . S
C330 C331 1.443 . S
C330 C357 1.389 . S
C331 C330 1.443 . S
C331 C332 1.340 . S
C331 H363 0.951 . S
C332 C331 1.340 . S
C332 C333 1.439 . S
C332 H364 0.950 . S
C333 N329 1.374 . S
C333 C332 1.439 . S
C333 C358 1.395 . S
N334 Co323 1.995 . S
N334 C335 1.376 . S
N334 C338 1.383 . S
C335 N334 1.376 . S
C335 C336 1.446 . S
C335 C358 1.391 . S
C336 C335 1.446 . S
C336 C337 1.339 . S
C336 H365 0.949 . S
C337 C336 1.339 . S
C337 C338 1.439 . S
C337 H366 0.950 . S
C338 N334 1.383 . S
C338 C337 1.439 . S
C338 C356 1.392 . S
N339 Co323 2.282 . S
N339 C342 1.332 . S
N339 C344 1.332 . S
C340 C341 1.386 . S
C340 C343 1.388 . S
C341 C340 1.386 . S
C341 C342 1.382 . S
C341 H367 0.950 . S
C342 N339 1.332 . S
C342 C341 1.382 . S
C342 H353 0.952 . S
C343 C340 1.388 . S
C343 C344 1.382 . S
C343 H368 0.950 . S
C344 N339 1.332 . S
C344 C343 1.382 . S
C344 H354 0.948 . S
N345 Co323 2.282 . S
N345 C349 1.332 . S
N345 C350 1.332 . S
C346 C347 1.388 1_556 S
C346 C350 1.382 . S
C346 H369 0.950 1_556 S
C347 C346 1.388 1_554 S
C347 C348 1.386 1_554 S
C348 C347 1.386 1_556 S
C348 C349 1.382 . S
C348 H370 0.950 1_556 S
C349 N345 1.332 . S
C349 C348 1.382 . S
C349 H351 0.952 . S
C350 N345 1.332 . S
C350 C346 1.382 . S
C350 H352 0.948 . S
H351 C349 0.952 . S
H352 C350 0.948 . S
H353 C342 0.952 . S
H354 C344 0.948 . S
C355 C321 1.395 . S
C355 C325 1.391 . S
C356 C318 1.389 . S
C356 C338 1.392 . S
C357 C328 1.392 . S
C357 C330 1.389 . S
C358 C333 1.395 . S
C358 C335 1.391 . S
H359 C319 0.951 . S
H360 C320 0.950 . S
H361 C326 0.949 . S
H362 C327 0.950 . S
H363 C331 0.951 . S
H364 C332 0.950 . S
H365 C336 0.949 . S
H366 C337 0.950 . S
H367 C341 0.950 . S
H368 C343 0.950 . S
H369 C346 0.950 1_554 S
H370 C348 0.950 1_554 S
C371 C372 1.443 . S
C371 N375 1.376 . S
C371 C409 1.389 . S
C372 C371 1.443 . S
C372 C373 1.340 . S
C372 H412 0.951 . S
C373 C372 1.340 . S
C373 C374 1.439 . S
C373 H413 0.950 . S
C374 C373 1.439 . S
C374 N375 1.374 . S
C374 C408 1.395 . S
N375 C371 1.376 . S
N375 C374 1.374 . S
N375 Co376 2.008 . S
Co376 N375 2.008 . S
Co376 N377 1.995 . S
Co376 N382 2.008 . S
Co376 N387 1.995 . S
Co376 N392 2.282 . S
Co376 N398 2.282 . S
N377 Co376 1.995 . S
N377 C378 1.376 . S
N377 C381 1.383 . S
C378 N377 1.376 . S
C378 C379 1.446 . S
C378 C408 1.391 . S
C379 C378 1.446 . S
C379 C380 1.339 . S
C379 H414 0.949 . S
C380 C379 1.339 . S
C380 C381 1.439 . S
C380 H415 0.950 . S
C381 N377 1.383 . S
C381 C380 1.439 . S
C381 C410 1.392 . S
N382 Co376 2.008 . S
N382 C383 1.376 . S
N382 C386 1.374 . S
C383 N382 1.376 . S
C383 C384 1.443 . S
C383 C410 1.389 . S
C384 C383 1.443 . S
C384 C385 1.340 . S
C384 H416 0.951 . S
C385 C384 1.340 . S
C385 C386 1.439 . S
C385 H417 0.950 . S
C386 N382 1.374 . S
C386 C385 1.439 . S
C386 C411 1.395 . S
N387 Co376 1.995 . S
N387 C388 1.376 . S
N387 C391 1.383 . S
C388 N387 1.376 . S
C388 C389 1.446 . S
C388 C411 1.391 . S
C389 C388 1.446 . S
C389 C390 1.339 . S
C389 H418 0.949 . S
C390 C389 1.339 . S
C390 C391 1.439 . S
C390 H419 0.950 . S
C391 N387 1.383 . S
C391 C390 1.439 . S
C391 C409 1.392 . S
N392 Co376 2.282 . S
N392 C395 1.332 . S
N392 C397 1.332 . S
C393 C394 1.386 . S
C393 C396 1.388 . S
C394 C393 1.386 . S
C394 C395 1.382 . S
C394 H420 0.950 . S
C395 N392 1.332 . S
C395 C394 1.382 . S
C395 H406 0.952 . S
C396 C393 1.388 . S
C396 C397 1.382 . S
C396 H421 0.950 . S
C397 N392 1.332 . S
C397 C396 1.382 . S
C397 H407 0.948 . S
N398 Co376 2.282 . S
N398 C402 1.332 . S
N398 C403 1.332 . S
C399 C400 1.388 1_556 S
C399 C403 1.382 . S
C399 H422 0.950 1_556 S
C400 C399 1.388 1_554 S
C400 C401 1.386 1_554 S
C401 C400 1.386 1_556 S
C401 C402 1.382 . S
C401 H423 0.950 1_556 S
C402 N398 1.332 . S
C402 C401 1.382 . S
C402 H404 0.952 . S
C403 N398 1.332 . S
C403 C399 1.382 . S
C403 H405 0.948 . S
H404 C402 0.952 . S
H405 C403 0.948 . S
H406 C395 0.952 . S
H407 C397 0.948 . S
C408 C374 1.395 . S
C408 C378 1.391 . S
C409 C371 1.389 . S
C409 C391 1.392 . S
C410 C381 1.392 . S
C410 C383 1.389 . S
C411 C386 1.395 . S
C411 C388 1.391 . S
H412 C372 0.951 . S
H413 C373 0.950 . S
H414 C379 0.949 . S
H415 C380 0.950 . S
H416 C384 0.951 . S
H417 C385 0.950 . S
H418 C389 0.949 . S
H419 C390 0.950 . S
H420 C394 0.950 . S
H421 C396 0.950 . S
H422 C399 0.950 1_554 S
H423 C401 0.950 1_554 S
C424 C425 1.443 . S
C424 N428 1.376 . S
C424 C462 1.389 . S
C425 C424 1.443 . S
C425 C426 1.340 . S
C425 H465 0.951 . S
C426 C425 1.340 . S
C426 C427 1.439 . S
C426 H466 0.950 . S
C427 C426 1.439 . S
C427 N428 1.374 . S
C427 C461 1.395 . S
N428 C424 1.376 . S
N428 C427 1.374 . S
N428 Co429 2.008 . S
Co429 N428 2.008 . S
Co429 N430 1.995 . S
Co429 N435 2.008 . S
Co429 N440 1.995 . S
Co429 N445 2.282 . S
Co429 N451 2.282 . S
N430 Co429 1.995 . S
N430 C431 1.376 . S
N430 C434 1.383 . S
C431 N430 1.376 . S
C431 C432 1.446 . S
C431 C461 1.391 . S
C432 C431 1.446 . S
C432 C433 1.339 . S
C432 H467 0.949 . S
C433 C432 1.339 . S
C433 C434 1.439 . S
C433 H468 0.950 . S
C434 N430 1.383 . S
C434 C433 1.439 . S
C434 C463 1.392 . S
N435 Co429 2.008 . S
N435 C436 1.376 . S
N435 C439 1.374 . S
C436 N435 1.376 . S
C436 C437 1.443 . S
C436 C463 1.389 . S
C437 C436 1.443 . S
C437 C438 1.340 . S
C437 H469 0.951 . S
C438 C437 1.340 . S
C438 C439 1.439 . S
C438 H470 0.950 . S
C439 N435 1.374 . S
C439 C438 1.439 . S
C439 C464 1.395 . S
N440 Co429 1.995 . S
N440 C441 1.376 . S
N440 C444 1.383 . S
C441 N440 1.376 . S
C441 C442 1.446 . S
C441 C464 1.391 . S
C442 C441 1.446 . S
C442 C443 1.339 . S
C442 H471 0.949 . S
C443 C442 1.339 . S
C443 C444 1.439 . S
C443 H472 0.950 . S
C444 N440 1.383 . S
C444 C443 1.439 . S
C444 C462 1.392 . S
N445 Co429 2.282 . S
N445 C448 1.332 . S
N445 C450 1.332 . S
C446 C447 1.386 . S
C446 C449 1.388 . S
C447 C446 1.386 . S
C447 C448 1.382 . S
C447 H473 0.950 . S
C448 N445 1.332 . S
C448 C447 1.382 . S
C448 H459 0.952 . S
C449 C446 1.388 . S
C449 C450 1.382 . S
C449 H474 0.950 . S
C450 N445 1.332 . S
C450 C449 1.382 . S
C450 H460 0.948 . S
N451 Co429 2.282 . S
N451 C455 1.332 . S
N451 C456 1.332 . S
C452 C453 1.388 1_556 S
C452 C456 1.382 . S
C452 H475 0.950 1_556 S
C453 C452 1.388 1_554 S
C453 C454 1.386 1_554 S
C454 C453 1.386 1_556 S
C454 C455 1.382 . S
C454 H476 0.950 1_556 S
C455 N451 1.332 . S
C455 C454 1.382 . S
C455 H457 0.952 . S
C456 N451 1.332 . S
C456 C452 1.382 . S
C456 H458 0.948 . S
H457 C455 0.952 . S
H458 C456 0.948 . S
H459 C448 0.952 . S
H460 C450 0.948 . S
C461 C427 1.395 . S
C461 C431 1.391 . S
C462 C424 1.389 . S
C462 C444 1.392 . S
C463 C434 1.392 . S
C463 C436 1.389 . S
C464 C439 1.395 . S
C464 C441 1.391 . S
H465 C425 0.951 . S
H466 C426 0.950 . S
H467 C432 0.949 . S
H468 C433 0.950 . S
H469 C437 0.951 . S
H470 C438 0.950 . S
H471 C442 0.949 . S
H472 C443 0.950 . S
H473 C447 0.950 . S
H474 C449 0.950 . S
H475 C452 0.950 1_554 S
H476 C454 0.950 1_554 S
C477 C478 1.443 . S
C477 N481 1.376 . S
C477 C515 1.389 . S
C478 C477 1.443 . S
C478 C479 1.340 . S
C478 H518 0.951 . S
C479 C478 1.340 . S
C479 C480 1.439 . S
C479 H519 0.950 . S
C480 C479 1.439 . S
C480 N481 1.374 . S
C480 C514 1.395 . S
N481 C477 1.376 . S
N481 C480 1.374 . S
N481 Co482 2.008 . S
Co482 N481 2.008 . S
Co482 N483 1.995 . S
Co482 N488 2.008 . S
Co482 N493 1.995 . S
Co482 N498 2.282 . S
Co482 N504 2.282 . S
N483 Co482 1.995 . S
N483 C484 1.376 . S
N483 C487 1.383 . S
C484 N483 1.376 . S
C484 C485 1.446 . S
C484 C514 1.391 . S
C485 C484 1.446 . S
C485 C486 1.339 . S
C485 H520 0.949 . S
C486 C485 1.339 . S
C486 C487 1.439 . S
C486 H521 0.950 . S
C487 N483 1.383 . S
C487 C486 1.439 . S
C487 C516 1.392 . S
N488 Co482 2.008 . S
N488 C489 1.376 . S
N488 C492 1.374 . S
C489 N488 1.376 . S
C489 C490 1.443 . S
C489 C516 1.389 . S
C490 C489 1.443 . S
C490 C491 1.340 . S
C490 H522 0.951 . S
C491 C490 1.340 . S
C491 C492 1.439 . S
C491 H523 0.950 . S
C492 N488 1.374 . S
C492 C491 1.439 . S
C492 C517 1.395 . S
N493 Co482 1.995 . S
N493 C494 1.376 . S
N493 C497 1.383 . S
C494 N493 1.376 . S
C494 C495 1.446 . S
C494 C517 1.391 . S
C495 C494 1.446 . S
C495 C496 1.339 . S
C495 H524 0.949 . S
C496 C495 1.339 . S
C496 C497 1.439 . S
C496 H525 0.950 . S
C497 N493 1.383 . S
C497 C496 1.439 . S
C497 C515 1.392 . S
N498 Co482 2.282 . S
N498 C501 1.332 . S
N498 C503 1.332 . S
C499 C500 1.386 . S
C499 C502 1.388 . S
C500 C499 1.386 . S
C500 C501 1.382 . S
C500 H526 0.950 . S
C501 N498 1.332 . S
C501 C500 1.382 . S
C501 H512 0.952 . S
C502 C499 1.388 . S
C502 C503 1.382 . S
C502 H527 0.950 . S
C503 N498 1.332 . S
C503 C502 1.382 . S
C503 H513 0.948 . S
N504 Co482 2.282 . S
N504 C508 1.332 . S
N504 C509 1.332 . S
C505 C506 1.388 . S
C505 C509 1.382 . S
C505 H528 0.950 . S
C506 C505 1.388 . S
C506 C507 1.386 . S
C507 C506 1.386 . S
C507 C508 1.382 . S
C507 H529 0.950 . S
C508 N504 1.332 . S
C508 C507 1.382 . S
C508 H510 0.952 . S
C509 N504 1.332 . S
C509 C505 1.382 . S
C509 H511 0.948 . S
H510 C508 0.952 . S
H511 C509 0.948 . S
H512 C501 0.952 . S
H513 C503 0.948 . S
C514 C480 1.395 . S
C514 C484 1.391 . S
C515 C477 1.389 . S
C515 C497 1.392 . S
C516 C487 1.392 . S
C516 C489 1.389 . S
C517 C492 1.395 . S
C517 C494 1.391 . S
H518 C478 0.951 . S
H519 C479 0.950 . S
H520 C485 0.949 . S
H521 C486 0.950 . S
H522 C490 0.951 . S
H523 C491 0.950 . S
H524 C495 0.949 . S
H525 C496 0.950 . S
H526 C500 0.950 . S
H527 C502 0.950 . S
H528 C505 0.950 . S
H529 C507 0.950 . S
C530 C531 1.443 . S
C530 N534 1.376 . S
C530 C568 1.389 . S
C531 C530 1.443 . S
C531 C532 1.340 . S
C531 H571 0.951 . S
C532 C531 1.340 . S
C532 C533 1.439 . S
C532 H572 0.950 . S
C533 C532 1.439 . S
C533 N534 1.374 . S
C533 C567 1.395 . S
N534 C530 1.376 . S
N534 C533 1.374 . S
N534 Co535 2.008 . S
Co535 N534 2.008 . S
Co535 N536 1.995 . S
Co535 N541 2.008 . S
Co535 N546 1.995 . S
Co535 N551 2.282 . S
Co535 N557 2.282 . S
N536 Co535 1.995 . S
N536 C537 1.376 . S
N536 C540 1.383 . S
C537 N536 1.376 . S
C537 C538 1.446 . S
C537 C567 1.391 . S
C538 C537 1.446 . S
C538 C539 1.339 . S
C538 H573 0.949 . S
C539 C538 1.339 . S
C539 C540 1.439 . S
C539 H574 0.950 . S
C540 N536 1.383 . S
C540 C539 1.439 . S
C540 C569 1.392 . S
N541 Co535 2.008 . S
N541 C542 1.376 . S
N541 C545 1.374 . S
C542 N541 1.376 . S
C542 C543 1.443 . S
C542 C569 1.389 . S
C543 C542 1.443 . S
C543 C544 1.340 . S
C543 H575 0.951 . S
C544 C543 1.340 . S
C544 C545 1.439 . S
C544 H576 0.950 . S
C545 N541 1.374 . S
C545 C544 1.439 . S
C545 C570 1.395 . S
N546 Co535 1.995 . S
N546 C547 1.376 . S
N546 C550 1.383 . S
C547 N546 1.376 . S
C547 C548 1.446 . S
C547 C570 1.391 . S
C548 C547 1.446 . S
C548 C549 1.339 . S
C548 H577 0.949 . S
C549 C548 1.339 . S
C549 C550 1.439 . S
C549 H578 0.950 . S
C550 N546 1.383 . S
C550 C549 1.439 . S
C550 C568 1.392 . S
N551 Co535 2.282 . S
N551 C554 1.332 . S
N551 C556 1.332 . S
C552 C553 1.386 . S
C552 C555 1.388 . S
C553 C552 1.386 . S
C553 C554 1.382 . S
C553 H579 0.950 . S
C554 N551 1.332 . S
C554 C553 1.382 . S
C554 H565 0.952 . S
C555 C552 1.388 . S
C555 C556 1.382 . S
C555 H580 0.950 . S
C556 N551 1.332 . S
C556 C555 1.382 . S
C556 H566 0.948 . S
N557 Co535 2.282 . S
N557 C561 1.332 . S
N557 C562 1.332 . S
C558 C559 1.388 . S
C558 C562 1.382 . S
C558 H581 0.950 . S
C559 C558 1.388 . S
C559 C560 1.386 . S
C560 C559 1.386 . S
C560 C561 1.382 . S
C560 H582 0.950 . S
C561 N557 1.332 . S
C561 C560 1.382 . S
C561 H563 0.952 . S
C562 N557 1.332 . S
C562 C558 1.382 . S
C562 H564 0.948 . S
H563 C561 0.952 . S
H564 C562 0.948 . S
H565 C554 0.952 . S
H566 C556 0.948 . S
C567 C533 1.395 . S
C567 C537 1.391 . S
C568 C530 1.389 . S
C568 C550 1.392 . S
C569 C540 1.392 . S
C569 C542 1.389 . S
C570 C545 1.395 . S
C570 C547 1.391 . S
H571 C531 0.951 . S
H572 C532 0.950 . S
H573 C538 0.949 . S
H574 C539 0.950 . S
H575 C543 0.951 . S
H576 C544 0.950 . S
H577 C548 0.949 . S
H578 C549 0.950 . S
H579 C553 0.950 . S
H580 C555 0.950 . S
H581 C558 0.950 . S
H582 C560 0.950 . S
C583 C584 1.443 . S
C583 N587 1.376 . S
C583 C621 1.389 . S
C584 C583 1.443 . S
C584 C585 1.340 . S
C584 H624 0.951 . S
C585 C584 1.340 . S
C585 C586 1.439 . S
C585 H625 0.950 . S
C586 C585 1.439 . S
C586 N587 1.374 . S
C586 C620 1.395 . S
N587 C583 1.376 . S
N587 C586 1.374 . S
N587 Co588 2.008 . S
Co588 N587 2.008 . S
Co588 N589 1.995 . S
Co588 N594 2.008 . S
Co588 N599 1.995 . S
Co588 N604 2.282 . S
Co588 N610 2.282 . S
N589 Co588 1.995 . S
N589 C590 1.376 . S
N589 C593 1.383 . S
C590 N589 1.376 . S
C590 C591 1.446 . S
C590 C620 1.391 . S
C591 C590 1.446 . S
C591 C592 1.339 . S
C591 H626 0.949 . S
C592 C591 1.339 . S
C592 C593 1.439 . S
C592 H627 0.950 . S
C593 N589 1.383 . S
C593 C592 1.439 . S
C593 C622 1.392 . S
N594 Co588 2.008 . S
N594 C595 1.376 . S
N594 C598 1.374 . S
C595 N594 1.376 . S
C595 C596 1.443 . S
C595 C622 1.389 . S
C596 C595 1.443 . S
C596 C597 1.340 . S
C596 H628 0.951 . S
C597 C596 1.340 . S
C597 C598 1.439 . S
C597 H629 0.950 . S
C598 N594 1.374 . S
C598 C597 1.439 . S
C598 C623 1.395 . S
N599 Co588 1.995 . S
N599 C600 1.376 . S
N599 C603 1.383 . S
C600 N599 1.376 . S
C600 C601 1.446 . S
C600 C623 1.391 . S
C601 C600 1.446 . S
C601 C602 1.339 . S
C601 H630 0.949 . S
C602 C601 1.339 . S
C602 C603 1.439 . S
C602 H631 0.950 . S
C603 N599 1.383 . S
C603 C602 1.439 . S
C603 C621 1.392 . S
N604 Co588 2.282 . S
N604 C607 1.332 . S
N604 C609 1.332 . S
C605 C606 1.386 . S
C605 C608 1.388 . S
C606 C605 1.386 . S
C606 C607 1.382 . S
C606 H632 0.950 . S
C607 N604 1.332 . S
C607 C606 1.382 . S
C607 H618 0.952 . S
C608 C605 1.388 . S
C608 C609 1.382 . S
C608 H633 0.950 . S
C609 N604 1.332 . S
C609 C608 1.382 . S
C609 H619 0.948 . S
N610 Co588 2.282 . S
N610 C614 1.332 . S
N610 C615 1.332 . S
C611 C612 1.388 . S
C611 C615 1.382 . S
C611 H634 0.950 . S
C612 C611 1.388 . S
C612 C613 1.386 . S
C613 C612 1.386 . S
C613 C614 1.382 . S
C613 H635 0.950 . S
C614 N610 1.332 . S
C614 C613 1.382 . S
C614 H616 0.952 . S
C615 N610 1.332 . S
C615 C611 1.382 . S
C615 H617 0.948 . S
H616 C614 0.952 . S
H617 C615 0.948 . S
H618 C607 0.952 . S
H619 C609 0.948 . S
C620 C586 1.395 . S
C620 C590 1.391 . S
C621 C583 1.389 . S
C621 C603 1.392 . S
C622 C593 1.392 . S
C622 C595 1.389 . S
C623 C598 1.395 . S
C623 C600 1.391 . S
H624 C584 0.951 . S
H625 C585 0.950 . S
H626 C591 0.949 . S
H627 C592 0.950 . S
H628 C596 0.951 . S
H629 C597 0.950 . S
H630 C601 0.949 . S
H631 C602 0.950 . S
H632 C606 0.950 . S
H633 C608 0.950 . S
H634 C611 0.950 . S
H635 C613 0.950 . S
C636 C637 1.443 . S
C636 N640 1.376 . S
C636 C674 1.389 . S
C637 C636 1.443 . S
C637 C638 1.340 . S
C637 H677 0.951 . S
C638 C637 1.340 . S
C638 C639 1.439 . S
C638 H678 0.950 . S
C639 C638 1.439 . S
C639 N640 1.374 . S
C639 C673 1.395 . S
N640 C636 1.376 . S
N640 C639 1.374 . S
N640 Co641 2.008 . S
Co641 N640 2.008 . S
Co641 N642 1.995 . S
Co641 N647 2.008 1_455 S
Co641 N652 1.995 1_455 S
Co641 N657 2.282 . S
Co641 N663 2.287 . S
N642 Co641 1.995 . S
N642 C643 1.376 . S
N642 C646 1.383 . S
C643 N642 1.376 . S
C643 C644 1.446 . S
C643 C673 1.391 . S
C644 C643 1.446 . S
C644 C645 1.339 . S
C644 H679 0.949 . S
C645 C644 1.339 . S
C645 C646 1.439 . S
C645 H680 0.950 . S
C646 N642 1.383 . S
C646 C645 1.439 . S
C646 C675 1.392 1_455 S
N647 Co641 2.008 1_655 S
N647 C648 1.376 . S
N647 C651 1.374 . S
C648 N647 1.376 . S
C648 C649 1.443 . S
C648 C675 1.389 . S
C649 C648 1.443 . S
C649 C650 1.340 . S
C649 H681 0.951 . S
C650 C649 1.340 . S
C650 C651 1.439 . S
C650 H682 0.950 . S
C651 N647 1.374 . S
C651 C650 1.439 . S
C651 C676 1.395 . S
N652 Co641 1.995 1_655 S
N652 C653 1.376 . S
N652 C656 1.383 . S
C653 N652 1.376 . S
C653 C654 1.446 . S
C653 C676 1.391 . S
C654 C653 1.446 . S
C654 C655 1.339 . S
C654 H683 0.949 . S
C655 C654 1.339 . S
C655 C656 1.439 . S
C655 H684 0.950 . S
C656 N652 1.383 . S
C656 C655 1.439 . S
C656 C674 1.392 1_655 S
N657 Co641 2.282 . S
N657 C660 1.332 1_455 S
N657 C662 1.332 . S
C658 C659 1.386 1_455 S
C658 C661 1.388 . S
C659 C658 1.386 1_655 S
C659 C660 1.382 . S
C659 H685 0.950 . S
C660 N657 1.332 1_655 S
C660 C659 1.382 . S
C660 H671 0.952 . S
C661 C658 1.388 . S
C661 C662 1.382 . S
C661 H686 0.950 . S
C662 N657 1.332 . S
C662 C661 1.382 . S
C662 H672 0.948 . S
N663 Co641 2.287 . S
N663 C667 1.356 . S
N663 C668 1.315 1_455 S
C664 C665 1.388 1_655 S
C664 C668 1.382 . S
C664 H687 0.950 . S
C665 C664 1.388 1_455 S
C665 C666 1.386 . S
C666 C665 1.386 . S
C666 C667 1.382 . S
C666 H688 0.950 . S
C667 N663 1.356 . S
C667 C666 1.382 . S
C667 H669 0.952 . S
C668 N663 1.315 1_655 S
C668 C664 1.382 . S
C668 H670 0.948 . S
H669 C667 0.952 . S
H670 C668 0.948 . S
H671 C660 0.952 . S
H672 C662 0.948 . S
C673 C639 1.395 . S
C673 C643 1.391 . S
C674 C636 1.389 . S
C674 C656 1.392 1_455 S
C675 C646 1.392 1_655 S
C675 C648 1.389 . S
C676 C651 1.395 . S
C676 C653 1.391 . S
H677 C637 0.951 . S
H678 C638 0.950 . S
H679 C644 0.949 . S
H680 C645 0.950 . S
H681 C649 0.951 . S
H682 C650 0.950 . S
H683 C654 0.949 . S
H684 C655 0.950 . S
H685 C659 0.950 . S
H686 C661 0.950 . S
H687 C664 0.950 . S
H688 C666 0.950 . S
C689 C690 1.443 . S
C689 N693 1.376 . S
C689 C727 1.389 . S
C690 C689 1.443 . S
C690 C691 1.340 . S
C690 H730 0.951 . S
C691 C690 1.340 . S
C691 C692 1.439 . S
C691 H731 0.950 . S
C692 C691 1.439 . S
C692 N693 1.374 . S
C692 C726 1.395 . S
N693 C689 1.376 . S
N693 C692 1.374 . S
N693 Co694 2.008 . S
Co694 N693 2.008 . S
Co694 N695 1.995 . S
Co694 N700 2.008 . S
Co694 N705 1.995 . S
Co694 N710 2.282 . S
Co694 N716 2.282 . S
N695 Co694 1.995 . S
N695 C696 1.376 . S
N695 C699 1.383 . S
C696 N695 1.376 . S
C696 C697 1.446 . S
C696 C726 1.391 . S
C697 C696 1.446 . S
C697 C698 1.339 . S
C697 H732 0.949 . S
C698 C697 1.339 . S
C698 C699 1.439 . S
C698 H733 0.950 . S
C699 N695 1.383 . S
C699 C698 1.439 . S
C699 C728 1.392 . S
N700 Co694 2.008 . S
N700 C701 1.376 . S
N700 C704 1.374 . S
C701 N700 1.376 . S
C701 C702 1.443 . S
C701 C728 1.389 . S
C702 C701 1.443 . S
C702 C703 1.340 . S
C702 H734 0.951 . S
C703 C702 1.340 . S
C703 C704 1.439 . S
C703 H735 0.950 . S
C704 N700 1.374 . S
C704 C703 1.439 . S
C704 C729 1.395 . S
N705 Co694 1.995 . S
N705 C706 1.376 . S
N705 C709 1.383 . S
C706 N705 1.376 . S
C706 C707 1.446 . S
C706 C729 1.391 . S
C707 C706 1.446 . S
C707 C708 1.339 . S
C707 H736 0.949 . S
C708 C707 1.339 . S
C708 C709 1.439 . S
C708 H737 0.950 . S
C709 N705 1.383 . S
C709 C708 1.439 . S
C709 C727 1.392 . S
N710 Co694 2.282 . S
N710 C713 1.332 . S
N710 C715 1.332 . S
C711 C712 1.386 . S
C711 C714 1.388 . S
C712 C711 1.386 . S
C712 C713 1.382 . S
C712 H738 0.950 . S
C713 N710 1.332 . S
C713 C712 1.382 . S
C713 H724 0.952 . S
C714 C711 1.388 . S
C714 C715 1.382 . S
C714 H739 0.950 . S
C715 N710 1.332 . S
C715 C714 1.382 . S
C715 H725 0.948 . S
N716 Co694 2.282 . S
N716 C720 1.332 . S
N716 C721 1.332 . S
C717 C718 1.388 . S
C717 C721 1.382 . S
C717 H740 0.950 . S
C718 C717 1.388 . S
C718 C719 1.386 . S
C719 C718 1.386 . S
C719 C720 1.382 . S
C719 H741 0.950 . S
C720 N716 1.332 . S
C720 C719 1.382 . S
C720 H722 0.952 . S
C721 N716 1.332 . S
C721 C717 1.382 . S
C721 H723 0.948 . S
H722 C720 0.952 . S
H723 C721 0.948 . S
H724 C713 0.952 . S
H725 C715 0.948 . S
C726 C692 1.395 . S
C726 C696 1.391 . S
C727 C689 1.389 . S
C727 C709 1.392 . S
C728 C699 1.392 . S
C728 C701 1.389 . S
C729 C704 1.395 . S
C729 C706 1.391 . S
H730 C690 0.951 . S
H731 C691 0.950 . S
H732 C697 0.949 . S
H733 C698 0.950 . S
H734 C702 0.951 . S
H735 C703 0.950 . S
H736 C707 0.949 . S
H737 C708 0.950 . S
H738 C712 0.950 . S
H739 C714 0.950 . S
H740 C717 0.950 . S
H741 C719 0.950 . S
C742 C743 1.443 . S
C742 N746 1.376 . S
C742 C780 1.389 . S
C743 C742 1.443 . S
C743 C744 1.340 . S
C743 H783 0.951 . S
C744 C743 1.340 . S
C744 C745 1.439 . S
C744 H784 0.950 . S
C745 C744 1.439 . S
C745 N746 1.374 . S
C745 C779 1.395 . S
N746 C742 1.376 . S
N746 C745 1.374 . S
N746 Co747 2.008 . S
Co747 N746 2.008 . S
Co747 N748 1.995 . S
Co747 N753 2.008 1_565 S
Co747 N758 1.995 1_565 S
Co747 N763 2.282 . S
Co747 N769 2.285 . S
N748 Co747 1.995 . S
N748 C749 1.376 . S
N748 C752 1.383 . S
C749 N748 1.376 . S
C749 C750 1.446 . S
C749 C779 1.391 . S
C750 C749 1.446 . S
C750 C751 1.339 . S
C750 H785 0.949 . S
C751 C750 1.339 . S
C751 C752 1.439 . S
C751 H786 0.950 . S
C752 N748 1.383 . S
C752 C751 1.439 . S
C752 C781 1.392 1_565 S
N753 Co747 2.008 1_545 S
N753 C754 1.376 . S
N753 C757 1.374 . S
C754 N753 1.376 . S
C754 C755 1.443 . S
C754 C781 1.389 . S
C755 C754 1.443 . S
C755 C756 1.340 . S
C755 H787 0.951 . S
C756 C755 1.340 . S
C756 C757 1.439 . S
C756 H788 0.950 . S
C757 N753 1.374 . S
C757 C756 1.439 . S
C757 C782 1.395 . S
N758 Co747 1.995 1_545 S
N758 C759 1.376 . S
N758 C762 1.383 . S
C759 N758 1.376 . S
C759 C760 1.446 . S
C759 C782 1.391 . S
C760 C759 1.446 . S
C760 C761 1.339 . S
C760 H789 0.949 . S
C761 C760 1.339 . S
C761 C762 1.439 . S
C761 H790 0.950 . S
C762 N758 1.383 . S
C762 C761 1.439 . S
C762 C780 1.392 1_545 S
N763 Co747 2.282 . S
N763 C766 1.332 1_565 S
N763 C768 1.332 . S
C764 C765 1.386 1_565 S
C764 C767 1.388 . S
C765 C764 1.386 1_545 S
C765 C766 1.382 . S
C765 H791 0.950 . S
C766 N763 1.332 1_545 S
C766 C765 1.382 . S
C766 H777 0.952 . S
C767 C764 1.388 . S
C767 C768 1.382 . S
C767 H792 0.950 . S
C768 N763 1.332 . S
C768 C767 1.382 . S
C768 H778 0.948 . S
N769 Co747 2.285 . S
N769 C773 1.373 . S
N769 C774 1.291 1_565 S
C770 C771 1.388 1_545 S
C770 C774 1.382 . S
C770 H793 0.950 . S
C771 C770 1.388 1_565 S
C771 C772 1.386 . S
C772 C771 1.386 . S
C772 C773 1.382 . S
C772 H794 0.950 . S
C773 N769 1.373 . S
C773 C772 1.382 . S
C773 H775 0.952 . S
C774 N769 1.291 1_545 S
C774 C770 1.382 . S
C774 H776 0.948 . S
H775 C773 0.952 . S
H776 C774 0.948 . S
H777 C766 0.952 . S
H778 C768 0.948 . S
C779 C745 1.395 . S
C779 C749 1.391 . S
C780 C742 1.389 . S
C780 C762 1.392 1_565 S
C781 C752 1.392 1_545 S
C781 C754 1.389 . S
C782 C757 1.395 . S
C782 C759 1.391 . S
H783 C743 0.951 . S
H784 C744 0.950 . S
H785 C750 0.949 . S
H786 C751 0.950 . S
H787 C755 0.951 . S
H788 C756 0.950 . S
H789 C760 0.949 . S
H790 C761 0.950 . S
H791 C765 0.950 . S
H792 C767 0.950 . S
H793 C770 0.950 . S
H794 C772 0.950 . S
C795 C796 1.443 . S
C795 N799 1.376 . S
C795 C833 1.389 . S
C796 C795 1.443 . S
C796 C797 1.340 . S
C796 H836 0.951 . S
C797 C796 1.340 . S
C797 C798 1.439 . S
C797 H837 0.950 . S
C798 C797 1.439 . S
C798 N799 1.374 . S
C798 C832 1.395 . S
N799 C795 1.376 . S
N799 C798 1.374 . S
N799 Co800 2.008 . S
Co800 N799 2.008 . S
Co800 N801 1.995 . S
Co800 N806 2.008 . S
Co800 N811 1.995 . S
Co800 N816 2.282 . S
Co800 N822 2.282 . S
N801 Co800 1.995 . S
N801 C802 1.376 . S
N801 C805 1.383 . S
C802 N801 1.376 . S
C802 C803 1.446 . S
C802 C832 1.391 . S
C803 C802 1.446 . S
C803 C804 1.339 . S
C803 H838 0.949 . S
C804 C803 1.339 . S
C804 C805 1.439 . S
C804 H839 0.950 . S
C805 N801 1.383 . S
C805 C804 1.439 . S
C805 C834 1.392 . S
N806 Co800 2.008 . S
N806 C807 1.376 . S
N806 C810 1.374 . S
C807 N806 1.376 . S
C807 C808 1.443 . S
C807 C834 1.389 . S
C808 C807 1.443 . S
C808 C809 1.340 . S
C808 H840 0.951 . S
C809 C808 1.340 . S
C809 C810 1.439 . S
C809 H841 0.950 . S
C810 N806 1.374 . S
C810 C809 1.439 . S
C810 C835 1.395 . S
N811 Co800 1.995 . S
N811 C812 1.376 . S
N811 C815 1.383 . S
C812 N811 1.376 . S
C812 C813 1.446 . S
C812 C835 1.391 . S
C813 C812 1.446 . S
C813 C814 1.339 . S
C813 H842 0.949 . S
C814 C813 1.339 . S
C814 C815 1.439 . S
C814 H843 0.950 . S
C815 N811 1.383 . S
C815 C814 1.439 . S
C815 C833 1.392 . S
N816 Co800 2.282 . S
N816 C819 1.332 . S
N816 C821 1.332 . S
C817 C818 1.386 . S
C817 C820 1.388 . S
C818 C817 1.386 . S
C818 C819 1.382 . S
C818 H844 0.950 . S
C819 N816 1.332 . S
C819 C818 1.382 . S
C819 H830 0.952 . S
C820 C817 1.388 . S
C820 C821 1.382 . S
C820 H845 0.950 . S
C821 N816 1.332 . S
C821 C820 1.382 . S
C821 H831 0.948 . S
N822 Co800 2.282 . S
N822 C826 1.332 . S
N822 C827 1.332 . S
C823 C824 1.388 . S
C823 C827 1.382 . S
C823 H846 0.950 . S
C824 C823 1.388 . S
C824 C825 1.386 . S
C825 C824 1.386 . S
C825 C826 1.382 . S
C825 H847 0.950 . S
C826 N822 1.332 . S
C826 C825 1.382 . S
C826 H828 0.952 . S
C827 N822 1.332 . S
C827 C823 1.382 . S
C827 H829 0.948 . S
H828 C826 0.952 . S
H829 C827 0.948 . S
H830 C819 0.952 . S
H831 C821 0.948 . S
C832 C798 1.395 . S
C832 C802 1.391 . S
C833 C795 1.389 . S
C833 C815 1.392 . S
C834 C805 1.392 . S
C834 C807 1.389 . S
C835 C810 1.395 . S
C835 C812 1.391 . S
H836 C796 0.951 . S
H837 C797 0.950 . S
H838 C803 0.949 . S
H839 C804 0.950 . S
H840 C808 0.951 . S
H841 C809 0.950 . S
H842 C813 0.949 . S
H843 C814 0.950 . S
H844 C818 0.950 . S
H845 C820 0.950 . S
H846 C823 0.950 . S
H847 C825 0.950 . S
C848 C849 1.443 . S
C848 N852 1.376 . S
C848 C886 1.389 . S
C849 C848 1.443 . S
C849 C850 1.340 . S
C849 H889 0.951 . S
C850 C849 1.340 . S
C850 C851 1.439 . S
C850 H890 0.950 . S
C851 C850 1.439 . S
C851 N852 1.374 . S
C851 C885 1.395 . S
N852 C848 1.376 . S
N852 C851 1.374 . S
N852 Co853 2.008 . S
Co853 N852 2.008 . S
Co853 N854 1.995 . S
Co853 N859 2.008 . S
Co853 N864 1.995 . S
Co853 N869 2.282 . S
Co853 N875 2.282 . S
N854 Co853 1.995 . S
N854 C855 1.376 . S
N854 C858 1.383 . S
C855 N854 1.376 . S
C855 C856 1.446 . S
C855 C885 1.391 . S
C856 C855 1.446 . S
C856 C857 1.339 . S
C856 H891 0.949 . S
C857 C856 1.339 . S
C857 C858 1.439 . S
C857 H892 0.950 . S
C858 N854 1.383 . S
C858 C857 1.439 . S
C858 C887 1.392 . S
N859 Co853 2.008 . S
N859 C860 1.376 . S
N859 C863 1.374 . S
C860 N859 1.376 . S
C860 C861 1.443 . S
C860 C887 1.389 . S
C861 C860 1.443 . S
C861 C862 1.340 . S
C861 H893 0.951 . S
C862 C861 1.340 . S
C862 C863 1.439 . S
C862 H894 0.950 . S
C863 N859 1.374 . S
C863 C862 1.439 . S
C863 C888 1.395 . S
N864 Co853 1.995 . S
N864 C865 1.376 . S
N864 C868 1.383 . S
C865 N864 1.376 . S
C865 C866 1.446 . S
C865 C888 1.391 . S
C866 C865 1.446 . S
C866 C867 1.339 . S
C866 H895 0.949 . S
C867 C866 1.339 . S
C867 C868 1.439 . S
C867 H896 0.950 . S
C868 N864 1.383 . S
C868 C867 1.439 . S
C868 C886 1.392 . S
N869 Co853 2.282 . S
N869 C872 1.332 . S
N869 C874 1.332 . S
C870 C871 1.386 . S
C870 C873 1.388 . S
C871 C870 1.386 . S
C871 C872 1.382 . S
C871 H897 0.950 . S
C872 N869 1.332 . S
C872 C871 1.382 . S
C872 H883 0.952 . S
C873 C870 1.388 . S
C873 C874 1.382 . S
C873 H898 0.950 . S
C874 N869 1.332 . S
C874 C873 1.382 . S
C874 H884 0.948 . S
N875 Co853 2.282 . S
N875 C879 1.332 . S
N875 C880 1.332 . S
C876 C877 1.388 . S
C876 C880 1.382 . S
C876 H899 0.950 . S
C877 C876 1.388 . S
C877 C878 1.386 . S
C878 C877 1.386 . S
C878 C879 1.382 . S
C878 H900 0.950 . S
C879 N875 1.332 . S
C879 C878 1.382 . S
C879 H881 0.952 . S
C880 N875 1.332 . S
C880 C876 1.382 . S
C880 H882 0.948 . S
H881 C879 0.952 . S
H882 C880 0.948 . S
H883 C872 0.952 . S
H884 C874 0.948 . S
C885 C851 1.395 . S
C885 C855 1.391 . S
C886 C848 1.389 . S
C886 C868 1.392 . S
C887 C858 1.392 . S
C887 C860 1.389 . S
C888 C863 1.395 . S
C888 C865 1.391 . S
H889 C849 0.951 . S
H890 C850 0.950 . S
H891 C856 0.949 . S
H892 C857 0.950 . S
H893 C861 0.951 . S
H894 C862 0.950 . S
H895 C866 0.949 . S
H896 C867 0.950 . S
H897 C871 0.950 . S
H898 C873 0.950 . S
H899 C876 0.950 . S
H900 C878 0.950 . S
C901 C902 1.443 . S
C901 N905 1.376 . S
C901 C939 1.389 . S
C902 C901 1.443 . S
C902 C903 1.340 . S
C902 H942 0.951 . S
C903 C902 1.340 . S
C903 C904 1.439 . S
C903 H943 0.950 . S
C904 C903 1.439 . S
C904 N905 1.374 . S
C904 C938 1.395 . S
N905 C901 1.376 . S
N905 C904 1.374 . S
N905 Co906 2.008 . S
Co906 N905 2.008 . S
Co906 N907 1.995 . S
Co906 N912 2.008 . S
Co906 N917 1.995 . S
Co906 N922 2.282 . S
Co906 N928 2.282 . S
N907 Co906 1.995 . S
N907 C908 1.376 . S
N907 C911 1.383 . S
C908 N907 1.376 . S
C908 C909 1.446 . S
C908 C938 1.391 . S
C909 C908 1.446 . S
C909 C910 1.339 . S
C909 H944 0.949 . S
C910 C909 1.339 . S
C910 C911 1.439 . S
C910 H945 0.950 . S
C911 N907 1.383 . S
C911 C910 1.439 . S
C911 C940 1.392 . S
N912 Co906 2.008 . S
N912 C913 1.376 . S
N912 C916 1.374 . S
C913 N912 1.376 . S
C913 C914 1.443 . S
C913 C940 1.389 . S
C914 C913 1.443 . S
C914 C915 1.340 . S
C914 H946 0.951 . S
C915 C914 1.340 . S
C915 C916 1.439 . S
C915 H947 0.950 . S
C916 N912 1.374 . S
C916 C915 1.439 . S
C916 C941 1.395 . S
N917 Co906 1.995 . S
N917 C918 1.376 . S
N917 C921 1.383 . S
C918 N917 1.376 . S
C918 C919 1.446 . S
C918 C941 1.391 . S
C919 C918 1.446 . S
C919 C920 1.339 . S
C919 H948 0.949 . S
C920 C919 1.339 . S
C920 C921 1.439 . S
C920 H949 0.950 . S
C921 N917 1.383 . S
C921 C920 1.439 . S
C921 C939 1.392 . S
N922 Co906 2.282 . S
N922 C925 1.332 . S
N922 C927 1.332 . S
C923 C924 1.386 . S
C923 C926 1.388 . S
C924 C923 1.386 . S
C924 C925 1.382 . S
C924 H950 0.950 . S
C925 N922 1.332 . S
C925 C924 1.382 . S
C925 H936 0.952 . S
C926 C923 1.388 . S
C926 C927 1.382 . S
C926 H951 0.950 . S
C927 N922 1.332 . S
C927 C926 1.382 . S
C927 H937 0.948 . S
N928 Co906 2.282 . S
N928 C932 1.332 . S
N928 C933 1.332 . S
C929 C930 1.388 . S
C929 C933 1.382 . S
C929 H952 0.950 . S
C930 C929 1.388 . S
C930 C931 1.386 . S
C931 C930 1.386 . S
C931 C932 1.382 . S
C931 H953 0.950 . S
C932 N928 1.332 . S
C932 C931 1.382 . S
C932 H934 0.952 . S
C933 N928 1.332 . S
C933 C929 1.382 . S
C933 H935 0.948 . S
H934 C932 0.952 . S
H935 C933 0.948 . S
H936 C925 0.952 . S
H937 C927 0.948 . S
C938 C904 1.395 . S
C938 C908 1.391 . S
C939 C901 1.389 . S
C939 C921 1.392 . S
C940 C911 1.392 . S
C940 C913 1.389 . S
C941 C916 1.395 . S
C941 C918 1.391 . S
H942 C902 0.951 . S
H943 C903 0.950 . S
H944 C909 0.949 . S
H945 C910 0.950 . S
H946 C914 0.951 . S
H947 C915 0.950 . S
H948 C919 0.949 . S
H949 C920 0.950 . S
H950 C924 0.950 . S
H951 C926 0.950 . S
H952 C929 0.950 . S
H953 C931 0.950 . S
C954 C955 1.443 . S
C954 N958 1.376 . S
C954 C992 1.389 . S
C955 C954 1.443 . S
C955 C956 1.340 . S
C955 H995 0.951 . S
C956 C955 1.340 . S
C956 C957 1.439 . S
C956 H996 0.950 . S
C957 C956 1.439 . S
C957 N958 1.374 . S
C957 C991 1.395 . S
N958 C954 1.376 . S
N958 C957 1.374 . S
N958 Co959 2.008 . S
Co959 N958 2.008 . S
Co959 N960 1.995 . S
Co959 N965 2.008 . S
Co959 N970 1.995 . S
Co959 N975 2.282 . S
Co959 N981 2.282 . S
N960 Co959 1.995 . S
N960 C961 1.376 . S
N960 C964 1.383 . S
C961 N960 1.376 . S
C961 C962 1.446 . S
C961 C991 1.391 . S
C962 C961 1.446 . S
C962 C963 1.339 . S
C962 H997 0.949 . S
C963 C962 1.339 . S
C963 C964 1.439 . S
C963 H998 0.950 . S
C964 N960 1.383 . S
C964 C963 1.439 . S
C964 C993 1.392 . S
N965 Co959 2.008 . S
N965 C966 1.376 . S
N965 C969 1.374 . S
C966 N965 1.376 . S
C966 C967 1.443 . S
C966 C993 1.389 . S
C967 C966 1.443 . S
C967 C968 1.340 . S
C967 H999 0.951 . S
C968 C967 1.340 . S
C968 C969 1.439 . S
C968 H1000 0.950 . S
C969 N965 1.374 . S
C969 C968 1.439 . S
C969 C994 1.395 . S
N970 Co959 1.995 . S
N970 C971 1.376 . S
N970 C974 1.383 . S
C971 N970 1.376 . S
C971 C972 1.446 . S
C971 C994 1.391 . S
C972 C971 1.446 . S
C972 C973 1.339 . S
C972 H1001 0.949 . S
C973 C972 1.339 . S
C973 C974 1.439 . S
C973 H1002 0.950 . S
C974 N970 1.383 . S
C974 C973 1.439 . S
C974 C992 1.392 . S
N975 Co959 2.282 . S
N975 C978 1.332 . S
N975 C980 1.332 . S
C976 C977 1.386 . S
C976 C979 1.388 . S
C977 C976 1.386 . S
C977 C978 1.382 . S
C977 H1003 0.950 . S
C978 N975 1.332 . S
C978 C977 1.382 . S
C978 H989 0.952 . S
C979 C976 1.388 . S
C979 C980 1.382 . S
C979 H1004 0.950 . S
C980 N975 1.332 . S
C980 C979 1.382 . S
C980 H990 0.948 . S
N981 Co959 2.282 . S
N981 C985 1.332 . S
N981 C986 1.332 . S
C982 C983 1.388 . S
C982 C986 1.382 . S
C982 H1005 0.950 . S
C983 C982 1.388 . S
C983 C984 1.386 . S
C984 C983 1.386 . S
C984 C985 1.382 . S
C984 H1006 0.950 . S
C985 N981 1.332 . S
C985 C984 1.382 . S
C985 H987 0.952 . S
C986 N981 1.332 . S
C986 C982 1.382 . S
C986 H988 0.948 . S
H987 C985 0.952 . S
H988 C986 0.948 . S
H989 C978 0.952 . S
H990 C980 0.948 . S
C991 C957 1.395 . S
C991 C961 1.391 . S
C992 C954 1.389 . S
C992 C974 1.392 . S
C993 C964 1.392 . S
C993 C966 1.389 . S
C994 C969 1.395 . S
C994 C971 1.391 . S
H995 C955 0.951 . S
H996 C956 0.950 . S
H997 C962 0.949 . S
H998 C963 0.950 . S
H999 C967 0.951 . S
H1000 C968 0.950 . S
H1001 C972 0.949 . S
H1002 C973 0.950 . S
H1003 C977 0.950 . S
H1004 C979 0.950 . S
H1005 C982 0.950 . S
H1006 C984 0.950 . S
C1007 C1008 1.443 . S
C1007 N1011 1.376 . S
C1007 C1045 1.389 . S
C1008 C1007 1.443 . S
C1008 C1009 1.340 . S
C1008 H1048 0.951 . S
C1009 C1008 1.340 . S
C1009 C1010 1.439 . S
C1009 H1049 0.950 . S
C1010 C1009 1.439 . S
C1010 N1011 1.374 . S
C1010 C1044 1.395 . S
N1011 C1007 1.376 . S
N1011 C1010 1.374 . S
N1011 Co1012 2.008 . S
Co1012 N1011 2.008 . S
Co1012 N1013 1.995 . S
Co1012 N1018 2.008 . S
Co1012 N1023 1.995 . S
Co1012 N1028 2.282 . S
Co1012 N1034 2.282 . S
N1013 Co1012 1.995 . S
N1013 C1014 1.376 . S
N1013 C1017 1.383 . S
C1014 N1013 1.376 . S
C1014 C1015 1.446 . S
C1014 C1044 1.391 . S
C1015 C1014 1.446 . S
C1015 C1016 1.339 . S
C1015 H1050 0.949 . S
C1016 C1015 1.339 . S
C1016 C1017 1.439 . S
C1016 H1051 0.950 . S
C1017 N1013 1.383 . S
C1017 C1016 1.439 . S
C1017 C1046 1.392 . S
N1018 Co1012 2.008 . S
N1018 C1019 1.376 . S
N1018 C1022 1.374 . S
C1019 N1018 1.376 . S
C1019 C1020 1.443 . S
C1019 C1046 1.389 . S
C1020 C1019 1.443 . S
C1020 C1021 1.340 . S
C1020 H1052 0.951 . S
C1021 C1020 1.340 . S
C1021 C1022 1.439 . S
C1021 H1053 0.950 . S
C1022 N1018 1.374 . S
C1022 C1021 1.439 . S
C1022 C1047 1.395 . S
N1023 Co1012 1.995 . S
N1023 C1024 1.376 . S
N1023 C1027 1.383 . S
C1024 N1023 1.376 . S
C1024 C1025 1.446 . S
C1024 C1047 1.391 . S
C1025 C1024 1.446 . S
C1025 C1026 1.339 . S
C1025 H1054 0.949 . S
C1026 C1025 1.339 . S
C1026 C1027 1.439 . S
C1026 H1055 0.950 . S
C1027 N1023 1.383 . S
C1027 C1026 1.439 . S
C1027 C1045 1.392 . S
N1028 Co1012 2.282 . S
N1028 C1031 1.332 . S
N1028 C1033 1.332 . S
C1029 C1030 1.386 . S
C1029 C1032 1.388 . S
C1030 C1029 1.386 . S
C1030 C1031 1.382 . S
C1030 H1056 0.950 . S
C1031 N1028 1.332 . S
C1031 C1030 1.382 . S
C1031 H1042 0.952 . S
C1032 C1029 1.388 . S
C1032 C1033 1.382 . S
C1032 H1057 0.950 . S
C1033 N1028 1.332 . S
C1033 C1032 1.382 . S
C1033 H1043 0.948 . S
N1034 Co1012 2.282 . S
N1034 C1038 1.332 . S
N1034 C1039 1.332 . S
C1035 C1036 1.388 . S
C1035 C1039 1.382 . S
C1035 H1058 0.950 . S
C1036 C1035 1.388 . S
C1036 C1037 1.386 . S
C1037 C1036 1.386 . S
C1037 C1038 1.382 . S
C1037 H1059 0.950 . S
C1038 N1034 1.332 . S
C1038 C1037 1.382 . S
C1038 H1040 0.952 . S
C1039 N1034 1.332 . S
C1039 C1035 1.382 . S
C1039 H1041 0.948 . S
H1040 C1038 0.952 . S
H1041 C1039 0.948 . S
H1042 C1031 0.952 . S
H1043 C1033 0.948 . S
C1044 C1010 1.395 . S
C1044 C1014 1.391 . S
C1045 C1007 1.389 . S
C1045 C1027 1.392 . S
C1046 C1017 1.392 . S
C1046 C1019 1.389 . S
C1047 C1022 1.395 . S
C1047 C1024 1.391 . S
H1048 C1008 0.951 . S
H1049 C1009 0.950 . S
H1050 C1015 0.949 . S
H1051 C1016 0.950 . S
H1052 C1020 0.951 . S
H1053 C1021 0.950 . S
H1054 C1025 0.949 . S
H1055 C1026 0.950 . S
H1056 C1030 0.950 . S
H1057 C1032 0.950 . S
H1058 C1035 0.950 . S
H1059 C1037 0.950 . S
C1060 C1061 1.443 . S
C1060 N1064 1.376 . S
C1060 C1098 1.389 . S
C1061 C1060 1.443 . S
C1061 C1062 1.340 . S
C1061 H1101 0.951 . S
C1062 C1061 1.340 . S
C1062 C1063 1.439 . S
C1062 H1102 0.950 . S
C1063 C1062 1.439 . S
C1063 N1064 1.374 . S
C1063 C1097 1.395 . S
N1064 C1060 1.376 . S
N1064 C1063 1.374 . S
N1064 Co1065 2.008 . S
Co1065 N1064 2.008 . S
Co1065 N1066 1.995 . S
Co1065 N1071 2.008 . S
Co1065 N1076 1.995 . S
Co1065 N1081 2.282 . S
Co1065 N1087 2.282 . S
N1066 Co1065 1.995 . S
N1066 C1067 1.376 . S
N1066 C1070 1.383 . S
C1067 N1066 1.376 . S
C1067 C1068 1.446 . S
C1067 C1097 1.391 . S
C1068 C1067 1.446 . S
C1068 C1069 1.339 . S
C1068 H1103 0.949 . S
C1069 C1068 1.339 . S
C1069 C1070 1.439 . S
C1069 H1104 0.950 . S
C1070 N1066 1.383 . S
C1070 C1069 1.439 . S
C1070 C1099 1.392 . S
N1071 Co1065 2.008 . S
N1071 C1072 1.376 . S
N1071 C1075 1.374 . S
C1072 N1071 1.376 . S
C1072 C1073 1.443 . S
C1072 C1099 1.389 . S
C1073 C1072 1.443 . S
C1073 C1074 1.340 . S
C1073 H1105 0.951 . S
C1074 C1073 1.340 . S
C1074 C1075 1.439 . S
C1074 H1106 0.950 . S
C1075 N1071 1.374 . S
C1075 C1074 1.439 . S
C1075 C1100 1.395 . S
N1076 Co1065 1.995 . S
N1076 C1077 1.376 . S
N1076 C1080 1.383 . S
C1077 N1076 1.376 . S
C1077 C1078 1.446 . S
C1077 C1100 1.391 . S
C1078 C1077 1.446 . S
C1078 C1079 1.339 . S
C1078 H1107 0.949 . S
C1079 C1078 1.339 . S
C1079 C1080 1.439 . S
C1079 H1108 0.950 . S
C1080 N1076 1.383 . S
C1080 C1079 1.439 . S
C1080 C1098 1.392 . S
N1081 Co1065 2.282 . S
N1081 C1084 1.332 . S
N1081 C1086 1.332 . S
C1082 C1083 1.386 . S
C1082 C1085 1.388 . S
C1083 C1082 1.386 . S
C1083 C1084 1.382 . S
C1083 H1109 0.950 . S
C1084 N1081 1.332 . S
C1084 C1083 1.382 . S
C1084 H1095 0.952 . S
C1085 C1082 1.388 . S
C1085 C1086 1.382 . S
C1085 H1110 0.950 . S
C1086 N1081 1.332 . S
C1086 C1085 1.382 . S
C1086 H1096 0.948 . S
N1087 Co1065 2.282 . S
N1087 C1091 1.332 . S
N1087 C1092 1.332 . S
C1088 C1089 1.388 . S
C1088 C1092 1.382 . S
C1088 H1111 0.950 . S
C1089 C1088 1.388 . S
C1089 C1090 1.386 . S
C1090 C1089 1.386 . S
C1090 C1091 1.382 . S
C1090 H1112 0.950 . S
C1091 N1087 1.332 . S
C1091 C1090 1.382 . S
C1091 H1093 0.952 . S
C1092 N1087 1.332 . S
C1092 C1088 1.382 . S
C1092 H1094 0.948 . S
H1093 C1091 0.952 . S
H1094 C1092 0.948 . S
H1095 C1084 0.952 . S
H1096 C1086 0.948 . S
C1097 C1063 1.395 . S
C1097 C1067 1.391 . S
C1098 C1060 1.389 . S
C1098 C1080 1.392 . S
C1099 C1070 1.392 . S
C1099 C1072 1.389 . S
C1100 C1075 1.395 . S
C1100 C1077 1.391 . S
H1101 C1061 0.951 . S
H1102 C1062 0.950 . S
H1103 C1068 0.949 . S
H1104 C1069 0.950 . S
H1105 C1073 0.951 . S
H1106 C1074 0.950 . S
H1107 C1078 0.949 . S
H1108 C1079 0.950 . S
H1109 C1083 0.950 . S
H1110 C1085 0.950 . S
H1111 C1088 0.950 . S
H1112 C1090 0.950 . S
C1113 C1114 1.432 1_565 S
C1113 N1117 1.346 1_565 S
C1113 C1151 1.425 . S
C1114 C1113 1.432 1_545 S
C1114 C1115 1.340 . S
C1114 H1154 0.951 . S
C1115 C1114 1.340 . S
C1115 C1116 1.439 . S
C1115 H1155 0.950 . S
C1116 C1115 1.439 . S
C1116 N1117 1.374 . S
C1116 C1150 1.395 . S
N1117 C1113 1.346 1_545 S
N1117 C1116 1.374 . S
N1117 Co1118 2.008 1_546 S
Co1118 N1117 2.008 1_564 S
Co1118 N1119 1.995 1_565 S
Co1118 N1124 2.008 . S
Co1118 N1129 1.995 1_554 S
Co1118 N1134 2.282 . S
Co1118 N1140 2.282 1_554 S
N1119 Co1118 1.995 1_545 S
N1119 C1120 1.377 . S
N1119 C1123 1.383 . S
C1120 N1119 1.377 . S
C1120 C1121 1.448 . S
C1120 C1150 1.389 1_554 S
C1121 C1120 1.448 . S
C1121 C1122 1.339 . S
C1121 H1156 0.949 . S
C1122 C1121 1.339 . S
C1122 C1123 1.439 . S
C1122 H1157 0.950 . S
C1123 N1119 1.383 . S
C1123 C1122 1.439 . S
C1123 C1152 1.392 . S
N1124 Co1118 2.008 . S
N1124 C1125 1.376 . S
N1124 C1128 1.374 . S
C1125 N1124 1.376 . S
C1125 C1126 1.443 . S
C1125 C1152 1.389 1_565 S
C1126 C1125 1.443 . S
C1126 C1127 1.340 . S
C1126 H1158 0.951 . S
C1127 C1126 1.340 . S
C1127 C1128 1.439 . S
C1127 H1159 0.950 . S
C1128 N1124 1.374 . S
C1128 C1127 1.439 . S
C1128 C1153 1.395 . S
N1129 Co1118 1.995 1_556 S
N1129 C1130 1.376 . S
N1129 C1133 1.383 . S
C1130 N1129 1.376 . S
C1130 C1131 1.447 . S
C1130 C1153 1.390 1_556 S
C1131 C1130 1.447 . S
C1131 C1132 1.339 . S
C1131 H1160 0.949 . S
C1132 C1131 1.339 . S
C1132 C1133 1.439 . S
C1132 H1161 0.950 . S
C1133 N1129 1.383 . S
C1133 C1132 1.439 . S
C1133 C1151 1.392 . S
N1134 Co1118 2.282 . S
N1134 C1137 1.332 . S
N1134 C1139 1.332 1_565 S
C1135 C1136 1.386 . S
C1135 C1138 1.388 1_565 S
C1136 C1135 1.386 . S
C1136 C1137 1.382 . S
C1136 H1162 0.950 . S
C1137 N1134 1.332 . S
C1137 C1136 1.382 . S
C1137 H1148 0.952 . S
C1138 C1135 1.388 1_545 S
C1138 C1139 1.382 . S
C1138 H1163 0.950 . S
C1139 N1134 1.332 1_545 S
C1139 C1138 1.382 . S
C1139 H1149 0.948 . S
N1140 Co1118 2.282 1_556 S
N1140 C1144 1.332 1_565 S
N1140 C1145 1.332 . S
C1141 C1142 1.388 . S
C1141 C1145 1.382 . S
C1141 H1164 0.950 . S
C1142 C1141 1.388 . S
C1142 C1143 1.386 1_565 S
C1143 C1142 1.386 1_545 S
C1143 C1144 1.382 . S
C1143 H1165 0.950 . S
C1144 N1140 1.332 1_545 S
C1144 C1143 1.382 . S
C1144 H1146 0.952 . S
C1145 N1140 1.332 . S
C1145 C1141 1.382 . S
C1145 H1147 0.948 . S
H1146 C1144 0.952 . S
H1147 C1145 0.948 . S
H1148 C1137 0.952 . S
H1149 C1139 0.948 . S
C1150 C1116 1.395 . S
C1150 C1120 1.389 1_556 S
C1151 C1113 1.425 . S
C1151 C1133 1.392 . S
C1152 C1123 1.392 . S
C1152 C1125 1.389 1_545 S
C1153 C1128 1.395 . S
C1153 C1130 1.390 1_554 S
H1154 C1114 0.951 . S
H1155 C1115 0.950 . S
H1156 C1121 0.949 . S
H1157 C1122 0.950 . S
H1158 C1126 0.951 . S
H1159 C1127 0.950 . S
H1160 C1131 0.949 . S
H1161 C1132 0.950 . S
H1162 C1136 0.950 . S
H1163 C1138 0.950 . S
H1164 C1141 0.950 . S
H1165 C1143 0.950 . S
C1166 C1167 1.411 1_455 S
C1166 N1170 1.380 1_455 S
C1166 C1204 1.415 . S
C1167 C1166 1.411 1_655 S
C1167 C1168 1.340 . S
C1167 H1207 0.951 . S
C1168 C1167 1.340 . S
C1168 C1169 1.439 . S
C1168 H1208 0.950 . S
C1169 C1168 1.439 . S
C1169 N1170 1.374 . S
C1169 C1203 1.395 . S
N1170 C1166 1.380 1_655 S
N1170 C1169 1.374 . S
N1170 Co1171 2.008 1_656 S
Co1171 N1170 2.008 1_454 S
Co1171 N1172 1.995 1_455 S
Co1171 N1177 2.008 . S
Co1171 N1182 1.995 1_554 S
Co1171 N1187 2.282 . S
Co1171 N1193 2.282 1_554 S
N1172 Co1171 1.995 1_655 S
N1172 C1173 1.377 . S
N1172 C1176 1.383 . S
C1173 N1172 1.377 . S
C1173 C1174 1.448 . S
C1173 C1203 1.389 1_554 S
C1174 C1173 1.448 . S
C1174 C1175 1.339 . S
C1174 H1209 0.949 . S
C1175 C1174 1.339 . S
C1175 C1176 1.439 . S
C1175 H1210 0.950 . S
C1176 N1172 1.383 . S
C1176 C1175 1.439 . S
C1176 C1205 1.392 . S
N1177 Co1171 2.008 . S
N1177 C1178 1.376 . S
N1177 C1181 1.374 . S
C1178 N1177 1.376 . S
C1178 C1179 1.443 . S
C1178 C1205 1.389 1_455 S
C1179 C1178 1.443 . S
C1179 C1180 1.340 . S
C1179 H1211 0.951 . S
C1180 C1179 1.340 . S
C1180 C1181 1.439 . S
C1180 H1212 0.950 . S
C1181 N1177 1.374 . S
C1181 C1180 1.439 . S
C1181 C1206 1.395 . S
N1182 Co1171 1.995 1_556 S
N1182 C1183 1.376 . S
N1182 C1186 1.383 . S
C1183 N1182 1.376 . S
C1183 C1184 1.447 . S
C1183 C1206 1.391 1_556 S
C1184 C1183 1.447 . S
C1184 C1185 1.339 . S
C1184 H1213 0.949 . S
C1185 C1184 1.339 . S
C1185 C1186 1.439 . S
C1185 H1214 0.950 . S
C1186 N1182 1.383 . S
C1186 C1185 1.439 . S
C1186 C1204 1.392 . S
N1187 Co1171 2.282 . S
N1187 C1190 1.332 . S
N1187 C1192 1.332 1_455 S
C1188 C1189 1.386 . S
C1188 C1191 1.388 1_455 S
C1189 C1188 1.386 . S
C1189 C1190 1.382 . S
C1189 H1215 0.950 . S
C1190 N1187 1.332 . S
C1190 C1189 1.382 . S
C1190 H1201 0.952 . S
C1191 C1188 1.388 1_655 S
C1191 C1192 1.382 . S
C1191 H1216 0.950 . S
C1192 N1187 1.332 1_655 S
C1192 C1191 1.382 . S
C1192 H1202 0.948 . S
N1193 Co1171 2.282 1_556 S
N1193 C1197 1.332 1_455 S
N1193 C1198 1.332 . S
C1194 C1195 1.388 . S
C1194 C1198 1.382 . S
C1194 H1217 0.950 . S
C1195 C1194 1.388 . S
C1195 C1196 1.386 1_455 S
C1196 C1195 1.386 1_655 S
C1196 C1197 1.382 . S
C1196 H1218 0.950 . S
C1197 N1193 1.332 1_655 S
C1197 C1196 1.382 . S
C1197 H1199 0.952 . S
C1198 N1193 1.332 . S
C1198 C1194 1.382 . S
C1198 H1200 0.948 . S
H1199 C1197 0.952 . S
H1200 C1198 0.948 . S
H1201 C1190 0.952 . S
H1202 C1192 0.948 . S
C1203 C1169 1.395 . S
C1203 C1173 1.389 1_556 S
C1204 C1166 1.415 . S
C1204 C1186 1.392 . S
C1205 C1176 1.392 . S
C1205 C1178 1.389 1_655 S
C1206 C1181 1.395 . S
C1206 C1183 1.391 1_554 S
H1207 C1167 0.951 . S
H1208 C1168 0.950 . S
H1209 C1174 0.949 . S
H1210 C1175 0.950 . S
H1211 C1179 0.951 . S
H1212 C1180 0.950 . S
H1213 C1184 0.949 . S
H1214 C1185 0.950 . S
H1215 C1189 0.950 . S
H1216 C1191 0.950 . S
H1217 C1194 0.950 . S
H1218 C1196 0.950 . S
C1219 C1220 1.443 . S
C1219 N1223 1.376 . S
C1219 C1257 1.389 . S
C1220 C1219 1.443 . S
C1220 C1221 1.340 . S
C1220 H1260 0.951 . S
C1221 C1220 1.340 . S
C1221 C1222 1.439 . S
C1221 H1261 0.950 . S
C1222 C1221 1.439 . S
C1222 N1223 1.374 . S
C1222 C1256 1.395 . S
N1223 C1219 1.376 . S
N1223 C1222 1.374 . S
N1223 Co1224 2.008 1_556 S
Co1224 N1223 2.008 1_554 S
Co1224 N1225 1.995 . S
Co1224 N1230 2.008 . S
Co1224 N1235 1.995 1_554 S
Co1224 N1240 2.282 . S
Co1224 N1246 2.282 1_554 S
N1225 Co1224 1.995 . S
N1225 C1226 1.377 . S
N1225 C1229 1.383 . S
C1226 N1225 1.377 . S
C1226 C1227 1.448 . S
C1226 C1256 1.389 1_554 S
C1227 C1226 1.448 . S
C1227 C1228 1.339 . S
C1227 H1262 0.949 . S
C1228 C1227 1.339 . S
C1228 C1229 1.439 . S
C1228 H1263 0.950 . S
C1229 N1225 1.383 . S
C1229 C1228 1.439 . S
C1229 C1258 1.392 . S
N1230 Co1224 2.008 . S
N1230 C1231 1.376 . S
N1230 C1234 1.374 . S
C1231 N1230 1.376 . S
C1231 C1232 1.443 . S
C1231 C1258 1.389 . S
C1232 C1231 1.443 . S
C1232 C1233 1.340 . S
C1232 H1264 0.951 . S
C1233 C1232 1.340 . S
C1233 C1234 1.439 . S
C1233 H1265 0.950 . S
C1234 N1230 1.374 . S
C1234 C1233 1.439 . S
C1234 C1259 1.395 . S
N1235 Co1224 1.995 1_556 S
N1235 C1236 1.376 . S
N1235 C1239 1.383 . S
C1236 N1235 1.376 . S
C1236 C1237 1.447 . S
C1236 C1259 1.390 1_556 S
C1237 C1236 1.447 . S
C1237 C1238 1.339 . S
C1237 H1266 0.949 . S
C1238 C1237 1.339 . S
C1238 C1239 1.439 . S
C1238 H1267 0.950 . S
C1239 N1235 1.383 . S
C1239 C1238 1.439 . S
C1239 C1257 1.392 . S
N1240 Co1224 2.282 . S
N1240 C1243 1.332 . S
N1240 C1245 1.332 . S
C1241 C1242 1.386 . S
C1241 C1244 1.388 . S
C1242 C1241 1.386 . S
C1242 C1243 1.382 . S
C1242 H1268 0.950 . S
C1243 N1240 1.332 . S
C1243 C1242 1.382 . S
C1243 H1254 0.952 . S
C1244 C1241 1.388 . S
C1244 C1245 1.382 . S
C1244 H1269 0.950 . S
C1245 N1240 1.332 . S
C1245 C1244 1.382 . S
C1245 H1255 0.948 . S
N1246 Co1224 2.282 1_556 S
N1246 C1250 1.332 . S
N1246 C1251 1.332 . S
C1247 C1248 1.388 . S
C1247 C1251 1.382 . S
C1247 H1270 0.950 . S
C1248 C1247 1.388 . S
C1248 C1249 1.386 . S
C1249 C1248 1.386 . S
C1249 C1250 1.382 . S
C1249 H1271 0.950 . S
C1250 N1246 1.332 . S
C1250 C1249 1.382 . S
C1250 H1252 0.952 . S
C1251 N1246 1.332 . S
C1251 C1247 1.382 . S
C1251 H1253 0.948 . S
H1252 C1250 0.952 . S
H1253 C1251 0.948 . S
H1254 C1243 0.952 . S
H1255 C1245 0.948 . S
C1256 C1222 1.395 . S
C1256 C1226 1.389 1_556 S
C1257 C1219 1.389 . S
C1257 C1239 1.392 . S
C1258 C1229 1.392 . S
C1258 C1231 1.389 . S
C1259 C1234 1.395 . S
C1259 C1236 1.390 1_554 S
H1260 C1220 0.951 . S
H1261 C1221 0.950 . S
H1262 C1227 0.949 . S
H1263 C1228 0.950 . S
H1264 C1232 0.951 . S
H1265 C1233 0.950 . S
H1266 C1237 0.949 . S
H1267 C1238 0.950 . S
H1268 C1242 0.950 . S
H1269 C1244 0.950 . S
H1270 C1247 0.950 . S
H1271 C1249 0.950 . S
C1272 C1273 1.443 . S
C1272 N1276 1.376 . S
C1272 C1310 1.389 . S
C1273 C1272 1.443 . S
C1273 C1274 1.340 . S
C1273 H1313 0.951 . S
C1274 C1273 1.340 . S
C1274 C1275 1.439 . S
C1274 H1314 0.950 . S
C1275 C1274 1.439 . S
C1275 N1276 1.374 . S
C1275 C1309 1.395 . S
N1276 C1272 1.376 . S
N1276 C1275 1.374 . S
N1276 Co1277 2.008 . S
Co1277 N1276 2.008 . S
Co1277 N1278 1.995 . S
Co1277 N1283 2.008 . S
Co1277 N1288 1.995 . S
Co1277 N1293 2.282 . S
Co1277 N1299 2.282 . S
N1278 Co1277 1.995 . S
N1278 C1279 1.376 . S
N1278 C1282 1.383 . S
C1279 N1278 1.376 . S
C1279 C1280 1.446 . S
C1279 C1309 1.391 . S
C1280 C1279 1.446 . S
C1280 C1281 1.339 . S
C1280 H1315 0.949 . S
C1281 C1280 1.339 . S
C1281 C1282 1.439 . S
C1281 H1316 0.950 . S
C1282 N1278 1.383 . S
C1282 C1281 1.439 . S
C1282 C1311 1.392 . S
N1283 Co1277 2.008 . S
N1283 C1284 1.376 . S
N1283 C1287 1.374 . S
C1284 N1283 1.376 . S
C1284 C1285 1.443 . S
C1284 C1311 1.389 . S
C1285 C1284 1.443 . S
C1285 C1286 1.340 . S
C1285 H1317 0.951 . S
C1286 C1285 1.340 . S
C1286 C1287 1.439 . S
C1286 H1318 0.950 . S
C1287 N1283 1.374 . S
C1287 C1286 1.439 . S
C1287 C1312 1.395 . S
N1288 Co1277 1.995 . S
N1288 C1289 1.376 . S
N1288 C1292 1.383 . S
C1289 N1288 1.376 . S
C1289 C1290 1.446 . S
C1289 C1312 1.391 . S
C1290 C1289 1.446 . S
C1290 C1291 1.339 . S
C1290 H1319 0.949 . S
C1291 C1290 1.339 . S
C1291 C1292 1.439 . S
C1291 H1320 0.950 . S
C1292 N1288 1.383 . S
C1292 C1291 1.439 . S
C1292 C1310 1.392 . S
N1293 Co1277 2.282 . S
N1293 C1296 1.332 . S
N1293 C1298 1.332 . S
C1294 C1295 1.386 . S
C1294 C1297 1.388 . S
C1295 C1294 1.386 . S
C1295 C1296 1.382 . S
C1295 H1321 0.950 . S
C1296 N1293 1.332 . S
C1296 C1295 1.382 . S
C1296 H1307 0.952 . S
C1297 C1294 1.388 . S
C1297 C1298 1.382 . S
C1297 H1322 0.950 . S
C1298 N1293 1.332 . S
C1298 C1297 1.382 . S
C1298 H1308 0.948 . S
N1299 Co1277 2.282 . S
N1299 C1303 1.332 . S
N1299 C1304 1.332 . S
C1300 C1301 1.388 . S
C1300 C1304 1.382 . S
C1300 H1323 0.950 . S
C1301 C1300 1.388 . S
C1301 C1302 1.386 . S
C1302 C1301 1.386 . S
C1302 C1303 1.382 . S
C1302 H1324 0.950 . S
C1303 N1299 1.332 . S
C1303 C1302 1.382 . S
C1303 H1305 0.952 . S
C1304 N1299 1.332 . S
C1304 C1300 1.382 . S
C1304 H1306 0.948 . S
H1305 C1303 0.952 . S
H1306 C1304 0.948 . S
H1307 C1296 0.952 . S
H1308 C1298 0.948 . S
C1309 C1275 1.395 . S
C1309 C1279 1.391 . S
C1310 C1272 1.389 . S
C1310 C1292 1.392 . S
C1311 C1282 1.392 . S
C1311 C1284 1.389 . S
C1312 C1287 1.395 . S
C1312 C1289 1.391 . S
H1313 C1273 0.951 . S
H1314 C1274 0.950 . S
H1315 C1280 0.949 . S
H1316 C1281 0.950 . S
H1317 C1285 0.951 . S
H1318 C1286 0.950 . S
H1319 C1290 0.949 . S
H1320 C1291 0.950 . S
H1321 C1295 0.950 . S
H1322 C1297 0.950 . S
H1323 C1300 0.950 . S
H1324 C1302 0.950 . S
C1325 C1326 1.443 . S
C1325 N1329 1.376 . S
C1325 C1363 1.389 . S
C1326 C1325 1.443 . S
C1326 C1327 1.340 . S
C1326 H1366 0.951 . S
C1327 C1326 1.340 . S
C1327 C1328 1.439 . S
C1327 H1367 0.950 . S
C1328 C1327 1.439 . S
C1328 N1329 1.374 . S
C1328 C1362 1.395 . S
N1329 C1325 1.376 . S
N1329 C1328 1.374 . S
N1329 Co1330 2.008 . S
Co1330 N1329 2.008 . S
Co1330 N1331 1.995 . S
Co1330 N1336 2.008 . S
Co1330 N1341 1.995 . S
Co1330 N1346 2.282 . S
Co1330 N1352 2.282 . S
N1331 Co1330 1.995 . S
N1331 C1332 1.376 . S
N1331 C1335 1.383 . S
C1332 N1331 1.376 . S
C1332 C1333 1.446 . S
C1332 C1362 1.391 . S
C1333 C1332 1.446 . S
C1333 C1334 1.339 . S
C1333 H1368 0.949 . S
C1334 C1333 1.339 . S
C1334 C1335 1.439 . S
C1334 H1369 0.950 . S
C1335 N1331 1.383 . S
C1335 C1334 1.439 . S
C1335 C1364 1.392 . S
N1336 Co1330 2.008 . S
N1336 C1337 1.376 . S
N1336 C1340 1.374 . S
C1337 N1336 1.376 . S
C1337 C1338 1.443 . S
C1337 C1364 1.389 . S
C1338 C1337 1.443 . S
C1338 C1339 1.340 . S
C1338 H1370 0.951 . S
C1339 C1338 1.340 . S
C1339 C1340 1.439 . S
C1339 H1371 0.950 . S
C1340 N1336 1.374 . S
C1340 C1339 1.439 . S
C1340 C1365 1.395 . S
N1341 Co1330 1.995 . S
N1341 C1342 1.376 . S
N1341 C1345 1.383 . S
C1342 N1341 1.376 . S
C1342 C1343 1.446 . S
C1342 C1365 1.391 . S
C1343 C1342 1.446 . S
C1343 C1344 1.339 . S
C1343 H1372 0.949 . S
C1344 C1343 1.339 . S
C1344 C1345 1.439 . S
C1344 H1373 0.950 . S
C1345 N1341 1.383 . S
C1345 C1344 1.439 . S
C1345 C1363 1.392 . S
N1346 Co1330 2.282 . S
N1346 C1349 1.332 . S
N1346 C1351 1.332 . S
C1347 C1348 1.386 . S
C1347 C1350 1.388 . S
C1348 C1347 1.386 . S
C1348 C1349 1.382 . S
C1348 H1374 0.950 . S
C1349 N1346 1.332 . S
C1349 C1348 1.382 . S
C1349 H1360 0.952 . S
C1350 C1347 1.388 . S
C1350 C1351 1.382 . S
C1350 H1375 0.950 . S
C1351 N1346 1.332 . S
C1351 C1350 1.382 . S
C1351 H1361 0.948 . S
N1352 Co1330 2.282 . S
N1352 C1356 1.332 . S
N1352 C1357 1.332 . S
C1353 C1354 1.388 . S
C1353 C1357 1.382 . S
C1353 H1376 0.950 . S
C1354 C1353 1.388 . S
C1354 C1355 1.386 . S
C1355 C1354 1.386 . S
C1355 C1356 1.382 . S
C1355 H1377 0.950 . S
C1356 N1352 1.332 . S
C1356 C1355 1.382 . S
C1356 H1358 0.952 . S
C1357 N1352 1.332 . S
C1357 C1353 1.382 . S
C1357 H1359 0.948 . S
H1358 C1356 0.952 . S
H1359 C1357 0.948 . S
H1360 C1349 0.952 . S
H1361 C1351 0.948 . S
C1362 C1328 1.395 . S
C1362 C1332 1.391 . S
C1363 C1325 1.389 . S
C1363 C1345 1.392 . S
C1364 C1335 1.392 . S
C1364 C1337 1.389 . S
C1365 C1340 1.395 . S
C1365 C1342 1.391 . S
H1366 C1326 0.951 . S
H1367 C1327 0.950 . S
H1368 C1333 0.949 . S
H1369 C1334 0.950 . S
H1370 C1338 0.951 . S
H1371 C1339 0.950 . S
H1372 C1343 0.949 . S
H1373 C1344 0.950 . S
H1374 C1348 0.950 . S
H1375 C1350 0.950 . S
H1376 C1353 0.950 . S
H1377 C1355 0.950 . S
C1378 C1379 1.443 . S
C1378 N1382 1.376 . S
C1378 C1416 1.389 . S
C1379 C1378 1.443 . S
C1379 C1380 1.340 . S
C1379 H1419 0.951 . S
C1380 C1379 1.340 . S
C1380 C1381 1.439 . S
C1380 H1420 0.950 . S
C1381 C1380 1.439 . S
C1381 N1382 1.374 . S
C1381 C1415 1.395 . S
N1382 C1378 1.376 . S
N1382 C1381 1.374 . S
N1382 Co1383 2.008 . S
Co1383 N1382 2.008 . S
Co1383 N1384 1.995 . S
Co1383 N1389 2.008 . S
Co1383 N1394 1.995 . S
Co1383 N1399 2.282 . S
Co1383 N1405 2.282 . S
N1384 Co1383 1.995 . S
N1384 C1385 1.376 . S
N1384 C1388 1.383 . S
C1385 N1384 1.376 . S
C1385 C1386 1.446 . S
C1385 C1415 1.391 . S
C1386 C1385 1.446 . S
C1386 C1387 1.339 . S
C1386 H1421 0.949 . S
C1387 C1386 1.339 . S
C1387 C1388 1.439 . S
C1387 H1422 0.950 . S
C1388 N1384 1.383 . S
C1388 C1387 1.439 . S
C1388 C1417 1.392 . S
N1389 Co1383 2.008 . S
N1389 C1390 1.376 . S
N1389 C1393 1.374 . S
C1390 N1389 1.376 . S
C1390 C1391 1.443 . S
C1390 C1417 1.389 . S
C1391 C1390 1.443 . S
C1391 C1392 1.340 . S
C1391 H1423 0.951 . S
C1392 C1391 1.340 . S
C1392 C1393 1.439 . S
C1392 H1424 0.950 . S
C1393 N1389 1.374 . S
C1393 C1392 1.439 . S
C1393 C1418 1.395 . S
N1394 Co1383 1.995 . S
N1394 C1395 1.376 . S
N1394 C1398 1.383 . S
C1395 N1394 1.376 . S
C1395 C1396 1.446 . S
C1395 C1418 1.391 . S
C1396 C1395 1.446 . S
C1396 C1397 1.339 . S
C1396 H1425 0.949 . S
C1397 C1396 1.339 . S
C1397 C1398 1.439 . S
C1397 H1426 0.950 . S
C1398 N1394 1.383 . S
C1398 C1397 1.439 . S
C1398 C1416 1.392 . S
N1399 Co1383 2.282 . S
N1399 C1402 1.332 . S
N1399 C1404 1.332 . S
C1400 C1401 1.386 . S
C1400 C1403 1.388 . S
C1401 C1400 1.386 . S
C1401 C1402 1.382 . S
C1401 H1427 0.950 . S
C1402 N1399 1.332 . S
C1402 C1401 1.382 . S
C1402 H1413 0.952 . S
C1403 C1400 1.388 . S
C1403 C1404 1.382 . S
C1403 H1428 0.950 . S
C1404 N1399 1.332 . S
C1404 C1403 1.382 . S
C1404 H1414 0.948 . S
N1405 Co1383 2.282 . S
N1405 C1409 1.332 . S
N1405 C1410 1.332 . S
C1406 C1407 1.388 . S
C1406 C1410 1.382 . S
C1406 H1429 0.950 . S
C1407 C1406 1.388 . S
C1407 C1408 1.386 . S
C1408 C1407 1.386 . S
C1408 C1409 1.382 . S
C1408 H1430 0.950 . S
C1409 N1405 1.332 . S
C1409 C1408 1.382 . S
C1409 H1411 0.952 . S
C1410 N1405 1.332 . S
C1410 C1406 1.382 . S
C1410 H1412 0.948 . S
H1411 C1409 0.952 . S
H1412 C1410 0.948 . S
H1413 C1402 0.952 . S
H1414 C1404 0.948 . S
C1415 C1381 1.395 . S
C1415 C1385 1.391 . S
C1416 C1378 1.389 . S
C1416 C1398 1.392 . S
C1417 C1388 1.392 . S
C1417 C1390 1.389 . S
C1418 C1393 1.395 . S
C1418 C1395 1.391 . S
H1419 C1379 0.951 . S
H1420 C1380 0.950 . S
H1421 C1386 0.949 . S
H1422 C1387 0.950 . S
H1423 C1391 0.951 . S
H1424 C1392 0.950 . S
H1425 C1396 0.949 . S
H1426 C1397 0.950 . S
H1427 C1401 0.950 . S
H1428 C1403 0.950 . S
H1429 C1406 0.950 . S
H1430 C1408 0.950 . S
C1431 C1432 1.443 . S
C1431 N1435 1.376 . S
C1431 C1469 1.389 . S
C1432 C1431 1.443 . S
C1432 C1433 1.340 . S
C1432 H1472 0.951 . S
C1433 C1432 1.340 . S
C1433 C1434 1.439 . S
C1433 H1473 0.950 . S
C1434 C1433 1.439 . S
C1434 N1435 1.374 . S
C1434 C1468 1.395 . S
N1435 C1431 1.376 . S
N1435 C1434 1.374 . S
N1435 Co1436 2.008 1_554 S
Co1436 N1435 2.008 1_556 S
Co1436 N1437 1.995 . S
Co1436 N1442 2.008 1_545 S
Co1436 N1447 1.995 1_546 S
Co1436 N1452 2.282 . S
Co1436 N1458 2.282 1_556 S
N1437 Co1436 1.995 . S
N1437 C1438 1.376 1_556 S
N1437 C1441 1.383 . S
C1438 N1437 1.376 1_554 S
C1438 C1439 1.446 1_554 S
C1438 C1468 1.391 . S
C1439 C1438 1.446 1_556 S
C1439 C1440 1.339 . S
C1439 H1474 0.949 . S
C1440 C1439 1.339 . S
C1440 C1441 1.439 . S
C1440 H1475 0.950 . S
C1441 N1437 1.383 . S
C1441 C1440 1.439 . S
C1441 C1470 1.392 1_545 S
N1442 Co1436 2.008 1_565 S
N1442 C1443 1.376 . S
N1442 C1446 1.374 . S
C1443 N1442 1.376 . S
C1443 C1444 1.443 . S
C1443 C1470 1.389 . S
C1444 C1443 1.443 . S
C1444 C1445 1.340 . S
C1444 H1476 0.951 . S
C1445 C1444 1.340 . S
C1445 C1446 1.439 . S
C1445 H1477 0.950 . S
C1446 N1442 1.374 . S
C1446 C1445 1.439 . S
C1446 C1471 1.395 . S
N1447 Co1436 1.995 1_564 S
N1447 C1448 1.376 1_554 S
N1447 C1451 1.383 1_565 S
C1448 N1447 1.376 1_556 S
C1448 C1449 1.446 1_556 S
C1448 C1471 1.391 . S
C1449 C1448 1.446 1_554 S
C1449 C1450 1.339 . S
C1449 H1478 0.949 . S
C1450 C1449 1.339 . S
C1450 C1451 1.439 1_565 S
C1450 H1479 0.950 . S
C1451 N1447 1.383 1_545 S
C1451 C1450 1.439 1_545 S
C1451 C1469 1.392 . S
N1452 Co1436 2.282 . S
N1452 C1455 1.332 1_545 S
N1452 C1457 1.332 . S
C1453 C1454 1.386 1_545 S
C1453 C1456 1.388 . S
C1454 C1453 1.386 1_565 S
C1454 C1455 1.382 . S
C1454 H1480 0.950 . S
C1455 N1452 1.332 1_565 S
C1455 C1454 1.382 . S
C1455 H1466 0.952 . S
C1456 C1453 1.388 . S
C1456 C1457 1.382 . S
C1456 H1481 0.950 . S
C1457 N1452 1.332 . S
C1457 C1456 1.382 . S
C1457 H1467 0.948 . S
N1458 Co1436 2.282 1_554 S
N1458 C1462 1.332 . S
N1458 C1463 1.332 1_545 S
C1459 C1460 1.388 1_565 S
C1459 C1463 1.382 . S
C1459 H1482 0.950 . S
C1460 C1459 1.388 1_545 S
C1460 C1461 1.386 . S
C1461 C1460 1.386 . S
C1461 C1462 1.382 . S
C1461 H1483 0.950 . S
C1462 N1458 1.332 . S
C1462 C1461 1.382 . S
C1462 H1464 0.952 . S
C1463 N1458 1.332 1_565 S
C1463 C1459 1.382 . S
C1463 H1465 0.948 . S
H1464 C1462 0.952 . S
H1465 C1463 0.948 . S
H1466 C1455 0.952 . S
H1467 C1457 0.948 . S
C1468 C1434 1.395 . S
C1468 C1438 1.391 . S
C1469 C1431 1.389 . S
C1469 C1451 1.392 . S
C1470 C1441 1.392 1_565 S
C1470 C1443 1.389 . S
C1471 C1446 1.395 . S
C1471 C1448 1.391 . S
H1472 C1432 0.951 . S
H1473 C1433 0.950 . S
H1474 C1439 0.949 . S
H1475 C1440 0.950 . S
H1476 C1444 0.951 . S
H1477 C1445 0.950 . S
H1478 C1449 0.949 . S
H1479 C1450 0.950 . S
H1480 C1454 0.950 . S
H1481 C1456 0.950 . S
H1482 C1459 0.950 . S
H1483 C1461 0.950 . S
C1484 C1485 1.443 . S
C1484 N1488 1.376 . S
C1484 C1522 1.389 . S
C1485 C1484 1.443 . S
C1485 C1486 1.340 . S
C1485 H1525 0.951 . S
C1486 C1485 1.340 . S
C1486 C1487 1.439 . S
C1486 H1526 0.950 . S
C1487 C1486 1.439 . S
C1487 N1488 1.374 . S
C1487 C1521 1.395 . S
N1488 C1484 1.376 . S
N1488 C1487 1.374 . S
N1488 Co1489 2.008 1_554 S
Co1489 N1488 2.008 1_556 S
Co1489 N1490 1.995 . S
Co1489 N1495 2.008 1_655 S
Co1489 N1500 1.995 1_656 S
Co1489 N1505 2.282 . S
Co1489 N1511 2.282 1_556 S
N1490 Co1489 1.995 . S
N1490 C1491 1.376 1_556 S
N1490 C1494 1.383 . S
C1491 N1490 1.376 1_554 S
C1491 C1492 1.446 1_554 S
C1491 C1521 1.391 . S
C1492 C1491 1.446 1_556 S
C1492 C1493 1.339 . S
C1492 H1527 0.949 . S
C1493 C1492 1.339 . S
C1493 C1494 1.439 . S
C1493 H1528 0.950 . S
C1494 N1490 1.383 . S
C1494 C1493 1.439 . S
C1494 C1523 1.392 1_655 S
N1495 Co1489 2.008 1_455 S
N1495 C1496 1.376 . S
N1495 C1499 1.374 . S
C1496 N1495 1.376 . S
C1496 C1497 1.443 . S
C1496 C1523 1.389 . S
C1497 C1496 1.443 . S
C1497 C1498 1.340 . S
C1497 H1529 0.951 . S
C1498 C1497 1.340 . S
C1498 C1499 1.439 . S
C1498 H1530 0.950 . S
C1499 N1495 1.374 . S
C1499 C1498 1.439 . S
C1499 C1524 1.395 . S
N1500 Co1489 1.995 1_454 S
N1500 C1501 1.376 1_554 S
N1500 C1504 1.383 1_455 S
C1501 N1500 1.376 1_556 S
C1501 C1502 1.446 1_556 S
C1501 C1524 1.391 . S
C1502 C1501 1.446 1_554 S
C1502 C1503 1.339 . S
C1502 H1531 0.949 . S
C1503 C1502 1.339 . S
C1503 C1504 1.439 1_455 S
C1503 H1532 0.950 . S
C1504 N1500 1.383 1_655 S
C1504 C1503 1.439 1_655 S
C1504 C1522 1.392 . S
N1505 Co1489 2.282 . S
N1505 C1508 1.332 1_655 S
N1505 C1510 1.332 . S
C1506 C1507 1.386 1_655 S
C1506 C1509 1.388 . S
C1507 C1506 1.386 1_455 S
C1507 C1508 1.382 . S
C1507 H1533 0.950 . S
C1508 N1505 1.332 1_455 S
C1508 C1507 1.382 . S
C1508 H1519 0.952 . S
C1509 C1506 1.388 . S
C1509 C1510 1.382 . S
C1509 H1534 0.950 . S
C1510 N1505 1.332 . S
C1510 C1509 1.382 . S
C1510 H1520 0.948 . S
N1511 Co1489 2.282 1_554 S
N1511 C1515 1.332 . S
N1511 C1516 1.332 1_655 S
C1512 C1513 1.388 1_455 S
C1512 C1516 1.382 . S
C1512 H1535 0.950 . S
C1513 C1512 1.388 1_655 S
C1513 C1514 1.386 . S
C1514 C1513 1.386 . S
C1514 C1515 1.382 . S
C1514 H1536 0.950 . S
C1515 N1511 1.332 . S
C1515 C1514 1.382 . S
C1515 H1517 0.952 . S
C1516 N1511 1.332 1_455 S
C1516 C1512 1.382 . S
C1516 H1518 0.948 . S
H1517 C1515 0.952 . S
H1518 C1516 0.948 . S
H1519 C1508 0.952 . S
H1520 C1510 0.948 . S
C1521 C1487 1.395 . S
C1521 C1491 1.391 . S
C1522 C1484 1.389 . S
C1522 C1504 1.392 . S
C1523 C1494 1.392 1_455 S
C1523 C1496 1.389 . S
C1524 C1499 1.395 . S
C1524 C1501 1.391 . S
H1525 C1485 0.951 . S
H1526 C1486 0.950 . S
H1527 C1492 0.949 . S
H1528 C1493 0.950 . S
H1529 C1497 0.951 . S
H1530 C1498 0.950 . S
H1531 C1502 0.949 . S
H1532 C1503 0.950 . S
H1533 C1507 0.950 . S
H1534 C1509 0.950 . S
H1535 C1512 0.950 . S
H1536 C1514 0.950 . S
C1537 C1538 1.443 . S
C1537 N1541 1.376 . S
C1537 C1575 1.389 . S
C1538 C1537 1.443 . S
C1538 C1539 1.340 . S
C1538 H1578 0.951 . S
C1539 C1538 1.340 . S
C1539 C1540 1.439 . S
C1539 H1579 0.950 . S
C1540 C1539 1.439 . S
C1540 N1541 1.374 . S
C1540 C1574 1.395 . S
N1541 C1537 1.376 . S
N1541 C1540 1.374 . S
N1541 Co1542 2.008 1_554 S
Co1542 N1541 2.008 1_556 S
Co1542 N1543 1.995 . S
Co1542 N1548 2.008 . S
Co1542 N1553 1.995 1_556 S
Co1542 N1558 2.282 . S
Co1542 N1564 2.282 1_556 S
N1543 Co1542 1.995 . S
N1543 C1544 1.376 1_556 S
N1543 C1547 1.383 . S
C1544 N1543 1.376 1_554 S
C1544 C1545 1.446 1_554 S
C1544 C1574 1.391 . S
C1545 C1544 1.446 1_556 S
C1545 C1546 1.339 . S
C1545 H1580 0.949 . S
C1546 C1545 1.339 . S
C1546 C1547 1.439 . S
C1546 H1581 0.950 . S
C1547 N1543 1.383 . S
C1547 C1546 1.439 . S
C1547 C1576 1.392 . S
N1548 Co1542 2.008 . S
N1548 C1549 1.376 . S
N1548 C1552 1.374 . S
C1549 N1548 1.376 . S
C1549 C1550 1.443 . S
C1549 C1576 1.389 . S
C1550 C1549 1.443 . S
C1550 C1551 1.340 . S
C1550 H1582 0.951 . S
C1551 C1550 1.340 . S
C1551 C1552 1.439 . S
C1551 H1583 0.950 . S
C1552 N1548 1.374 . S
C1552 C1551 1.439 . S
C1552 C1577 1.395 . S
N1553 Co1542 1.995 1_554 S
N1553 C1554 1.376 1_554 S
N1553 C1557 1.383 . S
C1554 N1553 1.376 1_556 S
C1554 C1555 1.446 1_556 S
C1554 C1577 1.391 . S
C1555 C1554 1.446 1_554 S
C1555 C1556 1.339 . S
C1555 H1584 0.949 . S
C1556 C1555 1.339 . S
C1556 C1557 1.439 . S
C1556 H1585 0.950 . S
C1557 N1553 1.383 . S
C1557 C1556 1.439 . S
C1557 C1575 1.392 . S
N1558 Co1542 2.282 . S
N1558 C1561 1.332 . S
N1558 C1563 1.332 . S
C1559 C1560 1.386 . S
C1559 C1562 1.388 . S
C1560 C1559 1.386 . S
C1560 C1561 1.382 . S
C1560 H1586 0.950 . S
C1561 N1558 1.332 . S
C1561 C1560 1.382 . S
C1561 H1572 0.952 . S
C1562 C1559 1.388 . S
C1562 C1563 1.382 . S
C1562 H1587 0.950 . S
C1563 N1558 1.332 . S
C1563 C1562 1.382 . S
C1563 H1573 0.948 . S
N1564 Co1542 2.282 1_554 S
N1564 C1568 1.332 . S
N1564 C1569 1.332 . S
C1565 C1566 1.388 . S
C1565 C1569 1.382 . S
C1565 H1588 0.950 . S
C1566 C1565 1.388 . S
C1566 C1567 1.386 . S
C1567 C1566 1.386 . S
C1567 C1568 1.382 . S
C1567 H1589 0.950 . S
C1568 N1564 1.332 . S
C1568 C1567 1.382 . S
C1568 H1570 0.952 . S
C1569 N1564 1.332 . S
C1569 C1565 1.382 . S
C1569 H1571 0.948 . S
H1570 C1568 0.952 . S
H1571 C1569 0.948 . S
H1572 C1561 0.952 . S
H1573 C1563 0.948 . S
C1574 C1540 1.395 . S
C1574 C1544 1.391 . S
C1575 C1537 1.389 . S
C1575 C1557 1.392 . S
C1576 C1547 1.392 . S
C1576 C1549 1.389 . S
C1577 C1552 1.395 . S
C1577 C1554 1.391 . S
H1578 C1538 0.951 . S
H1579 C1539 0.950 . S
H1580 C1545 0.949 . S
H1581 C1546 0.950 . S
H1582 C1550 0.951 . S
H1583 C1551 0.950 . S
H1584 C1555 0.949 . S
H1585 C1556 0.950 . S
H1586 C1560 0.950 . S
H1587 C1562 0.950 . S
H1588 C1565 0.950 . S
H1589 C1567 0.950 . S
C1590 C1591 1.443 . S
C1590 N1594 1.376 . S
C1590 C1628 1.389 1_455 S
C1591 C1590 1.443 . S
C1591 C1592 1.340 . S
C1591 H1631 0.951 . S
C1592 C1591 1.340 . S
C1592 C1593 1.439 . S
C1592 H1632 0.950 . S
C1593 C1592 1.439 . S
C1593 N1594 1.374 . S
C1593 C1627 1.395 . S
N1594 C1590 1.376 . S
N1594 C1593 1.374 . S
N1594 Co1595 2.008 1_455 S
Co1595 N1594 2.008 1_655 S
Co1595 N1596 1.995 1_655 S
Co1595 N1601 2.008 . S
Co1595 N1606 1.995 . S
Co1595 N1611 2.282 . S
Co1595 N1617 2.282 . S
N1596 Co1595 1.995 1_455 S
N1596 C1597 1.376 . S
N1596 C1600 1.383 . S
C1597 N1596 1.376 . S
C1597 C1598 1.446 . S
C1597 C1627 1.391 . S
C1598 C1597 1.446 . S
C1598 C1599 1.339 . S
C1598 H1633 0.949 . S
C1599 C1598 1.339 . S
C1599 C1600 1.439 . S
C1599 H1634 0.950 . S
C1600 N1596 1.383 . S
C1600 C1599 1.439 . S
C1600 C1629 1.392 . S
N1601 Co1595 2.008 . S
N1601 C1602 1.376 . S
N1601 C1605 1.374 . S
C1602 N1601 1.376 . S
C1602 C1603 1.443 . S
C1602 C1629 1.389 1_655 S
C1603 C1602 1.443 . S
C1603 C1604 1.340 . S
C1603 H1635 0.951 . S
C1604 C1603 1.340 . S
C1604 C1605 1.439 . S
C1604 H1636 0.950 . S
C1605 N1601 1.374 . S
C1605 C1604 1.439 . S
C1605 C1630 1.395 . S
N1606 Co1595 1.995 . S
N1606 C1607 1.376 . S
N1606 C1610 1.383 . S
C1607 N1606 1.376 . S
C1607 C1608 1.446 . S
C1607 C1630 1.391 . S
C1608 C1607 1.446 . S
C1608 C1609 1.339 . S
C1608 H1637 0.949 . S
C1609 C1608 1.339 . S
C1609 C1610 1.439 . S
C1609 H1638 0.950 . S
C1610 N1606 1.383 . S
C1610 C1609 1.439 . S
C1610 C1628 1.392 . S
N1611 Co1595 2.282 . S
N1611 C1614 1.332 . S
N1611 C1616 1.332 1_655 S
C1612 C1613 1.386 . S
C1612 C1615 1.388 1_655 S
C1613 C1612 1.386 . S
C1613 C1614 1.382 . S
C1613 H1639 0.950 . S
C1614 N1611 1.332 . S
C1614 C1613 1.382 . S
C1614 H1625 0.952 . S
C1615 C1612 1.388 1_455 S
C1615 C1616 1.382 . S
C1615 H1640 0.950 . S
C1616 N1611 1.332 1_455 S
C1616 C1615 1.382 . S
C1616 H1626 0.948 . S
N1617 Co1595 2.282 . S
N1617 C1621 1.332 1_655 S
N1617 C1622 1.332 . S
C1618 C1619 1.388 . S
C1618 C1622 1.382 . S
C1618 H1641 0.950 . S
C1619 C1618 1.388 . S
C1619 C1620 1.386 1_655 S
C1620 C1619 1.386 1_455 S
C1620 C1621 1.382 . S
C1620 H1642 0.950 . S
C1621 N1617 1.332 1_455 S
C1621 C1620 1.382 . S
C1621 H1623 0.952 . S
C1622 N1617 1.332 . S
C1622 C1618 1.382 . S
C1622 H1624 0.948 . S
H1623 C1621 0.952 . S
H1624 C1622 0.948 . S
H1625 C1614 0.952 . S
H1626 C1616 0.948 . S
C1627 C1593 1.395 . S
C1627 C1597 1.391 . S
C1628 C1590 1.389 1_655 S
C1628 C1610 1.392 . S
C1629 C1600 1.392 . S
C1629 C1602 1.389 1_455 S
C1630 C1605 1.395 . S
C1630 C1607 1.391 . S
H1631 C1591 0.951 . S
H1632 C1592 0.950 . S
H1633 C1598 0.949 . S
H1634 C1599 0.950 . S
H1635 C1603 0.951 . S
H1636 C1604 0.950 . S
H1637 C1608 0.949 . S
H1638 C1609 0.950 . S
H1639 C1613 0.950 . S
H1640 C1615 0.950 . S
H1641 C1618 0.950 . S
H1642 C1620 0.950 . S
C1643 C1644 1.443 . S
C1643 N1647 1.376 . S
C1643 C1681 1.389 . S
C1644 C1643 1.443 . S
C1644 C1645 1.340 . S
C1644 H1684 0.951 . S
C1645 C1644 1.340 . S
C1645 C1646 1.439 . S
C1645 H1685 0.950 . S
C1646 C1645 1.439 . S
C1646 N1647 1.374 . S
C1646 C1680 1.395 . S
N1647 C1643 1.376 . S
N1647 C1646 1.374 . S
N1647 Co1648 2.008 . S
Co1648 N1647 2.008 . S
Co1648 N1649 1.995 . S
Co1648 N1654 2.008 . S
Co1648 N1659 1.995 . S
Co1648 N1664 2.282 . S
Co1648 N1670 2.282 . S
N1649 Co1648 1.995 . S
N1649 C1650 1.376 . S
N1649 C1653 1.383 . S
C1650 N1649 1.376 . S
C1650 C1651 1.446 . S
C1650 C1680 1.391 . S
C1651 C1650 1.446 . S
C1651 C1652 1.339 . S
C1651 H1686 0.949 . S
C1652 C1651 1.339 . S
C1652 C1653 1.439 . S
C1652 H1687 0.950 . S
C1653 N1649 1.383 . S
C1653 C1652 1.439 . S
C1653 C1682 1.392 . S
N1654 Co1648 2.008 . S
N1654 C1655 1.376 . S
N1654 C1658 1.374 . S
C1655 N1654 1.376 . S
C1655 C1656 1.443 . S
C1655 C1682 1.389 . S
C1656 C1655 1.443 . S
C1656 C1657 1.340 . S
C1656 H1688 0.951 . S
C1657 C1656 1.340 . S
C1657 C1658 1.439 . S
C1657 H1689 0.950 . S
C1658 N1654 1.374 . S
C1658 C1657 1.439 . S
C1658 C1683 1.395 . S
N1659 Co1648 1.995 . S
N1659 C1660 1.376 . S
N1659 C1663 1.383 . S
C1660 N1659 1.376 . S
C1660 C1661 1.446 . S
C1660 C1683 1.391 . S
C1661 C1660 1.446 . S
C1661 C1662 1.339 . S
C1661 H1690 0.949 . S
C1662 C1661 1.339 . S
C1662 C1663 1.439 . S
C1662 H1691 0.950 . S
C1663 N1659 1.383 . S
C1663 C1662 1.439 . S
C1663 C1681 1.392 . S
N1664 Co1648 2.282 . S
N1664 C1667 1.332 . S
N1664 C1669 1.332 . S
C1665 C1666 1.386 . S
C1665 C1668 1.388 . S
C1666 C1665 1.386 . S
C1666 C1667 1.382 . S
C1666 H1692 0.950 . S
C1667 N1664 1.332 . S
C1667 C1666 1.382 . S
C1667 H1678 0.952 . S
C1668 C1665 1.388 . S
C1668 C1669 1.382 . S
C1668 H1693 0.950 . S
C1669 N1664 1.332 . S
C1669 C1668 1.382 . S
C1669 H1679 0.948 . S
N1670 Co1648 2.282 . S
N1670 C1674 1.332 . S
N1670 C1675 1.332 . S
C1671 C1672 1.388 . S
C1671 C1675 1.382 . S
C1671 H1694 0.950 . S
C1672 C1671 1.388 . S
C1672 C1673 1.386 . S
C1673 C1672 1.386 . S
C1673 C1674 1.382 . S
C1673 H1695 0.950 . S
C1674 N1670 1.332 . S
C1674 C1673 1.382 . S
C1674 H1676 0.952 . S
C1675 N1670 1.332 . S
C1675 C1671 1.382 . S
C1675 H1677 0.948 . S
H1676 C1674 0.952 . S
H1677 C1675 0.948 . S
H1678 C1667 0.952 . S
H1679 C1669 0.948 . S
C1680 C1646 1.395 . S
C1680 C1650 1.391 . S
C1681 C1643 1.389 . S
C1681 C1663 1.392 . S
C1682 C1653 1.392 . S
C1682 C1655 1.389 . S
C1683 C1658 1.395 . S
C1683 C1660 1.391 . S
H1684 C1644 0.951 . S
H1685 C1645 0.950 . S
H1686 C1651 0.949 . S
H1687 C1652 0.950 . S
H1688 C1656 0.951 . S
H1689 C1657 0.950 . S
H1690 C1661 0.949 . S
H1691 C1662 0.950 . S
H1692 C1666 0.950 . S
H1693 C1668 0.950 . S
H1694 C1671 0.950 . S
H1695 C1673 0.950 . S
C1696 C1697 1.443 . S
C1696 N1700 1.376 . S
C1696 C1734 1.389 1_565 S
C1697 C1696 1.443 . S
C1697 C1698 1.340 . S
C1697 H1737 0.951 . S
C1698 C1697 1.340 . S
C1698 C1699 1.439 . S
C1698 H1738 0.950 . S
C1699 C1698 1.439 . S
C1699 N1700 1.374 . S
C1699 C1733 1.395 . S
N1700 C1696 1.376 . S
N1700 C1699 1.374 . S
N1700 Co1701 2.008 1_565 S
Co1701 N1700 2.008 1_545 S
Co1701 N1702 1.995 1_545 S
Co1701 N1707 2.008 . S
Co1701 N1712 1.995 . S
Co1701 N1717 2.282 . S
Co1701 N1723 2.282 . S
N1702 Co1701 1.995 1_565 S
N1702 C1703 1.376 . S
N1702 C1706 1.383 . S
C1703 N1702 1.376 . S
C1703 C1704 1.446 . S
C1703 C1733 1.391 . S
C1704 C1703 1.446 . S
C1704 C1705 1.339 . S
C1704 H1739 0.949 . S
C1705 C1704 1.339 . S
C1705 C1706 1.439 . S
C1705 H1740 0.950 . S
C1706 N1702 1.383 . S
C1706 C1705 1.439 . S
C1706 C1735 1.392 . S
N1707 Co1701 2.008 . S
N1707 C1708 1.376 . S
N1707 C1711 1.374 . S
C1708 N1707 1.376 . S
C1708 C1709 1.443 . S
C1708 C1735 1.389 1_545 S
C1709 C1708 1.443 . S
C1709 C1710 1.340 . S
C1709 H1741 0.951 . S
C1710 C1709 1.340 . S
C1710 C1711 1.439 . S
C1710 H1742 0.950 . S
C1711 N1707 1.374 . S
C1711 C1710 1.439 . S
C1711 C1736 1.395 . S
N1712 Co1701 1.995 . S
N1712 C1713 1.376 . S
N1712 C1716 1.383 . S
C1713 N1712 1.376 . S
C1713 C1714 1.446 . S
C1713 C1736 1.391 . S
C1714 C1713 1.446 . S
C1714 C1715 1.339 . S
C1714 H1743 0.949 . S
C1715 C1714 1.339 . S
C1715 C1716 1.439 . S
C1715 H1744 0.950 . S
C1716 N1712 1.383 . S
C1716 C1715 1.439 . S
C1716 C1734 1.392 . S
N1717 Co1701 2.282 . S
N1717 C1720 1.332 . S
N1717 C1722 1.332 1_545 S
C1718 C1719 1.386 . S
C1718 C1721 1.388 1_545 S
C1719 C1718 1.386 . S
C1719 C1720 1.382 . S
C1719 H1745 0.950 . S
C1720 N1717 1.332 . S
C1720 C1719 1.382 . S
C1720 H1731 0.952 . S
C1721 C1718 1.388 1_565 S
C1721 C1722 1.382 . S
C1721 H1746 0.950 . S
C1722 N1717 1.332 1_565 S
C1722 C1721 1.382 . S
C1722 H1732 0.948 . S
N1723 Co1701 2.282 . S
N1723 C1727 1.332 1_545 S
N1723 C1728 1.332 . S
C1724 C1725 1.388 . S
C1724 C1728 1.382 . S
C1724 H1747 0.950 . S
C1725 C1724 1.388 . S
C1725 C1726 1.386 1_545 S
C1726 C1725 1.386 1_565 S
C1726 C1727 1.382 . S
C1726 H1748 0.950 . S
C1727 N1723 1.332 1_565 S
C1727 C1726 1.382 . S
C1727 H1729 0.952 . S
C1728 N1723 1.332 . S
C1728 C1724 1.382 . S
C1728 H1730 0.948 . S
H1729 C1727 0.952 . S
H1730 C1728 0.948 . S
H1731 C1720 0.952 . S
H1732 C1722 0.948 . S
C1733 C1699 1.395 . S
C1733 C1703 1.391 . S
C1734 C1696 1.389 1_545 S
C1734 C1716 1.392 . S
C1735 C1706 1.392 . S
C1735 C1708 1.389 1_565 S
C1736 C1711 1.395 . S
C1736 C1713 1.391 . S
H1737 C1697 0.951 . S
H1738 C1698 0.950 . S
H1739 C1704 0.949 . S
H1740 C1705 0.950 . S
H1741 C1709 0.951 . S
H1742 C1710 0.950 . S
H1743 C1714 0.949 . S
H1744 C1715 0.950 . S
H1745 C1719 0.950 . S
H1746 C1721 0.950 . S
H1747 C1724 0.950 . S
H1748 C1726 0.950 . S
C1749 C1750 1.443 . S
C1749 N1753 1.376 . S
C1749 C1787 1.389 . S
C1750 C1749 1.443 . S
C1750 C1751 1.340 . S
C1750 H1790 0.951 . S
C1751 C1750 1.340 . S
C1751 C1752 1.439 . S
C1751 H1791 0.950 . S
C1752 C1751 1.439 . S
C1752 N1753 1.374 . S
C1752 C1786 1.395 . S
N1753 C1749 1.376 . S
N1753 C1752 1.374 . S
N1753 Co1754 2.008 . S
Co1754 N1753 2.008 . S
Co1754 N1755 1.995 . S
Co1754 N1760 2.008 . S
Co1754 N1765 1.995 . S
Co1754 N1770 2.282 . S
Co1754 N1776 2.282 . S
N1755 Co1754 1.995 . S
N1755 C1756 1.376 . S
N1755 C1759 1.383 . S
C1756 N1755 1.376 . S
C1756 C1757 1.446 . S
C1756 C1786 1.391 . S
C1757 C1756 1.446 . S
C1757 C1758 1.339 . S
C1757 H1792 0.949 . S
C1758 C1757 1.339 . S
C1758 C1759 1.439 . S
C1758 H1793 0.950 . S
C1759 N1755 1.383 . S
C1759 C1758 1.439 . S
C1759 C1788 1.392 . S
N1760 Co1754 2.008 . S
N1760 C1761 1.376 . S
N1760 C1764 1.374 . S
C1761 N1760 1.376 . S
C1761 C1762 1.443 . S
C1761 C1788 1.389 . S
C1762 C1761 1.443 . S
C1762 C1763 1.340 . S
C1762 H1794 0.951 . S
C1763 C1762 1.340 . S
C1763 C1764 1.439 . S
C1763 H1795 0.950 . S
C1764 N1760 1.374 . S
C1764 C1763 1.439 . S
C1764 C1789 1.395 . S
N1765 Co1754 1.995 . S
N1765 C1766 1.376 . S
N1765 C1769 1.383 . S
C1766 N1765 1.376 . S
C1766 C1767 1.446 . S
C1766 C1789 1.391 . S
C1767 C1766 1.446 . S
C1767 C1768 1.339 . S
C1767 H1796 0.949 . S
C1768 C1767 1.339 . S
C1768 C1769 1.439 . S
C1768 H1797 0.950 . S
C1769 N1765 1.383 . S
C1769 C1768 1.439 . S
C1769 C1787 1.392 . S
N1770 Co1754 2.282 . S
N1770 C1773 1.332 . S
N1770 C1775 1.332 . S
C1771 C1772 1.386 . S
C1771 C1774 1.388 . S
C1772 C1771 1.386 . S
C1772 C1773 1.382 . S
C1772 H1798 0.950 . S
C1773 N1770 1.332 . S
C1773 C1772 1.382 . S
C1773 H1784 0.952 . S
C1774 C1771 1.388 . S
C1774 C1775 1.382 . S
C1774 H1799 0.950 . S
C1775 N1770 1.332 . S
C1775 C1774 1.382 . S
C1775 H1785 0.948 . S
N1776 Co1754 2.282 . S
N1776 C1780 1.332 . S
N1776 C1781 1.332 . S
C1777 C1778 1.388 . S
C1777 C1781 1.382 . S
C1777 H1800 0.950 . S
C1778 C1777 1.388 . S
C1778 C1779 1.386 . S
C1779 C1778 1.386 . S
C1779 C1780 1.382 . S
C1779 H1801 0.950 . S
C1780 N1776 1.332 . S
C1780 C1779 1.382 . S
C1780 H1782 0.952 . S
C1781 N1776 1.332 . S
C1781 C1777 1.382 . S
C1781 H1783 0.948 . S
H1782 C1780 0.952 . S
H1783 C1781 0.948 . S
H1784 C1773 0.952 . S
H1785 C1775 0.948 . S
C1786 C1752 1.395 . S
C1786 C1756 1.391 . S
C1787 C1749 1.389 . S
C1787 C1769 1.392 . S
C1788 C1759 1.392 . S
C1788 C1761 1.389 . S
C1789 C1764 1.395 . S
C1789 C1766 1.391 . S
H1790 C1750 0.951 . S
H1791 C1751 0.950 . S
H1792 C1757 0.949 . S
H1793 C1758 0.950 . S
H1794 C1762 0.951 . S
H1795 C1763 0.950 . S
H1796 C1767 0.949 . S
H1797 C1768 0.950 . S
H1798 C1772 0.950 . S
H1799 C1774 0.950 . S
H1800 C1777 0.950 . S
H1801 C1779 0.950 . S
C1802 C1803 1.443 . S
C1802 N1806 1.376 . S
C1802 C1840 1.389 . S
C1803 C1802 1.443 . S
C1803 C1804 1.340 . S
C1803 H1843 0.951 . S
C1804 C1803 1.340 . S
C1804 C1805 1.439 . S
C1804 H1844 0.950 . S
C1805 C1804 1.439 . S
C1805 N1806 1.374 . S
C1805 C1839 1.395 . S
N1806 C1802 1.376 . S
N1806 C1805 1.374 . S
N1806 Co1807 2.008 . S
Co1807 N1806 2.008 . S
Co1807 N1808 1.995 . S
Co1807 N1813 2.008 . S
Co1807 N1818 1.995 . S
Co1807 N1823 2.282 . S
Co1807 N1829 2.282 . S
N1808 Co1807 1.995 . S
N1808 C1809 1.376 . S
N1808 C1812 1.383 . S
C1809 N1808 1.376 . S
C1809 C1810 1.446 . S
C1809 C1839 1.391 . S
C1810 C1809 1.446 . S
C1810 C1811 1.339 . S
C1810 H1845 0.949 . S
C1811 C1810 1.339 . S
C1811 C1812 1.439 . S
C1811 H1846 0.950 . S
C1812 N1808 1.383 . S
C1812 C1811 1.439 . S
C1812 C1841 1.392 . S
N1813 Co1807 2.008 . S
N1813 C1814 1.376 . S
N1813 C1817 1.374 . S
C1814 N1813 1.376 . S
C1814 C1815 1.443 . S
C1814 C1841 1.389 . S
C1815 C1814 1.443 . S
C1815 C1816 1.340 . S
C1815 H1847 0.951 . S
C1816 C1815 1.340 . S
C1816 C1817 1.439 . S
C1816 H1848 0.950 . S
C1817 N1813 1.374 . S
C1817 C1816 1.439 . S
C1817 C1842 1.395 . S
N1818 Co1807 1.995 . S
N1818 C1819 1.376 . S
N1818 C1822 1.383 . S
C1819 N1818 1.376 . S
C1819 C1820 1.446 . S
C1819 C1842 1.391 . S
C1820 C1819 1.446 . S
C1820 C1821 1.339 . S
C1820 H1849 0.949 . S
C1821 C1820 1.339 . S
C1821 C1822 1.439 . S
C1821 H1850 0.950 . S
C1822 N1818 1.383 . S
C1822 C1821 1.439 . S
C1822 C1840 1.392 . S
N1823 Co1807 2.282 . S
N1823 C1826 1.332 . S
N1823 C1828 1.332 . S
C1824 C1825 1.386 . S
C1824 C1827 1.388 . S
C1825 C1824 1.386 . S
C1825 C1826 1.382 . S
C1825 H1851 0.950 . S
C1826 N1823 1.332 . S
C1826 C1825 1.382 . S
C1826 H1837 0.952 . S
C1827 C1824 1.388 . S
C1827 C1828 1.382 . S
C1827 H1852 0.950 . S
C1828 N1823 1.332 . S
C1828 C1827 1.382 . S
C1828 H1838 0.948 . S
N1829 Co1807 2.282 . S
N1829 C1833 1.332 . S
N1829 C1834 1.332 . S
C1830 C1831 1.388 . S
C1830 C1834 1.382 . S
C1830 H1853 0.950 . S
C1831 C1830 1.388 . S
C1831 C1832 1.386 . S
C1832 C1831 1.386 . S
C1832 C1833 1.382 . S
C1832 H1854 0.950 . S
C1833 N1829 1.332 . S
C1833 C1832 1.382 . S
C1833 H1835 0.952 . S
C1834 N1829 1.332 . S
C1834 C1830 1.382 . S
C1834 H1836 0.948 . S
H1835 C1833 0.952 . S
H1836 C1834 0.948 . S
H1837 C1826 0.952 . S
H1838 C1828 0.948 . S
C1839 C1805 1.395 . S
C1839 C1809 1.391 . S
C1840 C1802 1.389 . S
C1840 C1822 1.392 . S
C1841 C1812 1.392 . S
C1841 C1814 1.389 . S
C1842 C1817 1.395 . S
C1842 C1819 1.391 . S
H1843 C1803 0.951 . S
H1844 C1804 0.950 . S
H1845 C1810 0.949 . S
H1846 C1811 0.950 . S
H1847 C1815 0.951 . S
H1848 C1816 0.950 . S
H1849 C1820 0.949 . S
H1850 C1821 0.950 . S
H1851 C1825 0.950 . S
H1852 C1827 0.950 . S
H1853 C1830 0.950 . S
H1854 C1832 0.950 . S
C1855 C1856 1.443 . S
C1855 N1859 1.376 . S
C1855 C1893 1.389 . S
C1856 C1855 1.443 . S
C1856 C1857 1.340 . S
C1856 H1896 0.951 . S
C1857 C1856 1.340 . S
C1857 C1858 1.439 . S
C1857 H1897 0.950 . S
C1858 C1857 1.439 . S
C1858 N1859 1.374 . S
C1858 C1892 1.395 . S
N1859 C1855 1.376 . S
N1859 C1858 1.374 . S
N1859 Co1860 2.008 . S
Co1860 N1859 2.008 . S
Co1860 N1861 1.995 . S
Co1860 N1866 2.008 . S
Co1860 N1871 1.995 . S
Co1860 N1876 2.282 . S
Co1860 N1882 2.282 . S
N1861 Co1860 1.995 . S
N1861 C1862 1.376 . S
N1861 C1865 1.383 . S
C1862 N1861 1.376 . S
C1862 C1863 1.446 . S
C1862 C1892 1.391 . S
C1863 C1862 1.446 . S
C1863 C1864 1.339 . S
C1863 H1898 0.949 . S
C1864 C1863 1.339 . S
C1864 C1865 1.439 . S
C1864 H1899 0.950 . S
C1865 N1861 1.383 . S
C1865 C1864 1.439 . S
C1865 C1894 1.392 . S
N1866 Co1860 2.008 . S
N1866 C1867 1.376 . S
N1866 C1870 1.374 . S
C1867 N1866 1.376 . S
C1867 C1868 1.443 . S
C1867 C1894 1.389 . S
C1868 C1867 1.443 . S
C1868 C1869 1.340 . S
C1868 H1900 0.951 . S
C1869 C1868 1.340 . S
C1869 C1870 1.439 . S
C1869 H1901 0.950 . S
C1870 N1866 1.374 . S
C1870 C1869 1.439 . S
C1870 C1895 1.395 . S
N1871 Co1860 1.995 . S
N1871 C1872 1.376 . S
N1871 C1875 1.383 . S
C1872 N1871 1.376 . S
C1872 C1873 1.446 . S
C1872 C1895 1.391 . S
C1873 C1872 1.446 . S
C1873 C1874 1.339 . S
C1873 H1902 0.949 . S
C1874 C1873 1.339 . S
C1874 C1875 1.439 . S
C1874 H1903 0.950 . S
C1875 N1871 1.383 . S
C1875 C1874 1.439 . S
C1875 C1893 1.392 . S
N1876 Co1860 2.282 . S
N1876 C1879 1.332 . S
N1876 C1881 1.332 . S
C1877 C1878 1.386 . S
C1877 C1880 1.388 . S
C1878 C1877 1.386 . S
C1878 C1879 1.382 . S
C1878 H1904 0.950 . S
C1879 N1876 1.332 . S
C1879 C1878 1.382 . S
C1879 H1890 0.952 . S
C1880 C1877 1.388 . S
C1880 C1881 1.382 . S
C1880 H1905 0.950 . S
C1881 N1876 1.332 . S
C1881 C1880 1.382 . S
C1881 H1891 0.948 . S
N1882 Co1860 2.282 . S
N1882 C1886 1.332 . S
N1882 C1887 1.332 . S
C1883 C1884 1.388 . S
C1883 C1887 1.382 . S
C1883 H1906 0.950 . S
C1884 C1883 1.388 . S
C1884 C1885 1.386 . S
C1885 C1884 1.386 . S
C1885 C1886 1.382 . S
C1885 H1907 0.950 . S
C1886 N1882 1.332 . S
C1886 C1885 1.382 . S
C1886 H1888 0.952 . S
C1887 N1882 1.332 . S
C1887 C1883 1.382 . S
C1887 H1889 0.948 . S
H1888 C1886 0.952 . S
H1889 C1887 0.948 . S
H1890 C1879 0.952 . S
H1891 C1881 0.948 . S
C1892 C1858 1.395 . S
C1892 C1862 1.391 . S
C1893 C1855 1.389 . S
C1893 C1875 1.392 . S
C1894 C1865 1.392 . S
C1894 C1867 1.389 . S
C1895 C1870 1.395 . S
C1895 C1872 1.391 . S
H1896 C1856 0.951 . S
H1897 C1857 0.950 . S
H1898 C1863 0.949 . S
H1899 C1864 0.950 . S
H1900 C1868 0.951 . S
H1901 C1869 0.950 . S
H1902 C1873 0.949 . S
H1903 C1874 0.950 . S
H1904 C1878 0.950 . S
H1905 C1880 0.950 . S
H1906 C1883 0.950 . S
H1907 C1885 0.950 . S
C1908 C1909 1.369 . S
C1908 C1910 1.419 . S
C1908 H1912 0.930 . S
C1909 C1908 1.369 . S
C1909 C1918 1.429 . S
C1910 C1908 1.419 . S
C1910 C1911 1.363 . S
C1910 H1913 0.929 . S
C1911 C1910 1.363 . S
C1911 C1917 1.428 . S
H1912 C1908 0.930 . S
H1913 C1910 0.929 . S
S1914 N1915 1.613 . S
S1914 N1916 1.610 . S
N1915 S1914 1.613 . S
N1915 C1918 1.350 . S
N1916 S1914 1.610 . S
N1916 C1917 1.351 . S
C1917 C1911 1.428 . S
C1917 N1916 1.351 . S
C1917 C1918 1.434 . S
C1918 C1909 1.429 . S
C1918 N1915 1.350 . S
C1918 C1917 1.434 . S
C1919 C1920 1.369 . S
C1919 C1921 1.419 . S
C1919 H1923 0.930 . S
C1920 C1919 1.369 . S
C1920 C1929 1.429 . S
C1921 C1919 1.419 . S
C1921 C1922 1.363 . S
C1921 H1924 0.929 . S
C1922 C1921 1.363 . S
C1922 C1928 1.428 . S
H1923 C1919 0.930 . S
H1924 C1921 0.929 . S
S1925 N1926 1.613 . S
S1925 N1927 1.610 . S
N1926 S1925 1.613 . S
N1926 C1929 1.350 . S
N1927 S1925 1.610 . S
N1927 C1928 1.351 . S
C1928 C1922 1.428 . S
C1928 N1927 1.351 . S
C1928 C1929 1.434 . S
C1929 C1920 1.429 . S
C1929 N1926 1.350 . S
C1929 C1928 1.434 . S
C1930 C1931 1.369 . S
C1930 C1932 1.419 . S
C1930 H1934 0.930 . S
C1931 C1930 1.369 . S
C1931 C1940 1.429 . S
C1932 C1930 1.419 . S
C1932 C1933 1.363 . S
C1932 H1935 0.929 . S
C1933 C1932 1.363 . S
C1933 C1939 1.428 . S
H1934 C1930 0.930 . S
H1935 C1932 0.929 . S
S1936 N1937 1.613 . S
S1936 N1938 1.610 . S
N1937 S1936 1.613 . S
N1937 C1940 1.350 . S
N1938 S1936 1.610 . S
N1938 C1939 1.351 . S
C1939 C1933 1.428 . S
C1939 N1938 1.351 . S
C1939 C1940 1.434 . S
C1940 C1931 1.429 . S
C1940 N1937 1.350 . S
C1940 C1939 1.434 . S
C1941 C1942 1.369 . S
C1941 C1943 1.419 . S
C1941 H1945 0.930 . S
C1942 C1941 1.369 . S
C1942 C1951 1.429 . S
C1943 C1941 1.419 . S
C1943 C1944 1.363 . S
C1943 H1946 0.929 . S
C1944 C1943 1.363 . S
C1944 C1950 1.428 . S
H1945 C1941 0.930 . S
H1946 C1943 0.929 . S
S1947 N1948 1.613 . S
S1947 N1949 1.610 . S
N1948 S1947 1.613 . S
N1948 C1951 1.350 . S
N1949 S1947 1.610 . S
N1949 C1950 1.351 . S
C1950 C1944 1.428 . S
C1950 N1949 1.351 . S
C1950 C1951 1.434 . S
C1951 C1942 1.429 . S
C1951 N1948 1.350 . S
C1951 C1950 1.434 . S
C1952 C1953 1.369 . S
C1952 C1954 1.419 . S
C1952 H1956 0.930 . S
C1953 C1952 1.369 . S
C1953 C1962 1.429 . S
C1954 C1952 1.419 . S
C1954 C1955 1.363 . S
C1954 H1957 0.929 . S
C1955 C1954 1.363 . S
C1955 C1961 1.428 . S
H1956 C1952 0.930 . S
H1957 C1954 0.929 . S
S1958 N1959 1.613 . S
S1958 N1960 1.610 . S
N1959 S1958 1.613 . S
N1959 C1962 1.350 . S
N1960 S1958 1.610 . S
N1960 C1961 1.351 . S
C1961 C1955 1.428 . S
C1961 N1960 1.351 . S
C1961 C1962 1.434 . S
C1962 C1953 1.429 . S
C1962 N1959 1.350 . S
C1962 C1961 1.434 . S
C1963 C1964 1.369 . S
C1963 C1965 1.419 . S
C1963 H1967 0.930 . S
C1964 C1963 1.369 . S
C1964 C1973 1.429 . S
C1965 C1963 1.419 . S
C1965 C1966 1.363 . S
C1965 H1968 0.929 . S
C1966 C1965 1.363 . S
C1966 C1972 1.428 . S
H1967 C1963 0.930 . S
H1968 C1965 0.929 . S
S1969 N1970 1.613 . S
S1969 N1971 1.610 . S
N1970 S1969 1.613 . S
N1970 C1973 1.350 . S
N1971 S1969 1.610 . S
N1971 C1972 1.351 . S
C1972 C1966 1.428 . S
C1972 N1971 1.351 . S
C1972 C1973 1.434 . S
C1973 C1964 1.429 . S
C1973 N1970 1.350 . S
C1973 C1972 1.434 . S
C1974 C1975 1.369 . S
C1974 C1976 1.419 . S
C1974 H1978 0.930 . S
C1975 C1974 1.369 . S
C1975 C1984 1.429 . S
C1976 C1974 1.419 . S
C1976 C1977 1.363 . S
C1976 H1979 0.929 . S
C1977 C1976 1.363 . S
C1977 C1983 1.428 . S
H1978 C1974 0.930 . S
H1979 C1976 0.929 . S
S1980 N1981 1.613 . S
S1980 N1982 1.610 . S
N1981 S1980 1.613 . S
N1981 C1984 1.350 . S
N1982 S1980 1.610 . S
N1982 C1983 1.351 . S
C1983 C1977 1.428 . S
C1983 N1982 1.351 . S
C1983 C1984 1.434 . S
C1984 C1975 1.429 . S
C1984 N1981 1.350 . S
C1984 C1983 1.434 . S
C1985 C1986 1.369 . S
C1985 C1987 1.419 . S
C1985 H1989 0.930 . S
C1986 C1985 1.369 . S
C1986 C1995 1.429 . S
C1987 C1985 1.419 . S
C1987 C1988 1.363 . S
C1987 H1990 0.929 . S
C1988 C1987 1.363 . S
C1988 C1994 1.428 . S
H1989 C1985 0.930 . S
H1990 C1987 0.929 . S
S1991 N1992 1.613 . S
S1991 N1993 1.610 . S
N1992 S1991 1.613 . S
N1992 C1995 1.350 . S
N1993 S1991 1.610 . S
N1993 C1994 1.351 . S
C1994 C1988 1.428 . S
C1994 N1993 1.351 . S
C1994 C1995 1.434 . S
C1995 C1986 1.429 . S
C1995 N1992 1.350 . S
C1995 C1994 1.434 . S
C1996 C1997 1.369 . S
C1996 C1998 1.419 . S
C1996 H2000 0.930 . S
C1997 C1996 1.369 . S
C1997 C2006 1.429 . S
C1998 C1996 1.419 . S
C1998 C1999 1.363 . S
C1998 H2001 0.929 . S
C1999 C1998 1.363 . S
C1999 C2005 1.428 . S
H2000 C1996 0.930 . S
H2001 C1998 0.929 . S
S2002 N2003 1.613 . S
S2002 N2004 1.610 . S
N2003 S2002 1.613 . S
N2003 C2006 1.350 . S
N2004 S2002 1.610 . S
N2004 C2005 1.351 . S
C2005 C1999 1.428 . S
C2005 N2004 1.351 . S
C2005 C2006 1.434 . S
C2006 C1997 1.429 . S
C2006 N2003 1.350 . S
C2006 C2005 1.434 . S
C2007 C2008 1.369 . S
C2007 C2009 1.419 . S
C2007 H2011 0.930 . S
C2008 C2007 1.369 . S
C2008 C2017 1.429 . S
C2009 C2007 1.419 . S
C2009 C2010 1.363 . S
C2009 H2012 0.929 . S
C2010 C2009 1.363 . S
C2010 C2016 1.428 . S
H2011 C2007 0.930 . S
H2012 C2009 0.929 . S
S2013 N2014 1.613 . S
S2013 N2015 1.610 . S
N2014 S2013 1.613 . S
N2014 C2017 1.350 . S
N2015 S2013 1.610 . S
N2015 C2016 1.351 . S
C2016 C2010 1.428 . S
C2016 N2015 1.351 . S
C2016 C2017 1.434 . S
C2017 C2008 1.429 . S
C2017 N2014 1.350 . S
C2017 C2016 1.434 . S
C2018 C2019 1.369 . S
C2018 C2020 1.419 . S
C2018 H2022 0.930 . S
C2019 C2018 1.369 . S
C2019 C2028 1.429 . S
C2020 C2018 1.419 . S
C2020 C2021 1.363 . S
C2020 H2023 0.929 . S
C2021 C2020 1.363 . S
C2021 C2027 1.428 . S
H2022 C2018 0.930 . S
H2023 C2020 0.929 . S
S2024 N2025 1.613 . S
S2024 N2026 1.610 . S
N2025 S2024 1.613 . S
N2025 C2028 1.350 . S
N2026 S2024 1.610 . S
N2026 C2027 1.351 . S
C2027 C2021 1.428 . S
C2027 N2026 1.351 . S
C2027 C2028 1.434 . S
C2028 C2019 1.429 . S
C2028 N2025 1.350 . S
C2028 C2027 1.434 . S
C2029 C2030 1.369 . S
C2029 C2031 1.419 . S
C2029 H2033 0.930 . S
C2030 C2029 1.369 . S
C2030 C2039 1.429 . S
C2031 C2029 1.419 . S
C2031 C2032 1.363 . S
C2031 H2034 0.929 . S
C2032 C2031 1.363 . S
C2032 C2038 1.428 . S
H2033 C2029 0.930 . S
H2034 C2031 0.929 . S
S2035 N2036 1.613 . S
S2035 N2037 1.610 . S
N2036 S2035 1.613 . S
N2036 C2039 1.350 . S
N2037 S2035 1.610 . S
N2037 C2038 1.351 . S
C2038 C2032 1.428 . S
C2038 N2037 1.351 . S
C2038 C2039 1.434 . S
C2039 C2030 1.429 . S
C2039 N2036 1.350 . S
C2039 C2038 1.434 . S
C2040 C2041 1.354 . S
C2040 C2042 1.412 1_655 S
C2040 H2044 0.953 . S
C2041 C2040 1.354 . S
C2041 C2050 1.429 . S
C2042 C2040 1.412 1_455 S
C2042 C2043 1.343 . S
C2042 H2045 0.929 . S
C2043 C2042 1.343 . S
C2043 C2049 1.444 1_455 S
H2044 C2040 0.953 . S
H2045 C2042 0.929 . S
S2046 N2047 1.613 . S
S2046 N2048 1.610 . S
N2047 S2046 1.613 . S
N2047 C2050 1.350 . S
N2048 S2046 1.610 . S
N2048 C2049 1.351 . S
C2049 C2043 1.444 1_655 S
C2049 N2048 1.351 . S
C2049 C2050 1.434 . S
C2050 C2041 1.429 . S
C2050 N2047 1.350 . S
C2050 C2049 1.434 . S
C2051 C2052 1.369 . S
C2051 C2053 1.419 . S
C2051 H2055 0.930 . S
C2052 C2051 1.369 . S
C2052 C2061 1.429 . S
C2053 C2051 1.419 . S
C2053 C2054 1.363 . S
C2053 H2056 0.929 . S
C2054 C2053 1.363 . S
C2054 C2060 1.428 . S
H2055 C2051 0.930 . S
H2056 C2053 0.929 . S
S2057 N2058 1.613 . S
S2057 N2059 1.610 . S
N2058 S2057 1.613 . S
N2058 C2061 1.350 . S
N2059 S2057 1.610 . S
N2059 C2060 1.351 . S
C2060 C2054 1.428 . S
C2060 N2059 1.351 . S
C2060 C2061 1.434 . S
C2061 C2052 1.429 . S
C2061 N2058 1.350 . S
C2061 C2060 1.434 . S
C2062 C2063 1.369 1_565 S
C2062 C2064 1.419 . S
C2062 H2066 0.930 . S
C2063 C2062 1.369 1_545 S
C2063 C2072 1.429 . S
C2064 C2062 1.419 . S
C2064 C2065 1.395 . S
C2064 H2067 0.929 . S
C2065 C2064 1.395 . S
C2065 C2071 1.392 1_565 S
H2066 C2062 0.930 . S
H2067 C2064 0.929 . S
S2068 N2069 1.613 . S
S2068 N2070 1.610 . S
N2069 S2068 1.613 . S
N2069 C2072 1.350 . S
N2070 S2068 1.610 . S
N2070 C2071 1.351 . S
C2071 C2065 1.392 1_545 S
C2071 N2070 1.351 . S
C2071 C2072 1.434 . S
C2072 C2063 1.429 . S
C2072 N2069 1.350 . S
C2072 C2071 1.434 . S
C2073 C2074 1.358 1_565 S
C2073 C2075 1.419 . S
C2073 H2077 0.930 . S
C2074 C2073 1.358 1_545 S
C2074 C2083 1.436 . S
C2075 C2073 1.419 . S
C2075 C2076 1.363 . S
C2075 H2078 0.929 . S
C2076 C2075 1.363 . S
C2076 C2082 1.428 1_565 S
H2077 C2073 0.930 . S
H2078 C2075 0.929 . S
S2079 N2080 1.613 . S
S2079 N2081 1.610 . S
N2080 S2079 1.613 . S
N2080 C2083 1.350 . S
N2081 S2079 1.610 . S
N2081 C2082 1.351 . S
C2082 C2076 1.428 1_545 S
C2082 N2081 1.351 . S
C2082 C2083 1.434 . S
C2083 C2074 1.436 . S
C2083 N2080 1.350 . S
C2083 C2082 1.434 . S
C2084 C2085 1.390 . S
C2084 C2086 1.419 . S
C2084 H2088 0.930 . S
C2085 C2084 1.390 . S
C2085 C2094 1.404 1_655 S
C2086 C2084 1.419 . S
C2086 C2087 1.363 1_655 S
C2086 H2089 0.929 . S
C2087 C2086 1.363 1_455 S
C2087 C2093 1.428 . S
H2088 C2084 0.930 . S
H2089 C2086 0.929 . S
S2090 N2091 1.613 . S
S2090 N2092 1.610 . S
N2091 S2090 1.613 . S
N2091 C2094 1.350 . S
N2092 S2090 1.610 . S
N2092 C2093 1.351 . S
C2093 C2087 1.428 . S
C2093 N2092 1.351 . S
C2093 C2094 1.434 . S
C2094 C2085 1.404 1_455 S
C2094 N2091 1.350 . S
C2094 C2093 1.434 . S
C2095 C2096 1.369 . S
C2095 C2097 1.419 . S
C2095 H2099 0.930 . S
C2096 C2095 1.369 . S
C2096 C2105 1.429 . S
C2097 C2095 1.419 . S
C2097 C2098 1.363 . S
C2097 H2100 0.929 . S
C2098 C2097 1.363 . S
C2098 C2104 1.428 . S
H2099 C2095 0.930 . S
H2100 C2097 0.929 . S
S2101 N2102 1.613 . S
S2101 N2103 1.610 . S
N2102 S2101 1.613 . S
N2102 C2105 1.350 . S
N2103 S2101 1.610 . S
N2103 C2104 1.351 . S
C2104 C2098 1.428 . S
C2104 N2103 1.351 . S
C2104 C2105 1.434 . S
C2105 C2096 1.429 . S
C2105 N2102 1.350 . S
C2105 C2104 1.434 . S
C2106 C2107 1.369 . S
C2106 C2108 1.419 . S
C2106 H2110 0.930 . S
C2107 C2106 1.369 . S
C2107 C2116 1.429 . S
C2108 C2106 1.419 . S
C2108 C2109 1.363 . S
C2108 H2111 0.929 . S
C2109 C2108 1.363 . S
C2109 C2115 1.428 . S
H2110 C2106 0.930 . S
H2111 C2108 0.929 . S
S2112 N2113 1.613 . S
S2112 N2114 1.610 . S
N2113 S2112 1.613 . S
N2113 C2116 1.350 . S
N2114 S2112 1.610 . S
N2114 C2115 1.351 . S
C2115 C2109 1.428 . S
C2115 N2114 1.351 . S
C2115 C2116 1.434 . S
C2116 C2107 1.429 . S
C2116 N2113 1.350 . S
C2116 C2115 1.434 . S
C2117 C2118 1.369 . S
C2117 C2119 1.419 . S
C2117 H2121 0.930 . S
C2118 C2117 1.369 . S
C2118 C2127 1.429 . S
C2119 C2117 1.419 . S
C2119 C2120 1.363 . S
C2119 H2122 0.929 . S
C2120 C2119 1.363 . S
C2120 C2126 1.428 . S
H2121 C2117 0.930 . S
H2122 C2119 0.929 . S
S2123 N2124 1.613 . S
S2123 N2125 1.610 . S
N2124 S2123 1.613 . S
N2124 C2127 1.350 . S
N2125 S2123 1.610 . S
N2125 C2126 1.351 . S
C2126 C2120 1.428 . S
C2126 N2125 1.351 . S
C2126 C2127 1.434 . S
C2127 C2118 1.429 . S
C2127 N2124 1.350 . S
C2127 C2126 1.434 . S
C2128 C2129 1.369 . S
C2128 C2130 1.419 . S
C2128 H2132 0.930 . S
C2129 C2128 1.369 . S
C2129 C2138 1.429 . S
C2130 C2128 1.419 . S
C2130 C2131 1.363 . S
C2130 H2133 0.929 . S
C2131 C2130 1.363 . S
C2131 C2137 1.428 . S
H2132 C2128 0.930 . S
H2133 C2130 0.929 . S
S2134 N2135 1.613 . S
S2134 N2136 1.610 . S
N2135 S2134 1.613 . S
N2135 C2138 1.350 . S
N2136 S2134 1.610 . S
N2136 C2137 1.351 . S
C2137 C2131 1.428 . S
C2137 N2136 1.351 . S
C2137 C2138 1.434 . S
C2138 C2129 1.429 . S
C2138 N2135 1.350 . S
C2138 C2137 1.434 . S
C2139 C2140 1.369 . S
C2139 C2141 1.419 . S
C2139 H2143 0.930 . S
C2140 C2139 1.369 . S
C2140 C2149 1.429 . S
C2141 C2139 1.419 . S
C2141 C2142 1.363 . S
C2141 H2144 0.929 . S
C2142 C2141 1.363 . S
C2142 C2148 1.428 . S
H2143 C2139 0.930 . S
H2144 C2141 0.929 . S
S2145 N2146 1.613 . S
S2145 N2147 1.610 . S
N2146 S2145 1.613 . S
N2146 C2149 1.350 . S
N2147 S2145 1.610 . S
N2147 C2148 1.351 . S
C2148 C2142 1.428 . S
C2148 N2147 1.351 . S
C2148 C2149 1.434 . S
C2149 C2140 1.429 . S
C2149 N2146 1.350 . S
C2149 C2148 1.434 . S
C2150 C2151 1.369 . S
C2150 C2152 1.419 . S
C2150 H2154 0.930 . S
C2151 C2150 1.369 . S
C2151 C2160 1.429 . S
C2152 C2150 1.419 . S
C2152 C2153 1.363 . S
C2152 H2155 0.929 . S
C2153 C2152 1.363 . S
C2153 C2159 1.428 . S
H2154 C2150 0.930 . S
H2155 C2152 0.929 . S
S2156 N2157 1.613 . S
S2156 N2158 1.610 . S
N2157 S2156 1.613 . S
N2157 C2160 1.350 . S
N2158 S2156 1.610 . S
N2158 C2159 1.351 . S
C2159 C2153 1.428 . S
C2159 N2158 1.351 . S
C2159 C2160 1.434 . S
C2160 C2151 1.429 . S
C2160 N2157 1.350 . S
C2160 C2159 1.434 . S
C2161 C2162 1.369 . S
C2161 C2163 1.419 . S
C2161 H2165 0.930 . S
C2162 C2161 1.369 . S
C2162 C2171 1.429 . S
C2163 C2161 1.419 . S
C2163 C2164 1.363 . S
C2163 H2166 0.929 . S
C2164 C2163 1.363 . S
C2164 C2170 1.428 . S
H2165 C2161 0.930 . S
H2166 C2163 0.929 . S
S2167 N2168 1.613 . S
S2167 N2169 1.610 . S
N2168 S2167 1.613 . S
N2168 C2171 1.350 . S
N2169 S2167 1.610 . S
N2169 C2170 1.351 . S
C2170 C2164 1.428 . S
C2170 N2169 1.351 . S
C2170 C2171 1.434 . S
C2171 C2162 1.429 . S
C2171 N2168 1.350 . S
C2171 C2170 1.434 . S
C2172 C2173 1.369 . S
C2172 C2174 1.419 . S
C2172 H2176 0.930 . S
C2173 C2172 1.369 . S
C2173 C2182 1.429 . S
C2174 C2172 1.419 . S
C2174 C2175 1.363 . S
C2174 H2177 0.929 . S
C2175 C2174 1.363 . S
C2175 C2181 1.428 . S
H2176 C2172 0.930 . S
H2177 C2174 0.929 . S
S2178 N2179 1.613 . S
S2178 N2180 1.610 . S
N2179 S2178 1.613 . S
N2179 C2182 1.350 . S
N2180 S2178 1.610 . S
N2180 C2181 1.351 . S
C2181 C2175 1.428 . S
C2181 N2180 1.351 . S
C2181 C2182 1.434 . S
C2182 C2173 1.429 . S
C2182 N2179 1.350 . S
C2182 C2181 1.434 . S
C2183 C2184 1.369 . S
C2183 C2185 1.419 . S
C2183 H2187 0.930 . S
C2184 C2183 1.369 . S
C2184 C2193 1.429 . S
C2185 C2183 1.419 . S
C2185 C2186 1.363 . S
C2185 H2188 0.929 . S
C2186 C2185 1.363 . S
C2186 C2192 1.428 . S
H2187 C2183 0.930 . S
H2188 C2185 0.929 . S
S2189 N2190 1.613 . S
S2189 N2191 1.610 . S
N2190 S2189 1.613 . S
N2190 C2193 1.350 . S
N2191 S2189 1.610 . S
N2191 C2192 1.351 . S
C2192 C2186 1.428 . S
C2192 N2191 1.351 . S
C2192 C2193 1.434 . S
C2193 C2184 1.429 . S
C2193 N2190 1.350 . S
C2193 C2192 1.434 . S
C2194 C2195 1.369 . S
C2194 C2196 1.419 . S
C2194 H2198 0.930 . S
C2195 C2194 1.369 . S
C2195 C2204 1.429 . S
C2196 C2194 1.419 . S
C2196 C2197 1.363 . S
C2196 H2199 0.929 . S
C2197 C2196 1.363 . S
C2197 C2203 1.428 . S
H2198 C2194 0.930 . S
H2199 C2196 0.929 . S
S2200 N2201 1.613 . S
S2200 N2202 1.610 . S
N2201 S2200 1.613 . S
N2201 C2204 1.350 . S
N2202 S2200 1.610 . S
N2202 C2203 1.351 . S
C2203 C2197 1.428 . S
C2203 N2202 1.351 . S
C2203 C2204 1.434 . S
C2204 C2195 1.429 . S
C2204 N2201 1.350 . S
C2204 C2203 1.434 . S
C2205 C2206 1.369 . S
C2205 C2207 1.419 . S
C2205 H2209 0.930 . S
C2206 C2205 1.369 . S
C2206 C2215 1.429 . S
C2207 C2205 1.419 . S
C2207 C2208 1.363 . S
C2207 H2210 0.929 . S
C2208 C2207 1.363 . S
C2208 C2214 1.428 . S
H2209 C2205 0.930 . S
H2210 C2207 0.929 . S
S2211 N2212 1.613 . S
S2211 N2213 1.610 . S
N2212 S2211 1.613 . S
N2212 C2215 1.350 . S
N2213 S2211 1.610 . S
N2213 C2214 1.351 . S
C2214 C2208 1.428 . S
C2214 N2213 1.351 . S
C2214 C2215 1.434 . S
C2215 C2206 1.429 . S
C2215 N2212 1.350 . S
C2215 C2214 1.434 . S
C2216 C2217 1.369 . S
C2216 C2218 1.419 . S
C2216 H2220 0.930 . S
C2217 C2216 1.369 . S
C2217 C2226 1.429 . S
C2218 C2216 1.419 . S
C2218 C2219 1.363 . S
C2218 H2221 0.929 . S
C2219 C2218 1.363 . S
C2219 C2225 1.428 . S
H2220 C2216 0.930 . S
H2221 C2218 0.929 . S
S2222 N2223 1.613 . S
S2222 N2224 1.610 . S
N2223 S2222 1.613 . S
N2223 C2226 1.350 . S
N2224 S2222 1.610 . S
N2224 C2225 1.351 . S
C2225 C2219 1.428 . S
C2225 N2224 1.351 . S
C2225 C2226 1.434 . S
C2226 C2217 1.429 . S
C2226 N2223 1.350 . S
C2226 C2225 1.434 . S
C2227 C2228 1.369 . S
C2227 C2229 1.419 . S
C2227 H2231 0.930 . S
C2228 C2227 1.369 . S
C2228 C2237 1.429 . S
C2229 C2227 1.419 . S
C2229 C2230 1.363 . S
C2229 H2232 0.929 . S
C2230 C2229 1.363 . S
C2230 C2236 1.428 . S
H2231 C2227 0.930 . S
H2232 C2229 0.929 . S
S2233 N2234 1.613 . S
S2233 N2235 1.610 . S
N2234 S2233 1.613 . S
N2234 C2237 1.350 . S
N2235 S2233 1.610 . S
N2235 C2236 1.351 . S
C2236 C2230 1.428 . S
C2236 N2235 1.351 . S
C2236 C2237 1.434 . S
C2237 C2228 1.429 . S
C2237 N2234 1.350 . S
C2237 C2236 1.434 . S
C2238 C2239 1.369 . S
C2238 C2240 1.413 . S
C2238 H2242 0.930 . S
C2239 C2238 1.369 . S
C2239 C2248 1.428 1_655 S
C2240 C2238 1.413 . S
C2240 C2241 1.363 1_655 S
C2240 H2243 0.937 . S
C2241 C2240 1.363 1_455 S
C2241 C2247 1.428 . S
H2242 C2238 0.930 . S
H2243 C2240 0.937 . S
S2244 N2245 1.610 . S
S2244 N2246 1.610 . S
N2245 S2244 1.610 . S
N2245 C2248 1.345 . S
N2246 S2244 1.610 . S
N2246 C2247 1.351 . S
C2247 C2241 1.428 . S
C2247 N2246 1.351 . S
C2247 C2248 1.432 . S
C2248 C2239 1.428 1_455 S
C2248 N2245 1.345 . S
C2248 C2247 1.432 . S
C2249 C2250 1.369 . S
C2249 C2251 1.419 . S
C2249 H2253 0.930 . S
C2250 C2249 1.369 . S
C2250 C2259 1.429 . S
C2251 C2249 1.419 . S
C2251 C2252 1.363 . S
C2251 H2254 0.929 . S
C2252 C2251 1.363 . S
C2252 C2258 1.428 . S
H2253 C2249 0.930 . S
H2254 C2251 0.929 . S
S2255 N2256 1.613 . S
S2255 N2257 1.610 . S
N2256 S2255 1.613 . S
N2256 C2259 1.350 . S
N2257 S2255 1.610 . S
N2257 C2258 1.351 . S
C2258 C2252 1.428 . S
C2258 N2257 1.351 . S
C2258 C2259 1.434 . S
C2259 C2250 1.429 . S
C2259 N2256 1.350 . S
C2259 C2258 1.434 . S
C2260 C2261 1.369 . S
C2260 C2262 1.419 . S
C2260 H2264 0.930 . S
C2261 C2260 1.369 . S
C2261 C2270 1.429 1_565 S
C2262 C2260 1.419 . S
C2262 C2263 1.363 1_565 S
C2262 H2265 0.929 . S
C2263 C2262 1.363 1_545 S
C2263 C2269 1.428 . S
H2264 C2260 0.930 . S
H2265 C2262 0.929 . S
S2266 N2267 1.613 . S
S2266 N2268 1.610 . S
N2267 S2266 1.613 . S
N2267 C2270 1.350 . S
N2268 S2266 1.610 . S
N2268 C2269 1.351 . S
C2269 C2263 1.428 . S
C2269 N2268 1.351 . S
C2269 C2270 1.434 . S
C2270 C2261 1.429 1_545 S
C2270 N2267 1.350 . S
C2270 C2269 1.434 . S
C2271 C2272 1.369 1_554 S
C2271 C2273 1.419 . S
C2271 H2275 0.930 . S
C2272 C2271 1.369 1_556 S
C2272 C2281 1.429 1_565 S
C2273 C2271 1.419 . S
C2273 C2274 1.363 1_565 S
C2273 H2276 0.929 . S
C2274 C2273 1.363 1_545 S
C2274 C2280 1.428 1_554 S
H2275 C2271 0.930 . S
H2276 C2273 0.929 . S
S2277 N2278 1.613 . S
S2277 N2279 1.610 . S
N2278 S2277 1.613 . S
N2278 C2281 1.350 . S
N2279 S2277 1.610 . S
N2279 C2280 1.351 . S
C2280 C2274 1.428 1_556 S
C2280 N2279 1.351 . S
C2280 C2281 1.434 . S
C2281 C2272 1.429 1_545 S
C2281 N2278 1.350 . S
C2281 C2280 1.434 . S
C2282 C2283 1.369 1_455 S
C2282 C2284 1.419 . S
C2282 H2286 0.930 . S
C2283 C2282 1.369 1_655 S
C2283 C2292 1.429 1_554 S
C2284 C2282 1.419 . S
C2284 C2285 1.363 1_554 S
C2284 H2287 0.929 . S
C2285 C2284 1.363 1_556 S
C2285 C2291 1.428 1_455 S
H2286 C2282 0.930 . S
H2287 C2284 0.929 . S
S2288 N2289 1.613 . S
S2288 N2290 1.610 . S
N2289 S2288 1.613 . S
N2289 C2292 1.350 . S
N2290 S2288 1.610 . S
N2290 C2291 1.351 . S
C2291 C2285 1.428 1_655 S
C2291 N2290 1.351 . S
C2291 C2292 1.434 . S
C2292 C2283 1.429 1_556 S
C2292 N2289 1.350 . S
C2292 C2291 1.434 . S
C2293 C2294 1.369 1_556 S
C2293 C2295 1.419 . S
C2293 H2297 0.930 . S
C2294 C2293 1.369 1_554 S
C2294 C2303 1.429 . S
C2295 C2293 1.419 . S
C2295 C2296 1.363 . S
C2295 H2298 0.929 . S
C2296 C2295 1.363 . S
C2296 C2302 1.428 1_556 S
H2297 C2293 0.930 . S
H2298 C2295 0.929 . S
S2299 N2300 1.613 . S
S2299 N2301 1.610 . S
N2300 S2299 1.613 . S
N2300 C2303 1.350 . S
N2301 S2299 1.610 . S
N2301 C2302 1.351 . S
C2302 C2296 1.428 1_554 S
C2302 N2301 1.351 . S
C2302 C2303 1.434 . S
C2303 C2294 1.429 . S
C2303 N2300 1.350 . S
C2303 C2302 1.434 . S
C2304 C2305 1.369 . S
C2304 C2306 1.419 . S
C2304 H2308 0.930 . S
C2305 C2304 1.369 . S
C2305 C2314 1.429 . S
C2306 C2304 1.419 . S
C2306 C2307 1.363 . S
C2306 H2309 0.929 . S
C2307 C2306 1.363 . S
C2307 C2313 1.428 . S
H2308 C2304 0.930 . S
H2309 C2306 0.929 . S
S2310 N2311 1.613 1_565 S
S2310 N2312 1.610 1_565 S
N2311 S2310 1.613 1_545 S
N2311 C2314 1.350 . S
N2312 S2310 1.610 1_545 S
N2312 C2313 1.351 . S
C2313 C2307 1.428 . S
C2313 N2312 1.351 . S
C2313 C2314 1.434 . S
C2314 C2305 1.429 . S
C2314 N2311 1.350 . S
C2314 C2313 1.434 . S
C2315 C2316 1.369 . S
C2315 C2317 1.419 . S
C2315 H2319 0.930 . S
C2316 C2315 1.369 . S
C2316 C2325 1.429 . S
C2317 C2315 1.419 . S
C2317 C2318 1.363 . S
C2317 H2320 0.929 . S
C2318 C2317 1.363 . S
C2318 C2324 1.428 . S
H2319 C2315 0.930 . S
H2320 C2317 0.929 . S
S2321 N2322 1.613 1_455 S
S2321 N2323 1.610 1_455 S
N2322 S2321 1.613 1_655 S
N2322 C2325 1.350 . S
N2323 S2321 1.610 1_655 S
N2323 C2324 1.351 . S
C2324 C2318 1.428 . S
C2324 N2323 1.351 . S
C2324 C2325 1.434 . S
C2325 C2316 1.429 . S
C2325 N2322 1.350 . S
C2325 C2324 1.434 . S
C2326 C2327 1.369 . S
C2326 C2328 1.419 . S
C2326 H2330 0.930 . S
C2327 C2326 1.369 . S
C2327 C2336 1.429 . S
C2328 C2326 1.419 . S
C2328 C2329 1.363 . S
C2328 H2331 0.929 . S
C2329 C2328 1.363 . S
C2329 C2335 1.428 . S
H2330 C2326 0.930 . S
H2331 C2328 0.929 . S
S2332 N2333 1.613 . S
S2332 N2334 1.610 . S
N2333 S2332 1.613 . S
N2333 C2336 1.350 . S
N2334 S2332 1.610 . S
N2334 C2335 1.351 . S
C2335 C2329 1.428 . S
C2335 N2334 1.351 . S
C2335 C2336 1.434 . S
C2336 C2327 1.429 . S
C2336 N2333 1.350 . S
C2336 C2335 1.434 . S
C2337 C2338 1.369 . S
C2337 C2339 1.419 . S
C2337 H2341 0.930 . S
C2338 C2337 1.369 . S
C2338 C2347 1.429 . S
C2339 C2337 1.419 . S
C2339 C2340 1.363 . S
C2339 H2342 0.929 . S
C2340 C2339 1.363 . S
C2340 C2346 1.428 . S
H2341 C2337 0.930 . S
H2342 C2339 0.929 . S
S2343 N2344 1.613 . S
S2343 N2345 1.610 . S
N2344 S2343 1.613 . S
N2344 C2347 1.350 . S
N2345 S2343 1.610 . S
N2345 C2346 1.351 . S
C2346 C2340 1.428 . S
C2346 N2345 1.351 . S
C2346 C2347 1.434 . S
C2347 C2338 1.429 . S
C2347 N2344 1.350 . S
C2347 C2346 1.434 . S
C2348 C2349 1.369 . S
C2348 C2350 1.419 . S
C2348 H2352 0.930 . S
C2349 C2348 1.369 . S
C2349 C2358 1.429 . S
C2350 C2348 1.419 . S
C2350 C2351 1.363 . S
C2350 H2353 0.929 . S
C2351 C2350 1.363 . S
C2351 C2357 1.428 . S
H2352 C2348 0.930 . S
H2353 C2350 0.929 . S
S2354 N2355 1.613 . S
S2354 N2356 1.610 . S
N2355 S2354 1.613 . S
N2355 C2358 1.350 . S
N2356 S2354 1.610 . S
N2356 C2357 1.351 . S
C2357 C2351 1.428 . S
C2357 N2356 1.351 . S
C2357 C2358 1.434 . S
C2358 C2349 1.429 . S
C2358 N2355 1.350 . S
C2358 C2357 1.434 . S
C2359 C2360 1.369 . S
C2359 C2361 1.419 . S
C2359 H2363 0.930 . S
C2360 C2359 1.369 . S
C2360 C2369 1.429 . S
C2361 C2359 1.419 . S
C2361 C2362 1.363 . S
C2361 H2364 0.929 . S
C2362 C2361 1.363 . S
C2362 C2368 1.428 . S
H2363 C2359 0.930 . S
H2364 C2361 0.929 . S
S2365 N2366 1.613 . S
S2365 N2367 1.610 . S
N2366 S2365 1.613 . S
N2366 C2369 1.350 . S
N2367 S2365 1.610 . S
N2367 C2368 1.351 . S
C2368 C2362 1.428 . S
C2368 N2367 1.351 . S
C2368 C2369 1.434 . S
C2369 C2360 1.429 . S
C2369 N2366 1.350 . S
C2369 C2368 1.434 . S
C2370 C2371 1.369 . S
C2370 C2372 1.419 . S
C2370 H2374 0.930 . S
C2371 C2370 1.369 . S
C2371 C2380 1.429 . S
C2372 C2370 1.419 . S
C2372 C2373 1.363 . S
C2372 H2375 0.929 . S
C2373 C2372 1.363 . S
C2373 C2379 1.428 . S
H2374 C2370 0.930 . S
H2375 C2372 0.929 . S
S2376 N2377 1.613 . S
S2376 N2378 1.610 . S
N2377 S2376 1.613 . S
N2377 C2380 1.350 . S
N2378 S2376 1.610 . S
N2378 C2379 1.351 . S
C2379 C2373 1.428 . S
C2379 N2378 1.351 . S
C2379 C2380 1.434 . S
C2380 C2371 1.429 . S
C2380 N2377 1.350 . S
C2380 C2379 1.434 . S
C2381 C2382 1.369 . S
C2381 C2383 1.419 . S
C2381 H2385 0.930 . S
C2382 C2381 1.369 . S
C2382 C2391 1.429 . S
C2383 C2381 1.419 . S
C2383 C2384 1.363 . S
C2383 H2386 0.929 . S
C2384 C2383 1.363 . S
C2384 C2390 1.428 . S
H2385 C2381 0.930 . S
H2386 C2383 0.929 . S
S2387 N2388 1.613 1_554 S
S2387 N2389 1.610 . S
N2388 S2387 1.613 1_556 S
N2388 C2391 1.350 . S
N2389 S2387 1.610 . S
N2389 C2390 1.351 1_554 S
C2390 C2384 1.428 . S
C2390 N2389 1.351 1_556 S
C2390 C2391 1.434 . S
C2391 C2382 1.429 . S
C2391 N2388 1.350 . S
C2391 C2390 1.434 . S
C2392 C2393 1.369 . S
C2392 C2394 1.419 . S
C2392 H2396 0.930 . S
C2393 C2392 1.369 . S
C2393 C2402 1.429 . S
C2394 C2392 1.419 . S
C2394 C2395 1.363 . S
C2394 H2397 0.929 . S
C2395 C2394 1.363 . S
C2395 C2401 1.428 . S
H2396 C2392 0.930 . S
H2397 C2394 0.929 . S
S2398 N2399 1.613 . S
S2398 N2400 1.610 1_554 S
N2399 S2398 1.613 . S
N2399 C2402 1.350 1_554 S
N2400 S2398 1.610 1_556 S
N2400 C2401 1.351 . S
C2401 C2395 1.428 . S
C2401 N2400 1.351 . S
C2401 C2402 1.434 . S
C2402 C2393 1.429 . S
C2402 N2399 1.350 1_556 S
C2402 C2401 1.434 . S
C2403 C2404 1.369 . S
C2403 C2405 1.419 . S
C2403 H2407 0.930 . S
C2404 C2403 1.369 . S
C2404 C2413 1.429 . S
C2405 C2403 1.419 . S
C2405 C2406 1.363 . S
C2405 H2408 0.929 . S
C2406 C2405 1.363 . S
C2406 C2412 1.428 . S
H2407 C2403 0.930 . S
H2408 C2405 0.929 . S
S2409 N2410 1.613 . S
S2409 N2411 1.610 . S
N2410 S2409 1.613 . S
N2410 C2413 1.350 . S
N2411 S2409 1.610 . S
N2411 C2412 1.351 . S
C2412 C2406 1.428 . S
C2412 N2411 1.351 . S
C2412 C2413 1.434 . S
C2413 C2404 1.429 . S
C2413 N2410 1.350 . S
C2413 C2412 1.434 . S
C2414 C2415 1.369 . S
C2414 C2416 1.419 . S
C2414 H2418 0.930 . S
C2415 C2414 1.369 . S
C2415 C2424 1.429 . S
C2416 C2414 1.419 . S
C2416 C2417 1.363 . S
C2416 H2419 0.929 . S
C2417 C2416 1.363 . S
C2417 C2423 1.428 . S
H2418 C2414 0.930 . S
H2419 C2416 0.929 . S
S2420 N2421 1.613 . S
S2420 N2422 1.610 . S
N2421 S2420 1.613 . S
N2421 C2424 1.350 . S
N2422 S2420 1.610 . S
N2422 C2423 1.351 . S
C2423 C2417 1.428 . S
C2423 N2422 1.351 . S
C2423 C2424 1.434 . S
C2424 C2415 1.429 . S
C2424 N2421 1.350 . S
C2424 C2423 1.434 . S
C2425 C2426 1.369 . S
C2425 C2427 1.419 . S
C2425 H2429 0.930 . S
C2426 C2425 1.369 . S
C2426 C2435 1.429 . S
C2427 C2425 1.419 . S
C2427 C2428 1.363 . S
C2427 H2430 0.929 . S
C2428 C2427 1.363 . S
C2428 C2434 1.428 . S
H2429 C2425 0.930 . S
H2430 C2427 0.929 . S
S2431 N2432 1.613 . S
S2431 N2433 1.610 1_565 S
N2432 S2431 1.613 . S
N2432 C2435 1.350 1_565 S
N2433 S2431 1.610 1_545 S
N2433 C2434 1.351 . S
C2434 C2428 1.428 . S
C2434 N2433 1.351 . S
C2434 C2435 1.434 . S
C2435 C2426 1.429 . S
C2435 N2432 1.350 1_545 S
C2435 C2434 1.434 . S
C2436 C2437 1.369 . S
C2436 C2438 1.419 . S
C2436 H2440 0.930 . S
C2437 C2436 1.369 . S
C2437 C2446 1.429 . S
C2438 C2436 1.419 . S
C2438 C2439 1.363 . S
C2438 H2441 0.929 . S
C2439 C2438 1.363 . S
C2439 C2445 1.428 . S
H2440 C2436 0.930 . S
H2441 C2438 0.929 . S
S2442 N2443 1.613 . S
S2442 N2444 1.610 . S
N2443 S2442 1.613 . S
N2443 C2446 1.350 . S
N2444 S2442 1.610 . S
N2444 C2445 1.351 . S
C2445 C2439 1.428 . S
C2445 N2444 1.351 . S
C2445 C2446 1.434 . S
C2446 C2437 1.429 . S
C2446 N2443 1.350 . S
C2446 C2445 1.434 . S
C2447 C2448 1.369 . S
C2447 C2449 1.419 1_565 S
C2447 H2451 0.930 . S
C2448 C2447 1.369 . S
C2448 C2457 1.429 . S
C2449 C2447 1.419 1_545 S
C2449 C2450 1.363 . S
C2449 H2452 0.929 . S
C2450 C2449 1.363 . S
C2450 C2456 1.428 . S
H2451 C2447 0.930 . S
H2452 C2449 0.929 . S
S2453 N2454 1.613 1_545 S
S2453 N2455 1.610 . S
N2454 S2453 1.613 1_565 S
N2454 C2457 1.350 . S
N2455 S2453 1.610 . S
N2455 C2456 1.351 . S
C2456 C2450 1.428 . S
C2456 N2455 1.351 . S
C2456 C2457 1.434 1_545 S
C2457 C2448 1.429 . S
C2457 N2454 1.350 . S
C2457 C2456 1.434 1_565 S
C2458 C2459 1.369 . S
C2458 C2460 1.419 1_455 S
C2458 H2462 0.930 . S
C2459 C2458 1.369 . S
C2459 C2468 1.429 . S
C2460 C2458 1.419 1_655 S
C2460 C2461 1.363 . S
C2460 H2463 0.929 . S
C2461 C2460 1.363 . S
C2461 C2467 1.482 . S
H2462 C2458 0.930 . S
H2463 C2460 0.929 . S
S2464 N2465 1.613 . S
S2464 N2466 1.652 . S
N2465 S2464 1.613 . S
N2465 C2468 1.350 . S
N2466 S2464 1.652 . S
N2466 C2467 1.345 1_455 S
C2467 C2461 1.482 . S
C2467 N2466 1.345 1_655 S
C2467 C2468 1.383 1_655 S
C2468 C2459 1.429 . S
C2468 N2465 1.350 . S
C2468 C2467 1.383 1_455 S
C2469 C2470 1.369 . S
C2469 C2471 1.419 . S
C2469 H2473 0.930 . S
C2470 C2469 1.369 . S
C2470 C2479 1.429 . S
C2471 C2469 1.419 . S
C2471 C2472 1.363 . S
C2471 H2474 0.929 . S
C2472 C2471 1.363 . S
C2472 C2478 1.428 . S
H2473 C2469 0.930 . S
H2474 C2471 0.929 . S
S2475 N2476 1.613 . S
S2475 N2477 1.610 . S
N2476 S2475 1.613 . S
N2476 C2479 1.350 . S
N2477 S2475 1.610 . S
N2477 C2478 1.351 . S
C2478 C2472 1.428 . S
C2478 N2477 1.351 . S
C2478 C2479 1.434 . S
C2479 C2470 1.429 . S
C2479 N2476 1.350 . S
C2479 C2478 1.434 . S
C2480 C2481 1.369 . S
C2480 C2482 1.419 1_565 S
C2480 H2484 0.930 . S
C2481 C2480 1.369 . S
C2481 C2490 1.429 . S
C2482 C2480 1.419 1_545 S
C2482 C2483 1.363 . S
C2482 H2485 0.929 . S
C2483 C2482 1.363 . S
C2483 C2489 1.463 . S
H2484 C2480 0.930 . S
H2485 C2482 0.929 . S
S2486 N2487 1.613 . S
S2486 N2488 1.671 . S
N2487 S2486 1.613 . S
N2487 C2490 1.350 . S
N2488 S2486 1.671 . S
N2488 C2489 1.347 1_565 S
C2489 C2483 1.463 . S
C2489 N2488 1.347 1_545 S
C2489 C2490 1.398 1_545 S
C2490 C2481 1.429 . S
C2490 N2487 1.350 . S
C2490 C2489 1.398 1_565 S
C2491 C2492 1.369 . S
C2491 C2493 1.419 1_455 S
C2491 H2495 0.930 . S
C2492 C2491 1.369 . S
C2492 C2501 1.429 . S
C2493 C2491 1.419 1_655 S
C2493 C2494 1.363 . S
C2493 H2496 0.929 . S
C2494 C2493 1.363 . S
C2494 C2500 1.428 . S
H2495 C2491 0.930 . S
H2496 C2493 0.929 . S
S2497 N2498 1.607 . S
S2497 N2499 1.612 1_455 S
N2498 S2497 1.607 . S
N2498 C2501 1.350 . S
N2499 S2497 1.612 1_655 S
N2499 C2500 1.351 . S
C2500 C2494 1.428 . S
C2500 N2499 1.351 . S
C2500 C2501 1.434 1_655 S
C2501 C2492 1.429 . S
C2501 N2498 1.350 . S
C2501 C2500 1.434 1_455 S
C2502 C2503 1.369 . S
C2502 C2504 1.419 . S
C2502 H2506 0.930 . S
C2503 C2502 1.369 . S
C2503 C2512 1.429 . S
C2504 C2502 1.419 . S
C2504 C2505 1.363 . S
C2504 H2507 0.929 . S
C2505 C2504 1.363 . S
C2505 C2511 1.428 . S
H2506 C2502 0.930 . S
H2507 C2504 0.929 . S
S2508 N2509 1.613 . S
S2508 N2510 1.610 . S
N2509 S2508 1.613 . S
N2509 C2512 1.350 . S
N2510 S2508 1.610 . S
N2510 C2511 1.351 . S
C2511 C2505 1.428 . S
C2511 N2510 1.351 . S
C2511 C2512 1.434 . S
C2512 C2503 1.429 . S
C2512 N2509 1.350 . S
C2512 C2511 1.434 . S
C2513 C2514 1.369 . S
C2513 C2515 1.419 . S
C2513 H2517 0.930 . S
C2514 C2513 1.369 . S
C2514 C2523 1.429 . S
C2515 C2513 1.419 . S
C2515 C2516 1.363 . S
C2515 H2518 0.929 . S
C2516 C2515 1.363 . S
C2516 C2522 1.428 . S
H2517 C2513 0.930 . S
H2518 C2515 0.929 . S
S2519 N2520 1.613 . S
S2519 N2521 1.610 . S
N2520 S2519 1.613 . S
N2520 C2523 1.350 . S
N2521 S2519 1.610 . S
N2521 C2522 1.351 . S
C2522 C2516 1.428 . S
C2522 N2521 1.351 . S
C2522 C2523 1.434 . S
C2523 C2514 1.429 . S
C2523 N2520 1.350 . S
C2523 C2522 1.434 . S
C2524 C2525 1.369 . S
C2524 C2526 1.419 . S
C2524 H2528 0.930 . S
C2525 C2524 1.369 . S
C2525 C2534 1.429 . S
C2526 C2524 1.419 . S
C2526 C2527 1.363 . S
C2526 H2529 0.929 . S
C2527 C2526 1.363 . S
C2527 C2533 1.428 . S
H2528 C2524 0.930 . S
H2529 C2526 0.929 . S
S2530 N2531 1.613 . S
S2530 N2532 1.610 . S
N2531 S2530 1.613 . S
N2531 C2534 1.350 . S
N2532 S2530 1.610 . S
N2532 C2533 1.351 . S
C2533 C2527 1.428 . S
C2533 N2532 1.351 . S
C2533 C2534 1.434 . S
C2534 C2525 1.429 . S
C2534 N2531 1.350 . S
C2534 C2533 1.434 . S
C2535 C2536 1.369 . S
C2535 C2537 1.419 . S
C2535 H2539 0.930 . S
C2536 C2535 1.369 . S
C2536 C2545 1.429 . S
C2537 C2535 1.419 . S
C2537 C2538 1.363 . S
C2537 H2540 0.929 . S
C2538 C2537 1.363 . S
C2538 C2544 1.428 . S
H2539 C2535 0.930 . S
H2540 C2537 0.929 . S
S2541 N2542 1.613 . S
S2541 N2543 1.610 . S
N2542 S2541 1.613 . S
N2542 C2545 1.350 . S
N2543 S2541 1.610 . S
N2543 C2544 1.351 . S
C2544 C2538 1.428 . S
C2544 N2543 1.351 . S
C2544 C2545 1.434 . S
C2545 C2536 1.429 . S
C2545 N2542 1.350 . S
C2545 C2544 1.434 . S
C2546 C2547 1.369 . S
C2546 C2548 1.419 . S
C2546 H2550 0.930 . S
C2547 C2546 1.369 . S
C2547 C2556 1.429 . S
C2548 C2546 1.419 . S
C2548 C2549 1.363 . S
C2548 H2551 0.929 . S
C2549 C2548 1.363 . S
C2549 C2555 1.428 . S
H2550 C2546 0.930 . S
H2551 C2548 0.929 . S
S2552 N2553 1.613 . S
S2552 N2554 1.610 . S
N2553 S2552 1.613 . S
N2553 C2556 1.350 . S
N2554 S2552 1.610 . S
N2554 C2555 1.351 . S
C2555 C2549 1.428 . S
C2555 N2554 1.351 . S
C2555 C2556 1.434 . S
C2556 C2547 1.429 . S
C2556 N2553 1.350 . S
C2556 C2555 1.434 . S
C2557 C2558 1.369 . S
C2557 C2559 1.419 . S
C2557 H2561 0.930 . S
C2558 C2557 1.369 . S
C2558 C2567 1.429 . S
C2559 C2557 1.419 . S
C2559 C2560 1.363 . S
C2559 H2562 0.929 . S
C2560 C2559 1.363 . S
C2560 C2566 1.428 . S
H2561 C2557 0.930 . S
H2562 C2559 0.929 . S
S2563 N2564 1.613 . S
S2563 N2565 1.610 . S
N2564 S2563 1.613 . S
N2564 C2567 1.350 . S
N2565 S2563 1.610 . S
N2565 C2566 1.351 . S
C2566 C2560 1.428 . S
C2566 N2565 1.351 . S
C2566 C2567 1.434 . S
C2567 C2558 1.429 . S
C2567 N2564 1.350 . S
C2567 C2566 1.434 . S
C2568 C2569 1.369 . S
C2568 C2570 1.419 . S
C2568 H2572 0.930 . S
C2569 C2568 1.369 . S
C2569 C2578 1.429 . S
C2570 C2568 1.419 . S
C2570 C2571 1.363 . S
C2570 H2573 0.929 . S
C2571 C2570 1.363 . S
C2571 C2577 1.428 . S
H2572 C2568 0.930 . S
H2573 C2570 0.929 . S
S2574 N2575 1.613 . S
S2574 N2576 1.610 . S
N2575 S2574 1.613 . S
N2575 C2578 1.350 . S
N2576 S2574 1.610 . S
N2576 C2577 1.351 . S
C2577 C2571 1.428 . S
C2577 N2576 1.351 . S
C2577 C2578 1.434 . S
C2578 C2569 1.429 . S
C2578 N2575 1.350 . S
C2578 C2577 1.434 . S
C2579 C2580 1.369 . S
C2579 C2581 1.419 . S
C2579 H2583 0.930 . S
C2580 C2579 1.369 . S
C2580 C2589 1.429 . S
C2581 C2579 1.419 . S
C2581 C2582 1.363 . S
C2581 H2584 0.929 . S
C2582 C2581 1.363 . S
C2582 C2588 1.428 . S
H2583 C2579 0.930 . S
H2584 C2581 0.929 . S
S2585 N2586 1.613 . S
S2585 N2587 1.610 . S
N2586 S2585 1.613 . S
N2586 C2589 1.350 . S
N2587 S2585 1.610 . S
N2587 C2588 1.351 . S
C2588 C2582 1.428 . S
C2588 N2587 1.351 . S
C2588 C2589 1.434 . S
C2589 C2580 1.429 . S
C2589 N2586 1.350 . S
C2589 C2588 1.434 . S
C2590 C2591 1.369 . S
C2590 C2592 1.419 . S
C2590 H2594 0.930 . S
C2591 C2590 1.369 . S
C2591 C2600 1.429 . S
C2592 C2590 1.419 . S
C2592 C2593 1.363 . S
C2592 H2595 0.929 . S
C2593 C2592 1.363 . S
C2593 C2599 1.428 . S
H2594 C2590 0.930 . S
H2595 C2592 0.929 . S
S2596 N2597 1.613 . S
S2596 N2598 1.610 . S
N2597 S2596 1.613 . S
N2597 C2600 1.350 . S
N2598 S2596 1.610 . S
N2598 C2599 1.351 . S
C2599 C2593 1.428 . S
C2599 N2598 1.351 . S
C2599 C2600 1.434 . S
C2600 C2591 1.429 . S
C2600 N2597 1.350 . S
C2600 C2599 1.434 . S
C2601 C2602 1.369 . S
C2601 C2603 1.419 . S
C2601 H2605 0.930 . S
C2602 C2601 1.369 . S
C2602 C2611 1.429 . S
C2603 C2601 1.419 . S
C2603 C2604 1.363 . S
C2603 H2606 0.929 . S
C2604 C2603 1.363 . S
C2604 C2610 1.428 . S
H2605 C2601 0.930 . S
H2606 C2603 0.929 . S
S2607 N2608 1.613 . S
S2607 N2609 1.610 . S
N2608 S2607 1.613 . S
N2608 C2611 1.350 . S
N2609 S2607 1.610 . S
N2609 C2610 1.351 . S
C2610 C2604 1.428 . S
C2610 N2609 1.351 . S
C2610 C2611 1.434 . S
C2611 C2602 1.429 . S
C2611 N2608 1.350 . S
C2611 C2610 1.434 . S
C2612 C2613 1.369 . S
C2612 C2614 1.419 . S
C2612 H2616 0.930 . S
C2613 C2612 1.369 . S
C2613 C2622 1.429 . S
C2614 C2612 1.419 . S
C2614 C2615 1.363 . S
C2614 H2617 0.929 . S
C2615 C2614 1.363 . S
C2615 C2621 1.428 . S
H2616 C2612 0.930 . S
H2617 C2614 0.929 . S
S2618 N2619 1.613 . S
S2618 N2620 1.610 . S
N2619 S2618 1.613 . S
N2619 C2622 1.350 . S
N2620 S2618 1.610 . S
N2620 C2621 1.351 . S
C2621 C2615 1.428 . S
C2621 N2620 1.351 . S
C2621 C2622 1.434 . S
C2622 C2613 1.429 . S
C2622 N2619 1.350 . S
C2622 C2621 1.434 . S
C2623 C2624 1.369 . S
C2623 C2625 1.419 . S
C2623 H2627 0.930 . S
C2624 C2623 1.369 . S
C2624 C2633 1.429 . S
C2625 C2623 1.419 . S
C2625 C2626 1.363 . S
C2625 H2628 0.929 . S
C2626 C2625 1.363 . S
C2626 C2632 1.428 . S
H2627 C2623 0.930 . S
H2628 C2625 0.929 . S
S2629 N2630 1.613 . S
S2629 N2631 1.610 . S
N2630 S2629 1.613 . S
N2630 C2633 1.350 . S
N2631 S2629 1.610 . S
N2631 C2632 1.351 . S
C2632 C2626 1.428 . S
C2632 N2631 1.351 . S
C2632 C2633 1.434 . S
C2633 C2624 1.429 . S
C2633 N2630 1.350 . S
C2633 C2632 1.434 . S
C2634 C2635 1.369 1_455 S
C2634 C2636 1.419 . S
C2634 H2638 0.930 . S
C2635 C2634 1.369 1_655 S
C2635 C2644 1.429 . S
C2636 C2634 1.419 . S
C2636 C2637 1.363 . S
C2636 H2639 0.929 . S
C2637 C2636 1.363 . S
C2637 C2643 1.428 1_455 S
H2638 C2634 0.930 . S
H2639 C2636 0.929 . S
S2640 N2641 1.613 . S
S2640 N2642 1.610 . S
N2641 S2640 1.613 . S
N2641 C2644 1.350 . S
N2642 S2640 1.610 . S
N2642 C2643 1.351 . S
C2643 C2637 1.428 1_655 S
C2643 N2642 1.351 . S
C2643 C2644 1.434 . S
C2644 C2635 1.429 . S
C2644 N2641 1.350 . S
C2644 C2643 1.434 . S
C2645 C2646 1.369 . S
C2645 C2647 1.419 . S
C2645 H2649 0.930 . S
C2646 C2645 1.369 . S
C2646 C2655 1.429 . S
C2647 C2645 1.419 . S
C2647 C2648 1.363 . S
C2647 H2650 0.929 . S
C2648 C2647 1.363 . S
C2648 C2654 1.428 . S
H2649 C2645 0.930 . S
H2650 C2647 0.929 . S
S2651 N2652 1.613 . S
S2651 N2653 1.610 . S
N2652 S2651 1.613 . S
N2652 C2655 1.350 . S
N2653 S2651 1.610 . S
N2653 C2654 1.351 . S
C2654 C2648 1.428 . S
C2654 N2653 1.351 . S
C2654 C2655 1.434 . S
C2655 C2646 1.429 . S
C2655 N2652 1.350 . S
C2655 C2654 1.434 . S
C2656 C2657 1.369 . S
C2656 C2658 1.419 . S
C2656 H2660 0.930 . S
C2657 C2656 1.369 . S
C2657 C2666 1.429 1_565 S
C2658 C2656 1.419 . S
C2658 C2659 1.363 1_565 S
C2658 H2661 0.929 . S
C2659 C2658 1.363 1_545 S
C2659 C2665 1.428 . S
H2660 C2656 0.930 . S
H2661 C2658 0.929 . S
S2662 N2663 1.613 . S
S2662 N2664 1.610 . S
N2663 S2662 1.613 . S
N2663 C2666 1.350 . S
N2664 S2662 1.610 . S
N2664 C2665 1.351 . S
C2665 C2659 1.428 . S
C2665 N2664 1.351 . S
C2665 C2666 1.434 . S
C2666 C2657 1.429 1_545 S
C2666 N2663 1.350 . S
C2666 C2665 1.434 . S
C2667 C2668 1.369 . S
C2667 C2669 1.419 . S
C2667 H2671 0.930 . S
C2668 C2667 1.369 . S
C2668 C2677 1.423 . S
C2669 C2667 1.419 . S
C2669 C2670 1.363 1_565 S
C2669 H2672 0.929 . S
C2670 C2669 1.363 1_545 S
C2670 C2676 1.428 . S
H2671 C2667 0.930 . S
H2672 C2669 0.929 . S
S2673 N2674 1.613 . S
S2673 N2675 1.610 . S
N2674 S2673 1.613 . S
N2674 C2677 1.362 1_545 S
N2675 S2673 1.610 . S
N2675 C2676 1.351 . S
C2676 C2670 1.428 . S
C2676 N2675 1.351 . S
C2676 C2677 1.428 1_545 S
C2677 C2668 1.423 . S
C2677 N2674 1.362 1_565 S
C2677 C2676 1.428 1_565 S
C2678 C2679 1.369 1_455 S
C2678 C2680 1.419 . S
C2678 H2682 0.930 . S
C2679 C2678 1.369 1_655 S
C2679 C2688 1.429 . S
C2680 C2678 1.419 . S
C2680 C2681 1.363 . S
C2680 H2683 0.929 . S
C2681 C2680 1.363 . S
C2681 C2687 1.428 1_455 S
H2682 C2678 0.930 . S
H2683 C2680 0.929 . S
S2684 N2685 1.613 . S
S2684 N2686 1.610 . S
N2685 S2684 1.613 . S
N2685 C2688 1.350 . S
N2686 S2684 1.610 . S
N2686 C2687 1.351 . S
C2687 C2681 1.428 1_655 S
C2687 N2686 1.351 . S
C2687 C2688 1.434 . S
C2688 C2679 1.429 . S
C2688 N2685 1.350 . S
C2688 C2687 1.434 . S
C2689 C2690 1.369 . S
C2689 C2691 1.419 . S
C2689 H2693 0.930 . S
C2690 C2689 1.369 . S
C2690 C2699 1.429 . S
C2691 C2689 1.419 . S
C2691 C2692 1.363 . S
C2691 H2694 0.929 . S
C2692 C2691 1.363 . S
C2692 C2698 1.428 . S
H2693 C2689 0.930 . S
H2694 C2691 0.929 . S
S2695 N2696 1.613 . S
S2695 N2697 1.610 . S
N2696 S2695 1.613 . S
N2696 C2699 1.350 . S
N2697 S2695 1.610 . S
N2697 C2698 1.351 . S
C2698 C2692 1.428 . S
C2698 N2697 1.351 . S
C2698 C2699 1.434 . S
C2699 C2690 1.429 . S
C2699 N2696 1.350 . S
C2699 C2698 1.434 . S
C1909 C870 1.944 . S
C1911 C22 1.945 . S
C1920 C923 1.944 . S
C1922 C75 1.944 . S
C1931 C817 1.943 . S
C1933 C128 1.945 . S
C1942 C1400 1.911 1_554 S
C1944 C181 1.911 . S
C1953 C234 1.911 . S
C1955 C1294 1.911 1_554 S
C1964 C287 1.909 . S
C1966 C1347 1.911 1_554 S
C1975 C340 1.944 . S
C1977 C1824 1.942 . S
C1986 C1877 1.941 . S
C1988 C393 1.943 . S
C1997 C1771 1.941 . S
C1999 C446 1.943 . S
C2008 C499 1.909 . S
C2010 C1082 1.909 1_556 S
C2019 C976 1.910 1_556 S
C2021 C552 1.909 . S
C2030 C605 1.907 . S
C2032 C1029 1.910 1_556 S
C2041 C1506 1.830 . S
C2043 C658 1.835 . S
C2052 C711 1.832 . S
C2054 C1559 1.828 . S
C2063 C1453 1.830 . S
C2065 C764 1.832 . S
C2074 C1718 1.835 . S
C2076 C1135 1.824 . S
C2085 C1612 1.833 . S
C2087 C1188 1.826 . S
C2096 C1241 1.829 . S
C2098 C1665 1.827 . S
C2107 C993 1.940 . S
C2109 C39 1.941 . S
C2118 C1046 1.937 . S
C2120 C92 1.944 . S
C2129 C1099 1.935 . S
C2131 C145 1.945 . S
C2140 C198 1.952 . S
C2142 C1788 1.945 . S
C2151 C251 1.959 . S
C2153 C1841 1.941 . S
C2162 C304 1.958 . S
C2164 C1894 1.940 . S
C2173 C357 1.936 . S
C2175 C1311 1.944 . S
C2184 C1364 1.946 . S
C2186 C410 1.933 . S
C2195 C1417 1.944 . S
C2197 C463 1.935 . S
C2206 C834 1.950 . S
C2208 C516 1.947 . S
C2217 C569 1.947 . S
C2219 C887 1.952 . S
C2228 C622 1.945 . S
C2230 C940 1.953 . S
C2239 C675 1.928 . S
C2241 C1629 1.909 . S
C2250 C1682 1.913 . S
C2252 C728 1.924 . S
C2261 C1735 1.907 . S
C2263 C781 1.927 . S
C2272 C1470 2.001 . S
C2274 C1152 1.991 . S
C2283 C1205 1.990 . S
C2285 C1523 2.002 . S
C2294 C1258 1.993 . S
C2296 C1576 1.998 . S
C2305 C1469 1.821 . S
C2307 C38 1.815 . S
C2316 C91 1.815 . S
C2318 C1522 1.819 . S
C2327 C144 1.813 . S
C2329 C1575 1.818 . S
C2338 C674 1.765 . S
C2340 C197 1.767 . S
C2349 C250 1.771 . S
C2351 C727 1.768 . S
C2360 C303 1.767 . S
C2362 C780 1.765 . S
C2371 C1151 1.820 . S
C2373 C356 1.818 . S
C2382 C409 1.816 . S
C2384 C1204 1.825 . S
C2393 C1257 1.824 . S
C2395 C462 1.819 . S
C2404 C515 1.774 . S
C2406 C1628 1.771 . S
C2415 C1681 1.770 . S
C2417 C568 1.773 . S
C2426 C1734 1.772 . S
C2428 C621 1.774 . S
C2437 C1310 1.788 . S
C2439 C833 1.787 . S
C2448 C1363 1.792 . S
C2450 C886 1.790 . S
C2459 C1416 1.789 . S
C2461 C939 1.790 . S
C2470 C992 1.793 . S
C2472 C1787 1.794 . S
C2481 C1840 1.791 . S
C2483 C1045 1.794 . S
C2492 C1893 1.792 . S
C2494 C1098 1.793 . S
C2503 C29 1.005 . S
C2505 C877 1.004 . S
C2514 C82 1.005 . S
C2516 C930 1.002 . S
C2525 C135 1.002 . S
C2527 C824 1.005 . S
C2536 C1407 1.041 . S
C2538 C188 1.043 . S
C2547 C1301 1.043 . S
C2549 C241 1.039 . S
C2558 C1354 1.039 . S
C2560 C294 1.043 . S
C2569 C1831 1.007 . S
C2571 C347 1.004 . S
C2580 C1884 1.006 . S
C2582 C400 1.007 . S
C2591 C1778 1.002 . S
C2593 C453 1.007 . S
C2602 C506 1.041 . S
C2604 C1089 1.045 . S
C2613 C559 1.043 . S
C2615 C983 1.042 . S
C2624 C612 1.040 . S
C2626 C1036 1.043 . S
C2635 C1513 1.132 . S
C2637 C665 1.138 . S
C2646 C1566 1.131 . S
C2648 C718 1.141 . S
C2657 C771 1.133 . S
C2659 C1460 1.139 . S
C2668 C1142 1.135 . S
C2670 C1725 1.142 . S
C2679 C1619 1.139 . S
C2681 C1195 1.138 . S
C2690 C1672 1.140 . S
C2692 C1248 1.137 . S
