# Generated by pormake.
# Topology ato, (4)-cn, num edge types: 1
# Building blocks:
#     Node 0, Type 0, BuildingBlock: NAHDIM_clean_sbu_0, # of connection points: 4
#     Node 1, Type 0, BuildingBlock: NAHDIM_clean_sbu_0, # of connection points: 4
#     Node 2, Type 0, BuildingBlock: NAHDIM_clean_sbu_0, # of connection points: 4
#     Node 3, Type 0, BuildingBlock: NAHDIM_clean_sbu_0, # of connection points: 4
#     Node 4, Type 0, BuildingBlock: NAHDIM_clean_sbu_0, # of connection points: 4
#     Node 5, Type 0, BuildingBlock: NAHDIM_clean_sbu_0, # of connection points: 4
#     Node 6, Type 0, BuildingBlock: NAHDIM_clean_sbu_0, # of connection points: 4
#     Node 7, Type 0, BuildingBlock: NAHDIM_clean_sbu_0, # of connection points: 4
#     Node 8, Type 0, BuildingBlock: NAHDIM_clean_sbu_0, # of connection points: 4
#     Node 9, Type 0, BuildingBlock: NAHDIM_clean_sbu_0, # of connection points: 4
#     Node 10, Type 0, BuildingBlock: NAHDIM_clean_sbu_0, # of connection points: 4
#     Node 11, Type 0, BuildingBlock: NAHDIM_clean_sbu_0, # of connection points: 4
#     Node 12, Type 0, BuildingBlock: NAHDIM_clean_sbu_0, # of connection points: 4
#     Node 13, Type 0, BuildingBlock: NAHDIM_clean_sbu_0, # of connection points: 4
#     Node 14, Type 0, BuildingBlock: NAHDIM_clean_sbu_0, # of connection points: 4
#     Node 15, Type 0, BuildingBlock: NAHDIM_clean_sbu_0, # of connection points: 4
#     Node 16, Type 0, BuildingBlock: NAHDIM_clean_sbu_0, # of connection points: 4
#     Node 17, Type 0, BuildingBlock: NAHDIM_clean_sbu_0, # of connection points: 4
#     Node 18, Type 0, BuildingBlock: NAHDIM_clean_sbu_0, # of connection points: 4
#     Node 19, Type 0, BuildingBlock: NAHDIM_clean_sbu_0, # of connection points: 4
#     Node 20, Type 0, BuildingBlock: NAHDIM_clean_sbu_0, # of connection points: 4
#     Node 21, Type 0, BuildingBlock: NAHDIM_clean_sbu_0, # of connection points: 4
#     Node 22, Type 0, BuildingBlock: NAHDIM_clean_sbu_0, # of connection points: 4
#     Node 23, Type 0, BuildingBlock: NAHDIM_clean_sbu_0, # of connection points: 4
#     Node 24, Type 0, BuildingBlock: NAHDIM_clean_sbu_0, # of connection points: 4
#     Node 25, Type 0, BuildingBlock: NAHDIM_clean_sbu_0, # of connection points: 4
#     Node 26, Type 0, BuildingBlock: NAHDIM_clean_sbu_0, # of connection points: 4
#     Node 27, Type 0, BuildingBlock: NAHDIM_clean_sbu_0, # of connection points: 4
#     Node 28, Type 0, BuildingBlock: NAHDIM_clean_sbu_0, # of connection points: 4
#     Node 29, Type 0, BuildingBlock: NAHDIM_clean_sbu_0, # of connection points: 4
#     Node 30, Type 0, BuildingBlock: NAHDIM_clean_sbu_0, # of connection points: 4
#     Node 31, Type 0, BuildingBlock: NAHDIM_clean_sbu_0, # of connection points: 4
#     Node 32, Type 0, BuildingBlock: NAHDIM_clean_sbu_0, # of connection points: 4
#     Node 33, Type 0, BuildingBlock: NAHDIM_clean_sbu_0, # of connection points: 4
#     Node 34, Type 0, BuildingBlock: NAHDIM_clean_sbu_0, # of connection points: 4
#     Node 35, Type 0, BuildingBlock: NAHDIM_clean_sbu_0, # of connection points: 4
#     Edge 36, Type (0, 0), BuildingBlock: EZIPEK_clean_linker_0, # of connection points: 2
#     Edge 37, Type (0, 0), BuildingBlock: EZIPEK_clean_linker_0, # of connection points: 2
#     Edge 38, Type (0, 0), BuildingBlock: EZIPEK_clean_linker_0, # of connection points: 2
#     Edge 39, Type (0, 0), BuildingBlock: EZIPEK_clean_linker_0, # of connection points: 2
#     Edge 40, Type (0, 0), BuildingBlock: EZIPEK_clean_linker_0, # of connection points: 2
#     Edge 41, Type (0, 0), BuildingBlock: EZIPEK_clean_linker_0, # of connection points: 2
#     Edge 42, Type (0, 0), BuildingBlock: EZIPEK_clean_linker_0, # of connection points: 2
#     Edge 43, Type (0, 0), BuildingBlock: EZIPEK_clean_linker_0, # of connection points: 2
#     Edge 44, Type (0, 0), BuildingBlock: EZIPEK_clean_linker_0, # of connection points: 2
#     Edge 45, Type (0, 0), BuildingBlock: EZIPEK_clean_linker_0, # of connection points: 2
#     Edge 46, Type (0, 0), BuildingBlock: EZIPEK_clean_linker_0, # of connection points: 2
#     Edge 47, Type (0, 0), BuildingBlock: EZIPEK_clean_linker_0, # of connection points: 2
#     Edge 48, Type (0, 0), BuildingBlock: EZIPEK_clean_linker_0, # of connection points: 2
#     Edge 49, Type (0, 0), BuildingBlock: EZIPEK_clean_linker_0, # of connection points: 2
#     Edge 50, Type (0, 0), BuildingBlock: EZIPEK_clean_linker_0, # of connection points: 2
#     Edge 51, Type (0, 0), BuildingBlock: EZIPEK_clean_linker_0, # of connection points: 2
#     Edge 52, Type (0, 0), BuildingBlock: EZIPEK_clean_linker_0, # of connection points: 2
#     Edge 53, Type (0, 0), BuildingBlock: EZIPEK_clean_linker_0, # of connection points: 2
#     Edge 54, Type (0, 0), BuildingBlock: EZIPEK_clean_linker_0, # of connection points: 2
#     Edge 55, Type (0, 0), BuildingBlock: EZIPEK_clean_linker_0, # of connection points: 2
#     Edge 56, Type (0, 0), BuildingBlock: EZIPEK_clean_linker_0, # of connection points: 2
#     Edge 57, Type (0, 0), BuildingBlock: EZIPEK_clean_linker_0, # of connection points: 2
#     Edge 58, Type (0, 0), BuildingBlock: EZIPEK_clean_linker_0, # of connection points: 2
#     Edge 59, Type (0, 0), BuildingBlock: EZIPEK_clean_linker_0, # of connection points: 2
#     Edge 60, Type (0, 0), BuildingBlock: EZIPEK_clean_linker_0, # of connection points: 2
#     Edge 61, Type (0, 0), BuildingBlock: EZIPEK_clean_linker_0, # of connection points: 2
#     Edge 62, Type (0, 0), BuildingBlock: EZIPEK_clean_linker_0, # of connection points: 2
#     Edge 63, Type (0, 0), BuildingBlock: EZIPEK_clean_linker_0, # of connection points: 2
#     Edge 64, Type (0, 0), BuildingBlock: EZIPEK_clean_linker_0, # of connection points: 2
#     Edge 65, Type (0, 0), BuildingBlock: EZIPEK_clean_linker_0, # of connection points: 2
#     Edge 66, Type (0, 0), BuildingBlock: EZIPEK_clean_linker_0, # of connection points: 2
#     Edge 67, Type (0, 0), BuildingBlock: EZIPEK_clean_linker_0, # of connection points: 2
#     Edge 68, Type (0, 0), BuildingBlock: EZIPEK_clean_linker_0, # of connection points: 2
#     Edge 69, Type (0, 0), BuildingBlock: EZIPEK_clean_linker_0, # of connection points: 2
#     Edge 70, Type (0, 0), BuildingBlock: EZIPEK_clean_linker_0, # of connection points: 2
#     Edge 71, Type (0, 0), BuildingBlock: EZIPEK_clean_linker_0, # of connection points: 2
#     Edge 72, Type (0, 0), BuildingBlock: EZIPEK_clean_linker_0, # of connection points: 2
#     Edge 73, Type (0, 0), BuildingBlock: EZIPEK_clean_linker_0, # of connection points: 2
#     Edge 74, Type (0, 0), BuildingBlock: EZIPEK_clean_linker_0, # of connection points: 2
#     Edge 75, Type (0, 0), BuildingBlock: EZIPEK_clean_linker_0, # of connection points: 2
#     Edge 76, Type (0, 0), BuildingBlock: EZIPEK_clean_linker_0, # of connection points: 2
#     Edge 77, Type (0, 0), BuildingBlock: EZIPEK_clean_linker_0, # of connection points: 2
#     Edge 78, Type (0, 0), BuildingBlock: EZIPEK_clean_linker_0, # of connection points: 2
#     Edge 79, Type (0, 0), BuildingBlock: EZIPEK_clean_linker_0, # of connection points: 2
#     Edge 80, Type (0, 0), BuildingBlock: EZIPEK_clean_linker_0, # of connection points: 2
#     Edge 81, Type (0, 0), BuildingBlock: EZIPEK_clean_linker_0, # of connection points: 2
#     Edge 82, Type (0, 0), BuildingBlock: EZIPEK_clean_linker_0, # of connection points: 2
#     Edge 83, Type (0, 0), BuildingBlock: EZIPEK_clean_linker_0, # of connection points: 2
#     Edge 84, Type (0, 0), BuildingBlock: EZIPEK_clean_linker_0, # of connection points: 2
#     Edge 85, Type (0, 0), BuildingBlock: EZIPEK_clean_linker_0, # of connection points: 2
#     Edge 86, Type (0, 0), BuildingBlock: EZIPEK_clean_linker_0, # of connection points: 2
#     Edge 87, Type (0, 0), BuildingBlock: EZIPEK_clean_linker_0, # of connection points: 2
#     Edge 88, Type (0, 0), BuildingBlock: EZIPEK_clean_linker_0, # of connection points: 2
#     Edge 89, Type (0, 0), BuildingBlock: EZIPEK_clean_linker_0, # of connection points: 2
#     Edge 90, Type (0, 0), BuildingBlock: EZIPEK_clean_linker_0, # of connection points: 2
#     Edge 91, Type (0, 0), BuildingBlock: EZIPEK_clean_linker_0, # of connection points: 2
#     Edge 92, Type (0, 0), BuildingBlock: EZIPEK_clean_linker_0, # of connection points: 2
#     Edge 93, Type (0, 0), BuildingBlock: EZIPEK_clean_linker_0, # of connection points: 2
#     Edge 94, Type (0, 0), BuildingBlock: EZIPEK_clean_linker_0, # of connection points: 2
#     Edge 95, Type (0, 0), BuildingBlock: EZIPEK_clean_linker_0, # of connection points: 2
#     Edge 96, Type (0, 0), BuildingBlock: EZIPEK_clean_linker_0, # of connection points: 2
#     Edge 97, Type (0, 0), BuildingBlock: EZIPEK_clean_linker_0, # of connection points: 2
#     Edge 98, Type (0, 0), BuildingBlock: EZIPEK_clean_linker_0, # of connection points: 2
#     Edge 99, Type (0, 0), BuildingBlock: EZIPEK_clean_linker_0, # of connection points: 2
#     Edge 100, Type (0, 0), BuildingBlock: EZIPEK_clean_linker_0, # of connection points: 2
#     Edge 101, Type (0, 0), BuildingBlock: EZIPEK_clean_linker_0, # of connection points: 2
#     Edge 102, Type (0, 0), BuildingBlock: EZIPEK_clean_linker_0, # of connection points: 2
#     Edge 103, Type (0, 0), BuildingBlock: EZIPEK_clean_linker_0, # of connection points: 2
#     Edge 104, Type (0, 0), BuildingBlock: EZIPEK_clean_linker_0, # of connection points: 2
#     Edge 105, Type (0, 0), BuildingBlock: EZIPEK_clean_linker_0, # of connection points: 2
#     Edge 106, Type (0, 0), BuildingBlock: EZIPEK_clean_linker_0, # of connection points: 2
#     Edge 107, Type (0, 0), BuildingBlock: EZIPEK_clean_linker_0, # of connection points: 2
# Relax obj value: 0.056
# Max RMSD: 0.062
# Mean RMSD: 0.062
data_MOF--net-ato--node1-NAHDIM_clean_sbu_0--edge1-EZIPEK_clean_linker_0
_symmetry_space_group_name_H-M    P1
_symmetry_Int_Tables_number       1
_symmetry_cell_setting            triclinic
loop_
_symmetry_equiv_pos_as_xyz
'x, y, z'
_cell_length_a     74.066579
_cell_length_b     74.049619
_cell_length_c     17.974844
_cell_angle_alpha  89.977661
_cell_angle_beta   90.036922
_cell_angle_gamma 119.99585
loop_
_atom_site_label
_atom_site_type_symbol
_atom_site_fract_x
_atom_site_fract_y
_atom_site_fract_z
_atom_type_partial_charge
C0 C 0.22395 0.01997 0.34108 0.0
O1 O 0.21096 0.01356 0.28456 0.0
O2 O 0.2399 0.07162 0.22663 0.0
Zn3 Zn 0.24981 0.05093 0.2355 0.0
O4 O 0.23718 0.02926 0.15583 0.0
C5 C 0.28965 0.08234 0.1805 0.0
O6 O 0.27811 0.08852 0.14555 0.0
O7 O 0.2418 0.03618 0.33423 0.0
C8 C 0.23757 0.03371 0.08755 0.0
O9 O 0.24639 0.05325 0.06621 0.0
C10 C 0.22254 0.0693 0.24799 0.0
O11 O 0.20853 0.05172 0.27856 0.0
O12 O 0.28109 0.06652 0.22311 0.0
C13 C 0.96517 0.2022 0.40024 0.0
O14 O 0.94712 0.20084 0.41412 0.0
O15 O 0.92699 0.16471 0.25299 0.0
Zn16 Zn 0.95005 0.19453 0.24935 0.0
O17 O 0.9659 0.20069 0.15377 0.0
C18 C 0.93059 0.21705 0.19626 0.0
O19 O 0.93256 0.2096 0.13245 0.0
O20 O 0.96979 0.20009 0.33405 0.0
C21 C 0.97949 0.19539 0.14179 0.0
O22 O 0.98313 0.18474 0.19212 0.0
C23 C 0.91608 0.15623 0.19539 0.0
O24 O 0.9207 0.1666 0.13251 0.0
O25 O 0.93719 0.21297 0.25565 0.0
C26 C 0.80126 0.75997 0.40621 0.0
O27 O 0.81546 0.75435 0.41086 0.0
O28 O 0.83061 0.75953 0.24418 0.0
Zn29 Zn 0.8006 0.75212 0.24703 0.0
O30 O 0.79516 0.76812 0.16927 0.0
C31 C 0.78973 0.70999 0.20918 0.0
O32 O 0.81004 0.7183 0.20397 0.0
O33 O 0.79317 0.75988 0.34398 0.0
C34 C 0.78759 0.76004 0.10656 0.0
O35 O 0.78409 0.74125 0.09073 0.0
C36 C 0.84616 0.77749 0.25627 0.0
O37 O 0.84334 0.7932 0.27231 0.0
O38 O 0.78204 0.72129 0.22798 0.0
C39 C 0.02386 0.21874 0.63901 0.0
O40 O 0.027 0.20422 0.66769 0.0
O41 O 0.07756 0.24087 0.72714 0.0
Zn42 Zn 0.05305 0.2446 0.7517 0.0
O43 O 0.0374 0.22721 0.83975 0.0
C44 C 0.07812 0.2838 0.82557 0.0
O45 O 0.08504 0.27304 0.86155 0.0
O46 O 0.03355 0.23712 0.6651 0.0
C47 C 0.02486 0.23159 0.87214 0.0
O48 O 0.02207 0.24657 0.84597 0.0
C49 C 0.08556 0.23503 0.77761 0.0
O50 O 0.07672 0.22978 0.84337 0.0
O51 O 0.06399 0.27481 0.77665 0.0
C52 C 0.77379 0.79009 0.65201 0.0
O53 O 0.78567 0.79759 0.71115 0.0
O54 O 0.75696 0.82923 0.73635 0.0
Zn55 Zn 0.74709 0.79854 0.74041 0.0
O56 O 0.75919 0.79202 0.8285 0.0
C57 C 0.70679 0.79073 0.78632 0.0
O58 O 0.71786 0.81002 0.81014 0.0
O59 O 0.7562 0.7892 0.64988 0.0
C60 C 0.75888 0.798 0.89424 0.0
O61 O 0.75023 0.80935 0.90848 0.0
C62 C 0.77578 0.84367 0.72903 0.0
O63 O 0.79076 0.83918 0.72369 0.0
O64 O 0.71579 0.78234 0.75237 0.0
C65 C 0.19993 0.9732 0.61643 0.0
O66 O 0.1883 0.97604 0.66483 0.0
O67 O 0.17045 0.92504 0.74208 0.0
Zn68 Zn 0.2006 0.94736 0.73276 0.0
O69 O 0.20778 0.96981 0.80807 0.0
C70 C 0.21238 0.91815 0.78859 0.0
O71 O 0.19355 0.90918 0.8172 0.0
O72 O 0.20668 0.9609 0.63203 0.0
C73 C 0.20708 0.96612 0.8772 0.0
O74 O 0.20106 0.94716 0.90066 0.0
C75 C 0.15592 0.92842 0.76155 0.0
O76 O 0.16 0.94746 0.77617 0.0
O77 O 0.2189 0.93472 0.7504 0.0
C78 C 0.77696 0.97266 0.61722 0.0
O79 O 0.79167 0.97855 0.66765 0.0
O80 O 0.76053 0.9192 0.72005 0.0
Zn81 Zn 0.75291 0.94154 0.72692 0.0
O82 O 0.76882 0.96117 0.81113 0.0
C83 C 0.71518 0.9159 0.80618 0.0
O84 O 0.72819 0.91407 0.85096 0.0
O85 O 0.759 0.95715 0.62989 0.0
C86 C 0.7604 0.97013 0.84482 0.0
O87 O 0.74193 0.96659 0.82404 0.0
C88 C 0.77891 0.92236 0.72774 0.0
O89 O 0.79444 0.94123 0.74069 0.0
O90 O 0.7221 0.9272 0.74833 0.0
C91 C 0.03042 0.81025 0.62282 0.0
O92 O 0.04616 0.82932 0.61556 0.0
O93 O 0.07212 0.83985 0.75066 0.0
Zn94 Zn 0.04945 0.80996 0.76459 0.0
O95 O 0.03248 0.80615 0.85572 0.0
C96 C 0.08198 0.79929 0.78043 0.0
O97 O 0.0945 0.81934 0.76971 0.0
O98 O 0.02928 0.7995 0.6795 0.0
C99 C 0.03863 0.80351 0.91857 0.0
O100 O 0.05705 0.80516 0.92491 0.0
C101 C 0.076 0.85412 0.7977 0.0
O102 O 0.06415 0.85006 0.85673 0.0
O103 O 0.06236 0.79177 0.77807 0.0
C104 C 0.20657 0.22621 0.61007 0.0
O105 O 0.19092 0.21244 0.65022 0.0
O106 O 0.17821 0.24503 0.7192 0.0
Zn107 Zn 0.20855 0.25288 0.72743 0.0
O108 O 0.21423 0.23863 0.81221 0.0
C109 C 0.22036 0.29303 0.78997 0.0
O110 O 0.20254 0.28201 0.8246 0.0
O111 O 0.21687 0.24503 0.63177 0.0
C112 C 0.20229 0.22042 0.83747 0.0
O113 O 0.1837 0.20874 0.80846 0.0
C114 C 0.16606 0.24094 0.77442 0.0
O115 O 0.17261 0.24031 0.84174 0.0
O116 O 0.22644 0.28402 0.74447 0.0
C117 C 0.96334 0.77393 0.40817 0.0
O118 O 0.94524 0.77272 0.4192 0.0
O119 O 0.92453 0.76401 0.26946 0.0
Zn120 Zn 0.94769 0.75739 0.25948 0.0
O121 O 0.96523 0.77128 0.1703 0.0
C122 C 0.91955 0.71633 0.20626 0.0
O123 O 0.91063 0.7261 0.17639 0.0
O124 O 0.96701 0.76784 0.34705 0.0
C125 C 0.98201 0.77065 0.16618 0.0
O126 O 0.98659 0.76116 0.21833 0.0
C127 C 0.92381 0.77798 0.23072 0.0
O128 O 0.93885 0.78919 0.18356 0.0
O129 O 0.93573 0.72647 0.24621 0.0
C130 C 0.22546 0.19889 0.3351 0.0
O131 O 0.21077 0.19004 0.28457 0.0
O132 O 0.23976 0.16105 0.23576 0.0
Zn133 Zn 0.2489 0.19143 0.22606 0.0
O134 O 0.23331 0.19647 0.14449 0.0
C135 C 0.28891 0.19892 0.17274 0.0
O136 O 0.2782 0.17911 0.15455 0.0
O137 O 0.24342 0.20133 0.32279 0.0
C138 C 0.23658 0.19452 0.07643 0.0
O139 O 0.24964 0.18811 0.05865 0.0
C140 C 0.22308 0.14624 0.20871 0.0
O141 O 0.21006 0.15016 0.17223 0.0
O142 O 0.27976 0.20758 0.20381 0.0
C143 C 0.79652 0.01961 0.34303 0.0
O144 O 0.81041 0.01959 0.2977 0.0
O145 O 0.82578 0.07051 0.24337 0.0
Zn146 Zn 0.79609 0.04688 0.23211 0.0
O147 O 0.79312 0.02731 0.14836 0.0
C148 C 0.78232 0.07455 0.17474 0.0
O149 O 0.80038 0.08313 0.14072 0.0
O150 O 0.78796 0.0303 0.32683 0.0
C151 C 0.78808 0.02929 0.08254 0.0
O152 O 0.78597 0.04535 0.06543 0.0
C153 C 0.83802 0.07858 0.18838 0.0
O154 O 0.83189 0.07057 0.12176 0.0
O155 O 0.77688 0.05881 0.21659 0.0
C156 C 0.88422 0.35492 0.72115 0.0
O157 O 0.87003 0.34857 0.66855 0.0
O158 O 0.90282 0.40806 0.61003 0.0
Zn159 Zn 0.90928 0.38474 0.61021 0.0
O160 O 0.89276 0.36383 0.53093 0.0
C161 C 0.95137 0.41452 0.5645 0.0
O162 O 0.94325 0.42642 0.55126 0.0
O163 O 0.90226 0.37042 0.70957 0.0
C164 C 0.8971 0.36834 0.46272 0.0
O165 O 0.91197 0.38708 0.44395 0.0
C166 C 0.88514 0.40566 0.59264 0.0
O167 O 0.86979 0.38716 0.57406 0.0
O168 O 0.9399 0.39618 0.58959 0.0
C169 C 0.6486 0.53514 0.66226 0.0
O170 O 0.65517 0.52926 0.60429 0.0
O171 O 0.59285 0.49674 0.57354 0.0
Zn172 Zn 0.61455 0.52725 0.56452 0.0
O173 O 0.63373 0.53316 0.47684 0.0
C174 C 0.58348 0.53862 0.52082 0.0
O175 O 0.57374 0.51981 0.49229 0.0
O176 O 0.63171 0.53561 0.65832 0.0
C177 C 0.62941 0.53679 0.41207 0.0
O178 O 0.61117 0.53503 0.39894 0.0
C179 C 0.58326 0.48531 0.51812 0.0
O180 O 0.58901 0.49265 0.45052 0.0
O181 O 0.60065 0.54496 0.55504 0.0
C182 C 0.46129 0.10765 0.71122 0.0
O183 O 0.4735 0.12305 0.66678 0.0
O184 O 0.50028 0.09333 0.61886 0.0
Zn185 Zn 0.47002 0.08447 0.60601 0.0
O186 O 0.46609 0.10044 0.52366 0.0
C187 C 0.46165 0.04671 0.53351 0.0
O188 O 0.47927 0.05934 0.49976 0.0
O189 O 0.45799 0.08939 0.69818 0.0
C190 C 0.44947 0.09171 0.48544 0.0
O191 O 0.43544 0.07219 0.49873 0.0
C192 C 0.51472 0.10839 0.58293 0.0
O193 O 0.51031 0.11978 0.53872 0.0
O194 O 0.45445 0.05391 0.58194 0.0
C195 C 0.69526 0.55775 0.93772 0.0
O196 O 0.69776 0.54401 0.97582 0.0
O197 O 0.74314 0.5794 0.05264 0.0
Zn198 Zn 0.71869 0.58417 0.05883 0.0
O199 O 0.69921 0.5674 0.14225 0.0
C200 C 0.74052 0.62239 0.13849 0.0
O201 O 0.74161 0.60983 0.18756 0.0
O202 O 0.70299 0.57626 0.96204 0.0
C203 C 0.68873 0.57443 0.17445 0.0
O204 O 0.69066 0.59225 0.15297 0.0
C205 C 0.74827 0.57168 0.10621 0.0
O206 O 0.73665 0.56521 0.16624 0.0
O207 O 0.73071 0.61494 0.07795 0.0
C208 C 0.4199 0.1222 0.95687 0.0
O209 O 0.39991 0.11604 0.95646 0.0
O210 O 0.42976 0.16869 0.10738 0.0
Zn211 Zn 0.42033 0.13817 0.10568 0.0
O212 O 0.43151 0.1297 0.1917 0.0
C213 C 0.37916 0.12989 0.1428 0.0
O214 O 0.38956 0.14914 0.16749 0.0
O215 O 0.43096 0.13164 0.01312 0.0
C216 C 0.43025 0.13463 0.25826 0.0
O217 O 0.42236 0.1467 0.27221 0.0
C218 C 0.4456 0.18249 0.07269 0.0
O219 O 0.45783 0.17736 0.03684 0.0
O220 O 0.3889 0.12179 0.11208 0.0
C221 C 0.86541 0.30936 0.99795 0.0
O222 O 0.85028 0.30797 0.04 0.0
O223 O 0.83663 0.26189 0.10466 0.0
Zn224 Zn 0.86703 0.28344 0.11187 0.0
O225 O 0.87321 0.30273 0.19875 0.0
C226 C 0.88817 0.26459 0.1864 0.0
O227 O 0.88253 0.27045 0.24677 0.0
O228 O 0.87527 0.30018 0.01741 0.0
C229 C 0.86066 0.30782 0.22684 0.0
O230 O 0.84167 0.29992 0.20031 0.0
C231 C 0.82703 0.24944 0.15777 0.0
O232 O 0.83663 0.25143 0.22125 0.0
O233 O 0.88346 0.26854 0.12274 0.0
C234 C 0.43962 0.304 0.92647 0.0
O235 O 0.45481 0.3081 0.97331 0.0
O236 O 0.42528 0.25465 0.03811 0.0
Zn237 Zn 0.41522 0.27522 0.04066 0.0
O238 O 0.42904 0.29554 0.12416 0.0
C239 C 0.3775 0.24598 0.11227 0.0
O240 O 0.39057 0.24256 0.15084 0.0
O241 O 0.42105 0.29032 0.94294 0.0
C242 C 0.42337 0.30883 0.13682 0.0
O243 O 0.40916 0.30926 0.0943 0.0
C244 C 0.44263 0.25822 0.06496 0.0
O245 O 0.45556 0.27657 0.09345 0.0
O246 O 0.38438 0.25948 0.06048 0.0
C247 C 0.67993 0.13035 0.99372 0.0
O248 O 0.67815 0.14258 0.04243 0.0
O249 O 0.73506 0.16619 0.08182 0.0
Zn250 Zn 0.71242 0.1361 0.09164 0.0
O251 O 0.69333 0.133 0.17577 0.0
C252 C 0.74343 0.12247 0.10306 0.0
O253 O 0.75682 0.14119 0.07894 0.0
O254 O 0.69437 0.12596 0.00084 0.0
C255 C 0.69234 0.12278 0.23374 0.0
O256 O 0.70486 0.11515 0.24145 0.0
C257 C 0.74747 0.17424 0.13636 0.0
O258 O 0.74407 0.16324 0.19738 0.0
O259 O 0.72437 0.11715 0.11102 0.0
C260 C 0.8691 0.56376 0.95555 0.0
O261 O 0.84951 0.55257 0.97599 0.0
O262 O 0.84086 0.58163 0.06457 0.0
Zn263 Zn 0.87074 0.58895 0.07911 0.0
O264 O 0.87381 0.57371 0.16606 0.0
C265 C 0.8827 0.6276 0.15221 0.0
O266 O 0.86718 0.61503 0.19546 0.0
O267 O 0.88105 0.58073 0.98913 0.0
C268 C 0.89034 0.57256 0.16927 0.0
O269 O 0.90459 0.58137 0.11734 0.0
C270 C 0.82801 0.57537 0.1183 0.0
O271 O 0.83372 0.5721 0.18375 0.0
O272 O 0.88784 0.62001 0.09813 0.0
C273 C 0.62046 0.09067 0.75684 0.0
O274 O 0.60018 0.07913 0.76526 0.0
O275 O 0.58913 0.09007 0.5939 0.0
Zn276 Zn 0.61226 0.08345 0.5979 0.0
O277 O 0.6324 0.09785 0.51567 0.0
C278 C 0.58338 0.04132 0.55293 0.0
O279 O 0.57215 0.04977 0.53343 0.0
O280 O 0.62844 0.09406 0.69237 0.0
C281 C 0.62638 0.09572 0.44863 0.0
O282 O 0.60644 0.08468 0.43274 0.0
C283 C 0.59213 0.10846 0.5995 0.0
O284 O 0.61108 0.12431 0.6078 0.0
O285 O 0.60095 0.05252 0.58415 0.0
C286 C 0.90503 0.53605 0.72827 0.0
O287 O 0.91819 0.52964 0.74475 0.0
O288 O 0.90483 0.49914 0.57885 0.0
Zn289 Zn 0.91233 0.52918 0.57491 0.0
O290 O 0.90108 0.5352 0.48297 0.0
C291 C 0.95481 0.54071 0.54447 0.0
O292 O 0.94599 0.5213 0.52147 0.0
O293 O 0.90033 0.53679 0.66092 0.0
C294 C 0.90828 0.53512 0.41901 0.0
O295 O 0.9221 0.5291 0.41135 0.0
C296 C 0.88645 0.48388 0.58632 0.0
O297 O 0.87065 0.48718 0.59184 0.0
O298 O 0.94363 0.54756 0.57248 0.0
C299 C 0.45888 0.34964 0.64946 0.0
O300 O 0.4721 0.3486 0.60344 0.0
O301 O 0.49157 0.39986 0.55651 0.0
Zn302 Zn 0.46105 0.37877 0.54118 0.0
O303 O 0.45507 0.35963 0.45269 0.0
C304 C 0.4524 0.41138 0.49492 0.0
O305 O 0.47042 0.41896 0.46093 0.0
O306 O 0.45143 0.36136 0.63409 0.0
C307 C 0.45489 0.36532 0.38609 0.0
O308 O 0.45955 0.38453 0.37192 0.0
C309 C 0.50488 0.40872 0.50507 0.0
O310 O 0.49972 0.4027 0.43588 0.0
O311 O 0.44511 0.39433 0.53083 0.0
C312 C 0.55604 0.69268 0.04928 0.0
O313 O 0.54072 0.69074 0.00688 0.0
O314 O 0.57282 0.74178 0.93635 0.0
Zn315 Zn 0.58077 0.71958 0.93116 0.0
O316 O 0.56529 0.69952 0.84883 0.0
C317 C 0.61858 0.7462 0.85454 0.0
O318 O 0.60594 0.75021 0.81583 0.0
O319 O 0.57477 0.70434 0.02855 0.0
C320 C 0.56864 0.68447 0.83915 0.0
O321 O 0.58148 0.68231 0.88382 0.0
C322 C 0.55584 0.73952 0.91055 0.0
O323 O 0.54202 0.72164 0.88112 0.0
O324 O 0.61137 0.7333 0.90813 0.0
C325 C 0.30146 0.87969 0.03617 0.0
O326 O 0.28798 0.88625 0.03179 0.0
O327 O 0.26123 0.83087 0.90608 0.0
Zn328 Zn 0.28504 0.86028 0.89182 0.0
O329 O 0.30472 0.86398 0.80796 0.0
C330 C 0.25762 0.87428 0.8328 0.0
O331 O 0.24947 0.85654 0.79659 0.0
O332 O 0.30257 0.86864 0.98434 0.0
C333 C 0.30122 0.86491 0.73932 0.0
O334 O 0.2831 0.86205 0.71753 0.0
C335 C 0.25242 0.81777 0.85394 0.0
O336 O 0.26021 0.82225 0.78648 0.0
O337 O 0.27309 0.87945 0.87586 0.0
C338 C 0.12972 0.43915 0.05774 0.0
O339 O 0.14306 0.45372 0.01287 0.0
O340 O 0.16144 0.4193 0.95995 0.0
Zn341 Zn 0.13153 0.41212 0.94766 0.0
O342 O 0.12804 0.42658 0.85838 0.0
C343 C 0.11927 0.37257 0.88151 0.0
O344 O 0.1356 0.38427 0.84 0.0
O345 O 0.12232 0.42008 0.04094 0.0
C346 C 0.10994 0.41879 0.83018 0.0
O347 O 0.09424 0.40249 0.86153 0.0
C348 C 0.17389 0.42478 0.90512 0.0
O349 O 0.16778 0.42738 0.8394 0.0
O350 O 0.11403 0.38103 0.93217 0.0
C351 C 0.35774 0.89746 0.28346 0.0
O352 O 0.35457 0.88176 0.32627 0.0
O353 O 0.41138 0.91219 0.37087 0.0
Zn354 Zn 0.38906 0.91963 0.39173 0.0
O355 O 0.3683 0.90159 0.47015 0.0
C356 C 0.41858 0.95851 0.46539 0.0
O357 O 0.42594 0.94722 0.49434 0.0
O358 O 0.37237 0.91572 0.29891 0.0
C359 C 0.37116 0.90464 0.53967 0.0
O360 O 0.38901 0.91958 0.56501 0.0
C361 C 0.41826 0.90509 0.42096 0.0
O362 O 0.40922 0.9002 0.48639 0.0
O363 O 0.40292 0.95008 0.42191 0.0
C364 C 0.1061 0.46057 0.3363 0.0
O365 O 0.12022 0.47161 0.38662 0.0
O366 O 0.08517 0.49347 0.42893 0.0
Zn367 Zn 0.07863 0.4638 0.44117 0.0
O368 O 0.09295 0.4604 0.53143 0.0
C369 C 0.03972 0.45039 0.51141 0.0
O370 O 0.05209 0.46452 0.55951 0.0
O371 O 0.08712 0.45504 0.34786 0.0
C372 C 0.085 0.4425 0.56144 0.0
O373 O 0.06845 0.42672 0.53154 0.0
C374 C 0.09245 0.50692 0.48072 0.0
O375 O 0.09733 0.5021 0.54506 0.0
O376 O 0.04752 0.44655 0.45477 0.0
C377 C 0.53713 0.64818 0.32919 0.0
O378 O 0.53044 0.65482 0.38465 0.0
O379 O 0.50073 0.59555 0.44043 0.0
Zn380 Zn 0.53138 0.61686 0.43612 0.0
O381 O 0.53894 0.63704 0.52038 0.0
C382 C 0.53984 0.58284 0.45382 0.0
O383 O 0.51979 0.57112 0.44093 0.0
O384 O 0.53895 0.63213 0.33795 0.0
C385 C 0.53381 0.6298 0.58584 0.0
O386 O 0.5227 0.60956 0.59607 0.0
C387 C 0.48622 0.59753 0.41099 0.0
O388 O 0.49053 0.6147 0.37542 0.0
O389 O 0.5482 0.60257 0.45242 0.0
C390 C 0.10367 0.64087 0.28147 0.0
O391 O 0.11901 0.64511 0.32776 0.0
O392 O 0.08913 0.59131 0.3951 0.0
Zn393 Zn 0.07996 0.61266 0.39774 0.0
O394 O 0.09453 0.63362 0.47902 0.0
C395 C 0.04312 0.59207 0.48761 0.0
O396 O 0.05694 0.59778 0.54129 0.0
O397 O 0.08517 0.62723 0.29891 0.0
C398 C 0.08918 0.64724 0.48982 0.0
O399 O 0.07528 0.64779 0.44594 0.0
C400 C 0.09274 0.58484 0.45566 0.0
O401 O 0.09269 0.59375 0.51868 0.0
O402 O 0.04919 0.59707 0.42072 0.0
C403 C 0.37169 0.46791 0.29721 0.0
O404 O 0.38919 0.46782 0.28684 0.0
O405 O 0.40962 0.50733 0.44685 0.0
Zn406 Zn 0.38639 0.47749 0.4477 0.0
O407 O 0.36922 0.4698 0.54017 0.0
C408 C 0.41345 0.4623 0.48697 0.0
O409 O 0.4205 0.47825 0.53269 0.0
O410 O 0.36738 0.472 0.36109 0.0
C411 C 0.37506 0.47905 0.60233 0.0
O412 O 0.39342 0.4959 0.60863 0.0
C413 C 0.40688 0.52282 0.43876 0.0
O414 O 0.38796 0.51993 0.432 0.0
O415 O 0.39862 0.45872 0.44287 0.0
C416 C 0.54804 0.89171 0.30662 0.0
O417 O 0.53684 0.87747 0.35635 0.0
O418 O 0.5086 0.90907 0.37826 0.0
Zn419 Zn 0.53815 0.91643 0.40076 0.0
O420 O 0.53923 0.90006 0.48765 0.0
C421 C 0.5496 0.95413 0.48057 0.0
O422 O 0.53441 0.94102 0.52389 0.0
O423 O 0.55067 0.90997 0.31267 0.0
C424 C 0.55711 0.90544 0.514 0.0
O425 O 0.57364 0.92154 0.48534 0.0
C426 C 0.49516 0.90361 0.42992 0.0
O427 O 0.49994 0.90064 0.49744 0.0
O428 O 0.55468 0.94723 0.42438 0.0
C429 C 0.3123 0.44503 0.05703 0.0
O430 O 0.30937 0.4588 0.02108 0.0
O431 O 0.26041 0.42224 0.95907 0.0
Zn432 Zn 0.28542 0.41873 0.94397 0.0
O433 O 0.304 0.43737 0.86341 0.0
C434 C 0.26349 0.38107 0.8601 0.0
O435 O 0.25898 0.39298 0.81919 0.0
O436 O 0.30279 0.42612 0.03607 0.0
C437 C 0.31752 0.43325 0.838 0.0
O438 O 0.31833 0.41709 0.86406 0.0
C439 C 0.25405 0.42943 0.90748 0.0
O440 O 0.26473 0.43605 0.8454 0.0
O441 O 0.27525 0.38882 0.9165 0.0
C442 C 0.58343 0.87022 0.0591 0.0
O443 O 0.59806 0.86528 0.06706 0.0
O444 O 0.57555 0.8316 0.90156 0.0
Zn445 Zn 0.58589 0.86238 0.90246 0.0
O446 O 0.57529 0.871 0.81505 0.0
C447 C 0.62695 0.86914 0.87202 0.0
O448 O 0.61663 0.84899 0.85915 0.0
O449 O 0.5762 0.87007 0.99494 0.0
C450 C 0.57162 0.862 0.75231 0.0
O451 O 0.57358 0.84543 0.74403 0.0
C452 C 0.55694 0.81729 0.91358 0.0
O453 O 0.54234 0.82194 0.92725 0.0
O454 O 0.61722 0.87824 0.8941 0.0
C455 C 0.12355 0.68647 0.0041 0.0
O456 O 0.13621 0.68455 0.95786 0.0
O457 O 0.15825 0.736 0.90904 0.0
Zn458 Zn 0.12729 0.71625 0.89546 0.0
O459 O 0.12076 0.69707 0.80695 0.0
C460 C 0.12041 0.75009 0.84958 0.0
O461 O 0.13954 0.75842 0.82444 0.0
O462 O 0.11703 0.69898 0.9887 0.0
C463 C 0.12026 0.70305 0.74105 0.0
O464 O 0.12462 0.72226 0.7286 0.0
C465 C 0.171 0.74481 0.85595 0.0
O466 O 0.16464 0.73974 0.78705 0.0
O467 O 0.11212 0.73258 0.88283 0.0
C468 C 0.21561 0.00723 0.54758 0.0
C469 C 0.20606 0.98515 0.54592 0.0
C470 C 0.21079 0.98633 0.41087 0.0
C471 C 0.21793 0.00806 0.41166 0.0
N472 N 0.22297 0.03838 0.47966 0.0
N473 N 0.19071 0.95331 0.47424 0.0
C474 C 0.21919 0.01832 0.47972 0.0
C475 C 0.20256 0.97456 0.47705 0.0
N476 N 0.22215 0.01775 0.61352 0.0
N477 N 0.21268 0.97705 0.34792 0.0
H478 H 0.18389 0.94411 0.52119 0.0
H479 H 0.1859 0.945 0.4245 0.0
H480 H 0.21934 0.98522 0.29891 0.0
H481 H 0.20966 0.96172 0.34672 0.0
H482 H 0.23109 0.03394 0.61675 0.0
H483 H 0.22062 0.01035 0.66439 0.0
H484 H 0.22189 0.04579 0.5273 0.0
H485 H 0.22509 0.04691 0.43107 0.0
C486 C 0.98781 0.19795 0.58522 0.0
C487 C 0.00895 0.21383 0.57695 0.0
C488 C 0.00079 0.22341 0.45626 0.0
C489 C 0.98018 0.20623 0.46124 0.0
N490 N 0.95536 0.17448 0.52336 0.0
N491 N 0.03655 0.23867 0.49778 0.0
C492 C 0.97402 0.19273 0.52376 0.0
C493 C 0.01574 0.22572 0.51046 0.0
N494 N 0.98063 0.18845 0.65255 0.0
N495 N 0.00589 0.23805 0.4017 0.0
H496 H 0.04806 0.24039 0.53524 0.0
H497 H 0.04248 0.24606 0.44699 0.0
H498 H 0.99525 0.23732 0.36209 0.0
H499 H 0.02007 0.252 0.40023 0.0
H500 H 0.96488 0.17847 0.66374 0.0
H501 H 0.99009 0.19198 0.69945 0.0
H502 H 0.95109 0.16304 0.56408 0.0
H503 H 0.94499 0.16978 0.4787 0.0
C504 C 0.80716 0.78825 0.49526 0.0
C505 C 0.79497 0.76717 0.47252 0.0
C506 C 0.76964 0.7607 0.57118 0.0
C507 C 0.7808 0.78223 0.58935 0.0
N508 N 0.80835 0.81719 0.56251 0.0
N509 N 0.76365 0.73366 0.48207 0.0
C510 C 0.79916 0.7962 0.55003 0.0
C511 C 0.7759 0.75348 0.50851 0.0
N512 N 0.8264 0.80062 0.46459 0.0
N513 N 0.75365 0.74702 0.61575 0.0
H514 H 0.76822 0.72748 0.43863 0.0
H515 H 0.74845 0.72377 0.5 0.0
H516 H 0.74869 0.75167 0.66252 0.0
H517 H 0.7464 0.73089 0.61022 0.0
H518 H 0.83703 0.8154 0.48452 0.0
H519 H 0.83245 0.79551 0.42249 0.0
H520 H 0.82043 0.82838 0.53018 0.0
H521 H 0.80272 0.82365 0.60129 0.0
C522 C 0.78664 0.00566 0.54831 0.0
C523 C 0.78121 0.98439 0.54664 0.0
C524 C 0.78323 0.98561 0.41051 0.0
C525 C 0.79106 0.00745 0.413 0.0
N526 N 0.8039 0.039 0.48542 0.0
N527 N 0.7774 0.95474 0.47752 0.0
C528 C 0.79376 0.0177 0.48223 0.0
C529 C 0.7803 0.97448 0.47807 0.0
N530 N 0.78422 0.01416 0.61236 0.0
N531 N 0.7778 0.97533 0.34386 0.0
H532 H 0.77529 0.9461 0.52585 0.0
H533 H 0.77889 0.94762 0.4298 0.0
H534 H 0.77929 0.98284 0.29323 0.0
H535 H 0.76999 0.95914 0.33936 0.0
H536 H 0.78596 0.029 0.61496 0.0
H537 H 0.77832 0.00558 0.66114 0.0
H538 H 0.80824 0.0473 0.53521 0.0
H539 H 0.80981 0.04848 0.43853 0.0
C540 C 0.00769 0.78165 0.53445 0.0
C541 C 0.01351 0.8013 0.56678 0.0
C542 C 0.98726 0.8037 0.49108 0.0
C543 C 0.97994 0.78307 0.46522 0.0
N544 N 0.98047 0.75081 0.47404 0.0
N545 N 0.00583 0.82901 0.58778 0.0
C546 C 0.98939 0.77157 0.49025 0.0
C547 C 0.00249 0.81181 0.54842 0.0
N548 N 0.02007 0.77297 0.54344 0.0
N549 N 0.98043 0.81592 0.4588 0.0
H550 H 0.01639 0.83518 0.63171 0.0
H551 H 0.99662 0.8359 0.58173 0.0
H552 H 0.96966 0.81082 0.41537 0.0
H553 H 0.98698 0.83177 0.47018 0.0
H554 H 0.01767 0.75971 0.51486 0.0
H555 H 0.03399 0.78016 0.57348 0.0
H556 H 0.98551 0.74119 0.49725 0.0
H557 H 0.96671 0.74269 0.44348 0.0
C558 C 0.21635 0.22254 0.40445 0.0
C559 C 0.22115 0.20624 0.40567 0.0
C560 C 0.21887 0.20493 0.54173 0.0
C561 C 0.21206 0.21975 0.53986 0.0
N562 N 0.20107 0.24033 0.46938 0.0
N563 N 0.22393 0.1796 0.47341 0.0
C564 C 0.20997 0.22799 0.47121 0.0
C565 C 0.22164 0.19681 0.47379 0.0
N566 N 0.21858 0.23329 0.34002 0.0
N567 N 0.22339 0.19917 0.60836 0.0
H568 H 0.22594 0.17313 0.42474 0.0
H569 H 0.22208 0.17065 0.52054 0.0
H570 H 0.22177 0.20496 0.65929 0.0
H571 H 0.23051 0.19014 0.61295 0.0
H572 H 0.21753 0.24679 0.3375 0.0
H573 H 0.22333 0.22984 0.29 0.0
H574 H 0.19699 0.24486 0.42028 0.0
H575 H 0.19608 0.2446 0.51702 0.0
C576 C 0.88008 0.35345 0.8598 0.0
C577 C 0.87957 0.34336 0.79212 0.0
C578 C 0.86817 0.31056 0.85891 0.0
C579 C 0.87051 0.32111 0.92724 0.0
N580 N 0.88212 0.35328 0.99437 0.0
N581 N 0.87702 0.31352 0.72813 0.0
C582 C 0.8774 0.34276 0.92821 0.0
C583 C 0.87468 0.32223 0.79184 0.0
N584 N 0.88237 0.37295 0.85857 0.0
N585 N 0.85891 0.2893 0.85762 0.0
H586 H 0.88201 0.32161 0.67794 0.0
H587 H 0.8759 0.29893 0.7266 0.0
H588 H 0.85364 0.28011 0.9054 0.0
H589 H 0.8547 0.28061 0.80866 0.0
H590 H 0.88058 0.38018 0.90542 0.0
H591 H 0.88424 0.38124 0.80949 0.0
H592 H 0.8893 0.36945 0.99817 0.0
H593 H 0.88062 0.34604 0.04561 0.0
C594 C 0.65149 0.52879 0.79753 0.0
C595 C 0.66062 0.54078 0.7325 0.0
C596 C 0.69326 0.56228 0.80016 0.0
C597 C 0.68342 0.55169 0.86693 0.0
N598 N 0.65213 0.52712 0.93191 0.0
N599 N 0.68893 0.571 0.67395 0.0
C600 C 0.66225 0.53551 0.8664 0.0
C601 C 0.68119 0.55809 0.73427 0.0
N602 N 0.63288 0.51053 0.79303 0.0
N603 N 0.71431 0.57572 0.79893 0.0
H604 H 0.68052 0.56856 0.62479 0.0
H605 H 0.70292 0.58513 0.67486 0.0
H606 H 0.72378 0.57893 0.8457 0.0
H607 H 0.72269 0.58217 0.7502 0.0
H608 H 0.6266 0.49997 0.83687 0.0
H609 H 0.62459 0.50493 0.74346 0.0
H610 H 0.6361 0.51703 0.93553 0.0
H611 H 0.65939 0.53163 0.98363 0.0
C612 C 0.45276 0.10546 0.84697 0.0
C613 C 0.45054 0.11127 0.77381 0.0
C614 C 0.42911 0.12541 0.82125 0.0
C615 C 0.42967 0.11776 0.89306 0.0
N616 N 0.43826 0.09654 0.97099 0.0
N617 N 0.43292 0.12264 0.68876 0.0
C618 C 0.44042 0.10664 0.90504 0.0
C619 C 0.43768 0.1201 0.7601 0.0
N620 N 0.46725 0.09965 0.86171 0.0
N621 N 0.42123 0.13847 0.81176 0.0
H622 H 0.43846 0.11853 0.64223 0.0
H623 H 0.42185 0.12691 0.67585 0.0
H624 H 0.41513 0.14307 0.8553 0.0
H625 H 0.42254 0.14629 0.7621 0.0
H626 H 0.47104 0.09739 0.91542 0.0
H627 H 0.47699 0.09907 0.82103 0.0
H628 H 0.44403 0.08646 0.97989 0.0
H629 H 0.42888 0.09652 0.01431 0.0
C630 C 0.44341 0.3158 0.71915 0.0
C631 C 0.45345 0.33789 0.72035 0.0
C632 C 0.45216 0.33743 0.85666 0.0
C633 C 0.44408 0.31557 0.8555 0.0
N634 N 0.43502 0.2842 0.78659 0.0
N635 N 0.47075 0.3701 0.78978 0.0
C636 C 0.44047 0.30478 0.78698 0.0
C637 C 0.45871 0.34884 0.789 0.0
N638 N 0.43603 0.3053 0.65352 0.0
N639 N 0.45291 0.34721 0.92208 0.0
H640 H 0.47614 0.37907 0.74153 0.0
H641 H 0.47699 0.37873 0.83823 0.0
H642 H 0.44802 0.33935 0.97273 0.0
H643 H 0.45652 0.36271 0.92513 0.0
H644 H 0.42662 0.28917 0.65021 0.0
H645 H 0.43771 0.31283 0.60278 0.0
H646 H 0.43443 0.27611 0.73842 0.0
H647 H 0.43284 0.27561 0.83509 0.0
C648 C 0.66185 0.1325 0.87922 0.0
C649 C 0.66402 0.1202 0.93506 0.0
C650 C 0.63713 0.08827 0.87507 0.0
C651 C 0.63421 0.10064 0.8215 0.0
N652 N 0.64031 0.13431 0.78137 0.0
N653 N 0.65079 0.0869 0.99614 0.0
C654 C 0.64556 0.12272 0.82619 0.0
C655 C 0.6508 0.09821 0.93593 0.0
N656 N 0.67587 0.15339 0.87505 0.0
N657 N 0.62752 0.06713 0.8662 0.0
H658 H 0.6604 0.09363 0.04231 0.0
H659 H 0.63996 0.07116 0.00348 0.0
H660 H 0.61722 0.05924 0.82272 0.0
H661 H 0.63096 0.05757 0.89857 0.0
H662 H 0.6765 0.16273 0.83068 0.0
H663 H 0.68806 0.16112 0.91287 0.0
H664 H 0.64656 0.15034 0.78725 0.0
H665 H 0.62818 0.12761 0.74284 0.0
C666 C 0.88332 0.52893 0.84329 0.0
C667 C 0.89605 0.54307 0.78736 0.0
C668 C 0.88848 0.56952 0.83561 0.0
C669 C 0.87762 0.55623 0.89625 0.0
N670 N 0.86768 0.52448 0.96483 0.0
N671 N 0.91404 0.57809 0.73815 0.0
C672 C 0.87578 0.53622 0.90201 0.0
C673 C 0.89955 0.56374 0.78564 0.0
N674 N 0.87774 0.50835 0.83888 0.0
N675 N 0.88753 0.58727 0.8239 0.0
H676 H 0.92282 0.5746 0.70166 0.0
H677 H 0.91882 0.59392 0.74002 0.0
H678 H 0.87905 0.59175 0.85796 0.0
H679 H 0.89334 0.59641 0.77628 0.0
H680 H 0.86656 0.49688 0.87321 0.0
H681 H 0.88289 0.50237 0.79667 0.0
H682 H 0.86831 0.51098 0.97562 0.0
H683 H 0.86197 0.52908 0.00948 0.0
C684 C 0.55686 0.68112 0.2551 0.0
C685 C 0.54243 0.65937 0.25699 0.0
C686 C 0.53909 0.65917 0.1212 0.0
C687 C 0.55149 0.68123 0.12064 0.0
N688 N 0.56906 0.71363 0.18879 0.0
N689 N 0.51685 0.62829 0.19315 0.0
C690 C 0.55956 0.69235 0.18807 0.0
C691 C 0.53275 0.64851 0.19036 0.0
N692 N 0.56863 0.69093 0.31643 0.0
N693 N 0.53401 0.64829 0.05578 0.0
H694 H 0.5114 0.61996 0.24261 0.0
H695 H 0.50773 0.6204 0.14717 0.0
H696 H 0.53875 0.65548 0.00395 0.0
H697 H 0.52687 0.6321 0.05328 0.0
H698 H 0.58089 0.70629 0.31573 0.0
H699 H 0.56762 0.68315 0.366 0.0
H700 H 0.57322 0.72238 0.23763 0.0
H701 H 0.57097 0.72247 0.14118 0.0
C702 C 0.35143 0.89913 0.14702 0.0
C703 C 0.34349 0.89401 0.2205 0.0
C704 C 0.3078 0.87907 0.17312 0.0
C705 C 0.31584 0.88549 0.10029 0.0
N706 N 0.34533 0.90564 0.01998 0.0
N707 N 0.31471 0.88353 0.30549 0.0
C708 C 0.33769 0.89671 0.08781 0.0
C709 C 0.32183 0.88526 0.23419 0.0
N710 N 0.37189 0.90541 0.1332 0.0
N711 N 0.28687 0.86629 0.18375 0.0
H712 H 0.32453 0.88832 0.35176 0.0
H713 H 0.29938 0.87929 0.31835 0.0
H714 H 0.27605 0.86122 0.14047 0.0
H715 H 0.28041 0.85921 0.23451 0.0
H716 H 0.37797 0.9071 0.07978 0.0
H717 H 0.38244 0.90715 0.17489 0.0
H718 H 0.3611 0.9158 0.0099 0.0
H719 H 0.33575 0.90455 0.97558 0.0
C720 C 0.12133 0.44225 0.265 0.0
C721 C 0.11237 0.45528 0.2651 0.0
C722 C 0.11342 0.4565 0.12874 0.0
C723 C 0.12391 0.44489 0.129 0.0
N724 N 0.14143 0.43002 0.19729 0.0
N725 N 0.10342 0.47807 0.19878 0.0
C726 C 0.12885 0.43864 0.19714 0.0
C727 C 0.10937 0.46331 0.1974 0.0
N728 N 0.12196 0.43269 0.32926 0.0
N729 N 0.10662 0.46035 0.06311 0.0
H730 H 0.10052 0.48366 0.24796 0.0
H731 H 0.10319 0.48616 0.15174 0.0
H732 H 0.10922 0.45556 0.01164 0.0
H733 H 0.09686 0.46669 0.06007 0.0
H734 H 0.12612 0.42119 0.33107 0.0
H735 H 0.1166 0.43493 0.38009 0.0
H736 H 0.1474 0.42724 0.24565 0.0
H737 H 0.14751 0.42738 0.14886 0.0
C738 C 0.11665 0.67435 0.21146 0.0
C739 C 0.10792 0.65239 0.21035 0.0
C740 C 0.10679 0.65263 0.07401 0.0
C741 C 0.11766 0.67475 0.0751 0.0
N742 N 0.1361 0.70689 0.14447 0.0
N743 N 0.09746 0.62075 0.14108 0.0
C744 C 0.1234 0.68571 0.14374 0.0
C745 C 0.10365 0.64152 0.14174 0.0
N746 N 0.11785 0.6843 0.27693 0.0
N747 N 0.09886 0.64223 0.00857 0.0
H748 H 0.09512 0.61206 0.18944 0.0
H749 H 0.09637 0.61253 0.09271 0.0
H750 H 0.10065 0.64984 0.95794 0.0
H751 H 0.0889 0.62617 0.00543 0.0
H752 H 0.122 0.69995 0.27998 0.0
H753 H 0.11276 0.67648 0.32759 0.0
H754 H 0.14267 0.71542 0.19287 0.0
H755 H 0.14168 0.71583 0.09621 0.0
C756 C 0.33593 0.44532 0.24463 0.0
C757 C 0.35652 0.4623 0.23579 0.0
C758 C 0.3485 0.46719 0.10772 0.0
C759 C 0.32738 0.45157 0.1192 0.0
N760 N 0.30004 0.42883 0.20349 0.0
N761 N 0.38136 0.49199 0.16434 0.0
C762 C 0.3208 0.4415 0.18912 0.0
C763 C 0.36254 0.47398 0.16883 0.0
N764 N 0.33101 0.43223 0.30435 0.0
N765 N 0.35545 0.47487 0.03792 0.0
H766 H 0.39203 0.49762 0.20812 0.0
H767 H 0.38558 0.50233 0.11981 0.0
H768 H 0.34584 0.47018 0.9912 0.0
H769 H 0.37116 0.48446 0.0251 0.0
H770 H 0.31685 0.41837 0.30938 0.0
H771 H 0.34177 0.43407 0.34533 0.0
H772 H 0.29425 0.42282 0.25609 0.0
H773 H 0.28842 0.42601 0.16479 0.0
C774 C 0.57923 0.89723 0.2331 0.0
C775 C 0.55728 0.88633 0.24356 0.0
C776 C 0.55314 0.86302 0.14029 0.0
C777 C 0.57474 0.87533 0.12462 0.0
N778 N 0.60795 0.90612 0.14859 0.0
N779 N 0.52295 0.86134 0.19893 0.0
C780 C 0.58773 0.89296 0.1691 0.0
C781 C 0.54411 0.86987 0.19499 0.0
N782 N 0.59201 0.91112 0.28559 0.0
N783 N 0.54137 0.84439 0.10477 0.0
H784 H 0.51568 0.86624 0.2371 0.0
H785 H 0.51271 0.85086 0.15973 0.0
H786 H 0.54754 0.83862 0.06546 0.0
H787 H 0.52606 0.83372 0.11957 0.0
H788 H 0.60816 0.91775 0.28507 0.0
H789 H 0.58643 0.91465 0.33343 0.0
H790 H 0.61745 0.92045 0.1741 0.0
H791 H 0.61476 0.90361 0.1019 0.0
C792 C 0.23651 0.99786 0.93489 0.0
C793 C 0.21479 0.9835 0.93061 0.0
C794 C 0.20791 0.00333 0.0243 0.0
C795 C 0.2297 0.01683 0.03205 0.0
N796 N 0.26495 0.0253 0.00503 0.0
N797 N 0.17978 0.97085 0.97512 0.0
C798 C 0.24409 0.01375 0.98982 0.0
C799 C 0.20045 0.9857 0.97666 0.0
N800 N 0.24991 0.99627 0.88652 0.0
N801 N 0.1944 0.0078 0.06077 0.0
H802 H 0.17362 0.95825 0.93842 0.0
H803 H 0.16887 0.97023 0.01302 0.0
H804 H 0.19937 0.02055 0.09641 0.0
H805 H 0.17837 -0.0001 0.05183 0.0
H806 H 0.26548 0.00774 0.88046 0.0
H807 H 0.24525 0.98402 0.84886 0.0
H808 H 0.2761 0.02231 0.98216 0.0
H809 H 0.27107 0.03692 0.04558 0.0
C810 C 0.98152 0.19555 0.00327 0.0
C811 C 0.99187 0.20239 0.07263 0.0
C812 C 0.02481 0.22507 0.0086 0.0
C813 C 0.01383 0.22035 0.94014 0.0
N814 N 0.98171 0.20208 0.87097 0.0
N815 N 0.02278 0.22519 0.14311 0.0
C816 C 0.99216 0.20581 0.93703 0.0
C817 C 0.01344 0.21736 0.07591 0.0
N818 N 0.96171 0.17884 0.00084 0.0
N819 N 0.04607 0.23708 0.00936 0.0
H820 H 0.01504 0.22006 0.19382 0.0
H821 H 0.03776 0.23792 0.14869 0.0
H822 H 0.0549 0.24375 0.96158 0.0
H823 H 0.05513 0.23914 0.05636 0.0
H824 H 0.95394 0.17179 0.9517 0.0
H825 H 0.95372 0.17071 0.04843 0.0
H826 H 0.96554 0.19356 0.86646 0.0
H827 H 0.98918 0.20856 0.82068 0.0
C828 C 0.78716 0.8001 0.97535 0.0
C829 C 0.76583 0.78966 0.95511 0.0
C830 C 0.75847 0.76148 0.0424 0.0
C831 C 0.78018 0.77061 0.05592 0.0
N832 N 0.81559 0.79759 0.03192 0.0
N833 N 0.73122 0.75976 0.96294 0.0
C834 C 0.79467 0.78978 0.02205 0.0
C835 C 0.75145 0.7702 0.98709 0.0
N836 N 0.80014 0.81992 0.95025 0.0
N837 N 0.74454 0.74494 0.08445 0.0
H838 H 0.72528 0.766 0.92447 0.0
H839 H 0.72066 0.74439 0.97727 0.0
H840 H 0.74905 0.73827 0.12635 0.0
H841 H 0.72849 0.73901 0.08266 0.0
H842 H 0.8154 0.82923 0.96864 0.0
H843 H 0.79508 0.82773 0.91517 0.0
H844 H 0.82702 0.81028 0.00259 0.0
H845 H 0.82164 0.79043 0.06575 0.0
C846 C 0.78665 0.00512 0.89547 0.0
C847 C 0.77091 0.9842 0.90821 0.0
C848 C 0.76785 0.99218 0.03787 0.0
C849 C 0.78366 0.0132 0.02553 0.0
N850 N 0.81184 0.03834 0.94928 0.0
N851 N 0.75167 0.95641 0.9951 0.0
C852 C 0.79425 0.01926 0.95627 0.0
C853 C 0.76319 0.97728 0.98075 0.0
N854 N 0.7938 0.01163 0.82494 0.0
N855 N 0.7563 0.98666 0.1018 0.0
H856 H 0.74873 0.94521 0.95445 0.0
H857 H 0.74709 0.95028 0.04841 0.0
H858 H 0.75865 0.99709 0.14459 0.0
H859 H 0.74311 0.97208 0.10964 0.0
H860 H 0.80328 0.02721 0.81029 0.0
H861 H 0.78934 0.00139 0.78006 0.0
H862 H 0.82137 0.04292 0.90242 0.0
H863 H 0.81805 0.04888 0.99327 0.0
C864 C 0.02857 0.80733 0.04806 0.0
C865 C 0.02391 0.79556 0.9815 0.0
C866 C 0.99051 0.7689 0.03324 0.0
C867 C 0.99599 0.77975 0.10189 0.0
N868 N 0.02072 0.80806 0.17871 0.0
N869 N 0.00254 0.7634 0.91488 0.0
C870 C 0.0152 0.79862 0.11056 0.0
C871 C 0.00537 0.77593 0.97488 0.0
N872 N 0.04534 0.82711 0.05052 0.0
N873 N 0.97114 0.75182 0.02393 0.0
H874 H 0.01332 0.76761 0.87177 0.0
H875 H 0.99049 0.74801 0.91094 0.0
H876 H 0.96016 0.74553 0.06656 0.0
H877 H 0.96535 0.74477 0.97258 0.0
H878 H 0.04836 0.83737 0.09455 0.0
H879 H 0.05547 0.83397 0.00575 0.0
H880 H 0.0355 0.82044 0.19095 0.0
H881 H 0.01084 0.80274 0.22479 0.0
C882 C 0.22833 0.2205 0.01901 0.0
C883 C 0.22663 0.20053 0.01738 0.0
C884 C 0.20944 0.19368 0.89579 0.0
C885 C 0.20941 0.2128 0.90094 0.0
N886 N 0.21406 0.24178 0.97661 0.0
N887 N 0.21117 0.16621 0.96264 0.0
C888 C 0.2174 0.22542 0.96541 0.0
C889 C 0.21586 0.18653 0.95824 0.0
N890 N 0.24127 0.23526 0.06893 0.0
N891 N 0.20439 0.18284 0.83033 0.0
H892 H 0.21504 0.16021 0.00852 0.0
H893 H 0.20156 0.15486 0.92445 0.0
H894 H 0.20015 0.18776 0.78243 0.0
H895 H 0.20636 0.17003 0.8215 0.0
H896 H 0.24465 0.2507 0.06709 0.0
H897 H 0.25042 0.23279 0.10712 0.0
H898 H 0.21781 0.25021 0.02614 0.0
H899 H 0.20552 0.24552 0.93983 0.0
C900 C 0.88622 0.33306 0.40909 0.0
C901 C 0.88626 0.35223 0.40489 0.0
C902 C 0.86894 0.34217 0.28342 0.0
C903 C 0.86766 0.32247 0.2903 0.0
N904 N 0.87011 0.29721 0.36776 0.0
N905 N 0.87346 0.37305 0.34674 0.0
C906 C 0.87476 0.31731 0.35574 0.0
C907 C 0.87636 0.35622 0.34457 0.0
N908 N 0.89803 0.33025 0.4613 0.0
N909 N 0.86404 0.3479 0.21751 0.0
H910 H 0.87824 0.38341 0.39145 0.0
H911 H 0.86452 0.37556 0.30784 0.0
H912 H 0.85858 0.33812 0.17126 0.0
H913 H 0.86699 0.36296 0.20674 0.0
H914 H 0.90025 0.31742 0.46153 0.0
H915 H 0.90736 0.34163 0.49989 0.0
H916 H 0.87316 0.29213 0.4178 0.0
H917 H 0.86118 0.28514 0.33072 0.0
C918 C 0.6552 0.54482 0.2231 0.0
C919 C 0.67467 0.56297 0.23689 0.0
C920 C 0.66465 0.56382 0.3658 0.0
C921 C 0.64554 0.54505 0.35338 0.0
N922 N 0.62452 0.51522 0.27563 0.0
N923 N 0.70018 0.58625 0.32507 0.0
C924 C 0.64137 0.53478 0.28355 0.0
C925 C 0.6801 0.57137 0.30951 0.0
N926 N 0.64958 0.53768 0.15198 0.0
N927 N 0.66762 0.57516 0.42927 0.0
H928 H 0.71199 0.59155 0.28539 0.0
H929 H 0.70553 0.59157 0.37871 0.0
H930 H 0.65649 0.57073 0.4712 0.0
H931 H 0.68035 0.59006 0.43715 0.0
H932 H 0.63467 0.52596 0.13724 0.0
H933 H 0.65946 0.5445 0.10661 0.0
H934 H 0.62178 0.50611 0.22827 0.0
H935 H 0.61427 0.50728 0.31917 0.0
C936 C 0.42049 0.11241 0.37289 0.0
C937 C 0.43577 0.12496 0.31959 0.0
C938 C 0.45985 0.11473 0.37226 0.0
C939 C 0.44524 0.10382 0.42971 0.0
N940 N 0.414 0.09705 0.49542 0.0
N941 N 0.47147 0.14158 0.27772 0.0
C942 C 0.42626 0.1041 0.43335 0.0
C943 C 0.45594 0.12721 0.32206 0.0
N944 N 0.40017 0.10731 0.36364 0.0
N945 N 0.4769 0.1124 0.36319 0.0
H946 H 0.46924 0.15124 0.24111 0.0
H947 H 0.48698 0.14534 0.28252 0.0
H948 H 0.48005 0.10291 0.39726 0.0
H949 H 0.48685 0.11829 0.31756 0.0
H950 H 0.38811 0.09649 0.3971 0.0
H951 H 0.39499 0.11202 0.31772 0.0
H952 H 0.40107 0.09888 0.50353 0.0
H953 H 0.41796 0.09144 0.54222 0.0
C954 C 0.41782 0.32113 0.2598 0.0
C955 C 0.43164 0.32277 0.20213 0.0
C956 C 0.46118 0.35005 0.27176 0.0
C957 C 0.44706 0.34986 0.32536 0.0
N958 N 0.41177 0.33734 0.36663 0.0
N959 N 0.46599 0.34044 0.14754 0.0
C960 C 0.42532 0.33592 0.31857 0.0
C961 C 0.45324 0.3376 0.20671 0.0
N962 N 0.39767 0.305 0.25977 0.0
N963 N 0.48217 0.36183 0.28394 0.0
H964 H 0.46074 0.33171 0.09877 0.0
H965 H 0.48137 0.35255 0.14411 0.0
H966 H 0.48845 0.37117 0.33097 0.0
H967 H 0.49329 0.361 0.251 0.0
H968 H 0.38754 0.30157 0.30452 0.0
H969 H 0.39152 0.29388 0.21756 0.0
H970 H 0.39567 0.32935 0.35913 0.0
H971 H 0.41664 0.34774 0.41124 0.0
C972 C 0.67339 0.13117 0.33089 0.0
C973 C 0.67471 0.11626 0.28527 0.0
C974 C 0.64419 0.08794 0.34619 0.0
C975 C 0.64211 0.10287 0.38908 0.0
N976 N 0.65218 0.13864 0.41432 0.0
N977 N 0.6586 0.0813 0.23581 0.0
C978 C 0.65597 0.12452 0.37902 0.0
C979 C 0.65926 0.09488 0.28875 0.0
N980 N 0.68915 0.15149 0.33016 0.0
N981 N 0.63258 0.06717 0.36286 0.0
H982 H 0.66921 0.08584 0.19195 0.0
H983 H 0.64634 0.06601 0.2311 0.0
H984 H 0.6217 0.06139 0.40587 0.0
H985 H 0.63512 0.05586 0.33868 0.0
H986 H 0.69023 0.16266 0.36785 0.0
H987 H 0.70204 0.15691 0.29507 0.0
H988 H 0.66049 0.1546 0.40375 0.0
H989 H 0.63951 0.13421 0.44986 0.0
C990 C 0.9071 0.56521 0.36069 0.0
C991 C 0.90323 0.54443 0.35534 0.0
C992 C 0.89241 0.54271 0.22554 0.0
C993 C 0.89427 0.56263 0.23355 0.0
N994 N 0.9006 0.59182 0.31094 0.0
N995 N 0.88903 0.51207 0.2874 0.0
C996 C 0.90062 0.5735 0.30203 0.0
C997 C 0.89505 0.53279 0.28895 0.0
N998 N 0.91813 0.57753 0.41955 0.0
N999 N 0.88841 0.53341 0.1572 0.0
H1000 H 0.8904 0.50418 0.3332 0.0
H1001 H 0.88097 0.50225 0.24312 0.0
H1002 H 0.88593 0.54005 0.10995 0.0
H1003 H 0.88913 0.51998 0.14613 0.0
H1004 H 0.92337 0.59344 0.42217 0.0
H1005 H 0.92394 0.57246 0.46259 0.0
H1006 H 0.90266 0.59916 0.36221 0.0
H1007 H 0.897 0.59895 0.26799 0.0
C1008 C 0.52909 0.64582 0.70179 0.0
C1009 C 0.54257 0.64387 0.65053 0.0
C1010 C 0.57301 0.67004 0.71919 0.0
C1011 C 0.55957 0.67056 0.77423 0.0
N1012 N 0.52496 0.65683 0.82457 0.0
N1013 N 0.57712 0.65084 0.61812 0.0
C1014 C 0.53762 0.6579 0.76735 0.0
C1015 C 0.56448 0.65509 0.66122 0.0
N1016 N 0.50826 0.63669 0.6866 0.0
N1017 N 0.59386 0.68435 0.72057 0.0
H1018 H 0.57151 0.6397 0.57587 0.0
H1019 H 0.59294 0.6569 0.62886 0.0
H1020 H 0.60076 0.69572 0.76172 0.0
H1021 H 0.60398 0.68622 0.67721 0.0
H1022 H 0.49798 0.63938 0.71767 0.0
H1023 H 0.50149 0.62774 0.63909 0.0
H1024 H 0.50904 0.64617 0.82634 0.0
H1025 H 0.53064 0.66543 0.87347 0.0
C1026 C 0.32612 0.86252 0.65116 0.0
C1027 C 0.31904 0.87475 0.68792 0.0
C1028 C 0.34495 0.90602 0.62253 0.0
C1029 C 0.3532 0.89418 0.59039 0.0
N1030 N 0.35348 0.86191 0.57861 0.0
N1031 N 0.3232 0.9084 0.71802 0.0
C1032 C 0.34425 0.87258 0.60569 0.0
C1033 C 0.32889 0.89659 0.6763 0.0
N1034 N 0.31525 0.84131 0.65867 0.0
N1035 N 0.35185 0.92602 0.59921 0.0
H1036 H 0.31113 0.90207 0.75685 0.0
H1037 H 0.33147 0.92464 0.71849 0.0
H1038 H 0.36351 0.93353 0.55938 0.0
H1039 H 0.34479 0.93461 0.61424 0.0
H1040 H 0.31824 0.83125 0.6275 0.0
H1041 H 0.30218 0.83358 0.6929 0.0
H1042 H 0.34907 0.84669 0.5938 0.0
H1043 H 0.36664 0.8688 0.54454 0.0
C1044 C 0.11198 0.42289 0.69175 0.0
C1045 C 0.1064 0.42759 0.76157 0.0
C1046 C 0.09103 0.44621 0.69922 0.0
C1047 C 0.09419 0.43916 0.6296 0.0
N1048 N 0.10702 0.42045 0.55783 0.0
N1049 N 0.09025 0.44306 0.83385 0.0
C1050 C 0.10462 0.42751 0.62534 0.0
C1051 C 0.09594 0.43921 0.7659 0.0
N1052 N 0.12438 0.41407 0.68908 0.0
N1053 N 0.08339 0.45961 0.7015 0.0
H1054 H 0.09457 0.43914 0.8839 0.0
H1055 H 0.08039 0.44915 0.841 0.0
H1056 H 0.07917 0.46468 0.65399 0.0
H1057 H 0.08267 0.46702 0.74966 0.0
H1058 H 0.13076 0.41212 0.6403 0.0
H1059 H 0.12966 0.41006 0.73659 0.0
H1060 H 0.11213 0.40977 0.5513 0.0
H1061 H 0.10287 0.42451 0.50773 0.0
C1062 C 0.09067 0.67472 0.67022 0.0
C1063 C 0.11245 0.6879 0.67939 0.0
C1064 C 0.11895 0.67543 0.56181 0.0
C1065 C 0.09724 0.66122 0.55507 0.0
N1066 N 0.06276 0.64453 0.60905 0.0
N1067 N 0.14762 0.69866 0.64195 0.0
C1068 C 0.08316 0.66009 0.61094 0.0
C1069 C 0.1267 0.68762 0.62752 0.0
N1070 N 0.07712 0.6766 0.71688 0.0
N1071 N 0.13202 0.67798 0.50402 0.0
H1072 H 0.15378 0.70779 0.68951 0.0
H1073 H 0.15871 0.6974 0.61035 0.0
H1074 H 0.12688 0.6695 0.45467 0.0
H1075 H 0.14759 0.68968 0.5022 0.0
H1076 H 0.06112 0.66933 0.70746 0.0
H1077 H 0.08198 0.68666 0.76248 0.0
H1078 H 0.05235 0.64144 0.65262 0.0
H1079 H 0.05654 0.63348 0.5667 0.0
C1080 C 0.32533 0.45116 0.71379 0.0
C1081 C 0.33255 0.44671 0.78066 0.0
C1082 C 0.3682 0.46427 0.73201 0.0
C1083 C 0.36119 0.46998 0.66741 0.0
N1084 N 0.3342 0.47361 0.60603 0.0
N1085 N 0.36151 0.45375 0.86105 0.0
C1086 C 0.34008 0.46493 0.66129 0.0
C1087 C 0.3542 0.45473 0.79219 0.0
N1088 N 0.30448 0.44134 0.69813 0.0
N1089 N 0.38776 0.46675 0.73461 0.0
H1090 H 0.35183 0.44724 0.9071 0.0
H1091 H 0.37733 0.46132 0.87418 0.0
H1092 H 0.39852 0.47326 0.69148 0.0
H1093 H 0.39267 0.46057 0.77694 0.0
H1094 H 0.29862 0.44243 0.64666 0.0
H1095 H 0.29309 0.43043 0.73344 0.0
H1096 H 0.31942 0.47202 0.6032 0.0
H1097 H 0.34475 0.48424 0.56772 0.0
C1098 C 0.55023 0.87591 0.69486 0.0
C1099 C 0.56653 0.8712 0.68821 0.0
C1100 C 0.57347 0.88522 0.56164 0.0
C1101 C 0.55954 0.89288 0.57293 0.0
N1102 N 0.53686 0.89823 0.65529 0.0
N1103 N 0.59641 0.87507 0.61983 0.0
C1104 C 0.54839 0.88888 0.64076 0.0
C1105 C 0.57886 0.87673 0.62268 0.0
N1106 N 0.53619 0.86756 0.75176 0.0
N1107 N 0.58105 0.88541 0.49215 0.0
H1108 H 0.60154 0.86973 0.66414 0.0
H1109 H 0.60706 0.88102 0.57615 0.0
H1110 H 0.57681 0.89074 0.44527 0.0
H1111 H 0.58966 0.87817 0.47977 0.0
H1112 H 0.52284 0.86886 0.75518 0.0
H1113 H 0.5367 0.8575 0.79127 0.0
H1114 H 0.53024 0.89756 0.70707 0.0
H1115 H 0.53553 0.90832 0.61811 0.0
C1116 C 0.34314 0.1091 0.08934 0.0
C1117 C 0.35624 0.11758 0.15248 0.0
C1118 C 0.32551 0.10428 0.23333 0.0
C1119 C 0.31256 0.09414 0.1712 0.0
N1120 N 0.30899 0.08412 0.04195 0.0
N1121 N 0.36019 0.12062 0.28612 0.0
C1122 C 0.32136 0.09577 0.09966 0.0
C1123 C 0.34751 0.11446 0.22496 0.0
N1124 N 0.35136 0.11458 0.01937 0.0
N1125 N 0.31683 0.10502 0.2996 0.0
H1126 H 0.37639 0.12844 0.28277 0.0
H1127 H 0.35466 0.11646 0.34028 0.0
H1128 H 0.30079 0.09794 0.30797 0.0
H1129 H 0.32551 0.11421 0.34431 0.0
H1130 H 0.3423 0.11072 0.97137 0.0
H1131 H 0.36717 0.12469 0.00937 0.0
H1132 H 0.31483 0.08278 0.99084 0.0
H1133 H 0.29293 0.07434 0.047 0.0
C1134 C 0.88785 0.23075 0.17382 0.0
C1135 C 0.89882 0.25226 0.19261 0.0
C1136 C 0.93066 0.25064 0.21559 0.0
C1137 C 0.91952 0.22902 0.19883 0.0
N1138 N 0.88699 0.19755 0.17473 0.0
N1139 N 0.92949 0.28221 0.24164 0.0
C1140 C 0.89796 0.21881 0.18127 0.0
C1141 C 0.91986 0.26203 0.21704 0.0
N1142 N 0.86775 0.22177 0.1487 0.0
N1143 N 0.95175 0.26046 0.22644 0.0
H1144 H 0.92251 0.29143 0.23974 0.0
H1145 H 0.9439 0.28949 0.2683 0.0
H1146 H 0.96016 0.25261 0.22637 0.0
H1147 H 0.96124 0.27656 0.23037 0.0
H1148 H 0.85973 0.20699 0.12498 0.0
H1149 H 0.85925 0.22951 0.14829 0.0
H1150 H 0.87085 0.18882 0.17001 0.0
H1151 H 0.89387 0.18829 0.17994 0.0
C1152 C 0.74722 0.65288 0.21799 0.0
C1153 C 0.7517 0.64512 0.15262 0.0
C1154 C 0.77828 0.68063 0.11832 0.0
C1155 C 0.77593 0.68784 0.18882 0.0
N1156 N 0.76015 0.68019 0.31084 0.0
N1157 N 0.77384 0.65121 0.04573 0.0
C1158 C 0.76085 0.67383 0.24003 0.0
C1159 C 0.7678 0.65889 0.10383 0.0
N1160 N 0.72958 0.6404 0.25778 0.0
N1161 N 0.78995 0.69458 0.06413 0.0
H1162 H 0.7668 0.63538 0.03315 0.0
H1163 H 0.7871 0.66041 0.01396 0.0
H1164 H 0.7974 0.71068 0.07168 0.0
H1165 H 0.79043 0.69022 0.00938 0.0
H1166 H 0.72445 0.64578 0.30194 0.0
H1167 H 0.71887 0.62522 0.24152 0.0
H1168 H 0.75096 0.66999 0.35269 0.0
H1169 H 0.77013 0.69527 0.32995 0.0
C1170 C 0.08999 0.31381 0.91439 0.0
C1171 C 0.08738 0.30644 0.84007 0.0
C1172 C 0.10145 0.34215 0.79484 0.0
C1173 C 0.1072 0.34975 0.86852 0.0
N1174 N 0.11048 0.34252 0.99763 0.0
N1175 N 0.09513 0.31449 0.70933 0.0
C1176 C 0.10238 0.33553 0.92834 0.0
C1177 C 0.09427 0.32082 0.78001 0.0
N1178 N 0.08013 0.30021 0.97155 0.0
N1179 N 0.10221 0.35511 0.73925 0.0
H1180 H 0.09125 0.29927 0.6961 0.0
H1181 H 0.10196 0.32489 0.66529 0.0
H1182 H 0.10635 0.3706 0.7486 0.0
H1183 H 0.0964 0.3498 0.68599 0.0
H1184 H 0.08002 0.3051 0.02584 0.0
H1185 H 0.07016 0.28429 0.96335 0.0
H1186 H 0.10905 0.33253 0.04093 0.0
H1187 H 0.12045 0.35821 0.00995 0.0
C1188 C 0.66939 0.76907 0.74545 0.0
C1189 C 0.68421 0.77853 0.80348 0.0
C1190 C 0.65595 0.76829 0.89367 0.0
C1191 C 0.64116 0.7571 0.83707 0.0
N1192 N 0.63404 0.74327 0.71207 0.0
N1193 N 0.69157 0.78273 0.9353 0.0
C1194 C 0.64793 0.75646 0.7637 0.0
C1195 C 0.67749 0.77686 0.87837 0.0
N1196 N 0.67563 0.77284 0.67279 0.0
N1197 N 0.64957 0.77165 0.96103 0.0
H1198 H 0.70744 0.78848 0.92674 0.0
H1199 H 0.6872 0.77981 0.99104 0.0
H1200 H 0.63398 0.76633 0.97394 0.0
H1201 H 0.65989 0.78157 0.00129 0.0
H1202 H 0.66522 0.76819 0.62834 0.0
H1203 H 0.69114 0.78227 0.65692 0.0
H1204 H 0.63852 0.74054 0.66028 0.0
H1205 H 0.61825 0.7335 0.72343 0.0
C1206 C 0.22966 0.90457 0.87405 0.0
C1207 C 0.22576 0.90879 0.80052 0.0
C1208 C 0.24723 0.89492 0.75138 0.0
C1209 C 0.24837 0.88783 0.82357 0.0
N1210 N 0.23825 0.88342 0.95295 0.0
N1211 N 0.22818 0.90497 0.66789 0.0
C1212 C 0.23907 0.8921 0.88499 0.0
C1213 C 0.23396 0.90331 0.73869 0.0
N1214 N 0.22496 0.91299 0.93344 0.0
N1215 N 0.25923 0.89409 0.69526 0.0
H1216 H 0.21798 0.91042 0.6558 0.0
H1217 H 0.23191 0.89904 0.62153 0.0
H1218 H 0.26957 0.88858 0.70324 0.0
H1219 H 0.26059 0.90091 0.64333 0.0
H1220 H 0.22936 0.91215 0.98781 0.0
H1221 H 0.21855 0.92264 0.9276 0.0
H1222 H 0.22955 0.88407 0.99734 0.0
H1223 H 0.24477 0.87404 0.96343 0.0
C1224 C 0.67851 0.88971 0.77004 0.0
C1225 C 0.69254 0.90439 0.82219 0.0
C1226 C 0.66379 0.89458 0.90997 0.0
C1227 C 0.64951 0.88143 0.855 0.0
N1228 N 0.6429 0.87028 0.72656 0.0
N1229 N 0.69796 0.92411 0.93499 0.0
C1230 C 0.65674 0.88004 0.78322 0.0
C1231 C 0.68503 0.90777 0.89036 0.0
N1232 N 0.68591 0.88432 0.70936 0.0
N1233 N 0.65728 0.89392 0.98159 0.0
H1234 H 0.71339 0.93456 0.9209 0.0
H1235 H 0.69283 0.92857 0.9817 0.0
H1236 H 0.64195 0.88414 0.99871 0.0
H1237 H 0.66749 0.90158 0.02545 0.0
H1238 H 0.67638 0.87205 0.67406 0.0
H1239 H 0.70177 0.89072 0.69818 0.0
H1240 H 0.64746 0.87078 0.67142 0.0
H1241 H 0.62682 0.86354 0.73294 0.0
C1242 C 0.08562 0.76773 0.75878 0.0
C1243 C 0.09069 0.78582 0.80124 0.0
C1244 C 0.11452 0.77979 0.8783 0.0
C1245 C 0.10871 0.76121 0.83806 0.0
N1246 N 0.08574 0.73512 0.75044 0.0
N1247 N 0.10604 0.80635 0.91197 0.0
C1248 C 0.0932 0.75436 0.78187 0.0
C1249 C 0.10408 0.79113 0.86398 0.0
N1250 N 0.07458 0.76394 0.69405 0.0
N1251 N 0.13014 0.7867 0.92996 0.0
H1252 H 0.0982 0.81463 0.90483 0.0
H1253 H 0.11383 0.80943 0.9627 0.0
H1254 H 0.13708 0.77805 0.94607 0.0
H1255 H 0.13698 0.80147 0.95392 0.0
H1256 H 0.07239 0.75232 0.65648 0.0
H1257 H 0.06915 0.77359 0.67414 0.0
H1258 H 0.07291 0.72836 0.71494 0.0
H1259 H 0.09117 0.72505 0.76491 0.0
C1260 C 0.24161 0.33069 0.74939 0.0
C1261 C 0.23342 0.31557 0.8071 0.0
C1262 C 0.24397 0.34338 0.89928 0.0
C1263 C 0.25398 0.35854 0.8426 0.0
N1264 N 0.26691 0.36623 0.71647 0.0
N1265 N 0.23261 0.30808 0.93831 0.0
C1266 C 0.25422 0.35209 0.76839 0.0
C1267 C 0.23642 0.32209 0.88252 0.0
N1268 N 0.23654 0.3249 0.67678 0.0
N1269 N 0.24047 0.34897 0.96791 0.0
H1270 H 0.22806 0.2925 0.92823 0.0
H1271 H 0.23634 0.3125 0.99377 0.0
H1272 H 0.24446 0.36418 0.98176 0.0
H1273 H 0.23144 0.33808 0.00833 0.0
H1274 H 0.24042 0.33565 0.63372 0.0
H1275 H 0.2267 0.30954 0.66019 0.0
H1276 H 0.26906 0.36194 0.66344 0.0
H1277 H 0.27702 0.3819 0.7289 0.0
C1278 C 0.90671 0.67979 0.25243 0.0
C1279 C 0.91097 0.69374 0.19215 0.0
C1280 C 0.89542 0.66415 0.10581 0.0
C1281 C 0.89329 0.65048 0.16488 0.0
N1282 N 0.90143 0.64626 0.29164 0.0
N1283 N 0.91401 0.6995 0.05925 0.0
C1284 C 0.90028 0.65859 0.23744 0.0
C1285 C 0.9067 0.68602 0.11812 0.0
N1286 N 0.90777 0.68644 0.32408 0.0
N1287 N 0.88575 0.65639 0.03911 0.0
H1288 H 0.92296 0.71562 0.06557 0.0
H1289 H 0.91309 0.69454 0.0044 0.0
H1290 H 0.87649 0.6405 0.02829 0.0
H1291 H 0.88508 0.66577 0.9972 0.0
H1292 H 0.90271 0.67634 0.3695 0.0
H1293 H 0.91161 0.70163 0.33778 0.0
H1294 H 0.90841 0.65199 0.34319 0.0
H1295 H 0.89744 0.63082 0.28246 0.0
C1296 C 0.34072 0.22213 0.07041 0.0
C1297 C 0.35485 0.23386 0.12806 0.0
C1298 C 0.32585 0.22086 0.21675 0.0
C1299 C 0.31158 0.21106 0.15739 0.0
N1300 N 0.30522 0.20555 0.02532 0.0
N1301 N 0.36063 0.24722 0.25366 0.0
C1302 C 0.31895 0.21255 0.08349 0.0
C1303 C 0.34737 0.234 0.20066 0.0
N1304 N 0.34805 0.21932 0.00415 0.0
N1305 N 0.31903 0.21692 0.28878 0.0
H1306 H 0.37651 0.2571 0.24443 0.0
H1307 H 0.35559 0.24974 0.30466 0.0
H1308 H 0.30346 0.20706 0.30315 0.0
H1309 H 0.32905 0.22181 0.3344 0.0
H1310 H 0.33842 0.20907 0.96319 0.0
H1311 H 0.36388 0.22557 0.99289 0.0
H1312 H 0.30987 0.20833 0.96983 0.0
H1313 H 0.28915 0.1987 0.03225 0.0
C1314 C 0.74567 0.08998 0.08711 0.0
C1315 C 0.75095 0.10836 0.12797 0.0
C1316 C 0.77402 0.10225 0.20878 0.0
C1317 C 0.76912 0.08417 0.16684 0.0
N1318 N 0.74677 0.05778 0.07962 0.0
N1319 N 0.76592 0.12942 0.23755 0.0
C1320 C 0.75373 0.07702 0.11036 0.0
C1321 C 0.76389 0.11374 0.19186 0.0
N1322 N 0.73381 0.08548 0.02414 0.0
N1323 N 0.78865 0.10858 0.26397 0.0
H1324 H 0.75847 0.13794 0.22726 0.0
H1325 H 0.77348 0.13288 0.28876 0.0
H1326 H 0.79482 0.09943 0.2824 0.0
H1327 H 0.79515 0.12306 0.28989 0.0
H1328 H 0.73135 0.07365 0.98716 0.0
H1329 H 0.72746 0.09449 0.00591 0.0
H1330 H 0.73428 0.05077 0.04277 0.0
H1331 H 0.75225 0.04791 0.09656 0.0
C1332 C 0.00819 0.4292 0.59021 0.0
C1333 C 0.01688 0.43975 0.52231 0.0
C1334 C 0.98201 0.43049 0.47797 0.0
C1335 C 0.97377 0.42246 0.54946 0.0
N1336 N 0.97977 0.41741 0.67804 0.0
N1337 N 0.01255 0.4537 0.40629 0.0
C1338 C 0.98703 0.42257 0.60682 0.0
C1339 C 0.00394 0.44122 0.46719 0.0
N1340 N 0.01999 0.425 0.638 0.0
N1341 N 0.9689 0.42728 0.41961 0.0
H1342 H 0.02855 0.46219 0.39651 0.0
H1343 H 0.00395 0.45717 0.36898 0.0
H1344 H 0.95271 0.41906 0.42467 0.0
H1345 H 0.97401 0.43091 0.36477 0.0
H1346 H 0.01387 0.41551 0.68469 0.0
H1347 H 0.03545 0.42925 0.62707 0.0
H1348 H 0.98938 0.4194 0.72332 0.0
H1349 H 0.96455 0.41304 0.69334 0.0
C1350 C 0.58252 0.56832 0.45795 0.0
C1351 C 0.57427 0.5522 0.51197 0.0
C1352 C 0.54591 0.55931 0.53748 0.0
C1353 C 0.55231 0.57307 0.4756 0.0
N1354 N 0.57535 0.58895 0.37094 0.0
N1355 N 0.54768 0.53144 0.60158 0.0
C1356 C 0.5704 0.57732 0.43462 0.0
C1357 C 0.55583 0.54744 0.55133 0.0
N1358 N 0.60189 0.57503 0.42888 0.0
N1359 N 0.53101 0.55829 0.58497 0.0
H1360 H 0.55532 0.52343 0.61732 0.0
H1361 H 0.53289 0.52542 0.62479 0.0
H1362 H 0.52391 0.56731 0.57826 0.0
H1363 H 0.52716 0.55013 0.63504 0.0
H1364 H 0.60958 0.5881 0.39483 0.0
H1365 H 0.61119 0.56878 0.44453 0.0
H1366 H 0.58697 0.59061 0.33428 0.0
H1367 H 0.56665 0.59546 0.35089 0.0
C1368 C 0.44488 0.00933 0.57388 0.0
C1369 C 0.45034 0.02416 0.51586 0.0
C1370 C 0.43641 0.99596 0.42388 0.0
C1371 C 0.42888 0.9811 0.48243 0.0
N1372 N 0.42201 0.97383 0.6136 0.0
N1373 N 0.44725 0.03137 0.38685 0.0
C1374 C 0.43198 0.98783 0.55763 0.0
C1375 C 0.44496 0.01743 0.44109 0.0
N1376 N 0.45275 0.01563 0.64391 0.0
N1377 N 0.43634 0.98978 0.35218 0.0
H1378 H 0.45288 0.04714 0.39742 0.0
H1379 H 0.44158 0.02689 0.33294 0.0
H1380 H 0.43084 0.97429 0.33718 0.0
H1381 H 0.44366 0.00025 0.3087 0.0
H1382 H 0.45098 0.00524 0.68622 0.0
H1383 H 0.46288 0.03117 0.65785 0.0
H1384 H 0.42204 0.97824 0.66866 0.0
H1385 H 0.41192 0.95802 0.60398 0.0
C1386 C 0.57431 0.00488 0.58936 0.0
C1387 C 0.57617 0.01927 0.53351 0.0
C1388 C 0.56067 0.99094 0.44199 0.0
C1389 C 0.56012 0.9768 0.49659 0.0
N1390 N 0.57106 0.97135 0.61688 0.0
N1391 N 0.57596 0.02686 0.40285 0.0
C1392 C 0.56834 0.98409 0.56875 0.0
C1393 C 0.57079 0.01256 0.45867 0.0
N1394 N 0.57722 0.01071 0.66252 0.0
N1395 N 0.55064 0.98375 0.37544 0.0
H1396 H 0.58364 0.04288 0.41221 0.0
H1397 H 0.57454 0.02297 0.34662 0.0
H1398 H 0.54298 0.9681 0.36016 0.0
H1399 H 0.54837 0.99313 0.33778 0.0
H1400 H 0.57384 0.00022 0.7061 0.0
H1401 H 0.58117 0.02564 0.68031 0.0
H1402 H 0.5789 0.97647 0.66742 0.0
H1403 H 0.56743 0.95622 0.60299 0.0
C1404 C 0.99159 0.54886 0.56406 0.0
C1405 C 0.97751 0.55466 0.53401 0.0
C1406 C 0.00687 0.58657 0.48317 0.0
C1407 C 0.02062 0.57941 0.50496 0.0
N1408 N 0.02562 0.55198 0.55566 0.0
N1409 N 0.9714 0.57724 0.4535 0.0
C1410 C 0.0129 0.5601 0.54285 0.0
C1411 C 0.98503 0.57308 0.49068 0.0
N1412 N 0.98474 0.53302 0.61479 0.0
N1413 N 0.01465 0.60649 0.45761 0.0
H1414 H 0.95528 0.5676 0.45589 0.0
H1415 H 0.97612 0.58921 0.41466 0.0
H1416 H 0.03058 0.61699 0.45249 0.0
H1417 H 0.00542 0.61324 0.44848 0.0
H1418 H 0.99472 0.52953 0.64434 0.0
H1419 H 0.96931 0.52469 0.63293 0.0
H1420 H 0.02019 0.53688 0.57524 0.0
H1421 H 0.04129 0.55951 0.54041 0.0
C1422 C 0.42993 0.44412 0.42182 0.0
C1423 C 0.42241 0.44836 0.48834 0.0
C1424 C 0.43543 0.4291 0.5601 0.0
C1425 C 0.4411 0.42317 0.49287 0.0
N1426 N 0.4392 0.42105 0.3588 0.0
N1427 N 0.41332 0.44044 0.618 0.0
C1428 C 0.437 0.4295 0.42336 0.0
C1429 C 0.42377 0.43954 0.55676 0.0
N1430 N 0.43129 0.45475 0.35791 0.0
N1431 N 0.44202 0.42577 0.62711 0.0
H1432 H 0.40388 0.44718 0.61707 0.0
H1433 H 0.41219 0.43251 0.66725 0.0
H1434 H 0.45122 0.41883 0.63233 0.0
H1435 H 0.44013 0.43181 0.67697 0.0
H1436 H 0.43869 0.45379 0.31004 0.0
H1437 H 0.42695 0.46612 0.3547 0.0
H1438 H 0.43442 0.42356 0.30718 0.0
H1439 H 0.44372 0.4098 0.35771 0.0
C1440 C 0.21847 0.09391 0.16461 0.0
C1441 C 0.21848 0.08675 0.23774 0.0
C1442 C 0.21558 0.11582 0.28914 0.0
C1443 C 0.21894 0.12466 0.21698 0.0
N1444 N 0.22518 0.12319 0.08594 0.0
N1445 N 0.21842 0.09129 0.37071 0.0
C1446 C 0.22052 0.11388 0.15438 0.0
C1447 C 0.21708 0.09762 0.30045 0.0
N1448 N 0.21622 0.08146 0.1051 0.0
N1449 N 0.21075 0.12477 0.34654 0.0
H1450 H 0.21939 0.07797 0.38148 0.0
H1451 H 0.22002 0.1 0.41826 0.0
H1452 H 0.20947 0.13808 0.33973 0.0
H1453 H 0.20614 0.118 0.39895 0.0
H1454 H 0.2141 0.08491 0.05074 0.0
H1455 H 0.21447 0.06664 0.111 0.0
H1456 H 0.22899 0.11718 0.04006 0.0
H1457 H 0.22675 0.13778 0.07604 0.0
C1458 C 0.85956 0.11596 0.23014 0.0
C1459 C 0.85847 0.0979 0.19782 0.0
C1460 C 0.89559 0.11812 0.16545 0.0
C1461 C 0.89679 0.1358 0.2008 0.0
N1462 N 0.88116 0.1508 0.27894 0.0
N1463 N 0.87627 0.08056 0.1501 0.0
C1464 C 0.87921 0.13441 0.23755 0.0
C1465 C 0.87675 0.09863 0.16978 0.0
N1466 N 0.84173 0.11606 0.24905 0.0
N1467 N 0.91239 0.12002 0.12712 0.0
H1468 H 0.8629 0.06593 0.15476 0.0
H1469 H 0.8895 0.07978 0.1361 0.0
H1470 H 0.9268 0.13375 0.12622 0.0
H1471 H 0.91171 0.1084 0.09265 0.0
H1472 H 0.84138 0.1295 0.2634 0.0
H1473 H 0.82694 0.1031 0.24432 0.0
H1474 H 0.86955 0.14971 0.31445 0.0
H1475 H 0.89491 0.16511 0.28253 0.0
C1476 C 0.90059 0.78734 0.30166 0.0
C1477 C 0.90517 0.78033 0.23468 0.0
C1478 C 0.87337 0.77644 0.17781 0.0
C1479 C 0.86738 0.78058 0.2478 0.0
N1480 N 0.87415 0.7881 0.37876 0.0
N1481 N 0.89492 0.76579 0.11135 0.0
C1482 C 0.88077 0.78575 0.31036 0.0
C1483 C 0.89139 0.7744 0.17303 0.0
N1484 N 0.91538 0.7959 0.35623 0.0
N1485 N 0.86204 0.7749 0.11562 0.0
H1486 H 0.90789 0.76391 0.10552 0.0
H1487 H 0.88413 0.75892 0.06846 0.0
H1488 H 0.84888 0.77661 0.11698 0.0
H1489 H 0.86679 0.77399 0.06191 0.0
H1490 H 0.9138 0.8032 0.40326 0.0
H1491 H 0.93012 0.79743 0.35122 0.0
H1492 H 0.88219 0.78946 0.42789 0.0
H1493 H 0.85978 0.78713 0.38735 0.0
C1494 C 0.1239 0.25527 0.74908 0.0
C1495 C 0.10577 0.23592 0.76548 0.0
C1496 C 0.12711 0.2194 0.78212 0.0
C1497 C 0.14517 0.23863 0.76427 0.0
N1498 N 0.16044 0.27373 0.71581 0.0
N1499 N 0.08932 0.19872 0.78104 0.0
C1500 C 0.14343 0.25613 0.7423 0.0
C1501 C 0.10715 0.21771 0.77715 0.0
N1502 N 0.12282 0.27316 0.74515 0.0
N1503 N 0.12907 0.20281 0.80451 0.0
H1504 H 0.07448 0.19694 0.77609 0.0
H1505 H 0.08915 0.18458 0.78226 0.0
H1506 H 0.14322 0.20296 0.8036 0.0
H1507 H 0.11691 0.18926 0.82738 0.0
H1508 H 0.13587 0.28804 0.74366 0.0
H1509 H 0.10897 0.27348 0.74935 0.0
H1510 H 0.1595 0.28585 0.69018 0.0
H1511 H 0.17537 0.27573 0.71382 0.0
C1512 C 0.77754 0.87351 0.79892 0.0
C1513 C 0.78062 0.86557 0.73139 0.0
C1514 C 0.78826 0.8978 0.66689 0.0
C1515 C 0.78204 0.90423 0.73152 0.0
N1516 N 0.77042 0.8986 0.85908 0.0
N1517 N 0.78856 0.8694 0.60036 0.0
C1518 C 0.77676 0.89228 0.79785 0.0
C1519 C 0.78624 0.87765 0.66528 0.0
N1520 N 0.77584 0.86329 0.86419 0.0
N1521 N 0.79596 0.91095 0.60721 0.0
H1522 H 0.78762 0.85488 0.5976 0.0
H1523 H 0.79028 0.87633 0.5485 0.0
H1524 H 0.79722 0.92564 0.60652 0.0
H1525 H 0.80258 0.90811 0.56084 0.0
H1526 H 0.77546 0.86917 0.91639 0.0
H1527 H 0.77681 0.84972 0.86665 0.0
H1528 H 0.76386 0.88934 0.90597 0.0
H1529 H 0.77072 0.91283 0.86164 0.0
C1530 C 0.13123 0.89758 0.83685 0.0
C1531 C 0.13479 0.91055 0.77417 0.0
C1532 C 0.09859 0.88825 0.73389 0.0
C1533 C 0.09579 0.8741 0.79195 0.0
N1534 N 0.1101 0.86357 0.89274 0.0
N1535 N 0.1229 0.91787 0.65932 0.0
C1536 C 0.11223 0.87835 0.84224 0.0
C1537 C 0.11871 0.90589 0.72182 0.0
N1538 N 0.14584 0.90389 0.89211 0.0
N1539 N 0.0819 0.88501 0.69146 0.0
H1540 H 0.13733 0.93113 0.64957 0.0
H1541 H 0.1126 0.91399 0.61487 0.0
H1542 H 0.06701 0.87218 0.69881 0.0
H1543 H 0.08235 0.89576 0.65312 0.0
H1544 H 0.14325 0.89622 0.94291 0.0
H1545 H 0.15994 0.91793 0.89003 0.0
H1546 H 0.12239 0.86475 0.92461 0.0
H1547 H 0.09645 0.84924 0.89876 0.0
C1548 C 0.89079 0.4374 0.52392 0.0
C1549 C 0.88265 0.42418 0.58684 0.0
C1550 C 0.87515 0.44931 0.64774 0.0
C1551 C 0.88306 0.46242 0.58431 0.0
N1552 N 0.89361 0.46696 0.45566 0.0
N1553 N 0.8634 0.41514 0.70182 0.0
C1554 C 0.88945 0.45585 0.5204 0.0
C1555 C 0.87352 0.42933 0.64643 0.0
N1556 N 0.90023 0.43253 0.4683 0.0
N1557 N 0.87037 0.45643 0.71067 0.0
H1558 H 0.86246 0.40061 0.70347 0.0
H1559 H 0.85457 0.41703 0.74284 0.0
H1560 H 0.87127 0.47091 0.71377 0.0
H1561 H 0.86689 0.44867 0.76151 0.0
H1562 H 0.90877 0.44275 0.42561 0.0
H1563 H 0.90056 0.41862 0.46703 0.0
H1564 H 0.89639 0.46195 0.40508 0.0
H1565 H 0.89234 0.48033 0.45075 0.0
C1566 C 0.5438 0.42754 0.49594 0.0
C1567 C 0.52551 0.42717 0.52155 0.0
C1568 C 0.54659 0.46327 0.56537 0.0
C1569 C 0.56425 0.46467 0.52866 0.0
N1570 N 0.58018 0.44822 0.46056 0.0
N1571 N 0.5091 0.44529 0.57613 0.0
C1572 C 0.563 0.44677 0.49465 0.0
C1573 C 0.52682 0.44504 0.55637 0.0
N1574 N 0.54286 0.40932 0.47516 0.0
N1575 N 0.54842 0.47937 0.60826 0.0
H1576 H 0.49422 0.43237 0.57386 0.0
H1577 H 0.50891 0.45884 0.59013 0.0
H1578 H 0.56199 0.4937 0.61329 0.0
H1579 H 0.53678 0.47797 0.64427 0.0
H1580 H 0.5559 0.40807 0.46246 0.0
H1581 H 0.52911 0.39493 0.47735 0.0
H1582 H 0.57972 0.43666 0.42632 0.0
H1583 H 0.59494 0.46146 0.46425 0.0
C1584 C 0.5656 0.11537 0.65887 0.0
C1585 C 0.57415 0.11179 0.59377 0.0
C1586 C 0.54438 0.10731 0.52023 0.0
C1587 C 0.53599 0.11139 0.58493 0.0
N1588 N 0.54031 0.12348 0.71161 0.0
N1589 N 0.57466 0.10932 0.46033 0.0
C1590 C 0.54716 0.11673 0.65307 0.0
C1591 C 0.56447 0.10937 0.52367 0.0
N1592 N 0.5746 0.11659 0.7265 0.0
N1593 N 0.53268 0.10026 0.45677 0.0
H1594 H 0.58948 0.11091 0.46113 0.0
H1595 H 0.56938 0.10972 0.40699 0.0
H1596 H 0.51779 0.09832 0.4517 0.0
H1597 H 0.53699 0.09468 0.41092 0.0
H1598 H 0.56778 0.11672 0.77698 0.0
H1599 H 0.58839 0.11616 0.73255 0.0
H1600 H 0.54878 0.12954 0.76045 0.0
H1601 H 0.5269 0.12473 0.70888 0.0
C1602 C 0.7873 0.59205 0.10264 0.0
C1603 C 0.76862 0.57243 0.10494 0.0
C1604 C 0.78892 0.55463 0.11642 0.0
C1605 C 0.80756 0.57416 0.10988 0.0
N1606 N 0.82471 0.61127 0.08617 0.0
N1607 N 0.75127 0.53492 0.10195 0.0
C1608 C 0.8068 0.59278 0.09911 0.0
C1609 C 0.76931 0.55365 0.10868 0.0
N1610 N 0.78649 0.61006 0.10862 0.0
N1611 N 0.78997 0.53702 0.13038 0.0
H1612 H 0.73669 0.53368 0.09572 0.0
H1613 H 0.75081 0.52071 0.09644 0.0
H1614 H 0.80398 0.53687 0.13147 0.0
H1615 H 0.77712 0.52276 0.1448 0.0
H1616 H 0.79955 0.62471 0.11663 0.0
H1617 H 0.77261 0.61032 0.11224 0.0
H1618 H 0.82486 0.62469 0.06801 0.0
H1619 H 0.83955 0.61303 0.08859 0.0
C1620 C 0.44714 0.21218 -9e-05 0.0
C1621 C 0.44904 0.20392 0.06889 0.0
C1622 C 0.44895 0.23267 0.1358 0.0
C1623 C 0.4475 0.24117 0.06673 0.0
N1624 N 0.45061 0.24224 0.93322 0.0
N1625 N 0.45701 0.20872 0.19978 0.0
C1626 C 0.44839 0.23195 0.99877 0.0
C1627 C 0.45169 0.21501 0.13602 0.0
N1628 N 0.4428 0.20064 0.93623 0.0
N1629 N 0.44641 0.24061 0.2011 0.0
H1630 H 0.45927 0.19589 0.20145 0.0
H1631 H 0.46114 0.2173 0.24895 0.0
H1632 H 0.44423 0.25345 0.20369 0.0
H1633 H 0.44483 0.23348 0.25253 0.0
H1634 H 0.4388 0.20484 0.88621 0.0
H1635 H 0.44154 0.18598 0.93431 0.0
H1636 H 0.4534 0.2373 0.88246 0.0
H1637 H 0.45172 0.25684 0.93072 0.0
C1638 C 0.78201 0.19952 0.07843 0.0
C1639 C 0.76621 0.19535 0.1317 0.0
C1640 C 0.78913 0.22914 0.19141 0.0
C1641 C 0.80581 0.23153 0.14583 0.0
N1642 N 0.81896 0.21771 0.05207 0.0
N1643 N 0.75412 0.20634 0.2376 0.0
C1644 C 0.80244 0.21654 0.09031 0.0
C1645 C 0.7696 0.21028 0.18772 0.0
N1646 N 0.77772 0.18735 0.01646 0.0
N1647 N 0.79183 0.24519 0.23641 0.0
H1648 H 0.73899 0.19377 0.23216 0.0
H1649 H 0.75638 0.21506 0.28564 0.0
H1650 H 0.80588 0.25927 0.23974 0.0
H1651 H 0.77979 0.24536 0.26568 0.0
H1652 H 0.78807 0.19121 0.97217 0.0
H1653 H 0.76321 0.17454 0.00491 0.0
H1654 H 0.81782 0.20575 0.01833 0.0
H1655 H 0.83428 0.22972 0.05895 0.0
C1656 C 0.55111 0.76666 0.8438 0.0
C1657 C 0.55226 0.75744 0.91163 0.0
C1658 C 0.55355 0.78636 0.98225 0.0
C1659 C 0.55225 0.79544 0.91449 0.0
N1660 N 0.54459 0.7922 0.78353 0.0
N1661 N 0.54949 0.75556 0.0453 0.0
C1662 C 0.54926 0.78485 0.8461 0.0
C1663 C 0.55187 0.76638 0.98095 0.0
N1664 N 0.55313 0.75889 0.77729 0.0
N1665 N 0.55723 0.7972 0.04734 0.0
H1666 H 0.54798 0.74077 0.04599 0.0
H1667 H 0.54712 0.7603 0.0971 0.0
H1668 H 0.55786 0.81156 0.05061 0.0
H1669 H 0.56085 0.79258 0.09722 0.0
H1670 H 0.55488 0.76639 0.7266 0.0
H1671 H 0.55472 0.74571 0.77292 0.0
H1672 H 0.5403 0.78414 0.73325 0.0
H1673 H 0.54305 0.80545 0.78396 0.0
C1674 C 0.19543 0.7809 0.90372 0.0
C1675 C 0.19243 0.76222 0.87018 0.0
C1676 C 0.23 0.77895 0.84536 0.0
C1677 C 0.23228 0.7984 0.86711 0.0
N1678 N 0.21656 0.81837 0.91046 0.0
N1679 N 0.20666 0.74296 0.81017 0.0
C1680 C 0.21495 0.79949 0.8958 0.0
C1681 C 0.20971 0.76109 0.84157 0.0
N1682 N 0.17968 0.78116 0.94248 0.0
N1683 N 0.24733 0.77748 0.83067 0.0
H1684 H 0.1924 0.72907 0.81224 0.0
H1685 H 0.21798 0.74184 0.77954 0.0
H1686 H 0.26242 0.79019 0.83479 0.0
H1687 H 0.24697 0.76344 0.82129 0.0
H1688 H 0.18192 0.79362 0.97584 0.0
H1689 H 0.16473 0.76844 0.94736 0.0
H1690 H 0.20375 0.82026 0.92047 0.0
H1691 H 0.23038 0.83254 0.90698 0.0
C1692 C 0.19566 0.40807 0.92774 0.0
C1693 C 0.19452 0.42635 0.91327 0.0
C1694 C 0.23271 0.44709 0.90805 0.0
C1695 C 0.23367 0.42849 0.91398 0.0
N1696 N 0.21603 0.39085 0.91891 0.0
N1697 N 0.21154 0.46312 0.88563 0.0
C1698 C 0.21517 0.40887 0.9219 0.0
C1699 C 0.21295 0.44583 0.90217 0.0
N1700 N 0.1781 0.38983 0.94638 0.0
N1701 N 0.2507 0.46599 0.91091 0.0
H1702 H 0.19749 0.46317 0.8861 0.0
H1703 H 0.22412 0.47715 0.8677 0.0
H1704 H 0.2654 0.46745 0.91633 0.0
H1705 H 0.25104 0.48018 0.91449 0.0
H1706 H 0.17842 0.37685 0.967 0.0
H1707 H 0.1632 0.38795 0.94663 0.0
H1708 H 0.20292 0.37608 0.91454 0.0
H1709 H 0.22988 0.39053 0.91433 0.0
C1710 C 0.43703 0.88491 0.42 0.0
C1711 C 0.43759 0.90415 0.40901 0.0
C1712 C 0.47573 0.92222 0.39746 0.0
C1713 C 0.47529 0.90339 0.41698 0.0
N1714 N 0.45601 0.86682 0.44763 0.0
N1715 N 0.45727 0.94139 0.3882 0.0
C1716 C 0.45605 0.8847 0.4282 0.0
C1717 C 0.45684 0.9228 0.39633 0.0
N1718 N 0.41823 0.86679 0.42007 0.0
N1719 N 0.49429 0.93974 0.38144 0.0
H1720 H 0.44402 0.94267 0.38163 0.0
H1721 H 0.47078 0.9559 0.39111 0.0
H1722 H 0.50874 0.94099 0.39054 0.0
H1723 H 0.4955 0.95291 0.35586 0.0
H1724 H 0.41658 0.85199 0.42104 0.0
H1725 H 0.40411 0.86647 0.41248 0.0
H1726 H 0.44283 0.85332 0.46574 0.0
H1727 H 0.46949 0.86569 0.44878 0.0
C1728 C 0.07447 0.54604 0.44377 0.0
C1729 C 0.09319 0.56512 0.45711 0.0
C1730 C 0.11196 0.54608 0.4782 0.0
C1731 C 0.09286 0.527 0.47158 0.0
N1732 N 0.05529 0.5087 0.46179 0.0
N1733 N 0.12931 0.58364 0.49402 0.0
C1734 C 0.07395 0.52692 0.45744 0.0
C1735 C 0.11181 0.56523 0.47658 0.0
N1736 N 0.05706 0.54612 0.41861 0.0
N1737 N 0.13029 0.5459 0.48307 0.0
H1738 H 0.13011 0.59807 0.48942 0.0
H1739 H 0.14264 0.58458 0.51714 0.0
H1740 H 0.13097 0.53217 0.48377 0.0
H1741 H 0.14491 0.55926 0.48023 0.0
H1742 H 0.04391 0.53286 0.39866 0.0
H1743 H 0.05608 0.55959 0.4128 0.0
H1744 H 0.04088 0.50796 0.46112 0.0
H1745 H 0.05406 0.49435 0.47323 0.0
C1746 C 0.4547 0.57463 0.48711 0.0
C1747 C 0.46449 0.58017 0.41641 0.0
C1748 C 0.43374 0.55095 0.35886 0.0
C1749 C 0.42527 0.54385 0.43069 0.0
N1750 N 0.42697 0.54838 0.56357 0.0
N1751 N 0.46438 0.5732 0.28523 0.0
C1752 C 0.43548 0.55563 0.49498 0.0
C1753 C 0.45418 0.56841 0.35203 0.0
N1754 N 0.46359 0.58784 0.5461 0.0
N1755 N 0.42218 0.54097 0.2973 0.0
H1756 H 0.47933 0.5859 0.27786 0.0
H1757 H 0.45871 0.56383 0.23814 0.0
H1758 H 0.40726 0.52796 0.30062 0.0
H1759 H 0.42652 0.54653 0.24328 0.0
H1760 H 0.45643 0.58578 0.59765 0.0
H1761 H 0.47757 0.60196 0.54176 0.0
H1762 H 0.43475 0.55468 0.61341 0.0
H1763 H 0.41221 0.53537 0.57062 0.0
loop_
_geom_bond_atom_site_label_1
_geom_bond_atom_site_label_2
_geom_bond_distance
_geom_bond_site_symmetry_2
_ccdc_geom_bond_type
C0 O1 1.160 . S
C0 O7 1.185 . S
O1 C0 1.160 . S
O2 Zn3 1.899 . S
O2 C10 1.284 . S
Zn3 O2 1.899 . S
Zn3 O4 2.032 . S
Zn3 O7 2.086 . S
Zn3 O12 1.977 . S
O4 Zn3 2.032 . S
O4 C8 1.278 . S
C5 O6 1.203 . S
C5 O12 1.267 . S
O6 C5 1.203 . S
O7 C0 1.185 . S
O7 Zn3 2.086 . S
C8 O4 1.278 . S
C8 O9 1.211 . S
O9 C8 1.211 . S
C10 O2 1.284 . S
C10 O11 1.273 . S
O11 C10 1.273 . S
O12 Zn3 1.977 . S
O12 C5 1.267 . S
C13 O14 1.160 . S
C13 O20 1.185 . S
O14 C13 1.160 . S
O15 Zn16 1.899 . S
O15 C23 1.284 . S
Zn16 O15 1.899 . S
Zn16 O17 2.032 . S
Zn16 O20 2.086 . S
Zn16 O25 1.977 . S
O17 Zn16 2.032 . S
O17 C21 1.278 . S
C18 O19 1.203 . S
C18 O25 1.267 . S
O19 C18 1.203 . S
O20 C13 1.185 . S
O20 Zn16 2.086 . S
C21 O17 1.278 . S
C21 O22 1.211 . S
O22 C21 1.211 . S
C23 O15 1.284 . S
C23 O24 1.273 . S
O24 C23 1.273 . S
O25 Zn16 1.977 . S
O25 C18 1.267 . S
C26 O27 1.160 . S
C26 O33 1.185 . S
O27 C26 1.160 . S
O28 Zn29 1.899 . S
O28 C36 1.284 . S
Zn29 O28 1.899 . S
Zn29 O30 2.032 . S
Zn29 O33 2.086 . S
Zn29 O38 1.977 . S
O30 Zn29 2.032 . S
O30 C34 1.278 . S
C31 O32 1.203 . S
C31 O38 1.267 . S
O32 C31 1.203 . S
O33 C26 1.185 . S
O33 Zn29 2.086 . S
C34 O30 1.278 . S
C34 O35 1.211 . S
O35 C34 1.211 . S
C36 O28 1.284 . S
C36 O37 1.273 . S
O37 C36 1.273 . S
O38 Zn29 1.977 . S
O38 C31 1.267 . S
C39 O40 1.160 . S
C39 O46 1.185 . S
O40 C39 1.160 . S
O41 Zn42 1.899 . S
O41 C49 1.284 . S
Zn42 O41 1.899 . S
Zn42 O43 2.032 . S
Zn42 O46 2.086 . S
Zn42 O51 1.977 . S
O43 Zn42 2.032 . S
O43 C47 1.278 . S
C44 O45 1.203 . S
C44 O51 1.267 . S
O45 C44 1.203 . S
O46 C39 1.185 . S
O46 Zn42 2.086 . S
C47 O43 1.278 . S
C47 O48 1.211 . S
O48 C47 1.211 . S
C49 O41 1.284 . S
C49 O50 1.273 . S
O50 C49 1.273 . S
O51 Zn42 1.977 . S
O51 C44 1.267 . S
C52 O53 1.160 . S
C52 O59 1.185 . S
O53 C52 1.160 . S
O54 Zn55 1.899 . S
O54 C62 1.284 . S
Zn55 O54 1.899 . S
Zn55 O56 2.032 . S
Zn55 O59 2.086 . S
Zn55 O64 1.977 . S
O56 Zn55 2.032 . S
O56 C60 1.278 . S
C57 O58 1.203 . S
C57 O64 1.267 . S
O58 C57 1.203 . S
O59 C52 1.185 . S
O59 Zn55 2.086 . S
C60 O56 1.278 . S
C60 O61 1.211 . S
O61 C60 1.211 . S
C62 O54 1.284 . S
C62 O63 1.273 . S
O63 C62 1.273 . S
O64 Zn55 1.977 . S
O64 C57 1.267 . S
C65 O66 1.160 . S
C65 O72 1.185 . S
O66 C65 1.160 . S
O67 Zn68 1.899 . S
O67 C75 1.284 . S
Zn68 O67 1.899 . S
Zn68 O69 2.032 . S
Zn68 O72 2.086 . S
Zn68 O77 1.977 . S
O69 Zn68 2.032 . S
O69 C73 1.278 . S
C70 O71 1.203 . S
C70 O77 1.267 . S
O71 C70 1.203 . S
O72 C65 1.185 . S
O72 Zn68 2.086 . S
C73 O69 1.278 . S
C73 O74 1.211 . S
O74 C73 1.211 . S
C75 O67 1.284 . S
C75 O76 1.273 . S
O76 C75 1.273 . S
O77 Zn68 1.977 . S
O77 C70 1.267 . S
C78 O79 1.160 . S
C78 O85 1.185 . S
O79 C78 1.160 . S
O80 Zn81 1.899 . S
O80 C88 1.284 . S
Zn81 O80 1.899 . S
Zn81 O82 2.032 . S
Zn81 O85 2.086 . S
Zn81 O90 1.977 . S
O82 Zn81 2.032 . S
O82 C86 1.278 . S
C83 O84 1.203 . S
C83 O90 1.267 . S
O84 C83 1.203 . S
O85 C78 1.185 . S
O85 Zn81 2.086 . S
C86 O82 1.278 . S
C86 O87 1.211 . S
O87 C86 1.211 . S
C88 O80 1.284 . S
C88 O89 1.273 . S
O89 C88 1.273 . S
O90 Zn81 1.977 . S
O90 C83 1.267 . S
C91 O92 1.160 . S
C91 O98 1.185 . S
O92 C91 1.160 . S
O93 Zn94 1.899 . S
O93 C101 1.284 . S
Zn94 O93 1.899 . S
Zn94 O95 2.032 . S
Zn94 O98 2.086 . S
Zn94 O103 1.977 . S
O95 Zn94 2.032 . S
O95 C99 1.278 . S
C96 O97 1.203 . S
C96 O103 1.267 . S
O97 C96 1.203 . S
O98 C91 1.185 . S
O98 Zn94 2.086 . S
C99 O95 1.278 . S
C99 O100 1.211 . S
O100 C99 1.211 . S
C101 O93 1.284 . S
C101 O102 1.273 . S
O102 C101 1.273 . S
O103 Zn94 1.977 . S
O103 C96 1.267 . S
C104 O105 1.160 . S
C104 O111 1.185 . S
O105 C104 1.160 . S
O106 Zn107 1.899 . S
O106 C114 1.284 . S
Zn107 O106 1.899 . S
Zn107 O108 2.032 . S
Zn107 O111 2.086 . S
Zn107 O116 1.977 . S
O108 Zn107 2.032 . S
O108 C112 1.278 . S
C109 O110 1.203 . S
C109 O116 1.267 . S
O110 C109 1.203 . S
O111 C104 1.185 . S
O111 Zn107 2.086 . S
C112 O108 1.278 . S
C112 O113 1.211 . S
O113 C112 1.211 . S
C114 O106 1.284 . S
C114 O115 1.273 . S
O115 C114 1.273 . S
O116 Zn107 1.977 . S
O116 C109 1.267 . S
C117 O118 1.160 . S
C117 O124 1.185 . S
O118 C117 1.160 . S
O119 Zn120 1.899 . S
O119 C127 1.284 . S
Zn120 O119 1.899 . S
Zn120 O121 2.032 . S
Zn120 O124 2.086 . S
Zn120 O129 1.977 . S
O121 Zn120 2.032 . S
O121 C125 1.278 . S
C122 O123 1.203 . S
C122 O129 1.267 . S
O123 C122 1.203 . S
O124 C117 1.185 . S
O124 Zn120 2.086 . S
C125 O121 1.278 . S
C125 O126 1.211 . S
O126 C125 1.211 . S
C127 O119 1.284 . S
C127 O128 1.273 . S
O128 C127 1.273 . S
O129 Zn120 1.977 . S
O129 C122 1.267 . S
C130 O131 1.160 . S
C130 O137 1.185 . S
O131 C130 1.160 . S
O132 Zn133 1.899 . S
O132 C140 1.284 . S
Zn133 O132 1.899 . S
Zn133 O134 2.032 . S
Zn133 O137 2.086 . S
Zn133 O142 1.977 . S
O134 Zn133 2.032 . S
O134 C138 1.278 . S
C135 O136 1.203 . S
C135 O142 1.267 . S
O136 C135 1.203 . S
O137 C130 1.185 . S
O137 Zn133 2.086 . S
C138 O134 1.278 . S
C138 O139 1.211 . S
O139 C138 1.211 . S
C140 O132 1.284 . S
C140 O141 1.273 . S
O141 C140 1.273 . S
O142 Zn133 1.977 . S
O142 C135 1.267 . S
C143 O144 1.160 . S
C143 O150 1.185 . S
O144 C143 1.160 . S
O145 Zn146 1.899 . S
O145 C153 1.284 . S
Zn146 O145 1.899 . S
Zn146 O147 2.032 . S
Zn146 O150 2.086 . S
Zn146 O155 1.977 . S
O147 Zn146 2.032 . S
O147 C151 1.278 . S
C148 O149 1.203 . S
C148 O155 1.267 . S
O149 C148 1.203 . S
O150 C143 1.185 . S
O150 Zn146 2.086 . S
C151 O147 1.278 . S
C151 O152 1.211 . S
O152 C151 1.211 . S
C153 O145 1.284 . S
C153 O154 1.273 . S
O154 C153 1.273 . S
O155 Zn146 1.977 . S
O155 C148 1.267 . S
C156 O157 1.160 . S
C156 O163 1.185 . S
O157 C156 1.160 . S
O158 Zn159 1.899 . S
O158 C166 1.284 . S
Zn159 O158 1.899 . S
Zn159 O160 2.032 . S
Zn159 O163 2.086 . S
Zn159 O168 1.977 . S
O160 Zn159 2.032 . S
O160 C164 1.278 . S
C161 O162 1.203 . S
C161 O168 1.267 . S
O162 C161 1.203 . S
O163 C156 1.185 . S
O163 Zn159 2.086 . S
C164 O160 1.278 . S
C164 O165 1.211 . S
O165 C164 1.211 . S
C166 O158 1.284 . S
C166 O167 1.273 . S
O167 C166 1.273 . S
O168 Zn159 1.977 . S
O168 C161 1.267 . S
C169 O170 1.160 . S
C169 O176 1.185 . S
O170 C169 1.160 . S
O171 Zn172 1.899 . S
O171 C179 1.284 . S
Zn172 O171 1.899 . S
Zn172 O173 2.032 . S
Zn172 O176 2.086 . S
Zn172 O181 1.977 . S
O173 Zn172 2.032 . S
O173 C177 1.278 . S
C174 O175 1.203 . S
C174 O181 1.267 . S
O175 C174 1.203 . S
O176 C169 1.185 . S
O176 Zn172 2.086 . S
C177 O173 1.278 . S
C177 O178 1.211 . S
O178 C177 1.211 . S
C179 O171 1.284 . S
C179 O180 1.273 . S
O180 C179 1.273 . S
O181 Zn172 1.977 . S
O181 C174 1.267 . S
C182 O183 1.160 . S
C182 O189 1.185 . S
O183 C182 1.160 . S
O184 Zn185 1.899 . S
O184 C192 1.284 . S
Zn185 O184 1.899 . S
Zn185 O186 2.032 . S
Zn185 O189 2.086 . S
Zn185 O194 1.977 . S
O186 Zn185 2.032 . S
O186 C190 1.278 . S
C187 O188 1.203 . S
C187 O194 1.267 . S
O188 C187 1.203 . S
O189 C182 1.185 . S
O189 Zn185 2.086 . S
C190 O186 1.278 . S
C190 O191 1.211 . S
O191 C190 1.211 . S
C192 O184 1.284 . S
C192 O193 1.273 . S
O193 C192 1.273 . S
O194 Zn185 1.977 . S
O194 C187 1.267 . S
C195 O196 1.160 . S
C195 O202 1.185 . S
O196 C195 1.160 . S
O197 Zn198 1.899 . S
O197 C205 1.284 . S
Zn198 O197 1.899 . S
Zn198 O199 2.032 . S
Zn198 O202 2.086 1_554 S
Zn198 O207 1.977 . S
O199 Zn198 2.032 . S
O199 C203 1.278 . S
C200 O201 1.203 . S
C200 O207 1.267 . S
O201 C200 1.203 . S
O202 C195 1.185 . S
O202 Zn198 2.086 1_556 S
C203 O199 1.278 . S
C203 O204 1.211 . S
O204 C203 1.211 . S
C205 O197 1.284 . S
C205 O206 1.273 . S
O206 C205 1.273 . S
O207 Zn198 1.977 . S
O207 C200 1.267 . S
C208 O209 1.160 . S
C208 O215 1.185 . S
O209 C208 1.160 . S
O210 Zn211 1.899 . S
O210 C218 1.284 . S
Zn211 O210 1.899 . S
Zn211 O212 2.032 . S
Zn211 O215 2.086 1_554 S
Zn211 O220 1.977 . S
O212 Zn211 2.032 . S
O212 C216 1.278 . S
C213 O214 1.203 . S
C213 O220 1.267 . S
O214 C213 1.203 . S
O215 C208 1.185 . S
O215 Zn211 2.086 1_556 S
C216 O212 1.278 . S
C216 O217 1.211 . S
O217 C216 1.211 . S
C218 O210 1.284 . S
C218 O219 1.273 . S
O219 C218 1.273 . S
O220 Zn211 1.977 . S
O220 C213 1.267 . S
C221 O222 1.160 . S
C221 O228 1.185 . S
O222 C221 1.160 . S
O223 Zn224 1.899 . S
O223 C231 1.284 . S
Zn224 O223 1.899 . S
Zn224 O225 2.032 . S
Zn224 O228 2.086 1_554 S
Zn224 O233 1.977 . S
O225 Zn224 2.032 . S
O225 C229 1.278 . S
C226 O227 1.203 . S
C226 O233 1.267 . S
O227 C226 1.203 . S
O228 C221 1.185 . S
O228 Zn224 2.086 1_556 S
C229 O225 1.278 . S
C229 O230 1.211 . S
O230 C229 1.211 . S
C231 O223 1.284 . S
C231 O232 1.273 . S
O232 C231 1.273 . S
O233 Zn224 1.977 . S
O233 C226 1.267 . S
C234 O235 1.160 . S
C234 O241 1.185 . S
O235 C234 1.160 . S
O236 Zn237 1.899 . S
O236 C244 1.284 . S
Zn237 O236 1.899 . S
Zn237 O238 2.032 . S
Zn237 O241 2.086 1_554 S
Zn237 O246 1.977 . S
O238 Zn237 2.032 . S
O238 C242 1.278 . S
C239 O240 1.203 . S
C239 O246 1.267 . S
O240 C239 1.203 . S
O241 C234 1.185 . S
O241 Zn237 2.086 1_556 S
C242 O238 1.278 . S
C242 O243 1.211 . S
O243 C242 1.211 . S
C244 O236 1.284 . S
C244 O245 1.273 . S
O245 C244 1.273 . S
O246 Zn237 1.977 . S
O246 C239 1.267 . S
C247 O248 1.160 . S
C247 O254 1.185 . S
O248 C247 1.160 . S
O249 Zn250 1.899 . S
O249 C257 1.284 . S
Zn250 O249 1.899 . S
Zn250 O251 2.032 . S
Zn250 O254 2.086 1_554 S
Zn250 O259 1.977 . S
O251 Zn250 2.032 . S
O251 C255 1.278 . S
C252 O253 1.203 . S
C252 O259 1.267 . S
O253 C252 1.203 . S
O254 C247 1.185 . S
O254 Zn250 2.086 1_556 S
C255 O251 1.278 . S
C255 O256 1.211 . S
O256 C255 1.211 . S
C257 O249 1.284 . S
C257 O258 1.273 . S
O258 C257 1.273 . S
O259 Zn250 1.977 . S
O259 C252 1.267 . S
C260 O261 1.160 . S
C260 O267 1.185 . S
O261 C260 1.160 . S
O262 Zn263 1.899 . S
O262 C270 1.284 . S
Zn263 O262 1.899 . S
Zn263 O264 2.032 . S
Zn263 O267 2.086 1_554 S
Zn263 O272 1.977 . S
O264 Zn263 2.032 . S
O264 C268 1.278 . S
C265 O266 1.203 . S
C265 O272 1.267 . S
O266 C265 1.203 . S
O267 C260 1.185 . S
O267 Zn263 2.086 1_556 S
C268 O264 1.278 . S
C268 O269 1.211 . S
O269 C268 1.211 . S
C270 O262 1.284 . S
C270 O271 1.273 . S
O271 C270 1.273 . S
O272 Zn263 1.977 . S
O272 C265 1.267 . S
C273 O274 1.160 . S
C273 O280 1.185 . S
O274 C273 1.160 . S
O275 Zn276 1.899 . S
O275 C283 1.284 . S
Zn276 O275 1.899 . S
Zn276 O277 2.032 . S
Zn276 O280 2.086 . S
Zn276 O285 1.977 . S
O277 Zn276 2.032 . S
O277 C281 1.278 . S
C278 O279 1.203 . S
C278 O285 1.267 . S
O279 C278 1.203 . S
O280 C273 1.185 . S
O280 Zn276 2.086 . S
C281 O277 1.278 . S
C281 O282 1.211 . S
O282 C281 1.211 . S
C283 O275 1.284 . S
C283 O284 1.273 . S
O284 C283 1.273 . S
O285 Zn276 1.977 . S
O285 C278 1.267 . S
C286 O287 1.160 . S
C286 O293 1.185 . S
O287 C286 1.160 . S
O288 Zn289 1.899 . S
O288 C296 1.284 . S
Zn289 O288 1.899 . S
Zn289 O290 2.032 . S
Zn289 O293 2.086 . S
Zn289 O298 1.977 . S
O290 Zn289 2.032 . S
O290 C294 1.278 . S
C291 O292 1.203 . S
C291 O298 1.267 . S
O292 C291 1.203 . S
O293 C286 1.185 . S
O293 Zn289 2.086 . S
C294 O290 1.278 . S
C294 O295 1.211 . S
O295 C294 1.211 . S
C296 O288 1.284 . S
C296 O297 1.273 . S
O297 C296 1.273 . S
O298 Zn289 1.977 . S
O298 C291 1.267 . S
C299 O300 1.160 . S
C299 O306 1.185 . S
O300 C299 1.160 . S
O301 Zn302 1.899 . S
O301 C309 1.284 . S
Zn302 O301 1.899 . S
Zn302 O303 2.032 . S
Zn302 O306 2.086 . S
Zn302 O311 1.977 . S
O303 Zn302 2.032 . S
O303 C307 1.278 . S
C304 O305 1.203 . S
C304 O311 1.267 . S
O305 C304 1.203 . S
O306 C299 1.185 . S
O306 Zn302 2.086 . S
C307 O303 1.278 . S
C307 O308 1.211 . S
O308 C307 1.211 . S
C309 O301 1.284 . S
C309 O310 1.273 . S
O310 C309 1.273 . S
O311 Zn302 1.977 . S
O311 C304 1.267 . S
C312 O313 1.160 . S
C312 O319 1.185 . S
O313 C312 1.160 . S
O314 Zn315 1.899 . S
O314 C322 1.284 . S
Zn315 O314 1.899 . S
Zn315 O316 2.032 . S
Zn315 O319 2.086 1_556 S
Zn315 O324 1.977 . S
O316 Zn315 2.032 . S
O316 C320 1.278 . S
C317 O318 1.203 . S
C317 O324 1.267 . S
O318 C317 1.203 . S
O319 C312 1.185 . S
O319 Zn315 2.086 1_554 S
C320 O316 1.278 . S
C320 O321 1.211 . S
O321 C320 1.211 . S
C322 O314 1.284 . S
C322 O323 1.273 . S
O323 C322 1.273 . S
O324 Zn315 1.977 . S
O324 C317 1.267 . S
C325 O326 1.160 . S
C325 O332 1.185 . S
O326 C325 1.160 . S
O327 Zn328 1.899 . S
O327 C335 1.284 . S
Zn328 O327 1.899 . S
Zn328 O329 2.032 . S
Zn328 O332 2.086 1_556 S
Zn328 O337 1.977 . S
O329 Zn328 2.032 . S
O329 C333 1.278 . S
C330 O331 1.203 . S
C330 O337 1.267 . S
O331 C330 1.203 . S
O332 C325 1.185 . S
O332 Zn328 2.086 1_554 S
C333 O329 1.278 . S
C333 O334 1.211 . S
O334 C333 1.211 . S
C335 O327 1.284 . S
C335 O336 1.273 . S
O336 C335 1.273 . S
O337 Zn328 1.977 . S
O337 C330 1.267 . S
C338 O339 1.160 . S
C338 O345 1.185 . S
O339 C338 1.160 . S
O340 Zn341 1.899 . S
O340 C348 1.284 . S
Zn341 O340 1.899 . S
Zn341 O342 2.032 . S
Zn341 O345 2.086 1_556 S
Zn341 O350 1.977 . S
O342 Zn341 2.032 . S
O342 C346 1.278 . S
C343 O344 1.203 . S
C343 O350 1.267 . S
O344 C343 1.203 . S
O345 C338 1.185 . S
O345 Zn341 2.086 1_554 S
C346 O342 1.278 . S
C346 O347 1.211 . S
O347 C346 1.211 . S
C348 O340 1.284 . S
C348 O349 1.273 . S
O349 C348 1.273 . S
O350 Zn341 1.977 . S
O350 C343 1.267 . S
C351 O352 1.160 . S
C351 O358 1.185 . S
O352 C351 1.160 . S
O353 Zn354 1.899 . S
O353 C361 1.284 . S
Zn354 O353 1.899 . S
Zn354 O355 2.032 . S
Zn354 O358 2.086 . S
Zn354 O363 1.977 . S
O355 Zn354 2.032 . S
O355 C359 1.278 . S
C356 O357 1.203 . S
C356 O363 1.267 . S
O357 C356 1.203 . S
O358 C351 1.185 . S
O358 Zn354 2.086 . S
C359 O355 1.278 . S
C359 O360 1.211 . S
O360 C359 1.211 . S
C361 O353 1.284 . S
C361 O362 1.273 . S
O362 C361 1.273 . S
O363 Zn354 1.977 . S
O363 C356 1.267 . S
C364 O365 1.160 . S
C364 O371 1.185 . S
O365 C364 1.160 . S
O366 Zn367 1.899 . S
O366 C374 1.284 . S
Zn367 O366 1.899 . S
Zn367 O368 2.032 . S
Zn367 O371 2.086 . S
Zn367 O376 1.977 . S
O368 Zn367 2.032 . S
O368 C372 1.278 . S
C369 O370 1.203 . S
C369 O376 1.267 . S
O370 C369 1.203 . S
O371 C364 1.185 . S
O371 Zn367 2.086 . S
C372 O368 1.278 . S
C372 O373 1.211 . S
O373 C372 1.211 . S
C374 O366 1.284 . S
C374 O375 1.273 . S
O375 C374 1.273 . S
O376 Zn367 1.977 . S
O376 C369 1.267 . S
C377 O378 1.160 . S
C377 O384 1.185 . S
O378 C377 1.160 . S
O379 Zn380 1.899 . S
O379 C387 1.284 . S
Zn380 O379 1.899 . S
Zn380 O381 2.032 . S
Zn380 O384 2.086 . S
Zn380 O389 1.977 . S
O381 Zn380 2.032 . S
O381 C385 1.278 . S
C382 O383 1.203 . S
C382 O389 1.267 . S
O383 C382 1.203 . S
O384 C377 1.185 . S
O384 Zn380 2.086 . S
C385 O381 1.278 . S
C385 O386 1.211 . S
O386 C385 1.211 . S
C387 O379 1.284 . S
C387 O388 1.273 . S
O388 C387 1.273 . S
O389 Zn380 1.977 . S
O389 C382 1.267 . S
C390 O391 1.160 . S
C390 O397 1.185 . S
O391 C390 1.160 . S
O392 Zn393 1.899 . S
O392 C400 1.284 . S
Zn393 O392 1.899 . S
Zn393 O394 2.032 . S
Zn393 O397 2.086 . S
Zn393 O402 1.977 . S
O394 Zn393 2.032 . S
O394 C398 1.278 . S
C395 O396 1.203 . S
C395 O402 1.267 . S
O396 C395 1.203 . S
O397 C390 1.185 . S
O397 Zn393 2.086 . S
C398 O394 1.278 . S
C398 O399 1.211 . S
O399 C398 1.211 . S
C400 O392 1.284 . S
C400 O401 1.273 . S
O401 C400 1.273 . S
O402 Zn393 1.977 . S
O402 C395 1.267 . S
C403 O404 1.160 . S
C403 O410 1.185 . S
O404 C403 1.160 . S
O405 Zn406 1.899 . S
O405 C413 1.284 . S
Zn406 O405 1.899 . S
Zn406 O407 2.032 . S
Zn406 O410 2.086 . S
Zn406 O415 1.977 . S
O407 Zn406 2.032 . S
O407 C411 1.278 . S
C408 O409 1.203 . S
C408 O415 1.267 . S
O409 C408 1.203 . S
O410 C403 1.185 . S
O410 Zn406 2.086 . S
C411 O407 1.278 . S
C411 O412 1.211 . S
O412 C411 1.211 . S
C413 O405 1.284 . S
C413 O414 1.273 . S
O414 C413 1.273 . S
O415 Zn406 1.977 . S
O415 C408 1.267 . S
C416 O417 1.160 . S
C416 O423 1.185 . S
O417 C416 1.160 . S
O418 Zn419 1.899 . S
O418 C426 1.284 . S
Zn419 O418 1.899 . S
Zn419 O420 2.032 . S
Zn419 O423 2.086 . S
Zn419 O428 1.977 . S
O420 Zn419 2.032 . S
O420 C424 1.278 . S
C421 O422 1.203 . S
C421 O428 1.267 . S
O422 C421 1.203 . S
O423 C416 1.185 . S
O423 Zn419 2.086 . S
C424 O420 1.278 . S
C424 O425 1.211 . S
O425 C424 1.211 . S
C426 O418 1.284 . S
C426 O427 1.273 . S
O427 C426 1.273 . S
O428 Zn419 1.977 . S
O428 C421 1.267 . S
C429 O430 1.160 . S
C429 O436 1.185 . S
O430 C429 1.160 . S
O431 Zn432 1.899 . S
O431 C439 1.284 . S
Zn432 O431 1.899 . S
Zn432 O433 2.032 . S
Zn432 O436 2.086 1_556 S
Zn432 O441 1.977 . S
O433 Zn432 2.032 . S
O433 C437 1.278 . S
C434 O435 1.203 . S
C434 O441 1.267 . S
O435 C434 1.203 . S
O436 C429 1.185 . S
O436 Zn432 2.086 1_554 S
C437 O433 1.278 . S
C437 O438 1.211 . S
O438 C437 1.211 . S
C439 O431 1.284 . S
C439 O440 1.273 . S
O440 C439 1.273 . S
O441 Zn432 1.977 . S
O441 C434 1.267 . S
C442 O443 1.160 . S
C442 O449 1.185 . S
O443 C442 1.160 . S
O444 Zn445 1.899 . S
O444 C452 1.284 . S
Zn445 O444 1.899 . S
Zn445 O446 2.032 . S
Zn445 O449 2.086 1_556 S
Zn445 O454 1.977 . S
O446 Zn445 2.032 . S
O446 C450 1.278 . S
C447 O448 1.203 . S
C447 O454 1.267 . S
O448 C447 1.203 . S
O449 C442 1.185 . S
O449 Zn445 2.086 1_554 S
C450 O446 1.278 . S
C450 O451 1.211 . S
O451 C450 1.211 . S
C452 O444 1.284 . S
C452 O453 1.273 . S
O453 C452 1.273 . S
O454 Zn445 1.977 . S
O454 C447 1.267 . S
C455 O456 1.160 . S
C455 O462 1.185 . S
O456 C455 1.160 . S
O457 Zn458 1.899 . S
O457 C465 1.284 . S
Zn458 O457 1.899 . S
Zn458 O459 2.032 . S
Zn458 O462 2.086 1_556 S
Zn458 O467 1.977 . S
O459 Zn458 2.032 . S
O459 C463 1.278 . S
C460 O461 1.203 . S
C460 O467 1.267 . S
O461 C460 1.203 . S
O462 C455 1.185 . S
O462 Zn458 2.086 1_554 S
C463 O459 1.278 . S
C463 O464 1.211 . S
O464 C463 1.211 . S
C465 O457 1.284 . S
C465 O466 1.273 . S
O466 C465 1.273 . S
O467 Zn458 1.977 . S
O467 C460 1.267 . S
C468 C469 1.363 1_545 S
C468 C474 1.379 . S
C468 N476 1.356 . S
C469 C468 1.363 1_565 S
C469 C475 1.363 . S
C470 C471 1.363 1_565 S
C470 C475 1.379 . S
C470 N477 1.356 . S
C471 C470 1.363 1_545 S
C471 C474 1.363 . S
N472 C474 1.356 . S
N472 H484 0.984 . S
N472 H485 0.985 . S
N473 C475 1.356 . S
N473 H478 0.984 . S
N473 H479 0.985 . S
C474 C468 1.379 . S
C474 C471 1.363 . S
C474 N472 1.356 . S
C475 C469 1.363 . S
C475 C470 1.379 . S
C475 N473 1.356 . S
N476 C468 1.356 . S
N476 H482 0.984 . S
N476 H483 0.984 1_545 S
N477 C470 1.356 . S
N477 H480 0.984 1_565 S
N477 H481 0.985 . S
H478 N473 0.984 . S
H479 N473 0.985 . S
H480 N477 0.984 1_545 S
H481 N477 0.985 . S
H482 N476 0.984 . S
H483 N476 0.984 1_565 S
H484 N472 0.984 . S
H485 N472 0.985 . S
C486 C487 1.363 . S
C486 C492 1.379 1_455 S
C486 N494 1.356 . S
C487 C486 1.363 . S
C487 C493 1.363 . S
C488 C489 1.363 . S
C488 C493 1.379 1_655 S
C488 N495 1.356 . S
C489 C488 1.363 . S
C489 C492 1.363 . S
N490 C492 1.356 . S
N490 H502 0.984 . S
N490 H503 0.985 . S
N491 C493 1.356 . S
N491 H496 0.984 . S
N491 H497 0.985 . S
C492 C486 1.379 1_655 S
C492 C489 1.363 . S
C492 N490 1.356 . S
C493 C487 1.363 . S
C493 C488 1.379 1_455 S
C493 N491 1.356 . S
N494 C486 1.356 . S
N494 H500 0.984 . S
N494 H501 0.984 . S
N495 C488 1.356 . S
N495 H498 0.984 . S
N495 H499 0.985 . S
H496 N491 0.984 . S
H497 N491 0.985 . S
H498 N495 0.984 . S
H499 N495 0.985 . S
H500 N494 0.984 . S
H501 N494 0.984 . S
H502 N490 0.984 . S
H503 N490 0.985 . S
C504 C505 1.363 . S
C504 C510 1.379 . S
C504 N512 1.356 . S
C505 C504 1.363 . S
C505 C511 1.363 . S
C506 C507 1.363 . S
C506 C511 1.379 . S
C506 N513 1.356 . S
C507 C506 1.363 . S
C507 C510 1.363 . S
N508 C510 1.356 . S
N508 H520 0.984 . S
N508 H521 0.985 . S
N509 C511 1.356 . S
N509 H514 0.984 . S
N509 H515 0.985 . S
C510 C504 1.379 . S
C510 C507 1.363 . S
C510 N508 1.356 . S
C511 C505 1.363 . S
C511 C506 1.379 . S
C511 N509 1.356 . S
N512 C504 1.356 . S
N512 H518 0.984 . S
N512 H519 0.984 . S
N513 C506 1.356 . S
N513 H516 0.984 . S
N513 H517 0.985 . S
H514 N509 0.984 . S
H515 N509 0.985 . S
H516 N513 0.984 . S
H517 N513 0.985 . S
H518 N512 0.984 . S
H519 N512 0.984 . S
H520 N508 0.984 . S
H521 N508 0.985 . S
C522 C523 1.363 1_545 S
C522 C528 1.379 . S
C522 N530 1.356 . S
C523 C522 1.363 1_565 S
C523 C529 1.363 . S
C524 C525 1.363 1_565 S
C524 C529 1.379 . S
C524 N531 1.356 . S
C525 C524 1.363 1_545 S
C525 C528 1.363 . S
N526 C528 1.356 . S
N526 H538 0.984 . S
N526 H539 0.985 . S
N527 C529 1.356 . S
N527 H532 0.984 . S
N527 H533 0.985 . S
C528 C522 1.379 . S
C528 C525 1.363 . S
C528 N526 1.356 . S
C529 C523 1.363 . S
C529 C524 1.379 . S
C529 N527 1.356 . S
N530 C522 1.356 . S
N530 H536 0.984 . S
N530 H537 0.984 1_545 S
N531 C524 1.356 . S
N531 H534 0.984 1_565 S
N531 H535 0.985 . S
H532 N527 0.984 . S
H533 N527 0.985 . S
H534 N531 0.984 1_545 S
H535 N531 0.985 . S
H536 N530 0.984 . S
H537 N530 0.984 1_565 S
H538 N526 0.984 . S
H539 N526 0.985 . S
C540 C541 1.363 . S
C540 C546 1.379 1_455 S
C540 N548 1.356 . S
C541 C540 1.363 . S
C541 C547 1.363 . S
C542 C543 1.363 . S
C542 C547 1.379 1_655 S
C542 N549 1.356 . S
C543 C542 1.363 . S
C543 C546 1.363 . S
N544 C546 1.356 . S
N544 H556 0.984 . S
N544 H557 0.985 . S
N545 C547 1.356 . S
N545 H550 0.984 . S
N545 H551 0.985 . S
C546 C540 1.379 1_655 S
C546 C543 1.363 . S
C546 N544 1.356 . S
C547 C541 1.363 . S
C547 C542 1.379 1_455 S
C547 N545 1.356 . S
N548 C540 1.356 . S
N548 H554 0.984 . S
N548 H555 0.984 . S
N549 C542 1.356 . S
N549 H552 0.984 . S
N549 H553 0.985 . S
H550 N545 0.984 . S
H551 N545 0.985 . S
H552 N549 0.984 . S
H553 N549 0.985 . S
H554 N548 0.984 . S
H555 N548 0.984 . S
H556 N544 0.984 . S
H557 N544 0.985 . S
C558 C559 1.363 . S
C558 C564 1.379 . S
C558 N566 1.356 . S
C559 C558 1.363 . S
C559 C565 1.363 . S
C560 C561 1.363 . S
C560 C565 1.379 . S
C560 N567 1.356 . S
C561 C560 1.363 . S
C561 C564 1.363 . S
N562 C564 1.356 . S
N562 H574 0.984 . S
N562 H575 0.985 . S
N563 C565 1.356 . S
N563 H568 0.984 . S
N563 H569 0.985 . S
C564 C558 1.379 . S
C564 C561 1.363 . S
C564 N562 1.356 . S
C565 C559 1.363 . S
C565 C560 1.379 . S
C565 N563 1.356 . S
N566 C558 1.356 . S
N566 H572 0.984 . S
N566 H573 0.984 . S
N567 C560 1.356 . S
N567 H570 0.984 . S
N567 H571 0.985 . S
H568 N563 0.984 . S
H569 N563 0.985 . S
H570 N567 0.984 . S
H571 N567 0.985 . S
H572 N566 0.984 . S
H573 N566 0.984 . S
H574 N562 0.984 . S
H575 N562 0.985 . S
C576 C577 1.363 . S
C576 C582 1.379 . S
C576 N584 1.356 . S
C577 C576 1.363 . S
C577 C583 1.363 . S
C578 C579 1.363 . S
C578 C583 1.379 . S
C578 N585 1.356 . S
C579 C578 1.363 . S
C579 C582 1.363 . S
N580 C582 1.356 . S
N580 H592 0.984 . S
N580 H593 0.985 1_556 S
N581 C583 1.356 . S
N581 H586 0.984 . S
N581 H587 0.985 . S
C582 C576 1.379 . S
C582 C579 1.363 . S
C582 N580 1.356 . S
C583 C577 1.363 . S
C583 C578 1.379 . S
C583 N581 1.356 . S
N584 C576 1.356 . S
N584 H590 0.984 . S
N584 H591 0.984 . S
N585 C578 1.356 . S
N585 H588 0.984 . S
N585 H589 0.985 . S
H586 N581 0.984 . S
H587 N581 0.985 . S
H588 N585 0.984 . S
H589 N585 0.985 . S
H590 N584 0.984 . S
H591 N584 0.984 . S
H592 N580 0.984 . S
H593 N580 0.985 1_554 S
C594 C595 1.363 . S
C594 C600 1.379 . S
C594 N602 1.356 . S
C595 C594 1.363 . S
C595 C601 1.363 . S
C596 C597 1.363 . S
C596 C601 1.379 . S
C596 N603 1.356 . S
C597 C596 1.363 . S
C597 C600 1.363 . S
N598 C600 1.356 . S
N598 H610 0.984 . S
N598 H611 0.985 . S
N599 C601 1.356 . S
N599 H604 0.984 . S
N599 H605 0.985 . S
C600 C594 1.379 . S
C600 C597 1.363 . S
C600 N598 1.356 . S
C601 C595 1.363 . S
C601 C596 1.379 . S
C601 N599 1.356 . S
N602 C594 1.356 . S
N602 H608 0.984 . S
N602 H609 0.984 . S
N603 C596 1.356 . S
N603 H606 0.984 . S
N603 H607 0.985 . S
H604 N599 0.984 . S
H605 N599 0.985 . S
H606 N603 0.984 . S
H607 N603 0.985 . S
H608 N602 0.984 . S
H609 N602 0.984 . S
H610 N598 0.984 . S
H611 N598 0.985 . S
C612 C613 1.363 . S
C612 C618 1.379 . S
C612 N620 1.356 . S
C613 C612 1.363 . S
C613 C619 1.363 . S
C614 C615 1.363 . S
C614 C619 1.379 . S
C614 N621 1.356 . S
C615 C614 1.363 . S
C615 C618 1.363 . S
N616 C618 1.356 . S
N616 H628 0.984 . S
N616 H629 0.985 . S
N617 C619 1.356 . S
N617 H622 0.984 . S
N617 H623 0.985 . S
C618 C612 1.379 . S
C618 C615 1.363 . S
C618 N616 1.356 . S
C619 C613 1.363 . S
C619 C614 1.379 . S
C619 N617 1.356 . S
N620 C612 1.356 . S
N620 H626 0.984 . S
N620 H627 0.984 . S
N621 C614 1.356 . S
N621 H624 0.984 . S
N621 H625 0.985 . S
H622 N617 0.984 . S
H623 N617 0.985 . S
H624 N621 0.984 . S
H625 N621 0.985 . S
H626 N620 0.984 . S
H627 N620 0.984 . S
H628 N616 0.984 . S
H629 N616 0.985 . S
C630 C631 1.363 . S
C630 C636 1.379 . S
C630 N638 1.356 . S
C631 C630 1.363 . S
C631 C637 1.363 . S
C632 C633 1.363 . S
C632 C637 1.379 . S
C632 N639 1.356 . S
C633 C632 1.363 . S
C633 C636 1.363 . S
N634 C636 1.356 . S
N634 H646 0.984 . S
N634 H647 0.985 . S
N635 C637 1.356 . S
N635 H640 0.984 . S
N635 H641 0.985 . S
C636 C630 1.379 . S
C636 C633 1.363 . S
C636 N634 1.356 . S
C637 C631 1.363 . S
C637 C632 1.379 . S
C637 N635 1.356 . S
N638 C630 1.356 . S
N638 H644 0.984 . S
N638 H645 0.984 . S
N639 C632 1.356 . S
N639 H642 0.984 1_556 S
N639 H643 0.985 . S
H640 N635 0.984 . S
H641 N635 0.985 . S
H642 N639 0.984 1_554 S
H643 N639 0.985 . S
H644 N638 0.984 . S
H645 N638 0.984 . S
H646 N634 0.984 . S
H647 N634 0.985 . S
C648 C649 1.363 . S
C648 C654 1.379 . S
C648 N656 1.356 . S
C649 C648 1.363 . S
C649 C655 1.363 . S
C650 C651 1.363 . S
C650 C655 1.379 . S
C650 N657 1.356 . S
C651 C650 1.363 . S
C651 C654 1.363 . S
N652 C654 1.356 . S
N652 H664 0.984 . S
N652 H665 0.985 . S
N653 C655 1.356 . S
N653 H658 0.984 . S
N653 H659 0.985 . S
C654 C648 1.379 . S
C654 C651 1.363 . S
C654 N652 1.356 . S
C655 C649 1.363 . S
C655 C650 1.379 . S
C655 N653 1.356 . S
N656 C648 1.356 . S
N656 H662 0.984 . S
N656 H663 0.984 . S
N657 C650 1.356 . S
N657 H660 0.984 . S
N657 H661 0.985 . S
H658 N653 0.984 . S
H659 N653 0.985 . S
H660 N657 0.984 . S
H661 N657 0.985 . S
H662 N656 0.984 . S
H663 N656 0.984 . S
H664 N652 0.984 . S
H665 N652 0.985 . S
C666 C667 1.363 . S
C666 C672 1.379 . S
C666 N674 1.356 . S
C667 C666 1.363 . S
C667 C673 1.363 . S
C668 C669 1.363 . S
C668 C673 1.379 . S
C668 N675 1.356 . S
C669 C668 1.363 . S
C669 C672 1.363 . S
N670 C672 1.356 . S
N670 H682 0.984 . S
N670 H683 0.985 . S
N671 C673 1.356 . S
N671 H676 0.984 . S
N671 H677 0.985 . S
C672 C666 1.379 . S
C672 C669 1.363 . S
C672 N670 1.356 . S
C673 C667 1.363 . S
C673 C668 1.379 . S
C673 N671 1.356 . S
N674 C666 1.356 . S
N674 H680 0.984 . S
N674 H681 0.984 . S
N675 C668 1.356 . S
N675 H678 0.984 . S
N675 H679 0.985 . S
H676 N671 0.984 . S
H677 N671 0.985 . S
H678 N675 0.984 . S
H679 N675 0.985 . S
H680 N674 0.984 . S
H681 N674 0.984 . S
H682 N670 0.984 . S
H683 N670 0.985 . S
C684 C685 1.363 . S
C684 C690 1.379 . S
C684 N692 1.356 . S
C685 C684 1.363 . S
C685 C691 1.363 . S
C686 C687 1.363 . S
C686 C691 1.379 . S
C686 N693 1.356 . S
C687 C686 1.363 . S
C687 C690 1.363 . S
N688 C690 1.356 . S
N688 H700 0.984 . S
N688 H701 0.985 . S
N689 C691 1.356 . S
N689 H694 0.984 . S
N689 H695 0.985 . S
C690 C684 1.379 . S
C690 C687 1.363 . S
C690 N688 1.356 . S
C691 C685 1.363 . S
C691 C686 1.379 . S
C691 N689 1.356 . S
N692 C684 1.356 . S
N692 H698 0.984 . S
N692 H699 0.984 . S
N693 C686 1.356 . S
N693 H696 0.984 1_554 S
N693 H697 0.985 . S
H694 N689 0.984 . S
H695 N689 0.985 . S
H696 N693 0.984 1_556 S
H697 N693 0.985 . S
H698 N692 0.984 . S
H699 N692 0.984 . S
H700 N688 0.984 . S
H701 N688 0.985 . S
C702 C703 1.363 . S
C702 C708 1.379 . S
C702 N710 1.356 . S
C703 C702 1.363 . S
C703 C709 1.363 . S
C704 C705 1.363 . S
C704 C709 1.379 . S
C704 N711 1.356 . S
C705 C704 1.363 . S
C705 C708 1.363 . S
N706 C708 1.356 . S
N706 H718 0.984 . S
N706 H719 0.985 . S
N707 C709 1.356 . S
N707 H712 0.984 . S
N707 H713 0.985 . S
C708 C702 1.379 . S
C708 C705 1.363 . S
C708 N706 1.356 . S
C709 C703 1.363 . S
C709 C704 1.379 . S
C709 N707 1.356 . S
N710 C702 1.356 . S
N710 H716 0.984 . S
N710 H717 0.984 . S
N711 C704 1.356 . S
N711 H714 0.984 . S
N711 H715 0.985 . S
H712 N707 0.984 . S
H713 N707 0.985 . S
H714 N711 0.984 . S
H715 N711 0.985 . S
H716 N710 0.984 . S
H717 N710 0.984 . S
H718 N706 0.984 . S
H719 N706 0.985 . S
C720 C721 1.363 . S
C720 C726 1.379 . S
C720 N728 1.356 . S
C721 C720 1.363 . S
C721 C727 1.363 . S
C722 C723 1.363 . S
C722 C727 1.379 . S
C722 N729 1.356 . S
C723 C722 1.363 . S
C723 C726 1.363 . S
N724 C726 1.356 . S
N724 H736 0.984 . S
N724 H737 0.985 . S
N725 C727 1.356 . S
N725 H730 0.984 . S
N725 H731 0.985 . S
C726 C720 1.379 . S
C726 C723 1.363 . S
C726 N724 1.356 . S
C727 C721 1.363 . S
C727 C722 1.379 . S
C727 N725 1.356 . S
N728 C720 1.356 . S
N728 H734 0.984 . S
N728 H735 0.984 . S
N729 C722 1.356 . S
N729 H732 0.981 1_554 S
N729 H733 0.985 . S
H730 N725 0.984 . S
H731 N725 0.985 . S
H732 N729 0.981 1_556 S
H733 N729 0.985 . S
H734 N728 0.984 . S
H735 N728 0.984 . S
H736 N724 0.984 . S
H737 N724 0.985 . S
C738 C739 1.363 . S
C738 C744 1.379 . S
C738 N746 1.356 . S
C739 C738 1.363 . S
C739 C745 1.363 . S
C740 C741 1.363 . S
C740 C745 1.379 . S
C740 N747 1.356 . S
C741 C740 1.363 . S
C741 C744 1.363 . S
N742 C744 1.356 . S
N742 H754 0.984 . S
N742 H755 0.985 . S
N743 C745 1.356 . S
N743 H748 0.984 . S
N743 H749 0.985 . S
C744 C738 1.379 . S
C744 C741 1.363 . S
C744 N742 1.356 . S
C745 C739 1.363 . S
C745 C740 1.379 . S
C745 N743 1.356 . S
N746 C738 1.356 . S
N746 H752 0.984 . S
N746 H753 0.984 . S
N747 C740 1.356 . S
N747 H750 0.984 1_554 S
N747 H751 0.985 . S
H748 N743 0.984 . S
H749 N743 0.985 . S
H750 N747 0.984 1_556 S
H751 N747 0.985 . S
H752 N746 0.984 . S
H753 N746 0.984 . S
H754 N742 0.984 . S
H755 N742 0.985 . S
C756 C757 1.363 . S
C756 C762 1.379 . S
C756 N764 1.356 . S
C757 C756 1.363 . S
C757 C763 1.363 . S
C758 C759 1.363 . S
C758 C763 1.379 . S
C758 N765 1.356 . S
C759 C758 1.363 . S
C759 C762 1.363 . S
N760 C762 1.356 . S
N760 H772 0.984 . S
N760 H773 0.985 . S
N761 C763 1.356 . S
N761 H766 0.984 . S
N761 H767 0.985 . S
C762 C756 1.379 . S
C762 C759 1.363 . S
C762 N760 1.356 . S
C763 C757 1.363 . S
C763 C758 1.379 . S
C763 N761 1.356 . S
N764 C756 1.356 . S
N764 H770 0.984 . S
N764 H771 0.984 . S
N765 C758 1.356 . S
N765 H768 0.984 . S
N765 H769 0.985 . S
H766 N761 0.984 . S
H767 N761 0.985 . S
H768 N765 0.984 . S
H769 N765 0.985 . S
H770 N764 0.984 . S
H771 N764 0.984 . S
H772 N760 0.984 . S
H773 N760 0.985 . S
C774 C775 1.363 . S
C774 C780 1.379 . S
C774 N782 1.356 . S
C775 C774 1.363 . S
C775 C781 1.363 . S
C776 C777 1.363 . S
C776 C781 1.379 . S
C776 N783 1.356 . S
C777 C776 1.363 . S
C777 C780 1.363 . S
N778 C780 1.356 . S
N778 H790 0.984 . S
N778 H791 0.985 . S
N779 C781 1.356 . S
N779 H784 0.984 . S
N779 H785 0.985 . S
C780 C774 1.379 . S
C780 C777 1.363 . S
C780 N778 1.356 . S
C781 C775 1.363 . S
C781 C776 1.379 . S
C781 N779 1.356 . S
N782 C774 1.356 . S
N782 H788 0.984 . S
N782 H789 0.984 . S
N783 C776 1.356 . S
N783 H786 0.984 . S
N783 H787 0.985 . S
H784 N779 0.984 . S
H785 N779 0.985 . S
H786 N783 0.984 . S
H787 N783 0.985 . S
H788 N782 0.984 . S
H789 N782 0.984 . S
H790 N778 0.984 . S
H791 N778 0.985 . S
C792 C793 1.363 1_545 S
C792 C798 1.379 1_556 S
C792 N800 1.358 1_545 S
C793 C792 1.363 1_565 S
C793 C799 1.363 . S
C794 C795 1.363 1_565 S
C794 C799 1.379 1_554 S
C794 N801 1.358 1_565 S
C795 C794 1.363 1_545 S
C795 C798 1.363 . S
N796 C798 1.356 . S
N796 H808 0.976 1_554 S
N796 H809 0.985 . S
N797 C799 1.356 . S
N797 H802 0.984 . S
N797 H803 0.985 1_556 S
C798 C792 1.379 1_554 S
C798 C795 1.363 . S
C798 N796 1.356 . S
C799 C793 1.363 . S
C799 C794 1.379 1_556 S
C799 N797 1.356 . S
N800 C792 1.358 1_565 S
N800 H806 0.985 1_565 S
N800 H807 0.982 . S
N801 C794 1.358 1_545 S
N801 H804 0.982 . S
N801 H805 0.985 1_545 S
H802 N797 0.984 . S
H803 N797 0.985 1_554 S
H804 N801 0.982 . S
H805 N801 0.985 1_565 S
H806 N800 0.985 1_545 S
H807 N800 0.982 . S
H808 N796 0.976 1_556 S
H809 N796 0.985 . S
C810 C811 1.363 . S
C810 C816 1.379 1_654 S
C810 N818 1.356 . S
C811 C810 1.363 . S
C811 C817 1.363 . S
C812 C813 1.363 . S
C812 C817 1.379 1_456 S
C812 N819 1.356 . S
C813 C812 1.363 . S
C813 C816 1.363 . S
N814 C816 1.356 . S
N814 H826 1.004 . S
N814 H827 0.985 . S
N815 C817 1.356 . S
N815 H820 0.984 . S
N815 H821 1.004 . S
C816 C810 1.379 1_456 S
C816 C813 1.363 . S
C816 N814 1.356 . S
C817 C811 1.363 . S
C817 C812 1.379 1_654 S
C817 N815 1.356 . S
N818 C810 1.356 . S
N818 H824 0.984 . S
N818 H825 0.984 . S
N819 C812 1.356 . S
N819 H822 0.984 . S
N819 H823 0.985 . S
H820 N815 0.984 . S
H821 N815 1.004 . S
H822 N819 0.984 . S
H823 N819 0.985 . S
H824 N818 0.984 . S
H825 N818 0.984 . S
H826 N814 1.004 . S
H827 N814 0.985 . S
C828 C829 1.363 . S
C828 C834 1.379 1_556 S
C828 N836 1.356 . S
C829 C828 1.363 . S
C829 C835 1.363 . S
C830 C831 1.363 . S
C830 C835 1.379 1_554 S
C830 N837 1.356 . S
C831 C830 1.363 . S
C831 C834 1.363 . S
N832 C834 1.356 . S
N832 H844 0.984 . S
N832 H845 0.985 . S
N833 C835 1.356 . S
N833 H838 0.984 . S
N833 H839 0.985 . S
C834 C828 1.379 1_554 S
C834 C831 1.363 . S
C834 N832 1.356 . S
C835 C829 1.363 . S
C835 C830 1.379 1_556 S
C835 N833 1.356 . S
N836 C828 1.356 . S
N836 H842 0.984 . S
N836 H843 0.984 . S
N837 C830 1.356 . S
N837 H840 0.984 . S
N837 H841 0.985 . S
H838 N833 0.984 . S
H839 N833 0.985 . S
H840 N837 0.984 . S
H841 N837 0.985 . S
H842 N836 0.984 . S
H843 N836 0.984 . S
H844 N832 0.984 . S
H845 N832 0.985 . S
C846 C847 1.363 1_545 S
C846 C852 1.379 . S
C846 N854 1.356 . S
C847 C846 1.363 1_565 S
C847 C853 1.363 1_556 S
C848 C849 1.363 1_565 S
C848 C853 1.379 . S
C848 N855 1.356 . S
C849 C848 1.363 1_545 S
C849 C852 1.363 1_554 S
N850 C852 1.356 1_554 S
N850 H862 0.984 1_554 S
N850 H863 0.985 . S
N851 C853 1.356 1_556 S
N851 H856 0.984 . S
N851 H857 0.985 1_556 S
C852 C846 1.379 . S
C852 C849 1.363 1_556 S
C852 N850 1.356 1_556 S
C853 C847 1.363 1_554 S
C853 C848 1.379 . S
C853 N851 1.356 1_554 S
N854 C846 1.356 . S
N854 H860 0.984 . S
N854 H861 0.984 1_545 S
N855 C848 1.356 . S
N855 H858 0.984 1_565 S
N855 H859 0.985 . S
H856 N851 0.984 . S
H857 N851 0.985 1_554 S
H858 N855 0.984 1_545 S
H859 N855 0.985 . S
H860 N854 0.984 . S
H861 N854 0.984 1_565 S
H862 N850 0.984 1_556 S
H863 N850 0.985 . S
C864 C865 1.363 1_554 S
C864 C870 1.379 . S
C864 N872 1.356 1_554 S
C865 C864 1.363 1_556 S
C865 C871 1.363 1_455 S
C866 C867 1.363 1_556 S
C866 C871 1.379 . S
C866 N873 1.356 1_556 S
C867 C866 1.363 1_554 S
C867 C870 1.363 1_655 S
N868 C870 1.356 . S
N868 H880 0.984 . S
N868 H881 0.985 1_455 S
N869 C871 1.356 . S
N869 H874 0.984 1_655 S
N869 H875 0.985 . S
C870 C864 1.379 . S
C870 C867 1.363 1_455 S
C870 N868 1.356 . S
C871 C865 1.363 1_655 S
C871 C866 1.379 . S
C871 N869 1.356 . S
N872 C864 1.356 1_556 S
N872 H878 0.984 1_556 S
N872 H879 0.984 . S
N873 C866 1.356 1_554 S
N873 H876 0.984 . S
N873 H877 0.985 1_554 S
H874 N869 0.984 1_455 S
H875 N869 0.985 . S
H876 N873 0.984 . S
H877 N873 0.985 1_556 S
H878 N872 0.984 1_554 S
H879 N872 0.984 . S
H880 N868 0.984 . S
H881 N868 0.985 1_655 S
C882 C883 1.363 . S
C882 C888 1.372 1_554 S
C882 N890 1.356 . S
C883 C882 1.363 . S
C883 C889 1.370 . S
C884 C885 1.363 . S
C884 C889 1.372 1_556 S
C884 N891 1.356 . S
C885 C884 1.363 . S
C885 C888 1.370 . S
N886 C888 1.359 . S
N886 H898 0.984 1_556 S
N886 H899 0.985 . S
N887 C889 1.359 . S
N887 H892 0.984 . S
N887 H893 0.985 1_554 S
C888 C882 1.372 1_556 S
C888 C885 1.370 . S
C888 N886 1.359 . S
C889 C883 1.370 . S
C889 C884 1.372 1_554 S
C889 N887 1.359 . S
N890 C882 1.356 . S
N890 H896 0.984 . S
N890 H897 0.984 . S
N891 C884 1.356 . S
N891 H894 0.984 . S
N891 H895 0.985 . S
H892 N887 0.984 . S
H893 N887 0.985 1_556 S
H894 N891 0.984 . S
H895 N891 0.985 . S
H896 N890 0.984 . S
H897 N890 0.984 . S
H898 N886 0.984 1_554 S
H899 N886 0.985 . S
C900 C901 1.363 . S
C900 C906 1.379 . S
C900 N908 1.356 . S
C901 C900 1.363 . S
C901 C907 1.363 . S
C902 C903 1.363 . S
C902 C907 1.379 . S
C902 N909 1.356 . S
C903 C902 1.363 . S
C903 C906 1.363 . S
N904 C906 1.356 . S
N904 H916 0.984 . S
N904 H917 0.985 . S
N905 C907 1.356 . S
N905 H910 0.984 . S
N905 H911 0.985 . S
C906 C900 1.379 . S
C906 C903 1.363 . S
C906 N904 1.356 . S
C907 C901 1.363 . S
C907 C902 1.379 . S
C907 N905 1.356 . S
N908 C900 1.356 . S
N908 H914 0.984 . S
N908 H915 0.984 . S
N909 C902 1.356 . S
N909 H912 0.984 . S
N909 H913 0.985 . S
H910 N905 0.984 . S
H911 N905 0.985 . S
H912 N909 0.984 . S
H913 N909 0.985 . S
H914 N908 0.984 . S
H915 N908 0.984 . S
H916 N904 0.984 . S
H917 N904 0.985 . S
C918 C919 1.363 . S
C918 C924 1.379 . S
C918 N926 1.356 . S
C919 C918 1.363 . S
C919 C925 1.363 . S
C920 C921 1.363 . S
C920 C925 1.379 . S
C920 N927 1.356 . S
C921 C920 1.363 . S
C921 C924 1.363 . S
N922 C924 1.356 . S
N922 H934 0.984 . S
N922 H935 0.985 . S
N923 C925 1.356 . S
N923 H928 0.984 . S
N923 H929 0.985 . S
C924 C918 1.379 . S
C924 C921 1.363 . S
C924 N922 1.356 . S
C925 C919 1.363 . S
C925 C920 1.379 . S
C925 N923 1.356 . S
N926 C918 1.356 . S
N926 H932 0.984 . S
N926 H933 0.984 . S
N927 C920 1.356 . S
N927 H930 0.984 . S
N927 H931 0.985 . S
H928 N923 0.984 . S
H929 N923 0.985 . S
H930 N927 0.984 . S
H931 N927 0.985 . S
H932 N926 0.984 . S
H933 N926 0.984 . S
H934 N922 0.984 . S
H935 N922 0.985 . S
C936 C937 1.363 . S
C936 C942 1.379 . S
C936 N944 1.356 . S
C937 C936 1.363 . S
C937 C943 1.363 . S
C938 C939 1.363 . S
C938 C943 1.379 . S
C938 N945 1.356 . S
C939 C938 1.363 . S
C939 C942 1.363 . S
N940 C942 1.356 . S
N940 H952 0.984 . S
N940 H953 0.985 . S
N941 C943 1.356 . S
N941 H946 0.984 . S
N941 H947 0.985 . S
C942 C936 1.379 . S
C942 C939 1.363 . S
C942 N940 1.356 . S
C943 C937 1.363 . S
C943 C938 1.379 . S
C943 N941 1.356 . S
N944 C936 1.356 . S
N944 H950 0.984 . S
N944 H951 0.984 . S
N945 C938 1.356 . S
N945 H948 0.984 . S
N945 H949 0.985 . S
H946 N941 0.984 . S
H947 N941 0.985 . S
H948 N945 0.984 . S
H949 N945 0.985 . S
H950 N944 0.984 . S
H951 N944 0.984 . S
H952 N940 0.984 . S
H953 N940 0.985 . S
C954 C955 1.363 . S
C954 C960 1.379 . S
C954 N962 1.356 . S
C955 C954 1.363 . S
C955 C961 1.363 . S
C956 C957 1.363 . S
C956 C961 1.379 . S
C956 N963 1.356 . S
C957 C956 1.363 . S
C957 C960 1.363 . S
N958 C960 1.356 . S
N958 H970 0.984 . S
N958 H971 0.985 . S
N959 C961 1.356 . S
N959 H964 0.984 . S
N959 H965 0.985 . S
C960 C954 1.379 . S
C960 C957 1.363 . S
C960 N958 1.356 . S
C961 C955 1.363 . S
C961 C956 1.379 . S
C961 N959 1.356 . S
N962 C954 1.356 . S
N962 H968 0.984 . S
N962 H969 0.984 . S
N963 C956 1.356 . S
N963 H966 0.984 . S
N963 H967 0.985 . S
H964 N959 0.984 . S
H965 N959 0.985 . S
H966 N963 0.984 . S
H967 N963 0.985 . S
H968 N962 0.984 . S
H969 N962 0.984 . S
H970 N958 0.984 . S
H971 N958 0.985 . S
C972 C973 1.363 . S
C972 C978 1.379 . S
C972 N980 1.356 . S
C973 C972 1.363 . S
C973 C979 1.363 . S
C974 C975 1.363 . S
C974 C979 1.379 . S
C974 N981 1.356 . S
C975 C974 1.363 . S
C975 C978 1.363 . S
N976 C978 1.356 . S
N976 H988 0.984 . S
N976 H989 0.985 . S
N977 C979 1.356 . S
N977 H982 0.984 . S
N977 H983 0.985 . S
C978 C972 1.379 . S
C978 C975 1.363 . S
C978 N976 1.356 . S
C979 C973 1.363 . S
C979 C974 1.379 . S
C979 N977 1.356 . S
N980 C972 1.356 . S
N980 H986 0.984 . S
N980 H987 0.984 . S
N981 C974 1.356 . S
N981 H984 0.984 . S
N981 H985 0.985 . S
H982 N977 0.984 . S
H983 N977 0.985 . S
H984 N981 0.984 . S
H985 N981 0.985 . S
H986 N980 0.984 . S
H987 N980 0.984 . S
H988 N976 0.984 . S
H989 N976 0.985 . S
C990 C991 1.363 . S
C990 C996 1.379 . S
C990 N998 1.356 . S
C991 C990 1.363 . S
C991 C997 1.363 . S
C992 C993 1.363 . S
C992 C997 1.379 . S
C992 N999 1.356 . S
C993 C992 1.363 . S
C993 C996 1.363 . S
N994 C996 1.356 . S
N994 H1006 0.984 . S
N994 H1007 0.985 . S
N995 C997 1.356 . S
N995 H1000 0.984 . S
N995 H1001 0.985 . S
C996 C990 1.379 . S
C996 C993 1.363 . S
C996 N994 1.356 . S
C997 C991 1.363 . S
C997 C992 1.379 . S
C997 N995 1.356 . S
N998 C990 1.356 . S
N998 H1004 0.984 . S
N998 H1005 0.984 . S
N999 C992 1.356 . S
N999 H1002 0.984 . S
N999 H1003 0.985 . S
H1000 N995 0.984 . S
H1001 N995 0.985 . S
H1002 N999 0.984 . S
H1003 N999 0.985 . S
H1004 N998 0.984 . S
H1005 N998 0.984 . S
H1006 N994 0.984 . S
H1007 N994 0.985 . S
C1008 C1009 1.363 . S
C1008 C1014 1.379 . S
C1008 N1016 1.356 . S
C1009 C1008 1.363 . S
C1009 C1015 1.363 . S
C1010 C1011 1.363 . S
C1010 C1015 1.379 . S
C1010 N1017 1.356 . S
C1011 C1010 1.363 . S
C1011 C1014 1.363 . S
N1012 C1014 1.356 . S
N1012 H1024 0.984 . S
N1012 H1025 0.985 . S
N1013 C1015 1.356 . S
N1013 H1018 0.984 . S
N1013 H1019 0.985 . S
C1014 C1008 1.379 . S
C1014 C1011 1.363 . S
C1014 N1012 1.356 . S
C1015 C1009 1.363 . S
C1015 C1010 1.379 . S
C1015 N1013 1.356 . S
N1016 C1008 1.356 . S
N1016 H1022 0.984 . S
N1016 H1023 0.984 . S
N1017 C1010 1.356 . S
N1017 H1020 0.984 . S
N1017 H1021 0.985 . S
H1018 N1013 0.984 . S
H1019 N1013 0.985 . S
H1020 N1017 0.984 . S
H1021 N1017 0.985 . S
H1022 N1016 0.984 . S
H1023 N1016 0.984 . S
H1024 N1012 0.984 . S
H1025 N1012 0.985 . S
C1026 C1027 1.363 . S
C1026 C1032 1.379 . S
C1026 N1034 1.356 . S
C1027 C1026 1.363 . S
C1027 C1033 1.363 . S
C1028 C1029 1.363 . S
C1028 C1033 1.379 . S
C1028 N1035 1.356 . S
C1029 C1028 1.363 . S
C1029 C1032 1.363 . S
N1030 C1032 1.356 . S
N1030 H1042 0.984 . S
N1030 H1043 0.985 . S
N1031 C1033 1.356 . S
N1031 H1036 0.984 . S
N1031 H1037 0.985 . S
C1032 C1026 1.379 . S
C1032 C1029 1.363 . S
C1032 N1030 1.356 . S
C1033 C1027 1.363 . S
C1033 C1028 1.379 . S
C1033 N1031 1.356 . S
N1034 C1026 1.356 . S
N1034 H1040 0.984 . S
N1034 H1041 0.984 . S
N1035 C1028 1.356 . S
N1035 H1038 0.984 . S
N1035 H1039 0.985 . S
H1036 N1031 0.984 . S
H1037 N1031 0.985 . S
H1038 N1035 0.984 . S
H1039 N1035 0.985 . S
H1040 N1034 0.984 . S
H1041 N1034 0.984 . S
H1042 N1030 0.984 . S
H1043 N1030 0.985 . S
C1044 C1045 1.363 . S
C1044 C1050 1.379 . S
C1044 N1052 1.356 . S
C1045 C1044 1.363 . S
C1045 C1051 1.363 . S
C1046 C1047 1.363 . S
C1046 C1051 1.379 . S
C1046 N1053 1.356 . S
C1047 C1046 1.363 . S
C1047 C1050 1.363 . S
N1048 C1050 1.356 . S
N1048 H1060 0.984 . S
N1048 H1061 0.985 . S
N1049 C1051 1.356 . S
N1049 H1054 0.984 . S
N1049 H1055 0.985 . S
C1050 C1044 1.379 . S
C1050 C1047 1.363 . S
C1050 N1048 1.356 . S
C1051 C1045 1.363 . S
C1051 C1046 1.379 . S
C1051 N1049 1.356 . S
N1052 C1044 1.356 . S
N1052 H1058 0.984 . S
N1052 H1059 0.984 . S
N1053 C1046 1.356 . S
N1053 H1056 0.984 . S
N1053 H1057 0.985 . S
H1054 N1049 0.984 . S
H1055 N1049 0.985 . S
H1056 N1053 0.984 . S
H1057 N1053 0.985 . S
H1058 N1052 0.984 . S
H1059 N1052 0.984 . S
H1060 N1048 0.984 . S
H1061 N1048 0.985 . S
C1062 C1063 1.363 . S
C1062 C1068 1.379 . S
C1062 N1070 1.356 . S
C1063 C1062 1.363 . S
C1063 C1069 1.363 . S
C1064 C1065 1.363 . S
C1064 C1069 1.379 . S
C1064 N1071 1.356 . S
C1065 C1064 1.363 . S
C1065 C1068 1.363 . S
N1066 C1068 1.356 . S
N1066 H1078 0.984 . S
N1066 H1079 0.985 . S
N1067 C1069 1.356 . S
N1067 H1072 0.984 . S
N1067 H1073 0.985 . S
C1068 C1062 1.379 . S
C1068 C1065 1.363 . S
C1068 N1066 1.356 . S
C1069 C1063 1.363 . S
C1069 C1064 1.379 . S
C1069 N1067 1.356 . S
N1070 C1062 1.356 . S
N1070 H1076 0.984 . S
N1070 H1077 0.984 . S
N1071 C1064 1.356 . S
N1071 H1074 0.984 . S
N1071 H1075 0.985 . S
H1072 N1067 0.984 . S
H1073 N1067 0.985 . S
H1074 N1071 0.984 . S
H1075 N1071 0.985 . S
H1076 N1070 0.984 . S
H1077 N1070 0.984 . S
H1078 N1066 0.984 . S
H1079 N1066 0.985 . S
C1080 C1081 1.363 . S
C1080 C1086 1.379 . S
C1080 N1088 1.356 . S
C1081 C1080 1.363 . S
C1081 C1087 1.363 . S
C1082 C1083 1.363 . S
C1082 C1087 1.379 . S
C1082 N1089 1.356 . S
C1083 C1082 1.363 . S
C1083 C1086 1.363 . S
N1084 C1086 1.356 . S
N1084 H1096 0.984 . S
N1084 H1097 0.985 . S
N1085 C1087 1.356 . S
N1085 H1090 0.984 . S
N1085 H1091 0.985 . S
C1086 C1080 1.379 . S
C1086 C1083 1.363 . S
C1086 N1084 1.356 . S
C1087 C1081 1.363 . S
C1087 C1082 1.379 . S
C1087 N1085 1.356 . S
N1088 C1080 1.356 . S
N1088 H1094 0.984 . S
N1088 H1095 0.984 . S
N1089 C1082 1.356 . S
N1089 H1092 0.984 . S
N1089 H1093 0.985 . S
H1090 N1085 0.984 . S
H1091 N1085 0.985 . S
H1092 N1089 0.984 . S
H1093 N1089 0.985 . S
H1094 N1088 0.984 . S
H1095 N1088 0.984 . S
H1096 N1084 0.984 . S
H1097 N1084 0.985 . S
C1098 C1099 1.363 . S
C1098 C1104 1.379 . S
C1098 N1106 1.356 . S
C1099 C1098 1.363 . S
C1099 C1105 1.363 . S
C1100 C1101 1.363 . S
C1100 C1105 1.379 . S
C1100 N1107 1.356 . S
C1101 C1100 1.363 . S
C1101 C1104 1.363 . S
N1102 C1104 1.356 . S
N1102 H1114 0.984 . S
N1102 H1115 0.985 . S
N1103 C1105 1.356 . S
N1103 H1108 0.984 . S
N1103 H1109 0.985 . S
C1104 C1098 1.379 . S
C1104 C1101 1.363 . S
C1104 N1102 1.356 . S
C1105 C1099 1.363 . S
C1105 C1100 1.379 . S
C1105 N1103 1.356 . S
N1106 C1098 1.356 . S
N1106 H1112 0.984 . S
N1106 H1113 0.984 . S
N1107 C1100 1.356 . S
N1107 H1110 0.984 . S
N1107 H1111 0.985 . S
H1108 N1103 0.984 . S
H1109 N1103 0.985 . S
H1110 N1107 0.984 . S
H1111 N1107 0.985 . S
H1112 N1106 0.984 . S
H1113 N1106 0.984 . S
H1114 N1102 0.984 . S
H1115 N1102 0.985 . S
C1116 C1117 1.363 . S
C1116 C1122 1.379 . S
C1116 N1124 1.356 . S
C1117 C1116 1.363 . S
C1117 C1123 1.363 . S
C1118 C1119 1.363 . S
C1118 C1123 1.379 . S
C1118 N1125 1.356 . S
C1119 C1118 1.363 . S
C1119 C1122 1.363 . S
N1120 C1122 1.356 . S
N1120 H1132 0.984 . S
N1120 H1133 0.985 . S
N1121 C1123 1.356 . S
N1121 H1126 0.984 . S
N1121 H1127 0.985 . S
C1122 C1116 1.379 . S
C1122 C1119 1.363 . S
C1122 N1120 1.356 . S
C1123 C1117 1.363 . S
C1123 C1118 1.379 . S
C1123 N1121 1.356 . S
N1124 C1116 1.356 . S
N1124 H1130 0.984 . S
N1124 H1131 0.984 . S
N1125 C1118 1.356 . S
N1125 H1128 0.984 . S
N1125 H1129 0.985 . S
H1126 N1121 0.984 . S
H1127 N1121 0.985 . S
H1128 N1125 0.984 . S
H1129 N1125 0.985 . S
H1130 N1124 0.984 . S
H1131 N1124 0.984 . S
H1132 N1120 0.984 . S
H1133 N1120 0.985 . S
C1134 C1135 1.363 . S
C1134 C1140 1.379 . S
C1134 N1142 1.356 . S
C1135 C1134 1.363 . S
C1135 C1141 1.363 . S
C1136 C1137 1.363 . S
C1136 C1141 1.379 . S
C1136 N1143 1.356 . S
C1137 C1136 1.363 . S
C1137 C1140 1.363 . S
N1138 C1140 1.356 . S
N1138 H1150 0.984 . S
N1138 H1151 0.985 . S
N1139 C1141 1.356 . S
N1139 H1144 0.984 . S
N1139 H1145 0.985 . S
C1140 C1134 1.379 . S
C1140 C1137 1.363 . S
C1140 N1138 1.356 . S
C1141 C1135 1.363 . S
C1141 C1136 1.379 . S
C1141 N1139 1.356 . S
N1142 C1134 1.356 . S
N1142 H1148 0.984 . S
N1142 H1149 0.984 . S
N1143 C1136 1.356 . S
N1143 H1146 0.984 . S
N1143 H1147 0.985 . S
H1144 N1139 0.984 . S
H1145 N1139 0.985 . S
H1146 N1143 0.984 . S
H1147 N1143 0.985 . S
H1148 N1142 0.984 . S
H1149 N1142 0.984 . S
H1150 N1138 0.984 . S
H1151 N1138 0.985 . S
C1152 C1153 1.363 . S
C1152 C1158 1.379 . S
C1152 N1160 1.356 . S
C1153 C1152 1.363 . S
C1153 C1159 1.363 . S
C1154 C1155 1.363 . S
C1154 C1159 1.379 . S
C1154 N1161 1.356 . S
C1155 C1154 1.363 . S
C1155 C1158 1.363 . S
N1156 C1158 1.356 . S
N1156 H1168 0.984 . S
N1156 H1169 0.985 . S
N1157 C1159 1.356 . S
N1157 H1162 0.984 . S
N1157 H1163 0.985 . S
C1158 C1152 1.379 . S
C1158 C1155 1.363 . S
C1158 N1156 1.356 . S
C1159 C1153 1.363 . S
C1159 C1154 1.379 . S
C1159 N1157 1.356 . S
N1160 C1152 1.356 . S
N1160 H1166 0.984 . S
N1160 H1167 0.984 . S
N1161 C1154 1.356 . S
N1161 H1164 0.984 . S
N1161 H1165 0.985 . S
H1162 N1157 0.984 . S
H1163 N1157 0.985 . S
H1164 N1161 0.984 . S
H1165 N1161 0.985 . S
H1166 N1160 0.984 . S
H1167 N1160 0.984 . S
H1168 N1156 0.984 . S
H1169 N1156 0.985 . S
C1170 C1171 1.363 . S
C1170 C1176 1.379 . S
C1170 N1178 1.356 . S
C1171 C1170 1.363 . S
C1171 C1177 1.363 . S
C1172 C1173 1.363 . S
C1172 C1177 1.379 . S
C1172 N1179 1.356 . S
C1173 C1172 1.363 . S
C1173 C1176 1.363 . S
N1174 C1176 1.356 . S
N1174 H1186 0.984 . S
N1174 H1187 0.985 . S
N1175 C1177 1.356 . S
N1175 H1180 0.984 . S
N1175 H1181 0.985 . S
C1176 C1170 1.379 . S
C1176 C1173 1.363 . S
C1176 N1174 1.356 . S
C1177 C1171 1.363 . S
C1177 C1172 1.379 . S
C1177 N1175 1.356 . S
N1178 C1170 1.356 . S
N1178 H1184 0.984 . S
N1178 H1185 0.984 . S
N1179 C1172 1.356 . S
N1179 H1182 0.984 . S
N1179 H1183 0.985 . S
H1180 N1175 0.984 . S
H1181 N1175 0.985 . S
H1182 N1179 0.984 . S
H1183 N1179 0.985 . S
H1184 N1178 0.984 . S
H1185 N1178 0.984 . S
H1186 N1174 0.984 . S
H1187 N1174 0.985 . S
C1188 C1189 1.363 . S
C1188 C1194 1.379 . S
C1188 N1196 1.356 . S
C1189 C1188 1.363 . S
C1189 C1195 1.363 . S
C1190 C1191 1.363 . S
C1190 C1195 1.379 . S
C1190 N1197 1.356 . S
C1191 C1190 1.363 . S
C1191 C1194 1.363 . S
N1192 C1194 1.356 . S
N1192 H1204 0.984 . S
N1192 H1205 0.985 . S
N1193 C1195 1.356 . S
N1193 H1198 0.984 . S
N1193 H1199 0.985 . S
C1194 C1188 1.379 . S
C1194 C1191 1.363 . S
C1194 N1192 1.356 . S
C1195 C1189 1.363 . S
C1195 C1190 1.379 . S
C1195 N1193 1.356 . S
N1196 C1188 1.356 . S
N1196 H1202 0.984 . S
N1196 H1203 0.984 . S
N1197 C1190 1.356 . S
N1197 H1200 0.984 . S
N1197 H1201 0.985 1_556 S
H1198 N1193 0.984 . S
H1199 N1193 0.985 . S
H1200 N1197 0.984 . S
H1201 N1197 0.985 1_554 S
H1202 N1196 0.984 . S
H1203 N1196 0.984 . S
H1204 N1192 0.984 . S
H1205 N1192 0.985 . S
C1206 C1207 1.363 . S
C1206 C1212 1.379 . S
C1206 N1214 1.356 . S
C1207 C1206 1.363 . S
C1207 C1213 1.363 . S
C1208 C1209 1.363 . S
C1208 C1213 1.379 . S
C1208 N1215 1.356 . S
C1209 C1208 1.363 . S
C1209 C1212 1.363 . S
N1210 C1212 1.356 . S
N1210 H1222 0.984 1_556 S
N1210 H1223 0.985 . S
N1211 C1213 1.356 . S
N1211 H1216 0.984 . S
N1211 H1217 0.985 . S
C1212 C1206 1.379 . S
C1212 C1209 1.363 . S
C1212 N1210 1.356 . S
C1213 C1207 1.363 . S
C1213 C1208 1.379 . S
C1213 N1211 1.356 . S
N1214 C1206 1.356 . S
N1214 H1220 0.984 . S
N1214 H1221 0.984 . S
N1215 C1208 1.356 . S
N1215 H1218 0.984 . S
N1215 H1219 0.985 . S
H1216 N1211 0.984 . S
H1217 N1211 0.985 . S
H1218 N1215 0.984 . S
H1219 N1215 0.985 . S
H1220 N1214 0.984 . S
H1221 N1214 0.984 . S
H1222 N1210 0.984 1_554 S
H1223 N1210 0.985 . S
C1224 C1225 1.363 . S
C1224 C1230 1.379 . S
C1224 N1232 1.356 . S
C1225 C1224 1.363 . S
C1225 C1231 1.363 . S
C1226 C1227 1.363 . S
C1226 C1231 1.379 . S
C1226 N1233 1.356 . S
C1227 C1226 1.363 . S
C1227 C1230 1.363 . S
N1228 C1230 1.356 . S
N1228 H1240 0.984 . S
N1228 H1241 0.985 . S
N1229 C1231 1.356 . S
N1229 H1234 0.984 . S
N1229 H1235 0.985 . S
C1230 C1224 1.379 . S
C1230 C1227 1.363 . S
C1230 N1228 1.356 . S
C1231 C1225 1.363 . S
C1231 C1226 1.379 . S
C1231 N1229 1.356 . S
N1232 C1224 1.356 . S
N1232 H1238 0.984 . S
N1232 H1239 0.984 . S
N1233 C1226 1.356 . S
N1233 H1236 0.984 . S
N1233 H1237 0.985 1_556 S
H1234 N1229 0.984 . S
H1235 N1229 0.985 . S
H1236 N1233 0.984 . S
H1237 N1233 0.985 1_554 S
H1238 N1232 0.984 . S
H1239 N1232 0.984 . S
H1240 N1228 0.984 . S
H1241 N1228 0.985 . S
C1242 C1243 1.363 . S
C1242 C1248 1.379 . S
C1242 N1250 1.356 . S
C1243 C1242 1.363 . S
C1243 C1249 1.363 . S
C1244 C1245 1.363 . S
C1244 C1249 1.379 . S
C1244 N1251 1.356 . S
C1245 C1244 1.363 . S
C1245 C1248 1.363 . S
N1246 C1248 1.356 . S
N1246 H1258 0.984 . S
N1246 H1259 0.985 . S
N1247 C1249 1.356 . S
N1247 H1252 0.984 . S
N1247 H1253 0.985 . S
C1248 C1242 1.379 . S
C1248 C1245 1.363 . S
C1248 N1246 1.356 . S
C1249 C1243 1.363 . S
C1249 C1244 1.379 . S
C1249 N1247 1.356 . S
N1250 C1242 1.356 . S
N1250 H1256 0.984 . S
N1250 H1257 0.984 . S
N1251 C1244 1.356 . S
N1251 H1254 0.984 . S
N1251 H1255 0.985 . S
H1252 N1247 0.984 . S
H1253 N1247 0.985 . S
H1254 N1251 0.984 . S
H1255 N1251 0.985 . S
H1256 N1250 0.984 . S
H1257 N1250 0.984 . S
H1258 N1246 0.984 . S
H1259 N1246 0.985 . S
C1260 C1261 1.363 . S
C1260 C1266 1.379 . S
C1260 N1268 1.356 . S
C1261 C1260 1.363 . S
C1261 C1267 1.363 . S
C1262 C1263 1.363 . S
C1262 C1267 1.379 . S
C1262 N1269 1.356 . S
C1263 C1262 1.363 . S
C1263 C1266 1.363 . S
N1264 C1266 1.356 . S
N1264 H1276 0.984 . S
N1264 H1277 0.985 . S
N1265 C1267 1.356 . S
N1265 H1270 0.984 . S
N1265 H1271 0.985 . S
C1266 C1260 1.379 . S
C1266 C1263 1.363 . S
C1266 N1264 1.356 . S
C1267 C1261 1.363 . S
C1267 C1262 1.379 . S
C1267 N1265 1.356 . S
N1268 C1260 1.356 . S
N1268 H1274 0.984 . S
N1268 H1275 0.984 . S
N1269 C1262 1.356 . S
N1269 H1272 0.984 . S
N1269 H1273 0.985 . S
H1270 N1265 0.984 . S
H1271 N1265 0.985 . S
H1272 N1269 0.984 . S
H1273 N1269 0.985 . S
H1274 N1268 0.984 . S
H1275 N1268 0.984 . S
H1276 N1264 0.984 . S
H1277 N1264 0.985 . S
C1278 C1279 1.363 . S
C1278 C1284 1.379 . S
C1278 N1286 1.356 . S
C1279 C1278 1.363 . S
C1279 C1285 1.363 . S
C1280 C1281 1.363 . S
C1280 C1285 1.379 . S
C1280 N1287 1.356 . S
C1281 C1280 1.363 . S
C1281 C1284 1.363 . S
N1282 C1284 1.356 . S
N1282 H1294 0.984 . S
N1282 H1295 0.985 . S
N1283 C1285 1.356 . S
N1283 H1288 0.984 . S
N1283 H1289 0.985 . S
C1284 C1278 1.379 . S
C1284 C1281 1.363 . S
C1284 N1282 1.356 . S
C1285 C1279 1.363 . S
C1285 C1280 1.379 . S
C1285 N1283 1.356 . S
N1286 C1278 1.356 . S
N1286 H1292 0.984 . S
N1286 H1293 0.984 . S
N1287 C1280 1.356 . S
N1287 H1290 0.984 . S
N1287 H1291 0.985 . S
H1288 N1283 0.984 . S
H1289 N1283 0.985 . S
H1290 N1287 0.984 . S
H1291 N1287 0.985 . S
H1292 N1286 0.984 . S
H1293 N1286 0.984 . S
H1294 N1282 0.984 . S
H1295 N1282 0.985 . S
C1296 C1297 1.363 . S
C1296 C1302 1.379 . S
C1296 N1304 1.356 . S
C1297 C1296 1.363 . S
C1297 C1303 1.363 . S
C1298 C1299 1.363 . S
C1298 C1303 1.379 . S
C1298 N1305 1.356 . S
C1299 C1298 1.363 . S
C1299 C1302 1.363 . S
N1300 C1302 1.356 . S
N1300 H1312 0.984 . S
N1300 H1313 0.985 . S
N1301 C1303 1.356 . S
N1301 H1306 0.984 . S
N1301 H1307 0.985 . S
C1302 C1296 1.379 . S
C1302 C1299 1.363 . S
C1302 N1300 1.356 . S
C1303 C1297 1.363 . S
C1303 C1298 1.379 . S
C1303 N1301 1.356 . S
N1304 C1296 1.356 . S
N1304 H1310 0.984 1_554 S
N1304 H1311 0.984 . S
N1305 C1298 1.356 . S
N1305 H1308 0.984 . S
N1305 H1309 0.985 . S
H1306 N1301 0.984 . S
H1307 N1301 0.985 . S
H1308 N1305 0.984 . S
H1309 N1305 0.985 . S
H1310 N1304 0.984 1_556 S
H1311 N1304 0.984 . S
H1312 N1300 0.984 . S
H1313 N1300 0.985 . S
C1314 C1315 1.363 . S
C1314 C1320 1.379 . S
C1314 N1322 1.356 . S
C1315 C1314 1.363 . S
C1315 C1321 1.363 . S
C1316 C1317 1.363 . S
C1316 C1321 1.379 . S
C1316 N1323 1.356 . S
C1317 C1316 1.363 . S
C1317 C1320 1.363 . S
N1318 C1320 1.356 . S
N1318 H1330 0.984 . S
N1318 H1331 0.985 . S
N1319 C1321 1.356 . S
N1319 H1324 0.984 . S
N1319 H1325 0.985 . S
C1320 C1314 1.379 . S
C1320 C1317 1.363 . S
C1320 N1318 1.356 . S
C1321 C1315 1.363 . S
C1321 C1316 1.379 . S
C1321 N1319 1.356 . S
N1322 C1314 1.356 . S
N1322 H1328 0.984 . S
N1322 H1329 0.984 . S
N1323 C1316 1.356 . S
N1323 H1326 0.984 . S
N1323 H1327 0.985 . S
H1324 N1319 0.984 . S
H1325 N1319 0.985 . S
H1326 N1323 0.984 . S
H1327 N1323 0.985 . S
H1328 N1322 0.984 . S
H1329 N1322 0.984 . S
H1330 N1318 0.984 . S
H1331 N1318 0.985 . S
C1332 C1333 1.363 . S
C1332 C1338 1.379 1_455 S
C1332 N1340 1.356 . S
C1333 C1332 1.363 . S
C1333 C1339 1.363 . S
C1334 C1335 1.363 . S
C1334 C1339 1.379 1_655 S
C1334 N1341 1.356 . S
C1335 C1334 1.363 . S
C1335 C1338 1.363 . S
N1336 C1338 1.356 . S
N1336 H1348 0.984 . S
N1336 H1349 0.985 . S
N1337 C1339 1.356 . S
N1337 H1342 0.984 . S
N1337 H1343 0.985 . S
C1338 C1332 1.379 1_655 S
C1338 C1335 1.363 . S
C1338 N1336 1.356 . S
C1339 C1333 1.363 . S
C1339 C1334 1.379 1_455 S
C1339 N1337 1.356 . S
N1340 C1332 1.356 . S
N1340 H1346 0.984 . S
N1340 H1347 0.984 . S
N1341 C1334 1.356 . S
N1341 H1344 0.984 . S
N1341 H1345 0.985 . S
H1342 N1337 0.984 . S
H1343 N1337 0.985 . S
H1344 N1341 0.984 . S
H1345 N1341 0.985 . S
H1346 N1340 0.984 . S
H1347 N1340 0.984 . S
H1348 N1336 0.984 . S
H1349 N1336 0.985 . S
C1350 C1351 1.363 . S
C1350 C1356 1.379 . S
C1350 N1358 1.356 . S
C1351 C1350 1.363 . S
C1351 C1357 1.363 . S
C1352 C1353 1.363 . S
C1352 C1357 1.379 . S
C1352 N1359 1.356 . S
C1353 C1352 1.363 . S
C1353 C1356 1.363 . S
N1354 C1356 1.356 . S
N1354 H1366 0.984 . S
N1354 H1367 0.985 . S
N1355 C1357 1.356 . S
N1355 H1360 0.984 . S
N1355 H1361 0.985 . S
C1356 C1350 1.379 . S
C1356 C1353 1.363 . S
C1356 N1354 1.356 . S
C1357 C1351 1.363 . S
C1357 C1352 1.379 . S
C1357 N1355 1.356 . S
N1358 C1350 1.356 . S
N1358 H1364 0.984 . S
N1358 H1365 0.984 . S
N1359 C1352 1.356 . S
N1359 H1362 0.984 . S
N1359 H1363 0.985 . S
H1360 N1355 0.984 . S
H1361 N1355 0.985 . S
H1362 N1359 0.984 . S
H1363 N1359 0.985 . S
H1364 N1358 0.984 . S
H1365 N1358 0.984 . S
H1366 N1354 0.984 . S
H1367 N1354 0.985 . S
C1368 C1369 1.363 . S
C1368 C1374 1.379 1_545 S
C1368 N1376 1.356 . S
C1369 C1368 1.363 . S
C1369 C1375 1.363 . S
C1370 C1371 1.363 . S
C1370 C1375 1.379 1_565 S
C1370 N1377 1.356 . S
C1371 C1370 1.363 . S
C1371 C1374 1.363 . S
N1372 C1374 1.356 . S
N1372 H1384 0.984 . S
N1372 H1385 0.985 . S
N1373 C1375 1.356 . S
N1373 H1378 0.984 . S
N1373 H1379 0.985 . S
C1374 C1368 1.379 1_565 S
C1374 C1371 1.363 . S
C1374 N1372 1.356 . S
C1375 C1369 1.363 . S
C1375 C1370 1.379 1_545 S
C1375 N1373 1.356 . S
N1376 C1368 1.356 . S
N1376 H1382 0.984 . S
N1376 H1383 0.984 . S
N1377 C1370 1.356 . S
N1377 H1380 0.984 . S
N1377 H1381 0.985 . S
H1378 N1373 0.984 . S
H1379 N1373 0.985 . S
H1380 N1377 0.984 . S
H1381 N1377 0.985 . S
H1382 N1376 0.984 . S
H1383 N1376 0.984 . S
H1384 N1372 0.984 . S
H1385 N1372 0.985 . S
C1386 C1387 1.363 . S
C1386 C1392 1.379 1_545 S
C1386 N1394 1.356 . S
C1387 C1386 1.363 . S
C1387 C1393 1.363 . S
C1388 C1389 1.363 . S
C1388 C1393 1.379 1_565 S
C1388 N1395 1.356 . S
C1389 C1388 1.363 . S
C1389 C1392 1.363 . S
N1390 C1392 1.356 . S
N1390 H1402 0.984 . S
N1390 H1403 0.985 . S
N1391 C1393 1.356 . S
N1391 H1396 0.984 . S
N1391 H1397 0.985 . S
C1392 C1386 1.379 1_565 S
C1392 C1389 1.363 . S
C1392 N1390 1.356 . S
C1393 C1387 1.363 . S
C1393 C1388 1.379 1_545 S
C1393 N1391 1.356 . S
N1394 C1386 1.356 . S
N1394 H1400 0.984 . S
N1394 H1401 0.984 . S
N1395 C1388 1.356 . S
N1395 H1398 0.984 . S
N1395 H1399 0.985 . S
H1396 N1391 0.984 . S
H1397 N1391 0.985 . S
H1398 N1395 0.984 . S
H1399 N1395 0.985 . S
H1400 N1394 0.984 . S
H1401 N1394 0.984 . S
H1402 N1390 0.984 . S
H1403 N1390 0.985 . S
C1404 C1405 1.363 . S
C1404 C1410 1.379 1_655 S
C1404 N1412 1.356 . S
C1405 C1404 1.363 . S
C1405 C1411 1.363 . S
C1406 C1407 1.363 . S
C1406 C1411 1.379 1_455 S
C1406 N1413 1.356 . S
C1407 C1406 1.363 . S
C1407 C1410 1.363 . S
N1408 C1410 1.356 . S
N1408 H1420 0.984 . S
N1408 H1421 0.985 . S
N1409 C1411 1.356 . S
N1409 H1414 0.984 . S
N1409 H1415 0.985 . S
C1410 C1404 1.379 1_455 S
C1410 C1407 1.363 . S
C1410 N1408 1.356 . S
C1411 C1405 1.363 . S
C1411 C1406 1.379 1_655 S
C1411 N1409 1.356 . S
N1412 C1404 1.356 . S
N1412 H1418 0.984 . S
N1412 H1419 0.984 . S
N1413 C1406 1.356 . S
N1413 H1416 0.984 . S
N1413 H1417 0.985 . S
H1414 N1409 0.984 . S
H1415 N1409 0.985 . S
H1416 N1413 0.984 . S
H1417 N1413 0.985 . S
H1418 N1412 0.984 . S
H1419 N1412 0.984 . S
H1420 N1408 0.984 . S
H1421 N1408 0.985 . S
C1422 C1423 1.363 . S
C1422 C1428 1.379 . S
C1422 N1430 1.356 . S
C1423 C1422 1.363 . S
C1423 C1429 1.363 . S
C1424 C1425 1.363 . S
C1424 C1429 1.379 . S
C1424 N1431 1.356 . S
C1425 C1424 1.363 . S
C1425 C1428 1.363 . S
N1426 C1428 1.356 . S
N1426 H1438 0.984 . S
N1426 H1439 0.985 . S
N1427 C1429 1.356 . S
N1427 H1432 0.984 . S
N1427 H1433 0.985 . S
C1428 C1422 1.379 . S
C1428 C1425 1.363 . S
C1428 N1426 1.356 . S
C1429 C1423 1.363 . S
C1429 C1424 1.379 . S
C1429 N1427 1.356 . S
N1430 C1422 1.356 . S
N1430 H1436 0.984 . S
N1430 H1437 0.984 . S
N1431 C1424 1.356 . S
N1431 H1434 0.984 . S
N1431 H1435 0.985 . S
H1432 N1427 0.984 . S
H1433 N1427 0.985 . S
H1434 N1431 0.984 . S
H1435 N1431 0.985 . S
H1436 N1430 0.984 . S
H1437 N1430 0.984 . S
H1438 N1426 0.984 . S
H1439 N1426 0.985 . S
C1440 C1441 1.363 . S
C1440 C1446 1.379 . S
C1440 N1448 1.356 . S
C1441 C1440 1.363 . S
C1441 C1447 1.363 . S
C1442 C1443 1.363 . S
C1442 C1447 1.379 . S
C1442 N1449 1.356 . S
C1443 C1442 1.363 . S
C1443 C1446 1.363 . S
N1444 C1446 1.356 . S
N1444 H1456 0.984 . S
N1444 H1457 0.985 . S
N1445 C1447 1.356 . S
N1445 H1450 0.984 . S
N1445 H1451 0.985 . S
C1446 C1440 1.379 . S
C1446 C1443 1.363 . S
C1446 N1444 1.356 . S
C1447 C1441 1.363 . S
C1447 C1442 1.379 . S
C1447 N1445 1.356 . S
N1448 C1440 1.356 . S
N1448 H1454 0.984 . S
N1448 H1455 0.984 . S
N1449 C1442 1.356 . S
N1449 H1452 0.984 . S
N1449 H1453 0.985 . S
H1450 N1445 0.984 . S
H1451 N1445 0.985 . S
H1452 N1449 0.984 . S
H1453 N1449 0.985 . S
H1454 N1448 0.984 . S
H1455 N1448 0.984 . S
H1456 N1444 0.984 . S
H1457 N1444 0.985 . S
C1458 C1459 1.363 . S
C1458 C1464 1.379 . S
C1458 N1466 1.356 . S
C1459 C1458 1.363 . S
C1459 C1465 1.363 . S
C1460 C1461 1.363 . S
C1460 C1465 1.379 . S
C1460 N1467 1.356 . S
C1461 C1460 1.363 . S
C1461 C1464 1.363 . S
N1462 C1464 1.356 . S
N1462 H1474 0.984 . S
N1462 H1475 0.985 . S
N1463 C1465 1.356 . S
N1463 H1468 0.984 . S
N1463 H1469 0.985 . S
C1464 C1458 1.379 . S
C1464 C1461 1.363 . S
C1464 N1462 1.356 . S
C1465 C1459 1.363 . S
C1465 C1460 1.379 . S
C1465 N1463 1.356 . S
N1466 C1458 1.356 . S
N1466 H1472 0.984 . S
N1466 H1473 0.984 . S
N1467 C1460 1.356 . S
N1467 H1470 0.984 . S
N1467 H1471 0.985 . S
H1468 N1463 0.984 . S
H1469 N1463 0.985 . S
H1470 N1467 0.984 . S
H1471 N1467 0.985 . S
H1472 N1466 0.984 . S
H1473 N1466 0.984 . S
H1474 N1462 0.984 . S
H1475 N1462 0.985 . S
C1476 C1477 1.363 . S
C1476 C1482 1.379 . S
C1476 N1484 1.356 . S
C1477 C1476 1.363 . S
C1477 C1483 1.363 . S
C1478 C1479 1.363 . S
C1478 C1483 1.379 . S
C1478 N1485 1.356 . S
C1479 C1478 1.363 . S
C1479 C1482 1.363 . S
N1480 C1482 1.356 . S
N1480 H1492 0.984 . S
N1480 H1493 0.985 . S
N1481 C1483 1.356 . S
N1481 H1486 0.984 . S
N1481 H1487 0.985 . S
C1482 C1476 1.379 . S
C1482 C1479 1.363 . S
C1482 N1480 1.356 . S
C1483 C1477 1.363 . S
C1483 C1478 1.379 . S
C1483 N1481 1.356 . S
N1484 C1476 1.356 . S
N1484 H1490 0.984 . S
N1484 H1491 0.984 . S
N1485 C1478 1.356 . S
N1485 H1488 0.984 . S
N1485 H1489 0.985 . S
H1486 N1481 0.984 . S
H1487 N1481 0.985 . S
H1488 N1485 0.984 . S
H1489 N1485 0.985 . S
H1490 N1484 0.984 . S
H1491 N1484 0.984 . S
H1492 N1480 0.984 . S
H1493 N1480 0.985 . S
C1494 C1495 1.363 . S
C1494 C1500 1.379 . S
C1494 N1502 1.356 . S
C1495 C1494 1.363 . S
C1495 C1501 1.363 . S
C1496 C1497 1.363 . S
C1496 C1501 1.379 . S
C1496 N1503 1.356 . S
C1497 C1496 1.363 . S
C1497 C1500 1.363 . S
N1498 C1500 1.356 . S
N1498 H1510 0.984 . S
N1498 H1511 0.985 . S
N1499 C1501 1.356 . S
N1499 H1504 0.984 . S
N1499 H1505 0.985 . S
C1500 C1494 1.379 . S
C1500 C1497 1.363 . S
C1500 N1498 1.356 . S
C1501 C1495 1.363 . S
C1501 C1496 1.379 . S
C1501 N1499 1.356 . S
N1502 C1494 1.356 . S
N1502 H1508 0.984 . S
N1502 H1509 0.984 . S
N1503 C1496 1.356 . S
N1503 H1506 0.984 . S
N1503 H1507 0.985 . S
H1504 N1499 0.984 . S
H1505 N1499 0.985 . S
H1506 N1503 0.984 . S
H1507 N1503 0.985 . S
H1508 N1502 0.984 . S
H1509 N1502 0.984 . S
H1510 N1498 0.984 . S
H1511 N1498 0.985 . S
C1512 C1513 1.363 . S
C1512 C1518 1.379 . S
C1512 N1520 1.356 . S
C1513 C1512 1.363 . S
C1513 C1519 1.363 . S
C1514 C1515 1.363 . S
C1514 C1519 1.379 . S
C1514 N1521 1.356 . S
C1515 C1514 1.363 . S
C1515 C1518 1.363 . S
N1516 C1518 1.356 . S
N1516 H1528 0.984 . S
N1516 H1529 0.985 . S
N1517 C1519 1.356 . S
N1517 H1522 0.984 . S
N1517 H1523 0.985 . S
C1518 C1512 1.379 . S
C1518 C1515 1.363 . S
C1518 N1516 1.356 . S
C1519 C1513 1.363 . S
C1519 C1514 1.379 . S
C1519 N1517 1.356 . S
N1520 C1512 1.356 . S
N1520 H1526 0.984 . S
N1520 H1527 0.984 . S
N1521 C1514 1.356 . S
N1521 H1524 0.984 . S
N1521 H1525 0.985 . S
H1522 N1517 0.984 . S
H1523 N1517 0.985 . S
H1524 N1521 0.984 . S
H1525 N1521 0.985 . S
H1526 N1520 0.984 . S
H1527 N1520 0.984 . S
H1528 N1516 0.984 . S
H1529 N1516 0.985 . S
C1530 C1531 1.363 . S
C1530 C1536 1.379 . S
C1530 N1538 1.356 . S
C1531 C1530 1.363 . S
C1531 C1537 1.363 . S
C1532 C1533 1.363 . S
C1532 C1537 1.379 . S
C1532 N1539 1.356 . S
C1533 C1532 1.363 . S
C1533 C1536 1.363 . S
N1534 C1536 1.356 . S
N1534 H1546 0.984 . S
N1534 H1547 0.985 . S
N1535 C1537 1.356 . S
N1535 H1540 0.984 . S
N1535 H1541 0.985 . S
C1536 C1530 1.379 . S
C1536 C1533 1.363 . S
C1536 N1534 1.356 . S
C1537 C1531 1.363 . S
C1537 C1532 1.379 . S
C1537 N1535 1.356 . S
N1538 C1530 1.356 . S
N1538 H1544 0.984 . S
N1538 H1545 0.984 . S
N1539 C1532 1.356 . S
N1539 H1542 0.984 . S
N1539 H1543 0.985 . S
H1540 N1535 0.984 . S
H1541 N1535 0.985 . S
H1542 N1539 0.984 . S
H1543 N1539 0.985 . S
H1544 N1538 0.984 . S
H1545 N1538 0.984 . S
H1546 N1534 0.984 . S
H1547 N1534 0.985 . S
C1548 C1549 1.363 . S
C1548 C1554 1.379 . S
C1548 N1556 1.356 . S
C1549 C1548 1.363 . S
C1549 C1555 1.363 . S
C1550 C1551 1.363 . S
C1550 C1555 1.379 . S
C1550 N1557 1.356 . S
C1551 C1550 1.363 . S
C1551 C1554 1.363 . S
N1552 C1554 1.356 . S
N1552 H1564 0.984 . S
N1552 H1565 0.985 . S
N1553 C1555 1.356 . S
N1553 H1558 0.984 . S
N1553 H1559 0.985 . S
C1554 C1548 1.379 . S
C1554 C1551 1.363 . S
C1554 N1552 1.356 . S
C1555 C1549 1.363 . S
C1555 C1550 1.379 . S
C1555 N1553 1.356 . S
N1556 C1548 1.356 . S
N1556 H1562 0.984 . S
N1556 H1563 0.984 . S
N1557 C1550 1.356 . S
N1557 H1560 0.984 . S
N1557 H1561 0.985 . S
H1558 N1553 0.984 . S
H1559 N1553 0.985 . S
H1560 N1557 0.984 . S
H1561 N1557 0.985 . S
H1562 N1556 0.984 . S
H1563 N1556 0.984 . S
H1564 N1552 0.984 . S
H1565 N1552 0.985 . S
C1566 C1567 1.363 . S
C1566 C1572 1.379 . S
C1566 N1574 1.356 . S
C1567 C1566 1.363 . S
C1567 C1573 1.363 . S
C1568 C1569 1.363 . S
C1568 C1573 1.379 . S
C1568 N1575 1.356 . S
C1569 C1568 1.363 . S
C1569 C1572 1.363 . S
N1570 C1572 1.356 . S
N1570 H1582 0.984 . S
N1570 H1583 0.985 . S
N1571 C1573 1.356 . S
N1571 H1576 0.984 . S
N1571 H1577 0.985 . S
C1572 C1566 1.379 . S
C1572 C1569 1.363 . S
C1572 N1570 1.356 . S
C1573 C1567 1.363 . S
C1573 C1568 1.379 . S
C1573 N1571 1.356 . S
N1574 C1566 1.356 . S
N1574 H1580 0.984 . S
N1574 H1581 0.984 . S
N1575 C1568 1.356 . S
N1575 H1578 0.984 . S
N1575 H1579 0.985 . S
H1576 N1571 0.984 . S
H1577 N1571 0.985 . S
H1578 N1575 0.984 . S
H1579 N1575 0.985 . S
H1580 N1574 0.984 . S
H1581 N1574 0.984 . S
H1582 N1570 0.984 . S
H1583 N1570 0.985 . S
C1584 C1585 1.363 . S
C1584 C1590 1.379 . S
C1584 N1592 1.356 . S
C1585 C1584 1.363 . S
C1585 C1591 1.363 . S
C1586 C1587 1.363 . S
C1586 C1591 1.379 . S
C1586 N1593 1.356 . S
C1587 C1586 1.363 . S
C1587 C1590 1.363 . S
N1588 C1590 1.356 . S
N1588 H1600 0.984 . S
N1588 H1601 0.985 . S
N1589 C1591 1.356 . S
N1589 H1594 0.984 . S
N1589 H1595 0.985 . S
C1590 C1584 1.379 . S
C1590 C1587 1.363 . S
C1590 N1588 1.356 . S
C1591 C1585 1.363 . S
C1591 C1586 1.379 . S
C1591 N1589 1.356 . S
N1592 C1584 1.356 . S
N1592 H1598 0.984 . S
N1592 H1599 0.984 . S
N1593 C1586 1.356 . S
N1593 H1596 0.984 . S
N1593 H1597 0.985 . S
H1594 N1589 0.984 . S
H1595 N1589 0.985 . S
H1596 N1593 0.984 . S
H1597 N1593 0.985 . S
H1598 N1592 0.984 . S
H1599 N1592 0.984 . S
H1600 N1588 0.984 . S
H1601 N1588 0.985 . S
C1602 C1603 1.363 . S
C1602 C1608 1.379 . S
C1602 N1610 1.356 . S
C1603 C1602 1.363 . S
C1603 C1609 1.363 . S
C1604 C1605 1.363 . S
C1604 C1609 1.379 . S
C1604 N1611 1.356 . S
C1605 C1604 1.363 . S
C1605 C1608 1.363 . S
N1606 C1608 1.356 . S
N1606 H1618 0.984 . S
N1606 H1619 0.985 . S
N1607 C1609 1.356 . S
N1607 H1612 0.984 . S
N1607 H1613 0.985 . S
C1608 C1602 1.379 . S
C1608 C1605 1.363 . S
C1608 N1606 1.356 . S
C1609 C1603 1.363 . S
C1609 C1604 1.379 . S
C1609 N1607 1.356 . S
N1610 C1602 1.356 . S
N1610 H1616 0.984 . S
N1610 H1617 0.984 . S
N1611 C1604 1.356 . S
N1611 H1614 0.984 . S
N1611 H1615 0.985 . S
H1612 N1607 0.984 . S
H1613 N1607 0.985 . S
H1614 N1611 0.984 . S
H1615 N1611 0.985 . S
H1616 N1610 0.984 . S
H1617 N1610 0.984 . S
H1618 N1606 0.984 . S
H1619 N1606 0.985 . S
C1620 C1621 1.363 . S
C1620 C1626 1.379 . S
C1620 N1628 1.356 . S
C1621 C1620 1.363 . S
C1621 C1627 1.363 . S
C1622 C1623 1.363 . S
C1622 C1627 1.379 . S
C1622 N1629 1.356 . S
C1623 C1622 1.363 . S
C1623 C1626 1.363 . S
N1624 C1626 1.356 . S
N1624 H1636 0.984 1_554 S
N1624 H1637 0.985 . S
N1625 C1627 1.356 . S
N1625 H1630 0.984 . S
N1625 H1631 0.985 . S
C1626 C1620 1.379 . S
C1626 C1623 1.363 . S
C1626 N1624 1.356 . S
C1627 C1621 1.363 . S
C1627 C1622 1.379 . S
C1627 N1625 1.356 . S
N1628 C1620 1.356 . S
N1628 H1634 0.984 1_554 S
N1628 H1635 0.984 . S
N1629 C1622 1.356 . S
N1629 H1632 0.984 . S
N1629 H1633 0.985 . S
H1630 N1625 0.984 . S
H1631 N1625 0.985 . S
H1632 N1629 0.984 . S
H1633 N1629 0.985 . S
H1634 N1628 0.984 1_556 S
H1635 N1628 0.984 . S
H1636 N1624 0.984 1_556 S
H1637 N1624 0.985 . S
C1638 C1639 1.363 . S
C1638 C1644 1.379 . S
C1638 N1646 1.356 . S
C1639 C1638 1.363 . S
C1639 C1645 1.363 . S
C1640 C1641 1.363 . S
C1640 C1645 1.379 . S
C1640 N1647 1.356 . S
C1641 C1640 1.363 . S
C1641 C1644 1.363 . S
N1642 C1644 1.356 . S
N1642 H1654 0.984 1_554 S
N1642 H1655 0.985 . S
N1643 C1645 1.356 . S
N1643 H1648 0.984 . S
N1643 H1649 0.985 . S
C1644 C1638 1.379 . S
C1644 C1641 1.363 . S
C1644 N1642 1.356 . S
C1645 C1639 1.363 . S
C1645 C1640 1.379 . S
C1645 N1643 1.356 . S
N1646 C1638 1.356 . S
N1646 H1652 0.984 1_554 S
N1646 H1653 0.984 . S
N1647 C1640 1.356 . S
N1647 H1650 0.984 . S
N1647 H1651 0.985 . S
H1648 N1643 0.984 . S
H1649 N1643 0.985 . S
H1650 N1647 0.984 . S
H1651 N1647 0.985 . S
H1652 N1646 0.984 1_556 S
H1653 N1646 0.984 . S
H1654 N1642 0.984 1_556 S
H1655 N1642 0.985 . S
C1656 C1657 1.363 . S
C1656 C1662 1.379 . S
C1656 N1664 1.356 . S
C1657 C1656 1.363 . S
C1657 C1663 1.363 . S
C1658 C1659 1.363 . S
C1658 C1663 1.379 . S
C1658 N1665 1.356 . S
C1659 C1658 1.363 . S
C1659 C1662 1.363 . S
N1660 C1662 1.356 . S
N1660 H1672 0.984 . S
N1660 H1673 0.985 . S
N1661 C1663 1.356 . S
N1661 H1666 0.984 . S
N1661 H1667 0.985 1_556 S
C1662 C1656 1.379 . S
C1662 C1659 1.363 . S
C1662 N1660 1.356 . S
C1663 C1657 1.363 . S
C1663 C1658 1.379 . S
C1663 N1661 1.356 . S
N1664 C1656 1.356 . S
N1664 H1670 0.984 . S
N1664 H1671 0.984 . S
N1665 C1658 1.356 . S
N1665 H1668 0.984 . S
N1665 H1669 0.985 1_556 S
H1666 N1661 0.984 . S
H1667 N1661 0.985 1_554 S
H1668 N1665 0.984 . S
H1669 N1665 0.985 1_554 S
H1670 N1664 0.984 . S
H1671 N1664 0.984 . S
H1672 N1660 0.984 . S
H1673 N1660 0.985 . S
C1674 C1675 1.363 . S
C1674 C1680 1.379 . S
C1674 N1682 1.356 . S
C1675 C1674 1.363 . S
C1675 C1681 1.363 . S
C1676 C1677 1.363 . S
C1676 C1681 1.379 . S
C1676 N1683 1.356 . S
C1677 C1676 1.363 . S
C1677 C1680 1.363 . S
N1678 C1680 1.356 . S
N1678 H1690 0.984 1_556 S
N1678 H1691 0.985 . S
N1679 C1681 1.356 . S
N1679 H1684 0.984 . S
N1679 H1685 0.985 . S
C1680 C1674 1.379 . S
C1680 C1677 1.363 . S
C1680 N1678 1.356 . S
C1681 C1675 1.363 . S
C1681 C1676 1.379 . S
C1681 N1679 1.356 . S
N1682 C1674 1.356 . S
N1682 H1688 0.984 1_556 S
N1682 H1689 0.984 . S
N1683 C1676 1.356 . S
N1683 H1686 0.984 . S
N1683 H1687 0.985 . S
H1684 N1679 0.984 . S
H1685 N1679 0.985 . S
H1686 N1683 0.984 . S
H1687 N1683 0.985 . S
H1688 N1682 0.984 1_554 S
H1689 N1682 0.984 . S
H1690 N1678 0.984 1_554 S
H1691 N1678 0.985 . S
C1692 C1693 1.363 . S
C1692 C1698 1.379 . S
C1692 N1700 1.356 . S
C1693 C1692 1.363 . S
C1693 C1699 1.363 . S
C1694 C1695 1.363 . S
C1694 C1699 1.379 . S
C1694 N1701 1.356 . S
C1695 C1694 1.363 . S
C1695 C1698 1.363 . S
N1696 C1698 1.356 . S
N1696 H1708 0.984 . S
N1696 H1709 0.985 . S
N1697 C1699 1.356 . S
N1697 H1702 0.984 . S
N1697 H1703 0.985 . S
C1698 C1692 1.379 . S
C1698 C1695 1.363 . S
C1698 N1696 1.356 . S
C1699 C1693 1.363 . S
C1699 C1694 1.379 . S
C1699 N1697 1.356 . S
N1700 C1692 1.356 . S
N1700 H1706 0.984 . S
N1700 H1707 0.984 . S
N1701 C1694 1.356 . S
N1701 H1704 0.984 . S
N1701 H1705 0.985 . S
H1702 N1697 0.984 . S
H1703 N1697 0.985 . S
H1704 N1701 0.984 . S
H1705 N1701 0.985 . S
H1706 N1700 0.984 . S
H1707 N1700 0.984 . S
H1708 N1696 0.984 . S
H1709 N1696 0.985 . S
C1710 C1711 1.363 . S
C1710 C1716 1.379 . S
C1710 N1718 1.356 . S
C1711 C1710 1.363 . S
C1711 C1717 1.363 . S
C1712 C1713 1.363 . S
C1712 C1717 1.379 . S
C1712 N1719 1.356 . S
C1713 C1712 1.363 . S
C1713 C1716 1.363 . S
N1714 C1716 1.356 . S
N1714 H1726 0.984 . S
N1714 H1727 0.985 . S
N1715 C1717 1.356 . S
N1715 H1720 0.984 . S
N1715 H1721 0.985 . S
C1716 C1710 1.379 . S
C1716 C1713 1.363 . S
C1716 N1714 1.356 . S
C1717 C1711 1.363 . S
C1717 C1712 1.379 . S
C1717 N1715 1.356 . S
N1718 C1710 1.356 . S
N1718 H1724 0.984 . S
N1718 H1725 0.984 . S
N1719 C1712 1.356 . S
N1719 H1722 0.984 . S
N1719 H1723 0.985 . S
H1720 N1715 0.984 . S
H1721 N1715 0.985 . S
H1722 N1719 0.984 . S
H1723 N1719 0.985 . S
H1724 N1718 0.984 . S
H1725 N1718 0.984 . S
H1726 N1714 0.984 . S
H1727 N1714 0.985 . S
C1728 C1729 1.363 . S
C1728 C1734 1.379 . S
C1728 N1736 1.356 . S
C1729 C1728 1.363 . S
C1729 C1735 1.363 . S
C1730 C1731 1.363 . S
C1730 C1735 1.379 . S
C1730 N1737 1.356 . S
C1731 C1730 1.363 . S
C1731 C1734 1.363 . S
N1732 C1734 1.356 . S
N1732 H1744 0.984 . S
N1732 H1745 0.985 . S
N1733 C1735 1.356 . S
N1733 H1738 0.984 . S
N1733 H1739 0.985 . S
C1734 C1728 1.379 . S
C1734 C1731 1.363 . S
C1734 N1732 1.356 . S
C1735 C1729 1.363 . S
C1735 C1730 1.379 . S
C1735 N1733 1.356 . S
N1736 C1728 1.356 . S
N1736 H1742 0.984 . S
N1736 H1743 0.984 . S
N1737 C1730 1.356 . S
N1737 H1740 0.984 . S
N1737 H1741 0.985 . S
H1738 N1733 0.984 . S
H1739 N1733 0.985 . S
H1740 N1737 0.984 . S
H1741 N1737 0.985 . S
H1742 N1736 0.984 . S
H1743 N1736 0.984 . S
H1744 N1732 0.984 . S
H1745 N1732 0.985 . S
C1746 C1747 1.363 . S
C1746 C1752 1.379 . S
C1746 N1754 1.356 . S
C1747 C1746 1.363 . S
C1747 C1753 1.363 . S
C1748 C1749 1.363 . S
C1748 C1753 1.379 . S
C1748 N1755 1.356 . S
C1749 C1748 1.363 . S
C1749 C1752 1.363 . S
N1750 C1752 1.356 . S
N1750 H1762 0.984 . S
N1750 H1763 0.985 . S
N1751 C1753 1.356 . S
N1751 H1756 0.984 . S
N1751 H1757 0.985 . S
C1752 C1746 1.379 . S
C1752 C1749 1.363 . S
C1752 N1750 1.356 . S
C1753 C1747 1.363 . S
C1753 C1748 1.379 . S
C1753 N1751 1.356 . S
N1754 C1746 1.356 . S
N1754 H1760 0.984 . S
N1754 H1761 0.984 . S
N1755 C1748 1.356 . S
N1755 H1758 0.984 . S
N1755 H1759 0.985 . S
H1756 N1751 0.984 . S
H1757 N1751 0.985 . S
H1758 N1755 0.984 . S
H1759 N1755 0.985 . S
H1760 N1754 0.984 . S
H1761 N1754 0.984 . S
H1762 N1750 0.984 . S
H1763 N1750 0.985 . S
C469 C65 1.513 . S
C471 C0 1.513 . S
C487 C39 1.513 . S
C489 C13 1.513 . S
C505 C26 1.513 . S
C507 C52 1.513 . S
C523 C78 1.513 . S
C525 C143 1.513 . S
C541 C91 1.513 . S
C543 C117 1.513 . S
C559 C130 1.513 . S
C561 C104 1.513 . S
C577 C156 1.513 . S
C579 C221 1.513 . S
C595 C169 1.513 . S
C597 C195 1.513 . S
C613 C182 1.513 . S
C615 C208 1.513 . S
C631 C299 1.513 . S
C633 C234 1.513 . S
C649 C247 1.513 . S
C651 C273 1.513 . S
C667 C286 1.513 . S
C669 C260 1.513 . S
C685 C377 1.513 . S
C687 C312 1.513 . S
C703 C351 1.513 . S
C705 C325 1.513 . S
C721 C364 1.513 . S
C723 C338 1.513 . S
C739 C390 1.513 . S
C741 C455 1.513 . S
C757 C403 1.513 . S
C759 C429 1.513 . S
C775 C416 1.513 . S
C777 C442 1.513 . S
C793 C73 1.302 . S
C795 C8 1.302 . S
C811 C21 1.302 . S
C813 C47 1.302 . S
C829 C60 1.302 . S
C831 C34 1.302 . S
C847 C86 1.302 . S
C849 C151 1.302 . S
C865 C99 1.302 . S
C867 C125 1.302 . S
C883 C138 1.302 . S
C885 C112 1.302 . S
C901 C164 1.302 . S
C903 C229 1.302 . S
C919 C203 1.302 . S
C921 C177 1.302 . S
C937 C216 1.302 . S
C939 C190 1.302 . S
C955 C242 1.302 . S
C957 C307 1.302 . S
C973 C255 1.302 . S
C975 C281 1.302 . S
C991 C294 1.302 . S
C993 C268 1.302 . S
C1009 C385 1.302 . S
C1011 C320 1.302 . S
C1027 C333 1.302 . S
C1029 C359 1.302 . S
C1045 C346 1.302 . S
C1047 C372 1.302 . S
C1063 C463 1.302 . S
C1065 C398 1.302 . S
C1081 C437 1.302 . S
C1083 C411 1.302 . S
C1099 C450 1.302 . S
C1101 C424 1.302 . S
C1117 C213 1.545 . S
C1119 C5 1.545 . S
C1135 C226 1.545 . S
C1137 C18 1.545 . S
C1153 C200 1.545 . S
C1155 C31 1.545 . S
C1171 C44 1.545 . S
C1173 C343 1.545 . S
C1189 C57 1.545 . S
C1191 C317 1.545 . S
C1207 C70 1.545 . S
C1209 C330 1.545 . S
C1225 C83 1.545 . S
C1227 C447 1.545 . S
C1243 C96 1.545 . S
C1245 C460 1.545 . S
C1261 C109 1.545 . S
C1263 C434 1.545 . S
C1279 C122 1.545 . S
C1281 C265 1.545 . S
C1297 C239 1.545 . S
C1299 C135 1.545 . S
C1315 C252 1.545 . S
C1317 C148 1.545 . S
C1333 C369 1.545 . S
C1335 C161 1.545 . S
C1351 C174 1.545 . S
C1353 C382 1.545 . S
C1369 C187 1.545 . S
C1371 C356 1.545 . S
C1387 C278 1.545 . S
C1389 C421 1.545 . S
C1405 C291 1.545 . S
C1407 C395 1.545 . S
C1423 C408 1.545 . S
C1425 C304 1.545 . S
C1441 C10 1.364 . S
C1443 C140 1.364 . S
C1459 C153 1.364 . S
C1461 C23 1.364 . S
C1477 C127 1.364 . S
C1479 C36 1.364 . S
C1495 C49 1.364 . S
C1497 C114 1.364 . S
C1513 C62 1.364 . S
C1515 C88 1.364 . S
C1531 C75 1.364 . S
C1533 C101 1.364 . S
C1549 C166 1.364 . S
C1551 C296 1.364 . S
C1567 C309 1.364 . S
C1569 C179 1.364 . S
C1585 C283 1.364 . S
C1587 C192 1.364 . S
C1603 C205 1.364 . S
C1605 C270 1.364 . S
C1621 C218 1.364 . S
C1623 C244 1.364 . S
C1639 C257 1.364 . S
C1641 C231 1.364 . S
C1657 C322 1.364 . S
C1659 C452 1.364 . S
C1675 C465 1.364 . S
C1677 C335 1.364 . S
C1693 C348 1.364 . S
C1695 C439 1.364 . S
C1711 C361 1.364 . S
C1713 C426 1.364 . S
C1729 C400 1.364 . S
C1731 C374 1.364 . S
C1747 C387 1.364 . S
C1749 C413 1.364 . S
