# Generated by pormake.
# Topology upd, (4)-cn, num edge types: 1
# Building blocks:
#     Node 0, Type 0, BuildingBlock: ESEHIV_clean_sbu_0, # of connection points: 4
#     Node 1, Type 0, BuildingBlock: ESEHIV_clean_sbu_0, # of connection points: 4
#     Node 2, Type 0, BuildingBlock: ESEHIV_clean_sbu_0, # of connection points: 4
#     Node 3, Type 0, BuildingBlock: ESEHIV_clean_sbu_0, # of connection points: 4
#     Node 4, Type 0, BuildingBlock: ESEHIV_clean_sbu_0, # of connection points: 4
#     Node 5, Type 0, BuildingBlock: ESEHIV_clean_sbu_0, # of connection points: 4
#     Node 6, Type 0, BuildingBlock: ESEHIV_clean_sbu_0, # of connection points: 4
#     Node 7, Type 0, BuildingBlock: ESEHIV_clean_sbu_0, # of connection points: 4
#     Node 8, Type 0, BuildingBlock: ESEHIV_clean_sbu_0, # of connection points: 4
#     Node 9, Type 0, BuildingBlock: ESEHIV_clean_sbu_0, # of connection points: 4
#     Node 10, Type 0, BuildingBlock: ESEHIV_clean_sbu_0, # of connection points: 4
#     Node 11, Type 0, BuildingBlock: ESEHIV_clean_sbu_0, # of connection points: 4
#     Node 12, Type 0, BuildingBlock: ESEHIV_clean_sbu_0, # of connection points: 4
#     Node 13, Type 0, BuildingBlock: ESEHIV_clean_sbu_0, # of connection points: 4
#     Node 14, Type 0, BuildingBlock: ESEHIV_clean_sbu_0, # of connection points: 4
#     Node 15, Type 0, BuildingBlock: ESEHIV_clean_sbu_0, # of connection points: 4
#     Node 16, Type 0, BuildingBlock: ESEHIV_clean_sbu_0, # of connection points: 4
#     Node 17, Type 0, BuildingBlock: ESEHIV_clean_sbu_0, # of connection points: 4
#     Node 18, Type 0, BuildingBlock: ESEHIV_clean_sbu_0, # of connection points: 4
#     Node 19, Type 0, BuildingBlock: ESEHIV_clean_sbu_0, # of connection points: 4
#     Node 20, Type 0, BuildingBlock: ESEHIV_clean_sbu_0, # of connection points: 4
#     Node 21, Type 0, BuildingBlock: ESEHIV_clean_sbu_0, # of connection points: 4
#     Node 22, Type 0, BuildingBlock: ESEHIV_clean_sbu_0, # of connection points: 4
#     Node 23, Type 0, BuildingBlock: ESEHIV_clean_sbu_0, # of connection points: 4
#     Node 24, Type 0, BuildingBlock: ESEHIV_clean_sbu_0, # of connection points: 4
#     Node 25, Type 0, BuildingBlock: ESEHIV_clean_sbu_0, # of connection points: 4
#     Node 26, Type 0, BuildingBlock: ESEHIV_clean_sbu_0, # of connection points: 4
#     Node 27, Type 0, BuildingBlock: ESEHIV_clean_sbu_0, # of connection points: 4
#     Node 28, Type 0, BuildingBlock: ESEHIV_clean_sbu_0, # of connection points: 4
#     Node 29, Type 0, BuildingBlock: ESEHIV_clean_sbu_0, # of connection points: 4
#     Node 30, Type 0, BuildingBlock: ESEHIV_clean_sbu_0, # of connection points: 4
#     Node 31, Type 0, BuildingBlock: ESEHIV_clean_sbu_0, # of connection points: 4
#     Edge 32, Type (0, 0), BuildingBlock: XIVTED_clean_linker_0, # of connection points: 2
#     Edge 33, Type (0, 0), BuildingBlock: XIVTED_clean_linker_0, # of connection points: 2
#     Edge 34, Type (0, 0), BuildingBlock: XIVTED_clean_linker_0, # of connection points: 2
#     Edge 35, Type (0, 0), BuildingBlock: XIVTED_clean_linker_0, # of connection points: 2
#     Edge 36, Type (0, 0), BuildingBlock: XIVTED_clean_linker_0, # of connection points: 2
#     Edge 37, Type (0, 0), BuildingBlock: XIVTED_clean_linker_0, # of connection points: 2
#     Edge 38, Type (0, 0), BuildingBlock: XIVTED_clean_linker_0, # of connection points: 2
#     Edge 39, Type (0, 0), BuildingBlock: XIVTED_clean_linker_0, # of connection points: 2
#     Edge 40, Type (0, 0), BuildingBlock: XIVTED_clean_linker_0, # of connection points: 2
#     Edge 41, Type (0, 0), BuildingBlock: XIVTED_clean_linker_0, # of connection points: 2
#     Edge 42, Type (0, 0), BuildingBlock: XIVTED_clean_linker_0, # of connection points: 2
#     Edge 43, Type (0, 0), BuildingBlock: XIVTED_clean_linker_0, # of connection points: 2
#     Edge 44, Type (0, 0), BuildingBlock: XIVTED_clean_linker_0, # of connection points: 2
#     Edge 45, Type (0, 0), BuildingBlock: XIVTED_clean_linker_0, # of connection points: 2
#     Edge 46, Type (0, 0), BuildingBlock: XIVTED_clean_linker_0, # of connection points: 2
#     Edge 47, Type (0, 0), BuildingBlock: XIVTED_clean_linker_0, # of connection points: 2
#     Edge 48, Type (0, 0), BuildingBlock: XIVTED_clean_linker_0, # of connection points: 2
#     Edge 49, Type (0, 0), BuildingBlock: XIVTED_clean_linker_0, # of connection points: 2
#     Edge 50, Type (0, 0), BuildingBlock: XIVTED_clean_linker_0, # of connection points: 2
#     Edge 51, Type (0, 0), BuildingBlock: XIVTED_clean_linker_0, # of connection points: 2
#     Edge 52, Type (0, 0), BuildingBlock: XIVTED_clean_linker_0, # of connection points: 2
#     Edge 53, Type (0, 0), BuildingBlock: XIVTED_clean_linker_0, # of connection points: 2
#     Edge 54, Type (0, 0), BuildingBlock: XIVTED_clean_linker_0, # of connection points: 2
#     Edge 55, Type (0, 0), BuildingBlock: XIVTED_clean_linker_0, # of connection points: 2
#     Edge 56, Type (0, 0), BuildingBlock: XIVTED_clean_linker_0, # of connection points: 2
#     Edge 57, Type (0, 0), BuildingBlock: XIVTED_clean_linker_0, # of connection points: 2
#     Edge 58, Type (0, 0), BuildingBlock: XIVTED_clean_linker_0, # of connection points: 2
#     Edge 59, Type (0, 0), BuildingBlock: XIVTED_clean_linker_0, # of connection points: 2
#     Edge 60, Type (0, 0), BuildingBlock: XIVTED_clean_linker_0, # of connection points: 2
#     Edge 61, Type (0, 0), BuildingBlock: XIVTED_clean_linker_0, # of connection points: 2
#     Edge 62, Type (0, 0), BuildingBlock: XIVTED_clean_linker_0, # of connection points: 2
#     Edge 63, Type (0, 0), BuildingBlock: XIVTED_clean_linker_0, # of connection points: 2
#     Edge 64, Type (0, 0), BuildingBlock: XIVTED_clean_linker_0, # of connection points: 2
#     Edge 65, Type (0, 0), BuildingBlock: XIVTED_clean_linker_0, # of connection points: 2
#     Edge 66, Type (0, 0), BuildingBlock: XIVTED_clean_linker_0, # of connection points: 2
#     Edge 67, Type (0, 0), BuildingBlock: XIVTED_clean_linker_0, # of connection points: 2
#     Edge 68, Type (0, 0), BuildingBlock: XIVTED_clean_linker_0, # of connection points: 2
#     Edge 69, Type (0, 0), BuildingBlock: XIVTED_clean_linker_0, # of connection points: 2
#     Edge 70, Type (0, 0), BuildingBlock: XIVTED_clean_linker_0, # of connection points: 2
#     Edge 71, Type (0, 0), BuildingBlock: XIVTED_clean_linker_0, # of connection points: 2
#     Edge 72, Type (0, 0), BuildingBlock: XIVTED_clean_linker_0, # of connection points: 2
#     Edge 73, Type (0, 0), BuildingBlock: XIVTED_clean_linker_0, # of connection points: 2
#     Edge 74, Type (0, 0), BuildingBlock: XIVTED_clean_linker_0, # of connection points: 2
#     Edge 75, Type (0, 0), BuildingBlock: XIVTED_clean_linker_0, # of connection points: 2
#     Edge 76, Type (0, 0), BuildingBlock: XIVTED_clean_linker_0, # of connection points: 2
#     Edge 77, Type (0, 0), BuildingBlock: XIVTED_clean_linker_0, # of connection points: 2
#     Edge 78, Type (0, 0), BuildingBlock: XIVTED_clean_linker_0, # of connection points: 2
#     Edge 79, Type (0, 0), BuildingBlock: XIVTED_clean_linker_0, # of connection points: 2
#     Edge 80, Type (0, 0), BuildingBlock: XIVTED_clean_linker_0, # of connection points: 2
#     Edge 81, Type (0, 0), BuildingBlock: XIVTED_clean_linker_0, # of connection points: 2
#     Edge 82, Type (0, 0), BuildingBlock: XIVTED_clean_linker_0, # of connection points: 2
#     Edge 83, Type (0, 0), BuildingBlock: XIVTED_clean_linker_0, # of connection points: 2
#     Edge 84, Type (0, 0), BuildingBlock: XIVTED_clean_linker_0, # of connection points: 2
#     Edge 85, Type (0, 0), BuildingBlock: XIVTED_clean_linker_0, # of connection points: 2
#     Edge 86, Type (0, 0), BuildingBlock: XIVTED_clean_linker_0, # of connection points: 2
#     Edge 87, Type (0, 0), BuildingBlock: XIVTED_clean_linker_0, # of connection points: 2
#     Edge 88, Type (0, 0), BuildingBlock: XIVTED_clean_linker_0, # of connection points: 2
#     Edge 89, Type (0, 0), BuildingBlock: XIVTED_clean_linker_0, # of connection points: 2
#     Edge 90, Type (0, 0), BuildingBlock: XIVTED_clean_linker_0, # of connection points: 2
#     Edge 91, Type (0, 0), BuildingBlock: XIVTED_clean_linker_0, # of connection points: 2
#     Edge 92, Type (0, 0), BuildingBlock: XIVTED_clean_linker_0, # of connection points: 2
#     Edge 93, Type (0, 0), BuildingBlock: XIVTED_clean_linker_0, # of connection points: 2
#     Edge 94, Type (0, 0), BuildingBlock: XIVTED_clean_linker_0, # of connection points: 2
#     Edge 95, Type (0, 0), BuildingBlock: XIVTED_clean_linker_0, # of connection points: 2
# Relax obj value: 0.051
# Max RMSD: 0.064
# Mean RMSD: 0.064
data_MOF--net-upd--node1-ESEHIV_clean_sbu_0--edge1-XIVTED_clean_linker_0
_symmetry_space_group_name_H-M    P1
_symmetry_Int_Tables_number       1
_symmetry_cell_setting            triclinic
loop_
_symmetry_equiv_pos_as_xyz
'x, y, z'
_cell_length_a     40.410082
_cell_length_b     40.031031
_cell_length_c     89.611102
_cell_angle_alpha  90.102904
_cell_angle_beta   90.308094
_cell_angle_gamma 90.091019
loop_
_atom_site_label
_atom_site_type_symbol
_atom_site_fract_x
_atom_site_fract_y
_atom_site_fract_z
_atom_type_partial_charge
Cu0 Cu 0.11653 0.14347 0.33801 0.0
N1 N 0.15361 0.16802 0.33205 0.0
N2 N 0.18605 0.20004 0.31783 0.0
C3 C 0.15943 0.1796 0.3182 0.0
C4 C 0.19748 0.20113 0.33202 0.0
C5 C 0.17737 0.18149 0.34075 0.0
O6 O 0.10531 0.11032 0.32256 0.0
C7 C 0.08578 0.20584 0.34439 0.0
O8 O 0.10879 0.21994 0.33624 0.0
H9 H 0.14333 0.1745 0.30877 0.0
H10 H 0.17911 0.1785 0.35271 0.0
N11 N 0.12377 0.12318 0.35654 0.0
N12 N 0.11167 0.11935 0.38092 0.0
C13 C 0.09985 0.12343 0.36691 0.0
C14 C 0.15199 0.11736 0.36412 0.0
C15 C 0.14461 0.11492 0.37915 0.0
C16 C 0.1286 0.09436 0.31613 0.0
O17 O 0.15926 0.09996 0.32041 0.0
H18 H 0.07464 0.12994 0.36421 0.0
H19 H 0.17646 0.11798 0.3593 0.0
O20 O 0.08084 0.1745 0.34305 0.0
H21 H 0.21846 0.21559 0.33591 0.0
H22 H 0.16254 0.1124 0.38808 0.0
Cu23 Cu 0.09061 0.84695 0.57707 0.0
N24 N 0.07034 0.88879 0.57563 0.0
N25 N 0.04121 0.9302 0.56512 0.0
C26 C 0.05759 0.90122 0.56289 0.0
C27 C 0.04387 0.9362 0.57992 0.0
C28 C 0.06168 0.91052 0.58639 0.0
O29 O 0.12396 0.84413 0.56124 0.0
C30 C 0.02695 0.81358 0.57982 0.0
O31 O 1.00544 0.79125 0.57512 0.0
H32 H 0.05994 0.88879 0.55222 0.0
H33 H 0.06679 0.90729 0.59816 0.0
N34 N 0.11064 0.83911 0.5956 0.0
N35 N 0.12716 0.81114 0.61596 0.0
C36 C 0.11325 0.80906 0.60223 0.0
C37 C 0.12427 0.86103 0.6052 0.0
C38 C 0.13437 0.84392 0.61778 0.0
C39 C 0.15129 0.8283 0.56228 0.0
O40 O 0.15784 0.81134 0.57447 0.0
H41 H 0.1033 0.78646 0.59731 0.0
H42 H 0.12619 0.88764 0.60331 0.0
O43 O 0.05563 0.81423 0.57385 0.0
H44 H 0.0327 0.95695 0.58577 0.0
H45 H 0.14568 0.85505 0.62756 0.0
Cu46 Cu 0.37546 0.86876 0.81702 0.0
N47 N 0.36115 0.83637 0.80355 0.0
N48 N 0.32605 0.80346 0.79093 0.0
C49 C 0.32939 0.82726 0.80153 0.0
C50 C 0.35714 0.7974 0.78613 0.0
C51 C 0.37874 0.81781 0.79394 0.0
O52 O 0.37121 0.9119 0.80683 0.0
C53 C 0.35431 0.87419 0.84731 0.0
O54 O 0.3768 0.89779 0.84859 0.0
H55 H 0.30923 0.83776 0.80789 0.0
H56 H 0.40531 0.81918 0.79264 0.0
N57 N 0.41907 0.85988 0.82308 0.0
N58 N 0.46059 0.85061 0.83918 0.0
C59 C 0.42795 0.84703 0.83641 0.0
C60 C 0.44739 0.87064 0.81688 0.0
C61 C 0.473 0.86528 0.82685 0.0
C62 C 0.38972 0.9375 0.80849 0.0
O63 O 0.41252 0.93754 0.819 0.0
H64 H 0.41044 0.83801 0.84454 0.0
H65 H 0.4489 0.88388 0.80639 0.0
O66 O 0.34745 0.8628 0.8344 0.0
H67 H 0.36383 0.77991 0.77744 0.0
H68 H 0.4983 0.87368 0.82558 0.0
Cu69 Cu 0.39707 0.13284 0.08259 0.0
N70 N 0.41313 0.09174 0.07573 0.0
N71 N 0.43872 0.05452 0.0611 0.0
C72 C 0.42675 0.08595 0.06226 0.0
C73 C 0.43197 0.03995 0.07432 0.0
C74 C 0.41631 0.06295 0.08332 0.0
O75 O 0.3666 0.14986 0.06732 0.0
C76 C 0.46319 0.15203 0.08936 0.0
O77 O 0.4715 0.12334 0.08336 0.0
H78 H 0.42856 0.10481 0.05367 0.0
H79 H 0.40892 0.0593 0.09478 0.0
N80 N 0.37694 0.12828 0.10126 0.0
N81 N 0.37053 0.13906 0.12563 0.0
C82 C 0.3834 0.14946 0.11258 0.0
C83 C 0.35869 0.1036 0.10726 0.0
C84 C 0.35454 0.11029 0.12231 0.0
C85 C 0.33608 0.15623 0.06947 0.0
O86 O 0.32417 0.15456 0.08306 0.0
H87 H 0.39789 0.17193 0.11125 0.0
H88 H 0.35017 0.08169 0.10128 0.0
O89 O 0.4339 0.16296 0.08732 0.0
H90 H 0.43913 0.01494 0.07755 0.0
H91 H 0.342 0.09449 0.13028 0.0
Cu92 Cu 0.10374 0.86473 0.21756 0.0
N93 N 0.10499 0.8317 0.23208 0.0
N94 N 0.13097 0.79828 0.24828 0.0
C95 C 0.13177 0.82744 0.2408 0.0
C96 C 0.10219 0.78361 0.24414 0.0
C97 C 0.08617 0.80434 0.23409 0.0
O98 O 0.112 0.9072 0.22804 0.0
C99 C 0.14066 0.85596 0.19009 0.0
O100 O 0.12382 0.88076 0.18423 0.0
H101 H 0.15277 0.84425 0.2406 0.0
H102 H 0.06365 0.79889 0.22797 0.0
N103 N 0.06326 0.86571 0.20715 0.0
N104 N 0.02807 0.86309 0.18779 0.0
C105 C 0.05623 0.85101 0.1939 0.0
C106 C 0.03831 0.88726 0.20955 0.0
C107 C 0.0167 0.88577 0.19764 0.0
C108 C 0.09386 0.91325 0.23937 0.0
O109 O 0.07085 0.89149 0.24292 0.0
H110 H 0.07288 0.83417 0.18821 0.0
H111 H 0.0372 0.90486 0.21868 0.0
O112 O 0.13798 0.84969 0.20395 0.0
H113 H 0.09397 0.75908 0.24758 0.0
H114 H 0.99549 0.9018 0.19585 0.0
Cu115 Cu 0.38353 0.8637 0.46775 0.0
N116 N 0.3953 0.9068 0.4744 0.0
N117 N 0.42189 0.94646 0.48759 0.0
C118 C 0.41833 0.91335 0.48498 0.0
C119 C 0.39959 0.96124 0.47846 0.0
C120 C 0.38316 0.93678 0.47043 0.0
O121 O 0.35482 0.84466 0.48317 0.0
C122 C 0.44804 0.85437 0.45668 0.0
O123 O 0.45047 0.88662 0.45903 0.0
H124 H 0.43284 0.89402 0.49032 0.0
H125 H 0.3635 0.94072 0.46242 0.0
N126 N 0.35931 0.86174 0.44992 0.0
N127 N 0.33965 0.83479 0.42975 0.0
C128 C 0.35176 0.83199 0.44377 0.0
C129 C 0.35179 0.88457 0.43946 0.0
C130 C 0.33943 0.86804 0.42704 0.0
C131 C 0.32683 0.85934 0.48402 0.0
O132 O 0.32081 0.88408 0.47478 0.0
H133 H 0.35754 0.8086 0.4492 0.0
H134 H 0.3567 0.91101 0.44034 0.0
O135 O 0.423 0.83862 0.46177 0.0
H136 H 0.39508 0.98781 0.47771 0.0
H137 H 0.33223 0.8797 0.41665 0.0
Cu138 Cu 0.38883 0.17528 0.71354 0.0
N139 N 0.34908 0.19476 0.7194 0.0
N140 N 0.31213 0.22032 0.73391 0.0
C141 C 0.34074 0.20298 0.73345 0.0
C142 C 0.30192 0.22262 0.71957 0.0
C143 C 0.32479 0.20684 0.71064 0.0
O144 O 0.39947 0.13978 0.72787 0.0
C145 C 0.41592 0.24119 0.71296 0.0
O146 O 0.3922 0.24975 0.72214 0.0
H147 H 0.35648 0.19807 0.743 0.0
H148 H 0.32438 0.20536 0.69859 0.0
N149 N 0.38453 0.15839 0.69415 0.0
N150 N 0.39569 0.15442 0.66976 0.0
C151 C 0.40647 0.16478 0.68327 0.0
C152 C 0.35886 0.14314 0.68732 0.0
C153 C 0.36581 0.14042 0.67227 0.0
C154 C 0.37713 0.11768 0.7299 0.0
O155 O 0.34984 0.11952 0.72192 0.0
H156 H 0.42978 0.17734 0.68523 0.0
H157 H 0.33612 0.13591 0.69275 0.0
O158 O 0.42223 0.21026 0.71109 0.0
H159 H 0.2799 0.2354 0.71573 0.0
H160 H 0.34955 0.13021 0.66377 0.0
Cu161 Cu 0.10768 0.13892 0.97292 0.0
N162 N 0.09236 0.09885 0.98128 0.0
N163 N 0.06205 0.06116 0.99367 0.0
C164 C 0.06446 0.09331 0.98914 0.0
C165 C 0.08982 0.04622 0.98867 0.0
C166 C 0.10845 0.06949 0.98115 0.0
O167 O 0.14125 0.15725 0.98647 0.0
C168 C 0.04732 0.15715 0.96108 0.0
O169 O 0.04433 0.12452 0.96041 0.0
H170 H 0.04615 0.11239 0.99131 0.0
H171 H 0.13232 0.06541 0.97607 0.0
N172 N 0.12479 0.13217 0.95378 0.0
N173 N 0.12922 0.1467 0.92967 0.0
C174 C 0.12775 0.15744 0.94398 0.0
C175 C 0.12493 0.10418 0.94547 0.0
C176 C 0.12795 0.11301 0.93065 0.0
C177 C 0.17087 0.1464 0.98582 0.0
O178 O 0.17856 0.12499 0.97527 0.0
H179 H 0.1258 0.18327 0.94737 0.0
H180 H 0.11979 0.07941 0.94964 0.0
O181 O 0.07157 0.16947 0.96842 0.0
H182 H 0.09659 0.02041 0.99053 0.0
H183 H 0.12627 0.09589 0.92133 0.0
Cu184 Cu 0.92097 0.88961 0.71383 0.0
N185 N 0.88172 0.86672 0.71809 0.0
N186 N 0.84501 0.83535 0.7304 0.0
C187 C 0.87275 0.85418 0.73143 0.0
C188 C 0.83607 0.83654 0.71586 0.0
C189 C 0.85876 0.8558 0.70832 0.0
O190 O 0.92957 0.92188 0.72993 0.0
C191 C 0.95067 0.82591 0.70945 0.0
O192 O 0.92623 0.81314 0.71717 0.0
H193 H 0.88742 0.85727 0.74147 0.0
H194 H 0.8592 0.86041 0.69644 0.0
N195 N 0.91774 0.91029 0.69509 0.0
N196 N 0.93027 0.91517 0.67077 0.0
C197 C 0.94098 0.90634 0.68452 0.0
C198 C 0.89132 0.92299 0.68789 0.0
C199 C 0.89898 0.92608 0.67291 0.0
C200 C 0.90685 0.94285 0.73304 0.0
O201 O 0.87977 0.94273 0.72486 0.0
H202 H 0.96444 0.89462 0.68678 0.0
H203 H 0.8674 0.9272 0.69292 0.0
O204 O 0.95637 0.85718 0.71046 0.0
H205 H 0.815 0.8239 0.71093 0.0
H206 H 0.88206 0.93402 0.66423 0.0
Cu207 Cu 0.90352 0.15867 0.47074 0.0
N208 N 0.91045 0.11322 0.47451 0.0
N209 N 0.92799 0.06836 0.48724 0.0
C210 C 0.91691 0.10018 0.48808 0.0
C211 C 0.92778 0.061 0.47251 0.0
C212 C 0.91716 0.08873 0.4647 0.0
O213 O 0.87454 0.17637 0.48634 0.0
C214 C 0.97403 0.16505 0.47037 0.0
O215 O 0.97555 0.14079 0.48018 0.0
H216 H 0.91545 0.11466 0.49825 0.0
H217 H 0.91664 0.09157 0.4527 0.0
N218 N 0.88355 0.16685 0.45221 0.0
N219 N 0.86963 0.1966 0.43197 0.0
C220 C 0.88464 0.19685 0.44547 0.0
C221 C 0.86731 0.1466 0.44266 0.0
C222 C 0.85867 0.1649 0.43016 0.0
C223 C 0.84371 0.17004 0.4848 0.0
O224 O 0.83385 0.15303 0.47305 0.0
H225 H 0.89718 0.21821 0.4503 0.0
H226 H 0.86223 0.12044 0.44461 0.0
O227 O 0.94658 0.18001 0.46824 0.0
H228 H 0.93688 0.0381 0.46759 0.0
H229 H 0.84534 0.15549 0.42053 0.0
Cu230 Cu 0.63743 0.17246 0.21822 0.0
N231 N 0.64621 0.20614 0.23207 0.0
N232 N 0.67771 0.23601 0.24773 0.0
C233 C 0.67238 0.20587 0.2414 0.0
C234 C 0.65314 0.25574 0.24254 0.0
C235 C 0.63381 0.23725 0.2328 0.0
O236 O 0.64249 0.12969 0.22864 0.0
C237 C 0.68758 0.20252 0.19993 0.0
O238 O 0.70034 0.21513 0.2122 0.0
H239 H 0.68872 0.18461 0.24252 0.0
H240 H 0.61383 0.24652 0.22589 0.0
N241 N 0.59521 0.17666 0.2098 0.0
N242 N 0.55898 0.18055 0.19084 0.0
C243 C 0.5895 0.17083 0.19523 0.0
C244 C 0.56722 0.19053 0.215 0.0
C245 C 0.54476 0.19289 0.20331 0.0
C246 C 0.624 0.1249 0.23996 0.0
O247 O 0.6018 0.14768 0.24322 0.0
H248 H 0.60831 0.16133 0.18782 0.0
H249 H 0.5639 0.19964 0.22626 0.0
O250 O 0.66581 0.17952 0.20086 0.0
H251 H 0.65092 0.28228 0.24462 0.0
H252 H 0.52022 0.20357 0.20393 0.0
Cu253 Cu 0.61085 0.88343 0.95386 0.0
N254 N 0.60336 0.92309 0.9645 0.0
N255 N 0.58098 0.95903 0.98076 0.0
C256 C 0.5787 0.92856 0.97428 0.0
C257 C 0.6084 0.97306 0.97488 0.0
C258 C 0.62223 0.95078 0.96496 0.0
O259 O 0.63954 0.85568 0.96631 0.0
C260 C 0.54968 0.88348 0.94101 0.0
O261 O 0.55511 0.91562 0.94272 0.0
H262 H 0.55946 0.91047 0.97653 0.0
H263 H 0.64494 0.95421 0.95882 0.0
N264 N 0.62987 0.89028 0.93514 0.0
N265 N 0.63306 0.87827 0.91077 0.0
C266 C 0.62818 0.86627 0.92464 0.0
C267 C 0.63644 0.91868 0.92769 0.0
C268 C 0.63883 0.91125 0.91264 0.0
C269 C 0.67045 0.86222 0.96643 0.0
O270 O 0.68174 0.88504 0.95724 0.0
H271 H 0.62078 0.8409 0.92711 0.0
H272 H 0.63634 0.9434 0.93255 0.0
O273 O 0.56906 0.86318 0.94766 0.0
H274 H 0.61838 0.99728 0.97786 0.0
H275 H 0.6417 0.92917 0.90371 0.0
Cu276 Cu 0.88883 0.16103 0.83668 0.0
N277 N 0.86675 0.1964 0.82745 0.0
N278 N 0.82818 0.22658 0.81557 0.0
C279 C 0.83617 0.19639 0.82134 0.0
C280 C 0.85492 0.2461 0.81816 0.0
C281 C 0.87856 0.22746 0.82546 0.0
O282 O 0.89064 0.12397 0.82224 0.0
C283 C 0.88086 0.13453 0.86544 0.0
O284 O 0.90634 0.11616 0.86157 0.0
H285 H 0.8201 0.17474 0.82127 0.0
H286 H 0.90281 0.2359 0.829 0.0
N287 N 0.93021 0.17654 0.84322 0.0
N288 N 0.96501 0.19444 0.86113 0.0
C289 C 0.93335 0.19298 0.85626 0.0
C290 C 0.9612 0.16845 0.83921 0.0
C291 C 0.98272 0.17946 0.85024 0.0
C292 C 0.91104 0.09969 0.82165 0.0
O293 O 0.93358 0.09648 0.83216 0.0
H294 H 0.91219 0.20136 0.86255 0.0
H295 H 0.96751 0.15338 0.82962 0.0
O296 O 0.86603 0.15131 0.85535 0.0
H297 H 0.85759 0.2719 0.81478 0.0
H298 H 0.00894 0.17409 0.85079 0.0
Cu299 Cu 0.61383 0.14529 0.57659 0.0
N300 N 0.60788 0.10198 0.56891 0.0
N301 N 0.58426 0.06144 0.55519 0.0
C302 C 0.58436 0.09424 0.55875 0.0
C303 C 0.60903 0.04802 0.5634 0.0
C304 C 0.62368 0.07313 0.57179 0.0
O305 O 0.64231 0.16888 0.56243 0.0
C306 C 0.55073 0.14355 0.58719 0.0
O307 O 0.56134 0.11328 0.59015 0.0
H308 H 0.56702 0.11239 0.5544 0.0
H309 H 0.6443 0.07045 0.57942 0.0
N310 N 0.63358 0.14832 0.59549 0.0
N311 N 0.64961 0.17472 0.61642 0.0
C312 C 0.63704 0.17789 0.6025 0.0
C313 C 0.64417 0.12525 0.6053 0.0
C314 C 0.65417 0.14149 0.61822 0.0
C315 C 0.67342 0.16414 0.56394 0.0
O316 O 0.68396 0.14553 0.57503 0.0
H317 H 0.62909 0.20118 0.59755 0.0
H318 H 0.64392 0.09859 0.60339 0.0
O319 O 0.56979 0.16363 0.58024 0.0
H320 H 0.61627 0.02201 0.56328 0.0
H321 H 0.66364 0.12958 0.62819 0.0
Cu322 Cu 0.63151 0.88282 0.33198 0.0
N323 N 0.63963 0.85134 0.31718 0.0
N324 N 0.66946 0.82027 0.30152 0.0
C325 C 0.66988 0.8398 0.3138 0.0
C326 C 0.63741 0.81908 0.29715 0.0
C327 C 0.61905 0.83844 0.30683 0.0
O328 O 0.63059 0.92677 0.32226 0.0
C329 C 0.66541 0.88646 0.35998 0.0
O330 O 0.64318 0.90897 0.36357 0.0
H331 H 0.69191 0.84648 0.32004 0.0
H332 H 0.59286 0.84374 0.30606 0.0
N333 N 0.59128 0.8732 0.34149 0.0
N334 N 0.55569 0.85768 0.35933 0.0
C335 C 0.5876 0.85831 0.35488 0.0
C336 C 0.56053 0.88176 0.33715 0.0
C337 C 0.53854 0.8722 0.34811 0.0
C338 C 0.65307 0.93499 0.31299 0.0
O339 O 0.67876 0.91528 0.3114 0.0
H340 H 0.60802 0.84863 0.36139 0.0
H341 H 0.55467 0.89503 0.32697 0.0
O342 O 0.66669 0.87624 0.34655 0.0
H343 H 0.6281 0.80642 0.28731 0.0
H344 H 0.5122 0.87708 0.34813 0.0
Cu345 Cu 0.85885 0.86339 0.07432 0.0
N346 N 0.86453 0.90731 0.06758 0.0
N347 N 0.88869 0.94894 0.05498 0.0
C348 C 0.89041 0.9166 0.05915 0.0
C349 C 0.86042 0.96053 0.06108 0.0
C350 C 0.84542 0.93468 0.06877 0.0
O351 O 0.84021 0.83902 0.05717 0.0
C352 C 0.91443 0.86928 0.09138 0.0
O353 O 0.89991 0.8983 0.09325 0.0
H354 H 0.91022 0.89972 0.0562 0.0
H355 H 0.822 0.93567 0.07451 0.0
N356 N 0.83158 0.85826 0.09092 0.0
N357 N 0.81313 0.83065 0.11093 0.0
C358 C 0.82967 0.82868 0.09794 0.0
C359 C 0.81576 0.88013 0.09979 0.0
C360 C 0.80426 0.86308 0.11217 0.0
C361 C 0.80931 0.83224 0.0566 0.0
O362 O 0.79115 0.83729 0.06849 0.0
H363 H 0.84228 0.80658 0.09397 0.0
H364 H 0.81421 0.90671 0.09786 0.0
O365 O 0.90151 0.84831 0.08229 0.0
H366 H 0.85078 0.98556 0.05975 0.0
H367 H 0.79147 0.87401 0.12156 0.0
Cu368 Cu 0.64755 0.66311 0.82436 0.0
N369 N 0.69098 0.67766 0.82115 0.0
N370 N 0.73396 0.70137 0.80959 0.0
C371 C 0.70415 0.68641 0.80794 0.0
C372 C 0.74002 0.70124 0.82444 0.0
C373 C 0.71348 0.68661 0.83152 0.0
O374 O 0.63611 0.62917 0.80925 0.0
C375 C 0.62866 0.73178 0.82198 0.0
O376 O 0.65342 0.73564 0.81272 0.0
H377 H 0.69082 0.68431 0.79747 0.0
H378 H 0.71004 0.68426 0.84344 0.0
N379 N 0.64374 0.64579 0.84368 0.0
N380 N 0.62576 0.64201 0.86725 0.0
C381 C 0.62167 0.65668 0.85381 0.0
C382 C 0.66258 0.62333 0.85093 0.0
C383 C 0.65144 0.6208 0.86545 0.0
C384 C 0.65765 0.60658 0.80669 0.0
O385 O 0.68522 0.60694 0.81453 0.0
H386 H 0.60287 0.67503 0.85132 0.0
H387 H 0.68338 0.6103 0.84611 0.0
O388 O 0.61887 0.70234 0.8251 0.0
H389 H 0.76149 0.71204 0.82987 0.0
H390 H 0.66198 0.60514 0.87408 0.0
Cu391 Cu 0.61493 0.39615 0.07981 0.0
N392 N 0.60186 0.43919 0.07389 0.0
N393 N 0.57394 0.47723 0.06052 0.0
C394 C 0.5812 0.44455 0.0623 0.0
C395 C 0.59086 0.49308 0.07151 0.0
C396 C 0.60806 0.46956 0.07973 0.0
O397 O 0.64366 0.37927 0.0639 0.0
C398 C 0.55709 0.38954 0.09424 0.0
O399 O 0.56903 0.41809 0.09911 0.0
H400 H 0.57096 0.42452 0.05559 0.0
H401 H 0.62346 0.47431 0.0894 0.0
N402 N 0.63942 0.39331 0.09755 0.0
N403 N 0.66012 0.36738 0.1177 0.0
C404 C 0.64066 0.36479 0.10546 0.0
C405 C 0.659 0.415 0.10496 0.0
C406 C 0.67179 0.39906 0.11741 0.0
C407 C 0.66776 0.3992 0.06144 0.0
O408 O 0.67004 0.42638 0.06962 0.0
H409 H 0.6278 0.34234 0.10201 0.0
H410 H 0.66395 0.44037 0.10152 0.0
O411 O 0.57363 0.37294 0.08464 0.0
H412 H 0.59089 0.51975 0.0735 0.0
H413 H 0.68819 0.41014 0.12562 0.0
Cu414 Cu 0.92349 0.38409 0.32694 0.0
N415 N 0.91502 0.35432 0.31138 0.0
N416 N 0.8825 0.3242 0.29622 0.0
C417 C 0.88529 0.33976 0.30952 0.0
C418 C 0.91205 0.32857 0.28953 0.0
C419 C 0.93205 0.34741 0.29889 0.0
O420 O 0.91236 0.4282 0.3192 0.0
C421 C 0.89299 0.37725 0.35646 0.0
O422 O 0.90484 0.40662 0.36032 0.0
H423 H 0.86548 0.34205 0.31753 0.0
H424 H 0.95638 0.35699 0.29635 0.0
N425 N 0.96808 0.3838 0.33291 0.0
N426 N 0.01259 0.38822 0.34781 0.0
C427 C 0.97931 0.38542 0.34708 0.0
C428 C 0.9953 0.38544 0.32434 0.0
C429 C 0.02281 0.38796 0.3335 0.0
C430 C 0.8848 0.43428 0.31279 0.0
O431 O 0.86086 0.41216 0.31365 0.0
H432 H 0.9634 0.38496 0.3567 0.0
H433 H 0.99514 0.38605 0.31228 0.0
O434 O 0.89675 0.36672 0.34318 0.0
H435 H 0.91804 0.32063 0.27831 0.0
H436 H 0.04817 0.39085 0.32989 0.0
Cu437 Cu 0.90271 0.67948 0.57714 0.0
N438 N 0.93409 0.66166 0.56413 0.0
N439 N 0.96452 0.6265 0.55043 0.0
C440 C 0.9384 0.6297 0.55974 0.0
C441 C 0.97683 0.6577 0.54892 0.0
C442 C 0.95806 0.67922 0.55735 0.0
O443 O 0.863 0.69235 0.56606 0.0
C444 C 0.87591 0.65901 0.60398 0.0
O445 O 0.85782 0.68587 0.60188 0.0
H446 H 0.92306 0.60923 0.5635 0.0
H447 H 0.96164 0.70589 0.55851 0.0
N448 N 0.92131 0.71633 0.58693 0.0
N449 N 0.94205 0.74508 0.60632 0.0
C450 C 0.93588 0.7146 0.60046 0.0
C451 C 0.91882 0.7491 0.58387 0.0
C452 C 0.93171 0.76693 0.59579 0.0
C453 C 0.83859 0.67258 0.56418 0.0
O454 O 0.83975 0.64268 0.57019 0.0
H455 H 0.94045 0.69126 0.60615 0.0
H456 H 0.90678 0.75929 0.57408 0.0
O457 O 0.89374 0.64863 0.59325 0.0
H458 H 0.99769 0.66465 0.54207 0.0
H459 H 0.93142 0.79383 0.59699 0.0
Cu460 Cu 0.60449 0.35896 0.72133 0.0
N461 N 0.60831 0.3289 0.73713 0.0
N462 N 0.63342 0.30024 0.75536 0.0
C463 C 0.63466 0.32717 0.74634 0.0
C464 C 0.60503 0.28432 0.75166 0.0
C465 C 0.58956 0.30212 0.7404 0.0
O466 O 0.61042 0.40406 0.72954 0.0
C467 C 0.63778 0.35349 0.6933 0.0
O468 O 0.62054 0.37981 0.68927 0.0
H469 H 0.65534 0.34429 0.74582 0.0
H470 H 0.56702 0.29527 0.73458 0.0
N471 N 0.56298 0.35573 0.71191 0.0
N472 N 0.52738 0.35087 0.69275 0.0
C473 C 0.55684 0.3414 0.69852 0.0
C474 C 0.53597 0.37406 0.71493 0.0
C475 C 0.51402 0.37119 0.70314 0.0
C476 C 0.6385 0.41612 0.73322 0.0
O477 O 0.66533 0.39914 0.72999 0.0
H478 H 0.57495 0.327 0.69244 0.0
H479 H 0.53364 0.3906 0.72443 0.0
O480 O 0.63722 0.3443 0.70689 0.0
H481 H 0.59643 0.26114 0.75649 0.0
H482 H 0.49112 0.3849 0.70184 0.0
Cu483 Cu 0.92374 0.33159 0.98691 0.0
N484 N 0.95145 0.33835 1.00365 0.0
N485 N 0.98642 0.3637 1.01965 0.0
C486 C 0.9703 0.36564 1.0064 0.0
C487 C 0.97705 0.3341 0.02549 0.0
C488 C 0.95538 0.3187 1.01569 0.0
O489 O 0.87846 0.34208 0.99271 0.0
C490 C 0.97159 0.35331 0.96783 0.0
O491 O 0.98789 0.33159 0.97602 0.0
H492 H 0.9721 0.3865 0.99878 0.0
H493 H 0.94279 0.2952 1.01741 0.0
N494 N 0.92368 0.28748 0.97974 0.0
N495 N 0.91461 0.24496 0.96381 0.0
C496 C 0.9115 0.27818 0.96631 0.0
C497 C 0.93507 0.25923 0.98602 0.0
C498 C 0.92951 0.23303 0.97626 0.0
C499 C 0.87076 0.3696 0.99888 0.0
O500 O 0.89342 0.393 1.00021 0.0
H501 H 0.90109 0.29579 0.95845 0.0
H502 H 0.94673 0.25766 0.99686 0.0
O503 O 0.94113 0.3585 0.97064 0.0
H504 H 0.98451 0.3246 0.03629 0.0
H505 H 0.93587 0.2072 0.9783 0.0
Cu506 Cu 0.8963 0.66216 0.21611 0.0
N507 N 0.89086 0.69381 0.23107 0.0
N508 N 0.86244 0.72422 0.2475 0.0
C509 C 0.86104 0.70555 0.23499 0.0
C510 C 0.89473 0.72473 0.25149 0.0
C511 C 0.91225 0.7057 0.24133 0.0
O512 O 0.89184 0.61881 0.22581 0.0
C513 C 0.86024 0.66216 0.18814 0.0
O514 O 0.87866 0.6368 0.18399 0.0
H515 H 0.83854 0.69946 0.22897 0.0
H516 H 0.93833 0.6997 0.2418 0.0
N517 N 0.93824 0.66513 0.20742 0.0
N518 N 0.97722 0.66578 0.18979 0.0
C519 C 0.94568 0.67359 0.19324 0.0
C520 C 0.96621 0.65212 0.21315 0.0
C521 C 0.99021 0.65227 0.20228 0.0
C522 C 0.86632 0.61066 0.23326 0.0
O523 O 0.83998 0.6298 0.23265 0.0
H524 H 0.9277 0.68262 0.18522 0.0
H525 H 0.96821 0.64101 0.22412 0.0
O526 O 0.86271 0.67325 0.20139 0.0
H527 H 0.90473 0.7365 0.26142 0.0
H528 H 0.01463 0.64135 0.20317 0.0
Cu529 Cu 0.63973 0.66335 0.46453 0.0
N530 N 0.63914 0.61865 0.47063 0.0
N531 N 0.62069 0.57546 0.48412 0.0
C532 C 0.618 0.6084 0.48122 0.0
C533 C 0.64459 0.56439 0.47486 0.0
C534 C 0.65608 0.5912 0.46657 0.0
O535 O 0.64533 0.68734 0.48345 0.0
C536 C 0.60014 0.65082 0.44112 0.0
O537 O 0.62459 0.62935 0.44006 0.0
H538 H 0.60048 0.62501 0.4865 0.0
H539 H 0.67516 0.5906 0.45816 0.0
N540 N 0.6736 0.67602 0.45154 0.0
N541 N 0.69707 0.70986 0.4348 0.0
C542 C 0.67073 0.70428 0.44356 0.0
C543 C 0.7028 0.66264 0.44751 0.0
C544 C 0.71733 0.68353 0.43705 0.0
C545 C 0.66748 0.70956 0.48569 0.0
O546 O 0.68009 0.72535 0.47423 0.0
H547 H 0.64939 0.72054 0.44423 0.0
H548 H 0.71282 0.63956 0.45185 0.0
O549 O 0.59966 0.67012 0.45249 0.0
H550 H 0.6534 0.53892 0.47422 0.0
H551 H 0.74105 0.67994 0.43173 0.0
Cu552 Cu 0.36573 0.35393 0.21438 0.0
N553 N 0.32177 0.34214 0.21796 0.0
N554 N 0.27892 0.32159 0.23068 0.0
C555 C 0.30917 0.33585 0.23153 0.0
C556 C 0.27201 0.31947 0.21594 0.0
C557 C 0.29852 0.3322 0.20812 0.0
O558 O 0.37942 0.3849 0.23034 0.0
C559 C 0.37932 0.28397 0.21513 0.0
O560 O 0.35444 0.28141 0.22442 0.0
H561 H 0.32328 0.33887 0.24175 0.0
H562 H 0.3015 0.33229 0.19613 0.0
N563 N 0.36971 0.37344 0.19552 0.0
N564 N 0.38824 0.38011 0.17215 0.0
C565 C 0.39352 0.36576 0.18561 0.0
C566 C 0.34847 0.39335 0.18814 0.0
C567 C 0.3599 0.39765 0.17377 0.0
C568 C 0.36016 0.40961 0.23271 0.0
O569 O 0.33437 0.41339 0.22388 0.0
H570 H 0.41405 0.34945 0.18823 0.0
H571 H 0.32567 0.403 0.1927 0.0
O572 O 0.39128 0.31278 0.21237 0.0
H573 H 0.25007 0.30816 0.21112 0.0
H574 H 0.34756 0.41172 0.16508 0.0
Cu575 Cu 0.40284 0.66664 0.96301 0.0
N576 N 0.40565 0.6226 0.96981 0.0
N577 N 0.42496 0.58183 0.98452 0.0
C578 C 0.42383 0.61497 0.98194 0.0
C579 C 0.40658 0.5679 0.9735 0.0
C580 C 0.39452 0.5932 0.96445 0.0
O581 O 0.38507 0.6901 0.98045 0.0
C582 C 0.45854 0.65671 0.94675 0.0
O583 O 0.44007 0.63086 0.94322 0.0
H584 H 0.43712 0.63356 0.98841 0.0
H585 H 0.37962 0.59026 0.95447 0.0
N586 N 0.37535 0.67372 0.94647 0.0
N587 N 0.3543 0.70312 0.92742 0.0
C588 C 0.3785 0.70094 0.93781 0.0
C589 C 0.34831 0.65764 0.94135 0.0
C590 C 0.33533 0.67569 0.92952 0.0
C591 C 0.35638 0.70347 0.98055 0.0
O592 O 0.34194 0.71075 0.96782 0.0
H593 H 0.39804 0.71914 0.93937 0.0
H594 H 0.33811 0.63516 0.94619 0.0
O595 O 0.44737 0.6781 0.95605 0.0
H596 H 0.4024 0.5414 0.97199 0.0
H597 H 0.31301 0.6697 0.92334 0.0
Cu598 Cu 0.06947 0.64106 0.7251 0.0
N599 N 0.08112 0.67021 0.74051 0.0
N600 N 0.11492 0.70064 0.75498 0.0
C601 C 0.11244 0.68016 0.74307 0.0
C602 C 0.0837 0.70397 0.76009 0.0
C603 C 0.06287 0.68503 0.75115 0.0
O604 O 0.07564 0.5958 0.73249 0.0
C605 C 0.10031 0.64174 0.69574 0.0
O606 O 0.0857 0.61313 0.69275 0.0
H607 H 0.133 0.67268 0.73614 0.0
H608 H 0.03644 0.68218 0.7524 0.0
N609 N 0.02544 0.64655 0.71899 0.0
N610 N 0.98169 0.64809 0.70361 0.0
C611 C 0.01495 0.64702 0.70471 0.0
C612 C 0.99773 0.64758 0.72726 0.0
C613 C 0.97064 0.64878 0.71778 0.0
C614 C 0.1039 0.58531 0.73666 0.0
O615 O 0.13004 0.60401 0.73418 0.0
H616 H 0.03134 0.64616 0.69525 0.0
H617 H 0.99716 0.6463 0.73931 0.0
O618 O 0.09776 0.65445 0.70869 0.0
H619 H 0.07649 0.7185 0.76973 0.0
H620 H 0.94489 0.64866 0.72104 0.0
Cu621 Cu 0.12078 0.37783 0.47208 0.0
N622 N 0.08595 0.39231 0.4841 0.0
N623 N 0.05373 0.4253 0.49806 0.0
C624 C 0.08152 0.42321 0.48974 0.0
C625 C 0.04028 0.39438 0.49757 0.0
C626 C 0.06019 0.37415 0.48898 0.0
O627 O 0.16151 0.37972 0.48413 0.0
C628 C 0.13885 0.39795 0.44327 0.0
O629 O 0.16168 0.37489 0.44491 0.0
H630 H 0.09826 0.44376 0.48761 0.0
H631 H 0.05627 0.34798 0.48651 0.0
N632 N 0.11039 0.3356 0.46417 0.0
N633 N 0.09439 0.29989 0.44618 0.0
C634 C 0.09454 0.33185 0.45101 0.0
C635 C 0.11974 0.30463 0.46817 0.0
C636 C 0.10991 0.28252 0.45708 0.0
C637 C 0.18726 0.36151 0.48308 0.0
O638 O 0.18879 0.33868 0.47256 0.0
H639 H 0.08446 0.35263 0.44479 0.0
H640 H 0.13417 0.29875 0.47802 0.0
O641 O 0.12205 0.40655 0.45464 0.0
H642 H 0.01793 0.38665 0.5032 0.0
H643 H 0.11566 0.25614 0.45666 0.0
Cu644 Cu 0.37626 0.64453 0.32603 0.0
N645 N 0.36638 0.67369 0.31051 0.0
N646 N 0.33398 0.70329 0.2952 0.0
C647 C 0.33591 0.67709 0.30461 0.0
C648 C 0.36463 0.71683 0.29514 0.0
C649 C 0.38459 0.69849 0.30462 0.0
O650 O 0.36793 0.59951 0.31796 0.0
C651 C 0.34593 0.65081 0.35536 0.0
O652 O 0.36088 0.62314 0.35945 0.0
H653 H 0.31504 0.66187 0.30792 0.0
H654 H 0.41005 0.70385 0.30754 0.0
N655 N 0.42008 0.651 0.33254 0.0
N656 N 0.46373 0.65887 0.34767 0.0
C657 C 0.43053 0.65569 0.34672 0.0
C658 C 0.44764 0.65188 0.32419 0.0
C659 C 0.4746 0.65648 0.33348 0.0
C660 C 0.3903 0.57752 0.31581 0.0
O661 O 0.42003 0.58247 0.32136 0.0
H662 H 0.41432 0.65599 0.35624 0.0
H663 H 0.4481 0.64884 0.31219 0.0
O664 O 0.34718 0.66004 0.34181 0.0
H665 H 0.37187 0.73895 0.28904 0.0
H666 H 0.50021 0.65774 0.33006 0.0
Cu667 Cu 0.15081 0.63154 0.08234 0.0
N668 N 0.14534 0.58502 0.08001 0.0
N669 N 0.12653 0.53581 0.07129 0.0
C670 C 0.12969 0.56901 0.0687 0.0
C671 C 0.14147 0.53087 0.08464 0.0
C672 C 0.15295 0.56113 0.08997 0.0
O673 O 0.1732 0.64999 0.06477 0.0
C674 C 0.08297 0.63505 0.09093 0.0
O675 O 0.08091 0.60435 0.08587 0.0
H676 H 0.11967 0.58185 0.05908 0.0
H677 H 0.16481 0.56564 0.10063 0.0
N678 N 0.17796 0.6423 0.09872 0.0
N679 N 0.1929 0.67404 0.11823 0.0
C680 C 0.16752 0.6603 0.11054 0.0
C681 C 0.21125 0.64438 0.09916 0.0
C682 C 0.2205 0.66408 0.11114 0.0
C683 C 0.19879 0.63411 0.06042 0.0
O684 O 0.20589 0.60554 0.06687 0.0
H685 H 0.14181 0.66624 0.11254 0.0
H686 H 0.22762 0.63499 0.09064 0.0
O687 O 0.10862 0.65233 0.0879 0.0
H688 H 0.14265 0.50736 0.09056 0.0
H689 H 0.24537 0.67227 0.11384 0.0
Cu690 Cu 0.12401 0.36582 0.83849 0.0
N691 N 0.16743 0.35263 0.83473 0.0
N692 N 0.20955 0.33192 0.82162 0.0
C693 C 0.17923 0.34588 0.82106 0.0
C694 C 0.21724 0.33002 0.83629 0.0
C695 C 0.19115 0.34289 0.84437 0.0
O696 O 0.10929 0.39231 0.82137 0.0
C697 C 0.10943 0.29638 0.84117 0.0
O698 O 0.13206 0.29151 0.83094 0.0
H699 H 0.16474 0.34899 0.81097 0.0
H700 H 0.18892 0.34359 0.85639 0.0
N701 N 0.12163 0.39162 0.85579 0.0
N702 N 0.10252 0.40778 0.87802 0.0
C703 C 0.09634 0.39015 0.86547 0.0
C704 C 0.14472 0.411 0.86236 0.0
C705 C 0.13298 0.42102 0.87611 0.0
C706 C 0.12892 0.41616 0.8181 0.0
O707 O 0.15487 0.42124 0.82671 0.0
H708 H 0.0747 0.37464 0.8637 0.0
H709 H 0.16889 0.41622 0.85779 0.0
O710 O 0.09871 0.32588 0.84342 0.0
H711 H 0.2396 0.31918 0.84087 0.0
H712 H 0.14627 0.43598 0.88424 0.0
Cu713 Cu 0.42756 0.38039 0.57626 0.0
N714 N 0.44946 0.42019 0.57128 0.0
N715 N 0.47961 0.45822 0.55901 0.0
C716 C 0.46347 0.42859 0.55815 0.0
C717 C 0.47549 0.46866 0.57322 0.0
C718 C 0.45708 0.44523 0.58072 0.0
O719 O 0.39267 0.37087 0.56153 0.0
C720 C 0.4892 0.35247 0.58255 0.0
O721 O 0.50541 0.37535 0.57505 0.0
H722 H 0.46232 0.41298 0.54829 0.0
H723 H 0.4508 0.44587 0.59242 0.0
N724 N 0.40996 0.3837 0.59553 0.0
N725 N 0.40621 0.37217 0.61996 0.0
C726 C 0.41561 0.36115 0.60637 0.0
C727 C 0.39547 0.40974 0.60236 0.0
C728 C 0.39313 0.40273 0.61742 0.0
C729 C 0.3704 0.3928 0.55914 0.0
O730 O 0.3716 0.42084 0.56677 0.0
H731 H 0.42806 0.33778 0.60433 0.0
H732 H 0.38878 0.43292 0.59696 0.0
O733 O 0.4602 0.34477 0.57807 0.0
H734 H 0.48611 0.49104 0.57806 0.0
H735 H 0.38344 0.41942 0.62582 0.0
H736 H 0.09107 0.33652 0.42067 0.0
H737 H 0.04927 0.18081 0.36789 0.0
H738 H 0.07688 0.23669 0.43762 0.0
H739 H 0.09814 0.2705 0.35289 0.0
H740 H 0.04559 0.20497 0.39296 0.0
H741 H 0.08035 0.31616 0.39554 0.0
C742 C 0.08526 0.31038 0.41921 0.0
C743 C 0.08522 0.28831 0.4314 0.0
C744 C 0.05684 0.21937 0.38411 0.0
C745 C 0.07291 0.26469 0.40237 0.0
C746 C 0.05895 0.20564 0.36977 0.0
C747 C 0.07513 0.22309 0.35831 0.0
C748 C 0.07035 0.25108 0.38695 0.0
C749 C 0.08601 0.25577 0.36138 0.0
C750 C 0.07929 0.29872 0.40476 0.0
C751 C 0.07771 0.25455 0.42859 0.0
N752 N 0.08374 0.26852 0.37542 0.0
N753 N 0.07198 0.24374 0.41436 0.0
H754 H 0.97591 0.85803 0.57963 0.0
H755 H 0.9959 0.90227 0.66646 0.0
H756 H 0.05182 0.81779 0.60807 0.0
H757 H 0.90307 0.91154 0.64269 0.0
H758 H 0.02185 0.88305 0.64357 0.0
H759 H 0.95381 0.8891 0.60111 0.0
C760 C 0.98868 0.85671 0.59027 0.0
C761 C 0.01696 0.83669 0.59189 0.0
C762 C 0.99584 0.88957 0.64335 0.0
C763 C 0.99161 0.87156 0.61652 0.0
C764 C 0.98082 0.90044 0.65649 0.0
C765 C 0.94683 0.90805 0.65677 0.0
C766 C 0.97705 0.88657 0.63021 0.0
C767 C 0.9292 0.90598 0.64319 0.0
C768 C 0.976 0.87427 0.60252 0.0
C769 C 0.03182 0.83486 0.60602 0.0
N770 N 0.94444 0.89524 0.63051 0.0
N771 N 0.01908 0.85206 0.61775 0.0
H772 H 0.3757 0.76739 0.93002 0.0
H773 H 0.31363 0.81923 0.84839 0.0
H774 H 0.32119 0.70113 0.90082 0.0
H775 H 0.37609 0.88118 0.87624 0.0
H776 H 0.30921 0.77907 0.86878 0.0
H777 H 0.37014 0.81172 0.91164 0.0
C778 C 0.36265 0.762 0.91972 0.0
C779 C 0.34937 0.7301 0.91692 0.0
C780 C 0.32352 0.80165 0.8705 0.0
C781 C 0.3424 0.78139 0.89579 0.0
C782 C 0.3259 0.82478 0.85888 0.0
C783 C 0.34549 0.85364 0.86051 0.0
C784 C 0.34087 0.80731 0.88389 0.0
C785 C 0.36076 0.85934 0.87441 0.0
C786 C 0.35926 0.78755 0.90925 0.0
C787 C 0.33185 0.72522 0.9035 0.0
N788 N 0.35842 0.83624 0.88548 0.0
N789 N 0.32909 0.75049 0.8934 0.0
H790 H 0.52304 0.12911 0.09925 0.0
H791 H 0.50826 0.21766 0.17905 0.0
H792 H 0.44907 0.20364 0.10888 0.0
H793 H 0.58004 0.14202 0.16776 0.0
H794 H 0.48839 0.21668 0.15315 0.0
H795 H 0.54832 0.13963 0.12348 0.0
C796 C 0.51235 0.14814 0.10634 0.0
C797 C 0.48324 0.16482 0.10212 0.0
C798 C 0.5087 0.20055 0.15637 0.0
C799 C 0.51193 0.17662 0.13021 0.0
C800 C 0.51988 0.20084 0.17121 0.0
C801 C 0.54609 0.17999 0.17572 0.0
C802 C 0.52383 0.17928 0.14593 0.0
C803 C 0.56025 0.159 0.16491 0.0
C804 C 0.52672 0.15397 0.12029 0.0
C805 C 0.47102 0.18959 0.11178 0.0
N806 N 0.54895 0.15921 0.15062 0.0
N807 N 0.48509 0.19436 0.12548 0.0
H808 H 0.15232 0.79054 0.19682 0.0
H809 H 0.22426 0.73384 0.11858 0.0
H810 H 0.16117 0.86164 0.16089 0.0
H811 H 0.15452 0.6735 0.14278 0.0
H812 H 0.21557 0.77959 0.13659 0.0
H813 H 0.16819 0.7459 0.17969 0.0
C814 C 0.15827 0.79696 0.18541 0.0
C815 C 0.15535 0.83002 0.18029 0.0
C816 C 0.20245 0.75619 0.13799 0.0
C817 C 0.17374 0.7788 0.16068 0.0
C818 C 0.20757 0.73011 0.12785 0.0
C819 C 0.19019 0.69992 0.12933 0.0
C820 C 0.18049 0.75161 0.14989 0.0
C821 C 0.16838 0.69641 0.14133 0.0
C822 C 0.16705 0.77135 0.17563 0.0
C823 C 0.16306 0.83656 0.1653 0.0
N824 N 0.16433 0.72186 0.15124 0.0
N825 N 0.172 0.81115 0.156 0.0
H826 H 0.42765 0.81408 0.43364 0.0
H827 H 0.589 0.85764 0.38581 0.0
H828 H 0.51313 0.8657 0.45116 0.0
H829 H 0.49376 0.8357 0.3661 0.0
H830 H 0.56603 0.8464 0.41045 0.0
H831 H 0.4565 0.80699 0.40977 0.0
C832 C 0.45297 0.8227 0.43267 0.0
C833 C 0.46813 0.8404 0.44441 0.0
C834 C 0.55023 0.84368 0.40072 0.0
C835 C 0.50092 0.83303 0.4171 0.0
C836 C 0.56339 0.84992 0.3866 0.0
C837 C 0.54322 0.84794 0.3738 0.0
C838 C 0.51666 0.83515 0.40214 0.0
C839 C 0.51007 0.8381 0.37565 0.0
C840 C 0.46923 0.8191 0.41897 0.0
C841 C 0.50064 0.85182 0.4424 0.0
N842 N 0.49779 0.83226 0.38954 0.0
N843 N 0.51583 0.84821 0.42899 0.0
H844 H 0.45616 0.23045 0.68869 0.0
H845 H 0.40355 0.39991 0.64791 0.0
H846 H 0.39874 0.30725 0.71029 0.0
H847 H 0.42343 0.30708 0.62495 0.0
H848 H 0.41413 0.37183 0.67164 0.0
H849 H 0.45906 0.26531 0.66633 0.0
C850 C 0.4446 0.25481 0.68886 0.0
C851 C 0.42618 0.26536 0.70126 0.0
C852 C 0.41631 0.3578 0.66135 0.0
C853 C 0.42956 0.30539 0.67569 0.0
C854 C 0.41 0.37372 0.64774 0.0
C855 C 0.41227 0.356 0.6342 0.0
C856 C 0.42537 0.32398 0.66149 0.0
C857 C 0.42148 0.32213 0.63492 0.0
C858 C 0.44616 0.27462 0.67605 0.0
C859 C 0.41262 0.2977 0.70091 0.0
N860 N 0.42768 0.30732 0.64828 0.0
N861 N 0.41415 0.31636 0.68826 0.0
H862 H 0.06935 0.21329 0.9465 0.0
H863 H 0.02797 0.20713 0.87102 0.0
H864 H 0.9871 0.14476 0.94861 0.0
H865 H 0.92707 0.19873 0.88618 0.0
H866 H 0.04608 0.20956 0.89714 0.0
H867 H 0.04865 0.23325 0.92225 0.0
C868 C 0.04646 0.20314 0.94209 0.0
C869 C 0.0302 0.1769 0.94944 0.0
C870 C 0.01995 0.2081 0.89465 0.0
C871 C 1.00678 0.19925 0.92179 0.0
C872 C 0.00955 0.20627 0.87974 0.0
C873 C 0.97586 0.20187 0.87623 0.0
C874 C 0.99661 0.20515 0.90614 0.0
C875 C 0.95323 0.20158 0.88813 0.0
C876 C 0.03496 0.21421 0.92818 0.0
C877 C 1.00059 0.16475 0.94323 0.0
N878 N 0.96406 0.2023 0.9025 0.0
N879 N 0.98998 0.17581 0.92972 0.0
H880 H 0.93689 0.70467 0.63071 0.0
H881 H 0.99512 0.84652 0.68802 0.0
H882 H 0.96928 0.80251 0.61696 0.0
H883 H 0.93224 0.76349 0.69977 0.0
H884 H 0.99964 0.82382 0.66272 0.0
H885 H 0.94852 0.71964 0.65654 0.0
C886 C 0.94699 0.72915 0.63302 0.0
C887 C 0.95191 0.75251 0.62152 0.0
C888 C 0.9852 0.81043 0.67092 0.0
C889 C 0.9652 0.76984 0.65132 0.0
C890 C 0.98253 0.82339 0.68537 0.0
C891 C 0.96202 0.80777 0.6959 0.0
C892 C 0.96789 0.7812 0.66707 0.0
C893 C 0.94767 0.77693 0.69197 0.0
C894 C 0.95347 0.73773 0.64786 0.0
C895 C 0.96478 0.78395 0.62543 0.0
N896 N 0.9505 0.76493 0.67783 0.0
N897 N 0.97082 0.79179 0.63999 0.0
H898 H 0.04465 0.12222 0.38447 0.0
H899 H 0.03792 0.14153 0.47124 0.0
H900 H 0.13659 0.1315 0.40904 0.0
H901 H 0.96761 0.1901 0.44208 0.0
H902 H 0.07436 0.13249 0.44972 0.0
H903 H 0.01485 0.13957 0.40656 0.0
C904 C 0.05882 0.12798 0.3944 0.0
C905 C 0.09359 0.1259 0.39458 0.0
C906 C 0.05121 0.14567 0.44816 0.0
C907 C 0.05887 0.14511 0.42028 0.0
C908 C 0.03045 0.15094 0.46041 0.0
C909 C 0.99951 0.16642 0.45849 0.0
C910 C 0.04051 0.15515 0.43386 0.0
C911 C 0.99113 0.17803 0.44416 0.0
C912 C 0.04159 0.13792 0.40707 0.0
C913 C 0.10995 0.13271 0.40819 0.0
N914 N 0.01116 0.17153 0.43238 0.0
N915 N 0.09244 0.14187 0.42052 0.0
H916 H 0.62427 0.3107 0.12268 0.0
H917 H 0.72912 0.25505 0.19394 0.0
H918 H 0.71095 0.36431 0.13795 0.0
H919 H 0.6522 0.19474 0.17384 0.0
H920 H 0.72532 0.29365 0.17289 0.0
H921 H 0.63569 0.2673 0.14086 0.0
C922 C 0.64594 0.31337 0.12971 0.0
C923 C 0.66671 0.34149 0.12861 0.0
C924 C 0.7096 0.27173 0.17299 0.0
C925 C 0.67968 0.29149 0.14984 0.0
C926 C 0.71186 0.24952 0.18498 0.0
C927 C 0.69072 0.22166 0.1858 0.0
C928 C 0.68583 0.26627 0.16175 0.0
C929 C 0.66891 0.21588 0.1738 0.0
C930 C 0.65239 0.28843 0.14018 0.0
C931 C 0.69398 0.34344 0.13841 0.0
N932 N 0.66673 0.23821 0.1624 0.0
N933 N 0.69957 0.3189 0.14863 0.0
H934 H 0.50956 0.92242 0.92404 0.0
H935 H 0.4514 0.80321 0.86044 0.0
H936 H 0.54475 0.82091 0.92767 0.0
H937 H 0.5029 0.89531 0.85142 0.0
H938 H 0.47085 0.80619 0.88662 0.0
H939 H 0.48872 0.91 0.89912 0.0
C940 C 0.51231 0.89725 0.91977 0.0
C941 C 0.52956 0.87284 0.92792 0.0
C942 C 0.47823 0.8253 0.87877 0.0
C943 C 0.50532 0.8586 0.89933 0.0
C944 C 0.46723 0.82367 0.86392 0.0
C945 C 0.47575 0.84897 0.85376 0.0
C946 C 0.49687 0.85297 0.88348 0.0
C947 C 0.49611 0.87509 0.8588 0.0
C948 C 0.50057 0.89034 0.90549 0.0
C949 C 0.5318 0.84054 0.92177 0.0
N950 N 0.50544 0.87673 0.87336 0.0
N951 N 0.52002 0.83433 0.90771 0.0
H952 H 0.87212 0.26457 0.94163 0.0
H953 H 0.91164 0.10723 0.88986 0.0
H954 H 0.9342 0.18239 0.95539 0.0
H955 H 0.84318 0.18513 0.87744 0.0
H956 H 0.91583 0.13152 0.91481 0.0
H957 H 0.85827 0.23409 0.91887 0.0
C958 C 0.88299 0.24021 0.93994 0.0
C959 C 0.90487 0.22645 0.95054 0.0
C960 C 0.89942 0.14299 0.90673 0.0
C961 C 0.88848 0.19094 0.92434 0.0
C962 C 0.89686 0.12901 0.89245 0.0
C963 C 0.87724 0.14426 0.88141 0.0
C964 C 0.88243 0.17268 0.91004 0.0
C965 C 0.85871 0.17249 0.88552 0.0
C966 C 0.87478 0.22264 0.92692 0.0
C967 C 0.91734 0.19427 0.94767 0.0
N968 N 0.86214 0.18604 0.8994 0.0
N969 N 0.90919 0.17781 0.93485 0.0
H970 H 0.43918 0.20344 0.66226 0.0
H971 H 0.49324 0.1093 0.58828 0.0
H972 H 0.39012 0.11578 0.64489 0.0
H973 H 0.53935 0.20033 0.60354 0.0
H974 H 0.44924 0.11713 0.60648 0.0
H975 H 0.47075 0.2077 0.63918 0.0
C976 C 0.43502 0.18506 0.6536 0.0
C977 C 0.41237 0.15879 0.65567 0.0
C978 C 0.46847 0.1359 0.60568 0.0
C979 C 0.44831 0.16374 0.62905 0.0
C980 C 0.49343 0.13158 0.59518 0.0
C981 C 0.51983 0.15426 0.59441 0.0
C982 C 0.4703 0.16271 0.61577 0.0
C983 C 0.51919 0.18249 0.60369 0.0
C984 C 0.45287 0.1877 0.64034 0.0
C985 C 0.40735 0.13633 0.64384 0.0
N986 N 0.49516 0.18558 0.61422 0.0
N987 N 0.42546 0.13908 0.63114 0.0
H988 H 0.70707 0.83277 0.35665 0.0
H989 H 0.67796 0.77316 0.44043 0.0
H990 H 0.65853 0.89206 0.39032 0.0
H991 H 0.72593 0.71198 0.40741 0.0
H992 H 0.67828 0.81997 0.42307 0.0
H993 H 0.72217 0.79202 0.37578 0.0
C994 C 0.70017 0.83765 0.36811 0.0
C995 C 0.68112 0.86582 0.37182 0.0
C996 C 0.68906 0.79647 0.4196 0.0
C997 C 0.69806 0.81887 0.39377 0.0
C998 C 0.68876 0.76968 0.42951 0.0
C999 C 0.70146 0.73849 0.42526 0.0
C1000 C 0.7019 0.79215 0.40521 0.0
C1001 C 0.71584 0.73559 0.4111 0.0
C1002 C 0.70869 0.81421 0.37903 0.0
C1003 C 0.67303 0.8707 0.38688 0.0
N1004 N 0.71525 0.76196 0.40148 0.0
N1005 N 0.68115 0.84727 0.39724 0.0
H1006 H 0.01665 0.80571 0.17223 0.0
H1007 H 0.965 0.90934 0.09942 0.0
H1008 H 0.01562 0.91292 0.16857 0.0
H1009 H 0.92422 0.8116 0.10762 0.0
H1010 H 0.99906 0.90409 0.12183 0.0
H1011 H 0.99566 0.80171 0.14625 0.0
C1012 C 0.01223 0.82828 0.16589 0.0
C1013 C 0.01735 0.8597 0.17251 0.0
C1014 C 0.98321 0.88343 0.1186 0.0
C1015 C 0.99447 0.85542 0.14299 0.0
C1016 C 0.96404 0.88627 0.10572 0.0
C1017 C 0.94179 0.8609 0.10169 0.0
C1018 C 0.97992 0.85515 0.12771 0.0
C1019 C 0.94134 0.83159 0.1103 0.0
C1020 C 1.0003 0.82602 0.15116 0.0
C1021 C 0.01146 0.88829 0.16392 0.0
N1022 N 0.95974 0.8297 0.12311 0.0
N1023 N 1.00044 0.88546 0.14965 0.0
H1024 H 0.65506 0.79497 0.82289 0.0
H1025 H 0.59268 0.82483 0.90602 0.0
H1026 H 0.58419 0.73173 0.84512 0.0
H1027 H 0.66011 0.8914 0.88364 0.0
H1028 H 0.58483 0.7941 0.88286 0.0
H1029 H 0.6516 0.83463 0.84355 0.0
C1030 C 0.63822 0.78967 0.83195 0.0
C1031 C 0.62039 0.7595 0.83236 0.0
C1032 C 0.60125 0.8155 0.88294 0.0
C1033 C 0.61678 0.80474 0.85624 0.0
C1034 C 0.60597 0.833 0.89625 0.0
C1035 C 0.62751 0.86057 0.8969 0.0
C1036 C 0.61846 0.82526 0.8701 0.0
C1037 C 0.64337 0.87029 0.88369 0.0
C1038 C 0.63645 0.81231 0.84382 0.0
C1039 C 0.59888 0.75428 0.8444 0.0
N1040 N 0.63882 0.85244 0.87087 0.0
N1041 N 0.59808 0.77637 0.85594 0.0
H1042 H 0.54601 0.33328 0.11091 0.0
H1043 H 0.38868 0.42082 0.14781 0.0
H1044 H 0.49882 0.42189 0.09396 0.0
H1045 H 0.43382 0.33166 0.16572 0.0
H1046 H 0.42411 0.4164 0.12605 0.0
H1047 H 0.50019 0.32628 0.12865 0.0
C1048 C 0.52526 0.35037 0.11049 0.0
C1049 C 0.52583 0.37793 0.10086 0.0
C1050 C 0.42618 0.39764 0.13469 0.0
C1051 C 0.47422 0.37101 0.12141 0.0
C1052 C 0.40577 0.40011 0.14718 0.0
C1053 C 0.40829 0.37685 0.15885 0.0
C1054 C 0.44962 0.37181 0.13377 0.0
C1055 C 0.43133 0.3507 0.15726 0.0
C1056 C 0.49939 0.34673 0.12077 0.0
C1057 C 0.49902 0.40009 0.10111 0.0
N1058 N 0.45123 0.34906 0.14504 0.0
N1059 N 0.47456 0.39638 0.11131 0.0
H1060 H 0.87522 0.26321 0.43801 0.0
H1061 H 0.86532 0.31561 0.35196 0.0
H1062 H 0.85907 0.19345 0.40189 0.0
H1063 H 0.89496 0.38343 0.3871 0.0
H1064 H 0.85499 0.27261 0.3706 0.0
H1065 H 0.87558 0.30885 0.42002 0.0
C1066 C 0.87179 0.25734 0.42632 0.0
C1067 C 0.86754 0.2241 0.42152 0.0
C1068 C 0.86345 0.29697 0.37427 0.0
C1069 C 0.8674 0.27673 0.4008 0.0
C1070 C 0.86925 0.32168 0.36363 0.0
C1071 C 0.88135 0.35322 0.36792 0.0
C1072 C 0.86979 0.30367 0.3894 0.0
C1073 C 0.88573 0.35952 0.38324 0.0
C1074 C 0.8718 0.28357 0.41604 0.0
C1075 C 0.86234 0.21848 0.4062 0.0
N1076 N 0.88026 0.33487 0.3934 0.0
N1077 N 0.86261 0.24444 0.39641 0.0
H1078 H 0.92164 0.676 0.69792 0.0
H1079 H 0.92127 0.6123 0.6131 0.0
H1080 H 0.99774 0.61483 0.67836 0.0
H1081 H 0.85073 0.68346 0.63018 0.0
H1082 H 0.94383 0.6058 0.63821 0.0
H1083 H 0.89054 0.67315 0.6743 0.0
C1084 C 0.93163 0.66176 0.6887 0.0
C1085 C 0.96244 0.64589 0.69005 0.0
C1086 C 0.92312 0.62252 0.63652 0.0
C1087 C 0.92708 0.6423 0.66311 0.0
C1088 C 0.91001 0.62603 0.62217 0.0
C1089 C 0.88428 0.64877 0.61944 0.0
C1090 C 0.91048 0.64187 0.64828 0.0
C1091 C 0.87072 0.66582 0.63171 0.0
C1092 C 0.91396 0.66018 0.67524 0.0
C1093 C 0.9744 0.62795 0.67774 0.0
N1094 N 0.88425 0.66235 0.64555 0.0
N1095 N 0.95676 0.6267 0.66482 0.0
H1096 H 0.65454 0.24166 0.61106 0.0
H1097 H 0.66356 0.29079 0.69758 0.0
H1098 H 0.65615 0.16921 0.64672 0.0
H1099 H 0.63665 0.36024 0.66278 0.0
H1100 H 0.67164 0.24757 0.67868 0.0
H1101 H 0.6577 0.28629 0.62951 0.0
C1102 C 0.65549 0.23495 0.62273 0.0
C1103 C 0.65444 0.20129 0.62724 0.0
C1104 C 0.66435 0.27237 0.67516 0.0
C1105 C 0.65883 0.2528 0.64853 0.0
C1106 C 0.65995 0.29722 0.68595 0.0
C1107 C 0.64914 0.32929 0.68181 0.0
C1108 C 0.65813 0.27956 0.66008 0.0
C1109 C 0.64487 0.33593 0.66653 0.0
C1110 C 0.65752 0.26061 0.63328 0.0
C1111 C 0.65684 0.19456 0.64261 0.0
N1112 N 0.64912 0.31124 0.65625 0.0
N1113 N 0.65873 0.22004 0.65267 0.0
H1114 H 0.12392 0.41359 0.90671 0.0
H1115 H 0.94503 0.37859 0.9418 0.0
H1116 H 0.0357 0.4017 0.8799 0.0
H1117 H 0.0375 0.36429 0.96518 0.0
H1118 H 0.97607 0.39838 0.91995 0.0
H1119 H 0.09057 0.4073 0.92917 0.0
C1120 C 0.09747 0.41019 0.90553 0.0
C1121 C 0.08267 0.40784 0.89137 0.0
C1122 C 0.98945 0.39124 0.92995 0.0
C1123 C 0.04427 0.40027 0.91709 0.0
C1124 C 0.97176 0.38016 0.94242 0.0
C1125 C 0.98877 0.36954 0.95524 0.0
C1126 C 0.02425 0.39208 0.93045 0.0
C1127 C 0.02342 0.3719 0.95545 0.0
C1128 C 0.07844 0.40635 0.91837 0.0
C1129 C 0.04821 0.40308 0.89058 0.0
N1130 N 0.03998 0.38278 0.94325 0.0
N1131 N 0.0302 0.39926 0.90325 0.0
H1132 H 0.81408 0.76371 0.10591 0.0
H1133 H 0.82493 0.71959 0.19274 0.0
H1134 H 0.80625 0.83699 0.14109 0.0
H1135 H 0.8566 0.65281 0.15774 0.0
H1136 H 0.80591 0.75906 0.17385 0.0
H1137 H 0.81802 0.71979 0.12468 0.0
C1138 C 0.81303 0.77063 0.11758 0.0
C1139 C 0.81052 0.80432 0.12188 0.0
C1140 C 0.81663 0.73559 0.1703 0.0
C1141 C 0.81455 0.75386 0.14348 0.0
C1142 C 0.82739 0.71289 0.18108 0.0
C1143 C 0.84286 0.68291 0.17685 0.0
C1144 C 0.82118 0.72831 0.15513 0.0
C1145 C 0.84509 0.67566 0.16155 0.0
C1146 C 0.81514 0.74545 0.12829 0.0
C1147 C 0.80825 0.8115 0.1372 0.0
N1148 N 0.8347 0.69835 0.15125 0.0
N1149 N 0.81065 0.78653 0.14744 0.0
H1150 H 0.54803 0.69541 0.43644 0.0
H1151 H 0.52587 0.63543 0.35184 0.0
H1152 H 0.5993 0.61231 0.4163 0.0
H1153 H 0.44668 0.6867 0.37438 0.0
H1154 H 0.55774 0.63571 0.37496 0.0
H1155 H 0.51371 0.69992 0.41357 0.0
C1156 C 0.55195 0.67806 0.42733 0.0
C1157 C 0.57674 0.65355 0.42832 0.0
C1158 C 0.5334 0.647 0.37488 0.0
C1159 C 0.53831 0.65898 0.40223 0.0
C1160 C 0.5153 0.64711 0.36161 0.0
C1161 C 0.48347 0.66092 0.36114 0.0
C1162 C 0.51986 0.66104 0.38787 0.0
C1163 C 0.47096 0.67537 0.3743 0.0
C1164 C 0.53246 0.68069 0.41431 0.0
C1165 C 0.58076 0.63178 0.41614 0.0
N1166 N 0.48919 0.6751 0.38716 0.0
N1167 N 0.56204 0.6352 0.40366 0.0
H1168 H 0.33116 0.13403 0.15017 0.0
H1169 H 0.42605 0.2807 0.19298 0.0
H1170 H 0.42101 0.17969 0.13431 0.0
H1171 H 0.34611 0.22445 0.21257 0.0
H1172 H 0.42751 0.24074 0.17236 0.0
H1173 H 0.33821 0.16399 0.17388 0.0
C1174 C 0.35248 0.1501 0.15168 0.0
C1175 C 0.37517 0.15477 0.14005 0.0
C1176 C 0.40995 0.23684 0.18128 0.0
C1177 C 0.38338 0.18927 0.16714 0.0
C1178 C 0.40924 0.2596 0.19312 0.0
C1179 C 0.38569 0.25622 0.2045 0.0
C1180 C 0.38666 0.21071 0.18067 0.0
C1181 C 0.36457 0.22827 0.20404 0.0
C1182 C 0.35651 0.16724 0.16522 0.0
C1183 C 0.40235 0.17598 0.1427 0.0
N1184 N 0.36518 0.20694 0.19221 0.0
N1185 N 0.40554 0.19259 0.15586 0.0
H1186 H 0.50498 0.60904 0.94392 0.0
H1187 H 0.59085 0.69794 0.87464 0.0
H1188 H 0.48367 0.71062 0.93143 0.0
H1189 H 0.61655 0.59963 0.89057 0.0
H1190 H 0.55544 0.70556 0.89644 0.0
H1191 H 0.55063 0.60816 0.92623 0.0
C1192 C 0.51059 0.63153 0.9377 0.0
C1193 C 0.49077 0.66002 0.9392 0.0
C1194 C 0.56905 0.68244 0.89523 0.0
C1195 C 0.54229 0.65886 0.9184 0.0
C1196 C 0.5891 0.67791 0.88269 0.0
C1197 C 0.60649 0.64783 0.88059 0.0
C1198 C 0.56612 0.65667 0.90576 0.0
C1199 C 0.60377 0.62321 0.89166 0.0
C1200 C 0.53651 0.63095 0.9275 0.0
C1201 C 0.49873 0.68834 0.93074 0.0
N1202 N 0.58378 0.62806 0.90364 0.0
N1203 N 0.52358 0.68688 0.92049 0.0
H1204 H 0.13297 0.70133 0.69835 0.0
H1205 H 0.12241 0.7437 0.61127 0.0
H1206 H 0.09643 0.63155 0.66535 0.0
H1207 H 0.13827 0.81721 0.64596 0.0
H1208 H 0.12179 0.70011 0.63023 0.0
H1209 H 0.14504 0.74104 0.67852 0.0
C1210 C 0.12792 0.6941 0.6869 0.0
C1211 C 0.11328 0.66309 0.68356 0.0
C1212 C 0.12562 0.72579 0.63364 0.0
C1213 C 0.12686 0.70884 0.66073 0.0
C1214 C 0.12581 0.75089 0.62281 0.0
C1215 C 0.12991 0.78463 0.6269 0.0
C1216 C 0.12983 0.73429 0.64873 0.0
C1217 C 0.13505 0.79183 0.64211 0.0
C1218 C 0.1347 0.71693 0.67558 0.0
C1219 C 0.10758 0.65516 0.66848 0.0
N1220 N 0.13467 0.76696 0.65242 0.0
N1221 N 0.11407 0.67803 0.65763 0.0
H1222 H 0.16339 0.37746 0.41625 0.0
H1223 H 0.99383 0.41755 0.37374 0.0
H1224 H 0.08274 0.43274 0.43573 0.0
H1225 H 0.07698 0.37069 0.35222 0.0
H1226 H 0.02728 0.42513 0.39619 0.0
H1227 H 0.13429 0.37808 0.39224 0.0
C1228 C 0.13993 0.39039 0.41543 0.0
C1229 C 0.12543 0.40484 0.42812 0.0
C1230 C 0.03834 0.4133 0.38656 0.0
C1231 C 0.09169 0.4051 0.40067 0.0
C1232 C 0.0191 0.40867 0.37375 0.0
C1233 C 0.03249 0.39319 0.36107 0.0
C1234 C 0.0713 0.40221 0.38683 0.0
C1235 C 0.06569 0.38288 0.36169 0.0
C1236 C 0.12322 0.39053 0.40172 0.0
C1237 C 0.0949 0.42114 0.42633 0.0
N1238 N 0.08389 0.38736 0.37439 0.0
N1239 N 0.07891 0.42044 0.41294 0.0
H1240 H 0.32031 0.71323 0.35059 0.0
H1241 H 0.33076 0.76865 0.43623 0.0
H1242 H 0.34831 0.64588 0.38604 0.0
H1243 H 0.33355 0.8379 0.39933 0.0
H1244 H 0.32621 0.72262 0.41852 0.0
H1245 H 0.31314 0.75764 0.36895 0.0
C1246 C 0.32442 0.70752 0.36226 0.0
C1247 C 0.3353 0.67568 0.36672 0.0
C1248 C 0.32765 0.74794 0.41434 0.0
C1249 C 0.32722 0.72682 0.38785 0.0
C1250 C 0.33045 0.77441 0.42446 0.0
C1251 C 0.33328 0.80759 0.41939 0.0
C1252 C 0.3272 0.75447 0.39897 0.0
C1253 C 0.33158 0.81304 0.4039 0.0
C1254 C 0.32049 0.73305 0.37274 0.0
C1255 C 0.34005 0.66998 0.38205 0.0
N1256 N 0.32884 0.7868 0.39428 0.0
N1257 N 0.33624 0.69537 0.39205 0.0
H1258 H 0.08125 0.69492 0.10649 0.0
H1259 H 1.00438 0.61168 0.17701 0.0
H1260 H 0.03561 0.59737 0.10448 0.0
H1261 H 0.98074 0.71497 0.16899 0.0
H1262 H 0.02616 0.60734 0.15162 0.0
H1263 H 0.05262 0.7052 0.13027 0.0
C1264 C 0.06478 0.67597 0.11084 0.0
C1265 C 0.06111 0.64509 0.10347 0.0
C1266 C 0.01624 0.63099 0.15541 0.0
C1267 C 0.0293 0.65641 0.13075 0.0
C1268 C 1.00411 0.63351 0.16989 0.0
C1269 C 0.99095 0.66373 0.17503 0.0
C1270 C 0.01598 0.6591 0.14608 0.0
C1271 C 0.99073 0.69128 0.16534 0.0
C1272 C 0.04857 0.68186 0.12441 0.0
C1273 C 0.03949 0.62145 0.10972 0.0
N1274 N 1.00347 0.68847 0.15131 0.0
N1275 N 0.02501 0.62733 0.1231 0.0
H1276 H 0.07814 0.30324 0.8681 0.0
H1277 H 0.13643 0.12681 0.90057 0.0
H1278 H 0.13108 0.23133 0.84139 0.0
H1279 H 0.11486 0.2135 0.92764 0.0
H1280 H 0.12692 0.16056 0.87824 0.0
H1281 H 0.08157 0.26524 0.88931 0.0
C1282 C 0.08991 0.2792 0.86657 0.0
C1283 C 0.10469 0.27071 0.85293 0.0
C1284 C 0.12427 0.172 0.88913 0.0
C1285 C 0.10909 0.22719 0.87733 0.0
C1286 C 0.12959 0.15272 0.90195 0.0
C1287 C 0.12603 0.16683 0.91626 0.0
C1288 C 0.11511 0.20565 0.89056 0.0
C1289 C 0.11776 0.20095 0.91708 0.0
C1290 C 0.09217 0.25764 0.87876 0.0
C1291 C 0.11957 0.23908 0.8517 0.0
N1292 N 0.11246 0.21899 0.90447 0.0
N1293 N 0.12163 0.21856 0.86378 0.0
H1294 H 0.50016 0.40419 0.60156 0.0
H1295 H 0.53519 0.29721 0.6745 0.0
H1296 H 0.49194 0.29685 0.60048 0.0
H1297 H 0.49814 0.39808 0.67556 0.0
H1298 H 0.52489 0.29558 0.64738 0.0
H1299 H 0.50636 0.40206 0.62866 0.0
C1300 C 0.50016 0.3801 0.60704 0.0
C1301 C 0.49578 0.35062 0.59879 0.0
C1302 C 0.51875 0.3179 0.65362 0.0
C1303 C 0.50299 0.34797 0.62986 0.0
C1304 C 0.52461 0.31884 0.66904 0.0
C1305 C 0.51753 0.34782 0.6773 0.0
C1306 C 0.50657 0.34647 0.64637 0.0
C1307 C 0.50372 0.37514 0.66971 0.0
C1308 C 0.50338 0.37891 0.62252 0.0
C1309 C 0.49547 0.32009 0.60648 0.0
N1310 N 0.49916 0.37396 0.65468 0.0
N1311 N 0.4993 0.31949 0.62162 0.0
H1312 H 0.23746 0.26792 0.22951 0.0
H1313 H 0.22061 0.2584 0.31838 0.0
H1314 H 0.28035 0.34003 0.25982 0.0
H1315 H 0.17864 0.18509 0.28837 0.0
H1316 H 0.24063 0.28979 0.29697 0.0
H1317 H 0.21257 0.23925 0.25073 0.0
C1318 C 0.24128 0.27805 0.24059 0.0
C1319 C 0.26124 0.30638 0.24287 0.0
C1320 C 0.227 0.26686 0.29504 0.0
C1321 C 0.23321 0.27327 0.26728 0.0
C1322 C 0.21575 0.24873 0.3073 0.0
C1323 C 0.19803 0.21886 0.30523 0.0
C1324 C 0.22058 0.25511 0.28054 0.0
C1325 C 0.19194 0.20807 0.29053 0.0
C1326 C 0.22726 0.26146 0.25273 0.0
C1327 C 0.2656 0.31801 0.25754 0.0
N1328 N 0.20328 0.22611 0.27876 0.0
N1329 N 0.25187 0.30134 0.26917 0.0
H1330 H 0.01473 0.9084 0.53882 0.0
H1331 H 0.95239 0.08997 0.51408 0.0
H1332 H 0.02659 0.99658 0.5661 0.0
H1333 H 0.93635 1.00083 0.48782 0.0
H1334 H 0.97842 0.05615 0.53341 0.0
H1335 H 0.98574 0.94179 0.52015 0.0
C1336 C 0.01145 0.93481 0.54088 0.0
C1337 C 0.02343 0.94964 0.55409 0.0
C1338 C 0.96909 0.04395 0.52345 0.0
C1339 C 0.98969 0.98816 0.53268 0.0
C1340 C 0.95392 0.06328 0.51238 0.0
C1341 C 0.94199 0.04838 0.49917 0.0
C1342 C 0.97256 1.00935 0.52136 0.0
C1343 C 0.94545 0.01359 0.49766 0.0
C1344 C 0.99463 0.95387 0.53022 0.0
C1345 C 0.01767 0.98395 0.55619 0.0
N1346 N 0.96045 0.99535 0.50857 0.0
N1347 N 1.00136 1.00202 0.54559 0.0
H1348 H 0.12117 0.75842 0.77082 0.0
H1349 H 0.31861 0.74317 0.77719 0.0
H1350 H 0.1774 0.67635 0.75277 0.0
H1351 H 0.26354 0.82842 0.79298 0.0
H1352 H 0.26688 0.71769 0.76876 0.0
H1353 H 0.17273 0.78348 0.78001 0.0
C1354 C 0.14428 0.74557 0.76886 0.0
C1355 C 0.14489 0.71534 0.7609 0.0
C1356 C 0.26612 0.74198 0.77409 0.0
C1357 C 0.20408 0.74396 0.77129 0.0
C1358 C 0.29574 0.75666 0.77884 0.0
C1359 C 0.29563 0.78806 0.78584 0.0
C1360 C 0.23602 0.75875 0.77633 0.0
C1361 C 0.26497 0.80402 0.78784 0.0
C1362 C 0.17375 0.75998 0.77403 0.0
C1363 C 0.1757 0.69996 0.75858 0.0
N1364 N 0.23648 0.78922 0.78311 0.0
N1365 N 0.20397 0.71443 0.76374 0.0
H1366 H 0.44587 0.98879 0.05407 0.0
H1367 H 0.57109 0.02486 0.98687 0.0
H1368 H 0.47479 0.08776 0.04021 0.0
H1369 H 0.54117 0.92585 1.00024 0.0
H1370 H 0.53532 0.04832 1.00609 0.0
H1371 H 0.47977 0.96529 0.03415 0.0
C1372 C 0.45934 1.00562 0.04687 0.0
C1373 C 0.45742 0.04037 0.04891 0.0
C1374 C 0.53651 0.02145 1.0048 0.0
C1375 C 0.49631 0.01354 0.02594 0.0
C1376 C 0.55713 1.00799 0.99386 0.0
C1377 C 0.55934 0.97324 0.9919 0.0
C1378 C 0.51792 1.00008 1.01394 0.0
C1379 C 0.54011 0.95275 1.00118 0.0
C1380 C 0.47861 0.99217 0.03543 0.0
C1381 C 0.47511 0.06089 0.03903 0.0
N1382 N 0.52034 0.96645 1.01181 0.0
N1383 N 0.49387 0.04718 0.02804 0.0
H1384 H 0.27998 0.6681 0.28622 0.0
H1385 H 0.17876 0.83203 0.26339 0.0
H1386 H 0.31993 0.76795 0.28859 0.0
H1387 H 0.14562 0.73239 0.25244 0.0
H1388 H 0.2282 0.80855 0.27497 0.0
H1389 H 0.2286 0.69076 0.27577 0.0
C1390 C 0.27793 0.69478 0.28454 0.0
C1391 C 0.30433 0.71615 0.28828 0.0
C1392 C 0.21009 0.79178 0.27008 0.0
C1393 C 0.24556 0.74227 0.27639 0.0
C1394 C 0.18182 0.80518 0.26344 0.0
C1395 C 0.15809 0.78423 0.25673 0.0
C1396 C 0.21479 0.75706 0.27012 0.0
C1397 C 0.1631 0.74954 0.25749 0.0
C1398 C 0.24864 0.70769 0.27855 0.0
C1399 C 0.30044 0.7505 0.28572 0.0
N1400 N 0.19099 0.73705 0.26398 0.0
N1401 N 0.27159 0.76248 0.28001 0.0
H1402 H 0.45415 0.91912 0.51149 0.0
H1403 H 0.55068 0.08847 0.53177 0.0
H1404 H 0.44388 1.01089 0.48667 0.0
H1405 H 0.56593 0.99581 0.55533 0.0
H1406 H 0.51103 0.0604 0.5154 0.0
H1407 H 0.49459 0.94654 0.52776 0.0
C1408 C 0.46038 0.94495 0.50937 0.0
C1409 C 0.44536 0.96257 0.49758 0.0
C1410 C 0.52304 0.04614 0.52413 0.0
C1411 C 0.49173 0.99434 0.51639 0.0
C1412 C 0.54564 0.06224 0.53357 0.0
C1413 C 0.56168 0.04461 0.54506 0.0
C1414 C 0.51616 1.01204 0.52615 0.0
C1415 C 0.55445 1.01041 0.54659 0.0
C1416 C 0.48347 0.96067 0.51875 0.0
C1417 C 0.4543 0.99625 0.49565 0.0
N1418 N 0.53217 0.99531 0.53729 0.0
N1419 N 0.47682 1.01095 0.50492 0.0
H1420 H 0.20749 0.35278 0.79291 0.0
H1421 H 0.31871 0.20175 0.76295 0.0
H1422 H 0.25177 0.27899 0.82177 0.0
H1423 H 0.27287 0.27541 0.73448 0.0
H1424 H 0.29593 0.23034 0.78471 0.0
H1425 H 0.23312 0.32574 0.77148 0.0
C1426 C 0.22267 0.3309 0.79474 0.0
C1427 C 0.22726 0.318 0.80916 0.0
C1428 C 0.29085 0.24022 0.77369 0.0
C1429 C 0.25683 0.28684 0.78463 0.0
C1430 C 0.30394 0.22395 0.76125 0.0
C1431 C 0.29773 0.23613 0.74681 0.0
C1432 C 0.27143 0.26895 0.77171 0.0
C1433 C 0.27799 0.26479 0.74533 0.0
C1434 C 0.23738 0.31549 0.7825 0.0
C1435 C 0.24772 0.28994 0.81089 0.0
N1436 N 0.26563 0.28021 0.75761 0.0
N1437 N 0.26158 0.27516 0.79875 0.0
H1438 H 0.04477 0.99564 0.99357 0.0
H1439 H 0.90086 0.01601 0.05417 0.0
H1440 H 0.01835 0.0909 1.01266 0.0
H1441 H 0.92973 0.92237 0.03422 0.0
H1442 H 0.94194 0.0447 0.03867 0.0
H1443 H 1.00146 0.96915 1.00811 0.0
C1444 C 0.03 1.01104 1.00088 0.0
C1445 C 0.03557 0.04559 1.00195 0.0
C1446 C 0.93921 0.01787 0.0377 0.0
C1447 C 0.98524 0.01524 1.01866 0.0
C1448 C 0.91564 1.00149 0.0465 0.0
C1449 C 0.91194 0.96661 0.04564 0.0
C1450 C 0.95914 0.99926 0.02793 0.0
C1451 C 0.93203 0.94912 0.03555 0.0
C1452 C 1.00502 0.99587 1.00915 0.0
C1453 C 0.01492 0.06424 1.0114 0.0
N1454 N 0.95468 0.96558 0.02716 0.0
N1455 N 0.99078 0.04882 1.01945 0.0
H1456 H 0.84873 0.84579 0.76039 0.0
H1457 H 0.73412 0.68825 0.77983 0.0
H1458 H 0.80683 0.77963 0.7272 0.0
H1459 H 0.77583 0.75426 0.81311 0.0
H1460 H 0.76202 0.72043 0.76045 0.0
H1461 H 0.82367 0.81167 0.77991 0.0
C1462 C 0.83439 0.82406 0.75718 0.0
C1463 C 0.82988 0.81575 0.74207 0.0
C1464 C 0.76519 0.72779 0.772 0.0
C1465 C 0.80087 0.77655 0.76443 0.0
C1466 C 0.74917 0.70945 0.78308 0.0
C1467 C 0.75244 0.71855 0.79816 0.0
C1468 C 0.78464 0.75559 0.77598 0.0
C1469 C 0.77276 0.74602 0.80169 0.0
C1470 C 0.81997 0.80462 0.76835 0.0
C1471 C 0.81064 0.78744 0.73864 0.0
N1472 N 0.78791 0.76363 0.79069 0.0
N1473 N 0.79689 0.76892 0.74971 0.0
H1474 H 0.73972 0.21024 0.2454 0.0
H1475 H 0.81921 0.34229 0.30224 0.0
H1476 H 0.68332 0.28659 0.26781 0.0
H1477 H 0.87731 0.27504 0.27537 0.0
H1478 H 0.76895 0.31926 0.2912 0.0
H1479 H 0.7897 0.23048 0.25779 0.0
C1480 C 0.73769 0.23098 0.25309 0.0
C1481 C 0.70711 0.24663 0.25563 0.0
C1482 C 0.79265 0.30943 0.28773 0.0
C1483 C 0.76464 0.27033 0.26969 0.0
C1484 C 0.82145 0.32239 0.29413 0.0
C1485 C 0.85264 0.31039 0.28982 0.0
C1486 C 0.79487 0.28415 0.27692 0.0
C1487 C 0.85384 0.28513 0.27896 0.0
C1488 C 0.76639 0.24274 0.26006 0.0
C1489 C 0.70634 0.27393 0.26547 0.0
N1490 N 0.82536 0.27279 0.27291 0.0
N1491 N 0.73467 0.2849 0.27214 0.0
H1492 H 0.7833 0.18592 0.80161 0.0
H1493 H 0.67641 0.33942 0.77072 0.0
H1494 H 0.80341 0.28927 0.81216 0.0
H1495 H 0.6492 0.2365 0.76328 0.0
H1496 H 0.72247 0.32102 0.78637 0.0
H1497 H 0.73346 0.20329 0.7881 0.0
C1498 C 0.77721 0.21221 0.80122 0.0
C1499 C 0.79793 0.23613 0.808 0.0
C1500 C 0.70637 0.30239 0.78139 0.0
C1501 C 0.74091 0.25622 0.79237 0.0
C1502 C 0.68011 0.31291 0.7724 0.0
C1503 C 0.65901 0.28949 0.76558 0.0
C1504 C 0.71188 0.26809 0.78356 0.0
C1505 C 0.66469 0.25544 0.76837 0.0
C1506 C 0.74876 0.22212 0.79343 0.0
C1507 C 0.78873 0.2699 0.80691 0.0
N1508 N 0.69074 0.24575 0.77705 0.0
N1509 N 0.76108 0.27888 0.79922 0.0
H1510 H 0.73303 0.84273 0.3025 0.0
H1511 H 0.79922 0.70099 0.24734 0.0
H1512 H 0.67084 0.76608 0.28319 0.0
H1513 H 0.86187 0.77764 0.26632 0.0
H1514 H 0.75222 0.72433 0.26056 0.0
H1515 H 0.78053 0.81887 0.28974 0.0
C1516 C 0.72932 0.82068 0.2957 0.0
C1517 C 0.69776 0.80628 0.29402 0.0
C1518 C 0.7762 0.73613 0.26183 0.0
C1519 C 0.75228 0.77907 0.27914 0.0
C1520 C 0.80312 0.72295 0.25418 0.0
C1521 C 0.83462 0.73761 0.25556 0.0
C1522 C 0.78062 0.76424 0.271 0.0
C1523 C 0.83812 0.76547 0.26497 0.0
C1524 C 0.75652 0.8072 0.28831 0.0
C1525 C 0.69457 0.77818 0.28474 0.0
N1526 N 0.81143 0.77795 0.27229 0.0
N1527 N 0.72147 0.76549 0.27767 0.0
H1528 H 0.55552 0.45076 0.03368 0.0
H1529 H 0.44147 0.60675 1.01174 0.0
H1530 H 0.54152 0.53683 0.06202 0.0
H1531 H 0.45214 0.51955 0.98385 0.0
H1532 H 0.47727 0.58094 0.03041 0.0
H1533 H 0.51728 0.4749 1.01552 0.0
C1534 C 0.54433 0.47464 0.03617 0.0
C1535 C 0.55186 0.49166 0.04952 0.0
C1536 C 0.47175 0.56734 1.02024 0.0
C1537 C 0.50805 0.51971 0.02855 0.0
C1538 C 0.45137 0.58215 1.00952 0.0
C1539 C 0.44396 0.56546 0.9961 0.0
C1540 C 0.48507 0.53552 1.01759 0.0
C1541 C 0.45701 0.53329 0.99403 0.0
C1542 C 0.52253 0.48849 0.02572 0.0
C1543 C 0.53688 0.52287 0.05188 0.0
N1544 N 0.47708 0.51947 1.00461 0.0
N1545 N 0.51575 0.53582 0.04153 0.0
H1546 H 0.08815 0.48042 0.50708 0.0
H1547 H 0.93051 0.56943 0.54384 0.0
H1548 H 0.99039 0.43677 0.50712 0.0
H1549 H 0.02731 0.61458 0.54113 0.0
H1550 H 0.95219 0.5196 0.53138 0.0
H1551 H 0.06639 0.52902 0.52018 0.0
C1552 C 0.06208 0.48102 0.50974 0.0
C1553 C 0.04116 0.45426 0.50589 0.0
C1554 C 0.96867 0.54043 0.53352 0.0
C1555 C 0.01601 0.51003 0.52116 0.0
C1556 C 0.95633 0.56884 0.54072 0.0
C1557 C 0.97701 0.59644 0.54349 0.0
C1558 C 1.002 0.53948 0.5291 0.0
C1559 C 0.01024 0.59426 0.53903 0.0
C1560 C 0.04967 0.5088 0.51733 0.0
C1561 C 1.00763 0.45647 0.50995 0.0
N1562 N 0.02164 0.56638 0.53208 0.0
N1563 N 0.99614 0.48382 0.51733 0.0
H1564 H 0.07795 0.54728 0.05053 0.0
H1565 H 0.03557 0.35288 0.03993 0.0
H1566 H 0.13219 0.46793 0.07212 0.0
H1567 H 0.98744 0.43104 1.01489 0.0
H1568 H 0.07102 0.39479 0.05181 0.0
H1569 H 0.04513 0.50545 0.03717 0.0
C1570 C 0.08331 0.52116 0.0524 0.0
C1571 C 0.10802 0.51137 0.06261 0.0
C1572 C 0.05277 0.40282 0.04368 0.0
C1573 C 0.06985 0.46303 0.04738 0.0
C1574 C 0.03233 0.37885 0.03695 0.0
C1575 C 0.00824 0.3883 0.0264 0.0
C1576 C 0.04915 0.43673 0.03998 0.0
C1577 C 1.00575 0.42242 1.02284 0.0
C1578 C 0.06431 0.4972 0.04479 0.0
C1579 C 0.1132 0.4769 0.0646 0.0
N1580 N 0.02576 0.44534 0.02965 0.0
N1581 N 0.09427 0.45411 0.05713 0.0
H1582 H 0.6058 0.50882 0.4839 0.0
H1583 H 0.49302 0.52442 0.55698 0.0
H1584 H 0.59181 0.59945 0.5092 0.0
H1585 H 0.51048 0.43019 0.53496 0.0
H1586 H 0.52812 0.55194 0.5388 0.0
H1587 H 0.57085 0.479 0.50189 0.0
C1588 C 0.59559 0.52242 0.49324 0.0
C1589 C 0.60156 0.55685 0.4949 0.0
C1590 C 0.52437 0.52522 0.53789 0.0
C1591 C 0.56132 0.52298 0.51544 0.0
C1592 C 0.50433 0.50941 0.54835 0.0
C1593 C 0.4989 0.4748 0.54765 0.0
C1594 C 0.53929 0.50646 0.52651 0.0
C1595 C 0.51375 0.45692 0.53593 0.0
C1596 C 0.57548 0.50543 0.50346 0.0
C1597 C 0.58743 0.57316 0.50721 0.0
N1598 N 0.53336 0.47293 0.52585 0.0
N1599 N 0.56803 0.55616 0.51692 0.0
H1600 H 0.06895 0.06718 0.30703 0.0
H1601 H 0.14815 0.95524 0.24163 0.0
H1602 H 0.17333 0.06591 0.29716 0.0
H1603 H 0.05034 0.9394 0.25935 0.0
H1604 H 0.15598 1.00139 0.25949 0.0
H1605 H 0.05985 0.02558 0.28725 0.0
C1606 C 0.08992 0.05831 0.30068 0.0
C1607 C 0.12198 0.06996 0.30388 0.0
C1608 C 0.13275 0.98788 0.25939 0.0
C1609 C 0.11173 0.02246 0.28111 0.0
C1610 C 0.12823 0.96166 0.24914 0.0
C1611 C 0.09863 0.94324 0.24902 0.0
C1612 C 0.10736 0.996 0.26947 0.0
C1613 C 0.0737 0.95266 0.25909 0.0
C1614 C 0.08474 0.0345 0.2894 0.0
C1615 C 0.1482 0.05751 0.29522 0.0
N1616 N 0.07862 0.97825 0.26886 0.0
N1617 N 0.14251 0.03453 0.28427 0.0
H1618 H 0.14637 0.86047 0.53532 0.0
H1619 H 0.33187 0.81858 0.50902 0.0
H1620 H 0.21351 0.80052 0.56157 0.0
H1621 H 0.26292 0.88014 0.48454 0.0
H1622 H 0.28869 0.80857 0.52783 0.0
H1623 H 0.18854 0.86506 0.51603 0.0
C1624 C 0.16993 0.84815 0.53703 0.0
C1625 C 0.1763 0.83016 0.55015 0.0
C1626 C 0.28308 0.82413 0.51828 0.0
C1627 C 0.22511 0.83542 0.52801 0.0
C1628 C 0.30769 0.82975 0.50753 0.0
C1629 C 0.30117 0.8504 0.4952 0.0
C1630 C 0.25176 0.83917 0.51664 0.0
C1631 C 0.26934 0.86428 0.49388 0.0
C1632 C 0.19411 0.85079 0.52599 0.0
C1633 C 0.20743 0.8147 0.55166 0.0
N1634 N 0.24604 0.8585 0.50442 0.0
N1635 N 0.23067 0.81777 0.54077 0.0
H1636 H 0.33574 0.06489 0.73432 0.0
H1637 H 0.42998 0.99292 0.80638 0.0
H1638 H 0.42516 0.10951 0.75185 0.0
H1639 H 0.34503 0.94623 0.78566 0.0
H1640 H 0.428 0.03693 0.78739 0.0
H1641 H 0.33859 0.02237 0.75361 0.0
C1642 C 0.35612 0.06576 0.74221 0.0
C1643 C 0.38027 0.09098 0.7414 0.0
C1644 C 0.40976 0.0171 0.78704 0.0
C1645 C 0.38357 0.0419 0.7638 0.0
C1646 C 0.41075 0.99199 0.79792 0.0
C1647 C 0.38761 0.9657 0.79768 0.0
C1648 C 0.38538 0.01606 0.7758 0.0
C1649 C 0.36341 0.96588 0.78636 0.0
C1650 C 0.3577 0.04134 0.75328 0.0
C1651 C 0.40605 0.09054 0.752 0.0
N1652 N 0.36298 0.99055 0.77593 0.0
N1653 N 0.40697 0.06646 0.76278 0.0
H1654 H 0.34966 0.15076 0.03954 0.0
H1655 H 0.16105 0.17614 1.01322 0.0
H1656 H 0.27019 0.17299 0.06996 0.0
H1657 H 0.2375 0.13497 0.98528 0.0
H1658 H 0.20208 0.18358 0.03327 0.0
H1659 H 0.31031 0.15346 1.01875 0.0
C1660 C 0.32403 0.1566 0.04186 0.0
C1661 C 0.31326 0.16143 0.05658 0.0
C1662 C 0.20989 0.17317 1.0227 0.0
C1663 C 0.2679 0.16443 0.03273 0.0
C1664 C 0.1865 0.16906 1.01122 0.0
C1665 C 0.19574 0.15469 0.99756 0.0
C1666 C 0.24283 0.16309 1.02046 0.0
C1667 C 0.22912 0.14591 0.99565 0.0
C1668 C 0.30151 0.158 0.02996 0.0
C1669 C 0.27964 0.16889 0.05883 0.0
N1670 N 0.25134 0.15013 1.00695 0.0
N1671 N 0.25818 0.17 0.04706 0.0
H1672 H 0.8666 0.09756 0.79837 0.0
H1673 H 0.95536 0.94644 0.75496 0.0
H1674 H 0.95383 0.04806 0.81527 0.0
H1675 H 0.86395 0.99247 0.74085 0.0
H1676 H 0.95683 0.98417 0.77665 0.0
H1677 H 0.86653 0.05988 0.77691 0.0
C1678 C 0.88573 0.07872 0.79761 0.0
C1679 C 0.91023 0.07608 0.80873 0.0
C1680 C 0.9365 0.986 0.76877 0.0
C1681 C 0.91041 0.03264 0.78396 0.0
C1682 C 0.93571 0.96452 0.75635 0.0
C1683 C 0.9095 0.96617 0.746 0.0
C1684 C 0.91096 1.00941 0.77086 0.0
C1685 C 0.88467 0.99011 0.74848 0.0
C1686 C 0.8857 0.05715 0.78531 0.0
C1687 C 0.93438 0.05106 0.80704 0.0
N1688 N 0.88603 1.01064 0.76058 0.0
N1689 N 0.9339 0.03041 0.7949 0.0
H1690 H 0.73961 0.17296 0.56795 0.0
H1691 H 0.77711 0.17532 0.48109 0.0
H1692 H 0.66316 0.18044 0.53436 0.0
H1693 H 0.85347 0.18444 0.51467 0.0
H1694 H 0.73523 0.1821 0.50033 0.0
H1695 H 0.78133 0.18228 0.54882 0.0
C1696 C 0.73155 0.17704 0.55655 0.0
C1697 C 0.6978 0.17561 0.55273 0.0
C1698 C 0.7611 0.18306 0.50352 0.0
C1699 C 0.74571 0.18585 0.53065 0.0
C1700 C 0.78511 0.17912 0.49253 0.0
C1701 C 0.81891 0.17898 0.49629 0.0
C1702 C 0.77079 0.18644 0.5185 0.0
C1703 C 0.82773 0.18434 0.51127 0.0
C1704 C 0.75546 0.18238 0.54562 0.0
C1705 C 0.68886 0.18133 0.53781 0.0
N1706 N 0.8038 0.18736 0.52186 0.0
N1707 N 0.71271 0.18569 0.52727 0.0
H1708 H 0.67289 0.07661 0.23981 0.0
H1709 H 0.60215 0.98082 0.31186 0.0
H1710 H 0.5851 0.10676 0.26346 0.0
H1711 H 0.69459 0.95571 0.29075 0.0
H1712 H 0.59492 0.02638 0.2939 0.0
H1713 H 0.68036 0.0309 0.25776 0.0
C1714 C 0.65508 0.07354 0.24869 0.0
C1715 C 0.62834 0.09568 0.25008 0.0
C1716 C 0.61686 1.01097 0.29323 0.0
C1717 C 0.63682 0.04345 0.27076 0.0
C1718 C 0.62104 0.98497 0.30353 0.0
C1719 C 0.64905 0.96431 0.30289 0.0
C1720 C 0.64076 0.01637 0.28211 0.0
C1721 C 0.67261 0.97094 0.29175 0.0
C1722 C 0.65943 0.04751 0.25899 0.0
C1723 C 0.60615 0.09045 0.26191 0.0
N1724 N 0.66788 0.99621 0.28182 0.0
N1725 N 0.61088 0.06502 0.27174 0.0
H1726 H 0.73788 0.86681 0.96777 0.0
H1727 H 0.74727 0.80688 0.05242 0.0
H1728 H 0.65451 0.82653 0.99169 0.0
H1729 H 0.8317 0.84312 0.02801 0.0
H1730 H 0.71495 0.80649 0.02935 0.0
H1731 H 0.77405 0.85138 0.98853 0.0
C1732 C 0.72719 0.85433 0.97732 0.0
C1733 C 0.69295 0.8483 0.97802 0.0
C1734 C 0.74067 0.81406 0.02895 0.0
C1735 C 0.73443 0.83076 1.002 0.0
C1736 C 0.75923 0.8142 0.04214 0.0
C1737 C 0.79222 0.82535 0.04221 0.0
C1738 C 0.755 0.82549 1.01567 0.0
C1739 C 0.80637 0.83435 0.02851 0.0
C1740 C 0.74793 0.84551 0.98919 0.0
C1741 C 0.68067 0.8318 0.99066 0.0
N1742 N 0.78755 0.83471 1.01584 0.0
N1743 N 0.70131 0.824 1.00221 0.0
H1744 H 0.69439 0.44576 0.74446 0.0
H1745 H 0.60122 0.59013 0.79038 0.0
H1746 H 0.58819 0.45679 0.74349 0.0
H1747 H 0.70387 0.56329 0.79614 0.0
H1748 H 0.59572 0.54558 0.77148 0.0
H1749 H 0.69818 0.4933 0.76139 0.0
C1750 C 0.67181 0.45831 0.7477 0.0
C1751 C 0.6409 0.447 0.74252 0.0
C1752 C 0.61941 0.54958 0.7769 0.0
C1753 C 0.64509 0.50184 0.76217 0.0
C1754 C 0.62258 0.57503 0.78767 0.0
C1755 C 0.65302 0.58048 0.79496 0.0
C1756 C 0.64697 0.5297 0.77329 0.0
C1757 C 0.67983 0.56005 0.79095 0.0
C1758 C 0.67399 0.48549 0.75746 0.0
C1759 C 0.61257 0.46452 0.74719 0.0
N1760 N 0.67617 0.53578 0.78045 0.0
N1761 N 0.61532 0.49097 0.75677 0.0
H1762 H 0.84421 0.42704 1.01005 0.0
H1763 H 0.68518 0.34021 0.04693 0.0
H1764 H 0.82215 0.32241 1.00386 0.0
H1765 H 0.7095 0.44503 0.04983 0.0
H1766 H 0.73246 0.33247 0.02991 0.0
H1767 H 0.79239 0.43361 1.02343 0.0
C1768 C 0.82835 0.40543 1.01142 0.0
C1769 C 0.83773 0.37411 1.00585 0.0
C1770 C 0.72716 0.35716 0.03422 0.0
C1771 C 0.77798 0.38136 1.02142 0.0
C1772 C 0.70013 0.36158 0.04387 0.0
C1773 C 0.69353 0.39323 0.04996 0.0
C1774 C 0.74746 0.38463 0.03063 0.0
C1775 C 0.71378 0.42004 0.04563 0.0
C1776 C 0.79864 0.40917 1.01909 0.0
C1777 C 0.81593 0.34706 1.00795 0.0
N1778 N 0.73972 0.41509 0.03636 0.0
N1779 N 0.78721 0.35122 1.01568 0.0
H1780 H 0.93397 0.47522 0.30223 0.0
H1781 H 0.8153 0.58184 0.24872 0.0
H1782 H 0.82876 0.45777 0.29895 0.0
H1783 H 0.92125 0.57709 0.24334 0.0
H1784 H 0.81928 0.54014 0.26862 0.0
H1785 H 0.92925 0.51746 0.28263 0.0
C1786 C 0.90979 0.48056 0.29755 0.0
C1787 C 0.88171 0.46284 0.30228 0.0
C1788 C 0.84163 0.54809 0.26302 0.0
C1789 C 0.87621 0.51111 0.27969 0.0
C1790 C 0.83938 0.57185 0.25163 0.0
C1791 C 0.86797 0.58297 0.24428 0.0
C1792 C 0.87275 0.53564 0.26729 0.0
C1793 C 0.89851 0.56915 0.2486 0.0
C1794 C 0.90717 0.50449 0.28625 0.0
C1795 C 0.85109 0.47074 0.29567 0.0
N1796 N 0.90011 0.54645 0.25987 0.0
N1797 N 0.84915 0.49425 0.28473 0.0
H1798 H 0.66117 0.66717 0.50967 0.0
H1799 H 0.83044 0.72978 0.54761 0.0
H1800 H 0.71663 0.75272 0.49446 0.0
H1801 H 0.78124 0.63758 0.559 0.0
H1802 H 0.78459 0.74324 0.5307 0.0
H1803 H 0.69978 0.66143 0.53061 0.0
C1804 C 0.68099 0.68523 0.51089 0.0
C1805 C 0.68576 0.7103 0.50015 0.0
C1806 C 0.78371 0.72017 0.53698 0.0
C1807 C 0.7305 0.70347 0.52405 0.0
C1808 C 0.80991 0.71246 0.54666 0.0
C1809 C 0.80992 0.68232 0.55467 0.0
C1810 C 0.75719 0.69767 0.5353 0.0
C1811 C 0.7825 0.66097 0.55298 0.0
C1812 C 0.70324 0.68174 0.52281 0.0
C1813 C 0.71207 0.73284 0.50237 0.0
N1814 N 0.7574 0.66895 0.54345 0.0
N1815 N 0.73359 0.72867 0.51395 0.0
H1816 H 0.43247 0.52611 0.30874 0.0
H1817 H 0.31929 0.46022 0.2412 0.0
H1818 H 0.33549 0.56483 0.29831 0.0
H1819 H 0.41113 0.41263 0.25361 0.0
H1820 H 0.32546 0.49837 0.26216 0.0
H1821 H 0.42533 0.48389 0.28916 0.0
C1822 C 0.4095 0.52556 0.30246 0.0
C1823 C 0.38456 0.54926 0.30522 0.0
C1824 C 0.34432 0.47961 0.26037 0.0
C1825 C 0.37643 0.501 0.28258 0.0
C1826 C 0.3409 0.45775 0.24831 0.0
C1827 C 0.3648 0.43305 0.24552 0.0
C1828 C 0.37199 0.47718 0.26983 0.0
C1829 C 0.39211 0.43125 0.25527 0.0
C1830 C 0.40551 0.50144 0.29124 0.0
C1831 C 0.3554 0.54717 0.29666 0.0
N1832 N 0.39502 0.45307 0.26696 0.0
N1833 N 0.35228 0.52372 0.28571 0.0
H1834 H 0.29461 0.73004 0.98509 0.0
H1835 H 0.26165 0.61332 0.05519 0.0
H1836 H 0.37042 0.67213 1.00711 0.0
H1837 H 0.19082 0.68742 0.04093 0.0
H1838 H 0.30137 0.63552 0.03755 0.0
H1839 H 0.25666 0.71708 1.00551 0.0
C1840 C 0.30354 0.71515 0.99435 0.0
C1841 C 0.33581 0.70198 0.99427 0.0
C1842 C 0.27725 0.64713 0.03826 0.0
C1843 C 0.29211 0.68652 1.01758 0.0
C1844 C 0.25432 0.63428 0.0483 0.0
C1845 C 0.22258 0.6483 0.0495 0.0
C1846 C 0.26853 0.6741 0.02908 0.0
C1847 C 0.21491 0.67573 0.04035 0.0
C1848 C 0.28175 0.70766 1.00598 0.0
C1849 C 0.34586 0.68285 1.00661 0.0
N1850 N 0.23762 0.68755 0.03041 0.0
N1851 N 0.32399 0.67534 1.01761 0.0
H1852 H 0.17567 0.45419 0.80478 0.0
H1853 H 0.05415 0.54461 0.74727 0.0
H1854 H 0.0729 0.4261 0.80059 0.0
H1855 H 0.16018 0.55774 0.74832 0.0
H1856 H 0.05957 0.49987 0.76581 0.0
H1857 H 0.16955 0.49106 0.78352 0.0
C1858 C 0.15169 0.45575 0.79937 0.0
C1859 C 0.12466 0.43718 0.8046 0.0
C1860 C 0.08163 0.51231 0.76184 0.0
C1861 C 0.11739 0.47988 0.78001 0.0
C1862 C 0.0786 0.53782 0.75122 0.0
C1863 C 0.10676 0.55523 0.74628 0.0
C1864 C 0.11301 0.50427 0.76761 0.0
C1865 C 0.13774 0.54529 0.75183 0.0
C1866 C 0.14825 0.47681 0.78713 0.0
C1867 C 0.09436 0.44003 0.79695 0.0
N1868 N 0.13996 0.52078 0.76225 0.0
N1869 N 0.09143 0.46129 0.7851 0.0
H1870 H 0.24369 0.32346 0.48603 0.0
H1871 H 0.31712 0.43295 0.55363 0.0
H1872 H 0.19422 0.40874 0.50515 0.0
H1873 H 0.36203 0.3409 0.539 0.0
H1874 H 0.27329 0.4252 0.53518 0.0
H1875 H 0.28837 0.33024 0.50442 0.0
C1876 C 0.2422 0.34367 0.49405 0.0
C1877 C 0.21502 0.36557 0.49398 0.0
C1878 C 0.29265 0.40661 0.53597 0.0
C1879 C 0.26627 0.37345 0.51512 0.0
C1880 C 0.31783 0.41102 0.54654 0.0
C1881 C 0.34346 0.38753 0.54794 0.0
C1882 C 0.29292 0.37853 0.52655 0.0
C1883 C 0.3428 0.35964 0.53837 0.0
C1884 C 0.26774 0.34745 0.50458 0.0
C1885 C 0.21456 0.3912 0.50472 0.0
N1886 N 0.31801 0.35596 0.52807 0.0
N1887 N 0.23972 0.39443 0.51479 0.0
loop_
_geom_bond_atom_site_label_1
_geom_bond_atom_site_label_2
_geom_bond_distance
_geom_bond_site_symmetry_2
_ccdc_geom_bond_type
Cu0 N1 1.999 . S
Cu0 O6 1.974 . S
Cu0 N11 1.985 . S
Cu0 O20 1.959 . S
N1 Cu0 1.999 . S
N1 C3 1.263 . S
N1 C5 1.389 . S
N2 C3 1.358 . S
N2 C4 1.400 . S
C3 N1 1.263 . S
C3 N2 1.358 . S
C3 H9 0.930 . S
C4 N2 1.400 . S
C4 C5 1.351 . S
C4 H21 0.930 . S
C5 N1 1.389 . S
C5 C4 1.351 . S
C5 H10 0.930 . S
O6 Cu0 1.974 . S
O6 C16 1.282 . S
C7 O8 1.261 . S
C7 O20 1.251 . S
O8 C7 1.261 . S
H9 C3 0.930 . S
H10 C5 0.930 . S
N11 Cu0 1.985 . S
N11 C13 1.335 . S
N11 C14 1.390 . S
N12 C13 1.345 . S
N12 C15 1.336 . S
C13 N11 1.335 . S
C13 N12 1.345 . S
C13 H18 0.930 . S
C14 N11 1.390 . S
C14 C15 1.346 . S
C14 H19 0.930 . S
C15 N12 1.336 . S
C15 C14 1.346 . S
C15 H22 0.929 . S
C16 O6 1.282 . S
C16 O17 1.216 . S
O17 C16 1.216 . S
H18 C13 0.930 . S
H19 C14 0.930 . S
O20 Cu0 1.959 . S
O20 C7 1.251 . S
H21 C4 0.930 . S
H22 C15 0.929 . S
Cu23 N24 1.999 . S
Cu23 O29 1.974 . S
Cu23 N34 1.985 . S
Cu23 O43 1.959 . S
N24 Cu23 1.999 . S
N24 C26 1.263 . S
N24 C28 1.389 . S
N25 C26 1.358 . S
N25 C27 1.400 . S
C26 N24 1.263 . S
C26 N25 1.358 . S
C26 H32 0.930 . S
C27 N25 1.400 . S
C27 C28 1.351 . S
C27 H44 0.930 . S
C28 N24 1.389 . S
C28 C27 1.351 . S
C28 H33 0.930 . S
O29 Cu23 1.974 . S
O29 C39 1.282 . S
C30 O31 1.261 . S
C30 O43 1.251 . S
O31 C30 1.261 . S
H32 C26 0.930 . S
H33 C28 0.930 . S
N34 Cu23 1.985 . S
N34 C36 1.335 . S
N34 C37 1.390 . S
N35 C36 1.345 . S
N35 C38 1.336 . S
C36 N34 1.335 . S
C36 N35 1.345 . S
C36 H41 0.930 . S
C37 N34 1.390 . S
C37 C38 1.346 . S
C37 H42 0.930 . S
C38 N35 1.336 . S
C38 C37 1.346 . S
C38 H45 0.929 . S
C39 O29 1.282 . S
C39 O40 1.216 . S
O40 C39 1.216 . S
H41 C36 0.930 . S
H42 C37 0.930 . S
O43 Cu23 1.959 . S
O43 C30 1.251 . S
H44 C27 0.930 . S
H45 C38 0.929 . S
Cu46 N47 1.999 . S
Cu46 O52 1.974 . S
Cu46 N57 1.985 . S
Cu46 O66 1.959 . S
N47 Cu46 1.999 . S
N47 C49 1.263 . S
N47 C51 1.389 . S
N48 C49 1.358 . S
N48 C50 1.400 . S
C49 N47 1.263 . S
C49 N48 1.358 . S
C49 H55 0.930 . S
C50 N48 1.400 . S
C50 C51 1.351 . S
C50 H67 0.930 . S
C51 N47 1.389 . S
C51 C50 1.351 . S
C51 H56 0.930 . S
O52 Cu46 1.974 . S
O52 C62 1.282 . S
C53 O54 1.261 . S
C53 O66 1.251 . S
O54 C53 1.261 . S
H55 C49 0.930 . S
H56 C51 0.930 . S
N57 Cu46 1.985 . S
N57 C59 1.335 . S
N57 C60 1.390 . S
N58 C59 1.345 . S
N58 C61 1.336 . S
C59 N57 1.335 . S
C59 N58 1.345 . S
C59 H64 0.930 . S
C60 N57 1.390 . S
C60 C61 1.346 . S
C60 H65 0.930 . S
C61 N58 1.336 . S
C61 C60 1.346 . S
C61 H68 0.929 . S
C62 O52 1.282 . S
C62 O63 1.216 . S
O63 C62 1.216 . S
H64 C59 0.930 . S
H65 C60 0.930 . S
O66 Cu46 1.959 . S
O66 C53 1.251 . S
H67 C50 0.930 . S
H68 C61 0.929 . S
Cu69 N70 1.999 . S
Cu69 O75 1.974 . S
Cu69 N80 1.985 . S
Cu69 O89 1.959 . S
N70 Cu69 1.999 . S
N70 C72 1.263 . S
N70 C74 1.389 . S
N71 C72 1.358 . S
N71 C73 1.400 . S
C72 N70 1.263 . S
C72 N71 1.358 . S
C72 H78 0.930 . S
C73 N71 1.400 . S
C73 C74 1.351 . S
C73 H90 0.930 . S
C74 N70 1.389 . S
C74 C73 1.351 . S
C74 H79 0.930 . S
O75 Cu69 1.974 . S
O75 C85 1.282 . S
C76 O77 1.261 . S
C76 O89 1.251 . S
O77 C76 1.261 . S
H78 C72 0.930 . S
H79 C74 0.930 . S
N80 Cu69 1.985 . S
N80 C82 1.335 . S
N80 C83 1.390 . S
N81 C82 1.345 . S
N81 C84 1.336 . S
C82 N80 1.335 . S
C82 N81 1.345 . S
C82 H87 0.930 . S
C83 N80 1.390 . S
C83 C84 1.346 . S
C83 H88 0.930 . S
C84 N81 1.336 . S
C84 C83 1.346 . S
C84 H91 0.929 . S
C85 O75 1.282 . S
C85 O86 1.216 . S
O86 C85 1.216 . S
H87 C82 0.930 . S
H88 C83 0.930 . S
O89 Cu69 1.959 . S
O89 C76 1.251 . S
H90 C73 0.930 . S
H91 C84 0.929 . S
Cu92 N93 1.999 . S
Cu92 O98 1.974 . S
Cu92 N103 1.985 . S
Cu92 O112 1.959 . S
N93 Cu92 1.999 . S
N93 C95 1.263 . S
N93 C97 1.389 . S
N94 C95 1.358 . S
N94 C96 1.400 . S
C95 N93 1.263 . S
C95 N94 1.358 . S
C95 H101 0.930 . S
C96 N94 1.400 . S
C96 C97 1.351 . S
C96 H113 0.930 . S
C97 N93 1.389 . S
C97 C96 1.351 . S
C97 H102 0.930 . S
O98 Cu92 1.974 . S
O98 C108 1.282 . S
C99 O100 1.261 . S
C99 O112 1.251 . S
O100 C99 1.261 . S
H101 C95 0.930 . S
H102 C97 0.930 . S
N103 Cu92 1.985 . S
N103 C105 1.335 . S
N103 C106 1.390 . S
N104 C105 1.345 . S
N104 C107 1.336 . S
C105 N103 1.335 . S
C105 N104 1.345 . S
C105 H110 0.930 . S
C106 N103 1.390 . S
C106 C107 1.346 . S
C106 H111 0.930 . S
C107 N104 1.336 . S
C107 C106 1.346 . S
C107 H114 0.929 . S
C108 O98 1.282 . S
C108 O109 1.216 . S
O109 C108 1.216 . S
H110 C105 0.930 . S
H111 C106 0.930 . S
O112 Cu92 1.959 . S
O112 C99 1.251 . S
H113 C96 0.930 . S
H114 C107 0.929 . S
Cu115 N116 1.999 . S
Cu115 O121 1.974 . S
Cu115 N126 1.985 . S
Cu115 O135 1.959 . S
N116 Cu115 1.999 . S
N116 C118 1.263 . S
N116 C120 1.389 . S
N117 C118 1.358 . S
N117 C119 1.400 . S
C118 N116 1.263 . S
C118 N117 1.358 . S
C118 H124 0.930 . S
C119 N117 1.400 . S
C119 C120 1.351 . S
C119 H136 0.930 . S
C120 N116 1.389 . S
C120 C119 1.351 . S
C120 H125 0.930 . S
O121 Cu115 1.974 . S
O121 C131 1.282 . S
C122 O123 1.261 . S
C122 O135 1.251 . S
O123 C122 1.261 . S
H124 C118 0.930 . S
H125 C120 0.930 . S
N126 Cu115 1.985 . S
N126 C128 1.335 . S
N126 C129 1.390 . S
N127 C128 1.345 . S
N127 C130 1.336 . S
C128 N126 1.335 . S
C128 N127 1.345 . S
C128 H133 0.930 . S
C129 N126 1.390 . S
C129 C130 1.346 . S
C129 H134 0.930 . S
C130 N127 1.336 . S
C130 C129 1.346 . S
C130 H137 0.929 . S
C131 O121 1.282 . S
C131 O132 1.216 . S
O132 C131 1.216 . S
H133 C128 0.930 . S
H134 C129 0.930 . S
O135 Cu115 1.959 . S
O135 C122 1.251 . S
H136 C119 0.930 . S
H137 C130 0.929 . S
Cu138 N139 1.999 . S
Cu138 O144 1.974 . S
Cu138 N149 1.985 . S
Cu138 O158 1.959 . S
N139 Cu138 1.999 . S
N139 C141 1.263 . S
N139 C143 1.389 . S
N140 C141 1.358 . S
N140 C142 1.400 . S
C141 N139 1.263 . S
C141 N140 1.358 . S
C141 H147 0.930 . S
C142 N140 1.400 . S
C142 C143 1.351 . S
C142 H159 0.930 . S
C143 N139 1.389 . S
C143 C142 1.351 . S
C143 H148 0.930 . S
O144 Cu138 1.974 . S
O144 C154 1.282 . S
C145 O146 1.261 . S
C145 O158 1.251 . S
O146 C145 1.261 . S
H147 C141 0.930 . S
H148 C143 0.930 . S
N149 Cu138 1.985 . S
N149 C151 1.335 . S
N149 C152 1.390 . S
N150 C151 1.345 . S
N150 C153 1.336 . S
C151 N149 1.335 . S
C151 N150 1.345 . S
C151 H156 0.930 . S
C152 N149 1.390 . S
C152 C153 1.346 . S
C152 H157 0.930 . S
C153 N150 1.336 . S
C153 C152 1.346 . S
C153 H160 0.929 . S
C154 O144 1.282 . S
C154 O155 1.216 . S
O155 C154 1.216 . S
H156 C151 0.930 . S
H157 C152 0.930 . S
O158 Cu138 1.959 . S
O158 C145 1.251 . S
H159 C142 0.930 . S
H160 C153 0.929 . S
Cu161 N162 1.999 . S
Cu161 O167 1.974 . S
Cu161 N172 1.985 . S
Cu161 O181 1.959 . S
N162 Cu161 1.999 . S
N162 C164 1.263 . S
N162 C166 1.389 . S
N163 C164 1.358 . S
N163 C165 1.400 . S
C164 N162 1.263 . S
C164 N163 1.358 . S
C164 H170 0.930 . S
C165 N163 1.400 . S
C165 C166 1.351 . S
C165 H182 0.930 . S
C166 N162 1.389 . S
C166 C165 1.351 . S
C166 H171 0.930 . S
O167 Cu161 1.974 . S
O167 C177 1.282 . S
C168 O169 1.261 . S
C168 O181 1.251 . S
O169 C168 1.261 . S
H170 C164 0.930 . S
H171 C166 0.930 . S
N172 Cu161 1.985 . S
N172 C174 1.335 . S
N172 C175 1.390 . S
N173 C174 1.345 . S
N173 C176 1.336 . S
C174 N172 1.335 . S
C174 N173 1.345 . S
C174 H179 0.930 . S
C175 N172 1.390 . S
C175 C176 1.346 . S
C175 H180 0.930 . S
C176 N173 1.336 . S
C176 C175 1.346 . S
C176 H183 0.929 . S
C177 O167 1.282 . S
C177 O178 1.216 . S
O178 C177 1.216 . S
H179 C174 0.930 . S
H180 C175 0.930 . S
O181 Cu161 1.959 . S
O181 C168 1.251 . S
H182 C165 0.930 . S
H183 C176 0.929 . S
Cu184 N185 1.999 . S
Cu184 O190 1.974 . S
Cu184 N195 1.985 . S
Cu184 O204 1.959 . S
N185 Cu184 1.999 . S
N185 C187 1.263 . S
N185 C189 1.389 . S
N186 C187 1.358 . S
N186 C188 1.400 . S
C187 N185 1.263 . S
C187 N186 1.358 . S
C187 H193 0.930 . S
C188 N186 1.400 . S
C188 C189 1.351 . S
C188 H205 0.930 . S
C189 N185 1.389 . S
C189 C188 1.351 . S
C189 H194 0.930 . S
O190 Cu184 1.974 . S
O190 C200 1.282 . S
C191 O192 1.261 . S
C191 O204 1.251 . S
O192 C191 1.261 . S
H193 C187 0.930 . S
H194 C189 0.930 . S
N195 Cu184 1.985 . S
N195 C197 1.335 . S
N195 C198 1.390 . S
N196 C197 1.345 . S
N196 C199 1.336 . S
C197 N195 1.335 . S
C197 N196 1.345 . S
C197 H202 0.930 . S
C198 N195 1.390 . S
C198 C199 1.346 . S
C198 H203 0.930 . S
C199 N196 1.336 . S
C199 C198 1.346 . S
C199 H206 0.929 . S
C200 O190 1.282 . S
C200 O201 1.216 . S
O201 C200 1.216 . S
H202 C197 0.930 . S
H203 C198 0.930 . S
O204 Cu184 1.959 . S
O204 C191 1.251 . S
H205 C188 0.930 . S
H206 C199 0.929 . S
Cu207 N208 1.999 . S
Cu207 O213 1.974 . S
Cu207 N218 1.985 . S
Cu207 O227 1.959 . S
N208 Cu207 1.999 . S
N208 C210 1.263 . S
N208 C212 1.389 . S
N209 C210 1.358 . S
N209 C211 1.400 . S
C210 N208 1.263 . S
C210 N209 1.358 . S
C210 H216 0.930 . S
C211 N209 1.400 . S
C211 C212 1.351 . S
C211 H228 0.930 . S
C212 N208 1.389 . S
C212 C211 1.351 . S
C212 H217 0.930 . S
O213 Cu207 1.974 . S
O213 C223 1.282 . S
C214 O215 1.261 . S
C214 O227 1.251 . S
O215 C214 1.261 . S
H216 C210 0.930 . S
H217 C212 0.930 . S
N218 Cu207 1.985 . S
N218 C220 1.335 . S
N218 C221 1.390 . S
N219 C220 1.345 . S
N219 C222 1.336 . S
C220 N218 1.335 . S
C220 N219 1.345 . S
C220 H225 0.930 . S
C221 N218 1.390 . S
C221 C222 1.346 . S
C221 H226 0.930 . S
C222 N219 1.336 . S
C222 C221 1.346 . S
C222 H229 0.929 . S
C223 O213 1.282 . S
C223 O224 1.216 . S
O224 C223 1.216 . S
H225 C220 0.930 . S
H226 C221 0.930 . S
O227 Cu207 1.959 . S
O227 C214 1.251 . S
H228 C211 0.930 . S
H229 C222 0.929 . S
Cu230 N231 1.999 . S
Cu230 O236 1.974 . S
Cu230 N241 1.985 . S
Cu230 O250 1.959 . S
N231 Cu230 1.999 . S
N231 C233 1.263 . S
N231 C235 1.389 . S
N232 C233 1.358 . S
N232 C234 1.400 . S
C233 N231 1.263 . S
C233 N232 1.358 . S
C233 H239 0.930 . S
C234 N232 1.400 . S
C234 C235 1.351 . S
C234 H251 0.930 . S
C235 N231 1.389 . S
C235 C234 1.351 . S
C235 H240 0.930 . S
O236 Cu230 1.974 . S
O236 C246 1.282 . S
C237 O238 1.261 . S
C237 O250 1.251 . S
O238 C237 1.261 . S
H239 C233 0.930 . S
H240 C235 0.930 . S
N241 Cu230 1.985 . S
N241 C243 1.335 . S
N241 C244 1.390 . S
N242 C243 1.345 . S
N242 C245 1.336 . S
C243 N241 1.335 . S
C243 N242 1.345 . S
C243 H248 0.930 . S
C244 N241 1.390 . S
C244 C245 1.346 . S
C244 H249 0.930 . S
C245 N242 1.336 . S
C245 C244 1.346 . S
C245 H252 0.929 . S
C246 O236 1.282 . S
C246 O247 1.216 . S
O247 C246 1.216 . S
H248 C243 0.930 . S
H249 C244 0.930 . S
O250 Cu230 1.959 . S
O250 C237 1.251 . S
H251 C234 0.930 . S
H252 C245 0.929 . S
Cu253 N254 1.999 . S
Cu253 O259 1.974 . S
Cu253 N264 1.985 . S
Cu253 O273 1.959 . S
N254 Cu253 1.999 . S
N254 C256 1.263 . S
N254 C258 1.389 . S
N255 C256 1.358 . S
N255 C257 1.400 . S
C256 N254 1.263 . S
C256 N255 1.358 . S
C256 H262 0.930 . S
C257 N255 1.400 . S
C257 C258 1.351 . S
C257 H274 0.930 . S
C258 N254 1.389 . S
C258 C257 1.351 . S
C258 H263 0.930 . S
O259 Cu253 1.974 . S
O259 C269 1.282 . S
C260 O261 1.261 . S
C260 O273 1.251 . S
O261 C260 1.261 . S
H262 C256 0.930 . S
H263 C258 0.930 . S
N264 Cu253 1.985 . S
N264 C266 1.335 . S
N264 C267 1.390 . S
N265 C266 1.345 . S
N265 C268 1.336 . S
C266 N264 1.335 . S
C266 N265 1.345 . S
C266 H271 0.930 . S
C267 N264 1.390 . S
C267 C268 1.346 . S
C267 H272 0.930 . S
C268 N265 1.336 . S
C268 C267 1.346 . S
C268 H275 0.929 . S
C269 O259 1.282 . S
C269 O270 1.216 . S
O270 C269 1.216 . S
H271 C266 0.930 . S
H272 C267 0.930 . S
O273 Cu253 1.959 . S
O273 C260 1.251 . S
H274 C257 0.930 . S
H275 C268 0.929 . S
Cu276 N277 1.999 . S
Cu276 O282 1.974 . S
Cu276 N287 1.985 . S
Cu276 O296 1.959 . S
N277 Cu276 1.999 . S
N277 C279 1.263 . S
N277 C281 1.389 . S
N278 C279 1.358 . S
N278 C280 1.400 . S
C279 N277 1.263 . S
C279 N278 1.358 . S
C279 H285 0.930 . S
C280 N278 1.400 . S
C280 C281 1.351 . S
C280 H297 0.930 . S
C281 N277 1.389 . S
C281 C280 1.351 . S
C281 H286 0.930 . S
O282 Cu276 1.974 . S
O282 C292 1.282 . S
C283 O284 1.261 . S
C283 O296 1.251 . S
O284 C283 1.261 . S
H285 C279 0.930 . S
H286 C281 0.930 . S
N287 Cu276 1.985 . S
N287 C289 1.335 . S
N287 C290 1.390 . S
N288 C289 1.345 . S
N288 C291 1.336 . S
C289 N287 1.335 . S
C289 N288 1.345 . S
C289 H294 0.930 . S
C290 N287 1.390 . S
C290 C291 1.346 . S
C290 H295 0.930 . S
C291 N288 1.336 . S
C291 C290 1.346 . S
C291 H298 0.929 . S
C292 O282 1.282 . S
C292 O293 1.216 . S
O293 C292 1.216 . S
H294 C289 0.930 . S
H295 C290 0.930 . S
O296 Cu276 1.959 . S
O296 C283 1.251 . S
H297 C280 0.930 . S
H298 C291 0.929 . S
Cu299 N300 1.999 . S
Cu299 O305 1.974 . S
Cu299 N310 1.985 . S
Cu299 O319 1.959 . S
N300 Cu299 1.999 . S
N300 C302 1.263 . S
N300 C304 1.389 . S
N301 C302 1.358 . S
N301 C303 1.400 . S
C302 N300 1.263 . S
C302 N301 1.358 . S
C302 H308 0.930 . S
C303 N301 1.400 . S
C303 C304 1.351 . S
C303 H320 0.930 . S
C304 N300 1.389 . S
C304 C303 1.351 . S
C304 H309 0.930 . S
O305 Cu299 1.974 . S
O305 C315 1.282 . S
C306 O307 1.261 . S
C306 O319 1.251 . S
O307 C306 1.261 . S
H308 C302 0.930 . S
H309 C304 0.930 . S
N310 Cu299 1.985 . S
N310 C312 1.335 . S
N310 C313 1.390 . S
N311 C312 1.345 . S
N311 C314 1.336 . S
C312 N310 1.335 . S
C312 N311 1.345 . S
C312 H317 0.930 . S
C313 N310 1.390 . S
C313 C314 1.346 . S
C313 H318 0.930 . S
C314 N311 1.336 . S
C314 C313 1.346 . S
C314 H321 0.929 . S
C315 O305 1.282 . S
C315 O316 1.216 . S
O316 C315 1.216 . S
H317 C312 0.930 . S
H318 C313 0.930 . S
O319 Cu299 1.959 . S
O319 C306 1.251 . S
H320 C303 0.930 . S
H321 C314 0.929 . S
Cu322 N323 1.999 . S
Cu322 O328 1.974 . S
Cu322 N333 1.985 . S
Cu322 O342 1.959 . S
N323 Cu322 1.999 . S
N323 C325 1.263 . S
N323 C327 1.389 . S
N324 C325 1.358 . S
N324 C326 1.400 . S
C325 N323 1.263 . S
C325 N324 1.358 . S
C325 H331 0.930 . S
C326 N324 1.400 . S
C326 C327 1.351 . S
C326 H343 0.930 . S
C327 N323 1.389 . S
C327 C326 1.351 . S
C327 H332 0.930 . S
O328 Cu322 1.974 . S
O328 C338 1.282 . S
C329 O330 1.261 . S
C329 O342 1.251 . S
O330 C329 1.261 . S
H331 C325 0.930 . S
H332 C327 0.930 . S
N333 Cu322 1.985 . S
N333 C335 1.335 . S
N333 C336 1.390 . S
N334 C335 1.345 . S
N334 C337 1.336 . S
C335 N333 1.335 . S
C335 N334 1.345 . S
C335 H340 0.930 . S
C336 N333 1.390 . S
C336 C337 1.346 . S
C336 H341 0.930 . S
C337 N334 1.336 . S
C337 C336 1.346 . S
C337 H344 0.929 . S
C338 O328 1.282 . S
C338 O339 1.216 . S
O339 C338 1.216 . S
H340 C335 0.930 . S
H341 C336 0.930 . S
O342 Cu322 1.959 . S
O342 C329 1.251 . S
H343 C326 0.930 . S
H344 C337 0.929 . S
Cu345 N346 1.999 . S
Cu345 O351 1.974 . S
Cu345 N356 1.985 . S
Cu345 O365 1.959 . S
N346 Cu345 1.999 . S
N346 C348 1.263 . S
N346 C350 1.389 . S
N347 C348 1.358 . S
N347 C349 1.400 . S
C348 N346 1.263 . S
C348 N347 1.358 . S
C348 H354 0.930 . S
C349 N347 1.400 . S
C349 C350 1.351 . S
C349 H366 0.930 . S
C350 N346 1.389 . S
C350 C349 1.351 . S
C350 H355 0.930 . S
O351 Cu345 1.974 . S
O351 C361 1.282 . S
C352 O353 1.261 . S
C352 O365 1.251 . S
O353 C352 1.261 . S
H354 C348 0.930 . S
H355 C350 0.930 . S
N356 Cu345 1.985 . S
N356 C358 1.335 . S
N356 C359 1.390 . S
N357 C358 1.345 . S
N357 C360 1.336 . S
C358 N356 1.335 . S
C358 N357 1.345 . S
C358 H363 0.930 . S
C359 N356 1.390 . S
C359 C360 1.346 . S
C359 H364 0.930 . S
C360 N357 1.336 . S
C360 C359 1.346 . S
C360 H367 0.929 . S
C361 O351 1.282 . S
C361 O362 1.216 . S
O362 C361 1.216 . S
H363 C358 0.930 . S
H364 C359 0.930 . S
O365 Cu345 1.959 . S
O365 C352 1.251 . S
H366 C349 0.930 . S
H367 C360 0.929 . S
Cu368 N369 1.999 . S
Cu368 O374 1.974 . S
Cu368 N379 1.985 . S
Cu368 O388 1.959 . S
N369 Cu368 1.999 . S
N369 C371 1.263 . S
N369 C373 1.389 . S
N370 C371 1.358 . S
N370 C372 1.400 . S
C371 N369 1.263 . S
C371 N370 1.358 . S
C371 H377 0.930 . S
C372 N370 1.400 . S
C372 C373 1.351 . S
C372 H389 0.930 . S
C373 N369 1.389 . S
C373 C372 1.351 . S
C373 H378 0.930 . S
O374 Cu368 1.974 . S
O374 C384 1.282 . S
C375 O376 1.261 . S
C375 O388 1.251 . S
O376 C375 1.261 . S
H377 C371 0.930 . S
H378 C373 0.930 . S
N379 Cu368 1.985 . S
N379 C381 1.335 . S
N379 C382 1.390 . S
N380 C381 1.345 . S
N380 C383 1.336 . S
C381 N379 1.335 . S
C381 N380 1.345 . S
C381 H386 0.930 . S
C382 N379 1.390 . S
C382 C383 1.346 . S
C382 H387 0.930 . S
C383 N380 1.336 . S
C383 C382 1.346 . S
C383 H390 0.929 . S
C384 O374 1.282 . S
C384 O385 1.216 . S
O385 C384 1.216 . S
H386 C381 0.930 . S
H387 C382 0.930 . S
O388 Cu368 1.959 . S
O388 C375 1.251 . S
H389 C372 0.930 . S
H390 C383 0.929 . S
Cu391 N392 1.999 . S
Cu391 O397 1.974 . S
Cu391 N402 1.985 . S
Cu391 O411 1.959 . S
N392 Cu391 1.999 . S
N392 C394 1.263 . S
N392 C396 1.389 . S
N393 C394 1.358 . S
N393 C395 1.400 . S
C394 N392 1.263 . S
C394 N393 1.358 . S
C394 H400 0.930 . S
C395 N393 1.400 . S
C395 C396 1.351 . S
C395 H412 0.930 . S
C396 N392 1.389 . S
C396 C395 1.351 . S
C396 H401 0.930 . S
O397 Cu391 1.974 . S
O397 C407 1.282 . S
C398 O399 1.261 . S
C398 O411 1.251 . S
O399 C398 1.261 . S
H400 C394 0.930 . S
H401 C396 0.930 . S
N402 Cu391 1.985 . S
N402 C404 1.335 . S
N402 C405 1.390 . S
N403 C404 1.345 . S
N403 C406 1.336 . S
C404 N402 1.335 . S
C404 N403 1.345 . S
C404 H409 0.930 . S
C405 N402 1.390 . S
C405 C406 1.346 . S
C405 H410 0.930 . S
C406 N403 1.336 . S
C406 C405 1.346 . S
C406 H413 0.929 . S
C407 O397 1.282 . S
C407 O408 1.216 . S
O408 C407 1.216 . S
H409 C404 0.930 . S
H410 C405 0.930 . S
O411 Cu391 1.959 . S
O411 C398 1.251 . S
H412 C395 0.930 . S
H413 C406 0.929 . S
Cu414 N415 1.999 . S
Cu414 O420 1.974 . S
Cu414 N425 1.985 . S
Cu414 O434 1.959 . S
N415 Cu414 1.999 . S
N415 C417 1.263 . S
N415 C419 1.389 . S
N416 C417 1.358 . S
N416 C418 1.400 . S
C417 N415 1.263 . S
C417 N416 1.358 . S
C417 H423 0.930 . S
C418 N416 1.400 . S
C418 C419 1.351 . S
C418 H435 0.930 . S
C419 N415 1.389 . S
C419 C418 1.351 . S
C419 H424 0.930 . S
O420 Cu414 1.974 . S
O420 C430 1.282 . S
C421 O422 1.261 . S
C421 O434 1.251 . S
O422 C421 1.261 . S
H423 C417 0.930 . S
H424 C419 0.930 . S
N425 Cu414 1.985 . S
N425 C427 1.335 . S
N425 C428 1.390 . S
N426 C427 1.345 . S
N426 C429 1.336 . S
C427 N425 1.335 . S
C427 N426 1.345 . S
C427 H432 0.930 . S
C428 N425 1.390 . S
C428 C429 1.346 . S
C428 H433 0.930 . S
C429 N426 1.336 . S
C429 C428 1.346 . S
C429 H436 0.929 . S
C430 O420 1.282 . S
C430 O431 1.216 . S
O431 C430 1.216 . S
H432 C427 0.930 . S
H433 C428 0.930 . S
O434 Cu414 1.959 . S
O434 C421 1.251 . S
H435 C418 0.930 . S
H436 C429 0.929 . S
Cu437 N438 1.999 . S
Cu437 O443 1.974 . S
Cu437 N448 1.985 . S
Cu437 O457 1.959 . S
N438 Cu437 1.999 . S
N438 C440 1.263 . S
N438 C442 1.389 . S
N439 C440 1.358 . S
N439 C441 1.400 . S
C440 N438 1.263 . S
C440 N439 1.358 . S
C440 H446 0.930 . S
C441 N439 1.400 . S
C441 C442 1.351 . S
C441 H458 0.930 . S
C442 N438 1.389 . S
C442 C441 1.351 . S
C442 H447 0.930 . S
O443 Cu437 1.974 . S
O443 C453 1.282 . S
C444 O445 1.261 . S
C444 O457 1.251 . S
O445 C444 1.261 . S
H446 C440 0.930 . S
H447 C442 0.930 . S
N448 Cu437 1.985 . S
N448 C450 1.335 . S
N448 C451 1.390 . S
N449 C450 1.345 . S
N449 C452 1.336 . S
C450 N448 1.335 . S
C450 N449 1.345 . S
C450 H455 0.930 . S
C451 N448 1.390 . S
C451 C452 1.346 . S
C451 H456 0.930 . S
C452 N449 1.336 . S
C452 C451 1.346 . S
C452 H459 0.929 . S
C453 O443 1.282 . S
C453 O454 1.216 . S
O454 C453 1.216 . S
H455 C450 0.930 . S
H456 C451 0.930 . S
O457 Cu437 1.959 . S
O457 C444 1.251 . S
H458 C441 0.930 . S
H459 C452 0.929 . S
Cu460 N461 1.999 . S
Cu460 O466 1.974 . S
Cu460 N471 1.985 . S
Cu460 O480 1.959 . S
N461 Cu460 1.999 . S
N461 C463 1.263 . S
N461 C465 1.389 . S
N462 C463 1.358 . S
N462 C464 1.400 . S
C463 N461 1.263 . S
C463 N462 1.358 . S
C463 H469 0.930 . S
C464 N462 1.400 . S
C464 C465 1.351 . S
C464 H481 0.930 . S
C465 N461 1.389 . S
C465 C464 1.351 . S
C465 H470 0.930 . S
O466 Cu460 1.974 . S
O466 C476 1.282 . S
C467 O468 1.261 . S
C467 O480 1.251 . S
O468 C467 1.261 . S
H469 C463 0.930 . S
H470 C465 0.930 . S
N471 Cu460 1.985 . S
N471 C473 1.335 . S
N471 C474 1.390 . S
N472 C473 1.345 . S
N472 C475 1.336 . S
C473 N471 1.335 . S
C473 N472 1.345 . S
C473 H478 0.930 . S
C474 N471 1.390 . S
C474 C475 1.346 . S
C474 H479 0.930 . S
C475 N472 1.336 . S
C475 C474 1.346 . S
C475 H482 0.929 . S
C476 O466 1.282 . S
C476 O477 1.216 . S
O477 C476 1.216 . S
H478 C473 0.930 . S
H479 C474 0.930 . S
O480 Cu460 1.959 . S
O480 C467 1.251 . S
H481 C464 0.930 . S
H482 C475 0.929 . S
Cu483 N484 1.999 . S
Cu483 O489 1.974 . S
Cu483 N494 1.985 . S
Cu483 O503 1.959 . S
N484 Cu483 1.999 . S
N484 C486 1.263 . S
N484 C488 1.389 . S
N485 C486 1.358 . S
N485 C487 1.400 . S
C486 N484 1.263 . S
C486 N485 1.358 . S
C486 H492 0.930 . S
C487 N485 1.400 . S
C487 C488 1.351 . S
C487 H504 0.930 . S
C488 N484 1.389 . S
C488 C487 1.351 . S
C488 H493 0.930 . S
O489 Cu483 1.974 . S
O489 C499 1.282 . S
C490 O491 1.261 . S
C490 O503 1.251 . S
O491 C490 1.261 . S
H492 C486 0.930 . S
H493 C488 0.930 . S
N494 Cu483 1.985 . S
N494 C496 1.335 . S
N494 C497 1.390 . S
N495 C496 1.345 . S
N495 C498 1.336 . S
C496 N494 1.335 . S
C496 N495 1.345 . S
C496 H501 0.930 . S
C497 N494 1.390 . S
C497 C498 1.346 . S
C497 H502 0.930 . S
C498 N495 1.336 . S
C498 C497 1.346 . S
C498 H505 0.929 . S
C499 O489 1.282 . S
C499 O500 1.216 . S
O500 C499 1.216 . S
H501 C496 0.930 . S
H502 C497 0.930 . S
O503 Cu483 1.959 . S
O503 C490 1.251 . S
H504 C487 0.930 . S
H505 C498 0.929 . S
Cu506 N507 1.999 . S
Cu506 O512 1.974 . S
Cu506 N517 1.985 . S
Cu506 O526 1.959 . S
N507 Cu506 1.999 . S
N507 C509 1.263 . S
N507 C511 1.389 . S
N508 C509 1.358 . S
N508 C510 1.400 . S
C509 N507 1.263 . S
C509 N508 1.358 . S
C509 H515 0.930 . S
C510 N508 1.400 . S
C510 C511 1.351 . S
C510 H527 0.930 . S
C511 N507 1.389 . S
C511 C510 1.351 . S
C511 H516 0.930 . S
O512 Cu506 1.974 . S
O512 C522 1.282 . S
C513 O514 1.261 . S
C513 O526 1.251 . S
O514 C513 1.261 . S
H515 C509 0.930 . S
H516 C511 0.930 . S
N517 Cu506 1.985 . S
N517 C519 1.335 . S
N517 C520 1.390 . S
N518 C519 1.345 . S
N518 C521 1.336 . S
C519 N517 1.335 . S
C519 N518 1.345 . S
C519 H524 0.930 . S
C520 N517 1.390 . S
C520 C521 1.346 . S
C520 H525 0.930 . S
C521 N518 1.336 . S
C521 C520 1.346 . S
C521 H528 0.929 . S
C522 O512 1.282 . S
C522 O523 1.216 . S
O523 C522 1.216 . S
H524 C519 0.930 . S
H525 C520 0.930 . S
O526 Cu506 1.959 . S
O526 C513 1.251 . S
H527 C510 0.930 . S
H528 C521 0.929 . S
Cu529 N530 1.999 . S
Cu529 O535 1.974 . S
Cu529 N540 1.985 . S
Cu529 O549 1.959 . S
N530 Cu529 1.999 . S
N530 C532 1.263 . S
N530 C534 1.389 . S
N531 C532 1.358 . S
N531 C533 1.400 . S
C532 N530 1.263 . S
C532 N531 1.358 . S
C532 H538 0.930 . S
C533 N531 1.400 . S
C533 C534 1.351 . S
C533 H550 0.930 . S
C534 N530 1.389 . S
C534 C533 1.351 . S
C534 H539 0.930 . S
O535 Cu529 1.974 . S
O535 C545 1.282 . S
C536 O537 1.261 . S
C536 O549 1.251 . S
O537 C536 1.261 . S
H538 C532 0.930 . S
H539 C534 0.930 . S
N540 Cu529 1.985 . S
N540 C542 1.335 . S
N540 C543 1.390 . S
N541 C542 1.345 . S
N541 C544 1.336 . S
C542 N540 1.335 . S
C542 N541 1.345 . S
C542 H547 0.930 . S
C543 N540 1.390 . S
C543 C544 1.346 . S
C543 H548 0.930 . S
C544 N541 1.336 . S
C544 C543 1.346 . S
C544 H551 0.929 . S
C545 O535 1.282 . S
C545 O546 1.216 . S
O546 C545 1.216 . S
H547 C542 0.930 . S
H548 C543 0.930 . S
O549 Cu529 1.959 . S
O549 C536 1.251 . S
H550 C533 0.930 . S
H551 C544 0.929 . S
Cu552 N553 1.999 . S
Cu552 O558 1.974 . S
Cu552 N563 1.985 . S
Cu552 O572 1.959 . S
N553 Cu552 1.999 . S
N553 C555 1.263 . S
N553 C557 1.389 . S
N554 C555 1.358 . S
N554 C556 1.400 . S
C555 N553 1.263 . S
C555 N554 1.358 . S
C555 H561 0.930 . S
C556 N554 1.400 . S
C556 C557 1.351 . S
C556 H573 0.930 . S
C557 N553 1.389 . S
C557 C556 1.351 . S
C557 H562 0.930 . S
O558 Cu552 1.974 . S
O558 C568 1.282 . S
C559 O560 1.261 . S
C559 O572 1.251 . S
O560 C559 1.261 . S
H561 C555 0.930 . S
H562 C557 0.930 . S
N563 Cu552 1.985 . S
N563 C565 1.335 . S
N563 C566 1.390 . S
N564 C565 1.345 . S
N564 C567 1.336 . S
C565 N563 1.335 . S
C565 N564 1.345 . S
C565 H570 0.930 . S
C566 N563 1.390 . S
C566 C567 1.346 . S
C566 H571 0.930 . S
C567 N564 1.336 . S
C567 C566 1.346 . S
C567 H574 0.929 . S
C568 O558 1.282 . S
C568 O569 1.216 . S
O569 C568 1.216 . S
H570 C565 0.930 . S
H571 C566 0.930 . S
O572 Cu552 1.959 . S
O572 C559 1.251 . S
H573 C556 0.930 . S
H574 C567 0.929 . S
Cu575 N576 1.999 . S
Cu575 O581 1.974 . S
Cu575 N586 1.985 . S
Cu575 O595 1.959 . S
N576 Cu575 1.999 . S
N576 C578 1.263 . S
N576 C580 1.389 . S
N577 C578 1.358 . S
N577 C579 1.400 . S
C578 N576 1.263 . S
C578 N577 1.358 . S
C578 H584 0.930 . S
C579 N577 1.400 . S
C579 C580 1.351 . S
C579 H596 0.930 . S
C580 N576 1.389 . S
C580 C579 1.351 . S
C580 H585 0.930 . S
O581 Cu575 1.974 . S
O581 C591 1.282 . S
C582 O583 1.261 . S
C582 O595 1.251 . S
O583 C582 1.261 . S
H584 C578 0.930 . S
H585 C580 0.930 . S
N586 Cu575 1.985 . S
N586 C588 1.335 . S
N586 C589 1.390 . S
N587 C588 1.345 . S
N587 C590 1.336 . S
C588 N586 1.335 . S
C588 N587 1.345 . S
C588 H593 0.930 . S
C589 N586 1.390 . S
C589 C590 1.346 . S
C589 H594 0.930 . S
C590 N587 1.336 . S
C590 C589 1.346 . S
C590 H597 0.929 . S
C591 O581 1.282 . S
C591 O592 1.216 . S
O592 C591 1.216 . S
H593 C588 0.930 . S
H594 C589 0.930 . S
O595 Cu575 1.959 . S
O595 C582 1.251 . S
H596 C579 0.930 . S
H597 C590 0.929 . S
Cu598 N599 1.999 . S
Cu598 O604 1.974 . S
Cu598 N609 1.985 . S
Cu598 O618 1.959 . S
N599 Cu598 1.999 . S
N599 C601 1.263 . S
N599 C603 1.389 . S
N600 C601 1.358 . S
N600 C602 1.400 . S
C601 N599 1.263 . S
C601 N600 1.358 . S
C601 H607 0.930 . S
C602 N600 1.400 . S
C602 C603 1.351 . S
C602 H619 0.930 . S
C603 N599 1.389 . S
C603 C602 1.351 . S
C603 H608 0.930 . S
O604 Cu598 1.974 . S
O604 C614 1.282 . S
C605 O606 1.261 . S
C605 O618 1.251 . S
O606 C605 1.261 . S
H607 C601 0.930 . S
H608 C603 0.930 . S
N609 Cu598 1.985 . S
N609 C611 1.335 . S
N609 C612 1.390 . S
N610 C611 1.345 . S
N610 C613 1.336 . S
C611 N609 1.335 . S
C611 N610 1.345 . S
C611 H616 0.930 . S
C612 N609 1.390 . S
C612 C613 1.346 . S
C612 H617 0.930 . S
C613 N610 1.336 . S
C613 C612 1.346 . S
C613 H620 0.929 . S
C614 O604 1.282 . S
C614 O615 1.216 . S
O615 C614 1.216 . S
H616 C611 0.930 . S
H617 C612 0.930 . S
O618 Cu598 1.959 . S
O618 C605 1.251 . S
H619 C602 0.930 . S
H620 C613 0.929 . S
Cu621 N622 1.999 . S
Cu621 O627 1.974 . S
Cu621 N632 1.985 . S
Cu621 O641 1.959 . S
N622 Cu621 1.999 . S
N622 C624 1.263 . S
N622 C626 1.389 . S
N623 C624 1.358 . S
N623 C625 1.400 . S
C624 N622 1.263 . S
C624 N623 1.358 . S
C624 H630 0.930 . S
C625 N623 1.400 . S
C625 C626 1.351 . S
C625 H642 0.930 . S
C626 N622 1.389 . S
C626 C625 1.351 . S
C626 H631 0.930 . S
O627 Cu621 1.974 . S
O627 C637 1.282 . S
C628 O629 1.261 . S
C628 O641 1.251 . S
O629 C628 1.261 . S
H630 C624 0.930 . S
H631 C626 0.930 . S
N632 Cu621 1.985 . S
N632 C634 1.335 . S
N632 C635 1.390 . S
N633 C634 1.345 . S
N633 C636 1.336 . S
C634 N632 1.335 . S
C634 N633 1.345 . S
C634 H639 0.930 . S
C635 N632 1.390 . S
C635 C636 1.346 . S
C635 H640 0.930 . S
C636 N633 1.336 . S
C636 C635 1.346 . S
C636 H643 0.929 . S
C637 O627 1.282 . S
C637 O638 1.216 . S
O638 C637 1.216 . S
H639 C634 0.930 . S
H640 C635 0.930 . S
O641 Cu621 1.959 . S
O641 C628 1.251 . S
H642 C625 0.930 . S
H643 C636 0.929 . S
Cu644 N645 1.999 . S
Cu644 O650 1.974 . S
Cu644 N655 1.985 . S
Cu644 O664 1.959 . S
N645 Cu644 1.999 . S
N645 C647 1.263 . S
N645 C649 1.389 . S
N646 C647 1.358 . S
N646 C648 1.400 . S
C647 N645 1.263 . S
C647 N646 1.358 . S
C647 H653 0.930 . S
C648 N646 1.400 . S
C648 C649 1.351 . S
C648 H665 0.930 . S
C649 N645 1.389 . S
C649 C648 1.351 . S
C649 H654 0.930 . S
O650 Cu644 1.974 . S
O650 C660 1.282 . S
C651 O652 1.261 . S
C651 O664 1.251 . S
O652 C651 1.261 . S
H653 C647 0.930 . S
H654 C649 0.930 . S
N655 Cu644 1.985 . S
N655 C657 1.335 . S
N655 C658 1.390 . S
N656 C657 1.345 . S
N656 C659 1.336 . S
C657 N655 1.335 . S
C657 N656 1.345 . S
C657 H662 0.930 . S
C658 N655 1.390 . S
C658 C659 1.346 . S
C658 H663 0.930 . S
C659 N656 1.336 . S
C659 C658 1.346 . S
C659 H666 0.929 . S
C660 O650 1.282 . S
C660 O661 1.216 . S
O661 C660 1.216 . S
H662 C657 0.930 . S
H663 C658 0.930 . S
O664 Cu644 1.959 . S
O664 C651 1.251 . S
H665 C648 0.930 . S
H666 C659 0.929 . S
Cu667 N668 1.999 . S
Cu667 O673 1.974 . S
Cu667 N678 1.985 . S
Cu667 O687 1.959 . S
N668 Cu667 1.999 . S
N668 C670 1.263 . S
N668 C672 1.389 . S
N669 C670 1.358 . S
N669 C671 1.400 . S
C670 N668 1.263 . S
C670 N669 1.358 . S
C670 H676 0.930 . S
C671 N669 1.400 . S
C671 C672 1.351 . S
C671 H688 0.930 . S
C672 N668 1.389 . S
C672 C671 1.351 . S
C672 H677 0.930 . S
O673 Cu667 1.974 . S
O673 C683 1.282 . S
C674 O675 1.261 . S
C674 O687 1.251 . S
O675 C674 1.261 . S
H676 C670 0.930 . S
H677 C672 0.930 . S
N678 Cu667 1.985 . S
N678 C680 1.335 . S
N678 C681 1.390 . S
N679 C680 1.345 . S
N679 C682 1.336 . S
C680 N678 1.335 . S
C680 N679 1.345 . S
C680 H685 0.930 . S
C681 N678 1.390 . S
C681 C682 1.346 . S
C681 H686 0.930 . S
C682 N679 1.336 . S
C682 C681 1.346 . S
C682 H689 0.929 . S
C683 O673 1.282 . S
C683 O684 1.216 . S
O684 C683 1.216 . S
H685 C680 0.930 . S
H686 C681 0.930 . S
O687 Cu667 1.959 . S
O687 C674 1.251 . S
H688 C671 0.930 . S
H689 C682 0.929 . S
Cu690 N691 1.999 . S
Cu690 O696 1.974 . S
Cu690 N701 1.985 . S
Cu690 O710 1.959 . S
N691 Cu690 1.999 . S
N691 C693 1.263 . S
N691 C695 1.389 . S
N692 C693 1.358 . S
N692 C694 1.400 . S
C693 N691 1.263 . S
C693 N692 1.358 . S
C693 H699 0.930 . S
C694 N692 1.400 . S
C694 C695 1.351 . S
C694 H711 0.930 . S
C695 N691 1.389 . S
C695 C694 1.351 . S
C695 H700 0.930 . S
O696 Cu690 1.974 . S
O696 C706 1.282 . S
C697 O698 1.261 . S
C697 O710 1.251 . S
O698 C697 1.261 . S
H699 C693 0.930 . S
H700 C695 0.930 . S
N701 Cu690 1.985 . S
N701 C703 1.335 . S
N701 C704 1.390 . S
N702 C703 1.345 . S
N702 C705 1.336 . S
C703 N701 1.335 . S
C703 N702 1.345 . S
C703 H708 0.930 . S
C704 N701 1.390 . S
C704 C705 1.346 . S
C704 H709 0.930 . S
C705 N702 1.336 . S
C705 C704 1.346 . S
C705 H712 0.929 . S
C706 O696 1.282 . S
C706 O707 1.216 . S
O707 C706 1.216 . S
H708 C703 0.930 . S
H709 C704 0.930 . S
O710 Cu690 1.959 . S
O710 C697 1.251 . S
H711 C694 0.930 . S
H712 C705 0.929 . S
Cu713 N714 1.999 . S
Cu713 O719 1.974 . S
Cu713 N724 1.985 . S
Cu713 O733 1.959 . S
N714 Cu713 1.999 . S
N714 C716 1.263 . S
N714 C718 1.389 . S
N715 C716 1.358 . S
N715 C717 1.400 . S
C716 N714 1.263 . S
C716 N715 1.358 . S
C716 H722 0.930 . S
C717 N715 1.400 . S
C717 C718 1.351 . S
C717 H734 0.930 . S
C718 N714 1.389 . S
C718 C717 1.351 . S
C718 H723 0.930 . S
O719 Cu713 1.974 . S
O719 C729 1.282 . S
C720 O721 1.261 . S
C720 O733 1.251 . S
O721 C720 1.261 . S
H722 C716 0.930 . S
H723 C718 0.930 . S
N724 Cu713 1.985 . S
N724 C726 1.335 . S
N724 C727 1.390 . S
N725 C726 1.345 . S
N725 C728 1.336 . S
C726 N724 1.335 . S
C726 N725 1.345 . S
C726 H731 0.930 . S
C727 N724 1.390 . S
C727 C728 1.346 . S
C727 H732 0.930 . S
C728 N725 1.336 . S
C728 C727 1.346 . S
C728 H735 0.929 . S
C729 O719 1.282 . S
C729 O730 1.216 . S
O730 C729 1.216 . S
H731 C726 0.930 . S
H732 C727 0.930 . S
O733 Cu713 1.959 . S
O733 C720 1.251 . S
H734 C717 0.930 . S
H735 C728 0.929 . S
H736 C742 0.930 . S
H737 C746 0.930 . S
H738 C751 0.929 . S
H739 C749 0.929 . S
H740 C744 0.929 . S
H741 C750 0.929 . S
C742 H736 0.930 . S
C742 C743 1.367 . S
C742 C750 1.378 . S
C743 C742 1.367 . S
C743 C751 1.433 . S
C744 H740 0.929 . S
C744 C746 1.378 . S
C744 C748 1.350 . S
C745 C748 1.463 . S
C745 C750 1.350 . S
C745 N753 1.427 . S
C746 H737 0.930 . S
C746 C744 1.378 . S
C746 C747 1.367 . S
C747 C746 1.367 . S
C747 C749 1.433 . S
C748 C744 1.350 . S
C748 C745 1.463 . S
C748 N752 1.427 . S
C749 H739 0.929 . S
C749 C747 1.433 . S
C749 N752 1.384 . S
C750 H741 0.929 . S
C750 C742 1.378 . S
C750 C745 1.350 . S
C751 H738 0.929 . S
C751 C743 1.433 . S
C751 N753 1.384 . S
N752 C748 1.427 . S
N752 C749 1.384 . S
N753 C745 1.427 . S
N753 C751 1.384 . S
H754 C760 0.930 . S
H755 C764 0.930 . S
H756 C769 0.929 . S
H757 C767 0.929 . S
H758 C762 0.929 . S
H759 C768 0.929 1_655 S
C760 H754 0.930 . S
C760 C761 1.367 . S
C760 C768 1.378 . S
C761 C760 1.367 . S
C761 C769 1.433 . S
C762 H758 0.929 . S
C762 C764 1.378 . S
C762 C766 1.350 . S
C763 C766 1.463 1_455 S
C763 C768 1.350 . S
C763 N771 1.427 . S
C764 H755 0.930 . S
C764 C762 1.378 . S
C764 C765 1.367 . S
C765 C764 1.367 . S
C765 C767 1.433 . S
C766 C762 1.350 . S
C766 C763 1.463 1_655 S
C766 N770 1.427 . S
C767 H757 0.929 . S
C767 C765 1.433 . S
C767 N770 1.384 . S
C768 H759 0.929 1_455 S
C768 C760 1.378 . S
C768 C763 1.350 . S
C769 H756 0.929 . S
C769 C761 1.433 . S
C769 N771 1.384 . S
N770 C766 1.427 . S
N770 C767 1.384 . S
N771 C763 1.427 . S
N771 C769 1.384 . S
H772 C778 0.930 . S
H773 C782 0.930 . S
H774 C787 0.929 . S
H775 C785 0.929 . S
H776 C780 0.929 . S
H777 C786 0.929 . S
C778 H772 0.930 . S
C778 C779 1.367 . S
C778 C786 1.378 . S
C779 C778 1.367 . S
C779 C787 1.433 . S
C780 H776 0.929 . S
C780 C782 1.378 . S
C780 C784 1.350 . S
C781 C784 1.463 . S
C781 C786 1.350 . S
C781 N789 1.427 . S
C782 H773 0.930 . S
C782 C780 1.378 . S
C782 C783 1.367 . S
C783 C782 1.367 . S
C783 C785 1.433 . S
C784 C780 1.350 . S
C784 C781 1.463 . S
C784 N788 1.427 . S
C785 H775 0.929 . S
C785 C783 1.433 . S
C785 N788 1.384 . S
C786 H777 0.929 . S
C786 C778 1.378 . S
C786 C781 1.350 . S
C787 H774 0.929 . S
C787 C779 1.433 . S
C787 N789 1.384 . S
N788 C784 1.427 . S
N788 C785 1.384 . S
N789 C781 1.427 . S
N789 C787 1.384 . S
H790 C796 0.930 . S
H791 C800 0.930 . S
H792 C805 0.929 . S
H793 C803 0.929 . S
H794 C798 0.929 . S
H795 C804 0.929 . S
C796 H790 0.930 . S
C796 C797 1.367 . S
C796 C804 1.378 . S
C797 C796 1.367 . S
C797 C805 1.433 . S
C798 H794 0.929 . S
C798 C800 1.378 . S
C798 C802 1.350 . S
C799 C802 1.463 . S
C799 C804 1.350 . S
C799 N807 1.427 . S
C800 H791 0.930 . S
C800 C798 1.378 . S
C800 C801 1.367 . S
C801 C800 1.367 . S
C801 C803 1.433 . S
C802 C798 1.350 . S
C802 C799 1.463 . S
C802 N806 1.427 . S
C803 H793 0.929 . S
C803 C801 1.433 . S
C803 N806 1.384 . S
C804 H795 0.929 . S
C804 C796 1.378 . S
C804 C799 1.350 . S
C805 H792 0.929 . S
C805 C797 1.433 . S
C805 N807 1.384 . S
N806 C802 1.427 . S
N806 C803 1.384 . S
N807 C799 1.427 . S
N807 C805 1.384 . S
H808 C814 0.930 . S
H809 C818 0.930 . S
H810 C823 0.929 . S
H811 C821 0.929 . S
H812 C816 0.929 . S
H813 C822 0.929 . S
C814 H808 0.930 . S
C814 C815 1.367 . S
C814 C822 1.378 . S
C815 C814 1.367 . S
C815 C823 1.433 . S
C816 H812 0.929 . S
C816 C818 1.378 . S
C816 C820 1.350 . S
C817 C820 1.463 . S
C817 C822 1.350 . S
C817 N825 1.427 . S
C818 H809 0.930 . S
C818 C816 1.378 . S
C818 C819 1.367 . S
C819 C818 1.367 . S
C819 C821 1.433 . S
C820 C816 1.350 . S
C820 C817 1.463 . S
C820 N824 1.427 . S
C821 H811 0.929 . S
C821 C819 1.433 . S
C821 N824 1.384 . S
C822 H813 0.929 . S
C822 C814 1.378 . S
C822 C817 1.350 . S
C823 H810 0.929 . S
C823 C815 1.433 . S
C823 N825 1.384 . S
N824 C820 1.427 . S
N824 C821 1.384 . S
N825 C817 1.427 . S
N825 C823 1.384 . S
H826 C832 0.930 . S
H827 C836 0.930 . S
H828 C841 0.929 . S
H829 C839 0.929 . S
H830 C834 0.929 . S
H831 C840 0.929 . S
C832 H826 0.930 . S
C832 C833 1.367 . S
C832 C840 1.378 . S
C833 C832 1.367 . S
C833 C841 1.433 . S
C834 H830 0.929 . S
C834 C836 1.378 . S
C834 C838 1.350 . S
C835 C838 1.463 . S
C835 C840 1.350 . S
C835 N843 1.427 . S
C836 H827 0.930 . S
C836 C834 1.378 . S
C836 C837 1.367 . S
C837 C836 1.367 . S
C837 C839 1.433 . S
C838 C834 1.350 . S
C838 C835 1.463 . S
C838 N842 1.427 . S
C839 H829 0.929 . S
C839 C837 1.433 . S
C839 N842 1.384 . S
C840 H831 0.929 . S
C840 C832 1.378 . S
C840 C835 1.350 . S
C841 H828 0.929 . S
C841 C833 1.433 . S
C841 N843 1.384 . S
N842 C838 1.427 . S
N842 C839 1.384 . S
N843 C835 1.427 . S
N843 C841 1.384 . S
H844 C850 0.930 . S
H845 C854 0.930 . S
H846 C859 0.929 . S
H847 C857 0.929 . S
H848 C852 0.929 . S
H849 C858 0.929 . S
C850 H844 0.930 . S
C850 C851 1.367 . S
C850 C858 1.378 . S
C851 C850 1.367 . S
C851 C859 1.433 . S
C852 H848 0.929 . S
C852 C854 1.378 . S
C852 C856 1.350 . S
C853 C856 1.463 . S
C853 C858 1.350 . S
C853 N861 1.427 . S
C854 H845 0.930 . S
C854 C852 1.378 . S
C854 C855 1.367 . S
C855 C854 1.367 . S
C855 C857 1.433 . S
C856 C852 1.350 . S
C856 C853 1.463 . S
C856 N860 1.427 . S
C857 H847 0.929 . S
C857 C855 1.433 . S
C857 N860 1.384 . S
C858 H849 0.929 . S
C858 C850 1.378 . S
C858 C853 1.350 . S
C859 H846 0.929 . S
C859 C851 1.433 . S
C859 N861 1.384 . S
N860 C856 1.427 . S
N860 C857 1.384 . S
N861 C853 1.427 . S
N861 C859 1.384 . S
H862 C868 0.930 . S
H863 C872 0.930 . S
H864 C877 0.929 . S
H865 C875 0.929 . S
H866 C870 0.929 . S
H867 C876 0.929 . S
C868 H862 0.930 . S
C868 C869 1.367 . S
C868 C876 1.378 . S
C869 C868 1.367 . S
C869 C877 1.433 . S
C870 H866 0.929 . S
C870 C872 1.378 . S
C870 C874 1.350 . S
C871 C874 1.463 1_455 S
C871 C876 1.350 . S
C871 N879 1.427 . S
C872 H863 0.930 . S
C872 C870 1.378 . S
C872 C873 1.367 . S
C873 C872 1.367 . S
C873 C875 1.433 . S
C874 C870 1.350 . S
C874 C871 1.463 1_655 S
C874 N878 1.427 . S
C875 H865 0.929 . S
C875 C873 1.433 . S
C875 N878 1.384 . S
C876 H867 0.929 . S
C876 C868 1.378 . S
C876 C871 1.350 . S
C877 H864 0.929 . S
C877 C869 1.433 . S
C877 N879 1.384 . S
N878 C874 1.427 . S
N878 C875 1.384 . S
N879 C871 1.427 . S
N879 C877 1.384 . S
H880 C886 0.930 . S
H881 C890 0.930 . S
H882 C895 0.929 . S
H883 C893 0.929 . S
H884 C888 0.929 . S
H885 C894 0.929 . S
C886 H880 0.930 . S
C886 C887 1.367 . S
C886 C894 1.378 . S
C887 C886 1.367 . S
C887 C895 1.433 . S
C888 H884 0.929 . S
C888 C890 1.378 . S
C888 C892 1.350 . S
C889 C892 1.463 . S
C889 C894 1.350 . S
C889 N897 1.427 . S
C890 H881 0.930 . S
C890 C888 1.378 . S
C890 C891 1.367 . S
C891 C890 1.367 . S
C891 C893 1.433 . S
C892 C888 1.350 . S
C892 C889 1.463 . S
C892 N896 1.427 . S
C893 H883 0.929 . S
C893 C891 1.433 . S
C893 N896 1.384 . S
C894 H885 0.929 . S
C894 C886 1.378 . S
C894 C889 1.350 . S
C895 H882 0.929 . S
C895 C887 1.433 . S
C895 N897 1.384 . S
N896 C892 1.427 . S
N896 C893 1.384 . S
N897 C889 1.427 . S
N897 C895 1.384 . S
H898 C904 0.930 . S
H899 C908 0.930 . S
H900 C913 0.929 . S
H901 C911 0.929 . S
H902 C906 0.929 1_455 S
H903 C912 0.929 . S
C904 H898 0.930 . S
C904 C905 1.367 . S
C904 C912 1.378 . S
C905 C904 1.367 . S
C905 C913 1.433 . S
C906 H902 0.929 1_655 S
C906 C908 1.378 . S
C906 C910 1.350 . S
C907 C910 1.463 1_455 S
C907 C912 1.350 . S
C907 N915 1.427 . S
C908 H899 0.930 . S
C908 C906 1.378 . S
C908 C909 1.367 . S
C909 C908 1.367 . S
C909 C911 1.433 . S
C910 C906 1.350 . S
C910 C907 1.463 1_655 S
C910 N914 1.427 . S
C911 H901 0.929 . S
C911 C909 1.433 . S
C911 N914 1.384 . S
C912 H903 0.929 . S
C912 C904 1.378 . S
C912 C907 1.350 . S
C913 H900 0.929 . S
C913 C905 1.433 . S
C913 N915 1.384 . S
N914 C910 1.427 . S
N914 C911 1.384 . S
N915 C907 1.427 . S
N915 C913 1.384 . S
H916 C922 0.930 . S
H917 C926 0.930 . S
H918 C931 0.929 . S
H919 C929 0.929 . S
H920 C924 0.929 . S
H921 C930 0.929 . S
C922 H916 0.930 . S
C922 C923 1.367 . S
C922 C930 1.378 . S
C923 C922 1.367 . S
C923 C931 1.433 . S
C924 H920 0.929 . S
C924 C926 1.378 . S
C924 C928 1.350 . S
C925 C928 1.463 . S
C925 C930 1.350 . S
C925 N933 1.427 . S
C926 H917 0.930 . S
C926 C924 1.378 . S
C926 C927 1.367 . S
C927 C926 1.367 . S
C927 C929 1.433 . S
C928 C924 1.350 . S
C928 C925 1.463 . S
C928 N932 1.427 . S
C929 H919 0.929 . S
C929 C927 1.433 . S
C929 N932 1.384 . S
C930 H921 0.929 . S
C930 C922 1.378 . S
C930 C925 1.350 . S
C931 H918 0.929 . S
C931 C923 1.433 . S
C931 N933 1.384 . S
N932 C928 1.427 . S
N932 C929 1.384 . S
N933 C925 1.427 . S
N933 C931 1.384 . S
H934 C940 0.930 . S
H935 C944 0.930 . S
H936 C949 0.929 . S
H937 C947 0.929 . S
H938 C942 0.929 . S
H939 C948 0.929 . S
C940 H934 0.930 . S
C940 C941 1.367 . S
C940 C948 1.378 . S
C941 C940 1.367 . S
C941 C949 1.433 . S
C942 H938 0.929 . S
C942 C944 1.378 . S
C942 C946 1.350 . S
C943 C946 1.463 . S
C943 C948 1.350 . S
C943 N951 1.427 . S
C944 H935 0.930 . S
C944 C942 1.378 . S
C944 C945 1.367 . S
C945 C944 1.367 . S
C945 C947 1.433 . S
C946 C942 1.350 . S
C946 C943 1.463 . S
C946 N950 1.427 . S
C947 H937 0.929 . S
C947 C945 1.433 . S
C947 N950 1.384 . S
C948 H939 0.929 . S
C948 C940 1.378 . S
C948 C943 1.350 . S
C949 H936 0.929 . S
C949 C941 1.433 . S
C949 N951 1.384 . S
N950 C946 1.427 . S
N950 C947 1.384 . S
N951 C943 1.427 . S
N951 C949 1.384 . S
H952 C958 0.930 . S
H953 C962 0.930 . S
H954 C967 0.929 . S
H955 C965 0.929 . S
H956 C960 0.929 . S
H957 C966 0.929 . S
C958 H952 0.930 . S
C958 C959 1.367 . S
C958 C966 1.378 . S
C959 C958 1.367 . S
C959 C967 1.433 . S
C960 H956 0.929 . S
C960 C962 1.378 . S
C960 C964 1.350 . S
C961 C964 1.463 . S
C961 C966 1.350 . S
C961 N969 1.427 . S
C962 H953 0.930 . S
C962 C960 1.378 . S
C962 C963 1.367 . S
C963 C962 1.367 . S
C963 C965 1.433 . S
C964 C960 1.350 . S
C964 C961 1.463 . S
C964 N968 1.427 . S
C965 H955 0.929 . S
C965 C963 1.433 . S
C965 N968 1.384 . S
C966 H957 0.929 . S
C966 C958 1.378 . S
C966 C961 1.350 . S
C967 H954 0.929 . S
C967 C959 1.433 . S
C967 N969 1.384 . S
N968 C964 1.427 . S
N968 C965 1.384 . S
N969 C961 1.427 . S
N969 C967 1.384 . S
H970 C976 0.930 . S
H971 C980 0.930 . S
H972 C985 0.929 . S
H973 C983 0.929 . S
H974 C978 0.929 . S
H975 C984 0.929 . S
C976 H970 0.930 . S
C976 C977 1.367 . S
C976 C984 1.378 . S
C977 C976 1.367 . S
C977 C985 1.433 . S
C978 H974 0.929 . S
C978 C980 1.378 . S
C978 C982 1.350 . S
C979 C982 1.463 . S
C979 C984 1.350 . S
C979 N987 1.427 . S
C980 H971 0.930 . S
C980 C978 1.378 . S
C980 C981 1.367 . S
C981 C980 1.367 . S
C981 C983 1.433 . S
C982 C978 1.350 . S
C982 C979 1.463 . S
C982 N986 1.427 . S
C983 H973 0.929 . S
C983 C981 1.433 . S
C983 N986 1.384 . S
C984 H975 0.929 . S
C984 C976 1.378 . S
C984 C979 1.350 . S
C985 H972 0.929 . S
C985 C977 1.433 . S
C985 N987 1.384 . S
N986 C982 1.427 . S
N986 C983 1.384 . S
N987 C979 1.427 . S
N987 C985 1.384 . S
H988 C994 0.930 . S
H989 C998 0.930 . S
H990 C1003 0.929 . S
H991 C1001 0.929 . S
H992 C996 0.929 . S
H993 C1002 0.929 . S
C994 H988 0.930 . S
C994 C995 1.367 . S
C994 C1002 1.378 . S
C995 C994 1.367 . S
C995 C1003 1.433 . S
C996 H992 0.929 . S
C996 C998 1.378 . S
C996 C1000 1.350 . S
C997 C1000 1.463 . S
C997 C1002 1.350 . S
C997 N1005 1.427 . S
C998 H989 0.930 . S
C998 C996 1.378 . S
C998 C999 1.367 . S
C999 C998 1.367 . S
C999 C1001 1.433 . S
C1000 C996 1.350 . S
C1000 C997 1.463 . S
C1000 N1004 1.427 . S
C1001 H991 0.929 . S
C1001 C999 1.433 . S
C1001 N1004 1.384 . S
C1002 H993 0.929 . S
C1002 C994 1.378 . S
C1002 C997 1.350 . S
C1003 H990 0.929 . S
C1003 C995 1.433 . S
C1003 N1005 1.384 . S
N1004 C1000 1.427 . S
N1004 C1001 1.384 . S
N1005 C997 1.427 . S
N1005 C1003 1.384 . S
H1006 C1012 0.930 . S
H1007 C1016 0.930 . S
H1008 C1021 0.929 . S
H1009 C1019 0.929 . S
H1010 C1014 0.929 . S
H1011 C1020 0.929 . S
C1012 H1006 0.930 . S
C1012 C1013 1.367 . S
C1012 C1020 1.378 . S
C1013 C1012 1.367 . S
C1013 C1021 1.433 . S
C1014 H1010 0.929 . S
C1014 C1016 1.378 . S
C1014 C1018 1.350 . S
C1015 C1018 1.463 1_455 S
C1015 C1020 1.350 . S
C1015 N1023 1.427 . S
C1016 H1007 0.930 . S
C1016 C1014 1.378 . S
C1016 C1017 1.367 . S
C1017 C1016 1.367 . S
C1017 C1019 1.433 . S
C1018 C1014 1.350 . S
C1018 C1015 1.463 1_655 S
C1018 N1022 1.427 . S
C1019 H1009 0.929 . S
C1019 C1017 1.433 . S
C1019 N1022 1.384 . S
C1020 H1011 0.929 . S
C1020 C1012 1.378 . S
C1020 C1015 1.350 . S
C1021 H1008 0.929 . S
C1021 C1013 1.433 . S
C1021 N1023 1.384 . S
N1022 C1018 1.427 . S
N1022 C1019 1.384 . S
N1023 C1015 1.427 . S
N1023 C1021 1.384 . S
H1024 C1030 0.930 . S
H1025 C1034 0.930 . S
H1026 C1039 0.929 . S
H1027 C1037 0.929 . S
H1028 C1032 0.929 . S
H1029 C1038 0.929 . S
C1030 H1024 0.930 . S
C1030 C1031 1.367 . S
C1030 C1038 1.378 . S
C1031 C1030 1.367 . S
C1031 C1039 1.433 . S
C1032 H1028 0.929 . S
C1032 C1034 1.378 . S
C1032 C1036 1.350 . S
C1033 C1036 1.463 . S
C1033 C1038 1.350 . S
C1033 N1041 1.427 . S
C1034 H1025 0.930 . S
C1034 C1032 1.378 . S
C1034 C1035 1.367 . S
C1035 C1034 1.367 . S
C1035 C1037 1.433 . S
C1036 C1032 1.350 . S
C1036 C1033 1.463 . S
C1036 N1040 1.427 . S
C1037 H1027 0.929 . S
C1037 C1035 1.433 . S
C1037 N1040 1.384 . S
C1038 H1029 0.929 . S
C1038 C1030 1.378 . S
C1038 C1033 1.350 . S
C1039 H1026 0.929 . S
C1039 C1031 1.433 . S
C1039 N1041 1.384 . S
N1040 C1036 1.427 . S
N1040 C1037 1.384 . S
N1041 C1033 1.427 . S
N1041 C1039 1.384 . S
H1042 C1048 0.930 . S
H1043 C1052 0.930 . S
H1044 C1057 0.929 . S
H1045 C1055 0.929 . S
H1046 C1050 0.929 . S
H1047 C1056 0.929 . S
C1048 H1042 0.930 . S
C1048 C1049 1.367 . S
C1048 C1056 1.378 . S
C1049 C1048 1.367 . S
C1049 C1057 1.433 . S
C1050 H1046 0.929 . S
C1050 C1052 1.378 . S
C1050 C1054 1.350 . S
C1051 C1054 1.463 . S
C1051 C1056 1.350 . S
C1051 N1059 1.427 . S
C1052 H1043 0.930 . S
C1052 C1050 1.378 . S
C1052 C1053 1.367 . S
C1053 C1052 1.367 . S
C1053 C1055 1.433 . S
C1054 C1050 1.350 . S
C1054 C1051 1.463 . S
C1054 N1058 1.427 . S
C1055 H1045 0.929 . S
C1055 C1053 1.433 . S
C1055 N1058 1.384 . S
C1056 H1047 0.929 . S
C1056 C1048 1.378 . S
C1056 C1051 1.350 . S
C1057 H1044 0.929 . S
C1057 C1049 1.433 . S
C1057 N1059 1.384 . S
N1058 C1054 1.427 . S
N1058 C1055 1.384 . S
N1059 C1051 1.427 . S
N1059 C1057 1.384 . S
H1060 C1066 0.930 . S
H1061 C1070 0.930 . S
H1062 C1075 0.929 . S
H1063 C1073 0.929 . S
H1064 C1068 0.929 . S
H1065 C1074 0.929 . S
C1066 H1060 0.930 . S
C1066 C1067 1.367 . S
C1066 C1074 1.378 . S
C1067 C1066 1.367 . S
C1067 C1075 1.433 . S
C1068 H1064 0.929 . S
C1068 C1070 1.378 . S
C1068 C1072 1.350 . S
C1069 C1072 1.463 . S
C1069 C1074 1.350 . S
C1069 N1077 1.427 . S
C1070 H1061 0.930 . S
C1070 C1068 1.378 . S
C1070 C1071 1.367 . S
C1071 C1070 1.367 . S
C1071 C1073 1.433 . S
C1072 C1068 1.350 . S
C1072 C1069 1.463 . S
C1072 N1076 1.427 . S
C1073 H1063 0.929 . S
C1073 C1071 1.433 . S
C1073 N1076 1.384 . S
C1074 H1065 0.929 . S
C1074 C1066 1.378 . S
C1074 C1069 1.350 . S
C1075 H1062 0.929 . S
C1075 C1067 1.433 . S
C1075 N1077 1.384 . S
N1076 C1072 1.427 . S
N1076 C1073 1.384 . S
N1077 C1069 1.427 . S
N1077 C1075 1.384 . S
H1078 C1084 0.930 . S
H1079 C1088 0.930 . S
H1080 C1093 0.929 . S
H1081 C1091 0.929 . S
H1082 C1086 0.929 1_455 S
H1083 C1092 0.929 . S
C1084 H1078 0.930 . S
C1084 C1085 1.367 . S
C1084 C1092 1.378 . S
C1085 C1084 1.367 . S
C1085 C1093 1.433 . S
C1086 H1082 0.929 1_655 S
C1086 C1088 1.378 . S
C1086 C1090 1.350 . S
C1087 C1090 1.463 1_455 S
C1087 C1092 1.350 . S
C1087 N1095 1.427 . S
C1088 H1079 0.930 . S
C1088 C1086 1.378 . S
C1088 C1089 1.367 . S
C1089 C1088 1.367 . S
C1089 C1091 1.433 . S
C1090 C1086 1.350 . S
C1090 C1087 1.463 1_655 S
C1090 N1094 1.427 . S
C1091 H1081 0.929 . S
C1091 C1089 1.433 . S
C1091 N1094 1.384 . S
C1092 H1083 0.929 . S
C1092 C1084 1.378 . S
C1092 C1087 1.350 . S
C1093 H1080 0.929 . S
C1093 C1085 1.433 . S
C1093 N1095 1.384 . S
N1094 C1090 1.427 . S
N1094 C1091 1.384 . S
N1095 C1087 1.427 . S
N1095 C1093 1.384 . S
H1096 C1102 0.930 . S
H1097 C1106 0.930 . S
H1098 C1111 0.929 . S
H1099 C1109 0.929 . S
H1100 C1104 0.929 . S
H1101 C1110 0.929 . S
C1102 H1096 0.930 . S
C1102 C1103 1.367 . S
C1102 C1110 1.378 . S
C1103 C1102 1.367 . S
C1103 C1111 1.433 . S
C1104 H1100 0.929 . S
C1104 C1106 1.378 . S
C1104 C1108 1.350 . S
C1105 C1108 1.463 . S
C1105 C1110 1.350 . S
C1105 N1113 1.427 . S
C1106 H1097 0.930 . S
C1106 C1104 1.378 . S
C1106 C1107 1.367 . S
C1107 C1106 1.367 . S
C1107 C1109 1.433 . S
C1108 C1104 1.350 . S
C1108 C1105 1.463 . S
C1108 N1112 1.427 . S
C1109 H1099 0.929 . S
C1109 C1107 1.433 . S
C1109 N1112 1.384 . S
C1110 H1101 0.929 . S
C1110 C1102 1.378 . S
C1110 C1105 1.350 . S
C1111 H1098 0.929 . S
C1111 C1103 1.433 . S
C1111 N1113 1.384 . S
N1112 C1108 1.427 . S
N1112 C1109 1.384 . S
N1113 C1105 1.427 . S
N1113 C1111 1.384 . S
H1114 C1120 0.930 . S
H1115 C1124 0.930 . S
H1116 C1129 0.929 . S
H1117 C1127 0.929 . S
H1118 C1122 0.929 1_455 S
H1119 C1128 0.929 . S
C1120 H1114 0.930 . S
C1120 C1121 1.367 . S
C1120 C1128 1.378 . S
C1121 C1120 1.367 . S
C1121 C1129 1.433 . S
C1122 H1118 0.929 1_655 S
C1122 C1124 1.378 . S
C1122 C1126 1.350 . S
C1123 C1126 1.463 1_455 S
C1123 C1128 1.350 . S
C1123 N1131 1.427 . S
C1124 H1115 0.930 . S
C1124 C1122 1.378 . S
C1124 C1125 1.367 . S
C1125 C1124 1.367 . S
C1125 C1127 1.433 . S
C1126 C1122 1.350 . S
C1126 C1123 1.463 1_655 S
C1126 N1130 1.427 . S
C1127 H1117 0.929 . S
C1127 C1125 1.433 . S
C1127 N1130 1.384 . S
C1128 H1119 0.929 . S
C1128 C1120 1.378 . S
C1128 C1123 1.350 . S
C1129 H1116 0.929 . S
C1129 C1121 1.433 . S
C1129 N1131 1.384 . S
N1130 C1126 1.427 . S
N1130 C1127 1.384 . S
N1131 C1123 1.427 . S
N1131 C1129 1.384 . S
H1132 C1138 0.930 . S
H1133 C1142 0.930 . S
H1134 C1147 0.929 . S
H1135 C1145 0.929 . S
H1136 C1140 0.929 . S
H1137 C1146 0.929 . S
C1138 H1132 0.930 . S
C1138 C1139 1.367 . S
C1138 C1146 1.378 . S
C1139 C1138 1.367 . S
C1139 C1147 1.433 . S
C1140 H1136 0.929 . S
C1140 C1142 1.378 . S
C1140 C1144 1.350 . S
C1141 C1144 1.463 . S
C1141 C1146 1.350 . S
C1141 N1149 1.427 . S
C1142 H1133 0.930 . S
C1142 C1140 1.378 . S
C1142 C1143 1.367 . S
C1143 C1142 1.367 . S
C1143 C1145 1.433 . S
C1144 C1140 1.350 . S
C1144 C1141 1.463 . S
C1144 N1148 1.427 . S
C1145 H1135 0.929 . S
C1145 C1143 1.433 . S
C1145 N1148 1.384 . S
C1146 H1137 0.929 . S
C1146 C1138 1.378 . S
C1146 C1141 1.350 . S
C1147 H1134 0.929 . S
C1147 C1139 1.433 . S
C1147 N1149 1.384 . S
N1148 C1144 1.427 . S
N1148 C1145 1.384 . S
N1149 C1141 1.427 . S
N1149 C1147 1.384 . S
H1150 C1156 0.930 . S
H1151 C1160 0.930 . S
H1152 C1165 0.929 . S
H1153 C1163 0.929 . S
H1154 C1158 0.929 . S
H1155 C1164 0.929 . S
C1156 H1150 0.930 . S
C1156 C1157 1.367 . S
C1156 C1164 1.378 . S
C1157 C1156 1.367 . S
C1157 C1165 1.433 . S
C1158 H1154 0.929 . S
C1158 C1160 1.378 . S
C1158 C1162 1.350 . S
C1159 C1162 1.463 . S
C1159 C1164 1.350 . S
C1159 N1167 1.427 . S
C1160 H1151 0.930 . S
C1160 C1158 1.378 . S
C1160 C1161 1.367 . S
C1161 C1160 1.367 . S
C1161 C1163 1.433 . S
C1162 C1158 1.350 . S
C1162 C1159 1.463 . S
C1162 N1166 1.427 . S
C1163 H1153 0.929 . S
C1163 C1161 1.433 . S
C1163 N1166 1.384 . S
C1164 H1155 0.929 . S
C1164 C1156 1.378 . S
C1164 C1159 1.350 . S
C1165 H1152 0.929 . S
C1165 C1157 1.433 . S
C1165 N1167 1.384 . S
N1166 C1162 1.427 . S
N1166 C1163 1.384 . S
N1167 C1159 1.427 . S
N1167 C1165 1.384 . S
H1168 C1174 0.930 . S
H1169 C1178 0.930 . S
H1170 C1183 0.929 . S
H1171 C1181 0.929 . S
H1172 C1176 0.929 . S
H1173 C1182 0.929 . S
C1174 H1168 0.930 . S
C1174 C1175 1.367 . S
C1174 C1182 1.378 . S
C1175 C1174 1.367 . S
C1175 C1183 1.433 . S
C1176 H1172 0.929 . S
C1176 C1178 1.378 . S
C1176 C1180 1.350 . S
C1177 C1180 1.463 . S
C1177 C1182 1.350 . S
C1177 N1185 1.427 . S
C1178 H1169 0.930 . S
C1178 C1176 1.378 . S
C1178 C1179 1.367 . S
C1179 C1178 1.367 . S
C1179 C1181 1.433 . S
C1180 C1176 1.350 . S
C1180 C1177 1.463 . S
C1180 N1184 1.427 . S
C1181 H1171 0.929 . S
C1181 C1179 1.433 . S
C1181 N1184 1.384 . S
C1182 H1173 0.929 . S
C1182 C1174 1.378 . S
C1182 C1177 1.350 . S
C1183 H1170 0.929 . S
C1183 C1175 1.433 . S
C1183 N1185 1.384 . S
N1184 C1180 1.427 . S
N1184 C1181 1.384 . S
N1185 C1177 1.427 . S
N1185 C1183 1.384 . S
H1186 C1192 0.930 . S
H1187 C1196 0.930 . S
H1188 C1201 0.929 . S
H1189 C1199 0.929 . S
H1190 C1194 0.929 . S
H1191 C1200 0.929 . S
C1192 H1186 0.930 . S
C1192 C1193 1.367 . S
C1192 C1200 1.378 . S
C1193 C1192 1.367 . S
C1193 C1201 1.433 . S
C1194 H1190 0.929 . S
C1194 C1196 1.378 . S
C1194 C1198 1.350 . S
C1195 C1198 1.463 . S
C1195 C1200 1.350 . S
C1195 N1203 1.427 . S
C1196 H1187 0.930 . S
C1196 C1194 1.378 . S
C1196 C1197 1.367 . S
C1197 C1196 1.367 . S
C1197 C1199 1.433 . S
C1198 C1194 1.350 . S
C1198 C1195 1.463 . S
C1198 N1202 1.427 . S
C1199 H1189 0.929 . S
C1199 C1197 1.433 . S
C1199 N1202 1.384 . S
C1200 H1191 0.929 . S
C1200 C1192 1.378 . S
C1200 C1195 1.350 . S
C1201 H1188 0.929 . S
C1201 C1193 1.433 . S
C1201 N1203 1.384 . S
N1202 C1198 1.427 . S
N1202 C1199 1.384 . S
N1203 C1195 1.427 . S
N1203 C1201 1.384 . S
H1204 C1210 0.930 . S
H1205 C1214 0.930 . S
H1206 C1219 0.929 . S
H1207 C1217 0.929 . S
H1208 C1212 0.929 . S
H1209 C1218 0.929 . S
C1210 H1204 0.930 . S
C1210 C1211 1.367 . S
C1210 C1218 1.378 . S
C1211 C1210 1.367 . S
C1211 C1219 1.433 . S
C1212 H1208 0.929 . S
C1212 C1214 1.378 . S
C1212 C1216 1.350 . S
C1213 C1216 1.463 . S
C1213 C1218 1.350 . S
C1213 N1221 1.427 . S
C1214 H1205 0.930 . S
C1214 C1212 1.378 . S
C1214 C1215 1.367 . S
C1215 C1214 1.367 . S
C1215 C1217 1.433 . S
C1216 C1212 1.350 . S
C1216 C1213 1.463 . S
C1216 N1220 1.427 . S
C1217 H1207 0.929 . S
C1217 C1215 1.433 . S
C1217 N1220 1.384 . S
C1218 H1209 0.929 . S
C1218 C1210 1.378 . S
C1218 C1213 1.350 . S
C1219 H1206 0.929 . S
C1219 C1211 1.433 . S
C1219 N1221 1.384 . S
N1220 C1216 1.427 . S
N1220 C1217 1.384 . S
N1221 C1213 1.427 . S
N1221 C1219 1.384 . S
H1222 C1228 0.930 . S
H1223 C1232 0.930 . S
H1224 C1237 0.929 . S
H1225 C1235 0.929 . S
H1226 C1230 0.929 . S
H1227 C1236 0.929 . S
C1228 H1222 0.930 . S
C1228 C1229 1.367 . S
C1228 C1236 1.378 . S
C1229 C1228 1.367 . S
C1229 C1237 1.433 . S
C1230 H1226 0.929 . S
C1230 C1232 1.378 . S
C1230 C1234 1.350 . S
C1231 C1234 1.463 1_455 S
C1231 C1236 1.350 . S
C1231 N1239 1.429 . S
C1232 H1223 0.930 . S
C1232 C1230 1.378 . S
C1232 C1233 1.367 . S
C1233 C1232 1.367 . S
C1233 C1235 1.433 . S
C1234 C1230 1.350 . S
C1234 C1231 1.463 1_655 S
C1234 N1238 1.427 . S
C1235 H1225 0.929 . S
C1235 C1233 1.433 . S
C1235 N1238 1.384 . S
C1236 H1227 0.929 . S
C1236 C1228 1.378 . S
C1236 C1231 1.350 . S
C1237 H1224 0.929 . S
C1237 C1229 1.433 . S
C1237 N1239 1.394 . S
N1238 C1234 1.427 . S
N1238 C1235 1.384 . S
N1239 C1231 1.429 . S
N1239 C1237 1.394 . S
H1240 C1246 0.930 . S
H1241 C1250 0.930 . S
H1242 C1255 0.929 . S
H1243 C1253 0.929 . S
H1244 C1248 0.929 . S
H1245 C1254 0.929 . S
C1246 H1240 0.930 . S
C1246 C1247 1.367 . S
C1246 C1254 1.378 . S
C1247 C1246 1.367 . S
C1247 C1255 1.433 . S
C1248 H1244 0.929 . S
C1248 C1250 1.378 . S
C1248 C1252 1.350 . S
C1249 C1252 1.463 . S
C1249 C1254 1.350 . S
C1249 N1257 1.427 . S
C1250 H1241 0.930 . S
C1250 C1248 1.378 . S
C1250 C1251 1.367 . S
C1251 C1250 1.367 . S
C1251 C1253 1.433 . S
C1252 C1248 1.350 . S
C1252 C1249 1.463 . S
C1252 N1256 1.427 . S
C1253 H1243 0.929 . S
C1253 C1251 1.433 . S
C1253 N1256 1.384 . S
C1254 H1245 0.929 . S
C1254 C1246 1.378 . S
C1254 C1249 1.350 . S
C1255 H1242 0.929 . S
C1255 C1247 1.433 . S
C1255 N1257 1.384 . S
N1256 C1252 1.427 . S
N1256 C1253 1.384 . S
N1257 C1249 1.427 . S
N1257 C1255 1.384 . S
H1258 C1264 0.930 . S
H1259 C1268 0.930 . S
H1260 C1273 0.929 . S
H1261 C1271 0.929 . S
H1262 C1266 0.929 . S
H1263 C1272 0.929 . S
C1264 H1258 0.930 . S
C1264 C1265 1.367 . S
C1264 C1272 1.378 . S
C1265 C1264 1.367 . S
C1265 C1273 1.433 . S
C1266 H1262 0.929 . S
C1266 C1268 1.378 . S
C1266 C1270 1.350 . S
C1267 C1270 1.463 1_455 S
C1267 C1272 1.350 . S
C1267 N1275 1.427 . S
C1268 H1259 0.930 . S
C1268 C1266 1.378 . S
C1268 C1269 1.367 . S
C1269 C1268 1.367 . S
C1269 C1271 1.433 . S
C1270 C1266 1.350 . S
C1270 C1267 1.463 1_655 S
C1270 N1274 1.427 . S
C1271 H1261 0.929 . S
C1271 C1269 1.433 . S
C1271 N1274 1.384 . S
C1272 H1263 0.929 . S
C1272 C1264 1.378 . S
C1272 C1267 1.350 . S
C1273 H1260 0.929 . S
C1273 C1265 1.433 . S
C1273 N1275 1.384 . S
N1274 C1270 1.427 . S
N1274 C1271 1.384 . S
N1275 C1267 1.427 . S
N1275 C1273 1.384 . S
H1276 C1282 0.930 . S
H1277 C1286 0.930 . S
H1278 C1291 0.929 . S
H1279 C1289 0.929 . S
H1280 C1284 0.929 . S
H1281 C1290 0.929 . S
C1282 H1276 0.930 . S
C1282 C1283 1.367 . S
C1282 C1290 1.378 . S
C1283 C1282 1.367 . S
C1283 C1291 1.433 . S
C1284 H1280 0.929 . S
C1284 C1286 1.378 . S
C1284 C1288 1.350 . S
C1285 C1288 1.463 . S
C1285 C1290 1.350 . S
C1285 N1293 1.427 . S
C1286 H1277 0.930 . S
C1286 C1284 1.378 . S
C1286 C1287 1.367 . S
C1287 C1286 1.367 . S
C1287 C1289 1.433 . S
C1288 C1284 1.350 . S
C1288 C1285 1.463 . S
C1288 N1292 1.427 . S
C1289 H1279 0.929 . S
C1289 C1287 1.433 . S
C1289 N1292 1.384 . S
C1290 H1281 0.929 . S
C1290 C1282 1.378 . S
C1290 C1285 1.350 . S
C1291 H1278 0.929 . S
C1291 C1283 1.433 . S
C1291 N1293 1.384 . S
N1292 C1288 1.427 . S
N1292 C1289 1.384 . S
N1293 C1285 1.427 . S
N1293 C1291 1.384 . S
H1294 C1300 0.930 . S
H1295 C1304 0.930 . S
H1296 C1309 0.929 . S
H1297 C1307 0.929 . S
H1298 C1302 0.929 . S
H1299 C1308 0.929 . S
C1300 H1294 0.930 . S
C1300 C1301 1.367 . S
C1300 C1308 1.378 . S
C1301 C1300 1.367 . S
C1301 C1309 1.433 . S
C1302 H1298 0.929 . S
C1302 C1304 1.378 . S
C1302 C1306 1.350 . S
C1303 C1306 1.463 . S
C1303 C1308 1.350 . S
C1303 N1311 1.427 . S
C1304 H1295 0.930 . S
C1304 C1302 1.378 . S
C1304 C1305 1.367 . S
C1305 C1304 1.367 . S
C1305 C1307 1.433 . S
C1306 C1302 1.350 . S
C1306 C1303 1.463 . S
C1306 N1310 1.427 . S
C1307 H1297 0.929 . S
C1307 C1305 1.433 . S
C1307 N1310 1.384 . S
C1308 H1299 0.929 . S
C1308 C1300 1.378 . S
C1308 C1303 1.350 . S
C1309 H1296 0.929 . S
C1309 C1301 1.433 . S
C1309 N1311 1.384 . S
N1310 C1306 1.427 . S
N1310 C1307 1.384 . S
N1311 C1303 1.427 . S
N1311 C1309 1.384 . S
H1312 C1318 0.930 . S
H1313 C1322 0.930 . S
H1314 C1327 0.929 . S
H1315 C1325 0.929 . S
H1316 C1320 0.929 . S
H1317 C1326 0.929 . S
C1318 H1312 0.930 . S
C1318 C1319 1.367 . S
C1318 C1326 1.378 . S
C1319 C1318 1.367 . S
C1319 C1327 1.433 . S
C1320 H1316 0.929 . S
C1320 C1322 1.378 . S
C1320 C1324 1.350 . S
C1321 C1324 1.463 . S
C1321 C1326 1.350 . S
C1321 N1329 1.427 . S
C1322 H1313 0.930 . S
C1322 C1320 1.378 . S
C1322 C1323 1.367 . S
C1323 C1322 1.367 . S
C1323 C1325 1.433 . S
C1324 C1320 1.350 . S
C1324 C1321 1.463 . S
C1324 N1328 1.427 . S
C1325 H1315 0.929 . S
C1325 C1323 1.433 . S
C1325 N1328 1.384 . S
C1326 H1317 0.929 . S
C1326 C1318 1.378 . S
C1326 C1321 1.350 . S
C1327 H1314 0.929 . S
C1327 C1319 1.433 . S
C1327 N1329 1.384 . S
N1328 C1324 1.427 . S
N1328 C1325 1.384 . S
N1329 C1321 1.427 . S
N1329 C1327 1.384 . S
H1330 C1336 0.930 . S
H1331 C1340 0.930 . S
H1332 C1345 0.929 . S
H1333 C1343 0.929 . S
H1334 C1338 0.929 1_455 S
H1335 C1344 0.929 1_655 S
C1336 H1330 0.930 . S
C1336 C1337 1.367 . S
C1336 C1344 1.378 . S
C1337 C1336 1.367 . S
C1337 C1345 1.433 1_565 S
C1338 H1334 0.929 1_655 S
C1338 C1340 1.378 . S
C1338 C1342 1.350 . S
C1339 C1342 1.463 1_465 S
C1339 C1344 1.350 . S
C1339 N1347 1.427 1_565 S
C1340 H1331 0.930 . S
C1340 C1338 1.378 . S
C1340 C1341 1.367 . S
C1341 C1340 1.367 . S
C1341 C1343 1.433 1_545 S
C1342 C1338 1.350 . S
C1342 C1339 1.463 1_645 S
C1342 N1346 1.427 1_545 S
C1343 H1333 0.929 . S
C1343 C1341 1.433 1_565 S
C1343 N1346 1.384 . S
C1344 H1335 0.929 1_455 S
C1344 C1336 1.378 . S
C1344 C1339 1.350 . S
C1345 H1332 0.929 . S
C1345 C1337 1.433 1_545 S
C1345 N1347 1.384 . S
N1346 C1342 1.427 1_565 S
N1346 C1343 1.384 . S
N1347 C1339 1.427 1_545 S
N1347 C1345 1.384 . S
H1348 C1354 0.930 . S
H1349 C1358 0.930 . S
H1350 C1363 0.929 . S
H1351 C1361 0.929 . S
H1352 C1356 0.929 . S
H1353 C1362 0.929 . S
C1354 H1348 0.930 . S
C1354 C1355 1.367 . S
C1354 C1362 1.378 . S
C1355 C1354 1.367 . S
C1355 C1363 1.433 . S
C1356 H1352 0.929 . S
C1356 C1358 1.378 . S
C1356 C1360 1.350 . S
C1357 C1360 1.463 . S
C1357 C1362 1.350 . S
C1357 N1365 1.427 . S
C1358 H1349 0.930 . S
C1358 C1356 1.378 . S
C1358 C1359 1.367 . S
C1359 C1358 1.367 . S
C1359 C1361 1.433 . S
C1360 C1356 1.350 . S
C1360 C1357 1.463 . S
C1360 N1364 1.427 . S
C1361 H1351 0.929 . S
C1361 C1359 1.433 . S
C1361 N1364 1.384 . S
C1362 H1353 0.929 . S
C1362 C1354 1.378 . S
C1362 C1357 1.350 . S
C1363 H1350 0.929 . S
C1363 C1355 1.433 . S
C1363 N1365 1.384 . S
N1364 C1360 1.427 . S
N1364 C1361 1.384 . S
N1365 C1357 1.427 . S
N1365 C1363 1.384 . S
H1366 C1372 0.930 . S
H1367 C1376 0.930 . S
H1368 C1381 0.929 . S
H1369 C1379 0.929 . S
H1370 C1374 0.929 . S
H1371 C1380 0.929 . S
C1372 H1366 0.930 . S
C1372 C1373 1.367 1_565 S
C1372 C1380 1.378 . S
C1373 C1372 1.367 1_545 S
C1373 C1381 1.433 . S
C1374 H1370 0.929 . S
C1374 C1376 1.378 . S
C1374 C1378 1.350 1_545 S
C1375 C1378 1.463 1_544 S
C1375 C1380 1.350 1_545 S
C1375 N1383 1.427 . S
C1376 H1367 0.930 . S
C1376 C1374 1.378 . S
C1376 C1377 1.367 1_545 S
C1377 C1376 1.367 1_565 S
C1377 C1379 1.433 . S
C1378 C1374 1.350 1_565 S
C1378 C1375 1.463 1_566 S
C1378 N1382 1.427 . S
C1379 H1369 0.929 . S
C1379 C1377 1.433 . S
C1379 N1382 1.384 . S
C1380 H1371 0.929 . S
C1380 C1372 1.378 . S
C1380 C1375 1.350 1_565 S
C1381 H1368 0.929 . S
C1381 C1373 1.433 . S
C1381 N1383 1.384 . S
N1382 C1378 1.427 . S
N1382 C1379 1.384 . S
N1383 C1375 1.427 . S
N1383 C1381 1.384 . S
H1384 C1390 0.930 . S
H1385 C1394 0.930 . S
H1386 C1399 0.929 . S
H1387 C1397 0.929 . S
H1388 C1392 0.929 . S
H1389 C1398 0.929 . S
C1390 H1384 0.930 . S
C1390 C1391 1.367 . S
C1390 C1398 1.378 . S
C1391 C1390 1.367 . S
C1391 C1399 1.433 . S
C1392 H1388 0.929 . S
C1392 C1394 1.378 . S
C1392 C1396 1.350 . S
C1393 C1396 1.463 . S
C1393 C1398 1.350 . S
C1393 N1401 1.427 . S
C1394 H1385 0.930 . S
C1394 C1392 1.378 . S
C1394 C1395 1.367 . S
C1395 C1394 1.367 . S
C1395 C1397 1.433 . S
C1396 C1392 1.350 . S
C1396 C1393 1.463 . S
C1396 N1400 1.427 . S
C1397 H1387 0.929 . S
C1397 C1395 1.433 . S
C1397 N1400 1.384 . S
C1398 H1389 0.929 . S
C1398 C1390 1.378 . S
C1398 C1393 1.350 . S
C1399 H1386 0.929 . S
C1399 C1391 1.433 . S
C1399 N1401 1.384 . S
N1400 C1396 1.427 . S
N1400 C1397 1.384 . S
N1401 C1393 1.427 . S
N1401 C1399 1.384 . S
H1402 C1408 0.930 . S
H1403 C1412 0.930 . S
H1404 C1417 0.929 . S
H1405 C1415 0.929 . S
H1406 C1410 0.929 . S
H1407 C1416 0.929 . S
C1408 H1402 0.930 . S
C1408 C1409 1.367 . S
C1408 C1416 1.378 . S
C1409 C1408 1.367 . S
C1409 C1417 1.433 1_565 S
C1410 H1406 0.929 . S
C1410 C1412 1.378 . S
C1410 C1414 1.350 . S
C1411 C1414 1.463 1_565 S
C1411 C1416 1.350 . S
C1411 N1419 1.427 1_565 S
C1412 H1403 0.930 . S
C1412 C1410 1.378 . S
C1412 C1413 1.367 . S
C1413 C1412 1.367 . S
C1413 C1415 1.433 1_545 S
C1414 C1410 1.350 . S
C1414 C1411 1.463 1_545 S
C1414 N1418 1.427 1_545 S
C1415 H1405 0.929 . S
C1415 C1413 1.433 1_565 S
C1415 N1418 1.384 . S
C1416 H1407 0.929 . S
C1416 C1408 1.378 . S
C1416 C1411 1.350 . S
C1417 H1404 0.929 . S
C1417 C1409 1.433 1_545 S
C1417 N1419 1.384 . S
N1418 C1414 1.427 1_565 S
N1418 C1415 1.384 . S
N1419 C1411 1.427 1_545 S
N1419 C1417 1.384 . S
H1420 C1426 0.930 . S
H1421 C1430 0.930 . S
H1422 C1435 0.929 . S
H1423 C1433 0.929 . S
H1424 C1428 0.929 . S
H1425 C1434 0.929 . S
C1426 H1420 0.930 . S
C1426 C1427 1.367 . S
C1426 C1434 1.378 . S
C1427 C1426 1.367 . S
C1427 C1435 1.433 . S
C1428 H1424 0.929 . S
C1428 C1430 1.378 . S
C1428 C1432 1.350 . S
C1429 C1432 1.463 . S
C1429 C1434 1.350 . S
C1429 N1437 1.427 . S
C1430 H1421 0.930 . S
C1430 C1428 1.378 . S
C1430 C1431 1.367 . S
C1431 C1430 1.367 . S
C1431 C1433 1.433 . S
C1432 C1428 1.350 . S
C1432 C1429 1.463 . S
C1432 N1436 1.427 . S
C1433 H1423 0.929 . S
C1433 C1431 1.433 . S
C1433 N1436 1.384 . S
C1434 H1425 0.929 . S
C1434 C1426 1.378 . S
C1434 C1429 1.350 . S
C1435 H1422 0.929 . S
C1435 C1427 1.433 . S
C1435 N1437 1.384 . S
N1436 C1432 1.427 . S
N1436 C1433 1.384 . S
N1437 C1429 1.427 . S
N1437 C1435 1.384 . S
H1438 C1444 0.930 . S
H1439 C1448 0.930 . S
H1440 C1453 0.929 . S
H1441 C1451 0.929 . S
H1442 C1446 0.929 . S
H1443 C1452 0.929 . S
C1444 H1438 0.930 . S
C1444 C1445 1.367 1_565 S
C1444 C1452 1.378 . S
C1445 C1444 1.367 1_545 S
C1445 C1453 1.433 . S
C1446 H1442 0.929 . S
C1446 C1448 1.378 . S
C1446 C1450 1.350 1_545 S
C1447 C1450 1.463 1_446 S
C1447 C1452 1.350 1_545 S
C1447 N1455 1.427 . S
C1448 H1439 0.930 . S
C1448 C1446 1.378 . S
C1448 C1449 1.367 1_545 S
C1449 C1448 1.367 1_565 S
C1449 C1451 1.433 . S
C1450 C1446 1.350 1_565 S
C1450 C1447 1.463 1_664 S
C1450 N1454 1.427 . S
C1451 H1441 0.929 . S
C1451 C1449 1.433 . S
C1451 N1454 1.384 . S
C1452 H1443 0.929 . S
C1452 C1444 1.378 . S
C1452 C1447 1.350 1_565 S
C1453 H1440 0.929 . S
C1453 C1445 1.433 . S
C1453 N1455 1.384 . S
N1454 C1450 1.427 . S
N1454 C1451 1.384 . S
N1455 C1447 1.427 . S
N1455 C1453 1.384 . S
H1456 C1462 0.930 . S
H1457 C1466 0.930 . S
H1458 C1471 0.929 . S
H1459 C1469 0.929 . S
H1460 C1464 0.929 . S
H1461 C1470 0.929 . S
C1462 H1456 0.930 . S
C1462 C1463 1.367 . S
C1462 C1470 1.378 . S
C1463 C1462 1.367 . S
C1463 C1471 1.433 . S
C1464 H1460 0.929 . S
C1464 C1466 1.378 . S
C1464 C1468 1.350 . S
C1465 C1468 1.463 . S
C1465 C1470 1.350 . S
C1465 N1473 1.427 . S
C1466 H1457 0.930 . S
C1466 C1464 1.378 . S
C1466 C1467 1.367 . S
C1467 C1466 1.367 . S
C1467 C1469 1.433 . S
C1468 C1464 1.350 . S
C1468 C1465 1.463 . S
C1468 N1472 1.427 . S
C1469 H1459 0.929 . S
C1469 C1467 1.433 . S
C1469 N1472 1.384 . S
C1470 H1461 0.929 . S
C1470 C1462 1.378 . S
C1470 C1465 1.350 . S
C1471 H1458 0.929 . S
C1471 C1463 1.433 . S
C1471 N1473 1.384 . S
N1472 C1468 1.427 . S
N1472 C1469 1.384 . S
N1473 C1465 1.427 . S
N1473 C1471 1.384 . S
H1474 C1480 0.930 . S
H1475 C1484 0.930 . S
H1476 C1489 0.929 . S
H1477 C1487 0.929 . S
H1478 C1482 0.929 . S
H1479 C1488 0.929 . S
C1480 H1474 0.930 . S
C1480 C1481 1.367 . S
C1480 C1488 1.378 . S
C1481 C1480 1.367 . S
C1481 C1489 1.433 . S
C1482 H1478 0.929 . S
C1482 C1484 1.378 . S
C1482 C1486 1.350 . S
C1483 C1486 1.463 . S
C1483 C1488 1.350 . S
C1483 N1491 1.427 . S
C1484 H1475 0.930 . S
C1484 C1482 1.378 . S
C1484 C1485 1.367 . S
C1485 C1484 1.367 . S
C1485 C1487 1.433 . S
C1486 C1482 1.350 . S
C1486 C1483 1.463 . S
C1486 N1490 1.427 . S
C1487 H1477 0.929 . S
C1487 C1485 1.433 . S
C1487 N1490 1.384 . S
C1488 H1479 0.929 . S
C1488 C1480 1.378 . S
C1488 C1483 1.350 . S
C1489 H1476 0.929 . S
C1489 C1481 1.433 . S
C1489 N1491 1.384 . S
N1490 C1486 1.427 . S
N1490 C1487 1.384 . S
N1491 C1483 1.427 . S
N1491 C1489 1.384 . S
H1492 C1498 0.930 . S
H1493 C1502 0.930 . S
H1494 C1507 0.929 . S
H1495 C1505 0.929 . S
H1496 C1500 0.929 . S
H1497 C1506 0.929 . S
C1498 H1492 0.930 . S
C1498 C1499 1.367 . S
C1498 C1506 1.378 . S
C1499 C1498 1.367 . S
C1499 C1507 1.433 . S
C1500 H1496 0.929 . S
C1500 C1502 1.378 . S
C1500 C1504 1.350 . S
C1501 C1504 1.463 . S
C1501 C1506 1.350 . S
C1501 N1509 1.427 . S
C1502 H1493 0.930 . S
C1502 C1500 1.378 . S
C1502 C1503 1.367 . S
C1503 C1502 1.367 . S
C1503 C1505 1.433 . S
C1504 C1500 1.350 . S
C1504 C1501 1.463 . S
C1504 N1508 1.427 . S
C1505 H1495 0.929 . S
C1505 C1503 1.433 . S
C1505 N1508 1.384 . S
C1506 H1497 0.929 . S
C1506 C1498 1.378 . S
C1506 C1501 1.350 . S
C1507 H1494 0.929 . S
C1507 C1499 1.433 . S
C1507 N1509 1.384 . S
N1508 C1504 1.427 . S
N1508 C1505 1.384 . S
N1509 C1501 1.427 . S
N1509 C1507 1.384 . S
H1510 C1516 0.930 . S
H1511 C1520 0.930 . S
H1512 C1525 0.929 . S
H1513 C1523 0.929 . S
H1514 C1518 0.929 . S
H1515 C1524 0.929 . S
C1516 H1510 0.930 . S
C1516 C1517 1.367 . S
C1516 C1524 1.378 . S
C1517 C1516 1.367 . S
C1517 C1525 1.433 . S
C1518 H1514 0.929 . S
C1518 C1520 1.378 . S
C1518 C1522 1.350 . S
C1519 C1522 1.463 . S
C1519 C1524 1.350 . S
C1519 N1527 1.427 . S
C1520 H1511 0.930 . S
C1520 C1518 1.378 . S
C1520 C1521 1.367 . S
C1521 C1520 1.367 . S
C1521 C1523 1.433 . S
C1522 C1518 1.350 . S
C1522 C1519 1.463 . S
C1522 N1526 1.427 . S
C1523 H1513 0.929 . S
C1523 C1521 1.433 . S
C1523 N1526 1.384 . S
C1524 H1515 0.929 . S
C1524 C1516 1.378 . S
C1524 C1519 1.350 . S
C1525 H1512 0.929 . S
C1525 C1517 1.433 . S
C1525 N1527 1.384 . S
N1526 C1522 1.427 . S
N1526 C1523 1.384 . S
N1527 C1519 1.427 . S
N1527 C1525 1.384 . S
H1528 C1534 0.930 . S
H1529 C1538 0.930 . S
H1530 C1543 0.929 . S
H1531 C1541 0.929 . S
H1532 C1536 0.929 . S
H1533 C1542 0.929 . S
C1534 H1528 0.930 . S
C1534 C1535 1.367 . S
C1534 C1542 1.378 . S
C1535 C1534 1.367 . S
C1535 C1543 1.433 . S
C1536 H1532 0.929 . S
C1536 C1538 1.378 . S
C1536 C1540 1.350 . S
C1537 C1540 1.463 1_554 S
C1537 C1542 1.350 . S
C1537 N1545 1.427 . S
C1538 H1529 0.930 . S
C1538 C1536 1.378 . S
C1538 C1539 1.367 . S
C1539 C1538 1.367 . S
C1539 C1541 1.433 . S
C1540 C1536 1.350 . S
C1540 C1537 1.463 1_556 S
C1540 N1544 1.427 . S
C1541 H1531 0.929 . S
C1541 C1539 1.433 . S
C1541 N1544 1.384 . S
C1542 H1533 0.929 . S
C1542 C1534 1.378 . S
C1542 C1537 1.350 . S
C1543 H1530 0.929 . S
C1543 C1535 1.433 . S
C1543 N1545 1.384 . S
N1544 C1540 1.427 . S
N1544 C1541 1.384 . S
N1545 C1537 1.427 . S
N1545 C1543 1.384 . S
H1546 C1552 0.930 . S
H1547 C1556 0.930 . S
H1548 C1561 0.929 . S
H1549 C1559 0.929 . S
H1550 C1554 0.929 . S
H1551 C1560 0.929 . S
C1552 H1546 0.930 . S
C1552 C1553 1.367 . S
C1552 C1560 1.378 . S
C1553 C1552 1.367 . S
C1553 C1561 1.433 . S
C1554 H1550 0.929 . S
C1554 C1556 1.378 . S
C1554 C1558 1.350 . S
C1555 C1558 1.463 1_455 S
C1555 C1560 1.350 . S
C1555 N1563 1.427 . S
C1556 H1547 0.930 . S
C1556 C1554 1.378 . S
C1556 C1557 1.367 . S
C1557 C1556 1.367 . S
C1557 C1559 1.433 . S
C1558 C1554 1.350 . S
C1558 C1555 1.463 1_655 S
C1558 N1562 1.427 . S
C1559 H1549 0.929 . S
C1559 C1557 1.433 . S
C1559 N1562 1.384 . S
C1560 H1551 0.929 . S
C1560 C1552 1.378 . S
C1560 C1555 1.350 . S
C1561 H1548 0.929 . S
C1561 C1553 1.433 . S
C1561 N1563 1.384 . S
N1562 C1558 1.427 . S
N1562 C1559 1.384 . S
N1563 C1555 1.427 . S
N1563 C1561 1.384 . S
H1564 C1570 0.930 . S
H1565 C1574 0.930 . S
H1566 C1579 0.929 . S
H1567 C1577 0.929 . S
H1568 C1572 0.929 1_455 S
H1569 C1578 0.929 1_655 S
C1570 H1564 0.930 . S
C1570 C1571 1.367 . S
C1570 C1578 1.378 . S
C1571 C1570 1.367 . S
C1571 C1579 1.433 . S
C1572 H1568 0.929 1_655 S
C1572 C1574 1.378 . S
C1572 C1576 1.350 . S
C1573 C1576 1.463 1_454 S
C1573 C1578 1.350 . S
C1573 N1581 1.427 . S
C1574 H1565 0.930 . S
C1574 C1572 1.378 . S
C1574 C1575 1.367 . S
C1575 C1574 1.367 . S
C1575 C1577 1.433 . S
C1576 C1572 1.350 . S
C1576 C1573 1.463 1_656 S
C1576 N1580 1.427 . S
C1577 H1567 0.929 . S
C1577 C1575 1.433 . S
C1577 N1580 1.384 . S
C1578 H1569 0.929 1_455 S
C1578 C1570 1.378 . S
C1578 C1573 1.350 . S
C1579 H1566 0.929 . S
C1579 C1571 1.433 . S
C1579 N1581 1.384 . S
N1580 C1576 1.427 . S
N1580 C1577 1.384 . S
N1581 C1573 1.427 . S
N1581 C1579 1.384 . S
H1582 C1588 0.930 . S
H1583 C1592 0.930 . S
H1584 C1597 0.929 . S
H1585 C1595 0.929 . S
H1586 C1590 0.929 . S
H1587 C1596 0.929 . S
C1588 H1582 0.930 . S
C1588 C1589 1.367 . S
C1588 C1596 1.378 . S
C1589 C1588 1.367 . S
C1589 C1597 1.433 . S
C1590 H1586 0.929 . S
C1590 C1592 1.378 . S
C1590 C1594 1.350 . S
C1591 C1594 1.463 . S
C1591 C1596 1.350 . S
C1591 N1599 1.427 . S
C1592 H1583 0.930 . S
C1592 C1590 1.378 . S
C1592 C1593 1.367 . S
C1593 C1592 1.367 . S
C1593 C1595 1.433 . S
C1594 C1590 1.350 . S
C1594 C1591 1.463 . S
C1594 N1598 1.427 . S
C1595 H1585 0.929 . S
C1595 C1593 1.433 . S
C1595 N1598 1.384 . S
C1596 H1587 0.929 . S
C1596 C1588 1.378 . S
C1596 C1591 1.350 . S
C1597 H1584 0.929 . S
C1597 C1589 1.433 . S
C1597 N1599 1.384 . S
N1598 C1594 1.427 . S
N1598 C1595 1.384 . S
N1599 C1591 1.427 . S
N1599 C1597 1.384 . S
H1600 C1606 0.930 . S
H1601 C1610 0.930 . S
H1602 C1615 0.929 . S
H1603 C1613 0.929 . S
H1604 C1608 0.929 . S
H1605 C1614 0.929 . S
C1606 H1600 0.930 . S
C1606 C1607 1.367 . S
C1606 C1614 1.378 . S
C1607 C1606 1.367 . S
C1607 C1615 1.433 . S
C1608 H1604 0.929 . S
C1608 C1610 1.378 . S
C1608 C1612 1.350 . S
C1609 C1612 1.463 1_545 S
C1609 C1614 1.350 . S
C1609 N1617 1.427 1_545 S
C1610 H1601 0.930 . S
C1610 C1608 1.378 . S
C1610 C1611 1.367 . S
C1611 C1610 1.367 . S
C1611 C1613 1.433 . S
C1612 C1608 1.350 . S
C1612 C1609 1.463 1_565 S
C1612 N1616 1.427 1_565 S
C1613 H1603 0.929 . S
C1613 C1611 1.433 . S
C1613 N1616 1.384 1_565 S
C1614 H1605 0.929 . S
C1614 C1606 1.378 . S
C1614 C1609 1.350 . S
C1615 H1602 0.929 . S
C1615 C1607 1.433 . S
C1615 N1617 1.384 1_545 S
N1616 C1612 1.427 1_545 S
N1616 C1613 1.384 1_545 S
N1617 C1609 1.427 1_565 S
N1617 C1615 1.384 1_565 S
H1618 C1624 0.930 . S
H1619 C1628 0.930 . S
H1620 C1633 0.929 . S
H1621 C1631 0.929 . S
H1622 C1626 0.929 . S
H1623 C1632 0.929 . S
C1624 H1618 0.930 . S
C1624 C1625 1.367 . S
C1624 C1632 1.378 . S
C1625 C1624 1.367 . S
C1625 C1633 1.433 . S
C1626 H1622 0.929 . S
C1626 C1628 1.378 . S
C1626 C1630 1.350 . S
C1627 C1630 1.463 . S
C1627 C1632 1.350 . S
C1627 N1635 1.427 . S
C1628 H1619 0.930 . S
C1628 C1626 1.378 . S
C1628 C1629 1.367 . S
C1629 C1628 1.367 . S
C1629 C1631 1.433 . S
C1630 C1626 1.350 . S
C1630 C1627 1.463 . S
C1630 N1634 1.427 . S
C1631 H1621 0.929 . S
C1631 C1629 1.433 . S
C1631 N1634 1.384 . S
C1632 H1623 0.929 . S
C1632 C1624 1.378 . S
C1632 C1627 1.350 . S
C1633 H1620 0.929 . S
C1633 C1625 1.433 . S
C1633 N1635 1.384 . S
N1634 C1630 1.427 . S
N1634 C1631 1.384 . S
N1635 C1627 1.427 . S
N1635 C1633 1.384 . S
H1636 C1642 0.930 . S
H1637 C1646 0.930 . S
H1638 C1651 0.929 . S
H1639 C1649 0.929 . S
H1640 C1644 0.929 1_545 S
H1641 C1650 0.929 1_565 S
C1642 H1636 0.930 . S
C1642 C1643 1.367 . S
C1642 C1650 1.378 . S
C1643 C1642 1.367 . S
C1643 C1651 1.433 . S
C1644 H1640 0.929 1_565 S
C1644 C1646 1.378 . S
C1644 C1648 1.350 . S
C1645 C1648 1.463 1_545 S
C1645 C1650 1.350 . S
C1645 N1653 1.427 . S
C1646 H1637 0.930 . S
C1646 C1644 1.378 . S
C1646 C1647 1.367 . S
C1647 C1646 1.367 . S
C1647 C1649 1.433 . S
C1648 C1644 1.350 . S
C1648 C1645 1.463 1_565 S
C1648 N1652 1.427 . S
C1649 H1639 0.929 . S
C1649 C1647 1.433 . S
C1649 N1652 1.384 . S
C1650 H1641 0.929 1_545 S
C1650 C1642 1.378 . S
C1650 C1645 1.350 . S
C1651 H1638 0.929 . S
C1651 C1643 1.433 . S
C1651 N1653 1.384 . S
N1652 C1648 1.427 . S
N1652 C1649 1.384 . S
N1653 C1645 1.427 . S
N1653 C1651 1.384 . S
H1654 C1660 0.930 . S
H1655 C1664 0.930 . S
H1656 C1669 0.929 . S
H1657 C1667 0.929 . S
H1658 C1662 0.929 1_554 S
H1659 C1668 0.929 1_556 S
C1660 H1654 0.930 . S
C1660 C1661 1.367 . S
C1660 C1668 1.378 . S
C1661 C1660 1.367 . S
C1661 C1669 1.433 . S
C1662 H1658 0.929 1_556 S
C1662 C1664 1.378 . S
C1662 C1666 1.350 . S
C1663 C1666 1.463 1_554 S
C1663 C1668 1.350 . S
C1663 N1671 1.427 . S
C1664 H1655 0.930 . S
C1664 C1662 1.378 . S
C1664 C1665 1.367 . S
C1665 C1664 1.367 . S
C1665 C1667 1.433 . S
C1666 C1662 1.350 . S
C1666 C1663 1.463 1_556 S
C1666 N1670 1.427 . S
C1667 H1657 0.929 . S
C1667 C1665 1.433 . S
C1667 N1670 1.384 . S
C1668 H1659 0.929 1_554 S
C1668 C1660 1.378 . S
C1668 C1663 1.350 . S
C1669 H1656 0.929 . S
C1669 C1661 1.433 . S
C1669 N1671 1.384 . S
N1670 C1666 1.427 . S
N1670 C1667 1.384 . S
N1671 C1663 1.427 . S
N1671 C1669 1.384 . S
H1672 C1678 0.930 . S
H1673 C1682 0.930 . S
H1674 C1687 0.929 . S
H1675 C1685 0.929 . S
H1676 C1680 0.929 . S
H1677 C1686 0.929 . S
C1678 H1672 0.930 . S
C1678 C1679 1.367 . S
C1678 C1686 1.378 . S
C1679 C1678 1.367 . S
C1679 C1687 1.433 . S
C1680 H1676 0.929 . S
C1680 C1682 1.378 . S
C1680 C1684 1.350 . S
C1681 C1684 1.463 1_545 S
C1681 C1686 1.350 . S
C1681 N1689 1.427 1_545 S
C1682 H1673 0.930 . S
C1682 C1680 1.378 . S
C1682 C1683 1.367 . S
C1683 C1682 1.367 . S
C1683 C1685 1.433 . S
C1684 C1680 1.350 . S
C1684 C1681 1.463 1_565 S
C1684 N1688 1.427 1_565 S
C1685 H1675 0.929 . S
C1685 C1683 1.433 . S
C1685 N1688 1.384 1_565 S
C1686 H1677 0.929 . S
C1686 C1678 1.378 . S
C1686 C1681 1.350 . S
C1687 H1674 0.929 . S
C1687 C1679 1.433 . S
C1687 N1689 1.384 1_545 S
N1688 C1684 1.427 1_545 S
N1688 C1685 1.384 1_545 S
N1689 C1681 1.427 1_565 S
N1689 C1687 1.384 1_565 S
H1690 C1696 0.930 . S
H1691 C1700 0.930 . S
H1692 C1705 0.929 . S
H1693 C1703 0.929 . S
H1694 C1698 0.929 . S
H1695 C1704 0.929 . S
C1696 H1690 0.930 . S
C1696 C1697 1.367 . S
C1696 C1704 1.378 . S
C1697 C1696 1.367 . S
C1697 C1705 1.433 . S
C1698 H1694 0.929 . S
C1698 C1700 1.378 . S
C1698 C1702 1.350 . S
C1699 C1702 1.463 . S
C1699 C1704 1.350 . S
C1699 N1707 1.427 . S
C1700 H1691 0.930 . S
C1700 C1698 1.378 . S
C1700 C1701 1.367 . S
C1701 C1700 1.367 . S
C1701 C1703 1.433 . S
C1702 C1698 1.350 . S
C1702 C1699 1.463 . S
C1702 N1706 1.427 . S
C1703 H1693 0.929 . S
C1703 C1701 1.433 . S
C1703 N1706 1.384 . S
C1704 H1695 0.929 . S
C1704 C1696 1.378 . S
C1704 C1699 1.350 . S
C1705 H1692 0.929 . S
C1705 C1697 1.433 . S
C1705 N1707 1.384 . S
N1706 C1702 1.427 . S
N1706 C1703 1.384 . S
N1707 C1699 1.427 . S
N1707 C1705 1.384 . S
H1708 C1714 0.930 . S
H1709 C1718 0.930 . S
H1710 C1723 0.929 . S
H1711 C1721 0.929 . S
H1712 C1716 0.929 . S
H1713 C1722 0.929 . S
C1714 H1708 0.930 . S
C1714 C1715 1.367 . S
C1714 C1722 1.378 . S
C1715 C1714 1.367 . S
C1715 C1723 1.433 . S
C1716 H1712 0.929 . S
C1716 C1718 1.378 . S
C1716 C1720 1.350 . S
C1717 C1720 1.463 1_545 S
C1717 C1722 1.350 . S
C1717 N1725 1.427 1_545 S
C1718 H1709 0.930 . S
C1718 C1716 1.378 . S
C1718 C1719 1.367 . S
C1719 C1718 1.367 . S
C1719 C1721 1.433 . S
C1720 C1716 1.350 . S
C1720 C1717 1.463 1_565 S
C1720 N1724 1.427 1_565 S
C1721 H1711 0.929 . S
C1721 C1719 1.433 . S
C1721 N1724 1.384 1_565 S
C1722 H1713 0.929 . S
C1722 C1714 1.378 . S
C1722 C1717 1.350 . S
C1723 H1710 0.929 . S
C1723 C1715 1.433 . S
C1723 N1725 1.384 1_545 S
N1724 C1720 1.427 1_545 S
N1724 C1721 1.384 1_545 S
N1725 C1717 1.427 1_565 S
N1725 C1723 1.384 1_565 S
H1726 C1732 0.930 . S
H1727 C1736 0.930 . S
H1728 C1741 0.929 . S
H1729 C1739 0.929 . S
H1730 C1734 0.929 . S
H1731 C1740 0.929 . S
C1732 H1726 0.930 . S
C1732 C1733 1.367 . S
C1732 C1740 1.378 . S
C1733 C1732 1.367 . S
C1733 C1741 1.433 . S
C1734 H1730 0.929 . S
C1734 C1736 1.378 . S
C1734 C1738 1.350 . S
C1735 C1738 1.463 1_556 S
C1735 C1740 1.350 . S
C1735 N1743 1.427 . S
C1736 H1727 0.930 . S
C1736 C1734 1.378 . S
C1736 C1737 1.367 . S
C1737 C1736 1.367 . S
C1737 C1739 1.433 . S
C1738 C1734 1.350 . S
C1738 C1735 1.463 1_554 S
C1738 N1742 1.427 . S
C1739 H1729 0.929 . S
C1739 C1737 1.433 . S
C1739 N1742 1.384 . S
C1740 H1731 0.929 . S
C1740 C1732 1.378 . S
C1740 C1735 1.350 . S
C1741 H1728 0.929 . S
C1741 C1733 1.433 . S
C1741 N1743 1.384 . S
N1742 C1738 1.427 . S
N1742 C1739 1.384 . S
N1743 C1735 1.427 . S
N1743 C1741 1.384 . S
H1744 C1750 0.930 . S
H1745 C1754 0.930 . S
H1746 C1759 0.929 . S
H1747 C1757 0.929 . S
H1748 C1752 0.929 . S
H1749 C1758 0.929 . S
C1750 H1744 0.930 . S
C1750 C1751 1.367 . S
C1750 C1758 1.378 . S
C1751 C1750 1.367 . S
C1751 C1759 1.433 . S
C1752 H1748 0.929 . S
C1752 C1754 1.378 . S
C1752 C1756 1.350 . S
C1753 C1756 1.463 . S
C1753 C1758 1.350 . S
C1753 N1761 1.427 . S
C1754 H1745 0.930 . S
C1754 C1752 1.378 . S
C1754 C1755 1.367 . S
C1755 C1754 1.367 . S
C1755 C1757 1.433 . S
C1756 C1752 1.350 . S
C1756 C1753 1.463 . S
C1756 N1760 1.427 . S
C1757 H1747 0.929 . S
C1757 C1755 1.433 . S
C1757 N1760 1.384 . S
C1758 H1749 0.929 . S
C1758 C1750 1.378 . S
C1758 C1753 1.350 . S
C1759 H1746 0.929 . S
C1759 C1751 1.433 . S
C1759 N1761 1.384 . S
N1760 C1756 1.427 . S
N1760 C1757 1.384 . S
N1761 C1753 1.427 . S
N1761 C1759 1.384 . S
H1762 C1768 0.930 . S
H1763 C1772 0.930 . S
H1764 C1777 0.929 . S
H1765 C1775 0.929 . S
H1766 C1770 0.929 . S
H1767 C1776 0.929 . S
C1768 H1762 0.930 . S
C1768 C1769 1.367 . S
C1768 C1776 1.378 . S
C1769 C1768 1.367 . S
C1769 C1777 1.433 . S
C1770 H1766 0.929 . S
C1770 C1772 1.378 . S
C1770 C1774 1.350 . S
C1771 C1774 1.463 1_556 S
C1771 C1776 1.350 . S
C1771 N1779 1.427 . S
C1772 H1763 0.930 . S
C1772 C1770 1.378 . S
C1772 C1773 1.367 . S
C1773 C1772 1.367 . S
C1773 C1775 1.433 . S
C1774 C1770 1.350 . S
C1774 C1771 1.463 1_554 S
C1774 N1778 1.427 . S
C1775 H1765 0.929 . S
C1775 C1773 1.433 . S
C1775 N1778 1.384 . S
C1776 H1767 0.929 . S
C1776 C1768 1.378 . S
C1776 C1771 1.350 . S
C1777 H1764 0.929 . S
C1777 C1769 1.433 . S
C1777 N1779 1.384 . S
N1778 C1774 1.427 . S
N1778 C1775 1.384 . S
N1779 C1771 1.427 . S
N1779 C1777 1.384 . S
H1780 C1786 0.930 . S
H1781 C1790 0.930 . S
H1782 C1795 0.929 . S
H1783 C1793 0.929 . S
H1784 C1788 0.929 . S
H1785 C1794 0.929 . S
C1786 H1780 0.930 . S
C1786 C1787 1.367 . S
C1786 C1794 1.378 . S
C1787 C1786 1.367 . S
C1787 C1795 1.433 . S
C1788 H1784 0.929 . S
C1788 C1790 1.378 . S
C1788 C1792 1.350 . S
C1789 C1792 1.463 . S
C1789 C1794 1.350 . S
C1789 N1797 1.427 . S
C1790 H1781 0.930 . S
C1790 C1788 1.378 . S
C1790 C1791 1.367 . S
C1791 C1790 1.367 . S
C1791 C1793 1.433 . S
C1792 C1788 1.350 . S
C1792 C1789 1.463 . S
C1792 N1796 1.427 . S
C1793 H1783 0.929 . S
C1793 C1791 1.433 . S
C1793 N1796 1.384 . S
C1794 H1785 0.929 . S
C1794 C1786 1.378 . S
C1794 C1789 1.350 . S
C1795 H1782 0.929 . S
C1795 C1787 1.433 . S
C1795 N1797 1.384 . S
N1796 C1792 1.427 . S
N1796 C1793 1.384 . S
N1797 C1789 1.427 . S
N1797 C1795 1.384 . S
H1798 C1804 0.930 . S
H1799 C1808 0.930 . S
H1800 C1813 0.929 . S
H1801 C1811 0.929 . S
H1802 C1806 0.929 . S
H1803 C1812 0.929 . S
C1804 H1798 0.930 . S
C1804 C1805 1.367 . S
C1804 C1812 1.378 . S
C1805 C1804 1.367 . S
C1805 C1813 1.433 . S
C1806 H1802 0.929 . S
C1806 C1808 1.378 . S
C1806 C1810 1.350 . S
C1807 C1810 1.463 . S
C1807 C1812 1.350 . S
C1807 N1815 1.427 . S
C1808 H1799 0.930 . S
C1808 C1806 1.378 . S
C1808 C1809 1.367 . S
C1809 C1808 1.367 . S
C1809 C1811 1.433 . S
C1810 C1806 1.350 . S
C1810 C1807 1.463 . S
C1810 N1814 1.427 . S
C1811 H1801 0.929 . S
C1811 C1809 1.433 . S
C1811 N1814 1.384 . S
C1812 H1803 0.929 . S
C1812 C1804 1.378 . S
C1812 C1807 1.350 . S
C1813 H1800 0.929 . S
C1813 C1805 1.433 . S
C1813 N1815 1.384 . S
N1814 C1810 1.427 . S
N1814 C1811 1.384 . S
N1815 C1807 1.427 . S
N1815 C1813 1.384 . S
H1816 C1822 0.930 . S
H1817 C1826 0.930 . S
H1818 C1831 0.929 . S
H1819 C1829 0.929 . S
H1820 C1824 0.929 . S
H1821 C1830 0.929 . S
C1822 H1816 0.930 . S
C1822 C1823 1.367 . S
C1822 C1830 1.378 . S
C1823 C1822 1.367 . S
C1823 C1831 1.433 . S
C1824 H1820 0.929 . S
C1824 C1826 1.378 . S
C1824 C1828 1.350 . S
C1825 C1828 1.463 . S
C1825 C1830 1.350 . S
C1825 N1833 1.427 . S
C1826 H1817 0.930 . S
C1826 C1824 1.378 . S
C1826 C1827 1.367 . S
C1827 C1826 1.367 . S
C1827 C1829 1.433 . S
C1828 C1824 1.350 . S
C1828 C1825 1.463 . S
C1828 N1832 1.427 . S
C1829 H1819 0.929 . S
C1829 C1827 1.433 . S
C1829 N1832 1.384 . S
C1830 H1821 0.929 . S
C1830 C1822 1.378 . S
C1830 C1825 1.350 . S
C1831 H1818 0.929 . S
C1831 C1823 1.433 . S
C1831 N1833 1.384 . S
N1832 C1828 1.427 . S
N1832 C1829 1.384 . S
N1833 C1825 1.427 . S
N1833 C1831 1.384 . S
H1834 C1840 0.930 . S
H1835 C1844 0.930 . S
H1836 C1849 0.929 . S
H1837 C1847 0.929 . S
H1838 C1842 0.929 . S
H1839 C1848 0.929 . S
C1840 H1834 0.930 . S
C1840 C1841 1.367 . S
C1840 C1848 1.378 . S
C1841 C1840 1.367 . S
C1841 C1849 1.433 . S
C1842 H1838 0.929 . S
C1842 C1844 1.378 . S
C1842 C1846 1.350 . S
C1843 C1846 1.463 1_556 S
C1843 C1848 1.350 . S
C1843 N1851 1.427 . S
C1844 H1835 0.930 . S
C1844 C1842 1.378 . S
C1844 C1845 1.367 . S
C1845 C1844 1.367 . S
C1845 C1847 1.433 . S
C1846 C1842 1.350 . S
C1846 C1843 1.463 1_554 S
C1846 N1850 1.427 . S
C1847 H1837 0.929 . S
C1847 C1845 1.433 . S
C1847 N1850 1.384 . S
C1848 H1839 0.929 . S
C1848 C1840 1.378 . S
C1848 C1843 1.350 . S
C1849 H1836 0.929 . S
C1849 C1841 1.433 . S
C1849 N1851 1.384 . S
N1850 C1846 1.427 . S
N1850 C1847 1.384 . S
N1851 C1843 1.427 . S
N1851 C1849 1.384 . S
H1852 C1858 0.930 . S
H1853 C1862 0.930 . S
H1854 C1867 0.929 . S
H1855 C1865 0.929 . S
H1856 C1860 0.929 . S
H1857 C1866 0.929 . S
C1858 H1852 0.930 . S
C1858 C1859 1.367 . S
C1858 C1866 1.378 . S
C1859 C1858 1.367 . S
C1859 C1867 1.433 . S
C1860 H1856 0.929 . S
C1860 C1862 1.378 . S
C1860 C1864 1.350 . S
C1861 C1864 1.463 . S
C1861 C1866 1.350 . S
C1861 N1869 1.427 . S
C1862 H1853 0.930 . S
C1862 C1860 1.378 . S
C1862 C1863 1.367 . S
C1863 C1862 1.367 . S
C1863 C1865 1.433 . S
C1864 C1860 1.350 . S
C1864 C1861 1.463 . S
C1864 N1868 1.427 . S
C1865 H1855 0.929 . S
C1865 C1863 1.433 . S
C1865 N1868 1.384 . S
C1866 H1857 0.929 . S
C1866 C1858 1.378 . S
C1866 C1861 1.350 . S
C1867 H1854 0.929 . S
C1867 C1859 1.433 . S
C1867 N1869 1.384 . S
N1868 C1864 1.427 . S
N1868 C1865 1.384 . S
N1869 C1861 1.427 . S
N1869 C1867 1.384 . S
H1870 C1876 0.930 . S
H1871 C1880 0.930 . S
H1872 C1885 0.929 . S
H1873 C1883 0.929 . S
H1874 C1878 0.929 . S
H1875 C1884 0.929 . S
C1876 H1870 0.930 . S
C1876 C1877 1.367 . S
C1876 C1884 1.378 . S
C1877 C1876 1.367 . S
C1877 C1885 1.433 . S
C1878 H1874 0.929 . S
C1878 C1880 1.378 . S
C1878 C1882 1.350 . S
C1879 C1882 1.463 . S
C1879 C1884 1.350 . S
C1879 N1887 1.427 . S
C1880 H1871 0.930 . S
C1880 C1878 1.378 . S
C1880 C1881 1.367 . S
C1881 C1880 1.367 . S
C1881 C1883 1.433 . S
C1882 C1878 1.350 . S
C1882 C1879 1.463 . S
C1882 N1886 1.427 . S
C1883 H1873 0.929 . S
C1883 C1881 1.433 . S
C1883 N1886 1.384 . S
C1884 H1875 0.929 . S
C1884 C1876 1.378 . S
C1884 C1879 1.350 . S
C1885 H1872 0.929 . S
C1885 C1877 1.433 . S
C1885 N1887 1.384 . S
N1886 C1882 1.427 . S
N1886 C1883 1.384 . S
N1887 C1879 1.427 . S
N1887 C1885 1.384 . S
C743 N633 1.458 . S
C747 C7 1.464 . S
C761 C30 1.459 . S
C765 N196 1.452 . S
C779 N587 1.450 . S
C783 C53 1.458 . S
C797 C76 1.458 . S
C801 N242 1.450 . S
C815 C99 1.459 . S
C819 N679 1.449 . S
C833 C122 1.464 . S
C837 N334 1.455 . S
C851 C145 1.460 . S
C855 N725 1.450 . S
C869 C168 1.464 . S
C873 N288 1.455 . S
C887 N449 1.458 . S
C891 C191 1.465 . S
C905 N12 1.451 . S
C909 C214 1.459 . S
C923 N403 1.451 . S
C927 C237 1.459 . S
C941 C260 1.464 . S
C945 N58 1.458 . S
C959 N495 1.457 . S
C963 C283 1.463 . S
C977 N150 1.458 . S
C981 C306 1.465 . S
C995 C329 1.458 . S
C999 N541 1.450 . S
C1013 N104 1.457 . S
C1017 C352 1.464 . S
C1031 C375 1.458 . S
C1035 N265 1.450 . S
C1049 C398 1.465 . S
C1053 N564 1.458 . S
C1067 N219 1.449 . S
C1071 C421 1.458 . S
C1085 N610 1.449 . S
C1089 C444 1.459 . S
C1103 N311 1.449 . S
C1107 C467 1.459 . S
C1121 N702 1.451 . S
C1125 C490 1.461 . S
C1139 N357 1.450 . S
C1143 C513 1.458 . S
C1157 C536 1.462 . S
C1161 N656 1.452 . S
C1175 N81 1.449 . S
C1179 C559 1.459 . S
C1193 C582 1.463 . S
C1197 N380 1.457 . S
C1211 C605 1.458 . S
C1215 N35 1.450 . S
C1229 C628 1.465 . S
C1233 N426 1.458 . S
C1247 C651 1.458 . S
C1251 N127 1.449 . S
C1265 C674 1.463 . S
C1269 N518 1.454 . S
C1283 C697 1.464 . S
C1287 N173 1.455 . S
C1301 C720 1.460 . S
C1305 N472 1.453 . S
C1319 N554 1.419 . S
C1323 N2 1.419 . S
C1337 N25 1.397 . S
C1341 N209 1.397 . S
C1355 N600 1.398 . S
C1359 N48 1.398 . S
C1373 N71 1.421 . S
C1377 N255 1.421 . S
C1391 N646 1.420 . S
C1395 N94 1.420 . S
C1409 N117 1.406 . S
C1413 N301 1.406 . S
C1427 N692 1.398 . S
C1431 N140 1.398 . S
C1445 N163 1.421 . S
C1449 N347 1.421 . S
C1463 N186 1.398 . S
C1467 N370 1.398 . S
C1481 N232 1.415 . S
C1485 N416 1.415 . S
C1499 N278 1.420 . S
C1503 N462 1.420 . S
C1517 N324 1.414 . S
C1521 N508 1.414 . S
C1535 N393 1.397 . S
C1539 N577 1.397 . S
C1553 N623 1.407 . S
C1557 N439 1.407 . S
C1571 N669 1.397 . S
C1575 N485 1.397 . S
C1589 N531 1.420 . S
C1593 N715 1.420 . S
C1607 C16 2.157 . S
C1611 C108 2.157 . S
C1625 C39 2.157 . S
C1629 C131 2.157 . S
C1643 C154 2.157 . S
C1647 C62 2.157 . S
C1661 C85 2.157 . S
C1665 C177 2.157 . S
C1679 C292 2.157 . S
C1683 C200 2.157 . S
C1697 C315 2.157 . S
C1701 C223 2.157 . S
C1715 C246 2.157 . S
C1719 C338 2.157 . S
C1733 C269 2.157 . S
C1737 C361 2.157 . S
C1751 C476 2.157 . S
C1755 C384 2.157 . S
C1769 C499 2.157 . S
C1773 C407 2.157 . S
C1787 C430 2.157 . S
C1791 C522 2.157 . S
C1805 C545 2.157 . S
C1809 C453 2.157 . S
C1823 C660 2.157 . S
C1827 C568 2.157 . S
C1841 C591 2.157 . S
C1845 C683 2.157 . S
C1859 C706 2.157 . S
C1863 C614 2.157 . S
C1877 C637 2.157 . S
C1881 C729 2.157 . S
