# Generated by pormake.
# Topology ske, (6)-cn, num edge types: 1
# Building blocks:
#     Node 0, Type 0, BuildingBlock: JUFBIX_clean_sbu_0, # of connection points: 6
#     Node 1, Type 0, BuildingBlock: JUFBIX_clean_sbu_0, # of connection points: 6
#     Node 2, Type 0, BuildingBlock: JUFBIX_clean_sbu_0, # of connection points: 6
#     Node 3, Type 0, BuildingBlock: JUFBIX_clean_sbu_0, # of connection points: 6
#     Node 4, Type 0, BuildingBlock: JUFBIX_clean_sbu_0, # of connection points: 6
#     Node 5, Type 0, BuildingBlock: JUFBIX_clean_sbu_0, # of connection points: 6
#     Node 6, Type 0, BuildingBlock: JUFBIX_clean_sbu_0, # of connection points: 6
#     Node 7, Type 0, BuildingBlock: JUFBIX_clean_sbu_0, # of connection points: 6
#     Edge 8, Type (0, 0), BuildingBlock: MIFKUJ_clean_linker_0, # of connection points: 2
#     Edge 9, Type (0, 0), BuildingBlock: MIFKUJ_clean_linker_0, # of connection points: 2
#     Edge 10, Type (0, 0), BuildingBlock: MIFKUJ_clean_linker_0, # of connection points: 2
#     Edge 11, Type (0, 0), BuildingBlock: MIFKUJ_clean_linker_0, # of connection points: 2
#     Edge 12, Type (0, 0), BuildingBlock: MIFKUJ_clean_linker_0, # of connection points: 2
#     Edge 13, Type (0, 0), BuildingBlock: MIFKUJ_clean_linker_0, # of connection points: 2
#     Edge 14, Type (0, 0), BuildingBlock: MIFKUJ_clean_linker_0, # of connection points: 2
#     Edge 15, Type (0, 0), BuildingBlock: MIFKUJ_clean_linker_0, # of connection points: 2
#     Edge 16, Type (0, 0), BuildingBlock: MIFKUJ_clean_linker_0, # of connection points: 2
#     Edge 17, Type (0, 0), BuildingBlock: MIFKUJ_clean_linker_0, # of connection points: 2
#     Edge 18, Type (0, 0), BuildingBlock: MIFKUJ_clean_linker_0, # of connection points: 2
#     Edge 19, Type (0, 0), BuildingBlock: MIFKUJ_clean_linker_0, # of connection points: 2
#     Edge 20, Type (0, 0), BuildingBlock: MIFKUJ_clean_linker_0, # of connection points: 2
#     Edge 21, Type (0, 0), BuildingBlock: MIFKUJ_clean_linker_0, # of connection points: 2
#     Edge 22, Type (0, 0), BuildingBlock: MIFKUJ_clean_linker_0, # of connection points: 2
#     Edge 23, Type (0, 0), BuildingBlock: MIFKUJ_clean_linker_0, # of connection points: 2
#     Edge 24, Type (0, 0), BuildingBlock: MIFKUJ_clean_linker_0, # of connection points: 2
#     Edge 25, Type (0, 0), BuildingBlock: MIFKUJ_clean_linker_0, # of connection points: 2
#     Edge 26, Type (0, 0), BuildingBlock: MIFKUJ_clean_linker_0, # of connection points: 2
#     Edge 27, Type (0, 0), BuildingBlock: MIFKUJ_clean_linker_0, # of connection points: 2
#     Edge 28, Type (0, 0), BuildingBlock: MIFKUJ_clean_linker_0, # of connection points: 2
#     Edge 29, Type (0, 0), BuildingBlock: MIFKUJ_clean_linker_0, # of connection points: 2
#     Edge 30, Type (0, 0), BuildingBlock: MIFKUJ_clean_linker_0, # of connection points: 2
#     Edge 31, Type (0, 0), BuildingBlock: MIFKUJ_clean_linker_0, # of connection points: 2
# Relax obj value: 0.194
# Max RMSD: 0.143
# Mean RMSD: 0.135
data_MOF--net-ske--node1-JUFBIX_clean_sbu_0--edge1-MIFKUJ_clean_linker_0
_symmetry_space_group_name_H-M    P1
_symmetry_Int_Tables_number       1
_symmetry_cell_setting            triclinic
loop_
_symmetry_equiv_pos_as_xyz
'x, y, z'
_cell_length_a     85.302048
_cell_length_b     38.455881
_cell_length_c     20.568478
_cell_angle_alpha  90.191735
_cell_angle_beta   91.642221
_cell_angle_gamma 92.924071
loop_
_atom_site_label
_atom_site_type_symbol
_atom_site_fract_x
_atom_site_fract_y
_atom_site_fract_z
_atom_type_partial_charge
Co0 Co 0.15652 0.25745 0.66871 0.0
C1 C 0.15912 0.32486 0.61785 0.0
Co2 Co 0.161 0.25872 0.56448 0.0
C3 C 0.14163 0.23857 0.78607 0.0
C4 C 0.16276 0.26991 0.80546 0.0
N5 N 0.15365 0.25565 0.75669 0.0
N6 N 0.14285 0.2416 0.85103 0.0
C7 C 0.15614 0.26114 0.86384 0.0
H8 H 0.1322 0.22388 0.76047 0.0
H9 H 0.17343 0.28577 0.79898 0.0
C10 C 0.15781 0.19127 0.61209 0.0
N11 N 0.16324 0.25978 0.47582 0.0
C12 C 0.1524 0.27214 0.43438 0.0
C13 C 0.1723 0.24046 0.43876 0.0
N14 N 0.15364 0.25974 0.37384 0.0
C15 C 0.16633 0.2403 0.37569 0.0
C16 C 0.1889 0.25989 0.63828 0.0
O17 O 0.15571 0.20697 0.66553 0.0
O18 O 0.16066 0.20931 0.56188 0.0
O19 O 0.1837 0.26059 0.57948 0.0
O20 O 0.17899 0.25835 0.68343 0.0
O21 O 0.16133 0.30795 0.5661 0.0
H22 H 0.18137 0.22428 0.45761 0.0
H23 H 0.14259 0.2867 0.44948 0.0
O24 O 0.15692 0.30812 0.67057 0.0
O25 O 0.13438 0.25654 0.65489 0.0
O26 O 0.13803 0.25666 0.55081 0.0
C27 C 0.12861 0.25604 0.59759 0.0
H28 H 0.16051 0.26918 0.91179 0.0
H29 H 0.16984 0.2238 0.33646 0.0
Co30 Co 0.91216 0.27016 0.57946 0.0
C31 C 0.89598 0.33327 0.57482 0.0
Co32 Co 0.886 0.26444 0.57928 0.0
C33 C 0.94692 0.26487 0.55781 0.0
C34 C 0.9406 0.30513 0.62262 0.0
N35 N 0.93427 0.27903 0.58475 0.0
N36 N 0.96071 0.2818 0.57696 0.0
C37 C 0.9566 0.30697 0.61778 0.0
H38 H 0.94603 0.24304 0.52434 0.0
H39 H 0.93395 0.32194 0.65242 0.0
C40 C 0.90161 0.20132 0.57953 0.0
N41 N 0.86402 0.25628 0.57795 0.0
C42 C 0.85345 0.26514 0.62252 0.0
C43 C 0.85557 0.23623 0.53445 0.0
N44 N 0.83881 0.25105 0.60887 0.0
C45 C 0.84019 0.23302 0.55313 0.0
C46 C 0.89918 0.26662 0.44807 0.0
O47 O 0.91428 0.22053 0.57973 0.0
O48 O 0.88847 0.21553 0.58049 0.0
O49 O 0.88641 0.264 0.4802 0.0
O50 O 0.91211 0.26952 0.48187 0.0
O51 O 0.88367 0.3133 0.5775 0.0
H52 H 0.86038 0.22369 0.49287 0.0
H53 H 0.85658 0.2804 0.66569 0.0
O54 O 0.90935 0.31987 0.57657 0.0
O55 O 0.91174 0.27052 0.67861 0.0
O56 O 0.88619 0.2651 0.67688 0.0
C57 C 0.89904 0.26792 0.7108 0.0
H58 H 0.96467 0.32524 0.64337 0.0
H59 H 0.83079 0.21809 0.52778 0.0
Co60 Co 0.14994 0.75895 0.48302 0.0
C61 C 0.13461 0.82235 0.4839 0.0
Co62 Co 0.12369 0.7535 0.48322 0.0
C63 C 0.18261 0.7591 0.43873 0.0
C64 C 0.18074 0.78362 0.53142 0.0
N65 N 0.17207 0.76644 0.48463 0.0
N66 N 0.19747 0.77128 0.45486 0.0
C67 C 0.1962 0.7865 0.51361 0.0
H68 H 0.17934 0.74603 0.39334 0.0
H69 H 0.1761 0.79424 0.5752 0.0
C70 C 0.13959 0.69012 0.48713 0.0
N71 N 0.10146 0.74533 0.47712 0.0
C72 C 0.08871 0.76027 0.50187 0.0
C73 C 0.09517 0.72019 0.437 0.0
N74 N 0.07488 0.74539 0.47765 0.0
C75 C 0.07912 0.72015 0.43723 0.0
C76 C 0.13691 0.75587 0.35168 0.0
O77 O 0.15195 0.70995 0.48429 0.0
O78 O 0.12624 0.70367 0.48573 0.0
O79 O 0.12422 0.75338 0.38398 0.0
O80 O 0.14978 0.75854 0.38548 0.0
O81 O 0.1219 0.80327 0.48351 0.0
H82 H 0.10188 0.70314 0.40799 0.0
H83 H 0.08953 0.78219 0.53514 0.0
O84 O 0.14773 0.80801 0.48242 0.0
O85 O 0.14938 0.7591 0.58223 0.0
O86 O 0.12365 0.75391 0.58065 0.0
C87 C 0.1366 0.7566 0.61439 0.0
H88 H 0.20572 0.79913 0.54208 0.0
H89 H 0.07111 0.70276 0.4093 0.0
Co90 Co 0.87436 0.76444 0.5024 0.0
C91 C 0.87844 0.83196 0.45774 0.0
Co92 Co 0.88017 0.76614 0.39959 0.0
C93 C 0.87359 0.73563 0.62742 0.0
C94 C 0.85641 0.77402 0.61712 0.0
N95 N 0.86874 0.76084 0.58766 0.0
N96 N 0.86438 0.73117 0.67898 0.0
C97 C 0.85372 0.75579 0.6737 0.0
H98 H 0.88312 0.71927 0.61629 0.0
H99 H 0.84906 0.79342 0.59615 0.0
C100 C 0.87681 0.69842 0.4473 0.0
N101 N 0.88589 0.7676 0.31427 0.0
C102 C 0.88091 0.74403 0.26884 0.0
C103 C 0.89864 0.78431 0.28927 0.0
N104 N 0.89038 0.74426 0.2178 0.0
C105 C 0.90155 0.76963 0.2299 0.0
C106 C 0.90684 0.76603 0.4833 0.0
O107 O 0.8736 0.715 0.49791 0.0
O108 O 0.87999 0.7156 0.39635 0.0
O109 O 0.90175 0.76687 0.42486 0.0
O110 O 0.89681 0.76491 0.52829 0.0
O111 O 0.88087 0.8165 0.40422 0.0
H112 H 0.90617 0.80351 0.31512 0.0
H113 H 0.87151 0.72453 0.27608 0.0
O114 O 0.87509 0.81379 0.50748 0.0
O115 O 0.85223 0.76388 0.47595 0.0
O116 O 0.85813 0.76526 0.3733 0.0
C117 C 0.84768 0.76423 0.41641 0.0
H118 H 0.84405 0.75886 0.70584 0.0
H119 H 0.91154 0.77565 0.19988 0.0
Co120 Co 0.65025 0.75135 0.1836 0.0
C121 C 0.65549 0.82031 0.14582 0.0
Co122 Co 0.66129 0.75638 0.09002 0.0
C123 C 0.64063 0.72449 0.30636 0.0
C124 C 0.62524 0.76186 0.26755 0.0
N125 N 0.63869 0.74632 0.25638 0.0
N126 N 0.62901 0.72603 0.34956 0.0
C127 C 0.61927 0.7495 0.32447 0.0
H128 H 0.6507 0.70867 0.31135 0.0
H129 H 0.62018 0.7813 0.23658 0.0
C130 C 0.65532 0.68747 0.12453 0.0
N131 N 0.67279 0.76171 1.01686 0.0
C132 C 0.67133 0.7864 0.97149 0.0
C133 C 0.68622 0.74648 1.00358 0.0
N134 N 0.68336 0.78762 0.93011 0.0
C135 C 0.69273 0.76229 0.95032 0.0
C136 C 0.68259 0.75421 0.1999 0.0
O137 O 0.65068 0.7016 0.17607 0.0
O138 O 0.66067 0.70691 0.0796 0.0
O139 O 0.68079 0.75513 0.13848 0.0
O140 O 0.67026 0.75304 0.23381 0.0
O141 O 0.66191 0.80545 0.09929 0.0
H142 H 0.69115 0.72579 0.03181 0.0
H143 H 0.66139 0.80272 0.96877 0.0
O144 O 0.64935 0.80157 0.19013 0.0
O145 O 0.63095 0.74914 0.13558 0.0
O146 O 0.64124 0.75804 0.04084 0.0
C147 C 0.62908 0.75306 0.07495 0.0
H148 H 0.6091 0.75916 0.34739 0.0
H149 H 0.70338 0.755 0.92778 0.0
Co150 Co 0.41386 0.77443 0.0604 0.0
C151 C 0.39845 0.83854 0.05716 0.0
Co152 Co 0.3876 0.77023 0.05995 0.0
C153 C 0.44847 0.76616 0.03857 0.0
C154 C 0.44299 0.80858 0.09999 0.0
N155 N 0.43614 0.78187 0.06498 0.0
N156 N 0.46252 0.78271 0.0552 0.0
C157 C 0.45897 0.80934 0.09364 0.0
H158 H 0.44717 0.74359 1.00692 0.0
H159 H 0.43672 0.8267 0.12854 0.0
C160 C 0.40234 0.706 0.05746 0.0
N161 N 0.36542 0.76361 0.05893 0.0
C162 C 0.35502 0.77073 0.10554 0.0
C163 C 0.35653 0.74755 1.01147 0.0
N164 N 0.34006 0.75946 0.08919 0.0
C165 C 0.3411 0.7451 1.02959 0.0
C166 C 0.40077 0.77233 0.92887 0.0
O167 O 0.41525 0.72444 0.06037 0.0
O168 O 0.38941 0.72117 0.05839 0.0
O169 O 0.38798 0.77084 0.96091 0.0
O170 O 0.4137 0.77386 0.96275 0.0
O171 O 0.38596 0.81922 0.06031 0.0
H172 H 0.361 0.73742 0.96693 0.0
H173 H 0.35845 0.783 0.15153 0.0
O174 O 0.41167 0.82442 0.05773 0.0
O175 O 0.41355 0.77482 0.15945 0.0
O176 O 0.38797 0.76987 0.15766 0.0
C177 C 0.40083 0.7724 0.1916 0.0
H178 H 0.46742 0.82799 0.11606 0.0
H179 H 0.33142 0.73337 1.00073 0.0
Co180 Co 0.64965 0.25364 1.00301 0.0
C181 C 0.63476 0.31738 1.00296 0.0
Co182 Co 0.62348 0.24879 1.00245 0.0
C183 C 0.68224 0.25181 0.95988 0.0
C184 C 0.68036 0.27911 0.04987 0.0
N185 N 0.67172 0.26045 1.00488 0.0
N186 N 0.69702 0.26475 0.97474 0.0
C187 C 0.69578 0.28175 0.03169 0.0
H188 H 0.67901 0.23757 0.91563 0.0
H189 H 0.67566 0.29113 0.09224 0.0
C190 C 0.63886 0.18505 1.00685 0.0
N191 N 0.60133 0.24148 0.99647 0.0
C192 C 0.58887 0.2569 1.02243 0.0
C193 C 0.59468 0.21709 0.95562 0.0
N194 N 0.57488 0.2431 0.99821 0.0
C195 C 0.57866 0.21803 0.95651 0.0
C196 C 0.63673 0.25085 0.87128 0.0
O197 O 0.65134 0.20453 1.00464 0.0
O198 O 0.62562 0.19901 1.00475 0.0
O199 O 0.62401 0.24861 0.90338 0.0
O200 O 0.64957 0.25319 0.9053 0.0
O201 O 0.62199 0.29856 1.00246 0.0
H202 H 0.60112 0.19993 0.92572 0.0
H203 H 0.59004 0.27845 0.0565 0.0
O204 O 0.6478 0.30272 1.00212 0.0
O205 O 0.64912 0.25398 0.10204 0.0
O206 O 0.62341 0.24916 0.10007 0.0
C207 C 0.63633 0.25164 0.13402 0.0
H208 H 0.70532 0.29558 0.05821 0.0
H209 H 0.57035 0.20154 0.92814 0.0
Co210 Co 0.37621 0.26797 0.96608 0.0
C211 C 0.38302 0.33598 0.92326 0.0
Co212 Co 0.38578 0.27019 0.86895 0.0
C213 C 0.36213 0.24113 0.08393 0.0
C214 C 0.35475 0.29125 0.0549 0.0
N215 N 0.36551 0.26765 0.04288 0.0
N216 N 0.34945 0.2471 0.11944 0.0
C217 C 0.34489 0.27868 0.10133 0.0
H218 H 0.3682 0.21709 0.08504 0.0
H219 H 0.35321 0.31491 1.02772 0.0
C220 C 0.3799 0.2023 0.91513 0.0
N221 N 0.39533 0.27173 0.79063 0.0
C222 C 0.38961 0.28751 0.73775 0.0
C223 C 0.40761 0.25444 0.77005 0.0
N224 N 0.39717 0.27946 0.68364 0.0
C225 C 0.40876 0.25909 0.704 0.0
C226 C 0.40863 0.26805 0.971 0.0
O227 O 0.3746 0.21867 0.9627 0.0
O228 O 0.38542 0.21966 0.86756 0.0
O229 O 0.40571 0.2709 0.91049 0.0
O230 O 0.39707 0.26614 1.00951 0.0
O231 O 0.38657 0.32074 0.8711 0.0
H232 H 0.41442 0.23733 0.79992 0.0
H233 H 0.37888 0.30135 0.73781 0.0
O234 O 0.37818 0.31742 0.97006 0.0
O235 O 0.35569 0.26936 0.92242 0.0
O236 O 0.36523 0.269 0.82569 0.0
C237 C 0.35331 0.26899 0.86118 0.0
H238 H 0.33502 0.29175 0.12 0.0
H239 H 0.41651 0.24575 0.67274 0.0
H240 H 0.20298 0.25426 0.75893 0.0
H241 H 0.23086 0.25645 0.78883 0.0
H242 H 0.24239 0.27071 0.58767 0.0
H243 H 0.21426 0.26767 0.55702 0.0
H244 H 0.26225 0.22791 0.64211 0.0
H245 H 0.24525 0.33952 0.70244 0.0
H246 H 0.22846 0.38107 0.75496 0.0
H247 H 0.24034 0.33929 0.94229 0.0
H248 H 0.25703 0.29715 0.89081 0.0
H249 H 0.34349 0.27189 0.73176 0.0
H250 H 0.3165 0.27091 0.68686 0.0
H251 H 0.29878 0.26212 0.88074 0.0
H252 H 0.32559 0.26395 0.9256 0.0
H253 H 0.28251 0.30596 0.82101 0.0
H254 H 0.29762 0.19097 0.75922 0.0
H255 H 0.3127 0.1466 0.70526 0.0
H256 H 0.30439 0.19486 0.52039 0.0
H257 H 0.28926 0.23953 0.57327 0.0
C258 C 0.21138 0.25789 0.72072 0.0
C259 C 0.2062 0.26099 0.65536 0.0
C260 C 0.22745 0.25936 0.7381 0.0
C261 C 0.23897 0.26447 0.69097 0.0
C262 C 0.23387 0.26693 0.62537 0.0
C263 C 0.21772 0.26528 0.60781 0.0
C264 C 0.25622 0.26711 0.71061 0.0
C265 C 0.26671 0.24543 0.68054 0.0
C266 C 0.26223 0.28949 0.76149 0.0
C267 C 0.2523 0.31499 0.79268 0.0
C268 C 0.24421 0.33905 0.7548 0.0
C269 C 0.23472 0.36272 0.78439 0.0
C270 C 0.23331 0.36277 0.8519 0.0
C271 C 0.24143 0.3392 0.88999 0.0
C272 C 0.25092 0.31544 0.86064 0.0
C273 C 0.33384 0.26969 0.76486 0.0
C274 C 0.33686 0.26806 0.83256 0.0
C275 C 0.31831 0.26886 0.73898 0.0
C276 C 0.30532 0.26607 0.77997 0.0
C277 C 0.3084 0.26439 0.84752 0.0
C278 C 0.32386 0.26538 0.87332 0.0
C279 C 0.28855 0.26606 0.75375 0.0
C280 C 0.27812 0.28847 0.78241 0.0
C281 C 0.28264 0.2444 0.70152 0.0
C282 C 0.2924 0.21869 0.67025 0.0
C283 C 0.29913 0.19228 0.70716 0.0
C284 C 0.30758 0.16695 0.67671 0.0
C285 C 0.30937 0.16774 0.60939 0.0
C286 C 0.30288 0.19412 0.57245 0.0
C287 C 0.29435 0.21942 0.60261 0.0
H288 H 0.31586 0.14804 0.58588 0.0
H289 H 0.22595 0.38111 0.87472 0.0
H290 H 0.72187 0.31188 0.97335 0.0
H291 H 0.74571 0.30905 0.91136 0.0
H292 H 0.7282 0.21175 0.82565 0.0
H293 H 0.70422 0.21421 0.88866 0.0
H294 H 0.75952 0.20987 0.8656 0.0
H295 H 0.72807 0.2854 0.73754 0.0
H296 H 0.71179 0.33566 0.71763 0.0
H297 H 0.7504 0.40547 0.77804 0.0
H298 H 0.76685 0.35557 0.79919 0.0
H299 H 0.81432 0.20305 0.61329 0.0
H300 H 0.79055 0.2059 0.67568 0.0
H301 H 0.80743 0.30498 0.75593 0.0
H302 H 0.8313 0.30254 0.69236 0.0
H303 H 0.77648 0.3061 0.71928 0.0
H304 H 0.80794 0.23249 0.84814 0.0
H305 H 0.82465 0.18331 0.87085 0.0
H306 H 0.7867 0.11113 0.81312 0.0
H307 H 0.76981 0.15996 0.78904 0.0
C308 C 0.72305 0.28968 0.94177 0.0
C309 C 0.71104 0.26317 0.93647 0.0
C310 C 0.73671 0.28826 0.90575 0.0
C311 C 0.73881 0.26031 0.86324 0.0
C312 C 0.7269 0.23364 0.85797 0.0
C313 C 0.71312 0.23519 0.89373 0.0
C314 C 0.75348 0.25906 0.82486 0.0
C315 C 0.76308 0.23066 0.83281 0.0
C316 C 0.75849 0.28665 0.78349 0.0
C317 C 0.74865 0.31672 0.77054 0.0
C318 C 0.73305 0.31145 0.74707 0.0
C319 C 0.7238 0.33988 0.73547 0.0
C320 C 0.73004 0.37373 0.74672 0.0
C321 C 0.74557 0.37923 0.76942 0.0
C322 C 0.75487 0.35088 0.78117 0.0
C323 C 0.81301 0.22564 0.64373 0.0
C324 C 0.82482 0.25265 0.64731 0.0
C325 C 0.79939 0.22707 0.68004 0.0
C326 C 0.79714 0.25552 0.72119 0.0
C327 C 0.80884 0.28268 0.72472 0.0
C328 C 0.82257 0.28115 0.68864 0.0
C329 C 0.78251 0.25684 0.7598 0.0
C330 C 0.77292 0.28527 0.75196 0.0
C331 C 0.77757 0.2294 0.80164 0.0
C332 C 0.78765 0.19991 0.81615 0.0
C333 C 0.80319 0.20614 0.83975 0.0
C334 C 0.81269 0.17832 0.85299 0.0
C335 C 0.80676 0.1441 0.84332 0.0
C336 C 0.79129 0.13765 0.82051 0.0
C337 C 0.78174 0.16539 0.8071 0.0
H338 H 0.81414 0.1226 0.85362 0.0
H339 H 0.72286 0.39571 0.73771 0.0
H340 H 0.31302 0.71869 0.07529 0.0
H341 H 0.28917 0.72148 0.13664 0.0
H342 H 0.31064 0.80513 0.25345 0.0
H343 H 0.33472 0.80266 0.19157 0.0
H344 H 0.29466 0.75997 0.32899 0.0
H345 H 0.28262 0.81975 0.13174 0.0
H346 H 0.28018 0.82795 1.01311 0.0
H347 H 0.24745 0.73949 0.99791 0.0
H348 H 0.24987 0.73045 0.1164 0.0
H349 H 0.22442 0.81247 0.46876 0.0
H350 H 0.24833 0.80978 0.40783 0.0
H351 H 0.22721 0.72544 0.29183 0.0
H352 H 0.20308 0.7277 0.35334 0.0
H353 H 0.24302 0.77117 0.21597 0.0
H354 H 0.25512 0.71145 0.41347 0.0
H355 H 0.25755 0.70348 0.53216 0.0
H356 H 0.29015 0.79217 0.54694 0.0
H357 H 0.28775 0.80098 0.42838 0.0
C358 C 0.31274 0.73808 0.11335 0.0
C359 C 0.32595 0.76077 0.1274 0.0
C360 C 0.29897 0.73958 0.14875 0.0
C361 C 0.29784 0.76393 0.19929 0.0
C362 C 0.31109 0.78614 0.21462 0.0
C363 C 0.32493 0.78466 0.17911 0.0
C364 C 0.28289 0.76586 0.23606 0.0
C365 C 0.28342 0.76296 0.3042 0.0
C366 C 0.26803 0.76887 0.20415 0.0
C367 C 0.26655 0.77422 0.13288 0.0
C368 C 0.275 0.80187 0.10304 0.0
C369 C 0.2736 0.8067 0.03583 0.0
C370 C 0.2637 0.7842 0.99797 0.0
C371 C 0.25514 0.75687 1.02728 0.0
C372 C 0.25651 0.7519 0.09447 0.0
C373 C 0.22478 0.79294 0.431 0.0
C374 C 0.21165 0.77 0.41707 0.0
C375 C 0.23859 0.79151 0.39583 0.0
C376 C 0.23983 0.76703 0.34558 0.0
C377 C 0.22667 0.74454 0.33042 0.0
C378 C 0.2128 0.74591 0.36574 0.0
C379 C 0.25479 0.76525 0.30889 0.0
C380 C 0.25426 0.76818 0.24075 0.0
C381 C 0.26965 0.76231 0.34081 0.0
C382 C 0.27113 0.75708 0.41211 0.0
C383 C 0.26271 0.72943 0.44209 0.0
C384 C 0.2641 0.72473 0.50933 0.0
C385 C 0.27397 0.74736 0.54709 0.0
C386 C 0.2825 0.77469 0.51764 0.0
C387 C 0.28113 0.77953 0.45041 0.0
H388 H 0.27503 0.74367 0.59914 0.0
H389 H 0.26263 0.78799 0.94595 0.0
H390 H 0.6928 0.74997 0.3298 0.0
H391 H 0.72013 0.75276 0.37313 0.0
H392 H 0.73692 0.76084 0.17785 0.0
H393 H 0.71008 0.75918 0.1351 0.0
H394 H 0.74528 0.7133 0.36038 0.0
H395 H 0.77016 0.8099 0.16874 0.0
H396 H 0.76136 0.85896 0.10243 0.0
H397 H 0.72676 0.88011 0.24291 0.0
H398 H 0.7355 0.83152 0.31051 0.0
H399 H 0.83378 0.76723 0.29387 0.0
H400 H 0.80574 0.76548 0.26371 0.0
H401 H 0.79424 0.75773 0.46599 0.0
H402 H 0.82224 0.75921 0.49639 0.0
H403 H 0.7827 0.80721 0.28761 0.0
H404 H 0.75871 0.71201 0.4817 0.0
H405 H 0.76742 0.6625 0.54705 0.0
H406 H 0.80026 0.63847 0.4011 0.0
H407 H 0.7916 0.68752 0.33453 0.0
C408 C 0.70233 0.75271 0.29627 0.0
C409 C 0.69904 0.75489 0.22887 0.0
C410 C 0.71801 0.75406 0.32105 0.0
C411 C 0.73082 0.75773 0.27912 0.0
C412 C 0.72746 0.75893 0.21187 0.0
C413 C 0.71193 0.75775 0.18732 0.0
C414 C 0.74769 0.76034 0.30437 0.0
C415 C 0.75335 0.73424 0.34535 0.0
C416 C 0.75856 0.78713 0.2841 0.0
C417 C 0.75341 0.81686 0.24441 0.0
C418 C 0.76074 0.82514 0.18566 0.0
C419 C 0.75574 0.85284 0.14781 0.0
C420 C 0.74348 0.87257 0.16835 0.0
C421 C 0.73623 0.86474 0.22694 0.0
C422 C 0.74119 0.8371 0.26502 0.0
C423 C 0.82531 0.76509 0.33209 0.0
C424 C 0.83044 0.76329 0.39773 0.0
C425 C 0.80919 0.76418 0.3147 0.0
C426 C 0.79763 0.7611 0.36223 0.0
C427 C 0.80274 0.75952 0.42789 0.0
C428 C 0.81886 0.76056 0.44534 0.0
C429 C 0.78034 0.75997 0.343 0.0
C430 C 0.77461 0.78639 0.30306 0.0
C431 C 0.76944 0.73351 0.36429 0.0
C432 C 0.77462 0.7037 0.40355 0.0
C433 C 0.76775 0.69609 0.46349 0.0
C434 C 0.77269 0.66811 0.50075 0.0
C435 C 0.78443 0.64743 0.47836 0.0
C436 C 0.79122 0.6546 0.41852 0.0
C437 C 0.78631 0.68251 0.38106 0.0
H438 H 0.78824 0.62581 0.50729 0.0
H439 H 0.73962 0.89397 0.13893 0.0
H440 H 0.15503 0.87053 0.43223 0.0
H441 H 0.15769 0.93286 0.45553 0.0
H442 H 0.11785 0.92336 0.58008 0.0
H443 H 0.11459 0.86103 0.55331 0.0
H444 H 0.11735 0.98327 0.52595 0.0
H445 H 0.15793 0.92558 0.63893 0.0
H446 H 0.1799 0.88666 0.65168 0.0
H447 H 0.20735 0.95079 0.5225 0.0
H448 H 0.18545 0.9898 0.50814 0.0
H449 H 0.1414 0.14503 0.68984 0.0
H450 H 0.13655 0.08204 0.67218 0.0
H451 H 0.16544 0.08736 0.50365 0.0
H452 H 0.17002 0.15015 0.52002 0.0
H453 H 0.17096 0.02935 0.59054 0.0
H454 H 0.12851 0.08581 0.47803 0.0
H455 H 0.10649 0.12485 0.47388 0.0
H456 H 0.0824 0.06215 0.61584 0.0
H457 H 0.10448 0.0231 0.6218 0.0
C458 C 0.14666 0.88185 0.46368 0.0
C459 C 0.13463 0.86083 0.49108 0.0
C460 C 0.14829 0.91752 0.47765 0.0
C461 C 0.13833 0.93295 0.52157 0.0
C462 C 0.12581 0.91227 0.54655 0.0
C463 C 0.12391 0.87661 0.53111 0.0
C464 C 0.14141 0.97017 0.54273 0.0
C465 C 0.12904 0.99306 0.54099 0.0
C466 C 0.15666 0.98348 0.56258 0.0
C467 C 0.16999 0.96047 0.57207 0.0
C468 C 0.16862 0.9313 0.61301 0.0
C469 C 0.18106 0.90921 0.62051 0.0
C470 C 0.195 0.91621 0.58782 0.0
C471 C 0.19654 0.94538 0.54775 0.0
C472 C 0.18412 0.96751 0.53995 0.0
C473 C 0.14687 0.13268 0.64951 0.0
C474 C 0.1561 0.15264 0.60635 0.0
C475 C 0.14402 0.09671 0.63929 0.0
C476 C 0.15058 0.07995 0.58638 0.0
C477 C 0.16026 0.09965 0.54477 0.0
C478 C 0.16285 0.1356 0.55418 0.0
C479 C 0.147 0.04218 0.57262 0.0
C480 C 0.15928 0.01928 0.57593 0.0
C481 C 0.13165 0.02879 0.5556 0.0
C482 C 0.11822 0.05176 0.55089 0.0
C483 C 0.11857 0.08049 0.50873 0.0
C484 C 0.10607 0.10261 0.506 0.0
C485 C 0.09305 0.09604 0.54468 0.0
C486 C 0.0925 0.06725 0.58598 0.0
C487 C 0.10501 0.04511 0.58906 0.0
H488 H 0.08339 0.11322 0.54258 0.0
H489 H 0.20461 0.89905 0.59361 0.0
H490 H 0.9181 0.37985 0.52715 0.0
H491 H 0.91516 0.44101 0.50013 0.0
H492 H 0.86812 0.43454 0.5726 0.0
H493 H 0.87076 0.3728 0.59644 0.0
H494 H 0.86703 0.46941 0.46954 0.0
H495 H 0.90205 0.47789 0.65545 0.0
H496 H 0.92561 0.46677 0.72296 0.0
H497 H 0.95506 0.51157 0.57604 0.0
H498 H 0.93168 0.52255 0.50725 0.0
H499 H 0.86174 0.65376 0.52992 0.0
H500 H 0.86538 0.59151 0.54455 0.0
H501 H 0.89877 0.59403 0.39111 0.0
H502 H 0.89478 0.65641 0.37458 0.0
H503 H 0.9074 0.56234 0.52917 0.0
H504 H 0.87039 0.55587 0.34676 0.0
H505 H 0.84584 0.57072 0.28985 0.0
H506 H 0.81897 0.52435 0.44335 0.0
H507 H 0.84342 0.51003 0.50215 0.0
C508 C 0.90718 0.39154 0.53799 0.0
C509 C 0.8947 0.37138 0.56437 0.0
C510 C 0.90551 0.42671 0.52269 0.0
C511 C 0.89147 0.44299 0.53504 0.0
C512 C 0.87908 0.42289 0.56228 0.0
C513 C 0.88063 0.38753 0.57635 0.0
C514 C 0.88951 0.48053 0.51805 0.0
C515 C 0.87585 0.4896 0.48335 0.0
C516 C 0.90103 0.50733 0.53473 0.0
C517 C 0.91512 0.50067 0.57589 0.0
C518 C 0.91356 0.48511 0.63731 0.0
C519 C 0.92688 0.47888 0.67585 0.0
C520 C 0.94183 0.48836 0.65371 0.0
C521 C 0.94348 0.50418 0.59306 0.0
C522 C 0.93019 0.51043 0.5543 0.0
C523 C 0.86968 0.64099 0.49848 0.0
C524 C 0.87788 0.65999 0.45069 0.0
C525 C 0.87178 0.60542 0.50711 0.0
C526 C 0.88237 0.58815 0.4691 0.0
C527 C 0.89053 0.60689 0.42097 0.0
C528 C 0.88815 0.64242 0.41122 0.0
C529 C 0.88504 0.5507 0.48114 0.0
C530 C 0.89874 0.54184 0.51513 0.0
C531 C 0.87346 0.52423 0.46501 0.0
C532 C 0.85874 0.53221 0.42919 0.0
C533 C 0.85926 0.54913 0.36872 0.0
C534 C 0.84535 0.55739 0.33603 0.0
C535 C 0.83085 0.54849 0.36293 0.0
C536 C 0.83022 0.53125 0.42258 0.0
C537 C 0.8441 0.52307 0.45563 0.0
H538 H 0.8201 0.55491 0.33753 0.0
H539 H 0.95212 0.48352 0.68363 0.0
H540 H 0.89595 0.87758 0.38307 0.0
H541 H 0.901 0.94047 0.40096 0.0
H542 H 0.87042 0.93633 0.56425 0.0
H543 H 0.86564 0.87354 0.54774 0.0
H544 H 0.86601 0.99398 0.47358 0.0
H545 H 0.90681 0.93803 0.59781 0.0
H546 H 0.92883 0.8992 0.60986 0.0
H547 H 0.95491 0.95991 0.47101 0.0
H548 H 0.93292 0.99879 0.45734 0.0
H549 H 0.8807 0.15372 0.62948 0.0
H550 H 0.87815 0.09125 0.60786 0.0
H551 H 0.91922 0.09933 0.49002 0.0
H552 H 0.92228 0.16194 0.51485 0.0
H553 H 0.91899 0.03981 0.54788 0.0
H554 H 0.88019 0.09697 0.42367 0.0
H555 H 0.8586 0.13627 0.40423 0.0
H556 H 0.82913 0.07425 0.52939 0.0
H557 H 0.85063 0.03487 0.55044 0.0
C558 C 0.89017 0.89016 0.42233 0.0
C559 C 0.88038 0.87053 0.46396 0.0
C560 C 0.89314 0.92605 0.4327 0.0
C561 C 0.88615 0.94311 0.48415 0.0
C562 C 0.87595 0.92377 0.52429 0.0
C563 C 0.87324 0.88785 0.51481 0.0
C564 C 0.88968 0.98091 0.49749 0.0
C565 C 0.87755 1.00399 0.49036 0.0
C566 C 0.90487 0.99419 0.51724 0.0
C567 C 0.91815 0.97107 0.52599 0.0
C568 C 0.91718 0.94291 0.56941 0.0
C569 C 0.92967 0.92093 0.57661 0.0
C570 C 0.94324 0.92702 0.54107 0.0
C571 C 0.94438 0.95518 0.49841 0.0
C572 C 0.93191 0.97721 0.49094 0.0
C573 C 0.88935 0.14209 0.59985 0.0
C574 C 0.90165 0.1628 0.57363 0.0
C575 C 0.8878 0.10634 0.5869 0.0
C576 C 0.89816 0.09046 0.54534 0.0
C577 C 0.91095 0.11081 0.52171 0.0
C578 C 0.91273 0.14662 0.53604 0.0
C579 C 0.89521 0.05312 0.52512 0.0
C580 C 0.90745 0.03004 0.53071 0.0
C581 C 0.88016 0.0399 0.50256 0.0
C582 C 0.86707 0.06311 0.48903 0.0
C583 C 0.86913 0.0918 0.44729 0.0
C584 C 0.85691 0.1141 0.436 0.0
C585 C 0.84252 0.10781 0.46567 0.0
C586 C 0.84029 0.07911 0.5065 0.0
C587 C 0.85249 0.05677 0.51808 0.0
H588 H 0.83308 0.12513 0.45694 0.0
H589 H 0.9529 0.90996 0.54671 0.0
H590 H 0.16434 0.65004 0.46077 0.0
H591 H 0.16706 0.58818 0.48513 0.0
H592 H 0.12083 0.58235 0.56473 0.0
H593 H 0.11783 0.64398 0.53887 0.0
H594 H 0.14682 0.55316 0.64627 0.0
H595 H 0.12262 0.54654 0.43099 0.0
H596 H 0.12041 0.56135 0.31465 0.0
H597 H 0.16583 0.522 0.28372 0.0
H598 H 0.16841 0.50743 0.40016 0.0
H599 H 0.14063 0.36765 0.68654 0.0
H600 H 0.13676 0.42956 0.66707 0.0
H601 H 0.17229 0.43093 0.52161 0.0
H602 H 0.17538 0.36885 0.53826 0.0
H603 H 0.15057 0.46357 0.47428 0.0
H604 H 0.17638 0.47164 0.68408 0.0
H605 H 0.18079 0.45897 0.80045 0.0
H606 H 0.13584 0.49755 0.84314 0.0
H607 H 0.13107 0.51004 0.72686 0.0
C608 C 0.15468 0.63553 0.48285 0.0
C609 C 0.14083 0.65198 0.49749 0.0
C610 C 0.15627 0.60017 0.49688 0.0
C611 C 0.14417 0.58061 0.52701 0.0
C612 C 0.13033 0.59692 0.54166 0.0
C613 C 0.12859 0.6321 0.52637 0.0
C614 C 0.14604 0.5432 0.54328 0.0
C615 C 0.14744 0.53338 0.60882 0.0
C616 C 0.14733 0.51763 0.49446 0.0
C617 C 0.14577 0.52624 0.42442 0.0
C618 C 0.1322 0.54135 0.39951 0.0
C619 C 0.13086 0.54963 0.33352 0.0
C620 C 0.14299 0.54271 0.29185 0.0
C621 C 0.15645 0.5274 0.31607 0.0
C622 C 0.15785 0.5191 0.38205 0.0
C623 C 0.14778 0.38139 0.65123 0.0
C624 C 0.15836 0.36338 0.61415 0.0
C625 C 0.1456 0.41693 0.6401 0.0
C626 C 0.15431 0.43553 0.59303 0.0
C627 C 0.16527 0.41755 0.55779 0.0
C628 C 0.16714 0.38198 0.56771 0.0
C629 C 0.15161 0.47305 0.57787 0.0
C630 C 0.15 0.48306 0.51226 0.0
C631 C 0.15048 0.49892 0.62676 0.0
C632 C 0.1533 0.49141 0.69667 0.0
C633 C 0.16739 0.47717 0.71822 0.0
C634 C 0.16996 0.47006 0.78417 0.0
C635 C 0.15858 0.47735 0.82913 0.0
C636 C 0.14463 0.49186 0.80825 0.0
C637 C 0.14199 0.49898 0.74233 0.0
H638 H 0.1606 0.47184 0.88017 0.0
H639 H 0.14193 0.54913 0.24077 0.0
H640 H 0.63576 0.64122 0.18779 0.0
H641 H 0.63092 0.57912 0.16569 0.0
H642 H 0.66594 0.58445 1.01813 0.0
H643 H 0.67012 0.64709 0.03768 0.0
H644 H 0.64338 0.54647 0.97327 0.0
H645 H 0.67106 0.54601 0.17878 0.0
H646 H 0.67672 0.56116 0.29398 0.0
H647 H 0.63202 0.5145 0.34579 0.0
H648 H 0.62601 0.49947 0.23073 0.0
H649 H 0.6576 0.3644 0.96485 0.0
H650 H 0.65939 0.42735 0.98352 0.0
H651 H 0.61457 0.42081 0.0755 0.0
H652 H 0.61252 0.35757 0.05554 0.0
H653 H 0.64063 0.45836 0.14866 0.0
H654 H 0.6147 0.45617 0.93756 0.0
H655 H 0.61133 0.43925 0.82208 0.0
H656 H 0.65611 0.48927 0.78145 0.0
H657 H 0.65986 0.50606 0.89694 0.0
C658 C 0.64254 0.62909 0.15106 0.0
C659 C 0.65342 0.64911 0.11485 0.0
C660 C 0.63981 0.59341 0.13857 0.0
C661 C 0.64823 0.57654 0.09087 0.0
C662 C 0.65923 0.59656 0.05516 0.0
C663 C 0.66171 0.63242 0.06664 0.0
C664 C 0.64529 0.53839 0.07688 0.0
C665 C 0.643 0.52731 1.01184 0.0
C666 C 0.64444 0.51299 0.12681 0.0
C667 C 0.64802 0.52195 0.19604 0.0
C668 C 0.66239 0.53921 0.21468 0.0
C669 C 0.66567 0.54774 0.27995 0.0
C670 C 0.65471 0.53889 0.32714 0.0
C671 C 0.64048 0.52139 0.30917 0.0
C672 C 0.63714 0.51284 0.24394 0.0
C673 C 0.648 0.37637 0.98826 0.0
C674 C 0.63488 0.35596 1.00849 0.0
C675 C 0.64906 0.41239 0.99892 0.0
C676 C 0.63714 0.42882 0.03096 0.0
C677 C 0.62391 0.40865 0.05067 0.0
C678 C 0.6227 0.37259 0.03882 0.0
C679 C 0.63887 0.46685 0.04552 0.0
C680 C 0.64096 0.47777 0.11049 0.0
C681 C 0.63989 0.492 0.99558 0.0
C682 C 0.63762 0.4821 0.92604 0.0
C683 C 0.62389 0.46331 0.90412 0.0
C684 C 0.6219 0.45379 0.83863 0.0
C685 C 0.63351 0.46311 0.79448 0.0
C686 C 0.64713 0.48204 0.81572 0.0
C687 C 0.64919 0.49159 0.88117 0.0
H688 H 0.63195 0.45572 0.7438 0.0
H689 H 0.65727 0.54551 0.37765 0.0
H690 H 0.37398 0.87931 0.08317 0.0
H691 H 0.37136 0.94066 0.0566 0.0
H692 H 0.41764 0.94513 0.97672 0.0
H693 H 0.4206 0.88416 1.00641 0.0
H694 H 0.41427 1.00342 0.03171 0.0
H695 H 0.38193 0.93702 0.87971 0.0
H696 H 0.36158 0.89303 0.84242 0.0
H697 H 0.32653 0.9478 0.94088 0.0
H698 H 0.34672 0.99188 0.97956 0.0
H699 H 0.40014 0.16046 0.85379 0.0
H700 H 0.40369 0.09824 0.87314 0.0
H701 H 0.36532 0.09515 1.00517 0.0
H702 H 0.36193 0.15722 0.98724 0.0
H703 H 0.36544 0.03636 0.91585 0.0
H704 H 0.39996 0.10255 0.0682 0.0
H705 H 0.42105 0.14695 0.09513 0.0
H706 H 0.45316 0.0917 0.9812 0.0
H707 H 0.43217 0.04725 0.95268 0.0
C708 C 0.38367 0.89346 0.0606 0.0
C709 C 0.39747 0.87671 0.04672 0.0
C710 C 0.38211 0.92857 0.04477 0.0
C711 C 0.39411 0.94762 1.01275 0.0
C712 C 0.40814 0.93122 1.00097 0.0
C713 C 0.40983 0.89625 1.01804 0.0
C714 C 0.3919 0.9843 0.99074 0.0
C715 C 0.40367 0.01035 1.00555 0.0
C716 C 0.37808 0.99389 0.95652 0.0
C717 C 0.36587 0.96758 0.93302 0.0
C718 C 0.3699 0.93957 0.89375 0.0
C719 C 0.35839 0.91462 0.87233 0.0
C720 C 0.34278 0.91757 0.8894 0.0
C721 C 0.33863 0.94553 0.92777 0.0
C722 C 0.3501 0.97052 0.94941 0.0
C723 C 0.3923 0.14636 0.88606 0.0
C724 C 0.38075 0.16381 0.91895 0.0
C725 C 0.39439 0.11086 0.89737 0.0
C726 C 0.38483 0.09204 0.94096 0.0
C727 C 0.37283 0.10907 0.97138 0.0
C728 C 0.37093 0.1446 0.96108 0.0
C729 C 0.38769 0.0551 0.95754 0.0
C730 C 0.37605 0.02914 0.94166 0.0
C731 C 0.40175 0.04549 0.98939 0.0
C732 C 0.41445 0.07178 1.00774 0.0
C733 C 0.41148 0.1 0.0485 0.0
C734 C 0.42342 0.12516 0.0641 0.0
C735 C 0.43842 0.12221 0.03973 0.0
C736 C 0.44153 0.09399 0.99995 0.0
C737 C 0.42962 0.0688 0.98408 0.0
H738 H 0.44765 0.14174 0.05178 0.0
H739 H 0.33388 0.89823 0.87278 0.0
H740 H 0.37808 0.37367 0.03271 0.0
H741 H 0.38298 0.43588 0.05152 0.0
H742 H 0.39841 0.44845 0.85482 0.0
H743 H 0.3935 0.38565 0.83538 0.0
H744 H 0.40954 0.47676 0.04965 0.0
H745 H 0.38813 0.531 0.80408 0.0
H746 H 0.36956 0.51488 0.71345 0.0
H747 H 0.34108 0.45342 0.84323 0.0
H748 H 0.35936 0.46955 0.9347 0.0
H749 H 0.42704 0.66311 0.04051 0.0
H750 H 0.42539 0.60052 1.01466 0.0
H751 H 0.37495 0.59941 1.02468 0.0
H752 H 0.37646 0.66135 0.05011 0.0
H753 H 0.38301 0.56558 0.91829 0.0
H754 H 0.39766 0.56579 0.14666 0.0
H755 H 0.41435 0.58147 0.2433 0.0
H756 H 0.45323 0.53328 0.15817 0.0
H757 H 0.43682 0.51772 0.06059 0.0
C758 C 0.38245 0.38953 0.99309 0.0
C759 C 0.38534 0.37446 0.93231 0.0
C760 C 0.38535 0.42522 1.00419 0.0
C761 C 0.39109 0.44706 0.95479 0.0
C762 C 0.3939 0.43226 0.89374 0.0
C763 C 0.39107 0.39632 0.88261 0.0
C764 C 0.3939 0.48523 0.96777 0.0
C765 C 0.40384 0.49617 1.02049 0.0
C766 C 0.38638 0.51076 0.93043 0.0
C767 C 0.37523 0.50114 0.87598 0.0
C768 C 0.37789 0.51411 0.81324 0.0
C769 C 0.36741 0.50498 0.76175 0.0
C770 C 0.35418 0.48303 0.77252 0.0
C771 C 0.35136 0.47029 0.83488 0.0
C772 C 0.36179 0.47939 0.88654 0.0
C773 C 0.41562 0.64943 0.03791 0.0
C774 C 0.4019 0.66745 0.0476 0.0
C775 C 0.41468 0.61361 1.02297 0.0
C776 C 0.40002 0.59508 1.01745 0.0
C777 C 0.38639 0.613 1.02806 0.0
C778 C 0.38731 0.64855 0.04309 0.0
C779 C 0.39863 0.55714 1.00028 0.0
C780 C 0.38894 0.54623 0.94677 0.0
C781 C 0.40621 0.53163 0.03747 0.0
C782 C 0.41607 0.54097 0.09604 0.0
C783 C 0.40981 0.55881 0.14832 0.0
C784 C 0.41921 0.56762 0.2033 0.0
C785 C 0.43486 0.55848 0.20678 0.0
C786 C 0.44112 0.54042 0.15535 0.0
C787 C 0.43178 0.53158 0.10021 0.0
H788 H 0.44211 0.56531 0.2494 0.0
H789 H 0.34609 0.47597 0.73259 0.0
H790 H 0.66464 0.1456 0.99853 0.0
H791 H 0.66655 0.08379 1.02408 0.0
H792 H 0.61732 0.07621 0.06678 0.0
H793 H 0.61526 0.138 0.0408 0.0
H794 H 0.6362 0.04544 0.16251 0.0
H795 H 0.6288 0.04184 0.93004 0.0
H796 H 0.63455 0.05851 0.81721 0.0
H797 H 0.68114 0.02234 0.84133 0.0
H798 H 0.67575 1.0059 0.95467 0.0
H799 H 0.63133 0.85876 0.18661 0.0
H800 H 0.62753 0.92048 0.16486 0.0
H801 H 0.67307 0.92997 0.07828 0.0
H802 H 0.6764 0.86808 0.09659 0.0
H803 H 0.6545 0.96017 1.00388 0.0
H804 H 0.66326 0.96634 0.23575 0.0
H805 H 0.65862 0.95083 0.3501 0.0
H806 H 0.61129 0.98321 0.33027 0.0
H807 H 0.61559 0.99851 0.21551 0.0
C808 C 0.65416 0.13075 1.01273 0.0
C809 C 0.63978 0.14685 1.01728 0.0
C810 C 0.65528 0.09536 1.02738 0.0
C811 C 0.64207 0.07523 0.04734 0.0
C812 C 0.62768 0.09116 0.05164 0.0
C813 C 0.62651 0.12648 0.03629 0.0
C814 C 0.64337 0.03771 0.06427 0.0
C815 C 0.64001 0.02664 0.12764 0.0
C816 C 0.64868 0.0133 1.01936 0.0
C817 C 0.65191 0.02294 0.95105 0.0
C818 C 0.64031 0.03769 0.91146 0.0
C819 C 0.6435 0.04705 0.84738 0.0
C820 C 0.65821 0.04157 0.82217 0.0
C821 C 0.66976 0.02661 0.86094 0.0
C822 C 0.66664 0.01723 0.92509 0.0
C823 C 0.64064 0.87428 0.16419 0.0
C824 C 0.65421 0.85865 0.14375 0.0
C825 C 0.63848 0.90966 0.15169 0.0
C826 C 0.65006 0.93039 0.1202 0.0
C827 C 0.66387 0.91483 0.10216 0.0
C828 C 0.66584 0.87942 0.11318 0.0
C829 C 0.64765 0.96768 0.1029 0.0
C830 C 0.65072 0.97879 0.03915 0.0
C831 C 0.64228 0.9922 0.14781 0.0
C832 C 0.6397 0.98325 0.21688 0.0
C833 C 0.65183 0.96994 0.25567 0.0
C834 C 0.64927 0.96122 0.32056 0.0
C835 C 0.63466 0.96594 0.34738 0.0
C836 C 0.62259 0.97951 0.3094 0.0
C837 C 0.62509 0.98825 0.24445 0.0
H838 H 0.63269 0.95916 0.39763 0.0
H839 H 0.66066 0.04885 0.77255 0.0
H840 H 0.15489 0.27226 0.24596 0.0
H841 H 0.13342 0.2622 0.16513 0.0
H842 H 0.10238 0.22726 0.31636 0.0
H843 H 0.12386 0.23791 0.39735 0.0
H844 H 0.10592 0.17964 0.2037 0.0
H845 H 0.08616 0.28567 0.24536 0.0
H846 H 0.08586 0.34711 0.27946 0.0
H847 H 0.11195 0.37819 0.11208 0.0
H848 H 0.11268 0.317 0.07743 0.0
H849 H 0.11129 0.24327 0.8403 0.0
H850 H 0.09272 0.23072 0.9275 0.0
H851 H 0.13106 0.19841 0.05108 0.0
H852 H 0.14939 0.2115 0.96501 0.0
H853 H 0.09616 0.26924 0.03688 0.0
H854 H 0.12177 0.14111 0.15021 0.0
H855 H 0.12351 0.08025 0.11538 0.0
H856 H 0.08675 0.09275 0.97176 0.0
H857 H 0.08453 0.15364 1.00638 0.0
C858 C 0.1434 0.26311 0.26169 0.0
C859 C 0.14088 0.25625 0.32725 0.0
C860 C 0.13114 0.25759 0.21605 0.0
C861 C 0.11628 0.24459 0.23533 0.0
C862 C 0.11367 0.23786 0.30098 0.0
C863 C 0.12589 0.24401 0.34685 0.0
C864 C 0.10451 0.23427 0.18426 0.0
C865 C 0.1033 0.19891 0.16717 0.0
C866 C 0.0998 0.25937 0.13892 0.0
C867 C 0.09929 0.29658 0.15834 0.0
C868 C 0.09184 0.30558 0.21574 0.0
C869 C 0.09161 0.3404 0.23525 0.0
C870 C 0.09882 0.36654 0.19782 0.0
C871 C 0.10629 0.35792 0.14082 0.0
C872 C 0.10655 0.32313 0.12107 0.0
C873 C 0.11554 0.23243 0.8856 0.0
C874 C 0.13171 0.22874 0.89696 0.0
C875 C 0.10495 0.22507 0.93498 0.0
C876 C 0.11041 0.21311 0.99543 0.0
C877 C 0.12643 0.20678 1.0044 0.0
C878 C 0.13699 0.21479 0.95578 0.0
C879 C 0.10096 0.21556 0.05417 0.0
C880 C 0.09773 0.24942 0.07351 0.0
C881 C 0.1016 0.18906 0.10147 0.0
C882 C 0.10283 0.15207 0.08159 0.0
C883 C 0.11384 0.13088 0.11195 0.0
C884 C 0.11498 0.09634 0.09196 0.0
C885 C 0.10521 0.0826 0.04156 0.0
C886 C 0.09429 0.10341 1.0109 0.0
C887 C 0.0931 0.13796 0.03066 0.0
H888 H 0.10613 0.05586 1.02613 0.0
H889 H 0.09866 0.39349 0.21306 0.0
H890 H 0.92434 0.26855 0.36304 0.0
H891 H 0.92439 0.26811 0.24397 0.0
H892 H 0.87386 0.2646 0.23735 0.0
H893 H 0.87383 0.26396 0.35695 0.0
H894 H 0.88044 0.22841 0.1396 0.0
H895 H 0.90215 0.34198 0.19695 0.0
H896 H 0.9204 0.38521 0.25182 0.0
H897 H 0.95935 0.34097 0.15972 0.0
H898 H 0.94134 0.29719 0.1049 0.0
H899 H 0.87379 0.26604 0.79526 0.0
H900 H 0.8736 0.26639 0.91431 0.0
H901 H 0.92413 0.26952 0.92197 0.0
H902 H 0.92431 0.27028 0.80239 0.0
H903 H 0.91742 0.30598 1.01916 0.0
H904 H 0.89545 0.19212 0.96206 0.0
H905 H 0.87699 0.14939 0.90692 0.0
H906 H 0.83824 0.19501 0.99801 0.0
H907 H 0.85647 0.23822 0.05327 0.0
C908 C 0.91314 0.26777 0.33678 0.0
C909 C 0.89908 0.26649 0.3722 0.0
C910 C 0.91316 0.26784 0.26718 0.0
C911 C 0.89912 0.26714 0.22809 0.0
C912 C 0.88505 0.26534 0.26362 0.0
C913 C 0.88502 0.26509 0.33335 0.0
C914 C 0.89908 0.26793 0.15168 0.0
C915 C 0.88846 0.24591 0.11402 0.0
C916 C 0.90957 0.28981 0.11469 0.0
C917 C 0.92041 0.3161 0.14737 0.0
C918 C 0.91462 0.34135 0.18873 0.0
C919 C 0.92491 0.36596 0.21977 0.0
C920 C 0.94103 0.36578 0.2094 0.0
C921 C 0.94687 0.34104 0.1678 0.0
C922 C 0.93662 0.31634 0.13669 0.0
C923 C 0.88496 0.26672 0.82175 0.0
C924 C 0.89907 0.26795 0.78664 0.0
C925 C 0.88485 0.26657 0.89134 0.0
C926 C 0.89885 0.26714 0.9307 0.0
C927 C 0.91297 0.26888 0.89546 0.0
C928 C 0.91308 0.2692 0.82575 0.0
C929 C 0.89881 0.2664 1.0071 0.0
C930 C 0.9094 0.28845 0.04475 0.0
C931 C 0.88827 0.24461 0.04406 0.0
C932 C 0.87731 0.21858 1.0113 0.0
C933 C 0.88298 0.19313 0.97007 0.0
C934 C 0.87256 0.16882 0.93885 0.0
C935 C 0.85645 0.16953 0.94887 0.0
C936 C 0.85072 0.19451 0.99027 0.0
C937 C 0.86109 0.21889 1.02162 0.0
H938 H 0.8484 0.15068 0.92465 0.0
H939 H 0.94898 0.38485 0.23349 0.0
H940 H 0.16211 0.75769 0.26695 0.0
H941 H 0.16223 0.75719 0.14788 0.0
H942 H 0.1117 0.75391 0.1407 0.0
H943 H 0.11159 0.75336 0.26031 0.0
H944 H 0.11845 0.7172 0.04349 0.0
H945 H 0.14022 0.83123 0.10036 0.0
H946 H 0.15862 0.87419 0.15515 0.0
H947 H 0.19739 0.82915 0.06317 0.0
H948 H 0.17923 0.78567 1.00838 0.0
H949 H 0.11144 0.75444 0.69938 0.0
H950 H 0.11138 0.75483 0.81846 0.0
H951 H 0.16192 0.75869 0.82513 0.0
H952 H 0.16196 0.75933 0.70553 0.0
H953 H 0.15524 0.79502 0.92259 0.0
H954 H 0.1338 0.68118 0.86579 0.0
H955 H 0.11564 0.63766 0.81118 0.0
H956 H 0.07658 0.68153 0.90314 0.0
H957 H 0.09449 0.72558 0.95772 0.0
C958 C 0.15092 0.75696 0.24056 0.0
C959 C 0.13684 0.75577 0.27582 0.0
C960 C 0.15099 0.757 0.17097 0.0
C961 C 0.13698 0.75633 0.13173 0.0
C962 C 0.12288 0.75462 0.16711 0.0
C963 C 0.12281 0.75443 0.23684 0.0
C964 C 0.13698 0.75699 0.05533 0.0
C965 C 0.12642 0.73478 1.0178 0.0
C966 C 0.14746 0.77884 1.01822 0.0
C967 C 0.15838 0.805 0.0508 0.0
C968 C 0.15268 0.83038 0.09213 0.0
C969 C 0.16306 0.85483 0.12313 0.0
C970 C 0.17917 0.85434 0.11278 0.0
C971 C 0.18492 0.82946 0.07122 0.0
C972 C 0.17458 0.80493 0.04013 0.0
C973 C 0.12264 0.75528 0.72565 0.0
C974 C 0.1367 0.75666 0.69025 0.0
C975 C 0.12261 0.75518 0.79525 0.0
C976 C 0.13665 0.75599 0.83435 0.0
C977 C 0.15073 0.75788 0.79884 0.0
C978 C 0.15076 0.75812 0.72911 0.0
C979 C 0.13669 0.75528 0.91075 0.0
C980 C 0.14726 0.77746 0.94828 0.0
C981 C 0.12625 0.73333 0.94785 0.0
C982 C 0.11546 0.70689 0.91529 0.0
C983 C 0.12132 0.68167 0.87403 0.0
C984 C 0.11108 0.65689 0.84314 0.0
C985 C 0.09496 0.65689 0.85354 0.0
C986 C 0.08906 0.6816 0.89504 0.0
C987 C 0.09925 0.70646 0.92601 0.0
H988 H 0.08705 0.63769 0.82957 0.0
H989 H 0.18719 0.87328 0.13686 0.0
H990 H 0.85469 0.73267 0.80258 0.0
H991 H 0.86064 0.691 0.88751 0.0
H992 H 0.88183 0.62566 0.74742 0.0
H993 H 0.87555 0.66688 0.66154 0.0
H994 H 0.86012 0.60866 0.90942 0.0
H995 H 0.91109 0.62426 0.79891 0.0
H996 H 0.92665 0.65453 0.71468 0.0
H997 H 0.91722 0.75331 0.79911 0.0
H998 H 0.90156 0.72354 0.88358 0.0
H999 H 0.91485 0.70901 0.17676 0.0
H1000 H 0.91402 0.66412 0.09139 0.0
H1001 H 0.86427 0.67732 0.06185 0.0
H1002 H 0.86511 0.72013 0.14912 0.0
H1003 H 0.90989 0.67295 0.97556 0.0
H1004 H 0.84328 0.61947 0.99474 0.0
H1005 H 0.82706 0.59029 0.07724 0.0
H1006 H 0.86853 0.5616 0.18276 0.0
H1007 H 0.88511 0.58993 0.10007 0.0
C1008 C 0.86011 0.70891 0.78935 0.0
C1009 C 0.86518 0.70375 0.72605 0.0
C1010 C 0.86337 0.68489 0.83772 0.0
C1011 C 0.8718 0.65549 0.82355 0.0
C1012 C 0.87539 0.6483 0.75916 0.0
C1013 C 0.87207 0.67229 0.71056 0.0
C1014 C 0.88018 0.63936 0.87815 0.0
C1015 C 0.87125 0.62142 0.92454 0.0
C1016 C 0.89525 0.65376 0.89597 0.0
C1017 C 0.90528 0.67172 0.84754 0.0
C1018 C 0.91245 0.65242 0.79962 0.0
C1019 C 0.92123 0.66948 0.75178 0.0
C1020 C 0.92294 0.70582 0.75158 0.0
C1021 C 0.91592 0.72517 0.79941 0.0
C1022 C 0.90713 0.70823 0.84737 0.0
C1023 C 0.90377 0.70177 0.1521 0.0
C1024 C 0.89006 0.71815 0.16808 0.0
C1025 C 0.90324 0.67588 0.10411 0.0
C1026 C 0.88903 0.66654 0.07071 0.0
C1027 C 0.8753 0.68264 0.08824 0.0
C1028 C 0.87578 0.70776 0.1371 0.0
C1029 C 0.88881 0.64602 1.00944 0.0
C1030 C 0.8994 0.65718 0.9619 0.0
C1031 C 0.87557 0.62403 0.99088 0.0
C1032 C 0.86551 0.60663 0.04046 0.0
C1033 C 0.84901 0.6065 0.03481 0.0
C1034 C 0.83973 0.59021 0.08188 0.0
C1035 C 0.84676 0.57398 0.13502 0.0
C1036 C 0.8631 0.57412 0.14143 0.0
C1037 C 0.87246 0.59033 0.09446 0.0
H1038 H 0.83952 0.56131 0.17123 0.0
H1039 H 0.92968 0.71899 0.71434 0.0
H1040 H 0.60699 0.73286 0.44285 0.0
H1041 H 0.61514 0.7489 0.55357 0.0
H1042 H 0.66058 0.70869 0.52313 0.0
H1043 H 0.65275 0.69282 0.4128 0.0
H1044 H 0.63562 0.7252 0.67143 0.0
H1045 H 0.68364 0.78641 0.51388 0.0
H1046 H 0.68798 0.80136 0.39903 0.0
H1047 H 0.63883 0.81725 0.36983 0.0
H1048 H 0.63429 0.80344 0.48499 0.0
H1049 H 0.70219 0.77626 0.82738 0.0
H1050 H 0.69237 0.78029 0.71654 0.0
H1051 H 0.65524 0.84323 0.77919 0.0
H1052 H 0.66548 0.84117 0.89034 0.0
H1053 H 0.6724 0.82418 0.61348 0.0
H1054 H 0.62894 0.77916 0.79352 0.0
H1055 H 0.62576 0.75366 0.9028 0.0
H1056 H 0.66778 0.69832 0.88131 0.0
H1057 H 0.67107 0.72324 0.77174 0.0
C1058 C 0.61858 0.72641 0.45996 0.0
C1059 C 0.62989 0.71555 0.41667 0.0
C1060 C 0.62311 0.73523 0.52369 0.0
C1061 C 0.63872 0.73188 0.54398 0.0
C1062 C 0.64863 0.71268 0.50649 0.0
C1063 C 0.64412 0.70393 0.44293 0.0
C1064 C 0.64573 0.75533 0.59395 0.0
C1065 C 0.6433 0.7474 0.65895 0.0
C1066 C 0.65592 0.78391 0.57675 0.0
C1067 C 0.65859 0.79339 0.50786 0.0
C1068 C 0.67377 0.79324 0.48301 0.0
C1069 C 0.67626 0.80146 0.41781 0.0
C1070 C 0.66365 0.80982 0.3769 0.0
C1071 C 0.64856 0.81046 0.40139 0.0
C1072 C 0.64603 0.80246 0.46665 0.0
C1073 C 0.69247 0.79261 0.81786 0.0
C1074 C 0.68355 0.80526 0.86851 0.0
C1075 C 0.68697 0.79524 0.75384 0.0
C1076 C 0.67266 0.81042 0.74108 0.0
C1077 C 0.66611 0.83052 0.78902 0.0
C1078 C 0.67181 0.82855 0.85286 0.0
C1079 C 0.66224 0.79403 0.69097 0.0
C1080 C 0.66417 0.80297 0.62589 0.0
C1081 C 0.65165 0.76614 0.7078 0.0
C1082 C 0.65033 0.75332 0.77517 0.0
C1083 C 0.63755 0.76179 0.81252 0.0
C1084 C 0.6357 0.74733 0.87431 0.0
C1085 C 0.64654 0.72429 0.89887 0.0
C1086 C 0.65937 0.71606 0.86212 0.0
C1087 C 0.66125 0.73038 0.80031 0.0
H1088 H 0.64499 0.71269 0.94624 0.0
H1089 H 0.66559 0.816 0.32636 0.0
H1090 H 0.42594 0.77284 0.84401 0.0
H1091 H 0.42602 0.77237 0.72491 0.0
H1092 H 0.37554 0.77186 0.71801 0.0
H1093 H 0.37546 0.77137 0.83761 0.0
H1094 H 0.38187 0.73462 0.62071 0.0
H1095 H 0.40444 0.84746 0.67747 0.0
H1096 H 0.42301 0.89005 0.73231 0.0
H1097 H 0.46159 0.84409 0.6406 0.0
H1098 H 0.44326 0.80094 0.58581 0.0
H1099 H 0.37559 0.77151 0.27605 0.0
H1100 H 0.37538 0.77219 0.39509 0.0
H1101 H 0.42589 0.77357 0.40286 0.0
H1102 H 0.42608 0.77401 0.28327 0.0
H1103 H 0.41946 0.81047 0.49985 0.0
H1104 H 0.39662 0.69731 0.44335 0.0
H1105 H 0.37785 0.65506 0.38869 0.0
H1106 H 0.33951 0.70222 0.47995 0.0
H1107 H 0.35805 0.74498 0.53463 0.0
C1108 C 0.41476 0.77274 0.81768 0.0
C1109 C 0.4007 0.77233 0.85301 0.0
C1110 C 0.41481 0.77278 0.74809 0.0
C1111 C 0.4008 0.77285 0.70893 0.0
C1112 C 0.38671 0.77196 0.74437 0.0
C1113 C 0.38666 0.7718 0.81409 0.0
C1114 C 0.4008 0.77346 0.63254 0.0
C1115 C 0.39003 0.75175 0.59502 0.0
C1116 C 0.41146 0.79484 0.59546 0.0
C1117 C 0.4225 0.82077 0.62807 0.0
C1118 C 0.4169 0.84631 0.66932 0.0
C1119 C 0.42738 0.87057 0.70035 0.0
C1120 C 0.44348 0.86972 0.69008 0.0
C1121 C 0.44912 0.84468 0.64859 0.0
C1122 C 0.43869 0.82034 0.6175 0.0
C1123 C 0.38675 0.77185 0.30256 0.0
C1124 C 0.40085 0.7725 0.26746 0.0
C1125 C 0.38663 0.77191 0.37215 0.0
C1126 C 0.40061 0.7721 0.41156 0.0
C1127 C 0.41473 0.77324 0.37633 0.0
C1128 C 0.41485 0.77337 0.30661 0.0
C1129 C 0.40056 0.77156 0.48798 0.0
C1130 C 0.41131 0.79331 0.52553 0.0
C1131 C 0.38986 0.75026 0.52508 0.0
C1132 C 0.37871 0.72454 0.49254 0.0
C1133 C 0.38418 0.69878 0.45146 0.0
C1134 C 0.37359 0.67473 0.42052 0.0
C1135 C 0.3575 0.67602 0.4307 0.0
C1136 C 0.35198 0.70128 0.47203 0.0
C1137 C 0.36252 0.72541 0.50305 0.0
H1138 H 0.34931 0.65739 0.40668 0.0
H1139 H 0.45157 0.88851 0.71416 0.0
H1140 H 0.61122 0.24445 0.21901 0.0
H1141 H 0.6112 0.24376 0.33813 0.0
H1142 H 0.66157 0.25861 0.34477 0.0
H1143 H 0.6616 0.25836 0.22517 0.0
H1144 H 0.65592 0.21937 0.44144 0.0
H1145 H 0.63151 0.32516 0.38682 0.0
H1146 H 0.61224 0.36205 0.33296 0.0
H1147 H 0.57459 0.30411 0.42416 0.0
H1148 H 0.59363 0.2666 0.47798 0.0
H1149 H 0.66186 0.25819 0.78655 0.0
H1150 H 0.66195 0.25898 0.66745 0.0
H1151 H 0.61158 0.2439 0.66034 0.0
H1152 H 0.61149 0.24409 0.77994 0.0
H1153 H 0.61728 0.28334 0.56391 0.0
H1154 H 0.64189 0.17742 0.6184 0.0
H1155 H 0.6613 0.14103 0.67263 0.0
H1156 H 0.69877 0.19983 0.58194 0.0
H1157 H 0.67958 0.23682 0.5277 0.0
C1158 C 0.62238 0.24772 0.24529 0.0
C1159 C 0.63641 0.25165 0.20989 0.0
C1160 C 0.62237 0.24762 0.3149 0.0
C1161 C 0.63637 0.25188 0.354 0.0
C1162 C 0.65041 0.25536 0.31847 0.0
C1163 C 0.65043 0.25534 0.24875 0.0
C1164 C 0.6364 0.25235 0.43041 0.0
C1165 C 0.64752 0.23392 0.46749 0.0
C1166 C 0.62544 0.27034 0.46795 0.0
C1167 C 0.61398 0.29286 0.43588 0.0
C1168 C 0.61911 0.32016 0.39506 0.0
C1169 C 0.60823 0.34119 0.36459 0.0
C1170 C 0.5922 0.33536 0.37499 0.0
C1171 C 0.58701 0.30855 0.41606 0.0
C1172 C 0.59784 0.28742 0.4466 0.0
C1173 C 0.65071 0.2549 0.76016 0.0
C1174 C 0.63667 0.25089 0.79543 0.0
C1175 C 0.65077 0.25504 0.69056 0.0
C1176 C 0.63679 0.25074 0.65135 0.0
C1177 C 0.62273 0.24719 0.68674 0.0
C1178 C 0.62267 0.24717 0.75646 0.0
C1179 C 0.63678 0.25032 0.57493 0.0
C1180 C 0.62567 0.26876 0.53786 0.0
C1181 C 0.64777 0.23238 0.53741 0.0
C1182 C 0.65931 0.21008 0.56952 0.0
C1183 C 0.65427 0.1827 0.61031 0.0
C1184 C 0.66523 0.16195 0.64101 0.0
C1185 C 0.68126 0.16817 0.63087 0.0
C1186 C 0.68635 0.19507 0.58982 0.0
C1187 C 0.67544 0.21591 0.55904 0.0
H1188 H 0.68973 0.1521 0.65471 0.0
H1189 H 0.5838 0.35167 0.35134 0.0
H1190 H 0.31943 0.24419 0.15991 0.0
H1191 H 0.31294 0.23637 0.27382 0.0
H1192 H 0.3585 0.19623 0.31278 0.0
H1193 H 0.36521 0.20493 0.20001 0.0
H1194 H 0.33301 0.18458 0.41742 0.0
H1195 H 0.36566 0.29117 0.29641 0.0
H1196 H 0.36476 0.33484 0.20875 0.0
H1197 H 0.31554 0.34494 0.23784 0.0
H1198 H 0.31624 0.30155 0.32614 0.0
H1199 H 0.39838 0.23013 0.58959 0.0
H1200 H 0.37859 0.21984 0.50372 0.0
H1201 H 0.3578 0.31633 0.55143 0.0
H1202 H 0.37836 0.32808 0.63488 0.0
H1203 H 0.35545 0.30623 0.42967 0.0
H1204 H 0.34132 0.2398 0.60605 0.0
H1205 H 0.34492 0.20236 0.70161 0.0
H1206 H 0.35553 0.11732 0.57736 0.0
H1207 H 0.35253 0.15448 0.481 0.0
C1208 C 0.32779 0.23219 0.19224 0.0
C1209 C 0.3432 0.22724 0.17255 0.0
C1210 C 0.32393 0.22719 0.25708 0.0
C1211 C 0.33551 0.21723 0.30179 0.0
C1212 C 0.34949 0.20454 0.27885 0.0
C1213 C 0.3534 0.2098 0.21424 0.0
C1214 C 0.33651 0.23312 0.36693 0.0
C1215 C 0.33746 0.21143 0.42137 0.0
C1216 C 0.34169 0.26863 0.37249 0.0
C1217 C 0.34098 0.29308 0.31724 0.0
C1218 C 0.35466 0.30271 0.28387 0.0
C1219 C 0.3542 0.32751 0.23442 0.0
C1220 C 0.34012 0.34282 0.21803 0.0
C1221 C 0.32644 0.33314 0.25074 0.0
C1222 C 0.32686 0.30845 0.30045 0.0
C1223 C 0.39003 0.2499 0.58035 0.0
C1224 C 0.38963 0.27945 0.62043 0.0
C1225 C 0.37845 0.24353 0.53232 0.0
C1226 C 0.36621 0.26629 0.5243 0.0
C1227 C 0.36686 0.29785 0.55862 0.0
C1228 C 0.37865 0.30461 0.60581 0.0
C1229 C 0.35303 0.25701 0.47872 0.0
C1230 C 0.34998 0.28011 0.4284 0.0
C1231 C 0.34546 0.22335 0.47847 0.0
C1232 C 0.34669 0.20009 0.53595 0.0
C1233 C 0.34453 0.21319 0.59895 0.0
C1234 C 0.34654 0.19205 0.65338 0.0
C1235 C 0.35048 0.15751 0.64556 0.0
C1236 C 0.35245 0.14408 0.5833 0.0
C1237 C 0.35059 0.1652 0.52867 0.0
H1238 H 0.35196 0.14113 0.68775 0.0
H1239 H 0.33978 0.36197 0.17964 0.0
H1240 H 0.10614 0.23778 0.6847 0.0
H1241 H 0.07767 0.23731 0.67022 0.0
H1242 H 0.0828 0.27274 0.47276 0.0
H1243 H 0.11145 0.27193 0.48652 0.0
H1244 H 0.05911 0.28555 0.653 0.0
H1245 H 0.05028 0.25419 0.38171 0.0
H1246 H 0.06327 0.22271 0.29519 0.0
H1247 H 0.08137 0.15216 0.43658 0.0
H1248 H 0.06853 0.18324 0.52397 0.0
H1249 H 0.98385 0.33055 0.55667 0.0
H1250 H 1.01186 0.32188 0.54868 0.0
H1251 H 1.0026 0.2107 0.55296 0.0
H1252 H 0.97423 0.21946 0.56092 0.0
H1253 H 0.02779 0.23189 0.46841 0.0
H1254 H 1.01317 0.25015 0.69017 0.0
H1255 H 1.00061 0.2811 0.77836 0.0
H1256 H 0.02967 0.37301 0.74168 0.0
H1257 H 0.04225 0.34274 0.65258 0.0
C1258 C 0.10125 0.24519 0.63787 0.0
C1259 C 0.11117 0.2548 0.58671 0.0
C1260 C 0.08487 0.24499 0.62964 0.0
C1261 C 0.07783 0.2547 0.57019 0.0
C1262 C 0.08774 0.26431 0.51878 0.0
C1263 C 0.1042 0.26401 0.52675 0.0
C1264 C 0.06023 0.2562 0.56395 0.0
C1265 C 0.05236 0.27365 0.61254 0.0
C1266 C 0.05113 0.24072 0.51152 0.0
C1267 C 0.0585 0.22114 0.45931 0.0
C1268 C 0.05696 0.23183 0.39425 0.0
C1269 C 0.06434 0.21413 0.34512 0.0
C1270 C 0.07316 0.18548 0.36044 0.0
C1271 C 0.07459 0.17442 0.42488 0.0
C1272 C 0.06729 0.19211 0.47423 0.0
C1273 C 0.98771 0.30419 0.55504 0.0
C1274 C 0.97677 0.27571 0.5603 0.0
C1275 C 1.00378 0.29925 0.55038 0.0
C1276 C 1.0095 0.26565 0.55133 0.0
C1277 C 0.99854 0.23693 0.55225 0.0
C1278 C 0.98231 0.24191 0.55666 0.0
C1279 C 0.02688 0.26122 0.55743 0.0
C1280 C 0.03464 0.24349 0.50888 0.0
C1281 C 0.03595 0.27616 0.61024 0.0
C1282 C 0.02856 0.29426 0.66439 0.0
C1283 C 0.01681 0.27702 0.70066 0.0
C1284 C 1.0097 0.29444 0.75083 0.0
C1285 C 1.01432 0.32902 0.76553 0.0
C1286 C 0.0261 0.34623 0.73021 0.0
C1287 C 0.03323 0.32895 0.67991 0.0
H1288 H 1.00879 0.34246 0.80438 0.0
H1289 H 0.07889 0.17186 0.32236 0.0
H1290 H 0.92956 0.76371 0.39338 0.0
H1291 H 0.9578 0.76207 0.40967 0.0
H1292 H 0.95271 0.76633 0.6173 0.0
H1293 H 0.92393 0.76785 0.60133 0.0
H1294 H 0.97891 0.811 0.56808 0.0
H1295 H 0.96019 0.69203 0.55896 0.0
H1296 H 0.94437 0.64136 0.51515 0.0
H1297 H 0.96799 0.65062 0.33399 0.0
H1298 H 0.98379 0.70171 0.37634 0.0
H1299 H 0.06153 0.76526 0.59075 0.0
H1300 H 0.03323 0.7709 0.60825 0.0
H1301 H 0.02342 0.75004 0.40462 0.0
H1302 H 0.05129 0.74439 0.38751 0.0
H1303 H 1.00442 0.71031 0.47308 0.0
H1304 H 0.02089 0.83254 0.47738 0.0
H1305 H 0.03612 0.88472 0.51832 0.0
H1306 H 0.01673 0.86986 0.70719 0.0
H1307 H 1.00153 0.8173 0.66754 0.0
C1308 C 0.93429 0.7644 0.44283 0.0
C1309 C 0.92427 0.76579 0.49605 0.0
C1310 C 0.95058 0.76344 0.45199 0.0
C1311 C 0.95753 0.76388 0.51467 0.0
C1312 C 0.94769 0.76602 0.56834 0.0
C1313 C 0.9312 0.76673 0.55916 0.0
C1314 C 0.97499 0.76078 0.52235 0.0
C1315 C 0.9845 0.78864 0.54865 0.0
C1316 C 0.98241 0.73193 0.49616 0.0
C1317 C 0.97312 0.70085 0.47075 0.0
C1318 C 0.96195 0.6834 0.50964 0.0
C1319 C 0.95299 0.65459 0.48508 0.0
C1320 C 0.95516 0.64281 0.4218 0.0
C1321 C 0.96632 0.65977 0.383 0.0
C1322 C 0.9753 0.68864 0.4073 0.0
C1323 C 0.05332 0.76256 0.5497 0.0
C1324 C 0.05872 0.75403 0.48784 0.0
C1325 C 0.03711 0.76566 0.55968 0.0
C1326 C 0.02597 0.76061 0.50785 0.0
C1327 C 0.03156 0.75359 0.44581 0.0
C1328 C 0.04759 0.75041 0.436 0.0
C1329 C 1.0085 0.76101 0.51709 0.0
C1330 C 0.99892 0.7325 0.49368 0.0
C1331 C 1.00109 0.78926 0.54589 0.0
C1332 C 1.01024 0.82075 0.56974 0.0
C1333 C 0.01999 0.84022 0.5278 0.0
C1334 C 0.02859 0.8699 0.55073 0.0
C1335 C 0.02744 0.88053 0.61538 0.0
C1336 C 0.01764 0.86155 0.65717 0.0
C1337 C 1.00903 0.83183 0.63449 0.0
H1338 H 0.0341 0.90352 0.63303 0.0
H1339 H 0.9482 0.62052 0.40285 0.0
H1340 H 0.61451 0.79886 0.99231 0.0
H1341 H 0.58597 0.80177 0.97158 0.0
H1342 H 0.57795 0.70732 0.08068 0.0
H1343 H 0.60621 0.70459 0.10156 0.0
H1344 H 0.55736 0.70925 0.97538 0.0
H1345 H 0.57555 0.78474 0.15286 0.0
H1346 H 0.59243 0.83239 0.20181 0.0
H1347 H 0.5736 0.90449 0.06493 0.0
H1348 H 0.5568 0.85707 1.01436 0.0
H1349 H 0.47755 0.72263 0.07241 0.0
H1350 H 0.50581 0.71502 0.06163 0.0
H1351 H 0.51162 0.81962 0.98752 0.0
H1352 H 0.48363 0.82747 1.00175 0.0
H1353 H 0.53377 0.81309 0.06755 0.0
H1354 H 0.51447 0.73849 0.89219 0.0
H1355 H 0.49836 0.69049 0.84018 0.0
H1356 H 0.51937 0.61713 0.96857 0.0
H1357 H 0.53547 0.66476 1.02189 0.0
C1358 C 0.60667 0.77818 1.00994 0.0
C1359 C 0.61264 0.7513 0.04799 0.0
C1360 C 0.59032 0.78001 0.99872 0.0
C1361 C 0.57966 0.75491 1.02511 0.0
C1362 C 0.58578 0.72698 0.05959 0.0
C1363 C 0.602 0.72542 0.07142 0.0
C1364 C 0.56219 0.75892 1.02208 0.0
C1365 C 0.55219 0.73192 0.99569 0.0
C1366 C 0.5553 0.78859 0.04784 0.0
C1367 C 0.56504 0.8173 0.0794 0.0
C1368 C 0.57507 0.81072 0.13298 0.0
C1369 C 0.58462 0.83768 0.16101 0.0
C1370 C 0.58412 0.87144 0.13638 0.0
C1371 C 0.574 0.87832 0.08387 0.0
C1372 C 0.56446 0.85141 0.0555 0.0
C1373 C 0.48485 0.74356 0.05231 0.0
C1374 C 0.47833 0.77547 0.03709 0.0
C1375 C 0.50107 0.73931 0.04611 0.0
C1376 C 0.51114 0.76662 1.02303 0.0
C1377 C 0.50438 0.79805 1.00573 0.0
C1378 C 0.48829 0.80247 1.01318 0.0
C1379 C 0.52872 0.76347 1.02006 0.0
C1380 C 0.53881 0.79057 0.04609 0.0
C1381 C 0.53567 0.73393 0.99359 0.0
C1382 C 0.52607 0.70524 0.96138 0.0
C1383 C 0.51558 0.71215 0.90958 0.0
C1384 C 0.50646 0.68501 0.87984 0.0
C1385 C 0.50781 0.6508 0.90116 0.0
C1386 C 0.51832 0.64365 0.95215 0.0
C1387 C 0.52746 0.6707 0.9821 0.0
H1388 H 0.50074 0.62982 0.87809 0.0
H1389 H 0.59155 0.89227 0.15806 0.0
H1390 H 0.42294 0.27327 0.09568 0.0
H1391 H 0.4513 0.27024 0.12328 0.0
H1392 H 0.46057 0.25439 0.92071 0.0
H1393 H 0.433 0.25732 0.89333 0.0
H1394 H 0.47561 0.20874 0.99495 0.0
H1395 H 0.4677 0.3334 0.99579 0.0
H1396 H 0.45624 0.38651 0.03692 0.0
H1397 H 0.47612 0.36829 0.22718 0.0
H1398 H 0.48754 0.31478 0.18728 0.0
H1399 H 0.55175 0.24841 0.90779 0.0
H1400 H 0.52387 0.25418 0.9256 0.0
H1401 H 0.53338 0.26442 0.13192 0.0
H1402 H 0.56169 0.25878 0.11375 0.0
H1403 H 0.50894 0.30795 0.08498 0.0
H1404 H 0.52037 0.18781 0.07746 0.0
H1405 H 0.53208 0.13562 0.03373 0.0
H1406 H 0.50522 0.14496 0.85546 0.0
H1407 H 0.49354 0.19755 0.89768 0.0
C1408 C 0.43106 0.26905 0.05729 0.0
C1409 C 0.42553 0.26566 0.99221 0.0
C1410 C 0.44729 0.26747 0.07301 0.0
C1411 C 0.4582 0.26211 1.024 0.0
C1412 C 0.45255 0.25839 0.95962 0.0
C1413 C 0.4366 0.26025 0.94403 0.0
C1414 C 0.47554 0.25998 0.03731 0.0
C1415 C 0.48285 0.23047 1.01486 0.0
C1416 C 0.48512 0.28775 0.065 0.0
C1417 C 0.47829 0.31988 0.0888 0.0
C1418 C 0.46951 0.34056 0.04653 0.0
C1419 C 0.46304 0.37076 0.06958 0.0
C1420 C 0.4654 0.3807 0.13468 0.0
C1421 C 0.47427 0.36051 0.17681 0.0
C1422 C 0.48074 0.33025 0.15401 0.0
C1423 C 0.54797 0.25233 0.95697 0.0
C1424 C 0.55895 0.25273 1.00939 0.0
C1425 C 0.53198 0.25559 0.96716 0.0
C1426 C 0.52635 0.259 1.03026 0.0
C1427 C 0.53736 0.26163 0.08275 0.0
C1428 C 0.55355 0.25853 0.07239 0.0
C1429 C 0.50894 0.25731 0.03999 0.0
C1430 C 0.50166 0.28593 0.0666 0.0
C1431 C 0.49929 0.22869 1.01599 0.0
C1432 C 0.50613 0.19675 0.99069 0.0
C1433 C 0.51703 0.17886 1.02879 0.0
C1434 C 0.52366 0.14919 1.00427 0.0
C1435 C 0.51941 0.137 0.94183 0.0
C1436 C 0.5085 0.15443 0.90383 0.0
C1437 C 0.50185 0.18414 0.92807 0.0
H1438 H 0.52457 0.11404 0.92293 0.0
H1439 H 0.46039 0.4041 0.15243 0.0
loop_
_geom_bond_atom_site_label_1
_geom_bond_atom_site_label_2
_geom_bond_distance
_geom_bond_site_symmetry_2
_ccdc_geom_bond_type
Co0 N5 2.057 . S
Co0 O17 2.021 . S
Co0 O20 2.062 . S
Co0 O24 2.117 . S
Co0 O25 2.020 . S
C1 O21 1.259 . S
C1 O24 1.258 . S
Co2 N11 2.057 . S
Co2 O18 2.117 . S
Co2 O19 2.020 . S
Co2 O21 2.021 . S
Co2 O26 2.062 . S
C3 N5 1.316 . S
C3 N6 1.347 . S
C3 H8 0.931 . S
C4 N5 1.375 . S
C4 C7 1.350 . S
C4 H9 0.930 . S
N5 Co0 2.057 . S
N5 C3 1.316 . S
N5 C4 1.375 . S
N6 C3 1.347 . S
N6 C7 1.373 . S
C7 C4 1.350 . S
C7 N6 1.373 . S
C7 H28 0.931 . S
H8 C3 0.931 . S
H9 C4 0.930 . S
C10 O17 1.259 . S
C10 O18 1.258 . S
N11 Co2 2.057 . S
N11 C12 1.316 . S
N11 C13 1.375 . S
C12 N11 1.316 . S
C12 N14 1.347 . S
C12 H23 0.931 . S
C13 N11 1.375 . S
C13 C15 1.350 . S
C13 H22 0.930 . S
N14 C12 1.347 . S
N14 C15 1.373 . S
C15 C13 1.350 . S
C15 N14 1.373 . S
C15 H29 0.931 . S
C16 O19 1.256 . S
C16 O20 1.255 . S
O17 Co0 2.021 . S
O17 C10 1.259 . S
O18 Co2 2.117 . S
O18 C10 1.258 . S
O19 Co2 2.020 . S
O19 C16 1.256 . S
O20 Co0 2.062 . S
O20 C16 1.255 . S
O21 C1 1.259 . S
O21 Co2 2.021 . S
H22 C13 0.930 . S
H23 C12 0.931 . S
O24 Co0 2.117 . S
O24 C1 1.258 . S
O25 Co0 2.020 . S
O25 C27 1.256 . S
O26 Co2 2.062 . S
O26 C27 1.255 . S
C27 O25 1.256 . S
C27 O26 1.255 . S
H28 C7 0.931 . S
H29 C15 0.931 . S
Co30 N35 2.057 . S
Co30 O47 2.021 . S
Co30 O50 2.062 . S
Co30 O54 2.117 . S
Co30 O55 2.020 . S
C31 O51 1.259 . S
C31 O54 1.258 . S
Co32 N41 2.057 . S
Co32 O48 2.117 . S
Co32 O49 2.020 . S
Co32 O51 2.021 . S
Co32 O56 2.062 . S
C33 N35 1.316 . S
C33 N36 1.347 . S
C33 H38 0.931 . S
C34 N35 1.375 . S
C34 C37 1.350 . S
C34 H39 0.930 . S
N35 Co30 2.057 . S
N35 C33 1.316 . S
N35 C34 1.375 . S
N36 C33 1.347 . S
N36 C37 1.373 . S
C37 C34 1.350 . S
C37 N36 1.373 . S
C37 H58 0.931 . S
H38 C33 0.931 . S
H39 C34 0.930 . S
C40 O47 1.259 . S
C40 O48 1.258 . S
N41 Co32 2.057 . S
N41 C42 1.316 . S
N41 C43 1.375 . S
C42 N41 1.316 . S
C42 N44 1.347 . S
C42 H53 0.931 . S
C43 N41 1.375 . S
C43 C45 1.350 . S
C43 H52 0.930 . S
N44 C42 1.347 . S
N44 C45 1.373 . S
C45 C43 1.350 . S
C45 N44 1.373 . S
C45 H59 0.931 . S
C46 O49 1.256 . S
C46 O50 1.255 . S
O47 Co30 2.021 . S
O47 C40 1.259 . S
O48 Co32 2.117 . S
O48 C40 1.258 . S
O49 Co32 2.020 . S
O49 C46 1.256 . S
O50 Co30 2.062 . S
O50 C46 1.255 . S
O51 C31 1.259 . S
O51 Co32 2.021 . S
H52 C43 0.930 . S
H53 C42 0.931 . S
O54 Co30 2.117 . S
O54 C31 1.258 . S
O55 Co30 2.020 . S
O55 C57 1.256 . S
O56 Co32 2.062 . S
O56 C57 1.255 . S
C57 O55 1.256 . S
C57 O56 1.255 . S
H58 C37 0.931 . S
H59 C45 0.931 . S
Co60 N65 2.057 . S
Co60 O77 2.021 . S
Co60 O80 2.062 . S
Co60 O84 2.117 . S
Co60 O85 2.020 . S
C61 O81 1.259 . S
C61 O84 1.258 . S
Co62 N71 2.057 . S
Co62 O78 2.117 . S
Co62 O79 2.020 . S
Co62 O81 2.021 . S
Co62 O86 2.062 . S
C63 N65 1.316 . S
C63 N66 1.347 . S
C63 H68 0.931 . S
C64 N65 1.375 . S
C64 C67 1.350 . S
C64 H69 0.930 . S
N65 Co60 2.057 . S
N65 C63 1.316 . S
N65 C64 1.375 . S
N66 C63 1.347 . S
N66 C67 1.373 . S
C67 C64 1.350 . S
C67 N66 1.373 . S
C67 H88 0.931 . S
H68 C63 0.931 . S
H69 C64 0.930 . S
C70 O77 1.259 . S
C70 O78 1.258 . S
N71 Co62 2.057 . S
N71 C72 1.316 . S
N71 C73 1.375 . S
C72 N71 1.316 . S
C72 N74 1.347 . S
C72 H83 0.931 . S
C73 N71 1.375 . S
C73 C75 1.350 . S
C73 H82 0.930 . S
N74 C72 1.347 . S
N74 C75 1.373 . S
C75 C73 1.350 . S
C75 N74 1.373 . S
C75 H89 0.931 . S
C76 O79 1.256 . S
C76 O80 1.255 . S
O77 Co60 2.021 . S
O77 C70 1.259 . S
O78 Co62 2.117 . S
O78 C70 1.258 . S
O79 Co62 2.020 . S
O79 C76 1.256 . S
O80 Co60 2.062 . S
O80 C76 1.255 . S
O81 C61 1.259 . S
O81 Co62 2.021 . S
H82 C73 0.930 . S
H83 C72 0.931 . S
O84 Co60 2.117 . S
O84 C61 1.258 . S
O85 Co60 2.020 . S
O85 C87 1.256 . S
O86 Co62 2.062 . S
O86 C87 1.255 . S
C87 O85 1.256 . S
C87 O86 1.255 . S
H88 C67 0.931 . S
H89 C75 0.931 . S
Co90 N95 2.057 . S
Co90 O107 2.021 . S
Co90 O110 2.062 . S
Co90 O114 2.117 . S
Co90 O115 2.020 . S
C91 O111 1.259 . S
C91 O114 1.258 . S
Co92 N101 2.057 . S
Co92 O108 2.117 . S
Co92 O109 2.020 . S
Co92 O111 2.021 . S
Co92 O116 2.062 . S
C93 N95 1.316 . S
C93 N96 1.347 . S
C93 H98 0.931 . S
C94 N95 1.375 . S
C94 C97 1.350 . S
C94 H99 0.930 . S
N95 Co90 2.057 . S
N95 C93 1.316 . S
N95 C94 1.375 . S
N96 C93 1.347 . S
N96 C97 1.373 . S
C97 C94 1.350 . S
C97 N96 1.373 . S
C97 H118 0.931 . S
H98 C93 0.931 . S
H99 C94 0.930 . S
C100 O107 1.259 . S
C100 O108 1.258 . S
N101 Co92 2.057 . S
N101 C102 1.316 . S
N101 C103 1.375 . S
C102 N101 1.316 . S
C102 N104 1.347 . S
C102 H113 0.931 . S
C103 N101 1.375 . S
C103 C105 1.350 . S
C103 H112 0.930 . S
N104 C102 1.347 . S
N104 C105 1.373 . S
C105 C103 1.350 . S
C105 N104 1.373 . S
C105 H119 0.931 . S
C106 O109 1.256 . S
C106 O110 1.255 . S
O107 Co90 2.021 . S
O107 C100 1.259 . S
O108 Co92 2.117 . S
O108 C100 1.258 . S
O109 Co92 2.020 . S
O109 C106 1.256 . S
O110 Co90 2.062 . S
O110 C106 1.255 . S
O111 C91 1.259 . S
O111 Co92 2.021 . S
H112 C103 0.930 . S
H113 C102 0.931 . S
O114 Co90 2.117 . S
O114 C91 1.258 . S
O115 Co90 2.020 . S
O115 C117 1.256 . S
O116 Co92 2.062 . S
O116 C117 1.255 . S
C117 O115 1.256 . S
C117 O116 1.255 . S
H118 C97 0.931 . S
H119 C105 0.931 . S
Co120 N125 2.057 . S
Co120 O137 2.021 . S
Co120 O140 2.062 . S
Co120 O144 2.117 . S
Co120 O145 2.020 . S
C121 O141 1.259 . S
C121 O144 1.258 . S
Co122 N131 2.057 1_554 S
Co122 O138 2.117 . S
Co122 O139 2.020 . S
Co122 O141 2.021 . S
Co122 O146 2.062 . S
C123 N125 1.316 . S
C123 N126 1.347 . S
C123 H128 0.931 . S
C124 N125 1.375 . S
C124 C127 1.350 . S
C124 H129 0.930 . S
N125 Co120 2.057 . S
N125 C123 1.316 . S
N125 C124 1.375 . S
N126 C123 1.347 . S
N126 C127 1.373 . S
C127 C124 1.350 . S
C127 N126 1.373 . S
C127 H148 0.931 . S
H128 C123 0.931 . S
H129 C124 0.930 . S
C130 O137 1.259 . S
C130 O138 1.258 . S
N131 Co122 2.057 1_556 S
N131 C132 1.316 . S
N131 C133 1.375 . S
C132 N131 1.316 . S
C132 N134 1.347 . S
C132 H143 0.931 . S
C133 N131 1.375 . S
C133 C135 1.350 . S
C133 H142 0.930 . S
N134 C132 1.347 . S
N134 C135 1.373 . S
C135 C133 1.350 . S
C135 N134 1.373 . S
C135 H149 0.931 . S
C136 O139 1.256 . S
C136 O140 1.255 . S
O137 Co120 2.021 . S
O137 C130 1.259 . S
O138 Co122 2.117 . S
O138 C130 1.258 . S
O139 Co122 2.020 . S
O139 C136 1.256 . S
O140 Co120 2.062 . S
O140 C136 1.255 . S
O141 C121 1.259 . S
O141 Co122 2.021 . S
H142 C133 0.930 . S
H143 C132 0.931 . S
O144 Co120 2.117 . S
O144 C121 1.258 . S
O145 Co120 2.020 . S
O145 C147 1.256 . S
O146 Co122 2.062 . S
O146 C147 1.255 . S
C147 O145 1.256 . S
C147 O146 1.255 . S
H148 C127 0.931 . S
H149 C135 0.931 . S
Co150 N155 2.057 . S
Co150 O167 2.021 . S
Co150 O170 2.062 1_554 S
Co150 O174 2.117 . S
Co150 O175 2.020 . S
C151 O171 1.259 . S
C151 O174 1.258 . S
Co152 N161 2.057 . S
Co152 O168 2.117 . S
Co152 O169 2.020 1_554 S
Co152 O171 2.021 . S
Co152 O176 2.062 . S
C153 N155 1.316 . S
C153 N156 1.347 . S
C153 H158 0.931 . S
C154 N155 1.375 . S
C154 C157 1.350 . S
C154 H159 0.930 . S
N155 Co150 2.057 . S
N155 C153 1.316 . S
N155 C154 1.375 . S
N156 C153 1.347 . S
N156 C157 1.373 . S
C157 C154 1.350 . S
C157 N156 1.373 . S
C157 H178 0.931 . S
H158 C153 0.931 . S
H159 C154 0.930 . S
C160 O167 1.259 . S
C160 O168 1.258 . S
N161 Co152 2.057 . S
N161 C162 1.316 . S
N161 C163 1.375 . S
C162 N161 1.316 . S
C162 N164 1.347 . S
C162 H173 0.931 . S
C163 N161 1.375 . S
C163 C165 1.350 . S
C163 H172 0.930 . S
N164 C162 1.347 . S
N164 C165 1.373 . S
C165 C163 1.350 . S
C165 N164 1.373 . S
C165 H179 0.931 . S
C166 O169 1.256 . S
C166 O170 1.255 . S
O167 Co150 2.021 . S
O167 C160 1.259 . S
O168 Co152 2.117 . S
O168 C160 1.258 . S
O169 Co152 2.020 1_556 S
O169 C166 1.256 . S
O170 Co150 2.062 1_556 S
O170 C166 1.255 . S
O171 C151 1.259 . S
O171 Co152 2.021 . S
H172 C163 0.930 . S
H173 C162 0.931 . S
O174 Co150 2.117 . S
O174 C151 1.258 . S
O175 Co150 2.020 . S
O175 C177 1.256 . S
O176 Co152 2.062 . S
O176 C177 1.255 . S
C177 O175 1.256 . S
C177 O176 1.255 . S
H178 C157 0.931 . S
H179 C165 0.931 . S
Co180 N185 2.057 . S
Co180 O197 2.021 . S
Co180 O200 2.062 . S
Co180 O204 2.117 . S
Co180 O205 2.020 1_556 S
C181 O201 1.259 . S
C181 O204 1.258 . S
Co182 N191 2.057 . S
Co182 O198 2.117 . S
Co182 O199 2.020 . S
Co182 O201 2.021 . S
Co182 O206 2.062 1_556 S
C183 N185 1.316 . S
C183 N186 1.347 . S
C183 H188 0.931 . S
C184 N185 1.375 . S
C184 C187 1.350 . S
C184 H189 0.930 . S
N185 Co180 2.057 . S
N185 C183 1.316 . S
N185 C184 1.375 . S
N186 C183 1.347 . S
N186 C187 1.373 . S
C187 C184 1.350 . S
C187 N186 1.373 . S
C187 H208 0.931 . S
H188 C183 0.931 . S
H189 C184 0.930 . S
C190 O197 1.259 . S
C190 O198 1.258 . S
N191 Co182 2.057 . S
N191 C192 1.316 . S
N191 C193 1.375 . S
C192 N191 1.316 . S
C192 N194 1.347 . S
C192 H203 0.931 . S
C193 N191 1.375 . S
C193 C195 1.350 . S
C193 H202 0.930 . S
N194 C192 1.347 . S
N194 C195 1.373 . S
C195 C193 1.350 . S
C195 N194 1.373 . S
C195 H209 0.931 . S
C196 O199 1.256 . S
C196 O200 1.255 . S
O197 Co180 2.021 . S
O197 C190 1.259 . S
O198 Co182 2.117 . S
O198 C190 1.258 . S
O199 Co182 2.020 . S
O199 C196 1.256 . S
O200 Co180 2.062 . S
O200 C196 1.255 . S
O201 C181 1.259 . S
O201 Co182 2.021 . S
H202 C193 0.930 . S
H203 C192 0.931 . S
O204 Co180 2.117 . S
O204 C181 1.258 . S
O205 Co180 2.020 1_554 S
O205 C207 1.256 . S
O206 Co182 2.062 1_554 S
O206 C207 1.255 . S
C207 O205 1.256 . S
C207 O206 1.255 . S
H208 C187 0.931 . S
H209 C195 0.931 . S
Co210 N215 2.057 1_556 S
Co210 O227 2.021 . S
Co210 O230 2.062 . S
Co210 O234 2.117 . S
Co210 O235 2.020 . S
C211 O231 1.259 . S
C211 O234 1.258 . S
Co212 N221 2.057 . S
Co212 O228 2.117 . S
Co212 O229 2.020 . S
Co212 O231 2.021 . S
Co212 O236 2.062 . S
C213 N215 1.316 . S
C213 N216 1.347 . S
C213 H218 0.931 . S
C214 N215 1.375 . S
C214 C217 1.350 . S
C214 H219 0.930 . S
N215 Co210 2.057 1_554 S
N215 C213 1.316 . S
N215 C214 1.375 . S
N216 C213 1.347 . S
N216 C217 1.373 . S
C217 C214 1.350 . S
C217 N216 1.373 . S
C217 H238 0.931 . S
H218 C213 0.931 . S
H219 C214 0.930 . S
C220 O227 1.259 . S
C220 O228 1.258 . S
N221 Co212 2.057 . S
N221 C222 1.316 . S
N221 C223 1.375 . S
C222 N221 1.316 . S
C222 N224 1.347 . S
C222 H233 0.931 . S
C223 N221 1.375 . S
C223 C225 1.350 . S
C223 H232 0.930 . S
N224 C222 1.347 . S
N224 C225 1.373 . S
C225 C223 1.350 . S
C225 N224 1.373 . S
C225 H239 0.931 . S
C226 O229 1.256 . S
C226 O230 1.255 . S
O227 Co210 2.021 . S
O227 C220 1.259 . S
O228 Co212 2.117 . S
O228 C220 1.258 . S
O229 Co212 2.020 . S
O229 C226 1.256 . S
O230 Co210 2.062 . S
O230 C226 1.255 . S
O231 C211 1.259 . S
O231 Co212 2.021 . S
H232 C223 0.930 . S
H233 C222 0.931 . S
O234 Co210 2.117 . S
O234 C211 1.258 . S
O235 Co210 2.020 . S
O235 C237 1.256 . S
O236 Co212 2.062 . S
O236 C237 1.255 . S
C237 O235 1.256 . S
C237 O236 1.255 . S
H238 C217 0.931 . S
H239 C225 0.931 . S
H240 C258 0.951 . S
H241 C260 0.951 . S
H242 C262 0.950 . S
H243 C263 0.950 . S
H244 C265 0.950 . S
H245 C268 0.950 . S
H246 C269 0.950 . S
H247 C271 0.950 . S
H248 C272 0.950 . S
H249 C273 0.951 . S
H250 C275 0.951 . S
H251 C277 0.950 . S
H252 C278 0.950 . S
H253 C280 0.950 . S
H254 C283 0.950 . S
H255 C284 0.950 . S
H256 C286 0.950 . S
H257 C287 0.950 . S
C258 H240 0.951 . S
C258 C259 1.366 . S
C258 C260 1.388 . S
C259 C258 1.366 . S
C259 C263 1.385 . S
C260 H241 0.951 . S
C260 C258 1.388 . S
C260 C261 1.366 . S
C261 C260 1.366 . S
C261 C262 1.414 . S
C261 C264 1.499 . S
C262 H242 0.950 . S
C262 C261 1.414 . S
C262 C263 1.374 . S
C263 H243 0.950 . S
C263 C259 1.385 . S
C263 C262 1.374 . S
C264 C261 1.499 . S
C264 C265 1.373 . S
C264 C266 1.389 . S
C265 H244 0.950 . S
C265 C264 1.373 . S
C265 C281 1.377 . S
C266 C264 1.389 . S
C266 C267 1.524 . S
C266 C280 1.377 . S
C267 C266 1.524 . S
C267 C268 1.397 . S
C267 C272 1.363 . S
C268 H245 0.950 . S
C268 C267 1.397 . S
C268 C269 1.334 . S
C269 H246 0.950 . S
C269 C268 1.334 . S
C269 C270 1.287 . S
C270 C269 1.287 . S
C270 C271 1.524 . S
C270 H289 0.913 . S
C271 H247 0.950 . S
C271 C270 1.524 . S
C271 C272 1.415 . S
C272 H248 0.950 . S
C272 C267 1.363 . S
C272 C271 1.415 . S
C273 H249 0.951 . S
C273 C274 1.366 . S
C273 C275 1.388 . S
C274 C273 1.366 . S
C274 C278 1.385 . S
C275 H250 0.951 . S
C275 C273 1.388 . S
C275 C276 1.366 . S
C276 C275 1.366 . S
C276 C277 1.414 . S
C276 C279 1.499 . S
C277 H251 0.950 . S
C277 C276 1.414 . S
C277 C278 1.374 . S
C278 H252 0.950 . S
C278 C274 1.385 . S
C278 C277 1.374 . S
C279 C276 1.499 . S
C279 C280 1.373 . S
C279 C281 1.389 . S
C280 H253 0.950 . S
C280 C266 1.377 . S
C280 C279 1.373 . S
C281 C265 1.377 . S
C281 C279 1.389 . S
C281 C282 1.524 . S
C282 C281 1.524 . S
C282 C283 1.397 . S
C282 C287 1.363 . S
C283 H254 0.950 . S
C283 C282 1.397 . S
C283 C284 1.334 . S
C284 H255 0.950 . S
C284 C283 1.334 . S
C284 C285 1.287 . S
C285 C284 1.287 . S
C285 C286 1.524 . S
C285 H288 0.999 . S
C286 H256 0.950 . S
C286 C285 1.524 . S
C286 C287 1.415 . S
C287 H257 0.950 . S
C287 C282 1.363 . S
C287 C286 1.415 . S
H288 C285 0.999 . S
H289 C270 0.913 . S
H290 C308 0.951 . S
H291 C310 0.951 . S
H292 C312 0.950 . S
H293 C313 0.950 . S
H294 C315 0.950 . S
H295 C318 0.950 . S
H296 C319 0.950 . S
H297 C321 0.950 . S
H298 C322 0.950 . S
H299 C323 0.951 . S
H300 C325 0.951 . S
H301 C327 0.950 . S
H302 C328 0.950 . S
H303 C330 0.950 . S
H304 C333 0.950 . S
H305 C334 0.950 . S
H306 C336 0.950 . S
H307 C337 0.950 . S
C308 H290 0.951 . S
C308 C309 1.366 . S
C308 C310 1.388 . S
C309 C308 1.366 . S
C309 C313 1.385 . S
C310 H291 0.951 . S
C310 C308 1.388 . S
C310 C311 1.366 . S
C311 C310 1.366 . S
C311 C312 1.414 . S
C311 C314 1.499 . S
C312 H292 0.950 . S
C312 C311 1.414 . S
C312 C313 1.374 . S
C313 H293 0.950 . S
C313 C309 1.385 . S
C313 C312 1.374 . S
C314 C311 1.499 . S
C314 C315 1.373 . S
C314 C316 1.389 . S
C315 H294 0.950 . S
C315 C314 1.373 . S
C315 C331 1.377 . S
C316 C314 1.389 . S
C316 C317 1.524 . S
C316 C330 1.377 . S
C317 C316 1.524 . S
C317 C318 1.397 . S
C317 C322 1.363 . S
C318 H295 0.950 . S
C318 C317 1.397 . S
C318 C319 1.334 . S
C319 H296 0.950 . S
C319 C318 1.334 . S
C319 C320 1.287 . S
C320 C319 1.287 . S
C320 C321 1.524 . S
C320 H339 0.913 . S
C321 H297 0.950 . S
C321 C320 1.524 . S
C321 C322 1.415 . S
C322 H298 0.950 . S
C322 C317 1.363 . S
C322 C321 1.415 . S
C323 H299 0.951 . S
C323 C324 1.366 . S
C323 C325 1.388 . S
C324 C323 1.366 . S
C324 C328 1.385 . S
C325 H300 0.951 . S
C325 C323 1.388 . S
C325 C326 1.366 . S
C326 C325 1.366 . S
C326 C327 1.414 . S
C326 C329 1.499 . S
C327 H301 0.950 . S
C327 C326 1.414 . S
C327 C328 1.374 . S
C328 H302 0.950 . S
C328 C324 1.385 . S
C328 C327 1.374 . S
C329 C326 1.499 . S
C329 C330 1.373 . S
C329 C331 1.389 . S
C330 H303 0.950 . S
C330 C316 1.377 . S
C330 C329 1.373 . S
C331 C315 1.377 . S
C331 C329 1.389 . S
C331 C332 1.524 . S
C332 C331 1.524 . S
C332 C333 1.397 . S
C332 C337 1.363 . S
C333 H304 0.950 . S
C333 C332 1.397 . S
C333 C334 1.334 . S
C334 H305 0.950 . S
C334 C333 1.334 . S
C334 C335 1.287 . S
C335 C334 1.287 . S
C335 C336 1.524 . S
C335 H338 0.999 . S
C336 H306 0.950 . S
C336 C335 1.524 . S
C336 C337 1.415 . S
C337 H307 0.950 . S
C337 C332 1.363 . S
C337 C336 1.415 . S
H338 C335 0.999 . S
H339 C320 0.913 . S
H340 C358 0.951 . S
H341 C360 0.951 . S
H342 C362 0.950 . S
H343 C363 0.950 . S
H344 C365 0.950 . S
H345 C368 0.950 . S
H346 C369 0.950 . S
H347 C371 0.950 1_556 S
H348 C372 0.950 . S
H349 C373 0.951 . S
H350 C375 0.951 . S
H351 C377 0.950 . S
H352 C378 0.950 . S
H353 C380 0.950 . S
H354 C383 0.950 . S
H355 C384 0.950 . S
H356 C386 0.950 . S
H357 C387 0.950 . S
C358 H340 0.951 . S
C358 C359 1.366 . S
C358 C360 1.388 . S
C359 C358 1.366 . S
C359 C363 1.385 . S
C360 H341 0.951 . S
C360 C358 1.388 . S
C360 C361 1.366 . S
C361 C360 1.366 . S
C361 C362 1.414 . S
C361 C364 1.499 . S
C362 H342 0.950 . S
C362 C361 1.414 . S
C362 C363 1.374 . S
C363 H343 0.950 . S
C363 C359 1.385 . S
C363 C362 1.374 . S
C364 C361 1.499 . S
C364 C365 1.373 . S
C364 C366 1.389 . S
C365 H344 0.950 . S
C365 C364 1.373 . S
C365 C381 1.377 . S
C366 C364 1.389 . S
C366 C367 1.524 . S
C366 C380 1.377 . S
C367 C366 1.524 . S
C367 C368 1.397 . S
C367 C372 1.363 . S
C368 H345 0.950 . S
C368 C367 1.397 . S
C368 C369 1.334 . S
C369 H346 0.950 . S
C369 C368 1.334 . S
C369 C370 1.287 . S
C370 C369 1.287 . S
C370 C371 1.524 . S
C370 H389 0.913 1_554 S
C371 H347 0.950 1_554 S
C371 C370 1.524 . S
C371 C372 1.415 . S
C372 H348 0.950 . S
C372 C367 1.363 . S
C372 C371 1.415 . S
C373 H349 0.951 . S
C373 C374 1.366 . S
C373 C375 1.388 . S
C374 C373 1.366 . S
C374 C378 1.385 . S
C375 H350 0.951 . S
C375 C373 1.388 . S
C375 C376 1.366 . S
C376 C375 1.366 . S
C376 C377 1.414 . S
C376 C379 1.499 . S
C377 H351 0.950 . S
C377 C376 1.414 . S
C377 C378 1.374 . S
C378 H352 0.950 . S
C378 C374 1.385 . S
C378 C377 1.374 . S
C379 C376 1.499 . S
C379 C380 1.373 . S
C379 C381 1.389 . S
C380 H353 0.950 . S
C380 C366 1.377 . S
C380 C379 1.373 . S
C381 C365 1.377 . S
C381 C379 1.389 . S
C381 C382 1.524 . S
C382 C381 1.524 . S
C382 C383 1.397 . S
C382 C387 1.363 . S
C383 H354 0.950 . S
C383 C382 1.397 . S
C383 C384 1.334 . S
C384 H355 0.950 . S
C384 C383 1.334 . S
C384 C385 1.287 . S
C385 C384 1.287 . S
C385 C386 1.524 . S
C385 H388 0.999 . S
C386 H356 0.950 . S
C386 C385 1.524 . S
C386 C387 1.415 . S
C387 H357 0.950 . S
C387 C382 1.363 . S
C387 C386 1.415 . S
H388 C385 0.999 . S
H389 C370 0.913 1_556 S
H390 C408 0.951 . S
H391 C410 0.951 . S
H392 C412 0.950 . S
H393 C413 0.950 . S
H394 C415 0.950 . S
H395 C418 0.950 . S
H396 C419 0.950 . S
H397 C421 0.950 . S
H398 C422 0.950 . S
H399 C423 0.951 . S
H400 C425 0.951 . S
H401 C427 0.950 . S
H402 C428 0.950 . S
H403 C430 0.950 . S
H404 C433 0.950 . S
H405 C434 0.950 . S
H406 C436 0.950 . S
H407 C437 0.950 . S
C408 H390 0.951 . S
C408 C409 1.366 . S
C408 C410 1.388 . S
C409 C408 1.366 . S
C409 C413 1.385 . S
C410 H391 0.951 . S
C410 C408 1.388 . S
C410 C411 1.366 . S
C411 C410 1.366 . S
C411 C412 1.414 . S
C411 C414 1.499 . S
C412 H392 0.950 . S
C412 C411 1.414 . S
C412 C413 1.374 . S
C413 H393 0.950 . S
C413 C409 1.385 . S
C413 C412 1.374 . S
C414 C411 1.499 . S
C414 C415 1.373 . S
C414 C416 1.389 . S
C415 H394 0.950 . S
C415 C414 1.373 . S
C415 C431 1.377 . S
C416 C414 1.389 . S
C416 C417 1.524 . S
C416 C430 1.377 . S
C417 C416 1.524 . S
C417 C418 1.397 . S
C417 C422 1.363 . S
C418 H395 0.950 . S
C418 C417 1.397 . S
C418 C419 1.334 . S
C419 H396 0.950 . S
C419 C418 1.334 . S
C419 C420 1.287 . S
C420 C419 1.287 . S
C420 C421 1.524 . S
C420 H439 0.913 . S
C421 H397 0.950 . S
C421 C420 1.524 . S
C421 C422 1.415 . S
C422 H398 0.950 . S
C422 C417 1.363 . S
C422 C421 1.415 . S
C423 H399 0.951 . S
C423 C424 1.366 . S
C423 C425 1.388 . S
C424 C423 1.366 . S
C424 C428 1.385 . S
C425 H400 0.951 . S
C425 C423 1.388 . S
C425 C426 1.366 . S
C426 C425 1.366 . S
C426 C427 1.414 . S
C426 C429 1.499 . S
C427 H401 0.950 . S
C427 C426 1.414 . S
C427 C428 1.374 . S
C428 H402 0.950 . S
C428 C424 1.385 . S
C428 C427 1.374 . S
C429 C426 1.499 . S
C429 C430 1.373 . S
C429 C431 1.389 . S
C430 H403 0.950 . S
C430 C416 1.377 . S
C430 C429 1.373 . S
C431 C415 1.377 . S
C431 C429 1.389 . S
C431 C432 1.524 . S
C432 C431 1.524 . S
C432 C433 1.397 . S
C432 C437 1.363 . S
C433 H404 0.950 . S
C433 C432 1.397 . S
C433 C434 1.334 . S
C434 H405 0.950 . S
C434 C433 1.334 . S
C434 C435 1.287 . S
C435 C434 1.287 . S
C435 C436 1.524 . S
C435 H438 0.999 . S
C436 H406 0.950 . S
C436 C435 1.524 . S
C436 C437 1.415 . S
C437 H407 0.950 . S
C437 C432 1.363 . S
C437 C436 1.415 . S
H438 C435 0.999 . S
H439 C420 0.913 . S
H440 C458 0.951 . S
H441 C460 0.951 . S
H442 C462 0.950 . S
H443 C463 0.950 . S
H444 C465 0.950 . S
H445 C468 0.950 . S
H446 C469 0.950 . S
H447 C471 0.950 . S
H448 C472 0.950 . S
H449 C473 0.951 . S
H450 C475 0.951 . S
H451 C477 0.950 . S
H452 C478 0.950 . S
H453 C480 0.950 . S
H454 C483 0.950 . S
H455 C484 0.950 . S
H456 C486 0.950 . S
H457 C487 0.950 . S
C458 H440 0.951 . S
C458 C459 1.366 . S
C458 C460 1.388 . S
C459 C458 1.366 . S
C459 C463 1.385 . S
C460 H441 0.951 . S
C460 C458 1.388 . S
C460 C461 1.366 . S
C461 C460 1.366 . S
C461 C462 1.414 . S
C461 C464 1.499 . S
C462 H442 0.950 . S
C462 C461 1.414 . S
C462 C463 1.374 . S
C463 H443 0.950 . S
C463 C459 1.385 . S
C463 C462 1.374 . S
C464 C461 1.499 . S
C464 C465 1.373 . S
C464 C466 1.389 . S
C465 H444 0.950 . S
C465 C464 1.373 . S
C465 C481 1.377 1_565 S
C466 C464 1.389 . S
C466 C467 1.524 . S
C466 C480 1.377 1_565 S
C467 C466 1.524 . S
C467 C468 1.397 . S
C467 C472 1.363 . S
C468 H445 0.950 . S
C468 C467 1.397 . S
C468 C469 1.334 . S
C469 H446 0.950 . S
C469 C468 1.334 . S
C469 C470 1.287 . S
C470 C469 1.287 . S
C470 C471 1.524 . S
C470 H489 0.913 . S
C471 H447 0.950 . S
C471 C470 1.524 . S
C471 C472 1.415 . S
C472 H448 0.950 . S
C472 C467 1.363 . S
C472 C471 1.415 . S
C473 H449 0.951 . S
C473 C474 1.366 . S
C473 C475 1.388 . S
C474 C473 1.366 . S
C474 C478 1.385 . S
C475 H450 0.951 . S
C475 C473 1.388 . S
C475 C476 1.366 . S
C476 C475 1.366 . S
C476 C477 1.414 . S
C476 C479 1.499 . S
C477 H451 0.950 . S
C477 C476 1.414 . S
C477 C478 1.374 . S
C478 H452 0.950 . S
C478 C474 1.385 . S
C478 C477 1.374 . S
C479 C476 1.499 . S
C479 C480 1.373 . S
C479 C481 1.389 . S
C480 H453 0.950 . S
C480 C466 1.377 1_545 S
C480 C479 1.373 . S
C481 C465 1.377 1_545 S
C481 C479 1.389 . S
C481 C482 1.524 . S
C482 C481 1.524 . S
C482 C483 1.397 . S
C482 C487 1.363 . S
C483 H454 0.950 . S
C483 C482 1.397 . S
C483 C484 1.334 . S
C484 H455 0.950 . S
C484 C483 1.334 . S
C484 C485 1.287 . S
C485 C484 1.287 . S
C485 C486 1.524 . S
C485 H488 0.999 . S
C486 H456 0.950 . S
C486 C485 1.524 . S
C486 C487 1.415 . S
C487 H457 0.950 . S
C487 C482 1.363 . S
C487 C486 1.415 . S
H488 C485 0.999 . S
H489 C470 0.913 . S
H490 C508 0.951 . S
H491 C510 0.951 . S
H492 C512 0.950 . S
H493 C513 0.950 . S
H494 C515 0.950 . S
H495 C518 0.950 . S
H496 C519 0.950 . S
H497 C521 0.950 . S
H498 C522 0.950 . S
H499 C523 0.951 . S
H500 C525 0.951 . S
H501 C527 0.950 . S
H502 C528 0.950 . S
H503 C530 0.950 . S
H504 C533 0.950 . S
H505 C534 0.950 . S
H506 C536 0.950 . S
H507 C537 0.950 . S
C508 H490 0.951 . S
C508 C509 1.366 . S
C508 C510 1.388 . S
C509 C508 1.366 . S
C509 C513 1.385 . S
C510 H491 0.951 . S
C510 C508 1.388 . S
C510 C511 1.366 . S
C511 C510 1.366 . S
C511 C512 1.414 . S
C511 C514 1.499 . S
C512 H492 0.950 . S
C512 C511 1.414 . S
C512 C513 1.374 . S
C513 H493 0.950 . S
C513 C509 1.385 . S
C513 C512 1.374 . S
C514 C511 1.499 . S
C514 C515 1.373 . S
C514 C516 1.389 . S
C515 H494 0.950 . S
C515 C514 1.373 . S
C515 C531 1.377 . S
C516 C514 1.389 . S
C516 C517 1.524 . S
C516 C530 1.377 . S
C517 C516 1.524 . S
C517 C518 1.397 . S
C517 C522 1.363 . S
C518 H495 0.950 . S
C518 C517 1.397 . S
C518 C519 1.334 . S
C519 H496 0.950 . S
C519 C518 1.334 . S
C519 C520 1.287 . S
C520 C519 1.287 . S
C520 C521 1.524 . S
C520 H539 0.913 . S
C521 H497 0.950 . S
C521 C520 1.524 . S
C521 C522 1.415 . S
C522 H498 0.950 . S
C522 C517 1.363 . S
C522 C521 1.415 . S
C523 H499 0.951 . S
C523 C524 1.366 . S
C523 C525 1.388 . S
C524 C523 1.366 . S
C524 C528 1.385 . S
C525 H500 0.951 . S
C525 C523 1.388 . S
C525 C526 1.366 . S
C526 C525 1.366 . S
C526 C527 1.414 . S
C526 C529 1.499 . S
C527 H501 0.950 . S
C527 C526 1.414 . S
C527 C528 1.374 . S
C528 H502 0.950 . S
C528 C524 1.385 . S
C528 C527 1.374 . S
C529 C526 1.499 . S
C529 C530 1.373 . S
C529 C531 1.389 . S
C530 H503 0.950 . S
C530 C516 1.377 . S
C530 C529 1.373 . S
C531 C515 1.377 . S
C531 C529 1.389 . S
C531 C532 1.524 . S
C532 C531 1.524 . S
C532 C533 1.397 . S
C532 C537 1.363 . S
C533 H504 0.950 . S
C533 C532 1.397 . S
C533 C534 1.334 . S
C534 H505 0.950 . S
C534 C533 1.334 . S
C534 C535 1.287 . S
C535 C534 1.287 . S
C535 C536 1.524 . S
C535 H538 0.999 . S
C536 H506 0.950 . S
C536 C535 1.524 . S
C536 C537 1.415 . S
C537 H507 0.950 . S
C537 C532 1.363 . S
C537 C536 1.415 . S
H538 C535 0.999 . S
H539 C520 0.913 . S
H540 C558 0.951 . S
H541 C560 0.951 . S
H542 C562 0.950 . S
H543 C563 0.950 . S
H544 C565 0.950 . S
H545 C568 0.950 . S
H546 C569 0.950 . S
H547 C571 0.950 . S
H548 C572 0.950 . S
H549 C573 0.951 . S
H550 C575 0.951 . S
H551 C577 0.950 . S
H552 C578 0.950 . S
H553 C580 0.950 . S
H554 C583 0.950 . S
H555 C584 0.950 . S
H556 C586 0.950 . S
H557 C587 0.950 . S
C558 H540 0.951 . S
C558 C559 1.366 . S
C558 C560 1.388 . S
C559 C558 1.366 . S
C559 C563 1.385 . S
C560 H541 0.951 . S
C560 C558 1.388 . S
C560 C561 1.366 . S
C561 C560 1.366 . S
C561 C562 1.414 . S
C561 C564 1.499 . S
C562 H542 0.950 . S
C562 C561 1.414 . S
C562 C563 1.374 . S
C563 H543 0.950 . S
C563 C559 1.385 . S
C563 C562 1.374 . S
C564 C561 1.499 . S
C564 C565 1.373 . S
C564 C566 1.389 . S
C565 H544 0.950 . S
C565 C564 1.373 . S
C565 C581 1.377 1_565 S
C566 C564 1.389 . S
C566 C567 1.524 . S
C566 C580 1.377 1_565 S
C567 C566 1.524 . S
C567 C568 1.397 . S
C567 C572 1.363 . S
C568 H545 0.950 . S
C568 C567 1.397 . S
C568 C569 1.334 . S
C569 H546 0.950 . S
C569 C568 1.334 . S
C569 C570 1.287 . S
C570 C569 1.287 . S
C570 C571 1.524 . S
C570 H589 0.913 . S
C571 H547 0.950 . S
C571 C570 1.524 . S
C571 C572 1.415 . S
C572 H548 0.950 . S
C572 C567 1.363 . S
C572 C571 1.415 . S
C573 H549 0.951 . S
C573 C574 1.366 . S
C573 C575 1.388 . S
C574 C573 1.366 . S
C574 C578 1.385 . S
C575 H550 0.951 . S
C575 C573 1.388 . S
C575 C576 1.366 . S
C576 C575 1.366 . S
C576 C577 1.414 . S
C576 C579 1.499 . S
C577 H551 0.950 . S
C577 C576 1.414 . S
C577 C578 1.374 . S
C578 H552 0.950 . S
C578 C574 1.385 . S
C578 C577 1.374 . S
C579 C576 1.499 . S
C579 C580 1.373 . S
C579 C581 1.389 . S
C580 H553 0.950 . S
C580 C566 1.377 1_545 S
C580 C579 1.373 . S
C581 C565 1.377 1_545 S
C581 C579 1.389 . S
C581 C582 1.524 . S
C582 C581 1.524 . S
C582 C583 1.397 . S
C582 C587 1.363 . S
C583 H554 0.950 . S
C583 C582 1.397 . S
C583 C584 1.334 . S
C584 H555 0.950 . S
C584 C583 1.334 . S
C584 C585 1.287 . S
C585 C584 1.287 . S
C585 C586 1.524 . S
C585 H588 0.999 . S
C586 H556 0.950 . S
C586 C585 1.524 . S
C586 C587 1.415 . S
C587 H557 0.950 . S
C587 C582 1.363 . S
C587 C586 1.415 . S
H588 C585 0.999 . S
H589 C570 0.913 . S
H590 C608 0.951 . S
H591 C610 0.951 . S
H592 C612 0.950 . S
H593 C613 0.950 . S
H594 C615 0.950 . S
H595 C618 0.950 . S
H596 C619 0.950 . S
H597 C621 0.950 . S
H598 C622 0.950 . S
H599 C623 0.951 . S
H600 C625 0.951 . S
H601 C627 0.950 . S
H602 C628 0.950 . S
H603 C630 0.950 . S
H604 C633 0.950 . S
H605 C634 0.950 . S
H606 C636 0.950 . S
H607 C637 0.950 . S
C608 H590 0.951 . S
C608 C609 1.366 . S
C608 C610 1.388 . S
C609 C608 1.366 . S
C609 C613 1.385 . S
C610 H591 0.951 . S
C610 C608 1.388 . S
C610 C611 1.366 . S
C611 C610 1.366 . S
C611 C612 1.414 . S
C611 C614 1.499 . S
C612 H592 0.950 . S
C612 C611 1.414 . S
C612 C613 1.374 . S
C613 H593 0.950 . S
C613 C609 1.385 . S
C613 C612 1.374 . S
C614 C611 1.499 . S
C614 C615 1.373 . S
C614 C616 1.389 . S
C615 H594 0.950 . S
C615 C614 1.373 . S
C615 C631 1.377 . S
C616 C614 1.389 . S
C616 C617 1.524 . S
C616 C630 1.377 . S
C617 C616 1.524 . S
C617 C618 1.397 . S
C617 C622 1.363 . S
C618 H595 0.950 . S
C618 C617 1.397 . S
C618 C619 1.334 . S
C619 H596 0.950 . S
C619 C618 1.334 . S
C619 C620 1.287 . S
C620 C619 1.287 . S
C620 C621 1.524 . S
C620 H639 0.913 . S
C621 H597 0.950 . S
C621 C620 1.524 . S
C621 C622 1.415 . S
C622 H598 0.950 . S
C622 C617 1.363 . S
C622 C621 1.415 . S
C623 H599 0.951 . S
C623 C624 1.366 . S
C623 C625 1.388 . S
C624 C623 1.366 . S
C624 C628 1.385 . S
C625 H600 0.951 . S
C625 C623 1.388 . S
C625 C626 1.366 . S
C626 C625 1.366 . S
C626 C627 1.414 . S
C626 C629 1.499 . S
C627 H601 0.950 . S
C627 C626 1.414 . S
C627 C628 1.374 . S
C628 H602 0.950 . S
C628 C624 1.385 . S
C628 C627 1.374 . S
C629 C626 1.499 . S
C629 C630 1.373 . S
C629 C631 1.389 . S
C630 H603 0.950 . S
C630 C616 1.377 . S
C630 C629 1.373 . S
C631 C615 1.377 . S
C631 C629 1.389 . S
C631 C632 1.524 . S
C632 C631 1.524 . S
C632 C633 1.397 . S
C632 C637 1.363 . S
C633 H604 0.950 . S
C633 C632 1.397 . S
C633 C634 1.334 . S
C634 H605 0.950 . S
C634 C633 1.334 . S
C634 C635 1.287 . S
C635 C634 1.287 . S
C635 C636 1.524 . S
C635 H638 0.999 . S
C636 H606 0.950 . S
C636 C635 1.524 . S
C636 C637 1.415 . S
C637 H607 0.950 . S
C637 C632 1.363 . S
C637 C636 1.415 . S
H638 C635 0.999 . S
H639 C620 0.913 . S
H640 C658 0.951 . S
H641 C660 0.951 . S
H642 C662 0.950 . S
H643 C663 0.950 . S
H644 C665 0.950 . S
H645 C668 0.950 . S
H646 C669 0.950 . S
H647 C671 0.950 . S
H648 C672 0.950 . S
H649 C673 0.951 . S
H650 C675 0.951 1_554 S
H651 C677 0.950 . S
H652 C678 0.950 . S
H653 C680 0.950 . S
H654 C683 0.950 . S
H655 C684 0.950 . S
H656 C686 0.950 . S
H657 C687 0.950 . S
C658 H640 0.951 . S
C658 C659 1.366 . S
C658 C660 1.388 . S
C659 C658 1.366 . S
C659 C663 1.385 . S
C660 H641 0.951 . S
C660 C658 1.388 . S
C660 C661 1.366 . S
C661 C660 1.366 . S
C661 C662 1.414 . S
C661 C664 1.499 . S
C662 H642 0.950 . S
C662 C661 1.414 . S
C662 C663 1.374 . S
C663 H643 0.950 . S
C663 C659 1.385 . S
C663 C662 1.374 . S
C664 C661 1.499 . S
C664 C665 1.373 1_554 S
C664 C666 1.389 . S
C665 H644 0.950 . S
C665 C664 1.373 1_556 S
C665 C681 1.377 . S
C666 C664 1.389 . S
C666 C667 1.524 . S
C666 C680 1.377 . S
C667 C666 1.524 . S
C667 C668 1.397 . S
C667 C672 1.363 . S
C668 H645 0.950 . S
C668 C667 1.397 . S
C668 C669 1.334 . S
C669 H646 0.950 . S
C669 C668 1.334 . S
C669 C670 1.287 . S
C670 C669 1.287 . S
C670 C671 1.524 . S
C670 H689 0.913 . S
C671 H647 0.950 . S
C671 C670 1.524 . S
C671 C672 1.415 . S
C672 H648 0.950 . S
C672 C667 1.363 . S
C672 C671 1.415 . S
C673 H649 0.951 . S
C673 C674 1.366 . S
C673 C675 1.388 . S
C674 C673 1.366 . S
C674 C678 1.385 . S
C675 H650 0.951 1_556 S
C675 C673 1.388 . S
C675 C676 1.366 . S
C676 C675 1.366 . S
C676 C677 1.414 . S
C676 C679 1.499 . S
C677 H651 0.950 . S
C677 C676 1.414 . S
C677 C678 1.374 . S
C678 H652 0.950 . S
C678 C674 1.385 . S
C678 C677 1.374 . S
C679 C676 1.499 . S
C679 C680 1.374 1_556 S
C679 C681 1.389 . S
C680 H653 0.950 . S
C680 C666 1.377 . S
C680 C679 1.374 1_554 S
C681 C665 1.377 . S
C681 C679 1.389 . S
C681 C682 1.524 . S
C682 C681 1.524 . S
C682 C683 1.397 . S
C682 C687 1.363 . S
C683 H654 0.950 . S
C683 C682 1.397 . S
C683 C684 1.334 . S
C684 H655 0.950 . S
C684 C683 1.334 . S
C684 C685 1.287 . S
C685 C684 1.287 . S
C685 C686 1.524 . S
C685 H688 0.999 . S
C686 H656 0.950 . S
C686 C685 1.524 . S
C686 C687 1.415 . S
C687 H657 0.950 . S
C687 C682 1.363 . S
C687 C686 1.415 . S
H688 C685 0.999 . S
H689 C670 0.913 . S
H690 C708 0.951 . S
H691 C710 0.951 . S
H692 C712 0.950 . S
H693 C713 0.950 . S
H694 C715 0.950 . S
H695 C718 0.950 . S
H696 C719 0.950 . S
H697 C721 0.950 . S
H698 C722 0.950 1_545 S
H699 C723 0.951 . S
H700 C725 0.951 . S
H701 C727 0.950 . S
H702 C728 0.950 . S
H703 C730 0.950 . S
H704 C733 0.950 . S
H705 C734 0.950 . S
H706 C736 0.950 . S
H707 C737 0.950 1_565 S
C708 H690 0.951 . S
C708 C709 1.366 . S
C708 C710 1.388 . S
C709 C708 1.366 . S
C709 C713 1.385 1_554 S
C710 H691 0.951 . S
C710 C708 1.388 . S
C710 C711 1.366 . S
C711 C710 1.366 . S
C711 C712 1.414 1_554 S
C711 C714 1.499 . S
C712 H692 0.950 . S
C712 C711 1.414 1_556 S
C712 C713 1.374 . S
C713 H693 0.950 . S
C713 C709 1.385 1_556 S
C713 C712 1.374 . S
C714 C711 1.499 . S
C714 C715 1.373 1_554 S
C714 C716 1.389 . S
C715 H694 0.950 . S
C715 C714 1.373 1_556 S
C715 C731 1.377 1_565 S
C716 C714 1.389 . S
C716 C717 1.524 . S
C716 C730 1.377 1_565 S
C717 C716 1.524 . S
C717 C718 1.397 . S
C717 C722 1.363 . S
C718 H695 0.950 . S
C718 C717 1.397 . S
C718 C719 1.334 . S
C719 H696 0.950 . S
C719 C718 1.334 . S
C719 C720 1.287 . S
C720 C719 1.287 . S
C720 C721 1.524 . S
C720 H739 0.913 . S
C721 H697 0.950 . S
C721 C720 1.524 . S
C721 C722 1.415 . S
C722 H698 0.950 1_565 S
C722 C717 1.363 . S
C722 C721 1.415 . S
C723 H699 0.951 . S
C723 C724 1.366 . S
C723 C725 1.388 . S
C724 C723 1.366 . S
C724 C728 1.385 1_556 S
C725 H700 0.951 . S
C725 C723 1.388 . S
C725 C726 1.366 . S
C726 C725 1.366 . S
C726 C727 1.414 1_556 S
C726 C729 1.499 . S
C727 H701 0.950 . S
C727 C726 1.414 1_554 S
C727 C728 1.374 . S
C728 H702 0.950 . S
C728 C724 1.385 1_554 S
C728 C727 1.374 . S
C729 C726 1.499 . S
C729 C730 1.373 1_556 S
C729 C731 1.389 . S
C730 H703 0.950 . S
C730 C716 1.377 1_545 S
C730 C729 1.373 1_554 S
C731 C715 1.377 1_545 S
C731 C729 1.389 . S
C731 C732 1.524 . S
C732 C731 1.524 . S
C732 C733 1.397 . S
C732 C737 1.363 . S
C733 H704 0.950 . S
C733 C732 1.397 . S
C733 C734 1.334 . S
C734 H705 0.950 . S
C734 C733 1.334 . S
C734 C735 1.287 . S
C735 C734 1.287 . S
C735 C736 1.524 . S
C735 H738 0.999 . S
C736 H706 0.950 . S
C736 C735 1.524 . S
C736 C737 1.415 . S
C737 H707 0.950 1_545 S
C737 C732 1.363 . S
C737 C736 1.415 . S
H738 C735 0.999 . S
H739 C720 0.913 . S
H740 C758 0.951 . S
H741 C760 0.951 . S
H742 C762 0.950 . S
H743 C763 0.950 . S
H744 C765 0.950 . S
H745 C768 0.950 . S
H746 C769 0.950 . S
H747 C771 0.950 . S
H748 C772 0.950 . S
H749 C773 0.951 . S
H750 C775 0.951 . S
H751 C777 0.953 . S
H752 C778 0.950 . S
H753 C780 0.950 . S
H754 C783 0.950 . S
H755 C784 0.950 . S
H756 C786 0.950 . S
H757 C787 0.950 . S
C758 H740 0.951 . S
C758 C759 1.366 . S
C758 C760 1.388 . S
C759 C758 1.366 . S
C759 C763 1.385 . S
C760 H741 0.951 . S
C760 C758 1.388 . S
C760 C761 1.366 . S
C761 C760 1.366 . S
C761 C762 1.414 . S
C761 C764 1.499 . S
C762 H742 0.950 . S
C762 C761 1.414 . S
C762 C763 1.374 . S
C763 H743 0.950 . S
C763 C759 1.385 . S
C763 C762 1.374 . S
C764 C761 1.499 . S
C764 C765 1.373 1_556 S
C764 C766 1.389 . S
C765 H744 0.950 . S
C765 C764 1.373 1_554 S
C765 C781 1.377 . S
C766 C764 1.389 . S
C766 C767 1.524 . S
C766 C780 1.377 . S
C767 C766 1.524 . S
C767 C768 1.397 . S
C767 C772 1.363 . S
C768 H745 0.950 . S
C768 C767 1.397 . S
C768 C769 1.334 . S
C769 H746 0.950 . S
C769 C768 1.334 . S
C769 C770 1.287 . S
C770 C769 1.287 . S
C770 C771 1.524 . S
C770 H789 0.913 . S
C771 H747 0.950 . S
C771 C770 1.524 . S
C771 C772 1.415 . S
C772 H748 0.950 . S
C772 C767 1.363 . S
C772 C771 1.415 . S
C773 H749 0.951 . S
C773 C774 1.366 . S
C773 C775 1.388 . S
C774 C773 1.366 . S
C774 C778 1.385 . S
C775 H750 0.951 . S
C775 C773 1.388 . S
C775 C776 1.366 . S
C776 C775 1.366 . S
C776 C777 1.414 . S
C776 C779 1.497 1_554 S
C777 H751 0.953 . S
C777 C776 1.414 . S
C777 C778 1.374 . S
C778 H752 0.950 . S
C778 C774 1.385 . S
C778 C777 1.374 . S
C779 C776 1.497 1_556 S
C779 C780 1.380 . S
C779 C781 1.384 1_556 S
C780 H753 0.950 . S
C780 C766 1.377 . S
C780 C779 1.380 . S
C781 C765 1.377 . S
C781 C779 1.384 1_554 S
C781 C782 1.524 . S
C782 C781 1.524 . S
C782 C783 1.397 . S
C782 C787 1.363 . S
C783 H754 0.950 . S
C783 C782 1.397 . S
C783 C784 1.334 . S
C784 H755 0.950 . S
C784 C783 1.334 . S
C784 C785 1.287 . S
C785 C784 1.287 . S
C785 C786 1.524 . S
C785 H788 0.999 . S
C786 H756 0.950 . S
C786 C785 1.524 . S
C786 C787 1.415 . S
C787 H757 0.950 . S
C787 C782 1.363 . S
C787 C786 1.415 . S
H788 C785 0.999 . S
H789 C770 0.913 . S
H790 C808 0.946 1_554 S
H791 C810 0.951 1_554 S
H792 C812 0.950 . S
H793 C813 0.950 . S
H794 C815 0.950 . S
H795 C818 0.950 . S
H796 C819 0.950 . S
H797 C821 0.950 . S
H798 C822 0.950 1_554 S
H799 C823 0.951 . S
H800 C825 0.951 1_556 S
H801 C827 0.950 . S
H802 C828 0.950 . S
H803 C830 0.950 . S
H804 C833 0.950 . S
H805 C834 0.950 . S
H806 C836 0.950 . S
H807 C837 0.950 . S
C808 H790 0.946 1_556 S
C808 C809 1.366 . S
C808 C810 1.388 . S
C809 C808 1.366 . S
C809 C813 1.385 . S
C810 H791 0.951 1_556 S
C810 C808 1.388 . S
C810 C811 1.366 . S
C811 C810 1.366 . S
C811 C812 1.414 . S
C811 C814 1.499 . S
C812 H792 0.950 . S
C812 C811 1.414 . S
C812 C813 1.374 . S
C813 H793 0.950 . S
C813 C809 1.385 . S
C813 C812 1.374 . S
C814 C811 1.499 . S
C814 C815 1.373 1_556 S
C814 C816 1.389 . S
C815 H794 0.950 . S
C815 C814 1.373 1_554 S
C815 C831 1.377 1_545 S
C816 C814 1.389 . S
C816 C817 1.524 . S
C816 C830 1.377 1_545 S
C817 C816 1.524 . S
C817 C818 1.397 . S
C817 C822 1.363 . S
C818 H795 0.950 . S
C818 C817 1.397 . S
C818 C819 1.334 . S
C819 H796 0.950 . S
C819 C818 1.334 . S
C819 C820 1.287 . S
C820 C819 1.287 . S
C820 C821 1.524 . S
C820 H839 0.913 . S
C821 H797 0.950 . S
C821 C820 1.524 . S
C821 C822 1.415 . S
C822 H798 0.950 1_556 S
C822 C817 1.363 . S
C822 C821 1.415 . S
C823 H799 0.951 . S
C823 C824 1.366 . S
C823 C825 1.388 . S
C824 C823 1.366 . S
C824 C828 1.385 . S
C825 H800 0.951 1_554 S
C825 C823 1.388 . S
C825 C826 1.366 . S
C826 C825 1.366 . S
C826 C827 1.414 . S
C826 C829 1.499 . S
C827 H801 0.950 . S
C827 C826 1.414 . S
C827 C828 1.374 . S
C828 H802 0.950 . S
C828 C824 1.385 . S
C828 C827 1.374 . S
C829 C826 1.499 . S
C829 C830 1.373 1_554 S
C829 C831 1.389 . S
C830 H803 0.950 . S
C830 C816 1.377 1_565 S
C830 C829 1.373 1_556 S
C831 C815 1.377 1_565 S
C831 C829 1.389 . S
C831 C832 1.524 . S
C832 C831 1.524 . S
C832 C833 1.397 . S
C832 C837 1.363 . S
C833 H804 0.950 . S
C833 C832 1.397 . S
C833 C834 1.334 . S
C834 H805 0.950 . S
C834 C833 1.334 . S
C834 C835 1.287 . S
C835 C834 1.287 . S
C835 C836 1.524 . S
C835 H838 0.999 . S
C836 H806 0.950 . S
C836 C835 1.524 . S
C836 C837 1.415 . S
C837 H807 0.950 . S
C837 C832 1.363 . S
C837 C836 1.415 . S
H838 C835 0.999 . S
H839 C820 0.913 . S
H840 C858 0.951 . S
H841 C860 0.951 . S
H842 C862 0.950 . S
H843 C863 0.950 . S
H844 C865 0.950 . S
H845 C868 0.950 . S
H846 C869 0.950 . S
H847 C871 0.950 . S
H848 C872 0.950 . S
H849 C873 0.951 . S
H850 C875 0.951 . S
H851 C877 0.950 . S
H852 C878 0.950 . S
H853 C880 0.950 . S
H854 C883 0.950 . S
H855 C884 0.950 . S
H856 C886 0.950 . S
H857 C887 0.950 . S
C858 H840 0.951 . S
C858 C859 1.366 . S
C858 C860 1.388 . S
C859 C858 1.366 . S
C859 C863 1.385 . S
C860 H841 0.951 . S
C860 C858 1.388 . S
C860 C861 1.366 . S
C861 C860 1.366 . S
C861 C862 1.414 . S
C861 C864 1.499 . S
C862 H842 0.950 . S
C862 C861 1.414 . S
C862 C863 1.374 . S
C863 H843 0.950 . S
C863 C859 1.385 . S
C863 C862 1.374 . S
C864 C861 1.499 . S
C864 C865 1.373 . S
C864 C866 1.389 . S
C865 H844 0.950 . S
C865 C864 1.373 . S
C865 C881 1.377 . S
C866 C864 1.389 . S
C866 C867 1.524 . S
C866 C880 1.377 . S
C867 C866 1.524 . S
C867 C868 1.397 . S
C867 C872 1.363 . S
C868 H845 0.950 . S
C868 C867 1.397 . S
C868 C869 1.334 . S
C869 H846 0.950 . S
C869 C868 1.334 . S
C869 C870 1.287 . S
C870 C869 1.287 . S
C870 C871 1.524 . S
C870 H889 0.913 . S
C871 H847 0.950 . S
C871 C870 1.524 . S
C871 C872 1.415 . S
C872 H848 0.950 . S
C872 C867 1.363 . S
C872 C871 1.415 . S
C873 H849 0.951 . S
C873 C874 1.366 . S
C873 C875 1.388 . S
C874 C873 1.366 . S
C874 C878 1.385 . S
C875 H850 0.951 . S
C875 C873 1.388 . S
C875 C876 1.366 . S
C876 C875 1.366 . S
C876 C877 1.414 . S
C876 C879 1.499 1_556 S
C877 H851 0.950 . S
C877 C876 1.414 . S
C877 C878 1.374 . S
C878 H852 0.950 . S
C878 C874 1.385 . S
C878 C877 1.374 . S
C879 C876 1.499 1_554 S
C879 C880 1.373 . S
C879 C881 1.389 . S
C880 H853 0.950 . S
C880 C866 1.377 . S
C880 C879 1.373 . S
C881 C865 1.377 . S
C881 C879 1.389 . S
C881 C882 1.524 . S
C882 C881 1.524 . S
C882 C883 1.397 1_554 S
C882 C887 1.363 . S
C883 H854 0.950 . S
C883 C882 1.397 1_556 S
C883 C884 1.334 . S
C884 H855 0.950 . S
C884 C883 1.334 . S
C884 C885 1.287 . S
C885 C884 1.287 . S
C885 C886 1.524 1_556 S
C885 H888 0.999 . S
C886 H856 0.950 . S
C886 C885 1.524 1_554 S
C886 C887 1.415 . S
C887 H857 0.950 . S
C887 C882 1.363 . S
C887 C886 1.415 . S
H888 C885 0.999 . S
H889 C870 0.913 . S
H890 C908 0.951 . S
H891 C910 0.951 . S
H892 C912 0.950 . S
H893 C913 0.950 . S
H894 C915 0.950 . S
H895 C918 0.950 . S
H896 C919 0.950 . S
H897 C921 0.950 . S
H898 C922 0.950 . S
H899 C923 0.951 . S
H900 C925 0.951 . S
H901 C927 0.950 . S
H902 C928 0.950 . S
H903 C930 0.950 1_556 S
H904 C933 0.950 . S
H905 C934 0.950 . S
H906 C936 0.950 . S
H907 C937 0.950 1_554 S
C908 H890 0.951 . S
C908 C909 1.366 . S
C908 C910 1.388 . S
C909 C908 1.366 . S
C909 C913 1.385 . S
C910 H891 0.951 . S
C910 C908 1.388 . S
C910 C911 1.366 . S
C911 C910 1.366 . S
C911 C912 1.414 . S
C911 C914 1.499 . S
C912 H892 0.950 . S
C912 C911 1.414 . S
C912 C913 1.374 . S
C913 H893 0.950 . S
C913 C909 1.385 . S
C913 C912 1.374 . S
C914 C911 1.499 . S
C914 C915 1.373 . S
C914 C916 1.389 . S
C915 H894 0.950 . S
C915 C914 1.373 . S
C915 C931 1.377 . S
C916 C914 1.389 . S
C916 C917 1.524 . S
C916 C930 1.377 . S
C917 C916 1.524 . S
C917 C918 1.397 . S
C917 C922 1.363 . S
C918 H895 0.950 . S
C918 C917 1.397 . S
C918 C919 1.334 . S
C919 H896 0.950 . S
C919 C918 1.334 . S
C919 C920 1.287 . S
C920 C919 1.287 . S
C920 C921 1.524 . S
C920 H939 0.913 . S
C921 H897 0.950 . S
C921 C920 1.524 . S
C921 C922 1.415 . S
C922 H898 0.950 . S
C922 C917 1.363 . S
C922 C921 1.415 . S
C923 H899 0.951 . S
C923 C924 1.366 . S
C923 C925 1.388 . S
C924 C923 1.366 . S
C924 C928 1.385 . S
C925 H900 0.951 . S
C925 C923 1.388 . S
C925 C926 1.366 . S
C926 C925 1.366 . S
C926 C927 1.414 . S
C926 C929 1.499 . S
C927 H901 0.950 . S
C927 C926 1.414 . S
C927 C928 1.374 . S
C928 H902 0.950 . S
C928 C924 1.385 . S
C928 C927 1.374 . S
C929 C926 1.499 . S
C929 C930 1.373 1_556 S
C929 C931 1.389 1_556 S
C930 H903 0.950 1_554 S
C930 C916 1.377 . S
C930 C929 1.373 1_554 S
C931 C915 1.377 . S
C931 C929 1.389 1_554 S
C931 C932 1.524 1_554 S
C932 C931 1.524 1_556 S
C932 C933 1.397 . S
C932 C937 1.363 . S
C933 H904 0.950 . S
C933 C932 1.397 . S
C933 C934 1.334 . S
C934 H905 0.950 . S
C934 C933 1.334 . S
C934 C935 1.287 . S
C935 C934 1.287 . S
C935 C936 1.524 . S
C935 H938 0.999 . S
C936 H906 0.950 . S
C936 C935 1.524 . S
C936 C937 1.415 . S
C937 H907 0.950 1_556 S
C937 C932 1.363 . S
C937 C936 1.415 . S
H938 C935 0.999 . S
H939 C920 0.913 . S
H940 C958 0.951 . S
H941 C960 0.951 . S
H942 C962 0.950 . S
H943 C963 0.950 . S
H944 C965 0.950 1_554 S
H945 C968 0.950 . S
H946 C969 0.950 . S
H947 C971 0.950 . S
H948 C972 0.950 . S
H949 C973 0.951 . S
H950 C975 0.951 . S
H951 C977 0.950 . S
H952 C978 0.950 . S
H953 C980 0.950 . S
H954 C983 0.950 . S
H955 C984 0.950 . S
H956 C986 0.950 . S
H957 C987 0.950 . S
C958 H940 0.951 . S
C958 C959 1.366 . S
C958 C960 1.388 . S
C959 C958 1.366 . S
C959 C963 1.385 . S
C960 H941 0.951 . S
C960 C958 1.388 . S
C960 C961 1.366 . S
C961 C960 1.366 . S
C961 C962 1.414 . S
C961 C964 1.499 . S
C962 H942 0.950 . S
C962 C961 1.414 . S
C962 C963 1.374 . S
C963 H943 0.950 . S
C963 C959 1.385 . S
C963 C962 1.374 . S
C964 C961 1.499 . S
C964 C965 1.373 1_554 S
C964 C966 1.389 1_554 S
C965 H944 0.950 1_556 S
C965 C964 1.373 1_556 S
C965 C981 1.377 . S
C966 C964 1.389 1_556 S
C966 C967 1.524 1_556 S
C966 C980 1.377 . S
C967 C966 1.524 1_554 S
C967 C968 1.397 . S
C967 C972 1.363 1_554 S
C968 H945 0.950 . S
C968 C967 1.397 . S
C968 C969 1.334 . S
C969 H946 0.950 . S
C969 C968 1.334 . S
C969 C970 1.287 . S
C970 C969 1.287 . S
C970 C971 1.524 . S
C970 H989 0.913 . S
C971 H947 0.950 . S
C971 C970 1.524 . S
C971 C972 1.415 1_554 S
C972 H948 0.950 . S
C972 C967 1.363 1_556 S
C972 C971 1.415 1_556 S
C973 H949 0.951 . S
C973 C974 1.366 . S
C973 C975 1.388 . S
C974 C973 1.366 . S
C974 C978 1.385 . S
C975 H950 0.951 . S
C975 C973 1.388 . S
C975 C976 1.366 . S
C976 C975 1.366 . S
C976 C977 1.414 . S
C976 C979 1.499 . S
C977 H951 0.950 . S
C977 C976 1.414 . S
C977 C978 1.374 . S
C978 H952 0.950 . S
C978 C974 1.385 . S
C978 C977 1.374 . S
C979 C976 1.499 . S
C979 C980 1.373 . S
C979 C981 1.389 . S
C980 H953 0.950 . S
C980 C966 1.377 . S
C980 C979 1.373 . S
C981 C965 1.377 . S
C981 C979 1.389 . S
C981 C982 1.524 . S
C982 C981 1.524 . S
C982 C983 1.397 . S
C982 C987 1.363 . S
C983 H954 0.950 . S
C983 C982 1.397 . S
C983 C984 1.334 . S
C984 H955 0.950 . S
C984 C983 1.334 . S
C984 C985 1.287 . S
C985 C984 1.287 . S
C985 C986 1.524 . S
C985 H988 0.999 . S
C986 H956 0.950 . S
C986 C985 1.524 . S
C986 C987 1.415 . S
C987 H957 0.950 . S
C987 C982 1.363 . S
C987 C986 1.415 . S
H988 C985 0.999 . S
H989 C970 0.913 . S
H990 C1008 0.951 . S
H991 C1010 0.951 . S
H992 C1012 0.950 . S
H993 C1013 0.950 . S
H994 C1015 0.950 . S
H995 C1018 0.950 . S
H996 C1019 0.950 . S
H997 C1021 0.950 . S
H998 C1022 0.950 . S
H999 C1023 0.951 . S
H1000 C1025 0.951 . S
H1001 C1027 0.950 . S
H1002 C1028 0.950 . S
H1003 C1030 0.950 . S
H1004 C1033 0.950 . S
H1005 C1034 0.950 . S
H1006 C1036 0.950 1_556 S
H1007 C1037 0.950 . S
C1008 H990 0.951 . S
C1008 C1009 1.366 . S
C1008 C1010 1.388 . S
C1009 C1008 1.366 . S
C1009 C1013 1.385 . S
C1010 H991 0.951 . S
C1010 C1008 1.388 . S
C1010 C1011 1.366 . S
C1011 C1010 1.366 . S
C1011 C1012 1.414 . S
C1011 C1014 1.499 . S
C1012 H992 0.950 . S
C1012 C1011 1.414 . S
C1012 C1013 1.374 . S
C1013 H993 0.950 . S
C1013 C1009 1.385 . S
C1013 C1012 1.374 . S
C1014 C1011 1.499 . S
C1014 C1015 1.373 . S
C1014 C1016 1.389 . S
C1015 H994 0.950 . S
C1015 C1014 1.373 . S
C1015 C1031 1.377 . S
C1016 C1014 1.389 . S
C1016 C1017 1.524 . S
C1016 C1030 1.377 . S
C1017 C1016 1.524 . S
C1017 C1018 1.397 . S
C1017 C1022 1.363 . S
C1018 H995 0.950 . S
C1018 C1017 1.397 . S
C1018 C1019 1.334 . S
C1019 H996 0.950 . S
C1019 C1018 1.334 . S
C1019 C1020 1.287 . S
C1020 C1019 1.287 . S
C1020 C1021 1.524 . S
C1020 H1039 0.913 . S
C1021 H997 0.950 . S
C1021 C1020 1.524 . S
C1021 C1022 1.415 . S
C1022 H998 0.950 . S
C1022 C1017 1.363 . S
C1022 C1021 1.415 . S
C1023 H999 0.951 . S
C1023 C1024 1.366 . S
C1023 C1025 1.388 . S
C1024 C1023 1.366 . S
C1024 C1028 1.385 . S
C1025 H1000 0.951 . S
C1025 C1023 1.388 . S
C1025 C1026 1.366 . S
C1026 C1025 1.366 . S
C1026 C1027 1.414 . S
C1026 C1029 1.499 1_554 S
C1027 H1001 0.950 . S
C1027 C1026 1.414 . S
C1027 C1028 1.374 . S
C1028 H1002 0.950 . S
C1028 C1024 1.385 . S
C1028 C1027 1.374 . S
C1029 C1026 1.499 1_556 S
C1029 C1030 1.373 . S
C1029 C1031 1.389 . S
C1030 H1003 0.950 . S
C1030 C1016 1.377 . S
C1030 C1029 1.373 . S
C1031 C1015 1.377 . S
C1031 C1029 1.389 . S
C1031 C1032 1.524 . S
C1032 C1031 1.524 . S
C1032 C1033 1.397 1_556 S
C1032 C1037 1.363 . S
C1033 H1004 0.950 . S
C1033 C1032 1.397 1_554 S
C1033 C1034 1.334 . S
C1034 H1005 0.950 . S
C1034 C1033 1.334 . S
C1034 C1035 1.287 . S
C1035 C1034 1.287 . S
C1035 C1036 1.524 . S
C1035 H1038 0.999 . S
C1036 H1006 0.950 1_554 S
C1036 C1035 1.524 . S
C1036 C1037 1.415 1_554 S
C1037 H1007 0.950 . S
C1037 C1032 1.363 . S
C1037 C1036 1.415 1_556 S
H1038 C1035 0.999 . S
H1039 C1020 0.913 . S
H1040 C1058 0.951 . S
H1041 C1060 0.951 . S
H1042 C1062 0.950 . S
H1043 C1063 0.950 . S
H1044 C1065 0.950 . S
H1045 C1068 0.950 . S
H1046 C1069 0.950 . S
H1047 C1071 0.950 . S
H1048 C1072 0.950 . S
H1049 C1073 0.951 . S
H1050 C1075 0.951 . S
H1051 C1077 0.950 . S
H1052 C1078 0.950 . S
H1053 C1080 0.950 . S
H1054 C1083 0.950 . S
H1055 C1084 0.950 . S
H1056 C1086 0.950 . S
H1057 C1087 0.950 . S
C1058 H1040 0.951 . S
C1058 C1059 1.366 . S
C1058 C1060 1.388 . S
C1059 C1058 1.366 . S
C1059 C1063 1.385 . S
C1060 H1041 0.951 . S
C1060 C1058 1.388 . S
C1060 C1061 1.366 . S
C1061 C1060 1.366 . S
C1061 C1062 1.414 . S
C1061 C1064 1.499 . S
C1062 H1042 0.950 . S
C1062 C1061 1.414 . S
C1062 C1063 1.374 . S
C1063 H1043 0.950 . S
C1063 C1059 1.385 . S
C1063 C1062 1.374 . S
C1064 C1061 1.499 . S
C1064 C1065 1.373 . S
C1064 C1066 1.389 . S
C1065 H1044 0.950 . S
C1065 C1064 1.373 . S
C1065 C1081 1.377 . S
C1066 C1064 1.389 . S
C1066 C1067 1.524 . S
C1066 C1080 1.377 . S
C1067 C1066 1.524 . S
C1067 C1068 1.397 . S
C1067 C1072 1.363 . S
C1068 H1045 0.950 . S
C1068 C1067 1.397 . S
C1068 C1069 1.334 . S
C1069 H1046 0.950 . S
C1069 C1068 1.334 . S
C1069 C1070 1.287 . S
C1070 C1069 1.287 . S
C1070 C1071 1.524 . S
C1070 H1089 0.913 . S
C1071 H1047 0.950 . S
C1071 C1070 1.524 . S
C1071 C1072 1.415 . S
C1072 H1048 0.950 . S
C1072 C1067 1.363 . S
C1072 C1071 1.415 . S
C1073 H1049 0.951 . S
C1073 C1074 1.366 . S
C1073 C1075 1.388 . S
C1074 C1073 1.366 . S
C1074 C1078 1.385 . S
C1075 H1050 0.951 . S
C1075 C1073 1.388 . S
C1075 C1076 1.366 . S
C1076 C1075 1.366 . S
C1076 C1077 1.414 . S
C1076 C1079 1.499 . S
C1077 H1051 0.950 . S
C1077 C1076 1.414 . S
C1077 C1078 1.374 . S
C1078 H1052 0.950 . S
C1078 C1074 1.385 . S
C1078 C1077 1.374 . S
C1079 C1076 1.499 . S
C1079 C1080 1.373 . S
C1079 C1081 1.389 . S
C1080 H1053 0.950 . S
C1080 C1066 1.377 . S
C1080 C1079 1.373 . S
C1081 C1065 1.377 . S
C1081 C1079 1.389 . S
C1081 C1082 1.524 . S
C1082 C1081 1.524 . S
C1082 C1083 1.397 . S
C1082 C1087 1.363 . S
C1083 H1054 0.950 . S
C1083 C1082 1.397 . S
C1083 C1084 1.334 . S
C1084 H1055 0.950 . S
C1084 C1083 1.334 . S
C1084 C1085 1.287 . S
C1085 C1084 1.287 . S
C1085 C1086 1.524 . S
C1085 H1088 0.999 . S
C1086 H1056 0.950 . S
C1086 C1085 1.524 . S
C1086 C1087 1.415 . S
C1087 H1057 0.950 . S
C1087 C1082 1.363 . S
C1087 C1086 1.415 . S
H1088 C1085 0.999 . S
H1089 C1070 0.913 . S
H1090 C1108 0.951 . S
H1091 C1110 0.951 . S
H1092 C1112 0.950 . S
H1093 C1113 0.950 . S
H1094 C1115 0.950 . S
H1095 C1118 0.950 . S
H1096 C1119 0.950 . S
H1097 C1121 0.950 . S
H1098 C1122 0.950 . S
H1099 C1123 0.951 . S
H1100 C1125 0.951 . S
H1101 C1127 0.950 . S
H1102 C1128 0.950 . S
H1103 C1130 0.950 . S
H1104 C1133 0.950 . S
H1105 C1134 0.950 . S
H1106 C1136 0.950 . S
H1107 C1137 0.950 . S
C1108 H1090 0.951 . S
C1108 C1109 1.366 . S
C1108 C1110 1.388 . S
C1109 C1108 1.366 . S
C1109 C1113 1.385 . S
C1110 H1091 0.951 . S
C1110 C1108 1.388 . S
C1110 C1111 1.366 . S
C1111 C1110 1.366 . S
C1111 C1112 1.414 . S
C1111 C1114 1.499 . S
C1112 H1092 0.950 . S
C1112 C1111 1.414 . S
C1112 C1113 1.374 . S
C1113 H1093 0.950 . S
C1113 C1109 1.385 . S
C1113 C1112 1.374 . S
C1114 C1111 1.499 . S
C1114 C1115 1.373 . S
C1114 C1116 1.389 . S
C1115 H1094 0.950 . S
C1115 C1114 1.373 . S
C1115 C1131 1.377 . S
C1116 C1114 1.389 . S
C1116 C1117 1.524 . S
C1116 C1130 1.377 . S
C1117 C1116 1.524 . S
C1117 C1118 1.397 . S
C1117 C1122 1.363 . S
C1118 H1095 0.950 . S
C1118 C1117 1.397 . S
C1118 C1119 1.334 . S
C1119 H1096 0.950 . S
C1119 C1118 1.334 . S
C1119 C1120 1.287 . S
C1120 C1119 1.287 . S
C1120 C1121 1.524 . S
C1120 H1139 0.913 . S
C1121 H1097 0.950 . S
C1121 C1120 1.524 . S
C1121 C1122 1.415 . S
C1122 H1098 0.950 . S
C1122 C1117 1.363 . S
C1122 C1121 1.415 . S
C1123 H1099 0.951 . S
C1123 C1124 1.366 . S
C1123 C1125 1.388 . S
C1124 C1123 1.366 . S
C1124 C1128 1.385 . S
C1125 H1100 0.951 . S
C1125 C1123 1.388 . S
C1125 C1126 1.366 . S
C1126 C1125 1.366 . S
C1126 C1127 1.414 . S
C1126 C1129 1.499 . S
C1127 H1101 0.950 . S
C1127 C1126 1.414 . S
C1127 C1128 1.374 . S
C1128 H1102 0.950 . S
C1128 C1124 1.385 . S
C1128 C1127 1.374 . S
C1129 C1126 1.499 . S
C1129 C1130 1.373 . S
C1129 C1131 1.389 . S
C1130 H1103 0.950 . S
C1130 C1116 1.377 . S
C1130 C1129 1.373 . S
C1131 C1115 1.377 . S
C1131 C1129 1.389 . S
C1131 C1132 1.524 . S
C1132 C1131 1.524 . S
C1132 C1133 1.397 . S
C1132 C1137 1.363 . S
C1133 H1104 0.950 . S
C1133 C1132 1.397 . S
C1133 C1134 1.334 . S
C1134 H1105 0.950 . S
C1134 C1133 1.334 . S
C1134 C1135 1.287 . S
C1135 C1134 1.287 . S
C1135 C1136 1.524 . S
C1135 H1138 0.999 . S
C1136 H1106 0.950 . S
C1136 C1135 1.524 . S
C1136 C1137 1.415 . S
C1137 H1107 0.950 . S
C1137 C1132 1.363 . S
C1137 C1136 1.415 . S
H1138 C1135 0.999 . S
H1139 C1120 0.913 . S
H1140 C1158 0.951 . S
H1141 C1160 0.951 . S
H1142 C1162 0.950 . S
H1143 C1163 0.950 . S
H1144 C1165 0.950 . S
H1145 C1168 0.950 . S
H1146 C1169 0.950 . S
H1147 C1171 0.950 . S
H1148 C1172 0.950 . S
H1149 C1173 0.951 . S
H1150 C1175 0.951 . S
H1151 C1177 0.950 . S
H1152 C1178 0.950 . S
H1153 C1180 0.950 . S
H1154 C1183 0.950 . S
H1155 C1184 0.950 . S
H1156 C1186 0.950 . S
H1157 C1187 0.950 . S
C1158 H1140 0.951 . S
C1158 C1159 1.366 . S
C1158 C1160 1.388 . S
C1159 C1158 1.366 . S
C1159 C1163 1.385 . S
C1160 H1141 0.951 . S
C1160 C1158 1.388 . S
C1160 C1161 1.366 . S
C1161 C1160 1.366 . S
C1161 C1162 1.414 . S
C1161 C1164 1.499 . S
C1162 H1142 0.950 . S
C1162 C1161 1.414 . S
C1162 C1163 1.374 . S
C1163 H1143 0.950 . S
C1163 C1159 1.385 . S
C1163 C1162 1.374 . S
C1164 C1161 1.499 . S
C1164 C1165 1.373 . S
C1164 C1166 1.389 . S
C1165 H1144 0.950 . S
C1165 C1164 1.373 . S
C1165 C1181 1.377 . S
C1166 C1164 1.389 . S
C1166 C1167 1.524 . S
C1166 C1180 1.377 . S
C1167 C1166 1.524 . S
C1167 C1168 1.397 . S
C1167 C1172 1.363 . S
C1168 H1145 0.950 . S
C1168 C1167 1.397 . S
C1168 C1169 1.334 . S
C1169 H1146 0.950 . S
C1169 C1168 1.334 . S
C1169 C1170 1.287 . S
C1170 C1169 1.287 . S
C1170 C1171 1.524 . S
C1170 H1189 0.913 . S
C1171 H1147 0.950 . S
C1171 C1170 1.524 . S
C1171 C1172 1.415 . S
C1172 H1148 0.950 . S
C1172 C1167 1.363 . S
C1172 C1171 1.415 . S
C1173 H1149 0.951 . S
C1173 C1174 1.366 . S
C1173 C1175 1.388 . S
C1174 C1173 1.366 . S
C1174 C1178 1.385 . S
C1175 H1150 0.951 . S
C1175 C1173 1.388 . S
C1175 C1176 1.366 . S
C1176 C1175 1.366 . S
C1176 C1177 1.414 . S
C1176 C1179 1.499 . S
C1177 H1151 0.950 . S
C1177 C1176 1.414 . S
C1177 C1178 1.374 . S
C1178 H1152 0.950 . S
C1178 C1174 1.385 . S
C1178 C1177 1.374 . S
C1179 C1176 1.499 . S
C1179 C1180 1.373 . S
C1179 C1181 1.389 . S
C1180 H1153 0.950 . S
C1180 C1166 1.377 . S
C1180 C1179 1.373 . S
C1181 C1165 1.377 . S
C1181 C1179 1.389 . S
C1181 C1182 1.524 . S
C1182 C1181 1.524 . S
C1182 C1183 1.397 . S
C1182 C1187 1.363 . S
C1183 H1154 0.950 . S
C1183 C1182 1.397 . S
C1183 C1184 1.334 . S
C1184 H1155 0.950 . S
C1184 C1183 1.334 . S
C1184 C1185 1.287 . S
C1185 C1184 1.287 . S
C1185 C1186 1.524 . S
C1185 H1188 0.999 . S
C1186 H1156 0.950 . S
C1186 C1185 1.524 . S
C1186 C1187 1.415 . S
C1187 H1157 0.950 . S
C1187 C1182 1.363 . S
C1187 C1186 1.415 . S
H1188 C1185 0.999 . S
H1189 C1170 0.913 . S
H1190 C1208 0.951 . S
H1191 C1210 0.951 . S
H1192 C1212 0.950 . S
H1193 C1213 0.950 . S
H1194 C1215 0.950 . S
H1195 C1218 0.950 . S
H1196 C1219 0.950 . S
H1197 C1221 0.950 . S
H1198 C1222 0.950 . S
H1199 C1223 0.951 . S
H1200 C1225 0.951 . S
H1201 C1227 0.950 . S
H1202 C1228 0.950 . S
H1203 C1230 0.950 . S
H1204 C1233 0.950 . S
H1205 C1234 0.950 . S
H1206 C1236 0.950 . S
H1207 C1237 0.950 . S
C1208 H1190 0.951 . S
C1208 C1209 1.366 . S
C1208 C1210 1.388 . S
C1209 C1208 1.366 . S
C1209 C1213 1.385 . S
C1210 H1191 0.951 . S
C1210 C1208 1.388 . S
C1210 C1211 1.366 . S
C1211 C1210 1.366 . S
C1211 C1212 1.414 . S
C1211 C1214 1.499 . S
C1212 H1192 0.950 . S
C1212 C1211 1.414 . S
C1212 C1213 1.374 . S
C1213 H1193 0.950 . S
C1213 C1209 1.385 . S
C1213 C1212 1.374 . S
C1214 C1211 1.499 . S
C1214 C1215 1.373 . S
C1214 C1216 1.389 . S
C1215 H1194 0.950 . S
C1215 C1214 1.373 . S
C1215 C1231 1.377 . S
C1216 C1214 1.389 . S
C1216 C1217 1.524 . S
C1216 C1230 1.377 . S
C1217 C1216 1.524 . S
C1217 C1218 1.397 . S
C1217 C1222 1.363 . S
C1218 H1195 0.950 . S
C1218 C1217 1.397 . S
C1218 C1219 1.334 . S
C1219 H1196 0.950 . S
C1219 C1218 1.334 . S
C1219 C1220 1.287 . S
C1220 C1219 1.287 . S
C1220 C1221 1.524 . S
C1220 H1239 0.913 . S
C1221 H1197 0.950 . S
C1221 C1220 1.524 . S
C1221 C1222 1.415 . S
C1222 H1198 0.950 . S
C1222 C1217 1.363 . S
C1222 C1221 1.415 . S
C1223 H1199 0.951 . S
C1223 C1224 1.366 . S
C1223 C1225 1.388 . S
C1224 C1223 1.366 . S
C1224 C1228 1.385 . S
C1225 H1200 0.951 . S
C1225 C1223 1.388 . S
C1225 C1226 1.366 . S
C1226 C1225 1.366 . S
C1226 C1227 1.414 . S
C1226 C1229 1.499 . S
C1227 H1201 0.950 . S
C1227 C1226 1.414 . S
C1227 C1228 1.374 . S
C1228 H1202 0.950 . S
C1228 C1224 1.385 . S
C1228 C1227 1.374 . S
C1229 C1226 1.499 . S
C1229 C1230 1.373 . S
C1229 C1231 1.389 . S
C1230 H1203 0.950 . S
C1230 C1216 1.377 . S
C1230 C1229 1.373 . S
C1231 C1215 1.377 . S
C1231 C1229 1.389 . S
C1231 C1232 1.524 . S
C1232 C1231 1.524 . S
C1232 C1233 1.397 . S
C1232 C1237 1.363 . S
C1233 H1204 0.950 . S
C1233 C1232 1.397 . S
C1233 C1234 1.334 . S
C1234 H1205 0.950 . S
C1234 C1233 1.334 . S
C1234 C1235 1.287 . S
C1235 C1234 1.287 . S
C1235 C1236 1.524 . S
C1235 H1238 0.999 . S
C1236 H1206 0.950 . S
C1236 C1235 1.524 . S
C1236 C1237 1.415 . S
C1237 H1207 0.950 . S
C1237 C1232 1.363 . S
C1237 C1236 1.415 . S
H1238 C1235 0.999 . S
H1239 C1220 0.913 . S
H1240 C1258 0.951 . S
H1241 C1260 0.951 . S
H1242 C1262 0.950 . S
H1243 C1263 0.950 . S
H1244 C1265 0.950 . S
H1245 C1268 0.950 . S
H1246 C1269 0.950 . S
H1247 C1271 0.950 . S
H1248 C1272 0.950 . S
H1249 C1273 0.951 . S
H1250 C1275 0.951 . S
H1251 C1277 0.950 . S
H1252 C1278 0.950 . S
H1253 C1280 0.950 . S
H1254 C1283 0.946 1_655 S
H1255 C1284 0.950 . S
H1256 C1286 0.950 . S
H1257 C1287 0.950 . S
C1258 H1240 0.951 . S
C1258 C1259 1.366 . S
C1258 C1260 1.388 . S
C1259 C1258 1.366 . S
C1259 C1263 1.385 . S
C1260 H1241 0.951 . S
C1260 C1258 1.388 . S
C1260 C1261 1.366 . S
C1261 C1260 1.366 . S
C1261 C1262 1.414 . S
C1261 C1264 1.499 . S
C1262 H1242 0.950 . S
C1262 C1261 1.414 . S
C1262 C1263 1.374 . S
C1263 H1243 0.950 . S
C1263 C1259 1.385 . S
C1263 C1262 1.374 . S
C1264 C1261 1.499 . S
C1264 C1265 1.373 . S
C1264 C1266 1.389 . S
C1265 H1244 0.950 . S
C1265 C1264 1.373 . S
C1265 C1281 1.377 . S
C1266 C1264 1.389 . S
C1266 C1267 1.524 . S
C1266 C1280 1.377 . S
C1267 C1266 1.524 . S
C1267 C1268 1.397 . S
C1267 C1272 1.363 . S
C1268 H1245 0.950 . S
C1268 C1267 1.397 . S
C1268 C1269 1.334 . S
C1269 H1246 0.950 . S
C1269 C1268 1.334 . S
C1269 C1270 1.287 . S
C1270 C1269 1.287 . S
C1270 C1271 1.524 . S
C1270 H1289 0.913 . S
C1271 H1247 0.950 . S
C1271 C1270 1.524 . S
C1271 C1272 1.415 . S
C1272 H1248 0.950 . S
C1272 C1267 1.363 . S
C1272 C1271 1.415 . S
C1273 H1249 0.951 . S
C1273 C1274 1.366 . S
C1273 C1275 1.388 . S
C1274 C1273 1.366 . S
C1274 C1278 1.385 . S
C1275 H1250 0.951 . S
C1275 C1273 1.388 . S
C1275 C1276 1.366 . S
C1276 C1275 1.366 . S
C1276 C1277 1.414 . S
C1276 C1279 1.499 1_655 S
C1277 H1251 0.950 . S
C1277 C1276 1.414 . S
C1277 C1278 1.374 . S
C1278 H1252 0.950 . S
C1278 C1274 1.385 . S
C1278 C1277 1.374 . S
C1279 C1276 1.499 1_455 S
C1279 C1280 1.373 . S
C1279 C1281 1.389 . S
C1280 H1253 0.950 . S
C1280 C1266 1.377 . S
C1280 C1279 1.373 . S
C1281 C1265 1.377 . S
C1281 C1279 1.389 . S
C1281 C1282 1.524 . S
C1282 C1281 1.524 . S
C1282 C1283 1.414 . S
C1282 C1287 1.363 . S
C1283 H1254 0.946 1_455 S
C1283 C1282 1.414 . S
C1283 C1284 1.321 1_455 S
C1284 H1255 0.950 . S
C1284 C1283 1.321 1_655 S
C1284 C1285 1.287 . S
C1285 C1284 1.287 . S
C1285 C1286 1.524 1_655 S
C1285 H1288 0.999 . S
C1286 H1256 0.950 . S
C1286 C1285 1.524 1_455 S
C1286 C1287 1.415 . S
C1287 H1257 0.950 . S
C1287 C1282 1.363 . S
C1287 C1286 1.415 . S
H1288 C1285 0.999 . S
H1289 C1270 0.913 . S
H1290 C1308 0.951 . S
H1291 C1310 0.951 . S
H1292 C1312 0.950 . S
H1293 C1313 0.950 . S
H1294 C1315 0.950 . S
H1295 C1318 0.950 . S
H1296 C1319 0.950 . S
H1297 C1321 0.950 . S
H1298 C1322 0.950 . S
H1299 C1323 0.951 . S
H1300 C1325 0.951 . S
H1301 C1327 0.950 . S
H1302 C1328 0.950 . S
H1303 C1330 0.950 . S
H1304 C1333 0.953 . S
H1305 C1334 0.950 . S
H1306 C1336 0.950 . S
H1307 C1337 0.950 . S
C1308 H1290 0.951 . S
C1308 C1309 1.366 . S
C1308 C1310 1.388 . S
C1309 C1308 1.366 . S
C1309 C1313 1.385 . S
C1310 H1291 0.951 . S
C1310 C1308 1.388 . S
C1310 C1311 1.366 . S
C1311 C1310 1.366 . S
C1311 C1312 1.414 . S
C1311 C1314 1.499 . S
C1312 H1292 0.950 . S
C1312 C1311 1.414 . S
C1312 C1313 1.374 . S
C1313 H1293 0.950 . S
C1313 C1309 1.385 . S
C1313 C1312 1.374 . S
C1314 C1311 1.499 . S
C1314 C1315 1.373 . S
C1314 C1316 1.389 . S
C1315 H1294 0.950 . S
C1315 C1314 1.373 . S
C1315 C1331 1.377 . S
C1316 C1314 1.389 . S
C1316 C1317 1.524 . S
C1316 C1330 1.377 . S
C1317 C1316 1.524 . S
C1317 C1318 1.397 . S
C1317 C1322 1.363 . S
C1318 H1295 0.950 . S
C1318 C1317 1.397 . S
C1318 C1319 1.334 . S
C1319 H1296 0.950 . S
C1319 C1318 1.334 . S
C1319 C1320 1.287 . S
C1320 C1319 1.287 . S
C1320 C1321 1.524 . S
C1320 H1339 0.913 . S
C1321 H1297 0.950 . S
C1321 C1320 1.524 . S
C1321 C1322 1.415 . S
C1322 H1298 0.950 . S
C1322 C1317 1.363 . S
C1322 C1321 1.415 . S
C1323 H1299 0.951 . S
C1323 C1324 1.366 . S
C1323 C1325 1.388 . S
C1324 C1323 1.366 . S
C1324 C1328 1.385 . S
C1325 H1300 0.951 . S
C1325 C1323 1.388 . S
C1325 C1326 1.366 . S
C1326 C1325 1.366 . S
C1326 C1327 1.414 . S
C1326 C1329 1.499 1_455 S
C1327 H1301 0.950 . S
C1327 C1326 1.414 . S
C1327 C1328 1.374 . S
C1328 H1302 0.950 . S
C1328 C1324 1.385 . S
C1328 C1327 1.374 . S
C1329 C1326 1.499 1_655 S
C1329 C1330 1.373 . S
C1329 C1331 1.389 . S
C1330 H1303 0.950 . S
C1330 C1316 1.377 . S
C1330 C1329 1.373 . S
C1331 C1315 1.377 . S
C1331 C1329 1.389 . S
C1331 C1332 1.524 . S
C1332 C1331 1.524 . S
C1332 C1333 1.388 1_655 S
C1332 C1337 1.363 . S
C1333 H1304 0.953 . S
C1333 C1332 1.388 1_455 S
C1333 C1334 1.340 . S
C1334 H1305 0.950 . S
C1334 C1333 1.340 . S
C1334 C1335 1.287 . S
C1335 C1334 1.287 . S
C1335 C1336 1.524 1_455 S
C1335 H1338 0.999 . S
C1336 H1306 0.950 . S
C1336 C1335 1.524 1_655 S
C1336 C1337 1.415 . S
C1337 H1307 0.950 . S
C1337 C1332 1.363 . S
C1337 C1336 1.415 . S
H1338 C1335 0.999 . S
H1339 C1320 0.913 . S
H1340 C1358 0.951 . S
H1341 C1360 0.951 . S
H1342 C1362 0.950 . S
H1343 C1363 0.950 . S
H1344 C1365 0.950 . S
H1345 C1368 0.950 . S
H1346 C1369 0.950 1_554 S
H1347 C1371 0.950 . S
H1348 C1372 0.950 . S
H1349 C1373 0.951 . S
H1350 C1375 0.951 . S
H1351 C1377 0.950 . S
H1352 C1378 0.950 . S
H1353 C1380 0.950 . S
H1354 C1383 0.950 1_556 S
H1355 C1384 0.950 . S
H1356 C1386 0.950 . S
H1357 C1387 0.950 . S
C1358 H1340 0.951 . S
C1358 C1359 1.366 1_556 S
C1358 C1360 1.388 . S
C1359 C1358 1.366 1_554 S
C1359 C1363 1.385 . S
C1360 H1341 0.951 . S
C1360 C1358 1.388 . S
C1360 C1361 1.366 1_556 S
C1361 C1360 1.366 1_554 S
C1361 C1362 1.414 . S
C1361 C1364 1.499 . S
C1362 H1342 0.950 . S
C1362 C1361 1.414 . S
C1362 C1363 1.374 . S
C1363 H1343 0.950 . S
C1363 C1359 1.385 . S
C1363 C1362 1.374 . S
C1364 C1361 1.499 . S
C1364 C1365 1.373 . S
C1364 C1366 1.389 1_554 S
C1365 H1344 0.950 . S
C1365 C1364 1.373 . S
C1365 C1381 1.377 . S
C1366 C1364 1.389 1_556 S
C1366 C1367 1.524 . S
C1366 C1380 1.377 . S
C1367 C1366 1.524 . S
C1367 C1368 1.397 1_556 S
C1367 C1372 1.363 . S
C1368 H1345 0.950 . S
C1368 C1367 1.397 1_554 S
C1368 C1369 1.334 1_554 S
C1369 H1346 0.950 1_556 S
C1369 C1368 1.334 1_556 S
C1369 C1370 1.287 . S
C1370 C1369 1.287 . S
C1370 C1371 1.524 . S
C1370 H1389 0.913 . S
C1371 H1347 0.950 . S
C1371 C1370 1.524 . S
C1371 C1372 1.415 . S
C1372 H1348 0.950 . S
C1372 C1367 1.363 . S
C1372 C1371 1.415 . S
C1373 H1349 0.951 . S
C1373 C1374 1.366 . S
C1373 C1375 1.388 . S
C1374 C1373 1.366 . S
C1374 C1378 1.385 1_554 S
C1375 H1350 0.951 . S
C1375 C1373 1.388 . S
C1375 C1376 1.366 . S
C1376 C1375 1.366 . S
C1376 C1377 1.414 1_554 S
C1376 C1379 1.499 . S
C1377 H1351 0.950 . S
C1377 C1376 1.414 1_556 S
C1377 C1378 1.374 . S
C1378 H1352 0.950 . S
C1378 C1374 1.385 1_556 S
C1378 C1377 1.374 . S
C1379 C1376 1.499 . S
C1379 C1380 1.373 1_554 S
C1379 C1381 1.389 . S
C1380 H1353 0.950 . S
C1380 C1366 1.377 . S
C1380 C1379 1.373 1_556 S
C1381 C1365 1.377 . S
C1381 C1379 1.389 . S
C1381 C1382 1.524 . S
C1382 C1381 1.524 . S
C1382 C1383 1.397 . S
C1382 C1387 1.363 . S
C1383 H1354 0.950 1_554 S
C1383 C1382 1.397 . S
C1383 C1384 1.334 . S
C1384 H1355 0.950 . S
C1384 C1383 1.334 . S
C1384 C1385 1.287 . S
C1385 C1384 1.287 . S
C1385 C1386 1.524 . S
C1385 H1388 0.999 . S
C1386 H1356 0.950 . S
C1386 C1385 1.524 . S
C1386 C1387 1.415 . S
C1387 H1357 0.950 . S
C1387 C1382 1.363 . S
C1387 C1386 1.415 . S
H1388 C1385 0.999 . S
H1389 C1370 0.913 . S
H1390 C1408 0.951 . S
H1391 C1410 0.951 . S
H1392 C1412 0.950 . S
H1393 C1413 0.950 . S
H1394 C1415 0.950 . S
H1395 C1418 0.950 . S
H1396 C1419 0.950 . S
H1397 C1421 0.950 . S
H1398 C1422 0.950 . S
H1399 C1423 0.951 . S
H1400 C1425 0.951 . S
H1401 C1427 0.950 . S
H1402 C1428 0.950 . S
H1403 C1430 0.950 . S
H1404 C1433 0.950 . S
H1405 C1434 0.950 . S
H1406 C1436 0.950 . S
H1407 C1437 0.950 . S
C1408 H1390 0.951 . S
C1408 C1409 1.366 1_554 S
C1408 C1410 1.388 . S
C1409 C1408 1.366 1_556 S
C1409 C1413 1.385 . S
C1410 H1391 0.951 . S
C1410 C1408 1.388 . S
C1410 C1411 1.366 1_554 S
C1411 C1410 1.366 1_556 S
C1411 C1412 1.414 . S
C1411 C1414 1.499 . S
C1412 H1392 0.950 . S
C1412 C1411 1.414 . S
C1412 C1413 1.374 . S
C1413 H1393 0.950 . S
C1413 C1409 1.385 . S
C1413 C1412 1.374 . S
C1414 C1411 1.499 . S
C1414 C1415 1.373 . S
C1414 C1416 1.389 1_556 S
C1415 H1394 0.950 . S
C1415 C1414 1.373 . S
C1415 C1431 1.377 . S
C1416 C1414 1.389 1_554 S
C1416 C1417 1.524 . S
C1416 C1430 1.377 . S
C1417 C1416 1.524 . S
C1417 C1418 1.397 . S
C1417 C1422 1.363 . S
C1418 H1395 0.950 . S
C1418 C1417 1.397 . S
C1418 C1419 1.334 . S
C1419 H1396 0.950 . S
C1419 C1418 1.334 . S
C1419 C1420 1.287 . S
C1420 C1419 1.287 . S
C1420 C1421 1.524 . S
C1420 H1439 0.913 . S
C1421 H1397 0.950 . S
C1421 C1420 1.524 . S
C1421 C1422 1.415 . S
C1422 H1398 0.950 . S
C1422 C1417 1.363 . S
C1422 C1421 1.415 . S
C1423 H1399 0.951 . S
C1423 C1424 1.366 . S
C1423 C1425 1.388 . S
C1424 C1423 1.366 . S
C1424 C1428 1.385 1_556 S
C1425 H1400 0.951 . S
C1425 C1423 1.388 . S
C1425 C1426 1.366 . S
C1426 C1425 1.366 . S
C1426 C1427 1.414 1_556 S
C1426 C1429 1.499 . S
C1427 H1401 0.950 . S
C1427 C1426 1.414 1_554 S
C1427 C1428 1.374 . S
C1428 H1402 0.950 . S
C1428 C1424 1.385 1_554 S
C1428 C1427 1.374 . S
C1429 C1426 1.499 . S
C1429 C1430 1.373 1_556 S
C1429 C1431 1.389 . S
C1430 H1403 0.950 . S
C1430 C1416 1.377 . S
C1430 C1429 1.373 1_554 S
C1431 C1415 1.377 . S
C1431 C1429 1.389 . S
C1431 C1432 1.524 . S
C1432 C1431 1.524 . S
C1432 C1433 1.397 . S
C1432 C1437 1.363 . S
C1433 H1404 0.950 . S
C1433 C1432 1.397 . S
C1433 C1434 1.334 . S
C1434 H1405 0.950 . S
C1434 C1433 1.334 . S
C1434 C1435 1.287 . S
C1435 C1434 1.287 . S
C1435 C1436 1.524 . S
C1435 H1438 0.999 . S
C1436 H1406 0.950 . S
C1436 C1435 1.524 . S
C1436 C1437 1.415 . S
C1437 H1407 0.950 . S
C1437 C1432 1.363 . S
C1437 C1436 1.415 . S
H1438 C1435 0.999 . S
H1439 C1420 0.913 . S
C259 C16 2.361 . S
C274 C237 2.361 . S
C309 N186 1.398 . S
C324 N44 1.398 . S
C359 N164 1.397 . S
C374 N66 1.397 . S
C409 C136 2.361 . S
C424 C117 2.361 . S
C459 C61 1.603 . S
C474 C10 1.598 . S
C509 C31 1.617 . S
C524 C100 1.627 . S
C559 C91 1.598 . S
C574 C40 1.603 . S
C609 C70 1.617 . S
C624 C1 1.626 . S
C659 C130 1.598 . S
C674 C181 1.603 . S
C709 C151 1.617 . S
C724 C220 1.627 . S
C759 C211 1.598 . S
C774 C160 1.603 . S
C809 C190 1.617 . S
C824 C121 1.626 . S
C859 N14 0.505 . S
C874 N6 0.505 . S
C909 C46 2.650 . S
C924 C57 2.650 . S
C959 C76 2.650 . S
C974 C87 2.650 . S
C1009 N96 0.506 . S
C1024 N104 0.506 . S
C1059 N126 0.508 . S
C1074 N134 0.508 . S
C1109 C166 2.650 . S
C1124 C177 2.650 . S
C1159 C207 2.650 . S
C1174 C196 2.650 . S
C1209 N216 0.508 . S
C1224 N224 0.508 . S
C1259 C27 1.677 . S
C1274 N36 1.614 . S
C1309 C106 1.677 . S
C1324 N74 1.613 . S
C1359 C147 1.677 . S
C1374 N156 1.613 . S
C1409 C226 1.677 . S
C1424 N194 1.614 . S
