# Generated by pormake.
# Topology ukb, (4)-cn, num edge types: 1
# Building blocks:
#     Node 0, Type 0, BuildingBlock: UXUYUI_clean_sbu_0, # of connection points: 4
#     Node 1, Type 0, BuildingBlock: UXUYUI_clean_sbu_0, # of connection points: 4
#     Node 2, Type 0, BuildingBlock: UXUYUI_clean_sbu_0, # of connection points: 4
#     Node 3, Type 0, BuildingBlock: UXUYUI_clean_sbu_0, # of connection points: 4
#     Node 4, Type 0, BuildingBlock: UXUYUI_clean_sbu_0, # of connection points: 4
#     Node 5, Type 0, BuildingBlock: UXUYUI_clean_sbu_0, # of connection points: 4
#     Node 6, Type 0, BuildingBlock: UXUYUI_clean_sbu_0, # of connection points: 4
#     Node 7, Type 0, BuildingBlock: UXUYUI_clean_sbu_0, # of connection points: 4
#     Node 8, Type 0, BuildingBlock: UXUYUI_clean_sbu_0, # of connection points: 4
#     Node 9, Type 0, BuildingBlock: UXUYUI_clean_sbu_0, # of connection points: 4
#     Node 10, Type 0, BuildingBlock: UXUYUI_clean_sbu_0, # of connection points: 4
#     Node 11, Type 0, BuildingBlock: UXUYUI_clean_sbu_0, # of connection points: 4
#     Node 12, Type 0, BuildingBlock: UXUYUI_clean_sbu_0, # of connection points: 4
#     Node 13, Type 0, BuildingBlock: UXUYUI_clean_sbu_0, # of connection points: 4
#     Node 14, Type 0, BuildingBlock: UXUYUI_clean_sbu_0, # of connection points: 4
#     Node 15, Type 0, BuildingBlock: UXUYUI_clean_sbu_0, # of connection points: 4
#     Edge 16, Type (0, 0), BuildingBlock: OJICUG_clean_linker_0, # of connection points: 2
#     Edge 17, Type (0, 0), BuildingBlock: OJICUG_clean_linker_0, # of connection points: 2
#     Edge 18, Type (0, 0), BuildingBlock: OJICUG_clean_linker_0, # of connection points: 2
#     Edge 19, Type (0, 0), BuildingBlock: OJICUG_clean_linker_0, # of connection points: 2
#     Edge 20, Type (0, 0), BuildingBlock: OJICUG_clean_linker_0, # of connection points: 2
#     Edge 21, Type (0, 0), BuildingBlock: OJICUG_clean_linker_0, # of connection points: 2
#     Edge 22, Type (0, 0), BuildingBlock: OJICUG_clean_linker_0, # of connection points: 2
#     Edge 23, Type (0, 0), BuildingBlock: OJICUG_clean_linker_0, # of connection points: 2
#     Edge 24, Type (0, 0), BuildingBlock: OJICUG_clean_linker_0, # of connection points: 2
#     Edge 25, Type (0, 0), BuildingBlock: OJICUG_clean_linker_0, # of connection points: 2
#     Edge 26, Type (0, 0), BuildingBlock: OJICUG_clean_linker_0, # of connection points: 2
#     Edge 27, Type (0, 0), BuildingBlock: OJICUG_clean_linker_0, # of connection points: 2
#     Edge 28, Type (0, 0), BuildingBlock: OJICUG_clean_linker_0, # of connection points: 2
#     Edge 29, Type (0, 0), BuildingBlock: OJICUG_clean_linker_0, # of connection points: 2
#     Edge 30, Type (0, 0), BuildingBlock: OJICUG_clean_linker_0, # of connection points: 2
#     Edge 31, Type (0, 0), BuildingBlock: OJICUG_clean_linker_0, # of connection points: 2
#     Edge 32, Type (0, 0), BuildingBlock: OJICUG_clean_linker_0, # of connection points: 2
#     Edge 33, Type (0, 0), BuildingBlock: OJICUG_clean_linker_0, # of connection points: 2
#     Edge 34, Type (0, 0), BuildingBlock: OJICUG_clean_linker_0, # of connection points: 2
#     Edge 35, Type (0, 0), BuildingBlock: OJICUG_clean_linker_0, # of connection points: 2
#     Edge 36, Type (0, 0), BuildingBlock: OJICUG_clean_linker_0, # of connection points: 2
#     Edge 37, Type (0, 0), BuildingBlock: OJICUG_clean_linker_0, # of connection points: 2
#     Edge 38, Type (0, 0), BuildingBlock: OJICUG_clean_linker_0, # of connection points: 2
#     Edge 39, Type (0, 0), BuildingBlock: OJICUG_clean_linker_0, # of connection points: 2
#     Edge 40, Type (0, 0), BuildingBlock: OJICUG_clean_linker_0, # of connection points: 2
#     Edge 41, Type (0, 0), BuildingBlock: OJICUG_clean_linker_0, # of connection points: 2
#     Edge 42, Type (0, 0), BuildingBlock: OJICUG_clean_linker_0, # of connection points: 2
#     Edge 43, Type (0, 0), BuildingBlock: OJICUG_clean_linker_0, # of connection points: 2
#     Edge 44, Type (0, 0), BuildingBlock: OJICUG_clean_linker_0, # of connection points: 2
#     Edge 45, Type (0, 0), BuildingBlock: OJICUG_clean_linker_0, # of connection points: 2
#     Edge 46, Type (0, 0), BuildingBlock: OJICUG_clean_linker_0, # of connection points: 2
#     Edge 47, Type (0, 0), BuildingBlock: OJICUG_clean_linker_0, # of connection points: 2
# Relax obj value: 0.234
# Max RMSD: 0.198
# Mean RMSD: 0.198
data_MOF--net-ukb--node1-UXUYUI_clean_sbu_0--edge1-OJICUG_clean_linker_0
_symmetry_space_group_name_H-M    P1
_symmetry_Int_Tables_number       1
_symmetry_cell_setting            triclinic
loop_
_symmetry_equiv_pos_as_xyz
'x, y, z'
_cell_length_a     49.972586
_cell_length_b     49.973216
_cell_length_c     47.927831
_cell_angle_alpha  89.999817
_cell_angle_beta   89.999362
_cell_angle_gamma 90.009853
loop_
_atom_site_label
_atom_site_type_symbol
_atom_site_fract_x
_atom_site_fract_y
_atom_site_fract_z
_atom_type_partial_charge
Li0 Li 0.51206 0.22114 0.15559 0.0
Li1 Li 0.52212 0.23904 0.20284 0.0
Li2 Li 0.53411 0.19305 0.19137 0.0
Li3 Li 0.48686 0.20674 0.19726 0.0
C4 C 0.5684 0.22079 0.15636 0.0
N5 N 0.6103 0.20978 0.12061 0.0
C6 C 0.59137 0.23671 0.15674 0.0
C7 C 0.56674 0.19919 0.1379 0.0
C8 C 0.61234 0.23083 0.13847 0.0
C9 C 0.58814 0.19398 0.11996 0.0
C10 C 0.46342 0.25276 0.17895 0.0
C11 C 0.42564 0.27538 0.19957 0.0
N12 N 0.41134 0.27113 0.17584 0.0
C13 C 0.44847 0.24894 0.15464 0.0
C14 C 0.45205 0.26638 0.20149 0.0
C15 C 0.42213 0.25826 0.15351 0.0
C16 C 0.49382 0.21478 0.10009 0.0
N17 N 0.51086 0.22876 0.11671 0.0
C18 C 0.52798 0.25266 0.07738 0.0
C19 C 0.5276 0.2476 0.10603 0.0
C20 C 0.5107 0.23843 0.05965 0.0
C21 C 0.49329 0.21942 0.07136 0.0
H22 H 0.48063 0.2 0.10919 0.0
H23 H 0.54083 0.25855 0.11977 0.0
C24 C 0.55734 0.2658 0.23851 0.0
N25 N 0.53544 0.26944 0.22212 0.0
C26 C 0.56926 0.28752 0.25188 0.0
C27 C 0.53642 0.31658 0.23053 0.0
C28 C 0.52474 0.29415 0.21801 0.0
C29 C 0.559 0.31331 0.24763 0.0
H30 H 0.56594 0.24606 0.24065 0.0
H31 H 0.50761 0.2965 0.20444 0.0
C32 C 0.49731 0.15796 0.16364 0.0
N33 N 0.4864 0.10414 0.15711 0.0
C34 C 0.49014 0.14243 0.1867 0.0
C35 C 0.49915 0.14609 0.1373 0.0
C36 C 0.48459 0.11527 0.18295 0.0
C37 C 0.49354 0.11885 0.13443 0.0
C38 C 0.51735 0.2143 0.25241 0.0
C39 C 0.53767 0.20476 0.26982 0.0
C40 C 0.49863 0.23246 0.2629 0.0
C41 C 0.53928 0.21407 0.29725 0.0
C42 C 0.5009 0.24129 0.29045 0.0
N43 N 0.52105 0.23203 0.3069 0.0
C44 C 0.58141 0.17647 0.21479 0.0
C45 C 0.56106 0.14132 0.18931 0.0
C46 C 0.60176 0.15944 0.22375 0.0
N47 N 0.56124 0.16708 0.19852 0.0
C48 C 0.58118 0.12356 0.19761 0.0
C49 C 0.60157 0.13248 0.21553 0.0
H50 H 0.58137 0.19722 0.22125 0.0
H51 H 0.54528 0.13433 0.17582 0.0
C52 C 0.43143 0.19175 0.19355 0.0
N53 N 0.45312 0.19369 0.21057 0.0
C54 C 0.40811 0.17907 0.20285 0.0
C55 C 0.43002 0.17032 0.2468 0.0
C56 C 0.45263 0.18356 0.23687 0.0
C57 C 0.40735 0.16754 0.22966 0.0
H58 H 0.43252 0.19911 0.1724 0.0
H59 H 0.47035 0.18437 0.2497 0.0
O60 O 0.54776 0.22631 0.17418 0.0
O61 O 0.48926 0.24378 0.18041 0.0
O62 O 0.50275 0.18461 0.16669 0.0
O63 O 0.51572 0.20586 0.22528 0.0
H64 H 0.59294 0.25344 0.171 0.0
H65 H 0.54915 0.1866 0.1374 0.0
H66 H 0.63024 0.24301 0.13849 0.0
H67 H 0.58714 0.17736 0.10554 0.0
H68 H 0.41656 0.28584 0.21691 0.0
H69 H 0.45697 0.23866 0.13692 0.0
H70 H 0.46352 0.27022 0.22017 0.0
H71 H 0.41026 0.25524 0.1349 0.0
H72 H 0.54148 0.2677 0.06921 0.0
H73 H 0.47977 0.20793 0.05837 0.0
H74 H 0.58697 0.28433 0.26449 0.0
H75 H 0.52813 0.33626 0.22668 0.0
H76 H 0.48927 0.15114 0.20732 0.0
H77 H 0.50504 0.15775 0.11929 0.0
H78 H 0.47899 0.10299 0.2006 0.0
H79 H 0.49492 0.10939 0.11418 0.0
H80 H 0.55203 0.19031 0.2623 0.0
H81 H 0.48253 0.2396 0.24988 0.0
H82 H 0.55501 0.20698 0.31089 0.0
H83 H 0.48663 0.25548 0.29875 0.0
H84 H 0.61744 0.16727 0.23704 0.0
H85 H 0.5804 0.10294 0.19072 0.0
H86 H 0.39116 0.17774 0.18886 0.0
H87 H 0.43098 0.16118 0.26725 0.0
Li88 Li 0.30463 0.53135 0.69146 0.0
Li89 Li 0.29294 0.48622 0.70017 0.0
Li90 Li 0.27934 0.50915 0.65553 0.0
Li91 Li 0.25926 0.52229 0.70269 0.0
C92 C 0.34092 0.50572 0.66108 0.0
N93 N 0.39256 0.51865 0.64547 0.0
C94 C 0.36197 0.50288 0.68005 0.0
C95 C 0.34616 0.51503 0.63412 0.0
C96 C 0.38792 0.5096 0.67179 0.0
C97 C 0.37241 0.52145 0.62663 0.0
C98 C 0.28189 0.50627 0.75201 0.0
C99 C 0.251 0.47887 0.77819 0.0
N100 N 0.26419 0.48519 0.80211 0.0
C101 C 0.29519 0.51236 0.77689 0.0
C102 C 0.25967 0.48925 0.75269 0.0
C103 C 0.28592 0.50156 0.80198 0.0
C104 C 0.33589 0.56415 0.72547 0.0
N105 N 0.3318 0.55803 0.69818 0.0
C106 C 0.36407 0.59087 0.68428 0.0
C107 C 0.34549 0.57093 0.67762 0.0
C108 C 0.36867 0.59746 0.71236 0.0
C109 C 0.35435 0.58373 0.73307 0.0
H110 H 0.32444 0.55415 0.74139 0.0
H111 H 0.34179 0.56608 0.65603 0.0
C112 C 0.29708 0.42879 0.7118 0.0
N113 N 0.30595 0.45405 0.71699 0.0
C114 C 0.30996 0.40678 0.72391 0.0
C115 C 0.3401 0.43728 0.74716 0.0
C116 C 0.32669 0.45855 0.73469 0.0
C117 C 0.33207 0.41089 0.74157 0.0
H118 H 0.28036 0.42554 0.69803 0.0
H119 H 0.33322 0.47881 0.73868 0.0
C120 C 0.27918 0.57047 0.66531 0.0
N121 N 0.29359 0.62241 0.65266 0.0
C122 C 0.27634 0.59064 0.68528 0.0
C123 C 0.28913 0.57671 0.63884 0.0
C124 C 0.28382 0.61678 0.6785 0.0
C125 C 0.29634 0.6031 0.63287 0.0
C126 C 0.24409 0.46454 0.67473 0.0
C127 C 0.25526 0.44805 0.65428 0.0
C128 C 0.2198 0.45741 0.68715 0.0
C129 C 0.24197 0.42455 0.64666 0.0
C130 C 0.20715 0.43374 0.67899 0.0
N131 N 0.2184 0.41794 0.65908 0.0
C132 C 0.28504 0.48855 0.60018 0.0
C133 C 0.25155 0.52159 0.60655 0.0
C134 C 0.27937 0.4872 0.57165 0.0
N135 N 0.27125 0.50568 0.61689 0.0
C136 C 0.24543 0.52111 0.57814 0.0
C137 C 0.25954 0.50387 0.56027 0.0
H138 H 0.30071 0.47621 0.60893 0.0
H139 H 0.24087 0.53496 0.62037 0.0
C140 C 0.23049 0.55113 0.74322 0.0
N141 N 0.22792 0.5362 0.71967 0.0
C142 C 0.20822 0.56372 0.75486 0.0
C143 C 0.18105 0.54545 0.7177 0.0
C144 C 0.20385 0.53296 0.70692 0.0
C145 C 0.18317 0.56129 0.74183 0.0
H146 H 0.25001 0.55391 0.75252 0.0
H147 H 0.20252 0.52127 0.68797 0.0
O148 O 0.31537 0.49918 0.66874 0.0
O149 O 0.2911 0.51647 0.72721 0.0
O150 O 0.27225 0.54473 0.67162 0.0
O151 O 0.25649 0.48786 0.6822 0.0
H152 H 0.35832 0.49581 0.70099 0.0
H153 H 0.33012 0.51763 0.61924 0.0
H154 H 0.40437 0.50764 0.68632 0.0
H155 H 0.37673 0.52877 0.60588 0.0
H156 H 0.23379 0.46576 0.77895 0.0
H157 H 0.31265 0.52513 0.77692 0.0
H158 H 0.24913 0.48408 0.73385 0.0
H159 H 0.29606 0.50613 0.82134 0.0
H160 H 0.37471 0.60101 0.66767 0.0
H161 H 0.35683 0.58858 0.75494 0.0
H162 H 0.30286 0.38679 0.71928 0.0
H163 H 0.35725 0.44155 0.76025 0.0
H164 H 0.26866 0.58608 0.70586 0.0
H165 H 0.29163 0.56128 0.62322 0.0
H166 H 0.28189 0.63259 0.69378 0.0
H167 H 0.30425 0.6082 0.61254 0.0
H168 H 0.27423 0.45306 0.64482 0.0
H169 H 0.21079 0.47005 0.7029 0.0
H170 H 0.25046 0.41152 0.63096 0.0
H171 H 0.18837 0.42795 0.68846 0.0
H172 H 0.29085 0.4738 0.55853 0.0
H173 H 0.22981 0.53407 0.57023 0.0
H174 H 0.21079 0.57613 0.7732 0.0
H175 H 0.16207 0.54305 0.70709 0.0
Li176 Li 0.96525 0.30312 0.19284 0.0
Li177 Li 0.01254 0.28882 0.19663 0.0
Li178 Li 0.98609 0.27484 0.15605 0.0
Li179 Li 0.97762 0.25714 0.20377 0.0
C180 C 0.00152 0.33751 0.1624 0.0
N181 N 0.01363 0.39063 0.15266 0.0
C182 C 0.01188 0.35338 0.18386 0.0
C183 C 0.99719 0.34868 0.13605 0.0
C184 C 0.01796 0.38018 0.17848 0.0
C185 C 0.00342 0.37558 0.13155 0.0
C186 C 0.98099 0.28235 0.25299 0.0
C187 C 0.99276 0.25465 0.29234 0.0
N188 N 0.97232 0.26558 0.3072 0.0
C189 C 0.96034 0.29359 0.2688 0.0
C190 C 0.99755 0.26298 0.26497 0.0
C191 C 0.9562 0.28475 0.29611 0.0
C192 C 0.9166 0.31935 0.21413 0.0
N193 N 0.93841 0.3293 0.20073 0.0
C194 C 0.92065 0.37369 0.20355 0.0
C195 C 0.94055 0.35586 0.19486 0.0
C196 C 0.89847 0.36404 0.21847 0.0
C197 C 0.89639 0.33643 0.22336 0.0
H198 H 0.9153 0.29811 0.21829 0.0
H199 H 0.95776 0.36343 0.18388 0.0
C200 C 0.06501 0.3087 0.18769 0.0
N201 N 0.04693 0.30161 0.20756 0.0
C202 C 0.08827 0.32251 0.19508 0.0
C203 C 0.07411 0.32095 0.24326 0.0
C204 C 0.05129 0.30697 0.23497 0.0
C205 C 0.09269 0.32956 0.22313 0.0
H206 H 0.06073 0.30481 0.16595 0.0
H207 H 0.03632 0.30181 0.25027 0.0
C208 C 0.92982 0.27499 0.15885 0.0
N209 N 0.88677 0.28508 0.1243 0.0
C210 C 0.90739 0.25832 0.15956 0.0
C211 C 0.93036 0.29685 0.14067 0.0
C212 C 0.88583 0.26374 0.14189 0.0
C213 C 0.90839 0.3016 0.12335 0.0
C214 C 0.03591 0.24451 0.17939 0.0
C215 C 0.05134 0.24906 0.15554 0.0
C216 C 0.04755 0.23232 0.20265 0.0
C217 C 0.07834 0.24181 0.15556 0.0
C218 C 0.07462 0.22538 0.20187 0.0
N219 N 0.08934 0.23026 0.17855 0.0
C220 C 0.0044 0.28082 0.10082 0.0
C221 C 0.96921 0.24939 0.10613 0.0
C222 C 0.0053 0.27607 0.07212 0.0
N223 N 0.98656 0.26751 0.11712 0.0
C224 C 0.96915 0.24432 0.07747 0.0
C225 C 0.98742 0.25771 0.06012 0.0
H226 H 0.01801 0.29507 0.11016 0.0
H227 H 0.95539 0.23891 0.11962 0.0
C228 C 0.94219 0.23024 0.23915 0.0
N229 N 0.96444 0.22675 0.22324 0.0
C230 C 0.93028 0.20847 0.25244 0.0
C231 C 0.96382 0.17965 0.23192 0.0
C232 C 0.97549 0.20214 0.21951 0.0
C233 C 0.94089 0.18277 0.24853 0.0
H234 H 0.93333 0.24989 0.24099 0.0
H235 H 0.99287 0.1999 0.20627 0.0
O236 O 0.99573 0.31114 0.16697 0.0
O237 O 0.98508 0.29044 0.22602 0.0
O238 O 0.95106 0.26986 0.17601 0.0
O239 O 0.00953 0.25181 0.17989 0.0
H240 H 0.0149 0.34522 0.20451 0.0
H241 H 0.989 0.33672 0.11927 0.0
H242 H 0.02602 0.3927 0.19486 0.0
H243 H 0.00013 0.3845 0.11127 0.0
H244 H 0.0053 0.23949 0.30176 0.0
H245 H 0.9477 0.30903 0.26016 0.0
H246 H 0.01382 0.25436 0.2532 0.0
H247 H 0.94018 0.29316 0.30851 0.0
H248 H 0.92298 0.39486 0.19935 0.0
H249 H 0.87937 0.32811 0.23435 0.0
H250 H 0.10212 0.32845 0.17885 0.0
H251 H 0.07623 0.32634 0.26502 0.0
H252 H 0.9067 0.24135 0.17359 0.0
H253 H 0.94754 0.30999 0.13993 0.0
H254 H 0.86834 0.25098 0.14216 0.0
H255 H 0.90853 0.31843 0.10915 0.0
H256 H 0.04265 0.25831 0.13731 0.0
H257 H 0.03581 0.22812 0.22107 0.0
H258 H 0.09056 0.24541 0.13731 0.0
H259 H 0.08391 0.21605 0.21979 0.0
H260 H 0.01955 0.28693 0.0594 0.0
H261 H 0.95522 0.22982 0.06901 0.0
H262 H 0.9123 0.21151 0.26466 0.0
H263 H 0.97236 0.16003 0.22832 0.0
Li264 Li 0.18844 0.96365 0.68856 0.0
Li265 Li 0.20433 0.00977 0.69655 0.0
Li266 Li 0.21773 0.98443 0.65459 0.0
Li267 Li 0.23534 0.97288 0.701 0.0
C268 C 0.15495 0.99415 0.66008 0.0
N269 N 0.10078 0.98864 0.65023 0.0
C270 C 0.13658 0.00987 0.67474 0.0
C271 C 0.14581 0.97583 0.64023 0.0
C272 C 0.10926 0.00674 0.66949 0.0
C273 C 0.11833 0.97327 0.63561 0.0
C274 C 0.20933 0.97253 0.74942 0.0
C275 C 0.23334 0.9806 0.79223 0.0
N276 N 0.22465 0.95665 0.80224 0.0
C277 C 0.20048 0.94809 0.76017 0.0
C278 C 0.22573 0.98903 0.7656 0.0
C279 C 0.2085 0.94039 0.78692 0.0
C280 C 0.16288 0.91326 0.68822 0.0
N281 N 0.15987 0.93936 0.69548 0.0
C282 C 0.11842 0.92967 0.71822 0.0
C283 C 0.13819 0.94784 0.71012 0.0
C284 C 0.12127 0.90237 0.7117 0.0
C285 C 0.14375 0.89435 0.69613 0.0
H286 H 0.18067 0.90691 0.67725 0.0
H287 H 0.13665 0.9686 0.71626 0.0
C288 C 0.1937 0.06631 0.69636 0.0
N289 N 0.19264 0.04321 0.7113 0.0
C290 C 0.18173 0.0896 0.70666 0.0
C291 C 0.16754 0.06474 0.74727 0.0
C292 C 0.18017 0.04215 0.73645 0.0
C293 C 0.16782 0.08891 0.73221 0.0
H294 H 0.20299 0.06649 0.67602 0.0
H295 H 0.17889 0.02338 0.74755 0.0
C296 C 0.23108 0.93209 0.65204 0.0
N297 N 0.25194 0.90013 0.61035 0.0
C298 C 0.25796 0.92438 0.65284 0.0
C299 C 0.21474 0.92334 0.6302 0.0
C300 C 0.26813 0.90824 0.63153 0.0
C301 C 0.22569 0.90727 0.60926 0.0
C302 C 0.25061 0.0316 0.67926 0.0
C303 C 0.25129 0.04595 0.65425 0.0
C304 C 0.25972 0.04355 0.70385 0.0
C305 C 0.26086 0.07223 0.65432 0.0
C306 C 0.26909 0.06988 0.70306 0.0
N307 N 0.26945 0.08355 0.67853 0.0
C308 C 0.20759 0.99718 0.59803 0.0
C309 C 0.25042 0.97847 0.60663 0.0
C310 C 0.21302 0.99866 0.56947 0.0
N311 N 0.22611 0.98692 0.61587 0.0
C312 C 0.25641 0.97893 0.57818 0.0
C313 C 0.23753 0.98908 0.55932 0.0
H314 H 0.18859 0.00415 0.60598 0.0
H315 H 0.26508 0.97117 0.62134 0.0
C316 C 0.26193 0.93371 0.73178 0.0
N317 N 0.26502 0.9585 0.7206 0.0
C318 C 0.28316 0.92134 0.74552 0.0
C319 C 0.31066 0.95996 0.7354 0.0
C320 C 0.28871 0.9718 0.72217 0.0
C321 C 0.30798 0.93438 0.74725 0.0
H322 H 0.24305 0.92335 0.72955 0.0
H323 H 0.29068 0.99135 0.71273 0.0
O324 O 0.18175 0.99665 0.66516 0.0
O325 O 0.20204 0.98025 0.72314 0.0
O326 O 0.2208 0.94805 0.67258 0.0
O327 O 0.24135 0.00587 0.67962 0.0
H328 H 0.14332 0.02419 0.69013 0.0
H329 H 0.15979 0.96362 0.62862 0.0
H330 H 0.0948 0.01867 0.68078 0.0
H331 H 0.11096 0.95906 0.62041 0.0
H332 H 0.24615 0.99309 0.80493 0.0
H333 H 0.18777 0.93509 0.7479 0.0
H334 H 0.23262 0.00806 0.75759 0.0
H335 H 0.20194 0.92146 0.79547 0.0
H336 H 0.10136 0.93689 0.72994 0.0
H337 H 0.14721 0.87351 0.69112 0.0
H338 H 0.18281 0.10771 0.69434 0.0
H339 H 0.15654 0.06276 0.76662 0.0
H340 H 0.2709 0.93098 0.66957 0.0
H341 H 0.19389 0.92905 0.62933 0.0
H342 H 0.28892 0.90223 0.6318 0.0
H343 H 0.21333 0.9005 0.59213 0.0
H344 H 0.24438 0.03697 0.63501 0.0
H345 H 0.25945 0.03264 0.72334 0.0
H346 H 0.26141 0.08363 0.63514 0.0
H347 H 0.27608 0.07944 0.72196 0.0
H348 H 0.19808 0.00667 0.5554 0.0
H349 H 0.27563 0.97166 0.57099 0.0
H350 H 0.28043 0.90139 0.7539 0.0
H351 H 0.32953 0.9706 0.73629 0.0
Li352 Li 0.48856 0.2908 0.80466 0.0
Li353 Li 0.5352 0.30475 0.80935 0.0
Li354 Li 0.52356 0.25849 0.79791 0.0
Li355 Li 0.51387 0.27679 0.84498 0.0
C356 C 0.51537 0.28474 0.74812 0.0
N357 N 0.51357 0.27051 0.69242 0.0
C358 C 0.53026 0.29904 0.72843 0.0
C359 C 0.49929 0.26347 0.73938 0.0
C360 C 0.52916 0.29148 0.70039 0.0
C361 C 0.49871 0.25651 0.71117 0.0
C362 C 0.49728 0.34003 0.83122 0.0
C363 C 0.48261 0.38202 0.85072 0.0
N364 N 0.48207 0.39281 0.82468 0.0
C365 C 0.49665 0.35155 0.80464 0.0
C366 C 0.49023 0.35537 0.85446 0.0
C367 C 0.48887 0.37825 0.80177 0.0
C368 C 0.43633 0.31074 0.8134 0.0
N369 N 0.45419 0.30377 0.79327 0.0
C370 C 0.42625 0.32288 0.75804 0.0
C371 C 0.44941 0.30928 0.76595 0.0
C372 C 0.40774 0.33103 0.77843 0.0
C373 C 0.41274 0.32414 0.8064 0.0
H374 H 0.44097 0.307 0.83508 0.0
H375 H 0.46417 0.3045 0.75036 0.0
C376 C 0.57814 0.32509 0.7801 0.0
N377 N 0.56178 0.33103 0.80185 0.0
C378 C 0.59775 0.34316 0.77162 0.0
C379 C 0.5846 0.3725 0.80932 0.0
C380 C 0.5648 0.35401 0.81677 0.0
C381 C 0.60102 0.36726 0.78619 0.0
H382 H 0.57582 0.30625 0.76926 0.0
H383 H 0.55189 0.35802 0.83437 0.0
C384 C 0.465 0.24543 0.82247 0.0
N385 N 0.41239 0.22865 0.82569 0.0
C386 C 0.44931 0.25234 0.84549 0.0
C387 C 0.45408 0.22953 0.80134 0.0
C388 C 0.42271 0.2438 0.84667 0.0
C389 C 0.42741 0.22137 0.80328 0.0
C390 C 0.56999 0.27755 0.84411 0.0
C391 C 0.59344 0.26236 0.84341 0.0
C392 C 0.56772 0.29877 0.86297 0.0
C393 C 0.61429 0.26863 0.8617 0.0
C394 C 0.58901 0.3044 0.88091 0.0
N395 N 0.61166 0.28934 0.87991 0.0
C396 C 0.55677 0.23257 0.75952 0.0
C397 C 0.5282 0.20333 0.7847 0.0
C398 C 0.56894 0.21096 0.74619 0.0
N399 N 0.53688 0.22838 0.77836 0.0
C400 C 0.54011 0.18108 0.77215 0.0
C401 C 0.56094 0.18481 0.75284 0.0
H402 H 0.56364 0.25271 0.75539 0.0
H403 H 0.51258 0.20064 0.80007 0.0
C404 C 0.49651 0.28353 0.90052 0.0
N405 N 0.51284 0.2689 0.88375 0.0
C406 C 0.49555 0.27843 0.92915 0.0
C407 C 0.52854 0.24357 0.92274 0.0
C408 C 0.52861 0.24912 0.89417 0.0
C409 C 0.51182 0.25831 0.9406 0.0
H410 H 0.48421 0.29914 0.89161 0.0
H411 H 0.54135 0.23776 0.88029 0.0
O412 O 0.51672 0.29142 0.7758 0.0
O413 O 0.50454 0.31384 0.83467 0.0
O414 O 0.49106 0.25374 0.82091 0.0
O415 O 0.54944 0.27158 0.82632 0.0
H416 H 0.54239 0.31593 0.73464 0.0
H417 H 0.48749 0.25241 0.75429 0.0
H418 H 0.54066 0.30231 0.68496 0.0
H419 H 0.48646 0.23996 0.70419 0.0
H420 H 0.47711 0.39413 0.86854 0.0
H421 H 0.50208 0.34007 0.78639 0.0
H422 H 0.49067 0.34677 0.87518 0.0
H423 H 0.48824 0.38741 0.78133 0.0
H424 H 0.42372 0.32826 0.73632 0.0
H425 H 0.39904 0.32982 0.82286 0.0
H426 H 0.61044 0.33823 0.75402 0.0
H427 H 0.58676 0.39085 0.82113 0.0
H428 H 0.45746 0.26444 0.86212 0.0
H429 H 0.4661 0.2233 0.78376 0.0
H430 H 0.41027 0.24924 0.86425 0.0
H431 H 0.41868 0.20915 0.78702 0.0
H432 H 0.59548 0.24588 0.82889 0.0
H433 H 0.54972 0.31076 0.8638 0.0
H434 H 0.63256 0.25702 0.86142 0.0
H435 H 0.58753 0.32075 0.89562 0.0
H436 H 0.58523 0.21462 0.73178 0.0
H437 H 0.53345 0.16117 0.77779 0.0
H438 H 0.48256 0.29039 0.94225 0.0
H439 H 0.54121 0.22775 0.93074 0.0
Li440 Li 0.19311 0.5332 0.31052 0.0
Li441 Li 0.20418 0.48768 0.30177 0.0
Li442 Li 0.21832 0.51048 0.34629 0.0
Li443 Li 0.23834 0.5234 0.29897 0.0
C444 C 0.15648 0.50773 0.34075 0.0
N445 N 0.10479 0.5209 0.35598 0.0
C446 C 0.13565 0.50568 0.3214 0.0
C447 C 0.15099 0.51637 0.3679 0.0
C448 C 0.10968 0.51251 0.32947 0.0
C449 C 0.12473 0.52292 0.37519 0.0
C450 C 0.21458 0.50772 0.24973 0.0
C451 C 0.24462 0.48028 0.22258 0.0
N452 N 0.23059 0.48643 0.19913 0.0
C453 C 0.20038 0.51362 0.22534 0.0
C454 C 0.23679 0.49076 0.24833 0.0
C455 C 0.20882 0.50272 0.19998 0.0
C456 C 0.16383 0.5676 0.2765 0.0
N457 N 0.16664 0.56054 0.30371 0.0
C458 C 0.13383 0.59303 0.31717 0.0
C459 C 0.15217 0.57291 0.32404 0.0
C460 C 0.13033 0.60035 0.28911 0.0
C461 C 0.14566 0.58736 0.26867 0.0
H462 H 0.17604 0.55815 0.2608 0.0
H463 H 0.15496 0.56743 0.34562 0.0
C464 C 0.20025 0.43031 0.2906 0.0
N465 N 0.19105 0.45541 0.28518 0.0
C466 C 0.18775 0.40803 0.27862 0.0
C467 C 0.15717 0.43789 0.2551 0.0
C468 C 0.17023 0.45947 0.26746 0.0
C469 C 0.16564 0.41166 0.26085 0.0
H470 H 0.21699 0.42741 0.30441 0.0
H471 H 0.16343 0.4796 0.26327 0.0
C472 C 0.21914 0.57143 0.33786 0.0
N473 N 0.20582 0.62291 0.35352 0.0
C474 C 0.22373 0.59275 0.31963 0.0
C475 C 0.20792 0.57625 0.3641 0.0
C476 C 0.21681 0.61865 0.32793 0.0
C477 C 0.20129 0.60243 0.37161 0.0
C478 C 0.25387 0.46593 0.32632 0.0
C479 C 0.24388 0.44925 0.34726 0.0
C480 C 0.27775 0.45924 0.31282 0.0
C481 C 0.25787 0.42599 0.35424 0.0
C482 C 0.29113 0.43579 0.32036 0.0
N483 N 0.281 0.41979 0.34075 0.0
C484 C 0.21269 0.48954 0.40142 0.0
C485 C 0.24627 0.52255 0.39534 0.0
C486 C 0.21837 0.48793 0.42993 0.0
N487 N 0.22653 0.50677 0.38486 0.0
C488 C 0.2524 0.52182 0.42374 0.0
C489 C 0.23826 0.50445 0.44145 0.0
H490 H 0.197 0.47729 0.39255 0.0
H491 H 0.25698 0.53601 0.38163 0.0
C492 C 0.26713 0.55181 0.25812 0.0
N493 N 0.26968 0.53705 0.28178 0.0
C494 C 0.28941 0.56435 0.24642 0.0
C495 C 0.31653 0.54635 0.28376 0.0
C496 C 0.29373 0.53392 0.29459 0.0
C497 C 0.31443 0.56205 0.25953 0.0
H498 H 0.24762 0.55453 0.24878 0.0
H499 H 0.29503 0.52239 0.31365 0.0
O500 O 0.18204 0.50106 0.33327 0.0
O501 O 0.20616 0.51792 0.2748 0.0
O502 O 0.22578 0.54596 0.33016 0.0
O503 O 0.24074 0.48902 0.31944 0.0
H504 H 0.13952 0.49917 0.3003 0.0
H505 H 0.16686 0.51831 0.38309 0.0
H506 H 0.09341 0.51117 0.31465 0.0
H507 H 0.12021 0.52973 0.39609 0.0
H508 H 0.26182 0.4672 0.22125 0.0
H509 H 0.18286 0.52629 0.22593 0.0
H510 H 0.24793 0.48571 0.26684 0.0
H511 H 0.198 0.50715 0.18099 0.0
H512 H 0.12244 0.60263 0.33357 0.0
H513 H 0.14408 0.59284 0.24687 0.0
H514 H 0.19519 0.3882 0.28337 0.0
H515 H 0.14001 0.44178 0.24192 0.0
H516 H 0.23245 0.5893 0.29927 0.0
H517 H 0.20405 0.55993 0.37837 0.0
H518 H 0.22019 0.63537 0.31403 0.0
H519 H 0.19244 0.60645 0.39178 0.0
H520 H 0.22526 0.45393 0.35762 0.0
H521 H 0.2859 0.47204 0.2967 0.0
H522 H 0.25029 0.41281 0.37031 0.0
H523 H 0.3096 0.43034 0.31005 0.0
H524 H 0.20687 0.47444 0.44293 0.0
H525 H 0.26806 0.53467 0.43177 0.0
H526 H 0.28686 0.57665 0.22801 0.0
H527 H 0.3355 0.54406 0.29444 0.0
Li528 Li 0.97741 0.23978 0.79815 0.0
Li529 Li 0.98723 0.2212 0.84513 0.0
Li530 Li 0.01279 0.20763 0.80312 0.0
Li531 Li 0.96544 0.19311 0.80914 0.0
C532 C 0.03626 0.25232 0.82227 0.0
N533 N 0.08914 0.2682 0.82521 0.0
C534 C 0.05 0.25115 0.84764 0.0
C535 C 0.0493 0.26186 0.79847 0.0
C536 C 0.07675 0.25921 0.84868 0.0
C537 C 0.07608 0.26969 0.80035 0.0
C538 C 0.93126 0.22849 0.84446 0.0
C539 C 0.90267 0.20984 0.87998 0.0
N540 N 0.88962 0.23365 0.88194 0.0
C541 C 0.91748 0.25273 0.84665 0.0
C542 C 0.92375 0.20682 0.8611 0.0
C543 C 0.89651 0.25496 0.8658 0.0
C544 C 0.93884 0.26739 0.76817 0.0
N545 N 0.96369 0.27015 0.77928 0.0
C546 C 0.96545 0.31596 0.76509 0.0
C547 C 0.97718 0.29375 0.77798 0.0
C548 C 0.93983 0.31357 0.75326 0.0
C549 C 0.9266 0.28884 0.75471 0.0
H550 H 0.92838 0.24853 0.77014 0.0
H551 H 0.99681 0.29542 0.78733 0.0
C552 C 0.00279 0.21217 0.90109 0.0
N553 N 0.9883 0.22842 0.88408 0.0
C554 C 0.00337 0.21679 0.92983 0.0
C555 C 0.97418 0.2548 0.92297 0.0
C556 C 0.97448 0.24968 0.89434 0.0
C557 C 0.9887 0.23819 0.9411 0.0
H558 H 0.01388 0.19562 0.89231 0.0
H559 H 0.96366 0.26267 0.88028 0.0
C560 C 0.97805 0.21561 0.74909 0.0
N561 N 0.96601 0.23453 0.69641 0.0
C562 C 0.95418 0.2081 0.73607 0.0
C563 C 0.99596 0.23244 0.73518 0.0
C564 C 0.94841 0.21795 0.70946 0.0
C565 C 0.98946 0.24189 0.7086 0.0
C566 C 0.9983 0.15889 0.84149 0.0
C567 C 0.01409 0.14054 0.82686 0.0
C568 C 0.98384 0.15045 0.86484 0.0
C569 C 0.01485 0.1139 0.83567 0.0
C570 C 0.98512 0.12363 0.87296 0.0
N571 N 0.00045 0.10607 0.85833 0.0
C572 C 0.06846 0.19357 0.80576 0.0
C573 C 0.04586 0.18372 0.76357 0.0
C574 C 0.09153 0.18069 0.79612 0.0
N575 N 0.04622 0.19475 0.78946 0.0
C576 C 0.06822 0.17027 0.75333 0.0
C577 C 0.09145 0.16821 0.76978 0.0
H578 H 0.06803 0.20173 0.82661 0.0
H579 H 0.02771 0.18418 0.75134 0.0
C580 C 0.91407 0.17631 0.79576 0.0
N581 N 0.93893 0.16666 0.80134 0.0
C582 C 0.8938 0.15917 0.78678 0.0
C583 C 0.92477 0.12218 0.7902 0.0
C584 C 0.94459 0.14014 0.79879 0.0
C585 C 0.89913 0.13177 0.78361 0.0
H586 H 0.91023 0.19755 0.79736 0.0
H587 H 0.96462 0.13297 0.80249 0.0
O588 O 0.01009 0.24449 0.82082 0.0
O589 O 0.95199 0.22609 0.82604 0.0
O590 O 0.98383 0.20662 0.77536 0.0
O591 O 0.99746 0.18509 0.83331 0.0
H592 H 0.04017 0.24397 0.86629 0.0
H593 H 0.03887 0.26318 0.77876 0.0
H594 H 0.08768 0.25829 0.86814 0.0
H595 H 0.08647 0.27698 0.78207 0.0
H596 H 0.89667 0.19325 0.89306 0.0
H597 H 0.92306 0.26967 0.83382 0.0
H598 H 0.93403 0.18786 0.85938 0.0
H599 H 0.88574 0.27363 0.86783 0.0
H600 H 0.97619 0.33478 0.76442 0.0
H601 H 0.90663 0.28636 0.7463 0.0
H602 H 0.01477 0.2035 0.94316 0.0
H603 H 0.96296 0.27175 0.93082 0.0
H604 H 0.94018 0.19495 0.74645 0.0
H605 H 0.01461 0.23824 0.74488 0.0
H606 H 0.92994 0.21244 0.6992 0.0
H607 H 0.00306 0.25507 0.69766 0.0
H608 H 0.02546 0.14672 0.80879 0.0
H609 H 0.97187 0.16445 0.87666 0.0
H610 H 0.02688 0.09946 0.82448 0.0
H611 H 0.97398 0.1168 0.89096 0.0
H612 H 0.10893 0.17993 0.80953 0.0
H613 H 0.06669 0.16045 0.73327 0.0
H614 H 0.87424 0.16731 0.78202 0.0
H615 H 0.92973 0.10122 0.78765 0.0
Li616 Li 0.26116 0.974 0.29976 0.0
Li617 Li 0.27921 0.98532 0.34607 0.0
Li618 Li 0.29267 0.01067 0.30403 0.0
Li619 Li 0.30813 0.96438 0.31192 0.0
C620 C 0.24651 0.03281 0.32175 0.0
N621 N 0.22776 0.08478 0.32289 0.0
C622 C 0.24627 0.04714 0.34679 0.0
C623 C 0.23701 0.04479 0.29734 0.0
C624 C 0.23673 0.07342 0.34692 0.0
C625 C 0.2277 0.07113 0.29833 0.0
C626 C 0.26536 0.93306 0.34856 0.0
C627 C 0.27067 0.9081 0.39126 0.0
N628 N 0.24438 0.90112 0.39021 0.0
C629 C 0.23843 0.92553 0.3478 0.0
C630 C 0.28168 0.92415 0.37034 0.0
C631 C 0.2282 0.90939 0.36908 0.0
C632 C 0.23399 0.93572 0.26808 0.0
N633 N 0.2311 0.96005 0.28037 0.0
C634 C 0.185 0.9617 0.26718 0.0
C635 C 0.20729 0.97321 0.28015 0.0
C636 C 0.1875 0.93665 0.25416 0.0
C637 C 0.21244 0.92374 0.25449 0.0
H638 H 0.25296 0.92539 0.26933 0.0
H639 H 0.20548 0.99235 0.29048 0.0
C640 C 0.28974 0.99749 0.40272 0.0
N641 N 0.271 0.98774 0.38483 0.0
C642 C 0.28442 0.99876 0.43131 0.0
C643 C 0.24064 0.97995 0.42251 0.0
C644 C 0.24656 0.97963 0.39405 0.0
C645 C 0.25976 0.98956 0.44139 0.0
H646 H 0.30885 0.0042 0.39479 0.0
H647 H 0.23175 0.97266 0.3793 0.0
C648 C 0.28715 0.97385 0.25105 0.0
N649 N 0.27192 0.95892 0.1979 0.0
C650 C 0.29597 0.94958 0.23986 0.0
C651 C 0.27083 0.99066 0.23515 0.0
C652 C 0.28799 0.94236 0.21295 0.0
C653 C 0.26327 0.98271 0.20834 0.0
C654 C 0.34201 0.99444 0.34039 0.0
C655 C 0.36059 0.00992 0.32574 0.0
C656 C 0.3509 0.97598 0.36022 0.0
C657 C 0.38787 0.00643 0.33099 0.0
C658 C 0.37835 0.97306 0.36484 0.0
N659 N 0.39611 0.98821 0.35024 0.0
C660 C 0.30339 0.06737 0.30332 0.0
C661 C 0.31781 0.04227 0.26422 0.0
C662 C 0.31564 0.0904 0.29272 0.0
N663 N 0.30475 0.04391 0.28901 0.0
C664 C 0.33074 0.06458 0.25315 0.0
C665 C 0.33013 0.0891 0.26755 0.0
H666 H 0.29362 0.06805 0.3234 0.0
H667 H 0.31933 0.02324 0.25364 0.0
C668 C 0.33384 0.91397 0.31237 0.0
N669 N 0.33657 0.94001 0.30476 0.0
C670 C 0.35301 0.89513 0.30441 0.0
C671 C 0.37776 0.93039 0.2815 0.0
C672 C 0.35798 0.9485 0.28969 0.0
C673 C 0.37521 0.90315 0.28841 0.0
H674 H 0.31627 0.90762 0.32372 0.0
H675 H 0.3593 0.96922 0.28333 0.0
O676 O 0.25571 0.00707 0.3212 0.0
O677 O 0.27571 0.94899 0.32802 0.0
O678 O 0.29441 0.98109 0.27748 0.0
O679 O 0.31525 0.9973 0.33531 0.0
H680 H 0.25348 0.03812 0.36589 0.0
H681 H 0.23692 0.03389 0.27784 0.0
H682 H 0.23651 0.0848 0.36612 0.0
H683 H 0.22041 0.08072 0.27958 0.0
H684 H 0.28303 0.9012 0.40834 0.0
H685 H 0.22551 0.93223 0.3311 0.0
H686 H 0.30257 0.92973 0.37117 0.0
H687 H 0.20737 0.9035 0.36884 0.0
H688 H 0.16603 0.97218 0.26742 0.0
H689 H 0.21501 0.90417 0.24517 0.0
H690 H 0.29953 0.00636 0.44545 0.0
H691 H 0.22133 0.97293 0.42972 0.0
H692 H 0.30862 0.93634 0.25192 0.0
H693 H 0.26398 0.00956 0.2435 0.0
H694 H 0.29452 0.92357 0.20406 0.0
H695 H 0.25052 0.99545 0.19584 0.0
H696 H 0.35404 0.02435 0.31038 0.0
H697 H 0.33677 0.96394 0.37182 0.0
H698 H 0.40249 0.01818 0.31972 0.0
H699 H 0.38553 0.95875 0.38003 0.0
H700 H 0.31429 0.1088 0.30454 0.0
H701 H 0.34218 0.06212 0.23415 0.0
H702 H 0.34981 0.87432 0.30975 0.0
H703 H 0.3946 0.93761 0.26944 0.0
Li704 Li 0.48295 0.77631 0.844 0.0
Li705 Li 0.50642 0.79147 0.80183 0.0
Li706 Li 0.45983 0.80548 0.81016 0.0
Li707 Li 0.47144 0.7592 0.79689 0.0
C708 C 0.49162 0.83937 0.84083 0.0
N709 N 0.49014 0.89272 0.85587 0.0
C710 C 0.50489 0.8585 0.82466 0.0
C711 C 0.47783 0.84733 0.86479 0.0
C712 C 0.50383 0.88539 0.83257 0.0
C713 C 0.47725 0.8744 0.87201 0.0
C714 C 0.53182 0.74871 0.81654 0.0
C715 C 0.57075 0.73578 0.79006 0.0
N716 N 0.58617 0.73922 0.81318 0.0
C717 C 0.548 0.75201 0.84007 0.0
C718 C 0.54321 0.74042 0.79135 0.0
C719 C 0.57545 0.74713 0.83793 0.0
C720 C 0.47352 0.74534 0.89259 0.0
N721 N 0.48577 0.76768 0.88263 0.0
C722 C 0.50137 0.77888 0.92833 0.0
C723 C 0.49982 0.78422 0.89975 0.0
C724 C 0.48805 0.7565 0.93933 0.0
C725 C 0.4741 0.73953 0.92108 0.0
H726 H 0.46307 0.73214 0.87844 0.0
H727 H 0.5097 0.80164 0.89121 0.0
C728 C 0.54126 0.80985 0.76007 0.0
N729 N 0.53938 0.80516 0.78791 0.0
C730 C 0.56255 0.82472 0.74944 0.0
C731 C 0.58036 0.82858 0.79616 0.0
C732 C 0.55864 0.81362 0.80593 0.0
C733 C 0.58197 0.83506 0.76768 0.0
H734 H 0.5255 0.80331 0.74628 0.0
H735 H 0.55629 0.81014 0.82807 0.0
C736 C 0.42825 0.76604 0.84615 0.0
N737 N 0.39077 0.75386 0.88655 0.0
C738 C 0.41575 0.74103 0.84621 0.0
C739 C 0.42164 0.7849 0.86654 0.0
C740 C 0.39684 0.73525 0.86683 0.0
C741 C 0.40267 0.77834 0.88682 0.0
C742 C 0.46713 0.78557 0.74951 0.0
C743 C 0.44247 0.79521 0.74011 0.0
C744 C 0.48181 0.76796 0.73279 0.0
C745 C 0.43279 0.78686 0.71418 0.0
C746 C 0.47141 0.76005 0.70702 0.0
N747 N 0.44732 0.76958 0.69833 0.0
C748 C 0.44123 0.85689 0.7938 0.0
C749 C 0.4076 0.82676 0.8088 0.0
C750 C 0.42195 0.87604 0.78697 0.0
N751 N 0.43379 0.83287 0.80464 0.0
C752 C 0.38766 0.84519 0.80207 0.0
C753 C 0.39467 0.87018 0.79075 0.0
H754 H 0.46206 0.86086 0.78951 0.0
H755 H 0.40204 0.80715 0.81623 0.0
C756 C 0.47114 0.70621 0.77407 0.0
N757 N 0.45707 0.72925 0.77758 0.0
C758 C 0.4592 0.68419 0.76103 0.0
C759 C 0.41888 0.71032 0.75505 0.0
C760 C 0.43145 0.73164 0.76845 0.0
C761 C 0.43268 0.68609 0.75144 0.0
H762 H 0.49142 0.70481 0.7818 0.0
H763 H 0.42061 0.75006 0.77203 0.0
O764 O 0.4925 0.81293 0.8335 0.0
O765 O 0.50502 0.75391 0.81807 0.0
O766 O 0.44689 0.77198 0.82621 0.0
O767 O 0.4768 0.79323 0.77499 0.0
H768 H 0.51555 0.85275 0.80597 0.0
H769 H 0.46776 0.83275 0.87776 0.0
H770 H 0.51385 0.90043 0.82015 0.0
H771 H 0.46659 0.88085 0.89047 0.0
H772 H 0.57987 0.72949 0.77068 0.0
H773 H 0.53948 0.75847 0.8597 0.0
H774 H 0.53095 0.7378 0.77296 0.0
H775 H 0.58825 0.74972 0.85593 0.0
H776 H 0.51229 0.79245 0.94179 0.0
H777 H 0.4639 0.72187 0.92875 0.0
H778 H 0.56319 0.82907 0.72731 0.0
H779 H 0.59474 0.83644 0.81096 0.0
H780 H 0.42068 0.7262 0.83057 0.0
H781 H 0.43102 0.80438 0.86663 0.0
H782 H 0.38703 0.71596 0.86717 0.0
H783 H 0.39739 0.79273 0.90276 0.0
H784 H 0.43084 0.80886 0.75272 0.0
H785 H 0.50087 0.76023 0.73979 0.0
H786 H 0.41369 0.79408 0.70669 0.0
H787 H 0.48247 0.7463 0.69396 0.0
H788 H 0.42835 0.89501 0.77834 0.0
H789 H 0.36693 0.8394 0.80462 0.0
H790 H 0.4705 0.66584 0.75862 0.0
H791 H 0.39826 0.71247 0.74846 0.0
Li792 Li 0.70347 0.50694 0.30403 0.0
Li793 Li 0.71974 0.48412 0.34778 0.0
Li794 Li 0.73819 0.47198 0.29941 0.0
Li795 Li 0.69238 0.46088 0.31297 0.0
C796 C 0.75382 0.53009 0.3209 0.0
N797 N 0.78064 0.57841 0.32229 0.0
C798 C 0.75113 0.54704 0.34392 0.0
C799 C 0.77061 0.53742 0.29887 0.0
C800 C 0.76474 0.57147 0.34415 0.0
C801 C 0.78386 0.56202 0.29988 0.0
C802 C 0.65799 0.48515 0.34468 0.0
C803 C 0.62969 0.45852 0.37445 0.0
N804 N 0.60783 0.46773 0.36052 0.0
C805 C 0.63528 0.49445 0.33071 0.0
C806 C 0.65525 0.46714 0.36679 0.0
C807 C 0.61008 0.48537 0.33903 0.0
C808 C 0.67121 0.53635 0.26767 0.0
N809 N 0.6887 0.5393 0.28919 0.0
C810 C 0.67994 0.58638 0.29078 0.0
C811 C 0.6932 0.5637 0.30088 0.0
C812 C 0.66188 0.58383 0.26847 0.0
C813 C 0.65781 0.55843 0.25673 0.0
H814 H 0.66697 0.51665 0.25952 0.0
H815 H 0.70637 0.56552 0.31859 0.0
C816 C 0.74841 0.4718 0.39654 0.0
N817 N 0.72857 0.48745 0.38608 0.0
C818 C 0.75422 0.47224 0.42503 0.0
C819 C 0.72002 0.50597 0.43119 0.0
C820 C 0.71449 0.50448 0.40263 0.0
C821 C 0.73983 0.4894 0.44269 0.0
H822 H 0.75939 0.4586 0.3828 0.0
H823 H 0.69878 0.51664 0.39368 0.0
C824 C 0.70842 0.48177 0.24999 0.0
N825 N 0.71594 0.49249 0.19401 0.0
C826 C 0.69647 0.46551 0.2298 0.0
C827 C 0.72408 0.50353 0.24175 0.0
C828 C 0.70055 0.47124 0.20159 0.0
C829 C 0.72766 0.50862 0.21333 0.0
C830 C 0.72877 0.42207 0.33534 0.0
C831 C 0.73523 0.40492 0.31331 0.0
C832 C 0.72545 0.4117 0.36221 0.0
C833 C 0.73834 0.3776 0.3186 0.0
C834 C 0.72868 0.38427 0.36662 0.0
N835 N 0.73503 0.36793 0.3449 0.0
C836 C 0.79181 0.45631 0.29792 0.0
C837 C 0.76931 0.44929 0.25501 0.0
C838 C 0.81459 0.44334 0.28778 0.0
N839 N 0.76967 0.45873 0.28164 0.0
C840 C 0.79173 0.4365 0.24392 0.0
C841 C 0.81456 0.4329 0.26055 0.0
H842 H 0.79138 0.46362 0.31916 0.0
H843 H 0.75133 0.45054 0.24268 0.0
C844 C 0.64637 0.44232 0.28677 0.0
N845 N 0.6644 0.43536 0.30671 0.0
C846 C 0.62628 0.42451 0.27875 0.0
C847 C 0.64346 0.39267 0.31213 0.0
C848 C 0.66283 0.41136 0.31995 0.0
C849 C 0.62501 0.39891 0.2909 0.0
H850 H 0.64786 0.46169 0.27681 0.0
H851 H 0.67686 0.40636 0.33618 0.0
O852 O 0.74086 0.506 0.32043 0.0
O853 O 0.68286 0.49319 0.33635 0.0
O854 O 0.70456 0.47636 0.27766 0.0
O855 O 0.72614 0.44893 0.33077 0.0
H856 H 0.73844 0.54152 0.36128 0.0
H857 H 0.77357 0.52417 0.28129 0.0
H858 H 0.76264 0.58491 0.36171 0.0
H859 H 0.7968 0.56803 0.2829 0.0
H860 H 0.62724 0.44446 0.39142 0.0
H861 H 0.63715 0.50833 0.31347 0.0
H862 H 0.67271 0.45967 0.37766 0.0
H863 H 0.59231 0.49227 0.32834 0.0
H864 H 0.68345 0.6056 0.30056 0.0
H865 H 0.6435 0.55545 0.24004 0.0
H866 H 0.76978 0.45934 0.43319 0.0
H867 H 0.70845 0.51934 0.44426 0.0
H868 H 0.68427 0.44858 0.23588 0.0
H869 H 0.73313 0.51647 0.25712 0.0
H870 H 0.6915 0.45878 0.18573 0.0
H871 H 0.73971 0.52542 0.20665 0.0
H872 H 0.73775 0.41261 0.29238 0.0
H873 H 0.72013 0.42466 0.37943 0.0
H874 H 0.74338 0.36408 0.30177 0.0
H875 H 0.72609 0.37596 0.38728 0.0
H876 H 0.83184 0.44103 0.30124 0.0
H877 H 0.79072 0.42832 0.22301 0.0
H878 H 0.61216 0.43071 0.2629 0.0
H879 H 0.64367 0.37321 0.32204 0.0
Li880 Li 0.01377 0.71964 0.84715 0.0
Li881 Li 0.98822 0.70464 0.80414 0.0
Li882 Li 0.03555 0.69473 0.80969 0.0
Li883 Li 0.02208 0.74011 0.80023 0.0
C884 C 0.01497 0.65872 0.8425 0.0
N885 N 0.0365 0.60998 0.85771 0.0
C886 C 0.00868 0.6357 0.82731 0.0
C887 C 0.03208 0.65699 0.86549 0.0
C888 C 0.01982 0.61123 0.83531 0.0
C889 C 0.04278 0.63215 0.87284 0.0
C890 C 0.96933 0.7576 0.81219 0.0
C891 C 0.94454 0.77498 0.77303 0.0
N892 N 0.93066 0.79122 0.79061 0.0
C893 C 0.95484 0.77444 0.82989 0.0
C894 C 0.96414 0.75781 0.78356 0.0
C895 C 0.93536 0.7913 0.81857 0.0
C896 C 0.03008 0.74362 0.89741 0.0
N897 N 0.01183 0.7267 0.88597 0.0
C898 C 0.99135 0.71965 0.93044 0.0
C899 C 0.99256 0.71484 0.90173 0.0
C900 C 0.01043 0.73645 0.94292 0.0
C901 C 0.02995 0.74855 0.92607 0.0
H902 H 0.04482 0.75319 0.88427 0.0
H903 H 0.97824 0.70156 0.89198 0.0
C904 C 0.95998 0.67017 0.77076 0.0
N905 N 0.95612 0.68985 0.78986 0.0
C906 C 0.93823 0.65653 0.75947 0.0
C907 C 0.9087 0.68379 0.78756 0.0
C908 C 0.93116 0.69697 0.79839 0.0
C909 C 0.91212 0.66315 0.7679 0.0
H910 H 0.98011 0.66475 0.76469 0.0
H911 H 0.92871 0.71259 0.8138 0.0
C912 C 0.07525 0.72865 0.831 0.0
N913 N 0.13032 0.73102 0.83589 0.0
C914 C 0.0909 0.73676 0.80836 0.0
C915 C 0.08761 0.7221 0.85627 0.0
C916 C 0.1187 0.73772 0.8112 0.0
C917 C 0.11548 0.72332 0.85829 0.0
C918 C 0.02462 0.71098 0.74951 0.0
C919 C 0.05178 0.71187 0.7427 0.0
C920 C 0.00545 0.71262 0.72833 0.0
C921 C 0.05935 0.71494 0.71483 0.0
C922 C 0.01381 0.7157 0.70071 0.0
N923 N 0.04037 0.71682 0.69459 0.0
C924 C 0.05594 0.65282 0.77726 0.0
C925 C 0.08307 0.66224 0.81652 0.0
C926 C 0.07398 0.6334 0.76811 0.0
N927 N 0.06109 0.6673 0.80067 0.0
C928 C 0.10181 0.64318 0.80802 0.0
C929 C 0.09764 0.62874 0.78321 0.0
H930 H 0.03784 0.6565 0.76553 0.0
H931 H 0.08622 0.67297 0.83571 0.0
C932 C 0.04822 0.78914 0.79879 0.0
N933 N 0.03259 0.77292 0.78291 0.0
C934 C 0.05995 0.81192 0.78727 0.0
C935 C 0.03792 0.80196 0.74362 0.0
C936 C 0.02673 0.77921 0.75599 0.0
C937 C 0.05529 0.81838 0.75913 0.0
H938 H 0.05242 0.78378 0.82021 0.0
H939 H 0.01384 0.76637 0.74386 0.0
O940 O 0.00502 0.68299 0.83447 0.0
O941 O 0.98821 0.74075 0.82302 0.0
O942 O 0.04795 0.72787 0.82876 0.0
O943 O 0.01672 0.70795 0.77667 0.0
H944 H 0.99558 0.63678 0.80937 0.0
H945 H 0.0373 0.6747 0.8773 0.0
H946 H 0.01527 0.59326 0.82367 0.0
H947 H 0.05617 0.6305 0.89049 0.0
H948 H 0.94032 0.77533 0.7509 0.0
H949 H 0.95857 0.77441 0.85214 0.0
H950 H 0.97504 0.74477 0.76966 0.0
H951 H 0.92395 0.80443 0.83201 0.0
H952 H 0.97605 0.70995 0.94285 0.0
H953 H 0.04476 0.7619 0.93495 0.0
H954 H 0.94196 0.64039 0.74491 0.0
H955 H 0.88894 0.68961 0.79456 0.0
H956 H 0.08171 0.74254 0.78887 0.0
H957 H 0.07587 0.71564 0.87399 0.0
H958 H 0.13103 0.74391 0.79381 0.0
H959 H 0.12531 0.71808 0.87764 0.0
H960 H 0.06688 0.70986 0.75869 0.0
H961 H 0.98432 0.71164 0.73316 0.0
H962 H 0.08032 0.71572 0.70928 0.0
H963 H 0.9992 0.71717 0.68413 0.0
H964 H 0.06945 0.62226 0.74932 0.0
H965 H 0.11968 0.64036 0.82042 0.0
H966 H 0.0734 0.82369 0.80003 0.0
H967 H 0.03329 0.80641 0.72204 0.0
Li968 Li 0.77914 0.01185 0.34546 0.0
Li969 Li 0.79545 0.9893 0.3019 0.0
Li970 Li 0.80673 0.03488 0.31116 0.0
Li971 Li 0.76129 0.02456 0.2973 0.0
C972 C 0.84022 0.01144 0.34415 0.0
N973 N 0.88885 0.03067 0.36276 0.0
C974 C 0.86397 0.00266 0.3318 0.0
C975 C 0.84116 0.02988 0.36605 0.0
C976 C 0.88837 0.01265 0.34149 0.0
C977 C 0.86596 0.0394 0.37514 0.0
C978 C 0.74515 0.96662 0.32229 0.0
C979 C 0.71089 0.93473 0.31007 0.0
N980 N 0.71841 0.91915 0.33199 0.0
C981 C 0.75243 0.95042 0.3448 0.0
C982 C 0.72409 0.95886 0.30488 0.0
C983 C 0.7387 0.92645 0.34932 0.0
C984 C 0.7485 0.02195 0.39351 0.0
N985 N 0.77009 0.00839 0.38366 0.0
C986 C 0.78021 0.99203 0.4293 0.0
C987 C 0.78581 0.99346 0.40078 0.0
C988 C 0.75847 0.00642 0.44021 0.0
C989 C 0.74239 0.02139 0.42193 0.0
H990 H 0.73638 0.03364 0.37932 0.0
H991 H 0.80293 0.98298 0.39232 0.0
C992 C 0.83189 0.96173 0.27016 0.0
N993 N 0.80987 0.95732 0.28613 0.0
C994 C 0.84581 0.94036 0.25844 0.0
C995 C 0.81404 0.91004 0.27955 0.0
C996 C 0.80058 0.93211 0.29077 0.0
C997 C 0.8371 0.91404 0.26329 0.0
H998 H 0.83896 0.98196 0.26699 0.0
H999 H 0.78306 0.92896 0.30344 0.0
C1000 C 0.77068 0.07393 0.33389 0.0
N1001 N 0.76501 0.12797 0.34435 0.0
C1002 C 0.76565 0.09163 0.31195 0.0
C1003 C 0.77284 0.08367 0.36114 0.0
C1004 C 0.76282 0.1189 0.31768 0.0
C1005 C 0.76994 0.11107 0.36599 0.0
C1006 C 0.78923 0.01129 0.24885 0.0
C1007 C 0.80312 0.02216 0.22623 0.0
C1008 C 0.76992 0.99156 0.24429 0.0
C1009 C 0.79732 0.01316 0.1993 0.0
C1010 C 0.76471 0.98308 0.21706 0.0
N1011 N 0.7784 0.99397 0.19531 0.0
C1012 C 0.85294 0.05362 0.28549 0.0
C1013 C 0.83655 0.08412 0.31916 0.0
C1014 C 0.87318 0.07143 0.27788 0.0
N1015 N 0.83487 0.06037 0.30546 0.0
C1016 C 0.85605 0.10283 0.31174 0.0
C1017 C 0.87454 0.09684 0.29046 0.0
H1018 H 0.85139 0.03441 0.27519 0.0
H1019 H 0.82253 0.08891 0.33547 0.0
C1020 C 0.70691 0.03763 0.29339 0.0
N1021 N 0.73036 0.03806 0.27903 0.0
C1022 C 0.68432 0.05048 0.28266 0.0
C1023 C 0.71018 0.06312 0.24212 0.0
C1024 C 0.73234 0.05028 0.25376 0.0
C1025 C 0.68593 0.06378 0.25688 0.0
H1026 H 0.70606 0.02807 0.31362 0.0
H1027 H 0.75137 0.0511 0.24313 0.0
O1028 O 0.8161 0.00254 0.33445 0.0
O1029 O 0.75802 0.99035 0.31772 0.0
O1030 O 0.77313 0.04713 0.32887 0.0
O1031 O 0.79488 0.01983 0.27531 0.0
H1032 H 0.86355 0.98843 0.31479 0.0
H1033 H 0.8229 0.03704 0.37565 0.0
H1034 H 0.90692 0.00613 0.33206 0.0
H1035 H 0.867 0.0538 0.39195 0.0
H1036 H 0.69462 0.92841 0.29672 0.0
H1037 H 0.76872 0.9561 0.35841 0.0
H1038 H 0.71796 0.97139 0.2876 0.0
H1039 H 0.74421 0.91361 0.36656 0.0
H1040 H 0.79319 0.98045 0.44278 0.0
H1041 H 0.72532 0.03257 0.42954 0.0
H1042 H 0.86373 0.9444 0.24646 0.0
H1043 H 0.80656 0.89008 0.28364 0.0
H1044 H 0.76407 0.08442 0.29074 0.0
H1045 H 0.77695 0.07024 0.37832 0.0
H1046 H 0.75891 0.13286 0.30092 0.0
H1047 H 0.77163 0.11891 0.38696 0.0
H1048 H 0.81819 0.03741 0.22947 0.0
H1049 H 0.75914 0.98283 0.26156 0.0
H1050 H 0.80789 0.02142 0.18158 0.0
H1051 H 0.74981 0.96782 0.21321 0.0
H1052 H 0.88733 0.06539 0.262 0.0
H1053 H 0.85591 0.12212 0.322 0.0
H1054 H 0.66594 0.05046 0.29464 0.0
H1055 H 0.71238 0.07353 0.22243 0.0
Li1056 Li 0.47586 0.74098 0.20132 0.0
Li1057 Li 0.4621 0.69562 0.19185 0.0
Li1058 Li 0.50927 0.70506 0.19745 0.0
Li1059 Li 0.4842 0.72005 0.15412 0.0
C1060 C 0.47177 0.71316 0.25169 0.0
N1061 N 0.45363 0.72167 0.30543 0.0
C1062 C 0.44433 0.71386 0.25724 0.0
C1063 C 0.49 0.71648 0.27355 0.0
C1064 C 0.43555 0.71826 0.28452 0.0
C1065 C 0.48043 0.72086 0.30056 0.0
C1066 C 0.42301 0.72903 0.16862 0.0
C1067 C 0.38452 0.72289 0.1389 0.0
N1068 N 0.3683 0.73042 0.16029 0.0
C1069 C 0.40596 0.73698 0.1902 0.0
C1070 C 0.41224 0.72216 0.14266 0.0
C1071 C 0.37836 0.73743 0.18562 0.0
C1072 C 0.44882 0.78953 0.20229 0.0
N1073 N 0.46516 0.77404 0.21818 0.0
C1074 C 0.45989 0.8038 0.2569 0.0
C1075 C 0.47142 0.78109 0.24481 0.0
C1076 C 0.44181 0.81944 0.24141 0.0
C1077 C 0.43676 0.81227 0.21354 0.0
H1078 H 0.44433 0.78365 0.18109 0.0
H1079 H 0.48486 0.76889 0.25695 0.0
C1080 C 0.44143 0.65396 0.2243 0.0
N1081 N 0.43635 0.66835 0.20081 0.0
C1082 C 0.42341 0.63452 0.23343 0.0
C1083 C 0.39569 0.64413 0.1934 0.0
C1084 C 0.41441 0.66321 0.18492 0.0
C1085 C 0.39983 0.62975 0.21826 0.0
H1086 H 0.45948 0.65774 0.2361 0.0
H1087 H 0.41129 0.67389 0.16569 0.0
C1088 C 0.5309 0.75568 0.18764 0.0
N1089 N 0.57494 0.78402 0.20603 0.0
C1090 C 0.54862 0.76696 0.16841 0.0
C1091 C 0.53561 0.75866 0.21619 0.0
C1092 C 0.57077 0.78126 0.17813 0.0
C1093 C 0.55796 0.77311 0.22509 0.0
C1094 C 0.48313 0.65872 0.1603 0.0
C1095 C 0.48988 0.63655 0.1766 0.0
C1096 C 0.46616 0.65561 0.13737 0.0
C1097 C 0.47931 0.61151 0.16974 0.0
C1098 C 0.45603 0.63023 0.13119 0.0
N1099 N 0.46274 0.6089 0.14739 0.0
C1100 C 0.53896 0.67465 0.23438 0.0
C1101 C 0.56538 0.69302 0.19801 0.0
C1102 C 0.56095 0.66082 0.24492 0.0
N1103 N 0.54152 0.69026 0.21134 0.0
C1104 C 0.58794 0.67925 0.2077 0.0
C1105 C 0.58577 0.6627 0.23133 0.0
H1106 H 0.51957 0.67224 0.24406 0.0
H1107 H 0.5667 0.70528 0.17946 0.0
C1108 C 0.46969 0.74564 0.10414 0.0
N1109 N 0.48637 0.72701 0.11528 0.0
C1110 C 0.46996 0.75067 0.07549 0.0
C1111 C 0.50546 0.71814 0.07049 0.0
C1112 C 0.50419 0.71341 0.09922 0.0
C1113 C 0.48796 0.73677 0.0583 0.0
H1114 H 0.45599 0.75642 0.11752 0.0
H1115 H 0.51728 0.69877 0.10873 0.0
O1116 O 0.48084 0.70884 0.22513 0.0
O1117 O 0.45013 0.72875 0.17256 0.0
O1118 O 0.50957 0.74101 0.17848 0.0
O1119 O 0.49258 0.68351 0.16715 0.0
H1120 H 0.42996 0.71076 0.24072 0.0
H1121 H 0.51132 0.71598 0.26968 0.0
H1122 H 0.41436 0.71888 0.28909 0.0
H1123 H 0.49431 0.72364 0.31763 0.0
H1124 H 0.37591 0.71741 0.119 0.0
H1125 H 0.41393 0.743 0.2102 0.0
H1126 H 0.4251 0.71586 0.12573 0.0
H1127 H 0.36495 0.74348 0.20218 0.0
H1128 H 0.46482 0.80883 0.27827 0.0
H1129 H 0.42279 0.82344 0.20081 0.0
H1130 H 0.4279 0.62344 0.25227 0.0
H1131 H 0.37786 0.64123 0.18094 0.0
H1132 H 0.54535 0.76458 0.14621 0.0
H1133 H 0.52235 0.7496 0.23128 0.0
H1134 H 0.58468 0.79011 0.1635 0.0
H1135 H 0.56189 0.77555 0.24714 0.0
H1136 H 0.5029 0.63874 0.19451 0.0
H1137 H 0.46063 0.67266 0.12469 0.0
H1138 H 0.48422 0.59418 0.18225 0.0
H1139 H 0.44275 0.62751 0.1136 0.0
H1140 H 0.55825 0.64783 0.26279 0.0
H1141 H 0.60673 0.68117 0.19662 0.0
H1142 H 0.45639 0.76542 0.06689 0.0
H1143 H 0.51953 0.70696 0.05786 0.0
Li1144 Li 0.76133 0.47297 0.70385 0.0
Li1145 Li 0.80829 0.4632 0.69114 0.0
Li1146 Li 0.79257 0.50943 0.6986 0.0
Li1147 Li 0.77883 0.48415 0.65693 0.0
C1148 C 0.78861 0.47273 0.75233 0.0
N1149 N 0.77559 0.45736 0.806 0.0
C1150 C 0.80017 0.44983 0.76397 0.0
C1151 C 0.77062 0.48793 0.76805 0.0
C1152 C 0.79329 0.44238 0.79113 0.0
C1153 C 0.76423 0.47978 0.79512 0.0
C1154 C 0.76614 0.43109 0.65533 0.0
C1155 C 0.77285 0.40528 0.61341 0.0
N1156 N 0.74698 0.3969 0.61469 0.0
C1157 C 0.73966 0.42212 0.65634 0.0
C1158 C 0.78294 0.42249 0.63382 0.0
C1159 C 0.73034 0.40486 0.63556 0.0
C1160 C 0.70671 0.46979 0.71995 0.0
N1161 N 0.73131 0.45858 0.72309 0.0
C1162 C 0.71304 0.42323 0.75074 0.0
C1163 C 0.7348 0.43567 0.73795 0.0
C1164 C 0.68734 0.434 0.74737 0.0
C1165 C 0.68423 0.45762 0.73183 0.0
H1166 H 0.70445 0.48773 0.70754 0.0
H1167 H 0.75441 0.42664 0.73923 0.0
C1168 C 0.85993 0.44621 0.70914 0.0
N1169 N 0.83651 0.43831 0.69728 0.0
C1170 C 0.87955 0.42735 0.71585 0.0
C1171 C 0.85038 0.3926 0.69842 0.0
C1172 C 0.83149 0.41213 0.69181 0.0
C1173 C 0.87478 0.40002 0.71083 0.0
H1174 H 0.8631 0.46706 0.7141 0.0
H1175 H 0.8124 0.40625 0.68321 0.0
C1176 C 0.74749 0.53199 0.68218 0.0
N1177 N 0.73192 0.585 0.68281 0.0
C1178 C 0.74929 0.5474 0.65793 0.0
C1179 C 0.73755 0.54342 0.70668 0.0
C1180 C 0.74136 0.5742 0.65869 0.0
C1181 C 0.72985 0.57029 0.70659 0.0
C1182 C 0.84156 0.494 0.66127 0.0
C1183 C 0.86012 0.50956 0.67585 0.0
C1184 C 0.85034 0.47664 0.64034 0.0
C1185 C 0.88729 0.50728 0.66938 0.0
C1186 C 0.87767 0.47491 0.63452 0.0
N1187 N 0.89543 0.49013 0.64905 0.0
C1188 C 0.81203 0.54527 0.73907 0.0
C1189 C 0.80892 0.56355 0.69357 0.0
C1190 C 0.82544 0.56801 0.74856 0.0
N1191 N 0.80452 0.54327 0.71191 0.0
C1192 C 0.82209 0.58678 0.70223 0.0
C1193 C 0.83128 0.58892 0.72989 0.0
H1194 H 0.80898 0.5286 0.75304 0.0
H1195 H 0.80339 0.56115 0.67191 0.0
C1196 C 0.74718 0.47638 0.60831 0.0
N1197 N 0.77061 0.4865 0.61815 0.0
C1198 C 0.74161 0.47694 0.57977 0.0
C1199 C 0.7835 0.50004 0.57222 0.0
C1200 C 0.78855 0.49848 0.60085 0.0
C1201 C 0.75995 0.48882 0.5614 0.0
H1202 H 0.73288 0.46771 0.6226 0.0
H1203 H 0.80683 0.50677 0.60928 0.0
O1204 O 0.795 0.48028 0.72574 0.0
O1205 O 0.77558 0.4481 0.67539 0.0
O1206 O 0.7554 0.50582 0.68194 0.0
O1207 O 0.8149 0.49582 0.66738 0.0
H1208 H 0.81417 0.43787 0.75211 0.0
H1209 H 0.76158 0.50574 0.75935 0.0
H1210 H 0.80199 0.42465 0.80038 0.0
H1211 H 0.75023 0.49128 0.80747 0.0
H1212 H 0.78559 0.39857 0.59655 0.0
H1213 H 0.7264 0.42854 0.67289 0.0
H1214 H 0.80352 0.42914 0.63285 0.0
H1215 H 0.70987 0.39784 0.63601 0.0
H1216 H 0.71608 0.40474 0.7621 0.0
H1217 H 0.66461 0.46632 0.72865 0.0
H1218 H 0.89807 0.4341 0.72523 0.0
H1219 H 0.84538 0.3718 0.69482 0.0
H1220 H 0.75692 0.53881 0.63879 0.0
H1221 H 0.73587 0.53168 0.72556 0.0
H1222 H 0.74277 0.58642 0.64012 0.0
H1223 H 0.72222 0.57945 0.72543 0.0
H1224 H 0.85368 0.52308 0.69215 0.0
H1225 H 0.8362 0.4646 0.62875 0.0
H1226 H 0.9019 0.51911 0.68058 0.0
H1227 H 0.88477 0.46148 0.61844 0.0
H1228 H 0.83255 0.5684 0.76989 0.0
H1229 H 0.8259 0.60245 0.68714 0.0
H1230 H 0.72307 0.4684 0.57214 0.0
H1231 H 0.79807 0.50938 0.55861 0.0
Li1232 Li 0.03661 0.80722 0.19052 0.0
Li1233 Li 0.0263 0.7608 0.2036 0.0
Li1234 Li 0.01548 0.77778 0.15667 0.0
Li1235 Li 0.99032 0.79211 0.19786 0.0
C1236 C 0.06736 0.76389 0.15451 0.0
N1237 N 0.09888 0.74267 0.11265 0.0
C1238 C 0.07475 0.73692 0.15527 0.0
C1239 C 0.07618 0.78012 0.13261 0.0
C1240 C 0.09068 0.72657 0.13388 0.0
C1241 C 0.09202 0.76899 0.11159 0.0
C1242 C 0.0278 0.78726 0.25126 0.0
C1243 C 0.02169 0.76227 0.29383 0.0
N1244 N 0.04551 0.77173 0.3034 0.0
C1245 C 0.05216 0.79683 0.26155 0.0
C1246 C 0.01235 0.76996 0.26756 0.0
C1247 C 0.06078 0.78872 0.28795 0.0
C1248 C 0.05415 0.85808 0.20985 0.0
N1249 N 0.06173 0.83525 0.19661 0.0
C1250 C 0.10742 0.84927 0.19679 0.0
C1251 C 0.08772 0.83062 0.18991 0.0
C1252 C 0.10034 0.87301 0.21073 0.0
C1253 C 0.07317 0.87746 0.21685 0.0
H1254 H 0.03347 0.86091 0.21571 0.0
H1255 H 0.09335 0.81197 0.18017 0.0
C1256 C 0.02719 0.70776 0.22615 0.0
N1257 N 0.0407 0.73124 0.22357 0.0
C1258 C 0.0393 0.68586 0.23925 0.0
C1259 C 0.0786 0.71303 0.24728 0.0
C1260 C 0.06589 0.73422 0.23378 0.0
C1261 C 0.06542 0.68834 0.24985 0.0
H1262 H 0.00728 0.70587 0.21754 0.0
H1263 H 0.07635 0.75296 0.23084 0.0
C1264 C 0.00679 0.84088 0.16117 0.0
N1265 N 0.0123 0.89495 0.15063 0.0
C1266 C 0.9916 0.85947 0.17613 0.0
C1267 C 0.02466 0.84976 0.14075 0.0
C1268 C 0.99469 0.88673 0.1705 0.0
C1269 C 0.02721 0.87718 0.13577 0.0
C1270 C 0.96702 0.74782 0.18177 0.0
C1271 C 0.95208 0.74941 0.15718 0.0
C1272 C 0.95477 0.73927 0.20642 0.0
C1273 C 0.92496 0.74263 0.15773 0.0
C1274 C 0.9276 0.7327 0.20611 0.0
N1275 N 0.91338 0.73451 0.18198 0.0
C1276 C 0.02076 0.74449 0.10897 0.0
C1277 C 0.00335 0.78778 0.10002 0.0
C1278 C 0.0201 0.73831 0.08057 0.0
N1279 N 0.01303 0.7691 0.11801 0.0
C1280 C 0.00179 0.78223 0.0715 0.0
C1281 C 0.01059 0.75736 0.06149 0.0
H1282 H 0.02762 0.72972 0.12381 0.0
H1283 H 0.99688 0.80701 0.10782 0.0
C1284 C 0.95325 0.81112 0.23766 0.0
N1285 N 0.95642 0.80454 0.21036 0.0
C1286 C 0.9305 0.82501 0.24636 0.0
C1287 C 0.91418 0.82405 0.1989 0.0
C1288 C 0.9373 0.81025 0.19109 0.0
C1289 C 0.91093 0.83235 0.22672 0.0
H1290 H 0.96906 0.80694 0.2524 0.0
H1291 H 0.94065 0.80534 0.1694 0.0
O1292 O 0.05156 0.77434 0.17509 0.0
O1293 O 0.01919 0.79466 0.22531 0.0
O1294 O 0.00424 0.81411 0.16651 0.0
O1295 O 0.99349 0.7547 0.18175 0.0
H1296 H 0.06806 0.72406 0.17203 0.0
H1297 H 0.07068 0.80103 0.13176 0.0
H1298 H 0.09645 0.70571 0.13411 0.0
H1299 H 0.09885 0.78127 0.09442 0.0
H1300 H 0.01003 0.74876 0.3066 0.0
H1301 H 0.06439 0.81021 0.2492 0.0
H1302 H 0.99348 0.76235 0.25987 0.0
H1303 H 0.07964 0.79587 0.29614 0.0
H1304 H 0.12809 0.84452 0.19224 0.0
H1305 H 0.06666 0.89548 0.22738 0.0
H1306 H 0.02848 0.66714 0.24084 0.0
H1307 H 0.09891 0.71565 0.25466 0.0
H1308 H 0.97778 0.853 0.19213 0.0
H1309 H 0.03651 0.83562 0.12894 0.0
H1310 H 0.98315 0.90135 0.182 0.0
H1311 H 0.04104 0.88435 0.1201 0.0
H1312 H 0.96127 0.75601 0.13793 0.0
H1313 H 0.96609 0.73789 0.2256 0.0
H1314 H 0.91311 0.74388 0.13889 0.0
H1315 H 0.91781 0.72618 0.22506 0.0
H1316 H 0.02673 0.71878 0.07359 0.0
H1317 H 0.99434 0.7974 0.05736 0.0
H1318 H 0.92913 0.83136 0.26792 0.0
H1319 H 0.89953 0.82907 0.1831 0.0
Li1320 Li 0.69388 0.03643 0.68923 0.0
Li1321 Li 0.73908 0.02416 0.70178 0.0
Li1322 Li 0.72066 0.01328 0.65451 0.0
Li1323 Li 0.7041 0.99011 0.69724 0.0
C1324 C 0.73292 0.07501 0.67841 0.0
N1325 N 0.74481 0.12719 0.69289 0.0
C1326 C 0.72959 0.08365 0.70595 0.0
C1327 C 0.74224 0.09292 0.65824 0.0
C1328 C 0.73575 0.1101 0.71285 0.0
C1329 C 0.74814 0.11922 0.66597 0.0
C1330 C 0.70957 0.01245 0.75121 0.0
C1331 C 0.72783 0.98223 0.78546 0.0
N1332 N 0.71681 0.99732 0.8061 0.0
C1333 C 0.69831 0.0276 0.77271 0.0
C1334 C 0.72438 0.98954 0.75757 0.0
C1335 C 0.70226 0.01965 0.80035 0.0
C1336 C 0.64789 0.0554 0.71497 0.0
N1337 N 0.66637 0.06207 0.6954 0.0
C1338 C 0.64645 0.10516 0.68957 0.0
C1339 C 0.66563 0.0861 0.68215 0.0
C1340 C 0.62759 0.09922 0.7105 0.0
C1341 C 0.62811 0.07362 0.72269 0.0
H1342 H 0.64883 0.036 0.72492 0.0
H1343 H 0.68032 0.09077 0.66633 0.0
C1344 C 0.79055 0.04476 0.70139 0.0
N1345 N 0.77113 0.03662 0.71935 0.0
C1346 C 0.81311 0.05822 0.71127 0.0
C1347 C 0.79605 0.05345 0.75818 0.0
C1348 C 0.7736 0.04042 0.74735 0.0
C1349 C 0.81582 0.0631 0.73998 0.0
H1350 H 0.7879 0.0418 0.67919 0.0
H1351 H 0.75778 0.03449 0.76129 0.0
C1352 C 0.66082 0.01519 0.6536 0.0
N1353 N 0.61501 0.03717 0.63092 0.0
C1354 C 0.63567 0.00734 0.66337 0.0
C1355 C 0.6627 0.03413 0.63223 0.0
C1356 C 0.61274 0.01872 0.65165 0.0
C1357 C 0.63929 0.04502 0.62105 0.0
C1358 C 0.7532 0.96581 0.67983 0.0
C1359 C 0.74744 0.94826 0.65794 0.0
C1360 C 0.77164 0.95837 0.70033 0.0
C1361 C 0.75999 0.92328 0.65716 0.0
C1362 C 0.78372 0.9332 0.69883 0.0
N1363 N 0.77769 0.91632 0.67746 0.0
C1364 C 0.7472 0.02692 0.60485 0.0
C1365 C 0.71551 0.99187 0.60015 0.0
C1366 C 0.75258 0.02621 0.57627 0.0
N1367 N 0.72882 0.01003 0.61607 0.0
C1368 C 0.72052 0.99023 0.57152 0.0
C1369 C 0.73907 0.00775 0.55923 0.0
H1370 H 0.75746 0.04113 0.61808 0.0
H1371 H 0.70076 0.97892 0.60966 0.0
C1372 C 0.66366 0.96427 0.72373 0.0
N1373 N 0.68782 0.95867 0.71217 0.0
C1374 C 0.64741 0.94379 0.73375 0.0
C1375 C 0.68176 0.91195 0.72122 0.0
C1376 C 0.69737 0.93317 0.71121 0.0
C1377 C 0.65616 0.91717 0.73206 0.0
H1378 H 0.6568 0.98477 0.72464 0.0
H1379 H 0.71674 0.9291 0.70229 0.0
O1380 O 0.72719 0.04916 0.6711 0.0
O1381 O 0.70568 0.01995 0.72409 0.0
O1382 O 0.68356 0.00499 0.66538 0.0
O1383 O 0.74136 0.99043 0.68086 0.0
H1384 H 0.72232 0.07013 0.72185 0.0
H1385 H 0.74483 0.08659 0.63682 0.0
H1386 H 0.73331 0.11704 0.73407 0.0
H1387 H 0.75535 0.13331 0.65057 0.0
H1388 H 0.73927 0.96456 0.7907 0.0
H1389 H 0.68672 0.04536 0.76806 0.0
H1390 H 0.7331 0.97756 0.74116 0.0
H1391 H 0.69374 0.03123 0.81722 0.0
H1392 H 0.64711 0.12463 0.6797 0.0
H1393 H 0.61364 0.06778 0.73835 0.0
H1394 H 0.828 0.06527 0.69658 0.0
H1395 H 0.79725 0.05716 0.78042 0.0
H1396 H 0.63384 0.99273 0.67989 0.0
H1397 H 0.68202 0.04066 0.62466 0.0
H1398 H 0.59314 0.01291 0.65907 0.0
H1399 H 0.64044 0.05981 0.60461 0.0
H1400 H 0.73327 0.95375 0.6419 0.0
H1401 H 0.77662 0.97192 0.71717 0.0
H1402 H 0.75562 0.90942 0.64043 0.0
H1403 H 0.79795 0.92711 0.71461 0.0
H1404 H 0.76719 0.03989 0.56759 0.0
H1405 H 0.70952 0.97591 0.55901 0.0
H1406 H 0.62801 0.94872 0.74244 0.0
H1407 H 0.6892 0.89165 0.7196 0.0
C1408 C 0.37034 0.13458 0.21971 0.0
C1409 C 0.38434 0.15063 0.23892 0.0
H1410 H 0.34151 0.10364 0.21339 0.0
C1411 C 0.37774 0.14847 0.26739 0.0
H1412 H 0.37477 0.13543 0.19763 0.0
C1413 C 0.35935 0.12933 0.27659 0.0
C1414 C 0.34653 0.11218 0.25751 0.0
H1415 H 0.38745 0.16095 0.28283 0.0
H1416 H 0.35627 0.12723 0.29883 0.0
C1417 C 0.3515 0.11586 0.22885 0.0
C1418 C 0.35382 0.36583 0.7359 0.0
C1419 C 0.34795 0.3881 0.75276 0.0
H1420 H 0.37668 0.32993 0.73102 0.0
C1421 C 0.35952 0.38961 0.77946 0.0
H1422 H 0.34536 0.36402 0.71518 0.0
C1423 C 0.37794 0.3704 0.78829 0.0
C1424 C 0.38507 0.34896 0.77078 0.0
H1425 H 0.35504 0.40619 0.79323 0.0
H1426 H 0.38758 0.37322 0.8083 0.0
C1427 C 0.37209 0.34644 0.74485 0.0
C1428 C 0.12133 0.36986 0.21368 0.0
C1429 C 0.11469 0.34819 0.23109 0.0
H1430 H 0.14316 0.40637 0.20902 0.0
C1431 C 0.1274 0.34611 0.25721 0.0
H1432 H 0.11185 0.37236 0.19353 0.0
C1433 C 0.14495 0.36607 0.26639 0.0
C1434 C 0.15034 0.3885 0.24958 0.0
H1435 H 0.12315 0.32947 0.27098 0.0
H1436 H 0.15322 0.36452 0.2872 0.0
C1437 C 0.13902 0.38966 0.22275 0.0
C1438 C 0.13827 0.12876 0.72274 0.0
C1439 C 0.15163 0.11221 0.74199 0.0
H1440 H 0.10989 0.1601 0.71631 0.0
C1441 C 0.14738 0.11668 0.77064 0.0
H1442 H 0.14078 0.12602 0.7005 0.0
C1443 C 0.12875 0.13563 0.77972 0.0
C1444 C 0.11422 0.15108 0.7604 0.0
H1445 H 0.15779 0.10491 0.78619 0.0
H1446 H 0.12488 0.13711 0.80188 0.0
C1447 C 0.12006 0.1481 0.73184 0.0
C1448 C 0.62867 0.85418 0.76614 0.0
C1449 C 0.60178 0.85493 0.75751 0.0
H1450 H 0.66721 0.87325 0.76459 0.0
C1451 C 0.59331 0.87578 0.73994 0.0
H1452 H 0.63575 0.83832 0.77965 0.0
C1453 C 0.61112 0.89564 0.73151 0.0
C1454 C 0.63791 0.89516 0.74035 0.0
H1455 H 0.57265 0.87717 0.73325 0.0
H1456 H 0.60387 0.91152 0.7181 0.0
C1457 C 0.64666 0.87403 0.75743 0.0
C1458 C 0.62276 0.6303 0.22115 0.0
C1459 C 0.60837 0.64563 0.24062 0.0
H1460 H 0.65118 0.59879 0.21474 0.0
C1461 C 0.61391 0.64243 0.26919 0.0
H1462 H 0.61881 0.63218 0.19902 0.0
C1463 C 0.63242 0.62332 0.27818 0.0
C1464 C 0.64561 0.60687 0.25878 0.0
H1465 H 0.60327 0.65414 0.28464 0.0
H1466 H 0.63535 0.62049 0.30038 0.0
C1467 C 0.64111 0.61103 0.23016 0.0
C1468 C 0.88868 0.63852 0.72933 0.0
C1469 C 0.88902 0.64743 0.75716 0.0
H1470 H 0.87058 0.61301 0.69904 0.0
C1471 C 0.86831 0.63928 0.77512 0.0
H1472 H 0.90404 0.6448 0.71479 0.0
C1473 C 0.84867 0.62138 0.76589 0.0
C1474 C 0.84934 0.61116 0.73853 0.0
H1475 H 0.86797 0.64568 0.7967 0.0
H1476 H 0.83342 0.61494 0.78047 0.0
C1477 C 0.86919 0.62054 0.72017 0.0
C1478 C 0.86442 0.89219 0.22579 0.0
C1479 C 0.853 0.89113 0.25255 0.0
H1480 H 0.89165 0.87465 0.19674 0.0
C1481 C 0.85868 0.86905 0.26974 0.0
H1482 H 0.86015 0.90875 0.2119 0.0
C1483 C 0.87655 0.84923 0.2609 0.0
C1484 C 0.88905 0.85103 0.23467 0.0
H1485 H 0.8503 0.8677 0.29053 0.0
H1486 H 0.88112 0.83286 0.27492 0.0
C1487 C 0.88224 0.87241 0.21696 0.0
C1488 C 0.58209 0.35723 0.24175 0.0
C1489 C 0.5732 0.3367 0.25939 0.0
H1490 H 0.60602 0.39229 0.23745 0.0
C1491 C 0.57982 0.3376 0.28782 0.0
H1492 H 0.57751 0.35676 0.21966 0.0
C1493 C 0.59561 0.35838 0.29833 0.0
C1494 C 0.6057 0.37839 0.28047 0.0
H1495 H 0.573 0.32202 0.30186 0.0
H1496 H 0.60017 0.35848 0.3204 0.0
C1497 C 0.59836 0.37769 0.25208 0.0
C1498 C 0.14398 0.59152 0.7338 0.0
C1499 C 0.1599 0.57671 0.75236 0.0
H1500 H 0.11242 0.61993 0.72893 0.0
C1501 C 0.1544 0.57804 0.78107 0.0
H1502 H 0.14802 0.59121 0.7116 0.0
C1503 C 0.13373 0.59429 0.79107 0.0
C1504 C 0.11828 0.6098 0.77259 0.0
H1505 H 0.16618 0.5666 0.79582 0.0
H1506 H 0.12997 0.59477 0.81331 0.0
C1507 C 0.12351 0.60796 0.74379 0.0
C1508 C 0.90395 0.13727 0.29853 0.0
C1509 C 0.89395 0.11744 0.2804 0.0
H1510 H 0.92656 0.17359 0.30258 0.0
C1511 C 0.90148 0.11841 0.25206 0.0
H1512 H 0.89927 0.13696 0.32057 0.0
C1513 C 0.91784 0.13894 0.24206 0.0
C1514 C 0.92664 0.15929 0.25998 0.0
H1515 H 0.89389 0.10398 0.23721 0.0
H1516 H 0.92257 0.13962 0.22001 0.0
C1517 C 0.91983 0.15814 0.28835 0.0
C1518 C 0.3283 0.90683 0.78541 0.0
C1519 C 0.33116 0.92052 0.76 0.0
H1520 H 0.34635 0.88096 0.81555 0.0
C1521 C 0.35573 0.91927 0.74586 0.0
H1522 H 0.30966 0.90775 0.79691 0.0
C1523 C 0.37665 0.90362 0.75628 0.0
C1524 C 0.37351 0.88907 0.78123 0.0
H1525 H 0.35838 0.92941 0.72607 0.0
H1526 H 0.39483 0.90204 0.74411 0.0
C1527 C 0.34929 0.8914 0.79599 0.0
C1528 C 0.5821 0.16028 0.71284 0.0
C1529 C 0.57581 0.16167 0.74136 0.0
H1530 H 0.60251 0.13902 0.68047 0.0
C1531 C 0.58543 0.14173 0.75935 0.0
H1532 H 0.57475 0.17535 0.69851 0.0
C1533 C 0.60178 0.12128 0.74922 0.0
C1534 C 0.6086 0.12003 0.72074 0.0
H1535 H 0.58124 0.14257 0.78151 0.0
H1536 H 0.60983 0.10703 0.76402 0.0
C1537 C 0.59815 0.13957 0.70259 0.0
C1538 C 0.37389 0.60898 0.25763 0.0
C1539 C 0.37921 0.61076 0.22885 0.0
H1540 H 0.34936 0.59221 0.28978 0.0
C1541 C 0.3639 0.59513 0.21035 0.0
H1542 H 0.38488 0.62104 0.27249 0.0
C1543 C 0.34326 0.57881 0.22033 0.0
C1544 C 0.33767 0.57753 0.24902 0.0
H1545 H 0.36773 0.59557 0.18812 0.0
H1546 H 0.33157 0.56728 0.20557 0.0
C1547 C 0.35346 0.59247 0.26759 0.0
C1548 C 0.90821 0.38194 0.74535 0.0
C1549 C 0.89415 0.37915 0.72005 0.0
H1550 H 0.93385 0.36339 0.77556 0.0
C1551 C 0.89736 0.3554 0.70463 0.0
H1552 H 0.906 0.39974 0.75802 0.0
C1553 C 0.91298 0.33445 0.71496 0.0
C1554 C 0.92609 0.33691 0.74073 0.0
H1555 H 0.88738 0.35274 0.68476 0.0
H1556 H 0.91445 0.3161 0.70301 0.0
C1557 C 0.92414 0.36109 0.75549 0.0
C1558 C 0.14486 0.8959 0.20462 0.0
C1559 C 0.12145 0.89193 0.22042 0.0
H1560 H 0.18406 0.91324 0.2029 0.0
C1561 C 0.11921 0.90479 0.24646 0.0
H1562 H 0.1471 0.88685 0.18422 0.0
C1563 C 0.14022 0.92034 0.25686 0.0
C1564 C 0.16405 0.9231 0.24162 0.0
H1565 H 0.10172 0.90194 0.25945 0.0
H1566 H 0.13832 0.92916 0.27741 0.0
C1567 C 0.166 0.91113 0.2152 0.0
C1568 C 0.40472 0.61612 0.74314 0.0
C1569 C 0.38735 0.61926 0.72029 0.0
H1570 H 0.43275 0.63474 0.77078 0.0
C1571 C 0.38666 0.64398 0.70634 0.0
H1572 H 0.40586 0.59721 0.75413 0.0
C1573 C 0.40209 0.66547 0.71586 0.0
C1574 C 0.41869 0.6626 0.73936 0.0
H1575 H 0.37337 0.64705 0.68878 0.0
H1576 H 0.40064 0.68452 0.70517 0.0
C1577 C 0.4203 0.63753 0.75251 0.0
C1578 C 0.86736 0.40318 0.21275 0.0
C1579 C 0.87784 0.38261 0.22949 0.0
H1580 H 0.83909 0.43533 0.2095 0.0
C1581 C 0.86825 0.37958 0.25687 0.0
H1582 H 0.87431 0.40593 0.19154 0.0
C1583 C 0.84828 0.39643 0.26716 0.0
C1584 C 0.83728 0.41657 0.25023 0.0
H1585 H 0.87619 0.36411 0.27037 0.0
H1586 H 0.84089 0.3932 0.28815 0.0
C1587 C 0.84713 0.41989 0.22297 0.0
C1588 C 0.07974 0.83891 0.71851 0.0
C1589 C 0.06973 0.84115 0.74585 0.0
H1590 H 0.1032 0.8566 0.68605 0.0
C1591 C 0.07521 0.86462 0.76101 0.0
H1592 H 0.07617 0.82106 0.70626 0.0
C1593 C 0.09125 0.88476 0.74964 0.0
C1594 C 0.10207 0.88211 0.72268 0.0
H1595 H 0.06749 0.86727 0.78194 0.0
H1596 H 0.09594 0.90195 0.76248 0.0
C1597 C 0.09561 0.85917 0.70704 0.0
C1598 C 0.63531 0.09585 0.20814 0.0
C1599 C 0.6223 0.11383 0.22614 0.0
H1600 H 0.6657 0.06582 0.20377 0.0
C1601 C 0.62954 0.1143 0.25447 0.0
H1602 H 0.6302 0.09513 0.18619 0.0
C1603 C 0.64967 0.09751 0.26452 0.0
C1604 C 0.66317 0.08 0.24643 0.0
H1605 H 0.61965 0.12773 0.26891 0.0
H1606 H 0.65518 0.09879 0.28634 0.0
C1607 C 0.6557 0.07921 0.21815 0.0
C1608 C 0.42098 0.86523 0.23896 0.0
C1609 C 0.4271 0.84214 0.25448 0.0
H1610 H 0.39963 0.90221 0.23718 0.0
C1611 C 0.41755 0.8402 0.28202 0.0
H1612 H 0.42831 0.86763 0.21785 0.0
C1613 C 0.4015 0.86038 0.29337 0.0
C1614 C 0.39447 0.88295 0.27744 0.0
H1615 H 0.42163 0.82263 0.29454 0.0
H1616 H 0.39427 0.85805 0.31453 0.0
C1617 C 0.40479 0.8853 0.25024 0.0
C1618 C 0.64328 0.41162 0.73992 0.0
C1619 C 0.66382 0.41934 0.7582 0.0
H1620 H 0.60734 0.38877 0.73456 0.0
C1621 C 0.66272 0.41121 0.78625 0.0
H1622 H 0.64385 0.41744 0.71815 0.0
C1623 C 0.64163 0.39518 0.79572 0.0
C1624 C 0.62171 0.38655 0.77713 0.0
H1625 H 0.67838 0.41694 0.80068 0.0
H1626 H 0.64143 0.38867 0.81728 0.0
C1627 C 0.62254 0.39515 0.74924 0.0
C1628 C 0.09505 0.61897 0.25738 0.0
C1629 C 0.11154 0.62199 0.28094 0.0
H1630 H 0.06746 0.63751 0.22922 0.0
C1631 C 0.11116 0.64639 0.2955 0.0
H1632 H 0.09474 0.6003 0.2459 0.0
C1633 C 0.09551 0.66771 0.28595 0.0
C1634 C 0.07972 0.66496 0.26181 0.0
H1635 H 0.12376 0.64935 0.31363 0.0
H1636 H 0.09611 0.68653 0.29715 0.0
C1637 C 0.07924 0.64019 0.24798 0.0
C1638 C 0.8728 0.08894 0.78497 0.0
C1639 C 0.87836 0.11363 0.7722 0.0
H1640 H 0.84847 0.05353 0.78482 0.0
C1641 C 0.86382 0.12112 0.74836 0.0
H1642 H 0.88369 0.08274 0.80341 0.0
C1643 C 0.84397 0.10439 0.73762 0.0
C1644 C 0.83802 0.07992 0.75065 0.0
H1645 H 0.86788 0.13992 0.73792 0.0
H1646 H 0.83283 0.11089 0.71945 0.0
C1647 C 0.85263 0.07232 0.77443 0.0
C1648 C 0.5353 0.24517 0.01459 0.0
C1649 C 0.51094 0.24332 0.02912 0.0
H1650 H 0.55465 0.25127 0.9752 0.0
C1651 C 0.48685 0.24619 0.01429 0.0
H1652 H 0.55417 0.2428 0.02544 0.0
C1653 C 0.48713 0.2511 0.98557 0.0
C1654 C 0.51149 0.25292 0.97104 0.0
H1655 H 0.46778 0.24502 0.02497 0.0
H1656 H 0.46826 0.25325 0.97467 0.0
C1657 C 0.53557 0.24977 0.98582 0.0
C1658 C 0.24646 0.52826 0.48664 0.0
C1659 C 0.24378 0.50412 0.47187 0.0
H1660 H 0.25349 0.54706 0.5261 0.0
C1661 C 0.24626 0.4798 0.48639 0.0
H1662 H 0.2444 0.54731 0.47606 0.0
C1663 C 0.25153 0.47966 0.51507 0.0
C1664 C 0.25404 0.50384 0.52984 0.0
H1665 H 0.24444 0.4609 0.47551 0.0
H1666 H 0.25332 0.46065 0.52576 0.0
C1667 C 0.25141 0.52812 0.51532 0.0
C1668 C 0.01207 0.24801 0.01568 0.0
C1669 C 0.98778 0.25261 0.02965 0.0
H1670 H 0.03137 0.23967 0.97668 0.0
C1671 C 0.96381 0.25239 0.01432 0.0
H1672 H 0.03081 0.24791 0.02703 0.0
C1673 C 0.96415 0.24788 0.98555 0.0
C1674 C 0.98842 0.24312 0.97159 0.0
H1675 H 0.94483 0.25606 0.02455 0.0
H1676 H 0.94538 0.2478 0.97423 0.0
C1677 C 0.01237 0.24312 0.98695 0.0
C1678 C 0.25298 0.9653 0.48623 0.0
C1679 C 0.25413 0.98956 0.47156 0.0
H1680 H 0.24721 0.94629 0.52595 0.0
C1681 C 0.24984 0.01371 0.48579 0.0
H1682 H 0.25626 0.94649 0.47553 0.0
C1683 C 0.24413 0.01358 0.51437 0.0
C1684 C 0.24328 0.98932 0.52913 0.0
H1685 H 0.25064 0.0326 0.47472 0.0
H1686 H 0.24069 0.03238 0.52502 0.0
C1687 C 0.24789 0.9652 0.51491 0.0
C1688 C 0.46414 0.74599 0.98387 0.0
C1689 C 0.48822 0.75115 0.96974 0.0
H1690 H 0.44523 0.73759 0.02303 0.0
C1691 C 0.5123 0.75137 0.98487 0.0
H1692 H 0.44528 0.74588 0.97272 0.0
C1693 C 0.51231 0.74635 0.01359 0.0
C1694 C 0.48817 0.74152 0.02777 0.0
H1695 H 0.53115 0.75517 0.97442 0.0
H1696 H 0.53112 0.74666 0.02481 0.0
C1697 C 0.46409 0.74143 0.01264 0.0
C1698 C 0.75545 0.51324 0.51598 0.0
C1699 C 0.75471 0.48913 0.53103 0.0
H1700 H 0.75086 0.53225 0.47609 0.0
C1701 C 0.74906 0.46518 0.51689 0.0
H1702 H 0.75968 0.53196 0.5265 0.0
C1703 C 0.74452 0.46528 0.48812 0.0
C1704 C 0.745 0.48941 0.4731 0.0
H1705 H 0.74853 0.44633 0.52806 0.0
H1706 H 0.7403 0.44654 0.47764 0.0
C1707 C 0.75032 0.51342 0.48728 0.0
C1708 C 0.03357 0.7424 0.01787 0.0
C1709 C 0.01027 0.75149 0.03123 0.0
H1710 H 0.05188 0.73081 0.97926 0.0
C1711 C 0.98688 0.75527 0.01547 0.0
H1712 H 0.05189 0.73949 0.02958 0.0
C1713 C 0.98676 0.74993 0.98681 0.0
C1714 C 0.0102 0.74128 0.97338 0.0
H1715 H 0.96865 0.76218 0.02536 0.0
H1716 H 0.96851 0.75302 0.97504 0.0
C1717 C 0.0336 0.73759 0.98915 0.0
C1718 C 0.74409 0.0312 0.51337 0.0
C1719 C 0.74388 0.00725 0.52872 0.0
H1720 H 0.7487 0.04963 0.47332 0.0
C1721 C 0.74822 0.98292 0.51473 0.0
H1722 H 0.74057 0.05021 0.5236 0.0
C1723 C 0.75301 0.9826 0.48597 0.0
C1724 C 0.75312 0.00657 0.47063 0.0
H1725 H 0.74828 0.96418 0.5261 0.0
H1726 H 0.7564 0.9636 0.47568 0.0
C1727 C 0.74849 0.03084 0.4846 0.0
loop_
_geom_bond_atom_site_label_1
_geom_bond_atom_site_label_2
_geom_bond_distance
_geom_bond_site_symmetry_2
_ccdc_geom_bond_type
Li0 N17 1.990 . S
Li0 O60 1.956 . S
Li0 O61 1.970 . S
Li0 O62 1.961 . S
Li1 N25 1.990 . S
Li1 O60 1.970 . S
Li1 O61 1.956 . S
Li1 O63 1.961 . S
Li2 N47 1.990 . S
Li2 O60 1.961 . S
Li2 O62 1.956 . S
Li2 O63 1.970 . S
Li3 N53 1.990 . S
Li3 O61 1.961 . S
Li3 O62 1.970 . S
Li3 O63 1.956 . S
C4 C6 1.348 . S
C4 C7 1.356 . S
C4 O60 1.325 . S
N5 C8 1.314 . S
N5 C9 1.279 . S
C6 C4 1.348 . S
C6 C8 1.353 . S
C6 H64 0.929 . S
C7 C4 1.356 . S
C7 C9 1.358 . S
C7 H65 0.930 . S
C8 N5 1.314 . S
C8 C6 1.353 . S
C8 H66 0.930 . S
C9 N5 1.279 . S
C9 C7 1.358 . S
C9 H67 0.930 . S
C10 C13 1.348 . S
C10 C14 1.356 . S
C10 O61 1.325 . S
C11 N12 1.279 . S
C11 C14 1.358 . S
C11 H68 0.930 . S
N12 C11 1.279 . S
N12 C15 1.314 . S
C13 C10 1.348 . S
C13 C15 1.353 . S
C13 H69 0.929 . S
C14 C10 1.356 . S
C14 C11 1.358 . S
C14 H70 0.930 . S
C15 N12 1.314 . S
C15 C13 1.353 . S
C15 H71 0.930 . S
C16 N17 1.314 . S
C16 C21 1.353 . S
C16 H22 0.930 . S
N17 Li0 1.990 . S
N17 C16 1.314 . S
N17 C19 1.279 . S
C18 C19 1.358 . S
C18 C20 1.356 . S
C18 H72 0.930 . S
C19 N17 1.279 . S
C19 C18 1.358 . S
C19 H23 0.930 . S
C20 C18 1.356 . S
C20 C21 1.348 . S
C21 C16 1.353 . S
C21 C20 1.348 . S
C21 H73 0.929 . S
H22 C16 0.930 . S
H23 C19 0.930 . S
C24 N25 1.314 . S
C24 C26 1.353 . S
C24 H30 0.930 . S
N25 Li1 1.990 . S
N25 C24 1.314 . S
N25 C28 1.279 . S
C26 C24 1.353 . S
C26 C29 1.348 . S
C26 H74 0.929 . S
C27 C28 1.358 . S
C27 C29 1.356 . S
C27 H75 0.930 . S
C28 N25 1.279 . S
C28 C27 1.358 . S
C28 H31 0.930 . S
C29 C26 1.348 . S
C29 C27 1.356 . S
H30 C24 0.930 . S
H31 C28 0.930 . S
C32 C34 1.348 . S
C32 C35 1.356 . S
C32 O62 1.325 . S
N33 C36 1.314 . S
N33 C37 1.279 . S
C34 C32 1.348 . S
C34 C36 1.353 . S
C34 H76 0.929 . S
C35 C32 1.356 . S
C35 C37 1.358 . S
C35 H77 0.930 . S
C36 N33 1.314 . S
C36 C34 1.353 . S
C36 H78 0.930 . S
C37 N33 1.279 . S
C37 C35 1.358 . S
C37 H79 0.930 . S
C38 C39 1.348 . S
C38 C40 1.356 . S
C38 O63 1.325 . S
C39 C38 1.348 . S
C39 C41 1.353 . S
C39 H80 0.929 . S
C40 C38 1.356 . S
C40 C42 1.358 . S
C40 H81 0.930 . S
C41 C39 1.353 . S
C41 N43 1.314 . S
C41 H82 0.930 . S
C42 C40 1.358 . S
C42 N43 1.279 . S
C42 H83 0.930 . S
N43 C41 1.314 . S
N43 C42 1.279 . S
C44 C46 1.353 . S
C44 N47 1.314 . S
C44 H50 0.930 . S
C45 N47 1.279 . S
C45 C48 1.358 . S
C45 H51 0.930 . S
C46 C44 1.353 . S
C46 C49 1.348 . S
C46 H84 0.929 . S
N47 Li2 1.990 . S
N47 C44 1.314 . S
N47 C45 1.279 . S
C48 C45 1.358 . S
C48 C49 1.356 . S
C48 H85 0.930 . S
C49 C46 1.348 . S
C49 C48 1.356 . S
H50 C44 0.930 . S
H51 C45 0.930 . S
C52 N53 1.314 . S
C52 C54 1.353 . S
C52 H58 0.930 . S
N53 Li3 1.990 . S
N53 C52 1.314 . S
N53 C56 1.279 . S
C54 C52 1.353 . S
C54 C57 1.348 . S
C54 H86 0.929 . S
C55 C56 1.358 . S
C55 C57 1.356 . S
C55 H87 0.930 . S
C56 N53 1.279 . S
C56 C55 1.358 . S
C56 H59 0.930 . S
C57 C54 1.348 . S
C57 C55 1.356 . S
H58 C52 0.930 . S
H59 C56 0.930 . S
O60 Li0 1.956 . S
O60 Li1 1.970 . S
O60 Li2 1.961 . S
O60 C4 1.325 . S
O61 Li0 1.970 . S
O61 Li1 1.956 . S
O61 Li3 1.961 . S
O61 C10 1.325 . S
O62 Li0 1.961 . S
O62 Li2 1.956 . S
O62 Li3 1.970 . S
O62 C32 1.325 . S
O63 Li1 1.961 . S
O63 Li2 1.970 . S
O63 Li3 1.956 . S
O63 C38 1.325 . S
H64 C6 0.929 . S
H65 C7 0.930 . S
H66 C8 0.930 . S
H67 C9 0.930 . S
H68 C11 0.930 . S
H69 C13 0.929 . S
H70 C14 0.930 . S
H71 C15 0.930 . S
H72 C18 0.930 . S
H73 C21 0.929 . S
H74 C26 0.929 . S
H75 C27 0.930 . S
H76 C34 0.929 . S
H77 C35 0.930 . S
H78 C36 0.930 . S
H79 C37 0.930 . S
H80 C39 0.929 . S
H81 C40 0.930 . S
H82 C41 0.930 . S
H83 C42 0.930 . S
H84 C46 0.929 . S
H85 C48 0.930 . S
H86 C54 0.929 . S
H87 C55 0.930 . S
Li88 N105 1.990 . S
Li88 O148 1.956 . S
Li88 O149 1.970 . S
Li88 O150 1.961 . S
Li89 N113 1.990 . S
Li89 O148 1.970 . S
Li89 O149 1.956 . S
Li89 O151 1.961 . S
Li90 N135 1.990 . S
Li90 O148 1.961 . S
Li90 O150 1.956 . S
Li90 O151 1.970 . S
Li91 N141 1.990 . S
Li91 O149 1.961 . S
Li91 O150 1.970 . S
Li91 O151 1.956 . S
C92 C94 1.348 . S
C92 C95 1.356 . S
C92 O148 1.325 . S
N93 C96 1.314 . S
N93 C97 1.279 . S
C94 C92 1.348 . S
C94 C96 1.353 . S
C94 H152 0.929 . S
C95 C92 1.356 . S
C95 C97 1.358 . S
C95 H153 0.930 . S
C96 N93 1.314 . S
C96 C94 1.353 . S
C96 H154 0.930 . S
C97 N93 1.279 . S
C97 C95 1.358 . S
C97 H155 0.930 . S
C98 C101 1.348 . S
C98 C102 1.356 . S
C98 O149 1.325 . S
C99 N100 1.279 . S
C99 C102 1.358 . S
C99 H156 0.930 . S
N100 C99 1.279 . S
N100 C103 1.314 . S
C101 C98 1.348 . S
C101 C103 1.353 . S
C101 H157 0.929 . S
C102 C98 1.356 . S
C102 C99 1.358 . S
C102 H158 0.930 . S
C103 N100 1.314 . S
C103 C101 1.353 . S
C103 H159 0.930 . S
C104 N105 1.314 . S
C104 C109 1.353 . S
C104 H110 0.930 . S
N105 Li88 1.990 . S
N105 C104 1.314 . S
N105 C107 1.279 . S
C106 C107 1.358 . S
C106 C108 1.356 . S
C106 H160 0.930 . S
C107 N105 1.279 . S
C107 C106 1.358 . S
C107 H111 0.930 . S
C108 C106 1.356 . S
C108 C109 1.348 . S
C109 C104 1.353 . S
C109 C108 1.348 . S
C109 H161 0.929 . S
H110 C104 0.930 . S
H111 C107 0.930 . S
C112 N113 1.314 . S
C112 C114 1.353 . S
C112 H118 0.930 . S
N113 Li89 1.990 . S
N113 C112 1.314 . S
N113 C116 1.279 . S
C114 C112 1.353 . S
C114 C117 1.348 . S
C114 H162 0.929 . S
C115 C116 1.358 . S
C115 C117 1.356 . S
C115 H163 0.930 . S
C116 N113 1.279 . S
C116 C115 1.358 . S
C116 H119 0.930 . S
C117 C114 1.348 . S
C117 C115 1.356 . S
H118 C112 0.930 . S
H119 C116 0.930 . S
C120 C122 1.348 . S
C120 C123 1.356 . S
C120 O150 1.325 . S
N121 C124 1.314 . S
N121 C125 1.279 . S
C122 C120 1.348 . S
C122 C124 1.353 . S
C122 H164 0.929 . S
C123 C120 1.356 . S
C123 C125 1.358 . S
C123 H165 0.930 . S
C124 N121 1.314 . S
C124 C122 1.353 . S
C124 H166 0.930 . S
C125 N121 1.279 . S
C125 C123 1.358 . S
C125 H167 0.930 . S
C126 C127 1.348 . S
C126 C128 1.356 . S
C126 O151 1.325 . S
C127 C126 1.348 . S
C127 C129 1.353 . S
C127 H168 0.929 . S
C128 C126 1.356 . S
C128 C130 1.358 . S
C128 H169 0.930 . S
C129 C127 1.353 . S
C129 N131 1.314 . S
C129 H170 0.930 . S
C130 C128 1.358 . S
C130 N131 1.279 . S
C130 H171 0.930 . S
N131 C129 1.314 . S
N131 C130 1.279 . S
C132 C134 1.353 . S
C132 N135 1.314 . S
C132 H138 0.930 . S
C133 N135 1.279 . S
C133 C136 1.358 . S
C133 H139 0.930 . S
C134 C132 1.353 . S
C134 C137 1.348 . S
C134 H172 0.929 . S
N135 Li90 1.990 . S
N135 C132 1.314 . S
N135 C133 1.279 . S
C136 C133 1.358 . S
C136 C137 1.356 . S
C136 H173 0.930 . S
C137 C134 1.348 . S
C137 C136 1.356 . S
H138 C132 0.930 . S
H139 C133 0.930 . S
C140 N141 1.314 . S
C140 C142 1.353 . S
C140 H146 0.930 . S
N141 Li91 1.990 . S
N141 C140 1.314 . S
N141 C144 1.279 . S
C142 C140 1.353 . S
C142 C145 1.348 . S
C142 H174 0.929 . S
C143 C144 1.358 . S
C143 C145 1.356 . S
C143 H175 0.930 . S
C144 N141 1.279 . S
C144 C143 1.358 . S
C144 H147 0.930 . S
C145 C142 1.348 . S
C145 C143 1.356 . S
H146 C140 0.930 . S
H147 C144 0.930 . S
O148 Li88 1.956 . S
O148 Li89 1.970 . S
O148 Li90 1.961 . S
O148 C92 1.325 . S
O149 Li88 1.970 . S
O149 Li89 1.956 . S
O149 Li91 1.961 . S
O149 C98 1.325 . S
O150 Li88 1.961 . S
O150 Li90 1.956 . S
O150 Li91 1.970 . S
O150 C120 1.325 . S
O151 Li89 1.961 . S
O151 Li90 1.970 . S
O151 Li91 1.956 . S
O151 C126 1.325 . S
H152 C94 0.929 . S
H153 C95 0.930 . S
H154 C96 0.930 . S
H155 C97 0.930 . S
H156 C99 0.930 . S
H157 C101 0.929 . S
H158 C102 0.930 . S
H159 C103 0.930 . S
H160 C106 0.930 . S
H161 C109 0.929 . S
H162 C114 0.929 . S
H163 C115 0.930 . S
H164 C122 0.929 . S
H165 C123 0.930 . S
H166 C124 0.930 . S
H167 C125 0.930 . S
H168 C127 0.929 . S
H169 C128 0.930 . S
H170 C129 0.930 . S
H171 C130 0.930 . S
H172 C134 0.929 . S
H173 C136 0.930 . S
H174 C142 0.929 . S
H175 C143 0.930 . S
Li176 N193 1.990 . S
Li176 O236 1.956 . S
Li176 O237 1.970 . S
Li176 O238 1.961 . S
Li177 N201 1.990 . S
Li177 O236 1.970 1_455 S
Li177 O237 1.956 1_455 S
Li177 O239 1.961 . S
Li178 N223 1.990 . S
Li178 O236 1.961 . S
Li178 O238 1.956 . S
Li178 O239 1.970 1_655 S
Li179 N229 1.990 . S
Li179 O237 1.961 . S
Li179 O238 1.970 . S
Li179 O239 1.956 1_655 S
C180 C182 1.348 1_655 S
C180 C183 1.356 . S
C180 O236 1.325 . S
N181 C184 1.314 . S
N181 C185 1.279 1_455 S
C182 C180 1.348 1_455 S
C182 C184 1.353 . S
C182 H240 0.929 . S
C183 C180 1.356 . S
C183 C185 1.358 . S
C183 H241 0.930 . S
C184 N181 1.314 . S
C184 C182 1.353 . S
C184 H242 0.930 . S
C185 N181 1.279 1_655 S
C185 C183 1.358 . S
C185 H243 0.930 . S
C186 C189 1.348 . S
C186 C190 1.356 . S
C186 O237 1.325 . S
C187 N188 1.279 . S
C187 C190 1.358 . S
C187 H244 0.930 . S
N188 C187 1.279 . S
N188 C191 1.314 . S
C189 C186 1.348 . S
C189 C191 1.353 . S
C189 H245 0.929 . S
C190 C186 1.356 . S
C190 C187 1.358 . S
C190 H246 0.930 1_655 S
C191 N188 1.314 . S
C191 C189 1.353 . S
C191 H247 0.930 . S
C192 N193 1.314 . S
C192 C197 1.353 . S
C192 H198 0.930 . S
N193 Li176 1.990 . S
N193 C192 1.314 . S
N193 C195 1.279 . S
C194 C195 1.358 . S
C194 C196 1.356 . S
C194 H248 0.930 . S
C195 N193 1.279 . S
C195 C194 1.358 . S
C195 H199 0.930 . S
C196 C194 1.356 . S
C196 C197 1.348 . S
C197 C192 1.353 . S
C197 C196 1.348 . S
C197 H249 0.929 . S
H198 C192 0.930 . S
H199 C195 0.930 . S
C200 N201 1.314 . S
C200 C202 1.353 . S
C200 H206 0.930 . S
N201 Li177 1.990 . S
N201 C200 1.314 . S
N201 C204 1.279 . S
C202 C200 1.353 . S
C202 C205 1.348 . S
C202 H250 0.929 . S
C203 C204 1.358 . S
C203 C205 1.356 . S
C203 H251 0.930 . S
C204 N201 1.279 . S
C204 C203 1.358 . S
C204 H207 0.930 . S
C205 C202 1.348 . S
C205 C203 1.356 . S
H206 C200 0.930 . S
H207 C204 0.930 . S
C208 C210 1.348 . S
C208 C211 1.356 . S
C208 O238 1.325 . S
N209 C212 1.314 . S
N209 C213 1.279 . S
C210 C208 1.348 . S
C210 C212 1.353 . S
C210 H252 0.929 . S
C211 C208 1.356 . S
C211 C213 1.358 . S
C211 H253 0.930 . S
C212 N209 1.314 . S
C212 C210 1.353 . S
C212 H254 0.930 . S
C213 N209 1.279 . S
C213 C211 1.358 . S
C213 H255 0.930 . S
C214 C215 1.348 . S
C214 C216 1.356 . S
C214 O239 1.325 . S
C215 C214 1.348 . S
C215 C217 1.353 . S
C215 H256 0.929 . S
C216 C214 1.356 . S
C216 C218 1.358 . S
C216 H257 0.930 . S
C217 C215 1.353 . S
C217 N219 1.314 . S
C217 H258 0.930 . S
C218 C216 1.358 . S
C218 N219 1.279 . S
C218 H259 0.930 . S
N219 C217 1.314 . S
N219 C218 1.279 . S
C220 C222 1.353 . S
C220 N223 1.314 1_455 S
C220 H226 0.930 . S
C221 N223 1.279 . S
C221 C224 1.358 . S
C221 H227 0.930 . S
C222 C220 1.353 . S
C222 C225 1.348 1_455 S
C222 H260 0.929 . S
N223 Li178 1.990 . S
N223 C220 1.314 1_655 S
N223 C221 1.279 . S
C224 C221 1.358 . S
C224 C225 1.356 . S
C224 H261 0.930 . S
C225 C222 1.348 1_655 S
C225 C224 1.356 . S
H226 C220 0.930 . S
H227 C221 0.930 . S
C228 N229 1.314 . S
C228 C230 1.353 . S
C228 H234 0.930 . S
N229 Li179 1.990 . S
N229 C228 1.314 . S
N229 C232 1.279 . S
C230 C228 1.353 . S
C230 C233 1.348 . S
C230 H262 0.929 . S
C231 C232 1.358 . S
C231 C233 1.356 . S
C231 H263 0.930 . S
C232 N229 1.279 . S
C232 C231 1.358 . S
C232 H235 0.930 . S
C233 C230 1.348 . S
C233 C231 1.356 . S
H234 C228 0.930 . S
H235 C232 0.930 . S
O236 Li176 1.956 . S
O236 Li177 1.970 1_655 S
O236 Li178 1.961 . S
O236 C180 1.325 . S
O237 Li176 1.970 . S
O237 Li177 1.956 1_655 S
O237 Li179 1.961 . S
O237 C186 1.325 . S
O238 Li176 1.961 . S
O238 Li178 1.956 . S
O238 Li179 1.970 . S
O238 C208 1.325 . S
O239 Li177 1.961 . S
O239 Li178 1.970 1_455 S
O239 Li179 1.956 1_455 S
O239 C214 1.325 . S
H240 C182 0.929 . S
H241 C183 0.930 . S
H242 C184 0.930 . S
H243 C185 0.930 . S
H244 C187 0.930 . S
H245 C189 0.929 . S
H246 C190 0.930 1_455 S
H247 C191 0.930 . S
H248 C194 0.930 . S
H249 C197 0.929 . S
H250 C202 0.929 . S
H251 C203 0.930 . S
H252 C210 0.929 . S
H253 C211 0.930 . S
H254 C212 0.930 . S
H255 C213 0.930 . S
H256 C215 0.929 . S
H257 C216 0.930 . S
H258 C217 0.930 . S
H259 C218 0.930 . S
H260 C222 0.929 . S
H261 C224 0.930 . S
H262 C230 0.929 . S
H263 C231 0.930 . S
Li264 N281 1.990 . S
Li264 O324 1.956 . S
Li264 O325 1.970 . S
Li264 O326 1.961 . S
Li265 N289 1.990 . S
Li265 O324 1.970 1_545 S
Li265 O325 1.956 1_545 S
Li265 O327 1.961 . S
Li266 N311 1.990 . S
Li266 O324 1.961 . S
Li266 O326 1.956 . S
Li266 O327 1.970 1_565 S
Li267 N317 1.990 . S
Li267 O325 1.961 . S
Li267 O326 1.970 . S
Li267 O327 1.956 1_565 S
C268 C270 1.348 1_565 S
C268 C271 1.356 . S
C268 O324 1.325 . S
N269 C272 1.314 . S
N269 C273 1.279 1_545 S
C270 C268 1.348 1_545 S
C270 C272 1.353 . S
C270 H328 0.929 . S
C271 C268 1.356 . S
C271 C273 1.358 . S
C271 H329 0.930 . S
C272 N269 1.314 . S
C272 C270 1.353 . S
C272 H330 0.930 . S
C273 N269 1.279 1_565 S
C273 C271 1.358 . S
C273 H331 0.930 . S
C274 C277 1.348 . S
C274 C278 1.356 . S
C274 O325 1.325 . S
C275 N276 1.279 . S
C275 C278 1.358 . S
C275 H332 0.930 . S
N276 C275 1.279 . S
N276 C279 1.314 . S
C277 C274 1.348 . S
C277 C279 1.353 . S
C277 H333 0.929 . S
C278 C274 1.356 . S
C278 C275 1.358 . S
C278 H334 0.930 1_565 S
C279 N276 1.314 . S
C279 C277 1.353 . S
C279 H335 0.930 . S
C280 N281 1.314 . S
C280 C285 1.353 . S
C280 H286 0.930 . S
N281 Li264 1.990 . S
N281 C280 1.314 . S
N281 C283 1.279 . S
C282 C283 1.358 . S
C282 C284 1.356 . S
C282 H336 0.930 . S
C283 N281 1.279 . S
C283 C282 1.358 . S
C283 H287 0.930 . S
C284 C282 1.356 . S
C284 C285 1.348 . S
C285 C280 1.353 . S
C285 C284 1.348 . S
C285 H337 0.929 . S
H286 C280 0.930 . S
H287 C283 0.930 . S
C288 N289 1.314 . S
C288 C290 1.353 . S
C288 H294 0.930 . S
N289 Li265 1.990 . S
N289 C288 1.314 . S
N289 C292 1.279 . S
C290 C288 1.353 . S
C290 C293 1.348 . S
C290 H338 0.929 . S
C291 C292 1.358 . S
C291 C293 1.356 . S
C291 H339 0.930 . S
C292 N289 1.279 . S
C292 C291 1.358 . S
C292 H295 0.930 . S
C293 C290 1.348 . S
C293 C291 1.356 . S
H294 C288 0.930 . S
H295 C292 0.930 . S
C296 C298 1.348 . S
C296 C299 1.356 . S
C296 O326 1.325 . S
N297 C300 1.314 . S
N297 C301 1.279 . S
C298 C296 1.348 . S
C298 C300 1.353 . S
C298 H340 0.929 . S
C299 C296 1.356 . S
C299 C301 1.358 . S
C299 H341 0.930 . S
C300 N297 1.314 . S
C300 C298 1.353 . S
C300 H342 0.930 . S
C301 N297 1.279 . S
C301 C299 1.358 . S
C301 H343 0.930 . S
C302 C303 1.348 . S
C302 C304 1.356 . S
C302 O327 1.325 . S
C303 C302 1.348 . S
C303 C305 1.353 . S
C303 H344 0.929 . S
C304 C302 1.356 . S
C304 C306 1.358 . S
C304 H345 0.930 . S
C305 C303 1.353 . S
C305 N307 1.314 . S
C305 H346 0.930 . S
C306 C304 1.358 . S
C306 N307 1.279 . S
C306 H347 0.930 . S
N307 C305 1.314 . S
N307 C306 1.279 . S
C308 C310 1.353 . S
C308 N311 1.314 1_545 S
C308 H314 0.930 . S
C309 N311 1.279 . S
C309 C312 1.358 . S
C309 H315 0.930 . S
C310 C308 1.353 . S
C310 C313 1.348 1_545 S
C310 H348 0.929 . S
N311 Li266 1.990 . S
N311 C308 1.314 1_565 S
N311 C309 1.279 . S
C312 C309 1.358 . S
C312 C313 1.356 . S
C312 H349 0.930 . S
C313 C310 1.348 1_565 S
C313 C312 1.356 . S
H314 C308 0.930 . S
H315 C309 0.930 . S
C316 N317 1.314 . S
C316 C318 1.353 . S
C316 H322 0.930 . S
N317 Li267 1.990 . S
N317 C316 1.314 . S
N317 C320 1.279 . S
C318 C316 1.353 . S
C318 C321 1.348 . S
C318 H350 0.929 . S
C319 C320 1.358 . S
C319 C321 1.356 . S
C319 H351 0.930 . S
C320 N317 1.279 . S
C320 C319 1.358 . S
C320 H323 0.930 . S
C321 C318 1.348 . S
C321 C319 1.356 . S
H322 C316 0.930 . S
H323 C320 0.930 . S
O324 Li264 1.956 . S
O324 Li265 1.970 1_565 S
O324 Li266 1.961 . S
O324 C268 1.325 . S
O325 Li264 1.970 . S
O325 Li265 1.956 1_565 S
O325 Li267 1.961 . S
O325 C274 1.325 . S
O326 Li264 1.961 . S
O326 Li266 1.956 . S
O326 Li267 1.970 . S
O326 C296 1.325 . S
O327 Li265 1.961 . S
O327 Li266 1.970 1_545 S
O327 Li267 1.956 1_545 S
O327 C302 1.325 . S
H328 C270 0.929 . S
H329 C271 0.930 . S
H330 C272 0.930 . S
H331 C273 0.930 . S
H332 C275 0.930 . S
H333 C277 0.929 . S
H334 C278 0.930 1_545 S
H335 C279 0.930 . S
H336 C282 0.930 . S
H337 C285 0.929 . S
H338 C290 0.929 . S
H339 C291 0.930 . S
H340 C298 0.929 . S
H341 C299 0.930 . S
H342 C300 0.930 . S
H343 C301 0.930 . S
H344 C303 0.929 . S
H345 C304 0.930 . S
H346 C305 0.930 . S
H347 C306 0.930 . S
H348 C310 0.929 . S
H349 C312 0.930 . S
H350 C318 0.929 . S
H351 C319 0.930 . S
Li352 N369 1.990 . S
Li352 O412 1.956 . S
Li352 O413 1.970 . S
Li352 O414 1.961 . S
Li353 N377 1.990 . S
Li353 O412 1.970 . S
Li353 O413 1.956 . S
Li353 O415 1.961 . S
Li354 N399 1.990 . S
Li354 O412 1.961 . S
Li354 O414 1.956 . S
Li354 O415 1.970 . S
Li355 N405 1.990 . S
Li355 O413 1.961 . S
Li355 O414 1.970 . S
Li355 O415 1.956 . S
C356 C358 1.348 . S
C356 C359 1.356 . S
C356 O412 1.325 . S
N357 C360 1.314 . S
N357 C361 1.279 . S
C358 C356 1.348 . S
C358 C360 1.353 . S
C358 H416 0.929 . S
C359 C356 1.356 . S
C359 C361 1.358 . S
C359 H417 0.930 . S
C360 N357 1.314 . S
C360 C358 1.353 . S
C360 H418 0.930 . S
C361 N357 1.279 . S
C361 C359 1.358 . S
C361 H419 0.930 . S
C362 C365 1.348 . S
C362 C366 1.356 . S
C362 O413 1.325 . S
C363 N364 1.279 . S
C363 C366 1.358 . S
C363 H420 0.930 . S
N364 C363 1.279 . S
N364 C367 1.314 . S
C365 C362 1.348 . S
C365 C367 1.353 . S
C365 H421 0.929 . S
C366 C362 1.356 . S
C366 C363 1.358 . S
C366 H422 0.930 . S
C367 N364 1.314 . S
C367 C365 1.353 . S
C367 H423 0.930 . S
C368 N369 1.314 . S
C368 C373 1.353 . S
C368 H374 0.930 . S
N369 Li352 1.990 . S
N369 C368 1.314 . S
N369 C371 1.279 . S
C370 C371 1.358 . S
C370 C372 1.356 . S
C370 H424 0.930 . S
C371 N369 1.279 . S
C371 C370 1.358 . S
C371 H375 0.930 . S
C372 C370 1.356 . S
C372 C373 1.348 . S
C373 C368 1.353 . S
C373 C372 1.348 . S
C373 H425 0.929 . S
H374 C368 0.930 . S
H375 C371 0.930 . S
C376 N377 1.314 . S
C376 C378 1.353 . S
C376 H382 0.930 . S
N377 Li353 1.990 . S
N377 C376 1.314 . S
N377 C380 1.279 . S
C378 C376 1.353 . S
C378 C381 1.348 . S
C378 H426 0.929 . S
C379 C380 1.358 . S
C379 C381 1.356 . S
C379 H427 0.930 . S
C380 N377 1.279 . S
C380 C379 1.358 . S
C380 H383 0.930 . S
C381 C378 1.348 . S
C381 C379 1.356 . S
H382 C376 0.930 . S
H383 C380 0.930 . S
C384 C386 1.348 . S
C384 C387 1.356 . S
C384 O414 1.325 . S
N385 C388 1.314 . S
N385 C389 1.279 . S
C386 C384 1.348 . S
C386 C388 1.353 . S
C386 H428 0.929 . S
C387 C384 1.356 . S
C387 C389 1.358 . S
C387 H429 0.930 . S
C388 N385 1.314 . S
C388 C386 1.353 . S
C388 H430 0.930 . S
C389 N385 1.279 . S
C389 C387 1.358 . S
C389 H431 0.930 . S
C390 C391 1.348 . S
C390 C392 1.356 . S
C390 O415 1.325 . S
C391 C390 1.348 . S
C391 C393 1.353 . S
C391 H432 0.929 . S
C392 C390 1.356 . S
C392 C394 1.358 . S
C392 H433 0.930 . S
C393 C391 1.353 . S
C393 N395 1.314 . S
C393 H434 0.930 . S
C394 C392 1.358 . S
C394 N395 1.279 . S
C394 H435 0.930 . S
N395 C393 1.314 . S
N395 C394 1.279 . S
C396 C398 1.353 . S
C396 N399 1.314 . S
C396 H402 0.930 . S
C397 N399 1.279 . S
C397 C400 1.358 . S
C397 H403 0.930 . S
C398 C396 1.353 . S
C398 C401 1.348 . S
C398 H436 0.929 . S
N399 Li354 1.990 . S
N399 C396 1.314 . S
N399 C397 1.279 . S
C400 C397 1.358 . S
C400 C401 1.356 . S
C400 H437 0.930 . S
C401 C398 1.348 . S
C401 C400 1.356 . S
H402 C396 0.930 . S
H403 C397 0.930 . S
C404 N405 1.314 . S
C404 C406 1.353 . S
C404 H410 0.930 . S
N405 Li355 1.990 . S
N405 C404 1.314 . S
N405 C408 1.279 . S
C406 C404 1.353 . S
C406 C409 1.348 . S
C406 H438 0.929 . S
C407 C408 1.358 . S
C407 C409 1.356 . S
C407 H439 0.930 . S
C408 N405 1.279 . S
C408 C407 1.358 . S
C408 H411 0.930 . S
C409 C406 1.348 . S
C409 C407 1.356 . S
H410 C404 0.930 . S
H411 C408 0.930 . S
O412 Li352 1.956 . S
O412 Li353 1.970 . S
O412 Li354 1.961 . S
O412 C356 1.325 . S
O413 Li352 1.970 . S
O413 Li353 1.956 . S
O413 Li355 1.961 . S
O413 C362 1.325 . S
O414 Li352 1.961 . S
O414 Li354 1.956 . S
O414 Li355 1.970 . S
O414 C384 1.325 . S
O415 Li353 1.961 . S
O415 Li354 1.970 . S
O415 Li355 1.956 . S
O415 C390 1.325 . S
H416 C358 0.929 . S
H417 C359 0.930 . S
H418 C360 0.930 . S
H419 C361 0.930 . S
H420 C363 0.930 . S
H421 C365 0.929 . S
H422 C366 0.930 . S
H423 C367 0.930 . S
H424 C370 0.930 . S
H425 C373 0.929 . S
H426 C378 0.929 . S
H427 C379 0.930 . S
H428 C386 0.929 . S
H429 C387 0.930 . S
H430 C388 0.930 . S
H431 C389 0.930 . S
H432 C391 0.929 . S
H433 C392 0.930 . S
H434 C393 0.930 . S
H435 C394 0.930 . S
H436 C398 0.929 . S
H437 C400 0.930 . S
H438 C406 0.929 . S
H439 C407 0.930 . S
Li440 N457 1.990 . S
Li440 O500 1.956 . S
Li440 O501 1.970 . S
Li440 O502 1.961 . S
Li441 N465 1.990 . S
Li441 O500 1.970 . S
Li441 O501 1.956 . S
Li441 O503 1.961 . S
Li442 N487 1.990 . S
Li442 O500 1.961 . S
Li442 O502 1.956 . S
Li442 O503 1.970 . S
Li443 N493 1.990 . S
Li443 O501 1.961 . S
Li443 O502 1.970 . S
Li443 O503 1.956 . S
C444 C446 1.348 . S
C444 C447 1.356 . S
C444 O500 1.325 . S
N445 C448 1.314 . S
N445 C449 1.279 . S
C446 C444 1.348 . S
C446 C448 1.353 . S
C446 H504 0.929 . S
C447 C444 1.356 . S
C447 C449 1.358 . S
C447 H505 0.930 . S
C448 N445 1.314 . S
C448 C446 1.353 . S
C448 H506 0.930 . S
C449 N445 1.279 . S
C449 C447 1.358 . S
C449 H507 0.930 . S
C450 C453 1.348 . S
C450 C454 1.356 . S
C450 O501 1.325 . S
C451 N452 1.279 . S
C451 C454 1.358 . S
C451 H508 0.930 . S
N452 C451 1.279 . S
N452 C455 1.314 . S
C453 C450 1.348 . S
C453 C455 1.353 . S
C453 H509 0.929 . S
C454 C450 1.356 . S
C454 C451 1.358 . S
C454 H510 0.930 . S
C455 N452 1.314 . S
C455 C453 1.353 . S
C455 H511 0.930 . S
C456 N457 1.314 . S
C456 C461 1.353 . S
C456 H462 0.930 . S
N457 Li440 1.990 . S
N457 C456 1.314 . S
N457 C459 1.279 . S
C458 C459 1.358 . S
C458 C460 1.356 . S
C458 H512 0.930 . S
C459 N457 1.279 . S
C459 C458 1.358 . S
C459 H463 0.930 . S
C460 C458 1.356 . S
C460 C461 1.348 . S
C461 C456 1.353 . S
C461 C460 1.348 . S
C461 H513 0.929 . S
H462 C456 0.930 . S
H463 C459 0.930 . S
C464 N465 1.314 . S
C464 C466 1.353 . S
C464 H470 0.930 . S
N465 Li441 1.990 . S
N465 C464 1.314 . S
N465 C468 1.279 . S
C466 C464 1.353 . S
C466 C469 1.348 . S
C466 H514 0.929 . S
C467 C468 1.358 . S
C467 C469 1.356 . S
C467 H515 0.930 . S
C468 N465 1.279 . S
C468 C467 1.358 . S
C468 H471 0.930 . S
C469 C466 1.348 . S
C469 C467 1.356 . S
H470 C464 0.930 . S
H471 C468 0.930 . S
C472 C474 1.348 . S
C472 C475 1.356 . S
C472 O502 1.325 . S
N473 C476 1.314 . S
N473 C477 1.279 . S
C474 C472 1.348 . S
C474 C476 1.353 . S
C474 H516 0.929 . S
C475 C472 1.356 . S
C475 C477 1.358 . S
C475 H517 0.930 . S
C476 N473 1.314 . S
C476 C474 1.353 . S
C476 H518 0.930 . S
C477 N473 1.279 . S
C477 C475 1.358 . S
C477 H519 0.930 . S
C478 C479 1.348 . S
C478 C480 1.356 . S
C478 O503 1.325 . S
C479 C478 1.348 . S
C479 C481 1.353 . S
C479 H520 0.929 . S
C480 C478 1.356 . S
C480 C482 1.358 . S
C480 H521 0.930 . S
C481 C479 1.353 . S
C481 N483 1.314 . S
C481 H522 0.930 . S
C482 C480 1.358 . S
C482 N483 1.279 . S
C482 H523 0.930 . S
N483 C481 1.314 . S
N483 C482 1.279 . S
C484 C486 1.353 . S
C484 N487 1.314 . S
C484 H490 0.930 . S
C485 N487 1.279 . S
C485 C488 1.358 . S
C485 H491 0.930 . S
C486 C484 1.353 . S
C486 C489 1.348 . S
C486 H524 0.929 . S
N487 Li442 1.990 . S
N487 C484 1.314 . S
N487 C485 1.279 . S
C488 C485 1.358 . S
C488 C489 1.356 . S
C488 H525 0.930 . S
C489 C486 1.348 . S
C489 C488 1.356 . S
H490 C484 0.930 . S
H491 C485 0.930 . S
C492 N493 1.314 . S
C492 C494 1.353 . S
C492 H498 0.930 . S
N493 Li443 1.990 . S
N493 C492 1.314 . S
N493 C496 1.279 . S
C494 C492 1.353 . S
C494 C497 1.348 . S
C494 H526 0.929 . S
C495 C496 1.358 . S
C495 C497 1.356 . S
C495 H527 0.930 . S
C496 N493 1.279 . S
C496 C495 1.358 . S
C496 H499 0.930 . S
C497 C494 1.348 . S
C497 C495 1.356 . S
H498 C492 0.930 . S
H499 C496 0.930 . S
O500 Li440 1.956 . S
O500 Li441 1.970 . S
O500 Li442 1.961 . S
O500 C444 1.325 . S
O501 Li440 1.970 . S
O501 Li441 1.956 . S
O501 Li443 1.961 . S
O501 C450 1.325 . S
O502 Li440 1.961 . S
O502 Li442 1.956 . S
O502 Li443 1.970 . S
O502 C472 1.325 . S
O503 Li441 1.961 . S
O503 Li442 1.970 . S
O503 Li443 1.956 . S
O503 C478 1.325 . S
H504 C446 0.929 . S
H505 C447 0.930 . S
H506 C448 0.930 . S
H507 C449 0.930 . S
H508 C451 0.930 . S
H509 C453 0.929 . S
H510 C454 0.930 . S
H511 C455 0.930 . S
H512 C458 0.930 . S
H513 C461 0.929 . S
H514 C466 0.929 . S
H515 C467 0.930 . S
H516 C474 0.929 . S
H517 C475 0.930 . S
H518 C476 0.930 . S
H519 C477 0.930 . S
H520 C479 0.929 . S
H521 C480 0.930 . S
H522 C481 0.930 . S
H523 C482 0.930 . S
H524 C486 0.929 . S
H525 C488 0.930 . S
H526 C494 0.929 . S
H527 C495 0.930 . S
Li528 N545 1.990 . S
Li528 O588 1.956 1_655 S
Li528 O589 1.970 . S
Li528 O590 1.961 . S
Li529 N553 1.990 . S
Li529 O588 1.970 1_655 S
Li529 O589 1.956 . S
Li529 O591 1.961 . S
Li530 N575 1.990 . S
Li530 O588 1.961 . S
Li530 O590 1.956 1_455 S
Li530 O591 1.970 1_455 S
Li531 N581 1.990 . S
Li531 O589 1.961 . S
Li531 O590 1.970 . S
Li531 O591 1.956 . S
C532 C534 1.348 . S
C532 C535 1.356 . S
C532 O588 1.325 . S
N533 C536 1.314 . S
N533 C537 1.279 . S
C534 C532 1.348 . S
C534 C536 1.353 . S
C534 H592 0.929 . S
C535 C532 1.356 . S
C535 C537 1.358 . S
C535 H593 0.930 . S
C536 N533 1.314 . S
C536 C534 1.353 . S
C536 H594 0.930 . S
C537 N533 1.279 . S
C537 C535 1.358 . S
C537 H595 0.930 . S
C538 C541 1.348 . S
C538 C542 1.356 . S
C538 O589 1.325 . S
C539 N540 1.279 . S
C539 C542 1.358 . S
C539 H596 0.930 . S
N540 C539 1.279 . S
N540 C543 1.314 . S
C541 C538 1.348 . S
C541 C543 1.353 . S
C541 H597 0.929 . S
C542 C538 1.356 . S
C542 C539 1.358 . S
C542 H598 0.930 . S
C543 N540 1.314 . S
C543 C541 1.353 . S
C543 H599 0.930 . S
C544 N545 1.314 . S
C544 C549 1.353 . S
C544 H550 0.930 . S
N545 Li528 1.990 . S
N545 C544 1.314 . S
N545 C547 1.279 . S
C546 C547 1.358 . S
C546 C548 1.356 . S
C546 H600 0.930 . S
C547 N545 1.279 . S
C547 C546 1.358 . S
C547 H551 0.930 . S
C548 C546 1.356 . S
C548 C549 1.348 . S
C549 C544 1.353 . S
C549 C548 1.348 . S
C549 H601 0.929 . S
H550 C544 0.930 . S
H551 C547 0.930 . S
C552 N553 1.314 1_455 S
C552 C554 1.353 . S
C552 H558 0.930 . S
N553 Li529 1.990 . S
N553 C552 1.314 1_655 S
N553 C556 1.279 . S
C554 C552 1.353 . S
C554 C557 1.348 1_455 S
C554 H602 0.929 . S
C555 C556 1.358 . S
C555 C557 1.356 . S
C555 H603 0.930 . S
C556 N553 1.279 . S
C556 C555 1.358 . S
C556 H559 0.930 . S
C557 C554 1.348 1_655 S
C557 C555 1.356 . S
H558 C552 0.930 . S
H559 C556 0.930 . S
C560 C562 1.348 . S
C560 C563 1.356 . S
C560 O590 1.325 . S
N561 C564 1.314 . S
N561 C565 1.279 . S
C562 C560 1.348 . S
C562 C564 1.353 . S
C562 H604 0.929 . S
C563 C560 1.356 . S
C563 C565 1.358 . S
C563 H605 0.930 1_655 S
C564 N561 1.314 . S
C564 C562 1.353 . S
C564 H606 0.930 . S
C565 N561 1.279 . S
C565 C563 1.358 . S
C565 H607 0.930 . S
C566 C567 1.348 1_655 S
C566 C568 1.356 . S
C566 O591 1.325 . S
C567 C566 1.348 1_455 S
C567 C569 1.353 . S
C567 H608 0.929 . S
C568 C566 1.356 . S
C568 C570 1.358 . S
C568 H609 0.930 . S
C569 C567 1.353 . S
C569 N571 1.314 . S
C569 H610 0.930 . S
C570 C568 1.358 . S
C570 N571 1.279 1_655 S
C570 H611 0.930 . S
N571 C569 1.314 . S
N571 C570 1.279 1_455 S
C572 C574 1.353 . S
C572 N575 1.314 . S
C572 H578 0.930 . S
C573 N575 1.279 . S
C573 C576 1.358 . S
C573 H579 0.930 . S
C574 C572 1.353 . S
C574 C577 1.348 . S
C574 H612 0.929 . S
N575 Li530 1.990 . S
N575 C572 1.314 . S
N575 C573 1.279 . S
C576 C573 1.358 . S
C576 C577 1.356 . S
C576 H613 0.930 . S
C577 C574 1.348 . S
C577 C576 1.356 . S
H578 C572 0.930 . S
H579 C573 0.930 . S
C580 N581 1.314 . S
C580 C582 1.353 . S
C580 H586 0.930 . S
N581 Li531 1.990 . S
N581 C580 1.314 . S
N581 C584 1.279 . S
C582 C580 1.353 . S
C582 C585 1.348 . S
C582 H614 0.929 . S
C583 C584 1.358 . S
C583 C585 1.356 . S
C583 H615 0.930 . S
C584 N581 1.279 . S
C584 C583 1.358 . S
C584 H587 0.930 . S
C585 C582 1.348 . S
C585 C583 1.356 . S
H586 C580 0.930 . S
H587 C584 0.930 . S
O588 Li528 1.956 1_455 S
O588 Li529 1.970 1_455 S
O588 Li530 1.961 . S
O588 C532 1.325 . S
O589 Li528 1.970 . S
O589 Li529 1.956 . S
O589 Li531 1.961 . S
O589 C538 1.325 . S
O590 Li528 1.961 . S
O590 Li530 1.956 1_655 S
O590 Li531 1.970 . S
O590 C560 1.325 . S
O591 Li529 1.961 . S
O591 Li530 1.970 1_655 S
O591 Li531 1.956 . S
O591 C566 1.325 . S
H592 C534 0.929 . S
H593 C535 0.930 . S
H594 C536 0.930 . S
H595 C537 0.930 . S
H596 C539 0.930 . S
H597 C541 0.929 . S
H598 C542 0.930 . S
H599 C543 0.930 . S
H600 C546 0.930 . S
H601 C549 0.929 . S
H602 C554 0.929 . S
H603 C555 0.930 . S
H604 C562 0.929 . S
H605 C563 0.930 1_455 S
H606 C564 0.930 . S
H607 C565 0.930 . S
H608 C567 0.929 . S
H609 C568 0.930 . S
H610 C569 0.930 . S
H611 C570 0.930 . S
H612 C574 0.929 . S
H613 C576 0.930 . S
H614 C582 0.929 . S
H615 C583 0.930 . S
Li616 N633 1.990 . S
Li616 O676 1.956 1_565 S
Li616 O677 1.970 . S
Li616 O678 1.961 . S
Li617 N641 1.990 . S
Li617 O676 1.970 1_565 S
Li617 O677 1.956 . S
Li617 O679 1.961 . S
Li618 N663 1.990 . S
Li618 O676 1.961 . S
Li618 O678 1.956 1_545 S
Li618 O679 1.970 1_545 S
Li619 N669 1.990 . S
Li619 O677 1.961 . S
Li619 O678 1.970 . S
Li619 O679 1.956 . S
C620 C622 1.348 . S
C620 C623 1.356 . S
C620 O676 1.325 . S
N621 C624 1.314 . S
N621 C625 1.279 . S
C622 C620 1.348 . S
C622 C624 1.353 . S
C622 H680 0.929 . S
C623 C620 1.356 . S
C623 C625 1.358 . S
C623 H681 0.930 . S
C624 N621 1.314 . S
C624 C622 1.353 . S
C624 H682 0.930 . S
C625 N621 1.279 . S
C625 C623 1.358 . S
C625 H683 0.930 . S
C626 C629 1.348 . S
C626 C630 1.356 . S
C626 O677 1.325 . S
C627 N628 1.279 . S
C627 C630 1.358 . S
C627 H684 0.930 . S
N628 C627 1.279 . S
N628 C631 1.314 . S
C629 C626 1.348 . S
C629 C631 1.353 . S
C629 H685 0.929 . S
C630 C626 1.356 . S
C630 C627 1.358 . S
C630 H686 0.930 . S
C631 N628 1.314 . S
C631 C629 1.353 . S
C631 H687 0.930 . S
C632 N633 1.314 . S
C632 C637 1.353 . S
C632 H638 0.930 . S
N633 Li616 1.990 . S
N633 C632 1.314 . S
N633 C635 1.279 . S
C634 C635 1.358 . S
C634 C636 1.356 . S
C634 H688 0.930 . S
C635 N633 1.279 . S
C635 C634 1.358 . S
C635 H639 0.930 . S
C636 C634 1.356 . S
C636 C637 1.348 . S
C637 C632 1.353 . S
C637 C636 1.348 . S
C637 H689 0.929 . S
H638 C632 0.930 . S
H639 C635 0.930 . S
C640 N641 1.314 1_545 S
C640 C642 1.353 . S
C640 H646 0.930 . S
N641 Li617 1.990 . S
N641 C640 1.314 1_565 S
N641 C644 1.279 . S
C642 C640 1.353 . S
C642 C645 1.348 1_545 S
C642 H690 0.929 . S
C643 C644 1.358 . S
C643 C645 1.356 . S
C643 H691 0.930 . S
C644 N641 1.279 . S
C644 C643 1.358 . S
C644 H647 0.930 . S
C645 C642 1.348 1_565 S
C645 C643 1.356 . S
H646 C640 0.930 . S
H647 C644 0.930 . S
C648 C650 1.348 . S
C648 C651 1.356 . S
C648 O678 1.325 . S
N649 C652 1.314 . S
N649 C653 1.279 . S
C650 C648 1.348 . S
C650 C652 1.353 . S
C650 H692 0.929 . S
C651 C648 1.356 . S
C651 C653 1.358 . S
C651 H693 0.930 1_565 S
C652 N649 1.314 . S
C652 C650 1.353 . S
C652 H694 0.930 . S
C653 N649 1.279 . S
C653 C651 1.358 . S
C653 H695 0.930 . S
C654 C655 1.348 1_565 S
C654 C656 1.356 . S
C654 O679 1.325 . S
C655 C654 1.348 1_545 S
C655 C657 1.353 . S
C655 H696 0.929 . S
C656 C654 1.356 . S
C656 C658 1.358 . S
C656 H697 0.930 . S
C657 C655 1.353 . S
C657 N659 1.314 . S
C657 H698 0.930 . S
C658 C656 1.358 . S
C658 N659 1.279 1_565 S
C658 H699 0.930 . S
N659 C657 1.314 . S
N659 C658 1.279 1_545 S
C660 C662 1.353 . S
C660 N663 1.314 . S
C660 H666 0.930 . S
C661 N663 1.279 . S
C661 C664 1.358 . S
C661 H667 0.930 . S
C662 C660 1.353 . S
C662 C665 1.348 . S
C662 H700 0.929 . S
N663 Li618 1.990 . S
N663 C660 1.314 . S
N663 C661 1.279 . S
C664 C661 1.358 . S
C664 C665 1.356 . S
C664 H701 0.930 . S
C665 C662 1.348 . S
C665 C664 1.356 . S
H666 C660 0.930 . S
H667 C661 0.930 . S
C668 N669 1.314 . S
C668 C670 1.353 . S
C668 H674 0.930 . S
N669 Li619 1.990 . S
N669 C668 1.314 . S
N669 C672 1.279 . S
C670 C668 1.353 . S
C670 C673 1.348 . S
C670 H702 0.929 . S
C671 C672 1.358 . S
C671 C673 1.356 . S
C671 H703 0.930 . S
C672 N669 1.279 . S
C672 C671 1.358 . S
C672 H675 0.930 . S
C673 C670 1.348 . S
C673 C671 1.356 . S
H674 C668 0.930 . S
H675 C672 0.930 . S
O676 Li616 1.956 1_545 S
O676 Li617 1.970 1_545 S
O676 Li618 1.961 . S
O676 C620 1.325 . S
O677 Li616 1.970 . S
O677 Li617 1.956 . S
O677 Li619 1.961 . S
O677 C626 1.325 . S
O678 Li616 1.961 . S
O678 Li618 1.956 1_565 S
O678 Li619 1.970 . S
O678 C648 1.325 . S
O679 Li617 1.961 . S
O679 Li618 1.970 1_565 S
O679 Li619 1.956 . S
O679 C654 1.325 . S
H680 C622 0.929 . S
H681 C623 0.930 . S
H682 C624 0.930 . S
H683 C625 0.930 . S
H684 C627 0.930 . S
H685 C629 0.929 . S
H686 C630 0.930 . S
H687 C631 0.930 . S
H688 C634 0.930 . S
H689 C637 0.929 . S
H690 C642 0.929 . S
H691 C643 0.930 . S
H692 C650 0.929 . S
H693 C651 0.930 1_545 S
H694 C652 0.930 . S
H695 C653 0.930 . S
H696 C655 0.929 . S
H697 C656 0.930 . S
H698 C657 0.930 . S
H699 C658 0.930 . S
H700 C662 0.929 . S
H701 C664 0.930 . S
H702 C670 0.929 . S
H703 C671 0.930 . S
Li704 N721 1.990 . S
Li704 O764 1.956 . S
Li704 O765 1.970 . S
Li704 O766 1.961 . S
Li705 N729 1.990 . S
Li705 O764 1.970 . S
Li705 O765 1.956 . S
Li705 O767 1.961 . S
Li706 N751 1.990 . S
Li706 O764 1.961 . S
Li706 O766 1.956 . S
Li706 O767 1.970 . S
Li707 N757 1.990 . S
Li707 O765 1.961 . S
Li707 O766 1.970 . S
Li707 O767 1.956 . S
C708 C710 1.348 . S
C708 C711 1.356 . S
C708 O764 1.325 . S
N709 C712 1.314 . S
N709 C713 1.279 . S
C710 C708 1.348 . S
C710 C712 1.353 . S
C710 H768 0.929 . S
C711 C708 1.356 . S
C711 C713 1.358 . S
C711 H769 0.930 . S
C712 N709 1.314 . S
C712 C710 1.353 . S
C712 H770 0.930 . S
C713 N709 1.279 . S
C713 C711 1.358 . S
C713 H771 0.930 . S
C714 C717 1.348 . S
C714 C718 1.356 . S
C714 O765 1.325 . S
C715 N716 1.279 . S
C715 C718 1.358 . S
C715 H772 0.930 . S
N716 C715 1.279 . S
N716 C719 1.314 . S
C717 C714 1.348 . S
C717 C719 1.353 . S
C717 H773 0.929 . S
C718 C714 1.356 . S
C718 C715 1.358 . S
C718 H774 0.930 . S
C719 N716 1.314 . S
C719 C717 1.353 . S
C719 H775 0.930 . S
C720 N721 1.314 . S
C720 C725 1.353 . S
C720 H726 0.930 . S
N721 Li704 1.990 . S
N721 C720 1.314 . S
N721 C723 1.279 . S
C722 C723 1.358 . S
C722 C724 1.356 . S
C722 H776 0.930 . S
C723 N721 1.279 . S
C723 C722 1.358 . S
C723 H727 0.930 . S
C724 C722 1.356 . S
C724 C725 1.348 . S
C725 C720 1.353 . S
C725 C724 1.348 . S
C725 H777 0.929 . S
H726 C720 0.930 . S
H727 C723 0.930 . S
C728 N729 1.314 . S
C728 C730 1.353 . S
C728 H734 0.930 . S
N729 Li705 1.990 . S
N729 C728 1.314 . S
N729 C732 1.279 . S
C730 C728 1.353 . S
C730 C733 1.348 . S
C730 H778 0.929 . S
C731 C732 1.358 . S
C731 C733 1.356 . S
C731 H779 0.930 . S
C732 N729 1.279 . S
C732 C731 1.358 . S
C732 H735 0.930 . S
C733 C730 1.348 . S
C733 C731 1.356 . S
H734 C728 0.930 . S
H735 C732 0.930 . S
C736 C738 1.348 . S
C736 C739 1.356 . S
C736 O766 1.325 . S
N737 C740 1.314 . S
N737 C741 1.279 . S
C738 C736 1.348 . S
C738 C740 1.353 . S
C738 H780 0.929 . S
C739 C736 1.356 . S
C739 C741 1.358 . S
C739 H781 0.930 . S
C740 N737 1.314 . S
C740 C738 1.353 . S
C740 H782 0.930 . S
C741 N737 1.279 . S
C741 C739 1.358 . S
C741 H783 0.930 . S
C742 C743 1.348 . S
C742 C744 1.356 . S
C742 O767 1.325 . S
C743 C742 1.348 . S
C743 C745 1.353 . S
C743 H784 0.929 . S
C744 C742 1.356 . S
C744 C746 1.358 . S
C744 H785 0.930 . S
C745 C743 1.353 . S
C745 N747 1.314 . S
C745 H786 0.930 . S
C746 C744 1.358 . S
C746 N747 1.279 . S
C746 H787 0.930 . S
N747 C745 1.314 . S
N747 C746 1.279 . S
C748 C750 1.353 . S
C748 N751 1.314 . S
C748 H754 0.930 . S
C749 N751 1.279 . S
C749 C752 1.358 . S
C749 H755 0.930 . S
C750 C748 1.353 . S
C750 C753 1.348 . S
C750 H788 0.929 . S
N751 Li706 1.990 . S
N751 C748 1.314 . S
N751 C749 1.279 . S
C752 C749 1.358 . S
C752 C753 1.356 . S
C752 H789 0.930 . S
C753 C750 1.348 . S
C753 C752 1.356 . S
H754 C748 0.930 . S
H755 C749 0.930 . S
C756 N757 1.314 . S
C756 C758 1.353 . S
C756 H762 0.930 . S
N757 Li707 1.990 . S
N757 C756 1.314 . S
N757 C760 1.279 . S
C758 C756 1.353 . S
C758 C761 1.348 . S
C758 H790 0.929 . S
C759 C760 1.358 . S
C759 C761 1.356 . S
C759 H791 0.930 . S
C760 N757 1.279 . S
C760 C759 1.358 . S
C760 H763 0.930 . S
C761 C758 1.348 . S
C761 C759 1.356 . S
H762 C756 0.930 . S
H763 C760 0.930 . S
O764 Li704 1.956 . S
O764 Li705 1.970 . S
O764 Li706 1.961 . S
O764 C708 1.325 . S
O765 Li704 1.970 . S
O765 Li705 1.956 . S
O765 Li707 1.961 . S
O765 C714 1.325 . S
O766 Li704 1.961 . S
O766 Li706 1.956 . S
O766 Li707 1.970 . S
O766 C736 1.325 . S
O767 Li705 1.961 . S
O767 Li706 1.970 . S
O767 Li707 1.956 . S
O767 C742 1.325 . S
H768 C710 0.929 . S
H769 C711 0.930 . S
H770 C712 0.930 . S
H771 C713 0.930 . S
H772 C715 0.930 . S
H773 C717 0.929 . S
H774 C718 0.930 . S
H775 C719 0.930 . S
H776 C722 0.930 . S
H777 C725 0.929 . S
H778 C730 0.929 . S
H779 C731 0.930 . S
H780 C738 0.929 . S
H781 C739 0.930 . S
H782 C740 0.930 . S
H783 C741 0.930 . S
H784 C743 0.929 . S
H785 C744 0.930 . S
H786 C745 0.930 . S
H787 C746 0.930 . S
H788 C750 0.929 . S
H789 C752 0.930 . S
H790 C758 0.929 . S
H791 C759 0.930 . S
Li792 N809 1.990 . S
Li792 O852 1.956 . S
Li792 O853 1.970 . S
Li792 O854 1.961 . S
Li793 N817 1.990 . S
Li793 O852 1.970 . S
Li793 O853 1.956 . S
Li793 O855 1.961 . S
Li794 N839 1.990 . S
Li794 O852 1.961 . S
Li794 O854 1.956 . S
Li794 O855 1.970 . S
Li795 N845 1.990 . S
Li795 O853 1.961 . S
Li795 O854 1.970 . S
Li795 O855 1.956 . S
C796 C798 1.348 . S
C796 C799 1.356 . S
C796 O852 1.325 . S
N797 C800 1.314 . S
N797 C801 1.279 . S
C798 C796 1.348 . S
C798 C800 1.353 . S
C798 H856 0.929 . S
C799 C796 1.356 . S
C799 C801 1.358 . S
C799 H857 0.930 . S
C800 N797 1.314 . S
C800 C798 1.353 . S
C800 H858 0.930 . S
C801 N797 1.279 . S
C801 C799 1.358 . S
C801 H859 0.930 . S
C802 C805 1.348 . S
C802 C806 1.356 . S
C802 O853 1.325 . S
C803 N804 1.279 . S
C803 C806 1.358 . S
C803 H860 0.930 . S
N804 C803 1.279 . S
N804 C807 1.314 . S
C805 C802 1.348 . S
C805 C807 1.353 . S
C805 H861 0.929 . S
C806 C802 1.356 . S
C806 C803 1.358 . S
C806 H862 0.930 . S
C807 N804 1.314 . S
C807 C805 1.353 . S
C807 H863 0.930 . S
C808 N809 1.314 . S
C808 C813 1.353 . S
C808 H814 0.930 . S
N809 Li792 1.990 . S
N809 C808 1.314 . S
N809 C811 1.279 . S
C810 C811 1.358 . S
C810 C812 1.356 . S
C810 H864 0.930 . S
C811 N809 1.279 . S
C811 C810 1.358 . S
C811 H815 0.930 . S
C812 C810 1.356 . S
C812 C813 1.348 . S
C813 C808 1.353 . S
C813 C812 1.348 . S
C813 H865 0.929 . S
H814 C808 0.930 . S
H815 C811 0.930 . S
C816 N817 1.314 . S
C816 C818 1.353 . S
C816 H822 0.930 . S
N817 Li793 1.990 . S
N817 C816 1.314 . S
N817 C820 1.279 . S
C818 C816 1.353 . S
C818 C821 1.348 . S
C818 H866 0.929 . S
C819 C820 1.358 . S
C819 C821 1.356 . S
C819 H867 0.930 . S
C820 N817 1.279 . S
C820 C819 1.358 . S
C820 H823 0.930 . S
C821 C818 1.348 . S
C821 C819 1.356 . S
H822 C816 0.930 . S
H823 C820 0.930 . S
C824 C826 1.348 . S
C824 C827 1.356 . S
C824 O854 1.325 . S
N825 C828 1.314 . S
N825 C829 1.279 . S
C826 C824 1.348 . S
C826 C828 1.353 . S
C826 H868 0.929 . S
C827 C824 1.356 . S
C827 C829 1.358 . S
C827 H869 0.930 . S
C828 N825 1.314 . S
C828 C826 1.353 . S
C828 H870 0.930 . S
C829 N825 1.279 . S
C829 C827 1.358 . S
C829 H871 0.930 . S
C830 C831 1.348 . S
C830 C832 1.356 . S
C830 O855 1.325 . S
C831 C830 1.348 . S
C831 C833 1.353 . S
C831 H872 0.929 . S
C832 C830 1.356 . S
C832 C834 1.358 . S
C832 H873 0.930 . S
C833 C831 1.353 . S
C833 N835 1.314 . S
C833 H874 0.930 . S
C834 C832 1.358 . S
C834 N835 1.279 . S
C834 H875 0.930 . S
N835 C833 1.314 . S
N835 C834 1.279 . S
C836 C838 1.353 . S
C836 N839 1.314 . S
C836 H842 0.930 . S
C837 N839 1.279 . S
C837 C840 1.358 . S
C837 H843 0.930 . S
C838 C836 1.353 . S
C838 C841 1.348 . S
C838 H876 0.929 . S
N839 Li794 1.990 . S
N839 C836 1.314 . S
N839 C837 1.279 . S
C840 C837 1.358 . S
C840 C841 1.356 . S
C840 H877 0.930 . S
C841 C838 1.348 . S
C841 C840 1.356 . S
H842 C836 0.930 . S
H843 C837 0.930 . S
C844 N845 1.314 . S
C844 C846 1.353 . S
C844 H850 0.930 . S
N845 Li795 1.990 . S
N845 C844 1.314 . S
N845 C848 1.279 . S
C846 C844 1.353 . S
C846 C849 1.348 . S
C846 H878 0.929 . S
C847 C848 1.358 . S
C847 C849 1.356 . S
C847 H879 0.930 . S
C848 N845 1.279 . S
C848 C847 1.358 . S
C848 H851 0.930 . S
C849 C846 1.348 . S
C849 C847 1.356 . S
H850 C844 0.930 . S
H851 C848 0.930 . S
O852 Li792 1.956 . S
O852 Li793 1.970 . S
O852 Li794 1.961 . S
O852 C796 1.325 . S
O853 Li792 1.970 . S
O853 Li793 1.956 . S
O853 Li795 1.961 . S
O853 C802 1.325 . S
O854 Li792 1.961 . S
O854 Li794 1.956 . S
O854 Li795 1.970 . S
O854 C824 1.325 . S
O855 Li793 1.961 . S
O855 Li794 1.970 . S
O855 Li795 1.956 . S
O855 C830 1.325 . S
H856 C798 0.929 . S
H857 C799 0.930 . S
H858 C800 0.930 . S
H859 C801 0.930 . S
H860 C803 0.930 . S
H861 C805 0.929 . S
H862 C806 0.930 . S
H863 C807 0.930 . S
H864 C810 0.930 . S
H865 C813 0.929 . S
H866 C818 0.929 . S
H867 C819 0.930 . S
H868 C826 0.929 . S
H869 C827 0.930 . S
H870 C828 0.930 . S
H871 C829 0.930 . S
H872 C831 0.929 . S
H873 C832 0.930 . S
H874 C833 0.930 . S
H875 C834 0.930 . S
H876 C838 0.929 . S
H877 C840 0.930 . S
H878 C846 0.929 . S
H879 C847 0.930 . S
Li880 N897 1.990 . S
Li880 O940 1.956 . S
Li880 O941 1.970 1_455 S
Li880 O942 1.961 . S
Li881 N905 1.990 . S
Li881 O940 1.970 1_655 S
Li881 O941 1.956 . S
Li881 O943 1.961 1_655 S
Li882 N927 1.990 . S
Li882 O940 1.961 . S
Li882 O942 1.956 . S
Li882 O943 1.970 . S
Li883 N933 1.990 . S
Li883 O941 1.961 1_455 S
Li883 O942 1.970 . S
Li883 O943 1.956 . S
C884 C886 1.348 1_455 S
C884 C887 1.356 . S
C884 O940 1.325 . S
N885 C888 1.314 . S
N885 C889 1.279 1_655 S
C886 C884 1.348 1_655 S
C886 C888 1.353 . S
C886 H944 0.929 . S
C887 C884 1.356 . S
C887 C889 1.358 . S
C887 H945 0.930 . S
C888 N885 1.314 . S
C888 C886 1.353 . S
C888 H946 0.930 . S
C889 N885 1.279 1_455 S
C889 C887 1.358 . S
C889 H947 0.930 . S
C890 C893 1.348 . S
C890 C894 1.356 . S
C890 O941 1.325 . S
C891 N892 1.279 . S
C891 C894 1.358 . S
C891 H948 0.930 . S
N892 C891 1.279 . S
N892 C895 1.314 . S
C893 C890 1.348 . S
C893 C895 1.353 . S
C893 H949 0.929 . S
C894 C890 1.356 . S
C894 C891 1.358 . S
C894 H950 0.930 . S
C895 N892 1.314 . S
C895 C893 1.353 . S
C895 H951 0.930 . S
C896 N897 1.314 . S
C896 C901 1.353 . S
C896 H902 0.930 . S
N897 Li880 1.990 . S
N897 C896 1.314 . S
N897 C899 1.279 1_455 S
C898 C899 1.358 . S
C898 C900 1.356 1_655 S
C898 H952 0.930 . S
C899 N897 1.279 1_655 S
C899 C898 1.358 . S
C899 H903 0.930 . S
C900 C898 1.356 1_455 S
C900 C901 1.348 . S
C901 C896 1.353 . S
C901 C900 1.348 . S
C901 H953 0.929 . S
H902 C896 0.930 . S
H903 C899 0.930 . S
C904 N905 1.314 . S
C904 C906 1.353 . S
C904 H910 0.930 . S
N905 Li881 1.990 . S
N905 C904 1.314 . S
N905 C908 1.279 . S
C906 C904 1.353 . S
C906 C909 1.348 . S
C906 H954 0.929 . S
C907 C908 1.358 . S
C907 C909 1.356 . S
C907 H955 0.930 . S
C908 N905 1.279 . S
C908 C907 1.358 . S
C908 H911 0.930 . S
C909 C906 1.348 . S
C909 C907 1.356 . S
H910 C904 0.930 . S
H911 C908 0.930 . S
C912 C914 1.348 . S
C912 C915 1.356 . S
C912 O942 1.325 . S
N913 C916 1.314 . S
N913 C917 1.279 . S
C914 C912 1.348 . S
C914 C916 1.353 . S
C914 H956 0.929 . S
C915 C912 1.356 . S
C915 C917 1.358 . S
C915 H957 0.930 . S
C916 N913 1.314 . S
C916 C914 1.353 . S
C916 H958 0.930 . S
C917 N913 1.279 . S
C917 C915 1.358 . S
C917 H959 0.930 . S
C918 C919 1.348 . S
C918 C920 1.357 1_455 S
C918 O943 1.325 . S
C919 C918 1.348 . S
C919 C921 1.353 . S
C919 H960 0.929 . S
C920 C918 1.357 1_655 S
C920 C922 1.359 1_655 S
C920 H961 0.928 . S
C921 C919 1.353 . S
C921 N923 1.314 . S
C921 H962 0.930 . S
C922 C920 1.359 1_455 S
C922 N923 1.279 . S
C922 H963 0.930 1_455 S
N923 C921 1.314 . S
N923 C922 1.279 . S
C924 C926 1.353 . S
C924 N927 1.314 . S
C924 H930 0.930 . S
C925 N927 1.279 . S
C925 C928 1.358 . S
C925 H931 0.930 . S
C926 C924 1.353 . S
C926 C929 1.348 . S
C926 H964 0.929 . S
N927 Li882 1.990 . S
N927 C924 1.314 . S
N927 C925 1.279 . S
C928 C925 1.358 . S
C928 C929 1.356 . S
C928 H965 0.930 . S
C929 C926 1.348 . S
C929 C928 1.356 . S
H930 C924 0.930 . S
H931 C925 0.930 . S
C932 N933 1.314 . S
C932 C934 1.353 . S
C932 H938 0.930 . S
N933 Li883 1.990 . S
N933 C932 1.314 . S
N933 C936 1.279 . S
C934 C932 1.353 . S
C934 C937 1.348 . S
C934 H966 0.929 . S
C935 C936 1.358 . S
C935 C937 1.356 . S
C935 H967 0.930 . S
C936 N933 1.279 . S
C936 C935 1.358 . S
C936 H939 0.930 . S
C937 C934 1.348 . S
C937 C935 1.356 . S
H938 C932 0.930 . S
H939 C936 0.930 . S
O940 Li880 1.956 . S
O940 Li881 1.970 1_455 S
O940 Li882 1.961 . S
O940 C884 1.325 . S
O941 Li880 1.970 1_655 S
O941 Li881 1.956 . S
O941 Li883 1.961 1_655 S
O941 C890 1.325 . S
O942 Li880 1.961 . S
O942 Li882 1.956 . S
O942 Li883 1.970 . S
O942 C912 1.325 . S
O943 Li881 1.961 1_455 S
O943 Li882 1.970 . S
O943 Li883 1.956 . S
O943 C918 1.325 . S
H944 C886 0.929 . S
H945 C887 0.930 . S
H946 C888 0.930 . S
H947 C889 0.930 . S
H948 C891 0.930 . S
H949 C893 0.929 . S
H950 C894 0.930 . S
H951 C895 0.930 . S
H952 C898 0.930 . S
H953 C901 0.929 . S
H954 C906 0.929 . S
H955 C907 0.930 . S
H956 C914 0.929 . S
H957 C915 0.930 . S
H958 C916 0.930 . S
H959 C917 0.930 . S
H960 C919 0.929 . S
H961 C920 0.928 . S
H962 C921 0.930 . S
H963 C922 0.930 1_655 S
H964 C926 0.929 . S
H965 C928 0.930 . S
H966 C934 0.929 . S
H967 C935 0.930 . S
Li968 N985 1.990 . S
Li968 O1028 1.956 . S
Li968 O1029 1.970 1_545 S
Li968 O1030 1.961 . S
Li969 N993 1.990 . S
Li969 O1028 1.970 1_565 S
Li969 O1029 1.956 . S
Li969 O1031 1.961 1_565 S
Li970 N1015 1.990 . S
Li970 O1028 1.961 . S
Li970 O1030 1.956 . S
Li970 O1031 1.970 . S
Li971 N1021 1.990 . S
Li971 O1029 1.961 1_545 S
Li971 O1030 1.970 . S
Li971 O1031 1.956 . S
C972 C974 1.348 1_545 S
C972 C975 1.356 . S
C972 O1028 1.325 . S
N973 C976 1.314 . S
N973 C977 1.279 1_565 S
C974 C972 1.348 1_565 S
C974 C976 1.353 . S
C974 H1032 0.929 . S
C975 C972 1.356 . S
C975 C977 1.358 . S
C975 H1033 0.930 . S
C976 N973 1.314 . S
C976 C974 1.353 . S
C976 H1034 0.930 . S
C977 N973 1.279 1_545 S
C977 C975 1.358 . S
C977 H1035 0.930 . S
C978 C981 1.348 . S
C978 C982 1.356 . S
C978 O1029 1.325 . S
C979 N980 1.279 . S
C979 C982 1.358 . S
C979 H1036 0.930 . S
N980 C979 1.279 . S
N980 C983 1.314 . S
C981 C978 1.348 . S
C981 C983 1.353 . S
C981 H1037 0.929 . S
C982 C978 1.356 . S
C982 C979 1.358 . S
C982 H1038 0.930 . S
C983 N980 1.314 . S
C983 C981 1.353 . S
C983 H1039 0.930 . S
C984 N985 1.314 . S
C984 C989 1.353 . S
C984 H990 0.930 . S
N985 Li968 1.990 . S
N985 C984 1.314 . S
N985 C987 1.279 1_545 S
C986 C987 1.358 . S
C986 C988 1.356 1_565 S
C986 H1040 0.930 . S
C987 N985 1.279 1_565 S
C987 C986 1.358 . S
C987 H991 0.930 . S
C988 C986 1.356 1_545 S
C988 C989 1.348 . S
C989 C984 1.353 . S
C989 C988 1.348 . S
C989 H1041 0.929 . S
H990 C984 0.930 . S
H991 C987 0.930 . S
C992 N993 1.314 . S
C992 C994 1.353 . S
C992 H998 0.930 . S
N993 Li969 1.990 . S
N993 C992 1.314 . S
N993 C996 1.279 . S
C994 C992 1.353 . S
C994 C997 1.348 . S
C994 H1042 0.929 . S
C995 C996 1.358 . S
C995 C997 1.356 . S
C995 H1043 0.930 . S
C996 N993 1.279 . S
C996 C995 1.358 . S
C996 H999 0.930 . S
C997 C994 1.348 . S
C997 C995 1.356 . S
H998 C992 0.930 . S
H999 C996 0.930 . S
C1000 C1002 1.348 . S
C1000 C1003 1.356 . S
C1000 O1030 1.325 . S
N1001 C1004 1.314 . S
N1001 C1005 1.279 . S
C1002 C1000 1.348 . S
C1002 C1004 1.353 . S
C1002 H1044 0.929 . S
C1003 C1000 1.356 . S
C1003 C1005 1.358 . S
C1003 H1045 0.930 . S
C1004 N1001 1.314 . S
C1004 C1002 1.353 . S
C1004 H1046 0.930 . S
C1005 N1001 1.279 . S
C1005 C1003 1.358 . S
C1005 H1047 0.930 . S
C1006 C1007 1.348 . S
C1006 C1008 1.357 1_545 S
C1006 O1031 1.325 . S
C1007 C1006 1.348 . S
C1007 C1009 1.353 . S
C1007 H1048 0.929 . S
C1008 C1006 1.357 1_565 S
C1008 C1010 1.359 1_565 S
C1008 H1049 0.929 . S
C1009 C1007 1.353 . S
C1009 N1011 1.314 . S
C1009 H1050 0.930 . S
C1010 C1008 1.359 1_545 S
C1010 N1011 1.279 . S
C1010 H1051 0.930 1_545 S
N1011 C1009 1.314 . S
N1011 C1010 1.279 . S
C1012 C1014 1.353 . S
C1012 N1015 1.314 . S
C1012 H1018 0.930 . S
C1013 N1015 1.279 . S
C1013 C1016 1.358 . S
C1013 H1019 0.930 . S
C1014 C1012 1.353 . S
C1014 C1017 1.348 . S
C1014 H1052 0.929 . S
N1015 Li970 1.990 . S
N1015 C1012 1.314 . S
N1015 C1013 1.279 . S
C1016 C1013 1.358 . S
C1016 C1017 1.356 . S
C1016 H1053 0.930 . S
C1017 C1014 1.348 . S
C1017 C1016 1.356 . S
H1018 C1012 0.930 . S
H1019 C1013 0.930 . S
C1020 N1021 1.314 . S
C1020 C1022 1.353 . S
C1020 H1026 0.930 . S
N1021 Li971 1.990 . S
N1021 C1020 1.314 . S
N1021 C1024 1.279 . S
C1022 C1020 1.353 . S
C1022 C1025 1.348 . S
C1022 H1054 0.929 . S
C1023 C1024 1.358 . S
C1023 C1025 1.356 . S
C1023 H1055 0.930 . S
C1024 N1021 1.279 . S
C1024 C1023 1.358 . S
C1024 H1027 0.930 . S
C1025 C1022 1.348 . S
C1025 C1023 1.356 . S
H1026 C1020 0.930 . S
H1027 C1024 0.930 . S
O1028 Li968 1.956 . S
O1028 Li969 1.970 1_545 S
O1028 Li970 1.961 . S
O1028 C972 1.325 . S
O1029 Li968 1.970 1_565 S
O1029 Li969 1.956 . S
O1029 Li971 1.961 1_565 S
O1029 C978 1.325 . S
O1030 Li968 1.961 . S
O1030 Li970 1.956 . S
O1030 Li971 1.970 . S
O1030 C1000 1.325 . S
O1031 Li969 1.961 1_545 S
O1031 Li970 1.970 . S
O1031 Li971 1.956 . S
O1031 C1006 1.325 . S
H1032 C974 0.929 . S
H1033 C975 0.930 . S
H1034 C976 0.930 . S
H1035 C977 0.930 . S
H1036 C979 0.930 . S
H1037 C981 0.929 . S
H1038 C982 0.930 . S
H1039 C983 0.930 . S
H1040 C986 0.930 . S
H1041 C989 0.929 . S
H1042 C994 0.929 . S
H1043 C995 0.930 . S
H1044 C1002 0.929 . S
H1045 C1003 0.930 . S
H1046 C1004 0.930 . S
H1047 C1005 0.930 . S
H1048 C1007 0.929 . S
H1049 C1008 0.929 . S
H1050 C1009 0.930 . S
H1051 C1010 0.930 1_565 S
H1052 C1014 0.929 . S
H1053 C1016 0.930 . S
H1054 C1022 0.929 . S
H1055 C1023 0.930 . S
Li1056 N1073 1.990 . S
Li1056 O1116 1.956 . S
Li1056 O1117 1.970 . S
Li1056 O1118 1.961 . S
Li1057 N1081 1.990 . S
Li1057 O1116 1.970 . S
Li1057 O1117 1.956 . S
Li1057 O1119 1.961 . S
Li1058 N1103 1.990 . S
Li1058 O1116 1.961 . S
Li1058 O1118 1.956 . S
Li1058 O1119 1.970 . S
Li1059 N1109 1.990 . S
Li1059 O1117 1.961 . S
Li1059 O1118 1.970 . S
Li1059 O1119 1.956 . S
C1060 C1062 1.348 . S
C1060 C1063 1.356 . S
C1060 O1116 1.325 . S
N1061 C1064 1.314 . S
N1061 C1065 1.279 . S
C1062 C1060 1.348 . S
C1062 C1064 1.353 . S
C1062 H1120 0.929 . S
C1063 C1060 1.356 . S
C1063 C1065 1.358 . S
C1063 H1121 0.930 . S
C1064 N1061 1.314 . S
C1064 C1062 1.353 . S
C1064 H1122 0.930 . S
C1065 N1061 1.279 . S
C1065 C1063 1.358 . S
C1065 H1123 0.930 . S
C1066 C1069 1.348 . S
C1066 C1070 1.356 . S
C1066 O1117 1.325 . S
C1067 N1068 1.279 . S
C1067 C1070 1.358 . S
C1067 H1124 0.930 . S
N1068 C1067 1.279 . S
N1068 C1071 1.314 . S
C1069 C1066 1.348 . S
C1069 C1071 1.353 . S
C1069 H1125 0.929 . S
C1070 C1066 1.356 . S
C1070 C1067 1.358 . S
C1070 H1126 0.930 . S
C1071 N1068 1.314 . S
C1071 C1069 1.353 . S
C1071 H1127 0.930 . S
C1072 N1073 1.314 . S
C1072 C1077 1.353 . S
C1072 H1078 0.930 . S
N1073 Li1056 1.990 . S
N1073 C1072 1.314 . S
N1073 C1075 1.279 . S
C1074 C1075 1.358 . S
C1074 C1076 1.356 . S
C1074 H1128 0.930 . S
C1075 N1073 1.279 . S
C1075 C1074 1.358 . S
C1075 H1079 0.930 . S
C1076 C1074 1.356 . S
C1076 C1077 1.348 . S
C1077 C1072 1.353 . S
C1077 C1076 1.348 . S
C1077 H1129 0.929 . S
H1078 C1072 0.930 . S
H1079 C1075 0.930 . S
C1080 N1081 1.314 . S
C1080 C1082 1.353 . S
C1080 H1086 0.930 . S
N1081 Li1057 1.990 . S
N1081 C1080 1.314 . S
N1081 C1084 1.279 . S
C1082 C1080 1.353 . S
C1082 C1085 1.348 . S
C1082 H1130 0.929 . S
C1083 C1084 1.358 . S
C1083 C1085 1.356 . S
C1083 H1131 0.930 . S
C1084 N1081 1.279 . S
C1084 C1083 1.358 . S
C1084 H1087 0.930 . S
C1085 C1082 1.348 . S
C1085 C1083 1.356 . S
H1086 C1080 0.930 . S
H1087 C1084 0.930 . S
C1088 C1090 1.348 . S
C1088 C1091 1.356 . S
C1088 O1118 1.325 . S
N1089 C1092 1.314 . S
N1089 C1093 1.279 . S
C1090 C1088 1.348 . S
C1090 C1092 1.353 . S
C1090 H1132 0.929 . S
C1091 C1088 1.356 . S
C1091 C1093 1.358 . S
C1091 H1133 0.930 . S
C1092 N1089 1.314 . S
C1092 C1090 1.353 . S
C1092 H1134 0.930 . S
C1093 N1089 1.279 . S
C1093 C1091 1.358 . S
C1093 H1135 0.930 . S
C1094 C1095 1.348 . S
C1094 C1096 1.356 . S
C1094 O1119 1.325 . S
C1095 C1094 1.348 . S
C1095 C1097 1.353 . S
C1095 H1136 0.929 . S
C1096 C1094 1.356 . S
C1096 C1098 1.358 . S
C1096 H1137 0.930 . S
C1097 C1095 1.353 . S
C1097 N1099 1.314 . S
C1097 H1138 0.930 . S
C1098 C1096 1.358 . S
C1098 N1099 1.279 . S
C1098 H1139 0.930 . S
N1099 C1097 1.314 . S
N1099 C1098 1.279 . S
C1100 C1102 1.353 . S
C1100 N1103 1.314 . S
C1100 H1106 0.930 . S
C1101 N1103 1.279 . S
C1101 C1104 1.358 . S
C1101 H1107 0.930 . S
C1102 C1100 1.353 . S
C1102 C1105 1.348 . S
C1102 H1140 0.929 . S
N1103 Li1058 1.990 . S
N1103 C1100 1.314 . S
N1103 C1101 1.279 . S
C1104 C1101 1.358 . S
C1104 C1105 1.356 . S
C1104 H1141 0.930 . S
C1105 C1102 1.348 . S
C1105 C1104 1.356 . S
H1106 C1100 0.930 . S
H1107 C1101 0.930 . S
C1108 N1109 1.314 . S
C1108 C1110 1.353 . S
C1108 H1114 0.930 . S
N1109 Li1059 1.990 . S
N1109 C1108 1.314 . S
N1109 C1112 1.279 . S
C1110 C1108 1.353 . S
C1110 C1113 1.348 . S
C1110 H1142 0.929 . S
C1111 C1112 1.358 . S
C1111 C1113 1.356 . S
C1111 H1143 0.930 . S
C1112 N1109 1.279 . S
C1112 C1111 1.358 . S
C1112 H1115 0.930 . S
C1113 C1110 1.348 . S
C1113 C1111 1.356 . S
H1114 C1108 0.930 . S
H1115 C1112 0.930 . S
O1116 Li1056 1.956 . S
O1116 Li1057 1.970 . S
O1116 Li1058 1.961 . S
O1116 C1060 1.325 . S
O1117 Li1056 1.970 . S
O1117 Li1057 1.956 . S
O1117 Li1059 1.961 . S
O1117 C1066 1.325 . S
O1118 Li1056 1.961 . S
O1118 Li1058 1.956 . S
O1118 Li1059 1.970 . S
O1118 C1088 1.325 . S
O1119 Li1057 1.961 . S
O1119 Li1058 1.970 . S
O1119 Li1059 1.956 . S
O1119 C1094 1.325 . S
H1120 C1062 0.929 . S
H1121 C1063 0.930 . S
H1122 C1064 0.930 . S
H1123 C1065 0.930 . S
H1124 C1067 0.930 . S
H1125 C1069 0.929 . S
H1126 C1070 0.930 . S
H1127 C1071 0.930 . S
H1128 C1074 0.930 . S
H1129 C1077 0.929 . S
H1130 C1082 0.929 . S
H1131 C1083 0.930 . S
H1132 C1090 0.929 . S
H1133 C1091 0.930 . S
H1134 C1092 0.930 . S
H1135 C1093 0.930 . S
H1136 C1095 0.929 . S
H1137 C1096 0.930 . S
H1138 C1097 0.930 . S
H1139 C1098 0.930 . S
H1140 C1102 0.929 . S
H1141 C1104 0.930 . S
H1142 C1110 0.929 . S
H1143 C1111 0.930 . S
Li1144 N1161 1.990 . S
Li1144 O1204 1.956 . S
Li1144 O1205 1.970 . S
Li1144 O1206 1.961 . S
Li1145 N1169 1.990 . S
Li1145 O1204 1.970 . S
Li1145 O1205 1.956 . S
Li1145 O1207 1.961 . S
Li1146 N1191 1.990 . S
Li1146 O1204 1.961 . S
Li1146 O1206 1.956 . S
Li1146 O1207 1.970 . S
Li1147 N1197 1.990 . S
Li1147 O1205 1.961 . S
Li1147 O1206 1.970 . S
Li1147 O1207 1.956 . S
C1148 C1150 1.348 . S
C1148 C1151 1.356 . S
C1148 O1204 1.325 . S
N1149 C1152 1.314 . S
N1149 C1153 1.279 . S
C1150 C1148 1.348 . S
C1150 C1152 1.353 . S
C1150 H1208 0.929 . S
C1151 C1148 1.356 . S
C1151 C1153 1.358 . S
C1151 H1209 0.930 . S
C1152 N1149 1.314 . S
C1152 C1150 1.353 . S
C1152 H1210 0.930 . S
C1153 N1149 1.279 . S
C1153 C1151 1.358 . S
C1153 H1211 0.930 . S
C1154 C1157 1.348 . S
C1154 C1158 1.356 . S
C1154 O1205 1.325 . S
C1155 N1156 1.279 . S
C1155 C1158 1.358 . S
C1155 H1212 0.930 . S
N1156 C1155 1.279 . S
N1156 C1159 1.314 . S
C1157 C1154 1.348 . S
C1157 C1159 1.353 . S
C1157 H1213 0.929 . S
C1158 C1154 1.356 . S
C1158 C1155 1.358 . S
C1158 H1214 0.930 . S
C1159 N1156 1.314 . S
C1159 C1157 1.353 . S
C1159 H1215 0.930 . S
C1160 N1161 1.314 . S
C1160 C1165 1.353 . S
C1160 H1166 0.930 . S
N1161 Li1144 1.990 . S
N1161 C1160 1.314 . S
N1161 C1163 1.279 . S
C1162 C1163 1.358 . S
C1162 C1164 1.356 . S
C1162 H1216 0.930 . S
C1163 N1161 1.279 . S
C1163 C1162 1.358 . S
C1163 H1167 0.930 . S
C1164 C1162 1.356 . S
C1164 C1165 1.348 . S
C1165 C1160 1.353 . S
C1165 C1164 1.348 . S
C1165 H1217 0.929 . S
H1166 C1160 0.930 . S
H1167 C1163 0.930 . S
C1168 N1169 1.314 . S
C1168 C1170 1.353 . S
C1168 H1174 0.930 . S
N1169 Li1145 1.990 . S
N1169 C1168 1.314 . S
N1169 C1172 1.279 . S
C1170 C1168 1.353 . S
C1170 C1173 1.348 . S
C1170 H1218 0.929 . S
C1171 C1172 1.358 . S
C1171 C1173 1.356 . S
C1171 H1219 0.930 . S
C1172 N1169 1.279 . S
C1172 C1171 1.358 . S
C1172 H1175 0.930 . S
C1173 C1170 1.348 . S
C1173 C1171 1.356 . S
H1174 C1168 0.930 . S
H1175 C1172 0.930 . S
C1176 C1178 1.348 . S
C1176 C1179 1.356 . S
C1176 O1206 1.325 . S
N1177 C1180 1.314 . S
N1177 C1181 1.279 . S
C1178 C1176 1.348 . S
C1178 C1180 1.353 . S
C1178 H1220 0.929 . S
C1179 C1176 1.356 . S
C1179 C1181 1.358 . S
C1179 H1221 0.930 . S
C1180 N1177 1.314 . S
C1180 C1178 1.353 . S
C1180 H1222 0.930 . S
C1181 N1177 1.279 . S
C1181 C1179 1.358 . S
C1181 H1223 0.930 . S
C1182 C1183 1.348 . S
C1182 C1184 1.356 . S
C1182 O1207 1.325 . S
C1183 C1182 1.348 . S
C1183 C1185 1.353 . S
C1183 H1224 0.929 . S
C1184 C1182 1.356 . S
C1184 C1186 1.358 . S
C1184 H1225 0.930 . S
C1185 C1183 1.353 . S
C1185 N1187 1.314 . S
C1185 H1226 0.930 . S
C1186 C1184 1.358 . S
C1186 N1187 1.279 . S
C1186 H1227 0.930 . S
N1187 C1185 1.314 . S
N1187 C1186 1.279 . S
C1188 C1190 1.353 . S
C1188 N1191 1.314 . S
C1188 H1194 0.930 . S
C1189 N1191 1.279 . S
C1189 C1192 1.358 . S
C1189 H1195 0.930 . S
C1190 C1188 1.353 . S
C1190 C1193 1.348 . S
C1190 H1228 0.929 . S
N1191 Li1146 1.990 . S
N1191 C1188 1.314 . S
N1191 C1189 1.279 . S
C1192 C1189 1.358 . S
C1192 C1193 1.356 . S
C1192 H1229 0.930 . S
C1193 C1190 1.348 . S
C1193 C1192 1.356 . S
H1194 C1188 0.930 . S
H1195 C1189 0.930 . S
C1196 N1197 1.314 . S
C1196 C1198 1.353 . S
C1196 H1202 0.930 . S
N1197 Li1147 1.990 . S
N1197 C1196 1.314 . S
N1197 C1200 1.279 . S
C1198 C1196 1.353 . S
C1198 C1201 1.348 . S
C1198 H1230 0.929 . S
C1199 C1200 1.358 . S
C1199 C1201 1.356 . S
C1199 H1231 0.930 . S
C1200 N1197 1.279 . S
C1200 C1199 1.358 . S
C1200 H1203 0.930 . S
C1201 C1198 1.348 . S
C1201 C1199 1.356 . S
H1202 C1196 0.930 . S
H1203 C1200 0.930 . S
O1204 Li1144 1.956 . S
O1204 Li1145 1.970 . S
O1204 Li1146 1.961 . S
O1204 C1148 1.325 . S
O1205 Li1144 1.970 . S
O1205 Li1145 1.956 . S
O1205 Li1147 1.961 . S
O1205 C1154 1.325 . S
O1206 Li1144 1.961 . S
O1206 Li1146 1.956 . S
O1206 Li1147 1.970 . S
O1206 C1176 1.325 . S
O1207 Li1145 1.961 . S
O1207 Li1146 1.970 . S
O1207 Li1147 1.956 . S
O1207 C1182 1.325 . S
H1208 C1150 0.929 . S
H1209 C1151 0.930 . S
H1210 C1152 0.930 . S
H1211 C1153 0.930 . S
H1212 C1155 0.930 . S
H1213 C1157 0.929 . S
H1214 C1158 0.930 . S
H1215 C1159 0.930 . S
H1216 C1162 0.930 . S
H1217 C1165 0.929 . S
H1218 C1170 0.929 . S
H1219 C1171 0.930 . S
H1220 C1178 0.929 . S
H1221 C1179 0.930 . S
H1222 C1180 0.930 . S
H1223 C1181 0.930 . S
H1224 C1183 0.929 . S
H1225 C1184 0.930 . S
H1226 C1185 0.930 . S
H1227 C1186 0.930 . S
H1228 C1190 0.929 . S
H1229 C1192 0.930 . S
H1230 C1198 0.929 . S
H1231 C1199 0.930 . S
Li1232 N1249 1.990 . S
Li1232 O1292 1.956 . S
Li1232 O1293 1.970 . S
Li1232 O1294 1.961 . S
Li1233 N1257 1.990 . S
Li1233 O1292 1.970 . S
Li1233 O1293 1.956 . S
Li1233 O1295 1.961 1_455 S
Li1234 N1279 1.990 . S
Li1234 O1292 1.961 . S
Li1234 O1294 1.956 . S
Li1234 O1295 1.970 1_455 S
Li1235 N1285 1.990 . S
Li1235 O1293 1.961 1_655 S
Li1235 O1294 1.970 1_655 S
Li1235 O1295 1.956 . S
C1236 C1238 1.348 . S
C1236 C1239 1.356 . S
C1236 O1292 1.325 . S
N1237 C1240 1.314 . S
N1237 C1241 1.279 . S
C1238 C1236 1.348 . S
C1238 C1240 1.353 . S
C1238 H1296 0.929 . S
C1239 C1236 1.356 . S
C1239 C1241 1.358 . S
C1239 H1297 0.930 . S
C1240 N1237 1.314 . S
C1240 C1238 1.353 . S
C1240 H1298 0.930 . S
C1241 N1237 1.279 . S
C1241 C1239 1.358 . S
C1241 H1299 0.930 . S
C1242 C1245 1.348 . S
C1242 C1246 1.357 1_455 S
C1242 O1293 1.325 . S
C1243 N1244 1.279 . S
C1243 C1246 1.359 1_455 S
C1243 H1300 0.930 1_455 S
N1244 C1243 1.279 . S
N1244 C1247 1.314 . S
C1245 C1242 1.348 . S
C1245 C1247 1.353 . S
C1245 H1301 0.929 . S
C1246 C1242 1.357 1_655 S
C1246 C1243 1.359 1_655 S
C1246 H1302 0.929 . S
C1247 N1244 1.314 . S
C1247 C1245 1.353 . S
C1247 H1303 0.930 . S
C1248 N1249 1.314 . S
C1248 C1253 1.353 . S
C1248 H1254 0.930 . S
N1249 Li1232 1.990 . S
N1249 C1248 1.314 . S
N1249 C1251 1.279 . S
C1250 C1251 1.358 . S
C1250 C1252 1.356 . S
C1250 H1304 0.930 . S
C1251 N1249 1.279 . S
C1251 C1250 1.358 . S
C1251 H1255 0.930 . S
C1252 C1250 1.356 . S
C1252 C1253 1.348 . S
C1253 C1248 1.353 . S
C1253 C1252 1.348 . S
C1253 H1305 0.929 . S
H1254 C1248 0.930 . S
H1255 C1251 0.930 . S
C1256 N1257 1.314 . S
C1256 C1258 1.353 . S
C1256 H1262 0.930 . S
N1257 Li1233 1.990 . S
N1257 C1256 1.314 . S
N1257 C1260 1.279 . S
C1258 C1256 1.353 . S
C1258 C1261 1.348 . S
C1258 H1306 0.929 . S
C1259 C1260 1.358 . S
C1259 C1261 1.356 . S
C1259 H1307 0.930 . S
C1260 N1257 1.279 . S
C1260 C1259 1.358 . S
C1260 H1263 0.930 . S
C1261 C1258 1.348 . S
C1261 C1259 1.356 . S
H1262 C1256 0.930 . S
H1263 C1260 0.930 . S
C1264 C1266 1.348 1_455 S
C1264 C1267 1.356 . S
C1264 O1294 1.325 . S
N1265 C1268 1.314 . S
N1265 C1269 1.279 1_655 S
C1266 C1264 1.348 1_655 S
C1266 C1268 1.353 . S
C1266 H1308 0.929 . S
C1267 C1264 1.356 . S
C1267 C1269 1.358 . S
C1267 H1309 0.930 . S
C1268 N1265 1.314 . S
C1268 C1266 1.353 . S
C1268 H1310 0.930 . S
C1269 N1265 1.279 1_455 S
C1269 C1267 1.358 . S
C1269 H1311 0.930 . S
C1270 C1271 1.348 . S
C1270 C1272 1.356 . S
C1270 O1295 1.325 . S
C1271 C1270 1.348 . S
C1271 C1273 1.353 . S
C1271 H1312 0.929 . S
C1272 C1270 1.356 . S
C1272 C1274 1.358 . S
C1272 H1313 0.930 . S
C1273 C1271 1.353 . S
C1273 N1275 1.314 . S
C1273 H1314 0.930 . S
C1274 C1272 1.358 . S
C1274 N1275 1.279 . S
C1274 H1315 0.930 . S
N1275 C1273 1.314 . S
N1275 C1274 1.279 . S
C1276 C1278 1.353 . S
C1276 N1279 1.314 . S
C1276 H1282 0.930 . S
C1277 N1279 1.279 1_655 S
C1277 C1280 1.358 . S
C1277 H1283 0.930 . S
C1278 C1276 1.353 . S
C1278 C1281 1.348 . S
C1278 H1316 0.929 . S
N1279 Li1234 1.990 . S
N1279 C1276 1.314 . S
N1279 C1277 1.279 1_455 S
C1280 C1277 1.358 . S
C1280 C1281 1.356 1_655 S
C1280 H1317 0.930 . S
C1281 C1278 1.348 . S
C1281 C1280 1.356 1_455 S
H1282 C1276 0.930 . S
H1283 C1277 0.930 . S
C1284 N1285 1.314 . S
C1284 C1286 1.353 . S
C1284 H1290 0.930 . S
N1285 Li1235 1.990 . S
N1285 C1284 1.314 . S
N1285 C1288 1.279 . S
C1286 C1284 1.353 . S
C1286 C1289 1.348 . S
C1286 H1318 0.929 . S
C1287 C1288 1.358 . S
C1287 C1289 1.356 . S
C1287 H1319 0.930 . S
C1288 N1285 1.279 . S
C1288 C1287 1.358 . S
C1288 H1291 0.930 . S
C1289 C1286 1.348 . S
C1289 C1287 1.356 . S
H1290 C1284 0.930 . S
H1291 C1288 0.930 . S
O1292 Li1232 1.956 . S
O1292 Li1233 1.970 . S
O1292 Li1234 1.961 . S
O1292 C1236 1.325 . S
O1293 Li1232 1.970 . S
O1293 Li1233 1.956 . S
O1293 Li1235 1.961 1_455 S
O1293 C1242 1.325 . S
O1294 Li1232 1.961 . S
O1294 Li1234 1.956 . S
O1294 Li1235 1.970 1_455 S
O1294 C1264 1.325 . S
O1295 Li1233 1.961 1_655 S
O1295 Li1234 1.970 1_655 S
O1295 Li1235 1.956 . S
O1295 C1270 1.325 . S
H1296 C1238 0.929 . S
H1297 C1239 0.930 . S
H1298 C1240 0.930 . S
H1299 C1241 0.930 . S
H1300 C1243 0.930 1_655 S
H1301 C1245 0.929 . S
H1302 C1246 0.929 . S
H1303 C1247 0.930 . S
H1304 C1250 0.930 . S
H1305 C1253 0.929 . S
H1306 C1258 0.929 . S
H1307 C1259 0.930 . S
H1308 C1266 0.929 . S
H1309 C1267 0.930 . S
H1310 C1268 0.930 . S
H1311 C1269 0.930 . S
H1312 C1271 0.929 . S
H1313 C1272 0.930 . S
H1314 C1273 0.930 . S
H1315 C1274 0.930 . S
H1316 C1278 0.929 . S
H1317 C1280 0.930 . S
H1318 C1286 0.929 . S
H1319 C1287 0.930 . S
Li1320 N1337 1.990 . S
Li1320 O1380 1.956 . S
Li1320 O1381 1.970 . S
Li1320 O1382 1.961 . S
Li1321 N1345 1.990 . S
Li1321 O1380 1.970 . S
Li1321 O1381 1.956 . S
Li1321 O1383 1.961 1_545 S
Li1322 N1367 1.990 . S
Li1322 O1380 1.961 . S
Li1322 O1382 1.956 . S
Li1322 O1383 1.970 1_545 S
Li1323 N1373 1.990 . S
Li1323 O1381 1.961 1_565 S
Li1323 O1382 1.970 1_565 S
Li1323 O1383 1.956 . S
C1324 C1326 1.348 . S
C1324 C1327 1.356 . S
C1324 O1380 1.325 . S
N1325 C1328 1.314 . S
N1325 C1329 1.279 . S
C1326 C1324 1.348 . S
C1326 C1328 1.353 . S
C1326 H1384 0.929 . S
C1327 C1324 1.356 . S
C1327 C1329 1.358 . S
C1327 H1385 0.930 . S
C1328 N1325 1.314 . S
C1328 C1326 1.353 . S
C1328 H1386 0.930 . S
C1329 N1325 1.279 . S
C1329 C1327 1.358 . S
C1329 H1387 0.930 . S
C1330 C1333 1.348 . S
C1330 C1334 1.357 1_545 S
C1330 O1381 1.325 . S
C1331 N1332 1.279 . S
C1331 C1334 1.359 1_545 S
C1331 H1388 0.930 1_545 S
N1332 C1331 1.279 . S
N1332 C1335 1.314 . S
C1333 C1330 1.348 . S
C1333 C1335 1.353 . S
C1333 H1389 0.929 . S
C1334 C1330 1.357 1_565 S
C1334 C1331 1.359 1_565 S
C1334 H1390 0.928 . S
C1335 N1332 1.314 . S
C1335 C1333 1.353 . S
C1335 H1391 0.930 . S
C1336 N1337 1.314 . S
C1336 C1341 1.353 . S
C1336 H1342 0.930 . S
N1337 Li1320 1.990 . S
N1337 C1336 1.314 . S
N1337 C1339 1.279 . S
C1338 C1339 1.358 . S
C1338 C1340 1.356 . S
C1338 H1392 0.930 . S
C1339 N1337 1.279 . S
C1339 C1338 1.358 . S
C1339 H1343 0.930 . S
C1340 C1338 1.356 . S
C1340 C1341 1.348 . S
C1341 C1336 1.353 . S
C1341 C1340 1.348 . S
C1341 H1393 0.929 . S
H1342 C1336 0.930 . S
H1343 C1339 0.930 . S
C1344 N1345 1.314 . S
C1344 C1346 1.353 . S
C1344 H1350 0.930 . S
N1345 Li1321 1.990 . S
N1345 C1344 1.314 . S
N1345 C1348 1.279 . S
C1346 C1344 1.353 . S
C1346 C1349 1.348 . S
C1346 H1394 0.929 . S
C1347 C1348 1.358 . S
C1347 C1349 1.356 . S
C1347 H1395 0.930 . S
C1348 N1345 1.279 . S
C1348 C1347 1.358 . S
C1348 H1351 0.930 . S
C1349 C1346 1.348 . S
C1349 C1347 1.356 . S
H1350 C1344 0.930 . S
H1351 C1348 0.930 . S
C1352 C1354 1.348 1_545 S
C1352 C1355 1.356 . S
C1352 O1382 1.325 . S
N1353 C1356 1.314 . S
N1353 C1357 1.279 1_565 S
C1354 C1352 1.348 1_565 S
C1354 C1356 1.353 . S
C1354 H1396 0.929 . S
C1355 C1352 1.356 . S
C1355 C1357 1.358 . S
C1355 H1397 0.930 . S
C1356 N1353 1.314 . S
C1356 C1354 1.353 . S
C1356 H1398 0.930 . S
C1357 N1353 1.279 1_545 S
C1357 C1355 1.358 . S
C1357 H1399 0.930 . S
C1358 C1359 1.348 . S
C1358 C1360 1.356 . S
C1358 O1383 1.325 . S
C1359 C1358 1.348 . S
C1359 C1361 1.353 . S
C1359 H1400 0.929 . S
C1360 C1358 1.356 . S
C1360 C1362 1.358 . S
C1360 H1401 0.930 . S
C1361 C1359 1.353 . S
C1361 N1363 1.314 . S
C1361 H1402 0.930 . S
C1362 C1360 1.358 . S
C1362 N1363 1.279 . S
C1362 H1403 0.930 . S
N1363 C1361 1.314 . S
N1363 C1362 1.279 . S
C1364 C1366 1.353 . S
C1364 N1367 1.314 . S
C1364 H1370 0.930 . S
C1365 N1367 1.279 1_565 S
C1365 C1368 1.358 . S
C1365 H1371 0.930 . S
C1366 C1364 1.353 . S
C1366 C1369 1.348 . S
C1366 H1404 0.929 . S
N1367 Li1322 1.990 . S
N1367 C1364 1.314 . S
N1367 C1365 1.279 1_545 S
C1368 C1365 1.358 . S
C1368 C1369 1.356 1_565 S
C1368 H1405 0.930 . S
C1369 C1366 1.348 . S
C1369 C1368 1.356 1_545 S
H1370 C1364 0.930 . S
H1371 C1365 0.930 . S
C1372 N1373 1.314 . S
C1372 C1374 1.353 . S
C1372 H1378 0.930 . S
N1373 Li1323 1.990 . S
N1373 C1372 1.314 . S
N1373 C1376 1.279 . S
C1374 C1372 1.353 . S
C1374 C1377 1.348 . S
C1374 H1406 0.929 . S
C1375 C1376 1.358 . S
C1375 C1377 1.356 . S
C1375 H1407 0.930 . S
C1376 N1373 1.279 . S
C1376 C1375 1.358 . S
C1376 H1379 0.930 . S
C1377 C1374 1.348 . S
C1377 C1375 1.356 . S
H1378 C1372 0.930 . S
H1379 C1376 0.930 . S
O1380 Li1320 1.956 . S
O1380 Li1321 1.970 . S
O1380 Li1322 1.961 . S
O1380 C1324 1.325 . S
O1381 Li1320 1.970 . S
O1381 Li1321 1.956 . S
O1381 Li1323 1.961 1_545 S
O1381 C1330 1.325 . S
O1382 Li1320 1.961 . S
O1382 Li1322 1.956 . S
O1382 Li1323 1.970 1_545 S
O1382 C1352 1.325 . S
O1383 Li1321 1.961 1_565 S
O1383 Li1322 1.970 1_565 S
O1383 Li1323 1.956 . S
O1383 C1358 1.325 . S
H1384 C1326 0.929 . S
H1385 C1327 0.930 . S
H1386 C1328 0.930 . S
H1387 C1329 0.930 . S
H1388 C1331 0.930 1_565 S
H1389 C1333 0.929 . S
H1390 C1334 0.928 . S
H1391 C1335 0.930 . S
H1392 C1338 0.930 . S
H1393 C1341 0.929 . S
H1394 C1346 0.929 . S
H1395 C1347 0.930 . S
H1396 C1354 0.929 . S
H1397 C1355 0.930 . S
H1398 C1356 0.930 . S
H1399 C1357 0.930 . S
H1400 C1359 0.929 . S
H1401 C1360 0.930 . S
H1402 C1361 0.930 . S
H1403 C1362 0.930 . S
H1404 C1366 0.929 . S
H1405 C1368 0.930 . S
H1406 C1374 0.929 . S
H1407 C1375 0.930 . S
C1408 C1409 1.387 . S
C1408 H1412 0.950 . S
C1408 C1417 1.390 . S
C1409 C1408 1.387 . S
C1409 C1411 1.387 . S
H1410 C1417 0.950 . S
C1411 C1409 1.387 . S
C1411 C1413 1.390 . S
C1411 H1415 0.950 . S
H1412 C1408 0.950 . S
C1413 C1411 1.390 . S
C1413 C1414 1.387 . S
C1413 H1416 0.950 . S
C1414 C1413 1.387 . S
C1414 C1417 1.387 . S
H1415 C1411 0.950 . S
H1416 C1413 0.950 . S
C1417 C1408 1.390 . S
C1417 H1410 0.950 . S
C1417 C1414 1.387 . S
C1418 C1419 1.387 . S
C1418 H1422 0.950 . S
C1418 C1427 1.390 . S
C1419 C1418 1.387 . S
C1419 C1421 1.387 . S
H1420 C1427 0.950 . S
C1421 C1419 1.387 . S
C1421 C1423 1.390 . S
C1421 H1425 0.950 . S
H1422 C1418 0.950 . S
C1423 C1421 1.390 . S
C1423 C1424 1.387 . S
C1423 H1426 0.950 . S
C1424 C1423 1.387 . S
C1424 C1427 1.387 . S
H1425 C1421 0.950 . S
H1426 C1423 0.950 . S
C1427 C1418 1.390 . S
C1427 H1420 0.950 . S
C1427 C1424 1.387 . S
C1428 C1429 1.387 . S
C1428 H1432 0.950 . S
C1428 C1437 1.390 . S
C1429 C1428 1.387 . S
C1429 C1431 1.387 . S
H1430 C1437 0.950 . S
C1431 C1429 1.387 . S
C1431 C1433 1.390 . S
C1431 H1435 0.950 . S
H1432 C1428 0.950 . S
C1433 C1431 1.390 . S
C1433 C1434 1.387 . S
C1433 H1436 0.950 . S
C1434 C1433 1.387 . S
C1434 C1437 1.387 . S
H1435 C1431 0.950 . S
H1436 C1433 0.950 . S
C1437 C1428 1.390 . S
C1437 H1430 0.950 . S
C1437 C1434 1.387 . S
C1438 C1439 1.387 . S
C1438 H1442 0.950 . S
C1438 C1447 1.390 . S
C1439 C1438 1.387 . S
C1439 C1441 1.387 . S
H1440 C1447 0.950 . S
C1441 C1439 1.387 . S
C1441 C1443 1.390 . S
C1441 H1445 0.950 . S
H1442 C1438 0.950 . S
C1443 C1441 1.390 . S
C1443 C1444 1.387 . S
C1443 H1446 0.950 . S
C1444 C1443 1.387 . S
C1444 C1447 1.387 . S
H1445 C1441 0.950 . S
H1446 C1443 0.950 . S
C1447 C1438 1.390 . S
C1447 H1440 0.950 . S
C1447 C1444 1.387 . S
C1448 C1449 1.387 . S
C1448 H1452 0.950 . S
C1448 C1457 1.390 . S
C1449 C1448 1.387 . S
C1449 C1451 1.387 . S
H1450 C1457 0.950 . S
C1451 C1449 1.387 . S
C1451 C1453 1.390 . S
C1451 H1455 0.950 . S
H1452 C1448 0.950 . S
C1453 C1451 1.390 . S
C1453 C1454 1.387 . S
C1453 H1456 0.950 . S
C1454 C1453 1.387 . S
C1454 C1457 1.387 . S
H1455 C1451 0.950 . S
H1456 C1453 0.950 . S
C1457 C1448 1.390 . S
C1457 H1450 0.950 . S
C1457 C1454 1.387 . S
C1458 C1459 1.387 . S
C1458 H1462 0.950 . S
C1458 C1467 1.390 . S
C1459 C1458 1.387 . S
C1459 C1461 1.387 . S
H1460 C1467 0.950 . S
C1461 C1459 1.387 . S
C1461 C1463 1.390 . S
C1461 H1465 0.950 . S
H1462 C1458 0.950 . S
C1463 C1461 1.390 . S
C1463 C1464 1.387 . S
C1463 H1466 0.950 . S
C1464 C1463 1.387 . S
C1464 C1467 1.387 . S
H1465 C1461 0.950 . S
H1466 C1463 0.950 . S
C1467 C1458 1.390 . S
C1467 H1460 0.950 . S
C1467 C1464 1.387 . S
C1468 C1469 1.387 . S
C1468 H1472 0.950 . S
C1468 C1477 1.390 . S
C1469 C1468 1.387 . S
C1469 C1471 1.387 . S
H1470 C1477 0.950 . S
C1471 C1469 1.387 . S
C1471 C1473 1.390 . S
C1471 H1475 0.950 . S
H1472 C1468 0.950 . S
C1473 C1471 1.390 . S
C1473 C1474 1.387 . S
C1473 H1476 0.950 . S
C1474 C1473 1.387 . S
C1474 C1477 1.387 . S
H1475 C1471 0.950 . S
H1476 C1473 0.950 . S
C1477 C1468 1.390 . S
C1477 H1470 0.950 . S
C1477 C1474 1.387 . S
C1478 C1479 1.387 . S
C1478 H1482 0.950 . S
C1478 C1487 1.390 . S
C1479 C1478 1.387 . S
C1479 C1481 1.387 . S
H1480 C1487 0.950 . S
C1481 C1479 1.387 . S
C1481 C1483 1.390 . S
C1481 H1485 0.950 . S
H1482 C1478 0.950 . S
C1483 C1481 1.390 . S
C1483 C1484 1.387 . S
C1483 H1486 0.950 . S
C1484 C1483 1.387 . S
C1484 C1487 1.387 . S
H1485 C1481 0.950 . S
H1486 C1483 0.950 . S
C1487 C1478 1.390 . S
C1487 H1480 0.950 . S
C1487 C1484 1.387 . S
C1488 C1489 1.387 . S
C1488 H1492 0.950 . S
C1488 C1497 1.390 . S
C1489 C1488 1.387 . S
C1489 C1491 1.387 . S
H1490 C1497 0.950 . S
C1491 C1489 1.387 . S
C1491 C1493 1.390 . S
C1491 H1495 0.950 . S
H1492 C1488 0.950 . S
C1493 C1491 1.390 . S
C1493 C1494 1.387 . S
C1493 H1496 0.950 . S
C1494 C1493 1.387 . S
C1494 C1497 1.387 . S
H1495 C1491 0.950 . S
H1496 C1493 0.950 . S
C1497 C1488 1.390 . S
C1497 H1490 0.950 . S
C1497 C1494 1.387 . S
C1498 C1499 1.387 . S
C1498 H1502 0.950 . S
C1498 C1507 1.390 . S
C1499 C1498 1.387 . S
C1499 C1501 1.387 . S
H1500 C1507 0.950 . S
C1501 C1499 1.387 . S
C1501 C1503 1.390 . S
C1501 H1505 0.950 . S
H1502 C1498 0.950 . S
C1503 C1501 1.390 . S
C1503 C1504 1.387 . S
C1503 H1506 0.950 . S
C1504 C1503 1.387 . S
C1504 C1507 1.387 . S
H1505 C1501 0.950 . S
H1506 C1503 0.950 . S
C1507 C1498 1.390 . S
C1507 H1500 0.950 . S
C1507 C1504 1.387 . S
C1508 C1509 1.387 . S
C1508 H1512 0.950 . S
C1508 C1517 1.390 . S
C1509 C1508 1.387 . S
C1509 C1511 1.387 . S
H1510 C1517 0.950 . S
C1511 C1509 1.387 . S
C1511 C1513 1.390 . S
C1511 H1515 0.950 . S
H1512 C1508 0.950 . S
C1513 C1511 1.390 . S
C1513 C1514 1.387 . S
C1513 H1516 0.950 . S
C1514 C1513 1.387 . S
C1514 C1517 1.387 . S
H1515 C1511 0.950 . S
H1516 C1513 0.950 . S
C1517 C1508 1.390 . S
C1517 H1510 0.950 . S
C1517 C1514 1.387 . S
C1518 C1519 1.387 . S
C1518 H1522 0.950 . S
C1518 C1527 1.390 . S
C1519 C1518 1.387 . S
C1519 C1521 1.387 . S
H1520 C1527 0.950 . S
C1521 C1519 1.387 . S
C1521 C1523 1.390 . S
C1521 H1525 0.950 . S
H1522 C1518 0.950 . S
C1523 C1521 1.390 . S
C1523 C1524 1.387 . S
C1523 H1526 0.950 . S
C1524 C1523 1.387 . S
C1524 C1527 1.387 . S
H1525 C1521 0.950 . S
H1526 C1523 0.950 . S
C1527 C1518 1.390 . S
C1527 H1520 0.950 . S
C1527 C1524 1.387 . S
C1528 C1529 1.387 . S
C1528 H1532 0.950 . S
C1528 C1537 1.390 . S
C1529 C1528 1.387 . S
C1529 C1531 1.387 . S
H1530 C1537 0.950 . S
C1531 C1529 1.387 . S
C1531 C1533 1.390 . S
C1531 H1535 0.950 . S
H1532 C1528 0.950 . S
C1533 C1531 1.390 . S
C1533 C1534 1.387 . S
C1533 H1536 0.950 . S
C1534 C1533 1.387 . S
C1534 C1537 1.387 . S
H1535 C1531 0.950 . S
H1536 C1533 0.950 . S
C1537 C1528 1.390 . S
C1537 H1530 0.950 . S
C1537 C1534 1.387 . S
C1538 C1539 1.387 . S
C1538 H1542 0.950 . S
C1538 C1547 1.390 . S
C1539 C1538 1.387 . S
C1539 C1541 1.387 . S
H1540 C1547 0.950 . S
C1541 C1539 1.387 . S
C1541 C1543 1.390 . S
C1541 H1545 0.950 . S
H1542 C1538 0.950 . S
C1543 C1541 1.390 . S
C1543 C1544 1.387 . S
C1543 H1546 0.950 . S
C1544 C1543 1.387 . S
C1544 C1547 1.387 . S
H1545 C1541 0.950 . S
H1546 C1543 0.950 . S
C1547 C1538 1.390 . S
C1547 H1540 0.950 . S
C1547 C1544 1.387 . S
C1548 C1549 1.387 . S
C1548 H1552 0.950 . S
C1548 C1557 1.390 . S
C1549 C1548 1.387 . S
C1549 C1551 1.387 . S
H1550 C1557 0.950 . S
C1551 C1549 1.387 . S
C1551 C1553 1.390 . S
C1551 H1555 0.950 . S
H1552 C1548 0.950 . S
C1553 C1551 1.390 . S
C1553 C1554 1.387 . S
C1553 H1556 0.950 . S
C1554 C1553 1.387 . S
C1554 C1557 1.387 . S
H1555 C1551 0.950 . S
H1556 C1553 0.950 . S
C1557 C1548 1.390 . S
C1557 H1550 0.950 . S
C1557 C1554 1.387 . S
C1558 C1559 1.387 . S
C1558 H1562 0.950 . S
C1558 C1567 1.390 . S
C1559 C1558 1.387 . S
C1559 C1561 1.387 . S
H1560 C1567 0.950 . S
C1561 C1559 1.387 . S
C1561 C1563 1.390 . S
C1561 H1565 0.950 . S
H1562 C1558 0.950 . S
C1563 C1561 1.390 . S
C1563 C1564 1.387 . S
C1563 H1566 0.950 . S
C1564 C1563 1.387 . S
C1564 C1567 1.387 . S
H1565 C1561 0.950 . S
H1566 C1563 0.950 . S
C1567 C1558 1.390 . S
C1567 H1560 0.950 . S
C1567 C1564 1.387 . S
C1568 C1569 1.387 . S
C1568 H1572 0.950 . S
C1568 C1577 1.390 . S
C1569 C1568 1.387 . S
C1569 C1571 1.387 . S
H1570 C1577 0.950 . S
C1571 C1569 1.387 . S
C1571 C1573 1.390 . S
C1571 H1575 0.950 . S
H1572 C1568 0.950 . S
C1573 C1571 1.390 . S
C1573 C1574 1.387 . S
C1573 H1576 0.950 . S
C1574 C1573 1.387 . S
C1574 C1577 1.387 . S
H1575 C1571 0.950 . S
H1576 C1573 0.950 . S
C1577 C1568 1.390 . S
C1577 H1570 0.950 . S
C1577 C1574 1.387 . S
C1578 C1579 1.387 . S
C1578 H1582 0.950 . S
C1578 C1587 1.390 . S
C1579 C1578 1.387 . S
C1579 C1581 1.387 . S
H1580 C1587 0.950 . S
C1581 C1579 1.387 . S
C1581 C1583 1.390 . S
C1581 H1585 0.950 . S
H1582 C1578 0.950 . S
C1583 C1581 1.390 . S
C1583 C1584 1.387 . S
C1583 H1586 0.950 . S
C1584 C1583 1.387 . S
C1584 C1587 1.387 . S
H1585 C1581 0.950 . S
H1586 C1583 0.950 . S
C1587 C1578 1.390 . S
C1587 H1580 0.950 . S
C1587 C1584 1.387 . S
C1588 C1589 1.387 . S
C1588 H1592 0.950 . S
C1588 C1597 1.390 . S
C1589 C1588 1.387 . S
C1589 C1591 1.387 . S
H1590 C1597 0.950 . S
C1591 C1589 1.387 . S
C1591 C1593 1.390 . S
C1591 H1595 0.950 . S
H1592 C1588 0.950 . S
C1593 C1591 1.390 . S
C1593 C1594 1.387 . S
C1593 H1596 0.950 . S
C1594 C1593 1.387 . S
C1594 C1597 1.387 . S
H1595 C1591 0.950 . S
H1596 C1593 0.950 . S
C1597 C1588 1.390 . S
C1597 H1590 0.950 . S
C1597 C1594 1.387 . S
C1598 C1599 1.387 . S
C1598 H1602 0.950 . S
C1598 C1607 1.390 . S
C1599 C1598 1.387 . S
C1599 C1601 1.387 . S
H1600 C1607 0.950 . S
C1601 C1599 1.387 . S
C1601 C1603 1.390 . S
C1601 H1605 0.950 . S
H1602 C1598 0.950 . S
C1603 C1601 1.390 . S
C1603 C1604 1.387 . S
C1603 H1606 0.950 . S
C1604 C1603 1.387 . S
C1604 C1607 1.387 . S
H1605 C1601 0.950 . S
H1606 C1603 0.950 . S
C1607 C1598 1.390 . S
C1607 H1600 0.950 . S
C1607 C1604 1.387 . S
C1608 C1609 1.387 . S
C1608 H1612 0.950 . S
C1608 C1617 1.390 . S
C1609 C1608 1.387 . S
C1609 C1611 1.387 . S
H1610 C1617 0.950 . S
C1611 C1609 1.387 . S
C1611 C1613 1.390 . S
C1611 H1615 0.950 . S
H1612 C1608 0.950 . S
C1613 C1611 1.390 . S
C1613 C1614 1.387 . S
C1613 H1616 0.950 . S
C1614 C1613 1.387 . S
C1614 C1617 1.387 . S
H1615 C1611 0.950 . S
H1616 C1613 0.950 . S
C1617 C1608 1.390 . S
C1617 H1610 0.950 . S
C1617 C1614 1.387 . S
C1618 C1619 1.387 . S
C1618 H1622 0.950 . S
C1618 C1627 1.390 . S
C1619 C1618 1.387 . S
C1619 C1621 1.387 . S
H1620 C1627 0.950 . S
C1621 C1619 1.387 . S
C1621 C1623 1.390 . S
C1621 H1625 0.950 . S
H1622 C1618 0.950 . S
C1623 C1621 1.390 . S
C1623 C1624 1.387 . S
C1623 H1626 0.950 . S
C1624 C1623 1.387 . S
C1624 C1627 1.387 . S
H1625 C1621 0.950 . S
H1626 C1623 0.950 . S
C1627 C1618 1.390 . S
C1627 H1620 0.950 . S
C1627 C1624 1.387 . S
C1628 C1629 1.387 . S
C1628 H1632 0.950 . S
C1628 C1637 1.390 . S
C1629 C1628 1.387 . S
C1629 C1631 1.387 . S
H1630 C1637 0.950 . S
C1631 C1629 1.387 . S
C1631 C1633 1.390 . S
C1631 H1635 0.950 . S
H1632 C1628 0.950 . S
C1633 C1631 1.390 . S
C1633 C1634 1.387 . S
C1633 H1636 0.950 . S
C1634 C1633 1.387 . S
C1634 C1637 1.387 . S
H1635 C1631 0.950 . S
H1636 C1633 0.950 . S
C1637 C1628 1.390 . S
C1637 H1630 0.950 . S
C1637 C1634 1.387 . S
C1638 C1639 1.387 . S
C1638 H1642 0.950 . S
C1638 C1647 1.390 . S
C1639 C1638 1.387 . S
C1639 C1641 1.387 . S
H1640 C1647 0.950 . S
C1641 C1639 1.387 . S
C1641 C1643 1.390 . S
C1641 H1645 0.950 . S
H1642 C1638 0.950 . S
C1643 C1641 1.390 . S
C1643 C1644 1.387 . S
C1643 H1646 0.950 . S
C1644 C1643 1.387 . S
C1644 C1647 1.387 . S
H1645 C1641 0.950 . S
H1646 C1643 0.950 . S
C1647 C1638 1.390 . S
C1647 H1640 0.950 . S
C1647 C1644 1.387 . S
C1648 C1649 1.387 . S
C1648 H1652 0.950 . S
C1648 C1657 1.390 1_554 S
C1649 C1648 1.387 . S
C1649 C1651 1.387 . S
H1650 C1657 0.950 . S
C1651 C1649 1.387 . S
C1651 C1653 1.390 1_554 S
C1651 H1655 0.950 . S
H1652 C1648 0.950 . S
C1653 C1651 1.390 1_556 S
C1653 C1654 1.387 . S
C1653 H1656 0.950 . S
C1654 C1653 1.387 . S
C1654 C1657 1.387 . S
H1655 C1651 0.950 . S
H1656 C1653 0.950 . S
C1657 C1648 1.390 1_556 S
C1657 H1650 0.950 . S
C1657 C1654 1.387 . S
C1658 C1659 1.387 . S
C1658 H1662 0.950 . S
C1658 C1667 1.390 . S
C1659 C1658 1.387 . S
C1659 C1661 1.387 . S
H1660 C1667 0.950 . S
C1661 C1659 1.387 . S
C1661 C1663 1.390 . S
C1661 H1665 0.950 . S
H1662 C1658 0.950 . S
C1663 C1661 1.390 . S
C1663 C1664 1.387 . S
C1663 H1666 0.950 . S
C1664 C1663 1.387 . S
C1664 C1667 1.387 . S
H1665 C1661 0.950 . S
H1666 C1663 0.950 . S
C1667 C1658 1.390 . S
C1667 H1660 0.950 . S
C1667 C1664 1.387 . S
C1668 C1669 1.387 1_455 S
C1668 H1672 0.950 . S
C1668 C1677 1.390 1_554 S
C1669 C1668 1.387 1_655 S
C1669 C1671 1.387 . S
H1670 C1677 0.950 . S
C1671 C1669 1.387 . S
C1671 C1673 1.390 1_554 S
C1671 H1675 0.950 . S
H1672 C1668 0.950 . S
C1673 C1671 1.390 1_556 S
C1673 C1674 1.387 . S
C1673 H1676 0.950 . S
C1674 C1673 1.387 . S
C1674 C1677 1.387 1_655 S
H1675 C1671 0.950 . S
H1676 C1673 0.950 . S
C1677 C1668 1.390 1_556 S
C1677 H1670 0.950 . S
C1677 C1674 1.387 1_455 S
C1678 C1679 1.387 . S
C1678 H1682 0.950 . S
C1678 C1687 1.390 . S
C1679 C1678 1.387 . S
C1679 C1681 1.387 1_565 S
H1680 C1687 0.950 . S
C1681 C1679 1.387 1_545 S
C1681 C1683 1.390 . S
C1681 H1685 0.950 . S
H1682 C1678 0.950 . S
C1683 C1681 1.390 . S
C1683 C1684 1.387 1_545 S
C1683 H1686 0.950 . S
C1684 C1683 1.387 1_565 S
C1684 C1687 1.387 . S
H1685 C1681 0.950 . S
H1686 C1683 0.950 . S
C1687 C1678 1.390 . S
C1687 H1680 0.950 . S
C1687 C1684 1.387 . S
C1688 C1689 1.387 . S
C1688 H1692 0.950 . S
C1688 C1697 1.390 1_556 S
C1689 C1688 1.387 . S
C1689 C1691 1.387 . S
H1690 C1697 0.950 . S
C1691 C1689 1.387 . S
C1691 C1693 1.390 1_556 S
C1691 H1695 0.950 . S
H1692 C1688 0.950 . S
C1693 C1691 1.390 1_554 S
C1693 C1694 1.387 . S
C1693 H1696 0.950 . S
C1694 C1693 1.387 . S
C1694 C1697 1.387 . S
H1695 C1691 0.950 . S
H1696 C1693 0.950 . S
C1697 C1688 1.390 1_554 S
C1697 H1690 0.950 . S
C1697 C1694 1.387 . S
C1698 C1699 1.387 . S
C1698 H1702 0.950 . S
C1698 C1707 1.390 . S
C1699 C1698 1.387 . S
C1699 C1701 1.387 . S
H1700 C1707 0.950 . S
C1701 C1699 1.387 . S
C1701 C1703 1.390 . S
C1701 H1705 0.950 . S
H1702 C1698 0.950 . S
C1703 C1701 1.390 . S
C1703 C1704 1.387 . S
C1703 H1706 0.950 . S
C1704 C1703 1.387 . S
C1704 C1707 1.387 . S
H1705 C1701 0.950 . S
H1706 C1703 0.950 . S
C1707 C1698 1.390 . S
C1707 H1700 0.950 . S
C1707 C1704 1.387 . S
C1708 C1709 1.386 1_455 S
C1708 H1712 0.950 . S
C1708 C1717 1.390 1_554 S
C1709 C1708 1.386 1_655 S
C1709 C1711 1.389 . S
H1710 C1717 0.950 . S
C1711 C1709 1.389 . S
C1711 C1713 1.390 1_554 S
C1711 H1715 0.950 . S
H1712 C1708 0.950 . S
C1713 C1711 1.390 1_556 S
C1713 C1714 1.389 . S
C1713 H1716 0.950 . S
C1714 C1713 1.389 . S
C1714 C1717 1.386 1_655 S
H1715 C1711 0.950 . S
H1716 C1713 0.950 . S
C1717 C1708 1.390 1_556 S
C1717 H1710 0.950 . S
C1717 C1714 1.386 1_455 S
C1718 C1719 1.386 1_545 S
C1718 H1722 0.950 . S
C1718 C1727 1.390 . S
C1719 C1718 1.386 1_565 S
C1719 C1721 1.389 . S
H1720 C1727 0.950 . S
C1721 C1719 1.389 . S
C1721 C1723 1.390 . S
C1721 H1725 0.950 . S
H1722 C1718 0.950 . S
C1723 C1721 1.390 . S
C1723 C1724 1.389 . S
C1723 H1726 0.950 . S
C1724 C1723 1.389 . S
C1724 C1727 1.386 1_565 S
H1725 C1721 0.950 . S
H1726 C1723 0.950 . S
C1727 C1718 1.390 . S
C1727 H1720 0.950 . S
C1727 C1724 1.386 1_545 S
C1409 C57 1.191 . S
C1414 C665 1.188 . S
C1419 C117 1.191 . S
C1424 C372 1.188 . S
C1429 C205 1.190 . S
C1434 C469 1.188 . S
C1439 C293 1.191 . S
C1444 C577 1.188 . S
C1449 C733 1.193 . S
C1454 C1377 1.194 . S
C1459 C1105 1.193 . S
C1464 C812 1.196 . S
C1469 C909 1.196 . S
C1474 C1193 1.194 . S
C1479 C997 1.196 . S
C1484 C1289 1.194 . S
C1489 C29 1.496 . S
C1494 C849 1.603 . S
C1499 C145 1.496 . S
C1504 C929 1.602 . S
C1509 C1017 1.604 . S
C1514 C233 1.500 . S
C1519 C321 1.500 . S
C1524 C753 1.605 . S
C1529 C401 1.500 . S
C1534 C1340 1.604 . S
C1539 C1085 1.602 . S
C1544 C497 1.496 . S
C1549 C1173 1.603 . S
C1554 C548 1.496 . S
C1559 C1252 1.604 . S
C1564 C636 1.500 . S
C1569 C108 1.609 . S
C1574 C761 1.504 . S
C1579 C196 1.607 . S
C1584 C841 1.500 . S
C1589 C937 1.499 . S
C1594 C284 1.607 . S
C1599 C49 1.607 . S
C1604 C1025 1.499 . S
C1609 C1076 1.503 . S
C1614 C673 1.608 . S
C1619 C1164 1.504 . S
C1624 C381 1.609 . S
C1629 C460 1.609 . S
C1634 C1261 1.504 . S
C1639 C585 1.607 . S
C1644 C1349 1.501 . S
C1649 C20 1.594 . S
C1654 C409 1.594 . S
C1659 C489 1.594 . S
C1664 C137 1.594 . S
C1669 C225 1.596 . S
C1674 C557 1.596 . S
C1679 C645 1.594 . S
C1684 C313 1.594 . S
C1689 C724 1.591 . S
C1694 C1113 1.591 . S
C1699 C1201 1.590 . S
C1704 C821 1.590 . S
C1709 C1281 1.591 1_655 S
C1714 C900 1.591 1_655 S
C1719 C1369 1.591 1_565 S
C1724 C988 1.591 1_565 S
