# Generated by pormake.
# Topology ghw, (5)-cn, num edge types: 1
# Building blocks:
#     Node 0, Type 0, BuildingBlock: XOMCOT_clean_sbu_0, # of connection points: 5
#     Node 1, Type 0, BuildingBlock: XOMCOT_clean_sbu_0, # of connection points: 5
#     Node 2, Type 0, BuildingBlock: XOMCOT_clean_sbu_0, # of connection points: 5
#     Node 3, Type 0, BuildingBlock: XOMCOT_clean_sbu_0, # of connection points: 5
#     Node 4, Type 0, BuildingBlock: XOMCOT_clean_sbu_0, # of connection points: 5
#     Node 5, Type 0, BuildingBlock: XOMCOT_clean_sbu_0, # of connection points: 5
#     Node 6, Type 0, BuildingBlock: XOMCOT_clean_sbu_0, # of connection points: 5
#     Node 7, Type 0, BuildingBlock: XOMCOT_clean_sbu_0, # of connection points: 5
#     Node 8, Type 0, BuildingBlock: XOMCOT_clean_sbu_0, # of connection points: 5
#     Node 9, Type 0, BuildingBlock: XOMCOT_clean_sbu_0, # of connection points: 5
#     Node 10, Type 0, BuildingBlock: XOMCOT_clean_sbu_0, # of connection points: 5
#     Node 11, Type 0, BuildingBlock: XOMCOT_clean_sbu_0, # of connection points: 5
#     Node 12, Type 0, BuildingBlock: XOMCOT_clean_sbu_0, # of connection points: 5
#     Node 13, Type 0, BuildingBlock: XOMCOT_clean_sbu_0, # of connection points: 5
#     Node 14, Type 0, BuildingBlock: XOMCOT_clean_sbu_0, # of connection points: 5
#     Node 15, Type 0, BuildingBlock: XOMCOT_clean_sbu_0, # of connection points: 5
#     Edge 16, Type (0, 0), BuildingBlock: ZUJKAS_clean_linker_0, # of connection points: 2
#     Edge 17, Type (0, 0), BuildingBlock: ZUJKAS_clean_linker_0, # of connection points: 2
#     Edge 18, Type (0, 0), BuildingBlock: ZUJKAS_clean_linker_0, # of connection points: 2
#     Edge 19, Type (0, 0), BuildingBlock: ZUJKAS_clean_linker_0, # of connection points: 2
#     Edge 20, Type (0, 0), BuildingBlock: ZUJKAS_clean_linker_0, # of connection points: 2
#     Edge 21, Type (0, 0), BuildingBlock: ZUJKAS_clean_linker_0, # of connection points: 2
#     Edge 22, Type (0, 0), BuildingBlock: ZUJKAS_clean_linker_0, # of connection points: 2
#     Edge 23, Type (0, 0), BuildingBlock: ZUJKAS_clean_linker_0, # of connection points: 2
#     Edge 24, Type (0, 0), BuildingBlock: ZUJKAS_clean_linker_0, # of connection points: 2
#     Edge 25, Type (0, 0), BuildingBlock: ZUJKAS_clean_linker_0, # of connection points: 2
#     Edge 26, Type (0, 0), BuildingBlock: ZUJKAS_clean_linker_0, # of connection points: 2
#     Edge 27, Type (0, 0), BuildingBlock: ZUJKAS_clean_linker_0, # of connection points: 2
#     Edge 28, Type (0, 0), BuildingBlock: ZUJKAS_clean_linker_0, # of connection points: 2
#     Edge 29, Type (0, 0), BuildingBlock: ZUJKAS_clean_linker_0, # of connection points: 2
#     Edge 30, Type (0, 0), BuildingBlock: ZUJKAS_clean_linker_0, # of connection points: 2
#     Edge 31, Type (0, 0), BuildingBlock: ZUJKAS_clean_linker_0, # of connection points: 2
#     Edge 32, Type (0, 0), BuildingBlock: ZUJKAS_clean_linker_0, # of connection points: 2
#     Edge 33, Type (0, 0), BuildingBlock: ZUJKAS_clean_linker_0, # of connection points: 2
#     Edge 34, Type (0, 0), BuildingBlock: ZUJKAS_clean_linker_0, # of connection points: 2
#     Edge 35, Type (0, 0), BuildingBlock: ZUJKAS_clean_linker_0, # of connection points: 2
#     Edge 36, Type (0, 0), BuildingBlock: ZUJKAS_clean_linker_0, # of connection points: 2
#     Edge 37, Type (0, 0), BuildingBlock: ZUJKAS_clean_linker_0, # of connection points: 2
#     Edge 38, Type (0, 0), BuildingBlock: ZUJKAS_clean_linker_0, # of connection points: 2
#     Edge 39, Type (0, 0), BuildingBlock: ZUJKAS_clean_linker_0, # of connection points: 2
#     Edge 40, Type (0, 0), BuildingBlock: ZUJKAS_clean_linker_0, # of connection points: 2
#     Edge 41, Type (0, 0), BuildingBlock: ZUJKAS_clean_linker_0, # of connection points: 2
#     Edge 42, Type (0, 0), BuildingBlock: ZUJKAS_clean_linker_0, # of connection points: 2
#     Edge 43, Type (0, 0), BuildingBlock: ZUJKAS_clean_linker_0, # of connection points: 2
#     Edge 44, Type (0, 0), BuildingBlock: ZUJKAS_clean_linker_0, # of connection points: 2
#     Edge 45, Type (0, 0), BuildingBlock: ZUJKAS_clean_linker_0, # of connection points: 2
#     Edge 46, Type (0, 0), BuildingBlock: ZUJKAS_clean_linker_0, # of connection points: 2
#     Edge 47, Type (0, 0), BuildingBlock: ZUJKAS_clean_linker_0, # of connection points: 2
#     Edge 48, Type (0, 0), BuildingBlock: ZUJKAS_clean_linker_0, # of connection points: 2
#     Edge 49, Type (0, 0), BuildingBlock: ZUJKAS_clean_linker_0, # of connection points: 2
#     Edge 50, Type (0, 0), BuildingBlock: ZUJKAS_clean_linker_0, # of connection points: 2
#     Edge 51, Type (0, 0), BuildingBlock: ZUJKAS_clean_linker_0, # of connection points: 2
#     Edge 52, Type (0, 0), BuildingBlock: ZUJKAS_clean_linker_0, # of connection points: 2
#     Edge 53, Type (0, 0), BuildingBlock: ZUJKAS_clean_linker_0, # of connection points: 2
#     Edge 54, Type (0, 0), BuildingBlock: ZUJKAS_clean_linker_0, # of connection points: 2
#     Edge 55, Type (0, 0), BuildingBlock: ZUJKAS_clean_linker_0, # of connection points: 2
# Relax obj value: 0.149
# Max RMSD: 0.189
# Mean RMSD: 0.189
data_MOF--net-ghw--node1-XOMCOT_clean_sbu_0--edge1-ZUJKAS_clean_linker_0
_symmetry_space_group_name_H-M    P1
_symmetry_Int_Tables_number       1
_symmetry_cell_setting            triclinic
loop_
_symmetry_equiv_pos_as_xyz
'x, y, z'
_cell_length_a     41.631313
_cell_length_b     53.285173
_cell_length_c     44.345646
_cell_angle_alpha  90.048147
_cell_angle_beta   91.524239
_cell_angle_gamma 89.981261
loop_
_atom_site_label
_atom_site_type_symbol
_atom_site_fract_x
_atom_site_fract_y
_atom_site_fract_z
_atom_type_partial_charge
Co0 Co 0.1292 0.13204 0.40472 0.0
C1 C 0.19074 0.10331 0.4018 0.0
C2 C 0.16623 0.09716 0.44299 0.0
C3 C 0.19486 0.08421 0.44439 0.0
N4 N 0.16349 0.10897 0.41614 0.0
N5 N 0.21013 0.08809 0.4184 0.0
H6 H 0.19741 0.11105 0.38049 0.0
H7 H 0.14884 0.09834 0.46062 0.0
C8 C 0.09734 0.08225 0.41477 0.0
O9 O 0.11975 0.07162 0.3988 0.0
N10 N 0.09506 0.15507 0.39412 0.0
C11 C 0.09593 0.17329 0.37315 0.0
C12 C 0.06568 0.18353 0.36982 0.0
C13 C 0.06453 0.15453 0.40342 0.0
N14 N 0.04589 0.17161 0.38875 0.0
C15 C 0.15273 0.12955 0.34469 0.0
C16 C 0.10077 0.10542 0.31782 0.0
C17 C 0.12573 0.11361 0.2995 0.0
C18 C 0.15209 0.12555 0.31359 0.0
C19 C 0.10249 0.10967 0.34913 0.0
N20 N 0.12872 0.12104 0.36245 0.0
H21 H 0.17231 0.14043 0.35422 0.0
H22 H 0.08189 0.10493 0.36221 0.0
H23 H 0.11677 0.17806 0.36028 0.0
H24 H 0.05603 0.14154 0.42012 0.0
O25 O 0.16023 0.15906 0.40223 0.0
O26 O 0.13507 0.14855 0.4436 0.0
O27 O 0.0965 0.10616 0.41737 0.0
C28 C 0.1558 0.16305 0.43073 0.0
H29 H 0.20394 0.07318 0.46325 0.0
H30 H 0.05856 0.19777 0.3536 0.0
H31 H 0.07939 0.09684 0.30794 0.0
H32 H 0.172 0.13232 0.30065 0.0
Co33 Co 0.11905 0.13184 0.86866 0.0
C34 C 0.05684 0.10369 0.86876 0.0
C35 C 0.08413 0.0965 0.82943 0.0
C36 C 0.05542 0.08386 0.82652 0.0
N37 N 0.08526 0.1087 0.85611 0.0
N38 N 0.03832 0.08841 0.85132 0.0
H39 H 0.04872 0.11205 0.88927 0.0
H40 H 0.10267 0.09729 0.81282 0.0
C41 C 0.15197 0.08243 0.85871 0.0
O42 O 0.12964 0.07159 0.87455 0.0
N43 N 0.15278 0.15492 0.88026 0.0
C44 C 0.15176 0.17243 0.90211 0.0
C45 C 0.18188 0.18286 0.90575 0.0
C46 C 0.18321 0.15503 0.87072 0.0
N47 N 0.20171 0.1718 0.88609 0.0
C48 C 0.09412 0.12787 0.92806 0.0
C49 C 0.14677 0.10514 0.95556 0.0
C50 C 0.12112 0.11256 0.97355 0.0
C51 C 0.0944 0.12372 0.95912 0.0
C52 C 0.14539 0.10949 0.92428 0.0
N53 N 0.11889 0.12023 0.91065 0.0
H54 H 0.07439 0.13848 0.91839 0.0
H55 H 0.16645 0.10545 0.91149 0.0
H56 H 0.13094 0.17656 0.91532 0.0
H57 H 0.19173 0.14271 0.85329 0.0
O58 O 0.0877 0.15863 0.8713 0.0
O59 O 0.11367 0.14887 0.83009 0.0
O60 O 0.15232 0.10634 0.85605 0.0
C61 C 0.09257 0.16305 0.84297 0.0
H62 H 0.04749 0.07265 0.80737 0.0
H63 H 0.18887 0.19665 0.9226 0.0
H64 H 0.16841 0.09719 0.9657 0.0
H65 H 0.07399 0.1299 0.97181 0.0
Co66 Co 0.87119 0.88031 0.61959 0.0
C67 C 0.80888 0.9076 0.62207 0.0
C68 C 0.83414 0.91566 0.58178 0.0
C69 C 0.80506 0.92798 0.58032 0.0
N70 N 0.83676 0.9032 0.60821 0.0
N71 N 0.78921 0.92274 0.60565 0.0
H72 H 0.80241 0.89945 0.64322 0.0
H73 H 0.85183 0.91522 0.56435 0.0
C74 C 0.90311 0.92996 0.60843 0.0
O75 O 0.88091 0.94081 0.62446 0.0
N76 N 0.90533 0.85735 0.63031 0.0
C77 C 0.90444 0.83942 0.65162 0.0
C78 C 0.93459 0.82903 0.65494 0.0
C79 C 0.93578 0.85759 0.62079 0.0
N80 N 0.95435 0.84056 0.63565 0.0
C81 C 0.84858 0.88349 0.68002 0.0
C82 C 0.90008 0.90925 0.70532 0.0
C83 C 0.87531 0.90158 0.72419 0.0
C84 C 0.84942 0.88843 0.71095 0.0
C85 C 0.89831 0.90382 0.67431 0.0
N86 N 0.87215 0.89187 0.66167 0.0
H87 H 0.82932 0.87191 0.67115 0.0
H88 H 0.91873 0.90839 0.6609 0.0
H89 H 0.88365 0.83492 0.66469 0.0
H90 H 0.94425 0.87032 0.60379 0.0
O91 O 0.84016 0.85334 0.62275 0.0
O92 O 0.86492 0.86343 0.58102 0.0
O93 O 0.90382 0.90602 0.60617 0.0
C94 C 0.84429 0.84909 0.59425 0.0
H95 H 0.79568 0.9389 0.5615 0.0
H96 H 0.94164 0.81495 0.67138 0.0
H97 H 0.92096 0.91903 0.71442 0.0
H98 H 0.83041 0.88098 0.72453 0.0
Co99 Co 0.87961 0.88087 0.15426 0.0
C100 C 0.94197 0.9086 0.15416 0.0
C101 C 0.91514 0.9156 0.19385 0.0
C102 C 0.94398 0.92807 0.19664 0.0
N103 N 0.91367 0.90365 0.16702 0.0
N104 N 0.96079 0.92364 0.17163 0.0
H105 H 0.94974 0.90035 0.13345 0.0
H106 H 0.89674 0.91479 0.21058 0.0
C107 C 0.84752 0.93046 0.16496 0.0
O108 O 0.87007 0.94122 0.14931 0.0
N109 N 0.84568 0.85811 0.14238 0.0
C110 C 0.84664 0.84071 0.12041 0.0
C111 C 0.81648 0.8304 0.11663 0.0
C112 C 0.81521 0.85808 0.15185 0.0
N113 N 0.79666 0.84144 0.13632 0.0
C114 C 0.90429 0.88501 0.0947 0.0
C115 C 0.85292 0.91016 0.06823 0.0
C116 C 0.87847 0.90295 0.04998 0.0
C117 C 0.9043 0.89012 0.06382 0.0
C118 C 0.85384 0.90455 0.09919 0.0
N119 N 0.87989 0.89287 0.11242 0.0
H120 H 0.92353 0.87363 0.10397 0.0
H121 H 0.83289 0.90873 0.11208 0.0
H122 H 0.86748 0.83654 0.10724 0.0
H123 H 0.80673 0.87035 0.16935 0.0
O124 O 0.91071 0.85391 0.15137 0.0
O125 O 0.88481 0.86357 0.19265 0.0
O126 O 0.84668 0.90653 0.16722 0.0
C127 C 0.90586 0.8494 0.17969 0.0
H128 H 0.95216 0.93912 0.21584 0.0
H129 H 0.80946 0.8167 0.09969 0.0
H130 H 0.83208 0.9197 0.05866 0.0
H131 H 0.92391 0.88301 0.05073 0.0
Co132 Co 0.12894 0.63262 0.90374 0.0
C133 C 0.19131 0.60548 0.90099 0.0
C134 C 0.16608 0.59701 0.94118 0.0
C135 C 0.19521 0.58474 0.94247 0.0
N136 N 0.16342 0.6097 0.91491 0.0
N137 N 0.21104 0.59023 0.91721 0.0
H138 H 0.19775 0.61382 0.87994 0.0
H139 H 0.14838 0.59726 0.9586 0.0
C140 C 0.09704 0.58283 0.91442 0.0
O141 O 0.11926 0.57204 0.89836 0.0
N142 N 0.09474 0.6556 0.89321 0.0
C143 C 0.09563 0.67371 0.87213 0.0
C144 C 0.06546 0.68408 0.86887 0.0
C145 C 0.06427 0.65523 0.90266 0.0
N146 N 0.04568 0.67236 0.88799 0.0
C147 C 0.15183 0.6301 0.84341 0.0
C148 C 0.10096 0.60397 0.81753 0.0
C149 C 0.1259 0.61182 0.79896 0.0
C150 C 0.15142 0.62521 0.81249 0.0
C151 C 0.10231 0.60932 0.84859 0.0
N152 N 0.12821 0.62143 0.86151 0.0
H153 H 0.17087 0.64177 0.8525 0.0
H154 H 0.08184 0.60451 0.8618 0.0
H155 H 0.11644 0.67836 0.85915 0.0
H156 H 0.05578 0.64235 0.9195 0.0
O157 O 0.15991 0.65969 0.90103 0.0
O158 O 0.13505 0.64918 0.94255 0.0
O159 O 0.09633 0.60676 0.91679 0.0
C160 C 0.1557 0.66367 0.92956 0.0
H161 H 0.20461 0.57365 0.96114 0.0
H162 H 0.05842 0.6983 0.8526 0.0
H163 H 0.08032 0.59404 0.80816 0.0
H164 H 0.17051 0.63281 0.79913 0.0
Co165 Co 0.12083 0.63258 0.36883 0.0
C166 C 0.05854 0.6048 0.36976 0.0
C167 C 0.08506 0.59744 0.32998 0.0
C168 C 0.05616 0.58501 0.3275 0.0
N169 N 0.08678 0.60958 0.35668 0.0
N170 N 0.03955 0.58969 0.35257 0.0
H171 H 0.05093 0.61327 0.39041 0.0
H172 H 0.1033 0.59813 0.31308 0.0
C173 C 0.15317 0.58304 0.35804 0.0
O174 O 0.13094 0.57219 0.37399 0.0
N175 N 0.15475 0.65561 0.38014 0.0
C176 C 0.15308 0.67438 0.40037 0.0
C177 C 0.18313 0.68492 0.40406 0.0
C178 C 0.18559 0.65498 0.37169 0.0
N179 N 0.20358 0.67263 0.38609 0.0
C180 C 0.09695 0.62868 0.42873 0.0
C181 C 0.14876 0.60377 0.45477 0.0
C182 C 0.12336 0.61088 0.47323 0.0
C183 C 0.0973 0.62358 0.45962 0.0
C184 C 0.14745 0.60931 0.42379 0.0
N185 N 0.12118 0.62085 0.41078 0.0
H186 H 0.07755 0.63996 0.4196 0.0
H187 H 0.16825 0.60514 0.41069 0.0
H188 H 0.13171 0.67959 0.41224 0.0
H189 H 0.19496 0.64126 0.35627 0.0
O190 O 0.08952 0.6594 0.37178 0.0
O191 O 0.11502 0.64961 0.33033 0.0
O192 O 0.15374 0.60697 0.35568 0.0
C193 C 0.09403 0.66378 0.34338 0.0
H194 H 0.04779 0.57388 0.30845 0.0
H195 H 0.18943 0.70021 0.41914 0.0
H196 H 0.16977 0.59435 0.46418 0.0
H197 H 0.07777 0.63059 0.47291 0.0
Co198 Co 0.86953 0.38126 0.1178 0.0
C199 C 0.80807 0.40999 0.12091 0.0
C200 C 0.83284 0.41667 0.07998 0.0
C201 C 0.80411 0.42948 0.07856 0.0
N202 N 0.83548 0.40461 0.10668 0.0
N203 N 0.78867 0.42526 0.10438 0.0
H204 H 0.80125 0.40194 0.14201 0.0
H205 H 0.85031 0.41567 0.0624 0.0
C206 C 0.90186 0.43096 0.10813 0.0
O207 O 0.87966 0.44164 0.12431 0.0
N208 N 0.90344 0.35788 0.12816 0.0
C209 C 0.90133 0.33805 0.14681 0.0
C210 C 0.9314 0.3276 0.15069 0.0
C211 C 0.93462 0.35924 0.1209 0.0
N212 N 0.95236 0.34103 0.13449 0.0
C213 C 0.84609 0.38334 0.17787 0.0
C214 C 0.8981 0.40723 0.20498 0.0
C215 C 0.87309 0.399 0.22322 0.0
C216 C 0.84671 0.38717 0.209 0.0
C217 C 0.8964 0.40315 0.17363 0.0
N218 N 0.87014 0.39191 0.1602 0.0
H219 H 0.82647 0.37257 0.16824 0.0
H220 H 0.91701 0.40796 0.16059 0.0
H221 H 0.87963 0.33205 0.15758 0.0
H222 H 0.9444 0.37388 0.10703 0.0
O223 O 0.83813 0.35447 0.11995 0.0
O224 O 0.86345 0.36508 0.07873 0.0
O225 O 0.90243 0.40706 0.10534 0.0
C226 C 0.84251 0.35065 0.09142 0.0
H227 H 0.79503 0.44058 0.05976 0.0
H228 H 0.93736 0.31161 0.16477 0.0
H229 H 0.91949 0.41574 0.21494 0.0
H230 H 0.82675 0.38039 0.22186 0.0
Co231 Co 0.87873 0.3809 0.6544 0.0
C232 C 0.94105 0.4087 0.65344 0.0
C233 C 0.91374 0.41717 0.69239 0.0
C234 C 0.94258 0.4297 0.69484 0.0
N235 N 0.91254 0.40428 0.66619 0.0
N236 N 0.95971 0.42432 0.67029 0.0
H237 H 0.94914 0.39961 0.63337 0.0
H238 H 0.89521 0.41692 0.70902 0.0
C239 C 0.84566 0.43041 0.66371 0.0
O240 O 0.8677 0.44114 0.64743 0.0
N241 N 0.84504 0.35752 0.64345 0.0
C242 C 0.84716 0.33816 0.62407 0.0
C243 C 0.81714 0.32764 0.62005 0.0
C244 C 0.81394 0.35851 0.65104 0.0
N245 N 0.79623 0.34055 0.63693 0.0
C246 C 0.90313 0.38401 0.59472 0.0
C247 C 0.85055 0.40681 0.5672 0.0
C248 C 0.8761 0.39924 0.54919 0.0
C249 C 0.90277 0.38799 0.56362 0.0
C250 C 0.85201 0.40262 0.59852 0.0
N251 N 0.87852 0.3919 0.61216 0.0
H252 H 0.92285 0.37341 0.60441 0.0
H253 H 0.83104 0.40685 0.61136 0.0
H254 H 0.86881 0.33256 0.61291 0.0
H255 H 0.80417 0.37276 0.66553 0.0
O256 O 0.91026 0.3542 0.65214 0.0
O257 O 0.88451 0.36444 0.69329 0.0
O258 O 0.84551 0.40653 0.66679 0.0
C259 C 0.90561 0.35015 0.68057 0.0
H260 H 0.95056 0.44137 0.71356 0.0
H261 H 0.81116 0.31199 0.60541 0.0
H262 H 0.82894 0.41483 0.55707 0.0
H263 H 0.92311 0.38168 0.55093 0.0
Co264 Co 0.62756 0.13332 0.9032 0.0
C265 C 0.68961 0.10537 0.90074 0.0
C266 C 0.66569 0.09988 0.9424 0.0
C267 C 0.69471 0.08747 0.94403 0.0
N268 N 0.66237 0.11094 0.91513 0.0
N269 N 0.7096 0.09094 0.91776 0.0
H270 H 0.69584 0.11268 0.87907 0.0
H271 H 0.64846 0.10124 0.96015 0.0
C272 C 0.59693 0.08331 0.91481 0.0
O273 O 0.61981 0.07268 0.89942 0.0
N274 N 0.59297 0.15575 0.89202 0.0
C275 C 0.59353 0.17355 0.87052 0.0
C276 C 0.56324 0.1837 0.86725 0.0
C277 C 0.56257 0.15536 0.90169 0.0
N278 N 0.54372 0.17218 0.88677 0.0
C279 C 0.65087 0.13029 0.84308 0.0
C280 C 0.60042 0.10355 0.81739 0.0
C281 C 0.62518 0.11163 0.79874 0.0
C282 C 0.65053 0.12527 0.81219 0.0
C283 C 0.60169 0.10906 0.84841 0.0
N284 N 0.62733 0.12156 0.86122 0.0
H285 H 0.66985 0.14206 0.85215 0.0
H286 H 0.5813 0.1041 0.86166 0.0
H287 H 0.61422 0.17816 0.85738 0.0
H288 H 0.55436 0.14275 0.91893 0.0
O289 O 0.65804 0.16068 0.9001 0.0
O290 O 0.63305 0.15053 0.94168 0.0
O291 O 0.59538 0.10725 0.91653 0.0
C292 C 0.65357 0.16502 0.92852 0.0
H293 H 0.70432 0.07712 0.96323 0.0
H294 H 0.55593 0.19769 0.85078 0.0
H295 H 0.57995 0.09335 0.80812 0.0
H296 H 0.6695 0.133 0.79879 0.0
Co297 Co 0.62005 0.13271 0.36824 0.0
C298 C 0.55739 0.10536 0.36855 0.0
C299 C 0.58444 0.09764 0.32919 0.0
C300 C 0.55552 0.08528 0.32649 0.0
N301 N 0.58586 0.10994 0.35579 0.0
N302 N 0.53854 0.09018 0.35128 0.0
H303 H 0.54957 0.114 0.38902 0.0
H304 H 0.60294 0.09812 0.31253 0.0
C305 C 0.65207 0.08302 0.35773 0.0
O306 O 0.62966 0.07234 0.37363 0.0
N307 N 0.65415 0.15546 0.37981 0.0
C308 C 0.65318 0.17324 0.40135 0.0
C309 C 0.68345 0.18336 0.40518 0.0
C310 C 0.68474 0.15507 0.37068 0.0
N311 N 0.70333 0.17181 0.38599 0.0
C312 C 0.59572 0.12879 0.42796 0.0
C313 C 0.64749 0.10406 0.45433 0.0
C314 C 0.62214 0.11142 0.47272 0.0
C315 C 0.59607 0.12399 0.45892 0.0
C316 C 0.64623 0.10937 0.4233 0.0
N317 N 0.62002 0.12088 0.41014 0.0
H318 H 0.57638 0.14006 0.41871 0.0
H319 H 0.66708 0.10514 0.41029 0.0
H320 H 0.63226 0.17778 0.41423 0.0
H321 H 0.69331 0.14241 0.35361 0.0
O322 O 0.58906 0.15973 0.37116 0.0
O323 O 0.61467 0.14987 0.32978 0.0
O324 O 0.65283 0.10694 0.35524 0.0
C325 C 0.59377 0.16414 0.3428 0.0
H326 H 0.54742 0.07399 0.30747 0.0
H327 H 0.69051 0.19726 0.42188 0.0
H328 H 0.66848 0.09467 0.46382 0.0
H329 H 0.57658 0.13118 0.4721 0.0
Co330 Co 0.37104 0.88045 0.11847 0.0
C331 C 0.30911 0.90849 0.12078 0.0
C332 C 0.33303 0.91385 0.07911 0.0
C333 C 0.30403 0.92627 0.07741 0.0
N334 N 0.33633 0.90285 0.10642 0.0
N335 N 0.28915 0.92289 0.10371 0.0
H336 H 0.30285 0.90124 0.14247 0.0
H337 H 0.35027 0.91241 0.06136 0.0
C338 C 0.40169 0.9305 0.10705 0.0
O339 O 0.37869 0.94111 0.12229 0.0
N340 N 0.40555 0.85801 0.12978 0.0
C341 C 0.4049 0.84018 0.15122 0.0
C342 C 0.43517 0.82997 0.15452 0.0
C343 C 0.43596 0.85838 0.12016 0.0
N344 N 0.45474 0.84152 0.13507 0.0
C345 C 0.34737 0.88331 0.17849 0.0
C346 C 0.39734 0.91043 0.20446 0.0
C347 C 0.37246 0.90229 0.22295 0.0
C348 C 0.34739 0.88842 0.20936 0.0
C349 C 0.39641 0.9048 0.17347 0.0
N350 N 0.37098 0.89215 0.16049 0.0
H351 H 0.32854 0.87146 0.16931 0.0
H352 H 0.41687 0.90985 0.16036 0.0
H353 H 0.38416 0.83555 0.1643 0.0
H354 H 0.44423 0.871 0.10295 0.0
O355 O 0.34052 0.85309 0.12131 0.0
O356 O 0.36579 0.86332 0.07992 0.0
O357 O 0.40331 0.90655 0.10539 0.0
C358 C 0.34516 0.84881 0.0929 0.0
H359 H 0.2944 0.93655 0.05817 0.0
H360 H 0.44242 0.81594 0.17095 0.0
H361 H 0.41762 0.92078 0.21384 0.0
H362 H 0.32834 0.88064 0.22263 0.0
Co363 Co 0.37916 0.88127 0.65351 0.0
C364 C 0.44145 0.90844 0.65048 0.0
C365 C 0.41627 0.91711 0.69066 0.0
C366 C 0.44537 0.9294 0.69184 0.0
N367 N 0.41358 0.9043 0.66445 0.0
N368 N 0.46117 0.92377 0.66659 0.0
H369 H 0.4479 0.89993 0.6295 0.0
H370 H 0.39863 0.91693 0.70813 0.0
C371 C 0.34701 0.93094 0.66447 0.0
O372 O 0.36902 0.94179 0.64825 0.0
N373 N 0.34503 0.85818 0.64322 0.0
C374 C 0.34582 0.84005 0.6221 0.0
C375 C 0.31571 0.82953 0.61919 0.0
C376 C 0.3147 0.8584 0.65303 0.0
N377 N 0.29609 0.84116 0.63855 0.0
C378 C 0.40142 0.884 0.59294 0.0
C379 C 0.34991 0.90976 0.56764 0.0
C380 C 0.37466 0.90203 0.54876 0.0
C381 C 0.40054 0.88886 0.562 0.0
C382 C 0.35173 0.90443 0.59868 0.0
N383 N 0.37792 0.8925 0.61131 0.0
H384 H 0.42068 0.87244 0.60179 0.0
H385 H 0.33136 0.90908 0.61212 0.0
H386 H 0.3665 0.83549 0.60889 0.0
H387 H 0.30632 0.87123 0.66999 0.0
O388 O 0.41026 0.8543 0.65042 0.0
O389 O 0.38576 0.86469 0.69221 0.0
O390 O 0.34651 0.90701 0.66689 0.0
C391 C 0.40634 0.85027 0.67898 0.0
H392 H 0.45482 0.94057 0.71045 0.0
H393 H 0.30857 0.81525 0.603 0.0
H394 H 0.32903 0.91955 0.55855 0.0
H395 H 0.41952 0.88135 0.5484 0.0
Co396 Co 0.62935 0.63269 0.4043 0.0
C397 C 0.69087 0.60395 0.40194 0.0
C398 C 0.66608 0.59799 0.44302 0.0
C399 C 0.69491 0.58533 0.44486 0.0
N400 N 0.66343 0.60954 0.41599 0.0
N401 N 0.71034 0.58909 0.41894 0.0
H402 H 0.69772 0.61158 0.38063 0.0
H403 H 0.64858 0.59929 0.46055 0.0
C404 C 0.59732 0.58296 0.41423 0.0
O405 O 0.61977 0.5723 0.39832 0.0
N406 N 0.59541 0.65586 0.3934 0.0
C407 C 0.59744 0.67536 0.37425 0.0
C408 C 0.56734 0.68573 0.3702 0.0
C409 C 0.56426 0.65463 0.40081 0.0
N410 N 0.54647 0.6726 0.38683 0.0
C411 C 0.65339 0.63013 0.34448 0.0
C412 C 0.60164 0.60603 0.3172 0.0
C413 C 0.62687 0.61409 0.29909 0.0
C414 C 0.65311 0.62601 0.31342 0.0
C415 C 0.60304 0.61035 0.34851 0.0
N416 N 0.62918 0.62169 0.36204 0.0
H417 H 0.67291 0.64098 0.35416 0.0
H418 H 0.5823 0.60564 0.36143 0.0
H419 H 0.6191 0.68117 0.36328 0.0
H420 H 0.55455 0.64024 0.41511 0.0
O421 O 0.66061 0.65956 0.40205 0.0
O422 O 0.635 0.64923 0.44321 0.0
O423 O 0.5965 0.60687 0.41678 0.0
C424 C 0.65598 0.6636 0.43049 0.0
H425 H 0.7041 0.57469 0.464 0.0
H426 H 0.56131 0.70148 0.35574 0.0
H427 H 0.58033 0.59747 0.30716 0.0
H428 H 0.67324 0.63265 0.30068 0.0
Co429 Co 0.62054 0.63304 0.86832 0.0
C430 C 0.55817 0.60578 0.87097 0.0
C431 C 0.58395 0.59682 0.83124 0.0
C432 C 0.55488 0.58447 0.82985 0.0
N433 N 0.58624 0.60988 0.8573 0.0
N434 N 0.53871 0.59029 0.85482 0.0
H435 H 0.55138 0.61437 0.89177 0.0
H436 H 0.60184 0.59687 0.814 0.0
C437 C 0.6529 0.58329 0.85852 0.0
O438 O 0.63086 0.57262 0.87487 0.0
N439 N 0.6546 0.65621 0.87862 0.0
C440 C 0.65372 0.67444 0.8996 0.0
C441 C 0.6839 0.6848 0.90278 0.0
C442 C 0.68506 0.65579 0.86914 0.0
N443 N 0.70367 0.67296 0.88372 0.0
C444 C 0.59731 0.63079 0.92849 0.0
C445 C 0.64922 0.60654 0.95527 0.0
C446 C 0.6242 0.61465 0.97361 0.0
C447 C 0.5979 0.62669 0.95955 0.0
C448 C 0.64754 0.61089 0.92397 0.0
N449 N 0.62128 0.62227 0.91068 0.0
H450 H 0.57786 0.64185 0.91907 0.0
H451 H 0.66816 0.60619 0.91087 0.0
H452 H 0.63293 0.67913 0.9126 0.0
H453 H 0.69354 0.64281 0.85238 0.0
O454 O 0.58943 0.66003 0.87079 0.0
O455 O 0.61433 0.64929 0.82935 0.0
O456 O 0.65334 0.60718 0.85564 0.0
C457 C 0.59363 0.66383 0.84223 0.0
H458 H 0.54574 0.57311 0.81128 0.0
H459 H 0.69098 0.69909 0.91898 0.0
H460 H 0.67058 0.59791 0.96511 0.0
H461 H 0.57797 0.63344 0.97249 0.0
Co462 Co 0.37017 0.38113 0.61841 0.0
C463 C 0.30837 0.40945 0.62079 0.0
C464 C 0.33302 0.4156 0.57967 0.0
C465 C 0.30418 0.42824 0.578 0.0
N466 N 0.33581 0.40401 0.60666 0.0
N467 N 0.28881 0.42436 0.60394 0.0
H468 H 0.30168 0.4017 0.6421 0.0
H469 H 0.3505 0.41444 0.56211 0.0
C470 C 0.40186 0.43085 0.60739 0.0
O471 O 0.37946 0.44163 0.62324 0.0
N472 N 0.40433 0.3582 0.62942 0.0
C473 C 0.40267 0.33916 0.64926 0.0
C474 C 0.43278 0.32874 0.65297 0.0
C475 C 0.43525 0.3591 0.62124 0.0
N476 N 0.45327 0.34137 0.63542 0.0
C477 C 0.34674 0.38436 0.67848 0.0
C478 C 0.39801 0.40995 0.7045 0.0
C479 C 0.37276 0.40251 0.72293 0.0
C480 C 0.34701 0.38945 0.70935 0.0
C481 C 0.3967 0.40454 0.67346 0.0
N482 N 0.37066 0.39266 0.66047 0.0
H483 H 0.32751 0.3729 0.66933 0.0
H484 H 0.41731 0.40909 0.66029 0.0
H485 H 0.38126 0.33368 0.66087 0.0
H486 H 0.44464 0.37307 0.60617 0.0
O487 O 0.33911 0.35415 0.6213 0.0
O488 O 0.36431 0.36419 0.57981 0.0
O489 O 0.40278 0.40691 0.60523 0.0
C490 C 0.34354 0.34986 0.59287 0.0
H491 H 0.29501 0.43904 0.55898 0.0
H492 H 0.43908 0.31327 0.66778 0.0
H493 H 0.41882 0.41959 0.71399 0.0
H494 H 0.32764 0.38223 0.72267 0.0
Co495 Co 0.37803 0.38031 0.15353 0.0
C496 C 0.44054 0.40782 0.1529 0.0
C497 C 0.41326 0.4161 0.19194 0.0
C498 C 0.44219 0.42846 0.19457 0.0
N499 N 0.41198 0.40344 0.16558 0.0
N500 N 0.45931 0.4232 0.16998 0.0
H501 H 0.44853 0.39887 0.13269 0.0
H502 H 0.39469 0.41581 0.20854 0.0
C503 C 0.34542 0.42991 0.16321 0.0
O504 O 0.36764 0.44063 0.14712 0.0
N505 N 0.34419 0.35716 0.14235 0.0
C506 C 0.3459 0.33836 0.12214 0.0
C507 C 0.31583 0.32787 0.11835 0.0
C508 C 0.31332 0.35782 0.1507 0.0
N509 N 0.29535 0.34021 0.13625 0.0
C510 C 0.40245 0.38346 0.09384 0.0
C511 C 0.35024 0.40705 0.06664 0.0
C512 C 0.37553 0.39917 0.04853 0.0
C513 C 0.40197 0.38747 0.06273 0.0
C514 C 0.35167 0.40264 0.09789 0.0
N515 N 0.37801 0.39154 0.11139 0.0
H516 H 0.42205 0.37267 0.10344 0.0
H517 H 0.33078 0.407 0.11078 0.0
H518 H 0.36729 0.33315 0.11031 0.0
H519 H 0.3039 0.37159 0.16604 0.0
O520 O 0.40934 0.35346 0.15115 0.0
O521 O 0.38356 0.36365 0.19231 0.0
O522 O 0.34498 0.40602 0.16604 0.0
C523 C 0.40462 0.34934 0.17957 0.0
H524 H 0.45023 0.43994 0.21344 0.0
H525 H 0.30951 0.31261 0.10322 0.0
H526 H 0.32882 0.41543 0.05658 0.0
H527 H 0.422 0.38083 0.04981 0.0
H528 H 0.23219 0.07926 0.3626 0.0
H529 H 0.28787 0.07134 0.34925 0.0
H530 H 0.31609 0.07128 0.44354 0.0
H531 H 0.26046 0.0793 0.45703 0.0
H532 H 0.33585 0.10512 0.36376 0.0
H533 H 0.36598 0.01128 0.41052 0.0
H534 H 0.32507 0.0219 0.40462 0.0
H535 H 0.34813 0.03207 0.43724 0.0
C536 C 0.2502 0.07729 0.3805 0.0
C537 C 0.242 0.08016 0.41085 0.0
C538 C 0.28193 0.07258 0.37285 0.0
C539 C 0.30603 0.0705 0.39541 0.0
C540 C 0.29774 0.07226 0.4258 0.0
H541 H 0.51101 0.08513 0.40563 0.0
H542 H 0.45416 0.07758 0.41486 0.0
C543 C 0.26594 0.07693 0.43348 0.0
C544 C 0.34018 0.06978 0.38705 0.0
H545 H 0.4103 0.03712 0.39661 0.0
C546 C 0.35204 0.09008 0.37057 0.0
C547 C 0.36122 0.05021 0.39618 0.0
C548 C 0.34945 0.0275 0.41288 0.0
C549 C 0.38461 0.09176 0.36374 0.0
C550 C 0.40577 0.0724 0.37324 0.0
C551 C 0.39391 0.05188 0.38935 0.0
C552 C 0.44053 0.07394 0.36766 0.0
C553 C 0.39633 0.11469 0.34734 0.0
C554 C 0.4517 0.07372 0.33812 0.0
C555 C 0.48407 0.0783 0.33274 0.0
C556 C 0.50584 0.08309 0.35687 0.0
C557 C 0.49476 0.08204 0.38654 0.0
C558 C 0.46237 0.07747 0.39188 0.0
H559 H 0.37833 0.1301 0.34713 0.0
H560 H 0.41905 0.12177 0.3579 0.0
H561 H 0.40115 0.10964 0.32361 0.0
H562 H 0.43517 0.07077 0.31917 0.0
H563 H 0.4917 0.07905 0.30964 0.0
H564 H 0.00271 0.13729 0.40819 0.0
H565 H 0.94443 0.14156 0.40814 0.0
H566 H 0.95191 0.21639 0.37223 0.0
H567 H 0.01049 0.21261 0.3728 0.0
H568 H 0.90501 0.18036 0.43661 0.0
H569 H 0.89164 0.17649 0.31139 0.0
H570 H 0.92754 0.16591 0.33131 0.0
H571 H 0.91992 0.19886 0.32694 0.0
C572 C 0.9922 0.15486 0.40074 0.0
C573 C 0.01149 0.17459 0.39036 0.0
C574 C 0.95879 0.15718 0.40059 0.0
C575 C 0.94395 0.17915 0.38987 0.0
C576 C 0.96298 0.19913 0.38018 0.0
H577 H 0.73874 0.21245 0.40328 0.0
H578 H 0.79733 0.21616 0.40411 0.0
C579 C 0.99645 0.19689 0.38044 0.0
C580 C 0.90849 0.1808 0.38829 0.0
H581 H 0.84425 0.18104 0.33879 0.0
C582 C 0.89166 0.18071 0.41527 0.0
C583 C 0.89131 0.18102 0.36035 0.0
C584 C 0.90837 0.18041 0.33076 0.0
C585 C 0.85794 0.18068 0.41505 0.0
C586 C 0.84076 0.18084 0.38711 0.0
C587 C 0.85759 0.1811 0.36014 0.0
C588 C 0.8053 0.17924 0.38548 0.0
C589 C 0.84089 0.17969 0.44463 0.0
C590 C 0.79047 0.15747 0.37413 0.0
C591 C 0.75705 0.15519 0.3738 0.0
C592 C 0.73775 0.17476 0.38465 0.0
C593 C 0.75279 0.19685 0.39525 0.0
C594 C 0.78627 0.19906 0.39567 0.0
H595 H 0.8576 0.17545 0.4639 0.0
H596 H 0.82942 0.19811 0.44887 0.0
H597 H 0.82165 0.16525 0.44376 0.0
H598 H 0.80482 0.14197 0.36617 0.0
H599 H 0.74654 0.13777 0.36583 0.0
H600 H 0.5084 0.21296 0.86983 0.0
H601 H 0.44996 0.21723 0.87036 0.0
H602 H 0.44245 0.14348 0.90937 0.0
H603 H 0.50062 0.1387 0.90831 0.0
H604 H 0.40468 0.18372 0.84054 0.0
H605 H 0.38772 0.18948 0.96414 0.0
H606 H 0.42585 0.19561 0.94706 0.0
H607 H 0.41253 0.16388 0.95226 0.0
C608 C 0.49441 0.1976 0.87849 0.0
C609 C 0.50942 0.17546 0.88898 0.0
C610 C 0.461 0.20016 0.87892 0.0
C611 C 0.442 0.18078 0.89019 0.0
C612 C 0.4568 0.15884 0.90109 0.0
H613 H 0.2452 0.13893 0.86382 0.0
H614 H 0.3033 0.14392 0.8632 0.0
C615 C 0.49016 0.15619 0.90052 0.0
C616 C 0.40655 0.18285 0.8891 0.0
H617 H 0.34074 0.18251 0.93338 0.0
C618 C 0.39067 0.18371 0.86081 0.0
C619 C 0.38844 0.18307 0.91561 0.0
C620 C 0.40443 0.18319 0.94654 0.0
C621 C 0.35699 0.18383 0.85833 0.0
C622 C 0.33888 0.18293 0.88481 0.0
C623 C 0.35476 0.18303 0.91312 0.0
C624 C 0.30345 0.18078 0.88361 0.0
C625 C 0.34101 0.18476 0.82742 0.0
C626 C 0.28428 0.19985 0.89544 0.0
C627 C 0.25087 0.19718 0.8956 0.0
C628 C 0.23603 0.17524 0.88427 0.0
C629 C 0.25549 0.15628 0.87224 0.0
C630 C 0.28883 0.15904 0.87193 0.0
H631 H 0.35772 0.19152 0.81007 0.0
H632 H 0.33292 0.16561 0.82093 0.0
H633 H 0.31958 0.19718 0.82739 0.0
H634 H 0.2952 0.21676 0.90461 0.0
H635 H 0.23673 0.2123 0.9047 0.0
H636 H 0.01122 0.08152 0.9055 0.0
H637 H 0.95439 0.07402 0.91474 0.0
H638 H 0.93456 0.07092 0.81887 0.0
H639 H 0.9912 0.07902 0.80944 0.0
H640 H 0.89755 0.10564 0.84979 0.0
H641 H 0.89479 0.0126 0.90572 0.0
H642 H 0.92392 0.03392 0.92186 0.0
H643 H 0.92829 0.02299 0.88384 0.0
C644 C 0.99481 0.07902 0.88639 0.0
C645 C 0.00568 0.08107 0.85674 0.0
C646 C 0.96243 0.07439 0.89171 0.0
C647 C 0.94039 0.07161 0.86748 0.0
C648 C 0.95131 0.07277 0.83787 0.0
H649 H 0.73107 0.08002 0.8623 0.0
H650 H 0.78676 0.07203 0.84876 0.0
C651 C 0.98371 0.07732 0.83252 0.0
C652 C 0.90553 0.07064 0.87302 0.0
H653 H 0.84765 0.03801 0.90949 0.0
C654 C 0.88651 0.09068 0.86247 0.0
C655 C 0.89138 0.0512 0.8898 0.0
C656 C 0.91056 0.02882 0.90076 0.0
C657 C 0.85387 0.09227 0.86906 0.0
C658 C 0.83973 0.07299 0.88615 0.0
C659 C 0.8586 0.05271 0.89634 0.0
C660 C 0.80566 0.07433 0.8946 0.0
C661 C 0.8351 0.11508 0.85866 0.0
C662 C 0.79774 0.07711 0.92497 0.0
C663 C 0.76594 0.08158 0.93277 0.0
C664 C 0.74161 0.08339 0.91027 0.0
C665 C 0.74944 0.07925 0.88002 0.0
C666 C 0.78117 0.07464 0.87227 0.0
H667 H 0.85113 0.13066 0.85193 0.0
H668 H 0.81968 0.10999 0.83881 0.0
H669 H 0.81931 0.12196 0.87669 0.0
H670 H 0.81636 0.07688 0.94251 0.0
H671 H 0.76068 0.08479 0.95622 0.0
H672 H 0.74717 0.8958 0.63793 0.0
H673 H 0.69176 0.90663 0.6483 0.0
H674 H 0.70159 0.97594 0.59922 0.0
H675 H 0.75753 0.96511 0.58864 0.0
H676 H 0.66583 0.94808 0.67771 0.0
H677 H 0.62387 0.94201 0.55753 0.0
H678 H 0.66261 0.93031 0.57014 0.0
H679 H 0.65613 0.96347 0.56621 0.0
C680 C 0.7378 0.91352 0.62967 0.0
C681 C 0.75676 0.92962 0.61246 0.0
C682 C 0.70606 0.91965 0.63554 0.0
C683 C 0.69254 0.94199 0.62435 0.0
C684 C 0.71148 0.95843 0.60767 0.0
H685 H 0.49288 0.96644 0.68238 0.0
H686 H 0.54884 0.97695 0.67148 0.0
C687 C 0.74334 0.95222 0.60162 0.0
C688 C 0.65821 0.94714 0.62954 0.0
H689 H 0.5846 0.94706 0.59387 0.0
C690 C 0.64801 0.94834 0.65941 0.0
C691 C 0.63518 0.9474 0.60553 0.0
C692 C 0.64479 0.94558 0.57302 0.0
C693 C 0.61525 0.94824 0.66604 0.0
C694 C 0.59221 0.94739 0.64205 0.0
C695 C 0.60242 0.94777 0.61215 0.0
C696 C 0.55788 0.94242 0.64741 0.0
C697 C 0.60564 0.94733 0.69861 0.0
C698 C 0.54434 0.91986 0.6369 0.0
C699 C 0.51258 0.91392 0.64294 0.0
C700 C 0.49364 0.93044 0.65963 0.0
C701 C 0.50707 0.95324 0.6698 0.0
C702 C 0.53895 0.95927 0.66358 0.0
H703 H 0.62655 0.94409 0.71421 0.0
H704 H 0.59439 0.96543 0.70476 0.0
H705 H 0.58776 0.93221 0.70204 0.0
H706 H 0.55862 0.90653 0.62456 0.0
H707 H 0.50319 0.89604 0.6352 0.0
H708 H 0.99777 0.8739 0.61433 0.0
H709 H 0.05595 0.86911 0.61403 0.0
H710 H 0.0479 0.79559 0.65352 0.0
H711 H 0.98943 0.79981 0.65319 0.0
H712 H 0.09273 0.8306 0.68373 0.0
H713 H 0.1113 0.82153 0.56056 0.0
H714 H 0.08567 0.84697 0.57147 0.0
H715 H 0.07317 0.81516 0.57755 0.0
C716 C 0.0081 0.85645 0.62238 0.0
C717 C 0.98867 0.83723 0.6338 0.0
C718 C 0.04147 0.85381 0.62227 0.0
C719 C 0.0561 0.83195 0.63357 0.0
C720 C 0.03695 0.8126 0.64468 0.0
H721 H 0.26126 0.79992 0.62245 0.0
H722 H 0.20282 0.79547 0.62265 0.0
C723 C 0.00354 0.81514 0.64462 0.0
C724 C 0.0915 0.82993 0.63516 0.0
H725 H 0.15783 0.82897 0.59162 0.0
C726 C 0.10701 0.83 0.66363 0.0
C727 C 0.10991 0.82894 0.60888 0.0
C728 C 0.09426 0.82793 0.57784 0.0
C729 C 0.14066 0.83001 0.66649 0.0
C730 C 0.15908 0.83007 0.64018 0.0
C731 C 0.14355 0.82908 0.61173 0.0
C732 C 0.19448 0.8322 0.64163 0.0
C733 C 0.15629 0.83013 0.69757 0.0
C734 C 0.20902 0.85435 0.65221 0.0
C735 C 0.24236 0.85711 0.65182 0.0
C736 C 0.26184 0.83773 0.64079 0.0
C737 C 0.24708 0.81536 0.6307 0.0
C738 C 0.21369 0.8127 0.63095 0.0
H739 H 0.13934 0.82408 0.71508 0.0
H740 H 0.17764 0.81763 0.69845 0.0
H741 H 0.16444 0.84946 0.70313 0.0
H742 H 0.19449 0.86978 0.66006 0.0
H743 H 0.25263 0.87475 0.65928 0.0
H744 H 0.75325 0.87422 0.1589 0.0
H745 H 0.69512 0.86931 0.15939 0.0
H746 H 0.70309 0.79676 0.11724 0.0
H747 H 0.76156 0.80111 0.11731 0.0
H748 H 0.65777 0.83162 0.08871 0.0
H749 H 0.64046 0.82108 0.21182 0.0
H750 H 0.66554 0.84696 0.20139 0.0
H751 H 0.67856 0.81538 0.19445 0.0
C752 C 0.74292 0.85695 0.15029 0.0
C753 C 0.76234 0.83804 0.13809 0.0
C754 C 0.70958 0.85424 0.15052 0.0
C755 C 0.69492 0.8326 0.13858 0.0
C756 C 0.71405 0.81359 0.1266 0.0
H757 H 0.48989 0.80054 0.15155 0.0
H758 H 0.54834 0.79619 0.15104 0.0
C759 C 0.74746 0.81619 0.12653 0.0
C760 C 0.6595 0.83052 0.13726 0.0
H761 H 0.5936 0.82916 0.18138 0.0
C762 C 0.64369 0.83083 0.10892 0.0
C763 C 0.64133 0.82927 0.16369 0.0
C764 C 0.65726 0.82793 0.1946 0.0
C765 C 0.61002 0.83084 0.10636 0.0
C766 C 0.59185 0.8307 0.13283 0.0
C767 C 0.60767 0.82945 0.16114 0.0
C768 C 0.55642 0.83282 0.13172 0.0
C769 C 0.59412 0.83116 0.0754 0.0
C770 C 0.5417 0.85489 0.12111 0.0
C771 C 0.50835 0.85757 0.12165 0.0
C772 C 0.48902 0.83821 0.13289 0.0
C773 C 0.50395 0.81596 0.14311 0.0
C774 C 0.53735 0.81336 0.14269 0.0
H775 H 0.61084 0.82501 0.05773 0.0
H776 H 0.57261 0.81884 0.07459 0.0
H777 H 0.58619 0.85057 0.07 0.0
H778 H 0.5561 0.87031 0.11307 0.0
H779 H 0.49793 0.87514 0.11409 0.0
H780 H 0.00823 0.93311 0.21317 0.0
H781 H 0.06472 0.94136 0.20332 0.0
H782 H 0.04416 0.93794 0.10758 0.0
H783 H 0.98746 0.93039 0.11723 0.0
H784 H 0.10202 0.90707 0.17265 0.0
H785 H 0.1028 0.9996 0.11549 0.0
H786 H 0.06952 0.98899 0.13749 0.0
H787 H 0.07409 0.97785 0.09958 0.0
C788 C 0.01553 0.93477 0.19002 0.0
C789 C 0.99338 0.93094 0.16597 0.0
C790 C 0.04784 0.9394 0.18444 0.0
C791 C 0.05851 0.94052 0.15474 0.0
C792 C 0.0363 0.9376 0.13066 0.0
H793 H 0.23794 0.92837 0.06529 0.0
H794 H 0.18219 0.93587 0.07909 0.0
C795 C 0.004 0.93293 0.13622 0.0
C796 C 0.09328 0.94175 0.14896 0.0
H797 H 0.15033 0.97462 0.11167 0.0
C798 C 0.11271 0.92202 0.15969 0.0
C799 C 0.10697 0.96117 0.13181 0.0
C800 C 0.08735 0.98324 0.12063 0.0
C801 C 0.14533 0.92071 0.15294 0.0
C802 C 0.15901 0.93997 0.1355 0.0
C803 C 0.13972 0.95994 0.1251 0.0
C804 C 0.19304 0.93896 0.12693 0.0
C805 C 0.16457 0.89821 0.16357 0.0
C806 C 0.21761 0.93912 0.14917 0.0
C807 C 0.24937 0.93474 0.14137 0.0
C808 C 0.25713 0.93038 0.11116 0.0
C809 C 0.23271 0.93177 0.08871 0.0
C810 C 0.20088 0.936 0.09657 0.0
H811 H 0.14886 0.88251 0.17056 0.0
H812 H 0.18042 0.89135 0.14558 0.0
H813 H 0.17996 0.90365 0.18331 0.0
H814 H 0.21207 0.94188 0.17268 0.0
H815 H 0.26782 0.93429 0.15904 0.0
H816 H 0.2429 0.5478 0.93374 0.0
H817 H 0.29878 0.53709 0.92277 0.0
H818 H 0.30824 0.60672 0.87427 0.0
H819 H 0.25292 0.61745 0.88506 0.0
H820 H 0.33393 0.56532 0.84428 0.0
H821 H 0.37683 0.57093 0.96423 0.0
H822 H 0.34447 0.54954 0.95559 0.0
H823 H 0.33802 0.58272 0.95196 0.0
C824 C 0.257 0.56079 0.92081 0.0
C825 C 0.24349 0.58345 0.91025 0.0
C826 C 0.28883 0.55465 0.91453 0.0
C827 C 0.30764 0.5712 0.89788 0.0
C828 C 0.29404 0.5936 0.88699 0.0
H829 H 0.49628 0.61803 0.88573 0.0
H830 H 0.44097 0.60728 0.89645 0.0
C831 C 0.26233 0.59968 0.89311 0.0
C832 C 0.34192 0.5661 0.89241 0.0
H833 H 0.41581 0.5663 0.92755 0.0
C834 C 0.3519 0.56504 0.86245 0.0
C835 C 0.36515 0.56581 0.91626 0.0
C836 C 0.35579 0.56745 0.94885 0.0
C837 C 0.38459 0.56525 0.85559 0.0
C838 C 0.40782 0.56611 0.87942 0.0
C839 C 0.39785 0.56559 0.9094 0.0
C840 C 0.44204 0.5713 0.87384 0.0
C841 C 0.39396 0.56628 0.82297 0.0
C842 C 0.46111 0.5545 0.85773 0.0
C843 C 0.49294 0.56066 0.8515 0.0
C844 C 0.5062 0.58356 0.86156 0.0
C845 C 0.48707 0.60007 0.87809 0.0
C846 C 0.45537 0.59398 0.88417 0.0
H847 H 0.3729 0.56928 0.80748 0.0
H848 H 0.41154 0.5816 0.81944 0.0
H849 H 0.40553 0.54831 0.81675 0.0
H850 H 0.45136 0.53674 0.84993 0.0
H851 H 0.50726 0.54747 0.83903 0.0
H852 H 0.73889 0.71387 0.90046 0.0
H853 H 0.7974 0.71789 0.90079 0.0
H854 H 0.8052 0.64368 0.86299 0.0
H855 H 0.747 0.63911 0.86327 0.0
H856 H 0.84202 0.68362 0.93183 0.0
H857 H 0.86093 0.6897 0.80849 0.0
H858 H 0.82271 0.69638 0.82514 0.0
H859 H 0.83539 0.66447 0.82009 0.0
C860 C 0.75296 0.69835 0.89225 0.0
C861 C 0.73801 0.67614 0.88189 0.0
C862 C 0.78639 0.70077 0.89231 0.0
C863 C 0.80548 0.68118 0.88166 0.0
C864 C 0.79077 0.65917 0.87084 0.0
H865 H 0.00223 0.63882 0.90885 0.0
H866 H 0.94404 0.64359 0.90914 0.0
C867 C 0.75739 0.65665 0.87094 0.0
C868 C 0.84091 0.6831 0.88326 0.0
H869 H 0.90739 0.68285 0.83987 0.0
C870 C 0.85636 0.68369 0.91176 0.0
C871 C 0.85941 0.68338 0.85701 0.0
C872 C 0.84385 0.68366 0.8259 0.0
C873 C 0.89 0.68368 0.91469 0.0
C874 C 0.90849 0.68296 0.88845 0.0
C875 C 0.89305 0.68326 0.85994 0.0
C876 C 0.94391 0.68092 0.89008 0.0
C877 C 0.90557 0.68429 0.94579 0.0
C878 C 0.96307 0.70037 0.87923 0.0
C879 C 0.99649 0.69784 0.87929 0.0
C880 C 0.01135 0.67566 0.88984 0.0
C881 C 0.9919 0.65633 0.90101 0.0
C882 C 0.95853 0.65897 0.90112 0.0
H883 H 0.88851 0.69052 0.96313 0.0
H884 H 0.91407 0.66516 0.95185 0.0
H885 H 0.92672 0.697 0.94635 0.0
H886 H 0.95213 0.71745 0.87059 0.0
H887 H 0.0106 0.71325 0.87093 0.0
H888 H 0.50664 0.65749 0.43082 0.0
H889 H 0.448 0.6597 0.42988 0.0
H890 H 0.44909 0.69673 0.34354 0.0
H891 H 0.50765 0.69421 0.34392 0.0
H892 H 0.40643 0.71856 0.38727 0.0
H893 H 0.39032 0.61567 0.37247 0.0
H894 H 0.4164 0.62492 0.40348 0.0
H895 H 0.42784 0.63135 0.36549 0.0
C896 C 0.49449 0.66598 0.41153 0.0
C897 C 0.512 0.67546 0.38732 0.0
C898 C 0.46096 0.66729 0.41109 0.0
C899 C 0.44429 0.67809 0.38646 0.0
C900 C 0.46159 0.68829 0.36272 0.0
H901 H 0.24186 0.65984 0.33987 0.0
H902 H 0.30041 0.66271 0.33899 0.0
C903 C 0.49512 0.68693 0.36308 0.0
C904 C 0.40876 0.67824 0.38515 0.0
H905 H 0.34345 0.6396 0.38074 0.0
C906 C 0.39259 0.70134 0.38579 0.0
C907 C 0.39091 0.65573 0.3828 0.0
C908 C 0.40715 0.63048 0.38075 0.0
C909 C 0.35887 0.70247 0.38476 0.0
C910 C 0.34103 0.67991 0.38326 0.0
C911 C 0.35724 0.65685 0.38205 0.0
C912 C 0.30548 0.67967 0.38318 0.0
C913 C 0.34261 0.72777 0.38493 0.0
C914 C 0.28897 0.68825 0.40834 0.0
C915 C 0.25551 0.68646 0.40904 0.0
C916 C 0.23791 0.67593 0.38461 0.0
C917 C 0.2546 0.66772 0.35924 0.0
C918 C 0.28806 0.66947 0.3586 0.0
H919 H 0.35929 0.74308 0.37871 0.0
H920 H 0.3215 0.72805 0.36908 0.0
H921 H 0.33399 0.7317 0.40793 0.0
H922 H 0.30204 0.69572 0.42779 0.0
H923 H 0.24363 0.6926 0.42914 0.0
H924 H 0.76085 0.58328 0.4581 0.0
H925 H 0.81697 0.57634 0.44509 0.0
H926 H 0.78883 0.5713 0.35098 0.0
H927 H 0.73274 0.57838 0.36384 0.0
H928 H 0.85006 0.5384 0.41246 0.0
H929 H 0.85117 0.63112 0.35503 0.0
H930 H 0.81928 0.62169 0.37933 0.0
H931 H 0.82057 0.60993 0.34138 0.0
C932 C 0.76656 0.58021 0.43472 0.0
C933 C 0.74253 0.58174 0.41192 0.0
C934 C 0.79859 0.57629 0.42732 0.0
C935 C 0.80702 0.5738 0.39704 0.0
C936 C 0.78284 0.57372 0.37442 0.0
H937 H 0.99182 0.58025 0.31131 0.0
H938 H 0.93537 0.57217 0.32147 0.0
C939 C 0.75088 0.57779 0.38178 0.0
C940 C 0.84123 0.57318 0.38897 0.0
H941 H 0.89821 0.60674 0.35262 0.0
C942 C 0.86064 0.55327 0.39931 0.0
C943 C 0.85489 0.59271 0.37193 0.0
C944 C 0.83554 0.6152 0.36147 0.0
C945 C 0.89347 0.55229 0.39282 0.0
C946 C 0.90709 0.5719 0.37593 0.0
C947 C 0.88757 0.59164 0.36537 0.0
C948 C 0.94182 0.57319 0.37002 0.0
C949 C 0.91324 0.53026 0.40387 0.0
C950 C 0.96415 0.57619 0.39398 0.0
C951 C 0.99644 0.58077 0.38825 0.0
C952 C 0.00693 0.58258 0.35844 0.0
C953 C 0.98464 0.57872 0.33451 0.0
C954 C 0.95235 0.57419 0.34026 0.0
H955 H 0.8979 0.51388 0.40919 0.0
H956 H 0.93089 0.52453 0.38683 0.0
H957 H 0.92674 0.53572 0.42477 0.0
H958 H 0.95641 0.57593 0.41711 0.0
H959 H 0.0131 0.58337 0.40715 0.0
H960 H 0.48717 0.42759 0.11573 0.0
H961 H 0.54415 0.43471 0.10666 0.0
H962 H 0.56272 0.44225 0.20234 0.0
H963 H 0.50604 0.43441 0.21171 0.0
H964 H 0.5879 0.47499 0.1242 0.0
H965 H 0.61977 0.38279 0.17575 0.0
H966 H 0.57906 0.39101 0.16482 0.0
H967 H 0.59698 0.40358 0.19888 0.0
C968 C 0.50337 0.43075 0.13485 0.0
C969 C 0.49212 0.43005 0.16447 0.0
C970 C 0.53583 0.43505 0.1296 0.0
C971 C 0.55759 0.43866 0.15387 0.0
C972 C 0.54626 0.43921 0.18336 0.0
H973 H 0.76604 0.43374 0.16001 0.0
H974 H 0.71012 0.44123 0.17298 0.0
C975 C 0.51381 0.4349 0.18864 0.0
C976 C 0.59239 0.44009 0.1484 0.0
H977 H 0.66234 0.40761 0.15892 0.0
C978 C 0.60428 0.46036 0.13187 0.0
C979 C 0.61355 0.4209 0.15841 0.0
C980 C 0.60179 0.39821 0.17524 0.0
C981 C 0.63701 0.46197 0.12516 0.0
C982 C 0.65806 0.44258 0.13483 0.0
C983 C 0.64615 0.42252 0.15169 0.0
C984 C 0.69229 0.44184 0.12671 0.0
C985 C 0.64879 0.48445 0.10801 0.0
C986 C 0.70084 0.44007 0.09638 0.0
C987 C 0.73277 0.43572 0.08892 0.0
C988 C 0.7566 0.43278 0.11171 0.0
C989 C 0.74812 0.43554 0.14201 0.0
C990 C 0.71625 0.43998 0.14943 0.0
H991 H 0.63225 0.5007 0.11004 0.0
H992 H 0.67316 0.49017 0.11616 0.0
H993 H 0.65009 0.47956 0.08374 0.0
H994 H 0.68262 0.44087 0.07851 0.0
H995 H 0.73848 0.43339 0.06542 0.0
H996 H 0.257 0.35256 0.18253 0.0
H997 H 0.19841 0.34984 0.18321 0.0
H998 H 0.19691 0.31808 0.09374 0.0
H999 H 0.25537 0.32098 0.09268 0.0
H1000 H 0.15556 0.37357 0.14249 0.0
H1001 H 0.13925 0.27015 0.14098 0.0
H1002 H 0.1772 0.28485 0.15081 0.0
H1003 H 0.16439 0.28204 0.11194 0.0
C1004 C 0.24426 0.34497 0.163 0.0
C1005 C 0.26099 0.33702 0.13754 0.0
C1006 C 0.21079 0.34331 0.1635 0.0
C1007 C 0.19339 0.3335 0.13867 0.0
C1008 C 0.20994 0.32522 0.11339 0.0
H1009 H 0.99245 0.35717 0.09121 0.0
H1010 H 0.05108 0.35489 0.09231 0.0
C1011 C 0.24342 0.32689 0.11285 0.0
C1012 C 0.15782 0.33334 0.13849 0.0
H1013 H 0.09224 0.29495 0.13289 0.0
C1014 C 0.1417 0.35639 0.14052 0.0
C1015 C 0.13986 0.31086 0.13613 0.0
C1016 C 0.15599 0.28553 0.13511 0.0
C1017 C 0.10803 0.3576 0.13973 0.0
C1018 C 0.09009 0.3352 0.13649 0.0
C1019 C 0.10615 0.3121 0.13504 0.0
C1020 C 0.05455 0.33546 0.13507 0.0
C1021 C 0.09189 0.38282 0.14268 0.0
C1022 C 0.03712 0.32472 0.15838 0.0
C1023 C 0.00359 0.32612 0.15794 0.0
C1024 C 0.98684 0.33818 0.13404 0.0
C1025 C 0.00449 0.34822 0.11025 0.0
C1026 C 0.03801 0.34687 0.11078 0.0
H1027 H 0.10877 0.39738 0.15153 0.0
H1028 H 0.08268 0.38897 0.12017 0.0
H1029 H 0.07117 0.38159 0.15788 0.0
H1030 H 0.04952 0.3158 0.1773 0.0
H1031 H 0.99096 0.31839 0.17679 0.0
H1032 H 0.49185 0.35477 0.5897 0.0
H1033 H 0.55041 0.35177 0.58901 0.0
H1034 H 0.55151 0.31782 0.67723 0.0
H1035 H 0.4931 0.32104 0.67837 0.0
H1036 H 0.59355 0.37418 0.63106 0.0
H1037 H 0.60852 0.27065 0.62774 0.0
H1038 H 0.57084 0.28595 0.61833 0.0
H1039 H 0.58332 0.28191 0.65712 0.0
C1040 C 0.50448 0.34666 0.60898 0.0
C1041 C 0.48764 0.33818 0.63411 0.0
C1042 C 0.53794 0.34484 0.60845 0.0
C1043 C 0.55522 0.33431 0.63291 0.0
C1044 C 0.53856 0.32553 0.65785 0.0
H1045 H 0.75646 0.35523 0.68121 0.0
H1046 H 0.69781 0.35314 0.68022 0.0
C1047 C 0.5051 0.32738 0.65844 0.0
C1048 C 0.59078 0.33388 0.63309 0.0
H1049 H 0.65584 0.29483 0.6368 0.0
C1050 C 0.60719 0.35684 0.6322 0.0
C1051 C 0.60843 0.3112 0.63436 0.0
C1052 C 0.59195 0.28599 0.63418 0.0
C1053 C 0.64087 0.35778 0.63306 0.0
C1054 C 0.65852 0.33515 0.63517 0.0
C1055 C 0.64215 0.31214 0.6355 0.0
C1056 C 0.69406 0.33511 0.63656 0.0
C1057 C 0.65733 0.38295 0.63136 0.0
C1058 C 0.71134 0.32503 0.61271 0.0
C1059 C 0.74487 0.32632 0.61309 0.0
C1060 C 0.76178 0.3376 0.63746 0.0
C1061 C 0.74429 0.34689 0.66181 0.0
C1062 C 0.71076 0.34565 0.66135 0.0
H1063 H 0.64065 0.39791 0.62323 0.0
H1064 H 0.66658 0.38829 0.65417 0.0
H1065 H 0.67805 0.38207 0.61613 0.0
H1066 H 0.69881 0.31677 0.59341 0.0
H1067 H 0.75739 0.31917 0.59383 0.0
H1068 H 0.98739 0.4284 0.61592 0.0
H1069 H 0.04433 0.43539 0.60663 0.0
H1070 H 0.06315 0.44378 0.70217 0.0
H1071 H 0.00648 0.43607 0.71177 0.0
H1072 H 0.08855 0.47555 0.62342 0.0
H1073 H 0.11952 0.38369 0.67633 0.0
H1074 H 0.07887 0.39208 0.66538 0.0
H1075 H 0.09703 0.40489 0.6992 0.0
C1076 C 0.00362 0.43174 0.63496 0.0
C1077 C 0.99245 0.43126 0.66462 0.0
C1078 C 0.03607 0.43597 0.62958 0.0
C1079 C 0.0579 0.43975 0.65375 0.0
C1080 C 0.04664 0.4406 0.68326 0.0
H1081 H 0.26631 0.43356 0.65947 0.0
H1082 H 0.21049 0.44151 0.6724 0.0
C1083 C 0.0142 0.43636 0.68867 0.0
C1084 C 0.09271 0.4409 0.64819 0.0
H1085 H 0.16231 0.408 0.65901 0.0
C1086 C 0.10479 0.46088 0.63128 0.0
C1087 C 0.11367 0.42166 0.65843 0.0
C1088 C 0.10171 0.39923 0.67564 0.0
C1089 C 0.1375 0.46214 0.62441 0.0
C1090 C 0.15836 0.44271 0.63435 0.0
C1091 C 0.14627 0.42295 0.65158 0.0
C1092 C 0.19256 0.44162 0.62616 0.0
C1093 C 0.14949 0.48429 0.60679 0.0
C1094 C 0.20102 0.43937 0.59585 0.0
C1095 C 0.2329 0.43475 0.58842 0.0
C1096 C 0.25676 0.43201 0.61121 0.0
C1097 C 0.24837 0.4352 0.64147 0.0
C1098 C 0.21656 0.43991 0.64887 0.0
H1099 H 0.13304 0.50062 0.60835 0.0
H1100 H 0.17385 0.49005 0.61493 0.0
H1101 H 0.15091 0.479 0.58265 0.0
H1102 H 0.18276 0.44003 0.57801 0.0
H1103 H 0.23853 0.43209 0.56495 0.0
H1104 H 0.14494 0.14766 0.25726 0.0
H1105 H 0.14417 0.14331 0.20253 0.0
H1106 H 0.10096 0.07017 0.20994 0.0
H1107 H 0.10217 0.07413 0.26513 0.0
H1108 H 0.17393 0.10545 0.1673 0.0
H1109 H 0.04127 0.10809 0.14885 0.0
H1110 H 0.06058 0.11828 0.18369 0.0
H1111 H 0.05642 0.0854 0.17567 0.0
C1112 C 0.13555 0.13047 0.24743 0.0
C1113 C 0.12389 0.11112 0.26585 0.0
C1114 C 0.13498 0.12809 0.21601 0.0
C1115 C 0.12242 0.10647 0.20205 0.0
C1116 C 0.11043 0.08717 0.22018 0.0
H1117 H 0.1465 0.074 1.00832 0.0
H1118 H 0.14768 0.07041 0.06354 0.0
C1119 C 0.11108 0.08949 0.25176 0.0
C1120 C 0.12231 0.10434 0.16852 0.0
H1121 H 0.0727 0.10318 0.10582 0.0
C1122 C 0.15181 0.10472 0.15384 0.0
C1123 C 0.09343 0.10363 0.15097 0.0
C1124 C 0.06105 0.10401 0.16544 0.0
C1125 C 0.15321 0.1047 0.12215 0.0
C1126 C 0.12433 0.10411 0.1046 0.0
C1127 C 0.09484 0.10344 0.11928 0.0
C1128 C 0.1241 0.10598 0.07106 0.0
C1129 C 0.18552 0.10624 0.10766 0.0
C1130 C 0.11036 0.12705 0.05687 0.0
C1131 C 0.10981 0.12923 0.02544 0.0
C1132 C 0.12268 0.11022 1.00722 0.0
C1133 C 0.13662 0.08911 0.02153 0.0
C1134 C 0.13726 0.087 0.05313 0.0
H1135 H 0.20503 0.11114 0.12421 0.0
H1136 H 0.19132 0.08779 0.09752 0.0
H1137 H 0.18508 0.12044 0.08933 0.0
H1138 H 0.10026 0.14202 0.0702 0.0
H1139 H 0.09953 0.14604 0.01545 0.0
H1140 H 0.92897 0.91409 0.01352 0.0
H1141 H 0.9287 0.91691 0.95851 0.0
H1142 H 0.82634 0.9051 0.95514 0.0
H1143 H 0.82637 0.90126 1.01016 0.0
H1144 H 0.90063 0.87521 0.9178 0.0
H1145 H 0.84694 0.96997 0.90053 0.0
H1146 H 0.86821 0.96132 0.93504 0.0
H1147 H 0.82859 0.94939 0.92733 0.0
C1148 C 0.90632 0.91199 1.00121 0.0
C1149 C 0.87771 0.90725 0.01655 0.0
C1150 C 0.90624 0.9138 0.9697 0.0
C1151 C 0.87751 0.91133 0.95275 0.0
C1152 C 0.84874 0.90733 0.96784 0.0
H1153 H 0.82581 0.91234 0.76195 0.0
H1154 H 0.82751 0.91492 0.81693 0.0
C1155 C 0.84882 0.90528 0.99939 0.0
C1156 C 0.87798 0.91144 0.91922 0.0
H1157 H 0.85664 0.94597 0.85693 0.0
C1158 C 0.89115 0.8907 0.90444 0.0
C1159 C 0.86544 0.93161 0.90191 0.0
C1160 C 0.8516 0.95448 0.91683 0.0
C1161 C 0.89155 0.88934 0.87276 0.0
C1162 C 0.87928 0.90965 0.85529 0.0
C1163 C 0.86619 0.93045 0.8702 0.0
C1164 C 0.87886 0.90926 0.8216 0.0
C1165 C 0.90414 0.86574 0.85838 0.0
C1166 C 0.90726 0.90585 0.80561 0.0
C1167 C 0.90632 0.90395 0.77405 0.0
C1168 C 0.87696 0.90574 0.75763 0.0
C1169 C 0.84878 0.9103 0.77371 0.0
C1170 C 0.84973 0.912 0.80524 0.0
H1171 H 0.90397 0.8496 0.87422 0.0
H1172 H 0.8897 0.86068 0.83786 0.0
H1173 H 0.92935 0.86884 0.85177 0.0
H1174 H 0.93018 0.90432 0.81757 0.0
H1175 H 0.92852 0.90033 0.76265 0.0
H1176 H 0.17563 0.61354 0.51263 0.0
H1177 H 0.1764 0.60929 0.56754 0.0
H1178 H 0.0742 0.59607 0.56491 0.0
H1179 H 0.07347 0.59895 0.51003 0.0
H1180 H 0.14713 0.63821 0.60756 0.0
H1181 H 0.10241 0.54108 0.62111 0.0
H1182 H 0.11612 0.55284 0.58551 0.0
H1183 H 0.07623 0.55995 0.59775 0.0
C1184 C 0.15342 0.60906 0.52358 0.0
C1185 C 0.12449 0.60656 0.50664 0.0
C1186 C 0.15386 0.60686 0.55511 0.0
C1187 C 0.12544 0.602 0.57054 0.0
C1188 C 0.09662 0.59922 0.55368 0.0
H1189 H 0.07352 0.61298 0.75945 0.0
H1190 H 0.07331 0.60924 0.70433 0.0
C1191 C 0.09618 0.60126 0.52218 0.0
C1192 C 0.12559 0.60153 0.60424 0.0
H1193 H 0.10328 0.5668 0.6652 0.0
C1194 C 0.13778 0.62247 0.62009 0.0
C1195 C 0.11334 0.58103 0.6208 0.0
C1196 C 0.10159 0.55735 0.60545 0.0
C1197 C 0.13754 0.62367 0.65177 0.0
C1198 C 0.12487 0.60339 0.6682 0.0
C1199 C 0.11276 0.5824 0.65252 0.0
C1200 C 0.12459 0.60366 0.70174 0.0
C1201 C 0.15042 0.6468 0.66757 0.0
C1202 C 0.15337 0.60113 0.71861 0.0
C1203 C 0.15356 0.60293 0.7501 0.0
C1204 C 0.12496 0.60749 0.76555 0.0
C1205 C 0.09597 0.60922 0.74853 0.0
C1206 C 0.0958 0.60725 0.71695 0.0
H1207 H 0.15472 0.66241 0.65159 0.0
H1208 H 0.13342 0.65329 0.68482 0.0
H1209 H 0.17351 0.64217 0.67937 0.0
H1210 H 0.17581 0.59807 0.70734 0.0
H1211 H 0.17627 0.60095 0.76235 0.0
H1212 H 0.85107 0.43793 0.51443 0.0
H1213 H 0.85015 0.44163 0.45922 0.0
H1214 H 0.89699 0.36979 0.45254 0.0
H1215 H 0.89745 0.36566 0.50727 0.0
H1216 H 0.92511 0.40859 0.41723 0.0
H1217 H 0.79282 0.40137 0.39806 0.0
H1218 H 0.80658 0.42457 0.42493 0.0
H1219 H 0.81247 0.39187 0.433 0.0
C1220 C 0.86086 0.42279 0.50121 0.0
C1221 C 0.87457 0.40159 0.51552 0.0
C1222 C 0.86038 0.42496 0.46963 0.0
C1223 C 0.87346 0.40595 0.45169 0.0
C1224 C 0.88695 0.38478 0.46587 0.0
H1225 H 0.85358 0.36486 0.26522 0.0
H1226 H 0.85408 0.36905 0.31997 0.0
C1227 C 0.88734 0.38254 0.4973 0.0
C1228 C 0.87346 0.40792 0.41815 0.0
H1229 H 0.82425 0.407 0.35518 0.0
C1230 C 0.90306 0.40848 0.40364 0.0
C1231 C 0.84469 0.40752 0.40044 0.0
C1232 C 0.81227 0.40612 0.41474 0.0
C1233 C 0.90467 0.40838 0.37196 0.0
C1234 C 0.8759 0.40787 0.35425 0.0
C1235 C 0.84629 0.40759 0.36876 0.0
C1236 C 0.87598 0.40582 0.32071 0.0
C1237 C 0.93714 0.4079 0.35767 0.0
C1238 C 0.88818 0.42514 0.30272 0.0
C1239 C 0.88768 0.42292 0.27113 0.0
C1240 C 0.87483 0.40136 0.25689 0.0
C1241 C 0.863 0.38199 0.27517 0.0
C1242 C 0.86341 0.38427 0.30659 0.0
H1243 H 0.95679 0.40373 0.37436 0.0
H1244 H 0.93763 0.39365 0.3394 0.0
H1245 H 0.94195 0.4265 0.34749 0.0
H1246 H 0.89767 0.44209 0.31308 0.0
H1247 H 0.89672 0.4383 0.25787 0.0
H1248 H 0.57229 0.10068 0.51016 0.0
H1249 H 0.57339 0.09874 0.56515 0.0
H1250 H 0.67596 0.11 0.56667 0.0
H1251 H 0.67486 0.1135 0.51175 0.0
H1252 H 0.60171 0.06853 0.60576 0.0
H1253 H 0.64934 0.16477 0.62266 0.0
H1254 H 0.63569 0.15343 0.58621 0.0
H1255 H 0.67517 0.14543 0.60075 0.0
C1256 C 0.59511 0.10305 0.5221 0.0
C1257 C 0.62342 0.10764 0.50624 0.0
C1258 C 0.59572 0.1017 0.55366 0.0
C1259 C 0.62463 0.10481 0.57027 0.0
C1260 C 0.65317 0.10823 0.55452 0.0
H1261 H 0.67559 0.10178 0.7617 0.0
H1262 H 0.67475 0.09898 0.70669 0.0
C1263 C 0.65256 0.10982 0.52294 0.0
C1264 C 0.62473 0.10469 0.60398 0.0
H1265 H 0.64639 0.13924 0.66637 0.0
C1266 C 0.61137 0.08405 0.61896 0.0
C1267 C 0.63711 0.12501 0.62139 0.0
C1268 C 0.64983 0.14852 0.60696 0.0
C1269 C 0.61058 0.08303 0.65068 0.0
C1270 C 0.62341 0.10315 0.66793 0.0
C1271 C 0.63673 0.12376 0.65307 0.0
C1272 C 0.62329 0.10328 0.70149 0.0
C1273 C 0.59647 0.06031 0.66564 0.0
C1274 C 0.59457 0.10653 0.71693 0.0
C1275 C 0.59495 0.10853 0.7485 0.0
C1276 C 0.62412 0.1073 0.76532 0.0
C1277 C 0.65272 0.10331 0.74964 0.0
C1278 C 0.65231 0.10153 0.71814 0.0
H1279 H 0.59211 0.04467 0.64945 0.0
H1280 H 0.61271 0.05362 0.68421 0.0
H1281 H 0.57322 0.06551 0.67563 0.0
H1282 H 0.57192 0.10822 0.70449 0.0
H1283 H 0.5725 0.11195 0.75957 0.0
H1284 H 0.32148 0.9119 0.25941 0.0
H1285 H 0.32164 0.91501 0.31438 0.0
H1286 H 0.4246 0.90676 0.31769 0.0
H1287 H 0.42471 0.9027 0.26266 0.0
H1288 H 0.34983 0.87529 0.35516 0.0
H1289 H 0.40282 0.97023 0.3723 0.0
H1290 H 0.38304 0.96093 0.33727 0.0
H1291 H 0.42261 0.94952 0.34657 0.0
C1292 C 0.34424 0.91065 0.2717 0.0
C1293 C 0.37307 0.90683 0.25634 0.0
C1294 C 0.34426 0.91262 0.30318 0.0
C1295 C 0.37311 0.91124 0.32014 0.0
C1296 C 0.40207 0.90818 0.30501 0.0
H1297 H 0.42423 0.91275 0.5111 0.0
H1298 H 0.42266 0.91523 0.45613 0.0
C1299 C 0.40207 0.90598 0.27346 0.0
C1300 C 0.3726 0.91146 0.35369 0.0
H1301 H 0.39377 0.94615 0.41598 0.0
C1302 C 0.3593 0.89081 0.3685 0.0
C1303 C 0.38513 0.93166 0.37101 0.0
C1304 C 0.39907 0.95449 0.35614 0.0
C1305 C 0.35877 0.88955 0.40018 0.0
C1306 C 0.37102 0.90989 0.41764 0.0
C1307 C 0.38423 0.93061 0.40273 0.0
C1308 C 0.37133 0.90959 0.45134 0.0
C1309 C 0.34605 0.86603 0.41457 0.0
C1310 C 0.34288 0.90624 0.46727 0.0
C1311 C 0.34374 0.9044 0.49885 0.0
C1312 C 0.37306 0.90618 0.51532 0.0
C1313 C 0.40128 0.9107 0.49929 0.0
C1314 C 0.40041 0.91235 0.46776 0.0
H1315 H 0.34625 0.84983 0.39877 0.0
H1316 H 0.3604 0.86099 0.43515 0.0
H1317 H 0.32083 0.86919 0.42108 0.0
H1318 H 0.31998 0.90471 0.45526 0.0
H1319 H 0.32151 0.90082 0.5102 0.0
H1320 H 0.64802 0.57505 1.00763 0.0
H1321 H 0.64842 0.57052 0.06278 0.0
H1322 H 0.60441 0.64334 0.0708 0.0
H1323 H 0.60459 0.64832 0.01619 0.0
H1324 H 0.67685 0.60295 0.10877 0.0
H1325 H 0.54458 0.59596 0.11812 0.0
H1326 H 0.56473 0.591 0.08303 0.0
H1327 H 0.5577 0.62232 0.09642 0.0
C1328 C 0.63865 0.59019 0.02113 0.0
C1329 C 0.6258 0.61189 1.00723 0.0
C1330 C 0.63874 0.5875 0.05266 0.0
C1331 C 0.62579 0.60636 0.07089 0.0
C1332 C 0.61376 0.62825 0.05718 0.0
H1333 H 0.64746 0.6476 0.25679 0.0
H1334 H 0.64782 0.64277 0.20218 0.0
C1335 C 0.61381 0.63101 0.02583 0.0
C1336 C 0.62526 0.60364 0.10432 0.0
H1337 H 0.57461 0.60363 0.16384 0.0
C1338 C 0.65451 0.60281 0.12079 0.0
C1339 C 0.5961 0.60318 0.12005 0.0
C1340 C 0.56395 0.60292 0.10355 0.0
C1341 C 0.65535 0.60265 0.15255 0.0
C1342 C 0.6262 0.60349 0.16829 0.0
C1343 C 0.59695 0.60319 0.15181 0.0
C1344 C 0.62572 0.60606 0.20174 0.0
C1345 C 0.68748 0.60182 0.16907 0.0
C1346 C 0.61236 0.5873 0.21979 0.0
C1347 C 0.61237 0.58988 0.25133 0.0
C1348 C 0.62553 0.61139 0.26543 0.0
C1349 C 0.63799 0.63042 0.24702 0.0
C1350 C 0.63814 0.62775 0.21565 0.0
H1351 H 0.7067 0.59469 0.15441 0.0
H1352 H 0.69416 0.62107 0.17645 0.0
H1353 H 0.68641 0.58977 0.18943 0.0
H1354 H 0.60239 0.57048 0.20951 0.0
H1355 H 0.60265 0.57481 0.26467 0.0
H1356 H 0.32281 0.41545 0.75895 0.0
H1357 H 0.32279 0.41832 0.81394 0.0
H1358 H 0.42428 0.40224 0.81792 0.0
H1359 H 0.42448 0.399 0.76283 0.0
H1360 H 0.33894 0.37992 0.85391 0.0
H1361 H 0.41671 0.46305 0.87455 0.0
H1362 H 0.39879 0.45601 0.83798 0.0
H1363 H 0.43406 0.43942 0.85107 0.0
C1364 C 0.34522 0.4126 0.77144 0.0
C1365 C 0.37363 0.40687 0.7563 0.0
C1366 C 0.34516 0.41436 0.80294 0.0
C1367 C 0.37355 0.4107 0.82015 0.0
C1368 C 0.40217 0.40562 0.80516 0.0
H1369 H 0.3931 0.36444 1.00652 0.0
H1370 H 0.39174 0.36835 0.95168 0.0
C1371 C 0.40225 0.4038 0.77358 0.0
C1372 C 0.37264 0.41056 0.85376 0.0
H1373 H 0.4038 0.43858 0.91754 0.0
C1374 C 0.35301 0.39285 0.86778 0.0
C1375 C 0.39069 0.42759 0.87194 0.0
C1376 C 0.41105 0.44777 0.8582 0.0
C1377 C 0.35153 0.3913 0.89937 0.0
C1378 C 0.37046 0.40772 0.91758 0.0
C1379 C 0.38947 0.42588 0.9036 0.0
C1380 C 0.3715 0.40573 0.95112 0.0
C1381 C 0.32952 0.37214 0.913 0.0
C1382 C 0.36109 0.42564 0.96926 0.0
C1383 C 0.36199 0.42352 1.00084 0.0
C1384 C 0.37377 0.40157 0.01492 0.0
C1385 C 0.38428 0.38175 0.99658 0.0
C1386 C 0.38322 0.38385 0.96513 0.0
H1387 H 0.31061 0.36581 0.89657 0.0
H1388 H 0.34381 0.35547 0.92008 0.0
H1389 H 0.31777 0.37984 0.93321 0.0
H1390 H 0.35206 0.44276 0.95895 0.0
H1391 H 0.35395 0.43919 0.01424 0.0
H1392 H 0.29889 0.31768 0.61507 0.0
H1393 H 0.26762 0.28576 0.58757 0.0
H1394 H 0.31442 0.30585 0.50544 0.0
H1395 H 0.34613 0.33762 0.53291 0.0
H1396 H 0.22481 0.29177 0.53928 0.0
H1397 H 0.32557 0.22983 0.50739 0.0
H1398 H 0.33004 0.25407 0.53566 0.0
H1399 H 0.33029 0.26198 0.49626 0.0
C1400 C 0.30272 0.3152 0.59119 0.0
C1401 C 0.32517 0.33012 0.57622 0.0
C1402 C 0.28476 0.29696 0.57548 0.0
C1403 C 0.28893 0.29311 0.5445 0.0
C1404 C 0.31123 0.30807 0.52945 0.0
H1405 H 0.20047 0.19539 0.40894 0.0
H1406 H 0.23167 0.22713 0.43679 0.0
C1407 C 0.32924 0.32633 0.54516 0.0
C1408 C 0.26929 0.27395 0.52788 0.0
H1409 H 0.27441 0.22071 0.48517 0.0
C1410 C 0.23565 0.27616 0.52757 0.0
C1411 C 0.28341 0.25358 0.51256 0.0
C1412 C 0.31929 0.2495 0.51314 0.0
C1413 C 0.21581 0.25889 0.51191 0.0
C1414 C 0.22993 0.23854 0.49655 0.0
C1415 C 0.26357 0.23631 0.4969 0.0
C1416 C 0.21031 0.21947 0.47975 0.0
C1417 C 0.17993 0.26294 0.51134 0.0
C1418 C 0.188 0.2044 0.49463 0.0
C1419 C 0.17003 0.18623 0.47872 0.0
C1420 C 0.17415 0.18266 0.44763 0.0
C1421 C 0.1966 0.1977 0.43284 0.0
C1422 C 0.21453 0.21584 0.44874 0.0
H1423 H 0.17362 0.28257 0.51728 0.0
H1424 H 0.16921 0.25853 0.48876 0.0
H1425 H 0.16892 0.25033 0.52807 0.0
H1426 H 0.18477 0.20647 0.51865 0.0
H1427 H 0.15313 0.17485 0.49084 0.0
H1428 H 0.95031 0.91415 0.57065 0.0
H1429 H 0.98371 0.93997 0.53828 0.0
H1430 H 0.93913 0.00684 0.57254 0.0
H1431 H 0.90596 0.98127 0.60518 0.0
H1432 H 0.96304 0.97254 0.49289 0.0
H1433 H 0.03418 0.02433 0.58018 0.0
H1434 H 0.0114 0.99651 0.58865 0.0
H1435 H 0.99154 0.02635 0.58475 0.0
C1436 C 0.94788 0.93437 0.57164 0.0
C1437 C 0.92545 0.94559 0.59068 0.0
C1438 C 0.96695 0.94911 0.55301 0.0
C1439 C 0.96424 0.9754 0.55315 0.0
C1440 C 0.94218 0.98665 0.57241 0.0
H1441 H 0.0498 0.09766 0.45237 0.0
H1442 H 0.01652 0.07157 0.48451 0.0
C1443 C 0.9231 0.97195 0.59103 0.0
C1444 C 0.98335 0.99096 0.53219 0.0
H1445 H 0.03767 0.039 0.52977 0.0
C1446 C 0.97951 0.98696 0.50097 0.0
C1447 C 0.00475 0.00989 0.54266 0.0
C1448 C 0.01101 0.01443 0.57589 0.0
C1449 C 0.99599 1.00164 0.47999 0.0
C1450 C 0.01735 0.02059 0.49047 0.0
C1451 C 0.02121 0.02457 0.52169 0.0
C1452 C 0.03631 0.03629 0.46952 0.0
C1453 C 0.98976 0.99709 0.44676 0.0
C1454 C 0.05848 0.0252 0.45023 0.0
C1455 C 0.07751 0.04007 0.43174 0.0
C1456 C 0.07497 0.06642 0.43224 0.0
C1457 C 0.05238 0.07746 0.45127 0.0
C1458 C 0.03337 0.06255 0.46977 0.0
H1459 H 0.96669 0.98706 0.44246 0.0
H1460 H 0.98919 0.01503 0.43403 0.0
H1461 H 0.00935 0.98532 0.43787 0.0
H1462 H 0.06169 1.00504 0.45002 0.0
H1463 H 0.09478 0.03089 0.41759 0.0
H1464 H 0.30033 0.9151 0.70273 0.0
H1465 H 0.26698 0.94091 0.7352 0.0
H1466 H 0.31049 0.00784 0.70011 0.0
H1467 H 0.34364 0.98226 0.66736 0.0
H1468 H 0.28782 0.97391 0.78021 0.0
H1469 H 0.21512 0.02466 0.69318 0.0
H1470 H 0.2381 0.99691 0.68471 0.0
H1471 H 0.25768 0.02689 0.68823 0.0
C1472 C 0.30253 0.93533 0.70158 0.0
C1473 C 0.32467 0.94656 0.68227 0.0
C1474 C 0.28349 0.95007 0.72027 0.0
C1475 C 0.28592 0.97637 0.71993 0.0
C1476 C 0.30767 0.98764 0.7004 0.0
H1477 H 0.199 0.09827 0.82083 0.0
H1478 H 0.23259 0.07246 0.78859 0.0
C1479 C 0.32673 0.97293 0.68172 0.0
C1480 C 0.26684 0.99193 0.74097 0.0
H1481 H 0.21176 0.03947 0.74355 0.0
C1482 C 0.27104 0.98814 0.77218 0.0
C1483 C 0.24505 0.01061 0.73055 0.0
C1484 C 0.23842 0.01492 0.69734 0.0
C1485 C 0.25452 1.00277 0.79321 0.0
C1486 C 0.23273 0.02145 0.7828 0.0
C1487 C 0.22854 0.02524 0.75158 0.0
C1488 C 0.21363 0.03701 0.80382 0.0
C1489 C 0.26113 0.99846 0.82642 0.0
C1490 C 0.19181 0.02573 0.82328 0.0
C1491 C 0.1726 0.04044 0.84183 0.0
C1492 C 0.17459 0.06681 0.84121 0.0
C1493 C 0.19684 0.07805 0.82203 0.0
C1494 C 0.21603 0.0633 0.80346 0.0
H1495 H 0.28443 0.98871 0.83059 0.0
H1496 H 0.26146 0.01647 0.83905 0.0
H1497 H 0.24186 0.9865 0.83553 0.0
H1498 H 0.18902 1.00553 0.82359 0.0
H1499 H 0.15562 0.03111 0.8561 0.0
H1500 H 0.95079 0.3181 0.65898 0.0
H1501 H 0.98193 0.28636 0.68683 0.0
H1502 H 0.93414 0.30656 0.76844 0.0
H1503 H 0.90254 0.33818 0.7406 0.0
H1504 H 0.0242 0.29252 0.73552 0.0
H1505 H 0.92321 0.23049 0.76639 0.0
H1506 H 0.91899 0.25467 0.73808 0.0
H1507 H 0.91838 0.26266 0.77745 0.0
C1508 C 0.94672 0.31571 0.68282 0.0
C1509 C 0.92401 0.3306 0.69753 0.0
C1510 C 0.96461 0.29756 0.69873 0.0
C1511 C 0.96011 0.29378 0.72967 0.0
C1512 C 0.93758 0.30873 0.74447 0.0
H1513 H 0.04751 0.19506 0.86489 0.0
H1514 H 0.01648 0.22704 0.83732 0.0
C1515 C 0.91964 0.32691 0.72855 0.0
C1516 C 0.97964 0.27465 0.74646 0.0
H1517 H 0.97424 0.22123 0.7887 0.0
C1518 C 0.01328 0.27687 0.74705 0.0
C1519 C 0.96542 0.25422 0.76154 0.0
C1520 C 0.92954 0.25015 0.76069 0.0
C1521 C 0.03302 0.25954 0.76271 0.0
C1522 C 0.0188 0.2391 0.77777 0.0
C1523 C 0.98516 0.23689 0.77719 0.0
C1524 C 0.03833 0.21989 0.79443 0.0
C1525 C 0.0689 0.26363 0.76356 0.0
C1526 C 0.06086 0.20503 0.77951 0.0
C1527 C 0.07875 0.18673 0.79527 0.0
C1528 C 0.07431 0.18281 0.82624 0.0
C1529 C 0.05163 0.19763 0.84107 0.0
C1530 C 0.03379 0.21591 0.82532 0.0
H1531 H 0.0752 0.28332 0.75802 0.0
H1532 H 0.07948 0.25897 0.78612 0.0
H1533 H 0.08004 0.25122 0.74666 0.0
H1534 H 0.06433 0.20734 0.75556 0.0
H1535 H 0.09582 0.17551 0.78312 0.0
H1536 H 0.79917 0.81735 0.61655 0.0
H1537 H 0.76729 0.7858 0.5891 0.0
H1538 H 0.81509 0.80468 0.5071 0.0
H1539 H 0.84685 0.83657 0.53438 0.0
H1540 H 0.74864 0.80137 0.49949 0.0
H1541 H 0.79615 0.71723 0.55926 0.0
H1542 H 0.78098 0.74099 0.58383 0.0
H1543 H 0.81566 0.74744 0.5618 0.0
C1544 C 0.80309 0.81469 0.59271 0.0
C1545 C 0.82571 0.82941 0.57769 0.0
C1546 C 0.78493 0.79653 0.57707 0.0
C1547 C 0.78911 0.79254 0.54611 0.0
C1548 C 0.81156 0.80729 0.53101 0.0
H1549 H 0.70131 0.69548 0.40898 0.0
H1550 H 0.73282 0.72689 0.43696 0.0
C1551 C 0.82976 0.82549 0.54665 0.0
C1552 C 0.76935 0.77355 0.52932 0.0
H1553 H 0.75075 0.71106 0.52655 0.0
C1554 C 0.74923 0.7816 0.50531 0.0
C1555 C 0.76999 0.74775 0.53698 0.0
C1556 C 0.79205 0.73773 0.56169 0.0
C1557 C 0.72938 0.76468 0.4891 0.0
C1558 C 0.73006 0.73888 0.49672 0.0
C1559 C 0.75014 0.73083 0.52076 0.0
C1560 C 0.71056 0.71988 0.47968 0.0
C1561 C 0.70734 0.77471 0.46437 0.0
C1562 C 0.688 0.70498 0.49446 0.0
C1563 C 0.67 0.68685 0.4785 0.0
C1564 C 0.67437 0.68313 0.44748 0.0
C1565 C 0.69713 0.69796 0.4328 0.0
C1566 C 0.71509 0.71606 0.44875 0.0
H1567 H 0.70308 0.79517 0.46692 0.0
H1568 H 0.71855 0.77161 0.44225 0.0
H1569 H 0.68381 0.76489 0.4641 0.0
H1570 H 0.68423 0.70747 0.51835 0.0
H1571 H 0.65279 0.67567 0.49051 0.0
H1572 H 0.69871 0.09848 0.31923 0.0
H1573 H 0.73137 0.07237 0.28648 0.0
H1574 H 0.68876 1.00577 0.32336 0.0
H1575 H 0.65568 0.03168 0.35583 0.0
H1576 H 0.77611 0.03481 0.29903 0.0
H1577 H 0.67227 0.99629 0.23305 0.0
H1578 H 0.66867 0.02285 0.25801 0.0
H1579 H 0.67003 0.99152 0.273 0.0
C1580 C 0.69637 0.07827 0.32053 0.0
C1581 C 0.67431 0.06723 0.34006 0.0
C1582 C 0.71507 0.06336 0.30174 0.0
C1583 C 0.71204 0.0371 0.30193 0.0
C1584 C 0.69096 0.02599 0.32221 0.0
H1585 H 0.8008 0.91487 0.20332 0.0
H1586 H 0.76803 0.9409 0.23609 0.0
C1587 C 0.67223 0.04087 0.34098 0.0
C1588 C 0.73086 0.02137 0.28089 0.0
H1589 H 0.72326 0.97844 0.22371 0.0
C1590 C 0.76455 0.02258 0.28248 0.0
C1591 C 0.7158 1.00535 0.25925 0.0
C1592 C 0.67971 1.00403 0.25544 0.0
C1593 C 0.78357 0.0079 0.2635 0.0
C1594 C 0.76851 0.99189 0.24185 0.0
C1595 C 0.73482 0.99068 0.24027 0.0
C1596 C 0.78734 0.97621 0.22076 0.0
C1597 C 0.81966 0.00922 0.26732 0.0
C1598 C 0.80842 0.98737 0.20053 0.0
C1599 C 0.82722 0.97255 0.18176 0.0
C1600 C 0.82518 0.94619 0.18262 0.0
C1601 C 0.8031 0.93508 0.20207 0.0
C1602 C 0.78434 0.94995 0.22088 0.0
H1603 H 0.82708 0.01691 0.28974 0.0
H1604 H 0.83071 0.99041 0.26469 0.0
H1605 H 0.82933 0.02178 0.2498 0.0
H1606 H 0.81059 0.0076 0.19943 0.0
H1607 H 0.84377 0.98179 0.16696 0.0
H1608 H 0.90265 0.83689 0.23952 0.0
H1609 H 0.93495 0.80561 0.26727 0.0
H1610 H 0.98292 0.78613 0.18551 0.0
H1611 H 0.95108 0.81751 0.15775 0.0
H1612 H 0.94029 0.75392 0.25864 0.0
H1613 H 0.05813 0.80026 0.24387 0.0
H1614 H 0.02044 0.81607 0.23624 0.0
H1615 H 0.0362 0.79449 0.20916 0.0
C1616 C 0.92007 0.82594 0.22745 0.0
C1617 C 0.92438 0.8298 0.19644 0.0
C1618 C 0.93853 0.80807 0.24334 0.0
C1619 C 0.9618 0.7938 0.22862 0.0
C1620 C 0.96566 0.79728 0.19754 0.0
H1621 H 0.09688 0.67621 0.28351 0.0
H1622 H 0.06446 0.70749 0.25588 0.0
C1623 C 0.94725 0.81513 0.18164 0.0
C1624 C 0.98172 0.77506 0.24564 0.0
H1625 H 0.05927 0.75922 0.2647 0.0
C1626 C 0.96629 0.75515 0.2601 0.0
C1627 C 0.01569 0.77661 0.24751 0.0
C1628 C 0.03364 0.79812 0.23362 0.0
C1629 C 0.98387 0.73653 0.27584 0.0
C1630 C 0.01784 0.73807 0.27768 0.0
C1631 C 0.03327 0.75799 0.26324 0.0
C1632 C 0.03777 0.7193 0.29463 0.0
C1633 C 0.96593 0.71504 0.28976 0.0
C1634 C 0.03403 0.7158 0.32573 0.0
C1635 C 0.05251 0.69795 0.34155 0.0
C1636 C 0.07533 0.6833 0.32667 0.0
C1637 C 0.0795 0.68715 0.29564 0.0
C1638 C 0.06097 0.70503 0.27982 0.0
H1639 H 0.94139 0.71294 0.27959 0.0
H1640 H 0.97908 0.69708 0.28707 0.0
H1641 H 0.96348 0.71864 0.31424 0.0
H1642 H 0.01683 0.72695 0.33782 0.0
H1643 H 0.04879 0.69558 0.36546 0.0
H1644 H 0.30067 0.81635 0.11484 0.0
H1645 H 0.26928 0.7847 0.08701 0.0
H1646 H 0.31602 0.80537 1.00506 0.0
H1647 H 0.34785 0.83688 0.03286 0.0
H1648 H 0.2264 0.79139 0.03898 0.0
H1649 H 0.32647 0.72931 1.00571 0.0
H1650 H 0.33129 0.75323 0.03433 0.0
H1651 H 0.33139 0.76155 0.99505 0.0
C1652 C 0.3045 0.81404 0.09094 0.0
C1653 C 0.32693 0.82906 0.07611 0.0
C1654 C 0.28645 0.79595 0.07504 0.0
C1655 C 0.29054 0.79236 0.044 0.0
C1656 C 0.31289 0.80738 0.02911 0.0
H1657 H 0.20049 0.69592 0.90769 0.0
H1658 H 0.23214 0.72739 0.93557 0.0
C1659 C 0.33098 0.82549 0.04501 0.0
C1660 C 0.27067 0.77347 0.02715 0.0
H1661 H 0.27513 0.72063 0.98362 0.0
C1662 C 0.23705 0.77585 0.02699 0.0
C1663 C 0.28454 0.75319 0.01144 0.0
C1664 C 0.32038 0.74895 0.01179 0.0
C1665 C 0.21699 0.75883 0.01117 0.0
C1666 C 0.23085 0.73855 0.99547 0.0
C1667 C 0.26447 0.73617 0.99562 0.0
C1668 C 0.21097 0.71967 0.97861 0.0
C1669 C 0.18114 0.76308 1.01081 0.0
C1670 C 0.18862 0.70466 0.99351 0.0
C1671 C 0.17038 0.68665 0.97758 0.0
C1672 C 0.17428 0.68318 0.94644 0.0
C1673 C 0.19677 0.69816 0.93162 0.0
C1674 C 0.21496 0.71614 0.94755 0.0
H1675 H 0.17505 0.78271 0.01691 0.0
H1676 H 0.17025 0.75882 0.98826 0.0
H1677 H 0.17013 0.75046 0.02753 0.0
H1678 H 0.18555 0.70662 0.01757 0.0
H1679 H 0.15347 0.6753 0.98973 0.0
H1680 H 0.05048 0.59858 0.95292 0.0
H1681 H 0.01786 0.57272 0.98592 0.0
H1682 H 0.0604 0.50583 0.94953 0.0
H1683 H 0.09345 0.53149 0.91681 0.0
H1684 H 0.97306 0.53523 0.97387 0.0
H1685 H 0.07691 0.49679 0.03982 0.0
H1686 H 0.08056 0.52317 0.01465 0.0
H1687 H 0.07906 0.49173 0.99991 0.0
C1688 C 0.05282 0.57835 0.95178 0.0
C1689 C 0.07485 0.56717 0.9323 0.0
C1690 C 0.03414 0.56358 0.97072 0.0
C1691 C 0.03715 0.53732 0.97075 0.0
C1692 C 0.05821 0.52606 0.95052 0.0
H1693 H 0.94845 0.41545 0.06955 0.0
H1694 H 0.9811 0.44149 0.03679 0.0
C1695 C 0.07693 0.5408 0.9316 0.0
C1696 C 0.01832 0.52174 0.99194 0.0
H1697 H 0.02591 0.479 0.04926 0.0
C1698 C 0.98462 0.52303 0.99044 0.0
C1699 C 0.03337 0.50578 0.01362 0.0
C1700 C 0.06946 0.50439 0.01738 0.0
C1701 C 0.9656 0.50846 1.00952 0.0
C1702 C 0.98065 0.49248 0.03117 0.0
C1703 C 0.01435 0.49121 0.03269 0.0
C1704 C 0.96183 0.4768 0.05226 0.0
C1705 C 0.92951 0.50986 1.00578 0.0
C1706 C 0.94076 0.48795 0.07257 0.0
C1707 C 0.92204 0.4731 0.09137 0.0
C1708 C 0.9241 0.44674 0.09044 0.0
C1709 C 0.94613 0.43566 0.07087 0.0
C1710 C 0.96482 0.45054 0.05206 0.0
H1711 H 0.92204 0.51758 0.9834 0.0
H1712 H 0.91843 0.49105 1.00837 0.0
H1713 H 0.9199 0.52241 0.02337 0.0
H1714 H 0.93858 0.50817 0.07372 0.0
H1715 H 0.90551 0.48232 0.10623 0.0
H1716 H 0.1572 0.53173 0.35584 0.0
H1717 H 0.19042 0.50609 0.32315 0.0
H1718 H 0.23184 0.5731 0.2861 0.0
H1719 H 0.1991 0.59889 0.31903 0.0
H1720 H 0.18978 0.50561 0.2611 0.0
H1721 H 0.3113 0.53125 0.3052 0.0
H1722 H 0.27528 0.53827 0.32537 0.0
H1723 H 0.28697 0.55774 0.29442 0.0
C1724 C 0.17371 0.54106 0.34108 0.0
C1725 C 0.1755 0.56743 0.34022 0.0
C1726 C 0.19263 0.52634 0.32229 0.0
C1727 C 0.21393 0.53759 0.30232 0.0
C1728 C 0.21611 0.5639 0.3017 0.0
H1729 H 0.3415 0.48126 0.16502 0.0
H1730 H 0.30829 0.50711 0.1975 0.0
C1731 C 0.19723 0.57866 0.32051 0.0
C1732 C 0.23262 0.52183 0.28119 0.0
H1733 H 0.30881 0.50783 0.2596 0.0
C1734 C 0.21583 0.506 0.26089 0.0
C1735 C 0.26661 0.52238 0.28077 0.0
C1736 C 0.28617 0.53813 0.30278 0.0
C1737 C 0.23198 0.49108 0.23992 0.0
C1738 C 0.26598 0.49161 0.23952 0.0
C1739 C 0.28277 0.50745 0.2598 0.0
C1740 C 0.28467 0.47574 0.21849 0.0
C1741 C 0.21243 0.47531 0.21792 0.0
C1742 C 0.28241 0.44944 0.21927 0.0
C1743 C 0.30128 0.43457 0.20059 0.0
C1744 C 0.32307 0.44567 0.18084 0.0
C1745 C 0.32493 0.47203 0.17981 0.0
C1746 C 0.30603 0.48687 0.19848 0.0
H1747 H 0.18732 0.48225 0.21543 0.0
H1748 H 0.22336 0.47511 0.19536 0.0
H1749 H 0.21153 0.45573 0.22634 0.0
H1750 H 0.26663 0.44034 0.23491 0.0
H1751 H 0.29934 0.41435 0.20221 0.0
H1752 H 0.79759 0.3184 0.11294 0.0
H1753 H 0.76607 0.28702 0.08484 0.0
H1754 H 0.81294 0.30803 1.00308 0.0
H1755 H 0.84492 0.3393 0.03116 0.0
H1756 H 0.72326 0.29388 0.03665 0.0
H1757 H 0.8236 0.2319 1.00369 0.0
H1758 H 0.82823 0.25574 0.03241 0.0
H1759 H 0.82844 0.26418 0.99317 0.0
C1760 C 0.80139 0.31626 0.08901 0.0
C1761 C 0.82393 0.33128 0.07433 0.0
C1762 C 0.78327 0.29832 0.07295 0.0
C1763 C 0.78739 0.29488 0.0419 0.0
C1764 C 0.80978 0.30994 0.02713 0.0
H1765 H 0.69792 0.19741 0.90621 0.0
H1766 H 0.72927 0.22928 0.93371 0.0
C1767 C 0.82795 0.32791 0.04319 0.0
C1768 C 0.7676 0.27599 0.02497 0.0
H1769 H 0.77228 0.22297 0.9818 0.0
C1770 C 0.73398 0.27832 0.02475 0.0
C1771 C 0.78156 0.25568 1.00939 0.0
C1772 C 0.81742 0.2515 1.00982 0.0
C1773 C 0.71399 0.26119 1.00902 0.0
C1774 C 0.72794 0.24086 0.99349 0.0
C1775 C 0.76157 0.23855 0.99366 0.0
C1776 C 0.70814 0.22181 0.97684 0.0
C1777 C 0.67813 0.26536 1.00862 0.0
C1778 C 0.6859 0.20683 0.99191 0.0
C1779 C 0.66784 0.18859 0.9762 0.0
C1780 C 0.67181 0.18486 0.94512 0.0
C1781 C 0.69416 0.19984 0.93011 0.0
C1782 C 0.71218 0.21806 0.94582 0.0
H1783 H 0.67197 0.28502 0.01451 0.0
H1784 H 0.66725 0.26092 0.98611 0.0
H1785 H 0.66716 0.25284 0.02547 0.0
H1786 H 0.68282 0.20898 0.01594 0.0
H1787 H 0.65104 0.17724 0.98848 0.0
H1788 H 0.7993 0.41481 0.70244 0.0
H1789 H 0.76613 0.44082 0.73484 0.0
H1790 H 0.8089 0.50754 0.69843 0.0
H1791 H 0.84185 0.48175 0.66574 0.0
H1792 H 0.78733 0.4741 0.77922 0.0
H1793 H 0.71351 0.52426 0.69253 0.0
H1794 H 0.73647 0.49652 0.68403 0.0
H1795 H 0.75599 0.52655 0.68709 0.0
C1796 C 0.80135 0.43503 0.70096 0.0
C1797 C 0.82325 0.44614 0.68132 0.0
C1798 C 0.78242 0.44989 0.71962 0.0
C1799 C 0.78471 0.47619 0.71893 0.0
C1800 C 0.80617 0.48734 0.69902 0.0
H1801 H 0.69936 0.59877 0.81983 0.0
H1802 H 0.73234 0.57269 0.78734 0.0
C1803 C 0.82513 0.47251 0.68036 0.0
C1804 C 0.76587 0.49188 0.74003 0.0
H1805 H 0.71081 0.53943 0.74282 0.0
C1806 C 0.77045 0.48828 0.77125 0.0
C1807 C 0.74394 0.51049 0.7297 0.0
C1808 C 0.73689 0.51459 0.69652 0.0
C1809 C 0.75418 0.50302 0.79234 0.0
C1810 C 0.73227 0.52165 0.782 0.0
C1811 C 0.72768 0.52524 0.75079 0.0
C1812 C 0.71348 0.53737 0.80311 0.0
C1813 C 0.7612 0.49891 0.82552 0.0
C1814 C 0.69193 0.52626 0.82297 0.0
C1815 C 0.67306 0.54113 0.84166 0.0
C1816 C 0.67515 0.56749 0.84081 0.0
C1817 C 0.69714 0.57855 0.82122 0.0
C1818 C 0.71597 0.56366 0.80251 0.0
H1819 H 0.78451 0.48915 0.82952 0.0
H1820 H 0.76174 0.517 0.83798 0.0
H1821 H 0.74202 0.48705 0.83495 0.0
H1822 H 0.68907 0.50607 0.82348 0.0
H1823 H 0.65627 0.53193 0.85625 0.0
H1824 H 0.45057 0.91515 0.07089 0.0
H1825 H 0.48408 0.94121 0.0389 0.0
H1826 H 0.43625 0.00759 0.07055 0.0
H1827 H 0.40295 0.98179 0.10282 0.0
H1828 H 0.46362 0.97271 0.99236 0.0
H1829 H 0.53048 0.02717 0.0802 0.0
H1830 H 0.50839 0.99902 0.0887 0.0
H1831 H 0.48764 0.02838 0.08361 0.0
C1832 C 0.44744 0.93532 0.0714 0.0
C1833 C 0.42407 0.94633 0.08959 0.0
C1834 C 0.46659 0.9502 0.05299 0.0
C1835 C 0.463 0.97642 0.0525 0.0
C1836 C 0.43998 0.98748 0.07093 0.0
H1837 H 0.54817 0.09868 0.95108 0.0
H1838 H 0.51467 0.07263 0.98311 0.0
C1839 C 0.42083 0.97264 0.08933 0.0
C1840 C 0.48219 0.99208 0.03171 0.0
H1841 H 0.53508 0.04112 0.02961 0.0
C1842 C 0.47939 0.98757 1.00053 0.0
C1843 C 0.50267 0.01159 0.0423 0.0
C1844 C 0.50778 0.01674 0.07554 0.0
C1845 C 0.49602 1.00225 0.97967 0.0
C1846 C 0.51651 0.02174 0.99025 0.0
C1847 C 0.5193 0.02626 0.02144 0.0
C1848 C 0.5357 0.0374 0.96946 0.0
C1849 C 0.49089 0.9971 0.94643 0.0
C1850 C 0.55868 0.02634 0.951 0.0
C1851 C 0.57782 0.04118 0.93258 0.0
C1852 C 0.5746 0.06748 0.93233 0.0
C1853 C 0.55127 0.0785 0.95057 0.0
C1854 C 0.53214 0.06363 0.969 0.0
H1855 H 0.46818 0.98669 0.94177 0.0
H1856 H 0.4903 0.01482 0.93326 0.0
H1857 H 0.51101 0.98544 0.93835 0.0
H1858 H 0.56239 1.00623 0.95136 0.0
H1859 H 0.59566 0.03201 0.91905 0.0
H1860 H 0.44992 0.31736 0.15804 0.0
H1861 H 0.48137 0.28589 0.18604 0.0
H1862 H 0.43341 0.30608 0.26757 0.0
H1863 H 0.40152 0.33742 0.23959 0.0
H1864 H 0.5236 0.29269 0.23466 0.0
H1865 H 0.4236 0.22991 0.26613 0.0
H1866 H 0.41898 0.2539 0.23762 0.0
H1867 H 0.41827 0.26209 0.27693 0.0
C1868 C 0.44586 0.315 0.18189 0.0
C1869 C 0.42305 0.32983 0.19654 0.0
C1870 C 0.46394 0.29701 0.19789 0.0
C1871 C 0.45951 0.29333 0.22885 0.0
C1872 C 0.43682 0.30818 0.24358 0.0
H1873 H 0.54863 0.19609 0.36476 0.0
H1874 H 0.51714 0.22776 0.33709 0.0
C1875 C 0.4187 0.32619 0.22758 0.0
C1876 C 0.47932 0.27446 0.24577 0.0
H1877 H 0.47477 0.22127 0.28853 0.0
C1878 C 0.51293 0.27701 0.24633 0.0
C1879 C 0.46543 0.25401 0.26106 0.0
C1880 C 0.42962 0.24959 0.26026 0.0
C1881 C 0.53294 0.25997 0.26214 0.0
C1882 C 0.51905 0.2395 0.27741 0.0
C1883 C 0.48544 0.23696 0.27687 0.0
C1884 C 0.53889 0.22054 0.29416 0.0
C1885 C 0.56875 0.26438 0.26293 0.0
C1886 C 0.56152 0.20577 0.27926 0.0
C1887 C 0.57966 0.18765 0.29507 0.0
C1888 C 0.57538 0.18384 0.32609 0.0
C1889 C 0.55264 0.1986 0.34092 0.0
C1890 C 0.53454 0.21669 0.32511 0.0
H1891 H 0.57475 0.2841 0.25721 0.0
H1892 H 0.57943 0.25996 0.28552 0.0
H1893 H 0.58007 0.25198 0.24613 0.0
H1894 H 0.56485 0.20799 0.25528 0.0
H1895 H 0.59677 0.17647 0.28292 0.0
H1896 H 0.40452 0.83838 0.73908 0.0
H1897 H 0.43682 0.8069 0.76648 0.0
H1898 H 0.48248 0.78629 0.68391 0.0
H1899 H 0.45066 0.81787 0.6565 0.0
H1900 H 0.44059 0.75514 0.75809 0.0
H1901 H 0.55928 0.79938 0.74075 0.0
H1902 H 0.5219 0.81579 0.73369 0.0
H1903 H 0.53644 0.79377 0.7065 0.0
C1904 C 0.42147 0.82717 0.72676 0.0
C1905 C 0.42511 0.83074 0.69562 0.0
C1906 C 0.43992 0.80917 0.74246 0.0
C1907 C 0.46252 0.7945 0.72739 0.0
C1908 C 0.46577 0.79775 0.6962 0.0
H1909 H 0.59581 0.67531 0.782 0.0
H1910 H 0.56364 0.70664 0.75414 0.0
C1911 C 0.44736 0.81572 0.6805 0.0
C1912 C 0.48229 0.77551 0.74418 0.0
H1913 H 0.55972 0.75853 0.76206 0.0
C1914 C 0.46663 0.75595 0.75909 0.0
C1915 C 0.5163 0.7765 0.74541 0.0
C1916 C 0.53453 0.7976 0.73098 0.0
C1917 C 0.48401 0.73716 0.77472 0.0
C1918 C 0.51802 0.73817 0.77599 0.0
C1919 C 0.53368 0.75771 0.76105 0.0
C1920 C 0.53775 0.7193 0.793 0.0
C1921 C 0.46577 0.71608 0.78917 0.0
C1922 C 0.53436 0.71627 0.82421 0.0
C1923 C 0.55268 0.69839 0.84015 0.0
C1924 C 0.575 0.68325 0.82528 0.0
C1925 C 0.5788 0.68662 0.79412 0.0
C1926 C 0.56043 0.70453 0.77817 0.0
H1927 H 0.44108 0.71422 0.7793 0.0
H1928 H 0.47848 0.6979 0.78661 0.0
H1929 H 0.46371 0.71999 0.81362 0.0
H1930 H 0.51759 0.72781 0.83631 0.0
H1931 H 0.54925 0.69641 0.86416 0.0
H1932 H 0.55046 0.5984 0.45256 0.0
H1933 H 0.51776 0.57231 0.48521 0.0
H1934 H 0.56073 0.50569 0.44858 0.0
H1935 H 0.59387 0.53159 0.41619 0.0
H1936 H 0.47316 0.53472 0.47268 0.0
H1937 H 0.57689 0.49637 0.53892 0.0
H1938 H 0.58053 0.52286 0.51392 0.0
H1939 H 0.57921 0.49148 0.49898 0.0
C1940 C 0.55287 0.57819 0.45128 0.0
C1941 C 0.57505 0.56714 0.43184 0.0
C1942 C 0.53414 0.56328 0.47003 0.0
C1943 C 0.53725 0.53703 0.46989 0.0
C1944 C 0.55846 0.52592 0.44969 0.0
H1945 H 0.44849 0.41514 0.56895 0.0
H1946 H 0.48116 0.44102 0.53602 0.0
C1947 C 0.57722 0.54079 0.43096 0.0
C1948 C 0.51839 0.52132 0.49092 0.0
H1949 H 0.52589 0.4786 0.54826 0.0
C1950 C 0.48469 0.52253 0.48928 0.0
C1951 C 0.53341 0.50537 0.51263 0.0
C1952 C 0.56949 0.50404 0.51651 0.0
C1953 C 0.46564 0.50793 0.50829 0.0
C1954 C 0.48065 0.492 0.53002 0.0
C1955 C 0.51436 0.49077 0.53164 0.0
C1956 C 0.46179 0.47641 0.55116 0.0
C1957 C 0.42956 0.50926 0.50441 0.0
C1958 C 0.44066 0.48764 0.57133 0.0
C1959 C 0.42193 0.47289 0.59022 0.0
C1960 C 0.42405 0.44653 0.58953 0.0
C1961 C 0.44613 0.43536 0.57009 0.0
C1962 C 0.46483 0.45015 0.55118 0.0
H1963 H 0.42217 0.51686 0.48196 0.0
H1964 H 0.4185 0.49046 0.5071 0.0
H1965 H 0.41985 0.5219 0.52187 0.0
H1966 H 0.43845 0.50788 0.57232 0.0
H1967 H 0.40537 0.48219 0.60498 0.0
loop_
_geom_bond_atom_site_label_1
_geom_bond_atom_site_label_2
_geom_bond_distance
_geom_bond_site_symmetry_2
_ccdc_geom_bond_type
Co0 N4 2.148 . S
Co0 N10 2.128 . S
Co0 N20 2.194 . S
Co0 O25 2.351 . S
Co0 O26 2.155 . S
Co0 O27 2.096 . S
C1 N4 1.301 . S
C1 N5 1.328 . S
C1 H6 0.930 . S
C2 C3 1.333 . S
C2 N4 1.317 . S
C2 H7 0.930 . S
C3 C2 1.333 . S
C3 N5 1.350 . S
C3 H29 0.931 . S
N4 Co0 2.148 . S
N4 C1 1.301 . S
N4 C2 1.317 . S
N5 C1 1.328 . S
N5 C3 1.350 . S
H6 C1 0.930 . S
H7 C2 0.930 . S
C8 O9 1.224 . S
C8 O27 1.247 . S
O9 C8 1.224 . S
N10 Co0 2.128 . S
N10 C11 1.355 . S
N10 C13 1.311 . S
C11 N10 1.355 . S
C11 C12 1.363 . S
C11 H23 0.929 . S
C12 C11 1.363 . S
C12 N14 1.375 . S
C12 H30 0.931 . S
C13 N10 1.311 . S
C13 N14 1.347 . S
C13 H24 0.929 . S
N14 C12 1.375 . S
N14 C13 1.347 . S
C15 C18 1.365 . S
C15 N20 1.328 . S
C15 H21 0.929 . S
C16 C17 1.362 . S
C16 C19 1.378 . S
C16 H31 0.929 . S
C17 C16 1.362 . S
C17 C18 1.366 . S
C18 C15 1.365 . S
C18 C17 1.366 . S
C18 H32 0.930 . S
C19 C16 1.378 . S
C19 N20 1.315 . S
C19 H22 0.930 . S
N20 Co0 2.194 . S
N20 C15 1.328 . S
N20 C19 1.315 . S
H21 C15 0.929 . S
H22 C19 0.930 . S
H23 C11 0.929 . S
H24 C13 0.929 . S
O25 Co0 2.351 . S
O25 C28 1.244 . S
O26 Co0 2.155 . S
O26 C28 1.240 . S
O27 Co0 2.096 . S
O27 C8 1.247 . S
C28 O25 1.244 . S
C28 O26 1.240 . S
H29 C3 0.931 . S
H30 C12 0.931 . S
H31 C16 0.929 . S
H32 C18 0.930 . S
Co33 N37 2.148 . S
Co33 N43 2.128 . S
Co33 N53 2.194 . S
Co33 O58 2.351 . S
Co33 O59 2.155 . S
Co33 O60 2.096 . S
C34 N37 1.301 . S
C34 N38 1.328 . S
C34 H39 0.930 . S
C35 C36 1.333 . S
C35 N37 1.317 . S
C35 H40 0.930 . S
C36 C35 1.333 . S
C36 N38 1.350 . S
C36 H62 0.931 . S
N37 Co33 2.148 . S
N37 C34 1.301 . S
N37 C35 1.317 . S
N38 C34 1.328 . S
N38 C36 1.350 . S
H39 C34 0.930 . S
H40 C35 0.930 . S
C41 O42 1.224 . S
C41 O60 1.247 . S
O42 C41 1.224 . S
N43 Co33 2.128 . S
N43 C44 1.355 . S
N43 C46 1.311 . S
C44 N43 1.355 . S
C44 C45 1.363 . S
C44 H56 0.929 . S
C45 C44 1.363 . S
C45 N47 1.375 . S
C45 H63 0.931 . S
C46 N43 1.311 . S
C46 N47 1.347 . S
C46 H57 0.929 . S
N47 C45 1.375 . S
N47 C46 1.347 . S
C48 C51 1.365 . S
C48 N53 1.328 . S
C48 H54 0.929 . S
C49 C50 1.362 . S
C49 C52 1.378 . S
C49 H64 0.929 . S
C50 C49 1.362 . S
C50 C51 1.366 . S
C51 C48 1.365 . S
C51 C50 1.366 . S
C51 H65 0.930 . S
C52 C49 1.378 . S
C52 N53 1.315 . S
C52 H55 0.930 . S
N53 Co33 2.194 . S
N53 C48 1.328 . S
N53 C52 1.315 . S
H54 C48 0.929 . S
H55 C52 0.930 . S
H56 C44 0.929 . S
H57 C46 0.929 . S
O58 Co33 2.351 . S
O58 C61 1.244 . S
O59 Co33 2.155 . S
O59 C61 1.240 . S
O60 Co33 2.096 . S
O60 C41 1.247 . S
C61 O58 1.244 . S
C61 O59 1.240 . S
H62 C36 0.931 . S
H63 C45 0.931 . S
H64 C49 0.929 . S
H65 C51 0.930 . S
Co66 N70 2.148 . S
Co66 N76 2.128 . S
Co66 N86 2.194 . S
Co66 O91 2.351 . S
Co66 O92 2.155 . S
Co66 O93 2.096 . S
C67 N70 1.301 . S
C67 N71 1.328 . S
C67 H72 0.930 . S
C68 C69 1.333 . S
C68 N70 1.317 . S
C68 H73 0.930 . S
C69 C68 1.333 . S
C69 N71 1.350 . S
C69 H95 0.931 . S
N70 Co66 2.148 . S
N70 C67 1.301 . S
N70 C68 1.317 . S
N71 C67 1.328 . S
N71 C69 1.350 . S
H72 C67 0.930 . S
H73 C68 0.930 . S
C74 O75 1.224 . S
C74 O93 1.247 . S
O75 C74 1.224 . S
N76 Co66 2.128 . S
N76 C77 1.355 . S
N76 C79 1.311 . S
C77 N76 1.355 . S
C77 C78 1.363 . S
C77 H89 0.929 . S
C78 C77 1.363 . S
C78 N80 1.375 . S
C78 H96 0.931 . S
C79 N76 1.311 . S
C79 N80 1.347 . S
C79 H90 0.929 . S
N80 C78 1.375 . S
N80 C79 1.347 . S
C81 C84 1.365 . S
C81 N86 1.328 . S
C81 H87 0.929 . S
C82 C83 1.362 . S
C82 C85 1.378 . S
C82 H97 0.929 . S
C83 C82 1.362 . S
C83 C84 1.366 . S
C84 C81 1.365 . S
C84 C83 1.366 . S
C84 H98 0.930 . S
C85 C82 1.378 . S
C85 N86 1.315 . S
C85 H88 0.930 . S
N86 Co66 2.194 . S
N86 C81 1.328 . S
N86 C85 1.315 . S
H87 C81 0.929 . S
H88 C85 0.930 . S
H89 C77 0.929 . S
H90 C79 0.929 . S
O91 Co66 2.351 . S
O91 C94 1.244 . S
O92 Co66 2.155 . S
O92 C94 1.240 . S
O93 Co66 2.096 . S
O93 C74 1.247 . S
C94 O91 1.244 . S
C94 O92 1.240 . S
H95 C69 0.931 . S
H96 C78 0.931 . S
H97 C82 0.929 . S
H98 C84 0.930 . S
Co99 N103 2.148 . S
Co99 N109 2.128 . S
Co99 N119 2.194 . S
Co99 O124 2.351 . S
Co99 O125 2.155 . S
Co99 O126 2.096 . S
C100 N103 1.301 . S
C100 N104 1.328 . S
C100 H105 0.930 . S
C101 C102 1.333 . S
C101 N103 1.317 . S
C101 H106 0.930 . S
C102 C101 1.333 . S
C102 N104 1.350 . S
C102 H128 0.931 . S
N103 Co99 2.148 . S
N103 C100 1.301 . S
N103 C101 1.317 . S
N104 C100 1.328 . S
N104 C102 1.350 . S
H105 C100 0.930 . S
H106 C101 0.930 . S
C107 O108 1.224 . S
C107 O126 1.247 . S
O108 C107 1.224 . S
N109 Co99 2.128 . S
N109 C110 1.355 . S
N109 C112 1.311 . S
C110 N109 1.355 . S
C110 C111 1.363 . S
C110 H122 0.929 . S
C111 C110 1.363 . S
C111 N113 1.375 . S
C111 H129 0.931 . S
C112 N109 1.311 . S
C112 N113 1.347 . S
C112 H123 0.929 . S
N113 C111 1.375 . S
N113 C112 1.347 . S
C114 C117 1.365 . S
C114 N119 1.328 . S
C114 H120 0.929 . S
C115 C116 1.362 . S
C115 C118 1.378 . S
C115 H130 0.929 . S
C116 C115 1.362 . S
C116 C117 1.366 . S
C117 C114 1.365 . S
C117 C116 1.366 . S
C117 H131 0.930 . S
C118 C115 1.378 . S
C118 N119 1.315 . S
C118 H121 0.930 . S
N119 Co99 2.194 . S
N119 C114 1.328 . S
N119 C118 1.315 . S
H120 C114 0.929 . S
H121 C118 0.930 . S
H122 C110 0.929 . S
H123 C112 0.929 . S
O124 Co99 2.351 . S
O124 C127 1.244 . S
O125 Co99 2.155 . S
O125 C127 1.240 . S
O126 Co99 2.096 . S
O126 C107 1.247 . S
C127 O124 1.244 . S
C127 O125 1.240 . S
H128 C102 0.931 . S
H129 C111 0.931 . S
H130 C115 0.929 . S
H131 C117 0.930 . S
Co132 N136 2.148 . S
Co132 N142 2.128 . S
Co132 N152 2.194 . S
Co132 O157 2.351 . S
Co132 O158 2.155 . S
Co132 O159 2.096 . S
C133 N136 1.301 . S
C133 N137 1.328 . S
C133 H138 0.930 . S
C134 C135 1.333 . S
C134 N136 1.317 . S
C134 H139 0.930 . S
C135 C134 1.333 . S
C135 N137 1.350 . S
C135 H161 0.931 . S
N136 Co132 2.148 . S
N136 C133 1.301 . S
N136 C134 1.317 . S
N137 C133 1.328 . S
N137 C135 1.350 . S
H138 C133 0.930 . S
H139 C134 0.930 . S
C140 O141 1.224 . S
C140 O159 1.247 . S
O141 C140 1.224 . S
N142 Co132 2.128 . S
N142 C143 1.355 . S
N142 C145 1.311 . S
C143 N142 1.355 . S
C143 C144 1.363 . S
C143 H155 0.929 . S
C144 C143 1.363 . S
C144 N146 1.375 . S
C144 H162 0.931 . S
C145 N142 1.311 . S
C145 N146 1.347 . S
C145 H156 0.929 . S
N146 C144 1.375 . S
N146 C145 1.347 . S
C147 C150 1.365 . S
C147 N152 1.328 . S
C147 H153 0.929 . S
C148 C149 1.362 . S
C148 C151 1.378 . S
C148 H163 0.929 . S
C149 C148 1.362 . S
C149 C150 1.366 . S
C150 C147 1.365 . S
C150 C149 1.366 . S
C150 H164 0.930 . S
C151 C148 1.378 . S
C151 N152 1.315 . S
C151 H154 0.930 . S
N152 Co132 2.194 . S
N152 C147 1.328 . S
N152 C151 1.315 . S
H153 C147 0.929 . S
H154 C151 0.930 . S
H155 C143 0.929 . S
H156 C145 0.929 . S
O157 Co132 2.351 . S
O157 C160 1.244 . S
O158 Co132 2.155 . S
O158 C160 1.240 . S
O159 Co132 2.096 . S
O159 C140 1.247 . S
C160 O157 1.244 . S
C160 O158 1.240 . S
H161 C135 0.931 . S
H162 C144 0.931 . S
H163 C148 0.929 . S
H164 C150 0.930 . S
Co165 N169 2.148 . S
Co165 N175 2.128 . S
Co165 N185 2.194 . S
Co165 O190 2.351 . S
Co165 O191 2.155 . S
Co165 O192 2.096 . S
C166 N169 1.301 . S
C166 N170 1.328 . S
C166 H171 0.930 . S
C167 C168 1.333 . S
C167 N169 1.317 . S
C167 H172 0.930 . S
C168 C167 1.333 . S
C168 N170 1.350 . S
C168 H194 0.931 . S
N169 Co165 2.148 . S
N169 C166 1.301 . S
N169 C167 1.317 . S
N170 C166 1.328 . S
N170 C168 1.350 . S
H171 C166 0.930 . S
H172 C167 0.930 . S
C173 O174 1.224 . S
C173 O192 1.247 . S
O174 C173 1.224 . S
N175 Co165 2.128 . S
N175 C176 1.355 . S
N175 C178 1.311 . S
C176 N175 1.355 . S
C176 C177 1.363 . S
C176 H188 0.929 . S
C177 C176 1.363 . S
C177 N179 1.375 . S
C177 H195 0.931 . S
C178 N175 1.311 . S
C178 N179 1.347 . S
C178 H189 0.929 . S
N179 C177 1.375 . S
N179 C178 1.347 . S
C180 C183 1.365 . S
C180 N185 1.328 . S
C180 H186 0.929 . S
C181 C182 1.362 . S
C181 C184 1.378 . S
C181 H196 0.929 . S
C182 C181 1.362 . S
C182 C183 1.366 . S
C183 C180 1.365 . S
C183 C182 1.366 . S
C183 H197 0.930 . S
C184 C181 1.378 . S
C184 N185 1.315 . S
C184 H187 0.930 . S
N185 Co165 2.194 . S
N185 C180 1.328 . S
N185 C184 1.315 . S
H186 C180 0.929 . S
H187 C184 0.930 . S
H188 C176 0.929 . S
H189 C178 0.929 . S
O190 Co165 2.351 . S
O190 C193 1.244 . S
O191 Co165 2.155 . S
O191 C193 1.240 . S
O192 Co165 2.096 . S
O192 C173 1.247 . S
C193 O190 1.244 . S
C193 O191 1.240 . S
H194 C168 0.931 . S
H195 C177 0.931 . S
H196 C181 0.929 . S
H197 C183 0.930 . S
Co198 N202 2.148 . S
Co198 N208 2.128 . S
Co198 N218 2.194 . S
Co198 O223 2.351 . S
Co198 O224 2.155 . S
Co198 O225 2.096 . S
C199 N202 1.301 . S
C199 N203 1.328 . S
C199 H204 0.930 . S
C200 C201 1.333 . S
C200 N202 1.317 . S
C200 H205 0.930 . S
C201 C200 1.333 . S
C201 N203 1.350 . S
C201 H227 0.931 . S
N202 Co198 2.148 . S
N202 C199 1.301 . S
N202 C200 1.317 . S
N203 C199 1.328 . S
N203 C201 1.350 . S
H204 C199 0.930 . S
H205 C200 0.930 . S
C206 O207 1.224 . S
C206 O225 1.247 . S
O207 C206 1.224 . S
N208 Co198 2.128 . S
N208 C209 1.355 . S
N208 C211 1.311 . S
C209 N208 1.355 . S
C209 C210 1.363 . S
C209 H221 0.929 . S
C210 C209 1.363 . S
C210 N212 1.375 . S
C210 H228 0.931 . S
C211 N208 1.311 . S
C211 N212 1.347 . S
C211 H222 0.929 . S
N212 C210 1.375 . S
N212 C211 1.347 . S
C213 C216 1.365 . S
C213 N218 1.328 . S
C213 H219 0.929 . S
C214 C215 1.362 . S
C214 C217 1.378 . S
C214 H229 0.929 . S
C215 C214 1.362 . S
C215 C216 1.366 . S
C216 C213 1.365 . S
C216 C215 1.366 . S
C216 H230 0.930 . S
C217 C214 1.378 . S
C217 N218 1.315 . S
C217 H220 0.930 . S
N218 Co198 2.194 . S
N218 C213 1.328 . S
N218 C217 1.315 . S
H219 C213 0.929 . S
H220 C217 0.930 . S
H221 C209 0.929 . S
H222 C211 0.929 . S
O223 Co198 2.351 . S
O223 C226 1.244 . S
O224 Co198 2.155 . S
O224 C226 1.240 . S
O225 Co198 2.096 . S
O225 C206 1.247 . S
C226 O223 1.244 . S
C226 O224 1.240 . S
H227 C201 0.931 . S
H228 C210 0.931 . S
H229 C214 0.929 . S
H230 C216 0.930 . S
Co231 N235 2.148 . S
Co231 N241 2.128 . S
Co231 N251 2.194 . S
Co231 O256 2.351 . S
Co231 O257 2.155 . S
Co231 O258 2.096 . S
C232 N235 1.301 . S
C232 N236 1.328 . S
C232 H237 0.930 . S
C233 C234 1.333 . S
C233 N235 1.317 . S
C233 H238 0.930 . S
C234 C233 1.333 . S
C234 N236 1.350 . S
C234 H260 0.931 . S
N235 Co231 2.148 . S
N235 C232 1.301 . S
N235 C233 1.317 . S
N236 C232 1.328 . S
N236 C234 1.350 . S
H237 C232 0.930 . S
H238 C233 0.930 . S
C239 O240 1.224 . S
C239 O258 1.247 . S
O240 C239 1.224 . S
N241 Co231 2.128 . S
N241 C242 1.355 . S
N241 C244 1.311 . S
C242 N241 1.355 . S
C242 C243 1.363 . S
C242 H254 0.929 . S
C243 C242 1.363 . S
C243 N245 1.375 . S
C243 H261 0.931 . S
C244 N241 1.311 . S
C244 N245 1.347 . S
C244 H255 0.929 . S
N245 C243 1.375 . S
N245 C244 1.347 . S
C246 C249 1.365 . S
C246 N251 1.328 . S
C246 H252 0.929 . S
C247 C248 1.362 . S
C247 C250 1.378 . S
C247 H262 0.929 . S
C248 C247 1.362 . S
C248 C249 1.366 . S
C249 C246 1.365 . S
C249 C248 1.366 . S
C249 H263 0.930 . S
C250 C247 1.378 . S
C250 N251 1.315 . S
C250 H253 0.930 . S
N251 Co231 2.194 . S
N251 C246 1.328 . S
N251 C250 1.315 . S
H252 C246 0.929 . S
H253 C250 0.930 . S
H254 C242 0.929 . S
H255 C244 0.929 . S
O256 Co231 2.351 . S
O256 C259 1.244 . S
O257 Co231 2.155 . S
O257 C259 1.240 . S
O258 Co231 2.096 . S
O258 C239 1.247 . S
C259 O256 1.244 . S
C259 O257 1.240 . S
H260 C234 0.931 . S
H261 C243 0.931 . S
H262 C247 0.929 . S
H263 C249 0.930 . S
Co264 N268 2.148 . S
Co264 N274 2.128 . S
Co264 N284 2.194 . S
Co264 O289 2.351 . S
Co264 O290 2.155 . S
Co264 O291 2.096 . S
C265 N268 1.301 . S
C265 N269 1.328 . S
C265 H270 0.930 . S
C266 C267 1.333 . S
C266 N268 1.317 . S
C266 H271 0.930 . S
C267 C266 1.333 . S
C267 N269 1.350 . S
C267 H293 0.931 . S
N268 Co264 2.148 . S
N268 C265 1.301 . S
N268 C266 1.317 . S
N269 C265 1.328 . S
N269 C267 1.350 . S
H270 C265 0.930 . S
H271 C266 0.930 . S
C272 O273 1.224 . S
C272 O291 1.247 . S
O273 C272 1.224 . S
N274 Co264 2.128 . S
N274 C275 1.355 . S
N274 C277 1.311 . S
C275 N274 1.355 . S
C275 C276 1.363 . S
C275 H287 0.929 . S
C276 C275 1.363 . S
C276 N278 1.375 . S
C276 H294 0.931 . S
C277 N274 1.311 . S
C277 N278 1.347 . S
C277 H288 0.929 . S
N278 C276 1.375 . S
N278 C277 1.347 . S
C279 C282 1.365 . S
C279 N284 1.328 . S
C279 H285 0.929 . S
C280 C281 1.362 . S
C280 C283 1.378 . S
C280 H295 0.929 . S
C281 C280 1.362 . S
C281 C282 1.366 . S
C282 C279 1.365 . S
C282 C281 1.366 . S
C282 H296 0.930 . S
C283 C280 1.378 . S
C283 N284 1.315 . S
C283 H286 0.930 . S
N284 Co264 2.194 . S
N284 C279 1.328 . S
N284 C283 1.315 . S
H285 C279 0.929 . S
H286 C283 0.930 . S
H287 C275 0.929 . S
H288 C277 0.929 . S
O289 Co264 2.351 . S
O289 C292 1.244 . S
O290 Co264 2.155 . S
O290 C292 1.240 . S
O291 Co264 2.096 . S
O291 C272 1.247 . S
C292 O289 1.244 . S
C292 O290 1.240 . S
H293 C267 0.931 . S
H294 C276 0.931 . S
H295 C280 0.929 . S
H296 C282 0.930 . S
Co297 N301 2.148 . S
Co297 N307 2.128 . S
Co297 N317 2.194 . S
Co297 O322 2.351 . S
Co297 O323 2.155 . S
Co297 O324 2.096 . S
C298 N301 1.301 . S
C298 N302 1.328 . S
C298 H303 0.930 . S
C299 C300 1.333 . S
C299 N301 1.317 . S
C299 H304 0.930 . S
C300 C299 1.333 . S
C300 N302 1.350 . S
C300 H326 0.931 . S
N301 Co297 2.148 . S
N301 C298 1.301 . S
N301 C299 1.317 . S
N302 C298 1.328 . S
N302 C300 1.350 . S
H303 C298 0.930 . S
H304 C299 0.930 . S
C305 O306 1.224 . S
C305 O324 1.247 . S
O306 C305 1.224 . S
N307 Co297 2.128 . S
N307 C308 1.355 . S
N307 C310 1.311 . S
C308 N307 1.355 . S
C308 C309 1.363 . S
C308 H320 0.929 . S
C309 C308 1.363 . S
C309 N311 1.375 . S
C309 H327 0.931 . S
C310 N307 1.311 . S
C310 N311 1.347 . S
C310 H321 0.929 . S
N311 C309 1.375 . S
N311 C310 1.347 . S
C312 C315 1.365 . S
C312 N317 1.328 . S
C312 H318 0.929 . S
C313 C314 1.362 . S
C313 C316 1.378 . S
C313 H328 0.929 . S
C314 C313 1.362 . S
C314 C315 1.366 . S
C315 C312 1.365 . S
C315 C314 1.366 . S
C315 H329 0.930 . S
C316 C313 1.378 . S
C316 N317 1.315 . S
C316 H319 0.930 . S
N317 Co297 2.194 . S
N317 C312 1.328 . S
N317 C316 1.315 . S
H318 C312 0.929 . S
H319 C316 0.930 . S
H320 C308 0.929 . S
H321 C310 0.929 . S
O322 Co297 2.351 . S
O322 C325 1.244 . S
O323 Co297 2.155 . S
O323 C325 1.240 . S
O324 Co297 2.096 . S
O324 C305 1.247 . S
C325 O322 1.244 . S
C325 O323 1.240 . S
H326 C300 0.931 . S
H327 C309 0.931 . S
H328 C313 0.929 . S
H329 C315 0.930 . S
Co330 N334 2.148 . S
Co330 N340 2.128 . S
Co330 N350 2.194 . S
Co330 O355 2.351 . S
Co330 O356 2.155 . S
Co330 O357 2.096 . S
C331 N334 1.301 . S
C331 N335 1.328 . S
C331 H336 0.930 . S
C332 C333 1.333 . S
C332 N334 1.317 . S
C332 H337 0.930 . S
C333 C332 1.333 . S
C333 N335 1.350 . S
C333 H359 0.931 . S
N334 Co330 2.148 . S
N334 C331 1.301 . S
N334 C332 1.317 . S
N335 C331 1.328 . S
N335 C333 1.350 . S
H336 C331 0.930 . S
H337 C332 0.930 . S
C338 O339 1.224 . S
C338 O357 1.247 . S
O339 C338 1.224 . S
N340 Co330 2.128 . S
N340 C341 1.355 . S
N340 C343 1.311 . S
C341 N340 1.355 . S
C341 C342 1.363 . S
C341 H353 0.929 . S
C342 C341 1.363 . S
C342 N344 1.375 . S
C342 H360 0.931 . S
C343 N340 1.311 . S
C343 N344 1.347 . S
C343 H354 0.929 . S
N344 C342 1.375 . S
N344 C343 1.347 . S
C345 C348 1.365 . S
C345 N350 1.328 . S
C345 H351 0.929 . S
C346 C347 1.362 . S
C346 C349 1.378 . S
C346 H361 0.929 . S
C347 C346 1.362 . S
C347 C348 1.366 . S
C348 C345 1.365 . S
C348 C347 1.366 . S
C348 H362 0.930 . S
C349 C346 1.378 . S
C349 N350 1.315 . S
C349 H352 0.930 . S
N350 Co330 2.194 . S
N350 C345 1.328 . S
N350 C349 1.315 . S
H351 C345 0.929 . S
H352 C349 0.930 . S
H353 C341 0.929 . S
H354 C343 0.929 . S
O355 Co330 2.351 . S
O355 C358 1.244 . S
O356 Co330 2.155 . S
O356 C358 1.240 . S
O357 Co330 2.096 . S
O357 C338 1.247 . S
C358 O355 1.244 . S
C358 O356 1.240 . S
H359 C333 0.931 . S
H360 C342 0.931 . S
H361 C346 0.929 . S
H362 C348 0.930 . S
Co363 N367 2.148 . S
Co363 N373 2.128 . S
Co363 N383 2.194 . S
Co363 O388 2.351 . S
Co363 O389 2.155 . S
Co363 O390 2.096 . S
C364 N367 1.301 . S
C364 N368 1.328 . S
C364 H369 0.930 . S
C365 C366 1.333 . S
C365 N367 1.317 . S
C365 H370 0.930 . S
C366 C365 1.333 . S
C366 N368 1.350 . S
C366 H392 0.931 . S
N367 Co363 2.148 . S
N367 C364 1.301 . S
N367 C365 1.317 . S
N368 C364 1.328 . S
N368 C366 1.350 . S
H369 C364 0.930 . S
H370 C365 0.930 . S
C371 O372 1.224 . S
C371 O390 1.247 . S
O372 C371 1.224 . S
N373 Co363 2.128 . S
N373 C374 1.355 . S
N373 C376 1.311 . S
C374 N373 1.355 . S
C374 C375 1.363 . S
C374 H386 0.929 . S
C375 C374 1.363 . S
C375 N377 1.375 . S
C375 H393 0.931 . S
C376 N373 1.311 . S
C376 N377 1.347 . S
C376 H387 0.929 . S
N377 C375 1.375 . S
N377 C376 1.347 . S
C378 C381 1.365 . S
C378 N383 1.328 . S
C378 H384 0.929 . S
C379 C380 1.362 . S
C379 C382 1.378 . S
C379 H394 0.929 . S
C380 C379 1.362 . S
C380 C381 1.366 . S
C381 C378 1.365 . S
C381 C380 1.366 . S
C381 H395 0.930 . S
C382 C379 1.378 . S
C382 N383 1.315 . S
C382 H385 0.930 . S
N383 Co363 2.194 . S
N383 C378 1.328 . S
N383 C382 1.315 . S
H384 C378 0.929 . S
H385 C382 0.930 . S
H386 C374 0.929 . S
H387 C376 0.929 . S
O388 Co363 2.351 . S
O388 C391 1.244 . S
O389 Co363 2.155 . S
O389 C391 1.240 . S
O390 Co363 2.096 . S
O390 C371 1.247 . S
C391 O388 1.244 . S
C391 O389 1.240 . S
H392 C366 0.931 . S
H393 C375 0.931 . S
H394 C379 0.929 . S
H395 C381 0.930 . S
Co396 N400 2.148 . S
Co396 N406 2.128 . S
Co396 N416 2.194 . S
Co396 O421 2.351 . S
Co396 O422 2.155 . S
Co396 O423 2.096 . S
C397 N400 1.301 . S
C397 N401 1.328 . S
C397 H402 0.930 . S
C398 C399 1.333 . S
C398 N400 1.317 . S
C398 H403 0.930 . S
C399 C398 1.333 . S
C399 N401 1.350 . S
C399 H425 0.931 . S
N400 Co396 2.148 . S
N400 C397 1.301 . S
N400 C398 1.317 . S
N401 C397 1.328 . S
N401 C399 1.350 . S
H402 C397 0.930 . S
H403 C398 0.930 . S
C404 O405 1.224 . S
C404 O423 1.247 . S
O405 C404 1.224 . S
N406 Co396 2.128 . S
N406 C407 1.355 . S
N406 C409 1.311 . S
C407 N406 1.355 . S
C407 C408 1.363 . S
C407 H419 0.929 . S
C408 C407 1.363 . S
C408 N410 1.375 . S
C408 H426 0.931 . S
C409 N406 1.311 . S
C409 N410 1.347 . S
C409 H420 0.929 . S
N410 C408 1.375 . S
N410 C409 1.347 . S
C411 C414 1.365 . S
C411 N416 1.328 . S
C411 H417 0.929 . S
C412 C413 1.362 . S
C412 C415 1.378 . S
C412 H427 0.929 . S
C413 C412 1.362 . S
C413 C414 1.366 . S
C414 C411 1.365 . S
C414 C413 1.366 . S
C414 H428 0.930 . S
C415 C412 1.378 . S
C415 N416 1.315 . S
C415 H418 0.930 . S
N416 Co396 2.194 . S
N416 C411 1.328 . S
N416 C415 1.315 . S
H417 C411 0.929 . S
H418 C415 0.930 . S
H419 C407 0.929 . S
H420 C409 0.929 . S
O421 Co396 2.351 . S
O421 C424 1.244 . S
O422 Co396 2.155 . S
O422 C424 1.240 . S
O423 Co396 2.096 . S
O423 C404 1.247 . S
C424 O421 1.244 . S
C424 O422 1.240 . S
H425 C399 0.931 . S
H426 C408 0.931 . S
H427 C412 0.929 . S
H428 C414 0.930 . S
Co429 N433 2.148 . S
Co429 N439 2.128 . S
Co429 N449 2.194 . S
Co429 O454 2.351 . S
Co429 O455 2.155 . S
Co429 O456 2.096 . S
C430 N433 1.301 . S
C430 N434 1.328 . S
C430 H435 0.930 . S
C431 C432 1.333 . S
C431 N433 1.317 . S
C431 H436 0.930 . S
C432 C431 1.333 . S
C432 N434 1.350 . S
C432 H458 0.931 . S
N433 Co429 2.148 . S
N433 C430 1.301 . S
N433 C431 1.317 . S
N434 C430 1.328 . S
N434 C432 1.350 . S
H435 C430 0.930 . S
H436 C431 0.930 . S
C437 O438 1.224 . S
C437 O456 1.247 . S
O438 C437 1.224 . S
N439 Co429 2.128 . S
N439 C440 1.355 . S
N439 C442 1.311 . S
C440 N439 1.355 . S
C440 C441 1.363 . S
C440 H452 0.929 . S
C441 C440 1.363 . S
C441 N443 1.375 . S
C441 H459 0.931 . S
C442 N439 1.311 . S
C442 N443 1.347 . S
C442 H453 0.929 . S
N443 C441 1.375 . S
N443 C442 1.347 . S
C444 C447 1.365 . S
C444 N449 1.328 . S
C444 H450 0.929 . S
C445 C446 1.362 . S
C445 C448 1.378 . S
C445 H460 0.929 . S
C446 C445 1.362 . S
C446 C447 1.366 . S
C447 C444 1.365 . S
C447 C446 1.366 . S
C447 H461 0.930 . S
C448 C445 1.378 . S
C448 N449 1.315 . S
C448 H451 0.930 . S
N449 Co429 2.194 . S
N449 C444 1.328 . S
N449 C448 1.315 . S
H450 C444 0.929 . S
H451 C448 0.930 . S
H452 C440 0.929 . S
H453 C442 0.929 . S
O454 Co429 2.351 . S
O454 C457 1.244 . S
O455 Co429 2.155 . S
O455 C457 1.240 . S
O456 Co429 2.096 . S
O456 C437 1.247 . S
C457 O454 1.244 . S
C457 O455 1.240 . S
H458 C432 0.931 . S
H459 C441 0.931 . S
H460 C445 0.929 . S
H461 C447 0.930 . S
Co462 N466 2.148 . S
Co462 N472 2.128 . S
Co462 N482 2.194 . S
Co462 O487 2.351 . S
Co462 O488 2.155 . S
Co462 O489 2.096 . S
C463 N466 1.301 . S
C463 N467 1.328 . S
C463 H468 0.930 . S
C464 C465 1.333 . S
C464 N466 1.317 . S
C464 H469 0.930 . S
C465 C464 1.333 . S
C465 N467 1.350 . S
C465 H491 0.931 . S
N466 Co462 2.148 . S
N466 C463 1.301 . S
N466 C464 1.317 . S
N467 C463 1.328 . S
N467 C465 1.350 . S
H468 C463 0.930 . S
H469 C464 0.930 . S
C470 O471 1.224 . S
C470 O489 1.247 . S
O471 C470 1.224 . S
N472 Co462 2.128 . S
N472 C473 1.355 . S
N472 C475 1.311 . S
C473 N472 1.355 . S
C473 C474 1.363 . S
C473 H485 0.929 . S
C474 C473 1.363 . S
C474 N476 1.375 . S
C474 H492 0.931 . S
C475 N472 1.311 . S
C475 N476 1.347 . S
C475 H486 0.929 . S
N476 C474 1.375 . S
N476 C475 1.347 . S
C477 C480 1.365 . S
C477 N482 1.328 . S
C477 H483 0.929 . S
C478 C479 1.362 . S
C478 C481 1.378 . S
C478 H493 0.929 . S
C479 C478 1.362 . S
C479 C480 1.366 . S
C480 C477 1.365 . S
C480 C479 1.366 . S
C480 H494 0.930 . S
C481 C478 1.378 . S
C481 N482 1.315 . S
C481 H484 0.930 . S
N482 Co462 2.194 . S
N482 C477 1.328 . S
N482 C481 1.315 . S
H483 C477 0.929 . S
H484 C481 0.930 . S
H485 C473 0.929 . S
H486 C475 0.929 . S
O487 Co462 2.351 . S
O487 C490 1.244 . S
O488 Co462 2.155 . S
O488 C490 1.240 . S
O489 Co462 2.096 . S
O489 C470 1.247 . S
C490 O487 1.244 . S
C490 O488 1.240 . S
H491 C465 0.931 . S
H492 C474 0.931 . S
H493 C478 0.929 . S
H494 C480 0.930 . S
Co495 N499 2.148 . S
Co495 N505 2.128 . S
Co495 N515 2.194 . S
Co495 O520 2.351 . S
Co495 O521 2.155 . S
Co495 O522 2.096 . S
C496 N499 1.301 . S
C496 N500 1.328 . S
C496 H501 0.930 . S
C497 C498 1.333 . S
C497 N499 1.317 . S
C497 H502 0.930 . S
C498 C497 1.333 . S
C498 N500 1.350 . S
C498 H524 0.931 . S
N499 Co495 2.148 . S
N499 C496 1.301 . S
N499 C497 1.317 . S
N500 C496 1.328 . S
N500 C498 1.350 . S
H501 C496 0.930 . S
H502 C497 0.930 . S
C503 O504 1.224 . S
C503 O522 1.247 . S
O504 C503 1.224 . S
N505 Co495 2.128 . S
N505 C506 1.355 . S
N505 C508 1.311 . S
C506 N505 1.355 . S
C506 C507 1.363 . S
C506 H518 0.929 . S
C507 C506 1.363 . S
C507 N509 1.375 . S
C507 H525 0.931 . S
C508 N505 1.311 . S
C508 N509 1.347 . S
C508 H519 0.929 . S
N509 C507 1.375 . S
N509 C508 1.347 . S
C510 C513 1.365 . S
C510 N515 1.328 . S
C510 H516 0.929 . S
C511 C512 1.362 . S
C511 C514 1.378 . S
C511 H526 0.929 . S
C512 C511 1.362 . S
C512 C513 1.366 . S
C513 C510 1.365 . S
C513 C512 1.366 . S
C513 H527 0.930 . S
C514 C511 1.378 . S
C514 N515 1.315 . S
C514 H517 0.930 . S
N515 Co495 2.194 . S
N515 C510 1.328 . S
N515 C514 1.315 . S
H516 C510 0.929 . S
H517 C514 0.930 . S
H518 C506 0.929 . S
H519 C508 0.929 . S
O520 Co495 2.351 . S
O520 C523 1.244 . S
O521 Co495 2.155 . S
O521 C523 1.240 . S
O522 Co495 2.096 . S
O522 C503 1.247 . S
C523 O520 1.244 . S
C523 O521 1.240 . S
H524 C498 0.931 . S
H525 C507 0.931 . S
H526 C511 0.929 . S
H527 C513 0.930 . S
H528 C536 0.929 . S
H529 C538 0.930 . S
H530 C540 0.930 . S
H531 C543 0.929 . S
H532 C546 0.930 . S
H533 C548 0.960 . S
H534 C548 0.960 . S
H535 C548 0.960 . S
C536 H528 0.929 . S
C536 C537 1.377 . S
C536 C538 1.384 . S
C537 C536 1.377 . S
C537 C543 1.390 . S
C538 H529 0.930 . S
C538 C536 1.384 . S
C538 C539 1.372 . S
C539 C538 1.372 . S
C539 C540 1.400 . S
C539 C544 1.490 . S
C540 H530 0.930 . S
C540 C539 1.400 . S
C540 C543 1.386 . S
H541 C557 0.930 . S
H542 C558 0.931 . S
C543 H531 0.929 . S
C543 C537 1.390 . S
C543 C540 1.386 . S
C544 C539 1.490 . S
C544 C546 1.395 . S
C544 C547 1.403 . S
H545 C551 0.930 . S
C546 H532 0.930 . S
C546 C544 1.395 . S
C546 C549 1.403 . S
C547 C544 1.403 . S
C547 C548 1.524 . S
C547 C551 1.400 . S
C548 H533 0.960 . S
C548 H534 0.960 . S
C548 H535 0.960 . S
C548 C547 1.524 . S
C549 C546 1.403 . S
C549 C550 1.392 . S
C549 C553 1.495 . S
C550 C549 1.392 . S
C550 C551 1.385 . S
C550 C552 1.478 . S
C551 H545 0.930 . S
C551 C547 1.400 . S
C551 C550 1.385 . S
C552 C550 1.478 . S
C552 C554 1.381 . S
C552 C558 1.383 . S
C553 C549 1.495 . S
C553 H559 0.959 . S
C553 H560 0.961 . S
C553 H561 0.960 . S
C554 C552 1.381 . S
C554 C555 1.394 . S
C554 H562 0.930 . S
C555 C554 1.394 . S
C555 C556 1.383 . S
C555 H563 0.929 . S
C556 C555 1.383 . S
C556 C557 1.377 . S
C557 H541 0.930 . S
C557 C556 1.377 . S
C557 C558 1.379 . S
C558 H542 0.931 . S
C558 C552 1.383 . S
C558 C557 1.379 . S
H559 C553 0.959 . S
H560 C553 0.961 . S
H561 C553 0.960 . S
H562 C554 0.930 . S
H563 C555 0.929 . S
H564 C572 0.929 1_455 S
H565 C574 0.930 . S
H566 C576 0.930 . S
H567 C579 0.929 1_455 S
H568 C582 0.930 . S
H569 C584 0.960 . S
H570 C584 0.960 . S
H571 C584 0.960 . S
C572 H564 0.929 1_655 S
C572 C573 1.377 1_655 S
C572 C574 1.384 . S
C573 C572 1.377 1_455 S
C573 C579 1.390 1_455 S
C574 H565 0.930 . S
C574 C572 1.384 . S
C574 C575 1.372 . S
C575 C574 1.372 . S
C575 C576 1.400 . S
C575 C580 1.490 . S
C576 H566 0.930 . S
C576 C575 1.400 . S
C576 C579 1.386 . S
H577 C593 0.930 . S
H578 C594 0.931 . S
C579 H567 0.929 1_655 S
C579 C573 1.390 1_655 S
C579 C576 1.386 . S
C580 C575 1.490 . S
C580 C582 1.395 . S
C580 C583 1.403 . S
H581 C587 0.930 . S
C582 H568 0.930 . S
C582 C580 1.395 . S
C582 C585 1.403 . S
C583 C580 1.403 . S
C583 C584 1.524 . S
C583 C587 1.400 . S
C584 H569 0.960 . S
C584 H570 0.960 . S
C584 H571 0.960 . S
C584 C583 1.524 . S
C585 C582 1.403 . S
C585 C586 1.392 . S
C585 C589 1.495 . S
C586 C585 1.392 . S
C586 C587 1.385 . S
C586 C588 1.478 . S
C587 H581 0.930 . S
C587 C583 1.400 . S
C587 C586 1.385 . S
C588 C586 1.478 . S
C588 C590 1.381 . S
C588 C594 1.383 . S
C589 C585 1.495 . S
C589 H595 0.959 . S
C589 H596 0.961 . S
C589 H597 0.960 . S
C590 C588 1.381 . S
C590 C591 1.394 . S
C590 H598 0.930 . S
C591 C590 1.394 . S
C591 C592 1.383 . S
C591 H599 0.929 . S
C592 C591 1.383 . S
C592 C593 1.377 . S
C593 H577 0.930 . S
C593 C592 1.377 . S
C593 C594 1.379 . S
C594 H578 0.931 . S
C594 C588 1.383 . S
C594 C593 1.379 . S
H595 C589 0.959 . S
H596 C589 0.961 . S
H597 C589 0.960 . S
H598 C590 0.930 . S
H599 C591 0.929 . S
H600 C608 0.929 . S
H601 C610 0.930 . S
H602 C612 0.930 . S
H603 C615 0.929 . S
H604 C618 0.930 . S
H605 C620 0.960 . S
H606 C620 0.960 . S
H607 C620 0.960 . S
C608 H600 0.929 . S
C608 C609 1.377 . S
C608 C610 1.384 . S
C609 C608 1.377 . S
C609 C615 1.390 . S
C610 H601 0.930 . S
C610 C608 1.384 . S
C610 C611 1.372 . S
C611 C610 1.372 . S
C611 C612 1.400 . S
C611 C616 1.490 . S
C612 H602 0.930 . S
C612 C611 1.400 . S
C612 C615 1.386 . S
H613 C629 0.930 . S
H614 C630 0.931 . S
C615 H603 0.929 . S
C615 C609 1.390 . S
C615 C612 1.386 . S
C616 C611 1.490 . S
C616 C618 1.395 . S
C616 C619 1.403 . S
H617 C623 0.930 . S
C618 H604 0.930 . S
C618 C616 1.395 . S
C618 C621 1.403 . S
C619 C616 1.403 . S
C619 C620 1.524 . S
C619 C623 1.400 . S
C620 H605 0.960 . S
C620 H606 0.960 . S
C620 H607 0.960 . S
C620 C619 1.524 . S
C621 C618 1.403 . S
C621 C622 1.392 . S
C621 C625 1.495 . S
C622 C621 1.392 . S
C622 C623 1.385 . S
C622 C624 1.478 . S
C623 H617 0.930 . S
C623 C619 1.400 . S
C623 C622 1.385 . S
C624 C622 1.478 . S
C624 C626 1.381 . S
C624 C630 1.383 . S
C625 C621 1.495 . S
C625 H631 0.959 . S
C625 H632 0.961 . S
C625 H633 0.960 . S
C626 C624 1.381 . S
C626 C627 1.394 . S
C626 H634 0.930 . S
C627 C626 1.394 . S
C627 C628 1.383 . S
C627 H635 0.929 . S
C628 C627 1.383 . S
C628 C629 1.377 . S
C629 H613 0.930 . S
C629 C628 1.377 . S
C629 C630 1.379 . S
C630 H614 0.931 . S
C630 C624 1.383 . S
C630 C629 1.379 . S
H631 C625 0.959 . S
H632 C625 0.961 . S
H633 C625 0.960 . S
H634 C626 0.930 . S
H635 C627 0.929 . S
H636 C644 0.929 1_455 S
H637 C646 0.930 . S
H638 C648 0.930 . S
H639 C651 0.929 1_455 S
H640 C654 0.930 . S
H641 C656 0.960 . S
H642 C656 0.960 . S
H643 C656 0.960 . S
C644 H636 0.929 1_655 S
C644 C645 1.377 1_655 S
C644 C646 1.384 . S
C645 C644 1.377 1_455 S
C645 C651 1.390 1_455 S
C646 H637 0.930 . S
C646 C644 1.384 . S
C646 C647 1.372 . S
C647 C646 1.372 . S
C647 C648 1.400 . S
C647 C652 1.490 . S
C648 H638 0.930 . S
C648 C647 1.400 . S
C648 C651 1.386 . S
H649 C665 0.930 . S
H650 C666 0.931 . S
C651 H639 0.929 1_655 S
C651 C645 1.390 1_655 S
C651 C648 1.386 . S
C652 C647 1.490 . S
C652 C654 1.395 . S
C652 C655 1.403 . S
H653 C659 0.930 . S
C654 H640 0.930 . S
C654 C652 1.395 . S
C654 C657 1.403 . S
C655 C652 1.403 . S
C655 C656 1.524 . S
C655 C659 1.400 . S
C656 H641 0.960 . S
C656 H642 0.960 . S
C656 H643 0.960 . S
C656 C655 1.524 . S
C657 C654 1.403 . S
C657 C658 1.392 . S
C657 C661 1.495 . S
C658 C657 1.392 . S
C658 C659 1.385 . S
C658 C660 1.478 . S
C659 H653 0.930 . S
C659 C655 1.400 . S
C659 C658 1.385 . S
C660 C658 1.478 . S
C660 C662 1.381 . S
C660 C666 1.383 . S
C661 C657 1.495 . S
C661 H667 0.959 . S
C661 H668 0.961 . S
C661 H669 0.960 . S
C662 C660 1.381 . S
C662 C663 1.394 . S
C662 H670 0.930 . S
C663 C662 1.394 . S
C663 C664 1.383 . S
C663 H671 0.929 . S
C664 C663 1.383 . S
C664 C665 1.377 . S
C665 H649 0.930 . S
C665 C664 1.377 . S
C665 C666 1.379 . S
C666 H650 0.931 . S
C666 C660 1.383 . S
C666 C665 1.379 . S
H667 C661 0.959 . S
H668 C661 0.961 . S
H669 C661 0.960 . S
H670 C662 0.930 . S
H671 C663 0.929 . S
H672 C680 0.929 . S
H673 C682 0.930 . S
H674 C684 0.930 . S
H675 C687 0.929 . S
H676 C690 0.930 . S
H677 C692 0.960 . S
H678 C692 0.960 . S
H679 C692 0.960 . S
C680 H672 0.929 . S
C680 C681 1.377 . S
C680 C682 1.384 . S
C681 C680 1.377 . S
C681 C687 1.390 . S
C682 H673 0.930 . S
C682 C680 1.384 . S
C682 C683 1.372 . S
C683 C682 1.372 . S
C683 C684 1.400 . S
C683 C688 1.490 . S
C684 H674 0.930 . S
C684 C683 1.400 . S
C684 C687 1.386 . S
H685 C701 0.930 . S
H686 C702 0.931 . S
C687 H675 0.929 . S
C687 C681 1.390 . S
C687 C684 1.386 . S
C688 C683 1.490 . S
C688 C690 1.395 . S
C688 C691 1.403 . S
H689 C695 0.930 . S
C690 H676 0.930 . S
C690 C688 1.395 . S
C690 C693 1.403 . S
C691 C688 1.403 . S
C691 C692 1.524 . S
C691 C695 1.400 . S
C692 H677 0.960 . S
C692 H678 0.960 . S
C692 H679 0.960 . S
C692 C691 1.524 . S
C693 C690 1.403 . S
C693 C694 1.392 . S
C693 C697 1.495 . S
C694 C693 1.392 . S
C694 C695 1.385 . S
C694 C696 1.478 . S
C695 H689 0.930 . S
C695 C691 1.400 . S
C695 C694 1.385 . S
C696 C694 1.478 . S
C696 C698 1.381 . S
C696 C702 1.383 . S
C697 C693 1.495 . S
C697 H703 0.959 . S
C697 H704 0.961 . S
C697 H705 0.960 . S
C698 C696 1.381 . S
C698 C699 1.394 . S
C698 H706 0.930 . S
C699 C698 1.394 . S
C699 C700 1.383 . S
C699 H707 0.929 . S
C700 C699 1.383 . S
C700 C701 1.377 . S
C701 H685 0.930 . S
C701 C700 1.377 . S
C701 C702 1.379 . S
C702 H686 0.931 . S
C702 C696 1.383 . S
C702 C701 1.379 . S
H703 C697 0.959 . S
H704 C697 0.961 . S
H705 C697 0.960 . S
H706 C698 0.930 . S
H707 C699 0.929 . S
H708 C716 0.929 1_655 S
H709 C718 0.930 . S
H710 C720 0.930 . S
H711 C723 0.929 1_655 S
H712 C726 0.930 . S
H713 C728 0.960 . S
H714 C728 0.960 . S
H715 C728 0.960 . S
C716 H708 0.929 1_455 S
C716 C717 1.377 1_455 S
C716 C718 1.384 . S
C717 C716 1.377 1_655 S
C717 C723 1.390 1_655 S
C718 H709 0.930 . S
C718 C716 1.384 . S
C718 C719 1.372 . S
C719 C718 1.372 . S
C719 C720 1.400 . S
C719 C724 1.490 . S
C720 H710 0.930 . S
C720 C719 1.400 . S
C720 C723 1.386 . S
H721 C737 0.930 . S
H722 C738 0.931 . S
C723 H711 0.929 1_455 S
C723 C717 1.390 1_455 S
C723 C720 1.386 . S
C724 C719 1.490 . S
C724 C726 1.395 . S
C724 C727 1.403 . S
H725 C731 0.930 . S
C726 H712 0.930 . S
C726 C724 1.395 . S
C726 C729 1.403 . S
C727 C724 1.403 . S
C727 C728 1.524 . S
C727 C731 1.400 . S
C728 H713 0.960 . S
C728 H714 0.960 . S
C728 H715 0.960 . S
C728 C727 1.524 . S
C729 C726 1.403 . S
C729 C730 1.392 . S
C729 C733 1.495 . S
C730 C729 1.392 . S
C730 C731 1.385 . S
C730 C732 1.478 . S
C731 H725 0.930 . S
C731 C727 1.400 . S
C731 C730 1.385 . S
C732 C730 1.478 . S
C732 C734 1.381 . S
C732 C738 1.383 . S
C733 C729 1.495 . S
C733 H739 0.959 . S
C733 H740 0.961 . S
C733 H741 0.960 . S
C734 C732 1.381 . S
C734 C735 1.394 . S
C734 H742 0.930 . S
C735 C734 1.394 . S
C735 C736 1.383 . S
C735 H743 0.929 . S
C736 C735 1.383 . S
C736 C737 1.377 . S
C737 H721 0.930 . S
C737 C736 1.377 . S
C737 C738 1.379 . S
C738 H722 0.931 . S
C738 C732 1.383 . S
C738 C737 1.379 . S
H739 C733 0.959 . S
H740 C733 0.961 . S
H741 C733 0.960 . S
H742 C734 0.930 . S
H743 C735 0.929 . S
H744 C752 0.929 . S
H745 C754 0.930 . S
H746 C756 0.930 . S
H747 C759 0.929 . S
H748 C762 0.930 . S
H749 C764 0.960 . S
H750 C764 0.960 . S
H751 C764 0.960 . S
C752 H744 0.929 . S
C752 C753 1.377 . S
C752 C754 1.384 . S
C753 C752 1.377 . S
C753 C759 1.390 . S
C754 H745 0.930 . S
C754 C752 1.384 . S
C754 C755 1.372 . S
C755 C754 1.372 . S
C755 C756 1.400 . S
C755 C760 1.490 . S
C756 H746 0.930 . S
C756 C755 1.400 . S
C756 C759 1.386 . S
H757 C773 0.930 . S
H758 C774 0.931 . S
C759 H747 0.929 . S
C759 C753 1.390 . S
C759 C756 1.386 . S
C760 C755 1.490 . S
C760 C762 1.395 . S
C760 C763 1.403 . S
H761 C767 0.930 . S
C762 H748 0.930 . S
C762 C760 1.395 . S
C762 C765 1.403 . S
C763 C760 1.403 . S
C763 C764 1.524 . S
C763 C767 1.400 . S
C764 H749 0.960 . S
C764 H750 0.960 . S
C764 H751 0.960 . S
C764 C763 1.524 . S
C765 C762 1.403 . S
C765 C766 1.392 . S
C765 C769 1.495 . S
C766 C765 1.392 . S
C766 C767 1.385 . S
C766 C768 1.478 . S
C767 H761 0.930 . S
C767 C763 1.400 . S
C767 C766 1.385 . S
C768 C766 1.478 . S
C768 C770 1.381 . S
C768 C774 1.383 . S
C769 C765 1.495 . S
C769 H775 0.959 . S
C769 H776 0.961 . S
C769 H777 0.960 . S
C770 C768 1.381 . S
C770 C771 1.394 . S
C770 H778 0.930 . S
C771 C770 1.394 . S
C771 C772 1.383 . S
C771 H779 0.929 . S
C772 C771 1.383 . S
C772 C773 1.377 . S
C773 H757 0.930 . S
C773 C772 1.377 . S
C773 C774 1.379 . S
C774 H758 0.931 . S
C774 C768 1.383 . S
C774 C773 1.379 . S
H775 C769 0.959 . S
H776 C769 0.961 . S
H777 C769 0.960 . S
H778 C770 0.930 . S
H779 C771 0.929 . S
H780 C788 0.929 1_655 S
H781 C790 0.930 . S
H782 C792 0.930 . S
H783 C795 0.929 1_655 S
H784 C798 0.930 . S
H785 C800 0.960 . S
H786 C800 0.960 . S
H787 C800 0.960 . S
C788 H780 0.929 1_455 S
C788 C789 1.377 1_455 S
C788 C790 1.384 . S
C789 C788 1.377 1_655 S
C789 C795 1.390 1_655 S
C790 H781 0.930 . S
C790 C788 1.384 . S
C790 C791 1.372 . S
C791 C790 1.372 . S
C791 C792 1.400 . S
C791 C796 1.490 . S
C792 H782 0.930 . S
C792 C791 1.400 . S
C792 C795 1.386 . S
H793 C809 0.930 . S
H794 C810 0.931 . S
C795 H783 0.929 1_455 S
C795 C789 1.390 1_455 S
C795 C792 1.386 . S
C796 C791 1.490 . S
C796 C798 1.395 . S
C796 C799 1.403 . S
H797 C803 0.930 . S
C798 H784 0.930 . S
C798 C796 1.395 . S
C798 C801 1.403 . S
C799 C796 1.403 . S
C799 C800 1.524 . S
C799 C803 1.400 . S
C800 H785 0.960 . S
C800 H786 0.960 . S
C800 H787 0.960 . S
C800 C799 1.524 . S
C801 C798 1.403 . S
C801 C802 1.392 . S
C801 C805 1.495 . S
C802 C801 1.392 . S
C802 C803 1.385 . S
C802 C804 1.478 . S
C803 H797 0.930 . S
C803 C799 1.400 . S
C803 C802 1.385 . S
C804 C802 1.478 . S
C804 C806 1.381 . S
C804 C810 1.383 . S
C805 C801 1.495 . S
C805 H811 0.959 . S
C805 H812 0.961 . S
C805 H813 0.960 . S
C806 C804 1.381 . S
C806 C807 1.394 . S
C806 H814 0.930 . S
C807 C806 1.394 . S
C807 C808 1.383 . S
C807 H815 0.929 . S
C808 C807 1.383 . S
C808 C809 1.377 . S
C809 H793 0.930 . S
C809 C808 1.377 . S
C809 C810 1.379 . S
C810 H794 0.931 . S
C810 C804 1.383 . S
C810 C809 1.379 . S
H811 C805 0.959 . S
H812 C805 0.961 . S
H813 C805 0.960 . S
H814 C806 0.930 . S
H815 C807 0.929 . S
H816 C824 0.929 . S
H817 C826 0.930 . S
H818 C828 0.930 . S
H819 C831 0.929 . S
H820 C834 0.930 . S
H821 C836 0.960 . S
H822 C836 0.960 . S
H823 C836 0.960 . S
C824 H816 0.929 . S
C824 C825 1.377 . S
C824 C826 1.384 . S
C825 C824 1.377 . S
C825 C831 1.390 . S
C826 H817 0.930 . S
C826 C824 1.384 . S
C826 C827 1.372 . S
C827 C826 1.372 . S
C827 C828 1.400 . S
C827 C832 1.490 . S
C828 H818 0.930 . S
C828 C827 1.400 . S
C828 C831 1.386 . S
H829 C845 0.930 . S
H830 C846 0.931 . S
C831 H819 0.929 . S
C831 C825 1.390 . S
C831 C828 1.386 . S
C832 C827 1.490 . S
C832 C834 1.395 . S
C832 C835 1.403 . S
H833 C839 0.930 . S
C834 H820 0.930 . S
C834 C832 1.395 . S
C834 C837 1.403 . S
C835 C832 1.403 . S
C835 C836 1.524 . S
C835 C839 1.400 . S
C836 H821 0.960 . S
C836 H822 0.960 . S
C836 H823 0.960 . S
C836 C835 1.524 . S
C837 C834 1.403 . S
C837 C838 1.392 . S
C837 C841 1.495 . S
C838 C837 1.392 . S
C838 C839 1.385 . S
C838 C840 1.478 . S
C839 H833 0.930 . S
C839 C835 1.400 . S
C839 C838 1.385 . S
C840 C838 1.478 . S
C840 C842 1.381 . S
C840 C846 1.383 . S
C841 C837 1.495 . S
C841 H847 0.959 . S
C841 H848 0.961 . S
C841 H849 0.960 . S
C842 C840 1.381 . S
C842 C843 1.394 . S
C842 H850 0.930 . S
C843 C842 1.394 . S
C843 C844 1.383 . S
C843 H851 0.929 . S
C844 C843 1.383 . S
C844 C845 1.377 . S
C845 H829 0.930 . S
C845 C844 1.377 . S
C845 C846 1.379 . S
C846 H830 0.931 . S
C846 C840 1.383 . S
C846 C845 1.379 . S
H847 C841 0.959 . S
H848 C841 0.961 . S
H849 C841 0.960 . S
H850 C842 0.930 . S
H851 C843 0.929 . S
H852 C860 0.929 . S
H853 C862 0.930 . S
H854 C864 0.930 . S
H855 C867 0.929 . S
H856 C870 0.930 . S
H857 C872 0.960 . S
H858 C872 0.960 . S
H859 C872 0.960 . S
C860 H852 0.929 . S
C860 C861 1.377 . S
C860 C862 1.384 . S
C861 C860 1.377 . S
C861 C867 1.390 . S
C862 H853 0.930 . S
C862 C860 1.384 . S
C862 C863 1.372 . S
C863 C862 1.372 . S
C863 C864 1.400 . S
C863 C868 1.490 . S
C864 H854 0.930 . S
C864 C863 1.400 . S
C864 C867 1.386 . S
H865 C881 0.930 1_455 S
H866 C882 0.931 . S
C867 H855 0.929 . S
C867 C861 1.390 . S
C867 C864 1.386 . S
C868 C863 1.490 . S
C868 C870 1.395 . S
C868 C871 1.403 . S
H869 C875 0.930 . S
C870 H856 0.930 . S
C870 C868 1.395 . S
C870 C873 1.403 . S
C871 C868 1.403 . S
C871 C872 1.524 . S
C871 C875 1.400 . S
C872 H857 0.960 . S
C872 H858 0.960 . S
C872 H859 0.960 . S
C872 C871 1.524 . S
C873 C870 1.403 . S
C873 C874 1.392 . S
C873 C877 1.495 . S
C874 C873 1.392 . S
C874 C875 1.385 . S
C874 C876 1.478 . S
C875 H869 0.930 . S
C875 C871 1.400 . S
C875 C874 1.385 . S
C876 C874 1.478 . S
C876 C878 1.381 . S
C876 C882 1.383 . S
C877 C873 1.495 . S
C877 H883 0.959 . S
C877 H884 0.961 . S
C877 H885 0.960 . S
C878 C876 1.381 . S
C878 C879 1.394 . S
C878 H886 0.930 . S
C879 C878 1.394 . S
C879 C880 1.383 1_655 S
C879 H887 0.929 1_655 S
C880 C879 1.383 1_455 S
C880 C881 1.377 1_455 S
C881 H865 0.930 1_655 S
C881 C880 1.377 1_655 S
C881 C882 1.379 . S
C882 H866 0.931 . S
C882 C876 1.383 . S
C882 C881 1.379 . S
H883 C877 0.959 . S
H884 C877 0.961 . S
H885 C877 0.960 . S
H886 C878 0.930 . S
H887 C879 0.929 1_455 S
H888 C896 0.929 . S
H889 C898 0.930 . S
H890 C900 0.930 . S
H891 C903 0.929 . S
H892 C906 0.930 . S
H893 C908 0.960 . S
H894 C908 0.960 . S
H895 C908 0.960 . S
C896 H888 0.929 . S
C896 C897 1.377 . S
C896 C898 1.384 . S
C897 C896 1.377 . S
C897 C903 1.390 . S
C898 H889 0.930 . S
C898 C896 1.384 . S
C898 C899 1.372 . S
C899 C898 1.372 . S
C899 C900 1.400 . S
C899 C904 1.490 . S
C900 H890 0.930 . S
C900 C899 1.400 . S
C900 C903 1.386 . S
H901 C917 0.930 . S
H902 C918 0.931 . S
C903 H891 0.929 . S
C903 C897 1.390 . S
C903 C900 1.386 . S
C904 C899 1.490 . S
C904 C906 1.395 . S
C904 C907 1.403 . S
H905 C911 0.930 . S
C906 H892 0.930 . S
C906 C904 1.395 . S
C906 C909 1.403 . S
C907 C904 1.403 . S
C907 C908 1.524 . S
C907 C911 1.400 . S
C908 H893 0.960 . S
C908 H894 0.960 . S
C908 H895 0.960 . S
C908 C907 1.524 . S
C909 C906 1.403 . S
C909 C910 1.392 . S
C909 C913 1.495 . S
C910 C909 1.392 . S
C910 C911 1.385 . S
C910 C912 1.478 . S
C911 H905 0.930 . S
C911 C907 1.400 . S
C911 C910 1.385 . S
C912 C910 1.478 . S
C912 C914 1.381 . S
C912 C918 1.383 . S
C913 C909 1.495 . S
C913 H919 0.959 . S
C913 H920 0.961 . S
C913 H921 0.960 . S
C914 C912 1.381 . S
C914 C915 1.394 . S
C914 H922 0.930 . S
C915 C914 1.394 . S
C915 C916 1.383 . S
C915 H923 0.929 . S
C916 C915 1.383 . S
C916 C917 1.377 . S
C917 H901 0.930 . S
C917 C916 1.377 . S
C917 C918 1.379 . S
C918 H902 0.931 . S
C918 C912 1.383 . S
C918 C917 1.379 . S
H919 C913 0.959 . S
H920 C913 0.961 . S
H921 C913 0.960 . S
H922 C914 0.930 . S
H923 C915 0.929 . S
H924 C932 0.929 . S
H925 C934 0.930 . S
H926 C936 0.930 . S
H927 C939 0.929 . S
H928 C942 0.930 . S
H929 C944 0.960 . S
H930 C944 0.960 . S
H931 C944 0.960 . S
C932 H924 0.929 . S
C932 C933 1.377 . S
C932 C934 1.384 . S
C933 C932 1.377 . S
C933 C939 1.390 . S
C934 H925 0.930 . S
C934 C932 1.384 . S
C934 C935 1.372 . S
C935 C934 1.372 . S
C935 C936 1.400 . S
C935 C940 1.490 . S
C936 H926 0.930 . S
C936 C935 1.400 . S
C936 C939 1.386 . S
H937 C953 0.930 1_455 S
H938 C954 0.931 . S
C939 H927 0.929 . S
C939 C933 1.390 . S
C939 C936 1.386 . S
C940 C935 1.490 . S
C940 C942 1.395 . S
C940 C943 1.403 . S
H941 C947 0.930 . S
C942 H928 0.930 . S
C942 C940 1.395 . S
C942 C945 1.403 . S
C943 C940 1.403 . S
C943 C944 1.524 . S
C943 C947 1.400 . S
C944 H929 0.960 . S
C944 H930 0.960 . S
C944 H931 0.960 . S
C944 C943 1.524 . S
C945 C942 1.403 . S
C945 C946 1.392 . S
C945 C949 1.495 . S
C946 C945 1.392 . S
C946 C947 1.385 . S
C946 C948 1.478 . S
C947 H941 0.930 . S
C947 C943 1.400 . S
C947 C946 1.385 . S
C948 C946 1.478 . S
C948 C950 1.381 . S
C948 C954 1.383 . S
C949 C945 1.495 . S
C949 H955 0.959 . S
C949 H956 0.961 . S
C949 H957 0.960 . S
C950 C948 1.381 . S
C950 C951 1.394 . S
C950 H958 0.930 . S
C951 C950 1.394 . S
C951 C952 1.383 1_655 S
C951 H959 0.929 1_655 S
C952 C951 1.383 1_455 S
C952 C953 1.377 1_455 S
C953 H937 0.930 1_655 S
C953 C952 1.377 1_655 S
C953 C954 1.379 . S
C954 H938 0.931 . S
C954 C948 1.383 . S
C954 C953 1.379 . S
H955 C949 0.959 . S
H956 C949 0.961 . S
H957 C949 0.960 . S
H958 C950 0.930 . S
H959 C951 0.929 1_455 S
H960 C968 0.929 . S
H961 C970 0.930 . S
H962 C972 0.930 . S
H963 C975 0.929 . S
H964 C978 0.930 . S
H965 C980 0.960 . S
H966 C980 0.960 . S
H967 C980 0.960 . S
C968 H960 0.929 . S
C968 C969 1.377 . S
C968 C970 1.384 . S
C969 C968 1.377 . S
C969 C975 1.390 . S
C970 H961 0.930 . S
C970 C968 1.384 . S
C970 C971 1.372 . S
C971 C970 1.372 . S
C971 C972 1.400 . S
C971 C976 1.490 . S
C972 H962 0.930 . S
C972 C971 1.400 . S
C972 C975 1.386 . S
H973 C989 0.930 . S
H974 C990 0.931 . S
C975 H963 0.929 . S
C975 C969 1.390 . S
C975 C972 1.386 . S
C976 C971 1.490 . S
C976 C978 1.395 . S
C976 C979 1.403 . S
H977 C983 0.930 . S
C978 H964 0.930 . S
C978 C976 1.395 . S
C978 C981 1.403 . S
C979 C976 1.403 . S
C979 C980 1.524 . S
C979 C983 1.400 . S
C980 H965 0.960 . S
C980 H966 0.960 . S
C980 H967 0.960 . S
C980 C979 1.524 . S
C981 C978 1.403 . S
C981 C982 1.392 . S
C981 C985 1.495 . S
C982 C981 1.392 . S
C982 C983 1.385 . S
C982 C984 1.478 . S
C983 H977 0.930 . S
C983 C979 1.400 . S
C983 C982 1.385 . S
C984 C982 1.478 . S
C984 C986 1.381 . S
C984 C990 1.383 . S
C985 C981 1.495 . S
C985 H991 0.959 . S
C985 H992 0.961 . S
C985 H993 0.960 . S
C986 C984 1.381 . S
C986 C987 1.394 . S
C986 H994 0.930 . S
C987 C986 1.394 . S
C987 C988 1.383 . S
C987 H995 0.929 . S
C988 C987 1.383 . S
C988 C989 1.377 . S
C989 H973 0.930 . S
C989 C988 1.377 . S
C989 C990 1.379 . S
C990 H974 0.931 . S
C990 C984 1.383 . S
C990 C989 1.379 . S
H991 C985 0.959 . S
H992 C985 0.961 . S
H993 C985 0.960 . S
H994 C986 0.930 . S
H995 C987 0.929 . S
H996 C1004 0.929 . S
H997 C1006 0.930 . S
H998 C1008 0.930 . S
H999 C1011 0.929 . S
H1000 C1014 0.930 . S
H1001 C1016 0.960 . S
H1002 C1016 0.960 . S
H1003 C1016 0.960 . S
C1004 H996 0.929 . S
C1004 C1005 1.377 . S
C1004 C1006 1.384 . S
C1005 C1004 1.377 . S
C1005 C1011 1.390 . S
C1006 H997 0.930 . S
C1006 C1004 1.384 . S
C1006 C1007 1.372 . S
C1007 C1006 1.372 . S
C1007 C1008 1.400 . S
C1007 C1012 1.490 . S
C1008 H998 0.930 . S
C1008 C1007 1.400 . S
C1008 C1011 1.386 . S
H1009 C1025 0.930 1_655 S
H1010 C1026 0.931 . S
C1011 H999 0.929 . S
C1011 C1005 1.390 . S
C1011 C1008 1.386 . S
C1012 C1007 1.490 . S
C1012 C1014 1.395 . S
C1012 C1015 1.403 . S
H1013 C1019 0.930 . S
C1014 H1000 0.930 . S
C1014 C1012 1.395 . S
C1014 C1017 1.403 . S
C1015 C1012 1.403 . S
C1015 C1016 1.524 . S
C1015 C1019 1.400 . S
C1016 H1001 0.960 . S
C1016 H1002 0.960 . S
C1016 H1003 0.960 . S
C1016 C1015 1.524 . S
C1017 C1014 1.403 . S
C1017 C1018 1.392 . S
C1017 C1021 1.495 . S
C1018 C1017 1.392 . S
C1018 C1019 1.385 . S
C1018 C1020 1.478 . S
C1019 H1013 0.930 . S
C1019 C1015 1.400 . S
C1019 C1018 1.385 . S
C1020 C1018 1.478 . S
C1020 C1022 1.381 . S
C1020 C1026 1.383 . S
C1021 C1017 1.495 . S
C1021 H1027 0.959 . S
C1021 H1028 0.961 . S
C1021 H1029 0.960 . S
C1022 C1020 1.381 . S
C1022 C1023 1.394 . S
C1022 H1030 0.930 . S
C1023 C1022 1.394 . S
C1023 C1024 1.383 1_455 S
C1023 H1031 0.929 1_455 S
C1024 C1023 1.383 1_655 S
C1024 C1025 1.377 1_655 S
C1025 H1009 0.930 1_455 S
C1025 C1024 1.377 1_455 S
C1025 C1026 1.379 . S
C1026 H1010 0.931 . S
C1026 C1020 1.383 . S
C1026 C1025 1.379 . S
H1027 C1021 0.959 . S
H1028 C1021 0.961 . S
H1029 C1021 0.960 . S
H1030 C1022 0.930 . S
H1031 C1023 0.929 1_655 S
H1032 C1040 0.929 . S
H1033 C1042 0.930 . S
H1034 C1044 0.930 . S
H1035 C1047 0.929 . S
H1036 C1050 0.930 . S
H1037 C1052 0.960 . S
H1038 C1052 0.960 . S
H1039 C1052 0.960 . S
C1040 H1032 0.929 . S
C1040 C1041 1.377 . S
C1040 C1042 1.384 . S
C1041 C1040 1.377 . S
C1041 C1047 1.390 . S
C1042 H1033 0.930 . S
C1042 C1040 1.384 . S
C1042 C1043 1.372 . S
C1043 C1042 1.372 . S
C1043 C1044 1.400 . S
C1043 C1048 1.490 . S
C1044 H1034 0.930 . S
C1044 C1043 1.400 . S
C1044 C1047 1.386 . S
H1045 C1061 0.930 . S
H1046 C1062 0.931 . S
C1047 H1035 0.929 . S
C1047 C1041 1.390 . S
C1047 C1044 1.386 . S
C1048 C1043 1.490 . S
C1048 C1050 1.395 . S
C1048 C1051 1.403 . S
H1049 C1055 0.930 . S
C1050 H1036 0.930 . S
C1050 C1048 1.395 . S
C1050 C1053 1.403 . S
C1051 C1048 1.403 . S
C1051 C1052 1.524 . S
C1051 C1055 1.400 . S
C1052 H1037 0.960 . S
C1052 H1038 0.960 . S
C1052 H1039 0.960 . S
C1052 C1051 1.524 . S
C1053 C1050 1.403 . S
C1053 C1054 1.392 . S
C1053 C1057 1.495 . S
C1054 C1053 1.392 . S
C1054 C1055 1.385 . S
C1054 C1056 1.478 . S
C1055 H1049 0.930 . S
C1055 C1051 1.400 . S
C1055 C1054 1.385 . S
C1056 C1054 1.478 . S
C1056 C1058 1.381 . S
C1056 C1062 1.383 . S
C1057 C1053 1.495 . S
C1057 H1063 0.959 . S
C1057 H1064 0.961 . S
C1057 H1065 0.960 . S
C1058 C1056 1.381 . S
C1058 C1059 1.394 . S
C1058 H1066 0.930 . S
C1059 C1058 1.394 . S
C1059 C1060 1.383 . S
C1059 H1067 0.929 . S
C1060 C1059 1.383 . S
C1060 C1061 1.377 . S
C1061 H1045 0.930 . S
C1061 C1060 1.377 . S
C1061 C1062 1.379 . S
C1062 H1046 0.931 . S
C1062 C1056 1.383 . S
C1062 C1061 1.379 . S
H1063 C1057 0.959 . S
H1064 C1057 0.961 . S
H1065 C1057 0.960 . S
H1066 C1058 0.930 . S
H1067 C1059 0.929 . S
H1068 C1076 0.929 1_655 S
H1069 C1078 0.930 . S
H1070 C1080 0.930 . S
H1071 C1083 0.929 1_655 S
H1072 C1086 0.930 . S
H1073 C1088 0.960 . S
H1074 C1088 0.960 . S
H1075 C1088 0.960 . S
C1076 H1068 0.929 1_455 S
C1076 C1077 1.377 1_455 S
C1076 C1078 1.384 . S
C1077 C1076 1.377 1_655 S
C1077 C1083 1.390 1_655 S
C1078 H1069 0.930 . S
C1078 C1076 1.384 . S
C1078 C1079 1.372 . S
C1079 C1078 1.372 . S
C1079 C1080 1.400 . S
C1079 C1084 1.490 . S
C1080 H1070 0.930 . S
C1080 C1079 1.400 . S
C1080 C1083 1.386 . S
H1081 C1097 0.930 . S
H1082 C1098 0.931 . S
C1083 H1071 0.929 1_455 S
C1083 C1077 1.390 1_455 S
C1083 C1080 1.386 . S
C1084 C1079 1.490 . S
C1084 C1086 1.395 . S
C1084 C1087 1.403 . S
H1085 C1091 0.930 . S
C1086 H1072 0.930 . S
C1086 C1084 1.395 . S
C1086 C1089 1.403 . S
C1087 C1084 1.403 . S
C1087 C1088 1.524 . S
C1087 C1091 1.400 . S
C1088 H1073 0.960 . S
C1088 H1074 0.960 . S
C1088 H1075 0.960 . S
C1088 C1087 1.524 . S
C1089 C1086 1.403 . S
C1089 C1090 1.392 . S
C1089 C1093 1.495 . S
C1090 C1089 1.392 . S
C1090 C1091 1.385 . S
C1090 C1092 1.478 . S
C1091 H1085 0.930 . S
C1091 C1087 1.400 . S
C1091 C1090 1.385 . S
C1092 C1090 1.478 . S
C1092 C1094 1.381 . S
C1092 C1098 1.383 . S
C1093 C1089 1.495 . S
C1093 H1099 0.959 . S
C1093 H1100 0.961 . S
C1093 H1101 0.960 . S
C1094 C1092 1.381 . S
C1094 C1095 1.394 . S
C1094 H1102 0.930 . S
C1095 C1094 1.394 . S
C1095 C1096 1.383 . S
C1095 H1103 0.929 . S
C1096 C1095 1.383 . S
C1096 C1097 1.377 . S
C1097 H1081 0.930 . S
C1097 C1096 1.377 . S
C1097 C1098 1.379 . S
C1098 H1082 0.931 . S
C1098 C1092 1.383 . S
C1098 C1097 1.379 . S
H1099 C1093 0.959 . S
H1100 C1093 0.961 . S
H1101 C1093 0.960 . S
H1102 C1094 0.930 . S
H1103 C1095 0.929 . S
H1104 C1112 0.929 . S
H1105 C1114 0.930 . S
H1106 C1116 0.930 . S
H1107 C1119 0.929 . S
H1108 C1122 0.930 . S
H1109 C1124 0.960 . S
H1110 C1124 0.960 . S
H1111 C1124 0.960 . S
C1112 H1104 0.929 . S
C1112 C1113 1.377 . S
C1112 C1114 1.384 . S
C1113 C1112 1.377 . S
C1113 C1119 1.390 . S
C1114 H1105 0.930 . S
C1114 C1112 1.384 . S
C1114 C1115 1.372 . S
C1115 C1114 1.372 . S
C1115 C1116 1.400 . S
C1115 C1120 1.490 . S
C1116 H1106 0.930 . S
C1116 C1115 1.400 . S
C1116 C1119 1.386 . S
H1117 C1133 0.930 . S
H1118 C1134 0.931 . S
C1119 H1107 0.929 . S
C1119 C1113 1.390 . S
C1119 C1116 1.386 . S
C1120 C1115 1.490 . S
C1120 C1122 1.395 . S
C1120 C1123 1.403 . S
H1121 C1127 0.930 . S
C1122 H1108 0.930 . S
C1122 C1120 1.395 . S
C1122 C1125 1.403 . S
C1123 C1120 1.403 . S
C1123 C1124 1.524 . S
C1123 C1127 1.400 . S
C1124 H1109 0.960 . S
C1124 H1110 0.960 . S
C1124 H1111 0.960 . S
C1124 C1123 1.524 . S
C1125 C1122 1.403 . S
C1125 C1126 1.392 . S
C1125 C1129 1.495 . S
C1126 C1125 1.392 . S
C1126 C1127 1.385 . S
C1126 C1128 1.478 . S
C1127 H1121 0.930 . S
C1127 C1123 1.400 . S
C1127 C1126 1.385 . S
C1128 C1126 1.478 . S
C1128 C1130 1.381 . S
C1128 C1134 1.383 . S
C1129 C1125 1.495 . S
C1129 H1135 0.959 . S
C1129 H1136 0.961 . S
C1129 H1137 0.960 . S
C1130 C1128 1.381 . S
C1130 C1131 1.394 . S
C1130 H1138 0.930 . S
C1131 C1130 1.394 . S
C1131 C1132 1.380 1_554 S
C1131 H1139 0.929 . S
C1132 C1131 1.380 1_556 S
C1132 C1133 1.374 1_556 S
C1133 H1117 0.930 . S
C1133 C1132 1.374 1_554 S
C1133 C1134 1.379 . S
C1134 H1118 0.931 . S
C1134 C1128 1.383 . S
C1134 C1133 1.379 . S
H1135 C1129 0.959 . S
H1136 C1129 0.961 . S
H1137 C1129 0.960 . S
H1138 C1130 0.930 . S
H1139 C1131 0.929 . S
H1140 C1148 0.929 . S
H1141 C1150 0.930 . S
H1142 C1152 0.930 . S
H1143 C1155 0.929 . S
H1144 C1158 0.930 . S
H1145 C1160 0.960 . S
H1146 C1160 0.960 . S
H1147 C1160 0.960 . S
C1148 H1140 0.929 . S
C1148 C1149 1.376 1_556 S
C1148 C1150 1.384 . S
C1149 C1148 1.376 1_554 S
C1149 C1155 1.388 1_554 S
C1150 H1141 0.930 . S
C1150 C1148 1.384 . S
C1150 C1151 1.372 . S
C1151 C1150 1.372 . S
C1151 C1152 1.400 . S
C1151 C1156 1.490 . S
C1152 H1142 0.930 . S
C1152 C1151 1.400 . S
C1152 C1155 1.386 . S
H1153 C1169 0.930 . S
H1154 C1170 0.931 . S
C1155 H1143 0.929 . S
C1155 C1149 1.388 1_556 S
C1155 C1152 1.386 . S
C1156 C1151 1.490 . S
C1156 C1158 1.395 . S
C1156 C1159 1.403 . S
H1157 C1163 0.930 . S
C1158 H1144 0.930 . S
C1158 C1156 1.395 . S
C1158 C1161 1.403 . S
C1159 C1156 1.403 . S
C1159 C1160 1.524 . S
C1159 C1163 1.400 . S
C1160 H1145 0.960 . S
C1160 H1146 0.960 . S
C1160 H1147 0.960 . S
C1160 C1159 1.524 . S
C1161 C1158 1.403 . S
C1161 C1162 1.392 . S
C1161 C1165 1.495 . S
C1162 C1161 1.392 . S
C1162 C1163 1.385 . S
C1162 C1164 1.478 . S
C1163 H1157 0.930 . S
C1163 C1159 1.400 . S
C1163 C1162 1.385 . S
C1164 C1162 1.478 . S
C1164 C1166 1.381 . S
C1164 C1170 1.383 . S
C1165 C1161 1.495 . S
C1165 H1171 0.959 . S
C1165 H1172 0.961 . S
C1165 H1173 0.960 . S
C1166 C1164 1.381 . S
C1166 C1167 1.394 . S
C1166 H1174 0.930 . S
C1167 C1166 1.394 . S
C1167 C1168 1.383 . S
C1167 H1175 0.929 . S
C1168 C1167 1.383 . S
C1168 C1169 1.377 . S
C1169 H1153 0.930 . S
C1169 C1168 1.377 . S
C1169 C1170 1.379 . S
C1170 H1154 0.931 . S
C1170 C1164 1.383 . S
C1170 C1169 1.379 . S
H1171 C1165 0.959 . S
H1172 C1165 0.961 . S
H1173 C1165 0.960 . S
H1174 C1166 0.930 . S
H1175 C1167 0.929 . S
H1176 C1184 0.929 . S
H1177 C1186 0.930 . S
H1178 C1188 0.930 . S
H1179 C1191 0.929 . S
H1180 C1194 0.930 . S
H1181 C1196 0.960 . S
H1182 C1196 0.960 . S
H1183 C1196 0.960 . S
C1184 H1176 0.929 . S
C1184 C1185 1.377 . S
C1184 C1186 1.384 . S
C1185 C1184 1.377 . S
C1185 C1191 1.390 . S
C1186 H1177 0.930 . S
C1186 C1184 1.384 . S
C1186 C1187 1.372 . S
C1187 C1186 1.372 . S
C1187 C1188 1.400 . S
C1187 C1192 1.490 . S
C1188 H1178 0.930 . S
C1188 C1187 1.400 . S
C1188 C1191 1.386 . S
H1189 C1205 0.930 . S
H1190 C1206 0.931 . S
C1191 H1179 0.929 . S
C1191 C1185 1.390 . S
C1191 C1188 1.386 . S
C1192 C1187 1.490 . S
C1192 C1194 1.395 . S
C1192 C1195 1.403 . S
H1193 C1199 0.930 . S
C1194 H1180 0.930 . S
C1194 C1192 1.395 . S
C1194 C1197 1.403 . S
C1195 C1192 1.403 . S
C1195 C1196 1.524 . S
C1195 C1199 1.400 . S
C1196 H1181 0.960 . S
C1196 H1182 0.960 . S
C1196 H1183 0.960 . S
C1196 C1195 1.524 . S
C1197 C1194 1.403 . S
C1197 C1198 1.392 . S
C1197 C1201 1.495 . S
C1198 C1197 1.392 . S
C1198 C1199 1.385 . S
C1198 C1200 1.478 . S
C1199 H1193 0.930 . S
C1199 C1195 1.400 . S
C1199 C1198 1.385 . S
C1200 C1198 1.478 . S
C1200 C1202 1.381 . S
C1200 C1206 1.383 . S
C1201 C1197 1.495 . S
C1201 H1207 0.959 . S
C1201 H1208 0.961 . S
C1201 H1209 0.960 . S
C1202 C1200 1.381 . S
C1202 C1203 1.394 . S
C1202 H1210 0.930 . S
C1203 C1202 1.394 . S
C1203 C1204 1.383 . S
C1203 H1211 0.929 . S
C1204 C1203 1.383 . S
C1204 C1205 1.377 . S
C1205 H1189 0.930 . S
C1205 C1204 1.377 . S
C1205 C1206 1.379 . S
C1206 H1190 0.931 . S
C1206 C1200 1.383 . S
C1206 C1205 1.379 . S
H1207 C1201 0.959 . S
H1208 C1201 0.961 . S
H1209 C1201 0.960 . S
H1210 C1202 0.930 . S
H1211 C1203 0.929 . S
H1212 C1220 0.929 . S
H1213 C1222 0.930 . S
H1214 C1224 0.930 . S
H1215 C1227 0.929 . S
H1216 C1230 0.930 . S
H1217 C1232 0.960 . S
H1218 C1232 0.960 . S
H1219 C1232 0.960 . S
C1220 H1212 0.929 . S
C1220 C1221 1.377 . S
C1220 C1222 1.384 . S
C1221 C1220 1.377 . S
C1221 C1227 1.390 . S
C1222 H1213 0.930 . S
C1222 C1220 1.384 . S
C1222 C1223 1.372 . S
C1223 C1222 1.372 . S
C1223 C1224 1.400 . S
C1223 C1228 1.490 . S
C1224 H1214 0.930 . S
C1224 C1223 1.400 . S
C1224 C1227 1.386 . S
H1225 C1241 0.930 . S
H1226 C1242 0.931 . S
C1227 H1215 0.929 . S
C1227 C1221 1.390 . S
C1227 C1224 1.386 . S
C1228 C1223 1.490 . S
C1228 C1230 1.395 . S
C1228 C1231 1.403 . S
H1229 C1235 0.930 . S
C1230 H1216 0.930 . S
C1230 C1228 1.395 . S
C1230 C1233 1.403 . S
C1231 C1228 1.403 . S
C1231 C1232 1.524 . S
C1231 C1235 1.400 . S
C1232 H1217 0.960 . S
C1232 H1218 0.960 . S
C1232 H1219 0.960 . S
C1232 C1231 1.524 . S
C1233 C1230 1.403 . S
C1233 C1234 1.392 . S
C1233 C1237 1.495 . S
C1234 C1233 1.392 . S
C1234 C1235 1.385 . S
C1234 C1236 1.478 . S
C1235 H1229 0.930 . S
C1235 C1231 1.400 . S
C1235 C1234 1.385 . S
C1236 C1234 1.478 . S
C1236 C1238 1.381 . S
C1236 C1242 1.383 . S
C1237 C1233 1.495 . S
C1237 H1243 0.959 . S
C1237 H1244 0.961 . S
C1237 H1245 0.960 . S
C1238 C1236 1.381 . S
C1238 C1239 1.394 . S
C1238 H1246 0.930 . S
C1239 C1238 1.394 . S
C1239 C1240 1.383 . S
C1239 H1247 0.929 . S
C1240 C1239 1.383 . S
C1240 C1241 1.377 . S
C1241 H1225 0.930 . S
C1241 C1240 1.377 . S
C1241 C1242 1.379 . S
C1242 H1226 0.931 . S
C1242 C1236 1.383 . S
C1242 C1241 1.379 . S
H1243 C1237 0.959 . S
H1244 C1237 0.961 . S
H1245 C1237 0.960 . S
H1246 C1238 0.930 . S
H1247 C1239 0.929 . S
H1248 C1256 0.929 . S
H1249 C1258 0.930 . S
H1250 C1260 0.930 . S
H1251 C1263 0.929 . S
H1252 C1266 0.930 . S
H1253 C1268 0.960 . S
H1254 C1268 0.960 . S
H1255 C1268 0.960 . S
C1256 H1248 0.929 . S
C1256 C1257 1.377 . S
C1256 C1258 1.384 . S
C1257 C1256 1.377 . S
C1257 C1263 1.390 . S
C1258 H1249 0.930 . S
C1258 C1256 1.384 . S
C1258 C1259 1.372 . S
C1259 C1258 1.372 . S
C1259 C1260 1.400 . S
C1259 C1264 1.490 . S
C1260 H1250 0.930 . S
C1260 C1259 1.400 . S
C1260 C1263 1.386 . S
H1261 C1277 0.930 . S
H1262 C1278 0.931 . S
C1263 H1251 0.929 . S
C1263 C1257 1.390 . S
C1263 C1260 1.386 . S
C1264 C1259 1.490 . S
C1264 C1266 1.395 . S
C1264 C1267 1.403 . S
H1265 C1271 0.930 . S
C1266 H1252 0.930 . S
C1266 C1264 1.395 . S
C1266 C1269 1.403 . S
C1267 C1264 1.403 . S
C1267 C1268 1.524 . S
C1267 C1271 1.400 . S
C1268 H1253 0.960 . S
C1268 H1254 0.960 . S
C1268 H1255 0.960 . S
C1268 C1267 1.524 . S
C1269 C1266 1.403 . S
C1269 C1270 1.392 . S
C1269 C1273 1.495 . S
C1270 C1269 1.392 . S
C1270 C1271 1.385 . S
C1270 C1272 1.478 . S
C1271 H1265 0.930 . S
C1271 C1267 1.400 . S
C1271 C1270 1.385 . S
C1272 C1270 1.478 . S
C1272 C1274 1.381 . S
C1272 C1278 1.383 . S
C1273 C1269 1.495 . S
C1273 H1279 0.959 . S
C1273 H1280 0.961 . S
C1273 H1281 0.960 . S
C1274 C1272 1.381 . S
C1274 C1275 1.394 . S
C1274 H1282 0.930 . S
C1275 C1274 1.394 . S
C1275 C1276 1.383 . S
C1275 H1283 0.929 . S
C1276 C1275 1.383 . S
C1276 C1277 1.377 . S
C1277 H1261 0.930 . S
C1277 C1276 1.377 . S
C1277 C1278 1.379 . S
C1278 H1262 0.931 . S
C1278 C1272 1.383 . S
C1278 C1277 1.379 . S
H1279 C1273 0.959 . S
H1280 C1273 0.961 . S
H1281 C1273 0.960 . S
H1282 C1274 0.930 . S
H1283 C1275 0.929 . S
H1284 C1292 0.929 . S
H1285 C1294 0.930 . S
H1286 C1296 0.930 . S
H1287 C1299 0.929 . S
H1288 C1302 0.930 . S
H1289 C1304 0.960 . S
H1290 C1304 0.960 . S
H1291 C1304 0.960 . S
C1292 H1284 0.929 . S
C1292 C1293 1.377 . S
C1292 C1294 1.384 . S
C1293 C1292 1.377 . S
C1293 C1299 1.390 . S
C1294 H1285 0.930 . S
C1294 C1292 1.384 . S
C1294 C1295 1.372 . S
C1295 C1294 1.372 . S
C1295 C1296 1.400 . S
C1295 C1300 1.490 . S
C1296 H1286 0.930 . S
C1296 C1295 1.400 . S
C1296 C1299 1.386 . S
H1297 C1313 0.930 . S
H1298 C1314 0.931 . S
C1299 H1287 0.929 . S
C1299 C1293 1.390 . S
C1299 C1296 1.386 . S
C1300 C1295 1.490 . S
C1300 C1302 1.395 . S
C1300 C1303 1.403 . S
H1301 C1307 0.930 . S
C1302 H1288 0.930 . S
C1302 C1300 1.395 . S
C1302 C1305 1.403 . S
C1303 C1300 1.403 . S
C1303 C1304 1.524 . S
C1303 C1307 1.400 . S
C1304 H1289 0.960 . S
C1304 H1290 0.960 . S
C1304 H1291 0.960 . S
C1304 C1303 1.524 . S
C1305 C1302 1.403 . S
C1305 C1306 1.392 . S
C1305 C1309 1.495 . S
C1306 C1305 1.392 . S
C1306 C1307 1.385 . S
C1306 C1308 1.478 . S
C1307 H1301 0.930 . S
C1307 C1303 1.400 . S
C1307 C1306 1.385 . S
C1308 C1306 1.478 . S
C1308 C1310 1.381 . S
C1308 C1314 1.383 . S
C1309 C1305 1.495 . S
C1309 H1315 0.959 . S
C1309 H1316 0.961 . S
C1309 H1317 0.960 . S
C1310 C1308 1.381 . S
C1310 C1311 1.394 . S
C1310 H1318 0.930 . S
C1311 C1310 1.394 . S
C1311 C1312 1.383 . S
C1311 H1319 0.929 . S
C1312 C1311 1.383 . S
C1312 C1313 1.377 . S
C1313 H1297 0.930 . S
C1313 C1312 1.377 . S
C1313 C1314 1.379 . S
C1314 H1298 0.931 . S
C1314 C1308 1.383 . S
C1314 C1313 1.379 . S
H1315 C1309 0.959 . S
H1316 C1309 0.961 . S
H1317 C1309 0.960 . S
H1318 C1310 0.930 . S
H1319 C1311 0.929 . S
H1320 C1328 0.929 . S
H1321 C1330 0.930 . S
H1322 C1332 0.930 . S
H1323 C1335 0.929 . S
H1324 C1338 0.930 . S
H1325 C1340 0.960 . S
H1326 C1340 0.960 . S
H1327 C1340 0.960 . S
C1328 H1320 0.929 . S
C1328 C1329 1.376 1_554 S
C1328 C1330 1.384 . S
C1329 C1328 1.376 1_556 S
C1329 C1335 1.388 1_556 S
C1330 H1321 0.930 . S
C1330 C1328 1.384 . S
C1330 C1331 1.372 . S
C1331 C1330 1.372 . S
C1331 C1332 1.400 . S
C1331 C1336 1.490 . S
C1332 H1322 0.930 . S
C1332 C1331 1.400 . S
C1332 C1335 1.386 . S
H1333 C1349 0.930 . S
H1334 C1350 0.931 . S
C1335 H1323 0.929 . S
C1335 C1329 1.388 1_554 S
C1335 C1332 1.386 . S
C1336 C1331 1.490 . S
C1336 C1338 1.395 . S
C1336 C1339 1.403 . S
H1337 C1343 0.930 . S
C1338 H1324 0.930 . S
C1338 C1336 1.395 . S
C1338 C1341 1.403 . S
C1339 C1336 1.403 . S
C1339 C1340 1.524 . S
C1339 C1343 1.400 . S
C1340 H1325 0.960 . S
C1340 H1326 0.960 . S
C1340 H1327 0.960 . S
C1340 C1339 1.524 . S
C1341 C1338 1.403 . S
C1341 C1342 1.392 . S
C1341 C1345 1.495 . S
C1342 C1341 1.392 . S
C1342 C1343 1.385 . S
C1342 C1344 1.478 . S
C1343 H1337 0.930 . S
C1343 C1339 1.400 . S
C1343 C1342 1.385 . S
C1344 C1342 1.478 . S
C1344 C1346 1.381 . S
C1344 C1350 1.383 . S
C1345 C1341 1.495 . S
C1345 H1351 0.959 . S
C1345 H1352 0.961 . S
C1345 H1353 0.960 . S
C1346 C1344 1.381 . S
C1346 C1347 1.394 . S
C1346 H1354 0.930 . S
C1347 C1346 1.394 . S
C1347 C1348 1.383 . S
C1347 H1355 0.929 . S
C1348 C1347 1.383 . S
C1348 C1349 1.377 . S
C1349 H1333 0.930 . S
C1349 C1348 1.377 . S
C1349 C1350 1.379 . S
C1350 H1334 0.931 . S
C1350 C1344 1.383 . S
C1350 C1349 1.379 . S
H1351 C1345 0.959 . S
H1352 C1345 0.961 . S
H1353 C1345 0.960 . S
H1354 C1346 0.930 . S
H1355 C1347 0.929 . S
H1356 C1364 0.929 . S
H1357 C1366 0.930 . S
H1358 C1368 0.930 . S
H1359 C1371 0.929 . S
H1360 C1374 0.930 . S
H1361 C1376 0.960 . S
H1362 C1376 0.960 . S
H1363 C1376 0.960 . S
C1364 H1356 0.929 . S
C1364 C1365 1.377 . S
C1364 C1366 1.384 . S
C1365 C1364 1.377 . S
C1365 C1371 1.390 . S
C1366 H1357 0.930 . S
C1366 C1364 1.384 . S
C1366 C1367 1.372 . S
C1367 C1366 1.372 . S
C1367 C1368 1.400 . S
C1367 C1372 1.490 . S
C1368 H1358 0.930 . S
C1368 C1367 1.400 . S
C1368 C1371 1.386 . S
H1369 C1385 0.930 . S
H1370 C1386 0.931 . S
C1371 H1359 0.929 . S
C1371 C1365 1.390 . S
C1371 C1368 1.386 . S
C1372 C1367 1.490 . S
C1372 C1374 1.395 . S
C1372 C1375 1.403 . S
H1373 C1379 0.930 . S
C1374 H1360 0.930 . S
C1374 C1372 1.395 . S
C1374 C1377 1.403 . S
C1375 C1372 1.403 . S
C1375 C1376 1.524 . S
C1375 C1379 1.400 . S
C1376 H1361 0.960 . S
C1376 H1362 0.960 . S
C1376 H1363 0.960 . S
C1376 C1375 1.524 . S
C1377 C1374 1.403 . S
C1377 C1378 1.392 . S
C1377 C1381 1.495 . S
C1378 C1377 1.392 . S
C1378 C1379 1.385 . S
C1378 C1380 1.478 . S
C1379 H1373 0.930 . S
C1379 C1375 1.400 . S
C1379 C1378 1.385 . S
C1380 C1378 1.478 . S
C1380 C1382 1.381 . S
C1380 C1386 1.383 . S
C1381 C1377 1.495 . S
C1381 H1387 0.959 . S
C1381 H1388 0.961 . S
C1381 H1389 0.960 . S
C1382 C1380 1.381 . S
C1382 C1383 1.394 . S
C1382 H1390 0.930 . S
C1383 C1382 1.394 . S
C1383 C1384 1.380 1_556 S
C1383 H1391 0.929 . S
C1384 C1383 1.380 1_554 S
C1384 C1385 1.373 1_554 S
C1385 H1369 0.930 . S
C1385 C1384 1.373 1_556 S
C1385 C1386 1.379 . S
C1386 H1370 0.931 . S
C1386 C1380 1.383 . S
C1386 C1385 1.379 . S
H1387 C1381 0.959 . S
H1388 C1381 0.961 . S
H1389 C1381 0.960 . S
H1390 C1382 0.930 . S
H1391 C1383 0.929 . S
H1392 C1400 0.929 . S
H1393 C1402 0.930 . S
H1394 C1404 0.930 . S
H1395 C1407 0.929 . S
H1396 C1410 0.930 . S
H1397 C1412 0.960 . S
H1398 C1412 0.960 . S
H1399 C1412 0.960 . S
C1400 H1392 0.929 . S
C1400 C1401 1.377 . S
C1400 C1402 1.384 . S
C1401 C1400 1.377 . S
C1401 C1407 1.390 . S
C1402 H1393 0.930 . S
C1402 C1400 1.384 . S
C1402 C1403 1.372 . S
C1403 C1402 1.372 . S
C1403 C1404 1.400 . S
C1403 C1408 1.490 . S
C1404 H1394 0.930 . S
C1404 C1403 1.400 . S
C1404 C1407 1.386 . S
H1405 C1421 0.930 . S
H1406 C1422 0.931 . S
C1407 H1395 0.929 . S
C1407 C1401 1.390 . S
C1407 C1404 1.386 . S
C1408 C1403 1.490 . S
C1408 C1410 1.395 . S
C1408 C1411 1.403 . S
H1409 C1415 0.930 . S
C1410 H1396 0.930 . S
C1410 C1408 1.395 . S
C1410 C1413 1.403 . S
C1411 C1408 1.403 . S
C1411 C1412 1.524 . S
C1411 C1415 1.400 . S
C1412 H1397 0.960 . S
C1412 H1398 0.960 . S
C1412 H1399 0.960 . S
C1412 C1411 1.524 . S
C1413 C1410 1.403 . S
C1413 C1414 1.392 . S
C1413 C1417 1.495 . S
C1414 C1413 1.392 . S
C1414 C1415 1.385 . S
C1414 C1416 1.478 . S
C1415 H1409 0.930 . S
C1415 C1411 1.400 . S
C1415 C1414 1.385 . S
C1416 C1414 1.478 . S
C1416 C1418 1.381 . S
C1416 C1422 1.383 . S
C1417 C1413 1.495 . S
C1417 H1423 0.959 . S
C1417 H1424 0.961 . S
C1417 H1425 0.960 . S
C1418 C1416 1.381 . S
C1418 C1419 1.394 . S
C1418 H1426 0.930 . S
C1419 C1418 1.394 . S
C1419 C1420 1.383 . S
C1419 H1427 0.929 . S
C1420 C1419 1.383 . S
C1420 C1421 1.377 . S
C1421 H1405 0.930 . S
C1421 C1420 1.377 . S
C1421 C1422 1.379 . S
C1422 H1406 0.931 . S
C1422 C1416 1.383 . S
C1422 C1421 1.379 . S
H1423 C1417 0.959 . S
H1424 C1417 0.961 . S
H1425 C1417 0.960 . S
H1426 C1418 0.930 . S
H1427 C1419 0.929 . S
H1428 C1436 0.929 . S
H1429 C1438 0.930 . S
H1430 C1440 0.930 . S
H1431 C1443 0.929 . S
H1432 C1446 0.930 . S
H1433 C1448 0.960 . S
H1434 C1448 0.960 . S
H1435 C1448 0.960 . S
C1436 H1428 0.929 . S
C1436 C1437 1.377 . S
C1436 C1438 1.384 . S
C1437 C1436 1.377 . S
C1437 C1443 1.390 . S
C1438 H1429 0.930 . S
C1438 C1436 1.384 . S
C1438 C1439 1.372 . S
C1439 C1438 1.372 . S
C1439 C1440 1.400 . S
C1439 C1444 1.490 . S
C1440 H1430 0.930 . S
C1440 C1439 1.400 . S
C1440 C1443 1.386 . S
H1441 C1457 0.930 . S
H1442 C1458 0.931 . S
C1443 H1431 0.929 . S
C1443 C1437 1.390 . S
C1443 C1440 1.386 . S
C1444 C1439 1.490 . S
C1444 C1446 1.396 . S
C1444 C1447 1.403 1_565 S
H1445 C1451 0.930 . S
C1446 H1432 0.930 . S
C1446 C1444 1.396 . S
C1446 C1449 1.402 1_655 S
C1447 C1444 1.403 1_545 S
C1447 C1448 1.524 . S
C1447 C1451 1.400 1_655 S
C1448 H1433 0.960 . S
C1448 H1434 0.960 . S
C1448 H1435 0.960 . S
C1448 C1447 1.524 . S
C1449 C1446 1.402 1_455 S
C1449 C1450 1.392 1_565 S
C1449 C1453 1.495 . S
C1450 C1449 1.392 1_545 S
C1450 C1451 1.385 . S
C1450 C1452 1.478 . S
C1451 H1445 0.930 . S
C1451 C1447 1.400 1_455 S
C1451 C1450 1.385 . S
C1452 C1450 1.478 . S
C1452 C1454 1.381 . S
C1452 C1458 1.383 . S
C1453 C1449 1.495 . S
C1453 H1459 0.959 . S
C1453 H1460 0.961 . S
C1453 H1461 0.960 . S
C1454 C1452 1.381 . S
C1454 C1455 1.394 . S
C1454 H1462 0.930 . S
C1455 C1454 1.394 . S
C1455 C1456 1.383 . S
C1455 H1463 0.929 . S
C1456 C1455 1.383 . S
C1456 C1457 1.377 . S
C1457 H1441 0.930 . S
C1457 C1456 1.377 . S
C1457 C1458 1.379 . S
C1458 H1442 0.931 . S
C1458 C1452 1.383 . S
C1458 C1457 1.379 . S
H1459 C1453 0.959 . S
H1460 C1453 0.961 . S
H1461 C1453 0.960 . S
H1462 C1454 0.930 . S
H1463 C1455 0.929 . S
H1464 C1472 0.929 . S
H1465 C1474 0.930 . S
H1466 C1476 0.930 . S
H1467 C1479 0.929 . S
H1468 C1482 0.930 . S
H1469 C1484 0.960 . S
H1470 C1484 0.960 1_565 S
H1471 C1484 0.960 . S
C1472 H1464 0.929 . S
C1472 C1473 1.377 . S
C1472 C1474 1.384 . S
C1473 C1472 1.377 . S
C1473 C1479 1.390 . S
C1474 H1465 0.930 . S
C1474 C1472 1.384 . S
C1474 C1475 1.372 . S
C1475 C1474 1.372 . S
C1475 C1476 1.400 . S
C1475 C1480 1.490 . S
C1476 H1466 0.930 . S
C1476 C1475 1.400 . S
C1476 C1479 1.386 . S
H1477 C1493 0.930 . S
H1478 C1494 0.931 . S
C1479 H1467 0.929 . S
C1479 C1473 1.390 . S
C1479 C1476 1.386 . S
C1480 C1475 1.490 . S
C1480 C1482 1.395 . S
C1480 C1483 1.403 1_565 S
H1481 C1487 0.930 . S
C1482 H1468 0.930 . S
C1482 C1480 1.395 . S
C1482 C1485 1.403 . S
C1483 C1480 1.403 1_545 S
C1483 C1484 1.524 . S
C1483 C1487 1.400 . S
C1484 H1469 0.960 . S
C1484 H1470 0.960 1_545 S
C1484 H1471 0.960 . S
C1484 C1483 1.524 . S
C1485 C1482 1.403 . S
C1485 C1486 1.392 1_565 S
C1485 C1489 1.495 . S
C1486 C1485 1.392 1_545 S
C1486 C1487 1.385 . S
C1486 C1488 1.478 . S
C1487 H1481 0.930 . S
C1487 C1483 1.400 . S
C1487 C1486 1.385 . S
C1488 C1486 1.478 . S
C1488 C1490 1.381 . S
C1488 C1494 1.383 . S
C1489 C1485 1.495 . S
C1489 H1495 0.959 . S
C1489 H1496 0.932 1_565 S
C1489 H1497 0.960 . S
C1490 C1488 1.381 . S
C1490 C1491 1.394 . S
C1490 H1498 0.923 1_545 S
C1491 C1490 1.394 . S
C1491 C1492 1.383 . S
C1491 H1499 0.929 . S
C1492 C1491 1.383 . S
C1492 C1493 1.377 . S
C1493 H1477 0.930 . S
C1493 C1492 1.377 . S
C1493 C1494 1.379 . S
C1494 H1478 0.931 . S
C1494 C1488 1.383 . S
C1494 C1493 1.379 . S
H1495 C1489 0.959 . S
H1496 C1489 0.932 1_545 S
H1497 C1489 0.960 . S
H1498 C1490 0.923 1_565 S
H1499 C1491 0.929 . S
H1500 C1508 0.929 . S
H1501 C1510 0.930 . S
H1502 C1512 0.930 . S
H1503 C1515 0.929 . S
H1504 C1518 0.930 . S
H1505 C1520 0.960 . S
H1506 C1520 0.960 . S
H1507 C1520 0.960 . S
C1508 H1500 0.929 . S
C1508 C1509 1.377 . S
C1508 C1510 1.384 . S
C1509 C1508 1.377 . S
C1509 C1515 1.390 . S
C1510 H1501 0.930 . S
C1510 C1508 1.384 . S
C1510 C1511 1.372 . S
C1511 C1510 1.372 . S
C1511 C1512 1.400 . S
C1511 C1516 1.490 . S
C1512 H1502 0.930 . S
C1512 C1511 1.400 . S
C1512 C1515 1.386 . S
H1513 C1529 0.930 . S
H1514 C1530 0.931 . S
C1515 H1503 0.929 . S
C1515 C1509 1.390 . S
C1515 C1512 1.386 . S
C1516 C1511 1.490 . S
C1516 C1518 1.395 1_655 S
C1516 C1519 1.403 . S
H1517 C1523 0.930 . S
C1518 H1504 0.930 . S
C1518 C1516 1.395 1_455 S
C1518 C1521 1.403 . S
C1519 C1516 1.403 . S
C1519 C1520 1.524 . S
C1519 C1523 1.400 . S
C1520 H1505 0.960 . S
C1520 H1506 0.960 . S
C1520 H1507 0.960 . S
C1520 C1519 1.524 . S
C1521 C1518 1.403 . S
C1521 C1522 1.392 . S
C1521 C1525 1.495 . S
C1522 C1521 1.392 . S
C1522 C1523 1.385 1_455 S
C1522 C1524 1.478 . S
C1523 H1517 0.930 . S
C1523 C1519 1.400 . S
C1523 C1522 1.385 1_655 S
C1524 C1522 1.478 . S
C1524 C1526 1.381 . S
C1524 C1530 1.383 . S
C1525 C1521 1.495 . S
C1525 H1531 0.959 . S
C1525 H1532 0.961 . S
C1525 H1533 0.960 . S
C1526 C1524 1.381 . S
C1526 C1527 1.394 . S
C1526 H1534 0.930 . S
C1527 C1526 1.394 . S
C1527 C1528 1.383 . S
C1527 H1535 0.929 . S
C1528 C1527 1.383 . S
C1528 C1529 1.377 . S
C1529 H1513 0.930 . S
C1529 C1528 1.377 . S
C1529 C1530 1.379 . S
C1530 H1514 0.931 . S
C1530 C1524 1.383 . S
C1530 C1529 1.379 . S
H1531 C1525 0.959 . S
H1532 C1525 0.961 . S
H1533 C1525 0.960 . S
H1534 C1526 0.930 . S
H1535 C1527 0.929 . S
H1536 C1544 0.929 . S
H1537 C1546 0.930 . S
H1538 C1548 0.930 . S
H1539 C1551 0.929 . S
H1540 C1554 0.930 . S
H1541 C1556 0.960 . S
H1542 C1556 0.960 . S
H1543 C1556 0.960 . S
C1544 H1536 0.929 . S
C1544 C1545 1.377 . S
C1544 C1546 1.384 . S
C1545 C1544 1.377 . S
C1545 C1551 1.390 . S
C1546 H1537 0.930 . S
C1546 C1544 1.384 . S
C1546 C1547 1.372 . S
C1547 C1546 1.372 . S
C1547 C1548 1.400 . S
C1547 C1552 1.490 . S
C1548 H1538 0.930 . S
C1548 C1547 1.400 . S
C1548 C1551 1.386 . S
H1549 C1565 0.930 . S
H1550 C1566 0.931 . S
C1551 H1539 0.929 . S
C1551 C1545 1.390 . S
C1551 C1548 1.386 . S
C1552 C1547 1.490 . S
C1552 C1554 1.395 . S
C1552 C1555 1.403 . S
H1553 C1559 0.930 . S
C1554 H1540 0.930 . S
C1554 C1552 1.395 . S
C1554 C1557 1.403 . S
C1555 C1552 1.403 . S
C1555 C1556 1.524 . S
C1555 C1559 1.400 . S
C1556 H1541 0.960 . S
C1556 H1542 0.960 . S
C1556 H1543 0.960 . S
C1556 C1555 1.524 . S
C1557 C1554 1.403 . S
C1557 C1558 1.392 . S
C1557 C1561 1.495 . S
C1558 C1557 1.392 . S
C1558 C1559 1.385 . S
C1558 C1560 1.478 . S
C1559 H1553 0.930 . S
C1559 C1555 1.400 . S
C1559 C1558 1.385 . S
C1560 C1558 1.478 . S
C1560 C1562 1.381 . S
C1560 C1566 1.383 . S
C1561 C1557 1.495 . S
C1561 H1567 0.959 . S
C1561 H1568 0.961 . S
C1561 H1569 0.960 . S
C1562 C1560 1.381 . S
C1562 C1563 1.394 . S
C1562 H1570 0.930 . S
C1563 C1562 1.394 . S
C1563 C1564 1.383 . S
C1563 H1571 0.929 . S
C1564 C1563 1.383 . S
C1564 C1565 1.377 . S
C1565 H1549 0.930 . S
C1565 C1564 1.377 . S
C1565 C1566 1.379 . S
C1566 H1550 0.931 . S
C1566 C1560 1.383 . S
C1566 C1565 1.379 . S
H1567 C1561 0.959 . S
H1568 C1561 0.961 . S
H1569 C1561 0.960 . S
H1570 C1562 0.930 . S
H1571 C1563 0.929 . S
H1572 C1580 0.929 . S
H1573 C1582 0.930 . S
H1574 C1584 0.930 . S
H1575 C1587 0.929 . S
H1576 C1590 0.930 . S
H1577 C1592 0.960 . S
H1578 C1592 0.960 . S
H1579 C1592 0.960 . S
C1580 H1572 0.929 . S
C1580 C1581 1.377 . S
C1580 C1582 1.384 . S
C1581 C1580 1.377 . S
C1581 C1587 1.390 . S
C1582 H1573 0.930 . S
C1582 C1580 1.384 . S
C1582 C1583 1.372 . S
C1583 C1582 1.372 . S
C1583 C1584 1.400 . S
C1583 C1588 1.490 . S
C1584 H1574 0.930 . S
C1584 C1583 1.400 . S
C1584 C1587 1.386 . S
H1585 C1601 0.930 . S
H1586 C1602 0.931 . S
C1587 H1575 0.929 . S
C1587 C1581 1.390 . S
C1587 C1584 1.386 . S
C1588 C1583 1.490 . S
C1588 C1590 1.395 . S
C1588 C1591 1.403 1_545 S
H1589 C1595 0.930 . S
C1590 H1576 0.930 . S
C1590 C1588 1.395 . S
C1590 C1593 1.403 . S
C1591 C1588 1.403 1_565 S
C1591 C1592 1.524 . S
C1591 C1595 1.400 . S
C1592 H1577 0.960 . S
C1592 H1578 0.960 . S
C1592 H1579 0.960 . S
C1592 C1591 1.524 . S
C1593 C1590 1.403 . S
C1593 C1594 1.392 1_545 S
C1593 C1597 1.495 . S
C1594 C1593 1.392 1_565 S
C1594 C1595 1.385 . S
C1594 C1596 1.478 . S
C1595 H1589 0.930 . S
C1595 C1591 1.400 . S
C1595 C1594 1.385 . S
C1596 C1594 1.478 . S
C1596 C1598 1.381 . S
C1596 C1602 1.383 . S
C1597 C1593 1.495 . S
C1597 H1603 0.959 . S
C1597 H1604 0.961 . S
C1597 H1605 0.960 . S
C1598 C1596 1.381 . S
C1598 C1599 1.394 . S
C1598 H1606 0.930 . S
C1599 C1598 1.394 . S
C1599 C1600 1.383 . S
C1599 H1607 0.929 . S
C1600 C1599 1.383 . S
C1600 C1601 1.377 . S
C1601 H1585 0.930 . S
C1601 C1600 1.377 . S
C1601 C1602 1.379 . S
C1602 H1586 0.931 . S
C1602 C1596 1.383 . S
C1602 C1601 1.379 . S
H1603 C1597 0.959 . S
H1604 C1597 0.961 . S
H1605 C1597 0.960 . S
H1606 C1598 0.930 . S
H1607 C1599 0.929 . S
H1608 C1616 0.929 . S
H1609 C1618 0.930 . S
H1610 C1620 0.930 . S
H1611 C1623 0.929 . S
H1612 C1626 0.930 . S
H1613 C1628 0.960 . S
H1614 C1628 0.960 . S
H1615 C1628 0.960 . S
C1616 H1608 0.929 . S
C1616 C1617 1.377 . S
C1616 C1618 1.384 . S
C1617 C1616 1.377 . S
C1617 C1623 1.390 . S
C1618 H1609 0.930 . S
C1618 C1616 1.384 . S
C1618 C1619 1.372 . S
C1619 C1618 1.372 . S
C1619 C1620 1.400 . S
C1619 C1624 1.490 . S
C1620 H1610 0.930 . S
C1620 C1619 1.400 . S
C1620 C1623 1.386 . S
H1621 C1637 0.930 . S
H1622 C1638 0.931 . S
C1623 H1611 0.929 . S
C1623 C1617 1.390 . S
C1623 C1620 1.386 . S
C1624 C1619 1.490 . S
C1624 C1626 1.395 . S
C1624 C1627 1.403 1_655 S
H1625 C1631 0.930 . S
C1626 H1612 0.930 . S
C1626 C1624 1.395 . S
C1626 C1629 1.403 . S
C1627 C1624 1.403 1_455 S
C1627 C1628 1.524 . S
C1627 C1631 1.400 . S
C1628 H1613 0.960 . S
C1628 H1614 0.960 . S
C1628 H1615 0.960 . S
C1628 C1627 1.524 . S
C1629 C1626 1.403 . S
C1629 C1630 1.392 1_655 S
C1629 C1633 1.495 . S
C1630 C1629 1.392 1_455 S
C1630 C1631 1.385 . S
C1630 C1632 1.478 . S
C1631 H1625 0.930 . S
C1631 C1627 1.400 . S
C1631 C1630 1.385 . S
C1632 C1630 1.478 . S
C1632 C1634 1.381 . S
C1632 C1638 1.383 . S
C1633 C1629 1.495 . S
C1633 H1639 0.959 . S
C1633 H1640 0.961 . S
C1633 H1641 0.960 . S
C1634 C1632 1.381 . S
C1634 C1635 1.394 . S
C1634 H1642 0.930 . S
C1635 C1634 1.394 . S
C1635 C1636 1.383 . S
C1635 H1643 0.929 . S
C1636 C1635 1.383 . S
C1636 C1637 1.377 . S
C1637 H1621 0.930 . S
C1637 C1636 1.377 . S
C1637 C1638 1.379 . S
C1638 H1622 0.931 . S
C1638 C1632 1.383 . S
C1638 C1637 1.379 . S
H1639 C1633 0.959 . S
H1640 C1633 0.961 . S
H1641 C1633 0.960 . S
H1642 C1634 0.930 . S
H1643 C1635 0.929 . S
H1644 C1652 0.929 . S
H1645 C1654 0.930 . S
H1646 C1656 0.930 . S
H1647 C1659 0.929 . S
H1648 C1662 0.930 . S
H1649 C1664 0.960 . S
H1650 C1664 0.960 . S
H1651 C1664 0.960 . S
C1652 H1644 0.929 . S
C1652 C1653 1.377 . S
C1652 C1654 1.384 . S
C1653 C1652 1.377 . S
C1653 C1659 1.390 . S
C1654 H1645 0.930 . S
C1654 C1652 1.384 . S
C1654 C1655 1.372 . S
C1655 C1654 1.372 . S
C1655 C1656 1.400 . S
C1655 C1660 1.490 . S
C1656 H1646 0.930 . S
C1656 C1655 1.400 . S
C1656 C1659 1.386 . S
H1657 C1673 0.930 . S
H1658 C1674 0.931 . S
C1659 H1647 0.929 . S
C1659 C1653 1.390 . S
C1659 C1656 1.386 . S
C1660 C1655 1.490 . S
C1660 C1662 1.395 . S
C1660 C1663 1.403 . S
H1661 C1667 0.930 . S
C1662 H1648 0.930 . S
C1662 C1660 1.395 . S
C1662 C1665 1.403 1_554 S
C1663 C1660 1.403 . S
C1663 C1664 1.524 . S
C1663 C1667 1.400 1_554 S
C1664 H1649 0.960 . S
C1664 H1650 0.960 . S
C1664 H1651 0.960 . S
C1664 C1663 1.524 . S
C1665 C1662 1.403 1_556 S
C1665 C1666 1.392 . S
C1665 C1669 1.495 . S
C1666 C1665 1.392 . S
C1666 C1667 1.385 . S
C1666 C1668 1.478 . S
C1667 H1661 0.930 . S
C1667 C1663 1.400 1_556 S
C1667 C1666 1.385 . S
C1668 C1666 1.478 . S
C1668 C1670 1.381 . S
C1668 C1674 1.383 . S
C1669 C1665 1.495 . S
C1669 H1675 0.959 1_556 S
C1669 H1676 0.961 . S
C1669 H1677 0.960 . S
C1670 C1668 1.381 . S
C1670 C1671 1.394 . S
C1670 H1678 0.930 . S
C1671 C1670 1.394 . S
C1671 C1672 1.383 . S
C1671 H1679 0.929 . S
C1672 C1671 1.383 . S
C1672 C1673 1.377 . S
C1673 H1657 0.930 . S
C1673 C1672 1.377 . S
C1673 C1674 1.379 . S
C1674 H1658 0.931 . S
C1674 C1668 1.383 . S
C1674 C1673 1.379 . S
H1675 C1669 0.959 1_554 S
H1676 C1669 0.961 . S
H1677 C1669 0.960 . S
H1678 C1670 0.930 . S
H1679 C1671 0.929 . S
H1680 C1688 0.929 . S
H1681 C1690 0.930 . S
H1682 C1692 0.930 . S
H1683 C1695 0.929 . S
H1684 C1698 0.930 . S
H1685 C1700 0.960 . S
H1686 C1700 0.960 . S
H1687 C1700 0.960 . S
C1688 H1680 0.929 . S
C1688 C1689 1.377 . S
C1688 C1690 1.384 . S
C1689 C1688 1.377 . S
C1689 C1695 1.390 . S
C1690 H1681 0.930 . S
C1690 C1688 1.384 . S
C1690 C1691 1.372 . S
C1691 C1690 1.372 . S
C1691 C1692 1.400 . S
C1691 C1696 1.490 . S
C1692 H1682 0.930 . S
C1692 C1691 1.400 . S
C1692 C1695 1.386 . S
H1693 C1709 0.930 . S
H1694 C1710 0.931 . S
C1695 H1683 0.929 . S
C1695 C1689 1.390 . S
C1695 C1692 1.386 . S
C1696 C1691 1.490 . S
C1696 C1698 1.395 1_455 S
C1696 C1699 1.403 . S
H1697 C1703 0.930 . S
C1698 H1684 0.930 . S
C1698 C1696 1.395 1_655 S
C1698 C1701 1.403 1_556 S
C1699 C1696 1.403 . S
C1699 C1700 1.524 . S
C1699 C1703 1.400 1_556 S
C1700 H1685 0.960 . S
C1700 H1686 0.960 . S
C1700 H1687 0.960 . S
C1700 C1699 1.524 . S
C1701 C1698 1.403 1_554 S
C1701 C1702 1.392 . S
C1701 C1705 1.495 . S
C1702 C1701 1.392 . S
C1702 C1703 1.385 1_655 S
C1702 C1704 1.478 . S
C1703 H1697 0.930 . S
C1703 C1699 1.400 1_554 S
C1703 C1702 1.385 1_455 S
C1704 C1702 1.478 . S
C1704 C1706 1.381 . S
C1704 C1710 1.383 . S
C1705 C1701 1.495 . S
C1705 H1711 0.959 . S
C1705 H1712 0.961 . S
C1705 H1713 0.960 . S
C1706 C1704 1.381 . S
C1706 C1707 1.394 . S
C1706 H1714 0.930 . S
C1707 C1706 1.394 . S
C1707 C1708 1.383 . S
C1707 H1715 0.929 . S
C1708 C1707 1.383 . S
C1708 C1709 1.377 . S
C1709 H1693 0.930 . S
C1709 C1708 1.377 . S
C1709 C1710 1.379 . S
C1710 H1694 0.931 . S
C1710 C1704 1.383 . S
C1710 C1709 1.379 . S
H1711 C1705 0.959 . S
H1712 C1705 0.961 . S
H1713 C1705 0.960 . S
H1714 C1706 0.930 . S
H1715 C1707 0.929 . S
H1716 C1724 0.929 . S
H1717 C1726 0.930 . S
H1718 C1728 0.930 . S
H1719 C1731 0.929 . S
H1720 C1734 0.930 . S
H1721 C1736 0.960 . S
H1722 C1736 0.960 . S
H1723 C1736 0.960 . S
C1724 H1716 0.929 . S
C1724 C1725 1.377 . S
C1724 C1726 1.384 . S
C1725 C1724 1.377 . S
C1725 C1731 1.390 . S
C1726 H1717 0.930 . S
C1726 C1724 1.384 . S
C1726 C1727 1.372 . S
C1727 C1726 1.372 . S
C1727 C1728 1.400 . S
C1727 C1732 1.490 . S
C1728 H1718 0.930 . S
C1728 C1727 1.400 . S
C1728 C1731 1.386 . S
H1729 C1745 0.930 . S
H1730 C1746 0.931 . S
C1731 H1719 0.929 . S
C1731 C1725 1.390 . S
C1731 C1728 1.386 . S
C1732 C1727 1.490 . S
C1732 C1734 1.395 . S
C1732 C1735 1.403 . S
H1733 C1739 0.930 . S
C1734 H1720 0.930 . S
C1734 C1732 1.395 . S
C1734 C1737 1.403 . S
C1735 C1732 1.403 . S
C1735 C1736 1.524 . S
C1735 C1739 1.400 . S
C1736 H1721 0.960 . S
C1736 H1722 0.960 . S
C1736 H1723 0.960 . S
C1736 C1735 1.524 . S
C1737 C1734 1.403 . S
C1737 C1738 1.392 . S
C1737 C1741 1.495 . S
C1738 C1737 1.392 . S
C1738 C1739 1.385 . S
C1738 C1740 1.478 . S
C1739 H1733 0.930 . S
C1739 C1735 1.400 . S
C1739 C1738 1.385 . S
C1740 C1738 1.478 . S
C1740 C1742 1.381 . S
C1740 C1746 1.383 . S
C1741 C1737 1.495 . S
C1741 H1747 0.959 . S
C1741 H1748 0.961 . S
C1741 H1749 0.960 . S
C1742 C1740 1.381 . S
C1742 C1743 1.394 . S
C1742 H1750 0.930 . S
C1743 C1742 1.394 . S
C1743 C1744 1.383 . S
C1743 H1751 0.929 . S
C1744 C1743 1.383 . S
C1744 C1745 1.377 . S
C1745 H1729 0.930 . S
C1745 C1744 1.377 . S
C1745 C1746 1.379 . S
C1746 H1730 0.931 . S
C1746 C1740 1.383 . S
C1746 C1745 1.379 . S
H1747 C1741 0.959 . S
H1748 C1741 0.961 . S
H1749 C1741 0.960 . S
H1750 C1742 0.930 . S
H1751 C1743 0.929 . S
H1752 C1760 0.929 . S
H1753 C1762 0.930 . S
H1754 C1764 0.930 . S
H1755 C1767 0.929 . S
H1756 C1770 0.930 . S
H1757 C1772 0.960 . S
H1758 C1772 0.960 . S
H1759 C1772 0.960 . S
C1760 H1752 0.929 . S
C1760 C1761 1.377 . S
C1760 C1762 1.384 . S
C1761 C1760 1.377 . S
C1761 C1767 1.390 . S
C1762 H1753 0.930 . S
C1762 C1760 1.384 . S
C1762 C1763 1.372 . S
C1763 C1762 1.372 . S
C1763 C1764 1.400 . S
C1763 C1768 1.490 . S
C1764 H1754 0.930 . S
C1764 C1763 1.400 . S
C1764 C1767 1.386 . S
H1765 C1781 0.930 . S
H1766 C1782 0.931 . S
C1767 H1755 0.929 . S
C1767 C1761 1.390 . S
C1767 C1764 1.386 . S
C1768 C1763 1.490 . S
C1768 C1770 1.395 . S
C1768 C1771 1.403 . S
H1769 C1775 0.930 . S
C1770 H1756 0.930 . S
C1770 C1768 1.395 . S
C1770 C1773 1.403 1_554 S
C1771 C1768 1.403 . S
C1771 C1772 1.524 . S
C1771 C1775 1.400 1_554 S
C1772 H1757 0.960 . S
C1772 H1758 0.960 . S
C1772 H1759 0.960 . S
C1772 C1771 1.524 . S
C1773 C1770 1.403 1_556 S
C1773 C1774 1.392 . S
C1773 C1777 1.495 . S
C1774 C1773 1.392 . S
C1774 C1775 1.385 . S
C1774 C1776 1.478 . S
C1775 H1769 0.930 . S
C1775 C1771 1.400 1_556 S
C1775 C1774 1.385 . S
C1776 C1774 1.478 . S
C1776 C1778 1.381 . S
C1776 C1782 1.383 . S
C1777 C1773 1.495 . S
C1777 H1783 0.959 . S
C1777 H1784 0.961 . S
C1777 H1785 0.960 . S
C1778 C1776 1.381 . S
C1778 C1779 1.394 . S
C1778 H1786 0.930 . S
C1779 C1778 1.394 . S
C1779 C1780 1.383 . S
C1779 H1787 0.929 . S
C1780 C1779 1.383 . S
C1780 C1781 1.377 . S
C1781 H1765 0.930 . S
C1781 C1780 1.377 . S
C1781 C1782 1.379 . S
C1782 H1766 0.931 . S
C1782 C1776 1.383 . S
C1782 C1781 1.379 . S
H1783 C1777 0.959 . S
H1784 C1777 0.961 . S
H1785 C1777 0.960 . S
H1786 C1778 0.930 . S
H1787 C1779 0.929 . S
H1788 C1796 0.929 . S
H1789 C1798 0.930 . S
H1790 C1800 0.930 . S
H1791 C1803 0.929 . S
H1792 C1806 0.930 . S
H1793 C1808 0.960 . S
H1794 C1808 0.960 . S
H1795 C1808 0.960 . S
C1796 H1788 0.929 . S
C1796 C1797 1.377 . S
C1796 C1798 1.384 . S
C1797 C1796 1.377 . S
C1797 C1803 1.390 . S
C1798 H1789 0.930 . S
C1798 C1796 1.384 . S
C1798 C1799 1.372 . S
C1799 C1798 1.372 . S
C1799 C1800 1.400 . S
C1799 C1804 1.490 . S
C1800 H1790 0.930 . S
C1800 C1799 1.400 . S
C1800 C1803 1.386 . S
H1801 C1817 0.930 . S
H1802 C1818 0.931 . S
C1803 H1791 0.929 . S
C1803 C1797 1.390 . S
C1803 C1800 1.386 . S
C1804 C1799 1.490 . S
C1804 C1806 1.395 . S
C1804 C1807 1.403 . S
H1805 C1811 0.930 . S
C1806 H1792 0.930 . S
C1806 C1804 1.395 . S
C1806 C1809 1.403 . S
C1807 C1804 1.403 . S
C1807 C1808 1.524 . S
C1807 C1811 1.400 . S
C1808 H1793 0.960 . S
C1808 H1794 0.960 . S
C1808 H1795 0.960 . S
C1808 C1807 1.524 . S
C1809 C1806 1.403 . S
C1809 C1810 1.392 . S
C1809 C1813 1.495 . S
C1810 C1809 1.392 . S
C1810 C1811 1.385 . S
C1810 C1812 1.478 . S
C1811 H1805 0.930 . S
C1811 C1807 1.400 . S
C1811 C1810 1.385 . S
C1812 C1810 1.478 . S
C1812 C1814 1.381 . S
C1812 C1818 1.383 . S
C1813 C1809 1.495 . S
C1813 H1819 0.959 . S
C1813 H1820 0.961 . S
C1813 H1821 0.960 . S
C1814 C1812 1.381 . S
C1814 C1815 1.394 . S
C1814 H1822 0.930 . S
C1815 C1814 1.394 . S
C1815 C1816 1.383 . S
C1815 H1823 0.929 . S
C1816 C1815 1.383 . S
C1816 C1817 1.377 . S
C1817 H1801 0.930 . S
C1817 C1816 1.377 . S
C1817 C1818 1.379 . S
C1818 H1802 0.931 . S
C1818 C1812 1.383 . S
C1818 C1817 1.379 . S
H1819 C1813 0.959 . S
H1820 C1813 0.961 . S
H1821 C1813 0.960 . S
H1822 C1814 0.930 . S
H1823 C1815 0.929 . S
H1824 C1832 0.929 . S
H1825 C1834 0.930 . S
H1826 C1836 0.930 . S
H1827 C1839 0.929 . S
H1828 C1842 0.930 . S
H1829 C1844 0.960 . S
H1830 C1844 0.960 . S
H1831 C1844 0.960 . S
C1832 H1824 0.929 . S
C1832 C1833 1.377 . S
C1832 C1834 1.384 . S
C1833 C1832 1.377 . S
C1833 C1839 1.390 . S
C1834 H1825 0.930 . S
C1834 C1832 1.384 . S
C1834 C1835 1.372 . S
C1835 C1834 1.372 . S
C1835 C1836 1.400 . S
C1835 C1840 1.490 . S
C1836 H1826 0.930 . S
C1836 C1835 1.400 . S
C1836 C1839 1.386 . S
H1837 C1853 0.930 . S
H1838 C1854 0.931 . S
C1839 H1827 0.929 . S
C1839 C1833 1.390 . S
C1839 C1836 1.386 . S
C1840 C1835 1.490 . S
C1840 C1842 1.395 . S
C1840 C1843 1.403 1_565 S
H1841 C1847 0.930 . S
C1842 H1828 0.930 . S
C1842 C1840 1.395 . S
C1842 C1845 1.403 1_554 S
C1843 C1840 1.403 1_545 S
C1843 C1844 1.524 . S
C1843 C1847 1.400 1_554 S
C1844 H1829 0.960 . S
C1844 H1830 0.960 . S
C1844 H1831 0.960 . S
C1844 C1843 1.524 . S
C1845 C1842 1.403 1_556 S
C1845 C1846 1.392 1_565 S
C1845 C1849 1.495 . S
C1846 C1845 1.392 1_545 S
C1846 C1847 1.385 . S
C1846 C1848 1.478 . S
C1847 H1841 0.930 . S
C1847 C1843 1.400 1_556 S
C1847 C1846 1.385 . S
C1848 C1846 1.478 . S
C1848 C1850 1.381 . S
C1848 C1854 1.383 . S
C1849 C1845 1.495 . S
C1849 H1855 0.959 . S
C1849 H1856 0.961 . S
C1849 H1857 0.960 . S
C1850 C1848 1.381 . S
C1850 C1851 1.394 . S
C1850 H1858 0.930 . S
C1851 C1850 1.394 . S
C1851 C1852 1.383 . S
C1851 H1859 0.929 . S
C1852 C1851 1.383 . S
C1852 C1853 1.377 . S
C1853 H1837 0.930 . S
C1853 C1852 1.377 . S
C1853 C1854 1.379 . S
C1854 H1838 0.931 . S
C1854 C1848 1.383 . S
C1854 C1853 1.379 . S
H1855 C1849 0.959 . S
H1856 C1849 0.961 . S
H1857 C1849 0.960 . S
H1858 C1850 0.930 . S
H1859 C1851 0.929 . S
H1860 C1868 0.929 . S
H1861 C1870 0.930 . S
H1862 C1872 0.930 . S
H1863 C1875 0.929 . S
H1864 C1878 0.930 . S
H1865 C1880 0.960 . S
H1866 C1880 0.960 . S
H1867 C1880 0.960 . S
C1868 H1860 0.929 . S
C1868 C1869 1.377 . S
C1868 C1870 1.384 . S
C1869 C1868 1.377 . S
C1869 C1875 1.390 . S
C1870 H1861 0.930 . S
C1870 C1868 1.384 . S
C1870 C1871 1.372 . S
C1871 C1870 1.372 . S
C1871 C1872 1.400 . S
C1871 C1876 1.490 . S
C1872 H1862 0.930 . S
C1872 C1871 1.400 . S
C1872 C1875 1.386 . S
H1873 C1889 0.930 . S
H1874 C1890 0.931 . S
C1875 H1863 0.929 . S
C1875 C1869 1.390 . S
C1875 C1872 1.386 . S
C1876 C1871 1.490 . S
C1876 C1878 1.395 . S
C1876 C1879 1.403 . S
H1877 C1883 0.930 . S
C1878 H1864 0.930 . S
C1878 C1876 1.395 . S
C1878 C1881 1.403 . S
C1879 C1876 1.403 . S
C1879 C1880 1.524 . S
C1879 C1883 1.400 . S
C1880 H1865 0.960 . S
C1880 H1866 0.960 . S
C1880 H1867 0.960 . S
C1880 C1879 1.524 . S
C1881 C1878 1.403 . S
C1881 C1882 1.392 . S
C1881 C1885 1.495 . S
C1882 C1881 1.392 . S
C1882 C1883 1.385 . S
C1882 C1884 1.478 . S
C1883 H1877 0.930 . S
C1883 C1879 1.400 . S
C1883 C1882 1.385 . S
C1884 C1882 1.478 . S
C1884 C1886 1.381 . S
C1884 C1890 1.383 . S
C1885 C1881 1.495 . S
C1885 H1891 0.959 . S
C1885 H1892 0.961 . S
C1885 H1893 0.960 . S
C1886 C1884 1.381 . S
C1886 C1887 1.394 . S
C1886 H1894 0.930 . S
C1887 C1886 1.394 . S
C1887 C1888 1.383 . S
C1887 H1895 0.929 . S
C1888 C1887 1.383 . S
C1888 C1889 1.377 . S
C1889 H1873 0.930 . S
C1889 C1888 1.377 . S
C1889 C1890 1.379 . S
C1890 H1874 0.931 . S
C1890 C1884 1.383 . S
C1890 C1889 1.379 . S
H1891 C1885 0.959 . S
H1892 C1885 0.961 . S
H1893 C1885 0.960 . S
H1894 C1886 0.930 . S
H1895 C1887 0.929 . S
H1896 C1904 0.929 . S
H1897 C1906 0.930 . S
H1898 C1908 0.930 . S
H1899 C1911 0.929 . S
H1900 C1914 0.930 . S
H1901 C1916 0.960 . S
H1902 C1916 0.960 . S
H1903 C1916 0.960 . S
C1904 H1896 0.929 . S
C1904 C1905 1.377 . S
C1904 C1906 1.384 . S
C1905 C1904 1.377 . S
C1905 C1911 1.390 . S
C1906 H1897 0.930 . S
C1906 C1904 1.384 . S
C1906 C1907 1.372 . S
C1907 C1906 1.372 . S
C1907 C1908 1.400 . S
C1907 C1912 1.490 . S
C1908 H1898 0.930 . S
C1908 C1907 1.400 . S
C1908 C1911 1.386 . S
H1909 C1925 0.930 . S
H1910 C1926 0.931 . S
C1911 H1899 0.929 . S
C1911 C1905 1.390 . S
C1911 C1908 1.386 . S
C1912 C1907 1.490 . S
C1912 C1914 1.395 . S
C1912 C1915 1.403 . S
H1913 C1919 0.930 . S
C1914 H1900 0.930 . S
C1914 C1912 1.395 . S
C1914 C1917 1.403 . S
C1915 C1912 1.403 . S
C1915 C1916 1.524 . S
C1915 C1919 1.400 . S
C1916 H1901 0.960 . S
C1916 H1902 0.960 . S
C1916 H1903 0.960 . S
C1916 C1915 1.524 . S
C1917 C1914 1.403 . S
C1917 C1918 1.392 . S
C1917 C1921 1.495 . S
C1918 C1917 1.392 . S
C1918 C1919 1.385 . S
C1918 C1920 1.478 . S
C1919 H1913 0.930 . S
C1919 C1915 1.400 . S
C1919 C1918 1.385 . S
C1920 C1918 1.478 . S
C1920 C1922 1.381 . S
C1920 C1926 1.383 . S
C1921 C1917 1.495 . S
C1921 H1927 0.959 . S
C1921 H1928 0.961 . S
C1921 H1929 0.960 . S
C1922 C1920 1.381 . S
C1922 C1923 1.394 . S
C1922 H1930 0.930 . S
C1923 C1922 1.394 . S
C1923 C1924 1.383 . S
C1923 H1931 0.929 . S
C1924 C1923 1.383 . S
C1924 C1925 1.377 . S
C1925 H1909 0.930 . S
C1925 C1924 1.377 . S
C1925 C1926 1.379 . S
C1926 H1910 0.931 . S
C1926 C1920 1.383 . S
C1926 C1925 1.379 . S
H1927 C1921 0.959 . S
H1928 C1921 0.961 . S
H1929 C1921 0.960 . S
H1930 C1922 0.930 . S
H1931 C1923 0.929 . S
H1932 C1940 0.929 . S
H1933 C1942 0.930 . S
H1934 C1944 0.930 . S
H1935 C1947 0.929 . S
H1936 C1950 0.930 . S
H1937 C1952 0.960 . S
H1938 C1952 0.960 . S
H1939 C1952 0.960 . S
C1940 H1932 0.929 . S
C1940 C1941 1.377 . S
C1940 C1942 1.384 . S
C1941 C1940 1.377 . S
C1941 C1947 1.390 . S
C1942 H1933 0.930 . S
C1942 C1940 1.384 . S
C1942 C1943 1.372 . S
C1943 C1942 1.372 . S
C1943 C1944 1.400 . S
C1943 C1948 1.490 . S
C1944 H1934 0.930 . S
C1944 C1943 1.400 . S
C1944 C1947 1.386 . S
H1945 C1961 0.930 . S
H1946 C1962 0.931 . S
C1947 H1935 0.929 . S
C1947 C1941 1.390 . S
C1947 C1944 1.386 . S
C1948 C1943 1.490 . S
C1948 C1950 1.395 . S
C1948 C1951 1.403 . S
H1949 C1955 0.930 . S
C1950 H1936 0.930 . S
C1950 C1948 1.395 . S
C1950 C1953 1.403 . S
C1951 C1948 1.403 . S
C1951 C1952 1.524 . S
C1951 C1955 1.400 . S
C1952 H1937 0.960 . S
C1952 H1938 0.960 . S
C1952 H1939 0.960 . S
C1952 C1951 1.524 . S
C1953 C1950 1.403 . S
C1953 C1954 1.392 . S
C1953 C1957 1.495 . S
C1954 C1953 1.392 . S
C1954 C1955 1.385 . S
C1954 C1956 1.478 . S
C1955 H1949 0.930 . S
C1955 C1951 1.400 . S
C1955 C1954 1.385 . S
C1956 C1954 1.478 . S
C1956 C1958 1.381 . S
C1956 C1962 1.383 . S
C1957 C1953 1.495 . S
C1957 H1963 0.959 . S
C1957 H1964 0.961 . S
C1957 H1965 0.960 . S
C1958 C1956 1.381 . S
C1958 C1959 1.394 . S
C1958 H1966 0.930 . S
C1959 C1958 1.394 . S
C1959 C1960 1.383 . S
C1959 H1967 0.929 . S
C1960 C1959 1.383 . S
C1960 C1961 1.377 . S
C1961 H1945 0.930 . S
C1961 C1960 1.377 . S
C1961 C1962 1.379 . S
C1962 H1946 0.931 . S
C1962 C1956 1.383 . S
C1962 C1961 1.379 . S
H1963 C1957 0.959 . S
H1964 C1957 0.961 . S
H1965 C1957 0.960 . S
H1966 C1958 0.930 . S
H1967 C1959 0.929 . S
C537 N5 0.543 . S
C556 N302 0.566 . S
C573 N14 0.662 . S
C592 N311 0.623 . S
C609 N278 0.659 . S
C628 N47 0.691 . S
C645 N38 0.548 . S
C664 N269 0.574 . S
C681 N71 0.547 . S
C700 N368 0.530 . S
C717 N80 0.666 . S
C736 N377 0.689 . S
C753 N113 0.667 . S
C772 N344 0.698 . S
C789 N104 0.539 . S
C808 N335 0.572 . S
C825 N137 0.538 . S
C844 N434 0.533 . S
C861 N443 0.659 . S
C880 N146 0.691 . S
C897 N410 0.667 . S
C916 N179 0.627 . S
C933 N401 0.549 . S
C952 N170 0.551 . S
C969 N500 0.550 . S
C988 N203 0.519 . S
C1005 N509 0.655 . S
C1024 N212 0.644 . S
C1041 N476 0.660 . S
C1060 N245 0.667 . S
C1077 N236 0.549 . S
C1096 N467 0.524 . S
C1113 C17 1.141 . S
C1132 C50 1.152 . S
C1149 C116 1.142 . S
C1168 C83 1.142 . S
C1185 C182 1.141 . S
C1204 C149 1.132 . S
C1221 C248 1.141 . S
C1240 C215 1.146 . S
C1257 C314 1.139 . S
C1276 C281 1.139 . S
C1293 C347 1.139 . S
C1312 C380 1.136 . S
C1329 C446 1.142 . S
C1348 C413 1.131 . S
C1365 C479 1.141 . S
C1384 C512 1.152 . S
C1401 C490 1.796 . S
C1420 C28 1.801 . S
C1437 C74 1.814 . S
C1456 C8 1.823 . S
C1473 C371 1.812 . S
C1492 C41 1.813 . S
C1509 C259 1.796 . S
C1528 C61 1.802 . S
C1545 C94 1.794 . S
C1564 C424 1.802 . S
C1581 C305 1.818 . S
C1600 C107 1.823 . S
C1617 C127 1.791 . S
C1636 C193 1.788 . S
C1653 C358 1.796 . S
C1672 C160 1.802 . S
C1689 C140 1.816 . S
C1708 C206 1.826 . S
C1725 C173 1.815 . S
C1744 C503 1.797 . S
C1761 C226 1.795 . S
C1780 C292 1.803 . S
C1797 C239 1.812 . S
C1816 C437 1.805 . S
C1833 C338 1.816 . S
C1852 C272 1.826 . S
C1869 C523 1.796 . S
C1888 C325 1.800 . S
C1905 C391 1.792 . S
C1924 C457 1.797 . S
C1941 C404 1.816 . S
C1960 C470 1.826 . S
