# Generated by pormake.
# Topology lhb, (8)-cn, num edge types: 1
# Building blocks:
#     Node 0, Type 0, BuildingBlock: VETTIZ_charged_sbu_0, # of connection points: 8
#     Node 1, Type 0, BuildingBlock: VETTIZ_charged_sbu_0, # of connection points: 8
#     Node 2, Type 0, BuildingBlock: VETTIZ_charged_sbu_0, # of connection points: 8
#     Node 3, Type 0, BuildingBlock: VETTIZ_charged_sbu_0, # of connection points: 8
#     Node 4, Type 0, BuildingBlock: VETTIZ_charged_sbu_0, # of connection points: 8
#     Node 5, Type 0, BuildingBlock: VETTIZ_charged_sbu_0, # of connection points: 8
#     Node 6, Type 0, BuildingBlock: VETTIZ_charged_sbu_0, # of connection points: 8
#     Node 7, Type 0, BuildingBlock: VETTIZ_charged_sbu_0, # of connection points: 8
#     Edge 8, Type (0, 0), BuildingBlock: KIFKEQ_clean_linker_1, # of connection points: 2
#     Edge 9, Type (0, 0), BuildingBlock: KIFKEQ_clean_linker_1, # of connection points: 2
#     Edge 10, Type (0, 0), BuildingBlock: KIFKEQ_clean_linker_1, # of connection points: 2
#     Edge 11, Type (0, 0), BuildingBlock: KIFKEQ_clean_linker_1, # of connection points: 2
#     Edge 12, Type (0, 0), BuildingBlock: KIFKEQ_clean_linker_1, # of connection points: 2
#     Edge 13, Type (0, 0), BuildingBlock: KIFKEQ_clean_linker_1, # of connection points: 2
#     Edge 14, Type (0, 0), BuildingBlock: KIFKEQ_clean_linker_1, # of connection points: 2
#     Edge 15, Type (0, 0), BuildingBlock: KIFKEQ_clean_linker_1, # of connection points: 2
#     Edge 16, Type (0, 0), BuildingBlock: KIFKEQ_clean_linker_1, # of connection points: 2
#     Edge 17, Type (0, 0), BuildingBlock: KIFKEQ_clean_linker_1, # of connection points: 2
#     Edge 18, Type (0, 0), BuildingBlock: KIFKEQ_clean_linker_1, # of connection points: 2
#     Edge 19, Type (0, 0), BuildingBlock: KIFKEQ_clean_linker_1, # of connection points: 2
#     Edge 20, Type (0, 0), BuildingBlock: KIFKEQ_clean_linker_1, # of connection points: 2
#     Edge 21, Type (0, 0), BuildingBlock: KIFKEQ_clean_linker_1, # of connection points: 2
#     Edge 22, Type (0, 0), BuildingBlock: KIFKEQ_clean_linker_1, # of connection points: 2
#     Edge 23, Type (0, 0), BuildingBlock: KIFKEQ_clean_linker_1, # of connection points: 2
#     Edge 24, Type (0, 0), BuildingBlock: KIFKEQ_clean_linker_1, # of connection points: 2
#     Edge 25, Type (0, 0), BuildingBlock: KIFKEQ_clean_linker_1, # of connection points: 2
#     Edge 26, Type (0, 0), BuildingBlock: KIFKEQ_clean_linker_1, # of connection points: 2
#     Edge 27, Type (0, 0), BuildingBlock: KIFKEQ_clean_linker_1, # of connection points: 2
#     Edge 28, Type (0, 0), BuildingBlock: KIFKEQ_clean_linker_1, # of connection points: 2
#     Edge 29, Type (0, 0), BuildingBlock: KIFKEQ_clean_linker_1, # of connection points: 2
#     Edge 30, Type (0, 0), BuildingBlock: KIFKEQ_clean_linker_1, # of connection points: 2
#     Edge 31, Type (0, 0), BuildingBlock: KIFKEQ_clean_linker_1, # of connection points: 2
#     Edge 32, Type (0, 0), BuildingBlock: KIFKEQ_clean_linker_1, # of connection points: 2
#     Edge 33, Type (0, 0), BuildingBlock: KIFKEQ_clean_linker_1, # of connection points: 2
#     Edge 34, Type (0, 0), BuildingBlock: KIFKEQ_clean_linker_1, # of connection points: 2
#     Edge 35, Type (0, 0), BuildingBlock: KIFKEQ_clean_linker_1, # of connection points: 2
#     Edge 36, Type (0, 0), BuildingBlock: KIFKEQ_clean_linker_1, # of connection points: 2
#     Edge 37, Type (0, 0), BuildingBlock: KIFKEQ_clean_linker_1, # of connection points: 2
#     Edge 38, Type (0, 0), BuildingBlock: KIFKEQ_clean_linker_1, # of connection points: 2
#     Edge 39, Type (0, 0), BuildingBlock: KIFKEQ_clean_linker_1, # of connection points: 2
# Relax obj value: 0.196
# Max RMSD: 0.257
# Mean RMSD: 0.257
data_MOF--net-lhb--node1-VETTIZ_charged_sbu_0--edge1-KIFKEQ_clean_linker_1
_symmetry_space_group_name_H-M    P1
_symmetry_Int_Tables_number       1
_symmetry_cell_setting            triclinic
loop_
_symmetry_equiv_pos_as_xyz
'x, y, z'
_cell_length_a     30.971324
_cell_length_b     16.626099
_cell_length_c     54.902888
_cell_angle_alpha  91.009805
_cell_angle_beta   89.932518
_cell_angle_gamma 90.083465
loop_
_atom_site_label
_atom_site_type_symbol
_atom_site_fract_x
_atom_site_fract_y
_atom_site_fract_z
_atom_type_partial_charge
Fe0 Fe 1.00792 0.88504 1.0182 0.0
O1 O 0.98461 0.93846 0.04858 0.0
Fe2 Fe 0.08587 0.01867 0.99874 0.0
Fe3 Fe 0.96278 0.87798 0.07687 0.0
O4 O 0.05827 0.95714 1.02427 0.0
O5 O 0.05958 0.96263 1.02604 0.0
O6 O 0.98619 0.94441 0.05055 0.0
Fe7 Fe 0.03735 0.01556 0.05667 0.0
C8 C 0.91686 0.81525 1.03058 0.0
O9 O 0.03806 0.79829 0.03793 0.0
O10 O 0.98919 0.77019 0.06619 0.0
O11 O 0.09585 0.08186 0.05872 0.0
O12 O 0.13352 0.03946 1.02435 0.0
O13 O 0.1052 0.90549 0.98689 0.0
O14 O 0.041 0.83512 0.98757 0.0
O15 O 0.01424 0.90048 0.10129 0.0
O16 O 0.06709 0.92778 0.07612 0.0
C17 C 0.08145 0.84348 0.98125 0.0
O18 O 1.00983 0.10756 0.03747 0.0
O19 O 0.062 0.12783 1.01 0.0
O20 O 0.95089 0.81556 1.01651 0.0
O21 O 0.91455 0.84871 0.05215 0.0
C22 C 0.02013 0.74954 0.05229 0.0
C23 C 0.05435 0.913 0.09747 0.0
C24 C 0.96459 0.04486 0.09655 0.0
O25 O 0.94039 -0.01211 0.08783 0.0
O26 O 1.00431 0.05904 0.08912 0.0
C27 C 0.13063 0.07773 0.04518 0.0
O28 O 0.03448 0.00736 0.97467 0.0
O29 O 0.9777 0.97024 0.99677 0.0
C30 C 0.03049 0.15296 1.02299 0.0
C31 C 0.99375 0.0041 0.9781 0.0
Fe32 Fe 0.24571 0.32189 0.26417 0.0
O33 O 0.2993 0.26283 0.27267 0.0
Fe34 Fe 0.19934 0.35066 0.32206 0.0
Fe35 Fe 0.33108 0.19244 0.25043 0.0
O36 O 0.22463 0.28029 0.29627 0.0
O37 O 0.22635 0.27535 0.29851 0.0
O38 O 0.3005 0.25839 0.27444 0.0
Fe39 Fe 0.28196 0.22368 0.3076 0.0
C40 C 0.23834 0.17889 0.2293 0.0
O41 O 0.2766 0.35971 0.23174 0.0
O42 O 0.34375 0.29934 0.23309 0.0
O43 O 0.30462 0.33123 0.32041 0.0
O44 O 0.25262 0.35608 0.34629 0.0
O45 O 0.21925 0.45447 0.30694 0.0
O46 O 0.27129 0.42363 0.28046 0.0
O47 O 0.37958 0.19989 0.27647 0.0
O48 O 0.34411 0.17561 0.31277 0.0
C49 C 0.25199 0.47343 0.29447 0.0
O50 O 0.25291 0.19624 0.34256 0.0
O51 O 0.18416 0.24481 0.33801 0.0
O52 O 0.22024 0.22171 0.246 0.0
O53 O 0.27938 0.17709 0.22663 0.0
C54 C 0.31689 0.35225 0.22492 0.0
C55 C 0.3788 0.18077 0.29938 0.0
C56 C 0.28261 0.06637 0.28067 0.0
O57 O 0.31319 0.08772 0.26665 0.0
O58 O 0.26142 0.11472 0.29439 0.0
C59 C 0.29291 0.35524 0.34126 0.0
O60 O 0.15006 0.35451 0.29683 0.0
O61 O 0.18552 0.38018 0.26056 0.0
C62 C 0.21257 0.20427 0.34981 0.0
C63 C 0.15143 0.38048 0.27462 0.0
Fe64 Fe 0.69682 0.84146 0.24812 0.0
O65 O 0.72648 0.77853 0.2727 0.0
Fe66 Fe 0.74765 0.8355 0.30526 0.0
Fe67 Fe 0.77879 0.71307 0.26532 0.0
O68 O 0.72525 0.78384 0.27446 0.0
O69 O 0.80053 0.77154 0.29752 0.0
O70 O 0.80194 0.76605 0.29564 0.0
Fe71 Fe 0.82873 0.70655 0.3224 0.0
C72 C 0.70534 0.66873 0.22828 0.0
O73 O 0.74811 0.84019 0.22359 0.0
O74 O 0.80559 0.80478 0.24513 0.0
O75 O 0.84705 0.81866 0.33401 0.0
O76 O 0.7806 0.87946 0.33755 0.0
O77 O 0.77175 0.93181 0.28665 0.0
O78 O 0.71734 0.95141 0.26072 0.0
O79 O 0.83764 0.65088 0.26171 0.0
O80 O 0.87606 0.68918 0.29613 0.0
C81 C 0.74917 0.97725 0.27325 0.0
O82 O 0.7781 0.71795 0.34792 0.0
O83 O 0.72219 0.74212 0.32439 0.0
O84 O 0.6806 0.7286 0.23458 0.0
O85 O 0.74583 0.66238 0.23473 0.0
C86 C 0.78872 0.8423 0.2275 0.0
C87 C 0.87315 0.65834 0.27426 0.0
C88 C 0.7733 0.57386 0.29848 0.0
O89 O 0.75293 0.62109 0.28472 0.0
O90 O 0.80556 0.59646 0.31115 0.0
C91 C 0.82106 0.86993 0.34423 0.0
O92 O 0.68739 0.89498 0.30877 0.0
O93 O 0.64943 0.85304 0.27444 0.0
C94 C 0.73731 0.7246 0.34506 0.0
C95 C 0.65223 0.88919 0.29563 0.0
Fe96 Fe 0.94454 0.43904 0.49474 0.0
O97 O 0.9657 0.49657 0.52368 0.0
Fe98 Fe 0.01762 0.57435 0.51959 0.0
Fe99 Fe 0.98282 0.44442 0.55486 0.0
O100 O 0.96698 0.50192 0.52208 0.0
O101 O 0.03565 0.52193 0.55065 0.0
O102 O 0.03412 0.51615 0.55243 0.0
Fe103 Fe 0.05227 0.58334 0.58041 0.0
C104 C 0.89273 0.38685 0.53847 0.0
O105 O 0.96573 0.32979 0.50686 0.0
O106 O 0.01414 0.35281 0.53633 0.0
O107 O 0.10424 0.60855 0.55872 0.0
O108 O 0.07348 0.64451 0.52201 0.0
O109 O 0.05222 0.48763 0.49942 0.0
O110 O 0.99995 0.44879 0.47398 0.0
O111 O 1.00934 0.40095 0.58841 0.0
O112 O 0.07232 0.47416 0.59202 0.0
C113 C 0.03962 0.45006 0.48015 0.0
O114 O 0.02842 0.6914 0.56879 0.0
O115 O 0.98381 0.6613 0.53835 0.0
O116 O 0.89296 0.42202 0.51753 0.0
O117 O 0.92561 0.37832 0.55295 0.0
C118 C 0.99512 0.30553 0.52121 0.0
C119 C 0.04713 0.41608 0.59833 0.0
C120 C 0.95792 0.5478 0.5956 0.0
O121 O 0.94886 0.53113 0.57361 0.0
O122 O 0.99696 0.56245 0.60155 0.0
C123 C 0.10515 0.64182 0.53753 0.0
O124 O 0.99004 0.62425 0.48776 0.0
O125 O 0.9276 0.55114 0.48233 0.0
C126 C 0.99994 0.71155 0.55344 0.0
C127 C 0.95125 0.61438 0.47878 0.0
Fe128 Fe 0.23595 0.76187 0.76226 0.0
O129 O 0.2915 0.70243 0.76419 0.0
Fe130 Fe 0.2064 0.77613 0.82401 0.0
Fe131 Fe 0.31392 0.63396 0.73772 0.0
O132 O 0.225 0.7141 0.79497 0.0
O133 O 0.22714 0.71033 0.79676 0.0
O134 O 0.2933 0.69756 0.76591 0.0
Fe135 Fe 0.28207 0.64986 0.79866 0.0
C136 C 0.21714 0.62202 0.72738 0.0
O137 O 0.25627 0.807 0.72822 0.0
O138 O 0.32132 0.7432 0.72078 0.0
O139 O 0.3131 0.74498 0.81521 0.0
O140 O 0.26449 0.77291 0.84349 0.0
O141 O 0.22257 0.88493 0.80993 0.0
O142 O 0.26507 0.86129 0.77777 0.0
O143 O 0.369 0.63557 0.75845 0.0
O144 O 0.34191 0.5938 0.79554 0.0
C145 C 0.24886 0.90853 0.79377 0.0
O146 O 0.26148 0.60777 0.8337 0.0
O147 O 0.19441 0.66559 0.83791 0.0
O148 O 0.20506 0.66438 0.74572 0.0
O149 O 0.25586 0.62308 0.71957 0.0
C150 C 0.2931 0.79912 0.71678 0.0
C151 C 0.37288 0.60389 0.7798 0.0
C152 C 0.27197 0.50301 0.76847 0.0
O153 O 0.3011 0.52527 0.75365 0.0
O154 O 0.25288 0.55196 0.78287 0.0
C155 C 0.30389 0.76561 0.83695 0.0
O156 O 0.15172 0.78312 0.80349 0.0
O157 O 0.17542 0.81657 0.76493 0.0
C158 C 0.22383 0.61555 0.84451 0.0
C159 C 0.1456 0.80597 0.7813 0.0
Fe160 Fe 0.73126 0.22827 0.76992 0.0
O161 O 0.78349 0.16007 0.77239 0.0
Fe162 Fe 0.69955 0.24258 0.83143 0.0
Fe163 Fe 0.80479 0.09333 0.74545 0.0
O164 O 0.71608 0.17951 0.80202 0.0
O165 O 0.71786 0.17466 0.80385 0.0
O166 O 0.785 0.1548 0.77415 0.0
Fe167 Fe 0.76971 0.10509 0.80618 0.0
C168 C 0.70867 0.09932 0.73234 0.0
O169 O 0.75586 0.27392 0.73664 0.0
O170 O 0.81903 0.20316 0.73036 0.0
O171 O 0.80389 0.19385 0.82404 0.0
O172 O 0.75579 0.22654 0.852 0.0
O173 O 0.72197 0.34992 0.81866 0.0
O174 O 0.76409 0.32028 0.78683 0.0
O175 O 0.85779 0.08238 0.76742 0.0
O176 O 0.82741 0.04076 0.80381 0.0
C177 C 0.7491 0.3699 0.8025 0.0
O178 O 0.74484 0.064 0.84059 0.0
O179 O 0.68088 0.13356 0.84392 0.0
O180 O 0.69705 0.13744 0.75166 0.0
O181 O 0.74809 0.09659 0.72572 0.0
C182 C 0.79324 0.26261 0.72601 0.0
C183 C 0.8595 0.04986 0.78874 0.0
C184 C 0.75599 0.96332 0.77393 0.0
O185 O 0.78573 -0.01432 0.7595 0.0
O186 O 0.7378 0.01174 0.78897 0.0
C187 C 0.7949 0.21304 0.84591 0.0
O188 O 0.64673 0.2626 0.81022 0.0
O189 O 0.67381 0.29331 0.7722 0.0
C190 C 0.70711 0.07816 0.85079 0.0
C191 C 0.64303 0.28966 0.78831 0.0
Fe192 Fe 0.44272 0.94759 0.49084 0.0
O193 O 0.46453 0.00912 0.51905 0.0
Fe194 Fe 0.52251 0.07056 0.51546 0.0
Fe195 Fe 0.47345 0.96452 0.55239 0.0
O196 O 0.46646 0.01306 0.51739 0.0
O197 O 0.53303 0.02207 0.54817 0.0
O198 O 0.53063 0.01809 0.55008 0.0
Fe199 Fe 0.55173 0.08629 0.57703 0.0
C200 C 0.38122 0.92894 0.53384 0.0
O201 O 0.45496 0.83769 0.50637 0.0
O202 O 0.49895 0.86109 0.53804 0.0
O203 O 0.60695 0.08856 0.55675 0.0
O204 O 0.58365 0.12353 0.5183 0.0
O205 O 0.55237 0.97311 0.49796 0.0
O206 O 0.50013 0.93894 0.47182 0.0
O207 O 0.49219 0.92473 0.58814 0.0
O208 O 0.56079 0.97674 0.59211 0.0
C209 C 0.53969 0.93954 0.47812 0.0
O210 O 0.53845 0.19528 0.56206 0.0
O211 O 0.4939 0.17 0.53116 0.0
O212 O 0.38781 0.95098 0.51158 0.0
O213 O 0.41111 0.91659 0.55006 0.0
C214 C 0.48129 0.81376 0.52256 0.0
C215 C 0.52992 0.93005 0.59901 0.0
C216 C 0.4541 0.08506 0.58912 0.0
O217 O 0.44634 0.0664 0.56712 0.0
O218 O 0.49318 0.08853 0.59637 0.0
C219 C 0.61343 0.11199 0.53463 0.0
O220 O 0.50228 0.11773 0.48168 0.0
O221 O 0.43584 0.058 0.47478 0.0
C222 C 0.51157 0.21841 0.54624 0.0
C223 C 0.46478 0.11278 0.47085 0.0
Fe224 Fe 0.45559 0.36087 0.99756 0.0
O225 O 0.48772 0.42706 1.02099 0.0
Fe226 Fe 0.54453 0.48369 1.00968 0.0
Fe227 Fe 0.50647 0.39125 0.05396 0.0
O228 O 0.48903 0.43187 1.01915 0.0
O229 O 0.56461 0.4429 0.04188 0.0
O230 O 0.56289 0.43838 0.04402 0.0
Fe231 Fe 0.59423 0.51032 0.06653 0.0
C232 C 0.40835 0.35616 0.04666 0.0
O233 O 0.47052 0.25574 1.0145 0.0
O234 O 0.52478 0.2813 0.04048 0.0
O235 O 0.6425 0.50431 0.04056 0.0
O236 O 0.60697 0.53304 1.00466 0.0
O237 O 0.56616 0.37817 0.99327 0.0
O238 O 0.50664 0.33841 0.97363 0.0
O239 O 0.53575 0.36179 0.08839 0.0
O240 O 0.60563 0.403 0.08268 0.0
C241 C 0.54727 0.33372 0.9774 0.0
O242 O 0.57792 0.61609 0.0509 0.0
O243 O 0.5238 0.59 1.02521 0.0
O244 O 0.40771 0.37459 1.02371 0.0
O245 O 0.44318 0.348 0.05978 0.0
C246 C 0.50214 0.23321 1.02749 0.0
C247 C 0.57641 0.36654 0.09517 0.0
C248 C 0.50169 0.52551 0.0877 0.0
O249 O 0.48678 0.50006 0.06759 0.0
O250 O 0.54244 0.52394 0.0914 0.0
C251 C 0.64176 0.52628 1.01794 0.0
O252 O 0.51398 0.52203 0.97701 0.0
O253 O 0.44569 0.4669 0.97949 0.0
C254 C 0.5464 0.63864 0.03798 0.0
C255 C 0.47317 0.51805 0.9708 0.0
H256 H 0.03987 0.90146 0.14716 0.0
H257 H 0.13687 0.97187 0.09515 0.0
H258 H 0.08363 0.96003 0.1802 0.0
H259 H 0.18032 0.0291 0.12785 0.0
H260 H 0.26601 0.0775 0.19261 0.0
H261 H 0.22342 0.00224 0.16289 0.0
H262 H 0.1063 0.0946 0.19552 0.0
H263 H 0.14917 0.16976 0.22574 0.0
C264 C 0.07063 0.92862 0.14273 0.0
C265 C 0.08409 0.93341 0.11827 0.0
C266 C 0.09565 0.96274 0.1617 0.0
C267 C 0.1354 0.00069 0.1568 0.0
C268 C 0.15004 0.00053 0.13251 0.0
C269 C 0.1249 0.9675 0.11362 0.0
C270 C 0.23117 0.082 0.19362 0.0
C271 C 0.21128 0.1308 0.21163 0.0
C272 C 0.20663 0.03871 0.1764 0.0
C273 C 0.16122 0.04238 0.17652 0.0
C274 C 0.14113 0.08951 0.1949 0.0
C275 C 0.1658 0.13319 0.21218 0.0
H276 H 1.002 0.02611 0.14073 0.0
H277 H 0.88846 0.12008 0.10675 0.0
H278 H 0.95924 -0.01585 0.17545 0.0
H279 H 0.84573 0.08644 0.14233 0.0
H280 H 0.77056 0.89192 0.18135 0.0
H281 H 0.81564 0.96823 0.15403 0.0
H282 H 0.91535 -0.01784 0.20906 0.0
H283 H 0.87061 0.90131 0.23591 0.0
C284 C 0.9683 0.04213 0.14136 0.0
C285 C 0.9486 0.07377 0.12062 0.0
C286 C 0.94331 0.01748 0.1613 0.0
C287 C 0.89803 0.02745 0.1614 0.0
C288 C 0.87991 0.0731 0.14254 0.0
C289 C 0.90479 0.09536 0.12237 0.0
C290 C 0.80211 0.91118 0.18766 0.0
C291 C 0.81693 0.88955 0.21082 0.0
C292 C 0.82805 0.95639 0.17202 0.0
C293 C 0.86954 -0.01674 0.17912 0.0
C294 C 0.88407 0.96239 0.20254 0.0
C295 C 0.8583 0.91582 0.21806 0.0
H296 H 0.12423 0.40232 0.48938 0.0
H297 H 0.02564 0.39451 0.43388 0.0
H298 H 0.17121 0.31893 0.46305 0.0
H299 H 0.07197 0.31434 0.40783 0.0
H300 H 0.13903 0.13471 0.36652 0.0
H301 H 0.10003 0.1849 0.40209 0.0
H302 H 0.2144 0.3118 0.42624 0.0
H303 H 0.2541 0.25434 0.39144 0.0
C304 C 0.11266 0.38361 0.47156 0.0
C305 C 0.07084 0.40526 0.46395 0.0
C306 C 0.13958 0.33544 0.45644 0.0
C307 C 0.12531 0.30754 0.43335 0.0
C308 C 0.08394 0.33142 0.42571 0.0
C309 C 0.05729 0.3788 0.44068 0.0
C310 C 0.15662 0.16934 0.38017 0.0
C311 C 0.19949 0.1929 0.37566 0.0
C312 C 0.13384 0.2004 0.40031 0.0
C313 C 0.15307 0.25687 0.41644 0.0
C314 C 0.19785 0.27034 0.41401 0.0
C315 C 0.22088 0.2373 0.39403 0.0
H316 H 0.90281 0.91247 0.35727 0.0
H317 H 0.77546 0.88217 0.38721 0.0
H318 H 0.93472 0.87002 0.39517 0.0
H319 H 0.80722 0.84051 0.42577 0.0
H320 H 0.98682 0.75856 0.46319 0.0
H321 H 0.9535 0.85803 0.43665 0.0
H322 H 0.83772 0.71307 0.43293 0.0
H323 H 0.86999 0.61646 0.45949 0.0
C324 C 0.88149 0.90098 0.37249 0.0
C325 C 0.83649 0.89634 0.36878 0.0
C326 C 0.89994 0.8757 0.39435 0.0
C327 C 0.87372 0.84722 0.41327 0.0
C328 C 0.8286 0.85804 0.41116 0.0
C329 C 0.8102 0.8832 0.38915 0.0
C330 C 0.95413 0.74842 0.45685 0.0
C331 C 0.93159 0.67833 0.46336 0.0
C332 C 0.9349 0.80561 0.44161 0.0
C333 C 0.89259 0.79441 0.43253 0.0
C334 C 0.86985 0.72558 0.43979 0.0
C335 C 0.88889 0.6689 0.45488 0.0
H336 H 1.00315 0.42839 0.6412 0.0
H337 H 0.12168 0.34152 0.60961 0.0
H338 H 0.04105 0.46257 0.67895 0.0
H339 H 0.16014 0.37749 0.64637 0.0
H340 H 0.23149 0.47127 0.70958 0.0
H341 H 0.1837 0.38636 0.6852 0.0
H342 H 0.08499 0.56998 0.68994 0.0
H343 H 0.13222 0.65171 0.71601 0.0
C344 C 0.03685 0.41241 0.64279 0.0
C345 C 0.05953 0.38377 0.62223 0.0
C346 C 0.05906 0.43425 0.66424 0.0
C347 C 0.1044 0.42684 0.66563 0.0
C348 C 0.12548 0.38536 0.64639 0.0
C349 C 0.10317 0.36313 0.62516 0.0
C350 C 0.19928 0.49281 0.70566 0.0
C351 C 0.18585 0.5687 0.71438 0.0
C352 C 0.17177 0.44423 0.69149 0.0
C353 C 0.13032 0.47111 0.68487 0.0
C354 C 0.11625 0.54588 0.69466 0.0
C355 C 0.14349 0.59355 0.70948 0.0
H356 H 0.80975 0.42555 0.72858 0.0
H357 H 0.81188 0.22064 0.67946 0.0
H358 H 0.84407 0.50806 0.6972 0.0
H359 H 0.84572 0.30213 0.6482 0.0
H360 H 0.87887 0.47529 0.58967 0.0
H361 H 0.83317 0.41704 0.62085 0.0
H362 H 0.91773 0.51216 0.67674 0.0
H363 H 0.96384 0.57088 0.64543 0.0
C364 C 0.81636 0.39884 0.71086 0.0
C365 C 0.80738 0.31702 0.70632 0.0
C366 C 0.83656 0.44573 0.69298 0.0
C367 C 0.8476 0.41198 0.67006 0.0
C368 C 0.8372 0.3307 0.66542 0.0
C369 C 0.8178 0.28383 0.68335 0.0
C370 C 0.8875 0.48541 0.60858 0.0
C371 C 0.92564 0.5272 0.61488 0.0
C372 C 0.86128 0.45136 0.62652 0.0
C373 C 0.87198 0.45875 0.65136 0.0
C374 C 0.90837 0.50536 0.65782 0.0
C375 C 0.93489 0.53902 0.63981 0.0
H376 H 0.15731 0.52525 0.86154 0.0
H377 H 0.27092 0.65463 0.8844 0.0
H378 H 0.12245 0.55776 0.90022 0.0
H379 H 0.23563 0.6936 0.9221 0.0
H380 H 0.16313 0.78637 0.98587 0.0
H381 H 0.2021 0.69513 0.95864 0.0
H382 H 0.0876 0.67046 0.91397 0.0
H383 H 0.04821 0.75728 0.94243 0.0
C384 C 0.17575 0.55727 0.8754 0.0
C385 C 0.21669 0.58859 0.86971 0.0
C386 C 0.15516 0.57854 0.89736 0.0
C387 C 0.17486 0.6325 0.91406 0.0
C388 C 0.21855 0.65295 0.9099 0.0
C389 C 0.2394 0.62976 0.88818 0.0
C390 C 0.14615 0.76004 0.97043 0.0
C391 C 0.10269 0.77964 0.96616 0.0
C392 C 0.16865 0.70797 0.95459 0.0
C393 C 0.14876 0.67555 0.93353 0.0
C394 C 0.10444 0.69249 0.93 0.0
C395 C 0.08162 0.74305 0.94626 0.0
H396 H 0.8741 0.14028 0.84104 0.0
H397 H 0.79 0.24854 0.89512 0.0
H398 H 0.9214 0.0934 0.8731 0.0
H399 H 0.83766 0.20147 0.92737 0.0
H400 H 0.01736 0.07403 0.93526 0.0
H401 H 0.97176 0.13295 0.90437 0.0
H402 H 0.85856 0.07468 0.9465 0.0
H403 H 0.90452 0.0161 0.97784 0.0
C404 C 0.866 0.1556 0.85974 0.0
C405 C 0.82774 0.19784 0.86534 0.0
C406 C 0.89327 0.12841 0.87825 0.0
C407 C 0.8833 0.14254 0.90301 0.0
C408 C 0.84608 0.18794 0.90859 0.0
C409 C 0.81893 0.21575 0.89003 0.0
C410 C 0.98275 0.07348 0.93808 0.0
C411 C 0.96485 0.03959 0.95919 0.0
C412 C 0.95647 0.10725 0.92019 0.0
C413 C 0.91127 0.1087 0.92273 0.0
C414 C 0.89323 0.07559 0.94395 0.0
C415 C 0.91962 0.04134 0.96189 0.0
H416 H 0.62102 0.07432 0.7403 0.0
H417 H 0.72249 0.02824 0.6879 0.0
H418 H 0.56956 0.0039 0.71344 0.0
H419 H 0.6718 0.96139 0.66116 0.0
H420 H 0.58975 0.82376 0.61498 0.0
H421 H 0.62982 0.84912 0.65246 0.0
H422 H 0.53068 0.01484 0.6766 0.0
H423 H 0.48961 -0.01644 0.63992 0.0
C424 C 0.63241 0.04941 0.72311 0.0
C425 C 0.67611 0.05744 0.71639 0.0
C426 C 0.60286 0.00887 0.70765 0.0
C427 C 0.61622 0.9753 0.68506 0.0
C428 C 0.66001 -0.01644 0.67858 0.0
C429 C 0.6893 0.02337 0.69394 0.0
C430 C 0.57508 0.86114 0.62908 0.0
C431 C 0.53665 0.90272 0.62424 0.0
C432 C 0.59878 0.87799 0.65033 0.0
C433 C 0.58495 0.93789 0.66712 0.0
C434 C 0.54313 0.96946 0.6641 0.0
C435 C 0.51903 0.95081 0.64305 0.0
H436 H 0.45473 0.12064 0.63842 0.0
H437 H 0.37351 0.0205 0.58164 0.0
H438 H 0.40663 0.064 0.66918 0.0
H439 H 0.32615 0.96357 0.61222 0.0
H440 H 0.31622 0.76001 0.6707 0.0
H441 H 0.34613 0.8476 0.63974 0.0
H442 H 0.32904 0.05298 0.68798 0.0
H443 H 0.29775 0.96439 0.71898 0.0
C444 C 0.4261 0.08844 0.63245 0.0
C445 C 0.41907 0.07272 0.60748 0.0
C446 C 0.39846 0.05606 0.65012 0.0
C447 C 0.36311 0.0076 0.64315 0.0
C448 C 0.35361 -0.00084 0.6182 0.0
C449 C 0.3809 0.03206 0.60063 0.0
C450 C 0.31782 0.82415 0.67446 0.0
C451 C 0.30429 0.85549 0.69712 0.0
C452 C 0.3349 0.87445 0.65672 0.0
C453 C 0.33993 0.95742 0.66134 0.0
C454 C 0.32555 -0.01065 0.68387 0.0
C455 C 0.30735 0.9389 0.70151 0.0
H456 H 0.62925 0.27745 0.98625 0.0
H457 H 0.52441 0.25634 0.93485 0.0
H458 H 0.67158 0.18208 0.96186 0.0
H459 H 0.56703 0.16482 0.90986 0.0
H460 H 0.63662 -0.0052 0.86611 0.0
H461 H 0.5975 0.04142 0.9021 0.0
H462 H 0.71214 0.16646 0.92702 0.0
H463 H 0.75145 0.1129 0.89211 0.0
C464 C 0.61528 0.25286 0.96964 0.0
C465 C 0.5734 0.27539 0.96249 0.0
C466 C 0.63967 0.19793 0.95555 0.0
C467 C 0.62316 0.16445 0.93367 0.0
C468 C 0.58097 0.18673 0.92678 0.0
C469 C 0.55645 0.24057 0.94103 0.0
C470 C 0.65425 0.02733 0.8802 0.0
C471 C 0.6969 0.05249 0.87581 0.0
C472 C 0.63133 0.05692 0.90051 0.0
C473 C 0.65051 0.11265 0.91689 0.0
C474 C 0.69541 0.1255 0.91474 0.0
C475 C 0.71847 0.09384 0.89471 0.0
H476 H 0.514 0.59334 0.93216 0.0
H477 H 0.39052 0.57012 0.96792 0.0
H478 H 0.47951 0.67247 0.90008 0.0
H479 H 0.35646 0.64648 0.93624 0.0
H480 H 0.30052 0.81564 0.88484 0.0
H481 H 0.34739 0.77372 0.91792 0.0
H482 H 0.42968 0.64952 0.8661 0.0
H483 H 0.38351 0.69328 0.83299 0.0
C484 C 0.47977 0.60601 0.9334 0.0
C485 C 0.45509 0.5746 0.95256 0.0
C486 C 0.45987 0.65085 0.91493 0.0
C487 C 0.41501 0.66626 0.91544 0.0
C488 C 0.39104 0.63744 0.93522 0.0
C489 C 0.41067 0.59254 0.95338 0.0
C490 C 0.32924 0.78127 0.8804 0.0
C491 C 0.33766 0.75704 0.85619 0.0
C492 C 0.35601 0.75644 0.89944 0.0
C493 C 0.39198 0.70642 0.89487 0.0
C494 C 0.40244 0.68794 0.87045 0.0
C495 C 0.37574 0.7131 0.85137 0.0
H496 H 0.65566 0.3267 0.11251 0.0
H497 H 0.5276 0.38896 0.13681 0.0
H498 H 0.68611 0.38593 0.14918 0.0
H499 H 0.55784 0.44731 0.17432 0.0
H500 H 0.62639 0.67187 0.20601 0.0
H501 H 0.59274 0.57109 0.18015 0.0
H502 H 0.70258 0.41474 0.18967 0.0
H503 H 0.73738 0.51827 0.21509 0.0
C504 C 0.63366 0.34961 0.12634 0.0
C505 C 0.58927 0.35691 0.12112 0.0
C506 C 0.65131 0.38444 0.1475 0.0
C507 C 0.62485 0.42572 0.16438 0.0
C508 C 0.57963 0.41983 0.16119 0.0
C509 C 0.56203 0.38513 0.13983 0.0
C510 C 0.6436 0.61602 0.20278 0.0
C511 C 0.68507 0.60418 0.21263 0.0
C512 C 0.62378 0.55714 0.18807 0.0
C513 C 0.64442 0.48356 0.18273 0.0
C514 C 0.68558 0.47068 0.19304 0.0
C515 C 0.70569 0.53024 0.20768 0.0
H516 H 0.3738 0.47599 0.22966 0.0
H517 H 0.30158 0.33872 0.17641 0.0
H518 H 0.41442 0.54059 0.19717 0.0
H519 H 0.34342 0.39873 0.14382 0.0
H520 H 0.41333 0.52344 0.08599 0.0
H521 H 0.3635 0.50242 0.11934 0.0
H522 H 0.4699 0.51488 0.17023 0.0
H523 H 0.5192 0.54223 0.13683 0.0
C524 C 0.36604 0.46115 0.21087 0.0
C525 C 0.33403 0.40372 0.20546 0.0
C526 C 0.38981 0.4971 0.19218 0.0
C527 C 0.38293 0.47489 0.16757 0.0
C528 C 0.34949 0.41929 0.16231 0.0
C529 C 0.32528 0.38453 0.18101 0.0
C530 C 0.42607 0.52376 0.10436 0.0
C531 C 0.47074 0.53216 0.10856 0.0
C532 C 0.39736 0.51042 0.1236 0.0
C533 C 0.41237 0.50389 0.14769 0.0
C534 C 0.4566 0.51916 0.15209 0.0
C535 C 0.48522 0.53434 0.13281 0.0
H536 H 0.53797 0.95283 0.4292 0.0
H537 H 0.61268 0.84845 0.48675 0.0
H538 H 0.58564 0.89328 0.39902 0.0
H539 H 0.65956 0.7829 0.4563 0.0
H540 H 0.75877 0.73637 0.39388 0.0
H541 H 0.71314 0.78735 0.42693 0.0
H542 H 0.60293 0.77886 0.37863 0.0
H543 H 0.64922 0.73562 0.34542 0.0
C544 C 0.56454 0.91609 0.43538 0.0
C545 C 0.57137 0.90512 0.46038 0.0
C546 C 0.5918 0.88066 0.41797 0.0
C547 C 0.6263 0.83068 0.42484 0.0
C548 C 0.63366 0.82089 0.45004 0.0
C549 C 0.60674 0.85835 0.4676 0.0
C550 C 0.72475 0.74541 0.39037 0.0
C551 C 0.70818 0.73458 0.36667 0.0
C552 C 0.69829 0.7743 0.40948 0.0
C553 C 0.65413 0.7906 0.40557 0.0
C554 C 0.63697 0.77144 0.38238 0.0
C555 C 0.66355 0.74496 0.36324 0.0
H556 H 0.4636 0.08445 0.42242 0.0
H557 H 0.4367 0.26752 0.47678 0.0
H558 H 0.42823 0.1647 0.3916 0.0
H559 H 0.40114 0.34945 0.44584 0.0
H560 H 0.28365 0.385 0.39089 0.0
H561 H 0.33347 0.34152 0.42268 0.0
H562 H 0.42898 0.28414 0.36772 0.0
H563 H 0.37912 0.32398 0.33626 0.0
C564 C 0.45143 0.14349 0.42751 0.0
C565 C 0.45362 0.17062 0.45179 0.0
C566 C 0.43103 0.18969 0.40988 0.0
C567 C 0.41168 0.26394 0.41615 0.0
C568 C 0.41542 0.29252 0.44037 0.0
C569 C 0.43628 0.24626 0.45802 0.0
C570 C 0.31544 0.36383 0.38566 0.0
C571 C 0.32625 0.35381 0.36091 0.0
C572 C 0.34424 0.33953 0.40391 0.0
C573 C 0.38484 0.30656 0.39774 0.0
C574 C 0.39748 0.30638 0.37316 0.0
C575 C 0.36873 0.32985 0.35505 0.0
H576 H 1.00896 0.63057 0.08526 0.0
H577 H 0.04674 0.6735 1.01084 0.0
H578 H 1.00925 0.486 0.07693 0.0
H579 H 0.04433 0.53045 1.00202 0.0
H580 H 0.07713 0.2669 0.99974 0.0
H581 H 0.07775 0.40943 1.00772 0.0
H582 H 0.96933 0.3843 0.05679 0.0
H583 H 0.97064 0.23878 0.04999 0.0
C584 C 0.0178 0.60887 0.06722 0.0
C585 C 0.02825 0.66303 0.04878 0.0
C586 C 0.0172 0.52623 0.06229 0.0
C587 C 0.02618 0.49632 0.0387 0.0
C588 C 0.03784 0.55082 1.0205 0.0
C589 C 0.0394 0.63312 1.02557 0.0
C590 C 0.05295 0.29132 1.01206 0.0
C591 C 0.02403 0.24095 1.02441 0.0
C592 C 0.05323 0.37376 1.01656 0.0
C593 C 0.02388 0.40874 1.03309 0.0
C594 C 0.99317 0.3591 0.04441 0.0
C595 C 0.99343 0.27584 0.04024 0.0
H596 H 0.30916 0.55111 0.26455 0.0
H597 H 0.22243 0.5886 0.32558 0.0
H598 H 0.32031 0.69645 0.26254 0.0
H599 H 0.23132 0.73162 0.32262 0.0
H600 H 0.27467 -0.01279 0.32285 0.0
H601 H 0.27632 0.84213 0.32799 0.0
H602 H 0.27846 0.80782 0.24962 0.0
H603 H 0.27965 0.9534 0.24477 0.0
C604 C 0.29288 0.59012 0.27762 0.0
C605 C 0.26442 0.55865 0.29493 0.0
C606 C 0.29884 0.6732 0.27633 0.0
C607 C 0.27619 0.72553 0.29221 0.0
C608 C 0.24965 0.69329 0.31027 0.0
C609 C 0.24419 0.61091 0.31177 0.0
C610 C 0.27482 0.94823 0.30682 0.0
C611 C 0.27638 -0.01966 0.28345 0.0
C612 C 0.27604 0.86537 0.30969 0.0
C613 C 0.27769 0.81345 0.28919 0.0
C614 C 0.27824 0.84615 0.26577 0.0
C615 C 0.2781 0.92912 0.26295 0.0
H616 H 0.69215 0.09072 0.25917 0.0
H617 H 0.81754 0.06215 0.29258 0.0
H618 H 0.69548 0.23377 0.26665 0.0
H619 H 0.82186 0.20781 0.29903 0.0
H620 H 0.79556 0.45709 0.33038 0.0
H621 H 0.79042 0.31205 0.32372 0.0
H622 H 0.72944 0.35124 0.25406 0.0
H623 H 0.7325 0.49521 0.26135 0.0
C624 C 0.72101 0.1152 0.26763 0.0
C625 C 0.75472 0.06501 0.27525 0.0
C626 C 0.7229 0.19762 0.27188 0.0
C627 C 0.75888 0.23232 0.28346 0.0
C628 C 0.7933 0.18259 0.29046 0.0
C629 C 0.79111 0.09942 0.28654 0.0
C630 C 0.78034 0.43437 0.31388 0.0
C631 C 0.76434 0.48726 0.29641 0.0
C632 C 0.77795 0.35146 0.3099 0.0
C633 C 0.76004 0.32009 0.28823 0.0
C634 C 0.74296 0.37323 0.2711 0.0
C635 C 0.74466 0.45591 0.27527 0.0
H636 H 0.97442 0.78291 0.51166 0.0
H637 H 0.0127 0.83588 0.58586 0.0
H638 H 0.97757 0.9247 0.50246 0.0
H639 H 0.01339 -0.02087 0.57711 0.0
H640 H 0.05344 0.22229 0.54906 0.0
H641 H 0.05342 0.07794 0.55668 0.0
H642 H 0.94466 0.0476 0.508 0.0
H643 H 0.9464 0.18893 0.49935 0.0
C644 C 0.98219 0.82519 0.52624 0.0
C645 C 0.99313 0.7982 0.54952 0.0
C646 C 0.98412 0.90684 0.52096 0.0
C647 C 0.9961 0.96385 0.53898 0.0
C648 C 1.00513 0.93698 0.5626 0.0
C649 C 1.00402 0.85499 0.56775 0.0
C650 C 0.03021 0.18428 0.53962 0.0
C651 C 1.00007 0.21743 0.52356 0.0
C652 C 0.02973 0.10169 0.54424 0.0
C653 C 0.99871 0.05085 0.53316 0.0
C654 C 0.96949 0.08407 0.51662 0.0
C655 C 0.97046 0.16582 0.51169 0.0
H656 H 0.20164 0.02731 0.81522 0.0
H657 H 0.31061 -0.01305 0.7672 0.0
H658 H 0.20622 0.16999 0.80852 0.0
H659 H 0.31668 0.13186 0.76142 0.0
H660 H 0.28419 0.38265 0.73498 0.0
H661 H 0.28045 0.23829 0.74177 0.0
H662 H 0.24644 0.28517 0.81716 0.0
H663 H 0.24779 0.42869 0.80992 0.0
C664 C 0.22731 0.0491 0.80364 0.0
C665 C 0.25584 -0.00424 0.79174 0.0
C666 C 0.23 0.13129 0.79986 0.0
C667 C 0.26181 0.16256 0.78445 0.0
C668 C 0.29128 0.10952 0.77308 0.0
C669 C 0.28814 0.02668 0.77657 0.0
C670 C 0.27528 0.36169 0.75287 0.0
C671 C 0.26577 0.41648 0.77185 0.0
C672 C 0.27372 0.27917 0.75686 0.0
C673 C 0.2634 0.2501 0.78004 0.0
C674 C 0.25372 0.30532 0.79897 0.0
C675 C 0.25443 0.38764 0.79484 0.0
H676 H 0.75224 0.49152 0.83648 0.0
H677 H 0.75552 0.44191 0.7591 0.0
H678 H 0.75078 0.63587 0.82869 0.0
H679 H 0.7523 0.58467 0.75114 0.0
H680 H 0.7918 0.84505 0.74586 0.0
H681 H 0.79244 0.70279 0.75335 0.0
H682 H 0.70433 0.73848 0.81375 0.0
H683 H 0.70564 0.88336 0.80706 0.0
C684 C 0.75332 0.51177 0.81784 0.0
C685 C 0.75522 0.45608 0.79838 0.0
C686 C 0.75175 0.59413 0.81334 0.0
C687 C 0.75119 0.62192 0.78928 0.0
C688 C 0.75358 0.56572 0.7699 0.0
C689 C 0.75588 0.4838 0.77442 0.0
C690 C 0.77212 0.82295 0.76063 0.0
C691 C 0.74895 0.87591 0.77602 0.0
C692 C 0.77236 0.74086 0.76485 0.0
C693 C 0.74875 0.70909 0.78428 0.0
C694 C 0.72367 0.76136 0.79895 0.0
C695 C 0.72387 0.84418 0.7949 0.0
H696 H 0.46608 0.69399 0.48887 0.0
H697 H 0.51001 0.73689 0.56269 0.0
H698 H 0.47248 0.54928 0.49466 0.0
H699 H 0.5146 0.5932 0.5688 0.0
H700 H 0.56258 0.33828 0.56406 0.0
H701 H 0.5564 0.48106 0.55725 0.0
H702 H 0.43951 0.43981 0.51581 0.0
H703 H 0.44673 0.29518 0.52192 0.0
C704 C 0.4771 0.67247 0.5063 0.0
C705 C 0.48784 0.72669 0.52526 0.0
C706 C 0.48035 0.58968 0.5097 0.0
C707 C 0.49395 0.55969 0.53221 0.0
C708 C 0.50479 0.61419 0.55109 0.0
C709 C 0.50212 0.69671 0.54759 0.0
C710 C 0.53525 0.3595 0.55369 0.0
C711 C 0.50499 0.30551 0.54359 0.0
C712 C 0.53168 0.4416 0.54982 0.0
C713 C 0.49738 0.472 0.53607 0.0
C714 C 0.46668 0.41815 0.5262 0.0
C715 C 0.47058 0.33549 0.52984 0.0
H716 H 0.47576 0.71536 1.0193 0.0
H717 H 0.59965 0.75816 0.0536 0.0
H718 H 0.46455 0.86059 1.01712 0.0
H719 H 0.58913 0.90149 0.05065 0.0
H720 H 0.53819 0.15209 0.0649 0.0
H721 H 0.54626 0.00697 0.06805 0.0
H722 H 0.4933 0.97505 0.99564 0.0
H723 H 0.48386 0.11998 0.99288 0.0
C724 C 0.50051 0.75562 1.02631 0.0
C725 C 0.53837 0.72548 1.03675 0.0
C726 C 0.49426 0.83852 1.02495 0.0
C727 C 0.52595 0.89217 1.03381 0.0
C728 C 0.56375 0.86171 0.04414 0.0
C729 C 0.56981 0.77938 0.04571 0.0
C730 C 0.52863 0.11396 0.04963 0.0
C731 C 0.5104 0.14677 1.02869 0.0
C732 C 0.53319 0.03103 0.0514 0.0
C733 C 0.52022 -0.02018 1.0321 0.0
C734 C 0.50273 0.01298 1.01098 0.0
C735 C 0.49768 0.0958 1.00933 0.0
H736 H 0.38903 0.23476 0.07815 0.0
H737 H 0.33174 0.42903 0.03837 0.0
H738 H 0.31697 0.1768 0.0846 0.0
H739 H 0.26027 0.37198 0.04505 0.0
H740 H 0.18292 0.15271 1.01376 0.0
H741 H 0.24656 0.23274 1.02209 0.0
H742 H 0.22959 0.1991 0.09928 0.0
H743 H 0.16374 0.11886 0.09085 0.0
C744 C 0.36097 0.26695 0.07176 0.0
C745 C 0.36595 0.3355 0.05735 0.0
C746 C 0.31976 0.23386 0.0755 0.0
C747 C 0.28322 0.2694 0.06501 0.0
C748 C 0.28798 0.34306 0.05314 0.0
C749 C 0.32889 0.37556 0.04926 0.0
C750 C 0.19247 0.16194 1.03259 0.0
C751 C 0.16861 0.12812 0.05165 0.0
C752 C 0.22881 0.20863 0.03735 0.0
C753 C 0.24288 0.22252 0.06131 0.0
C754 C 0.21926 0.18924 0.08062 0.0
C755 C 0.18178 0.14342 0.07582 0.0
H756 H 0.88389 0.78935 0.9842 0.0
H757 H 0.86347 0.73261 0.05984 0.0
H758 H 0.81869 0.71081 0.9732 0.0
H759 H 0.80004 0.65437 0.0489 0.0
H760 H 0.71934 0.45557 1.02435 0.0
H761 H 0.78966 0.52055 1.02118 0.0
H762 H 0.73019 0.72602 0.98813 0.0
H763 H 0.65922 0.66045 0.99124 0.0
C764 C 0.86574 0.75985 0.99837 0.0
C765 C 0.87861 0.76754 1.02289 0.0
C766 C 0.82855 0.71531 0.9921 0.0
C767 C 0.80468 0.6761 1.01021 0.0
C768 C 0.81807 0.68325 1.03455 0.0
C769 C 0.85427 0.72867 0.04082 0.0
C770 C 0.72143 0.51321 1.01551 0.0
C771 C 0.68382 0.55333 1.00826 0.0
C772 C 0.76167 0.5504 1.01372 0.0
C773 C 0.76518 0.62863 1.00472 0.0
C774 C 0.72831 0.66546 0.99501 0.0
C775 C 0.68776 0.62788 0.99674 0.0
H776 H 0.11733 0.50229 0.30011 0.0
H777 H 0.10032 0.36485 0.23342 0.0
H778 H 0.05148 0.57558 0.29239 0.0
H779 H 0.0329 0.43945 0.22541 0.0
H780 H 0.88748 0.51052 0.25313 0.0
H781 H 0.95833 0.44796 0.24619 0.0
H782 H 0.02037 0.67359 0.2648 0.0
H783 H 0.95005 0.73441 0.27263 0.0
C784 C 0.09951 0.48857 0.28356 0.0
C785 C 0.1136 0.42788 0.26741 0.0
C786 C 0.06193 0.53112 0.27898 0.0
C787 C 0.03708 0.51396 0.25815 0.0
C788 C 0.05151 0.45402 0.24158 0.0
C789 C 0.08997 0.41174 0.24606 0.0
C790 C 0.91634 0.54704 0.25495 0.0
C791 C 0.91363 0.62671 0.26377 0.0
C792 C 0.95684 0.51142 0.25091 0.0
C793 C 0.99492 0.55547 0.25543 0.0
C794 C 0.99164 0.63764 0.26167 0.0
C795 C 0.95145 0.67256 0.2661 0.0
H796 H 0.30941 -0.02052 0.51043 0.0
H797 H 0.35145 0.83458 0.57064 0.0
H798 H 0.23909 0.91654 0.5116 0.0
H799 H 0.27975 0.7741 0.57259 0.0
H800 H 0.1871 0.59082 0.54045 0.0
H801 H 0.25089 0.67595 0.54379 0.0
H802 H 0.17206 0.88577 0.53101 0.0
H803 H 0.10849 0.79921 0.52667 0.0
C804 C 0.30321 0.93559 0.52437 0.0
C805 C 0.33635 0.90908 0.53975 0.0
C806 C 0.26271 0.90014 0.52517 0.0
C807 C 0.25459 0.83852 0.54161 0.0
C808 C 0.28592 0.81962 0.55914 0.0
C809 C 0.32674 0.85467 0.5582 0.0
C810 C 0.18392 0.65492 0.53764 0.0
C811 C 0.14359 0.689 0.53294 0.0
C812 C 0.22002 0.7038 0.54014 0.0
C813 C 0.21608 0.78764 0.53842 0.0
C814 C 0.1759 0.82132 0.53252 0.0
C815 C 0.13978 0.77202 0.52966 0.0
H816 H 0.88707 0.22717 0.54362 0.0
H817 H 0.81215 0.44555 0.54178 0.0
H818 H 0.82155 0.14769 0.53755 0.0
H819 H 0.74616 0.36677 0.53704 0.0
H820 H 0.64196 0.22746 0.50375 0.0
H821 H 0.71385 0.28794 0.50464 0.0
H822 H 0.75561 0.1089 0.55575 0.0
H823 H 0.68511 0.0464 0.55374 0.0
C824 C 0.85616 0.2576 0.54304 0.0
C825 C 0.8539 0.34166 0.54339 0.0
C826 C 0.81885 0.21248 0.53923 0.0
C827 C 0.77902 0.25132 0.53612 0.0
C828 C 0.77668 0.33548 0.53847 0.0
C829 C 0.81403 0.38045 0.5418 0.0
C830 C 0.66709 0.19951 0.51437 0.0
C831 C 0.65799 0.134 0.52919 0.0
C832 C 0.70791 0.23467 0.51522 0.0
C833 C 0.73963 0.20472 0.531 0.0
C834 C 0.73175 0.13373 0.54361 0.0
C835 C 0.69128 0.09826 0.54255 0.0
H836 H 0.93769 0.1162 0.79571 0.0
H837 H 0.8695 0.89044 0.78936 0.0
H838 H 1.00622 0.04645 0.78962 0.0
H839 H 0.93747 0.82047 0.78183 0.0
H840 H 0.07532 0.72695 0.7966 0.0
H841 H 1.00322 0.78191 0.79958 0.0
H842 H 0.04254 -0.01709 0.75564 0.0
H843 H 0.116 0.9293 0.75388 0.0
C844 C 0.93784 0.05122 0.79372 0.0
C845 C 0.8992 0.00776 0.79343 0.0
C846 C 0.97664 0.01161 0.78957 0.0
C847 C 0.97691 0.92848 0.78449 0.0
C848 C 0.9382 0.88456 0.78569 0.0
C849 C 0.89948 0.92411 0.79033 0.0
C850 C 0.06819 0.78197 0.7871 0.0
C851 C 0.10102 0.82543 0.77557 0.0
C852 C 0.02688 0.81326 0.78873 0.0
C853 C 0.01776 0.88789 0.77851 0.0
C854 C 0.04936 0.92646 0.76439 0.0
C855 C 0.09104 0.89534 0.76298 0.0
H856 H 0.62287 0.39731 0.75282 0.0
H857 H 0.56785 0.25837 0.81116 0.0
H858 H 0.55491 0.47071 0.74936 0.0
H859 H 0.50235 0.3347 0.80908 0.0
H860 H 0.37743 0.44882 0.79103 0.0
H861 H 0.44061 0.36343 0.7879 0.0
H862 H 0.51969 0.57211 0.77297 0.0
H863 H 0.45507 0.6564 0.77418 0.0
C864 C 0.59618 0.38182 0.76462 0.0
C865 C 0.60082 0.32358 0.78258 0.0
C866 C 0.55762 0.42447 0.76292 0.0
C867 C 0.52366 0.40955 0.77929 0.0
C868 C 0.52762 0.34746 0.79605 0.0
C869 C 0.56553 0.30421 0.79744 0.0
C870 C 0.40859 0.47632 0.78764 0.0
C871 C 0.41215 0.55871 0.78336 0.0
C872 C 0.44468 0.42757 0.78565 0.0
C873 C 0.48514 0.46103 0.78013 0.0
C874 C 0.48877 0.54436 0.77668 0.0
C875 C 0.45225 0.59282 0.77791 0.0
H876 H 0.60274 0.9725 0.26513 0.0
H877 H 0.6164 0.91879 0.34144 0.0
H878 H 0.54005 0.05403 0.27407 0.0
H879 H 0.55172 0.00165 0.35052 0.0
H880 H 0.39519 0.05499 0.32963 0.0
H881 H 0.46591 -0.00838 0.33567 0.0
H882 H 0.5271 0.18744 0.29828 0.0
H883 H 0.45688 0.24944 0.29182 0.0
C884 C 0.59214 0.97784 0.28391 0.0
C885 C 0.61426 0.93847 0.30255 0.0
C886 C 0.55642 0.02548 0.28906 0.0
C887 C 0.54129 0.03502 0.31301 0.0
C888 C 0.56299 -0.00447 0.3319 0.0
C889 C 0.59983 0.94842 0.32674 0.0
C890 C 0.42399 0.08592 0.3236 0.0
C891 C 0.42063 0.15617 0.30981 0.0
C892 C 0.46443 0.04976 0.32711 0.0
C893 C 0.5018 0.084 0.31705 0.0
C894 C 0.49871 0.15929 0.30594 0.0
C895 C 0.45853 0.19469 0.3022 0.0
loop_
_geom_bond_atom_site_label_1
_geom_bond_atom_site_label_2
_geom_bond_distance
_geom_bond_site_symmetry_2
_ccdc_geom_bond_type
Fe0 O1 1.886 1_556 S
Fe0 O4 1.715 . S
Fe0 O9 2.077 . S
Fe0 O14 1.935 1_655 S
Fe0 O20 2.077 . S
Fe0 O29 1.935 . S
O1 Fe0 1.886 1_554 S
O1 Fe3 1.715 . S
Fe2 O4 1.886 1_445 S
Fe2 O5 1.715 . S
Fe2 O12 1.935 . S
Fe2 O13 2.077 . S
Fe2 O19 1.935 1_455 S
Fe2 O28 2.077 1_455 S
Fe3 O1 1.715 . S
Fe3 O6 1.886 1_665 S
Fe3 O10 1.935 1_655 S
Fe3 O15 2.077 1_655 S
Fe3 O21 1.935 . S
Fe3 O25 2.077 . S
O4 Fe0 1.715 . S
O4 Fe2 1.886 1_665 S
O5 Fe2 1.715 . S
O5 Fe7 1.886 1_556 S
O6 Fe3 1.886 1_445 S
O6 Fe7 1.715 . S
Fe7 O5 1.886 1_554 S
Fe7 O6 1.715 . S
Fe7 O11 2.077 . S
Fe7 O16 1.935 . S
Fe7 O18 2.077 . S
Fe7 O26 1.935 1_455 S
C8 O20 1.381 1_554 S
C8 O21 1.421 . S
O9 Fe0 2.077 . S
O9 C22 1.381 1_656 S
O10 Fe3 1.935 1_455 S
O10 C22 1.421 . S
O11 Fe7 2.077 . S
O11 C27 1.381 1_554 S
O12 Fe2 1.935 . S
O12 C27 1.421 . S
O13 Fe2 2.077 . S
O13 C17 1.381 1_545 S
O14 Fe0 1.935 1_455 S
O14 C17 1.421 . S
O15 Fe3 2.077 1_455 S
O15 C23 1.381 . S
O16 Fe7 1.935 . S
O16 C23 1.421 1_545 S
C17 O13 1.381 1_565 S
C17 O14 1.421 . S
O18 Fe7 2.077 . S
O18 C30 1.381 1_454 S
O19 Fe2 1.935 1_655 S
O19 C30 1.421 . S
O20 Fe0 2.077 . S
O20 C8 1.381 1_556 S
O21 Fe3 1.935 . S
O21 C8 1.421 . S
C22 O9 1.381 1_454 S
C22 O10 1.421 . S
C23 O15 1.381 . S
C23 O16 1.421 1_565 S
C24 O25 1.381 1_545 S
C24 O26 1.421 . S
O25 Fe3 2.077 . S
O25 C24 1.381 1_565 S
O26 Fe7 1.935 1_655 S
O26 C24 1.421 . S
C27 O11 1.381 1_556 S
C27 O12 1.421 . S
O28 Fe2 2.077 1_655 S
O28 C31 1.381 . S
O29 Fe0 1.935 . S
O29 C31 1.421 1_565 S
C30 O18 1.381 1_656 S
C30 O19 1.421 . S
C31 O28 1.381 . S
C31 O29 1.421 1_545 S
Fe32 O33 1.886 . S
Fe32 O36 1.715 . S
Fe32 O41 2.077 . S
Fe32 O46 1.935 . S
Fe32 O52 2.077 . S
Fe32 O61 1.935 . S
O33 Fe32 1.886 . S
O33 Fe35 1.715 . S
Fe34 O36 1.886 . S
Fe34 O37 1.715 . S
Fe34 O44 1.935 . S
Fe34 O45 2.077 . S
Fe34 O51 1.935 . S
Fe34 O60 2.077 . S
Fe35 O33 1.715 . S
Fe35 O38 1.886 . S
Fe35 O42 1.935 . S
Fe35 O47 2.077 . S
Fe35 O53 1.935 . S
Fe35 O57 2.077 . S
O36 Fe32 1.715 . S
O36 Fe34 1.886 . S
O37 Fe34 1.715 . S
O37 Fe39 1.886 . S
O38 Fe35 1.886 . S
O38 Fe39 1.715 . S
Fe39 O37 1.886 . S
Fe39 O38 1.715 . S
Fe39 O43 2.077 . S
Fe39 O48 1.935 . S
Fe39 O50 2.077 . S
Fe39 O58 1.935 . S
C40 O52 1.381 . S
C40 O53 1.421 . S
O41 Fe32 2.077 . S
O41 C54 1.381 . S
O42 Fe35 1.935 . S
O42 C54 1.421 . S
O43 Fe39 2.077 . S
O43 C59 1.381 . S
O44 Fe34 1.935 . S
O44 C59 1.421 . S
O45 Fe34 2.077 . S
O45 C49 1.381 . S
O46 Fe32 1.935 . S
O46 C49 1.421 . S
O47 Fe35 2.077 . S
O47 C55 1.381 . S
O48 Fe39 1.935 . S
O48 C55 1.421 . S
C49 O45 1.381 . S
C49 O46 1.421 . S
O50 Fe39 2.077 . S
O50 C62 1.381 . S
O51 Fe34 1.935 . S
O51 C62 1.421 . S
O52 Fe32 2.077 . S
O52 C40 1.381 . S
O53 Fe35 1.935 . S
O53 C40 1.421 . S
C54 O41 1.381 . S
C54 O42 1.421 . S
C55 O47 1.381 . S
C55 O48 1.421 . S
C56 O57 1.381 . S
C56 O58 1.421 . S
O57 Fe35 2.077 . S
O57 C56 1.381 . S
O58 Fe39 1.935 . S
O58 C56 1.421 . S
C59 O43 1.381 . S
C59 O44 1.421 . S
O60 Fe34 2.077 . S
O60 C63 1.381 . S
O61 Fe32 1.935 . S
O61 C63 1.421 . S
C62 O50 1.381 . S
C62 O51 1.421 . S
C63 O60 1.381 . S
C63 O61 1.421 . S
Fe64 O65 1.886 . S
Fe64 O68 1.715 . S
Fe64 O73 2.077 . S
Fe64 O78 1.935 . S
Fe64 O84 2.077 . S
Fe64 O93 1.935 . S
O65 Fe64 1.886 . S
O65 Fe67 1.715 . S
Fe66 O68 1.886 . S
Fe66 O69 1.715 . S
Fe66 O76 1.935 . S
Fe66 O77 2.077 . S
Fe66 O83 1.935 . S
Fe66 O92 2.077 . S
Fe67 O65 1.715 . S
Fe67 O70 1.886 . S
Fe67 O74 1.935 . S
Fe67 O79 2.077 . S
Fe67 O85 1.935 . S
Fe67 O89 2.077 . S
O68 Fe64 1.715 . S
O68 Fe66 1.886 . S
O69 Fe66 1.715 . S
O69 Fe71 1.886 . S
O70 Fe67 1.886 . S
O70 Fe71 1.715 . S
Fe71 O69 1.886 . S
Fe71 O70 1.715 . S
Fe71 O75 2.077 . S
Fe71 O80 1.935 . S
Fe71 O82 2.077 . S
Fe71 O90 1.935 . S
C72 O84 1.381 . S
C72 O85 1.421 . S
O73 Fe64 2.077 . S
O73 C86 1.381 . S
O74 Fe67 1.935 . S
O74 C86 1.421 . S
O75 Fe71 2.077 . S
O75 C91 1.381 . S
O76 Fe66 1.935 . S
O76 C91 1.421 . S
O77 Fe66 2.077 . S
O77 C81 1.381 . S
O78 Fe64 1.935 . S
O78 C81 1.421 . S
O79 Fe67 2.077 . S
O79 C87 1.381 . S
O80 Fe71 1.935 . S
O80 C87 1.421 . S
C81 O77 1.381 . S
C81 O78 1.421 . S
O82 Fe71 2.077 . S
O82 C94 1.381 . S
O83 Fe66 1.935 . S
O83 C94 1.421 . S
O84 Fe64 2.077 . S
O84 C72 1.381 . S
O85 Fe67 1.935 . S
O85 C72 1.421 . S
C86 O73 1.381 . S
C86 O74 1.421 . S
C87 O79 1.381 . S
C87 O80 1.421 . S
C88 O89 1.381 . S
C88 O90 1.421 . S
O89 Fe67 2.077 . S
O89 C88 1.381 . S
O90 Fe71 1.935 . S
O90 C88 1.421 . S
C91 O75 1.381 . S
C91 O76 1.421 . S
O92 Fe66 2.077 . S
O92 C95 1.381 . S
O93 Fe64 1.935 . S
O93 C95 1.421 . S
C94 O82 1.381 . S
C94 O83 1.421 . S
C95 O92 1.381 . S
C95 O93 1.421 . S
Fe96 O97 1.886 . S
Fe96 O100 1.715 . S
Fe96 O105 2.077 . S
Fe96 O110 1.935 1_655 S
Fe96 O116 2.077 . S
Fe96 O125 1.935 . S
O97 Fe96 1.886 . S
O97 Fe99 1.715 . S
Fe98 O100 1.886 1_455 S
Fe98 O101 1.715 . S
Fe98 O108 1.935 . S
Fe98 O109 2.077 . S
Fe98 O115 1.935 1_455 S
Fe98 O124 2.077 1_455 S
Fe99 O97 1.715 . S
Fe99 O102 1.886 1_655 S
Fe99 O106 1.935 1_655 S
Fe99 O111 2.077 1_655 S
Fe99 O117 1.935 . S
Fe99 O121 2.077 . S
O100 Fe96 1.715 . S
O100 Fe98 1.886 1_655 S
O101 Fe98 1.715 . S
O101 Fe103 1.886 . S
O102 Fe99 1.886 1_455 S
O102 Fe103 1.715 . S
Fe103 O101 1.886 . S
Fe103 O102 1.715 . S
Fe103 O107 2.077 . S
Fe103 O112 1.935 . S
Fe103 O114 2.077 . S
Fe103 O122 1.935 1_455 S
C104 O116 1.381 . S
C104 O117 1.421 . S
O105 Fe96 2.077 . S
O105 C118 1.381 1_655 S
O106 Fe99 1.935 1_455 S
O106 C118 1.421 . S
O107 Fe103 2.077 . S
O107 C123 1.381 . S
O108 Fe98 1.935 . S
O108 C123 1.421 . S
O109 Fe98 2.077 . S
O109 C113 1.381 . S
O110 Fe96 1.935 1_455 S
O110 C113 1.421 . S
O111 Fe99 2.077 1_455 S
O111 C119 1.381 . S
O112 Fe103 1.935 . S
O112 C119 1.421 . S
C113 O109 1.381 . S
C113 O110 1.421 . S
O114 Fe103 2.077 . S
O114 C126 1.381 1_455 S
O115 Fe98 1.935 1_655 S
O115 C126 1.421 . S
O116 Fe96 2.077 . S
O116 C104 1.381 . S
O117 Fe99 1.935 . S
O117 C104 1.421 . S
C118 O105 1.381 1_455 S
C118 O106 1.421 . S
C119 O111 1.381 . S
C119 O112 1.421 . S
C120 O121 1.381 . S
C120 O122 1.421 . S
O121 Fe99 2.077 . S
O121 C120 1.381 . S
O122 Fe103 1.935 1_655 S
O122 C120 1.421 . S
C123 O107 1.381 . S
C123 O108 1.421 . S
O124 Fe98 2.077 1_655 S
O124 C127 1.381 . S
O125 Fe96 1.935 . S
O125 C127 1.421 . S
C126 O114 1.381 1_655 S
C126 O115 1.421 . S
C127 O124 1.381 . S
C127 O125 1.421 . S
Fe128 O129 1.886 . S
Fe128 O132 1.715 . S
Fe128 O137 2.077 . S
Fe128 O142 1.935 . S
Fe128 O148 2.077 . S
Fe128 O157 1.935 . S
O129 Fe128 1.886 . S
O129 Fe131 1.715 . S
Fe130 O132 1.886 . S
Fe130 O133 1.715 . S
Fe130 O140 1.935 . S
Fe130 O141 2.077 . S
Fe130 O147 1.935 . S
Fe130 O156 2.077 . S
Fe131 O129 1.715 . S
Fe131 O134 1.886 . S
Fe131 O138 1.935 . S
Fe131 O143 2.077 . S
Fe131 O149 1.935 . S
Fe131 O153 2.077 . S
O132 Fe128 1.715 . S
O132 Fe130 1.886 . S
O133 Fe130 1.715 . S
O133 Fe135 1.886 . S
O134 Fe131 1.886 . S
O134 Fe135 1.715 . S
Fe135 O133 1.886 . S
Fe135 O134 1.715 . S
Fe135 O139 2.077 . S
Fe135 O144 1.935 . S
Fe135 O146 2.077 . S
Fe135 O154 1.935 . S
C136 O148 1.381 . S
C136 O149 1.421 . S
O137 Fe128 2.077 . S
O137 C150 1.381 . S
O138 Fe131 1.935 . S
O138 C150 1.421 . S
O139 Fe135 2.077 . S
O139 C155 1.381 . S
O140 Fe130 1.935 . S
O140 C155 1.421 . S
O141 Fe130 2.077 . S
O141 C145 1.381 . S
O142 Fe128 1.935 . S
O142 C145 1.421 . S
O143 Fe131 2.077 . S
O143 C151 1.381 . S
O144 Fe135 1.935 . S
O144 C151 1.421 . S
C145 O141 1.381 . S
C145 O142 1.421 . S
O146 Fe135 2.077 . S
O146 C158 1.381 . S
O147 Fe130 1.935 . S
O147 C158 1.421 . S
O148 Fe128 2.077 . S
O148 C136 1.381 . S
O149 Fe131 1.935 . S
O149 C136 1.421 . S
C150 O137 1.381 . S
C150 O138 1.421 . S
C151 O143 1.381 . S
C151 O144 1.421 . S
C152 O153 1.381 . S
C152 O154 1.421 . S
O153 Fe131 2.077 . S
O153 C152 1.381 . S
O154 Fe135 1.935 . S
O154 C152 1.421 . S
C155 O139 1.381 . S
C155 O140 1.421 . S
O156 Fe130 2.077 . S
O156 C159 1.381 . S
O157 Fe128 1.935 . S
O157 C159 1.421 . S
C158 O146 1.381 . S
C158 O147 1.421 . S
C159 O156 1.381 . S
C159 O157 1.421 . S
Fe160 O161 1.886 . S
Fe160 O164 1.715 . S
Fe160 O169 2.077 . S
Fe160 O174 1.935 . S
Fe160 O180 2.077 . S
Fe160 O189 1.935 . S
O161 Fe160 1.886 . S
O161 Fe163 1.715 . S
Fe162 O164 1.886 . S
Fe162 O165 1.715 . S
Fe162 O172 1.935 . S
Fe162 O173 2.077 . S
Fe162 O179 1.935 . S
Fe162 O188 2.077 . S
Fe163 O161 1.715 . S
Fe163 O166 1.886 . S
Fe163 O170 1.935 . S
Fe163 O175 2.077 . S
Fe163 O181 1.935 . S
Fe163 O185 2.077 . S
O164 Fe160 1.715 . S
O164 Fe162 1.886 . S
O165 Fe162 1.715 . S
O165 Fe167 1.886 . S
O166 Fe163 1.886 . S
O166 Fe167 1.715 . S
Fe167 O165 1.886 . S
Fe167 O166 1.715 . S
Fe167 O171 2.077 . S
Fe167 O176 1.935 . S
Fe167 O178 2.077 . S
Fe167 O186 1.935 . S
C168 O180 1.381 . S
C168 O181 1.421 . S
O169 Fe160 2.077 . S
O169 C182 1.381 . S
O170 Fe163 1.935 . S
O170 C182 1.421 . S
O171 Fe167 2.077 . S
O171 C187 1.381 . S
O172 Fe162 1.935 . S
O172 C187 1.421 . S
O173 Fe162 2.077 . S
O173 C177 1.381 . S
O174 Fe160 1.935 . S
O174 C177 1.421 . S
O175 Fe163 2.077 . S
O175 C183 1.381 . S
O176 Fe167 1.935 . S
O176 C183 1.421 . S
C177 O173 1.381 . S
C177 O174 1.421 . S
O178 Fe167 2.077 . S
O178 C190 1.381 . S
O179 Fe162 1.935 . S
O179 C190 1.421 . S
O180 Fe160 2.077 . S
O180 C168 1.381 . S
O181 Fe163 1.935 . S
O181 C168 1.421 . S
C182 O169 1.381 . S
C182 O170 1.421 . S
C183 O175 1.381 . S
C183 O176 1.421 . S
C184 O185 1.381 . S
C184 O186 1.421 . S
O185 Fe163 2.077 . S
O185 C184 1.381 . S
O186 Fe167 1.935 . S
O186 C184 1.421 . S
C187 O171 1.381 . S
C187 O172 1.421 . S
O188 Fe162 2.077 . S
O188 C191 1.381 . S
O189 Fe160 1.935 . S
O189 C191 1.421 . S
C190 O178 1.381 . S
C190 O179 1.421 . S
C191 O188 1.381 . S
C191 O189 1.421 . S
Fe192 O193 1.886 . S
Fe192 O196 1.715 . S
Fe192 O201 2.077 . S
Fe192 O206 1.935 . S
Fe192 O212 2.077 . S
Fe192 O221 1.935 . S
O193 Fe192 1.886 . S
O193 Fe195 1.715 . S
Fe194 O196 1.886 1_545 S
Fe194 O197 1.715 . S
Fe194 O204 1.935 . S
Fe194 O205 2.077 . S
Fe194 O211 1.935 . S
Fe194 O220 2.077 . S
Fe195 O193 1.715 . S
Fe195 O198 1.886 1_565 S
Fe195 O202 1.935 . S
Fe195 O207 2.077 . S
Fe195 O213 1.935 . S
Fe195 O217 2.077 . S
O196 Fe192 1.715 . S
O196 Fe194 1.886 1_565 S
O197 Fe194 1.715 . S
O197 Fe199 1.886 . S
O198 Fe195 1.886 1_545 S
O198 Fe199 1.715 . S
Fe199 O197 1.886 . S
Fe199 O198 1.715 . S
Fe199 O203 2.077 . S
Fe199 O208 1.935 . S
Fe199 O210 2.077 . S
Fe199 O218 1.935 . S
C200 O212 1.381 . S
C200 O213 1.421 . S
O201 Fe192 2.077 . S
O201 C214 1.381 . S
O202 Fe195 1.935 . S
O202 C214 1.421 . S
O203 Fe199 2.077 . S
O203 C219 1.381 . S
O204 Fe194 1.935 . S
O204 C219 1.421 . S
O205 Fe194 2.077 . S
O205 C209 1.381 1_545 S
O206 Fe192 1.935 . S
O206 C209 1.421 . S
O207 Fe195 2.077 . S
O207 C215 1.381 . S
O208 Fe199 1.935 . S
O208 C215 1.421 1_545 S
C209 O205 1.381 1_565 S
C209 O206 1.421 . S
O210 Fe199 2.077 . S
O210 C222 1.381 . S
O211 Fe194 1.935 . S
O211 C222 1.421 . S
O212 Fe192 2.077 . S
O212 C200 1.381 . S
O213 Fe195 1.935 . S
O213 C200 1.421 . S
C214 O201 1.381 . S
C214 O202 1.421 . S
C215 O207 1.381 . S
C215 O208 1.421 1_565 S
C216 O217 1.381 1_545 S
C216 O218 1.421 . S
O217 Fe195 2.077 . S
O217 C216 1.381 1_565 S
O218 Fe199 1.935 . S
O218 C216 1.421 . S
C219 O203 1.381 . S
C219 O204 1.421 . S
O220 Fe194 2.077 . S
O220 C223 1.381 . S
O221 Fe192 1.935 . S
O221 C223 1.421 1_565 S
C222 O210 1.381 . S
C222 O211 1.421 . S
C223 O220 1.381 . S
C223 O221 1.421 1_545 S
Fe224 O225 1.886 1_556 S
Fe224 O228 1.715 . S
Fe224 O233 2.077 . S
Fe224 O238 1.935 . S
Fe224 O244 2.077 . S
Fe224 O253 1.935 . S
O225 Fe224 1.886 1_554 S
O225 Fe227 1.715 . S
Fe226 O228 1.886 . S
Fe226 O229 1.715 . S
Fe226 O236 1.935 . S
Fe226 O237 2.077 . S
Fe226 O243 1.935 . S
Fe226 O252 2.077 . S
Fe227 O225 1.715 . S
Fe227 O230 1.886 . S
Fe227 O234 1.935 . S
Fe227 O239 2.077 . S
Fe227 O245 1.935 . S
Fe227 O249 2.077 . S
O228 Fe224 1.715 . S
O228 Fe226 1.886 . S
O229 Fe226 1.715 . S
O229 Fe231 1.886 1_556 S
O230 Fe227 1.886 . S
O230 Fe231 1.715 . S
Fe231 O229 1.886 1_554 S
Fe231 O230 1.715 . S
Fe231 O235 2.077 . S
Fe231 O240 1.935 . S
Fe231 O242 2.077 . S
Fe231 O250 1.935 . S
C232 O244 1.381 1_554 S
C232 O245 1.421 . S
O233 Fe224 2.077 . S
O233 C246 1.381 1_556 S
O234 Fe227 1.935 . S
O234 C246 1.421 . S
O235 Fe231 2.077 . S
O235 C251 1.381 1_554 S
O236 Fe226 1.935 . S
O236 C251 1.421 . S
O237 Fe226 2.077 . S
O237 C241 1.381 . S
O238 Fe224 1.935 . S
O238 C241 1.421 . S
O239 Fe227 2.077 . S
O239 C247 1.381 . S
O240 Fe231 1.935 . S
O240 C247 1.421 . S
C241 O237 1.381 . S
C241 O238 1.421 . S
O242 Fe231 2.077 . S
O242 C254 1.381 1_554 S
O243 Fe226 1.935 . S
O243 C254 1.421 . S
O244 Fe224 2.077 . S
O244 C232 1.381 1_556 S
O245 Fe227 1.935 . S
O245 C232 1.421 . S
C246 O233 1.381 1_554 S
C246 O234 1.421 . S
C247 O239 1.381 . S
C247 O240 1.421 . S
C248 O249 1.381 . S
C248 O250 1.421 . S
O249 Fe227 2.077 . S
O249 C248 1.381 . S
O250 Fe231 1.935 . S
O250 C248 1.421 . S
C251 O235 1.381 1_556 S
C251 O236 1.421 . S
O252 Fe226 2.077 . S
O252 C255 1.381 . S
O253 Fe224 1.935 . S
O253 C255 1.421 . S
C254 O242 1.381 1_556 S
C254 O243 1.421 . S
C255 O252 1.381 . S
C255 O253 1.421 . S
H256 C264 0.950 1_545 S
H257 C269 0.950 . S
H258 C266 0.950 . S
H259 C268 0.950 . S
H260 C270 0.950 . S
H261 C272 0.950 . S
H262 C274 0.950 . S
H263 C275 0.950 . S
C264 H256 0.950 1_565 S
C264 C265 1.386 . S
C264 C266 1.391 1_565 S
C265 C264 1.386 . S
C265 C269 1.393 . S
C266 H258 0.950 . S
C266 C264 1.391 1_545 S
C266 C267 1.400 . S
C267 C266 1.400 . S
C267 C268 1.398 1_545 S
C267 C273 1.491 . S
C268 H259 0.950 . S
C268 C267 1.398 1_565 S
C268 C269 1.391 . S
C269 H257 0.950 . S
C269 C265 1.393 . S
C269 C268 1.391 . S
C270 H260 0.950 . S
C270 C271 1.386 . S
C270 C272 1.391 . S
C271 C270 1.386 . S
C271 C275 1.393 . S
C272 H261 0.950 . S
C272 C270 1.391 . S
C272 C273 1.400 . S
C273 C267 1.491 . S
C273 C272 1.400 . S
C273 C274 1.398 . S
C274 H262 0.950 . S
C274 C273 1.398 . S
C274 C275 1.391 . S
C275 H263 0.950 . S
C275 C271 1.393 . S
C275 C274 1.391 . S
H276 C284 0.950 . S
H277 C289 0.950 . S
H278 C286 0.950 . S
H279 C288 0.950 . S
H280 C290 0.950 . S
H281 C292 0.950 . S
H282 C294 0.950 . S
H283 C295 0.950 . S
C284 H276 0.950 . S
C284 C285 1.386 . S
C284 C286 1.391 . S
C285 C284 1.386 . S
C285 C289 1.393 1_545 S
C286 H278 0.950 . S
C286 C284 1.391 . S
C286 C287 1.400 1_545 S
C287 C286 1.400 1_565 S
C287 C288 1.398 . S
C287 C293 1.491 . S
C288 H279 0.950 . S
C288 C287 1.398 . S
C288 C289 1.391 . S
C289 H277 0.950 . S
C289 C285 1.393 1_565 S
C289 C288 1.391 . S
C290 H280 0.950 . S
C290 C291 1.386 . S
C290 C292 1.391 . S
C291 C290 1.386 . S
C291 C295 1.393 . S
C292 H281 0.950 . S
C292 C290 1.391 . S
C292 C293 1.400 . S
C293 C287 1.491 . S
C293 C292 1.400 . S
C293 C294 1.398 . S
C294 H282 0.950 . S
C294 C293 1.398 . S
C294 C295 1.391 . S
C295 H283 0.950 . S
C295 C291 1.393 . S
C295 C294 1.391 . S
H296 C304 0.950 . S
H297 C309 0.950 . S
H298 C306 0.950 . S
H299 C308 0.950 . S
H300 C310 0.950 . S
H301 C312 0.950 . S
H302 C314 0.950 . S
H303 C315 0.950 . S
C304 H296 0.950 . S
C304 C305 1.386 . S
C304 C306 1.391 . S
C305 C304 1.386 . S
C305 C309 1.393 . S
C306 H298 0.950 . S
C306 C304 1.391 . S
C306 C307 1.400 . S
C307 C306 1.400 . S
C307 C308 1.398 . S
C307 C313 1.491 . S
C308 H299 0.950 . S
C308 C307 1.398 . S
C308 C309 1.391 . S
C309 H297 0.950 . S
C309 C305 1.393 . S
C309 C308 1.391 . S
C310 H300 0.950 . S
C310 C311 1.386 . S
C310 C312 1.391 . S
C311 C310 1.386 . S
C311 C315 1.393 . S
C312 H301 0.950 . S
C312 C310 1.391 . S
C312 C313 1.400 . S
C313 C307 1.491 . S
C313 C312 1.400 . S
C313 C314 1.398 . S
C314 H302 0.950 . S
C314 C313 1.398 . S
C314 C315 1.391 . S
C315 H303 0.950 . S
C315 C311 1.393 . S
C315 C314 1.391 . S
H316 C324 0.950 . S
H317 C329 0.950 . S
H318 C326 0.950 . S
H319 C328 0.950 . S
H320 C330 0.950 . S
H321 C332 0.950 . S
H322 C334 0.950 . S
H323 C335 0.950 . S
C324 H316 0.950 . S
C324 C325 1.386 . S
C324 C326 1.391 . S
C325 C324 1.386 . S
C325 C329 1.393 . S
C326 H318 0.950 . S
C326 C324 1.391 . S
C326 C327 1.400 . S
C327 C326 1.400 . S
C327 C328 1.398 . S
C327 C333 1.491 . S
C328 H319 0.950 . S
C328 C327 1.398 . S
C328 C329 1.391 . S
C329 H317 0.950 . S
C329 C325 1.393 . S
C329 C328 1.391 . S
C330 H320 0.950 . S
C330 C331 1.386 . S
C330 C332 1.391 . S
C331 C330 1.386 . S
C331 C335 1.393 . S
C332 H321 0.950 . S
C332 C330 1.391 . S
C332 C333 1.400 . S
C333 C327 1.491 . S
C333 C332 1.400 . S
C333 C334 1.398 . S
C334 H322 0.950 . S
C334 C333 1.398 . S
C334 C335 1.391 . S
C335 H323 0.950 . S
C335 C331 1.393 . S
C335 C334 1.391 . S
H336 C344 0.950 . S
H337 C349 0.950 . S
H338 C346 0.950 . S
H339 C348 0.950 . S
H340 C350 0.950 . S
H341 C352 0.950 . S
H342 C354 0.950 . S
H343 C355 0.950 . S
C344 H336 0.950 . S
C344 C345 1.386 . S
C344 C346 1.391 . S
C345 C344 1.386 . S
C345 C349 1.393 . S
C346 H338 0.950 . S
C346 C344 1.391 . S
C346 C347 1.400 . S
C347 C346 1.400 . S
C347 C348 1.398 . S
C347 C353 1.491 . S
C348 H339 0.950 . S
C348 C347 1.398 . S
C348 C349 1.391 . S
C349 H337 0.950 . S
C349 C345 1.393 . S
C349 C348 1.391 . S
C350 H340 0.950 . S
C350 C351 1.386 . S
C350 C352 1.391 . S
C351 C350 1.386 . S
C351 C355 1.393 . S
C352 H341 0.950 . S
C352 C350 1.391 . S
C352 C353 1.400 . S
C353 C347 1.491 . S
C353 C352 1.400 . S
C353 C354 1.398 . S
C354 H342 0.950 . S
C354 C353 1.398 . S
C354 C355 1.391 . S
C355 H343 0.950 . S
C355 C351 1.393 . S
C355 C354 1.391 . S
H356 C364 0.950 . S
H357 C369 0.950 . S
H358 C366 0.950 . S
H359 C368 0.950 . S
H360 C370 0.950 . S
H361 C372 0.950 . S
H362 C374 0.950 . S
H363 C375 0.950 . S
C364 H356 0.950 . S
C364 C365 1.386 . S
C364 C366 1.391 . S
C365 C364 1.386 . S
C365 C369 1.393 . S
C366 H358 0.950 . S
C366 C364 1.391 . S
C366 C367 1.400 . S
C367 C366 1.400 . S
C367 C368 1.398 . S
C367 C373 1.491 . S
C368 H359 0.950 . S
C368 C367 1.398 . S
C368 C369 1.391 . S
C369 H357 0.950 . S
C369 C365 1.393 . S
C369 C368 1.391 . S
C370 H360 0.950 . S
C370 C371 1.386 . S
C370 C372 1.391 . S
C371 C370 1.386 . S
C371 C375 1.393 . S
C372 H361 0.950 . S
C372 C370 1.391 . S
C372 C373 1.400 . S
C373 C367 1.491 . S
C373 C372 1.400 . S
C373 C374 1.398 . S
C374 H362 0.950 . S
C374 C373 1.398 . S
C374 C375 1.391 . S
C375 H363 0.950 . S
C375 C371 1.393 . S
C375 C374 1.391 . S
H376 C384 0.950 . S
H377 C389 0.950 . S
H378 C386 0.950 . S
H379 C388 0.950 . S
H380 C390 0.950 . S
H381 C392 0.950 . S
H382 C394 0.950 . S
H383 C395 0.950 . S
C384 H376 0.950 . S
C384 C385 1.386 . S
C384 C386 1.391 . S
C385 C384 1.386 . S
C385 C389 1.393 . S
C386 H378 0.950 . S
C386 C384 1.391 . S
C386 C387 1.400 . S
C387 C386 1.400 . S
C387 C388 1.398 . S
C387 C393 1.491 . S
C388 H379 0.950 . S
C388 C387 1.398 . S
C388 C389 1.391 . S
C389 H377 0.950 . S
C389 C385 1.393 . S
C389 C388 1.391 . S
C390 H380 0.950 . S
C390 C391 1.386 . S
C390 C392 1.391 . S
C391 C390 1.386 . S
C391 C395 1.393 . S
C392 H381 0.950 . S
C392 C390 1.391 . S
C392 C393 1.400 . S
C393 C387 1.491 . S
C393 C392 1.400 . S
C393 C394 1.398 . S
C394 H382 0.950 . S
C394 C393 1.398 . S
C394 C395 1.391 . S
C395 H383 0.950 . S
C395 C391 1.393 . S
C395 C394 1.391 . S
H396 C404 0.950 . S
H397 C409 0.950 . S
H398 C406 0.950 . S
H399 C408 0.950 . S
H400 C410 0.950 . S
H401 C412 0.950 . S
H402 C414 0.950 . S
H403 C415 0.941 1_565 S
C404 H396 0.950 . S
C404 C405 1.386 . S
C404 C406 1.391 . S
C405 C404 1.386 . S
C405 C409 1.393 . S
C406 H398 0.950 . S
C406 C404 1.391 . S
C406 C407 1.400 . S
C407 C406 1.400 . S
C407 C408 1.398 . S
C407 C413 1.491 . S
C408 H399 0.950 . S
C408 C407 1.398 . S
C408 C409 1.391 . S
C409 H397 0.950 . S
C409 C405 1.393 . S
C409 C408 1.391 . S
C410 H400 0.950 . S
C410 C411 1.386 . S
C410 C412 1.391 . S
C411 C410 1.386 . S
C411 C415 1.393 . S
C412 H401 0.950 . S
C412 C410 1.391 . S
C412 C413 1.400 . S
C413 C407 1.491 . S
C413 C412 1.400 . S
C413 C414 1.398 . S
C414 H402 0.950 . S
C414 C413 1.398 . S
C414 C415 1.391 . S
C415 H403 0.941 1_545 S
C415 C411 1.393 . S
C415 C414 1.391 . S
H416 C424 0.950 . S
H417 C429 0.950 . S
H418 C426 0.950 . S
H419 C428 0.950 . S
H420 C430 0.950 . S
H421 C432 0.950 . S
H422 C434 0.950 . S
H423 C435 0.950 . S
C424 H416 0.950 . S
C424 C425 1.386 . S
C424 C426 1.391 . S
C425 C424 1.386 . S
C425 C429 1.393 . S
C426 H418 0.950 . S
C426 C424 1.391 . S
C426 C427 1.400 . S
C427 C426 1.400 . S
C427 C428 1.398 . S
C427 C433 1.491 . S
C428 H419 0.950 . S
C428 C427 1.398 . S
C428 C429 1.391 . S
C429 H417 0.950 . S
C429 C425 1.393 . S
C429 C428 1.391 . S
C430 H420 0.950 . S
C430 C431 1.386 . S
C430 C432 1.391 1_565 S
C431 C430 1.386 . S
C431 C435 1.393 . S
C432 H421 0.950 . S
C432 C430 1.391 1_545 S
C432 C433 1.400 . S
C433 C427 1.491 . S
C433 C432 1.400 . S
C433 C434 1.398 . S
C434 H422 0.950 . S
C434 C433 1.398 . S
C434 C435 1.391 1_545 S
C435 H423 0.950 . S
C435 C431 1.393 . S
C435 C434 1.391 1_565 S
H436 C444 0.950 . S
H437 C449 0.950 . S
H438 C446 0.950 . S
H439 C448 0.950 . S
H440 C450 0.950 . S
H441 C452 0.950 . S
H442 C454 0.950 1_545 S
H443 C455 0.950 . S
C444 H436 0.950 . S
C444 C445 1.386 . S
C444 C446 1.391 . S
C445 C444 1.386 . S
C445 C449 1.393 1_545 S
C446 H438 0.950 . S
C446 C444 1.391 . S
C446 C447 1.400 1_545 S
C447 C446 1.400 1_565 S
C447 C448 1.398 . S
C447 C453 1.491 . S
C448 H439 0.950 . S
C448 C447 1.398 . S
C448 C449 1.391 . S
C449 H437 0.950 . S
C449 C445 1.393 1_565 S
C449 C448 1.391 . S
C450 H440 0.950 . S
C450 C451 1.386 . S
C450 C452 1.391 . S
C451 C450 1.386 . S
C451 C455 1.393 . S
C452 H441 0.950 . S
C452 C450 1.391 . S
C452 C453 1.400 . S
C453 C447 1.491 . S
C453 C452 1.400 . S
C453 C454 1.398 . S
C454 H442 0.950 1_565 S
C454 C453 1.398 . S
C454 C455 1.391 . S
C455 H443 0.950 . S
C455 C451 1.393 . S
C455 C454 1.391 . S
H456 C464 0.950 . S
H457 C469 0.950 . S
H458 C466 0.950 . S
H459 C468 0.950 . S
H460 C470 0.950 . S
H461 C472 0.950 . S
H462 C474 0.950 . S
H463 C475 0.950 . S
C464 H456 0.950 . S
C464 C465 1.386 . S
C464 C466 1.391 . S
C465 C464 1.386 . S
C465 C469 1.393 . S
C466 H458 0.950 . S
C466 C464 1.391 . S
C466 C467 1.400 . S
C467 C466 1.400 . S
C467 C468 1.398 . S
C467 C473 1.491 . S
C468 H459 0.950 . S
C468 C467 1.398 . S
C468 C469 1.391 . S
C469 H457 0.950 . S
C469 C465 1.393 . S
C469 C468 1.391 . S
C470 H460 0.950 . S
C470 C471 1.386 . S
C470 C472 1.391 . S
C471 C470 1.386 . S
C471 C475 1.393 . S
C472 H461 0.950 . S
C472 C470 1.391 . S
C472 C473 1.400 . S
C473 C467 1.491 . S
C473 C472 1.400 . S
C473 C474 1.398 . S
C474 H462 0.950 . S
C474 C473 1.398 . S
C474 C475 1.391 . S
C475 H463 0.950 . S
C475 C471 1.393 . S
C475 C474 1.391 . S
H476 C484 0.950 . S
H477 C489 0.950 . S
H478 C486 0.950 . S
H479 C488 0.950 . S
H480 C490 0.950 . S
H481 C492 0.950 . S
H482 C494 0.950 . S
H483 C495 0.950 . S
C484 H476 0.950 . S
C484 C485 1.386 . S
C484 C486 1.391 . S
C485 C484 1.386 . S
C485 C489 1.393 . S
C486 H478 0.950 . S
C486 C484 1.391 . S
C486 C487 1.400 . S
C487 C486 1.400 . S
C487 C488 1.398 . S
C487 C493 1.491 . S
C488 H479 0.950 . S
C488 C487 1.398 . S
C488 C489 1.391 . S
C489 H477 0.950 . S
C489 C485 1.393 . S
C489 C488 1.391 . S
C490 H480 0.950 . S
C490 C491 1.386 . S
C490 C492 1.391 . S
C491 C490 1.386 . S
C491 C495 1.393 . S
C492 H481 0.950 . S
C492 C490 1.391 . S
C492 C493 1.400 . S
C493 C487 1.491 . S
C493 C492 1.400 . S
C493 C494 1.398 . S
C494 H482 0.950 . S
C494 C493 1.398 . S
C494 C495 1.391 . S
C495 H483 0.950 . S
C495 C491 1.393 . S
C495 C494 1.391 . S
H496 C504 0.950 . S
H497 C509 0.950 . S
H498 C506 0.950 . S
H499 C508 0.950 . S
H500 C510 0.950 . S
H501 C512 0.950 . S
H502 C514 0.950 . S
H503 C515 0.950 . S
C504 H496 0.950 . S
C504 C505 1.386 . S
C504 C506 1.391 . S
C505 C504 1.386 . S
C505 C509 1.393 . S
C506 H498 0.950 . S
C506 C504 1.391 . S
C506 C507 1.400 . S
C507 C506 1.400 . S
C507 C508 1.398 . S
C507 C513 1.491 . S
C508 H499 0.950 . S
C508 C507 1.398 . S
C508 C509 1.391 . S
C509 H497 0.950 . S
C509 C505 1.393 . S
C509 C508 1.391 . S
C510 H500 0.950 . S
C510 C511 1.386 . S
C510 C512 1.391 . S
C511 C510 1.386 . S
C511 C515 1.393 . S
C512 H501 0.950 . S
C512 C510 1.391 . S
C512 C513 1.400 . S
C513 C507 1.491 . S
C513 C512 1.400 . S
C513 C514 1.398 . S
C514 H502 0.950 . S
C514 C513 1.398 . S
C514 C515 1.391 . S
C515 H503 0.950 . S
C515 C511 1.393 . S
C515 C514 1.391 . S
H516 C524 0.950 . S
H517 C529 0.950 . S
H518 C526 0.950 . S
H519 C528 0.950 . S
H520 C530 0.950 . S
H521 C532 0.950 . S
H522 C534 0.950 . S
H523 C535 0.950 . S
C524 H516 0.950 . S
C524 C525 1.386 . S
C524 C526 1.391 . S
C525 C524 1.386 . S
C525 C529 1.393 . S
C526 H518 0.950 . S
C526 C524 1.391 . S
C526 C527 1.400 . S
C527 C526 1.400 . S
C527 C528 1.398 . S
C527 C533 1.491 . S
C528 H519 0.950 . S
C528 C527 1.398 . S
C528 C529 1.391 . S
C529 H517 0.950 . S
C529 C525 1.393 . S
C529 C528 1.391 . S
C530 H520 0.950 . S
C530 C531 1.386 . S
C530 C532 1.391 . S
C531 C530 1.386 . S
C531 C535 1.393 . S
C532 H521 0.950 . S
C532 C530 1.391 . S
C532 C533 1.400 . S
C533 C527 1.491 . S
C533 C532 1.400 . S
C533 C534 1.398 . S
C534 H522 0.950 . S
C534 C533 1.398 . S
C534 C535 1.391 . S
C535 H523 0.950 . S
C535 C531 1.393 . S
C535 C534 1.391 . S
H536 C544 0.950 . S
H537 C549 0.950 . S
H538 C546 0.950 . S
H539 C548 0.950 . S
H540 C550 0.950 . S
H541 C552 0.950 . S
H542 C554 0.950 . S
H543 C555 0.950 . S
C544 H536 0.950 . S
C544 C545 1.386 . S
C544 C546 1.391 . S
C545 C544 1.386 . S
C545 C549 1.393 . S
C546 H538 0.950 . S
C546 C544 1.391 . S
C546 C547 1.400 . S
C547 C546 1.400 . S
C547 C548 1.398 . S
C547 C553 1.491 . S
C548 H539 0.950 . S
C548 C547 1.398 . S
C548 C549 1.391 . S
C549 H537 0.950 . S
C549 C545 1.393 . S
C549 C548 1.391 . S
C550 H540 0.950 . S
C550 C551 1.386 . S
C550 C552 1.391 . S
C551 C550 1.386 . S
C551 C555 1.393 . S
C552 H541 0.950 . S
C552 C550 1.391 . S
C552 C553 1.400 . S
C553 C547 1.491 . S
C553 C552 1.400 . S
C553 C554 1.398 . S
C554 H542 0.950 . S
C554 C553 1.398 . S
C554 C555 1.391 . S
C555 H543 0.950 . S
C555 C551 1.393 . S
C555 C554 1.391 . S
H556 C564 0.950 . S
H557 C569 0.950 . S
H558 C566 0.950 . S
H559 C568 0.950 . S
H560 C570 0.950 . S
H561 C572 0.950 . S
H562 C574 0.950 . S
H563 C575 0.950 . S
C564 H556 0.950 . S
C564 C565 1.386 . S
C564 C566 1.391 . S
C565 C564 1.386 . S
C565 C569 1.393 . S
C566 H558 0.950 . S
C566 C564 1.391 . S
C566 C567 1.400 . S
C567 C566 1.400 . S
C567 C568 1.398 . S
C567 C573 1.491 . S
C568 H559 0.950 . S
C568 C567 1.398 . S
C568 C569 1.391 . S
C569 H557 0.950 . S
C569 C565 1.393 . S
C569 C568 1.391 . S
C570 H560 0.950 . S
C570 C571 1.386 . S
C570 C572 1.391 . S
C571 C570 1.386 . S
C571 C575 1.393 . S
C572 H561 0.950 . S
C572 C570 1.391 . S
C572 C573 1.400 . S
C573 C567 1.491 . S
C573 C572 1.400 . S
C573 C574 1.398 . S
C574 H562 0.950 . S
C574 C573 1.398 . S
C574 C575 1.391 . S
C575 H563 0.950 . S
C575 C571 1.393 . S
C575 C574 1.391 . S
H576 C584 0.950 . S
H577 C589 0.950 . S
H578 C586 0.950 . S
H579 C588 0.950 . S
H580 C590 0.950 . S
H581 C592 0.950 . S
H582 C594 0.950 . S
H583 C595 0.950 . S
C584 H576 0.950 . S
C584 C585 1.396 . S
C584 C586 1.391 . S
C585 C584 1.396 . S
C585 C589 1.385 1_454 S
C586 H578 0.950 . S
C586 C584 1.391 . S
C586 C587 1.406 . S
C587 C586 1.406 . S
C587 C588 1.394 1_454 S
C587 C593 1.490 1_454 S
C588 H579 0.950 . S
C588 C587 1.394 1_656 S
C588 C589 1.391 . S
C589 H577 0.950 . S
C589 C585 1.385 1_656 S
C589 C588 1.391 . S
C590 H580 0.950 . S
C590 C591 1.392 . S
C590 C592 1.391 . S
C591 C590 1.392 . S
C591 C595 1.388 1_656 S
C592 H581 0.950 . S
C592 C590 1.391 . S
C592 C593 1.402 . S
C593 C587 1.490 1_656 S
C593 C592 1.402 . S
C593 C594 1.397 1_656 S
C594 H582 0.950 . S
C594 C593 1.397 1_454 S
C594 C595 1.391 . S
C595 H583 0.950 . S
C595 C591 1.388 1_454 S
C595 C594 1.391 . S
H596 C604 0.950 . S
H597 C609 0.950 . S
H598 C606 0.950 . S
H599 C608 0.950 . S
H600 C610 0.950 . S
H601 C612 0.950 . S
H602 C614 0.950 . S
H603 C615 0.950 . S
C604 H596 0.950 . S
C604 C605 1.386 . S
C604 C606 1.391 . S
C605 C604 1.386 . S
C605 C609 1.393 . S
C606 H598 0.950 . S
C606 C604 1.391 . S
C606 C607 1.400 . S
C607 C606 1.400 . S
C607 C608 1.398 . S
C607 C613 1.491 . S
C608 H599 0.950 . S
C608 C607 1.398 . S
C608 C609 1.391 . S
C609 H597 0.950 . S
C609 C605 1.393 . S
C609 C608 1.391 . S
C610 H600 0.950 . S
C610 C611 1.386 . S
C610 C612 1.391 . S
C611 C610 1.386 . S
C611 C615 1.393 . S
C612 H601 0.950 . S
C612 C610 1.391 . S
C612 C613 1.400 . S
C613 C607 1.491 . S
C613 C612 1.400 . S
C613 C614 1.398 . S
C614 H602 0.950 . S
C614 C613 1.398 . S
C614 C615 1.391 . S
C615 H603 0.950 . S
C615 C611 1.393 . S
C615 C614 1.391 . S
H616 C624 0.950 . S
H617 C629 0.950 . S
H618 C626 0.950 . S
H619 C628 0.950 . S
H620 C630 0.950 . S
H621 C632 0.950 . S
H622 C634 0.950 . S
H623 C635 0.950 . S
C624 H616 0.950 . S
C624 C625 1.386 . S
C624 C626 1.391 . S
C625 C624 1.386 . S
C625 C629 1.393 . S
C626 H618 0.950 . S
C626 C624 1.391 . S
C626 C627 1.400 . S
C627 C626 1.400 . S
C627 C628 1.398 . S
C627 C633 1.491 . S
C628 H619 0.950 . S
C628 C627 1.398 . S
C628 C629 1.391 . S
C629 H617 0.950 . S
C629 C625 1.393 . S
C629 C628 1.391 . S
C630 H620 0.950 . S
C630 C631 1.386 . S
C630 C632 1.391 . S
C631 C630 1.386 . S
C631 C635 1.393 . S
C632 H621 0.950 . S
C632 C630 1.391 . S
C632 C633 1.400 . S
C633 C627 1.491 . S
C633 C632 1.400 . S
C633 C634 1.398 . S
C634 H622 0.950 . S
C634 C633 1.398 . S
C634 C635 1.391 . S
C635 H623 0.950 . S
C635 C631 1.393 . S
C635 C634 1.391 . S
H636 C644 0.950 . S
H637 C649 0.950 . S
H638 C646 0.950 . S
H639 C648 0.950 . S
H640 C650 0.950 . S
H641 C652 0.950 . S
H642 C654 0.950 . S
H643 C655 0.950 . S
C644 H636 0.950 . S
C644 C645 1.386 1_455 S
C644 C646 1.391 . S
C645 C644 1.386 1_655 S
C645 C649 1.393 . S
C646 H638 0.950 . S
C646 C644 1.391 . S
C646 C647 1.400 1_455 S
C647 C646 1.400 1_655 S
C647 C648 1.398 . S
C647 C653 1.491 1_665 S
C648 H639 0.950 . S
C648 C647 1.398 . S
C648 C649 1.391 . S
C649 H637 0.950 . S
C649 C645 1.393 . S
C649 C648 1.391 . S
C650 H640 0.950 . S
C650 C651 1.386 1_655 S
C650 C652 1.391 . S
C651 C650 1.386 1_455 S
C651 C655 1.393 . S
C652 H641 0.950 . S
C652 C650 1.391 . S
C652 C653 1.400 1_655 S
C653 C647 1.491 1_445 S
C653 C652 1.400 1_455 S
C653 C654 1.398 . S
C654 H642 0.950 . S
C654 C653 1.398 . S
C654 C655 1.391 . S
C655 H643 0.950 . S
C655 C651 1.393 . S
C655 C654 1.391 . S
H656 C664 0.950 . S
H657 C669 0.950 . S
H658 C666 0.950 . S
H659 C668 0.950 . S
H660 C670 0.950 . S
H661 C672 0.950 . S
H662 C674 0.950 . S
H663 C675 0.950 . S
C664 H656 0.950 . S
C664 C665 1.386 . S
C664 C666 1.391 . S
C665 C664 1.386 . S
C665 C669 1.393 . S
C666 H658 0.950 . S
C666 C664 1.391 . S
C666 C667 1.400 . S
C667 C666 1.400 . S
C667 C668 1.398 . S
C667 C673 1.491 . S
C668 H659 0.950 . S
C668 C667 1.398 . S
C668 C669 1.391 . S
C669 H657 0.950 . S
C669 C665 1.393 . S
C669 C668 1.391 . S
C670 H660 0.950 . S
C670 C671 1.386 . S
C670 C672 1.391 . S
C671 C670 1.386 . S
C671 C675 1.393 . S
C672 H661 0.950 . S
C672 C670 1.391 . S
C672 C673 1.400 . S
C673 C667 1.491 . S
C673 C672 1.400 . S
C673 C674 1.398 . S
C674 H662 0.950 . S
C674 C673 1.398 . S
C674 C675 1.391 . S
C675 H663 0.950 . S
C675 C671 1.393 . S
C675 C674 1.391 . S
H676 C684 0.950 . S
H677 C689 0.950 . S
H678 C686 0.950 . S
H679 C688 0.950 . S
H680 C690 0.950 . S
H681 C692 0.950 . S
H682 C694 0.950 . S
H683 C695 0.950 . S
C684 H676 0.950 . S
C684 C685 1.386 . S
C684 C686 1.391 . S
C685 C684 1.386 . S
C685 C689 1.393 . S
C686 H678 0.950 . S
C686 C684 1.391 . S
C686 C687 1.400 . S
C687 C686 1.400 . S
C687 C688 1.398 . S
C687 C693 1.491 . S
C688 H679 0.950 . S
C688 C687 1.398 . S
C688 C689 1.391 . S
C689 H677 0.950 . S
C689 C685 1.393 . S
C689 C688 1.391 . S
C690 H680 0.950 . S
C690 C691 1.386 . S
C690 C692 1.391 . S
C691 C690 1.386 . S
C691 C695 1.393 . S
C692 H681 0.950 . S
C692 C690 1.391 . S
C692 C693 1.400 . S
C693 C687 1.491 . S
C693 C692 1.400 . S
C693 C694 1.398 . S
C694 H682 0.950 . S
C694 C693 1.398 . S
C694 C695 1.391 . S
C695 H683 0.950 . S
C695 C691 1.393 . S
C695 C694 1.391 . S
H696 C704 0.950 . S
H697 C709 0.950 . S
H698 C706 0.950 . S
H699 C708 0.950 . S
H700 C710 0.950 . S
H701 C712 0.950 . S
H702 C714 0.950 . S
H703 C715 0.950 . S
C704 H696 0.950 . S
C704 C705 1.386 . S
C704 C706 1.391 . S
C705 C704 1.386 . S
C705 C709 1.393 . S
C706 H698 0.950 . S
C706 C704 1.391 . S
C706 C707 1.400 . S
C707 C706 1.400 . S
C707 C708 1.398 . S
C707 C713 1.491 . S
C708 H699 0.950 . S
C708 C707 1.398 . S
C708 C709 1.391 . S
C709 H697 0.950 . S
C709 C705 1.393 . S
C709 C708 1.391 . S
C710 H700 0.950 . S
C710 C711 1.386 . S
C710 C712 1.391 . S
C711 C710 1.386 . S
C711 C715 1.393 . S
C712 H701 0.950 . S
C712 C710 1.391 . S
C712 C713 1.400 . S
C713 C707 1.491 . S
C713 C712 1.400 . S
C713 C714 1.398 . S
C714 H702 0.950 . S
C714 C713 1.398 . S
C714 C715 1.391 . S
C715 H703 0.950 . S
C715 C711 1.393 . S
C715 C714 1.391 . S
H716 C724 0.950 . S
H717 C729 0.950 . S
H718 C726 0.950 . S
H719 C728 0.950 . S
H720 C730 0.950 . S
H721 C732 0.950 . S
H722 C734 0.950 . S
H723 C735 0.950 . S
C724 H716 0.950 . S
C724 C725 1.396 . S
C724 C726 1.391 . S
C725 C724 1.396 . S
C725 C729 1.384 1_556 S
C726 H718 0.950 . S
C726 C724 1.391 . S
C726 C727 1.403 . S
C727 C726 1.403 . S
C727 C728 1.396 1_556 S
C727 C733 1.490 1_566 S
C728 H719 0.950 . S
C728 C727 1.396 1_554 S
C728 C729 1.391 . S
C729 H717 0.950 . S
C729 C725 1.384 1_554 S
C729 C728 1.391 . S
C730 H720 0.950 . S
C730 C731 1.403 . S
C730 C732 1.391 . S
C731 C730 1.403 . S
C731 C735 1.378 1_554 S
C732 H721 0.950 . S
C732 C730 1.391 . S
C732 C733 1.410 . S
C733 C727 1.490 1_544 S
C733 C732 1.410 . S
C733 C734 1.390 1_554 S
C734 H722 0.950 . S
C734 C733 1.390 1_556 S
C734 C735 1.391 . S
C735 H723 0.950 . S
C735 C731 1.378 1_556 S
C735 C734 1.391 . S
H736 C744 0.950 . S
H737 C749 0.950 . S
H738 C746 0.950 . S
H739 C748 0.950 . S
H740 C750 0.950 . S
H741 C752 0.950 . S
H742 C754 0.950 . S
H743 C755 0.950 . S
C744 H736 0.950 . S
C744 C745 1.404 . S
C744 C746 1.391 . S
C745 C744 1.404 . S
C745 C749 1.376 1_554 S
C746 H738 0.950 . S
C746 C744 1.391 . S
C746 C747 1.410 . S
C747 C746 1.410 . S
C747 C748 1.389 1_554 S
C747 C753 1.490 1_554 S
C748 H739 0.950 . S
C748 C747 1.389 1_556 S
C748 C749 1.391 . S
C749 H737 0.950 . S
C749 C745 1.376 1_556 S
C749 C748 1.391 . S
C750 H740 0.950 . S
C750 C751 1.396 . S
C750 C752 1.391 . S
C751 C750 1.396 . S
C751 C755 1.383 1_556 S
C752 H741 0.950 . S
C752 C750 1.391 . S
C752 C753 1.403 . S
C753 C747 1.490 1_556 S
C753 C752 1.403 . S
C753 C754 1.396 1_556 S
C754 H742 0.950 . S
C754 C753 1.396 1_554 S
C754 C755 1.391 . S
C755 H743 0.950 . S
C755 C751 1.383 1_554 S
C755 C754 1.391 . S
H756 C764 0.950 . S
H757 C769 0.950 . S
H758 C766 0.950 . S
H759 C768 0.950 . S
H760 C770 0.950 . S
H761 C772 0.950 . S
H762 C774 0.950 . S
H763 C775 0.950 . S
C764 H756 0.950 . S
C764 C765 1.384 . S
C764 C766 1.391 . S
C765 C764 1.384 . S
C765 C769 1.394 1_556 S
C766 H758 0.950 . S
C766 C764 1.391 . S
C766 C767 1.404 1_556 S
C767 C766 1.404 1_554 S
C767 C768 1.395 . S
C767 C773 1.491 . S
C768 H759 0.950 . S
C768 C767 1.395 . S
C768 C769 1.391 . S
C769 H757 0.950 . S
C769 C765 1.394 1_554 S
C769 C768 1.391 . S
C770 H760 0.950 . S
C770 C771 1.399 . S
C770 C772 1.391 . S
C771 C770 1.399 . S
C771 C775 1.380 1_554 S
C772 H761 0.950 . S
C772 C770 1.391 . S
C772 C773 1.409 . S
C773 C767 1.491 . S
C773 C772 1.409 . S
C773 C774 1.390 1_554 S
C774 H762 0.950 . S
C774 C773 1.390 1_556 S
C774 C775 1.391 . S
C775 H763 0.950 . S
C775 C771 1.380 1_556 S
C775 C774 1.391 . S
H776 C784 0.950 . S
H777 C789 0.950 . S
H778 C786 0.950 . S
H779 C788 0.950 . S
H780 C790 0.950 . S
H781 C792 0.950 . S
H782 C794 0.950 . S
H783 C795 0.950 . S
C784 H776 0.950 . S
C784 C785 1.386 . S
C784 C786 1.391 . S
C785 C784 1.386 . S
C785 C789 1.393 . S
C786 H778 0.950 . S
C786 C784 1.391 . S
C786 C787 1.400 . S
C787 C786 1.400 . S
C787 C788 1.398 . S
C787 C793 1.491 1_455 S
C788 H779 0.950 . S
C788 C787 1.398 . S
C788 C789 1.391 . S
C789 H777 0.950 . S
C789 C785 1.393 . S
C789 C788 1.391 . S
C790 H780 0.950 . S
C790 C791 1.386 . S
C790 C792 1.391 . S
C791 C790 1.386 . S
C791 C795 1.393 . S
C792 H781 0.950 . S
C792 C790 1.391 . S
C792 C793 1.400 . S
C793 C787 1.491 1_655 S
C793 C792 1.400 . S
C793 C794 1.398 . S
C794 H782 0.950 . S
C794 C793 1.398 . S
C794 C795 1.391 . S
C795 H783 0.950 . S
C795 C791 1.393 . S
C795 C794 1.391 . S
H796 C804 0.950 . S
H797 C809 0.950 . S
H798 C806 0.950 . S
H799 C808 0.950 . S
H800 C810 0.950 . S
H801 C812 0.950 . S
H802 C814 0.950 . S
H803 C815 0.950 . S
C804 H796 0.950 . S
C804 C805 1.386 . S
C804 C806 1.391 . S
C805 C804 1.386 . S
C805 C809 1.393 . S
C806 H798 0.950 . S
C806 C804 1.391 . S
C806 C807 1.400 . S
C807 C806 1.400 . S
C807 C808 1.398 . S
C807 C813 1.491 . S
C808 H799 0.950 . S
C808 C807 1.398 . S
C808 C809 1.391 . S
C809 H797 0.950 . S
C809 C805 1.393 . S
C809 C808 1.391 . S
C810 H800 0.950 . S
C810 C811 1.386 . S
C810 C812 1.391 . S
C811 C810 1.386 . S
C811 C815 1.393 . S
C812 H801 0.950 . S
C812 C810 1.391 . S
C812 C813 1.400 . S
C813 C807 1.491 . S
C813 C812 1.400 . S
C813 C814 1.398 . S
C814 H802 0.950 . S
C814 C813 1.398 . S
C814 C815 1.391 . S
C815 H803 0.950 . S
C815 C811 1.393 . S
C815 C814 1.391 . S
H816 C824 0.950 . S
H817 C829 0.950 . S
H818 C826 0.950 . S
H819 C828 0.950 . S
H820 C830 0.950 . S
H821 C832 0.950 . S
H822 C834 0.950 . S
H823 C835 0.950 . S
C824 H816 0.950 . S
C824 C825 1.386 . S
C824 C826 1.391 . S
C825 C824 1.386 . S
C825 C829 1.393 . S
C826 H818 0.950 . S
C826 C824 1.391 . S
C826 C827 1.400 . S
C827 C826 1.400 . S
C827 C828 1.398 . S
C827 C833 1.491 . S
C828 H819 0.950 . S
C828 C827 1.398 . S
C828 C829 1.391 . S
C829 H817 0.950 . S
C829 C825 1.393 . S
C829 C828 1.391 . S
C830 H820 0.950 . S
C830 C831 1.386 . S
C830 C832 1.391 . S
C831 C830 1.386 . S
C831 C835 1.393 . S
C832 H821 0.950 . S
C832 C830 1.391 . S
C832 C833 1.400 . S
C833 C827 1.491 . S
C833 C832 1.400 . S
C833 C834 1.398 . S
C834 H822 0.950 . S
C834 C833 1.398 . S
C834 C835 1.391 . S
C835 H823 0.950 . S
C835 C831 1.393 . S
C835 C834 1.391 . S
H836 C844 0.950 . S
H837 C849 0.950 . S
H838 C846 0.950 . S
H839 C848 0.950 . S
H840 C850 0.950 . S
H841 C852 0.950 . S
H842 C854 0.950 . S
H843 C855 0.950 . S
C844 H836 0.950 . S
C844 C845 1.386 . S
C844 C846 1.391 . S
C845 C844 1.386 . S
C845 C849 1.393 . S
C846 H838 0.950 . S
C846 C844 1.391 . S
C846 C847 1.400 . S
C847 C846 1.400 . S
C847 C848 1.398 1_545 S
C847 C853 1.491 1_645 S
C848 H839 0.950 . S
C848 C847 1.398 1_565 S
C848 C849 1.391 1_565 S
C849 H837 0.950 . S
C849 C845 1.393 . S
C849 C848 1.391 1_545 S
C850 H840 0.950 . S
C850 C851 1.386 . S
C850 C852 1.391 . S
C851 C850 1.386 . S
C851 C855 1.393 . S
C852 H841 0.950 . S
C852 C850 1.391 . S
C852 C853 1.400 . S
C853 C847 1.491 1_465 S
C853 C852 1.400 . S
C853 C854 1.398 1_565 S
C854 H842 0.950 . S
C854 C853 1.398 1_545 S
C854 C855 1.391 1_545 S
C855 H843 0.950 . S
C855 C851 1.393 . S
C855 C854 1.391 1_565 S
H856 C864 0.950 . S
H857 C869 0.950 . S
H858 C866 0.950 . S
H859 C868 0.950 . S
H860 C870 0.950 . S
H861 C872 0.950 . S
H862 C874 0.950 . S
H863 C875 0.950 . S
C864 H856 0.950 . S
C864 C865 1.386 . S
C864 C866 1.391 . S
C865 C864 1.386 . S
C865 C869 1.393 . S
C866 H858 0.950 . S
C866 C864 1.391 . S
C866 C867 1.400 . S
C867 C866 1.400 . S
C867 C868 1.398 . S
C867 C873 1.491 . S
C868 H859 0.950 . S
C868 C867 1.398 . S
C868 C869 1.391 . S
C869 H857 0.950 . S
C869 C865 1.393 . S
C869 C868 1.391 . S
C870 H860 0.950 . S
C870 C871 1.386 . S
C870 C872 1.391 . S
C871 C870 1.386 . S
C871 C875 1.393 . S
C872 H861 0.950 . S
C872 C870 1.391 . S
C872 C873 1.400 . S
C873 C867 1.491 . S
C873 C872 1.400 . S
C873 C874 1.398 . S
C874 H862 0.950 . S
C874 C873 1.398 . S
C874 C875 1.391 . S
C875 H863 0.950 . S
C875 C871 1.393 . S
C875 C874 1.391 . S
H876 C884 0.950 . S
H877 C889 0.950 . S
H878 C886 0.950 1_545 S
H879 C888 0.950 . S
H880 C890 0.950 . S
H881 C892 0.950 1_565 S
H882 C894 0.950 . S
H883 C895 0.950 . S
C884 H876 0.950 . S
C884 C885 1.386 . S
C884 C886 1.391 . S
C885 C884 1.386 . S
C885 C889 1.393 . S
C886 H878 0.950 1_565 S
C886 C884 1.391 . S
C886 C887 1.400 . S
C887 C886 1.400 . S
C887 C888 1.398 . S
C887 C893 1.491 1_565 S
C888 H879 0.950 . S
C888 C887 1.398 . S
C888 C889 1.391 . S
C889 H877 0.950 . S
C889 C885 1.393 . S
C889 C888 1.391 . S
C890 H880 0.950 . S
C890 C891 1.386 . S
C890 C892 1.391 . S
C891 C890 1.386 . S
C891 C895 1.393 . S
C892 H881 0.950 1_545 S
C892 C890 1.391 . S
C892 C893 1.400 . S
C893 C887 1.491 1_545 S
C893 C892 1.400 . S
C893 C894 1.398 . S
C894 H882 0.950 . S
C894 C893 1.398 . S
C894 C895 1.391 . S
C895 H883 0.950 . S
C895 C891 1.393 . S
C895 C894 1.391 . S
C265 C23 1.387 . S
C271 C40 1.533 . S
C285 C24 1.443 . S
C291 C86 1.567 . S
C305 C113 1.541 . S
C311 C62 1.356 . S
C325 C91 1.440 . S
C331 C127 1.571 . S
C345 C119 1.373 . S
C351 C136 1.526 . S
C365 C182 1.565 . S
C371 C120 1.445 . S
C385 C158 1.396 . S
C391 C17 1.547 . S
C405 C187 1.431 . S
C411 C31 1.571 . S
C425 C168 1.537 . S
C431 C215 1.389 . S
C445 C216 1.440 . S
C451 C150 1.570 . S
C465 C241 1.531 . S
C471 C190 1.348 . S
C485 C255 1.560 . S
C491 C155 1.441 . S
C505 C247 1.371 . S
C511 C72 1.548 . S
C525 C54 1.570 . S
C531 C248 1.428 . S
C545 C209 1.543 . S
C551 C94 1.395 . S
C565 C223 1.568 . S
C571 C59 1.422 . S
C585 C22 0.703 . S
C591 C30 0.701 . S
C605 C49 0.694 . S
C611 C56 0.694 1_565 S
C625 C81 0.688 1_545 S
C631 C88 0.688 . S
C645 C126 0.730 . S
C651 C118 0.730 . S
C665 C145 0.723 1_545 S
C671 C152 0.723 . S
C685 C177 0.732 . S
C691 C184 0.732 1_565 S
C705 C214 0.731 . S
C711 C222 0.731 . S
C725 C254 0.736 . S
C731 C246 0.738 . S
C745 C232 1.469 . S
C751 C27 1.465 . S
C765 C8 1.456 1_556 S
C771 C251 1.458 1_554 S
C785 C63 1.460 . S
C791 C87 1.460 . S
C805 C200 1.473 . S
C811 C123 1.470 . S
C825 C104 1.466 . S
C831 C219 1.469 . S
C845 C183 1.455 . S
C851 C159 1.455 . S
C865 C191 1.468 . S
C871 C151 1.468 . S
C885 C95 1.473 . S
C891 C55 1.473 . S
