# Generated by pormake.
# Topology ukp, (4)-cn, num edge types: 1
# Building blocks:
#     Node 0, Type 0, BuildingBlock: QUQFOY_clean_sbu_1, # of connection points: 4
#     Node 1, Type 0, BuildingBlock: QUQFOY_clean_sbu_1, # of connection points: 4
#     Node 2, Type 0, BuildingBlock: QUQFOY_clean_sbu_1, # of connection points: 4
#     Node 3, Type 0, BuildingBlock: QUQFOY_clean_sbu_1, # of connection points: 4
#     Node 4, Type 0, BuildingBlock: QUQFOY_clean_sbu_1, # of connection points: 4
#     Node 5, Type 0, BuildingBlock: QUQFOY_clean_sbu_1, # of connection points: 4
#     Node 6, Type 0, BuildingBlock: QUQFOY_clean_sbu_1, # of connection points: 4
#     Node 7, Type 0, BuildingBlock: QUQFOY_clean_sbu_1, # of connection points: 4
#     Node 8, Type 0, BuildingBlock: QUQFOY_clean_sbu_1, # of connection points: 4
#     Node 9, Type 0, BuildingBlock: QUQFOY_clean_sbu_1, # of connection points: 4
#     Node 10, Type 0, BuildingBlock: QUQFOY_clean_sbu_1, # of connection points: 4
#     Node 11, Type 0, BuildingBlock: QUQFOY_clean_sbu_1, # of connection points: 4
#     Node 12, Type 0, BuildingBlock: QUQFOY_clean_sbu_1, # of connection points: 4
#     Node 13, Type 0, BuildingBlock: QUQFOY_clean_sbu_1, # of connection points: 4
#     Node 14, Type 0, BuildingBlock: QUQFOY_clean_sbu_1, # of connection points: 4
#     Node 15, Type 0, BuildingBlock: QUQFOY_clean_sbu_1, # of connection points: 4
#     Node 16, Type 0, BuildingBlock: QUQFOY_clean_sbu_1, # of connection points: 4
#     Node 17, Type 0, BuildingBlock: QUQFOY_clean_sbu_1, # of connection points: 4
#     Node 18, Type 0, BuildingBlock: QUQFOY_clean_sbu_1, # of connection points: 4
#     Node 19, Type 0, BuildingBlock: QUQFOY_clean_sbu_1, # of connection points: 4
#     Node 20, Type 0, BuildingBlock: QUQFOY_clean_sbu_1, # of connection points: 4
#     Node 21, Type 0, BuildingBlock: QUQFOY_clean_sbu_1, # of connection points: 4
#     Node 22, Type 0, BuildingBlock: QUQFOY_clean_sbu_1, # of connection points: 4
#     Node 23, Type 0, BuildingBlock: QUQFOY_clean_sbu_1, # of connection points: 4
#     Node 24, Type 0, BuildingBlock: QUQFOY_clean_sbu_1, # of connection points: 4
#     Node 25, Type 0, BuildingBlock: QUQFOY_clean_sbu_1, # of connection points: 4
#     Node 26, Type 0, BuildingBlock: QUQFOY_clean_sbu_1, # of connection points: 4
#     Node 27, Type 0, BuildingBlock: QUQFOY_clean_sbu_1, # of connection points: 4
#     Node 28, Type 0, BuildingBlock: QUQFOY_clean_sbu_1, # of connection points: 4
#     Node 29, Type 0, BuildingBlock: QUQFOY_clean_sbu_1, # of connection points: 4
#     Node 30, Type 0, BuildingBlock: QUQFOY_clean_sbu_1, # of connection points: 4
#     Node 31, Type 0, BuildingBlock: QUQFOY_clean_sbu_1, # of connection points: 4
#     Node 32, Type 0, BuildingBlock: QUQFOY_clean_sbu_1, # of connection points: 4
#     Node 33, Type 0, BuildingBlock: QUQFOY_clean_sbu_1, # of connection points: 4
#     Node 34, Type 0, BuildingBlock: QUQFOY_clean_sbu_1, # of connection points: 4
#     Node 35, Type 0, BuildingBlock: QUQFOY_clean_sbu_1, # of connection points: 4
#     Node 36, Type 0, BuildingBlock: QUQFOY_clean_sbu_1, # of connection points: 4
#     Node 37, Type 0, BuildingBlock: QUQFOY_clean_sbu_1, # of connection points: 4
#     Node 38, Type 0, BuildingBlock: QUQFOY_clean_sbu_1, # of connection points: 4
#     Node 39, Type 0, BuildingBlock: QUQFOY_clean_sbu_1, # of connection points: 4
#     Node 40, Type 0, BuildingBlock: QUQFOY_clean_sbu_1, # of connection points: 4
#     Node 41, Type 0, BuildingBlock: QUQFOY_clean_sbu_1, # of connection points: 4
#     Node 42, Type 0, BuildingBlock: QUQFOY_clean_sbu_1, # of connection points: 4
#     Node 43, Type 0, BuildingBlock: QUQFOY_clean_sbu_1, # of connection points: 4
#     Node 44, Type 0, BuildingBlock: QUQFOY_clean_sbu_1, # of connection points: 4
#     Node 45, Type 0, BuildingBlock: QUQFOY_clean_sbu_1, # of connection points: 4
#     Node 46, Type 0, BuildingBlock: QUQFOY_clean_sbu_1, # of connection points: 4
#     Node 47, Type 0, BuildingBlock: QUQFOY_clean_sbu_1, # of connection points: 4
#     Edge 48, Type (0, 0), BuildingBlock: XIVTED_clean_linker_0, # of connection points: 2
#     Edge 49, Type (0, 0), BuildingBlock: XIVTED_clean_linker_0, # of connection points: 2
#     Edge 50, Type (0, 0), BuildingBlock: XIVTED_clean_linker_0, # of connection points: 2
#     Edge 51, Type (0, 0), BuildingBlock: XIVTED_clean_linker_0, # of connection points: 2
#     Edge 52, Type (0, 0), BuildingBlock: XIVTED_clean_linker_0, # of connection points: 2
#     Edge 53, Type (0, 0), BuildingBlock: XIVTED_clean_linker_0, # of connection points: 2
#     Edge 54, Type (0, 0), BuildingBlock: XIVTED_clean_linker_0, # of connection points: 2
#     Edge 55, Type (0, 0), BuildingBlock: XIVTED_clean_linker_0, # of connection points: 2
#     Edge 56, Type (0, 0), BuildingBlock: XIVTED_clean_linker_0, # of connection points: 2
#     Edge 57, Type (0, 0), BuildingBlock: XIVTED_clean_linker_0, # of connection points: 2
#     Edge 58, Type (0, 0), BuildingBlock: XIVTED_clean_linker_0, # of connection points: 2
#     Edge 59, Type (0, 0), BuildingBlock: XIVTED_clean_linker_0, # of connection points: 2
#     Edge 60, Type (0, 0), BuildingBlock: XIVTED_clean_linker_0, # of connection points: 2
#     Edge 61, Type (0, 0), BuildingBlock: XIVTED_clean_linker_0, # of connection points: 2
#     Edge 62, Type (0, 0), BuildingBlock: XIVTED_clean_linker_0, # of connection points: 2
#     Edge 63, Type (0, 0), BuildingBlock: XIVTED_clean_linker_0, # of connection points: 2
#     Edge 64, Type (0, 0), BuildingBlock: XIVTED_clean_linker_0, # of connection points: 2
#     Edge 65, Type (0, 0), BuildingBlock: XIVTED_clean_linker_0, # of connection points: 2
#     Edge 66, Type (0, 0), BuildingBlock: XIVTED_clean_linker_0, # of connection points: 2
#     Edge 67, Type (0, 0), BuildingBlock: XIVTED_clean_linker_0, # of connection points: 2
#     Edge 68, Type (0, 0), BuildingBlock: XIVTED_clean_linker_0, # of connection points: 2
#     Edge 69, Type (0, 0), BuildingBlock: XIVTED_clean_linker_0, # of connection points: 2
#     Edge 70, Type (0, 0), BuildingBlock: XIVTED_clean_linker_0, # of connection points: 2
#     Edge 71, Type (0, 0), BuildingBlock: XIVTED_clean_linker_0, # of connection points: 2
#     Edge 72, Type (0, 0), BuildingBlock: XIVTED_clean_linker_0, # of connection points: 2
#     Edge 73, Type (0, 0), BuildingBlock: XIVTED_clean_linker_0, # of connection points: 2
#     Edge 74, Type (0, 0), BuildingBlock: XIVTED_clean_linker_0, # of connection points: 2
#     Edge 75, Type (0, 0), BuildingBlock: XIVTED_clean_linker_0, # of connection points: 2
#     Edge 76, Type (0, 0), BuildingBlock: XIVTED_clean_linker_0, # of connection points: 2
#     Edge 77, Type (0, 0), BuildingBlock: XIVTED_clean_linker_0, # of connection points: 2
#     Edge 78, Type (0, 0), BuildingBlock: XIVTED_clean_linker_0, # of connection points: 2
#     Edge 79, Type (0, 0), BuildingBlock: XIVTED_clean_linker_0, # of connection points: 2
#     Edge 80, Type (0, 0), BuildingBlock: XIVTED_clean_linker_0, # of connection points: 2
#     Edge 81, Type (0, 0), BuildingBlock: XIVTED_clean_linker_0, # of connection points: 2
#     Edge 82, Type (0, 0), BuildingBlock: XIVTED_clean_linker_0, # of connection points: 2
#     Edge 83, Type (0, 0), BuildingBlock: XIVTED_clean_linker_0, # of connection points: 2
#     Edge 84, Type (0, 0), BuildingBlock: XIVTED_clean_linker_0, # of connection points: 2
#     Edge 85, Type (0, 0), BuildingBlock: XIVTED_clean_linker_0, # of connection points: 2
#     Edge 86, Type (0, 0), BuildingBlock: XIVTED_clean_linker_0, # of connection points: 2
#     Edge 87, Type (0, 0), BuildingBlock: XIVTED_clean_linker_0, # of connection points: 2
#     Edge 88, Type (0, 0), BuildingBlock: XIVTED_clean_linker_0, # of connection points: 2
#     Edge 89, Type (0, 0), BuildingBlock: XIVTED_clean_linker_0, # of connection points: 2
#     Edge 90, Type (0, 0), BuildingBlock: XIVTED_clean_linker_0, # of connection points: 2
#     Edge 91, Type (0, 0), BuildingBlock: XIVTED_clean_linker_0, # of connection points: 2
#     Edge 92, Type (0, 0), BuildingBlock: XIVTED_clean_linker_0, # of connection points: 2
#     Edge 93, Type (0, 0), BuildingBlock: XIVTED_clean_linker_0, # of connection points: 2
#     Edge 94, Type (0, 0), BuildingBlock: XIVTED_clean_linker_0, # of connection points: 2
#     Edge 95, Type (0, 0), BuildingBlock: XIVTED_clean_linker_0, # of connection points: 2
#     Edge 96, Type (0, 0), BuildingBlock: XIVTED_clean_linker_0, # of connection points: 2
#     Edge 97, Type (0, 0), BuildingBlock: XIVTED_clean_linker_0, # of connection points: 2
#     Edge 98, Type (0, 0), BuildingBlock: XIVTED_clean_linker_0, # of connection points: 2
#     Edge 99, Type (0, 0), BuildingBlock: XIVTED_clean_linker_0, # of connection points: 2
#     Edge 100, Type (0, 0), BuildingBlock: XIVTED_clean_linker_0, # of connection points: 2
#     Edge 101, Type (0, 0), BuildingBlock: XIVTED_clean_linker_0, # of connection points: 2
#     Edge 102, Type (0, 0), BuildingBlock: XIVTED_clean_linker_0, # of connection points: 2
#     Edge 103, Type (0, 0), BuildingBlock: XIVTED_clean_linker_0, # of connection points: 2
#     Edge 104, Type (0, 0), BuildingBlock: XIVTED_clean_linker_0, # of connection points: 2
#     Edge 105, Type (0, 0), BuildingBlock: XIVTED_clean_linker_0, # of connection points: 2
#     Edge 106, Type (0, 0), BuildingBlock: XIVTED_clean_linker_0, # of connection points: 2
#     Edge 107, Type (0, 0), BuildingBlock: XIVTED_clean_linker_0, # of connection points: 2
#     Edge 108, Type (0, 0), BuildingBlock: XIVTED_clean_linker_0, # of connection points: 2
#     Edge 109, Type (0, 0), BuildingBlock: XIVTED_clean_linker_0, # of connection points: 2
#     Edge 110, Type (0, 0), BuildingBlock: XIVTED_clean_linker_0, # of connection points: 2
#     Edge 111, Type (0, 0), BuildingBlock: XIVTED_clean_linker_0, # of connection points: 2
#     Edge 112, Type (0, 0), BuildingBlock: XIVTED_clean_linker_0, # of connection points: 2
#     Edge 113, Type (0, 0), BuildingBlock: XIVTED_clean_linker_0, # of connection points: 2
#     Edge 114, Type (0, 0), BuildingBlock: XIVTED_clean_linker_0, # of connection points: 2
#     Edge 115, Type (0, 0), BuildingBlock: XIVTED_clean_linker_0, # of connection points: 2
#     Edge 116, Type (0, 0), BuildingBlock: XIVTED_clean_linker_0, # of connection points: 2
#     Edge 117, Type (0, 0), BuildingBlock: XIVTED_clean_linker_0, # of connection points: 2
#     Edge 118, Type (0, 0), BuildingBlock: XIVTED_clean_linker_0, # of connection points: 2
#     Edge 119, Type (0, 0), BuildingBlock: XIVTED_clean_linker_0, # of connection points: 2
#     Edge 120, Type (0, 0), BuildingBlock: XIVTED_clean_linker_0, # of connection points: 2
#     Edge 121, Type (0, 0), BuildingBlock: XIVTED_clean_linker_0, # of connection points: 2
#     Edge 122, Type (0, 0), BuildingBlock: XIVTED_clean_linker_0, # of connection points: 2
#     Edge 123, Type (0, 0), BuildingBlock: XIVTED_clean_linker_0, # of connection points: 2
#     Edge 124, Type (0, 0), BuildingBlock: XIVTED_clean_linker_0, # of connection points: 2
#     Edge 125, Type (0, 0), BuildingBlock: XIVTED_clean_linker_0, # of connection points: 2
#     Edge 126, Type (0, 0), BuildingBlock: XIVTED_clean_linker_0, # of connection points: 2
#     Edge 127, Type (0, 0), BuildingBlock: XIVTED_clean_linker_0, # of connection points: 2
#     Edge 128, Type (0, 0), BuildingBlock: XIVTED_clean_linker_0, # of connection points: 2
#     Edge 129, Type (0, 0), BuildingBlock: XIVTED_clean_linker_0, # of connection points: 2
#     Edge 130, Type (0, 0), BuildingBlock: XIVTED_clean_linker_0, # of connection points: 2
#     Edge 131, Type (0, 0), BuildingBlock: XIVTED_clean_linker_0, # of connection points: 2
#     Edge 132, Type (0, 0), BuildingBlock: XIVTED_clean_linker_0, # of connection points: 2
#     Edge 133, Type (0, 0), BuildingBlock: XIVTED_clean_linker_0, # of connection points: 2
#     Edge 134, Type (0, 0), BuildingBlock: XIVTED_clean_linker_0, # of connection points: 2
#     Edge 135, Type (0, 0), BuildingBlock: XIVTED_clean_linker_0, # of connection points: 2
#     Edge 136, Type (0, 0), BuildingBlock: XIVTED_clean_linker_0, # of connection points: 2
#     Edge 137, Type (0, 0), BuildingBlock: XIVTED_clean_linker_0, # of connection points: 2
#     Edge 138, Type (0, 0), BuildingBlock: XIVTED_clean_linker_0, # of connection points: 2
#     Edge 139, Type (0, 0), BuildingBlock: XIVTED_clean_linker_0, # of connection points: 2
#     Edge 140, Type (0, 0), BuildingBlock: XIVTED_clean_linker_0, # of connection points: 2
#     Edge 141, Type (0, 0), BuildingBlock: XIVTED_clean_linker_0, # of connection points: 2
#     Edge 142, Type (0, 0), BuildingBlock: XIVTED_clean_linker_0, # of connection points: 2
#     Edge 143, Type (0, 0), BuildingBlock: XIVTED_clean_linker_0, # of connection points: 2
# Relax obj value: 0.068
# Max RMSD: 0.232
# Mean RMSD: 0.232
data_MOF--net-ukp--node1-QUQFOY_clean_sbu_1--edge1-XIVTED_clean_linker_0
_symmetry_space_group_name_H-M    P1
_symmetry_Int_Tables_number       1
_symmetry_cell_setting            triclinic
loop_
_symmetry_equiv_pos_as_xyz
'x, y, z'
_cell_length_a     63.958334
_cell_length_b     63.954484
_cell_length_c     63.949372
_cell_angle_alpha  89.997461
_cell_angle_beta   90.009181
_cell_angle_gamma 90.010817
loop_
_atom_site_label
_atom_site_type_symbol
_atom_site_fract_x
_atom_site_fract_y
_atom_site_fract_z
_atom_type_partial_charge
O0 O 0.22761 0.24209 0.36954 0.0
Cd1 Cd 0.20008 0.25631 0.37861 0.0
Cd2 Cd 0.22783 0.28565 0.39286 0.0
O3 O 0.24987 0.26314 0.38547 0.0
O4 O 0.17879 0.23371 0.38168 0.0
O5 O 0.18929 0.25347 0.4081 0.0
C6 C 0.17787 0.23821 0.40134 0.0
C7 C 0.23204 0.30949 0.42026 0.0
C8 C 0.24627 0.24705 0.37431 0.0
C9 C 0.19877 0.29639 0.35635 0.0
O10 O 0.21422 0.30073 0.36802 0.0
O11 O 0.18926 0.27905 0.35827 0.0
O12 O 0.24438 0.30941 0.40438 0.0
O13 O 0.2184 0.29465 0.42161 0.0
O14 O 0.00752 0.97462 0.62794 0.0
Cd15 Cd 0.99127 0.94755 0.63414 0.0
Cd16 Cd 0.96381 0.97492 0.65174 0.0
O17 O 0.98765 0.99617 0.64615 0.0
O18 O 0.01231 0.92465 0.63535 0.0
O19 O 0.99342 0.93447 0.66268 0.0
C20 C 0.00799 0.92275 0.65498 0.0
C21 C 0.94152 0.977 0.68062 0.0
C22 C 0.00368 0.99287 0.6348 0.0
C23 C 0.95075 0.9506 0.61272 0.0
O24 O 0.94722 0.96474 0.62619 0.0
O25 O 0.96778 0.94037 0.61306 0.0
O26 O 0.94147 0.9911 0.66626 0.0
O27 O 0.95564 0.96259 0.6796 0.0
O28 O 0.27919 0.75704 0.87391 0.0
Cd29 Cd 0.306 0.74021 0.87988 0.0
Cd30 Cd 0.27833 0.71433 0.8986 0.0
O31 O 0.25794 0.73906 0.89429 0.0
O32 O 0.32949 0.76062 0.88061 0.0
O33 O 0.3193 0.74242 0.90828 0.0
C34 C 0.33135 0.75657 0.90031 0.0
C35 C 0.27667 0.69153 0.92705 0.0
C36 C 0.26125 0.75439 0.88202 0.0
C37 C 0.30056 0.6999 0.85887 0.0
O38 O 0.28629 0.69754 0.87245 0.0
O39 O 0.31214 0.71606 0.85918 0.0
O40 O 0.26183 0.69252 0.9135 0.0
O41 O 0.29162 0.70505 0.92564 0.0
O42 O 0.48864 0.04187 0.10335 0.0
Cd43 Cd 0.5049 0.06919 0.10837 0.0
Cd44 Cd 0.53187 0.04266 0.12893 0.0
O45 O 0.50736 0.02197 0.12448 0.0
O46 O 0.48462 0.09285 0.10923 0.0
O47 O 0.50311 0.08251 0.13668 0.0
C48 C 0.48901 0.09474 0.12886 0.0
C49 C 0.55481 0.03923 0.1573 0.0
C50 C 0.4919 0.02435 0.11216 0.0
C51 C 0.54591 0.06442 0.08851 0.0
O52 O 0.54876 0.0511 0.10294 0.0
O53 O 0.52911 0.075 0.08775 0.0
O54 O 0.55367 0.02525 0.14289 0.0
O55 O 0.54158 0.05447 0.15662 0.0
O56 O 0.2227 0.76118 0.1231 0.0
Cd57 Cd 0.19602 0.74442 0.11632 0.0
Cd58 Cd 0.22388 0.71885 0.09825 0.0
O59 O 0.24438 0.74345 0.10297 0.0
O60 O 0.17259 0.76488 0.11515 0.0
O61 O 0.18338 0.74679 0.08763 0.0
C62 C 0.17116 0.76091 0.09539 0.0
C63 C 0.22438 0.69687 0.06914 0.0
C64 C 0.24082 0.75863 0.11536 0.0
C65 C 0.20112 0.7041 0.1374 0.0
O66 O 0.21581 0.70187 0.12425 0.0
O67 O 0.18938 0.72012 0.13668 0.0
O68 O 0.23958 0.69712 0.08236 0.0
O69 O 0.20977 0.71065 0.07132 0.0
O70 O 0.49663 0.96502 0.37865 0.0
Cd71 Cd 0.51405 0.93892 0.37143 0.0
Cd72 Cd 0.53959 0.96826 0.35491 0.0
O73 O 0.51434 0.98787 0.35983 0.0
O74 O 0.49383 0.91533 0.36913 0.0
O75 O 0.51219 0.92722 0.34227 0.0
C76 C 0.49796 0.91472 0.34937 0.0
C77 C 0.5627 0.97171 0.32685 0.0
C78 C 0.49892 0.98347 0.37163 0.0
C79 C 0.55377 0.94421 0.39366 0.0
O80 O 0.55601 0.95931 0.38099 0.0
O81 O 0.538 0.93217 0.39226 0.0
O82 O 0.5613 0.98585 0.3411 0.0
O83 O 0.54947 0.95644 0.3274 0.0
O84 O 0.27809 0.23743 0.63149 0.0
Cd85 Cd 0.30604 0.25198 0.62532 0.0
Cd86 Cd 0.27953 0.28141 0.60777 0.0
O87 O 0.25786 0.25776 0.61229 0.0
O88 O 0.32733 0.22935 0.62436 0.0
O89 O 0.3188 0.24864 0.59684 0.0
C90 C 0.32937 0.23326 0.60466 0.0
C91 C 0.27552 0.30598 0.5809 0.0
C92 C 0.26027 0.24175 0.62387 0.0
C93 C 0.30503 0.29225 0.64707 0.0
O94 O 0.29075 0.29639 0.63392 0.0
O95 O 0.31481 0.27498 0.64624 0.0
O96 O 0.26247 0.30478 0.59615 0.0
O97 O 0.29004 0.29199 0.57988 0.0
O98 O 0.00413 0.02952 0.87346 0.0
Cd99 Cd 0.9859 0.05524 0.86678 0.0
Cd100 Cd 0.96248 0.0263 0.84777 0.0
O101 O 0.98806 0.00715 0.85269 0.0
O102 O 0.00492 0.07987 0.86628 0.0
O103 O 0.9881 0.06828 0.83828 0.0
C104 C 0.00134 0.08122 0.84645 0.0
C105 C 0.94138 0.02543 0.81808 0.0
C106 C 0.0028 0.01141 0.86539 0.0
C107 C 0.94548 0.04743 0.88687 0.0
O108 O 0.9444 0.03284 0.87346 0.0
O109 O 0.96081 0.06009 0.88669 0.0
O110 O 0.94208 0.00991 0.83089 0.0
O111 O 0.95433 0.04066 0.82099 0.0
O112 O 0.39199 0.23236 0.25875 0.0
Cd113 Cd 0.38035 0.20558 0.24466 0.0
Cd114 Cd 0.38743 0.23081 0.30132 0.0
O115 O 0.38085 0.25532 0.28132 0.0
O116 O 0.38649 0.19708 0.21502 0.0
O117 O 0.40373 0.18504 0.24253 0.0
C118 C 0.40115 0.18533 0.22252 0.0
C119 C 0.4041 0.23189 0.33328 0.0
C120 C 0.38202 0.2492 0.2624 0.0
C121 C 0.36155 0.19718 0.28253 0.0
O122 O 0.38016 0.2031 0.28637 0.0
O123 O 0.35709 0.19302 0.26356 0.0
O124 O 0.38395 0.23353 0.33207 0.0
O125 O 0.41475 0.23062 0.31608 0.0
O126 O 0.03398 0.12206 0.4909 0.0
Cd127 Cd 0.06013 0.12874 0.50847 0.0
Cd128 Cd 0.03126 0.14866 0.53281 0.0
O129 O 0.01195 0.14281 0.50749 0.0
O130 O 0.08448 0.12906 0.48901 0.0
O131 O 0.07334 0.15719 0.50588 0.0
C132 C 0.08603 0.1489 0.49248 0.0
C133 C 0.0271 0.17768 0.55466 0.0
C134 C 0.01587 0.13004 0.49271 0.0
C135 C 0.05331 0.10961 0.54959 0.0
O136 O 0.0392 0.12347 0.55105 0.0
O137 O 0.06516 0.10891 0.53364 0.0
O138 O 0.01295 0.16344 0.55323 0.0
O139 O 0.04283 0.17655 0.54205 0.0
O140 O 0.12488 0.77869 0.74285 0.0
Cd141 Cd 0.11858 0.80491 0.76049 0.0
Cd142 Cd 0.10041 0.77636 0.78549 0.0
O143 O 0.1045 0.75683 0.76007 0.0
O144 O 0.1172 0.82895 0.74077 0.0
O145 O 0.0899 0.81766 0.7589 0.0
C146 C 0.0975 0.83026 0.74501 0.0
C147 C 0.072 0.77404 0.80825 0.0
C148 C 0.11678 0.76066 0.74487 0.0
C149 C 0.13999 0.79845 0.80042 0.0
O150 O 0.12671 0.78382 0.80232 0.0
O151 O 0.13925 0.81068 0.78476 0.0
O152 O 0.08555 0.75923 0.80683 0.0
O153 O 0.07343 0.7894 0.79521 0.0
O154 O 0.47741 0.87435 0.98657 0.0
Cd155 Cd 0.4498 0.87004 0.0026 0.0
Cd156 Cd 0.47646 0.85451 0.03206 0.0
O157 O 0.49809 0.85716 0.00819 0.0
O158 O 0.42744 0.8682 0.98103 0.0
O159 O 0.43578 0.84186 0.00191 0.0
C160 C 0.42472 0.84897 0.98654 0.0
C161 C 0.47831 0.82799 0.05716 0.0
C162 C 0.49538 0.86728 0.99126 0.0
C163 C 0.45289 0.8951 0.04103 0.0
O164 O 0.46691 0.8819 0.04582 0.0
O165 O 0.44252 0.89307 0.02419 0.0
O166 O 0.49244 0.84225 0.05585 0.0
O167 O 0.46387 0.82772 0.04302 0.0
O168 O 0.37514 0.77893 0.25639 0.0
Cd169 Cd 0.38207 0.80572 0.23984 0.0
Cd170 Cd 0.40004 0.77794 0.21399 0.0
O171 O 0.39544 0.75746 0.23859 0.0
O172 O 0.384 0.82892 0.26055 0.0
O173 O 0.41109 0.81764 0.24213 0.0
C174 C 0.40378 0.82983 0.25652 0.0
C175 C 0.4285 0.7764 0.19121 0.0
C176 C 0.383 0.76086 0.25376 0.0
C177 C 0.36087 0.80096 0.19954 0.0
O178 O 0.37395 0.78622 0.19729 0.0
O179 O 0.36166 0.81269 0.21558 0.0
O180 O 0.41494 0.76155 0.19209 0.0
O181 O 0.4271 0.79125 0.20484 0.0
O182 O 0.46819 0.10941 0.51843 0.0
Cd183 Cd 0.44108 0.11465 0.50192 0.0
Cd184 Cd 0.46695 0.13752 0.4778 0.0
O185 O 0.48791 0.13258 0.50207 0.0
O186 O 0.41682 0.11551 0.52174 0.0
O187 O 0.42834 0.14298 0.50406 0.0
C188 C 0.41563 0.13529 0.51771 0.0
C189 C 0.46153 0.1691 0.46024 0.0
C190 C 0.48553 0.11893 0.51642 0.0
C191 C 0.44835 0.0976 0.45982 0.0
O192 O 0.46157 0.11237 0.45857 0.0
O193 O 0.4367 0.09587 0.47587 0.0
O194 O 0.47872 0.1588 0.458 0.0
O195 O 0.44827 0.16241 0.47387 0.0
O196 O 0.11922 0.22536 0.75757 0.0
Cd197 Cd 0.11239 0.19868 0.74082 0.0
Cd198 Cd 0.09639 0.22736 0.71397 0.0
O199 O 0.10116 0.24779 0.73857 0.0
O200 O 0.11042 0.17562 0.76161 0.0
O201 O 0.08354 0.18627 0.74253 0.0
C202 C 0.0908 0.17423 0.75706 0.0
C203 C 0.06923 0.23048 0.6898 0.0
C204 C 0.11256 0.24381 0.7544 0.0
C205 C 0.13519 0.20257 0.70133 0.0
O206 O 0.12264 0.21765 0.69839 0.0
O207 O 0.13354 0.19114 0.7175 0.0
O208 O 0.08356 0.24453 0.69137 0.0
O209 O 0.06905 0.21565 0.70351 0.0
O210 O 0.02846 0.87862 0.00654 0.0
Cd211 Cd 0.05465 0.87202 0.98902 0.0
Cd212 Cd 0.02605 0.85343 0.96407 0.0
O213 O 0.00649 0.85832 0.98936 0.0
O214 O 0.07864 0.87052 0.00879 0.0
O215 O 0.06709 0.84322 0.99082 0.0
C216 C 0.07973 0.85077 0.00468 0.0
C217 C 0.02296 0.82479 0.94166 0.0
C218 C 0.01036 0.87067 0.00448 0.0
C219 C 0.04868 0.89258 0.94858 0.0
O220 O 0.03414 0.87921 0.94673 0.0
O221 O 0.06059 0.89233 0.9645 0.0
O222 O 0.00851 0.83873 0.94295 0.0
O223 O 0.03837 0.82598 0.95468 0.0
O224 O 0.2293 0.3642 0.21359 0.0
Cd225 Cd 0.24713 0.36759 0.18708 0.0
Cd226 Cd 0.27454 0.38579 0.21448 0.0
O227 O 0.24917 0.38323 0.23444 0.0
O228 O 0.2276 0.36952 0.16284 0.0
O229 O 0.24796 0.39569 0.17291 0.0
C230 C 0.23346 0.38874 0.16063 0.0
C231 C 0.29891 0.41285 0.21845 0.0
C232 C 0.23274 0.37242 0.23135 0.0
C233 C 0.2859 0.34394 0.19412 0.0
O234 O 0.28981 0.35848 0.20704 0.0
O235 O 0.26939 0.34435 0.18306 0.0
O236 O 0.29655 0.39863 0.23246 0.0
O237 O 0.28624 0.41271 0.20273 0.0
O238 O 0.74206 0.12927 0.7746 0.0
Cd239 Cd 0.76033 0.12165 0.79992 0.0
Cd240 Cd 0.78565 0.10572 0.77082 0.0
O241 O 0.75949 0.10965 0.75217 0.0
O242 O 0.74234 0.1165 0.82478 0.0
O243 O 0.75969 0.09149 0.808 0.0
C244 C 0.74672 0.0969 0.82254 0.0
C245 C 0.8086 0.07752 0.76806 0.0
C246 C 0.744 0.12143 0.75643 0.0
C247 C 0.79976 0.1443 0.7946 0.0
O248 O 0.80189 0.13216 0.77905 0.0
O249 O 0.78433 0.14214 0.80692 0.0
O250 O 0.80717 0.09131 0.75345 0.0
O251 O 0.79554 0.07865 0.78342 0.0
O252 O 0.12328 0.49406 0.01684 0.0
Cd253 Cd 0.1303 0.50614 0.04595 0.0
Cd254 Cd 0.1454 0.53878 0.02122 0.0
O255 O 0.13811 0.51836 0.99725 0.0
O256 O 0.13152 0.48179 0.06547 0.0
O257 O 0.15881 0.50199 0.05886 0.0
C258 C 0.15106 0.48591 0.06836 0.0
C259 C 0.17208 0.56372 0.01781 0.0
C260 C 0.12788 0.50136 0.99892 0.0
C261 C 0.10753 0.54611 0.04967 0.0
O262 O 0.12032 0.55229 0.03582 0.0
O263 O 0.10879 0.5277 0.05708 0.0
O264 O 0.1558 0.56397 0.00603 0.0
O265 O 0.17419 0.54815 0.0305 0.0
O266 O 0.76196 0.87048 0.27969 0.0
Cd267 Cd 0.74534 0.87738 0.30637 0.0
Cd268 Cd 0.71932 0.89568 0.27825 0.0
O269 O 0.7438 0.89002 0.2578 0.0
O270 O 0.76587 0.87882 0.32973 0.0
O271 O 0.74773 0.90621 0.31872 0.0
C272 C 0.76192 0.89859 0.33096 0.0
C273 C 0.6967 0.92419 0.27538 0.0
C274 C 0.75913 0.87785 0.26145 0.0
C275 C 0.70459 0.85693 0.30208 0.0
O276 O 0.70212 0.87027 0.2876 0.0
O277 O 0.72107 0.85703 0.31319 0.0
O278 O 0.69759 0.91001 0.26113 0.0
O279 O 0.7103 0.92339 0.2903 0.0
O280 O 0.87168 0.00543 0.02603 0.0
Cd281 Cd 0.86573 0.98892 0.05302 0.0
Cd282 Cd 0.84825 0.96188 0.02515 0.0
O283 O 0.85253 0.98643 0.00451 0.0
O284 O 0.86475 0.0099 0.07599 0.0
O285 O 0.83727 0.99119 0.06622 0.0
C286 C 0.84508 0.00575 0.07789 0.0
C287 C 0.8206 0.93816 0.02258 0.0
C288 C 0.86416 0.00222 0.00792 0.0
C289 C 0.88782 0.94901 0.04871 0.0
O290 O 0.87459 0.94598 0.03424 0.0
O291 O 0.88691 0.96541 0.05991 0.0
O292 O 0.8347 0.93946 0.00829 0.0
O293 O 0.82101 0.95181 0.03747 0.0
O294 O 0.25655 0.62637 0.7203 0.0
Cd295 Cd 0.23893 0.61946 0.69424 0.0
Cd296 Cd 0.21391 0.60183 0.72318 0.0
O297 O 0.23925 0.60664 0.74269 0.0
O298 O 0.2587 0.61756 0.6703 0.0
O299 O 0.24056 0.5905 0.68217 0.0
C300 C 0.25448 0.59782 0.66944 0.0
C301 C 0.19128 0.57336 0.72614 0.0
C302 C 0.25447 0.61878 0.73855 0.0
C303 C 0.19888 0.64078 0.70002 0.0
O304 O 0.19695 0.62778 0.71489 0.0
O305 O 0.21465 0.63994 0.68796 0.0
O306 O 0.19259 0.58729 0.74061 0.0
O307 O 0.20439 0.57445 0.71081 0.0
O308 O 0.12817 0.50726 0.47129 0.0
Cd309 Cd 0.13434 0.49035 0.44457 0.0
Cd310 Cd 0.15283 0.46478 0.47231 0.0
O311 O 0.1485 0.48949 0.49275 0.0
O312 O 0.135 0.5108 0.42107 0.0
O313 O 0.16275 0.49276 0.43131 0.0
C314 C 0.15474 0.50691 0.41928 0.0
C315 C 0.18189 0.44272 0.47265 0.0
C316 C 0.13618 0.50474 0.48931 0.0
C317 C 0.11322 0.45006 0.4503 0.0
O318 O 0.12666 0.44782 0.46473 0.0
O319 O 0.11375 0.46605 0.43849 0.0
O320 O 0.16884 0.44312 0.48798 0.0
O321 O 0.17957 0.45638 0.45795 0.0
O322 O 0.37752 0.48956 0.97535 0.0
Cd323 Cd 0.37194 0.50546 0.94802 0.0
Cd324 Cd 0.35355 0.53277 0.9748 0.0
O325 O 0.35697 0.50833 0.99572 0.0
O326 O 0.37099 0.48387 0.92572 0.0
O327 O 0.34352 0.50289 0.93503 0.0
C328 C 0.35129 0.4879 0.92389 0.0
C329 C 0.32585 0.55651 0.97649 0.0
C330 C 0.369 0.49271 0.99301 0.0
C331 C 0.3936 0.54544 0.95187 0.0
O332 O 0.38017 0.54851 0.96615 0.0
O333 O 0.3929 0.52896 0.94079 0.0
O334 O 0.33967 0.55541 0.99108 0.0
O335 O 0.3266 0.54271 0.96175 0.0
O336 O 0.72303 0.74024 0.87567 0.0
Cd337 Cd 0.6908 0.74636 0.87794 0.0
Cd338 Cd 0.72387 0.78989 0.89443 0.0
O339 O 0.74428 0.76584 0.88733 0.0
O340 O 0.67327 0.72099 0.88207 0.0
O341 O 0.67857 0.745 0.90664 0.0
C342 C 0.67019 0.72746 0.90101 0.0
C343 C 0.73097 0.82057 0.91218 0.0
C344 C 0.74129 0.74764 0.87945 0.0
C345 C 0.68841 0.78547 0.86456 0.0
O346 O 0.69507 0.78422 0.88321 0.0
O347 O 0.6793 0.76931 0.85776 0.0
O348 O 0.73388 0.81922 0.89221 0.0
O349 O 0.72492 0.80402 0.92219 0.0
O350 O 0.50219 0.46634 0.13075 0.0
Cd351 Cd 0.48538 0.43958 0.1366 0.0
Cd352 Cd 0.4589 0.46738 0.15411 0.0
O353 O 0.48362 0.48794 0.1502 0.0
O354 O 0.50612 0.41652 0.13805 0.0
O355 O 0.48715 0.42675 0.1652 0.0
C356 C 0.50177 0.41495 0.1577 0.0
C357 C 0.435 0.46879 0.18155 0.0
C358 C 0.49932 0.48441 0.13848 0.0
C359 C 0.44572 0.44422 0.11451 0.0
O360 O 0.44291 0.45876 0.1277 0.0
O361 O 0.46197 0.43284 0.11534 0.0
O362 O 0.43646 0.48373 0.16813 0.0
O363 O 0.44881 0.45407 0.1808 0.0
O364 O 0.77856 0.25723 0.37614 0.0
Cd365 Cd 0.80495 0.23964 0.38181 0.0
Cd366 Cd 0.77691 0.21493 0.40059 0.0
O367 O 0.75733 0.24041 0.39749 0.0
O368 O 0.82889 0.25957 0.38244 0.0
O369 O 0.81837 0.24167 0.41018 0.0
C370 C 0.83061 0.25565 0.40218 0.0
C371 C 0.77637 0.19214 0.42901 0.0
C372 C 0.76082 0.25545 0.38493 0.0
C373 C 0.79741 0.19993 0.36032 0.0
O374 O 0.78298 0.19829 0.37383 0.0
O375 O 0.81009 0.21524 0.36104 0.0
O376 O 0.76076 0.1935 0.41637 0.0
O377 O 0.79155 0.20529 0.42673 0.0
O378 O 0.99412 0.5306 0.62172 0.0
Cd379 Cd 0.0122 0.55612 0.62947 0.0
Cd380 Cd 0.03582 0.52655 0.6473 0.0
O381 O 0.00994 0.50781 0.64222 0.0
O382 O 0.99303 0.58052 0.6321 0.0
O383 O 0.01061 0.56718 0.65884 0.0
C384 C 0.99705 0.58049 0.6519 0.0
C385 C 0.05792 0.5236 0.67615 0.0
C386 C 0.99531 0.51235 0.6295 0.0
C387 C 0.05234 0.54923 0.60875 0.0
O388 O 0.05338 0.53408 0.62152 0.0
O389 O 0.03713 0.56201 0.6096 0.0
O390 O 0.05647 0.50887 0.6625 0.0
O391 O 0.04516 0.53918 0.67459 0.0
O392 O 0.71254 0.25646 0.62338 0.0
Cd393 Cd 0.6864 0.23907 0.61668 0.0
Cd394 Cd 0.71555 0.21282 0.60005 0.0
O395 O 0.73529 0.23803 0.60514 0.0
O396 O 0.66296 0.25931 0.61451 0.0
O397 O 0.67435 0.24049 0.58771 0.0
C398 C 0.66202 0.25484 0.59484 0.0
C399 C 0.72 0.18897 0.57276 0.0
C400 C 0.73097 0.2538 0.61651 0.0
C401 C 0.69073 0.19938 0.63875 0.0
O402 O 0.70556 0.19659 0.62588 0.0
O403 O 0.67944 0.21569 0.63782 0.0
O404 O 0.73366 0.19086 0.58742 0.0
O405 O 0.70475 0.20221 0.57238 0.0
O406 O 0.00454 0.48514 0.8584 0.0
Cd407 Cd 0.99998 0.45326 0.86372 0.0
Cd408 Cd 0.04874 0.48906 0.84936 0.0
O409 O 0.02502 0.51128 0.84936 0.0
O410 O 0.97136 0.44118 0.86041 0.0
O411 O 0.99731 0.43683 0.83764 0.0
C412 C 0.97807 0.43344 0.84293 0.0
C413 C 0.08096 0.49016 0.8329 0.0
C414 C 0.0071 0.50461 0.85524 0.0
C415 C 0.0381 0.4529 0.88058 0.0
O416 O 0.03775 0.46224 0.86304 0.0
O417 O 0.02218 0.44175 0.8847 0.0
O418 O 0.07887 0.49652 0.85199 0.0
O419 O 0.06441 0.48414 0.82289 0.0
O420 O 0.778 0.73789 0.12657 0.0
Cd421 Cd 0.80476 0.75437 0.11961 0.0
Cd422 Cd 0.77668 0.78047 0.10138 0.0
O423 O 0.7564 0.75578 0.10647 0.0
O424 O 0.82785 0.73355 0.11833 0.0
O425 O 0.81706 0.75166 0.09081 0.0
C426 C 0.82907 0.73732 0.09852 0.0
C427 C 0.77339 0.80347 0.07318 0.0
C428 C 0.75989 0.74056 0.11882 0.0
C429 C 0.80037 0.79491 0.14036 0.0
O430 O 0.78572 0.79727 0.12719 0.0
O431 O 0.8118 0.77866 0.13986 0.0
O432 O 0.75928 0.80224 0.08747 0.0
O433 O 0.78852 0.7901 0.07375 0.0
O434 O 0.50391 0.52879 0.37389 0.0
Cd435 Cd 0.48662 0.55528 0.3678 0.0
Cd436 Cd 0.46166 0.52712 0.34878 0.0
O437 O 0.487 0.50749 0.35269 0.0
O438 O 0.50673 0.57903 0.36761 0.0
O439 O 0.48931 0.56871 0.33949 0.0
C440 C 0.5032 0.58084 0.3478 0.0
C441 C 0.43906 0.52499 0.32023 0.0
C442 C 0.50199 0.51097 0.36531 0.0
C443 C 0.44638 0.54857 0.38858 0.0
O444 O 0.44465 0.53412 0.37509 0.0
O445 O 0.46202 0.56085 0.38816 0.0
O446 O 0.44047 0.51006 0.33365 0.0
O447 O 0.45201 0.5404 0.32189 0.0
O448 O 0.88041 0.72014 0.74547 0.0
Cd449 Cd 0.8868 0.69365 0.76262 0.0
Cd450 Cd 0.90492 0.72214 0.78766 0.0
O451 O 0.9013 0.74186 0.76226 0.0
O452 O 0.88756 0.6701 0.74228 0.0
O453 O 0.91531 0.68056 0.76019 0.0
C454 C 0.90733 0.6685 0.74605 0.0
C455 C 0.93249 0.72383 0.81153 0.0
C456 C 0.88864 0.73813 0.74734 0.0
C457 C 0.86492 0.70046 0.80204 0.0
O458 O 0.87812 0.71516 0.80377 0.0
O459 O 0.866 0.68777 0.78677 0.0
O460 O 0.91937 0.73897 0.80955 0.0
O461 O 0.93132 0.70859 0.79832 0.0
O462 O 0.5314 0.61604 0.99786 0.0
Cd463 Cd 0.55719 0.62244 0.01598 0.0
Cd464 Cd 0.52855 0.64297 0.0388 0.0
O465 O 0.50995 0.63858 0.01272 0.0
O466 O 0.5818 0.62205 0.99696 0.0
O467 O 0.57051 0.65066 0.01296 0.0
C468 C 0.58326 0.64199 0.99986 0.0
C469 C 0.52711 0.67253 0.06008 0.0
C470 C 0.51379 0.6252 0.99849 0.0
C471 C 0.54847 0.60352 0.05665 0.0
O472 O 0.53412 0.61722 0.05712 0.0
O473 O 0.56148 0.60316 0.04163 0.0
O474 O 0.51158 0.65978 0.05877 0.0
O475 O 0.54276 0.66965 0.04763 0.0
O476 O 0.62763 0.27948 0.24456 0.0
Cd477 Cd 0.62005 0.30501 0.26262 0.0
Cd478 Cd 0.60247 0.27571 0.28674 0.0
O479 O 0.60751 0.2568 0.261 0.0
O480 O 0.61761 0.32925 0.24335 0.0
O481 O 0.59076 0.31613 0.26095 0.0
C482 C 0.5978 0.32933 0.24733 0.0
C483 C 0.57349 0.27263 0.30862 0.0
C484 C 0.6199 0.26124 0.24606 0.0
C485 C 0.64086 0.29895 0.30281 0.0
O486 O 0.62815 0.28378 0.30425 0.0
O487 O 0.63997 0.31133 0.28729 0.0
O488 O 0.58737 0.25809 0.3075 0.0
O489 O 0.575 0.28813 0.29575 0.0
O490 O 0.97192 0.37823 0.48926 0.0
Cd491 Cd 0.94485 0.37219 0.50568 0.0
Cd492 Cd 0.97225 0.35456 0.53239 0.0
O493 O 0.9931 0.35844 0.50797 0.0
O494 O 0.9218 0.36996 0.48486 0.0
O495 O 0.93246 0.34332 0.50428 0.0
C496 C 0.92046 0.35037 0.4896 0.0
C497 C 0.9735 0.32706 0.55629 0.0
C498 C 0.98992 0.3704 0.49237 0.0
C499 C 0.94923 0.39429 0.54545 0.0
O500 O 0.96374 0.38107 0.54825 0.0
O501 O 0.93782 0.39339 0.52919 0.0
O502 O 0.98837 0.34056 0.55505 0.0
O503 O 0.95891 0.32781 0.54234 0.0
O504 O 0.86334 0.28782 0.75676 0.0
Cd505 Cd 0.86726 0.31471 0.73954 0.0
Cd506 Cd 0.88957 0.28819 0.71431 0.0
O507 O 0.88617 0.26839 0.73965 0.0
O508 O 0.86676 0.33904 0.759 0.0
O509 O 0.8949 0.32917 0.74126 0.0
C510 C 0.88639 0.34149 0.75487 0.0
C511 C 0.91834 0.28602 0.69181 0.0
C512 C 0.87329 0.27075 0.75465 0.0
C513 C 0.84837 0.30697 0.69859 0.0
O514 O 0.86332 0.29405 0.6968 0.0
O515 O 0.84702 0.31861 0.71464 0.0
O516 O 0.90506 0.27101 0.69342 0.0
O517 O 0.9164 0.30166 0.70444 0.0
O518 O 0.9671 0.61486 0.01016 0.0
Cd519 Cd 0.94131 0.62222 0.99237 0.0
Cd520 Cd 0.97032 0.64334 0.96969 0.0
O521 O 0.9888 0.63745 0.99565 0.0
O522 O 0.91671 0.62421 0.01129 0.0
O523 O 0.93005 0.65138 0.99431 0.0
C524 C 0.91662 0.64408 0.00757 0.0
C525 C 0.97473 0.67215 0.94771 0.0
C526 C 0.98486 0.62375 0.00957 0.0
C527 C 0.94853 0.60486 0.95107 0.0
O528 O 0.96289 0.61853 0.95087 0.0
O529 O 0.93609 0.60352 0.9665 0.0
O530 O 0.98906 0.65817 0.9497 0.0
O531 O 0.95879 0.67108 0.96007 0.0
O532 O 0.62731 0.72052 0.26038 0.0
Cd533 Cd 0.62063 0.69364 0.24399 0.0
Cd534 Cd 0.60287 0.72118 0.21704 0.0
O535 O 0.60834 0.74204 0.24119 0.0
O536 O 0.61761 0.67058 0.26468 0.0
O537 O 0.59142 0.68212 0.24511 0.0
C538 C 0.59803 0.66984 0.25977 0.0
C539 C 0.57474 0.72427 0.19399 0.0
C540 C 0.62009 0.73871 0.25692 0.0
C541 C 0.64169 0.69668 0.2035 0.0
O542 O 0.62835 0.71102 0.20039 0.0
O543 O 0.64147 0.68617 0.22037 0.0
O544 O 0.58928 0.73816 0.19475 0.0
O545 O 0.575 0.70961 0.20788 0.0
O546 O 0.52471 0.37645 0.50475 0.0
Cd547 Cd 0.55074 0.36935 0.48721 0.0
Cd548 Cd 0.52213 0.35148 0.46252 0.0
O549 O 0.50264 0.35599 0.48791 0.0
O550 O 0.57461 0.36768 0.507 0.0
O551 O 0.56267 0.3404 0.48924 0.0
C552 C 0.57538 0.34788 0.50309 0.0
C553 C 0.52008 0.32264 0.44035 0.0
C554 C 0.50662 0.36844 0.50292 0.0
C555 C 0.54497 0.39037 0.44711 0.0
O556 O 0.52999 0.37747 0.44536 0.0
O557 O 0.55717 0.38949 0.46277 0.0
O558 O 0.50522 0.33618 0.44133 0.0
O559 O 0.53531 0.32436 0.45352 0.0
O560 O 0.74646 0.87116 0.73581 0.0
Cd561 Cd 0.76189 0.87829 0.7083 0.0
Cd562 Cd 0.79002 0.8948 0.73618 0.0
O563 O 0.7674 0.88733 0.75803 0.0
O564 O 0.7401 0.87862 0.68594 0.0
O565 O 0.75817 0.90669 0.69503 0.0
C566 C 0.74366 0.89836 0.68368 0.0
C567 C 0.81215 0.92376 0.73846 0.0
C568 C 0.75114 0.87643 0.75441 0.0
C569 C 0.80303 0.85727 0.70986 0.0
O570 O 0.80662 0.87009 0.72455 0.0
O571 O 0.78579 0.85788 0.69995 0.0
O572 O 0.81272 0.90899 0.75213 0.0
O573 O 0.79746 0.92318 0.7246 0.0
O574 O 0.24018 0.62907 0.27651 0.0
Cd575 Cd 0.25705 0.62253 0.30313 0.0
Cd576 Cd 0.28308 0.60388 0.27517 0.0
O577 O 0.25844 0.60931 0.25491 0.0
O578 O 0.23684 0.62056 0.32671 0.0
O579 O 0.25544 0.59361 0.31535 0.0
C580 C 0.24126 0.60087 0.32781 0.0
C581 C 0.30565 0.57544 0.27139 0.0
C582 C 0.24303 0.62142 0.2584 0.0
C583 C 0.29781 0.64291 0.2987 0.0
O584 O 0.30036 0.6293 0.2845 0.0
O585 O 0.28122 0.64307 0.30965 0.0
O586 O 0.30459 0.58995 0.2575 0.0
O587 O 0.29235 0.57596 0.28657 0.0
O588 O 0.6246 0.98231 0.53622 0.0
Cd589 Cd 0.63022 0.99895 0.56326 0.0
Cd590 Cd 0.64759 0.02684 0.53527 0.0
O591 O 0.64278 0.00229 0.5147 0.0
O592 O 0.63238 0.97834 0.58659 0.0
O593 O 0.6589 0.9981 0.57628 0.0
C594 C 0.65183 0.98349 0.58837 0.0
C595 C 0.67454 0.05115 0.53049 0.0
C596 C 0.63166 0.9861 0.51803 0.0
C597 C 0.60801 0.03901 0.55949 0.0
O598 O 0.62155 0.04262 0.54545 0.0
O599 O 0.60854 0.02211 0.56995 0.0
O600 O 0.65956 0.04926 0.51721 0.0
O601 O 0.67536 0.03783 0.54564 0.0
O602 O 0.26619 0.36187 0.78782 0.0
Cd603 Cd 0.24826 0.3687 0.81357 0.0
Cd604 Cd 0.22695 0.39228 0.786 0.0
O605 O 0.25216 0.38538 0.7668 0.0
O606 O 0.26656 0.37004 0.83886 0.0
O607 O 0.25058 0.39754 0.82506 0.0
C608 C 0.26325 0.38999 0.83885 0.0
C609 C 0.21032 0.42478 0.78736 0.0
C610 C 0.2657 0.37119 0.77028 0.0
C611 C 0.20571 0.35395 0.80486 0.0
O612 O 0.20585 0.36862 0.79147 0.0
O613 O 0.22124 0.3512 0.81699 0.0
O614 O 0.20914 0.41312 0.77096 0.0
O615 O 0.22253 0.41882 0.80227 0.0
O616 O 0.37164 0.50658 0.5271 0.0
Cd617 Cd 0.36546 0.49004 0.55404 0.0
Cd618 Cd 0.34737 0.46392 0.52652 0.0
O619 O 0.35135 0.4885 0.50585 0.0
O620 O 0.36444 0.51078 0.57721 0.0
O621 O 0.33694 0.49228 0.56707 0.0
C622 C 0.34475 0.50665 0.57896 0.0
C623 C 0.31927 0.44067 0.52585 0.0
C624 C 0.36362 0.50384 0.50912 0.0
C625 C 0.38703 0.45007 0.54905 0.0
O626 O 0.3738 0.44762 0.53448 0.0
O627 O 0.38624 0.46613 0.56074 0.0
O628 O 0.33242 0.44167 0.51064 0.0
O629 O 0.32077 0.45448 0.54052 0.0
O630 O 0.75708 0.12779 0.2193 0.0
Cd631 Cd 0.74146 0.12249 0.19167 0.0
Cd632 Cd 0.71349 0.10459 0.21774 0.0
O633 O 0.73707 0.10838 0.23966 0.0
O634 O 0.76284 0.12025 0.16917 0.0
O635 O 0.7426 0.09382 0.17886 0.0
C636 C 0.75771 0.10079 0.16735 0.0
C637 C 0.68948 0.07715 0.21756 0.0
C638 C 0.75306 0.12001 0.23715 0.0
C639 C 0.70169 0.14471 0.19466 0.0
O640 O 0.69797 0.13109 0.20858 0.0
O641 O 0.71863 0.14422 0.18431 0.0
O642 O 0.69012 0.09043 0.23268 0.0
O643 O 0.7041 0.07801 0.20365 0.0
O644 O 0.62057 0.01142 0.95457 0.0
Cd645 Cd 0.62921 0.99209 0.93045 0.0
Cd646 Cd 0.64994 0.97159 0.96114 0.0
O647 O 0.64272 0.99851 0.9778 0.0
O648 O 0.63365 0.00793 0.90373 0.0
O649 O 0.65921 0.99439 0.92289 0.0
C650 C 0.65345 0.00535 0.90697 0.0
C651 C 0.68173 0.95367 0.96154 0.0
C652 C 0.62894 0.01197 0.97262 0.0
C653 C 0.61268 0.95035 0.94075 0.0
O654 O 0.62584 0.95113 0.9556 0.0
O655 O 0.61187 0.96489 0.92721 0.0
O656 O 0.66971 0.95379 0.97773 0.0
O657 O 0.67668 0.96547 0.94599 0.0
O658 O 0.87953 0.99018 0.4727 0.0
Cd659 Cd 0.87385 0.00655 0.44553 0.0
Cd660 Cd 0.85562 0.03367 0.47264 0.0
O661 O 0.85959 0.00925 0.49341 0.0
O662 O 0.87212 0.98566 0.4225 0.0
O663 O 0.8452 0.00497 0.43266 0.0
C664 C 0.85253 0.99029 0.42083 0.0
C665 C 0.82778 0.05716 0.47533 0.0
C666 C 0.87144 0.99352 0.49055 0.0
C667 C 0.89559 0.04666 0.44975 0.0
O668 O 0.88201 0.04973 0.46388 0.0
O669 O 0.89503 0.03012 0.43873 0.0
O670 O 0.84197 0.05598 0.48954 0.0
O671 O 0.8283 0.04361 0.46036 0.0
H672 H 0.10949 0.13704 0.45885 0.0
H673 H 0.16627 0.24712 0.44186 0.0
H674 H 0.09662 0.19028 0.49828 0.0
H675 H 0.1593 0.20061 0.39347 0.0
H676 H 0.14464 0.22544 0.46511 0.0
H677 H 0.13218 0.1589 0.43736 0.0
C678 C 0.11156 0.1533 0.46313 0.0
C679 C 0.10106 0.16183 0.4804 0.0
C680 C 0.14785 0.22006 0.44938 0.0
C681 C 0.12711 0.18703 0.45572 0.0
C682 C 0.16021 0.23238 0.43613 0.0
C683 C 0.16456 0.2257 0.41566 0.0
C684 C 0.14012 0.20078 0.44222 0.0
C685 C 0.15629 0.20646 0.40906 0.0
C686 C 0.12445 0.16581 0.45074 0.0
C687 C 0.10436 0.18306 0.48508 0.0
N688 N 0.14459 0.19466 0.42231 0.0
N689 N 0.11712 0.19494 0.47282 0.0
H690 H 0.05646 0.84084 0.7527 0.0
H691 H 0.04386 0.9021 0.64478 0.0
H692 H 0.10746 0.85263 0.7101 0.0
H693 H 1.00045 0.91084 0.6957 0.0
H694 H 0.06534 0.88012 0.66731 0.0
H695 H 0.03393 0.86331 0.73114 0.0
C696 C 0.06295 0.84823 0.73891 0.0
C697 C 0.0839 0.84486 0.73321 0.0
C698 C 0.05111 0.88682 0.67358 0.0
C699 C 0.05817 0.8702 0.70838 0.0
C700 C 0.03874 0.89928 0.66067 0.0
C701 C 0.02031 0.90837 0.66836 0.0
C702 C 0.04496 0.88313 0.69433 0.0
C703 C 0.01456 0.90418 0.68915 0.0
C704 C 0.0501 0.86103 0.72664 0.0
C705 C 0.09146 0.85481 0.71516 0.0
N706 N 0.02682 0.8918 0.70143 0.0
N707 N 0.07858 0.86686 0.70334 0.0
H708 H 0.40451 0.85796 0.95008 0.0
H709 H 0.34245 0.74995 0.94141 0.0
H710 H 0.41199 0.80884 0.99576 0.0
H711 H 0.35333 0.79143 0.88928 0.0
H712 H 0.36506 0.77215 0.96315 0.0
H713 H 0.38226 0.83493 0.92944 0.0
C714 C 0.40137 0.84236 0.95587 0.0
C715 C 0.41018 0.83533 0.9747 0.0
C716 C 0.36255 0.77627 0.94691 0.0
C717 C 0.38464 0.80877 0.95099 0.0
C718 C 0.34967 0.76363 0.9345 0.0
C719 C 0.346 0.76881 0.91347 0.0
C720 C 0.37154 0.79438 0.9383 0.0
C721 C 0.35573 0.78675 0.90537 0.0
C722 C 0.38874 0.82916 0.94398 0.0
C723 C 0.40555 0.81489 0.98132 0.0
N724 N 0.3679 0.79892 0.91781 0.0
N725 N 0.39305 0.80231 0.9695 0.0
H726 H 0.43356 0.1598 0.23385 0.0
H727 H 0.45859 0.12243 0.11693 0.0
H728 H 0.39992 0.18195 0.17969 0.0
H729 H 0.4926 0.10104 0.17116 0.0
H730 H 0.43777 0.14521 0.13944 0.0
H731 H 0.45587 0.13891 0.21101 0.0
C732 C 0.43084 0.16029 0.21714 0.0
C733 C 0.41477 0.17263 0.20869 0.0
C734 C 0.44985 0.13562 0.14642 0.0
C735 C 0.44038 0.14869 0.18237 0.0
C736 C 0.4618 0.12262 0.13356 0.0
C737 C 0.47737 0.10974 0.14216 0.0
C738 C 0.45342 0.13575 0.16809 0.0
C739 C 0.48078 0.11067 0.16383 0.0
C740 C 0.44364 0.14835 0.20409 0.0
C741 C 0.41208 0.17264 0.1869 0.0
N742 N 0.46885 0.12337 0.17604 0.0
N743 N 0.42472 0.16083 0.17451 0.0
H744 H 0.1498 0.79632 0.10574 0.0
H745 H 0.0903 0.80974 0.99698 0.0
H746 H 0.16005 0.75374 0.05439 0.0
H747 H 0.10165 0.86054 0.03994 0.0
H748 H 0.11244 0.78707 0.01874 0.0
H749 H 0.12801 0.81787 0.08306 0.0
C750 C 0.14734 0.79139 0.08972 0.0
C751 C 0.15681 0.77319 0.08196 0.0
C752 C 0.11013 0.80322 0.02327 0.0
C753 C 0.13181 0.7979 0.05583 0.0
C754 C 0.09752 0.81616 0.01089 0.0
C755 C 0.09413 0.83709 0.01662 0.0
C756 C 0.11907 0.8112 0.04169 0.0
C757 C 0.10386 0.84455 0.03484 0.0
C758 C 0.13499 0.8038 0.07674 0.0
C759 C 0.15309 0.76768 0.06101 0.0
N760 N 0.11571 0.8316 0.04677 0.0
N761 N 0.14081 0.77996 0.04866 0.0
H762 H 0.5053 0.90531 0.30795 0.0
H763 H 0.39424 0.85072 0.29246 0.0
H764 H 0.46198 0.89367 0.35836 0.0
H765 H 0.44518 0.83963 0.24962 0.0
H766 H 0.41778 0.8709 0.31468 0.0
H767 H 0.48269 0.88487 0.28449 0.0
C768 C 0.49114 0.89836 0.31412 0.0
C769 C 0.48556 0.90118 0.33518 0.0
C770 C 0.42382 0.86409 0.30039 0.0
C771 C 0.45952 0.87822 0.30838 0.0
C772 C 0.41035 0.85268 0.2876 0.0
C773 C 0.41773 0.84342 0.26913 0.0
C774 C 0.44485 0.86656 0.29463 0.0
C775 C 0.43883 0.84645 0.26374 0.0
C776 C 0.47827 0.88673 0.30073 0.0
C777 C 0.46699 0.89186 0.3423 0.0
N778 N 0.45167 0.85782 0.27641 0.0
N779 N 0.45459 0.88098 0.32891 0.0
H780 H 0.34135 0.23941 0.56383 0.0
H781 H 0.393 0.12606 0.55283 0.0
H782 H 0.34679 0.19571 0.61498 0.0
H783 H 0.40568 0.17611 0.50936 0.0
H784 H 0.37179 0.1501 0.57367 0.0
H785 H 0.36143 0.21531 0.54174 0.0
C786 C 0.34684 0.22482 0.57044 0.0
C787 C 0.34245 0.21961 0.59131 0.0
C788 C 0.37916 0.15579 0.55953 0.0
C789 C 0.36506 0.19188 0.56607 0.0
C790 C 0.39115 0.14204 0.54754 0.0
C791 C 0.40117 0.1491 0.52936 0.0
C792 C 0.37698 0.17671 0.55319 0.0
C793 C 0.39828 0.17003 0.52332 0.0
C794 C 0.35826 0.21108 0.55783 0.0
C795 C 0.34989 0.20045 0.59903 0.0
N796 N 0.38645 0.18311 0.53521 0.0
N797 N 0.36071 0.18725 0.58639 0.0
H798 H 0.0503 0.16245 0.74832 0.0
H799 H 0.03499 0.10477 0.8579 0.0
H800 H 0.09972 0.15402 0.79351 0.0
H801 H 0.99499 0.09163 0.80514 0.0
H802 H 0.05625 0.12734 0.83572 0.0
H803 H 0.02748 0.14026 0.7699 0.0
C804 C 0.05637 0.15589 0.7627 0.0
C805 C 0.07697 0.16006 0.76909 0.0
C806 C 0.04279 0.11957 0.82899 0.0
C807 C 0.05091 0.13508 0.79392 0.0
C808 C 0.03054 0.10677 0.84168 0.0
C809 C 0.01319 0.09623 0.83337 0.0
C810 C 0.03758 0.12212 0.80782 0.0
C811 C 0.00827 0.09942 0.81218 0.0
C812 C 0.04336 0.14325 0.77498 0.0
C813 C 0.08401 0.15117 0.78789 0.0
N814 N 0.0204 0.11212 0.80011 0.0
N815 N 0.07098 0.13926 0.79968 0.0
H816 H 0.19942 0.37972 0.13644 0.0
H817 H 0.19126 0.49244 0.08248 0.0
H818 H 0.24281 0.42953 0.15029 0.0
H819 H 0.14074 0.44775 0.08448 0.0
H820 H 0.21244 0.46872 0.10406 0.0
H821 H 0.18011 0.40336 0.11359 0.0
C822 C 0.20502 0.39559 0.13455 0.0
C823 C 0.22277 0.40263 0.14539 0.0
C824 C 0.1967 0.46417 0.09977 0.0
C825 C 0.20056 0.42993 0.11918 0.0
C826 C 0.18461 0.47768 0.08745 0.0
C827 C 0.16415 0.47212 0.0817 0.0
C828 C 0.18836 0.44486 0.10614 0.0
C829 C 0.15638 0.45277 0.08858 0.0
C830 C 0.19389 0.40914 0.12156 0.0
C831 C 0.2292 0.42343 0.14229 0.0
N832 N 0.16849 0.43985 0.10032 0.0
N833 N 0.21809 0.43636 0.12948 0.0
H834 H 0.73275 0.05868 0.80999 0.0
H835 H 0.69154 0.0196 0.91921 0.0
H836 H 0.73537 0.09954 0.86357 0.0
H837 H 0.65089 0.016 0.86549 0.0
H838 H 0.71623 0.04058 0.89862 0.0
H839 H 0.71086 0.03429 0.83021 0.0
C840 C 0.72906 0.06228 0.82612 0.0
C841 C 0.73583 0.08106 0.83522 0.0
C842 C 0.702 0.03494 0.89136 0.0
C843 C 0.71134 0.05329 0.85825 0.0
C844 C 0.688 0.02293 0.90298 0.0
C845 C 0.66916 0.01614 0.89399 0.0
C846 C 0.69742 0.03961 0.87047 0.0
C847 C 0.66522 0.02104 0.87297 0.0
C848 C 0.7165 0.0485 0.83751 0.0
C849 C 0.73041 0.0852 0.85605 0.0
N850 N 0.67933 0.03241 0.86181 0.0
N851 N 0.71858 0.07132 0.86697 0.0
H852 H 0.79711 0.88829 0.35274 0.0
H853 H 0.81182 0.99851 0.40939 0.0
H854 H 0.7552 0.93991 0.3412 0.0
H855 H 0.86174 0.95402 0.40038 0.0
H856 H 0.78897 0.9765 0.38767 0.0
H857 H 0.81882 0.91115 0.37417 0.0
C858 C 0.79236 0.90441 0.35484 0.0
C859 C 0.77429 0.91218 0.34512 0.0
C860 C 0.80497 0.97168 0.3904 0.0
C861 C 0.79922 0.93853 0.3697 0.0
C862 C 0.81801 0.9842 0.40277 0.0
C863 C 0.83875 0.97812 0.40669 0.0
C864 C 0.81264 0.95279 0.38221 0.0
C865 C 0.84592 0.9594 0.39774 0.0
C866 C 0.80487 0.9175 0.36699 0.0
C867 C 0.76902 0.93327 0.34837 0.0
N868 N 0.83286 0.94736 0.38609 0.0
N869 N 0.78141 0.94572 0.36045 0.0
H870 H 0.804 0.99917 0.08906 0.0
H871 H 0.79399 0.10946 0.14669 0.0
H872 H 0.85574 0.04142 0.09869 0.0
H873 H 0.74899 0.06008 0.15628 0.0
H874 H 0.81493 0.08577 0.12542 0.0
H875 H 0.78197 0.02202 0.11071 0.0
C876 C 0.81076 0.01315 0.09581 0.0
C877 C 0.83176 0.01836 0.09207 0.0
C878 C 0.80047 0.08009 0.13215 0.0
C879 C 0.80661 0.04467 0.11648 0.0
C880 C 0.78841 0.09366 0.14421 0.0
C881 C 0.76969 0.08676 0.15333 0.0
C882 C 0.79373 0.05945 0.12893 0.0
C883 C 0.76334 0.06605 0.14958 0.0
C884 C 0.79818 0.02617 0.10814 0.0
C885 C 0.83968 0.0367 0.10118 0.0
N886 N 0.77531 0.05311 0.13762 0.0
N887 N 0.82708 0.04923 0.1128 0.0
H888 H 0.24666 0.55665 0.6595 0.0
H889 H 0.35521 0.5423 0.59987 0.0
H890 H 0.28971 0.6072 0.64734 0.0
H891 H 0.30383 0.49955 0.59045 0.0
H892 H 0.33265 0.56413 0.62148 0.0
H893 H 0.26834 0.53361 0.63767 0.0
C894 C 0.26057 0.56293 0.65216 0.0
C895 C 0.26636 0.5839 0.65523 0.0
C896 C 0.32629 0.54996 0.61472 0.0
C897 C 0.29132 0.5576 0.63065 0.0
C898 C 0.33922 0.53739 0.60247 0.0
C899 C 0.33141 0.51906 0.59328 0.0
C900 C 0.30541 0.5441 0.61808 0.0
C901 C 0.31048 0.51358 0.59719 0.0
C902 C 0.27291 0.54979 0.63973 0.0
C903 C 0.28457 0.59119 0.64538 0.0
N904 N 0.2982 0.52603 0.60936 0.0
N905 N 0.29645 0.57804 0.6337 0.0
H906 H 0.20593 0.61014 0.34982 0.0
H907 H 0.1956 0.50003 0.40755 0.0
H908 H 0.24937 0.55984 0.33814 0.0
H909 H 0.14396 0.5425 0.3984 0.0
H910 H 0.21742 0.5226 0.38536 0.0
H911 H 0.18517 0.5867 0.37158 0.0
C912 C 0.21122 0.59419 0.35195 0.0
C913 C 0.22944 0.58696 0.3421 0.0
C914 C 0.20127 0.52685 0.38815 0.0
C915 C 0.20562 0.55995 0.36706 0.0
C916 C 0.18882 0.514 0.40079 0.0
C917 C 0.1679 0.51936 0.40482 0.0
C918 C 0.19283 0.54534 0.37981 0.0
C919 C 0.15995 0.53768 0.39569 0.0
C920 C 0.19926 0.58077 0.36428 0.0
C921 C 0.23541 0.56607 0.3454 0.0
N922 N 0.17245 0.55005 0.38378 0.0
N923 N 0.22356 0.55328 0.35767 0.0
H924 H 0.3106 0.49471 0.91176 0.0
H925 H 0.29725 0.38059 0.86296 0.0
H926 H 0.36119 0.45038 0.90624 0.0
H927 H 0.25595 0.43148 0.84683 0.0
H928 H 0.31837 0.40483 0.88365 0.0
H929 H 0.28812 0.47077 0.89183 0.0
C930 C 0.31701 0.48003 0.90626 0.0
C931 C 0.33782 0.47457 0.9106 0.0
C932 C 0.30463 0.41066 0.87565 0.0
C933 C 0.31215 0.44704 0.88827 0.0
C934 C 0.29248 0.39681 0.86397 0.0
C935 C 0.27484 0.40403 0.85311 0.0
C936 C 0.29899 0.43186 0.8767 0.0
C937 C 0.26947 0.42526 0.85491 0.0
C938 C 0.30418 0.46639 0.89493 0.0
C939 C 0.34529 0.45531 0.90316 0.0
N940 N 0.2815 0.43845 0.86649 0.0
N941 N 0.33243 0.4422 0.89251 0.0
H942 H 0.59215 0.68391 0.00331 0.0
H943 H 0.65621 0.68735 0.89618 0.0
H944 H 0.60752 0.629 0.9672 0.0
H945 H 0.65602 0.73872 0.93995 0.0
H946 H 0.63636 0.66644 0.92122 0.0
H947 H 0.614 0.7049 0.97981 0.0
C948 C 0.60026 0.67623 0.99058 0.0
C949 C 0.59798 0.65465 0.98723 0.0
C950 C 0.64069 0.68227 0.92538 0.0
C951 C 0.6227 0.67861 0.96012 0.0
C952 C 0.65194 0.69427 0.91104 0.0
C953 C 0.65778 0.71484 0.91596 0.0
C954 C 0.635 0.69094 0.94475 0.0
C955 C 0.65187 0.72292 0.93551 0.0
C956 C 0.6127 0.68823 0.97716 0.0
C957 C 0.60882 0.64556 0.97044 0.0
N958 N 0.64072 0.71099 0.94916 0.0
N959 N 0.62055 0.6576 0.95744 0.0
H960 H 0.60699 0.35258 0.21283 0.0
H961 H 0.49431 0.40366 0.1986 0.0
H962 H 0.55605 0.3372 0.25437 0.0
H963 H 0.5383 0.3953 0.1481 0.0
H964 H 0.51738 0.38303 0.22143 0.0
H965 H 0.58293 0.37293 0.19141 0.0
C966 C 0.59077 0.35364 0.21758 0.0
C967 C 0.58353 0.34312 0.23542 0.0
C968 C 0.52183 0.38565 0.2053 0.0
C969 C 0.55583 0.36642 0.21083 0.0
C970 C 0.50871 0.39738 0.19228 0.0
C971 C 0.51437 0.40118 0.1714 0.0
C972 C 0.54089 0.37805 0.19745 0.0
C973 C 0.53323 0.39272 0.16405 0.0
C974 C 0.577 0.36515 0.20524 0.0
C975 C 0.56228 0.34503 0.24071 0.0
N976 N 0.54587 0.38173 0.17709 0.0
N977 N 0.54914 0.3565 0.22848 0.0
H978 H 0.89952 0.35912 0.45348 0.0
H979 H 0.84166 0.24908 0.4433 0.0
H980 H 0.90978 0.30949 0.49806 0.0
H981 H 0.85217 0.29082 0.39131 0.0
H982 H 0.86353 0.27178 0.4653 0.0
H983 H 0.87834 0.33539 0.43245 0.0
C984 C 0.8972 0.34326 0.45896 0.0
C985 C 0.90648 0.3363 0.47759 0.0
C986 C 0.86112 0.27584 0.44903 0.0
C987 C 0.88217 0.30895 0.45345 0.0
C988 C 0.84867 0.2629 0.43647 0.0
C989 C 0.84509 0.26803 0.41541 0.0
C990 C 0.86972 0.29418 0.44054 0.0
C991 C 0.85453 0.28617 0.40742 0.0
C992 C 0.8852 0.32967 0.44684 0.0
C993 C 0.90295 0.31551 0.48379 0.0
N994 N 0.86623 0.29864 0.42001 0.0
N995 N 0.89101 0.30256 0.47178 0.0
H996 H 0.89646 0.64775 0.71042 0.0
H997 H 0.00508 0.58912 0.69333 0.0
H998 H 0.94845 0.65722 0.75242 0.0
H999 H 0.96187 0.60303 0.64339 0.0
H1000 H 0.98354 0.61024 0.71718 0.0
H1001 H 0.91892 0.62672 0.68791 0.0
C1002 C 0.91256 0.64525 0.71504 0.0
C1003 C 0.92058 0.65431 0.73336 0.0
C1004 C 0.97891 0.60872 0.70096 0.0
C1005 C 0.94644 0.63019 0.70751 0.0
C1006 C 0.99117 0.5967 0.68735 0.0
C1007 C 0.9853 0.59434 0.66631 0.0
C1008 C 0.96047 0.61807 0.69353 0.0
C1009 C 0.96708 0.60447 0.65943 0.0
C1010 C 0.92542 0.63335 0.70207 0.0
C1011 C 0.94163 0.65056 0.73843 0.0
N1012 N 0.95526 0.61571 0.67302 0.0
N1013 N 0.95386 0.63873 0.72559 0.0
H1014 H 0.59776 0.35795 0.53791 0.0
H1015 H 0.65188 0.2469 0.55373 0.0
H1016 H 0.58462 0.30635 0.49641 0.0
H1017 H 0.64124 0.29091 0.60379 0.0
H1018 H 0.63107 0.26926 0.53035 0.0
H1019 H 0.61848 0.33463 0.55979 0.0
C1020 C 0.59938 0.34174 0.53327 0.0
C1021 C 0.58938 0.33408 0.51531 0.0
C1022 C 0.63324 0.27387 0.5465 0.0
C1023 C 0.61311 0.30724 0.54042 0.0
C1024 C 0.64507 0.26115 0.55983 0.0
C1025 C 0.64827 0.26703 0.58076 0.0
C1026 C 0.62494 0.29273 0.55409 0.0
C1027 C 0.63914 0.28569 0.58783 0.0
C1028 C 0.61111 0.3284 0.54587 0.0
C1029 C 0.59202 0.31288 0.51016 0.0
N1030 N 0.62806 0.29793 0.57449 0.0
N1031 N 0.60369 0.30016 0.52265 0.0
H1032 H 0.8734 0.36877 0.78533 0.0
H1033 H 0.98904 0.41093 0.80843 0.0
H1034 H 0.92825 0.34959 0.751 0.0
H1035 H 0.93553 0.42765 0.84601 0.0
H1036 H 0.96637 0.39012 0.78599 0.0
H1037 H 0.89519 0.39231 0.8062 0.0
C1038 C 0.88999 0.36962 0.78205 0.0
C1039 C 0.89902 0.35712 0.7664 0.0
C1040 C 0.95953 0.39835 0.7991 0.0
C1041 C 0.92405 0.38395 0.79035 0.0
C1042 C 0.97248 0.41027 0.81194 0.0
C1043 C 0.96421 0.42097 0.82921 0.0
C1044 C 0.93804 0.39713 0.80342 0.0
C1045 C 0.94261 0.41952 0.83296 0.0
C1046 C 0.90243 0.38303 0.79403 0.0
C1047 C 0.9206 0.35889 0.76288 0.0
N1048 N 0.93026 0.4078 0.82017 0.0
N1049 N 0.93236 0.37197 0.77481 0.0
H1050 H 0.84919 0.70116 0.10875 0.0
H1051 H 0.90774 0.68548 0.99998 0.0
H1052 H 0.84001 0.74397 0.05738 0.0
H1053 H 0.89379 0.63487 0.04239 0.0
H1054 H 0.88643 0.70892 0.02173 0.0
H1055 H 0.86982 0.67868 0.08588 0.0
C1056 C 0.85165 0.70595 0.09269 0.0
C1057 C 0.84283 0.7245 0.08498 0.0
C1058 C 0.88796 0.69264 0.02613 0.0
C1059 C 0.86649 0.69872 0.05865 0.0
C1060 C 0.9001 0.67927 0.01376 0.0
C1061 C 0.90253 0.65817 0.01937 0.0
C1062 C 0.87857 0.68493 0.04443 0.0
C1063 C 0.8923 0.65097 0.0374 0.0
C1064 C 0.86332 0.69301 0.0796 0.0
C1065 C 0.8465 0.72979 0.06397 0.0
N1066 N 0.88096 0.66435 0.04937 0.0
N1067 N 0.85813 0.71699 0.05152 0.0
H1068 H 0.53785 0.60267 0.35969 0.0
H1069 H 0.55724 0.65972 0.25039 0.0
H1070 H 0.49778 0.59178 0.30647 0.0
H1071 H 0.60556 0.64917 0.2963 0.0
H1072 H 0.53316 0.63856 0.27161 0.0
H1073 H 0.56046 0.62421 0.33781 0.0
C1074 C 0.53367 0.60496 0.34343 0.0
C1075 C 0.51588 0.59534 0.3349 0.0
C1076 C 0.54907 0.64084 0.27693 0.0
C1077 C 0.54185 0.62003 0.3097 0.0
C1078 C 0.56281 0.65289 0.26485 0.0
C1079 C 0.58347 0.65618 0.27155 0.0
C1080 C 0.55597 0.63236 0.29599 0.0
C1081 C 0.58983 0.647 0.29045 0.0
C1082 C 0.5467 0.61716 0.33091 0.0
C1083 C 0.51136 0.59886 0.31368 0.0
N1084 N 0.57612 0.63567 0.30204 0.0
N1085 N 0.52425 0.61096 0.30178 0.0
H1086 H 0.70807 0.88653 0.66332 0.0
H1087 H 0.69222 0.99305 0.59996 0.0
H1088 H 0.74964 0.93913 0.67099 0.0
H1089 H 0.64319 0.94782 0.61019 0.0
H1090 H 0.71514 0.97272 0.62316 0.0
H1091 H 0.68599 0.90772 0.64057 0.0
C1092 C 0.71264 0.90252 0.66014 0.0
C1093 C 0.73076 0.91105 0.66912 0.0
C1094 C 0.69932 0.96735 0.62036 0.0
C1095 C 0.70542 0.93549 0.64296 0.0
C1096 C 0.68624 0.97892 0.60713 0.0
C1097 C 0.66572 0.97216 0.60313 0.0
C1098 C 0.69193 0.94872 0.62939 0.0
C1099 C 0.65884 0.95371 0.61284 0.0
C1100 C 0.69994 0.91466 0.64721 0.0
C1101 C 0.7358 0.93193 0.66444 0.0
N1102 N 0.67193 0.9426 0.62537 0.0
N1103 N 0.72323 0.94343 0.65161 0.0
H1104 H 0.23257 0.38935 0.2707 0.0
H1105 H 0.18053 0.28781 0.31833 0.0
H1106 H 0.2028 0.3418 0.23314 0.0
H1107 H 0.20675 0.33807 0.35491 0.0
H1108 H 0.18151 0.31047 0.2874 0.0
H1109 H 0.21639 0.37434 0.30178 0.0
C1110 C 0.2223 0.37599 0.26893 0.0
C1111 C 0.21938 0.3666 0.24933 0.0
C1112 C 0.18659 0.31669 0.30231 0.0
C1113 C 0.2011 0.349 0.28495 0.0
C1114 C 0.18591 0.30379 0.31998 0.0
C1115 C 0.19396 0.31096 0.33908 0.0
C1116 C 0.19543 0.33679 0.30386 0.0
C1117 C 0.20078 0.33178 0.34036 0.0
C1118 C 0.21307 0.36737 0.2867 0.0
C1119 C 0.2057 0.34944 0.24797 0.0
N1120 N 0.20168 0.34382 0.32294 0.0
N1121 N 0.19743 0.34092 0.2656 0.0
H1122 H 0.85725 0.99566 0.53086 0.0
H1123 H 0.90857 0.95434 0.61501 0.0
H1124 H 0.90109 0.96253 0.49168 0.0
H1125 H 0.95845 0.94188 0.57145 0.0
H1126 H 0.88446 0.95848 0.5859 0.0
H1127 H 0.87272 0.97946 0.56135 0.0
C1128 C 0.86982 0.98453 0.52863 0.0
C1129 C 0.87799 0.98066 0.50866 0.0
C1130 C 0.90064 0.95499 0.58252 0.0
C1131 C 0.89586 0.96153 0.54378 0.0
C1132 C 0.91436 0.95228 0.59922 0.0
C1133 C 0.93556 0.94811 0.59557 0.0
C1134 C 0.90835 0.95421 0.56195 0.0
C1135 C 0.94221 0.94521 0.5749 0.0
C1136 C 0.87865 0.97505 0.54616 0.0
C1137 C 0.89434 0.96609 0.50679 0.0
N1138 N 0.92872 0.94873 0.55881 0.0
N1139 N 0.90296 0.95735 0.52415 0.0
H1140 H 0.289 0.65911 0.86042 0.0
H1141 H 0.28505 0.6488 0.73656 0.0
H1142 H 0.31448 0.70543 0.81852 0.0
H1143 H 0.25496 0.60634 0.77959 0.0
H1144 H 0.30269 0.66555 0.76602 0.0
H1145 H 0.28373 0.63566 0.83091 0.0
C1146 C 0.29384 0.6642 0.845 0.0
C1147 C 0.30189 0.68437 0.84184 0.0
C1148 C 0.29249 0.65236 0.76897 0.0
C1149 C 0.29552 0.65768 0.80784 0.0
C1150 C 0.28244 0.64272 0.75215 0.0
C1151 C 0.2682 0.62632 0.75562 0.0
C1152 C 0.28831 0.64555 0.78941 0.0
C1153 C 0.26557 0.61908 0.77616 0.0
C1154 C 0.29078 0.6508 0.82813 0.0
C1155 C 0.30814 0.69004 0.8216 0.0
N1156 N 0.27531 0.62891 0.79227 0.0
N1157 N 0.30445 0.67689 0.80525 0.0
H1158 H 0.5972 0.04047 0.96817 0.0
H1159 H 0.58724 0.0551 0.0911 0.0
H1160 H 0.64173 0.01712 0.01325 0.0
H1161 H 0.54006 0.07523 0.04731 0.0
H1162 H 0.611 0.04852 0.06209 0.0
H1163 H 0.5799 0.06007 0.99598 0.0
C1164 C 0.60359 0.03973 0.98383 0.0
C1165 C 0.62076 0.02679 0.98843 0.0
C1166 C 0.5956 0.05471 0.05877 0.0
C1167 C 0.60091 0.04917 0.02036 0.0
C1168 C 0.58203 0.05853 0.07535 0.0
C1169 C 0.56154 0.06541 0.07156 0.0
C1170 C 0.58856 0.05749 0.03817 0.0
C1171 C 0.5557 0.06984 0.05089 0.0
C1172 C 0.59365 0.05093 0.99972 0.0
C1173 C 0.62839 0.02664 0.00899 0.0
N1174 N 0.56902 0.0654 0.03489 0.0
N1175 N 0.61825 0.03741 0.02423 0.0
H1176 H 0.18398 0.70907 0.17659 0.0
H1177 H 0.24327 0.60767 0.21781 0.0
H1178 H 0.21491 0.66395 0.13711 0.0
H1179 H 0.21346 0.65248 0.25856 0.0
H1180 H 0.22676 0.62453 0.18788 0.0
H1181 H 0.18833 0.68524 0.20637 0.0
C1182 C 0.19122 0.69397 0.17409 0.0
C1183 C 0.19941 0.68861 0.15446 0.0
C1184 C 0.22356 0.63052 0.20339 0.0
C1185 C 0.20462 0.66144 0.18833 0.0
C1186 C 0.23298 0.62084 0.22051 0.0
C1187 C 0.23005 0.62886 0.24072 0.0
C1188 C 0.2113 0.64851 0.20642 0.0
C1189 C 0.21636 0.64588 0.24325 0.0
C1190 C 0.19381 0.68041 0.19109 0.0
C1191 C 0.20869 0.66886 0.15207 0.0
N1192 N 0.20778 0.65536 0.22627 0.0
N1193 N 0.21127 0.65615 0.16883 0.0
H1194 H 0.60225 0.95482 0.51791 0.0
H1195 H 0.59429 0.95674 0.39368 0.0
H1196 H 0.64452 0.98818 0.47719 0.0
H1197 H 0.54762 0.92839 0.43326 0.0
H1198 H 0.6169 0.96126 0.42397 0.0
H1199 H 0.58626 0.93848 0.48726 0.0
C1200 C 0.60847 0.95842 0.50257 0.0
C1201 C 0.62459 0.97317 0.50013 0.0
C1202 C 0.60186 0.95375 0.42607 0.0
C1203 C 0.60623 0.95454 0.46499 0.0
C1204 C 0.58895 0.95111 0.40875 0.0
C1205 C 0.56893 0.94244 0.41103 0.0
C1206 C 0.59464 0.94796 0.44596 0.0
C1207 C 0.56292 0.93521 0.43085 0.0
C1208 C 0.59925 0.94911 0.48507 0.0
C1209 C 0.63199 0.97712 0.47986 0.0
N1210 N 0.57559 0.93848 0.44767 0.0
N1211 N 0.6226 0.96806 0.46309 0.0
H1212 H 0.29749 0.33404 0.64705 0.0
H1213 H 0.29365 0.33867 0.77103 0.0
H1214 H 0.31909 0.28406 0.68687 0.0
H1215 H 0.26828 0.386 0.7301 0.0
H1216 H 0.31041 0.32219 0.74096 0.0
H1217 H 0.29461 0.35671 0.6775 0.0
C1218 C 0.30202 0.32796 0.6622 0.0
C1219 C 0.3082 0.30704 0.66451 0.0
C1220 C 0.30147 0.33637 0.73862 0.0
C1221 C 0.30453 0.33283 0.69957 0.0
C1222 C 0.2919 0.34585 0.75579 0.0
C1223 C 0.27917 0.36356 0.75305 0.0
C1224 C 0.29828 0.34464 0.71854 0.0
C1225 C 0.27767 0.37222 0.73295 0.0
C1226 C 0.30033 0.34091 0.67961 0.0
C1227 C 0.31415 0.30007 0.68444 0.0
N1228 N 0.28685 0.3625 0.71644 0.0
N1229 N 0.31176 0.31283 0.70131 0.0
H1230 H 0.8922 0.03467 0.00874 0.0
H1231 H 0.90601 0.03186 0.88519 0.0
H1232 H 0.85284 0.99949 0.96663 0.0
H1233 H 0.94867 0.06379 0.92657 0.0
H1234 H 0.88223 0.02632 0.91437 0.0
H1235 H 0.90868 0.0515 0.97868 0.0
C1236 C 0.88673 0.03074 0.9932 0.0
C1237 C 0.87131 0.01535 0.99022 0.0
C1238 C 0.89663 0.03481 0.91709 0.0
C1239 C 0.89026 0.03452 0.95573 0.0
C1240 C 0.91023 0.03801 0.9004 0.0
C1241 C 0.9295 0.04802 0.90354 0.0
C1242 C 0.90241 0.04141 0.93719 0.0
C1243 C 0.93401 0.0559 0.92351 0.0
C1244 C 0.89621 0.04035 0.97604 0.0
C1245 C 0.86481 0.01106 0.96971 0.0
N1246 N 0.92071 0.0521 0.9397 0.0
N1247 N 0.8745 0.02038 0.95327 0.0
H1248 H 0.36509 0.19872 0.32493 0.0
H1249 H 0.28822 0.25005 0.38319 0.0
H1250 H 0.31959 0.2032 0.2754 0.0
H1251 H 0.24457 0.21887 0.34218 0.0
H1252 H 0.31707 0.23532 0.36292 0.0
H1253 H 0.33802 0.20834 0.35024 0.0
C1254 C 0.34944 0.20201 0.31939 0.0
C1255 C 0.34475 0.20091 0.29799 0.0
C1256 C 0.3012 0.23125 0.35868 0.0
C1257 C 0.3136 0.21155 0.3268 0.0
C1258 C 0.28469 0.23975 0.37021 0.0
C1259 C 0.26391 0.23569 0.36444 0.0
C1260 C 0.29688 0.21876 0.3411 0.0
C1261 C 0.26031 0.22237 0.34731 0.0
C1262 C 0.33399 0.20744 0.33383 0.0
C1263 C 0.32398 0.20418 0.29172 0.0
N1264 N 0.27662 0.21468 0.33606 0.0
N1265 N 0.30918 0.20942 0.30607 0.0
H1266 H 0.9997 0.03432 0.6449 0.0
H1267 H 0.04586 0.11464 0.59101 0.0
H1268 H 0.03646 0.99216 0.60713 0.0
H1269 H 0.06161 0.06769 0.54531 0.0
H1270 H 0.03898 0.08727 0.61649 0.0
H1271 H 0.01662 0.06369 0.62797 0.0
C1272 C 0.01174 0.03123 0.63339 0.0
C1273 C 0.01651 0.0107 0.62737 0.0
C1274 C 0.04378 0.08278 0.60092 0.0
C1275 C 0.03647 0.04452 0.60788 0.0
C1276 C 0.04806 0.09847 0.58644 0.0
C1277 C 0.05401 0.09337 0.56597 0.0
C1278 C 0.04485 0.06173 0.5947 0.0
C1279 C 0.05697 0.07225 0.56094 0.0
C1280 C 0.02162 0.04812 0.62374 0.0
C1281 C 0.03219 0.00772 0.61225 0.0
N1282 N 0.05199 0.05716 0.57512 0.0
N1283 N 0.04136 0.02443 0.60281 0.0
H1284 H 0.17926 0.81556 0.79582 0.0
H1285 H 0.22065 0.75378 0.89579 0.0
H1286 H 0.13985 0.78335 0.84011 0.0
H1287 H 0.26131 0.78459 0.85156 0.0
H1288 H 0.19068 0.77056 0.87925 0.0
H1289 H 0.20908 0.81047 0.81946 0.0
C1290 C 0.17679 0.80786 0.8107 0.0
C1291 C 0.15715 0.79956 0.81587 0.0
C1292 C 0.20618 0.77391 0.87333 0.0
C1293 C 0.19108 0.79352 0.84281 0.0
C1294 C 0.22333 0.76434 0.88283 0.0
C1295 C 0.24352 0.76748 0.87486 0.0
C1296 C 0.20917 0.78655 0.85559 0.0
C1297 C 0.24601 0.78151 0.85811 0.0
C1298 C 0.19381 0.80486 0.82414 0.0
C1299 C 0.15481 0.78968 0.83533 0.0
N1300 N 0.22901 0.79025 0.84881 0.0
N1301 N 0.17159 0.78672 0.84795 0.0
H1302 H 0.49184 0.9853 0.12973 0.0
H1303 H 0.43691 0.93375 0.03073 0.0
H1304 H 0.46354 0.02128 0.08011 0.0
H1305 H 0.46419 0.89909 0.0818 0.0
H1306 H 0.44055 0.96593 0.05131 0.0
H1307 H 0.47599 0.95377 0.11536 0.0
C1308 C 0.48203 0.98663 0.11599 0.0
C1309 C 0.4793 0.00593 0.10595 0.0
C1310 C 0.44538 0.95121 0.05814 0.0
C1311 C 0.46131 0.96976 0.08914 0.0
C1312 C 0.44319 0.93283 0.04644 0.0
C1313 C 0.45059 0.91379 0.05444 0.0
C1314 C 0.455 0.95044 0.07792 0.0
C1315 C 0.45862 0.9135 0.07487 0.0
C1316 C 0.47297 0.96859 0.10775 0.0
C1317 C 0.46623 0.0067 0.08829 0.0
N1318 N 0.46086 0.93155 0.08576 0.0
N1319 N 0.45801 0.98882 0.08024 0.0
H1320 H 0.32133 0.81736 0.20456 0.0
H1321 H 0.28166 0.75851 0.10223 0.0
H1322 H 0.36163 0.78794 0.15917 0.0
H1323 H 0.24017 0.78807 0.14653 0.0
H1324 H 0.31129 0.77506 0.1196 0.0
H1325 H 0.29176 0.81279 0.18048 0.0
C1326 C 0.32405 0.81042 0.18935 0.0
C1327 C 0.34387 0.80271 0.18398 0.0
C1328 C 0.29568 0.7782 0.12537 0.0
C1329 C 0.31024 0.79722 0.15653 0.0
C1330 C 0.27872 0.76875 0.11539 0.0
C1331 C 0.2584 0.77161 0.1231 0.0
C1332 C 0.29236 0.79042 0.14335 0.0
C1333 C 0.25559 0.78523 0.14015 0.0
C1334 C 0.30717 0.80769 0.17565 0.0
C1335 C 0.34653 0.79379 0.1641 0.0
N1336 N 0.2724 0.79384 0.14991 0.0
N1337 N 0.32989 0.79106 0.15124 0.0
H1338 H 0.49915 0.02503 0.36096 0.0
H1339 H 0.43307 0.05735 0.4614 0.0
H1340 H 0.46767 0.98053 0.40081 0.0
H1341 H 0.46431 0.10104 0.42052 0.0
H1342 H 0.44 0.02946 0.43602 0.0
H1343 H 0.48102 0.05333 0.37899 0.0
C1344 C 0.48817 0.02117 0.37326 0.0
C1345 C 0.48522 1.00037 0.37958 0.0
C1346 C 0.44501 0.04523 0.43247 0.0
C1347 C 0.46458 0.03277 0.40055 0.0
C1348 C 0.44097 0.06117 0.44691 0.0
C1349 C 0.44844 0.08147 0.44324 0.0
C1350 C 0.45659 0.04969 0.41429 0.0
C1351 C 0.45858 0.08554 0.42419 0.0
C1352 C 0.47783 0.03736 0.38361 0.0
C1353 C 0.47064 0.99634 0.39554 0.0
N1354 N 0.46259 0.06976 0.41059 0.0
N1355 N 0.46113 0.0124 0.4057 0.0
H1356 H 0.17385 0.18488 0.7081 0.0
H1357 H 0.22004 0.24441 0.60935 0.0
H1358 H 0.1365 0.21534 0.66089 0.0
H1359 H 0.25839 0.21132 0.65399 0.0
H1360 H 0.18906 0.22844 0.62478 0.0
H1361 H 0.20461 0.18866 0.68546 0.0
C1362 C 0.17202 0.19187 0.69278 0.0
C1363 C 0.15272 0.20015 0.6865 0.0
C1364 C 0.20427 0.22441 0.63104 0.0
C1365 C 0.1877 0.20477 0.66072 0.0
C1366 C 0.22199 0.23355 0.6222 0.0
C1367 C 0.24183 0.22949 0.63059 0.0
C1368 C 0.20635 0.21132 0.64859 0.0
C1369 C 0.24339 0.21509 0.64714 0.0
C1370 C 0.18958 0.19414 0.67991 0.0
C1371 C 0.15119 0.20909 0.66651 0.0
N1372 N 0.22585 0.20681 0.65583 0.0
N1373 N 0.16848 0.21142 0.65449 0.0
H1374 H 0.03669 0.89033 0.90795 0.0
H1375 H 0.03318 0.0139 0.89558 0.0
H1376 H 0.06308 0.93289 0.95315 0.0
H1377 H 0.00384 0.97031 0.85316 0.0
H1378 H 0.0508 0.98472 0.91278 0.0
H1379 H 0.03159 0.91939 0.88391 0.0
C1380 C 0.04176 0.9058 0.91267 0.0
C1381 C 0.05003 0.90928 0.93269 0.0
C1382 C 0.04079 0.98158 0.89949 0.0
C1383 C 0.04385 0.94278 0.90533 0.0
C1384 C 0.03073 0.99824 0.88959 0.0
C1385 C 0.01669 0.99454 0.87309 0.0
C1386 C 0.03677 0.96105 0.89287 0.0
C1387 C 0.0143 0.97392 0.86597 0.0
C1388 C 0.0388 0.92241 0.89893 0.0
C1389 C 0.05656 0.92956 0.93788 0.0
N1390 N 0.024 0.95796 0.87608 0.0
N1391 N 0.05296 0.94567 0.92441 0.0
H1392 H 0.27437 0.30379 0.20192 0.0
H1393 H 0.39111 0.26488 0.22386 0.0
H1394 H 0.32815 0.34255 0.18995 0.0
H1395 H 0.3399 0.25365 0.26617 0.0
H1396 H 0.36716 0.28435 0.20074 0.0
H1397 H 0.29777 0.27592 0.21438 0.0
C1398 C 0.29113 0.30605 0.20103 0.0
C1399 C 0.29944 0.32535 0.19481 0.0
C1400 C 0.36116 0.27722 0.21489 0.0
C1401 C 0.32608 0.29382 0.20902 0.0
C1402 C 0.37473 0.26613 0.22799 0.0
C1403 C 0.3674 0.25795 0.24694 0.0
C1404 C 0.34009 0.27954 0.22059 0.0
C1405 C 0.34611 0.25999 0.25174 0.0
C1406 C 0.30442 0.29029 0.20835 0.0
C1407 C 0.32123 0.32778 0.19451 0.0
N1408 N 0.33317 0.27062 0.23866 0.0
N1409 N 0.33384 0.31223 0.20166 0.0
H1410 H 0.7935 0.18202 0.81428 0.0
H1411 H 0.89094 0.2317 0.75479 0.0
H1412 H 0.83931 0.14695 0.77932 0.0
H1413 H 0.84249 0.26824 0.78438 0.0
H1414 H 0.87673 0.20036 0.77119 0.0
H1415 H 0.81553 0.21324 0.81088 0.0
C1416 C 0.8084 0.18077 0.80634 0.0
C1417 C 0.81444 0.16199 0.79674 0.0
C1418 C 0.86938 0.21528 0.77437 0.0
C1419 C 0.83956 0.19752 0.79267 0.0
C1420 C 0.87754 0.23322 0.76503 0.0
C1421 C 0.86766 0.25259 0.76785 0.0
C1422 C 0.85109 0.21666 0.78647 0.0
C1423 C 0.85046 0.25359 0.78151 0.0
C1424 C 0.82092 0.1986 0.8043 0.0
C1425 C 0.83389 0.16122 0.78663 0.0
N1426 N 0.8425 0.23582 0.79002 0.0
N1427 N 0.84561 0.17878 0.78464 0.0
H1428 H 0.02399 0.64041 0.01501 0.0
H1429 H 0.06799 0.53498 0.06236 0.0
H1430 H 0.98447 0.58968 0.03558 0.0
H1431 H 0.10602 0.58846 0.04675 0.0
H1432 H 0.03675 0.55701 0.05961 0.0
H1433 H 0.05345 0.62416 0.03293 0.0
C1434 C 0.02142 0.62602 0.02357 0.0
C1435 C 0.0018 0.61623 0.02346 0.0
C1436 C 0.05197 0.56404 0.05729 0.0
C1437 C 0.0356 0.5973 0.04381 0.0
C1438 C 0.06982 0.55149 0.05903 0.0
C1439 C 0.08956 0.55983 0.05438 0.0
C1440 C 0.054 0.58497 0.05079 0.0
C1441 C 0.09104 0.58131 0.05007 0.0
C1442 C 0.03827 0.61672 0.03384 0.0
C1443 C 0.99938 0.59769 0.03503 0.0
N1444 N 0.07349 0.59303 0.04801 0.0
N1445 N 0.01616 0.58862 0.04441 0.0
H1446 H 0.60841 0.77981 0.25426 0.0
H1447 H 0.66267 0.86108 0.29771 0.0
H1448 H 0.64928 0.73832 0.28838 0.0
H1449 H 0.71041 0.81523 0.31032 0.0
H1450 H 0.6374 0.83311 0.29266 0.0
H1451 H 0.62526 0.80944 0.27076 0.0
C1452 C 0.62061 0.77691 0.26565 0.0
C1453 C 0.62752 0.75652 0.26976 0.0
C1454 C 0.65336 0.82899 0.29638 0.0
C1455 C 0.64695 0.79062 0.28923 0.0
C1456 C 0.66773 0.84502 0.29963 0.0
C1457 C 0.68868 0.8404 0.30413 0.0
C1458 C 0.66015 0.8081 0.29697 0.0
C1459 C 0.69439 0.81942 0.30678 0.0
C1460 C 0.63022 0.79394 0.2753 0.0
C1461 C 0.64347 0.75377 0.28464 0.0
N1462 N 0.68027 0.80399 0.30276 0.0
N1463 N 0.65286 0.77063 0.29356 0.0
H1464 H 0.01152 0.90133 0.03447 0.0
H1465 H 0.88744 0.90786 0.03843 0.0
H1466 H 0.96974 0.85699 0.00534 0.0
H1467 H 0.92791 0.95607 0.06266 0.0
H1468 H 0.91763 0.88516 0.0338 0.0
H1469 H 0.9816 0.91748 0.05189 0.0
C1470 C 0.99612 0.89471 0.03203 0.0
C1471 C 0.99311 0.87796 0.01811 0.0
C1472 C 0.91995 0.90057 0.04045 0.0
C1473 C 0.95881 0.89649 0.03797 0.0
C1474 C 0.90269 0.91353 0.04315 0.0
C1475 C 0.90524 0.93399 0.05064 0.0
C1476 C 0.94002 0.90818 0.04497 0.0
C1477 C 0.9253 0.94043 0.05675 0.0
C1478 C 0.97904 0.90401 0.04196 0.0
C1479 C 0.97281 0.87003 0.01569 0.0
N1480 N 0.94203 0.92769 0.0534 0.0
N1481 N 0.95643 0.87952 0.0253 0.0
H1482 H 0.20373 0.68018 0.68332 0.0
H1483 H 0.10255 0.72023 0.74372 0.0
H1484 H 0.15874 0.64017 0.71376 0.0
H1485 H 0.14772 0.76152 0.71519 0.0
H1486 H 0.11914 0.6907 0.72625 0.0
H1487 H 0.17989 0.70986 0.6882 0.0
C1488 C 0.18864 0.67755 0.69055 0.0
C1489 C 0.18334 0.65779 0.69847 0.0
C1490 C 0.12526 0.70626 0.72354 0.0
C1491 C 0.15616 0.69155 0.70428 0.0
C1492 C 0.11574 0.72316 0.7335 0.0
C1493 C 0.12396 0.74336 0.73124 0.0
C1494 C 0.1433 0.70951 0.7114 0.0
C1495 C 0.14098 0.74619 0.71761 0.0
C1496 C 0.17509 0.69449 0.69345 0.0
C1497 C 0.16361 0.65523 0.70775 0.0
N1498 N 0.15031 0.7294 0.70849 0.0
N1499 N 0.15089 0.67194 0.71063 0.0
H1500 H 0.98982 0.39966 0.46099 0.0
H1501 H 0.11379 0.4098 0.46382 0.0
H1502 H 0.0309 0.35794 0.49462 0.0
H1503 H 0.07353 0.45524 0.43441 0.0
H1504 H 0.08391 0.38668 0.46845 0.0
H1505 H 0.02031 0.41601 0.44479 0.0
C1506 C 0.00521 0.39364 0.46469 0.0
C1507 C 0.00779 0.37758 0.47948 0.0
C1508 C 0.08159 0.40156 0.4607 0.0
C1509 C 0.04276 0.39637 0.46103 0.0
C1510 C 0.09867 0.41478 0.45802 0.0
C1511 C 0.09606 0.43462 0.449 0.0
C1512 C 0.06162 0.40828 0.45457 0.0
C1513 C 0.07619 0.44012 0.44153 0.0
C1514 C 0.02262 0.40306 0.45546 0.0
C1515 C 0.02813 0.37041 0.48352 0.0
N1516 N 0.05961 0.42715 0.44482 0.0
N1517 N 0.04481 0.38003 0.47455 0.0
H1518 H 0.43334 0.53876 0.93682 0.0
H1519 H 0.47402 0.64084 0.99498 0.0
H1520 H 0.39351 0.58631 0.96332 0.0
H1521 H 0.51487 0.5933 0.9699 0.0
H1522 H 0.44474 0.62475 0.97658 0.0
H1523 H 0.46349 0.56198 0.94177 0.0
C1524 C 0.43087 0.55427 0.94316 0.0
C1525 C 0.411 0.5605 0.95003 0.0
C1526 C 0.46017 0.618 0.97483 0.0
C1527 C 0.44527 0.58696 0.95595 0.0
C1528 C 0.47692 0.62722 0.98533 0.0
C1529 C 0.49687 0.61819 0.98433 0.0
C1530 C 0.46332 0.59947 0.96342 0.0
C1531 C 0.4997 0.60065 0.97137 0.0
C1532 C 0.44807 0.56747 0.94611 0.0
C1533 C 0.40864 0.58074 0.95818 0.0
N1534 N 0.48305 0.59165 0.96172 0.0
N1535 N 0.42559 0.59311 0.96117 0.0
H1536 H 0.72912 0.79753 0.85902 0.0
H1537 H 0.71199 0.85887 0.75365 0.0
H1538 H 0.66721 0.8065 0.83417 0.0
H1539 H 0.76353 0.87224 0.79515 0.0
H1540 H 0.69541 0.83846 0.78154 0.0
H1541 H 0.74258 0.82323 0.83433 0.0
C1542 C 0.71821 0.80552 0.84893 0.0
C1543 C 0.69684 0.80079 0.84947 0.0
C1544 C 0.71019 0.84614 0.7846 0.0
C1545 C 0.71236 0.82914 0.81999 0.0
C1546 C 0.71966 0.85781 0.76872 0.0
C1547 C 0.73923 0.86724 0.77204 0.0
C1548 C 0.72056 0.84353 0.80376 0.0
C1549 C 0.74843 0.8653 0.79188 0.0
C1550 C 0.72597 0.81993 0.83453 0.0
C1551 C 0.68374 0.81012 0.83454 0.0
N1552 N 0.73919 0.8534 0.80686 0.0
N1553 N 0.69172 0.82384 0.82032 0.0
H1554 H 0.40374 0.44924 0.11675 0.0
H1555 H 0.35515 0.4952 0.03345 0.0
H1556 H 0.45337 0.4359 0.07316 0.0
H1557 H 0.39713 0.46037 0.99369 0.0
H1558 H 0.36973 0.47762 0.06367 0.0
H1559 H 0.37997 0.45502 0.08761 0.0
C1560 C 0.40952 0.4473 0.10093 0.0
C1561 C 0.43057 0.44244 0.09727 0.0
C1562 C 0.37539 0.47318 0.04839 0.0
C1563 C 0.40384 0.4504 0.06373 0.0
C1564 C 0.3671 0.48345 0.03103 0.0
C1565 C 0.37505 0.47946 0.011 0.0
C1566 C 0.39181 0.45875 0.04573 0.0
C1567 C 0.3906 0.46408 0.00886 0.0
C1568 C 0.39603 0.45096 0.08425 0.0
C1569 C 0.43724 0.43974 0.07659 0.0
N1570 N 0.3987 0.45455 0.02604 0.0
N1571 N 0.424 0.44419 0.06054 0.0
H1572 H 0.81511 0.20394 0.3212 0.0
H1573 H 0.74926 0.1073 0.27797 0.0
H1574 H 0.78008 0.16114 0.35986 0.0
H1575 H 0.78486 0.14875 0.23829 0.0
H1576 H 0.76542 0.12342 0.30853 0.0
H1577 H 0.8093 0.18073 0.29117 0.0
C1578 C 0.8066 0.18947 0.32347 0.0
C1579 C 0.79779 0.18463 0.34296 0.0
C1580 C 0.76993 0.12882 0.29313 0.0
C1581 C 0.79091 0.15817 0.30878 0.0
C1582 C 0.76072 0.11956 0.27564 0.0
C1583 C 0.76545 0.12686 0.25551 0.0
C1584 C 0.78383 0.14566 0.29052 0.0
C1585 C 0.78055 0.14272 0.25351 0.0
C1586 C 0.80319 0.17628 0.30632 0.0
C1587 C 0.78686 0.16569 0.34503 0.0
N1588 N 0.78896 0.15181 0.2708 0.0
N1589 N 0.78353 0.15332 0.32813 0.0
H1590 H 0.04906 0.56693 0.56959 0.0
H1591 H 0.14913 0.50395 0.5302 0.0
H1592 H 0.09175 0.53355 0.60978 0.0
H1593 H 0.10607 0.53527 0.48868 0.0
H1594 H 0.13215 0.52087 0.55986 0.0
H1595 H 0.07336 0.56171 0.54032 0.0
C1596 C 0.06375 0.55896 0.57236 0.0
C1597 C 0.06826 0.55037 0.59203 0.0
C1598 C 0.12658 0.52429 0.54424 0.0
C1599 C 0.09595 0.54418 0.55874 0.0
C1600 C 0.13633 0.51465 0.52727 0.0
C1601 C 0.12882 0.51789 0.50692 0.0
C1602 C 0.10904 0.53712 0.5409 0.0
C1603 C 0.11227 0.53209 0.50411 0.0
C1604 C 0.07756 0.55587 0.55565 0.0
C1605 C 0.08748 0.54013 0.59477 0.0
N1606 N 0.10271 0.54091 0.52092 0.0
N1607 N 0.10046 0.53711 0.57829 0.0
H1608 H 0.69329 0.15721 0.63614 0.0
H1609 H 0.74253 0.10712 0.71616 0.0
H1610 H 0.68442 0.20729 0.68032 0.0
H1611 H 0.71274 0.15076 0.75814 0.0
H1612 H 0.72306 0.12198 0.68735 0.0
H1613 H 0.69953 0.13316 0.66495 0.0
C1614 C 0.69236 0.16302 0.65203 0.0
C1615 C 0.68864 0.18425 0.65593 0.0
C1616 C 0.7201 0.12799 0.70286 0.0
C1617 C 0.69735 0.15721 0.68903 0.0
C1618 C 0.73148 0.11953 0.7194 0.0
C1619 C 0.72949 0.12784 0.73958 0.0
C1620 C 0.70656 0.14497 0.70647 0.0
C1621 C 0.7149 0.14394 0.7428 0.0
C1622 C 0.69633 0.14937 0.66852 0.0
C1623 C 0.68732 0.191 0.67672 0.0
N1624 N 0.70427 0.15222 0.72636 0.0
N1625 N 0.69214 0.1776 0.69252 0.0
H1626 H 0.04851 0.42996 0.91513 0.0
H1627 H 0.1287 0.51591 0.95858 0.0
H1628 H 0.06064 0.48896 0.88509 0.0
H1629 H 0.10528 0.46496 0.99622 0.0
H1630 H 0.10841 0.50282 0.92902 0.0
H1631 H 0.07278 0.43982 0.94318 0.0
C1632 C 0.05658 0.44483 0.91422 0.0
C1633 C 0.05322 0.45833 0.89725 0.0
C1634 C 0.10786 0.4944 0.9437 0.0
C1635 C 0.08094 0.4697 0.9292 0.0
C1636 C 0.11959 0.50177 0.96057 0.0
C1637 C 0.11863 0.49161 0.98001 0.0
C1638 C 0.09512 0.47668 0.9462 0.0
C1639 C 0.10645 0.47337 0.98158 0.0
C1640 C 0.07042 0.45043 0.93021 0.0
C1641 C 0.06371 0.47757 0.89709 0.0
N1642 N 0.09507 0.46657 0.96494 0.0
N1643 N 0.07713 0.48266 0.91275 0.0
H1644 H 0.78968 0.84777 0.26262 0.0
H1645 H 0.78897 0.83574 0.13878 0.0
H1646 H 0.75781 0.88952 0.22019 0.0
H1647 H 0.81549 0.78971 0.18035 0.0
H1648 H 0.78474 0.85952 0.16819 0.0
H1649 H 0.80598 0.83046 0.23272 0.0
C1650 C 0.78639 0.85358 0.24705 0.0
C1651 C 0.77206 0.86996 0.24392 0.0
C1652 C 0.79178 0.84436 0.17091 0.0
C1653 C 0.79065 0.85008 0.20963 0.0
C1654 C 0.79425 0.83077 0.15409 0.0
C1655 C 0.8023 0.8106 0.1572 0.0
C1656 C 0.79714 0.83768 0.19111 0.0
C1657 C 0.80914 0.8051 0.17731 0.0
C1658 C 0.79569 0.84362 0.22999 0.0
C1659 C 0.76854 0.87683 0.22338 0.0
N1660 N 0.80604 0.81845 0.19362 0.0
N1661 N 0.77757 0.8667 0.20704 0.0
H1662 H 0.35061 0.50262 0.46824 0.0
H1663 H 0.45039 0.56553 0.428 0.0
H1664 H 0.39369 0.53441 0.5094 0.0
H1665 H 0.40688 0.53297 0.388 0.0
H1666 H 0.4265 0.56007 0.45755 0.0
H1667 H 0.36747 0.51935 0.4384 0.0
C1668 C 0.36339 0.51338 0.47106 0.0
C1669 C 0.37093 0.51682 0.49136 0.0
C1670 C 0.42204 0.55445 0.44221 0.0
C1671 C 0.39058 0.53585 0.45717 0.0
C1672 C 0.43563 0.55767 0.42534 0.0
C1673 C 0.43076 0.54939 0.40562 0.0
C1674 C 0.40352 0.54293 0.43924 0.0
C1675 C 0.41144 0.5393 0.40303 0.0
C1676 C 0.37307 0.52292 0.45398 0.0
C1677 C 0.38747 0.53109 0.49401 0.0
N1678 N 0.39868 0.53614 0.41967 0.0
N1679 N 0.39695 0.53981 0.4771 0.0
H1680 H 0.7823 0.75335 0.89039 0.0
H1681 H 0.82542 0.68393 0.79692 0.0
H1682 H 0.74237 0.71432 0.85243 0.0
H1683 H 0.86445 0.71652 0.84128 0.0
H1684 H 0.79506 0.69078 0.81941 0.0
H1685 H 0.81276 0.73642 0.87503 0.0
C1686 C 0.77992 0.74105 0.879 0.0
C1687 C 0.75973 0.73545 0.87254 0.0
C1688 C 0.81035 0.69607 0.82439 0.0
C1689 C 0.79463 0.7161 0.85459 0.0
C1690 C 0.82769 0.69204 0.81161 0.0
C1691 C 0.84739 0.69997 0.81709 0.0
C1692 C 0.81286 0.7081 0.84265 0.0
C1693 C 0.84946 0.71045 0.83627 0.0
C1694 C 0.79734 0.73133 0.87022 0.0
C1695 C 0.75764 0.71922 0.85783 0.0
N1696 N 0.83239 0.71445 0.84818 0.0
N1697 N 0.77488 0.71035 0.84911 0.0
H1698 H 0.5327 0.48285 0.11165 0.0
H1699 H 0.53168 0.60613 0.09557 0.0
H1700 H 0.49654 0.52593 0.149 0.0
H1701 H 0.56444 0.56359 0.05473 0.0
H1702 H 0.52502 0.57745 0.1197 0.0
H1703 H 0.55038 0.51245 0.09528 0.0
C1704 C 0.52871 0.49852 0.1167 0.0
C1705 C 0.51281 0.5019 0.13151 0.0
C1706 C 0.53393 0.57438 0.10563 0.0
C1707 C 0.53298 0.53587 0.11268 0.0
C1708 C 0.53777 0.59076 0.09184 0.0
C1709 C 0.54834 0.58715 0.07295 0.0
C1710 C 0.54048 0.5541 0.10044 0.0
C1711 C 0.55613 0.56702 0.06907 0.0
C1712 C 0.53882 0.51542 0.10729 0.0
C1713 C 0.50849 0.52255 0.13751 0.0
N1714 N 0.55171 0.55113 0.08254 0.0
N1715 N 0.51832 0.53874 0.12788 0.0
H1716 H 0.67966 0.31717 0.29898 0.0
H1717 H 0.72048 0.25603 0.39944 0.0
H1718 H 0.64025 0.284 0.34255 0.0
H1719 H 0.76126 0.28569 0.35454 0.0
H1720 H 0.69066 0.27324 0.38307 0.0
H1721 H 0.70917 0.31281 0.32314 0.0
C1722 C 0.67711 0.30943 0.31382 0.0
C1723 C 0.65762 0.3006 0.31862 0.0
C1724 C 0.70617 0.27626 0.37698 0.0
C1725 C 0.69116 0.29541 0.34616 0.0
C1726 C 0.72323 0.26645 0.38638 0.0
C1727 C 0.74338 0.26907 0.37811 0.0
C1728 C 0.70922 0.28862 0.35905 0.0
C1729 C 0.74598 0.28296 0.36127 0.0
C1730 C 0.69395 0.30684 0.32756 0.0
C1731 C 0.65514 0.29071 0.33806 0.0
N1732 N 0.72905 0.29192 0.35206 0.0
N1733 N 0.67175 0.28816 0.35097 0.0
H1734 H 0.99176 0.47196 0.64341 0.0
H1735 H 0.93524 0.43454 0.53908 0.0
H1736 H 0.96734 0.51455 0.59707 0.0
H1737 H 0.95966 0.39325 0.5865 0.0
H1738 H 0.94034 0.46416 0.563 0.0
H1739 H 0.97372 0.44328 0.62593 0.0
C1740 C 0.98233 0.47535 0.62975 0.0
C1741 C 0.98137 0.49565 0.62152 0.0
C1742 C 0.94418 0.44855 0.5683 0.0
C1743 C 0.96089 0.46277 0.60115 0.0
C1744 C 0.94114 0.43165 0.5547 0.0
C1745 C 0.94737 0.41151 0.56073 0.0
C1746 C 0.95346 0.44515 0.58798 0.0
C1747 C 0.955 0.4086 0.5811 0.0
C1748 C 0.97203 0.45895 0.61973 0.0
C1749 C 0.96872 0.49911 0.60386 0.0
N1750 N 0.95808 0.42524 0.59386 0.0
N1751 N 0.95928 0.48278 0.59405 0.0
H1752 H 0.8514 0.29263 0.6587 0.0
H1753 H 0.72794 0.28644 0.6441 0.0
H1754 H 0.8074 0.31971 0.7021 0.0
H1755 H 0.77265 0.25282 0.60629 0.0
H1756 H 0.7567 0.30517 0.66081 0.0
H1757 H 0.82275 0.28492 0.63485 0.0
C1758 C 0.8357 0.29727 0.66307 0.0
C1759 C 0.83172 0.30651 0.68258 0.0
C1760 C 0.76019 0.29393 0.64864 0.0
C1761 C 0.79875 0.29744 0.65538 0.0
C1762 C 0.74377 0.28323 0.63902 0.0
C1763 C 0.74788 0.26776 0.62395 0.0
C1764 C 0.78087 0.28916 0.64314 0.0
C1765 C 0.76872 0.26442 0.61797 0.0
C1766 C 0.81934 0.29282 0.64944 0.0
C1767 C 0.81114 0.31245 0.68727 0.0
N1768 N 0.78443 0.27485 0.62775 0.0
N1769 N 0.79533 0.30749 0.6739 0.0
H1770 H 0.93895 0.56293 0.9516 0.0
H1771 H 0.00365 0.54678 0.84795 0.0
H1772 H 0.95738 0.61324 0.91065 0.0
H1773 H 0.97462 0.4958 0.88136 0.0
H1774 H 0.98203 0.57134 0.86768 0.0
H1775 H 0.94696 0.5379 0.9236 0.0
C1776 C 0.94403 0.56871 0.9365 0.0
C1777 C 0.9478 0.59007 0.93344 0.0
C1778 C 0.98011 0.55475 0.87045 0.0
C1779 C 0.95727 0.56176 0.90161 0.0
C1780 C 0.99246 0.54075 0.85914 0.0
C1781 C 0.99119 0.51929 0.86325 0.0
C1782 C 0.9668 0.54722 0.88629 0.0
C1783 C 0.97625 0.51227 0.87779 0.0
C1784 C 0.94873 0.55446 0.92056 0.0
C1785 C 0.95459 0.59681 0.9137 0.0
N1786 N 0.96498 0.52622 0.88913 0.0
N1787 N 0.95941 0.5827 0.89866 0.0
H1788 H 0.63784 0.6992 0.1614 0.0
H1789 H 0.71895 0.74179 0.10635 0.0
H1790 H 0.68341 0.68915 0.21002 0.0
H1791 H 0.76054 0.71012 0.14905 0.0
H1792 H 0.68944 0.72528 0.12337 0.0
H1793 H 0.66598 0.70358 0.13619 0.0
C1794 C 0.65388 0.69769 0.16667 0.0
C1795 C 0.65837 0.69412 0.18783 0.0
C1796 C 0.70495 0.72126 0.12871 0.0
C1797 C 0.69083 0.70054 0.15933 0.0
C1798 C 0.72192 0.73092 0.11899 0.0
C1799 C 0.74228 0.72754 0.12637 0.0
C1800 C 0.70832 0.70806 0.14602 0.0
C1801 C 0.74511 0.7133 0.14288 0.0
C1802 C 0.67 0.70056 0.15232 0.0
C1803 C 0.67933 0.69196 0.19383 0.0
N1804 N 0.7283 0.70437 0.15236 0.0
N1805 N 0.69483 0.69563 0.17971 0.0
H1806 H 0.50268 0.47069 0.35068 0.0
H1807 H 0.56288 0.42926 0.4515 0.0
H1808 H 0.53172 0.51124 0.3962 0.0
H1809 H 0.5303 0.39009 0.40726 0.0
H1810 H 0.55856 0.45897 0.42759 0.0
H1811 H 0.5197 0.44079 0.36711 0.0
C1812 C 0.51292 0.47337 0.36391 0.0
C1813 C 0.51543 0.49348 0.3723 0.0
C1814 C 0.55271 0.44377 0.42297 0.0
C1815 C 0.53476 0.45922 0.39142 0.0
C1816 C 0.55527 0.42681 0.43656 0.0
C1817 C 0.5466 0.40731 0.43149 0.0
C1818 C 0.54148 0.44109 0.40424 0.0
C1819 C 0.53689 0.40496 0.41195 0.0
C1820 C 0.52261 0.45626 0.37333 0.0
C1821 C 0.5291 0.49599 0.38935 0.0
N1822 N 0.53437 0.42169 0.39918 0.0
N1823 N 0.53795 0.47902 0.39857 0.0
H1824 H 0.7968 0.81778 0.69381 0.0
H1825 H 0.90225 0.77883 0.74627 0.0
H1826 H 0.84458 0.85859 0.71838 0.0
H1827 H 0.85695 0.73715 0.71852 0.0
H1828 H 0.88444 0.80833 0.72995 0.0
H1829 H 0.82134 0.78839 0.69632 0.0
C1830 C 0.8126 0.82065 0.69919 0.0
C1831 C 0.81855 0.84054 0.70626 0.0
C1832 C 0.87856 0.7927 0.72712 0.0
C1833 C 0.84655 0.8071 0.70946 0.0
C1834 C 0.88879 0.77582 0.73643 0.0
C1835 C 0.88089 0.7555 0.7341 0.0
C1836 C 0.86013 0.7893 0.71562 0.0
C1837 C 0.86347 0.75258 0.72099 0.0
C1838 C 0.82658 0.80387 0.70075 0.0
C1839 C 0.83921 0.84341 0.71313 0.0
N1840 N 0.85344 0.76931 0.71257 0.0
N1841 N 0.85232 0.82684 0.71485 0.0
H1842 H 0.33974 0.63868 0.29441 0.0
H1843 H 0.39523 0.71986 0.2521 0.0
H1844 H 0.29207 0.68469 0.30664 0.0
H1845 H 0.35302 0.76141 0.28445 0.0
H1846 H 0.37818 0.6903 0.26848 0.0
H1847 H 0.36512 0.66654 0.28948 0.0
C1848 C 0.33471 0.65475 0.29625 0.0
C1849 C 0.31375 0.65944 0.30063 0.0
C1850 C 0.37293 0.7058 0.27267 0.0
C1851 C 0.34244 0.69166 0.29362 0.0
C1852 C 0.38269 0.7228 0.26309 0.0
C1853 C 0.37547 0.74318 0.2667 0.0
C1854 C 0.35575 0.70914 0.28604 0.0
C1855 C 0.35908 0.74597 0.28108 0.0
C1856 C 0.34915 0.67074 0.29308 0.0
C1857 C 0.30809 0.68045 0.30319 0.0
N1858 N 0.34957 0.72913 0.28995 0.0
N1859 N 0.32228 0.69583 0.29925 0.0
H1860 H 0.52585 0.1334 0.51486 0.0
H1861 H 0.61009 0.08119 0.55575 0.0
H1862 H 0.48681 0.08824 0.54635 0.0
H1863 H 0.56658 0.03108 0.56745 0.0
H1864 H 0.58097 0.10517 0.55116 0.0
H1865 H 0.55638 0.11758 0.53074 0.0
C1866 C 0.52365 0.12046 0.52557 0.0
C1867 C 0.50371 0.11207 0.52907 0.0
C1868 C 0.57759 0.08897 0.55458 0.0
C1869 C 0.53886 0.09374 0.5478 0.0
C1870 C 0.5943 0.07532 0.55755 0.0
C1871 C 0.59069 0.05409 0.56168 0.0
C1872 C 0.55704 0.0812 0.55509 0.0
C1873 C 0.57 0.04734 0.5642 0.0
C1874 C 0.5412 0.1114 0.53484 0.0
C1875 C 0.50189 0.09519 0.54305 0.0
N1876 N 0.55392 0.06079 0.56047 0.0
N1877 N 0.51924 0.0864 0.55163 0.0
H1878 H 0.16541 0.36245 0.79457 0.0
H1879 H 0.10445 0.28572 0.75069 0.0
H1880 H 0.20562 0.31201 0.81413 0.0
H1881 H 0.13967 0.24151 0.78757 0.0
H1882 H 0.12307 0.31406 0.76747 0.0
H1883 H 0.13774 0.33742 0.78754 0.0
C1884 C 0.16833 0.34601 0.79748 0.0
C1885 C 0.18793 0.33924 0.80459 0.0
C1886 C 0.12643 0.29831 0.77252 0.0
C1887 C 0.15662 0.31012 0.7954 0.0
C1888 C 0.11574 0.28199 0.76275 0.0
C1889 C 0.12061 0.26115 0.76752 0.0
C1890 C 0.14217 0.29381 0.78727 0.0
C1891 C 0.13548 0.25733 0.78325 0.0
C1892 C 0.15257 0.33161 0.79316 0.0
C1893 C 0.19075 0.31787 0.80853 0.0
N1894 N 0.14593 0.27347 0.79231 0.0
N1895 N 0.17538 0.30401 0.80352 0.0
H1896 H 0.42681 0.45585 0.56448 0.0
H1897 H 0.46628 0.3541 0.50487 0.0
H1898 H 0.38642 0.40951 0.53668 0.0
H1899 H 0.50786 0.39978 0.53214 0.0
H1900 H 0.43702 0.37066 0.52283 0.0
H1901 H 0.45662 0.43223 0.55933 0.0
C1902 C 0.42414 0.44052 0.5578 0.0
C1903 C 0.40423 0.43475 0.55065 0.0
C1904 C 0.45258 0.37691 0.52515 0.0
C1905 C 0.4381 0.40783 0.54451 0.0
C1906 C 0.46932 0.36741 0.51489 0.0
C1907 C 0.48951 0.37577 0.51668 0.0
C1908 C 0.45598 0.39506 0.53709 0.0
C1909 C 0.49252 0.39294 0.53009 0.0
C1910 C 0.44115 0.42709 0.55474 0.0
C1911 C 0.40161 0.41473 0.54206 0.0
N1912 N 0.47588 0.40224 0.53949 0.0
N1913 N 0.41837 0.40214 0.53898 0.0
H1914 H 0.60658 0.22062 0.24399 0.0
H1915 H 0.65947 0.142 0.19508 0.0
H1916 H 0.65047 0.26363 0.21608 0.0
H1917 H 0.70978 0.18656 0.19029 0.0
H1918 H 0.63501 0.17054 0.20101 0.0
H1919 H 0.62296 0.19217 0.22512 0.0
C1920 C 0.61936 0.22416 0.23347 0.0
C1921 C 0.62725 0.24454 0.23182 0.0
C1922 C 0.65135 0.17423 0.19877 0.0
C1923 C 0.64613 0.21187 0.20961 0.0
C1924 C 0.66527 0.15792 0.19499 0.0
C1925 C 0.68665 0.16199 0.1925 0.0
C1926 C 0.65903 0.19472 0.20077 0.0
C1927 C 0.69338 0.18283 0.19222 0.0
C1928 C 0.62869 0.20783 0.22244 0.0
C1929 C 0.64392 0.24814 0.21794 0.0
N1930 N 0.67965 0.19844 0.19678 0.0
N1931 N 0.65302 0.23191 0.20766 0.0
H1932 H 0.53646 0.85682 0.9973 0.0
H1933 H 0.61855 0.91045 0.95396 0.0
H1934 H 0.49615 0.89215 0.95629 0.0
H1935 H 0.57159 0.95152 0.92848 0.0
H1936 H 0.59174 0.88457 0.96119 0.0
H1937 H 0.5666 0.87232 0.98054 0.0
C1938 C 0.53396 0.86748 0.98438 0.0
C1939 C 0.51369 0.87334 0.97841 0.0
C1940 C 0.58705 0.8992 0.95419 0.0
C1941 C 0.54846 0.89129 0.95866 0.0
C1942 C 0.60251 0.91391 0.94976 0.0
C1943 C 0.5972 0.93326 0.94094 0.0
C1944 C 0.56597 0.90416 0.95039 0.0
C1945 C 0.5763 0.93681 0.93542 0.0
C1946 C 0.55132 0.87636 0.97461 0.0
C1947 C 0.51147 0.88726 0.96155 0.0
N1948 N 0.56137 0.92255 0.94061 0.0
N1949 N 0.52862 0.89599 0.95251 0.0
H1950 H 0.9754 0.14406 0.49089 0.0
H1951 H 0.93545 0.04041 0.43462 0.0
H1952 H 0.01684 0.09779 0.46445 0.0
H1953 H 0.89523 0.08748 0.46141 0.0
H1954 H 0.96532 0.06411 0.43916 0.0
H1955 H 0.94595 0.12669 0.47402 0.0
C1956 C 0.97837 0.13045 0.48126 0.0
C1957 C 0.9986 0.1222 0.47939 0.0
C1958 C 0.94988 0.06937 0.44367 0.0
C1959 C 0.96483 0.10197 0.46024 0.0
C1960 C 0.93282 0.05589 0.44097 0.0
C1961 C 0.91291 0.06187 0.44796 0.0
C1962 C 0.94689 0.08889 0.4534 0.0
C1963 C 0.91039 0.08209 0.45613 0.0
C1964 C 0.96151 0.12048 0.47163 0.0
C1965 C 0.00148 0.1046 0.46652 0.0
N1966 N 0.92719 0.09473 0.45886 0.0
N1967 N 0.98475 0.09486 0.45773 0.0
H1968 H 0.21234 0.43704 0.44292 0.0
H1969 H 0.20788 0.31541 0.4553 0.0
H1970 H 0.18423 0.4075 0.4967 0.0
H1971 H 0.25401 0.34592 0.41661 0.0
H1972 H 0.20123 0.34877 0.47281 0.0
H1973 H 0.23022 0.40421 0.43485 0.0
C1974 C 0.21031 0.42381 0.45331 0.0
C1975 C 0.19656 0.42497 0.47036 0.0
C1976 C 0.21314 0.34806 0.4608 0.0
C1977 C 0.21657 0.38722 0.46095 0.0
C1978 C 0.21696 0.32899 0.45082 0.0
C1979 C 0.23132 0.3279 0.43428 0.0
C1980 C 0.22346 0.36621 0.4539 0.0
C1981 C 0.24265 0.34603 0.42916 0.0
C1982 C 0.2205 0.40504 0.44868 0.0
C1983 C 0.19455 0.40731 0.48329 0.0
N1984 N 0.23817 0.36451 0.43861 0.0
N1985 N 0.20407 0.38904 0.47807 0.0
H1986 H 0.90591 1.00059 0.68131 0.0
H1987 H 0.84838 0.92395 0.76111 0.0
H1988 H 0.93656 0.94981 0.71353 0.0
H1989 H 0.81694 0.95651 0.71102 0.0
H1990 H 0.88076 0.94204 0.75206 0.0
H1991 H 0.8738 0.99293 0.70054 0.0
C1992 C 0.90608 0.98815 0.69281 0.0
C1993 C 0.92391 0.97561 0.6956 0.0
C1994 C 0.86666 0.94553 0.74335 0.0
C1995 C 0.88715 0.96683 0.7176 0.0
C1996 C 0.8481 0.93531 0.74856 0.0
C1997 C 0.82994 0.93847 0.73658 0.0
C1998 C 0.86705 0.95916 0.72619 0.0
C1999 C 0.83059 0.95344 0.72054 0.0
C2000 C 0.88768 0.98375 0.70368 0.0
C2001 C 0.92315 0.95975 0.71074 0.0
N2002 N 0.84893 0.96305 0.71564 0.0
N2003 N 0.90498 0.95566 0.72102 0.0
H2004 H 0.30496 0.68466 0.95864 0.0
H2005 H 0.29365 0.56356 0.94894 0.0
H2006 H 0.25244 0.6564 0.92704 0.0
H2007 H 0.3272 0.59201 1.00014 0.0
H2008 H 0.27671 0.59718 0.94201 0.0
H2009 H 0.31205 0.65117 0.97576 0.0
C2010 C 0.29463 0.67157 0.95568 0.0
C2011 C 0.27824 0.67329 0.94121 0.0
C2012 C 0.28744 0.59593 0.95505 0.0
C2013 C 0.28654 0.63484 0.96032 0.0
C2014 C 0.2971 0.57673 0.95902 0.0
C2015 C 0.31202 0.575 0.97499 0.0
C2016 C 0.29311 0.61359 0.96687 0.0
C2017 C 0.31588 0.59262 0.98757 0.0
C2018 C 0.29869 0.65244 0.96543 0.0
C2019 C 0.26534 0.65578 0.93798 0.0
N2020 N 0.30684 0.61128 0.98296 0.0
N2021 N 0.27004 0.63717 0.94708 0.0
H2022 H 0.68258 0.04695 0.18779 0.0
H2023 H 0.5617 0.06525 0.1908 0.0
H2024 H 0.65271 0.07892 0.23918 0.0
H2025 H 0.58902 0.01373 0.15683 0.0
H2026 H 0.59452 0.06925 0.21013 0.0
H2027 H 0.64855 0.03282 0.17745 0.0
C2028 C 0.66898 0.05058 0.19721 0.0
C2029 C 0.67049 0.06432 0.21424 0.0
C2030 C 0.59316 0.0568 0.19874 0.0
C2031 C 0.63146 0.04867 0.20218 0.0
C2032 C 0.57442 0.05451 0.18771 0.0
C2033 C 0.57266 0.03928 0.17204 0.0
C2034 C 0.61035 0.04403 0.19375 0.0
C2035 C 0.58969 0.02579 0.16869 0.0
C2036 C 0.64954 0.04255 0.19127 0.0
C2037 C 0.6523 0.06849 0.22586 0.0
N2038 N 0.60795 0.02874 0.17914 0.0
N2039 N 0.63348 0.06109 0.21935 0.0
H2040 H 0.19486 0.69146 0.03844 0.0
H2041 H 0.20728 0.56949 0.04182 0.0
H2042 H 0.24818 0.66147 0.06693 0.0
H2043 H 0.1678 0.60063 0.9968 0.0
H2044 H 0.22469 0.60284 0.04887 0.0
H2045 H 0.18666 0.65873 0.02044 0.0
C2046 C 0.20512 0.67815 0.04053 0.0
C2047 C 0.22208 0.67915 0.05441 0.0
C2048 C 0.21251 0.60228 0.03713 0.0
C2049 C 0.21252 0.64151 0.03426 0.0
C2050 C 0.20258 0.58322 0.03308 0.0
C2051 C 0.18587 0.58229 0.01891 0.0
C2052 C 0.20541 0.62057 0.0272 0.0
C2053 C 0.18047 0.60061 0.00801 0.0
C2054 C 0.20042 0.65943 0.03028 0.0
C2055 C 0.23486 0.66139 0.0565 0.0
N2056 N 0.18992 0.61905 0.01268 0.0
N2057 N 0.22957 0.64319 0.04689 0.0
H2058 H 0.66197 0.92386 0.25053 0.0
H2059 H 0.59719 0.99686 0.32808 0.0
H2060 H 0.68919 0.956 0.30329 0.0
H2061 H 0.57044 0.94508 0.29402 0.0
H2062 H 0.63056 0.99069 0.31055 0.0
H2063 H 0.6285 0.94061 0.25804 0.0
C2064 C 0.66111 0.93488 0.26336 0.0
C2065 C 0.67838 0.93829 0.27651 0.0
C2066 C 0.61725 0.98098 0.30662 0.0
C2067 C 0.64005 0.95745 0.28512 0.0
C2068 C 0.59814 0.98453 0.31651 0.0
C2069 C 0.58103 0.97126 0.31272 0.0
C2070 C 0.61922 0.96421 0.29265 0.0
C2071 C 0.58325 0.95556 0.29756 0.0
C2072 C 0.64193 0.94432 0.26768 0.0
C2073 C 0.67625 0.95276 0.29287 0.0
N2074 N 0.60209 0.95232 0.28822 0.0
N2075 N 0.65734 0.96164 0.29687 0.0
H2076 H 0.31877 0.40548 0.50163 0.0
H2077 H 0.25116 0.34088 0.58417 0.0
H2078 H 0.28945 0.43303 0.55584 0.0
H2079 H 0.30036 0.31386 0.54669 0.0
H2080 H 0.25639 0.37425 0.56635 0.0
H2081 H 0.30305 0.37186 0.51066 0.0
C2082 C 0.30858 0.40464 0.51513 0.0
C2083 C 0.30566 0.42208 0.52818 0.0
C2084 C 0.26575 0.3609 0.56178 0.0
C2085 C 0.2877 0.38358 0.53854 0.0
C2086 C 0.26274 0.34179 0.57185 0.0
C2087 C 0.27555 0.32458 0.56711 0.0
C2088 C 0.28153 0.36279 0.54668 0.0
C2089 C 0.29026 0.32675 0.55098 0.0
C2090 C 0.29973 0.38538 0.52032 0.0
C2091 C 0.29227 0.41997 0.54544 0.0
N2092 N 0.293 0.34559 0.54147 0.0
N2093 N 0.28397 0.40099 0.55026 0.0
H2094 H 0.9356 0.05499 0.78747 0.0
H2095 H 0.81483 0.04393 0.79401 0.0
H2096 H 0.90667 1.00073 0.8153 0.0
H2097 H 0.84418 0.07925 0.74455 0.0
H2098 H 0.84809 0.02613 0.80039 0.0
H2099 H 0.90271 0.0627 0.76951 0.0
C2100 C 0.92252 0.0444 0.78939 0.0
C2101 C 0.92383 0.02735 0.80312 0.0
C2102 C 0.84712 0.03743 0.78782 0.0
C2103 C 0.88604 0.03637 0.78307 0.0
C2104 C 0.82813 0.04758 0.78417 0.0
C2105 C 0.82678 0.06325 0.76889 0.0
C2106 C 0.86496 0.04336 0.77643 0.0
C2107 C 0.84452 0.06735 0.75659 0.0
C2108 C 0.90373 0.04882 0.77916 0.0
C2109 C 0.90635 0.01415 0.805 0.0
N2110 N 0.863 0.05782 0.76094 0.0
N2111 N 0.88804 0.01921 0.79549 0.0
H2112 H 0.42523 0.19177 0.45899 0.0
H2113 H 0.44591 0.22695 0.3413 0.0
H2114 H 0.48423 0.18405 0.42714 0.0
H2115 H 0.386 0.23124 0.37208 0.0
H2116 H 0.46197 0.21776 0.37472 0.0
H2117 H 0.41271 0.21297 0.42981 0.0
C2118 C 0.43574 0.19492 0.44608 0.0
C2119 C 0.45571 0.18585 0.44537 0.0
C2120 C 0.44536 0.221 0.37423 0.0
C2121 C 0.44133 0.20985 0.41174 0.0
C2122 C 0.43617 0.22628 0.35514 0.0
C2123 C 0.41452 0.2296 0.35382 0.0
C2124 C 0.4328 0.21891 0.39213 0.0
C2125 C 0.40272 0.22863 0.37231 0.0
C2126 C 0.42853 0.20695 0.42935 0.0
C2127 C 0.46864 0.19055 0.42827 0.0
N2128 N 0.41197 0.22312 0.39064 0.0
N2129 N 0.46111 0.20195 0.41198 0.0
H2130 H 0.99998 0.17833 0.58763 0.0
H2131 H 0.0722 0.25465 0.65471 0.0
H2132 H 0.05431 0.20991 0.56297 0.0
H2133 H 0.03698 0.20344 0.68106 0.0
H2134 H 0.05693 0.24709 0.62052 0.0
H2135 H 0.00497 0.19646 0.62087 0.0
C2136 C 0.01264 0.1895 0.58897 0.0
C2137 C 0.02696 0.19237 0.57254 0.0
C2138 C 0.05223 0.23782 0.6339 0.0
C2139 C 0.03267 0.21312 0.6106 0.0
C2140 C 0.06081 0.24218 0.65348 0.0
C2141 C 0.05609 0.22944 0.67076 0.0
C2142 C 0.03862 0.2208 0.63162 0.0
C2143 C 0.04122 0.21352 0.66814 0.0
C2144 C 0.01552 0.19973 0.60802 0.0
C2145 C 0.04302 0.20707 0.57526 0.0
N2146 N 0.03318 0.20949 0.64886 0.0
N2147 N 0.0456 0.21673 0.59404 0.0
H2148 H 0.99754 0.82499 0.90736 0.0
H2149 H 0.07206 0.74886 0.84273 0.0
H2150 H 0.05025 0.79246 0.9342 0.0
H2151 H 0.04021 0.80193 0.8158 0.0
H2152 H 0.05486 0.75591 0.8761 0.0
H2153 H 0.00412 0.80745 0.87407 0.0
C2154 C 0.01016 0.81372 0.90646 0.0
C2155 C 0.02359 0.81042 0.92355 0.0
C2156 C 0.05132 0.76571 0.86274 0.0
C2157 C 0.03108 0.79034 0.88546 0.0
C2158 C 0.06101 0.76166 0.84363 0.0
C2159 C 0.0578 0.77504 0.82649 0.0
C2160 C 0.03811 0.78308 0.86466 0.0
C2161 C 0.0433 0.79135 0.82865 0.0
C2162 C 0.01393 0.80383 0.8874 0.0
C2163 C 0.03965 0.79563 0.9214 0.0
N2164 N 0.03415 0.79507 0.84748 0.0
N2165 N 0.0431 0.78629 0.9026 0.0
H2166 H 0.50178 0.83073 0.09272 0.0
H2167 H 0.4291 0.7518 0.15631 0.0
H2168 H 0.45168 0.79512 0.06479 0.0
H2169 H 0.45945 0.80534 0.18407 0.0
H2170 H 0.44611 0.75985 0.12307 0.0
H2171 H 0.49483 0.81363 0.12616 0.0
C2172 C 0.48963 0.81896 0.09346 0.0
C2173 C 0.4771 0.81454 0.07595 0.0
C2174 C 0.44935 0.76956 0.13656 0.0
C2175 C 0.46916 0.79495 0.11423 0.0
C2176 C 0.43977 0.76494 0.15561 0.0
C2177 C 0.44263 0.77811 0.17297 0.0
C2178 C 0.46207 0.78734 0.13491 0.0
C2179 C 0.45665 0.79488 0.17106 0.0
C2180 C 0.48564 0.8093 0.11261 0.0
C2181 C 0.4616 0.79913 0.07791 0.0
N2182 N 0.46569 0.79916 0.15228 0.0
N2183 N 0.45793 0.79002 0.09678 0.0
H2184 H 0.39978 0.49288 0.18004 0.0
H2185 H 0.3321 0.41093 0.24522 0.0
H2186 H 0.42615 0.43931 0.21154 0.0
H2187 H 0.30812 0.44611 0.19283 0.0
H2188 H 0.36547 0.42919 0.24176 0.0
H2189 H 0.36542 0.48369 0.19395 0.0
C2190 C 0.3985 0.47952 0.19036 0.0
C2191 C 0.41586 0.46665 0.19438 0.0
C2192 C 0.35276 0.43316 0.23129 0.0
C2193 C 0.37653 0.45611 0.21026 0.0
C2194 C 0.33365 0.42284 0.23328 0.0
C2195 C 0.31734 0.42682 0.21909 0.0
C2196 C 0.35552 0.44776 0.21518 0.0
C2197 C 0.32032 0.44243 0.20397 0.0
C2198 C 0.37883 0.47423 0.19816 0.0
C2199 C 0.41318 0.44956 0.20788 0.0
N2200 N 0.33913 0.45222 0.20229 0.0
N2201 N 0.39381 0.44463 0.21516 0.0
H2202 H 0.82197 0.90332 0.99792 0.0
H2203 H 0.74798 0.83777 0.07391 0.0
H2204 H 0.78861 0.9301 0.05013 0.0
H2205 H 0.80055 0.81138 0.04082 0.0
H2206 H 0.75432 0.87121 0.05658 0.0
H2207 H 0.80546 0.86963 0.00512 0.0
C2208 C 0.81076 0.90229 0.01057 0.0
C2209 C 0.80689 0.91953 0.02366 0.0
C2210 C 0.76417 0.85797 0.05281 0.0
C2211 C 0.78801 0.88096 0.03189 0.0
C2212 C 0.76053 0.83881 0.06259 0.0
C2213 C 0.77397 0.82179 0.05904 0.0
C2214 C 0.78121 0.86007 0.0392 0.0
C2215 C 0.78994 0.82412 0.04417 0.0
C2216 C 0.80145 0.883 0.01471 0.0
C2217 C 0.7922 0.9172 0.03978 0.0
N2218 N 0.79327 0.84301 0.03496 0.0
N2219 N 0.78345 0.89819 0.04359 0.0
H2220 H 0.15683 0.57375 0.75136 0.0
H2221 H 0.09219 0.49815 0.67624 0.0
H2222 H 0.18378 0.54106 0.6988 0.0
H2223 H 0.06537 0.55119 0.70823 0.0
H2224 H 0.1255 0.50494 0.69368 0.0
H2225 H 0.12348 0.55639 0.74458 0.0
C2226 C 0.15594 0.56249 0.73874 0.0
C2227 C 0.17308 0.55909 0.72541 0.0
C2228 C 0.11217 0.51478 0.69721 0.0
C2229 C 0.13492 0.53922 0.71768 0.0
C2230 C 0.0931 0.51087 0.68738 0.0
C2231 C 0.07602 0.52433 0.69055 0.0
C2232 C 0.11412 0.53208 0.71052 0.0
C2233 C 0.07818 0.54055 0.70517 0.0
C2234 C 0.13684 0.5527 0.73484 0.0
C2235 C 0.17093 0.54431 0.70933 0.0
N2236 N 0.09698 0.54412 0.71445 0.0
N2237 N 0.1521 0.53508 0.70576 0.0
H2238 H 0.69168 0.92183 0.98844 0.0
H2239 H 0.74347 0.85792 0.89552 0.0
H2240 H 0.70866 0.94833 0.92873 0.0
H2241 H 0.72128 0.8301 0.95288 0.0
H2242 H 0.73922 0.89249 0.91107 0.0
H2243 H 0.71109 0.89019 0.97947 0.0
C2244 C 0.69998 0.92126 0.97368 0.0
C2245 C 0.69818 0.93759 0.95912 0.0
C2246 C 0.73561 0.87882 0.9204 0.0
C2247 C 0.72011 0.90127 0.94863 0.0
C2248 C 0.73806 0.85905 0.91153 0.0
C2249 C 0.73235 0.84109 0.92278 0.0
C2250 C 0.72725 0.88069 0.94062 0.0
C2251 C 0.72563 0.84353 0.94353 0.0
C2252 C 0.71096 0.90311 0.96851 0.0
C2253 C 0.70936 0.936 0.94031 0.0
N2254 N 0.72293 0.86298 0.95167 0.0
N2255 N 0.71951 0.91799 0.93544 0.0
H2256 H 0.80577 0.18507 0.45949 0.0
H2257 H 0.7948 0.06431 0.44874 0.0
H2258 H 0.75202 0.15711 0.42974 0.0
H2259 H 0.8293 0.09219 0.49963 0.0
H2260 H 0.77734 0.09786 0.44285 0.0
H2261 H 0.81344 0.15146 0.4761 0.0
C2262 C 0.7953 0.17202 0.45685 0.0
C2263 C 0.77838 0.17385 0.44302 0.0
C2264 C 0.7884 0.09649 0.45561 0.0
C2265 C 0.78733 0.13528 0.46153 0.0
C2266 C 0.79835 0.07733 0.45897 0.0
C2267 C 0.8137 0.0755 0.47453 0.0
C2268 C 0.79419 0.11399 0.46759 0.0
C2269 C 0.81767 0.09291 0.48734 0.0
C2270 C 0.79969 0.15282 0.46631 0.0
C2271 C 0.76532 0.1564 0.44018 0.0
N2272 N 0.80833 0.11155 0.4833 0.0
N2273 N 0.77034 0.13772 0.44896 0.0
H2274 H 0.7461 0.15524 0.57513 0.0
H2275 H 0.67181 0.08465 0.50413 0.0
H2276 H 0.69315 0.17906 0.5407 0.0
H2277 H 0.70727 0.06111 0.55654 0.0
H2278 H 0.68801 0.11888 0.50899 0.0
H2279 H 0.74022 0.12083 0.55966 0.0
C2280 C 0.73357 0.15342 0.56389 0.0
C2281 C 0.71987 0.17003 0.55945 0.0
C2282 C 0.69254 0.1061 0.51914 0.0
C2283 C 0.71311 0.13061 0.54177 0.0
C2284 C 0.6834 0.08649 0.51634 0.0
C2285 C 0.68796 0.07002 0.53017 0.0
C2286 C 0.70649 0.10924 0.53576 0.0
C2287 C 0.70314 0.0734 0.54564 0.0
C2288 C 0.73018 0.1337 0.55517 0.0
C2289 C 0.70396 0.16667 0.54472 0.0
N2290 N 0.7117 0.09271 0.54818 0.0
N2291 N 0.70085 0.14726 0.5366 0.0
H2292 H 0.11892 0.49725 0.8514 0.0
H2293 H 0.18059 0.43909 0.76012 0.0
H2294 H 0.09102 0.47756 0.79317 0.0
H2295 H 0.20568 0.44976 0.82187 0.0
H2296 H 0.1508 0.46131 0.76879 0.0
H2297 H 0.15329 0.48781 0.83768 0.0
C2298 C 0.12003 0.49129 0.83559 0.0
C2299 C 0.102 0.4879 0.82352 0.0
C2300 C 0.16301 0.4591 0.78032 0.0
C2301 C 0.14133 0.47696 0.80778 0.0
C2302 C 0.18011 0.4465 0.77534 0.0
C2303 C 0.19547 0.44224 0.79043 0.0
C2304 C 0.16122 0.46745 0.80055 0.0
C2305 C 0.19407 0.45241 0.80983 0.0
C2306 C 0.13968 0.48586 0.82779 0.0
C2307 C 0.10445 0.48022 0.80311 0.0
N2308 N 0.17705 0.46426 0.81446 0.0
N2309 N 0.12372 0.47477 0.79598 0.0
H2310 H 0.34004 0.57636 0.24612 0.0
H2311 H 0.40483 0.49948 0.31971 0.0
H2312 H 0.31313 0.5425 0.29796 0.0
H2313 H 0.43147 0.55324 0.28877 0.0
H2314 H 0.37151 0.50647 0.30238 0.0
H2315 H 0.3734 0.55892 0.25251 0.0
C2316 C 0.34094 0.56483 0.25849 0.0
C2317 C 0.32382 0.56112 0.27176 0.0
C2318 C 0.3848 0.51643 0.29906 0.0
C2319 C 0.36198 0.54116 0.27905 0.0
C2320 C 0.40388 0.51243 0.30883 0.0
C2321 C 0.42091 0.52601 0.30592 0.0
C2322 C 0.38281 0.53397 0.28608 0.0
C2323 C 0.4187 0.5425 0.29162 0.0
C2324 C 0.36005 0.55499 0.26217 0.0
C2325 C 0.32597 0.54598 0.28749 0.0
N2326 N 0.3999 0.54617 0.2824 0.0
N2327 N 0.34481 0.53672 0.29087 0.0
H2328 H 0.00132 0.67132 0.91432 0.0
H2329 H 0.93105 0.74863 0.84625 0.0
H2330 H 0.94786 0.70449 0.93877 0.0
H2331 H 0.96314 0.69508 0.8206 0.0
H2332 H 0.94621 0.74089 0.88045 0.0
H2333 H 0.99615 0.68857 0.88062 0.0
C2334 C 0.98884 0.68267 0.91283 0.0
C2335 C 0.97483 0.6863 0.92938 0.0
C2336 C 0.95026 0.73112 0.86722 0.0
C2337 C 0.96894 0.70603 0.8908 0.0
C2338 C 0.94174 0.73557 0.84763 0.0
C2339 C 0.94563 0.7223 0.83054 0.0
C2340 C 0.96298 0.71346 0.8697 0.0
C2341 C 0.95959 0.70561 0.83336 0.0
C2342 C 0.98586 0.69238 0.89352 0.0
C2343 C 0.95893 0.70112 0.92642 0.0
N2344 N 0.96761 0.70153 0.85264 0.0
N2345 N 0.95629 0.71031 0.90741 0.0
H2346 H 0.55615 0.70346 0.0667 0.0
H2347 H 0.54155 0.69783 0.18725 0.0
H2348 H 0.50154 0.67485 0.09417 0.0
H2349 H 0.57678 0.74762 0.15832 0.0
H2350 H 0.52486 0.69074 0.15354 0.0
H2351 H 0.56261 0.72168 0.09973 0.0
C2352 C 0.54524 0.7014 0.07949 0.0
C2353 C 0.52843 0.68743 0.07773 0.0
C2354 C 0.53588 0.70354 0.1547 0.0
C2355 C 0.53599 0.70779 0.11568 0.0
C2356 C 0.54539 0.70761 0.17396 0.0
C2357 C 0.56077 0.72316 0.17557 0.0
C2358 C 0.54216 0.71481 0.13689 0.0
C2359 C 0.56513 0.73535 0.1578 0.0
C2360 C 0.54893 0.71179 0.09836 0.0
C2361 C 0.51478 0.68537 0.09484 0.0
N2362 N 0.55624 0.73061 0.1391 0.0
N2363 N 0.51913 0.69505 0.11325 0.0
H2364 H 0.57326 0.24746 0.34311 0.0
H2365 H 0.49538 0.32204 0.40553 0.0
H2366 H 0.54076 0.29964 0.3152 0.0
H2367 H 0.54814 0.2908 0.43376 0.0
H2368 H 0.50307 0.30443 0.37251 0.0
H2369 H 0.55498 0.25412 0.37599 0.0
C2370 C 0.56185 0.25996 0.34368 0.0
C2371 C 0.55876 0.27324 0.32644 0.0
C2372 C 0.51265 0.3011 0.38608 0.0
C2373 C 0.53783 0.28082 0.36403 0.0
C2374 C 0.50823 0.31103 0.40499 0.0
C2375 C 0.52136 0.30812 0.42238 0.0
C2376 C 0.53013 0.28798 0.38462 0.0
C2377 C 0.53776 0.29366 0.4207 0.0
C2378 C 0.55153 0.26379 0.36251 0.0
C2379 C 0.54377 0.28916 0.32815 0.0
N2380 N 0.54184 0.28429 0.40205 0.0
N2381 N 0.53402 0.29267 0.34672 0.0
H2382 H 0.95002 0.31405 0.68424 0.0
H2383 H 0.94516 0.29568 0.56389 0.0
H2384 H 0.91938 0.25987 0.65812 0.0
H2385 H 0.99625 0.32942 0.59232 0.0
H2386 H 0.93659 0.28083 0.59812 0.0
H2387 H 0.96853 0.31894 0.65107 0.0
C2388 C 0.94753 0.30293 0.67171 0.0
C2389 C 0.93298 0.28667 0.6739 0.0
C2390 C 0.94998 0.29112 0.59676 0.0
C2391 C 0.95369 0.29243 0.63582 0.0
C2392 C 0.95489 0.29956 0.57721 0.0
C2393 C 0.9713 0.31398 0.57526 0.0
C2394 C 0.96126 0.29752 0.61451 0.0
C2395 C 0.98337 0.31846 0.59308 0.0
C2396 C 0.95809 0.30572 0.65278 0.0
C2397 C 0.93037 0.27271 0.65711 0.0
N2398 N 0.97783 0.31064 0.61204 0.0
N2399 N 0.94027 0.27617 0.63864 0.0
loop_
_geom_bond_atom_site_label_1
_geom_bond_atom_site_label_2
_geom_bond_distance
_geom_bond_site_symmetry_2
_ccdc_geom_bond_type
O0 Cd1 2.223 . S
O0 C8 1.315 . S
Cd1 O0 2.223 . S
Cd1 O4 2.297 . S
Cd1 O5 2.439 . S
Cd1 O11 2.240 . S
Cd2 O3 2.240 . S
Cd2 O10 2.223 . S
Cd2 O12 2.297 . S
Cd2 O13 2.439 . S
O3 Cd2 2.240 . S
O3 C8 1.279 . S
O4 Cd1 2.297 . S
O4 C6 1.247 . S
O5 Cd1 2.439 . S
O5 C6 1.208 . S
C6 O4 1.247 . S
C6 O5 1.208 . S
C7 O12 1.247 . S
C7 O13 1.208 . S
C8 O0 1.315 . S
C8 O3 1.279 . S
C9 O10 1.315 . S
C9 O11 1.279 . S
O10 Cd2 2.223 . S
O10 C9 1.315 . S
O11 Cd1 2.240 . S
O11 C9 1.279 . S
O12 Cd2 2.297 . S
O12 C7 1.247 . S
O13 Cd2 2.439 . S
O13 C7 1.208 . S
O14 Cd15 2.223 . S
O14 C22 1.315 . S
Cd15 O14 2.223 . S
Cd15 O18 2.297 . S
Cd15 O19 2.439 . S
Cd15 O25 2.240 1_455 S
Cd16 O17 2.240 1_655 S
Cd16 O24 2.223 . S
Cd16 O26 2.297 . S
Cd16 O27 2.439 . S
O17 Cd16 2.240 1_455 S
O17 C22 1.279 . S
O18 Cd15 2.297 . S
O18 C20 1.247 . S
O19 Cd15 2.439 . S
O19 C20 1.208 . S
C20 O18 1.247 . S
C20 O19 1.208 . S
C21 O26 1.247 . S
C21 O27 1.208 . S
C22 O14 1.315 . S
C22 O17 1.279 . S
C23 O24 1.315 . S
C23 O25 1.279 . S
O24 Cd16 2.223 . S
O24 C23 1.315 . S
O25 Cd15 2.240 1_655 S
O25 C23 1.279 . S
O26 Cd16 2.297 . S
O26 C21 1.247 . S
O27 Cd16 2.439 . S
O27 C21 1.208 . S
O28 Cd29 2.223 . S
O28 C36 1.315 . S
Cd29 O28 2.223 . S
Cd29 O32 2.297 . S
Cd29 O33 2.439 . S
Cd29 O39 2.240 . S
Cd30 O31 2.240 . S
Cd30 O38 2.223 . S
Cd30 O40 2.297 . S
Cd30 O41 2.439 . S
O31 Cd30 2.240 . S
O31 C36 1.279 . S
O32 Cd29 2.297 . S
O32 C34 1.247 . S
O33 Cd29 2.439 . S
O33 C34 1.208 . S
C34 O32 1.247 . S
C34 O33 1.208 . S
C35 O40 1.247 . S
C35 O41 1.208 . S
C36 O28 1.315 . S
C36 O31 1.279 . S
C37 O38 1.315 . S
C37 O39 1.279 . S
O38 Cd30 2.223 . S
O38 C37 1.315 . S
O39 Cd29 2.240 . S
O39 C37 1.279 . S
O40 Cd30 2.297 . S
O40 C35 1.247 . S
O41 Cd30 2.439 . S
O41 C35 1.208 . S
O42 Cd43 2.223 . S
O42 C50 1.315 . S
Cd43 O42 2.223 . S
Cd43 O46 2.297 . S
Cd43 O47 2.439 . S
Cd43 O53 2.240 . S
Cd44 O45 2.240 . S
Cd44 O52 2.223 . S
Cd44 O54 2.297 . S
Cd44 O55 2.439 . S
O45 Cd44 2.240 . S
O45 C50 1.279 . S
O46 Cd43 2.297 . S
O46 C48 1.247 . S
O47 Cd43 2.439 . S
O47 C48 1.208 . S
C48 O46 1.247 . S
C48 O47 1.208 . S
C49 O54 1.247 . S
C49 O55 1.208 . S
C50 O42 1.315 . S
C50 O45 1.279 . S
C51 O52 1.315 . S
C51 O53 1.279 . S
O52 Cd44 2.223 . S
O52 C51 1.315 . S
O53 Cd43 2.240 . S
O53 C51 1.279 . S
O54 Cd44 2.297 . S
O54 C49 1.247 . S
O55 Cd44 2.439 . S
O55 C49 1.208 . S
O56 Cd57 2.223 . S
O56 C64 1.315 . S
Cd57 O56 2.223 . S
Cd57 O60 2.297 . S
Cd57 O61 2.439 . S
Cd57 O67 2.240 . S
Cd58 O59 2.240 . S
Cd58 O66 2.223 . S
Cd58 O68 2.297 . S
Cd58 O69 2.439 . S
O59 Cd58 2.240 . S
O59 C64 1.279 . S
O60 Cd57 2.297 . S
O60 C62 1.247 . S
O61 Cd57 2.439 . S
O61 C62 1.208 . S
C62 O60 1.247 . S
C62 O61 1.208 . S
C63 O68 1.247 . S
C63 O69 1.208 . S
C64 O56 1.315 . S
C64 O59 1.279 . S
C65 O66 1.315 . S
C65 O67 1.279 . S
O66 Cd58 2.223 . S
O66 C65 1.315 . S
O67 Cd57 2.240 . S
O67 C65 1.279 . S
O68 Cd58 2.297 . S
O68 C63 1.247 . S
O69 Cd58 2.439 . S
O69 C63 1.208 . S
O70 Cd71 2.223 . S
O70 C78 1.315 . S
Cd71 O70 2.223 . S
Cd71 O74 2.297 . S
Cd71 O75 2.439 . S
Cd71 O81 2.240 . S
Cd72 O73 2.240 . S
Cd72 O80 2.223 . S
Cd72 O82 2.297 . S
Cd72 O83 2.439 . S
O73 Cd72 2.240 . S
O73 C78 1.279 . S
O74 Cd71 2.297 . S
O74 C76 1.247 . S
O75 Cd71 2.439 . S
O75 C76 1.208 . S
C76 O74 1.247 . S
C76 O75 1.208 . S
C77 O82 1.247 . S
C77 O83 1.208 . S
C78 O70 1.315 . S
C78 O73 1.279 . S
C79 O80 1.315 . S
C79 O81 1.279 . S
O80 Cd72 2.223 . S
O80 C79 1.315 . S
O81 Cd71 2.240 . S
O81 C79 1.279 . S
O82 Cd72 2.297 . S
O82 C77 1.247 . S
O83 Cd72 2.439 . S
O83 C77 1.208 . S
O84 Cd85 2.223 . S
O84 C92 1.315 . S
Cd85 O84 2.223 . S
Cd85 O88 2.297 . S
Cd85 O89 2.439 . S
Cd85 O95 2.240 . S
Cd86 O87 2.240 . S
Cd86 O94 2.223 . S
Cd86 O96 2.297 . S
Cd86 O97 2.439 . S
O87 Cd86 2.240 . S
O87 C92 1.279 . S
O88 Cd85 2.297 . S
O88 C90 1.247 . S
O89 Cd85 2.439 . S
O89 C90 1.208 . S
C90 O88 1.247 . S
C90 O89 1.208 . S
C91 O96 1.247 . S
C91 O97 1.208 . S
C92 O84 1.315 . S
C92 O87 1.279 . S
C93 O94 1.315 . S
C93 O95 1.279 . S
O94 Cd86 2.223 . S
O94 C93 1.315 . S
O95 Cd85 2.240 . S
O95 C93 1.279 . S
O96 Cd86 2.297 . S
O96 C91 1.247 . S
O97 Cd86 2.439 . S
O97 C91 1.208 . S
O98 Cd99 2.223 . S
O98 C106 1.315 . S
Cd99 O98 2.223 . S
Cd99 O102 2.297 . S
Cd99 O103 2.439 . S
Cd99 O109 2.240 1_455 S
Cd100 O101 2.240 1_655 S
Cd100 O108 2.223 . S
Cd100 O110 2.297 . S
Cd100 O111 2.439 . S
O101 Cd100 2.240 1_455 S
O101 C106 1.279 . S
O102 Cd99 2.297 . S
O102 C104 1.247 . S
O103 Cd99 2.439 . S
O103 C104 1.208 . S
C104 O102 1.247 . S
C104 O103 1.208 . S
C105 O110 1.247 . S
C105 O111 1.208 . S
C106 O98 1.315 . S
C106 O101 1.279 . S
C107 O108 1.315 . S
C107 O109 1.279 . S
O108 Cd100 2.223 . S
O108 C107 1.315 . S
O109 Cd99 2.240 1_655 S
O109 C107 1.279 . S
O110 Cd100 2.297 . S
O110 C105 1.247 . S
O111 Cd100 2.439 . S
O111 C105 1.208 . S
O112 Cd113 2.223 . S
O112 C120 1.315 . S
Cd113 O112 2.223 . S
Cd113 O116 2.297 . S
Cd113 O117 2.439 . S
Cd113 O123 2.240 . S
Cd114 O115 2.240 . S
Cd114 O122 2.223 . S
Cd114 O124 2.297 . S
Cd114 O125 2.439 . S
O115 Cd114 2.240 . S
O115 C120 1.279 . S
O116 Cd113 2.297 . S
O116 C118 1.247 . S
O117 Cd113 2.439 . S
O117 C118 1.208 . S
C118 O116 1.247 . S
C118 O117 1.208 . S
C119 O124 1.247 . S
C119 O125 1.208 . S
C120 O112 1.315 . S
C120 O115 1.279 . S
C121 O122 1.315 . S
C121 O123 1.279 . S
O122 Cd114 2.223 . S
O122 C121 1.315 . S
O123 Cd113 2.240 . S
O123 C121 1.279 . S
O124 Cd114 2.297 . S
O124 C119 1.247 . S
O125 Cd114 2.439 . S
O125 C119 1.208 . S
O126 Cd127 2.223 . S
O126 C134 1.315 . S
Cd127 O126 2.223 . S
Cd127 O130 2.297 . S
Cd127 O131 2.439 . S
Cd127 O137 2.240 . S
Cd128 O129 2.240 . S
Cd128 O136 2.223 . S
Cd128 O138 2.297 . S
Cd128 O139 2.439 . S
O129 Cd128 2.240 . S
O129 C134 1.279 . S
O130 Cd127 2.297 . S
O130 C132 1.247 . S
O131 Cd127 2.439 . S
O131 C132 1.208 . S
C132 O130 1.247 . S
C132 O131 1.208 . S
C133 O138 1.247 . S
C133 O139 1.208 . S
C134 O126 1.315 . S
C134 O129 1.279 . S
C135 O136 1.315 . S
C135 O137 1.279 . S
O136 Cd128 2.223 . S
O136 C135 1.315 . S
O137 Cd127 2.240 . S
O137 C135 1.279 . S
O138 Cd128 2.297 . S
O138 C133 1.247 . S
O139 Cd128 2.439 . S
O139 C133 1.208 . S
O140 Cd141 2.223 . S
O140 C148 1.315 . S
Cd141 O140 2.223 . S
Cd141 O144 2.297 . S
Cd141 O145 2.439 . S
Cd141 O151 2.240 . S
Cd142 O143 2.240 . S
Cd142 O150 2.223 . S
Cd142 O152 2.297 . S
Cd142 O153 2.439 . S
O143 Cd142 2.240 . S
O143 C148 1.279 . S
O144 Cd141 2.297 . S
O144 C146 1.247 . S
O145 Cd141 2.439 . S
O145 C146 1.208 . S
C146 O144 1.247 . S
C146 O145 1.208 . S
C147 O152 1.247 . S
C147 O153 1.208 . S
C148 O140 1.315 . S
C148 O143 1.279 . S
C149 O150 1.315 . S
C149 O151 1.279 . S
O150 Cd142 2.223 . S
O150 C149 1.315 . S
O151 Cd141 2.240 . S
O151 C149 1.279 . S
O152 Cd142 2.297 . S
O152 C147 1.247 . S
O153 Cd142 2.439 . S
O153 C147 1.208 . S
O154 Cd155 2.223 . S
O154 C162 1.315 . S
Cd155 O154 2.223 . S
Cd155 O158 2.297 . S
Cd155 O159 2.439 . S
Cd155 O165 2.240 1_556 S
Cd156 O157 2.240 1_554 S
Cd156 O164 2.223 . S
Cd156 O166 2.297 . S
Cd156 O167 2.439 . S
O157 Cd156 2.240 1_556 S
O157 C162 1.279 . S
O158 Cd155 2.297 . S
O158 C160 1.247 . S
O159 Cd155 2.439 . S
O159 C160 1.208 . S
C160 O158 1.247 . S
C160 O159 1.208 . S
C161 O166 1.247 . S
C161 O167 1.208 . S
C162 O154 1.315 . S
C162 O157 1.279 . S
C163 O164 1.315 . S
C163 O165 1.279 . S
O164 Cd156 2.223 . S
O164 C163 1.315 . S
O165 Cd155 2.240 1_554 S
O165 C163 1.279 . S
O166 Cd156 2.297 . S
O166 C161 1.247 . S
O167 Cd156 2.439 . S
O167 C161 1.208 . S
O168 Cd169 2.223 . S
O168 C176 1.315 . S
Cd169 O168 2.223 . S
Cd169 O172 2.297 . S
Cd169 O173 2.439 . S
Cd169 O179 2.240 . S
Cd170 O171 2.240 . S
Cd170 O178 2.223 . S
Cd170 O180 2.297 . S
Cd170 O181 2.439 . S
O171 Cd170 2.240 . S
O171 C176 1.279 . S
O172 Cd169 2.297 . S
O172 C174 1.247 . S
O173 Cd169 2.439 . S
O173 C174 1.208 . S
C174 O172 1.247 . S
C174 O173 1.208 . S
C175 O180 1.247 . S
C175 O181 1.208 . S
C176 O168 1.315 . S
C176 O171 1.279 . S
C177 O178 1.315 . S
C177 O179 1.279 . S
O178 Cd170 2.223 . S
O178 C177 1.315 . S
O179 Cd169 2.240 . S
O179 C177 1.279 . S
O180 Cd170 2.297 . S
O180 C175 1.247 . S
O181 Cd170 2.439 . S
O181 C175 1.208 . S
O182 Cd183 2.223 . S
O182 C190 1.315 . S
Cd183 O182 2.223 . S
Cd183 O186 2.297 . S
Cd183 O187 2.439 . S
Cd183 O193 2.240 . S
Cd184 O185 2.240 . S
Cd184 O192 2.223 . S
Cd184 O194 2.297 . S
Cd184 O195 2.439 . S
O185 Cd184 2.240 . S
O185 C190 1.279 . S
O186 Cd183 2.297 . S
O186 C188 1.247 . S
O187 Cd183 2.439 . S
O187 C188 1.208 . S
C188 O186 1.247 . S
C188 O187 1.208 . S
C189 O194 1.247 . S
C189 O195 1.208 . S
C190 O182 1.315 . S
C190 O185 1.279 . S
C191 O192 1.315 . S
C191 O193 1.279 . S
O192 Cd184 2.223 . S
O192 C191 1.315 . S
O193 Cd183 2.240 . S
O193 C191 1.279 . S
O194 Cd184 2.297 . S
O194 C189 1.247 . S
O195 Cd184 2.439 . S
O195 C189 1.208 . S
O196 Cd197 2.223 . S
O196 C204 1.315 . S
Cd197 O196 2.223 . S
Cd197 O200 2.297 . S
Cd197 O201 2.439 . S
Cd197 O207 2.240 . S
Cd198 O199 2.240 . S
Cd198 O206 2.223 . S
Cd198 O208 2.297 . S
Cd198 O209 2.439 . S
O199 Cd198 2.240 . S
O199 C204 1.279 . S
O200 Cd197 2.297 . S
O200 C202 1.247 . S
O201 Cd197 2.439 . S
O201 C202 1.208 . S
C202 O200 1.247 . S
C202 O201 1.208 . S
C203 O208 1.247 . S
C203 O209 1.208 . S
C204 O196 1.315 . S
C204 O199 1.279 . S
C205 O206 1.315 . S
C205 O207 1.279 . S
O206 Cd198 2.223 . S
O206 C205 1.315 . S
O207 Cd197 2.240 . S
O207 C205 1.279 . S
O208 Cd198 2.297 . S
O208 C203 1.247 . S
O209 Cd198 2.439 . S
O209 C203 1.208 . S
O210 Cd211 2.223 . S
O210 C218 1.315 . S
Cd211 O210 2.223 . S
Cd211 O214 2.297 . S
Cd211 O215 2.439 . S
Cd211 O221 2.240 1_554 S
Cd212 O213 2.240 1_556 S
Cd212 O220 2.223 . S
Cd212 O222 2.297 . S
Cd212 O223 2.439 . S
O213 Cd212 2.240 1_554 S
O213 C218 1.279 . S
O214 Cd211 2.297 . S
O214 C216 1.247 . S
O215 Cd211 2.439 . S
O215 C216 1.208 . S
C216 O214 1.247 . S
C216 O215 1.208 . S
C217 O222 1.247 . S
C217 O223 1.208 . S
C218 O210 1.315 . S
C218 O213 1.279 . S
C219 O220 1.315 . S
C219 O221 1.279 . S
O220 Cd212 2.223 . S
O220 C219 1.315 . S
O221 Cd211 2.240 1_556 S
O221 C219 1.279 . S
O222 Cd212 2.297 . S
O222 C217 1.247 . S
O223 Cd212 2.439 . S
O223 C217 1.208 . S
O224 Cd225 2.223 . S
O224 C232 1.315 . S
Cd225 O224 2.223 . S
Cd225 O228 2.297 . S
Cd225 O229 2.439 . S
Cd225 O235 2.240 . S
Cd226 O227 2.240 . S
Cd226 O234 2.223 . S
Cd226 O236 2.297 . S
Cd226 O237 2.439 . S
O227 Cd226 2.240 . S
O227 C232 1.279 . S
O228 Cd225 2.297 . S
O228 C230 1.247 . S
O229 Cd225 2.439 . S
O229 C230 1.208 . S
C230 O228 1.247 . S
C230 O229 1.208 . S
C231 O236 1.247 . S
C231 O237 1.208 . S
C232 O224 1.315 . S
C232 O227 1.279 . S
C233 O234 1.315 . S
C233 O235 1.279 . S
O234 Cd226 2.223 . S
O234 C233 1.315 . S
O235 Cd225 2.240 . S
O235 C233 1.279 . S
O236 Cd226 2.297 . S
O236 C231 1.247 . S
O237 Cd226 2.439 . S
O237 C231 1.208 . S
O238 Cd239 2.223 . S
O238 C246 1.315 . S
Cd239 O238 2.223 . S
Cd239 O242 2.297 . S
Cd239 O243 2.439 . S
Cd239 O249 2.240 . S
Cd240 O241 2.240 . S
Cd240 O248 2.223 . S
Cd240 O250 2.297 . S
Cd240 O251 2.439 . S
O241 Cd240 2.240 . S
O241 C246 1.279 . S
O242 Cd239 2.297 . S
O242 C244 1.247 . S
O243 Cd239 2.439 . S
O243 C244 1.208 . S
C244 O242 1.247 . S
C244 O243 1.208 . S
C245 O250 1.247 . S
C245 O251 1.208 . S
C246 O238 1.315 . S
C246 O241 1.279 . S
C247 O248 1.315 . S
C247 O249 1.279 . S
O248 Cd240 2.223 . S
O248 C247 1.315 . S
O249 Cd239 2.240 . S
O249 C247 1.279 . S
O250 Cd240 2.297 . S
O250 C245 1.247 . S
O251 Cd240 2.439 . S
O251 C245 1.208 . S
O252 Cd253 2.223 . S
O252 C260 1.315 . S
Cd253 O252 2.223 . S
Cd253 O256 2.297 . S
Cd253 O257 2.439 . S
Cd253 O263 2.240 . S
Cd254 O255 2.240 . S
Cd254 O262 2.223 . S
Cd254 O264 2.297 . S
Cd254 O265 2.439 . S
O255 Cd254 2.240 . S
O255 C260 1.279 . S
O256 Cd253 2.297 . S
O256 C258 1.247 . S
O257 Cd253 2.439 . S
O257 C258 1.208 . S
C258 O256 1.247 . S
C258 O257 1.208 . S
C259 O264 1.247 . S
C259 O265 1.208 . S
C260 O252 1.315 . S
C260 O255 1.279 . S
C261 O262 1.315 . S
C261 O263 1.279 . S
O262 Cd254 2.223 . S
O262 C261 1.315 . S
O263 Cd253 2.240 . S
O263 C261 1.279 . S
O264 Cd254 2.297 . S
O264 C259 1.247 . S
O265 Cd254 2.439 . S
O265 C259 1.208 . S
O266 Cd267 2.223 . S
O266 C274 1.315 . S
Cd267 O266 2.223 . S
Cd267 O270 2.297 . S
Cd267 O271 2.439 . S
Cd267 O277 2.240 . S
Cd268 O269 2.240 . S
Cd268 O276 2.223 . S
Cd268 O278 2.297 . S
Cd268 O279 2.439 . S
O269 Cd268 2.240 . S
O269 C274 1.279 . S
O270 Cd267 2.297 . S
O270 C272 1.247 . S
O271 Cd267 2.439 . S
O271 C272 1.208 . S
C272 O270 1.247 . S
C272 O271 1.208 . S
C273 O278 1.247 . S
C273 O279 1.208 . S
C274 O266 1.315 . S
C274 O269 1.279 . S
C275 O276 1.315 . S
C275 O277 1.279 . S
O276 Cd268 2.223 . S
O276 C275 1.315 . S
O277 Cd267 2.240 . S
O277 C275 1.279 . S
O278 Cd268 2.297 . S
O278 C273 1.247 . S
O279 Cd268 2.439 . S
O279 C273 1.208 . S
O280 Cd281 2.223 . S
O280 C288 1.315 . S
Cd281 O280 2.223 . S
Cd281 O284 2.297 . S
Cd281 O285 2.439 . S
Cd281 O291 2.240 1_545 S
Cd282 O283 2.240 1_565 S
Cd282 O290 2.223 . S
Cd282 O292 2.297 . S
Cd282 O293 2.439 . S
O283 Cd282 2.240 1_545 S
O283 C288 1.279 . S
O284 Cd281 2.297 . S
O284 C286 1.247 . S
O285 Cd281 2.439 . S
O285 C286 1.208 . S
C286 O284 1.247 . S
C286 O285 1.208 . S
C287 O292 1.247 . S
C287 O293 1.208 . S
C288 O280 1.315 . S
C288 O283 1.279 . S
C289 O290 1.315 . S
C289 O291 1.279 . S
O290 Cd282 2.223 . S
O290 C289 1.315 . S
O291 Cd281 2.240 1_565 S
O291 C289 1.279 . S
O292 Cd282 2.297 . S
O292 C287 1.247 . S
O293 Cd282 2.439 . S
O293 C287 1.208 . S
O294 Cd295 2.223 . S
O294 C302 1.315 . S
Cd295 O294 2.223 . S
Cd295 O298 2.297 . S
Cd295 O299 2.439 . S
Cd295 O305 2.240 . S
Cd296 O297 2.240 . S
Cd296 O304 2.223 . S
Cd296 O306 2.297 . S
Cd296 O307 2.439 . S
O297 Cd296 2.240 . S
O297 C302 1.279 . S
O298 Cd295 2.297 . S
O298 C300 1.247 . S
O299 Cd295 2.439 . S
O299 C300 1.208 . S
C300 O298 1.247 . S
C300 O299 1.208 . S
C301 O306 1.247 . S
C301 O307 1.208 . S
C302 O294 1.315 . S
C302 O297 1.279 . S
C303 O304 1.315 . S
C303 O305 1.279 . S
O304 Cd296 2.223 . S
O304 C303 1.315 . S
O305 Cd295 2.240 . S
O305 C303 1.279 . S
O306 Cd296 2.297 . S
O306 C301 1.247 . S
O307 Cd296 2.439 . S
O307 C301 1.208 . S
O308 Cd309 2.223 . S
O308 C316 1.315 . S
Cd309 O308 2.223 . S
Cd309 O312 2.297 . S
Cd309 O313 2.439 . S
Cd309 O319 2.240 . S
Cd310 O311 2.240 . S
Cd310 O318 2.223 . S
Cd310 O320 2.297 . S
Cd310 O321 2.439 . S
O311 Cd310 2.240 . S
O311 C316 1.279 . S
O312 Cd309 2.297 . S
O312 C314 1.247 . S
O313 Cd309 2.439 . S
O313 C314 1.208 . S
C314 O312 1.247 . S
C314 O313 1.208 . S
C315 O320 1.247 . S
C315 O321 1.208 . S
C316 O308 1.315 . S
C316 O311 1.279 . S
C317 O318 1.315 . S
C317 O319 1.279 . S
O318 Cd310 2.223 . S
O318 C317 1.315 . S
O319 Cd309 2.240 . S
O319 C317 1.279 . S
O320 Cd310 2.297 . S
O320 C315 1.247 . S
O321 Cd310 2.439 . S
O321 C315 1.208 . S
O322 Cd323 2.223 . S
O322 C330 1.315 . S
Cd323 O322 2.223 . S
Cd323 O326 2.297 . S
Cd323 O327 2.439 . S
Cd323 O333 2.240 . S
Cd324 O325 2.240 . S
Cd324 O332 2.223 . S
Cd324 O334 2.297 . S
Cd324 O335 2.439 . S
O325 Cd324 2.240 . S
O325 C330 1.279 . S
O326 Cd323 2.297 . S
O326 C328 1.247 . S
O327 Cd323 2.439 . S
O327 C328 1.208 . S
C328 O326 1.247 . S
C328 O327 1.208 . S
C329 O334 1.247 . S
C329 O335 1.208 . S
C330 O322 1.315 . S
C330 O325 1.279 . S
C331 O332 1.315 . S
C331 O333 1.279 . S
O332 Cd324 2.223 . S
O332 C331 1.315 . S
O333 Cd323 2.240 . S
O333 C331 1.279 . S
O334 Cd324 2.297 . S
O334 C329 1.247 . S
O335 Cd324 2.439 . S
O335 C329 1.208 . S
O336 Cd337 2.223 . S
O336 C344 1.315 . S
Cd337 O336 2.223 . S
Cd337 O340 2.297 . S
Cd337 O341 2.439 . S
Cd337 O347 2.240 . S
Cd338 O339 2.240 . S
Cd338 O346 2.223 . S
Cd338 O348 2.297 . S
Cd338 O349 2.439 . S
O339 Cd338 2.240 . S
O339 C344 1.279 . S
O340 Cd337 2.297 . S
O340 C342 1.247 . S
O341 Cd337 2.439 . S
O341 C342 1.208 . S
C342 O340 1.247 . S
C342 O341 1.208 . S
C343 O348 1.247 . S
C343 O349 1.208 . S
C344 O336 1.315 . S
C344 O339 1.279 . S
C345 O346 1.315 . S
C345 O347 1.279 . S
O346 Cd338 2.223 . S
O346 C345 1.315 . S
O347 Cd337 2.240 . S
O347 C345 1.279 . S
O348 Cd338 2.297 . S
O348 C343 1.247 . S
O349 Cd338 2.439 . S
O349 C343 1.208 . S
O350 Cd351 2.223 . S
O350 C358 1.315 . S
Cd351 O350 2.223 . S
Cd351 O354 2.297 . S
Cd351 O355 2.439 . S
Cd351 O361 2.240 . S
Cd352 O353 2.240 . S
Cd352 O360 2.223 . S
Cd352 O362 2.297 . S
Cd352 O363 2.439 . S
O353 Cd352 2.240 . S
O353 C358 1.279 . S
O354 Cd351 2.297 . S
O354 C356 1.247 . S
O355 Cd351 2.439 . S
O355 C356 1.208 . S
C356 O354 1.247 . S
C356 O355 1.208 . S
C357 O362 1.247 . S
C357 O363 1.208 . S
C358 O350 1.315 . S
C358 O353 1.279 . S
C359 O360 1.315 . S
C359 O361 1.279 . S
O360 Cd352 2.223 . S
O360 C359 1.315 . S
O361 Cd351 2.240 . S
O361 C359 1.279 . S
O362 Cd352 2.297 . S
O362 C357 1.247 . S
O363 Cd352 2.439 . S
O363 C357 1.208 . S
O364 Cd365 2.223 . S
O364 C372 1.315 . S
Cd365 O364 2.223 . S
Cd365 O368 2.297 . S
Cd365 O369 2.439 . S
Cd365 O375 2.240 . S
Cd366 O367 2.240 . S
Cd366 O374 2.223 . S
Cd366 O376 2.297 . S
Cd366 O377 2.439 . S
O367 Cd366 2.240 . S
O367 C372 1.279 . S
O368 Cd365 2.297 . S
O368 C370 1.247 . S
O369 Cd365 2.439 . S
O369 C370 1.208 . S
C370 O368 1.247 . S
C370 O369 1.208 . S
C371 O376 1.247 . S
C371 O377 1.208 . S
C372 O364 1.315 . S
C372 O367 1.279 . S
C373 O374 1.315 . S
C373 O375 1.279 . S
O374 Cd366 2.223 . S
O374 C373 1.315 . S
O375 Cd365 2.240 . S
O375 C373 1.279 . S
O376 Cd366 2.297 . S
O376 C371 1.247 . S
O377 Cd366 2.439 . S
O377 C371 1.208 . S
O378 Cd379 2.223 . S
O378 C386 1.315 . S
Cd379 O378 2.223 . S
Cd379 O382 2.297 . S
Cd379 O383 2.439 . S
Cd379 O389 2.240 1_655 S
Cd380 O381 2.240 1_455 S
Cd380 O388 2.223 . S
Cd380 O390 2.297 . S
Cd380 O391 2.439 . S
O381 Cd380 2.240 1_655 S
O381 C386 1.279 . S
O382 Cd379 2.297 . S
O382 C384 1.247 . S
O383 Cd379 2.439 . S
O383 C384 1.208 . S
C384 O382 1.247 . S
C384 O383 1.208 . S
C385 O390 1.247 . S
C385 O391 1.208 . S
C386 O378 1.315 . S
C386 O381 1.279 . S
C387 O388 1.315 . S
C387 O389 1.279 . S
O388 Cd380 2.223 . S
O388 C387 1.315 . S
O389 Cd379 2.240 1_455 S
O389 C387 1.279 . S
O390 Cd380 2.297 . S
O390 C385 1.247 . S
O391 Cd380 2.439 . S
O391 C385 1.208 . S
O392 Cd393 2.223 . S
O392 C400 1.315 . S
Cd393 O392 2.223 . S
Cd393 O396 2.297 . S
Cd393 O397 2.439 . S
Cd393 O403 2.240 . S
Cd394 O395 2.240 . S
Cd394 O402 2.223 . S
Cd394 O404 2.297 . S
Cd394 O405 2.439 . S
O395 Cd394 2.240 . S
O395 C400 1.279 . S
O396 Cd393 2.297 . S
O396 C398 1.247 . S
O397 Cd393 2.439 . S
O397 C398 1.208 . S
C398 O396 1.247 . S
C398 O397 1.208 . S
C399 O404 1.247 . S
C399 O405 1.208 . S
C400 O392 1.315 . S
C400 O395 1.279 . S
C401 O402 1.315 . S
C401 O403 1.279 . S
O402 Cd394 2.223 . S
O402 C401 1.315 . S
O403 Cd393 2.240 . S
O403 C401 1.279 . S
O404 Cd394 2.297 . S
O404 C399 1.247 . S
O405 Cd394 2.439 . S
O405 C399 1.208 . S
O406 Cd407 2.223 . S
O406 C414 1.315 . S
Cd407 O406 2.223 . S
Cd407 O410 2.297 . S
Cd407 O411 2.439 . S
Cd407 O417 2.240 1_655 S
Cd408 O409 2.240 1_455 S
Cd408 O416 2.223 . S
Cd408 O418 2.297 . S
Cd408 O419 2.439 . S
O409 Cd408 2.240 1_655 S
O409 C414 1.279 . S
O410 Cd407 2.297 . S
O410 C412 1.247 . S
O411 Cd407 2.439 . S
O411 C412 1.208 . S
C412 O410 1.247 . S
C412 O411 1.208 . S
C413 O418 1.247 . S
C413 O419 1.208 . S
C414 O406 1.315 . S
C414 O409 1.279 . S
C415 O416 1.315 . S
C415 O417 1.279 . S
O416 Cd408 2.223 . S
O416 C415 1.315 . S
O417 Cd407 2.240 1_455 S
O417 C415 1.279 . S
O418 Cd408 2.297 . S
O418 C413 1.247 . S
O419 Cd408 2.439 . S
O419 C413 1.208 . S
O420 Cd421 2.223 . S
O420 C428 1.315 . S
Cd421 O420 2.223 . S
Cd421 O424 2.297 . S
Cd421 O425 2.439 . S
Cd421 O431 2.240 . S
Cd422 O423 2.240 . S
Cd422 O430 2.223 . S
Cd422 O432 2.297 . S
Cd422 O433 2.439 . S
O423 Cd422 2.240 . S
O423 C428 1.279 . S
O424 Cd421 2.297 . S
O424 C426 1.247 . S
O425 Cd421 2.439 . S
O425 C426 1.208 . S
C426 O424 1.247 . S
C426 O425 1.208 . S
C427 O432 1.247 . S
C427 O433 1.208 . S
C428 O420 1.315 . S
C428 O423 1.279 . S
C429 O430 1.315 . S
C429 O431 1.279 . S
O430 Cd422 2.223 . S
O430 C429 1.315 . S
O431 Cd421 2.240 . S
O431 C429 1.279 . S
O432 Cd422 2.297 . S
O432 C427 1.247 . S
O433 Cd422 2.439 . S
O433 C427 1.208 . S
O434 Cd435 2.223 . S
O434 C442 1.315 . S
Cd435 O434 2.223 . S
Cd435 O438 2.297 . S
Cd435 O439 2.439 . S
Cd435 O445 2.240 . S
Cd436 O437 2.240 . S
Cd436 O444 2.223 . S
Cd436 O446 2.297 . S
Cd436 O447 2.439 . S
O437 Cd436 2.240 . S
O437 C442 1.279 . S
O438 Cd435 2.297 . S
O438 C440 1.247 . S
O439 Cd435 2.439 . S
O439 C440 1.208 . S
C440 O438 1.247 . S
C440 O439 1.208 . S
C441 O446 1.247 . S
C441 O447 1.208 . S
C442 O434 1.315 . S
C442 O437 1.279 . S
C443 O444 1.315 . S
C443 O445 1.279 . S
O444 Cd436 2.223 . S
O444 C443 1.315 . S
O445 Cd435 2.240 . S
O445 C443 1.279 . S
O446 Cd436 2.297 . S
O446 C441 1.247 . S
O447 Cd436 2.439 . S
O447 C441 1.208 . S
O448 Cd449 2.223 . S
O448 C456 1.315 . S
Cd449 O448 2.223 . S
Cd449 O452 2.297 . S
Cd449 O453 2.439 . S
Cd449 O459 2.240 . S
Cd450 O451 2.240 . S
Cd450 O458 2.223 . S
Cd450 O460 2.297 . S
Cd450 O461 2.439 . S
O451 Cd450 2.240 . S
O451 C456 1.279 . S
O452 Cd449 2.297 . S
O452 C454 1.247 . S
O453 Cd449 2.439 . S
O453 C454 1.208 . S
C454 O452 1.247 . S
C454 O453 1.208 . S
C455 O460 1.247 . S
C455 O461 1.208 . S
C456 O448 1.315 . S
C456 O451 1.279 . S
C457 O458 1.315 . S
C457 O459 1.279 . S
O458 Cd450 2.223 . S
O458 C457 1.315 . S
O459 Cd449 2.240 . S
O459 C457 1.279 . S
O460 Cd450 2.297 . S
O460 C455 1.247 . S
O461 Cd450 2.439 . S
O461 C455 1.208 . S
O462 Cd463 2.223 . S
O462 C470 1.315 . S
Cd463 O462 2.223 . S
Cd463 O466 2.297 . S
Cd463 O467 2.439 . S
Cd463 O473 2.240 1_556 S
Cd464 O465 2.240 1_554 S
Cd464 O472 2.223 . S
Cd464 O474 2.297 . S
Cd464 O475 2.439 . S
O465 Cd464 2.240 1_556 S
O465 C470 1.279 . S
O466 Cd463 2.297 . S
O466 C468 1.247 . S
O467 Cd463 2.439 . S
O467 C468 1.208 . S
C468 O466 1.247 . S
C468 O467 1.208 . S
C469 O474 1.247 . S
C469 O475 1.208 . S
C470 O462 1.315 . S
C470 O465 1.279 . S
C471 O472 1.315 . S
C471 O473 1.279 . S
O472 Cd464 2.223 . S
O472 C471 1.315 . S
O473 Cd463 2.240 1_554 S
O473 C471 1.279 . S
O474 Cd464 2.297 . S
O474 C469 1.247 . S
O475 Cd464 2.439 . S
O475 C469 1.208 . S
O476 Cd477 2.223 . S
O476 C484 1.315 . S
Cd477 O476 2.223 . S
Cd477 O480 2.297 . S
Cd477 O481 2.439 . S
Cd477 O487 2.240 . S
Cd478 O479 2.240 . S
Cd478 O486 2.223 . S
Cd478 O488 2.297 . S
Cd478 O489 2.439 . S
O479 Cd478 2.240 . S
O479 C484 1.279 . S
O480 Cd477 2.297 . S
O480 C482 1.247 . S
O481 Cd477 2.439 . S
O481 C482 1.208 . S
C482 O480 1.247 . S
C482 O481 1.208 . S
C483 O488 1.247 . S
C483 O489 1.208 . S
C484 O476 1.315 . S
C484 O479 1.279 . S
C485 O486 1.315 . S
C485 O487 1.279 . S
O486 Cd478 2.223 . S
O486 C485 1.315 . S
O487 Cd477 2.240 . S
O487 C485 1.279 . S
O488 Cd478 2.297 . S
O488 C483 1.247 . S
O489 Cd478 2.439 . S
O489 C483 1.208 . S
O490 Cd491 2.223 . S
O490 C498 1.315 . S
Cd491 O490 2.223 . S
Cd491 O494 2.297 . S
Cd491 O495 2.439 . S
Cd491 O501 2.240 . S
Cd492 O493 2.240 . S
Cd492 O500 2.223 . S
Cd492 O502 2.297 . S
Cd492 O503 2.439 . S
O493 Cd492 2.240 . S
O493 C498 1.279 . S
O494 Cd491 2.297 . S
O494 C496 1.247 . S
O495 Cd491 2.439 . S
O495 C496 1.208 . S
C496 O494 1.247 . S
C496 O495 1.208 . S
C497 O502 1.247 . S
C497 O503 1.208 . S
C498 O490 1.315 . S
C498 O493 1.279 . S
C499 O500 1.315 . S
C499 O501 1.279 . S
O500 Cd492 2.223 . S
O500 C499 1.315 . S
O501 Cd491 2.240 . S
O501 C499 1.279 . S
O502 Cd492 2.297 . S
O502 C497 1.247 . S
O503 Cd492 2.439 . S
O503 C497 1.208 . S
O504 Cd505 2.223 . S
O504 C512 1.315 . S
Cd505 O504 2.223 . S
Cd505 O508 2.297 . S
Cd505 O509 2.439 . S
Cd505 O515 2.240 . S
Cd506 O507 2.240 . S
Cd506 O514 2.223 . S
Cd506 O516 2.297 . S
Cd506 O517 2.439 . S
O507 Cd506 2.240 . S
O507 C512 1.279 . S
O508 Cd505 2.297 . S
O508 C510 1.247 . S
O509 Cd505 2.439 . S
O509 C510 1.208 . S
C510 O508 1.247 . S
C510 O509 1.208 . S
C511 O516 1.247 . S
C511 O517 1.208 . S
C512 O504 1.315 . S
C512 O507 1.279 . S
C513 O514 1.315 . S
C513 O515 1.279 . S
O514 Cd506 2.223 . S
O514 C513 1.315 . S
O515 Cd505 2.240 . S
O515 C513 1.279 . S
O516 Cd506 2.297 . S
O516 C511 1.247 . S
O517 Cd506 2.439 . S
O517 C511 1.208 . S
O518 Cd519 2.223 . S
O518 C526 1.315 . S
Cd519 O518 2.223 . S
Cd519 O522 2.297 . S
Cd519 O523 2.439 . S
Cd519 O529 2.240 1_554 S
Cd520 O521 2.240 1_556 S
Cd520 O528 2.223 . S
Cd520 O530 2.297 . S
Cd520 O531 2.439 . S
O521 Cd520 2.240 1_554 S
O521 C526 1.279 . S
O522 Cd519 2.297 . S
O522 C524 1.247 . S
O523 Cd519 2.439 . S
O523 C524 1.208 . S
C524 O522 1.247 . S
C524 O523 1.208 . S
C525 O530 1.247 . S
C525 O531 1.208 . S
C526 O518 1.315 . S
C526 O521 1.279 . S
C527 O528 1.315 . S
C527 O529 1.279 . S
O528 Cd520 2.223 . S
O528 C527 1.315 . S
O529 Cd519 2.240 1_556 S
O529 C527 1.279 . S
O530 Cd520 2.297 . S
O530 C525 1.247 . S
O531 Cd520 2.439 . S
O531 C525 1.208 . S
O532 Cd533 2.223 . S
O532 C540 1.315 . S
Cd533 O532 2.223 . S
Cd533 O536 2.297 . S
Cd533 O537 2.439 . S
Cd533 O543 2.240 . S
Cd534 O535 2.240 . S
Cd534 O542 2.223 . S
Cd534 O544 2.297 . S
Cd534 O545 2.439 . S
O535 Cd534 2.240 . S
O535 C540 1.279 . S
O536 Cd533 2.297 . S
O536 C538 1.247 . S
O537 Cd533 2.439 . S
O537 C538 1.208 . S
C538 O536 1.247 . S
C538 O537 1.208 . S
C539 O544 1.247 . S
C539 O545 1.208 . S
C540 O532 1.315 . S
C540 O535 1.279 . S
C541 O542 1.315 . S
C541 O543 1.279 . S
O542 Cd534 2.223 . S
O542 C541 1.315 . S
O543 Cd533 2.240 . S
O543 C541 1.279 . S
O544 Cd534 2.297 . S
O544 C539 1.247 . S
O545 Cd534 2.439 . S
O545 C539 1.208 . S
O546 Cd547 2.223 . S
O546 C554 1.315 . S
Cd547 O546 2.223 . S
Cd547 O550 2.297 . S
Cd547 O551 2.439 . S
Cd547 O557 2.240 . S
Cd548 O549 2.240 . S
Cd548 O556 2.223 . S
Cd548 O558 2.297 . S
Cd548 O559 2.439 . S
O549 Cd548 2.240 . S
O549 C554 1.279 . S
O550 Cd547 2.297 . S
O550 C552 1.247 . S
O551 Cd547 2.439 . S
O551 C552 1.208 . S
C552 O550 1.247 . S
C552 O551 1.208 . S
C553 O558 1.247 . S
C553 O559 1.208 . S
C554 O546 1.315 . S
C554 O549 1.279 . S
C555 O556 1.315 . S
C555 O557 1.279 . S
O556 Cd548 2.223 . S
O556 C555 1.315 . S
O557 Cd547 2.240 . S
O557 C555 1.279 . S
O558 Cd548 2.297 . S
O558 C553 1.247 . S
O559 Cd548 2.439 . S
O559 C553 1.208 . S
O560 Cd561 2.223 . S
O560 C568 1.315 . S
Cd561 O560 2.223 . S
Cd561 O564 2.297 . S
Cd561 O565 2.439 . S
Cd561 O571 2.240 . S
Cd562 O563 2.240 . S
Cd562 O570 2.223 . S
Cd562 O572 2.297 . S
Cd562 O573 2.439 . S
O563 Cd562 2.240 . S
O563 C568 1.279 . S
O564 Cd561 2.297 . S
O564 C566 1.247 . S
O565 Cd561 2.439 . S
O565 C566 1.208 . S
C566 O564 1.247 . S
C566 O565 1.208 . S
C567 O572 1.247 . S
C567 O573 1.208 . S
C568 O560 1.315 . S
C568 O563 1.279 . S
C569 O570 1.315 . S
C569 O571 1.279 . S
O570 Cd562 2.223 . S
O570 C569 1.315 . S
O571 Cd561 2.240 . S
O571 C569 1.279 . S
O572 Cd562 2.297 . S
O572 C567 1.247 . S
O573 Cd562 2.439 . S
O573 C567 1.208 . S
O574 Cd575 2.223 . S
O574 C582 1.315 . S
Cd575 O574 2.223 . S
Cd575 O578 2.297 . S
Cd575 O579 2.439 . S
Cd575 O585 2.240 . S
Cd576 O577 2.240 . S
Cd576 O584 2.223 . S
Cd576 O586 2.297 . S
Cd576 O587 2.439 . S
O577 Cd576 2.240 . S
O577 C582 1.279 . S
O578 Cd575 2.297 . S
O578 C580 1.247 . S
O579 Cd575 2.439 . S
O579 C580 1.208 . S
C580 O578 1.247 . S
C580 O579 1.208 . S
C581 O586 1.247 . S
C581 O587 1.208 . S
C582 O574 1.315 . S
C582 O577 1.279 . S
C583 O584 1.315 . S
C583 O585 1.279 . S
O584 Cd576 2.223 . S
O584 C583 1.315 . S
O585 Cd575 2.240 . S
O585 C583 1.279 . S
O586 Cd576 2.297 . S
O586 C581 1.247 . S
O587 Cd576 2.439 . S
O587 C581 1.208 . S
O588 Cd589 2.223 . S
O588 C596 1.315 . S
Cd589 O588 2.223 . S
Cd589 O592 2.297 . S
Cd589 O593 2.439 . S
Cd589 O599 2.240 1_565 S
Cd590 O591 2.240 1_545 S
Cd590 O598 2.223 . S
Cd590 O600 2.297 . S
Cd590 O601 2.439 . S
O591 Cd590 2.240 1_565 S
O591 C596 1.279 . S
O592 Cd589 2.297 . S
O592 C594 1.247 . S
O593 Cd589 2.439 . S
O593 C594 1.208 . S
C594 O592 1.247 . S
C594 O593 1.208 . S
C595 O600 1.247 . S
C595 O601 1.208 . S
C596 O588 1.315 . S
C596 O591 1.279 . S
C597 O598 1.315 . S
C597 O599 1.279 . S
O598 Cd590 2.223 . S
O598 C597 1.315 . S
O599 Cd589 2.240 1_545 S
O599 C597 1.279 . S
O600 Cd590 2.297 . S
O600 C595 1.247 . S
O601 Cd590 2.439 . S
O601 C595 1.208 . S
O602 Cd603 2.223 . S
O602 C610 1.315 . S
Cd603 O602 2.223 . S
Cd603 O606 2.297 . S
Cd603 O607 2.439 . S
Cd603 O613 2.240 . S
Cd604 O605 2.240 . S
Cd604 O612 2.223 . S
Cd604 O614 2.297 . S
Cd604 O615 2.439 . S
O605 Cd604 2.240 . S
O605 C610 1.279 . S
O606 Cd603 2.297 . S
O606 C608 1.247 . S
O607 Cd603 2.439 . S
O607 C608 1.208 . S
C608 O606 1.247 . S
C608 O607 1.208 . S
C609 O614 1.247 . S
C609 O615 1.208 . S
C610 O602 1.315 . S
C610 O605 1.279 . S
C611 O612 1.315 . S
C611 O613 1.279 . S
O612 Cd604 2.223 . S
O612 C611 1.315 . S
O613 Cd603 2.240 . S
O613 C611 1.279 . S
O614 Cd604 2.297 . S
O614 C609 1.247 . S
O615 Cd604 2.439 . S
O615 C609 1.208 . S
O616 Cd617 2.223 . S
O616 C624 1.315 . S
Cd617 O616 2.223 . S
Cd617 O620 2.297 . S
Cd617 O621 2.439 . S
Cd617 O627 2.240 . S
Cd618 O619 2.240 . S
Cd618 O626 2.223 . S
Cd618 O628 2.297 . S
Cd618 O629 2.439 . S
O619 Cd618 2.240 . S
O619 C624 1.279 . S
O620 Cd617 2.297 . S
O620 C622 1.247 . S
O621 Cd617 2.439 . S
O621 C622 1.208 . S
C622 O620 1.247 . S
C622 O621 1.208 . S
C623 O628 1.247 . S
C623 O629 1.208 . S
C624 O616 1.315 . S
C624 O619 1.279 . S
C625 O626 1.315 . S
C625 O627 1.279 . S
O626 Cd618 2.223 . S
O626 C625 1.315 . S
O627 Cd617 2.240 . S
O627 C625 1.279 . S
O628 Cd618 2.297 . S
O628 C623 1.247 . S
O629 Cd618 2.439 . S
O629 C623 1.208 . S
O630 Cd631 2.223 . S
O630 C638 1.315 . S
Cd631 O630 2.223 . S
Cd631 O634 2.297 . S
Cd631 O635 2.439 . S
Cd631 O641 2.240 . S
Cd632 O633 2.240 . S
Cd632 O640 2.223 . S
Cd632 O642 2.297 . S
Cd632 O643 2.439 . S
O633 Cd632 2.240 . S
O633 C638 1.279 . S
O634 Cd631 2.297 . S
O634 C636 1.247 . S
O635 Cd631 2.439 . S
O635 C636 1.208 . S
C636 O634 1.247 . S
C636 O635 1.208 . S
C637 O642 1.247 . S
C637 O643 1.208 . S
C638 O630 1.315 . S
C638 O633 1.279 . S
C639 O640 1.315 . S
C639 O641 1.279 . S
O640 Cd632 2.223 . S
O640 C639 1.315 . S
O641 Cd631 2.240 . S
O641 C639 1.279 . S
O642 Cd632 2.297 . S
O642 C637 1.247 . S
O643 Cd632 2.439 . S
O643 C637 1.208 . S
O644 Cd645 2.223 . S
O644 C652 1.315 . S
Cd645 O644 2.223 . S
Cd645 O648 2.297 . S
Cd645 O649 2.439 . S
Cd645 O655 2.240 1_545 S
Cd646 O647 2.240 1_565 S
Cd646 O654 2.223 . S
Cd646 O656 2.297 . S
Cd646 O657 2.439 . S
O647 Cd646 2.240 1_545 S
O647 C652 1.279 . S
O648 Cd645 2.297 . S
O648 C650 1.247 . S
O649 Cd645 2.439 . S
O649 C650 1.208 . S
C650 O648 1.247 . S
C650 O649 1.208 . S
C651 O656 1.247 . S
C651 O657 1.208 . S
C652 O644 1.315 . S
C652 O647 1.279 . S
C653 O654 1.315 . S
C653 O655 1.279 . S
O654 Cd646 2.223 . S
O654 C653 1.315 . S
O655 Cd645 2.240 1_565 S
O655 C653 1.279 . S
O656 Cd646 2.297 . S
O656 C651 1.247 . S
O657 Cd646 2.439 . S
O657 C651 1.208 . S
O658 Cd659 2.223 . S
O658 C666 1.315 . S
Cd659 O658 2.223 . S
Cd659 O662 2.297 . S
Cd659 O663 2.439 . S
Cd659 O669 2.240 1_565 S
Cd660 O661 2.240 1_545 S
Cd660 O668 2.223 . S
Cd660 O670 2.297 . S
Cd660 O671 2.439 . S
O661 Cd660 2.240 1_565 S
O661 C666 1.279 . S
O662 Cd659 2.297 . S
O662 C664 1.247 . S
O663 Cd659 2.439 . S
O663 C664 1.208 . S
C664 O662 1.247 . S
C664 O663 1.208 . S
C665 O670 1.247 . S
C665 O671 1.208 . S
C666 O658 1.315 . S
C666 O661 1.279 . S
C667 O668 1.315 . S
C667 O669 1.279 . S
O668 Cd660 2.223 . S
O668 C667 1.315 . S
O669 Cd659 2.240 1_545 S
O669 C667 1.279 . S
O670 Cd660 2.297 . S
O670 C665 1.247 . S
O671 Cd660 2.439 . S
O671 C665 1.208 . S
H672 C678 0.930 . S
H673 C682 0.930 . S
H674 C687 0.929 . S
H675 C685 0.929 . S
H676 C680 0.929 . S
H677 C686 0.929 . S
C678 H672 0.930 . S
C678 C679 1.367 . S
C678 C686 1.378 . S
C679 C678 1.367 . S
C679 C687 1.433 . S
C680 H676 0.929 . S
C680 C682 1.378 . S
C680 C684 1.350 . S
C681 C684 1.463 . S
C681 C686 1.350 . S
C681 N689 1.427 . S
C682 H673 0.930 . S
C682 C680 1.378 . S
C682 C683 1.367 . S
C683 C682 1.367 . S
C683 C685 1.433 . S
C684 C680 1.350 . S
C684 C681 1.463 . S
C684 N688 1.427 . S
C685 H675 0.929 . S
C685 C683 1.433 . S
C685 N688 1.384 . S
C686 H677 0.929 . S
C686 C678 1.378 . S
C686 C681 1.350 . S
C687 H674 0.929 . S
C687 C679 1.433 . S
C687 N689 1.384 . S
N688 C684 1.427 . S
N688 C685 1.384 . S
N689 C681 1.427 . S
N689 C687 1.384 . S
H690 C696 0.930 . S
H691 C700 0.930 . S
H692 C705 0.929 . S
H693 C703 0.929 . S
H694 C698 0.929 . S
H695 C704 0.929 . S
C696 H690 0.930 . S
C696 C697 1.367 . S
C696 C704 1.378 . S
C697 C696 1.367 . S
C697 C705 1.433 . S
C698 H694 0.929 . S
C698 C700 1.378 . S
C698 C702 1.350 . S
C699 C702 1.463 . S
C699 C704 1.350 . S
C699 N707 1.427 . S
C700 H691 0.930 . S
C700 C698 1.378 . S
C700 C701 1.367 . S
C701 C700 1.367 . S
C701 C703 1.433 . S
C702 C698 1.350 . S
C702 C699 1.463 . S
C702 N706 1.427 . S
C703 H693 0.929 . S
C703 C701 1.433 . S
C703 N706 1.384 . S
C704 H695 0.929 . S
C704 C696 1.378 . S
C704 C699 1.350 . S
C705 H692 0.929 . S
C705 C697 1.433 . S
C705 N707 1.384 . S
N706 C702 1.427 . S
N706 C703 1.384 . S
N707 C699 1.427 . S
N707 C705 1.384 . S
H708 C714 0.930 . S
H709 C718 0.930 . S
H710 C723 0.929 . S
H711 C721 0.929 . S
H712 C716 0.929 . S
H713 C722 0.929 . S
C714 H708 0.930 . S
C714 C715 1.367 . S
C714 C722 1.378 . S
C715 C714 1.367 . S
C715 C723 1.433 . S
C716 H712 0.929 . S
C716 C718 1.378 . S
C716 C720 1.350 . S
C717 C720 1.463 . S
C717 C722 1.350 . S
C717 N725 1.427 . S
C718 H709 0.930 . S
C718 C716 1.378 . S
C718 C719 1.367 . S
C719 C718 1.367 . S
C719 C721 1.433 . S
C720 C716 1.350 . S
C720 C717 1.463 . S
C720 N724 1.427 . S
C721 H711 0.929 . S
C721 C719 1.433 . S
C721 N724 1.384 . S
C722 H713 0.929 . S
C722 C714 1.378 . S
C722 C717 1.350 . S
C723 H710 0.929 . S
C723 C715 1.433 . S
C723 N725 1.384 . S
N724 C720 1.427 . S
N724 C721 1.384 . S
N725 C717 1.427 . S
N725 C723 1.384 . S
H726 C732 0.930 . S
H727 C736 0.930 . S
H728 C741 0.929 . S
H729 C739 0.929 . S
H730 C734 0.929 . S
H731 C740 0.929 . S
C732 H726 0.930 . S
C732 C733 1.367 . S
C732 C740 1.378 . S
C733 C732 1.367 . S
C733 C741 1.433 . S
C734 H730 0.929 . S
C734 C736 1.378 . S
C734 C738 1.350 . S
C735 C738 1.463 . S
C735 C740 1.350 . S
C735 N743 1.427 . S
C736 H727 0.930 . S
C736 C734 1.378 . S
C736 C737 1.367 . S
C737 C736 1.367 . S
C737 C739 1.433 . S
C738 C734 1.350 . S
C738 C735 1.463 . S
C738 N742 1.427 . S
C739 H729 0.929 . S
C739 C737 1.433 . S
C739 N742 1.384 . S
C740 H731 0.929 . S
C740 C732 1.378 . S
C740 C735 1.350 . S
C741 H728 0.929 . S
C741 C733 1.433 . S
C741 N743 1.384 . S
N742 C738 1.427 . S
N742 C739 1.384 . S
N743 C735 1.427 . S
N743 C741 1.384 . S
H744 C750 0.930 . S
H745 C754 0.930 . S
H746 C759 0.929 . S
H747 C757 0.929 . S
H748 C752 0.929 . S
H749 C758 0.929 . S
C750 H744 0.930 . S
C750 C751 1.367 . S
C750 C758 1.378 . S
C751 C750 1.367 . S
C751 C759 1.433 . S
C752 H748 0.929 . S
C752 C754 1.378 . S
C752 C756 1.350 . S
C753 C756 1.463 . S
C753 C758 1.350 . S
C753 N761 1.427 . S
C754 H745 0.930 . S
C754 C752 1.378 . S
C754 C755 1.367 . S
C755 C754 1.367 . S
C755 C757 1.433 . S
C756 C752 1.350 . S
C756 C753 1.463 . S
C756 N760 1.427 . S
C757 H747 0.929 . S
C757 C755 1.433 . S
C757 N760 1.384 . S
C758 H749 0.929 . S
C758 C750 1.378 . S
C758 C753 1.350 . S
C759 H746 0.929 . S
C759 C751 1.433 . S
C759 N761 1.384 . S
N760 C756 1.427 . S
N760 C757 1.384 . S
N761 C753 1.427 . S
N761 C759 1.384 . S
H762 C768 0.930 . S
H763 C772 0.930 . S
H764 C777 0.929 . S
H765 C775 0.929 . S
H766 C770 0.929 . S
H767 C776 0.929 . S
C768 H762 0.930 . S
C768 C769 1.367 . S
C768 C776 1.378 . S
C769 C768 1.367 . S
C769 C777 1.433 . S
C770 H766 0.929 . S
C770 C772 1.378 . S
C770 C774 1.350 . S
C771 C774 1.463 . S
C771 C776 1.350 . S
C771 N779 1.427 . S
C772 H763 0.930 . S
C772 C770 1.378 . S
C772 C773 1.367 . S
C773 C772 1.367 . S
C773 C775 1.433 . S
C774 C770 1.350 . S
C774 C771 1.463 . S
C774 N778 1.427 . S
C775 H765 0.929 . S
C775 C773 1.433 . S
C775 N778 1.384 . S
C776 H767 0.929 . S
C776 C768 1.378 . S
C776 C771 1.350 . S
C777 H764 0.929 . S
C777 C769 1.433 . S
C777 N779 1.384 . S
N778 C774 1.427 . S
N778 C775 1.384 . S
N779 C771 1.427 . S
N779 C777 1.384 . S
H780 C786 0.930 . S
H781 C790 0.930 . S
H782 C795 0.929 . S
H783 C793 0.929 . S
H784 C788 0.929 . S
H785 C794 0.929 . S
C786 H780 0.930 . S
C786 C787 1.367 . S
C786 C794 1.378 . S
C787 C786 1.367 . S
C787 C795 1.433 . S
C788 H784 0.929 . S
C788 C790 1.378 . S
C788 C792 1.350 . S
C789 C792 1.463 . S
C789 C794 1.350 . S
C789 N797 1.427 . S
C790 H781 0.930 . S
C790 C788 1.378 . S
C790 C791 1.367 . S
C791 C790 1.367 . S
C791 C793 1.433 . S
C792 C788 1.350 . S
C792 C789 1.463 . S
C792 N796 1.427 . S
C793 H783 0.929 . S
C793 C791 1.433 . S
C793 N796 1.384 . S
C794 H785 0.929 . S
C794 C786 1.378 . S
C794 C789 1.350 . S
C795 H782 0.929 . S
C795 C787 1.433 . S
C795 N797 1.384 . S
N796 C792 1.427 . S
N796 C793 1.384 . S
N797 C789 1.427 . S
N797 C795 1.384 . S
H798 C804 0.930 . S
H799 C808 0.930 . S
H800 C813 0.929 . S
H801 C811 0.929 . S
H802 C806 0.929 . S
H803 C812 0.929 . S
C804 H798 0.930 . S
C804 C805 1.367 . S
C804 C812 1.378 . S
C805 C804 1.367 . S
C805 C813 1.433 . S
C806 H802 0.929 . S
C806 C808 1.378 . S
C806 C810 1.350 . S
C807 C810 1.463 . S
C807 C812 1.350 . S
C807 N815 1.427 . S
C808 H799 0.930 . S
C808 C806 1.378 . S
C808 C809 1.367 . S
C809 C808 1.367 . S
C809 C811 1.433 . S
C810 C806 1.350 . S
C810 C807 1.463 . S
C810 N814 1.427 . S
C811 H801 0.929 . S
C811 C809 1.433 . S
C811 N814 1.384 . S
C812 H803 0.929 . S
C812 C804 1.378 . S
C812 C807 1.350 . S
C813 H800 0.929 . S
C813 C805 1.433 . S
C813 N815 1.384 . S
N814 C810 1.427 . S
N814 C811 1.384 . S
N815 C807 1.427 . S
N815 C813 1.384 . S
H816 C822 0.930 . S
H817 C826 0.930 . S
H818 C831 0.929 . S
H819 C829 0.929 . S
H820 C824 0.929 . S
H821 C830 0.929 . S
C822 H816 0.930 . S
C822 C823 1.367 . S
C822 C830 1.378 . S
C823 C822 1.367 . S
C823 C831 1.433 . S
C824 H820 0.929 . S
C824 C826 1.378 . S
C824 C828 1.350 . S
C825 C828 1.463 . S
C825 C830 1.350 . S
C825 N833 1.427 . S
C826 H817 0.930 . S
C826 C824 1.378 . S
C826 C827 1.367 . S
C827 C826 1.367 . S
C827 C829 1.433 . S
C828 C824 1.350 . S
C828 C825 1.463 . S
C828 N832 1.427 . S
C829 H819 0.929 . S
C829 C827 1.433 . S
C829 N832 1.384 . S
C830 H821 0.929 . S
C830 C822 1.378 . S
C830 C825 1.350 . S
C831 H818 0.929 . S
C831 C823 1.433 . S
C831 N833 1.384 . S
N832 C828 1.427 . S
N832 C829 1.384 . S
N833 C825 1.427 . S
N833 C831 1.384 . S
H834 C840 0.930 . S
H835 C844 0.930 . S
H836 C849 0.929 . S
H837 C847 0.929 . S
H838 C842 0.929 . S
H839 C848 0.929 . S
C840 H834 0.930 . S
C840 C841 1.367 . S
C840 C848 1.378 . S
C841 C840 1.367 . S
C841 C849 1.433 . S
C842 H838 0.929 . S
C842 C844 1.378 . S
C842 C846 1.350 . S
C843 C846 1.463 . S
C843 C848 1.350 . S
C843 N851 1.427 . S
C844 H835 0.930 . S
C844 C842 1.378 . S
C844 C845 1.367 . S
C845 C844 1.367 . S
C845 C847 1.433 . S
C846 C842 1.350 . S
C846 C843 1.463 . S
C846 N850 1.427 . S
C847 H837 0.929 . S
C847 C845 1.433 . S
C847 N850 1.384 . S
C848 H839 0.929 . S
C848 C840 1.378 . S
C848 C843 1.350 . S
C849 H836 0.929 . S
C849 C841 1.433 . S
C849 N851 1.384 . S
N850 C846 1.427 . S
N850 C847 1.384 . S
N851 C843 1.427 . S
N851 C849 1.384 . S
H852 C858 0.930 . S
H853 C862 0.930 . S
H854 C867 0.929 . S
H855 C865 0.929 . S
H856 C860 0.929 . S
H857 C866 0.929 . S
C858 H852 0.930 . S
C858 C859 1.367 . S
C858 C866 1.378 . S
C859 C858 1.367 . S
C859 C867 1.433 . S
C860 H856 0.929 . S
C860 C862 1.378 . S
C860 C864 1.350 . S
C861 C864 1.463 . S
C861 C866 1.350 . S
C861 N869 1.427 . S
C862 H853 0.930 . S
C862 C860 1.378 . S
C862 C863 1.367 . S
C863 C862 1.367 . S
C863 C865 1.433 . S
C864 C860 1.350 . S
C864 C861 1.463 . S
C864 N868 1.427 . S
C865 H855 0.929 . S
C865 C863 1.433 . S
C865 N868 1.384 . S
C866 H857 0.929 . S
C866 C858 1.378 . S
C866 C861 1.350 . S
C867 H854 0.929 . S
C867 C859 1.433 . S
C867 N869 1.384 . S
N868 C864 1.427 . S
N868 C865 1.384 . S
N869 C861 1.427 . S
N869 C867 1.384 . S
H870 C876 0.930 . S
H871 C880 0.930 . S
H872 C885 0.929 . S
H873 C883 0.929 . S
H874 C878 0.929 . S
H875 C884 0.929 . S
C876 H870 0.930 . S
C876 C877 1.367 . S
C876 C884 1.378 . S
C877 C876 1.367 . S
C877 C885 1.433 . S
C878 H874 0.929 . S
C878 C880 1.378 . S
C878 C882 1.350 . S
C879 C882 1.463 . S
C879 C884 1.350 . S
C879 N887 1.427 . S
C880 H871 0.930 . S
C880 C878 1.378 . S
C880 C881 1.367 . S
C881 C880 1.367 . S
C881 C883 1.433 . S
C882 C878 1.350 . S
C882 C879 1.463 . S
C882 N886 1.427 . S
C883 H873 0.929 . S
C883 C881 1.433 . S
C883 N886 1.384 . S
C884 H875 0.929 . S
C884 C876 1.378 . S
C884 C879 1.350 . S
C885 H872 0.929 . S
C885 C877 1.433 . S
C885 N887 1.384 . S
N886 C882 1.427 . S
N886 C883 1.384 . S
N887 C879 1.427 . S
N887 C885 1.384 . S
H888 C894 0.930 . S
H889 C898 0.930 . S
H890 C903 0.929 . S
H891 C901 0.929 . S
H892 C896 0.929 . S
H893 C902 0.929 . S
C894 H888 0.930 . S
C894 C895 1.367 . S
C894 C902 1.378 . S
C895 C894 1.367 . S
C895 C903 1.433 . S
C896 H892 0.929 . S
C896 C898 1.378 . S
C896 C900 1.350 . S
C897 C900 1.463 . S
C897 C902 1.350 . S
C897 N905 1.427 . S
C898 H889 0.930 . S
C898 C896 1.378 . S
C898 C899 1.367 . S
C899 C898 1.367 . S
C899 C901 1.433 . S
C900 C896 1.350 . S
C900 C897 1.463 . S
C900 N904 1.427 . S
C901 H891 0.929 . S
C901 C899 1.433 . S
C901 N904 1.384 . S
C902 H893 0.929 . S
C902 C894 1.378 . S
C902 C897 1.350 . S
C903 H890 0.929 . S
C903 C895 1.433 . S
C903 N905 1.384 . S
N904 C900 1.427 . S
N904 C901 1.384 . S
N905 C897 1.427 . S
N905 C903 1.384 . S
H906 C912 0.930 . S
H907 C916 0.930 . S
H908 C921 0.929 . S
H909 C919 0.929 . S
H910 C914 0.929 . S
H911 C920 0.929 . S
C912 H906 0.930 . S
C912 C913 1.367 . S
C912 C920 1.378 . S
C913 C912 1.367 . S
C913 C921 1.433 . S
C914 H910 0.929 . S
C914 C916 1.378 . S
C914 C918 1.350 . S
C915 C918 1.463 . S
C915 C920 1.350 . S
C915 N923 1.427 . S
C916 H907 0.930 . S
C916 C914 1.378 . S
C916 C917 1.367 . S
C917 C916 1.367 . S
C917 C919 1.433 . S
C918 C914 1.350 . S
C918 C915 1.463 . S
C918 N922 1.427 . S
C919 H909 0.929 . S
C919 C917 1.433 . S
C919 N922 1.384 . S
C920 H911 0.929 . S
C920 C912 1.378 . S
C920 C915 1.350 . S
C921 H908 0.929 . S
C921 C913 1.433 . S
C921 N923 1.384 . S
N922 C918 1.427 . S
N922 C919 1.384 . S
N923 C915 1.427 . S
N923 C921 1.384 . S
H924 C930 0.930 . S
H925 C934 0.930 . S
H926 C939 0.929 . S
H927 C937 0.929 . S
H928 C932 0.929 . S
H929 C938 0.929 . S
C930 H924 0.930 . S
C930 C931 1.367 . S
C930 C938 1.378 . S
C931 C930 1.367 . S
C931 C939 1.433 . S
C932 H928 0.929 . S
C932 C934 1.378 . S
C932 C936 1.350 . S
C933 C936 1.463 . S
C933 C938 1.350 . S
C933 N941 1.427 . S
C934 H925 0.930 . S
C934 C932 1.378 . S
C934 C935 1.367 . S
C935 C934 1.367 . S
C935 C937 1.433 . S
C936 C932 1.350 . S
C936 C933 1.463 . S
C936 N940 1.427 . S
C937 H927 0.929 . S
C937 C935 1.433 . S
C937 N940 1.384 . S
C938 H929 0.929 . S
C938 C930 1.378 . S
C938 C933 1.350 . S
C939 H926 0.929 . S
C939 C931 1.433 . S
C939 N941 1.384 . S
N940 C936 1.427 . S
N940 C937 1.384 . S
N941 C933 1.427 . S
N941 C939 1.384 . S
H942 C948 0.930 . S
H943 C952 0.930 . S
H944 C957 0.929 . S
H945 C955 0.929 . S
H946 C950 0.929 . S
H947 C956 0.929 . S
C948 H942 0.930 . S
C948 C949 1.367 . S
C948 C956 1.378 . S
C949 C948 1.367 . S
C949 C957 1.433 . S
C950 H946 0.929 . S
C950 C952 1.378 . S
C950 C954 1.350 . S
C951 C954 1.463 . S
C951 C956 1.350 . S
C951 N959 1.427 . S
C952 H943 0.930 . S
C952 C950 1.378 . S
C952 C953 1.367 . S
C953 C952 1.367 . S
C953 C955 1.433 . S
C954 C950 1.350 . S
C954 C951 1.463 . S
C954 N958 1.427 . S
C955 H945 0.929 . S
C955 C953 1.433 . S
C955 N958 1.384 . S
C956 H947 0.929 . S
C956 C948 1.378 . S
C956 C951 1.350 . S
C957 H944 0.929 . S
C957 C949 1.433 . S
C957 N959 1.384 . S
N958 C954 1.427 . S
N958 C955 1.384 . S
N959 C951 1.427 . S
N959 C957 1.384 . S
H960 C966 0.930 . S
H961 C970 0.930 . S
H962 C975 0.929 . S
H963 C973 0.929 . S
H964 C968 0.929 . S
H965 C974 0.929 . S
C966 H960 0.930 . S
C966 C967 1.367 . S
C966 C974 1.378 . S
C967 C966 1.367 . S
C967 C975 1.433 . S
C968 H964 0.929 . S
C968 C970 1.378 . S
C968 C972 1.350 . S
C969 C972 1.463 . S
C969 C974 1.350 . S
C969 N977 1.427 . S
C970 H961 0.930 . S
C970 C968 1.378 . S
C970 C971 1.367 . S
C971 C970 1.367 . S
C971 C973 1.433 . S
C972 C968 1.350 . S
C972 C969 1.463 . S
C972 N976 1.427 . S
C973 H963 0.929 . S
C973 C971 1.433 . S
C973 N976 1.384 . S
C974 H965 0.929 . S
C974 C966 1.378 . S
C974 C969 1.350 . S
C975 H962 0.929 . S
C975 C967 1.433 . S
C975 N977 1.384 . S
N976 C972 1.427 . S
N976 C973 1.384 . S
N977 C969 1.427 . S
N977 C975 1.384 . S
H978 C984 0.930 . S
H979 C988 0.930 . S
H980 C993 0.929 . S
H981 C991 0.929 . S
H982 C986 0.929 . S
H983 C992 0.929 . S
C984 H978 0.930 . S
C984 C985 1.367 . S
C984 C992 1.378 . S
C985 C984 1.367 . S
C985 C993 1.433 . S
C986 H982 0.929 . S
C986 C988 1.378 . S
C986 C990 1.350 . S
C987 C990 1.463 . S
C987 C992 1.350 . S
C987 N995 1.427 . S
C988 H979 0.930 . S
C988 C986 1.378 . S
C988 C989 1.367 . S
C989 C988 1.367 . S
C989 C991 1.433 . S
C990 C986 1.350 . S
C990 C987 1.463 . S
C990 N994 1.427 . S
C991 H981 0.929 . S
C991 C989 1.433 . S
C991 N994 1.384 . S
C992 H983 0.929 . S
C992 C984 1.378 . S
C992 C987 1.350 . S
C993 H980 0.929 . S
C993 C985 1.433 . S
C993 N995 1.384 . S
N994 C990 1.427 . S
N994 C991 1.384 . S
N995 C987 1.427 . S
N995 C993 1.384 . S
H996 C1002 0.930 . S
H997 C1006 0.930 . S
H998 C1011 0.929 . S
H999 C1009 0.929 . S
H1000 C1004 0.929 . S
H1001 C1010 0.929 . S
C1002 H996 0.930 . S
C1002 C1003 1.367 . S
C1002 C1010 1.378 . S
C1003 C1002 1.367 . S
C1003 C1011 1.433 . S
C1004 H1000 0.929 . S
C1004 C1006 1.378 . S
C1004 C1008 1.350 . S
C1005 C1008 1.463 . S
C1005 C1010 1.350 . S
C1005 N1013 1.427 . S
C1006 H997 0.930 . S
C1006 C1004 1.378 . S
C1006 C1007 1.367 . S
C1007 C1006 1.367 . S
C1007 C1009 1.433 . S
C1008 C1004 1.350 . S
C1008 C1005 1.463 . S
C1008 N1012 1.427 . S
C1009 H999 0.929 . S
C1009 C1007 1.433 . S
C1009 N1012 1.384 . S
C1010 H1001 0.929 . S
C1010 C1002 1.378 . S
C1010 C1005 1.350 . S
C1011 H998 0.929 . S
C1011 C1003 1.433 . S
C1011 N1013 1.384 . S
N1012 C1008 1.427 . S
N1012 C1009 1.384 . S
N1013 C1005 1.427 . S
N1013 C1011 1.384 . S
H1014 C1020 0.930 . S
H1015 C1024 0.930 . S
H1016 C1029 0.929 . S
H1017 C1027 0.929 . S
H1018 C1022 0.929 . S
H1019 C1028 0.929 . S
C1020 H1014 0.930 . S
C1020 C1021 1.367 . S
C1020 C1028 1.378 . S
C1021 C1020 1.367 . S
C1021 C1029 1.433 . S
C1022 H1018 0.929 . S
C1022 C1024 1.378 . S
C1022 C1026 1.350 . S
C1023 C1026 1.463 . S
C1023 C1028 1.350 . S
C1023 N1031 1.427 . S
C1024 H1015 0.930 . S
C1024 C1022 1.378 . S
C1024 C1025 1.367 . S
C1025 C1024 1.367 . S
C1025 C1027 1.433 . S
C1026 C1022 1.350 . S
C1026 C1023 1.463 . S
C1026 N1030 1.427 . S
C1027 H1017 0.929 . S
C1027 C1025 1.433 . S
C1027 N1030 1.384 . S
C1028 H1019 0.929 . S
C1028 C1020 1.378 . S
C1028 C1023 1.350 . S
C1029 H1016 0.929 . S
C1029 C1021 1.433 . S
C1029 N1031 1.384 . S
N1030 C1026 1.427 . S
N1030 C1027 1.384 . S
N1031 C1023 1.427 . S
N1031 C1029 1.384 . S
H1032 C1038 0.930 . S
H1033 C1042 0.930 . S
H1034 C1047 0.929 . S
H1035 C1045 0.929 . S
H1036 C1040 0.929 . S
H1037 C1046 0.929 . S
C1038 H1032 0.930 . S
C1038 C1039 1.367 . S
C1038 C1046 1.378 . S
C1039 C1038 1.367 . S
C1039 C1047 1.433 . S
C1040 H1036 0.929 . S
C1040 C1042 1.378 . S
C1040 C1044 1.350 . S
C1041 C1044 1.463 . S
C1041 C1046 1.350 . S
C1041 N1049 1.427 . S
C1042 H1033 0.930 . S
C1042 C1040 1.378 . S
C1042 C1043 1.367 . S
C1043 C1042 1.367 . S
C1043 C1045 1.433 . S
C1044 C1040 1.350 . S
C1044 C1041 1.463 . S
C1044 N1048 1.427 . S
C1045 H1035 0.929 . S
C1045 C1043 1.433 . S
C1045 N1048 1.384 . S
C1046 H1037 0.929 . S
C1046 C1038 1.378 . S
C1046 C1041 1.350 . S
C1047 H1034 0.929 . S
C1047 C1039 1.433 . S
C1047 N1049 1.384 . S
N1048 C1044 1.427 . S
N1048 C1045 1.384 . S
N1049 C1041 1.427 . S
N1049 C1047 1.384 . S
H1050 C1056 0.930 . S
H1051 C1060 0.930 . S
H1052 C1065 0.929 . S
H1053 C1063 0.929 . S
H1054 C1058 0.929 . S
H1055 C1064 0.929 . S
C1056 H1050 0.930 . S
C1056 C1057 1.367 . S
C1056 C1064 1.378 . S
C1057 C1056 1.367 . S
C1057 C1065 1.433 . S
C1058 H1054 0.929 . S
C1058 C1060 1.378 . S
C1058 C1062 1.350 . S
C1059 C1062 1.463 . S
C1059 C1064 1.350 . S
C1059 N1067 1.427 . S
C1060 H1051 0.930 . S
C1060 C1058 1.378 . S
C1060 C1061 1.367 . S
C1061 C1060 1.367 . S
C1061 C1063 1.433 . S
C1062 C1058 1.350 . S
C1062 C1059 1.463 . S
C1062 N1066 1.427 . S
C1063 H1053 0.929 . S
C1063 C1061 1.433 . S
C1063 N1066 1.384 . S
C1064 H1055 0.929 . S
C1064 C1056 1.378 . S
C1064 C1059 1.350 . S
C1065 H1052 0.929 . S
C1065 C1057 1.433 . S
C1065 N1067 1.384 . S
N1066 C1062 1.427 . S
N1066 C1063 1.384 . S
N1067 C1059 1.427 . S
N1067 C1065 1.384 . S
H1068 C1074 0.930 . S
H1069 C1078 0.930 . S
H1070 C1083 0.929 . S
H1071 C1081 0.929 . S
H1072 C1076 0.929 . S
H1073 C1082 0.929 . S
C1074 H1068 0.930 . S
C1074 C1075 1.367 . S
C1074 C1082 1.378 . S
C1075 C1074 1.367 . S
C1075 C1083 1.433 . S
C1076 H1072 0.929 . S
C1076 C1078 1.378 . S
C1076 C1080 1.350 . S
C1077 C1080 1.463 . S
C1077 C1082 1.350 . S
C1077 N1085 1.427 . S
C1078 H1069 0.930 . S
C1078 C1076 1.378 . S
C1078 C1079 1.367 . S
C1079 C1078 1.367 . S
C1079 C1081 1.433 . S
C1080 C1076 1.350 . S
C1080 C1077 1.463 . S
C1080 N1084 1.427 . S
C1081 H1071 0.929 . S
C1081 C1079 1.433 . S
C1081 N1084 1.384 . S
C1082 H1073 0.929 . S
C1082 C1074 1.378 . S
C1082 C1077 1.350 . S
C1083 H1070 0.929 . S
C1083 C1075 1.433 . S
C1083 N1085 1.384 . S
N1084 C1080 1.427 . S
N1084 C1081 1.384 . S
N1085 C1077 1.427 . S
N1085 C1083 1.384 . S
H1086 C1092 0.930 . S
H1087 C1096 0.930 . S
H1088 C1101 0.929 . S
H1089 C1099 0.929 . S
H1090 C1094 0.929 . S
H1091 C1100 0.929 . S
C1092 H1086 0.930 . S
C1092 C1093 1.367 . S
C1092 C1100 1.378 . S
C1093 C1092 1.367 . S
C1093 C1101 1.433 . S
C1094 H1090 0.929 . S
C1094 C1096 1.378 . S
C1094 C1098 1.350 . S
C1095 C1098 1.463 . S
C1095 C1100 1.350 . S
C1095 N1103 1.427 . S
C1096 H1087 0.930 . S
C1096 C1094 1.378 . S
C1096 C1097 1.367 . S
C1097 C1096 1.367 . S
C1097 C1099 1.433 . S
C1098 C1094 1.350 . S
C1098 C1095 1.463 . S
C1098 N1102 1.427 . S
C1099 H1089 0.929 . S
C1099 C1097 1.433 . S
C1099 N1102 1.384 . S
C1100 H1091 0.929 . S
C1100 C1092 1.378 . S
C1100 C1095 1.350 . S
C1101 H1088 0.929 . S
C1101 C1093 1.433 . S
C1101 N1103 1.384 . S
N1102 C1098 1.427 . S
N1102 C1099 1.384 . S
N1103 C1095 1.427 . S
N1103 C1101 1.384 . S
H1104 C1110 0.930 . S
H1105 C1114 0.930 . S
H1106 C1119 0.929 . S
H1107 C1117 0.929 . S
H1108 C1112 0.929 . S
H1109 C1118 0.929 . S
C1110 H1104 0.930 . S
C1110 C1111 1.367 . S
C1110 C1118 1.378 . S
C1111 C1110 1.367 . S
C1111 C1119 1.433 . S
C1112 H1108 0.929 . S
C1112 C1114 1.378 . S
C1112 C1116 1.350 . S
C1113 C1116 1.463 . S
C1113 C1118 1.350 . S
C1113 N1121 1.427 . S
C1114 H1105 0.930 . S
C1114 C1112 1.378 . S
C1114 C1115 1.367 . S
C1115 C1114 1.367 . S
C1115 C1117 1.433 . S
C1116 C1112 1.350 . S
C1116 C1113 1.463 . S
C1116 N1120 1.427 . S
C1117 H1107 0.929 . S
C1117 C1115 1.433 . S
C1117 N1120 1.384 . S
C1118 H1109 0.929 . S
C1118 C1110 1.378 . S
C1118 C1113 1.350 . S
C1119 H1106 0.929 . S
C1119 C1111 1.433 . S
C1119 N1121 1.384 . S
N1120 C1116 1.427 . S
N1120 C1117 1.384 . S
N1121 C1113 1.427 . S
N1121 C1119 1.384 . S
H1122 C1128 0.930 . S
H1123 C1132 0.930 . S
H1124 C1137 0.929 . S
H1125 C1135 0.929 . S
H1126 C1130 0.929 . S
H1127 C1136 0.929 . S
C1128 H1122 0.930 . S
C1128 C1129 1.367 . S
C1128 C1136 1.378 . S
C1129 C1128 1.367 . S
C1129 C1137 1.433 . S
C1130 H1126 0.929 . S
C1130 C1132 1.378 . S
C1130 C1134 1.350 . S
C1131 C1134 1.463 . S
C1131 C1136 1.350 . S
C1131 N1139 1.427 . S
C1132 H1123 0.930 . S
C1132 C1130 1.378 . S
C1132 C1133 1.367 . S
C1133 C1132 1.367 . S
C1133 C1135 1.433 . S
C1134 C1130 1.350 . S
C1134 C1131 1.463 . S
C1134 N1138 1.427 . S
C1135 H1125 0.929 . S
C1135 C1133 1.433 . S
C1135 N1138 1.384 . S
C1136 H1127 0.929 . S
C1136 C1128 1.378 . S
C1136 C1131 1.350 . S
C1137 H1124 0.929 . S
C1137 C1129 1.433 . S
C1137 N1139 1.384 . S
N1138 C1134 1.427 . S
N1138 C1135 1.384 . S
N1139 C1131 1.427 . S
N1139 C1137 1.384 . S
H1140 C1146 0.930 . S
H1141 C1150 0.930 . S
H1142 C1155 0.929 . S
H1143 C1153 0.929 . S
H1144 C1148 0.929 . S
H1145 C1154 0.929 . S
C1146 H1140 0.930 . S
C1146 C1147 1.367 . S
C1146 C1154 1.378 . S
C1147 C1146 1.367 . S
C1147 C1155 1.433 . S
C1148 H1144 0.929 . S
C1148 C1150 1.378 . S
C1148 C1152 1.350 . S
C1149 C1152 1.463 . S
C1149 C1154 1.350 . S
C1149 N1157 1.427 . S
C1150 H1141 0.930 . S
C1150 C1148 1.378 . S
C1150 C1151 1.367 . S
C1151 C1150 1.367 . S
C1151 C1153 1.433 . S
C1152 C1148 1.350 . S
C1152 C1149 1.463 . S
C1152 N1156 1.427 . S
C1153 H1143 0.929 . S
C1153 C1151 1.433 . S
C1153 N1156 1.384 . S
C1154 H1145 0.929 . S
C1154 C1146 1.378 . S
C1154 C1149 1.350 . S
C1155 H1142 0.929 . S
C1155 C1147 1.433 . S
C1155 N1157 1.384 . S
N1156 C1152 1.427 . S
N1156 C1153 1.384 . S
N1157 C1149 1.427 . S
N1157 C1155 1.384 . S
H1158 C1164 0.930 . S
H1159 C1168 0.930 . S
H1160 C1173 0.929 . S
H1161 C1171 0.928 1_556 S
H1162 C1166 0.929 . S
H1163 C1172 0.929 . S
C1164 H1158 0.930 . S
C1164 C1165 1.367 . S
C1164 C1172 1.378 . S
C1165 C1164 1.367 . S
C1165 C1173 1.433 . S
C1166 H1162 0.929 . S
C1166 C1168 1.378 . S
C1166 C1170 1.350 1_554 S
C1167 C1170 1.463 . S
C1167 C1172 1.350 . S
C1167 N1175 1.427 . S
C1168 H1159 0.930 . S
C1168 C1166 1.378 . S
C1168 C1169 1.367 . S
C1169 C1168 1.367 . S
C1169 C1171 1.437 . S
C1170 C1166 1.350 1_556 S
C1170 C1167 1.463 . S
C1170 N1174 1.427 . S
C1171 H1161 0.928 1_554 S
C1171 C1169 1.437 . S
C1171 N1174 1.381 1_554 S
C1172 H1163 0.929 . S
C1172 C1164 1.378 . S
C1172 C1167 1.350 . S
C1173 H1160 0.929 . S
C1173 C1165 1.433 . S
C1173 N1175 1.384 . S
N1174 C1170 1.427 . S
N1174 C1171 1.381 1_556 S
N1175 C1167 1.427 . S
N1175 C1173 1.384 . S
H1176 C1182 0.930 . S
H1177 C1186 0.930 . S
H1178 C1191 0.929 . S
H1179 C1189 0.929 . S
H1180 C1184 0.929 . S
H1181 C1190 0.929 . S
C1182 H1176 0.930 . S
C1182 C1183 1.367 . S
C1182 C1190 1.378 . S
C1183 C1182 1.367 . S
C1183 C1191 1.433 . S
C1184 H1180 0.929 . S
C1184 C1186 1.378 . S
C1184 C1188 1.350 . S
C1185 C1188 1.463 . S
C1185 C1190 1.350 . S
C1185 N1193 1.427 . S
C1186 H1177 0.930 . S
C1186 C1184 1.378 . S
C1186 C1187 1.367 . S
C1187 C1186 1.367 . S
C1187 C1189 1.433 . S
C1188 C1184 1.350 . S
C1188 C1185 1.463 . S
C1188 N1192 1.427 . S
C1189 H1179 0.929 . S
C1189 C1187 1.433 . S
C1189 N1192 1.384 . S
C1190 H1181 0.929 . S
C1190 C1182 1.378 . S
C1190 C1185 1.350 . S
C1191 H1178 0.929 . S
C1191 C1183 1.433 . S
C1191 N1193 1.384 . S
N1192 C1188 1.427 . S
N1192 C1189 1.384 . S
N1193 C1185 1.427 . S
N1193 C1191 1.384 . S
H1194 C1200 0.930 . S
H1195 C1204 0.930 . S
H1196 C1209 0.929 . S
H1197 C1207 0.929 . S
H1198 C1202 0.929 . S
H1199 C1208 0.929 . S
C1200 H1194 0.930 . S
C1200 C1201 1.367 . S
C1200 C1208 1.378 . S
C1201 C1200 1.367 . S
C1201 C1209 1.433 . S
C1202 H1198 0.929 . S
C1202 C1204 1.378 . S
C1202 C1206 1.350 . S
C1203 C1206 1.463 . S
C1203 C1208 1.350 . S
C1203 N1211 1.427 . S
C1204 H1195 0.930 . S
C1204 C1202 1.378 . S
C1204 C1205 1.367 . S
C1205 C1204 1.367 . S
C1205 C1207 1.433 . S
C1206 C1202 1.350 . S
C1206 C1203 1.463 . S
C1206 N1210 1.427 . S
C1207 H1197 0.929 . S
C1207 C1205 1.433 . S
C1207 N1210 1.384 . S
C1208 H1199 0.929 . S
C1208 C1200 1.378 . S
C1208 C1203 1.350 . S
C1209 H1196 0.929 . S
C1209 C1201 1.433 . S
C1209 N1211 1.384 . S
N1210 C1206 1.427 . S
N1210 C1207 1.384 . S
N1211 C1203 1.427 . S
N1211 C1209 1.384 . S
H1212 C1218 0.930 . S
H1213 C1222 0.930 . S
H1214 C1227 0.929 . S
H1215 C1225 0.929 . S
H1216 C1220 0.929 . S
H1217 C1226 0.929 . S
C1218 H1212 0.930 . S
C1218 C1219 1.367 . S
C1218 C1226 1.378 . S
C1219 C1218 1.367 . S
C1219 C1227 1.433 . S
C1220 H1216 0.929 . S
C1220 C1222 1.378 . S
C1220 C1224 1.350 . S
C1221 C1224 1.463 . S
C1221 C1226 1.350 . S
C1221 N1229 1.427 . S
C1222 H1213 0.930 . S
C1222 C1220 1.378 . S
C1222 C1223 1.367 . S
C1223 C1222 1.367 . S
C1223 C1225 1.433 . S
C1224 C1220 1.350 . S
C1224 C1221 1.463 . S
C1224 N1228 1.427 . S
C1225 H1215 0.929 . S
C1225 C1223 1.433 . S
C1225 N1228 1.384 . S
C1226 H1217 0.929 . S
C1226 C1218 1.378 . S
C1226 C1221 1.350 . S
C1227 H1214 0.929 . S
C1227 C1219 1.433 . S
C1227 N1229 1.384 . S
N1228 C1224 1.427 . S
N1228 C1225 1.384 . S
N1229 C1221 1.427 . S
N1229 C1227 1.384 . S
H1230 C1236 0.930 . S
H1231 C1240 0.930 . S
H1232 C1245 0.929 . S
H1233 C1243 0.929 1_554 S
H1234 C1238 0.929 . S
H1235 C1244 0.929 . S
C1236 H1230 0.930 . S
C1236 C1237 1.367 . S
C1236 C1244 1.378 . S
C1237 C1236 1.367 . S
C1237 C1245 1.433 . S
C1238 H1234 0.929 . S
C1238 C1240 1.378 . S
C1238 C1242 1.350 1_556 S
C1239 C1242 1.463 . S
C1239 C1244 1.350 . S
C1239 N1247 1.427 . S
C1240 H1231 0.930 . S
C1240 C1238 1.378 . S
C1240 C1241 1.367 . S
C1241 C1240 1.367 . S
C1241 C1243 1.433 . S
C1242 C1238 1.350 1_554 S
C1242 C1239 1.463 . S
C1242 N1246 1.427 . S
C1243 H1233 0.929 1_556 S
C1243 C1241 1.433 . S
C1243 N1246 1.384 1_556 S
C1244 H1235 0.929 . S
C1244 C1236 1.378 . S
C1244 C1239 1.350 . S
C1245 H1232 0.929 . S
C1245 C1237 1.433 . S
C1245 N1247 1.384 . S
N1246 C1242 1.427 . S
N1246 C1243 1.384 1_554 S
N1247 C1239 1.427 . S
N1247 C1245 1.384 . S
H1248 C1254 0.930 . S
H1249 C1258 0.930 . S
H1250 C1263 0.929 . S
H1251 C1261 0.929 . S
H1252 C1256 0.929 . S
H1253 C1262 0.929 . S
C1254 H1248 0.930 . S
C1254 C1255 1.367 . S
C1254 C1262 1.378 . S
C1255 C1254 1.367 . S
C1255 C1263 1.433 . S
C1256 H1252 0.929 . S
C1256 C1258 1.378 . S
C1256 C1260 1.350 . S
C1257 C1260 1.463 . S
C1257 C1262 1.350 . S
C1257 N1265 1.427 . S
C1258 H1249 0.930 . S
C1258 C1256 1.378 . S
C1258 C1259 1.367 . S
C1259 C1258 1.367 . S
C1259 C1261 1.433 . S
C1260 C1256 1.350 . S
C1260 C1257 1.463 . S
C1260 N1264 1.427 . S
C1261 H1251 0.929 . S
C1261 C1259 1.433 . S
C1261 N1264 1.384 . S
C1262 H1253 0.929 . S
C1262 C1254 1.378 . S
C1262 C1257 1.350 . S
C1263 H1250 0.929 . S
C1263 C1255 1.433 . S
C1263 N1265 1.384 . S
N1264 C1260 1.427 . S
N1264 C1261 1.384 . S
N1265 C1257 1.427 . S
N1265 C1263 1.384 . S
H1266 C1272 0.930 . S
H1267 C1276 0.930 1_565 S
H1268 C1281 0.929 . S
H1269 C1279 0.929 . S
H1270 C1274 0.929 . S
H1271 C1280 0.929 . S
C1272 H1266 0.930 . S
C1272 C1273 1.367 . S
C1272 C1280 1.378 . S
C1273 C1272 1.367 . S
C1273 C1281 1.433 . S
C1274 H1270 0.929 . S
C1274 C1276 1.378 1_565 S
C1274 C1278 1.350 . S
C1275 C1278 1.463 . S
C1275 C1280 1.350 . S
C1275 N1283 1.427 . S
C1276 H1267 0.930 1_545 S
C1276 C1274 1.378 1_545 S
C1276 C1277 1.367 . S
C1277 C1276 1.367 . S
C1277 C1279 1.433 . S
C1278 C1274 1.350 . S
C1278 C1275 1.463 . S
C1278 N1282 1.427 1_565 S
C1279 H1269 0.929 . S
C1279 C1277 1.433 . S
C1279 N1282 1.384 . S
C1280 H1271 0.929 . S
C1280 C1272 1.378 . S
C1280 C1275 1.350 . S
C1281 H1268 0.929 . S
C1281 C1273 1.433 . S
C1281 N1283 1.384 . S
N1282 C1278 1.427 1_545 S
N1282 C1279 1.384 . S
N1283 C1275 1.427 . S
N1283 C1281 1.384 . S
H1284 C1290 0.930 . S
H1285 C1294 0.930 . S
H1286 C1299 0.929 . S
H1287 C1297 0.929 . S
H1288 C1292 0.929 . S
H1289 C1298 0.929 . S
C1290 H1284 0.930 . S
C1290 C1291 1.367 . S
C1290 C1298 1.378 . S
C1291 C1290 1.367 . S
C1291 C1299 1.433 . S
C1292 H1288 0.929 . S
C1292 C1294 1.378 . S
C1292 C1296 1.350 . S
C1293 C1296 1.463 . S
C1293 C1298 1.350 . S
C1293 N1301 1.427 . S
C1294 H1285 0.930 . S
C1294 C1292 1.378 . S
C1294 C1295 1.367 . S
C1295 C1294 1.367 . S
C1295 C1297 1.433 . S
C1296 C1292 1.350 . S
C1296 C1293 1.463 . S
C1296 N1300 1.427 . S
C1297 H1287 0.929 . S
C1297 C1295 1.433 . S
C1297 N1300 1.384 . S
C1298 H1289 0.929 . S
C1298 C1290 1.378 . S
C1298 C1293 1.350 . S
C1299 H1286 0.929 . S
C1299 C1291 1.433 . S
C1299 N1301 1.384 . S
N1300 C1296 1.427 . S
N1300 C1297 1.384 . S
N1301 C1293 1.427 . S
N1301 C1299 1.384 . S
H1302 C1308 0.930 . S
H1303 C1312 0.930 . S
H1304 C1317 0.929 . S
H1305 C1315 0.929 . S
H1306 C1310 0.929 . S
H1307 C1316 0.929 . S
C1308 H1302 0.930 . S
C1308 C1309 1.367 . S
C1308 C1316 1.378 . S
C1309 C1308 1.367 . S
C1309 C1317 1.433 . S
C1310 H1306 0.929 . S
C1310 C1312 1.378 . S
C1310 C1314 1.350 1_565 S
C1311 C1314 1.463 . S
C1311 C1316 1.350 . S
C1311 N1319 1.427 . S
C1312 H1303 0.930 . S
C1312 C1310 1.378 . S
C1312 C1313 1.367 . S
C1313 C1312 1.367 . S
C1313 C1315 1.433 . S
C1314 C1310 1.350 1_545 S
C1314 C1311 1.463 . S
C1314 N1318 1.427 . S
C1315 H1305 0.929 . S
C1315 C1313 1.433 . S
C1315 N1318 1.384 1_565 S
C1316 H1307 0.929 . S
C1316 C1308 1.378 . S
C1316 C1311 1.350 . S
C1317 H1304 0.929 . S
C1317 C1309 1.433 . S
C1317 N1319 1.384 . S
N1318 C1314 1.427 . S
N1318 C1315 1.384 1_545 S
N1319 C1311 1.427 . S
N1319 C1317 1.384 . S
H1320 C1326 0.930 . S
H1321 C1330 0.930 . S
H1322 C1335 0.929 . S
H1323 C1333 0.929 . S
H1324 C1328 0.929 . S
H1325 C1334 0.929 . S
C1326 H1320 0.930 . S
C1326 C1327 1.367 . S
C1326 C1334 1.378 . S
C1327 C1326 1.367 . S
C1327 C1335 1.433 . S
C1328 H1324 0.929 . S
C1328 C1330 1.378 . S
C1328 C1332 1.350 . S
C1329 C1332 1.463 . S
C1329 C1334 1.350 . S
C1329 N1337 1.427 . S
C1330 H1321 0.930 . S
C1330 C1328 1.378 . S
C1330 C1331 1.367 . S
C1331 C1330 1.367 . S
C1331 C1333 1.433 . S
C1332 C1328 1.350 . S
C1332 C1329 1.463 . S
C1332 N1336 1.427 . S
C1333 H1323 0.929 . S
C1333 C1331 1.433 . S
C1333 N1336 1.384 . S
C1334 H1325 0.929 . S
C1334 C1326 1.378 . S
C1334 C1329 1.350 . S
C1335 H1322 0.929 . S
C1335 C1327 1.433 . S
C1335 N1337 1.384 . S
N1336 C1332 1.427 . S
N1336 C1333 1.384 . S
N1337 C1329 1.427 . S
N1337 C1335 1.384 . S
H1338 C1344 0.930 . S
H1339 C1348 0.924 1_565 S
H1340 C1353 0.929 . S
H1341 C1351 0.929 . S
H1342 C1346 0.929 . S
H1343 C1352 0.929 . S
C1344 H1338 0.930 . S
C1344 C1345 1.367 . S
C1344 C1352 1.378 . S
C1345 C1344 1.367 . S
C1345 C1353 1.433 . S
C1346 H1342 0.929 . S
C1346 C1348 1.378 1_565 S
C1346 C1350 1.350 . S
C1347 C1350 1.463 . S
C1347 C1352 1.350 . S
C1347 N1355 1.427 . S
C1348 H1339 0.924 1_545 S
C1348 C1346 1.378 1_545 S
C1348 C1349 1.367 . S
C1349 C1348 1.367 . S
C1349 C1351 1.433 . S
C1350 C1346 1.350 . S
C1350 C1347 1.463 . S
C1350 N1354 1.427 1_565 S
C1351 H1341 0.929 . S
C1351 C1349 1.433 . S
C1351 N1354 1.384 . S
C1352 H1343 0.929 . S
C1352 C1344 1.378 . S
C1352 C1347 1.350 . S
C1353 H1340 0.929 . S
C1353 C1345 1.433 . S
C1353 N1355 1.384 . S
N1354 C1350 1.427 1_545 S
N1354 C1351 1.384 . S
N1355 C1347 1.427 . S
N1355 C1353 1.384 . S
H1356 C1362 0.930 . S
H1357 C1366 0.930 . S
H1358 C1371 0.929 . S
H1359 C1369 0.929 . S
H1360 C1364 0.929 . S
H1361 C1370 0.929 . S
C1362 H1356 0.930 . S
C1362 C1363 1.367 . S
C1362 C1370 1.378 . S
C1363 C1362 1.367 . S
C1363 C1371 1.433 . S
C1364 H1360 0.929 . S
C1364 C1366 1.378 . S
C1364 C1368 1.350 . S
C1365 C1368 1.463 . S
C1365 C1370 1.350 . S
C1365 N1373 1.427 . S
C1366 H1357 0.930 . S
C1366 C1364 1.378 . S
C1366 C1367 1.367 . S
C1367 C1366 1.367 . S
C1367 C1369 1.433 . S
C1368 C1364 1.350 . S
C1368 C1365 1.463 . S
C1368 N1372 1.427 . S
C1369 H1359 0.929 . S
C1369 C1367 1.433 . S
C1369 N1372 1.384 . S
C1370 H1361 0.929 . S
C1370 C1362 1.378 . S
C1370 C1365 1.350 . S
C1371 H1358 0.929 . S
C1371 C1363 1.433 . S
C1371 N1373 1.384 . S
N1372 C1368 1.427 . S
N1372 C1369 1.384 . S
N1373 C1365 1.427 . S
N1373 C1371 1.384 . S
H1374 C1380 0.930 . S
H1375 C1384 0.930 . S
H1376 C1389 0.929 1_554 S
H1377 C1387 0.929 . S
H1378 C1382 0.929 . S
H1379 C1388 0.929 . S
C1380 H1374 0.930 . S
C1380 C1381 1.367 . S
C1380 C1388 1.378 . S
C1381 C1380 1.367 . S
C1381 C1389 1.433 . S
C1382 H1378 0.929 . S
C1382 C1384 1.378 . S
C1382 C1386 1.350 . S
C1383 C1386 1.463 . S
C1383 C1388 1.350 1_545 S
C1383 N1391 1.427 . S
C1384 H1375 0.930 . S
C1384 C1382 1.378 . S
C1384 C1385 1.367 . S
C1385 C1384 1.367 . S
C1385 C1387 1.433 . S
C1386 C1382 1.350 . S
C1386 C1383 1.463 . S
C1386 N1390 1.427 . S
C1387 H1377 0.929 . S
C1387 C1385 1.433 . S
C1387 N1390 1.384 . S
C1388 H1379 0.929 . S
C1388 C1380 1.378 . S
C1388 C1383 1.350 1_565 S
C1389 H1376 0.929 1_556 S
C1389 C1381 1.433 . S
C1389 N1391 1.384 1_565 S
N1390 C1386 1.427 . S
N1390 C1387 1.384 . S
N1391 C1383 1.427 . S
N1391 C1389 1.384 1_545 S
H1392 C1398 0.930 . S
H1393 C1402 0.930 . S
H1394 C1407 0.929 . S
H1395 C1405 0.929 . S
H1396 C1400 0.929 . S
H1397 C1406 0.929 . S
C1398 H1392 0.930 . S
C1398 C1399 1.367 . S
C1398 C1406 1.378 . S
C1399 C1398 1.367 . S
C1399 C1407 1.433 . S
C1400 H1396 0.929 . S
C1400 C1402 1.378 . S
C1400 C1404 1.350 . S
C1401 C1404 1.463 . S
C1401 C1406 1.350 . S
C1401 N1409 1.427 . S
C1402 H1393 0.930 . S
C1402 C1400 1.378 . S
C1402 C1403 1.367 . S
C1403 C1402 1.367 . S
C1403 C1405 1.433 . S
C1404 C1400 1.350 . S
C1404 C1401 1.463 . S
C1404 N1408 1.427 . S
C1405 H1395 0.929 . S
C1405 C1403 1.433 . S
C1405 N1408 1.384 . S
C1406 H1397 0.929 . S
C1406 C1398 1.378 . S
C1406 C1401 1.350 . S
C1407 H1394 0.929 . S
C1407 C1399 1.433 . S
C1407 N1409 1.384 . S
N1408 C1404 1.427 . S
N1408 C1405 1.384 . S
N1409 C1401 1.427 . S
N1409 C1407 1.384 . S
H1410 C1416 0.930 . S
H1411 C1420 0.930 . S
H1412 C1425 0.929 . S
H1413 C1423 0.929 . S
H1414 C1418 0.929 . S
H1415 C1424 0.929 . S
C1416 H1410 0.930 . S
C1416 C1417 1.367 . S
C1416 C1424 1.378 . S
C1417 C1416 1.367 . S
C1417 C1425 1.433 . S
C1418 H1414 0.929 . S
C1418 C1420 1.378 . S
C1418 C1422 1.350 . S
C1419 C1422 1.463 . S
C1419 C1424 1.350 . S
C1419 N1427 1.427 . S
C1420 H1411 0.930 . S
C1420 C1418 1.378 . S
C1420 C1421 1.367 . S
C1421 C1420 1.367 . S
C1421 C1423 1.433 . S
C1422 C1418 1.350 . S
C1422 C1419 1.463 . S
C1422 N1426 1.427 . S
C1423 H1413 0.929 . S
C1423 C1421 1.433 . S
C1423 N1426 1.384 . S
C1424 H1415 0.929 . S
C1424 C1416 1.378 . S
C1424 C1419 1.350 . S
C1425 H1412 0.929 . S
C1425 C1417 1.433 . S
C1425 N1427 1.384 . S
N1426 C1422 1.427 . S
N1426 C1423 1.384 . S
N1427 C1419 1.427 . S
N1427 C1425 1.384 . S
H1428 C1434 0.930 . S
H1429 C1438 0.930 . S
H1430 C1443 0.984 . S
H1431 C1441 0.929 . S
H1432 C1436 0.929 . S
H1433 C1442 0.929 . S
C1434 H1428 0.930 . S
C1434 C1435 1.367 . S
C1434 C1442 1.378 . S
C1435 C1434 1.367 . S
C1435 C1443 1.433 . S
C1436 H1432 0.929 . S
C1436 C1438 1.378 . S
C1436 C1440 1.350 1_455 S
C1437 C1440 1.463 . S
C1437 C1442 1.350 . S
C1437 N1445 1.427 . S
C1438 H1429 0.930 . S
C1438 C1436 1.378 . S
C1438 C1439 1.367 . S
C1439 C1438 1.367 . S
C1439 C1441 1.433 . S
C1440 C1436 1.350 1_655 S
C1440 C1437 1.463 . S
C1440 N1444 1.427 . S
C1441 H1431 0.929 . S
C1441 C1439 1.433 . S
C1441 N1444 1.384 1_455 S
C1442 H1433 0.929 . S
C1442 C1434 1.378 . S
C1442 C1437 1.350 . S
C1443 H1430 0.984 . S
C1443 C1435 1.433 . S
C1443 N1445 1.384 . S
N1444 C1440 1.427 . S
N1444 C1441 1.384 1_655 S
N1445 C1437 1.427 . S
N1445 C1443 1.384 . S
H1446 C1452 0.930 . S
H1447 C1456 0.930 . S
H1448 C1461 0.929 . S
H1449 C1459 0.929 . S
H1450 C1454 0.929 . S
H1451 C1460 0.929 . S
C1452 H1446 0.930 . S
C1452 C1453 1.367 . S
C1452 C1460 1.378 . S
C1453 C1452 1.367 . S
C1453 C1461 1.433 . S
C1454 H1450 0.929 . S
C1454 C1456 1.378 . S
C1454 C1458 1.350 . S
C1455 C1458 1.463 . S
C1455 C1460 1.350 . S
C1455 N1463 1.427 . S
C1456 H1447 0.930 . S
C1456 C1454 1.378 . S
C1456 C1457 1.367 . S
C1457 C1456 1.367 . S
C1457 C1459 1.433 . S
C1458 C1454 1.350 . S
C1458 C1455 1.463 . S
C1458 N1462 1.427 . S
C1459 H1449 0.929 . S
C1459 C1457 1.433 . S
C1459 N1462 1.384 . S
C1460 H1451 0.929 . S
C1460 C1452 1.378 . S
C1460 C1455 1.350 . S
C1461 H1448 0.929 . S
C1461 C1453 1.433 . S
C1461 N1463 1.384 . S
N1462 C1458 1.427 . S
N1462 C1459 1.384 . S
N1463 C1455 1.427 . S
N1463 C1461 1.384 . S
H1464 C1470 0.930 . S
H1465 C1474 0.930 . S
H1466 C1479 0.929 . S
H1467 C1477 0.929 1_455 S
H1468 C1472 0.929 . S
H1469 C1478 0.929 . S
C1470 H1464 0.930 . S
C1470 C1471 1.367 . S
C1470 C1478 1.378 . S
C1471 C1470 1.367 . S
C1471 C1479 1.433 . S
C1472 H1468 0.929 . S
C1472 C1474 1.378 . S
C1472 C1476 1.350 1_655 S
C1473 C1476 1.463 . S
C1473 C1478 1.350 . S
C1473 N1481 1.427 . S
C1474 H1465 0.930 . S
C1474 C1472 1.378 . S
C1474 C1475 1.367 . S
C1475 C1474 1.367 . S
C1475 C1477 1.433 . S
C1476 C1472 1.350 1_455 S
C1476 C1473 1.463 . S
C1476 N1480 1.427 . S
C1477 H1467 0.929 1_655 S
C1477 C1475 1.433 . S
C1477 N1480 1.384 1_655 S
C1478 H1469 0.929 . S
C1478 C1470 1.378 . S
C1478 C1473 1.350 . S
C1479 H1466 0.929 . S
C1479 C1471 1.433 . S
C1479 N1481 1.384 . S
N1480 C1476 1.427 . S
N1480 C1477 1.384 1_455 S
N1481 C1473 1.427 . S
N1481 C1479 1.384 . S
H1482 C1488 0.930 . S
H1483 C1492 0.930 . S
H1484 C1497 0.929 . S
H1485 C1495 0.929 . S
H1486 C1490 0.929 . S
H1487 C1496 0.929 . S
C1488 H1482 0.930 . S
C1488 C1489 1.367 . S
C1488 C1496 1.378 . S
C1489 C1488 1.367 . S
C1489 C1497 1.433 . S
C1490 H1486 0.929 . S
C1490 C1492 1.378 . S
C1490 C1494 1.350 . S
C1491 C1494 1.463 . S
C1491 C1496 1.350 . S
C1491 N1499 1.427 . S
C1492 H1483 0.930 . S
C1492 C1490 1.378 . S
C1492 C1493 1.367 . S
C1493 C1492 1.367 . S
C1493 C1495 1.433 . S
C1494 C1490 1.350 . S
C1494 C1491 1.463 . S
C1494 N1498 1.427 . S
C1495 H1485 0.929 . S
C1495 C1493 1.433 . S
C1495 N1498 1.384 . S
C1496 H1487 0.929 . S
C1496 C1488 1.378 . S
C1496 C1491 1.350 . S
C1497 H1484 0.929 . S
C1497 C1489 1.433 . S
C1497 N1499 1.384 . S
N1498 C1494 1.427 . S
N1498 C1495 1.384 . S
N1499 C1491 1.427 . S
N1499 C1497 1.384 . S
H1500 C1506 0.930 . S
H1501 C1510 0.930 . S
H1502 C1515 0.929 . S
H1503 C1513 0.929 . S
H1504 C1508 0.929 . S
H1505 C1514 0.929 . S
C1506 H1500 0.930 . S
C1506 C1507 1.367 . S
C1506 C1514 1.378 . S
C1507 C1506 1.367 . S
C1507 C1515 1.433 . S
C1508 H1504 0.929 . S
C1508 C1510 1.378 1_655 S
C1508 C1512 1.350 . S
C1509 C1512 1.463 . S
C1509 C1514 1.350 . S
C1509 N1517 1.427 . S
C1510 H1501 0.930 . S
C1510 C1508 1.378 1_455 S
C1510 C1511 1.367 . S
C1511 C1510 1.367 . S
C1511 C1513 1.433 . S
C1512 C1508 1.350 . S
C1512 C1509 1.463 . S
C1512 N1516 1.427 1_655 S
C1513 H1503 0.929 . S
C1513 C1511 1.433 . S
C1513 N1516 1.384 . S
C1514 H1505 0.929 . S
C1514 C1506 1.378 . S
C1514 C1509 1.350 . S
C1515 H1502 0.929 . S
C1515 C1507 1.433 . S
C1515 N1517 1.384 . S
N1516 C1512 1.427 1_455 S
N1516 C1513 1.384 . S
N1517 C1509 1.427 . S
N1517 C1515 1.384 . S
H1518 C1524 0.930 . S
H1519 C1528 0.930 . S
H1520 C1533 0.929 . S
H1521 C1531 0.929 . S
H1522 C1526 0.929 . S
H1523 C1532 0.929 . S
C1524 H1518 0.930 . S
C1524 C1525 1.367 . S
C1524 C1532 1.378 . S
C1525 C1524 1.367 . S
C1525 C1533 1.433 . S
C1526 H1522 0.929 . S
C1526 C1528 1.378 . S
C1526 C1530 1.350 . S
C1527 C1530 1.463 . S
C1527 C1532 1.350 . S
C1527 N1535 1.427 . S
C1528 H1519 0.930 . S
C1528 C1526 1.378 . S
C1528 C1529 1.367 . S
C1529 C1528 1.367 . S
C1529 C1531 1.433 . S
C1530 C1526 1.350 . S
C1530 C1527 1.463 . S
C1530 N1534 1.427 . S
C1531 H1521 0.929 . S
C1531 C1529 1.433 . S
C1531 N1534 1.384 . S
C1532 H1523 0.929 . S
C1532 C1524 1.378 . S
C1532 C1527 1.350 . S
C1533 H1520 0.929 . S
C1533 C1525 1.433 . S
C1533 N1535 1.384 . S
N1534 C1530 1.427 . S
N1534 C1531 1.384 . S
N1535 C1527 1.427 . S
N1535 C1533 1.384 . S
H1536 C1542 0.930 . S
H1537 C1546 0.930 . S
H1538 C1551 0.929 . S
H1539 C1549 0.929 . S
H1540 C1544 0.929 . S
H1541 C1550 0.929 . S
C1542 H1536 0.930 . S
C1542 C1543 1.367 . S
C1542 C1550 1.378 . S
C1543 C1542 1.367 . S
C1543 C1551 1.433 . S
C1544 H1540 0.929 . S
C1544 C1546 1.378 . S
C1544 C1548 1.350 . S
C1545 C1548 1.463 . S
C1545 C1550 1.350 . S
C1545 N1553 1.427 . S
C1546 H1537 0.930 . S
C1546 C1544 1.378 . S
C1546 C1547 1.367 . S
C1547 C1546 1.367 . S
C1547 C1549 1.433 . S
C1548 C1544 1.350 . S
C1548 C1545 1.463 . S
C1548 N1552 1.427 . S
C1549 H1539 0.929 . S
C1549 C1547 1.433 . S
C1549 N1552 1.384 . S
C1550 H1541 0.929 . S
C1550 C1542 1.378 . S
C1550 C1545 1.350 . S
C1551 H1538 0.929 . S
C1551 C1543 1.433 . S
C1551 N1553 1.384 . S
N1552 C1548 1.427 . S
N1552 C1549 1.384 . S
N1553 C1545 1.427 . S
N1553 C1551 1.384 . S
H1554 C1560 0.930 1_556 S
H1555 C1564 0.930 . S
H1556 C1569 0.929 . S
H1557 C1567 0.929 . S
H1558 C1562 0.929 . S
H1559 C1568 0.929 . S
C1560 H1554 0.930 1_554 S
C1560 C1561 1.367 . S
C1560 C1568 1.378 1_554 S
C1561 C1560 1.367 . S
C1561 C1569 1.433 . S
C1562 H1558 0.929 . S
C1562 C1564 1.378 . S
C1562 C1566 1.350 . S
C1563 C1566 1.463 . S
C1563 C1568 1.350 . S
C1563 N1571 1.427 1_556 S
C1564 H1555 0.930 . S
C1564 C1562 1.378 . S
C1564 C1565 1.367 . S
C1565 C1564 1.367 . S
C1565 C1567 1.433 . S
C1566 C1562 1.350 . S
C1566 C1563 1.463 . S
C1566 N1570 1.427 . S
C1567 H1557 0.929 . S
C1567 C1565 1.433 . S
C1567 N1570 1.384 . S
C1568 H1559 0.929 . S
C1568 C1560 1.378 1_556 S
C1568 C1563 1.350 . S
C1569 H1556 0.929 . S
C1569 C1561 1.433 . S
C1569 N1571 1.384 . S
N1570 C1566 1.427 . S
N1570 C1567 1.384 . S
N1571 C1563 1.427 1_554 S
N1571 C1569 1.384 . S
H1572 C1578 0.930 . S
H1573 C1582 0.930 . S
H1574 C1587 0.929 . S
H1575 C1585 0.929 . S
H1576 C1580 0.929 . S
H1577 C1586 0.929 . S
C1578 H1572 0.930 . S
C1578 C1579 1.367 . S
C1578 C1586 1.378 . S
C1579 C1578 1.367 . S
C1579 C1587 1.433 . S
C1580 H1576 0.929 . S
C1580 C1582 1.378 . S
C1580 C1584 1.350 . S
C1581 C1584 1.463 . S
C1581 C1586 1.350 . S
C1581 N1589 1.427 . S
C1582 H1573 0.930 . S
C1582 C1580 1.378 . S
C1582 C1583 1.367 . S
C1583 C1582 1.367 . S
C1583 C1585 1.433 . S
C1584 C1580 1.350 . S
C1584 C1581 1.463 . S
C1584 N1588 1.427 . S
C1585 H1575 0.929 . S
C1585 C1583 1.433 . S
C1585 N1588 1.384 . S
C1586 H1577 0.929 . S
C1586 C1578 1.378 . S
C1586 C1581 1.350 . S
C1587 H1574 0.929 . S
C1587 C1579 1.433 . S
C1587 N1589 1.384 . S
N1588 C1584 1.427 . S
N1588 C1585 1.384 . S
N1589 C1581 1.427 . S
N1589 C1587 1.384 . S
H1590 C1596 0.930 1_655 S
H1591 C1600 0.930 . S
H1592 C1605 0.929 . S
H1593 C1603 0.929 . S
H1594 C1598 0.929 . S
H1595 C1604 0.929 . S
C1596 H1590 0.930 1_455 S
C1596 C1597 1.367 . S
C1596 C1604 1.378 . S
C1597 C1596 1.367 . S
C1597 C1605 1.433 . S
C1598 H1594 0.929 . S
C1598 C1600 1.378 . S
C1598 C1602 1.350 . S
C1599 C1602 1.463 . S
C1599 C1604 1.350 . S
C1599 N1607 1.427 . S
C1600 H1591 0.930 . S
C1600 C1598 1.378 . S
C1600 C1601 1.367 . S
C1601 C1600 1.367 . S
C1601 C1603 1.433 . S
C1602 C1598 1.350 . S
C1602 C1599 1.463 . S
C1602 N1606 1.427 . S
C1603 H1593 0.929 . S
C1603 C1601 1.433 . S
C1603 N1606 1.384 . S
C1604 H1595 0.929 . S
C1604 C1596 1.378 . S
C1604 C1599 1.350 . S
C1605 H1592 0.929 . S
C1605 C1597 1.433 . S
C1605 N1607 1.384 . S
N1606 C1602 1.427 . S
N1606 C1603 1.384 . S
N1607 C1599 1.427 . S
N1607 C1605 1.384 . S
H1608 C1614 0.930 . S
H1609 C1618 0.930 . S
H1610 C1623 0.929 . S
H1611 C1621 0.929 . S
H1612 C1616 0.929 . S
H1613 C1622 0.929 . S
C1614 H1608 0.930 . S
C1614 C1615 1.367 . S
C1614 C1622 1.378 . S
C1615 C1614 1.367 . S
C1615 C1623 1.433 . S
C1616 H1612 0.929 . S
C1616 C1618 1.378 . S
C1616 C1620 1.350 . S
C1617 C1620 1.463 . S
C1617 C1622 1.350 . S
C1617 N1625 1.427 . S
C1618 H1609 0.930 . S
C1618 C1616 1.378 . S
C1618 C1619 1.367 . S
C1619 C1618 1.367 . S
C1619 C1621 1.433 . S
C1620 C1616 1.350 . S
C1620 C1617 1.463 . S
C1620 N1624 1.427 . S
C1621 H1611 0.929 . S
C1621 C1619 1.433 . S
C1621 N1624 1.384 . S
C1622 H1613 0.929 . S
C1622 C1614 1.378 . S
C1622 C1617 1.350 . S
C1623 H1610 0.929 . S
C1623 C1615 1.433 . S
C1623 N1625 1.384 . S
N1624 C1620 1.427 . S
N1624 C1621 1.384 . S
N1625 C1617 1.427 . S
N1625 C1623 1.384 . S
H1626 C1632 0.930 1_554 S
H1627 C1636 0.930 . S
H1628 C1641 0.929 . S
H1629 C1639 0.929 . S
H1630 C1634 0.929 . S
H1631 C1640 0.929 . S
C1632 H1626 0.930 1_556 S
C1632 C1633 1.367 . S
C1632 C1640 1.378 1_556 S
C1633 C1632 1.367 . S
C1633 C1641 1.433 . S
C1634 H1630 0.929 . S
C1634 C1636 1.378 . S
C1634 C1638 1.350 . S
C1635 C1638 1.463 . S
C1635 C1640 1.350 . S
C1635 N1643 1.427 1_554 S
C1636 H1627 0.930 . S
C1636 C1634 1.378 . S
C1636 C1637 1.367 . S
C1637 C1636 1.367 . S
C1637 C1639 1.433 . S
C1638 C1634 1.350 . S
C1638 C1635 1.463 . S
C1638 N1642 1.427 . S
C1639 H1629 0.929 . S
C1639 C1637 1.433 . S
C1639 N1642 1.384 . S
C1640 H1631 0.929 . S
C1640 C1632 1.378 1_554 S
C1640 C1635 1.350 . S
C1641 H1628 0.929 . S
C1641 C1633 1.433 . S
C1641 N1643 1.384 . S
N1642 C1638 1.427 . S
N1642 C1639 1.384 . S
N1643 C1635 1.427 1_556 S
N1643 C1641 1.384 . S
H1644 C1650 0.930 . S
H1645 C1654 0.930 . S
H1646 C1659 0.929 . S
H1647 C1657 0.929 . S
H1648 C1652 0.929 . S
H1649 C1658 0.929 . S
C1650 H1644 0.930 . S
C1650 C1651 1.367 . S
C1650 C1658 1.378 . S
C1651 C1650 1.367 . S
C1651 C1659 1.433 . S
C1652 H1648 0.929 . S
C1652 C1654 1.378 . S
C1652 C1656 1.350 . S
C1653 C1656 1.463 . S
C1653 C1658 1.350 . S
C1653 N1661 1.427 . S
C1654 H1645 0.930 . S
C1654 C1652 1.378 . S
C1654 C1655 1.367 . S
C1655 C1654 1.367 . S
C1655 C1657 1.433 . S
C1656 C1652 1.350 . S
C1656 C1653 1.463 . S
C1656 N1660 1.427 . S
C1657 H1647 0.929 . S
C1657 C1655 1.433 . S
C1657 N1660 1.384 . S
C1658 H1649 0.929 . S
C1658 C1650 1.378 . S
C1658 C1653 1.350 . S
C1659 H1646 0.929 . S
C1659 C1651 1.433 . S
C1659 N1661 1.384 . S
N1660 C1656 1.427 . S
N1660 C1657 1.384 . S
N1661 C1653 1.427 . S
N1661 C1659 1.384 . S
H1662 C1668 0.930 . S
H1663 C1672 0.930 . S
H1664 C1677 0.929 . S
H1665 C1675 0.929 . S
H1666 C1670 0.929 . S
H1667 C1676 0.929 . S
C1668 H1662 0.930 . S
C1668 C1669 1.367 . S
C1668 C1676 1.378 . S
C1669 C1668 1.367 . S
C1669 C1677 1.433 . S
C1670 H1666 0.929 . S
C1670 C1672 1.378 . S
C1670 C1674 1.350 . S
C1671 C1674 1.463 . S
C1671 C1676 1.350 . S
C1671 N1679 1.427 . S
C1672 H1663 0.930 . S
C1672 C1670 1.378 . S
C1672 C1673 1.367 . S
C1673 C1672 1.367 . S
C1673 C1675 1.433 . S
C1674 C1670 1.350 . S
C1674 C1671 1.463 . S
C1674 N1678 1.427 . S
C1675 H1665 0.929 . S
C1675 C1673 1.433 . S
C1675 N1678 1.384 . S
C1676 H1667 0.929 . S
C1676 C1668 1.378 . S
C1676 C1671 1.350 . S
C1677 H1664 0.929 . S
C1677 C1669 1.433 . S
C1677 N1679 1.384 . S
N1678 C1674 1.427 . S
N1678 C1675 1.384 . S
N1679 C1671 1.427 . S
N1679 C1677 1.384 . S
H1680 C1686 0.930 . S
H1681 C1690 0.930 . S
H1682 C1695 0.929 . S
H1683 C1693 0.929 . S
H1684 C1688 0.929 . S
H1685 C1694 0.929 . S
C1686 H1680 0.930 . S
C1686 C1687 1.367 . S
C1686 C1694 1.378 . S
C1687 C1686 1.367 . S
C1687 C1695 1.433 . S
C1688 H1684 0.929 . S
C1688 C1690 1.378 . S
C1688 C1692 1.350 . S
C1689 C1692 1.463 . S
C1689 C1694 1.350 . S
C1689 N1697 1.427 . S
C1690 H1681 0.930 . S
C1690 C1688 1.378 . S
C1690 C1691 1.367 . S
C1691 C1690 1.367 . S
C1691 C1693 1.433 . S
C1692 C1688 1.350 . S
C1692 C1689 1.463 . S
C1692 N1696 1.427 . S
C1693 H1683 0.929 . S
C1693 C1691 1.433 . S
C1693 N1696 1.384 . S
C1694 H1685 0.929 . S
C1694 C1686 1.378 . S
C1694 C1689 1.350 . S
C1695 H1682 0.929 . S
C1695 C1687 1.433 . S
C1695 N1697 1.384 . S
N1696 C1692 1.427 . S
N1696 C1693 1.384 . S
N1697 C1689 1.427 . S
N1697 C1695 1.384 . S
H1698 C1704 0.930 . S
H1699 C1708 0.930 . S
H1700 C1713 0.929 . S
H1701 C1711 0.929 . S
H1702 C1706 0.929 . S
H1703 C1712 0.929 . S
C1704 H1698 0.930 . S
C1704 C1705 1.367 . S
C1704 C1712 1.378 . S
C1705 C1704 1.367 . S
C1705 C1713 1.433 . S
C1706 H1702 0.929 . S
C1706 C1708 1.378 . S
C1706 C1710 1.350 . S
C1707 C1710 1.463 . S
C1707 C1712 1.350 . S
C1707 N1715 1.427 . S
C1708 H1699 0.930 . S
C1708 C1706 1.378 . S
C1708 C1709 1.367 . S
C1709 C1708 1.367 . S
C1709 C1711 1.433 . S
C1710 C1706 1.350 . S
C1710 C1707 1.463 . S
C1710 N1714 1.427 . S
C1711 H1701 0.929 . S
C1711 C1709 1.433 . S
C1711 N1714 1.384 . S
C1712 H1703 0.929 . S
C1712 C1704 1.378 . S
C1712 C1707 1.350 . S
C1713 H1700 0.929 . S
C1713 C1705 1.433 . S
C1713 N1715 1.384 . S
N1714 C1710 1.427 . S
N1714 C1711 1.384 . S
N1715 C1707 1.427 . S
N1715 C1713 1.384 . S
H1716 C1722 0.930 . S
H1717 C1726 0.930 . S
H1718 C1731 0.929 . S
H1719 C1729 0.929 . S
H1720 C1724 0.929 . S
H1721 C1730 0.929 . S
C1722 H1716 0.930 . S
C1722 C1723 1.367 . S
C1722 C1730 1.378 . S
C1723 C1722 1.367 . S
C1723 C1731 1.433 . S
C1724 H1720 0.929 . S
C1724 C1726 1.378 . S
C1724 C1728 1.350 . S
C1725 C1728 1.463 . S
C1725 C1730 1.350 . S
C1725 N1733 1.427 . S
C1726 H1717 0.930 . S
C1726 C1724 1.378 . S
C1726 C1727 1.367 . S
C1727 C1726 1.367 . S
C1727 C1729 1.433 . S
C1728 C1724 1.350 . S
C1728 C1725 1.463 . S
C1728 N1732 1.427 . S
C1729 H1719 0.929 . S
C1729 C1727 1.433 . S
C1729 N1732 1.384 . S
C1730 H1721 0.929 . S
C1730 C1722 1.378 . S
C1730 C1725 1.350 . S
C1731 H1718 0.929 . S
C1731 C1723 1.433 . S
C1731 N1733 1.384 . S
N1732 C1728 1.427 . S
N1732 C1729 1.384 . S
N1733 C1725 1.427 . S
N1733 C1731 1.384 . S
H1734 C1740 0.930 . S
H1735 C1744 0.930 . S
H1736 C1749 0.929 . S
H1737 C1747 0.929 . S
H1738 C1742 0.929 . S
H1739 C1748 0.929 . S
C1740 H1734 0.930 . S
C1740 C1741 1.367 . S
C1740 C1748 1.378 . S
C1741 C1740 1.367 . S
C1741 C1749 1.433 . S
C1742 H1738 0.929 . S
C1742 C1744 1.378 . S
C1742 C1746 1.350 . S
C1743 C1746 1.463 . S
C1743 C1748 1.350 . S
C1743 N1751 1.427 . S
C1744 H1735 0.930 . S
C1744 C1742 1.378 . S
C1744 C1745 1.367 . S
C1745 C1744 1.367 . S
C1745 C1747 1.433 . S
C1746 C1742 1.350 . S
C1746 C1743 1.463 . S
C1746 N1750 1.427 . S
C1747 H1737 0.929 . S
C1747 C1745 1.433 . S
C1747 N1750 1.384 . S
C1748 H1739 0.929 . S
C1748 C1740 1.378 . S
C1748 C1743 1.350 . S
C1749 H1736 0.929 . S
C1749 C1741 1.433 . S
C1749 N1751 1.384 . S
N1750 C1746 1.427 . S
N1750 C1747 1.384 . S
N1751 C1743 1.427 . S
N1751 C1749 1.384 . S
H1752 C1758 0.930 . S
H1753 C1762 0.930 . S
H1754 C1767 0.929 . S
H1755 C1765 0.929 . S
H1756 C1760 0.929 . S
H1757 C1766 0.929 . S
C1758 H1752 0.930 . S
C1758 C1759 1.367 . S
C1758 C1766 1.378 . S
C1759 C1758 1.367 . S
C1759 C1767 1.433 . S
C1760 H1756 0.929 . S
C1760 C1762 1.378 . S
C1760 C1764 1.350 . S
C1761 C1764 1.463 . S
C1761 C1766 1.350 . S
C1761 N1769 1.427 . S
C1762 H1753 0.930 . S
C1762 C1760 1.378 . S
C1762 C1763 1.367 . S
C1763 C1762 1.367 . S
C1763 C1765 1.433 . S
C1764 C1760 1.350 . S
C1764 C1761 1.463 . S
C1764 N1768 1.427 . S
C1765 H1755 0.929 . S
C1765 C1763 1.433 . S
C1765 N1768 1.384 . S
C1766 H1757 0.929 . S
C1766 C1758 1.378 . S
C1766 C1761 1.350 . S
C1767 H1754 0.929 . S
C1767 C1759 1.433 . S
C1767 N1769 1.384 . S
N1768 C1764 1.427 . S
N1768 C1765 1.384 . S
N1769 C1761 1.427 . S
N1769 C1767 1.384 . S
H1770 C1776 0.930 . S
H1771 C1780 0.930 . S
H1772 C1785 0.929 . S
H1773 C1783 0.929 . S
H1774 C1778 0.929 . S
H1775 C1784 0.929 . S
C1776 H1770 0.930 . S
C1776 C1777 1.367 . S
C1776 C1784 1.378 . S
C1777 C1776 1.367 . S
C1777 C1785 1.433 . S
C1778 H1774 0.929 . S
C1778 C1780 1.378 . S
C1778 C1782 1.350 . S
C1779 C1782 1.463 . S
C1779 C1784 1.350 . S
C1779 N1787 1.427 . S
C1780 H1771 0.930 . S
C1780 C1778 1.378 . S
C1780 C1781 1.367 . S
C1781 C1780 1.367 . S
C1781 C1783 1.433 . S
C1782 C1778 1.350 . S
C1782 C1779 1.463 . S
C1782 N1786 1.427 . S
C1783 H1773 0.929 . S
C1783 C1781 1.433 . S
C1783 N1786 1.384 . S
C1784 H1775 0.929 . S
C1784 C1776 1.378 . S
C1784 C1779 1.350 . S
C1785 H1772 0.929 . S
C1785 C1777 1.433 . S
C1785 N1787 1.384 . S
N1786 C1782 1.427 . S
N1786 C1783 1.384 . S
N1787 C1779 1.427 . S
N1787 C1785 1.384 . S
H1788 C1794 0.930 . S
H1789 C1798 0.930 . S
H1790 C1803 0.929 . S
H1791 C1801 0.929 . S
H1792 C1796 0.929 . S
H1793 C1802 0.929 . S
C1794 H1788 0.930 . S
C1794 C1795 1.367 . S
C1794 C1802 1.378 . S
C1795 C1794 1.367 . S
C1795 C1803 1.433 . S
C1796 H1792 0.929 . S
C1796 C1798 1.378 . S
C1796 C1800 1.350 . S
C1797 C1800 1.463 . S
C1797 C1802 1.350 . S
C1797 N1805 1.427 . S
C1798 H1789 0.930 . S
C1798 C1796 1.378 . S
C1798 C1799 1.367 . S
C1799 C1798 1.367 . S
C1799 C1801 1.433 . S
C1800 C1796 1.350 . S
C1800 C1797 1.463 . S
C1800 N1804 1.427 . S
C1801 H1791 0.929 . S
C1801 C1799 1.433 . S
C1801 N1804 1.384 . S
C1802 H1793 0.929 . S
C1802 C1794 1.378 . S
C1802 C1797 1.350 . S
C1803 H1790 0.929 . S
C1803 C1795 1.433 . S
C1803 N1805 1.384 . S
N1804 C1800 1.427 . S
N1804 C1801 1.384 . S
N1805 C1797 1.427 . S
N1805 C1803 1.384 . S
H1806 C1812 0.930 . S
H1807 C1816 0.930 . S
H1808 C1821 0.929 . S
H1809 C1819 0.929 . S
H1810 C1814 0.929 . S
H1811 C1820 0.929 . S
C1812 H1806 0.930 . S
C1812 C1813 1.367 . S
C1812 C1820 1.378 . S
C1813 C1812 1.367 . S
C1813 C1821 1.433 . S
C1814 H1810 0.929 . S
C1814 C1816 1.378 . S
C1814 C1818 1.350 . S
C1815 C1818 1.463 . S
C1815 C1820 1.350 . S
C1815 N1823 1.427 . S
C1816 H1807 0.930 . S
C1816 C1814 1.378 . S
C1816 C1817 1.367 . S
C1817 C1816 1.367 . S
C1817 C1819 1.433 . S
C1818 C1814 1.350 . S
C1818 C1815 1.463 . S
C1818 N1822 1.427 . S
C1819 H1809 0.929 . S
C1819 C1817 1.433 . S
C1819 N1822 1.384 . S
C1820 H1811 0.929 . S
C1820 C1812 1.378 . S
C1820 C1815 1.350 . S
C1821 H1808 0.929 . S
C1821 C1813 1.433 . S
C1821 N1823 1.384 . S
N1822 C1818 1.427 . S
N1822 C1819 1.384 . S
N1823 C1815 1.427 . S
N1823 C1821 1.384 . S
H1824 C1830 0.930 . S
H1825 C1834 0.930 . S
H1826 C1839 0.929 . S
H1827 C1837 0.929 . S
H1828 C1832 0.929 . S
H1829 C1838 0.929 . S
C1830 H1824 0.930 . S
C1830 C1831 1.367 . S
C1830 C1838 1.378 . S
C1831 C1830 1.367 . S
C1831 C1839 1.433 . S
C1832 H1828 0.929 . S
C1832 C1834 1.378 . S
C1832 C1836 1.350 . S
C1833 C1836 1.463 . S
C1833 C1838 1.350 . S
C1833 N1841 1.427 . S
C1834 H1825 0.930 . S
C1834 C1832 1.378 . S
C1834 C1835 1.367 . S
C1835 C1834 1.367 . S
C1835 C1837 1.433 . S
C1836 C1832 1.350 . S
C1836 C1833 1.463 . S
C1836 N1840 1.427 . S
C1837 H1827 0.929 . S
C1837 C1835 1.433 . S
C1837 N1840 1.384 . S
C1838 H1829 0.929 . S
C1838 C1830 1.378 . S
C1838 C1833 1.350 . S
C1839 H1826 0.929 . S
C1839 C1831 1.433 . S
C1839 N1841 1.384 . S
N1840 C1836 1.427 . S
N1840 C1837 1.384 . S
N1841 C1833 1.427 . S
N1841 C1839 1.384 . S
H1842 C1848 0.930 . S
H1843 C1852 0.930 . S
H1844 C1857 0.929 . S
H1845 C1855 0.929 . S
H1846 C1850 0.929 . S
H1847 C1856 0.929 . S
C1848 H1842 0.930 . S
C1848 C1849 1.367 . S
C1848 C1856 1.378 . S
C1849 C1848 1.367 . S
C1849 C1857 1.433 . S
C1850 H1846 0.929 . S
C1850 C1852 1.378 . S
C1850 C1854 1.350 . S
C1851 C1854 1.463 . S
C1851 C1856 1.350 . S
C1851 N1859 1.427 . S
C1852 H1843 0.930 . S
C1852 C1850 1.378 . S
C1852 C1853 1.367 . S
C1853 C1852 1.367 . S
C1853 C1855 1.433 . S
C1854 C1850 1.350 . S
C1854 C1851 1.463 . S
C1854 N1858 1.427 . S
C1855 H1845 0.929 . S
C1855 C1853 1.433 . S
C1855 N1858 1.384 . S
C1856 H1847 0.929 . S
C1856 C1848 1.378 . S
C1856 C1851 1.350 . S
C1857 H1844 0.929 . S
C1857 C1849 1.433 . S
C1857 N1859 1.384 . S
N1858 C1854 1.427 . S
N1858 C1855 1.384 . S
N1859 C1851 1.427 . S
N1859 C1857 1.384 . S
H1860 C1866 0.930 . S
H1861 C1870 0.930 . S
H1862 C1875 0.929 . S
H1863 C1873 0.929 . S
H1864 C1868 0.929 . S
H1865 C1874 0.929 . S
C1866 H1860 0.930 . S
C1866 C1867 1.367 . S
C1866 C1874 1.378 . S
C1867 C1866 1.367 . S
C1867 C1875 1.433 . S
C1868 H1864 0.929 . S
C1868 C1870 1.378 . S
C1868 C1872 1.350 . S
C1869 C1872 1.463 . S
C1869 C1874 1.350 . S
C1869 N1877 1.427 . S
C1870 H1861 0.930 . S
C1870 C1868 1.378 . S
C1870 C1871 1.367 . S
C1871 C1870 1.367 . S
C1871 C1873 1.433 . S
C1872 C1868 1.350 . S
C1872 C1869 1.463 . S
C1872 N1876 1.427 . S
C1873 H1863 0.929 . S
C1873 C1871 1.433 . S
C1873 N1876 1.384 . S
C1874 H1865 0.929 . S
C1874 C1866 1.378 . S
C1874 C1869 1.350 . S
C1875 H1862 0.929 . S
C1875 C1867 1.433 . S
C1875 N1877 1.384 . S
N1876 C1872 1.427 . S
N1876 C1873 1.384 . S
N1877 C1869 1.427 . S
N1877 C1875 1.384 . S
H1878 C1884 0.930 . S
H1879 C1888 0.930 . S
H1880 C1893 0.929 . S
H1881 C1891 0.929 . S
H1882 C1886 0.929 . S
H1883 C1892 0.929 . S
C1884 H1878 0.930 . S
C1884 C1885 1.367 . S
C1884 C1892 1.378 . S
C1885 C1884 1.367 . S
C1885 C1893 1.433 . S
C1886 H1882 0.929 . S
C1886 C1888 1.378 . S
C1886 C1890 1.350 . S
C1887 C1890 1.463 . S
C1887 C1892 1.350 . S
C1887 N1895 1.427 . S
C1888 H1879 0.930 . S
C1888 C1886 1.378 . S
C1888 C1889 1.367 . S
C1889 C1888 1.367 . S
C1889 C1891 1.433 . S
C1890 C1886 1.350 . S
C1890 C1887 1.463 . S
C1890 N1894 1.427 . S
C1891 H1881 0.929 . S
C1891 C1889 1.433 . S
C1891 N1894 1.384 . S
C1892 H1883 0.929 . S
C1892 C1884 1.378 . S
C1892 C1887 1.350 . S
C1893 H1880 0.929 . S
C1893 C1885 1.433 . S
C1893 N1895 1.384 . S
N1894 C1890 1.427 . S
N1894 C1891 1.384 . S
N1895 C1887 1.427 . S
N1895 C1893 1.384 . S
H1896 C1902 0.930 . S
H1897 C1906 0.930 . S
H1898 C1911 0.929 . S
H1899 C1909 0.929 . S
H1900 C1904 0.929 . S
H1901 C1910 0.929 . S
C1902 H1896 0.930 . S
C1902 C1903 1.367 . S
C1902 C1910 1.378 . S
C1903 C1902 1.367 . S
C1903 C1911 1.433 . S
C1904 H1900 0.929 . S
C1904 C1906 1.378 . S
C1904 C1908 1.350 . S
C1905 C1908 1.463 . S
C1905 C1910 1.350 . S
C1905 N1913 1.427 . S
C1906 H1897 0.930 . S
C1906 C1904 1.378 . S
C1906 C1907 1.367 . S
C1907 C1906 1.367 . S
C1907 C1909 1.433 . S
C1908 C1904 1.350 . S
C1908 C1905 1.463 . S
C1908 N1912 1.427 . S
C1909 H1899 0.929 . S
C1909 C1907 1.433 . S
C1909 N1912 1.384 . S
C1910 H1901 0.929 . S
C1910 C1902 1.378 . S
C1910 C1905 1.350 . S
C1911 H1898 0.929 . S
C1911 C1903 1.433 . S
C1911 N1913 1.384 . S
N1912 C1908 1.427 . S
N1912 C1909 1.384 . S
N1913 C1905 1.427 . S
N1913 C1911 1.384 . S
H1914 C1920 0.930 . S
H1915 C1924 0.930 . S
H1916 C1929 0.929 . S
H1917 C1927 0.929 . S
H1918 C1922 0.929 . S
H1919 C1928 0.929 . S
C1920 H1914 0.930 . S
C1920 C1921 1.367 . S
C1920 C1928 1.378 . S
C1921 C1920 1.367 . S
C1921 C1929 1.433 . S
C1922 H1918 0.929 . S
C1922 C1924 1.378 . S
C1922 C1926 1.350 . S
C1923 C1926 1.463 . S
C1923 C1928 1.350 . S
C1923 N1931 1.427 . S
C1924 H1915 0.930 . S
C1924 C1922 1.378 . S
C1924 C1925 1.367 . S
C1925 C1924 1.367 . S
C1925 C1927 1.433 . S
C1926 C1922 1.350 . S
C1926 C1923 1.463 . S
C1926 N1930 1.427 . S
C1927 H1917 0.929 . S
C1927 C1925 1.433 . S
C1927 N1930 1.384 . S
C1928 H1919 0.929 . S
C1928 C1920 1.378 . S
C1928 C1923 1.350 . S
C1929 H1916 0.929 . S
C1929 C1921 1.433 . S
C1929 N1931 1.384 . S
N1930 C1926 1.427 . S
N1930 C1927 1.384 . S
N1931 C1923 1.427 . S
N1931 C1929 1.384 . S
H1932 C1938 0.930 . S
H1933 C1942 0.930 . S
H1934 C1947 0.929 . S
H1935 C1945 0.929 . S
H1936 C1940 0.929 . S
H1937 C1946 0.929 . S
C1938 H1932 0.930 . S
C1938 C1939 1.367 . S
C1938 C1946 1.378 . S
C1939 C1938 1.367 . S
C1939 C1947 1.433 . S
C1940 H1936 0.929 . S
C1940 C1942 1.378 . S
C1940 C1944 1.350 . S
C1941 C1944 1.463 . S
C1941 C1946 1.350 . S
C1941 N1949 1.427 . S
C1942 H1933 0.930 . S
C1942 C1940 1.378 . S
C1942 C1943 1.367 . S
C1943 C1942 1.367 . S
C1943 C1945 1.433 . S
C1944 C1940 1.350 . S
C1944 C1941 1.463 . S
C1944 N1948 1.427 . S
C1945 H1935 0.929 . S
C1945 C1943 1.433 . S
C1945 N1948 1.384 . S
C1946 H1937 0.929 . S
C1946 C1938 1.378 . S
C1946 C1941 1.350 . S
C1947 H1934 0.929 . S
C1947 C1939 1.433 . S
C1947 N1949 1.384 . S
N1948 C1944 1.427 . S
N1948 C1945 1.384 . S
N1949 C1941 1.427 . S
N1949 C1947 1.384 . S
H1950 C1956 0.930 . S
H1951 C1960 0.930 1_565 S
H1952 C1965 0.929 . S
H1953 C1963 0.929 . S
H1954 C1958 0.927 1_455 S
H1955 C1964 0.929 . S
C1956 H1950 0.930 . S
C1956 C1957 1.367 . S
C1956 C1964 1.378 . S
C1957 C1956 1.367 . S
C1957 C1965 1.433 . S
C1958 H1954 0.927 1_655 S
C1958 C1960 1.378 . S
C1958 C1962 1.350 1_655 S
C1959 C1962 1.463 . S
C1959 C1964 1.350 . S
C1959 N1967 1.427 . S
C1960 H1951 0.930 1_545 S
C1960 C1958 1.378 . S
C1960 C1961 1.367 . S
C1961 C1960 1.367 . S
C1961 C1963 1.433 . S
C1962 C1958 1.350 1_455 S
C1962 C1959 1.463 . S
C1962 N1966 1.427 . S
C1963 H1953 0.929 . S
C1963 C1961 1.433 . S
C1963 N1966 1.384 1_655 S
C1964 H1955 0.929 . S
C1964 C1956 1.378 . S
C1964 C1959 1.350 . S
C1965 H1952 0.929 . S
C1965 C1957 1.433 . S
C1965 N1967 1.384 . S
N1966 C1962 1.427 . S
N1966 C1963 1.384 1_455 S
N1967 C1959 1.427 . S
N1967 C1965 1.384 . S
H1968 C1974 0.930 . S
H1969 C1978 0.930 . S
H1970 C1983 0.929 . S
H1971 C1981 0.929 . S
H1972 C1976 0.929 . S
H1973 C1982 0.929 . S
C1974 H1968 0.930 . S
C1974 C1975 1.367 . S
C1974 C1982 1.378 . S
C1975 C1974 1.367 . S
C1975 C1983 1.433 . S
C1976 H1972 0.929 . S
C1976 C1978 1.378 . S
C1976 C1980 1.350 . S
C1977 C1980 1.463 . S
C1977 C1982 1.350 . S
C1977 N1985 1.427 . S
C1978 H1969 0.930 . S
C1978 C1976 1.378 . S
C1978 C1979 1.367 . S
C1979 C1978 1.367 . S
C1979 C1981 1.433 . S
C1980 C1976 1.350 . S
C1980 C1977 1.463 . S
C1980 N1984 1.427 . S
C1981 H1971 0.929 . S
C1981 C1979 1.433 . S
C1981 N1984 1.384 . S
C1982 H1973 0.929 . S
C1982 C1974 1.378 . S
C1982 C1977 1.350 . S
C1983 H1970 0.929 . S
C1983 C1975 1.433 . S
C1983 N1985 1.384 . S
N1984 C1980 1.427 . S
N1984 C1981 1.384 . S
N1985 C1977 1.427 . S
N1985 C1983 1.384 . S
H1986 C1992 0.930 . S
H1987 C1996 0.930 . S
H1988 C2001 0.929 . S
H1989 C1999 0.929 . S
H1990 C1994 0.929 . S
H1991 C2000 0.929 . S
C1992 H1986 0.930 . S
C1992 C1993 1.367 . S
C1992 C2000 1.378 . S
C1993 C1992 1.367 . S
C1993 C2001 1.433 . S
C1994 H1990 0.929 . S
C1994 C1996 1.378 . S
C1994 C1998 1.350 . S
C1995 C1998 1.463 . S
C1995 C2000 1.350 . S
C1995 N2003 1.427 . S
C1996 H1987 0.930 . S
C1996 C1994 1.378 . S
C1996 C1997 1.367 . S
C1997 C1996 1.367 . S
C1997 C1999 1.433 . S
C1998 C1994 1.350 . S
C1998 C1995 1.463 . S
C1998 N2002 1.427 . S
C1999 H1989 0.929 . S
C1999 C1997 1.433 . S
C1999 N2002 1.384 . S
C2000 H1991 0.929 . S
C2000 C1992 1.378 . S
C2000 C1995 1.350 . S
C2001 H1988 0.929 . S
C2001 C1993 1.433 . S
C2001 N2003 1.384 . S
N2002 C1998 1.427 . S
N2002 C1999 1.384 . S
N2003 C1995 1.427 . S
N2003 C2001 1.384 . S
H2004 C2010 0.930 . S
H2005 C2014 0.930 . S
H2006 C2019 0.929 . S
H2007 C2017 0.929 . S
H2008 C2012 0.929 . S
H2009 C2018 0.929 . S
C2010 H2004 0.930 . S
C2010 C2011 1.367 . S
C2010 C2018 1.378 . S
C2011 C2010 1.367 . S
C2011 C2019 1.433 . S
C2012 H2008 0.929 . S
C2012 C2014 1.378 . S
C2012 C2016 1.350 . S
C2013 C2016 1.463 . S
C2013 C2018 1.350 . S
C2013 N2021 1.427 . S
C2014 H2005 0.930 . S
C2014 C2012 1.378 . S
C2014 C2015 1.367 . S
C2015 C2014 1.367 . S
C2015 C2017 1.433 . S
C2016 C2012 1.350 . S
C2016 C2013 1.463 . S
C2016 N2020 1.427 . S
C2017 H2007 0.929 . S
C2017 C2015 1.433 . S
C2017 N2020 1.384 . S
C2018 H2009 0.929 . S
C2018 C2010 1.378 . S
C2018 C2013 1.350 . S
C2019 H2006 0.929 . S
C2019 C2011 1.433 . S
C2019 N2021 1.384 . S
N2020 C2016 1.427 . S
N2020 C2017 1.384 . S
N2021 C2013 1.427 . S
N2021 C2019 1.384 . S
H2022 C2028 0.930 . S
H2023 C2032 0.930 . S
H2024 C2037 0.929 . S
H2025 C2035 0.929 . S
H2026 C2030 0.929 . S
H2027 C2036 0.929 . S
C2028 H2022 0.930 . S
C2028 C2029 1.367 . S
C2028 C2036 1.378 . S
C2029 C2028 1.367 . S
C2029 C2037 1.433 . S
C2030 H2026 0.929 . S
C2030 C2032 1.378 . S
C2030 C2034 1.350 . S
C2031 C2034 1.463 . S
C2031 C2036 1.350 . S
C2031 N2039 1.427 . S
C2032 H2023 0.930 . S
C2032 C2030 1.378 . S
C2032 C2033 1.367 . S
C2033 C2032 1.367 . S
C2033 C2035 1.433 . S
C2034 C2030 1.350 . S
C2034 C2031 1.463 . S
C2034 N2038 1.427 . S
C2035 H2025 0.929 . S
C2035 C2033 1.433 . S
C2035 N2038 1.384 . S
C2036 H2027 0.929 . S
C2036 C2028 1.378 . S
C2036 C2031 1.350 . S
C2037 H2024 0.929 . S
C2037 C2029 1.433 . S
C2037 N2039 1.384 . S
N2038 C2034 1.427 . S
N2038 C2035 1.384 . S
N2039 C2031 1.427 . S
N2039 C2037 1.384 . S
H2040 C2046 0.930 . S
H2041 C2050 0.930 . S
H2042 C2055 0.929 . S
H2043 C2053 0.929 . S
H2044 C2048 0.929 . S
H2045 C2054 0.929 . S
C2046 H2040 0.930 . S
C2046 C2047 1.367 . S
C2046 C2054 1.378 . S
C2047 C2046 1.367 . S
C2047 C2055 1.433 . S
C2048 H2044 0.929 . S
C2048 C2050 1.378 . S
C2048 C2052 1.350 . S
C2049 C2052 1.463 . S
C2049 C2054 1.350 . S
C2049 N2057 1.427 . S
C2050 H2041 0.930 . S
C2050 C2048 1.378 . S
C2050 C2051 1.367 . S
C2051 C2050 1.367 . S
C2051 C2053 1.433 . S
C2052 C2048 1.350 . S
C2052 C2049 1.463 . S
C2052 N2056 1.427 . S
C2053 H2043 0.929 . S
C2053 C2051 1.433 . S
C2053 N2056 1.384 . S
C2054 H2045 0.929 . S
C2054 C2046 1.378 . S
C2054 C2049 1.350 . S
C2055 H2042 0.929 . S
C2055 C2047 1.433 . S
C2055 N2057 1.384 . S
N2056 C2052 1.427 . S
N2056 C2053 1.384 . S
N2057 C2049 1.427 . S
N2057 C2055 1.384 . S
H2058 C2064 0.930 . S
H2059 C2068 0.930 . S
H2060 C2073 0.929 . S
H2061 C2071 0.929 . S
H2062 C2066 0.929 . S
H2063 C2072 0.929 . S
C2064 H2058 0.930 . S
C2064 C2065 1.367 . S
C2064 C2072 1.378 . S
C2065 C2064 1.367 . S
C2065 C2073 1.433 . S
C2066 H2062 0.929 . S
C2066 C2068 1.378 . S
C2066 C2070 1.350 . S
C2067 C2070 1.463 . S
C2067 C2072 1.350 . S
C2067 N2075 1.427 . S
C2068 H2059 0.930 . S
C2068 C2066 1.378 . S
C2068 C2069 1.367 . S
C2069 C2068 1.367 . S
C2069 C2071 1.433 . S
C2070 C2066 1.350 . S
C2070 C2067 1.463 . S
C2070 N2074 1.427 . S
C2071 H2061 0.929 . S
C2071 C2069 1.433 . S
C2071 N2074 1.384 . S
C2072 H2063 0.929 . S
C2072 C2064 1.378 . S
C2072 C2067 1.350 . S
C2073 H2060 0.929 . S
C2073 C2065 1.433 . S
C2073 N2075 1.384 . S
N2074 C2070 1.427 . S
N2074 C2071 1.384 . S
N2075 C2067 1.427 . S
N2075 C2073 1.384 . S
H2076 C2082 0.930 . S
H2077 C2086 0.930 . S
H2078 C2091 0.929 . S
H2079 C2089 0.929 . S
H2080 C2084 0.929 . S
H2081 C2090 0.929 . S
C2082 H2076 0.930 . S
C2082 C2083 1.367 . S
C2082 C2090 1.378 . S
C2083 C2082 1.367 . S
C2083 C2091 1.433 . S
C2084 H2080 0.929 . S
C2084 C2086 1.378 . S
C2084 C2088 1.350 . S
C2085 C2088 1.463 . S
C2085 C2090 1.350 . S
C2085 N2093 1.427 . S
C2086 H2077 0.930 . S
C2086 C2084 1.378 . S
C2086 C2087 1.367 . S
C2087 C2086 1.367 . S
C2087 C2089 1.433 . S
C2088 C2084 1.350 . S
C2088 C2085 1.463 . S
C2088 N2092 1.427 . S
C2089 H2079 0.929 . S
C2089 C2087 1.433 . S
C2089 N2092 1.384 . S
C2090 H2081 0.929 . S
C2090 C2082 1.378 . S
C2090 C2085 1.350 . S
C2091 H2078 0.929 . S
C2091 C2083 1.433 . S
C2091 N2093 1.384 . S
N2092 C2088 1.427 . S
N2092 C2089 1.384 . S
N2093 C2085 1.427 . S
N2093 C2091 1.384 . S
H2094 C2100 0.930 . S
H2095 C2104 0.930 . S
H2096 C2109 0.929 . S
H2097 C2107 0.929 . S
H2098 C2102 0.929 . S
H2099 C2108 0.929 . S
C2100 H2094 0.930 . S
C2100 C2101 1.367 . S
C2100 C2108 1.378 . S
C2101 C2100 1.367 . S
C2101 C2109 1.433 . S
C2102 H2098 0.929 . S
C2102 C2104 1.378 . S
C2102 C2106 1.350 . S
C2103 C2106 1.463 . S
C2103 C2108 1.350 . S
C2103 N2111 1.427 . S
C2104 H2095 0.930 . S
C2104 C2102 1.378 . S
C2104 C2105 1.367 . S
C2105 C2104 1.367 . S
C2105 C2107 1.433 . S
C2106 C2102 1.350 . S
C2106 C2103 1.463 . S
C2106 N2110 1.427 . S
C2107 H2097 0.929 . S
C2107 C2105 1.433 . S
C2107 N2110 1.384 . S
C2108 H2099 0.929 . S
C2108 C2100 1.378 . S
C2108 C2103 1.350 . S
C2109 H2096 0.929 . S
C2109 C2101 1.433 . S
C2109 N2111 1.384 . S
N2110 C2106 1.427 . S
N2110 C2107 1.384 . S
N2111 C2103 1.427 . S
N2111 C2109 1.384 . S
H2112 C2118 0.930 . S
H2113 C2122 0.930 . S
H2114 C2127 0.929 . S
H2115 C2125 0.929 . S
H2116 C2120 0.929 . S
H2117 C2126 0.929 . S
C2118 H2112 0.930 . S
C2118 C2119 1.367 . S
C2118 C2126 1.378 . S
C2119 C2118 1.367 . S
C2119 C2127 1.433 . S
C2120 H2116 0.929 . S
C2120 C2122 1.378 . S
C2120 C2124 1.350 . S
C2121 C2124 1.463 . S
C2121 C2126 1.350 . S
C2121 N2129 1.427 . S
C2122 H2113 0.930 . S
C2122 C2120 1.378 . S
C2122 C2123 1.367 . S
C2123 C2122 1.367 . S
C2123 C2125 1.433 . S
C2124 C2120 1.350 . S
C2124 C2121 1.463 . S
C2124 N2128 1.427 . S
C2125 H2115 0.929 . S
C2125 C2123 1.433 . S
C2125 N2128 1.384 . S
C2126 H2117 0.929 . S
C2126 C2118 1.378 . S
C2126 C2121 1.350 . S
C2127 H2114 0.929 . S
C2127 C2119 1.433 . S
C2127 N2129 1.384 . S
N2128 C2124 1.427 . S
N2128 C2125 1.384 . S
N2129 C2121 1.427 . S
N2129 C2127 1.384 . S
H2130 C2136 0.930 . S
H2131 C2140 0.930 . S
H2132 C2145 0.929 . S
H2133 C2143 0.929 . S
H2134 C2138 0.929 . S
H2135 C2144 0.929 . S
C2136 H2130 0.930 . S
C2136 C2137 1.367 . S
C2136 C2144 1.378 . S
C2137 C2136 1.367 . S
C2137 C2145 1.433 . S
C2138 H2134 0.929 . S
C2138 C2140 1.378 . S
C2138 C2142 1.350 . S
C2139 C2142 1.463 . S
C2139 C2144 1.350 . S
C2139 N2147 1.427 . S
C2140 H2131 0.930 . S
C2140 C2138 1.378 . S
C2140 C2141 1.367 . S
C2141 C2140 1.367 . S
C2141 C2143 1.433 . S
C2142 C2138 1.350 . S
C2142 C2139 1.463 . S
C2142 N2146 1.427 . S
C2143 H2133 0.929 . S
C2143 C2141 1.433 . S
C2143 N2146 1.384 . S
C2144 H2135 0.929 . S
C2144 C2136 1.378 . S
C2144 C2139 1.350 . S
C2145 H2132 0.929 . S
C2145 C2137 1.433 . S
C2145 N2147 1.384 . S
N2146 C2142 1.427 . S
N2146 C2143 1.384 . S
N2147 C2139 1.427 . S
N2147 C2145 1.384 . S
H2148 C2154 0.930 . S
H2149 C2158 0.930 . S
H2150 C2163 0.929 . S
H2151 C2161 0.929 . S
H2152 C2156 0.929 . S
H2153 C2162 0.929 . S
C2154 H2148 0.930 . S
C2154 C2155 1.367 . S
C2154 C2162 1.378 . S
C2155 C2154 1.367 . S
C2155 C2163 1.433 . S
C2156 H2152 0.929 . S
C2156 C2158 1.378 . S
C2156 C2160 1.350 . S
C2157 C2160 1.463 . S
C2157 C2162 1.350 . S
C2157 N2165 1.427 . S
C2158 H2149 0.930 . S
C2158 C2156 1.378 . S
C2158 C2159 1.367 . S
C2159 C2158 1.367 . S
C2159 C2161 1.433 . S
C2160 C2156 1.350 . S
C2160 C2157 1.463 . S
C2160 N2164 1.427 . S
C2161 H2151 0.929 . S
C2161 C2159 1.433 . S
C2161 N2164 1.384 . S
C2162 H2153 0.929 . S
C2162 C2154 1.378 . S
C2162 C2157 1.350 . S
C2163 H2150 0.929 . S
C2163 C2155 1.433 . S
C2163 N2165 1.384 . S
N2164 C2160 1.427 . S
N2164 C2161 1.384 . S
N2165 C2157 1.427 . S
N2165 C2163 1.384 . S
H2166 C2172 0.930 . S
H2167 C2176 0.930 . S
H2168 C2181 0.929 . S
H2169 C2179 0.929 . S
H2170 C2174 0.929 . S
H2171 C2180 0.929 . S
C2172 H2166 0.930 . S
C2172 C2173 1.367 . S
C2172 C2180 1.378 . S
C2173 C2172 1.367 . S
C2173 C2181 1.433 . S
C2174 H2170 0.929 . S
C2174 C2176 1.378 . S
C2174 C2178 1.350 . S
C2175 C2178 1.463 . S
C2175 C2180 1.350 . S
C2175 N2183 1.427 . S
C2176 H2167 0.930 . S
C2176 C2174 1.378 . S
C2176 C2177 1.367 . S
C2177 C2176 1.367 . S
C2177 C2179 1.433 . S
C2178 C2174 1.350 . S
C2178 C2175 1.463 . S
C2178 N2182 1.427 . S
C2179 H2169 0.929 . S
C2179 C2177 1.433 . S
C2179 N2182 1.384 . S
C2180 H2171 0.929 . S
C2180 C2172 1.378 . S
C2180 C2175 1.350 . S
C2181 H2168 0.929 . S
C2181 C2173 1.433 . S
C2181 N2183 1.384 . S
N2182 C2178 1.427 . S
N2182 C2179 1.384 . S
N2183 C2175 1.427 . S
N2183 C2181 1.384 . S
H2184 C2190 0.930 . S
H2185 C2194 0.930 . S
H2186 C2199 0.929 . S
H2187 C2197 0.929 . S
H2188 C2192 0.929 . S
H2189 C2198 0.929 . S
C2190 H2184 0.930 . S
C2190 C2191 1.367 . S
C2190 C2198 1.378 . S
C2191 C2190 1.367 . S
C2191 C2199 1.433 . S
C2192 H2188 0.929 . S
C2192 C2194 1.378 . S
C2192 C2196 1.350 . S
C2193 C2196 1.463 . S
C2193 C2198 1.350 . S
C2193 N2201 1.427 . S
C2194 H2185 0.930 . S
C2194 C2192 1.378 . S
C2194 C2195 1.367 . S
C2195 C2194 1.367 . S
C2195 C2197 1.433 . S
C2196 C2192 1.350 . S
C2196 C2193 1.463 . S
C2196 N2200 1.427 . S
C2197 H2187 0.929 . S
C2197 C2195 1.433 . S
C2197 N2200 1.384 . S
C2198 H2189 0.929 . S
C2198 C2190 1.378 . S
C2198 C2193 1.350 . S
C2199 H2186 0.929 . S
C2199 C2191 1.433 . S
C2199 N2201 1.384 . S
N2200 C2196 1.427 . S
N2200 C2197 1.384 . S
N2201 C2193 1.427 . S
N2201 C2199 1.384 . S
H2202 C2208 0.930 . S
H2203 C2212 0.930 . S
H2204 C2217 0.929 . S
H2205 C2215 0.929 . S
H2206 C2210 0.929 . S
H2207 C2216 0.929 . S
C2208 H2202 0.930 . S
C2208 C2209 1.367 . S
C2208 C2216 1.378 . S
C2209 C2208 1.367 . S
C2209 C2217 1.433 . S
C2210 H2206 0.929 . S
C2210 C2212 1.378 . S
C2210 C2214 1.350 . S
C2211 C2214 1.463 . S
C2211 C2216 1.350 . S
C2211 N2219 1.427 . S
C2212 H2203 0.930 . S
C2212 C2210 1.378 . S
C2212 C2213 1.367 . S
C2213 C2212 1.367 . S
C2213 C2215 1.433 . S
C2214 C2210 1.350 . S
C2214 C2211 1.463 . S
C2214 N2218 1.427 . S
C2215 H2205 0.929 . S
C2215 C2213 1.433 . S
C2215 N2218 1.384 . S
C2216 H2207 0.929 . S
C2216 C2208 1.378 . S
C2216 C2211 1.350 . S
C2217 H2204 0.929 . S
C2217 C2209 1.433 . S
C2217 N2219 1.384 . S
N2218 C2214 1.427 . S
N2218 C2215 1.384 . S
N2219 C2211 1.427 . S
N2219 C2217 1.384 . S
H2220 C2226 0.930 . S
H2221 C2230 0.930 . S
H2222 C2235 0.929 . S
H2223 C2233 0.929 . S
H2224 C2228 0.929 . S
H2225 C2234 0.929 . S
C2226 H2220 0.930 . S
C2226 C2227 1.367 . S
C2226 C2234 1.378 . S
C2227 C2226 1.367 . S
C2227 C2235 1.433 . S
C2228 H2224 0.929 . S
C2228 C2230 1.378 . S
C2228 C2232 1.350 . S
C2229 C2232 1.463 . S
C2229 C2234 1.350 . S
C2229 N2237 1.427 . S
C2230 H2221 0.930 . S
C2230 C2228 1.378 . S
C2230 C2231 1.367 . S
C2231 C2230 1.367 . S
C2231 C2233 1.433 . S
C2232 C2228 1.350 . S
C2232 C2229 1.463 . S
C2232 N2236 1.427 . S
C2233 H2223 0.929 . S
C2233 C2231 1.433 . S
C2233 N2236 1.384 . S
C2234 H2225 0.929 . S
C2234 C2226 1.378 . S
C2234 C2229 1.350 . S
C2235 H2222 0.929 . S
C2235 C2227 1.433 . S
C2235 N2237 1.384 . S
N2236 C2232 1.427 . S
N2236 C2233 1.384 . S
N2237 C2229 1.427 . S
N2237 C2235 1.384 . S
H2238 C2244 0.930 . S
H2239 C2248 0.930 . S
H2240 C2253 0.929 . S
H2241 C2251 0.929 . S
H2242 C2246 0.929 . S
H2243 C2252 0.929 . S
C2244 H2238 0.930 . S
C2244 C2245 1.367 . S
C2244 C2252 1.378 . S
C2245 C2244 1.367 . S
C2245 C2253 1.433 . S
C2246 H2242 0.929 . S
C2246 C2248 1.378 . S
C2246 C2250 1.350 . S
C2247 C2250 1.463 . S
C2247 C2252 1.350 . S
C2247 N2255 1.427 . S
C2248 H2239 0.930 . S
C2248 C2246 1.378 . S
C2248 C2249 1.367 . S
C2249 C2248 1.367 . S
C2249 C2251 1.433 . S
C2250 C2246 1.350 . S
C2250 C2247 1.463 . S
C2250 N2254 1.427 . S
C2251 H2241 0.929 . S
C2251 C2249 1.433 . S
C2251 N2254 1.384 . S
C2252 H2243 0.929 . S
C2252 C2244 1.378 . S
C2252 C2247 1.350 . S
C2253 H2240 0.929 . S
C2253 C2245 1.433 . S
C2253 N2255 1.384 . S
N2254 C2250 1.427 . S
N2254 C2251 1.384 . S
N2255 C2247 1.427 . S
N2255 C2253 1.384 . S
H2256 C2262 0.930 . S
H2257 C2266 0.930 . S
H2258 C2271 0.929 . S
H2259 C2269 0.929 . S
H2260 C2264 0.929 . S
H2261 C2270 0.929 . S
C2262 H2256 0.930 . S
C2262 C2263 1.367 . S
C2262 C2270 1.378 . S
C2263 C2262 1.367 . S
C2263 C2271 1.433 . S
C2264 H2260 0.929 . S
C2264 C2266 1.378 . S
C2264 C2268 1.350 . S
C2265 C2268 1.463 . S
C2265 C2270 1.350 . S
C2265 N2273 1.427 . S
C2266 H2257 0.930 . S
C2266 C2264 1.378 . S
C2266 C2267 1.367 . S
C2267 C2266 1.367 . S
C2267 C2269 1.433 . S
C2268 C2264 1.350 . S
C2268 C2265 1.463 . S
C2268 N2272 1.427 . S
C2269 H2259 0.929 . S
C2269 C2267 1.433 . S
C2269 N2272 1.384 . S
C2270 H2261 0.929 . S
C2270 C2262 1.378 . S
C2270 C2265 1.350 . S
C2271 H2258 0.929 . S
C2271 C2263 1.433 . S
C2271 N2273 1.384 . S
N2272 C2268 1.427 . S
N2272 C2269 1.384 . S
N2273 C2265 1.427 . S
N2273 C2271 1.384 . S
H2274 C2280 0.930 . S
H2275 C2284 0.930 . S
H2276 C2289 0.929 . S
H2277 C2287 0.929 . S
H2278 C2282 0.929 . S
H2279 C2288 0.929 . S
C2280 H2274 0.930 . S
C2280 C2281 1.367 . S
C2280 C2288 1.378 . S
C2281 C2280 1.367 . S
C2281 C2289 1.433 . S
C2282 H2278 0.929 . S
C2282 C2284 1.378 . S
C2282 C2286 1.350 . S
C2283 C2286 1.463 . S
C2283 C2288 1.350 . S
C2283 N2291 1.427 . S
C2284 H2275 0.930 . S
C2284 C2282 1.378 . S
C2284 C2285 1.367 . S
C2285 C2284 1.367 . S
C2285 C2287 1.433 . S
C2286 C2282 1.350 . S
C2286 C2283 1.463 . S
C2286 N2290 1.427 . S
C2287 H2277 0.929 . S
C2287 C2285 1.433 . S
C2287 N2290 1.384 . S
C2288 H2279 0.929 . S
C2288 C2280 1.378 . S
C2288 C2283 1.350 . S
C2289 H2276 0.929 . S
C2289 C2281 1.433 . S
C2289 N2291 1.384 . S
N2290 C2286 1.427 . S
N2290 C2287 1.384 . S
N2291 C2283 1.427 . S
N2291 C2289 1.384 . S
H2292 C2298 0.930 . S
H2293 C2302 0.930 . S
H2294 C2307 0.929 . S
H2295 C2305 0.929 . S
H2296 C2300 0.929 . S
H2297 C2306 0.929 . S
C2298 H2292 0.930 . S
C2298 C2299 1.367 . S
C2298 C2306 1.378 . S
C2299 C2298 1.367 . S
C2299 C2307 1.433 . S
C2300 H2296 0.929 . S
C2300 C2302 1.378 . S
C2300 C2304 1.350 . S
C2301 C2304 1.463 . S
C2301 C2306 1.350 . S
C2301 N2309 1.427 . S
C2302 H2293 0.930 . S
C2302 C2300 1.378 . S
C2302 C2303 1.367 . S
C2303 C2302 1.367 . S
C2303 C2305 1.433 . S
C2304 C2300 1.350 . S
C2304 C2301 1.463 . S
C2304 N2308 1.427 . S
C2305 H2295 0.929 . S
C2305 C2303 1.433 . S
C2305 N2308 1.384 . S
C2306 H2297 0.929 . S
C2306 C2298 1.378 . S
C2306 C2301 1.350 . S
C2307 H2294 0.929 . S
C2307 C2299 1.433 . S
C2307 N2309 1.384 . S
N2308 C2304 1.427 . S
N2308 C2305 1.384 . S
N2309 C2301 1.427 . S
N2309 C2307 1.384 . S
H2310 C2316 0.930 . S
H2311 C2320 0.930 . S
H2312 C2325 0.929 . S
H2313 C2323 0.929 . S
H2314 C2318 0.929 . S
H2315 C2324 0.929 . S
C2316 H2310 0.930 . S
C2316 C2317 1.367 . S
C2316 C2324 1.378 . S
C2317 C2316 1.367 . S
C2317 C2325 1.433 . S
C2318 H2314 0.929 . S
C2318 C2320 1.378 . S
C2318 C2322 1.350 . S
C2319 C2322 1.463 . S
C2319 C2324 1.350 . S
C2319 N2327 1.427 . S
C2320 H2311 0.930 . S
C2320 C2318 1.378 . S
C2320 C2321 1.367 . S
C2321 C2320 1.367 . S
C2321 C2323 1.433 . S
C2322 C2318 1.350 . S
C2322 C2319 1.463 . S
C2322 N2326 1.427 . S
C2323 H2313 0.929 . S
C2323 C2321 1.433 . S
C2323 N2326 1.384 . S
C2324 H2315 0.929 . S
C2324 C2316 1.378 . S
C2324 C2319 1.350 . S
C2325 H2312 0.929 . S
C2325 C2317 1.433 . S
C2325 N2327 1.384 . S
N2326 C2322 1.427 . S
N2326 C2323 1.384 . S
N2327 C2319 1.427 . S
N2327 C2325 1.384 . S
H2328 C2334 0.930 . S
H2329 C2338 0.930 . S
H2330 C2343 0.929 . S
H2331 C2341 0.929 . S
H2332 C2336 0.929 . S
H2333 C2342 0.929 . S
C2334 H2328 0.930 . S
C2334 C2335 1.367 . S
C2334 C2342 1.378 . S
C2335 C2334 1.367 . S
C2335 C2343 1.433 . S
C2336 H2332 0.929 . S
C2336 C2338 1.378 . S
C2336 C2340 1.350 . S
C2337 C2340 1.463 . S
C2337 C2342 1.350 . S
C2337 N2345 1.427 . S
C2338 H2329 0.930 . S
C2338 C2336 1.378 . S
C2338 C2339 1.367 . S
C2339 C2338 1.367 . S
C2339 C2341 1.433 . S
C2340 C2336 1.350 . S
C2340 C2337 1.463 . S
C2340 N2344 1.427 . S
C2341 H2331 0.929 . S
C2341 C2339 1.433 . S
C2341 N2344 1.384 . S
C2342 H2333 0.929 . S
C2342 C2334 1.378 . S
C2342 C2337 1.350 . S
C2343 H2330 0.929 . S
C2343 C2335 1.433 . S
C2343 N2345 1.384 . S
N2344 C2340 1.427 . S
N2344 C2341 1.384 . S
N2345 C2337 1.427 . S
N2345 C2343 1.384 . S
H2346 C2352 0.930 . S
H2347 C2356 0.930 . S
H2348 C2361 0.929 . S
H2349 C2359 0.929 . S
H2350 C2354 0.929 . S
H2351 C2360 0.929 . S
C2352 H2346 0.930 . S
C2352 C2353 1.367 . S
C2352 C2360 1.378 . S
C2353 C2352 1.367 . S
C2353 C2361 1.433 . S
C2354 H2350 0.929 . S
C2354 C2356 1.378 . S
C2354 C2358 1.350 . S
C2355 C2358 1.463 . S
C2355 C2360 1.350 . S
C2355 N2363 1.427 . S
C2356 H2347 0.930 . S
C2356 C2354 1.378 . S
C2356 C2357 1.367 . S
C2357 C2356 1.367 . S
C2357 C2359 1.433 . S
C2358 C2354 1.350 . S
C2358 C2355 1.463 . S
C2358 N2362 1.427 . S
C2359 H2349 0.929 . S
C2359 C2357 1.433 . S
C2359 N2362 1.384 . S
C2360 H2351 0.929 . S
C2360 C2352 1.378 . S
C2360 C2355 1.350 . S
C2361 H2348 0.929 . S
C2361 C2353 1.433 . S
C2361 N2363 1.384 . S
N2362 C2358 1.427 . S
N2362 C2359 1.384 . S
N2363 C2355 1.427 . S
N2363 C2361 1.384 . S
H2364 C2370 0.930 . S
H2365 C2374 0.930 . S
H2366 C2379 0.929 . S
H2367 C2377 0.929 . S
H2368 C2372 0.929 . S
H2369 C2378 0.929 . S
C2370 H2364 0.930 . S
C2370 C2371 1.367 . S
C2370 C2378 1.378 . S
C2371 C2370 1.367 . S
C2371 C2379 1.433 . S
C2372 H2368 0.929 . S
C2372 C2374 1.378 . S
C2372 C2376 1.350 . S
C2373 C2376 1.463 . S
C2373 C2378 1.350 . S
C2373 N2381 1.427 . S
C2374 H2365 0.930 . S
C2374 C2372 1.378 . S
C2374 C2375 1.367 . S
C2375 C2374 1.367 . S
C2375 C2377 1.433 . S
C2376 C2372 1.350 . S
C2376 C2373 1.463 . S
C2376 N2380 1.427 . S
C2377 H2367 0.929 . S
C2377 C2375 1.433 . S
C2377 N2380 1.384 . S
C2378 H2369 0.929 . S
C2378 C2370 1.378 . S
C2378 C2373 1.350 . S
C2379 H2366 0.929 . S
C2379 C2371 1.433 . S
C2379 N2381 1.384 . S
N2380 C2376 1.427 . S
N2380 C2377 1.384 . S
N2381 C2373 1.427 . S
N2381 C2379 1.384 . S
H2382 C2388 0.930 . S
H2383 C2392 0.930 . S
H2384 C2397 0.929 . S
H2385 C2395 0.929 . S
H2386 C2390 0.929 . S
H2387 C2396 0.929 . S
C2388 H2382 0.930 . S
C2388 C2389 1.367 . S
C2388 C2396 1.378 . S
C2389 C2388 1.367 . S
C2389 C2397 1.433 . S
C2390 H2386 0.929 . S
C2390 C2392 1.378 . S
C2390 C2394 1.350 . S
C2391 C2394 1.463 . S
C2391 C2396 1.350 . S
C2391 N2399 1.427 . S
C2392 H2383 0.930 . S
C2392 C2390 1.378 . S
C2392 C2393 1.367 . S
C2393 C2392 1.367 . S
C2393 C2395 1.433 . S
C2394 C2390 1.350 . S
C2394 C2391 1.463 . S
C2394 N2398 1.427 . S
C2395 H2385 0.929 . S
C2395 C2393 1.433 . S
C2395 N2398 1.384 . S
C2396 H2387 0.929 . S
C2396 C2388 1.378 . S
C2396 C2391 1.350 . S
C2397 H2384 0.929 . S
C2397 C2389 1.433 . S
C2397 N2399 1.384 . S
N2398 C2394 1.427 . S
N2398 C2395 1.384 . S
N2399 C2391 1.427 . S
N2399 C2397 1.384 . S
C679 C132 1.678 . S
C683 C6 1.683 . S
C697 C146 1.677 . S
C701 C20 1.676 . S
C715 C160 1.676 . S
C719 C34 1.680 . S
C733 C118 1.687 . S
C737 C48 1.683 . S
C751 C62 1.676 . S
C755 C216 1.681 . S
C769 C76 1.683 . S
C773 C174 1.678 . S
C787 C90 1.687 . S
C791 C188 1.684 . S
C805 C202 1.688 . S
C809 C104 1.685 . S
C823 C230 1.686 . S
C827 C258 1.687 . S
C841 C244 1.677 . S
C845 C650 1.677 . S
C859 C272 1.685 . S
C863 C664 1.687 . S
C877 C286 1.688 . S
C881 C636 1.685 . S
C895 C300 1.685 . S
C899 C622 1.680 . S
C913 C580 1.677 . S
C917 C314 1.682 . S
C931 C328 1.681 . S
C935 C608 1.676 . S
C949 C468 1.684 . S
C953 C342 1.678 . S
C967 C482 1.676 . S
C971 C356 1.679 . S
C985 C496 1.679 . S
C989 C370 1.684 . S
C1003 C454 1.686 . S
C1007 C384 1.687 . S
C1021 C552 1.685 . S
C1025 C398 1.687 . S
C1039 C510 1.681 . S
C1043 C412 1.686 . S
C1057 C426 1.678 . S
C1061 C524 1.683 . S
C1075 C440 1.676 . S
C1079 C538 1.678 . S
C1093 C566 1.676 . S
C1097 C594 1.679 . S
C1111 C232 1.231 . S
C1115 C9 1.153 . S
C1129 C666 1.246 . S
C1133 C23 1.177 . S
C1147 C37 1.153 . S
C1151 C302 1.230 . S
C1165 C652 1.230 . S
C1169 C51 1.153 . S
C1183 C65 1.169 . S
C1187 C582 1.243 . S
C1201 C596 1.240 . S
C1205 C79 1.169 . S
C1219 C93 1.154 . S
C1223 C610 1.230 . S
C1237 C288 1.230 . S
C1241 C107 1.152 . S
C1255 C121 1.181 . S
C1259 C8 1.250 . S
C1273 C22 1.248 . S
C1277 C135 1.179 . S
C1291 C149 1.177 . S
C1295 C36 1.248 . S
C1309 C50 1.234 . S
C1313 C163 1.157 . S
C1327 C177 1.167 . S
C1331 C64 1.241 . S
C1345 C78 1.248 . S
C1349 C191 1.178 . S
C1363 C205 1.159 . S
C1367 C92 1.236 . S
C1381 C219 1.158 . S
C1385 C106 1.233 . S
C1399 C233 1.159 . S
C1403 C120 1.236 . S
C1417 C247 1.181 . S
C1421 C512 1.250 . S
C1435 C526 1.233 . S
C1439 C261 1.156 . S
C1453 C540 1.248 . S
C1457 C275 1.179 . S
C1471 C218 1.230 . S
C1475 C289 1.152 . S
C1489 C303 1.167 . S
C1493 C148 1.241 . S
C1507 C498 1.242 . S
C1511 C317 1.171 . S
C1525 C331 1.180 . S
C1529 C470 1.250 . S
C1543 C345 1.152 . S
C1547 C568 1.230 . S
C1561 C359 1.179 . S
C1565 C330 1.248 . S
C1579 C373 1.179 . S
C1583 C638 1.249 . S
C1597 C387 1.178 . S
C1601 C316 1.249 . S
C1615 C401 1.180 . S
C1619 C246 1.249 . S
C1633 C415 1.180 . S
C1637 C260 1.249 . S
C1651 C274 1.232 . S
C1655 C429 1.157 . S
C1669 C624 1.243 . S
C1673 C443 1.169 . S
C1687 C344 1.239 . S
C1691 C457 1.164 . S
C1705 C358 1.243 . S
C1709 C471 1.172 . S
C1723 C485 1.176 . S
C1727 C372 1.248 . S
C1741 C386 1.250 . S
C1745 C499 1.180 . S
C1759 C513 1.160 . S
C1763 C400 1.234 . S
C1777 C527 1.180 . S
C1781 C414 1.249 . S
C1795 C541 1.179 . S
C1799 C428 1.248 . S
C1813 C442 1.230 . S
C1817 C555 1.152 . S
C1831 C569 1.158 . S
C1835 C456 1.235 . S
C1849 C583 1.173 . S
C1853 C176 1.244 . S
C1867 C190 1.249 . S
C1871 C597 1.180 . S
C1885 C611 1.167 . S
C1889 C204 1.239 . S
C1903 C625 1.179 . S
C1907 C554 1.249 . S
C1921 C484 1.248 . S
C1925 C639 1.179 . S
C1939 C162 1.248 . S
C1943 C653 1.179 . S
C1957 C134 1.238 . S
C1961 C667 1.163 . S
C1975 C315 1.484 . S
C1979 C7 1.484 . S
C1993 C21 1.474 . S
C1997 C567 1.478 . S
C2011 C35 1.482 . S
C2015 C329 1.485 . S
C2029 C637 1.484 . S
C2033 C49 1.482 . S
C2047 C63 1.479 . S
C2051 C259 1.483 . S
C2065 C273 1.474 . S
C2069 C77 1.478 . S
C2083 C623 1.474 . S
C2087 C91 1.474 . S
C2101 C105 1.484 . S
C2105 C245 1.480 . S
C2119 C189 1.483 . S
C2123 C119 1.478 . S
C2137 C133 1.479 . S
C2141 C203 1.475 . S
C2155 C217 1.475 . S
C2159 C147 1.474 . S
C2173 C161 1.480 . S
C2177 C175 1.475 . S
C2191 C357 1.474 . S
C2195 C231 1.475 . S
C2209 C287 1.476 . S
C2213 C427 1.474 . S
C2227 C301 1.474 . S
C2231 C385 1.474 . S
C2245 C651 1.474 . S
C2249 C343 1.476 . S
C2263 C371 1.484 . S
C2267 C665 1.480 . S
C2281 C399 1.475 . S
C2285 C595 1.479 . S
C2299 C413 1.478 . S
C2303 C609 1.474 . S
C2317 C581 1.475 . S
C2321 C441 1.479 . S
C2335 C525 1.474 . S
C2339 C455 1.477 . S
C2353 C469 1.482 . S
C2357 C539 1.484 . S
C2371 C483 1.477 . S
C2375 C553 1.474 . S
C2389 C511 1.484 . S
C2393 C497 1.481 . S
