# Generated by pormake.
# Topology wgu, (5)-cn, num edge types: 1
# Building blocks:
#     Node 0, Type 0, BuildingBlock: XOMCOT_clean_sbu_0, # of connection points: 5
#     Node 1, Type 0, BuildingBlock: XOMCOT_clean_sbu_0, # of connection points: 5
#     Node 2, Type 0, BuildingBlock: XOMCOT_clean_sbu_0, # of connection points: 5
#     Node 3, Type 0, BuildingBlock: XOMCOT_clean_sbu_0, # of connection points: 5
#     Node 4, Type 0, BuildingBlock: XOMCOT_clean_sbu_0, # of connection points: 5
#     Node 5, Type 0, BuildingBlock: XOMCOT_clean_sbu_0, # of connection points: 5
#     Node 6, Type 0, BuildingBlock: XOMCOT_clean_sbu_0, # of connection points: 5
#     Node 7, Type 0, BuildingBlock: XOMCOT_clean_sbu_0, # of connection points: 5
#     Edge 8, Type (0, 0), BuildingBlock: OJICUG_clean_linker_0, # of connection points: 2
#     Edge 9, Type (0, 0), BuildingBlock: OJICUG_clean_linker_0, # of connection points: 2
#     Edge 10, Type (0, 0), BuildingBlock: OJICUG_clean_linker_0, # of connection points: 2
#     Edge 11, Type (0, 0), BuildingBlock: OJICUG_clean_linker_0, # of connection points: 2
#     Edge 12, Type (0, 0), BuildingBlock: OJICUG_clean_linker_0, # of connection points: 2
#     Edge 13, Type (0, 0), BuildingBlock: OJICUG_clean_linker_0, # of connection points: 2
#     Edge 14, Type (0, 0), BuildingBlock: OJICUG_clean_linker_0, # of connection points: 2
#     Edge 15, Type (0, 0), BuildingBlock: OJICUG_clean_linker_0, # of connection points: 2
#     Edge 16, Type (0, 0), BuildingBlock: OJICUG_clean_linker_0, # of connection points: 2
#     Edge 17, Type (0, 0), BuildingBlock: OJICUG_clean_linker_0, # of connection points: 2
#     Edge 18, Type (0, 0), BuildingBlock: OJICUG_clean_linker_0, # of connection points: 2
#     Edge 19, Type (0, 0), BuildingBlock: OJICUG_clean_linker_0, # of connection points: 2
#     Edge 20, Type (0, 0), BuildingBlock: OJICUG_clean_linker_0, # of connection points: 2
#     Edge 21, Type (0, 0), BuildingBlock: OJICUG_clean_linker_0, # of connection points: 2
#     Edge 22, Type (0, 0), BuildingBlock: OJICUG_clean_linker_0, # of connection points: 2
#     Edge 23, Type (0, 0), BuildingBlock: OJICUG_clean_linker_0, # of connection points: 2
#     Edge 24, Type (0, 0), BuildingBlock: OJICUG_clean_linker_0, # of connection points: 2
#     Edge 25, Type (0, 0), BuildingBlock: OJICUG_clean_linker_0, # of connection points: 2
#     Edge 26, Type (0, 0), BuildingBlock: OJICUG_clean_linker_0, # of connection points: 2
#     Edge 27, Type (0, 0), BuildingBlock: OJICUG_clean_linker_0, # of connection points: 2
# Relax obj value: 0.191
# Max RMSD: 0.155
# Mean RMSD: 0.155
data_MOF--net-wgu--node1-XOMCOT_clean_sbu_0--edge1-OJICUG_clean_linker_0
_symmetry_space_group_name_H-M    P1
_symmetry_Int_Tables_number       1
_symmetry_cell_setting            triclinic
loop_
_symmetry_equiv_pos_as_xyz
'x, y, z'
_cell_length_a     24.691547
_cell_length_b     24.713504
_cell_length_c     22.090049
_cell_angle_alpha  90.086314
_cell_angle_beta   89.44966
_cell_angle_gamma 90.060094
loop_
_atom_site_label
_atom_site_type_symbol
_atom_site_fract_x
_atom_site_fract_y
_atom_site_fract_z
_atom_type_partial_charge
Co0 Co 0.33244 0.38459 0.11107 0.0
C1 C 0.33927 0.2775 0.05723 0.0
C2 C 0.41158 0.29433 0.10687 0.0
C3 C 0.41285 0.24094 0.088 0.0
N4 N 0.36533 0.317 0.08725 0.0
N5 N 0.36732 0.23089 0.05664 0.0
H6 H 0.29869 0.28169 0.03977 0.0
H7 H 0.44075 0.31395 0.13569 0.0
C8 C 0.44104 0.43566 0.12379 0.0
O9 O 0.44135 0.41351 0.17775 0.0
N10 N 0.29877 0.45245 0.13572 0.0
C11 C 0.29056 0.47013 0.19301 0.0
C12 C 0.26633 0.52009 0.1915 0.0
C13 C 0.28003 0.4927 0.10021 0.0
N14 N 0.25947 0.53402 0.13322 0.0
C15 C 0.24946 0.38787 1.02244 0.0
C16 C 0.31636 0.37597 0.92225 0.0
C17 C 0.2603 0.36808 0.91542 0.0
C18 C 0.22674 0.37626 0.9662 0.0
C19 C 0.33759 0.38763 0.97961 0.0
N20 N 0.30427 0.39155 0.02917 0.0
H21 H 0.22303 0.39096 0.06157 0.0
H22 H 0.38104 0.38899 0.98492 0.0
H23 H 0.3014 0.44881 0.23374 0.0
H24 H 0.28233 0.49264 0.05131 0.0
O25 O 0.27242 0.34389 0.14536 0.0
O26 O 0.34564 0.36638 0.19596 0.0
O27 O 0.40068 0.42712 0.08889 0.0
C28 C 0.29881 0.34193 0.19568 0.0
H29 H 0.44385 0.21146 0.09811 0.0
H30 H 0.2542 0.5441 0.23034 0.0
H31 H 0.34397 0.36982 0.88449 0.0
H32 H 0.18321 0.37188 0.96303 0.0
Co33 Co 0.64731 0.32545 0.61771 0.0
C34 C 0.75405 0.34369 0.56686 0.0
C35 C 0.73317 0.40883 0.6267 0.0
C36 C 0.78733 0.41344 0.61107 0.0
N37 N 0.71218 0.3656 0.59774 0.0
N38 N 0.80014 0.37186 0.57413 0.0
H39 H 0.75195 0.30517 0.54362 0.0
H40 H 0.71176 0.4328 0.66021 0.0
C41 C 0.60292 0.4382 0.58158 0.0
O42 O 0.64922 0.45262 0.55682 0.0
N43 N 0.5833 0.28318 0.63825 0.0
C44 C 0.57459 0.25125 0.68702 0.0
C45 C 0.52628 0.22438 0.68019 0.0
C46 C 0.53957 0.27573 0.603 0.0
N47 N 0.5045 0.23954 0.62722 0.0
C48 C 0.64823 0.24438 0.52669 0.0
C49 C 0.65948 0.31112 0.42724 0.0
C50 C 0.66824 0.25527 0.41971 0.0
C51 C 0.66039 0.22175 0.47018 0.0
C52 C 0.6472 0.33221 0.48484 0.0
N53 N 0.64371 0.29908 0.53419 0.0
H54 H 0.64535 0.21789 0.56547 0.0
H55 H 0.6443 0.37529 0.48989 0.0
H56 H 0.6013 0.24654 0.72498 0.0
H57 H 0.53459 0.29489 0.55938 0.0
O58 O 0.69402 0.26918 0.64861 0.0
O59 O 0.66175 0.33698 0.70347 0.0
O60 O 0.59674 0.39028 0.60341 0.0
C61 C 0.69214 0.29382 0.70052 0.0
H62 H 0.81596 0.44222 0.62935 0.0
H63 H 0.50853 0.19596 0.71191 0.0
H64 H 0.66513 0.33879 0.38975 0.0
H65 H 0.66524 0.17831 0.46658 0.0
Co66 Co 0.72088 0.64502 0.11034 0.0
C67 C 0.69727 0.75039 0.06076 0.0
C68 C 0.63444 0.72738 0.12309 0.0
C69 C 0.62767 0.78128 0.10834 0.0
N70 N 0.67763 0.7079 0.09214 0.0
N71 N 0.66786 0.79549 0.06981 0.0
H72 H 0.73527 0.74957 0.03598 0.0
H73 H 0.61211 0.70525 0.15741 0.0
C74 C 0.60967 0.59645 0.07598 0.0
O75 O 0.59381 0.64214 0.05179 0.0
N76 N 0.76639 0.58327 0.12882 0.0
C77 C 0.80734 0.58038 0.16889 0.0
C78 C 0.83386 0.53197 0.16127 0.0
C79 C 0.76859 0.53627 0.09768 0.0
N80 N 0.8096 0.50446 0.11643 0.0
C81 C 0.80134 0.64905 1.01803 0.0
C82 C 0.73368 0.65782 0.91976 0.0
C83 C 0.78917 0.66883 0.91151 0.0
C84 C 0.82324 0.66217 0.96135 0.0
C85 C 0.71333 0.64463 0.97751 0.0
N86 N 0.74682 0.64251 0.02633 0.0
H87 H 0.82813 0.64731 0.05636 0.0
H88 H 0.67038 0.63996 0.98313 0.0
H89 H 0.81898 0.61158 0.2004 0.0
H90 H 0.7424 0.52674 0.06011 0.0
O91 O 0.77504 0.69454 0.14114 0.0
O92 O 0.70932 0.65838 0.19652 0.0
O93 O 0.65797 0.59177 0.09675 0.0
C94 C 0.75081 0.69105 0.19347 0.0
H95 H 0.59855 0.80888 0.12834 0.0
H96 H 0.86866 0.51827 0.18641 0.0
H97 H 0.7056 0.66241 0.88277 0.0
H98 H 0.86648 0.66874 0.95719 0.0
Co99 Co 0.3863 0.71382 0.60909 0.0
C100 C 0.28098 0.69637 0.55556 0.0
C101 C 0.29991 0.62979 0.6136 0.0
C102 C 0.24661 0.62496 0.59553 0.0
N103 N 0.32131 0.67466 0.58812 0.0
N104 N 0.2353 0.66688 0.5588 0.0
H105 H 0.2835 0.73558 0.53394 0.0
H106 H 0.31993 0.60451 0.64629 0.0
C107 C 0.4428 0.60853 0.62458 0.0
O108 O 0.41925 0.60782 0.67806 0.0
N109 N 0.45091 0.75467 0.62979 0.0
C110 C 0.45717 0.79033 0.67568 0.0
C111 C 0.50612 0.81611 0.66897 0.0
C112 C 0.49681 0.75893 0.59628 0.0
N113 N 0.53083 0.79655 0.61903 0.0
C114 C 0.38646 0.79503 0.51811 0.0
C115 C 0.37507 0.72651 0.41997 0.0
C116 C 0.36552 0.78219 0.41193 0.0
C117 C 0.37364 0.81663 0.46159 0.0
C118 C 0.388 0.70644 0.47755 0.0
N119 N 0.39116 0.74051 0.52617 0.0
H120 H 0.38917 0.82197 0.55656 0.0
H121 H 0.39085 0.66318 0.48404 0.0
H122 H 0.42797 0.79896 0.71099 0.0
H123 H 0.50393 0.73701 0.55449 0.0
O124 O 0.33993 0.77035 0.64209 0.0
O125 O 0.3706 0.70138 0.69487 0.0
O126 O 0.43404 0.64849 0.58889 0.0
C127 C 0.34064 0.74472 0.69329 0.0
H128 H 0.21787 0.59444 0.61016 0.0
H129 H 0.52208 0.84742 0.69815 0.0
H130 H 0.36925 0.69823 0.38311 0.0
H131 H 0.3682 0.85994 0.45744 0.0
Co132 Co 0.81869 0.1449 0.99168 0.0
C133 C 0.84227 0.25042 0.04139 0.0
C134 C 0.90507 0.22743 0.97899 0.0
C135 C 0.91181 0.28138 0.99375 0.0
N136 N 0.86192 0.2079 1.00998 0.0
N137 N 0.87164 0.29559 0.03232 0.0
H138 H 0.80429 0.24955 0.06621 0.0
H139 H 0.92738 0.20529 0.94463 0.0
C140 C 0.92992 0.09657 0.02577 0.0
O141 O 0.94592 0.14234 0.0499 0.0
N142 N 0.77322 0.083 0.97308 0.0
C143 C 0.7324 0.07986 0.93287 0.0
C144 C 0.70586 0.03142 0.94046 0.0
C145 C 0.77096 0.03611 1.00426 0.0
N146 N 0.73001 1.00414 0.98543 0.0
C147 C 0.73838 0.14859 0.08411 0.0
C148 C 0.8062 0.15778 0.18224 0.0
C149 C 0.75068 0.16852 0.19062 0.0
C150 C 0.71654 0.16164 0.14085 0.0
C151 C 0.82648 0.14465 0.12443 0.0
N152 N 0.7929 0.14231 0.0757 0.0
H153 H 0.71152 0.14668 0.04583 0.0
H154 H 0.86943 0.14022 0.11869 0.0
H155 H 0.72084 0.11091 0.90126 0.0
H156 H 0.79705 0.02678 0.04194 0.0
O157 O 0.76442 0.19421 0.96121 0.0
O158 O 0.8301 0.15831 0.90553 0.0
O159 O 0.88161 0.09183 1.00505 0.0
C160 C 0.78857 0.19084 0.90883 0.0
H161 H 0.94088 0.30902 0.9737 0.0
H162 H 0.67113 1.01754 0.91522 0.0
H163 H 0.83432 0.16256 0.21919 0.0
H164 H 0.67328 0.16801 0.14513 0.0
Co165 Co 0.8904 0.82758 0.4854 0.0
C166 C 0.78288 0.84086 0.53728 0.0
C167 C 0.8022 0.90837 0.48028 0.0
C168 C 0.7481 0.91136 0.49646 0.0
N169 N 0.82419 0.86471 0.50716 0.0
N170 N 0.73619 0.86836 0.53161 0.0
H171 H 0.78598 0.80186 0.55917 0.0
H172 H 0.82299 0.93395 0.44784 0.0
C173 C 0.93215 0.94171 0.52236 0.0
O174 O 0.88607 0.9552 0.54828 0.0
N175 N 0.95612 0.78879 0.46239 0.0
C176 C 0.97129 0.77273 0.4062 0.0
C177 C 0.02064 0.74737 0.40914 0.0
C178 C 0.99724 0.77342 0.49853 0.0
N179 N 0.03669 0.74756 0.46717 0.0
C180 C 0.89107 0.74571 0.57548 0.0
C181 C 0.88027 0.812 0.67557 0.0
C182 C 0.87153 0.7561 0.68269 0.0
C183 C 0.87918 0.72281 0.63188 0.0
C184 C 0.89229 0.83335 0.61808 0.0
N185 N 0.89562 0.80046 0.56842 0.0
H186 H 0.89383 0.71938 0.53647 0.0
H187 H 0.89504 0.87647 0.61337 0.0
H188 H 0.94874 0.77894 0.36518 0.0
H189 H 0.99895 0.7818 0.54656 0.0
O190 O 0.84599 0.76957 0.45384 0.0
O191 O 0.87407 0.8398 0.40019 0.0
O192 O 0.93877 0.894 0.50009 0.0
C193 C 0.84631 0.79484 0.4024 0.0
H194 H 0.71894 0.94032 0.47985 0.0
H195 H 0.04285 0.72975 0.37151 0.0
H196 H 0.87473 0.83952 0.71331 0.0
H197 H 0.87434 0.67935 0.63513 0.0
Co198 Co 0.20596 0.88383 0.99016 0.0
C199 C 0.1986 0.77696 0.04391 0.0
C200 C 0.12628 0.79373 0.99441 0.0
C201 C 0.12475 0.74046 1.01355 0.0
N202 N 0.17271 0.81636 1.01382 0.0
N203 N 0.17027 0.73049 0.04487 0.0
H204 H 0.23924 0.78109 0.06126 0.0
H205 H 0.09713 0.81328 0.96564 0.0
C206 C 0.09759 0.93508 0.9781 0.0
O207 O 0.0969 0.91262 0.92425 0.0
N208 N 0.24003 0.95155 0.96576 0.0
C209 C 0.24858 0.96913 0.90854 0.0
C210 C 0.2726 0.01923 0.91026 0.0
C211 C 0.25842 0.99199 1.00144 0.0
N212 N 0.27899 0.03338 0.96861 0.0
C213 C 0.2892 0.88641 0.07866 0.0
C214 C 0.22226 0.87413 0.17875 0.0
C215 C 0.27824 0.86565 0.18545 0.0
C216 C 0.31185 0.87407 0.13475 0.0
C217 C 0.20112 0.88651 0.12159 0.0
N218 N 0.23442 0.89051 0.07202 0.0
H219 H 0.31562 0.88956 0.03952 0.0
H220 H 0.15768 0.88824 0.11636 0.0
H221 H 0.23805 0.94766 0.86771 0.0
H222 H 0.25579 0.992 0.05034 0.0
O223 O 0.26551 0.84282 0.95526 0.0
O224 O 0.19222 0.86586 0.90527 0.0
O225 O 0.1381 0.92666 1.01278 0.0
C226 C 0.23879 0.84104 0.90512 0.0
H227 H 0.09355 0.71102 1.00371 0.0
H228 H 0.28482 0.04325 0.87152 0.0
H229 H 0.19457 0.86785 0.21639 0.0
H230 H 0.35533 0.86932 0.13781 0.0
Co231 Co 0.14848 0.21795 0.4915 0.0
C232 C 0.25807 0.2044 0.53261 0.0
C233 C 0.22755 0.12681 0.50588 0.0
C234 C 0.28105 0.12114 0.52311 0.0
N235 N 0.21357 0.17927 0.51208 0.0
N236 N 0.29993 0.17033 0.53913 0.0
H237 H 0.25977 0.24731 0.54232 0.0
H238 H 0.20167 0.0951 0.48898 0.0
C239 C 0.09095 0.11307 0.4768 0.0
O240 O 0.1144 0.11201 0.42324 0.0
N241 N 0.08382 0.25864 0.47164 0.0
C242 C 0.07695 0.294 0.4257 0.0
C243 C 0.02841 0.32026 0.43362 0.0
C244 C 0.03877 0.26354 0.50637 0.0
N245 N 1.00467 0.30126 0.48437 0.0
C246 C 0.1499 0.2994 0.58264 0.0
C247 C 0.16326 0.23063 0.67999 0.0
C248 C 0.17224 0.28637 0.68839 0.0
C249 C 0.16339 0.32093 0.63911 0.0
C250 C 0.14978 0.21065 0.62251 0.0
N251 N 0.14518 0.24488 0.57435 0.0
H252 H 0.14645 0.32641 0.54443 0.0
H253 H 0.14717 0.1674 0.61575 0.0
H254 H 0.1055 0.30207 0.38957 0.0
H255 H 0.03237 0.24199 0.54847 0.0
O256 O 0.19419 0.27456 0.45751 0.0
O257 O 0.16352 0.20491 0.40557 0.0
O258 O 0.10063 0.15284 0.5126 0.0
C259 C 0.19345 0.24836 0.40663 0.0
H260 H 0.30462 0.08424 0.52209 0.0
H261 H 1.01206 0.35142 0.40467 0.0
H262 H 0.16981 0.20226 0.7165 0.0
H263 H 0.16861 0.36426 0.64354 0.0
C264 C 0.33318 0.08344 0.04386 0.0
C265 C 0.30246 0.08285 0.99061 0.0
H266 H 0.37911 0.13145 0.1062 0.0
C267 C 0.29548 0.13126 0.95842 0.0
H268 H 0.33958 0.04653 0.06912 0.0
C269 C 0.31781 0.17947 0.97958 0.0
C270 C 0.34825 0.18024 0.03293 0.0
H271 H 0.27175 0.13204 0.91748 0.0
H272 H 0.31111 0.21639 0.95438 0.0
C273 C 0.35632 0.13171 0.06459 0.0
C274 C 0.94009 0.37466 0.5079 0.0
C275 C 0.95446 0.31963 0.51054 0.0
H276 H 0.87936 0.43459 0.52743 0.0
C277 C 0.91842 0.28265 0.53722 0.0
H278 H 0.96759 0.40402 0.48817 0.0
C279 C 0.86799 0.30002 0.55874 0.0
C280 C 0.85318 0.35485 0.55501 0.0
H281 H 0.92862 0.24012 0.53968 0.0
H282 H 0.8404 0.2706 0.57823 0.0
C283 C 0.89004 0.39221 0.53058 0.0
C284 C 0.659 0.93726 1.01122 0.0
C285 C 0.71395 0.95243 1.00938 0.0
H286 H 0.60118 0.87502 0.03294 0.0
C287 C 0.75309 0.91595 0.03 0.0
H288 H 0.62795 0.96498 0.99635 0.0
C289 C 0.73779 0.86467 0.05031 0.0
C290 C 0.68297 0.84913 0.05117 0.0
H291 H 0.79563 0.9266 0.02895 0.0
H292 H 0.76888 0.83714 0.06553 0.0
C293 C 0.64361 0.88617 0.03248 0.0
C294 C 0.13381 0.72754 0.45476 0.0
C295 C 0.08626 0.72534 0.49004 0.0
H296 H 0.21866 0.71021 0.44937 0.0
C297 C 0.08783 0.70078 0.54736 0.0
H298 H 0.13382 0.74652 0.41062 0.0
C299 C 0.13631 0.67918 0.56913 0.0
C300 C 0.18407 0.68279 0.53431 0.0
H301 H 0.05154 0.69814 0.57511 0.0
H302 H 0.13697 0.6614 0.61388 0.0
C303 C 0.18226 0.70688 0.47687 0.0
C304 C 0.88056 0.43766 0.09052 0.0
C305 C 0.8256 0.45269 0.09253 0.0
H306 H 0.93835 0.37549 0.06875 0.0
C307 C 0.78642 0.41598 0.0722 0.0
H308 H 0.91163 0.46555 0.10517 0.0
C309 C 0.80169 0.36464 0.05198 0.0
C310 C 0.85652 0.34926 0.05095 0.0
H311 H 0.74387 0.42652 0.07339 0.0
H312 H 0.77057 0.33695 0.03697 0.0
C313 C 0.89592 0.38651 0.06936 0.0
C314 C 0.61844 0.7779 0.56872 0.0
C315 C 0.58156 0.81488 0.59397 0.0
H316 H 0.69725 0.76615 0.52942 0.0
C317 C 0.59556 0.87003 0.59634 0.0
H318 H 0.60854 0.73526 0.56653 0.0
C319 C 0.64584 0.8878 0.57456 0.0
C320 C 0.68344 0.85059 0.55124 0.0
H321 H 0.56748 0.8994 0.61501 0.0
H322 H 0.65599 0.93036 0.57729 0.0
C323 C 0.66918 0.79552 0.54809 0.0
C324 C 0.20463 0.5833 0.05819 0.0
C325 C 0.23547 0.58317 0.11136 0.0
H326 H 0.15845 0.63074 0.99577 0.0
C327 C 0.24217 0.63173 0.14351 0.0
H328 H 0.1984 0.54624 0.03298 0.0
C329 C 0.21958 0.67968 0.12229 0.0
C330 C 0.18917 0.68002 0.06891 0.0
H331 H 0.26597 0.63286 0.1844 0.0
H332 H 0.22616 0.71676 0.14737 0.0
C333 C 0.18124 0.63131 0.03739 0.0
C334 C 0.37422 0.23679 0.54209 0.0
C335 C 0.3536 0.18547 0.55736 0.0
H336 H 0.43816 0.29431 0.55263 0.0
C337 C 0.3848 0.15092 0.59324 0.0
H338 H 0.35141 0.26393 0.51361 0.0
C339 C 0.43473 0.16836 0.61554 0.0
C340 C 0.45451 0.22043 0.6018 0.0
H341 H 0.36978 0.11125 0.60563 0.0
H342 H 0.45771 0.14117 0.64375 0.0
C343 C 0.42414 0.25403 0.56394 0.0
C344 C 0.57694 0.5099 0.12556 0.0
C345 C 0.5692 0.5515 0.08313 0.0
H346 H 0.54287 0.44132 0.17171 0.0
C347 C 0.52017 0.55204 0.05077 0.0
H348 H 0.61391 0.50805 0.15149 0.0
C349 C 0.47953 0.51316 0.06175 0.0
C350 C 0.48631 0.47314 0.10623 0.0
H351 H 0.51264 0.58328 1.01757 0.0
H352 H 0.44194 0.51577 0.03704 0.0
C353 C 0.53595 0.47165 0.13731 0.0
C354 C 0.56123 0.52893 0.55541 0.0
C355 C 0.55875 0.47966 0.58771 0.0
H356 H 0.5265 0.6077 0.54053 0.0
C357 C 0.51557 0.47225 0.62884 0.0
H358 H 0.59374 0.53623 0.52319 0.0
C359 C 0.47752 0.51358 0.63929 0.0
C360 C 0.48077 0.56336 0.60824 0.0
H361 H 0.51213 0.43514 0.65464 0.0
H362 H 0.4458 0.50671 0.67262 0.0
C363 C 0.52252 0.57 0.56514 0.0
C364 C 1.00279 0.9711 0.96502 0.0
C365 C 0.0526 0.97278 0.99574 0.0
H366 H 0.92492 1.00752 0.95104 0.0
C367 C 0.05982 1.0132 0.03982 0.0
H368 H 0.99554 0.94045 0.93093 0.0
C369 C 0.01941 0.05228 0.05074 0.0
C370 C 0.9702 0.05153 1.0187 0.0
H371 H 0.09755 1.01597 0.06424 0.0
H372 H 0.02724 0.08381 0.08361 0.0
C373 C 0.96204 1.00955 0.97669 0.0
C374 C 1.01855 0.97649 0.47377 0.0
C375 C 0.97571 0.98379 0.5154 0.0
H376 H 0.08777 1.0111 0.4291 0.0
C377 C 0.97323 0.03325 0.54748 0.0
H378 H 0.022 0.93925 0.4481 0.0
C379 C 1.01169 0.07454 0.53714 0.0
C380 C 0.05314 0.06789 0.49364 0.0
H381 H 0.94097 0.04048 0.58004 0.0
H382 H 1.00778 0.11236 0.56164 0.0
C383 C 0.0563 1.01798 0.46273 0.0
C384 C 0.29173 0.32881 0.30841 0.0
C385 C 0.27495 0.31508 0.24981 0.0
H386 H 0.27861 0.31883 0.4039 0.0
C387 C 0.23283 0.27713 0.24317 0.0
H388 H 0.3239 0.358 0.315 0.0
C389 C 0.20746 0.25402 0.29397 0.0
C390 C 0.22288 0.26923 0.35257 0.0
H391 H 0.21912 0.26554 0.19855 0.0
H392 H 0.1747 0.2255 0.28734 0.0
C393 C 0.26559 0.30654 0.35925 0.0
C394 C 0.7831 0.20546 0.79649 0.0
C395 C 0.76719 0.22003 0.85547 0.0
H396 H 0.77169 0.2173 0.70136 0.0
C397 C 0.72856 0.26143 0.86315 0.0
H398 H 0.8127 0.17377 0.78905 0.0
C399 C 0.70546 0.28684 0.81293 0.0
C400 C 0.71993 0.27088 0.75395 0.0
H401 H 0.71564 0.27381 0.90808 0.0
H402 H 0.67511 0.31783 0.82035 0.0
C403 C 0.75946 0.23035 0.74629 0.0
C404 C 0.78049 0.72973 0.35629 0.0
C405 C 0.81889 0.77142 0.34887 0.0
H406 H 0.72824 0.6722 0.3132 0.0
C407 C 0.83247 0.78829 0.28999 0.0
H408 H 0.76895 0.71596 0.40114 0.0
C409 C 0.80961 0.7627 0.23961 0.0
C410 C 0.77202 0.72027 0.24703 0.0
H411 H 0.86195 0.82018 0.28276 0.0
H412 H 0.82183 0.77582 0.19474 0.0
C413 C 0.757 0.70473 0.30595 0.0
C414 C 0.24479 0.82751 0.7923 0.0
C415 C 0.26182 0.81375 0.85076 0.0
H416 H 0.25686 0.81687 0.69667 0.0
C417 C 0.30321 0.77508 0.85702 0.0
H418 H 0.21315 0.85725 0.786 0.0
C419 C 0.3276 0.75126 0.806 0.0
C420 C 0.31193 0.76641 0.7475 0.0
H421 H 0.31708 0.76343 0.90151 0.0
H422 H 0.35982 0.72217 0.81238 0.0
C423 C 0.26999 0.80451 0.7412 0.0
C424 C 0.79199 0.67071 0.79697 0.0
C425 C 0.81111 0.69011 0.8527 0.0
H426 H 0.79555 0.67623 0.70029 0.0
C427 C 0.85076 0.73122 0.85194 0.0
H428 H 0.7617 0.63902 0.7956 0.0
C429 C 0.87061 0.75234 0.79716 0.0
C430 C 0.85155 0.73288 0.74143 0.0
H431 H 0.86591 0.74793 0.89385 0.0
H432 H 0.90114 0.78379 0.79854 0.0
C433 C 0.81197 0.6917 0.74218 0.0
C434 C 0.36281 0.78469 0.29741 0.0
C435 C 0.34399 0.80406 0.35367 0.0
H436 H 0.35697 0.78858 0.2008 0.0
C437 C 0.30329 0.84405 0.35404 0.0
H438 H 0.39409 0.75404 0.29521 0.0
C439 C 0.28213 0.86414 0.29983 0.0
C440 C 0.30122 0.84507 0.24357 0.0
H441 H 0.28701 0.85934 0.39642 0.0
H442 H 0.25101 0.89495 0.30205 0.0
C443 C 0.34187 0.80501 0.24317 0.0
C444 C 0.1753 0.28812 0.80279 0.0
C445 C 0.19381 0.30811 0.74673 0.0
H446 H 0.18166 0.29103 0.89938 0.0
C447 C 0.23435 0.34835 0.74669 0.0
H448 H 0.14413 0.2573 0.80472 0.0
C449 C 0.25581 0.36792 0.80108 0.0
C450 C 0.23709 0.34812 0.85712 0.0
H451 H 0.25031 0.36414 0.70443 0.0
H452 H 0.28688 0.39885 0.7992 0.0
C453 C 0.1965 0.30795 0.85717 0.0
C454 C 0.68914 0.23076 0.2504 0.0
C455 C 0.7288 0.18974 0.24949 0.0
H456 H 0.63874 0.28315 0.30403 0.0
C457 C 0.74796 0.17035 0.30511 0.0
H458 H 0.67399 0.24745 0.20856 0.0
C459 C 0.72797 0.19124 0.35998 0.0
C460 C 0.68835 0.2323 0.36089 0.0
H461 H 0.77826 0.13873 0.30633 0.0
H462 H 0.74437 0.17576 0.4018 0.0
C463 C 0.66929 0.25178 0.30526 0.0
loop_
_geom_bond_atom_site_label_1
_geom_bond_atom_site_label_2
_geom_bond_distance
_geom_bond_site_symmetry_2
_ccdc_geom_bond_type
Co0 N4 2.148 . S
Co0 N10 2.128 . S
Co0 N20 2.194 1_554 S
Co0 O25 2.351 . S
Co0 O26 2.155 . S
Co0 O27 2.096 . S
C1 N4 1.301 . S
C1 N5 1.328 . S
C1 H6 0.930 . S
C2 C3 1.333 . S
C2 N4 1.317 . S
C2 H7 0.930 . S
C3 C2 1.333 . S
C3 N5 1.350 . S
C3 H29 0.931 . S
N4 Co0 2.148 . S
N4 C1 1.301 . S
N4 C2 1.317 . S
N5 C1 1.328 . S
N5 C3 1.350 . S
H6 C1 0.930 . S
H7 C2 0.930 . S
C8 O9 1.224 1_554 S
C8 O27 1.247 . S
O9 C8 1.224 1_556 S
N10 Co0 2.128 . S
N10 C11 1.355 . S
N10 C13 1.311 . S
C11 N10 1.355 . S
C11 C12 1.363 . S
C11 H23 0.929 . S
C12 C11 1.363 . S
C12 N14 1.375 . S
C12 H30 0.931 . S
C13 N10 1.311 . S
C13 N14 1.347 . S
C13 H24 0.929 . S
N14 C12 1.375 . S
N14 C13 1.347 . S
C15 C18 1.365 . S
C15 N20 1.328 . S
C15 H21 0.929 1_556 S
C16 C17 1.362 . S
C16 C19 1.378 . S
C16 H31 0.929 . S
C17 C16 1.362 . S
C17 C18 1.366 . S
C18 C15 1.365 . S
C18 C17 1.366 . S
C18 H32 0.930 . S
C19 C16 1.378 . S
C19 N20 1.315 . S
C19 H22 0.930 . S
N20 Co0 2.194 1_556 S
N20 C15 1.328 . S
N20 C19 1.315 . S
H21 C15 0.929 1_554 S
H22 C19 0.930 . S
H23 C11 0.929 . S
H24 C13 0.929 . S
O25 Co0 2.351 . S
O25 C28 1.244 . S
O26 Co0 2.155 . S
O26 C28 1.240 . S
O27 Co0 2.096 . S
O27 C8 1.247 . S
C28 O25 1.244 . S
C28 O26 1.240 . S
H29 C3 0.931 . S
H30 C12 0.931 . S
H31 C16 0.929 . S
H32 C18 0.930 . S
Co33 N37 2.148 . S
Co33 N43 2.128 . S
Co33 N53 2.194 . S
Co33 O58 2.351 . S
Co33 O59 2.155 . S
Co33 O60 2.096 . S
C34 N37 1.301 . S
C34 N38 1.328 . S
C34 H39 0.930 . S
C35 C36 1.333 . S
C35 N37 1.317 . S
C35 H40 0.930 . S
C36 C35 1.333 . S
C36 N38 1.350 . S
C36 H62 0.931 . S
N37 Co33 2.148 . S
N37 C34 1.301 . S
N37 C35 1.317 . S
N38 C34 1.328 . S
N38 C36 1.350 . S
H39 C34 0.930 . S
H40 C35 0.930 . S
C41 O42 1.224 . S
C41 O60 1.247 . S
O42 C41 1.224 . S
N43 Co33 2.128 . S
N43 C44 1.355 . S
N43 C46 1.311 . S
C44 N43 1.355 . S
C44 C45 1.363 . S
C44 H56 0.929 . S
C45 C44 1.363 . S
C45 N47 1.375 . S
C45 H63 0.931 . S
C46 N43 1.311 . S
C46 N47 1.347 . S
C46 H57 0.929 . S
N47 C45 1.375 . S
N47 C46 1.347 . S
C48 C51 1.365 . S
C48 N53 1.328 . S
C48 H54 0.929 . S
C49 C50 1.362 . S
C49 C52 1.378 . S
C49 H64 0.929 . S
C50 C49 1.362 . S
C50 C51 1.366 . S
C51 C48 1.365 . S
C51 C50 1.366 . S
C51 H65 0.930 . S
C52 C49 1.378 . S
C52 N53 1.315 . S
C52 H55 0.930 . S
N53 Co33 2.194 . S
N53 C48 1.328 . S
N53 C52 1.315 . S
H54 C48 0.929 . S
H55 C52 0.930 . S
H56 C44 0.929 . S
H57 C46 0.929 . S
O58 Co33 2.351 . S
O58 C61 1.244 . S
O59 Co33 2.155 . S
O59 C61 1.240 . S
O60 Co33 2.096 . S
O60 C41 1.247 . S
C61 O58 1.244 . S
C61 O59 1.240 . S
H62 C36 0.931 . S
H63 C45 0.931 . S
H64 C49 0.929 . S
H65 C51 0.930 . S
Co66 N70 2.148 . S
Co66 N76 2.128 . S
Co66 N86 2.194 1_554 S
Co66 O91 2.351 . S
Co66 O92 2.155 . S
Co66 O93 2.096 . S
C67 N70 1.301 . S
C67 N71 1.328 . S
C67 H72 0.930 . S
C68 C69 1.333 . S
C68 N70 1.317 . S
C68 H73 0.930 . S
C69 C68 1.333 . S
C69 N71 1.350 . S
C69 H95 0.931 . S
N70 Co66 2.148 . S
N70 C67 1.301 . S
N70 C68 1.317 . S
N71 C67 1.328 . S
N71 C69 1.350 . S
H72 C67 0.930 . S
H73 C68 0.930 . S
C74 O75 1.224 1_554 S
C74 O93 1.247 . S
O75 C74 1.224 1_556 S
N76 Co66 2.128 . S
N76 C77 1.355 . S
N76 C79 1.311 . S
C77 N76 1.355 . S
C77 C78 1.363 . S
C77 H89 0.929 . S
C78 C77 1.363 . S
C78 N80 1.375 . S
C78 H96 0.931 . S
C79 N76 1.311 . S
C79 N80 1.347 . S
C79 H90 0.929 . S
N80 C78 1.375 . S
N80 C79 1.347 . S
C81 C84 1.365 . S
C81 N86 1.328 . S
C81 H87 0.929 1_556 S
C82 C83 1.362 . S
C82 C85 1.378 . S
C82 H97 0.929 . S
C83 C82 1.362 . S
C83 C84 1.366 . S
C84 C81 1.365 . S
C84 C83 1.366 . S
C84 H98 0.930 . S
C85 C82 1.378 . S
C85 N86 1.315 . S
C85 H88 0.930 . S
N86 Co66 2.194 1_556 S
N86 C81 1.328 . S
N86 C85 1.315 . S
H87 C81 0.929 1_554 S
H88 C85 0.930 . S
H89 C77 0.929 . S
H90 C79 0.929 . S
O91 Co66 2.351 . S
O91 C94 1.244 . S
O92 Co66 2.155 . S
O92 C94 1.240 . S
O93 Co66 2.096 . S
O93 C74 1.247 . S
C94 O91 1.244 . S
C94 O92 1.240 . S
H95 C69 0.931 . S
H96 C78 0.931 . S
H97 C82 0.929 . S
H98 C84 0.930 . S
Co99 N103 2.148 . S
Co99 N109 2.128 . S
Co99 N119 2.194 . S
Co99 O124 2.351 . S
Co99 O125 2.155 . S
Co99 O126 2.096 . S
C100 N103 1.301 . S
C100 N104 1.328 . S
C100 H105 0.930 . S
C101 C102 1.333 . S
C101 N103 1.317 . S
C101 H106 0.930 . S
C102 C101 1.333 . S
C102 N104 1.350 . S
C102 H128 0.931 . S
N103 Co99 2.148 . S
N103 C100 1.301 . S
N103 C101 1.317 . S
N104 C100 1.328 . S
N104 C102 1.350 . S
H105 C100 0.930 . S
H106 C101 0.930 . S
C107 O108 1.224 . S
C107 O126 1.247 . S
O108 C107 1.224 . S
N109 Co99 2.128 . S
N109 C110 1.355 . S
N109 C112 1.311 . S
C110 N109 1.355 . S
C110 C111 1.363 . S
C110 H122 0.929 . S
C111 C110 1.363 . S
C111 N113 1.375 . S
C111 H129 0.931 . S
C112 N109 1.311 . S
C112 N113 1.347 . S
C112 H123 0.929 . S
N113 C111 1.375 . S
N113 C112 1.347 . S
C114 C117 1.365 . S
C114 N119 1.328 . S
C114 H120 0.929 . S
C115 C116 1.362 . S
C115 C118 1.378 . S
C115 H130 0.929 . S
C116 C115 1.362 . S
C116 C117 1.366 . S
C117 C114 1.365 . S
C117 C116 1.366 . S
C117 H131 0.930 . S
C118 C115 1.378 . S
C118 N119 1.315 . S
C118 H121 0.930 . S
N119 Co99 2.194 . S
N119 C114 1.328 . S
N119 C118 1.315 . S
H120 C114 0.929 . S
H121 C118 0.930 . S
H122 C110 0.929 . S
H123 C112 0.929 . S
O124 Co99 2.351 . S
O124 C127 1.244 . S
O125 Co99 2.155 . S
O125 C127 1.240 . S
O126 Co99 2.096 . S
O126 C107 1.247 . S
C127 O124 1.244 . S
C127 O125 1.240 . S
H128 C102 0.931 . S
H129 C111 0.931 . S
H130 C115 0.929 . S
H131 C117 0.930 . S
Co132 N136 2.148 . S
Co132 N142 2.128 . S
Co132 N152 2.194 1_556 S
Co132 O157 2.351 . S
Co132 O158 2.155 . S
Co132 O159 2.096 . S
C133 N136 1.301 . S
C133 N137 1.328 . S
C133 H138 0.930 . S
C134 C135 1.333 . S
C134 N136 1.317 . S
C134 H139 0.930 . S
C135 C134 1.333 . S
C135 N137 1.350 . S
C135 H161 0.931 . S
N136 Co132 2.148 . S
N136 C133 1.301 . S
N136 C134 1.317 . S
N137 C133 1.328 . S
N137 C135 1.350 . S
H138 C133 0.930 . S
H139 C134 0.930 . S
C140 O141 1.224 . S
C140 O159 1.247 1_554 S
O141 C140 1.224 . S
N142 Co132 2.128 . S
N142 C143 1.355 1_546 S
N142 C145 1.311 1_545 S
C143 N142 1.355 1_564 S
C143 C144 1.363 . S
C143 H155 0.929 1_565 S
C144 C143 1.363 . S
C144 N146 1.375 . S
C144 H162 0.931 . S
C145 N142 1.311 1_565 S
C145 N146 1.347 1_556 S
C145 H156 0.929 . S
N146 C144 1.375 . S
N146 C145 1.347 1_554 S
C147 C150 1.365 . S
C147 N152 1.328 . S
C147 H153 0.929 . S
C148 C149 1.362 . S
C148 C151 1.378 . S
C148 H163 0.929 . S
C149 C148 1.362 . S
C149 C150 1.366 . S
C150 C147 1.365 . S
C150 C149 1.366 . S
C150 H164 0.930 . S
C151 C148 1.378 . S
C151 N152 1.315 . S
C151 H154 0.930 . S
N152 Co132 2.194 1_554 S
N152 C147 1.328 . S
N152 C151 1.315 . S
H153 C147 0.929 . S
H154 C151 0.930 . S
H155 C143 0.929 1_545 S
H156 C145 0.929 . S
O157 Co132 2.351 . S
O157 C160 1.244 . S
O158 Co132 2.155 . S
O158 C160 1.240 . S
O159 Co132 2.096 . S
O159 C140 1.247 1_556 S
C160 O157 1.244 . S
C160 O158 1.240 . S
H161 C135 0.931 . S
H162 C144 0.931 . S
H163 C148 0.929 . S
H164 C150 0.930 . S
Co165 N169 2.148 . S
Co165 N175 2.128 . S
Co165 N185 2.194 . S
Co165 O190 2.351 . S
Co165 O191 2.155 . S
Co165 O192 2.096 . S
C166 N169 1.301 . S
C166 N170 1.328 . S
C166 H171 0.930 . S
C167 C168 1.333 . S
C167 N169 1.317 . S
C167 H172 0.930 . S
C168 C167 1.333 . S
C168 N170 1.350 . S
C168 H194 0.931 . S
N169 Co165 2.148 . S
N169 C166 1.301 . S
N169 C167 1.317 . S
N170 C166 1.328 . S
N170 C168 1.350 . S
H171 C166 0.930 . S
H172 C167 0.930 . S
C173 O174 1.224 . S
C173 O192 1.247 . S
O174 C173 1.224 . S
N175 Co165 2.128 . S
N175 C176 1.355 1_655 S
N175 C178 1.311 1_655 S
C176 N175 1.355 1_455 S
C176 C177 1.363 . S
C176 H188 0.929 1_455 S
C177 C176 1.363 . S
C177 N179 1.375 . S
C177 H195 0.931 . S
C178 N175 1.311 1_455 S
C178 N179 1.347 . S
C178 H189 0.929 . S
N179 C177 1.375 . S
N179 C178 1.347 . S
C180 C183 1.365 . S
C180 N185 1.328 . S
C180 H186 0.929 . S
C181 C182 1.362 . S
C181 C184 1.378 . S
C181 H196 0.929 . S
C182 C181 1.362 . S
C182 C183 1.366 . S
C183 C180 1.365 . S
C183 C182 1.366 . S
C183 H197 0.930 . S
C184 C181 1.378 . S
C184 N185 1.315 . S
C184 H187 0.930 . S
N185 Co165 2.194 . S
N185 C180 1.328 . S
N185 C184 1.315 . S
H186 C180 0.929 . S
H187 C184 0.930 . S
H188 C176 0.929 1_655 S
H189 C178 0.929 . S
O190 Co165 2.351 . S
O190 C193 1.244 . S
O191 Co165 2.155 . S
O191 C193 1.240 . S
O192 Co165 2.096 . S
O192 C173 1.247 . S
C193 O190 1.244 . S
C193 O191 1.240 . S
H194 C168 0.931 . S
H195 C177 0.931 . S
H196 C181 0.929 . S
H197 C183 0.930 . S
Co198 N202 2.148 . S
Co198 N208 2.128 . S
Co198 N218 2.194 1_556 S
Co198 O223 2.351 . S
Co198 O224 2.155 . S
Co198 O225 2.096 . S
C199 N202 1.301 . S
C199 N203 1.328 . S
C199 H204 0.930 . S
C200 C201 1.333 . S
C200 N202 1.317 . S
C200 H205 0.930 . S
C201 C200 1.333 . S
C201 N203 1.350 . S
C201 H227 0.931 . S
N202 Co198 2.148 . S
N202 C199 1.301 . S
N202 C200 1.317 . S
N203 C199 1.328 . S
N203 C201 1.350 . S
H204 C199 0.930 . S
H205 C200 0.930 . S
C206 O207 1.224 . S
C206 O225 1.247 1_554 S
O207 C206 1.224 . S
N208 Co198 2.128 . S
N208 C209 1.355 1_566 S
N208 C211 1.311 1_565 S
C209 N208 1.355 1_544 S
C209 C210 1.363 . S
C209 H221 0.929 1_545 S
C210 C209 1.363 . S
C210 N212 1.375 . S
C210 H228 0.931 . S
C211 N208 1.311 1_545 S
C211 N212 1.347 1_556 S
C211 H222 0.929 . S
N212 C210 1.375 . S
N212 C211 1.347 1_554 S
C213 C216 1.365 . S
C213 N218 1.328 . S
C213 H219 0.929 . S
C214 C215 1.362 . S
C214 C217 1.378 . S
C214 H229 0.929 . S
C215 C214 1.362 . S
C215 C216 1.366 . S
C216 C213 1.365 . S
C216 C215 1.366 . S
C216 H230 0.930 . S
C217 C214 1.378 . S
C217 N218 1.315 . S
C217 H220 0.930 . S
N218 Co198 2.194 1_554 S
N218 C213 1.328 . S
N218 C217 1.315 . S
H219 C213 0.929 . S
H220 C217 0.930 . S
H221 C209 0.929 1_565 S
H222 C211 0.929 . S
O223 Co198 2.351 . S
O223 C226 1.244 . S
O224 Co198 2.155 . S
O224 C226 1.240 . S
O225 Co198 2.096 . S
O225 C206 1.247 1_556 S
C226 O223 1.244 . S
C226 O224 1.240 . S
H227 C201 0.931 . S
H228 C210 0.931 . S
H229 C214 0.929 . S
H230 C216 0.930 . S
Co231 N235 2.148 . S
Co231 N241 2.128 . S
Co231 N251 2.194 . S
Co231 O256 2.351 . S
Co231 O257 2.155 . S
Co231 O258 2.096 . S
C232 N235 1.301 . S
C232 N236 1.328 . S
C232 H237 0.930 . S
C233 C234 1.333 . S
C233 N235 1.317 . S
C233 H238 0.930 . S
C234 C233 1.333 . S
C234 N236 1.350 . S
C234 H260 0.931 . S
N235 Co231 2.148 . S
N235 C232 1.301 . S
N235 C233 1.317 . S
N236 C232 1.328 . S
N236 C234 1.350 . S
H237 C232 0.930 . S
H238 C233 0.930 . S
C239 O240 1.224 . S
C239 O258 1.247 . S
O240 C239 1.224 . S
N241 Co231 2.128 . S
N241 C242 1.355 1_455 S
N241 C244 1.311 1_455 S
C242 N241 1.355 1_655 S
C242 C243 1.363 . S
C242 H254 0.929 1_655 S
C243 C242 1.363 . S
C243 N245 1.375 . S
C243 H261 0.931 . S
C244 N241 1.311 1_655 S
C244 N245 1.347 . S
C244 H255 0.929 . S
N245 C243 1.375 . S
N245 C244 1.347 . S
C246 C249 1.365 . S
C246 N251 1.328 . S
C246 H252 0.929 . S
C247 C248 1.362 . S
C247 C250 1.378 . S
C247 H262 0.929 . S
C248 C247 1.362 . S
C248 C249 1.366 . S
C249 C246 1.365 . S
C249 C248 1.366 . S
C249 H263 0.930 . S
C250 C247 1.378 . S
C250 N251 1.315 . S
C250 H253 0.930 . S
N251 Co231 2.194 . S
N251 C246 1.328 . S
N251 C250 1.315 . S
H252 C246 0.929 . S
H253 C250 0.930 . S
H254 C242 0.929 1_455 S
H255 C244 0.929 . S
O256 Co231 2.351 . S
O256 C259 1.244 . S
O257 Co231 2.155 . S
O257 C259 1.240 . S
O258 Co231 2.096 . S
O258 C239 1.247 . S
C259 O256 1.244 . S
C259 O257 1.240 . S
H260 C234 0.931 . S
H261 C243 0.931 . S
H262 C247 0.929 . S
H263 C249 0.930 . S
C264 C265 1.387 . S
C264 H268 0.950 . S
C264 C273 1.390 . S
C265 C264 1.387 . S
C265 C267 1.387 1_554 S
H266 C273 0.950 . S
C267 C265 1.387 1_556 S
C267 C269 1.390 1_556 S
C267 H271 0.950 . S
H268 C264 0.950 . S
C269 C267 1.390 1_554 S
C269 C270 1.387 . S
C269 H272 0.950 1_554 S
C270 C269 1.387 . S
C270 C273 1.387 . S
H271 C267 0.950 . S
H272 C269 0.950 1_556 S
C273 C264 1.390 . S
C273 H266 0.950 . S
C273 C270 1.387 . S
C274 C275 1.387 . S
C274 H278 0.950 . S
C274 C283 1.390 . S
C275 C274 1.387 . S
C275 C277 1.387 . S
H276 C283 0.950 . S
C277 C275 1.387 . S
C277 C279 1.390 . S
C277 H281 0.950 . S
H278 C274 0.950 . S
C279 C277 1.390 . S
C279 C280 1.387 . S
C279 H282 0.950 . S
C280 C279 1.387 . S
C280 C283 1.387 . S
H281 C277 0.950 . S
H282 C279 0.950 . S
C283 C274 1.390 . S
C283 H276 0.950 . S
C283 C280 1.387 . S
C284 C285 1.387 . S
C284 H288 0.950 . S
C284 C293 1.390 . S
C285 C284 1.387 . S
C285 C287 1.387 1_554 S
H286 C293 0.950 . S
C287 C285 1.387 1_556 S
C287 C289 1.390 1_556 S
C287 H291 0.950 . S
H288 C284 0.950 . S
C289 C287 1.390 1_554 S
C289 C290 1.387 . S
C289 H292 0.950 1_554 S
C290 C289 1.387 . S
C290 C293 1.387 . S
H291 C287 0.950 . S
H292 C289 0.950 1_556 S
C293 C284 1.390 . S
C293 H286 0.950 . S
C293 C290 1.387 . S
C294 C295 1.387 . S
C294 H298 0.950 . S
C294 C303 1.390 . S
C295 C294 1.387 . S
C295 C297 1.387 . S
H296 C303 0.950 . S
C297 C295 1.387 . S
C297 C299 1.390 . S
C297 H301 0.950 . S
H298 C294 0.950 . S
C299 C297 1.390 . S
C299 C300 1.387 . S
C299 H302 0.950 . S
C300 C299 1.387 . S
C300 C303 1.387 . S
H301 C297 0.950 . S
H302 C299 0.950 . S
C303 C294 1.390 . S
C303 H296 0.950 . S
C303 C300 1.387 . S
C304 C305 1.387 . S
C304 H308 0.950 . S
C304 C313 1.390 . S
C305 C304 1.387 . S
C305 C307 1.387 1_554 S
H306 C313 0.950 . S
C307 C305 1.387 1_556 S
C307 C309 1.390 . S
C307 H311 0.950 . S
H308 C304 0.950 . S
C309 C307 1.390 . S
C309 C310 1.387 . S
C309 H312 0.950 . S
C310 C309 1.387 . S
C310 C313 1.387 1_556 S
H311 C307 0.950 . S
H312 C309 0.950 . S
C313 C304 1.390 . S
C313 H306 0.950 . S
C313 C310 1.387 1_554 S
C314 C315 1.387 . S
C314 H318 0.950 . S
C314 C323 1.390 . S
C315 C314 1.387 . S
C315 C317 1.387 . S
H316 C323 0.950 . S
C317 C315 1.387 . S
C317 C319 1.390 . S
C317 H321 0.950 . S
H318 C314 0.950 . S
C319 C317 1.390 . S
C319 C320 1.387 . S
C319 H322 0.950 . S
C320 C319 1.387 . S
C320 C323 1.387 . S
H321 C317 0.950 . S
H322 C319 0.950 . S
C323 C314 1.390 . S
C323 H316 0.950 . S
C323 C320 1.387 . S
C324 C325 1.387 1_556 S
C324 H328 0.950 . S
C324 C333 1.390 . S
C325 C324 1.387 1_554 S
C325 C327 1.387 . S
H326 C333 0.950 . S
C327 C325 1.387 . S
C327 C329 1.390 . S
C327 H331 0.950 . S
H328 C324 0.950 . S
C329 C327 1.390 . S
C329 C330 1.387 1_554 S
C329 H332 0.950 . S
C330 C329 1.387 1_556 S
C330 C333 1.387 . S
H331 C327 0.950 . S
H332 C329 0.950 . S
C333 C324 1.390 . S
C333 H326 0.950 . S
C333 C330 1.387 . S
C334 C335 1.387 . S
C334 H338 0.950 . S
C334 C343 1.390 . S
C335 C334 1.387 . S
C335 C337 1.387 . S
H336 C343 0.950 . S
C337 C335 1.387 . S
C337 C339 1.390 . S
C337 H341 0.950 . S
H338 C334 0.950 . S
C339 C337 1.390 . S
C339 C340 1.387 . S
C339 H342 0.950 . S
C340 C339 1.387 . S
C340 C343 1.387 . S
H341 C337 0.950 . S
H342 C339 0.950 . S
C343 C334 1.390 . S
C343 H336 0.950 . S
C343 C340 1.387 . S
C344 C345 1.387 . S
C344 H348 0.950 . S
C344 C353 1.390 . S
C345 C344 1.387 . S
C345 C347 1.387 1_554 S
H346 C353 0.950 . S
C347 C345 1.387 1_556 S
C347 C349 1.390 . S
C347 H351 0.950 . S
H348 C344 0.950 . S
C349 C347 1.390 . S
C349 C350 1.387 1_556 S
C349 H352 0.950 . S
C350 C349 1.387 1_554 S
C350 C353 1.387 . S
H351 C347 0.950 . S
H352 C349 0.950 . S
C353 C344 1.390 . S
C353 H346 0.950 . S
C353 C350 1.387 . S
C354 C355 1.387 . S
C354 H358 0.950 . S
C354 C363 1.390 . S
C355 C354 1.387 . S
C355 C357 1.387 . S
H356 C363 0.950 . S
C357 C355 1.387 . S
C357 C359 1.390 . S
C357 H361 0.950 . S
H358 C354 0.950 . S
C359 C357 1.390 . S
C359 C360 1.387 . S
C359 H362 0.950 . S
C360 C359 1.387 . S
C360 C363 1.387 . S
H361 C357 0.950 . S
H362 C359 0.950 . S
C363 C354 1.390 . S
C363 H356 0.950 . S
C363 C360 1.387 . S
C364 C365 1.387 1_556 S
C364 H368 0.950 . S
C364 C373 1.390 1_465 S
C365 C364 1.387 1_554 S
C365 C367 1.387 . S
H366 C373 0.950 . S
C367 C365 1.387 . S
C367 C369 1.390 1_465 S
C367 H371 0.950 . S
H368 C364 0.950 . S
C369 C367 1.390 1_645 S
C369 C370 1.387 . S
C369 H372 0.950 . S
C370 C369 1.387 . S
C370 C373 1.387 1_554 S
H371 C367 0.950 . S
H372 C369 0.950 . S
C373 C364 1.390 1_645 S
C373 H366 0.950 . S
C373 C370 1.387 1_556 S
C374 C375 1.387 . S
C374 H378 0.950 . S
C374 C383 1.390 1_665 S
C375 C374 1.387 . S
C375 C377 1.387 . S
H376 C383 0.950 . S
C377 C375 1.387 . S
C377 C379 1.390 1_665 S
C377 H381 0.950 . S
H378 C374 0.950 . S
C379 C377 1.390 1_445 S
C379 C380 1.387 . S
C379 H382 0.950 . S
C380 C379 1.387 . S
C380 C383 1.387 . S
H381 C377 0.950 . S
H382 C379 0.950 . S
C383 C374 1.390 1_445 S
C383 H376 0.950 . S
C383 C380 1.387 . S
C384 C385 1.387 . S
C384 H388 0.950 . S
C384 C393 1.390 . S
C385 C384 1.387 . S
C385 C387 1.387 . S
H386 C393 0.950 . S
C387 C385 1.387 . S
C387 C389 1.390 . S
C387 H391 0.950 . S
H388 C384 0.950 . S
C389 C387 1.390 . S
C389 C390 1.387 . S
C389 H392 0.950 . S
C390 C389 1.387 . S
C390 C393 1.387 . S
H391 C387 0.950 . S
H392 C389 0.950 . S
C393 C384 1.390 . S
C393 H386 0.950 . S
C393 C390 1.387 . S
C394 C395 1.387 . S
C394 H398 0.950 . S
C394 C403 1.390 . S
C395 C394 1.387 . S
C395 C397 1.387 . S
H396 C403 0.950 . S
C397 C395 1.387 . S
C397 C399 1.390 . S
C397 H401 0.950 . S
H398 C394 0.950 . S
C399 C397 1.390 . S
C399 C400 1.387 . S
C399 H402 0.950 . S
C400 C399 1.387 . S
C400 C403 1.387 . S
H401 C397 0.950 . S
H402 C399 0.950 . S
C403 C394 1.390 . S
C403 H396 0.950 . S
C403 C400 1.387 . S
C404 C405 1.387 . S
C404 H408 0.950 . S
C404 C413 1.390 . S
C405 C404 1.387 . S
C405 C407 1.387 . S
H406 C413 0.950 . S
C407 C405 1.387 . S
C407 C409 1.390 . S
C407 H411 0.950 . S
H408 C404 0.950 . S
C409 C407 1.390 . S
C409 C410 1.387 . S
C409 H412 0.950 . S
C410 C409 1.387 . S
C410 C413 1.387 . S
H411 C407 0.950 . S
H412 C409 0.950 . S
C413 C404 1.390 . S
C413 H406 0.950 . S
C413 C410 1.387 . S
C414 C415 1.387 . S
C414 H418 0.950 . S
C414 C423 1.390 . S
C415 C414 1.387 . S
C415 C417 1.387 . S
H416 C423 0.950 . S
C417 C415 1.387 . S
C417 C419 1.390 . S
C417 H421 0.950 . S
H418 C414 0.950 . S
C419 C417 1.390 . S
C419 C420 1.387 . S
C419 H422 0.950 . S
C420 C419 1.387 . S
C420 C423 1.387 . S
H421 C417 0.950 . S
H422 C419 0.950 . S
C423 C414 1.390 . S
C423 H416 0.950 . S
C423 C420 1.387 . S
C424 C425 1.387 . S
C424 H428 0.950 . S
C424 C433 1.390 . S
C425 C424 1.387 . S
C425 C427 1.387 . S
H426 C433 0.950 . S
C427 C425 1.387 . S
C427 C429 1.390 . S
C427 H431 0.950 . S
H428 C424 0.950 . S
C429 C427 1.390 . S
C429 C430 1.387 . S
C429 H432 0.950 . S
C430 C429 1.387 . S
C430 C433 1.387 . S
H431 C427 0.950 . S
H432 C429 0.950 . S
C433 C424 1.390 . S
C433 H426 0.950 . S
C433 C430 1.387 . S
C434 C435 1.387 . S
C434 H438 0.950 . S
C434 C443 1.390 . S
C435 C434 1.387 . S
C435 C437 1.387 . S
H436 C443 0.950 . S
C437 C435 1.387 . S
C437 C439 1.390 . S
C437 H441 0.950 . S
H438 C434 0.950 . S
C439 C437 1.390 . S
C439 C440 1.387 . S
C439 H442 0.950 . S
C440 C439 1.387 . S
C440 C443 1.387 . S
H441 C437 0.950 . S
H442 C439 0.950 . S
C443 C434 1.390 . S
C443 H436 0.950 . S
C443 C440 1.387 . S
C444 C445 1.387 . S
C444 H448 0.950 . S
C444 C453 1.390 . S
C445 C444 1.387 . S
C445 C447 1.387 . S
H446 C453 0.950 . S
C447 C445 1.387 . S
C447 C449 1.390 . S
C447 H451 0.950 . S
H448 C444 0.950 . S
C449 C447 1.390 . S
C449 C450 1.387 . S
C449 H452 0.950 . S
C450 C449 1.387 . S
C450 C453 1.387 . S
H451 C447 0.950 . S
H452 C449 0.950 . S
C453 C444 1.390 . S
C453 H446 0.950 . S
C453 C450 1.387 . S
C454 C455 1.387 . S
C454 H458 0.950 . S
C454 C463 1.390 . S
C455 C454 1.387 . S
C455 C457 1.387 . S
H456 C463 0.950 . S
C457 C455 1.387 . S
C457 C459 1.390 . S
C457 H461 0.950 . S
H458 C454 0.950 . S
C459 C457 1.390 . S
C459 C460 1.387 . S
C459 H462 0.950 . S
C460 C459 1.387 . S
C460 C463 1.387 . S
H461 C457 0.950 . S
H462 C459 0.950 . S
C463 C454 1.390 . S
C463 H456 0.950 . S
C463 C460 1.387 . S
C265 N212 0.991 . S
C270 N5 1.003 . S
C275 N245 0.987 . S
C280 N38 1.001 . S
C285 N146 0.990 . S
C290 N71 1.002 . S
C295 N179 0.986 . S
C300 N104 1.003 . S
C305 N80 0.987 . S
C310 N137 1.003 . S
C315 N113 0.991 . S
C320 N170 1.005 . S
C325 N14 0.992 . S
C330 N203 1.003 . S
C335 N236 1.005 . S
C340 N47 0.992 . S
C345 C74 2.442 . S
C350 C8 2.442 . S
C355 C41 2.442 . S
C360 C107 2.442 . S
C365 C206 2.442 . S
C370 C140 2.442 . S
C375 C173 2.442 . S
C380 C239 2.442 . S
C385 C28 1.952 . S
C390 C259 1.952 . S
C395 C160 1.952 . S
C400 C61 1.953 . S
C405 C193 1.953 . S
C410 C94 1.952 . S
C415 C226 1.952 . S
C420 C127 1.953 . S
C425 C83 1.210 . S
C430 C182 1.208 . S
C435 C116 1.211 . S
C440 C215 1.210 . S
C445 C248 1.211 . S
C450 C17 1.209 . S
C455 C149 1.209 . S
C460 C50 1.211 . S
