# Generated by pormake.
# Topology wkt, (7)-cn, num edge types: 1
# Building blocks:
#     Node 0, Type 0, BuildingBlock: NUHQUE_clean_sbu_2, # of connection points: 7
#     Node 1, Type 0, BuildingBlock: NUHQUE_clean_sbu_2, # of connection points: 7
#     Node 2, Type 0, BuildingBlock: NUHQUE_clean_sbu_2, # of connection points: 7
#     Node 3, Type 0, BuildingBlock: NUHQUE_clean_sbu_2, # of connection points: 7
#     Node 4, Type 0, BuildingBlock: NUHQUE_clean_sbu_2, # of connection points: 7
#     Node 5, Type 0, BuildingBlock: NUHQUE_clean_sbu_2, # of connection points: 7
#     Node 6, Type 0, BuildingBlock: NUHQUE_clean_sbu_2, # of connection points: 7
#     Node 7, Type 0, BuildingBlock: NUHQUE_clean_sbu_2, # of connection points: 7
#     Node 8, Type 0, BuildingBlock: NUHQUE_clean_sbu_2, # of connection points: 7
#     Node 9, Type 0, BuildingBlock: NUHQUE_clean_sbu_2, # of connection points: 7
#     Node 10, Type 0, BuildingBlock: NUHQUE_clean_sbu_2, # of connection points: 7
#     Node 11, Type 0, BuildingBlock: NUHQUE_clean_sbu_2, # of connection points: 7
#     Edge 12, Type (0, 0), BuildingBlock: KIFKEQ_clean_linker_1, # of connection points: 2
#     Edge 13, Type (0, 0), BuildingBlock: KIFKEQ_clean_linker_1, # of connection points: 2
#     Edge 14, Type (0, 0), BuildingBlock: KIFKEQ_clean_linker_1, # of connection points: 2
#     Edge 15, Type (0, 0), BuildingBlock: KIFKEQ_clean_linker_1, # of connection points: 2
#     Edge 16, Type (0, 0), BuildingBlock: KIFKEQ_clean_linker_1, # of connection points: 2
#     Edge 17, Type (0, 0), BuildingBlock: KIFKEQ_clean_linker_1, # of connection points: 2
#     Edge 18, Type (0, 0), BuildingBlock: KIFKEQ_clean_linker_1, # of connection points: 2
#     Edge 19, Type (0, 0), BuildingBlock: KIFKEQ_clean_linker_1, # of connection points: 2
#     Edge 20, Type (0, 0), BuildingBlock: KIFKEQ_clean_linker_1, # of connection points: 2
#     Edge 21, Type (0, 0), BuildingBlock: KIFKEQ_clean_linker_1, # of connection points: 2
#     Edge 22, Type (0, 0), BuildingBlock: KIFKEQ_clean_linker_1, # of connection points: 2
#     Edge 23, Type (0, 0), BuildingBlock: KIFKEQ_clean_linker_1, # of connection points: 2
#     Edge 24, Type (0, 0), BuildingBlock: KIFKEQ_clean_linker_1, # of connection points: 2
#     Edge 25, Type (0, 0), BuildingBlock: KIFKEQ_clean_linker_1, # of connection points: 2
#     Edge 26, Type (0, 0), BuildingBlock: KIFKEQ_clean_linker_1, # of connection points: 2
#     Edge 27, Type (0, 0), BuildingBlock: KIFKEQ_clean_linker_1, # of connection points: 2
#     Edge 28, Type (0, 0), BuildingBlock: KIFKEQ_clean_linker_1, # of connection points: 2
#     Edge 29, Type (0, 0), BuildingBlock: KIFKEQ_clean_linker_1, # of connection points: 2
#     Edge 30, Type (0, 0), BuildingBlock: KIFKEQ_clean_linker_1, # of connection points: 2
#     Edge 31, Type (0, 0), BuildingBlock: KIFKEQ_clean_linker_1, # of connection points: 2
#     Edge 32, Type (0, 0), BuildingBlock: KIFKEQ_clean_linker_1, # of connection points: 2
#     Edge 33, Type (0, 0), BuildingBlock: KIFKEQ_clean_linker_1, # of connection points: 2
#     Edge 34, Type (0, 0), BuildingBlock: KIFKEQ_clean_linker_1, # of connection points: 2
#     Edge 35, Type (0, 0), BuildingBlock: KIFKEQ_clean_linker_1, # of connection points: 2
#     Edge 36, Type (0, 0), BuildingBlock: KIFKEQ_clean_linker_1, # of connection points: 2
#     Edge 37, Type (0, 0), BuildingBlock: KIFKEQ_clean_linker_1, # of connection points: 2
#     Edge 38, Type (0, 0), BuildingBlock: KIFKEQ_clean_linker_1, # of connection points: 2
#     Edge 39, Type (0, 0), BuildingBlock: KIFKEQ_clean_linker_1, # of connection points: 2
#     Edge 40, Type (0, 0), BuildingBlock: KIFKEQ_clean_linker_1, # of connection points: 2
#     Edge 41, Type (0, 0), BuildingBlock: KIFKEQ_clean_linker_1, # of connection points: 2
#     Edge 42, Type (0, 0), BuildingBlock: KIFKEQ_clean_linker_1, # of connection points: 2
#     Edge 43, Type (0, 0), BuildingBlock: KIFKEQ_clean_linker_1, # of connection points: 2
#     Edge 44, Type (0, 0), BuildingBlock: KIFKEQ_clean_linker_1, # of connection points: 2
#     Edge 45, Type (0, 0), BuildingBlock: KIFKEQ_clean_linker_1, # of connection points: 2
#     Edge 46, Type (0, 0), BuildingBlock: KIFKEQ_clean_linker_1, # of connection points: 2
#     Edge 47, Type (0, 0), BuildingBlock: KIFKEQ_clean_linker_1, # of connection points: 2
#     Edge 48, Type (0, 0), BuildingBlock: KIFKEQ_clean_linker_1, # of connection points: 2
#     Edge 49, Type (0, 0), BuildingBlock: KIFKEQ_clean_linker_1, # of connection points: 2
#     Edge 50, Type (0, 0), BuildingBlock: KIFKEQ_clean_linker_1, # of connection points: 2
#     Edge 51, Type (0, 0), BuildingBlock: KIFKEQ_clean_linker_1, # of connection points: 2
#     Edge 52, Type (0, 0), BuildingBlock: KIFKEQ_clean_linker_1, # of connection points: 2
#     Edge 53, Type (0, 0), BuildingBlock: KIFKEQ_clean_linker_1, # of connection points: 2
# Relax obj value: 0.265
# Max RMSD: 0.278
# Mean RMSD: 0.278
data_MOF--net-wkt--node1-NUHQUE_clean_sbu_2--edge1-KIFKEQ_clean_linker_1
_symmetry_space_group_name_H-M    P1
_symmetry_Int_Tables_number       1
_symmetry_cell_setting            triclinic
loop_
_symmetry_equiv_pos_as_xyz
'x, y, z'
_cell_length_a     30.852388
_cell_length_b     30.763868
_cell_length_c     75.462783
_cell_angle_alpha  89.962629
_cell_angle_beta   89.845715
_cell_angle_gamma 119.74437
loop_
_atom_site_label
_atom_site_type_symbol
_atom_site_fract_x
_atom_site_fract_y
_atom_site_fract_z
_atom_type_partial_charge
O0 O 0.43839 0.55653 0.00782 0.0
Tb1 Tb 0.48184 0.61 -0.01277 0.0
Eu2 Eu 0.42189 0.49616 -0.02744 0.0
C3 C 0.41744 0.57281 0.01925 0.0
O4 O 0.42321 0.61765 0.0167 0.0
C5 C 0.37308 0.57055 -0.02528 0.0
O6 O 0.4522 0.5183 0.94493 0.0
C7 C 0.37242 0.39939 -0.0255 0.0
C8 C 0.46971 0.56441 0.9394 0.0
O9 O 0.46397 0.59609 0.94929 0.0
C10 C 0.54015 0.55947 -0.0246 0.0
C11 C 0.38197 0.35673 -0.02607 0.0
C12 C 0.37777 0.33043 -0.01038 0.0
C13 C 0.38728 0.29025 -0.0102 0.0
C14 C 0.39875 0.2749 -0.02621 0.0
C15 C 0.40224 0.30014 0.95793 0.0
C16 C 0.39448 0.34144 0.95804 0.0
O17 O 0.41799 0.61017 -0.02493 0.0
O18 O 0.3667 0.52504 -0.02301 0.0
O19 O 0.53022 0.65402 0.00891 0.0
O20 O 0.5123 0.69079 -0.01124 0.0
C21 C 0.53691 0.69691 0.00338 0.0
O22 O 0.50126 0.51812 -0.01866 0.0
O23 O 0.53443 0.59797 -0.02814 0.0
O24 O 0.37813 0.42418 0.95966 0.0
O25 O 0.38872 0.42847 -0.01142 0.0
H26 H 0.36725 0.34154 0.0018 0.0
H27 H 0.40697 0.24449 -0.0263 0.0
H28 H 0.39778 0.36112 0.94575 0.0
O29 O 0.99766 0.39664 0.18565 0.0
Tb30 Tb 0.97506 0.43589 0.1668 0.0
Eu31 Eu 1.02062 0.38733 0.13786 0.0
C32 C 0.98213 0.3484 0.1846 0.0
O33 O 0.96055 0.32447 0.17007 0.0
C34 C 0.89857 0.3367 0.14558 0.0
O35 O 1.02107 0.42479 0.11237 0.0
C36 C 1.06528 0.33526 0.13568 0.0
C37 C 0.98999 0.442 0.1106 0.0
O38 O 0.9591 0.43579 0.12362 0.0
C39 C 1.07799 0.50223 0.14908 0.0
C40 C 0.11808 0.34747 0.13704 0.0
C41 C 0.13736 0.34335 0.15338 0.0
C42 C 0.18854 0.36019 0.15543 0.0
C43 C 0.22066 0.38086 0.14072 0.0
C44 C 0.20179 0.38461 0.12417 0.0
C45 C 0.15034 0.36684 0.12243 0.0
O46 O 0.90584 0.37382 0.15619 0.0
O47 O 0.93605 0.33456 0.13789 0.0
O48 O 0.97709 0.47279 0.19174 0.0
O49 O 0.92739 0.46854 0.17157 0.0
C50 C 0.94348 0.48451 0.18746 0.0
O51 O 1.08201 0.46169 0.1487 0.0
O52 O 1.03359 0.49731 0.15133 0.0
O53 O 1.05326 0.35255 0.12166 0.0
O54 O 1.04459 0.33933 0.15042 0.0
H55 H 0.11276 0.32901 0.16478 0.0
H56 H 0.26037 0.39513 0.14226 0.0
H57 H 0.13563 0.36943 0.10969 0.0
O58 O 0.62383 0.9105 0.34244 0.0
Tb59 Tb 0.55915 0.89549 0.32649 0.0
Eu60 Eu 0.66198 0.94969 0.30391 0.0
C61 C 0.62285 0.87167 0.35022 0.0
O62 O 0.58461 0.82692 0.34733 0.0
C63 C 0.5905 0.82575 0.30692 0.0
O64 O 0.62676 0.95764 0.27894 0.0
C65 C 0.75858 0.99804 0.30351 0.0
C66 C 0.57941 0.92554 0.27622 0.0
O67 O 0.55745 0.88539 0.28613 0.0
C68 C 0.59833 1.00132 0.31257 0.0
C69 C 0.79965 1.05041 0.30574 0.0
C70 C 0.81773 0.06894 0.32275 0.0
C71 C 0.85624 0.11841 0.32521 0.0
C72 C 0.87702 0.14958 0.31033 0.0
C73 C 0.86069 0.13151 0.29309 0.0
C74 C 0.82201 0.08161 0.29097 0.0
O75 O 0.55271 0.82996 0.31304 0.0
O76 O 0.63525 0.86548 0.30458 0.0
O77 O 0.52811 0.90143 0.35175 0.0
O78 O 0.4807 0.84661 0.33311 0.0
C79 C 0.48286 0.86596 0.34862 0.0
O80 O 0.64205 1.00555 0.31599 0.0
O81 O 0.55965 0.95622 0.31152 0.0
O82 O 0.73165 0.98725 0.28896 0.0
O83 O 0.73183 0.97596 0.31778 0.0
H84 H 0.80235 1.04447 0.33414 0.0
H85 H 0.90547 0.18828 0.31224 0.0
H86 H 0.80965 0.0667 0.2778 0.0
O87 O 0.75356 0.58556 0.5112 0.0
Tb88 Tb 0.70165 0.52517 0.49415 0.0
Eu89 Eu 0.76058 0.63148 0.47468 0.0
C90 C 0.7776 0.57163 0.52215 0.0
O91 O 0.76797 0.52499 0.52124 0.0
C92 C 0.80682 0.55591 0.47996 0.0
O93 O 0.73991 0.60218 0.4469 0.0
C94 C 0.81155 0.7284 0.47409 0.0
C95 C 0.71806 0.55392 0.44384 0.0
O96 O 0.7091 0.5231 0.45705 0.0
C97 C 0.64212 0.57174 0.47918 0.0
C98 C 0.80143 0.77078 0.47424 0.0
C99 C 0.80364 0.79473 0.49026 0.0
C100 C 0.79313 0.83414 0.49099 0.0
C101 C 0.78209 0.85102 0.47522 0.0
C102 C 0.78028 0.82806 0.45887 0.0
C103 C 0.78986 0.78774 0.45858 0.0
O104 O 0.76156 0.51732 0.48192 0.0
O105 O 0.81464 0.60227 0.48071 0.0
O106 O 0.66287 0.4973 0.51927 0.0
O107 O 0.66407 0.44558 0.5008 0.0
C108 C 0.64821 0.45047 0.51628 0.0
O109 O 0.68212 0.61475 0.48287 0.0
O110 O 0.64634 0.53158 0.47832 0.0
O111 O 0.79953 0.70086 0.45969 0.0
O112 O 0.80142 0.70187 0.48879 0.0
H113 H 0.81372 0.78266 0.50229 0.0
H114 H 0.77452 0.88181 0.47573 0.0
H115 H 0.7874 0.76889 0.4462 0.0
O116 O 0.22458 0.74072 0.67714 0.0
Tb117 Tb 0.25234 0.70516 0.65865 0.0
Eu118 Eu 0.20775 0.75682 0.63159 0.0
C119 C 0.24156 0.78929 0.67753 0.0
O120 O 0.27114 0.81742 0.66486 0.0
C121 C 0.32972 0.80605 0.63867 0.0
O122 O 0.20909 0.71803 0.60663 0.0
C123 C 0.16331 0.80898 0.62835 0.0
C124 C 0.23994 0.70029 0.60556 0.0
O125 O 0.27106 0.70844 0.61861 0.0
C126 C 0.15062 0.64233 0.64177 0.0
C127 C 0.11107 0.79865 0.62995 0.0
C128 C 1.09173 0.8015 0.6465 0.0
C129 C 1.04113 0.7874 0.64853 0.0
C130 C 1.00988 0.77129 0.63357 0.0
C131 C 1.02872 0.7691 0.61677 0.0
C132 C 1.07963 0.78381 0.61511 0.0
O133 O 0.32226 0.76775 0.64868 0.0
O134 O 0.29229 0.80972 0.63173 0.0
O135 O 0.24605 0.66496 0.6832 0.0
O136 O 0.29787 0.67023 0.6636 0.0
C137 C 0.27919 0.65239 0.67912 0.0
O138 O 0.14717 0.68303 0.64342 0.0
O139 O 0.19517 0.64715 0.64213 0.0
O140 O 0.17358 0.78876 0.61475 0.0
O141 O 0.18494 0.80696 0.64314 0.0
H142 H 0.11609 0.81431 0.65793 0.0
H143 H 0.97039 0.75821 0.63517 0.0
H144 H 1.09468 0.78275 0.60223 0.0
O145 O 0.55964 0.19508 0.84964 0.0
Tb146 Tb 0.616 0.21548 0.82884 0.0
Eu147 Eu 0.51636 0.16646 0.80195 0.0
C148 C 0.52306 0.20541 0.84917 0.0
O149 O 0.5139 0.22205 0.83453 0.0
C150 C 0.58727 0.28926 0.80858 0.0
O151 O 0.55585 0.171 0.77645 0.0
C152 C 0.41992 0.12043 0.79982 0.0
C153 C 0.60422 0.2019 0.77575 0.0
O154 O 0.62659 0.22999 0.78953 0.0
C155 C 0.57689 0.11152 0.8119 0.0
C156 C 0.37838 0.0683 0.8021 0.0
C157 C 0.35865 1.0496 0.81899 0.0
C158 C 0.32072 0.99969 0.8213 0.0
C159 C 0.30241 0.96813 0.80644 0.0
C160 C 0.32099 0.98638 0.78936 0.0
C161 C 0.35844 1.03679 0.78736 0.0
O162 O 0.6198 0.28337 0.81811 0.0
O163 O 0.54609 0.25094 0.80223 0.0
O164 O 0.65635 0.21199 0.85197 0.0
O165 O 0.69632 0.26501 0.83173 0.0
C166 C 0.70003 0.24709 0.84689 0.0
O167 O 0.53224 0.10682 0.81297 0.0
O168 O 0.61601 0.15635 0.81291 0.0
O169 O 0.44915 0.12963 0.78591 0.0
O170 O 0.44451 0.14343 0.81426 0.0
H171 H 0.37343 0.07361 0.83049 0.0
H172 H 0.27378 0.92938 0.80823 0.0
H173 H 0.37225 1.05171 0.77426 0.0
O174 O 0.63889 0.74455 0.7596 0.0
Tb175 Tb 0.58746 0.70037 0.78058 0.0
Eu176 Eu 0.70323 0.76105 0.79341 0.0
C177 C 0.62201 0.76684 0.74905 0.0
O178 O 0.57747 0.76072 0.75237 0.0
C179 C 0.62832 0.80962 0.79318 0.0
O180 O 0.68718 0.73577 0.82182 0.0
C181 C 0.79869 0.80822 0.78804 0.0
C182 C 0.64149 0.71763 0.82773 0.0
O183 O 0.60816 0.71964 0.81765 0.0
C184 C 0.63816 0.64176 0.79201 0.0
C185 C 0.83986 0.79649 0.78748 0.0
C186 C 0.8637 0.79971 0.77131 0.0
C187 C 0.90285 0.78896 0.77025 0.0
C188 C 0.91906 0.77605 0.78577 0.0
C189 C 0.89593 0.77278 0.80224 0.0
C190 C 0.85585 0.78257 0.80284 0.0
O191 O 0.58881 0.76455 0.79318 0.0
O192 O 0.67353 0.81618 0.7901 0.0
O193 O 0.54125 0.65068 0.75955 0.0
O194 O 0.50691 0.6705 0.78009 0.0
C195 C 0.49917 0.64461 0.76565 0.0
O196 O 0.67917 0.68016 0.78568 0.0
O197 O 0.6001 0.64785 0.79574 0.0
O198 O 0.77835 0.80622 0.80359 0.0
O199 O 0.76598 0.79028 0.77504 0.0
H200 H 0.85097 0.80967 0.7594 0.0
H201 H 0.9505 0.76964 0.78498 0.0
H202 H 0.8366 0.77879 0.81525 0.0
O203 O 0.98243 0.62168 0.91906 0.0
Tb204 Tb 0.96396 0.57306 0.94235 0.0
Eu205 Eu 1.01453 0.68132 0.9653 0.0
C206 C 0.97492 0.66008 0.91768 0.0
O207 O 0.96115 0.67557 0.9316 0.0
C208 C 0.89167 0.60822 0.9598 0.0
O209 O 1.01634 0.6522 -0.00762 0.0
C210 C 1.06056 0.77818 0.96423 0.0
C211 C 0.98251 0.60627 -0.00339 0.0
O212 O 0.94818 0.57885 -0.015 0.0
C213 C 1.06855 0.61811 0.95862 0.0
C214 C 0.113 0.81937 0.96283 0.0
C215 C 0.1347 0.83812 0.94617 0.0
C216 C 0.18507 0.87557 0.94461 0.0
C217 C 0.2135 0.8952 0.96012 0.0
C218 C 0.19198 0.8778 -0.02306 0.0
C219 C 0.14177 0.83992 -0.02188 0.0
O220 O 0.89705 0.57247 0.95228 0.0
O221 O 0.93024 0.65154 0.96459 0.0
O222 O 0.96786 0.52483 0.92202 0.0
O223 O 0.91311 0.49225 0.94228 0.0
C224 C 0.93166 0.48322 0.92821 0.0
O225 O 1.0731 0.66224 0.95561 0.0
O226 O 1.02363 0.57902 0.95939 0.0
O227 O 1.04742 0.75245 -0.02087 0.0
O228 O 1.04157 0.74999 0.95008 0.0
H229 H 0.11218 0.82356 0.93435 0.0
H230 H 0.25242 0.92383 0.95912 0.0
H231 H 0.12537 0.82554 -0.00898 0.0
O232 O 0.42366 0.95707 0.09169 0.0
Tb233 Tb 0.4675 0.94109 0.11044 0.0
Eu234 Eu 0.43016 0.97548 0.14522 0.0
C235 C 0.37459 0.93226 0.09133 0.0
O236 O 0.34975 0.89995 0.10395 0.0
C237 C 0.37904 0.85702 0.13527 0.0
O238 O 0.43021 1.00069 0.17291 0.0
C239 C 0.39727 1.02085 0.12519 0.0
C240 C 0.39333 0.97351 0.18378 0.0
O241 O 0.35324 0.93432 0.17756 0.0
C242 C 0.54491 1.03394 0.1344 0.0
C243 C 0.40615 0.07221 0.12375 0.0
C244 C 0.40157 0.09038 0.10728 0.0
C245 C 0.40945 0.1392 0.10574 0.0
C246 C 0.4209 0.16935 0.12091 0.0
C247 C 0.4255 0.1516 0.13756 0.0
C248 C 0.41874 0.10301 0.13878 0.0
O249 O 0.40874 0.86867 0.12128 0.0
O250 O 0.38232 0.89132 0.14645 0.0
O251 O 0.49634 0.93507 0.08481 0.0
O252 O 0.51309 0.90517 0.10754 0.0
C253 C 0.51993 0.91282 0.09056 0.0
O254 O 0.51424 1.01742 0.14802 0.0
O255 O 0.52965 1.01438 0.11856 0.0
O256 O 0.37446 0.99684 0.13976 0.0
O257 O 0.43448 1.01389 0.12048 0.0
H258 H 0.3925 0.06675 0.09566 0.0
H259 H 0.42504 0.20633 0.11972 0.0
H260 H 0.42338 0.08903 0.15141 0.0
O261 O 0.56482 0.39159 0.25154 0.0
Tb262 Tb 0.6025 0.41988 0.27671 0.0
Eu263 Eu 0.487 0.36213 0.29735 0.0
C264 C 0.51812 0.35645 0.24966 0.0
O265 O 0.48885 0.33986 0.26355 0.0
C266 C 0.55511 0.30708 0.29113 0.0
O267 O 0.52389 0.39083 0.32362 0.0
C268 C 0.39095 0.31901 0.30135 0.0
C269 C 0.57187 0.40839 0.32589 0.0
O270 O 0.59941 0.40813 0.31273 0.0
C271 C 0.54955 0.47736 0.28883 0.0
C272 C 0.35267 0.33458 0.29956 0.0
C273 C 0.33515 0.33796 0.28278 0.0
C274 C 0.30021 0.35417 0.2808 0.0
C275 C 0.28131 0.36568 0.29599 0.0
C276 C 0.29824 0.36252 0.31306 0.0
C277 C 0.33406 0.34693 0.31459 0.0
O278 O 0.59516 0.3497 0.28674 0.0
O279 O 0.51068 0.30306 0.29341 0.0
O280 O 0.65863 0.47363 0.25865 0.0
O281 O 0.68218 0.44694 0.28046 0.0
C282 C 0.697 0.47644 0.26672 0.0
O283 O 0.50707 0.43728 0.28484 0.0
O284 O 0.58878 0.47249 0.29168 0.0
O285 O 0.42237 0.33837 0.3146 0.0
O286 O 0.41245 0.31623 0.28665 0.0
H287 H 0.34873 0.32791 0.2711 0.0
H288 H 0.25387 0.37759 0.29446 0.0
H289 H 0.3486 0.34551 0.32749 0.0
O290 O 0.21125 0.50835 0.43215 0.0
Tb291 Tb 0.22073 0.56075 0.45322 0.0
Eu292 Eu 0.16925 0.44716 0.46416 0.0
C293 C 0.25118 0.51805 0.4228 0.0
O294 O 0.29401 0.55751 0.42691 0.0
C295 C 0.28933 0.52085 0.46514 0.0
O296 O 0.17019 0.47264 0.49193 0.0
C297 C 0.12232 0.35061 0.46192 0.0
C298 C 0.20394 0.47708 0.50343 0.0
O299 O 0.23715 0.46414 0.49897 0.0
C300 C 0.1119 0.50955 0.46421 0.0
C301 C 1.06988 0.30935 0.46253 0.0
C302 C 1.04698 0.28342 0.44697 0.0
C303 C 0.99683 0.24528 0.44701 0.0
C304 C 0.96974 0.23205 0.46299 0.0
C305 C 0.99227 0.25701 0.47887 0.0
C306 C 1.04229 0.29598 0.4784 0.0
O307 O 0.28065 0.55821 0.46739 0.0
O308 O 0.2529 0.47688 0.45982 0.0
O309 O 0.21861 0.60794 0.4321 0.0
O310 O 0.27336 0.64107 0.45227 0.0
C311 C 0.25569 0.64952 0.43786 0.0
O312 O 0.11012 0.46906 0.45753 0.0
O313 O 0.1555 0.54766 0.46829 0.0
O314 O 0.14148 0.37481 0.4768 0.0
O315 O 0.13559 0.38012 0.44789 0.0
H316 H 1.06791 0.29399 0.43464 0.0
H317 H 0.93135 0.20186 0.46304 0.0
H318 H 1.0595 0.31674 0.49037 0.0
O319 O 0.78122 0.20344 0.6009 0.0
Tb320 Tb 0.73874 0.21743 0.62089 0.0
Eu321 Eu 0.8007 0.1672 0.63054 0.0
C322 C 0.81084 0.24117 0.59058 0.0
O323 O 0.8143 0.285 0.59322 0.0
C324 C 0.84749 0.28895 0.63165 0.0
O325 O 0.77337 0.16432 0.65815 0.0
C326 C 0.84868 0.11852 0.62799 0.0
C327 C 0.79976 0.19815 0.67005 0.0
O328 O 0.84484 0.23437 0.6661 0.0
C329 C 0.68223 0.1087 0.63034 0.0
C330 C 0.83351 1.06467 0.62777 0.0
C331 C 0.83198 1.04143 0.61165 0.0
C332 C 0.81237 0.98941 0.61068 0.0
C333 C 0.79566 0.96066 0.62631 0.0
C334 C 0.79784 0.98344 0.64271 0.0
C335 C 0.81739 1.03558 0.6433 0.0
O336 O 0.80172 0.28137 0.6332 0.0
O337 O 0.85507 0.2515 0.62736 0.0
O338 O 0.6983 0.21406 0.59701 0.0
O339 O 0.69756 0.2582 0.61858 0.0
C340 C 0.68151 0.24279 0.60259 0.0
O341 O 0.72076 0.10877 0.62268 0.0
O342 O 0.68816 0.15158 0.63591 0.0
O343 O 0.84304 0.13665 0.64308 0.0
O344 O 0.83556 0.13521 0.61406 0.0
H345 H 0.84534 1.06396 0.59971 0.0
H346 H 0.77881 0.92031 0.62558 0.0
H347 H 0.8192 1.05338 0.65587 0.0
H348 H 0.52962 0.77998 -0.00209 0.0
H349 H 0.59294 0.71587 0.03316 0.0
H350 H 0.54571 0.84442 0.01945 0.0
H351 H 0.61198 0.78235 0.05458 0.0
H352 H 0.53382 0.83342 0.09617 0.0
H353 H 0.55895 0.79262 0.07411 0.0
H354 H 0.59264 0.91329 0.03722 0.0
H355 H 0.56388 0.95182 0.05903 0.0
C356 C 0.54881 0.78094 0.01004 0.0
C357 C 0.55904 0.74256 0.01411 0.0
C358 C 0.55851 0.81822 0.02241 0.0
C359 C 0.57933 0.81816 0.039 0.0
C360 C 0.59462 0.78271 0.04217 0.0
C361 C 0.58409 0.74487 0.02987 0.0
C362 C 0.54765 0.85157 0.08346 0.0
C363 C 0.54588 0.89483 0.07903 0.0
C364 C 0.56256 0.82852 0.07081 0.0
C365 C 0.57688 0.84908 0.05366 0.0
C366 C 0.58031 0.89555 0.05006 0.0
C367 C 0.56411 0.91778 0.06254 0.0
H368 H 0.86604 0.50017 0.18093 0.0
H369 H 0.97115 0.51534 0.22144 0.0
H370 H 0.81881 0.51816 0.20254 0.0
H371 H 0.92469 0.53516 0.2432 0.0
H372 H 0.77286 0.4594 0.27515 0.0
H373 H 0.84606 0.48103 0.25699 0.0
H374 H 0.80848 0.57085 0.22308 0.0
H375 H 0.73393 0.54711 0.24091 0.0
C376 C 0.87981 0.50887 0.19439 0.0
C377 C 0.92151 0.50546 0.19965 0.0
C378 C 0.85303 0.51971 0.2068 0.0
C379 C 0.86768 0.52765 0.2247 0.0
C380 C 0.91199 0.52839 0.22959 0.0
C381 C 0.93864 0.51722 0.21715 0.0
C382 C 0.78117 0.48496 0.26413 0.0
C383 C 0.74743 0.50068 0.25911 0.0
C384 C 0.82332 0.49769 0.25375 0.0
C385 C 0.83251 0.52679 0.23831 0.0
C386 C 0.80168 0.54728 0.2346 0.0
C387 C 0.75918 0.53392 0.24484 0.0
H388 H 0.21886 0.67372 0.40923 0.0
H389 H 0.34793 0.72928 0.44313 0.0
H390 H 0.26685 0.74051 0.38796 0.0
H391 H 0.39662 0.79447 0.42166 0.0
H392 H 0.48204 0.90514 0.38084 0.0
H393 H 0.41824 0.86629 0.40388 0.0
H394 H 0.3286 0.74437 0.36821 0.0
H395 H 0.39126 0.78421 0.34519 0.0
C396 C 0.25721 0.70099 0.41228 0.0
C397 C 0.28021 0.69603 0.42755 0.0
C398 C 0.28475 0.73903 0.4001 0.0
C399 C 0.33589 0.77203 0.40288 0.0
C400 C 0.35731 0.76991 0.41907 0.0
C401 C 0.32953 0.73231 0.43136 0.0
C402 C 0.44806 0.87061 0.37789 0.0
C403 C 0.44168 0.84704 0.36144 0.0
C404 C 0.41163 0.84834 0.39106 0.0
C405 C 0.36857 0.80193 0.38799 0.0
C406 C 0.3609 0.7804 0.37102 0.0
C407 C 0.39706 0.8029 0.35785 0.0
H408 H 0.65237 0.46402 0.55167 0.0
H409 H 0.59785 0.34945 0.51148 0.0
H410 H 0.63961 0.40257 0.57405 0.0
H411 H 0.58053 0.28623 0.53415 0.0
H412 H 0.63613 0.29622 0.6124 0.0
H413 H 0.60219 0.33464 0.59252 0.0
H414 H 0.63532 0.26787 0.5477 0.0
H415 H 0.66526 0.22739 0.56756 0.0
C416 C 0.63561 0.42509 0.54778 0.0
C417 C 0.62737 0.41139 0.52989 0.0
C418 C 0.62774 0.3895 0.56068 0.0
C419 C 0.61037 0.33929 0.55592 0.0
C420 C 0.59592 0.32483 0.53822 0.0
C421 C 0.60538 0.36082 0.52523 0.0
C422 C 0.63475 0.289 0.5983 0.0
C423 C 0.65412 0.25987 0.5914 0.0
C424 C 0.61559 0.31111 0.58689 0.0
C425 C 0.61685 0.30545 0.56838 0.0
C426 C 0.63289 0.27296 0.56178 0.0
C427 C 0.65086 0.25011 0.57319 0.0
H428 H 0.23988 0.60945 0.71099 0.0
H429 H 0.35979 0.64057 0.67446 0.0
H430 H 0.27927 0.5832 0.73337 0.0
H431 H 0.40033 0.61671 0.69684 0.0
H432 H 0.47626 0.58313 0.73721 0.0
H433 H 0.4078 0.56117 0.71654 0.0
H434 H 0.35035 0.63387 0.75076 0.0
H435 H 0.41715 0.65332 0.77164 0.0
C436 C 0.27425 0.6098 0.70769 0.0
C437 C 0.29752 0.62789 0.69122 0.0
C438 C 0.29685 0.59492 0.72048 0.0
C439 C 0.3434 0.59865 0.71705 0.0
C440 C 0.36429 0.61278 0.69996 0.0
C441 C 0.34137 0.62703 0.68714 0.0
C442 C 0.44791 0.59282 0.74051 0.0
C443 C 0.45229 0.62082 0.75573 0.0
C444 C 0.40888 0.58049 0.72867 0.0
C445 C 0.37435 0.59692 0.73173 0.0
C446 C 0.37605 0.62037 0.74794 0.0
C447 C 0.41462 0.63195 0.75989 0.0
H448 H 0.78876 0.33026 0.84012 0.0
H449 H 0.71208 0.21177 0.87844 0.0
H450 H 0.85573 0.37572 0.86111 0.0
H451 H 0.7802 0.2564 0.89941 0.0
H452 H 0.84399 0.39945 0.93569 0.0
H453 H 0.7973 0.32931 0.91592 0.0
H454 H 0.92309 0.38823 0.87983 0.0
H455 H 0.96904 0.45967 0.89947 0.0
C456 C 0.78715 0.31325 0.85286 0.0
C457 C 0.74497 0.26831 0.85789 0.0
C458 C 0.82579 0.33902 0.86488 0.0
C459 C 0.82296 0.32002 0.88208 0.0
C460 C 0.78294 0.27245 0.88639 0.0
C461 C 0.74405 0.24689 0.8744 0.0
C462 C 0.86209 0.39661 0.92378 0.0
C463 C 0.90938 0.43533 0.9188 0.0
C464 C 0.83554 0.35614 0.91247 0.0
C465 C 0.85615 0.35369 0.89609 0.0
C466 C 0.90581 0.38973 0.89216 0.0
C467 C 0.93213 0.43049 0.90339 0.0
H468 H 0.56218 0.22237 0.88243 0.0
H469 H 0.43161 0.19774 0.85327 0.0
H470 H 0.53019 0.2435 0.90882 0.0
H471 H 0.39905 0.21751 0.87993 0.0
H472 H 0.35057 0.21005 0.94147 0.0
H473 H 0.37616 0.18103 0.91518 0.0
H474 H 0.51161 0.32392 0.91181 0.0
H475 H 0.48527 0.35342 0.93772 0.0
C476 C 0.52604 0.22011 0.88179 0.0
C477 C 0.49935 0.20845 0.8658 0.0
C478 C 0.50804 0.23263 0.89683 0.0
C479 C 0.4625 0.23248 0.89626 0.0
C480 C 0.43431 0.21789 0.88062 0.0
C481 C 0.45288 0.20654 0.86544 0.0
C482 C 0.38548 0.23528 0.93492 0.0
C483 C 0.41593 0.28396 0.94143 0.0
C484 C 0.40006 0.21873 0.91999 0.0
C485 C 0.44591 0.25021 0.91166 0.0
C486 C 0.47623 0.29896 0.91813 0.0
C487 C 0.4611 0.3159 0.9328 0.0
H488 H 0.19889 0.45291 0.10209 0.0
H489 H 0.28128 0.37565 0.11189 0.0
H490 H 0.25166 0.49471 0.07673 0.0
H491 H 0.33605 0.41954 0.08658 0.0
H492 H 0.3859 0.47392 0.02739 0.0
H493 H 0.33556 0.42653 0.05315 0.0
H494 H 0.33718 0.55956 0.07237 0.0
H495 H 0.38576 0.60594 0.04686 0.0
C496 C 0.22824 0.44466 0.09877 0.0
C497 C 0.23561 0.41061 0.10894 0.0
C498 C 0.25893 0.46912 0.08432 0.0
C499 C 0.29831 0.46074 0.07969 0.0
C500 C 0.3058 0.42653 0.08976 0.0
C501 C 0.27485 0.40185 0.10434 0.0
C502 C 0.37549 0.49285 0.03719 0.0
C503 C 0.38921 0.54346 0.03495 0.0
C504 C 0.34696 0.46586 0.05196 0.0
C505 C 0.3318 0.48915 0.06467 0.0
C506 C 0.34716 0.54014 0.06263 0.0
C507 C 0.37523 0.56681 0.04798 0.0
H508 H 0.81516 0.13447 0.26225 0.0
H509 H 0.95899 0.20446 0.28816 0.0
H510 H 0.85314 0.18717 0.23636 0.0
H511 H 0.99615 0.25902 0.26242 0.0
H512 H 1.00723 0.38143 0.21895 0.0
H513 H 0.98305 0.32922 0.24573 0.0
H514 H 0.92167 0.19646 0.21333 0.0
H515 H 0.94631 0.24794 0.18671 0.0
C516 C 0.85488 0.1607 0.26244 0.0
C517 C 0.88389 0.1647 0.27736 0.0
C518 C 0.87655 0.19111 0.24761 0.0
C519 C 0.92759 0.2269 0.24739 0.0
C520 C 0.95666 0.23181 0.26232 0.0
C521 C 0.93516 0.2007 0.27708 0.0
C522 C 0.98981 0.34119 0.21755 0.0
C523 C 0.97812 0.31889 0.20068 0.0
C524 C 0.97591 0.31136 0.23287 0.0
C525 C 0.94972 0.25888 0.23152 0.0
C526 C 0.94111 0.23683 0.2147 0.0
C527 C 0.95548 0.26646 0.19946 0.0
H528 H 0.65624 0.80698 0.35669 0.0
H529 H 0.6709 0.94697 0.37442 0.0
H530 H 0.70366 0.80561 0.38228 0.0
H531 H 0.71783 0.94513 0.40042 0.0
H532 H 0.71229 0.86049 0.45455 0.0
H533 H 0.68614 0.8821 0.42706 0.0
H534 H 0.78927 0.85324 0.39766 0.0
H535 H 0.81732 0.83366 0.4252 0.0
C536 C 0.67064 0.83805 0.3659 0.0
C537 C 0.65994 0.87706 0.36362 0.0
C538 C 0.69787 0.83732 0.38052 0.0
C539 C 0.71416 0.8751 0.3934 0.0
C540 C 0.70548 0.91543 0.39072 0.0
C541 C 0.67906 0.91672 0.3758 0.0
C542 C 0.73054 0.86002 0.44234 0.0
C543 C 0.76676 0.84483 0.4422 0.0
C544 C 0.71544 0.87242 0.42656 0.0
C545 C 0.73565 0.86931 0.41023 0.0
C546 C 0.77284 0.85564 0.41007 0.0
C547 C 0.78851 0.84396 0.42586 0.0
H548 H 0.82582 0.54667 0.54636 0.0
H549 H 0.81271 0.67271 0.5279 0.0
H550 H 0.88693 0.59921 0.56792 0.0
H551 H 0.87575 0.72648 0.54979 0.0
H552 H 0.94883 0.78091 0.60716 0.0
H553 H 0.88886 0.73786 0.58328 0.0
H554 H 0.973 0.66659 0.56727 0.0
H555 H 1.03082 0.70694 0.59139 0.0
C556 C 0.83617 0.58584 0.54681 0.0
C557 C 0.81452 0.60553 0.53528 0.0
C558 C 0.87161 0.61612 0.55918 0.0
C559 C 0.88687 0.66722 0.5604 0.0
C560 C 0.86471 0.68716 0.54913 0.0
C561 C 0.82884 0.65652 0.53659 0.0
C562 C 0.95443 0.75601 0.59852 0.0
C563 C 0.99462 0.74726 0.60131 0.0
C564 C 0.92043 0.73189 0.58472 0.0
C565 C 0.92591 0.69846 0.57351 0.0
C566 C 0.96728 0.69156 0.57584 0.0
C567 C 1.0009 0.71528 0.58959 0.0
H568 H 0.2046 0.74726 0.71024 0.0
H569 H 0.26893 0.88738 0.68152 0.0
H570 H 0.21634 0.79274 0.73813 0.0
H571 H 0.28106 0.93219 0.70926 0.0
H572 H 0.37508 0.98494 0.76085 0.0
H573 H 0.3448 0.93539 0.73402 0.0
H574 H 0.19505 0.86014 0.75518 0.0
H575 H 0.22479 0.91173 0.782 0.0
C576 C 0.2199 0.78745 0.7098 0.0
C577 C 0.23669 0.81381 0.6937 0.0
C578 C 0.22662 0.81339 0.72575 0.0
C579 C 0.25041 0.86591 0.72578 0.0
C580 C 0.26329 0.89171 0.70957 0.0
C581 C 0.25623 0.86595 0.6937 0.0
C582 C 0.33552 0.95854 0.75978 0.0
C583 C 0.30231 0.95315 0.77353 0.0
C584 C 0.31828 0.92996 0.74442 0.0
C585 C 0.26755 0.89454 0.74249 0.0
C586 C 0.23435 0.88739 0.7564 0.0
C587 C 0.25151 0.91674 0.77175 0.0
H588 H 0.89767 0.80565 0.83632 0.0
H589 H 0.9344 0.70911 0.80595 0.0
H590 H 0.92083 0.77996 0.86326 0.0
H591 H 0.9628 0.68757 0.83272 0.0
H592 H 0.95211 0.61147 0.88599 0.0
H593 H 0.93671 0.6403 0.85797 0.0
H594 H 0.98232 0.78511 0.88134 0.0
H595 H 0.99405 0.75448 0.90968 0.0
C596 C 0.91088 0.77907 0.8353 0.0
C597 C 0.91339 0.75917 0.81878 0.0
C598 C 0.92538 0.76507 0.85085 0.0
C599 C 0.94408 0.73159 0.8504 0.0
C600 C 0.94787 0.71272 0.83381 0.0
C601 C 0.9323 0.72588 0.81829 0.0
C602 C 0.95947 0.64969 0.88503 0.0
C603 C 0.97401 0.68064 0.90004 0.0
C604 C 0.9508 0.66647 0.86889 0.0
C605 C 0.95758 0.71512 0.86722 0.0
C606 C 0.97504 0.74694 0.88209 0.0
C607 C 0.98244 0.72967 0.89834 0.0
H608 H 0.27405 0.88288 0.08518 0.0
H609 H 0.41544 0.98853 0.06145 0.0
H610 H 0.23197 0.87839 0.05742 0.0
H611 H 0.37312 0.98437 0.03371 0.0
H612 H 0.28713 0.8963 -0.01699 0.0
H613 H 0.33232 0.91866 0.01101 0.0
H614 H 0.20947 0.92456 0.0362 0.0
H615 H 0.16437 0.90249 0.00816 0.0
C616 C 0.29606 0.90588 0.07416 0.0
C617 C 0.34817 0.93562 0.07549 0.0
C618 C 0.27189 0.90347 0.05825 0.0
C619 C 0.2993 0.93069 0.04331 0.0
C620 C 0.3511 0.96237 0.04491 0.0
C621 C 0.37526 0.96495 0.06084 0.0
C622 C 0.27023 0.90347 -0.00559 0.0
C623 C 0.22197 0.89716 -0.00661 0.0
C624 C 0.29613 0.91629 0.01048 0.0
C625 C 0.2743 0.92303 0.02586 0.0
C626 C 0.22693 0.91882 0.02465 0.0
C627 C 0.20112 0.90614 0.0086 0.0
H628 H 0.42378 0.28431 0.24004 0.0
H629 H 0.57465 0.37091 0.22011 0.0
H630 H 0.39875 0.23714 0.21237 0.0
H631 H 0.55034 0.32278 0.19294 0.0
H632 H 0.48793 0.25307 0.14029 0.0
H633 H 0.50541 0.30537 0.16635 0.0
H634 H 0.40907 0.17456 0.19765 0.0
H635 H 0.38868 0.12275 0.17129 0.0
C636 C 0.45151 0.29348 0.22973 0.0
C637 C 0.50121 0.33127 0.23231 0.0
C638 C 0.4373 0.26615 0.21392 0.0
C639 C 0.47258 0.27579 0.20043 0.0
C640 C 0.52191 0.31466 0.20288 0.0
C641 C 0.53596 0.34221 0.21856 0.0
C642 C 0.46971 0.23549 0.15264 0.0
C643 C 0.43687 0.18355 0.15362 0.0
C644 C 0.48028 0.26548 0.16768 0.0
C645 C 0.45883 0.24429 0.18418 0.0
C646 C 0.42578 0.19239 0.18515 0.0
C647 C 0.41476 0.16246 0.17006 0.0
H648 H 0.17694 0.4703 0.39827 0.0
H649 H 0.32217 0.49511 0.41356 0.0
H650 H 0.18043 0.42659 0.3714 0.0
H651 H 0.32475 0.45015 0.38724 0.0
H652 H 0.28226 0.32191 0.34661 0.0
H653 H 0.26455 0.35356 0.3737 0.0
H654 H 0.25336 0.46659 0.34357 0.0
H655 H 0.27423 0.43744 0.31649 0.0
C656 C 0.20898 0.46543 0.39607 0.0
C657 C 0.24934 0.48607 0.40791 0.0
C658 C 0.21108 0.44076 0.38071 0.0
C659 C 0.25285 0.43511 0.37733 0.0
C660 C 0.29206 0.45384 0.38961 0.0
C661 C 0.29061 0.4796 0.40462 0.0
C662 C 0.2764 0.35373 0.34565 0.0
C663 C 0.28064 0.3775 0.32924 0.0
C664 C 0.26568 0.37139 0.36119 0.0
C665 C 0.25756 0.41236 0.36066 0.0
C666 C 0.25895 0.43453 0.34426 0.0
C667 C 0.27076 0.41759 0.32873 0.0
H668 H 0.78324 0.15882 0.56973 0.0
H669 H 0.90129 0.31076 0.57815 0.0
H670 H 0.82606 0.15429 0.5428 0.0
H671 H 0.94452 0.30561 0.55174 0.0
H672 H 1.0262 0.25609 0.51242 0.0
H673 H 0.98251 0.24559 0.54046 0.0
H674 H 0.84909 0.21497 0.5122 0.0
H675 H 0.8932 0.22831 0.48404 0.0
C676 C 0.81877 0.19072 0.56603 0.0
C677 C 0.83898 0.23521 0.57589 0.0
C678 C 0.84301 0.1882 0.55065 0.0
C679 C 0.88843 0.22963 0.54531 0.0
C680 C 0.90966 0.27313 0.55568 0.0
C681 C 0.88489 0.2761 0.57071 0.0
C682 C 0.98763 0.24737 0.51209 0.0
C683 C 0.96363 0.24398 0.49587 0.0
C684 C 0.96257 0.24081 0.52816 0.0
C685 C 0.9126 0.22944 0.5284 0.0
C686 C 0.88754 0.22318 0.5123 0.0
C687 C 0.91288 0.23073 0.49618 0.0
H688 H 0.74142 0.99488 0.66823 0.0
H689 H 0.80478 0.90195 0.65403 0.0
H690 H 0.70416 0.94422 0.69446 0.0
H691 H 0.76508 0.84937 0.6801 0.0
H692 H 0.7181 0.79414 0.7386 0.0
H693 H 0.76431 0.84745 0.71325 0.0
H694 H 0.6357 0.86104 0.69949 0.0
H695 H 0.59055 0.80943 0.72461 0.0
C696 C 0.74785 0.96388 0.67077 0.0
C697 C 0.77629 0.95265 0.659 0.0
C698 C 0.72588 0.93438 0.68574 0.0
C699 C 0.73121 0.89241 0.6893 0.0
C700 C 0.76049 0.8816 0.67778 0.0
C701 C 0.78272 0.91136 0.66274 0.0
C702 C 0.69992 0.80865 0.73012 0.0
C703 C 0.65082 0.79785 0.73371 0.0
C704 C 0.72624 0.83895 0.71559 0.0
C705 C 0.70386 0.85898 0.70448 0.0
C706 C 0.65452 0.84726 0.70798 0.0
C707 C 0.62847 0.8173 0.72239 0.0
H708 H 0.53482 0.66095 0.93081 0.0
H709 H 0.47826 0.50882 0.91285 0.0
H710 H 0.58678 0.69207 0.90442 0.0
H711 H 0.53047 0.5404 0.88623 0.0
H712 H 0.69317 0.73475 0.85871 0.0
H713 H 0.65934 0.69128 0.88705 0.0
H714 H 0.51977 0.59153 0.86132 0.0
H715 H 0.55298 0.63495 0.83339 0.0
C716 C 0.53365 0.63416 0.92124 0.0
C717 C 0.50178 0.58253 0.92364 0.0
C718 C 0.56406 0.65198 0.90632 0.0
C719 C 0.56269 0.61853 0.89344 0.0
C720 C 0.5321 0.56678 0.89608 0.0
C721 C 0.50209 0.54884 0.91118 0.0
C722 C 0.65566 0.70297 0.85918 0.0
C723 C 0.62512 0.68868 0.84415 0.0
C724 C 0.63644 0.67818 0.87527 0.0
C725 C 0.58706 0.63826 0.87625 0.0
C726 C 0.55808 0.62188 0.86085 0.0
C727 C 0.57683 0.64713 0.84497 0.0
H728 H 0.91937 0.46503 0.10015 0.0
H729 H 1.06028 0.47833 0.08436 0.0
H730 H 0.91834 0.50747 0.07295 0.0
H731 H 1.05917 0.52101 0.05717 0.0
H732 H 1.05964 0.64179 0.02015 0.0
H733 H 1.0623 0.60371 0.04832 0.0
H734 H 0.91112 0.48439 0.04008 0.0
H735 H 0.90838 0.52205 0.01196 0.0
C736 C 0.95018 0.47716 0.0909 0.0
C737 C 0.9898 0.46819 0.0943 0.0
C738 C 0.94947 0.50126 0.07534 0.0
C739 C 0.98866 0.51738 0.06303 0.0
C740 C 1.02872 0.50922 0.06655 0.0
C741 C 1.02914 0.48453 0.08202 0.0
C742 C 1.02693 0.6076 0.02443 0.0
C743 C 0.98382 0.58481 0.0139 0.0
C744 C 1.02858 0.58575 0.04045 0.0
C745 C 0.98691 0.54124 0.04629 0.0
C746 C 0.94358 0.51896 0.03591 0.0
C747 C 0.94214 0.54038 0.0198 0.0
H748 H 0.35226 0.89919 0.20841 0.0
H749 H 0.4631 1.05501 0.20165 0.0
H750 H 0.39465 0.8951 0.23473 0.0
H751 H 0.50482 1.05166 0.22857 0.0
H752 H 0.60875 0.99282 0.24895 0.0
H753 H 0.55581 1.01388 0.23117 0.0
H754 H 0.42822 0.91486 0.26338 0.0
H755 H 0.4806 0.89206 0.28041 0.0
C756 C 0.3843 0.93328 0.21306 0.0
C757 C 0.40537 0.97696 0.20273 0.0
C758 C 0.40882 0.931 0.22821 0.0
C759 C 0.45426 0.97267 0.23339 0.0
C760 C 0.47092 1.01845 0.22453 0.0
C761 C 0.44672 1.02053 0.20924 0.0
C762 C 0.56939 0.97565 0.25214 0.0
C763 C 0.54848 0.93976 0.26563 0.0
C764 C 0.53911 0.98826 0.24219 0.0
C765 C 0.48756 0.96586 0.24582 0.0
C766 C 0.46746 0.93202 0.26 0.0
C767 C 0.49747 0.91875 0.26968 0.0
H768 H 0.67077 0.46937 0.33263 0.0
H769 H 0.52495 0.39739 0.35744 0.0
H770 H 0.70891 0.50661 0.36107 0.0
H771 H 0.56326 0.43441 0.38578 0.0
H772 H 0.73794 0.60543 0.41255 0.0
H773 H 0.70414 0.57062 0.38332 0.0
H774 H 0.62428 0.4224 0.40613 0.0
H775 H 0.65782 0.45655 0.43514 0.0
C776 C 0.64697 0.46141 0.34416 0.0
C777 C 0.59499 0.43037 0.34293 0.0
C778 C 0.66874 0.48296 0.36032 0.0
C779 C 0.63884 0.47309 0.37546 0.0
C780 C 0.58695 0.44212 0.37423 0.0
C781 C 0.56512 0.42114 0.35806 0.0
C782 C 0.7134 0.56542 0.41126 0.0
C783 C 0.70029 0.5337 0.42608 0.0
C784 C 0.69433 0.54562 0.3946 0.0
C785 C 0.66152 0.49407 0.39267 0.0
C786 C 0.64914 0.46237 0.40741 0.0
C787 C 0.66854 0.48196 0.42396 0.0
H788 H 0.28242 0.64116 0.60345 0.0
H789 H 0.18838 0.68404 0.57473 0.0
H790 H 0.27206 0.58231 0.58008 0.0
H791 H 0.17946 0.62655 0.55104 0.0
H792 H 0.13109 0.487 0.51985 0.0
H793 H 0.13972 0.53873 0.54541 0.0
H794 H 0.29498 0.57919 0.54992 0.0
H795 H 0.28567 0.52575 0.52467 0.0
C796 C 0.26003 0.63845 0.59203 0.0
C797 C 0.23616 0.66715 0.59088 0.0
C798 C 0.25419 0.6048 0.57863 0.0
C799 C 0.22469 0.5995 0.56376 0.0
C800 C 0.20156 0.62893 0.56251 0.0
C801 C 0.20702 0.66222 0.57599 0.0
C802 C 0.16686 0.5064 0.52647 0.0
C803 C 0.20782 0.50271 0.52026 0.0
C804 C 0.17193 0.53638 0.54101 0.0
C805 C 0.21826 0.56381 0.54948 0.0
C806 C 0.2587 0.55831 0.54374 0.0
C807 C 0.25343 0.52775 0.52929 0.0
H808 H 0.57043 0.15637 0.74375 0.0
H809 H 0.7054 0.24847 0.7733 0.0
H810 H 0.62042 0.15577 0.71879 0.0
H811 H 0.7552 0.24643 0.74865 0.0
H812 H 0.82691 0.27567 0.69314 0.0
H813 H 0.78001 0.27725 0.71899 0.0
H814 H 0.67223 0.12094 0.71089 0.0
H815 H 0.71807 0.11992 0.68481 0.0
C816 C 0.61072 0.17632 0.74492 0.0
C817 C 0.63401 0.20249 0.76042 0.0
C818 C 0.63937 0.17568 0.7307 0.0
C819 C 0.69178 0.2008 0.73181 0.0
C820 C 0.71497 0.22723 0.7473 0.0
C821 C 0.68638 0.22822 0.76145 0.0
C822 C 0.79355 0.24157 0.69706 0.0
C823 C 0.77586 0.19781 0.68694 0.0
C824 C 0.7667 0.24242 0.71184 0.0
C825 C 0.72205 0.19936 0.71682 0.0
C826 C 0.70578 0.15505 0.70713 0.0
C827 C 0.73228 0.15435 0.69228 0.0
H828 H 0.33484 0.09514 0.08134 0.0
H829 H 0.47652 0.22797 0.09095 0.0
H830 H 0.32764 0.1304 0.0532 0.0
H831 H 0.47052 0.2626 0.06265 0.0
H832 H 0.42235 0.33552 0.0218 0.0
H833 H 0.42528 0.29731 0.04951 0.0
H834 H 0.3605 0.15288 0.0239 0.0
H835 H 0.35413 0.19068 -0.00365 0.0
C836 C 0.36466 0.13163 0.07728 0.0
C837 C 0.40599 0.15913 0.08832 0.0
C838 C 0.36069 0.15178 0.06117 0.0
C839 C 0.39828 0.19957 0.05572 0.0
C840 C 0.44025 0.22629 0.06662 0.0
C841 C 0.44388 0.20643 0.08278 0.0
C842 C 0.40771 0.29543 0.02211 0.0
C843 C 0.38783 0.26619 0.00681 0.0
C844 C 0.41023 0.27361 0.03797 0.0
C845 C 0.39366 0.22207 0.03892 0.0
C846 C 0.37328 0.19263 0.02368 0.0
C847 C 0.37022 0.21442 0.00782 0.0
H848 H 0.20544 0.32322 0.2688 0.0
H849 H 0.35948 0.39652 0.2518 0.0
H850 H 0.17975 0.32617 0.23839 0.0
H851 H 0.33386 0.39798 0.22142 0.0
H852 H 0.2715 0.43443 0.17176 0.0
H853 H 0.29852 0.43573 0.20224 0.0
H854 H 0.17593 0.2855 0.21018 0.0
H855 H 0.14899 0.28426 0.17976 0.0
C856 C 0.23379 0.34029 0.25861 0.0
C857 C 0.28441 0.35926 0.26268 0.0
C858 C 0.21909 0.34147 0.24115 0.0
C859 C 0.25473 0.36186 0.22743 0.0
C860 C 0.30546 0.38223 0.23165 0.0
C861 C 0.32009 0.38097 0.24904 0.0
C862 C 0.25085 0.40139 0.17993 0.0
C863 C 0.20807 0.35926 0.17334 0.0
C864 C 0.26618 0.4022 0.19743 0.0
C865 C 0.23907 0.3609 0.20872 0.0
C866 C 0.19701 0.31836 0.20198 0.0
C867 C 0.18174 0.31754 0.18451 0.0
H868 H 0.90749 0.22917 0.43412 0.0
H869 H 1.03227 0.20784 0.42161 0.0
H870 H 0.87233 0.1981 0.40484 0.0
H871 H 0.99676 0.17564 0.39252 0.0
H872 H 0.95322 0.1785 0.33544 0.0
H873 H 0.98484 0.2071 0.36515 0.0
H874 H 0.83447 0.12626 0.38595 0.0
H875 H 0.80257 0.10007 0.35607 0.0
C876 C 0.92684 0.21687 0.42521 0.0
C877 C 0.97269 0.22112 0.43008 0.0
C878 C 0.90676 0.19909 0.40843 0.0
C879 C 0.93198 0.18485 0.39622 0.0
C880 C 0.97694 0.18741 0.40141 0.0
C881 C 0.99716 0.20553 0.41811 0.0
C882 C 0.9268 0.16747 0.3463 0.0
C883 C 0.87535 0.13694 0.34333 0.0
C884 C 0.94501 0.18322 0.3634 0.0
C885 C 0.91227 0.16858 0.378 0.0
C886 C 0.86074 0.13851 0.37502 0.0
C887 C 0.8425 0.12301 0.35789 0.0
H888 H 0.83119 0.93356 0.49893 0.0
H889 H 0.755 0.78588 0.52242 0.0
H890 H 0.83412 0.97032 0.52791 0.0
H891 H 0.75868 0.82268 0.55133 0.0
H892 H 0.83041 0.91305 0.60233 0.0
H893 H 0.82386 0.87515 0.57331 0.0
H894 H 0.77663 0.97356 0.55044 0.0
H895 H 0.78233 1.01085 0.57941 0.0
C896 C 0.81466 0.90894 0.51022 0.0
C897 C 0.79321 0.85684 0.50838 0.0
C898 C 0.81644 0.92998 0.52681 0.0
C899 C 0.79696 0.89935 0.5419 0.0
C900 C 0.77481 0.84726 0.54001 0.0
C901 C 0.77277 0.82624 0.52344 0.0
C902 C 0.81814 0.92622 0.59115 0.0
C903 C 0.80734 0.96527 0.59317 0.0
C904 C 0.81445 0.90458 0.57453 0.0
C905 C 0.80002 0.92164 0.55959 0.0
C906 C 0.78869 0.96026 0.56165 0.0
C907 C 0.79208 0.98166 0.57825 0.0
H908 H 0.9255 0.72025 0.75671 0.0
H909 H 0.93145 0.8601 0.74423 0.0
H910 H 0.95833 0.71943 0.72735 0.0
H911 H 0.96497 0.85981 0.71496 0.0
H912 H 0.97305 0.81637 0.65769 0.0
H913 H 0.94007 0.81636 0.68712 0.0
H914 H 1.03194 0.7605 0.70942 0.0
H915 H 1.06282 0.75804 0.67999 0.0
C916 C 0.93453 0.75119 0.74777 0.0
C917 C 0.92581 0.79018 0.75278 0.0
C918 C 0.95334 0.75076 0.73093 0.0
C919 C 0.96415 0.78947 0.71872 0.0
C920 C 0.95617 0.82889 0.72387 0.0
C921 C 0.93715 0.82919 0.74068 0.0
C922 C 0.98577 0.80358 0.66886 0.0
C923 C 1.02077 0.78745 0.66645 0.0
C924 C 0.96735 0.80416 0.68577 0.0
C925 C 0.9835 0.78866 0.70069 0.0
C926 C 1.01828 0.77226 0.69824 0.0
C927 C 1.03653 0.7715 0.68136 0.0
H928 H 0.16978 0.82024 0.91446 0.0
H929 H 0.25157 0.97178 0.9342 0.0
H930 H 0.20203 0.84999 0.88486 0.0
H931 H 0.28639 1.0012 0.90475 0.0
H932 H 0.29279 1.04448 0.84655 0.0
H933 H 0.2618 1.01459 0.87636 0.0
H934 H 0.27459 0.88283 0.86681 0.0
H935 H 0.30448 0.91242 0.83681 0.0
C936 C 0.19478 0.85995 0.91251 0.0
C937 C 0.20761 0.89365 0.92674 0.0
C938 C 0.21389 0.87694 0.89554 0.0
C939 C 0.24677 0.92808 0.89233 0.0
C940 C 0.26053 0.96166 0.90664 0.0
C941 C 0.24109 0.94469 0.92361 0.0
C942 C 0.28907 1.00919 0.85086 0.0
C943 C 0.30096 0.98074 0.83934 0.0
C944 C 0.27154 0.99213 0.86799 0.0
C945 C 0.26581 0.94633 0.87409 0.0
C946 C 0.27777 0.91789 0.86251 0.0
C947 C 0.29493 0.93481 0.84532 0.0
H948 H 0.80157 0.52288 0.9533 0.0
H949 H 0.86303 0.6737 -0.02694 0.0
H950 H 0.71731 0.50978 0.95724 0.0
H951 H 0.77891 0.66034 -0.02277 0.0
H952 H 0.62623 0.64137 0.96403 0.0
H953 H 0.7091 0.65157 0.96065 0.0
H954 H 0.65353 0.4996 -0.02151 0.0
H955 H 0.56969 0.48911 -0.01833 0.0
C956 C 0.79731 0.55328 0.95858 0.0
C957 C 0.83969 0.59953 0.96277 0.0
C958 C 0.74868 0.54559 0.96094 0.0
C959 C 0.74071 0.58396 0.9675 0.0
C960 C 0.78313 0.62999 -0.02812 0.0
C961 C 0.83169 0.63762 0.96958 0.0
C962 C 0.63139 0.60993 0.96728 0.0
C963 C 0.59082 0.56438 -0.02677 0.0
C964 C 0.67936 0.61598 0.96544 0.0
C965 C 0.68875 0.57667 0.96942 0.0
C966 C 0.64803 0.53076 -0.02484 0.0
C967 C 0.59982 0.52474 -0.02292 0.0
H968 H 0.30438 0.82007 0.16047 0.0
H969 H 0.35858 0.77193 0.11612 0.0
H970 H 0.23418 0.73548 0.16382 0.0
H971 H 0.2878 0.68691 0.11944 0.0
H972 H 0.17525 0.52756 0.14083 0.0
H973 H 0.2485 0.61118 0.13781 0.0
H974 H 0.15696 0.67738 0.14964 0.0
H975 H 1.08413 0.59413 0.15275 0.0
C976 C 0.30169 0.79149 0.15144 0.0
C977 C 0.33779 0.80357 0.13799 0.0
C978 C 0.26085 0.74267 0.15329 0.0
C979 C 0.25446 0.70372 0.14184 0.0
C980 C 0.2912 0.71542 0.12864 0.0
C981 C 0.33197 0.76451 0.12669 0.0
C982 C 0.17067 0.55992 0.14281 0.0
C983 C 0.12332 0.55355 0.14711 0.0
C984 C 0.21285 0.60814 0.14097 0.0
C985 C 0.20931 0.65174 0.14353 0.0
C986 C 0.16185 0.64517 0.14781 0.0
C987 C 0.11971 0.59709 0.14949 0.0
H988 H 0.63865 0.29801 0.28578 0.0
H989 H 0.48512 0.21278 0.30296 0.0
H990 H 0.64896 0.22542 0.2906 0.0
H991 H 0.49578 0.14041 0.30827 0.0
H992 H 0.51553 1.00367 0.3007 0.0
H993 H 0.5052 0.07601 0.29519 0.0
H994 H 0.65703 0.17398 0.31197 0.0
H995 H 0.66766 0.10132 0.31698 0.0
C996 C 0.60698 0.26387 0.29066 0.0
C997 C 0.56094 0.26176 0.29393 0.0
C998 C 0.61306 0.22202 0.29357 0.0
C999 C 0.57338 0.17641 0.29993 0.0
C1000 C 0.52723 0.17428 0.30314 0.0
C1001 C 0.52111 0.21614 0.30017 0.0
C1002 C 0.54677 1.04061 0.30328 0.0
C1003 C 0.59242 1.04632 0.30941 0.0
C1004 C 0.54073 0.08239 0.30019 0.0
C1005 C 0.58008 0.13152 0.30317 0.0
C1006 C 0.62586 0.13714 0.30925 0.0
C1007 C 0.63196 0.09527 0.31227 0.0
H1008 H 0.31905 0.45062 0.46885 0.0
H1009 H 0.37772 0.61022 0.46677 0.0
H1010 H 0.40312 0.46398 0.4726 0.0
H1011 H 0.46228 0.62398 0.46956 0.0
H1012 H 0.60894 0.63681 0.48931 0.0
H1013 H 0.52479 0.62501 0.48657 0.0
H1014 H 0.47766 0.48474 0.45955 0.0
H1015 H 0.56052 0.49554 0.46319 0.0
C1016 C 0.34999 0.48867 0.46903 0.0
C1017 C 0.34122 0.52922 0.46751 0.0
C1018 C 0.3987 0.49653 0.47104 0.0
C1019 C 0.44067 0.54529 0.47128 0.0
C1020 C 0.43161 0.58584 0.46976 0.0
C1021 C 0.38277 0.57794 0.46804 0.0
C1022 C 0.58052 0.60351 0.48277 0.0
C1023 C 0.59173 0.56703 0.47661 0.0
C1024 C 0.53198 0.59669 0.48109 0.0
C1025 C 0.49321 0.55349 0.47294 0.0
C1026 C 0.50527 0.51783 0.46638 0.0
C1027 C 0.55336 0.52428 0.46832 0.0
H1028 H 0.94587 0.31712 0.63745 0.0
H1029 H 0.84869 0.37899 0.63019 0.0
H1030 H 1.01706 0.40109 0.64034 0.0
H1031 H 0.92009 0.46332 0.63204 0.0
H1032 H 1.05238 0.61226 0.64991 0.0
H1033 H 0.97997 0.52822 0.64823 0.0
H1034 H 1.07389 0.47325 0.62684 0.0
H1035 H 0.1461 0.55644 0.62955 0.0
C1036 C 0.93969 0.34874 0.63631 0.0
C1037 C 0.89122 0.34089 0.63361 0.0
C1038 C 0.98089 0.39739 0.63781 0.0
C1039 C 0.97539 0.44022 0.63632 0.0
C1040 C 0.92661 0.43207 0.63361 0.0
C1041 C 0.88529 0.38333 0.63242 0.0
C1042 C 1.05747 0.58213 0.64487 0.0
C1043 C 0.10537 0.59137 0.63999 0.0
C1044 C 1.01566 0.53359 0.64377 0.0
C1045 C 1.02014 0.49269 0.63746 0.0
C1046 C 1.06821 0.50261 0.63224 0.0
C1047 C 0.10999 0.55084 0.63364 0.0
H1048 H 0.54514 0.81068 0.80573 0.0
H1049 H 0.69493 0.90965 0.7871 0.0
H1050 H 0.53281 0.882 0.81051 0.0
H1051 H 0.68208 0.98112 0.79109 0.0
H1052 H 0.66322 0.107 0.81465 0.0
H1053 H 0.67545 1.03542 0.81056 0.0
H1054 H 0.51883 0.94299 0.79834 0.0
H1055 H 0.50645 1.01452 0.80325 0.0
C1056 C 0.57547 0.8477 0.8025 0.0
C1057 C 0.62117 0.85403 0.79605 0.0
C1058 C 0.56823 0.88894 0.80513 0.0
C1059 C 0.60623 0.93818 0.8012 0.0
C1060 C 0.65194 0.94436 0.79465 0.0
C1061 C 0.65935 0.90308 0.79223 0.0
C1062 C 0.63126 0.07138 0.81113 0.0
C1063 C 0.58375 0.06686 0.80934 0.0
C1064 C 0.63838 1.03005 0.80861 0.0
C1065 C 0.59834 0.98259 0.804 0.0
C1066 C 0.55073 0.97823 0.80217 0.0
C1067 C 0.54353 1.01956 0.80488 0.0
H1068 H 0.5553 0.55516 0.80243 0.0
H1069 H 0.70891 0.61241 0.78681 0.0
H1070 H 0.54482 0.47193 0.80589 0.0
H1071 H 0.6982 0.52827 0.7902 0.0
H1072 H 0.67101 0.37922 0.81665 0.0
H1073 H 0.68482 0.46392 0.81236 0.0
H1074 H 0.53903 0.40298 0.78866 0.0
H1075 H 0.52501 0.31844 0.79307 0.0
C1076 C 0.58698 0.5501 0.79966 0.0
C1077 C 0.63299 0.59091 0.79424 0.0
C1078 C 0.58079 0.50197 0.80156 0.0
C1079 C 0.62044 0.49278 0.79821 0.0
C1080 C 0.66679 0.53371 0.79301 0.0
C1081 C 0.67292 0.58205 0.79098 0.0
C1082 C 0.64186 0.38374 0.81047 0.0
C1083 C 0.59672 0.34146 0.80529 0.0
C1084 C 0.64997 0.43257 0.80791 0.0
C1085 C 0.61304 0.44075 0.80022 0.0
C1086 C 0.56817 0.39847 0.79486 0.0
C1087 C 0.56021 0.34972 0.7973 0.0
H1088 H 0.16606 0.69028 0.9654 0.0
H1089 H 1.07327 0.53145 0.95721 0.0
H1090 H 0.23832 0.67918 0.96978 0.0
H1091 H 0.14548 0.52032 0.96059 0.0
H1092 H 0.27415 0.50392 -0.01807 0.0
H1093 H 0.2023 0.51597 -0.02127 0.0
H1094 H 0.29864 0.66475 0.95804 0.0
H1095 H 0.37056 0.6533 0.96219 0.0
C1096 C 0.16111 0.65297 0.96436 0.0
C1097 C 0.1135 0.61182 0.96099 0.0
C1098 C 0.20287 0.64648 0.96675 0.0
C1099 C 0.19872 0.59866 0.9656 0.0
C1100 C 0.1509 0.55768 0.96204 0.0
C1101 C 0.10911 0.5641 0.95993 0.0
C1102 C 0.28004 0.53924 -0.0233 0.0
C1103 C 0.32851 0.57754 -0.02765 0.0
C1104 C 0.23848 0.54619 -0.02529 0.0
C1105 C 0.24365 0.59147 0.96801 0.0
C1106 C 0.29237 0.62963 0.96356 0.0
C1107 C 0.33398 0.62292 0.96582 0.0
H1108 H 0.81083 0.32286 0.16066 0.0
H1109 H 0.86685 0.25092 0.1257 0.0
H1110 H 0.7269 0.25081 0.15821 0.0
H1111 H 0.78325 0.17858 0.12351 0.0
H1112 H 0.619 0.07572 0.10919 0.0
H1113 H 0.70223 0.14816 0.11162 0.0
H1114 H 0.67381 0.16493 0.16653 0.0
H1115 H 0.58973 0.09263 0.16396 0.0
C1116 C 0.80543 0.29184 0.15239 0.0
C1117 C 0.84624 0.29339 0.14332 0.0
C1118 C 0.75703 0.25001 0.15111 0.0
C1119 C 0.74753 0.20815 0.14068 0.0
C1120 C 0.78834 0.20997 0.1315 0.0
C1121 C 0.83672 0.25172 0.13281 0.0
C1122 C 0.63029 0.09463 0.12184 0.0
C1123 C 0.59702 0.07777 0.13637 0.0
C1124 C 0.67854 0.13635 0.12327 0.0
C1125 C 0.69557 0.16307 0.13929 0.0
C1126 C 0.66232 0.14612 0.15387 0.0
C1127 C 0.61395 0.10417 0.15245 0.0
H1128 H 0.65742 0.80043 0.29281 0.0
H1129 H 0.50646 0.73402 0.31267 0.0
H1130 H 0.64614 0.71729 0.28764 0.0
H1131 H 0.49553 0.65072 0.30794 0.0
H1132 H 0.47738 0.50482 0.28381 0.0
H1133 H 0.48612 0.58801 0.28722 0.0
H1134 H 0.64007 0.64727 0.30251 0.0
H1135 H 0.63166 0.56512 0.29866 0.0
C1136 C 0.62176 0.76816 0.29612 0.0
C1137 C 0.58297 0.77445 0.3032 0.0
C1138 C 0.61532 0.72013 0.29326 0.0
C1139 C 0.56992 0.67657 0.29745 0.0
C1140 C 0.53087 0.68293 0.30431 0.0
C1141 C 0.53728 0.73101 0.30713 0.0
C1142 C 0.51312 0.53567 0.28784 0.0
C1143 C 0.55379 0.52789 0.29087 0.0
C1144 C 0.51814 0.58354 0.28991 0.0
C1145 C 0.56398 0.6251 0.29509 0.0
C1146 C 0.60442 0.61694 0.29817 0.0
C1147 C 0.59944 0.56935 0.29607 0.0
H1148 H 0.10649 0.59537 0.46511 0.0
H1149 H 1.01329 0.43499 0.46779 0.0
H1150 H 1.03379 0.60534 0.4683 0.0
H1151 H 0.93994 0.44458 0.47225 0.0
H1152 H 0.80846 0.47359 0.46643 0.0
H1153 H 0.88019 0.46149 0.46216 0.0
H1154 H 0.9755 0.60608 0.48595 0.0
H1155 H 0.90435 0.619 0.48899 0.0
C1156 C 1.07032 0.56204 0.46663 0.0
C1157 C 1.06604 0.51434 0.46622 0.0
C1158 C 1.02816 0.56774 0.46866 0.0
C1159 C 0.97991 0.52596 0.47083 0.0
C1160 C 0.97575 0.47801 0.4704 0.0
C1161 C 1.01806 0.47232 0.46794 0.0
C1162 C 0.84487 0.50281 0.47068 0.0
C1163 C 0.85049 0.54749 0.47791 0.0
C1164 C 0.88634 0.49577 0.46835 0.0
C1165 C 0.93481 0.53279 0.47352 0.0
C1166 C 0.93977 0.57697 0.48119 0.0
C1167 C 0.89856 0.5844 0.48312 0.0
H1168 H 0.41845 0.81022 0.64767 0.0
H1169 H 0.36078 0.89912 0.62415 0.0
H1170 H 0.50334 0.88127 0.64522 0.0
H1171 H 0.44546 0.96986 0.62168 0.0
H1172 H 0.59388 0.1027 0.64 0.0
H1173 H 0.51081 1.02953 0.64123 0.0
H1174 H 0.57097 0.93621 0.62419 0.0
H1175 H 0.65489 1.0101 0.62294 0.0
C1176 C 0.42372 0.84471 0.64186 0.0
C1177 C 0.38222 0.84855 0.63616 0.0
C1178 C 0.47266 0.88554 0.64038 0.0
C1179 C 0.48169 0.93177 0.63335 0.0
C1180 C 0.44023 0.93528 0.6274 0.0
C1181 C 0.39143 0.89438 0.62871 0.0
C1182 C 0.58971 0.06668 0.6365 0.0
C1183 C 0.63153 1.06269 0.63133 0.0
C1184 C 0.5417 1.02453 0.63709 0.0
C1185 C 0.53362 0.9766 0.63269 0.0
C1186 C 0.57553 0.97233 0.62776 0.0
C1187 C 0.62374 1.0148 0.62697 0.0
loop_
_geom_bond_atom_site_label_1
_geom_bond_atom_site_label_2
_geom_bond_distance
_geom_bond_site_symmetry_2
_ccdc_geom_bond_type
O0 Tb1 2.292 . S
O0 C3 1.255 . S
Tb1 O0 2.292 . S
Tb1 O17 2.326 . S
Tb1 O19 2.500 . S
Tb1 O20 2.473 . S
Tb1 O23 2.324 . S
Eu2 O6 2.292 . S
Eu2 C7 2.859 . S
Eu2 O18 2.324 1_556 S
Eu2 O22 2.326 1_556 S
Eu2 O24 2.500 . S
Eu2 O25 2.473 1_556 S
C3 O0 1.255 . S
C3 O4 1.247 . S
O4 C3 1.247 . S
C5 O17 1.242 . S
C5 O18 1.258 . S
O6 Eu2 2.292 . S
O6 C8 1.255 . S
C7 Eu2 2.859 . S
C7 C11 1.493 1_556 S
C7 O24 1.300 . S
C7 O25 1.239 1_556 S
C8 O6 1.255 . S
C8 O9 1.247 . S
O9 C8 1.247 . S
C10 O22 1.242 . S
C10 O23 1.258 . S
C11 C7 1.493 1_554 S
C11 C12 1.379 . S
C11 C16 1.392 1_554 S
C12 C11 1.379 . S
C12 C13 1.404 . S
C12 H26 0.929 . S
C13 C12 1.404 . S
C13 C14 1.389 . S
C14 C13 1.389 . S
C14 C15 1.370 1_554 S
C14 H27 0.931 . S
C15 C14 1.370 1_556 S
C15 C16 1.399 . S
C16 C11 1.392 1_556 S
C16 C15 1.399 . S
C16 H28 0.929 . S
O17 Tb1 2.326 . S
O17 C5 1.242 . S
O18 Eu2 2.324 1_554 S
O18 C5 1.258 . S
O19 Tb1 2.500 . S
O19 C21 1.273 . S
O20 Tb1 2.473 . S
O20 C21 1.257 . S
C21 O19 1.273 . S
C21 O20 1.257 . S
O22 Eu2 2.326 1_554 S
O22 C10 1.242 . S
O23 Tb1 2.324 . S
O23 C10 1.258 . S
O24 Eu2 2.500 . S
O24 C7 1.300 . S
O25 Eu2 2.473 1_554 S
O25 C7 1.239 1_554 S
H26 C12 0.929 . S
H27 C14 0.931 . S
H28 C16 0.929 . S
O29 Tb30 2.292 . S
O29 C32 1.255 . S
Tb30 O29 2.292 . S
Tb30 O46 2.326 . S
Tb30 O48 2.500 . S
Tb30 O49 2.473 . S
Tb30 O52 2.324 . S
Eu31 O35 2.292 . S
Eu31 C36 2.852 . S
Eu31 O47 2.324 . S
Eu31 O51 2.326 . S
Eu31 O53 2.500 . S
Eu31 O54 2.473 . S
C32 O29 1.255 . S
C32 O33 1.247 . S
O33 C32 1.247 . S
C34 O46 1.242 . S
C34 O47 1.258 . S
O35 Eu31 2.292 . S
O35 C37 1.255 . S
C36 Eu31 2.852 . S
C36 C40 1.503 1_655 S
C36 O53 1.273 . S
C36 O54 1.257 . S
C37 O35 1.255 . S
C37 O38 1.247 . S
O38 C37 1.247 . S
C39 O51 1.242 . S
C39 O52 1.258 . S
C40 C36 1.503 1_455 S
C40 C41 1.379 . S
C40 C45 1.392 . S
C41 C40 1.379 . S
C41 C42 1.404 . S
C41 H55 0.929 1_455 S
C42 C41 1.404 . S
C42 C43 1.389 . S
C43 C42 1.389 . S
C43 C44 1.399 . S
C43 H56 0.931 . S
C44 C43 1.399 . S
C44 C45 1.390 . S
C45 C40 1.392 . S
C45 C44 1.390 . S
C45 H57 0.929 . S
O46 Tb30 2.326 . S
O46 C34 1.242 . S
O47 Eu31 2.324 . S
O47 C34 1.258 . S
O48 Tb30 2.500 . S
O48 C50 1.273 . S
O49 Tb30 2.473 . S
O49 C50 1.257 . S
C50 O48 1.273 . S
C50 O49 1.257 . S
O51 Eu31 2.326 . S
O51 C39 1.242 . S
O52 Tb30 2.324 . S
O52 C39 1.258 . S
O53 Eu31 2.500 . S
O53 C36 1.273 . S
O54 Eu31 2.473 . S
O54 C36 1.257 . S
H55 C41 0.929 1_655 S
H56 C43 0.931 . S
H57 C45 0.929 . S
O58 Tb59 2.292 . S
O58 C61 1.255 . S
Tb59 O58 2.292 . S
Tb59 O75 2.326 . S
Tb59 O77 2.500 . S
Tb59 O78 2.473 . S
Tb59 O81 2.324 . S
Eu60 O64 2.292 . S
Eu60 C65 2.852 . S
Eu60 O76 2.324 . S
Eu60 O80 2.326 . S
Eu60 O82 2.500 . S
Eu60 O83 2.473 . S
C61 O58 1.255 . S
C61 O62 1.247 . S
O62 C61 1.247 . S
C63 O75 1.242 . S
C63 O76 1.258 . S
O64 Eu60 2.292 . S
O64 C66 1.255 . S
C65 Eu60 2.852 . S
C65 C69 1.503 1_565 S
C65 O82 1.273 . S
C65 O83 1.257 . S
C66 O64 1.255 . S
C66 O67 1.247 . S
O67 C66 1.247 . S
C68 O80 1.242 . S
C68 O81 1.258 . S
C69 C65 1.503 1_545 S
C69 C70 1.379 . S
C69 C74 1.392 . S
C70 C69 1.379 . S
C70 C71 1.404 . S
C70 H84 0.929 1_545 S
C71 C70 1.404 . S
C71 C72 1.389 . S
C72 C71 1.389 . S
C72 C73 1.399 . S
C72 H85 0.931 . S
C73 C72 1.399 . S
C73 C74 1.390 . S
C74 C69 1.392 . S
C74 C73 1.390 . S
C74 H86 0.929 . S
O75 Tb59 2.326 . S
O75 C63 1.242 . S
O76 Eu60 2.324 . S
O76 C63 1.258 . S
O77 Tb59 2.500 . S
O77 C79 1.273 . S
O78 Tb59 2.473 . S
O78 C79 1.257 . S
C79 O77 1.273 . S
C79 O78 1.257 . S
O80 Eu60 2.326 . S
O80 C68 1.242 . S
O81 Tb59 2.324 . S
O81 C68 1.258 . S
O82 Eu60 2.500 . S
O82 C65 1.273 . S
O83 Eu60 2.473 . S
O83 C65 1.257 . S
H84 C70 0.929 1_565 S
H85 C72 0.931 . S
H86 C74 0.929 . S
O87 Tb88 2.292 . S
O87 C90 1.255 . S
Tb88 O87 2.292 . S
Tb88 O104 2.326 . S
Tb88 O106 2.500 . S
Tb88 O107 2.473 . S
Tb88 O110 2.324 . S
Eu89 O93 2.292 . S
Eu89 C94 2.852 . S
Eu89 O105 2.324 . S
Eu89 O109 2.326 . S
Eu89 O111 2.500 . S
Eu89 O112 2.473 . S
C90 O87 1.255 . S
C90 O91 1.247 . S
O91 C90 1.247 . S
C92 O104 1.242 . S
C92 O105 1.258 . S
O93 Eu89 2.292 . S
O93 C95 1.255 . S
C94 Eu89 2.852 . S
C94 C98 1.503 . S
C94 O111 1.273 . S
C94 O112 1.257 . S
C95 O93 1.255 . S
C95 O96 1.247 . S
O96 C95 1.247 . S
C97 O109 1.242 . S
C97 O110 1.258 . S
C98 C94 1.503 . S
C98 C99 1.379 . S
C98 C103 1.392 . S
C99 C98 1.379 . S
C99 C100 1.404 . S
C99 H113 0.929 . S
C100 C99 1.404 . S
C100 C101 1.389 . S
C101 C100 1.389 . S
C101 C102 1.399 . S
C101 H114 0.931 . S
C102 C101 1.399 . S
C102 C103 1.390 . S
C103 C98 1.392 . S
C103 C102 1.390 . S
C103 H115 0.929 . S
O104 Tb88 2.326 . S
O104 C92 1.242 . S
O105 Eu89 2.324 . S
O105 C92 1.258 . S
O106 Tb88 2.500 . S
O106 C108 1.273 . S
O107 Tb88 2.473 . S
O107 C108 1.257 . S
C108 O106 1.273 . S
C108 O107 1.257 . S
O109 Eu89 2.326 . S
O109 C97 1.242 . S
O110 Tb88 2.324 . S
O110 C97 1.258 . S
O111 Eu89 2.500 . S
O111 C94 1.273 . S
O112 Eu89 2.473 . S
O112 C94 1.257 . S
H113 C99 0.929 . S
H114 C101 0.931 . S
H115 C103 0.929 . S
O116 Tb117 2.292 . S
O116 C119 1.255 . S
Tb117 O116 2.292 . S
Tb117 O133 2.326 . S
Tb117 O135 2.500 . S
Tb117 O136 2.473 . S
Tb117 O139 2.324 . S
Eu118 O122 2.292 . S
Eu118 C123 2.852 . S
Eu118 O134 2.324 . S
Eu118 O138 2.326 . S
Eu118 O140 2.500 . S
Eu118 O141 2.473 . S
C119 O116 1.255 . S
C119 O120 1.247 . S
O120 C119 1.247 . S
C121 O133 1.242 . S
C121 O134 1.258 . S
O122 Eu118 2.292 . S
O122 C124 1.255 . S
C123 Eu118 2.852 . S
C123 C127 1.503 1_455 S
C123 O140 1.273 . S
C123 O141 1.257 . S
C124 O122 1.255 . S
C124 O125 1.247 . S
O125 C124 1.247 . S
C126 O138 1.242 . S
C126 O139 1.258 . S
C127 C123 1.503 1_655 S
C127 C128 1.379 . S
C127 C132 1.392 . S
C128 C127 1.379 . S
C128 C129 1.404 . S
C128 H142 0.929 1_655 S
C129 C128 1.404 . S
C129 C130 1.389 . S
C130 C129 1.389 . S
C130 C131 1.399 . S
C130 H143 0.931 . S
C131 C130 1.399 . S
C131 C132 1.390 . S
C132 C127 1.392 . S
C132 C131 1.390 . S
C132 H144 0.929 . S
O133 Tb117 2.326 . S
O133 C121 1.242 . S
O134 Eu118 2.324 . S
O134 C121 1.258 . S
O135 Tb117 2.500 . S
O135 C137 1.273 . S
O136 Tb117 2.473 . S
O136 C137 1.257 . S
C137 O135 1.273 . S
C137 O136 1.257 . S
O138 Eu118 2.326 . S
O138 C126 1.242 . S
O139 Tb117 2.324 . S
O139 C126 1.258 . S
O140 Eu118 2.500 . S
O140 C123 1.273 . S
O141 Eu118 2.473 . S
O141 C123 1.257 . S
H142 C128 0.929 1_455 S
H143 C130 0.931 . S
H144 C132 0.929 . S
O145 Tb146 2.292 . S
O145 C148 1.255 . S
Tb146 O145 2.292 . S
Tb146 O162 2.326 . S
Tb146 O164 2.500 . S
Tb146 O165 2.473 . S
Tb146 O168 2.324 . S
Eu147 O151 2.292 . S
Eu147 C152 2.852 . S
Eu147 O163 2.324 . S
Eu147 O167 2.326 . S
Eu147 O169 2.500 . S
Eu147 O170 2.473 . S
C148 O145 1.255 . S
C148 O149 1.247 . S
O149 C148 1.247 . S
C150 O162 1.242 . S
C150 O163 1.258 . S
O151 Eu147 2.292 . S
O151 C153 1.255 . S
C152 Eu147 2.852 . S
C152 C156 1.503 1_545 S
C152 O169 1.273 . S
C152 O170 1.257 . S
C153 O151 1.255 . S
C153 O154 1.247 . S
O154 C153 1.247 . S
C155 O167 1.242 . S
C155 O168 1.258 . S
C156 C152 1.503 1_565 S
C156 C157 1.379 . S
C156 C161 1.392 . S
C157 C156 1.379 . S
C157 C158 1.404 . S
C157 H171 0.929 1_565 S
C158 C157 1.404 . S
C158 C159 1.389 . S
C159 C158 1.389 . S
C159 C160 1.399 . S
C159 H172 0.931 . S
C160 C159 1.399 . S
C160 C161 1.390 . S
C161 C156 1.392 . S
C161 C160 1.390 . S
C161 H173 0.929 . S
O162 Tb146 2.326 . S
O162 C150 1.242 . S
O163 Eu147 2.324 . S
O163 C150 1.258 . S
O164 Tb146 2.500 . S
O164 C166 1.273 . S
O165 Tb146 2.473 . S
O165 C166 1.257 . S
C166 O164 1.273 . S
C166 O165 1.257 . S
O167 Eu147 2.326 . S
O167 C155 1.242 . S
O168 Tb146 2.324 . S
O168 C155 1.258 . S
O169 Eu147 2.500 . S
O169 C152 1.273 . S
O170 Eu147 2.473 . S
O170 C152 1.257 . S
H171 C157 0.929 1_545 S
H172 C159 0.931 . S
H173 C161 0.929 . S
O174 Tb175 2.292 . S
O174 C177 1.255 . S
Tb175 O174 2.292 . S
Tb175 O191 2.326 . S
Tb175 O193 2.500 . S
Tb175 O194 2.473 . S
Tb175 O197 2.324 . S
Eu176 O180 2.292 . S
Eu176 C181 2.852 . S
Eu176 O192 2.324 . S
Eu176 O196 2.326 . S
Eu176 O198 2.500 . S
Eu176 O199 2.473 . S
C177 O174 1.255 . S
C177 O178 1.247 . S
O178 C177 1.247 . S
C179 O191 1.242 . S
C179 O192 1.258 . S
O180 Eu176 2.292 . S
O180 C182 1.255 . S
C181 Eu176 2.852 . S
C181 C185 1.503 . S
C181 O198 1.273 . S
C181 O199 1.257 . S
C182 O180 1.255 . S
C182 O183 1.247 . S
O183 C182 1.247 . S
C184 O196 1.242 . S
C184 O197 1.258 . S
C185 C181 1.503 . S
C185 C186 1.379 . S
C185 C190 1.392 . S
C186 C185 1.379 . S
C186 C187 1.404 . S
C186 H200 0.929 . S
C187 C186 1.404 . S
C187 C188 1.389 . S
C188 C187 1.389 . S
C188 C189 1.399 . S
C188 H201 0.931 . S
C189 C188 1.399 . S
C189 C190 1.390 . S
C190 C185 1.392 . S
C190 C189 1.390 . S
C190 H202 0.929 . S
O191 Tb175 2.326 . S
O191 C179 1.242 . S
O192 Eu176 2.324 . S
O192 C179 1.258 . S
O193 Tb175 2.500 . S
O193 C195 1.273 . S
O194 Tb175 2.473 . S
O194 C195 1.257 . S
C195 O193 1.273 . S
C195 O194 1.257 . S
O196 Eu176 2.326 . S
O196 C184 1.242 . S
O197 Tb175 2.324 . S
O197 C184 1.258 . S
O198 Eu176 2.500 . S
O198 C181 1.273 . S
O199 Eu176 2.473 . S
O199 C181 1.257 . S
H200 C186 0.929 . S
H201 C188 0.931 . S
H202 C190 0.929 . S
O203 Tb204 2.292 . S
O203 C206 1.255 . S
Tb204 O203 2.292 . S
Tb204 O220 2.326 . S
Tb204 O222 2.500 . S
Tb204 O223 2.473 . S
Tb204 O226 2.324 . S
Eu205 O209 2.292 . S
Eu205 C210 2.852 1_554 S
Eu205 O221 2.324 1_554 S
Eu205 O225 2.326 1_554 S
Eu205 O227 2.500 . S
Eu205 O228 2.473 1_554 S
C206 O203 1.255 . S
C206 O207 1.247 . S
O207 C206 1.247 . S
C208 O220 1.242 . S
C208 O221 1.258 . S
O209 Eu205 2.292 . S
O209 C211 1.255 . S
C210 Eu205 2.852 1_556 S
C210 C214 1.503 1_655 S
C210 O227 1.273 1_556 S
C210 O228 1.257 . S
C211 O209 1.255 . S
C211 O212 1.247 . S
O212 C211 1.247 . S
C213 O225 1.242 . S
C213 O226 1.258 . S
C214 C210 1.503 1_455 S
C214 C215 1.379 . S
C214 C219 1.392 1_556 S
C215 C214 1.379 . S
C215 C216 1.404 . S
C215 H229 0.929 1_455 S
C216 C215 1.404 . S
C216 C217 1.389 . S
C217 C216 1.389 . S
C217 C218 1.399 . S
C217 H230 0.931 . S
C218 C217 1.399 . S
C218 C219 1.390 1_556 S
C219 C214 1.392 1_554 S
C219 C218 1.390 1_554 S
C219 H231 0.929 . S
O220 Tb204 2.326 . S
O220 C208 1.242 . S
O221 Eu205 2.324 1_556 S
O221 C208 1.258 . S
O222 Tb204 2.500 . S
O222 C224 1.273 . S
O223 Tb204 2.473 . S
O223 C224 1.257 . S
C224 O222 1.273 . S
C224 O223 1.257 . S
O225 Eu205 2.326 1_556 S
O225 C213 1.242 . S
O226 Tb204 2.324 . S
O226 C213 1.258 . S
O227 Eu205 2.500 . S
O227 C210 1.273 1_554 S
O228 Eu205 2.473 1_556 S
O228 C210 1.257 . S
H229 C215 0.929 1_655 S
H230 C217 0.931 . S
H231 C219 0.929 . S
O232 Tb233 2.292 . S
O232 C235 1.255 . S
Tb233 O232 2.292 . S
Tb233 O249 2.326 . S
Tb233 O251 2.500 . S
Tb233 O252 2.473 . S
Tb233 O255 2.324 . S
Eu234 O238 2.292 . S
Eu234 C239 2.852 . S
Eu234 O250 2.324 . S
Eu234 O254 2.326 . S
Eu234 O256 2.500 . S
Eu234 O257 2.473 . S
C235 O232 1.255 . S
C235 O236 1.247 . S
O236 C235 1.247 . S
C237 O249 1.242 . S
C237 O250 1.258 . S
O238 Eu234 2.292 . S
O238 C240 1.255 . S
C239 Eu234 2.852 . S
C239 C243 1.503 1_565 S
C239 O256 1.273 . S
C239 O257 1.257 . S
C240 O238 1.255 . S
C240 O241 1.247 . S
O241 C240 1.247 . S
C242 O254 1.242 . S
C242 O255 1.258 . S
C243 C239 1.503 1_545 S
C243 C244 1.379 . S
C243 C248 1.392 . S
C244 C243 1.379 . S
C244 C245 1.404 . S
C244 H258 0.929 1_545 S
C245 C244 1.404 . S
C245 C246 1.389 . S
C246 C245 1.389 . S
C246 C247 1.399 . S
C246 H259 0.931 . S
C247 C246 1.399 . S
C247 C248 1.390 . S
C248 C243 1.392 . S
C248 C247 1.390 . S
C248 H260 0.929 . S
O249 Tb233 2.326 . S
O249 C237 1.242 . S
O250 Eu234 2.324 . S
O250 C237 1.258 . S
O251 Tb233 2.500 . S
O251 C253 1.273 . S
O252 Tb233 2.473 . S
O252 C253 1.257 . S
C253 O251 1.273 . S
C253 O252 1.257 . S
O254 Eu234 2.326 . S
O254 C242 1.242 . S
O255 Tb233 2.324 . S
O255 C242 1.258 . S
O256 Eu234 2.500 . S
O256 C239 1.273 . S
O257 Eu234 2.473 . S
O257 C239 1.257 . S
H258 C244 0.929 1_565 S
H259 C246 0.931 . S
H260 C248 0.929 . S
O261 Tb262 2.292 . S
O261 C264 1.255 . S
Tb262 O261 2.292 . S
Tb262 O278 2.326 . S
Tb262 O280 2.500 . S
Tb262 O281 2.473 . S
Tb262 O284 2.324 . S
Eu263 O267 2.292 . S
Eu263 C268 2.852 . S
Eu263 O279 2.324 . S
Eu263 O283 2.326 . S
Eu263 O285 2.500 . S
Eu263 O286 2.473 . S
C264 O261 1.255 . S
C264 O265 1.247 . S
O265 C264 1.247 . S
C266 O278 1.242 . S
C266 O279 1.258 . S
O267 Eu263 2.292 . S
O267 C269 1.255 . S
C268 Eu263 2.852 . S
C268 C272 1.503 . S
C268 O285 1.273 . S
C268 O286 1.257 . S
C269 O267 1.255 . S
C269 O270 1.247 . S
O270 C269 1.247 . S
C271 O283 1.242 . S
C271 O284 1.258 . S
C272 C268 1.503 . S
C272 C273 1.379 . S
C272 C277 1.392 . S
C273 C272 1.379 . S
C273 C274 1.404 . S
C273 H287 0.929 . S
C274 C273 1.404 . S
C274 C275 1.389 . S
C275 C274 1.389 . S
C275 C276 1.399 . S
C275 H288 0.931 . S
C276 C275 1.399 . S
C276 C277 1.390 . S
C277 C272 1.392 . S
C277 C276 1.390 . S
C277 H289 0.929 . S
O278 Tb262 2.326 . S
O278 C266 1.242 . S
O279 Eu263 2.324 . S
O279 C266 1.258 . S
O280 Tb262 2.500 . S
O280 C282 1.273 . S
O281 Tb262 2.473 . S
O281 C282 1.257 . S
C282 O280 1.273 . S
C282 O281 1.257 . S
O283 Eu263 2.326 . S
O283 C271 1.242 . S
O284 Tb262 2.324 . S
O284 C271 1.258 . S
O285 Eu263 2.500 . S
O285 C268 1.273 . S
O286 Eu263 2.473 . S
O286 C268 1.257 . S
H287 C273 0.929 . S
H288 C275 0.931 . S
H289 C277 0.929 . S
O290 Tb291 2.292 . S
O290 C293 1.255 . S
Tb291 O290 2.292 . S
Tb291 O307 2.326 . S
Tb291 O309 2.500 . S
Tb291 O310 2.473 . S
Tb291 O313 2.324 . S
Eu292 O296 2.292 . S
Eu292 C297 2.852 . S
Eu292 O308 2.324 . S
Eu292 O312 2.326 . S
Eu292 O314 2.500 . S
Eu292 O315 2.473 . S
C293 O290 1.255 . S
C293 O294 1.247 . S
O294 C293 1.247 . S
C295 O307 1.242 . S
C295 O308 1.258 . S
O296 Eu292 2.292 . S
O296 C298 1.255 . S
C297 Eu292 2.852 . S
C297 C301 1.503 1_455 S
C297 O314 1.273 . S
C297 O315 1.257 . S
C298 O296 1.255 . S
C298 O299 1.247 . S
O299 C298 1.247 . S
C300 O312 1.242 . S
C300 O313 1.258 . S
C301 C297 1.503 1_655 S
C301 C302 1.379 . S
C301 C306 1.392 . S
C302 C301 1.379 . S
C302 C303 1.404 . S
C302 H316 0.929 1_655 S
C303 C302 1.404 . S
C303 C304 1.389 . S
C304 C303 1.389 . S
C304 C305 1.399 . S
C304 H317 0.931 . S
C305 C304 1.399 . S
C305 C306 1.390 . S
C306 C301 1.392 . S
C306 C305 1.390 . S
C306 H318 0.929 . S
O307 Tb291 2.326 . S
O307 C295 1.242 . S
O308 Eu292 2.324 . S
O308 C295 1.258 . S
O309 Tb291 2.500 . S
O309 C311 1.273 . S
O310 Tb291 2.473 . S
O310 C311 1.257 . S
C311 O309 1.273 . S
C311 O310 1.257 . S
O312 Eu292 2.326 . S
O312 C300 1.242 . S
O313 Tb291 2.324 . S
O313 C300 1.258 . S
O314 Eu292 2.500 . S
O314 C297 1.273 . S
O315 Eu292 2.473 . S
O315 C297 1.257 . S
H316 C302 0.929 1_455 S
H317 C304 0.931 . S
H318 C306 0.929 . S
O319 Tb320 2.292 . S
O319 C322 1.255 . S
Tb320 O319 2.292 . S
Tb320 O336 2.326 . S
Tb320 O338 2.500 . S
Tb320 O339 2.473 . S
Tb320 O342 2.324 . S
Eu321 O325 2.292 . S
Eu321 C326 2.852 . S
Eu321 O337 2.324 . S
Eu321 O341 2.326 . S
Eu321 O343 2.500 . S
Eu321 O344 2.473 . S
C322 O319 1.255 . S
C322 O323 1.247 . S
O323 C322 1.247 . S
C324 O336 1.242 . S
C324 O337 1.258 . S
O325 Eu321 2.292 . S
O325 C327 1.255 . S
C326 Eu321 2.852 . S
C326 C330 1.503 1_545 S
C326 O343 1.273 . S
C326 O344 1.257 . S
C327 O325 1.255 . S
C327 O328 1.247 . S
O328 C327 1.247 . S
C329 O341 1.242 . S
C329 O342 1.258 . S
C330 C326 1.503 1_565 S
C330 C331 1.379 . S
C330 C335 1.392 . S
C331 C330 1.379 . S
C331 C332 1.404 . S
C331 H345 0.929 1_565 S
C332 C331 1.404 . S
C332 C333 1.389 . S
C333 C332 1.389 . S
C333 C334 1.399 . S
C333 H346 0.931 . S
C334 C333 1.399 . S
C334 C335 1.390 . S
C335 C330 1.392 . S
C335 C334 1.390 . S
C335 H347 0.929 . S
O336 Tb320 2.326 . S
O336 C324 1.242 . S
O337 Eu321 2.324 . S
O337 C324 1.258 . S
O338 Tb320 2.500 . S
O338 C340 1.273 . S
O339 Tb320 2.473 . S
O339 C340 1.257 . S
C340 O338 1.273 . S
C340 O339 1.257 . S
O341 Eu321 2.326 . S
O341 C329 1.242 . S
O342 Tb320 2.324 . S
O342 C329 1.258 . S
O343 Eu321 2.500 . S
O343 C326 1.273 . S
O344 Eu321 2.473 . S
O344 C326 1.257 . S
H345 C331 0.929 1_545 S
H346 C333 0.931 . S
H347 C335 0.929 . S
H348 C356 0.950 . S
H349 C361 0.950 . S
H350 C358 0.950 . S
H351 C360 0.950 . S
H352 C362 0.950 . S
H353 C364 0.950 . S
H354 C366 0.950 . S
H355 C367 0.950 . S
C356 H348 0.950 . S
C356 C357 1.386 . S
C356 C358 1.391 . S
C357 C356 1.386 . S
C357 C361 1.393 . S
C358 H350 0.950 . S
C358 C356 1.391 . S
C358 C359 1.400 . S
C359 C358 1.400 . S
C359 C360 1.398 . S
C359 C365 1.491 . S
C360 H351 0.950 . S
C360 C359 1.398 . S
C360 C361 1.391 . S
C361 H349 0.950 . S
C361 C357 1.393 . S
C361 C360 1.391 . S
C362 H352 0.950 . S
C362 C363 1.386 . S
C362 C364 1.391 . S
C363 C362 1.386 . S
C363 C367 1.393 . S
C364 H353 0.950 . S
C364 C362 1.391 . S
C364 C365 1.400 . S
C365 C359 1.491 . S
C365 C364 1.400 . S
C365 C366 1.398 . S
C366 H354 0.950 . S
C366 C365 1.398 . S
C366 C367 1.391 . S
C367 H355 0.950 . S
C367 C363 1.393 . S
C367 C366 1.391 . S
H368 C376 0.950 . S
H369 C381 0.950 . S
H370 C378 0.950 . S
H371 C380 0.950 . S
H372 C382 0.950 . S
H373 C384 0.950 . S
H374 C386 0.950 . S
H375 C387 0.950 . S
C376 H368 0.950 . S
C376 C377 1.386 . S
C376 C378 1.391 . S
C377 C376 1.386 . S
C377 C381 1.393 . S
C378 H370 0.950 . S
C378 C376 1.391 . S
C378 C379 1.400 . S
C379 C378 1.400 . S
C379 C380 1.398 . S
C379 C385 1.491 . S
C380 H371 0.950 . S
C380 C379 1.398 . S
C380 C381 1.391 . S
C381 H369 0.950 . S
C381 C377 1.393 . S
C381 C380 1.391 . S
C382 H372 0.950 . S
C382 C383 1.386 . S
C382 C384 1.391 . S
C383 C382 1.386 . S
C383 C387 1.393 . S
C384 H373 0.950 . S
C384 C382 1.391 . S
C384 C385 1.400 . S
C385 C379 1.491 . S
C385 C384 1.400 . S
C385 C386 1.398 . S
C386 H374 0.950 . S
C386 C385 1.398 . S
C386 C387 1.391 . S
C387 H375 0.950 . S
C387 C383 1.393 . S
C387 C386 1.391 . S
H388 C396 0.950 . S
H389 C401 0.950 . S
H390 C398 0.950 . S
H391 C400 0.950 . S
H392 C402 0.950 . S
H393 C404 0.950 . S
H394 C406 0.950 . S
H395 C407 0.950 . S
C396 H388 0.950 . S
C396 C397 1.386 . S
C396 C398 1.391 . S
C397 C396 1.386 . S
C397 C401 1.393 . S
C398 H390 0.950 . S
C398 C396 1.391 . S
C398 C399 1.400 . S
C399 C398 1.400 . S
C399 C400 1.398 . S
C399 C405 1.491 . S
C400 H391 0.950 . S
C400 C399 1.398 . S
C400 C401 1.391 . S
C401 H389 0.950 . S
C401 C397 1.393 . S
C401 C400 1.391 . S
C402 H392 0.950 . S
C402 C403 1.386 . S
C402 C404 1.391 . S
C403 C402 1.386 . S
C403 C407 1.393 . S
C404 H393 0.950 . S
C404 C402 1.391 . S
C404 C405 1.400 . S
C405 C399 1.491 . S
C405 C404 1.400 . S
C405 C406 1.398 . S
C406 H394 0.950 . S
C406 C405 1.398 . S
C406 C407 1.391 . S
C407 H395 0.950 . S
C407 C403 1.393 . S
C407 C406 1.391 . S
H408 C416 0.950 . S
H409 C421 0.950 . S
H410 C418 0.950 . S
H411 C420 0.950 . S
H412 C422 0.950 . S
H413 C424 0.950 . S
H414 C426 0.950 . S
H415 C427 0.950 . S
C416 H408 0.950 . S
C416 C417 1.386 . S
C416 C418 1.391 . S
C417 C416 1.386 . S
C417 C421 1.393 . S
C418 H410 0.950 . S
C418 C416 1.391 . S
C418 C419 1.400 . S
C419 C418 1.400 . S
C419 C420 1.398 . S
C419 C425 1.491 . S
C420 H411 0.950 . S
C420 C419 1.398 . S
C420 C421 1.391 . S
C421 H409 0.950 . S
C421 C417 1.393 . S
C421 C420 1.391 . S
C422 H412 0.950 . S
C422 C423 1.386 . S
C422 C424 1.391 . S
C423 C422 1.386 . S
C423 C427 1.393 . S
C424 H413 0.950 . S
C424 C422 1.391 . S
C424 C425 1.400 . S
C425 C419 1.491 . S
C425 C424 1.400 . S
C425 C426 1.398 . S
C426 H414 0.950 . S
C426 C425 1.398 . S
C426 C427 1.391 . S
C427 H415 0.950 . S
C427 C423 1.393 . S
C427 C426 1.391 . S
H428 C436 0.950 . S
H429 C441 0.950 . S
H430 C438 0.950 . S
H431 C440 0.950 . S
H432 C442 0.950 . S
H433 C444 0.950 . S
H434 C446 0.950 . S
H435 C447 0.950 . S
C436 H428 0.950 . S
C436 C437 1.386 . S
C436 C438 1.391 . S
C437 C436 1.386 . S
C437 C441 1.393 . S
C438 H430 0.950 . S
C438 C436 1.391 . S
C438 C439 1.400 . S
C439 C438 1.400 . S
C439 C440 1.398 . S
C439 C445 1.491 . S
C440 H431 0.950 . S
C440 C439 1.398 . S
C440 C441 1.391 . S
C441 H429 0.950 . S
C441 C437 1.393 . S
C441 C440 1.391 . S
C442 H432 0.950 . S
C442 C443 1.386 . S
C442 C444 1.391 . S
C443 C442 1.386 . S
C443 C447 1.393 . S
C444 H433 0.950 . S
C444 C442 1.391 . S
C444 C445 1.400 . S
C445 C439 1.491 . S
C445 C444 1.400 . S
C445 C446 1.398 . S
C446 H434 0.950 . S
C446 C445 1.398 . S
C446 C447 1.391 . S
C447 H435 0.950 . S
C447 C443 1.393 . S
C447 C446 1.391 . S
H448 C456 0.950 . S
H449 C461 0.950 . S
H450 C458 0.950 . S
H451 C460 0.950 . S
H452 C462 0.950 . S
H453 C464 0.950 . S
H454 C466 0.950 . S
H455 C467 0.950 . S
C456 H448 0.950 . S
C456 C457 1.386 . S
C456 C458 1.391 . S
C457 C456 1.386 . S
C457 C461 1.393 . S
C458 H450 0.950 . S
C458 C456 1.391 . S
C458 C459 1.400 . S
C459 C458 1.400 . S
C459 C460 1.398 . S
C459 C465 1.491 . S
C460 H451 0.950 . S
C460 C459 1.398 . S
C460 C461 1.391 . S
C461 H449 0.950 . S
C461 C457 1.393 . S
C461 C460 1.391 . S
C462 H452 0.950 . S
C462 C463 1.386 . S
C462 C464 1.391 . S
C463 C462 1.386 . S
C463 C467 1.393 . S
C464 H453 0.950 . S
C464 C462 1.391 . S
C464 C465 1.400 . S
C465 C459 1.491 . S
C465 C464 1.400 . S
C465 C466 1.398 . S
C466 H454 0.950 . S
C466 C465 1.398 . S
C466 C467 1.391 . S
C467 H455 0.950 . S
C467 C463 1.393 . S
C467 C466 1.391 . S
H468 C476 0.950 . S
H469 C481 0.950 . S
H470 C478 0.950 . S
H471 C480 0.950 . S
H472 C482 0.950 . S
H473 C484 0.950 . S
H474 C486 0.950 . S
H475 C487 0.950 . S
C476 H468 0.950 . S
C476 C477 1.386 . S
C476 C478 1.391 . S
C477 C476 1.386 . S
C477 C481 1.393 . S
C478 H470 0.950 . S
C478 C476 1.391 . S
C478 C479 1.400 . S
C479 C478 1.400 . S
C479 C480 1.398 . S
C479 C485 1.491 . S
C480 H471 0.950 . S
C480 C479 1.398 . S
C480 C481 1.391 . S
C481 H469 0.950 . S
C481 C477 1.393 . S
C481 C480 1.391 . S
C482 H472 0.950 . S
C482 C483 1.386 . S
C482 C484 1.391 . S
C483 C482 1.386 . S
C483 C487 1.393 . S
C484 H473 0.950 . S
C484 C482 1.391 . S
C484 C485 1.400 . S
C485 C479 1.491 . S
C485 C484 1.400 . S
C485 C486 1.398 . S
C486 H474 0.950 . S
C486 C485 1.398 . S
C486 C487 1.391 . S
C487 H475 0.950 . S
C487 C483 1.393 . S
C487 C486 1.391 . S
H488 C496 0.950 . S
H489 C501 0.950 . S
H490 C498 0.950 . S
H491 C500 0.950 . S
H492 C502 0.950 . S
H493 C504 0.950 . S
H494 C506 0.950 . S
H495 C507 0.950 . S
C496 H488 0.950 . S
C496 C497 1.386 . S
C496 C498 1.391 . S
C497 C496 1.386 . S
C497 C501 1.393 . S
C498 H490 0.950 . S
C498 C496 1.391 . S
C498 C499 1.400 . S
C499 C498 1.400 . S
C499 C500 1.398 . S
C499 C505 1.491 . S
C500 H491 0.950 . S
C500 C499 1.398 . S
C500 C501 1.391 . S
C501 H489 0.950 . S
C501 C497 1.393 . S
C501 C500 1.391 . S
C502 H492 0.950 . S
C502 C503 1.386 . S
C502 C504 1.391 . S
C503 C502 1.386 . S
C503 C507 1.393 . S
C504 H493 0.950 . S
C504 C502 1.391 . S
C504 C505 1.400 . S
C505 C499 1.491 . S
C505 C504 1.400 . S
C505 C506 1.398 . S
C506 H494 0.950 . S
C506 C505 1.398 . S
C506 C507 1.391 . S
C507 H495 0.950 . S
C507 C503 1.393 . S
C507 C506 1.391 . S
H508 C516 0.950 . S
H509 C521 0.950 . S
H510 C518 0.950 . S
H511 C520 0.950 . S
H512 C522 0.950 . S
H513 C524 0.950 . S
H514 C526 0.950 . S
H515 C527 0.950 . S
C516 H508 0.950 . S
C516 C517 1.386 . S
C516 C518 1.391 . S
C517 C516 1.386 . S
C517 C521 1.393 . S
C518 H510 0.950 . S
C518 C516 1.391 . S
C518 C519 1.400 . S
C519 C518 1.400 . S
C519 C520 1.398 . S
C519 C525 1.491 . S
C520 H511 0.950 . S
C520 C519 1.398 . S
C520 C521 1.391 . S
C521 H509 0.950 . S
C521 C517 1.393 . S
C521 C520 1.391 . S
C522 H512 0.950 . S
C522 C523 1.386 . S
C522 C524 1.391 . S
C523 C522 1.386 . S
C523 C527 1.393 . S
C524 H513 0.950 . S
C524 C522 1.391 . S
C524 C525 1.400 . S
C525 C519 1.491 . S
C525 C524 1.400 . S
C525 C526 1.398 . S
C526 H514 0.950 . S
C526 C525 1.398 . S
C526 C527 1.391 . S
C527 H515 0.950 . S
C527 C523 1.393 . S
C527 C526 1.391 . S
H528 C536 0.950 . S
H529 C541 0.950 . S
H530 C538 0.950 . S
H531 C540 0.950 . S
H532 C542 0.950 . S
H533 C544 0.950 . S
H534 C546 0.950 . S
H535 C547 0.950 . S
C536 H528 0.950 . S
C536 C537 1.386 . S
C536 C538 1.391 . S
C537 C536 1.386 . S
C537 C541 1.393 . S
C538 H530 0.950 . S
C538 C536 1.391 . S
C538 C539 1.400 . S
C539 C538 1.400 . S
C539 C540 1.398 . S
C539 C545 1.491 . S
C540 H531 0.950 . S
C540 C539 1.398 . S
C540 C541 1.391 . S
C541 H529 0.950 . S
C541 C537 1.393 . S
C541 C540 1.391 . S
C542 H532 0.950 . S
C542 C543 1.386 . S
C542 C544 1.391 . S
C543 C542 1.386 . S
C543 C547 1.393 . S
C544 H533 0.950 . S
C544 C542 1.391 . S
C544 C545 1.400 . S
C545 C539 1.491 . S
C545 C544 1.400 . S
C545 C546 1.398 . S
C546 H534 0.950 . S
C546 C545 1.398 . S
C546 C547 1.391 . S
C547 H535 0.950 . S
C547 C543 1.393 . S
C547 C546 1.391 . S
H548 C556 0.950 . S
H549 C561 0.950 . S
H550 C558 0.950 . S
H551 C560 0.950 . S
H552 C562 0.950 . S
H553 C564 0.950 . S
H554 C566 0.950 . S
H555 C567 0.950 . S
C556 H548 0.950 . S
C556 C557 1.386 . S
C556 C558 1.391 . S
C557 C556 1.386 . S
C557 C561 1.393 . S
C558 H550 0.950 . S
C558 C556 1.391 . S
C558 C559 1.400 . S
C559 C558 1.400 . S
C559 C560 1.398 . S
C559 C565 1.491 . S
C560 H551 0.950 . S
C560 C559 1.398 . S
C560 C561 1.391 . S
C561 H549 0.950 . S
C561 C557 1.393 . S
C561 C560 1.391 . S
C562 H552 0.950 . S
C562 C563 1.386 . S
C562 C564 1.391 . S
C563 C562 1.386 . S
C563 C567 1.393 . S
C564 H553 0.950 . S
C564 C562 1.391 . S
C564 C565 1.400 . S
C565 C559 1.491 . S
C565 C564 1.400 . S
C565 C566 1.398 . S
C566 H554 0.950 . S
C566 C565 1.398 . S
C566 C567 1.391 . S
C567 H555 0.950 . S
C567 C563 1.393 . S
C567 C566 1.391 . S
H568 C576 0.950 . S
H569 C581 0.950 . S
H570 C578 0.950 . S
H571 C580 0.950 . S
H572 C582 0.950 . S
H573 C584 0.950 . S
H574 C586 0.950 . S
H575 C587 0.950 . S
C576 H568 0.950 . S
C576 C577 1.386 . S
C576 C578 1.391 . S
C577 C576 1.386 . S
C577 C581 1.393 . S
C578 H570 0.950 . S
C578 C576 1.391 . S
C578 C579 1.400 . S
C579 C578 1.400 . S
C579 C580 1.398 . S
C579 C585 1.491 . S
C580 H571 0.950 . S
C580 C579 1.398 . S
C580 C581 1.391 . S
C581 H569 0.950 . S
C581 C577 1.393 . S
C581 C580 1.391 . S
C582 H572 0.950 . S
C582 C583 1.386 . S
C582 C584 1.391 . S
C583 C582 1.386 . S
C583 C587 1.393 . S
C584 H573 0.950 . S
C584 C582 1.391 . S
C584 C585 1.400 . S
C585 C579 1.491 . S
C585 C584 1.400 . S
C585 C586 1.398 . S
C586 H574 0.950 . S
C586 C585 1.398 . S
C586 C587 1.391 . S
C587 H575 0.950 . S
C587 C583 1.393 . S
C587 C586 1.391 . S
H588 C596 0.950 . S
H589 C601 0.950 . S
H590 C598 0.950 . S
H591 C600 0.950 . S
H592 C602 0.950 . S
H593 C604 0.950 . S
H594 C606 0.950 . S
H595 C607 0.950 . S
C596 H588 0.950 . S
C596 C597 1.386 . S
C596 C598 1.391 . S
C597 C596 1.386 . S
C597 C601 1.393 . S
C598 H590 0.950 . S
C598 C596 1.391 . S
C598 C599 1.400 . S
C599 C598 1.400 . S
C599 C600 1.398 . S
C599 C605 1.491 . S
C600 H591 0.950 . S
C600 C599 1.398 . S
C600 C601 1.391 . S
C601 H589 0.950 . S
C601 C597 1.393 . S
C601 C600 1.391 . S
C602 H592 0.950 . S
C602 C603 1.386 . S
C602 C604 1.391 . S
C603 C602 1.386 . S
C603 C607 1.393 . S
C604 H593 0.950 . S
C604 C602 1.391 . S
C604 C605 1.400 . S
C605 C599 1.491 . S
C605 C604 1.400 . S
C605 C606 1.398 . S
C606 H594 0.950 . S
C606 C605 1.398 . S
C606 C607 1.391 . S
C607 H595 0.950 . S
C607 C603 1.393 . S
C607 C606 1.391 . S
H608 C616 0.950 . S
H609 C621 0.950 . S
H610 C618 0.950 . S
H611 C620 0.950 . S
H612 C622 0.950 . S
H613 C624 0.950 . S
H614 C626 0.950 . S
H615 C627 0.950 . S
C616 H608 0.950 . S
C616 C617 1.386 . S
C616 C618 1.391 . S
C617 C616 1.386 . S
C617 C621 1.393 . S
C618 H610 0.950 . S
C618 C616 1.391 . S
C618 C619 1.400 . S
C619 C618 1.400 . S
C619 C620 1.398 . S
C619 C625 1.491 . S
C620 H611 0.950 . S
C620 C619 1.398 . S
C620 C621 1.391 . S
C621 H609 0.950 . S
C621 C617 1.393 . S
C621 C620 1.391 . S
C622 H612 0.950 . S
C622 C623 1.381 1_556 S
C622 C624 1.391 1_556 S
C623 C622 1.381 1_554 S
C623 C627 1.429 . S
C624 H613 0.950 . S
C624 C622 1.391 1_554 S
C624 C625 1.400 . S
C625 C619 1.491 . S
C625 C624 1.400 . S
C625 C626 1.398 . S
C626 H614 0.950 . S
C626 C625 1.398 . S
C626 C627 1.391 . S
C627 H615 0.950 . S
C627 C623 1.429 . S
C627 C626 1.391 . S
H628 C636 0.950 . S
H629 C641 0.950 . S
H630 C638 0.950 . S
H631 C640 0.950 . S
H632 C642 0.950 . S
H633 C644 0.950 . S
H634 C646 0.950 . S
H635 C647 0.950 . S
C636 H628 0.950 . S
C636 C637 1.386 . S
C636 C638 1.391 . S
C637 C636 1.386 . S
C637 C641 1.393 . S
C638 H630 0.950 . S
C638 C636 1.391 . S
C638 C639 1.400 . S
C639 C638 1.400 . S
C639 C640 1.398 . S
C639 C645 1.491 . S
C640 H631 0.950 . S
C640 C639 1.398 . S
C640 C641 1.391 . S
C641 H629 0.950 . S
C641 C637 1.393 . S
C641 C640 1.391 . S
C642 H632 0.950 . S
C642 C643 1.386 . S
C642 C644 1.391 . S
C643 C642 1.386 . S
C643 C647 1.393 . S
C644 H633 0.950 . S
C644 C642 1.391 . S
C644 C645 1.400 . S
C645 C639 1.491 . S
C645 C644 1.400 . S
C645 C646 1.398 . S
C646 H634 0.950 . S
C646 C645 1.398 . S
C646 C647 1.391 . S
C647 H635 0.950 . S
C647 C643 1.393 . S
C647 C646 1.391 . S
H648 C656 0.950 . S
H649 C661 0.950 . S
H650 C658 0.950 . S
H651 C660 0.950 . S
H652 C662 0.950 . S
H653 C664 0.950 . S
H654 C666 0.950 . S
H655 C667 0.950 . S
C656 H648 0.950 . S
C656 C657 1.386 . S
C656 C658 1.391 . S
C657 C656 1.386 . S
C657 C661 1.393 . S
C658 H650 0.950 . S
C658 C656 1.391 . S
C658 C659 1.400 . S
C659 C658 1.400 . S
C659 C660 1.398 . S
C659 C665 1.491 . S
C660 H651 0.950 . S
C660 C659 1.398 . S
C660 C661 1.391 . S
C661 H649 0.950 . S
C661 C657 1.393 . S
C661 C660 1.391 . S
C662 H652 0.950 . S
C662 C663 1.386 . S
C662 C664 1.391 . S
C663 C662 1.386 . S
C663 C667 1.393 . S
C664 H653 0.950 . S
C664 C662 1.391 . S
C664 C665 1.400 . S
C665 C659 1.491 . S
C665 C664 1.400 . S
C665 C666 1.398 . S
C666 H654 0.950 . S
C666 C665 1.398 . S
C666 C667 1.391 . S
C667 H655 0.950 . S
C667 C663 1.393 . S
C667 C666 1.391 . S
H668 C676 0.950 . S
H669 C681 0.950 . S
H670 C678 0.950 . S
H671 C680 0.950 . S
H672 C682 0.950 . S
H673 C684 0.950 . S
H674 C686 0.950 . S
H675 C687 0.950 . S
C676 H668 0.950 . S
C676 C677 1.386 . S
C676 C678 1.391 . S
C677 C676 1.386 . S
C677 C681 1.393 . S
C678 H670 0.950 . S
C678 C676 1.391 . S
C678 C679 1.400 . S
C679 C678 1.400 . S
C679 C680 1.398 . S
C679 C685 1.491 . S
C680 H671 0.950 . S
C680 C679 1.398 . S
C680 C681 1.391 . S
C681 H669 0.950 . S
C681 C677 1.393 . S
C681 C680 1.391 . S
C682 H672 0.950 . S
C682 C683 1.386 . S
C682 C684 1.391 . S
C683 C682 1.386 . S
C683 C687 1.393 . S
C684 H673 0.950 . S
C684 C682 1.391 . S
C684 C685 1.400 . S
C685 C679 1.491 . S
C685 C684 1.400 . S
C685 C686 1.398 . S
C686 H674 0.950 . S
C686 C685 1.398 . S
C686 C687 1.391 . S
C687 H675 0.950 . S
C687 C683 1.393 . S
C687 C686 1.391 . S
H688 C696 0.950 . S
H689 C701 0.950 . S
H690 C698 0.950 . S
H691 C700 0.950 . S
H692 C702 0.950 . S
H693 C704 0.950 . S
H694 C706 0.950 . S
H695 C707 0.950 . S
C696 H688 0.950 . S
C696 C697 1.386 . S
C696 C698 1.391 . S
C697 C696 1.386 . S
C697 C701 1.393 . S
C698 H690 0.950 . S
C698 C696 1.391 . S
C698 C699 1.400 . S
C699 C698 1.400 . S
C699 C700 1.398 . S
C699 C705 1.491 . S
C700 H691 0.950 . S
C700 C699 1.398 . S
C700 C701 1.391 . S
C701 H689 0.950 . S
C701 C697 1.393 . S
C701 C700 1.391 . S
C702 H692 0.950 . S
C702 C703 1.386 . S
C702 C704 1.391 . S
C703 C702 1.386 . S
C703 C707 1.393 . S
C704 H693 0.950 . S
C704 C702 1.391 . S
C704 C705 1.400 . S
C705 C699 1.491 . S
C705 C704 1.400 . S
C705 C706 1.398 . S
C706 H694 0.950 . S
C706 C705 1.398 . S
C706 C707 1.391 . S
C707 H695 0.950 . S
C707 C703 1.393 . S
C707 C706 1.391 . S
H708 C716 0.950 . S
H709 C721 0.950 . S
H710 C718 0.950 . S
H711 C720 0.950 . S
H712 C722 0.950 . S
H713 C724 0.950 . S
H714 C726 0.950 . S
H715 C727 0.950 . S
C716 H708 0.950 . S
C716 C717 1.386 . S
C716 C718 1.391 . S
C717 C716 1.386 . S
C717 C721 1.393 . S
C718 H710 0.950 . S
C718 C716 1.391 . S
C718 C719 1.400 . S
C719 C718 1.400 . S
C719 C720 1.398 . S
C719 C725 1.491 . S
C720 H711 0.950 . S
C720 C719 1.398 . S
C720 C721 1.391 . S
C721 H709 0.950 . S
C721 C717 1.393 . S
C721 C720 1.391 . S
C722 H712 0.950 . S
C722 C723 1.386 . S
C722 C724 1.391 . S
C723 C722 1.386 . S
C723 C727 1.393 . S
C724 H713 0.950 . S
C724 C722 1.391 . S
C724 C725 1.400 . S
C725 C719 1.491 . S
C725 C724 1.400 . S
C725 C726 1.398 . S
C726 H714 0.950 . S
C726 C725 1.398 . S
C726 C727 1.391 . S
C727 H715 0.950 . S
C727 C723 1.393 . S
C727 C726 1.391 . S
H728 C736 0.950 . S
H729 C741 0.932 1_455 S
H730 C738 0.950 . S
H731 C740 0.950 1_455 S
H732 C742 0.950 . S
H733 C744 0.950 . S
H734 C746 0.950 . S
H735 C747 0.950 . S
C736 H728 0.950 . S
C736 C737 1.386 . S
C736 C738 1.391 . S
C737 C736 1.386 . S
C737 C741 1.393 . S
C738 H730 0.950 . S
C738 C736 1.391 . S
C738 C739 1.400 . S
C739 C738 1.400 . S
C739 C740 1.398 . S
C739 C745 1.491 . S
C740 H731 0.950 1_655 S
C740 C739 1.398 . S
C740 C741 1.391 . S
C741 H729 0.932 1_655 S
C741 C737 1.393 . S
C741 C740 1.391 . S
C742 H732 0.950 . S
C742 C743 1.386 . S
C742 C744 1.391 . S
C743 C742 1.386 . S
C743 C747 1.393 . S
C744 H733 0.950 . S
C744 C742 1.391 . S
C744 C745 1.400 . S
C745 C739 1.491 . S
C745 C744 1.400 . S
C745 C746 1.398 . S
C746 H734 0.950 . S
C746 C745 1.398 . S
C746 C747 1.391 . S
C747 H735 0.950 . S
C747 C743 1.393 . S
C747 C746 1.391 . S
H748 C756 0.950 . S
H749 C761 0.950 . S
H750 C758 0.950 . S
H751 C760 0.950 . S
H752 C762 0.950 . S
H753 C764 0.950 . S
H754 C766 0.950 . S
H755 C767 0.950 . S
C756 H748 0.950 . S
C756 C757 1.386 . S
C756 C758 1.391 . S
C757 C756 1.386 . S
C757 C761 1.393 . S
C758 H750 0.950 . S
C758 C756 1.391 . S
C758 C759 1.400 . S
C759 C758 1.400 . S
C759 C760 1.398 . S
C759 C765 1.491 . S
C760 H751 0.950 . S
C760 C759 1.398 . S
C760 C761 1.391 . S
C761 H749 0.950 . S
C761 C757 1.393 . S
C761 C760 1.391 . S
C762 H752 0.950 . S
C762 C763 1.386 . S
C762 C764 1.391 . S
C763 C762 1.386 . S
C763 C767 1.393 . S
C764 H753 0.950 . S
C764 C762 1.391 . S
C764 C765 1.400 . S
C765 C759 1.491 . S
C765 C764 1.400 . S
C765 C766 1.398 . S
C766 H754 0.950 . S
C766 C765 1.398 . S
C766 C767 1.391 . S
C767 H755 0.950 . S
C767 C763 1.393 . S
C767 C766 1.391 . S
H768 C776 0.950 . S
H769 C781 0.950 . S
H770 C778 0.950 . S
H771 C780 0.950 . S
H772 C782 0.950 . S
H773 C784 0.950 . S
H774 C786 0.950 . S
H775 C787 0.950 . S
C776 H768 0.950 . S
C776 C777 1.386 . S
C776 C778 1.391 . S
C777 C776 1.386 . S
C777 C781 1.393 . S
C778 H770 0.950 . S
C778 C776 1.391 . S
C778 C779 1.400 . S
C779 C778 1.400 . S
C779 C780 1.398 . S
C779 C785 1.491 . S
C780 H771 0.950 . S
C780 C779 1.398 . S
C780 C781 1.391 . S
C781 H769 0.950 . S
C781 C777 1.393 . S
C781 C780 1.391 . S
C782 H772 0.950 . S
C782 C783 1.386 . S
C782 C784 1.391 . S
C783 C782 1.386 . S
C783 C787 1.393 . S
C784 H773 0.950 . S
C784 C782 1.391 . S
C784 C785 1.400 . S
C785 C779 1.491 . S
C785 C784 1.400 . S
C785 C786 1.398 . S
C786 H774 0.950 . S
C786 C785 1.398 . S
C786 C787 1.391 . S
C787 H775 0.950 . S
C787 C783 1.393 . S
C787 C786 1.391 . S
H788 C796 0.950 . S
H789 C801 0.950 . S
H790 C798 0.950 . S
H791 C800 0.950 . S
H792 C802 0.950 . S
H793 C804 0.950 . S
H794 C806 0.950 . S
H795 C807 0.950 . S
C796 H788 0.950 . S
C796 C797 1.386 . S
C796 C798 1.391 . S
C797 C796 1.386 . S
C797 C801 1.393 . S
C798 H790 0.950 . S
C798 C796 1.391 . S
C798 C799 1.400 . S
C799 C798 1.400 . S
C799 C800 1.398 . S
C799 C805 1.491 . S
C800 H791 0.950 . S
C800 C799 1.398 . S
C800 C801 1.391 . S
C801 H789 0.950 . S
C801 C797 1.393 . S
C801 C800 1.391 . S
C802 H792 0.950 . S
C802 C803 1.386 . S
C802 C804 1.391 . S
C803 C802 1.386 . S
C803 C807 1.393 . S
C804 H793 0.950 . S
C804 C802 1.391 . S
C804 C805 1.400 . S
C805 C799 1.491 . S
C805 C804 1.400 . S
C805 C806 1.398 . S
C806 H794 0.950 . S
C806 C805 1.398 . S
C806 C807 1.391 . S
C807 H795 0.950 . S
C807 C803 1.393 . S
C807 C806 1.391 . S
H808 C816 0.950 . S
H809 C821 0.950 . S
H810 C818 0.950 . S
H811 C820 0.950 . S
H812 C822 0.950 . S
H813 C824 0.950 . S
H814 C826 0.950 . S
H815 C827 0.950 . S
C816 H808 0.950 . S
C816 C817 1.386 . S
C816 C818 1.391 . S
C817 C816 1.386 . S
C817 C821 1.393 . S
C818 H810 0.950 . S
C818 C816 1.391 . S
C818 C819 1.400 . S
C819 C818 1.400 . S
C819 C820 1.398 . S
C819 C825 1.491 . S
C820 H811 0.950 . S
C820 C819 1.398 . S
C820 C821 1.391 . S
C821 H809 0.950 . S
C821 C817 1.393 . S
C821 C820 1.391 . S
C822 H812 0.950 . S
C822 C823 1.386 . S
C822 C824 1.391 . S
C823 C822 1.386 . S
C823 C827 1.393 . S
C824 H813 0.950 . S
C824 C822 1.391 . S
C824 C825 1.400 . S
C825 C819 1.491 . S
C825 C824 1.400 . S
C825 C826 1.398 . S
C826 H814 0.950 . S
C826 C825 1.398 . S
C826 C827 1.391 . S
C827 H815 0.950 . S
C827 C823 1.393 . S
C827 C826 1.391 . S
H828 C836 0.950 . S
H829 C841 0.950 . S
H830 C838 0.950 . S
H831 C840 0.950 . S
H832 C842 0.950 . S
H833 C844 0.950 . S
H834 C846 0.950 . S
H835 C847 0.950 . S
C836 H828 0.950 . S
C836 C837 1.386 . S
C836 C838 1.391 . S
C837 C836 1.386 . S
C837 C841 1.393 . S
C838 H830 0.950 . S
C838 C836 1.391 . S
C838 C839 1.400 . S
C839 C838 1.400 . S
C839 C840 1.398 . S
C839 C845 1.491 . S
C840 H831 0.950 . S
C840 C839 1.398 . S
C840 C841 1.391 . S
C841 H829 0.950 . S
C841 C837 1.393 . S
C841 C840 1.391 . S
C842 H832 0.950 . S
C842 C843 1.386 . S
C842 C844 1.391 . S
C843 C842 1.386 . S
C843 C847 1.393 . S
C844 H833 0.950 . S
C844 C842 1.391 . S
C844 C845 1.400 . S
C845 C839 1.491 . S
C845 C844 1.400 . S
C845 C846 1.398 . S
C846 H834 0.950 . S
C846 C845 1.398 . S
C846 C847 1.391 . S
C847 H835 0.950 . S
C847 C843 1.393 . S
C847 C846 1.391 . S
H848 C856 0.950 . S
H849 C861 0.950 . S
H850 C858 0.950 . S
H851 C860 0.950 . S
H852 C862 0.950 . S
H853 C864 0.950 . S
H854 C866 0.950 . S
H855 C867 0.950 . S
C856 H848 0.950 . S
C856 C857 1.386 . S
C856 C858 1.391 . S
C857 C856 1.386 . S
C857 C861 1.393 . S
C858 H850 0.950 . S
C858 C856 1.391 . S
C858 C859 1.400 . S
C859 C858 1.400 . S
C859 C860 1.398 . S
C859 C865 1.491 . S
C860 H851 0.950 . S
C860 C859 1.398 . S
C860 C861 1.391 . S
C861 H849 0.950 . S
C861 C857 1.393 . S
C861 C860 1.391 . S
C862 H852 0.950 . S
C862 C863 1.386 . S
C862 C864 1.391 . S
C863 C862 1.386 . S
C863 C867 1.393 . S
C864 H853 0.950 . S
C864 C862 1.391 . S
C864 C865 1.400 . S
C865 C859 1.491 . S
C865 C864 1.400 . S
C865 C866 1.398 . S
C866 H854 0.950 . S
C866 C865 1.398 . S
C866 C867 1.391 . S
C867 H855 0.950 . S
C867 C863 1.393 . S
C867 C866 1.391 . S
H868 C876 0.950 . S
H869 C881 0.950 . S
H870 C878 0.950 . S
H871 C880 0.950 . S
H872 C882 0.950 . S
H873 C884 0.950 . S
H874 C886 0.950 . S
H875 C887 0.950 . S
C876 H868 0.950 . S
C876 C877 1.386 . S
C876 C878 1.391 . S
C877 C876 1.386 . S
C877 C881 1.393 . S
C878 H870 0.950 . S
C878 C876 1.391 . S
C878 C879 1.400 . S
C879 C878 1.400 . S
C879 C880 1.398 . S
C879 C885 1.491 . S
C880 H871 0.950 . S
C880 C879 1.398 . S
C880 C881 1.391 . S
C881 H869 0.950 . S
C881 C877 1.393 . S
C881 C880 1.391 . S
C882 H872 0.950 . S
C882 C883 1.386 . S
C882 C884 1.391 . S
C883 C882 1.386 . S
C883 C887 1.393 . S
C884 H873 0.950 . S
C884 C882 1.391 . S
C884 C885 1.400 . S
C885 C879 1.491 . S
C885 C884 1.400 . S
C885 C886 1.398 . S
C886 H874 0.950 . S
C886 C885 1.398 . S
C886 C887 1.391 . S
C887 H875 0.950 . S
C887 C883 1.393 . S
C887 C886 1.391 . S
H888 C896 0.950 . S
H889 C901 0.950 . S
H890 C898 0.950 . S
H891 C900 0.950 . S
H892 C902 0.950 . S
H893 C904 0.950 . S
H894 C906 0.950 . S
H895 C907 0.950 . S
C896 H888 0.950 . S
C896 C897 1.386 . S
C896 C898 1.391 . S
C897 C896 1.386 . S
C897 C901 1.393 . S
C898 H890 0.950 . S
C898 C896 1.391 . S
C898 C899 1.400 . S
C899 C898 1.400 . S
C899 C900 1.398 . S
C899 C905 1.491 . S
C900 H891 0.950 . S
C900 C899 1.398 . S
C900 C901 1.391 . S
C901 H889 0.950 . S
C901 C897 1.393 . S
C901 C900 1.391 . S
C902 H892 0.950 . S
C902 C903 1.386 . S
C902 C904 1.391 . S
C903 C902 1.386 . S
C903 C907 1.393 . S
C904 H893 0.950 . S
C904 C902 1.391 . S
C904 C905 1.400 . S
C905 C899 1.491 . S
C905 C904 1.400 . S
C905 C906 1.398 . S
C906 H894 0.950 . S
C906 C905 1.398 . S
C906 C907 1.391 . S
C907 H895 0.950 . S
C907 C903 1.393 . S
C907 C906 1.391 . S
H908 C916 0.950 . S
H909 C921 0.950 . S
H910 C918 0.950 . S
H911 C920 0.950 . S
H912 C922 0.950 . S
H913 C924 0.950 . S
H914 C926 0.950 . S
H915 C927 0.950 . S
C916 H908 0.950 . S
C916 C917 1.386 . S
C916 C918 1.391 . S
C917 C916 1.386 . S
C917 C921 1.393 . S
C918 H910 0.950 . S
C918 C916 1.391 . S
C918 C919 1.400 . S
C919 C918 1.400 . S
C919 C920 1.398 . S
C919 C925 1.491 . S
C920 H911 0.950 . S
C920 C919 1.398 . S
C920 C921 1.391 . S
C921 H909 0.950 . S
C921 C917 1.393 . S
C921 C920 1.391 . S
C922 H912 0.950 . S
C922 C923 1.386 . S
C922 C924 1.391 . S
C923 C922 1.386 . S
C923 C927 1.393 . S
C924 H913 0.950 . S
C924 C922 1.391 . S
C924 C925 1.400 . S
C925 C919 1.491 . S
C925 C924 1.400 . S
C925 C926 1.398 . S
C926 H914 0.950 . S
C926 C925 1.398 . S
C926 C927 1.391 . S
C927 H915 0.950 . S
C927 C923 1.393 . S
C927 C926 1.391 . S
H928 C936 0.950 . S
H929 C941 0.950 . S
H930 C938 0.950 . S
H931 C940 0.950 . S
H932 C942 0.950 . S
H933 C944 0.950 . S
H934 C946 0.950 . S
H935 C947 0.950 . S
C936 H928 0.950 . S
C936 C937 1.386 . S
C936 C938 1.391 . S
C937 C936 1.386 . S
C937 C941 1.393 . S
C938 H930 0.950 . S
C938 C936 1.391 . S
C938 C939 1.400 . S
C939 C938 1.400 . S
C939 C940 1.398 . S
C939 C945 1.491 . S
C940 H931 0.950 . S
C940 C939 1.398 . S
C940 C941 1.391 . S
C941 H929 0.950 . S
C941 C937 1.393 . S
C941 C940 1.391 . S
C942 H932 0.950 . S
C942 C943 1.386 . S
C942 C944 1.391 . S
C943 C942 1.386 . S
C943 C947 1.393 . S
C944 H933 0.950 . S
C944 C942 1.391 . S
C944 C945 1.400 . S
C945 C939 1.491 . S
C945 C944 1.400 . S
C945 C946 1.398 . S
C946 H934 0.950 . S
C946 C945 1.398 . S
C946 C947 1.391 . S
C947 H935 0.950 . S
C947 C943 1.393 . S
C947 C946 1.391 . S
H948 C956 0.950 . S
H949 C961 0.969 . S
H950 C958 0.950 . S
H951 C960 0.990 . S
H952 C962 0.950 . S
H953 C964 0.950 . S
H954 C966 0.950 . S
H955 C967 0.944 1_556 S
C956 H948 0.950 . S
C956 C957 1.386 . S
C956 C958 1.391 . S
C957 C956 1.386 . S
C957 C961 1.393 . S
C958 H950 0.950 . S
C958 C956 1.391 . S
C958 C959 1.400 . S
C959 C958 1.400 . S
C959 C960 1.380 1_556 S
C959 C965 1.482 1_556 S
C960 H951 0.990 . S
C960 C959 1.380 1_554 S
C960 C961 1.373 1_554 S
C961 H949 0.969 . S
C961 C957 1.393 . S
C961 C960 1.373 1_556 S
C962 H952 0.950 . S
C962 C963 1.386 . S
C962 C964 1.391 . S
C963 C962 1.386 . S
C963 C967 1.405 . S
C964 H953 0.950 . S
C964 C962 1.391 . S
C964 C965 1.419 . S
C965 C959 1.482 1_554 S
C965 C964 1.419 . S
C965 C966 1.389 1_554 S
C966 H954 0.950 . S
C966 C965 1.389 1_556 S
C966 C967 1.385 1_556 S
C967 H955 0.944 1_554 S
C967 C963 1.405 . S
C967 C966 1.385 1_554 S
H968 C976 0.950 . S
H969 C981 0.950 . S
H970 C978 0.950 . S
H971 C980 0.950 . S
H972 C982 0.950 . S
H973 C984 0.950 . S
H974 C986 0.950 . S
H975 C987 0.950 . S
C976 H968 0.950 . S
C976 C977 1.386 . S
C976 C978 1.391 . S
C977 C976 1.386 . S
C977 C981 1.393 . S
C978 H970 0.950 . S
C978 C976 1.391 . S
C978 C979 1.400 . S
C979 C978 1.400 . S
C979 C980 1.398 . S
C979 C985 1.491 . S
C980 H971 0.950 . S
C980 C979 1.398 . S
C980 C981 1.391 . S
C981 H969 0.950 . S
C981 C977 1.393 . S
C981 C980 1.391 . S
C982 H972 0.950 . S
C982 C983 1.386 . S
C982 C984 1.391 . S
C983 C982 1.386 . S
C983 C987 1.393 . S
C984 H973 0.950 . S
C984 C982 1.391 . S
C984 C985 1.400 . S
C985 C979 1.491 . S
C985 C984 1.400 . S
C985 C986 1.398 . S
C986 H974 0.950 . S
C986 C985 1.398 . S
C986 C987 1.391 . S
C987 H975 0.950 . S
C987 C983 1.393 . S
C987 C986 1.391 . S
H988 C996 0.950 . S
H989 C1001 0.950 . S
H990 C998 0.950 . S
H991 C1000 0.950 . S
H992 C1002 0.950 1_565 S
H993 C1004 0.950 . S
H994 C1006 0.950 . S
H995 C1007 0.950 . S
C996 H988 0.950 . S
C996 C997 1.386 . S
C996 C998 1.391 . S
C997 C996 1.386 . S
C997 C1001 1.393 . S
C998 H990 0.950 . S
C998 C996 1.391 . S
C998 C999 1.400 . S
C999 C998 1.400 . S
C999 C1000 1.398 . S
C999 C1005 1.491 . S
C1000 H991 0.950 . S
C1000 C999 1.398 . S
C1000 C1001 1.391 . S
C1001 H989 0.950 . S
C1001 C997 1.393 . S
C1001 C1000 1.391 . S
C1002 H992 0.950 1_545 S
C1002 C1003 1.386 . S
C1002 C1004 1.391 . S
C1003 C1002 1.386 . S
C1003 C1007 1.393 . S
C1004 H993 0.950 . S
C1004 C1002 1.391 . S
C1004 C1005 1.400 . S
C1005 C999 1.491 . S
C1005 C1004 1.400 . S
C1005 C1006 1.398 . S
C1006 H994 0.950 . S
C1006 C1005 1.398 . S
C1006 C1007 1.391 . S
C1007 H995 0.950 . S
C1007 C1003 1.393 . S
C1007 C1006 1.391 . S
H1008 C1016 0.950 . S
H1009 C1021 0.950 . S
H1010 C1018 0.950 . S
H1011 C1020 0.950 . S
H1012 C1022 0.950 . S
H1013 C1024 0.950 . S
H1014 C1026 0.950 . S
H1015 C1027 0.950 . S
C1016 H1008 0.950 . S
C1016 C1017 1.386 . S
C1016 C1018 1.391 . S
C1017 C1016 1.386 . S
C1017 C1021 1.393 . S
C1018 H1010 0.950 . S
C1018 C1016 1.391 . S
C1018 C1019 1.400 . S
C1019 C1018 1.400 . S
C1019 C1020 1.398 . S
C1019 C1025 1.491 . S
C1020 H1011 0.950 . S
C1020 C1019 1.398 . S
C1020 C1021 1.391 . S
C1021 H1009 0.950 . S
C1021 C1017 1.393 . S
C1021 C1020 1.391 . S
C1022 H1012 0.950 . S
C1022 C1023 1.386 . S
C1022 C1024 1.391 . S
C1023 C1022 1.386 . S
C1023 C1027 1.393 . S
C1024 H1013 0.950 . S
C1024 C1022 1.391 . S
C1024 C1025 1.400 . S
C1025 C1019 1.491 . S
C1025 C1024 1.400 . S
C1025 C1026 1.398 . S
C1026 H1014 0.950 . S
C1026 C1025 1.398 . S
C1026 C1027 1.391 . S
C1027 H1015 0.950 . S
C1027 C1023 1.393 . S
C1027 C1026 1.391 . S
H1028 C1036 0.950 . S
H1029 C1041 0.950 . S
H1030 C1038 0.950 . S
H1031 C1040 0.950 . S
H1032 C1042 0.950 . S
H1033 C1044 0.950 . S
H1034 C1046 0.950 . S
H1035 C1047 0.950 . S
C1036 H1028 0.950 . S
C1036 C1037 1.386 . S
C1036 C1038 1.391 . S
C1037 C1036 1.386 . S
C1037 C1041 1.393 . S
C1038 H1030 0.950 . S
C1038 C1036 1.391 . S
C1038 C1039 1.400 . S
C1039 C1038 1.400 . S
C1039 C1040 1.398 . S
C1039 C1045 1.491 . S
C1040 H1031 0.950 . S
C1040 C1039 1.398 . S
C1040 C1041 1.391 . S
C1041 H1029 0.950 . S
C1041 C1037 1.393 . S
C1041 C1040 1.391 . S
C1042 H1032 0.950 . S
C1042 C1043 1.386 . S
C1042 C1044 1.391 . S
C1043 C1042 1.386 . S
C1043 C1047 1.393 . S
C1044 H1033 0.950 . S
C1044 C1042 1.391 . S
C1044 C1045 1.400 . S
C1045 C1039 1.491 . S
C1045 C1044 1.400 . S
C1045 C1046 1.398 . S
C1046 H1034 0.950 . S
C1046 C1045 1.398 . S
C1046 C1047 1.391 . S
C1047 H1035 0.950 . S
C1047 C1043 1.393 . S
C1047 C1046 1.391 . S
H1048 C1056 0.950 . S
H1049 C1061 0.950 . S
H1050 C1058 0.950 . S
H1051 C1060 0.950 . S
H1052 C1062 0.950 1_545 S
H1053 C1064 0.950 . S
H1054 C1066 0.950 . S
H1055 C1067 0.950 . S
C1056 H1048 0.950 . S
C1056 C1057 1.386 . S
C1056 C1058 1.391 . S
C1057 C1056 1.386 . S
C1057 C1061 1.393 . S
C1058 H1050 0.950 . S
C1058 C1056 1.391 . S
C1058 C1059 1.400 . S
C1059 C1058 1.400 . S
C1059 C1060 1.398 . S
C1059 C1065 1.491 . S
C1060 H1051 0.950 . S
C1060 C1059 1.398 . S
C1060 C1061 1.391 . S
C1061 H1049 0.950 . S
C1061 C1057 1.393 . S
C1061 C1060 1.391 . S
C1062 H1052 0.950 1_565 S
C1062 C1063 1.386 . S
C1062 C1064 1.391 . S
C1063 C1062 1.386 . S
C1063 C1067 1.393 . S
C1064 H1053 0.950 . S
C1064 C1062 1.391 . S
C1064 C1065 1.400 . S
C1065 C1059 1.491 . S
C1065 C1064 1.400 . S
C1065 C1066 1.398 . S
C1066 H1054 0.950 . S
C1066 C1065 1.398 . S
C1066 C1067 1.391 . S
C1067 H1055 0.950 . S
C1067 C1063 1.393 . S
C1067 C1066 1.391 . S
H1068 C1076 0.950 . S
H1069 C1081 0.950 . S
H1070 C1078 0.950 . S
H1071 C1080 0.950 . S
H1072 C1082 0.950 . S
H1073 C1084 0.950 . S
H1074 C1086 0.950 . S
H1075 C1087 0.950 . S
C1076 H1068 0.950 . S
C1076 C1077 1.386 . S
C1076 C1078 1.391 . S
C1077 C1076 1.386 . S
C1077 C1081 1.393 . S
C1078 H1070 0.950 . S
C1078 C1076 1.391 . S
C1078 C1079 1.400 . S
C1079 C1078 1.400 . S
C1079 C1080 1.398 . S
C1079 C1085 1.491 . S
C1080 H1071 0.950 . S
C1080 C1079 1.398 . S
C1080 C1081 1.391 . S
C1081 H1069 0.950 . S
C1081 C1077 1.393 . S
C1081 C1080 1.391 . S
C1082 H1072 0.950 . S
C1082 C1083 1.386 . S
C1082 C1084 1.391 . S
C1083 C1082 1.386 . S
C1083 C1087 1.393 . S
C1084 H1073 0.950 . S
C1084 C1082 1.391 . S
C1084 C1085 1.400 . S
C1085 C1079 1.491 . S
C1085 C1084 1.400 . S
C1085 C1086 1.398 . S
C1086 H1074 0.950 . S
C1086 C1085 1.398 . S
C1086 C1087 1.391 . S
C1087 H1075 0.950 . S
C1087 C1083 1.393 . S
C1087 C1086 1.391 . S
H1088 C1096 0.950 . S
H1089 C1101 0.950 1_654 S
H1090 C1098 0.950 . S
H1091 C1100 0.950 . S
H1092 C1102 0.950 . S
H1093 C1104 0.950 . S
H1094 C1106 0.950 . S
H1095 C1107 0.950 1_556 S
C1096 H1088 0.950 . S
C1096 C1097 1.386 . S
C1096 C1098 1.391 . S
C1097 C1096 1.386 . S
C1097 C1101 1.393 . S
C1098 H1090 0.950 . S
C1098 C1096 1.391 . S
C1098 C1099 1.400 . S
C1099 C1098 1.400 . S
C1099 C1100 1.398 1_556 S
C1099 C1105 1.491 1_556 S
C1100 H1091 0.950 . S
C1100 C1099 1.398 1_554 S
C1100 C1101 1.391 1_554 S
C1101 H1089 0.950 1_456 S
C1101 C1097 1.393 . S
C1101 C1100 1.391 1_556 S
C1102 H1092 0.950 . S
C1102 C1103 1.386 . S
C1102 C1104 1.391 . S
C1103 C1102 1.386 . S
C1103 C1107 1.393 . S
C1104 H1093 0.950 . S
C1104 C1102 1.391 . S
C1104 C1105 1.400 . S
C1105 C1099 1.491 1_554 S
C1105 C1104 1.400 . S
C1105 C1106 1.398 1_554 S
C1106 H1094 0.950 . S
C1106 C1105 1.398 1_556 S
C1106 C1107 1.391 1_556 S
C1107 H1095 0.950 1_554 S
C1107 C1103 1.393 . S
C1107 C1106 1.391 1_554 S
H1108 C1116 0.950 . S
H1109 C1121 0.950 . S
H1110 C1118 0.950 . S
H1111 C1120 0.950 . S
H1112 C1122 0.950 . S
H1113 C1124 0.950 . S
H1114 C1126 0.950 . S
H1115 C1127 0.950 . S
C1116 H1108 0.950 . S
C1116 C1117 1.386 . S
C1116 C1118 1.391 . S
C1117 C1116 1.386 . S
C1117 C1121 1.393 . S
C1118 H1110 0.950 . S
C1118 C1116 1.391 . S
C1118 C1119 1.400 . S
C1119 C1118 1.400 . S
C1119 C1120 1.398 . S
C1119 C1125 1.491 . S
C1120 H1111 0.950 . S
C1120 C1119 1.398 . S
C1120 C1121 1.391 . S
C1121 H1109 0.950 . S
C1121 C1117 1.393 . S
C1121 C1120 1.391 . S
C1122 H1112 0.950 . S
C1122 C1123 1.386 . S
C1122 C1124 1.391 . S
C1123 C1122 1.386 . S
C1123 C1127 1.393 . S
C1124 H1113 0.950 . S
C1124 C1122 1.391 . S
C1124 C1125 1.400 . S
C1125 C1119 1.491 . S
C1125 C1124 1.400 . S
C1125 C1126 1.398 . S
C1126 H1114 0.950 . S
C1126 C1125 1.398 . S
C1126 C1127 1.391 . S
C1127 H1115 0.950 . S
C1127 C1123 1.393 . S
C1127 C1126 1.391 . S
H1128 C1136 0.950 . S
H1129 C1141 0.950 . S
H1130 C1138 0.950 . S
H1131 C1140 0.950 . S
H1132 C1142 0.950 . S
H1133 C1144 0.950 . S
H1134 C1146 0.950 . S
H1135 C1147 0.950 . S
C1136 H1128 0.950 . S
C1136 C1137 1.386 . S
C1136 C1138 1.391 . S
C1137 C1136 1.386 . S
C1137 C1141 1.393 . S
C1138 H1130 0.950 . S
C1138 C1136 1.391 . S
C1138 C1139 1.400 . S
C1139 C1138 1.400 . S
C1139 C1140 1.398 . S
C1139 C1145 1.491 . S
C1140 H1131 0.950 . S
C1140 C1139 1.398 . S
C1140 C1141 1.391 . S
C1141 H1129 0.950 . S
C1141 C1137 1.393 . S
C1141 C1140 1.391 . S
C1142 H1132 0.950 . S
C1142 C1143 1.386 . S
C1142 C1144 1.391 . S
C1143 C1142 1.386 . S
C1143 C1147 1.393 . S
C1144 H1133 0.950 . S
C1144 C1142 1.391 . S
C1144 C1145 1.400 . S
C1145 C1139 1.491 . S
C1145 C1144 1.400 . S
C1145 C1146 1.398 . S
C1146 H1134 0.950 . S
C1146 C1145 1.398 . S
C1146 C1147 1.391 . S
C1147 H1135 0.950 . S
C1147 C1143 1.393 . S
C1147 C1146 1.391 . S
H1148 C1156 0.950 1_455 S
H1149 C1161 0.950 . S
H1150 C1158 0.950 . S
H1151 C1160 0.950 . S
H1152 C1162 0.950 . S
H1153 C1164 0.950 . S
H1154 C1166 0.950 . S
H1155 C1167 0.950 . S
C1156 H1148 0.950 1_655 S
C1156 C1157 1.386 . S
C1156 C1158 1.391 . S
C1157 C1156 1.386 . S
C1157 C1161 1.393 . S
C1158 H1150 0.950 . S
C1158 C1156 1.391 . S
C1158 C1159 1.400 . S
C1159 C1158 1.400 . S
C1159 C1160 1.398 . S
C1159 C1165 1.491 . S
C1160 H1151 0.950 . S
C1160 C1159 1.398 . S
C1160 C1161 1.391 . S
C1161 H1149 0.950 . S
C1161 C1157 1.393 . S
C1161 C1160 1.391 . S
C1162 H1152 0.950 . S
C1162 C1163 1.386 . S
C1162 C1164 1.391 . S
C1163 C1162 1.386 . S
C1163 C1167 1.393 . S
C1164 H1153 0.950 . S
C1164 C1162 1.391 . S
C1164 C1165 1.400 . S
C1165 C1159 1.491 . S
C1165 C1164 1.400 . S
C1165 C1166 1.398 . S
C1166 H1154 0.950 . S
C1166 C1165 1.398 . S
C1166 C1167 1.391 . S
C1167 H1155 0.950 . S
C1167 C1163 1.393 . S
C1167 C1166 1.391 . S
H1168 C1176 0.950 . S
H1169 C1181 0.950 . S
H1170 C1178 0.950 . S
H1171 C1180 0.950 . S
H1172 C1182 0.950 . S
H1173 C1184 0.950 . S
H1174 C1186 0.950 . S
H1175 C1187 0.950 . S
C1176 H1168 0.950 . S
C1176 C1177 1.386 . S
C1176 C1178 1.391 . S
C1177 C1176 1.386 . S
C1177 C1181 1.393 . S
C1178 H1170 0.950 . S
C1178 C1176 1.391 . S
C1178 C1179 1.400 . S
C1179 C1178 1.400 . S
C1179 C1180 1.398 . S
C1179 C1185 1.491 . S
C1180 H1171 0.950 . S
C1180 C1179 1.398 . S
C1180 C1181 1.391 . S
C1181 H1169 0.950 . S
C1181 C1177 1.393 . S
C1181 C1180 1.391 . S
C1182 H1172 0.950 . S
C1182 C1183 1.386 . S
C1182 C1184 1.391 . S
C1183 C1182 1.386 . S
C1183 C1187 1.393 . S
C1184 H1173 0.950 . S
C1184 C1182 1.391 . S
C1184 C1185 1.400 . S
C1185 C1179 1.491 . S
C1185 C1184 1.400 . S
C1185 C1186 1.398 . S
C1186 H1174 0.950 . S
C1186 C1185 1.398 . S
C1186 C1187 1.391 . S
C1187 H1175 0.950 . S
C1187 C1183 1.393 . S
C1187 C1186 1.391 . S
C357 C21 1.493 . S
C363 C253 1.493 . S
C377 C50 1.464 . S
C383 C282 1.464 . S
C397 C311 1.487 . S
C403 C79 1.488 . S
C417 C108 1.455 . S
C423 C340 1.455 . S
C437 C137 1.491 . S
C443 C195 1.492 . S
C457 C166 1.458 . S
C463 C224 1.458 . S
C477 C148 0.441 . S
C483 C15 0.520 . S
C497 C44 0.513 . S
C503 C3 0.440 . S
C517 C73 0.520 . S
C523 C32 0.430 . S
C537 C61 0.424 . S
C543 C102 0.515 . S
C557 C90 0.436 . S
C563 C131 0.518 . S
C577 C119 0.445 . S
C583 C160 0.451 . S
C597 C189 0.497 . S
C603 C206 0.423 . S
C617 C235 0.423 . S
C623 C218 0.503 1_554 S
C637 C264 0.424 . S
C643 C247 0.515 . S
C657 C293 0.453 . S
C663 C276 0.474 . S
C677 C322 0.447 . S
C683 C305 0.499 . S
C697 C334 0.510 . S
C703 C177 0.442 . S
C717 C8 0.564 . S
C723 C182 0.539 . S
C737 C37 0.571 . S
C743 C211 0.529 . S
C757 C240 0.530 . S
C763 C66 0.570 . S
C777 C269 0.543 . S
C783 C95 0.560 . S
C797 C124 0.574 . S
C803 C298 0.525 . S
C817 C153 0.508 . S
C823 C327 0.566 . S
C837 C245 1.644 . S
C843 C13 1.631 . S
C857 C274 1.631 . S
C863 C42 1.645 . S
C877 C303 1.652 . S
C883 C71 1.653 . S
C897 C100 1.634 . S
C903 C332 1.653 . S
C917 C187 1.647 . S
C923 C129 1.656 . S
C937 C216 1.656 . S
C943 C158 1.642 . S
C957 C208 3.143 . S
C963 C10 3.273 . S
C977 C237 3.158 . S
C983 C39 3.275 1_455 S
C997 C266 3.148 . S
C1003 C68 3.275 1_545 S
C1017 C295 3.155 . S
C1023 C97 3.274 . S
C1037 C324 3.152 . S
C1043 C126 3.275 1_655 S
C1057 C179 3.146 . S
C1063 C155 3.274 1_565 S
C1077 C184 3.274 . S
C1083 C150 3.154 . S
C1097 C213 3.274 1_455 S
C1103 C5 3.147 . S
C1117 C34 3.143 . S
C1123 C242 3.273 1_545 S
C1137 C63 3.155 . S
C1143 C271 3.274 . S
C1157 C300 3.274 1_655 S
C1163 C92 3.157 . S
C1177 C121 3.143 . S
C1183 C329 3.273 1_565 S
