# Generated by pormake.
# Topology ths, (3)-cn, num edge types: 1
# Building blocks:
#     Node 0, Type 0, BuildingBlock: OLANEW_clean_sbu_2, # of connection points: 3
#     Node 1, Type 0, BuildingBlock: OLANEW_clean_sbu_2, # of connection points: 3
#     Node 2, Type 0, BuildingBlock: OLANEW_clean_sbu_2, # of connection points: 3
#     Node 3, Type 0, BuildingBlock: OLANEW_clean_sbu_2, # of connection points: 3
#     Node 4, Type 0, BuildingBlock: OLANEW_clean_sbu_2, # of connection points: 3
#     Node 5, Type 0, BuildingBlock: OLANEW_clean_sbu_2, # of connection points: 3
#     Node 6, Type 0, BuildingBlock: OLANEW_clean_sbu_2, # of connection points: 3
#     Node 7, Type 0, BuildingBlock: OLANEW_clean_sbu_2, # of connection points: 3
#     Edge 8, Type (0, 0), BuildingBlock: XIVTED_clean_linker_0, # of connection points: 2
#     Edge 9, Type (0, 0), BuildingBlock: XIVTED_clean_linker_0, # of connection points: 2
#     Edge 10, Type (0, 0), BuildingBlock: XIVTED_clean_linker_0, # of connection points: 2
#     Edge 11, Type (0, 0), BuildingBlock: XIVTED_clean_linker_0, # of connection points: 2
#     Edge 12, Type (0, 0), BuildingBlock: XIVTED_clean_linker_0, # of connection points: 2
#     Edge 13, Type (0, 0), BuildingBlock: XIVTED_clean_linker_0, # of connection points: 2
#     Edge 14, Type (0, 0), BuildingBlock: XIVTED_clean_linker_0, # of connection points: 2
#     Edge 15, Type (0, 0), BuildingBlock: XIVTED_clean_linker_0, # of connection points: 2
#     Edge 16, Type (0, 0), BuildingBlock: XIVTED_clean_linker_0, # of connection points: 2
#     Edge 17, Type (0, 0), BuildingBlock: XIVTED_clean_linker_0, # of connection points: 2
#     Edge 18, Type (0, 0), BuildingBlock: XIVTED_clean_linker_0, # of connection points: 2
#     Edge 19, Type (0, 0), BuildingBlock: XIVTED_clean_linker_0, # of connection points: 2
# Relax obj value: 0.000
# Max RMSD: 0.056
# Mean RMSD: 0.050
data_MOF--net-ths--node1-OLANEW_clean_sbu_2--edge1-XIVTED_clean_linker_0
_symmetry_space_group_name_H-M    P1
_symmetry_Int_Tables_number       1
_symmetry_cell_setting            triclinic
loop_
_symmetry_equiv_pos_as_xyz
'x, y, z'
_cell_length_a     32.193777
_cell_length_b     32.532945
_cell_length_c     75.963076
_cell_angle_alpha  101.25546
_cell_angle_beta   89.737871
_cell_angle_gamma 90.730477
loop_
_atom_site_label
_atom_site_type_symbol
_atom_site_fract_x
_atom_site_fract_y
_atom_site_fract_z
_atom_type_partial_charge
O0 O 0.18395 0.84524 0.08867 0.0
Cd1 Cd 0.21344 0.87903 0.06524 0.0
O2 O 0.185 0.78597 0.06932 0.0
Cd3 Cd 0.18206 0.71826 0.05875 0.0
O4 O 0.17025 0.65262 0.04645 0.0
C5 C 0.16817 0.64212 0.02946 0.0
O6 O 0.17394 0.67097 0.01973 0.0
C7 C 0.17785 0.8058 0.08521 0.0
C8 C 0.1582 0.9212 0.04703 0.0
O9 O 0.16574 0.88223 0.04142 0.0
O10 O 0.1759 0.9399 0.06154 0.0
O11 O 0.6772 0.84869 0.33583 0.0
Cd12 Cd 0.69463 0.8798 0.30983 0.0
O13 O 0.6343 0.80562 0.31889 0.0
Cd14 Cd 0.5848 0.75839 0.31247 0.0
O15 O 0.53236 0.72161 0.29929 0.0
C16 C 0.49568 0.73522 0.30238 0.0
O17 O 0.49013 0.77028 0.31404 0.0
C18 C 0.65071 0.81889 0.33418 0.0
C19 C 0.76268 0.84308 0.29015 0.0
O20 O 0.76749 0.87469 0.30303 0.0
O21 O 0.72576 0.82858 0.28672 0.0
O22 O 0.4744 0.32349 0.60567 0.0
Cd23 Cd 0.42489 0.34634 0.58522 0.0
O24 O 0.50076 0.28023 0.58278 0.0
Cd25 Cd 0.54157 0.23166 0.5682 0.0
O26 O 0.57101 0.17543 0.5531 0.0
C27 C 0.56919 0.16734 0.53605 0.0
O28 O 0.55063 0.19388 0.52778 0.0
C29 C 0.49989 0.29461 0.59962 0.0
C30 C 0.45863 0.39612 0.56257 0.0
O31 O 0.44355 0.4126 0.57794 0.0
O32 O 0.4584 0.35604 0.55803 0.0
O33 O 0.19648 0.3705 0.85924 0.0
Cd34 Cd 0.231 0.41449 0.84075 0.0
O35 O 0.15494 0.34703 0.83673 0.0
Cd36 Cd 0.10569 0.30955 0.82116 0.0
O37 O 0.05564 0.27907 0.80385 0.0
C38 C 0.01798 0.28577 0.8085 0.0
O39 O 0.00978 0.31051 0.82394 0.0
C40 C 0.16575 0.34754 0.85288 0.0
C41 C 0.29214 0.37357 0.81791 0.0
O42 O 0.30111 0.39301 0.83382 0.0
O43 O 0.25413 0.37298 0.8129 0.0
O44 O 0.99294 0.1593 0.92958 0.0
Cd45 Cd 0.95021 0.12568 0.94961 0.0
O46 O 0.01508 0.20526 0.95277 0.0
Cd47 Cd 0.0461 0.26363 0.96561 0.0
O48 O 0.07148 0.32468 0.97842 0.0
C49 C 0.08227 0.35121 0.96895 0.0
O50 O 0.0785 0.34109 0.95142 0.0
C51 C 0.01495 0.19144 0.93591 0.0
C52 C 0.99544 0.08064 0.97057 0.0
O53 O 0.98182 0.06304 0.95506 0.0
O54 O 0.98809 0.11968 0.97608 0.0
O55 O 0.18228 0.60838 0.17923 0.0
Cd56 Cd 0.19347 0.56848 0.20291 0.0
O57 O 0.14128 0.64998 0.19747 0.0
Cd58 Cd 0.09596 0.69968 0.20567 0.0
O59 O 0.04359 0.73454 0.21939 0.0
C60 C 0.00788 0.7171 0.2178 0.0
O61 O 0.00374 0.67981 0.20752 0.0
C62 C 0.15878 0.64009 0.18221 0.0
C63 C 0.25921 0.60148 0.22533 0.0
O64 O 0.2653 0.57286 0.2114 0.0
O65 O 0.22203 0.61445 0.22866 0.0
O66 O 0.62089 0.65457 0.44291 0.0
Cd67 Cd 0.64227 0.63203 0.47044 0.0
O68 O 0.63308 0.71735 0.45844 0.0
Cd69 Cd 0.64389 0.78527 0.46498 0.0
O70 O 0.6442 0.85199 0.47703 0.0
C71 C 0.63366 0.87962 0.46822 0.0
O72 O 0.62351 0.86789 0.45123 0.0
C73 C 0.62314 0.69388 0.44356 0.0
C74 C 0.58879 0.58084 0.4859 0.0
O75 O 0.58675 0.62089 0.49021 0.0
O76 O 0.61493 0.56507 0.47373 0.0
O77 O 0.69293 0.14993 0.68422 0.0
Cd78 Cd 0.72525 0.1115 0.70515 0.0
O79 O 0.65269 0.18083 0.70598 0.0
Cd80 Cd 0.60018 0.21752 0.71865 0.0
O81 O 0.55091 0.2484 0.73608 0.0
C82 C 0.51289 0.24262 0.73176 0.0
O83 O 0.50329 0.21841 0.71633 0.0
C84 C 0.6635 0.17502 0.68956 0.0
C85 C 0.78892 0.15428 0.72622 0.0
O86 O 0.79662 0.1313 0.71086 0.0
O87 O 0.75098 0.15771 0.73145 0.0
H88 H 0.10606 0.41608 0.9528 0.0
H89 H 0.15193 0.57506 0.04552 0.0
H90 H 0.09316 0.38267 1.00485 0.0
H91 H 0.16112 0.60942 0.99353 0.0
H92 H 0.13313 0.50363 0.03081 0.0
H93 H 0.12906 0.48624 0.96742 0.0
C94 C 0.10817 0.42342 0.9673 0.0
C95 C 0.09752 0.39343 0.97761 0.0
C96 C 0.13935 0.52677 0.02262 0.0
C97 C 0.12382 0.47383 0.99446 0.0
C98 C 0.15013 0.56758 0.03101 0.0
C99 C 0.15802 0.59836 0.02075 0.0
C100 C 0.13642 0.51657 1.00382 0.0
C101 C 0.15523 0.58679 1.00199 0.0
C102 C 0.12129 0.46354 0.97565 0.0
C103 C 0.10094 0.40478 0.99636 0.0
N104 N 0.14459 0.54687 0.99414 0.0
N105 N 0.11369 0.44408 1.00418 0.0
H106 H 0.00648 0.79087 0.24257 0.0
H107 H 0.76304 0.77405 0.26297 0.0
H108 H 0.92718 0.68928 0.2165 0.0
H109 H 0.84408 0.86936 0.29269 0.0
H110 H 0.82242 0.74414 0.24503 0.0
H111 H 0.94688 0.82197 0.26013 0.0
C112 C 0.97653 0.77518 0.24047 0.0
C113 C 0.97187 0.73734 0.22805 0.0
C114 C 0.82726 0.77157 0.25548 0.0
C115 C 0.90352 0.77275 0.24814 0.0
C116 C 0.79333 0.78868 0.26574 0.0
C117 C 0.79856 0.82426 0.27938 0.0
C118 C 0.86678 0.79022 0.25881 0.0
C119 C 0.83859 0.84187 0.28234 0.0
C120 C 0.94253 0.7929 0.25055 0.0
C121 C 0.93229 0.71842 0.22594 0.0
N122 N 0.87113 0.82471 0.27213 0.0
N123 N 0.8997 0.7363 0.23588 0.0
H124 H 0.49682 0.37089 0.52999 0.0
H125 H 0.53503 0.60473 0.51401 0.0
H126 H 0.45821 0.48174 0.56718 0.0
H127 H 0.5866 0.49501 0.48016 0.0
H128 H 0.50037 0.55957 0.53189 0.0
H129 H 0.52441 0.41537 0.51009 0.0
C130 C 0.49411 0.40458 0.53398 0.0
C131 C 0.47538 0.42262 0.55034 0.0
C132 C 0.51908 0.54535 0.52049 0.0
C133 C 0.50673 0.47373 0.52755 0.0
C134 C 0.53876 0.57111 0.51022 0.0
C135 C 0.56402 0.55367 0.49562 0.0
C136 C 0.52463 0.50177 0.51614 0.0
C137 C 0.56761 0.50987 0.49134 0.0
C138 C 0.50985 0.42996 0.52259 0.0
C139 C 0.47261 0.46647 0.55475 0.0
N140 N 0.54834 0.48547 0.50161 0.0
N141 N 0.48815 0.4905 0.54344 0.0
H142 H 0.93414 0.29304 0.81443 0.0
H143 H 0.8726 0.15097 0.71945 0.0
H144 H 0.02389 0.23537 0.77517 0.0
H145 H 0.78285 0.2048 0.75949 0.0
H146 H 0.92838 0.18329 0.73934 0.0
H147 H 0.87829 0.26222 0.79425 0.0
C148 C 0.94214 0.27387 0.80158 0.0
C149 C 0.98382 0.26678 0.7965 0.0
C150 C 0.89649 0.18812 0.74377 0.0
C151 C 0.91992 0.23145 0.77328 0.0
C152 C 0.86458 0.16973 0.7324 0.0
C153 C 0.82294 0.17513 0.73782 0.0
C154 C 0.88675 0.21214 0.7607 0.0
C155 C 0.81448 0.19975 0.75476 0.0
C156 C 0.9102 0.25629 0.79004 0.0
C157 C 0.99224 0.24167 0.77966 0.0
N158 N 0.84609 0.21728 0.7656 0.0
N159 N 0.9606 0.22495 0.76866 0.0
H160 H 0.42864 0.23846 0.72649 0.0
H161 H 0.37587 0.37243 0.824 0.0
H162 H 0.52183 0.29053 0.76549 0.0
H163 H 0.28302 0.3286 0.78364 0.0
H164 H 0.42957 0.34049 0.80309 0.0
H165 H 0.37469 0.26949 0.74751 0.0
C166 C 0.43779 0.25645 0.73946 0.0
C167 C 0.47987 0.26189 0.74421 0.0
C168 C 0.39745 0.33781 0.7988 0.0
C169 C 0.4182 0.29741 0.76838 0.0
C170 C 0.36674 0.35599 0.81076 0.0
C171 C 0.32485 0.35325 0.80556 0.0
C172 C 0.38626 0.31663 0.78151 0.0
C173 C 0.31491 0.33154 0.78822 0.0
C174 C 0.40695 0.27417 0.75146 0.0
C175 C 0.48983 0.28554 0.76122 0.0
N176 N 0.34538 0.3141 0.77682 0.0
N177 N 0.45924 0.30235 0.77268 0.0
H178 H 0.34112 0.57912 0.22248 0.0
H179 H 0.41337 0.75542 0.30599 0.0
H180 H 0.25686 0.66434 0.25512 0.0
H181 H 0.49675 0.66573 0.27531 0.0
H182 H 0.35549 0.72157 0.28785 0.0
H183 H 0.39839 0.60975 0.24191 0.0
C184 C 0.33463 0.60423 0.23375 0.0
C185 C 0.29411 0.61924 0.23715 0.0
C186 C 0.38641 0.70917 0.28512 0.0
C187 C 0.3596 0.6545 0.25945 0.0
C188 C 0.41952 0.72848 0.29549 0.0
C189 C 0.46005 0.7135 0.29214 0.0
C190 C 0.39383 0.67467 0.27122 0.0
C191 C 0.46606 0.67841 0.27837 0.0
C192 C 0.36736 0.62168 0.24485 0.0
C193 C 0.28758 0.6518 0.25197 0.0
N194 N 0.43335 0.66032 0.26837 0.0
N195 N 0.31998 0.66839 0.26253 0.0
H196 H 0.60865 0.94652 0.45398 0.0
H197 H 0.60825 0.10493 0.54894 0.0
H198 H 0.65011 0.91389 0.5034 0.0
H199 H 0.56576 0.13788 0.49973 0.0
H200 H 0.62909 0.03662 0.53198 0.0
H201 H 0.59803 0.01844 0.46998 0.0
C202 C 0.61579 0.9545 0.46817 0.0
C203 C 0.62998 0.92398 0.47738 0.0
C204 C 0.61543 0.05886 0.52487 0.0
C205 C 0.61774 0.00629 0.49581 0.0
C206 C 0.60353 0.09793 0.53455 0.0
C207 C 0.58489 0.1271 0.52577 0.0
C208 C 0.60855 0.04874 0.50626 0.0
C209 C 0.57978 0.11631 0.50708 0.0
C210 C 0.60968 0.9956 0.4773 0.0
C211 C 0.63887 0.93626 0.49576 0.0
N212 N 0.59128 0.07791 0.49797 0.0
N213 N 0.63237 0.97635 0.50437 0.0
H214 H 0.13646 0.00391 0.05527 0.0
H215 H 0.0143 0.99715 0.96307 0.0
H216 H 0.11927 0.89151 0.01498 0.0
H217 H 0.02886 0.10892 1.00392 0.0
H218 H 0.05184 0.95773 0.98208 0.0
H219 H 0.09574 0.04254 0.03698 0.0
C220 C 0.12393 0.98727 0.04262 0.0
C221 C 0.1314 0.94439 0.03664 0.0
C222 C 0.0468 0.99087 0.9869 0.0
C223 C 0.08491 0.98856 0.01555 0.0
C224 C 0.02542 0.01343 0.97603 0.0
C225 C 0.01847 0.05645 0.98188 0.0
C226 C 0.06145 0.01143 1.00376 0.0
C227 C 0.03354 0.07583 0.99883 0.0
C228 C 0.10072 0.00939 0.03216 0.0
C229 C 0.11435 0.92453 0.02013 0.0
N230 N 0.05434 0.0532 1.00916 0.0
N231 N 0.09206 0.9468 1.01014 0.0
H232 H 0.15564 0.61131 0.14611 0.0
H233 H 0.18891 0.83347 0.12116 0.0
H234 H 0.14996 0.72502 0.18616 0.0
H235 H 0.13873 0.72878 0.08316 0.0
H236 H 0.17695 0.79448 0.14518 0.0
H237 H 0.1527 0.65305 0.1226 0.0
C238 C 0.15325 0.64507 0.14993 0.0
C239 C 0.15271 0.66478 0.16808 0.0
C240 C 0.16853 0.78008 0.13157 0.0
C241 C 0.15018 0.71271 0.14131 0.0
C242 C 0.17534 0.80229 0.11782 0.0
C243 C 0.16646 0.78372 0.09992 0.0
C244 C 0.15305 0.73884 0.12739 0.0
C245 C 0.14844 0.74344 0.0965 0.0
C246 C 0.15144 0.66883 0.13653 0.0
C247 C 0.14973 0.70859 0.17233 0.0
N248 N 0.14291 0.72208 0.11006 0.0
N249 N 0.14917 0.73118 0.15903 0.0
H250 H 0.63154 0.65223 0.40891 0.0
H251 H 0.64649 0.85934 0.36902 0.0
H252 H 0.60165 0.77383 0.44007 0.0
H253 H 0.63033 0.73728 0.33528 0.0
H254 H 0.63235 0.8286 0.3954 0.0
H255 H 0.63171 0.6821 0.38176 0.0
C256 C 0.62489 0.68521 0.41008 0.0
C257 C 0.61824 0.71093 0.42696 0.0
C258 C 0.63132 0.80861 0.38221 0.0
C259 C 0.61877 0.74534 0.39592 0.0
C260 C 0.63956 0.8261 0.36717 0.0
C261 C 0.63922 0.80084 0.34995 0.0
C262 C 0.6236 0.76534 0.38006 0.0
C263 C 0.63012 0.75797 0.34829 0.0
C264 C 0.62505 0.70222 0.39456 0.0
C265 C 0.60931 0.7533 0.42757 0.0
N266 N 0.62314 0.74144 0.36319 0.0
N267 N 0.61041 0.76932 0.41233 0.0
H268 H 0.53054 0.21497 0.59618 0.0
H269 H 0.62498 0.25156 0.6951 0.0
H270 H 0.52779 0.3347 0.63249 0.0
H271 H 0.65194 0.14359 0.65402 0.0
H272 H 0.58627 0.28155 0.67303 0.0
H273 H 0.57289 0.18749 0.61762 0.0
C274 C 0.53989 0.23592 0.60839 0.0
C275 C 0.52681 0.27769 0.61221 0.0
C276 C 0.60063 0.25128 0.66886 0.0
C277 C 0.57362 0.24568 0.63737 0.0
C278 C 0.62229 0.23392 0.68151 0.0
C279 C 0.64094 0.19463 0.67647 0.0
C280 C 0.59747 0.22905 0.65108 0.0
C281 C 0.63787 0.17391 0.65849 0.0
C282 C 0.56355 0.21997 0.62081 0.0
C283 C 0.53759 0.30242 0.6289 0.0
N284 N 0.61631 0.19121 0.64649 0.0
N285 N 0.5603 0.28605 0.64088 0.0
H286 H 0.09095 0.23072 0.94126 0.0
H287 H 0.08409 0.32063 0.85084 0.0
H288 H 0.99252 0.20076 0.90239 0.0
H289 H 0.19576 0.31978 0.88193 0.0
H290 H 0.04834 0.28048 0.87041 0.0
H291 H 0.12791 0.2682 0.92084 0.0
C292 C 0.07688 0.23252 0.92852 0.0
C293 C 0.03826 0.21339 0.92364 0.0
C294 C 0.08082 0.28861 0.87281 0.0
C295 C 0.08066 0.25543 0.90007 0.0
C296 C 0.10149 0.31102 0.86143 0.0
C297 C 0.14345 0.32242 0.86433 0.0
C298 C 0.10201 0.27818 0.88742 0.0
C299 C 0.16351 0.31133 0.87908 0.0
C300 C 0.09821 0.25346 0.91678 0.0
C301 C 0.02218 0.21528 0.90668 0.0
N302 N 0.14261 0.28991 0.89009 0.0
N303 N 0.04329 0.23621 0.89555 0.0
loop_
_geom_bond_atom_site_label_1
_geom_bond_atom_site_label_2
_geom_bond_distance
_geom_bond_site_symmetry_2
_ccdc_geom_bond_type
O0 Cd1 2.300 . S
O0 C7 1.275 . S
Cd1 O0 2.300 . S
Cd1 O9 2.381 . S
Cd1 O10 2.378 . S
O2 Cd3 2.385 . S
O2 C7 1.255 . S
Cd3 O2 2.385 . S
Cd3 O4 2.317 . S
O4 Cd3 2.317 . S
O4 C5 1.232 . S
C5 O4 1.232 . S
C5 O6 1.218 . S
O6 C5 1.218 . S
C7 O0 1.275 . S
C7 O2 1.255 . S
C8 O9 1.258 . S
C8 O10 1.256 . S
O9 Cd1 2.381 . S
O9 C8 1.258 . S
O10 Cd1 2.378 . S
O10 C8 1.256 . S
O11 Cd12 2.300 . S
O11 C18 1.275 . S
Cd12 O11 2.300 . S
Cd12 O20 2.381 . S
Cd12 O21 2.378 . S
O13 Cd14 2.385 . S
O13 C18 1.255 . S
Cd14 O13 2.385 . S
Cd14 O15 2.317 . S
O15 Cd14 2.317 . S
O15 C16 1.232 . S
C16 O15 1.232 . S
C16 O17 1.218 . S
O17 C16 1.218 . S
C18 O11 1.275 . S
C18 O13 1.255 . S
C19 O20 1.258 . S
C19 O21 1.256 . S
O20 Cd12 2.381 . S
O20 C19 1.258 . S
O21 Cd12 2.378 . S
O21 C19 1.256 . S
O22 Cd23 2.300 . S
O22 C29 1.275 . S
Cd23 O22 2.300 . S
Cd23 O31 2.381 . S
Cd23 O32 2.378 . S
O24 Cd25 2.385 . S
O24 C29 1.255 . S
Cd25 O24 2.385 . S
Cd25 O26 2.317 . S
O26 Cd25 2.317 . S
O26 C27 1.232 . S
C27 O26 1.232 . S
C27 O28 1.218 . S
O28 C27 1.218 . S
C29 O22 1.275 . S
C29 O24 1.255 . S
C30 O31 1.258 . S
C30 O32 1.256 . S
O31 Cd23 2.381 . S
O31 C30 1.258 . S
O32 Cd23 2.378 . S
O32 C30 1.256 . S
O33 Cd34 2.300 . S
O33 C40 1.275 . S
Cd34 O33 2.300 . S
Cd34 O42 2.381 . S
Cd34 O43 2.378 . S
O35 Cd36 2.385 . S
O35 C40 1.255 . S
Cd36 O35 2.385 . S
Cd36 O37 2.317 . S
O37 Cd36 2.317 . S
O37 C38 1.232 . S
C38 O37 1.232 . S
C38 O39 1.218 . S
O39 C38 1.218 . S
C40 O33 1.275 . S
C40 O35 1.255 . S
C41 O42 1.258 . S
C41 O43 1.256 . S
O42 Cd34 2.381 . S
O42 C41 1.258 . S
O43 Cd34 2.378 . S
O43 C41 1.256 . S
O44 Cd45 2.300 . S
O44 C51 1.275 . S
Cd45 O44 2.300 . S
Cd45 O53 2.381 . S
Cd45 O54 2.378 . S
O46 Cd47 2.385 . S
O46 C51 1.255 . S
Cd47 O46 2.385 . S
Cd47 O48 2.317 . S
O48 Cd47 2.317 . S
O48 C49 1.232 . S
C49 O48 1.232 . S
C49 O50 1.218 . S
O50 C49 1.218 . S
C51 O44 1.275 . S
C51 O46 1.255 . S
C52 O53 1.258 . S
C52 O54 1.256 . S
O53 Cd45 2.381 . S
O53 C52 1.258 . S
O54 Cd45 2.378 . S
O54 C52 1.256 . S
O55 Cd56 2.300 . S
O55 C62 1.275 . S
Cd56 O55 2.300 . S
Cd56 O64 2.381 . S
Cd56 O65 2.378 . S
O57 Cd58 2.385 . S
O57 C62 1.255 . S
Cd58 O57 2.385 . S
Cd58 O59 2.317 . S
O59 Cd58 2.317 . S
O59 C60 1.232 . S
C60 O59 1.232 . S
C60 O61 1.218 . S
O61 C60 1.218 . S
C62 O55 1.275 . S
C62 O57 1.255 . S
C63 O64 1.258 . S
C63 O65 1.256 . S
O64 Cd56 2.381 . S
O64 C63 1.258 . S
O65 Cd56 2.378 . S
O65 C63 1.256 . S
O66 Cd67 2.300 . S
O66 C73 1.275 . S
Cd67 O66 2.300 . S
Cd67 O75 2.381 . S
Cd67 O76 2.378 . S
O68 Cd69 2.385 . S
O68 C73 1.255 . S
Cd69 O68 2.385 . S
Cd69 O70 2.317 . S
O70 Cd69 2.317 . S
O70 C71 1.232 . S
C71 O70 1.232 . S
C71 O72 1.218 . S
O72 C71 1.218 . S
C73 O66 1.275 . S
C73 O68 1.255 . S
C74 O75 1.258 . S
C74 O76 1.256 . S
O75 Cd67 2.381 . S
O75 C74 1.258 . S
O76 Cd67 2.378 . S
O76 C74 1.256 . S
O77 Cd78 2.300 . S
O77 C84 1.275 . S
Cd78 O77 2.300 . S
Cd78 O86 2.381 . S
Cd78 O87 2.378 . S
O79 Cd80 2.385 . S
O79 C84 1.255 . S
Cd80 O79 2.385 . S
Cd80 O81 2.317 . S
O81 Cd80 2.317 . S
O81 C82 1.232 . S
C82 O81 1.232 . S
C82 O83 1.218 . S
O83 C82 1.218 . S
C84 O77 1.275 . S
C84 O79 1.255 . S
C85 O86 1.258 . S
C85 O87 1.256 . S
O86 Cd78 2.381 . S
O86 C85 1.258 . S
O87 Cd78 2.378 . S
O87 C85 1.256 . S
H88 C94 0.930 . S
H89 C98 0.930 . S
H90 C103 0.929 1_554 S
H91 C101 0.929 1_556 S
H92 C96 0.929 . S
H93 C102 0.929 . S
C94 H88 0.930 . S
C94 C95 1.367 . S
C94 C102 1.378 . S
C95 C94 1.367 . S
C95 C103 1.433 . S
C96 H92 0.929 . S
C96 C98 1.378 . S
C96 C100 1.350 . S
C97 C100 1.463 1_556 S
C97 C102 1.350 . S
C97 N105 1.427 1_556 S
C98 H89 0.930 . S
C98 C96 1.378 . S
C98 C99 1.367 . S
C99 C98 1.367 . S
C99 C101 1.433 . S
C100 C96 1.350 . S
C100 C97 1.463 1_554 S
C100 N104 1.427 1_554 S
C101 H91 0.929 1_554 S
C101 C99 1.433 . S
C101 N104 1.384 1_554 S
C102 H93 0.929 . S
C102 C94 1.378 . S
C102 C97 1.350 . S
C103 H90 0.929 1_556 S
C103 C95 1.433 . S
C103 N105 1.384 1_556 S
N104 C100 1.427 1_556 S
N104 C101 1.384 1_556 S
N105 C97 1.427 1_554 S
N105 C103 1.384 1_554 S
H106 C112 0.930 1_455 S
H107 C116 0.930 . S
H108 C121 0.929 . S
H109 C119 0.929 . S
H110 C114 0.929 . S
H111 C120 0.929 . S
C112 H106 0.930 1_655 S
C112 C113 1.367 1_655 S
C112 C120 1.378 . S
C113 C112 1.367 1_455 S
C113 C121 1.433 . S
C114 H110 0.929 . S
C114 C116 1.378 . S
C114 C118 1.350 . S
C115 C118 1.463 . S
C115 C120 1.350 . S
C115 N123 1.427 . S
C116 H107 0.930 . S
C116 C114 1.378 . S
C116 C117 1.367 . S
C117 C116 1.367 . S
C117 C119 1.433 . S
C118 C114 1.350 . S
C118 C115 1.463 . S
C118 N122 1.427 . S
C119 H109 0.929 . S
C119 C117 1.433 . S
C119 N122 1.384 . S
C120 H111 0.929 . S
C120 C112 1.378 . S
C120 C115 1.350 . S
C121 H108 0.929 . S
C121 C113 1.433 . S
C121 N123 1.384 1_455 S
N122 C118 1.427 . S
N122 C119 1.384 . S
N123 C115 1.427 . S
N123 C121 1.384 1_655 S
H124 C130 0.930 . S
H125 C134 0.930 . S
H126 C139 0.929 . S
H127 C137 0.929 . S
H128 C132 0.929 . S
H129 C138 0.929 . S
C130 H124 0.930 . S
C130 C131 1.367 . S
C130 C138 1.378 . S
C131 C130 1.367 . S
C131 C139 1.433 . S
C132 H128 0.929 . S
C132 C134 1.378 . S
C132 C136 1.350 . S
C133 C136 1.463 . S
C133 C138 1.350 . S
C133 N141 1.427 . S
C134 H125 0.930 . S
C134 C132 1.378 . S
C134 C135 1.367 . S
C135 C134 1.367 . S
C135 C137 1.433 . S
C136 C132 1.350 . S
C136 C133 1.463 . S
C136 N140 1.427 . S
C137 H127 0.929 . S
C137 C135 1.433 . S
C137 N140 1.384 . S
C138 H129 0.929 . S
C138 C130 1.378 . S
C138 C133 1.350 . S
C139 H126 0.929 . S
C139 C131 1.433 . S
C139 N141 1.384 . S
N140 C136 1.427 . S
N140 C137 1.384 . S
N141 C133 1.427 . S
N141 C139 1.384 . S
H142 C148 0.930 . S
H143 C152 0.930 . S
H144 C157 0.929 . S
H145 C155 0.929 . S
H146 C150 0.929 . S
H147 C156 0.929 . S
C148 H142 0.930 . S
C148 C149 1.367 1_655 S
C148 C156 1.378 . S
C149 C148 1.367 1_455 S
C149 C157 1.433 . S
C150 H146 0.929 . S
C150 C152 1.378 . S
C150 C154 1.350 . S
C151 C154 1.463 . S
C151 C156 1.350 . S
C151 N159 1.427 . S
C152 H143 0.930 . S
C152 C150 1.378 . S
C152 C153 1.367 . S
C153 C152 1.367 . S
C153 C155 1.433 . S
C154 C150 1.350 . S
C154 C151 1.463 . S
C154 N158 1.427 . S
C155 H145 0.929 . S
C155 C153 1.433 . S
C155 N158 1.384 . S
C156 H147 0.929 . S
C156 C148 1.378 . S
C156 C151 1.350 . S
C157 H144 0.929 . S
C157 C149 1.433 . S
C157 N159 1.384 1_455 S
N158 C154 1.427 . S
N158 C155 1.384 . S
N159 C151 1.427 . S
N159 C157 1.384 1_655 S
H160 C166 0.930 . S
H161 C170 0.930 . S
H162 C175 0.929 . S
H163 C173 0.929 . S
H164 C168 0.929 . S
H165 C174 0.929 . S
C166 H160 0.930 . S
C166 C167 1.367 . S
C166 C174 1.378 . S
C167 C166 1.367 . S
C167 C175 1.433 . S
C168 H164 0.929 . S
C168 C170 1.378 . S
C168 C172 1.350 . S
C169 C172 1.463 . S
C169 C174 1.350 . S
C169 N177 1.427 . S
C170 H161 0.930 . S
C170 C168 1.378 . S
C170 C171 1.367 . S
C171 C170 1.367 . S
C171 C173 1.433 . S
C172 C168 1.350 . S
C172 C169 1.463 . S
C172 N176 1.427 . S
C173 H163 0.929 . S
C173 C171 1.433 . S
C173 N176 1.384 . S
C174 H165 0.929 . S
C174 C166 1.378 . S
C174 C169 1.350 . S
C175 H162 0.929 . S
C175 C167 1.433 . S
C175 N177 1.384 . S
N176 C172 1.427 . S
N176 C173 1.384 . S
N177 C169 1.427 . S
N177 C175 1.384 . S
H178 C184 0.930 . S
H179 C188 0.930 . S
H180 C193 0.929 . S
H181 C191 0.929 . S
H182 C186 0.929 . S
H183 C192 0.929 . S
C184 H178 0.930 . S
C184 C185 1.367 . S
C184 C192 1.378 . S
C185 C184 1.367 . S
C185 C193 1.433 . S
C186 H182 0.929 . S
C186 C188 1.378 . S
C186 C190 1.350 . S
C187 C190 1.463 . S
C187 C192 1.350 . S
C187 N195 1.427 . S
C188 H179 0.930 . S
C188 C186 1.378 . S
C188 C189 1.367 . S
C189 C188 1.367 . S
C189 C191 1.433 . S
C190 C186 1.350 . S
C190 C187 1.463 . S
C190 N194 1.427 . S
C191 H181 0.929 . S
C191 C189 1.433 . S
C191 N194 1.384 . S
C192 H183 0.929 . S
C192 C184 1.378 . S
C192 C187 1.350 . S
C193 H180 0.929 . S
C193 C185 1.433 . S
C193 N195 1.384 . S
N194 C190 1.427 . S
N194 C191 1.384 . S
N195 C187 1.427 . S
N195 C193 1.384 . S
H196 C202 0.930 . S
H197 C206 0.930 . S
H198 C211 0.929 . S
H199 C209 0.929 . S
H200 C204 0.929 . S
H201 C210 0.929 . S
C202 H196 0.930 . S
C202 C203 1.367 . S
C202 C210 1.378 . S
C203 C202 1.367 . S
C203 C211 1.433 . S
C204 H200 0.929 . S
C204 C206 1.378 . S
C204 C208 1.350 . S
C205 C208 1.463 1_565 S
C205 C210 1.350 . S
C205 N213 1.427 . S
C206 H197 0.930 . S
C206 C204 1.378 . S
C206 C207 1.367 . S
C207 C206 1.367 . S
C207 C209 1.433 . S
C208 C204 1.350 . S
C208 C205 1.463 1_545 S
C208 N212 1.427 . S
C209 H199 0.929 . S
C209 C207 1.433 . S
C209 N212 1.384 . S
C210 H201 0.929 . S
C210 C202 1.378 . S
C210 C205 1.350 . S
C211 H198 0.929 . S
C211 C203 1.433 . S
C211 N213 1.384 . S
N212 C208 1.427 . S
N212 C209 1.384 . S
N213 C205 1.427 . S
N213 C211 1.384 . S
H214 C220 0.930 . S
H215 C224 0.930 . S
H216 C229 0.929 . S
H217 C227 0.929 . S
H218 C222 0.929 . S
H219 C228 0.929 . S
C220 H214 0.930 . S
C220 C221 1.367 . S
C220 C228 1.378 . S
C221 C220 1.367 . S
C221 C229 1.433 . S
C222 H218 0.929 . S
C222 C224 1.378 . S
C222 C226 1.350 . S
C223 C226 1.463 1_564 S
C223 C228 1.350 . S
C223 N231 1.427 . S
C224 H215 0.930 . S
C224 C222 1.378 . S
C224 C225 1.367 . S
C225 C224 1.367 . S
C225 C227 1.433 . S
C226 C222 1.350 . S
C226 C223 1.463 1_546 S
C226 N230 1.427 . S
C227 H217 0.929 . S
C227 C225 1.433 . S
C227 N230 1.383 . S
C228 H219 0.929 . S
C228 C220 1.378 . S
C228 C223 1.350 . S
C229 H216 0.929 . S
C229 C221 1.433 . S
C229 N231 1.383 . S
N230 C226 1.427 . S
N230 C227 1.383 . S
N231 C223 1.427 . S
N231 C229 1.383 . S
H232 C238 0.930 . S
H233 C242 0.930 . S
H234 C247 0.929 . S
H235 C245 0.929 . S
H236 C240 0.929 . S
H237 C246 0.929 . S
C238 H232 0.930 . S
C238 C239 1.367 . S
C238 C246 1.378 . S
C239 C238 1.367 . S
C239 C247 1.433 . S
C240 H236 0.929 . S
C240 C242 1.378 . S
C240 C244 1.350 . S
C241 C244 1.463 . S
C241 C246 1.350 . S
C241 N249 1.427 . S
C242 H233 0.930 . S
C242 C240 1.378 . S
C242 C243 1.367 . S
C243 C242 1.367 . S
C243 C245 1.433 . S
C244 C240 1.350 . S
C244 C241 1.463 . S
C244 N248 1.427 . S
C245 H235 0.929 . S
C245 C243 1.433 . S
C245 N248 1.384 . S
C246 H237 0.929 . S
C246 C238 1.378 . S
C246 C241 1.350 . S
C247 H234 0.929 . S
C247 C239 1.433 . S
C247 N249 1.384 . S
N248 C244 1.427 . S
N248 C245 1.384 . S
N249 C241 1.427 . S
N249 C247 1.384 . S
H250 C256 0.930 . S
H251 C260 0.930 . S
H252 C265 0.929 . S
H253 C263 0.929 . S
H254 C258 0.929 . S
H255 C264 0.929 . S
C256 H250 0.930 . S
C256 C257 1.367 . S
C256 C264 1.378 . S
C257 C256 1.367 . S
C257 C265 1.433 . S
C258 H254 0.929 . S
C258 C260 1.378 . S
C258 C262 1.350 . S
C259 C262 1.463 . S
C259 C264 1.350 . S
C259 N267 1.427 . S
C260 H251 0.930 . S
C260 C258 1.378 . S
C260 C261 1.367 . S
C261 C260 1.367 . S
C261 C263 1.433 . S
C262 C258 1.350 . S
C262 C259 1.463 . S
C262 N266 1.427 . S
C263 H253 0.929 . S
C263 C261 1.433 . S
C263 N266 1.384 . S
C264 H255 0.929 . S
C264 C256 1.378 . S
C264 C259 1.350 . S
C265 H252 0.929 . S
C265 C257 1.433 . S
C265 N267 1.384 . S
N266 C262 1.427 . S
N266 C263 1.384 . S
N267 C259 1.427 . S
N267 C265 1.384 . S
H268 C274 0.930 . S
H269 C278 0.930 . S
H270 C283 0.929 . S
H271 C281 0.929 . S
H272 C276 0.929 . S
H273 C282 0.929 . S
C274 H268 0.930 . S
C274 C275 1.367 . S
C274 C282 1.378 . S
C275 C274 1.367 . S
C275 C283 1.433 . S
C276 H272 0.929 . S
C276 C278 1.378 . S
C276 C280 1.350 . S
C277 C280 1.463 . S
C277 C282 1.350 . S
C277 N285 1.427 . S
C278 H269 0.930 . S
C278 C276 1.378 . S
C278 C279 1.367 . S
C279 C278 1.367 . S
C279 C281 1.433 . S
C280 C276 1.350 . S
C280 C277 1.463 . S
C280 N284 1.427 . S
C281 H271 0.929 . S
C281 C279 1.433 . S
C281 N284 1.384 . S
C282 H273 0.929 . S
C282 C274 1.378 . S
C282 C277 1.350 . S
C283 H270 0.929 . S
C283 C275 1.433 . S
C283 N285 1.384 . S
N284 C280 1.427 . S
N284 C281 1.384 . S
N285 C277 1.427 . S
N285 C283 1.384 . S
H286 C292 0.930 . S
H287 C296 0.930 . S
H288 C301 0.929 . S
H289 C299 0.929 . S
H290 C294 0.929 . S
H291 C300 0.929 . S
C292 H286 0.930 . S
C292 C293 1.367 . S
C292 C300 1.378 . S
C293 C292 1.367 . S
C293 C301 1.433 . S
C294 H290 0.929 . S
C294 C296 1.378 . S
C294 C298 1.350 . S
C295 C298 1.463 . S
C295 C300 1.350 . S
C295 N303 1.427 . S
C296 H287 0.930 . S
C296 C294 1.378 . S
C296 C297 1.367 . S
C297 C296 1.367 . S
C297 C299 1.433 . S
C298 C294 1.350 . S
C298 C295 1.463 . S
C298 N302 1.427 . S
C299 H289 0.929 . S
C299 C297 1.433 . S
C299 N302 1.384 . S
C300 H291 0.929 . S
C300 C292 1.378 . S
C300 C295 1.350 . S
C301 H288 0.929 . S
C301 C293 1.433 . S
C301 N303 1.384 . S
N302 C298 1.427 . S
N302 C299 1.384 . S
N303 C295 1.427 . S
N303 C301 1.384 . S
C95 C49 1.299 . S
C99 C5 1.277 . S
C113 C60 1.277 . S
C117 C19 1.485 . S
C131 C30 1.495 . S
C135 C74 1.503 . S
C149 C38 1.295 . S
C153 C85 1.490 . S
C167 C82 1.302 . S
C171 C41 1.491 . S
C185 C63 1.492 . S
C189 C16 1.305 . S
C203 C71 1.298 . S
C207 C27 1.278 . S
C221 C8 1.495 . S
C225 C52 1.502 . S
C239 C62 1.472 . S
C243 C7 1.448 . S
C257 C73 1.453 . S
C261 C18 1.469 . S
C275 C29 1.456 . S
C279 C84 1.463 . S
C293 C51 1.455 . S
C297 C40 1.464 . S
