# Generated by pormake.
# Topology snl, (6)-cn, num edge types: 1
# Building blocks:
#     Node 0, Type 0, BuildingBlock: CUWYAW_clean_sbu_0, # of connection points: 6
#     Node 1, Type 0, BuildingBlock: CUWYAW_clean_sbu_0, # of connection points: 6
#     Node 2, Type 0, BuildingBlock: CUWYAW_clean_sbu_0, # of connection points: 6
#     Node 3, Type 0, BuildingBlock: CUWYAW_clean_sbu_0, # of connection points: 6
#     Node 4, Type 0, BuildingBlock: CUWYAW_clean_sbu_0, # of connection points: 6
#     Node 5, Type 0, BuildingBlock: CUWYAW_clean_sbu_0, # of connection points: 6
#     Node 6, Type 0, BuildingBlock: CUWYAW_clean_sbu_0, # of connection points: 6
#     Node 7, Type 0, BuildingBlock: CUWYAW_clean_sbu_0, # of connection points: 6
#     Node 8, Type 0, BuildingBlock: CUWYAW_clean_sbu_0, # of connection points: 6
#     Node 9, Type 0, BuildingBlock: CUWYAW_clean_sbu_0, # of connection points: 6
#     Node 10, Type 0, BuildingBlock: CUWYAW_clean_sbu_0, # of connection points: 6
#     Node 11, Type 0, BuildingBlock: CUWYAW_clean_sbu_0, # of connection points: 6
#     Node 12, Type 0, BuildingBlock: CUWYAW_clean_sbu_0, # of connection points: 6
#     Node 13, Type 0, BuildingBlock: CUWYAW_clean_sbu_0, # of connection points: 6
#     Node 14, Type 0, BuildingBlock: CUWYAW_clean_sbu_0, # of connection points: 6
#     Node 15, Type 0, BuildingBlock: CUWYAW_clean_sbu_0, # of connection points: 6
#     Edge 16, Type (0, 0), BuildingBlock: AJUNOK_clean_linker_0, # of connection points: 2
#     Edge 17, Type (0, 0), BuildingBlock: AJUNOK_clean_linker_0, # of connection points: 2
#     Edge 18, Type (0, 0), BuildingBlock: AJUNOK_clean_linker_0, # of connection points: 2
#     Edge 19, Type (0, 0), BuildingBlock: AJUNOK_clean_linker_0, # of connection points: 2
#     Edge 20, Type (0, 0), BuildingBlock: AJUNOK_clean_linker_0, # of connection points: 2
#     Edge 21, Type (0, 0), BuildingBlock: AJUNOK_clean_linker_0, # of connection points: 2
#     Edge 22, Type (0, 0), BuildingBlock: AJUNOK_clean_linker_0, # of connection points: 2
#     Edge 23, Type (0, 0), BuildingBlock: AJUNOK_clean_linker_0, # of connection points: 2
#     Edge 24, Type (0, 0), BuildingBlock: AJUNOK_clean_linker_0, # of connection points: 2
#     Edge 25, Type (0, 0), BuildingBlock: AJUNOK_clean_linker_0, # of connection points: 2
#     Edge 26, Type (0, 0), BuildingBlock: AJUNOK_clean_linker_0, # of connection points: 2
#     Edge 27, Type (0, 0), BuildingBlock: AJUNOK_clean_linker_0, # of connection points: 2
#     Edge 28, Type (0, 0), BuildingBlock: AJUNOK_clean_linker_0, # of connection points: 2
#     Edge 29, Type (0, 0), BuildingBlock: AJUNOK_clean_linker_0, # of connection points: 2
#     Edge 30, Type (0, 0), BuildingBlock: AJUNOK_clean_linker_0, # of connection points: 2
#     Edge 31, Type (0, 0), BuildingBlock: AJUNOK_clean_linker_0, # of connection points: 2
#     Edge 32, Type (0, 0), BuildingBlock: AJUNOK_clean_linker_0, # of connection points: 2
#     Edge 33, Type (0, 0), BuildingBlock: AJUNOK_clean_linker_0, # of connection points: 2
#     Edge 34, Type (0, 0), BuildingBlock: AJUNOK_clean_linker_0, # of connection points: 2
#     Edge 35, Type (0, 0), BuildingBlock: AJUNOK_clean_linker_0, # of connection points: 2
#     Edge 36, Type (0, 0), BuildingBlock: AJUNOK_clean_linker_0, # of connection points: 2
#     Edge 37, Type (0, 0), BuildingBlock: AJUNOK_clean_linker_0, # of connection points: 2
#     Edge 38, Type (0, 0), BuildingBlock: AJUNOK_clean_linker_0, # of connection points: 2
#     Edge 39, Type (0, 0), BuildingBlock: AJUNOK_clean_linker_0, # of connection points: 2
#     Edge 40, Type (0, 0), BuildingBlock: AJUNOK_clean_linker_0, # of connection points: 2
#     Edge 41, Type (0, 0), BuildingBlock: AJUNOK_clean_linker_0, # of connection points: 2
#     Edge 42, Type (0, 0), BuildingBlock: AJUNOK_clean_linker_0, # of connection points: 2
#     Edge 43, Type (0, 0), BuildingBlock: AJUNOK_clean_linker_0, # of connection points: 2
#     Edge 44, Type (0, 0), BuildingBlock: AJUNOK_clean_linker_0, # of connection points: 2
#     Edge 45, Type (0, 0), BuildingBlock: AJUNOK_clean_linker_0, # of connection points: 2
#     Edge 46, Type (0, 0), BuildingBlock: AJUNOK_clean_linker_0, # of connection points: 2
#     Edge 47, Type (0, 0), BuildingBlock: AJUNOK_clean_linker_0, # of connection points: 2
#     Edge 48, Type (0, 0), BuildingBlock: AJUNOK_clean_linker_0, # of connection points: 2
#     Edge 49, Type (0, 0), BuildingBlock: AJUNOK_clean_linker_0, # of connection points: 2
#     Edge 50, Type (0, 0), BuildingBlock: AJUNOK_clean_linker_0, # of connection points: 2
#     Edge 51, Type (0, 0), BuildingBlock: AJUNOK_clean_linker_0, # of connection points: 2
#     Edge 52, Type (0, 0), BuildingBlock: AJUNOK_clean_linker_0, # of connection points: 2
#     Edge 53, Type (0, 0), BuildingBlock: AJUNOK_clean_linker_0, # of connection points: 2
#     Edge 54, Type (0, 0), BuildingBlock: AJUNOK_clean_linker_0, # of connection points: 2
#     Edge 55, Type (0, 0), BuildingBlock: AJUNOK_clean_linker_0, # of connection points: 2
#     Edge 56, Type (0, 0), BuildingBlock: AJUNOK_clean_linker_0, # of connection points: 2
#     Edge 57, Type (0, 0), BuildingBlock: AJUNOK_clean_linker_0, # of connection points: 2
#     Edge 58, Type (0, 0), BuildingBlock: AJUNOK_clean_linker_0, # of connection points: 2
#     Edge 59, Type (0, 0), BuildingBlock: AJUNOK_clean_linker_0, # of connection points: 2
#     Edge 60, Type (0, 0), BuildingBlock: AJUNOK_clean_linker_0, # of connection points: 2
#     Edge 61, Type (0, 0), BuildingBlock: AJUNOK_clean_linker_0, # of connection points: 2
#     Edge 62, Type (0, 0), BuildingBlock: AJUNOK_clean_linker_0, # of connection points: 2
#     Edge 63, Type (0, 0), BuildingBlock: AJUNOK_clean_linker_0, # of connection points: 2
# Relax obj value: 0.195
# Max RMSD: 0.263
# Mean RMSD: 0.243
data_MOF--net-snl--node1-CUWYAW_clean_sbu_0--edge1-AJUNOK_clean_linker_0
_symmetry_space_group_name_H-M    P1
_symmetry_Int_Tables_number       1
_symmetry_cell_setting            triclinic
loop_
_symmetry_equiv_pos_as_xyz
'x, y, z'
_cell_length_a     41.76282
_cell_length_b     40.788008
_cell_length_c     21.773085
_cell_angle_alpha  87.181403
_cell_angle_beta   92.683266
_cell_angle_gamma 90.044883
loop_
_atom_site_label
_atom_site_type_symbol
_atom_site_fract_x
_atom_site_fract_y
_atom_site_fract_z
_atom_type_partial_charge
C0 C 0.14287 0.65313 1.00055 0.0
Eu1 Eu 0.1445 0.6384 0.11903 0.0
C2 C 0.14328 0.6369 0.94059 0.0
C3 C 0.17095 0.63897 0.90623 0.0
C4 C 0.1703 0.62945 0.84523 0.0
C5 C 0.14203 0.61741 0.81719 0.0
C6 C 0.11492 0.61301 0.85257 0.0
C7 C 0.11548 0.62273 0.91371 0.0
C8 C 0.20045 0.63069 0.19209 0.0
C9 C 0.13958 0.5603 0.122 0.0
C10 C 0.13705 0.58805 0.35694 0.0
Eu11 Eu 0.13511 0.60654 0.23899 0.0
C12 C 0.1353 0.59916 0.42126 0.0
C13 C 0.10761 0.59301 0.45458 0.0
C14 C 0.10761 0.5979 0.51802 0.0
C15 C 0.13523 0.60919 0.54963 0.0
C16 C 0.16239 0.61694 0.51615 0.0
C17 C 0.16252 0.61181 0.4528 0.0
C18 C 0.07897 0.61436 0.17134 0.0
C19 C 0.13512 0.6888 0.21818 0.0
O20 O 0.11727 0.64979 0.03256 0.0
O21 O 0.16923 0.65265 0.03544 0.0
O22 O 0.19289 0.65637 0.15682 0.0
O23 O 0.17857 0.60931 0.18579 0.0
O24 O 0.1328 0.58788 0.09156 0.0
O25 O 0.14568 0.56046 0.18285 0.0
O26 O 0.16218 0.59601 0.32611 0.0
O27 O 0.11098 0.58807 0.32148 0.0
O28 O 0.08731 0.58798 0.20375 0.0
O29 O 0.10093 0.63583 0.17601 0.0
O30 O 0.13968 0.66271 0.25725 0.0
O31 O 0.13181 0.68529 0.15877 0.0
H32 H 0.19274 0.6496 0.92544 0.0
H33 H 0.19151 0.63297 0.81892 0.0
H34 H 0.09282 0.6038 0.83186 0.0
H35 H 0.09371 0.62055 0.93876 0.0
H36 H 0.0863 0.58308 0.43213 0.0
H37 H 0.08631 0.59195 0.54283 0.0
H38 H 0.18398 0.62567 0.53955 0.0
H39 H 0.1844 0.61657 0.42911 0.0
C40 C 0.65169 0.86344 0.56827 0.0
Eu41 Eu 0.65379 0.87592 0.44975 0.0
C42 C 0.6529 0.87904 0.62876 0.0
C43 C 0.67787 0.87098 0.67222 0.0
C44 C 0.67581 0.879 0.73376 0.0
C45 C 0.64856 0.89502 0.75343 0.0
C46 C 0.62474 0.90548 0.70904 0.0
C47 C 0.62688 0.89764 0.64734 0.0
C48 C 0.70459 0.8803 0.37322 0.0
C49 C 0.64973 0.95293 0.4464 0.0
C50 C 0.64814 0.92479 0.21301 0.0
Eu51 Eu 0.63783 0.9054 0.32708 0.0
C52 C 0.64303 0.91471 0.14817 0.0
C53 C 0.61555 0.92413 0.11148 0.0
C54 C 0.61356 0.91842 0.04812 0.0
C55 C 0.6391 0.90342 1.02004 0.0
C56 C 0.66572 0.89257 0.05743 0.0
C57 C 0.6677 0.89819 0.12037 0.0
C58 C 0.57937 0.89283 0.36971 0.0
C59 C 0.63468 0.82384 0.3554 0.0
O60 O 0.62658 0.86989 0.53163 0.0
O61 O 0.67803 0.86052 0.53845 0.0
O62 O 0.69806 0.85427 0.40768 0.0
O63 O 0.68389 0.90243 0.38076 0.0
O64 O 0.66247 0.92674 0.47331 0.0
O65 O 0.63757 0.9519 0.38829 0.0
O66 O 0.66814 0.90704 0.24857 0.0
O67 O 0.62381 0.93504 0.24277 0.0
O68 O 0.58457 0.90537 0.31543 0.0
O69 O 0.6057 0.88632 0.40073 0.0
O70 O 0.63787 0.84832 0.31277 0.0
O71 O 0.63618 0.82998 0.4137 0.0
H72 H 0.69821 0.85679 0.65942 0.0
H73 H 0.69475 0.87092 0.7667 0.0
H74 H 0.60392 0.91876 0.7224 0.0
H75 H 0.60731 0.90474 0.61504 0.0
H76 H 0.59612 0.93702 0.13112 0.0
H77 H 0.59277 0.92727 1.02062 0.0
H78 H 0.68563 0.88058 0.03752 0.0
H79 H 0.68928 0.89061 0.14681 0.0
C80 C 0.35967 0.37055 0.50858 0.0
Eu81 Eu 0.36273 0.38045 0.62598 0.0
C82 C 0.3644 0.38743 0.44778 0.0
C83 C 0.33851 0.38933 0.40445 0.0
C84 C 0.34355 0.39698 0.34247 0.0
C85 C 0.37466 0.4027 0.3224 0.0
C86 C 0.40016 0.40443 0.36656 0.0
C87 C 0.39508 0.39685 0.42891 0.0
C88 C 0.31325 0.38307 0.70603 0.0
C89 C 0.37289 0.45733 0.63462 0.0
C90 C 0.3734 0.41622 0.86339 0.0
Eu91 Eu 0.3824 0.40289 0.74986 0.0
C92 C 0.37987 0.40671 0.92905 0.0
C93 C 0.41029 0.40937 0.95889 0.0
C94 C 0.41386 0.40442 1.02314 0.0
C95 C 0.38701 0.39716 0.05822 0.0
C96 C 0.35714 0.39262 0.02745 0.0
C97 C 0.35365 0.39737 0.9638 0.0
C98 C 0.43909 0.39189 0.69888 0.0
C99 C 0.3831 0.3237 0.72243 0.0
O100 O 0.38513 0.36451 0.54455 0.0
O101 O 0.33464 0.37846 0.53875 0.0
O102 O 0.31715 0.36 0.66779 0.0
O103 O 0.33543 0.40413 0.69878 0.0
O104 O 0.3656 0.43301 0.60023 0.0
O105 O 0.37973 0.45306 0.69488 0.0
O106 O 0.3557 0.3959 0.83198 0.0
O107 O 0.39573 0.43053 0.83118 0.0
O108 O 0.43599 0.40162 0.75405 0.0
O109 O 0.41157 0.38759 0.67173 0.0
O110 O 0.38412 0.34607 0.76496 0.0
O111 O 0.37668 0.33157 0.66426 0.0
H112 H 0.31461 0.38259 0.41773 0.0
H113 H 0.32334 0.39617 0.30949 0.0
H114 H 0.42436 0.40896 0.35248 0.0
H115 H 0.41555 0.39617 0.46139 0.0
H116 H 0.43101 0.41618 0.93303 0.0
H117 H 0.43736 0.40715 0.04546 0.0
H118 H 0.33595 0.38711 0.05287 0.0
H119 H 0.32994 0.39516 0.94191 0.0
C120 C 0.86082 0.15011 0.05951 0.0
Eu121 Eu 0.86775 0.13767 0.94436 0.0
C122 C 0.8672 0.13639 0.12312 0.0
C123 C 0.84099 0.12833 0.15901 0.0
C124 C 0.84545 0.12064 0.22201 0.0
C125 C 0.87626 0.12112 0.25053 0.0
C126 C 0.90278 0.12714 0.2142 0.0
C127 C 0.89834 0.13457 0.15082 0.0
C128 C 0.81349 0.13128 0.86714 0.0
C129 C 0.88383 0.06228 0.94306 0.0
C130 C 0.86515 0.10198 0.7082 0.0
Eu131 Eu 0.87895 0.11312 0.82325 0.0
C132 C 0.873 0.11148 0.64413 0.0
C133 C 0.90162 0.10172 0.6187 0.0
C134 C 0.90579 0.10679 0.5554 0.0
C135 C 0.8815 0.12173 0.51701 0.0
C136 C 0.85387 0.13331 0.54289 0.0
C137 C 0.84964 0.1282 0.60586 0.0
C138 C 0.93907 0.12311 0.86972 0.0
C139 C 0.88122 0.19217 0.84767 0.0
O140 O 0.88493 0.16084 0.02806 0.0
O141 O 0.83923 0.13527 0.02569 0.0
O142 O 0.82057 0.15709 0.89756 0.0
O143 O 0.83593 0.11065 0.87711 0.0
O144 O 0.88647 0.08879 0.97384 0.0
O145 O 0.87595 0.0642 0.88274 0.0
O146 O 0.85134 0.1246 0.73831 0.0
O147 O 0.88504 0.08346 0.74316 0.0
O148 O 0.93185 0.11265 0.81577 0.0
O149 O 0.91392 0.12865 0.89882 0.0
O150 O 0.8737 0.16969 0.80749 0.0
O151 O 0.88744 0.18344 0.90531 0.0
H152 H 0.81677 0.12959 0.13889 0.0
H153 H 0.82461 0.11629 0.24907 0.0
H154 H 0.92679 0.12731 0.23531 0.0
H155 H 0.9191 0.1403 0.1243 0.0
H156 H 0.92011 0.08895 0.64703 0.0
H157 H 0.92722 0.09758 0.5359 0.0
H158 H 0.83479 0.14467 0.51383 0.0
H159 H 0.82733 0.13594 0.62417 0.0
C160 C 0.14986 0.35505 0.06583 0.0
Eu161 Eu 0.15101 0.37333 0.94861 0.0
C162 C 0.14889 0.36883 0.12829 0.0
C163 C 0.17607 0.36657 0.1688 0.0
C164 C 0.17451 0.37493 0.23038 0.0
C165 C 0.14561 0.38557 0.25391 0.0
C166 C 0.11864 0.38917 0.21263 0.0
C167 C 0.12026 0.381 0.15073 0.0
C168 C 0.20627 0.38059 0.88078 0.0
C169 C 0.14837 0.45104 0.95318 0.0
C170 C 0.14607 0.42567 0.71477 0.0
Eu171 Eu 0.14135 0.40658 0.83165 0.0
C172 C 0.14403 0.41442 0.65006 0.0
C173 C 0.1148 0.41547 0.61492 0.0
C174 C 0.11368 0.40929 0.55183 0.0
C175 C 0.1418 0.40214 0.52169 0.0
C176 C 0.17083 0.39983 0.55734 0.0
C177 C 0.17197 0.40605 0.6204 0.0
C178 C 0.08377 0.40133 0.88596 0.0
C179 C 0.13647 0.32389 0.84893 0.0
O180 O 0.12433 0.35853 0.02909 0.0
O181 O 0.17632 0.35779 0.03601 0.0
O182 O 0.19724 0.35349 0.90888 0.0
O183 O 0.18556 0.40234 0.88937 0.0
O184 O 0.14421 0.42296 0.98237 0.0
O185 O 0.15059 0.4522 0.89195 0.0
O186 O 0.17032 0.41585 0.75106 0.0
O187 O 0.11978 0.42761 0.74458 0.0
O188 O 0.09489 0.42766 0.85859 0.0
O189 O 0.1052 0.37876 0.88687 0.0
O190 O 0.14089 0.35008 0.81066 0.0
O191 O 0.13627 0.32739 0.90809 0.0
H192 H 0.19846 0.3573 0.15336 0.0
H193 H 0.19597 0.37234 0.26009 0.0
H194 H 0.09578 0.3968 0.22865 0.0
H195 H 0.09869 0.38303 0.12118 0.0
H196 H 0.09278 0.42192 0.63579 0.0
H197 H 0.09076 0.41047 0.52643 0.0
H198 H 0.19297 0.39436 0.53593 0.0
H199 H 0.195 0.40526 0.6455 0.0
C200 C 0.86657 0.87303 1.0073 0.0
Eu201 Eu 0.86335 0.87939 0.12535 0.0
C202 C 0.86806 0.89028 0.94588 0.0
C203 C 0.84131 0.89048 0.90444 0.0
C204 C 0.84496 0.89726 0.84152 0.0
C205 C 0.87547 0.90367 0.81877 0.0
C206 C 0.9016 0.90688 0.86099 0.0
C207 C 0.8979 0.90045 0.92393 0.0
C208 C 0.81353 0.88227 0.20367 0.0
C209 C 0.8707 0.9545 0.12733 0.0
C210 C 0.87419 0.91723 0.35852 0.0
Eu211 Eu 0.88302 0.90177 0.24569 0.0
C212 C 0.88049 0.90791 0.42452 0.0
C213 C 0.91092 0.90983 0.45462 0.0
C214 C 0.91433 0.90446 0.5189 0.0
C215 C 0.88731 0.89756 0.55386 0.0
C216 C 0.85743 0.89373 0.52275 0.0
C217 C 0.8541 0.89884 0.45911 0.0
C218 C 0.93994 0.89001 0.19845 0.0
C219 C 0.87915 0.82224 0.22124 0.0
O220 O 0.89141 0.87618 0.04524 0.0
O221 O 0.83945 0.87093 0.03524 0.0
O222 O 0.81763 0.85872 0.16613 0.0
O223 O 0.83563 0.90357 0.19654 0.0
O224 O 0.85266 0.93138 0.1063 0.0
O225 O 0.88585 0.94994 0.18254 0.0
O226 O 0.85628 0.89683 0.32792 0.0
O227 O 0.89659 0.93083 0.32556 0.0
O228 O 0.93606 0.89795 0.25447 0.0
O229 O 0.91291 0.88607 0.16919 0.0
O230 O 0.88096 0.84514 0.26264 0.0
O231 O 0.87533 0.82986 0.16245 0.0
H232 H 0.818 0.88303 0.91987 0.0
H233 H 0.82421 0.89538 0.81013 0.0
H234 H 0.92545 0.91162 0.84523 0.0
H235 H 0.91909 0.9008 0.95454 0.0
H236 H 0.93179 0.91628 0.42894 0.0
H237 H 0.93788 0.90655 0.54132 0.0
H238 H 0.83609 0.8885 0.54789 0.0
H239 H 0.83038 0.897 0.43709 0.0
C240 C 0.36613 0.65437 0.55692 0.0
Eu241 Eu 0.36845 0.63839 0.44236 0.0
C242 C 0.36707 0.64065 0.62136 0.0
C243 C 0.34077 0.64629 0.65711 0.0
C244 C 0.34236 0.63876 0.72041 0.0
C245 C 0.37026 0.62506 0.74982 0.0
C246 C 0.39621 0.61787 0.7136 0.0
C247 C 0.39466 0.62559 0.64989 0.0
C248 C 0.31339 0.63094 0.36795 0.0
C249 C 0.3759 0.56149 0.4483 0.0
C250 C 0.37425 0.59334 0.21305 0.0
Eu251 Eu 0.3787 0.60945 0.32818 0.0
C252 C 0.37729 0.60648 0.14854 0.0
C253 C 0.40448 0.59903 0.11601 0.0
C254 C 0.40483 0.60546 0.05217 0.0
C255 C 0.3779 0.61922 1.01937 0.0
C256 C 0.35183 0.62921 0.05264 0.0
C257 C 0.3514 0.6227 0.11636 0.0
C258 C 0.43541 0.61453 0.39469 0.0
C259 C 0.38282 0.69069 0.33931 0.0
O260 O 0.39249 0.65411 0.52698 0.0
O261 O 0.34068 0.64862 0.52193 0.0
O262 O 0.32171 0.65779 0.39398 0.0
O263 O 0.33503 0.60973 0.38036 0.0
O264 O 0.38265 0.58815 0.47657 0.0
O265 O 0.36835 0.56286 0.38831 0.0
O266 O 0.35008 0.60341 0.24319 0.0
O267 O 0.40027 0.58922 0.2483 0.0
O268 O 0.42596 0.58904 0.36531 0.0
O269 O 0.41346 0.63634 0.38879 0.0
O270 O 0.3791 0.6659 0.30192 0.0
O271 O 0.38218 0.68554 0.39891 0.0
H272 H 0.31936 0.65807 0.6365 0.0
H273 H 0.32217 0.64532 0.74674 0.0
H274 H 0.41797 0.60707 0.73477 0.0
H275 H 0.41539 0.62081 0.62358 0.0
H276 H 0.42486 0.58663 0.13934 0.0
H277 H 0.42543 0.5978 0.02802 0.0
H278 H 0.33113 0.64087 0.029 0.0
H279 H 0.3301 0.62902 0.13977 0.0
C280 C 0.64569 0.15302 0.50244 0.0
Eu281 Eu 0.6442 0.13669 0.61995 0.0
C282 C 0.64546 0.13768 0.44171 0.0
C283 C 0.67242 0.14141 0.40591 0.0
C284 C 0.67156 0.13196 0.34494 0.0
C285 C 0.64368 0.11833 0.31787 0.0
C286 C 0.61717 0.11278 0.35482 0.0
C287 C 0.61803 0.12231 0.41611 0.0
C288 C 0.699 0.1289 0.69572 0.0
C289 C 0.6364 0.05885 0.62103 0.0
C290 C 0.63542 0.08526 0.85629 0.0
Eu291 Eu 0.63401 0.10438 0.73879 0.0
C292 C 0.63485 0.0967 0.92055 0.0
C293 C 0.60787 0.09037 0.95575 0.0
C294 C 0.6087 0.09593 1.01899 0.0
C295 C 0.63665 0.10772 0.04905 0.0
C296 C 0.66297 0.11595 1.01311 0.0
C297 C 0.66216 0.11035 0.94985 0.0
C298 C 0.57808 0.11272 0.67044 0.0
C299 C 0.63444 0.18645 0.71978 0.0
O300 O 0.61939 0.15201 0.53275 0.0
O301 O 0.6714 0.14914 0.53866 0.0
O302 O 0.69104 0.15562 0.66396 0.0
O303 O 0.67774 0.10729 0.68642 0.0
O304 O 0.63036 0.0867 0.59081 0.0
O305 O 0.64322 0.05864 0.68162 0.0
O306 O 0.66101 0.09074 0.82498 0.0
O307 O 0.6092 0.08776 0.82138 0.0
O308 O 0.58618 0.08629 0.703 0.0
O309 O 0.60018 0.134 0.67548 0.0
O310 O 0.63925 0.16029 0.75853 0.0
O311 O 0.6307 0.18304 0.66038 0.0
H312 H 0.69385 0.15315 0.42421 0.0
H313 H 0.69227 0.13711 0.318 0.0
H314 H 0.59544 0.10194 0.33575 0.0
H315 H 0.59686 0.11869 0.44254 0.0
H316 H 0.58644 0.07979 0.9349 0.0
H317 H 0.5879 0.08952 0.04493 0.0
H318 H 0.68454 0.1261 0.03416 0.0
H319 H 0.68336 0.11577 0.92442 0.0
C320 C 0.86568 0.42967 0.68511 0.0
Eu321 Eu 0.88124 0.41326 0.80044 0.0
C322 C 0.87188 0.42051 0.62131 0.0
C323 C 0.90109 0.42732 0.59346 0.0
C324 C 0.90448 0.42155 0.53089 0.0
C325 C 0.87886 0.40872 0.49543 0.0
C326 C 0.85035 0.40046 0.5239 0.0
C327 C 0.84687 0.40638 0.586 0.0
C328 C 0.94305 0.40069 0.83894 0.0
C329 C 0.88623 0.33376 0.83199 0.0
C330 C 0.88281 0.37812 0.04149 0.0
Eu331 Eu 0.87295 0.38561 0.92256 0.0
C332 C 0.87773 0.39146 0.1026 0.0
C333 C 0.84943 0.3856 0.13392 0.0
C334 C 0.84814 0.39235 0.19642 0.0
C335 C 0.87505 0.40512 0.22828 0.0
C336 C 0.90241 0.41317 0.196 0.0
C337 C 0.90374 0.40643 0.13383 0.0
C338 C 0.81735 0.38674 0.84802 0.0
C339 C 0.86865 0.46157 0.9145 0.0
O340 O 0.85032 0.40798 0.71853 0.0
O341 O 0.88777 0.44503 0.71737 0.0
O342 O 0.93341 0.41222 0.78497 0.0
O343 O 0.91899 0.39459 0.87247 0.0
O344 O 0.87618 0.35683 0.79042 0.0
O345 O 0.89502 0.34199 0.88728 0.0
O346 O 0.90111 0.39553 1.00525 0.0
O347 O 0.85961 0.36292 1.01149 0.0
O348 O 0.82629 0.36209 0.88559 0.0
O349 O 0.83778 0.40969 0.8533 0.0
O350 O 0.85669 0.43518 0.93955 0.0
O351 O 0.88173 0.46022 0.85972 0.0
H352 H 0.92092 0.438 0.61934 0.0
H353 H 0.9267 0.4281 0.50968 0.0
H354 H 0.83025 0.39071 0.49735 0.0
H355 H 0.82407 0.40089 0.60598 0.0
H356 H 0.82894 0.37429 0.11119 0.0
H357 H 0.82675 0.38609 0.22067 0.0
H358 H 0.92343 0.42294 0.21977 0.0
H359 H 0.92594 0.41119 0.11118 0.0
C360 C 0.38222 0.08433 0.83824 0.0
Eu361 Eu 0.3854 0.10314 0.7212 0.0
C362 C 0.38262 0.09644 0.90221 0.0
C363 C 0.41119 0.09641 0.93941 0.0
C364 C 0.41074 0.10262 1.00238 0.0
C365 C 0.38166 0.10848 0.03006 0.0
C366 C 0.35335 0.11023 0.99235 0.0
C367 C 0.3538 0.10428 0.92938 0.0
C368 C 0.44041 0.11144 0.66062 0.0
C369 C 0.38699 0.18504 0.70215 0.0
C370 C 0.36448 0.1517 0.48247 0.0
Eu371 Eu 0.37241 0.13567 0.60029 0.0
C372 C 0.36853 0.1383 0.42071 0.0
C373 C 0.34147 0.1356 0.38043 0.0
C374 C 0.34454 0.12681 0.31955 0.0
C375 C 0.37483 0.12064 0.29694 0.0
C376 C 0.40191 0.12204 0.33784 0.0
C377 C 0.39881 0.13061 0.39918 0.0
C378 C 0.32032 0.12788 0.67346 0.0
C379 C 0.38433 0.05933 0.60146 0.0
O380 O 0.3572 0.09103 0.80149 0.0
O381 O 0.40878 0.085 0.80876 0.0
O382 O 0.43335 0.08556 0.69447 0.0
O383 O 0.4179 0.13248 0.66065 0.0
O384 O 0.38369 0.15902 0.74098 0.0
O385 O 0.38646 0.1818 0.64244 0.0
O386 O 0.39007 0.15918 0.51589 0.0
O387 O 0.342 0.13874 0.51568 0.0
O388 O 0.32726 0.15478 0.64275 0.0
O389 O 0.34104 0.1064 0.66395 0.0
O390 O 0.39133 0.08746 0.57447 0.0
O391 O 0.37617 0.0584 0.66012 0.0
H392 H 0.43383 0.09032 0.92044 0.0
H393 H 0.43297 0.10123 0.03008 0.0
H394 H 0.33063 0.11535 1.01199 0.0
H395 H 0.33129 0.10458 0.90254 0.0
H396 H 0.31787 0.14143 0.39547 0.0
H397 H 0.32322 0.1263 0.2893 0.0
H398 H 0.42556 0.1171 0.32202 0.0
H399 H 0.42019 0.1321 0.42905 0.0
C400 C 0.66235 0.63338 0.54121 0.0
Eu401 Eu 0.65272 0.62909 0.42216 0.0
C402 C 0.6474 0.63157 0.60184 0.0
C403 C 0.64866 0.65926 0.63772 0.0
C404 C 0.64211 0.65652 0.70018 0.0
C405 C 0.63415 0.62602 0.72821 0.0
C406 C 0.63015 0.59886 0.69119 0.0
C407 C 0.63678 0.60157 0.62857 0.0
C408 C 0.64999 0.68233 0.34028 0.0
C409 C 0.575 0.62545 0.37928 0.0
C410 C 0.62188 0.59612 0.18805 0.0
Eu411 Eu 0.63347 0.60846 0.30378 0.0
C412 C 0.63354 0.59928 0.12479 0.0
C413 C 0.63073 0.57212 0.08788 0.0
C414 C 0.63423 0.57575 1.02437 0.0
C415 C 0.64039 0.60674 0.99631 0.0
C416 C 0.64609 0.63341 0.03391 0.0
C417 C 0.64257 0.62977 0.09768 0.0
C418 C 0.63589 0.55953 0.39778 0.0
C419 C 0.70866 0.62057 0.3264 0.0
O420 O 0.66525 0.60624 0.51255 0.0
O421 O 0.65622 0.65875 0.50359 0.0
O422 O 0.67337 0.67538 0.38029 0.0
O423 O 0.62985 0.65884 0.34259 0.0
O424 O 0.59659 0.62414 0.42663 0.0
O425 O 0.58486 0.62402 0.32359 0.0
O426 O 0.61311 0.62294 0.21296 0.0
O427 O 0.63564 0.57496 0.22792 0.0
O428 O 0.61165 0.56435 0.35891 0.0
O429 O 0.65679 0.58067 0.38542 0.0
O430 O 0.68461 0.62161 0.28546 0.0
O431 O 0.70307 0.62012 0.38602 0.0
H432 H 0.65669 0.68267 0.61843 0.0
H433 H 0.6449 0.67797 0.72738 0.0
H434 H 0.62412 0.575 0.71147 0.0
H435 H 0.63545 0.57973 0.60222 0.0
H436 H 0.62398 0.54836 0.10767 0.0
H437 H 0.63071 0.55455 0.99676 0.0
H438 H 0.65132 0.65749 1.01362 0.0
H439 H 0.64519 0.65116 0.12507 0.0
C440 C 0.15484 0.92492 0.33509 0.0
Eu441 Eu 0.13806 0.90983 0.22304 0.0
C442 C 0.14949 0.91473 0.4001 0.0
C443 C 0.1189 0.91416 0.42465 0.0
C444 C 0.11555 0.90732 0.48791 0.0
C445 C 0.14267 0.90091 0.52764 0.0
C446 C 0.17298 0.90023 0.5022 0.0
C447 C 0.17629 0.90691 0.43931 0.0
C448 C 0.07626 0.89914 0.18422 0.0
C449 C 0.13355 0.82923 0.20853 0.0
C450 C 0.14207 0.8671 0.98658 0.0
Eu451 Eu 0.14439 0.8816 0.10214 0.0
C452 C 0.14137 0.88287 0.92359 0.0
C453 C 0.1701 0.88934 0.89409 0.0
C454 C 0.16967 0.89722 0.83086 0.0
C455 C 0.14056 0.89846 0.79572 0.0
C456 C 0.11171 0.89532 0.82606 0.0
C457 C 0.1121 0.88744 0.88944 0.0
C458 C 0.20046 0.88604 0.17363 0.0
C459 C 0.14046 0.96087 0.10231 0.0
O460 O 0.17063 0.90422 0.30385 0.0
O461 O 0.13167 0.93992 0.30208 0.0
O462 O 0.08546 0.91154 0.23556 0.0
O463 O 0.10042 0.8925 0.15302 0.0
O464 O 0.141 0.85351 0.24519 0.0
O465 O 0.12887 0.83491 0.14905 0.0
O466 O 0.11663 0.86996 1.01867 0.0
O467 O 0.16872 0.86851 1.02033 0.0
O468 O 0.19126 0.85988 0.14609 0.0
O469 O 0.17917 0.90798 0.16373 0.0
O470 O 0.14062 0.93462 0.0699 0.0
O471 O 0.141 0.95849 0.16364 0.0
H472 H 0.09772 0.91972 0.39539 0.0
H473 H 0.09183 0.9077 0.50598 0.0
H474 H 0.19448 0.89608 0.53129 0.0
H475 H 0.2001 0.90709 0.42154 0.0
H476 H 0.19306 0.88646 0.91901 0.0
H477 H 0.19224 0.90043 0.80874 0.0
H478 H 0.08893 0.89656 0.80013 0.0
H479 H 0.08951 0.88295 0.91084 0.0
C480 C 0.88414 0.58228 0.3411 0.0
Eu481 Eu 0.88625 0.60169 0.22418 0.0
C482 C 0.88417 0.59465 0.4048 0.0
C483 C 0.91087 0.58891 0.44583 0.0
C484 C 0.90961 0.59567 0.50836 0.0
C485 C 0.88148 0.60805 0.53191 0.0
C486 C 0.8554 0.61563 0.49017 0.0
C487 C 0.85665 0.60889 0.42759 0.0
C488 C 0.94121 0.61173 0.16385 0.0
C489 C 0.88384 0.68353 0.20812 0.0
C490 C 0.86727 0.65275 0.98587 0.0
Eu491 Eu 0.87378 0.63549 0.10345 0.0
C492 C 0.86915 0.63949 0.92345 0.0
C493 C 0.8426 0.64349 0.88176 0.0
C494 C 0.84429 0.63494 0.82045 0.0
C495 C 0.87262 0.62194 0.7988 0.0
C496 C 0.89893 0.61667 0.84123 0.0
C497 C 0.89722 0.62527 0.9029 0.0
C498 C 0.82098 0.62641 0.17478 0.0
C499 C 0.88392 0.55886 0.10356 0.0
O500 O 0.85881 0.58768 0.30453 0.0
O501 O 0.91059 0.58434 0.31142 0.0
O502 O 0.9344 0.58512 0.19579 0.0
O503 O 0.91857 0.63249 0.1655 0.0
O504 O 0.88038 0.65681 0.24492 0.0
O505 O 0.88638 0.68144 0.14858 0.0
O506 O 0.8938 0.6566 1.01915 0.0
O507 O 0.84361 0.64261 1.019 0.0
O508 O 0.82737 0.65309 0.14295 0.0
O509 O 0.84224 0.6053 0.16603 0.0
O510 O 0.89162 0.58693 0.07717 0.0
O511 O 0.87575 0.55765 0.16218 0.0
H512 H 0.93242 0.57794 0.43007 0.0
H513 H 0.93023 0.58971 0.53889 0.0
H514 H 0.83368 0.62613 0.50617 0.0
H515 H 0.83563 0.61389 0.39757 0.0
H516 H 0.8207 0.65441 0.89611 0.0
H517 H 0.82371 0.63994 0.7893 0.0
H518 H 0.92103 0.60639 0.82643 0.0
H519 H 0.91807 0.62153 0.93393 0.0
C520 C 0.16586 0.13893 0.04361 0.0
Eu521 Eu 0.15487 0.13267 0.92564 0.0
C522 C 0.15086 0.13289 0.10368 0.0
C523 C 0.14495 0.15945 0.14008 0.0
C524 C 0.13738 0.1542 0.20175 0.0
C525 C 0.13665 0.1222 0.22948 0.0
C526 C 0.13988 0.09557 0.19117 0.0
C527 C 0.14643 0.10087 0.12888 0.0
C528 C 0.15008 0.1838 0.83969 0.0
C529 C 0.07642 0.12478 0.89426 0.0
C530 C 0.11812 0.09847 0.69183 0.0
Eu531 Eu 0.13149 0.1098 0.80758 0.0
C532 C 0.12988 0.10268 0.62837 0.0
C533 C 0.1399 0.07522 0.59769 0.0
C534 C 0.14508 0.0776 0.53442 0.0
C535 C 0.13974 0.1074 0.50003 0.0
C536 C 0.13197 0.13538 0.53169 0.0
C537 C 0.12709 0.13307 0.59496 0.0
C538 C 0.13517 0.06246 0.90337 0.0
C539 C 0.20809 0.1215 0.82569 0.0
O540 O 0.17459 0.1134 1.0144 0.0
O541 O 0.1543 0.1626 1.00643 0.0
O542 O 0.17388 0.17876 0.87955 0.0
O543 O 0.13006 0.16036 0.84579 0.0
O544 O 0.09992 0.12576 0.93763 0.0
O545 O 0.08292 0.12215 0.83645 0.0
O546 O 0.10912 0.12477 0.71842 0.0
O547 O 0.1323 0.07701 0.73066 0.0
O548 O 0.11143 0.06527 0.86279 0.0
O549 O 0.15588 0.08368 0.88986 0.0
O550 O 0.18323 0.11969 0.78672 0.0
O551 O 0.20407 0.12437 0.88536 0.0
H552 H 0.14778 0.18442 0.12178 0.0
H553 H 0.13377 0.17546 0.22849 0.0
H554 H 0.13987 0.0705 0.20959 0.0
H555 H 0.15017 0.07976 0.10175 0.0
H556 H 0.14244 0.0515 0.62205 0.0
H557 H 0.15231 0.05583 0.51214 0.0
H558 H 0.12793 0.15882 0.50697 0.0
H559 H 0.11956 0.15486 0.61691 0.0
C560 C 0.65294 0.42197 0.83553 0.0
Eu561 Eu 0.63704 0.40775 0.72223 0.0
C562 C 0.64687 0.41211 0.9008 0.0
C563 C 0.61703 0.41697 0.92662 0.0
C564 C 0.61352 0.4112 0.99018 0.0
C565 C 0.63969 0.4004 0.02886 0.0
C566 C 0.66893 0.39394 1.0027 0.0
C567 C 0.67248 0.39973 0.93942 0.0
C568 C 0.57566 0.39538 0.68267 0.0
C569 C 0.63266 0.32664 0.70811 0.0
C570 C 0.64713 0.36395 0.48767 0.0
Eu571 Eu 0.64537 0.37862 0.60317 0.0
C572 C 0.64529 0.37954 0.42425 0.0
C573 C 0.67314 0.38196 0.39039 0.0
C574 C 0.67123 0.39068 0.32729 0.0
C575 C 0.64142 0.39697 0.29668 0.0
C576 C 0.61376 0.39682 0.33094 0.0
C577 C 0.61565 0.38831 0.39425 0.0
C578 C 0.70048 0.38342 0.67852 0.0
C579 C 0.63915 0.45751 0.59882 0.0
O580 O 0.6684 0.40085 0.80466 0.0
O581 O 0.63063 0.43781 0.80157 0.0
O582 O 0.5841 0.40898 0.73323 0.0
O583 O 0.60023 0.38877 0.65226 0.0
O584 O 0.63976 0.35113 0.74468 0.0
O585 O 0.6288 0.33211 0.64849 0.0
O586 O 0.62106 0.36275 0.51871 0.0
O587 O 0.67269 0.36945 0.5225 0.0
O588 O 0.69149 0.35709 0.65126 0.0
O589 O 0.67941 0.40542 0.66618 0.0
O590 O 0.63809 0.43068 0.56827 0.0
O591 O 0.64094 0.45598 0.66038 0.0
H592 H 0.59673 0.42623 0.89821 0.0
H593 H 0.59072 0.4163 1.0095 0.0
H594 H 0.68943 0.38564 0.03166 0.0
H595 H 0.69572 0.39566 0.92098 0.0
H596 H 0.69629 0.37538 0.41197 0.0
H597 H 0.69284 0.39051 0.30164 0.0
H598 H 0.59051 0.40165 0.30811 0.0
H599 H 0.5937 0.38696 0.41883 0.0
C600 C 0.37232 0.92716 0.18497 0.0
Eu601 Eu 0.38429 0.9109 0.30149 0.0
C602 C 0.37849 0.9183 0.12103 0.0
C603 C 0.40786 0.92427 0.09318 0.0
C604 C 0.41091 0.91865 0.03034 0.0
C605 C 0.38461 0.90727 0.99462 0.0
C606 C 0.35592 0.89997 1.02318 0.0
C607 C 0.35292 0.90536 0.08547 0.0
C608 C 0.44285 0.89644 0.35401 0.0
C609 C 0.38683 0.82972 0.32894 0.0
C610 C 0.37614 0.87153 0.54251 0.0
Eu611 Eu 0.36928 0.88075 0.42329 0.0
C612 C 0.37384 0.88709 0.60251 0.0
C613 C 0.34734 0.881 0.63887 0.0
C614 C 0.34856 0.88878 0.70096 0.0
C615 C 0.37639 0.90246 0.72776 0.0
C616 C 0.40193 0.91085 0.69059 0.0
C617 C 0.40062 0.90344 0.62846 0.0
C618 C 0.31723 0.88518 0.34133 0.0
C619 C 0.37008 0.95752 0.41763 0.0
O620 O 0.35608 0.90556 0.21699 0.0
O621 O 0.39426 0.94202 0.21868 0.0
O622 O 0.43795 0.91039 0.29969 0.0
O623 O 0.41623 0.8907 0.37934 0.0
O624 O 0.38507 0.85467 0.2871 0.0
O625 O 0.38389 0.83408 0.38751 0.0
O626 O 0.39881 0.88223 0.50727 0.0
O627 O 0.35001 0.86319 0.51119 0.0
O628 O 0.32307 0.86039 0.38068 0.0
O629 O 0.33867 0.90712 0.34912 0.0
O630 O 0.3557 0.93145 0.4389 0.0
O631 O 0.38399 0.95686 0.36336 0.0
H632 H 0.42805 0.93413 0.11926 0.0
H633 H 0.43326 0.92453 1.00905 0.0
H634 H 0.33536 0.89118 0.99659 0.0
H635 H 0.33 0.9005 0.10542 0.0
H636 H 0.3264 0.8685 0.62043 0.0
H637 H 0.32854 0.88226 0.72897 0.0
H638 H 0.42352 0.92165 0.71038 0.0
H639 H 0.42149 0.90866 0.60195 0.0
C640 C 0.13754 0.64279 0.71027 0.0
C641 C 0.13975 0.61422 0.7493 0.0
C642 C 0.13597 0.6411 0.64578 0.0
C643 C 0.13645 0.61073 0.61797 0.0
H644 H 0.13703 0.66667 0.72992 0.0
H645 H 0.13428 0.66369 0.61748 0.0
S646 S 0.1438 0.52883 0.69922 0.0
N647 N 0.14348 0.55472 0.75531 0.0
N648 N 0.14045 0.55154 0.63422 0.0
C649 C 0.13886 0.582 0.65644 0.0
C650 C 0.14052 0.58372 0.7221 0.0
C651 C 0.66751 0.91258 0.92157 0.0
C652 C 0.6399 0.90183 0.95153 0.0
C653 C 0.66977 0.91106 0.85764 0.0
C654 C 0.64447 0.89883 0.82055 0.0
H655 H 0.68767 0.9224 0.94786 0.0
H656 H 0.69162 0.91947 0.83706 0.0
S657 S 0.56739 0.86606 0.87578 0.0
N658 N 0.58692 0.87762 0.93884 0.0
N659 N 0.59112 0.87484 0.81866 0.0
C660 C 0.61657 0.88815 0.84962 0.0
C661 C 0.61429 0.88963 0.91497 0.0
C662 C 0.3678 0.37494 0.22334 0.0
C663 C 0.38067 0.40127 0.2558 0.0
C664 C 0.37176 0.37271 0.16028 0.0
C665 C 0.38865 0.39685 0.12668 0.0
H666 H 0.35425 0.35588 0.24688 0.0
H667 H 0.36075 0.3523 0.13729 0.0
S668 S 0.42843 0.47008 0.19027 0.0
N669 N 0.41234 0.45126 0.25029 0.0
N670 N 0.41947 0.44739 0.13111 0.0
C671 C 0.40282 0.42267 0.15894 0.0
C672 C 0.39887 0.42485 0.22358 0.0
C673 C 0.89459 0.14676 0.41369 0.0
C674 C 0.88238 0.12049 0.4495 0.0
C675 C 0.8936 0.14611 0.34917 0.0
C676 C 0.88005 0.11937 0.31864 0.0
H677 H 0.90443 0.16807 0.4356 0.0
H678 H 0.90255 0.16712 0.32284 0.0
S679 S 0.84522 0.0446 0.3927 0.0
N680 N 0.85686 0.06706 0.45075 0.0
N681 N 0.85458 0.06592 0.32954 0.0
C682 C 0.86797 0.09294 0.35429 0.0
C683 C 0.86926 0.0935 0.41977 0.0
C684 C 0.15883 0.36807 0.36531 0.0
C685 C 0.1435 0.39046 0.32193 0.0
C686 C 0.15786 0.3718 0.42918 0.0
C687 C 0.14124 0.39797 0.45323 0.0
H688 H 0.1716 0.34714 0.34985 0.0
H689 H 0.17012 0.35382 0.46009 0.0
S690 S 0.09795 0.46438 0.36055 0.0
N691 N 0.11183 0.44058 0.30859 0.0
N692 N 0.10959 0.4472 0.42816 0.0
C693 C 0.12555 0.42046 0.41062 0.0
C694 C 0.12675 0.41682 0.34536 0.0
C695 C 0.86674 0.87638 0.71909 0.0
C696 C 0.88059 0.90221 0.75167 0.0
C697 C 0.87079 0.87387 0.65603 0.0
C698 C 0.88877 0.89718 0.6225 0.0
H699 H 0.85254 0.85784 0.74253 0.0
H700 H 0.85908 0.85385 0.63302 0.0
S701 S 0.93151 0.96866 0.68653 0.0
N702 N 0.9143 0.95081 0.74618 0.0
N703 N 0.92178 0.94623 0.6274 0.0
C704 C 0.9039 0.9224 0.65495 0.0
C705 C 0.89978 0.92494 0.71945 0.0
C706 C 0.40008 0.63253 0.85151 0.0
C707 C 0.37285 0.621 0.81848 0.0
C708 C 0.4016 0.6321 0.91627 0.0
C709 C 0.37586 0.62029 0.95058 0.0
H710 H 0.42005 0.64285 0.82713 0.0
H711 H 0.42286 0.64162 0.93959 0.0
S712 S 0.30063 0.58391 0.88673 0.0
N713 N 0.32075 0.59481 0.82555 0.0
N714 N 0.32336 0.59447 0.94658 0.0
C715 C 0.34889 0.60788 0.91813 0.0
C716 C 0.34747 0.60807 0.8524 0.0
C717 C 0.6133 0.12306 0.1491 0.0
C718 C 0.63874 0.10977 0.11789 0.0
C719 C 0.61466 0.12471 0.21366 0.0
C720 C 0.64148 0.11308 0.25006 0.0
H721 H 0.59234 0.13285 0.12332 0.0
H722 H 0.59487 0.13609 0.23504 0.0
S723 S 0.71295 0.07262 0.19208 0.0
N724 N 0.69062 0.08256 0.12937 0.0
N725 N 0.693 0.08539 0.2501 0.0
C726 C 0.66665 0.09882 0.21966 0.0
C727 C 0.66534 0.09729 0.15393 0.0
C728 C 0.86968 0.43491 0.32561 0.0
C729 C 0.87635 0.40592 0.29632 0.0
C730 C 0.87141 0.43567 0.39022 0.0
C731 C 0.88002 0.40758 0.4275 0.0
H732 H 0.86291 0.45699 0.29845 0.0
H733 H 0.86553 0.45828 0.41132 0.0
S734 S 0.90124 0.32618 0.37243 0.0
N735 N 0.89295 0.34892 0.30878 0.0
N736 N 0.89606 0.35026 0.43012 0.0
C737 C 0.8872 0.37862 0.39859 0.0
C738 C 0.88543 0.37786 0.33294 0.0
C739 C 0.39904 0.13501 0.19494 0.0
C740 C 0.37804 0.11535 0.22981 0.0
C741 C 0.40031 0.13264 0.13065 0.0
C742 C 0.38052 0.11061 0.09852 0.0
H743 H 0.414 0.15303 0.21729 0.0
H744 H 0.41642 0.14867 0.10573 0.0
S745 S 0.32443 0.05068 0.16903 0.0
N746 N 0.33913 0.07105 0.22769 0.0
N747 N 0.34138 0.06677 0.10751 0.0
C748 C 0.36021 0.09011 0.13316 0.0
C749 C 0.35901 0.09242 0.19848 0.0
C750 C 0.66256 0.62836 0.89669 0.0
C751 C 0.63825 0.61166 0.92795 0.0
C752 C 0.66063 0.63327 0.83233 0.0
C753 C 0.63428 0.62183 0.79663 0.0
H754 H 0.68346 0.63727 0.92207 0.0
H755 H 0.68031 0.6456 0.81016 0.0
S756 S 0.56274 0.57958 0.8569 0.0
N757 N 0.58593 0.58569 0.91879 0.0
N758 N 0.58243 0.5948 0.79793 0.0
C759 C 0.60949 0.60569 0.82743 0.0
C760 C 0.61145 0.60068 0.89298 0.0
C761 C 0.12159 0.92075 0.62572 0.0
C762 C 0.14007 0.89794 0.59589 0.0
C763 C 0.12168 0.92093 0.69031 0.0
C764 C 0.14052 0.89851 0.72743 0.0
H765 H 0.1077 0.9393 0.599 0.0
H766 H 0.10747 0.93915 0.71131 0.0
S767 S 0.18967 0.83099 0.67301 0.0
N768 N 0.17501 0.85014 0.60924 0.0
N769 N 0.1757 0.85103 0.7301 0.0
C770 C 0.15815 0.87487 0.69836 0.0
C771 C 0.15779 0.87443 0.63282 0.0
C772 C 0.902 0.62796 0.69983 0.0
C773 C 0.87519 0.61634 0.73142 0.0
C774 C 0.90383 0.62542 0.63571 0.0
C775 C 0.87889 0.61123 0.60008 0.0
H776 H 0.92146 0.6399 0.72463 0.0
H777 H 0.92479 0.63515 0.6137 0.0
S778 S 0.80506 0.57357 0.66102 0.0
N779 N 0.82429 0.5876 0.72229 0.0
N780 N 0.82757 0.58316 0.60245 0.0
C781 C 0.85231 0.59879 0.63133 0.0
C782 C 0.85052 0.60122 0.6966 0.0
C783 C 0.15414 0.13632 0.4003 0.0
C784 C 0.1401 0.10927 0.43115 0.0
C785 C 0.15264 0.14008 0.33585 0.0
C786 C 0.13651 0.1173 0.29857 0.0
H787 H 0.16669 0.15478 0.42622 0.0
H788 H 0.16486 0.16098 0.31531 0.0
S789 S 0.09513 0.04196 0.35712 0.0
N790 N 0.10976 0.05886 0.41975 0.0
N791 N 0.10558 0.06653 0.29897 0.0
C792 C 0.12232 0.08994 0.32904 0.0
C793 C 0.12445 0.08581 0.39496 0.0
C794 C 0.64679 0.42707 0.19391 0.0
C795 C 0.63881 0.39844 0.22841 0.0
C796 C 0.64616 0.42758 0.12916 0.0
C797 C 0.63785 0.39946 0.09692 0.0
H798 H 0.65384 0.44902 0.21711 0.0
H799 H 0.65277 0.44997 0.10403 0.0
S800 S 0.61601 0.31826 0.16669 0.0
N801 N 0.62272 0.34137 0.22615 0.0
N802 N 0.62199 0.34215 0.1047 0.0
C803 C 0.62985 0.37075 0.13104 0.0
C804 C 0.63023 0.37032 0.19678 0.0
C805 C 0.367 0.9301 0.89009 0.0
C806 C 0.38514 0.90669 0.9265 0.0
C807 C 0.36454 0.929 0.82563 0.0
C808 C 0.3802 0.90444 0.79546 0.0
H809 H 0.35425 0.94918 0.91183 0.0
H810 H 0.35013 0.94728 0.79929 0.0
S811 S 0.42947 0.83658 0.86915 0.0
N812 N 0.4183 0.85772 0.92744 0.0
N813 N 0.41383 0.8558 0.8062 0.0
C814 C 0.39851 0.88097 0.83112 0.0
C815 C 0.40098 0.88204 0.89674 0.0
C816 C 0.16376 0.7417 0.23498 0.0
C817 C 0.13527 0.72327 0.23815 0.0
C818 C 0.16331 0.7764 0.23178 0.0
C819 C 0.13432 0.7941 0.2313 0.0
H820 H 0.18634 0.72926 0.22998 0.0
H821 H 0.18559 0.7894 0.22484 0.0
S822 S 0.05327 0.75774 0.24126 0.0
N823 N 0.07743 0.72559 0.24317 0.0
N824 N 0.07659 0.79046 0.23686 0.0
C825 C 0.10589 0.776 0.23747 0.0
C826 C 0.10636 0.74072 0.241 0.0
C827 C 0.52737 0.86193 0.38016 0.0
C828 C 0.54575 0.89035 0.39073 0.0
C829 C 0.49334 0.8629 0.37584 0.0
C830 C 0.47625 0.89233 0.38184 0.0
H831 H 0.53934 0.83947 0.36966 0.0
H832 H 0.48052 0.84114 0.36224 0.0
S833 S 0.51281 0.9733 0.41133 0.0
N834 N 0.54388 0.94842 0.40905 0.0
N835 N 0.48066 0.95024 0.40094 0.0
C836 C 0.49437 0.92035 0.39576 0.0
C837 C 0.52882 0.91936 0.40023 0.0
C838 C 0.37338 0.2675 0.77317 0.0
C839 C 0.39169 0.28863 0.73545 0.0
C840 C 0.374 0.23301 0.76724 0.0
C841 C 0.39267 0.21893 0.72295 0.0
H842 H 0.35652 0.27775 0.80336 0.0
H843 H 0.35782 0.21773 0.79352 0.0
S844 S 0.44744 0.26358 0.61846 0.0
N845 N 0.43128 0.29254 0.65731 0.0
N846 N 0.4323 0.22878 0.64585 0.0
C847 C 0.41295 0.23979 0.68906 0.0
C848 C 0.41251 0.27434 0.69543 0.0
C849 C 0.99143 0.09435 0.88042 0.0
C850 C 0.97293 0.12153 0.89482 0.0
C851 C 0.025 0.09456 0.88691 0.0
C852 C 0.04185 0.12192 0.90835 0.0
H853 H 0.97993 0.07338 0.86011 0.0
H854 H 0.03801 0.07391 0.87085 0.0
S855 S 1.00483 0.19819 0.95839 0.0
N856 N 0.97384 0.17567 0.93627 0.0
N857 N 0.03721 0.17598 0.94901 0.0
C858 C 0.02366 0.14833 0.92748 0.0
C859 C 0.98913 0.14815 0.92069 0.0
C860 C 0.15369 0.27491 0.78978 0.0
C861 C 0.13269 0.28912 0.82978 0.0
C862 C 0.15756 0.24037 0.78912 0.0
C863 C 0.13986 0.21872 0.82709 0.0
H864 H 0.16904 0.29041 0.76256 0.0
H865 H 0.17584 0.23064 0.76134 0.0
S866 S 0.08016 0.24328 0.93687 0.0
N867 N 0.09236 0.2783 0.90499 0.0
N868 N 0.0996 0.21426 0.90364 0.0
C869 C 0.11715 0.23259 0.86371 0.0
C870 C 0.11346 0.26747 0.86478 0.0
C871 C 0.02258 0.92512 0.18208 0.0
C872 C 0.04123 0.89852 0.16529 0.0
C873 C 0.98917 0.92292 0.18545 0.0
C874 C 0.97237 0.894 0.17219 0.0
H875 H 0.03421 0.94726 0.19732 0.0
H876 H 0.97662 0.94341 0.20328 0.0
S877 S 1.00869 0.81909 0.11461 0.0
N878 N 0.03968 0.84367 0.12647 0.0
N879 N 0.97655 0.83946 0.13307 0.0
C880 C 0.99011 0.86821 0.14923 0.0
C881 C 0.02458 0.8705 0.14563 0.0
C882 C 0.37064 0.74355 0.2761 0.0
C883 C 0.39071 0.72491 0.31841 0.0
C884 C 0.37172 0.77836 0.27357 0.0
C885 C 0.39283 0.79528 0.31338 0.0
H886 H 0.35215 0.73144 0.24908 0.0
H887 H 0.354 0.79194 0.24465 0.0
S888 S 0.45245 0.7577 0.42732 0.0
N889 N 0.43446 0.72618 0.39591 0.0
N890 N 0.43598 0.7906 0.39189 0.0
C891 C 0.41472 0.77669 0.35167 0.0
C892 C 0.4138 0.74178 0.35394 0.0
C893 C 0.52614 0.12957 0.71182 0.0
C894 C 0.54349 0.12097 0.66107 0.0
C895 C 0.49238 0.12927 0.70938 0.0
C896 C 0.47471 0.12037 0.6561 0.0
H897 H 0.53876 0.13452 0.755 0.0
H898 H 0.48006 0.13398 0.75077 0.0
S899 S 0.50856 0.09822 0.50951 0.0
N900 N 0.54041 0.10524 0.55496 0.0
N901 N 0.47701 0.10476 0.5504 0.0
C902 C 0.4917 0.11352 0.60409 0.0
C903 C 0.5261 0.11378 0.60658 0.0
C904 C 0.88878 0.24497 0.78205 0.0
C905 C 0.87683 0.22801 0.83419 0.0
C906 C 0.88997 0.2798 0.77813 0.0
C907 C 0.87924 0.29827 0.82627 0.0
H908 H 0.89895 0.23136 0.7462 0.0
H909 H 0.90105 0.29211 0.73939 0.0
S910 S 0.84125 0.26543 0.96769 0.0
N911 N 0.85032 0.23269 0.93061 0.0
N912 N 0.85291 0.29683 0.92379 0.0
C913 C 0.86501 0.28135 0.8759 0.0
C914 C 0.8637 0.24657 0.8797 0.0
C915 C 0.6288 0.76554 0.39461 0.0
C916 C 0.63248 0.78771 0.34317 0.0
C917 C 0.63239 0.73162 0.39127 0.0
C918 C 0.63937 0.71741 0.33617 0.0
H919 H 0.62447 0.77432 0.43963 0.0
H920 H 0.63113 0.71641 0.43335 0.0
S921 S 0.64407 0.76223 0.1844 0.0
N922 N 0.63857 0.79167 0.23251 0.0
N923 N 0.64494 0.72724 0.22627 0.0
C924 C 0.64029 0.73843 0.28282 0.0
C925 C 0.63683 0.77361 0.28624 0.0
C926 C 0.90351 0.73386 0.26146 0.0
C927 C 0.87895 0.71696 0.22961 0.0
C928 C 0.9023 0.7684 0.26539 0.0
C929 C 0.8764 0.78672 0.23781 0.0
H930 H 0.92483 0.72077 0.27904 0.0
H931 H 0.92282 0.78097 0.28539 0.0
S932 S 0.80553 0.75364 0.15236 0.0
N933 N 0.82773 0.72111 0.17258 0.0
N934 N 0.82491 0.78498 0.18146 0.0
C935 C 0.85085 0.76957 0.20989 0.0
C936 C 0.85229 0.73495 0.20526 0.0
C937 C 0.66074 0.23917 0.75025 0.0
C938 C 0.63255 0.22071 0.74014 0.0
C939 C 0.66022 0.27397 0.74646 0.0
C940 C 0.63158 0.29156 0.73146 0.0
H941 H 0.68367 0.22673 0.75599 0.0
H942 H 0.68275 0.28707 0.75005 0.0
S943 S 0.55138 0.25467 0.70273 0.0
N944 N 0.57522 0.22276 0.71813 0.0
N945 N 0.57447 0.2874 0.708 0.0
C946 C 0.60325 0.27324 0.72397 0.0
C947 C 0.60368 0.23808 0.72917 0.0
C948 C 1.0001 0.40415 0.80765 0.0
C949 C 0.9787 0.39637 0.85469 0.0
C950 C 0.03359 0.40372 0.81817 0.0
C951 C 0.04818 0.39527 0.87641 0.0
H952 H 0.99097 0.41159 0.7617 0.0
H953 H 0.0483 0.41106 0.78015 0.0
S954 S 1.00422 0.37009 1.01531 0.0
N955 N 0.97531 0.37783 0.962 0.0
N956 N 0.03846 0.37702 0.98169 0.0
C957 C 0.02746 0.38598 0.92369 0.0
C958 C 0.99285 0.38653 0.91294 0.0
C959 C 0.49074 0.62213 0.44649 0.0
C960 C 0.47018 0.62283 0.39312 0.0
C961 C 0.52458 0.6242 0.44267 0.0
C962 C 0.53907 0.62676 0.38526 0.0
H963 H 0.48071 0.61876 0.49133 0.0
H964 H 0.53945 0.6227 0.4848 0.0
S965 S 0.4947 0.63053 0.23173 0.0
N966 N 0.46638 0.62723 0.28186 0.0
N967 N 0.52867 0.63111 0.27342 0.0
C968 C 0.51815 0.62852 0.33171 0.0
C969 C 0.48414 0.62652 0.33596 0.0
C970 C 0.48682 0.40619 0.63424 0.0
C971 C 0.47181 0.38463 0.67679 0.0
C972 C 0.52078 0.40708 0.63048 0.0
C973 C 0.54111 0.38657 0.66931 0.0
H974 H 0.47253 0.42444 0.60757 0.0
H975 H 0.53122 0.4259 0.60084 0.0
S976 S 0.51377 0.32517 0.78693 0.0
N977 N 0.48017 0.34109 0.75559 0.0
N978 N 0.54304 0.34386 0.7507 0.0
C979 C 0.52611 0.36397 0.70958 0.0
C980 C 0.49183 0.36269 0.71265 0.0
C981 C 0.02691 0.63599 0.20597 0.0
C982 C 0.04427 0.62189 0.15993 0.0
C983 C 0.99307 0.63531 0.20417 0.0
C984 C 0.9754 0.62053 0.15625 0.0
H985 H 0.03958 0.64559 0.24577 0.0
H986 H 0.98076 0.6444 0.24263 0.0
S987 S 0.00926 0.58279 1.02222 0.0
N988 N 0.04109 0.59475 0.06323 0.0
N989 N 0.97775 0.59353 0.05986 0.0
C990 C 0.99243 0.60802 0.10845 0.0
C991 C 0.02679 0.60869 0.11029 0.0
C992 C 0.12925 0.534 1.01977 0.0
C993 C 0.14154 0.53092 0.08202 0.0
C994 C 0.13313 0.50943 0.97702 0.0
C995 C 0.14937 0.48008 0.99402 0.0
H996 H 0.11622 0.55588 1.00326 0.0
H997 H 0.12233 0.51304 0.93099 0.0
S998 S 0.18662 0.45878 0.15024 0.0
N999 N 0.17096 0.4955 0.15732 0.0
N1000 N 0.17833 0.44938 0.07828 0.0
C1001 C 0.16186 0.47651 0.0561 0.0
C1002 C 0.15787 0.50166 0.09962 0.0
C1003 C 0.73539 0.8589 0.28492 0.0
C1004 C 0.73182 0.88274 0.32896 0.0
C1005 C 0.76118 0.85963 0.24453 0.0
C1006 C 0.78524 0.88411 0.24581 0.0
H1007 H 0.71792 0.83935 0.28147 0.0
H1008 H 0.76237 0.84042 0.21211 0.0
S1009 S 0.78737 0.95266 0.35291 0.0
N1010 N 0.75509 0.93167 0.37161 0.0
N1011 N 0.80248 0.93385 0.29523 0.0
C1012 C 0.78152 0.90865 0.28894 0.0
C1013 C 0.75525 0.90775 0.3304 0.0
C1014 C 0.40266 0.49469 0.56526 0.0
C1015 C 0.37495 0.4889 0.59873 0.0
C1016 C 0.40224 0.5161 0.51238 0.0
C1017 C 0.37382 0.53177 0.48951 0.0
H1018 H 0.42458 0.48145 0.57864 0.0
H1019 H 0.42446 0.52084 0.48974 0.0
S1020 S 0.29487 0.52558 0.56004 0.0
N1021 N 0.31833 0.50097 0.60479 0.0
N1022 N 0.31766 0.54126 0.50599 0.0
C1023 C 0.34608 0.52643 0.52268 0.0
C1024 C 0.34658 0.50499 0.57686 0.0
C1025 C 0.75725 0.1491 0.83058 0.0
C1026 C 0.78336 0.12746 0.82612 0.0
C1027 C 0.72981 0.14853 0.78985 0.0
C1028 C 0.72693 0.12632 0.74228 0.0
H1029 H 0.75815 0.16709 0.86557 0.0
H1030 H 0.71077 0.16605 0.79518 0.0
S1031 S 0.78744 0.06363 0.71032 0.0
N1032 N 0.803 0.08144 0.77143 0.0
N1033 N 0.75268 0.08197 0.69317 0.0
C1034 C 0.7523 0.10394 0.73802 0.0
C1035 C 0.78007 0.10405 0.7803 0.0
C1036 C 0.90348 0.52929 1.01358 0.0
C1037 C 0.88138 0.53106 0.06091 0.0
C1038 C 0.89845 0.50882 0.96331 0.0
C1039 C 0.87064 0.48962 0.95709 0.0
H1040 H 0.9249 0.54427 1.01512 0.0
H1041 H 0.91693 0.50731 0.93029 0.0
S1042 S 0.80436 0.48629 0.06649 0.0
N1043 N 0.83037 0.51205 0.09705 0.0
N1044 N 0.8201 0.4746 1.0029 0.0
C1045 C 0.84811 0.49163 1.00386 0.0
C1046 C 0.85368 0.51186 0.05557 0.0
C1047 C 0.25611 0.15124 0.78456 0.0
C1048 C 0.24052 0.12141 0.7988 0.0
C1049 C 0.28221 0.15286 0.74533 0.0
C1050 C 0.29417 0.12467 0.71886 0.0
H1051 H 0.247 0.17384 0.80127 0.0
H1052 H 0.29271 0.17662 0.73462 0.0
S1053 S 0.26262 0.04015 0.74342 0.0
N1054 N 0.23944 0.0628 0.784 0.0
N1055 N 0.28889 0.06559 0.7125 0.0
C1056 C 0.27966 0.09443 0.73495 0.0
C1057 C 0.25273 0.09289 0.77405 0.0
C1058 C 0.61233 0.53193 0.49381 0.0
C1059 C 0.63775 0.5357 0.45332 0.0
C1060 C 0.61398 0.50904 0.54546 0.0
C1061 C 0.64108 0.48872 0.55881 0.0
H1062 H 0.59079 0.54652 0.4851 0.0
H1063 H 0.5932 0.50599 0.5731 0.0
S1064 S 0.71356 0.48804 0.46606 0.0
N1065 N 0.69079 0.51698 0.43088 0.0
N1066 N 0.69351 0.47383 0.52533 0.0
C1067 C 0.66669 0.49277 0.51893 0.0
C1068 C 0.66519 0.51625 0.46722 0.0
C1069 C 0.26294 0.86368 0.30458 0.0
C1070 C 0.28696 0.88801 0.29933 0.0
C1071 C 0.23519 0.86357 0.26461 0.0
C1072 C 0.22965 0.88791 0.21714 0.0
H1073 H 0.26566 0.84412 0.33989 0.0
H1074 H 0.2178 0.84412 0.27105 0.0
S1075 S 0.28423 0.95742 0.18143 0.0
N1076 N 0.30202 0.93814 0.24231 0.0
N1077 N 0.25093 0.93685 0.16615 0.0
C1078 C 0.25303 0.9127 0.21141 0.0
C1079 C 0.28127 0.91307 0.25262 0.0
C1080 C 0.62431 1.00631 0.47934 0.0
C1081 C 0.64741 0.9813 0.489 0.0
C1082 C 0.61979 0.02985 0.52408 0.0
C1083 C 0.63766 0.02946 0.58141 0.0
H1084 H 0.60929 1.00752 0.43738 0.0
H1085 H 0.60215 0.04898 0.51318 0.0
S1086 S 0.7006 0.96885 0.63181 0.0
N1087 N 0.68858 0.95796 0.56249 0.0
N1088 N 0.67876 1.00117 0.64535 0.0
C1089 C 0.66013 1.0042 0.5925 0.0
C1090 C 0.66536 0.98063 0.54674 0.0
C1091 C 0.25818 0.40588 0.83856 0.0
C1092 C 0.23253 0.38321 0.83403 0.0
C1093 C 0.28362 0.40676 0.79667 0.0
C1094 C 0.28494 0.38481 0.74826 0.0
H1095 H 0.25899 0.42271 0.87556 0.0
H1096 H 0.3025 0.42462 0.80287 0.0
S1097 S 0.22019 0.32621 0.70733 0.0
N1098 N 0.20819 0.34197 0.7708 0.0
N1099 N 0.25496 0.34354 0.69354 0.0
C1100 C 0.25835 0.36367 0.74128 0.0
C1101 C 0.23266 0.36279 0.78364 0.0
C1102 C 0.85926 0.98209 1.0224 0.0
C1103 C 0.87608 0.98237 0.08094 0.0
C1104 C 0.86411 1.00592 0.97477 0.0
C1105 C 0.88605 0.03139 0.98304 0.0
H1106 H 0.84151 0.96343 1.01286 0.0
H1107 H 0.84918 1.00542 0.93276 0.0
S1108 S 0.9394 0.04193 0.12277 0.0
N1109 N 0.91781 0.00923 0.141 0.0
N1110 N 0.92734 0.05382 0.05187 0.0
C1111 C 0.90451 0.03096 0.03961 0.0
C1112 C 0.89936 1.00675 0.08839 0.0
C1113 C 0.23487 0.60404 0.28269 0.0
C1114 C 0.23079 0.62796 0.23354 0.0
C1115 C 0.26185 0.60433 0.32525 0.0
C1116 C 0.28614 0.62837 0.32021 0.0
H1117 H 0.21693 0.58523 0.28904 0.0
H1118 H 0.26324 0.58614 0.36324 0.0
S1119 S 0.29121 0.69137 0.19252 0.0
N1120 N 0.25667 0.67294 0.17791 0.0
N1121 N 0.30647 0.67333 0.25683 0.0
C1122 C 0.2834 0.6508 0.26916 0.0
C1123 C 0.25615 0.65055 0.22614 0.0
C1124 C 0.39592 0.00961 0.45857 0.0
C1125 C 0.37266 0.98478 0.46268 0.0
C1126 C 0.40071 0.03215 0.50566 0.0
C1127 C 0.38292 0.03083 0.55986 0.0
H1128 H 0.41082 0.01148 0.41916 0.0
H1129 H 0.41845 0.05124 0.49903 0.0
S1130 S 0.31974 0.97016 0.59571 0.0
N1131 N 0.33153 0.96047 0.52766 0.0
N1132 N 0.3418 1.00192 0.61508 0.0
C1133 C 0.36031 1.00572 0.56551 0.0
C1134 C 0.35482 0.98316 0.51732 0.0
C1135 C 0.77992 0.6524 0.23904 0.0
C1136 C 0.79501 0.62368 0.22089 0.0
C1137 C 0.75389 0.65124 0.27828 0.0
C1138 C 0.74164 0.62129 0.30186 0.0
H1139 H 0.78762 0.6762 0.22132 0.0
H1140 H 0.74219 0.67402 0.28772 0.0
S1141 S 0.77246 0.53869 0.27057 0.0
N1142 N 0.79592 0.56409 0.23186 0.0
N1143 N 0.74697 0.56198 0.30473 0.0
C1144 C 0.75704 0.59234 0.28587 0.0
C1145 C 0.78371 0.5935 0.24592 0.0
C1146 C 0.16599 0.02784 0.98656 0.0
C1147 C 0.13646 0.03995 0.96058 0.0
C1148 C 0.16744 1.00441 0.03693 0.0
C1149 C 0.13955 0.99292 0.06526 0.0
H1150 H 0.1881 0.0352 0.96577 0.0
H1151 H 0.19051 0.99392 0.05179 0.0
S1152 S 0.05657 0.01985 1.0202 0.0
N1153 N 0.07883 0.0404 0.97074 0.0
N1154 N 0.0817 0.99744 0.06567 0.0
C1155 C 0.11012 1.00639 0.04207 0.0
C1156 C 0.10855 0.02961 0.98995 0.0
C1157 C 0.73962 0.35852 0.76133 0.0
C1158 C 0.7298 0.38574 0.72238 0.0
C1159 C 0.76725 0.35942 0.80186 0.0
C1160 C 0.78717 0.38741 0.80524 0.0
H1161 H 0.72559 0.33618 0.76088 0.0
H1162 H 0.77323 0.33764 0.83054 0.0
S1163 S 0.77346 0.46502 0.71029 0.0
N1164 N 0.74312 0.44149 0.68882 0.0
N1165 N 0.79476 0.44321 0.76359 0.0
C1166 C 0.77769 0.41486 0.76612 0.0
C1167 C 0.74924 0.41403 0.72531 0.0
loop_
_geom_bond_atom_site_label_1
_geom_bond_atom_site_label_2
_geom_bond_distance
_geom_bond_site_symmetry_2
_ccdc_geom_bond_type
C0 Eu1 2.835 1_556 S
C0 C2 1.500 . S
C0 O20 1.257 1_556 S
C0 O21 1.260 1_556 S
Eu1 C0 2.835 1_554 S
Eu1 O20 2.473 . S
Eu1 O21 2.480 . S
Eu1 O22 2.430 . S
Eu1 O23 2.670 . S
Eu1 O24 2.394 . S
Eu1 O29 2.355 . S
Eu1 O31 2.374 . S
C2 C0 1.500 . S
C2 C3 1.377 . S
C2 C7 1.377 . S
C3 C2 1.377 . S
C3 C4 1.395 . S
C3 H32 0.931 . S
C4 C3 1.395 . S
C4 C5 1.383 . S
C4 H33 0.931 . S
C5 C4 1.383 . S
C5 C6 1.394 . S
C6 C5 1.394 . S
C6 C7 1.378 . S
C6 H34 0.931 . S
C7 C2 1.377 . S
C7 C6 1.378 . S
C7 H35 0.931 . S
C8 O22 1.259 . S
C8 O23 1.270 . S
C9 O24 1.251 . S
C9 O25 1.251 . S
C10 Eu11 2.835 . S
C10 C12 1.500 . S
C10 O26 1.257 . S
C10 O27 1.260 . S
Eu11 C10 2.835 . S
Eu11 O23 2.355 . S
Eu11 O25 2.374 . S
Eu11 O26 2.473 . S
Eu11 O27 2.480 . S
Eu11 O28 2.430 . S
Eu11 O29 2.670 . S
Eu11 O30 2.394 . S
C12 C10 1.500 . S
C12 C13 1.377 . S
C12 C17 1.377 . S
C13 C12 1.377 . S
C13 C14 1.395 . S
C13 H36 0.931 . S
C14 C13 1.395 . S
C14 C15 1.383 . S
C14 H37 0.931 . S
C15 C14 1.383 . S
C15 C16 1.394 . S
C16 C15 1.394 . S
C16 C17 1.378 . S
C16 H38 0.931 . S
C17 C12 1.377 . S
C17 C16 1.378 . S
C17 H39 0.931 . S
C18 O28 1.259 . S
C18 O29 1.270 . S
C19 O30 1.251 . S
C19 O31 1.251 . S
O20 C0 1.257 1_554 S
O20 Eu1 2.473 . S
O21 C0 1.260 1_554 S
O21 Eu1 2.480 . S
O22 Eu1 2.430 . S
O22 C8 1.259 . S
O23 Eu1 2.670 . S
O23 C8 1.270 . S
O23 Eu11 2.355 . S
O24 Eu1 2.394 . S
O24 C9 1.251 . S
O25 C9 1.251 . S
O25 Eu11 2.374 . S
O26 C10 1.257 . S
O26 Eu11 2.473 . S
O27 C10 1.260 . S
O27 Eu11 2.480 . S
O28 Eu11 2.430 . S
O28 C18 1.259 . S
O29 Eu1 2.355 . S
O29 Eu11 2.670 . S
O29 C18 1.270 . S
O30 Eu11 2.394 . S
O30 C19 1.251 . S
O31 Eu1 2.374 . S
O31 C19 1.251 . S
H32 C3 0.931 . S
H33 C4 0.931 . S
H34 C6 0.931 . S
H35 C7 0.931 . S
H36 C13 0.931 . S
H37 C14 0.931 . S
H38 C16 0.931 . S
H39 C17 0.931 . S
C40 Eu41 2.835 . S
C40 C42 1.500 . S
C40 O60 1.257 . S
C40 O61 1.260 . S
Eu41 C40 2.835 . S
Eu41 O60 2.473 . S
Eu41 O61 2.480 . S
Eu41 O62 2.430 . S
Eu41 O63 2.670 . S
Eu41 O64 2.394 . S
Eu41 O69 2.355 . S
Eu41 O71 2.374 . S
C42 C40 1.500 . S
C42 C43 1.377 . S
C42 C47 1.377 . S
C43 C42 1.377 . S
C43 C44 1.395 . S
C43 H72 0.931 . S
C44 C43 1.395 . S
C44 C45 1.383 . S
C44 H73 0.931 . S
C45 C44 1.383 . S
C45 C46 1.394 . S
C46 C45 1.394 . S
C46 C47 1.378 . S
C46 H74 0.931 . S
C47 C42 1.377 . S
C47 C46 1.378 . S
C47 H75 0.931 . S
C48 O62 1.259 . S
C48 O63 1.270 . S
C49 O64 1.251 . S
C49 O65 1.251 . S
C50 Eu51 2.835 . S
C50 C52 1.500 . S
C50 O66 1.257 . S
C50 O67 1.260 . S
Eu51 C50 2.835 . S
Eu51 O63 2.355 . S
Eu51 O65 2.374 . S
Eu51 O66 2.473 . S
Eu51 O67 2.480 . S
Eu51 O68 2.430 . S
Eu51 O69 2.670 . S
Eu51 O70 2.394 . S
C52 C50 1.500 . S
C52 C53 1.377 . S
C52 C57 1.377 . S
C53 C52 1.377 . S
C53 C54 1.395 1_554 S
C53 H76 0.931 . S
C54 C53 1.395 1_556 S
C54 C55 1.383 . S
C54 H77 0.931 . S
C55 C54 1.383 . S
C55 C56 1.394 1_556 S
C56 C55 1.394 1_554 S
C56 C57 1.378 . S
C56 H78 0.931 1_554 S
C57 C52 1.377 . S
C57 C56 1.378 . S
C57 H79 0.931 . S
C58 O68 1.259 . S
C58 O69 1.270 . S
C59 O70 1.251 . S
C59 O71 1.251 . S
O60 C40 1.257 . S
O60 Eu41 2.473 . S
O61 C40 1.260 . S
O61 Eu41 2.480 . S
O62 Eu41 2.430 . S
O62 C48 1.259 . S
O63 Eu41 2.670 . S
O63 C48 1.270 . S
O63 Eu51 2.355 . S
O64 Eu41 2.394 . S
O64 C49 1.251 . S
O65 C49 1.251 . S
O65 Eu51 2.374 . S
O66 C50 1.257 . S
O66 Eu51 2.473 . S
O67 C50 1.260 . S
O67 Eu51 2.480 . S
O68 Eu51 2.430 . S
O68 C58 1.259 . S
O69 Eu41 2.355 . S
O69 Eu51 2.670 . S
O69 C58 1.270 . S
O70 Eu51 2.394 . S
O70 C59 1.251 . S
O71 Eu41 2.374 . S
O71 C59 1.251 . S
H72 C43 0.931 . S
H73 C44 0.931 . S
H74 C46 0.931 . S
H75 C47 0.931 . S
H76 C53 0.931 . S
H77 C54 0.931 . S
H78 C56 0.931 1_556 S
H79 C57 0.931 . S
C80 Eu81 2.835 . S
C80 C82 1.500 . S
C80 O100 1.257 . S
C80 O101 1.260 . S
Eu81 C80 2.835 . S
Eu81 O100 2.473 . S
Eu81 O101 2.480 . S
Eu81 O102 2.430 . S
Eu81 O103 2.670 . S
Eu81 O104 2.394 . S
Eu81 O109 2.355 . S
Eu81 O111 2.374 . S
C82 C80 1.500 . S
C82 C83 1.377 . S
C82 C87 1.377 . S
C83 C82 1.377 . S
C83 C84 1.395 . S
C83 H112 0.931 . S
C84 C83 1.395 . S
C84 C85 1.383 . S
C84 H113 0.931 . S
C85 C84 1.383 . S
C85 C86 1.394 . S
C86 C85 1.394 . S
C86 C87 1.378 . S
C86 H114 0.931 . S
C87 C82 1.377 . S
C87 C86 1.378 . S
C87 H115 0.931 . S
C88 O102 1.259 . S
C88 O103 1.270 . S
C89 O104 1.251 . S
C89 O105 1.251 . S
C90 Eu91 2.835 . S
C90 C92 1.500 . S
C90 O106 1.257 . S
C90 O107 1.260 . S
Eu91 C90 2.835 . S
Eu91 O103 2.355 . S
Eu91 O105 2.374 . S
Eu91 O106 2.473 . S
Eu91 O107 2.480 . S
Eu91 O108 2.430 . S
Eu91 O109 2.670 . S
Eu91 O110 2.394 . S
C92 C90 1.500 . S
C92 C93 1.377 . S
C92 C97 1.377 . S
C93 C92 1.377 . S
C93 C94 1.395 1_556 S
C93 H116 0.931 . S
C94 C93 1.395 1_554 S
C94 C95 1.383 . S
C94 H117 0.931 . S
C95 C94 1.383 . S
C95 C96 1.394 . S
C96 C95 1.394 . S
C96 C97 1.378 1_554 S
C96 H118 0.931 . S
C97 C92 1.377 . S
C97 C96 1.378 1_556 S
C97 H119 0.931 . S
C98 O108 1.259 . S
C98 O109 1.270 . S
C99 O110 1.251 . S
C99 O111 1.251 . S
O100 C80 1.257 . S
O100 Eu81 2.473 . S
O101 C80 1.260 . S
O101 Eu81 2.480 . S
O102 Eu81 2.430 . S
O102 C88 1.259 . S
O103 Eu81 2.670 . S
O103 C88 1.270 . S
O103 Eu91 2.355 . S
O104 Eu81 2.394 . S
O104 C89 1.251 . S
O105 C89 1.251 . S
O105 Eu91 2.374 . S
O106 C90 1.257 . S
O106 Eu91 2.473 . S
O107 C90 1.260 . S
O107 Eu91 2.480 . S
O108 Eu91 2.430 . S
O108 C98 1.259 . S
O109 Eu81 2.355 . S
O109 Eu91 2.670 . S
O109 C98 1.270 . S
O110 Eu91 2.394 . S
O110 C99 1.251 . S
O111 Eu81 2.374 . S
O111 C99 1.251 . S
H112 C83 0.931 . S
H113 C84 0.931 . S
H114 C86 0.931 . S
H115 C87 0.931 . S
H116 C93 0.931 . S
H117 C94 0.931 . S
H118 C96 0.931 . S
H119 C97 0.931 . S
C120 Eu121 2.835 1_554 S
C120 C122 1.500 . S
C120 O140 1.257 . S
C120 O141 1.260 . S
Eu121 C120 2.835 1_556 S
Eu121 O140 2.473 1_556 S
Eu121 O141 2.480 1_556 S
Eu121 O142 2.430 . S
Eu121 O143 2.670 . S
Eu121 O144 2.394 . S
Eu121 O149 2.355 . S
Eu121 O151 2.374 . S
C122 C120 1.500 . S
C122 C123 1.377 . S
C122 C127 1.377 . S
C123 C122 1.377 . S
C123 C124 1.395 . S
C123 H152 0.931 . S
C124 C123 1.395 . S
C124 C125 1.383 . S
C124 H153 0.931 . S
C125 C124 1.383 . S
C125 C126 1.394 . S
C126 C125 1.394 . S
C126 C127 1.378 . S
C126 H154 0.931 . S
C127 C122 1.377 . S
C127 C126 1.378 . S
C127 H155 0.931 . S
C128 O142 1.259 . S
C128 O143 1.270 . S
C129 O144 1.251 . S
C129 O145 1.251 . S
C130 Eu131 2.835 . S
C130 C132 1.500 . S
C130 O146 1.257 . S
C130 O147 1.260 . S
Eu131 C130 2.835 . S
Eu131 O143 2.355 . S
Eu131 O145 2.374 . S
Eu131 O146 2.473 . S
Eu131 O147 2.480 . S
Eu131 O148 2.430 . S
Eu131 O149 2.670 . S
Eu131 O150 2.394 . S
C132 C130 1.500 . S
C132 C133 1.377 . S
C132 C137 1.377 . S
C133 C132 1.377 . S
C133 C134 1.395 . S
C133 H156 0.931 . S
C134 C133 1.395 . S
C134 C135 1.383 . S
C134 H157 0.931 . S
C135 C134 1.383 . S
C135 C136 1.394 . S
C136 C135 1.394 . S
C136 C137 1.378 . S
C136 H158 0.931 . S
C137 C132 1.377 . S
C137 C136 1.378 . S
C137 H159 0.931 . S
C138 O148 1.259 . S
C138 O149 1.270 . S
C139 O150 1.251 . S
C139 O151 1.251 . S
O140 C120 1.257 . S
O140 Eu121 2.473 1_554 S
O141 C120 1.260 . S
O141 Eu121 2.480 1_554 S
O142 Eu121 2.430 . S
O142 C128 1.259 . S
O143 Eu121 2.670 . S
O143 C128 1.270 . S
O143 Eu131 2.355 . S
O144 Eu121 2.394 . S
O144 C129 1.251 . S
O145 C129 1.251 . S
O145 Eu131 2.374 . S
O146 C130 1.257 . S
O146 Eu131 2.473 . S
O147 C130 1.260 . S
O147 Eu131 2.480 . S
O148 Eu131 2.430 . S
O148 C138 1.259 . S
O149 Eu121 2.355 . S
O149 Eu131 2.670 . S
O149 C138 1.270 . S
O150 Eu131 2.394 . S
O150 C139 1.251 . S
O151 Eu121 2.374 . S
O151 C139 1.251 . S
H152 C123 0.931 . S
H153 C124 0.931 . S
H154 C126 0.931 . S
H155 C127 0.931 . S
H156 C133 0.931 . S
H157 C134 0.931 . S
H158 C136 0.931 . S
H159 C137 0.931 . S
C160 Eu161 2.835 1_554 S
C160 C162 1.500 . S
C160 O180 1.257 . S
C160 O181 1.260 . S
Eu161 C160 2.835 1_556 S
Eu161 O180 2.473 1_556 S
Eu161 O181 2.480 1_556 S
Eu161 O182 2.430 . S
Eu161 O183 2.670 . S
Eu161 O184 2.394 . S
Eu161 O189 2.355 . S
Eu161 O191 2.374 . S
C162 C160 1.500 . S
C162 C163 1.377 . S
C162 C167 1.377 . S
C163 C162 1.377 . S
C163 C164 1.395 . S
C163 H192 0.931 . S
C164 C163 1.395 . S
C164 C165 1.383 . S
C164 H193 0.931 . S
C165 C164 1.383 . S
C165 C166 1.394 . S
C166 C165 1.394 . S
C166 C167 1.378 . S
C166 H194 0.931 . S
C167 C162 1.377 . S
C167 C166 1.378 . S
C167 H195 0.931 . S
C168 O182 1.259 . S
C168 O183 1.270 . S
C169 O184 1.251 . S
C169 O185 1.251 . S
C170 Eu171 2.835 . S
C170 C172 1.500 . S
C170 O186 1.257 . S
C170 O187 1.260 . S
Eu171 C170 2.835 . S
Eu171 O183 2.355 . S
Eu171 O185 2.374 . S
Eu171 O186 2.473 . S
Eu171 O187 2.480 . S
Eu171 O188 2.430 . S
Eu171 O189 2.670 . S
Eu171 O190 2.394 . S
C172 C170 1.500 . S
C172 C173 1.377 . S
C172 C177 1.377 . S
C173 C172 1.377 . S
C173 C174 1.395 . S
C173 H196 0.931 . S
C174 C173 1.395 . S
C174 C175 1.383 . S
C174 H197 0.931 . S
C175 C174 1.383 . S
C175 C176 1.394 . S
C176 C175 1.394 . S
C176 C177 1.378 . S
C176 H198 0.931 . S
C177 C172 1.377 . S
C177 C176 1.378 . S
C177 H199 0.931 . S
C178 O188 1.259 . S
C178 O189 1.270 . S
C179 O190 1.251 . S
C179 O191 1.251 . S
O180 C160 1.257 . S
O180 Eu161 2.473 1_554 S
O181 C160 1.260 . S
O181 Eu161 2.480 1_554 S
O182 Eu161 2.430 . S
O182 C168 1.259 . S
O183 Eu161 2.670 . S
O183 C168 1.270 . S
O183 Eu171 2.355 . S
O184 Eu161 2.394 . S
O184 C169 1.251 . S
O185 C169 1.251 . S
O185 Eu171 2.374 . S
O186 C170 1.257 . S
O186 Eu171 2.473 . S
O187 C170 1.260 . S
O187 Eu171 2.480 . S
O188 Eu171 2.430 . S
O188 C178 1.259 . S
O189 Eu161 2.355 . S
O189 Eu171 2.670 . S
O189 C178 1.270 . S
O190 Eu171 2.394 . S
O190 C179 1.251 . S
O191 Eu161 2.374 . S
O191 C179 1.251 . S
H192 C163 0.931 . S
H193 C164 0.931 . S
H194 C166 0.931 . S
H195 C167 0.931 . S
H196 C173 0.931 . S
H197 C174 0.931 . S
H198 C176 0.931 . S
H199 C177 0.931 . S
C200 Eu201 2.835 1_556 S
C200 C202 1.500 . S
C200 O220 1.257 1_556 S
C200 O221 1.260 1_556 S
Eu201 C200 2.835 1_554 S
Eu201 O220 2.473 . S
Eu201 O221 2.480 . S
Eu201 O222 2.430 . S
Eu201 O223 2.670 . S
Eu201 O224 2.394 . S
Eu201 O229 2.355 . S
Eu201 O231 2.374 . S
C202 C200 1.500 . S
C202 C203 1.377 . S
C202 C207 1.377 . S
C203 C202 1.377 . S
C203 C204 1.395 . S
C203 H232 0.931 . S
C204 C203 1.395 . S
C204 C205 1.383 . S
C204 H233 0.931 . S
C205 C204 1.383 . S
C205 C206 1.394 . S
C206 C205 1.394 . S
C206 C207 1.378 . S
C206 H234 0.931 . S
C207 C202 1.377 . S
C207 C206 1.378 . S
C207 H235 0.931 . S
C208 O222 1.259 . S
C208 O223 1.270 . S
C209 O224 1.251 . S
C209 O225 1.251 . S
C210 Eu211 2.835 . S
C210 C212 1.500 . S
C210 O226 1.257 . S
C210 O227 1.260 . S
Eu211 C210 2.835 . S
Eu211 O223 2.355 . S
Eu211 O225 2.374 . S
Eu211 O226 2.473 . S
Eu211 O227 2.480 . S
Eu211 O228 2.430 . S
Eu211 O229 2.670 . S
Eu211 O230 2.394 . S
C212 C210 1.500 . S
C212 C213 1.377 . S
C212 C217 1.377 . S
C213 C212 1.377 . S
C213 C214 1.395 . S
C213 H236 0.931 . S
C214 C213 1.395 . S
C214 C215 1.383 . S
C214 H237 0.931 . S
C215 C214 1.383 . S
C215 C216 1.394 . S
C216 C215 1.394 . S
C216 C217 1.378 . S
C216 H238 0.931 . S
C217 C212 1.377 . S
C217 C216 1.378 . S
C217 H239 0.931 . S
C218 O228 1.259 . S
C218 O229 1.270 . S
C219 O230 1.251 . S
C219 O231 1.251 . S
O220 C200 1.257 1_554 S
O220 Eu201 2.473 . S
O221 C200 1.260 1_554 S
O221 Eu201 2.480 . S
O222 Eu201 2.430 . S
O222 C208 1.259 . S
O223 Eu201 2.670 . S
O223 C208 1.270 . S
O223 Eu211 2.355 . S
O224 Eu201 2.394 . S
O224 C209 1.251 . S
O225 C209 1.251 . S
O225 Eu211 2.374 . S
O226 C210 1.257 . S
O226 Eu211 2.473 . S
O227 C210 1.260 . S
O227 Eu211 2.480 . S
O228 Eu211 2.430 . S
O228 C218 1.259 . S
O229 Eu201 2.355 . S
O229 Eu211 2.670 . S
O229 C218 1.270 . S
O230 Eu211 2.394 . S
O230 C219 1.251 . S
O231 Eu201 2.374 . S
O231 C219 1.251 . S
H232 C203 0.931 . S
H233 C204 0.931 . S
H234 C206 0.931 . S
H235 C207 0.931 . S
H236 C213 0.931 . S
H237 C214 0.931 . S
H238 C216 0.931 . S
H239 C217 0.931 . S
C240 Eu241 2.835 . S
C240 C242 1.500 . S
C240 O260 1.257 . S
C240 O261 1.260 . S
Eu241 C240 2.835 . S
Eu241 O260 2.473 . S
Eu241 O261 2.480 . S
Eu241 O262 2.430 . S
Eu241 O263 2.670 . S
Eu241 O264 2.394 . S
Eu241 O269 2.355 . S
Eu241 O271 2.374 . S
C242 C240 1.500 . S
C242 C243 1.377 . S
C242 C247 1.377 . S
C243 C242 1.377 . S
C243 C244 1.395 . S
C243 H272 0.931 . S
C244 C243 1.395 . S
C244 C245 1.383 . S
C244 H273 0.931 . S
C245 C244 1.383 . S
C245 C246 1.394 . S
C246 C245 1.394 . S
C246 C247 1.378 . S
C246 H274 0.931 . S
C247 C242 1.377 . S
C247 C246 1.378 . S
C247 H275 0.931 . S
C248 O262 1.259 . S
C248 O263 1.270 . S
C249 O264 1.251 . S
C249 O265 1.251 . S
C250 Eu251 2.835 . S
C250 C252 1.500 . S
C250 O266 1.257 . S
C250 O267 1.260 . S
Eu251 C250 2.835 . S
Eu251 O263 2.355 . S
Eu251 O265 2.374 . S
Eu251 O266 2.473 . S
Eu251 O267 2.480 . S
Eu251 O268 2.430 . S
Eu251 O269 2.670 . S
Eu251 O270 2.394 . S
C252 C250 1.500 . S
C252 C253 1.377 . S
C252 C257 1.377 . S
C253 C252 1.377 . S
C253 C254 1.395 1_554 S
C253 H276 0.931 . S
C254 C253 1.395 1_556 S
C254 C255 1.383 . S
C254 H277 0.931 . S
C255 C254 1.383 . S
C255 C256 1.394 1_556 S
C256 C255 1.394 1_554 S
C256 C257 1.378 . S
C256 H278 0.931 1_554 S
C257 C252 1.377 . S
C257 C256 1.378 . S
C257 H279 0.931 . S
C258 O268 1.259 . S
C258 O269 1.270 . S
C259 O270 1.251 . S
C259 O271 1.251 . S
O260 C240 1.257 . S
O260 Eu241 2.473 . S
O261 C240 1.260 . S
O261 Eu241 2.480 . S
O262 Eu241 2.430 . S
O262 C248 1.259 . S
O263 Eu241 2.670 . S
O263 C248 1.270 . S
O263 Eu251 2.355 . S
O264 Eu241 2.394 . S
O264 C249 1.251 . S
O265 C249 1.251 . S
O265 Eu251 2.374 . S
O266 C250 1.257 . S
O266 Eu251 2.473 . S
O267 C250 1.260 . S
O267 Eu251 2.480 . S
O268 Eu251 2.430 . S
O268 C258 1.259 . S
O269 Eu241 2.355 . S
O269 Eu251 2.670 . S
O269 C258 1.270 . S
O270 Eu251 2.394 . S
O270 C259 1.251 . S
O271 Eu241 2.374 . S
O271 C259 1.251 . S
H272 C243 0.931 . S
H273 C244 0.931 . S
H274 C246 0.931 . S
H275 C247 0.931 . S
H276 C253 0.931 . S
H277 C254 0.931 . S
H278 C256 0.931 1_556 S
H279 C257 0.931 . S
C280 Eu281 2.835 . S
C280 C282 1.500 . S
C280 O300 1.257 . S
C280 O301 1.260 . S
Eu281 C280 2.835 . S
Eu281 O300 2.473 . S
Eu281 O301 2.480 . S
Eu281 O302 2.430 . S
Eu281 O303 2.670 . S
Eu281 O304 2.394 . S
Eu281 O309 2.355 . S
Eu281 O311 2.374 . S
C282 C280 1.500 . S
C282 C283 1.377 . S
C282 C287 1.377 . S
C283 C282 1.377 . S
C283 C284 1.395 . S
C283 H312 0.931 . S
C284 C283 1.395 . S
C284 C285 1.383 . S
C284 H313 0.931 . S
C285 C284 1.383 . S
C285 C286 1.394 . S
C286 C285 1.394 . S
C286 C287 1.378 . S
C286 H314 0.931 . S
C287 C282 1.377 . S
C287 C286 1.378 . S
C287 H315 0.931 . S
C288 O302 1.259 . S
C288 O303 1.270 . S
C289 O304 1.251 . S
C289 O305 1.251 . S
C290 Eu291 2.835 . S
C290 C292 1.500 . S
C290 O306 1.257 . S
C290 O307 1.260 . S
Eu291 C290 2.835 . S
Eu291 O303 2.355 . S
Eu291 O305 2.374 . S
Eu291 O306 2.473 . S
Eu291 O307 2.480 . S
Eu291 O308 2.430 . S
Eu291 O309 2.670 . S
Eu291 O310 2.394 . S
C292 C290 1.500 . S
C292 C293 1.377 . S
C292 C297 1.377 . S
C293 C292 1.377 . S
C293 C294 1.395 1_556 S
C293 H316 0.931 . S
C294 C293 1.395 1_554 S
C294 C295 1.383 . S
C294 H317 0.931 . S
C295 C294 1.383 . S
C295 C296 1.394 . S
C296 C295 1.394 . S
C296 C297 1.378 1_554 S
C296 H318 0.931 . S
C297 C292 1.377 . S
C297 C296 1.378 1_556 S
C297 H319 0.931 . S
C298 O308 1.259 . S
C298 O309 1.270 . S
C299 O310 1.251 . S
C299 O311 1.251 . S
O300 C280 1.257 . S
O300 Eu281 2.473 . S
O301 C280 1.260 . S
O301 Eu281 2.480 . S
O302 Eu281 2.430 . S
O302 C288 1.259 . S
O303 Eu281 2.670 . S
O303 C288 1.270 . S
O303 Eu291 2.355 . S
O304 Eu281 2.394 . S
O304 C289 1.251 . S
O305 C289 1.251 . S
O305 Eu291 2.374 . S
O306 C290 1.257 . S
O306 Eu291 2.473 . S
O307 C290 1.260 . S
O307 Eu291 2.480 . S
O308 Eu291 2.430 . S
O308 C298 1.259 . S
O309 Eu281 2.355 . S
O309 Eu291 2.670 . S
O309 C298 1.270 . S
O310 Eu291 2.394 . S
O310 C299 1.251 . S
O311 Eu281 2.374 . S
O311 C299 1.251 . S
H312 C283 0.931 . S
H313 C284 0.931 . S
H314 C286 0.931 . S
H315 C287 0.931 . S
H316 C293 0.931 . S
H317 C294 0.931 . S
H318 C296 0.931 . S
H319 C297 0.931 . S
C320 Eu321 2.835 . S
C320 C322 1.500 . S
C320 O340 1.257 . S
C320 O341 1.260 . S
Eu321 C320 2.835 . S
Eu321 O340 2.473 . S
Eu321 O341 2.480 . S
Eu321 O342 2.430 . S
Eu321 O343 2.670 . S
Eu321 O344 2.394 . S
Eu321 O349 2.355 . S
Eu321 O351 2.374 . S
C322 C320 1.500 . S
C322 C323 1.377 . S
C322 C327 1.377 . S
C323 C322 1.377 . S
C323 C324 1.395 . S
C323 H352 0.931 . S
C324 C323 1.395 . S
C324 C325 1.383 . S
C324 H353 0.931 . S
C325 C324 1.383 . S
C325 C326 1.394 . S
C326 C325 1.394 . S
C326 C327 1.378 . S
C326 H354 0.931 . S
C327 C322 1.377 . S
C327 C326 1.378 . S
C327 H355 0.931 . S
C328 O342 1.259 . S
C328 O343 1.270 . S
C329 O344 1.251 . S
C329 O345 1.251 . S
C330 Eu331 2.835 1_554 S
C330 C332 1.500 . S
C330 O346 1.257 1_554 S
C330 O347 1.260 1_554 S
Eu331 C330 2.835 1_556 S
Eu331 O343 2.355 . S
Eu331 O345 2.374 . S
Eu331 O346 2.473 . S
Eu331 O347 2.480 . S
Eu331 O348 2.430 . S
Eu331 O349 2.670 . S
Eu331 O350 2.394 . S
C332 C330 1.500 . S
C332 C333 1.377 . S
C332 C337 1.377 . S
C333 C332 1.377 . S
C333 C334 1.395 . S
C333 H356 0.931 . S
C334 C333 1.395 . S
C334 C335 1.383 . S
C334 H357 0.931 . S
C335 C334 1.383 . S
C335 C336 1.394 . S
C336 C335 1.394 . S
C336 C337 1.378 . S
C336 H358 0.931 . S
C337 C332 1.377 . S
C337 C336 1.378 . S
C337 H359 0.931 . S
C338 O348 1.259 . S
C338 O349 1.270 . S
C339 O350 1.251 . S
C339 O351 1.251 . S
O340 C320 1.257 . S
O340 Eu321 2.473 . S
O341 C320 1.260 . S
O341 Eu321 2.480 . S
O342 Eu321 2.430 . S
O342 C328 1.259 . S
O343 Eu321 2.670 . S
O343 C328 1.270 . S
O343 Eu331 2.355 . S
O344 Eu321 2.394 . S
O344 C329 1.251 . S
O345 C329 1.251 . S
O345 Eu331 2.374 . S
O346 C330 1.257 1_556 S
O346 Eu331 2.473 . S
O347 C330 1.260 1_556 S
O347 Eu331 2.480 . S
O348 Eu331 2.430 . S
O348 C338 1.259 . S
O349 Eu321 2.355 . S
O349 Eu331 2.670 . S
O349 C338 1.270 . S
O350 Eu331 2.394 . S
O350 C339 1.251 . S
O351 Eu321 2.374 . S
O351 C339 1.251 . S
H352 C323 0.931 . S
H353 C324 0.931 . S
H354 C326 0.931 . S
H355 C327 0.931 . S
H356 C333 0.931 . S
H357 C334 0.931 . S
H358 C336 0.931 . S
H359 C337 0.931 . S
C360 Eu361 2.835 . S
C360 C362 1.500 . S
C360 O380 1.257 . S
C360 O381 1.260 . S
Eu361 C360 2.835 . S
Eu361 O380 2.473 . S
Eu361 O381 2.480 . S
Eu361 O382 2.430 . S
Eu361 O383 2.670 . S
Eu361 O384 2.394 . S
Eu361 O389 2.355 . S
Eu361 O391 2.374 . S
C362 C360 1.500 . S
C362 C363 1.377 . S
C362 C367 1.377 . S
C363 C362 1.377 . S
C363 C364 1.395 1_556 S
C363 H392 0.931 . S
C364 C363 1.395 1_554 S
C364 C365 1.383 . S
C364 H393 0.931 . S
C365 C364 1.383 . S
C365 C366 1.394 1_554 S
C366 C365 1.394 1_556 S
C366 C367 1.378 . S
C366 H394 0.931 1_556 S
C367 C362 1.377 . S
C367 C366 1.378 . S
C367 H395 0.931 . S
C368 O382 1.259 . S
C368 O383 1.270 . S
C369 O384 1.251 . S
C369 O385 1.251 . S
C370 Eu371 2.835 . S
C370 C372 1.500 . S
C370 O386 1.257 . S
C370 O387 1.260 . S
Eu371 C370 2.835 . S
Eu371 O383 2.355 . S
Eu371 O385 2.374 . S
Eu371 O386 2.473 . S
Eu371 O387 2.480 . S
Eu371 O388 2.430 . S
Eu371 O389 2.670 . S
Eu371 O390 2.394 . S
C372 C370 1.500 . S
C372 C373 1.377 . S
C372 C377 1.377 . S
C373 C372 1.377 . S
C373 C374 1.395 . S
C373 H396 0.931 . S
C374 C373 1.395 . S
C374 C375 1.383 . S
C374 H397 0.931 . S
C375 C374 1.383 . S
C375 C376 1.394 . S
C376 C375 1.394 . S
C376 C377 1.378 . S
C376 H398 0.931 . S
C377 C372 1.377 . S
C377 C376 1.378 . S
C377 H399 0.931 . S
C378 O388 1.259 . S
C378 O389 1.270 . S
C379 O390 1.251 . S
C379 O391 1.251 . S
O380 C360 1.257 . S
O380 Eu361 2.473 . S
O381 C360 1.260 . S
O381 Eu361 2.480 . S
O382 Eu361 2.430 . S
O382 C368 1.259 . S
O383 Eu361 2.670 . S
O383 C368 1.270 . S
O383 Eu371 2.355 . S
O384 Eu361 2.394 . S
O384 C369 1.251 . S
O385 C369 1.251 . S
O385 Eu371 2.374 . S
O386 C370 1.257 . S
O386 Eu371 2.473 . S
O387 C370 1.260 . S
O387 Eu371 2.480 . S
O388 Eu371 2.430 . S
O388 C378 1.259 . S
O389 Eu361 2.355 . S
O389 Eu371 2.670 . S
O389 C378 1.270 . S
O390 Eu371 2.394 . S
O390 C379 1.251 . S
O391 Eu361 2.374 . S
O391 C379 1.251 . S
H392 C363 0.931 . S
H393 C364 0.931 . S
H394 C366 0.931 1_554 S
H395 C367 0.931 . S
H396 C373 0.931 . S
H397 C374 0.931 . S
H398 C376 0.931 . S
H399 C377 0.931 . S
C400 Eu401 2.835 . S
C400 C402 1.500 . S
C400 O420 1.257 . S
C400 O421 1.260 . S
Eu401 C400 2.835 . S
Eu401 O420 2.473 . S
Eu401 O421 2.480 . S
Eu401 O422 2.430 . S
Eu401 O423 2.670 . S
Eu401 O424 2.394 . S
Eu401 O429 2.355 . S
Eu401 O431 2.374 . S
C402 C400 1.500 . S
C402 C403 1.377 . S
C402 C407 1.377 . S
C403 C402 1.377 . S
C403 C404 1.395 . S
C403 H432 0.931 . S
C404 C403 1.395 . S
C404 C405 1.383 . S
C404 H433 0.931 . S
C405 C404 1.383 . S
C405 C406 1.394 . S
C406 C405 1.394 . S
C406 C407 1.378 . S
C406 H434 0.931 . S
C407 C402 1.377 . S
C407 C406 1.378 . S
C407 H435 0.931 . S
C408 O422 1.259 . S
C408 O423 1.270 . S
C409 O424 1.251 . S
C409 O425 1.251 . S
C410 Eu411 2.835 . S
C410 C412 1.500 . S
C410 O426 1.257 . S
C410 O427 1.260 . S
Eu411 C410 2.835 . S
Eu411 O423 2.355 . S
Eu411 O425 2.374 . S
Eu411 O426 2.473 . S
Eu411 O427 2.480 . S
Eu411 O428 2.430 . S
Eu411 O429 2.670 . S
Eu411 O430 2.394 . S
C412 C410 1.500 . S
C412 C413 1.377 . S
C412 C417 1.377 . S
C413 C412 1.377 . S
C413 C414 1.395 1_554 S
C413 H436 0.931 . S
C414 C413 1.395 1_556 S
C414 C415 1.383 . S
C414 H437 0.931 . S
C415 C414 1.383 . S
C415 C416 1.394 . S
C416 C415 1.394 . S
C416 C417 1.378 1_556 S
C416 H438 0.931 . S
C417 C412 1.377 . S
C417 C416 1.378 1_554 S
C417 H439 0.931 . S
C418 O428 1.259 . S
C418 O429 1.270 . S
C419 O430 1.251 . S
C419 O431 1.251 . S
O420 C400 1.257 . S
O420 Eu401 2.473 . S
O421 C400 1.260 . S
O421 Eu401 2.480 . S
O422 Eu401 2.430 . S
O422 C408 1.259 . S
O423 Eu401 2.670 . S
O423 C408 1.270 . S
O423 Eu411 2.355 . S
O424 Eu401 2.394 . S
O424 C409 1.251 . S
O425 C409 1.251 . S
O425 Eu411 2.374 . S
O426 C410 1.257 . S
O426 Eu411 2.473 . S
O427 C410 1.260 . S
O427 Eu411 2.480 . S
O428 Eu411 2.430 . S
O428 C418 1.259 . S
O429 Eu401 2.355 . S
O429 Eu411 2.670 . S
O429 C418 1.270 . S
O430 Eu411 2.394 . S
O430 C419 1.251 . S
O431 Eu401 2.374 . S
O431 C419 1.251 . S
H432 C403 0.931 . S
H433 C404 0.931 . S
H434 C406 0.931 . S
H435 C407 0.931 . S
H436 C413 0.931 . S
H437 C414 0.931 . S
H438 C416 0.931 . S
H439 C417 0.931 . S
C440 Eu441 2.835 . S
C440 C442 1.500 . S
C440 O460 1.257 . S
C440 O461 1.260 . S
Eu441 C440 2.835 . S
Eu441 O460 2.473 . S
Eu441 O461 2.480 . S
Eu441 O462 2.430 . S
Eu441 O463 2.670 . S
Eu441 O464 2.394 . S
Eu441 O469 2.355 . S
Eu441 O471 2.374 . S
C442 C440 1.500 . S
C442 C443 1.377 . S
C442 C447 1.377 . S
C443 C442 1.377 . S
C443 C444 1.395 . S
C443 H472 0.931 . S
C444 C443 1.395 . S
C444 C445 1.383 . S
C444 H473 0.931 . S
C445 C444 1.383 . S
C445 C446 1.394 . S
C446 C445 1.394 . S
C446 C447 1.378 . S
C446 H474 0.931 . S
C447 C442 1.377 . S
C447 C446 1.378 . S
C447 H475 0.931 . S
C448 O462 1.259 . S
C448 O463 1.270 . S
C449 O464 1.251 . S
C449 O465 1.251 . S
C450 Eu451 2.835 1_556 S
C450 C452 1.500 . S
C450 O466 1.257 . S
C450 O467 1.260 . S
Eu451 C450 2.835 1_554 S
Eu451 O463 2.355 . S
Eu451 O465 2.374 . S
Eu451 O466 2.473 1_554 S
Eu451 O467 2.480 1_554 S
Eu451 O468 2.430 . S
Eu451 O469 2.670 . S
Eu451 O470 2.394 . S
C452 C450 1.500 . S
C452 C453 1.377 . S
C452 C457 1.377 . S
C453 C452 1.377 . S
C453 C454 1.395 . S
C453 H476 0.931 . S
C454 C453 1.395 . S
C454 C455 1.383 . S
C454 H477 0.931 . S
C455 C454 1.383 . S
C455 C456 1.394 . S
C456 C455 1.394 . S
C456 C457 1.378 . S
C456 H478 0.931 . S
C457 C452 1.377 . S
C457 C456 1.378 . S
C457 H479 0.931 . S
C458 O468 1.259 . S
C458 O469 1.270 . S
C459 O470 1.251 . S
C459 O471 1.251 . S
O460 C440 1.257 . S
O460 Eu441 2.473 . S
O461 C440 1.260 . S
O461 Eu441 2.480 . S
O462 Eu441 2.430 . S
O462 C448 1.259 . S
O463 Eu441 2.670 . S
O463 C448 1.270 . S
O463 Eu451 2.355 . S
O464 Eu441 2.394 . S
O464 C449 1.251 . S
O465 C449 1.251 . S
O465 Eu451 2.374 . S
O466 C450 1.257 . S
O466 Eu451 2.473 1_556 S
O467 C450 1.260 . S
O467 Eu451 2.480 1_556 S
O468 Eu451 2.430 . S
O468 C458 1.259 . S
O469 Eu441 2.355 . S
O469 Eu451 2.670 . S
O469 C458 1.270 . S
O470 Eu451 2.394 . S
O470 C459 1.251 . S
O471 Eu441 2.374 . S
O471 C459 1.251 . S
H472 C443 0.931 . S
H473 C444 0.931 . S
H474 C446 0.931 . S
H475 C447 0.931 . S
H476 C453 0.931 . S
H477 C454 0.931 . S
H478 C456 0.931 . S
H479 C457 0.931 . S
C480 Eu481 2.835 . S
C480 C482 1.500 . S
C480 O500 1.257 . S
C480 O501 1.260 . S
Eu481 C480 2.835 . S
Eu481 O500 2.473 . S
Eu481 O501 2.480 . S
Eu481 O502 2.430 . S
Eu481 O503 2.670 . S
Eu481 O504 2.394 . S
Eu481 O509 2.355 . S
Eu481 O511 2.374 . S
C482 C480 1.500 . S
C482 C483 1.377 . S
C482 C487 1.377 . S
C483 C482 1.377 . S
C483 C484 1.395 . S
C483 H512 0.931 . S
C484 C483 1.395 . S
C484 C485 1.383 . S
C484 H513 0.931 . S
C485 C484 1.383 . S
C485 C486 1.394 . S
C486 C485 1.394 . S
C486 C487 1.378 . S
C486 H514 0.931 . S
C487 C482 1.377 . S
C487 C486 1.378 . S
C487 H515 0.931 . S
C488 O502 1.259 . S
C488 O503 1.270 . S
C489 O504 1.251 . S
C489 O505 1.251 . S
C490 Eu491 2.835 1_556 S
C490 C492 1.500 . S
C490 O506 1.257 . S
C490 O507 1.260 . S
Eu491 C490 2.835 1_554 S
Eu491 O503 2.355 . S
Eu491 O505 2.374 . S
Eu491 O506 2.473 1_554 S
Eu491 O507 2.480 1_554 S
Eu491 O508 2.430 . S
Eu491 O509 2.670 . S
Eu491 O510 2.394 . S
C492 C490 1.500 . S
C492 C493 1.377 . S
C492 C497 1.377 . S
C493 C492 1.377 . S
C493 C494 1.395 . S
C493 H516 0.931 . S
C494 C493 1.395 . S
C494 C495 1.383 . S
C494 H517 0.931 . S
C495 C494 1.383 . S
C495 C496 1.394 . S
C496 C495 1.394 . S
C496 C497 1.378 . S
C496 H518 0.931 . S
C497 C492 1.377 . S
C497 C496 1.378 . S
C497 H519 0.931 . S
C498 O508 1.259 . S
C498 O509 1.270 . S
C499 O510 1.251 . S
C499 O511 1.251 . S
O500 C480 1.257 . S
O500 Eu481 2.473 . S
O501 C480 1.260 . S
O501 Eu481 2.480 . S
O502 Eu481 2.430 . S
O502 C488 1.259 . S
O503 Eu481 2.670 . S
O503 C488 1.270 . S
O503 Eu491 2.355 . S
O504 Eu481 2.394 . S
O504 C489 1.251 . S
O505 C489 1.251 . S
O505 Eu491 2.374 . S
O506 C490 1.257 . S
O506 Eu491 2.473 1_556 S
O507 C490 1.260 . S
O507 Eu491 2.480 1_556 S
O508 Eu491 2.430 . S
O508 C498 1.259 . S
O509 Eu481 2.355 . S
O509 Eu491 2.670 . S
O509 C498 1.270 . S
O510 Eu491 2.394 . S
O510 C499 1.251 . S
O511 Eu481 2.374 . S
O511 C499 1.251 . S
H512 C483 0.931 . S
H513 C484 0.931 . S
H514 C486 0.931 . S
H515 C487 0.931 . S
H516 C493 0.931 . S
H517 C494 0.931 . S
H518 C496 0.931 . S
H519 C497 0.931 . S
C520 Eu521 2.835 1_554 S
C520 C522 1.500 . S
C520 O540 1.257 1_554 S
C520 O541 1.260 1_554 S
Eu521 C520 2.835 1_556 S
Eu521 O540 2.473 . S
Eu521 O541 2.480 . S
Eu521 O542 2.430 . S
Eu521 O543 2.670 . S
Eu521 O544 2.394 . S
Eu521 O549 2.355 . S
Eu521 O551 2.374 . S
C522 C520 1.500 . S
C522 C523 1.377 . S
C522 C527 1.377 . S
C523 C522 1.377 . S
C523 C524 1.395 . S
C523 H552 0.931 . S
C524 C523 1.395 . S
C524 C525 1.383 . S
C524 H553 0.931 . S
C525 C524 1.383 . S
C525 C526 1.394 . S
C526 C525 1.394 . S
C526 C527 1.378 . S
C526 H554 0.931 . S
C527 C522 1.377 . S
C527 C526 1.378 . S
C527 H555 0.931 . S
C528 O542 1.259 . S
C528 O543 1.270 . S
C529 O544 1.251 . S
C529 O545 1.251 . S
C530 Eu531 2.835 . S
C530 C532 1.500 . S
C530 O546 1.257 . S
C530 O547 1.260 . S
Eu531 C530 2.835 . S
Eu531 O543 2.355 . S
Eu531 O545 2.374 . S
Eu531 O546 2.473 . S
Eu531 O547 2.480 . S
Eu531 O548 2.430 . S
Eu531 O549 2.670 . S
Eu531 O550 2.394 . S
C532 C530 1.500 . S
C532 C533 1.377 . S
C532 C537 1.377 . S
C533 C532 1.377 . S
C533 C534 1.395 . S
C533 H556 0.931 . S
C534 C533 1.395 . S
C534 C535 1.383 . S
C534 H557 0.931 . S
C535 C534 1.383 . S
C535 C536 1.394 . S
C536 C535 1.394 . S
C536 C537 1.378 . S
C536 H558 0.931 . S
C537 C532 1.377 . S
C537 C536 1.378 . S
C537 H559 0.931 . S
C538 O548 1.259 . S
C538 O549 1.270 . S
C539 O550 1.251 . S
C539 O551 1.251 . S
O540 C520 1.257 1_556 S
O540 Eu521 2.473 . S
O541 C520 1.260 1_556 S
O541 Eu521 2.480 . S
O542 Eu521 2.430 . S
O542 C528 1.259 . S
O543 Eu521 2.670 . S
O543 C528 1.270 . S
O543 Eu531 2.355 . S
O544 Eu521 2.394 . S
O544 C529 1.251 . S
O545 C529 1.251 . S
O545 Eu531 2.374 . S
O546 C530 1.257 . S
O546 Eu531 2.473 . S
O547 C530 1.260 . S
O547 Eu531 2.480 . S
O548 Eu531 2.430 . S
O548 C538 1.259 . S
O549 Eu521 2.355 . S
O549 Eu531 2.670 . S
O549 C538 1.270 . S
O550 Eu531 2.394 . S
O550 C539 1.251 . S
O551 Eu521 2.374 . S
O551 C539 1.251 . S
H552 C523 0.931 . S
H553 C524 0.931 . S
H554 C526 0.931 . S
H555 C527 0.931 . S
H556 C533 0.931 . S
H557 C534 0.931 . S
H558 C536 0.931 . S
H559 C537 0.931 . S
C560 Eu561 2.835 . S
C560 C562 1.500 . S
C560 O580 1.257 . S
C560 O581 1.260 . S
Eu561 C560 2.835 . S
Eu561 O580 2.473 . S
Eu561 O581 2.480 . S
Eu561 O582 2.430 . S
Eu561 O583 2.670 . S
Eu561 O584 2.394 . S
Eu561 O589 2.355 . S
Eu561 O591 2.374 . S
C562 C560 1.500 . S
C562 C563 1.377 . S
C562 C567 1.377 . S
C563 C562 1.377 . S
C563 C564 1.395 1_556 S
C563 H592 0.931 . S
C564 C563 1.395 1_554 S
C564 C565 1.383 . S
C564 H593 0.931 . S
C565 C564 1.383 . S
C565 C566 1.394 1_554 S
C566 C565 1.394 1_556 S
C566 C567 1.378 . S
C566 H594 0.931 1_556 S
C567 C562 1.377 . S
C567 C566 1.378 . S
C567 H595 0.931 . S
C568 O582 1.259 . S
C568 O583 1.270 . S
C569 O584 1.251 . S
C569 O585 1.251 . S
C570 Eu571 2.835 . S
C570 C572 1.500 . S
C570 O586 1.257 . S
C570 O587 1.260 . S
Eu571 C570 2.835 . S
Eu571 O583 2.355 . S
Eu571 O585 2.374 . S
Eu571 O586 2.473 . S
Eu571 O587 2.480 . S
Eu571 O588 2.430 . S
Eu571 O589 2.670 . S
Eu571 O590 2.394 . S
C572 C570 1.500 . S
C572 C573 1.377 . S
C572 C577 1.377 . S
C573 C572 1.377 . S
C573 C574 1.395 . S
C573 H596 0.931 . S
C574 C573 1.395 . S
C574 C575 1.383 . S
C574 H597 0.931 . S
C575 C574 1.383 . S
C575 C576 1.394 . S
C576 C575 1.394 . S
C576 C577 1.378 . S
C576 H598 0.931 . S
C577 C572 1.377 . S
C577 C576 1.378 . S
C577 H599 0.931 . S
C578 O588 1.259 . S
C578 O589 1.270 . S
C579 O590 1.251 . S
C579 O591 1.251 . S
O580 C560 1.257 . S
O580 Eu561 2.473 . S
O581 C560 1.260 . S
O581 Eu561 2.480 . S
O582 Eu561 2.430 . S
O582 C568 1.259 . S
O583 Eu561 2.670 . S
O583 C568 1.270 . S
O583 Eu571 2.355 . S
O584 Eu561 2.394 . S
O584 C569 1.251 . S
O585 C569 1.251 . S
O585 Eu571 2.374 . S
O586 C570 1.257 . S
O586 Eu571 2.473 . S
O587 C570 1.260 . S
O587 Eu571 2.480 . S
O588 Eu571 2.430 . S
O588 C578 1.259 . S
O589 Eu561 2.355 . S
O589 Eu571 2.670 . S
O589 C578 1.270 . S
O590 Eu571 2.394 . S
O590 C579 1.251 . S
O591 Eu561 2.374 . S
O591 C579 1.251 . S
H592 C563 0.931 . S
H593 C564 0.931 . S
H594 C566 0.931 1_554 S
H595 C567 0.931 . S
H596 C573 0.931 . S
H597 C574 0.931 . S
H598 C576 0.931 . S
H599 C577 0.931 . S
C600 Eu601 2.835 . S
C600 C602 1.500 . S
C600 O620 1.257 . S
C600 O621 1.260 . S
Eu601 C600 2.835 . S
Eu601 O620 2.473 . S
Eu601 O621 2.480 . S
Eu601 O622 2.430 . S
Eu601 O623 2.670 . S
Eu601 O624 2.394 . S
Eu601 O629 2.355 . S
Eu601 O631 2.374 . S
C602 C600 1.500 . S
C602 C603 1.377 . S
C602 C607 1.377 . S
C603 C602 1.377 . S
C603 C604 1.395 1_554 S
C603 H632 0.931 . S
C604 C603 1.395 1_556 S
C604 C605 1.383 . S
C604 H633 0.931 . S
C605 C604 1.383 . S
C605 C606 1.394 . S
C606 C605 1.394 . S
C606 C607 1.378 1_556 S
C606 H634 0.931 . S
C607 C602 1.377 . S
C607 C606 1.378 1_554 S
C607 H635 0.931 . S
C608 O622 1.259 . S
C608 O623 1.270 . S
C609 O624 1.251 . S
C609 O625 1.251 . S
C610 Eu611 2.835 . S
C610 C612 1.500 . S
C610 O626 1.257 . S
C610 O627 1.260 . S
Eu611 C610 2.835 . S
Eu611 O623 2.355 . S
Eu611 O625 2.374 . S
Eu611 O626 2.473 . S
Eu611 O627 2.480 . S
Eu611 O628 2.430 . S
Eu611 O629 2.670 . S
Eu611 O630 2.394 . S
C612 C610 1.500 . S
C612 C613 1.377 . S
C612 C617 1.377 . S
C613 C612 1.377 . S
C613 C614 1.395 . S
C613 H636 0.931 . S
C614 C613 1.395 . S
C614 C615 1.383 . S
C614 H637 0.931 . S
C615 C614 1.383 . S
C615 C616 1.394 . S
C616 C615 1.394 . S
C616 C617 1.378 . S
C616 H638 0.931 . S
C617 C612 1.377 . S
C617 C616 1.378 . S
C617 H639 0.931 . S
C618 O628 1.259 . S
C618 O629 1.270 . S
C619 O630 1.251 . S
C619 O631 1.251 . S
O620 C600 1.257 . S
O620 Eu601 2.473 . S
O621 C600 1.260 . S
O621 Eu601 2.480 . S
O622 Eu601 2.430 . S
O622 C608 1.259 . S
O623 Eu601 2.670 . S
O623 C608 1.270 . S
O623 Eu611 2.355 . S
O624 Eu601 2.394 . S
O624 C609 1.251 . S
O625 C609 1.251 . S
O625 Eu611 2.374 . S
O626 C610 1.257 . S
O626 Eu611 2.473 . S
O627 C610 1.260 . S
O627 Eu611 2.480 . S
O628 Eu611 2.430 . S
O628 C618 1.259 . S
O629 Eu601 2.355 . S
O629 Eu611 2.670 . S
O629 C618 1.270 . S
O630 Eu611 2.394 . S
O630 C619 1.251 . S
O631 Eu601 2.374 . S
O631 C619 1.251 . S
H632 C603 0.931 . S
H633 C604 0.931 . S
H634 C606 0.931 . S
H635 C607 0.931 . S
H636 C613 0.931 . S
H637 C614 0.931 . S
H638 C616 0.931 . S
H639 C617 0.931 . S
C640 C641 1.369 . S
C640 C642 1.419 . S
C640 H644 0.930 . S
C641 C640 1.369 . S
C641 C650 1.429 . S
C642 C640 1.419 . S
C642 C643 1.363 . S
C642 H645 0.929 . S
C643 C642 1.363 . S
C643 C649 1.428 . S
H644 C640 0.930 . S
H645 C642 0.929 . S
S646 N647 1.613 . S
S646 N648 1.610 . S
N647 S646 1.613 . S
N647 C650 1.350 . S
N648 S646 1.610 . S
N648 C649 1.351 . S
C649 C643 1.428 . S
C649 N648 1.351 . S
C649 C650 1.434 . S
C650 C641 1.429 . S
C650 N647 1.350 . S
C650 C649 1.434 . S
C651 C652 1.369 . S
C651 C653 1.419 . S
C651 H655 0.930 . S
C652 C651 1.369 . S
C652 C661 1.429 . S
C653 C651 1.419 . S
C653 C654 1.363 . S
C653 H656 0.929 . S
C654 C653 1.363 . S
C654 C660 1.428 . S
H655 C651 0.930 . S
H656 C653 0.929 . S
S657 N658 1.613 . S
S657 N659 1.610 . S
N658 S657 1.613 . S
N658 C661 1.350 . S
N659 S657 1.610 . S
N659 C660 1.351 . S
C660 C654 1.428 . S
C660 N659 1.351 . S
C660 C661 1.434 . S
C661 C652 1.429 . S
C661 N658 1.350 . S
C661 C660 1.434 . S
C662 C663 1.369 . S
C662 C664 1.419 . S
C662 H666 0.930 . S
C663 C662 1.369 . S
C663 C672 1.429 . S
C664 C662 1.419 . S
C664 C665 1.363 . S
C664 H667 0.929 . S
C665 C664 1.363 . S
C665 C671 1.428 . S
H666 C662 0.930 . S
H667 C664 0.929 . S
S668 N669 1.613 . S
S668 N670 1.610 . S
N669 S668 1.613 . S
N669 C672 1.350 . S
N670 S668 1.610 . S
N670 C671 1.351 . S
C671 C665 1.428 . S
C671 N670 1.351 . S
C671 C672 1.434 . S
C672 C663 1.429 . S
C672 N669 1.350 . S
C672 C671 1.434 . S
C673 C674 1.369 . S
C673 C675 1.419 . S
C673 H677 0.930 . S
C674 C673 1.369 . S
C674 C683 1.429 . S
C675 C673 1.419 . S
C675 C676 1.363 . S
C675 H678 0.929 . S
C676 C675 1.363 . S
C676 C682 1.428 . S
H677 C673 0.930 . S
H678 C675 0.929 . S
S679 N680 1.613 . S
S679 N681 1.610 . S
N680 S679 1.613 . S
N680 C683 1.350 . S
N681 S679 1.610 . S
N681 C682 1.351 . S
C682 C676 1.428 . S
C682 N681 1.351 . S
C682 C683 1.434 . S
C683 C674 1.429 . S
C683 N680 1.350 . S
C683 C682 1.434 . S
C684 C685 1.369 . S
C684 C686 1.419 . S
C684 H688 0.930 . S
C685 C684 1.369 . S
C685 C694 1.429 . S
C686 C684 1.419 . S
C686 C687 1.363 . S
C686 H689 0.929 . S
C687 C686 1.363 . S
C687 C693 1.428 . S
H688 C684 0.930 . S
H689 C686 0.929 . S
S690 N691 1.613 . S
S690 N692 1.610 . S
N691 S690 1.613 . S
N691 C694 1.350 . S
N692 S690 1.610 . S
N692 C693 1.351 . S
C693 C687 1.428 . S
C693 N692 1.351 . S
C693 C694 1.434 . S
C694 C685 1.429 . S
C694 N691 1.350 . S
C694 C693 1.434 . S
C695 C696 1.369 . S
C695 C697 1.419 . S
C695 H699 0.930 . S
C696 C695 1.369 . S
C696 C705 1.429 . S
C697 C695 1.419 . S
C697 C698 1.363 . S
C697 H700 0.929 . S
C698 C697 1.363 . S
C698 C704 1.428 . S
H699 C695 0.930 . S
H700 C697 0.929 . S
S701 N702 1.613 . S
S701 N703 1.610 . S
N702 S701 1.613 . S
N702 C705 1.350 . S
N703 S701 1.610 . S
N703 C704 1.351 . S
C704 C698 1.428 . S
C704 N703 1.351 . S
C704 C705 1.434 . S
C705 C696 1.429 . S
C705 N702 1.350 . S
C705 C704 1.434 . S
C706 C707 1.369 . S
C706 C708 1.419 . S
C706 H710 0.930 . S
C707 C706 1.369 . S
C707 C716 1.429 . S
C708 C706 1.419 . S
C708 C709 1.363 . S
C708 H711 0.929 . S
C709 C708 1.363 . S
C709 C715 1.428 . S
H710 C706 0.930 . S
H711 C708 0.929 . S
S712 N713 1.613 . S
S712 N714 1.610 . S
N713 S712 1.613 . S
N713 C716 1.350 . S
N714 S712 1.610 . S
N714 C715 1.351 . S
C715 C709 1.428 . S
C715 N714 1.351 . S
C715 C716 1.434 . S
C716 C707 1.429 . S
C716 N713 1.350 . S
C716 C715 1.434 . S
C717 C718 1.369 . S
C717 C719 1.419 . S
C717 H721 0.930 . S
C718 C717 1.369 . S
C718 C727 1.429 . S
C719 C717 1.419 . S
C719 C720 1.363 . S
C719 H722 0.929 . S
C720 C719 1.363 . S
C720 C726 1.428 . S
H721 C717 0.930 . S
H722 C719 0.929 . S
S723 N724 1.613 . S
S723 N725 1.610 . S
N724 S723 1.613 . S
N724 C727 1.350 . S
N725 S723 1.610 . S
N725 C726 1.351 . S
C726 C720 1.428 . S
C726 N725 1.351 . S
C726 C727 1.434 . S
C727 C718 1.429 . S
C727 N724 1.350 . S
C727 C726 1.434 . S
C728 C729 1.369 . S
C728 C730 1.419 . S
C728 H732 0.930 . S
C729 C728 1.369 . S
C729 C738 1.429 . S
C730 C728 1.419 . S
C730 C731 1.363 . S
C730 H733 0.929 . S
C731 C730 1.363 . S
C731 C737 1.428 . S
H732 C728 0.930 . S
H733 C730 0.929 . S
S734 N735 1.613 . S
S734 N736 1.610 . S
N735 S734 1.613 . S
N735 C738 1.350 . S
N736 S734 1.610 . S
N736 C737 1.351 . S
C737 C731 1.428 . S
C737 N736 1.351 . S
C737 C738 1.434 . S
C738 C729 1.429 . S
C738 N735 1.350 . S
C738 C737 1.434 . S
C739 C740 1.369 . S
C739 C741 1.419 . S
C739 H743 0.930 . S
C740 C739 1.369 . S
C740 C749 1.429 . S
C741 C739 1.419 . S
C741 C742 1.363 . S
C741 H744 0.929 . S
C742 C741 1.363 . S
C742 C748 1.428 . S
H743 C739 0.930 . S
H744 C741 0.929 . S
S745 N746 1.613 . S
S745 N747 1.610 . S
N746 S745 1.613 . S
N746 C749 1.350 . S
N747 S745 1.610 . S
N747 C748 1.351 . S
C748 C742 1.428 . S
C748 N747 1.351 . S
C748 C749 1.434 . S
C749 C740 1.429 . S
C749 N746 1.350 . S
C749 C748 1.434 . S
C750 C751 1.369 . S
C750 C752 1.419 . S
C750 H754 0.930 . S
C751 C750 1.369 . S
C751 C760 1.429 . S
C752 C750 1.419 . S
C752 C753 1.363 . S
C752 H755 0.929 . S
C753 C752 1.363 . S
C753 C759 1.428 . S
H754 C750 0.930 . S
H755 C752 0.929 . S
S756 N757 1.613 . S
S756 N758 1.610 . S
N757 S756 1.613 . S
N757 C760 1.350 . S
N758 S756 1.610 . S
N758 C759 1.351 . S
C759 C753 1.428 . S
C759 N758 1.351 . S
C759 C760 1.434 . S
C760 C751 1.429 . S
C760 N757 1.350 . S
C760 C759 1.434 . S
C761 C762 1.369 . S
C761 C763 1.419 . S
C761 H765 0.930 . S
C762 C761 1.369 . S
C762 C771 1.429 . S
C763 C761 1.419 . S
C763 C764 1.363 . S
C763 H766 0.929 . S
C764 C763 1.363 . S
C764 C770 1.428 . S
H765 C761 0.930 . S
H766 C763 0.929 . S
S767 N768 1.613 . S
S767 N769 1.610 . S
N768 S767 1.613 . S
N768 C771 1.350 . S
N769 S767 1.610 . S
N769 C770 1.351 . S
C770 C764 1.428 . S
C770 N769 1.351 . S
C770 C771 1.434 . S
C771 C762 1.429 . S
C771 N768 1.350 . S
C771 C770 1.434 . S
C772 C773 1.369 . S
C772 C774 1.419 . S
C772 H776 0.930 . S
C773 C772 1.369 . S
C773 C782 1.429 . S
C774 C772 1.419 . S
C774 C775 1.363 . S
C774 H777 0.929 . S
C775 C774 1.363 . S
C775 C781 1.428 . S
H776 C772 0.930 . S
H777 C774 0.929 . S
S778 N779 1.613 . S
S778 N780 1.610 . S
N779 S778 1.613 . S
N779 C782 1.350 . S
N780 S778 1.610 . S
N780 C781 1.351 . S
C781 C775 1.428 . S
C781 N780 1.351 . S
C781 C782 1.434 . S
C782 C773 1.429 . S
C782 N779 1.350 . S
C782 C781 1.434 . S
C783 C784 1.369 . S
C783 C785 1.419 . S
C783 H787 0.930 . S
C784 C783 1.369 . S
C784 C793 1.429 . S
C785 C783 1.419 . S
C785 C786 1.363 . S
C785 H788 0.929 . S
C786 C785 1.363 . S
C786 C792 1.428 . S
H787 C783 0.930 . S
H788 C785 0.929 . S
S789 N790 1.613 . S
S789 N791 1.610 . S
N790 S789 1.613 . S
N790 C793 1.350 . S
N791 S789 1.610 . S
N791 C792 1.351 . S
C792 C786 1.428 . S
C792 N791 1.351 . S
C792 C793 1.434 . S
C793 C784 1.429 . S
C793 N790 1.350 . S
C793 C792 1.434 . S
C794 C795 1.369 . S
C794 C796 1.419 . S
C794 H798 0.930 . S
C795 C794 1.369 . S
C795 C804 1.429 . S
C796 C794 1.419 . S
C796 C797 1.363 . S
C796 H799 0.929 . S
C797 C796 1.363 . S
C797 C803 1.428 . S
H798 C794 0.930 . S
H799 C796 0.929 . S
S800 N801 1.613 . S
S800 N802 1.610 . S
N801 S800 1.613 . S
N801 C804 1.350 . S
N802 S800 1.610 . S
N802 C803 1.351 . S
C803 C797 1.428 . S
C803 N802 1.351 . S
C803 C804 1.434 . S
C804 C795 1.429 . S
C804 N801 1.350 . S
C804 C803 1.434 . S
C805 C806 1.369 . S
C805 C807 1.419 . S
C805 H809 0.930 . S
C806 C805 1.369 . S
C806 C815 1.429 . S
C807 C805 1.419 . S
C807 C808 1.363 . S
C807 H810 0.929 . S
C808 C807 1.363 . S
C808 C814 1.428 . S
H809 C805 0.930 . S
H810 C807 0.929 . S
S811 N812 1.613 . S
S811 N813 1.610 . S
N812 S811 1.613 . S
N812 C815 1.350 . S
N813 S811 1.610 . S
N813 C814 1.351 . S
C814 C808 1.428 . S
C814 N813 1.351 . S
C814 C815 1.434 . S
C815 C806 1.429 . S
C815 N812 1.350 . S
C815 C814 1.434 . S
C816 C817 1.369 . S
C816 C818 1.419 . S
C816 H820 0.930 . S
C817 C816 1.369 . S
C817 C826 1.429 . S
C818 C816 1.419 . S
C818 C819 1.363 . S
C818 H821 0.929 . S
C819 C818 1.363 . S
C819 C825 1.428 . S
H820 C816 0.930 . S
H821 C818 0.929 . S
S822 N823 1.613 . S
S822 N824 1.610 . S
N823 S822 1.613 . S
N823 C826 1.350 . S
N824 S822 1.610 . S
N824 C825 1.351 . S
C825 C819 1.428 . S
C825 N824 1.351 . S
C825 C826 1.434 . S
C826 C817 1.429 . S
C826 N823 1.350 . S
C826 C825 1.434 . S
C827 C828 1.369 . S
C827 C829 1.419 . S
C827 H831 0.930 . S
C828 C827 1.369 . S
C828 C837 1.429 . S
C829 C827 1.419 . S
C829 C830 1.363 . S
C829 H832 0.929 . S
C830 C829 1.363 . S
C830 C836 1.428 . S
H831 C827 0.930 . S
H832 C829 0.929 . S
S833 N834 1.613 . S
S833 N835 1.610 . S
N834 S833 1.613 . S
N834 C837 1.350 . S
N835 S833 1.610 . S
N835 C836 1.351 . S
C836 C830 1.428 . S
C836 N835 1.351 . S
C836 C837 1.434 . S
C837 C828 1.429 . S
C837 N834 1.350 . S
C837 C836 1.434 . S
C838 C839 1.369 . S
C838 C840 1.419 . S
C838 H842 0.930 . S
C839 C838 1.369 . S
C839 C848 1.429 . S
C840 C838 1.419 . S
C840 C841 1.363 . S
C840 H843 0.929 . S
C841 C840 1.363 . S
C841 C847 1.428 . S
H842 C838 0.930 . S
H843 C840 0.929 . S
S844 N845 1.613 . S
S844 N846 1.610 . S
N845 S844 1.613 . S
N845 C848 1.350 . S
N846 S844 1.610 . S
N846 C847 1.351 . S
C847 C841 1.428 . S
C847 N846 1.351 . S
C847 C848 1.434 . S
C848 C839 1.429 . S
C848 N845 1.350 . S
C848 C847 1.434 . S
C849 C850 1.369 . S
C849 C851 1.419 1_655 S
C849 H853 0.930 . S
C850 C849 1.369 . S
C850 C859 1.429 . S
C851 C849 1.419 1_455 S
C851 C852 1.363 . S
C851 H854 0.929 . S
C852 C851 1.363 . S
C852 C858 1.428 . S
H853 C849 0.930 . S
H854 C851 0.929 . S
S855 N856 1.613 . S
S855 N857 1.610 1_655 S
N856 S855 1.613 . S
N856 C859 1.350 . S
N857 S855 1.610 1_455 S
N857 C858 1.351 . S
C858 C852 1.428 . S
C858 N857 1.351 . S
C858 C859 1.434 1_455 S
C859 C850 1.429 . S
C859 N856 1.350 . S
C859 C858 1.434 1_655 S
C860 C861 1.369 . S
C860 C862 1.419 . S
C860 H864 0.930 . S
C861 C860 1.369 . S
C861 C870 1.429 . S
C862 C860 1.419 . S
C862 C863 1.363 . S
C862 H865 0.929 . S
C863 C862 1.363 . S
C863 C869 1.428 . S
H864 C860 0.930 . S
H865 C862 0.929 . S
S866 N867 1.613 . S
S866 N868 1.610 . S
N867 S866 1.613 . S
N867 C870 1.350 . S
N868 S866 1.610 . S
N868 C869 1.351 . S
C869 C863 1.428 . S
C869 N868 1.351 . S
C869 C870 1.434 . S
C870 C861 1.429 . S
C870 N867 1.350 . S
C870 C869 1.434 . S
C871 C872 1.369 . S
C871 C873 1.419 1_455 S
C871 H875 0.930 . S
C872 C871 1.369 . S
C872 C881 1.429 . S
C873 C871 1.419 1_655 S
C873 C874 1.363 . S
C873 H876 0.929 . S
C874 C873 1.363 . S
C874 C880 1.428 . S
H875 C871 0.930 . S
H876 C873 0.929 . S
S877 N878 1.613 1_655 S
S877 N879 1.610 . S
N878 S877 1.613 1_455 S
N878 C881 1.350 . S
N879 S877 1.610 . S
N879 C880 1.351 . S
C880 C874 1.428 . S
C880 N879 1.351 . S
C880 C881 1.434 1_655 S
C881 C872 1.429 . S
C881 N878 1.350 . S
C881 C880 1.434 1_455 S
C882 C883 1.369 . S
C882 C884 1.419 . S
C882 H886 0.930 . S
C883 C882 1.369 . S
C883 C892 1.429 . S
C884 C882 1.419 . S
C884 C885 1.363 . S
C884 H887 0.929 . S
C885 C884 1.363 . S
C885 C891 1.428 . S
H886 C882 0.930 . S
H887 C884 0.929 . S
S888 N889 1.613 . S
S888 N890 1.610 . S
N889 S888 1.613 . S
N889 C892 1.350 . S
N890 S888 1.610 . S
N890 C891 1.351 . S
C891 C885 1.428 . S
C891 N890 1.351 . S
C891 C892 1.434 . S
C892 C883 1.429 . S
C892 N889 1.350 . S
C892 C891 1.434 . S
C893 C894 1.369 . S
C893 C895 1.419 . S
C893 H897 0.930 . S
C894 C893 1.369 . S
C894 C903 1.429 . S
C895 C893 1.419 . S
C895 C896 1.363 . S
C895 H898 0.929 . S
C896 C895 1.363 . S
C896 C902 1.428 . S
H897 C893 0.930 . S
H898 C895 0.929 . S
S899 N900 1.613 . S
S899 N901 1.610 . S
N900 S899 1.613 . S
N900 C903 1.350 . S
N901 S899 1.610 . S
N901 C902 1.351 . S
C902 C896 1.428 . S
C902 N901 1.351 . S
C902 C903 1.434 . S
C903 C894 1.429 . S
C903 N900 1.350 . S
C903 C902 1.434 . S
C904 C905 1.369 . S
C904 C906 1.419 . S
C904 H908 0.930 . S
C905 C904 1.369 . S
C905 C914 1.429 . S
C906 C904 1.419 . S
C906 C907 1.363 . S
C906 H909 0.929 . S
C907 C906 1.363 . S
C907 C913 1.428 . S
H908 C904 0.930 . S
H909 C906 0.929 . S
S910 N911 1.613 . S
S910 N912 1.610 . S
N911 S910 1.613 . S
N911 C914 1.350 . S
N912 S910 1.610 . S
N912 C913 1.351 . S
C913 C907 1.428 . S
C913 N912 1.351 . S
C913 C914 1.434 . S
C914 C905 1.429 . S
C914 N911 1.350 . S
C914 C913 1.434 . S
C915 C916 1.369 . S
C915 C917 1.419 . S
C915 H919 0.930 . S
C916 C915 1.369 . S
C916 C925 1.429 . S
C917 C915 1.419 . S
C917 C918 1.363 . S
C917 H920 0.929 . S
C918 C917 1.363 . S
C918 C924 1.428 . S
H919 C915 0.930 . S
H920 C917 0.929 . S
S921 N922 1.613 . S
S921 N923 1.610 . S
N922 S921 1.613 . S
N922 C925 1.350 . S
N923 S921 1.610 . S
N923 C924 1.351 . S
C924 C918 1.428 . S
C924 N923 1.351 . S
C924 C925 1.434 . S
C925 C916 1.429 . S
C925 N922 1.350 . S
C925 C924 1.434 . S
C926 C927 1.369 . S
C926 C928 1.419 . S
C926 H930 0.930 . S
C927 C926 1.369 . S
C927 C936 1.429 . S
C928 C926 1.419 . S
C928 C929 1.363 . S
C928 H931 0.929 . S
C929 C928 1.363 . S
C929 C935 1.428 . S
H930 C926 0.930 . S
H931 C928 0.929 . S
S932 N933 1.613 . S
S932 N934 1.610 . S
N933 S932 1.613 . S
N933 C936 1.350 . S
N934 S932 1.610 . S
N934 C935 1.351 . S
C935 C929 1.428 . S
C935 N934 1.351 . S
C935 C936 1.434 . S
C936 C927 1.429 . S
C936 N933 1.350 . S
C936 C935 1.434 . S
C937 C938 1.369 . S
C937 C939 1.419 . S
C937 H941 0.930 . S
C938 C937 1.369 . S
C938 C947 1.429 . S
C939 C937 1.419 . S
C939 C940 1.363 . S
C939 H942 0.929 . S
C940 C939 1.363 . S
C940 C946 1.428 . S
H941 C937 0.930 . S
H942 C939 0.929 . S
S943 N944 1.613 . S
S943 N945 1.610 . S
N944 S943 1.613 . S
N944 C947 1.350 . S
N945 S943 1.610 . S
N945 C946 1.351 . S
C946 C940 1.428 . S
C946 N945 1.351 . S
C946 C947 1.434 . S
C947 C938 1.429 . S
C947 N944 1.350 . S
C947 C946 1.434 . S
C948 C949 1.369 . S
C948 C950 1.419 1_655 S
C948 H952 0.930 . S
C949 C948 1.369 . S
C949 C958 1.429 . S
C950 C948 1.419 1_455 S
C950 C951 1.363 . S
C950 H953 0.929 . S
C951 C950 1.363 . S
C951 C957 1.428 . S
H952 C948 0.930 . S
H953 C950 0.929 . S
S954 N955 1.623 1_554 S
S954 N956 1.582 1_654 S
N955 S954 1.623 1_556 S
N955 C958 1.350 . S
N956 S954 1.582 1_456 S
N956 C957 1.351 . S
C957 C951 1.428 . S
C957 N956 1.351 . S
C957 C958 1.434 1_455 S
C958 C949 1.429 . S
C958 N955 1.350 . S
C958 C957 1.434 1_655 S
C959 C960 1.369 . S
C959 C961 1.419 . S
C959 H963 0.930 . S
C960 C959 1.369 . S
C960 C969 1.429 . S
C961 C959 1.419 . S
C961 C962 1.363 . S
C961 H964 0.929 . S
C962 C961 1.363 . S
C962 C968 1.428 . S
H963 C959 0.930 . S
H964 C961 0.929 . S
S965 N966 1.613 . S
S965 N967 1.610 . S
N966 S965 1.613 . S
N966 C969 1.350 . S
N967 S965 1.610 . S
N967 C968 1.351 . S
C968 C962 1.428 . S
C968 N967 1.351 . S
C968 C969 1.434 . S
C969 C960 1.429 . S
C969 N966 1.350 . S
C969 C968 1.434 . S
C970 C971 1.369 . S
C970 C972 1.419 . S
C970 H974 0.930 . S
C971 C970 1.369 . S
C971 C980 1.429 . S
C972 C970 1.419 . S
C972 C973 1.363 . S
C972 H975 0.929 . S
C973 C972 1.363 . S
C973 C979 1.428 . S
H974 C970 0.930 . S
H975 C972 0.929 . S
S976 N977 1.613 . S
S976 N978 1.610 . S
N977 S976 1.613 . S
N977 C980 1.350 . S
N978 S976 1.610 . S
N978 C979 1.351 . S
C979 C973 1.428 . S
C979 N978 1.351 . S
C979 C980 1.434 . S
C980 C971 1.429 . S
C980 N977 1.350 . S
C980 C979 1.434 . S
C981 C982 1.369 . S
C981 C983 1.419 1_455 S
C981 H985 0.930 . S
C982 C981 1.369 . S
C982 C991 1.429 . S
C983 C981 1.419 1_655 S
C983 C984 1.363 . S
C983 H986 0.929 . S
C984 C983 1.363 . S
C984 C990 1.428 . S
H985 C981 0.930 . S
H986 C983 0.929 . S
S987 N988 1.593 1_656 S
S987 N989 1.626 1_556 S
N988 S987 1.593 1_454 S
N988 C991 1.350 . S
N989 S987 1.626 1_554 S
N989 C990 1.351 . S
C990 C984 1.428 . S
C990 N989 1.351 . S
C990 C991 1.434 1_655 S
C991 C982 1.429 . S
C991 N988 1.350 . S
C991 C990 1.434 1_455 S
C992 C993 1.369 . S
C992 C994 1.419 1_554 S
C992 H996 0.930 . S
C993 C992 1.369 . S
C993 C1002 1.429 . S
C994 C992 1.419 1_556 S
C994 C995 1.363 . S
C994 H997 0.929 . S
C995 C994 1.363 . S
C995 C1001 1.428 1_556 S
H996 C992 0.930 . S
H997 C994 0.929 . S
S998 N999 1.613 . S
S998 N1000 1.610 . S
N999 S998 1.613 . S
N999 C1002 1.350 . S
N1000 S998 1.610 . S
N1000 C1001 1.351 . S
C1001 C995 1.428 1_554 S
C1001 N1000 1.351 . S
C1001 C1002 1.434 . S
C1002 C993 1.429 . S
C1002 N999 1.350 . S
C1002 C1001 1.434 . S
C1003 C1004 1.369 . S
C1003 C1005 1.419 . S
C1003 H1007 0.930 . S
C1004 C1003 1.369 . S
C1004 C1013 1.429 . S
C1005 C1003 1.419 . S
C1005 C1006 1.363 . S
C1005 H1008 0.929 . S
C1006 C1005 1.363 . S
C1006 C1012 1.428 . S
H1007 C1003 0.930 . S
H1008 C1005 0.929 . S
S1009 N1010 1.613 . S
S1009 N1011 1.610 . S
N1010 S1009 1.613 . S
N1010 C1013 1.350 . S
N1011 S1009 1.610 . S
N1011 C1012 1.351 . S
C1012 C1006 1.428 . S
C1012 N1011 1.351 . S
C1012 C1013 1.434 . S
C1013 C1004 1.429 . S
C1013 N1010 1.350 . S
C1013 C1012 1.434 . S
C1014 C1015 1.369 . S
C1014 C1016 1.419 . S
C1014 H1018 0.930 . S
C1015 C1014 1.369 . S
C1015 C1024 1.429 . S
C1016 C1014 1.419 . S
C1016 C1017 1.363 . S
C1016 H1019 0.929 . S
C1017 C1016 1.363 . S
C1017 C1023 1.428 . S
H1018 C1014 0.930 . S
H1019 C1016 0.929 . S
S1020 N1021 1.613 . S
S1020 N1022 1.610 . S
N1021 S1020 1.613 . S
N1021 C1024 1.350 . S
N1022 S1020 1.610 . S
N1022 C1023 1.351 . S
C1023 C1017 1.428 . S
C1023 N1022 1.351 . S
C1023 C1024 1.434 . S
C1024 C1015 1.429 . S
C1024 N1021 1.350 . S
C1024 C1023 1.434 . S
C1025 C1026 1.369 . S
C1025 C1027 1.419 . S
C1025 H1029 0.930 . S
C1026 C1025 1.369 . S
C1026 C1035 1.429 . S
C1027 C1025 1.419 . S
C1027 C1028 1.363 . S
C1027 H1030 0.929 . S
C1028 C1027 1.363 . S
C1028 C1034 1.428 . S
H1029 C1025 0.930 . S
H1030 C1027 0.929 . S
S1031 N1032 1.613 . S
S1031 N1033 1.610 . S
N1032 S1031 1.613 . S
N1032 C1035 1.350 . S
N1033 S1031 1.610 . S
N1033 C1034 1.351 . S
C1034 C1028 1.428 . S
C1034 N1033 1.351 . S
C1034 C1035 1.434 . S
C1035 C1026 1.429 . S
C1035 N1032 1.350 . S
C1035 C1034 1.434 . S
C1036 C1037 1.369 . S
C1036 C1038 1.419 1_554 S
C1036 H1040 0.930 . S
C1037 C1036 1.369 . S
C1037 C1046 1.429 . S
C1038 C1036 1.419 1_556 S
C1038 C1039 1.363 . S
C1038 H1041 0.929 . S
C1039 C1038 1.363 . S
C1039 C1045 1.428 . S
H1040 C1036 0.930 . S
H1041 C1038 0.929 . S
S1042 N1043 1.613 . S
S1042 N1044 1.610 1_554 S
N1043 S1042 1.613 . S
N1043 C1046 1.350 . S
N1044 S1042 1.610 1_556 S
N1044 C1045 1.351 . S
C1045 C1039 1.428 . S
C1045 N1044 1.351 . S
C1045 C1046 1.434 1_556 S
C1046 C1037 1.429 . S
C1046 N1043 1.350 . S
C1046 C1045 1.434 1_554 S
C1047 C1048 1.369 . S
C1047 C1049 1.419 . S
C1047 H1051 0.930 . S
C1048 C1047 1.369 . S
C1048 C1057 1.429 . S
C1049 C1047 1.419 . S
C1049 C1050 1.363 . S
C1049 H1052 0.929 . S
C1050 C1049 1.363 . S
C1050 C1056 1.428 . S
H1051 C1047 0.930 . S
H1052 C1049 0.929 . S
S1053 N1054 1.613 . S
S1053 N1055 1.610 . S
N1054 S1053 1.613 . S
N1054 C1057 1.350 . S
N1055 S1053 1.610 . S
N1055 C1056 1.351 . S
C1056 C1050 1.428 . S
C1056 N1055 1.351 . S
C1056 C1057 1.434 . S
C1057 C1048 1.429 . S
C1057 N1054 1.350 . S
C1057 C1056 1.434 . S
C1058 C1059 1.369 . S
C1058 C1060 1.419 . S
C1058 H1062 0.930 . S
C1059 C1058 1.369 . S
C1059 C1068 1.429 . S
C1060 C1058 1.419 . S
C1060 C1061 1.363 . S
C1060 H1063 0.929 . S
C1061 C1060 1.363 . S
C1061 C1067 1.428 . S
H1062 C1058 0.930 . S
H1063 C1060 0.929 . S
S1064 N1065 1.613 . S
S1064 N1066 1.610 . S
N1065 S1064 1.613 . S
N1065 C1068 1.350 . S
N1066 S1064 1.610 . S
N1066 C1067 1.351 . S
C1067 C1061 1.428 . S
C1067 N1066 1.351 . S
C1067 C1068 1.434 . S
C1068 C1059 1.429 . S
C1068 N1065 1.350 . S
C1068 C1067 1.434 . S
C1069 C1070 1.369 . S
C1069 C1071 1.419 . S
C1069 H1073 0.930 . S
C1070 C1069 1.369 . S
C1070 C1079 1.429 . S
C1071 C1069 1.419 . S
C1071 C1072 1.363 . S
C1071 H1074 0.929 . S
C1072 C1071 1.363 . S
C1072 C1078 1.428 . S
H1073 C1069 0.930 . S
H1074 C1071 0.929 . S
S1075 N1076 1.613 . S
S1075 N1077 1.610 . S
N1076 S1075 1.613 . S
N1076 C1079 1.350 . S
N1077 S1075 1.610 . S
N1077 C1078 1.351 . S
C1078 C1072 1.428 . S
C1078 N1077 1.351 . S
C1078 C1079 1.434 . S
C1079 C1070 1.429 . S
C1079 N1076 1.350 . S
C1079 C1078 1.434 . S
C1080 C1081 1.369 1_545 S
C1080 C1082 1.419 . S
C1080 H1084 0.930 . S
C1081 C1080 1.369 1_565 S
C1081 C1090 1.429 . S
C1082 C1080 1.419 . S
C1082 C1083 1.363 . S
C1082 H1085 0.929 . S
C1083 C1082 1.363 . S
C1083 C1089 1.428 1_545 S
H1084 C1080 0.930 . S
H1085 C1082 0.929 . S
S1086 N1087 1.613 . S
S1086 N1088 1.610 . S
N1087 S1086 1.613 . S
N1087 C1090 1.350 . S
N1088 S1086 1.610 . S
N1088 C1089 1.351 . S
C1089 C1083 1.428 1_565 S
C1089 N1088 1.351 . S
C1089 C1090 1.434 . S
C1090 C1081 1.429 . S
C1090 N1087 1.350 . S
C1090 C1089 1.434 . S
C1091 C1092 1.369 . S
C1091 C1093 1.419 . S
C1091 H1095 0.930 . S
C1092 C1091 1.369 . S
C1092 C1101 1.429 . S
C1093 C1091 1.419 . S
C1093 C1094 1.363 . S
C1093 H1096 0.929 . S
C1094 C1093 1.363 . S
C1094 C1100 1.428 . S
H1095 C1091 0.930 . S
H1096 C1093 0.929 . S
S1097 N1098 1.613 . S
S1097 N1099 1.610 . S
N1098 S1097 1.613 . S
N1098 C1101 1.350 . S
N1099 S1097 1.610 . S
N1099 C1100 1.351 . S
C1100 C1094 1.428 . S
C1100 N1099 1.351 . S
C1100 C1101 1.434 . S
C1101 C1092 1.429 . S
C1101 N1098 1.350 . S
C1101 C1100 1.434 . S
C1102 C1103 1.369 . S
C1102 C1104 1.419 1_554 S
C1102 H1106 0.930 . S
C1103 C1102 1.369 . S
C1103 C1112 1.429 1_565 S
C1104 C1102 1.419 1_556 S
C1104 C1105 1.363 1_565 S
C1104 H1107 0.929 . S
C1105 C1104 1.363 1_545 S
C1105 C1111 1.428 1_556 S
H1106 C1102 0.930 . S
H1107 C1104 0.929 . S
S1108 N1109 1.613 . S
S1108 N1110 1.610 . S
N1109 S1108 1.613 . S
N1109 C1112 1.350 . S
N1110 S1108 1.610 . S
N1110 C1111 1.351 . S
C1111 C1105 1.428 1_554 S
C1111 N1110 1.351 . S
C1111 C1112 1.434 . S
C1112 C1103 1.429 1_545 S
C1112 N1109 1.350 . S
C1112 C1111 1.434 . S
C1113 C1114 1.369 . S
C1113 C1115 1.419 . S
C1113 H1117 0.930 . S
C1114 C1113 1.369 . S
C1114 C1123 1.429 . S
C1115 C1113 1.419 . S
C1115 C1116 1.363 . S
C1115 H1118 0.929 . S
C1116 C1115 1.363 . S
C1116 C1122 1.428 . S
H1117 C1113 0.930 . S
H1118 C1115 0.929 . S
S1119 N1120 1.613 . S
S1119 N1121 1.610 . S
N1120 S1119 1.613 . S
N1120 C1123 1.350 . S
N1121 S1119 1.610 . S
N1121 C1122 1.351 . S
C1122 C1116 1.428 . S
C1122 N1121 1.351 . S
C1122 C1123 1.434 . S
C1123 C1114 1.429 . S
C1123 N1120 1.350 . S
C1123 C1122 1.434 . S
C1124 C1125 1.369 1_545 S
C1124 C1126 1.419 . S
C1124 H1128 0.930 . S
C1125 C1124 1.369 1_565 S
C1125 C1134 1.429 . S
C1126 C1124 1.419 . S
C1126 C1127 1.363 . S
C1126 H1129 0.929 . S
C1127 C1126 1.363 . S
C1127 C1133 1.428 1_545 S
H1128 C1124 0.930 . S
H1129 C1126 0.929 . S
S1130 N1131 1.613 . S
S1130 N1132 1.610 . S
N1131 S1130 1.613 . S
N1131 C1134 1.350 . S
N1132 S1130 1.610 . S
N1132 C1133 1.351 . S
C1133 C1127 1.428 1_565 S
C1133 N1132 1.351 . S
C1133 C1134 1.434 . S
C1134 C1125 1.429 . S
C1134 N1131 1.350 . S
C1134 C1133 1.434 . S
C1135 C1136 1.369 . S
C1135 C1137 1.419 . S
C1135 H1139 0.930 . S
C1136 C1135 1.369 . S
C1136 C1145 1.429 . S
C1137 C1135 1.419 . S
C1137 C1138 1.363 . S
C1137 H1140 0.929 . S
C1138 C1137 1.363 . S
C1138 C1144 1.428 . S
H1139 C1135 0.930 . S
H1140 C1137 0.929 . S
S1141 N1142 1.613 . S
S1141 N1143 1.610 . S
N1142 S1141 1.613 . S
N1142 C1145 1.350 . S
N1143 S1141 1.610 . S
N1143 C1144 1.351 . S
C1144 C1138 1.428 . S
C1144 N1143 1.351 . S
C1144 C1145 1.434 . S
C1145 C1136 1.429 . S
C1145 N1142 1.350 . S
C1145 C1144 1.434 . S
C1146 C1147 1.369 . S
C1146 C1148 1.419 1_545 S
C1146 H1150 0.930 . S
C1147 C1146 1.369 . S
C1147 C1156 1.429 . S
C1148 C1146 1.419 1_565 S
C1148 C1149 1.363 1_556 S
C1148 H1151 0.929 1_556 S
C1149 C1148 1.363 1_554 S
C1149 C1155 1.433 . S
H1150 C1146 0.930 . S
H1151 C1148 0.929 1_554 S
S1152 N1153 1.613 . S
S1152 N1154 1.610 1_546 S
N1153 S1152 1.613 . S
N1153 C1156 1.350 . S
N1154 S1152 1.610 1_564 S
N1154 C1155 1.358 . S
C1155 C1149 1.433 . S
C1155 N1154 1.358 . S
C1155 C1156 1.421 1_564 S
C1156 C1147 1.429 . S
C1156 N1153 1.350 . S
C1156 C1155 1.421 1_546 S
C1157 C1158 1.369 . S
C1157 C1159 1.419 . S
C1157 H1161 0.930 . S
C1158 C1157 1.369 . S
C1158 C1167 1.429 . S
C1159 C1157 1.419 . S
C1159 C1160 1.363 . S
C1159 H1162 0.929 . S
C1160 C1159 1.363 . S
C1160 C1166 1.428 . S
H1161 C1157 0.930 . S
H1162 C1159 0.929 . S
S1163 N1164 1.613 . S
S1163 N1165 1.610 . S
N1164 S1163 1.613 . S
N1164 C1167 1.350 . S
N1165 S1163 1.610 . S
N1165 C1166 1.351 . S
C1166 C1160 1.428 . S
C1166 N1165 1.351 . S
C1166 C1167 1.434 . S
C1167 C1158 1.429 . S
C1167 N1164 1.350 . S
C1167 C1166 1.434 . S
C641 C5 1.593 . S
C643 C15 1.586 . S
C652 C55 1.515 . S
C654 C45 1.510 . S
C663 C85 1.846 . S
C665 C95 1.838 . S
C674 C135 1.676 . S
C676 C125 1.684 . S
C685 C165 1.516 . S
C687 C175 1.509 . S
C696 C205 1.846 . S
C698 C215 1.839 . S
C707 C245 1.678 . S
C709 C255 1.682 . S
C718 C295 1.586 . S
C720 C285 1.591 . S
C729 C335 1.576 . S
C731 C325 1.584 . S
C740 C375 1.511 . S
C742 C365 1.504 . S
C751 C415 1.910 . S
C753 C405 1.914 . S
C762 C445 1.691 . S
C764 C455 1.682 . S
C773 C495 1.510 . S
C775 C485 1.505 . S
C784 C535 1.914 . S
C786 C525 1.911 . S
C795 C575 1.681 . S
C797 C565 1.689 . S
C806 C605 1.583 . S
C808 C615 1.578 . S
C817 C19 1.951 . S
C819 C449 1.958 . S
C828 C58 1.560 . S
C830 C608 1.585 . S
C839 C99 1.924 . S
C841 C369 1.997 . S
C850 C138 1.537 . S
C852 C529 1.558 . S
C861 C179 1.871 . S
C863 C528 1.839 . S
C872 C448 1.499 . S
C874 C218 1.569 . S
C883 C259 1.912 . S
C885 C609 1.908 . S
C894 C298 1.538 . S
C896 C368 1.519 . S
C905 C139 1.914 . S
C907 C329 1.908 . S
C916 C59 1.878 . S
C918 C408 1.845 . S
C927 C489 1.997 . S
C929 C219 1.927 . S
C938 C299 1.950 . S
C940 C569 1.957 . S
C949 C328 1.589 . S
C951 C178 1.564 . S
C960 C258 1.529 . S
C962 C409 1.556 . S
C971 C98 1.564 . S
C973 C568 1.491 . S
C982 C18 1.538 . S
C984 C488 1.519 . S
C993 C9 2.062 . S
C995 C169 2.069 . S
C1004 C48 1.850 . S
C1006 C208 1.852 . S
C1015 C89 1.811 . S
C1017 C249 1.816 . S
C1026 C128 1.595 . S
C1028 C288 1.577 . S
C1037 C499 2.044 . S
C1039 C339 2.030 . S
C1048 C539 1.678 . S
C1050 C378 1.662 . S
C1059 C418 2.070 . S
C1061 C579 2.064 . S
C1070 C618 1.628 . S
C1072 C458 1.645 . S
C1081 C49 2.069 . S
C1083 C289 2.062 . S
C1092 C168 1.846 . S
C1094 C88 1.850 . S
C1103 C209 1.815 . S
C1105 C129 1.815 . S
C1114 C8 1.578 . S
C1116 C248 1.596 . S
C1125 C619 2.029 . S
C1127 C379 2.044 . S
C1136 C498 1.662 . S
C1138 C419 1.678 . S
C1147 C538 2.065 . S
C1149 C459 2.068 . S
C1158 C578 1.645 . S
C1160 C338 1.628 . S
