# Generated by pormake.
# Topology ukh, (4)-cn, num edge types: 1
# Building blocks:
#     Node 0, Type 0, BuildingBlock: UXUYUI_clean_sbu_0, # of connection points: 4
#     Node 1, Type 0, BuildingBlock: UXUYUI_clean_sbu_0, # of connection points: 4
#     Node 2, Type 0, BuildingBlock: UXUYUI_clean_sbu_0, # of connection points: 4
#     Node 3, Type 0, BuildingBlock: UXUYUI_clean_sbu_0, # of connection points: 4
#     Node 4, Type 0, BuildingBlock: UXUYUI_clean_sbu_0, # of connection points: 4
#     Node 5, Type 0, BuildingBlock: UXUYUI_clean_sbu_0, # of connection points: 4
#     Node 6, Type 0, BuildingBlock: UXUYUI_clean_sbu_0, # of connection points: 4
#     Node 7, Type 0, BuildingBlock: UXUYUI_clean_sbu_0, # of connection points: 4
#     Node 8, Type 0, BuildingBlock: UXUYUI_clean_sbu_0, # of connection points: 4
#     Node 9, Type 0, BuildingBlock: UXUYUI_clean_sbu_0, # of connection points: 4
#     Node 10, Type 0, BuildingBlock: UXUYUI_clean_sbu_0, # of connection points: 4
#     Node 11, Type 0, BuildingBlock: UXUYUI_clean_sbu_0, # of connection points: 4
#     Edge 12, Type (0, 0), BuildingBlock: UVAHIK_clean_linker_0, # of connection points: 2
#     Edge 13, Type (0, 0), BuildingBlock: UVAHIK_clean_linker_0, # of connection points: 2
#     Edge 14, Type (0, 0), BuildingBlock: UVAHIK_clean_linker_0, # of connection points: 2
#     Edge 15, Type (0, 0), BuildingBlock: UVAHIK_clean_linker_0, # of connection points: 2
#     Edge 16, Type (0, 0), BuildingBlock: UVAHIK_clean_linker_0, # of connection points: 2
#     Edge 17, Type (0, 0), BuildingBlock: UVAHIK_clean_linker_0, # of connection points: 2
#     Edge 18, Type (0, 0), BuildingBlock: UVAHIK_clean_linker_0, # of connection points: 2
#     Edge 19, Type (0, 0), BuildingBlock: UVAHIK_clean_linker_0, # of connection points: 2
#     Edge 20, Type (0, 0), BuildingBlock: UVAHIK_clean_linker_0, # of connection points: 2
#     Edge 21, Type (0, 0), BuildingBlock: UVAHIK_clean_linker_0, # of connection points: 2
#     Edge 22, Type (0, 0), BuildingBlock: UVAHIK_clean_linker_0, # of connection points: 2
#     Edge 23, Type (0, 0), BuildingBlock: UVAHIK_clean_linker_0, # of connection points: 2
#     Edge 24, Type (0, 0), BuildingBlock: UVAHIK_clean_linker_0, # of connection points: 2
#     Edge 25, Type (0, 0), BuildingBlock: UVAHIK_clean_linker_0, # of connection points: 2
#     Edge 26, Type (0, 0), BuildingBlock: UVAHIK_clean_linker_0, # of connection points: 2
#     Edge 27, Type (0, 0), BuildingBlock: UVAHIK_clean_linker_0, # of connection points: 2
#     Edge 28, Type (0, 0), BuildingBlock: UVAHIK_clean_linker_0, # of connection points: 2
#     Edge 29, Type (0, 0), BuildingBlock: UVAHIK_clean_linker_0, # of connection points: 2
#     Edge 30, Type (0, 0), BuildingBlock: UVAHIK_clean_linker_0, # of connection points: 2
#     Edge 31, Type (0, 0), BuildingBlock: UVAHIK_clean_linker_0, # of connection points: 2
#     Edge 32, Type (0, 0), BuildingBlock: UVAHIK_clean_linker_0, # of connection points: 2
#     Edge 33, Type (0, 0), BuildingBlock: UVAHIK_clean_linker_0, # of connection points: 2
#     Edge 34, Type (0, 0), BuildingBlock: UVAHIK_clean_linker_0, # of connection points: 2
#     Edge 35, Type (0, 0), BuildingBlock: UVAHIK_clean_linker_0, # of connection points: 2
# Relax obj value: 0.278
# Max RMSD: 0.251
# Mean RMSD: 0.251
data_MOF--net-ukh--node1-UXUYUI_clean_sbu_0--edge1-UVAHIK_clean_linker_0
_symmetry_space_group_name_H-M    P1
_symmetry_Int_Tables_number       1
_symmetry_cell_setting            triclinic
loop_
_symmetry_equiv_pos_as_xyz
'x, y, z'
_cell_length_a     54.915983
_cell_length_b     54.903201
_cell_length_c     106.50999
_cell_angle_alpha  89.984839
_cell_angle_beta   90.028528
_cell_angle_gamma 119.99945
loop_
_atom_site_label
_atom_site_type_symbol
_atom_site_fract_x
_atom_site_fract_y
_atom_site_fract_z
_atom_type_partial_charge
Li0 Li 0.35955 0.25191 0.03987 0.0
Li1 Li 0.33741 0.21901 0.05756 0.0
Li2 Li 0.3451 0.20409 0.03773 0.0
Li3 Li 0.31049 0.21794 0.03862 0.0
C4 C 0.39494 0.22534 0.04726 0.0
N5 N 0.43564 0.21126 0.04207 0.0
C6 C 0.39874 0.20738 0.0553 0.0
C7 C 0.41195 0.23631 0.03664 0.0
C8 C 0.4194 0.20046 0.05249 0.0
C9 C 0.4324 0.22891 0.03417 0.0
C10 C 0.33933 0.27475 0.05578 0.0
C11 C 0.33819 0.31802 0.05717 0.0
N12 N 0.36246 0.32971 0.06393 0.0
C13 C 0.36413 0.28713 0.06283 0.0
C14 C 0.32613 0.29025 0.05299 0.0
C15 C 0.37554 0.31496 0.06683 0.0
C16 C 0.37474 0.30329 0.02878 0.0
N17 N 0.3852 0.28968 0.03559 0.0
C18 C 0.42849 0.33239 0.03875 0.0
C19 C 0.41168 0.30338 0.04036 0.0
C20 C 0.41775 0.34734 0.03228 0.0
C21 C 0.3907 0.33229 0.02702 0.0
H22 H 0.3534 0.29177 0.02528 0.0
H23 H 0.41926 0.29202 0.0459 0.0
C24 C 0.33541 0.18835 0.07865 0.0
N25 N 0.3354 0.2121 0.07507 0.0
C26 C 0.3338 0.18138 0.09134 0.0
C27 C 0.33191 0.22334 0.09641 0.0
C28 C 0.33323 0.22932 0.08361 0.0
C29 C 0.33227 0.19914 0.10039 0.0
H30 H 0.33661 0.17478 0.07162 0.0
H31 H 0.33231 0.24756 0.08052 0.0
C32 C 0.32668 0.21301 0.01482 0.0
N33 N 0.30084 0.18313 0.99328 0.0
C34 C 0.30619 0.18454 0.01557 0.0
C35 C 0.33397 0.22626 0.00312 0.0
C36 C 0.29339 0.16981 0.00457 0.0
C37 C 0.32069 0.2108 0.99234 0.0
C38 C 0.28578 0.17092 0.05431 0.0
C39 C 0.27198 0.14156 0.05446 0.0
C40 C 0.2746 0.18491 0.06107 0.0
C41 C 0.24716 0.12663 0.06135 0.0
C42 C 0.24974 0.16922 0.06784 0.0
N43 N 0.23665 0.14065 0.06784 0.0
C44 C 0.34585 0.15396 0.03791 0.0
C45 C 0.36601 0.18073 0.01945 0.0
C46 C 0.34969 0.13232 0.03338 0.0
N47 N 0.3536 0.1773 0.03086 0.0
C48 C 0.37018 0.15952 0.01452 0.0
C49 C 0.36154 0.13471 0.02144 0.0
H50 H 0.33616 0.15196 0.04698 0.0
H51 H 0.37224 0.1997 0.01411 0.0
C52 C 0.277 0.2368 0.02799 0.0
N53 N 0.276 0.21296 0.03219 0.0
C54 C 0.25302 0.23587 0.02309 0.0
C55 C 0.22758 0.18556 0.02638 0.0
C56 C 0.25209 0.18751 0.03131 0.0
C57 C 0.22783 0.21003 0.02231 0.0
H58 H 0.2966 0.25654 0.02837 0.0
H59 H 0.25199 0.1687 0.03436 0.0
O60 O 0.37437 0.23181 0.04966 0.0
O61 O 0.32845 0.24785 0.05139 0.0
O62 O 0.33961 0.2281 0.02541 0.0
O63 O 0.31021 0.18564 0.04764 0.0
H64 H 0.38577 0.19874 0.06356 0.0
H65 H 0.40909 0.25004 0.03027 0.0
H66 H 0.42248 0.18646 0.05858 0.0
H67 H 0.44559 0.23708 0.02594 0.0
H68 H 0.32825 0.33029 0.05504 0.0
H69 H 0.37471 0.27548 0.06502 0.0
H70 H 0.30678 0.28098 0.04767 0.0
H71 H 0.39486 0.32487 0.07219 0.0
H72 H 0.44935 0.34308 0.04282 0.0
H73 H 0.38136 0.34292 0.02215 0.0
H74 H 0.3342 0.16257 0.09405 0.0
H75 H 0.33027 0.23728 0.10312 0.0
H76 H 0.3002 0.17382 0.0245 0.0
H77 H 0.34976 0.24829 0.00239 0.0
H78 H 0.27753 0.14778 0.00502 0.0
H79 H 0.32615 0.2208 0.98322 0.0
H80 H 0.28038 0.13042 0.04929 0.0
H81 H 0.28487 0.20759 0.06111 0.0
H82 H 0.23626 0.10389 0.06154 0.0
H83 H 0.24085 0.17977 0.0731 0.0
H84 H 0.34232 0.11342 0.03895 0.0
H85 H 0.3796 0.16229 0.00532 0.0
H86 H 0.25427 0.25513 0.01979 0.0
H87 H 0.20858 0.16522 0.0259 0.0
Li88 Li 0.10533 0.36105 0.37365 0.0
Li89 Li 0.11758 0.33686 0.39111 0.0
Li90 Li 0.13961 0.34624 0.37039 0.0
Li91 Li 0.09147 0.3119 0.3725 0.0
C92 C 0.16793 0.39574 0.38065 0.0
N93 N 0.22215 0.43779 0.37549 0.0
C94 C 0.19014 0.39931 0.38832 0.0
C95 C 0.17323 0.41361 0.3704 0.0
C96 C 0.21742 0.42069 0.38554 0.0
C97 C 0.20081 0.43474 0.36794 0.0
C98 C 0.05233 0.31143 0.38692 0.0
C99 C 0.01524 0.26832 0.39574 0.0
N100 N 0.99602 0.27161 0.38902 0.0
C101 C 0.03219 0.31455 0.3802 0.0
C102 C 0.0438 0.28828 0.39484 0.0
C103 C 0.00383 0.29414 0.38136 0.0
C104 C 0.07597 0.38332 0.36108 0.0
N105 N 0.09484 0.38817 0.37035 0.0
C106 C 0.09602 0.43071 0.37611 0.0
C107 C 0.10526 0.41142 0.37771 0.0
C108 C 0.07564 0.42578 0.36693 0.0
C109 C 0.06593 0.40191 0.35921 0.0
H110 H 0.06807 0.36453 0.3554 0.0
H111 H 0.12035 0.41468 0.38499 0.0
C112 C 0.14712 0.33492 0.41201 0.0
N113 N 0.12391 0.33594 0.40844 0.0
C114 C 0.15293 0.33433 0.42471 0.0
C115 C 0.11078 0.33588 0.4298 0.0
C116 C 0.10578 0.33641 0.41697 0.0
C117 C 0.13465 0.33485 0.4338 0.0
H118 H 0.16112 0.33459 0.40495 0.0
H119 H 0.08746 0.33718 0.4138 0.0
C120 C 0.11013 0.33001 0.34779 0.0
N121 N 0.11339 0.30804 0.32493 0.0
C122 C 0.1146 0.30712 0.34733 0.0
C123 C 0.10722 0.34169 0.33662 0.0
C124 C 0.11621 0.29631 0.33569 0.0
C125 C 0.10896 0.3303 0.32516 0.0
C126 C 0.1231 0.28738 0.3837 0.0
C127 C 0.13632 0.27649 0.37622 0.0
C128 C 0.10963 0.27346 0.39477 0.0
C129 C 0.13538 0.25156 0.37981 0.0
C130 C 0.10918 0.2486 0.39804 0.0
N131 N 0.12193 0.23823 0.39055 0.0
C132 C 0.19112 0.34888 0.36995 0.0
C133 C 0.18228 0.36677 0.3513 0.0
C134 C 0.21638 0.35283 0.36511 0.0
N135 N 0.17446 0.35532 0.36294 0.0
C136 C 0.20739 0.37095 0.34603 0.0
C137 C 0.22454 0.36346 0.3529 0.0
H138 H 0.18439 0.34001 0.37923 0.0
H139 H 0.16881 0.37214 0.34602 0.0
C140 C 0.04401 0.2799 0.35783 0.0
N141 N 0.06112 0.27715 0.36623 0.0
C142 C 0.02081 0.25619 0.35281 0.0
C143 C 0.03347 0.22703 0.36496 0.0
C144 C 0.05628 0.25135 0.36985 0.0
C145 C 0.01527 0.22922 0.35634 0.0
H146 H 0.04823 0.30066 0.35514 0.0
H147 H 0.06994 0.24944 0.37652 0.0
O148 O 0.14122 0.37439 0.38295 0.0
O149 O 0.08027 0.3308 0.38564 0.0
O150 O 0.10856 0.34107 0.35906 0.0
O151 O 0.12422 0.31203 0.38041 0.0
H152 H 0.18637 0.38557 0.39625 0.0
H153 H 0.15625 0.41093 0.36432 0.0
H154 H 0.23486 0.42363 0.39135 0.0
H155 H 0.20526 0.44863 0.36 0.0
H156 H 0.00837 0.25019 0.40178 0.0
H157 H 0.03841 0.33237 0.37405 0.0
H158 H 0.05907 0.28568 0.40019 0.0
H159 H 0.98804 0.29618 0.37614 0.0
H160 H 0.10447 0.44907 0.38211 0.0
H161 H 0.05 0.39705 0.35213 0.0
H162 H 0.17175 0.33391 0.42738 0.0
H163 H 0.09601 0.336 0.43649 0.0
H164 H 0.11666 0.29771 0.35586 0.0
H165 H 0.10371 0.35942 0.33683 0.0
H166 H 0.11966 0.27859 0.3352 0.0
H167 H 0.10679 0.33915 0.31644 0.0
H168 H 0.14732 0.2872 0.36774 0.0
H169 H 0.09953 0.28164 0.40075 0.0
H170 H 0.14544 0.24285 0.37408 0.0
H171 H 0.0987 0.23755 0.40654 0.0
H172 H 0.2287 0.34637 0.37066 0.0
H173 H 0.21306 0.37941 0.33662 0.0
H174 H 0.00716 0.25903 0.34637 0.0
H175 H 0.03033 0.20675 0.36784 0.0
Li176 Li 0.77755 0.11985 0.72456 0.0
Li177 Li 0.74502 0.1093 0.70712 0.0
Li178 Li 0.77757 0.09126 0.70745 0.0
Li179 Li 0.79413 0.14104 0.70398 0.0
C180 C 0.73411 0.05439 0.72001 0.0
N181 N 0.71035 0.99656 0.72021 0.0
C182 C 0.70988 0.03753 0.71299 0.0
C183 C 0.74619 0.04181 0.72717 0.0
C184 C 0.69818 0.00834 0.71322 0.0
C185 C 0.73389 0.01255 0.72712 0.0
C186 C 0.75119 0.1564 0.71661 0.0
C187 C 0.7241 0.17539 0.70738 0.0
N188 N 0.71329 0.17532 0.71887 0.0
C189 C 0.7399 0.15661 0.72834 0.0
C190 C 0.74335 0.16598 0.70604 0.0
C191 C 0.72074 0.16624 0.72929 0.0
C192 C 0.7987 0.15502 0.74543 0.0
N193 N 0.78344 0.12756 0.74201 0.0
C194 C 0.78004 0.11287 0.76334 0.0
C195 C 0.77376 0.10655 0.75064 0.0
C196 C 0.79628 0.14108 0.76714 0.0
C197 C 0.80545 0.16231 0.758 0.0
H198 H 0.80606 0.17126 0.73832 0.0
H199 H 0.76144 0.08491 0.74766 0.0
C200 C 0.69759 0.09144 0.69123 0.0
N201 N 0.70747 0.09891 0.70314 0.0
C202 C 0.66877 0.07891 0.68884 0.0
C203 C 0.66126 0.08335 0.71089 0.0
C204 C 0.69006 0.09536 0.71288 0.0
C205 C 0.65011 0.07406 0.69881 0.0
H206 H 0.71187 0.09383 0.68373 0.0
H207 H 0.69842 0.10072 0.72229 0.0
C208 C 0.83009 0.13303 0.72427 0.0
N209 N 0.86834 0.15264 0.74382 0.0
C210 C 0.84929 0.16179 0.72544 0.0
C211 C 0.83038 0.11426 0.73307 0.0
C212 C 0.86848 0.17127 0.73537 0.0
C213 C 0.84984 0.12459 0.74289 0.0
C214 C 0.77971 0.11864 0.68182 0.0
C215 C 0.79938 0.11221 0.67685 0.0
C216 C 0.77275 0.13625 0.67516 0.0
C217 C 0.81193 0.12369 0.6653 0.0
C218 C 0.78579 0.14734 0.66364 0.0
N219 N 0.80495 0.14089 0.659 0.0
C220 C 0.76304 0.04298 0.69343 0.0
C221 C 0.80224 0.05605 0.70678 0.0
C222 C 0.76478 0.02006 0.68892 0.0
N223 N 0.78158 0.06035 0.7022 0.0
C224 C 0.80464 0.03323 0.70259 0.0
C225 C 0.78582 0.01498 0.6935 0.0
H226 H 0.74692 0.04705 0.68992 0.0
H227 H 0.81698 0.07044 0.71358 0.0
C228 C 0.82173 0.19781 0.69491 0.0
N229 N 0.82262 0.17357 0.69589 0.0
C230 C 0.84529 0.22239 0.69063 0.0
C231 C 0.86971 0.19622 0.68825 0.0
C232 C 0.8457 0.17221 0.69242 0.0
C233 C 0.86987 0.22183 0.6876 0.0
H234 H 0.80324 0.19837 0.69793 0.0
H235 H 0.84587 0.1527 0.69347 0.0
O236 O 0.7463 0.08305 0.71968 0.0
O237 O 0.76978 0.14682 0.71547 0.0
O238 O 0.81064 0.12337 0.71479 0.0
O239 O 0.76767 0.10814 0.69324 0.0
H240 H 0.70031 0.04682 0.70733 0.0
H241 H 0.76514 0.05451 0.73253 0.0
H242 H 0.67949 0.99505 0.70779 0.0
H243 H 0.74315 0.00257 0.73254 0.0
H244 H 0.71772 0.18271 0.69927 0.0
H245 H 0.74563 0.14916 0.73661 0.0
H246 H 0.7518 0.16584 0.69689 0.0
H247 H 0.71174 0.1664 0.7383 0.0
H248 H 0.77222 0.09589 0.77011 0.0
H249 H 0.81827 0.18429 0.76049 0.0
H250 H 0.66113 0.07176 0.67942 0.0
H251 H 0.64778 0.08049 0.71883 0.0
H252 H 0.84912 0.17673 0.71888 0.0
H253 H 0.81535 0.09202 0.73249 0.0
H254 H 0.88337 0.19348 0.7364 0.0
H255 H 0.85014 0.11031 0.74981 0.0
H256 H 0.80516 0.09878 0.68193 0.0
H257 H 0.75758 0.14143 0.67888 0.0
H258 H 0.82729 0.11902 0.66137 0.0
H259 H 0.7807 0.1611 0.65841 0.0
H260 H 0.7497 0.00634 0.682 0.0
H261 H 0.82137 0.03023 0.70623 0.0
H262 H 0.84479 0.24186 0.69029 0.0
H263 H 0.88824 0.19498 0.68589 0.0
Li264 Li 0.66001 0.77934 0.05798 0.0
Li265 Li 0.63291 0.74393 0.04204 0.0
Li266 Li 0.68414 0.77318 0.04028 0.0
Li267 Li 0.65302 0.79249 0.03696 0.0
C268 C 0.67532 0.73069 0.05552 0.0
N269 N 0.70331 0.70101 0.05867 0.0
C270 C 0.664 0.70352 0.05065 0.0
C271 C 0.70075 0.74266 0.06209 0.0
C272 C 0.6785 0.68887 0.05233 0.0
C273 C 0.71463 0.72736 0.06355 0.0
C274 C 0.59665 0.75592 0.05261 0.0
C275 C 0.54824 0.7292 0.04601 0.0
N276 N 0.5403 0.72207 0.05817 0.0
C277 C 0.58803 0.74845 0.06505 0.0
C278 C 0.57662 0.74637 0.04301 0.0
C279 C 0.55943 0.73129 0.06766 0.0
C280 C 0.65758 0.80972 0.07863 0.0
N281 N 0.66226 0.78856 0.07525 0.0
C282 C 0.66885 0.78033 0.09666 0.0
C283 C 0.66764 0.77375 0.08393 0.0
C284 C 0.66462 0.80248 0.10047 0.0
C285 C 0.65902 0.81731 0.09122 0.0
H286 H 0.65269 0.82069 0.07153 0.0
H287 H 0.67063 0.75659 0.081 0.0
C288 C 0.5976 0.69465 0.02823 0.0
N289 N 0.60305 0.70668 0.0398 0.0
C290 C 0.5786 0.66593 0.02686 0.0
C291 C 0.57041 0.66296 0.04926 0.0
C292 C 0.58981 0.69158 0.05021 0.0
C293 C 0.56515 0.64955 0.03752 0.0
H294 H 0.60897 0.70708 0.02016 0.0
H295 H 0.59514 0.70156 0.05933 0.0
C296 C 0.70402 0.83023 0.05469 0.0
N297 N 0.73416 0.87329 0.07154 0.0
C298 C 0.69898 0.85273 0.0556 0.0
C299 C 0.72451 0.82973 0.0623 0.0
C300 C 0.71442 0.87429 0.06418 0.0
C301 C 0.73947 0.85165 0.07078 0.0
C302 C 0.65541 0.77271 0.01528 0.0
C303 C 0.68094 0.78932 0.0091 0.0
C304 C 0.63026 0.76722 0.00956 0.0
C305 C 0.68089 0.80038 0.99729 0.0
C306 C 0.6311 0.77868 0.99775 0.0
N307 N 0.65618 0.7949 0.99191 0.0
C308 C 0.71528 0.75035 0.02957 0.0
C309 C 0.74221 0.79872 0.0347 0.0
C310 C 0.73907 0.7505 0.0249 0.0
N311 N 0.71733 0.77412 0.0345 0.0
C312 C 0.76648 0.79997 0.02992 0.0
C313 C 0.76518 0.77562 0.02493 0.0
H314 H 0.69507 0.73129 0.02917 0.0
H315 H 0.74309 0.81753 0.03833 0.0
C316 C 0.62541 0.82126 0.02766 0.0
N317 N 0.6499 0.82074 0.02816 0.0
C318 C 0.62517 0.84485 0.02286 0.0
C319 C 0.67511 0.86631 0.01893 0.0
C320 C 0.67432 0.84228 0.02364 0.0
C321 C 0.65047 0.86803 0.01881 0.0
H322 H 0.60639 0.80396 0.03149 0.0
H323 H 0.69348 0.84132 0.02429 0.0
O324 O 0.66157 0.74548 0.0539 0.0
O325 O 0.62456 0.77251 0.04986 0.0
O326 O 0.68883 0.80869 0.04648 0.0
O327 O 0.65506 0.7623 0.02698 0.0
H328 H 0.64438 0.6939 0.04552 0.0
H329 H 0.70975 0.76361 0.06597 0.0
H330 H 0.67005 0.66789 0.04855 0.0
H331 H 0.7344 0.73643 0.06856 0.0
H332 H 0.53252 0.7215 0.03866 0.0
H333 H 0.60324 0.75564 0.0726 0.0
H334 H 0.58297 0.75188 0.03333 0.0
H335 H 0.55245 0.72523 0.07724 0.0
H336 H 0.67258 0.76785 0.10344 0.0
H337 H 0.65594 0.83474 0.09362 0.0
H338 H 0.57558 0.65648 0.01766 0.0
H339 H 0.56025 0.65133 0.05771 0.0
H340 H 0.68302 0.85336 0.04988 0.0
H341 H 0.72872 0.81252 0.0617 0.0
H342 H 0.71063 0.89174 0.06503 0.0
H343 H 0.7553 0.85146 0.07676 0.0
H344 H 0.7006 0.79387 0.01343 0.0
H345 H 0.61034 0.75444 0.01424 0.0
H346 H 0.7005 0.81339 0.99242 0.0
H347 H 0.61181 0.77474 0.99323 0.0
H348 H 0.73694 0.73109 0.0213 0.0
H349 H 0.78588 0.81998 0.02989 0.0
H350 H 0.60584 0.84561 0.02297 0.0
H351 H 0.69496 0.88376 0.01579 0.0
Li352 Li 0.89024 0.63803 0.37457 0.0
Li353 Li 0.87654 0.66176 0.39158 0.0
Li354 Li 0.85409 0.65023 0.37099 0.0
Li355 Li 0.90163 0.68638 0.37276 0.0
C356 C 0.82905 0.60012 0.3808 0.0
N357 N 0.77811 0.55426 0.37409 0.0
C358 C 0.80492 0.59309 0.38781 0.0
C359 C 0.82732 0.5838 0.3704 0.0
C360 C 0.77935 0.56983 0.38426 0.0
C361 C 0.80136 0.56069 0.36716 0.0
C362 C 0.9426 0.68834 0.38696 0.0
C363 C 0.981 0.73331 0.3935 0.0
N364 N -0.00051 0.7269 0.38804 0.0
C365 C 0.962 0.68209 0.38154 0.0
C366 C 0.95218 0.71403 0.39312 0.0
C367 C 0.99066 0.70189 0.38214 0.0
C368 C 0.91897 0.61641 0.36116 0.0
N369 N 0.90313 0.61268 0.37154 0.0
C370 C 0.91003 0.57539 0.37866 0.0
C371 C 0.8981 0.59245 0.38015 0.0
C372 C 0.92745 0.57942 0.36827 0.0
C373 C 0.93144 0.59993 0.35932 0.0
H374 H 0.9228 0.63295 0.35457 0.0
H375 H 0.88538 0.59008 0.38831 0.0
C376 C 0.844 0.65695 0.41247 0.0
N377 N 0.87026 0.66333 0.40888 0.0
C378 C 0.83782 0.65727 0.42514 0.0
C379 C 0.88618 0.67172 0.43015 0.0
C380 C 0.89131 0.6707 0.41737 0.0
C381 C 0.85907 0.6647 0.43414 0.0
H382 H 0.82788 0.65168 0.40545 0.0
H383 H 0.91202 0.67573 0.4142 0.0
C384 C 0.88288 0.66657 0.34834 0.0
N385 N 0.87741 0.68671 0.32536 0.0
C386 C 0.8769 0.68846 0.34775 0.0
C387 C 0.88612 0.65493 0.33724 0.0
C388 C 0.87421 0.69836 0.33605 0.0
C389 C 0.88326 0.66539 0.32571 0.0
C390 C 0.86937 0.70971 0.38377 0.0
C391 C 0.85526 0.71997 0.37648 0.0
C392 C 0.88396 0.72444 0.3945 0.0
C393 C 0.85646 0.7451 0.37992 0.0
C394 C 0.88464 0.74948 0.39763 0.0
N395 N 0.87103 0.75922 0.39033 0.0
C396 C 0.80172 0.64539 0.37045 0.0
C397 C 0.81093 0.62697 0.35207 0.0
C398 C 0.77615 0.6405 0.36556 0.0
N399 N 0.81873 0.6392 0.36358 0.0
C400 C 0.78547 0.62176 0.34678 0.0
C401 C 0.76799 0.62911 0.35346 0.0
H402 H 0.80847 0.65491 0.37962 0.0
H403 H 0.82472 0.62187 0.3469 0.0
C404 C 0.9502 0.71801 0.35913 0.0
N405 N 0.93101 0.72105 0.36598 0.0
C406 C 0.97369 0.74145 0.35416 0.0
C407 C 0.95648 0.77081 0.3627 0.0
C408 C 0.93354 0.74677 0.36774 0.0
C409 C 0.97706 0.76825 0.35598 0.0
H410 H 0.94742 0.69727 0.3577 0.0
H411 H 0.91805 0.74885 0.37309 0.0
O412 O 0.8541 0.62335 0.38383 0.0
O413 O 0.91439 0.66946 0.3862 0.0
O414 O 0.88545 0.65634 0.35968 0.0
O415 O 0.86815 0.68499 0.38058 0.0
H416 H 0.80586 0.60554 0.39585 0.0
H417 H 0.84575 0.58916 0.36478 0.0
H418 H 0.76047 0.5642 0.38957 0.0
H419 H 0.79968 0.54796 0.3591 0.0
H420 H 0.98868 0.75338 0.39813 0.0
H421 H 0.95503 0.66226 0.37682 0.0
H422 H 0.93755 0.71919 0.39743 0.0
H423 H 0.00588 0.6974 0.3779 0.0
H424 H 0.90606 0.55955 0.38568 0.0
H425 H 0.94499 0.60402 0.35127 0.0
H426 H 0.81678 0.65209 0.42788 0.0
H427 H 0.90303 0.67745 0.43685 0.0
H428 H 0.87443 0.69777 0.35622 0.0
H429 H 0.8907 0.63791 0.33754 0.0
H430 H 0.86958 0.7153 0.33547 0.0
H431 H 0.88568 0.65655 0.31704 0.0
H432 H 0.84347 0.70864 0.36825 0.0
H433 H 0.89462 0.71667 0.40036 0.0
H434 H 0.84575 0.75333 0.37433 0.0
H435 H 0.89596 0.76114 0.40588 0.0
H436 H 0.76363 0.64691 0.37098 0.0
H437 H 0.77982 0.6127 0.33747 0.0
H438 H 0.989 0.73868 0.34889 0.0
H439 H 0.95848 0.79122 0.36428 0.0
Li440 Li 0.25595 0.89234 0.70697 0.0
Li441 Li 0.22424 0.88535 0.72438 0.0
Li442 Li 0.20629 0.86316 0.70398 0.0
Li443 Li 0.22482 0.91282 0.70623 0.0
C444 C 0.23941 0.83812 0.71661 0.0
N445 N 0.25917 0.80079 0.71831 0.0
C446 C 0.2417 0.82791 0.72831 0.0
C447 C 0.24733 0.82947 0.70578 0.0
C448 C 0.25169 0.80902 0.72897 0.0
C449 C 0.25722 0.81055 0.70683 0.0
C450 C 0.27891 0.93144 0.72619 0.0
C451 C 0.32041 0.96986 0.73551 0.0
N452 N 0.32529 0.95109 0.74174 0.0
C453 C 0.28434 0.91255 0.7327 0.0
C454 C 0.29708 0.96034 0.72761 0.0
C455 C 0.30788 0.92288 0.74051 0.0
C456 C 0.30594 0.92083 0.6938 0.0
N457 N 0.29296 0.90066 0.70271 0.0
C458 C 0.3351 0.89914 0.70632 0.0
C459 C 0.30689 0.8897 0.70894 0.0
C460 C 0.34943 0.92069 0.69746 0.0
C461 C 0.33429 0.93126 0.69104 0.0
H462 H 0.29448 0.92958 0.68919 0.0
H463 H 0.29654 0.87436 0.71628 0.0
C464 C 0.19647 0.85309 0.7451 0.0
N465 N 0.21684 0.87941 0.74186 0.0
C466 C 0.18868 0.8464 0.75763 0.0
C467 C 0.22298 0.89414 0.76329 0.0
C468 C 0.22982 0.90001 0.7506 0.0
C469 C 0.20214 0.86698 0.76697 0.0
H470 H 0.18612 0.83734 0.73788 0.0
H471 H 0.2454 0.92102 0.74775 0.0
C472 C 0.22396 0.88043 0.68144 0.0
N473 N 0.20347 0.85228 0.65901 0.0
C474 C 0.20015 0.87895 0.67595 0.0
C475 C 0.23763 0.86798 0.67544 0.0
C476 C 0.19003 0.8645 0.66463 0.0
C477 C 0.22688 0.85375 0.66412 0.0
C478 C 0.1793 0.89382 0.72215 0.0
C479 C 0.15021 0.87906 0.724 0.0
C480 C 0.19565 0.91987 0.72801 0.0
C481 C 0.13792 0.89069 0.73161 0.0
C482 C 0.18257 0.93078 0.73555 0.0
N483 N 0.15421 0.91609 0.73717 0.0
C484 C 0.17827 0.80795 0.6925 0.0
C485 C 0.1514 0.83022 0.69599 0.0
C486 C 0.15444 0.78366 0.6882 0.0
N487 N 0.17619 0.83038 0.69649 0.0
C488 C 0.12712 0.80644 0.69183 0.0
C489 C 0.12835 0.78256 0.6881 0.0
H490 H 0.19816 0.80857 0.69285 0.0
H491 H 0.15044 0.84852 0.69897 0.0
C492 C 0.24394 0.97009 0.70154 0.0
N493 N 0.2214 0.94372 0.70066 0.0
C494 C 0.24201 0.99316 0.69734 0.0
C495 C 0.19379 0.96139 0.69129 0.0
C496 C 0.19657 0.93897 0.69572 0.0
C497 C 0.21672 0.98891 0.69207 0.0
H498 H 0.26346 0.97314 0.7054 0.0
H499 H 0.17896 0.91773 0.69521 0.0
O500 O 0.22994 0.85688 0.71586 0.0
O501 O 0.25622 0.92183 0.71833 0.0
O502 O 0.23375 0.89386 0.69268 0.0
O503 O 0.19159 0.88245 0.71482 0.0
H504 H 0.2359 0.83458 0.73681 0.0
H505 H 0.24634 0.83766 0.6967 0.0
H506 H 0.25355 0.80094 0.73797 0.0
H507 H 0.2635 0.80375 0.69852 0.0
H508 H 0.33464 0.99218 0.73669 0.0
H509 H 0.27052 0.89014 0.73178 0.0
H510 H 0.29324 0.9753 0.72265 0.0
H511 H 0.31231 0.90846 0.74559 0.0
H512 H 0.34567 0.89001 0.7114 0.0
H513 H 0.34443 0.94824 0.68432 0.0
H514 H 0.17201 0.8254 0.75992 0.0
H515 H 0.23412 0.91068 0.77011 0.0
H516 H 0.18936 0.8885 0.68048 0.0
H517 H 0.25634 0.86932 0.67948 0.0
H518 H 0.17145 0.86293 0.66033 0.0
H519 H 0.23715 0.84389 0.6594 0.0
H520 H 0.13724 0.85875 0.71965 0.0
H521 H 0.2182 0.93158 0.72681 0.0
H522 H 0.11542 0.87948 0.73311 0.0
H523 H 0.19497 0.95091 0.74013 0.0
H524 H 0.15625 0.76569 0.68536 0.0
H525 H 0.10752 0.80669 0.6916 0.0
H526 H 0.26026 0.01402 0.69798 0.0
H527 H 0.17386 0.9573 0.6874 0.0
Li528 Li 0.77723 0.68915 0.62669 0.0
Li529 Li 0.79103 0.65314 0.6279 0.0
Li530 Li 0.77603 0.66351 0.60808 0.0
Li531 Li 0.74278 0.63926 0.62518 0.0
C532 C 0.83017 0.71547 0.62007 0.0
N533 N 0.87168 0.77031 0.62462 0.0
C534 C 0.84948 0.72148 0.62978 0.0
C535 C 0.83203 0.73733 0.61264 0.0
C536 C 0.87032 0.74934 0.63193 0.0
C537 C 0.85313 0.76492 0.6151 0.0
C538 C 0.74873 0.64987 0.64932 0.0
C539 C 0.71886 0.61245 0.66348 0.0
N540 N 0.70873 0.62873 0.66811 0.0
C541 C 0.7381 0.66628 0.65425 0.0
C542 C 0.73915 0.62279 0.654 0.0
C543 C 0.71788 0.6552 0.66375 0.0
C544 C 0.76921 0.73593 0.62789 0.0
N545 N 0.78346 0.72414 0.6331 0.0
C546 C 0.80471 0.76128 0.64815 0.0
C547 C 0.80085 0.73613 0.64308 0.0
C548 C 0.7902 0.77398 0.64298 0.0
C549 C 0.7723 0.76095 0.63269 0.0
H550 H 0.755 0.72561 0.62016 0.0
H551 H 0.81149 0.72598 0.64719 0.0
C552 C 0.84018 0.65056 0.62732 0.0
N553 N 0.81773 0.64457 0.63472 0.0
C554 C 0.86195 0.64693 0.63186 0.0
C555 C 0.83661 0.63005 0.65142 0.0
C556 C 0.81535 0.63417 0.64651 0.0
C557 C 0.8606 0.637 0.64415 0.0
H558 H 0.84153 0.65901 0.61801 0.0
H559 H 0.79729 0.62968 0.65219 0.0
C560 C 0.73379 0.67251 0.60391 0.0
N561 N 0.70947 0.67579 0.58172 0.0
C562 C 0.70787 0.65007 0.6001 0.0
C563 C 0.74728 0.69666 0.59646 0.0
C564 C 0.69592 0.65214 0.58886 0.0
C565 C 0.73467 0.69789 0.58526 0.0
C566 C 0.77438 0.60797 0.61452 0.0
C567 C 0.7919 0.6103 0.60452 0.0
C568 C 0.76836 0.58787 0.62387 0.0
C569 C 0.80328 0.59254 0.60409 0.0
C570 C 0.78019 0.57054 0.62311 0.0
N571 N 0.79726 0.57322 0.61332 0.0
C572 C 0.80819 0.68377 0.58606 0.0
C573 C 0.76123 0.64747 0.58266 0.0
C574 C 0.81408 0.68472 0.57327 0.0
N575 N 0.78212 0.66541 0.59047 0.0
C576 C 0.76605 0.648 0.56977 0.0
C577 C 0.79287 0.66668 0.5649 0.0
H578 H 0.82465 0.69721 0.59251 0.0
H579 H 0.7409 0.63253 0.58647 0.0
C580 C 0.6883 0.62313 0.63274 0.0
N581 N 0.70498 0.6127 0.62909 0.0
C582 C 0.66008 0.60498 0.63556 0.0
C583 C 0.66669 0.56562 0.63072 0.0
C584 C 0.69488 0.58459 0.62804 0.0
C585 C 0.64889 0.57581 0.63449 0.0
H586 H 0.69691 0.64564 0.63331 0.0
H587 H 0.7086 0.57693 0.625 0.0
O588 O 0.80931 0.6884 0.61794 0.0
O589 O 0.76814 0.66014 0.63985 0.0
O590 O 0.74597 0.67081 0.61483 0.0
O591 O 0.76359 0.62563 0.61527 0.0
H592 H 0.84821 0.70487 0.6357 0.0
H593 H 0.81718 0.73304 0.60511 0.0
H594 H 0.88534 0.75432 0.63945 0.0
H595 H 0.85473 0.78205 0.60947 0.0
H596 H 0.71108 0.59144 0.66711 0.0
H597 H 0.74516 0.68722 0.6507 0.0
H598 H 0.74691 0.60969 0.6502 0.0
H599 H 0.70937 0.66761 0.66761 0.0
H600 H 0.81888 0.77065 0.65602 0.0
H601 H 0.7602 0.76958 0.62857 0.0
H602 H 0.8802 0.65311 0.62598 0.0
H603 H 0.83458 0.62211 0.6609 0.0
H604 H 0.69719 0.63114 0.60569 0.0
H605 H 0.76741 0.71416 0.59923 0.0
H606 H 0.67593 0.6349 0.58577 0.0
H607 H 0.74496 0.71638 0.57937 0.0
H608 H 0.79689 0.62581 0.59723 0.0
H609 H 0.75508 0.58598 0.63173 0.0
H610 H 0.81697 0.59419 0.59644 0.0
H611 H 0.77589 0.55504 0.63033 0.0
H612 H 0.83526 0.69896 0.57006 0.0
H613 H 0.74892 0.63387 0.56372 0.0
H614 H 0.647 0.61375 0.63819 0.0
H615 H 0.6589 0.54327 0.62984 0.0
Li616 Li 0.1373 0.79289 0.96069 0.0
Li617 Li 0.08695 0.77498 0.95798 0.0
Li618 Li 0.10693 0.74404 0.95699 0.0
Li619 Li 0.11544 0.77755 0.94014 0.0
C620 C 0.11643 0.77719 0.98287 0.0
N621 N 0.13999 0.803 0.00544 0.0
C622 C 0.10832 0.79502 0.9885 0.0
C623 C 0.1364 0.77236 0.98873 0.0
C624 C 0.1205 0.80789 -8e-05 0.0
C625 C 0.14811 0.78566 0.00013 0.0
C626 C 0.12493 0.82955 0.94197 0.0
C627 C 0.11156 0.84982 0.9251 0.0
N628 N 0.13889 0.8703 0.92376 0.0
C629 C 0.15288 0.85085 0.94045 0.0
C630 C 0.10407 0.82908 0.93427 0.0
C631 C 0.15951 0.87125 0.93118 0.0
C632 C 0.19414 0.82051 0.9695 0.0
N633 N 0.16989 0.82142 0.96872 0.0
C634 C 0.19245 0.86799 0.97697 0.0
C635 C 0.16846 0.84423 0.97259 0.0
C636 C 0.21803 0.8681 0.97747 0.0
C637 C 0.21867 0.84378 0.97401 0.0
H638 H 0.19469 0.80217 0.96621 0.0
H639 H 0.14888 0.84434 0.97177 0.0
C640 C 0.03504 0.75475 0.96997 0.0
N641 N 0.05551 0.77738 0.96377 0.0
C642 C 0.01134 0.75508 0.97442 0.0
C643 C 0.03099 0.80267 0.9667 0.0
C644 C 0.05411 0.80121 0.96217 0.0
C645 C 0.00917 0.77927 0.97281 0.0
H646 H 0.0372 0.73645 0.97149 0.0
H647 H 0.07103 0.81916 0.95749 0.0
C648 C 0.15262 0.75149 0.94602 0.0
N649 N 0.16992 0.71298 0.94136 0.0
C650 C 0.15066 0.74086 0.93391 0.0
C651 C 0.16352 0.74268 0.95575 0.0
C652 C 0.1595 0.72138 0.93175 0.0
C653 C 0.17209 0.72314 0.9532 0.0
C654 C 0.05098 0.73161 0.944 0.0
C655 C 0.03435 0.70567 0.94989 0.0
C656 C 0.03815 0.74373 0.93706 0.0
C657 C 0.00511 0.69241 0.94882 0.0
C658 C 0.00885 0.72983 0.93624 0.0
N659 N 0.99307 0.70468 0.94208 0.0
C660 C 0.09496 0.69707 0.97228 0.0
C661 C 0.0916 0.6891 0.9503 0.0
C662 C 0.08401 0.66842 0.97459 0.0
N663 N 0.09807 0.70664 0.96029 0.0
C664 C 0.08065 0.66037 0.95217 0.0
C665 C 0.07602 0.6496 0.96444 0.0
H666 H 0.09973 0.71146 0.98003 0.0
H667 H 0.09377 0.69728 0.94088 0.0
C668 C 0.14827 0.80407 0.91906 0.0
N669 N 0.12182 0.78474 0.92269 0.0
C670 C 0.15438 0.81088 0.90641 0.0
C671 C 0.1062 0.77671 0.90137 0.0
C672 C 0.10092 0.77087 0.91417 0.0
C673 C 0.13323 0.79711 0.89733 0.0
H674 H 0.1646 0.81435 0.92604 0.0
H675 H 0.08022 0.75514 0.9173 0.0
O676 O 0.10533 0.765 0.97154 0.0
O677 O 0.11806 0.80907 0.95083 0.0
O678 O 0.14369 0.77025 0.94838 0.0
O679 O 0.07965 0.74515 0.94508 0.0
H680 H 0.09302 0.79911 0.98405 0.0
H681 H 0.14304 0.75877 0.98444 0.0
H682 H 0.11453 0.82184 0.00437 0.0
H683 H 0.16372 0.78226 0.00474 0.0
H684 H 0.09565 0.84961 0.91904 0.0
H685 H 0.16937 0.8514 0.9462 0.0
H686 H 0.08236 0.81276 0.9353 0.0
H687 H 0.18107 0.88775 0.92986 0.0
H688 H 0.19119 0.88635 0.97967 0.0
H689 H 0.23813 0.84326 0.97424 0.0
H690 H 0.99514 0.73683 0.97929 0.0
H691 H 0.03003 0.82173 0.96535 0.0
H692 H 0.14218 0.74738 0.92629 0.0
H693 H 0.16498 0.75054 0.96519 0.0
H694 H 0.15801 0.71289 0.92243 0.0
H695 H 0.18039 0.71598 0.96065 0.0
H696 H 0.04383 0.69602 0.95537 0.0
H697 H 0.05067 0.76377 0.93244 0.0
H698 H 0.99199 0.67241 0.95338 0.0
H699 H -0.00135 0.73907 0.93096 0.0
H700 H 0.08048 0.66093 0.98419 0.0
H701 H 0.07506 0.64662 0.94409 0.0
H702 H 0.17542 0.82701 0.90383 0.0
H703 H 0.08936 0.76509 0.89474 0.0
Li704 Li 0.30923 0.08401 0.29133 0.0
Li705 Li 0.34071 0.13434 0.29478 0.0
Li706 Li 0.33506 0.1141 0.27388 0.0
Li707 Li 0.36051 0.10518 0.29047 0.0
C708 C 0.29199 0.12235 0.276 0.0
N709 N 0.2652 0.1369 0.25803 0.0
C710 C 0.29872 0.15036 0.27466 0.0
C711 C 0.27152 0.10171 0.26826 0.0
C712 C 0.28495 0.15729 0.26551 0.0
C713 C 0.25826 0.1095 0.25921 0.0
C714 C 0.3362 0.11202 0.31663 0.0
C715 C 0.35952 0.14152 0.3345 0.0
N716 N 0.33405 0.13366 0.33974 0.0
C717 C 0.31026 0.10412 0.3222 0.0
C718 C 0.36105 0.13076 0.32283 0.0
C719 C 0.30962 0.11532 0.33389 0.0
C720 C 0.27642 0.02996 0.30181 0.0
N721 N 0.27529 0.05209 0.29676 0.0
C722 C 0.22587 0.02961 0.30061 0.0
C723 C 0.25075 0.05242 0.29614 0.0
C724 C 0.22621 0.00613 0.3057 0.0
C725 C 0.25201 0.0065 0.30617 0.0
H726 H 0.29636 0.03059 0.30252 0.0
H727 H 0.25059 0.07065 0.29241 0.0
C728 C 0.36871 0.1907 0.30402 0.0
N729 N 0.34388 0.16609 0.30324 0.0
C730 C 0.36929 0.21494 0.30847 0.0
C731 C 0.31893 0.18769 0.31148 0.0
C732 C 0.31936 0.16401 0.30713 0.0
C733 C 0.34401 0.21367 0.31188 0.0
H734 H 0.38781 0.19183 0.30068 0.0
H735 H 0.29993 0.14419 0.30626 0.0
C736 C 0.31857 0.04981 0.27672 0.0
N737 N 0.29004 0.99207 0.27374 0.0
C738 C 0.32966 0.0338 0.28165 0.0
C739 C 0.2931 0.03647 0.27017 0.0
C740 C 0.3149 0.00463 0.28006 0.0
C741 C 0.27895 0.00726 0.2688 0.0
C742 C 0.39826 0.15404 0.28037 0.0
C743 C 0.40845 0.1564 0.26814 0.0
C744 C 0.41708 0.16383 0.29045 0.0
C745 C 0.43737 0.16837 0.26622 0.0
C746 C 0.44583 0.17562 0.28814 0.0
N747 N 0.4553 0.17763 0.27617 0.0
C748 C 0.3418 0.14804 0.25308 0.0
C749 C 0.32671 0.1006 0.24791 0.0
C750 C 0.34125 0.15458 0.24047 0.0
N751 N 0.33429 0.12138 0.25654 0.0
C752 C 0.32613 0.10625 0.23517 0.0
C753 C 0.33337 0.13356 0.23129 0.0
H754 H 0.34814 0.16423 0.26016 0.0
H755 H 0.32132 0.0797 0.25091 0.0
C756 C 0.39284 0.08887 0.30513 0.0
N757 N 0.38983 0.09735 0.29353 0.0
C758 C 0.41174 0.0792 0.30702 0.0
C759 C 0.42491 0.08846 0.28514 0.0
C760 C 0.40538 0.09736 0.28362 0.0
C761 C 0.42777 0.07842 0.29689 0.0
H762 H 0.37968 0.08846 0.31276 0.0
H763 H 0.40195 0.10342 0.27443 0.0
O764 O 0.30562 0.1152 0.28472 0.0
O765 O 0.33726 0.10186 0.30506 0.0
O766 O 0.3326 0.07837 0.27826 0.0
O767 O 0.37002 0.14225 0.28244 0.0
H768 H 0.31473 0.16667 0.28046 0.0
H769 H 0.26605 0.07995 0.26917 0.0
H770 H 0.29007 0.17891 0.26432 0.0
H771 H 0.24249 0.09377 0.25311 0.0
H772 H 0.37857 0.15616 0.33939 0.0
H773 H 0.29083 0.08972 0.3175 0.0
H774 H 0.38128 0.13707 0.31863 0.0
H775 H 0.2897 0.10952 0.3383 0.0
H776 H 0.20675 0.03072 0.30031 0.0
H777 H 0.25343 0.98887 0.30984 0.0
H778 H 0.38898 0.23471 0.3086 0.0
H779 H 0.29906 0.18592 0.31413 0.0
H780 H 0.34934 0.04371 0.28674 0.0
H781 H 0.28422 0.04852 0.26629 0.0
H782 H 0.32317 0.99197 0.28388 0.0
H783 H 0.25913 0.99665 0.26383 0.0
H784 H 0.3942 0.14888 0.26023 0.0
H785 H 0.40953 0.16202 0.29997 0.0
H786 H 0.44555 0.17024 0.25681 0.0
H787 H 0.46062 0.18312 0.29586 0.0
H788 H 0.34667 0.17583 0.23799 0.0
H789 H 0.32046 0.08951 0.22842 0.0
H790 H 0.4128 0.07126 0.31619 0.0
H791 H 0.43709 0.08879 0.27709 0.0
Li792 Li 0.21609 0.31233 0.62654 0.0
Li793 Li 0.20431 0.34812 0.62829 0.0
Li794 Li 0.21688 0.33812 0.60786 0.0
Li795 Li 0.25282 0.36074 0.62548 0.0
C796 C 0.16232 0.28909 0.61401 0.0
N797 N 0.11723 0.23977 0.6052 0.0
C798 C 0.13643 0.27712 0.6202 0.0
C799 C 0.16517 0.27613 0.60326 0.0
C800 C 0.11392 0.25212 0.61563 0.0
C801 C 0.14215 0.25117 0.59897 0.0
C802 C 0.21387 0.32991 0.6509 0.0
C803 C 0.21144 0.32839 0.67353 0.0
N804 N 0.18436 0.30699 0.67286 0.0
C805 C 0.18602 0.3079 0.65046 0.0
C806 C 0.2267 0.34025 0.66254 0.0
C807 C 0.17146 0.29659 0.66165 0.0
C808 C 0.22993 0.2799 0.64162 0.0
N809 N 0.21052 0.27719 0.63297 0.0
C810 C 0.18795 0.22705 0.63427 0.0
C811 C 0.18965 0.25139 0.62928 0.0
C812 C 0.20801 0.22924 0.64309 0.0
C813 C 0.22919 0.25619 0.64676 0.0
H814 H 0.24636 0.30063 0.64438 0.0
H815 H 0.17431 0.24947 0.62248 0.0
C816 C 0.15591 0.35171 0.62851 0.0
N817 N 0.17917 0.35844 0.63546 0.0
C818 C 0.13489 0.35623 0.63326 0.0
C819 C 0.16258 0.37547 0.65211 0.0
C820 C 0.18322 0.37071 0.64694 0.0
C821 C 0.13778 0.3677 0.64532 0.0
H822 H 0.15341 0.34213 0.61937 0.0
H823 H 0.20213 0.37618 0.65219 0.0
C824 C 0.25683 0.31198 0.61328 0.0
N825 N 0.27691 0.27479 0.61298 0.0
C826 C 0.2795 0.31671 0.62092 0.0
C827 C 0.24463 0.28854 0.60536 0.0
C828 C 0.28928 0.29762 0.62066 0.0
C829 C 0.255 0.26993 0.60539 0.0
C830 C 0.22825 0.39805 0.6185 0.0
C831 C 0.20978 0.40264 0.61119 0.0
C832 C 0.24219 0.41581 0.62862 0.0
C833 C 0.20537 0.4249 0.61421 0.0
C834 C 0.23723 0.43786 0.63133 0.0
N835 N 0.21906 0.44189 0.62414 0.0
C836 C 0.18717 0.33857 0.58679 0.0
C837 C 0.22866 0.33718 0.58203 0.0
C838 C 0.18127 0.33854 0.57406 0.0
N839 N 0.21052 0.33795 0.59048 0.0
C840 C 0.22356 0.33709 0.56918 0.0
C841 C 0.19963 0.33786 0.56506 0.0
H842 H 0.17307 0.33895 0.59377 0.0
H843 H 0.24708 0.33671 0.5853 0.0
C844 C 0.30135 0.38917 0.64057 0.0
N845 N 0.29103 0.38594 0.62872 0.0
C846 C 0.33026 0.40522 0.6427 0.0
C847 C 0.3371 0.4147 0.6204 0.0
C848 C 0.30808 0.39853 0.61872 0.0
C849 C 0.34855 0.4178 0.63249 0.0
H850 H 0.28723 0.37849 0.64829 0.0
H851 H 0.29915 0.39529 0.6094 0.0
O852 O 0.18438 0.31384 0.61827 0.0
O853 O 0.2286 0.34155 0.64007 0.0
O854 O 0.24657 0.33011 0.61361 0.0
O855 O 0.23215 0.37584 0.61597 0.0
H856 H 0.13372 0.28705 0.62844 0.0
H857 H 0.18494 0.28506 0.59832 0.0
H858 H 0.0938 0.24258 0.62035 0.0
H859 H 0.14412 0.24086 0.5907 0.0
H860 H 0.22112 0.33622 0.68259 0.0
H861 H 0.17571 0.29955 0.6416 0.0
H862 H 0.2482 0.35735 0.66308 0.0
H863 H 0.1499 0.27955 0.66142 0.0
H864 H 0.17098 0.20675 0.6313 0.0
H865 H 0.24541 0.25902 0.65335 0.0
H866 H 0.11597 0.34952 0.62778 0.0
H867 H 0.1657 0.38456 0.6614 0.0
H868 H 0.28919 0.33471 0.62711 0.0
H869 H 0.22729 0.2847 0.5993 0.0
H870 H 0.30665 0.3009 0.6266 0.0
H871 H 0.24564 0.2516 0.59937 0.0
H872 H 0.19875 0.38898 0.60336 0.0
H873 H 0.25641 0.41238 0.63441 0.0
H874 H 0.19101 0.42862 0.60869 0.0
H875 H 0.24774 0.45169 0.63918 0.0
H876 H 0.16237 0.3387 0.5713 0.0
H877 H 0.23838 0.33683 0.56255 0.0
H878 H 0.33826 0.40683 0.65214 0.0
H879 H 0.35045 0.42432 0.61231 0.0
Li880 Li 0.85772 0.20756 0.96033 0.0
Li881 Li 0.90713 0.21922 0.9591 0.0
Li882 Li 0.89336 0.25443 0.95796 0.0
Li883 Li 0.88189 0.2213 0.94056 0.0
C884 C 0.89552 0.24786 0.98212 0.0
N885 N 0.91056 0.28666 0.00133 0.0
C886 C 0.92075 0.25702 0.98862 0.0
C887 C 0.8777 0.25806 0.98557 0.0
C888 C 0.92803 0.27673 0.99826 0.0
C889 C 0.88574 0.27778 0.99524 0.0
C890 C 0.86708 0.16243 0.9558 0.0
C891 C 0.85561 0.11406 0.95381 0.0
N892 N 0.85284 0.1111 0.96649 0.0
C893 C 0.8642 0.15891 0.96884 0.0
C894 C 0.86275 0.13981 0.94823 0.0
C895 C 0.85694 0.1328 0.97405 0.0
C896 C 0.80435 0.15997 0.95976 0.0
N897 N 0.82198 0.18176 0.96724 0.0
C898 C 0.79031 0.16233 0.98452 0.0
C899 C 0.81533 0.1836 0.97935 0.0
C900 C 0.77222 0.13886 0.97717 0.0
C901 C 0.77924 0.13822 0.96454 0.0
H902 H 0.81042 0.15892 0.95021 0.0
H903 H 0.82988 0.20097 0.98514 0.0
C904 C 0.96157 0.23828 0.96718 0.0
N905 N 0.93746 0.21396 0.96453 0.0
C906 C 0.98538 0.23774 0.97134 0.0
C907 C 0.9595 0.18709 0.96967 0.0
C908 C 0.9362 0.18863 0.96547 0.0
C909 C 0.98447 0.21186 0.97278 0.0
H910 H 0.96224 0.25819 0.96609 0.0
H911 H 0.91729 0.16953 0.96298 0.0
C912 C 0.83009 0.22577 0.94713 0.0
N913 N 0.77281 0.20507 0.94543 0.0
C914 C 0.81482 0.20875 0.93701 0.0
C915 C 0.81624 0.23253 0.9563 0.0
C916 C 0.78588 0.19843 0.93633 0.0
C917 C 0.78727 0.22177 0.95531 0.0
C918 C 0.93985 0.25043 0.93906 0.0
C919 C 0.9633 0.27606 0.93575 0.0
C920 C 0.93722 0.2253 0.93455 0.0
C921 C 0.98377 0.27615 0.92793 0.0
C922 C 0.95814 0.22628 0.92676 0.0
N923 N 0.98079 0.25147 0.92364 0.0
C924 C 0.9347 0.30815 0.96499 0.0
C925 C 0.89024 0.30427 0.96148 0.0
C926 C 0.94657 0.33662 0.96786 0.0
N927 N 0.90708 0.29271 0.96187 0.0
C928 C 0.90124 0.3327 0.9643 0.0
C929 C 0.92983 0.34931 0.96747 0.0
H930 H 0.94754 0.2983 0.96516 0.0
H931 H 0.86836 0.29145 0.95893 0.0
C932 C 0.86385 0.18948 0.91847 0.0
N933 N 0.87841 0.21615 0.92298 0.0
C934 C 0.85992 0.18471 0.90558 0.0
C935 C 0.88627 0.23501 0.90222 0.0
C936 C 0.8897 0.23879 0.9152 0.0
C937 C 0.87107 0.20766 0.89727 0.0
H938 H 0.85478 0.17194 0.92492 0.0
H939 H 0.90118 0.25977 0.91911 0.0
O940 O 0.88828 0.22898 0.97248 0.0
O941 O 0.8735 0.18757 0.95039 0.0
O942 O 0.85837 0.23562 0.94807 0.0
O943 O 0.91976 0.25012 0.94676 0.0
H944 H 0.93453 0.24896 0.98629 0.0
H945 H 0.85809 0.25119 0.98069 0.0
H946 H 0.94757 0.28409 0.00331 0.0
H947 H 0.87229 0.28608 0.99789 0.0
H948 H 0.85223 0.0964 0.94806 0.0
H949 H 0.86755 0.17607 0.9749 0.0
H950 H 0.86497 0.14212 0.93814 0.0
H951 H 0.8546 0.12979 0.98411 0.0
H952 H 0.78563 0.1638 0.99427 0.0
H953 H 0.7663 0.12037 0.95858 0.0
H954 H 0.00434 0.25744 0.97332 0.0
H955 H 0.95777 0.16665 0.97066 0.0
H956 H 0.82511 0.20333 0.92979 0.0
H957 H 0.82764 0.24571 0.96418 0.0
H958 H 0.7738 0.1851 0.92859 0.0
H959 H 0.77627 0.22667 0.9624 0.0
H960 H 0.96565 0.29567 0.93919 0.0
H961 H 0.91929 0.20524 0.93704 0.0
H962 H 0.00204 0.29584 0.92528 0.0
H963 H 0.95639 0.20702 0.9232 0.0
H964 H 0.96879 0.34868 0.97004 0.0
H965 H 0.88752 0.34157 0.964 0.0
H966 H 0.84765 0.16332 0.90219 0.0
H967 H 0.89543 0.25326 0.89614 0.0
Li968 Li 0.68618 0.90916 0.29267 0.0
Li969 Li 0.65443 0.85943 0.29458 0.0
Li970 Li 0.65918 0.8823 0.2743 0.0
Li971 Li 0.63471 0.88909 0.29178 0.0
C972 C 0.71241 0.8899 0.27663 0.0
N973 N 0.76005 0.91177 0.26181 0.0
C974 C 0.72627 0.8747 0.27474 0.0
C975 C 0.72273 0.9162 0.27093 0.0
C976 C 0.75034 0.88613 0.26723 0.0
C977 C 0.74685 0.9269 0.26349 0.0
C978 C 0.65524 0.8765 0.31723 0.0
C979 C 0.62682 0.8491 0.33469 0.0
N980 N 0.64934 0.84826 0.3395 0.0
C981 C 0.6782 0.87565 0.32241 0.0
C982 C 0.6294 0.86336 0.32346 0.0
C983 C 0.67476 0.86115 0.33364 0.0
C984 C 0.72322 0.96594 0.29821 0.0
N985 N 0.72046 0.93994 0.29838 0.0
C986 C 0.76645 0.9584 0.3071 0.0
C987 C 0.74139 0.93574 0.30267 0.0
C988 C 0.76996 0.98556 0.30698 0.0
C989 C 0.748 0.98921 0.30241 0.0
H990 H 0.70604 0.96851 0.29492 0.0
H991 H 0.73857 0.91478 0.30267 0.0
C992 C 0.62625 0.80335 0.30498 0.0
N993 N 0.65121 0.82621 0.30177 0.0
C994 C 0.6253 0.77863 0.30897 0.0
C995 C 0.67578 0.80177 0.30656 0.0
C996 C 0.67576 0.82599 0.3027 0.0
C997 C 0.65026 0.77751 0.30952 0.0
H998 H 0.60701 0.80397 0.30419 0.0
H999 H 0.69533 0.84456 0.30024 0.0
C1000 C 0.65156 0.92927 0.27302 0.0
N1001 N 0.62541 0.95077 0.25818 0.0
C1002 C 0.62803 0.91127 0.26584 0.0
C1003 C 0.6618 0.95825 0.27263 0.0
C1004 C 0.6151 0.92252 0.25841 0.0
C1005 C 0.64829 0.9687 0.26507 0.0
C1006 C 0.59614 0.83685 0.28186 0.0
C1007 C 0.58322 0.82835 0.27011 0.0
C1008 C 0.57968 0.82834 0.29272 0.0
C1009 C 0.554 0.81143 0.26944 0.0
C1010 C 0.55053 0.81141 0.29166 0.0
N1011 N 0.5384 0.80337 0.28014 0.0
C1012 C 0.65327 0.85068 0.25306 0.0
C1013 C 0.67024 0.89874 0.24842 0.0
C1014 C 0.6544 0.8448 0.24041 0.0
N1015 N 0.66091 0.87721 0.25678 0.0
C1016 C 0.67134 0.89374 0.23564 0.0
C1017 C 0.66333 0.86643 0.23146 0.0
H1018 H 0.64648 0.83412 0.25999 0.0
H1019 H 0.67687 0.91981 0.25165 0.0
C1020 C 0.6142 0.91802 0.30522 0.0
N1021 N 0.60674 0.89846 0.296 0.0
C1022 C 0.59807 0.93071 0.3075 0.0
C1023 C 0.56603 0.90177 0.29119 0.0
C1024 C 0.58296 0.88991 0.28912 0.0
C1025 C 0.574 0.92315 0.3002 0.0
H1026 H 0.63358 0.92488 0.31033 0.0
H1027 H 0.57781 0.87504 0.28156 0.0
O1028 O 0.68863 0.87875 0.28387 0.0
O1029 O 0.65802 0.88996 0.30608 0.0
O1030 O 0.66419 0.91865 0.28061 0.0
O1031 O 0.62471 0.85361 0.28265 0.0
H1032 H 0.71846 0.85421 0.27899 0.0
H1033 H 0.71226 0.92827 0.27219 0.0
H1034 H 0.76128 0.87458 0.2657 0.0
H1035 H 0.75505 0.94722 0.25903 0.0
H1036 H 0.60691 0.83872 0.3396 0.0
H1037 H 0.69834 0.88574 0.31769 0.0
H1038 H 0.61156 0.86421 0.31968 0.0
H1039 H 0.69227 0.86009 0.3377 0.0
H1040 H 0.78299 0.95479 0.31048 0.0
H1041 H 0.74977 0.00976 0.30233 0.0
H1042 H 0.60521 0.76034 0.31118 0.0
H1043 H 0.69558 0.80197 0.30713 0.0
H1044 H 0.61975 0.88883 0.26603 0.0
H1045 H 0.67996 0.97256 0.27811 0.0
H1046 H 0.59684 0.90877 0.25283 0.0
H1047 H 0.65599 0.99107 0.2647 0.0
H1048 H 0.59562 0.83483 0.2616 0.0
H1049 H 0.58927 0.8351 0.30186 0.0
H1050 H 0.54373 0.80472 0.26042 0.0
H1051 H 0.53754 0.80477 0.3 0.0
H1052 H 0.64869 0.82358 0.23773 0.0
H1053 H 0.67814 0.91107 0.22912 0.0
H1054 H 0.60533 0.94738 0.3144 0.0
H1055 H 0.54746 0.89499 0.28544 0.0
C1056 C 0.5488 0.60124 0.04603 0.0
C1057 C 0.54747 0.61845 0.03658 0.0
C1058 C 0.53312 0.57204 0.04506 0.0
C1059 C 0.50072 0.51487 0.02239 0.0
H1060 H 0.46057 0.47039 0.05147 0.0
C1061 C 0.43276 0.39317 0.02117 0.0
C1062 C 0.43363 0.37857 0.03186 0.0
C1063 C 0.4459 0.42252 0.02123 0.0
C1064 C 0.47194 0.48247 0.0433 0.0
H1065 H 0.52828 0.61822 0.01873 0.0
H1066 H 0.50124 0.56695 0.01694 0.0
H1067 H 0.48408 0.52149 0.05256 0.0
H1068 H 0.44931 0.38352 0.05095 0.0
H1069 H 0.47307 0.43453 0.05086 0.0
H1070 H 0.48919 0.47587 0.01322 0.0
C1071 C 0.51452 0.5763 0.02509 0.0
C1072 C 0.48528 0.51173 0.04392 0.0
C1073 C 0.53004 0.60563 0.02611 0.0
C1074 C 0.44851 0.39404 0.04249 0.0
C1075 C 0.46176 0.42333 0.04251 0.0
C1076 C 0.48754 0.48554 0.02179 0.0
C1077 C 0.51593 0.55927 0.03457 0.0
C1078 C 0.50007 0.52822 0.03353 0.0
C1079 C 0.46026 0.43791 0.03196 0.0
C1080 C 0.4733 0.46902 0.03231 0.0
H1081 H 0.56253 0.61027 0.05406 0.0
H1082 H 0.535 0.55941 0.05241 0.0
H1083 H 0.51221 0.52713 0.01428 0.0
H1084 H 0.42171 0.38191 0.01279 0.0
H1085 H 0.44421 0.43308 0.01297 0.0
C1086 C 0.05782 0.45529 0.37681 0.0
C1087 C 0.06338 0.44446 0.36591 0.0
C1088 C 0.04506 0.47172 0.37601 0.0
C1089 C -0.00153 0.48461 0.35616 0.0
H1090 H 0.02395 0.55071 0.37713 0.0
C1091 C 0.94653 0.55422 0.35544 0.0
C1092 C 0.94279 0.56364 0.36717 0.0
C1093 C 0.96225 0.54065 0.35443 0.0
C1094 C 0.01642 0.53216 0.37129 0.0
H1095 H 0.06037 0.443 0.34557 0.0
H1096 H 0.03759 0.47143 0.34422 0.0
H1097 H 0.0504 0.52593 0.37678 0.0
H1098 H 0.95271 0.56622 0.38703 0.0
H1099 H 0.97929 0.54189 0.38532 0.0
H1100 H 0.9641 0.49046 0.35088 0.0
C1101 C 0.04307 0.467 0.35338 0.0
C1102 C 0.03162 0.51804 0.37107 0.0
C1103 C 0.05606 0.45069 0.35416 0.0
C1104 C 0.95483 0.5589 0.37787 0.0
C1105 C 0.97046 0.54533 0.37687 0.0
C1106 C 0.98316 0.49868 0.35642 0.0
C1107 C 0.03735 0.47756 0.36431 0.0
C1108 C 0.02257 0.49388 0.36366 0.0
C1109 C 0.97458 0.53628 0.36513 0.0
C1110 C 0.99173 0.52234 0.36415 0.0
H1111 H 0.06258 0.45044 0.38603 0.0
H1112 H 0.04047 0.47917 0.38461 0.0
H1113 H 0.99086 0.46588 0.35044 0.0
H1114 H 0.93733 0.55734 0.34704 0.0
H1115 H 0.96515 0.53403 0.34525 0.0
C1116 C 0.39783 0.93623 0.70576 0.0
C1117 C 0.38029 0.93335 0.69556 0.0
C1118 C 0.42689 0.94924 0.70422 0.0
C1119 C 0.48446 0.00248 0.68617 0.0
H1120 H 0.52627 0.96897 0.69996 0.0
C1121 C 0.6065 0.06008 0.68592 0.0
C1122 C 0.61916 0.05739 0.69692 0.0
C1123 C 0.57741 0.04358 0.68414 0.0
C1124 C 0.51496 0.97876 0.69615 0.0
H1125 H 0.37987 0.94158 0.67563 0.0
H1126 H 0.43094 0.96534 0.67311 0.0
H1127 H 0.47505 0.94219 0.69981 0.0
H1128 H 0.61105 0.03471 0.71454 0.0
H1129 H 0.56066 0.00718 0.71174 0.0
H1130 H 0.52425 0.03957 0.68306 0.0
C1131 C 0.42188 0.95725 0.68226 0.0
C1132 C 0.48565 0.96333 0.696 0.0
C1133 C 0.39268 0.94377 0.68374 0.0
C1134 C 0.60206 0.03783 0.70606 0.0
C1135 C 0.57311 0.02157 0.70434 0.0
C1136 C 0.51384 0.01811 0.68646 0.0
C1137 C 0.43919 0.9601 0.6925 0.0
C1138 C 0.47014 0.97524 0.69125 0.0
C1139 C 0.56039 0.02407 0.69334 0.0
C1140 C 0.52941 0.00664 0.69173 0.0
H1141 H 0.38929 0.9292 0.71507 0.0
H1142 H 0.43985 0.95158 0.71232 0.0
H1143 H 0.4729 0.01217 0.68252 0.0
H1144 H 0.61903 0.07504 0.67871 0.0
H1145 H 0.56833 0.04592 0.67552 0.0
C1146 C 0.60449 0.561 0.64662 0.0
C1147 C 0.6185 0.55636 0.63667 0.0
C1148 C 0.5754 0.54416 0.64799 0.0
C1149 C 0.5139 0.47696 0.63775 0.0
H1150 H 0.47268 0.51625 0.64358 0.0
C1151 C 0.39664 0.42847 0.62595 0.0
C1152 C 0.37945 0.43285 0.63433 0.0
C1153 C 0.4257 0.44228 0.62766 0.0
C1154 C 0.48387 0.50489 0.64215 0.0
H1155 H 0.61306 0.53005 0.62052 0.0
H1156 H 0.56237 0.50072 0.62289 0.0
H1157 H 0.52389 0.54218 0.64427 0.0
H1158 H 0.37922 0.45512 0.6511 0.0
H1159 H 0.43017 0.47923 0.65414 0.0
H1160 H 0.47384 0.43981 0.63533 0.0
C1161 C 0.57388 0.51712 0.62974 0.0
C1162 C 0.51322 0.51973 0.64256 0.0
C1163 C 0.60295 0.53394 0.62838 0.0
C1164 C 0.39194 0.45125 0.64452 0.0
C1165 C 0.42109 0.46518 0.64621 0.0
C1166 C 0.48456 0.46214 0.63732 0.0
C1167 C 0.55972 0.52232 0.63944 0.0
C1168 C 0.52857 0.50602 0.64016 0.0
C1169 C 0.43826 0.46082 0.63779 0.0
C1170 C 0.46925 0.47605 0.6393 0.0
H1171 H 0.61599 0.57785 0.65327 0.0
H1172 H 0.56515 0.5484 0.65568 0.0
H1173 H 0.52511 0.46571 0.63607 0.0
H1174 H 0.38761 0.41411 0.61811 0.0
H1175 H 0.43839 0.43874 0.62093 0.0
C1176 C 0.96306 0.39344 0.97913 0.0
C1177 C 0.94251 0.37995 0.96977 0.0
C1178 C 0.97643 0.4226 0.98064 0.0
C1179 C 0.97056 0.48506 0.97265 0.0
H1180 H 0.05199 0.52521 0.97474 0.0
C1181 C 0.03719 0.60122 0.95928 0.0
C1182 C 0.06088 0.61879 0.96659 0.0
C1183 C 0.02229 0.5723 0.96136 0.0
C1184 C 0.02923 0.51431 0.97437 0.0
H1185 H 0.9197 0.38656 0.95476 0.0
H1186 H 0.94285 0.43729 0.95744 0.0
H1187 H 0.02608 0.47392 0.9756 0.0
H1188 H 0.08751 0.6198 0.98185 0.0
H1189 H 0.06125 0.56897 0.98554 0.0
H1190 H 0.97371 0.52538 0.97114 0.0
C1191 C 0.94839 0.4253 0.96372 0.0
C1192 C 0.01439 0.48494 0.97487 0.0
C1193 C 0.93509 0.39619 0.96219 0.0
C1194 C 0.06929 0.60677 0.97609 0.0
C1195 C 0.05438 0.57771 0.97815 0.0
C1196 C 0.98538 0.51438 0.97215 0.0
C1197 C 0.96945 0.43887 0.97285 0.0
C1198 C 0.98493 0.47 0.97374 0.0
C1199 C 0.03066 0.5602 0.97082 0.0
C1200 C 0.0149 0.5293 0.97272 0.0
H1201 H 0.96892 0.38146 0.98526 0.0
H1202 H 0.99232 0.43245 0.98786 0.0
H1203 H 0.94783 0.47414 0.97199 0.0
H1204 H 0.02988 0.60987 0.95202 0.0
H1205 H 0.00435 0.55935 0.95543 0.0
C1206 C 0.46024 0.06777 0.30955 0.0
C1207 C 0.44581 0.06545 0.29827 0.0
C1208 C 0.47619 0.05448 0.31086 0.0
C1209 C 0.51405 0.02769 0.29268 0.0
H1210 H 0.49815 0.97488 0.3199 0.0
C1211 C 0.54924 0.94602 0.29016 0.0
C1212 C 0.55897 0.93931 0.30111 0.0
C1213 C 0.53681 0.96274 0.29076 0.0
C1214 C 0.50322 0.98991 0.31237 0.0
H1215 H 0.43653 0.04665 0.27966 0.0
H1216 H 0.46515 0.02464 0.28182 0.0
H1217 H 0.47508 0.00317 0.3194 0.0
H1218 H 0.56264 0.94458 0.32134 0.0
H1219 H 0.54163 0.9746 0.32233 0.0
H1220 H 0.5422 0.01479 0.2856 0.0
C1221 C 0.46419 0.03686 0.2896 0.0
C1222 C 0.48999 0.00604 0.31209 0.0
C1223 C 0.44793 0.04969 0.28835 0.0
C1224 C 0.55561 0.94954 0.31271 0.0
C1225 C 0.54333 0.96653 0.31329 0.0
C1226 C 0.5275 0.01187 0.29302 0.0
C1227 C 0.47836 0.03903 0.30086 0.0
C1228 C 0.49482 0.02455 0.30208 0.0
C1229 C 0.53407 0.97358 0.30229 0.0
C1230 C 0.52169 0.99223 0.30268 0.0
H1231 H 0.45936 0.07996 0.31734 0.0
H1232 H 0.48707 0.0565 0.31962 0.0
H1233 H 0.5184 0.04214 0.28495 0.0
H1234 H 0.55187 0.93898 0.28103 0.0
H1235 H 0.52939 0.96723 0.28212 0.0
C1236 C 0.35348 0.16616 0.21283 0.0
C1237 C 0.33294 0.14017 0.21778 0.0
C1238 C 0.35297 0.17253 0.20018 0.0
C1239 C 0.30608 0.15098 0.17232 0.0
H1240 H 0.37646 0.19335 0.15431 0.0
C1241 C 0.31332 0.16519 0.11835 0.0
C1242 C 0.33136 0.19257 0.11392 0.0
C1243 C 0.31293 0.15888 0.13108 0.0
C1244 C 0.35667 0.1817 0.15926 0.0
H1245 H 0.29564 0.10052 0.21323 0.0
H1246 H 0.29543 0.11114 0.19107 0.0
H1247 H 0.37707 0.18168 0.17634 0.0
H1248 H 0.36318 0.23476 0.11928 0.0
H1249 H 0.36265 0.22367 0.14155 0.0
H1250 H 0.28577 0.15057 0.15507 0.0
C1251 C 0.31163 0.12688 0.19703 0.0
C1252 C 0.35698 0.17507 0.17189 0.0
C1253 C 0.31199 0.12061 0.20972 0.0
C1254 C 0.34893 0.21353 0.12246 0.0
C1255 C 0.34879 0.20715 0.13517 0.0
C1256 C 0.30578 0.15737 0.15965 0.0
C1257 C 0.33208 0.15295 0.1921 0.0
C1258 C 0.33169 0.15972 0.17861 0.0
C1259 C 0.33083 0.17975 0.13959 0.0
C1260 C 0.33108 0.17288 0.15301 0.0
H1261 H 0.37017 0.1816 0.2187 0.0
H1262 H 0.36884 0.19295 0.19677 0.0
H1263 H 0.28623 0.13955 0.17724 0.0
H1264 H 0.29941 0.14869 0.11197 0.0
H1265 H 0.29901 0.13756 0.13424 0.0
C1266 C 0.13686 0.35202 0.45583 0.0
C1267 C 0.14068 0.33458 0.44737 0.0
C1268 C 0.14322 0.35228 0.46855 0.0
C1269 C 0.15346 0.31057 0.49299 0.0
H1270 H 0.19292 0.382 0.51046 0.0
C1271 C 0.19771 0.32049 0.54307 0.0
C1272 C 0.19373 0.33795 0.55146 0.0
C1273 C 0.19155 0.32018 0.53033 0.0
C1274 C 0.18165 0.36186 0.50575 0.0
H1275 H 0.15361 0.3033 0.44566 0.0
H1276 H 0.16513 0.30409 0.46781 0.0
H1277 H 0.18106 0.381 0.48833 0.0
H1278 H 0.18073 0.3692 0.55301 0.0
H1279 H 0.16955 0.36831 0.53081 0.0
H1280 H 0.15403 0.29143 0.51041 0.0
C1281 C 0.15704 0.31742 0.46464 0.0
C1282 C 0.17483 0.36129 0.49307 0.0
C1283 C 0.15073 0.3172 0.45192 0.0
C1284 C 0.18372 0.35528 0.54681 0.0
C1285 C 0.17761 0.355 0.53407 0.0
C1286 C 0.16028 0.31114 0.50566 0.0
C1287 C 0.15347 0.33505 0.47308 0.0
C1288 C 0.16063 0.33563 0.48656 0.0
C1289 C 0.18136 0.33738 0.52569 0.0
C1290 C 0.17442 0.33679 0.51218 0.0
H1291 H 0.1294 0.36584 0.4526 0.0
H1292 H 0.13995 0.36586 0.47485 0.0
H1293 H 0.14216 0.29043 0.48828 0.0
H1294 H 0.20516 0.30672 0.54639 0.0
H1295 H 0.19494 0.30658 0.52408 0.0
C1296 C 0.81264 0.13268 0.78784 0.0
C1297 C 0.8041 0.14838 0.78052 0.0
C1298 C 0.82074 0.14002 0.80034 0.0
C1299 C 0.81406 0.17915 0.82698 0.0
H1300 H 0.87911 0.17705 0.8398 0.0
C1301 C 0.85883 0.21993 0.8764 0.0
C1302 C 0.86605 0.20297 0.88356 0.0
C1303 C 0.85255 0.21449 0.86364 0.0
C1304 C 0.86076 0.17752 0.83638 0.0
H1305 H 0.79695 0.18382 0.78062 0.0
H1306 H 0.8115 0.19688 0.80237 0.0
H1307 H 0.86512 0.16477 0.81793 0.0
H1308 H 0.87322 0.16757 0.88286 0.0
H1309 H 0.86182 0.15779 0.86065 0.0
H1310 H 0.80959 0.19174 0.84544 0.0
C1311 C 0.81173 0.17877 0.79848 0.0
C1312 C 0.85273 0.17045 0.82387 0.0
C1313 C 0.80367 0.17146 0.78598 0.0
C1314 C 0.86743 0.18082 0.87763 0.0
C1315 C 0.86119 0.17541 0.86487 0.0
C1316 C 0.82209 0.18622 0.8395 0.0
C1317 C 0.82045 0.16319 0.80578 0.0
C1318 C 0.82922 0.17107 0.81904 0.0
C1319 C 0.8534 0.19201 0.85776 0.0
C1320 C 0.84546 0.18537 0.84435 0.0
H1321 H 0.8135 0.11497 0.78387 0.0
H1322 H 0.82705 0.1274 0.80576 0.0
H1323 H 0.79562 0.17947 0.82359 0.0
H1324 H 0.85735 0.237 0.88072 0.0
H1325 H 0.84694 0.22786 0.85838 0.0
C1326 C 0.68448 0.8077 0.12226 0.0
C1327 C 0.66562 0.80983 0.11399 0.0
C1328 C 0.68513 0.81428 0.13498 0.0
C1329 C 0.66955 0.85578 0.1568 0.0
H1330 H 0.66399 0.80222 0.18202 0.0
C1331 C 0.68563 0.88044 0.21006 0.0
C1332 C 0.66434 0.86049 0.21789 0.0
C1333 C 0.68649 0.87477 0.19733 0.0
C1334 C 0.66557 0.81734 0.17506 0.0
H1335 H 0.6324 0.82029 0.11278 0.0
H1336 H 0.63434 0.83268 0.13486 0.0
H1337 H 0.66448 0.79152 0.15974 0.0
H1338 H 0.62696 0.81904 0.21828 0.0
H1339 H 0.62917 0.8089 0.19618 0.0
H1340 H 0.67078 0.88166 0.17213 0.0
C1341 C 0.6486 0.82593 0.13143 0.0
C1342 C 0.66603 0.81132 0.16235 0.0
C1343 C 0.64762 0.81895 0.11877 0.0
C1344 C 0.64402 0.8347 0.21265 0.0
C1345 C 0.64516 0.82889 0.19997 0.0
C1346 C 0.66955 0.86201 0.16951 0.0
C1347 C 0.66726 0.82354 0.13965 0.0
C1348 C 0.66779 0.83038 0.15311 0.0
C1349 C 0.66636 0.84888 0.1922 0.0
C1350 C 0.66731 0.84273 0.17875 0.0
H1351 H 0.69902 0.80126 0.11891 0.0
H1352 H 0.69989 0.81251 0.14113 0.0
H1353 H 0.67107 0.87086 0.14983 0.0
H1354 H 0.70194 0.90032 0.21378 0.0
H1355 H 0.7032 0.89043 0.19153 0.0
C1356 C 0.81792 0.69194 0.54514 0.0
C1357 C 0.79899 0.66678 0.55127 0.0
C1358 C 0.82453 0.69186 0.53249 0.0
C1359 C 0.82122 0.6437 0.50711 0.0
H1360 H 0.83577 0.70662 0.48564 0.0
C1361 C 0.82932 0.64184 0.45304 0.0
C1362 C 0.85284 0.66497 0.44763 0.0
C1363 C 0.82321 0.6421 0.46575 0.0
C1364 C 0.83194 0.68902 0.49157 0.0
H1365 H 0.77208 0.62174 0.54873 0.0
H1366 H 0.78238 0.62185 0.52658 0.0
H1367 H 0.82319 0.70682 0.50758 0.0
H1368 H 0.88827 0.70653 0.45115 0.0
H1369 H 0.87725 0.70718 0.4734 0.0
H1370 H 0.82917 0.62562 0.4909 0.0
C1371 C 0.79277 0.6416 0.53163 0.0
C1372 C 0.82484 0.68914 0.50416 0.0
C1373 C 0.78645 0.64162 0.54433 0.0
C1374 C 0.87011 0.68839 0.45514 0.0
C1375 C 0.86372 0.68884 0.4678 0.0
C1376 C 0.82789 0.64341 0.49448 0.0
C1377 C 0.8121 0.66667 0.52556 0.0
C1378 C 0.81944 0.6665 0.51211 0.0
C1379 C 0.84025 0.66567 0.47322 0.0
C1380 C 0.83338 0.66609 0.48661 0.0
H1381 H 0.82768 0.71181 0.55011 0.0
H1382 H 0.83977 0.71155 0.52821 0.0
H1383 H 0.81782 0.62617 0.51298 0.0
H1384 H 0.81579 0.62347 0.44746 0.0
H1385 H 0.80491 0.62405 0.4697 0.0
C1386 C 0.11913 0.80394 0.87567 0.0
C1387 C 0.13944 0.80399 0.88377 0.0
C1388 C 0.12519 0.81076 0.86298 0.0
C1389 C 0.1832 0.85057 0.8414 0.0
H1390 H 0.13307 0.8012 0.81553 0.0
C1391 C 0.19446 0.88019 0.78867 0.0
C1392 C 0.1944 0.8601 0.78044 0.0
C1393 C 0.1873 0.87367 0.8013 0.0
C1394 C 0.1472 0.81516 0.82268 0.0
H1395 H 0.18189 0.81066 0.88465 0.0
H1396 H 0.19263 0.8235 0.86263 0.0
H1397 H 0.12125 0.78911 0.8377 0.0
H1398 H 0.18705 0.81743 0.77922 0.0
H1399 H 0.17362 0.80589 0.80115 0.0
H1400 H 0.20908 0.8767 0.8264 0.0
C1401 C 0.17208 0.81824 0.86618 0.0
C1402 C 0.14038 0.80834 0.83532 0.0
C1403 C 0.16592 0.811 0.87881 0.0
C1404 C 0.18679 0.83328 0.78517 0.0
C1405 C 0.17921 0.82665 0.79775 0.0
C1406 C 0.18979 0.85763 0.82877 0.0
C1407 C 0.15179 0.81818 0.85816 0.0
C1408 C 0.15846 0.82586 0.84478 0.0
C1409 C 0.17949 0.8468 0.80593 0.0
C1410 C 0.17197 0.83985 0.8193 0.0
H1411 H 0.09869 0.79912 0.87916 0.0
H1412 H 0.10926 0.81078 0.85698 0.0
H1413 H 0.19738 0.86449 0.84855 0.0
H1414 H 0.19967 0.90088 0.78535 0.0
H1415 H 0.18743 0.88949 0.80743 0.0
C1416 C 0.26166 0.89477 0.99049 0.0
C1417 C 0.24405 0.89427 0.98081 0.0
C1418 C 0.28469 0.92034 0.99433 0.0
C1419 C 0.32954 0.99525 0.98525 0.0
H1420 H 0.32549 0.01055 0.02047 0.0
C1421 C 0.35307 0.10223 0.00343 0.0
C1422 C 0.36214 0.11027 0.01584 0.0
C1423 C 0.34869 0.07659 0.99878 0.0
C1424 C 0.32762 0.00661 0.01068 0.0
H1425 H 0.23749 0.91938 0.967 0.0
H1426 H 0.27757 0.96384 0.97362 0.0
H1427 H 0.29904 0.96251 0.01278 0.0
H1428 H 0.37617 0.09895 0.03276 0.0
H1429 H 0.36854 0.05406 0.02461 0.0
H1430 H 0.35707 0.03955 0.98303 0.0
C1431 C 0.27377 0.94471 0.97828 0.0
C1432 C 0.31239 0.979 0.00628 0.0
C1433 C 0.25064 0.91934 0.97459 0.0
C1434 C 0.36866 0.09305 0.02322 0.0
C1435 C 0.36432 0.06738 0.01855 0.0
C1436 C 0.3449 0.02285 0.98966 0.0
C1437 C 0.29068 0.9456 0.98837 0.0
C1438 C 0.31217 0.97325 0.99342 0.0
C1439 C 0.35333 0.05841 0.00643 0.0
C1440 C 0.34304 0.02899 0.00232 0.0
H1441 H 0.25694 0.87562 0.9954 0.0
H1442 H 0.29742 0.92047 0.00213 0.0
H1443 H 0.33008 0.9913 0.97532 0.0
H1444 H 0.34755 0.11484 0.99754 0.0
H1445 H 0.33982 0.07024 0.98946 0.0
C1446 C 0.27366 0.37136 0.354 0.0
C1447 C 0.24912 0.36368 0.34702 0.0
C1448 C 0.29443 0.36621 0.34931 0.0
C1449 C 0.31606 0.34149 0.32097 0.0
H1450 H 0.33239 0.29924 0.34542 0.0
C1451 C 0.32378 0.24486 0.30868 0.0
C1452 C 0.34315 0.2395 0.31489 0.0
C1453 C 0.32154 0.26828 0.31182 0.0
C1454 C 0.32871 0.31155 0.33853 0.0
H1455 H 0.22804 0.34637 0.32931 0.0
H1456 H 0.26395 0.33723 0.32118 0.0
H1457 H 0.31203 0.32737 0.35235 0.0
H1458 H 0.3761 0.25477 0.32891 0.0
H1459 H 0.37173 0.29578 0.33467 0.0
H1460 H 0.33101 0.32396 0.30707 0.0
C1461 C 0.26749 0.34758 0.3302 0.0
C1462 C 0.31705 0.32776 0.34249 0.0
C1463 C 0.2468 0.35278 0.33487 0.0
C1464 C 0.36096 0.2585 0.32403 0.0
C1465 C 0.35844 0.28184 0.32731 0.0
C1466 C 0.32756 0.32515 0.31701 0.0
C1467 C 0.29103 0.35324 0.33756 0.0
C1468 C 0.30945 0.34192 0.33369 0.0
C1469 C 0.33846 0.28675 0.32131 0.0
C1470 C 0.33285 0.30908 0.32569 0.0
H1471 H 0.27624 0.38027 0.36331 0.0
H1472 H 0.31256 0.37128 0.35511 0.0
H1473 H 0.31099 0.35264 0.314 0.0
H1474 H 0.31008 0.23069 0.30148 0.0
H1475 H 0.30567 0.27125 0.30716 0.0
C1476 C 0.8974 0.26618 0.6751 0.0
C1477 C 0.8963 0.24793 0.6846 0.0
C1478 C 0.92321 0.28937 0.67163 0.0
C1479 C 0.99777 0.33324 0.68155 0.0
H1480 H 0.01439 0.33243 0.64625 0.0
C1481 C 0.10542 0.3585 0.66345 0.0
C1482 C 0.11368 0.36852 0.65116 0.0
C1483 C 0.07972 0.35382 0.66816 0.0
C1484 C 0.01009 0.33365 0.65608 0.0
H1485 H 0.92065 0.24044 0.69849 0.0
H1486 H 0.96549 0.28069 0.69248 0.0
H1487 H 0.9661 0.30529 0.65351 0.0
H1488 H 0.10281 0.38409 0.63462 0.0
H1489 H 0.05787 0.376 0.64287 0.0
H1490 H 0.04199 0.36053 0.68421 0.0
C1491 C 0.94664 0.27729 0.68768 0.0
C1492 C 0.98233 0.31802 0.66024 0.0
C1493 C 0.92104 0.25403 0.69102 0.0
C1494 C 0.09673 0.37585 0.64404 0.0
C1495 C 0.07102 0.37122 0.64877 0.0
C1496 C 0.02554 0.34898 0.67739 0.0
C1497 C 0.94814 0.29487 0.67777 0.0
C1498 C 0.97607 0.31665 0.67309 0.0
C1499 C 0.06173 0.35912 0.66069 0.0
C1500 C 0.03215 0.34833 0.66469 0.0
H1501 H 0.87854 0.26188 0.67005 0.0
H1502 H 0.92378 0.30263 0.66397 0.0
H1503 H 0.99345 0.33293 0.69149 0.0
H1504 H 0.11783 0.35236 0.66913 0.0
H1505 H 0.07314 0.34414 0.67732 0.0
C1506 C 0.67209 0.91972 0.02145 0.0
C1507 C 0.65199 0.8949 0.01553 0.0
C1508 C 0.67489 0.94552 0.01811 0.0
C1509 C 0.66763 0.98155 0.99139 0.0
H1510 H 0.68687 0.04086 0.01582 0.0
C1511 C 0.72317 0.09718 0.9761 0.0
C1512 C 0.74808 0.11373 0.98292 0.0
C1513 C 0.70261 0.07101 0.9807 0.0
C1514 C 0.68135 0.0245 0.00887 0.0
H1515 H 0.61842 0.87724 0.0018 0.0
H1516 H 0.6238 0.92289 0.99568 0.0
H1517 H 0.66625 0.99217 0.02286 0.0
H1518 H 0.77014 0.11628 0.00022 0.0
H1519 H 0.73446 0.07108 0.00821 0.0
H1520 H 0.6844 0.01396 0.97748 0.0
C1521 C 0.6372 0.9222 0.00296 0.0
C1522 C 0.66951 0.99667 0.0129 0.0
C1523 C 0.63411 0.89619 0.00646 0.0
C1524 C 0.75108 0.10436 0.99479 0.0
C1525 C 0.73053 0.07833 -0.00061 0.0
C1526 C 0.67958 0.00943 0.98736 0.0
C1527 C 0.65781 0.94712 0.00871 0.0
C1528 C 0.66371 0.97511 0.00425 0.0
C1529 C 0.70648 0.06096 0.99222 0.0
C1530 C 0.68774 0.03133 0.99613 0.0
H1531 H 0.68589 0.9192 0.02858 0.0
H1532 H 0.69124 0.96438 0.02257 0.0
H1533 H 0.6635 0.96538 0.98452 0.0
H1534 H 0.72 0.10402 0.96702 0.0
H1535 H 0.68412 0.05825 0.97504 0.0
C1536 C 0.66627 0.74279 0.3059 0.0
C1537 C 0.64995 0.75115 0.31283 0.0
C1538 C 0.66812 0.71938 0.30953 0.0
C1539 C 0.66518 0.68124 0.33789 0.0
H1540 H 0.67875 0.63544 0.31434 0.0
C1541 C 0.71878 0.621 0.35452 0.0
C1542 C 0.74307 0.62805 0.34746 0.0
C1543 C 0.69791 0.62585 0.34969 0.0
C1544 C 0.67478 0.64788 0.32105 0.0
H1545 H 0.62159 0.74075 0.32863 0.0
H1546 H 0.62479 0.69959 0.33502 0.0
H1547 H 0.65857 0.66362 0.30688 0.0
H1548 H 0.76343 0.64365 0.32946 0.0
H1549 H 0.72717 0.65202 0.32107 0.0
H1550 H 0.68273 0.6668 0.35193 0.0
C1551 C 0.63632 0.71134 0.32682 0.0
C1552 C 0.66327 0.66403 0.31678 0.0
C1553 C 0.63438 0.73479 0.32313 0.0
C1554 C 0.7449 0.63775 0.3351 0.0
C1555 C 0.72403 0.64255 0.33028 0.0
C1556 C 0.67663 0.66508 0.34216 0.0
C1557 C 0.65368 0.70375 0.32019 0.0
C1558 C 0.65951 0.68183 0.32506 0.0
C1559 C 0.7009 0.63776 0.33772 0.0
C1560 C 0.68268 0.64917 0.33369 0.0
H1561 H 0.67812 0.75473 0.29779 0.0
H1562 H 0.68198 0.71439 0.30431 0.0
H1563 H 0.66279 0.69488 0.3445 0.0
H1564 H 0.71652 0.61296 0.36399 0.0
H1565 H 0.68008 0.62151 0.35556 0.0
C1566 C 0.07762 0.74753 0.69146 0.0
C1567 C 0.10227 0.75661 0.6844 0.0
C1568 C 0.05232 0.72463 0.68751 0.0
C1569 C 0.01696 0.68957 0.65859 0.0
H1570 H 0.95756 0.64184 0.68175 0.0
C1571 C 0.90243 0.63008 0.64229 0.0
C1572 C 0.88539 0.63686 0.64967 0.0
C1573 C 0.92843 0.635 0.64678 0.0
C1574 C 0.97399 0.65482 0.67515 0.0
H1575 H 0.12011 0.74797 0.66802 0.0
H1576 H 0.07567 0.70765 0.66109 0.0
H1577 H 0.00597 0.66893 0.68926 0.0
H1578 H 0.88161 0.65238 0.66788 0.0
H1579 H 0.92656 0.6606 0.67572 0.0
H1580 H 0.98488 0.67659 0.64464 0.0
C1581 C 0.07597 0.71848 0.66964 0.0
C1582 C 0.00168 0.67036 0.67944 0.0
C1583 C 0.1014 0.74143 0.67363 0.0
C1584 C 0.89396 0.6466 0.66198 0.0
C1585 C 0.91982 0.65133 0.66649 0.0
C1586 C 0.98931 0.67395 0.65429 0.0
C1587 C 0.05104 0.7102 0.67641 0.0
C1588 C 0.02325 0.68888 0.67134 0.0
C1589 C 0.93778 0.64656 0.65878 0.0
C1590 C 0.96738 0.65738 0.66265 0.0
H1591 H 0.07776 0.75853 0.69993 0.0
H1592 H 0.03351 0.71911 0.69288 0.0
H1593 H 0.033 0.70376 0.65212 0.0
H1594 H 0.89617 0.62197 0.63285 0.0
H1595 H 0.94169 0.63079 0.64069 0.0
C1596 C 0.01658 0.19146 0.97275 0.0
C1597 C 0.00933 0.21081 0.97762 0.0
C1598 C 0.04 0.19061 0.97734 0.0
C1599 C 0.10715 0.23391 0.99368 0.0
H1600 H 0.10215 0.16269 0.00179 0.0
C1601 C 0.19485 0.22896 0.02093 0.0
C1602 C 0.20207 0.20881 0.01726 0.0
C1603 C 0.17111 0.22847 0.01595 0.0
C1604 C 0.10402 0.18273 -0.00058 0.0
H1605 H 0.02074 0.24398 0.99136 0.0
H1606 H 0.06175 0.24274 0.99921 0.0
H1607 H 0.06125 0.16327 0.99314 0.0
H1608 H 0.19005 0.17229 0.00552 0.0
H1609 H 0.14867 0.1716 0.99667 0.0
H1610 H 0.14987 0.25345 -0.00019 0.0
C1611 C 0.04949 0.22846 0.99174 0.0
C1612 C 0.08057 0.18305 0.99448 0.0
C1613 C 0.02602 0.2292 0.98721 0.0
C1614 C 0.18483 0.18792 0.00861 0.0
C1615 C 0.16112 0.18752 0.00356 0.0
C1616 C 0.1306 0.2336 0.99853 0.0
C1617 C 0.05677 0.2092 0.98685 0.0
C1618 C 0.08184 0.20867 0.99167 0.0
C1619 C 0.15408 0.20792 0.00711 0.0
C1620 C 0.12927 0.20803 0.00158 0.0
H1621 H 0.00444 0.17725 0.96524 0.0
H1622 H 0.04529 0.17573 0.97331 0.0
H1623 H 0.1089 0.25396 0.9914 0.0
H1624 H 0.20748 0.24503 0.02774 0.0
H1625 H 0.16598 0.24412 0.01911 0.0
C1626 C 0.80942 0.03521 0.3049 0.0
C1627 C 0.79617 0.00996 0.31173 0.0
C1628 C 0.83368 0.05851 0.30954 0.0
C1629 C 0.8909 0.07956 0.33307 0.0
H1630 H 0.90013 0.15365 0.32792 0.0
C1631 C 0.97513 0.17958 0.3586 0.0
C1632 C 0.99061 0.20362 0.35111 0.0
C1633 C 0.95184 0.15565 0.3537 0.0
C1634 C 0.89793 0.1331 0.32934 0.0
H1635 H 0.79777 0.98927 0.32877 0.0
H1636 H 0.83974 0.03012 0.33705 0.0
H1637 H 0.85861 0.11245 0.31964 0.0
H1638 H 0.99389 0.22095 0.33244 0.0
H1639 H 0.95283 0.17945 0.32404 0.0
H1640 H 0.93003 0.10042 0.34304 0.0
C1641 C 0.83186 0.0318 0.32796 0.0
C1642 C 0.8742 0.10947 0.32456 0.0
C1643 C 0.80776 0.0084 0.32325 0.0
C1644 C 0.98219 0.20308 0.33858 0.0
C1645 C 0.95873 0.17927 0.33373 0.0
C1646 C 0.91449 0.10321 0.33797 0.0
C1647 C 0.84509 0.05722 0.32119 0.0
C1648 C 0.8704 0.08237 0.32631 0.0
C1649 C 0.94333 0.15533 0.34124 0.0
C1650 C 0.91827 0.13021 0.33611 0.0
H1651 H 0.80113 0.03687 0.29591 0.0
H1652 H 0.84359 0.0775 0.30393 0.0
H1653 H 0.88895 0.05912 0.33443 0.0
H1654 H 0.98065 0.17936 0.36835 0.0
H1655 H 0.94013 0.13758 0.35974 0.0
C1656 C 0.79447 0.80411 0.66157 0.0
C1657 C 0.79297 0.80015 0.64849 0.0
C1658 C 0.7958 0.82813 0.66676 0.0
C1659 C 0.81087 0.90024 0.65875 0.0
H1660 H 0.76672 0.8915 0.68857 0.0
C1661 C 0.78608 0.98525 0.67571 0.0
C1662 C 0.78832 0.991 0.68865 0.0
C1663 C 0.78825 0.9626 0.6711 0.0
C1664 C 0.77941 0.89433 0.68032 0.0
H1665 H 0.7925 0.81883 0.6306 0.0
H1666 H 0.79389 0.86018 0.63964 0.0
H1667 H 0.76776 0.85089 0.67996 0.0
H1668 H 0.79445 0.97747 0.70691 0.0
H1669 H 0.79825 0.93779 0.69885 0.0
H1670 H 0.82197 0.94359 0.65898 0.0
C1671 C 0.79444 0.84494 0.64591 0.0
C1672 C 0.78008 0.87108 0.6754 0.0
C1673 C 0.79326 0.821 0.64072 0.0
C1674 C 0.79283 0.97365 0.69689 0.0
C1675 C 0.79477 0.95083 0.69229 0.0
C1676 C 0.81005 0.92343 0.66363 0.0
C1677 C 0.79553 0.84872 0.659 0.0
C1678 C 0.79569 0.8737 0.6645 0.0
C1679 C 0.79251 0.94508 0.67934 0.0
C1680 C 0.79418 0.92068 0.67442 0.0
H1681 H 0.79399 0.78836 0.66785 0.0
H1682 H 0.79699 0.83052 0.67687 0.0
H1683 H 0.82353 0.90315 0.65048 0.0
H1684 H 0.78286 0.99842 0.66912 0.0
H1685 H 0.78616 0.95854 0.6611 0.0
C1686 C 0.81746 0.79412 0.02476 0.0
C1687 C 0.79067 0.7765 0.01956 0.0
C1688 C 0.84135 0.7951 0.01961 0.0
C1689 C 0.86431 0.75367 0.0019 0.0
H1690 H 0.92908 0.82506 0.99271 0.0
C1691 C 0.95716 0.75824 0.97485 0.0
C1692 C 0.98436 0.78007 0.97767 0.0
C1693 C 0.93367 0.75842 0.97975 0.0
C1694 C 0.9114 0.80495 0.9954 0.0
H1695 H 0.76837 0.74645 0.00463 0.0
H1696 H 0.80992 0.74741 0.99604 0.0
H1697 H 0.88807 0.8241 0.00208 0.0
H1698 H 0.00853 0.81913 0.98783 0.0
H1699 H 0.96762 0.81907 0.9968 0.0
H1700 H 0.88764 0.7344 0.99567 0.0
C1701 C 0.81227 0.76044 0.00411 0.0
C1702 C 0.88788 0.80445 0.00071 0.0
C1703 C 0.78845 0.7598 0.00911 0.0
C1704 C 0.98771 0.8022 0.98542 0.0
C1705 C 0.96423 0.80217 0.99051 0.0
C1706 C 0.88797 0.75416 0.99679 0.0
C1707 C 0.83891 0.77814 0.00928 0.0
C1708 C 0.86408 0.77879 0.00393 0.0
C1709 C 0.93686 0.78021 0.98778 0.0
C1710 C 0.91179 0.7798 0.99338 0.0
H1711 H 0.82002 0.80692 0.03292 0.0
H1712 H 0.86168 0.80873 0.02383 0.0
H1713 H 0.8463 0.73363 0.00444 0.0
H1714 H 0.95406 0.74109 0.96877 0.0
H1715 H 0.913 0.7415 0.97717 0.0
C1716 C 0.02912 0.79772 0.35368 0.0
C1717 C 0.00221 0.79335 0.35101 0.0
C1718 C 0.05297 0.82105 0.3488 0.0
C1719 C 0.07723 0.89069 0.33357 0.0
H1720 H 0.14129 0.88262 0.32461 0.0
C1721 C 0.17372 0.9733 0.30517 0.0
C1722 C 0.20004 0.98169 0.31073 0.0
C1723 C 0.1492 0.95055 0.30999 0.0
C1724 C 0.12356 0.88515 0.32712 0.0
H1725 H 0.97891 0.80962 0.34114 0.0
H1726 H 0.02046 0.84985 0.33215 0.0
H1727 H 0.09904 0.84237 0.33297 0.0
H1728 H 0.22078 0.97268 0.32594 0.0
H1729 H 0.17815 0.93232 0.33392 0.0
H1730 H 0.1018 0.93339 0.32726 0.0
C1731 C 0.02336 0.83583 0.33832 0.0
C1732 C 0.09938 0.86217 0.332 0.0
C1733 C -0.00049 0.81273 0.34341 0.0
C1734 C 0.20111 0.96656 0.32119 0.0
C1735 C 0.17667 0.94352 0.32584 0.0
C1736 C 0.10127 0.91354 0.32847 0.0
C1737 C 0.05045 0.84028 0.34093 0.0
C1738 C 0.07595 0.86467 0.33542 0.0
C1739 C 0.15052 0.93537 0.32031 0.0
C1740 C 0.12471 0.91101 0.32532 0.0
H1741 H 0.0317 0.7832 0.35966 0.0
H1742 H 0.0734 0.82405 0.3513 0.0
H1743 H 0.05988 0.89365 0.33627 0.0
H1744 H 0.17201 0.98404 0.29698 0.0
H1745 H 0.12925 0.94446 0.3055 0.0
C1746 C 0.22488 0.03786 0.69436 0.0
C1747 C 0.21445 0.01305 0.68728 0.0
C1748 C 0.22317 0.06079 0.68975 0.0
C1749 C 0.1868 0.08059 0.66582 0.0
H1750 H 0.249 0.15579 0.67198 0.0
C1751 C 0.19951 0.17997 0.64076 0.0
C1752 C 0.20713 0.20369 0.64835 0.0
C1753 C 0.19946 0.15629 0.64563 0.0
C1754 C 0.23137 0.13492 0.67028 0.0
H1755 H 0.1943 0.99282 0.6698 0.0
H1756 H 0.19184 0.033 0.66161 0.0
H1757 H 0.25092 0.11534 0.68014 0.0
H1758 H 0.21989 0.22065 0.66715 0.0
H1759 H 0.22038 0.17958 0.67552 0.0
H1760 H 0.16762 0.10038 0.6557 0.0
C1761 C 0.20073 0.0346 0.67086 0.0
C1762 C 0.2324 0.11171 0.67499 0.0
C1763 C 0.2022 0.01157 0.67552 0.0
C1764 C 0.21446 0.20302 0.66095 0.0
C1765 C 0.21466 0.17947 0.66578 0.0
C1766 C 0.18592 0.10382 0.661 0.0
C1767 C 0.21125 0.05954 0.6779 0.0
C1768 C 0.21009 0.08424 0.67286 0.0
C1769 C 0.20727 0.15592 0.65815 0.0
C1770 C 0.20815 0.13122 0.66322 0.0
H1771 H 0.2341 0.03944 0.70353 0.0
H1772 H 0.23099 0.07941 0.69555 0.0
H1773 H 0.16904 0.0598 0.66416 0.0
H1774 H 0.19419 0.17988 0.63096 0.0
H1775 H 0.19396 0.13853 0.6395 0.0
loop_
_geom_bond_atom_site_label_1
_geom_bond_atom_site_label_2
_geom_bond_distance
_geom_bond_site_symmetry_2
_ccdc_geom_bond_type
Li0 N17 1.990 . S
Li0 O60 1.956 . S
Li0 O61 1.970 . S
Li0 O62 1.961 . S
Li1 N25 1.990 . S
Li1 O60 1.970 . S
Li1 O61 1.956 . S
Li1 O63 1.961 . S
Li2 N47 1.990 . S
Li2 O60 1.961 . S
Li2 O62 1.956 . S
Li2 O63 1.970 . S
Li3 N53 1.990 . S
Li3 O61 1.961 . S
Li3 O62 1.970 . S
Li3 O63 1.956 . S
C4 C6 1.348 . S
C4 C7 1.356 . S
C4 O60 1.325 . S
N5 C8 1.314 . S
N5 C9 1.279 . S
C6 C4 1.348 . S
C6 C8 1.353 . S
C6 H64 0.929 . S
C7 C4 1.356 . S
C7 C9 1.358 . S
C7 H65 0.930 . S
C8 N5 1.314 . S
C8 C6 1.353 . S
C8 H66 0.930 . S
C9 N5 1.279 . S
C9 C7 1.358 . S
C9 H67 0.930 . S
C10 C13 1.348 . S
C10 C14 1.356 . S
C10 O61 1.325 . S
C11 N12 1.279 . S
C11 C14 1.358 . S
C11 H68 0.930 . S
N12 C11 1.279 . S
N12 C15 1.314 . S
C13 C10 1.348 . S
C13 C15 1.353 . S
C13 H69 0.929 . S
C14 C10 1.356 . S
C14 C11 1.358 . S
C14 H70 0.930 . S
C15 N12 1.314 . S
C15 C13 1.353 . S
C15 H71 0.930 . S
C16 N17 1.314 . S
C16 C21 1.353 . S
C16 H22 0.930 . S
N17 Li0 1.990 . S
N17 C16 1.314 . S
N17 C19 1.279 . S
C18 C19 1.358 . S
C18 C20 1.356 . S
C18 H72 0.930 . S
C19 N17 1.279 . S
C19 C18 1.358 . S
C19 H23 0.930 . S
C20 C18 1.356 . S
C20 C21 1.348 . S
C21 C16 1.353 . S
C21 C20 1.348 . S
C21 H73 0.929 . S
H22 C16 0.930 . S
H23 C19 0.930 . S
C24 N25 1.314 . S
C24 C26 1.353 . S
C24 H30 0.930 . S
N25 Li1 1.990 . S
N25 C24 1.314 . S
N25 C28 1.279 . S
C26 C24 1.353 . S
C26 C29 1.348 . S
C26 H74 0.929 . S
C27 C28 1.358 . S
C27 C29 1.356 . S
C27 H75 0.930 . S
C28 N25 1.279 . S
C28 C27 1.358 . S
C28 H31 0.930 . S
C29 C26 1.348 . S
C29 C27 1.356 . S
H30 C24 0.930 . S
H31 C28 0.930 . S
C32 C34 1.348 . S
C32 C35 1.356 . S
C32 O62 1.325 . S
N33 C36 1.314 . S
N33 C37 1.279 . S
C34 C32 1.348 . S
C34 C36 1.353 1_554 S
C34 H76 0.929 . S
C35 C32 1.356 . S
C35 C37 1.358 1_554 S
C35 H77 0.930 . S
C36 N33 1.314 . S
C36 C34 1.353 1_556 S
C36 H78 0.930 . S
C37 N33 1.279 . S
C37 C35 1.358 1_556 S
C37 H79 0.930 . S
C38 C39 1.348 . S
C38 C40 1.356 . S
C38 O63 1.325 . S
C39 C38 1.348 . S
C39 C41 1.353 . S
C39 H80 0.929 . S
C40 C38 1.356 . S
C40 C42 1.358 . S
C40 H81 0.930 . S
C41 C39 1.353 . S
C41 N43 1.314 . S
C41 H82 0.930 . S
C42 C40 1.358 . S
C42 N43 1.279 . S
C42 H83 0.930 . S
N43 C41 1.314 . S
N43 C42 1.279 . S
C44 C46 1.353 . S
C44 N47 1.314 . S
C44 H50 0.930 . S
C45 N47 1.279 . S
C45 C48 1.358 . S
C45 H51 0.930 . S
C46 C44 1.353 . S
C46 C49 1.348 . S
C46 H84 0.929 . S
N47 Li2 1.990 . S
N47 C44 1.314 . S
N47 C45 1.279 . S
C48 C45 1.358 . S
C48 C49 1.356 . S
C48 H85 0.930 1_554 S
C49 C46 1.348 . S
C49 C48 1.356 . S
H50 C44 0.930 . S
H51 C45 0.930 . S
C52 N53 1.314 . S
C52 C54 1.353 . S
C52 H58 0.930 . S
N53 Li3 1.990 . S
N53 C52 1.314 . S
N53 C56 1.279 . S
C54 C52 1.353 . S
C54 C57 1.348 . S
C54 H86 0.929 . S
C55 C56 1.358 . S
C55 C57 1.356 . S
C55 H87 0.930 . S
C56 N53 1.279 . S
C56 C55 1.358 . S
C56 H59 0.930 . S
C57 C54 1.348 . S
C57 C55 1.356 . S
H58 C52 0.930 . S
H59 C56 0.930 . S
O60 Li0 1.956 . S
O60 Li1 1.970 . S
O60 Li2 1.961 . S
O60 C4 1.325 . S
O61 Li0 1.970 . S
O61 Li1 1.956 . S
O61 Li3 1.961 . S
O61 C10 1.325 . S
O62 Li0 1.961 . S
O62 Li2 1.956 . S
O62 Li3 1.970 . S
O62 C32 1.325 . S
O63 Li1 1.961 . S
O63 Li2 1.970 . S
O63 Li3 1.956 . S
O63 C38 1.325 . S
H64 C6 0.929 . S
H65 C7 0.930 . S
H66 C8 0.930 . S
H67 C9 0.930 . S
H68 C11 0.930 . S
H69 C13 0.929 . S
H70 C14 0.930 . S
H71 C15 0.930 . S
H72 C18 0.930 . S
H73 C21 0.929 . S
H74 C26 0.929 . S
H75 C27 0.930 . S
H76 C34 0.929 . S
H77 C35 0.930 . S
H78 C36 0.930 . S
H79 C37 0.930 . S
H80 C39 0.929 . S
H81 C40 0.930 . S
H82 C41 0.930 . S
H83 C42 0.930 . S
H84 C46 0.929 . S
H85 C48 0.930 1_556 S
H86 C54 0.929 . S
H87 C55 0.930 . S
Li88 N105 1.990 . S
Li88 O148 1.956 . S
Li88 O149 1.970 . S
Li88 O150 1.961 . S
Li89 N113 1.990 . S
Li89 O148 1.970 . S
Li89 O149 1.956 . S
Li89 O151 1.961 . S
Li90 N135 1.990 . S
Li90 O148 1.961 . S
Li90 O150 1.956 . S
Li90 O151 1.970 . S
Li91 N141 1.990 . S
Li91 O149 1.961 . S
Li91 O150 1.970 . S
Li91 O151 1.956 . S
C92 C94 1.348 . S
C92 C95 1.356 . S
C92 O148 1.325 . S
N93 C96 1.314 . S
N93 C97 1.279 . S
C94 C92 1.348 . S
C94 C96 1.353 . S
C94 H152 0.929 . S
C95 C92 1.356 . S
C95 C97 1.358 . S
C95 H153 0.930 . S
C96 N93 1.314 . S
C96 C94 1.353 . S
C96 H154 0.930 . S
C97 N93 1.279 . S
C97 C95 1.358 . S
C97 H155 0.930 . S
C98 C101 1.348 . S
C98 C102 1.356 . S
C98 O149 1.325 . S
C99 N100 1.279 . S
C99 C102 1.358 . S
C99 H156 0.930 . S
N100 C99 1.279 . S
N100 C103 1.314 . S
C101 C98 1.348 . S
C101 C103 1.353 . S
C101 H157 0.929 . S
C102 C98 1.356 . S
C102 C99 1.358 . S
C102 H158 0.930 . S
C103 N100 1.314 . S
C103 C101 1.353 . S
C103 H159 0.930 . S
C104 N105 1.314 . S
C104 C109 1.353 . S
C104 H110 0.930 . S
N105 Li88 1.990 . S
N105 C104 1.314 . S
N105 C107 1.279 . S
C106 C107 1.358 . S
C106 C108 1.356 . S
C106 H160 0.930 . S
C107 N105 1.279 . S
C107 C106 1.358 . S
C107 H111 0.930 . S
C108 C106 1.356 . S
C108 C109 1.348 . S
C109 C104 1.353 . S
C109 C108 1.348 . S
C109 H161 0.929 . S
H110 C104 0.930 . S
H111 C107 0.930 . S
C112 N113 1.314 . S
C112 C114 1.353 . S
C112 H118 0.930 . S
N113 Li89 1.990 . S
N113 C112 1.314 . S
N113 C116 1.279 . S
C114 C112 1.353 . S
C114 C117 1.348 . S
C114 H162 0.929 . S
C115 C116 1.358 . S
C115 C117 1.356 . S
C115 H163 0.930 . S
C116 N113 1.279 . S
C116 C115 1.358 . S
C116 H119 0.930 . S
C117 C114 1.348 . S
C117 C115 1.356 . S
H118 C112 0.930 . S
H119 C116 0.930 . S
C120 C122 1.348 . S
C120 C123 1.356 . S
C120 O150 1.325 . S
N121 C124 1.314 . S
N121 C125 1.279 . S
C122 C120 1.348 . S
C122 C124 1.353 . S
C122 H164 0.929 . S
C123 C120 1.356 . S
C123 C125 1.358 . S
C123 H165 0.930 . S
C124 N121 1.314 . S
C124 C122 1.353 . S
C124 H166 0.930 . S
C125 N121 1.279 . S
C125 C123 1.358 . S
C125 H167 0.930 . S
C126 C127 1.348 . S
C126 C128 1.356 . S
C126 O151 1.325 . S
C127 C126 1.348 . S
C127 C129 1.353 . S
C127 H168 0.929 . S
C128 C126 1.356 . S
C128 C130 1.358 . S
C128 H169 0.930 . S
C129 C127 1.353 . S
C129 N131 1.314 . S
C129 H170 0.930 . S
C130 C128 1.358 . S
C130 N131 1.279 . S
C130 H171 0.930 . S
N131 C129 1.314 . S
N131 C130 1.279 . S
C132 C134 1.353 . S
C132 N135 1.314 . S
C132 H138 0.930 . S
C133 N135 1.279 . S
C133 C136 1.358 . S
C133 H139 0.930 . S
C134 C132 1.353 . S
C134 C137 1.348 . S
C134 H172 0.929 . S
N135 Li90 1.990 . S
N135 C132 1.314 . S
N135 C133 1.279 . S
C136 C133 1.358 . S
C136 C137 1.356 . S
C136 H173 0.930 . S
C137 C134 1.348 . S
C137 C136 1.356 . S
H138 C132 0.930 . S
H139 C133 0.930 . S
C140 N141 1.314 . S
C140 C142 1.353 1_455 S
C140 H146 0.930 . S
N141 Li91 1.990 . S
N141 C140 1.314 . S
N141 C144 1.279 . S
C142 C140 1.353 1_655 S
C142 C145 1.348 . S
C142 H174 0.929 . S
C143 C144 1.358 . S
C143 C145 1.356 1_455 S
C143 H175 0.930 . S
C144 N141 1.279 . S
C144 C143 1.358 . S
C144 H147 0.930 . S
C145 C142 1.348 . S
C145 C143 1.356 1_655 S
H146 C140 0.930 . S
H147 C144 0.930 . S
O148 Li88 1.956 . S
O148 Li89 1.970 . S
O148 Li90 1.961 . S
O148 C92 1.325 . S
O149 Li88 1.970 . S
O149 Li89 1.956 . S
O149 Li91 1.961 . S
O149 C98 1.325 . S
O150 Li88 1.961 . S
O150 Li90 1.956 . S
O150 Li91 1.970 . S
O150 C120 1.325 . S
O151 Li89 1.961 . S
O151 Li90 1.970 . S
O151 Li91 1.956 . S
O151 C126 1.325 . S
H152 C94 0.929 . S
H153 C95 0.930 . S
H154 C96 0.930 . S
H155 C97 0.930 . S
H156 C99 0.930 . S
H157 C101 0.929 . S
H158 C102 0.930 . S
H159 C103 0.930 . S
H160 C106 0.930 . S
H161 C109 0.929 . S
H162 C114 0.929 . S
H163 C115 0.930 . S
H164 C122 0.929 . S
H165 C123 0.930 . S
H166 C124 0.930 . S
H167 C125 0.930 . S
H168 C127 0.929 . S
H169 C128 0.930 . S
H170 C129 0.930 . S
H171 C130 0.930 . S
H172 C134 0.929 . S
H173 C136 0.930 . S
H174 C142 0.929 . S
H175 C143 0.930 . S
Li176 N193 1.990 . S
Li176 O236 1.956 . S
Li176 O237 1.970 . S
Li176 O238 1.961 . S
Li177 N201 1.990 . S
Li177 O236 1.970 . S
Li177 O237 1.956 . S
Li177 O239 1.961 . S
Li178 N223 1.990 . S
Li178 O236 1.961 . S
Li178 O238 1.956 . S
Li178 O239 1.970 . S
Li179 N229 1.990 . S
Li179 O237 1.961 . S
Li179 O238 1.970 . S
Li179 O239 1.956 . S
C180 C182 1.348 . S
C180 C183 1.356 . S
C180 O236 1.325 . S
N181 C184 1.314 . S
N181 C185 1.279 . S
C182 C180 1.348 . S
C182 C184 1.353 . S
C182 H240 0.929 . S
C183 C180 1.356 . S
C183 C185 1.358 . S
C183 H241 0.930 . S
C184 N181 1.314 . S
C184 C182 1.353 . S
C184 H242 0.930 . S
C185 N181 1.279 . S
C185 C183 1.358 . S
C185 H243 0.930 . S
C186 C189 1.348 . S
C186 C190 1.356 . S
C186 O237 1.325 . S
C187 N188 1.279 . S
C187 C190 1.358 . S
C187 H244 0.930 . S
N188 C187 1.279 . S
N188 C191 1.314 . S
C189 C186 1.348 . S
C189 C191 1.353 . S
C189 H245 0.929 . S
C190 C186 1.356 . S
C190 C187 1.358 . S
C190 H246 0.930 . S
C191 N188 1.314 . S
C191 C189 1.353 . S
C191 H247 0.930 . S
C192 N193 1.314 . S
C192 C197 1.353 . S
C192 H198 0.930 . S
N193 Li176 1.990 . S
N193 C192 1.314 . S
N193 C195 1.279 . S
C194 C195 1.358 . S
C194 C196 1.356 . S
C194 H248 0.930 . S
C195 N193 1.279 . S
C195 C194 1.358 . S
C195 H199 0.930 . S
C196 C194 1.356 . S
C196 C197 1.348 . S
C197 C192 1.353 . S
C197 C196 1.348 . S
C197 H249 0.929 . S
H198 C192 0.930 . S
H199 C195 0.930 . S
C200 N201 1.314 . S
C200 C202 1.353 . S
C200 H206 0.930 . S
N201 Li177 1.990 . S
N201 C200 1.314 . S
N201 C204 1.279 . S
C202 C200 1.353 . S
C202 C205 1.348 . S
C202 H250 0.929 . S
C203 C204 1.358 . S
C203 C205 1.356 . S
C203 H251 0.930 . S
C204 N201 1.279 . S
C204 C203 1.358 . S
C204 H207 0.930 . S
C205 C202 1.348 . S
C205 C203 1.356 . S
H206 C200 0.930 . S
H207 C204 0.930 . S
C208 C210 1.348 . S
C208 C211 1.356 . S
C208 O238 1.325 . S
N209 C212 1.314 . S
N209 C213 1.279 . S
C210 C208 1.348 . S
C210 C212 1.353 . S
C210 H252 0.929 . S
C211 C208 1.356 . S
C211 C213 1.358 . S
C211 H253 0.930 . S
C212 N209 1.314 . S
C212 C210 1.353 . S
C212 H254 0.930 . S
C213 N209 1.279 . S
C213 C211 1.358 . S
C213 H255 0.930 . S
C214 C215 1.348 . S
C214 C216 1.356 . S
C214 O239 1.325 . S
C215 C214 1.348 . S
C215 C217 1.353 . S
C215 H256 0.929 . S
C216 C214 1.356 . S
C216 C218 1.358 . S
C216 H257 0.930 . S
C217 C215 1.353 . S
C217 N219 1.314 . S
C217 H258 0.930 . S
C218 C216 1.358 . S
C218 N219 1.279 . S
C218 H259 0.930 . S
N219 C217 1.314 . S
N219 C218 1.279 . S
C220 C222 1.353 1_545 S
C220 N223 1.314 . S
C220 H226 0.930 . S
C221 N223 1.279 . S
C221 C224 1.358 . S
C221 H227 0.930 . S
C222 C220 1.353 1_565 S
C222 C225 1.348 . S
C222 H260 0.929 . S
N223 Li178 1.990 . S
N223 C220 1.314 . S
N223 C221 1.279 . S
C224 C221 1.358 . S
C224 C225 1.356 1_545 S
C224 H261 0.930 . S
C225 C222 1.348 . S
C225 C224 1.356 1_565 S
H226 C220 0.930 . S
H227 C221 0.930 . S
C228 N229 1.314 . S
C228 C230 1.353 . S
C228 H234 0.930 . S
N229 Li179 1.990 . S
N229 C228 1.314 . S
N229 C232 1.279 . S
C230 C228 1.353 . S
C230 C233 1.348 . S
C230 H262 0.929 . S
C231 C232 1.358 . S
C231 C233 1.356 . S
C231 H263 0.930 . S
C232 N229 1.279 . S
C232 C231 1.358 . S
C232 H235 0.930 . S
C233 C230 1.348 . S
C233 C231 1.356 . S
H234 C228 0.930 . S
H235 C232 0.930 . S
O236 Li176 1.956 . S
O236 Li177 1.970 . S
O236 Li178 1.961 . S
O236 C180 1.325 . S
O237 Li176 1.970 . S
O237 Li177 1.956 . S
O237 Li179 1.961 . S
O237 C186 1.325 . S
O238 Li176 1.961 . S
O238 Li178 1.956 . S
O238 Li179 1.970 . S
O238 C208 1.325 . S
O239 Li177 1.961 . S
O239 Li178 1.970 . S
O239 Li179 1.956 . S
O239 C214 1.325 . S
H240 C182 0.929 . S
H241 C183 0.930 . S
H242 C184 0.930 . S
H243 C185 0.930 . S
H244 C187 0.930 . S
H245 C189 0.929 . S
H246 C190 0.930 . S
H247 C191 0.930 . S
H248 C194 0.930 . S
H249 C197 0.929 . S
H250 C202 0.929 . S
H251 C203 0.930 . S
H252 C210 0.929 . S
H253 C211 0.930 . S
H254 C212 0.930 . S
H255 C213 0.930 . S
H256 C215 0.929 . S
H257 C216 0.930 . S
H258 C217 0.930 . S
H259 C218 0.930 . S
H260 C222 0.929 . S
H261 C224 0.930 . S
H262 C230 0.929 . S
H263 C231 0.930 . S
Li264 N281 1.990 . S
Li264 O324 1.956 . S
Li264 O325 1.970 . S
Li264 O326 1.961 . S
Li265 N289 1.990 . S
Li265 O324 1.970 . S
Li265 O325 1.956 . S
Li265 O327 1.961 . S
Li266 N311 1.990 . S
Li266 O324 1.961 . S
Li266 O326 1.956 . S
Li266 O327 1.970 . S
Li267 N317 1.990 . S
Li267 O325 1.961 . S
Li267 O326 1.970 . S
Li267 O327 1.956 . S
C268 C270 1.348 . S
C268 C271 1.356 . S
C268 O324 1.325 . S
N269 C272 1.314 . S
N269 C273 1.279 . S
C270 C268 1.348 . S
C270 C272 1.353 . S
C270 H328 0.929 . S
C271 C268 1.356 . S
C271 C273 1.358 . S
C271 H329 0.930 . S
C272 N269 1.314 . S
C272 C270 1.353 . S
C272 H330 0.930 . S
C273 N269 1.279 . S
C273 C271 1.358 . S
C273 H331 0.930 . S
C274 C277 1.348 . S
C274 C278 1.356 . S
C274 O325 1.325 . S
C275 N276 1.279 . S
C275 C278 1.358 . S
C275 H332 0.930 . S
N276 C275 1.279 . S
N276 C279 1.314 . S
C277 C274 1.348 . S
C277 C279 1.353 . S
C277 H333 0.929 . S
C278 C274 1.356 . S
C278 C275 1.358 . S
C278 H334 0.930 . S
C279 N276 1.314 . S
C279 C277 1.353 . S
C279 H335 0.930 . S
C280 N281 1.314 . S
C280 C285 1.353 . S
C280 H286 0.930 . S
N281 Li264 1.990 . S
N281 C280 1.314 . S
N281 C283 1.279 . S
C282 C283 1.358 . S
C282 C284 1.356 . S
C282 H336 0.930 . S
C283 N281 1.279 . S
C283 C282 1.358 . S
C283 H287 0.930 . S
C284 C282 1.356 . S
C284 C285 1.348 . S
C285 C280 1.353 . S
C285 C284 1.348 . S
C285 H337 0.929 . S
H286 C280 0.930 . S
H287 C283 0.930 . S
C288 N289 1.314 . S
C288 C290 1.353 . S
C288 H294 0.930 . S
N289 Li265 1.990 . S
N289 C288 1.314 . S
N289 C292 1.279 . S
C290 C288 1.353 . S
C290 C293 1.348 . S
C290 H338 0.929 . S
C291 C292 1.358 . S
C291 C293 1.356 . S
C291 H339 0.930 . S
C292 N289 1.279 . S
C292 C291 1.358 . S
C292 H295 0.930 . S
C293 C290 1.348 . S
C293 C291 1.356 . S
H294 C288 0.930 . S
H295 C292 0.930 . S
C296 C298 1.348 . S
C296 C299 1.356 . S
C296 O326 1.325 . S
N297 C300 1.314 . S
N297 C301 1.279 . S
C298 C296 1.348 . S
C298 C300 1.353 . S
C298 H340 0.929 . S
C299 C296 1.356 . S
C299 C301 1.358 . S
C299 H341 0.930 . S
C300 N297 1.314 . S
C300 C298 1.353 . S
C300 H342 0.930 . S
C301 N297 1.279 . S
C301 C299 1.358 . S
C301 H343 0.930 . S
C302 C303 1.348 . S
C302 C304 1.356 . S
C302 O327 1.325 . S
C303 C302 1.348 . S
C303 C305 1.353 1_554 S
C303 H344 0.929 . S
C304 C302 1.356 . S
C304 C306 1.358 1_554 S
C304 H345 0.930 . S
C305 C303 1.353 1_556 S
C305 N307 1.314 . S
C305 H346 0.930 . S
C306 C304 1.358 1_556 S
C306 N307 1.279 . S
C306 H347 0.930 . S
N307 C305 1.314 . S
N307 C306 1.279 . S
C308 C310 1.353 . S
C308 N311 1.314 . S
C308 H314 0.930 . S
C309 N311 1.279 . S
C309 C312 1.358 . S
C309 H315 0.930 . S
C310 C308 1.353 . S
C310 C313 1.348 . S
C310 H348 0.929 . S
N311 Li266 1.990 . S
N311 C308 1.314 . S
N311 C309 1.279 . S
C312 C309 1.358 . S
C312 C313 1.356 . S
C312 H349 0.930 . S
C313 C310 1.348 . S
C313 C312 1.356 . S
H314 C308 0.930 . S
H315 C309 0.930 . S
C316 N317 1.314 . S
C316 C318 1.353 . S
C316 H322 0.930 . S
N317 Li267 1.990 . S
N317 C316 1.314 . S
N317 C320 1.279 . S
C318 C316 1.353 . S
C318 C321 1.348 . S
C318 H350 0.929 . S
C319 C320 1.358 . S
C319 C321 1.356 . S
C319 H351 0.930 1_554 S
C320 N317 1.279 . S
C320 C319 1.358 . S
C320 H323 0.930 . S
C321 C318 1.348 . S
C321 C319 1.356 . S
H322 C316 0.930 . S
H323 C320 0.930 . S
O324 Li264 1.956 . S
O324 Li265 1.970 . S
O324 Li266 1.961 . S
O324 C268 1.325 . S
O325 Li264 1.970 . S
O325 Li265 1.956 . S
O325 Li267 1.961 . S
O325 C274 1.325 . S
O326 Li264 1.961 . S
O326 Li266 1.956 . S
O326 Li267 1.970 . S
O326 C296 1.325 . S
O327 Li265 1.961 . S
O327 Li266 1.970 . S
O327 Li267 1.956 . S
O327 C302 1.325 . S
H328 C270 0.929 . S
H329 C271 0.930 . S
H330 C272 0.930 . S
H331 C273 0.930 . S
H332 C275 0.930 . S
H333 C277 0.929 . S
H334 C278 0.930 . S
H335 C279 0.930 . S
H336 C282 0.930 . S
H337 C285 0.929 . S
H338 C290 0.929 . S
H339 C291 0.930 . S
H340 C298 0.929 . S
H341 C299 0.930 . S
H342 C300 0.930 . S
H343 C301 0.930 . S
H344 C303 0.929 . S
H345 C304 0.930 . S
H346 C305 0.930 . S
H347 C306 0.930 . S
H348 C310 0.929 . S
H349 C312 0.930 . S
H350 C318 0.929 . S
H351 C319 0.930 1_556 S
Li352 N369 1.990 . S
Li352 O412 1.956 . S
Li352 O413 1.970 . S
Li352 O414 1.961 . S
Li353 N377 1.990 . S
Li353 O412 1.970 . S
Li353 O413 1.956 . S
Li353 O415 1.961 . S
Li354 N399 1.990 . S
Li354 O412 1.961 . S
Li354 O414 1.956 . S
Li354 O415 1.970 . S
Li355 N405 1.990 . S
Li355 O413 1.961 . S
Li355 O414 1.970 . S
Li355 O415 1.956 . S
C356 C358 1.348 . S
C356 C359 1.356 . S
C356 O412 1.325 . S
N357 C360 1.314 . S
N357 C361 1.279 . S
C358 C356 1.348 . S
C358 C360 1.353 . S
C358 H416 0.929 . S
C359 C356 1.356 . S
C359 C361 1.358 . S
C359 H417 0.930 . S
C360 N357 1.314 . S
C360 C358 1.353 . S
C360 H418 0.930 . S
C361 N357 1.279 . S
C361 C359 1.358 . S
C361 H419 0.930 . S
C362 C365 1.348 . S
C362 C366 1.356 . S
C362 O413 1.325 . S
C363 N364 1.279 . S
C363 C366 1.358 . S
C363 H420 0.930 . S
N364 C363 1.279 . S
N364 C367 1.314 . S
C365 C362 1.348 . S
C365 C367 1.353 . S
C365 H421 0.929 . S
C366 C362 1.356 . S
C366 C363 1.358 . S
C366 H422 0.930 . S
C367 N364 1.314 . S
C367 C365 1.353 . S
C367 H423 0.930 . S
C368 N369 1.314 . S
C368 C373 1.353 . S
C368 H374 0.930 . S
N369 Li352 1.990 . S
N369 C368 1.314 . S
N369 C371 1.279 . S
C370 C371 1.358 . S
C370 C372 1.356 . S
C370 H424 0.930 . S
C371 N369 1.279 . S
C371 C370 1.358 . S
C371 H375 0.930 . S
C372 C370 1.356 . S
C372 C373 1.348 . S
C373 C368 1.353 . S
C373 C372 1.348 . S
C373 H425 0.929 . S
H374 C368 0.930 . S
H375 C371 0.930 . S
C376 N377 1.314 . S
C376 C378 1.353 . S
C376 H382 0.930 . S
N377 Li353 1.990 . S
N377 C376 1.314 . S
N377 C380 1.279 . S
C378 C376 1.353 . S
C378 C381 1.348 . S
C378 H426 0.929 . S
C379 C380 1.358 . S
C379 C381 1.356 . S
C379 H427 0.930 . S
C380 N377 1.279 . S
C380 C379 1.358 . S
C380 H383 0.930 . S
C381 C378 1.348 . S
C381 C379 1.356 . S
H382 C376 0.930 . S
H383 C380 0.930 . S
C384 C386 1.348 . S
C384 C387 1.356 . S
C384 O414 1.325 . S
N385 C388 1.314 . S
N385 C389 1.279 . S
C386 C384 1.348 . S
C386 C388 1.353 . S
C386 H428 0.929 . S
C387 C384 1.356 . S
C387 C389 1.358 . S
C387 H429 0.930 . S
C388 N385 1.314 . S
C388 C386 1.353 . S
C388 H430 0.930 . S
C389 N385 1.279 . S
C389 C387 1.358 . S
C389 H431 0.930 . S
C390 C391 1.348 . S
C390 C392 1.356 . S
C390 O415 1.325 . S
C391 C390 1.348 . S
C391 C393 1.353 . S
C391 H432 0.929 . S
C392 C390 1.356 . S
C392 C394 1.358 . S
C392 H433 0.930 . S
C393 C391 1.353 . S
C393 N395 1.314 . S
C393 H434 0.930 . S
C394 C392 1.358 . S
C394 N395 1.279 . S
C394 H435 0.930 . S
N395 C393 1.314 . S
N395 C394 1.279 . S
C396 C398 1.353 . S
C396 N399 1.314 . S
C396 H402 0.930 . S
C397 N399 1.279 . S
C397 C400 1.358 . S
C397 H403 0.930 . S
C398 C396 1.353 . S
C398 C401 1.348 . S
C398 H436 0.929 . S
N399 Li354 1.990 . S
N399 C396 1.314 . S
N399 C397 1.279 . S
C400 C397 1.358 . S
C400 C401 1.356 . S
C400 H437 0.930 . S
C401 C398 1.348 . S
C401 C400 1.356 . S
H402 C396 0.930 . S
H403 C397 0.930 . S
C404 N405 1.314 . S
C404 C406 1.353 1_655 S
C404 H410 0.930 . S
N405 Li355 1.990 . S
N405 C404 1.314 . S
N405 C408 1.279 . S
C406 C404 1.353 1_455 S
C406 C409 1.348 . S
C406 H438 0.929 . S
C407 C408 1.358 . S
C407 C409 1.356 1_655 S
C407 H439 0.930 . S
C408 N405 1.279 . S
C408 C407 1.358 . S
C408 H411 0.930 . S
C409 C406 1.348 . S
C409 C407 1.356 1_455 S
H410 C404 0.930 . S
H411 C408 0.930 . S
O412 Li352 1.956 . S
O412 Li353 1.970 . S
O412 Li354 1.961 . S
O412 C356 1.325 . S
O413 Li352 1.970 . S
O413 Li353 1.956 . S
O413 Li355 1.961 . S
O413 C362 1.325 . S
O414 Li352 1.961 . S
O414 Li354 1.956 . S
O414 Li355 1.970 . S
O414 C384 1.325 . S
O415 Li353 1.961 . S
O415 Li354 1.970 . S
O415 Li355 1.956 . S
O415 C390 1.325 . S
H416 C358 0.929 . S
H417 C359 0.930 . S
H418 C360 0.930 . S
H419 C361 0.930 . S
H420 C363 0.930 . S
H421 C365 0.929 . S
H422 C366 0.930 . S
H423 C367 0.930 . S
H424 C370 0.930 . S
H425 C373 0.929 . S
H426 C378 0.929 . S
H427 C379 0.930 . S
H428 C386 0.929 . S
H429 C387 0.930 . S
H430 C388 0.930 . S
H431 C389 0.930 . S
H432 C391 0.929 . S
H433 C392 0.930 . S
H434 C393 0.930 . S
H435 C394 0.930 . S
H436 C398 0.929 . S
H437 C400 0.930 . S
H438 C406 0.929 . S
H439 C407 0.930 . S
Li440 N457 1.990 . S
Li440 O500 1.956 . S
Li440 O501 1.970 . S
Li440 O502 1.961 . S
Li441 N465 1.990 . S
Li441 O500 1.970 . S
Li441 O501 1.956 . S
Li441 O503 1.961 . S
Li442 N487 1.990 . S
Li442 O500 1.961 . S
Li442 O502 1.956 . S
Li442 O503 1.970 . S
Li443 N493 1.990 . S
Li443 O501 1.961 . S
Li443 O502 1.970 . S
Li443 O503 1.956 . S
C444 C446 1.348 . S
C444 C447 1.356 . S
C444 O500 1.325 . S
N445 C448 1.314 . S
N445 C449 1.279 . S
C446 C444 1.348 . S
C446 C448 1.353 . S
C446 H504 0.929 . S
C447 C444 1.356 . S
C447 C449 1.358 . S
C447 H505 0.930 . S
C448 N445 1.314 . S
C448 C446 1.353 . S
C448 H506 0.930 . S
C449 N445 1.279 . S
C449 C447 1.358 . S
C449 H507 0.930 . S
C450 C453 1.348 . S
C450 C454 1.356 . S
C450 O501 1.325 . S
C451 N452 1.279 . S
C451 C454 1.358 . S
C451 H508 0.930 . S
N452 C451 1.279 . S
N452 C455 1.314 . S
C453 C450 1.348 . S
C453 C455 1.353 . S
C453 H509 0.929 . S
C454 C450 1.356 . S
C454 C451 1.358 . S
C454 H510 0.930 . S
C455 N452 1.314 . S
C455 C453 1.353 . S
C455 H511 0.930 . S
C456 N457 1.314 . S
C456 C461 1.353 . S
C456 H462 0.930 . S
N457 Li440 1.990 . S
N457 C456 1.314 . S
N457 C459 1.279 . S
C458 C459 1.358 . S
C458 C460 1.356 . S
C458 H512 0.930 . S
C459 N457 1.279 . S
C459 C458 1.358 . S
C459 H463 0.930 . S
C460 C458 1.356 . S
C460 C461 1.348 . S
C461 C456 1.353 . S
C461 C460 1.348 . S
C461 H513 0.929 . S
H462 C456 0.930 . S
H463 C459 0.930 . S
C464 N465 1.314 . S
C464 C466 1.353 . S
C464 H470 0.930 . S
N465 Li441 1.990 . S
N465 C464 1.314 . S
N465 C468 1.279 . S
C466 C464 1.353 . S
C466 C469 1.348 . S
C466 H514 0.929 . S
C467 C468 1.358 . S
C467 C469 1.356 . S
C467 H515 0.930 . S
C468 N465 1.279 . S
C468 C467 1.358 . S
C468 H471 0.930 . S
C469 C466 1.348 . S
C469 C467 1.356 . S
H470 C464 0.930 . S
H471 C468 0.930 . S
C472 C474 1.348 . S
C472 C475 1.356 . S
C472 O502 1.325 . S
N473 C476 1.314 . S
N473 C477 1.279 . S
C474 C472 1.348 . S
C474 C476 1.353 . S
C474 H516 0.929 . S
C475 C472 1.356 . S
C475 C477 1.358 . S
C475 H517 0.930 . S
C476 N473 1.314 . S
C476 C474 1.353 . S
C476 H518 0.930 . S
C477 N473 1.279 . S
C477 C475 1.358 . S
C477 H519 0.930 . S
C478 C479 1.348 . S
C478 C480 1.356 . S
C478 O503 1.325 . S
C479 C478 1.348 . S
C479 C481 1.353 . S
C479 H520 0.929 . S
C480 C478 1.356 . S
C480 C482 1.358 . S
C480 H521 0.930 . S
C481 C479 1.353 . S
C481 N483 1.314 . S
C481 H522 0.930 . S
C482 C480 1.358 . S
C482 N483 1.279 . S
C482 H523 0.930 . S
N483 C481 1.314 . S
N483 C482 1.279 . S
C484 C486 1.353 . S
C484 N487 1.314 . S
C484 H490 0.930 . S
C485 N487 1.279 . S
C485 C488 1.358 . S
C485 H491 0.930 . S
C486 C484 1.353 . S
C486 C489 1.348 . S
C486 H524 0.929 . S
N487 Li442 1.990 . S
N487 C484 1.314 . S
N487 C485 1.279 . S
C488 C485 1.358 . S
C488 C489 1.356 . S
C488 H525 0.930 . S
C489 C486 1.348 . S
C489 C488 1.356 . S
H490 C484 0.930 . S
H491 C485 0.930 . S
C492 N493 1.314 . S
C492 C494 1.353 1_565 S
C492 H498 0.930 . S
N493 Li443 1.990 . S
N493 C492 1.314 . S
N493 C496 1.279 . S
C494 C492 1.353 1_545 S
C494 C497 1.348 . S
C494 H526 0.929 . S
C495 C496 1.358 . S
C495 C497 1.356 1_565 S
C495 H527 0.930 . S
C496 N493 1.279 . S
C496 C495 1.358 . S
C496 H499 0.930 . S
C497 C494 1.348 . S
C497 C495 1.356 1_545 S
H498 C492 0.930 . S
H499 C496 0.930 . S
O500 Li440 1.956 . S
O500 Li441 1.970 . S
O500 Li442 1.961 . S
O500 C444 1.325 . S
O501 Li440 1.970 . S
O501 Li441 1.956 . S
O501 Li443 1.961 . S
O501 C450 1.325 . S
O502 Li440 1.961 . S
O502 Li442 1.956 . S
O502 Li443 1.970 . S
O502 C472 1.325 . S
O503 Li441 1.961 . S
O503 Li442 1.970 . S
O503 Li443 1.956 . S
O503 C478 1.325 . S
H504 C446 0.929 . S
H505 C447 0.930 . S
H506 C448 0.930 . S
H507 C449 0.930 . S
H508 C451 0.930 . S
H509 C453 0.929 . S
H510 C454 0.930 . S
H511 C455 0.930 . S
H512 C458 0.930 . S
H513 C461 0.929 . S
H514 C466 0.929 . S
H515 C467 0.930 . S
H516 C474 0.929 . S
H517 C475 0.930 . S
H518 C476 0.930 . S
H519 C477 0.930 . S
H520 C479 0.929 . S
H521 C480 0.930 . S
H522 C481 0.930 . S
H523 C482 0.930 . S
H524 C486 0.929 . S
H525 C488 0.930 . S
H526 C494 0.929 . S
H527 C495 0.930 . S
Li528 N545 1.990 . S
Li528 O588 1.956 . S
Li528 O589 1.970 . S
Li528 O590 1.961 . S
Li529 N553 1.990 . S
Li529 O588 1.970 . S
Li529 O589 1.956 . S
Li529 O591 1.961 . S
Li530 N575 1.990 . S
Li530 O588 1.961 . S
Li530 O590 1.956 . S
Li530 O591 1.970 . S
Li531 N581 1.990 . S
Li531 O589 1.961 . S
Li531 O590 1.970 . S
Li531 O591 1.956 . S
C532 C534 1.348 . S
C532 C535 1.356 . S
C532 O588 1.325 . S
N533 C536 1.314 . S
N533 C537 1.279 . S
C534 C532 1.348 . S
C534 C536 1.353 . S
C534 H592 0.929 . S
C535 C532 1.356 . S
C535 C537 1.358 . S
C535 H593 0.930 . S
C536 N533 1.314 . S
C536 C534 1.353 . S
C536 H594 0.930 . S
C537 N533 1.279 . S
C537 C535 1.358 . S
C537 H595 0.930 . S
C538 C541 1.348 . S
C538 C542 1.356 . S
C538 O589 1.325 . S
C539 N540 1.279 . S
C539 C542 1.358 . S
C539 H596 0.930 . S
N540 C539 1.279 . S
N540 C543 1.314 . S
C541 C538 1.348 . S
C541 C543 1.353 . S
C541 H597 0.929 . S
C542 C538 1.356 . S
C542 C539 1.358 . S
C542 H598 0.930 . S
C543 N540 1.314 . S
C543 C541 1.353 . S
C543 H599 0.930 . S
C544 N545 1.314 . S
C544 C549 1.353 . S
C544 H550 0.930 . S
N545 Li528 1.990 . S
N545 C544 1.314 . S
N545 C547 1.279 . S
C546 C547 1.358 . S
C546 C548 1.356 . S
C546 H600 0.930 . S
C547 N545 1.279 . S
C547 C546 1.358 . S
C547 H551 0.930 . S
C548 C546 1.356 . S
C548 C549 1.348 . S
C549 C544 1.353 . S
C549 C548 1.348 . S
C549 H601 0.929 . S
H550 C544 0.930 . S
H551 C547 0.930 . S
C552 N553 1.314 . S
C552 C554 1.353 . S
C552 H558 0.930 . S
N553 Li529 1.990 . S
N553 C552 1.314 . S
N553 C556 1.279 . S
C554 C552 1.353 . S
C554 C557 1.348 . S
C554 H602 0.929 . S
C555 C556 1.358 . S
C555 C557 1.356 . S
C555 H603 0.930 . S
C556 N553 1.279 . S
C556 C555 1.358 . S
C556 H559 0.930 . S
C557 C554 1.348 . S
C557 C555 1.356 . S
H558 C552 0.930 . S
H559 C556 0.930 . S
C560 C562 1.348 . S
C560 C563 1.356 . S
C560 O590 1.325 . S
N561 C564 1.314 . S
N561 C565 1.279 . S
C562 C560 1.348 . S
C562 C564 1.353 . S
C562 H604 0.929 . S
C563 C560 1.356 . S
C563 C565 1.358 . S
C563 H605 0.930 . S
C564 N561 1.314 . S
C564 C562 1.353 . S
C564 H606 0.930 . S
C565 N561 1.279 . S
C565 C563 1.358 . S
C565 H607 0.930 . S
C566 C567 1.348 . S
C566 C568 1.356 . S
C566 O591 1.325 . S
C567 C566 1.348 . S
C567 C569 1.353 . S
C567 H608 0.929 . S
C568 C566 1.356 . S
C568 C570 1.358 . S
C568 H609 0.930 . S
C569 C567 1.353 . S
C569 N571 1.314 . S
C569 H610 0.930 . S
C570 C568 1.358 . S
C570 N571 1.279 . S
C570 H611 0.930 . S
N571 C569 1.314 . S
N571 C570 1.279 . S
C572 C574 1.353 . S
C572 N575 1.314 . S
C572 H578 0.930 . S
C573 N575 1.279 . S
C573 C576 1.358 . S
C573 H579 0.930 . S
C574 C572 1.353 . S
C574 C577 1.348 . S
C574 H612 0.929 . S
N575 Li530 1.990 . S
N575 C572 1.314 . S
N575 C573 1.279 . S
C576 C573 1.358 . S
C576 C577 1.356 . S
C576 H613 0.930 . S
C577 C574 1.348 . S
C577 C576 1.356 . S
H578 C572 0.930 . S
H579 C573 0.930 . S
C580 N581 1.314 . S
C580 C582 1.353 . S
C580 H586 0.930 . S
N581 Li531 1.990 . S
N581 C580 1.314 . S
N581 C584 1.279 . S
C582 C580 1.353 . S
C582 C585 1.348 . S
C582 H614 0.929 . S
C583 C584 1.358 . S
C583 C585 1.356 . S
C583 H615 0.930 . S
C584 N581 1.279 . S
C584 C583 1.358 . S
C584 H587 0.930 . S
C585 C582 1.348 . S
C585 C583 1.356 . S
H586 C580 0.930 . S
H587 C584 0.930 . S
O588 Li528 1.956 . S
O588 Li529 1.970 . S
O588 Li530 1.961 . S
O588 C532 1.325 . S
O589 Li528 1.970 . S
O589 Li529 1.956 . S
O589 Li531 1.961 . S
O589 C538 1.325 . S
O590 Li528 1.961 . S
O590 Li530 1.956 . S
O590 Li531 1.970 . S
O590 C560 1.325 . S
O591 Li529 1.961 . S
O591 Li530 1.970 . S
O591 Li531 1.956 . S
O591 C566 1.325 . S
H592 C534 0.929 . S
H593 C535 0.930 . S
H594 C536 0.930 . S
H595 C537 0.930 . S
H596 C539 0.930 . S
H597 C541 0.929 . S
H598 C542 0.930 . S
H599 C543 0.930 . S
H600 C546 0.930 . S
H601 C549 0.929 . S
H602 C554 0.929 . S
H603 C555 0.930 . S
H604 C562 0.929 . S
H605 C563 0.930 . S
H606 C564 0.930 . S
H607 C565 0.930 . S
H608 C567 0.929 . S
H609 C568 0.930 . S
H610 C569 0.930 . S
H611 C570 0.930 . S
H612 C574 0.929 . S
H613 C576 0.930 . S
H614 C582 0.929 . S
H615 C583 0.930 . S
Li616 N633 1.990 . S
Li616 O676 1.956 . S
Li616 O677 1.970 . S
Li616 O678 1.961 . S
Li617 N641 1.990 . S
Li617 O676 1.970 . S
Li617 O677 1.956 . S
Li617 O679 1.961 . S
Li618 N663 1.990 . S
Li618 O676 1.961 . S
Li618 O678 1.956 . S
Li618 O679 1.970 . S
Li619 N669 1.990 . S
Li619 O677 1.961 . S
Li619 O678 1.970 . S
Li619 O679 1.956 . S
C620 C622 1.348 . S
C620 C623 1.356 . S
C620 O676 1.325 . S
N621 C624 1.314 . S
N621 C625 1.279 . S
C622 C620 1.348 . S
C622 C624 1.353 1_556 S
C622 H680 0.929 . S
C623 C620 1.356 . S
C623 C625 1.358 1_556 S
C623 H681 0.930 . S
C624 N621 1.314 . S
C624 C622 1.353 1_554 S
C624 H682 0.930 . S
C625 N621 1.279 . S
C625 C623 1.358 1_554 S
C625 H683 0.930 . S
C626 C629 1.348 . S
C626 C630 1.356 . S
C626 O677 1.325 . S
C627 N628 1.279 . S
C627 C630 1.358 . S
C627 H684 0.930 . S
N628 C627 1.279 . S
N628 C631 1.314 . S
C629 C626 1.348 . S
C629 C631 1.353 . S
C629 H685 0.929 . S
C630 C626 1.356 . S
C630 C627 1.358 . S
C630 H686 0.930 . S
C631 N628 1.314 . S
C631 C629 1.353 . S
C631 H687 0.930 . S
C632 N633 1.314 . S
C632 C637 1.353 . S
C632 H638 0.930 . S
N633 Li616 1.990 . S
N633 C632 1.314 . S
N633 C635 1.279 . S
C634 C635 1.358 . S
C634 C636 1.356 . S
C634 H688 0.930 1_556 S
C635 N633 1.279 . S
C635 C634 1.358 . S
C635 H639 0.930 . S
C636 C634 1.356 . S
C636 C637 1.348 . S
C637 C632 1.353 . S
C637 C636 1.348 . S
C637 H689 0.929 . S
H638 C632 0.930 . S
H639 C635 0.930 . S
C640 N641 1.314 . S
C640 C642 1.353 1_455 S
C640 H646 0.930 . S
N641 Li617 1.990 . S
N641 C640 1.314 . S
N641 C644 1.279 . S
C642 C640 1.353 1_655 S
C642 C645 1.348 . S
C642 H690 0.929 . S
C643 C644 1.358 . S
C643 C645 1.356 1_455 S
C643 H691 0.930 . S
C644 N641 1.279 . S
C644 C643 1.358 . S
C644 H647 0.930 . S
C645 C642 1.348 . S
C645 C643 1.356 1_655 S
H646 C640 0.930 . S
H647 C644 0.930 . S
C648 C650 1.348 . S
C648 C651 1.356 . S
C648 O678 1.325 . S
N649 C652 1.314 . S
N649 C653 1.279 . S
C650 C648 1.348 . S
C650 C652 1.353 . S
C650 H692 0.929 . S
C651 C648 1.356 . S
C651 C653 1.358 . S
C651 H693 0.930 . S
C652 N649 1.314 . S
C652 C650 1.353 . S
C652 H694 0.930 . S
C653 N649 1.279 . S
C653 C651 1.358 . S
C653 H695 0.930 . S
C654 C655 1.348 . S
C654 C656 1.356 . S
C654 O679 1.325 . S
C655 C654 1.348 . S
C655 C657 1.353 . S
C655 H696 0.929 . S
C656 C654 1.356 . S
C656 C658 1.358 . S
C656 H697 0.930 . S
C657 C655 1.353 . S
C657 N659 1.314 . S
C657 H698 0.930 . S
C658 C656 1.358 . S
C658 N659 1.279 . S
C658 H699 0.930 . S
N659 C657 1.314 . S
N659 C658 1.279 . S
C660 C662 1.353 . S
C660 N663 1.314 . S
C660 H666 0.930 . S
C661 N663 1.279 . S
C661 C664 1.358 . S
C661 H667 0.930 . S
C662 C660 1.353 . S
C662 C665 1.348 . S
C662 H700 0.929 . S
N663 Li618 1.990 . S
N663 C660 1.314 . S
N663 C661 1.279 . S
C664 C661 1.358 . S
C664 C665 1.356 . S
C664 H701 0.930 . S
C665 C662 1.348 . S
C665 C664 1.356 . S
H666 C660 0.930 . S
H667 C661 0.930 . S
C668 N669 1.314 . S
C668 C670 1.353 . S
C668 H674 0.930 . S
N669 Li619 1.990 . S
N669 C668 1.314 . S
N669 C672 1.279 . S
C670 C668 1.353 . S
C670 C673 1.348 . S
C670 H702 0.929 . S
C671 C672 1.358 . S
C671 C673 1.356 . S
C671 H703 0.930 . S
C672 N669 1.279 . S
C672 C671 1.358 . S
C672 H675 0.930 . S
C673 C670 1.348 . S
C673 C671 1.356 . S
H674 C668 0.930 . S
H675 C672 0.930 . S
O676 Li616 1.956 . S
O676 Li617 1.970 . S
O676 Li618 1.961 . S
O676 C620 1.325 . S
O677 Li616 1.970 . S
O677 Li617 1.956 . S
O677 Li619 1.961 . S
O677 C626 1.325 . S
O678 Li616 1.961 . S
O678 Li618 1.956 . S
O678 Li619 1.970 . S
O678 C648 1.325 . S
O679 Li617 1.961 . S
O679 Li618 1.970 . S
O679 Li619 1.956 . S
O679 C654 1.325 . S
H680 C622 0.929 . S
H681 C623 0.930 . S
H682 C624 0.930 . S
H683 C625 0.930 . S
H684 C627 0.930 . S
H685 C629 0.929 . S
H686 C630 0.930 . S
H687 C631 0.930 . S
H688 C634 0.930 1_554 S
H689 C637 0.929 . S
H690 C642 0.929 . S
H691 C643 0.930 . S
H692 C650 0.929 . S
H693 C651 0.930 . S
H694 C652 0.930 . S
H695 C653 0.930 . S
H696 C655 0.929 . S
H697 C656 0.930 . S
H698 C657 0.930 . S
H699 C658 0.930 . S
H700 C662 0.929 . S
H701 C664 0.930 . S
H702 C670 0.929 . S
H703 C671 0.930 . S
Li704 N721 1.990 . S
Li704 O764 1.956 . S
Li704 O765 1.970 . S
Li704 O766 1.961 . S
Li705 N729 1.990 . S
Li705 O764 1.970 . S
Li705 O765 1.956 . S
Li705 O767 1.961 . S
Li706 N751 1.990 . S
Li706 O764 1.961 . S
Li706 O766 1.956 . S
Li706 O767 1.970 . S
Li707 N757 1.990 . S
Li707 O765 1.961 . S
Li707 O766 1.970 . S
Li707 O767 1.956 . S
C708 C710 1.348 . S
C708 C711 1.356 . S
C708 O764 1.325 . S
N709 C712 1.314 . S
N709 C713 1.279 . S
C710 C708 1.348 . S
C710 C712 1.353 . S
C710 H768 0.929 . S
C711 C708 1.356 . S
C711 C713 1.358 . S
C711 H769 0.930 . S
C712 N709 1.314 . S
C712 C710 1.353 . S
C712 H770 0.930 . S
C713 N709 1.279 . S
C713 C711 1.358 . S
C713 H771 0.930 . S
C714 C717 1.348 . S
C714 C718 1.356 . S
C714 O765 1.325 . S
C715 N716 1.279 . S
C715 C718 1.358 . S
C715 H772 0.930 . S
N716 C715 1.279 . S
N716 C719 1.314 . S
C717 C714 1.348 . S
C717 C719 1.353 . S
C717 H773 0.929 . S
C718 C714 1.356 . S
C718 C715 1.358 . S
C718 H774 0.930 . S
C719 N716 1.314 . S
C719 C717 1.353 . S
C719 H775 0.930 . S
C720 N721 1.314 . S
C720 C725 1.353 1_545 S
C720 H726 0.930 . S
N721 Li704 1.990 . S
N721 C720 1.314 . S
N721 C723 1.279 . S
C722 C723 1.358 . S
C722 C724 1.356 1_545 S
C722 H776 0.930 . S
C723 N721 1.279 . S
C723 C722 1.358 . S
C723 H727 0.930 . S
C724 C722 1.356 1_565 S
C724 C725 1.348 . S
C725 C720 1.353 1_565 S
C725 C724 1.348 . S
C725 H777 0.929 . S
H726 C720 0.930 . S
H727 C723 0.930 . S
C728 N729 1.314 . S
C728 C730 1.353 . S
C728 H734 0.930 . S
N729 Li705 1.990 . S
N729 C728 1.314 . S
N729 C732 1.279 . S
C730 C728 1.353 . S
C730 C733 1.348 . S
C730 H778 0.929 . S
C731 C732 1.358 . S
C731 C733 1.356 . S
C731 H779 0.930 . S
C732 N729 1.279 . S
C732 C731 1.358 . S
C732 H735 0.930 . S
C733 C730 1.348 . S
C733 C731 1.356 . S
H734 C728 0.930 . S
H735 C732 0.930 . S
C736 C738 1.348 . S
C736 C739 1.356 . S
C736 O766 1.325 . S
N737 C740 1.314 . S
N737 C741 1.279 . S
C738 C736 1.348 . S
C738 C740 1.353 . S
C738 H780 0.929 . S
C739 C736 1.356 . S
C739 C741 1.358 . S
C739 H781 0.930 . S
C740 N737 1.314 . S
C740 C738 1.353 . S
C740 H782 0.930 . S
C741 N737 1.279 . S
C741 C739 1.358 . S
C741 H783 0.930 . S
C742 C743 1.348 . S
C742 C744 1.356 . S
C742 O767 1.325 . S
C743 C742 1.348 . S
C743 C745 1.353 . S
C743 H784 0.929 . S
C744 C742 1.356 . S
C744 C746 1.358 . S
C744 H785 0.930 . S
C745 C743 1.353 . S
C745 N747 1.314 . S
C745 H786 0.930 . S
C746 C744 1.358 . S
C746 N747 1.279 . S
C746 H787 0.930 . S
N747 C745 1.314 . S
N747 C746 1.279 . S
C748 C750 1.353 . S
C748 N751 1.314 . S
C748 H754 0.930 . S
C749 N751 1.279 . S
C749 C752 1.358 . S
C749 H755 0.930 . S
C750 C748 1.353 . S
C750 C753 1.348 . S
C750 H788 0.929 . S
N751 Li706 1.990 . S
N751 C748 1.314 . S
N751 C749 1.279 . S
C752 C749 1.358 . S
C752 C753 1.356 . S
C752 H789 0.930 . S
C753 C750 1.348 . S
C753 C752 1.356 . S
H754 C748 0.930 . S
H755 C749 0.930 . S
C756 N757 1.314 . S
C756 C758 1.353 . S
C756 H762 0.930 . S
N757 Li707 1.990 . S
N757 C756 1.314 . S
N757 C760 1.279 . S
C758 C756 1.353 . S
C758 C761 1.348 . S
C758 H790 0.929 . S
C759 C760 1.358 . S
C759 C761 1.356 . S
C759 H791 0.930 . S
C760 N757 1.279 . S
C760 C759 1.358 . S
C760 H763 0.930 . S
C761 C758 1.348 . S
C761 C759 1.356 . S
H762 C756 0.930 . S
H763 C760 0.930 . S
O764 Li704 1.956 . S
O764 Li705 1.970 . S
O764 Li706 1.961 . S
O764 C708 1.325 . S
O765 Li704 1.970 . S
O765 Li705 1.956 . S
O765 Li707 1.961 . S
O765 C714 1.325 . S
O766 Li704 1.961 . S
O766 Li706 1.956 . S
O766 Li707 1.970 . S
O766 C736 1.325 . S
O767 Li705 1.961 . S
O767 Li706 1.970 . S
O767 Li707 1.956 . S
O767 C742 1.325 . S
H768 C710 0.929 . S
H769 C711 0.930 . S
H770 C712 0.930 . S
H771 C713 0.930 . S
H772 C715 0.930 . S
H773 C717 0.929 . S
H774 C718 0.930 . S
H775 C719 0.930 . S
H776 C722 0.930 . S
H777 C725 0.929 . S
H778 C730 0.929 . S
H779 C731 0.930 . S
H780 C738 0.929 . S
H781 C739 0.930 . S
H782 C740 0.930 . S
H783 C741 0.930 . S
H784 C743 0.929 . S
H785 C744 0.930 . S
H786 C745 0.930 . S
H787 C746 0.930 . S
H788 C750 0.929 . S
H789 C752 0.930 . S
H790 C758 0.929 . S
H791 C759 0.930 . S
Li792 N809 1.990 . S
Li792 O852 1.956 . S
Li792 O853 1.970 . S
Li792 O854 1.961 . S
Li793 N817 1.990 . S
Li793 O852 1.970 . S
Li793 O853 1.956 . S
Li793 O855 1.961 . S
Li794 N839 1.990 . S
Li794 O852 1.961 . S
Li794 O854 1.956 . S
Li794 O855 1.970 . S
Li795 N845 1.990 . S
Li795 O853 1.961 . S
Li795 O854 1.970 . S
Li795 O855 1.956 . S
C796 C798 1.348 . S
C796 C799 1.356 . S
C796 O852 1.325 . S
N797 C800 1.314 . S
N797 C801 1.279 . S
C798 C796 1.348 . S
C798 C800 1.353 . S
C798 H856 0.929 . S
C799 C796 1.356 . S
C799 C801 1.358 . S
C799 H857 0.930 . S
C800 N797 1.314 . S
C800 C798 1.353 . S
C800 H858 0.930 . S
C801 N797 1.279 . S
C801 C799 1.358 . S
C801 H859 0.930 . S
C802 C805 1.348 . S
C802 C806 1.356 . S
C802 O853 1.325 . S
C803 N804 1.279 . S
C803 C806 1.358 . S
C803 H860 0.930 . S
N804 C803 1.279 . S
N804 C807 1.314 . S
C805 C802 1.348 . S
C805 C807 1.353 . S
C805 H861 0.929 . S
C806 C802 1.356 . S
C806 C803 1.358 . S
C806 H862 0.930 . S
C807 N804 1.314 . S
C807 C805 1.353 . S
C807 H863 0.930 . S
C808 N809 1.314 . S
C808 C813 1.353 . S
C808 H814 0.930 . S
N809 Li792 1.990 . S
N809 C808 1.314 . S
N809 C811 1.279 . S
C810 C811 1.358 . S
C810 C812 1.356 . S
C810 H864 0.930 . S
C811 N809 1.279 . S
C811 C810 1.358 . S
C811 H815 0.930 . S
C812 C810 1.356 . S
C812 C813 1.348 . S
C813 C808 1.353 . S
C813 C812 1.348 . S
C813 H865 0.929 . S
H814 C808 0.930 . S
H815 C811 0.930 . S
C816 N817 1.314 . S
C816 C818 1.353 . S
C816 H822 0.930 . S
N817 Li793 1.990 . S
N817 C816 1.314 . S
N817 C820 1.279 . S
C818 C816 1.353 . S
C818 C821 1.348 . S
C818 H866 0.929 . S
C819 C820 1.358 . S
C819 C821 1.356 . S
C819 H867 0.930 . S
C820 N817 1.279 . S
C820 C819 1.358 . S
C820 H823 0.930 . S
C821 C818 1.348 . S
C821 C819 1.356 . S
H822 C816 0.930 . S
H823 C820 0.930 . S
C824 C826 1.348 . S
C824 C827 1.356 . S
C824 O854 1.325 . S
N825 C828 1.314 . S
N825 C829 1.279 . S
C826 C824 1.348 . S
C826 C828 1.353 . S
C826 H868 0.929 . S
C827 C824 1.356 . S
C827 C829 1.358 . S
C827 H869 0.930 . S
C828 N825 1.314 . S
C828 C826 1.353 . S
C828 H870 0.930 . S
C829 N825 1.279 . S
C829 C827 1.358 . S
C829 H871 0.930 . S
C830 C831 1.348 . S
C830 C832 1.356 . S
C830 O855 1.325 . S
C831 C830 1.348 . S
C831 C833 1.353 . S
C831 H872 0.929 . S
C832 C830 1.356 . S
C832 C834 1.358 . S
C832 H873 0.930 . S
C833 C831 1.353 . S
C833 N835 1.314 . S
C833 H874 0.930 . S
C834 C832 1.358 . S
C834 N835 1.279 . S
C834 H875 0.930 . S
N835 C833 1.314 . S
N835 C834 1.279 . S
C836 C838 1.353 . S
C836 N839 1.314 . S
C836 H842 0.930 . S
C837 N839 1.279 . S
C837 C840 1.358 . S
C837 H843 0.930 . S
C838 C836 1.353 . S
C838 C841 1.348 . S
C838 H876 0.929 . S
N839 Li794 1.990 . S
N839 C836 1.314 . S
N839 C837 1.279 . S
C840 C837 1.358 . S
C840 C841 1.356 . S
C840 H877 0.930 . S
C841 C838 1.348 . S
C841 C840 1.356 . S
H842 C836 0.930 . S
H843 C837 0.930 . S
C844 N845 1.314 . S
C844 C846 1.353 . S
C844 H850 0.930 . S
N845 Li795 1.990 . S
N845 C844 1.314 . S
N845 C848 1.279 . S
C846 C844 1.353 . S
C846 C849 1.348 . S
C846 H878 0.929 . S
C847 C848 1.358 . S
C847 C849 1.356 . S
C847 H879 0.930 . S
C848 N845 1.279 . S
C848 C847 1.358 . S
C848 H851 0.930 . S
C849 C846 1.348 . S
C849 C847 1.356 . S
H850 C844 0.930 . S
H851 C848 0.930 . S
O852 Li792 1.956 . S
O852 Li793 1.970 . S
O852 Li794 1.961 . S
O852 C796 1.325 . S
O853 Li792 1.970 . S
O853 Li793 1.956 . S
O853 Li795 1.961 . S
O853 C802 1.325 . S
O854 Li792 1.961 . S
O854 Li794 1.956 . S
O854 Li795 1.970 . S
O854 C824 1.325 . S
O855 Li793 1.961 . S
O855 Li794 1.970 . S
O855 Li795 1.956 . S
O855 C830 1.325 . S
H856 C798 0.929 . S
H857 C799 0.930 . S
H858 C800 0.930 . S
H859 C801 0.930 . S
H860 C803 0.930 . S
H861 C805 0.929 . S
H862 C806 0.930 . S
H863 C807 0.930 . S
H864 C810 0.930 . S
H865 C813 0.929 . S
H866 C818 0.929 . S
H867 C819 0.930 . S
H868 C826 0.929 . S
H869 C827 0.930 . S
H870 C828 0.930 . S
H871 C829 0.930 . S
H872 C831 0.929 . S
H873 C832 0.930 . S
H874 C833 0.930 . S
H875 C834 0.930 . S
H876 C838 0.929 . S
H877 C840 0.930 . S
H878 C846 0.929 . S
H879 C847 0.930 . S
Li880 N897 1.990 . S
Li880 O940 1.956 . S
Li880 O941 1.970 . S
Li880 O942 1.961 . S
Li881 N905 1.990 . S
Li881 O940 1.970 . S
Li881 O941 1.956 . S
Li881 O943 1.961 . S
Li882 N927 1.990 . S
Li882 O940 1.961 . S
Li882 O942 1.956 . S
Li882 O943 1.970 . S
Li883 N933 1.990 . S
Li883 O941 1.961 . S
Li883 O942 1.970 . S
Li883 O943 1.956 . S
C884 C886 1.348 . S
C884 C887 1.356 . S
C884 O940 1.325 . S
N885 C888 1.314 . S
N885 C889 1.279 . S
C886 C884 1.348 . S
C886 C888 1.353 1_556 S
C886 H944 0.929 . S
C887 C884 1.356 . S
C887 C889 1.358 1_556 S
C887 H945 0.930 . S
C888 N885 1.314 . S
C888 C886 1.353 1_554 S
C888 H946 0.930 . S
C889 N885 1.279 . S
C889 C887 1.358 1_554 S
C889 H947 0.930 . S
C890 C893 1.348 . S
C890 C894 1.356 . S
C890 O941 1.325 . S
C891 N892 1.279 . S
C891 C894 1.358 . S
C891 H948 0.930 . S
N892 C891 1.279 . S
N892 C895 1.314 . S
C893 C890 1.348 . S
C893 C895 1.353 . S
C893 H949 0.929 . S
C894 C890 1.356 . S
C894 C891 1.358 . S
C894 H950 0.930 . S
C895 N892 1.314 . S
C895 C893 1.353 . S
C895 H951 0.930 . S
C896 N897 1.314 . S
C896 C901 1.353 . S
C896 H902 0.930 . S
N897 Li880 1.990 . S
N897 C896 1.314 . S
N897 C899 1.279 . S
C898 C899 1.358 . S
C898 C900 1.356 . S
C898 H952 0.930 1_556 S
C899 N897 1.279 . S
C899 C898 1.358 . S
C899 H903 0.930 . S
C900 C898 1.356 . S
C900 C901 1.348 . S
C901 C896 1.353 . S
C901 C900 1.348 . S
C901 H953 0.929 . S
H902 C896 0.930 . S
H903 C899 0.930 . S
C904 N905 1.314 . S
C904 C906 1.353 1_655 S
C904 H910 0.930 . S
N905 Li881 1.990 . S
N905 C904 1.314 . S
N905 C908 1.279 . S
C906 C904 1.353 1_455 S
C906 C909 1.348 . S
C906 H954 0.929 . S
C907 C908 1.358 . S
C907 C909 1.356 1_655 S
C907 H955 0.930 . S
C908 N905 1.279 . S
C908 C907 1.358 . S
C908 H911 0.930 . S
C909 C906 1.348 . S
C909 C907 1.356 1_455 S
H910 C904 0.930 . S
H911 C908 0.930 . S
C912 C914 1.348 . S
C912 C915 1.356 . S
C912 O942 1.325 . S
N913 C916 1.314 . S
N913 C917 1.279 . S
C914 C912 1.348 . S
C914 C916 1.353 . S
C914 H956 0.929 . S
C915 C912 1.356 . S
C915 C917 1.358 . S
C915 H957 0.930 . S
C916 N913 1.314 . S
C916 C914 1.353 . S
C916 H958 0.930 . S
C917 N913 1.279 . S
C917 C915 1.358 . S
C917 H959 0.930 . S
C918 C919 1.348 . S
C918 C920 1.356 . S
C918 O943 1.325 . S
C919 C918 1.348 . S
C919 C921 1.353 . S
C919 H960 0.929 . S
C920 C918 1.356 . S
C920 C922 1.358 . S
C920 H961 0.930 . S
C921 C919 1.353 . S
C921 N923 1.314 . S
C921 H962 0.930 . S
C922 C920 1.358 . S
C922 N923 1.279 . S
C922 H963 0.930 . S
N923 C921 1.314 . S
N923 C922 1.279 . S
C924 C926 1.353 . S
C924 N927 1.314 . S
C924 H930 0.930 . S
C925 N927 1.279 . S
C925 C928 1.358 . S
C925 H931 0.930 . S
C926 C924 1.353 . S
C926 C929 1.348 . S
C926 H964 0.929 . S
N927 Li882 1.990 . S
N927 C924 1.314 . S
N927 C925 1.279 . S
C928 C925 1.358 . S
C928 C929 1.356 . S
C928 H965 0.930 . S
C929 C926 1.348 . S
C929 C928 1.356 . S
H930 C924 0.930 . S
H931 C925 0.930 . S
C932 N933 1.314 . S
C932 C934 1.353 . S
C932 H938 0.930 . S
N933 Li883 1.990 . S
N933 C932 1.314 . S
N933 C936 1.279 . S
C934 C932 1.353 . S
C934 C937 1.348 . S
C934 H966 0.929 . S
C935 C936 1.358 . S
C935 C937 1.356 . S
C935 H967 0.930 . S
C936 N933 1.279 . S
C936 C935 1.358 . S
C936 H939 0.930 . S
C937 C934 1.348 . S
C937 C935 1.356 . S
H938 C932 0.930 . S
H939 C936 0.930 . S
O940 Li880 1.956 . S
O940 Li881 1.970 . S
O940 Li882 1.961 . S
O940 C884 1.325 . S
O941 Li880 1.970 . S
O941 Li881 1.956 . S
O941 Li883 1.961 . S
O941 C890 1.325 . S
O942 Li880 1.961 . S
O942 Li882 1.956 . S
O942 Li883 1.970 . S
O942 C912 1.325 . S
O943 Li881 1.961 . S
O943 Li882 1.970 . S
O943 Li883 1.956 . S
O943 C918 1.325 . S
H944 C886 0.929 . S
H945 C887 0.930 . S
H946 C888 0.930 . S
H947 C889 0.930 . S
H948 C891 0.930 . S
H949 C893 0.929 . S
H950 C894 0.930 . S
H951 C895 0.930 . S
H952 C898 0.930 1_554 S
H953 C901 0.929 . S
H954 C906 0.929 . S
H955 C907 0.930 . S
H956 C914 0.929 . S
H957 C915 0.930 . S
H958 C916 0.930 . S
H959 C917 0.930 . S
H960 C919 0.929 . S
H961 C920 0.930 . S
H962 C921 0.930 . S
H963 C922 0.930 . S
H964 C926 0.929 . S
H965 C928 0.930 . S
H966 C934 0.929 . S
H967 C935 0.930 . S
Li968 N985 1.990 . S
Li968 O1028 1.956 . S
Li968 O1029 1.970 . S
Li968 O1030 1.961 . S
Li969 N993 1.990 . S
Li969 O1028 1.970 . S
Li969 O1029 1.956 . S
Li969 O1031 1.961 . S
Li970 N1015 1.990 . S
Li970 O1028 1.961 . S
Li970 O1030 1.956 . S
Li970 O1031 1.970 . S
Li971 N1021 1.990 . S
Li971 O1029 1.961 . S
Li971 O1030 1.970 . S
Li971 O1031 1.956 . S
C972 C974 1.348 . S
C972 C975 1.356 . S
C972 O1028 1.325 . S
N973 C976 1.314 . S
N973 C977 1.279 . S
C974 C972 1.348 . S
C974 C976 1.353 . S
C974 H1032 0.929 . S
C975 C972 1.356 . S
C975 C977 1.358 . S
C975 H1033 0.930 . S
C976 N973 1.314 . S
C976 C974 1.353 . S
C976 H1034 0.930 . S
C977 N973 1.279 . S
C977 C975 1.358 . S
C977 H1035 0.930 . S
C978 C981 1.348 . S
C978 C982 1.356 . S
C978 O1029 1.325 . S
C979 N980 1.279 . S
C979 C982 1.358 . S
C979 H1036 0.930 . S
N980 C979 1.279 . S
N980 C983 1.314 . S
C981 C978 1.348 . S
C981 C983 1.353 . S
C981 H1037 0.929 . S
C982 C978 1.356 . S
C982 C979 1.358 . S
C982 H1038 0.930 . S
C983 N980 1.314 . S
C983 C981 1.353 . S
C983 H1039 0.930 . S
C984 N985 1.314 . S
C984 C989 1.353 1_565 S
C984 H990 0.930 . S
N985 Li968 1.990 . S
N985 C984 1.314 . S
N985 C987 1.279 . S
C986 C987 1.358 . S
C986 C988 1.356 1_565 S
C986 H1040 0.930 . S
C987 N985 1.279 . S
C987 C986 1.358 . S
C987 H991 0.930 . S
C988 C986 1.356 1_545 S
C988 C989 1.348 . S
C989 C984 1.353 1_545 S
C989 C988 1.348 . S
C989 H1041 0.929 . S
H990 C984 0.930 . S
H991 C987 0.930 . S
C992 N993 1.314 . S
C992 C994 1.353 . S
C992 H998 0.930 . S
N993 Li969 1.990 . S
N993 C992 1.314 . S
N993 C996 1.279 . S
C994 C992 1.353 . S
C994 C997 1.348 . S
C994 H1042 0.929 . S
C995 C996 1.358 . S
C995 C997 1.356 . S
C995 H1043 0.930 . S
C996 N993 1.279 . S
C996 C995 1.358 . S
C996 H999 0.930 . S
C997 C994 1.348 . S
C997 C995 1.356 . S
H998 C992 0.930 . S
H999 C996 0.930 . S
C1000 C1002 1.348 . S
C1000 C1003 1.356 . S
C1000 O1030 1.325 . S
N1001 C1004 1.314 . S
N1001 C1005 1.279 . S
C1002 C1000 1.348 . S
C1002 C1004 1.353 . S
C1002 H1044 0.929 . S
C1003 C1000 1.356 . S
C1003 C1005 1.358 . S
C1003 H1045 0.930 . S
C1004 N1001 1.314 . S
C1004 C1002 1.353 . S
C1004 H1046 0.930 . S
C1005 N1001 1.279 . S
C1005 C1003 1.358 . S
C1005 H1047 0.930 . S
C1006 C1007 1.348 . S
C1006 C1008 1.356 . S
C1006 O1031 1.325 . S
C1007 C1006 1.348 . S
C1007 C1009 1.353 . S
C1007 H1048 0.929 . S
C1008 C1006 1.356 . S
C1008 C1010 1.358 . S
C1008 H1049 0.930 . S
C1009 C1007 1.353 . S
C1009 N1011 1.314 . S
C1009 H1050 0.930 . S
C1010 C1008 1.358 . S
C1010 N1011 1.279 . S
C1010 H1051 0.930 . S
N1011 C1009 1.314 . S
N1011 C1010 1.279 . S
C1012 C1014 1.353 . S
C1012 N1015 1.314 . S
C1012 H1018 0.930 . S
C1013 N1015 1.279 . S
C1013 C1016 1.358 . S
C1013 H1019 0.930 . S
C1014 C1012 1.353 . S
C1014 C1017 1.348 . S
C1014 H1052 0.929 . S
N1015 Li970 1.990 . S
N1015 C1012 1.314 . S
N1015 C1013 1.279 . S
C1016 C1013 1.358 . S
C1016 C1017 1.356 . S
C1016 H1053 0.930 . S
C1017 C1014 1.348 . S
C1017 C1016 1.356 . S
H1018 C1012 0.930 . S
H1019 C1013 0.930 . S
C1020 N1021 1.314 . S
C1020 C1022 1.353 . S
C1020 H1026 0.930 . S
N1021 Li971 1.990 . S
N1021 C1020 1.314 . S
N1021 C1024 1.279 . S
C1022 C1020 1.353 . S
C1022 C1025 1.348 . S
C1022 H1054 0.929 . S
C1023 C1024 1.358 . S
C1023 C1025 1.356 . S
C1023 H1055 0.930 . S
C1024 N1021 1.279 . S
C1024 C1023 1.358 . S
C1024 H1027 0.930 . S
C1025 C1022 1.348 . S
C1025 C1023 1.356 . S
H1026 C1020 0.930 . S
H1027 C1024 0.930 . S
O1028 Li968 1.956 . S
O1028 Li969 1.970 . S
O1028 Li970 1.961 . S
O1028 C972 1.325 . S
O1029 Li968 1.970 . S
O1029 Li969 1.956 . S
O1029 Li971 1.961 . S
O1029 C978 1.325 . S
O1030 Li968 1.961 . S
O1030 Li970 1.956 . S
O1030 Li971 1.970 . S
O1030 C1000 1.325 . S
O1031 Li969 1.961 . S
O1031 Li970 1.970 . S
O1031 Li971 1.956 . S
O1031 C1006 1.325 . S
H1032 C974 0.929 . S
H1033 C975 0.930 . S
H1034 C976 0.930 . S
H1035 C977 0.930 . S
H1036 C979 0.930 . S
H1037 C981 0.929 . S
H1038 C982 0.930 . S
H1039 C983 0.930 . S
H1040 C986 0.930 . S
H1041 C989 0.929 . S
H1042 C994 0.929 . S
H1043 C995 0.930 . S
H1044 C1002 0.929 . S
H1045 C1003 0.930 . S
H1046 C1004 0.930 . S
H1047 C1005 0.930 . S
H1048 C1007 0.929 . S
H1049 C1008 0.930 . S
H1050 C1009 0.930 . S
H1051 C1010 0.930 . S
H1052 C1014 0.929 . S
H1053 C1016 0.930 . S
H1054 C1022 0.929 . S
H1055 C1023 0.930 . S
C1056 C1057 1.349 . S
C1056 C1058 1.327 . S
C1056 H1081 0.950 . S
C1057 C1056 1.349 . S
C1057 C1073 1.349 . S
C1058 C1056 1.327 . S
C1058 C1077 1.429 . S
C1058 H1082 0.950 . S
C1059 C1076 1.574 . S
C1059 C1078 1.368 . S
C1059 H1083 0.949 . S
H1060 C1064 0.949 . S
C1061 C1062 1.349 . S
C1061 C1063 1.327 . S
C1061 H1084 0.950 . S
C1062 C1061 1.349 . S
C1062 C1074 1.349 . S
C1063 C1061 1.327 . S
C1063 C1079 1.429 . S
C1063 H1085 0.950 . S
C1064 H1060 0.949 . S
C1064 C1072 1.574 . S
C1064 C1080 1.368 . S
H1065 C1073 0.950 . S
H1066 C1071 0.950 . S
H1067 C1072 0.949 . S
H1068 C1074 0.950 . S
H1069 C1075 0.950 . S
H1070 C1076 0.949 . S
C1071 H1066 0.950 . S
C1071 C1073 1.327 . S
C1071 C1077 1.429 . S
C1072 C1064 1.574 . S
C1072 H1067 0.949 . S
C1072 C1078 1.368 . S
C1073 C1057 1.349 . S
C1073 H1065 0.950 . S
C1073 C1071 1.327 . S
C1074 C1062 1.349 . S
C1074 H1068 0.950 . S
C1074 C1075 1.327 . S
C1075 H1069 0.950 . S
C1075 C1074 1.327 . S
C1075 C1079 1.429 . S
C1076 C1059 1.574 . S
C1076 H1070 0.949 . S
C1076 C1080 1.368 . S
C1077 C1058 1.429 . S
C1077 C1071 1.429 . S
C1077 C1078 1.523 . S
C1078 C1059 1.368 . S
C1078 C1072 1.368 . S
C1078 C1077 1.523 . S
C1079 C1063 1.429 . S
C1079 C1075 1.429 . S
C1079 C1080 1.523 . S
C1080 C1064 1.368 . S
C1080 C1076 1.368 . S
C1080 C1079 1.523 . S
H1081 C1056 0.950 . S
H1082 C1058 0.950 . S
H1083 C1059 0.949 . S
H1084 C1061 0.950 . S
H1085 C1063 0.950 . S
C1086 C1087 1.349 . S
C1086 C1088 1.327 . S
C1086 H1111 0.950 . S
C1087 C1086 1.349 . S
C1087 C1103 1.349 . S
C1088 C1086 1.327 . S
C1088 C1107 1.429 . S
C1088 H1112 0.950 . S
C1089 C1106 1.558 1_455 S
C1089 C1108 1.377 . S
C1089 H1113 0.956 . S
H1090 C1094 0.956 . S
C1091 C1092 1.349 . S
C1091 C1093 1.327 . S
C1091 H1114 0.950 . S
C1092 C1091 1.349 . S
C1092 C1104 1.349 . S
C1093 C1091 1.327 . S
C1093 C1109 1.429 . S
C1093 H1115 0.950 . S
C1094 H1090 0.956 . S
C1094 C1102 1.558 1_655 S
C1094 C1110 1.377 . S
H1095 C1103 0.950 . S
H1096 C1101 0.950 . S
H1097 C1102 0.949 . S
H1098 C1104 0.950 . S
H1099 C1105 0.950 . S
H1100 C1106 0.949 . S
C1101 H1096 0.950 . S
C1101 C1103 1.327 . S
C1101 C1107 1.429 . S
C1102 C1094 1.558 1_455 S
C1102 H1097 0.949 . S
C1102 C1108 1.368 . S
C1103 C1087 1.349 . S
C1103 H1095 0.950 . S
C1103 C1101 1.327 . S
C1104 C1092 1.349 . S
C1104 H1098 0.950 . S
C1104 C1105 1.327 . S
C1105 H1099 0.950 . S
C1105 C1104 1.327 . S
C1105 C1109 1.429 . S
C1106 C1089 1.558 1_655 S
C1106 H1100 0.949 . S
C1106 C1110 1.368 . S
C1107 C1088 1.429 . S
C1107 C1101 1.429 . S
C1107 C1108 1.523 . S
C1108 C1089 1.377 . S
C1108 C1102 1.368 . S
C1108 C1107 1.523 . S
C1109 C1093 1.429 . S
C1109 C1105 1.429 . S
C1109 C1110 1.523 . S
C1110 C1094 1.377 . S
C1110 C1106 1.368 . S
C1110 C1109 1.523 . S
H1111 C1086 0.950 . S
H1112 C1088 0.950 . S
H1113 C1089 0.956 . S
H1114 C1091 0.950 . S
H1115 C1093 0.950 . S
C1116 C1117 1.349 . S
C1116 C1118 1.327 . S
C1116 H1141 0.950 . S
C1117 C1116 1.349 . S
C1117 C1133 1.349 . S
C1118 C1116 1.327 . S
C1118 C1137 1.429 . S
C1118 H1142 0.950 . S
C1119 C1136 1.570 1_565 S
C1119 C1138 1.378 . S
C1119 H1143 0.944 . S
H1120 C1124 0.944 . S
C1121 C1122 1.349 . S
C1121 C1123 1.327 . S
C1121 H1144 0.950 . S
C1122 C1121 1.349 . S
C1122 C1134 1.349 . S
C1123 C1121 1.327 . S
C1123 C1139 1.429 . S
C1123 H1145 0.950 . S
C1124 H1120 0.944 . S
C1124 C1132 1.570 1_545 S
C1124 C1140 1.378 . S
H1125 C1133 0.950 . S
H1126 C1131 0.950 . S
H1127 C1132 0.949 . S
H1128 C1134 0.950 . S
H1129 C1135 0.950 . S
H1130 C1136 0.949 . S
C1131 H1126 0.950 . S
C1131 C1133 1.327 . S
C1131 C1137 1.429 . S
C1132 C1124 1.570 1_565 S
C1132 H1127 0.949 . S
C1132 C1138 1.368 . S
C1133 C1117 1.349 . S
C1133 H1125 0.950 . S
C1133 C1131 1.327 . S
C1134 C1122 1.349 . S
C1134 H1128 0.950 . S
C1134 C1135 1.327 . S
C1135 H1129 0.950 . S
C1135 C1134 1.327 . S
C1135 C1139 1.429 . S
C1136 C1119 1.570 1_545 S
C1136 H1130 0.949 . S
C1136 C1140 1.368 . S
C1137 C1118 1.429 . S
C1137 C1131 1.429 . S
C1137 C1138 1.523 . S
C1138 C1119 1.378 . S
C1138 C1132 1.368 . S
C1138 C1137 1.523 . S
C1139 C1123 1.429 . S
C1139 C1135 1.429 . S
C1139 C1140 1.523 . S
C1140 C1124 1.378 . S
C1140 C1136 1.368 . S
C1140 C1139 1.523 . S
H1141 C1116 0.950 . S
H1142 C1118 0.950 . S
H1143 C1119 0.944 . S
H1144 C1121 0.950 . S
H1145 C1123 0.950 . S
C1146 C1147 1.349 . S
C1146 C1148 1.327 . S
C1146 H1171 0.950 . S
C1147 C1146 1.349 . S
C1147 C1163 1.349 . S
C1148 C1146 1.327 . S
C1148 C1167 1.429 . S
C1148 H1172 0.950 . S
C1149 C1166 1.574 . S
C1149 C1168 1.368 . S
C1149 H1173 0.949 . S
H1150 C1154 0.949 . S
C1151 C1152 1.349 . S
C1151 C1153 1.327 . S
C1151 H1174 0.950 . S
C1152 C1151 1.349 . S
C1152 C1164 1.349 . S
C1153 C1151 1.327 . S
C1153 C1169 1.429 . S
C1153 H1175 0.950 . S
C1154 H1150 0.949 . S
C1154 C1162 1.574 . S
C1154 C1170 1.368 . S
H1155 C1163 0.950 . S
H1156 C1161 0.950 . S
H1157 C1162 0.949 . S
H1158 C1164 0.950 . S
H1159 C1165 0.950 . S
H1160 C1166 0.949 . S
C1161 H1156 0.950 . S
C1161 C1163 1.327 . S
C1161 C1167 1.429 . S
C1162 C1154 1.574 . S
C1162 H1157 0.949 . S
C1162 C1168 1.368 . S
C1163 C1147 1.349 . S
C1163 H1155 0.950 . S
C1163 C1161 1.327 . S
C1164 C1152 1.349 . S
C1164 H1158 0.950 . S
C1164 C1165 1.327 . S
C1165 H1159 0.950 . S
C1165 C1164 1.327 . S
C1165 C1169 1.429 . S
C1166 C1149 1.574 . S
C1166 H1160 0.949 . S
C1166 C1170 1.368 . S
C1167 C1148 1.429 . S
C1167 C1161 1.429 . S
C1167 C1168 1.523 . S
C1168 C1149 1.368 . S
C1168 C1162 1.368 . S
C1168 C1167 1.523 . S
C1169 C1153 1.429 . S
C1169 C1165 1.429 . S
C1169 C1170 1.523 . S
C1170 C1154 1.368 . S
C1170 C1166 1.368 . S
C1170 C1169 1.523 . S
H1171 C1146 0.950 . S
H1172 C1148 0.950 . S
H1173 C1149 0.949 . S
H1174 C1151 0.950 . S
H1175 C1153 0.950 . S
C1176 C1177 1.349 . S
C1176 C1178 1.327 . S
C1176 H1201 0.950 . S
C1177 C1176 1.349 . S
C1177 C1193 1.349 . S
C1178 C1176 1.327 . S
C1178 C1197 1.429 . S
C1178 H1202 0.950 . S
C1179 C1196 1.570 1_655 S
C1179 C1198 1.368 . S
C1179 H1203 0.949 . S
H1180 C1184 0.949 . S
C1181 C1182 1.349 . S
C1181 C1183 1.327 . S
C1181 H1204 0.950 . S
C1182 C1181 1.349 . S
C1182 C1194 1.349 . S
C1183 C1181 1.327 . S
C1183 C1199 1.429 . S
C1183 H1205 0.950 . S
C1184 H1180 0.949 . S
C1184 C1192 1.570 1_455 S
C1184 C1200 1.368 . S
H1185 C1193 0.950 . S
H1186 C1191 0.950 . S
H1187 C1192 0.944 . S
H1188 C1194 0.950 . S
H1189 C1195 0.950 . S
H1190 C1196 0.944 . S
C1191 H1186 0.950 . S
C1191 C1193 1.327 . S
C1191 C1197 1.429 . S
C1192 C1184 1.570 1_655 S
C1192 H1187 0.944 . S
C1192 C1198 1.378 . S
C1193 C1177 1.349 . S
C1193 H1185 0.950 . S
C1193 C1191 1.327 . S
C1194 C1182 1.349 . S
C1194 H1188 0.950 . S
C1194 C1195 1.327 . S
C1195 H1189 0.950 . S
C1195 C1194 1.327 . S
C1195 C1199 1.429 . S
C1196 C1179 1.570 1_455 S
C1196 H1190 0.944 . S
C1196 C1200 1.378 . S
C1197 C1178 1.429 . S
C1197 C1191 1.429 . S
C1197 C1198 1.523 . S
C1198 C1179 1.368 . S
C1198 C1192 1.378 . S
C1198 C1197 1.523 . S
C1199 C1183 1.429 . S
C1199 C1195 1.429 . S
C1199 C1200 1.523 . S
C1200 C1184 1.368 . S
C1200 C1196 1.378 . S
C1200 C1199 1.523 . S
H1201 C1176 0.950 . S
H1202 C1178 0.950 . S
H1203 C1179 0.949 . S
H1204 C1181 0.950 . S
H1205 C1183 0.950 . S
C1206 C1207 1.349 . S
C1206 C1208 1.327 . S
C1206 H1231 0.950 . S
C1207 C1206 1.349 . S
C1207 C1223 1.349 . S
C1208 C1206 1.327 . S
C1208 C1227 1.429 . S
C1208 H1232 0.950 . S
C1209 C1226 1.559 1_545 S
C1209 C1228 1.368 . S
C1209 H1233 0.949 . S
H1210 C1214 0.949 . S
C1211 C1212 1.349 . S
C1211 C1213 1.327 . S
C1211 H1234 0.950 . S
C1212 C1211 1.349 . S
C1212 C1224 1.349 . S
C1213 C1211 1.327 . S
C1213 C1229 1.429 . S
C1213 H1235 0.950 . S
C1214 H1210 0.949 . S
C1214 C1222 1.559 1_565 S
C1214 C1230 1.368 . S
H1215 C1223 0.950 . S
H1216 C1221 0.950 . S
H1217 C1222 0.955 . S
H1218 C1224 0.950 . S
H1219 C1225 0.950 . S
H1220 C1226 0.955 . S
C1221 H1216 0.950 . S
C1221 C1223 1.327 . S
C1221 C1227 1.429 . S
C1222 C1214 1.559 1_545 S
C1222 H1217 0.955 . S
C1222 C1228 1.377 . S
C1223 C1207 1.349 . S
C1223 H1215 0.950 . S
C1223 C1221 1.327 . S
C1224 C1212 1.349 . S
C1224 H1218 0.950 . S
C1224 C1225 1.327 . S
C1225 H1219 0.950 . S
C1225 C1224 1.327 . S
C1225 C1229 1.429 . S
C1226 C1209 1.559 1_565 S
C1226 H1220 0.955 . S
C1226 C1230 1.377 . S
C1227 C1208 1.429 . S
C1227 C1221 1.429 . S
C1227 C1228 1.523 . S
C1228 C1209 1.368 . S
C1228 C1222 1.377 . S
C1228 C1227 1.523 . S
C1229 C1213 1.429 . S
C1229 C1225 1.429 . S
C1229 C1230 1.523 . S
C1230 C1214 1.368 . S
C1230 C1226 1.377 . S
C1230 C1229 1.523 . S
H1231 C1206 0.950 . S
H1232 C1208 0.950 . S
H1233 C1209 0.949 . S
H1234 C1211 0.950 . S
H1235 C1213 0.950 . S
C1236 C1237 1.349 . S
C1236 C1238 1.327 . S
C1236 H1261 0.950 . S
C1237 C1236 1.349 . S
C1237 C1253 1.349 . S
C1238 C1236 1.327 . S
C1238 C1257 1.429 . S
C1238 H1262 0.950 . S
C1239 C1256 1.574 . S
C1239 C1258 1.368 . S
C1239 H1263 0.949 . S
H1240 C1244 0.949 . S
C1241 C1242 1.349 . S
C1241 C1243 1.327 . S
C1241 H1264 0.950 . S
C1242 C1241 1.349 . S
C1242 C1254 1.349 . S
C1243 C1241 1.327 . S
C1243 C1259 1.429 . S
C1243 H1265 0.950 . S
C1244 H1240 0.949 . S
C1244 C1252 1.574 . S
C1244 C1260 1.368 . S
H1245 C1253 0.950 . S
H1246 C1251 0.950 . S
H1247 C1252 0.949 . S
H1248 C1254 0.950 . S
H1249 C1255 0.950 . S
H1250 C1256 0.949 . S
C1251 H1246 0.950 . S
C1251 C1253 1.327 . S
C1251 C1257 1.429 . S
C1252 C1244 1.574 . S
C1252 H1247 0.949 . S
C1252 C1258 1.368 . S
C1253 C1237 1.349 . S
C1253 H1245 0.950 . S
C1253 C1251 1.327 . S
C1254 C1242 1.349 . S
C1254 H1248 0.950 . S
C1254 C1255 1.327 . S
C1255 H1249 0.950 . S
C1255 C1254 1.327 . S
C1255 C1259 1.429 . S
C1256 C1239 1.574 . S
C1256 H1250 0.949 . S
C1256 C1260 1.368 . S
C1257 C1238 1.429 . S
C1257 C1251 1.429 . S
C1257 C1258 1.523 . S
C1258 C1239 1.368 . S
C1258 C1252 1.368 . S
C1258 C1257 1.523 . S
C1259 C1243 1.429 . S
C1259 C1255 1.429 . S
C1259 C1260 1.523 . S
C1260 C1244 1.368 . S
C1260 C1256 1.368 . S
C1260 C1259 1.523 . S
H1261 C1236 0.950 . S
H1262 C1238 0.950 . S
H1263 C1239 0.949 . S
H1264 C1241 0.950 . S
H1265 C1243 0.950 . S
C1266 C1267 1.349 . S
C1266 C1268 1.327 . S
C1266 H1291 0.950 . S
C1267 C1266 1.349 . S
C1267 C1283 1.349 . S
C1268 C1266 1.327 . S
C1268 C1287 1.429 . S
C1268 H1292 0.950 . S
C1269 C1286 1.574 . S
C1269 C1288 1.368 . S
C1269 H1293 0.949 . S
H1270 C1274 0.949 . S
C1271 C1272 1.349 . S
C1271 C1273 1.327 . S
C1271 H1294 0.950 . S
C1272 C1271 1.349 . S
C1272 C1284 1.349 . S
C1273 C1271 1.327 . S
C1273 C1289 1.429 . S
C1273 H1295 0.950 . S
C1274 H1270 0.949 . S
C1274 C1282 1.574 . S
C1274 C1290 1.368 . S
H1275 C1283 0.950 . S
H1276 C1281 0.950 . S
H1277 C1282 0.949 . S
H1278 C1284 0.950 . S
H1279 C1285 0.950 . S
H1280 C1286 0.949 . S
C1281 H1276 0.950 . S
C1281 C1283 1.327 . S
C1281 C1287 1.429 . S
C1282 C1274 1.574 . S
C1282 H1277 0.949 . S
C1282 C1288 1.368 . S
C1283 C1267 1.349 . S
C1283 H1275 0.950 . S
C1283 C1281 1.327 . S
C1284 C1272 1.349 . S
C1284 H1278 0.950 . S
C1284 C1285 1.327 . S
C1285 H1279 0.950 . S
C1285 C1284 1.327 . S
C1285 C1289 1.429 . S
C1286 C1269 1.574 . S
C1286 H1280 0.949 . S
C1286 C1290 1.368 . S
C1287 C1268 1.429 . S
C1287 C1281 1.429 . S
C1287 C1288 1.523 . S
C1288 C1269 1.368 . S
C1288 C1282 1.368 . S
C1288 C1287 1.523 . S
C1289 C1273 1.429 . S
C1289 C1285 1.429 . S
C1289 C1290 1.523 . S
C1290 C1274 1.368 . S
C1290 C1286 1.368 . S
C1290 C1289 1.523 . S
H1291 C1266 0.950 . S
H1292 C1268 0.950 . S
H1293 C1269 0.949 . S
H1294 C1271 0.950 . S
H1295 C1273 0.950 . S
C1296 C1297 1.349 . S
C1296 C1298 1.327 . S
C1296 H1321 0.950 . S
C1297 C1296 1.349 . S
C1297 C1313 1.349 . S
C1298 C1296 1.327 . S
C1298 C1317 1.429 . S
C1298 H1322 0.950 . S
C1299 C1316 1.574 . S
C1299 C1318 1.368 . S
C1299 H1323 0.949 . S
H1300 C1304 0.949 . S
C1301 C1302 1.349 . S
C1301 C1303 1.327 . S
C1301 H1324 0.950 . S
C1302 C1301 1.349 . S
C1302 C1314 1.349 . S
C1303 C1301 1.327 . S
C1303 C1319 1.429 . S
C1303 H1325 0.950 . S
C1304 H1300 0.949 . S
C1304 C1312 1.574 . S
C1304 C1320 1.368 . S
H1305 C1313 0.950 . S
H1306 C1311 0.950 . S
H1307 C1312 0.949 . S
H1308 C1314 0.950 . S
H1309 C1315 0.950 . S
H1310 C1316 0.949 . S
C1311 H1306 0.950 . S
C1311 C1313 1.327 . S
C1311 C1317 1.429 . S
C1312 C1304 1.574 . S
C1312 H1307 0.949 . S
C1312 C1318 1.368 . S
C1313 C1297 1.349 . S
C1313 H1305 0.950 . S
C1313 C1311 1.327 . S
C1314 C1302 1.349 . S
C1314 H1308 0.950 . S
C1314 C1315 1.327 . S
C1315 H1309 0.950 . S
C1315 C1314 1.327 . S
C1315 C1319 1.429 . S
C1316 C1299 1.574 . S
C1316 H1310 0.949 . S
C1316 C1320 1.368 . S
C1317 C1298 1.429 . S
C1317 C1311 1.429 . S
C1317 C1318 1.523 . S
C1318 C1299 1.368 . S
C1318 C1312 1.368 . S
C1318 C1317 1.523 . S
C1319 C1303 1.429 . S
C1319 C1315 1.429 . S
C1319 C1320 1.523 . S
C1320 C1304 1.368 . S
C1320 C1316 1.368 . S
C1320 C1319 1.523 . S
H1321 C1296 0.950 . S
H1322 C1298 0.950 . S
H1323 C1299 0.949 . S
H1324 C1301 0.950 . S
H1325 C1303 0.950 . S
C1326 C1327 1.349 . S
C1326 C1328 1.327 . S
C1326 H1351 0.950 . S
C1327 C1326 1.349 . S
C1327 C1343 1.349 . S
C1328 C1326 1.327 . S
C1328 C1347 1.429 . S
C1328 H1352 0.950 . S
C1329 C1346 1.574 . S
C1329 C1348 1.368 . S
C1329 H1353 0.949 . S
H1330 C1334 0.949 . S
C1331 C1332 1.349 . S
C1331 C1333 1.327 . S
C1331 H1354 0.950 . S
C1332 C1331 1.349 . S
C1332 C1344 1.349 . S
C1333 C1331 1.327 . S
C1333 C1349 1.429 . S
C1333 H1355 0.950 . S
C1334 H1330 0.949 . S
C1334 C1342 1.574 . S
C1334 C1350 1.368 . S
H1335 C1343 0.950 . S
H1336 C1341 0.950 . S
H1337 C1342 0.949 . S
H1338 C1344 0.950 . S
H1339 C1345 0.950 . S
H1340 C1346 0.949 . S
C1341 H1336 0.950 . S
C1341 C1343 1.327 . S
C1341 C1347 1.429 . S
C1342 C1334 1.574 . S
C1342 H1337 0.949 . S
C1342 C1348 1.368 . S
C1343 C1327 1.349 . S
C1343 H1335 0.950 . S
C1343 C1341 1.327 . S
C1344 C1332 1.349 . S
C1344 H1338 0.950 . S
C1344 C1345 1.327 . S
C1345 H1339 0.950 . S
C1345 C1344 1.327 . S
C1345 C1349 1.429 . S
C1346 C1329 1.574 . S
C1346 H1340 0.949 . S
C1346 C1350 1.368 . S
C1347 C1328 1.429 . S
C1347 C1341 1.429 . S
C1347 C1348 1.523 . S
C1348 C1329 1.368 . S
C1348 C1342 1.368 . S
C1348 C1347 1.523 . S
C1349 C1333 1.429 . S
C1349 C1345 1.429 . S
C1349 C1350 1.523 . S
C1350 C1334 1.368 . S
C1350 C1346 1.368 . S
C1350 C1349 1.523 . S
H1351 C1326 0.950 . S
H1352 C1328 0.950 . S
H1353 C1329 0.949 . S
H1354 C1331 0.950 . S
H1355 C1333 0.950 . S
C1356 C1357 1.349 . S
C1356 C1358 1.327 . S
C1356 H1381 0.950 . S
C1357 C1356 1.349 . S
C1357 C1373 1.349 . S
C1358 C1356 1.327 . S
C1358 C1377 1.429 . S
C1358 H1382 0.950 . S
C1359 C1376 1.574 . S
C1359 C1378 1.368 . S
C1359 H1383 0.949 . S
H1360 C1364 0.949 . S
C1361 C1362 1.349 . S
C1361 C1363 1.327 . S
C1361 H1384 0.950 . S
C1362 C1361 1.349 . S
C1362 C1374 1.349 . S
C1363 C1361 1.327 . S
C1363 C1379 1.429 . S
C1363 H1385 0.950 . S
C1364 H1360 0.949 . S
C1364 C1372 1.574 . S
C1364 C1380 1.368 . S
H1365 C1373 0.950 . S
H1366 C1371 0.950 . S
H1367 C1372 0.949 . S
H1368 C1374 0.950 . S
H1369 C1375 0.950 . S
H1370 C1376 0.949 . S
C1371 H1366 0.950 . S
C1371 C1373 1.327 . S
C1371 C1377 1.429 . S
C1372 C1364 1.574 . S
C1372 H1367 0.949 . S
C1372 C1378 1.368 . S
C1373 C1357 1.349 . S
C1373 H1365 0.950 . S
C1373 C1371 1.327 . S
C1374 C1362 1.349 . S
C1374 H1368 0.950 . S
C1374 C1375 1.327 . S
C1375 H1369 0.950 . S
C1375 C1374 1.327 . S
C1375 C1379 1.429 . S
C1376 C1359 1.574 . S
C1376 H1370 0.949 . S
C1376 C1380 1.368 . S
C1377 C1358 1.429 . S
C1377 C1371 1.429 . S
C1377 C1378 1.523 . S
C1378 C1359 1.368 . S
C1378 C1372 1.368 . S
C1378 C1377 1.523 . S
C1379 C1363 1.429 . S
C1379 C1375 1.429 . S
C1379 C1380 1.523 . S
C1380 C1364 1.368 . S
C1380 C1376 1.368 . S
C1380 C1379 1.523 . S
H1381 C1356 0.950 . S
H1382 C1358 0.950 . S
H1383 C1359 0.949 . S
H1384 C1361 0.950 . S
H1385 C1363 0.950 . S
C1386 C1387 1.349 . S
C1386 C1388 1.327 . S
C1386 H1411 0.950 . S
C1387 C1386 1.349 . S
C1387 C1403 1.349 . S
C1388 C1386 1.327 . S
C1388 C1407 1.429 . S
C1388 H1412 0.950 . S
C1389 C1406 1.574 . S
C1389 C1408 1.368 . S
C1389 H1413 0.949 . S
H1390 C1394 0.949 . S
C1391 C1392 1.349 . S
C1391 C1393 1.327 . S
C1391 H1414 0.950 . S
C1392 C1391 1.349 . S
C1392 C1404 1.349 . S
C1393 C1391 1.327 . S
C1393 C1409 1.429 . S
C1393 H1415 0.950 . S
C1394 H1390 0.949 . S
C1394 C1402 1.574 . S
C1394 C1410 1.368 . S
H1395 C1403 0.950 . S
H1396 C1401 0.950 . S
H1397 C1402 0.949 . S
H1398 C1404 0.950 . S
H1399 C1405 0.950 . S
H1400 C1406 0.949 . S
C1401 H1396 0.950 . S
C1401 C1403 1.327 . S
C1401 C1407 1.429 . S
C1402 C1394 1.574 . S
C1402 H1397 0.949 . S
C1402 C1408 1.368 . S
C1403 C1387 1.349 . S
C1403 H1395 0.950 . S
C1403 C1401 1.327 . S
C1404 C1392 1.349 . S
C1404 H1398 0.950 . S
C1404 C1405 1.327 . S
C1405 H1399 0.950 . S
C1405 C1404 1.327 . S
C1405 C1409 1.429 . S
C1406 C1389 1.574 . S
C1406 H1400 0.949 . S
C1406 C1410 1.368 . S
C1407 C1388 1.429 . S
C1407 C1401 1.429 . S
C1407 C1408 1.523 . S
C1408 C1389 1.368 . S
C1408 C1402 1.368 . S
C1408 C1407 1.523 . S
C1409 C1393 1.429 . S
C1409 C1405 1.429 . S
C1409 C1410 1.523 . S
C1410 C1394 1.368 . S
C1410 C1406 1.368 . S
C1410 C1409 1.523 . S
H1411 C1386 0.950 . S
H1412 C1388 0.950 . S
H1413 C1389 0.949 . S
H1414 C1391 0.950 . S
H1415 C1393 0.950 . S
C1416 C1417 1.349 1_554 S
C1416 C1418 1.327 . S
C1416 H1441 0.950 . S
C1417 C1416 1.349 1_556 S
C1417 C1433 1.349 . S
C1418 C1416 1.327 . S
C1418 C1437 1.429 1_554 S
C1418 H1442 0.950 . S
C1419 C1436 1.574 1_565 S
C1419 C1438 1.368 . S
C1419 H1443 0.949 . S
H1420 C1424 0.949 . S
C1421 C1422 1.349 1_556 S
C1421 C1423 1.327 . S
C1421 H1444 0.950 . S
C1422 C1421 1.349 1_554 S
C1422 C1434 1.349 . S
C1423 C1421 1.327 . S
C1423 C1439 1.429 1_556 S
C1423 H1445 0.950 . S
C1424 H1420 0.949 . S
C1424 C1432 1.574 1_545 S
C1424 C1440 1.368 . S
H1425 C1433 0.950 . S
H1426 C1431 0.950 . S
H1427 C1432 0.949 . S
H1428 C1434 0.950 . S
H1429 C1435 0.950 . S
H1430 C1436 0.949 . S
C1431 H1426 0.950 . S
C1431 C1433 1.327 . S
C1431 C1437 1.429 . S
C1432 C1424 1.574 1_565 S
C1432 H1427 0.949 . S
C1432 C1438 1.368 1_554 S
C1433 C1417 1.349 . S
C1433 H1425 0.950 . S
C1433 C1431 1.327 . S
C1434 C1422 1.349 . S
C1434 H1428 0.950 . S
C1434 C1435 1.327 . S
C1435 H1429 0.950 . S
C1435 C1434 1.327 . S
C1435 C1439 1.429 . S
C1436 C1419 1.574 1_545 S
C1436 H1430 0.949 . S
C1436 C1440 1.368 1_556 S
C1437 C1418 1.429 1_556 S
C1437 C1431 1.429 . S
C1437 C1438 1.523 . S
C1438 C1419 1.368 . S
C1438 C1432 1.368 1_556 S
C1438 C1437 1.523 . S
C1439 C1423 1.429 1_554 S
C1439 C1435 1.429 . S
C1439 C1440 1.523 . S
C1440 C1424 1.368 . S
C1440 C1436 1.368 1_554 S
C1440 C1439 1.523 . S
H1441 C1416 0.950 . S
H1442 C1418 0.950 . S
H1443 C1419 0.949 . S
H1444 C1421 0.950 . S
H1445 C1423 0.950 . S
C1446 C1447 1.349 . S
C1446 C1448 1.327 . S
C1446 H1471 0.950 . S
C1447 C1446 1.349 . S
C1447 C1463 1.349 . S
C1448 C1446 1.327 . S
C1448 C1467 1.429 . S
C1448 H1472 0.950 . S
C1449 C1466 1.574 . S
C1449 C1468 1.368 . S
C1449 H1473 0.949 . S
H1450 C1454 0.949 . S
C1451 C1452 1.349 . S
C1451 C1453 1.327 . S
C1451 H1474 0.950 . S
C1452 C1451 1.349 . S
C1452 C1464 1.349 . S
C1453 C1451 1.327 . S
C1453 C1469 1.429 . S
C1453 H1475 0.950 . S
C1454 H1450 0.949 . S
C1454 C1462 1.574 . S
C1454 C1470 1.368 . S
H1455 C1463 0.950 . S
H1456 C1461 0.950 . S
H1457 C1462 0.949 . S
H1458 C1464 0.950 . S
H1459 C1465 0.950 . S
H1460 C1466 0.949 . S
C1461 H1456 0.950 . S
C1461 C1463 1.327 . S
C1461 C1467 1.429 . S
C1462 C1454 1.574 . S
C1462 H1457 0.949 . S
C1462 C1468 1.368 . S
C1463 C1447 1.349 . S
C1463 H1455 0.950 . S
C1463 C1461 1.327 . S
C1464 C1452 1.349 . S
C1464 H1458 0.950 . S
C1464 C1465 1.327 . S
C1465 H1459 0.950 . S
C1465 C1464 1.327 . S
C1465 C1469 1.429 . S
C1466 C1449 1.574 . S
C1466 H1460 0.949 . S
C1466 C1470 1.368 . S
C1467 C1448 1.429 . S
C1467 C1461 1.429 . S
C1467 C1468 1.523 . S
C1468 C1449 1.368 . S
C1468 C1462 1.368 . S
C1468 C1467 1.523 . S
C1469 C1453 1.429 . S
C1469 C1465 1.429 . S
C1469 C1470 1.523 . S
C1470 C1454 1.368 . S
C1470 C1466 1.368 . S
C1470 C1469 1.523 . S
H1471 C1446 0.950 . S
H1472 C1448 0.950 . S
H1473 C1449 0.949 . S
H1474 C1451 0.950 . S
H1475 C1453 0.950 . S
C1476 C1477 1.349 . S
C1476 C1478 1.327 . S
C1476 H1501 0.950 . S
C1477 C1476 1.349 . S
C1477 C1493 1.349 . S
C1478 C1476 1.327 . S
C1478 C1497 1.429 . S
C1478 H1502 0.950 . S
C1479 C1496 1.574 1_655 S
C1479 C1498 1.368 . S
C1479 H1503 0.949 . S
H1480 C1484 0.949 . S
C1481 C1482 1.349 . S
C1481 C1483 1.327 . S
C1481 H1504 0.950 . S
C1482 C1481 1.349 . S
C1482 C1494 1.349 . S
C1483 C1481 1.327 . S
C1483 C1499 1.429 . S
C1483 H1505 0.950 . S
C1484 H1480 0.949 . S
C1484 C1492 1.574 1_455 S
C1484 C1500 1.368 . S
H1485 C1493 0.950 . S
H1486 C1491 0.950 . S
H1487 C1492 0.949 . S
H1488 C1494 0.950 . S
H1489 C1495 0.950 . S
H1490 C1496 0.949 . S
C1491 H1486 0.950 . S
C1491 C1493 1.327 . S
C1491 C1497 1.429 . S
C1492 C1484 1.574 1_655 S
C1492 H1487 0.949 . S
C1492 C1498 1.368 . S
C1493 C1477 1.349 . S
C1493 H1485 0.950 . S
C1493 C1491 1.327 . S
C1494 C1482 1.349 . S
C1494 H1488 0.950 . S
C1494 C1495 1.327 . S
C1495 H1489 0.950 . S
C1495 C1494 1.327 . S
C1495 C1499 1.429 . S
C1496 C1479 1.574 1_455 S
C1496 H1490 0.949 . S
C1496 C1500 1.368 . S
C1497 C1478 1.429 . S
C1497 C1491 1.429 . S
C1497 C1498 1.523 . S
C1498 C1479 1.368 . S
C1498 C1492 1.368 . S
C1498 C1497 1.523 . S
C1499 C1483 1.429 . S
C1499 C1495 1.429 . S
C1499 C1500 1.523 . S
C1500 C1484 1.368 . S
C1500 C1496 1.368 . S
C1500 C1499 1.523 . S
H1501 C1476 0.950 . S
H1502 C1478 0.950 . S
H1503 C1479 0.949 . S
H1504 C1481 0.950 . S
H1505 C1483 0.950 . S
C1506 C1507 1.349 . S
C1506 C1508 1.327 . S
C1506 H1531 0.950 . S
C1507 C1506 1.349 . S
C1507 C1523 1.349 1_554 S
C1508 C1506 1.327 . S
C1508 C1527 1.429 . S
C1508 H1532 0.950 . S
C1509 C1526 1.574 1_565 S
C1509 C1528 1.368 1_556 S
C1509 H1533 0.949 . S
H1510 C1514 0.949 . S
C1511 C1512 1.349 . S
C1511 C1513 1.327 . S
C1511 H1534 0.950 . S
C1512 C1511 1.349 . S
C1512 C1524 1.349 1_556 S
C1513 C1511 1.327 . S
C1513 C1529 1.429 . S
C1513 H1535 0.950 . S
C1514 H1510 0.949 . S
C1514 C1522 1.574 1_545 S
C1514 C1530 1.368 1_554 S
H1515 C1523 0.950 . S
H1516 C1521 0.950 . S
H1517 C1522 0.949 . S
H1518 C1524 0.950 . S
H1519 C1525 0.950 . S
H1520 C1526 0.949 . S
C1521 H1516 0.950 . S
C1521 C1523 1.327 . S
C1521 C1527 1.429 1_556 S
C1522 C1514 1.574 1_565 S
C1522 H1517 0.949 . S
C1522 C1528 1.368 . S
C1523 C1507 1.349 1_556 S
C1523 H1515 0.950 . S
C1523 C1521 1.327 . S
C1524 C1512 1.349 1_554 S
C1524 H1518 0.950 . S
C1524 C1525 1.327 . S
C1525 H1519 0.950 . S
C1525 C1524 1.327 . S
C1525 C1529 1.429 1_554 S
C1526 C1509 1.574 1_545 S
C1526 H1520 0.949 . S
C1526 C1530 1.368 . S
C1527 C1508 1.429 . S
C1527 C1521 1.429 1_554 S
C1527 C1528 1.523 . S
C1528 C1509 1.368 1_554 S
C1528 C1522 1.368 . S
C1528 C1527 1.523 . S
C1529 C1513 1.429 . S
C1529 C1525 1.429 1_556 S
C1529 C1530 1.523 . S
C1530 C1514 1.368 1_556 S
C1530 C1526 1.368 . S
C1530 C1529 1.523 . S
H1531 C1506 0.950 . S
H1532 C1508 0.950 . S
H1533 C1509 0.949 . S
H1534 C1511 0.950 . S
H1535 C1513 0.950 . S
C1536 C1537 1.349 . S
C1536 C1538 1.327 . S
C1536 H1561 0.950 . S
C1537 C1536 1.349 . S
C1537 C1553 1.349 . S
C1538 C1536 1.327 . S
C1538 C1557 1.429 . S
C1538 H1562 0.950 . S
C1539 C1556 1.574 . S
C1539 C1558 1.368 . S
C1539 H1563 0.949 . S
H1540 C1544 0.949 . S
C1541 C1542 1.349 . S
C1541 C1543 1.327 . S
C1541 H1564 0.950 . S
C1542 C1541 1.349 . S
C1542 C1554 1.349 . S
C1543 C1541 1.327 . S
C1543 C1559 1.429 . S
C1543 H1565 0.950 . S
C1544 H1540 0.949 . S
C1544 C1552 1.574 . S
C1544 C1560 1.368 . S
H1545 C1553 0.950 . S
H1546 C1551 0.950 . S
H1547 C1552 0.949 . S
H1548 C1554 0.950 . S
H1549 C1555 0.950 . S
H1550 C1556 0.949 . S
C1551 H1546 0.950 . S
C1551 C1553 1.327 . S
C1551 C1557 1.429 . S
C1552 C1544 1.574 . S
C1552 H1547 0.949 . S
C1552 C1558 1.368 . S
C1553 C1537 1.349 . S
C1553 H1545 0.950 . S
C1553 C1551 1.327 . S
C1554 C1542 1.349 . S
C1554 H1548 0.950 . S
C1554 C1555 1.327 . S
C1555 H1549 0.950 . S
C1555 C1554 1.327 . S
C1555 C1559 1.429 . S
C1556 C1539 1.574 . S
C1556 H1550 0.949 . S
C1556 C1560 1.368 . S
C1557 C1538 1.429 . S
C1557 C1551 1.429 . S
C1557 C1558 1.523 . S
C1558 C1539 1.368 . S
C1558 C1552 1.368 . S
C1558 C1557 1.523 . S
C1559 C1543 1.429 . S
C1559 C1555 1.429 . S
C1559 C1560 1.523 . S
C1560 C1544 1.368 . S
C1560 C1556 1.368 . S
C1560 C1559 1.523 . S
H1561 C1536 0.950 . S
H1562 C1538 0.950 . S
H1563 C1539 0.949 . S
H1564 C1541 0.950 . S
H1565 C1543 0.950 . S
C1566 C1567 1.349 . S
C1566 C1568 1.327 . S
C1566 H1591 0.950 . S
C1567 C1566 1.349 . S
C1567 C1583 1.349 . S
C1568 C1566 1.327 . S
C1568 C1587 1.429 . S
C1568 H1592 0.950 . S
C1569 C1586 1.574 1_455 S
C1569 C1588 1.368 . S
C1569 H1593 0.949 . S
H1570 C1574 0.949 . S
C1571 C1572 1.349 . S
C1571 C1573 1.327 . S
C1571 H1594 0.950 . S
C1572 C1571 1.349 . S
C1572 C1584 1.349 . S
C1573 C1571 1.327 . S
C1573 C1589 1.429 . S
C1573 H1595 0.950 . S
C1574 H1570 0.949 . S
C1574 C1582 1.574 1_655 S
C1574 C1590 1.368 . S
H1575 C1583 0.950 . S
H1576 C1581 0.950 . S
H1577 C1582 0.949 . S
H1578 C1584 0.950 . S
H1579 C1585 0.950 . S
H1580 C1586 0.949 . S
C1581 H1576 0.950 . S
C1581 C1583 1.327 . S
C1581 C1587 1.429 . S
C1582 C1574 1.574 1_455 S
C1582 H1577 0.949 . S
C1582 C1588 1.368 . S
C1583 C1567 1.349 . S
C1583 H1575 0.950 . S
C1583 C1581 1.327 . S
C1584 C1572 1.349 . S
C1584 H1578 0.950 . S
C1584 C1585 1.327 . S
C1585 H1579 0.950 . S
C1585 C1584 1.327 . S
C1585 C1589 1.429 . S
C1586 C1569 1.574 1_655 S
C1586 H1580 0.949 . S
C1586 C1590 1.368 . S
C1587 C1568 1.429 . S
C1587 C1581 1.429 . S
C1587 C1588 1.523 . S
C1588 C1569 1.368 . S
C1588 C1582 1.368 . S
C1588 C1587 1.523 . S
C1589 C1573 1.429 . S
C1589 C1585 1.429 . S
C1589 C1590 1.523 . S
C1590 C1574 1.368 . S
C1590 C1586 1.368 . S
C1590 C1589 1.523 . S
H1591 C1566 0.950 . S
H1592 C1568 0.950 . S
H1593 C1569 0.949 . S
H1594 C1571 0.950 . S
H1595 C1573 0.950 . S
C1596 C1597 1.349 . S
C1596 C1598 1.327 . S
C1596 H1621 0.950 . S
C1597 C1596 1.349 . S
C1597 C1613 1.349 . S
C1598 C1596 1.327 . S
C1598 C1617 1.429 . S
C1598 H1622 0.950 . S
C1599 C1616 1.574 . S
C1599 C1618 1.368 1_554 S
C1599 H1623 0.949 . S
H1600 C1604 0.949 . S
C1601 C1602 1.349 . S
C1601 C1603 1.327 . S
C1601 H1624 0.950 . S
C1602 C1601 1.349 . S
C1602 C1614 1.349 . S
C1603 C1601 1.327 . S
C1603 C1619 1.429 . S
C1603 H1625 0.950 . S
C1604 H1600 0.949 . S
C1604 C1612 1.574 . S
C1604 C1620 1.368 1_556 S
H1605 C1613 0.950 . S
H1606 C1611 0.950 . S
H1607 C1612 0.949 . S
H1608 C1614 0.950 . S
H1609 C1615 0.950 . S
H1610 C1616 0.949 . S
C1611 H1606 0.950 . S
C1611 C1613 1.327 . S
C1611 C1617 1.429 . S
C1612 C1604 1.574 . S
C1612 H1607 0.949 . S
C1612 C1618 1.368 . S
C1613 C1597 1.349 . S
C1613 H1605 0.950 . S
C1613 C1611 1.327 . S
C1614 C1602 1.349 . S
C1614 H1608 0.950 . S
C1614 C1615 1.327 . S
C1615 H1609 0.950 . S
C1615 C1614 1.327 . S
C1615 C1619 1.429 . S
C1616 C1599 1.574 . S
C1616 H1610 0.949 . S
C1616 C1620 1.368 . S
C1617 C1598 1.429 . S
C1617 C1611 1.429 . S
C1617 C1618 1.523 . S
C1618 C1599 1.368 1_556 S
C1618 C1612 1.368 . S
C1618 C1617 1.523 . S
C1619 C1603 1.429 . S
C1619 C1615 1.429 . S
C1619 C1620 1.523 . S
C1620 C1604 1.368 1_554 S
C1620 C1616 1.368 . S
C1620 C1619 1.523 . S
H1621 C1596 0.950 . S
H1622 C1598 0.950 . S
H1623 C1599 0.949 . S
H1624 C1601 0.950 . S
H1625 C1603 0.950 . S
C1626 C1627 1.349 . S
C1626 C1628 1.327 . S
C1626 H1651 0.950 . S
C1627 C1626 1.349 . S
C1627 C1643 1.349 . S
C1628 C1626 1.327 . S
C1628 C1647 1.429 . S
C1628 H1652 0.950 . S
C1629 C1646 1.574 . S
C1629 C1648 1.368 . S
C1629 H1653 0.949 . S
H1630 C1634 0.949 . S
C1631 C1632 1.349 . S
C1631 C1633 1.327 . S
C1631 H1654 0.950 . S
C1632 C1631 1.349 . S
C1632 C1644 1.349 . S
C1633 C1631 1.327 . S
C1633 C1649 1.429 . S
C1633 H1655 0.950 . S
C1634 H1630 0.949 . S
C1634 C1642 1.574 . S
C1634 C1650 1.368 . S
H1635 C1643 0.950 . S
H1636 C1641 0.950 . S
H1637 C1642 0.949 . S
H1638 C1644 0.950 . S
H1639 C1645 0.950 . S
H1640 C1646 0.949 . S
C1641 H1636 0.950 . S
C1641 C1643 1.327 . S
C1641 C1647 1.429 . S
C1642 C1634 1.574 . S
C1642 H1637 0.949 . S
C1642 C1648 1.368 . S
C1643 C1627 1.349 . S
C1643 H1635 0.950 . S
C1643 C1641 1.327 . S
C1644 C1632 1.349 . S
C1644 H1638 0.950 . S
C1644 C1645 1.327 . S
C1645 H1639 0.950 . S
C1645 C1644 1.327 . S
C1645 C1649 1.429 . S
C1646 C1629 1.574 . S
C1646 H1640 0.949 . S
C1646 C1650 1.368 . S
C1647 C1628 1.429 . S
C1647 C1641 1.429 . S
C1647 C1648 1.523 . S
C1648 C1629 1.368 . S
C1648 C1642 1.368 . S
C1648 C1647 1.523 . S
C1649 C1633 1.429 . S
C1649 C1645 1.429 . S
C1649 C1650 1.523 . S
C1650 C1634 1.368 . S
C1650 C1646 1.368 . S
C1650 C1649 1.523 . S
H1651 C1626 0.950 . S
H1652 C1628 0.950 . S
H1653 C1629 0.949 . S
H1654 C1631 0.950 . S
H1655 C1633 0.950 . S
C1656 C1657 1.349 . S
C1656 C1658 1.327 . S
C1656 H1681 0.950 . S
C1657 C1656 1.349 . S
C1657 C1673 1.349 . S
C1658 C1656 1.327 . S
C1658 C1677 1.429 . S
C1658 H1682 0.950 . S
C1659 C1676 1.574 . S
C1659 C1678 1.368 . S
C1659 H1683 0.949 . S
H1660 C1664 0.949 . S
C1661 C1662 1.349 . S
C1661 C1663 1.327 . S
C1661 H1684 0.950 . S
C1662 C1661 1.349 . S
C1662 C1674 1.349 . S
C1663 C1661 1.327 . S
C1663 C1679 1.429 . S
C1663 H1685 0.950 . S
C1664 H1660 0.949 . S
C1664 C1672 1.574 . S
C1664 C1680 1.368 . S
H1665 C1673 0.950 . S
H1666 C1671 0.950 . S
H1667 C1672 0.949 . S
H1668 C1674 0.950 . S
H1669 C1675 0.950 . S
H1670 C1676 0.949 . S
C1671 H1666 0.950 . S
C1671 C1673 1.327 . S
C1671 C1677 1.429 . S
C1672 C1664 1.574 . S
C1672 H1667 0.949 . S
C1672 C1678 1.368 . S
C1673 C1657 1.349 . S
C1673 H1665 0.950 . S
C1673 C1671 1.327 . S
C1674 C1662 1.349 . S
C1674 H1668 0.950 . S
C1674 C1675 1.327 . S
C1675 H1669 0.950 . S
C1675 C1674 1.327 . S
C1675 C1679 1.429 . S
C1676 C1659 1.574 . S
C1676 H1670 0.949 . S
C1676 C1680 1.368 . S
C1677 C1658 1.429 . S
C1677 C1671 1.429 . S
C1677 C1678 1.523 . S
C1678 C1659 1.368 . S
C1678 C1672 1.368 . S
C1678 C1677 1.523 . S
C1679 C1663 1.429 . S
C1679 C1675 1.429 . S
C1679 C1680 1.523 . S
C1680 C1664 1.368 . S
C1680 C1676 1.368 . S
C1680 C1679 1.523 . S
H1681 C1656 0.950 . S
H1682 C1658 0.950 . S
H1683 C1659 0.949 . S
H1684 C1661 0.950 . S
H1685 C1663 0.950 . S
C1686 C1687 1.349 . S
C1686 C1688 1.327 . S
C1686 H1711 0.950 . S
C1687 C1686 1.349 . S
C1687 C1703 1.349 . S
C1688 C1686 1.327 . S
C1688 C1707 1.429 . S
C1688 H1712 0.950 . S
C1689 C1706 1.574 . S
C1689 C1708 1.368 1_556 S
C1689 H1713 0.949 . S
H1690 C1694 0.949 . S
C1691 C1692 1.349 . S
C1691 C1693 1.327 . S
C1691 H1714 0.950 . S
C1692 C1691 1.349 . S
C1692 C1704 1.349 . S
C1693 C1691 1.327 . S
C1693 C1709 1.429 . S
C1693 H1715 0.950 . S
C1694 H1690 0.949 . S
C1694 C1702 1.574 . S
C1694 C1710 1.368 1_554 S
H1695 C1703 0.950 . S
H1696 C1701 0.950 . S
H1697 C1702 0.949 . S
H1698 C1704 0.950 . S
H1699 C1705 0.950 . S
H1700 C1706 0.949 . S
C1701 H1696 0.950 . S
C1701 C1703 1.327 . S
C1701 C1707 1.429 . S
C1702 C1694 1.574 . S
C1702 H1697 0.949 . S
C1702 C1708 1.368 . S
C1703 C1687 1.349 . S
C1703 H1695 0.950 . S
C1703 C1701 1.327 . S
C1704 C1692 1.349 . S
C1704 H1698 0.950 . S
C1704 C1705 1.327 . S
C1705 H1699 0.950 . S
C1705 C1704 1.327 . S
C1705 C1709 1.429 . S
C1706 C1689 1.574 . S
C1706 H1700 0.949 . S
C1706 C1710 1.368 . S
C1707 C1688 1.429 . S
C1707 C1701 1.429 . S
C1707 C1708 1.523 . S
C1708 C1689 1.368 1_554 S
C1708 C1702 1.368 . S
C1708 C1707 1.523 . S
C1709 C1693 1.429 . S
C1709 C1705 1.429 . S
C1709 C1710 1.523 . S
C1710 C1694 1.368 1_556 S
C1710 C1706 1.368 . S
C1710 C1709 1.523 . S
H1711 C1686 0.950 . S
H1712 C1688 0.950 . S
H1713 C1689 0.949 . S
H1714 C1691 0.950 . S
H1715 C1693 0.950 . S
C1716 C1717 1.349 . S
C1716 C1718 1.327 . S
C1716 H1741 0.950 . S
C1717 C1716 1.349 . S
C1717 C1733 1.349 . S
C1718 C1716 1.327 . S
C1718 C1737 1.429 . S
C1718 H1742 0.950 . S
C1719 C1736 1.574 . S
C1719 C1738 1.368 . S
C1719 H1743 0.949 . S
H1720 C1724 0.949 . S
C1721 C1722 1.349 . S
C1721 C1723 1.327 . S
C1721 H1744 0.950 . S
C1722 C1721 1.349 . S
C1722 C1734 1.349 . S
C1723 C1721 1.327 . S
C1723 C1739 1.429 . S
C1723 H1745 0.950 . S
C1724 H1720 0.949 . S
C1724 C1732 1.574 . S
C1724 C1740 1.368 . S
H1725 C1733 0.950 . S
H1726 C1731 0.950 . S
H1727 C1732 0.949 . S
H1728 C1734 0.950 . S
H1729 C1735 0.950 . S
H1730 C1736 0.949 . S
C1731 H1726 0.950 . S
C1731 C1733 1.327 . S
C1731 C1737 1.429 . S
C1732 C1724 1.574 . S
C1732 H1727 0.949 . S
C1732 C1738 1.368 . S
C1733 C1717 1.349 . S
C1733 H1725 0.950 . S
C1733 C1731 1.327 . S
C1734 C1722 1.349 . S
C1734 H1728 0.950 . S
C1734 C1735 1.327 . S
C1735 H1729 0.950 . S
C1735 C1734 1.327 . S
C1735 C1739 1.429 . S
C1736 C1719 1.574 . S
C1736 H1730 0.949 . S
C1736 C1740 1.368 . S
C1737 C1718 1.429 . S
C1737 C1731 1.429 . S
C1737 C1738 1.523 . S
C1738 C1719 1.368 . S
C1738 C1732 1.368 . S
C1738 C1737 1.523 . S
C1739 C1723 1.429 . S
C1739 C1735 1.429 . S
C1739 C1740 1.523 . S
C1740 C1724 1.368 . S
C1740 C1736 1.368 . S
C1740 C1739 1.523 . S
H1741 C1716 0.950 . S
H1742 C1718 0.950 . S
H1743 C1719 0.949 . S
H1744 C1721 0.950 . S
H1745 C1723 0.950 . S
C1746 C1747 1.349 . S
C1746 C1748 1.327 . S
C1746 H1771 0.950 . S
C1747 C1746 1.349 . S
C1747 C1763 1.349 . S
C1748 C1746 1.327 . S
C1748 C1767 1.429 . S
C1748 H1772 0.950 . S
C1749 C1766 1.574 . S
C1749 C1768 1.368 . S
C1749 H1773 0.949 . S
H1750 C1754 0.949 . S
C1751 C1752 1.349 . S
C1751 C1753 1.327 . S
C1751 H1774 0.950 . S
C1752 C1751 1.349 . S
C1752 C1764 1.349 . S
C1753 C1751 1.327 . S
C1753 C1769 1.429 . S
C1753 H1775 0.950 . S
C1754 H1750 0.949 . S
C1754 C1762 1.574 . S
C1754 C1770 1.368 . S
H1755 C1763 0.950 . S
H1756 C1761 0.950 . S
H1757 C1762 0.949 . S
H1758 C1764 0.950 . S
H1759 C1765 0.950 . S
H1760 C1766 0.949 . S
C1761 H1756 0.950 . S
C1761 C1763 1.327 . S
C1761 C1767 1.429 . S
C1762 C1754 1.574 . S
C1762 H1757 0.949 . S
C1762 C1768 1.368 . S
C1763 C1747 1.349 . S
C1763 H1755 0.950 . S
C1763 C1761 1.327 . S
C1764 C1752 1.349 . S
C1764 H1758 0.950 . S
C1764 C1765 1.327 . S
C1765 H1759 0.950 . S
C1765 C1764 1.327 . S
C1765 C1769 1.429 . S
C1766 C1749 1.574 . S
C1766 H1760 0.949 . S
C1766 C1770 1.368 . S
C1767 C1748 1.429 . S
C1767 C1761 1.429 . S
C1767 C1768 1.523 . S
C1768 C1749 1.368 . S
C1768 C1762 1.368 . S
C1768 C1767 1.523 . S
C1769 C1753 1.429 . S
C1769 C1765 1.429 . S
C1769 C1770 1.523 . S
C1770 C1754 1.368 . S
C1770 C1766 1.368 . S
C1770 C1769 1.523 . S
H1771 C1746 0.950 . S
H1772 C1748 0.950 . S
H1773 C1749 0.949 . S
H1774 C1751 0.950 . S
H1775 C1753 0.950 . S
C1057 C293 1.696 . S
C1062 C20 1.696 . S
C1087 C108 1.696 . S
C1092 C372 1.696 . S
C1117 C460 1.696 . S
C1122 C205 1.696 . S
C1147 C585 1.696 . S
C1152 C849 1.696 . S
C1177 C929 1.696 . S
C1182 C665 1.696 . S
C1207 C761 1.696 . S
C1212 C1025 1.696 . S
C1237 C753 1.603 . S
C1242 C29 1.603 . S
C1267 C117 1.603 . S
C1272 C841 1.603 . S
C1297 C196 1.603 . S
C1302 C937 1.603 . S
C1327 C284 1.603 . S
C1332 C1017 1.603 . S
C1357 C577 1.603 . S
C1362 C381 1.603 . S
C1387 C673 1.603 . S
C1392 C469 1.603 . S
C1417 C636 0.862 . S
C1422 C49 0.862 . S
C1447 C137 0.862 . S
C1452 C733 0.862 . S
C1477 C233 0.862 . S
C1482 C821 0.862 . S
C1507 C321 0.862 . S
C1512 C900 0.862 . S
C1537 C997 0.862 . S
C1542 C401 0.862 . S
C1567 C489 0.862 . S
C1572 C557 0.862 . S
C1597 C909 1.011 . S
C1602 C57 1.011 . S
C1627 C988 1.012 . S
C1632 C145 1.012 . S
C1657 C548 1.011 . S
C1662 C225 1.011 . S
C1687 C313 1.011 . S
C1692 C645 1.011 . S
C1717 C409 1.011 . S
C1722 C724 1.011 . S
C1747 C497 1.011 . S
C1752 C812 1.011 . S
