# Generated by pormake.
# Topology unr, (4)-cn, num edge types: 1
# Building blocks:
#     Node 0, Type 0, BuildingBlock: TATPOV_clean_sbu_0, # of connection points: 4
#     Node 1, Type 0, BuildingBlock: TATPOV_clean_sbu_0, # of connection points: 4
#     Node 2, Type 0, BuildingBlock: TATPOV_clean_sbu_0, # of connection points: 4
#     Node 3, Type 0, BuildingBlock: TATPOV_clean_sbu_0, # of connection points: 4
#     Node 4, Type 0, BuildingBlock: TATPOV_clean_sbu_0, # of connection points: 4
#     Node 5, Type 0, BuildingBlock: TATPOV_clean_sbu_0, # of connection points: 4
#     Node 6, Type 0, BuildingBlock: TATPOV_clean_sbu_0, # of connection points: 4
#     Node 7, Type 0, BuildingBlock: TATPOV_clean_sbu_0, # of connection points: 4
#     Node 8, Type 0, BuildingBlock: TATPOV_clean_sbu_0, # of connection points: 4
#     Node 9, Type 0, BuildingBlock: TATPOV_clean_sbu_0, # of connection points: 4
#     Node 10, Type 0, BuildingBlock: TATPOV_clean_sbu_0, # of connection points: 4
#     Node 11, Type 0, BuildingBlock: TATPOV_clean_sbu_0, # of connection points: 4
#     Node 12, Type 0, BuildingBlock: TATPOV_clean_sbu_0, # of connection points: 4
#     Node 13, Type 0, BuildingBlock: TATPOV_clean_sbu_0, # of connection points: 4
#     Node 14, Type 0, BuildingBlock: TATPOV_clean_sbu_0, # of connection points: 4
#     Node 15, Type 0, BuildingBlock: TATPOV_clean_sbu_0, # of connection points: 4
#     Node 16, Type 0, BuildingBlock: TATPOV_clean_sbu_0, # of connection points: 4
#     Node 17, Type 0, BuildingBlock: TATPOV_clean_sbu_0, # of connection points: 4
#     Node 18, Type 0, BuildingBlock: TATPOV_clean_sbu_0, # of connection points: 4
#     Node 19, Type 0, BuildingBlock: TATPOV_clean_sbu_0, # of connection points: 4
#     Node 20, Type 0, BuildingBlock: TATPOV_clean_sbu_0, # of connection points: 4
#     Node 21, Type 0, BuildingBlock: TATPOV_clean_sbu_0, # of connection points: 4
#     Node 22, Type 0, BuildingBlock: TATPOV_clean_sbu_0, # of connection points: 4
#     Node 23, Type 0, BuildingBlock: TATPOV_clean_sbu_0, # of connection points: 4
#     Node 24, Type 0, BuildingBlock: TATPOV_clean_sbu_0, # of connection points: 4
#     Node 25, Type 0, BuildingBlock: TATPOV_clean_sbu_0, # of connection points: 4
#     Node 26, Type 0, BuildingBlock: TATPOV_clean_sbu_0, # of connection points: 4
#     Node 27, Type 0, BuildingBlock: TATPOV_clean_sbu_0, # of connection points: 4
#     Node 28, Type 0, BuildingBlock: TATPOV_clean_sbu_0, # of connection points: 4
#     Node 29, Type 0, BuildingBlock: TATPOV_clean_sbu_0, # of connection points: 4
#     Node 30, Type 0, BuildingBlock: TATPOV_clean_sbu_0, # of connection points: 4
#     Node 31, Type 0, BuildingBlock: TATPOV_clean_sbu_0, # of connection points: 4
#     Node 32, Type 0, BuildingBlock: TATPOV_clean_sbu_0, # of connection points: 4
#     Node 33, Type 0, BuildingBlock: TATPOV_clean_sbu_0, # of connection points: 4
#     Node 34, Type 0, BuildingBlock: TATPOV_clean_sbu_0, # of connection points: 4
#     Node 35, Type 0, BuildingBlock: TATPOV_clean_sbu_0, # of connection points: 4
#     Edge 36, Type (0, 0), BuildingBlock: CIFDUS_clean_linker_0, # of connection points: 2
#     Edge 37, Type (0, 0), BuildingBlock: CIFDUS_clean_linker_0, # of connection points: 2
#     Edge 38, Type (0, 0), BuildingBlock: CIFDUS_clean_linker_0, # of connection points: 2
#     Edge 39, Type (0, 0), BuildingBlock: CIFDUS_clean_linker_0, # of connection points: 2
#     Edge 40, Type (0, 0), BuildingBlock: CIFDUS_clean_linker_0, # of connection points: 2
#     Edge 41, Type (0, 0), BuildingBlock: CIFDUS_clean_linker_0, # of connection points: 2
#     Edge 42, Type (0, 0), BuildingBlock: CIFDUS_clean_linker_0, # of connection points: 2
#     Edge 43, Type (0, 0), BuildingBlock: CIFDUS_clean_linker_0, # of connection points: 2
#     Edge 44, Type (0, 0), BuildingBlock: CIFDUS_clean_linker_0, # of connection points: 2
#     Edge 45, Type (0, 0), BuildingBlock: CIFDUS_clean_linker_0, # of connection points: 2
#     Edge 46, Type (0, 0), BuildingBlock: CIFDUS_clean_linker_0, # of connection points: 2
#     Edge 47, Type (0, 0), BuildingBlock: CIFDUS_clean_linker_0, # of connection points: 2
#     Edge 48, Type (0, 0), BuildingBlock: CIFDUS_clean_linker_0, # of connection points: 2
#     Edge 49, Type (0, 0), BuildingBlock: CIFDUS_clean_linker_0, # of connection points: 2
#     Edge 50, Type (0, 0), BuildingBlock: CIFDUS_clean_linker_0, # of connection points: 2
#     Edge 51, Type (0, 0), BuildingBlock: CIFDUS_clean_linker_0, # of connection points: 2
#     Edge 52, Type (0, 0), BuildingBlock: CIFDUS_clean_linker_0, # of connection points: 2
#     Edge 53, Type (0, 0), BuildingBlock: CIFDUS_clean_linker_0, # of connection points: 2
#     Edge 54, Type (0, 0), BuildingBlock: CIFDUS_clean_linker_0, # of connection points: 2
#     Edge 55, Type (0, 0), BuildingBlock: CIFDUS_clean_linker_0, # of connection points: 2
#     Edge 56, Type (0, 0), BuildingBlock: CIFDUS_clean_linker_0, # of connection points: 2
#     Edge 57, Type (0, 0), BuildingBlock: CIFDUS_clean_linker_0, # of connection points: 2
#     Edge 58, Type (0, 0), BuildingBlock: CIFDUS_clean_linker_0, # of connection points: 2
#     Edge 59, Type (0, 0), BuildingBlock: CIFDUS_clean_linker_0, # of connection points: 2
#     Edge 60, Type (0, 0), BuildingBlock: CIFDUS_clean_linker_0, # of connection points: 2
#     Edge 61, Type (0, 0), BuildingBlock: CIFDUS_clean_linker_0, # of connection points: 2
#     Edge 62, Type (0, 0), BuildingBlock: CIFDUS_clean_linker_0, # of connection points: 2
#     Edge 63, Type (0, 0), BuildingBlock: CIFDUS_clean_linker_0, # of connection points: 2
#     Edge 64, Type (0, 0), BuildingBlock: CIFDUS_clean_linker_0, # of connection points: 2
#     Edge 65, Type (0, 0), BuildingBlock: CIFDUS_clean_linker_0, # of connection points: 2
#     Edge 66, Type (0, 0), BuildingBlock: CIFDUS_clean_linker_0, # of connection points: 2
#     Edge 67, Type (0, 0), BuildingBlock: CIFDUS_clean_linker_0, # of connection points: 2
#     Edge 68, Type (0, 0), BuildingBlock: CIFDUS_clean_linker_0, # of connection points: 2
#     Edge 69, Type (0, 0), BuildingBlock: CIFDUS_clean_linker_0, # of connection points: 2
#     Edge 70, Type (0, 0), BuildingBlock: CIFDUS_clean_linker_0, # of connection points: 2
#     Edge 71, Type (0, 0), BuildingBlock: CIFDUS_clean_linker_0, # of connection points: 2
#     Edge 72, Type (0, 0), BuildingBlock: CIFDUS_clean_linker_0, # of connection points: 2
#     Edge 73, Type (0, 0), BuildingBlock: CIFDUS_clean_linker_0, # of connection points: 2
#     Edge 74, Type (0, 0), BuildingBlock: CIFDUS_clean_linker_0, # of connection points: 2
#     Edge 75, Type (0, 0), BuildingBlock: CIFDUS_clean_linker_0, # of connection points: 2
#     Edge 76, Type (0, 0), BuildingBlock: CIFDUS_clean_linker_0, # of connection points: 2
#     Edge 77, Type (0, 0), BuildingBlock: CIFDUS_clean_linker_0, # of connection points: 2
#     Edge 78, Type (0, 0), BuildingBlock: CIFDUS_clean_linker_0, # of connection points: 2
#     Edge 79, Type (0, 0), BuildingBlock: CIFDUS_clean_linker_0, # of connection points: 2
#     Edge 80, Type (0, 0), BuildingBlock: CIFDUS_clean_linker_0, # of connection points: 2
#     Edge 81, Type (0, 0), BuildingBlock: CIFDUS_clean_linker_0, # of connection points: 2
#     Edge 82, Type (0, 0), BuildingBlock: CIFDUS_clean_linker_0, # of connection points: 2
#     Edge 83, Type (0, 0), BuildingBlock: CIFDUS_clean_linker_0, # of connection points: 2
#     Edge 84, Type (0, 0), BuildingBlock: CIFDUS_clean_linker_0, # of connection points: 2
#     Edge 85, Type (0, 0), BuildingBlock: CIFDUS_clean_linker_0, # of connection points: 2
#     Edge 86, Type (0, 0), BuildingBlock: CIFDUS_clean_linker_0, # of connection points: 2
#     Edge 87, Type (0, 0), BuildingBlock: CIFDUS_clean_linker_0, # of connection points: 2
#     Edge 88, Type (0, 0), BuildingBlock: CIFDUS_clean_linker_0, # of connection points: 2
#     Edge 89, Type (0, 0), BuildingBlock: CIFDUS_clean_linker_0, # of connection points: 2
#     Edge 90, Type (0, 0), BuildingBlock: CIFDUS_clean_linker_0, # of connection points: 2
#     Edge 91, Type (0, 0), BuildingBlock: CIFDUS_clean_linker_0, # of connection points: 2
#     Edge 92, Type (0, 0), BuildingBlock: CIFDUS_clean_linker_0, # of connection points: 2
#     Edge 93, Type (0, 0), BuildingBlock: CIFDUS_clean_linker_0, # of connection points: 2
#     Edge 94, Type (0, 0), BuildingBlock: CIFDUS_clean_linker_0, # of connection points: 2
#     Edge 95, Type (0, 0), BuildingBlock: CIFDUS_clean_linker_0, # of connection points: 2
#     Edge 96, Type (0, 0), BuildingBlock: CIFDUS_clean_linker_0, # of connection points: 2
#     Edge 97, Type (0, 0), BuildingBlock: CIFDUS_clean_linker_0, # of connection points: 2
#     Edge 98, Type (0, 0), BuildingBlock: CIFDUS_clean_linker_0, # of connection points: 2
#     Edge 99, Type (0, 0), BuildingBlock: CIFDUS_clean_linker_0, # of connection points: 2
#     Edge 100, Type (0, 0), BuildingBlock: CIFDUS_clean_linker_0, # of connection points: 2
#     Edge 101, Type (0, 0), BuildingBlock: CIFDUS_clean_linker_0, # of connection points: 2
#     Edge 102, Type (0, 0), BuildingBlock: CIFDUS_clean_linker_0, # of connection points: 2
#     Edge 103, Type (0, 0), BuildingBlock: CIFDUS_clean_linker_0, # of connection points: 2
#     Edge 104, Type (0, 0), BuildingBlock: CIFDUS_clean_linker_0, # of connection points: 2
#     Edge 105, Type (0, 0), BuildingBlock: CIFDUS_clean_linker_0, # of connection points: 2
#     Edge 106, Type (0, 0), BuildingBlock: CIFDUS_clean_linker_0, # of connection points: 2
#     Edge 107, Type (0, 0), BuildingBlock: CIFDUS_clean_linker_0, # of connection points: 2
# Relax obj value: 0.386
# Max RMSD: 0.219
# Mean RMSD: 0.219
data_MOF--net-unr--node1-TATPOV_clean_sbu_0--edge1-CIFDUS_clean_linker_0
_symmetry_space_group_name_H-M    P1
_symmetry_Int_Tables_number       1
_symmetry_cell_setting            triclinic
loop_
_symmetry_equiv_pos_as_xyz
'x, y, z'
_cell_length_a     41.306333
_cell_length_b     41.308053
_cell_length_c     105.149
_cell_angle_alpha  90.021629
_cell_angle_beta   89.919594
_cell_angle_gamma 119.83552
loop_
_atom_site_label
_atom_site_type_symbol
_atom_site_fract_x
_atom_site_fract_y
_atom_site_fract_z
_atom_type_partial_charge
Zn0 Zn 0.11355 0.1831 0.16778 0.0
Zn1 Zn 0.17215 0.15962 0.17102 0.0
O2 O 0.12608 0.11191 0.17688 0.0
O3 O 0.08259 0.12781 0.17392 0.0
O4 O 0.21726 0.15263 0.1728 0.0
O5 O 0.13954 0.21949 0.18161 0.0
O6 O 0.18294 0.20324 0.18363 0.0
C7 C 0.09203 0.10401 0.17728 0.0
C8 C 0.14309 0.17027 0.14696 0.0
O9 O 0.16729 0.1633 0.15158 0.0
O10 O 0.14382 0.19894 0.1514 0.0
C11 C 0.22472 0.13476 0.16453 0.0
O12 O 0.20127 0.11831 0.15512 0.0
C13 C 0.16874 0.22338 0.18694 0.0
Zn14 Zn 0.89391 0.97294 0.18114 0.0
Zn15 Zn 0.86246 0.01507 0.17878 0.0
O16 O 0.91123 0.0383 0.16784 0.0
O17 O 0.93688 0.00297 0.16972 0.0
O18 O 0.84172 0.04978 0.17538 0.0
O19 O 0.89773 0.98261 0.20022 0.0
O20 O 0.87095 0.01705 0.19822 0.0
C21 C 0.93724 0.03129 0.16504 0.0
C22 C 0.81829 0.93241 0.17197 0.0
O23 O 0.81875 0.96308 0.17389 0.0
O24 O 0.84758 0.93046 0.17374 0.0
C25 C 0.84606 0.06505 0.16451 0.0
O26 O 0.86407 0.05804 0.15561 0.0
C27 C 0.88528 0.00219 0.20521 0.0
Zn28 Zn 0.89003 0.84259 0.21422 0.0
Zn29 Zn 0.9098 0.80774 0.19732 0.0
O30 O 0.85628 0.79758 0.19351 0.0
O31 O 0.8369 0.82081 0.20844 0.0
O32 O 0.91155 0.77101 0.18507 0.0
O33 O 0.90214 0.818 0.22846 0.0
O34 O 0.92256 0.79261 0.21448 0.0
C35 C 0.83074 0.80283 0.19816 0.0
C36 C 0.9525 0.89152 0.19685 0.0
O37 O 0.94911 0.86126 0.19235 0.0
O38 O 0.93099 0.89042 0.2057 0.0
C39 C 0.89658 0.76772 0.17424 0.0
O40 O 0.88888 0.79352 0.17055 0.0
C41 C 0.91696 0.79831 0.22596 0.0
Zn42 Zn 0.06865 0.19273 0.26712 0.0
Zn43 Zn 0.1182 0.23139 0.28468 0.0
O44 O 0.07186 0.23718 0.28777 0.0
O45 O 0.03043 0.206 0.27307 0.0
O46 O 0.15406 0.26969 0.29714 0.0
O47 O 0.10385 0.22135 0.25307 0.0
O48 O 0.14784 0.2464 0.26761 0.0
C49 C 0.03966 0.22592 0.28299 0.0
C50 C 0.08637 0.14844 0.28491 0.0
O51 O 0.10667 0.17939 0.29059 0.0
O52 O 0.06924 0.14733 0.27476 0.0
C53 C 0.14262 0.27124 0.30824 0.0
O54 O 0.10959 0.24457 0.3119 0.0
C55 C 0.13785 0.24142 0.25599 0.0
Zn56 Zn 0.94769 0.04833 0.30428 0.0
Zn57 Zn 0.87478 0.00212 0.30669 0.0
O58 O 0.90456 0.98626 0.31885 0.0
O59 O 0.9647 0.02569 0.31747 0.0
O60 O 0.82132 0.96199 0.31058 0.0
O61 O 0.94346 0.03287 0.28568 0.0
O62 O 0.88231 -0.0022 0.28744 0.0
C63 C 0.93792 -0.00298 0.32244 0.0
C64 C 0.90531 0.08486 0.31092 0.0
O65 O 0.87679 0.05242 0.30997 0.0
O66 O 0.93773 0.08935 0.30938 0.0
C67 C 0.81387 0.95211 0.32218 0.0
O68 O 0.83977 0.9699 0.33079 0.0
C69 C 0.91189 0.01184 0.28066 0.0
Zn70 Zn 0.9863 0.86904 0.31316 0.0
Zn71 Zn 0.05181 0.87925 0.30752 0.0
O72 O 0.05954 0.9256 0.29836 0.0
O73 O 0.01347 0.92603 0.30894 0.0
O74 O 0.10067 0.87932 0.30731 0.0
O75 O 0.96141 0.83252 0.2994 0.0
O76 O 0.01458 0.83323 0.29669 0.0
C77 C 0.04179 0.94218 0.30166 0.0
C78 C 0.01783 0.87607 0.33396 0.0
O79 O 0.04517 0.89085 0.32624 0.0
O80 O 0.9892 0.84716 0.33013 0.0
C81 C 0.12867 0.9048 0.31318 0.0
O82 O 0.12549 0.93147 0.31883 0.0
C83 C 0.98011 0.81988 0.29397 0.0
Zn84 Zn 0.78498 0.90622 0.77906 0.0
Zn85 Zn 0.7581 0.86333 0.79715 0.0
O86 O 0.76401 0.91612 0.79978 0.0
O87 O 0.77179 0.94642 0.78201 0.0
O88 O 0.71485 0.83268 0.80894 0.0
O89 O 0.7648 0.87064 0.76443 0.0
O90 O 0.75054 0.83229 0.78056 0.0
C91 C 0.76787 0.94491 0.79395 0.0
C92 C 0.83557 0.89508 0.79784 0.0
O93 O 0.80677 0.87032 0.80364 0.0
O94 O 0.83232 0.91226 0.7883 0.0
C95 C 0.71671 0.84542 0.8201 0.0
O96 O 0.7487 0.87331 0.824 0.0
C97 C 0.75378 0.8381 0.76858 0.0
Zn98 Zn 0.12072 0.0312 0.78346 0.0
Zn99 Zn 0.11916 0.97565 0.79193 0.0
O100 O 0.06403 0.96011 0.79492 0.0
O101 O 0.07521 0.01794 0.79427 0.0
O102 O 0.1255 0.93325 0.79869 0.0
O103 O 0.11225 0.01496 0.76552 0.0
O104 O 0.13133 0.97707 0.77244 0.0
C105 C 0.05325 0.98382 0.79679 0.0
C106 C 0.16934 0.05583 0.80139 0.0
O107 O 0.14889 0.0212 0.8039 0.0
O108 O 0.17303 0.06529 0.78983 0.0
C109 C 0.11804 0.92127 0.81007 0.0
O110 O 0.10617 0.93742 0.81812 0.0
C111 C 0.12281 0.99168 0.76327 0.0
Zn112 Zn 0.98533 0.10781 0.79372 0.0
Zn113 Zn 0.0131 0.17592 0.80116 0.0
O114 O 0.04481 0.15666 0.81075 0.0
O115 O 0.02259 0.09995 0.80304 0.0
O116 O 0.03534 0.22901 0.8073 0.0
O117 O 0.99194 0.12479 0.77537 0.0
O118 O 0.02304 0.18312 0.7819 0.0
C119 C 0.04504 0.12591 0.81024 0.0
C120 C 0.93024 0.11732 0.8057 0.0
O121 O 0.9558 0.15156 0.80525 0.0
O122 O 0.93707 0.0921 0.80218 0.0
C123 C 0.0706 0.24972 0.80802 0.0
O124 O 0.0921 0.2359 0.80491 0.0
C125 C 0.0105 0.15933 0.77291 0.0
Zn126 Zn 0.92884 0.80196 0.71511 0.0
Zn127 Zn 0.87661 0.76491 0.69822 0.0
O128 O 0.92362 0.75971 0.6955 0.0
O129 O 0.96397 0.78254 0.71105 0.0
O130 O 0.83985 0.72326 0.68691 0.0
O131 O 0.89232 0.78323 0.72985 0.0
O132 O 0.84865 0.75736 0.71528 0.0
C133 C 0.95447 0.76613 0.70042 0.0
C134 C 0.91441 0.84588 0.69523 0.0
O135 O 0.88766 0.81509 0.69117 0.0
O136 O 0.9345 0.84645 0.70448 0.0
C137 C 0.85167 0.71827 0.67632 0.0
O138 O 0.88477 0.74376 0.67227 0.0
C139 C 0.85809 0.76584 0.72687 0.0
Zn140 Zn 0.07295 0.93168 0.66303 0.0
Zn141 Zn 0.14344 0.97199 0.66473 0.0
O142 O 0.12504 -0.0004 0.65235 0.0
O143 O 0.06417 0.96415 0.65136 0.0
O144 O 0.19959 0.00461 0.66432 0.0
O145 O 0.07109 0.93732 0.6824 0.0
O146 O 0.13149 0.97699 0.68306 0.0
C147 C 0.09348 0.99367 0.64818 0.0
C148 C 0.10193 0.88589 0.66024 0.0
O149 O 0.13063 0.91636 0.66365 0.0
O150 O 0.07375 0.88702 0.65616 0.0
C151 C 0.21923 0.01534 0.65425 0.0
O152 O 0.20302 0.00261 0.6432 0.0
C153 C 0.10019 0.95884 0.68869 0.0
Zn154 Zn 0.05069 0.14232 0.68038 0.0
Zn155 Zn 0.98805 0.12268 0.67211 0.0
O156 O 0.97098 0.06872 0.67569 0.0
O157 O 0.02898 0.08498 0.68059 0.0
O158 O 0.94507 0.12555 0.66403 0.0
O159 O 0.05197 0.16809 0.69641 0.0
O160 O 0.99452 0.14758 0.69002 0.0
C161 C -0.00468 0.05969 0.67864 0.0
C162 C 0.06342 0.15291 0.65641 0.0
O163 O 0.02801 0.13419 0.65787 0.0
O164 O 0.08313 0.17124 0.66577 0.0
C165 C 0.92816 0.10757 0.65409 0.0
O166 O 0.93891 0.08593 0.64857 0.0
C167 C 0.0199 0.16366 0.69844 0.0
Zn168 Zn 0.72073 0.40206 0.51736 0.0
Zn169 Zn 0.79538 0.43698 0.51655 0.0
O170 O 0.77371 0.39296 0.5036 0.0
O171 O 0.71252 0.36564 0.50359 0.0
O172 O 0.85057 0.45419 0.51522 0.0
O173 O 0.72167 0.38956 0.53597 0.0
O174 O 0.78308 0.42356 0.53562 0.0
C175 C 0.74219 0.3682 0.49922 0.0
C176 C 0.75831 0.48153 0.51026 0.0
O177 O 0.7892 0.48206 0.51163 0.0
O178 O 0.72762 0.45186 0.51226 0.0
C179 C 0.86462 0.45697 0.50422 0.0
O180 O 0.84363 0.45169 0.49419 0.0
C181 C 0.75269 0.40398 0.54171 0.0
Zn182 Zn 0.58178 0.39465 0.54479 0.0
Zn183 Zn 0.54259 0.39209 0.5254 0.0
O184 O 0.58852 0.4457 0.52688 0.0
O185 O 0.61495 0.45002 0.5453 0.0
O186 O 0.51339 0.40093 0.51179 0.0
O187 O 0.53762 0.37022 0.55614 0.0
O188 O 0.50314 0.36839 0.5399 0.0
C189 C 0.61357 0.46518 0.53504 0.0
C190 C 0.58247 0.34782 0.52395 0.0
O191 O 0.5587 0.35494 0.51879 0.0
O192 O 0.59699 0.36252 0.53456 0.0
C193 C 0.52931 0.42067 0.50202 0.0
O194 O 0.56456 0.43131 0.49986 0.0
C195 C 0.50612 0.36149 0.55151 0.0
Zn196 Zn 0.72553 0.19987 0.4937 0.0
Zn197 Zn 0.64446 0.13904 0.49461 0.0
O198 O 0.63819 0.18165 0.50127 0.0
O199 O 0.69741 0.22687 0.50043 0.0
O200 O 0.59384 0.0924 0.49473 0.0
O201 O 0.73525 0.17249 0.50716 0.0
O202 O 0.67592 0.12821 0.50782 0.0
C203 C 0.66323 0.21559 0.50297 0.0
C204 C 0.68817 0.17482 0.4718 0.0
O205 O 0.65646 0.1491 0.47544 0.0
O206 O 0.7154 0.17349 0.47659 0.0
C207 C 0.56729 0.09071 0.48813 0.0
O208 O 0.57273 0.12046 0.48181 0.0
C209 C 0.70946 0.14254 0.51192 0.0
Zn210 Zn 0.76325 0.37572 0.6413 0.0
Zn211 Zn 0.79205 0.44767 0.64399 0.0
O212 O 0.74617 0.42222 0.65634 0.0
O213 O 0.72209 0.36181 0.65371 0.0
O214 O 0.81219 0.50282 0.64708 0.0
O215 O 0.75667 0.38101 0.62226 0.0
O216 O 0.77969 0.4414 0.62488 0.0
C217 C 0.72152 0.38878 0.65916 0.0
C218 C 0.8399 0.41079 0.64808 0.0
O219 O 0.83769 0.44031 0.64672 0.0
O220 O 0.81063 0.37918 0.64738 0.0
C221 C 0.79062 0.51591 0.64933 0.0
O222 O 0.75437 0.49316 0.64955 0.0
C223 C 0.76661 0.41295 0.61761 0.0
Zn224 Zn 0.53029 0.32113 0.63031 0.0
Zn225 Zn 0.4876 0.25266 0.63262 0.0
O226 O 0.52937 0.2479 0.62381 0.0
O227 O 0.56673 0.30834 0.62133 0.0
O228 O 0.44471 0.19989 0.635 0.0
O229 O 0.49871 0.33524 0.62059 0.0
O230 O 0.4632 0.27439 0.6201 0.0
C231 C 0.56026 0.27509 0.61998 0.0
C232 C 0.52746 0.30606 0.65561 0.0
O233 O 0.50825 0.27339 0.65086 0.0
O234 O 0.53718 0.33407 0.64852 0.0
C235 C 0.42385 0.18946 0.6448 0.0
O236 O 0.43175 0.21295 0.65428 0.0
C237 C 0.4698 0.30676 0.61661 0.0
Zn238 Zn 0.7976 0.26226 0.59075 0.0
Zn239 Zn 0.77983 0.20504 0.60631 0.0
O240 O 0.82668 0.25205 0.61299 0.0
O241 O 0.84459 0.299 0.59984 0.0
O242 O 0.78157 0.16702 0.61795 0.0
O243 O 0.80008 0.23275 0.57595 0.0
O244 O 0.77865 0.18356 0.58845 0.0
C245 C 0.84937 0.28592 0.61008 0.0
C246 C 0.72478 0.23213 0.60447 0.0
O247 O 0.73261 0.20876 0.60955 0.0
O248 O 0.74726 0.25604 0.59655 0.0
C249 C 0.78887 0.17482 0.62967 0.0
O250 O 0.78708 0.20338 0.63437 0.0
C251 C 0.78861 0.19835 0.57749 0.0
Zn252 Zn 0.56998 0.22037 0.16711 0.0
Zn253 Zn 0.50405 0.19429 0.16082 0.0
O254 O 0.52496 0.24779 0.169 0.0
O255 O 0.58112 0.26651 0.17633 0.0
O256 O 0.44796 0.1728 0.16173 0.0
O257 O 0.57804 0.22243 0.14764 0.0
O258 O 0.51922 0.2011 0.14225 0.0
C259 C 0.55424 0.27242 0.17471 0.0
C260 C 0.54044 0.14837 0.17149 0.0
O261 O 0.5151 0.15168 0.16567 0.0
O262 O 0.56684 0.17707 0.17657 0.0
C263 C 0.43462 0.17665 0.17218 0.0
O264 O 0.45729 0.19194 0.18187 0.0
C265 C 0.55307 0.2128 0.13914 0.0
Zn266 Zn 0.67119 0.2065 0.10752 0.0
Zn267 Zn 0.72684 0.21066 0.11732 0.0
O268 O 0.67726 0.16321 0.12317 0.0
O269 O 0.6344 0.15195 0.10896 0.0
O270 O 0.7656 0.19952 0.1246 0.0
O271 O 0.69573 0.23027 0.09125 0.0
O272 O 0.743 0.22521 0.09824 0.0
C273 C 0.64411 0.14243 0.11904 0.0
C274 C 0.70266 0.26101 0.12777 0.0
O275 O 0.73081 0.2564 0.12658 0.0
O276 O 0.67299 0.24049 0.12165 0.0
C277 C 0.7617 0.18632 0.13579 0.0
O278 O 0.73429 0.18356 0.14292 0.0
C279 C 0.72791 0.23469 0.08949 0.0
Zn280 Zn 0.62647 0.4542 0.12579 0.0
Zn281 Zn 0.68221 0.5056 0.13651 0.0
O282 O 0.70653 0.47337 0.13568 0.0
O283 O 0.65319 0.42461 0.12992 0.0
O284 O 0.7182 0.55481 0.14469 0.0
O285 O 0.63114 0.47693 0.10877 0.0
O286 O 0.67922 0.52318 0.1182 0.0
C287 C 0.68692 0.43857 0.13347 0.0
C288 C 0.60207 0.45778 0.14858 0.0
O289 O 0.63761 0.47767 0.1493 0.0
O290 O 0.58711 0.45011 0.13772 0.0
C291 C 0.75271 0.56707 0.14677 0.0
O292 O 0.7671 0.54554 0.14453 0.0
C293 C 0.65883 0.50956 0.10836 0.0
Zn294 Zn 0.67407 0.20909 0.05302 0.0
Zn295 Zn 0.61922 0.15521 0.04399 0.0
O296 O 0.66912 0.15685 0.03871 0.0
O297 O 0.71206 0.19257 0.0523 0.0
O298 O 0.5824 0.10505 0.03652 0.0
O299 O 0.64867 0.20852 0.06908 0.0
O300 O 0.60272 0.1542 0.06302 0.0
C301 C 0.7024 0.17068 0.0429 0.0
C302 C 0.64085 0.22862 0.03252 0.0
O303 O 0.61377 0.19558 0.03417 0.0
O304 O 0.67115 0.23942 0.03847 0.0
C305 C 0.5865 0.10011 0.02481 0.0
O306 O 0.61106 0.12866 0.01809 0.0
C307 C 0.61738 0.18016 0.07134 0.0
Zn308 Zn 0.77743 0.3102 -0.00672 0.0
Zn309 Zn 0.84463 0.35063 -0.00069 0.0
O310 O 0.82704 0.38201 0.98845 0.0
O311 O 0.76917 0.34481 0.98261 0.0
O312 O 0.90052 0.38521 -9e-05 0.0
O313 O 0.76756 0.30717 0.01255 0.0
O314 O 0.82644 0.3452 0.0176 0.0
C315 C 0.79777 0.37685 0.98257 0.0
C316 C 0.80932 0.26775 0.99013 0.0
O317 O 0.83513 0.29705 -0.00454 0.0
O318 O 0.7824 0.26933 0.98509 0.0
C319 C 0.91781 0.39909 0.98953 0.0
O320 O 0.89925 0.388 0.97879 0.0
C321 C 0.79259 0.32419 0.02089 0.0
Zn322 Zn 0.73883 0.51097 0.01935 0.0
Zn323 Zn 0.67864 0.49258 0.00865 0.0
O324 O 0.66143 0.43761 0.01075 0.0
O325 O 0.7186 0.45431 0.01706 0.0
O326 O 0.6397 0.49991 -0.00036 0.0
O327 O 0.73246 0.53136 0.03571 0.0
O328 O 0.67878 0.51427 0.02653 0.0
C329 C 0.6861 0.42902 0.01374 0.0
C330 C 0.75902 0.52966 -0.00395 0.0
O331 O 0.72344 0.50966 -0.00396 0.0
O332 O 0.77504 0.54511 0.00633 0.0
C333 C 0.60509 0.4816 0.00233 0.0
O334 O 0.59287 0.45334 0.01026 0.0
C335 C 0.70041 0.52803 0.03608 0.0
Zn336 Zn 0.43024 0.84729 0.86886 0.0
Zn337 Zn 0.4763 0.82916 0.86093 0.0
O338 O 0.43659 0.77565 0.86275 0.0
O339 O 0.39389 0.7902 0.86821 0.0
O340 O 0.52143 0.82835 0.85379 0.0
O341 O 0.45384 0.87115 0.88525 0.0
O342 O 0.4909 0.84988 0.87948 0.0
C343 C 0.40294 0.76571 0.86552 0.0
C344 C 0.43818 0.86541 0.84458 0.0
O345 O 0.4553 0.8471 0.84614 0.0
O346 O 0.43029 0.8782 0.85428 0.0
C347 C 0.51814 0.80809 0.84422 0.0
O348 O 0.48514 0.78818 0.83895 0.0
C349 C 0.48033 0.86528 0.88778 0.0
Zn350 Zn 0.19925 0.66473 0.84179 0.0
Zn351 Zn 0.17473 0.70921 0.83841 0.0
O352 O 0.22536 0.73134 0.82847 0.0
O353 O 0.24726 0.69372 0.83248 0.0
O354 O 0.15422 0.74236 0.83271 0.0
O355 O 0.19516 0.67355 0.86091 0.0
O356 O 0.18568 0.72065 0.85713 0.0
C357 C 0.25111 0.72299 0.82727 0.0
C358 C 0.12754 0.62217 0.83551 0.0
O359 O 0.1304 0.65377 0.83801 0.0
O360 O 0.1569 0.62084 0.8333 0.0
C361 C 0.15589 0.75112 0.82103 0.0
O362 O 0.16847 0.73614 0.81276 0.0
C363 C 0.19088 0.70017 0.86495 0.0
Zn364 Zn 0.17048 0.49761 0.88796 0.0
Zn365 Zn 0.1941 0.48053 0.86666 0.0
O366 O 0.14133 0.47253 0.86493 0.0
O367 O 0.11643 0.4784 0.88252 0.0
O368 O 0.19739 0.45144 0.85177 0.0
O369 O 0.19048 0.471 0.8993 0.0
O370 O 0.2134 0.46319 0.88148 0.0
C371 C 0.11392 0.47192 0.87068 0.0
C372 C 0.22995 0.56019 0.87219 0.0
O373 O 0.22963 0.53575 0.8647 0.0
O374 O 0.20827 0.55054 0.88177 0.0
C375 C 0.17877 0.44767 0.84172 0.0
O376 O 0.16279 0.46808 0.84026 0.0
C377 C 0.21109 0.461 0.89354 0.0
Zn378 Zn 0.43592 0.75907 0.98171 0.0
Zn379 Zn 0.47352 0.82769 0.98702 0.0
O380 O 0.41845 0.80789 -0.00683 0.0
O381 O 0.38635 0.74883 0.98776 0.0
O382 O 0.49986 0.87986 -0.00558 0.0
O383 O 0.45317 0.77515 0.96329 0.0
O384 O 0.47737 0.83481 0.96782 0.0
C385 C 0.38752 0.77717 -0.00727 0.0
C386 C 0.49813 0.7701 -0.00583 0.0
O387 O 0.50641 0.80354 0.99157 0.0
O388 O 0.46481 0.74419 -0.00705 0.0
C389 C 0.49416 0.88444 0.00601 0.0
O390 O 0.47329 0.85491 0.01302 0.0
C391 C 0.46924 0.809 0.95971 0.0
Zn392 Zn 0.22138 0.73975 0.9627 0.0
Zn393 Zn 0.16636 0.65738 0.96703 0.0
O394 O 0.21536 0.65854 0.96982 0.0
O395 O 0.25631 0.71871 0.96721 0.0
O396 O 0.12483 0.60359 0.96814 0.0
O397 O 0.20427 0.73061 0.94445 0.0
O398 O 0.16418 0.6711 0.94827 0.0
C399 C 0.24894 0.68544 0.96951 0.0
C400 C 0.17935 0.71777 0.98433 0.0
O401 O 0.15636 0.6839 0.98178 0.0
O402 O 0.18446 0.74055 0.9755 0.0
C403 C 0.11237 0.5856 0.97849 0.0
O404 O 0.12808 0.6018 0.98928 0.0
C405 C 0.17975 0.69862 0.94057 0.0
Zn406 Zn 0.42662 0.59133 0.94659 0.0
Zn407 Zn 0.4145 0.55381 0.96635 0.0
O408 O 0.4666 0.60204 0.96536 0.0
O409 O 0.48231 0.62656 0.94641 0.0
O410 O 0.4249 0.52015 0.97759 0.0
O411 O 0.39937 0.55023 0.9338 0.0
O412 O 0.37998 0.52014 0.95186 0.0
C413 C 0.49052 0.62714 0.95802 0.0
C414 C 0.37934 0.59683 0.96824 0.0
O415 O 0.38261 0.57215 0.97449 0.0
O416 O 0.39491 0.60764 0.9574 0.0
C417 C 0.44948 0.53597 0.98618 0.0
O418 O 0.46094 0.57102 0.98895 0.0
C419 C 0.37675 0.52117 0.93983 0.0
Zn420 Zn 0.20971 0.54303 0.48991 0.0
Zn421 Zn 0.13933 0.51224 0.49152 0.0
O422 O 0.16099 0.56148 0.50202 0.0
O423 O 0.22132 0.59069 0.49852 0.0
O424 O 0.08407 0.48756 0.49531 0.0
O425 O 0.19983 0.53589 0.47052 0.0
O426 O 0.1422 0.52483 0.47289 0.0
C427 C 0.19315 0.59023 0.50342 0.0
C428 C 0.18604 0.47283 0.49583 0.0
O429 O 0.15644 0.47222 0.49198 0.0
O430 O 0.21238 0.50323 0.49998 0.0
C431 C 0.07195 0.48832 0.50637 0.0
O432 O 0.09562 0.50156 0.51588 0.0
C433 C 0.16931 0.53043 0.46571 0.0
Zn434 Zn 0.35725 0.54063 0.43123 0.0
Zn435 Zn 0.39611 0.53934 0.44993 0.0
O436 O 0.34272 0.4938 0.45157 0.0
O437 O 0.30959 0.4928 0.43519 0.0
O438 O 0.42575 0.525 0.46165 0.0
O439 O 0.39259 0.54581 0.41716 0.0
O440 O 0.42935 0.5584 0.43365 0.0
C441 C 0.3116 0.47905 0.44571 0.0
C442 C 0.37969 0.60026 0.45094 0.0
O443 O 0.39301 0.58322 0.45725 0.0
O444 O 0.3654 0.58865 0.44003 0.0
C445 C 0.41207 0.50843 0.47214 0.0
O446 O 0.37982 0.50407 0.47593 0.0
C447 C 0.4251 0.55865 0.42164 0.0
Zn448 Zn 0.26993 0.77348 0.46306 0.0
Zn449 Zn 0.3313 0.82975 0.46794 0.0
O450 O 0.35348 0.79745 0.4627 0.0
O451 O 0.29926 0.74525 0.46316 0.0
O452 O 0.37478 0.8791 0.47345 0.0
O453 O 0.26095 0.79157 0.44665 0.0
O454 O 0.31199 0.84335 0.4516 0.0
C455 C 0.33457 0.76199 0.46223 0.0
C456 C 0.2666 0.785 0.48754 0.0
O457 O 0.30093 0.80559 0.48456 0.0
O458 O 0.24259 0.77342 0.47876 0.0
C459 C 0.39835 0.88136 0.48168 0.0
O460 O 0.39415 0.85061 0.4869 0.0
C461 C 0.28494 0.82485 0.44396 0.0
Zn462 Zn 0.19482 0.56937 0.36935 0.0
Zn463 Zn 0.19866 0.51379 0.36291 0.0
O464 O 0.25473 0.54601 0.36233 0.0
O465 O 0.25011 0.59678 0.36373 0.0
O466 O 0.18505 0.46218 0.35669 0.0
O467 O 0.18223 0.55821 0.38744 0.0
O468 O 0.18217 0.5067 0.38216 0.0
C469 C 0.26983 0.58141 0.36186 0.0
C470 C 0.16515 0.55517 0.3473 0.0
O471 O 0.18264 0.53708 0.34825 0.0
O472 O 0.15432 0.56322 0.35742 0.0
C473 C 0.20379 0.45638 0.34829 0.0
O474 O 0.23382 0.48494 0.34351 0.0
C475 C 0.17792 0.52681 0.39051 0.0
Zn476 Zn 0.54038 0.78985 0.37994 0.0
Zn477 Zn 0.55845 0.7734 0.36043 0.0
O478 O 0.5589 0.82428 0.35999 0.0
O479 O 0.5613 0.84527 0.3792 0.0
O480 O 0.60081 0.78397 0.34848 0.0
O481 O 0.55591 0.76607 0.39333 0.0
O482 O 0.56039 0.74107 0.37553 0.0
C483 C 0.56132 0.84996 0.36733 0.0
C484 C 0.48176 0.73784 0.36045 0.0
O485 O 0.50771 0.73894 0.35358 0.0
O486 O 0.48935 0.75632 0.37079 0.0
C487 C 0.60348 0.80002 0.33789 0.0
O488 O 0.57498 0.80297 0.33384 0.0
C489 C 0.55949 0.74105 0.38767 0.0
Zn490 Zn 0.34077 0.79746 0.3571 0.0
Zn491 Zn 0.32004 0.83111 0.34352 0.0
O492 O 0.292 0.77608 0.33688 0.0
O493 O 0.32751 0.75563 0.34481 0.0
O494 O 0.29738 0.85609 0.3332 0.0
O495 O 0.30623 0.79116 0.37141 0.0
O496 O 0.30508 0.83789 0.36189 0.0
C497 C 0.30129 0.75094 0.33749 0.0
C498 C 0.40226 0.86241 0.34795 0.0
O499 O 0.37763 0.85996 0.34008 0.0
O500 O 0.39246 0.84089 0.35746 0.0
C501 C 0.2818 0.844 0.32247 0.0
O502 O 0.28392 0.81648 0.31703 0.0
C503 C 0.29783 0.81666 0.37152 0.0
H504 H 0.07834 0.17123 0.14365 0.0
H505 H 0.12176 0.09548 0.14592 0.0
H506 H 0.05881 0.04342 0.14947 0.0
H507 H 0.99491 0.0227 0.15674 0.0
H508 H 0.9529 0.09981 0.15615 0.0
H509 H 0.01201 0.14813 0.14733 0.0
C510 C 0.07406 0.14324 0.1447 0.0
C511 C 0.10504 0.13764 0.14518 0.0
C512 C 0.03814 0.11382 0.1474 0.0
C513 C 0.09866 0.1009 0.14593 0.0
C514 C 0.06263 0.07109 0.14804 0.0
C515 C -0.00166 0.04983 0.15444 0.0
C516 C 0.96981 0.0579 0.1574 0.0
C517 C 0.03267 0.07773 0.14962 0.0
C518 C 0.97457 0.093 0.15416 0.0
C519 C 0.00839 0.12068 0.14912 0.0
H520 H 0.79803 0.87262 0.15637 0.0
H521 H 0.75879 0.91003 0.18781 0.0
H522 H 0.74493 0.85426 0.1998 0.0
H523 H 0.77329 0.81509 0.20415 0.0
H524 H 0.81831 0.78165 0.17308 0.0
H525 H 0.79938 0.81387 0.15809 0.0
C526 C 0.78385 0.86712 0.16548 0.0
C527 C 0.78291 0.89664 0.1718 0.0
C528 C 0.77888 0.83629 0.17264 0.0
C529 C 0.76204 0.88849 0.18309 0.0
C530 C 0.75496 0.85689 0.19012 0.0
C531 C 0.77719 0.81315 0.19403 0.0
C532 C 0.80005 0.79893 0.18981 0.0
C533 C 0.76786 0.83342 0.18553 0.0
C534 C 0.80278 0.79448 0.17665 0.0
C535 C 0.79215 0.81319 0.16804 0.0
H536 H 0.09202 0.03807 0.17545 0.0
H537 H 0.02545 0.08568 0.18825 0.0
H538 H 0.97668 0.02441 0.19542 0.0
H539 H 0.95304 0.95739 0.19825 0.0
H540 H 0.0173 0.90842 0.18433 0.0
H541 H 0.0666 0.96992 0.17727 0.0
C542 C 0.0669 0.03498 0.17987 0.0
C543 C 0.06264 0.0665 0.18149 0.0
C544 C 0.03842 -0.00064 0.18368 0.0
C545 C 0.02955 0.06194 0.18697 0.0
C546 C 0.00162 0.02689 0.19106 0.0
C547 C 0.97783 0.96013 0.19368 0.0
C548 C 0.98162 0.92836 0.19194 0.0
C549 C 0.00577 0.99543 0.1895 0.0
C550 C 0.01367 0.93238 0.1858 0.0
C551 C 0.04193 0.96758 0.1818 0.0
H552 H 0.08653 0.09168 0.2722 0.0
H553 H 0.07347 0.12611 0.30964 0.0
H554 H 0.05761 0.06471 0.31819 0.0
H555 H 0.04525 0.00034 0.31472 0.0
H556 H 0.0645 0.96831 0.27771 0.0
H557 H 0.08027 0.02964 0.26921 0.0
C558 C 0.08056 0.08575 0.28225 0.0
C559 C 0.08099 0.11313 0.2903 0.0
C560 C 0.07242 0.05082 0.28712 0.0
C561 C 0.07353 0.10543 0.30332 0.0
C562 C 0.06424 0.07031 0.30817 0.0
C563 C 0.05305 0.00697 0.30482 0.0
C564 C 0.05341 0.97992 0.2968 0.0
C565 C 0.06323 0.04266 0.30013 0.0
C566 C 0.0641 0.98882 0.28404 0.0
C567 C 0.073 0.02379 0.27918 0.0
H568 H 0.94019 0.14823 0.32504 0.0
H569 H 0.86522 0.09876 0.29356 0.0
H570 H 0.9014 0.15494 0.28097 0.0
H571 H 0.96701 0.2018 0.27663 0.0
H572 H 0.04438 0.24816 0.30785 0.0
H573 H 0.99472 0.21119 0.32285 0.0
C574 C 0.93031 0.15092 0.31576 0.0
C575 C 0.90216 0.11871 0.3098 0.0
C576 C 0.95302 0.18239 0.3083 0.0
C577 C 0.88807 0.12278 0.29813 0.0
C578 C 0.90939 0.15472 0.29077 0.0
C579 C 0.97261 0.20534 0.28677 0.0
C580 C 0.0098 0.2252 0.29107 0.0
C581 C 0.94418 0.18249 0.29531 0.0
C582 C 0.0163 0.23134 0.30422 0.0
C583 C 0.98786 0.20989 0.31285 0.0
H584 H 0.00512 0.0132 0.33236 0.0
H585 H 0.88867 0.92837 0.33224 0.0
H586 H 0.90436 0.88373 0.34143 0.0
H587 H 0.95177 0.8653 0.34359 0.0
H588 H 0.06836 0.94841 0.3408 0.0
H589 H 0.05205 -0.0025 0.33976 0.0
C590 C 0.98304 0.9852 0.33462 0.0
C591 C 0.94595 0.97369 0.33113 0.0
C592 C 0.9924 0.95927 0.33946 0.0
C593 C 0.91757 0.9377 0.33451 0.0
C594 C 0.92654 0.91211 0.33977 0.0
C595 C 0.97381 0.89426 0.34323 0.0
C596 C 0.0111 0.90294 0.34133 0.0
C597 C 0.96404 0.92195 0.34144 0.0
C598 C 0.03926 0.94071 0.34171 0.0
C599 C 0.0299 0.96883 0.34086 0.0
H600 H 0.89327 0.96313 0.80229 0.0
H601 H 0.86214 0.84702 0.8013 0.0
H602 H 0.92817 0.86405 0.80234 0.0
H603 H 0.99474 0.91278 0.80038 0.0
H604 H 0.02429 0.02886 0.80172 0.0
H605 H 0.95902 0.01106 0.80394 0.0
C606 C 0.90104 0.94161 0.80264 0.0
C607 C 0.87332 0.90403 0.80164 0.0
C608 C 0.93875 0.95164 0.80314 0.0
C609 C 0.88328 0.87616 0.80214 0.0
C610 C 0.92096 0.88593 0.80261 0.0
C611 C 0.98692 0.93412 0.80139 0.0
C612 C 0.01437 0.97208 0.80054 0.0
C613 C 0.94901 0.92369 0.80263 0.0
C614 C 0.00378 -0.00059 0.80208 0.0
C615 C 0.96638 0.98931 0.80335 0.0
H616 H 0.12023 0.16656 0.80816 0.0
H617 H 0.03115 0.07052 0.8267 0.0
H618 H 0.07236 0.04507 0.83047 0.0
H619 H 0.12533 0.04114 0.82231 0.0
H620 H 0.21051 0.13235 0.80063 0.0
H621 H 0.18119 0.16982 0.80511 0.0
C622 C 0.11062 0.1411 0.81362 0.0
C623 C 0.07283 0.1202 0.81708 0.0
C624 C 0.13393 0.12549 0.81503 0.0
C625 C 0.06025 0.08697 0.82397 0.0
C626 C 0.08375 0.07227 0.82603 0.0
C627 C 0.1386 0.06986 0.81906 0.0
C628 C 0.16873 0.08309 0.81047 0.0
C629 C 0.11962 0.08986 0.82069 0.0
C630 C 0.18647 0.12095 0.80689 0.0
C631 C 0.16921 0.14217 0.80923 0.0
H632 H 0.7839 0.01355 0.78496 0.0
H633 H 0.78034 0.95555 0.81953 0.0
H634 H 0.82755 0.0137 0.82897 0.0
H635 H 0.88341 0.074 0.8242 0.0
H636 H 0.88826 0.13162 0.78957 0.0
H637 H 0.82637 0.08156 0.7836 0.0
C638 C 0.79216 0.01387 0.79476 0.0
C639 C 0.78012 0.97991 0.80125 0.0
C640 C 0.82018 0.04745 0.80007 0.0
C641 C 0.79009 0.98104 0.81411 0.0
C642 C 0.8174 0.01438 0.81953 0.0
C643 C 0.86974 0.07675 0.81579 0.0
C644 C 0.89058 0.10574 0.80715 0.0
C645 C 0.83486 0.04694 0.81217 0.0
C646 C 0.87274 0.10935 0.79633 0.0
C647 C 0.83761 0.08022 0.79277 0.0
H648 H 0.92542 -0.00206 0.67945 0.0
H649 H 0.04274 0.03224 0.68018 0.0
H650 H 0.02765 0.96829 0.6838 0.0
H651 H 0.98182 0.90388 0.6896 0.0
H652 H 0.86446 0.86781 0.68836 0.0
H653 H 0.8788 0.93103 0.68235 0.0
C654 C 0.94764 0.99133 0.6804 0.0
C655 C 0.98517 0.02007 0.6799 0.0
C656 C 0.93881 0.95424 0.6827 0.0
C657 C 0.01362 0.01092 0.68089 0.0
C658 C 0.00506 0.97426 0.68301 0.0
C659 C 0.95943 0.90986 0.68785 0.0
C660 C 0.92225 0.88166 0.68957 0.0
C661 C 0.96789 0.94597 0.68438 0.0
C662 C 0.89332 0.88928 0.68708 0.0
C663 C 0.90154 0.92542 0.68374 0.0
H664 H 0.05043 0.81476 0.65351 0.0
H665 H 0.13401 0.87716 0.68177 0.0
H666 H 0.09463 0.83422 0.69821 0.0
H667 H 0.02913 0.79532 0.70498 0.0
H668 H 0.94447 0.73488 0.67675 0.0
H669 H 0.99143 0.75978 0.66001 0.0
C670 C 0.06094 0.81768 0.66314 0.0
C671 C 0.09396 0.85049 0.66654 0.0
C672 C 0.03708 0.79402 0.67271 0.0
C673 C 0.10802 0.85299 0.67891 0.0
C674 C 0.08508 0.82873 0.68844 0.0
C675 C 0.0211 0.78619 0.69525 0.0
C676 C 0.98299 0.76506 0.69205 0.0
C677 C 0.04821 0.8016 0.68558 0.0
C678 C 0.97339 0.75247 0.67943 0.0
C679 C 0.0003 0.76684 0.66981 0.0
H680 H 0.02846 0.09615 0.63931 0.0
H681 H 0.13797 0.17761 0.65258 0.0
H682 H 0.16096 0.13477 0.64805 0.0
H683 H 0.14406 0.06843 0.64715 0.0
H684 H 0.03312 0.98628 0.63524 0.0
H685 H 0.01689 0.03489 0.63234 0.0
C686 C 0.0578 0.10529 0.64069 0.0
C687 C 0.08082 0.13918 0.64702 0.0
C688 C 0.07031 0.07964 0.63876 0.0
C689 C 0.11913 0.15109 0.64817 0.0
C690 C 0.13224 0.1263 0.64576 0.0
C691 C 0.11685 0.06134 0.64343 0.0
C692 C 0.08943 0.02361 0.64188 0.0
C693 C 0.10719 0.08943 0.64215 0.0
C694 C 0.05448 0.01501 0.63685 0.0
C695 C 0.04507 0.04284 0.63521 0.0
H696 H 0.63364 0.49346 0.51108 0.0
H697 H 0.6704 0.51598 0.55007 0.0
H698 H 0.73514 0.5447 0.5432 0.0
H699 H 0.77398 0.53533 0.5276 0.0
H700 H 0.73461 0.50341 0.48941 0.0
H701 H 0.67984 0.509 0.49404 0.0
C702 C 0.65584 0.50643 0.51805 0.0
C703 C 0.64729 0.50022 0.53109 0.0
C704 C 0.69294 0.52056 0.51406 0.0
C705 C 0.6763 0.5188 0.53996 0.0
C706 C 0.71346 0.53496 0.53604 0.0
C707 C 0.7547 0.53226 0.52007 0.0
C708 C 0.75611 0.51567 0.50858 0.0
C709 C 0.72148 0.53187 0.52329 0.0
C710 C 0.73277 0.5142 0.49861 0.0
C711 C 0.70078 0.51638 0.50138 0.0
H712 H 0.64427 0.34294 0.52868 0.0
H713 H 0.54403 0.29366 0.50601 0.0
H714 H 0.55944 0.24738 0.49778 0.0
H715 H 0.60091 0.21988 0.49754 0.0
H716 H 0.7029 0.27256 0.51925 0.0
H717 H 0.68682 0.31787 0.52762 0.0
C718 C 0.62576 0.32213 0.52191 0.0
C719 C 0.59286 0.3216 0.51804 0.0
C720 C 0.63491 0.29591 0.51719 0.0
C721 C 0.56953 0.29475 0.50913 0.0
C722 C 0.57824 0.26816 0.50448 0.0
C723 C 0.61946 0.2413 0.50413 0.0
C724 C 0.65282 0.24268 0.50791 0.0
C725 C 0.61069 0.26824 0.50854 0.0
C726 C 0.67703 0.27089 0.51625 0.0
C727 C 0.66787 0.29684 0.52102 0.0
H728 H 0.75323 0.24106 0.47142 0.0
H729 H 0.63379 0.195 0.47007 0.0
H730 H 0.64148 0.25563 0.47596 0.0
H731 H 0.68026 0.31528 0.48699 0.0
H732 H 0.79902 0.35858 0.49032 0.0
H733 H 0.79327 0.30516 0.47851 0.0
C734 C 0.72882 0.24433 0.47219 0.0
C735 C 0.69284 0.21291 0.47104 0.0
C736 C 0.73324 0.27848 0.47641 0.0
C737 C 0.66175 0.21827 0.47139 0.0
C738 C 0.66612 0.25293 0.47485 0.0
C739 C 0.70504 0.31348 0.4849 0.0
C740 C 0.73987 0.34031 0.48987 0.0
C741 C 0.70143 0.28223 0.47835 0.0
C742 C 0.77177 0.33795 0.48684 0.0
C743 C 0.76852 0.3074 0.48007 0.0
H744 H 0.86353 0.36582 0.65842 0.0
H745 H 0.89564 0.45566 0.63177 0.0
H746 H 0.9149 0.42416 0.61654 0.0
H747 H 0.89589 0.3613 0.60835 0.0
H748 H 0.858 0.26924 0.63463 0.0
H749 H 0.86867 0.3111 0.65238 0.0
C750 C 0.87712 0.3796 0.64961 0.0
C751 C 0.87541 0.41131 0.64574 0.0
C752 C 0.88531 0.35977 0.64054 0.0
C753 C 0.89494 0.43018 0.63471 0.0
C754 C 0.90517 0.41166 0.62583 0.0
C755 C 0.8916 0.35065 0.618 0.0
C756 C 0.87376 0.31187 0.62011 0.0
C757 C 0.89627 0.37468 0.62816 0.0
C758 C 0.87006 0.29876 0.63268 0.0
C759 C 0.87601 0.32273 0.64288 0.0
H760 H 0.5684 0.37056 0.66884 0.0
H761 H 0.54099 0.25543 0.66805 0.0
H762 H 0.60526 0.27372 0.67321 0.0
H763 H 0.67018 0.32226 0.66923 0.0
H764 H 0.69794 0.43747 0.66645 0.0
H765 H 0.63349 0.4198 0.67138 0.0
C766 C 0.57613 0.34933 0.67043 0.0
C767 C 0.55085 0.31205 0.66703 0.0
C768 C 0.61397 0.36046 0.67208 0.0
C769 C 0.56036 0.2846 0.66996 0.0
C770 C 0.59748 0.29516 0.67264 0.0
C771 C 0.66242 0.34368 0.67013 0.0
C772 C 0.68834 0.38089 0.66689 0.0
C773 C 0.62492 0.33307 0.67229 0.0
C774 C 0.67829 0.4085 0.66855 0.0
C775 C 0.64131 0.39835 0.67131 0.0
H776 H 0.70398 0.28186 0.5967 0.0
H777 H 0.66726 0.18362 0.61999 0.0
H778 H 0.61137 0.1863 0.62604 0.0
H779 H 0.57428 0.21852 0.62547 0.0
H780 H 0.61357 0.31832 0.60288 0.0
H781 H 0.66647 0.31253 0.59561 0.0
C782 C 0.68372 0.26081 0.60305 0.0
C783 C 0.69 0.23258 0.60789 0.0
C784 C 0.65194 0.26276 0.60659 0.0
C785 C 0.66331 0.20572 0.61613 0.0
C786 C 0.63128 0.20722 0.61959 0.0
C787 C 0.59422 0.23866 0.61882 0.0
C788 C 0.58992 0.26876 0.61468 0.0
C789 C 0.62544 0.23583 0.61497 0.0
C790 C 0.61627 0.29497 0.60623 0.0
C791 C 0.64667 0.29177 0.6021 0.0
H792 H 0.6517 0.12691 0.14377 0.0
H793 H 0.56928 0.09895 0.11435 0.0
H794 H 0.52124 0.08391 0.13036 0.0
H795 H 0.50921 0.09989 0.15163 0.0
H796 H 0.59303 0.13236 0.18078 0.0
H797 H 0.63279 0.12188 0.16622 0.0
C798 C 0.62294 0.11592 0.14084 0.0
C799 C 0.61453 0.11618 0.12787 0.0
C800 C 0.59559 0.10854 0.15013 0.0
C801 C 0.57687 0.10054 0.12428 0.0
C802 C 0.54929 0.09204 0.13346 0.0
C803 C 0.53534 0.10289 0.15505 0.0
C804 C 0.54928 0.11947 0.167 0.0
C805 C 0.55914 0.09919 0.14633 0.0
C806 C 0.58226 0.12117 0.17143 0.0
C807 C 0.60541 0.11581 0.16301 0.0
H808 H 0.75438 0.33421 0.12527 0.0
H809 H 0.65324 0.25821 0.145 0.0
H810 H 0.64186 0.30932 0.15019 0.0
H811 H 0.65404 0.3723 0.14524 0.0
H812 H 0.75414 0.44894 0.12512 0.0
H813 H 0.77298 0.40121 0.12396 0.0
C814 C 0.73085 0.32933 0.13119 0.0
C815 C 0.7045 0.29269 0.13474 0.0
C816 C 0.72382 0.35875 0.13371 0.0
C817 C 0.67374 0.28634 0.14222 0.0
C818 C 0.66706 0.31545 0.14505 0.0
C819 C 0.68038 0.3787 0.14085 0.0
C820 C 0.70241 0.41354 0.13504 0.0
C821 C 0.69077 0.35124 0.14021 0.0
C822 C 0.73674 0.42206 0.12957 0.0
C823 C 0.74738 0.39476 0.12887 0.0
H824 H 0.50902 0.30057 0.1681 0.0
H825 H 0.61409 0.33076 0.18617 0.0
H826 H 0.63496 0.39654 0.18295 0.0
H827 H 0.62998 0.4427 0.1698 0.0
H828 H 0.5264 0.41237 0.15069 0.0
H829 H 0.49788 0.35026 0.16009 0.0
C830 C 0.53594 0.32154 0.17175 0.0
C831 C 0.56047 0.31062 0.17692 0.0
C832 C 0.54831 0.35955 0.16956 0.0
C833 C 0.59494 0.33825 0.18184 0.0
C834 C 0.60704 0.37603 0.17997 0.0
C835 C 0.60066 0.42317 0.16814 0.0
C836 C 0.58093 0.43162 0.15907 0.0
C837 C 0.58499 0.38679 0.17304 0.0
C838 C 0.54263 0.40625 0.15735 0.0
C839 C 0.52639 0.37043 0.16259 0.0
H840 H 0.62092 0.36458 0.01917 0.0
H841 H 0.73456 0.40655 0.00677 0.0
H842 H 0.72734 0.34465 0.00886 0.0
H843 H 0.69279 0.28179 0.01771 0.0
H844 H 0.58068 0.23946 0.03148 0.0
H845 H 0.58262 0.29755 0.02508 0.0
C846 C 0.64373 0.35984 0.01671 0.0
C847 C 0.67847 0.39015 0.01312 0.0
C848 C 0.63972 0.32412 0.01828 0.0
C849 C 0.70784 0.38377 0.00987 0.0
C850 C 0.70373 0.34836 0.01102 0.0
C851 C 0.66846 0.285 0.01898 0.0
C852 C 0.63688 0.25683 0.02517 0.0
C853 C 0.67042 0.3188 0.01575 0.0
C854 C 0.60527 0.26083 0.02667 0.0
C855 C 0.60661 0.29425 0.02318 0.0
H856 H 0.83994 0.25273 0.01074 0.0
H857 H 0.75783 0.19822 0.98133 0.0
H858 H 0.71616 0.15138 -0.00352 0.0
H859 H 0.69548 0.14284 0.01884 0.0
H860 H 0.77653 0.20001 0.04839 0.0
H861 H 0.82594 0.22854 0.03255 0.0
C862 C 0.81378 0.22952 0.00745 0.0
C863 C 0.80073 0.23066 -0.00483 0.0
C864 C 0.78892 0.20411 0.01645 0.0
C865 C 0.76783 0.19908 0.99091 0.0
C866 C 0.74356 0.17259 -0.00034 0.0
C867 C 0.72418 0.16016 0.02189 0.0
C868 C 0.73199 0.1712 0.03471 0.0
C869 C 0.75239 0.17734 0.01265 0.0
C870 C 0.76951 0.19251 0.03851 0.0
C871 C 0.79787 0.20892 0.02942 0.0
H872 H 0.84597 0.45147 0.98605 0.0
H873 H 0.74105 0.37404 0.96851 0.0
H874 H 0.72421 0.42256 0.96715 0.0
H875 H 0.73174 0.48014 0.97639 0.0
H876 H 0.83466 0.55624 -0.00476 0.0
H877 H 0.86055 0.51632 0.98989 0.0
C878 C 0.82003 0.44556 0.98152 0.0
C879 C 0.79424 0.40879 0.97784 0.0
C880 C 0.80991 0.47344 0.98108 0.0
C881 C 0.76105 0.40184 0.97175 0.0
C882 C 0.75129 0.42962 0.97098 0.0
C883 C 0.76043 0.48892 0.97887 0.0
C884 C 0.78035 0.52 0.98687 0.0
C885 C 0.77435 0.46467 0.97644 0.0
C886 C 0.81805 0.53171 0.98948 0.0
C887 C 0.83276 0.50852 0.98659 0.0
H888 H 0.28201 0.79851 0.82585 0.0
H889 H 0.30453 0.70913 0.81795 0.0
H890 H 0.37138 0.75312 0.81799 0.0
H891 H 0.42094 0.81136 0.82682 0.0
H892 H 0.39777 0.89871 0.83733 0.0
H893 H 0.33463 0.86231 0.82895 0.0
C894 C 0.30149 0.78894 0.82359 0.0
C895 C 0.28841 0.75047 0.8223 0.0
C896 C 0.3401 0.81419 0.82426 0.0
C897 C 0.31397 0.73852 0.81925 0.0
C898 C 0.35228 0.76368 0.81933 0.0
C899 C 0.40275 0.8233 0.82675 0.0
C900 C 0.41339 0.8568 0.83335 0.0
C901 C 0.36556 0.80094 0.82282 0.0
C902 C 0.3899 0.87239 0.83269 0.0
C903 C 0.35345 0.85124 0.82809 0.0
H904 H 0.09887 0.55137 0.82648 0.0
H905 H 0.08691 0.61504 0.85673 0.0
H906 H 0.06804 0.56296 0.8713 0.0
H907 H 0.07822 0.5106 0.87665 0.0
H908 H 0.09112 0.44729 0.84647 0.0
H909 H 0.08462 0.48678 0.83066 0.0
C910 C 0.08986 0.55296 0.83605 0.0
C911 C 0.09575 0.58749 0.84064 0.0
C912 C 0.08028 0.52321 0.84454 0.0
C913 C 0.08328 0.58901 0.85297 0.0
C914 C 0.07306 0.55932 0.86142 0.0
C915 C 0.07742 0.504 0.86663 0.0
C916 C 0.08743 0.47751 0.86272 0.0
C917 C 0.07491 0.52775 0.85756 0.0
C918 C 0.08505 0.4686 0.84971 0.0
C919 C 0.08173 0.49149 0.84064 0.0
H920 H 0.29928 0.5909 0.86197 0.0
H921 H 0.22051 0.61875 0.87843 0.0
H922 H 0.26673 0.6851 0.87733 0.0
H923 H 0.33052 0.73477 0.87288 0.0
H924 H 0.41055 0.70694 0.85743 0.0
H925 H 0.36295 0.641 0.85704 0.0
C926 C 0.29219 0.61159 0.86515 0.0
C927 C 0.2567 0.60011 0.87027 0.0
C928 C 0.31925 0.6496 0.86485 0.0
C929 C 0.24783 0.62704 0.87451 0.0
C930 C 0.27423 0.66493 0.87391 0.0
C931 C 0.33759 0.71433 0.86941 0.0
C932 C 0.37411 0.72578 0.86528 0.0
C933 C 0.31024 0.67647 0.86932 0.0
C934 C 0.38272 0.69888 0.86078 0.0
C935 C 0.3555 0.66116 0.8605 0.0
H936 H 0.51181 0.63978 0.98287 0.0
H937 H 0.53589 0.69444 0.94635 0.0
H938 H 0.55733 0.75439 0.95675 0.0
H939 H 0.54593 0.78447 0.97498 0.0
H940 H 0.50989 0.72593 0.0106 0.0
H941 H 0.51813 0.67547 0.00217 0.0
C942 C 0.52307 0.66496 0.97719 0.0
C943 C 0.52024 0.66226 0.96383 0.0
C944 C 0.53269 0.69893 0.98321 0.0
C945 C 0.53655 0.6954 0.95664 0.0
C946 C 0.54849 0.7298 0.96261 0.0
C947 C 0.54228 0.76181 0.98114 0.0
C948 C 0.5263 0.75828 -0.00674 0.0
C949 C 0.5433 0.73116 0.97576 0.0
C950 C 0.52185 0.72901 0.0012 0.0
C951 C 0.52571 0.69969 -0.00375 0.0
H952 H 0.24211 0.78478 0.98794 0.0
H953 H 0.19379 0.66784 -0.00295 0.0
H954 H 0.25519 0.67791 0.00302 0.0
H955 H 0.32346 0.71686 0.00073 0.0
H956 H 0.37165 0.83367 0.9916 0.0
H957 H 0.30941 0.82668 0.99056 0.0
C958 C 0.24484 0.76156 0.99144 0.0
C959 C 0.2137 0.72521 0.99132 0.0
C960 C 0.28032 0.76739 -0.00538 0.0
C961 C 0.21744 0.69587 -0.00345 0.0
C962 C 0.25263 0.7016 -4e-05 0.0
C963 C 0.32034 0.74103 -0.00108 0.0
C964 C 0.35196 0.77556 -0.00402 0.0
C965 C 0.28447 0.73673 -0.00177 0.0
C966 C 0.3477 0.80677 -0.00618 0.0
C967 C 0.31209 0.80271 -0.00687 0.0
H968 H 0.24651 0.6244 0.98043 0.0
H969 H 0.32126 0.7292 0.96218 0.0
H970 H 0.37014 0.71254 0.96163 0.0
H971 H 0.38902 0.66532 0.96398 0.0
H972 H 0.31529 0.56063 0.98233 0.0
H973 H 0.26893 0.5805 0.98551 0.0
C974 C 0.27366 0.64374 0.97647 0.0
C975 C 0.27995 0.67759 0.97108 0.0
C976 C 0.3018 0.63405 0.97623 0.0
C977 C 0.3155 0.70277 0.96625 0.0
C978 C 0.34348 0.69324 0.9659 0.0
C979 C 0.36304 0.64713 0.96888 0.0
C980 C 0.35522 0.6114 0.97275 0.0
C981 C 0.33655 0.65855 0.97052 0.0
C982 C 0.32184 0.58828 0.97927 0.0
C983 C 0.29525 0.59951 0.98098 0.0
H984 H 0.16588 0.44016 0.47265 0.0
H985 H 0.23456 0.45186 0.50509 0.0
H986 H 0.27778 0.44364 0.49145 0.0
H987 H 0.30493 0.45357 0.47007 0.0
H988 H 0.23926 0.44934 0.43756 0.0
H989 H 0.18591 0.43325 0.45135 0.0
C990 C 0.18917 0.43885 0.47687 0.0
C991 C 0.19751 0.44759 0.48984 0.0
C992 C 0.21533 0.43684 0.4688 0.0
C993 C 0.22773 0.44558 0.49512 0.0
C994 C 0.25285 0.44156 0.48726 0.0
C995 C 0.27858 0.44782 0.46592 0.0
C996 C 0.2767 0.45422 0.45283 0.0
C997 C 0.24849 0.44039 0.474 0.0
C998 C 0.24193 0.44558 0.44762 0.0
C999 C 0.21137 0.43662 0.45554 0.0
H1000 H 0.40295 0.6678 0.44042 0.0
H1001 H 0.34935 0.60162 0.47366 0.0
H1002 H 0.33213 0.64766 0.48068 0.0
H1003 H 0.32614 0.703 0.47588 0.0
H1004 H 0.38362 0.7715 0.44346 0.0
H1005 H 0.40605 0.72861 0.43759 0.0
C1006 C 0.38834 0.6641 0.44936 0.0
C1007 C 0.37723 0.63157 0.45653 0.0
C1008 C 0.37899 0.69083 0.45337 0.0
C1009 C 0.35838 0.62675 0.4681 0.0
C1010 C 0.34828 0.65285 0.47203 0.0
C1011 C 0.34415 0.70874 0.46767 0.0
C1012 C 0.35299 0.73987 0.45999 0.0
C1013 C 0.35746 0.6844 0.46453 0.0
C1014 C 0.3766 0.74757 0.44947 0.0
C1015 C 0.38923 0.72301 0.44609 0.0
H1016 H 0.19726 0.73834 0.49715 0.0
H1017 H 0.31399 0.77833 0.50417 0.0
H1018 H 0.29881 0.71856 0.5135 0.0
H1019 H 0.25542 0.65081 0.5125 0.0
H1020 H 0.13919 0.61001 0.50424 0.0
H1021 H 0.15093 0.67387 0.50281 0.0
C1022 C 0.21924 0.7346 0.50129 0.0
C1023 C 0.25683 0.76196 0.49926 0.0
C1024 C 0.21045 0.69935 0.50602 0.0
C1025 C 0.28483 0.75734 0.50517 0.0
C1026 C 0.27622 0.7228 0.51035 0.0
C1027 C 0.23239 0.65591 0.5109 0.0
C1028 C 0.19682 0.62583 0.50798 0.0
C1029 C 0.23958 0.69276 0.50969 0.0
C1030 C 0.16701 0.63269 0.50628 0.0
C1031 C 0.17378 0.66931 0.50535 0.0
H1032 H 0.22654 0.7148 0.33312 0.0
H1033 H 0.32433 0.70331 0.32942 0.0
H1034 H 0.28521 0.63604 0.32693 0.0
H1035 H 0.22587 0.58132 0.33205 0.0
H1036 H 0.12939 0.59268 0.33955 0.0
H1037 H 0.1643 0.65831 0.33336 0.0
C1038 C 0.23915 0.69768 0.33123 0.0
C1039 C 0.27819 0.71379 0.33169 0.0
C1040 C 0.21642 0.65864 0.33053 0.0
C1041 C 0.29429 0.69138 0.32927 0.0
C1042 C 0.2719 0.65286 0.32788 0.0
C1043 C 0.21182 0.59759 0.33175 0.0
C1044 C 0.17556 0.58255 0.3368 0.0
C1045 C 0.23313 0.63605 0.3294 0.0
C1046 C 0.15758 0.60382 0.33598 0.0
C1047 C 0.17784 0.64164 0.33269 0.0
H1048 H 0.30809 0.65631 0.35842 0.0
H1049 H 0.32245 0.55972 0.35948 0.0
H1050 H 0.38992 0.59992 0.35702 0.0
H1051 H 0.44534 0.66319 0.35688 0.0
H1052 H 0.43024 0.75913 0.35759 0.0
H1053 H 0.36247 0.71857 0.35678 0.0
C1054 C 0.32588 0.64393 0.35805 0.0
C1055 C 0.31029 0.6051 0.35936 0.0
C1056 C 0.36454 0.66718 0.35686 0.0
C1057 C 0.33377 0.58957 0.35864 0.0
C1058 C 0.37235 0.61253 0.35722 0.0
C1059 C 0.42706 0.67501 0.35648 0.0
C1060 C 0.44235 0.71385 0.35714 0.0
C1061 C 0.38813 0.65145 0.35661 0.0
C1062 C 0.41875 0.72919 0.35696 0.0
C1063 C 0.38012 0.70605 0.3566 0.0
H1064 H 0.45646 0.91102 0.36336 0.0
H1065 H 0.43751 0.85732 0.3269 0.0
H1066 H 0.4975 0.8593 0.32828 0.0
H1067 H 0.54217 0.85662 0.34305 0.0
H1068 H 0.55702 0.90498 0.38047 0.0
H1069 H 0.51323 0.92631 0.37536 0.0
C1070 C 0.46664 0.90188 0.35539 0.0
C1071 C 0.44249 0.88333 0.34519 0.0
C1072 C 0.50006 0.90112 0.35664 0.0
C1073 C 0.45568 0.87166 0.33486 0.0
C1074 C 0.48972 0.87212 0.33578 0.0
C1075 C 0.5371 0.87322 0.34991 0.0
C1076 C 0.55139 0.87753 0.36236 0.0
C1077 C 0.51034 0.88375 0.34713 0.0
C1078 C 0.54548 0.90017 0.37096 0.0
C1079 C 0.52012 0.91214 0.36808 0.0
H1080 H 0.14676 0.28707 0.23644 0.0
H1081 H 0.18732 0.21765 0.25204 0.0
H1082 H 0.21039 0.21271 0.23108 0.0
H1083 H 0.20287 0.21444 0.20781 0.0
H1084 H 0.1608 0.28319 0.19246 0.0
H1085 H 0.15591 0.30336 0.21377 0.0
C1086 C 0.16239 0.27251 0.23533 0.0
C1087 C 0.16522 0.25255 0.24563 0.0
C1088 C 0.17468 0.2691 0.22322 0.0
C1089 C 0.18517 0.23346 0.24418 0.0
C1090 C 0.19787 0.23021 0.23216 0.0
C1091 C 0.19427 0.23513 0.2091 0.0
C1092 C 0.18104 0.24635 0.19863 0.0
C1093 C 0.19048 0.24586 0.22148 0.0
C1094 C 0.1703 0.27345 0.20042 0.0
C1095 C 0.16725 0.28484 0.21262 0.0
H1096 H 0.93122 0.99467 0.22193 0.0
H1097 H 0.84026 0.01767 0.22005 0.0
H1098 H 0.83839 0.01959 0.2433 0.0
H1099 H 0.86291 0.01499 0.26425 0.0
H1100 H 0.95741 -0.00237 0.26594 0.0
H1101 H 0.95732 0.99267 0.24273 0.0
C1102 C 0.91102 0.00017 0.22661 0.0
C1103 C 0.88584 0.00592 0.21926 0.0
C1104 C 0.91052 0.00185 0.23997 0.0
C1105 C 0.8601 0.01338 0.22547 0.0
C1106 C 0.85887 0.01425 0.23877 0.0
C1107 C 0.88311 0.00963 0.2595 0.0
C1108 C 0.90971 0.00599 0.26675 0.0
C1109 C 0.88384 0.00838 0.24612 0.0
C1110 C 0.93646 0.00013 0.26053 0.0
C1111 C 0.9365 -0.00253 0.24727 0.0
H1112 H 0.01455 0.81645 0.27232 0.0
H1113 H 0.90698 0.76944 0.29061 0.0
H1114 H 0.87596 0.75004 0.27008 0.0
H1115 H 0.88061 0.76232 0.24716 0.0
H1116 H 0.98763 0.8108 0.22861 0.0
H1117 H 0.01775 0.81323 0.24892 0.0
C1118 C 0.98434 0.80043 0.27184 0.0
C1119 C 0.96305 0.79529 0.28289 0.0
C1120 C 0.96664 0.79051 0.25992 0.0
C1121 C 0.92392 0.77433 0.28217 0.0
C1122 C 0.90614 0.76349 0.27043 0.0
C1123 C 0.91029 0.77193 0.24753 0.0
C1124 C 0.93208 0.78688 0.23658 0.0
C1125 C 0.92733 0.77388 0.25923 0.0
C1126 C 0.97043 0.79915 0.23701 0.0
C1127 C 0.98767 0.8009 0.24863 0.0
H1128 H 0.79774 0.77358 0.72262 0.0
H1129 H 0.85777 0.75445 0.75244 0.0
H1130 H 0.82226 0.76664 0.7685 0.0
H1131 H 0.78379 0.79477 0.7738 0.0
H1132 H 0.73163 0.82346 0.74379 0.0
H1133 H 0.7534 0.79474 0.7281 0.0
C1134 C 0.80209 0.7708 0.73264 0.0
C1135 C 0.83029 0.76307 0.73635 0.0
C1136 C 0.78314 0.78007 0.74179 0.0
C1137 C 0.8362 0.76032 0.74937 0.0
C1138 C 0.81604 0.76752 0.75854 0.0
C1139 C 0.77593 0.79336 0.76389 0.0
C1140 C 0.75589 0.81094 0.75995 0.0
C1141 C 0.79074 0.77913 0.75485 0.0
C1142 C 0.74676 0.80985 0.74703 0.0
C1143 C 0.75956 0.79377 0.73806 0.0
H1144 H 0.06731 0.96985 0.74653 0.0
H1145 H 0.17997 0.99092 0.75036 0.0
H1146 H 0.18325 0.98316 0.72728 0.0
H1147 H 0.1548 0.97415 0.70595 0.0
H1148 H 0.04004 0.94763 0.70278 0.0
H1149 H 0.03675 0.95397 0.72571 0.0
C1150 C 0.09237 0.9722 0.74229 0.0
C1151 C 0.12344 0.98109 0.74998 0.0
C1152 C 0.09376 0.96732 0.72918 0.0
C1153 C 0.15571 0.98383 0.74454 0.0
C1154 C 0.15763 0.97973 0.73138 0.0
C1155 C 0.12915 0.9699 0.7103 0.0
C1156 C 0.09804 0.96161 0.70263 0.0
C1157 C 0.12703 0.97221 0.72358 0.0
C1158 C 0.0646 0.95493 0.70841 0.0
C1159 C 0.06263 0.95832 0.72154 0.0
H1160 H 0.06729 0.20729 0.71704 0.0
H1161 H 0.95082 0.13147 0.70928 0.0
H1162 H 0.9371 0.12568 0.732 0.0
H1163 H 0.95991 0.13438 0.75404 0.0
H1164 H 0.07563 0.21157 0.76201 0.0
H1165 H 0.08809 0.22464 0.73922 0.0
C1166 C 0.03874 0.19028 0.72031 0.0
C1167 C 0.01024 0.16933 0.71149 0.0
C1168 C 0.03111 0.18671 0.73342 0.0
C1169 C 0.97331 0.14782 0.71585 0.0
C1170 C 0.96549 0.14415 0.72886 0.0
C1171 C 0.98772 0.15445 0.75075 0.0
C1172 C 0.01704 0.17148 0.75954 0.0
C1173 C 0.99443 0.16214 0.73772 0.0
C1174 C 0.05279 0.19801 0.75532 0.0
C1175 C 0.05988 0.20538 0.74232 0.0
H1176 H 0.78896 0.45792 0.55935 0.0
H1177 H 0.71576 0.3395 0.55512 0.0
H1178 H 0.71366 0.3315 0.57824 0.0
H1179 H 0.73214 0.35852 0.59972 0.0
H1180 H 0.80089 0.47781 0.60395 0.0
H1181 H 0.80473 0.48528 0.58087 0.0
C1182 C 0.77282 0.4304 0.56354 0.0
C1183 C 0.75303 0.39923 0.55561 0.0
C1184 C 0.77047 0.42628 0.57685 0.0
C1185 C 0.73143 0.36379 0.56109 0.0
C1186 C 0.73009 0.35927 0.5743 0.0
C1187 C 0.74762 0.38618 0.5956 0.0
C1188 C 0.76608 0.41753 0.6036 0.0
C1189 C 0.74929 0.39036 0.58229 0.0
C1190 C 0.78617 0.45318 0.59806 0.0
C1191 C 0.78858 0.45749 0.58484 0.0
H1192 H 0.47801 0.38849 0.56889 0.0
H1193 H 0.46465 0.28665 0.55297 0.0
H1194 H 0.43804 0.25391 0.57294 0.0
H1195 H 0.43999 0.2613 0.59618 0.0
H1196 H 0.45831 0.36506 0.61225 0.0
H1197 H 0.4596 0.38946 0.59106 0.0
C1198 C 0.46703 0.3586 0.5696 0.0
C1199 C 0.47346 0.33994 0.55964 0.0
C1200 C 0.45345 0.34053 0.58131 0.0
C1201 C 0.4597 0.30139 0.56057 0.0
C1202 C 0.44505 0.28283 0.57207 0.0
C1203 C 0.44213 0.28841 0.59506 0.0
C1204 C 0.45048 0.31193 0.60567 0.0
C1205 C 0.44484 0.303 0.58278 0.0
C1206 C 0.45274 0.34682 0.60414 0.0
C1207 C 0.45394 0.36098 0.59201 0.0
H1208 H 0.77713 0.15884 0.52088 0.0
H1209 H 0.66027 0.10045 0.53076 0.0
H1210 H 0.67632 0.10466 0.55329 0.0
H1211 H 0.72305 0.14039 0.56986 0.0
H1212 H 0.83882 0.20712 0.55938 0.0
H1213 H 0.82414 0.18415 0.53754 0.0
C1214 C 0.75512 0.14591 0.52794 0.0
C1215 C 0.71761 0.13044 0.52418 0.0
C1216 C 0.76458 0.15081 0.54086 0.0
C1217 C 0.6894 0.11296 0.53339 0.0
C1218 C 0.6986 0.11585 0.54631 0.0
C1219 C 0.74513 0.14851 0.56288 0.0
C1220 C 0.78191 0.17531 0.5661 0.0
C1221 C 0.73603 0.13706 0.55016 0.0
C1222 C 0.81037 0.18641 0.55702 0.0
C1223 C 0.8019 0.1735 0.54454 0.0
H1224 H 0.63413 0.23844 0.08678 0.0
H1225 H 0.55638 0.12067 0.08272 0.0
H1226 H 0.5266 0.1212 0.10291 0.0
H1227 H 0.52585 0.15486 0.12248 0.0
H1228 H 0.60597 0.27192 0.12629 0.0
H1229 H 0.63173 0.27206 0.10535 0.0
C1230 C 0.6108 0.21267 0.09029 0.0
C1231 C 0.59796 0.17936 0.08333 0.0
C1232 C 0.59422 0.21321 0.10185 0.0
C1233 C 0.56705 0.1466 0.08793 0.0
C1234 C 0.55004 0.14694 0.09946 0.0
C1235 C 0.54839 0.18047 0.11853 0.0
C1236 C 0.56391 0.21351 0.12577 0.0
C1237 C 0.56373 0.18002 0.10659 0.0
C1238 C 0.59363 0.24635 0.1208 0.0
C1239 C 0.60837 0.24637 0.10887 0.0
H1240 H 0.8205 0.29657 0.03844 0.0
H1241 H 0.74012 0.33299 0.03322 0.0
H1242 H 0.71443 0.31004 0.05439 0.0
H1243 H 0.71159 0.27546 0.07346 0.0
H1244 H 0.78993 0.23635 0.07891 0.0
H1245 H 0.82029 0.26516 0.05865 0.0
C1246 C 0.79795 0.30018 0.04212 0.0
C1247 C 0.78214 0.3165 0.03439 0.0
C1248 C 0.78272 0.28599 0.05421 0.0
C1249 C 0.75251 0.32046 0.03905 0.0
C1250 C 0.73786 0.3073 0.05112 0.0
C1251 C 0.73515 0.27288 0.07022 0.0
C1252 C 0.74789 0.25294 0.07755 0.0
C1253 C 0.75202 0.28906 0.0586 0.0
C1254 C 0.77926 0.25111 0.07337 0.0
C1255 C 0.7966 0.2676 0.0618 0.0
H1256 H 0.61601 0.49817 0.08748 0.0
H1257 H 0.72888 0.56312 0.1013 0.0
H1258 H 0.75169 0.58056 0.07954 0.0
H1259 H 0.7406 0.56689 0.05669 0.0
H1260 H 0.62771 0.50111 0.04292 0.0
H1261 H 0.60385 0.49519 0.06453 0.0
C1262 C 0.64549 0.51694 0.08574 0.0
C1263 C 0.67082 0.52861 0.09593 0.0
C1264 C 0.65847 0.52632 0.0732 0.0
C1265 C 0.70883 0.5535 0.0936 0.0
C1266 C 0.72194 0.56325 0.08114 0.0
C1267 C 0.71073 0.55206 0.05838 0.0
C1268 C 0.68603 0.53366 0.04827 0.0
C1269 C 0.6972 0.54822 0.07086 0.0
C1270 C 0.64738 0.51521 0.05055 0.0
C1271 C 0.63368 0.51157 0.06293 0.0
H1272 H 0.48243 0.87214 0.94712 0.0
H1273 H 0.47715 0.76601 0.94177 0.0
H1274 H 0.4883 0.77827 0.91904 0.0
H1275 H 0.49201 0.81545 0.90041 0.0
H1276 H 0.49017 0.91808 0.90531 0.0
H1277 H 0.49061 0.91164 0.92846 0.0
C1278 C 0.48417 0.85193 0.94099 0.0
C1279 C 0.47852 0.81804 0.9461 0.0
C1280 C 0.4896 0.85871 0.92783 0.0
C1281 C 0.48081 0.79208 0.93804 0.0
C1282 C 0.48738 0.79913 0.92504 0.0
C1283 C 0.49303 0.83705 0.90655 0.0
C1284 C 0.4915 0.8674 0.9012 0.0
C1285 C 0.49092 0.83192 0.91979 0.0
C1286 C 0.49174 0.89468 0.90925 0.0
C1287 C 0.49155 0.89075 0.92247 0.0
H1288 H 0.19811 0.75068 0.92196 0.0
H1289 H 0.14872 0.632 0.92797 0.0
H1290 H 0.14866 0.62218 0.90508 0.0
H1291 H 0.1661 0.64767 0.88343 0.0
H1292 H 0.2125 0.7658 0.87728 0.0
H1293 H 0.21071 0.77556 0.90018 0.0
C1294 C 0.18687 0.7226 0.91826 0.0
C1295 C 0.17365 0.69217 0.9267 0.0
C1296 C 0.18697 0.71713 0.90508 0.0
C1297 C 0.15892 0.65594 0.92172 0.0
C1298 C 0.15919 0.65031 0.90862 0.0
C1299 C 0.17592 0.67555 0.88713 0.0
C1300 C 0.18995 0.70608 0.87875 0.0
C1301 C 0.17385 0.68077 0.90024 0.0
C1302 C 0.20181 0.74194 0.88359 0.0
C1303 C 0.20071 0.7475 0.89666 0.0
H1304 H 0.21524 0.45172 0.91923 0.0
H1305 H 0.27255 0.46156 0.88383 0.0
H1306 H 0.32904 0.47572 0.89532 0.0
H1307 H 0.36553 0.4982 0.91511 0.0
H1308 H 0.30796 0.48512 0.95062 0.0
H1309 H 0.24847 0.45872 0.93946 0.0
C1310 C 0.23969 0.45575 0.91405 0.0
C1311 C 0.23977 0.45664 0.90067 0.0
C1312 C 0.27243 0.46391 0.92073 0.0
C1313 C 0.27161 0.46123 0.89412 0.0
C1314 C 0.30422 0.46964 0.90069 0.0
C1315 C 0.33978 0.4883 0.92043 0.0
C1316 C 0.34127 0.49419 0.93362 0.0
C1317 C 0.30551 0.47304 0.91395 0.0
C1318 C 0.30766 0.48094 0.94044 0.0
C1319 C 0.27356 0.46617 0.93405 0.0
H1320 H 0.19724 0.50237 0.44831 0.0
H1321 H 0.13022 0.55522 0.45211 0.0
H1322 H 0.12367 0.55515 0.42899 0.0
H1323 H 0.14054 0.54389 0.40776 0.0
H1324 H 0.20481 0.48823 0.40373 0.0
H1325 H 0.20801 0.48444 0.42693 0.0
C1326 C 0.18121 0.51381 0.44403 0.0
C1327 C 0.1648 0.52944 0.4518 0.0
C1328 C 0.17672 0.51272 0.43076 0.0
C1329 C 0.14334 0.54338 0.44625 0.0
C1330 C 0.13953 0.54326 0.43307 0.0
C1331 C 0.15462 0.53028 0.41198 0.0
C1332 C 0.17258 0.51654 0.4041 0.0
C1333 C 0.15647 0.52843 0.42524 0.0
C1334 C 0.19052 0.49872 0.40962 0.0
C1335 C 0.19274 0.49698 0.42287 0.0
H1336 H 0.52155 0.66973 0.37934 0.0
H1337 H 0.57653 0.73606 0.41241 0.0
H1338 H 0.54476 0.68069 0.42591 0.0
H1339 H 0.49145 0.61759 0.42872 0.0
H1340 H 0.43061 0.55395 0.39587 0.0
H1341 H 0.47483 0.60355 0.38187 0.0
C1342 C 0.52775 0.67178 0.38942 0.0
C1343 C 0.5513 0.707 0.39488 0.0
C1344 C 0.50758 0.64026 0.39721 0.0
C1345 C 0.55854 0.70928 0.408 0.0
C1346 C 0.54007 0.67766 0.41573 0.0
C1347 C 0.48863 0.61395 0.41849 0.0
C1348 C 0.45754 0.58221 0.41336 0.0
C1349 C 0.51297 0.64351 0.41053 0.0
C1350 C 0.45415 0.57816 0.40007 0.0
C1351 C 0.47932 0.60667 0.39206 0.0
H1352 H 0.23239 0.7914 0.42566 0.0
H1353 H 0.33978 0.88865 0.43265 0.0
H1354 H 0.34961 0.8997 0.40978 0.0
H1355 H 0.33382 0.87331 0.38808 0.0
H1356 H 0.22982 0.77204 0.38164 0.0
H1357 H 0.2122 0.77107 0.40391 0.0
C1358 C 0.25755 0.81563 0.42223 0.0
C1359 C 0.2857 0.8386 0.43087 0.0
C1360 C 0.26379 0.82073 0.40908 0.0
C1361 C 0.3178 0.87023 0.42623 0.0
C1362 C 0.3236 0.87639 0.41312 0.0
C1363 C 0.3067 0.85199 0.39151 0.0
C1364 C 0.28289 0.82294 0.38334 0.0
C1365 C 0.29773 0.85061 0.40448 0.0
C1366 C 0.24824 0.79481 0.38782 0.0
C1367 C 0.23838 0.79412 0.40055 0.0
H1368 H 0.27752 0.16194 0.18319 0.0
H1369 H 0.25414 0.11021 0.14613 0.0
H1370 H 0.31631 0.11709 0.1454 0.0
H1371 H 0.37878 0.14105 0.15474 0.0
H1372 H 0.40159 0.192 0.19193 0.0
H1373 H 0.33834 0.18198 0.19313 0.0
C1374 C 0.28589 0.1519 0.17499 0.0
C1375 C 0.2612 0.13585 0.1647 0.0
C1376 C 0.32176 0.15595 0.17461 0.0
C1377 C 0.27251 0.12275 0.1542 0.0
C1378 C 0.30816 0.12677 0.15374 0.0
C1379 C 0.36983 0.14972 0.16314 0.0
C1380 C 0.3951 0.16751 0.17317 0.0
C1381 C 0.33325 0.14384 0.1638 0.0
C1382 C 0.38287 0.17831 0.18403 0.0
C1383 C 0.34665 0.17268 0.18473 0.0
H1384 H 0.85785 0.10777 0.14349 0.0
H1385 H 0.79797 0.07691 0.17914 0.0
H1386 H 0.7685 0.11382 0.17375 0.0
H1387 H 0.75709 0.15194 0.15839 0.0
H1388 H 0.81699 0.18246 0.12273 0.0
H1389 H 0.84934 0.1489 0.12874 0.0
C1390 C 0.83846 0.10919 0.15012 0.0
C1391 C 0.8299 0.08927 0.16166 0.0
C1392 C 0.8216 0.13043 0.14696 0.0
C1393 C 0.80501 0.09183 0.17018 0.0
C1394 C 0.78809 0.11291 0.1671 0.0
C1395 C 0.77749 0.1516 0.15198 0.0
C1396 C 0.78436 0.16956 0.14008 0.0
C1397 C 0.79581 0.13193 0.15544 0.0
C1398 C 0.81102 0.16886 0.13192 0.0
C1399 C 0.82948 0.14954 0.13533 0.0
H1400 H 0.83376 0.7383 0.16018 0.0
H1401 H 0.91655 0.71364 0.17485 0.0
H1402 H 0.87999 0.64929 0.16712 0.0
H1403 H 0.8222 0.59903 0.15741 0.0
H1404 H 0.73752 0.62373 0.14464 0.0
H1405 H 0.7769 0.68894 0.15055 0.0
C1406 C 0.84421 0.71909 0.16149 0.0
C1407 C 0.87799 0.7308 0.16797 0.0
C1408 C 0.8223 0.68191 0.15756 0.0
C1409 C 0.89072 0.7053 0.16981 0.0
C1410 C 0.86971 0.66848 0.16547 0.0
C1411 C 0.81246 0.61874 0.1559 0.0
C1412 C 0.77688 0.60644 0.15064 0.0
C1413 C 0.83505 0.65627 0.15956 0.0
C1414 C 0.76459 0.6323 0.14879 0.0
C1415 C 0.78719 0.66969 0.1521 0.0
H1416 H 0.23534 0.43483 0.32975 0.0
H1417 H 0.14195 0.39175 0.35571 0.0
H1418 H 0.11694 0.32972 0.34645 0.0
H1419 H 0.11884 0.28887 0.32992 0.0
H1420 H 0.21115 0.33213 0.30351 0.0
H1421 H 0.23952 0.39268 0.31415 0.0
C1422 C 0.20968 0.41184 0.33346 0.0
C1423 C 0.19041 0.41814 0.34334 0.0
C1424 C 0.19519 0.3762 0.32801 0.0
C1425 C 0.15729 0.38787 0.34807 0.0
C1426 C 0.14292 0.35231 0.34277 0.0
C1427 C 0.14546 0.31132 0.32659 0.0
C1428 C 0.16266 0.30594 0.31586 0.0
C1429 C 0.16126 0.34631 0.33259 0.0
C1430 C 0.19717 0.33547 0.31171 0.0
C1431 C 0.21336 0.37019 0.31776 0.0
H1432 H 0.6711 0.82275 0.34859 0.0
H1433 H 0.6193 0.83028 0.31398 0.0
H1434 H 0.68038 0.87655 0.30557 0.0
H1435 H 0.74807 0.91889 0.30888 0.0
H1436 H 0.79791 0.91345 0.3443 0.0
H1437 H 0.73817 0.8626 0.35154 0.0
C1438 C 0.67316 0.83393 0.3391 0.0
C1439 C 0.64065 0.82299 0.33192 0.0
C1440 C 0.70808 0.86145 0.33454 0.0
C1441 C 0.6439 0.8382 0.31971 0.0
C1442 C 0.67881 0.86482 0.31492 0.0
C1443 C 0.74583 0.90637 0.31814 0.0
C1444 C 0.77739 0.92024 0.32607 0.0
C1445 C 0.71102 0.87737 0.32239 0.0
C1446 C 0.77403 0.90371 0.33805 0.0
C1447 C 0.73986 0.87446 0.3422 0.0
H1448 H 0.14744 0.85832 0.30092 0.0
H1449 H 0.18707 0.94572 0.32913 0.0
H1450 H 0.24018 0.93706 0.33363 0.0
H1451 H 0.27218 0.90092 0.33095 0.0
H1452 H 0.2327 0.81353 0.30274 0.0
H1453 H 0.18318 0.8264 0.29673 0.0
C1454 C 0.16788 0.87572 0.30797 0.0
C1455 C 0.16297 0.90228 0.31479 0.0
C1456 C 0.1984 0.87057 0.31054 0.0
C1457 C 0.19 0.92491 0.32378 0.0
C1458 C 0.22039 0.91994 0.32639 0.0
C1459 C 0.25308 0.88501 0.32337 0.0
C1460 C 0.25593 0.85599 0.31743 0.0
C1461 C 0.2244 0.8923 0.32003 0.0
C1462 C 0.23113 0.83593 0.30753 0.0
C1463 C 0.20263 0.84314 0.30411 0.0
H1464 H 0.64458 0.80177 0.81237 0.0
H1465 H 0.71115 0.86725 0.84411 0.0
H1466 H 0.65531 0.86008 0.85466 0.0
H1467 H 0.58843 0.8399 0.85406 0.0
H1468 H 0.52202 0.7752 0.82217 0.0
H1469 H 0.57689 0.77747 0.81254 0.0
C1470 C 0.64684 0.81393 0.82169 0.0
C1471 C 0.68214 0.83526 0.82738 0.0
C1472 C 0.61466 0.81033 0.82762 0.0
C1473 C 0.68442 0.85083 0.83947 0.0
C1474 C 0.65249 0.84692 0.8455 0.0
C1475 C 0.58589 0.82613 0.84503 0.0
C1476 C 0.55118 0.80778 0.8388 0.0
C1477 C 0.61761 0.82757 0.83951 0.0
C1478 C 0.54839 0.78974 0.82717 0.0
C1479 C 0.57978 0.791 0.82164 0.0
H1480 H 0.13454 0.79174 0.83581 0.0
H1481 H 0.15815 0.77661 0.79693 0.0
H1482 H 0.1483 0.82747 0.79015 0.0
H1483 H 0.13484 0.87751 0.79525 0.0
H1484 H 0.11102 0.89287 0.83406 0.0
H1485 H 0.11914 0.84077 0.84082 0.0
C1486 C 0.13728 0.79938 0.82584 0.0
C1487 C 0.14718 0.78033 0.81691 0.0
C1488 C 0.13176 0.8289 0.82197 0.0
C1489 C 0.15061 0.79071 0.80403 0.0
C1490 C 0.14506 0.81991 0.80012 0.0
C1491 C 0.1314 0.86951 0.8052 0.0
C1492 C 0.12251 0.88929 0.81413 0.0
C1493 C 0.13599 0.83943 0.80902 0.0
C1494 C 0.11793 0.87826 0.82697 0.0
C1495 C 0.12256 0.84842 0.83085 0.0
H1496 H 0.11445 0.40973 0.82854 0.0
H1497 H 0.21659 0.41014 0.83737 0.0
H1498 H 0.19296 0.3497 0.8268 0.0
H1499 H 0.14117 0.29451 0.81669 0.0
H1500 H 0.03719 0.29229 0.80958 0.0
H1501 H 0.06359 0.35565 0.81789 0.0
C1502 C 0.13187 0.39698 0.82792 0.0
C1503 C 0.16731 0.41444 0.83365 0.0
C1504 C 0.1175 0.36163 0.82232 0.0
C1505 C 0.18926 0.39723 0.83299 0.0
C1506 C 0.17568 0.36262 0.82701 0.0
C1507 C 0.12439 0.30802 0.81686 0.0
C1508 C 0.08721 0.28866 0.81258 0.0
C1509 C 0.13948 0.34416 0.82192 0.0
C1510 C 0.06577 0.30646 0.81292 0.0
C1511 C 0.08088 0.34274 0.81763 0.0
H1512 H 0.75528 0.54915 0.66059 0.0
H1513 H 0.86116 0.57284 0.6446 0.0
H1514 H 0.888 0.63858 0.65028 0.0
H1515 H 0.88268 0.68833 0.66102 0.0
H1516 H 0.77838 0.66406 0.67847 0.0
H1517 H 0.74944 0.59964 0.67081 0.0
C1518 C 0.78414 0.56876 0.65824 0.0
C1519 C 0.80622 0.55606 0.65221 0.0
C1520 C 0.79964 0.60641 0.66178 0.0
C1521 C 0.84362 0.58181 0.64931 0.0
C1522 C 0.85898 0.61943 0.65253 0.0
C1523 C 0.85341 0.66916 0.66296 0.0
C1524 C 0.83263 0.681 0.67026 0.0
C1525 C 0.83741 0.63193 0.65893 0.0
C1526 C 0.79493 0.65562 0.67286 0.0
C1527 C 0.77844 0.61876 0.66853 0.0
H1528 H 0.37715 0.15578 0.66482 0.0
H1529 H 0.39117 0.14129 0.62492 0.0
H1530 H 0.32998 0.08487 0.62447 0.0
H1531 H 0.27055 0.04209 0.63504 0.0
H1532 H 0.25709 0.05641 0.67501 0.0
H1533 H 0.31996 0.11013 0.67578 0.0
C1534 C 0.36699 0.14012 0.65604 0.0
C1535 C 0.38864 0.15303 0.6449 0.0
C1536 C 0.33172 0.10768 0.65584 0.0
C1537 C 0.37513 0.13211 0.63365 0.0
C1538 C 0.34003 0.09986 0.63336 0.0
C1539 C 0.28148 0.05674 0.64395 0.0
C1540 C 0.25888 0.04534 0.65491 0.0
C1541 C 0.31778 0.08776 0.64434 0.0
C1542 C 0.27371 0.06453 0.6664 0.0
C1543 C 0.30969 0.09539 0.66685 0.0
H1544 H 0.81037 0.12581 0.62125 0.0
H1545 H 0.81183 0.1882 0.65441 0.0
H1546 H 0.85355 0.1712 0.66516 0.0
H1547 H 0.89427 0.14365 0.66442 0.0
H1548 H 0.89363 0.08207 0.63115 0.0
H1549 H 0.84702 0.09377 0.62122 0.0
C1550 C 0.81923 0.13516 0.63091 0.0
C1551 C 0.80812 0.15854 0.63695 0.0
C1552 C 0.84388 0.12589 0.63697 0.0
C1553 C 0.81997 0.17031 0.64949 0.0
C1554 C 0.84405 0.16078 0.65564 0.0
C1555 C 0.8838 0.13258 0.65502 0.0
C1556 C 0.89785 0.1124 0.64849 0.0
C1557 C 0.85701 0.13947 0.64934 0.0
C1558 C 0.88355 0.09789 0.63638 0.0
C1559 C 0.85685 0.10457 0.63068 0.0
H1560 H 0.02125 0.47797 0.48805 0.0
H1561 H 0.03484 0.47983 0.52878 0.0
H1562 H 0.97214 0.4707 0.53177 0.0
H1563 H 0.91391 0.46371 0.52279 0.0
H1564 H 0.90141 0.46328 0.48201 0.0
H1565 H 0.96325 0.47065 0.47911 0.0
C1566 C 0.01041 0.476 0.49759 0.0
C1567 C 0.03274 0.47946 0.50817 0.0
C1568 C 0.9746 0.47142 0.49924 0.0
C1569 C 0.01828 0.47721 0.52046 0.0
C1570 C 0.98244 0.47212 0.52218 0.0
C1571 C 0.92476 0.46537 0.51327 0.0
C1572 C 0.90297 0.46306 0.50265 0.0
C1573 C 0.96048 0.46956 0.51164 0.0
C1574 C 0.9175 0.4651 0.49038 0.0
C1575 C 0.95289 0.4692 0.48869 0.0
H1576 H 0.46512 0.42075 0.50778 0.0
H1577 H 0.5514 0.45702 0.47922 0.0
H1578 H 0.52326 0.488 0.46757 0.0
H1579 H 0.47491 0.50599 0.46575 0.0
H1580 H 0.38947 0.47059 0.49462 0.0
H1581 H 0.41684 0.4385 0.50595 0.0
C1582 C 0.47759 0.43507 0.49894 0.0
C1583 C 0.51026 0.43637 0.49436 0.0
C1584 C 0.46167 0.45342 0.49242 0.0
C1585 C 0.52621 0.45547 0.48295 0.0
C1586 C 0.51022 0.47334 0.47631 0.0
C1587 C 0.46236 0.49142 0.47456 0.0
C1588 C 0.4302 0.49086 0.47933 0.0
C1589 C 0.47816 0.47283 0.48102 0.0
C1590 C 0.41427 0.47165 0.49073 0.0
C1591 C 0.42982 0.45313 0.4972 0.0
H1592 H 0.54878 0.02329 0.49863 0.0
H1593 H 0.50621 0.07743 0.47416 0.0
H1594 H 0.44982 0.01777 0.47034 0.0
H1595 H 0.41374 0.94986 0.47318 0.0
H1596 H 0.45634 0.89551 0.49753 0.0
H1597 H 0.51143 0.95562 0.50216 0.0
C1598 C 0.52707 0.02212 0.49253 0.0
C1599 C 0.5319 0.05486 0.48664 0.0
C1600 C 0.49474 0.98762 0.49029 0.0
C1601 C 0.50337 0.05274 0.47879 0.0
C1602 C 0.47108 0.01858 0.47658 0.0
C1603 C 0.43498 0.95112 0.47954 0.0
C1604 C 0.43093 0.91811 0.48493 0.0
C1605 C 0.46668 0.98578 0.48215 0.0
C1606 C 0.45871 0.9204 0.49321 0.0
C1607 C 0.49028 0.95479 0.49587 0.0
H1608 H 0.54628 0.03344 0.03707 0.0
H1609 H 0.58606 0.08138 -8e-05 0.0
H1610 H 0.56132 0.01915 0.99084 0.0
H1611 H 0.53021 0.95111 -0.00649 0.0
H1612 H 0.49083 0.90314 0.03069 0.0
H1613 H 0.51377 0.96527 0.03965 0.0
C1614 C 0.54919 0.03028 0.02696 0.0
C1615 C 0.56803 0.06212 0.0192 0.0
C1616 C 0.53531 0.99436 0.0218 0.0
C1617 C 0.57172 0.05743 0.00613 0.0
C1618 C 0.55768 0.02181 0.00092 0.0
C1619 C 0.52673 0.95422 0.00358 0.0
C1620 C 0.50898 0.92242 0.01141 0.0
C1621 C 0.53985 0.99008 0.00869 0.0
C1622 C 0.50447 0.92706 0.02443 0.0
C1623 C 0.51752 0.96262 0.02957 0.0
H1624 H 0.96071 0.4364 0.96913 0.0
H1625 H 0.96258 0.43304 0.01014 0.0
H1626 H 0.02409 0.48915 0.0103 0.0
H1627 H 0.07534 0.5417 -0.00113 0.0
H1628 H 0.07256 0.54529 0.95786 0.0
H1629 H 0.01358 0.48653 0.95767 0.0
C1630 C 0.97467 0.44767 0.97811 0.0
C1631 C 0.95682 0.4306 0.98961 0.0
C1632 C 0.00985 0.4802 0.97815 0.0
C1633 C 0.97553 0.4456 0.00114 0.0
C1634 C 0.01071 0.4778 0.00125 0.0
C1635 C 0.06204 0.52949 0.98988 0.0
C1636 C 0.07833 0.54817 0.97841 0.0
C1637 C 0.02783 0.49574 0.98983 0.0
C1638 C 0.06066 0.53174 0.96685 0.0
C1639 C 0.02684 0.4981 0.96672 0.0
H1640 H 0.52403 0.57128 0.9877 0.0
H1641 H 0.42618 0.46333 -0.00729 0.0
H1642 H 0.46577 0.43642 -0.00184 0.0
H1643 H 0.52877 0.4442 0.00144 0.0
H1644 H 0.62585 0.55179 -0.00566 0.0
H1645 H 0.58602 0.57814 0.9896 0.0
C1646 C 0.51136 0.54192 0.99014 0.0
C1647 C 0.47234 0.51939 0.99011 0.0
C1648 C 0.53421 0.52656 -0.00728 0.0
C1649 C 0.45622 0.4812 -0.00714 0.0
C1650 C 0.47884 0.46587 -0.00409 0.0
C1651 C 0.54112 0.47333 -0.00123 0.0
C1652 C 0.58026 0.49598 -0.00172 0.0
C1653 C 0.51795 0.48831 -0.00417 0.0
C1654 C 0.59587 0.53363 -0.00528 0.0
C1655 C 0.57312 0.54884 0.99208 0.0
loop_
_geom_bond_atom_site_label_1
_geom_bond_atom_site_label_2
_geom_bond_distance
_geom_bond_site_symmetry_2
_ccdc_geom_bond_type
Zn0 O3 2.031 . S
Zn0 O5 2.049 . S
Zn0 O10 2.067 . S
Zn1 O2 1.962 . S
Zn1 O4 1.986 . S
Zn1 O6 1.996 . S
Zn1 O9 1.943 . S
O2 Zn1 1.962 . S
O2 C7 1.254 . S
O3 Zn0 2.031 . S
O3 C7 1.269 . S
O4 Zn1 1.986 . S
O4 C11 1.262 . S
O5 Zn0 2.049 . S
O5 C13 1.260 . S
O6 Zn1 1.996 . S
O6 C13 1.257 . S
C7 O2 1.254 . S
C7 O3 1.269 . S
C8 O9 1.249 . S
C8 O10 1.270 . S
O9 Zn1 1.943 . S
O9 C8 1.249 . S
O10 Zn0 2.067 . S
O10 C8 1.270 . S
C11 O4 1.262 . S
C11 O12 1.232 . S
O12 C11 1.232 . S
C13 O5 1.260 . S
C13 O6 1.257 . S
Zn14 O17 2.031 1_565 S
Zn14 O19 2.049 . S
Zn14 O24 2.067 . S
Zn15 O16 1.962 . S
Zn15 O18 1.986 . S
Zn15 O20 1.996 . S
Zn15 O23 1.943 1_545 S
O16 Zn15 1.962 . S
O16 C21 1.254 . S
O17 Zn14 2.031 1_545 S
O17 C21 1.269 . S
O18 Zn15 1.986 . S
O18 C25 1.262 . S
O19 Zn14 2.049 . S
O19 C27 1.260 1_565 S
O20 Zn15 1.996 . S
O20 C27 1.257 . S
C21 O16 1.254 . S
C21 O17 1.269 . S
C22 O23 1.249 . S
C22 O24 1.270 . S
O23 Zn15 1.943 1_565 S
O23 C22 1.249 . S
O24 Zn14 2.067 . S
O24 C22 1.270 . S
C25 O18 1.262 . S
C25 O26 1.232 . S
O26 C25 1.232 . S
C27 O19 1.260 1_545 S
C27 O20 1.257 . S
Zn28 O31 2.031 1_455 S
Zn28 O33 2.049 . S
Zn28 O38 2.067 . S
Zn29 O30 1.962 . S
Zn29 O32 1.986 . S
Zn29 O34 1.996 . S
Zn29 O37 1.943 1_655 S
O30 Zn29 1.962 . S
O30 C35 1.254 . S
O31 Zn28 2.031 1_655 S
O31 C35 1.269 . S
O32 Zn29 1.986 . S
O32 C39 1.262 . S
O33 Zn28 2.049 . S
O33 C41 1.260 1_455 S
O34 Zn29 1.996 . S
O34 C41 1.257 . S
C35 O30 1.254 . S
C35 O31 1.269 . S
C36 O37 1.249 . S
C36 O38 1.270 . S
O37 Zn29 1.943 1_455 S
O37 C36 1.249 . S
O38 Zn28 2.067 . S
O38 C36 1.270 . S
C39 O32 1.262 . S
C39 O40 1.232 . S
O40 C39 1.232 . S
C41 O33 1.260 1_655 S
C41 O34 1.257 . S
Zn42 O45 2.031 . S
Zn42 O47 2.049 . S
Zn42 O52 2.067 . S
Zn43 O44 1.962 . S
Zn43 O46 1.986 . S
Zn43 O48 1.996 . S
Zn43 O51 1.943 . S
O44 Zn43 1.962 . S
O44 C49 1.254 . S
O45 Zn42 2.031 . S
O45 C49 1.269 . S
O46 Zn43 1.986 . S
O46 C53 1.262 . S
O47 Zn42 2.049 . S
O47 C55 1.260 . S
O48 Zn43 1.996 . S
O48 C55 1.257 . S
C49 O44 1.254 . S
C49 O45 1.269 . S
C50 O51 1.249 . S
C50 O52 1.270 . S
O51 Zn43 1.943 . S
O51 C50 1.249 . S
O52 Zn42 2.067 . S
O52 C50 1.270 . S
C53 O46 1.262 . S
C53 O54 1.232 . S
O54 C53 1.232 . S
C55 O47 1.260 . S
C55 O48 1.257 . S
Zn56 O59 2.031 1_545 S
Zn56 O61 2.049 . S
Zn56 O66 2.067 . S
Zn57 O58 1.962 . S
Zn57 O60 1.986 . S
Zn57 O62 1.996 . S
Zn57 O65 1.943 1_565 S
O58 Zn57 1.962 . S
O58 C63 1.254 . S
O59 Zn56 2.031 1_565 S
O59 C63 1.269 . S
O60 Zn57 1.986 . S
O60 C67 1.262 . S
O61 Zn56 2.049 . S
O61 C69 1.260 1_545 S
O62 Zn57 1.996 . S
O62 C69 1.257 . S
C63 O58 1.254 . S
C63 O59 1.269 . S
C64 O65 1.249 . S
C64 O66 1.270 . S
O65 Zn57 1.943 1_545 S
O65 C64 1.249 . S
O66 Zn56 2.067 . S
O66 C64 1.270 . S
C67 O60 1.262 . S
C67 O68 1.232 . S
O68 C67 1.232 . S
C69 O61 1.260 1_565 S
C69 O62 1.257 . S
Zn70 O73 2.031 1_655 S
Zn70 O75 2.049 . S
Zn70 O80 2.067 . S
Zn71 O72 1.962 . S
Zn71 O74 1.986 . S
Zn71 O76 1.996 . S
Zn71 O79 1.943 1_455 S
O72 Zn71 1.962 . S
O72 C77 1.254 . S
O73 Zn70 2.031 1_455 S
O73 C77 1.269 . S
O74 Zn71 1.986 . S
O74 C81 1.262 . S
O75 Zn70 2.049 . S
O75 C83 1.260 1_655 S
O76 Zn71 1.996 . S
O76 C83 1.257 . S
C77 O72 1.254 . S
C77 O73 1.269 . S
C78 O79 1.249 . S
C78 O80 1.270 . S
O79 Zn71 1.943 1_655 S
O79 C78 1.249 . S
O80 Zn70 2.067 . S
O80 C78 1.270 . S
C81 O74 1.262 . S
C81 O82 1.232 . S
O82 C81 1.232 . S
C83 O75 1.260 1_455 S
C83 O76 1.257 . S
Zn84 O87 2.031 . S
Zn84 O89 2.049 . S
Zn84 O94 2.067 . S
Zn85 O86 1.962 . S
Zn85 O88 1.986 . S
Zn85 O90 1.996 . S
Zn85 O93 1.943 . S
O86 Zn85 1.962 . S
O86 C91 1.254 . S
O87 Zn84 2.031 . S
O87 C91 1.269 . S
O88 Zn85 1.986 . S
O88 C95 1.262 . S
O89 Zn84 2.049 . S
O89 C97 1.260 . S
O90 Zn85 1.996 . S
O90 C97 1.257 . S
C91 O86 1.254 . S
C91 O87 1.269 . S
C92 O93 1.249 . S
C92 O94 1.270 . S
O93 Zn85 1.943 . S
O93 C92 1.249 . S
O94 Zn84 2.067 . S
O94 C92 1.270 . S
C95 O88 1.262 . S
C95 O96 1.232 . S
O96 C95 1.232 . S
C97 O89 1.260 . S
C97 O90 1.257 . S
Zn98 O101 2.031 1_545 S
Zn98 O103 2.049 . S
Zn98 O108 2.067 . S
Zn99 O100 1.962 . S
Zn99 O102 1.986 . S
Zn99 O104 1.996 . S
Zn99 O107 1.943 1_565 S
O100 Zn99 1.962 . S
O100 C105 1.254 . S
O101 Zn98 2.031 1_565 S
O101 C105 1.269 . S
O102 Zn99 1.986 . S
O102 C109 1.262 . S
O103 Zn98 2.049 . S
O103 C111 1.260 1_545 S
O104 Zn99 1.996 . S
O104 C111 1.257 . S
C105 O100 1.254 . S
C105 O101 1.269 . S
C106 O107 1.249 . S
C106 O108 1.270 . S
O107 Zn99 1.943 1_545 S
O107 C106 1.249 . S
O108 Zn98 2.067 . S
O108 C106 1.270 . S
C109 O102 1.262 . S
C109 O110 1.232 . S
O110 C109 1.232 . S
C111 O103 1.260 1_565 S
C111 O104 1.257 . S
Zn112 O115 2.031 1_655 S
Zn112 O117 2.049 . S
Zn112 O122 2.067 . S
Zn113 O114 1.962 . S
Zn113 O116 1.986 . S
Zn113 O118 1.996 . S
Zn113 O121 1.943 1_455 S
O114 Zn113 1.962 . S
O114 C119 1.254 . S
O115 Zn112 2.031 1_455 S
O115 C119 1.269 . S
O116 Zn113 1.986 . S
O116 C123 1.262 . S
O117 Zn112 2.049 . S
O117 C125 1.260 1_655 S
O118 Zn113 1.996 . S
O118 C125 1.257 . S
C119 O114 1.254 . S
C119 O115 1.269 . S
C120 O121 1.249 . S
C120 O122 1.270 . S
O121 Zn113 1.943 1_655 S
O121 C120 1.249 . S
O122 Zn112 2.067 . S
O122 C120 1.270 . S
C123 O116 1.262 . S
C123 O124 1.232 . S
O124 C123 1.232 . S
C125 O117 1.260 1_455 S
C125 O118 1.257 . S
Zn126 O129 2.031 . S
Zn126 O131 2.049 . S
Zn126 O136 2.067 . S
Zn127 O128 1.962 . S
Zn127 O130 1.986 . S
Zn127 O132 1.996 . S
Zn127 O135 1.943 . S
O128 Zn127 1.962 . S
O128 C133 1.254 . S
O129 Zn126 2.031 . S
O129 C133 1.269 . S
O130 Zn127 1.986 . S
O130 C137 1.262 . S
O131 Zn126 2.049 . S
O131 C139 1.260 . S
O132 Zn127 1.996 . S
O132 C139 1.257 . S
C133 O128 1.254 . S
C133 O129 1.269 . S
C134 O135 1.249 . S
C134 O136 1.270 . S
O135 Zn127 1.943 . S
O135 C134 1.249 . S
O136 Zn126 2.067 . S
O136 C134 1.270 . S
C137 O130 1.262 . S
C137 O138 1.232 . S
O138 C137 1.232 . S
C139 O131 1.260 . S
C139 O132 1.257 . S
Zn140 O143 2.031 1_565 S
Zn140 O145 2.049 . S
Zn140 O150 2.067 . S
Zn141 O142 1.962 . S
Zn141 O144 1.986 . S
Zn141 O146 1.996 . S
Zn141 O149 1.943 1_545 S
O142 Zn141 1.962 . S
O142 C147 1.254 . S
O143 Zn140 2.031 1_545 S
O143 C147 1.269 . S
O144 Zn141 1.986 . S
O144 C151 1.262 . S
O145 Zn140 2.049 . S
O145 C153 1.260 1_565 S
O146 Zn141 1.996 . S
O146 C153 1.257 . S
C147 O142 1.254 . S
C147 O143 1.269 . S
C148 O149 1.249 . S
C148 O150 1.270 . S
O149 Zn141 1.943 1_565 S
O149 C148 1.249 . S
O150 Zn140 2.067 . S
O150 C148 1.270 . S
C151 O144 1.262 . S
C151 O152 1.232 . S
O152 C151 1.232 . S
C153 O145 1.260 1_545 S
C153 O146 1.257 . S
Zn154 O157 2.031 1_455 S
Zn154 O159 2.049 . S
Zn154 O164 2.067 . S
Zn155 O156 1.962 . S
Zn155 O158 1.986 . S
Zn155 O160 1.996 . S
Zn155 O163 1.943 1_655 S
O156 Zn155 1.962 . S
O156 C161 1.254 . S
O157 Zn154 2.031 1_655 S
O157 C161 1.269 . S
O158 Zn155 1.986 . S
O158 C165 1.262 . S
O159 Zn154 2.049 . S
O159 C167 1.260 1_455 S
O160 Zn155 1.996 . S
O160 C167 1.257 . S
C161 O156 1.254 . S
C161 O157 1.269 . S
C162 O163 1.249 . S
C162 O164 1.270 . S
O163 Zn155 1.943 1_455 S
O163 C162 1.249 . S
O164 Zn154 2.067 . S
O164 C162 1.270 . S
C165 O158 1.262 . S
C165 O166 1.232 . S
O166 C165 1.232 . S
C167 O159 1.260 1_655 S
C167 O160 1.257 . S
Zn168 O171 2.031 . S
Zn168 O173 2.049 . S
Zn168 O178 2.067 . S
Zn169 O170 1.962 . S
Zn169 O172 1.986 . S
Zn169 O174 1.996 . S
Zn169 O177 1.943 . S
O170 Zn169 1.962 . S
O170 C175 1.254 . S
O171 Zn168 2.031 . S
O171 C175 1.269 . S
O172 Zn169 1.986 . S
O172 C179 1.262 . S
O173 Zn168 2.049 . S
O173 C181 1.260 . S
O174 Zn169 1.996 . S
O174 C181 1.257 . S
C175 O170 1.254 . S
C175 O171 1.269 . S
C176 O177 1.249 . S
C176 O178 1.270 . S
O177 Zn169 1.943 . S
O177 C176 1.249 . S
O178 Zn168 2.067 . S
O178 C176 1.270 . S
C179 O172 1.262 . S
C179 O180 1.232 . S
O180 C179 1.232 . S
C181 O173 1.260 . S
C181 O174 1.257 . S
Zn182 O185 2.031 . S
Zn182 O187 2.049 . S
Zn182 O192 2.067 . S
Zn183 O184 1.962 . S
Zn183 O186 1.986 . S
Zn183 O188 1.996 . S
Zn183 O191 1.943 . S
O184 Zn183 1.962 . S
O184 C189 1.254 . S
O185 Zn182 2.031 . S
O185 C189 1.269 . S
O186 Zn183 1.986 . S
O186 C193 1.262 . S
O187 Zn182 2.049 . S
O187 C195 1.260 . S
O188 Zn183 1.996 . S
O188 C195 1.257 . S
C189 O184 1.254 . S
C189 O185 1.269 . S
C190 O191 1.249 . S
C190 O192 1.270 . S
O191 Zn183 1.943 . S
O191 C190 1.249 . S
O192 Zn182 2.067 . S
O192 C190 1.270 . S
C193 O186 1.262 . S
C193 O194 1.232 . S
O194 C193 1.232 . S
C195 O187 1.260 . S
C195 O188 1.257 . S
Zn196 O199 2.031 . S
Zn196 O201 2.049 . S
Zn196 O206 2.067 . S
Zn197 O198 1.962 . S
Zn197 O200 1.986 . S
Zn197 O202 1.996 . S
Zn197 O205 1.943 . S
O198 Zn197 1.962 . S
O198 C203 1.254 . S
O199 Zn196 2.031 . S
O199 C203 1.269 . S
O200 Zn197 1.986 . S
O200 C207 1.262 . S
O201 Zn196 2.049 . S
O201 C209 1.260 . S
O202 Zn197 1.996 . S
O202 C209 1.257 . S
C203 O198 1.254 . S
C203 O199 1.269 . S
C204 O205 1.249 . S
C204 O206 1.270 . S
O205 Zn197 1.943 . S
O205 C204 1.249 . S
O206 Zn196 2.067 . S
O206 C204 1.270 . S
C207 O200 1.262 . S
C207 O208 1.232 . S
O208 C207 1.232 . S
C209 O201 1.260 . S
C209 O202 1.257 . S
Zn210 O213 2.031 . S
Zn210 O215 2.049 . S
Zn210 O220 2.067 . S
Zn211 O212 1.962 . S
Zn211 O214 1.986 . S
Zn211 O216 1.996 . S
Zn211 O219 1.943 . S
O212 Zn211 1.962 . S
O212 C217 1.254 . S
O213 Zn210 2.031 . S
O213 C217 1.269 . S
O214 Zn211 1.986 . S
O214 C221 1.262 . S
O215 Zn210 2.049 . S
O215 C223 1.260 . S
O216 Zn211 1.996 . S
O216 C223 1.257 . S
C217 O212 1.254 . S
C217 O213 1.269 . S
C218 O219 1.249 . S
C218 O220 1.270 . S
O219 Zn211 1.943 . S
O219 C218 1.249 . S
O220 Zn210 2.067 . S
O220 C218 1.270 . S
C221 O214 1.262 . S
C221 O222 1.232 . S
O222 C221 1.232 . S
C223 O215 1.260 . S
C223 O216 1.257 . S
Zn224 O227 2.031 . S
Zn224 O229 2.049 . S
Zn224 O234 2.067 . S
Zn225 O226 1.962 . S
Zn225 O228 1.986 . S
Zn225 O230 1.996 . S
Zn225 O233 1.943 . S
O226 Zn225 1.962 . S
O226 C231 1.254 . S
O227 Zn224 2.031 . S
O227 C231 1.269 . S
O228 Zn225 1.986 . S
O228 C235 1.262 . S
O229 Zn224 2.049 . S
O229 C237 1.260 . S
O230 Zn225 1.996 . S
O230 C237 1.257 . S
C231 O226 1.254 . S
C231 O227 1.269 . S
C232 O233 1.249 . S
C232 O234 1.270 . S
O233 Zn225 1.943 . S
O233 C232 1.249 . S
O234 Zn224 2.067 . S
O234 C232 1.270 . S
C235 O228 1.262 . S
C235 O236 1.232 . S
O236 C235 1.232 . S
C237 O229 1.260 . S
C237 O230 1.257 . S
Zn238 O241 2.031 . S
Zn238 O243 2.049 . S
Zn238 O248 2.067 . S
Zn239 O240 1.962 . S
Zn239 O242 1.986 . S
Zn239 O244 1.996 . S
Zn239 O247 1.943 . S
O240 Zn239 1.962 . S
O240 C245 1.254 . S
O241 Zn238 2.031 . S
O241 C245 1.269 . S
O242 Zn239 1.986 . S
O242 C249 1.262 . S
O243 Zn238 2.049 . S
O243 C251 1.260 . S
O244 Zn239 1.996 . S
O244 C251 1.257 . S
C245 O240 1.254 . S
C245 O241 1.269 . S
C246 O247 1.249 . S
C246 O248 1.270 . S
O247 Zn239 1.943 . S
O247 C246 1.249 . S
O248 Zn238 2.067 . S
O248 C246 1.270 . S
C249 O242 1.262 . S
C249 O250 1.232 . S
O250 C249 1.232 . S
C251 O243 1.260 . S
C251 O244 1.257 . S
Zn252 O255 2.031 . S
Zn252 O257 2.049 . S
Zn252 O262 2.067 . S
Zn253 O254 1.962 . S
Zn253 O256 1.986 . S
Zn253 O258 1.996 . S
Zn253 O261 1.943 . S
O254 Zn253 1.962 . S
O254 C259 1.254 . S
O255 Zn252 2.031 . S
O255 C259 1.269 . S
O256 Zn253 1.986 . S
O256 C263 1.262 . S
O257 Zn252 2.049 . S
O257 C265 1.260 . S
O258 Zn253 1.996 . S
O258 C265 1.257 . S
C259 O254 1.254 . S
C259 O255 1.269 . S
C260 O261 1.249 . S
C260 O262 1.270 . S
O261 Zn253 1.943 . S
O261 C260 1.249 . S
O262 Zn252 2.067 . S
O262 C260 1.270 . S
C263 O256 1.262 . S
C263 O264 1.232 . S
O264 C263 1.232 . S
C265 O257 1.260 . S
C265 O258 1.257 . S
Zn266 O269 2.031 . S
Zn266 O271 2.049 . S
Zn266 O276 2.067 . S
Zn267 O268 1.962 . S
Zn267 O270 1.986 . S
Zn267 O272 1.996 . S
Zn267 O275 1.943 . S
O268 Zn267 1.962 . S
O268 C273 1.254 . S
O269 Zn266 2.031 . S
O269 C273 1.269 . S
O270 Zn267 1.986 . S
O270 C277 1.262 . S
O271 Zn266 2.049 . S
O271 C279 1.260 . S
O272 Zn267 1.996 . S
O272 C279 1.257 . S
C273 O268 1.254 . S
C273 O269 1.269 . S
C274 O275 1.249 . S
C274 O276 1.270 . S
O275 Zn267 1.943 . S
O275 C274 1.249 . S
O276 Zn266 2.067 . S
O276 C274 1.270 . S
C277 O270 1.262 . S
C277 O278 1.232 . S
O278 C277 1.232 . S
C279 O271 1.260 . S
C279 O272 1.257 . S
Zn280 O283 2.031 . S
Zn280 O285 2.049 . S
Zn280 O290 2.067 . S
Zn281 O282 1.962 . S
Zn281 O284 1.986 . S
Zn281 O286 1.996 . S
Zn281 O289 1.943 . S
O282 Zn281 1.962 . S
O282 C287 1.254 . S
O283 Zn280 2.031 . S
O283 C287 1.269 . S
O284 Zn281 1.986 . S
O284 C291 1.262 . S
O285 Zn280 2.049 . S
O285 C293 1.260 . S
O286 Zn281 1.996 . S
O286 C293 1.257 . S
C287 O282 1.254 . S
C287 O283 1.269 . S
C288 O289 1.249 . S
C288 O290 1.270 . S
O289 Zn281 1.943 . S
O289 C288 1.249 . S
O290 Zn280 2.067 . S
O290 C288 1.270 . S
C291 O284 1.262 . S
C291 O292 1.232 . S
O292 C291 1.232 . S
C293 O285 1.260 . S
C293 O286 1.257 . S
Zn294 O297 2.031 . S
Zn294 O299 2.049 . S
Zn294 O304 2.067 . S
Zn295 O296 1.962 . S
Zn295 O298 1.986 . S
Zn295 O300 1.996 . S
Zn295 O303 1.943 . S
O296 Zn295 1.962 . S
O296 C301 1.254 . S
O297 Zn294 2.031 . S
O297 C301 1.269 . S
O298 Zn295 1.986 . S
O298 C305 1.262 . S
O299 Zn294 2.049 . S
O299 C307 1.260 . S
O300 Zn295 1.996 . S
O300 C307 1.257 . S
C301 O296 1.254 . S
C301 O297 1.269 . S
C302 O303 1.249 . S
C302 O304 1.270 . S
O303 Zn295 1.943 . S
O303 C302 1.249 . S
O304 Zn294 2.067 . S
O304 C302 1.270 . S
C305 O298 1.262 . S
C305 O306 1.232 1_554 S
O306 C305 1.232 1_556 S
C307 O299 1.260 . S
C307 O300 1.257 . S
Zn308 O311 2.031 . S
Zn308 O313 2.049 . S
Zn308 O318 2.067 . S
Zn309 O310 1.962 . S
Zn309 O312 1.986 . S
Zn309 O314 1.996 . S
Zn309 O317 1.943 . S
O310 Zn309 1.962 . S
O310 C315 1.254 . S
O311 Zn308 2.031 . S
O311 C315 1.269 . S
O312 Zn309 1.986 . S
O312 C319 1.262 . S
O313 Zn308 2.049 . S
O313 C321 1.260 . S
O314 Zn309 1.996 . S
O314 C321 1.257 . S
C315 O310 1.254 . S
C315 O311 1.269 . S
C316 O317 1.249 . S
C316 O318 1.270 . S
O317 Zn309 1.943 . S
O317 C316 1.249 . S
O318 Zn308 2.067 . S
O318 C316 1.270 . S
C319 O312 1.262 . S
C319 O320 1.232 1_554 S
O320 C319 1.232 1_556 S
C321 O313 1.260 . S
C321 O314 1.257 . S
Zn322 O325 2.031 . S
Zn322 O327 2.049 . S
Zn322 O332 2.067 . S
Zn323 O324 1.962 . S
Zn323 O326 1.986 . S
Zn323 O328 1.996 . S
Zn323 O331 1.943 . S
O324 Zn323 1.962 . S
O324 C329 1.254 . S
O325 Zn322 2.031 . S
O325 C329 1.269 . S
O326 Zn323 1.986 . S
O326 C333 1.262 . S
O327 Zn322 2.049 . S
O327 C335 1.260 . S
O328 Zn323 1.996 . S
O328 C335 1.257 . S
C329 O324 1.254 . S
C329 O325 1.269 . S
C330 O331 1.249 . S
C330 O332 1.270 . S
O331 Zn323 1.943 . S
O331 C330 1.249 . S
O332 Zn322 2.067 . S
O332 C330 1.270 . S
C333 O326 1.262 . S
C333 O334 1.232 1_554 S
O334 C333 1.232 1_556 S
C335 O327 1.260 . S
C335 O328 1.257 . S
Zn336 O339 2.031 . S
Zn336 O341 2.049 . S
Zn336 O346 2.067 . S
Zn337 O338 1.962 . S
Zn337 O340 1.986 . S
Zn337 O342 1.996 . S
Zn337 O345 1.943 . S
O338 Zn337 1.962 . S
O338 C343 1.254 . S
O339 Zn336 2.031 . S
O339 C343 1.269 . S
O340 Zn337 1.986 . S
O340 C347 1.262 . S
O341 Zn336 2.049 . S
O341 C349 1.260 . S
O342 Zn337 1.996 . S
O342 C349 1.257 . S
C343 O338 1.254 . S
C343 O339 1.269 . S
C344 O345 1.249 . S
C344 O346 1.270 . S
O345 Zn337 1.943 . S
O345 C344 1.249 . S
O346 Zn336 2.067 . S
O346 C344 1.270 . S
C347 O340 1.262 . S
C347 O348 1.232 . S
O348 C347 1.232 . S
C349 O341 1.260 . S
C349 O342 1.257 . S
Zn350 O353 2.031 . S
Zn350 O355 2.049 . S
Zn350 O360 2.067 . S
Zn351 O352 1.962 . S
Zn351 O354 1.986 . S
Zn351 O356 1.996 . S
Zn351 O359 1.943 . S
O352 Zn351 1.962 . S
O352 C357 1.254 . S
O353 Zn350 2.031 . S
O353 C357 1.269 . S
O354 Zn351 1.986 . S
O354 C361 1.262 . S
O355 Zn350 2.049 . S
O355 C363 1.260 . S
O356 Zn351 1.996 . S
O356 C363 1.257 . S
C357 O352 1.254 . S
C357 O353 1.269 . S
C358 O359 1.249 . S
C358 O360 1.270 . S
O359 Zn351 1.943 . S
O359 C358 1.249 . S
O360 Zn350 2.067 . S
O360 C358 1.270 . S
C361 O354 1.262 . S
C361 O362 1.232 . S
O362 C361 1.232 . S
C363 O355 1.260 . S
C363 O356 1.257 . S
Zn364 O367 2.031 . S
Zn364 O369 2.049 . S
Zn364 O374 2.067 . S
Zn365 O366 1.962 . S
Zn365 O368 1.986 . S
Zn365 O370 1.996 . S
Zn365 O373 1.943 . S
O366 Zn365 1.962 . S
O366 C371 1.254 . S
O367 Zn364 2.031 . S
O367 C371 1.269 . S
O368 Zn365 1.986 . S
O368 C375 1.262 . S
O369 Zn364 2.049 . S
O369 C377 1.260 . S
O370 Zn365 1.996 . S
O370 C377 1.257 . S
C371 O366 1.254 . S
C371 O367 1.269 . S
C372 O373 1.249 . S
C372 O374 1.270 . S
O373 Zn365 1.943 . S
O373 C372 1.249 . S
O374 Zn364 2.067 . S
O374 C372 1.270 . S
C375 O368 1.262 . S
C375 O376 1.232 . S
O376 C375 1.232 . S
C377 O369 1.260 . S
C377 O370 1.257 . S
Zn378 O381 2.031 . S
Zn378 O383 2.049 . S
Zn378 O388 2.067 . S
Zn379 O380 1.962 . S
Zn379 O382 1.986 . S
Zn379 O384 1.996 . S
Zn379 O387 1.943 . S
O380 Zn379 1.962 . S
O380 C385 1.254 . S
O381 Zn378 2.031 . S
O381 C385 1.269 . S
O382 Zn379 1.986 . S
O382 C389 1.262 . S
O383 Zn378 2.049 . S
O383 C391 1.260 . S
O384 Zn379 1.996 . S
O384 C391 1.257 . S
C385 O380 1.254 . S
C385 O381 1.269 . S
C386 O387 1.249 . S
C386 O388 1.270 . S
O387 Zn379 1.943 . S
O387 C386 1.249 . S
O388 Zn378 2.067 . S
O388 C386 1.270 . S
C389 O382 1.262 . S
C389 O390 1.232 1_556 S
O390 C389 1.232 1_554 S
C391 O383 1.260 . S
C391 O384 1.257 . S
Zn392 O395 2.031 . S
Zn392 O397 2.049 . S
Zn392 O402 2.067 . S
Zn393 O394 1.962 . S
Zn393 O396 1.986 . S
Zn393 O398 1.996 . S
Zn393 O401 1.943 . S
O394 Zn393 1.962 . S
O394 C399 1.254 . S
O395 Zn392 2.031 . S
O395 C399 1.269 . S
O396 Zn393 1.986 . S
O396 C403 1.262 . S
O397 Zn392 2.049 . S
O397 C405 1.260 . S
O398 Zn393 1.996 . S
O398 C405 1.257 . S
C399 O394 1.254 . S
C399 O395 1.269 . S
C400 O401 1.249 . S
C400 O402 1.270 . S
O401 Zn393 1.943 . S
O401 C400 1.249 . S
O402 Zn392 2.067 . S
O402 C400 1.270 . S
C403 O396 1.262 . S
C403 O404 1.232 1_556 S
O404 C403 1.232 1_554 S
C405 O397 1.260 . S
C405 O398 1.257 . S
Zn406 O409 2.031 . S
Zn406 O411 2.049 . S
Zn406 O416 2.067 . S
Zn407 O408 1.962 . S
Zn407 O410 1.986 . S
Zn407 O412 1.996 . S
Zn407 O415 1.943 . S
O408 Zn407 1.962 . S
O408 C413 1.254 . S
O409 Zn406 2.031 . S
O409 C413 1.269 . S
O410 Zn407 1.986 . S
O410 C417 1.262 . S
O411 Zn406 2.049 . S
O411 C419 1.260 . S
O412 Zn407 1.996 . S
O412 C419 1.257 . S
C413 O408 1.254 . S
C413 O409 1.269 . S
C414 O415 1.249 . S
C414 O416 1.270 . S
O415 Zn407 1.943 . S
O415 C414 1.249 . S
O416 Zn406 2.067 . S
O416 C414 1.270 . S
C417 O410 1.262 . S
C417 O418 1.232 1_556 S
O418 C417 1.232 1_554 S
C419 O411 1.260 . S
C419 O412 1.257 . S
Zn420 O423 2.031 . S
Zn420 O425 2.049 . S
Zn420 O430 2.067 . S
Zn421 O422 1.962 . S
Zn421 O424 1.986 . S
Zn421 O426 1.996 . S
Zn421 O429 1.943 . S
O422 Zn421 1.962 . S
O422 C427 1.254 . S
O423 Zn420 2.031 . S
O423 C427 1.269 . S
O424 Zn421 1.986 . S
O424 C431 1.262 . S
O425 Zn420 2.049 . S
O425 C433 1.260 . S
O426 Zn421 1.996 . S
O426 C433 1.257 . S
C427 O422 1.254 . S
C427 O423 1.269 . S
C428 O429 1.249 . S
C428 O430 1.270 . S
O429 Zn421 1.943 . S
O429 C428 1.249 . S
O430 Zn420 2.067 . S
O430 C428 1.270 . S
C431 O424 1.262 . S
C431 O432 1.232 . S
O432 C431 1.232 . S
C433 O425 1.260 . S
C433 O426 1.257 . S
Zn434 O437 2.031 . S
Zn434 O439 2.049 . S
Zn434 O444 2.067 . S
Zn435 O436 1.962 . S
Zn435 O438 1.986 . S
Zn435 O440 1.996 . S
Zn435 O443 1.943 . S
O436 Zn435 1.962 . S
O436 C441 1.254 . S
O437 Zn434 2.031 . S
O437 C441 1.269 . S
O438 Zn435 1.986 . S
O438 C445 1.262 . S
O439 Zn434 2.049 . S
O439 C447 1.260 . S
O440 Zn435 1.996 . S
O440 C447 1.257 . S
C441 O436 1.254 . S
C441 O437 1.269 . S
C442 O443 1.249 . S
C442 O444 1.270 . S
O443 Zn435 1.943 . S
O443 C442 1.249 . S
O444 Zn434 2.067 . S
O444 C442 1.270 . S
C445 O438 1.262 . S
C445 O446 1.232 . S
O446 C445 1.232 . S
C447 O439 1.260 . S
C447 O440 1.257 . S
Zn448 O451 2.031 . S
Zn448 O453 2.049 . S
Zn448 O458 2.067 . S
Zn449 O450 1.962 . S
Zn449 O452 1.986 . S
Zn449 O454 1.996 . S
Zn449 O457 1.943 . S
O450 Zn449 1.962 . S
O450 C455 1.254 . S
O451 Zn448 2.031 . S
O451 C455 1.269 . S
O452 Zn449 1.986 . S
O452 C459 1.262 . S
O453 Zn448 2.049 . S
O453 C461 1.260 . S
O454 Zn449 1.996 . S
O454 C461 1.257 . S
C455 O450 1.254 . S
C455 O451 1.269 . S
C456 O457 1.249 . S
C456 O458 1.270 . S
O457 Zn449 1.943 . S
O457 C456 1.249 . S
O458 Zn448 2.067 . S
O458 C456 1.270 . S
C459 O452 1.262 . S
C459 O460 1.232 . S
O460 C459 1.232 . S
C461 O453 1.260 . S
C461 O454 1.257 . S
Zn462 O465 2.031 . S
Zn462 O467 2.049 . S
Zn462 O472 2.067 . S
Zn463 O464 1.962 . S
Zn463 O466 1.986 . S
Zn463 O468 1.996 . S
Zn463 O471 1.943 . S
O464 Zn463 1.962 . S
O464 C469 1.254 . S
O465 Zn462 2.031 . S
O465 C469 1.269 . S
O466 Zn463 1.986 . S
O466 C473 1.262 . S
O467 Zn462 2.049 . S
O467 C475 1.260 . S
O468 Zn463 1.996 . S
O468 C475 1.257 . S
C469 O464 1.254 . S
C469 O465 1.269 . S
C470 O471 1.249 . S
C470 O472 1.270 . S
O471 Zn463 1.943 . S
O471 C470 1.249 . S
O472 Zn462 2.067 . S
O472 C470 1.270 . S
C473 O466 1.262 . S
C473 O474 1.232 . S
O474 C473 1.232 . S
C475 O467 1.260 . S
C475 O468 1.257 . S
Zn476 O479 2.031 . S
Zn476 O481 2.049 . S
Zn476 O486 2.067 . S
Zn477 O478 1.962 . S
Zn477 O480 1.986 . S
Zn477 O482 1.996 . S
Zn477 O485 1.943 . S
O478 Zn477 1.962 . S
O478 C483 1.254 . S
O479 Zn476 2.031 . S
O479 C483 1.269 . S
O480 Zn477 1.986 . S
O480 C487 1.262 . S
O481 Zn476 2.049 . S
O481 C489 1.260 . S
O482 Zn477 1.996 . S
O482 C489 1.257 . S
C483 O478 1.254 . S
C483 O479 1.269 . S
C484 O485 1.249 . S
C484 O486 1.270 . S
O485 Zn477 1.943 . S
O485 C484 1.249 . S
O486 Zn476 2.067 . S
O486 C484 1.270 . S
C487 O480 1.262 . S
C487 O488 1.232 . S
O488 C487 1.232 . S
C489 O481 1.260 . S
C489 O482 1.257 . S
Zn490 O493 2.031 . S
Zn490 O495 2.049 . S
Zn490 O500 2.067 . S
Zn491 O492 1.962 . S
Zn491 O494 1.986 . S
Zn491 O496 1.996 . S
Zn491 O499 1.943 . S
O492 Zn491 1.962 . S
O492 C497 1.254 . S
O493 Zn490 2.031 . S
O493 C497 1.269 . S
O494 Zn491 1.986 . S
O494 C501 1.262 . S
O495 Zn490 2.049 . S
O495 C503 1.260 . S
O496 Zn491 1.996 . S
O496 C503 1.257 . S
C497 O492 1.254 . S
C497 O493 1.269 . S
C498 O499 1.249 . S
C498 O500 1.270 . S
O499 Zn491 1.943 . S
O499 C498 1.249 . S
O500 Zn490 2.067 . S
O500 C498 1.270 . S
C501 O494 1.262 . S
C501 O502 1.232 . S
O502 C501 1.232 . S
C503 O495 1.260 . S
C503 O496 1.257 . S
H504 C510 0.930 . S
H505 C513 0.930 . S
H506 C514 0.930 . S
H507 C515 0.930 . S
H508 C518 0.930 . S
H509 C519 0.930 . S
C510 H504 0.930 . S
C510 C511 1.355 . S
C510 C512 1.415 . S
C511 C510 1.355 . S
C511 C513 1.419 . S
C512 C510 1.415 . S
C512 C517 1.425 . S
C512 C519 1.409 . S
C513 H505 0.930 . S
C513 C511 1.419 . S
C513 C514 1.362 . S
C514 H506 0.930 . S
C514 C513 1.362 . S
C514 C517 1.409 . S
C515 H507 0.930 . S
C515 C516 1.355 . S
C515 C517 1.415 1_655 S
C516 C515 1.355 . S
C516 C518 1.419 . S
C517 C512 1.425 . S
C517 C514 1.409 . S
C517 C515 1.415 1_455 S
C518 H508 0.930 . S
C518 C516 1.419 . S
C518 C519 1.362 1_655 S
C519 H509 0.930 . S
C519 C512 1.409 . S
C519 C518 1.362 1_455 S
H520 C526 0.930 . S
H521 C529 0.930 . S
H522 C530 0.930 . S
H523 C531 0.930 . S
H524 C534 0.930 . S
H525 C535 0.930 . S
C526 H520 0.930 . S
C526 C527 1.355 . S
C526 C528 1.415 . S
C527 C526 1.355 . S
C527 C529 1.419 . S
C528 C526 1.415 . S
C528 C533 1.425 . S
C528 C535 1.409 . S
C529 H521 0.930 . S
C529 C527 1.419 . S
C529 C530 1.362 . S
C530 H522 0.930 . S
C530 C529 1.362 . S
C530 C533 1.409 . S
C531 H523 0.930 . S
C531 C532 1.355 . S
C531 C533 1.415 . S
C532 C531 1.355 . S
C532 C534 1.419 . S
C533 C528 1.425 . S
C533 C530 1.409 . S
C533 C531 1.415 . S
C534 H524 0.930 . S
C534 C532 1.419 . S
C534 C535 1.362 . S
C535 H525 0.930 . S
C535 C528 1.409 . S
C535 C534 1.362 . S
H536 C542 0.930 . S
H537 C545 0.930 . S
H538 C546 0.930 . S
H539 C547 0.930 . S
H540 C550 0.930 . S
H541 C551 0.930 . S
C542 H536 0.930 . S
C542 C543 1.355 . S
C542 C544 1.415 1_545 S
C543 C542 1.355 . S
C543 C545 1.419 . S
C544 C542 1.415 1_565 S
C544 C549 1.425 . S
C544 C551 1.409 . S
C545 H537 0.930 . S
C545 C543 1.419 . S
C545 C546 1.362 1_545 S
C546 H538 0.930 . S
C546 C545 1.362 1_565 S
C546 C549 1.409 . S
C547 H539 0.930 . S
C547 C548 1.355 . S
C547 C549 1.415 . S
C548 C547 1.355 . S
C548 C550 1.419 . S
C549 C544 1.425 . S
C549 C546 1.409 . S
C549 C547 1.415 . S
C550 H540 0.930 . S
C550 C548 1.419 . S
C550 C551 1.362 . S
C551 H541 0.930 . S
C551 C544 1.409 . S
C551 C550 1.362 . S
H552 C558 0.930 . S
H553 C561 0.930 . S
H554 C562 0.930 . S
H555 C563 0.930 . S
H556 C566 0.930 . S
H557 C567 0.930 . S
C558 H552 0.930 . S
C558 C559 1.355 . S
C558 C560 1.415 . S
C559 C558 1.355 . S
C559 C561 1.419 . S
C560 C558 1.415 . S
C560 C565 1.425 . S
C560 C567 1.409 . S
C561 H553 0.930 . S
C561 C559 1.419 . S
C561 C562 1.362 . S
C562 H554 0.930 . S
C562 C561 1.362 . S
C562 C565 1.409 . S
C563 H555 0.930 . S
C563 C564 1.355 . S
C563 C565 1.415 1_565 S
C564 C563 1.355 . S
C564 C566 1.419 . S
C565 C560 1.425 . S
C565 C562 1.409 . S
C565 C563 1.415 1_545 S
C566 H556 0.930 . S
C566 C564 1.419 . S
C566 C567 1.362 1_565 S
C567 H557 0.930 . S
C567 C560 1.409 . S
C567 C566 1.362 1_545 S
H568 C574 0.930 . S
H569 C577 0.930 . S
H570 C578 0.930 . S
H571 C579 0.930 . S
H572 C582 0.930 . S
H573 C583 0.930 . S
C574 H568 0.930 . S
C574 C575 1.355 . S
C574 C576 1.415 . S
C575 C574 1.355 . S
C575 C577 1.419 . S
C576 C574 1.415 . S
C576 C581 1.425 . S
C576 C583 1.409 . S
C577 H569 0.930 . S
C577 C575 1.419 . S
C577 C578 1.362 . S
C578 H570 0.930 . S
C578 C577 1.362 . S
C578 C581 1.409 . S
C579 H571 0.930 . S
C579 C580 1.355 . S
C579 C581 1.415 1_455 S
C580 C579 1.355 . S
C580 C582 1.419 . S
C581 C576 1.425 . S
C581 C578 1.409 . S
C581 C579 1.415 1_655 S
C582 H572 0.930 . S
C582 C580 1.419 . S
C582 C583 1.362 1_455 S
C583 H573 0.930 . S
C583 C576 1.409 . S
C583 C582 1.362 1_655 S
H584 C590 0.930 . S
H585 C593 0.930 . S
H586 C594 0.930 . S
H587 C595 0.930 . S
H588 C598 0.930 . S
H589 C599 0.930 . S
C590 H584 0.930 . S
C590 C591 1.355 . S
C590 C592 1.415 . S
C591 C590 1.355 . S
C591 C593 1.419 . S
C592 C590 1.415 . S
C592 C597 1.425 . S
C592 C599 1.409 . S
C593 H585 0.930 . S
C593 C591 1.419 . S
C593 C594 1.362 . S
C594 H586 0.930 . S
C594 C593 1.362 . S
C594 C597 1.409 . S
C595 H587 0.930 . S
C595 C596 1.355 . S
C595 C597 1.415 . S
C596 C595 1.355 . S
C596 C598 1.419 . S
C597 C592 1.425 . S
C597 C594 1.409 . S
C597 C595 1.415 . S
C598 H588 0.930 . S
C598 C596 1.419 . S
C598 C599 1.362 . S
C599 H589 0.930 . S
C599 C592 1.409 . S
C599 C598 1.362 . S
H600 C606 0.930 . S
H601 C609 0.930 . S
H602 C610 0.930 . S
H603 C611 0.930 . S
H604 C614 0.930 . S
H605 C615 0.930 . S
C606 H600 0.930 . S
C606 C607 1.355 . S
C606 C608 1.415 . S
C607 C606 1.355 . S
C607 C609 1.419 . S
C608 C606 1.415 . S
C608 C613 1.425 . S
C608 C615 1.409 . S
C609 H601 0.930 . S
C609 C607 1.419 . S
C609 C610 1.362 . S
C610 H602 0.930 . S
C610 C609 1.362 . S
C610 C613 1.409 . S
C611 H603 0.930 . S
C611 C612 1.355 . S
C611 C613 1.415 1_455 S
C612 C611 1.355 . S
C612 C614 1.419 . S
C613 C608 1.425 . S
C613 C610 1.409 . S
C613 C611 1.415 1_655 S
C614 H604 0.930 . S
C614 C612 1.419 . S
C614 C615 1.362 1_455 S
C615 H605 0.930 . S
C615 C608 1.409 . S
C615 C614 1.362 1_655 S
H616 C622 0.930 . S
H617 C625 0.930 . S
H618 C626 0.930 . S
H619 C627 0.930 . S
H620 C630 0.930 . S
H621 C631 0.930 . S
C622 H616 0.930 . S
C622 C623 1.355 . S
C622 C624 1.415 . S
C623 C622 1.355 . S
C623 C625 1.419 . S
C624 C622 1.415 . S
C624 C629 1.425 . S
C624 C631 1.409 . S
C625 H617 0.930 . S
C625 C623 1.419 . S
C625 C626 1.362 . S
C626 H618 0.930 . S
C626 C625 1.362 . S
C626 C629 1.409 . S
C627 H619 0.930 . S
C627 C628 1.355 . S
C627 C629 1.415 . S
C628 C627 1.355 . S
C628 C630 1.419 . S
C629 C624 1.425 . S
C629 C626 1.409 . S
C629 C627 1.415 . S
C630 H620 0.930 . S
C630 C628 1.419 . S
C630 C631 1.362 . S
C631 H621 0.930 . S
C631 C624 1.409 . S
C631 C630 1.362 . S
H632 C638 0.930 . S
H633 C641 0.930 . S
H634 C642 0.930 . S
H635 C643 0.930 . S
H636 C646 0.930 . S
H637 C647 0.930 . S
C638 H632 0.930 . S
C638 C639 1.355 . S
C638 C640 1.415 1_565 S
C639 C638 1.355 . S
C639 C641 1.419 . S
C640 C638 1.415 1_545 S
C640 C645 1.425 . S
C640 C647 1.409 . S
C641 H633 0.930 . S
C641 C639 1.419 . S
C641 C642 1.362 1_565 S
C642 H634 0.930 . S
C642 C641 1.362 1_545 S
C642 C645 1.409 . S
C643 H635 0.930 . S
C643 C644 1.355 . S
C643 C645 1.415 . S
C644 C643 1.355 . S
C644 C646 1.419 . S
C645 C640 1.425 . S
C645 C642 1.409 . S
C645 C643 1.415 . S
C646 H636 0.930 . S
C646 C644 1.419 . S
C646 C647 1.362 . S
C647 H637 0.930 . S
C647 C640 1.409 . S
C647 C646 1.362 . S
H648 C654 0.930 . S
H649 C657 0.930 . S
H650 C658 0.930 . S
H651 C659 0.930 . S
H652 C662 0.930 . S
H653 C663 0.930 . S
C654 H648 0.930 . S
C654 C655 1.355 . S
C654 C656 1.415 1_545 S
C655 C654 1.355 . S
C655 C657 1.419 . S
C656 C654 1.415 1_565 S
C656 C661 1.425 . S
C656 C663 1.409 . S
C657 H649 0.930 . S
C657 C655 1.419 . S
C657 C658 1.362 1_545 S
C658 H650 0.930 . S
C658 C657 1.362 1_565 S
C658 C661 1.409 . S
C659 H651 0.930 . S
C659 C660 1.355 . S
C659 C661 1.415 . S
C660 C659 1.355 . S
C660 C662 1.419 . S
C661 C656 1.425 . S
C661 C658 1.409 . S
C661 C659 1.415 . S
C662 H652 0.930 . S
C662 C660 1.419 . S
C662 C663 1.362 . S
C663 H653 0.930 . S
C663 C656 1.409 . S
C663 C662 1.362 . S
H664 C670 0.930 . S
H665 C673 0.930 . S
H666 C674 0.930 . S
H667 C675 0.930 . S
H668 C678 0.930 . S
H669 C679 0.930 . S
C670 H664 0.930 . S
C670 C671 1.355 . S
C670 C672 1.415 . S
C671 C670 1.355 . S
C671 C673 1.419 . S
C672 C670 1.415 . S
C672 C677 1.425 . S
C672 C679 1.409 . S
C673 H665 0.930 . S
C673 C671 1.419 . S
C673 C674 1.362 . S
C674 H666 0.930 . S
C674 C673 1.362 . S
C674 C677 1.409 . S
C675 H667 0.930 . S
C675 C676 1.355 . S
C675 C677 1.415 1_655 S
C676 C675 1.355 . S
C676 C678 1.419 . S
C677 C672 1.425 . S
C677 C674 1.409 . S
C677 C675 1.415 1_455 S
C678 H668 0.930 . S
C678 C676 1.419 . S
C678 C679 1.362 1_655 S
C679 H669 0.930 . S
C679 C672 1.409 . S
C679 C678 1.362 1_455 S
H680 C686 0.930 . S
H681 C689 0.930 . S
H682 C690 0.930 . S
H683 C691 0.930 . S
H684 C694 0.930 . S
H685 C695 0.930 . S
C686 H680 0.930 . S
C686 C687 1.355 . S
C686 C688 1.415 . S
C687 C686 1.355 . S
C687 C689 1.419 . S
C688 C686 1.415 . S
C688 C693 1.425 . S
C688 C695 1.409 . S
C689 H681 0.930 . S
C689 C687 1.419 . S
C689 C690 1.362 . S
C690 H682 0.930 . S
C690 C689 1.362 . S
C690 C693 1.409 . S
C691 H683 0.930 . S
C691 C692 1.355 . S
C691 C693 1.415 . S
C692 C691 1.355 . S
C692 C694 1.419 . S
C693 C688 1.425 . S
C693 C690 1.409 . S
C693 C691 1.415 . S
C694 H684 0.930 . S
C694 C692 1.419 . S
C694 C695 1.362 . S
C695 H685 0.930 . S
C695 C688 1.409 . S
C695 C694 1.362 . S
H696 C702 0.930 . S
H697 C705 0.930 . S
H698 C706 0.930 . S
H699 C707 0.930 . S
H700 C710 0.930 . S
H701 C711 0.930 . S
C702 H696 0.930 . S
C702 C703 1.355 . S
C702 C704 1.415 . S
C703 C702 1.355 . S
C703 C705 1.419 . S
C704 C702 1.415 . S
C704 C709 1.425 . S
C704 C711 1.409 . S
C705 H697 0.930 . S
C705 C703 1.419 . S
C705 C706 1.362 . S
C706 H698 0.930 . S
C706 C705 1.362 . S
C706 C709 1.409 . S
C707 H699 0.930 . S
C707 C708 1.355 . S
C707 C709 1.415 . S
C708 C707 1.355 . S
C708 C710 1.419 . S
C709 C704 1.425 . S
C709 C706 1.409 . S
C709 C707 1.415 . S
C710 H700 0.930 . S
C710 C708 1.419 . S
C710 C711 1.362 . S
C711 H701 0.930 . S
C711 C704 1.409 . S
C711 C710 1.362 . S
H712 C718 0.930 . S
H713 C721 0.930 . S
H714 C722 0.930 . S
H715 C723 0.930 . S
H716 C726 0.930 . S
H717 C727 0.930 . S
C718 H712 0.930 . S
C718 C719 1.355 . S
C718 C720 1.415 . S
C719 C718 1.355 . S
C719 C721 1.419 . S
C720 C718 1.415 . S
C720 C725 1.425 . S
C720 C727 1.409 . S
C721 H713 0.930 . S
C721 C719 1.419 . S
C721 C722 1.362 . S
C722 H714 0.930 . S
C722 C721 1.362 . S
C722 C725 1.409 . S
C723 H715 0.930 . S
C723 C724 1.355 . S
C723 C725 1.415 . S
C724 C723 1.355 . S
C724 C726 1.419 . S
C725 C720 1.425 . S
C725 C722 1.409 . S
C725 C723 1.415 . S
C726 H716 0.930 . S
C726 C724 1.419 . S
C726 C727 1.362 . S
C727 H717 0.930 . S
C727 C720 1.409 . S
C727 C726 1.362 . S
H728 C734 0.930 . S
H729 C737 0.930 . S
H730 C738 0.930 . S
H731 C739 0.930 . S
H732 C742 0.930 . S
H733 C743 0.930 . S
C734 H728 0.930 . S
C734 C735 1.355 . S
C734 C736 1.415 . S
C735 C734 1.355 . S
C735 C737 1.419 . S
C736 C734 1.415 . S
C736 C741 1.425 . S
C736 C743 1.409 . S
C737 H729 0.930 . S
C737 C735 1.419 . S
C737 C738 1.362 . S
C738 H730 0.930 . S
C738 C737 1.362 . S
C738 C741 1.409 . S
C739 H731 0.930 . S
C739 C740 1.355 . S
C739 C741 1.415 . S
C740 C739 1.355 . S
C740 C742 1.419 . S
C741 C736 1.425 . S
C741 C738 1.409 . S
C741 C739 1.415 . S
C742 H732 0.930 . S
C742 C740 1.419 . S
C742 C743 1.362 . S
C743 H733 0.930 . S
C743 C736 1.409 . S
C743 C742 1.362 . S
H744 C750 0.930 . S
H745 C753 0.930 . S
H746 C754 0.930 . S
H747 C755 0.930 . S
H748 C758 0.930 . S
H749 C759 0.930 . S
C750 H744 0.930 . S
C750 C751 1.355 . S
C750 C752 1.415 . S
C751 C750 1.355 . S
C751 C753 1.419 . S
C752 C750 1.415 . S
C752 C757 1.425 . S
C752 C759 1.409 . S
C753 H745 0.930 . S
C753 C751 1.419 . S
C753 C754 1.362 . S
C754 H746 0.930 . S
C754 C753 1.362 . S
C754 C757 1.409 . S
C755 H747 0.930 . S
C755 C756 1.355 . S
C755 C757 1.415 . S
C756 C755 1.355 . S
C756 C758 1.419 . S
C757 C752 1.425 . S
C757 C754 1.409 . S
C757 C755 1.415 . S
C758 H748 0.930 . S
C758 C756 1.419 . S
C758 C759 1.362 . S
C759 H749 0.930 . S
C759 C752 1.409 . S
C759 C758 1.362 . S
H760 C766 0.930 . S
H761 C769 0.930 . S
H762 C770 0.930 . S
H763 C771 0.930 . S
H764 C774 0.930 . S
H765 C775 0.930 . S
C766 H760 0.930 . S
C766 C767 1.355 . S
C766 C768 1.415 . S
C767 C766 1.355 . S
C767 C769 1.419 . S
C768 C766 1.415 . S
C768 C773 1.425 . S
C768 C775 1.409 . S
C769 H761 0.930 . S
C769 C767 1.419 . S
C769 C770 1.362 . S
C770 H762 0.930 . S
C770 C769 1.362 . S
C770 C773 1.409 . S
C771 H763 0.930 . S
C771 C772 1.355 . S
C771 C773 1.415 . S
C772 C771 1.355 . S
C772 C774 1.419 . S
C773 C768 1.425 . S
C773 C770 1.409 . S
C773 C771 1.415 . S
C774 H764 0.930 . S
C774 C772 1.419 . S
C774 C775 1.362 . S
C775 H765 0.930 . S
C775 C768 1.409 . S
C775 C774 1.362 . S
H776 C782 0.930 . S
H777 C785 0.930 . S
H778 C786 0.930 . S
H779 C787 0.930 . S
H780 C790 0.930 . S
H781 C791 0.930 . S
C782 H776 0.930 . S
C782 C783 1.355 . S
C782 C784 1.415 . S
C783 C782 1.355 . S
C783 C785 1.419 . S
C784 C782 1.415 . S
C784 C789 1.425 . S
C784 C791 1.409 . S
C785 H777 0.930 . S
C785 C783 1.419 . S
C785 C786 1.362 . S
C786 H778 0.930 . S
C786 C785 1.362 . S
C786 C789 1.409 . S
C787 H779 0.930 . S
C787 C788 1.355 . S
C787 C789 1.415 . S
C788 C787 1.355 . S
C788 C790 1.419 . S
C789 C784 1.425 . S
C789 C786 1.409 . S
C789 C787 1.415 . S
C790 H780 0.930 . S
C790 C788 1.419 . S
C790 C791 1.362 . S
C791 H781 0.930 . S
C791 C784 1.409 . S
C791 C790 1.362 . S
H792 C798 0.930 . S
H793 C801 0.930 . S
H794 C802 0.930 . S
H795 C803 0.930 . S
H796 C806 0.930 . S
H797 C807 0.930 . S
C798 H792 0.930 . S
C798 C799 1.355 . S
C798 C800 1.415 . S
C799 C798 1.355 . S
C799 C801 1.419 . S
C800 C798 1.415 . S
C800 C805 1.425 . S
C800 C807 1.409 . S
C801 H793 0.930 . S
C801 C799 1.419 . S
C801 C802 1.362 . S
C802 H794 0.930 . S
C802 C801 1.362 . S
C802 C805 1.409 . S
C803 H795 0.930 . S
C803 C804 1.355 . S
C803 C805 1.415 . S
C804 C803 1.355 . S
C804 C806 1.419 . S
C805 C800 1.425 . S
C805 C802 1.409 . S
C805 C803 1.415 . S
C806 H796 0.930 . S
C806 C804 1.419 . S
C806 C807 1.362 . S
C807 H797 0.930 . S
C807 C800 1.409 . S
C807 C806 1.362 . S
H808 C814 0.930 . S
H809 C817 0.930 . S
H810 C818 0.930 . S
H811 C819 0.930 . S
H812 C822 0.930 . S
H813 C823 0.930 . S
C814 H808 0.930 . S
C814 C815 1.355 . S
C814 C816 1.415 . S
C815 C814 1.355 . S
C815 C817 1.419 . S
C816 C814 1.415 . S
C816 C821 1.425 . S
C816 C823 1.409 . S
C817 H809 0.930 . S
C817 C815 1.419 . S
C817 C818 1.362 . S
C818 H810 0.930 . S
C818 C817 1.362 . S
C818 C821 1.409 . S
C819 H811 0.930 . S
C819 C820 1.355 . S
C819 C821 1.415 . S
C820 C819 1.355 . S
C820 C822 1.419 . S
C821 C816 1.425 . S
C821 C818 1.409 . S
C821 C819 1.415 . S
C822 H812 0.930 . S
C822 C820 1.419 . S
C822 C823 1.362 . S
C823 H813 0.930 . S
C823 C816 1.409 . S
C823 C822 1.362 . S
H824 C830 0.930 . S
H825 C833 0.930 . S
H826 C834 0.930 . S
H827 C835 0.930 . S
H828 C838 0.930 . S
H829 C839 0.930 . S
C830 H824 0.930 . S
C830 C831 1.355 . S
C830 C832 1.415 . S
C831 C830 1.355 . S
C831 C833 1.419 . S
C832 C830 1.415 . S
C832 C837 1.425 . S
C832 C839 1.409 . S
C833 H825 0.930 . S
C833 C831 1.419 . S
C833 C834 1.362 . S
C834 H826 0.930 . S
C834 C833 1.362 . S
C834 C837 1.409 . S
C835 H827 0.930 . S
C835 C836 1.355 . S
C835 C837 1.415 . S
C836 C835 1.355 . S
C836 C838 1.419 . S
C837 C832 1.425 . S
C837 C834 1.409 . S
C837 C835 1.415 . S
C838 H828 0.930 . S
C838 C836 1.419 . S
C838 C839 1.362 . S
C839 H829 0.930 . S
C839 C832 1.409 . S
C839 C838 1.362 . S
H840 C846 0.930 . S
H841 C849 0.886 1_556 S
H842 C850 0.930 . S
H843 C851 0.930 1_556 S
H844 C854 0.930 . S
H845 C855 0.930 . S
C846 H840 0.930 . S
C846 C847 1.355 . S
C846 C848 1.415 . S
C847 C846 1.355 . S
C847 C849 1.486 . S
C848 C846 1.415 . S
C848 C853 1.425 . S
C848 C855 1.409 . S
C849 H841 0.886 1_554 S
C849 C847 1.486 . S
C849 C850 1.343 1_554 S
C850 H842 0.930 . S
C850 C849 1.343 1_556 S
C850 C853 1.409 1_556 S
C851 H843 0.930 1_554 S
C851 C852 1.355 . S
C851 C853 1.415 . S
C852 C851 1.355 . S
C852 C854 1.419 . S
C853 C848 1.425 . S
C853 C850 1.409 1_554 S
C853 C851 1.415 . S
C854 H844 0.930 . S
C854 C852 1.419 . S
C854 C855 1.362 . S
C855 H845 0.930 . S
C855 C848 1.409 . S
C855 C854 1.362 . S
H856 C862 0.930 . S
H857 C865 0.930 . S
H858 C866 0.930 . S
H859 C867 0.930 1_556 S
H860 C870 0.930 . S
H861 C871 0.930 . S
C862 H856 0.930 . S
C862 C863 1.355 . S
C862 C864 1.415 . S
C863 C862 1.355 . S
C863 C865 1.419 1_554 S
C864 C862 1.415 . S
C864 C869 1.425 . S
C864 C871 1.409 . S
C865 H857 0.930 . S
C865 C863 1.419 1_556 S
C865 C866 1.362 . S
C866 H858 0.930 . S
C866 C865 1.362 . S
C866 C869 1.409 1_556 S
C867 H859 0.930 1_554 S
C867 C868 1.355 . S
C867 C869 1.415 . S
C868 C867 1.355 . S
C868 C870 1.419 . S
C869 C864 1.425 . S
C869 C866 1.409 1_554 S
C869 C867 1.415 . S
C870 H860 0.930 . S
C870 C868 1.419 . S
C870 C871 1.362 . S
C871 H861 0.930 . S
C871 C864 1.409 . S
C871 C870 1.362 . S
H872 C878 0.930 . S
H873 C881 0.930 . S
H874 C882 0.930 . S
H875 C883 0.930 . S
H876 C886 0.930 . S
H877 C887 0.930 . S
C878 H872 0.930 . S
C878 C879 1.355 . S
C878 C880 1.415 . S
C879 C878 1.355 . S
C879 C881 1.419 . S
C880 C878 1.415 . S
C880 C885 1.425 . S
C880 C887 1.409 . S
C881 H873 0.930 . S
C881 C879 1.419 . S
C881 C882 1.362 . S
C882 H874 0.930 . S
C882 C881 1.362 . S
C882 C885 1.409 . S
C883 H875 0.930 . S
C883 C884 1.355 . S
C883 C885 1.415 . S
C884 C883 1.355 . S
C884 C886 1.419 . S
C885 C880 1.425 . S
C885 C882 1.409 . S
C885 C883 1.415 . S
C886 H876 0.930 . S
C886 C884 1.419 . S
C886 C887 1.362 . S
C887 H877 0.930 . S
C887 C880 1.409 . S
C887 C886 1.362 . S
H888 C894 0.930 . S
H889 C897 0.930 . S
H890 C898 0.930 . S
H891 C899 0.930 . S
H892 C902 0.930 . S
H893 C903 0.930 . S
C894 H888 0.930 . S
C894 C895 1.355 . S
C894 C896 1.415 . S
C895 C894 1.355 . S
C895 C897 1.419 . S
C896 C894 1.415 . S
C896 C901 1.425 . S
C896 C903 1.409 . S
C897 H889 0.930 . S
C897 C895 1.419 . S
C897 C898 1.362 . S
C898 H890 0.930 . S
C898 C897 1.362 . S
C898 C901 1.409 . S
C899 H891 0.930 . S
C899 C900 1.355 . S
C899 C901 1.415 . S
C900 C899 1.355 . S
C900 C902 1.419 . S
C901 C896 1.425 . S
C901 C898 1.409 . S
C901 C899 1.415 . S
C902 H892 0.930 . S
C902 C900 1.419 . S
C902 C903 1.362 . S
C903 H893 0.930 . S
C903 C896 1.409 . S
C903 C902 1.362 . S
H904 C910 0.930 . S
H905 C913 0.930 . S
H906 C914 0.930 . S
H907 C915 0.930 . S
H908 C918 0.930 . S
H909 C919 0.930 . S
C910 H904 0.930 . S
C910 C911 1.355 . S
C910 C912 1.415 . S
C911 C910 1.355 . S
C911 C913 1.419 . S
C912 C910 1.415 . S
C912 C917 1.425 . S
C912 C919 1.409 . S
C913 H905 0.930 . S
C913 C911 1.419 . S
C913 C914 1.362 . S
C914 H906 0.930 . S
C914 C913 1.362 . S
C914 C917 1.409 . S
C915 H907 0.930 . S
C915 C916 1.355 . S
C915 C917 1.415 . S
C916 C915 1.355 . S
C916 C918 1.419 . S
C917 C912 1.425 . S
C917 C914 1.409 . S
C917 C915 1.415 . S
C918 H908 0.930 . S
C918 C916 1.419 . S
C918 C919 1.362 . S
C919 H909 0.930 . S
C919 C912 1.409 . S
C919 C918 1.362 . S
H920 C926 0.930 . S
H921 C929 0.930 . S
H922 C930 0.930 . S
H923 C931 0.930 . S
H924 C934 0.930 . S
H925 C935 0.930 . S
C926 H920 0.930 . S
C926 C927 1.355 . S
C926 C928 1.415 . S
C927 C926 1.355 . S
C927 C929 1.419 . S
C928 C926 1.415 . S
C928 C933 1.425 . S
C928 C935 1.409 . S
C929 H921 0.930 . S
C929 C927 1.419 . S
C929 C930 1.362 . S
C930 H922 0.930 . S
C930 C929 1.362 . S
C930 C933 1.409 . S
C931 H923 0.930 . S
C931 C932 1.355 . S
C931 C933 1.415 . S
C932 C931 1.355 . S
C932 C934 1.419 . S
C933 C928 1.425 . S
C933 C930 1.409 . S
C933 C931 1.415 . S
C934 H924 0.930 . S
C934 C932 1.419 . S
C934 C935 1.362 . S
C935 H925 0.930 . S
C935 C928 1.409 . S
C935 C934 1.362 . S
H936 C942 0.930 . S
H937 C945 0.930 . S
H938 C946 0.930 . S
H939 C947 0.930 . S
H940 C950 0.930 . S
H941 C951 0.930 . S
C942 H936 0.930 . S
C942 C943 1.355 . S
C942 C944 1.415 . S
C943 C942 1.355 . S
C943 C945 1.419 . S
C944 C942 1.415 . S
C944 C949 1.425 . S
C944 C951 1.409 . S
C945 H937 0.930 . S
C945 C943 1.419 . S
C945 C946 1.362 . S
C946 H938 0.930 . S
C946 C945 1.362 . S
C946 C949 1.409 . S
C947 H939 0.930 . S
C947 C948 1.355 . S
C947 C949 1.415 . S
C948 C947 1.355 . S
C948 C950 1.419 . S
C949 C944 1.425 . S
C949 C946 1.409 . S
C949 C947 1.415 . S
C950 H940 0.930 . S
C950 C948 1.419 . S
C950 C951 1.362 . S
C951 H941 0.930 . S
C951 C944 1.409 . S
C951 C950 1.362 . S
H952 C958 0.930 . S
H953 C961 0.962 . S
H954 C962 0.930 . S
H955 C963 0.930 . S
H956 C966 0.930 . S
H957 C967 0.930 . S
C958 H952 0.930 . S
C958 C959 1.355 . S
C958 C960 1.415 . S
C959 C958 1.355 . S
C959 C961 1.419 . S
C960 C958 1.415 . S
C960 C965 1.425 . S
C960 C967 1.409 . S
C961 H953 0.962 . S
C961 C959 1.419 . S
C961 C962 1.362 . S
C962 H954 0.930 . S
C962 C961 1.362 . S
C962 C965 1.409 . S
C963 H955 0.930 . S
C963 C964 1.355 . S
C963 C965 1.415 . S
C964 C963 1.355 . S
C964 C966 1.419 . S
C965 C960 1.425 . S
C965 C962 1.409 . S
C965 C963 1.415 . S
C966 H956 0.930 . S
C966 C964 1.419 . S
C966 C967 1.362 . S
C967 H957 0.930 . S
C967 C960 1.409 . S
C967 C966 1.362 . S
H968 C974 0.930 . S
H969 C977 0.941 . S
H970 C978 0.930 . S
H971 C979 0.930 1_554 S
H972 C982 0.930 . S
H973 C983 0.930 . S
C974 H968 0.930 . S
C974 C975 1.355 . S
C974 C976 1.415 . S
C975 C974 1.355 . S
C975 C977 1.403 1_556 S
C976 C974 1.415 . S
C976 C981 1.425 . S
C976 C983 1.409 . S
C977 H969 0.941 . S
C977 C975 1.403 1_554 S
C977 C978 1.367 . S
C978 H970 0.930 . S
C978 C977 1.367 . S
C978 C981 1.409 1_554 S
C979 H971 0.930 1_556 S
C979 C980 1.355 . S
C979 C981 1.415 . S
C980 C979 1.355 . S
C980 C982 1.419 . S
C981 C976 1.425 . S
C981 C978 1.409 1_556 S
C981 C979 1.415 . S
C982 H972 0.930 . S
C982 C980 1.419 . S
C982 C983 1.362 . S
C983 H973 0.930 . S
C983 C976 1.409 . S
C983 C982 1.362 . S
H984 C990 0.930 . S
H985 C993 0.930 . S
H986 C994 0.930 . S
H987 C995 0.930 . S
H988 C998 0.930 . S
H989 C999 0.930 . S
C990 H984 0.930 . S
C990 C991 1.355 . S
C990 C992 1.415 . S
C991 C990 1.355 . S
C991 C993 1.419 . S
C992 C990 1.415 . S
C992 C997 1.425 . S
C992 C999 1.409 . S
C993 H985 0.930 . S
C993 C991 1.419 . S
C993 C994 1.362 . S
C994 H986 0.930 . S
C994 C993 1.362 . S
C994 C997 1.409 . S
C995 H987 0.930 . S
C995 C996 1.355 . S
C995 C997 1.415 . S
C996 C995 1.355 . S
C996 C998 1.419 . S
C997 C992 1.425 . S
C997 C994 1.409 . S
C997 C995 1.415 . S
C998 H988 0.930 . S
C998 C996 1.419 . S
C998 C999 1.362 . S
C999 H989 0.930 . S
C999 C992 1.409 . S
C999 C998 1.362 . S
H1000 C1006 0.930 . S
H1001 C1009 0.930 . S
H1002 C1010 0.930 . S
H1003 C1011 0.930 . S
H1004 C1014 0.930 . S
H1005 C1015 0.930 . S
C1006 H1000 0.930 . S
C1006 C1007 1.355 . S
C1006 C1008 1.415 . S
C1007 C1006 1.355 . S
C1007 C1009 1.419 . S
C1008 C1006 1.415 . S
C1008 C1013 1.425 . S
C1008 C1015 1.409 . S
C1009 H1001 0.930 . S
C1009 C1007 1.419 . S
C1009 C1010 1.362 . S
C1010 H1002 0.930 . S
C1010 C1009 1.362 . S
C1010 C1013 1.409 . S
C1011 H1003 0.930 . S
C1011 C1012 1.355 . S
C1011 C1013 1.415 . S
C1012 C1011 1.355 . S
C1012 C1014 1.419 . S
C1013 C1008 1.425 . S
C1013 C1010 1.409 . S
C1013 C1011 1.415 . S
C1014 H1004 0.930 . S
C1014 C1012 1.419 . S
C1014 C1015 1.362 . S
C1015 H1005 0.930 . S
C1015 C1008 1.409 . S
C1015 C1014 1.362 . S
H1016 C1022 0.930 . S
H1017 C1025 0.930 . S
H1018 C1026 0.930 . S
H1019 C1027 0.930 . S
H1020 C1030 0.930 . S
H1021 C1031 0.930 . S
C1022 H1016 0.930 . S
C1022 C1023 1.355 . S
C1022 C1024 1.415 . S
C1023 C1022 1.355 . S
C1023 C1025 1.419 . S
C1024 C1022 1.415 . S
C1024 C1029 1.425 . S
C1024 C1031 1.409 . S
C1025 H1017 0.930 . S
C1025 C1023 1.419 . S
C1025 C1026 1.362 . S
C1026 H1018 0.930 . S
C1026 C1025 1.362 . S
C1026 C1029 1.409 . S
C1027 H1019 0.930 . S
C1027 C1028 1.355 . S
C1027 C1029 1.415 . S
C1028 C1027 1.355 . S
C1028 C1030 1.419 . S
C1029 C1024 1.425 . S
C1029 C1026 1.409 . S
C1029 C1027 1.415 . S
C1030 H1020 0.930 . S
C1030 C1028 1.419 . S
C1030 C1031 1.362 . S
C1031 H1021 0.930 . S
C1031 C1024 1.409 . S
C1031 C1030 1.362 . S
H1032 C1038 0.930 . S
H1033 C1041 0.930 . S
H1034 C1042 0.930 . S
H1035 C1043 0.930 . S
H1036 C1046 0.930 . S
H1037 C1047 0.930 . S
C1038 H1032 0.930 . S
C1038 C1039 1.355 . S
C1038 C1040 1.415 . S
C1039 C1038 1.355 . S
C1039 C1041 1.419 . S
C1040 C1038 1.415 . S
C1040 C1045 1.425 . S
C1040 C1047 1.409 . S
C1041 H1033 0.930 . S
C1041 C1039 1.419 . S
C1041 C1042 1.362 . S
C1042 H1034 0.930 . S
C1042 C1041 1.362 . S
C1042 C1045 1.409 . S
C1043 H1035 0.930 . S
C1043 C1044 1.355 . S
C1043 C1045 1.415 . S
C1044 C1043 1.355 . S
C1044 C1046 1.419 . S
C1045 C1040 1.425 . S
C1045 C1042 1.409 . S
C1045 C1043 1.415 . S
C1046 H1036 0.930 . S
C1046 C1044 1.419 . S
C1046 C1047 1.362 . S
C1047 H1037 0.930 . S
C1047 C1040 1.409 . S
C1047 C1046 1.362 . S
H1048 C1054 0.930 . S
H1049 C1057 0.930 . S
H1050 C1058 0.930 . S
H1051 C1059 0.930 . S
H1052 C1062 0.930 . S
H1053 C1063 0.930 . S
C1054 H1048 0.930 . S
C1054 C1055 1.355 . S
C1054 C1056 1.415 . S
C1055 C1054 1.355 . S
C1055 C1057 1.419 . S
C1056 C1054 1.415 . S
C1056 C1061 1.425 . S
C1056 C1063 1.409 . S
C1057 H1049 0.930 . S
C1057 C1055 1.419 . S
C1057 C1058 1.362 . S
C1058 H1050 0.930 . S
C1058 C1057 1.362 . S
C1058 C1061 1.409 . S
C1059 H1051 0.930 . S
C1059 C1060 1.355 . S
C1059 C1061 1.415 . S
C1060 C1059 1.355 . S
C1060 C1062 1.419 . S
C1061 C1056 1.425 . S
C1061 C1058 1.409 . S
C1061 C1059 1.415 . S
C1062 H1052 0.930 . S
C1062 C1060 1.419 . S
C1062 C1063 1.362 . S
C1063 H1053 0.930 . S
C1063 C1056 1.409 . S
C1063 C1062 1.362 . S
H1064 C1070 0.930 . S
H1065 C1073 0.930 . S
H1066 C1074 0.930 . S
H1067 C1075 0.930 . S
H1068 C1078 0.930 . S
H1069 C1079 0.930 . S
C1070 H1064 0.930 . S
C1070 C1071 1.355 . S
C1070 C1072 1.415 . S
C1071 C1070 1.355 . S
C1071 C1073 1.419 . S
C1072 C1070 1.415 . S
C1072 C1077 1.425 . S
C1072 C1079 1.409 . S
C1073 H1065 0.930 . S
C1073 C1071 1.419 . S
C1073 C1074 1.362 . S
C1074 H1066 0.930 . S
C1074 C1073 1.362 . S
C1074 C1077 1.409 . S
C1075 H1067 0.930 . S
C1075 C1076 1.355 . S
C1075 C1077 1.415 . S
C1076 C1075 1.355 . S
C1076 C1078 1.419 . S
C1077 C1072 1.425 . S
C1077 C1074 1.409 . S
C1077 C1075 1.415 . S
C1078 H1068 0.930 . S
C1078 C1076 1.419 . S
C1078 C1079 1.362 . S
C1079 H1069 0.930 . S
C1079 C1072 1.409 . S
C1079 C1078 1.362 . S
H1080 C1086 0.930 . S
H1081 C1089 0.930 . S
H1082 C1090 0.930 . S
H1083 C1091 0.930 . S
H1084 C1094 0.930 . S
H1085 C1095 0.930 . S
C1086 H1080 0.930 . S
C1086 C1087 1.355 . S
C1086 C1088 1.415 . S
C1087 C1086 1.355 . S
C1087 C1089 1.419 . S
C1088 C1086 1.415 . S
C1088 C1093 1.425 . S
C1088 C1095 1.409 . S
C1089 H1081 0.930 . S
C1089 C1087 1.419 . S
C1089 C1090 1.362 . S
C1090 H1082 0.930 . S
C1090 C1089 1.362 . S
C1090 C1093 1.409 . S
C1091 H1083 0.930 . S
C1091 C1092 1.355 . S
C1091 C1093 1.415 . S
C1092 C1091 1.355 . S
C1092 C1094 1.419 . S
C1093 C1088 1.425 . S
C1093 C1090 1.409 . S
C1093 C1091 1.415 . S
C1094 H1084 0.930 . S
C1094 C1092 1.419 . S
C1094 C1095 1.362 . S
C1095 H1085 0.930 . S
C1095 C1088 1.409 . S
C1095 C1094 1.362 . S
H1096 C1102 0.932 . S
H1097 C1105 0.930 . S
H1098 C1106 0.930 . S
H1099 C1107 0.932 . S
H1100 C1110 0.930 . S
H1101 C1111 0.930 . S
C1102 H1096 0.932 . S
C1102 C1103 1.353 1_565 S
C1102 C1104 1.414 . S
C1103 C1102 1.353 1_545 S
C1103 C1105 1.419 . S
C1104 C1102 1.414 . S
C1104 C1109 1.425 1_565 S
C1104 C1111 1.409 . S
C1105 H1097 0.930 . S
C1105 C1103 1.419 . S
C1105 C1106 1.362 . S
C1106 H1098 0.930 . S
C1106 C1105 1.362 . S
C1106 C1109 1.409 . S
C1107 H1099 0.932 . S
C1107 C1108 1.352 1_545 S
C1107 C1109 1.414 . S
C1108 C1107 1.352 1_565 S
C1108 C1110 1.419 . S
C1109 C1104 1.425 1_545 S
C1109 C1106 1.409 . S
C1109 C1107 1.414 . S
C1110 H1100 0.930 . S
C1110 C1108 1.419 . S
C1110 C1111 1.362 . S
C1111 H1101 0.930 . S
C1111 C1104 1.409 . S
C1111 C1110 1.362 . S
H1112 C1118 0.930 . S
H1113 C1121 0.930 . S
H1114 C1122 0.930 . S
H1115 C1123 0.930 . S
H1116 C1126 0.930 . S
H1117 C1127 0.930 . S
C1118 H1112 0.930 . S
C1118 C1119 1.355 . S
C1118 C1120 1.415 . S
C1119 C1118 1.355 . S
C1119 C1121 1.419 1_455 S
C1120 C1118 1.415 . S
C1120 C1125 1.425 1_455 S
C1120 C1127 1.409 . S
C1121 H1113 0.930 . S
C1121 C1119 1.419 1_655 S
C1121 C1122 1.362 . S
C1122 H1114 0.930 . S
C1122 C1121 1.362 . S
C1122 C1125 1.409 . S
C1123 H1115 0.930 . S
C1123 C1124 1.355 . S
C1123 C1125 1.415 . S
C1124 C1123 1.355 . S
C1124 C1126 1.419 1_655 S
C1125 C1120 1.425 1_655 S
C1125 C1122 1.409 . S
C1125 C1123 1.415 . S
C1126 H1116 0.930 . S
C1126 C1124 1.419 1_455 S
C1126 C1127 1.362 . S
C1127 H1117 0.930 . S
C1127 C1120 1.409 . S
C1127 C1126 1.362 . S
H1128 C1134 0.930 . S
H1129 C1137 0.930 . S
H1130 C1138 0.930 . S
H1131 C1139 0.930 . S
H1132 C1142 0.930 . S
H1133 C1143 0.930 . S
C1134 H1128 0.930 . S
C1134 C1135 1.355 . S
C1134 C1136 1.415 . S
C1135 C1134 1.355 . S
C1135 C1137 1.419 . S
C1136 C1134 1.415 . S
C1136 C1141 1.425 . S
C1136 C1143 1.409 . S
C1137 H1129 0.930 . S
C1137 C1135 1.419 . S
C1137 C1138 1.362 . S
C1138 H1130 0.930 . S
C1138 C1137 1.362 . S
C1138 C1141 1.409 . S
C1139 H1131 0.930 . S
C1139 C1140 1.355 . S
C1139 C1141 1.415 . S
C1140 C1139 1.355 . S
C1140 C1142 1.419 . S
C1141 C1136 1.425 . S
C1141 C1138 1.409 . S
C1141 C1139 1.415 . S
C1142 H1132 0.930 . S
C1142 C1140 1.419 . S
C1142 C1143 1.362 . S
C1143 H1133 0.930 . S
C1143 C1136 1.409 . S
C1143 C1142 1.362 . S
H1144 C1150 0.930 . S
H1145 C1153 0.930 . S
H1146 C1154 0.948 1_545 S
H1147 C1155 0.930 . S
H1148 C1158 0.930 . S
H1149 C1159 0.948 1_565 S
C1150 H1144 0.930 . S
C1150 C1151 1.355 . S
C1150 C1152 1.415 . S
C1151 C1150 1.355 . S
C1151 C1153 1.419 . S
C1152 C1150 1.415 . S
C1152 C1157 1.425 1_565 S
C1152 C1159 1.406 1_565 S
C1153 H1145 0.930 . S
C1153 C1151 1.419 . S
C1153 C1154 1.362 . S
C1154 H1146 0.948 1_565 S
C1154 C1153 1.362 . S
C1154 C1157 1.406 1_565 S
C1155 H1147 0.930 . S
C1155 C1156 1.355 . S
C1155 C1157 1.415 . S
C1156 C1155 1.355 . S
C1156 C1158 1.419 . S
C1157 C1152 1.425 1_545 S
C1157 C1154 1.406 1_545 S
C1157 C1155 1.415 . S
C1158 H1148 0.930 . S
C1158 C1156 1.419 . S
C1158 C1159 1.362 . S
C1159 H1149 0.948 1_545 S
C1159 C1152 1.406 1_545 S
C1159 C1158 1.362 . S
H1160 C1166 0.930 . S
H1161 C1169 0.930 . S
H1162 C1170 0.930 . S
H1163 C1171 0.930 . S
H1164 C1174 0.930 . S
H1165 C1175 0.930 . S
C1166 H1160 0.930 . S
C1166 C1167 1.355 . S
C1166 C1168 1.415 . S
C1167 C1166 1.355 . S
C1167 C1169 1.419 . S
C1168 C1166 1.415 . S
C1168 C1173 1.437 1_655 S
C1168 C1175 1.403 1_655 S
C1169 H1161 0.930 . S
C1169 C1167 1.419 . S
C1169 C1170 1.362 . S
C1170 H1162 0.930 . S
C1170 C1169 1.362 . S
C1170 C1173 1.404 1_655 S
C1171 H1163 0.930 . S
C1171 C1172 1.355 . S
C1171 C1173 1.415 . S
C1172 C1171 1.355 . S
C1172 C1174 1.419 . S
C1173 C1168 1.437 1_455 S
C1173 C1170 1.404 1_455 S
C1173 C1171 1.415 . S
C1174 H1164 0.930 . S
C1174 C1172 1.419 . S
C1174 C1175 1.362 . S
C1175 H1165 0.930 . S
C1175 C1168 1.403 1_455 S
C1175 C1174 1.362 . S
H1176 C1182 0.930 . S
H1177 C1185 0.930 . S
H1178 C1186 0.930 . S
H1179 C1187 0.930 . S
H1180 C1190 0.930 . S
H1181 C1191 0.930 . S
C1182 H1176 0.930 . S
C1182 C1183 1.355 . S
C1182 C1184 1.415 . S
C1183 C1182 1.355 . S
C1183 C1185 1.419 . S
C1184 C1182 1.415 . S
C1184 C1189 1.425 . S
C1184 C1191 1.409 . S
C1185 H1177 0.930 . S
C1185 C1183 1.419 . S
C1185 C1186 1.362 . S
C1186 H1178 0.930 . S
C1186 C1185 1.362 . S
C1186 C1189 1.409 . S
C1187 H1179 0.930 . S
C1187 C1188 1.355 . S
C1187 C1189 1.415 . S
C1188 C1187 1.355 . S
C1188 C1190 1.419 . S
C1189 C1184 1.425 . S
C1189 C1186 1.409 . S
C1189 C1187 1.415 . S
C1190 H1180 0.930 . S
C1190 C1188 1.419 . S
C1190 C1191 1.362 . S
C1191 H1181 0.930 . S
C1191 C1184 1.409 . S
C1191 C1190 1.362 . S
H1192 C1198 0.930 . S
H1193 C1201 0.930 . S
H1194 C1202 0.930 . S
H1195 C1203 0.930 . S
H1196 C1206 0.930 . S
H1197 C1207 0.930 . S
C1198 H1192 0.930 . S
C1198 C1199 1.355 . S
C1198 C1200 1.415 . S
C1199 C1198 1.355 . S
C1199 C1201 1.419 . S
C1200 C1198 1.415 . S
C1200 C1205 1.425 . S
C1200 C1207 1.409 . S
C1201 H1193 0.930 . S
C1201 C1199 1.419 . S
C1201 C1202 1.362 . S
C1202 H1194 0.930 . S
C1202 C1201 1.362 . S
C1202 C1205 1.409 . S
C1203 H1195 0.930 . S
C1203 C1204 1.355 . S
C1203 C1205 1.415 . S
C1204 C1203 1.355 . S
C1204 C1206 1.419 . S
C1205 C1200 1.425 . S
C1205 C1202 1.409 . S
C1205 C1203 1.415 . S
C1206 H1196 0.930 . S
C1206 C1204 1.419 . S
C1206 C1207 1.362 . S
C1207 H1197 0.930 . S
C1207 C1200 1.409 . S
C1207 C1206 1.362 . S
H1208 C1214 0.930 . S
H1209 C1217 0.930 . S
H1210 C1218 0.930 . S
H1211 C1219 0.930 . S
H1212 C1222 0.930 . S
H1213 C1223 0.930 . S
C1214 H1208 0.930 . S
C1214 C1215 1.355 . S
C1214 C1216 1.415 . S
C1215 C1214 1.355 . S
C1215 C1217 1.419 . S
C1216 C1214 1.415 . S
C1216 C1221 1.425 . S
C1216 C1223 1.409 . S
C1217 H1209 0.930 . S
C1217 C1215 1.419 . S
C1217 C1218 1.362 . S
C1218 H1210 0.930 . S
C1218 C1217 1.362 . S
C1218 C1221 1.409 . S
C1219 H1211 0.930 . S
C1219 C1220 1.355 . S
C1219 C1221 1.415 . S
C1220 C1219 1.355 . S
C1220 C1222 1.419 . S
C1221 C1216 1.425 . S
C1221 C1218 1.409 . S
C1221 C1219 1.415 . S
C1222 H1212 0.930 . S
C1222 C1220 1.419 . S
C1222 C1223 1.362 . S
C1223 H1213 0.930 . S
C1223 C1216 1.409 . S
C1223 C1222 1.362 . S
H1224 C1230 0.930 . S
H1225 C1233 0.930 . S
H1226 C1234 0.930 . S
H1227 C1235 0.930 . S
H1228 C1238 0.930 . S
H1229 C1239 0.930 . S
C1230 H1224 0.930 . S
C1230 C1231 1.355 . S
C1230 C1232 1.415 . S
C1231 C1230 1.355 . S
C1231 C1233 1.419 . S
C1232 C1230 1.415 . S
C1232 C1237 1.425 . S
C1232 C1239 1.409 . S
C1233 H1225 0.930 . S
C1233 C1231 1.419 . S
C1233 C1234 1.362 . S
C1234 H1226 0.930 . S
C1234 C1233 1.362 . S
C1234 C1237 1.409 . S
C1235 H1227 0.930 . S
C1235 C1236 1.355 . S
C1235 C1237 1.415 . S
C1236 C1235 1.355 . S
C1236 C1238 1.419 . S
C1237 C1232 1.425 . S
C1237 C1234 1.409 . S
C1237 C1235 1.415 . S
C1238 H1228 0.930 . S
C1238 C1236 1.419 . S
C1238 C1239 1.362 . S
C1239 H1229 0.930 . S
C1239 C1232 1.409 . S
C1239 C1238 1.362 . S
H1240 C1246 0.930 . S
H1241 C1249 0.930 . S
H1242 C1250 0.930 . S
H1243 C1251 0.930 . S
H1244 C1254 0.930 . S
H1245 C1255 0.930 . S
C1246 H1240 0.930 . S
C1246 C1247 1.355 . S
C1246 C1248 1.415 . S
C1247 C1246 1.355 . S
C1247 C1249 1.419 . S
C1248 C1246 1.415 . S
C1248 C1253 1.425 . S
C1248 C1255 1.409 . S
C1249 H1241 0.930 . S
C1249 C1247 1.419 . S
C1249 C1250 1.362 . S
C1250 H1242 0.930 . S
C1250 C1249 1.362 . S
C1250 C1253 1.409 . S
C1251 H1243 0.930 . S
C1251 C1252 1.355 . S
C1251 C1253 1.415 . S
C1252 C1251 1.355 . S
C1252 C1254 1.419 . S
C1253 C1248 1.425 . S
C1253 C1250 1.409 . S
C1253 C1251 1.415 . S
C1254 H1244 0.930 . S
C1254 C1252 1.419 . S
C1254 C1255 1.362 . S
C1255 H1245 0.930 . S
C1255 C1248 1.409 . S
C1255 C1254 1.362 . S
H1256 C1262 0.930 . S
H1257 C1265 0.930 . S
H1258 C1266 0.930 . S
H1259 C1267 0.930 . S
H1260 C1270 0.930 . S
H1261 C1271 0.930 . S
C1262 H1256 0.930 . S
C1262 C1263 1.355 . S
C1262 C1264 1.415 . S
C1263 C1262 1.355 . S
C1263 C1265 1.419 . S
C1264 C1262 1.415 . S
C1264 C1269 1.425 . S
C1264 C1271 1.409 . S
C1265 H1257 0.930 . S
C1265 C1263 1.419 . S
C1265 C1266 1.362 . S
C1266 H1258 0.930 . S
C1266 C1265 1.362 . S
C1266 C1269 1.409 . S
C1267 H1259 0.930 . S
C1267 C1268 1.355 . S
C1267 C1269 1.415 . S
C1268 C1267 1.355 . S
C1268 C1270 1.419 . S
C1269 C1264 1.425 . S
C1269 C1266 1.409 . S
C1269 C1267 1.415 . S
C1270 H1260 0.930 . S
C1270 C1268 1.419 . S
C1270 C1271 1.362 . S
C1271 H1261 0.930 . S
C1271 C1264 1.409 . S
C1271 C1270 1.362 . S
H1272 C1278 0.930 . S
H1273 C1281 0.930 . S
H1274 C1282 0.930 . S
H1275 C1283 0.930 . S
H1276 C1286 0.930 . S
H1277 C1287 0.930 . S
C1278 H1272 0.930 . S
C1278 C1279 1.355 . S
C1278 C1280 1.415 . S
C1279 C1278 1.355 . S
C1279 C1281 1.419 . S
C1280 C1278 1.415 . S
C1280 C1285 1.425 . S
C1280 C1287 1.409 . S
C1281 H1273 0.930 . S
C1281 C1279 1.419 . S
C1281 C1282 1.362 . S
C1282 H1274 0.930 . S
C1282 C1281 1.362 . S
C1282 C1285 1.409 . S
C1283 H1275 0.930 . S
C1283 C1284 1.355 . S
C1283 C1285 1.415 . S
C1284 C1283 1.355 . S
C1284 C1286 1.419 . S
C1285 C1280 1.425 . S
C1285 C1282 1.409 . S
C1285 C1283 1.415 . S
C1286 H1276 0.930 . S
C1286 C1284 1.419 . S
C1286 C1287 1.362 . S
C1287 H1277 0.930 . S
C1287 C1280 1.409 . S
C1287 C1286 1.362 . S
H1288 C1294 0.930 . S
H1289 C1297 0.930 . S
H1290 C1298 0.930 . S
H1291 C1299 0.930 . S
H1292 C1302 0.930 . S
H1293 C1303 0.930 . S
C1294 H1288 0.930 . S
C1294 C1295 1.355 . S
C1294 C1296 1.415 . S
C1295 C1294 1.355 . S
C1295 C1297 1.419 . S
C1296 C1294 1.415 . S
C1296 C1301 1.425 . S
C1296 C1303 1.409 . S
C1297 H1289 0.930 . S
C1297 C1295 1.419 . S
C1297 C1298 1.362 . S
C1298 H1290 0.930 . S
C1298 C1297 1.362 . S
C1298 C1301 1.409 . S
C1299 H1291 0.930 . S
C1299 C1300 1.355 . S
C1299 C1301 1.415 . S
C1300 C1299 1.355 . S
C1300 C1302 1.419 . S
C1301 C1296 1.425 . S
C1301 C1298 1.409 . S
C1301 C1299 1.415 . S
C1302 H1292 0.930 . S
C1302 C1300 1.419 . S
C1302 C1303 1.362 . S
C1303 H1293 0.930 . S
C1303 C1296 1.409 . S
C1303 C1302 1.362 . S
H1304 C1310 0.930 . S
H1305 C1313 0.930 . S
H1306 C1314 0.930 . S
H1307 C1315 0.930 . S
H1308 C1318 0.930 . S
H1309 C1319 0.930 . S
C1310 H1304 0.930 . S
C1310 C1311 1.355 . S
C1310 C1312 1.415 . S
C1311 C1310 1.355 . S
C1311 C1313 1.419 . S
C1312 C1310 1.415 . S
C1312 C1317 1.425 . S
C1312 C1319 1.409 . S
C1313 H1305 0.930 . S
C1313 C1311 1.419 . S
C1313 C1314 1.362 . S
C1314 H1306 0.930 . S
C1314 C1313 1.362 . S
C1314 C1317 1.409 . S
C1315 H1307 0.930 . S
C1315 C1316 1.355 . S
C1315 C1317 1.415 . S
C1316 C1315 1.355 . S
C1316 C1318 1.419 . S
C1317 C1312 1.425 . S
C1317 C1314 1.409 . S
C1317 C1315 1.415 . S
C1318 H1308 0.930 . S
C1318 C1316 1.419 . S
C1318 C1319 1.362 . S
C1319 H1309 0.930 . S
C1319 C1312 1.409 . S
C1319 C1318 1.362 . S
H1320 C1326 0.930 . S
H1321 C1329 0.930 . S
H1322 C1330 0.930 . S
H1323 C1331 0.930 . S
H1324 C1334 0.930 . S
H1325 C1335 0.930 . S
C1326 H1320 0.930 . S
C1326 C1327 1.355 . S
C1326 C1328 1.415 . S
C1327 C1326 1.355 . S
C1327 C1329 1.419 . S
C1328 C1326 1.415 . S
C1328 C1333 1.425 . S
C1328 C1335 1.409 . S
C1329 H1321 0.930 . S
C1329 C1327 1.419 . S
C1329 C1330 1.362 . S
C1330 H1322 0.930 . S
C1330 C1329 1.362 . S
C1330 C1333 1.409 . S
C1331 H1323 0.930 . S
C1331 C1332 1.355 . S
C1331 C1333 1.415 . S
C1332 C1331 1.355 . S
C1332 C1334 1.419 . S
C1333 C1328 1.425 . S
C1333 C1330 1.409 . S
C1333 C1331 1.415 . S
C1334 H1324 0.930 . S
C1334 C1332 1.419 . S
C1334 C1335 1.362 . S
C1335 H1325 0.930 . S
C1335 C1328 1.409 . S
C1335 C1334 1.362 . S
H1336 C1342 0.930 . S
H1337 C1345 0.930 . S
H1338 C1346 0.930 . S
H1339 C1347 0.930 . S
H1340 C1350 0.930 . S
H1341 C1351 0.930 . S
C1342 H1336 0.930 . S
C1342 C1343 1.355 . S
C1342 C1344 1.415 . S
C1343 C1342 1.355 . S
C1343 C1345 1.419 . S
C1344 C1342 1.415 . S
C1344 C1349 1.425 . S
C1344 C1351 1.409 . S
C1345 H1337 0.930 . S
C1345 C1343 1.419 . S
C1345 C1346 1.362 . S
C1346 H1338 0.930 . S
C1346 C1345 1.362 . S
C1346 C1349 1.409 . S
C1347 H1339 0.930 . S
C1347 C1348 1.355 . S
C1347 C1349 1.415 . S
C1348 C1347 1.355 . S
C1348 C1350 1.419 . S
C1349 C1344 1.425 . S
C1349 C1346 1.409 . S
C1349 C1347 1.415 . S
C1350 H1340 0.930 . S
C1350 C1348 1.419 . S
C1350 C1351 1.362 . S
C1351 H1341 0.930 . S
C1351 C1344 1.409 . S
C1351 C1350 1.362 . S
H1352 C1358 0.930 . S
H1353 C1361 0.930 . S
H1354 C1362 0.930 . S
H1355 C1363 0.930 . S
H1356 C1366 0.930 . S
H1357 C1367 0.930 . S
C1358 H1352 0.930 . S
C1358 C1359 1.355 . S
C1358 C1360 1.415 . S
C1359 C1358 1.355 . S
C1359 C1361 1.419 . S
C1360 C1358 1.415 . S
C1360 C1365 1.425 . S
C1360 C1367 1.409 . S
C1361 H1353 0.930 . S
C1361 C1359 1.419 . S
C1361 C1362 1.362 . S
C1362 H1354 0.930 . S
C1362 C1361 1.362 . S
C1362 C1365 1.409 . S
C1363 H1355 0.930 . S
C1363 C1364 1.355 . S
C1363 C1365 1.415 . S
C1364 C1363 1.355 . S
C1364 C1366 1.419 . S
C1365 C1360 1.425 . S
C1365 C1362 1.409 . S
C1365 C1363 1.415 . S
C1366 H1356 0.930 . S
C1366 C1364 1.419 . S
C1366 C1367 1.362 . S
C1367 H1357 0.930 . S
C1367 C1360 1.409 . S
C1367 C1366 1.362 . S
H1368 C1374 0.930 . S
H1369 C1377 0.930 . S
H1370 C1378 0.930 . S
H1371 C1379 0.930 . S
H1372 C1382 0.930 . S
H1373 C1383 0.930 . S
C1374 H1368 0.930 . S
C1374 C1375 1.355 . S
C1374 C1376 1.415 . S
C1375 C1374 1.355 . S
C1375 C1377 1.419 . S
C1376 C1374 1.415 . S
C1376 C1381 1.425 . S
C1376 C1383 1.409 . S
C1377 H1369 0.930 . S
C1377 C1375 1.419 . S
C1377 C1378 1.362 . S
C1378 H1370 0.930 . S
C1378 C1377 1.362 . S
C1378 C1381 1.409 . S
C1379 H1371 0.930 . S
C1379 C1380 1.355 . S
C1379 C1381 1.415 . S
C1380 C1379 1.355 . S
C1380 C1382 1.419 . S
C1381 C1376 1.425 . S
C1381 C1378 1.409 . S
C1381 C1379 1.415 . S
C1382 H1372 0.930 . S
C1382 C1380 1.419 . S
C1382 C1383 1.362 . S
C1383 H1373 0.930 . S
C1383 C1376 1.409 . S
C1383 C1382 1.362 . S
H1384 C1390 0.930 . S
H1385 C1393 0.930 . S
H1386 C1394 0.930 . S
H1387 C1395 0.930 . S
H1388 C1398 0.930 . S
H1389 C1399 0.930 . S
C1390 H1384 0.930 . S
C1390 C1391 1.355 . S
C1390 C1392 1.415 . S
C1391 C1390 1.355 . S
C1391 C1393 1.419 . S
C1392 C1390 1.415 . S
C1392 C1397 1.425 . S
C1392 C1399 1.409 . S
C1393 H1385 0.930 . S
C1393 C1391 1.419 . S
C1393 C1394 1.362 . S
C1394 H1386 0.930 . S
C1394 C1393 1.362 . S
C1394 C1397 1.409 . S
C1395 H1387 0.930 . S
C1395 C1396 1.355 . S
C1395 C1397 1.415 . S
C1396 C1395 1.355 . S
C1396 C1398 1.419 . S
C1397 C1392 1.425 . S
C1397 C1394 1.409 . S
C1397 C1395 1.415 . S
C1398 H1388 0.930 . S
C1398 C1396 1.419 . S
C1398 C1399 1.362 . S
C1399 H1389 0.930 . S
C1399 C1392 1.409 . S
C1399 C1398 1.362 . S
H1400 C1406 0.930 . S
H1401 C1409 0.930 . S
H1402 C1410 0.930 . S
H1403 C1411 0.930 . S
H1404 C1414 0.930 . S
H1405 C1415 0.930 . S
C1406 H1400 0.930 . S
C1406 C1407 1.355 . S
C1406 C1408 1.415 . S
C1407 C1406 1.355 . S
C1407 C1409 1.419 . S
C1408 C1406 1.415 . S
C1408 C1413 1.425 . S
C1408 C1415 1.409 . S
C1409 H1401 0.930 . S
C1409 C1407 1.419 . S
C1409 C1410 1.362 . S
C1410 H1402 0.930 . S
C1410 C1409 1.362 . S
C1410 C1413 1.409 . S
C1411 H1403 0.930 . S
C1411 C1412 1.355 . S
C1411 C1413 1.415 . S
C1412 C1411 1.355 . S
C1412 C1414 1.419 . S
C1413 C1408 1.425 . S
C1413 C1410 1.409 . S
C1413 C1411 1.415 . S
C1414 H1404 0.930 . S
C1414 C1412 1.419 . S
C1414 C1415 1.362 . S
C1415 H1405 0.930 . S
C1415 C1408 1.409 . S
C1415 C1414 1.362 . S
H1416 C1422 0.930 . S
H1417 C1425 0.930 . S
H1418 C1426 0.930 . S
H1419 C1427 0.930 . S
H1420 C1430 0.930 . S
H1421 C1431 0.930 . S
C1422 H1416 0.930 . S
C1422 C1423 1.355 . S
C1422 C1424 1.415 . S
C1423 C1422 1.355 . S
C1423 C1425 1.419 . S
C1424 C1422 1.415 . S
C1424 C1429 1.425 . S
C1424 C1431 1.409 . S
C1425 H1417 0.930 . S
C1425 C1423 1.419 . S
C1425 C1426 1.362 . S
C1426 H1418 0.930 . S
C1426 C1425 1.362 . S
C1426 C1429 1.409 . S
C1427 H1419 0.930 . S
C1427 C1428 1.355 . S
C1427 C1429 1.415 . S
C1428 C1427 1.355 . S
C1428 C1430 1.419 . S
C1429 C1424 1.425 . S
C1429 C1426 1.409 . S
C1429 C1427 1.415 . S
C1430 H1420 0.930 . S
C1430 C1428 1.419 . S
C1430 C1431 1.362 . S
C1431 H1421 0.930 . S
C1431 C1424 1.409 . S
C1431 C1430 1.362 . S
H1432 C1438 0.930 . S
H1433 C1441 0.930 . S
H1434 C1442 0.930 . S
H1435 C1443 0.930 . S
H1436 C1446 0.930 . S
H1437 C1447 0.930 . S
C1438 H1432 0.930 . S
C1438 C1439 1.355 . S
C1438 C1440 1.415 . S
C1439 C1438 1.355 . S
C1439 C1441 1.419 . S
C1440 C1438 1.415 . S
C1440 C1445 1.425 . S
C1440 C1447 1.409 . S
C1441 H1433 0.930 . S
C1441 C1439 1.419 . S
C1441 C1442 1.362 . S
C1442 H1434 0.930 . S
C1442 C1441 1.362 . S
C1442 C1445 1.409 . S
C1443 H1435 0.930 . S
C1443 C1444 1.355 . S
C1443 C1445 1.415 . S
C1444 C1443 1.355 . S
C1444 C1446 1.419 . S
C1445 C1440 1.425 . S
C1445 C1442 1.409 . S
C1445 C1443 1.415 . S
C1446 H1436 0.930 . S
C1446 C1444 1.419 . S
C1446 C1447 1.362 . S
C1447 H1437 0.930 . S
C1447 C1440 1.409 . S
C1447 C1446 1.362 . S
H1448 C1454 0.930 . S
H1449 C1457 0.930 . S
H1450 C1458 0.930 . S
H1451 C1459 0.930 . S
H1452 C1462 0.930 . S
H1453 C1463 0.930 . S
C1454 H1448 0.930 . S
C1454 C1455 1.355 . S
C1454 C1456 1.415 . S
C1455 C1454 1.355 . S
C1455 C1457 1.419 . S
C1456 C1454 1.415 . S
C1456 C1461 1.425 . S
C1456 C1463 1.409 . S
C1457 H1449 0.930 . S
C1457 C1455 1.419 . S
C1457 C1458 1.362 . S
C1458 H1450 0.930 . S
C1458 C1457 1.362 . S
C1458 C1461 1.409 . S
C1459 H1451 0.930 . S
C1459 C1460 1.355 . S
C1459 C1461 1.415 . S
C1460 C1459 1.355 . S
C1460 C1462 1.419 . S
C1461 C1456 1.425 . S
C1461 C1458 1.409 . S
C1461 C1459 1.415 . S
C1462 H1452 0.930 . S
C1462 C1460 1.419 . S
C1462 C1463 1.362 . S
C1463 H1453 0.930 . S
C1463 C1456 1.409 . S
C1463 C1462 1.362 . S
H1464 C1470 0.930 . S
H1465 C1473 0.930 . S
H1466 C1474 0.930 . S
H1467 C1475 0.930 . S
H1468 C1478 0.930 . S
H1469 C1479 0.930 . S
C1470 H1464 0.930 . S
C1470 C1471 1.355 . S
C1470 C1472 1.415 . S
C1471 C1470 1.355 . S
C1471 C1473 1.419 . S
C1472 C1470 1.415 . S
C1472 C1477 1.425 . S
C1472 C1479 1.409 . S
C1473 H1465 0.930 . S
C1473 C1471 1.419 . S
C1473 C1474 1.362 . S
C1474 H1466 0.930 . S
C1474 C1473 1.362 . S
C1474 C1477 1.409 . S
C1475 H1467 0.930 . S
C1475 C1476 1.355 . S
C1475 C1477 1.415 . S
C1476 C1475 1.355 . S
C1476 C1478 1.419 . S
C1477 C1472 1.425 . S
C1477 C1474 1.409 . S
C1477 C1475 1.415 . S
C1478 H1468 0.930 . S
C1478 C1476 1.419 . S
C1478 C1479 1.362 . S
C1479 H1469 0.930 . S
C1479 C1472 1.409 . S
C1479 C1478 1.362 . S
H1480 C1486 0.930 . S
H1481 C1489 0.930 . S
H1482 C1490 0.930 . S
H1483 C1491 0.930 . S
H1484 C1494 0.930 . S
H1485 C1495 0.930 . S
C1486 H1480 0.930 . S
C1486 C1487 1.355 . S
C1486 C1488 1.415 . S
C1487 C1486 1.355 . S
C1487 C1489 1.419 . S
C1488 C1486 1.415 . S
C1488 C1493 1.425 . S
C1488 C1495 1.409 . S
C1489 H1481 0.930 . S
C1489 C1487 1.419 . S
C1489 C1490 1.362 . S
C1490 H1482 0.930 . S
C1490 C1489 1.362 . S
C1490 C1493 1.409 . S
C1491 H1483 0.930 . S
C1491 C1492 1.355 . S
C1491 C1493 1.415 . S
C1492 C1491 1.355 . S
C1492 C1494 1.419 . S
C1493 C1488 1.425 . S
C1493 C1490 1.409 . S
C1493 C1491 1.415 . S
C1494 H1484 0.930 . S
C1494 C1492 1.419 . S
C1494 C1495 1.362 . S
C1495 H1485 0.930 . S
C1495 C1488 1.409 . S
C1495 C1494 1.362 . S
H1496 C1502 0.930 . S
H1497 C1505 0.930 . S
H1498 C1506 0.930 . S
H1499 C1507 0.930 . S
H1500 C1510 0.930 . S
H1501 C1511 0.930 . S
C1502 H1496 0.930 . S
C1502 C1503 1.355 . S
C1502 C1504 1.415 . S
C1503 C1502 1.355 . S
C1503 C1505 1.419 . S
C1504 C1502 1.415 . S
C1504 C1509 1.425 . S
C1504 C1511 1.409 . S
C1505 H1497 0.930 . S
C1505 C1503 1.419 . S
C1505 C1506 1.362 . S
C1506 H1498 0.930 . S
C1506 C1505 1.362 . S
C1506 C1509 1.409 . S
C1507 H1499 0.930 . S
C1507 C1508 1.355 . S
C1507 C1509 1.415 . S
C1508 C1507 1.355 . S
C1508 C1510 1.419 . S
C1509 C1504 1.425 . S
C1509 C1506 1.409 . S
C1509 C1507 1.415 . S
C1510 H1500 0.930 . S
C1510 C1508 1.419 . S
C1510 C1511 1.362 . S
C1511 H1501 0.930 . S
C1511 C1504 1.409 . S
C1511 C1510 1.362 . S
H1512 C1518 0.930 . S
H1513 C1521 0.930 . S
H1514 C1522 0.930 . S
H1515 C1523 0.930 . S
H1516 C1526 0.930 . S
H1517 C1527 0.930 . S
C1518 H1512 0.930 . S
C1518 C1519 1.355 . S
C1518 C1520 1.415 . S
C1519 C1518 1.355 . S
C1519 C1521 1.419 . S
C1520 C1518 1.415 . S
C1520 C1525 1.425 . S
C1520 C1527 1.409 . S
C1521 H1513 0.930 . S
C1521 C1519 1.419 . S
C1521 C1522 1.362 . S
C1522 H1514 0.930 . S
C1522 C1521 1.362 . S
C1522 C1525 1.409 . S
C1523 H1515 0.930 . S
C1523 C1524 1.355 . S
C1523 C1525 1.415 . S
C1524 C1523 1.355 . S
C1524 C1526 1.419 . S
C1525 C1520 1.425 . S
C1525 C1522 1.409 . S
C1525 C1523 1.415 . S
C1526 H1516 0.930 . S
C1526 C1524 1.419 . S
C1526 C1527 1.362 . S
C1527 H1517 0.930 . S
C1527 C1520 1.409 . S
C1527 C1526 1.362 . S
H1528 C1534 0.930 . S
H1529 C1537 0.930 . S
H1530 C1538 0.930 . S
H1531 C1539 0.930 . S
H1532 C1542 0.930 . S
H1533 C1543 0.930 . S
C1534 H1528 0.930 . S
C1534 C1535 1.355 . S
C1534 C1536 1.415 . S
C1535 C1534 1.355 . S
C1535 C1537 1.419 . S
C1536 C1534 1.415 . S
C1536 C1541 1.425 . S
C1536 C1543 1.409 . S
C1537 H1529 0.930 . S
C1537 C1535 1.419 . S
C1537 C1538 1.362 . S
C1538 H1530 0.930 . S
C1538 C1537 1.362 . S
C1538 C1541 1.409 . S
C1539 H1531 0.930 . S
C1539 C1540 1.355 . S
C1539 C1541 1.415 . S
C1540 C1539 1.355 . S
C1540 C1542 1.419 . S
C1541 C1536 1.425 . S
C1541 C1538 1.409 . S
C1541 C1539 1.415 . S
C1542 H1532 0.930 . S
C1542 C1540 1.419 . S
C1542 C1543 1.362 . S
C1543 H1533 0.930 . S
C1543 C1536 1.409 . S
C1543 C1542 1.362 . S
H1544 C1550 0.930 . S
H1545 C1553 0.930 . S
H1546 C1554 0.930 . S
H1547 C1555 0.930 . S
H1548 C1558 0.930 . S
H1549 C1559 0.930 . S
C1550 H1544 0.930 . S
C1550 C1551 1.355 . S
C1550 C1552 1.415 . S
C1551 C1550 1.355 . S
C1551 C1553 1.419 . S
C1552 C1550 1.415 . S
C1552 C1557 1.425 . S
C1552 C1559 1.409 . S
C1553 H1545 0.930 . S
C1553 C1551 1.419 . S
C1553 C1554 1.362 . S
C1554 H1546 0.930 . S
C1554 C1553 1.362 . S
C1554 C1557 1.409 . S
C1555 H1547 0.930 . S
C1555 C1556 1.355 . S
C1555 C1557 1.415 . S
C1556 C1555 1.355 . S
C1556 C1558 1.419 . S
C1557 C1552 1.425 . S
C1557 C1554 1.409 . S
C1557 C1555 1.415 . S
C1558 H1548 0.930 . S
C1558 C1556 1.419 . S
C1558 C1559 1.362 . S
C1559 H1549 0.930 . S
C1559 C1552 1.409 . S
C1559 C1558 1.362 . S
H1560 C1566 0.930 . S
H1561 C1569 0.930 . S
H1562 C1570 0.930 . S
H1563 C1571 0.930 . S
H1564 C1574 0.930 . S
H1565 C1575 0.930 . S
C1566 H1560 0.930 . S
C1566 C1567 1.355 . S
C1566 C1568 1.415 1_455 S
C1567 C1566 1.355 . S
C1567 C1569 1.419 . S
C1568 C1566 1.415 1_655 S
C1568 C1573 1.425 1_655 S
C1568 C1575 1.409 . S
C1569 H1561 0.930 . S
C1569 C1567 1.419 . S
C1569 C1570 1.362 . S
C1570 H1562 0.930 . S
C1570 C1569 1.362 . S
C1570 C1573 1.409 . S
C1571 H1563 0.930 . S
C1571 C1572 1.355 . S
C1571 C1573 1.415 1_655 S
C1572 C1571 1.355 . S
C1572 C1574 1.419 . S
C1573 C1568 1.425 1_455 S
C1573 C1570 1.409 . S
C1573 C1571 1.415 1_455 S
C1574 H1564 0.930 . S
C1574 C1572 1.419 . S
C1574 C1575 1.362 . S
C1575 H1565 0.930 . S
C1575 C1568 1.409 . S
C1575 C1574 1.362 . S
H1576 C1582 0.930 . S
H1577 C1585 0.930 . S
H1578 C1586 0.930 . S
H1579 C1587 0.930 . S
H1580 C1590 0.930 . S
H1581 C1591 0.930 . S
C1582 H1576 0.930 . S
C1582 C1583 1.355 . S
C1582 C1584 1.415 . S
C1583 C1582 1.355 . S
C1583 C1585 1.419 . S
C1584 C1582 1.415 . S
C1584 C1589 1.425 . S
C1584 C1591 1.409 . S
C1585 H1577 0.930 . S
C1585 C1583 1.419 . S
C1585 C1586 1.362 . S
C1586 H1578 0.930 . S
C1586 C1585 1.362 . S
C1586 C1589 1.409 . S
C1587 H1579 0.930 . S
C1587 C1588 1.355 . S
C1587 C1589 1.415 . S
C1588 C1587 1.355 . S
C1588 C1590 1.419 . S
C1589 C1584 1.425 . S
C1589 C1586 1.409 . S
C1589 C1587 1.415 . S
C1590 H1580 0.930 . S
C1590 C1588 1.419 . S
C1590 C1591 1.362 . S
C1591 H1581 0.930 . S
C1591 C1584 1.409 . S
C1591 C1590 1.362 . S
H1592 C1598 0.930 . S
H1593 C1601 0.930 . S
H1594 C1602 0.930 . S
H1595 C1603 0.930 . S
H1596 C1606 0.930 . S
H1597 C1607 0.930 . S
C1598 H1592 0.930 . S
C1598 C1599 1.355 . S
C1598 C1600 1.415 1_545 S
C1599 C1598 1.355 . S
C1599 C1601 1.419 . S
C1600 C1598 1.415 1_565 S
C1600 C1605 1.425 1_565 S
C1600 C1607 1.409 . S
C1601 H1593 0.930 . S
C1601 C1599 1.419 . S
C1601 C1602 1.362 . S
C1602 H1594 0.930 . S
C1602 C1601 1.362 . S
C1602 C1605 1.409 . S
C1603 H1595 0.930 . S
C1603 C1604 1.355 . S
C1603 C1605 1.415 1_565 S
C1604 C1603 1.355 . S
C1604 C1606 1.419 . S
C1605 C1600 1.425 1_545 S
C1605 C1602 1.409 . S
C1605 C1603 1.415 1_545 S
C1606 H1596 0.930 . S
C1606 C1604 1.419 . S
C1606 C1607 1.362 . S
C1607 H1597 0.930 . S
C1607 C1600 1.409 . S
C1607 C1606 1.362 . S
H1608 C1614 0.930 . S
H1609 C1617 0.930 . S
H1610 C1618 0.934 . S
H1611 C1619 0.930 . S
H1612 C1622 0.930 . S
H1613 C1623 0.934 . S
C1614 H1608 0.930 . S
C1614 C1615 1.355 . S
C1614 C1616 1.422 1_545 S
C1615 C1614 1.355 . S
C1615 C1617 1.424 . S
C1616 C1614 1.422 1_565 S
C1616 C1621 1.419 1_564 S
C1616 C1623 1.409 . S
C1617 H1609 0.930 . S
C1617 C1615 1.424 . S
C1617 C1618 1.358 1_554 S
C1618 H1610 0.934 . S
C1618 C1617 1.358 1_556 S
C1618 C1621 1.409 . S
C1619 H1611 0.930 . S
C1619 C1620 1.355 . S
C1619 C1621 1.422 1_565 S
C1620 C1619 1.355 . S
C1620 C1622 1.424 . S
C1621 C1616 1.419 1_546 S
C1621 C1618 1.409 . S
C1621 C1619 1.422 1_545 S
C1622 H1612 0.930 . S
C1622 C1620 1.424 . S
C1622 C1623 1.358 1_556 S
C1623 H1613 0.934 . S
C1623 C1616 1.409 . S
C1623 C1622 1.358 1_554 S
H1624 C1630 0.930 . S
H1625 C1633 0.930 . S
H1626 C1634 0.930 . S
H1627 C1635 0.930 . S
H1628 C1638 0.930 . S
H1629 C1639 0.930 . S
C1630 H1624 0.930 . S
C1630 C1631 1.355 1_556 S
C1630 C1632 1.415 . S
C1631 C1630 1.355 1_554 S
C1631 C1633 1.419 . S
C1632 C1630 1.415 . S
C1632 C1637 1.425 1_656 S
C1632 C1639 1.409 1_655 S
C1633 H1625 0.930 . S
C1633 C1631 1.419 . S
C1633 C1634 1.362 . S
C1634 H1626 0.930 . S
C1634 C1633 1.362 . S
C1634 C1637 1.409 1_655 S
C1635 H1627 0.930 . S
C1635 C1636 1.355 1_554 S
C1635 C1637 1.415 . S
C1636 C1635 1.355 1_556 S
C1636 C1638 1.419 . S
C1637 C1632 1.425 1_454 S
C1637 C1634 1.409 1_455 S
C1637 C1635 1.415 . S
C1638 H1628 0.930 . S
C1638 C1636 1.419 . S
C1638 C1639 1.362 . S
C1639 H1629 0.930 . S
C1639 C1632 1.409 1_455 S
C1639 C1638 1.362 . S
H1640 C1646 0.930 . S
H1641 C1649 0.930 . S
H1642 C1650 0.930 . S
H1643 C1651 0.930 . S
H1644 C1654 0.930 . S
H1645 C1655 0.930 . S
C1646 H1640 0.930 . S
C1646 C1647 1.364 . S
C1646 C1648 1.410 1_556 S
C1647 C1646 1.364 . S
C1647 C1649 1.419 . S
C1648 C1646 1.410 1_554 S
C1648 C1653 1.425 1_554 S
C1648 C1655 1.410 . S
C1649 H1641 0.930 . S
C1649 C1647 1.419 . S
C1649 C1650 1.362 . S
C1650 H1642 0.930 . S
C1650 C1649 1.362 . S
C1650 C1653 1.410 . S
C1651 H1643 0.930 . S
C1651 C1652 1.364 . S
C1651 C1653 1.410 1_554 S
C1652 C1651 1.364 . S
C1652 C1654 1.419 . S
C1653 C1648 1.425 1_556 S
C1653 C1650 1.410 . S
C1653 C1651 1.410 1_556 S
C1654 H1644 0.930 . S
C1654 C1652 1.419 . S
C1654 C1655 1.362 . S
C1655 H1645 0.930 . S
C1655 C1648 1.410 . S
C1655 C1654 1.362 . S
C511 C8 0.888 . S
C516 C21 1.161 . S
C527 C22 1.044 . S
C532 C35 1.138 . S
C543 C7 1.143 . S
C548 C36 1.024 . S
C559 C50 0.976 . S
C564 C77 1.143 . S
C575 C64 1.069 . S
C580 C49 1.128 . S
C591 C63 1.151 . S
C596 C78 0.933 . S
C607 C92 1.023 . S
C612 C105 1.143 . S
C623 C119 1.142 . S
C628 C106 1.029 . S
C639 C91 1.148 . S
C644 C120 1.001 . S
C655 C161 1.128 . S
C660 C134 1.069 . S
C671 C148 0.921 . S
C676 C133 1.161 . S
C687 C162 1.009 . S
C692 C147 1.146 . S
C703 C189 1.137 . S
C708 C176 1.013 . S
C719 C190 1.041 . S
C724 C203 1.139 . S
C735 C204 0.928 . S
C740 C175 1.152 . S
C751 C218 0.909 . S
C756 C245 1.163 . S
C767 C232 1.065 . S
C772 C217 1.129 . S
C783 C246 0.889 . S
C788 C231 1.161 . S
C799 C273 1.160 . S
C804 C260 0.891 . S
C815 C274 0.969 . S
C820 C287 1.144 . S
C831 C259 1.140 . S
C836 C288 1.037 . S
C847 C329 1.156 . S
C852 C302 0.953 . S
C863 C316 1.071 . S
C868 C301 1.128 . S
C879 C315 1.137 . S
C884 C330 1.048 . S
C895 C357 1.149 . S
C900 C344 0.995 . S
C911 C358 1.056 . S
C916 C371 1.135 . S
C927 C372 0.976 . S
C932 C343 1.143 . S
C943 C413 1.141 . S
C948 C386 0.982 . S
C959 C400 0.932 . S
C964 C385 1.151 . S
C975 C399 1.165 . S
C980 C414 0.886 . S
C991 C428 0.924 . S
C996 C441 1.153 . S
C1007 C442 0.889 . S
C1012 C455 1.160 . S
C1023 C456 0.962 . S
C1028 C427 1.145 . S
C1039 C497 1.143 . S
C1044 C470 1.024 . S
C1055 C469 1.157 . S
C1060 C484 0.907 . S
C1071 C498 1.042 . S
C1076 C483 1.131 . S
C1087 C55 1.456 . S
C1092 C13 1.363 . S
C1103 C27 1.469 . S
C1108 C69 1.352 . S
C1119 C83 1.351 . S
C1124 C41 1.471 . S
C1135 C139 1.407 . S
C1140 C97 1.426 . S
C1151 C111 1.470 . S
C1156 C153 1.355 . S
C1167 C167 1.469 . S
C1172 C125 1.356 . S
C1183 C181 1.363 . S
C1188 C223 1.465 . S
C1199 C195 1.351 . S
C1204 C237 1.470 . S
C1215 C209 1.401 . S
C1220 C251 1.432 . S
C1231 C307 1.352 . S
C1236 C265 1.469 . S
C1247 C321 1.373 . S
C1252 C279 1.456 . S
C1263 C293 1.420 . S
C1268 C335 1.413 . S
C1279 C391 1.445 . S
C1284 C349 1.373 . S
C1295 C405 1.434 . S
C1300 C363 1.398 . S
C1311 C377 1.390 . S
C1316 C419 1.428 . S
C1327 C433 1.470 . S
C1332 C475 1.355 . S
C1343 C489 1.374 . S
C1348 C447 1.455 . S
C1359 C461 1.469 . S
C1364 C503 1.356 . S
C1375 C11 1.579 . S
C1380 C263 1.579 . S
C1391 C25 1.660 . S
C1396 C277 1.660 . S
C1407 C39 1.664 . S
C1412 C291 1.664 . S
C1423 C473 1.667 . S
C1428 C53 1.667 . S
C1439 C487 1.572 . S
C1444 C67 1.572 . S
C1455 C81 1.617 . S
C1460 C501 1.617 . S
C1471 C95 1.660 . S
C1476 C347 1.660 . S
C1487 C361 1.575 . S
C1492 C109 1.575 . S
C1503 C375 1.662 . S
C1508 C123 1.662 . S
C1519 C221 1.567 . S
C1524 C137 1.567 . S
C1535 C235 1.581 . S
C1540 C151 1.581 . S
C1551 C249 1.587 . S
C1556 C165 1.587 . S
C1567 C431 1.567 . S
C1572 C179 1.567 . S
C1583 C193 1.571 . S
C1588 C445 1.571 . S
C1599 C207 1.597 . S
C1604 C459 1.597 . S
C1615 C305 1.567 . S
C1620 C389 1.567 . S
C1631 C319 1.600 . S
C1636 C403 1.600 . S
C1647 C417 1.655 . S
C1652 C333 1.655 . S
