# Generated by pormake.
# Topology smm, (6)-cn, num edge types: 1
# Building blocks:
#     Node 0, Type 0, BuildingBlock: CUKXOW_clean_sbu_0, # of connection points: 6
#     Node 1, Type 0, BuildingBlock: CUKXOW_clean_sbu_0, # of connection points: 6
#     Node 2, Type 0, BuildingBlock: CUKXOW_clean_sbu_0, # of connection points: 6
#     Node 3, Type 0, BuildingBlock: CUKXOW_clean_sbu_0, # of connection points: 6
#     Node 4, Type 0, BuildingBlock: CUKXOW_clean_sbu_0, # of connection points: 6
#     Node 5, Type 0, BuildingBlock: CUKXOW_clean_sbu_0, # of connection points: 6
#     Node 6, Type 0, BuildingBlock: CUKXOW_clean_sbu_0, # of connection points: 6
#     Node 7, Type 0, BuildingBlock: CUKXOW_clean_sbu_0, # of connection points: 6
#     Node 8, Type 0, BuildingBlock: CUKXOW_clean_sbu_0, # of connection points: 6
#     Edge 9, Type (0, 0), BuildingBlock: CIFDUS_clean_linker_0, # of connection points: 2
#     Edge 10, Type (0, 0), BuildingBlock: CIFDUS_clean_linker_0, # of connection points: 2
#     Edge 11, Type (0, 0), BuildingBlock: CIFDUS_clean_linker_0, # of connection points: 2
#     Edge 12, Type (0, 0), BuildingBlock: CIFDUS_clean_linker_0, # of connection points: 2
#     Edge 13, Type (0, 0), BuildingBlock: CIFDUS_clean_linker_0, # of connection points: 2
#     Edge 14, Type (0, 0), BuildingBlock: CIFDUS_clean_linker_0, # of connection points: 2
#     Edge 15, Type (0, 0), BuildingBlock: CIFDUS_clean_linker_0, # of connection points: 2
#     Edge 16, Type (0, 0), BuildingBlock: CIFDUS_clean_linker_0, # of connection points: 2
#     Edge 17, Type (0, 0), BuildingBlock: CIFDUS_clean_linker_0, # of connection points: 2
#     Edge 18, Type (0, 0), BuildingBlock: CIFDUS_clean_linker_0, # of connection points: 2
#     Edge 19, Type (0, 0), BuildingBlock: CIFDUS_clean_linker_0, # of connection points: 2
#     Edge 20, Type (0, 0), BuildingBlock: CIFDUS_clean_linker_0, # of connection points: 2
#     Edge 21, Type (0, 0), BuildingBlock: CIFDUS_clean_linker_0, # of connection points: 2
#     Edge 22, Type (0, 0), BuildingBlock: CIFDUS_clean_linker_0, # of connection points: 2
#     Edge 23, Type (0, 0), BuildingBlock: CIFDUS_clean_linker_0, # of connection points: 2
#     Edge 24, Type (0, 0), BuildingBlock: CIFDUS_clean_linker_0, # of connection points: 2
#     Edge 25, Type (0, 0), BuildingBlock: CIFDUS_clean_linker_0, # of connection points: 2
#     Edge 26, Type (0, 0), BuildingBlock: CIFDUS_clean_linker_0, # of connection points: 2
#     Edge 27, Type (0, 0), BuildingBlock: CIFDUS_clean_linker_0, # of connection points: 2
#     Edge 28, Type (0, 0), BuildingBlock: CIFDUS_clean_linker_0, # of connection points: 2
#     Edge 29, Type (0, 0), BuildingBlock: CIFDUS_clean_linker_0, # of connection points: 2
#     Edge 30, Type (0, 0), BuildingBlock: CIFDUS_clean_linker_0, # of connection points: 2
#     Edge 31, Type (0, 0), BuildingBlock: CIFDUS_clean_linker_0, # of connection points: 2
#     Edge 32, Type (0, 0), BuildingBlock: CIFDUS_clean_linker_0, # of connection points: 2
#     Edge 33, Type (0, 0), BuildingBlock: CIFDUS_clean_linker_0, # of connection points: 2
#     Edge 34, Type (0, 0), BuildingBlock: CIFDUS_clean_linker_0, # of connection points: 2
#     Edge 35, Type (0, 0), BuildingBlock: CIFDUS_clean_linker_0, # of connection points: 2
# Relax obj value: 0.092
# Max RMSD: 0.190
# Mean RMSD: 0.154
data_MOF--net-smm--node1-CUKXOW_clean_sbu_0--edge1-CIFDUS_clean_linker_0
_symmetry_space_group_name_H-M    P1
_symmetry_Int_Tables_number       1
_symmetry_cell_setting            triclinic
loop_
_symmetry_equiv_pos_as_xyz
'x, y, z'
_cell_length_a     51.472397
_cell_length_b     43.345085
_cell_length_c     13.361977
_cell_angle_alpha  91.630777
_cell_angle_beta   92.636044
_cell_angle_gamma 120.9765
loop_
_atom_site_label
_atom_site_type_symbol
_atom_site_fract_x
_atom_site_fract_y
_atom_site_fract_z
_atom_type_partial_charge
Tb0 Tb 1.03794 0.26124 0.96037 0.0
C1 C 0.06572 0.246 0.1543 0.0
Tb2 Tb 0.08541 0.23734 0.93761 0.0
O3 O 0.99735 0.20844 -0.02416 0.0
O4 O 1.03838 0.21275 0.95482 0.0
O5 O 0.05108 0.26119 0.11637 0.0
C6 C 0.12298 0.21183 0.94593 0.0
O7 O 0.07892 0.23284 0.09838 0.0
C8 C 0.10355 0.30488 0.89879 0.0
C9 C 0.05123 0.24231 0.74623 0.0
O10 O 0.12801 0.24163 -0.00967 0.0
O11 O 0.09637 0.19589 0.8969 0.0
O12 O 0.11417 0.28636 0.85925 0.0
O13 O 0.08583 0.28648 0.9639 0.0
O14 O 0.06285 0.22409 0.78787 0.0
O15 O 0.04387 0.26279 0.79962 0.0
C16 C 1.01156 0.29911 0.00047 0.0
O17 O 1.0031 0.27491 0.92685 0.0
O18 O 1.03581 0.30319 0.04761 0.0
C19 C 1.0109 0.19034 0.96801 0.0
Tb20 Tb 0.84914 0.91462 0.00346 0.0
C21 C 0.88684 0.91805 0.81956 0.0
Tb22 Tb 0.91418 0.93202 0.04551 0.0
O23 O 0.86129 0.96922 0.05401 0.0
O24 O 0.89331 0.96012 -0.00781 0.0
O25 O 0.8599 0.9085 0.85183 0.0
C26 C 0.97348 0.95862 0.05258 0.0
O27 O 0.91135 0.92894 0.88135 0.0
C28 C 0.87145 0.8666 0.08277 0.0
C29 C 0.8774 0.93046 0.22573 0.0
O30 O 0.95284 0.92565 0.02413 0.0
O31 O 0.96075 0.97665 0.0782 0.0
O32 O 0.89782 0.88391 0.13204 0.0
O33 O 0.87115 0.88498 0.01191 0.0
O34 O 0.90483 0.94674 0.19076 0.0
O35 O 0.85213 0.91243 0.16594 0.0
C36 C 0.7901 0.87823 0.94681 0.0
O37 O 0.80267 0.87131 0.02234 0.0
O38 O 0.8106 0.90653 0.90532 0.0
C39 C 0.8898 0.98364 0.03627 0.0
Tb40 Tb 0.26698 0.10531 0.91835 0.0
C41 C 0.23802 0.07318 0.12279 0.0
Tb42 Tb 0.19949 1.04497 0.91498 0.0
O43 O 0.25495 0.14438 0.86649 0.0
O44 O 0.22541 0.10107 0.94836 0.0
O45 O 0.26245 0.0955 0.07659 0.0
C46 C 0.14049 1.01152 0.93862 0.0
O47 O 0.211 0.05132 0.07555 0.0
C48 C 0.23702 1.02435 0.86485 0.0
C49 C 0.22881 0.07528 0.7135 0.0
O50 O 0.15707 0.99706 0.95115 0.0
O51 O 0.15699 1.04414 0.91114 0.0
O52 O 0.20862 1.0077 0.83124 0.0
O53 O 0.24202 1.04884 0.92965 0.0
O54 O 0.20371 0.06182 0.76244 0.0
O55 O 0.25638 0.08948 0.75934 0.0
C56 C 0.32673 0.13975 0.9616 0.0
O57 O 0.30919 0.15197 -0.01679 0.0
O58 O 0.31075 0.1092 0.90953 0.0
C59 C 0.22771 0.12634 0.89773 0.0
Tb60 Tb 0.7165 0.61788 0.36163 0.0
C61 C 0.68496 0.58056 0.1498 0.0
Tb62 Tb 0.66868 0.53504 0.33906 0.0
O63 O 0.75267 0.60707 0.40369 0.0
O64 O 0.71514 0.56973 0.31279 0.0
O65 O 0.69473 0.60961 0.21098 0.0
C66 C 0.64287 0.46346 0.31803 0.0
O67 O 0.67736 0.54872 0.18383 0.0
C68 C 0.64189 0.57228 0.37763 0.0
C69 C 0.69418 0.57508 0.55423 0.0
O70 O 0.63652 0.48294 0.26153 0.0
O71 O 0.66389 0.48434 0.38699 0.0
O72 O 0.62757 0.53743 0.36327 0.0
O73 O 0.66943 0.58348 0.36735 0.0
O74 O 0.68469 0.54502 0.49718 0.0
O75 O 0.70387 0.60704 0.51616 0.0
C76 C 0.75053 0.68771 0.32537 0.0
O77 O 0.74252 0.66063 0.26243 0.0
O78 O 0.7394 0.67571 0.41117 0.0
C79 C 0.73867 0.57479 0.36121 0.0
Tb80 Tb 0.51942 0.18262 0.36476 0.0
C81 C 0.55657 0.18577 0.18283 0.0
Tb82 Tb 0.58425 0.20064 0.40894 0.0
O83 O 0.53623 0.23386 0.2959 0.0
O84 O 0.56163 0.22984 0.41491 0.0
O85 O 0.52925 0.17357 0.21511 0.0
C86 C 0.64514 0.23611 0.41933 0.0
O87 O 0.58129 0.1986 0.24471 0.0
C88 C 0.54206 0.13264 0.42432 0.0
C89 C 0.54594 0.19391 0.58921 0.0
O90 O 0.62752 0.20349 0.44615 0.0
O91 O 0.62847 0.24867 0.38714 0.0
O92 O 0.5683 0.14854 0.47509 0.0
O93 O 0.54208 0.15371 0.36108 0.0
O94 O 0.57372 0.21079 0.55687 0.0
O95 O 0.52101 0.17796 0.52703 0.0
C96 C 0.46025 0.15623 0.32288 0.0
O97 O 0.47988 0.18885 0.3574 0.0
O98 O 0.47373 0.13793 0.31825 0.0
C99 C 0.56165 0.25053 0.3504 0.0
Tb100 Tb 0.88264 0.38425 0.36393 0.0
C101 C 0.87797 0.41635 0.1576 0.0
Tb102 Tb 0.86345 0.44096 0.3604 0.0
O103 O 0.83889 0.34236 0.40958 0.0
O104 O 0.84192 0.38417 0.32598 0.0
O105 O 0.8874 0.39775 0.20845 0.0
C106 C 0.83652 0.47965 0.34462 0.0
O107 O 0.86589 0.43381 0.19963 0.0
C108 C 0.92107 0.46415 0.41511 0.0
C109 C 0.86803 0.41006 0.56255 0.0
O110 O 0.86508 0.49161 0.3343 0.0
O111 O 0.823 0.44573 0.36251 0.0
O112 O 0.90655 0.47877 0.45036 0.0
O113 O 0.90375 0.4399 0.35035 0.0
O114 O 0.85256 0.42096 0.50768 0.0
O115 O 0.88592 0.39983 0.52313 0.0
C116 C 0.91374 0.35189 0.32894 0.0
O117 O 0.92172 0.37793 0.3967 0.0
O118 O 0.88741 0.34277 0.2862 0.0
C119 C 0.82431 0.35735 0.37461 0.0
Tb120 Tb 0.35412 0.90053 0.61906 0.0
C121 C 0.37891 0.88119 0.81137 0.0
Tb122 Tb 0.39532 0.8643 0.59886 0.0
O123 O 0.31102 0.8495 0.63685 0.0
O124 O 0.34961 0.84937 0.61107 0.0
O125 O 0.37076 0.9032 0.77319 0.0
C126 C 0.4196 0.82272 0.59958 0.0
O127 O 0.38498 0.86003 0.75577 0.0
C128 C 0.4273 0.93603 0.59348 0.0
C129 C 0.37104 0.88409 0.40562 0.0
O130 O 0.42779 0.85063 0.66003 0.0
O131 O 0.39703 0.81756 0.53836 0.0
O132 O 0.4388 0.91565 0.58621 0.0
O133 O 0.39954 0.91529 0.60428 0.0
O134 O 0.38014 0.8628 0.44351 0.0
O135 O 0.36371 0.90421 0.46111 0.0
C136 C 0.33156 0.94372 0.63702 0.0
O137 O 0.35321 0.94543 0.6958 0.0
O138 O 0.32351 0.91854 0.56655 0.0
C139 C 0.3221 0.82874 0.62638 0.0
Tb140 Tb 0.15047 0.55427 0.66809 0.0
C141 C 0.18575 0.55739 0.47792 0.0
Tb142 Tb 0.21241 0.56596 0.69681 0.0
O143 O 0.16724 0.61017 0.72033 0.0
O144 O 0.19522 0.59802 0.6449 0.0
O145 O 0.15893 0.54655 0.51349 0.0
C146 C 0.27226 0.59297 0.72812 0.0
O147 O 0.21088 0.57068 0.537 0.0
C148 C 0.16914 0.49708 0.66906 0.0
C149 C 0.17597 0.55923 0.88529 0.0
O150 O 0.25918 0.61162 0.71991 0.0
O151 O 0.25149 0.55903 0.72228 0.0
O152 O 0.19601 0.51149 0.63592 0.0
O153 O 0.16769 0.52133 0.71907 0.0
O154 O 0.20336 0.57376 0.85067 0.0
O155 O 0.15099 0.54335 0.82447 0.0
C156 C 0.09163 0.53276 0.62619 0.0
O157 O 0.11061 0.55911 0.68848 0.0
O158 O 0.10573 0.51814 0.58727 0.0
C159 C 0.19452 0.62293 0.69287 0.0
Tb160 Tb 0.5688 0.72166 0.60786 0.0
C161 C 0.53696 0.6886 0.806 0.0
Tb162 Tb 0.4976 0.66617 0.59979 0.0
O163 O 0.56568 0.77117 0.62164 0.0
O164 O 0.52848 0.72106 0.61362 0.0
O165 O 0.56183 0.70077 0.75668 0.0
C166 C 0.43864 0.63713 0.62502 0.0
O167 O 0.50979 0.67688 0.76048 0.0
C168 C 0.53058 0.63918 0.5442 0.0
C169 C 0.52983 0.69686 0.40079 0.0
O170 O 0.4541 0.62154 0.64286 0.0
O171 O 0.45622 0.6685 0.59083 0.0
O172 O 0.50177 0.62492 0.51827 0.0
O173 O 0.53863 0.66471 0.60985 0.0
O174 O 0.50452 0.68519 0.44877 0.0
O175 O 0.55703 0.7079 0.44716 0.0
C176 C 0.62843 0.75604 0.65438 0.0
O177 O 0.61592 0.74536 0.56307 0.0
O178 O 0.60749 0.74709 0.71631 0.0
C179 C 0.5363 0.75343 0.62047 0.0
H180 H 0.12734 0.33484 0.72653 0.0
H181 H 0.09365 0.35443 -0.00458 0.0
H182 H 0.10788 0.41478 0.94349 0.0
H183 H 0.13405 0.46402 0.82687 0.0
H184 H 0.16769 0.44304 0.55935 0.0
H185 H 0.14895 0.38125 0.60437 0.0
C186 C 0.12295 0.35225 0.77358 0.0
C187 C 0.10977 0.34034 0.86527 0.0
C188 C 0.13117 0.38675 0.74311 0.0
C189 C 0.10381 0.36299 0.92461 0.0
C190 C 0.11203 0.39754 0.89493 0.0
C191 C 0.13665 0.44564 0.77749 0.0
C192 C 0.15236 0.45821 0.68976 0.0
C193 C 0.12622 0.41002 0.80497 0.0
C194 C 0.15577 0.43411 0.62717 0.0
C195 C 0.1452 0.39879 0.65317 0.0
H196 H 0.76776 0.86971 0.75329 0.0
H197 H 0.74251 0.83195 0.04878 0.0
H198 H 0.69054 0.78927 -0.01829 0.0
H199 H 0.65245 0.76344 0.84077 0.0
H200 H 0.67685 0.79818 0.54254 0.0
H201 H 0.72948 0.84084 0.60821 0.0
C202 C 0.7507 0.85231 0.80276 0.0
C203 C 0.75858 0.85426 0.90602 0.0
C204 C 0.72108 0.82707 0.76297 0.0
C205 C 0.73671 0.83109 0.96933 0.0
C206 C 0.70712 0.80662 0.93097 0.0
C207 C 0.66936 0.78014 0.78984 0.0
C208 C 0.66095 0.77793 0.68719 0.0
C209 C 0.69912 0.8044 0.82813 0.0
C210 C 0.68299 0.79938 0.6218 0.0
C211 C 0.7129 0.82392 0.65955 0.0
H212 H 0.23456 0.98902 0.6915 0.0
H213 H 0.29006 1.03992 0.96597 0.0
H214 H 0.32613 1.02243 0.91575 0.0
H215 H 0.33986 0.98872 0.79831 0.0
H216 H 0.28397 0.93802 0.52398 0.0
H217 H 0.25034 0.95962 0.56873 0.0
C218 C 0.25462 0.99634 0.74002 0.0
C219 C 0.25963 1.01551 0.83242 0.0
C220 C 0.2752 0.98622 0.71051 0.0
C221 C 0.28585 1.02527 0.89423 0.0
C222 C 0.3064 1.01516 0.86567 0.0
C223 C 0.32059 0.98294 0.74772 0.0
C224 C 0.31433 0.96167 0.65816 0.0
C225 C 0.30109 0.99516 0.77454 0.0
C226 C 0.28926 0.9543 0.59338 0.0
C227 C 0.26991 0.96649 0.61915 0.0
H228 H 0.43869 0.1997 0.27694 0.0
H229 H 0.41948 0.09079 0.23132 0.0
H230 H 0.37817 0.07722 0.10637 0.0
H231 H 0.34856 0.09684 0.00734 0.0
H232 H 0.3665 0.20505 0.05623 0.0
H233 H 0.40818 0.21894 0.18047 0.0
C234 C 0.42508 0.17282 0.24094 0.0
C235 C 0.43189 0.14617 0.2636 0.0
C236 C 0.40187 0.1655 0.16776 0.0
C237 C 0.41439 0.11159 0.21566 0.0
C238 C 0.39106 0.10397 0.14345 0.0
C239 C 0.36201 0.12368 0.04376 0.0
C240 C 0.35501 0.15019 0.02159 0.0
C241 C 0.38498 0.13091 0.11769 0.0
C242 C 0.37196 0.18451 0.07115 0.0
C243 C 0.39547 0.19227 0.1429 0.0
H244 H 0.90622 0.31811 0.1482 0.0
H245 H 0.96912 0.36698 0.40899 0.0
H246 H 1.00627 0.35753 0.32645 0.0
H247 H 1.02057 0.33518 0.17977 0.0
H248 H 0.95779 0.28767 0.91808 0.0
H249 H 0.9211 0.29781 0.00019 0.0
C250 C 0.92791 0.32624 0.18753 0.0
C251 C 0.93478 0.34256 0.28522 0.0
C252 C 0.94935 0.32172 0.13852 0.0
C253 C 0.9632 0.35378 0.3344 0.0
C254 C 0.9845 0.34871 0.28685 0.0
C255 C 0.99905 0.32761 0.14019 0.0
C256 C 0.99188 0.31086 0.04286 0.0
C257 C 0.97787 0.33291 0.18865 0.0
C258 C 0.96385 0.30084 -0.00728 0.0
C259 C 0.94278 0.30631 0.04 0.0
H260 H 0.8602 0.84432 0.27205 0.0
H261 H 0.82289 0.81556 0.96507 0.0
H262 H 0.78056 0.75845 0.01519 0.0
H263 H 0.75663 0.71485 0.14412 0.0
H264 H 0.79166 0.74449 0.45302 0.0
H265 H 0.83226 0.80356 0.40512 0.0
C266 C 0.8427 0.8255 0.21642 0.0
C267 C 0.84486 0.83355 0.11468 0.0
C268 C 0.81811 0.79311 0.2463 0.0
C269 C 0.82176 0.80959 0.0435 0.0
C270 C 0.79761 0.77702 0.07217 0.0
C271 C 0.77291 0.73452 0.20113 0.0
C272 C 0.77146 0.72541 0.30173 0.0
C273 C 0.7959 0.76823 0.17297 0.0
C274 C 0.79236 0.75107 0.3752 0.0
C275 C 0.81567 0.78465 0.34761 0.0
H276 H 0.05256 0.48664 0.47409 0.0
H277 H 0.05923 0.55639 0.723 0.0
H278 H 1.00708 0.54143 0.68145 0.0
H279 H 0.95935 0.50884 0.57239 0.0
H280 H 0.95404 0.44163 0.31866 0.0
H281 H 1.00538 0.45495 0.36393 0.0
C282 C 0.0425 0.49839 0.51939 0.0
C283 C 0.05968 0.52248 0.60163 0.0
C284 C 1.01261 0.49009 0.49407 0.0
C285 C 0.04645 0.53774 0.65925 0.0
C286 C 1.01662 0.52923 0.63548 0.0
C287 C 0.96953 0.49724 0.52713 0.0
C288 C 0.95271 0.47383 0.44326 0.0
C289 C 0.99947 0.50556 0.55269 0.0
C290 C 0.96626 0.45917 0.38483 0.0
C291 C 0.99573 0.46692 0.41031 0.0
H292 H 0.59319 0.66899 0.55962 0.0
H293 H 0.50862 0.5751 0.44512 0.0
H294 H 0.53571 0.54746 0.38145 0.0
H295 H 0.58264 0.5485 0.36017 0.0
H296 H 0.66851 0.64155 0.46548 0.0
H297 H 0.64199 0.67112 0.52946 0.0
C298 C 0.58085 0.64251 0.52084 0.0
C299 C 0.54883 0.62403 0.50801 0.0
C300 C 0.5968 0.62666 0.48217 0.0
C301 C 0.53317 0.58991 0.45653 0.0
C302 C 0.54864 0.57399 0.41979 0.0
C303 C 0.59565 0.57539 0.39656 0.0
C304 C 0.62742 0.59276 0.40837 0.0
C305 C 0.58034 0.59198 0.43237 0.0
C306 C 0.64397 0.62768 0.45512 0.0
C307 C 0.62877 0.64445 0.49216 0.0
H308 H 0.53351 0.09675 0.59401 0.0
H309 H 0.49133 0.0883 0.30042 0.0
H310 H 0.44903 1.02814 0.33207 0.0
H311 H 0.42634 0.97539 0.43875 0.0
H312 H 0.46998 0.9842 0.72975 0.0
H313 H 0.50889 1.04666 0.70502 0.0
C314 C 0.51498 0.08178 0.53713 0.0
C315 C 0.51567 0.09686 0.44468 0.0
C316 C 0.49077 1.04725 0.55604 0.0
C317 C 0.49131 0.07733 0.37225 0.0
C318 C 0.46713 1.04287 0.39033 0.0
C319 C 0.4438 0.99153 0.49785 0.0
C320 C 0.44494 0.9756 0.58714 0.0
C321 C 0.46678 1.02727 0.48151 0.0
C322 C 0.4683 0.99623 0.6616 0.0
C323 C 0.49076 1.0318 0.64691 0.0
H324 H 0.23177 0.18372 -0.00133 0.0
H325 H 0.17392 0.09536 0.7852 0.0
H326 H 0.13558 0.11273 0.78376 0.0
H327 H 0.11855 0.15365 0.84302 0.0
H328 H 0.17723 0.24289 0.05394 0.0
H329 H 0.21503 0.22486 0.05658 0.0
C330 C 0.21077 0.16845 0.95173 0.0
C331 C 0.20537 0.13803 0.89336 0.0
C332 C 0.18894 0.17882 0.95089 0.0
C333 C 0.17824 0.11842 0.83245 0.0
C334 C 0.15638 0.12848 0.83119 0.0
C335 C 0.13957 0.169 0.88973 0.0
C336 C 0.14504 0.19952 0.94832 0.0
C337 C 0.16141 0.15859 0.8904 0.0
C338 C 0.17244 0.21927 0.00819 0.0
C339 C 0.19413 0.20902 0.00967 0.0
H340 H 0.94673 1.02008 0.96389 0.0
H341 H 0.88249 1.03564 0.12089 0.0
H342 H 0.91574 0.10074 0.11935 0.0
H343 H 0.96072 0.15285 0.06403 0.0
H344 H 1.02637 0.14026 0.90773 0.0
H345 H 0.99526 0.07433 0.91984 0.0
C346 C 0.94028 1.03781 -0.00121 0.0
C347 C 0.91198 1.023 0.04179 0.0
C348 C 0.95968 0.07561 -0.00255 0.0
C349 C 0.90393 1.04627 0.0867 0.0
C350 C 0.92295 0.08353 0.08586 0.0
C351 C 0.96845 0.13577 0.03308 0.0
C352 C 0.99561 0.15128 -0.01596 0.0
C353 C 0.9505 0.09841 0.0399 0.0
C354 C 1.00552 0.12888 0.94576 0.0
C355 C 0.98762 0.09124 0.95225 0.0
H356 H 1.00243 0.92229 0.02538 0.0
H357 H 1.01707 1.02953 0.05832 0.0
H358 H 0.07043 0.05532 0.02444 0.0
H359 H 0.112 1.04708 -0.02168 0.0
H360 H 0.09853 0.94032 0.95325 0.0
H361 H 0.04524 0.91428 -0.00921 0.0
C362 C 1.01746 0.9513 0.02602 0.0
C363 C 1.00608 0.9741 0.04371 0.0
C364 C 0.048 0.96583 0.007 0.0
C365 C 1.02555 1.0116 0.04515 0.0
C366 C 0.05592 1.02629 0.02524 0.0
C367 C 0.09733 1.0181 -0.019 0.0
C368 C 0.10873 0.99543 0.96192 0.0
C369 C 0.06721 1.00362 0.00468 0.0
C370 C 0.08993 0.95807 0.96721 0.0
C371 C 0.0596 0.94329 -0.01127 0.0
H372 H 0.7971 0.59422 0.4066 0.0
H373 H 0.71089 0.50468 0.28763 0.0
H374 H 0.73297 0.46648 0.27603 0.0
H375 H 0.77733 0.45873 0.30018 0.0
H376 H 0.86478 0.55092 0.39793 0.0
H377 H 0.84199 0.58809 0.4161 0.0
C378 C 0.78314 0.56631 0.37835 0.0
C379 C 0.75214 0.55191 0.351 0.0
C380 C 0.79639 0.54513 0.36729 0.0
C381 C 0.73453 0.51601 0.31209 0.0
C382 C 0.74725 0.49428 0.30461 0.0
C383 C 0.79131 0.48701 0.32496 0.0
C384 C 0.82261 0.50211 0.34829 0.0
C385 C 0.77818 0.50852 0.33228 0.0
C386 C 0.84065 0.53881 0.37926 0.0
C387 C 0.82761 0.56001 0.39005 0.0
H388 H 0.65095 0.41849 0.4377 0.0
H389 H 0.6002 0.41945 0.17287 0.0
H390 H 0.57218 0.35375 0.15631 0.0
H391 H 0.56014 0.29608 0.22112 0.0
H392 H 0.60932 0.29361 0.48773 0.0
H393 H 0.64019 0.35973 0.49908 0.0
C394 C 0.63388 0.40421 0.37617 0.0
C395 C 0.6275 0.42374 0.3069 0.0
C396 C 0.61759 0.36621 0.3675 0.0
C397 C 0.60541 0.40502 0.22736 0.0
C398 C 0.58937 0.36744 0.21782 0.0
C399 C 0.57776 0.30999 0.28142 0.0
C400 C 0.58236 0.29008 0.35378 0.0
C401 C 0.59498 0.34779 0.28807 0.0
C402 C 0.60537 0.30841 0.43111 0.0
C403 C 0.62291 0.34619 0.43779 0.0
H404 H 0.68316 0.29939 0.33688 0.0
H405 H 0.6822 0.21613 0.50886 0.0
H406 H 0.73761 0.2473 0.51324 0.0
H407 H 0.7861 0.29737 0.46577 0.0
H408 H 0.78765 0.37907 0.28524 0.0
H409 H 0.73227 0.34968 0.28727 0.0
C410 C 0.69516 0.2882 0.37551 0.0
C411 C 0.67868 0.25553 0.42267 0.0
C412 C 0.72706 0.30604 0.37633 0.0
C413 C 0.69441 0.24119 0.47197 0.0
C414 C 0.72607 0.25901 0.47452 0.0
C415 C 0.77435 0.30884 0.42699 0.0
C416 C 0.79098 0.34059 0.37627 0.0
C417 C 0.74259 0.29132 0.42658 0.0
C418 C 0.77542 0.35499 0.32605 0.0
C419 C 0.74374 0.33803 0.32672 0.0
H420 H 0.48075 0.73007 0.52424 0.0
H421 H 0.54933 0.81295 0.73197 0.0
H422 H 0.5184 0.84049 0.74773 0.0
H423 H 0.47252 0.84163 0.70074 0.0
H424 H 0.40396 0.76034 0.4891 0.0
H425 H 0.43359 0.73058 0.47893 0.0
C426 C 0.48837 0.75347 0.57509 0.0
C427 C 0.51681 0.76895 0.62914 0.0
C428 C 0.47049 0.76934 0.58292 0.0
C429 C 0.52738 0.80051 0.69035 0.0
C430 C 0.50969 0.81618 0.69951 0.0
C431 C 0.46391 0.81724 0.65283 0.0
C432 C 0.43609 0.80312 0.59587 0.0
C433 C 0.4813 0.8009 0.64599 0.0
C434 C 0.42534 0.77169 0.53361 0.0
C435 C 0.44231 0.75477 0.52767 0.0
H436 H 0.25074 0.65735 0.61205 0.0
H437 H 0.18984 0.67701 0.77624 0.0
H438 H 0.22459 0.74169 0.77353 0.0
H439 H 0.27072 0.7928 0.71909 0.0
H440 H 0.33386 0.77606 0.5607 0.0
H441 H 0.30032 0.7103 0.56843 0.0
C442 C 0.24534 0.67583 0.64831 0.0
C443 C 0.21752 0.66217 0.69401 0.0
C444 C 0.26585 0.71353 0.64758 0.0
C445 C 0.21087 0.6866 0.74008 0.0
C446 C 0.23078 0.7237 0.7387 0.0
C447 C 0.27735 0.77482 0.68681 0.0
C448 C 0.30465 0.78926 0.63884 0.0
C449 C 0.25808 0.73744 0.69181 0.0
C450 C 0.31301 0.76561 0.59831 0.0
C451 C 0.2937 0.72802 0.60225 0.0
H452 H 0.41021 0.6747 0.63773 0.0
H453 H 0.39655 0.56865 0.66795 0.0
H454 H 0.34404 0.54586 0.70915 0.0
H455 H 0.3016 0.55591 0.73133 0.0
H456 H 0.31599 0.6625 0.70529 0.0
H457 H 0.36883 0.68551 0.6694 0.0
C458 C 0.39567 0.64658 0.65313 0.0
C459 C 0.40696 0.6232 0.64876 0.0
C460 C 0.36579 0.63392 0.67844 0.0
C461 C 0.38817 0.58701 0.67029 0.0
C462 C 0.35822 0.57404 0.69408 0.0
C463 C 0.31647 0.58425 0.71921 0.0
C464 C 0.30501 0.6075 0.72097 0.0
C465 C 0.34676 0.59723 0.69801 0.0
C466 C 0.3244 0.64415 0.70484 0.0
C467 C 0.35453 0.65726 0.68363 0.0
H468 H 0.07672 0.21904 0.61223 0.0
H469 H 1.0216 0.26739 0.63177 0.0
H470 H 1.02155 0.27288 0.4508 0.0
H471 H 1.03802 0.26547 0.28865 0.0
H472 H 0.09363 0.21782 0.26713 0.0
H473 H 0.09268 0.21074 0.448 0.0
C474 C 0.06441 0.23042 0.57687 0.0
C475 C 0.04913 0.24271 0.63563 0.0
C476 C 0.06478 0.23395 0.47276 0.0
C477 C 1.03357 0.25772 0.58852 0.0
C478 C 1.03357 0.26096 0.485 0.0
C479 C 0.05004 0.25358 0.32309 0.0
C480 C 0.06599 0.24234 0.26411 0.0
C481 C 0.04934 0.2495 0.42668 0.0
C482 C 0.08125 0.22684 0.31058 0.0
C483 C 0.08066 0.22269 0.41401 0.0
H484 H 0.84286 0.90301 0.6734 0.0
H485 H 0.938 0.93815 0.71885 0.0
H486 H 0.94377 0.94672 0.53948 0.0
H487 H 0.92192 0.94512 0.37039 0.0
H488 H 0.82672 0.9098 0.32693 0.0
H489 H 0.82107 0.90095 0.50576 0.0
C490 C 0.86489 0.91231 0.64442 0.0
C491 C 0.88996 0.91989 0.70989 0.0
C492 C 0.86814 0.91764 0.54175 0.0
C493 C 0.91827 0.93198 0.67037 0.0
C494 C 0.92164 0.9371 0.56782 0.0
C495 C 0.90001 0.93592 0.40017 0.0
C496 C 0.87484 0.92847 0.33538 0.0
C497 C 0.89679 0.93037 0.50302 0.0
C498 C 0.84651 0.91594 0.37508 0.0
C499 C 0.84321 0.9107 0.4773 0.0
H500 H 0.2733 0.09398 0.58577 0.0
H501 H 0.17673 1.05044 0.59372 0.0
H502 H 0.17093 1.04418 0.41119 0.0
H503 H 0.19326 0.05178 0.24965 0.0
H504 H 0.28993 0.0968 0.24139 0.0
H505 H 0.29562 0.10151 0.42438 0.0
C506 C 0.251 0.08326 0.54772 0.0
C507 C 0.22555 0.07278 0.60324 0.0
C508 C 0.24777 0.07979 0.44289 0.0
C509 C 0.19676 0.05876 0.55274 0.0
C510 C 0.19336 0.05509 0.44835 0.0
C511 C 0.21551 0.06229 0.28796 0.0
C512 C 0.24109 0.07388 0.23258 0.0
C513 C 0.2187 0.06549 0.39279 0.0
C514 C 0.26989 0.08785 0.28281 0.0
C515 C 0.27318 0.09057 0.38726 0.0
H516 H 0.69928 0.62448 0.69884 0.0
H517 H 0.68493 0.51743 0.65718 0.0
H518 H 0.67922 0.5092 0.83549 0.0
H519 H 0.6784 0.53189 0.0035 0.0
H520 H 0.69368 0.63914 0.04934 0.0
H521 H 0.69859 0.64749 0.86957 0.0
C522 C 0.69512 0.59947 0.72892 0.0
C523 C 0.69257 0.57169 0.66422 0.0
C524 C 0.69171 0.59471 0.83236 0.0
C525 C 0.68694 0.53933 0.70467 0.0
C526 C 0.6836 0.53449 0.80692 0.0
C527 C 0.68251 0.55701 -0.02566 0.0
C528 C 0.68548 0.58472 0.04002 0.0
C529 C 0.68581 0.56188 0.87135 0.0
C530 C 0.69116 0.61723 0.00058 0.0
C531 C 0.6941 0.62212 0.89772 0.0
H532 H 0.59063 0.21112 0.73423 0.0
H533 H 0.4942 0.16902 0.68867 0.0
H534 H 0.48895 0.16103 0.86822 0.0
H535 H 0.51168 0.16639 0.03686 0.0
H536 H 0.60814 0.20856 0.08297 0.0
H537 H 0.61328 0.21562 0.90299 0.0
C538 C 0.56847 0.20046 0.76345 0.0
C539 C 0.54288 0.19097 0.69822 0.0
C540 C 0.56555 0.19557 0.86631 0.0
C541 C 0.5143 0.17673 0.73733 0.0
C542 C 0.51125 0.17202 0.83985 0.0
C543 C 0.53385 0.17686 0.00782 0.0
C544 C 0.55949 0.1869 0.07345 0.0
C545 C 0.53671 0.18129 0.90483 0.0
C546 C 0.58799 0.20052 0.03415 0.0
C547 C 0.59099 0.20474 0.93137 0.0
H548 H 0.90412 0.405 0.70784 0.0
H549 H 0.82638 0.41733 0.66181 0.0
H550 H 0.82374 0.42265 0.84207 0.0
H551 H 0.84324 0.4236 0.01333 0.0
H552 H 0.91992 0.4095 0.06003 0.0
H553 H 0.9234 0.40548 0.87927 0.0
C554 C 0.88649 0.40858 0.73732 0.0
C555 C 0.8656 0.41084 0.67164 0.0
C556 C 0.88504 0.41168 0.84123 0.0
C557 C 0.84293 0.41569 0.71084 0.0
C558 C 0.84136 0.4188 0.81397 0.0
C559 C 0.86088 0.42006 -0.01631 0.0
C560 C 0.88128 0.41695 0.04922 0.0
C561 C 0.86239 0.41704 0.87985 0.0
C562 C 0.90384 0.41185 0.01045 0.0
C563 C 0.90584 0.40948 0.90727 0.0
H564 H 0.38859 0.85262 0.26697 0.0
H565 H 0.35189 0.92218 0.29701 0.0
H566 H 0.35168 0.9279 0.11618 0.0
H567 H 0.36175 0.91316 0.94993 0.0
H568 H 0.39846 0.8436 0.92009 0.0
H569 H 0.39886 0.83809 0.10099 0.0
C570 C 0.38045 0.86896 0.23421 0.0
C571 C 0.37023 0.88684 0.29572 0.0
C572 C 0.38046 0.87228 0.13027 0.0
C573 C 0.35989 0.90803 0.25163 0.0
C574 C 0.35977 0.91139 0.14816 0.0
C575 C 0.36997 0.89689 -0.01718 0.0
C576 C 0.38004 0.87884 0.92133 0.0
C577 C 0.37004 0.89367 0.08683 0.0
C578 C 0.39049 0.85778 0.96549 0.0
C579 C 0.39074 0.85456 0.06898 0.0
H580 H 0.21966 0.57329 0.03006 0.0
H581 H 0.12508 0.54049 -0.01734 0.0
H582 H 0.11945 0.53572 0.16262 0.0
H583 H 0.14151 0.54145 0.33269 0.0
H584 H 0.23611 0.57406 0.37948 0.0
H585 H 0.24147 0.57801 0.1996 0.0
C586 C 0.19786 0.56527 0.05912 0.0
C587 C 0.17289 0.55737 -0.00636 0.0
C588 C 0.19471 0.56234 0.16215 0.0
C589 C 0.14468 0.54668 0.03197 0.0
C590 C 0.1414 0.54391 0.13467 0.0
C591 C 0.16325 0.54923 0.30356 0.0
C592 C 0.18835 0.5576 0.36913 0.0
C593 C 0.16627 0.55166 0.20032 0.0
C594 C 0.21641 0.56763 0.33041 0.0
C595 C 0.21955 0.56996 0.22764 0.0
H596 H 0.57196 0.7048 0.27125 0.0
H597 H 0.48088 0.68515 0.28068 0.0
H598 H 0.47473 0.67939 0.09812 0.0
H599 H 0.49495 0.67985 0.93584 0.0
H600 H 0.58621 0.7003 0.92522 0.0
H601 H 0.59235 0.70555 0.10822 0.0
C602 C 0.55084 0.69952 0.23348 0.0
C603 C 0.52697 0.69546 0.28987 0.0
C604 C 0.54733 0.69606 0.12819 0.0
C605 C 0.49966 0.68834 0.23942 0.0
C606 C 0.49606 0.68497 0.13486 0.0
C607 C 0.51611 0.68514 -0.02661 0.0
C608 C 0.53999 0.68947 0.91676 0.0
C609 C 0.51966 0.6886 0.07854 0.0
C610 C 0.56739 0.69676 0.96688 0.0
C611 C 0.57098 0.69987 0.0716 0.0
loop_
_geom_bond_atom_site_label_1
_geom_bond_atom_site_label_2
_geom_bond_distance
_geom_bond_site_symmetry_2
_ccdc_geom_bond_type
Tb0 O3 2.453 . S
Tb0 O4 2.596 1_655 S
Tb0 O5 2.374 . S
Tb0 O13 2.343 1_655 S
Tb0 O15 2.353 1_554 S
Tb0 O17 2.427 1_554 S
Tb0 O18 2.513 . S
C1 O5 1.251 1_455 S
C1 O7 1.263 . S
Tb2 O4 2.343 . S
Tb2 O7 2.353 . S
Tb2 O10 2.427 . S
Tb2 O11 2.513 1_554 S
Tb2 O12 2.453 . S
Tb2 O13 2.596 . S
Tb2 O14 2.374 1_554 S
O3 Tb0 2.453 . S
O3 C19 1.245 . S
O4 Tb0 2.596 1_455 S
O4 Tb2 2.343 . S
O4 C19 1.259 1_455 S
O5 Tb0 2.374 . S
O5 C1 1.251 1_655 S
C6 O10 1.275 . S
C6 O11 1.246 1_554 S
O7 C1 1.263 . S
O7 Tb2 2.353 . S
C8 O12 1.245 . S
C8 O13 1.259 . S
C9 O14 1.250 . S
C9 O15 1.263 1_455 S
O10 Tb2 2.427 . S
O10 C6 1.275 . S
O11 Tb2 2.513 1_556 S
O11 C6 1.246 1_556 S
O12 Tb2 2.453 . S
O12 C8 1.245 . S
O13 Tb0 2.343 1_455 S
O13 Tb2 2.596 . S
O13 C8 1.259 . S
O14 Tb2 2.374 1_556 S
O14 C9 1.250 . S
O15 Tb0 2.353 1_556 S
O15 C9 1.263 1_655 S
C16 O17 1.275 1_554 S
C16 O18 1.246 . S
O17 Tb0 2.427 1_556 S
O17 C16 1.275 1_556 S
O18 Tb0 2.513 . S
O18 C16 1.246 . S
C19 O3 1.245 . S
C19 O4 1.259 1_655 S
Tb20 O23 2.453 . S
Tb20 O24 2.596 . S
Tb20 O25 2.374 1_554 S
Tb20 O33 2.343 . S
Tb20 O35 2.353 . S
Tb20 O37 2.427 . S
Tb20 O38 2.513 1_554 S
C21 O25 1.251 . S
C21 O27 1.263 . S
Tb22 O24 2.343 . S
Tb22 O27 2.353 1_554 S
Tb22 O30 2.427 . S
Tb22 O31 2.513 . S
Tb22 O32 2.453 . S
Tb22 O33 2.596 . S
Tb22 O34 2.374 . S
O23 Tb20 2.453 . S
O23 C39 1.245 . S
O24 Tb20 2.596 . S
O24 Tb22 2.343 . S
O24 C39 1.259 . S
O25 Tb20 2.374 1_556 S
O25 C21 1.251 . S
C26 O30 1.275 . S
C26 O31 1.246 . S
O27 C21 1.263 . S
O27 Tb22 2.353 1_556 S
C28 O32 1.245 . S
C28 O33 1.259 . S
C29 O34 1.250 . S
C29 O35 1.263 . S
O30 Tb22 2.427 . S
O30 C26 1.275 . S
O31 Tb22 2.513 . S
O31 C26 1.246 . S
O32 Tb22 2.453 . S
O32 C28 1.245 . S
O33 Tb20 2.343 . S
O33 Tb22 2.596 . S
O33 C28 1.259 . S
O34 Tb22 2.374 . S
O34 C29 1.250 . S
O35 Tb20 2.353 . S
O35 C29 1.263 . S
C36 O37 1.275 . S
C36 O38 1.246 1_554 S
O37 Tb20 2.427 . S
O37 C36 1.275 . S
O38 Tb20 2.513 1_556 S
O38 C36 1.246 1_556 S
C39 O23 1.245 . S
C39 O24 1.259 . S
Tb40 O43 2.453 . S
Tb40 O44 2.596 . S
Tb40 O45 2.374 . S
Tb40 O53 2.343 1_544 S
Tb40 O55 2.353 1_554 S
Tb40 O57 2.427 1_554 S
Tb40 O58 2.513 . S
C41 O45 1.251 . S
C41 O47 1.263 1_545 S
Tb42 O44 2.343 1_566 S
Tb42 O47 2.353 1_556 S
Tb42 O50 2.427 1_556 S
Tb42 O51 2.513 . S
Tb42 O52 2.453 . S
Tb42 O53 2.596 . S
Tb42 O54 2.374 . S
O43 Tb40 2.453 . S
O43 C59 1.245 . S
O44 Tb40 2.596 . S
O44 Tb42 2.343 1_544 S
O44 C59 1.259 . S
O45 Tb40 2.374 . S
O45 C41 1.251 . S
C46 O50 1.275 1_556 S
C46 O51 1.246 . S
O47 C41 1.263 1_565 S
O47 Tb42 2.353 1_554 S
C48 O52 1.245 . S
C48 O53 1.259 . S
C49 O54 1.250 1_545 S
C49 O55 1.263 . S
O50 Tb42 2.427 1_554 S
O50 C46 1.275 1_554 S
O51 Tb42 2.513 . S
O51 C46 1.246 . S
O52 Tb42 2.453 . S
O52 C48 1.245 . S
O53 Tb40 2.343 1_566 S
O53 Tb42 2.596 . S
O53 C48 1.259 . S
O54 Tb42 2.374 . S
O54 C49 1.250 1_565 S
O55 Tb40 2.353 1_556 S
O55 C49 1.263 . S
C56 O57 1.275 1_554 S
C56 O58 1.246 . S
O57 Tb40 2.427 1_556 S
O57 C56 1.275 1_556 S
O58 Tb40 2.513 . S
O58 C56 1.246 . S
C59 O43 1.245 . S
C59 O44 1.259 . S
Tb60 O63 2.453 . S
Tb60 O64 2.596 . S
Tb60 O65 2.374 . S
Tb60 O73 2.343 . S
Tb60 O75 2.353 . S
Tb60 O77 2.427 . S
Tb60 O78 2.513 . S
C61 O65 1.251 . S
C61 O67 1.263 . S
Tb62 O64 2.343 . S
Tb62 O67 2.353 . S
Tb62 O70 2.427 . S
Tb62 O71 2.513 . S
Tb62 O72 2.453 . S
Tb62 O73 2.596 . S
Tb62 O74 2.374 . S
O63 Tb60 2.453 . S
O63 C79 1.245 . S
O64 Tb60 2.596 . S
O64 Tb62 2.343 . S
O64 C79 1.259 . S
O65 Tb60 2.374 . S
O65 C61 1.251 . S
C66 O70 1.275 . S
C66 O71 1.246 . S
O67 C61 1.263 . S
O67 Tb62 2.353 . S
C68 O72 1.245 . S
C68 O73 1.259 . S
C69 O74 1.250 . S
C69 O75 1.263 . S
O70 Tb62 2.427 . S
O70 C66 1.275 . S
O71 Tb62 2.513 . S
O71 C66 1.246 . S
O72 Tb62 2.453 . S
O72 C68 1.245 . S
O73 Tb60 2.343 . S
O73 Tb62 2.596 . S
O73 C68 1.259 . S
O74 Tb62 2.374 . S
O74 C69 1.250 . S
O75 Tb60 2.353 . S
O75 C69 1.263 . S
C76 O77 1.275 . S
C76 O78 1.246 . S
O77 Tb60 2.427 . S
O77 C76 1.275 . S
O78 Tb60 2.513 . S
O78 C76 1.246 . S
C79 O63 1.245 . S
C79 O64 1.259 . S
Tb80 O83 2.453 . S
Tb80 O84 2.596 . S
Tb80 O85 2.374 . S
Tb80 O93 2.343 . S
Tb80 O95 2.353 . S
Tb80 O97 2.427 . S
Tb80 O98 2.513 . S
C81 O85 1.251 . S
C81 O87 1.263 . S
Tb82 O84 2.343 . S
Tb82 O87 2.353 . S
Tb82 O90 2.427 . S
Tb82 O91 2.513 . S
Tb82 O92 2.453 . S
Tb82 O93 2.596 . S
Tb82 O94 2.374 . S
O83 Tb80 2.453 . S
O83 C99 1.245 . S
O84 Tb80 2.596 . S
O84 Tb82 2.343 . S
O84 C99 1.259 . S
O85 Tb80 2.374 . S
O85 C81 1.251 . S
C86 O90 1.275 . S
C86 O91 1.246 . S
O87 C81 1.263 . S
O87 Tb82 2.353 . S
C88 O92 1.245 . S
C88 O93 1.259 . S
C89 O94 1.250 . S
C89 O95 1.263 . S
O90 Tb82 2.427 . S
O90 C86 1.275 . S
O91 Tb82 2.513 . S
O91 C86 1.246 . S
O92 Tb82 2.453 . S
O92 C88 1.245 . S
O93 Tb80 2.343 . S
O93 Tb82 2.596 . S
O93 C88 1.259 . S
O94 Tb82 2.374 . S
O94 C89 1.250 . S
O95 Tb80 2.353 . S
O95 C89 1.263 . S
C96 O97 1.275 . S
C96 O98 1.246 . S
O97 Tb80 2.427 . S
O97 C96 1.275 . S
O98 Tb80 2.513 . S
O98 C96 1.246 . S
C99 O83 1.245 . S
C99 O84 1.259 . S
Tb100 O103 2.453 . S
Tb100 O104 2.596 . S
Tb100 O105 2.374 . S
Tb100 O113 2.343 . S
Tb100 O115 2.353 . S
Tb100 O117 2.427 . S
Tb100 O118 2.513 . S
C101 O105 1.251 . S
C101 O107 1.263 . S
Tb102 O104 2.343 . S
Tb102 O107 2.353 . S
Tb102 O110 2.427 . S
Tb102 O111 2.513 . S
Tb102 O112 2.453 . S
Tb102 O113 2.596 . S
Tb102 O114 2.374 . S
O103 Tb100 2.453 . S
O103 C119 1.245 . S
O104 Tb100 2.596 . S
O104 Tb102 2.343 . S
O104 C119 1.259 . S
O105 Tb100 2.374 . S
O105 C101 1.251 . S
C106 O110 1.275 . S
C106 O111 1.246 . S
O107 C101 1.263 . S
O107 Tb102 2.353 . S
C108 O112 1.245 . S
C108 O113 1.259 . S
C109 O114 1.250 . S
C109 O115 1.263 . S
O110 Tb102 2.427 . S
O110 C106 1.275 . S
O111 Tb102 2.513 . S
O111 C106 1.246 . S
O112 Tb102 2.453 . S
O112 C108 1.245 . S
O113 Tb100 2.343 . S
O113 Tb102 2.596 . S
O113 C108 1.259 . S
O114 Tb102 2.374 . S
O114 C109 1.250 . S
O115 Tb100 2.353 . S
O115 C109 1.263 . S
C116 O117 1.275 . S
C116 O118 1.246 . S
O117 Tb100 2.427 . S
O117 C116 1.275 . S
O118 Tb100 2.513 . S
O118 C116 1.246 . S
C119 O103 1.245 . S
C119 O104 1.259 . S
Tb120 O123 2.453 . S
Tb120 O124 2.596 . S
Tb120 O125 2.374 . S
Tb120 O133 2.343 . S
Tb120 O135 2.353 . S
Tb120 O137 2.427 . S
Tb120 O138 2.513 . S
C121 O125 1.251 . S
C121 O127 1.263 . S
Tb122 O124 2.343 . S
Tb122 O127 2.353 . S
Tb122 O130 2.427 . S
Tb122 O131 2.513 . S
Tb122 O132 2.453 . S
Tb122 O133 2.596 . S
Tb122 O134 2.374 . S
O123 Tb120 2.453 . S
O123 C139 1.245 . S
O124 Tb120 2.596 . S
O124 Tb122 2.343 . S
O124 C139 1.259 . S
O125 Tb120 2.374 . S
O125 C121 1.251 . S
C126 O130 1.275 . S
C126 O131 1.246 . S
O127 C121 1.263 . S
O127 Tb122 2.353 . S
C128 O132 1.245 . S
C128 O133 1.259 . S
C129 O134 1.250 . S
C129 O135 1.263 . S
O130 Tb122 2.427 . S
O130 C126 1.275 . S
O131 Tb122 2.513 . S
O131 C126 1.246 . S
O132 Tb122 2.453 . S
O132 C128 1.245 . S
O133 Tb120 2.343 . S
O133 Tb122 2.596 . S
O133 C128 1.259 . S
O134 Tb122 2.374 . S
O134 C129 1.250 . S
O135 Tb120 2.353 . S
O135 C129 1.263 . S
C136 O137 1.275 . S
C136 O138 1.246 . S
O137 Tb120 2.427 . S
O137 C136 1.275 . S
O138 Tb120 2.513 . S
O138 C136 1.246 . S
C139 O123 1.245 . S
C139 O124 1.259 . S
Tb140 O143 2.453 . S
Tb140 O144 2.596 . S
Tb140 O145 2.374 . S
Tb140 O153 2.343 . S
Tb140 O155 2.353 . S
Tb140 O157 2.427 . S
Tb140 O158 2.513 . S
C141 O145 1.251 . S
C141 O147 1.263 . S
Tb142 O144 2.343 . S
Tb142 O147 2.353 . S
Tb142 O150 2.427 . S
Tb142 O151 2.513 . S
Tb142 O152 2.453 . S
Tb142 O153 2.596 . S
Tb142 O154 2.374 . S
O143 Tb140 2.453 . S
O143 C159 1.245 . S
O144 Tb140 2.596 . S
O144 Tb142 2.343 . S
O144 C159 1.259 . S
O145 Tb140 2.374 . S
O145 C141 1.251 . S
C146 O150 1.275 . S
C146 O151 1.246 . S
O147 C141 1.263 . S
O147 Tb142 2.353 . S
C148 O152 1.245 . S
C148 O153 1.259 . S
C149 O154 1.250 . S
C149 O155 1.263 . S
O150 Tb142 2.427 . S
O150 C146 1.275 . S
O151 Tb142 2.513 . S
O151 C146 1.246 . S
O152 Tb142 2.453 . S
O152 C148 1.245 . S
O153 Tb140 2.343 . S
O153 Tb142 2.596 . S
O153 C148 1.259 . S
O154 Tb142 2.374 . S
O154 C149 1.250 . S
O155 Tb140 2.353 . S
O155 C149 1.263 . S
C156 O157 1.275 . S
C156 O158 1.246 . S
O157 Tb140 2.427 . S
O157 C156 1.275 . S
O158 Tb140 2.513 . S
O158 C156 1.246 . S
C159 O143 1.245 . S
C159 O144 1.259 . S
Tb160 O163 2.453 . S
Tb160 O164 2.596 . S
Tb160 O165 2.374 . S
Tb160 O173 2.343 . S
Tb160 O175 2.353 . S
Tb160 O177 2.427 . S
Tb160 O178 2.513 . S
C161 O165 1.251 . S
C161 O167 1.263 . S
Tb162 O164 2.343 . S
Tb162 O167 2.353 . S
Tb162 O170 2.427 . S
Tb162 O171 2.513 . S
Tb162 O172 2.453 . S
Tb162 O173 2.596 . S
Tb162 O174 2.374 . S
O163 Tb160 2.453 . S
O163 C179 1.245 . S
O164 Tb160 2.596 . S
O164 Tb162 2.343 . S
O164 C179 1.259 . S
O165 Tb160 2.374 . S
O165 C161 1.251 . S
C166 O170 1.275 . S
C166 O171 1.246 . S
O167 C161 1.263 . S
O167 Tb162 2.353 . S
C168 O172 1.245 . S
C168 O173 1.259 . S
C169 O174 1.250 . S
C169 O175 1.263 . S
O170 Tb162 2.427 . S
O170 C166 1.275 . S
O171 Tb162 2.513 . S
O171 C166 1.246 . S
O172 Tb162 2.453 . S
O172 C168 1.245 . S
O173 Tb160 2.343 . S
O173 Tb162 2.596 . S
O173 C168 1.259 . S
O174 Tb162 2.374 . S
O174 C169 1.250 . S
O175 Tb160 2.353 . S
O175 C169 1.263 . S
C176 O177 1.275 . S
C176 O178 1.246 . S
O177 Tb160 2.427 . S
O177 C176 1.275 . S
O178 Tb160 2.513 . S
O178 C176 1.246 . S
C179 O163 1.245 . S
C179 O164 1.259 . S
H180 C186 0.930 1_554 S
H181 C189 0.930 . S
H182 C190 0.930 . S
H183 C191 0.930 . S
H184 C194 0.930 . S
H185 C195 0.930 . S
C186 H180 0.930 1_556 S
C186 C187 1.355 . S
C186 C188 1.415 . S
C187 C186 1.355 . S
C187 C189 1.419 . S
C188 C186 1.415 . S
C188 C193 1.425 . S
C188 C195 1.409 . S
C189 H181 0.930 . S
C189 C187 1.419 . S
C189 C190 1.362 . S
C190 H182 0.930 . S
C190 C189 1.362 . S
C190 C193 1.409 . S
C191 H183 0.930 . S
C191 C192 1.355 . S
C191 C193 1.415 . S
C192 C191 1.355 . S
C192 C194 1.419 . S
C193 C188 1.425 . S
C193 C190 1.409 . S
C193 C191 1.415 . S
C194 H184 0.930 . S
C194 C192 1.419 . S
C194 C195 1.362 . S
C195 H185 0.930 . S
C195 C188 1.409 . S
C195 C194 1.362 . S
H196 C202 0.930 . S
H197 C205 0.930 . S
H198 C206 0.930 . S
H199 C207 0.930 . S
H200 C210 0.930 . S
H201 C211 0.930 . S
C202 H196 0.930 . S
C202 C203 1.355 1_556 S
C202 C204 1.415 . S
C203 C202 1.355 1_554 S
C203 C205 1.419 . S
C204 C202 1.415 . S
C204 C209 1.425 . S
C204 C211 1.409 . S
C205 H197 0.930 . S
C205 C203 1.419 . S
C205 C206 1.362 . S
C206 H198 0.930 . S
C206 C205 1.362 . S
C206 C209 1.409 1_554 S
C207 H199 0.930 . S
C207 C208 1.355 . S
C207 C209 1.415 . S
C208 C207 1.355 . S
C208 C210 1.419 . S
C209 C204 1.425 . S
C209 C206 1.409 1_556 S
C209 C207 1.415 . S
C210 H200 0.930 . S
C210 C208 1.419 . S
C210 C211 1.362 . S
C211 H201 0.930 . S
C211 C204 1.409 . S
C211 C210 1.362 . S
H212 C218 0.930 . S
H213 C221 0.930 . S
H214 C222 0.930 . S
H215 C223 0.930 . S
H216 C226 0.930 . S
H217 C227 0.930 . S
C218 H212 0.930 . S
C218 C219 1.355 . S
C218 C220 1.415 . S
C219 C218 1.355 . S
C219 C221 1.419 . S
C220 C218 1.415 . S
C220 C225 1.425 . S
C220 C227 1.409 . S
C221 H213 0.930 . S
C221 C219 1.419 . S
C221 C222 1.362 . S
C222 H214 0.930 . S
C222 C221 1.362 . S
C222 C225 1.409 . S
C223 H215 0.930 . S
C223 C224 1.355 . S
C223 C225 1.415 . S
C224 C223 1.355 . S
C224 C226 1.419 . S
C225 C220 1.425 . S
C225 C222 1.409 . S
C225 C223 1.415 . S
C226 H216 0.930 . S
C226 C224 1.419 . S
C226 C227 1.362 . S
C227 H217 0.930 . S
C227 C220 1.409 . S
C227 C226 1.362 . S
H228 C234 0.930 . S
H229 C237 0.930 . S
H230 C238 0.930 1_556 S
H231 C239 0.930 1_556 S
H232 C242 0.930 . S
H233 C243 0.930 . S
C234 H228 0.930 . S
C234 C235 1.355 . S
C234 C236 1.415 . S
C235 C234 1.355 . S
C235 C237 1.419 . S
C236 C234 1.415 . S
C236 C241 1.425 . S
C236 C243 1.409 . S
C237 H229 0.930 . S
C237 C235 1.419 . S
C237 C238 1.362 . S
C238 H230 0.930 1_554 S
C238 C237 1.362 . S
C238 C241 1.409 . S
C239 H231 0.930 1_554 S
C239 C240 1.355 . S
C239 C241 1.415 . S
C240 C239 1.355 . S
C240 C242 1.419 . S
C241 C236 1.425 . S
C241 C238 1.409 . S
C241 C239 1.415 . S
C242 H232 0.930 . S
C242 C240 1.419 . S
C242 C243 1.362 . S
C243 H233 0.930 . S
C243 C236 1.409 . S
C243 C242 1.362 . S
H244 C250 0.930 . S
H245 C253 0.930 . S
H246 C254 0.930 . S
H247 C255 0.930 . S
H248 C258 0.930 1_556 S
H249 C259 0.930 . S
C250 H244 0.930 . S
C250 C251 1.355 . S
C250 C252 1.415 . S
C251 C250 1.355 . S
C251 C253 1.419 . S
C252 C250 1.415 . S
C252 C257 1.425 . S
C252 C259 1.409 . S
C253 H245 0.930 . S
C253 C251 1.419 . S
C253 C254 1.362 . S
C254 H246 0.930 . S
C254 C253 1.362 . S
C254 C257 1.409 . S
C255 H247 0.930 . S
C255 C256 1.355 . S
C255 C257 1.415 . S
C256 C255 1.355 . S
C256 C258 1.419 . S
C257 C252 1.425 . S
C257 C254 1.409 . S
C257 C255 1.415 . S
C258 H248 0.930 1_554 S
C258 C256 1.419 . S
C258 C259 1.362 . S
C259 H249 0.930 . S
C259 C252 1.409 . S
C259 C258 1.362 . S
H260 C266 0.930 . S
H261 C269 0.930 . S
H262 C270 0.930 . S
H263 C271 0.930 . S
H264 C274 0.930 . S
H265 C275 0.930 . S
C266 H260 0.930 . S
C266 C267 1.355 . S
C266 C268 1.415 . S
C267 C266 1.355 . S
C267 C269 1.419 . S
C268 C266 1.415 . S
C268 C273 1.425 . S
C268 C275 1.409 . S
C269 H261 0.930 . S
C269 C267 1.419 . S
C269 C270 1.362 . S
C270 H262 0.930 . S
C270 C269 1.362 . S
C270 C273 1.409 . S
C271 H263 0.930 . S
C271 C272 1.355 . S
C271 C273 1.415 . S
C272 C271 1.355 . S
C272 C274 1.419 . S
C273 C268 1.425 . S
C273 C270 1.409 . S
C273 C271 1.415 . S
C274 H264 0.930 . S
C274 C272 1.419 . S
C274 C275 1.362 . S
C275 H265 0.930 . S
C275 C268 1.409 . S
C275 C274 1.362 . S
H276 C282 0.936 . S
H277 C285 0.930 . S
H278 C286 0.930 . S
H279 C287 0.930 . S
H280 C290 0.930 . S
H281 C291 0.930 . S
C282 H276 0.936 . S
C282 C283 1.355 1_655 S
C282 C284 1.415 . S
C283 C282 1.355 1_455 S
C283 C285 1.419 . S
C284 C282 1.415 . S
C284 C289 1.425 . S
C284 C291 1.409 . S
C285 H277 0.930 . S
C285 C283 1.419 . S
C285 C286 1.362 1_455 S
C286 H278 0.930 . S
C286 C285 1.362 1_655 S
C286 C289 1.409 . S
C287 H279 0.930 . S
C287 C288 1.355 . S
C287 C289 1.415 . S
C288 C287 1.355 . S
C288 C290 1.419 . S
C289 C284 1.425 . S
C289 C286 1.409 . S
C289 C287 1.415 . S
C290 H280 0.930 . S
C290 C288 1.419 . S
C290 C291 1.362 . S
C291 H281 0.930 . S
C291 C284 1.409 . S
C291 C290 1.362 . S
H292 C298 0.930 . S
H293 C301 0.930 . S
H294 C302 0.930 . S
H295 C303 0.930 . S
H296 C306 0.930 . S
H297 C307 0.930 . S
C298 H292 0.930 . S
C298 C299 1.355 . S
C298 C300 1.415 . S
C299 C298 1.355 . S
C299 C301 1.419 . S
C300 C298 1.415 . S
C300 C305 1.425 . S
C300 C307 1.409 . S
C301 H293 0.930 . S
C301 C299 1.419 . S
C301 C302 1.362 . S
C302 H294 0.930 . S
C302 C301 1.362 . S
C302 C305 1.409 . S
C303 H295 0.930 . S
C303 C304 1.355 . S
C303 C305 1.415 . S
C304 C303 1.355 . S
C304 C306 1.419 . S
C305 C300 1.425 . S
C305 C302 1.409 . S
C305 C303 1.415 . S
C306 H296 0.930 . S
C306 C304 1.419 . S
C306 C307 1.362 . S
C307 H297 0.930 . S
C307 C300 1.409 . S
C307 C306 1.362 . S
H308 C314 0.930 . S
H309 C317 0.930 . S
H310 C318 0.930 1_565 S
H311 C319 0.930 . S
H312 C322 0.930 . S
H313 C323 0.930 1_545 S
C314 H308 0.930 . S
C314 C315 1.355 . S
C314 C316 1.415 . S
C315 C314 1.355 . S
C315 C317 1.419 . S
C316 C314 1.415 . S
C316 C321 1.425 1_545 S
C316 C323 1.409 1_545 S
C317 H309 0.930 . S
C317 C315 1.419 . S
C317 C318 1.362 . S
C318 H310 0.930 1_545 S
C318 C317 1.362 . S
C318 C321 1.409 1_545 S
C319 H311 0.930 . S
C319 C320 1.355 . S
C319 C321 1.415 . S
C320 C319 1.355 . S
C320 C322 1.419 . S
C321 C316 1.425 1_565 S
C321 C318 1.409 1_565 S
C321 C319 1.415 . S
C322 H312 0.930 . S
C322 C320 1.419 . S
C322 C323 1.362 . S
C323 H313 0.930 1_565 S
C323 C316 1.409 1_565 S
C323 C322 1.362 . S
H324 C330 0.930 . S
H325 C333 0.930 . S
H326 C334 0.930 . S
H327 C335 0.937 . S
H328 C338 0.930 . S
H329 C339 0.930 . S
C330 H324 0.930 . S
C330 C331 1.355 . S
C330 C332 1.415 . S
C331 C330 1.355 . S
C331 C333 1.419 1_554 S
C332 C330 1.415 . S
C332 C337 1.425 . S
C332 C339 1.409 . S
C333 H325 0.930 . S
C333 C331 1.419 1_556 S
C333 C334 1.362 . S
C334 H326 0.930 . S
C334 C333 1.362 . S
C334 C337 1.409 1_556 S
C335 H327 0.937 . S
C335 C336 1.348 1_556 S
C335 C337 1.414 1_556 S
C336 C335 1.348 1_554 S
C336 C338 1.419 . S
C337 C332 1.425 . S
C337 C334 1.409 1_554 S
C337 C335 1.414 1_554 S
C338 H328 0.930 . S
C338 C336 1.419 . S
C338 C339 1.362 . S
C339 H329 0.930 . S
C339 C332 1.409 . S
C339 C338 1.362 . S
H340 C346 0.930 . S
H341 C349 0.930 . S
H342 C350 0.930 . S
H343 C351 0.930 1_556 S
H344 C354 0.930 . S
H345 C355 0.930 . S
C346 H340 0.930 . S
C346 C347 1.355 . S
C346 C348 1.415 1_565 S
C347 C346 1.355 . S
C347 C349 1.419 1_554 S
C348 C346 1.415 1_545 S
C348 C353 1.425 . S
C348 C355 1.409 . S
C349 H341 0.930 . S
C349 C347 1.419 1_556 S
C349 C350 1.362 1_565 S
C350 H342 0.930 . S
C350 C349 1.362 1_545 S
C350 C353 1.409 1_556 S
C351 H343 0.930 1_554 S
C351 C352 1.355 . S
C351 C353 1.415 . S
C352 C351 1.355 . S
C352 C354 1.419 . S
C353 C348 1.425 . S
C353 C350 1.409 1_554 S
C353 C351 1.415 . S
C354 H344 0.930 . S
C354 C352 1.419 . S
C354 C355 1.362 . S
C355 H345 0.930 . S
C355 C348 1.409 . S
C355 C354 1.362 . S
H356 C362 0.930 . S
H357 C365 0.930 . S
H358 C366 0.930 . S
H359 C367 0.930 1_556 S
H360 C370 0.930 . S
H361 C371 0.930 . S
C362 H356 0.930 . S
C362 C363 1.355 . S
C362 C364 1.415 1_655 S
C363 C362 1.355 . S
C363 C365 1.419 . S
C364 C362 1.415 1_455 S
C364 C369 1.425 . S
C364 C371 1.409 . S
C365 H357 0.930 . S
C365 C363 1.419 . S
C365 C366 1.362 1_655 S
C366 H358 0.930 . S
C366 C365 1.362 1_455 S
C366 C369 1.409 . S
C367 H359 0.930 1_554 S
C367 C368 1.355 1_554 S
C367 C369 1.415 . S
C368 C367 1.355 1_556 S
C368 C370 1.419 1_556 S
C369 C364 1.425 . S
C369 C366 1.409 . S
C369 C367 1.415 . S
C370 H360 0.930 . S
C370 C368 1.419 1_554 S
C370 C371 1.362 . S
C371 H361 0.930 . S
C371 C364 1.409 . S
C371 C370 1.362 . S
H372 C378 0.930 . S
H373 C381 0.930 . S
H374 C382 0.930 . S
H375 C383 0.930 . S
H376 C386 0.930 . S
H377 C387 0.930 . S
C378 H372 0.930 . S
C378 C379 1.355 . S
C378 C380 1.415 . S
C379 C378 1.355 . S
C379 C381 1.419 . S
C380 C378 1.415 . S
C380 C385 1.425 . S
C380 C387 1.409 . S
C381 H373 0.930 . S
C381 C379 1.419 . S
C381 C382 1.362 . S
C382 H374 0.930 . S
C382 C381 1.362 . S
C382 C385 1.409 . S
C383 H375 0.930 . S
C383 C384 1.355 . S
C383 C385 1.415 . S
C384 C383 1.355 . S
C384 C386 1.419 . S
C385 C380 1.425 . S
C385 C382 1.409 . S
C385 C383 1.415 . S
C386 H376 0.930 . S
C386 C384 1.419 . S
C386 C387 1.362 . S
C387 H377 0.930 . S
C387 C380 1.409 . S
C387 C386 1.362 . S
H388 C394 0.930 . S
H389 C397 0.930 . S
H390 C398 0.930 . S
H391 C399 0.930 . S
H392 C402 0.930 . S
H393 C403 0.930 . S
C394 H388 0.930 . S
C394 C395 1.355 . S
C394 C396 1.415 . S
C395 C394 1.355 . S
C395 C397 1.419 . S
C396 C394 1.415 . S
C396 C401 1.425 . S
C396 C403 1.409 . S
C397 H389 0.930 . S
C397 C395 1.419 . S
C397 C398 1.362 . S
C398 H390 0.930 . S
C398 C397 1.362 . S
C398 C401 1.409 . S
C399 H391 0.930 . S
C399 C400 1.355 . S
C399 C401 1.415 . S
C400 C399 1.355 . S
C400 C402 1.419 . S
C401 C396 1.425 . S
C401 C398 1.409 . S
C401 C399 1.415 . S
C402 H392 0.930 . S
C402 C400 1.419 . S
C402 C403 1.362 . S
C403 H393 0.930 . S
C403 C396 1.409 . S
C403 C402 1.362 . S
H404 C410 0.930 . S
H405 C413 0.930 . S
H406 C414 0.930 . S
H407 C415 0.930 . S
H408 C418 0.930 . S
H409 C419 0.930 . S
C410 H404 0.930 . S
C410 C411 1.355 . S
C410 C412 1.415 . S
C411 C410 1.355 . S
C411 C413 1.419 . S
C412 C410 1.415 . S
C412 C417 1.425 . S
C412 C419 1.409 . S
C413 H405 0.930 . S
C413 C411 1.419 . S
C413 C414 1.362 . S
C414 H406 0.930 . S
C414 C413 1.362 . S
C414 C417 1.409 . S
C415 H407 0.930 . S
C415 C416 1.355 . S
C415 C417 1.415 . S
C416 C415 1.355 . S
C416 C418 1.419 . S
C417 C412 1.425 . S
C417 C414 1.409 . S
C417 C415 1.415 . S
C418 H408 0.930 . S
C418 C416 1.419 . S
C418 C419 1.362 . S
C419 H409 0.930 . S
C419 C412 1.409 . S
C419 C418 1.362 . S
H420 C426 0.930 . S
H421 C429 0.930 . S
H422 C430 0.930 . S
H423 C431 0.930 . S
H424 C434 0.930 . S
H425 C435 0.930 . S
C426 H420 0.930 . S
C426 C427 1.355 . S
C426 C428 1.415 . S
C427 C426 1.355 . S
C427 C429 1.419 . S
C428 C426 1.415 . S
C428 C433 1.425 . S
C428 C435 1.409 . S
C429 H421 0.930 . S
C429 C427 1.419 . S
C429 C430 1.362 . S
C430 H422 0.930 . S
C430 C429 1.362 . S
C430 C433 1.409 . S
C431 H423 0.930 . S
C431 C432 1.355 . S
C431 C433 1.415 . S
C432 C431 1.355 . S
C432 C434 1.419 . S
C433 C428 1.425 . S
C433 C430 1.409 . S
C433 C431 1.415 . S
C434 H424 0.930 . S
C434 C432 1.419 . S
C434 C435 1.362 . S
C435 H425 0.930 . S
C435 C428 1.409 . S
C435 C434 1.362 . S
H436 C442 0.930 . S
H437 C445 0.930 . S
H438 C446 0.930 . S
H439 C447 0.930 . S
H440 C450 0.930 . S
H441 C451 0.930 . S
C442 H436 0.930 . S
C442 C443 1.355 . S
C442 C444 1.415 . S
C443 C442 1.355 . S
C443 C445 1.419 . S
C444 C442 1.415 . S
C444 C449 1.425 . S
C444 C451 1.409 . S
C445 H437 0.930 . S
C445 C443 1.419 . S
C445 C446 1.362 . S
C446 H438 0.930 . S
C446 C445 1.362 . S
C446 C449 1.409 . S
C447 H439 0.930 . S
C447 C448 1.355 . S
C447 C449 1.415 . S
C448 C447 1.355 . S
C448 C450 1.419 . S
C449 C444 1.425 . S
C449 C446 1.409 . S
C449 C447 1.415 . S
C450 H440 0.930 . S
C450 C448 1.419 . S
C450 C451 1.362 . S
C451 H441 0.930 . S
C451 C444 1.409 . S
C451 C450 1.362 . S
H452 C458 0.930 . S
H453 C461 0.930 . S
H454 C462 0.930 . S
H455 C463 0.930 . S
H456 C466 0.930 . S
H457 C467 0.930 . S
C458 H452 0.930 . S
C458 C459 1.355 . S
C458 C460 1.415 . S
C459 C458 1.355 . S
C459 C461 1.419 . S
C460 C458 1.415 . S
C460 C465 1.425 . S
C460 C467 1.409 . S
C461 H453 0.930 . S
C461 C459 1.419 . S
C461 C462 1.362 . S
C462 H454 0.930 . S
C462 C461 1.362 . S
C462 C465 1.409 . S
C463 H455 0.930 . S
C463 C464 1.355 . S
C463 C465 1.415 . S
C464 C463 1.355 . S
C464 C466 1.419 . S
C465 C460 1.425 . S
C465 C462 1.409 . S
C465 C463 1.415 . S
C466 H456 0.930 . S
C466 C464 1.419 . S
C466 C467 1.362 . S
C467 H457 0.930 . S
C467 C460 1.409 . S
C467 C466 1.362 . S
H468 C474 0.930 . S
H469 C477 0.930 . S
H470 C478 0.930 . S
H471 C479 0.930 . S
H472 C482 0.930 . S
H473 C483 0.930 . S
C474 H468 0.930 . S
C474 C475 1.355 1_655 S
C474 C476 1.415 1_655 S
C475 C474 1.355 1_455 S
C475 C477 1.419 . S
C476 C474 1.415 1_455 S
C476 C481 1.425 . S
C476 C483 1.409 1_455 S
C477 H469 0.930 . S
C477 C475 1.419 . S
C477 C478 1.362 . S
C478 H470 0.930 . S
C478 C477 1.362 . S
C478 C481 1.409 . S
C479 H471 0.930 . S
C479 C480 1.355 . S
C479 C481 1.415 . S
C480 C479 1.355 . S
C480 C482 1.419 1_455 S
C481 C476 1.425 . S
C481 C478 1.409 . S
C481 C479 1.415 . S
C482 H472 0.930 . S
C482 C480 1.419 1_655 S
C482 C483 1.362 . S
C483 H473 0.930 . S
C483 C476 1.409 1_655 S
C483 C482 1.362 . S
H484 C490 0.930 . S
H485 C493 0.930 . S
H486 C494 0.930 . S
H487 C495 0.930 . S
H488 C498 0.930 . S
H489 C499 0.930 . S
C490 H484 0.930 . S
C490 C491 1.355 . S
C490 C492 1.415 . S
C491 C490 1.355 . S
C491 C493 1.419 . S
C492 C490 1.415 . S
C492 C497 1.425 . S
C492 C499 1.409 . S
C493 H485 0.930 . S
C493 C491 1.419 . S
C493 C494 1.362 . S
C494 H486 0.930 . S
C494 C493 1.362 . S
C494 C497 1.409 . S
C495 H487 0.930 . S
C495 C496 1.355 . S
C495 C497 1.415 . S
C496 C495 1.355 . S
C496 C498 1.419 . S
C497 C492 1.425 . S
C497 C494 1.409 . S
C497 C495 1.415 . S
C498 H488 0.930 . S
C498 C496 1.419 . S
C498 C499 1.362 . S
C499 H489 0.930 . S
C499 C492 1.409 . S
C499 C498 1.362 . S
H500 C506 0.930 . S
H501 C509 0.930 . S
H502 C510 0.930 . S
H503 C511 0.930 . S
H504 C514 0.930 . S
H505 C515 0.930 . S
C506 H500 0.930 . S
C506 C507 1.355 . S
C506 C508 1.415 . S
C507 C506 1.355 . S
C507 C509 1.419 1_545 S
C508 C506 1.415 . S
C508 C513 1.425 1_545 S
C508 C515 1.409 . S
C509 H501 0.930 . S
C509 C507 1.419 1_565 S
C509 C510 1.362 . S
C510 H502 0.930 . S
C510 C509 1.362 . S
C510 C513 1.409 . S
C511 H503 0.930 . S
C511 C512 1.355 1_565 S
C511 C513 1.415 . S
C512 C511 1.355 1_545 S
C512 C514 1.419 . S
C513 C508 1.425 1_565 S
C513 C510 1.409 . S
C513 C511 1.415 . S
C514 H504 0.930 . S
C514 C512 1.419 . S
C514 C515 1.362 . S
C515 H505 0.930 . S
C515 C508 1.409 . S
C515 C514 1.362 . S
H516 C522 0.930 . S
H517 C525 0.930 . S
H518 C526 0.930 . S
H519 C527 0.930 . S
H520 C530 0.930 1_554 S
H521 C531 0.930 . S
C522 H516 0.930 . S
C522 C523 1.355 . S
C522 C524 1.415 . S
C523 C522 1.355 . S
C523 C525 1.419 . S
C524 C522 1.415 . S
C524 C529 1.425 . S
C524 C531 1.409 . S
C525 H517 0.930 . S
C525 C523 1.419 . S
C525 C526 1.362 . S
C526 H518 0.930 . S
C526 C525 1.362 . S
C526 C529 1.409 . S
C527 H519 0.930 . S
C527 C528 1.355 1_556 S
C527 C529 1.415 . S
C528 C527 1.355 1_554 S
C528 C530 1.419 1_554 S
C529 C524 1.425 . S
C529 C526 1.409 . S
C529 C527 1.415 . S
C530 H520 0.930 1_556 S
C530 C528 1.419 1_556 S
C530 C531 1.362 . S
C531 H521 0.930 . S
C531 C524 1.409 . S
C531 C530 1.362 . S
H532 C538 0.930 . S
H533 C541 0.930 . S
H534 C542 0.930 . S
H535 C543 0.930 . S
H536 C546 0.930 . S
H537 C547 0.930 . S
C538 H532 0.930 . S
C538 C539 1.355 . S
C538 C540 1.415 . S
C539 C538 1.355 . S
C539 C541 1.419 . S
C540 C538 1.415 . S
C540 C545 1.425 . S
C540 C547 1.409 . S
C541 H533 0.930 . S
C541 C539 1.419 . S
C541 C542 1.362 . S
C542 H534 0.930 . S
C542 C541 1.362 . S
C542 C545 1.409 . S
C543 H535 0.930 . S
C543 C544 1.355 . S
C543 C545 1.415 . S
C544 C543 1.355 . S
C544 C546 1.419 . S
C545 C540 1.425 . S
C545 C542 1.409 . S
C545 C543 1.415 . S
C546 H536 0.930 . S
C546 C544 1.419 . S
C546 C547 1.362 . S
C547 H537 0.930 . S
C547 C540 1.409 . S
C547 C546 1.362 . S
H548 C554 0.930 . S
H549 C557 0.930 . S
H550 C558 0.930 . S
H551 C559 0.930 . S
H552 C562 0.930 1_554 S
H553 C563 0.930 . S
C554 H548 0.930 . S
C554 C555 1.355 . S
C554 C556 1.415 . S
C555 C554 1.355 . S
C555 C557 1.419 . S
C556 C554 1.415 . S
C556 C561 1.425 . S
C556 C563 1.409 . S
C557 H549 0.930 . S
C557 C555 1.419 . S
C557 C558 1.362 . S
C558 H550 0.930 . S
C558 C557 1.362 . S
C558 C561 1.409 . S
C559 H551 0.930 . S
C559 C560 1.355 1_556 S
C559 C561 1.415 . S
C560 C559 1.355 1_554 S
C560 C562 1.419 1_554 S
C561 C556 1.425 . S
C561 C558 1.409 . S
C561 C559 1.415 . S
C562 H552 0.930 1_556 S
C562 C560 1.419 1_556 S
C562 C563 1.362 . S
C563 H553 0.930 . S
C563 C556 1.409 . S
C563 C562 1.362 . S
H564 C570 0.930 . S
H565 C573 0.930 . S
H566 C574 0.930 . S
H567 C575 0.930 . S
H568 C578 0.930 . S
H569 C579 0.930 . S
C570 H564 0.930 . S
C570 C571 1.355 . S
C570 C572 1.415 . S
C571 C570 1.355 . S
C571 C573 1.419 . S
C572 C570 1.415 . S
C572 C577 1.425 . S
C572 C579 1.409 . S
C573 H565 0.930 . S
C573 C571 1.419 . S
C573 C574 1.362 . S
C574 H566 0.930 . S
C574 C573 1.362 . S
C574 C577 1.409 . S
C575 H567 0.930 . S
C575 C576 1.355 1_554 S
C575 C577 1.415 . S
C576 C575 1.355 1_556 S
C576 C578 1.419 . S
C577 C572 1.425 . S
C577 C574 1.409 . S
C577 C575 1.415 . S
C578 H568 0.930 . S
C578 C576 1.419 . S
C578 C579 1.362 1_556 S
C579 H569 0.930 . S
C579 C572 1.409 . S
C579 C578 1.362 1_554 S
H580 C586 0.930 . S
H581 C589 0.930 . S
H582 C590 0.930 . S
H583 C591 0.930 . S
H584 C594 0.930 . S
H585 C595 0.930 . S
C586 H580 0.930 . S
C586 C587 1.355 . S
C586 C588 1.415 . S
C587 C586 1.355 . S
C587 C589 1.419 . S
C588 C586 1.415 . S
C588 C593 1.425 . S
C588 C595 1.409 . S
C589 H581 0.930 . S
C589 C587 1.419 . S
C589 C590 1.362 . S
C590 H582 0.930 . S
C590 C589 1.362 . S
C590 C593 1.409 . S
C591 H583 0.930 . S
C591 C592 1.355 . S
C591 C593 1.415 . S
C592 C591 1.355 . S
C592 C594 1.419 . S
C593 C588 1.425 . S
C593 C590 1.409 . S
C593 C591 1.415 . S
C594 H584 0.930 . S
C594 C592 1.419 . S
C594 C595 1.362 . S
C595 H585 0.930 . S
C595 C588 1.409 . S
C595 C594 1.362 . S
H596 C602 0.930 . S
H597 C605 0.930 . S
H598 C606 0.930 . S
H599 C607 0.930 . S
H600 C610 0.930 1_556 S
H601 C611 0.930 . S
C602 H596 0.930 . S
C602 C603 1.355 . S
C602 C604 1.415 . S
C603 C602 1.355 . S
C603 C605 1.419 . S
C604 C602 1.415 . S
C604 C609 1.425 . S
C604 C611 1.409 . S
C605 H597 0.930 . S
C605 C603 1.419 . S
C605 C606 1.362 . S
C606 H598 0.930 . S
C606 C605 1.362 . S
C606 C609 1.409 . S
C607 H599 0.930 . S
C607 C608 1.355 . S
C607 C609 1.415 . S
C608 C607 1.355 . S
C608 C610 1.419 . S
C609 C604 1.425 . S
C609 C606 1.409 . S
C609 C607 1.415 . S
C610 H600 0.930 1_554 S
C610 C608 1.419 . S
C610 C611 1.362 . S
C611 H601 0.930 . S
C611 C604 1.409 . S
C611 C610 1.362 . S
C187 C8 2.152 1_556 S
C192 C148 2.039 . S
C203 C36 1.624 . S
C208 C176 1.589 . S
C219 C48 1.892 . S
C224 C136 1.826 . S
C235 C96 1.252 . S
C240 C56 1.247 . S
C251 C116 1.518 . S
C256 C16 1.451 . S
C267 C28 1.792 . S
C272 C76 1.615 . S
C283 C156 1.960 . S
C288 C108 2.109 . S
C299 C168 2.233 . S
C304 C68 2.194 . S
C315 C88 2.483 . S
C320 C128 2.385 . S
C331 C59 1.576 . S
C336 C6 1.565 . S
C347 C39 1.702 . S
C352 C19 1.698 . S
C363 C26 1.319 . S
C368 C46 1.299 . S
C379 C79 1.584 . S
C384 C106 1.620 . S
C395 C66 1.630 . S
C400 C99 1.573 . S
C411 C86 1.685 . S
C416 C119 1.612 . S
C427 C179 1.637 . S
C432 C126 1.708 . S
C443 C159 1.991 . S
C448 C139 1.981 . S
C459 C166 1.525 . S
C464 C146 1.471 . S
C475 C9 1.142 . S
C480 C1 1.142 . S
C491 C21 1.094 . S
C496 C29 1.094 . S
C507 C49 1.098 . S
C512 C41 1.098 . S
C523 C69 1.105 . S
C528 C61 1.105 . S
C539 C89 1.119 . S
C544 C81 1.119 1_556 S
C555 C109 1.106 . S
C560 C101 1.106 . S
C571 C129 1.143 . S
C576 C121 1.143 . S
C587 C149 1.127 1_554 S
C592 C141 1.127 . S
C603 C169 1.103 . S
C608 C161 1.103 1_554 S
