# Generated by pormake.
# Topology wjd, (6)-cn, num edge types: 1
# Building blocks:
#     Node 0, Type 0, BuildingBlock: KUMJIN_clean_sbu_1, # of connection points: 6
#     Node 1, Type 0, BuildingBlock: KUMJIN_clean_sbu_1, # of connection points: 6
#     Node 2, Type 0, BuildingBlock: KUMJIN_clean_sbu_1, # of connection points: 6
#     Node 3, Type 0, BuildingBlock: KUMJIN_clean_sbu_1, # of connection points: 6
#     Node 4, Type 0, BuildingBlock: KUMJIN_clean_sbu_1, # of connection points: 6
#     Node 5, Type 0, BuildingBlock: KUMJIN_clean_sbu_1, # of connection points: 6
#     Node 6, Type 0, BuildingBlock: KUMJIN_clean_sbu_1, # of connection points: 6
#     Node 7, Type 0, BuildingBlock: KUMJIN_clean_sbu_1, # of connection points: 6
#     Node 8, Type 0, BuildingBlock: KUMJIN_clean_sbu_1, # of connection points: 6
#     Node 9, Type 0, BuildingBlock: KUMJIN_clean_sbu_1, # of connection points: 6
#     Node 10, Type 0, BuildingBlock: KUMJIN_clean_sbu_1, # of connection points: 6
#     Node 11, Type 0, BuildingBlock: KUMJIN_clean_sbu_1, # of connection points: 6
#     Edge 12, Type (0, 0), BuildingBlock: MIFKUJ_clean_linker_0, # of connection points: 2
#     Edge 13, Type (0, 0), BuildingBlock: MIFKUJ_clean_linker_0, # of connection points: 2
#     Edge 14, Type (0, 0), BuildingBlock: MIFKUJ_clean_linker_0, # of connection points: 2
#     Edge 15, Type (0, 0), BuildingBlock: MIFKUJ_clean_linker_0, # of connection points: 2
#     Edge 16, Type (0, 0), BuildingBlock: MIFKUJ_clean_linker_0, # of connection points: 2
#     Edge 17, Type (0, 0), BuildingBlock: MIFKUJ_clean_linker_0, # of connection points: 2
#     Edge 18, Type (0, 0), BuildingBlock: MIFKUJ_clean_linker_0, # of connection points: 2
#     Edge 19, Type (0, 0), BuildingBlock: MIFKUJ_clean_linker_0, # of connection points: 2
#     Edge 20, Type (0, 0), BuildingBlock: MIFKUJ_clean_linker_0, # of connection points: 2
#     Edge 21, Type (0, 0), BuildingBlock: MIFKUJ_clean_linker_0, # of connection points: 2
#     Edge 22, Type (0, 0), BuildingBlock: MIFKUJ_clean_linker_0, # of connection points: 2
#     Edge 23, Type (0, 0), BuildingBlock: MIFKUJ_clean_linker_0, # of connection points: 2
#     Edge 24, Type (0, 0), BuildingBlock: MIFKUJ_clean_linker_0, # of connection points: 2
#     Edge 25, Type (0, 0), BuildingBlock: MIFKUJ_clean_linker_0, # of connection points: 2
#     Edge 26, Type (0, 0), BuildingBlock: MIFKUJ_clean_linker_0, # of connection points: 2
#     Edge 27, Type (0, 0), BuildingBlock: MIFKUJ_clean_linker_0, # of connection points: 2
#     Edge 28, Type (0, 0), BuildingBlock: MIFKUJ_clean_linker_0, # of connection points: 2
#     Edge 29, Type (0, 0), BuildingBlock: MIFKUJ_clean_linker_0, # of connection points: 2
#     Edge 30, Type (0, 0), BuildingBlock: MIFKUJ_clean_linker_0, # of connection points: 2
#     Edge 31, Type (0, 0), BuildingBlock: MIFKUJ_clean_linker_0, # of connection points: 2
#     Edge 32, Type (0, 0), BuildingBlock: MIFKUJ_clean_linker_0, # of connection points: 2
#     Edge 33, Type (0, 0), BuildingBlock: MIFKUJ_clean_linker_0, # of connection points: 2
#     Edge 34, Type (0, 0), BuildingBlock: MIFKUJ_clean_linker_0, # of connection points: 2
#     Edge 35, Type (0, 0), BuildingBlock: MIFKUJ_clean_linker_0, # of connection points: 2
#     Edge 36, Type (0, 0), BuildingBlock: MIFKUJ_clean_linker_0, # of connection points: 2
#     Edge 37, Type (0, 0), BuildingBlock: MIFKUJ_clean_linker_0, # of connection points: 2
#     Edge 38, Type (0, 0), BuildingBlock: MIFKUJ_clean_linker_0, # of connection points: 2
#     Edge 39, Type (0, 0), BuildingBlock: MIFKUJ_clean_linker_0, # of connection points: 2
#     Edge 40, Type (0, 0), BuildingBlock: MIFKUJ_clean_linker_0, # of connection points: 2
#     Edge 41, Type (0, 0), BuildingBlock: MIFKUJ_clean_linker_0, # of connection points: 2
#     Edge 42, Type (0, 0), BuildingBlock: MIFKUJ_clean_linker_0, # of connection points: 2
#     Edge 43, Type (0, 0), BuildingBlock: MIFKUJ_clean_linker_0, # of connection points: 2
#     Edge 44, Type (0, 0), BuildingBlock: MIFKUJ_clean_linker_0, # of connection points: 2
#     Edge 45, Type (0, 0), BuildingBlock: MIFKUJ_clean_linker_0, # of connection points: 2
#     Edge 46, Type (0, 0), BuildingBlock: MIFKUJ_clean_linker_0, # of connection points: 2
#     Edge 47, Type (0, 0), BuildingBlock: MIFKUJ_clean_linker_0, # of connection points: 2
# Relax obj value: 0.073
# Max RMSD: 0.179
# Mean RMSD: 0.179
data_MOF--net-wjd--node1-KUMJIN_clean_sbu_1--edge1-MIFKUJ_clean_linker_0
_symmetry_space_group_name_H-M    P1
_symmetry_Int_Tables_number       1
_symmetry_cell_setting            triclinic
loop_
_symmetry_equiv_pos_as_xyz
'x, y, z'
_cell_length_a     48.631916
_cell_length_b     48.592742
_cell_length_c     69.369794
_cell_angle_alpha  89.8933
_cell_angle_beta   89.875131
_cell_angle_gamma 120.062
loop_
_atom_site_label
_atom_site_type_symbol
_atom_site_fract_x
_atom_site_fract_y
_atom_site_fract_z
_atom_type_partial_charge
Eu0 Eu 0.30836 0.0987 0.14297 0.0
C1 C 0.32223 0.21627 0.0962 0.0
N2 N 0.33276 0.19553 0.09257 0.0
C3 C 0.31784 0.19286 0.05934 0.0
C4 C 0.30816 0.22526 0.08153 0.0
C5 C 0.332 0.18497 0.07421 0.0
C6 C 0.30552 0.21277 0.06305 0.0
C7 C 0.31786 0.25278 0.11823 0.0
C8 C 0.32716 0.2301 0.11432 0.0
C9 C 0.30301 0.26095 0.10382 0.0
C10 C 0.29819 0.24725 0.08552 0.0
Eu11 Eu 0.35841 0.18599 0.11874 0.0
N12 N 0.34158 0.22182 0.12808 0.0
C13 C 0.3242 0.26696 0.13646 0.0
C14 C 0.34914 0.23664 0.14556 0.0
C15 C 0.34012 0.25901 0.15012 0.0
H16 H 0.34336 0.1715 0.07058 0.0
H17 H 0.34576 0.27037 0.1641 0.0
H18 H 0.33036 0.11372 0.18906 0.0
H19 H 0.32672 0.02446 0.09094 0.0
H20 H 0.36234 0.23142 0.15598 0.0
H21 H 0.31743 0.28447 0.13999 0.0
H22 H 0.30193 0.05402 0.10371 0.0
H23 H 0.31713 0.18417 0.04488 0.0
H24 H 0.29564 0.27825 0.10658 0.0
H25 H 0.28731 0.25433 0.07442 0.0
H26 H 0.3664 0.10765 0.21147 0.0
H27 H 0.29503 0.21924 0.05139 0.0
H28 H 0.36425 0.01687 0.11117 0.0
N29 N 0.33924 0.09071 0.16592 0.0
C30 C 0.35258 0.07327 0.16022 0.0
C31 C 0.36254 0.09771 0.19716 0.0
C32 C 0.3723 0.0681 0.17279 0.0
C33 C 0.34277 0.10177 0.18431 0.0
C34 C 0.37739 0.08082 0.19139 0.0
N35 N 0.32806 0.06689 0.12976 0.0
C36 C 0.31969 0.05275 0.11214 0.0
C37 C 0.36081 0.04328 0.13524 0.0
C38 C 0.34705 0.06126 0.14159 0.0
C39 C 0.35403 0.03067 0.11661 0.0
C40 C 0.33305 0.03509 0.10511 0.0
H41 H 0.39258 0.07759 0.20144 0.0
H42 H 0.40178 0.0466 0.1758 0.0
H43 H 0.39167 0.02479 0.14295 0.0
O44 O 0.27042 0.04889 0.14332 0.0
O45 O 0.36239 0.12864 0.1445 0.0
O46 O 0.37477 0.15058 0.11464 0.0
O47 O 0.27342 0.0802 0.16626 0.0
O48 O 0.29746 0.10107 0.11159 0.0
O49 O 0.3426 0.14294 0.09781 0.0
O50 O 0.40821 0.22207 0.1276 0.0
O51 O 0.31091 0.17224 0.13246 0.0
O52 O 0.28135 0.11865 0.12684 0.0
O53 O 0.38978 0.22244 0.09906 0.0
O54 O 0.36439 0.1818 0.15167 0.0
O55 O 0.31535 0.14 0.16128 0.0
C56 C 0.38128 0.13843 0.12948 0.0
C57 C 0.22225 0.04369 0.15434 0.0
C58 C 0.1692 0.00497 0.14306 0.0
C59 C 0.1602 0.02818 0.14428 0.0
C60 C 0.21256 0.06649 0.15565 0.0
C61 C 0.18176 0.05867 0.15065 0.0
C62 C 0.20023 0.01268 0.14821 0.0
C63 C 0.31559 0.11522 0.09651 0.0
C64 C 0.25578 0.05294 0.1578 0.0
C65 C 0.38645 0.05071 0.16637 0.0
C66 C 0.38073 0.03833 0.14765 0.0
C67 C 0.28355 0.1465 0.12932 0.0
C68 C 0.4438 0.26368 0.10385 0.0
C69 C 0.49433 0.31368 0.10805 0.0
C70 C 0.49759 0.31645 0.08789 0.0
C71 C 0.44845 0.2673 0.08376 0.0
C72 C 0.46697 0.28719 0.11614 0.0
C73 C 0.47494 0.29348 0.07592 0.0
C74 C 0.34228 0.16614 0.16506 0.0
C75 C 0.41343 0.23629 0.1109 0.0
H76 H 0.13631 0.02255 0.14054 0.0
H77 H 0.22893 0.09062 0.16014 0.0
H78 H 0.17473 0.07649 0.15147 0.0
H79 H 0.20733 0.99485 0.1471 0.0
H80 H 0.51782 0.33676 0.08129 0.0
H81 H 0.43126 0.24995 0.07393 0.0
H82 H 0.46374 0.28502 0.13163 0.0
H83 H 0.47787 0.29605 0.06043 0.0
Eu84 Eu 0.83009 0.64616 0.41615 0.0
C85 C 0.7256 0.65692 0.37328 0.0
N86 N 0.75689 0.67087 0.36854 0.0
C87 C 0.74362 0.65546 0.33558 0.0
C88 C 0.70194 0.64063 0.3593 0.0
C89 C 0.76619 0.67122 0.34996 0.0
C90 C 0.71133 0.63988 0.34029 0.0
C91 C 0.68496 0.64395 0.39762 0.0
C92 C 0.71729 0.65859 0.39229 0.0
C93 C 0.66133 0.62738 0.38377 0.0
C94 C 0.6698 0.62578 0.36466 0.0
Eu95 Eu 0.79332 0.69767 0.39343 0.0
N96 N 0.74072 0.67466 0.40548 0.0
C97 C 0.67732 0.64637 0.41676 0.0
C98 C 0.73325 0.67894 0.42374 0.0
C99 C 0.7016 0.66397 0.42985 0.0
H100 H 0.79099 0.6842 0.34615 0.0
H101 H 0.69595 0.66657 0.44459 0.0
H102 H 0.83054 0.66143 0.46426 0.0
H103 H 0.92698 0.66018 0.3699 0.0
H104 H 0.75139 0.69475 0.43345 0.0
H105 H 0.65279 0.63519 0.42149 0.0
H106 H 0.87161 0.6441 0.37817 0.0
H107 H 0.75113 0.65559 0.32086 0.0
H108 H 0.63641 0.61587 0.38766 0.0
H109 H 0.65128 0.6131 0.35411 0.0
H110 H 0.86923 0.68501 0.49029 0.0
H111 H 0.69387 0.62772 0.32911 0.0
H112 H 0.96904 0.68537 0.39454 0.0
N113 N 0.86518 0.67062 0.44244 0.0
C114 C 0.89622 0.67984 0.43891 0.0
C115 C 0.87723 0.68425 0.47584 0.0
C116 C 0.91908 0.69248 0.45374 0.0
C117 C 0.85534 0.67158 0.46079 0.0
C118 C 0.90926 0.69501 0.47228 0.0
N119 N 0.88258 0.66244 0.40667 0.0
C120 C 0.88989 0.65608 0.38882 0.0
C121 C 0.93689 0.68396 0.41669 0.0
C122 C 0.90507 0.67532 0.42064 0.0
C123 C 0.94483 0.67887 0.39814 0.0
C124 C 0.92119 0.66476 0.38418 0.0
H125 H 0.92606 0.70438 0.48406 0.0
H126 H 0.96861 0.7111 0.46104 0.0
H127 H 0.98424 0.70399 0.42854 0.0
O128 O 0.8181 0.59734 0.40643 0.0
O129 O 0.86459 0.69461 0.4037 0.0
O130 O 0.84118 0.72507 0.40868 0.0
O131 O 0.83267 0.61347 0.43593 0.0
O132 O 0.82028 0.6421 0.38336 0.0
O133 O 0.82809 0.6917 0.37464 0.0
O134 O 0.78137 0.73538 0.39635 0.0
O135 O 0.76802 0.64356 0.39038 0.0
O136 O 0.77817 0.62949 0.41957 0.0
O137 O 0.8068 0.7339 0.3712 0.0
O138 O 0.80581 0.70654 0.42511 0.0
O139 O 0.8014 0.65983 0.43702 0.0
C140 C 0.86656 0.72214 0.40692 0.0
C141 C 0.8215 0.56019 0.42994 0.0
C142 C 0.8214 0.51027 0.42456 0.0
C143 C 0.81946 0.50523 0.44458 0.0
C144 C 0.81934 0.55409 0.4499 0.0
C145 C 0.81845 0.52695 0.4571 0.0
C146 C 0.82265 0.53806 0.41714 0.0
C147 C 0.82752 0.66496 0.37039 0.0
C148 C 0.82473 0.59085 0.42349 0.0
C149 C 0.95081 0.70137 0.4498 0.0
C150 C 0.95971 0.69721 0.43132 0.0
C151 C 0.76013 0.62297 0.40448 0.0
C152 C 0.82139 0.78453 0.38387 0.0
C153 C 0.83547 0.83805 0.39426 0.0
C154 C 0.86755 0.8482 0.39037 0.0
C155 C 0.85371 0.79534 0.38027 0.0
C156 C 0.81229 0.80611 0.39078 0.0
C157 C 0.87652 0.82699 0.3834 0.0
C158 C 0.8017 0.68709 0.43945 0.0
C159 C 0.79758 0.75062 0.38112 0.0
H160 H 0.81894 0.48435 0.45058 0.0
H161 H 0.81863 0.57054 0.46013 0.0
H162 H 0.81709 0.5228 0.4725 0.0
H163 H 0.82469 0.54246 0.40174 0.0
H164 H 0.88574 0.87277 0.39254 0.0
H165 H 0.86152 0.77932 0.37516 0.0
H166 H 0.78747 0.798 0.39375 0.0
H167 H 0.90129 0.83507 0.38047 0.0
Eu168 Eu 0.90079 0.20569 0.14316 0.0
C169 C 0.7766 0.10952 0.09396 0.0
N170 N 0.79785 0.14061 0.09042 0.0
C171 C 0.79431 0.1306 0.05644 0.0
C172 C 0.76353 0.08757 0.0787 0.0
C173 C 0.80659 0.15147 0.07201 0.0
C174 C 0.77273 0.09848 0.05979 0.0
C175 C 0.74645 0.06716 0.11698 0.0
C176 C 0.76833 0.09945 0.11295 0.0
C177 C 0.73336 0.04532 0.10181 0.0
C178 C 0.74188 0.05548 0.08273 0.0
Eu179 Eu 0.81652 0.17443 0.11739 0.0
N180 N 0.78184 0.12104 0.12743 0.0
C181 C 0.73815 0.05775 0.13616 0.0
C182 C 0.77213 0.11216 0.14604 0.0
C183 C 0.75078 0.08043 0.15072 0.0
H184 H 0.8223 0.17644 0.0693 0.0
H185 H 0.74359 0.07361 0.16555 0.0
H186 H 0.88956 0.19666 0.19098 0.0
H187 H 0.96224 0.3145 0.09965 0.0
H188 H 0.77955 0.12928 0.15738 0.0
H189 H 0.72146 0.0332 0.13984 0.0
H190 H 0.93129 0.2571 0.10533 0.0
H191 H 0.80128 0.13936 0.04186 0.0
H192 H 0.71655 0.02048 0.10468 0.0
H193 H 0.73159 0.03832 0.07117 0.0
H194 H 0.90257 0.23037 0.21993 0.0
H195 H 0.76319 0.08236 0.04769 0.0
H196 H 0.97926 0.35151 0.12724 0.0
N197 N 0.91221 0.2357 0.17164 0.0
C198 C 0.93032 0.26778 0.16955 0.0
C199 C 0.91036 0.2412 0.20585 0.0
C200 C 0.9388 0.28792 0.18572 0.0
C201 C 0.90258 0.22218 0.18942 0.0
C202 C 0.92851 0.27422 0.204 0.0
N203 N 0.93012 0.26069 0.13567 0.0
C204 C 0.93838 0.27256 0.11745 0.0
C205 C 0.95751 0.3139 0.14854 0.0
C206 C 0.93969 0.28063 0.15112 0.0
C207 C 0.96567 0.32611 0.12981 0.0
C208 C 0.95606 0.30532 0.1142 0.0
H209 H 0.93454 0.28891 0.21677 0.0
H210 H 0.96376 0.33683 0.19545 0.0
H211 H 0.98003 0.35954 0.16292 0.0
O212 O 0.94481 0.20691 0.13323 0.0
O213 O 0.87685 0.23608 0.14467 0.0
O214 O 0.85385 0.22595 0.11516 0.0
O215 O 0.92969 0.19744 0.16341 0.0
O216 O 0.89934 0.19527 0.11124 0.0
O217 O 0.85973 0.20127 0.09664 0.0
O218 O 0.7764 0.17926 0.12856 0.0
O219 O 0.83648 0.14133 0.11495 0.0
O220 O 0.86698 0.15236 0.1423 0.0
O221 O 0.788 0.18492 0.09784 0.0
O222 O 0.82084 0.1839 0.15042 0.0
O223 O 0.8578 0.17043 0.15982 0.0
C224 C 0.86416 0.24373 0.13045 0.0
C225 C 0.97847 0.19797 0.15602 0.0
C226 C 0.02481 0.19316 0.14814 0.0
C227 C 0.03046 0.19223 0.1679 0.0
C228 C 0.98469 0.1969 0.17572 0.0
C229 C 0.01048 0.19402 0.18157 0.0
C230 C 0.99864 0.19591 0.14212 0.0
C231 C 0.8871 0.2012 0.09598 0.0
C232 C 0.95062 0.20074 0.15057 0.0
C233 C 0.95697 0.321 0.18318 0.0
C234 C 0.96627 0.33394 0.16465 0.0
C235 C 0.85256 0.1344 0.12729 0.0
C236 C 0.74267 0.1901 0.10705 0.0
C237 C 0.69021 0.18344 0.1137 0.0
C238 C 0.69199 0.19887 0.09623 0.0
C239 C 0.74361 0.20535 0.08963 0.0
C240 C 0.71575 0.17915 0.11923 0.0
C241 C 0.71843 0.20963 0.08428 0.0
C242 C 0.83447 0.17553 0.16395 0.0
C243 C 0.76896 0.18399 0.11132 0.0
H244 H 0.05034 0.18983 0.17274 0.0
H245 H 0.96961 0.19832 0.18671 0.0
H246 H 0.01497 0.19314 0.19676 0.0
H247 H 0.99407 0.19641 0.12687 0.0
H248 H 0.67255 0.20225 0.09171 0.0
H249 H 0.76383 0.21386 0.07999 0.0
H250 H 0.71424 0.16665 0.1325 0.0
H251 H 0.71943 0.22135 0.07081 0.0
Eu252 Eu 0.36213 0.18865 0.41766 0.0
C253 C 0.34372 0.07331 0.37204 0.0
N254 N 0.33032 0.09133 0.36779 0.0
C255 C 0.34549 0.09423 0.33467 0.0
C256 C 0.35945 0.06581 0.3577 0.0
C257 C 0.3303 0.1012 0.3494 0.0
C258 C 0.36035 0.07666 0.33886 0.0
C259 C 0.35627 0.0446 0.39583 0.0
C260 C 0.34238 0.0631 0.39097 0.0
C261 C 0.37226 0.03735 0.38162 0.0
C262 C 0.3738 0.04788 0.36262 0.0
Eu263 Eu 0.30677 0.10332 0.3937 0.0
N264 N 0.32718 0.07094 0.40453 0.0
C265 C 0.35327 0.03355 0.4148 0.0
C266 C 0.32157 0.05761 0.42242 0.0
C267 C 0.33546 0.03975 0.42808 0.0
H268 H 0.31817 0.11405 0.34608 0.0
H269 H 0.33189 0.03025 0.44256 0.0
H270 H 0.34825 0.17578 0.46524 0.0
H271 H 0.34735 0.27043 0.36987 0.0
H272 H 0.30547 0.05965 0.4321 0.0
H273 H 0.3637 0.01936 0.41915 0.0
H274 H 0.3622 0.23074 0.37809 0.0
H275 H 0.34564 0.10232 0.3201 0.0
H276 H 0.38322 0.02331 0.38514 0.0
H277 H 0.38601 0.04187 0.3518 0.0
H278 H 0.32943 0.19533 0.49206 0.0
H279 H 0.37222 0.07139 0.32743 0.0
H280 H 0.32756 0.29197 0.39513 0.0
N281 N 0.34315 0.20471 0.44413 0.0
C282 C 0.33572 0.22775 0.44056 0.0
C283 C 0.33094 0.20452 0.47763 0.0
C284 C 0.32551 0.24007 0.45559 0.0
C285 C 0.34123 0.19321 0.46234 0.0
C286 C 0.32304 0.22805 0.47425 0.0
N287 N 0.34728 0.22603 0.40744 0.0
C288 C 0.35172 0.23801 0.38914 0.0
C289 C 0.33045 0.26278 0.41775 0.0
C290 C 0.33798 0.2388 0.42177 0.0
C291 C 0.33321 0.27367 0.39879 0.0
C292 C 0.34412 0.2614 0.38447 0.0
H293 H 0.3152 0.23687 0.48615 0.0
H294 H 0.311 0.2742 0.463 0.0
H295 H 0.31466 0.29362 0.42988 0.0
O296 O 0.40896 0.22712 0.40727 0.0
O297 O 0.30921 0.17025 0.42029 0.0
O298 O 0.28562 0.13546 0.39482 0.0
O299 O 0.39905 0.21789 0.43811 0.0
O300 O 0.36466 0.1839 0.38452 0.0
O301 O 0.31382 0.14553 0.37638 0.0
O302 O 0.26267 0.06021 0.4023 0.0
O303 O 0.36087 0.12884 0.38995 0.0
O304 O 0.37658 0.15146 0.4194 0.0
O305 O 0.2713 0.07547 0.37206 0.0
O306 O 0.29973 0.10782 0.42575 0.0
O307 O 0.349 0.14525 0.43728 0.0
C308 C 0.28513 0.15336 0.40882 0.0
C309 C 0.4515 0.26101 0.42992 0.0
C310 C 0.4997 0.31183 0.42357 0.0
C311 C 0.51192 0.30927 0.44136 0.0
C312 C 0.46429 0.25925 0.44772 0.0
C313 C 0.49429 0.28319 0.45334 0.0
C314 C 0.46932 0.28759 0.41778 0.0
C315 C 0.3415 0.16989 0.37173 0.0
C316 C 0.41921 0.23539 0.42485 0.0
C317 C 0.31821 0.264 0.45158 0.0
C318 C 0.32049 0.2752 0.43272 0.0
C319 C 0.38175 0.13974 0.40388 0.0
C320 C 0.22111 0.02791 0.37914 0.0
C321 C 0.16965 0.98265 0.38759 0.0
C322 C 0.16104 0.97886 0.36807 0.0
C323 C 0.21208 0.02367 0.35966 0.0
C324 C 0.19974 0.00715 0.39317 0.0
C325 C 0.18219 0.99926 0.35419 0.0
C326 C 0.32049 0.11987 0.43981 0.0
C327 C 0.25201 0.05505 0.38468 0.0
H328 H 0.53507 0.32782 0.44611 0.0
H329 H 0.45106 0.23925 0.45735 0.0
H330 H 0.50386 0.2816 0.4671 0.0
H331 H 0.45958 0.28961 0.40416 0.0
H332 H 0.13785 0.96001 0.36359 0.0
H333 H 0.22797 0.03944 0.34861 0.0
H334 H 0.20624 0.01017 0.40828 0.0
H335 H 0.17535 0.99623 0.33917 0.0
Eu336 Eu 0.79935 0.69741 0.14214 0.0
C337 C 0.89637 0.6745 0.09367 0.0
N338 N 0.86495 0.66326 0.09044 0.0
C339 C 0.87457 0.67142 0.05644 0.0
C340 C 0.91821 0.68474 0.0782 0.0
C341 C 0.85374 0.66123 0.07217 0.0
C342 C 0.90695 0.68326 0.05946 0.0
C343 C 0.93915 0.68662 0.11614 0.0
C344 C 0.90681 0.67594 0.11253 0.0
C345 C 0.96086 0.69662 0.10074 0.0
C346 C 0.95047 0.6959 0.08186 0.0
Eu347 Eu 0.83171 0.64515 0.11783 0.0
N348 N 0.88537 0.66662 0.12728 0.0
C349 C 0.94864 0.68625 0.13508 0.0
C350 C 0.89452 0.6654 0.14571 0.0
C351 C 0.92627 0.67564 0.14992 0.0
H352 H 0.82863 0.65097 0.06959 0.0
H353 H 0.93331 0.67449 0.16455 0.0
H354 H 0.80352 0.69612 0.19015 0.0
H355 H 0.69517 0.65517 0.09522 0.0
H356 H 0.87752 0.65528 0.15719 0.0
H357 H 0.97294 0.69307 0.13833 0.0
H358 H 0.75173 0.68145 0.10277 0.0
H359 H 0.86559 0.66976 0.04198 0.0
H360 H 0.98574 0.7048 0.10325 0.0
H361 H 0.96754 0.70373 0.07014 0.0
H362 H 0.76754 0.67958 0.21809 0.0
H363 H 0.923 0.69091 0.04722 0.0
H364 H 0.65551 0.6339 0.12155 0.0
N365 N 0.7665 0.67927 0.16959 0.0
C366 C 0.73479 0.66607 0.16644 0.0
C367 C 0.75786 0.67492 0.20369 0.0
C368 C 0.7132 0.65592 0.18202 0.0
C369 C 0.77826 0.68391 0.18784 0.0
C370 C 0.72515 0.66076 0.20078 0.0
N371 N 0.74522 0.67284 0.13279 0.0
C372 C 0.73518 0.67113 0.11429 0.0
C373 C 0.69091 0.64813 0.14398 0.0
C374 C 0.72382 0.66256 0.14758 0.0
C375 C 0.68057 0.6449 0.1249 0.0
C376 C 0.70284 0.65671 0.11001 0.0
H377 H 0.70932 0.6541 0.21307 0.0
H378 H 0.66359 0.63359 0.19024 0.0
H379 H 0.64405 0.62645 0.15695 0.0
O380 O 0.798 0.73992 0.13179 0.0
O381 O 0.7688 0.643 0.14456 0.0
O382 O 0.77953 0.62779 0.11581 0.0
O383 O 0.80732 0.73471 0.16208 0.0
O384 O 0.81363 0.70645 0.11073 0.0
O385 O 0.80251 0.65866 0.09735 0.0
O386 O 0.82849 0.60143 0.12953 0.0
O387 O 0.8639 0.69848 0.11559 0.0
O388 O 0.8531 0.71809 0.14293 0.0
O389 O 0.82817 0.6079 0.0987 0.0
O390 O 0.8225 0.64031 0.15108 0.0
O391 O 0.83301 0.69 0.16041 0.0
C392 C 0.76162 0.6214 0.1311 0.0
C393 C 0.806 0.7822 0.15445 0.0
C394 C 0.81598 0.83506 0.14638 0.0
C395 C 0.81365 0.8408 0.16597 0.0
C396 C 0.8036 0.78831 0.17401 0.0
C397 C 0.80735 0.81745 0.1797 0.0
C398 C 0.81188 0.80562 0.14053 0.0
C399 C 0.80538 0.68729 0.09587 0.0
C400 C 0.80381 0.75195 0.14912 0.0
C401 C 0.6805 0.64161 0.17843 0.0
C402 C 0.66938 0.63756 0.15947 0.0
C403 C 0.87215 0.7206 0.12867 0.0
C404 C 0.81243 0.55536 0.10966 0.0
C405 C 0.81364 0.50574 0.11218 0.0
C406 C 0.78598 0.49055 0.101 0.0
C407 C 0.78502 0.53977 0.09829 0.0
C408 C 0.8266 0.53812 0.11672 0.0
C409 C 0.77167 0.50744 0.09423 0.0
C410 C 0.82944 0.66213 0.16461 0.0
C411 C 0.82865 0.59009 0.11256 0.0
H412 H 0.81665 0.86343 0.17061 0.0
H413 H 0.79898 0.7706 0.18499 0.0
H414 H 0.80555 0.822 0.19478 0.0
H415 H 0.81393 0.80131 0.12541 0.0
H416 H 0.77561 0.46562 0.09738 0.0
H417 H 0.77442 0.5527 0.09213 0.0
H418 H 0.84824 0.55011 0.12512 0.0
H419 H 0.75053 0.49557 0.08544 0.0
Eu420 Eu 0.81704 0.17591 0.41768 0.0
C421 C 0.93748 0.27542 0.37369 0.0
N422 N 0.91713 0.24458 0.36906 0.0
C423 C 0.91248 0.25959 0.33701 0.0
C424 C 0.9459 0.29982 0.35998 0.0
C425 C 0.90571 0.23625 0.35086 0.0
C426 C 0.93272 0.29157 0.34152 0.0
C427 C 0.97026 0.31427 0.39762 0.0
C428 C 0.94887 0.28254 0.39242 0.0
C429 C 0.97861 0.33875 0.38406 0.0
C430 C 0.96636 0.33155 0.36531 0.0
Eu431 Eu 0.90289 0.20702 0.39395 0.0
N432 N 0.93971 0.25839 0.40537 0.0
C433 C 0.98322 0.32035 0.41616 0.0
C434 C 0.95471 0.26388 0.42268 0.0
C435 C 0.97599 0.29494 0.42858 0.0
H436 H 0.89143 0.21158 0.34702 0.0
H437 H 0.98723 0.29922 0.44256 0.0
H438 H 0.82431 0.17411 0.46542 0.0
H439 H 0.75006 0.07768 0.36711 0.0
H440 H 0.95118 0.24437 0.43175 0.0
H441 H 0.99981 0.34439 0.42073 0.0
H442 H 0.78067 0.13334 0.377 0.0
H443 H 0.90175 0.25264 0.32302 0.0
H444 H 0.99476 0.3633 0.38787 0.0
H445 H 0.97293 0.35068 0.35502 0.0
H446 H 0.80706 0.13439 0.49169 0.0
H447 H 0.93798 0.30967 0.3307 0.0
H448 H 0.73362 0.0348 0.39128 0.0
N449 N 0.80105 0.13959 0.44355 0.0
C450 C 0.78244 0.10829 0.43917 0.0
C451 C 0.80006 0.12674 0.47698 0.0
C452 C 0.7723 0.08482 0.45369 0.0
C453 C 0.80988 0.14914 0.46209 0.0
C454 C 0.78124 0.09443 0.47277 0.0
N455 N 0.78542 0.12293 0.40623 0.0
C456 C 0.77557 0.1153 0.3876 0.0
C457 C 0.75603 0.06731 0.41501 0.0
C458 C 0.77464 0.09971 0.41999 0.0
C459 C 0.74787 0.0594 0.39569 0.0
C460 C 0.7573 0.08352 0.38198 0.0
H461 H 0.77385 0.07711 0.48433 0.0
H462 H 0.74608 0.03422 0.45966 0.0
H463 H 0.73175 0.01889 0.42583 0.0
O464 O 0.77574 0.17986 0.40763 0.0
O465 O 0.84059 0.14618 0.42224 0.0
O466 O 0.86647 0.15441 0.39356 0.0
O467 O 0.78772 0.18359 0.43817 0.0
O468 O 0.82248 0.18665 0.38467 0.0
O469 O 0.8605 0.17418 0.37591 0.0
O470 O 0.94194 0.19868 0.40194 0.0
O471 O 0.88072 0.23912 0.39122 0.0
O472 O 0.85362 0.22749 0.41948 0.0
O473 O 0.93019 0.20002 0.37162 0.0
O474 O 0.89884 0.19732 0.42637 0.0
O475 O 0.8596 0.20707 0.4377 0.0
C476 C 0.85297 0.13683 0.40883 0.0
C477 C 0.74213 0.18909 0.43047 0.0
C478 C 0.69043 0.18476 0.42463 0.0
C479 C 0.69295 0.19971 0.44235 0.0
C480 C 0.74385 0.20399 0.44814 0.0
C481 C 0.71947 0.20927 0.45397 0.0
C482 C 0.7152 0.17949 0.41858 0.0
C483 C 0.83766 0.17982 0.37128 0.0
C484 C 0.7686 0.18367 0.42515 0.0
C485 C 0.75401 0.05259 0.44871 0.0
C486 C 0.74593 0.04387 0.42943 0.0
C487 C 0.86512 0.24549 0.40429 0.0
C488 C 0.97328 0.18984 0.37766 0.0
C489 C 0.01846 0.18297 0.38455 0.0
C490 C 0.02051 0.17714 0.36496 0.0
C491 C 0.97565 0.18388 0.35807 0.0
C492 C 0.99471 0.18913 0.39097 0.0
C493 C 0.99911 0.1775 0.35181 0.0
C494 C 0.88612 0.20592 0.4402 0.0
C495 C 0.94805 0.19613 0.38394 0.0
H496 H 0.67412 0.20378 0.44726 0.0
H497 H 0.76418 0.21169 0.45752 0.0
H498 H 0.72108 0.22072 0.46763 0.0
H499 H 0.7133 0.16771 0.40499 0.0
H500 H 0.03876 0.17234 0.35986 0.0
H501 H 0.95928 0.18403 0.34756 0.0
H502 H 0.99317 0.19357 0.40614 0.0
H503 H 1.00077 0.1729 0.33672 0.0
Eu504 Eu 0.18865 0.36138 0.6167 0.0
C505 C 0.07007 0.33903 0.6626 0.0
N506 N 0.09046 0.32847 0.66687 0.0
C507 C 0.09495 0.34676 0.69927 0.0
C508 C 0.06099 0.35366 0.67679 0.0
C509 C 0.102 0.33102 0.68503 0.0
C510 C 0.07405 0.35783 0.69525 0.0
C511 C 0.03702 0.34578 0.63914 0.0
C512 C 0.05883 0.33574 0.64385 0.0
C513 C 0.02732 0.35966 0.65337 0.0
C514 C 0.03944 0.36381 0.6721 0.0
Eu515 Eu 0.10437 0.30586 0.64148 0.0
N516 N 0.06852 0.322 0.6304 0.0
C517 C 0.0249 0.34075 0.62041 0.0
C518 C 0.05455 0.31454 0.61271 0.0
C519 C 0.03335 0.32461 0.60722 0.0
H520 H 0.11654 0.32079 0.68854 0.0
H521 H 0.02288 0.31913 0.59299 0.0
H522 H 0.17996 0.3515 0.56896 0.0
H523 H 0.25973 0.33395 0.66639 0.0
H524 H 0.05838 0.2996 0.60306 0.0
H525 H 0.00815 0.34818 0.61622 0.0
H526 H 0.22722 0.35702 0.65695 0.0
H527 H 0.1057 0.35033 0.71329 0.0
H528 H 0.01015 0.36695 0.65007 0.0
H529 H 0.0318 0.37465 0.6829 0.0
H530 H 0.19783 0.33019 0.54251 0.0
H531 H 0.06817 0.36951 0.70647 0.0
H532 H 0.27691 0.3087 0.64196 0.0
N533 N 0.20464 0.34156 0.59062 0.0
C534 C 0.2244 0.33013 0.59475 0.0
C535 C 0.20537 0.32992 0.55714 0.0
C536 C 0.23505 0.31762 0.58008 0.0
C537 C 0.19513 0.34178 0.57216 0.0
C538 C 0.22537 0.31774 0.56111 0.0
N539 N 0.22176 0.3415 0.62778 0.0
C540 C 0.23242 0.34434 0.64627 0.0
C541 C 0.25277 0.31731 0.61856 0.0
C542 C 0.23293 0.32979 0.61385 0.0
C543 C 0.2617 0.31805 0.63777 0.0
C544 C 0.25185 0.33205 0.65162 0.0
H545 H 0.23311 0.3084 0.54944 0.0
H546 H 0.26292 0.29521 0.57372 0.0
H547 H 0.27853 0.29504 0.60738 0.0
O548 O 0.23014 0.40713 0.62607 0.0
O549 O 0.16682 0.30811 0.61268 0.0
O550 O 0.14121 0.29046 0.64143 0.0
O551 O 0.21699 0.3981 0.59576 0.0
O552 O 0.18431 0.36676 0.64984 0.0
O553 O 0.14738 0.3159 0.65897 0.0
O554 O 0.06461 0.25899 0.63321 0.0
O555 O 0.12677 0.35986 0.64442 0.0
O556 O 0.15163 0.3762 0.61538 0.0
O557 O 0.07771 0.27054 0.66355 0.0
O558 O 0.10793 0.29935 0.60926 0.0
O559 O 0.14554 0.34817 0.59681 0.0
C560 C 0.15383 0.28602 0.62592 0.0
C561 C 0.26338 0.4492 0.60256 0.0
C562 C 0.31329 0.49866 0.60869 0.0
C563 C 0.3128 0.50834 0.58968 0.0
C564 C 0.26381 0.45967 0.58359 0.0
C565 C 0.28833 0.48895 0.57725 0.0
C566 C 0.28853 0.4688 0.61517 0.0
C567 C 0.17011 0.34461 0.66337 0.0
C568 C 0.23681 0.41755 0.60839 0.0
C569 C 0.25457 0.30499 0.5848 0.0
C570 C 0.26338 0.3048 0.60398 0.0
C571 C 0.1394 0.38137 0.63074 0.0
C572 C 0.03419 0.21757 0.65713 0.0
C573 C 0.98685 0.16684 0.65045 0.0
C574 C 0.98726 0.1571 0.66946 0.0
C575 C 0.03417 0.20738 0.67611 0.0
C576 C 0.01062 0.19697 0.64416 0.0
C577 C 0.01089 0.17724 0.68217 0.0
C578 C 0.11966 0.31977 0.59485 0.0
C579 C 0.05928 0.24939 0.65109 0.0
H580 H 0.33173 0.53095 0.58435 0.0
H581 H 0.24511 0.44518 0.57353 0.0
H582 H 0.28838 0.49663 0.56258 0.0
H583 H 0.28887 0.46102 0.62977 0.0
H584 H 0.96924 0.13376 0.67444 0.0
H585 H 0.05227 0.22265 0.68628 0.0
H586 H 0.01036 0.20444 0.62946 0.0
H587 H 0.0111 0.16951 0.69678 0.0
Eu588 Eu 0.20764 0.9032 0.8937 0.0
C589 C 0.10765 0.77964 0.93941 0.0
N590 N 0.13882 0.79984 0.94327 0.0
C591 C 0.12718 0.79829 0.97697 0.0
C592 C 0.08485 0.76814 0.95437 0.0
C593 C 0.1489 0.80925 0.9617 0.0
C594 C 0.09502 0.77761 0.97331 0.0
C595 C 0.06592 0.75138 0.91594 0.0
C596 C 0.09834 0.7716 0.92033 0.0
C597 C 0.04321 0.73981 0.93082 0.0
C598 C 0.05265 0.74812 0.94997 0.0
Eu599 Eu 0.17408 0.81578 0.91688 0.0
N600 N 0.12083 0.78348 0.90613 0.0
C601 C 0.05723 0.74305 0.89672 0.0
C602 C 0.11251 0.77355 0.88755 0.0
C603 C 0.08068 0.75388 0.88251 0.0
H604 H 0.1738 0.82476 0.9647 0.0
H605 H 0.07432 0.74654 0.8677 0.0
H606 H 0.21285 0.89485 0.84628 0.0
H607 H 0.29964 0.98909 0.94165 0.0
H608 H 0.13006 0.77947 0.87651 0.0
H609 H 0.03261 0.7276 0.89278 0.0
H610 H 0.2448 0.95278 0.93076 0.0
H611 H 0.13527 0.8057 0.99157 0.0
H612 H 0.01826 0.72431 0.92766 0.0
H613 H 0.03482 0.73909 0.96127 0.0
H614 H 0.25395 0.90847 0.82131 0.0
H615 H 0.07822 0.76926 0.98518 0.0
H616 H 0.34502 0.99955 0.92066 0.0
N617 N 0.24554 0.91762 0.86874 0.0
C618 C 0.27642 0.93708 0.8736 0.0
C619 C 0.26068 0.91637 0.83601 0.0
C620 C 0.30089 0.9461 0.85985 0.0
C621 C 0.23735 0.90811 0.85018 0.0
C622 C 0.29266 0.93515 0.84092 0.0
N623 N 0.25911 0.93963 0.90511 0.0
C624 C 0.26444 0.95573 0.92201 0.0
C625 C 0.31514 0.96929 0.89771 0.0
C626 C 0.28343 0.94804 0.8924 0.0
C627 C 0.32103 0.98298 0.91604 0.0
C628 C 0.29548 0.97697 0.92799 0.0
H629 H 0.31074 0.94155 0.82993 0.0
H630 H 0.35177 0.97268 0.85511 0.0
H631 H 0.36426 0.99333 0.88822 0.0
O632 O 0.20035 0.94253 0.90229 0.0
O633 O 0.23778 0.87914 0.88977 0.0
O634 O 0.22569 0.85232 0.91805 0.0
O635 O 0.20067 0.93125 0.87174 0.0
O636 O 0.19911 0.89915 0.92627 0.0
O637 O 0.20615 0.85778 0.93694 0.0
O638 O 0.17869 0.77442 0.90708 0.0
O639 O 0.1445 0.83929 0.92204 0.0
O640 O 0.15445 0.8684 0.89437 0.0
O641 O 0.18115 0.78654 0.93747 0.0
O642 O 0.1825 0.82088 0.88365 0.0
O643 O 0.17296 0.86139 0.87597 0.0
C644 C 0.24342 0.86284 0.90271 0.0
C645 C 0.19147 0.97483 0.87892 0.0
C646 C 0.18163 0.01762 0.88753 0.0
C647 C 0.17561 0.02069 0.8681 0.0
C648 C 0.1856 0.97839 0.85951 0.0
C649 C 0.17774 1.00124 0.85417 0.0
C650 C 0.18974 0.9948 0.89296 0.0
C651 C 0.20586 0.88465 0.93995 0.0
C652 C 0.19734 0.94903 0.88446 0.0
C653 C 0.33262 0.96577 0.86541 0.0
C654 C 0.33973 0.97738 0.88429 0.0
C655 C 0.13694 0.85487 0.90972 0.0
C656 C 0.1862 0.74052 0.93095 0.0
C657 C 0.1867 0.69096 0.92534 0.0
C658 C 0.19446 0.69077 0.94481 0.0
C659 C 0.19404 0.73946 0.95035 0.0
C660 C 0.18225 0.71586 0.91837 0.0
C661 C 0.19803 0.71478 0.95718 0.0
C662 C 0.17616 0.83719 0.87077 0.0
C663 C 0.18145 0.76714 0.92479 0.0
H664 H 0.16956 0.03842 0.86372 0.0
H665 H 0.18663 0.9632 0.84846 0.0
H666 H 0.17314 0.00379 0.8392 0.0
H667 H 0.19424 0.99242 0.908 0.0
H668 H 0.19746 0.67166 0.95054 0.0
H669 H 0.19704 0.75776 0.96043 0.0
H670 H 0.17591 0.71603 0.90342 0.0
H671 H 0.20387 0.71422 0.97217 0.0
Eu672 Eu 0.64355 0.82842 0.61671 0.0
C673 C 0.66699 0.7326 0.66379 0.0
N674 N 0.67799 0.76394 0.66727 0.0
C675 C 0.66605 0.75315 0.70088 0.0
C676 C 0.65436 0.7101 0.67887 0.0
C677 C 0.6784 0.77458 0.6855 0.0
C678 C 0.65384 0.72074 0.69755 0.0
C679 C 0.6557 0.69037 0.64096 0.0
C680 C 0.6675 0.72285 0.64494 0.0
C681 C 0.64323 0.66797 0.65599 0.0
C682 C 0.64252 0.67779 0.67487 0.0
Eu683 Eu 0.69905 0.79806 0.64051 0.0
N684 N 0.67896 0.74494 0.63051 0.0
C685 C 0.65672 0.68132 0.62196 0.0
C686 C 0.68193 0.73642 0.61226 0.0
C687 C 0.67015 0.70449 0.60759 0.0
H688 H 0.68907 0.79969 0.68826 0.0
H689 H 0.67213 0.69787 0.59299 0.0
H690 H 0.6561 0.82992 0.56896 0.0
H691 H 0.6626 0.92501 0.66562 0.0
H692 H 0.69449 0.75408 0.60144 0.0
H693 H 0.64783 0.65661 0.61832 0.0
H694 H 0.64681 0.87037 0.65699 0.0
H695 H 0.66625 0.76167 0.71531 0.0
H696 H 0.634 0.64294 0.65316 0.0
H697 H 0.63273 0.66017 0.68628 0.0
H698 H 0.67272 0.86833 0.54214 0.0
H699 H 0.64431 0.70417 0.70951 0.0
H700 H 0.68081 0.96647 0.64037 0.0
N701 N 0.66227 0.86382 0.59038 0.0
C702 C 0.66983 0.89424 0.59419 0.0
C703 C 0.67213 0.87594 0.55671 0.0
C704 C 0.67841 0.91665 0.57916 0.0
C705 C 0.66317 0.85434 0.572 0.0
C706 C 0.67964 0.9072 0.56028 0.0
N707 N 0.66027 0.88079 0.62746 0.0
C708 C 0.6569 0.88824 0.64596 0.0
C709 C 0.67655 0.93446 0.61742 0.0
C710 C 0.66894 0.903 0.61319 0.0
C711 C 0.67505 0.94255 0.63656 0.0
C712 C 0.66497 0.91927 0.65086 0.0
H713 H 0.68623 0.9238 0.54836 0.0
H714 H 0.69063 0.96468 0.57183 0.0
H715 H 0.69001 0.98072 0.60539 0.0
O716 O 0.59726 0.82228 0.6267 0.0
O717 O 0.6965 0.86244 0.61381 0.0
O718 O 0.71954 0.85158 0.63975 0.0
O719 O 0.60673 0.82021 0.59613 0.0
O720 O 0.63959 0.81862 0.64964 0.0
O721 O 0.69055 0.83205 0.65807 0.0
O722 O 0.74329 0.79882 0.63162 0.0
O723 O 0.64486 0.76617 0.64336 0.0
O724 O 0.62952 0.77709 0.61488 0.0
O725 O 0.73459 0.80563 0.66177 0.0
O726 O 0.70622 0.81008 0.60852 0.0
O727 O 0.65732 0.79915 0.59666 0.0
C728 C 0.72026 0.86997 0.62559 0.0
C729 C 0.55517 0.81382 0.60351 0.0
C730 C 0.50631 0.81538 0.60961 0.0
C731 C 0.49605 0.80393 0.5909 0.0
C732 C 0.54413 0.80248 0.58485 0.0
C733 C 0.51485 0.79763 0.57863 0.0
C734 C 0.53614 0.82051 0.61596 0.0
C735 C 0.66231 0.82719 0.66267 0.0
C736 C 0.58705 0.81954 0.60905 0.0
C737 C 0.68514 0.94761 0.58333 0.0
C738 C 0.68459 0.95663 0.60241 0.0
C739 C 0.623 0.75941 0.63021 0.0
C740 C 0.78333 0.80562 0.65571 0.0
C741 C 0.83703 0.81613 0.64953 0.0
C742 C 0.84024 0.81133 0.66916 0.0
C743 C 0.78703 0.80078 0.67531 0.0
C744 C 0.80837 0.81292 0.6427 0.0
C745 C 0.81529 0.80353 0.68194 0.0
C746 C 0.6859 0.80238 0.59424 0.0
C747 C 0.75336 0.80327 0.64938 0.0
H748 H 0.47343 0.80018 0.58569 0.0
H749 H 0.55821 0.79738 0.57491 0.0
H750 H 0.50674 0.78903 0.5642 0.0
H751 H 0.54441 0.82969 0.6303 0.0
H752 H 0.86215 0.81359 0.67458 0.0
H753 H 0.768 0.79481 0.68557 0.0
H754 H 0.8059 0.81676 0.62755 0.0
H755 H 0.81792 0.79976 0.69704 0.0
Eu756 Eu 0.10276 0.30626 0.89103 0.0
C757 C 0.22577 0.33427 0.94049 0.0
N758 N 0.20292 0.34206 0.94373 0.0
C759 C 0.20175 0.32971 0.9773 0.0
C760 C 0.23724 0.32346 0.95567 0.0
C761 C 0.19119 0.34043 0.96185 0.0
C762 C 0.22479 0.32108 0.9742 0.0
C763 C 0.26146 0.32909 0.91818 0.0
C764 C 0.23752 0.33679 0.92187 0.0
C765 C 0.27286 0.31831 0.93328 0.0
C766 C 0.26074 0.31542 0.95195 0.0
Eu767 Eu 0.18748 0.36087 0.91682 0.0
N768 N 0.2252 0.34617 0.90734 0.0
C769 C 0.27299 0.33209 0.89935 0.0
C770 C 0.23746 0.35047 0.88913 0.0
C771 C 0.26107 0.34303 0.88481 0.0
H772 H 0.17417 0.34803 0.96458 0.0
H773 H 0.2704 0.34618 0.87029 0.0
H774 H 0.11415 0.31085 0.84321 0.0
H775 H 0.03484 0.34426 0.93573 0.0
H776 H 0.23003 0.36053 0.87791 0.0
H777 H 0.29127 0.32634 0.89593 0.0
H778 H 0.06827 0.32081 0.92934 0.0
H779 H 0.19233 0.32839 0.99164 0.0
H780 H 0.29104 0.31208 0.93064 0.0
H781 H 0.26977 0.30704 0.96344 0.0
H782 H 0.09876 0.33036 0.81464 0.0
H783 H 0.233 0.31287 0.98623 0.0
H784 H 0.01653 0.36407 0.90864 0.0
N785 N 0.0901 0.32473 0.86299 0.0
C786 C 0.07034 0.33668 0.86546 0.0
C787 C 0.09084 0.33254 0.82886 0.0
C788 C 0.0604 0.34752 0.84952 0.0
C789 C 0.10003 0.32206 0.84506 0.0
C790 C 0.07099 0.3454 0.83109 0.0
N791 N 0.07127 0.32904 0.89928 0.0
C792 C 0.06164 0.33025 0.91754 0.0
C793 C 0.04069 0.35184 0.88697 0.0
C794 C 0.06056 0.33877 0.88405 0.0
C795 C 0.0317 0.35412 0.9058 0.0
C796 C 0.04212 0.34315 0.92114 0.0
H797 H 0.06383 0.35343 0.81849 0.0
H798 H 0.0325 0.36863 0.84036 0.0
H799 H 0.01532 0.37246 0.8731 0.0
O800 O 0.05863 0.26336 0.90058 0.0
O801 O 0.12549 0.36044 0.88885 0.0
O802 O 0.14925 0.37364 0.91804 0.0
O803 O 0.07508 0.26897 0.87061 0.0
O804 O 0.10714 0.29716 0.92261 0.0
O805 O 0.14324 0.34483 0.93648 0.0
O806 O 0.22653 0.40771 0.90679 0.0
O807 O 0.1702 0.30798 0.91721 0.0
O808 O 0.13513 0.28527 0.89166 0.0
O809 O 0.21539 0.39815 0.93748 0.0
O810 O 0.18379 0.36558 0.88367 0.0
O811 O 0.14597 0.31525 0.87415 0.0
C812 C 0.13982 0.3815 0.9025 0.0
C813 C 0.02648 0.22037 0.87781 0.0
C814 C 0.98001 0.16954 0.88589 0.0
C815 C 0.97568 0.1616 0.86627 0.0
C816 C 0.02171 0.21188 0.85821 0.0
C817 C 0.99648 0.18266 0.85253 0.0
C818 C 0.00556 0.19892 0.89174 0.0
C819 C 0.11731 0.31624 0.93753 0.0
C820 C 0.05378 0.25124 0.88329 0.0
C821 C 0.04041 0.36025 0.85244 0.0
C822 C 0.03061 0.36241 0.87109 0.0
C823 C 0.15317 0.28431 0.90544 0.0
C824 C 0.25901 0.45062 0.92962 0.0
C825 C 0.31215 0.4971 0.92569 0.0
C826 C 0.30699 0.51045 0.94225 0.0
C827 C 0.25461 0.46467 0.94613 0.0
C828 C 0.28789 0.46714 0.91918 0.0
C829 C 0.27838 0.49442 0.95231 0.0
C830 C 0.17031 0.34335 0.87025 0.0
C831 C 0.23381 0.41813 0.9244 0.0
H832 H 0.95621 0.13889 0.8616 0.0
H833 H 0.03752 0.22783 0.8472 0.0
H834 H 0.99306 0.1763 0.83742 0.0
H835 H 0.00905 0.20494 0.90692 0.0
H836 H 0.3253 0.53341 0.94744 0.0
H837 H 0.23273 0.45255 0.95436 0.0
H838 H 0.29182 0.45646 0.90654 0.0
H839 H 0.27472 0.50496 0.96508 0.0
Eu840 Eu 0.17754 0.81683 0.61658 0.0
C841 C 0.27478 0.94099 0.6617 0.0
N842 N 0.2436 0.92132 0.66596 0.0
C843 C 0.25593 0.92311 0.69949 0.0
C844 C 0.29799 0.95193 0.6763 0.0
C845 C 0.23385 0.9129 0.68452 0.0
C846 C 0.2882 0.94255 0.69536 0.0
C847 C 0.31576 0.96995 0.63775 0.0
C848 C 0.28351 0.94968 0.64261 0.0
C849 C 0.33897 0.98074 0.65223 0.0
C850 C 0.33011 0.97172 0.67144 0.0
Eu851 Eu 0.20798 0.90362 0.63986 0.0
N852 N 0.26057 0.93823 0.62881 0.0
C853 C 0.32377 0.97867 0.61846 0.0
C854 C 0.2681 0.94903 0.61033 0.0
C855 C 0.29978 0.96839 0.60472 0.0
H856 H 0.209 0.89887 0.68776 0.0
H857 H 0.30563 0.97597 0.58989 0.0
H858 H 0.17821 0.82426 0.56856 0.0
H859 H 0.07713 0.74689 0.66562 0.0
H860 H 0.24993 0.94401 0.60002 0.0
H861 H 0.34827 0.99397 0.6141 0.0
H862 H 0.13306 0.77984 0.65678 0.0
H863 H 0.24803 0.91612 0.71421 0.0
H864 H 0.36385 0.99612 0.64871 0.0
H865 H 0.34829 0.98025 0.68246 0.0
H866 H 0.14005 0.8056 0.54164 0.0
H867 H 0.30531 0.95042 0.70698 0.0
H868 H 0.0357 0.7283 0.64053 0.0
N869 N 0.1428 0.79981 0.59 0.0
C870 C 0.11148 0.77992 0.59384 0.0
C871 C 0.13169 0.7983 0.55626 0.0
C872 C 0.08887 0.76878 0.57888 0.0
C873 C 0.15321 0.80899 0.57155 0.0
C874 C 0.09938 0.77816 0.55993 0.0
N875 N 0.12417 0.78357 0.62711 0.0
C876 C 0.11561 0.77374 0.64573 0.0
C877 C 0.06935 0.75187 0.61732 0.0
C878 C 0.10186 0.77178 0.61291 0.0
C879 C 0.06041 0.74353 0.63656 0.0
C880 C 0.0837 0.75417 0.65077 0.0
H881 H 0.08273 0.77009 0.54805 0.0
H882 H 0.03884 0.74046 0.57199 0.0
H883 H 0.02176 0.72555 0.60562 0.0
O884 O 0.18205 0.7758 0.62704 0.0
O885 O 0.14579 0.83811 0.61233 0.0
O886 O 0.15578 0.86593 0.6403 0.0
O887 O 0.18783 0.78903 0.59659 0.0
O888 O 0.18596 0.82162 0.64984 0.0
O889 O 0.1757 0.86146 0.65834 0.0
O890 O 0.2019 0.94295 0.62971 0.0
O891 O 0.24032 0.88228 0.64376 0.0
O892 O 0.22893 0.85461 0.61579 0.0
O893 O 0.19504 0.92953 0.65991 0.0
O894 O 0.19668 0.89785 0.60784 0.0
O895 O 0.20742 0.85959 0.59616 0.0
C896 C 0.13808 0.85291 0.62509 0.0
C897 C 0.19537 0.74492 0.60432 0.0
C898 C 0.19093 0.69284 0.60856 0.0
C899 C 0.21025 0.69876 0.59225 0.0
C900 C 0.21473 0.75015 0.58807 0.0
C901 C 0.22214 0.72727 0.58215 0.0
C902 C 0.18367 0.71616 0.61478 0.0
C903 C 0.17941 0.83732 0.66305 0.0
C904 C 0.18748 0.76966 0.60962 0.0
C905 C 0.05654 0.74915 0.58329 0.0
C906 C 0.04681 0.74074 0.60245 0.0
C907 C 0.24613 0.86555 0.63127 0.0
C908 C 0.20886 0.98234 0.65241 0.0
C909 C 0.20513 0.03032 0.65097 0.0
C910 C 0.22752 0.04344 0.66588 0.0
C911 C 0.23158 0.99585 0.66711 0.0
C912 C 0.19617 0.99989 0.64411 0.0
C913 C 0.24087 0.02636 0.67376 0.0
C914 C 0.20461 0.88521 0.59365 0.0
C915 C 0.19542 0.94901 0.64688 0.0
H916 H 0.21603 0.68112 0.58728 0.0
H917 H 0.22421 0.77205 0.57987 0.0
H918 H 0.23701 0.73156 0.56959 0.0
H919 H 0.16852 0.71164 0.62725 0.0
H920 H 0.23474 0.06696 0.67135 0.0
H921 H 0.24157 0.9826 0.67372 0.0
H922 H 0.17834 0.98935 0.63291 0.0
H923 H 0.2581 0.03662 0.68524 0.0
Eu924 Eu 0.69684 0.793 0.89139 0.0
C925 C 0.66685 0.88978 0.94116 0.0
N926 N 0.65763 0.85865 0.94414 0.0
C927 C 0.66324 0.86743 0.97829 0.0
C928 C 0.67559 0.9112 0.95671 0.0
C929 C 0.65448 0.84705 0.96244 0.0
C930 C 0.67421 0.89973 0.9754 0.0
C931 C 0.67437 0.93182 0.91907 0.0
C932 C 0.666 0.89995 0.92261 0.0
C933 C 0.68403 0.95342 0.93443 0.0
C934 C 0.6846 0.94312 0.95321 0.0
Eu935 Eu 0.64286 0.82583 0.91645 0.0
N936 N 0.65694 0.87859 0.90799 0.0
C937 C 0.6726 0.941 0.90019 0.0
C938 C 0.65375 0.88709 0.88971 0.0
C939 C 0.66201 0.91845 0.88548 0.0
H940 H 0.64434 0.82188 0.96494 0.0
H941 H 0.65995 0.92515 0.87089 0.0
H942 H 0.68822 0.79475 0.8436 0.0
H943 H 0.64744 0.69042 0.94097 0.0
H944 H 0.64468 0.86979 0.87832 0.0
H945 H 0.67892 0.96527 0.89687 0.0
H946 H 0.67231 0.74645 0.93244 0.0
H947 H 0.66102 0.85811 0.99274 0.0
H948 H 0.69073 0.97803 0.93196 0.0
H949 H 0.69156 0.95993 0.96498 0.0
H950 H 0.66649 0.75603 0.81669 0.0
H951 H 0.68067 0.91541 0.98773 0.0
H952 H 0.62958 0.6499 0.91535 0.0
N953 N 0.67561 0.75891 0.8649 0.0
C954 C 0.66283 0.72735 0.86877 0.0
C955 C 0.66549 0.74796 0.83127 0.0
C956 C 0.65074 0.70482 0.85377 0.0
C957 C 0.67731 0.76958 0.84652 0.0
C958 C 0.65235 0.71554 0.83488 0.0
N959 N 0.67069 0.73933 0.90227 0.0
C960 C 0.66582 0.7298 0.92107 0.0
C961 C 0.64527 0.68448 0.89219 0.0
C962 C 0.66029 0.7173 0.88789 0.0
C963 C 0.64111 0.67486 0.91149 0.0
C964 C 0.65117 0.69763 0.92597 0.0
H965 H 0.64325 0.69896 0.82297 0.0
H966 H 0.62765 0.65476 0.84666 0.0
H967 H 0.62274 0.63695 0.88028 0.0
O968 O 0.7356 0.78373 0.89779 0.0
O969 O 0.64298 0.76551 0.88804 0.0
O970 O 0.63344 0.7758 0.91804 0.0
O971 O 0.73465 0.80543 0.87013 0.0
O972 O 0.70708 0.80553 0.92272 0.0
O973 O 0.66453 0.80526 0.9383 0.0
O974 O 0.59702 0.8169 0.90464 0.0
O975 O 0.69221 0.86525 0.90875 0.0
O976 O 0.72463 0.84373 0.90224 0.0
O977 O 0.60129 0.8105 0.93489 0.0
O978 O 0.64003 0.81728 0.88334 0.0
O979 O 0.69049 0.82881 0.87417 0.0
C980 C 0.62336 0.75869 0.90251 0.0
C981 C 0.77956 0.79747 0.87571 0.0
C982 C 0.83392 0.81053 0.88273 0.0
C983 C 0.83785 0.80526 0.86327 0.0
C984 C 0.78413 0.79255 0.85635 0.0
C985 C 0.81305 0.79615 0.85023 0.0
C986 C 0.8044 0.806 0.88907 0.0
C987 C 0.69136 0.80411 0.93845 0.0
C988 C 0.74966 0.79586 0.88139 0.0
C989 C 0.63687 0.67232 0.85805 0.0
C990 C 0.6341 0.66218 0.8772 0.0
C991 C 0.72012 0.86762 0.90639 0.0
C992 C 0.56755 0.83059 0.92628 0.0
C993 C 0.52364 0.84122 0.92242 0.0
C994 C 0.53697 0.8645 0.93679 0.0
C995 C 0.58019 0.85403 0.94071 0.0
C996 C 0.53906 0.82426 0.91708 0.0
C997 C 0.56506 0.87086 0.94583 0.0
C998 C 0.66306 0.8266 0.87027 0.0
C999 C 0.58355 0.8122 0.92149 0.0
H1000 H 0.86029 0.8083 0.85816 0.0
H1001 H 0.76533 0.78608 0.84591 0.0
H1002 H 0.8164 0.79225 0.83526 0.0
H1003 H 0.80127 0.81034 0.90402 0.0
H1004 H 0.52535 0.87759 0.94116 0.0
H1005 H 0.60159 0.85916 0.9483 0.0
H1006 H 0.52892 0.80623 0.906 0.0
H1007 H 0.57499 0.8887 0.95702 0.0
H1008 H 0.08484 0.23843 0.13925 0.0
H1009 H 0.12662 0.22842 0.12802 0.0
H1010 H 0.05639 0.13057 0.11686 0.0
H1011 H 0.01457 0.14071 0.12837 0.0
H1012 H 0.09735 0.13414 0.14265 0.0
H1013 H 0.11183 0.17758 0.07835 0.0
H1014 H 0.12037 0.21556 0.05231 0.0
H1015 H 0.20099 0.28891 0.08228 0.0
H1016 H 0.19311 0.25105 0.1084 0.0
H1017 H 0.22381 0.10205 0.11723 0.0
H1018 H 0.17629 0.10747 0.11618 0.0
H1019 H 0.23033 0.20241 0.13895 0.0
H1020 H 0.27699 0.19637 0.14136 0.0
H1021 H 0.19545 0.19618 0.10393 0.0
H1022 H 0.18176 0.15418 0.16779 0.0
H1023 H 0.1752 0.11713 0.19407 0.0
H1024 H 0.09307 0.04247 0.166 0.0
H1025 H 0.09937 0.07907 0.13944 0.0
C1026 C 0.07823 0.21527 0.1334 0.0
C1027 C 0.04661 0.19038 0.13452 0.0
C1028 C 0.10212 0.2095 0.12698 0.0
C1029 C 0.09475 0.17867 0.12163 0.0
C1030 C 0.06266 0.15454 0.12089 0.0
C1031 C 0.03873 0.16037 0.1273 0.0
C1032 C 0.12039 0.17048 0.1209 0.0
C1033 C 0.11836 0.14706 0.13369 0.0
C1034 C 0.14852 0.18823 0.11 0.0
C1035 C 0.15169 0.21167 0.09533 0.0
C1036 C 0.13108 0.20195 0.07949 0.0
C1037 C 0.13596 0.22341 0.06466 0.0
C1038 C 0.1612 0.25472 0.06564 0.0
C1039 C 0.18148 0.26467 0.08153 0.0
C1040 C 0.1769 0.2432 0.0963 0.0
C1041 C 0.22547 0.12394 0.12222 0.0
C1042 C 0.25443 0.14904 0.12903 0.0
C1043 C 0.19834 0.12699 0.12159 0.0
C1044 C 0.19993 0.15539 0.12741 0.0
C1045 C 0.22868 0.18035 0.13431 0.0
C1046 C 0.25548 0.177 0.13542 0.0
C1047 C 0.17209 0.15981 0.1255 0.0
C1048 C 0.17399 0.18272 0.11245 0.0
C1049 C 0.14394 0.14175 0.13627 0.0
C1050 C 0.14135 0.11918 0.15149 0.0
C1051 C 0.16263 0.12972 0.16706 0.0
C1052 C 0.15881 0.10888 0.18209 0.0
C1053 C 0.13372 0.07746 0.18172 0.0
C1054 C 0.11247 0.06681 0.16628 0.0
C1055 C 0.11617 0.08757 0.15123 0.0
H1056 H 0.13079 0.06137 0.19337 0.0
H1057 H 0.16525 0.27126 0.05405 0.0
H1058 H 0.12395 0.98832 0.40655 0.0
H1059 H 0.0744 0.94365 0.41909 0.0
H1060 H 0.11249 0.88121 0.41081 0.0
H1061 H 0.162 0.92589 0.39842 0.0
H1062 H 0.0624 0.87203 0.38605 0.0
H1063 H 0.08686 0.88141 0.45274 0.0
H1064 H 0.10319 0.90629 0.48472 0.0
H1065 H 0.02484 0.9236 0.48542 0.0
H1066 H 0.00832 0.89929 0.45327 0.0
H1067 H 0.92299 0.72688 0.3969 0.0
H1068 H 0.9761 0.77159 0.40089 0.0
H1069 H 0.93709 0.82944 0.42005 0.0
H1070 H 0.88324 0.78314 0.41795 0.0
H1071 H 0.98816 0.84131 0.4415 0.0
H1072 H 0.96637 0.83537 0.37375 0.0
H1073 H 0.9504 0.81054 0.3417 0.0
H1074 H 0.02554 0.78844 0.34285 0.0
H1075 H 0.04167 0.81274 0.37502 0.0
C1076 C 0.12226 0.96539 0.40847 0.0
C1077 C 0.14649 0.96026 0.4016 0.0
C1078 C 0.09402 0.93992 0.41562 0.0
C1079 C 0.08976 0.90913 0.41575 0.0
C1080 C 0.11542 0.90483 0.41091 0.0
C1081 C 0.14366 0.9303 0.40387 0.0
C1082 C 0.05718 0.88136 0.41573 0.0
C1083 C 0.04636 0.8649 0.39832 0.0
C1084 C 0.03598 0.87309 0.43148 0.0
C1085 C 0.04655 0.88883 0.45047 0.0
C1086 C 0.07338 0.89095 0.45956 0.0
C1087 C 0.0826 0.90484 0.47777 0.0
C1088 C 0.06511 0.91658 0.48708 0.0
C1089 C 0.0384 0.91453 0.47818 0.0
C1090 C 0.02909 0.90069 0.45997 0.0
C1091 C 0.92549 0.74863 0.40262 0.0
C1092 C 0.89872 0.75085 0.40782 0.0
C1093 C 0.95605 0.77456 0.40448 0.0
C1094 C 0.96073 0.80405 0.41068 0.0
C1095 C 0.93409 0.80683 0.41542 0.0
C1096 C 0.90332 0.78042 0.41405 0.0
C1097 C 0.99352 0.8318 0.41182 0.0
C1098 C 0.00429 0.8484 0.4293 0.0
C1099 C 0.01491 0.84052 0.39609 0.0
C1100 C 0.00498 0.82555 0.37686 0.0
C1101 C 0.97928 0.82494 0.36723 0.0
C1102 C 0.97025 0.81102 0.34903 0.0
C1103 C 0.98688 0.79783 0.34026 0.0
C1104 C 0.01263 0.79859 0.34967 0.0
C1105 C 0.02174 0.81245 0.36788 0.0
H1106 H 0.97987 0.7871 0.32616 0.0
H1107 H 0.0722 0.92719 0.50122 0.0
H1108 H 0.81349 0.08429 0.10417 0.0
H1109 H 0.80862 0.03208 0.10277 0.0
H1110 H 0.88599 0.06259 0.14288 0.0
H1111 H 0.88941 0.11457 0.1456 0.0
H1112 H 0.87839 0.02537 0.09967 0.0
H1113 H 0.84029 0.02401 0.1652 0.0
H1114 H 0.80732 0.03129 0.1894 0.0
H1115 H 0.7229 0.96528 0.15906 0.0
H1116 H 0.75553 0.95833 0.13436 0.0
H1117 H 0.87299 0.8865 0.13841 0.0
H1118 H 0.88088 0.93716 0.1261 0.0
H1119 H 0.78102 0.89235 0.11265 0.0
H1120 H 0.77322 0.84167 0.12505 0.0
H1121 H 0.79849 0.93686 0.14004 0.0
H1122 H 0.83519 0.93131 0.07753 0.0
H1123 H 0.86692 0.92357 0.05265 0.0
H1124 H 0.95252 1.00025 0.0764 0.0
H1125 H 0.92133 0.00821 0.10159 0.0
C1126 C 0.82897 0.07988 0.11308 0.0
C1127 C 0.85104 0.10335 0.12552 0.0
C1128 C 0.82642 0.05008 0.11205 0.0
C1129 C 0.84675 0.0436 0.12286 0.0
C1130 C 0.86989 0.06727 0.1346 0.0
C1131 C 0.87172 0.09683 0.13616 0.0
C1132 C 0.84314 0.01172 0.122 0.0
C1133 C 0.86129 0.00597 0.10864 0.0
C1134 C 0.81994 0.98647 0.1332 0.0
C1135 C 0.80037 0.99129 0.1477 0.0
C1136 C 0.81475 0.01162 0.16345 0.0
C1137 C 0.79612 0.01555 0.17732 0.0
C1138 C 0.76304 0.99893 0.1757 0.0
C1139 C 0.74853 0.97831 0.16022 0.0
C1140 C 0.76709 0.97442 0.14627 0.0
C1141 C 0.85316 0.88723 0.13184 0.0
C1142 C 0.82256 0.86052 0.13256 0.0
C1143 C 0.85764 0.91612 0.12482 0.0
C1144 C 0.83147 0.91852 0.1186 0.0
C1145 C 0.80149 0.89092 0.11738 0.0
C1146 C 0.79705 0.862 0.12434 0.0
C1147 C 0.83405 0.95013 0.11779 0.0
C1148 C 0.81557 0.95598 0.13089 0.0
C1149 C 0.857 0.97535 0.10635 0.0
C1150 C 0.87594 0.97016 0.09155 0.0
C1151 C 0.86081 0.94629 0.07759 0.0
C1152 C 0.87869 0.94193 0.06339 0.0
C1153 C 0.91172 0.96136 0.06297 0.0
C1154 C 0.92694 0.9852 0.07675 0.0
C1155 C 0.90916 0.98968 0.09098 0.0
H1156 H 0.92552 0.95799 0.05194 0.0
H1157 H 0.74864 1.00189 0.1865 0.0
H1158 H 0.27975 0.20599 0.40505 0.0
H1159 H 0.23205 0.2101 0.40906 0.0
H1160 H 0.17748 0.10926 0.42068 0.0
H1161 H 0.22567 0.10546 0.41665 0.0
H1162 H 0.14796 0.12544 0.39586 0.0
H1163 H 0.19709 0.16632 0.4565 0.0
H1164 H 0.23906 0.20044 0.47941 0.0
H1165 H 0.24166 0.28321 0.45539 0.0
H1166 H 0.20023 0.2497 0.43201 0.0
H1167 H 0.01119 0.13426 0.40725 0.0
H1168 H 0.05451 0.12839 0.42085 0.0
H1169 H 0.12187 0.22457 0.40362 0.0
H1170 H 0.07852 0.23047 0.39031 0.0
H1171 H 0.14154 0.20618 0.43635 0.0
H1172 H 0.102 0.16703 0.37211 0.0
H1173 H 0.05898 0.13451 0.34933 0.0
H1174 H 0.03923 0.04985 0.38023 0.0
H1175 H 0.08194 0.08198 0.40335 0.0
C1176 C 0.25782 0.18504 0.40905 0.0
C1177 C 0.25641 0.1557 0.41114 0.0
C1178 C 0.23048 0.18727 0.41123 0.0
C1179 C 0.20127 0.16011 0.41565 0.0
C1180 C 0.19981 0.13059 0.41748 0.0
C1181 C 0.22721 0.1284 0.41516 0.0
C1182 C 0.17196 0.16224 0.41706 0.0
C1183 C 0.14636 0.14259 0.4051 0.0
C1184 C 0.17005 0.18513 0.42875 0.0
C1185 C 0.19556 0.20546 0.44247 0.0
C1186 C 0.20681 0.19182 0.45596 0.0
C1187 C 0.23047 0.21105 0.46906 0.0
C1188 C 0.2428 0.24392 0.46895 0.0
C1189 C 0.23192 0.25771 0.45553 0.0
C1190 C 0.20837 0.23861 0.44235 0.0
C1191 C 0.03508 0.15452 0.40723 0.0
C1192 C 0.04183 0.18278 0.39782 0.0
C1193 C 0.05978 0.15116 0.4149 0.0
C1194 C 0.09141 0.17588 0.41291 0.0
C1195 C 0.09765 0.20524 0.40531 0.0
C1196 C 0.07297 0.2086 0.39769 0.0
C1197 C 0.11799 0.16953 0.41515 0.0
C1198 C 0.14307 0.18855 0.42756 0.0
C1199 C 0.11969 0.14627 0.40379 0.0
C1200 C 0.09487 0.12687 0.38953 0.0
C1201 C 0.0884 0.14148 0.37406 0.0
C1202 C 0.06406 0.12314 0.36112 0.0
C1203 C 0.04628 0.09015 0.36338 0.0
C1204 C 0.05296 0.07541 0.37853 0.0
C1205 C 0.07724 0.09366 0.39155 0.0
H1206 H 0.02739 0.076 0.35337 0.0
H1207 H 0.26079 0.25871 0.47929 0.0
H1208 H 0.14195 0.98524 0.10777 0.0
H1209 H 0.09556 0.93358 0.09989 0.0
H1210 H 0.09439 0.9017 0.15824 0.0
H1211 H 0.14186 0.95241 0.16555 0.0
H1212 H 0.07619 0.85432 0.1369 0.0
H1213 H 0.04892 0.93811 0.13959 0.0
H1214 H 0.05214 0.98811 0.12891 0.0
H1215 H 0.02215 0.94962 0.07215 0.0
H1216 H 0.01932 0.8996 0.08242 0.0
H1217 H 0.90681 0.76172 0.15758 0.0
H1218 H 0.96117 0.80708 0.1555 0.0
H1219 H 0.9655 0.78739 0.09537 0.0
H1220 H 0.91133 0.74207 0.09726 0.0
H1221 H 0.98256 0.85783 0.11176 0.0
H1222 H 0.03201 0.78303 0.11065 0.0
H1223 H 0.03378 0.73668 0.12389 0.0
H1224 H 0.01747 0.76003 0.18087 0.0
H1225 H 0.01646 0.80695 0.16796 0.0
C1226 C 0.13214 0.96671 0.11866 0.0
C1227 C 0.14525 0.9725 0.13724 0.0
C1228 C 0.10546 0.93739 0.11425 0.0
C1229 C 0.09075 0.91394 0.12862 0.0
C1230 C 0.10508 0.91931 0.14688 0.0
C1231 C 0.13222 0.94826 0.1511 0.0
C1232 C 0.05955 0.88461 0.12534 0.0
C1233 C 0.05588 0.85535 0.13135 0.0
C1234 C 0.03279 0.88537 0.1178 0.0
C1235 C 0.03427 0.91531 0.11171 0.0
C1236 C 0.0432 0.94041 0.12481 0.0
C1237 C 0.04497 0.96874 0.11883 0.0
C1238 C 0.03743 0.97207 0.09985 0.0
C1239 C 0.02806 0.94705 0.08683 0.0
C1240 C 0.0264 0.91872 0.09271 0.0
C1241 C 0.91929 0.76709 0.14391 0.0
C1242 C 0.90475 0.74833 0.1276 0.0
C1243 C 0.95035 0.79284 0.14278 0.0
C1244 C 0.96723 0.80037 0.1253 0.0
C1245 C 0.95284 0.7818 0.10899 0.0
C1246 C 0.92191 0.75592 0.11014 0.0
C1247 C 0.9995 0.82843 0.12404 0.0
C1248 C 0.00321 0.85714 0.117 0.0
C1249 C 0.0262 0.82751 0.13094 0.0
C1250 C 0.02386 0.79805 0.13838 0.0
C1251 C 0.02856 0.77803 0.12597 0.0
C1252 C 0.02972 0.75189 0.13342 0.0
C1253 C 0.02579 0.74546 0.15321 0.0
C1254 C 0.02054 0.76505 0.16557 0.0
C1255 C 0.01976 0.79144 0.15821 0.0
H1256 H 0.02667 0.72519 0.15895 0.0
H1257 H 0.03878 0.99401 0.09525 0.0
H1258 H 0.86086 0.87778 0.42484 0.0
H1259 H 0.85642 0.92474 0.43205 0.0
H1260 H 0.78847 0.89995 0.38617 0.0
H1261 H 0.79233 0.85249 0.37913 0.0
H1262 H 0.86709 0.96696 0.39286 0.0
H1263 H 0.75166 0.90144 0.41048 0.0
H1264 H 0.70882 0.86141 0.43108 0.0
H1265 H 0.75805 0.9137 0.48161 0.0
H1266 H 0.80145 0.95372 0.46126 0.0
H1267 H 0.84984 0.09957 0.37873 0.0
H1268 H 0.84118 0.04564 0.37999 0.0
H1269 H 0.8358 0.04644 0.4421 0.0
H1270 H 0.84303 0.10007 0.4408 0.0
H1271 H 0.79493 0.9908 0.43073 0.0
H1272 H 0.90409 0.05884 0.41695 0.0
H1273 H 0.95161 0.10078 0.40036 0.0
H1274 H 0.92316 0.04665 0.348 0.0
H1275 H 0.87505 0.00473 0.36413 0.0
C1276 C 0.84415 0.88178 0.41674 0.0
C1277 C 0.82703 0.86165 0.40137 0.0
C1278 C 0.84154 0.90849 0.42093 0.0
C1279 C 0.82181 0.91553 0.40982 0.0
C1280 C 0.80325 0.89447 0.3952 0.0
C1281 C 0.80553 0.86744 0.39116 0.0
C1282 C 0.82554 0.94761 0.41092 0.0
C1283 C 0.85109 0.9722 0.40089 0.0
C1284 C 0.80569 0.95458 0.42226 0.0
C1285 C 0.78001 0.93015 0.43439 0.0
C1286 C 0.7536 0.90406 0.42599 0.0
C1287 C 0.72915 0.88148 0.43761 0.0
C1288 C 0.73078 0.88491 0.45765 0.0
C1289 C 0.75686 0.91098 0.4661 0.0
C1290 C 0.78139 0.93359 0.45453 0.0
C1291 C 0.8469 0.08828 0.39265 0.0
C1292 C 0.84758 0.10415 0.40968 0.0
C1293 C 0.84202 0.05745 0.39338 0.0
C1294 C 0.83868 0.04218 0.41117 0.0
C1295 C 0.83853 0.05773 0.4282 0.0
C1296 C 0.8428 0.08841 0.42745 0.0
C1297 C 0.83581 0.01023 0.41187 0.0
C1298 C 0.81088 0.98575 0.42251 0.0
C1299 C 0.85689 0.0035 0.40148 0.0
C1300 C 0.8858 0.02875 0.39172 0.0
C1301 C 0.90782 0.056 0.40185 0.0
C1302 C 0.93489 0.07977 0.39253 0.0
C1303 C 0.94041 0.0764 0.37314 0.0
C1304 C 0.91885 0.04926 0.36302 0.0
C1305 C 0.89167 0.02549 0.37224 0.0
H1306 H 0.96142 0.09481 0.36597 0.0
H1307 H 0.71178 0.86745 0.46662 0.0
H1308 H 0.20359 0.04621 0.61345 0.0
H1309 H 0.18691 0.08315 0.60127 0.0
H1310 H 0.15665 0.09054 0.65863 0.0
H1311 H 0.17379 0.05428 0.67072 0.0
H1312 H 0.11713 0.09167 0.63076 0.0
H1313 H 0.22958 0.14001 0.64464 0.0
H1314 H 0.28225 0.14517 0.64012 0.0
H1315 H 0.28178 0.16846 0.58041 0.0
H1316 H 0.22864 0.16264 0.5845 0.0
H1317 H 0.14159 0.24167 0.65375 0.0
H1318 H 0.14471 0.19335 0.651 0.0
H1319 H 0.17408 0.21583 0.59158 0.0
H1320 H 0.17116 0.26454 0.59424 0.0
H1321 H 0.20921 0.19535 0.61108 0.0
H1322 H 0.09867 0.16087 0.60364 0.0
H1323 H 0.0482 0.15752 0.61305 0.0
H1324 H 0.04621 0.10917 0.66535 0.0
H1325 H 0.09726 0.11331 0.65667 0.0
C1326 C 0.19292 0.05545 0.62328 0.0
C1327 C 0.19066 0.04826 0.64303 0.0
C1328 C 0.18329 0.07633 0.61635 0.0
C1329 C 0.1709 0.08981 0.62912 0.0
C1330 C 0.16622 0.08045 0.64856 0.0
C1331 C 0.17627 0.06004 0.65549 0.0
C1332 C 0.1667 0.11673 0.62325 0.0
C1333 C 0.13711 0.11433 0.6263 0.0
C1334 C 0.19277 0.14605 0.61716 0.0
C1335 C 0.225 0.15043 0.6148 0.0
C1336 C 0.24062 0.14599 0.63051 0.0
C1337 C 0.27053 0.14902 0.62803 0.0
C1338 C 0.2853 0.15702 0.60997 0.0
C1339 C 0.27023 0.16214 0.59437 0.0
C1340 C 0.2402 0.15893 0.59675 0.0
C1341 C 0.14864 0.23637 0.64006 0.0
C1342 C 0.15609 0.25694 0.6242 0.0
C1343 C 0.15032 0.20866 0.6385 0.0
C1344 C 0.15899 0.20068 0.62097 0.0
C1345 C 0.16709 0.22145 0.60519 0.0
C1346 C 0.1655 0.2493 0.60676 0.0
C1347 C 0.15983 0.17071 0.61941 0.0
C1348 C 0.18882 0.17254 0.61487 0.0
C1349 C 0.13332 0.141 0.62464 0.0
C1350 C 0.10196 0.13754 0.62951 0.0
C1351 C 0.08759 0.14968 0.6172 0.0
C1352 C 0.05887 0.1477 0.62244 0.0
C1353 C 0.04403 0.13313 0.63981 0.0
C1354 C 0.05778 0.12046 0.65193 0.0
C1355 C 0.08663 0.12267 0.64686 0.0
H1356 H 0.02189 0.13162 0.64396 0.0
H1357 H 0.30848 0.15937 0.60807 0.0
H1358 H 0.11003 0.87976 0.88571 0.0
H1359 H 0.05732 0.87445 0.88859 0.0
H1360 H 0.03961 0.81922 0.94053 0.0
H1361 H 0.09292 0.82646 0.93864 0.0
H1362 H 0.99087 0.79551 0.90352 0.0
H1363 H 0.04639 0.87521 0.95294 0.0
H1364 H 0.09192 0.92552 0.96416 0.0
H1365 H 0.07312 0.97685 0.92064 0.0
H1366 H 0.0279 0.92666 0.90886 0.0
H1367 H 0.84104 0.77832 0.91286 0.0
H1368 H 0.892 0.78918 0.92665 0.0
H1369 H 0.94007 0.87693 0.89435 0.0
H1370 H 0.88929 0.86637 0.88097 0.0
H1371 H 0.97305 0.88218 0.92631 0.0
H1372 H 0.92504 0.80823 0.87433 0.0
H1373 H 0.88147 0.7607 0.85899 0.0
H1374 H 0.88859 0.70133 0.90232 0.0
H1375 H 0.93172 0.74871 0.91822 0.0
C1376 C 0.09505 0.86665 0.89783 0.0
C1377 C 0.1055 0.85275 0.91168 0.0
C1378 C 0.06495 0.86362 0.89942 0.0
C1379 C 0.04462 0.84627 0.9147 0.0
C1380 C 0.05492 0.83252 0.92857 0.0
C1381 C 0.08532 0.83635 0.92731 0.0
C1382 C 0.01242 0.84221 0.91597 0.0
C1383 C 0.98677 0.8141 0.90892 0.0
C1384 C 0.00742 0.8669 0.92251 0.0
C1385 C 0.03402 0.89714 0.92988 0.0
C1386 C 0.05218 0.89717 0.94563 0.0
C1387 C 0.0779 0.92567 0.95211 0.0
C1388 C 0.08549 0.95436 0.94307 0.0
C1389 C 0.06727 0.9546 0.92759 0.0
C1390 C 0.04159 0.92613 0.92101 0.0
C1391 C 0.86234 0.80057 0.90945 0.0
C1392 C 0.86149 0.82137 0.89572 0.0
C1393 C 0.89146 0.8067 0.91722 0.0
C1394 C 0.92 0.83347 0.91111 0.0
C1395 C 0.9185 0.85604 0.89919 0.0
C1396 C 0.88949 0.84996 0.89149 0.0
C1397 C 0.95117 0.83523 0.91398 0.0
C1398 C 0.97683 0.8631 0.92149 0.0
C1399 C 0.9564 0.81057 0.90745 0.0
C1400 C 0.93127 0.78199 0.8976 0.0
C1401 C 0.91719 0.78505 0.88064 0.0
C1402 C 0.89255 0.75815 0.87187 0.0
C1403 C 0.88221 0.72801 0.87971 0.0
C1404 C 0.89657 0.72471 0.89631 0.0
C1405 C 0.92107 0.75158 0.90523 0.0
H1406 H 0.86312 0.7072 0.87289 0.0
H1407 H 0.10543 0.97641 0.94809 0.0
H1408 H 0.72693 0.92592 0.63771 0.0
H1409 H 0.77321 0.97907 0.63365 0.0
H1410 H 0.82311 0.93827 0.60476 0.0
H1411 H 0.77654 0.88494 0.60902 0.0
H1412 H 0.86032 0.97928 0.63002 0.0
H1413 H 0.7964 0.98513 0.57907 0.0
H1414 H 0.75244 0.98569 0.56172 0.0
H1415 H 0.75348 0.0528 0.60234 0.0
H1416 H 0.79743 0.05266 0.61989 0.0
H1417 H 0.99021 0.13472 0.61903 0.0
H1418 H 0.94555 0.08585 0.60595 0.0
H1419 H 0.88046 0.10093 0.64058 0.0
H1420 H 0.92501 0.149 0.65398 0.0
H1421 H 0.85456 0.07245 0.60591 0.0
H1422 H 0.91446 0.06303 0.65864 0.0
H1423 H 0.9645 0.07156 0.6729 0.0
H1424 H 0.97153 0.01268 0.62934 0.0
H1425 H 0.92198 0.00464 0.61444 0.0
C1426 C 0.74765 0.92849 0.63028 0.0
C1427 C 0.74833 0.90169 0.62353 0.0
C1428 C 0.77405 0.95882 0.62787 0.0
C1429 C 0.80152 0.96284 0.61852 0.0
C1430 C 0.80215 0.93583 0.61187 0.0
C1431 C 0.7757 0.90546 0.61435 0.0
C1432 C 0.83023 0.99494 0.61698 0.0
C1433 C 0.85912 0.99946 0.62433 0.0
C1434 C 0.82881 0.02158 0.60993 0.0
C1435 C 0.8001 0.01882 0.60077 0.0
C1436 C 0.78692 0.99963 0.58444 0.0
C1437 C 0.76223 1.00012 0.57448 0.0
C1438 C 0.75048 0.01959 0.5808 0.0
C1439 C 0.76282 0.03799 0.59736 0.0
C1440 C 0.78762 0.03773 0.6073 0.0
C1441 C 0.96628 0.12799 0.62337 0.0
C1442 C 0.96085 0.14495 0.63778 0.0
C1443 C 0.94084 0.10017 0.61589 0.0
C1444 C 0.90985 0.08949 0.62267 0.0
C1445 C 0.90422 0.10867 0.63528 0.0
C1446 C 0.9296 0.13609 0.64292 0.0
C1447 C 0.88396 0.05658 0.61922 0.0
C1448 C 0.8557 0.05197 0.61114 0.0
C1449 C 0.88585 0.02998 0.6258 0.0
C1450 C 0.91479 0.0336 0.63526 0.0
C1451 C 0.92679 0.05207 0.65202 0.0
C1452 C 0.95509 0.05687 0.6602 0.0
C1453 C 0.97125 0.04276 0.65199 0.0
C1454 C 0.95905 0.0237 0.63564 0.0
C1455 C 0.9309 0.01907 0.62728 0.0
H1456 H 0.99318 0.04652 0.65834 0.0
H1457 H 0.73167 0.02032 0.57293 0.0
H1458 H 0.20697 0.28115 0.90306 0.0
H1459 H 0.21316 0.23488 0.90787 0.0
H1460 H 0.11152 0.17586 0.91423 0.0
H1461 H 0.10579 0.22317 0.91051 0.0
H1462 H 0.14354 0.15977 0.94055 0.0
H1463 H 0.14641 0.17711 0.87239 0.0
H1464 H 0.16424 0.20699 0.84181 0.0
H1465 H 0.25908 0.22534 0.85185 0.0
H1466 H 0.24188 0.19596 0.88265 0.0
H1467 H 0.12898 0.01508 0.90258 0.0
H1468 H 0.12648 0.06052 0.91576 0.0
H1469 H 0.22888 0.1158 0.91558 0.0
H1470 H 0.23131 0.0702 0.90259 0.0
H1471 H 0.19854 0.13481 0.88908 0.0
H1472 H 0.19381 0.11235 0.95605 0.0
H1473 H 0.17486 0.08084 0.986 0.0
H1474 H 0.08223 0.06934 0.97752 0.0
H1475 H 0.10052 0.10046 0.94738 0.0
C1476 C 0.18622 0.25859 0.90612 0.0
C1477 C 0.15619 0.25582 0.907 0.0
C1478 C 0.1896 0.232 0.90853 0.0
C1479 C 0.16278 0.20189 0.91141 0.0
C1480 C 0.13253 0.19893 0.91216 0.0
C1481 C 0.12925 0.22578 0.90984 0.0
C1482 C 0.16649 0.17352 0.91278 0.0
C1483 C 0.15524 0.15402 0.92923 0.0
C1484 C 0.18245 0.16654 0.89823 0.0
C1485 C 0.19295 0.18469 0.87991 0.0
C1486 C 0.17114 0.18782 0.86817 0.0
C1487 C 0.18111 0.2046 0.85078 0.0
C1488 C 0.2128 0.21814 0.84492 0.0
C1489 C 0.23456 0.21491 0.85643 0.0
C1490 C 0.22472 0.1982 0.87385 0.0
C1491 C 0.15087 0.03645 0.90635 0.0
C1492 C 0.18032 0.03949 0.90159 0.0
C1493 C 0.14946 0.06233 0.91391 0.0
C1494 C 0.17751 0.09153 0.9165 0.0
C1495 C 0.20701 0.09338 0.91375 0.0
C1496 C 0.20841 0.06741 0.90637 0.0
C1497 C 0.17585 0.12106 0.91691 0.0
C1498 C 0.18722 0.1407 0.90059 0.0
C1499 C 0.15979 0.12779 0.93149 0.0
C1500 C 0.14846 0.10848 0.94936 0.0
C1501 C 0.16929 0.10278 0.96045 0.0
C1502 C 0.15871 0.08509 0.9775 0.0
C1503 C 0.12734 0.07303 0.98364 0.0
C1504 C 0.10651 0.07867 0.97274 0.0
C1505 C 0.11699 0.09637 0.95569 0.0
H1506 H 0.11921 0.05938 0.99686 0.0
H1507 H 0.22046 0.23106 0.83143 0.0
H1508 H 0.09457 0.82711 0.59594 0.0
H1509 H 0.04164 0.82078 0.59466 0.0
H1510 H 0.05832 0.86947 0.64908 0.0
H1511 H 0.11056 0.8741 0.65103 0.0
H1512 H 1.00167 0.81995 0.64917 0.0
H1513 H 0.06186 0.90534 0.60429 0.0
H1514 H 0.0965 0.93017 0.57601 0.0
H1515 H 0.02582 0.85904 0.53921 0.0
H1516 H 0.99097 0.83349 0.56734 0.0
H1517 H 0.89234 0.87181 0.64875 0.0
H1518 H 0.94298 0.87988 0.63627 0.0
H1519 H 0.8945 0.78689 0.61039 0.0
H1520 H 0.84388 0.77845 0.62332 0.0
H1521 H 0.96463 0.85629 0.59309 0.0
H1522 H 0.91175 0.76524 0.64097 0.0
H1523 H 0.87635 0.74365 0.66932 0.0
H1524 H 0.93431 0.8306 0.7 0.0
H1525 H 0.96978 0.85273 0.67168 0.0
C1526 C 0.08685 0.83605 0.60778 0.0
C1527 C 0.10663 0.85059 0.62376 0.0
C1528 C 0.05669 0.83282 0.60689 0.0
C1529 C 0.04607 0.84493 0.62167 0.0
C1530 C 0.06595 0.85985 0.63751 0.0
C1531 C 0.0959 0.86261 0.63857 0.0
C1532 C 0.01404 0.84162 0.62093 0.0
C1533 C 0.9938 0.82795 0.63685 0.0
C1534 C 0.00332 0.85168 0.60483 0.0
C1535 C 0.02396 0.86737 0.58791 0.0
C1536 C 0.0538 0.89491 0.59017 0.0
C1537 C 0.07346 0.90911 0.57418 0.0
C1538 C 0.06339 0.89615 0.55583 0.0
C1539 C 0.0336 0.86902 0.55343 0.0
C1540 C 0.01388 0.85469 0.56939 0.0
C1541 C 0.89237 0.85379 0.63958 0.0
C1542 C 0.86435 0.82469 0.63674 0.0
C1543 C 0.92122 0.85844 0.63243 0.0
C1544 C 0.92232 0.83403 0.62236 0.0
C1545 C 0.89393 0.80616 0.61785 0.0
C1546 C 0.86503 0.8014 0.62515 0.0
C1547 C 0.95285 0.83455 0.62117 0.0
C1548 C 0.97268 0.84787 0.60512 0.0
C1549 C 0.96343 0.82427 0.63707 0.0
C1550 C 0.94328 0.81052 0.65434 0.0
C1551 C 0.91691 0.77964 0.65382 0.0
C1552 C 0.89683 0.76736 0.66983 0.0
C1553 C 0.90311 0.78572 0.68646 0.0
C1554 C 0.92953 0.81638 0.68712 0.0
C1555 C 0.94963 0.82878 0.67112 0.0
H1556 H 0.88747 0.77622 0.69883 0.0
H1557 H 0.07865 0.90717 0.54345 0.0
H1558 H 0.91931 0.15454 0.89191 0.0
H1559 H 0.87735 0.10441 0.9052 0.0
H1560 H 0.94758 0.08008 0.92295 0.0
H1561 H 0.98966 0.13041 0.90936 0.0
H1562 H 0.90698 0.03844 0.89809 0.0
H1563 H 0.89572 0.08326 0.95642 0.0
H1564 H 0.89058 0.12184 0.97693 0.0
H1565 H 0.80361 0.09979 0.94848 0.0
H1566 H 0.80838 0.06133 0.92765 0.0
H1567 H 0.78032 0.88198 0.91586 0.0
H1568 H 0.8269 0.93464 0.92021 0.0
H1569 H 0.77114 0.97808 0.90522 0.0
H1570 H 0.72454 0.9255 0.90107 0.0
H1571 H 0.80795 0.00866 0.93441 0.0
H1572 H 0.82406 0.97335 0.87266 0.0
H1573 H 0.82888 0.93667 0.8502 0.0
H1574 H 0.90669 0.94347 0.88317 0.0
H1575 H 0.90213 0.98002 0.90592 0.0
C1576 C 0.9258 0.13914 0.89951 0.0
C1577 C 0.95747 0.14612 0.89974 0.0
C1578 C 0.90185 0.11049 0.90713 0.0
C1579 C 0.90929 0.0884 0.91506 0.0
C1580 C 0.94135 0.09681 0.91694 0.0
C1581 C 0.96535 0.12559 0.90932 0.0
C1582 C 0.8837 0.05487 0.91756 0.0
C1583 C 0.88571 0.03176 0.90653 0.0
C1584 C 0.85548 0.04636 0.92795 0.0
C1585 C 0.85248 0.06948 0.94043 0.0
C1586 C 0.8756 0.08678 0.95446 0.0
C1587 C 0.87273 0.1086 0.96616 0.0
C1588 C 0.8468 0.11328 0.964 0.0
C1589 C 0.82366 0.09612 0.95015 0.0
C1590 C 0.8264 0.07425 0.93842 0.0
C1591 C 0.778 0.90275 0.91345 0.0
C1592 C 0.74859 0.89955 0.90833 0.0
C1593 C 0.80467 0.93287 0.91594 0.0
C1594 C 0.80263 0.9604 0.91295 0.0
C1595 C 0.77328 0.95723 0.90779 0.0
C1596 C 0.74658 0.92713 0.90547 0.0
C1597 C 0.83117 0.99253 0.91471 0.0
C1598 C 0.82958 0.01526 0.9264 0.0
C1599 C 0.85973 1.00095 0.90471 0.0
C1600 C 0.8625 0.97904 0.89109 0.0
C1601 C 0.84204 0.96682 0.87518 0.0
C1602 C 0.84476 0.94612 0.86239 0.0
C1603 C 0.86801 0.93766 0.8653 0.0
C1604 C 0.88866 0.95 0.88096 0.0
C1605 C 0.88605 0.97073 0.89379 0.0
H1606 H 0.87006 0.9216 0.85538 0.0
H1607 H 0.84462 0.13019 0.97308 0.0
H1608 H 0.39753 0.20125 0.35068 0.0
H1609 H 0.4026 0.20857 0.31539 0.0
H1610 H 0.30105 0.16696 0.31089 0.0
H1611 H 0.29592 0.16016 0.34571 0.0
H1612 H 0.32303 0.13722 0.28773 0.0
H1613 H 0.34676 0.24248 0.30164 0.0
H1614 H 0.37467 0.29586 0.31612 0.0
H1615 H 0.46109 0.3152 0.28768 0.0
H1616 H 0.4338 0.26161 0.2733 0.0
H1617 H 0.29713 0.15897 0.19072 0.0
H1618 H 0.30191 0.16616 0.22552 0.0
H1619 H 0.40265 0.20185 0.22146 0.0
H1620 H 0.39806 0.19521 0.18612 0.0
H1621 H 0.38505 0.23527 0.2488 0.0
H1622 H 0.35848 0.11814 0.24781 0.0
H1623 H 0.32712 0.0635 0.23506 0.0
H1624 H 0.24209 0.06945 0.23871 0.0
H1625 H 0.27291 0.12371 0.25204 0.0
C1626 C 0.37643 0.19444 0.34218 0.0
C1627 C 0.3463 0.17983 0.35105 0.0
C1628 C 0.37933 0.19852 0.322 0.0
C1629 C 0.35215 0.18804 0.31039 0.0
C1630 C 0.32236 0.17501 0.31942 0.0
C1631 C 0.31949 0.17119 0.33942 0.0
C1632 C 0.35389 0.18801 0.28885 0.0
C1633 C 0.33654 0.15882 0.27932 0.0
C1634 C 0.3717 0.21595 0.27767 0.0
C1635 C 0.38838 0.24783 0.28666 0.0
C1636 C 0.37184 0.25791 0.29871 0.0
C1637 C 0.38751 0.28826 0.30684 0.0
C1638 C 0.41967 0.30886 0.30289 0.0
C1639 C 0.43621 0.29916 0.29078 0.0
C1640 C 0.42066 0.2688 0.28265 0.0
C1641 C 0.32047 0.16881 0.19713 0.0
C1642 C 0.34722 0.17645 0.18559 0.0
C1643 C 0.32308 0.17253 0.21714 0.0
C1644 C 0.35244 0.18356 0.22629 0.0
C1645 C 0.37964 0.19294 0.21477 0.0
C1646 C 0.37707 0.18942 0.19456 0.0
C1647 C 0.35411 0.18454 0.24785 0.0
C1648 C 0.37199 0.21379 0.25734 0.0
C1649 C 0.33634 0.15681 0.25915 0.0
C1650 C 0.318 0.12501 0.25043 0.0
C1651 C 0.33313 0.10779 0.24571 0.0
C1652 C 0.31544 0.07686 0.23855 0.0
C1653 C 0.2827 0.06315 0.23588 0.0
C1654 C 0.26749 0.08017 0.24065 0.0
C1655 C 0.285 0.11091 0.24811 0.0
H1656 H 0.26908 0.03927 0.23024 0.0
H1657 H 0.43175 0.33239 0.30916 0.0
H1658 H 0.81401 0.60948 0.35152 0.0
H1659 H 0.81886 0.60266 0.31673 0.0
H1660 H 0.85863 0.70334 0.308 0.0
H1661 H 0.85503 0.71056 0.34245 0.0
H1662 H 0.78877 0.63217 0.2874 0.0
H1663 H 0.90731 0.71374 0.29273 0.0
H1664 H 0.95865 0.72948 0.30833 0.0
H1665 H 0.94627 0.63708 0.29695 0.0
H1666 H 0.89443 0.62063 0.28174 0.0
H1667 H 0.85985 0.70667 0.19247 0.0
H1668 H 0.86037 0.69899 0.2271 0.0
H1669 H 0.81281 0.59759 0.21897 0.0
H1670 H 0.80977 0.60499 0.18402 0.0
H1671 H 0.8852 0.66048 0.24859 0.0
H1672 H 0.76909 0.58237 0.23815 0.0
H1673 H 0.71598 0.5662 0.22526 0.0
H1674 H 0.7205 0.64944 0.24978 0.0
H1675 H 0.77465 0.66722 0.26155 0.0
C1676 C 0.82456 0.63026 0.34226 0.0
C1677 C 0.83392 0.66053 0.34987 0.0
C1678 C 0.82728 0.62632 0.32236 0.0
C1679 C 0.83967 0.65258 0.30975 0.0
C1680 C 0.84983 0.68283 0.31742 0.0
C1681 C 0.84742 0.68683 0.33721 0.0
C1682 C 0.83868 0.64829 0.2884 0.0
C1683 C 0.80977 0.63795 0.27891 0.0
C1684 C 0.86599 0.65593 0.27728 0.0
C1685 C 0.89686 0.66581 0.28648 0.0
C1686 C 0.91533 0.69666 0.29385 0.0
C1687 C 0.94454 0.70574 0.30256 0.0
C1688 C 0.95565 0.68424 0.30372 0.0
C1689 C 0.93757 0.65365 0.29614 0.0
C1690 C 0.90826 0.64442 0.28753 0.0
C1691 C 0.8491 0.68256 0.19794 0.0
C1692 C 0.83382 0.65639 0.18534 0.0
C1693 C 0.84949 0.67827 0.21787 0.0
C1694 C 0.83539 0.64769 0.2259 0.0
C1695 C 0.82237 0.62142 0.21331 0.0
C1696 C 0.82121 0.62568 0.19324 0.0
C1697 C 0.83503 0.64416 0.24739 0.0
C1698 C 0.8639 0.65375 0.25699 0.0
C1699 C 0.80758 0.63591 0.25866 0.0
C1700 C 0.77645 0.62675 0.24998 0.0
C1701 C 0.75937 0.59793 0.24002 0.0
C1702 C 0.72895 0.58834 0.23305 0.0
C1703 C 0.71495 0.60688 0.23657 0.0
C1704 C 0.73143 0.63516 0.24696 0.0
C1705 C 0.76216 0.64523 0.25352 0.0
H1706 H 0.69126 0.59926 0.23134 0.0
H1707 H 0.97831 0.69133 0.3104 0.0
H1708 H 0.83119 0.13162 0.18958 0.0
H1709 H 0.82356 0.13024 0.22448 0.0
H1710 H 0.80811 0.21001 0.22013 0.0
H1711 H 0.81583 0.21142 0.18497 0.0
H1712 H 0.85297 0.21959 0.24689 0.0
H1713 H 0.74746 0.13464 0.23281 0.0
H1714 H 0.70837 0.0837 0.21815 0.0
H1715 H 0.74689 0.03527 0.25031 0.0
H1716 H 0.78654 0.08601 0.26494 0.0
H1717 H 0.82212 0.21752 0.34924 0.0
H1718 H 0.81646 0.21668 0.31389 0.0
H1719 H 0.82905 0.13508 0.31082 0.0
H1720 H 0.8349 0.13604 0.34586 0.0
H1721 H 0.78151 0.12688 0.28759 0.0
H1722 H 0.89877 0.20969 0.28089 0.0
H1723 H 0.94828 0.26037 0.28685 0.0
H1724 H 0.89479 0.3085 0.29193 0.0
H1725 H 0.84511 0.25813 0.28552 0.0
C1726 C 0.82542 0.14842 0.196 0.0
C1727 C 0.82397 0.17156 0.18448 0.0
C1728 C 0.82097 0.14755 0.21601 0.0
C1729 C 0.81497 0.16985 0.2251 0.0
C1730 C 0.8125 0.19239 0.21352 0.0
C1731 C 0.81663 0.19305 0.1934 0.0
C1732 C 0.81427 0.17138 0.2467 0.0
C1733 C 0.83664 0.19952 0.25575 0.0
C1734 C 0.79424 0.14478 0.25844 0.0
C1735 C 0.77009 0.11418 0.24989 0.0
C1736 C 0.74772 0.11316 0.23667 0.0
C1737 C 0.72545 0.08432 0.22837 0.0
C1738 C 0.72517 0.05628 0.23327 0.0
C1739 C 0.74712 0.05701 0.24652 0.0
C1740 C 0.76948 0.0858 0.25485 0.0
C1741 C 0.82301 0.19905 0.34103 0.0
C1742 C 0.82861 0.17664 0.35044 0.0
C1743 C 0.8204 0.19893 0.32074 0.0
C1744 C 0.82288 0.17614 0.30944 0.0
C1745 C 0.82725 0.15308 0.319 0.0
C1746 C 0.83038 0.15353 0.33912 0.0
C1747 C 0.81998 0.17543 0.28781 0.0
C1748 C 0.79718 0.14724 0.27874 0.0
C1749 C 0.8402 0.20163 0.27592 0.0
C1750 C 0.86832 0.23016 0.28336 0.0
C1751 C 0.89761 0.23101 0.28371 0.0
C1752 C 0.92572 0.25974 0.28679 0.0
C1753 C 0.9247 0.28768 0.28968 0.0
C1754 C 0.89553 0.28686 0.28969 0.0
C1755 C 0.8674 0.25823 0.28635 0.0
H1756 H 0.94647 0.30991 0.29208 0.0
H1757 H 0.70793 0.03397 0.22682 0.0
H1758 H 0.17115 0.30304 0.68917 0.0
H1759 H 0.17734 0.3084 0.72415 0.0
H1760 H 0.19412 0.40407 0.72032 0.0
H1761 H 0.18878 0.39913 0.68489 0.0
H1762 H 0.23774 0.38065 0.74713 0.0
H1763 H 0.11832 0.36811 0.76131 0.0
H1764 H 0.062 0.34118 0.75156 0.0
H1765 H 0.06999 0.26341 0.72866 0.0
H1766 H 0.12592 0.28937 0.73893 0.0
H1767 H 0.2014 0.40034 0.84992 0.0
H1768 H 0.21003 0.4067 0.81469 0.0
H1769 H 0.1713 0.30566 0.80909 0.0
H1770 H 0.16378 0.2993 0.84387 0.0
H1771 H 0.14008 0.33627 0.78719 0.0
H1772 H 0.23865 0.33973 0.7997 0.0
H1773 H 0.29158 0.36054 0.81421 0.0
H1774 H 0.32361 0.45058 0.78631 0.0
H1775 H 0.27058 0.43045 0.77192 0.0
C1776 C 0.17672 0.32549 0.69568 0.0
C1777 C 0.1796 0.35072 0.68413 0.0
C1778 C 0.17986 0.32837 0.71577 0.0
C1779 C 0.18525 0.35627 0.72503 0.0
C1780 C 0.18948 0.38209 0.71356 0.0
C1781 C 0.18682 0.37941 0.69328 0.0
C1782 C 0.1867 0.35813 0.74662 0.0
C1783 C 0.21638 0.37137 0.75586 0.0
C1784 C 0.15897 0.34556 0.75825 0.0
C1785 C 0.12665 0.33131 0.75013 0.0
C1786 C 0.10812 0.34547 0.75394 0.0
C1787 C 0.07614 0.33017 0.74859 0.0
C1788 C 0.06246 0.30068 0.73939 0.0
C1789 C 0.08071 0.28641 0.73559 0.0
C1790 C 0.11262 0.30149 0.74111 0.0
C1791 C 0.19563 0.37967 0.84121 0.0
C1792 C 0.18149 0.34926 0.84975 0.0
C1793 C 0.20044 0.3833 0.82107 0.0
C1794 C 0.19111 0.35659 0.80919 0.0
C1795 C 0.17863 0.3266 0.81787 0.0
C1796 C 0.17434 0.32305 0.83784 0.0
C1797 C 0.19096 0.35881 0.78767 0.0
C1798 C 0.16152 0.34624 0.77846 0.0
C1799 C 0.21881 0.37153 0.7762 0.0
C1800 C 0.2505 0.38378 0.78501 0.0
C1801 C 0.25681 0.36413 0.7969 0.0
C1802 C 0.28687 0.37575 0.80504 0.0
C1803 C 0.31091 0.40691 0.80126 0.0
C1804 C 0.30494 0.42648 0.78929 0.0
C1805 C 0.27488 0.41499 0.78114 0.0
H1806 H 0.3342 0.41586 0.80754 0.0
H1807 H 0.03772 0.28889 0.73521 0.0
H1808 H 0.15733 0.86336 0.84268 0.0
H1809 H 0.15657 0.85648 0.80849 0.0
H1810 H 0.17373 0.77817 0.81622 0.0
H1811 H 0.18101 0.7896 0.85099 0.0
H1812 H 0.20038 0.8022 0.78624 0.0
H1813 H 0.09261 0.77736 0.80287 0.0
H1814 H 0.05349 0.78917 0.81774 0.0
H1815 H 0.08898 0.87387 0.78333 0.0
H1816 H 0.12838 0.86271 0.7684 0.0
H1817 H 0.18518 0.78968 0.68236 0.0
H1818 H 0.17627 0.77628 0.71683 0.0
H1819 H 0.15362 0.85087 0.72511 0.0
H1820 H 0.15648 0.85964 0.69105 0.0
H1821 H 0.12145 0.814 0.7476 0.0
H1822 H 0.23578 0.84577 0.73617 0.0
H1823 H 0.27604 0.83566 0.7212 0.0
H1824 H 0.22912 0.74111 0.74483 0.0
H1825 H 0.18858 0.75066 0.7598 0.0
C1826 C 0.16139 0.84478 0.83731 0.0
C1827 C 0.17021 0.82772 0.84987 0.0
C1828 C 0.15995 0.84017 0.81741 0.0
C1829 C 0.16344 0.81566 0.80921 0.0
C1830 C 0.1707 0.79726 0.82183 0.0
C1831 C 0.17452 0.80352 0.84186 0.0
C1832 C 0.1608 0.81048 0.78758 0.0
C1833 C 0.18287 0.80462 0.77791 0.0
C1834 C 0.13814 0.81344 0.77612 0.0
C1835 C 0.1134 0.81915 0.78454 0.0
C1836 C 0.09194 0.79841 0.79844 0.0
C1837 C 0.06979 0.80505 0.80691 0.0
C1838 C 0.06876 0.83225 0.80149 0.0
C1839 C 0.08974 0.85278 0.7875 0.0
C1840 C 0.11191 0.84626 0.77899 0.0
C1841 C 0.17783 0.80278 0.6916 0.0
C1842 C 0.1729 0.82674 0.68378 0.0
C1843 C 0.17335 0.79559 0.71155 0.0
C1844 C 0.1655 0.81333 0.72435 0.0
C1845 C 0.15969 0.83644 0.71616 0.0
C1846 C 0.1621 0.84206 0.69636 0.0
C1847 C 0.16292 0.80882 0.7461 0.0
C1848 C 0.13928 0.81203 0.75588 0.0
C1849 C 0.18437 0.804 0.75755 0.0
C1850 C 0.20917 0.79884 0.74894 0.0
C1851 C 0.23417 0.82288 0.73816 0.0
C1852 C 0.25696 0.81722 0.72966 0.0
C1853 C 0.2551 0.78775 0.73203 0.0
C1854 C 0.23053 0.76391 0.74298 0.0
C1855 C 0.20768 0.76943 0.75149 0.0
H1856 H 0.27272 0.78339 0.7254 0.0
H1857 H 0.05169 0.83741 0.80813 0.0
H1858 H 0.6098 0.79091 0.68553 0.0
H1859 H 0.60607 0.79405 0.72071 0.0
H1860 H 0.69928 0.87783 0.72136 0.0
H1861 H 0.70351 0.87358 0.68659 0.0
H1862 H 0.69926 0.84386 0.74759 0.0
H1863 H 0.62425 0.87567 0.73167 0.0
H1864 H 0.57712 0.87264 0.71635 0.0
H1865 H 0.51675 0.78515 0.7463 0.0
H1866 H 0.5636 0.78743 0.76159 0.0
H1867 H 0.70314 0.87475 0.84665 0.0
H1868 H 0.69905 0.87962 0.81187 0.0
H1869 H 0.60823 0.7929 0.81203 0.0
H1870 H 0.6115 0.78929 0.84727 0.0
H1871 H 0.60642 0.82952 0.78549 0.0
H1872 H 0.68488 0.79836 0.79842 0.0
H1873 H 0.73303 0.80387 0.81425 0.0
H1874 H 0.78879 0.89644 0.78871 0.0
H1875 H 0.74077 0.89123 0.77314 0.0
C1876 C 0.62911 0.81038 0.69319 0.0
C1877 C 0.65689 0.83206 0.68326 0.0
C1878 C 0.62702 0.81223 0.71338 0.0
C1879 C 0.65235 0.83632 0.72403 0.0
C1880 C 0.67942 0.85879 0.7138 0.0
C1881 C 0.68176 0.85652 0.6938 0.0
C1882 C 0.65204 0.8371 0.74579 0.0
C1883 C 0.67905 0.84133 0.75573 0.0
C1884 C 0.62565 0.83312 0.75683 0.0
C1885 C 0.59746 0.83155 0.74761 0.0
C1886 C 0.60095 0.85564 0.73486 0.0
C1887 C 0.57428 0.85408 0.7262 0.0
C1888 C 0.54397 0.82867 0.73031 0.0
C1889 C 0.54026 0.80479 0.74311 0.0
C1890 C 0.56685 0.80621 0.75178 0.0
C1891 C 0.68197 0.85708 0.83931 0.0
C1892 C 0.65762 0.83169 0.84973 0.0
C1893 C 0.67981 0.8596 0.8193 0.0
C1894 C 0.65384 0.83603 0.8089 0.0
C1895 C 0.6287 0.81138 0.81948 0.0
C1896 C 0.63048 0.80935 0.83968 0.0
C1897 C 0.65366 0.83642 0.78712 0.0
C1898 C 0.62661 0.8323 0.77722 0.0
C1899 C 0.68028 0.84121 0.77599 0.0
C1900 C 0.70929 0.84442 0.78498 0.0
C1901 C 0.70746 0.8198 0.79645 0.0
C1902 C 0.73465 0.8229 0.8053 0.0
C1903 C 0.76395 0.85057 0.80256 0.0
C1904 C 0.76608 0.87506 0.79088 0.0
C1905 C 0.73887 0.872 0.78204 0.0
H1906 H 0.78501 0.85299 0.80942 0.0
H1907 H 0.52334 0.82752 0.7236 0.0
H1908 H 0.2669 0.9198 0.9523 0.0
H1909 H 0.28665 0.96271 0.97533 0.0
H1910 H 0.19066 0.92837 0.99571 0.0
H1911 H 0.17101 0.89081 0.96894 0.0
H1912 H 0.21071 0.98058 1.00097 0.0
H1913 H 0.27311 0.93049 0.02012 0.0
H1914 H 0.31001 0.91061 1.01337 0.0
H1915 H 0.3794 0.00252 0.9917 0.0
H1916 H 0.34288 0.02282 0.99822 0.0
H1917 H 0.25621 0.06666 0.0884 0.0
H1918 H 0.23927 0.02863 0.06253 0.0
H1919 H 0.33116 0.08289 0.03538 0.0
H1920 H 0.3495 0.12009 0.06277 0.0
H1921 H 0.31539 0.02495 0.03274 0.0
H1922 H 0.25125 0.07405 0.01832 0.0
H1923 H 0.21276 0.09133 0.02645 0.0
H1924 H 0.14399 0.99586 0.04299 0.0
H1925 H 0.18205 0.97807 0.03501 0.0
C1926 C 0.25008 0.92151 0.96177 0.0
C1927 C 0.21741 0.90219 0.95854 0.0
C1928 C 0.26153 0.9459 0.97559 0.0
C1929 C 0.24084 0.94943 0.98843 0.0
C1930 C 0.20792 0.92765 0.98618 0.0
C1931 C 0.19642 0.90527 0.97108 0.0
C1932 C 0.25276 0.97631 1.00329 0.0
C1933 C 0.23334 0.98929 1.00812 0.0
C1934 C 0.28297 0.98996 1.01258 0.0
C1935 C 0.30526 0.97805 1.00957 0.0
C1936 C 0.2963 0.94642 1.014 0.0
C1937 C 0.3171 0.93509 1.01016 0.0
C1938 C 0.34699 0.95527 1.00208 0.0
C1939 C 0.35626 0.98691 0.99796 0.0
C1940 C 0.33557 0.99836 1.00176 0.0
C1941 C 0.273 0.07103 0.07688 0.0
C1942 C 0.30454 0.0967 0.07796 0.0
C1943 C 0.26294 0.04912 0.06174 0.0
C1944 C 0.28339 0.0527 0.04639 0.0
C1945 C 0.31458 0.07924 0.04689 0.0
C1946 C 0.32507 0.10089 0.06249 0.0
C1947 C 0.27275 0.02769 0.03072 0.0
C1948 C 0.29255 0.01546 0.02567 0.0
C1949 C 0.2425 0.01403 0.02171 0.0
C1950 C 0.21954 0.02479 0.02612 0.0
C1951 C 0.22793 0.05678 0.0237 0.0
C1952 C 0.20618 0.06665 0.02828 0.0
C1953 C 0.17597 0.04471 0.03525 0.0
C1954 C 0.16737 0.01283 0.03757 0.0
C1955 C 0.18898 0.00283 0.03297 0.0
H1956 H 0.15921 0.05242 0.03882 0.0
H1957 H 0.36299 0.9464 0.99903 0.0
H1958 H 0.75098 0.64997 0.46337 0.0
H1959 H 0.73 0.66894 0.48939 0.0
H1960 H 0.81135 0.76293 0.48376 0.0
H1961 H 0.83142 0.74453 0.45721 0.0
H1962 H 0.78398 0.72962 0.52605 0.0
H1963 H 0.765 0.76728 0.46559 0.0
H1964 H 0.74511 0.76124 0.43234 0.0
H1965 H 0.65055 0.69564 0.45205 0.0
H1966 H 0.67019 0.70045 0.48536 0.0
H1967 H 0.74552 0.82777 0.57942 0.0
H1968 H 0.76394 0.80785 0.55311 0.0
H1969 H 0.66731 0.73565 0.5412 0.0
H1970 H 0.64856 0.75645 0.5674 0.0
H1971 H 0.70037 0.7549 0.50787 0.0
H1972 H 0.71837 0.71871 0.56836 0.0
H1973 H 0.73747 0.72668 0.60195 0.0
H1974 H 0.83267 0.79026 0.58257 0.0
H1975 H 0.81417 0.7827 0.54884 0.0
C1976 C 0.76485 0.67441 0.4681 0.0
C1977 C 0.79312 0.69562 0.45836 0.0
C1978 C 0.75263 0.68537 0.48282 0.0
C1979 C 0.76891 0.71751 0.48849 0.0
C1980 C 0.79823 0.73811 0.47967 0.0
C1981 C 0.80984 0.72747 0.46457 0.0
C1982 C 0.75488 0.73012 0.50293 0.0
C1983 C 0.76584 0.73528 0.52201 0.0
C1984 C 0.73085 0.73724 0.49792 0.0
C1985 C 0.71917 0.73372 0.47789 0.0
C1986 C 0.7401 0.75106 0.46278 0.0
C1987 C 0.72884 0.74802 0.44394 0.0
C1988 C 0.69657 0.72813 0.44009 0.0
C1989 C 0.67553 0.71111 0.45507 0.0
C1990 C 0.68674 0.71386 0.47391 0.0
C1991 C 0.72801 0.80806 0.57096 0.0
C1992 C 0.69548 0.79378 0.57562 0.0
C1993 C 0.73866 0.79639 0.55596 0.0
C1994 C 0.71727 0.76947 0.54534 0.0
C1995 C 0.68451 0.75625 0.54917 0.0
C1996 C 0.67372 0.76831 0.5641 0.0
C1997 C 0.7295 0.75456 0.53108 0.0
C1998 C 0.71828 0.74897 0.51201 0.0
C1999 C 0.75332 0.74702 0.53609 0.0
C2000 C 0.76486 0.7503 0.55615 0.0
C2001 C 0.74338 0.73436 0.57128 0.0
C2002 C 0.75405 0.73884 0.59032 0.0
C2003 C 0.78614 0.7591 0.59437 0.0
C2004 C 0.80778 0.77461 0.57939 0.0
C2005 C 0.79725 0.77015 0.5603 0.0
H2006 H 0.79414 0.76268 0.60915 0.0
H2007 H 0.68788 0.72578 0.42549 0.0
H2008 H 0.12136 0.34777 0.97213 0.0
H2009 H 0.08175 0.32904 0.99855 0.0
H2010 H 0.02403 0.24148 0.96815 0.0
H2011 H 0.06323 0.25885 0.94255 0.0
H2012 H 1.00171 0.29633 0.99026 0.0
H2013 H 0.02819 0.20575 0.99377 0.0
H2014 H 0.07247 0.19455 0.99363 0.0
H2015 H 0.11968 0.26479 0.03764 0.0
H2016 H 0.07572 0.27617 0.038 0.0
H2017 H 0.87321 0.20663 0.05719 0.0
H2018 H 0.90963 0.22336 0.02955 0.0
H2019 H 0.98642 0.23959 0.06763 0.0
H2020 H 0.94995 0.21937 0.09423 0.0
H2021 H 0.99946 0.22146 0.03973 0.0
H2022 H 0.96573 0.30108 0.04319 0.0
H2023 H 0.92592 0.31841 0.04227 0.0
H2024 H 0.89696 0.27834 0.98575 0.0
H2025 H 0.93635 0.26049 0.98645 0.0
C2026 C 0.10052 0.32434 0.97123 0.0
C2027 C 0.09594 0.305 0.95505 0.0
C2028 C 0.07766 0.31378 0.98625 0.0
C2029 C 0.04963 0.28388 0.98528 0.0
C2030 C 0.04529 0.26458 0.96931 0.0
C2031 C 0.0681 0.27473 0.95462 0.0
C2032 C 0.02499 0.27179 1.001 0.0
C2033 C 1.00119 0.28008 1.0012 0.0
C2034 C 0.02389 0.2504 1.01514 0.0
C2035 C 0.04888 0.24175 1.01591 0.0
C2036 C 0.04798 0.21856 1.00349 0.0
C2037 C 0.07302 0.21221 1.00336 0.0
C2038 C 0.0989 0.22887 1.01566 0.0
C2039 C 0.09964 0.25173 0.0282 0.0
C2040 C 0.07467 0.25811 0.0284 0.0
C2041 C 0.89771 0.21332 0.05961 0.0
C2042 C 0.90813 0.21145 0.07824 0.0
C2043 C 0.91895 0.22356 0.04372 0.0
C2044 C 0.95164 0.23386 0.04616 0.0
C2045 C 0.9617 0.23181 0.06481 0.0
C2046 C 0.94042 0.22025 0.0803 0.0
C2047 C 0.97583 0.24661 0.02982 0.0
C2048 C 0.99964 0.23805 0.02919 0.0
C2049 C 0.97694 0.26811 1.01542 0.0
C2050 C 0.95375 0.27929 1.01494 0.0
C2051 C 0.9508 0.29595 0.0306 0.0
C2052 C 0.92831 0.30582 0.03012 0.0
C2053 C 0.90889 0.29943 1.01398 0.0
C2054 C 0.91199 0.28324 0.99825 0.0
C2055 C 0.93439 0.27327 0.99867 0.0
H2056 H 0.89147 0.30707 1.01364 0.0
H2057 H 0.11838 0.2241 1.01546 0.0
H2058 H 0.35636 0.10195 0.46152 0.0
H2059 H 0.33684 0.06078 0.48693 0.0
H2060 H 0.24489 0.0534 0.48459 0.0
H2061 H 0.26372 0.09311 0.45861 0.0
H2062 H 0.27914 0.05753 0.52519 0.0
H2063 H 0.23677 1.00114 0.46604 0.0
H2064 H 0.23913 0.98608 0.43246 0.0
H2065 H 0.30229 0.9526 0.44922 0.0
H2066 H 0.30109 0.96849 0.48286 0.0
H2067 H 0.17979 0.9203 0.57956 0.0
H2068 H 0.2003 0.95976 0.5538 0.0
H2069 H 0.2706 0.93356 0.54001 0.0
H2070 H 0.24967 0.89334 0.56599 0.0
H2071 H 0.24981 0.94732 0.50735 0.0
H2072 H 0.2874 1.001 0.56794 0.0
H2073 H 0.28431 0.01787 0.60111 0.0
H2074 H 0.22766 0.05704 0.58105 0.0
H2075 H 0.22982 0.03984 0.54799 0.0
C2076 C 0.33226 0.09217 0.46681 0.0
C2077 C 0.31171 0.10113 0.45818 0.0
C2078 C 0.32097 0.0683 0.48115 0.0
C2079 C 0.28922 0.05363 0.48759 0.0
C2080 C 0.26936 0.0641 0.47984 0.0
C2081 C 0.28026 0.08704 0.46508 0.0
C2082 C 0.27643 0.02702 0.50209 0.0
C2083 C 0.27249 0.03338 0.52127 0.0
C2084 C 0.26799 0.99548 0.49711 0.0
C2085 C 0.26938 0.98662 0.47688 0.0
C2086 C 0.25168 0.99119 0.46251 0.0
C2087 C 0.25264 0.98232 0.44348 0.0
C2088 C 0.27084 0.96838 0.43871 0.0
C2089 C 0.28818 0.96338 0.45295 0.0
C2090 C 0.28747 0.97243 0.47198 0.0
C2091 C 0.19924 0.92235 0.57083 0.0
C2092 C 0.21298 0.90341 0.57495 0.0
C2093 C 0.21126 0.94537 0.55616 0.0
C2094 C 0.23776 0.95064 0.54513 0.0
C2095 C 0.25036 0.93039 0.54835 0.0
C2096 C 0.23816 0.90707 0.56311 0.0
C2097 C 0.25241 0.97767 0.5307 0.0
C2098 C 0.25665 0.97145 0.51144 0.0
C2099 C 0.2607 0.00937 0.53557 0.0
C2100 C 0.2584 0.01868 0.55558 0.0
C2101 C 0.27385 0.01271 0.57073 0.0
C2102 C 0.27229 0.02235 0.58948 0.0
C2103 C 0.25556 0.03819 0.59323 0.0
C2104 C 0.24038 0.04451 0.57821 0.0
C2105 C 0.24176 0.03481 0.55946 0.0
H2106 H 0.25456 0.04577 0.60774 0.0
H2107 H 0.27157 0.96153 0.42396 0.0
H2108 H 0.78075 0.65702 0.06036 0.0
H2109 H 0.76213 0.67699 0.03342 0.0
H2110 H 0.78927 0.76306 0.06489 0.0
H2111 H 0.80921 0.74478 0.09084 0.0
H2112 H 0.71638 0.71609 0.0458 0.0
H2113 H 0.83254 0.78588 0.03834 0.0
H2114 H 0.88669 0.79544 0.03265 0.0
H2115 H 0.85599 0.74217 0.98002 0.0
H2116 H 0.80141 0.73158 0.98572 0.0
H2117 H 0.67886 0.8062 0.9782 0.0
H2118 H 0.69929 0.78925 1.00535 0.0
H2119 H 0.74761 0.75984 0.96525 0.0
H2120 H 0.73136 0.78018 0.93914 0.0
H2121 H 0.78324 0.77858 0.99051 0.0
H2122 H 0.66789 0.70844 0.99565 0.0
H2123 H 0.61284 0.69716 1.00029 0.0
H2124 H 0.63869 0.74613 0.05452 0.0
H2125 H 0.69392 0.75794 0.05009 0.0
C2126 C 0.78339 0.68045 0.06134 0.0
C2127 C 0.79671 0.69904 0.07798 0.0
C2128 C 0.77249 0.69177 0.04599 0.0
C2129 C 0.77419 0.7216 0.04713 0.0
C2130 C 0.78767 0.74008 0.06357 0.0
C2131 C 0.7992 0.72935 0.07849 0.0
C2132 C 0.76152 0.73385 0.03166 0.0
C2133 C 0.73082 0.72952 0.03356 0.0
C2134 C 0.78025 0.75165 1.01577 0.0
C2135 C 0.81278 0.75728 1.01271 0.0
C2136 C 0.83717 0.7756 0.0258 0.0
C2137 C 0.86799 0.78135 0.02251 0.0
C2138 C 0.87474 0.76923 1.00605 0.0
C2139 C 0.85069 0.75137 0.99283 0.0
C2140 C 0.81981 0.74542 0.99611 0.0
C2141 C 0.69414 0.79652 0.97524 0.0
C2142 C 0.70303 0.79475 0.95615 0.0
C2143 C 0.70557 0.7862 0.99087 0.0
C2144 C 0.72481 0.77227 0.98775 0.0
C2145 C 0.73338 0.77063 0.96865 0.0
C2146 C 0.72358 0.78233 0.9534 0.0
C2147 C 0.73686 0.75959 1.00374 0.0
C2148 C 0.76796 0.76439 1.00227 0.0
C2149 C 0.71814 0.74165 0.01978 0.0
C2150 C 0.68497 0.73425 0.02247 0.0
C2151 C 0.66179 0.71684 1.00853 0.0
C2152 C 0.63059 0.71038 1.01112 0.0
C2153 C 0.62229 0.72097 0.02767 0.0
C2154 C 0.64515 0.73797 0.0417 0.0
C2155 C 0.67638 0.74453 0.03917 0.0
H2156 H 0.59813 0.71596 0.02964 0.0
H2157 H 0.89864 0.77384 1.00349 0.0
H2158 H 0.08004 0.25934 0.5825 0.0
H2159 H 0.04152 0.24139 0.55653 0.0
H2160 H 0.07673 0.33862 0.53906 0.0
H2161 H 0.11501 0.35694 0.56588 0.0
H2162 H 0.01394 0.30815 0.53957 0.0
H2163 H 0.0889 0.28034 0.5123 0.0
H2164 H 0.12128 0.25425 0.5125 0.0
H2165 H 0.03727 0.16341 0.52107 0.0
H2166 H 0.00445 0.18899 0.52113 0.0
H2167 H 0.91418 0.26511 0.45648 0.0
H2168 H 0.95584 0.28614 0.48081 0.0
H2169 H 0.94052 0.19161 0.49065 0.0
H2170 H 0.90209 0.17184 0.46431 0.0
H2171 H 0.99578 0.22278 0.49363 0.0
H2172 H 0.92061 0.24537 0.52448 0.0
H2173 H 0.88454 0.26719 0.52682 0.0
H2174 H 0.9626 0.3611 0.51572 0.0
H2175 H 0.99906 0.33977 0.51316 0.0
C2176 C 0.08014 0.27707 0.57297 0.0
C2177 C 0.10095 0.30974 0.57639 0.0
C2178 C 0.05796 0.26664 0.55792 0.0
C2179 C 0.05604 0.2884 0.5454 0.0
C2180 C 0.07752 0.32111 0.54836 0.0
C2181 C 0.09978 0.33166 0.5636 0.0
C2182 C 0.03058 0.27696 0.53003 0.0
C2183 C 0.01031 0.28978 0.52933 0.0
C2184 C 0.02448 0.25194 0.51706 0.0
C2185 C 0.04427 0.23662 0.51681 0.0
C2186 C 0.07737 0.25483 0.51431 0.0
C2187 C 0.09579 0.24012 0.51437 0.0
C2188 C 0.08135 0.2072 0.51682 0.0
C2189 C 0.04844 0.1889 0.51917 0.0
C2190 C 0.02991 0.20348 0.51913 0.0
C2191 C 0.91918 0.24873 0.46422 0.0
C2192 C 0.90439 0.21668 0.45863 0.0
C2193 C 0.94315 0.26077 0.47838 0.0
C2194 C 0.95165 0.24073 0.4884 0.0
C2195 C 0.9353 0.20818 0.48338 0.0
C2196 C 0.91266 0.19656 0.46848 0.0
C2197 C 0.97836 0.25352 0.50322 0.0
C2198 C 0.99904 0.24104 0.50383 0.0
C2199 C 0.98416 0.27807 0.51658 0.0
C2200 C 0.96244 0.29096 0.51848 0.0
C2201 C 0.93002 0.27066 0.5225 0.0
C2202 C 0.90953 0.28294 0.52386 0.0
C2203 C 0.92126 0.3155 0.52137 0.0
C2204 C 0.95354 0.33589 0.51762 0.0
C2205 C 0.97414 0.32374 0.51626 0.0
H2206 H 0.90533 0.32495 0.52237 0.0
H2207 H 0.09566 0.19587 0.51687 0.0
H2208 H 0.67581 0.21192 0.14296 0.0
H2209 H 0.62254 0.20224 0.14991 0.0
H2210 H 0.58279 0.11552 0.11686 0.0
H2211 H 0.63638 0.12718 0.10835 0.0
H2212 H 0.56188 0.1497 0.10334 0.0
H2213 H 0.57145 0.12262 0.16987 0.0
H2214 H 0.59644 0.13235 0.20195 0.0
H2215 H 0.59138 0.21773 0.20742 0.0
H2216 H 0.5666 0.20862 0.17534 0.0
H2217 H 0.40052 0.10083 0.11274 0.0
H2218 H 0.45273 0.10519 0.11497 0.0
H2219 H 0.48624 0.18996 0.14945 0.0
H2220 H 0.43281 0.18356 0.14863 0.0
H2221 H 0.51116 0.1594 0.16298 0.0
H2222 H 0.50467 0.19059 0.09877 0.0
H2223 H 0.48155 0.18623 0.06652 0.0
H2224 H 0.48472 0.10081 0.0559 0.0
H2225 H 0.50755 0.1045 0.08816 0.0
C2226 C 0.65571 0.19052 0.13751 0.0
C2227 C 0.66022 0.17064 0.12481 0.0
C2228 C 0.62505 0.18471 0.1417 0.0
C2229 C 0.5983 0.15819 0.13381 0.0
C2230 C 0.60292 0.13635 0.12298 0.0
C2231 C 0.63356 0.1427 0.11834 0.0
C2232 C 0.56633 0.15557 0.13418 0.0
C2233 C 0.55057 0.15109 0.11651 0.0
C2234 C 0.55218 0.15947 0.15106 0.0
C2235 C 0.56741 0.16504 0.17019 0.0
C2236 C 0.5759 0.14357 0.17788 0.0
C2237 C 0.58996 0.14895 0.19607 0.0
C2238 C 0.59555 0.17567 0.2067 0.0
C2239 C 0.58705 0.19706 0.19918 0.0
C2240 C 0.57296 0.19177 0.18102 0.0
C2241 C 0.41898 0.12001 0.12103 0.0
C2242 C 0.41285 0.14161 0.1307 0.0
C2243 C 0.44897 0.12285 0.12209 0.0
C2244 C 0.47388 0.14836 0.13203 0.0
C2245 C 0.46757 0.17006 0.1417 0.0
C2246 C 0.43718 0.16653 0.14117 0.0
C2247 C 0.50637 0.15231 0.13226 0.0
C2248 C 0.52238 0.15757 0.14989 0.0
C2249 C 0.52124 0.14994 0.11528 0.0
C2250 C 0.50756 0.14769 0.0959 0.0
C2251 C 0.50025 0.17079 0.08958 0.0
C2252 C 0.48723 0.16845 0.07131 0.0
C2253 C 0.48161 0.14322 0.05919 0.0
C2254 C 0.48906 0.12032 0.0653 0.0
C2255 C 0.50208 0.12255 0.08356 0.0
H2256 H 0.47153 0.14145 0.04504 0.0
H2257 H 0.60641 0.17976 0.22079 0.0
H2258 H 0.70165 0.60349 0.41888 0.0
H2259 H 0.65445 0.55079 0.41652 0.0
H2260 H 0.7094 0.517 0.38613 0.0
H2261 H 0.75594 0.57092 0.38703 0.0
H2262 H 0.65389 0.4898 0.37126 0.0
H2263 H 0.68956 0.50191 0.4361 0.0
H2264 H 0.70698 0.52741 0.46788 0.0
H2265 H 0.61692 0.52215 0.4762 0.0
H2266 H 0.59912 0.49696 0.44435 0.0
H2267 H 0.55199 0.32633 0.40214 0.0
H2268 H 0.59353 0.3799 0.39261 0.0
H2269 H 0.53438 0.41743 0.41169 0.0
H2270 H 0.49275 0.36375 0.42106 0.0
H2271 H 0.59163 0.44208 0.43099 0.0
H2272 H 0.55659 0.42532 0.3649 0.0
H2273 H 0.54233 0.39833 0.3334 0.0
H2274 H 0.63503 0.40844 0.32867 0.0
H2275 H 0.64972 0.4352 0.36023 0.0
C2276 C 0.70327 0.58498 0.41126 0.0
C2277 C 0.73195 0.5912 0.40279 0.0
C2278 C 0.67649 0.55467 0.4102 0.0
C2279 C 0.67832 0.52951 0.40147 0.0
C2280 C 0.70722 0.53588 0.39291 0.0
C2281 C 0.7338 0.56657 0.39349 0.0
C2282 C 0.65027 0.49662 0.40165 0.0
C2283 C 0.64053 0.47925 0.38439 0.0
C2284 C 0.63251 0.48267 0.41868 0.0
C2285 C 0.64313 0.49782 0.4378 0.0
C2286 C 0.67357 0.5064 0.44466 0.0
C2287 C 0.68349 0.52076 0.46269 0.0
C2288 C 0.6631 0.52647 0.47403 0.0
C2289 C 0.63271 0.51776 0.46739 0.0
C2290 C 0.62267 0.5034 0.44936 0.0
C2291 C 0.54734 0.34585 0.40339 0.0
C2292 C 0.51911 0.34098 0.41207 0.0
C2293 C 0.5711 0.37647 0.39802 0.0
C2294 C 0.56712 0.40273 0.40147 0.0
C2295 C 0.53791 0.3975 0.40883 0.0
C2296 C 0.51404 0.36684 0.41403 0.0
C2297 C 0.59492 0.43556 0.40058 0.0
C2298 C 0.60485 0.45277 0.41783 0.0
C2299 C 0.61324 0.44884 0.38367 0.0
C2300 C 0.60412 0.43197 0.36499 0.0
C2301 C 0.5738 0.42145 0.35724 0.0
C2302 C 0.56568 0.4063 0.33934 0.0
C2303 C 0.58773 0.40161 0.32906 0.0
C2304 C 0.61795 0.41205 0.33665 0.0
C2305 C 0.62619 0.42724 0.35453 0.0
H2306 H 0.58142 0.38994 0.31518 0.0
H2307 H 0.67082 0.53758 0.488 0.0
H2308 H 0.85752 0.27348 0.16206 0.0
H2309 H 0.85326 0.32188 0.16256 0.0
H2310 H 0.86602 0.33052 0.1009 0.0
H2311 H 0.8689 0.28158 0.1002 0.0
H2312 H 0.90683 0.38975 0.12885 0.0
H2313 H 0.80497 0.31506 0.10412 0.0
H2314 H 0.75181 0.26839 0.10087 0.0
H2315 H 0.72645 0.28496 0.1572 0.0
H2316 H 0.77986 0.33228 0.16074 0.0
H2317 H 0.85178 0.49148 0.09087 0.0
H2318 H 0.86859 0.45284 0.09881 0.0
H2319 H 0.82475 0.43843 0.15484 0.0
H2320 H 0.80849 0.47747 0.14695 0.0
H2321 H 0.80213 0.38354 0.13387 0.0
H2322 H 0.9039 0.46913 0.15206 0.0
H2323 H 0.95464 0.51958 0.14903 0.0
H2324 H 0.97947 0.48357 0.09951 0.0
H2325 H 0.92869 0.43307 0.10208 0.0
C2326 C 0.85945 0.28579 0.14865 0.0
C2327 C 0.86338 0.27376 0.13108 0.0
C2328 C 0.85694 0.31331 0.14894 0.0
C2329 C 0.85921 0.32965 0.13175 0.0
C2330 C 0.86408 0.31816 0.1143 0.0
C2331 C 0.86566 0.29021 0.11392 0.0
C2332 C 0.85645 0.35872 0.1319 0.0
C2333 C 0.88397 0.38852 0.12991 0.0
C2334 C 0.82675 0.3571 0.13355 0.0
C2335 C 0.79658 0.3266 0.13289 0.0
C2336 C 0.78844 0.30819 0.11607 0.0
C2337 C 0.75819 0.28178 0.11411 0.0
C2338 C 0.73586 0.27351 0.12886 0.0
C2339 C 0.74389 0.29134 0.14582 0.0
C2340 C 0.77416 0.31798 0.14782 0.0
C2341 C 0.84668 0.48075 0.10509 0.0
C2342 C 0.82898 0.48744 0.11837 0.0
C2343 C 0.85634 0.45877 0.10965 0.0
C2344 C 0.84811 0.44281 0.12748 0.0
C2345 C 0.83158 0.45057 0.14105 0.0
C2346 C 0.82228 0.47285 0.13657 0.0
C2347 C 0.85252 0.41495 0.13076 0.0
C2348 C 0.8252 0.38515 0.13335 0.0
C2349 C 0.8824 0.41669 0.1292 0.0
C2350 C 0.91235 0.44744 0.12716 0.0
C2351 C 0.91999 0.47213 0.14037 0.0
C2352 C 0.94882 0.50069 0.13878 0.0
C2353 C 0.97023 0.50481 0.12406 0.0
C2354 C 0.96285 0.48038 0.11089 0.0
C2355 C 0.93406 0.45177 0.11241 0.0
H2356 H 0.99259 0.5269 0.12289 0.0
H2357 H 0.7122 0.25375 0.12687 0.0
H2358 H 0.42931 0.17606 0.37882 0.0
H2359 H 0.48294 0.18316 0.37807 0.0
H2360 H 0.45631 0.11314 0.4234 0.0
H2361 H 0.40354 0.10793 0.42496 0.0
H2362 H 0.51123 0.15962 0.43107 0.0
H2363 H 0.4652 0.10002 0.37255 0.0
H2364 H 0.43743 0.09224 0.34158 0.0
H2365 H 0.51458 0.18033 0.32034 0.0
H2366 H 0.54263 0.18888 0.35128 0.0
H2367 H 0.63539 0.12883 0.42821 0.0
H2368 H 0.58258 0.1187 0.41877 0.0
H2369 H 0.62531 0.20817 0.38833 0.0
H2370 H 0.67827 0.21842 0.39793 0.0
H2371 H 0.56431 0.15431 0.37111 0.0
H2372 H 0.60831 0.21544 0.42902 0.0
H2373 H 0.636 0.22624 0.46021 0.0
H2374 H 0.56208 0.13687 0.48233 0.0
H2375 H 0.53417 0.1254 0.45113 0.0
C2376 C 0.43499 0.16198 0.3884 0.0
C2377 C 0.41248 0.14115 0.40176 0.0
C2378 C 0.46557 0.16593 0.38796 0.0
C2379 C 0.47374 0.14826 0.40044 0.0
C2380 C 0.45078 0.12706 0.4136 0.0
C2381 C 0.42058 0.12385 0.4144 0.0
C2382 C 0.50635 0.15238 0.40033 0.0
C2383 C 0.52244 0.15793 0.41793 0.0
C2384 C 0.52182 0.15132 0.38319 0.0
C2385 C 0.50597 0.14512 0.36421 0.0
C2386 C 0.47628 0.11767 0.36124 0.0
C2387 C 0.46044 0.11318 0.34373 0.0
C2388 C 0.47421 0.13578 0.32902 0.0
C2389 C 0.50395 0.16283 0.33174 0.0
C2390 C 0.51987 0.16749 0.34924 0.0
C2391 C 0.63355 0.14557 0.41871 0.0
C2392 C 0.66085 0.17413 0.4135 0.0
C2393 C 0.60338 0.13988 0.41342 0.0
C2394 C 0.59998 0.16272 0.40288 0.0
C2395 C 0.62737 0.19008 0.39627 0.0
C2396 C 0.65761 0.19587 0.40169 0.0
C2397 C 0.56833 0.16051 0.40188 0.0
C2398 C 0.55273 0.15566 0.38416 0.0
C2399 C 0.55317 0.1623 0.41886 0.0
C2400 C 0.56935 0.16945 0.43775 0.0
C2401 C 0.59808 0.19804 0.44052 0.0
C2402 C 0.61379 0.20429 0.45818 0.0
C2403 C 0.60086 0.18221 0.47323 0.0
C2404 C 0.57209 0.15392 0.47066 0.0
C2405 C 0.55629 0.14755 0.453 0.0
H2406 H 0.6131 0.18705 0.48689 0.0
H2407 H 0.46183 0.13232 0.31551 0.0
H2408 H 0.49018 0.35283 0.13533 0.0
H2409 H 0.53435 0.40377 0.14673 0.0
H2410 H 0.60066 0.3851 0.1161 0.0
H2411 H 0.55715 0.33393 0.10592 0.0
H2412 H 0.63029 0.41721 0.14409 0.0
H2413 H 0.5637 0.42976 0.09782 0.0
H2414 H 0.5149 0.42614 0.08471 0.0
H2415 H 0.51164 0.48112 0.13215 0.0
H2416 H 0.56011 0.48453 0.14573 0.0
H2417 H 0.7447 0.56989 0.10835 0.0
H2418 H 0.69879 0.51651 0.11145 0.0
H2419 H 0.66636 0.54665 0.16062 0.0
H2420 H 0.71347 0.59988 0.15824 0.0
H2421 H 0.61894 0.51086 0.12901 0.0
H2422 H 0.6928 0.50325 0.17152 0.0
H2423 H 0.74546 0.51086 0.17967 0.0
H2424 H 0.73824 0.44919 0.13331 0.0
H2425 H 0.68568 0.44164 0.12464 0.0
C2426 C 0.51434 0.35913 0.13175 0.0
C2427 C 0.52019 0.33945 0.11963 0.0
C2428 C 0.53961 0.38856 0.13795 0.0
C2429 C 0.57104 0.39911 0.13178 0.0
C2430 C 0.57688 0.37805 0.12105 0.0
C2431 C 0.55188 0.34862 0.1152 0.0
C2432 C 0.59764 0.43254 0.13497 0.0
C2433 C 0.62756 0.43752 0.14074 0.0
C2434 C 0.59464 0.4596 0.13086 0.0
C2435 C 0.56515 0.4569 0.12296 0.0
C2436 C 0.55235 0.44074 0.10557 0.0
C2437 C 0.52479 0.43877 0.09804 0.0
C2438 C 0.5101 0.45326 0.10763 0.0
C2439 C 0.52295 0.46977 0.12478 0.0
C2440 C 0.55042 0.47168 0.13242 0.0
C2441 C 0.72806 0.56518 0.11994 0.0
C2442 C 0.73294 0.58929 0.13302 0.0
C2443 C 0.70171 0.53462 0.12167 0.0
C2444 C 0.67916 0.52756 0.13628 0.0
C2445 C 0.6835 0.55161 0.14923 0.0
C2446 C 0.71041 0.58208 0.1478 0.0
C2447 C 0.65104 0.49499 0.13775 0.0
C2448 C 0.62114 0.49034 0.13274 0.0
C2449 C 0.65423 0.46827 0.14197 0.0
C2450 C 0.68538 0.472 0.1474 0.0
C2451 C 0.70251 0.49144 0.163 0.0
C2452 C 0.73232 0.49576 0.1677 0.0
C2453 C 0.74517 0.48055 0.157 0.0
C2454 C 0.72822 0.46095 0.14157 0.0
C2455 C 0.69839 0.45661 0.13677 0.0
H2456 H 0.7682 0.48393 0.16076 0.0
H2457 H 0.48881 0.4518 0.10175 0.0
H2458 H 0.87105 0.51534 0.40298 0.0
H2459 H 0.87793 0.4705 0.39297 0.0
H2460 H 0.78197 0.40472 0.41095 0.0
H2461 H 0.77491 0.44918 0.42056 0.0
H2462 H 0.8384 0.40562 0.43134 0.0
H2463 H 0.78947 0.39895 0.36989 0.0
H2464 H 0.78336 0.41688 0.33776 0.0
H2465 H 0.87471 0.43143 0.32082 0.0
H2466 H 0.88165 0.41422 0.35302 0.0
H2467 H 0.82082 0.25437 0.42275 0.0
H2468 H 0.81287 0.29985 0.42097 0.0
H2469 H 0.89042 0.3454 0.38036 0.0
H2470 H 0.89707 0.29873 0.38123 0.0
H2471 H 0.84694 0.35774 0.37018 0.0
H2472 H 0.89702 0.36486 0.43067 0.0
H2473 H 0.9043 0.34655 0.46243 0.0
H2474 H 0.81422 0.33314 0.48132 0.0
H2475 H 0.80617 0.35087 0.44957 0.0
C2476 C 0.85097 0.49137 0.4038 0.0
C2477 C 0.82233 0.48569 0.41235 0.0
C2478 C 0.85497 0.46578 0.39823 0.0
C2479 C 0.83045 0.43429 0.40125 0.0
C2480 C 0.80111 0.4288 0.40837 0.0
C2481 C 0.79703 0.45422 0.41374 0.0
C2482 C 0.83679 0.4074 0.40042 0.0
C2483 C 0.84003 0.39497 0.41796 0.0
C2484 C 0.83992 0.39421 0.38299 0.0
C2485 C 0.83634 0.4059 0.36399 0.0
C2486 C 0.80853 0.40659 0.35946 0.0
C2487 C 0.80484 0.41646 0.34119 0.0
C2488 C 0.8287 0.42544 0.32729 0.0
C2489 C 0.85631 0.4246 0.33163 0.0
C2490 C 0.86015 0.41483 0.34989 0.0
C2491 C 0.83623 0.274 0.41339 0.0
C2492 C 0.8601 0.2731 0.40237 0.0
C2493 C 0.83175 0.3002 0.41248 0.0
C2494 C 0.85167 0.32671 0.401 0.0
C2495 C 0.8749 0.32547 0.3895 0.0
C2496 C 0.87888 0.29881 0.39008 0.0
C2497 C 0.84823 0.35558 0.40116 0.0
C2498 C 0.84563 0.36851 0.38358 0.0
C2499 C 0.84608 0.3696 0.4186 0.0
C2500 C 0.85091 0.35898 0.4377 0.0
C2501 C 0.87868 0.35781 0.44156 0.0
C2502 C 0.88295 0.34754 0.45956 0.0
C2503 C 0.85972 0.33864 0.47388 0.0
C2504 C 0.83218 0.34001 0.47022 0.0
C2505 C 0.82776 0.35018 0.45223 0.0
H2506 H 0.86309 0.33073 0.48781 0.0
H2507 H 0.82573 0.43293 0.31312 0.0
H2508 H 0.21115 0.67843 0.6418 0.0
H2509 H 0.19938 0.62516 0.65217 0.0
H2510 H 0.13249 0.58369 0.60548 0.0
H2511 H 0.14372 0.63662 0.59556 0.0
H2512 H 0.11104 0.54519 0.63439 0.0
H2513 H 0.21234 0.60375 0.60257 0.0
H2514 H 0.267 0.64827 0.59805 0.0
H2515 H 0.29401 0.62687 0.65248 0.0
H2516 H 0.23927 0.58259 0.65752 0.0
H2517 H 0.13729 0.41831 0.60207 0.0
H2518 H 0.14334 0.47133 0.60477 0.0
H2519 H 0.1531 0.46863 0.66637 0.0
H2520 H 0.14598 0.41484 0.66384 0.0
H2521 H 0.20401 0.52903 0.6355 0.0
H2522 H 0.09836 0.4703 0.66656 0.0
H2523 H 0.04291 0.42634 0.6684 0.0
H2524 H 0.02624 0.44699 0.6108 0.0
H2525 H 0.08152 0.49156 0.60881 0.0
C2526 C 0.19306 0.65775 0.63429 0.0
C2527 C 0.17801 0.66144 0.61805 0.0
C2528 C 0.18666 0.62736 0.64002 0.0
C2529 C 0.1655 0.60031 0.62937 0.0
C2530 C 0.14893 0.60403 0.61395 0.0
C2531 C 0.15522 0.63427 0.60831 0.0
C2532 C 0.16215 0.56847 0.63309 0.0
C2533 C 0.13151 0.5419 0.63475 0.0
C2534 C 0.1887 0.56373 0.63361 0.0
C2535 C 0.22162 0.59017 0.63055 0.0
C2536 C 0.22987 0.60871 0.61365 0.0
C2537 C 0.26086 0.6339 0.61099 0.0
C2538 C 0.28394 0.64047 0.625 0.0
C2539 C 0.27608 0.62182 0.64168 0.0
C2540 C 0.24507 0.5967 0.64446 0.0
C2541 C 0.14052 0.42892 0.61621 0.0
C2542 C 0.14111 0.41249 0.63275 0.0
C2543 C 0.14403 0.4592 0.61772 0.0
C2544 C 0.14883 0.47391 0.63574 0.0
C2545 C 0.14941 0.45761 0.65234 0.0
C2546 C 0.14516 0.4269 0.65088 0.0
C2547 C 0.15308 0.50631 0.63689 0.0
C2548 C 0.1838 0.53275 0.63577 0.0
C2549 C 0.12676 0.51103 0.63654 0.0
C2550 C 0.09395 0.48397 0.6375 0.0
C2551 C 0.08289 0.46525 0.65425 0.0
C2552 C 0.0515 0.44033 0.65534 0.0
C2553 C 0.03111 0.43372 0.63968 0.0
C2554 C 0.04206 0.45212 0.62291 0.0
C2555 C 0.07335 0.47732 0.62184 0.0
H2556 H 0.00676 0.41446 0.64056 0.0
H2557 H 0.30793 0.65997 0.62291 0.0
H2558 H 0.25453 0.82259 0.92413 0.0
H2559 H 0.30081 0.81597 0.92374 0.0
H2560 H 0.34238 0.88576 0.87823 0.0
H2561 H 0.29496 0.8913 0.87792 0.0
H2562 H 0.35457 0.83963 0.87197 0.0
H2563 H 0.36548 0.90367 0.92659 0.0
H2564 H 0.34954 0.91858 0.95682 0.0
H2565 H 0.33973 0.83506 0.98461 0.0
H2566 H 0.35509 0.81938 0.95447 0.0
H2567 H 0.51453 0.87304 0.89313 0.0
H2568 H 0.46494 0.87245 0.88551 0.0
H2569 H 0.41481 0.79657 0.92664 0.0
H2570 H 0.46442 0.79729 0.93424 0.0
H2571 H 0.4081 0.84748 0.93415 0.0
H2572 H 0.39905 0.78495 0.8785 0.0
H2573 H 0.41476 0.77142 0.84772 0.0
H2574 H 0.42315 0.85546 0.82153 0.0
H2575 H 0.40804 0.86979 0.85225 0.0
C2576 C 0.27343 0.83659 0.91397 0.0
C2577 C 0.27127 0.85812 0.90131 0.0
C2578 C 0.30006 0.83285 0.91384 0.0
C2579 C 0.32566 0.85103 0.90137 0.0
C2580 C 0.32314 0.8717 0.88818 0.0
C2581 C 0.2961 0.87506 0.88808 0.0
C2582 C 0.35496 0.84847 0.90237 0.0
C2583 C 0.36659 0.84185 0.88552 0.0
C2584 C 0.37046 0.85084 0.92009 0.0
C2585 C 0.36119 0.86023 0.93823 0.0
C2586 C 0.35969 0.88836 0.93911 0.0
C2587 C 0.35078 0.89697 0.95623 0.0
C2588 C 0.34357 0.87775 0.97261 0.0
C2589 C 0.34529 0.84991 0.97191 0.0
C2590 C 0.35411 0.84116 0.95482 0.0
C2591 C 0.49261 0.85539 0.89991 0.0
C2592 C 0.49305 0.83477 0.91397 0.0
C2593 C 0.46431 0.85514 0.89563 0.0
C2594 C 0.43604 0.83444 0.90548 0.0
C2595 C 0.43625 0.81269 0.91881 0.0
C2596 C 0.46449 0.81288 0.92302 0.0
C2597 C 0.40747 0.83813 0.90379 0.0
C2598 C 0.39611 0.84523 0.92058 0.0
C2599 C 0.39262 0.83668 0.88599 0.0
C2600 C 0.4028 0.82864 0.86774 0.0
C2601 C 0.40469 0.80078 0.86626 0.0
C2602 C 0.41338 0.79291 0.8488 0.0
C2603 C 0.42004 0.81261 0.83269 0.0
C2604 C 0.41806 0.84025 0.83402 0.0
C2605 C 0.40945 0.84827 0.85145 0.0
H2606 H 0.42664 0.8064 0.81917 0.0
H2607 H 0.3367 0.88446 0.98586 0.0
H2608 H 0.604 0.70199 0.64804 0.0
H2609 H 0.55042 0.65548 0.64898 0.0
H2610 H 0.51414 0.70905 0.61986 0.0
H2611 H 0.56799 0.75483 0.61765 0.0
H2612 H 0.48112 0.66557 0.65911 0.0
H2613 H 0.51158 0.67124 0.59193 0.0
H2614 H 0.54793 0.67604 0.56567 0.0
H2615 H 0.5468 0.59187 0.58587 0.0
H2616 H 0.51105 0.58712 0.61261 0.0
H2617 H 0.32801 0.55716 0.62129 0.0
H2618 H 0.38024 0.59931 0.63167 0.0
H2619 H 0.41401 0.5324 0.63227 0.0
H2620 H 0.36151 0.49016 0.62164 0.0
H2621 H 0.45023 0.58133 0.60983 0.0
H2622 H 0.41189 0.57188 0.67453 0.0
H2623 H 0.37656 0.56908 0.70095 0.0
H2624 H 0.39117 0.66092 0.68501 0.0
H2625 H 0.42636 0.66413 0.65839 0.0
C2626 C 0.58476 0.70386 0.64177 0.0
C2627 C 0.59041 0.73198 0.63253 0.0
C2628 C 0.5541 0.6773 0.64239 0.0
C2629 C 0.52842 0.67884 0.6344 0.0
C2630 C 0.53371 0.70735 0.62601 0.0
C2631 C 0.56449 0.73346 0.62475 0.0
C2632 C 0.49623 0.65037 0.63421 0.0
C2633 C 0.47415 0.64716 0.6483 0.0
C2634 C 0.4875 0.62624 0.62031 0.0
C2635 C 0.50928 0.62925 0.60449 0.0
C2636 C 0.51959 0.65413 0.591 0.0
C2637 C 0.53997 0.65676 0.57598 0.0
C2638 C 0.54983 0.63438 0.57416 0.0
C2639 C 0.53928 0.60929 0.58735 0.0
C2640 C 0.51902 0.60665 0.60246 0.0
C2641 C 0.34622 0.5512 0.62445 0.0
C2642 C 0.34068 0.52038 0.62086 0.0
C2643 C 0.37615 0.57533 0.63037 0.0
C2644 C 0.40125 0.56918 0.63279 0.0
C2645 C 0.39506 0.53778 0.63053 0.0
C2646 C 0.36499 0.51355 0.62467 0.0
C2647 C 0.43451 0.59612 0.63481 0.0
C2648 C 0.457 0.59929 0.62092 0.0
C2649 C 0.44339 0.62037 0.64879 0.0
C2650 C 0.4215 0.61809 0.66438 0.0
C2651 C 0.40728 0.59131 0.67654 0.0
C2652 C 0.38737 0.58971 0.69159 0.0
C2653 C 0.38157 0.61477 0.69463 0.0
C2654 C 0.39566 0.64151 0.68263 0.0
C2655 C 0.41562 0.64325 0.66758 0.0
H2656 H 0.3662 0.61351 0.70632 0.0
H2657 H 0.56552 0.63639 0.56248 0.0
H2658 H 0.13275 0.64469 0.90802 0.0
H2659 H 0.12359 0.59248 0.89754 0.0
H2660 H 0.22258 0.62356 0.90697 0.0
H2661 H 0.23175 0.67567 0.91692 0.0
H2662 H 0.20235 0.58224 0.87901 0.0
H2663 H 0.16708 0.58746 0.9421 0.0
H2664 H 0.13729 0.59806 0.96693 0.0
H2665 H 0.0492 0.52735 0.94203 0.0
H2666 H 0.07853 0.5169 0.91673 0.0
H2667 H 0.18267 0.43472 0.92174 0.0
H2668 H 0.19003 0.48831 0.91961 0.0
H2669 H 0.11406 0.45534 0.87829 0.0
H2670 H 0.10789 0.40215 0.8794 0.0
H2671 H 0.12054 0.49594 0.91986 0.0
H2672 H 0.16348 0.49139 0.85651 0.0
H2673 H 0.1991 0.48068 0.8366 0.0
H2674 H 0.27977 0.55113 0.86794 0.0
H2675 H 0.24445 0.56159 0.88841 0.0
C2676 C 0.15274 0.64075 0.90698 0.0
C2677 C 0.18296 0.66417 0.91323 0.0
C2678 C 0.14746 0.61079 0.90124 0.0
C2679 C 0.17225 0.60373 0.9019 0.0
C2680 C 0.20302 0.62821 0.90637 0.0
C2681 C 0.20828 0.65807 0.91203 0.0
C2682 C 0.16572 0.57031 0.90035 0.0
C2683 C 0.18427 0.56342 0.88786 0.0
C2684 C 0.14266 0.54561 0.91217 0.0
C2685 C 0.12497 0.55177 0.92735 0.0
C2686 C 0.14135 0.57441 0.9418 0.0
C2687 C 0.12456 0.58038 0.95596 0.0
C2688 C 0.09136 0.56347 0.95602 0.0
C2689 C 0.07491 0.54052 0.94192 0.0
C2690 C 0.0916 0.53461 0.92764 0.0
C2691 C 0.16765 0.43887 0.91209 0.0
C2692 C 0.14443 0.41399 0.90086 0.0
C2693 C 0.17191 0.46951 0.9109 0.0
C2694 C 0.1526 0.47572 0.89879 0.0
C2695 C 0.12927 0.45099 0.88767 0.0
C2696 C 0.12566 0.42055 0.88839 0.0
C2697 C 0.15641 0.50795 0.89817 0.0
C2698 C 0.13784 0.51467 0.9106 0.0
C2699 C 0.18003 0.5326 0.88675 0.0
C2700 C 0.20129 0.52694 0.87414 0.0
C2701 C 0.18876 0.5043 0.85931 0.0
C2702 C 0.2089 0.49832 0.8479 0.0
C2703 C 0.24168 0.51515 0.85104 0.0
C2704 C 0.25437 0.53806 0.86556 0.0
C2705 C 0.2343 0.54401 0.87707 0.0
H2706 H 0.25724 0.5105 0.84218 0.0
H2707 H 0.07839 0.56808 0.96702 0.0
H2708 H 0.30666 0.90872 0.64273 0.0
H2709 H 0.35305 0.9015 0.64325 0.0
H2710 H 0.29388 0.80364 0.62643 0.0
H2711 H 0.2479 0.81145 0.62479 0.0
H2712 H 0.34228 0.8214 0.66085 0.0
H2713 H 0.32874 0.83598 0.59385 0.0
H2714 H 0.32132 0.86254 0.5657 0.0
H2715 H 0.40946 0.94747 0.57806 0.0
H2716 H 0.41701 0.92156 0.6066 0.0
H2717 H 0.4491 0.7728 0.62465 0.0
H2718 H 0.40711 0.7835 0.63459 0.0
H2719 H 0.47268 0.8843 0.62966 0.0
H2720 H 0.51473 0.8734 0.61952 0.0
H2721 H 0.42182 0.86733 0.60807 0.0
H2722 H 0.4371 0.84863 0.67401 0.0
H2723 H 0.44249 0.82023 0.70194 0.0
H2724 H 0.34996 0.74029 0.69083 0.0
H2725 H 0.34416 0.76811 0.66273 0.0
C2726 C 0.30352 0.88574 0.63922 0.0
C2727 C 0.27368 0.86075 0.63361 0.0
C2728 C 0.33002 0.88159 0.63952 0.0
C2729 C 0.32686 0.85204 0.63486 0.0
C2730 C 0.29681 0.82664 0.63006 0.0
C2731 C 0.2706 0.83114 0.62909 0.0
C2732 C 0.35511 0.84798 0.63436 0.0
C2733 C 0.35964 0.83121 0.64928 0.0
C2734 C 0.37786 0.86119 0.6194 0.0
C2735 C 0.37312 0.87707 0.60256 0.0
C2736 C 0.34625 0.86051 0.59077 0.0
C2737 C 0.34208 0.87539 0.5747 0.0
C2738 C 0.36483 0.90674 0.57015 0.0
C2739 C 0.39179 0.92324 0.58166 0.0
C2740 C 0.39601 0.90848 0.59779 0.0
C2741 C 0.45485 0.79724 0.62654 0.0
C2742 C 0.4852 0.82228 0.62157 0.0
C2743 C 0.43081 0.80339 0.63217 0.0
C2744 C 0.43659 0.83475 0.6329 0.0
C2745 C 0.4676 0.8599 0.62924 0.0
C2746 C 0.49174 0.85372 0.62366 0.0
C2747 C 0.40952 0.84086 0.63474 0.0
C2748 C 0.40492 0.85787 0.6199 0.0
C2749 C 0.38654 0.82748 0.64968 0.0
C2750 C 0.39034 0.81034 0.66619 0.0
C2751 C 0.41806 0.82486 0.67741 0.0
C2752 C 0.42114 0.80891 0.69331 0.0
C2753 C 0.39661 0.77845 0.69814 0.0
C2754 C 0.36895 0.76387 0.68707 0.0
C2755 C 0.36574 0.77973 0.67118 0.0
H2756 H 0.39902 0.76617 0.71048 0.0
H2757 H 0.36162 0.9182 0.55765 0.0
H2758 H 0.58351 0.73481 0.87171 0.0
H2759 H 0.52975 0.68783 0.87122 0.0
H2760 H 0.53851 0.67072 0.93128 0.0
H2761 H 0.59149 0.71833 0.93207 0.0
H2762 H 0.51666 0.61595 0.89793 0.0
H2763 H 0.49812 0.69465 0.9305 0.0
H2764 H 0.49986 0.74616 0.93262 0.0
H2765 H 0.44569 0.72541 0.88048 0.0
H2766 H 0.44437 0.67412 0.87778 0.0
H2767 H 0.36769 0.50257 0.93751 0.0
H2768 H 0.42113 0.54371 0.92789 0.0
H2769 H 0.38113 0.5757 0.88372 0.0
H2770 H 0.32747 0.5346 0.89365 0.0
H2771 H 0.4192 0.62373 0.90435 0.0
H2772 H 0.43093 0.544 0.87281 0.0
H2773 H 0.43068 0.49379 0.86723 0.0
H2774 H 0.49758 0.51601 0.91316 0.0
H2775 H 0.49792 0.56616 0.91919 0.0
C2776 C 0.57382 0.72101 0.88479 0.0
C2777 C 0.59141 0.7302 0.90197 0.0
C2778 C 0.54321 0.69431 0.8845 0.0
C2779 C 0.53019 0.67599 0.90124 0.0
C2780 C 0.5481 0.68471 0.91826 0.0
C2781 C 0.57824 0.7119 0.91871 0.0
C2782 C 0.49801 0.64747 0.90105 0.0
C2783 C 0.49526 0.61746 0.8995 0.0
C2784 C 0.47022 0.64972 0.9023 0.0
C2785 C 0.47164 0.68082 0.90375 0.0
C2786 C 0.4871 0.70132 0.9193 0.0
C2787 C 0.48788 0.73041 0.92065 0.0
C2788 C 0.47292 0.73903 0.90667 0.0
C2789 C 0.4573 0.7187 0.89127 0.0
C2790 C 0.45658 0.68966 0.8898 0.0
C2791 C 0.37045 0.51759 0.92524 0.0
C2792 C 0.34357 0.51512 0.91609 0.0
C2793 C 0.40103 0.54119 0.91974 0.0
C2794 C 0.40541 0.56294 0.90499 0.0
C2795 C 0.37851 0.55927 0.89512 0.0
C2796 C 0.34786 0.53557 0.90062 0.0
C2797 C 0.43743 0.59153 0.90166 0.0
C2798 C 0.44034 0.62181 0.90257 0.0
C2799 C 0.46537 0.58948 0.89956 0.0
C2800 C 0.46418 0.55869 0.89658 0.0
C2801 C 0.44526 0.53798 0.8819 0.0
C2802 C 0.4452 0.50958 0.8786 0.0
C2803 C 0.46404 0.50167 0.88986 0.0
C2804 C 0.48295 0.52213 0.90447 0.0
C2805 C 0.4831 0.55055 0.90782 0.0
H2806 H 0.46405 0.47973 0.88724 0.0
H2807 H 0.47328 0.76139 0.9078 0.0
loop_
_geom_bond_atom_site_label_1
_geom_bond_atom_site_label_2
_geom_bond_distance
_geom_bond_site_symmetry_2
_ccdc_geom_bond_type
Eu0 N29 2.600 . S
Eu0 N35 2.562 . S
Eu0 O44 2.462 . S
Eu0 O45 2.373 . S
Eu0 O47 2.432 . S
Eu0 O48 2.291 . S
Eu0 O52 2.335 . S
Eu0 O55 2.372 . S
Eu0 C64 2.787 . S
C1 N2 1.365 . S
C1 C4 1.405 . S
C1 C8 1.448 . S
N2 C1 1.365 . S
N2 C5 1.319 . S
N2 Eu11 2.600 . S
C3 C5 1.397 . S
C3 C6 1.367 . S
C3 H23 0.931 . S
C4 C1 1.405 . S
C4 C6 1.403 . S
C4 C10 1.439 . S
C5 N2 1.319 . S
C5 C3 1.397 . S
C5 H16 0.930 . S
C6 C3 1.367 . S
C6 C4 1.403 . S
C6 H27 0.929 . S
C7 C8 1.430 . S
C7 C9 1.387 . S
C7 C13 1.404 . S
C8 C1 1.448 . S
C8 C7 1.430 . S
C8 N12 1.351 . S
C9 C7 1.387 . S
C9 C10 1.374 . S
C9 H24 0.931 . S
C10 C4 1.439 . S
C10 C9 1.374 . S
C10 H25 0.931 . S
Eu11 N2 2.600 . S
Eu11 N12 2.562 . S
Eu11 O46 2.335 . S
Eu11 O49 2.372 . S
Eu11 O50 2.462 . S
Eu11 O51 2.373 . S
Eu11 O53 2.432 . S
Eu11 O54 2.291 . S
Eu11 C75 2.787 . S
N12 C8 1.351 . S
N12 Eu11 2.562 . S
N12 C14 1.325 . S
C13 C7 1.404 . S
C13 C15 1.366 . S
C13 H21 0.930 . S
C14 N12 1.325 . S
C14 C15 1.416 . S
C14 H20 0.929 . S
C15 C13 1.366 . S
C15 C14 1.416 . S
C15 H17 0.930 . S
H16 C5 0.930 . S
H17 C15 0.930 . S
H18 C33 0.930 . S
H19 C40 0.930 . S
H20 C14 0.929 . S
H21 C13 0.930 . S
H22 C36 0.929 . S
H23 C3 0.931 . S
H24 C9 0.931 . S
H25 C10 0.931 . S
H26 C31 0.931 . S
H27 C6 0.929 . S
H28 C39 0.930 . S
N29 Eu0 2.600 . S
N29 C30 1.365 . S
N29 C33 1.319 . S
C30 N29 1.365 . S
C30 C32 1.405 . S
C30 C38 1.448 . S
C31 H26 0.931 . S
C31 C33 1.397 . S
C31 C34 1.367 . S
C32 C30 1.405 . S
C32 C34 1.403 . S
C32 C65 1.439 . S
C33 H18 0.930 . S
C33 N29 1.319 . S
C33 C31 1.397 . S
C34 C31 1.367 . S
C34 C32 1.403 . S
C34 H41 0.929 . S
N35 Eu0 2.562 . S
N35 C36 1.325 . S
N35 C38 1.351 . S
C36 H22 0.929 . S
C36 N35 1.325 . S
C36 C40 1.416 . S
C37 C38 1.430 . S
C37 C39 1.404 . S
C37 C66 1.387 . S
C38 C30 1.448 . S
C38 N35 1.351 . S
C38 C37 1.430 . S
C39 H28 0.930 . S
C39 C37 1.404 . S
C39 C40 1.366 . S
C40 H19 0.930 . S
C40 C36 1.416 . S
C40 C39 1.366 . S
H41 C34 0.929 . S
H42 C65 0.931 . S
H43 C66 0.931 . S
O44 Eu0 2.462 . S
O44 C64 1.252 . S
O45 Eu0 2.373 . S
O45 C56 1.249 . S
O46 Eu11 2.335 . S
O46 C56 1.264 . S
O47 Eu0 2.432 . S
O47 C64 1.268 . S
O48 Eu0 2.291 . S
O48 C63 1.255 . S
O49 Eu11 2.372 . S
O49 C63 1.257 . S
O50 Eu11 2.462 . S
O50 C75 1.252 . S
O51 Eu11 2.373 . S
O51 C67 1.249 . S
O52 Eu0 2.335 . S
O52 C67 1.264 . S
O53 Eu11 2.432 . S
O53 C75 1.268 . S
O54 Eu11 2.291 . S
O54 C74 1.255 . S
O55 Eu0 2.372 . S
O55 C74 1.257 . S
C56 O45 1.249 . S
C56 O46 1.264 . S
C57 C60 1.382 . S
C57 C62 1.390 . S
C57 C64 1.506 . S
C58 C59 1.398 . S
C58 C62 1.392 1_565 S
C59 C58 1.398 . S
C59 C61 1.372 . S
C59 H76 0.931 . S
C60 C57 1.382 . S
C60 C61 1.390 1_545 S
C60 H77 0.931 . S
C61 C59 1.372 . S
C61 C60 1.390 1_565 S
C61 H78 0.929 . S
C62 C57 1.390 . S
C62 C58 1.392 1_545 S
C62 H79 0.930 . S
C63 O48 1.255 . S
C63 O49 1.257 . S
C64 Eu0 2.787 . S
C64 O44 1.252 . S
C64 O47 1.268 . S
C64 C57 1.506 . S
C65 C32 1.439 . S
C65 H42 0.931 . S
C65 C66 1.374 . S
C66 C37 1.387 . S
C66 H43 0.931 . S
C66 C65 1.374 . S
C67 O51 1.249 . S
C67 O52 1.264 . S
C68 C71 1.382 . S
C68 C72 1.390 . S
C68 C75 1.506 . S
C69 C70 1.398 . S
C69 C72 1.392 . S
C70 C69 1.398 . S
C70 C73 1.372 . S
C70 H80 0.931 . S
C71 C68 1.382 . S
C71 C73 1.390 . S
C71 H81 0.931 . S
C72 C68 1.390 . S
C72 C69 1.392 . S
C72 H82 0.930 . S
C73 C70 1.372 . S
C73 C71 1.390 . S
C73 H83 0.929 . S
C74 O54 1.255 . S
C74 O55 1.257 . S
C75 Eu11 2.787 . S
C75 O50 1.252 . S
C75 O53 1.268 . S
C75 C68 1.506 . S
H76 C59 0.931 . S
H77 C60 0.931 . S
H78 C61 0.929 . S
H79 C62 0.930 . S
H80 C70 0.931 . S
H81 C71 0.931 . S
H82 C72 0.930 . S
H83 C73 0.929 . S
Eu84 N113 2.600 . S
Eu84 N119 2.562 . S
Eu84 O128 2.462 . S
Eu84 O129 2.373 . S
Eu84 O131 2.432 . S
Eu84 O132 2.291 . S
Eu84 O136 2.335 . S
Eu84 O139 2.372 . S
Eu84 C148 2.787 . S
C85 N86 1.365 . S
C85 C88 1.405 . S
C85 C92 1.448 . S
N86 C85 1.365 . S
N86 C89 1.319 . S
N86 Eu95 2.600 . S
C87 C89 1.397 . S
C87 C90 1.367 . S
C87 H107 0.931 . S
C88 C85 1.405 . S
C88 C90 1.403 . S
C88 C94 1.439 . S
C89 N86 1.319 . S
C89 C87 1.397 . S
C89 H100 0.930 . S
C90 C87 1.367 . S
C90 C88 1.403 . S
C90 H111 0.929 . S
C91 C92 1.430 . S
C91 C93 1.387 . S
C91 C97 1.404 . S
C92 C85 1.448 . S
C92 C91 1.430 . S
C92 N96 1.351 . S
C93 C91 1.387 . S
C93 C94 1.374 . S
C93 H108 0.931 . S
C94 C88 1.439 . S
C94 C93 1.374 . S
C94 H109 0.931 . S
Eu95 N86 2.600 . S
Eu95 N96 2.562 . S
Eu95 O130 2.335 . S
Eu95 O133 2.372 . S
Eu95 O134 2.462 . S
Eu95 O135 2.373 . S
Eu95 O137 2.432 . S
Eu95 O138 2.291 . S
Eu95 C159 2.787 . S
N96 C92 1.351 . S
N96 Eu95 2.562 . S
N96 C98 1.325 . S
C97 C91 1.404 . S
C97 C99 1.366 . S
C97 H105 0.930 . S
C98 N96 1.325 . S
C98 C99 1.416 . S
C98 H104 0.929 . S
C99 C97 1.366 . S
C99 C98 1.416 . S
C99 H101 0.930 . S
H100 C89 0.930 . S
H101 C99 0.930 . S
H102 C117 0.930 . S
H103 C124 0.930 . S
H104 C98 0.929 . S
H105 C97 0.930 . S
H106 C120 0.929 . S
H107 C87 0.931 . S
H108 C93 0.931 . S
H109 C94 0.931 . S
H110 C115 0.931 . S
H111 C90 0.929 . S
H112 C123 0.930 . S
N113 Eu84 2.600 . S
N113 C114 1.365 . S
N113 C117 1.319 . S
C114 N113 1.365 . S
C114 C116 1.405 . S
C114 C122 1.448 . S
C115 H110 0.931 . S
C115 C117 1.397 . S
C115 C118 1.367 . S
C116 C114 1.405 . S
C116 C118 1.403 . S
C116 C149 1.439 . S
C117 H102 0.930 . S
C117 N113 1.319 . S
C117 C115 1.397 . S
C118 C115 1.367 . S
C118 C116 1.403 . S
C118 H125 0.929 . S
N119 Eu84 2.562 . S
N119 C120 1.325 . S
N119 C122 1.351 . S
C120 H106 0.929 . S
C120 N119 1.325 . S
C120 C124 1.416 . S
C121 C122 1.430 . S
C121 C123 1.404 . S
C121 C150 1.387 . S
C122 C114 1.448 . S
C122 N119 1.351 . S
C122 C121 1.430 . S
C123 H112 0.930 . S
C123 C121 1.404 . S
C123 C124 1.366 . S
C124 H103 0.930 . S
C124 C120 1.416 . S
C124 C123 1.366 . S
H125 C118 0.929 . S
H126 C149 0.931 . S
H127 C150 0.929 1_455 S
O128 Eu84 2.462 . S
O128 C148 1.252 . S
O129 Eu84 2.373 . S
O129 C140 1.249 . S
O130 Eu95 2.335 . S
O130 C140 1.264 . S
O131 Eu84 2.432 . S
O131 C148 1.268 . S
O132 Eu84 2.291 . S
O132 C147 1.255 . S
O133 Eu95 2.372 . S
O133 C147 1.257 . S
O134 Eu95 2.462 . S
O134 C159 1.252 . S
O135 Eu95 2.373 . S
O135 C151 1.249 . S
O136 Eu84 2.335 . S
O136 C151 1.264 . S
O137 Eu95 2.432 . S
O137 C159 1.268 . S
O138 Eu95 2.291 . S
O138 C158 1.255 . S
O139 Eu84 2.372 . S
O139 C158 1.257 . S
C140 O129 1.249 . S
C140 O130 1.264 . S
C141 C144 1.382 . S
C141 C146 1.390 . S
C141 C148 1.506 . S
C142 C143 1.398 . S
C142 C146 1.392 . S
C143 C142 1.398 . S
C143 C145 1.372 . S
C143 H160 0.931 . S
C144 C141 1.382 . S
C144 C145 1.390 . S
C144 H161 0.931 . S
C145 C143 1.372 . S
C145 C144 1.390 . S
C145 H162 0.929 . S
C146 C141 1.390 . S
C146 C142 1.392 . S
C146 H163 0.930 . S
C147 O132 1.255 . S
C147 O133 1.257 . S
C148 Eu84 2.787 . S
C148 O128 1.252 . S
C148 O131 1.268 . S
C148 C141 1.506 . S
C149 C116 1.439 . S
C149 H126 0.931 . S
C149 C150 1.374 . S
C150 C121 1.387 . S
C150 H127 0.929 1_655 S
C150 C149 1.374 . S
C151 O135 1.249 . S
C151 O136 1.264 . S
C152 C155 1.382 . S
C152 C156 1.390 . S
C152 C159 1.506 . S
C153 C154 1.398 . S
C153 C156 1.392 . S
C154 C153 1.398 . S
C154 C157 1.372 . S
C154 H164 0.931 . S
C155 C152 1.382 . S
C155 C157 1.390 . S
C155 H165 0.931 . S
C156 C152 1.390 . S
C156 C153 1.392 . S
C156 H166 0.930 . S
C157 C154 1.372 . S
C157 C155 1.390 . S
C157 H167 0.929 . S
C158 O138 1.255 . S
C158 O139 1.257 . S
C159 Eu95 2.787 . S
C159 O134 1.252 . S
C159 O137 1.268 . S
C159 C152 1.506 . S
H160 C143 0.931 . S
H161 C144 0.931 . S
H162 C145 0.929 . S
H163 C146 0.930 . S
H164 C154 0.931 . S
H165 C155 0.931 . S
H166 C156 0.930 . S
H167 C157 0.929 . S
Eu168 N197 2.600 . S
Eu168 N203 2.562 . S
Eu168 O212 2.462 . S
Eu168 O213 2.373 . S
Eu168 O215 2.432 . S
Eu168 O216 2.291 . S
Eu168 O220 2.335 . S
Eu168 O223 2.372 . S
Eu168 C232 2.787 . S
C169 N170 1.365 . S
C169 C172 1.405 . S
C169 C176 1.448 . S
N170 C169 1.365 . S
N170 C173 1.319 . S
N170 Eu179 2.600 . S
C171 C173 1.397 . S
C171 C174 1.367 . S
C171 H191 0.931 . S
C172 C169 1.405 . S
C172 C174 1.403 . S
C172 C178 1.439 . S
C173 N170 1.319 . S
C173 C171 1.397 . S
C173 H184 0.930 . S
C174 C171 1.367 . S
C174 C172 1.403 . S
C174 H195 0.929 . S
C175 C176 1.430 . S
C175 C177 1.387 . S
C175 C181 1.404 . S
C176 C169 1.448 . S
C176 C175 1.430 . S
C176 N180 1.351 . S
C177 C175 1.387 . S
C177 C178 1.374 . S
C177 H192 0.929 1_545 S
C178 C172 1.439 . S
C178 C177 1.374 . S
C178 H193 0.931 . S
Eu179 N170 2.600 . S
Eu179 N180 2.562 . S
Eu179 O214 2.335 . S
Eu179 O217 2.372 . S
Eu179 O218 2.462 . S
Eu179 O219 2.373 . S
Eu179 O221 2.432 . S
Eu179 O222 2.291 . S
Eu179 C243 2.787 . S
N180 C176 1.351 . S
N180 Eu179 2.562 . S
N180 C182 1.325 . S
C181 C175 1.404 . S
C181 C183 1.366 . S
C181 H189 0.930 . S
C182 N180 1.325 . S
C182 C183 1.416 . S
C182 H188 0.929 . S
C183 C181 1.366 . S
C183 C182 1.416 . S
C183 H185 0.930 . S
H184 C173 0.930 . S
H185 C183 0.930 . S
H186 C201 0.930 . S
H187 C208 0.930 . S
H188 C182 0.929 . S
H189 C181 0.930 . S
H190 C204 0.929 . S
H191 C171 0.931 . S
H192 C177 0.929 1_565 S
H193 C178 0.931 . S
H194 C199 0.931 . S
H195 C174 0.929 . S
H196 C207 0.930 . S
N197 Eu168 2.600 . S
N197 C198 1.365 . S
N197 C201 1.319 . S
C198 N197 1.365 . S
C198 C200 1.405 . S
C198 C206 1.448 . S
C199 H194 0.931 . S
C199 C201 1.397 . S
C199 C202 1.367 . S
C200 C198 1.405 . S
C200 C202 1.403 . S
C200 C233 1.439 . S
C201 H186 0.930 . S
C201 N197 1.319 . S
C201 C199 1.397 . S
C202 C199 1.367 . S
C202 C200 1.403 . S
C202 H209 0.929 . S
N203 Eu168 2.562 . S
N203 C204 1.325 . S
N203 C206 1.351 . S
C204 H190 0.929 . S
C204 N203 1.325 . S
C204 C208 1.416 . S
C205 C206 1.430 . S
C205 C207 1.404 . S
C205 C234 1.387 . S
C206 C198 1.448 . S
C206 N203 1.351 . S
C206 C205 1.430 . S
C207 H196 0.930 . S
C207 C205 1.404 . S
C207 C208 1.366 . S
C208 H187 0.930 . S
C208 C204 1.416 . S
C208 C207 1.366 . S
H209 C202 0.929 . S
H210 C233 0.931 . S
H211 C234 0.931 . S
O212 Eu168 2.462 . S
O212 C232 1.252 . S
O213 Eu168 2.373 . S
O213 C224 1.249 . S
O214 Eu179 2.335 . S
O214 C224 1.264 . S
O215 Eu168 2.432 . S
O215 C232 1.268 . S
O216 Eu168 2.291 . S
O216 C231 1.255 . S
O217 Eu179 2.372 . S
O217 C231 1.257 . S
O218 Eu179 2.462 . S
O218 C243 1.252 . S
O219 Eu179 2.373 . S
O219 C235 1.249 . S
O220 Eu168 2.335 . S
O220 C235 1.264 . S
O221 Eu179 2.432 . S
O221 C243 1.268 . S
O222 Eu179 2.291 . S
O222 C242 1.255 . S
O223 Eu168 2.372 . S
O223 C242 1.257 . S
C224 O213 1.249 . S
C224 O214 1.264 . S
C225 C228 1.382 . S
C225 C230 1.390 . S
C225 C232 1.506 . S
C226 C227 1.398 . S
C226 C230 1.392 1_455 S
C227 C226 1.398 . S
C227 C229 1.372 . S
C227 H244 0.931 . S
C228 C225 1.382 . S
C228 C229 1.390 1_655 S
C228 H245 0.931 . S
C229 C227 1.372 . S
C229 C228 1.390 1_455 S
C229 H246 0.929 . S
C230 C225 1.390 . S
C230 C226 1.392 1_655 S
C230 H247 0.930 . S
C231 O216 1.255 . S
C231 O217 1.257 . S
C232 Eu168 2.787 . S
C232 O212 1.252 . S
C232 O215 1.268 . S
C232 C225 1.506 . S
C233 C200 1.439 . S
C233 H210 0.931 . S
C233 C234 1.374 . S
C234 C205 1.387 . S
C234 H211 0.931 . S
C234 C233 1.374 . S
C235 O219 1.249 . S
C235 O220 1.264 . S
C236 C239 1.382 . S
C236 C240 1.390 . S
C236 C243 1.506 . S
C237 C238 1.398 . S
C237 C240 1.392 . S
C238 C237 1.398 . S
C238 C241 1.372 . S
C238 H248 0.931 . S
C239 C236 1.382 . S
C239 C241 1.390 . S
C239 H249 0.931 . S
C240 C236 1.390 . S
C240 C237 1.392 . S
C240 H250 0.930 . S
C241 C238 1.372 . S
C241 C239 1.390 . S
C241 H251 0.929 . S
C242 O222 1.255 . S
C242 O223 1.257 . S
C243 Eu179 2.787 . S
C243 O218 1.252 . S
C243 O221 1.268 . S
C243 C236 1.506 . S
H244 C227 0.931 . S
H245 C228 0.931 . S
H246 C229 0.929 . S
H247 C230 0.930 . S
H248 C238 0.931 . S
H249 C239 0.931 . S
H250 C240 0.930 . S
H251 C241 0.929 . S
Eu252 N281 2.600 . S
Eu252 N287 2.562 . S
Eu252 O296 2.462 . S
Eu252 O297 2.373 . S
Eu252 O299 2.432 . S
Eu252 O300 2.291 . S
Eu252 O304 2.335 . S
Eu252 O307 2.372 . S
Eu252 C316 2.787 . S
C253 N254 1.365 . S
C253 C256 1.405 . S
C253 C260 1.448 . S
N254 C253 1.365 . S
N254 C257 1.319 . S
N254 Eu263 2.600 . S
C255 C257 1.397 . S
C255 C258 1.367 . S
C255 H275 0.931 . S
C256 C253 1.405 . S
C256 C258 1.403 . S
C256 C262 1.439 . S
C257 N254 1.319 . S
C257 C255 1.397 . S
C257 H268 0.930 . S
C258 C255 1.367 . S
C258 C256 1.403 . S
C258 H279 0.929 . S
C259 C260 1.430 . S
C259 C261 1.387 . S
C259 C265 1.404 . S
C260 C253 1.448 . S
C260 C259 1.430 . S
C260 N264 1.351 . S
C261 C259 1.387 . S
C261 C262 1.374 . S
C261 H276 0.931 . S
C262 C256 1.439 . S
C262 C261 1.374 . S
C262 H277 0.931 . S
Eu263 N254 2.600 . S
Eu263 N264 2.562 . S
Eu263 O298 2.335 . S
Eu263 O301 2.372 . S
Eu263 O302 2.462 . S
Eu263 O303 2.373 . S
Eu263 O305 2.432 . S
Eu263 O306 2.291 . S
Eu263 C327 2.787 . S
N264 C260 1.351 . S
N264 Eu263 2.562 . S
N264 C266 1.325 . S
C265 C259 1.404 . S
C265 C267 1.366 . S
C265 H273 0.930 . S
C266 N264 1.325 . S
C266 C267 1.416 . S
C266 H272 0.929 . S
C267 C265 1.366 . S
C267 C266 1.416 . S
C267 H269 0.930 . S
H268 C257 0.930 . S
H269 C267 0.930 . S
H270 C285 0.930 . S
H271 C292 0.930 . S
H272 C266 0.929 . S
H273 C265 0.930 . S
H274 C288 0.929 . S
H275 C255 0.931 . S
H276 C261 0.931 . S
H277 C262 0.931 . S
H278 C283 0.931 . S
H279 C258 0.929 . S
H280 C291 0.930 . S
N281 Eu252 2.600 . S
N281 C282 1.365 . S
N281 C285 1.319 . S
C282 N281 1.365 . S
C282 C284 1.405 . S
C282 C290 1.448 . S
C283 H278 0.931 . S
C283 C285 1.397 . S
C283 C286 1.367 . S
C284 C282 1.405 . S
C284 C286 1.403 . S
C284 C317 1.439 . S
C285 H270 0.930 . S
C285 N281 1.319 . S
C285 C283 1.397 . S
C286 C283 1.367 . S
C286 C284 1.403 . S
C286 H293 0.929 . S
N287 Eu252 2.562 . S
N287 C288 1.325 . S
N287 C290 1.351 . S
C288 H274 0.929 . S
C288 N287 1.325 . S
C288 C292 1.416 . S
C289 C290 1.430 . S
C289 C291 1.404 . S
C289 C318 1.387 . S
C290 C282 1.448 . S
C290 N287 1.351 . S
C290 C289 1.430 . S
C291 H280 0.930 . S
C291 C289 1.404 . S
C291 C292 1.366 . S
C292 H271 0.930 . S
C292 C288 1.416 . S
C292 C291 1.366 . S
H293 C286 0.929 . S
H294 C317 0.931 . S
H295 C318 0.931 . S
O296 Eu252 2.462 . S
O296 C316 1.252 . S
O297 Eu252 2.373 . S
O297 C308 1.249 . S
O298 Eu263 2.335 . S
O298 C308 1.264 . S
O299 Eu252 2.432 . S
O299 C316 1.268 . S
O300 Eu252 2.291 . S
O300 C315 1.255 . S
O301 Eu263 2.372 . S
O301 C315 1.257 . S
O302 Eu263 2.462 . S
O302 C327 1.252 . S
O303 Eu263 2.373 . S
O303 C319 1.249 . S
O304 Eu252 2.335 . S
O304 C319 1.264 . S
O305 Eu263 2.432 . S
O305 C327 1.268 . S
O306 Eu263 2.291 . S
O306 C326 1.255 . S
O307 Eu252 2.372 . S
O307 C326 1.257 . S
C308 O297 1.249 . S
C308 O298 1.264 . S
C309 C312 1.382 . S
C309 C314 1.390 . S
C309 C316 1.506 . S
C310 C311 1.398 . S
C310 C314 1.392 . S
C311 C310 1.398 . S
C311 C313 1.372 . S
C311 H328 0.931 . S
C312 C309 1.382 . S
C312 C313 1.390 . S
C312 H329 0.931 . S
C313 C311 1.372 . S
C313 C312 1.390 . S
C313 H330 0.929 . S
C314 C309 1.390 . S
C314 C310 1.392 . S
C314 H331 0.930 . S
C315 O300 1.255 . S
C315 O301 1.257 . S
C316 Eu252 2.787 . S
C316 O296 1.252 . S
C316 O299 1.268 . S
C316 C309 1.506 . S
C317 C284 1.439 . S
C317 H294 0.931 . S
C317 C318 1.374 . S
C318 C289 1.387 . S
C318 H295 0.931 . S
C318 C317 1.374 . S
C319 O303 1.249 . S
C319 O304 1.264 . S
C320 C323 1.382 . S
C320 C324 1.390 . S
C320 C327 1.506 . S
C321 C322 1.398 . S
C321 C324 1.392 1_565 S
C322 C321 1.398 . S
C322 C325 1.372 . S
C322 H332 0.931 . S
C323 C320 1.382 . S
C323 C325 1.390 1_545 S
C323 H333 0.931 . S
C324 C320 1.390 . S
C324 C321 1.392 1_545 S
C324 H334 0.930 . S
C325 C322 1.372 . S
C325 C323 1.390 1_565 S
C325 H335 0.929 . S
C326 O306 1.255 . S
C326 O307 1.257 . S
C327 Eu263 2.787 . S
C327 O302 1.252 . S
C327 O305 1.268 . S
C327 C320 1.506 . S
H328 C311 0.931 . S
H329 C312 0.931 . S
H330 C313 0.929 . S
H331 C314 0.930 . S
H332 C322 0.931 . S
H333 C323 0.931 . S
H334 C324 0.930 . S
H335 C325 0.929 . S
Eu336 N365 2.600 . S
Eu336 N371 2.562 . S
Eu336 O380 2.462 . S
Eu336 O381 2.373 . S
Eu336 O383 2.432 . S
Eu336 O384 2.291 . S
Eu336 O388 2.335 . S
Eu336 O391 2.372 . S
Eu336 C400 2.787 . S
C337 N338 1.365 . S
C337 C340 1.405 . S
C337 C344 1.448 . S
N338 C337 1.365 . S
N338 C341 1.319 . S
N338 Eu347 2.600 . S
C339 C341 1.397 . S
C339 C342 1.367 . S
C339 H359 0.931 . S
C340 C337 1.405 . S
C340 C342 1.403 . S
C340 C346 1.439 . S
C341 N338 1.319 . S
C341 C339 1.397 . S
C341 H352 0.930 . S
C342 C339 1.367 . S
C342 C340 1.403 . S
C342 H363 0.929 . S
C343 C344 1.430 . S
C343 C345 1.387 . S
C343 C349 1.404 . S
C344 C337 1.448 . S
C344 C343 1.430 . S
C344 N348 1.351 . S
C345 C343 1.387 . S
C345 C346 1.374 . S
C345 H360 0.929 1_655 S
C346 C340 1.439 . S
C346 C345 1.374 . S
C346 H361 0.931 . S
Eu347 N338 2.600 . S
Eu347 N348 2.562 . S
Eu347 O382 2.335 . S
Eu347 O385 2.372 . S
Eu347 O386 2.462 . S
Eu347 O387 2.373 . S
Eu347 O389 2.432 . S
Eu347 O390 2.291 . S
Eu347 C411 2.787 . S
N348 C344 1.351 . S
N348 Eu347 2.562 . S
N348 C350 1.325 . S
C349 C343 1.404 . S
C349 C351 1.366 . S
C349 H357 0.930 . S
C350 N348 1.325 . S
C350 C351 1.416 . S
C350 H356 0.929 . S
C351 C349 1.366 . S
C351 C350 1.416 . S
C351 H353 0.930 . S
H352 C341 0.930 . S
H353 C351 0.930 . S
H354 C369 0.930 . S
H355 C376 0.930 . S
H356 C350 0.929 . S
H357 C349 0.930 . S
H358 C372 0.929 . S
H359 C339 0.931 . S
H360 C345 0.929 1_455 S
H361 C346 0.931 . S
H362 C367 0.931 . S
H363 C342 0.929 . S
H364 C375 0.930 . S
N365 Eu336 2.600 . S
N365 C366 1.365 . S
N365 C369 1.319 . S
C366 N365 1.365 . S
C366 C368 1.405 . S
C366 C374 1.448 . S
C367 H362 0.931 . S
C367 C369 1.397 . S
C367 C370 1.367 . S
C368 C366 1.405 . S
C368 C370 1.403 . S
C368 C401 1.439 . S
C369 H354 0.930 . S
C369 N365 1.319 . S
C369 C367 1.397 . S
C370 C367 1.367 . S
C370 C368 1.403 . S
C370 H377 0.929 . S
N371 Eu336 2.562 . S
N371 C372 1.325 . S
N371 C374 1.351 . S
C372 H358 0.929 . S
C372 N371 1.325 . S
C372 C376 1.416 . S
C373 C374 1.430 . S
C373 C375 1.404 . S
C373 C402 1.387 . S
C374 C366 1.448 . S
C374 N371 1.351 . S
C374 C373 1.430 . S
C375 H364 0.930 . S
C375 C373 1.404 . S
C375 C376 1.366 . S
C376 H355 0.930 . S
C376 C372 1.416 . S
C376 C375 1.366 . S
H377 C370 0.929 . S
H378 C401 0.931 . S
H379 C402 0.931 . S
O380 Eu336 2.462 . S
O380 C400 1.252 . S
O381 Eu336 2.373 . S
O381 C392 1.249 . S
O382 Eu347 2.335 . S
O382 C392 1.264 . S
O383 Eu336 2.432 . S
O383 C400 1.268 . S
O384 Eu336 2.291 . S
O384 C399 1.255 . S
O385 Eu347 2.372 . S
O385 C399 1.257 . S
O386 Eu347 2.462 . S
O386 C411 1.252 . S
O387 Eu347 2.373 . S
O387 C403 1.249 . S
O388 Eu336 2.335 . S
O388 C403 1.264 . S
O389 Eu347 2.432 . S
O389 C411 1.268 . S
O390 Eu347 2.291 . S
O390 C410 1.255 . S
O391 Eu336 2.372 . S
O391 C410 1.257 . S
C392 O381 1.249 . S
C392 O382 1.264 . S
C393 C396 1.382 . S
C393 C398 1.390 . S
C393 C400 1.506 . S
C394 C395 1.398 . S
C394 C398 1.392 . S
C395 C394 1.398 . S
C395 C397 1.372 . S
C395 H412 0.931 . S
C396 C393 1.382 . S
C396 C397 1.390 . S
C396 H413 0.931 . S
C397 C395 1.372 . S
C397 C396 1.390 . S
C397 H414 0.929 . S
C398 C393 1.390 . S
C398 C394 1.392 . S
C398 H415 0.930 . S
C399 O384 1.255 . S
C399 O385 1.257 . S
C400 Eu336 2.787 . S
C400 O380 1.252 . S
C400 O383 1.268 . S
C400 C393 1.506 . S
C401 C368 1.439 . S
C401 H378 0.931 . S
C401 C402 1.374 . S
C402 C373 1.387 . S
C402 H379 0.931 . S
C402 C401 1.374 . S
C403 O387 1.249 . S
C403 O388 1.264 . S
C404 C407 1.382 . S
C404 C408 1.390 . S
C404 C411 1.506 . S
C405 C406 1.398 . S
C405 C408 1.392 . S
C406 C405 1.398 . S
C406 C409 1.372 . S
C406 H416 0.931 . S
C407 C404 1.382 . S
C407 C409 1.390 . S
C407 H417 0.931 . S
C408 C404 1.390 . S
C408 C405 1.392 . S
C408 H418 0.930 . S
C409 C406 1.372 . S
C409 C407 1.390 . S
C409 H419 0.929 . S
C410 O390 1.255 . S
C410 O391 1.257 . S
C411 Eu347 2.787 . S
C411 O386 1.252 . S
C411 O389 1.268 . S
C411 C404 1.506 . S
H412 C395 0.931 . S
H413 C396 0.931 . S
H414 C397 0.929 . S
H415 C398 0.930 . S
H416 C406 0.931 . S
H417 C407 0.931 . S
H418 C408 0.930 . S
H419 C409 0.929 . S
Eu420 N449 2.600 . S
Eu420 N455 2.562 . S
Eu420 O464 2.462 . S
Eu420 O465 2.373 . S
Eu420 O467 2.432 . S
Eu420 O468 2.291 . S
Eu420 O472 2.335 . S
Eu420 O475 2.372 . S
Eu420 C484 2.787 . S
C421 N422 1.365 . S
C421 C424 1.405 . S
C421 C428 1.448 . S
N422 C421 1.365 . S
N422 C425 1.319 . S
N422 Eu431 2.600 . S
C423 C425 1.397 . S
C423 C426 1.367 . S
C423 H443 0.931 . S
C424 C421 1.405 . S
C424 C426 1.403 . S
C424 C430 1.439 . S
C425 N422 1.319 . S
C425 C423 1.397 . S
C425 H436 0.930 . S
C426 C423 1.367 . S
C426 C424 1.403 . S
C426 H447 0.929 . S
C427 C428 1.430 . S
C427 C429 1.387 . S
C427 C433 1.404 . S
C428 C421 1.448 . S
C428 C427 1.430 . S
C428 N432 1.351 . S
C429 C427 1.387 . S
C429 C430 1.374 . S
C429 H444 0.931 . S
C430 C424 1.439 . S
C430 C429 1.374 . S
C430 H445 0.931 . S
Eu431 N422 2.600 . S
Eu431 N432 2.562 . S
Eu431 O466 2.335 . S
Eu431 O469 2.372 . S
Eu431 O470 2.462 . S
Eu431 O471 2.373 . S
Eu431 O473 2.432 . S
Eu431 O474 2.291 . S
Eu431 C495 2.787 . S
N432 C428 1.351 . S
N432 Eu431 2.562 . S
N432 C434 1.325 . S
C433 C427 1.404 . S
C433 C435 1.366 . S
C433 H441 0.930 . S
C434 N432 1.325 . S
C434 C435 1.416 . S
C434 H440 0.929 . S
C435 C433 1.366 . S
C435 C434 1.416 . S
C435 H437 0.930 . S
H436 C425 0.930 . S
H437 C435 0.930 . S
H438 C453 0.930 . S
H439 C460 0.930 . S
H440 C434 0.929 . S
H441 C433 0.930 . S
H442 C456 0.929 . S
H443 C423 0.931 . S
H444 C429 0.931 . S
H445 C430 0.931 . S
H446 C451 0.931 . S
H447 C426 0.929 . S
H448 C459 0.930 . S
N449 Eu420 2.600 . S
N449 C450 1.365 . S
N449 C453 1.319 . S
C450 N449 1.365 . S
C450 C452 1.405 . S
C450 C458 1.448 . S
C451 H446 0.931 . S
C451 C453 1.397 . S
C451 C454 1.367 . S
C452 C450 1.405 . S
C452 C454 1.403 . S
C452 C485 1.439 . S
C453 H438 0.930 . S
C453 N449 1.319 . S
C453 C451 1.397 . S
C454 C451 1.367 . S
C454 C452 1.403 . S
C454 H461 0.929 . S
N455 Eu420 2.562 . S
N455 C456 1.325 . S
N455 C458 1.351 . S
C456 H442 0.929 . S
C456 N455 1.325 . S
C456 C460 1.416 . S
C457 C458 1.430 . S
C457 C459 1.404 . S
C457 C486 1.387 . S
C458 C450 1.448 . S
C458 N455 1.351 . S
C458 C457 1.430 . S
C459 H448 0.930 . S
C459 C457 1.404 . S
C459 C460 1.366 . S
C460 H439 0.930 . S
C460 C456 1.416 . S
C460 C459 1.366 . S
H461 C454 0.929 . S
H462 C485 0.931 . S
H463 C486 0.929 1_565 S
O464 Eu420 2.462 . S
O464 C484 1.252 . S
O465 Eu420 2.373 . S
O465 C476 1.249 . S
O466 Eu431 2.335 . S
O466 C476 1.264 . S
O467 Eu420 2.432 . S
O467 C484 1.268 . S
O468 Eu420 2.291 . S
O468 C483 1.255 . S
O469 Eu431 2.372 . S
O469 C483 1.257 . S
O470 Eu431 2.462 . S
O470 C495 1.252 . S
O471 Eu431 2.373 . S
O471 C487 1.249 . S
O472 Eu420 2.335 . S
O472 C487 1.264 . S
O473 Eu431 2.432 . S
O473 C495 1.268 . S
O474 Eu431 2.291 . S
O474 C494 1.255 . S
O475 Eu420 2.372 . S
O475 C494 1.257 . S
C476 O465 1.249 . S
C476 O466 1.264 . S
C477 C480 1.382 . S
C477 C482 1.390 . S
C477 C484 1.506 . S
C478 C479 1.398 . S
C478 C482 1.392 . S
C479 C478 1.398 . S
C479 C481 1.372 . S
C479 H496 0.931 . S
C480 C477 1.382 . S
C480 C481 1.390 . S
C480 H497 0.931 . S
C481 C479 1.372 . S
C481 C480 1.390 . S
C481 H498 0.929 . S
C482 C477 1.390 . S
C482 C478 1.392 . S
C482 H499 0.930 . S
C483 O468 1.255 . S
C483 O469 1.257 . S
C484 Eu420 2.787 . S
C484 O464 1.252 . S
C484 O467 1.268 . S
C484 C477 1.506 . S
C485 C452 1.439 . S
C485 H462 0.931 . S
C485 C486 1.374 . S
C486 C457 1.387 . S
C486 H463 0.929 1_545 S
C486 C485 1.374 . S
C487 O471 1.249 . S
C487 O472 1.264 . S
C488 C491 1.382 . S
C488 C492 1.390 . S
C488 C495 1.506 . S
C489 C490 1.398 . S
C489 C492 1.392 1_455 S
C490 C489 1.398 . S
C490 C493 1.372 . S
C490 H500 0.931 . S
C491 C488 1.382 . S
C491 C493 1.390 1_655 S
C491 H501 0.931 . S
C492 C488 1.390 . S
C492 C489 1.392 1_655 S
C492 H502 0.930 . S
C493 C490 1.372 . S
C493 C491 1.390 1_455 S
C493 H503 0.929 . S
C494 O474 1.255 . S
C494 O475 1.257 . S
C495 Eu431 2.787 . S
C495 O470 1.252 . S
C495 O473 1.268 . S
C495 C488 1.506 . S
H496 C479 0.931 . S
H497 C480 0.931 . S
H498 C481 0.929 . S
H499 C482 0.930 . S
H500 C490 0.931 . S
H501 C491 0.931 . S
H502 C492 0.930 . S
H503 C493 0.929 . S
Eu504 N533 2.600 . S
Eu504 N539 2.562 . S
Eu504 O548 2.462 . S
Eu504 O549 2.373 . S
Eu504 O551 2.432 . S
Eu504 O552 2.291 . S
Eu504 O556 2.335 . S
Eu504 O559 2.372 . S
Eu504 C568 2.787 . S
C505 N506 1.365 . S
C505 C508 1.405 . S
C505 C512 1.448 . S
N506 C505 1.365 . S
N506 C509 1.319 . S
N506 Eu515 2.600 . S
C507 C509 1.397 . S
C507 C510 1.367 . S
C507 H527 0.931 . S
C508 C505 1.405 . S
C508 C510 1.403 . S
C508 C514 1.439 . S
C509 N506 1.319 . S
C509 C507 1.397 . S
C509 H520 0.930 . S
C510 C507 1.367 . S
C510 C508 1.403 . S
C510 H531 0.929 . S
C511 C512 1.430 . S
C511 C513 1.387 . S
C511 C517 1.404 . S
C512 C505 1.448 . S
C512 C511 1.430 . S
C512 N516 1.351 . S
C513 C511 1.387 . S
C513 C514 1.374 . S
C513 H528 0.931 . S
C514 C508 1.439 . S
C514 C513 1.374 . S
C514 H529 0.931 . S
Eu515 N506 2.600 . S
Eu515 N516 2.562 . S
Eu515 O550 2.335 . S
Eu515 O553 2.372 . S
Eu515 O554 2.462 . S
Eu515 O555 2.373 . S
Eu515 O557 2.432 . S
Eu515 O558 2.291 . S
Eu515 C579 2.787 . S
N516 C512 1.351 . S
N516 Eu515 2.562 . S
N516 C518 1.325 . S
C517 C511 1.404 . S
C517 C519 1.366 . S
C517 H525 0.930 . S
C518 N516 1.325 . S
C518 C519 1.416 . S
C518 H524 0.929 . S
C519 C517 1.366 . S
C519 C518 1.416 . S
C519 H521 0.930 . S
H520 C509 0.930 . S
H521 C519 0.930 . S
H522 C537 0.930 . S
H523 C544 0.930 . S
H524 C518 0.929 . S
H525 C517 0.930 . S
H526 C540 0.929 . S
H527 C507 0.931 . S
H528 C513 0.931 . S
H529 C514 0.931 . S
H530 C535 0.931 . S
H531 C510 0.929 . S
H532 C543 0.930 . S
N533 Eu504 2.600 . S
N533 C534 1.365 . S
N533 C537 1.319 . S
C534 N533 1.365 . S
C534 C536 1.405 . S
C534 C542 1.448 . S
C535 H530 0.931 . S
C535 C537 1.397 . S
C535 C538 1.367 . S
C536 C534 1.405 . S
C536 C538 1.403 . S
C536 C569 1.439 . S
C537 H522 0.930 . S
C537 N533 1.319 . S
C537 C535 1.397 . S
C538 C535 1.367 . S
C538 C536 1.403 . S
C538 H545 0.929 . S
N539 Eu504 2.562 . S
N539 C540 1.325 . S
N539 C542 1.351 . S
C540 H526 0.929 . S
C540 N539 1.325 . S
C540 C544 1.416 . S
C541 C542 1.430 . S
C541 C543 1.404 . S
C541 C570 1.387 . S
C542 C534 1.448 . S
C542 N539 1.351 . S
C542 C541 1.430 . S
C543 H532 0.930 . S
C543 C541 1.404 . S
C543 C544 1.366 . S
C544 H523 0.930 . S
C544 C540 1.416 . S
C544 C543 1.366 . S
H545 C538 0.929 . S
H546 C569 0.931 . S
H547 C570 0.931 . S
O548 Eu504 2.462 . S
O548 C568 1.252 . S
O549 Eu504 2.373 . S
O549 C560 1.249 . S
O550 Eu515 2.335 . S
O550 C560 1.264 . S
O551 Eu504 2.432 . S
O551 C568 1.268 . S
O552 Eu504 2.291 . S
O552 C567 1.255 . S
O553 Eu515 2.372 . S
O553 C567 1.257 . S
O554 Eu515 2.462 . S
O554 C579 1.252 . S
O555 Eu515 2.373 . S
O555 C571 1.249 . S
O556 Eu504 2.335 . S
O556 C571 1.264 . S
O557 Eu515 2.432 . S
O557 C579 1.268 . S
O558 Eu515 2.291 . S
O558 C578 1.255 . S
O559 Eu504 2.372 . S
O559 C578 1.257 . S
C560 O549 1.249 . S
C560 O550 1.264 . S
C561 C564 1.382 . S
C561 C566 1.390 . S
C561 C568 1.506 . S
C562 C563 1.398 . S
C562 C566 1.392 . S
C563 C562 1.398 . S
C563 C565 1.372 . S
C563 H580 0.931 . S
C564 C561 1.382 . S
C564 C565 1.390 . S
C564 H581 0.931 . S
C565 C563 1.372 . S
C565 C564 1.390 . S
C565 H582 0.929 . S
C566 C561 1.390 . S
C566 C562 1.392 . S
C566 H583 0.930 . S
C567 O552 1.255 . S
C567 O553 1.257 . S
C568 Eu504 2.787 . S
C568 O548 1.252 . S
C568 O551 1.268 . S
C568 C561 1.506 . S
C569 C536 1.439 . S
C569 H546 0.931 . S
C569 C570 1.374 . S
C570 C541 1.387 . S
C570 H547 0.931 . S
C570 C569 1.374 . S
C571 O555 1.249 . S
C571 O556 1.264 . S
C572 C575 1.382 . S
C572 C576 1.390 . S
C572 C579 1.506 . S
C573 C574 1.398 . S
C573 C576 1.392 1_655 S
C574 C573 1.398 . S
C574 C577 1.372 . S
C574 H584 0.931 . S
C575 C572 1.382 . S
C575 C577 1.390 1_455 S
C575 H585 0.931 . S
C576 C572 1.390 . S
C576 C573 1.392 1_455 S
C576 H586 0.930 . S
C577 C574 1.372 . S
C577 C575 1.390 1_655 S
C577 H587 0.929 . S
C578 O558 1.255 . S
C578 O559 1.257 . S
C579 Eu515 2.787 . S
C579 O554 1.252 . S
C579 O557 1.268 . S
C579 C572 1.506 . S
H580 C563 0.931 . S
H581 C564 0.931 . S
H582 C565 0.929 . S
H583 C566 0.930 . S
H584 C574 0.931 . S
H585 C575 0.931 . S
H586 C576 0.930 . S
H587 C577 0.929 . S
Eu588 N617 2.600 . S
Eu588 N623 2.562 . S
Eu588 O632 2.462 . S
Eu588 O633 2.373 . S
Eu588 O635 2.432 . S
Eu588 O636 2.291 . S
Eu588 O640 2.335 . S
Eu588 O643 2.372 . S
Eu588 C652 2.787 . S
C589 N590 1.365 . S
C589 C592 1.405 . S
C589 C596 1.448 . S
N590 C589 1.365 . S
N590 C593 1.319 . S
N590 Eu599 2.600 . S
C591 C593 1.397 . S
C591 C594 1.367 . S
C591 H611 0.931 . S
C592 C589 1.405 . S
C592 C594 1.403 . S
C592 C598 1.439 . S
C593 N590 1.319 . S
C593 C591 1.397 . S
C593 H604 0.930 . S
C594 C591 1.367 . S
C594 C592 1.403 . S
C594 H615 0.929 . S
C595 C596 1.430 . S
C595 C597 1.387 . S
C595 C601 1.404 . S
C596 C589 1.448 . S
C596 C595 1.430 . S
C596 N600 1.351 . S
C597 C595 1.387 . S
C597 C598 1.374 . S
C597 H612 0.929 1_455 S
C598 C592 1.439 . S
C598 C597 1.374 . S
C598 H613 0.931 . S
Eu599 N590 2.600 . S
Eu599 N600 2.562 . S
Eu599 O634 2.335 . S
Eu599 O637 2.372 . S
Eu599 O638 2.462 . S
Eu599 O639 2.373 . S
Eu599 O641 2.432 . S
Eu599 O642 2.291 . S
Eu599 C663 2.787 . S
N600 C596 1.351 . S
N600 Eu599 2.562 . S
N600 C602 1.325 . S
C601 C595 1.404 . S
C601 C603 1.366 . S
C601 H609 0.930 . S
C602 N600 1.325 . S
C602 C603 1.416 . S
C602 H608 0.929 . S
C603 C601 1.366 . S
C603 C602 1.416 . S
C603 H605 0.930 . S
H604 C593 0.930 . S
H605 C603 0.930 . S
H606 C621 0.930 . S
H607 C628 0.930 . S
H608 C602 0.929 . S
H609 C601 0.930 . S
H610 C624 0.929 . S
H611 C591 0.931 . S
H612 C597 0.929 1_655 S
H613 C598 0.931 . S
H614 C619 0.931 . S
H615 C594 0.929 . S
H616 C627 0.930 . S
N617 Eu588 2.600 . S
N617 C618 1.365 . S
N617 C621 1.319 . S
C618 N617 1.365 . S
C618 C620 1.405 . S
C618 C626 1.448 . S
C619 H614 0.931 . S
C619 C621 1.397 . S
C619 C622 1.367 . S
C620 C618 1.405 . S
C620 C622 1.403 . S
C620 C653 1.439 . S
C621 H606 0.930 . S
C621 N617 1.319 . S
C621 C619 1.397 . S
C622 C619 1.367 . S
C622 C620 1.403 . S
C622 H629 0.929 . S
N623 Eu588 2.562 . S
N623 C624 1.325 . S
N623 C626 1.351 . S
C624 H610 0.929 . S
C624 N623 1.325 . S
C624 C628 1.416 . S
C625 C626 1.430 . S
C625 C627 1.404 . S
C625 C654 1.387 . S
C626 C618 1.448 . S
C626 N623 1.351 . S
C626 C625 1.430 . S
C627 H616 0.930 . S
C627 C625 1.404 . S
C627 C628 1.366 . S
C628 H607 0.930 . S
C628 C624 1.416 . S
C628 C627 1.366 . S
H629 C622 0.929 . S
H630 C653 0.931 . S
H631 C654 0.931 . S
O632 Eu588 2.462 . S
O632 C652 1.252 . S
O633 Eu588 2.373 . S
O633 C644 1.249 . S
O634 Eu599 2.335 . S
O634 C644 1.264 . S
O635 Eu588 2.432 . S
O635 C652 1.268 . S
O636 Eu588 2.291 . S
O636 C651 1.255 . S
O637 Eu599 2.372 . S
O637 C651 1.257 . S
O638 Eu599 2.462 . S
O638 C663 1.252 . S
O639 Eu599 2.373 . S
O639 C655 1.249 . S
O640 Eu588 2.335 . S
O640 C655 1.264 . S
O641 Eu599 2.432 . S
O641 C663 1.268 . S
O642 Eu599 2.291 . S
O642 C662 1.255 . S
O643 Eu588 2.372 . S
O643 C662 1.257 . S
C644 O633 1.249 . S
C644 O634 1.264 . S
C645 C648 1.382 . S
C645 C650 1.390 . S
C645 C652 1.506 . S
C646 C647 1.398 . S
C646 C650 1.392 1_545 S
C647 C646 1.398 . S
C647 C649 1.372 . S
C647 H664 0.931 . S
C648 C645 1.382 . S
C648 C649 1.390 1_565 S
C648 H665 0.931 . S
C649 C647 1.372 . S
C649 C648 1.390 1_545 S
C649 H666 0.929 . S
C650 C645 1.390 . S
C650 C646 1.392 1_565 S
C650 H667 0.930 . S
C651 O636 1.255 . S
C651 O637 1.257 . S
C652 Eu588 2.787 . S
C652 O632 1.252 . S
C652 O635 1.268 . S
C652 C645 1.506 . S
C653 C620 1.439 . S
C653 H630 0.931 . S
C653 C654 1.374 . S
C654 C625 1.387 . S
C654 H631 0.931 . S
C654 C653 1.374 . S
C655 O639 1.249 . S
C655 O640 1.264 . S
C656 C659 1.382 . S
C656 C660 1.390 . S
C656 C663 1.506 . S
C657 C658 1.398 . S
C657 C660 1.392 . S
C658 C657 1.398 . S
C658 C661 1.372 . S
C658 H668 0.931 . S
C659 C656 1.382 . S
C659 C661 1.390 . S
C659 H669 0.931 . S
C660 C656 1.390 . S
C660 C657 1.392 . S
C660 H670 0.930 . S
C661 C658 1.372 . S
C661 C659 1.390 . S
C661 H671 0.929 . S
C662 O642 1.255 . S
C662 O643 1.257 . S
C663 Eu599 2.787 . S
C663 O638 1.252 . S
C663 O641 1.268 . S
C663 C656 1.506 . S
H664 C647 0.931 . S
H665 C648 0.931 . S
H666 C649 0.929 . S
H667 C650 0.930 . S
H668 C658 0.931 . S
H669 C659 0.931 . S
H670 C660 0.930 . S
H671 C661 0.929 . S
Eu672 N701 2.600 . S
Eu672 N707 2.562 . S
Eu672 O716 2.462 . S
Eu672 O717 2.373 . S
Eu672 O719 2.432 . S
Eu672 O720 2.291 . S
Eu672 O724 2.335 . S
Eu672 O727 2.372 . S
Eu672 C736 2.787 . S
C673 N674 1.365 . S
C673 C676 1.405 . S
C673 C680 1.448 . S
N674 C673 1.365 . S
N674 C677 1.319 . S
N674 Eu683 2.600 . S
C675 C677 1.397 . S
C675 C678 1.367 . S
C675 H695 0.931 . S
C676 C673 1.405 . S
C676 C678 1.403 . S
C676 C682 1.439 . S
C677 N674 1.319 . S
C677 C675 1.397 . S
C677 H688 0.930 . S
C678 C675 1.367 . S
C678 C676 1.403 . S
C678 H699 0.929 . S
C679 C680 1.430 . S
C679 C681 1.387 . S
C679 C685 1.404 . S
C680 C673 1.448 . S
C680 C679 1.430 . S
C680 N684 1.351 . S
C681 C679 1.387 . S
C681 C682 1.374 . S
C681 H696 0.931 . S
C682 C676 1.439 . S
C682 C681 1.374 . S
C682 H697 0.931 . S
Eu683 N674 2.600 . S
Eu683 N684 2.562 . S
Eu683 O718 2.335 . S
Eu683 O721 2.372 . S
Eu683 O722 2.462 . S
Eu683 O723 2.373 . S
Eu683 O725 2.432 . S
Eu683 O726 2.291 . S
Eu683 C747 2.787 . S
N684 C680 1.351 . S
N684 Eu683 2.562 . S
N684 C686 1.325 . S
C685 C679 1.404 . S
C685 C687 1.366 . S
C685 H693 0.930 . S
C686 N684 1.325 . S
C686 C687 1.416 . S
C686 H692 0.929 . S
C687 C685 1.366 . S
C687 C686 1.416 . S
C687 H689 0.930 . S
H688 C677 0.930 . S
H689 C687 0.930 . S
H690 C705 0.930 . S
H691 C712 0.930 . S
H692 C686 0.929 . S
H693 C685 0.930 . S
H694 C708 0.929 . S
H695 C675 0.931 . S
H696 C681 0.931 . S
H697 C682 0.931 . S
H698 C703 0.931 . S
H699 C678 0.929 . S
H700 C711 0.930 . S
N701 Eu672 2.600 . S
N701 C702 1.365 . S
N701 C705 1.319 . S
C702 N701 1.365 . S
C702 C704 1.405 . S
C702 C710 1.448 . S
C703 H698 0.931 . S
C703 C705 1.397 . S
C703 C706 1.367 . S
C704 C702 1.405 . S
C704 C706 1.403 . S
C704 C737 1.439 . S
C705 H690 0.930 . S
C705 N701 1.319 . S
C705 C703 1.397 . S
C706 C703 1.367 . S
C706 C704 1.403 . S
C706 H713 0.929 . S
N707 Eu672 2.562 . S
N707 C708 1.325 . S
N707 C710 1.351 . S
C708 H694 0.929 . S
C708 N707 1.325 . S
C708 C712 1.416 . S
C709 C710 1.430 . S
C709 C711 1.404 . S
C709 C738 1.387 . S
C710 C702 1.448 . S
C710 N707 1.351 . S
C710 C709 1.430 . S
C711 H700 0.930 . S
C711 C709 1.404 . S
C711 C712 1.366 . S
C712 H691 0.930 . S
C712 C708 1.416 . S
C712 C711 1.366 . S
H713 C706 0.929 . S
H714 C737 0.931 . S
H715 C738 0.929 1_545 S
O716 Eu672 2.462 . S
O716 C736 1.252 . S
O717 Eu672 2.373 . S
O717 C728 1.249 . S
O718 Eu683 2.335 . S
O718 C728 1.264 . S
O719 Eu672 2.432 . S
O719 C736 1.268 . S
O720 Eu672 2.291 . S
O720 C735 1.255 . S
O721 Eu683 2.372 . S
O721 C735 1.257 . S
O722 Eu683 2.462 . S
O722 C747 1.252 . S
O723 Eu683 2.373 . S
O723 C739 1.249 . S
O724 Eu672 2.335 . S
O724 C739 1.264 . S
O725 Eu683 2.432 . S
O725 C747 1.268 . S
O726 Eu683 2.291 . S
O726 C746 1.255 . S
O727 Eu672 2.372 . S
O727 C746 1.257 . S
C728 O717 1.249 . S
C728 O718 1.264 . S
C729 C732 1.382 . S
C729 C734 1.390 . S
C729 C736 1.506 . S
C730 C731 1.398 . S
C730 C734 1.392 . S
C731 C730 1.398 . S
C731 C733 1.372 . S
C731 H748 0.931 . S
C732 C729 1.382 . S
C732 C733 1.390 . S
C732 H749 0.931 . S
C733 C731 1.372 . S
C733 C732 1.390 . S
C733 H750 0.929 . S
C734 C729 1.390 . S
C734 C730 1.392 . S
C734 H751 0.930 . S
C735 O720 1.255 . S
C735 O721 1.257 . S
C736 Eu672 2.787 . S
C736 O716 1.252 . S
C736 O719 1.268 . S
C736 C729 1.506 . S
C737 C704 1.439 . S
C737 H714 0.931 . S
C737 C738 1.374 . S
C738 C709 1.387 . S
C738 H715 0.929 1_565 S
C738 C737 1.374 . S
C739 O723 1.249 . S
C739 O724 1.264 . S
C740 C743 1.382 . S
C740 C744 1.390 . S
C740 C747 1.506 . S
C741 C742 1.398 . S
C741 C744 1.392 . S
C742 C741 1.398 . S
C742 C745 1.372 . S
C742 H752 0.931 . S
C743 C740 1.382 . S
C743 C745 1.390 . S
C743 H753 0.931 . S
C744 C740 1.390 . S
C744 C741 1.392 . S
C744 H754 0.930 . S
C745 C742 1.372 . S
C745 C743 1.390 . S
C745 H755 0.929 . S
C746 O726 1.255 . S
C746 O727 1.257 . S
C747 Eu683 2.787 . S
C747 O722 1.252 . S
C747 O725 1.268 . S
C747 C740 1.506 . S
H748 C731 0.931 . S
H749 C732 0.931 . S
H750 C733 0.929 . S
H751 C734 0.930 . S
H752 C742 0.931 . S
H753 C743 0.931 . S
H754 C744 0.930 . S
H755 C745 0.929 . S
Eu756 N785 2.600 . S
Eu756 N791 2.562 . S
Eu756 O800 2.462 . S
Eu756 O801 2.373 . S
Eu756 O803 2.432 . S
Eu756 O804 2.291 . S
Eu756 O808 2.335 . S
Eu756 O811 2.372 . S
Eu756 C820 2.787 . S
C757 N758 1.365 . S
C757 C760 1.405 . S
C757 C764 1.448 . S
N758 C757 1.365 . S
N758 C761 1.319 . S
N758 Eu767 2.600 . S
C759 C761 1.397 . S
C759 C762 1.367 . S
C759 H779 0.931 . S
C760 C757 1.405 . S
C760 C762 1.403 . S
C760 C766 1.439 . S
C761 N758 1.319 . S
C761 C759 1.397 . S
C761 H772 0.930 . S
C762 C759 1.367 . S
C762 C760 1.403 . S
C762 H783 0.929 . S
C763 C764 1.430 . S
C763 C765 1.387 . S
C763 C769 1.404 . S
C764 C757 1.448 . S
C764 C763 1.430 . S
C764 N768 1.351 . S
C765 C763 1.387 . S
C765 C766 1.374 . S
C765 H780 0.931 . S
C766 C760 1.439 . S
C766 C765 1.374 . S
C766 H781 0.931 . S
Eu767 N758 2.600 . S
Eu767 N768 2.562 . S
Eu767 O802 2.335 . S
Eu767 O805 2.372 . S
Eu767 O806 2.462 . S
Eu767 O807 2.373 . S
Eu767 O809 2.432 . S
Eu767 O810 2.291 . S
Eu767 C831 2.787 . S
N768 C764 1.351 . S
N768 Eu767 2.562 . S
N768 C770 1.325 . S
C769 C763 1.404 . S
C769 C771 1.366 . S
C769 H777 0.930 . S
C770 N768 1.325 . S
C770 C771 1.416 . S
C770 H776 0.929 . S
C771 C769 1.366 . S
C771 C770 1.416 . S
C771 H773 0.930 . S
H772 C761 0.930 . S
H773 C771 0.930 . S
H774 C789 0.930 . S
H775 C796 0.930 . S
H776 C770 0.929 . S
H777 C769 0.930 . S
H778 C792 0.929 . S
H779 C759 0.931 . S
H780 C765 0.931 . S
H781 C766 0.931 . S
H782 C787 0.931 . S
H783 C762 0.929 . S
H784 C795 0.930 . S
N785 Eu756 2.600 . S
N785 C786 1.365 . S
N785 C789 1.319 . S
C786 N785 1.365 . S
C786 C788 1.405 . S
C786 C794 1.448 . S
C787 H782 0.931 . S
C787 C789 1.397 . S
C787 C790 1.367 . S
C788 C786 1.405 . S
C788 C790 1.403 . S
C788 C821 1.439 . S
C789 H774 0.930 . S
C789 N785 1.319 . S
C789 C787 1.397 . S
C790 C787 1.367 . S
C790 C788 1.403 . S
C790 H797 0.929 . S
N791 Eu756 2.562 . S
N791 C792 1.325 . S
N791 C794 1.351 . S
C792 H778 0.929 . S
C792 N791 1.325 . S
C792 C796 1.416 . S
C793 C794 1.430 . S
C793 C795 1.404 . S
C793 C822 1.387 . S
C794 C786 1.448 . S
C794 N791 1.351 . S
C794 C793 1.430 . S
C795 H784 0.930 . S
C795 C793 1.404 . S
C795 C796 1.366 . S
C796 H775 0.930 . S
C796 C792 1.416 . S
C796 C795 1.366 . S
H797 C790 0.929 . S
H798 C821 0.931 . S
H799 C822 0.931 . S
O800 Eu756 2.462 . S
O800 C820 1.252 . S
O801 Eu756 2.373 . S
O801 C812 1.249 . S
O802 Eu767 2.335 . S
O802 C812 1.264 . S
O803 Eu756 2.432 . S
O803 C820 1.268 . S
O804 Eu756 2.291 . S
O804 C819 1.255 . S
O805 Eu767 2.372 . S
O805 C819 1.257 . S
O806 Eu767 2.462 . S
O806 C831 1.252 . S
O807 Eu767 2.373 . S
O807 C823 1.249 . S
O808 Eu756 2.335 . S
O808 C823 1.264 . S
O809 Eu767 2.432 . S
O809 C831 1.268 . S
O810 Eu767 2.291 . S
O810 C830 1.255 . S
O811 Eu756 2.372 . S
O811 C830 1.257 . S
C812 O801 1.249 . S
C812 O802 1.264 . S
C813 C816 1.382 . S
C813 C818 1.390 . S
C813 C820 1.506 . S
C814 C815 1.398 . S
C814 C818 1.392 1_655 S
C815 C814 1.398 . S
C815 C817 1.372 . S
C815 H832 0.931 . S
C816 C813 1.382 . S
C816 C817 1.390 1_455 S
C816 H833 0.931 . S
C817 C815 1.372 . S
C817 C816 1.390 1_655 S
C817 H834 0.929 . S
C818 C813 1.390 . S
C818 C814 1.392 1_455 S
C818 H835 0.930 . S
C819 O804 1.255 . S
C819 O805 1.257 . S
C820 Eu756 2.787 . S
C820 O800 1.252 . S
C820 O803 1.268 . S
C820 C813 1.506 . S
C821 C788 1.439 . S
C821 H798 0.931 . S
C821 C822 1.374 . S
C822 C793 1.387 . S
C822 H799 0.931 . S
C822 C821 1.374 . S
C823 O807 1.249 . S
C823 O808 1.264 . S
C824 C827 1.382 . S
C824 C828 1.390 . S
C824 C831 1.506 . S
C825 C826 1.398 . S
C825 C828 1.392 . S
C826 C825 1.398 . S
C826 C829 1.372 . S
C826 H836 0.931 . S
C827 C824 1.382 . S
C827 C829 1.390 . S
C827 H837 0.931 . S
C828 C824 1.390 . S
C828 C825 1.392 . S
C828 H838 0.930 . S
C829 C826 1.372 . S
C829 C827 1.390 . S
C829 H839 0.929 . S
C830 O810 1.255 . S
C830 O811 1.257 . S
C831 Eu767 2.787 . S
C831 O806 1.252 . S
C831 O809 1.268 . S
C831 C824 1.506 . S
H832 C815 0.931 . S
H833 C816 0.931 . S
H834 C817 0.929 . S
H835 C818 0.930 . S
H836 C826 0.931 . S
H837 C827 0.931 . S
H838 C828 0.930 . S
H839 C829 0.929 . S
Eu840 N869 2.600 . S
Eu840 N875 2.562 . S
Eu840 O884 2.462 . S
Eu840 O885 2.373 . S
Eu840 O887 2.432 . S
Eu840 O888 2.291 . S
Eu840 O892 2.335 . S
Eu840 O895 2.372 . S
Eu840 C904 2.787 . S
C841 N842 1.365 . S
C841 C844 1.405 . S
C841 C848 1.448 . S
N842 C841 1.365 . S
N842 C845 1.319 . S
N842 Eu851 2.600 . S
C843 C845 1.397 . S
C843 C846 1.367 . S
C843 H863 0.931 . S
C844 C841 1.405 . S
C844 C846 1.403 . S
C844 C850 1.439 . S
C845 N842 1.319 . S
C845 C843 1.397 . S
C845 H856 0.930 . S
C846 C843 1.367 . S
C846 C844 1.403 . S
C846 H867 0.929 . S
C847 C848 1.430 . S
C847 C849 1.387 . S
C847 C853 1.404 . S
C848 C841 1.448 . S
C848 C847 1.430 . S
C848 N852 1.351 . S
C849 C847 1.387 . S
C849 C850 1.374 . S
C849 H864 0.931 . S
C850 C844 1.439 . S
C850 C849 1.374 . S
C850 H865 0.931 . S
Eu851 N842 2.600 . S
Eu851 N852 2.562 . S
Eu851 O886 2.335 . S
Eu851 O889 2.372 . S
Eu851 O890 2.462 . S
Eu851 O891 2.373 . S
Eu851 O893 2.432 . S
Eu851 O894 2.291 . S
Eu851 C915 2.787 . S
N852 C848 1.351 . S
N852 Eu851 2.562 . S
N852 C854 1.325 . S
C853 C847 1.404 . S
C853 C855 1.366 . S
C853 H861 0.930 . S
C854 N852 1.325 . S
C854 C855 1.416 . S
C854 H860 0.929 . S
C855 C853 1.366 . S
C855 C854 1.416 . S
C855 H857 0.930 . S
H856 C845 0.930 . S
H857 C855 0.930 . S
H858 C873 0.930 . S
H859 C880 0.930 . S
H860 C854 0.929 . S
H861 C853 0.930 . S
H862 C876 0.929 . S
H863 C843 0.931 . S
H864 C849 0.931 . S
H865 C850 0.931 . S
H866 C871 0.931 . S
H867 C846 0.929 . S
H868 C879 0.930 . S
N869 Eu840 2.600 . S
N869 C870 1.365 . S
N869 C873 1.319 . S
C870 N869 1.365 . S
C870 C872 1.405 . S
C870 C878 1.448 . S
C871 H866 0.931 . S
C871 C873 1.397 . S
C871 C874 1.367 . S
C872 C870 1.405 . S
C872 C874 1.403 . S
C872 C905 1.439 . S
C873 H858 0.930 . S
C873 N869 1.319 . S
C873 C871 1.397 . S
C874 C871 1.367 . S
C874 C872 1.403 . S
C874 H881 0.929 . S
N875 Eu840 2.562 . S
N875 C876 1.325 . S
N875 C878 1.351 . S
C876 H862 0.929 . S
C876 N875 1.325 . S
C876 C880 1.416 . S
C877 C878 1.430 . S
C877 C879 1.404 . S
C877 C906 1.387 . S
C878 C870 1.448 . S
C878 N875 1.351 . S
C878 C877 1.430 . S
C879 H868 0.930 . S
C879 C877 1.404 . S
C879 C880 1.366 . S
C880 H859 0.930 . S
C880 C876 1.416 . S
C880 C879 1.366 . S
H881 C874 0.929 . S
H882 C905 0.931 . S
H883 C906 0.929 1_655 S
O884 Eu840 2.462 . S
O884 C904 1.252 . S
O885 Eu840 2.373 . S
O885 C896 1.249 . S
O886 Eu851 2.335 . S
O886 C896 1.264 . S
O887 Eu840 2.432 . S
O887 C904 1.268 . S
O888 Eu840 2.291 . S
O888 C903 1.255 . S
O889 Eu851 2.372 . S
O889 C903 1.257 . S
O890 Eu851 2.462 . S
O890 C915 1.252 . S
O891 Eu851 2.373 . S
O891 C907 1.249 . S
O892 Eu840 2.335 . S
O892 C907 1.264 . S
O893 Eu851 2.432 . S
O893 C915 1.268 . S
O894 Eu851 2.291 . S
O894 C914 1.255 . S
O895 Eu840 2.372 . S
O895 C914 1.257 . S
C896 O885 1.249 . S
C896 O886 1.264 . S
C897 C900 1.382 . S
C897 C902 1.390 . S
C897 C904 1.506 . S
C898 C899 1.398 . S
C898 C902 1.392 . S
C899 C898 1.398 . S
C899 C901 1.372 . S
C899 H916 0.931 . S
C900 C897 1.382 . S
C900 C901 1.390 . S
C900 H917 0.931 . S
C901 C899 1.372 . S
C901 C900 1.390 . S
C901 H918 0.929 . S
C902 C897 1.390 . S
C902 C898 1.392 . S
C902 H919 0.930 . S
C903 O888 1.255 . S
C903 O889 1.257 . S
C904 Eu840 2.787 . S
C904 O884 1.252 . S
C904 O887 1.268 . S
C904 C897 1.506 . S
C905 C872 1.439 . S
C905 H882 0.931 . S
C905 C906 1.374 . S
C906 C877 1.387 . S
C906 H883 0.929 1_455 S
C906 C905 1.374 . S
C907 O891 1.249 . S
C907 O892 1.264 . S
C908 C911 1.382 . S
C908 C912 1.390 . S
C908 C915 1.506 . S
C909 C910 1.398 . S
C909 C912 1.392 1_545 S
C910 C909 1.398 . S
C910 C913 1.372 . S
C910 H920 0.931 . S
C911 C908 1.382 . S
C911 C913 1.390 1_565 S
C911 H921 0.931 . S
C912 C908 1.390 . S
C912 C909 1.392 1_565 S
C912 H922 0.930 . S
C913 C910 1.372 . S
C913 C911 1.390 1_545 S
C913 H923 0.929 . S
C914 O894 1.255 . S
C914 O895 1.257 . S
C915 Eu851 2.787 . S
C915 O890 1.252 . S
C915 O893 1.268 . S
C915 C908 1.506 . S
H916 C899 0.931 . S
H917 C900 0.931 . S
H918 C901 0.929 . S
H919 C902 0.930 . S
H920 C910 0.931 . S
H921 C911 0.931 . S
H922 C912 0.930 . S
H923 C913 0.929 . S
Eu924 N953 2.600 . S
Eu924 N959 2.562 . S
Eu924 O968 2.462 . S
Eu924 O969 2.373 . S
Eu924 O971 2.432 . S
Eu924 O972 2.291 . S
Eu924 O976 2.335 . S
Eu924 O979 2.372 . S
Eu924 C988 2.787 . S
C925 N926 1.365 . S
C925 C928 1.405 . S
C925 C932 1.448 . S
N926 C925 1.365 . S
N926 C929 1.319 . S
N926 Eu935 2.600 . S
C927 C929 1.397 . S
C927 C930 1.367 . S
C927 H947 0.931 . S
C928 C925 1.405 . S
C928 C930 1.403 . S
C928 C934 1.439 . S
C929 N926 1.319 . S
C929 C927 1.397 . S
C929 H940 0.930 . S
C930 C927 1.367 . S
C930 C928 1.403 . S
C930 H951 0.929 . S
C931 C932 1.430 . S
C931 C933 1.387 . S
C931 C937 1.404 . S
C932 C925 1.448 . S
C932 C931 1.430 . S
C932 N936 1.351 . S
C933 C931 1.387 . S
C933 C934 1.374 . S
C933 H948 0.929 1_565 S
C934 C928 1.439 . S
C934 C933 1.374 . S
C934 H949 0.931 . S
Eu935 N926 2.600 . S
Eu935 N936 2.562 . S
Eu935 O970 2.335 . S
Eu935 O973 2.372 . S
Eu935 O974 2.462 . S
Eu935 O975 2.373 . S
Eu935 O977 2.432 . S
Eu935 O978 2.291 . S
Eu935 C999 2.787 . S
N936 C932 1.351 . S
N936 Eu935 2.562 . S
N936 C938 1.325 . S
C937 C931 1.404 . S
C937 C939 1.366 . S
C937 H945 0.930 . S
C938 N936 1.325 . S
C938 C939 1.416 . S
C938 H944 0.929 . S
C939 C937 1.366 . S
C939 C938 1.416 . S
C939 H941 0.930 . S
H940 C929 0.930 . S
H941 C939 0.930 . S
H942 C957 0.930 . S
H943 C964 0.930 . S
H944 C938 0.929 . S
H945 C937 0.930 . S
H946 C960 0.929 . S
H947 C927 0.931 . S
H948 C933 0.929 1_545 S
H949 C934 0.931 . S
H950 C955 0.931 . S
H951 C930 0.929 . S
H952 C963 0.930 . S
N953 Eu924 2.600 . S
N953 C954 1.365 . S
N953 C957 1.319 . S
C954 N953 1.365 . S
C954 C956 1.405 . S
C954 C962 1.448 . S
C955 H950 0.931 . S
C955 C957 1.397 . S
C955 C958 1.367 . S
C956 C954 1.405 . S
C956 C958 1.403 . S
C956 C989 1.439 . S
C957 H942 0.930 . S
C957 N953 1.319 . S
C957 C955 1.397 . S
C958 C955 1.367 . S
C958 C956 1.403 . S
C958 H965 0.929 . S
N959 Eu924 2.562 . S
N959 C960 1.325 . S
N959 C962 1.351 . S
C960 H946 0.929 . S
C960 N959 1.325 . S
C960 C964 1.416 . S
C961 C962 1.430 . S
C961 C963 1.404 . S
C961 C990 1.387 . S
C962 C954 1.448 . S
C962 N959 1.351 . S
C962 C961 1.430 . S
C963 H952 0.930 . S
C963 C961 1.404 . S
C963 C964 1.366 . S
C964 H943 0.930 . S
C964 C960 1.416 . S
C964 C963 1.366 . S
H965 C958 0.929 . S
H966 C989 0.931 . S
H967 C990 0.931 . S
O968 Eu924 2.462 . S
O968 C988 1.252 . S
O969 Eu924 2.373 . S
O969 C980 1.249 . S
O970 Eu935 2.335 . S
O970 C980 1.264 . S
O971 Eu924 2.432 . S
O971 C988 1.268 . S
O972 Eu924 2.291 . S
O972 C987 1.255 . S
O973 Eu935 2.372 . S
O973 C987 1.257 . S
O974 Eu935 2.462 . S
O974 C999 1.252 . S
O975 Eu935 2.373 . S
O975 C991 1.249 . S
O976 Eu924 2.335 . S
O976 C991 1.264 . S
O977 Eu935 2.432 . S
O977 C999 1.268 . S
O978 Eu935 2.291 . S
O978 C998 1.255 . S
O979 Eu924 2.372 . S
O979 C998 1.257 . S
C980 O969 1.249 . S
C980 O970 1.264 . S
C981 C984 1.382 . S
C981 C986 1.390 . S
C981 C988 1.506 . S
C982 C983 1.398 . S
C982 C986 1.392 . S
C983 C982 1.398 . S
C983 C985 1.372 . S
C983 H1000 0.931 . S
C984 C981 1.382 . S
C984 C985 1.390 . S
C984 H1001 0.931 . S
C985 C983 1.372 . S
C985 C984 1.390 . S
C985 H1002 0.929 . S
C986 C981 1.390 . S
C986 C982 1.392 . S
C986 H1003 0.930 . S
C987 O972 1.255 . S
C987 O973 1.257 . S
C988 Eu924 2.787 . S
C988 O968 1.252 . S
C988 O971 1.268 . S
C988 C981 1.506 . S
C989 C956 1.439 . S
C989 H966 0.931 . S
C989 C990 1.374 . S
C990 C961 1.387 . S
C990 H967 0.931 . S
C990 C989 1.374 . S
C991 O975 1.249 . S
C991 O976 1.264 . S
C992 C995 1.382 . S
C992 C996 1.390 . S
C992 C999 1.506 . S
C993 C994 1.398 . S
C993 C996 1.392 . S
C994 C993 1.398 . S
C994 C997 1.372 . S
C994 H1004 0.931 . S
C995 C992 1.382 . S
C995 C997 1.390 . S
C995 H1005 0.931 . S
C996 C992 1.390 . S
C996 C993 1.392 . S
C996 H1006 0.930 . S
C997 C994 1.372 . S
C997 C995 1.390 . S
C997 H1007 0.929 . S
C998 O978 1.255 . S
C998 O979 1.257 . S
C999 Eu935 2.787 . S
C999 O974 1.252 . S
C999 O977 1.268 . S
C999 C992 1.506 . S
H1000 C983 0.931 . S
H1001 C984 0.931 . S
H1002 C985 0.929 . S
H1003 C986 0.930 . S
H1004 C994 0.931 . S
H1005 C995 0.931 . S
H1006 C996 0.930 . S
H1007 C997 0.929 . S
H1008 C1026 0.951 . S
H1009 C1028 0.951 . S
H1010 C1030 0.950 . S
H1011 C1031 0.950 . S
H1012 C1033 0.950 . S
H1013 C1036 0.950 . S
H1014 C1037 0.950 . S
H1015 C1039 0.950 . S
H1016 C1040 0.950 . S
H1017 C1041 0.951 . S
H1018 C1043 0.951 . S
H1019 C1045 0.950 . S
H1020 C1046 0.950 . S
H1021 C1048 0.950 . S
H1022 C1051 0.950 . S
H1023 C1052 0.950 . S
H1024 C1054 0.950 . S
H1025 C1055 0.950 . S
C1026 H1008 0.951 . S
C1026 C1027 1.366 . S
C1026 C1028 1.388 . S
C1027 C1026 1.366 . S
C1027 C1031 1.385 . S
C1028 H1009 0.951 . S
C1028 C1026 1.388 . S
C1028 C1029 1.366 . S
C1029 C1028 1.366 . S
C1029 C1030 1.414 . S
C1029 C1032 1.499 . S
C1030 H1010 0.950 . S
C1030 C1029 1.414 . S
C1030 C1031 1.374 . S
C1031 H1011 0.950 . S
C1031 C1027 1.385 . S
C1031 C1030 1.374 . S
C1032 C1029 1.499 . S
C1032 C1033 1.373 . S
C1032 C1034 1.389 . S
C1033 H1012 0.950 . S
C1033 C1032 1.373 . S
C1033 C1049 1.377 . S
C1034 C1032 1.389 . S
C1034 C1035 1.524 . S
C1034 C1048 1.377 . S
C1035 C1034 1.524 . S
C1035 C1036 1.397 . S
C1035 C1040 1.363 . S
C1036 H1013 0.950 . S
C1036 C1035 1.397 . S
C1036 C1037 1.334 . S
C1037 H1014 0.950 . S
C1037 C1036 1.334 . S
C1037 C1038 1.287 . S
C1038 C1037 1.287 . S
C1038 C1039 1.524 . S
C1038 H1057 0.913 . S
C1039 H1015 0.950 . S
C1039 C1038 1.524 . S
C1039 C1040 1.415 . S
C1040 H1016 0.950 . S
C1040 C1035 1.363 . S
C1040 C1039 1.415 . S
C1041 H1017 0.951 . S
C1041 C1042 1.366 . S
C1041 C1043 1.388 . S
C1042 C1041 1.366 . S
C1042 C1046 1.385 . S
C1043 H1018 0.951 . S
C1043 C1041 1.388 . S
C1043 C1044 1.366 . S
C1044 C1043 1.366 . S
C1044 C1045 1.414 . S
C1044 C1047 1.499 . S
C1045 H1019 0.950 . S
C1045 C1044 1.414 . S
C1045 C1046 1.374 . S
C1046 H1020 0.950 . S
C1046 C1042 1.385 . S
C1046 C1045 1.374 . S
C1047 C1044 1.499 . S
C1047 C1048 1.373 . S
C1047 C1049 1.389 . S
C1048 H1021 0.950 . S
C1048 C1034 1.377 . S
C1048 C1047 1.373 . S
C1049 C1033 1.377 . S
C1049 C1047 1.389 . S
C1049 C1050 1.524 . S
C1050 C1049 1.524 . S
C1050 C1051 1.397 . S
C1050 C1055 1.363 . S
C1051 H1022 0.950 . S
C1051 C1050 1.397 . S
C1051 C1052 1.334 . S
C1052 H1023 0.950 . S
C1052 C1051 1.334 . S
C1052 C1053 1.287 . S
C1053 C1052 1.287 . S
C1053 C1054 1.524 . S
C1053 H1056 0.999 . S
C1054 H1024 0.950 . S
C1054 C1053 1.524 . S
C1054 C1055 1.415 . S
C1055 H1025 0.950 . S
C1055 C1050 1.363 . S
C1055 C1054 1.415 . S
H1056 C1053 0.999 . S
H1057 C1038 0.913 . S
H1058 C1076 0.951 . S
H1059 C1078 0.951 . S
H1060 C1080 0.950 . S
H1061 C1081 0.950 . S
H1062 C1083 0.950 . S
H1063 C1086 0.950 . S
H1064 C1087 0.950 . S
H1065 C1089 0.950 . S
H1066 C1090 0.950 . S
H1067 C1091 0.951 . S
H1068 C1093 0.951 . S
H1069 C1095 0.950 . S
H1070 C1096 0.950 . S
H1071 C1098 0.950 1_655 S
H1072 C1101 0.950 . S
H1073 C1102 0.950 . S
H1074 C1104 0.950 . S
H1075 C1105 0.950 . S
C1076 H1058 0.951 . S
C1076 C1077 1.366 . S
C1076 C1078 1.388 . S
C1077 C1076 1.366 . S
C1077 C1081 1.385 . S
C1078 H1059 0.951 . S
C1078 C1076 1.388 . S
C1078 C1079 1.366 . S
C1079 C1078 1.366 . S
C1079 C1080 1.414 . S
C1079 C1082 1.499 . S
C1080 H1060 0.950 . S
C1080 C1079 1.414 . S
C1080 C1081 1.374 . S
C1081 H1061 0.950 . S
C1081 C1077 1.385 . S
C1081 C1080 1.374 . S
C1082 C1079 1.499 . S
C1082 C1083 1.373 . S
C1082 C1084 1.389 . S
C1083 H1062 0.950 . S
C1083 C1082 1.373 . S
C1083 C1099 1.377 . S
C1084 C1082 1.389 . S
C1084 C1085 1.524 . S
C1084 C1098 1.377 . S
C1085 C1084 1.524 . S
C1085 C1086 1.397 . S
C1085 C1090 1.363 . S
C1086 H1063 0.950 . S
C1086 C1085 1.397 . S
C1086 C1087 1.334 . S
C1087 H1064 0.950 . S
C1087 C1086 1.334 . S
C1087 C1088 1.287 . S
C1088 C1087 1.287 . S
C1088 C1089 1.524 . S
C1088 H1107 0.913 . S
C1089 H1065 0.950 . S
C1089 C1088 1.524 . S
C1089 C1090 1.415 . S
C1090 H1066 0.950 . S
C1090 C1085 1.363 . S
C1090 C1089 1.415 . S
C1091 H1067 0.951 . S
C1091 C1092 1.366 . S
C1091 C1093 1.388 . S
C1092 C1091 1.366 . S
C1092 C1096 1.385 . S
C1093 H1068 0.951 . S
C1093 C1091 1.388 . S
C1093 C1094 1.366 . S
C1094 C1093 1.366 . S
C1094 C1095 1.414 . S
C1094 C1097 1.499 . S
C1095 H1069 0.950 . S
C1095 C1094 1.414 . S
C1095 C1096 1.374 . S
C1096 H1070 0.950 . S
C1096 C1092 1.385 . S
C1096 C1095 1.374 . S
C1097 C1094 1.499 . S
C1097 C1098 1.373 1_655 S
C1097 C1099 1.389 1_655 S
C1098 H1071 0.950 1_455 S
C1098 C1084 1.377 . S
C1098 C1097 1.373 1_455 S
C1099 C1083 1.377 . S
C1099 C1097 1.389 1_455 S
C1099 C1100 1.524 . S
C1100 C1099 1.524 . S
C1100 C1101 1.397 1_455 S
C1100 C1105 1.363 . S
C1101 H1072 0.950 . S
C1101 C1100 1.397 1_655 S
C1101 C1102 1.334 . S
C1102 H1073 0.950 . S
C1102 C1101 1.334 . S
C1102 C1103 1.287 . S
C1103 C1102 1.287 . S
C1103 C1104 1.524 1_655 S
C1103 H1106 0.999 . S
C1104 H1074 0.950 . S
C1104 C1103 1.524 1_455 S
C1104 C1105 1.415 . S
C1105 H1075 0.950 . S
C1105 C1100 1.363 . S
C1105 C1104 1.415 . S
H1106 C1103 0.999 . S
H1107 C1088 0.913 . S
H1108 C1126 0.951 . S
H1109 C1128 0.951 . S
H1110 C1130 0.950 . S
H1111 C1131 0.950 . S
H1112 C1133 0.950 1_545 S
H1113 C1136 0.950 . S
H1114 C1137 0.950 . S
H1115 C1139 0.950 . S
H1116 C1140 0.950 . S
H1117 C1141 0.951 . S
H1118 C1143 0.951 . S
H1119 C1145 0.950 . S
H1120 C1146 0.950 . S
H1121 C1148 0.950 . S
H1122 C1151 0.950 . S
H1123 C1152 0.950 . S
H1124 C1154 0.950 . S
H1125 C1155 0.950 1_545 S
C1126 H1108 0.951 . S
C1126 C1127 1.366 . S
C1126 C1128 1.388 . S
C1127 C1126 1.366 . S
C1127 C1131 1.385 . S
C1128 H1109 0.951 . S
C1128 C1126 1.388 . S
C1128 C1129 1.366 . S
C1129 C1128 1.366 . S
C1129 C1130 1.414 . S
C1129 C1132 1.499 . S
C1130 H1110 0.950 . S
C1130 C1129 1.414 . S
C1130 C1131 1.374 . S
C1131 H1111 0.950 . S
C1131 C1127 1.385 . S
C1131 C1130 1.374 . S
C1132 C1129 1.499 . S
C1132 C1133 1.373 1_545 S
C1132 C1134 1.389 1_545 S
C1133 H1112 0.950 1_565 S
C1133 C1132 1.373 1_565 S
C1133 C1149 1.377 . S
C1134 C1132 1.389 1_565 S
C1134 C1135 1.524 . S
C1134 C1148 1.377 . S
C1135 C1134 1.524 . S
C1135 C1136 1.397 1_565 S
C1135 C1140 1.363 . S
C1136 H1113 0.950 . S
C1136 C1135 1.397 1_545 S
C1136 C1137 1.334 . S
C1137 H1114 0.950 . S
C1137 C1136 1.334 . S
C1137 C1138 1.287 1_545 S
C1138 C1137 1.287 1_565 S
C1138 C1139 1.524 . S
C1138 H1157 0.913 . S
C1139 H1115 0.950 . S
C1139 C1138 1.524 . S
C1139 C1140 1.415 . S
C1140 H1116 0.950 . S
C1140 C1135 1.363 . S
C1140 C1139 1.415 . S
C1141 H1117 0.951 . S
C1141 C1142 1.366 . S
C1141 C1143 1.388 . S
C1142 C1141 1.366 . S
C1142 C1146 1.385 . S
C1143 H1118 0.951 . S
C1143 C1141 1.388 . S
C1143 C1144 1.366 . S
C1144 C1143 1.366 . S
C1144 C1145 1.414 . S
C1144 C1147 1.499 . S
C1145 H1119 0.950 . S
C1145 C1144 1.414 . S
C1145 C1146 1.374 . S
C1146 H1120 0.950 . S
C1146 C1142 1.385 . S
C1146 C1145 1.374 . S
C1147 C1144 1.499 . S
C1147 C1148 1.373 . S
C1147 C1149 1.389 . S
C1148 H1121 0.950 . S
C1148 C1134 1.377 . S
C1148 C1147 1.373 . S
C1149 C1133 1.377 . S
C1149 C1147 1.389 . S
C1149 C1150 1.524 . S
C1150 C1149 1.524 . S
C1150 C1151 1.397 . S
C1150 C1155 1.363 . S
C1151 H1122 0.950 . S
C1151 C1150 1.397 . S
C1151 C1152 1.334 . S
C1152 H1123 0.950 . S
C1152 C1151 1.334 . S
C1152 C1153 1.287 . S
C1153 C1152 1.287 . S
C1153 C1154 1.524 . S
C1153 H1156 0.999 . S
C1154 H1124 0.950 . S
C1154 C1153 1.524 . S
C1154 C1155 1.415 . S
C1155 H1125 0.950 1_565 S
C1155 C1150 1.363 . S
C1155 C1154 1.415 . S
H1156 C1153 0.999 . S
H1157 C1138 0.913 . S
H1158 C1176 0.951 . S
H1159 C1178 0.951 . S
H1160 C1180 0.950 . S
H1161 C1181 0.950 . S
H1162 C1183 0.950 . S
H1163 C1186 0.950 . S
H1164 C1187 0.950 . S
H1165 C1189 0.950 . S
H1166 C1190 0.950 . S
H1167 C1191 0.951 . S
H1168 C1193 0.951 . S
H1169 C1195 0.950 . S
H1170 C1196 0.950 . S
H1171 C1198 0.950 . S
H1172 C1201 0.950 . S
H1173 C1202 0.950 . S
H1174 C1204 0.950 . S
H1175 C1205 0.950 . S
C1176 H1158 0.951 . S
C1176 C1177 1.366 . S
C1176 C1178 1.388 . S
C1177 C1176 1.366 . S
C1177 C1181 1.385 . S
C1178 H1159 0.951 . S
C1178 C1176 1.388 . S
C1178 C1179 1.366 . S
C1179 C1178 1.366 . S
C1179 C1180 1.414 . S
C1179 C1182 1.499 . S
C1180 H1160 0.950 . S
C1180 C1179 1.414 . S
C1180 C1181 1.374 . S
C1181 H1161 0.950 . S
C1181 C1177 1.385 . S
C1181 C1180 1.374 . S
C1182 C1179 1.499 . S
C1182 C1183 1.373 . S
C1182 C1184 1.389 . S
C1183 H1162 0.950 . S
C1183 C1182 1.373 . S
C1183 C1199 1.377 . S
C1184 C1182 1.389 . S
C1184 C1185 1.524 . S
C1184 C1198 1.377 . S
C1185 C1184 1.524 . S
C1185 C1186 1.397 . S
C1185 C1190 1.363 . S
C1186 H1163 0.950 . S
C1186 C1185 1.397 . S
C1186 C1187 1.334 . S
C1187 H1164 0.950 . S
C1187 C1186 1.334 . S
C1187 C1188 1.287 . S
C1188 C1187 1.287 . S
C1188 C1189 1.524 . S
C1188 H1207 0.913 . S
C1189 H1165 0.950 . S
C1189 C1188 1.524 . S
C1189 C1190 1.415 . S
C1190 H1166 0.950 . S
C1190 C1185 1.363 . S
C1190 C1189 1.415 . S
C1191 H1167 0.951 . S
C1191 C1192 1.366 . S
C1191 C1193 1.388 . S
C1192 C1191 1.366 . S
C1192 C1196 1.385 . S
C1193 H1168 0.951 . S
C1193 C1191 1.388 . S
C1193 C1194 1.366 . S
C1194 C1193 1.366 . S
C1194 C1195 1.414 . S
C1194 C1197 1.499 . S
C1195 H1169 0.950 . S
C1195 C1194 1.414 . S
C1195 C1196 1.374 . S
C1196 H1170 0.950 . S
C1196 C1192 1.385 . S
C1196 C1195 1.374 . S
C1197 C1194 1.499 . S
C1197 C1198 1.373 . S
C1197 C1199 1.389 . S
C1198 H1171 0.950 . S
C1198 C1184 1.377 . S
C1198 C1197 1.373 . S
C1199 C1183 1.377 . S
C1199 C1197 1.389 . S
C1199 C1200 1.524 . S
C1200 C1199 1.524 . S
C1200 C1201 1.397 . S
C1200 C1205 1.363 . S
C1201 H1172 0.950 . S
C1201 C1200 1.397 . S
C1201 C1202 1.334 . S
C1202 H1173 0.950 . S
C1202 C1201 1.334 . S
C1202 C1203 1.287 . S
C1203 C1202 1.287 . S
C1203 C1204 1.524 . S
C1203 H1206 0.999 . S
C1204 H1174 0.950 . S
C1204 C1203 1.524 . S
C1204 C1205 1.415 . S
C1205 H1175 0.950 . S
C1205 C1200 1.363 . S
C1205 C1204 1.415 . S
H1206 C1203 0.999 . S
H1207 C1188 0.913 . S
H1208 C1226 0.951 . S
H1209 C1228 0.951 . S
H1210 C1230 0.950 . S
H1211 C1231 0.950 . S
H1212 C1233 0.950 . S
H1213 C1236 0.950 . S
H1214 C1237 0.950 . S
H1215 C1239 0.950 . S
H1216 C1240 0.950 . S
H1217 C1241 0.951 . S
H1218 C1243 0.951 . S
H1219 C1245 0.950 . S
H1220 C1246 0.950 . S
H1221 C1248 0.946 1_655 S
H1222 C1251 0.950 . S
H1223 C1252 0.950 . S
H1224 C1254 0.950 . S
H1225 C1255 0.950 . S
C1226 H1208 0.951 . S
C1226 C1227 1.366 . S
C1226 C1228 1.388 . S
C1227 C1226 1.366 . S
C1227 C1231 1.385 . S
C1228 H1209 0.951 . S
C1228 C1226 1.388 . S
C1228 C1229 1.366 . S
C1229 C1228 1.366 . S
C1229 C1230 1.414 . S
C1229 C1232 1.499 . S
C1230 H1210 0.950 . S
C1230 C1229 1.414 . S
C1230 C1231 1.374 . S
C1231 H1211 0.950 . S
C1231 C1227 1.385 . S
C1231 C1230 1.374 . S
C1232 C1229 1.499 . S
C1232 C1233 1.373 . S
C1232 C1234 1.389 . S
C1233 H1212 0.950 . S
C1233 C1232 1.373 . S
C1233 C1249 1.377 . S
C1234 C1232 1.389 . S
C1234 C1235 1.524 . S
C1234 C1248 1.379 . S
C1235 C1234 1.524 . S
C1235 C1236 1.397 . S
C1235 C1240 1.363 . S
C1236 H1213 0.950 . S
C1236 C1235 1.397 . S
C1236 C1237 1.334 . S
C1237 H1214 0.950 . S
C1237 C1236 1.334 . S
C1237 C1238 1.287 . S
C1238 C1237 1.287 . S
C1238 C1239 1.524 . S
C1238 H1257 0.913 . S
C1239 H1215 0.950 . S
C1239 C1238 1.524 . S
C1239 C1240 1.415 . S
C1240 H1216 0.950 . S
C1240 C1235 1.363 . S
C1240 C1239 1.415 . S
C1241 H1217 0.951 . S
C1241 C1242 1.366 . S
C1241 C1243 1.388 . S
C1242 C1241 1.366 . S
C1242 C1246 1.385 . S
C1243 H1218 0.951 . S
C1243 C1241 1.388 . S
C1243 C1244 1.366 . S
C1244 C1243 1.366 . S
C1244 C1245 1.414 . S
C1244 C1247 1.499 . S
C1245 H1219 0.950 . S
C1245 C1244 1.414 . S
C1245 C1246 1.374 . S
C1246 H1220 0.950 . S
C1246 C1242 1.385 . S
C1246 C1245 1.374 . S
C1247 C1244 1.499 . S
C1247 C1248 1.375 1_655 S
C1247 C1249 1.389 1_655 S
C1248 H1221 0.946 1_455 S
C1248 C1234 1.379 . S
C1248 C1247 1.375 1_455 S
C1249 C1233 1.377 . S
C1249 C1247 1.389 1_455 S
C1249 C1250 1.524 . S
C1250 C1249 1.524 . S
C1250 C1251 1.397 . S
C1250 C1255 1.363 . S
C1251 H1222 0.950 . S
C1251 C1250 1.397 . S
C1251 C1252 1.334 . S
C1252 H1223 0.950 . S
C1252 C1251 1.334 . S
C1252 C1253 1.287 . S
C1253 C1252 1.287 . S
C1253 C1254 1.524 . S
C1253 H1256 0.999 . S
C1254 H1224 0.950 . S
C1254 C1253 1.524 . S
C1254 C1255 1.415 . S
C1255 H1225 0.950 . S
C1255 C1250 1.363 . S
C1255 C1254 1.415 . S
H1256 C1253 0.999 . S
H1257 C1238 0.913 . S
H1258 C1276 0.951 . S
H1259 C1278 0.951 . S
H1260 C1280 0.950 . S
H1261 C1281 0.950 . S
H1262 C1283 0.950 . S
H1263 C1286 0.950 . S
H1264 C1287 0.950 . S
H1265 C1289 0.950 . S
H1266 C1290 0.950 . S
H1267 C1291 0.951 . S
H1268 C1293 0.951 . S
H1269 C1295 0.950 . S
H1270 C1296 0.950 . S
H1271 C1298 0.950 . S
H1272 C1301 0.950 . S
H1273 C1302 0.950 . S
H1274 C1304 0.950 . S
H1275 C1305 0.950 1_565 S
C1276 H1258 0.951 . S
C1276 C1277 1.366 . S
C1276 C1278 1.388 . S
C1277 C1276 1.366 . S
C1277 C1281 1.385 . S
C1278 H1259 0.951 . S
C1278 C1276 1.388 . S
C1278 C1279 1.366 . S
C1279 C1278 1.366 . S
C1279 C1280 1.414 . S
C1279 C1282 1.499 . S
C1280 H1260 0.950 . S
C1280 C1279 1.414 . S
C1280 C1281 1.374 . S
C1281 H1261 0.950 . S
C1281 C1277 1.385 . S
C1281 C1280 1.374 . S
C1282 C1279 1.499 . S
C1282 C1283 1.373 . S
C1282 C1284 1.389 . S
C1283 H1262 0.950 . S
C1283 C1282 1.373 . S
C1283 C1299 1.377 . S
C1284 C1282 1.389 . S
C1284 C1285 1.524 . S
C1284 C1298 1.377 . S
C1285 C1284 1.524 . S
C1285 C1286 1.397 . S
C1285 C1290 1.363 . S
C1286 H1263 0.950 . S
C1286 C1285 1.397 . S
C1286 C1287 1.334 . S
C1287 H1264 0.950 . S
C1287 C1286 1.334 . S
C1287 C1288 1.287 . S
C1288 C1287 1.287 . S
C1288 C1289 1.524 . S
C1288 H1307 0.913 . S
C1289 H1265 0.950 . S
C1289 C1288 1.524 . S
C1289 C1290 1.415 . S
C1290 H1266 0.950 . S
C1290 C1285 1.363 . S
C1290 C1289 1.415 . S
C1291 H1267 0.951 . S
C1291 C1292 1.366 . S
C1291 C1293 1.388 . S
C1292 C1291 1.366 . S
C1292 C1296 1.385 . S
C1293 H1268 0.951 . S
C1293 C1291 1.388 . S
C1293 C1294 1.366 . S
C1294 C1293 1.366 . S
C1294 C1295 1.414 . S
C1294 C1297 1.499 . S
C1295 H1269 0.950 . S
C1295 C1294 1.414 . S
C1295 C1296 1.374 . S
C1296 H1270 0.950 . S
C1296 C1292 1.385 . S
C1296 C1295 1.374 . S
C1297 C1294 1.499 . S
C1297 C1298 1.373 1_545 S
C1297 C1299 1.389 1_545 S
C1298 H1271 0.950 . S
C1298 C1284 1.377 . S
C1298 C1297 1.373 1_565 S
C1299 C1283 1.377 . S
C1299 C1297 1.389 1_565 S
C1299 C1300 1.524 1_565 S
C1300 C1299 1.524 1_545 S
C1300 C1301 1.397 . S
C1300 C1305 1.363 . S
C1301 H1272 0.950 . S
C1301 C1300 1.397 . S
C1301 C1302 1.334 . S
C1302 H1273 0.950 . S
C1302 C1301 1.334 . S
C1302 C1303 1.287 . S
C1303 C1302 1.287 . S
C1303 C1304 1.524 . S
C1303 H1306 0.999 . S
C1304 H1274 0.950 . S
C1304 C1303 1.524 . S
C1304 C1305 1.415 . S
C1305 H1275 0.950 1_545 S
C1305 C1300 1.363 . S
C1305 C1304 1.415 . S
H1306 C1303 0.999 . S
H1307 C1288 0.913 . S
H1308 C1326 0.951 . S
H1309 C1328 0.951 . S
H1310 C1330 0.950 . S
H1311 C1331 0.950 . S
H1312 C1333 0.950 . S
H1313 C1336 0.950 . S
H1314 C1337 0.950 . S
H1315 C1339 0.950 . S
H1316 C1340 0.950 . S
H1317 C1341 0.951 . S
H1318 C1343 0.951 . S
H1319 C1345 0.950 . S
H1320 C1346 0.950 . S
H1321 C1348 0.950 . S
H1322 C1351 0.950 . S
H1323 C1352 0.950 . S
H1324 C1354 0.950 . S
H1325 C1355 0.950 . S
C1326 H1308 0.951 . S
C1326 C1327 1.366 . S
C1326 C1328 1.388 . S
C1327 C1326 1.366 . S
C1327 C1331 1.385 . S
C1328 H1309 0.951 . S
C1328 C1326 1.388 . S
C1328 C1329 1.366 . S
C1329 C1328 1.366 . S
C1329 C1330 1.414 . S
C1329 C1332 1.499 . S
C1330 H1310 0.950 . S
C1330 C1329 1.414 . S
C1330 C1331 1.374 . S
C1331 H1311 0.950 . S
C1331 C1327 1.385 . S
C1331 C1330 1.374 . S
C1332 C1329 1.499 . S
C1332 C1333 1.373 . S
C1332 C1334 1.389 . S
C1333 H1312 0.950 . S
C1333 C1332 1.373 . S
C1333 C1349 1.377 . S
C1334 C1332 1.389 . S
C1334 C1335 1.524 . S
C1334 C1348 1.377 . S
C1335 C1334 1.524 . S
C1335 C1336 1.397 . S
C1335 C1340 1.363 . S
C1336 H1313 0.950 . S
C1336 C1335 1.397 . S
C1336 C1337 1.334 . S
C1337 H1314 0.950 . S
C1337 C1336 1.334 . S
C1337 C1338 1.287 . S
C1338 C1337 1.287 . S
C1338 C1339 1.524 . S
C1338 H1357 0.913 . S
C1339 H1315 0.950 . S
C1339 C1338 1.524 . S
C1339 C1340 1.415 . S
C1340 H1316 0.950 . S
C1340 C1335 1.363 . S
C1340 C1339 1.415 . S
C1341 H1317 0.951 . S
C1341 C1342 1.366 . S
C1341 C1343 1.388 . S
C1342 C1341 1.366 . S
C1342 C1346 1.385 . S
C1343 H1318 0.951 . S
C1343 C1341 1.388 . S
C1343 C1344 1.366 . S
C1344 C1343 1.366 . S
C1344 C1345 1.414 . S
C1344 C1347 1.499 . S
C1345 H1319 0.950 . S
C1345 C1344 1.414 . S
C1345 C1346 1.374 . S
C1346 H1320 0.950 . S
C1346 C1342 1.385 . S
C1346 C1345 1.374 . S
C1347 C1344 1.499 . S
C1347 C1348 1.373 . S
C1347 C1349 1.389 . S
C1348 H1321 0.950 . S
C1348 C1334 1.377 . S
C1348 C1347 1.373 . S
C1349 C1333 1.377 . S
C1349 C1347 1.389 . S
C1349 C1350 1.524 . S
C1350 C1349 1.524 . S
C1350 C1351 1.397 . S
C1350 C1355 1.363 . S
C1351 H1322 0.950 . S
C1351 C1350 1.397 . S
C1351 C1352 1.334 . S
C1352 H1323 0.950 . S
C1352 C1351 1.334 . S
C1352 C1353 1.287 . S
C1353 C1352 1.287 . S
C1353 C1354 1.524 . S
C1353 H1356 0.999 . S
C1354 H1324 0.950 . S
C1354 C1353 1.524 . S
C1354 C1355 1.415 . S
C1355 H1325 0.950 . S
C1355 C1350 1.363 . S
C1355 C1354 1.415 . S
H1356 C1353 0.999 . S
H1357 C1338 0.913 . S
H1358 C1376 0.951 . S
H1359 C1378 0.951 . S
H1360 C1380 0.950 . S
H1361 C1381 0.950 . S
H1362 C1383 0.950 . S
H1363 C1386 0.950 . S
H1364 C1387 0.950 . S
H1365 C1389 0.950 . S
H1366 C1390 0.950 . S
H1367 C1391 0.951 . S
H1368 C1393 0.951 . S
H1369 C1395 0.950 . S
H1370 C1396 0.950 . S
H1371 C1398 0.950 . S
H1372 C1401 0.950 . S
H1373 C1402 0.950 . S
H1374 C1404 0.950 . S
H1375 C1405 0.950 . S
C1376 H1358 0.951 . S
C1376 C1377 1.366 . S
C1376 C1378 1.388 . S
C1377 C1376 1.366 . S
C1377 C1381 1.385 . S
C1378 H1359 0.951 . S
C1378 C1376 1.388 . S
C1378 C1379 1.366 . S
C1379 C1378 1.366 . S
C1379 C1380 1.414 . S
C1379 C1382 1.499 . S
C1380 H1360 0.950 . S
C1380 C1379 1.414 . S
C1380 C1381 1.374 . S
C1381 H1361 0.950 . S
C1381 C1377 1.385 . S
C1381 C1380 1.374 . S
C1382 C1379 1.499 . S
C1382 C1383 1.373 1_455 S
C1382 C1384 1.389 1_455 S
C1383 H1362 0.950 . S
C1383 C1382 1.373 1_655 S
C1383 C1399 1.377 . S
C1384 C1382 1.389 1_655 S
C1384 C1385 1.524 1_655 S
C1384 C1398 1.377 . S
C1385 C1384 1.524 1_455 S
C1385 C1386 1.397 . S
C1385 C1390 1.363 . S
C1386 H1363 0.950 . S
C1386 C1385 1.397 . S
C1386 C1387 1.334 . S
C1387 H1364 0.950 . S
C1387 C1386 1.334 . S
C1387 C1388 1.287 . S
C1388 C1387 1.287 . S
C1388 C1389 1.524 . S
C1388 H1407 0.913 . S
C1389 H1365 0.950 . S
C1389 C1388 1.524 . S
C1389 C1390 1.415 . S
C1390 H1366 0.950 . S
C1390 C1385 1.363 . S
C1390 C1389 1.415 . S
C1391 H1367 0.951 . S
C1391 C1392 1.366 . S
C1391 C1393 1.388 . S
C1392 C1391 1.366 . S
C1392 C1396 1.385 . S
C1393 H1368 0.951 . S
C1393 C1391 1.388 . S
C1393 C1394 1.366 . S
C1394 C1393 1.366 . S
C1394 C1395 1.414 . S
C1394 C1397 1.499 . S
C1395 H1369 0.950 . S
C1395 C1394 1.414 . S
C1395 C1396 1.374 . S
C1396 H1370 0.950 . S
C1396 C1392 1.385 . S
C1396 C1395 1.374 . S
C1397 C1394 1.499 . S
C1397 C1398 1.373 . S
C1397 C1399 1.389 . S
C1398 H1371 0.950 . S
C1398 C1384 1.377 . S
C1398 C1397 1.373 . S
C1399 C1383 1.377 . S
C1399 C1397 1.389 . S
C1399 C1400 1.524 . S
C1400 C1399 1.524 . S
C1400 C1401 1.397 . S
C1400 C1405 1.363 . S
C1401 H1372 0.950 . S
C1401 C1400 1.397 . S
C1401 C1402 1.334 . S
C1402 H1373 0.950 . S
C1402 C1401 1.334 . S
C1402 C1403 1.287 . S
C1403 C1402 1.287 . S
C1403 C1404 1.524 . S
C1403 H1406 0.999 . S
C1404 H1374 0.950 . S
C1404 C1403 1.524 . S
C1404 C1405 1.415 . S
C1405 H1375 0.950 . S
C1405 C1400 1.363 . S
C1405 C1404 1.415 . S
H1406 C1403 0.999 . S
H1407 C1388 0.913 . S
H1408 C1426 0.951 . S
H1409 C1428 0.951 . S
H1410 C1430 0.950 . S
H1411 C1431 0.950 . S
H1412 C1433 0.955 1_565 S
H1413 C1436 0.937 1_565 S
H1414 C1437 0.950 . S
H1415 C1439 0.950 . S
H1416 C1440 0.950 . S
H1417 C1441 0.951 . S
H1418 C1443 0.951 . S
H1419 C1445 0.950 . S
H1420 C1446 0.950 . S
H1421 C1448 0.950 . S
H1422 C1451 0.950 . S
H1423 C1452 0.950 . S
H1424 C1454 0.956 . S
H1425 C1455 0.950 1_565 S
C1426 H1408 0.951 . S
C1426 C1427 1.366 . S
C1426 C1428 1.388 . S
C1427 C1426 1.366 . S
C1427 C1431 1.385 . S
C1428 H1409 0.951 . S
C1428 C1426 1.388 . S
C1428 C1429 1.366 . S
C1429 C1428 1.366 . S
C1429 C1430 1.414 . S
C1429 C1432 1.499 . S
C1430 H1410 0.950 . S
C1430 C1429 1.414 . S
C1430 C1431 1.374 . S
C1431 H1411 0.950 . S
C1431 C1427 1.385 . S
C1431 C1430 1.374 . S
C1432 C1429 1.499 . S
C1432 C1433 1.372 1_565 S
C1432 C1434 1.389 1_565 S
C1433 H1412 0.955 1_545 S
C1433 C1432 1.372 1_545 S
C1433 C1449 1.374 . S
C1434 C1432 1.389 1_545 S
C1434 C1435 1.524 . S
C1434 C1448 1.377 . S
C1435 C1434 1.524 . S
C1435 C1436 1.404 . S
C1435 C1440 1.363 . S
C1436 H1413 0.937 1_545 S
C1436 C1435 1.404 . S
C1436 C1437 1.340 1_545 S
C1437 H1414 0.950 . S
C1437 C1436 1.340 1_565 S
C1437 C1438 1.287 1_565 S
C1438 C1437 1.287 1_545 S
C1438 C1439 1.524 . S
C1438 H1457 0.913 . S
C1439 H1415 0.950 . S
C1439 C1438 1.524 . S
C1439 C1440 1.415 . S
C1440 H1416 0.950 . S
C1440 C1435 1.363 . S
C1440 C1439 1.415 . S
C1441 H1417 0.951 . S
C1441 C1442 1.366 . S
C1441 C1443 1.388 . S
C1442 C1441 1.366 . S
C1442 C1446 1.385 . S
C1443 H1418 0.951 . S
C1443 C1441 1.388 . S
C1443 C1444 1.366 . S
C1444 C1443 1.366 . S
C1444 C1445 1.414 . S
C1444 C1447 1.499 . S
C1445 H1419 0.950 . S
C1445 C1444 1.414 . S
C1445 C1446 1.374 . S
C1446 H1420 0.950 . S
C1446 C1442 1.385 . S
C1446 C1445 1.374 . S
C1447 C1444 1.499 . S
C1447 C1448 1.373 . S
C1447 C1449 1.389 . S
C1448 H1421 0.950 . S
C1448 C1434 1.377 . S
C1448 C1447 1.373 . S
C1449 C1433 1.374 . S
C1449 C1447 1.389 . S
C1449 C1450 1.524 . S
C1450 C1449 1.524 . S
C1450 C1451 1.397 . S
C1450 C1455 1.363 . S
C1451 H1422 0.950 . S
C1451 C1450 1.397 . S
C1451 C1452 1.334 . S
C1452 H1423 0.950 . S
C1452 C1451 1.334 . S
C1452 C1453 1.287 . S
C1453 C1452 1.287 . S
C1453 C1454 1.524 . S
C1453 H1456 0.999 . S
C1454 H1424 0.956 . S
C1454 C1453 1.524 . S
C1454 C1455 1.415 . S
C1455 H1425 0.950 1_545 S
C1455 C1450 1.363 . S
C1455 C1454 1.415 . S
H1456 C1453 0.999 . S
H1457 C1438 0.913 . S
H1458 C1476 0.951 . S
H1459 C1478 0.951 . S
H1460 C1480 0.950 . S
H1461 C1481 0.950 . S
H1462 C1483 0.950 . S
H1463 C1486 0.950 . S
H1464 C1487 0.950 . S
H1465 C1489 0.950 . S
H1466 C1490 0.950 . S
H1467 C1491 0.951 . S
H1468 C1493 0.951 . S
H1469 C1495 0.950 . S
H1470 C1496 0.950 . S
H1471 C1498 0.950 . S
H1472 C1501 0.950 . S
H1473 C1502 0.950 . S
H1474 C1504 0.950 . S
H1475 C1505 0.950 . S
C1476 H1458 0.951 . S
C1476 C1477 1.366 . S
C1476 C1478 1.388 . S
C1477 C1476 1.366 . S
C1477 C1481 1.385 . S
C1478 H1459 0.951 . S
C1478 C1476 1.388 . S
C1478 C1479 1.366 . S
C1479 C1478 1.366 . S
C1479 C1480 1.414 . S
C1479 C1482 1.499 . S
C1480 H1460 0.950 . S
C1480 C1479 1.414 . S
C1480 C1481 1.374 . S
C1481 H1461 0.950 . S
C1481 C1477 1.385 . S
C1481 C1480 1.374 . S
C1482 C1479 1.499 . S
C1482 C1483 1.373 . S
C1482 C1484 1.389 . S
C1483 H1462 0.950 . S
C1483 C1482 1.373 . S
C1483 C1499 1.377 . S
C1484 C1482 1.389 . S
C1484 C1485 1.524 . S
C1484 C1498 1.377 . S
C1485 C1484 1.524 . S
C1485 C1486 1.397 . S
C1485 C1490 1.363 . S
C1486 H1463 0.950 . S
C1486 C1485 1.397 . S
C1486 C1487 1.334 . S
C1487 H1464 0.950 . S
C1487 C1486 1.334 . S
C1487 C1488 1.287 . S
C1488 C1487 1.287 . S
C1488 C1489 1.524 . S
C1488 H1507 0.913 . S
C1489 H1465 0.950 . S
C1489 C1488 1.524 . S
C1489 C1490 1.415 . S
C1490 H1466 0.950 . S
C1490 C1485 1.363 . S
C1490 C1489 1.415 . S
C1491 H1467 0.951 . S
C1491 C1492 1.366 . S
C1491 C1493 1.388 . S
C1492 C1491 1.366 . S
C1492 C1496 1.385 . S
C1493 H1468 0.951 . S
C1493 C1491 1.388 . S
C1493 C1494 1.366 . S
C1494 C1493 1.366 . S
C1494 C1495 1.414 . S
C1494 C1497 1.499 . S
C1495 H1469 0.950 . S
C1495 C1494 1.414 . S
C1495 C1496 1.374 . S
C1496 H1470 0.950 . S
C1496 C1492 1.385 . S
C1496 C1495 1.374 . S
C1497 C1494 1.499 . S
C1497 C1498 1.373 . S
C1497 C1499 1.389 . S
C1498 H1471 0.950 . S
C1498 C1484 1.377 . S
C1498 C1497 1.373 . S
C1499 C1483 1.377 . S
C1499 C1497 1.389 . S
C1499 C1500 1.524 . S
C1500 C1499 1.524 . S
C1500 C1501 1.397 . S
C1500 C1505 1.363 . S
C1501 H1472 0.950 . S
C1501 C1500 1.397 . S
C1501 C1502 1.334 . S
C1502 H1473 0.950 . S
C1502 C1501 1.334 . S
C1502 C1503 1.287 . S
C1503 C1502 1.287 . S
C1503 C1504 1.524 . S
C1503 H1506 0.999 . S
C1504 H1474 0.950 . S
C1504 C1503 1.524 . S
C1504 C1505 1.415 . S
C1505 H1475 0.950 . S
C1505 C1500 1.363 . S
C1505 C1504 1.415 . S
H1506 C1503 0.999 . S
H1507 C1488 0.913 . S
H1508 C1526 0.951 . S
H1509 C1528 0.951 . S
H1510 C1530 0.950 . S
H1511 C1531 0.950 . S
H1512 C1533 0.950 . S
H1513 C1536 0.950 . S
H1514 C1537 0.950 . S
H1515 C1539 0.950 . S
H1516 C1540 0.950 1_655 S
H1517 C1541 0.951 . S
H1518 C1543 0.951 . S
H1519 C1545 0.950 . S
H1520 C1546 0.950 . S
H1521 C1548 0.950 . S
H1522 C1551 0.950 . S
H1523 C1552 0.950 . S
H1524 C1554 0.950 . S
H1525 C1555 0.950 . S
C1526 H1508 0.951 . S
C1526 C1527 1.366 . S
C1526 C1528 1.388 . S
C1527 C1526 1.366 . S
C1527 C1531 1.385 . S
C1528 H1509 0.951 . S
C1528 C1526 1.388 . S
C1528 C1529 1.366 . S
C1529 C1528 1.366 . S
C1529 C1530 1.414 . S
C1529 C1532 1.499 . S
C1530 H1510 0.950 . S
C1530 C1529 1.414 . S
C1530 C1531 1.374 . S
C1531 H1511 0.950 . S
C1531 C1527 1.385 . S
C1531 C1530 1.374 . S
C1532 C1529 1.499 . S
C1532 C1533 1.373 1_455 S
C1532 C1534 1.389 1_455 S
C1533 H1512 0.950 . S
C1533 C1532 1.373 1_655 S
C1533 C1549 1.377 . S
C1534 C1532 1.389 1_655 S
C1534 C1535 1.524 1_655 S
C1534 C1548 1.377 . S
C1535 C1534 1.524 1_455 S
C1535 C1536 1.397 . S
C1535 C1540 1.363 . S
C1536 H1513 0.950 . S
C1536 C1535 1.397 . S
C1536 C1537 1.334 . S
C1537 H1514 0.950 . S
C1537 C1536 1.334 . S
C1537 C1538 1.287 . S
C1538 C1537 1.287 . S
C1538 C1539 1.524 . S
C1538 H1557 0.913 . S
C1539 H1515 0.950 . S
C1539 C1538 1.524 . S
C1539 C1540 1.415 . S
C1540 H1516 0.950 1_455 S
C1540 C1535 1.363 . S
C1540 C1539 1.415 . S
C1541 H1517 0.951 . S
C1541 C1542 1.366 . S
C1541 C1543 1.388 . S
C1542 C1541 1.366 . S
C1542 C1546 1.385 . S
C1543 H1518 0.951 . S
C1543 C1541 1.388 . S
C1543 C1544 1.366 . S
C1544 C1543 1.366 . S
C1544 C1545 1.414 . S
C1544 C1547 1.499 . S
C1545 H1519 0.950 . S
C1545 C1544 1.414 . S
C1545 C1546 1.374 . S
C1546 H1520 0.950 . S
C1546 C1542 1.385 . S
C1546 C1545 1.374 . S
C1547 C1544 1.499 . S
C1547 C1548 1.373 . S
C1547 C1549 1.389 . S
C1548 H1521 0.950 . S
C1548 C1534 1.377 . S
C1548 C1547 1.373 . S
C1549 C1533 1.377 . S
C1549 C1547 1.389 . S
C1549 C1550 1.524 . S
C1550 C1549 1.524 . S
C1550 C1551 1.397 . S
C1550 C1555 1.363 . S
C1551 H1522 0.950 . S
C1551 C1550 1.397 . S
C1551 C1552 1.334 . S
C1552 H1523 0.950 . S
C1552 C1551 1.334 . S
C1552 C1553 1.287 . S
C1553 C1552 1.287 . S
C1553 C1554 1.524 . S
C1553 H1556 0.999 . S
C1554 H1524 0.950 . S
C1554 C1553 1.524 . S
C1554 C1555 1.415 . S
C1555 H1525 0.950 . S
C1555 C1550 1.363 . S
C1555 C1554 1.415 . S
H1556 C1553 0.999 . S
H1557 C1538 0.913 . S
H1558 C1576 0.951 . S
H1559 C1578 0.951 . S
H1560 C1580 0.950 . S
H1561 C1581 0.950 . S
H1562 C1583 0.950 . S
H1563 C1586 0.950 . S
H1564 C1587 0.950 . S
H1565 C1589 0.950 . S
H1566 C1590 0.950 . S
H1567 C1591 0.951 . S
H1568 C1593 0.951 . S
H1569 C1595 0.950 . S
H1570 C1596 0.950 . S
H1571 C1598 0.950 . S
H1572 C1601 0.950 . S
H1573 C1602 0.950 . S
H1574 C1604 0.950 . S
H1575 C1605 0.950 . S
C1576 H1558 0.951 . S
C1576 C1577 1.366 . S
C1576 C1578 1.388 . S
C1577 C1576 1.366 . S
C1577 C1581 1.385 . S
C1578 H1559 0.951 . S
C1578 C1576 1.388 . S
C1578 C1579 1.366 . S
C1579 C1578 1.366 . S
C1579 C1580 1.414 . S
C1579 C1582 1.499 . S
C1580 H1560 0.950 . S
C1580 C1579 1.414 . S
C1580 C1581 1.374 . S
C1581 H1561 0.950 . S
C1581 C1577 1.385 . S
C1581 C1580 1.374 . S
C1582 C1579 1.499 . S
C1582 C1583 1.373 . S
C1582 C1584 1.389 . S
C1583 H1562 0.950 . S
C1583 C1582 1.373 . S
C1583 C1599 1.377 . S
C1584 C1582 1.389 . S
C1584 C1585 1.524 . S
C1584 C1598 1.377 . S
C1585 C1584 1.524 . S
C1585 C1586 1.397 . S
C1585 C1590 1.363 . S
C1586 H1563 0.950 . S
C1586 C1585 1.397 . S
C1586 C1587 1.334 . S
C1587 H1564 0.950 . S
C1587 C1586 1.334 . S
C1587 C1588 1.287 . S
C1588 C1587 1.287 . S
C1588 C1589 1.524 . S
C1588 H1607 0.913 . S
C1589 H1565 0.950 . S
C1589 C1588 1.524 . S
C1589 C1590 1.415 . S
C1590 H1566 0.950 . S
C1590 C1585 1.363 . S
C1590 C1589 1.415 . S
C1591 H1567 0.951 . S
C1591 C1592 1.366 . S
C1591 C1593 1.388 . S
C1592 C1591 1.366 . S
C1592 C1596 1.385 . S
C1593 H1568 0.951 . S
C1593 C1591 1.388 . S
C1593 C1594 1.366 . S
C1594 C1593 1.366 . S
C1594 C1595 1.414 . S
C1594 C1597 1.499 . S
C1595 H1569 0.950 . S
C1595 C1594 1.414 . S
C1595 C1596 1.374 . S
C1596 H1570 0.950 . S
C1596 C1592 1.385 . S
C1596 C1595 1.374 . S
C1597 C1594 1.499 . S
C1597 C1598 1.373 1_565 S
C1597 C1599 1.389 1_565 S
C1598 H1571 0.950 . S
C1598 C1584 1.377 . S
C1598 C1597 1.373 1_545 S
C1599 C1583 1.377 . S
C1599 C1597 1.389 1_545 S
C1599 C1600 1.524 1_545 S
C1600 C1599 1.524 1_565 S
C1600 C1601 1.397 . S
C1600 C1605 1.363 . S
C1601 H1572 0.950 . S
C1601 C1600 1.397 . S
C1601 C1602 1.334 . S
C1602 H1573 0.950 . S
C1602 C1601 1.334 . S
C1602 C1603 1.287 . S
C1603 C1602 1.287 . S
C1603 C1604 1.524 . S
C1603 H1606 0.999 . S
C1604 H1574 0.950 . S
C1604 C1603 1.524 . S
C1604 C1605 1.415 . S
C1605 H1575 0.950 . S
C1605 C1600 1.363 . S
C1605 C1604 1.415 . S
H1606 C1603 0.999 . S
H1607 C1588 0.913 . S
H1608 C1626 0.951 . S
H1609 C1628 0.951 . S
H1610 C1630 0.950 . S
H1611 C1631 0.950 . S
H1612 C1633 0.950 . S
H1613 C1636 0.950 . S
H1614 C1637 0.950 . S
H1615 C1639 0.950 . S
H1616 C1640 0.950 . S
H1617 C1641 0.951 . S
H1618 C1643 0.951 . S
H1619 C1645 0.950 . S
H1620 C1646 0.950 . S
H1621 C1648 0.950 . S
H1622 C1651 0.950 . S
H1623 C1652 0.950 . S
H1624 C1654 0.950 . S
H1625 C1655 0.950 . S
C1626 H1608 0.951 . S
C1626 C1627 1.366 . S
C1626 C1628 1.388 . S
C1627 C1626 1.366 . S
C1627 C1631 1.385 . S
C1628 H1609 0.951 . S
C1628 C1626 1.388 . S
C1628 C1629 1.366 . S
C1629 C1628 1.366 . S
C1629 C1630 1.414 . S
C1629 C1632 1.499 . S
C1630 H1610 0.950 . S
C1630 C1629 1.414 . S
C1630 C1631 1.374 . S
C1631 H1611 0.950 . S
C1631 C1627 1.385 . S
C1631 C1630 1.374 . S
C1632 C1629 1.499 . S
C1632 C1633 1.373 . S
C1632 C1634 1.389 . S
C1633 H1612 0.950 . S
C1633 C1632 1.373 . S
C1633 C1649 1.377 . S
C1634 C1632 1.389 . S
C1634 C1635 1.524 . S
C1634 C1648 1.377 . S
C1635 C1634 1.524 . S
C1635 C1636 1.397 . S
C1635 C1640 1.363 . S
C1636 H1613 0.950 . S
C1636 C1635 1.397 . S
C1636 C1637 1.334 . S
C1637 H1614 0.950 . S
C1637 C1636 1.334 . S
C1637 C1638 1.287 . S
C1638 C1637 1.287 . S
C1638 C1639 1.524 . S
C1638 H1657 0.913 . S
C1639 H1615 0.950 . S
C1639 C1638 1.524 . S
C1639 C1640 1.415 . S
C1640 H1616 0.950 . S
C1640 C1635 1.363 . S
C1640 C1639 1.415 . S
C1641 H1617 0.951 . S
C1641 C1642 1.366 . S
C1641 C1643 1.388 . S
C1642 C1641 1.366 . S
C1642 C1646 1.385 . S
C1643 H1618 0.951 . S
C1643 C1641 1.388 . S
C1643 C1644 1.366 . S
C1644 C1643 1.366 . S
C1644 C1645 1.414 . S
C1644 C1647 1.499 . S
C1645 H1619 0.950 . S
C1645 C1644 1.414 . S
C1645 C1646 1.374 . S
C1646 H1620 0.950 . S
C1646 C1642 1.385 . S
C1646 C1645 1.374 . S
C1647 C1644 1.499 . S
C1647 C1648 1.373 . S
C1647 C1649 1.389 . S
C1648 H1621 0.950 . S
C1648 C1634 1.377 . S
C1648 C1647 1.373 . S
C1649 C1633 1.377 . S
C1649 C1647 1.389 . S
C1649 C1650 1.524 . S
C1650 C1649 1.524 . S
C1650 C1651 1.397 . S
C1650 C1655 1.363 . S
C1651 H1622 0.950 . S
C1651 C1650 1.397 . S
C1651 C1652 1.334 . S
C1652 H1623 0.950 . S
C1652 C1651 1.334 . S
C1652 C1653 1.287 . S
C1653 C1652 1.287 . S
C1653 C1654 1.524 . S
C1653 H1656 0.999 . S
C1654 H1624 0.950 . S
C1654 C1653 1.524 . S
C1654 C1655 1.415 . S
C1655 H1625 0.950 . S
C1655 C1650 1.363 . S
C1655 C1654 1.415 . S
H1656 C1653 0.999 . S
H1657 C1638 0.913 . S
H1658 C1676 0.951 . S
H1659 C1678 0.951 . S
H1660 C1680 0.950 . S
H1661 C1681 0.950 . S
H1662 C1683 0.950 . S
H1663 C1686 0.950 . S
H1664 C1687 0.950 . S
H1665 C1689 0.950 . S
H1666 C1690 0.950 . S
H1667 C1691 0.951 . S
H1668 C1693 0.951 . S
H1669 C1695 0.950 . S
H1670 C1696 0.950 . S
H1671 C1698 0.950 . S
H1672 C1701 0.950 . S
H1673 C1702 0.950 . S
H1674 C1704 0.950 . S
H1675 C1705 0.950 . S
C1676 H1658 0.951 . S
C1676 C1677 1.366 . S
C1676 C1678 1.388 . S
C1677 C1676 1.366 . S
C1677 C1681 1.385 . S
C1678 H1659 0.951 . S
C1678 C1676 1.388 . S
C1678 C1679 1.366 . S
C1679 C1678 1.366 . S
C1679 C1680 1.414 . S
C1679 C1682 1.499 . S
C1680 H1660 0.950 . S
C1680 C1679 1.414 . S
C1680 C1681 1.374 . S
C1681 H1661 0.950 . S
C1681 C1677 1.385 . S
C1681 C1680 1.374 . S
C1682 C1679 1.499 . S
C1682 C1683 1.373 . S
C1682 C1684 1.389 . S
C1683 H1662 0.950 . S
C1683 C1682 1.373 . S
C1683 C1699 1.377 . S
C1684 C1682 1.389 . S
C1684 C1685 1.524 . S
C1684 C1698 1.377 . S
C1685 C1684 1.524 . S
C1685 C1686 1.397 . S
C1685 C1690 1.363 . S
C1686 H1663 0.950 . S
C1686 C1685 1.397 . S
C1686 C1687 1.334 . S
C1687 H1664 0.950 . S
C1687 C1686 1.334 . S
C1687 C1688 1.287 . S
C1688 C1687 1.287 . S
C1688 C1689 1.524 . S
C1688 H1707 0.913 . S
C1689 H1665 0.950 . S
C1689 C1688 1.524 . S
C1689 C1690 1.415 . S
C1690 H1666 0.950 . S
C1690 C1685 1.363 . S
C1690 C1689 1.415 . S
C1691 H1667 0.951 . S
C1691 C1692 1.366 . S
C1691 C1693 1.388 . S
C1692 C1691 1.366 . S
C1692 C1696 1.385 . S
C1693 H1668 0.951 . S
C1693 C1691 1.388 . S
C1693 C1694 1.366 . S
C1694 C1693 1.366 . S
C1694 C1695 1.414 . S
C1694 C1697 1.499 . S
C1695 H1669 0.950 . S
C1695 C1694 1.414 . S
C1695 C1696 1.374 . S
C1696 H1670 0.950 . S
C1696 C1692 1.385 . S
C1696 C1695 1.374 . S
C1697 C1694 1.499 . S
C1697 C1698 1.373 . S
C1697 C1699 1.389 . S
C1698 H1671 0.950 . S
C1698 C1684 1.377 . S
C1698 C1697 1.373 . S
C1699 C1683 1.377 . S
C1699 C1697 1.389 . S
C1699 C1700 1.524 . S
C1700 C1699 1.524 . S
C1700 C1701 1.397 . S
C1700 C1705 1.363 . S
C1701 H1672 0.950 . S
C1701 C1700 1.397 . S
C1701 C1702 1.334 . S
C1702 H1673 0.950 . S
C1702 C1701 1.334 . S
C1702 C1703 1.287 . S
C1703 C1702 1.287 . S
C1703 C1704 1.524 . S
C1703 H1706 0.999 . S
C1704 H1674 0.950 . S
C1704 C1703 1.524 . S
C1704 C1705 1.415 . S
C1705 H1675 0.950 . S
C1705 C1700 1.363 . S
C1705 C1704 1.415 . S
H1706 C1703 0.999 . S
H1707 C1688 0.913 . S
H1708 C1726 0.951 . S
H1709 C1728 0.951 . S
H1710 C1730 0.950 . S
H1711 C1731 0.950 . S
H1712 C1733 0.950 . S
H1713 C1736 0.950 . S
H1714 C1737 0.950 . S
H1715 C1739 0.950 . S
H1716 C1740 0.950 . S
H1717 C1741 0.951 . S
H1718 C1743 0.951 . S
H1719 C1745 0.950 . S
H1720 C1746 0.950 . S
H1721 C1748 0.950 . S
H1722 C1751 0.950 . S
H1723 C1752 0.950 . S
H1724 C1754 0.950 . S
H1725 C1755 0.950 . S
C1726 H1708 0.951 . S
C1726 C1727 1.366 . S
C1726 C1728 1.388 . S
C1727 C1726 1.366 . S
C1727 C1731 1.385 . S
C1728 H1709 0.951 . S
C1728 C1726 1.388 . S
C1728 C1729 1.366 . S
C1729 C1728 1.366 . S
C1729 C1730 1.414 . S
C1729 C1732 1.499 . S
C1730 H1710 0.950 . S
C1730 C1729 1.414 . S
C1730 C1731 1.374 . S
C1731 H1711 0.950 . S
C1731 C1727 1.385 . S
C1731 C1730 1.374 . S
C1732 C1729 1.499 . S
C1732 C1733 1.373 . S
C1732 C1734 1.389 . S
C1733 H1712 0.950 . S
C1733 C1732 1.373 . S
C1733 C1749 1.377 . S
C1734 C1732 1.389 . S
C1734 C1735 1.524 . S
C1734 C1748 1.377 . S
C1735 C1734 1.524 . S
C1735 C1736 1.397 . S
C1735 C1740 1.363 . S
C1736 H1713 0.950 . S
C1736 C1735 1.397 . S
C1736 C1737 1.334 . S
C1737 H1714 0.950 . S
C1737 C1736 1.334 . S
C1737 C1738 1.287 . S
C1738 C1737 1.287 . S
C1738 C1739 1.524 . S
C1738 H1757 0.913 . S
C1739 H1715 0.950 . S
C1739 C1738 1.524 . S
C1739 C1740 1.415 . S
C1740 H1716 0.950 . S
C1740 C1735 1.363 . S
C1740 C1739 1.415 . S
C1741 H1717 0.951 . S
C1741 C1742 1.366 . S
C1741 C1743 1.388 . S
C1742 C1741 1.366 . S
C1742 C1746 1.385 . S
C1743 H1718 0.951 . S
C1743 C1741 1.388 . S
C1743 C1744 1.366 . S
C1744 C1743 1.366 . S
C1744 C1745 1.414 . S
C1744 C1747 1.499 . S
C1745 H1719 0.950 . S
C1745 C1744 1.414 . S
C1745 C1746 1.374 . S
C1746 H1720 0.950 . S
C1746 C1742 1.385 . S
C1746 C1745 1.374 . S
C1747 C1744 1.499 . S
C1747 C1748 1.373 . S
C1747 C1749 1.389 . S
C1748 H1721 0.950 . S
C1748 C1734 1.377 . S
C1748 C1747 1.373 . S
C1749 C1733 1.377 . S
C1749 C1747 1.389 . S
C1749 C1750 1.524 . S
C1750 C1749 1.524 . S
C1750 C1751 1.397 . S
C1750 C1755 1.363 . S
C1751 H1722 0.950 . S
C1751 C1750 1.397 . S
C1751 C1752 1.334 . S
C1752 H1723 0.950 . S
C1752 C1751 1.334 . S
C1752 C1753 1.287 . S
C1753 C1752 1.287 . S
C1753 C1754 1.524 . S
C1753 H1756 0.999 . S
C1754 H1724 0.950 . S
C1754 C1753 1.524 . S
C1754 C1755 1.415 . S
C1755 H1725 0.950 . S
C1755 C1750 1.363 . S
C1755 C1754 1.415 . S
H1756 C1753 0.999 . S
H1757 C1738 0.913 . S
H1758 C1776 0.951 . S
H1759 C1778 0.951 . S
H1760 C1780 0.950 . S
H1761 C1781 0.950 . S
H1762 C1783 0.950 . S
H1763 C1786 0.950 . S
H1764 C1787 0.950 . S
H1765 C1789 0.950 . S
H1766 C1790 0.950 . S
H1767 C1791 0.951 . S
H1768 C1793 0.951 . S
H1769 C1795 0.950 . S
H1770 C1796 0.950 . S
H1771 C1798 0.950 . S
H1772 C1801 0.950 . S
H1773 C1802 0.950 . S
H1774 C1804 0.950 . S
H1775 C1805 0.950 . S
C1776 H1758 0.951 . S
C1776 C1777 1.366 . S
C1776 C1778 1.388 . S
C1777 C1776 1.366 . S
C1777 C1781 1.385 . S
C1778 H1759 0.951 . S
C1778 C1776 1.388 . S
C1778 C1779 1.366 . S
C1779 C1778 1.366 . S
C1779 C1780 1.414 . S
C1779 C1782 1.499 . S
C1780 H1760 0.950 . S
C1780 C1779 1.414 . S
C1780 C1781 1.374 . S
C1781 H1761 0.950 . S
C1781 C1777 1.385 . S
C1781 C1780 1.374 . S
C1782 C1779 1.499 . S
C1782 C1783 1.373 . S
C1782 C1784 1.389 . S
C1783 H1762 0.950 . S
C1783 C1782 1.373 . S
C1783 C1799 1.377 . S
C1784 C1782 1.389 . S
C1784 C1785 1.524 . S
C1784 C1798 1.377 . S
C1785 C1784 1.524 . S
C1785 C1786 1.397 . S
C1785 C1790 1.363 . S
C1786 H1763 0.950 . S
C1786 C1785 1.397 . S
C1786 C1787 1.334 . S
C1787 H1764 0.950 . S
C1787 C1786 1.334 . S
C1787 C1788 1.287 . S
C1788 C1787 1.287 . S
C1788 C1789 1.524 . S
C1788 H1807 0.913 . S
C1789 H1765 0.950 . S
C1789 C1788 1.524 . S
C1789 C1790 1.415 . S
C1790 H1766 0.950 . S
C1790 C1785 1.363 . S
C1790 C1789 1.415 . S
C1791 H1767 0.951 . S
C1791 C1792 1.366 . S
C1791 C1793 1.388 . S
C1792 C1791 1.366 . S
C1792 C1796 1.385 . S
C1793 H1768 0.951 . S
C1793 C1791 1.388 . S
C1793 C1794 1.366 . S
C1794 C1793 1.366 . S
C1794 C1795 1.414 . S
C1794 C1797 1.499 . S
C1795 H1769 0.950 . S
C1795 C1794 1.414 . S
C1795 C1796 1.374 . S
C1796 H1770 0.950 . S
C1796 C1792 1.385 . S
C1796 C1795 1.374 . S
C1797 C1794 1.499 . S
C1797 C1798 1.373 . S
C1797 C1799 1.389 . S
C1798 H1771 0.950 . S
C1798 C1784 1.377 . S
C1798 C1797 1.373 . S
C1799 C1783 1.377 . S
C1799 C1797 1.389 . S
C1799 C1800 1.524 . S
C1800 C1799 1.524 . S
C1800 C1801 1.397 . S
C1800 C1805 1.363 . S
C1801 H1772 0.950 . S
C1801 C1800 1.397 . S
C1801 C1802 1.334 . S
C1802 H1773 0.950 . S
C1802 C1801 1.334 . S
C1802 C1803 1.287 . S
C1803 C1802 1.287 . S
C1803 C1804 1.524 . S
C1803 H1806 0.999 . S
C1804 H1774 0.950 . S
C1804 C1803 1.524 . S
C1804 C1805 1.415 . S
C1805 H1775 0.950 . S
C1805 C1800 1.363 . S
C1805 C1804 1.415 . S
H1806 C1803 0.999 . S
H1807 C1788 0.913 . S
H1808 C1826 0.951 . S
H1809 C1828 0.951 . S
H1810 C1830 0.950 . S
H1811 C1831 0.950 . S
H1812 C1833 0.950 . S
H1813 C1836 0.950 . S
H1814 C1837 0.950 . S
H1815 C1839 0.950 . S
H1816 C1840 0.950 . S
H1817 C1841 0.951 . S
H1818 C1843 0.951 . S
H1819 C1845 0.950 . S
H1820 C1846 0.950 . S
H1821 C1848 0.950 . S
H1822 C1851 0.950 . S
H1823 C1852 0.950 . S
H1824 C1854 0.950 . S
H1825 C1855 0.950 . S
C1826 H1808 0.951 . S
C1826 C1827 1.366 . S
C1826 C1828 1.388 . S
C1827 C1826 1.366 . S
C1827 C1831 1.385 . S
C1828 H1809 0.951 . S
C1828 C1826 1.388 . S
C1828 C1829 1.366 . S
C1829 C1828 1.366 . S
C1829 C1830 1.414 . S
C1829 C1832 1.499 . S
C1830 H1810 0.950 . S
C1830 C1829 1.414 . S
C1830 C1831 1.374 . S
C1831 H1811 0.950 . S
C1831 C1827 1.385 . S
C1831 C1830 1.374 . S
C1832 C1829 1.499 . S
C1832 C1833 1.373 . S
C1832 C1834 1.389 . S
C1833 H1812 0.950 . S
C1833 C1832 1.373 . S
C1833 C1849 1.377 . S
C1834 C1832 1.389 . S
C1834 C1835 1.524 . S
C1834 C1848 1.377 . S
C1835 C1834 1.524 . S
C1835 C1836 1.397 . S
C1835 C1840 1.363 . S
C1836 H1813 0.950 . S
C1836 C1835 1.397 . S
C1836 C1837 1.334 . S
C1837 H1814 0.950 . S
C1837 C1836 1.334 . S
C1837 C1838 1.287 . S
C1838 C1837 1.287 . S
C1838 C1839 1.524 . S
C1838 H1857 0.913 . S
C1839 H1815 0.950 . S
C1839 C1838 1.524 . S
C1839 C1840 1.415 . S
C1840 H1816 0.950 . S
C1840 C1835 1.363 . S
C1840 C1839 1.415 . S
C1841 H1817 0.951 . S
C1841 C1842 1.366 . S
C1841 C1843 1.388 . S
C1842 C1841 1.366 . S
C1842 C1846 1.385 . S
C1843 H1818 0.951 . S
C1843 C1841 1.388 . S
C1843 C1844 1.366 . S
C1844 C1843 1.366 . S
C1844 C1845 1.414 . S
C1844 C1847 1.499 . S
C1845 H1819 0.950 . S
C1845 C1844 1.414 . S
C1845 C1846 1.374 . S
C1846 H1820 0.950 . S
C1846 C1842 1.385 . S
C1846 C1845 1.374 . S
C1847 C1844 1.499 . S
C1847 C1848 1.373 . S
C1847 C1849 1.389 . S
C1848 H1821 0.950 . S
C1848 C1834 1.377 . S
C1848 C1847 1.373 . S
C1849 C1833 1.377 . S
C1849 C1847 1.389 . S
C1849 C1850 1.524 . S
C1850 C1849 1.524 . S
C1850 C1851 1.397 . S
C1850 C1855 1.363 . S
C1851 H1822 0.950 . S
C1851 C1850 1.397 . S
C1851 C1852 1.334 . S
C1852 H1823 0.950 . S
C1852 C1851 1.334 . S
C1852 C1853 1.287 . S
C1853 C1852 1.287 . S
C1853 C1854 1.524 . S
C1853 H1856 0.999 . S
C1854 H1824 0.950 . S
C1854 C1853 1.524 . S
C1854 C1855 1.415 . S
C1855 H1825 0.950 . S
C1855 C1850 1.363 . S
C1855 C1854 1.415 . S
H1856 C1853 0.999 . S
H1857 C1838 0.913 . S
H1858 C1876 0.951 . S
H1859 C1878 0.951 . S
H1860 C1880 0.950 . S
H1861 C1881 0.950 . S
H1862 C1883 0.950 . S
H1863 C1886 0.950 . S
H1864 C1887 0.950 . S
H1865 C1889 0.950 . S
H1866 C1890 0.950 . S
H1867 C1891 0.951 . S
H1868 C1893 0.951 . S
H1869 C1895 0.950 . S
H1870 C1896 0.950 . S
H1871 C1898 0.950 . S
H1872 C1901 0.950 . S
H1873 C1902 0.950 . S
H1874 C1904 0.950 . S
H1875 C1905 0.950 . S
C1876 H1858 0.951 . S
C1876 C1877 1.366 . S
C1876 C1878 1.388 . S
C1877 C1876 1.366 . S
C1877 C1881 1.385 . S
C1878 H1859 0.951 . S
C1878 C1876 1.388 . S
C1878 C1879 1.366 . S
C1879 C1878 1.366 . S
C1879 C1880 1.414 . S
C1879 C1882 1.499 . S
C1880 H1860 0.950 . S
C1880 C1879 1.414 . S
C1880 C1881 1.374 . S
C1881 H1861 0.950 . S
C1881 C1877 1.385 . S
C1881 C1880 1.374 . S
C1882 C1879 1.499 . S
C1882 C1883 1.373 . S
C1882 C1884 1.389 . S
C1883 H1862 0.950 . S
C1883 C1882 1.373 . S
C1883 C1899 1.377 . S
C1884 C1882 1.389 . S
C1884 C1885 1.524 . S
C1884 C1898 1.377 . S
C1885 C1884 1.524 . S
C1885 C1886 1.397 . S
C1885 C1890 1.363 . S
C1886 H1863 0.950 . S
C1886 C1885 1.397 . S
C1886 C1887 1.334 . S
C1887 H1864 0.950 . S
C1887 C1886 1.334 . S
C1887 C1888 1.287 . S
C1888 C1887 1.287 . S
C1888 C1889 1.524 . S
C1888 H1907 0.913 . S
C1889 H1865 0.950 . S
C1889 C1888 1.524 . S
C1889 C1890 1.415 . S
C1890 H1866 0.950 . S
C1890 C1885 1.363 . S
C1890 C1889 1.415 . S
C1891 H1867 0.951 . S
C1891 C1892 1.366 . S
C1891 C1893 1.388 . S
C1892 C1891 1.366 . S
C1892 C1896 1.385 . S
C1893 H1868 0.951 . S
C1893 C1891 1.388 . S
C1893 C1894 1.366 . S
C1894 C1893 1.366 . S
C1894 C1895 1.414 . S
C1894 C1897 1.499 . S
C1895 H1869 0.950 . S
C1895 C1894 1.414 . S
C1895 C1896 1.374 . S
C1896 H1870 0.950 . S
C1896 C1892 1.385 . S
C1896 C1895 1.374 . S
C1897 C1894 1.499 . S
C1897 C1898 1.373 . S
C1897 C1899 1.389 . S
C1898 H1871 0.950 . S
C1898 C1884 1.377 . S
C1898 C1897 1.373 . S
C1899 C1883 1.377 . S
C1899 C1897 1.389 . S
C1899 C1900 1.524 . S
C1900 C1899 1.524 . S
C1900 C1901 1.397 . S
C1900 C1905 1.363 . S
C1901 H1872 0.950 . S
C1901 C1900 1.397 . S
C1901 C1902 1.334 . S
C1902 H1873 0.950 . S
C1902 C1901 1.334 . S
C1902 C1903 1.287 . S
C1903 C1902 1.287 . S
C1903 C1904 1.524 . S
C1903 H1906 0.999 . S
C1904 H1874 0.950 . S
C1904 C1903 1.524 . S
C1904 C1905 1.415 . S
C1905 H1875 0.950 . S
C1905 C1900 1.363 . S
C1905 C1904 1.415 . S
H1906 C1903 0.999 . S
H1907 C1888 0.913 . S
H1908 C1926 0.951 . S
H1909 C1928 0.951 . S
H1910 C1930 0.950 . S
H1911 C1931 0.950 . S
H1912 C1933 0.950 . S
H1913 C1936 0.950 . S
H1914 C1937 0.950 . S
H1915 C1939 0.950 1_545 S
H1916 C1940 0.950 . S
H1917 C1941 0.951 . S
H1918 C1943 0.951 . S
H1919 C1945 0.950 . S
H1920 C1946 0.950 . S
H1921 C1948 0.950 . S
H1922 C1951 0.950 . S
H1923 C1952 0.950 . S
H1924 C1954 0.950 1_565 S
H1925 C1955 0.950 . S
C1926 H1908 0.951 . S
C1926 C1927 1.366 . S
C1926 C1928 1.388 . S
C1927 C1926 1.366 . S
C1927 C1931 1.385 . S
C1928 H1909 0.951 . S
C1928 C1926 1.388 . S
C1928 C1929 1.366 . S
C1929 C1928 1.366 . S
C1929 C1930 1.414 . S
C1929 C1932 1.499 . S
C1930 H1910 0.950 . S
C1930 C1929 1.414 . S
C1930 C1931 1.374 . S
C1931 H1911 0.950 . S
C1931 C1927 1.385 . S
C1931 C1930 1.374 . S
C1932 C1929 1.499 . S
C1932 C1933 1.373 . S
C1932 C1934 1.389 . S
C1933 H1912 0.950 . S
C1933 C1932 1.373 . S
C1933 C1949 1.377 1_566 S
C1934 C1932 1.389 . S
C1934 C1935 1.524 . S
C1934 C1948 1.377 1_566 S
C1935 C1934 1.524 . S
C1935 C1936 1.397 . S
C1935 C1940 1.363 1_565 S
C1936 H1913 0.950 . S
C1936 C1935 1.397 . S
C1936 C1937 1.334 . S
C1937 H1914 0.950 . S
C1937 C1936 1.334 . S
C1937 C1938 1.287 . S
C1938 C1937 1.287 . S
C1938 C1939 1.524 . S
C1938 H1957 0.913 . S
C1939 H1915 0.950 1_565 S
C1939 C1938 1.524 . S
C1939 C1940 1.415 1_565 S
C1940 H1916 0.950 . S
C1940 C1935 1.363 1_545 S
C1940 C1939 1.415 1_545 S
C1941 H1917 0.951 . S
C1941 C1942 1.366 . S
C1941 C1943 1.388 . S
C1942 C1941 1.366 . S
C1942 C1946 1.385 . S
C1943 H1918 0.951 . S
C1943 C1941 1.388 . S
C1943 C1944 1.366 . S
C1944 C1943 1.366 . S
C1944 C1945 1.414 . S
C1944 C1947 1.499 . S
C1945 H1919 0.950 . S
C1945 C1944 1.414 . S
C1945 C1946 1.374 . S
C1946 H1920 0.950 . S
C1946 C1942 1.385 . S
C1946 C1945 1.374 . S
C1947 C1944 1.499 . S
C1947 C1948 1.373 . S
C1947 C1949 1.389 . S
C1948 H1921 0.950 . S
C1948 C1934 1.377 1_544 S
C1948 C1947 1.373 . S
C1949 C1933 1.377 1_544 S
C1949 C1947 1.389 . S
C1949 C1950 1.524 . S
C1950 C1949 1.524 . S
C1950 C1951 1.397 . S
C1950 C1955 1.363 1_545 S
C1951 H1922 0.950 . S
C1951 C1950 1.397 . S
C1951 C1952 1.334 . S
C1952 H1923 0.950 . S
C1952 C1951 1.334 . S
C1952 C1953 1.287 . S
C1953 C1952 1.287 . S
C1953 C1954 1.524 . S
C1953 H1956 0.999 . S
C1954 H1924 0.950 1_545 S
C1954 C1953 1.524 . S
C1954 C1955 1.415 1_545 S
C1955 H1925 0.950 . S
C1955 C1950 1.363 1_565 S
C1955 C1954 1.415 1_565 S
H1956 C1953 0.999 . S
H1957 C1938 0.913 . S
H1958 C1976 0.951 . S
H1959 C1978 0.951 . S
H1960 C1980 0.950 . S
H1961 C1981 0.950 . S
H1962 C1983 0.950 . S
H1963 C1986 0.950 . S
H1964 C1987 0.950 . S
H1965 C1989 0.950 . S
H1966 C1990 0.950 . S
H1967 C1991 0.951 . S
H1968 C1993 0.951 . S
H1969 C1995 0.950 . S
H1970 C1996 0.950 . S
H1971 C1998 0.950 . S
H1972 C2001 0.950 . S
H1973 C2002 0.950 . S
H1974 C2004 0.950 . S
H1975 C2005 0.950 . S
C1976 H1958 0.951 . S
C1976 C1977 1.366 . S
C1976 C1978 1.388 . S
C1977 C1976 1.366 . S
C1977 C1981 1.385 . S
C1978 H1959 0.951 . S
C1978 C1976 1.388 . S
C1978 C1979 1.366 . S
C1979 C1978 1.366 . S
C1979 C1980 1.414 . S
C1979 C1982 1.499 . S
C1980 H1960 0.950 . S
C1980 C1979 1.414 . S
C1980 C1981 1.374 . S
C1981 H1961 0.950 . S
C1981 C1977 1.385 . S
C1981 C1980 1.374 . S
C1982 C1979 1.499 . S
C1982 C1983 1.373 . S
C1982 C1984 1.389 . S
C1983 H1962 0.950 . S
C1983 C1982 1.373 . S
C1983 C1999 1.377 . S
C1984 C1982 1.389 . S
C1984 C1985 1.524 . S
C1984 C1998 1.377 . S
C1985 C1984 1.524 . S
C1985 C1986 1.397 . S
C1985 C1990 1.363 . S
C1986 H1963 0.950 . S
C1986 C1985 1.397 . S
C1986 C1987 1.334 . S
C1987 H1964 0.950 . S
C1987 C1986 1.334 . S
C1987 C1988 1.287 . S
C1988 C1987 1.287 . S
C1988 C1989 1.524 . S
C1988 H2007 0.913 . S
C1989 H1965 0.950 . S
C1989 C1988 1.524 . S
C1989 C1990 1.415 . S
C1990 H1966 0.950 . S
C1990 C1985 1.363 . S
C1990 C1989 1.415 . S
C1991 H1967 0.951 . S
C1991 C1992 1.366 . S
C1991 C1993 1.388 . S
C1992 C1991 1.366 . S
C1992 C1996 1.385 . S
C1993 H1968 0.951 . S
C1993 C1991 1.388 . S
C1993 C1994 1.366 . S
C1994 C1993 1.366 . S
C1994 C1995 1.414 . S
C1994 C1997 1.499 . S
C1995 H1969 0.950 . S
C1995 C1994 1.414 . S
C1995 C1996 1.374 . S
C1996 H1970 0.950 . S
C1996 C1992 1.385 . S
C1996 C1995 1.374 . S
C1997 C1994 1.499 . S
C1997 C1998 1.373 . S
C1997 C1999 1.389 . S
C1998 H1971 0.950 . S
C1998 C1984 1.377 . S
C1998 C1997 1.373 . S
C1999 C1983 1.377 . S
C1999 C1997 1.389 . S
C1999 C2000 1.524 . S
C2000 C1999 1.524 . S
C2000 C2001 1.397 . S
C2000 C2005 1.363 . S
C2001 H1972 0.950 . S
C2001 C2000 1.397 . S
C2001 C2002 1.334 . S
C2002 H1973 0.950 . S
C2002 C2001 1.334 . S
C2002 C2003 1.287 . S
C2003 C2002 1.287 . S
C2003 C2004 1.524 . S
C2003 H2006 0.999 . S
C2004 H1974 0.950 . S
C2004 C2003 1.524 . S
C2004 C2005 1.415 . S
C2005 H1975 0.950 . S
C2005 C2000 1.363 . S
C2005 C2004 1.415 . S
H2006 C2003 0.999 . S
H2007 C1988 0.913 . S
H2008 C2026 0.951 . S
H2009 C2028 0.951 . S
H2010 C2030 0.950 . S
H2011 C2031 0.950 . S
H2012 C2033 0.950 . S
H2013 C2036 0.950 . S
H2014 C2037 0.950 . S
H2015 C2039 0.950 . S
H2016 C2040 0.950 . S
H2017 C2041 0.951 . S
H2018 C2043 0.951 . S
H2019 C2045 0.950 . S
H2020 C2046 0.950 . S
H2021 C2048 0.950 . S
H2022 C2051 0.950 . S
H2023 C2052 0.950 . S
H2024 C2054 0.950 . S
H2025 C2055 0.950 . S
C2026 H2008 0.951 . S
C2026 C2027 1.366 . S
C2026 C2028 1.388 . S
C2027 C2026 1.366 . S
C2027 C2031 1.385 . S
C2028 H2009 0.951 . S
C2028 C2026 1.388 . S
C2028 C2029 1.366 . S
C2029 C2028 1.366 . S
C2029 C2030 1.414 . S
C2029 C2032 1.499 . S
C2030 H2010 0.950 . S
C2030 C2029 1.414 . S
C2030 C2031 1.374 . S
C2031 H2011 0.950 . S
C2031 C2027 1.385 . S
C2031 C2030 1.374 . S
C2032 C2029 1.499 . S
C2032 C2033 1.373 1_455 S
C2032 C2034 1.389 1_556 S
C2033 H2012 0.950 . S
C2033 C2032 1.373 1_655 S
C2033 C2049 1.377 . S
C2034 C2032 1.389 1_554 S
C2034 C2035 1.524 . S
C2034 C2048 1.377 . S
C2035 C2034 1.524 . S
C2035 C2036 1.397 1_554 S
C2035 C2040 1.363 . S
C2036 H2013 0.950 . S
C2036 C2035 1.397 1_556 S
C2036 C2037 1.334 . S
C2037 H2014 0.950 . S
C2037 C2036 1.334 . S
C2037 C2038 1.287 1_556 S
C2038 C2037 1.287 1_554 S
C2038 C2039 1.524 . S
C2038 H2057 0.913 . S
C2039 H2015 0.950 . S
C2039 C2038 1.524 . S
C2039 C2040 1.415 . S
C2040 H2016 0.950 . S
C2040 C2035 1.363 . S
C2040 C2039 1.415 . S
C2041 H2017 0.951 . S
C2041 C2042 1.366 . S
C2041 C2043 1.388 . S
C2042 C2041 1.366 . S
C2042 C2046 1.385 . S
C2043 H2018 0.951 . S
C2043 C2041 1.388 . S
C2043 C2044 1.366 . S
C2044 C2043 1.366 . S
C2044 C2045 1.414 . S
C2044 C2047 1.499 . S
C2045 H2019 0.950 . S
C2045 C2044 1.414 . S
C2045 C2046 1.374 . S
C2046 H2020 0.950 . S
C2046 C2042 1.385 . S
C2046 C2045 1.374 . S
C2047 C2044 1.499 . S
C2047 C2048 1.373 1_655 S
C2047 C2049 1.389 1_554 S
C2048 H2021 0.950 . S
C2048 C2034 1.377 . S
C2048 C2047 1.373 1_455 S
C2049 C2033 1.377 . S
C2049 C2047 1.389 1_556 S
C2049 C2050 1.524 . S
C2050 C2049 1.524 . S
C2050 C2051 1.397 1_556 S
C2050 C2055 1.363 . S
C2051 H2022 0.950 . S
C2051 C2050 1.397 1_554 S
C2051 C2052 1.334 . S
C2052 H2023 0.950 . S
C2052 C2051 1.334 . S
C2052 C2053 1.287 1_554 S
C2053 C2052 1.287 1_556 S
C2053 C2054 1.524 . S
C2053 H2056 0.999 . S
C2054 H2024 0.950 . S
C2054 C2053 1.524 . S
C2054 C2055 1.415 . S
C2055 H2025 0.950 . S
C2055 C2050 1.363 . S
C2055 C2054 1.415 . S
H2056 C2053 0.999 . S
H2057 C2038 0.913 . S
H2058 C2076 0.951 . S
H2059 C2078 0.951 . S
H2060 C2080 0.950 . S
H2061 C2081 0.950 . S
H2062 C2083 0.950 . S
H2063 C2086 0.950 . S
H2064 C2087 0.950 . S
H2065 C2089 0.950 . S
H2066 C2090 0.950 . S
H2067 C2091 0.951 . S
H2068 C2093 0.951 . S
H2069 C2095 0.950 . S
H2070 C2096 0.950 . S
H2071 C2098 0.950 . S
H2072 C2101 0.950 . S
H2073 C2102 0.950 . S
H2074 C2104 0.950 . S
H2075 C2105 0.950 . S
C2076 H2058 0.951 . S
C2076 C2077 1.366 . S
C2076 C2078 1.388 . S
C2077 C2076 1.366 . S
C2077 C2081 1.385 . S
C2078 H2059 0.951 . S
C2078 C2076 1.388 . S
C2078 C2079 1.366 . S
C2079 C2078 1.366 . S
C2079 C2080 1.414 . S
C2079 C2082 1.499 . S
C2080 H2060 0.950 . S
C2080 C2079 1.414 . S
C2080 C2081 1.374 . S
C2081 H2061 0.950 . S
C2081 C2077 1.385 . S
C2081 C2080 1.374 . S
C2082 C2079 1.499 . S
C2082 C2083 1.373 . S
C2082 C2084 1.389 1_545 S
C2083 H2062 0.950 . S
C2083 C2082 1.373 . S
C2083 C2099 1.377 . S
C2084 C2082 1.389 1_565 S
C2084 C2085 1.524 . S
C2084 C2098 1.377 . S
C2085 C2084 1.524 . S
C2085 C2086 1.397 . S
C2085 C2090 1.363 . S
C2086 H2063 0.950 . S
C2086 C2085 1.397 . S
C2086 C2087 1.334 . S
C2087 H2064 0.950 . S
C2087 C2086 1.334 . S
C2087 C2088 1.287 . S
C2088 C2087 1.287 . S
C2088 C2089 1.524 . S
C2088 H2107 0.913 . S
C2089 H2065 0.950 . S
C2089 C2088 1.524 . S
C2089 C2090 1.415 . S
C2090 H2066 0.950 . S
C2090 C2085 1.363 . S
C2090 C2089 1.415 . S
C2091 H2067 0.951 . S
C2091 C2092 1.366 . S
C2091 C2093 1.388 . S
C2092 C2091 1.366 . S
C2092 C2096 1.385 . S
C2093 H2068 0.951 . S
C2093 C2091 1.388 . S
C2093 C2094 1.366 . S
C2094 C2093 1.366 . S
C2094 C2095 1.414 . S
C2094 C2097 1.499 . S
C2095 H2069 0.950 . S
C2095 C2094 1.414 . S
C2095 C2096 1.374 . S
C2096 H2070 0.950 . S
C2096 C2092 1.385 . S
C2096 C2095 1.374 . S
C2097 C2094 1.499 . S
C2097 C2098 1.373 . S
C2097 C2099 1.389 1_565 S
C2098 H2071 0.950 . S
C2098 C2084 1.377 . S
C2098 C2097 1.373 . S
C2099 C2083 1.377 . S
C2099 C2097 1.389 1_545 S
C2099 C2100 1.524 . S
C2100 C2099 1.524 . S
C2100 C2101 1.397 . S
C2100 C2105 1.363 . S
C2101 H2072 0.950 . S
C2101 C2100 1.397 . S
C2101 C2102 1.334 . S
C2102 H2073 0.950 . S
C2102 C2101 1.334 . S
C2102 C2103 1.287 . S
C2103 C2102 1.287 . S
C2103 C2104 1.524 . S
C2103 H2106 0.999 . S
C2104 H2074 0.950 . S
C2104 C2103 1.524 . S
C2104 C2105 1.415 . S
C2105 H2075 0.950 . S
C2105 C2100 1.363 . S
C2105 C2104 1.415 . S
H2106 C2103 0.999 . S
H2107 C2088 0.913 . S
H2108 C2126 0.951 . S
H2109 C2128 0.951 . S
H2110 C2130 0.950 . S
H2111 C2131 0.950 . S
H2112 C2133 0.950 . S
H2113 C2136 0.950 . S
H2114 C2137 0.950 . S
H2115 C2139 0.950 . S
H2116 C2140 0.950 . S
H2117 C2141 0.951 . S
H2118 C2143 0.951 . S
H2119 C2145 0.950 . S
H2120 C2146 0.950 . S
H2121 C2148 0.950 . S
H2122 C2151 0.950 . S
H2123 C2152 0.950 . S
H2124 C2154 0.950 . S
H2125 C2155 0.950 . S
C2126 H2108 0.951 . S
C2126 C2127 1.366 . S
C2126 C2128 1.388 . S
C2127 C2126 1.366 . S
C2127 C2131 1.385 . S
C2128 H2109 0.951 . S
C2128 C2126 1.388 . S
C2128 C2129 1.366 . S
C2129 C2128 1.366 . S
C2129 C2130 1.414 . S
C2129 C2132 1.499 . S
C2130 H2110 0.950 . S
C2130 C2129 1.414 . S
C2130 C2131 1.374 . S
C2131 H2111 0.950 . S
C2131 C2127 1.385 . S
C2131 C2130 1.374 . S
C2132 C2129 1.499 . S
C2132 C2133 1.373 . S
C2132 C2134 1.389 1_554 S
C2133 H2112 0.950 . S
C2133 C2132 1.373 . S
C2133 C2149 1.377 . S
C2134 C2132 1.389 1_556 S
C2134 C2135 1.524 . S
C2134 C2148 1.377 . S
C2135 C2134 1.524 . S
C2135 C2136 1.397 1_556 S
C2135 C2140 1.363 . S
C2136 H2113 0.950 . S
C2136 C2135 1.397 1_554 S
C2136 C2137 1.334 . S
C2137 H2114 0.950 . S
C2137 C2136 1.334 . S
C2137 C2138 1.287 1_554 S
C2138 C2137 1.287 1_556 S
C2138 C2139 1.524 . S
C2138 H2157 0.913 . S
C2139 H2115 0.950 . S
C2139 C2138 1.524 . S
C2139 C2140 1.415 . S
C2140 H2116 0.950 . S
C2140 C2135 1.363 . S
C2140 C2139 1.415 . S
C2141 H2117 0.951 . S
C2141 C2142 1.366 . S
C2141 C2143 1.388 . S
C2142 C2141 1.366 . S
C2142 C2146 1.385 . S
C2143 H2118 0.951 . S
C2143 C2141 1.388 . S
C2143 C2144 1.366 . S
C2144 C2143 1.366 . S
C2144 C2145 1.414 . S
C2144 C2147 1.499 . S
C2145 H2119 0.950 . S
C2145 C2144 1.414 . S
C2145 C2146 1.374 . S
C2146 H2120 0.950 . S
C2146 C2142 1.385 . S
C2146 C2145 1.374 . S
C2147 C2144 1.499 . S
C2147 C2148 1.373 . S
C2147 C2149 1.389 1_556 S
C2148 H2121 0.950 . S
C2148 C2134 1.377 . S
C2148 C2147 1.373 . S
C2149 C2133 1.377 . S
C2149 C2147 1.389 1_554 S
C2149 C2150 1.524 . S
C2150 C2149 1.524 . S
C2150 C2151 1.397 1_554 S
C2150 C2155 1.363 . S
C2151 H2122 0.950 . S
C2151 C2150 1.397 1_556 S
C2151 C2152 1.334 . S
C2152 H2123 0.950 . S
C2152 C2151 1.334 . S
C2152 C2153 1.287 1_556 S
C2153 C2152 1.287 1_554 S
C2153 C2154 1.524 . S
C2153 H2156 0.999 . S
C2154 H2124 0.950 . S
C2154 C2153 1.524 . S
C2154 C2155 1.415 . S
C2155 H2125 0.950 . S
C2155 C2150 1.363 . S
C2155 C2154 1.415 . S
H2156 C2153 0.999 . S
H2157 C2138 0.913 . S
H2158 C2176 0.951 . S
H2159 C2178 0.951 . S
H2160 C2180 0.950 . S
H2161 C2181 0.950 . S
H2162 C2183 0.950 . S
H2163 C2186 0.950 . S
H2164 C2187 0.950 . S
H2165 C2189 0.950 . S
H2166 C2190 0.978 . S
H2167 C2191 0.951 . S
H2168 C2193 0.951 . S
H2169 C2195 0.950 . S
H2170 C2196 0.950 . S
H2171 C2198 0.950 . S
H2172 C2201 0.950 . S
H2173 C2202 0.950 . S
H2174 C2204 0.950 . S
H2175 C2205 0.978 . S
C2176 H2158 0.951 . S
C2176 C2177 1.366 . S
C2176 C2178 1.388 . S
C2177 C2176 1.366 . S
C2177 C2181 1.385 . S
C2178 H2159 0.951 . S
C2178 C2176 1.388 . S
C2178 C2179 1.366 . S
C2179 C2178 1.366 . S
C2179 C2180 1.414 . S
C2179 C2182 1.499 . S
C2180 H2160 0.950 . S
C2180 C2179 1.414 . S
C2180 C2181 1.374 . S
C2181 H2161 0.950 . S
C2181 C2177 1.385 . S
C2181 C2180 1.374 . S
C2182 C2179 1.499 . S
C2182 C2183 1.373 . S
C2182 C2184 1.389 . S
C2183 H2162 0.950 . S
C2183 C2182 1.373 . S
C2183 C2199 1.377 1_455 S
C2184 C2182 1.389 . S
C2184 C2185 1.524 . S
C2184 C2198 1.377 1_455 S
C2185 C2184 1.524 . S
C2185 C2186 1.397 . S
C2185 C2190 1.363 . S
C2186 H2163 0.950 . S
C2186 C2185 1.397 . S
C2186 C2187 1.334 . S
C2187 H2164 0.950 . S
C2187 C2186 1.334 . S
C2187 C2188 1.287 . S
C2188 C2187 1.287 . S
C2188 C2189 1.524 . S
C2188 H2207 0.913 . S
C2189 H2165 0.950 . S
C2189 C2188 1.524 . S
C2189 C2190 1.415 . S
C2190 H2166 0.978 . S
C2190 C2185 1.363 . S
C2190 C2189 1.415 . S
C2191 H2167 0.951 . S
C2191 C2192 1.366 . S
C2191 C2193 1.388 . S
C2192 C2191 1.366 . S
C2192 C2196 1.385 . S
C2193 H2168 0.951 . S
C2193 C2191 1.388 . S
C2193 C2194 1.366 . S
C2194 C2193 1.366 . S
C2194 C2195 1.414 . S
C2194 C2197 1.499 . S
C2195 H2169 0.950 . S
C2195 C2194 1.414 . S
C2195 C2196 1.374 . S
C2196 H2170 0.950 . S
C2196 C2192 1.385 . S
C2196 C2195 1.374 . S
C2197 C2194 1.499 . S
C2197 C2198 1.373 . S
C2197 C2199 1.389 . S
C2198 H2171 0.950 . S
C2198 C2184 1.377 1_655 S
C2198 C2197 1.373 . S
C2199 C2183 1.377 1_655 S
C2199 C2197 1.389 . S
C2199 C2200 1.524 . S
C2200 C2199 1.524 . S
C2200 C2201 1.397 . S
C2200 C2205 1.363 . S
C2201 H2172 0.950 . S
C2201 C2200 1.397 . S
C2201 C2202 1.334 . S
C2202 H2173 0.950 . S
C2202 C2201 1.334 . S
C2202 C2203 1.287 . S
C2203 C2202 1.287 . S
C2203 C2204 1.524 . S
C2203 H2206 0.999 . S
C2204 H2174 0.950 . S
C2204 C2203 1.524 . S
C2204 C2205 1.415 . S
C2205 H2175 0.978 . S
C2205 C2200 1.363 . S
C2205 C2204 1.415 . S
H2206 C2203 0.999 . S
H2207 C2188 0.913 . S
H2208 C2226 0.951 . S
H2209 C2228 0.951 . S
H2210 C2230 0.950 . S
H2211 C2231 0.950 . S
H2212 C2233 0.950 . S
H2213 C2236 0.950 . S
H2214 C2237 0.950 . S
H2215 C2239 0.950 . S
H2216 C2240 0.950 . S
H2217 C2241 0.951 . S
H2218 C2243 0.951 . S
H2219 C2245 0.950 . S
H2220 C2246 0.950 . S
H2221 C2248 0.950 . S
H2222 C2251 0.950 . S
H2223 C2252 0.950 . S
H2224 C2254 0.950 . S
H2225 C2255 0.950 . S
C2226 H2208 0.951 . S
C2226 C2227 1.366 . S
C2226 C2228 1.388 . S
C2227 C2226 1.366 . S
C2227 C2231 1.385 . S
C2228 H2209 0.951 . S
C2228 C2226 1.388 . S
C2228 C2229 1.366 . S
C2229 C2228 1.366 . S
C2229 C2230 1.414 . S
C2229 C2232 1.499 . S
C2230 H2210 0.950 . S
C2230 C2229 1.414 . S
C2230 C2231 1.374 . S
C2231 H2211 0.950 . S
C2231 C2227 1.385 . S
C2231 C2230 1.374 . S
C2232 C2229 1.499 . S
C2232 C2233 1.373 . S
C2232 C2234 1.389 . S
C2233 H2212 0.950 . S
C2233 C2232 1.373 . S
C2233 C2249 1.377 . S
C2234 C2232 1.389 . S
C2234 C2235 1.524 . S
C2234 C2248 1.377 . S
C2235 C2234 1.524 . S
C2235 C2236 1.397 . S
C2235 C2240 1.363 . S
C2236 H2213 0.950 . S
C2236 C2235 1.397 . S
C2236 C2237 1.334 . S
C2237 H2214 0.950 . S
C2237 C2236 1.334 . S
C2237 C2238 1.287 . S
C2238 C2237 1.287 . S
C2238 C2239 1.524 . S
C2238 H2257 0.913 . S
C2239 H2215 0.950 . S
C2239 C2238 1.524 . S
C2239 C2240 1.415 . S
C2240 H2216 0.950 . S
C2240 C2235 1.363 . S
C2240 C2239 1.415 . S
C2241 H2217 0.951 . S
C2241 C2242 1.366 . S
C2241 C2243 1.388 . S
C2242 C2241 1.366 . S
C2242 C2246 1.385 . S
C2243 H2218 0.951 . S
C2243 C2241 1.388 . S
C2243 C2244 1.366 . S
C2244 C2243 1.366 . S
C2244 C2245 1.414 . S
C2244 C2247 1.499 . S
C2245 H2219 0.950 . S
C2245 C2244 1.414 . S
C2245 C2246 1.374 . S
C2246 H2220 0.950 . S
C2246 C2242 1.385 . S
C2246 C2245 1.374 . S
C2247 C2244 1.499 . S
C2247 C2248 1.373 . S
C2247 C2249 1.389 . S
C2248 H2221 0.950 . S
C2248 C2234 1.377 . S
C2248 C2247 1.373 . S
C2249 C2233 1.377 . S
C2249 C2247 1.389 . S
C2249 C2250 1.524 . S
C2250 C2249 1.524 . S
C2250 C2251 1.397 . S
C2250 C2255 1.363 . S
C2251 H2222 0.950 . S
C2251 C2250 1.397 . S
C2251 C2252 1.334 . S
C2252 H2223 0.950 . S
C2252 C2251 1.334 . S
C2252 C2253 1.287 . S
C2253 C2252 1.287 . S
C2253 C2254 1.524 . S
C2253 H2256 0.999 . S
C2254 H2224 0.950 . S
C2254 C2253 1.524 . S
C2254 C2255 1.415 . S
C2255 H2225 0.950 . S
C2255 C2250 1.363 . S
C2255 C2254 1.415 . S
H2256 C2253 0.999 . S
H2257 C2238 0.913 . S
H2258 C2276 0.951 . S
H2259 C2278 0.951 . S
H2260 C2280 0.950 . S
H2261 C2281 0.950 . S
H2262 C2283 0.950 . S
H2263 C2286 0.950 . S
H2264 C2287 0.950 . S
H2265 C2289 0.950 . S
H2266 C2290 0.950 . S
H2267 C2291 0.951 . S
H2268 C2293 0.951 . S
H2269 C2295 0.950 . S
H2270 C2296 0.950 . S
H2271 C2298 0.950 . S
H2272 C2301 0.950 . S
H2273 C2302 0.950 . S
H2274 C2304 0.950 . S
H2275 C2305 0.950 . S
C2276 H2258 0.951 . S
C2276 C2277 1.366 . S
C2276 C2278 1.388 . S
C2277 C2276 1.366 . S
C2277 C2281 1.385 . S
C2278 H2259 0.951 . S
C2278 C2276 1.388 . S
C2278 C2279 1.366 . S
C2279 C2278 1.366 . S
C2279 C2280 1.414 . S
C2279 C2282 1.499 . S
C2280 H2260 0.950 . S
C2280 C2279 1.414 . S
C2280 C2281 1.374 . S
C2281 H2261 0.950 . S
C2281 C2277 1.385 . S
C2281 C2280 1.374 . S
C2282 C2279 1.499 . S
C2282 C2283 1.373 . S
C2282 C2284 1.389 . S
C2283 H2262 0.950 . S
C2283 C2282 1.373 . S
C2283 C2299 1.377 . S
C2284 C2282 1.389 . S
C2284 C2285 1.524 . S
C2284 C2298 1.377 . S
C2285 C2284 1.524 . S
C2285 C2286 1.397 . S
C2285 C2290 1.363 . S
C2286 H2263 0.950 . S
C2286 C2285 1.397 . S
C2286 C2287 1.334 . S
C2287 H2264 0.950 . S
C2287 C2286 1.334 . S
C2287 C2288 1.287 . S
C2288 C2287 1.287 . S
C2288 C2289 1.524 . S
C2288 H2307 0.913 . S
C2289 H2265 0.950 . S
C2289 C2288 1.524 . S
C2289 C2290 1.415 . S
C2290 H2266 0.950 . S
C2290 C2285 1.363 . S
C2290 C2289 1.415 . S
C2291 H2267 0.951 . S
C2291 C2292 1.366 . S
C2291 C2293 1.388 . S
C2292 C2291 1.366 . S
C2292 C2296 1.385 . S
C2293 H2268 0.951 . S
C2293 C2291 1.388 . S
C2293 C2294 1.366 . S
C2294 C2293 1.366 . S
C2294 C2295 1.414 . S
C2294 C2297 1.499 . S
C2295 H2269 0.950 . S
C2295 C2294 1.414 . S
C2295 C2296 1.374 . S
C2296 H2270 0.950 . S
C2296 C2292 1.385 . S
C2296 C2295 1.374 . S
C2297 C2294 1.499 . S
C2297 C2298 1.373 . S
C2297 C2299 1.389 . S
C2298 H2271 0.950 . S
C2298 C2284 1.377 . S
C2298 C2297 1.373 . S
C2299 C2283 1.377 . S
C2299 C2297 1.389 . S
C2299 C2300 1.524 . S
C2300 C2299 1.524 . S
C2300 C2301 1.397 . S
C2300 C2305 1.363 . S
C2301 H2272 0.950 . S
C2301 C2300 1.397 . S
C2301 C2302 1.334 . S
C2302 H2273 0.950 . S
C2302 C2301 1.334 . S
C2302 C2303 1.287 . S
C2303 C2302 1.287 . S
C2303 C2304 1.524 . S
C2303 H2306 0.999 . S
C2304 H2274 0.950 . S
C2304 C2303 1.524 . S
C2304 C2305 1.415 . S
C2305 H2275 0.950 . S
C2305 C2300 1.363 . S
C2305 C2304 1.415 . S
H2306 C2303 0.999 . S
H2307 C2288 0.913 . S
H2308 C2326 0.951 . S
H2309 C2328 0.951 . S
H2310 C2330 0.950 . S
H2311 C2331 0.950 . S
H2312 C2333 0.950 . S
H2313 C2336 0.950 . S
H2314 C2337 0.950 . S
H2315 C2339 0.950 . S
H2316 C2340 0.950 . S
H2317 C2341 0.951 . S
H2318 C2343 0.951 . S
H2319 C2345 0.950 . S
H2320 C2346 0.950 . S
H2321 C2348 0.950 . S
H2322 C2351 0.950 . S
H2323 C2352 0.950 . S
H2324 C2354 0.950 . S
H2325 C2355 0.950 . S
C2326 H2308 0.951 . S
C2326 C2327 1.366 . S
C2326 C2328 1.388 . S
C2327 C2326 1.366 . S
C2327 C2331 1.385 . S
C2328 H2309 0.951 . S
C2328 C2326 1.388 . S
C2328 C2329 1.366 . S
C2329 C2328 1.366 . S
C2329 C2330 1.414 . S
C2329 C2332 1.499 . S
C2330 H2310 0.950 . S
C2330 C2329 1.414 . S
C2330 C2331 1.374 . S
C2331 H2311 0.950 . S
C2331 C2327 1.385 . S
C2331 C2330 1.374 . S
C2332 C2329 1.499 . S
C2332 C2333 1.373 . S
C2332 C2334 1.389 . S
C2333 H2312 0.950 . S
C2333 C2332 1.373 . S
C2333 C2349 1.377 . S
C2334 C2332 1.389 . S
C2334 C2335 1.524 . S
C2334 C2348 1.377 . S
C2335 C2334 1.524 . S
C2335 C2336 1.397 . S
C2335 C2340 1.363 . S
C2336 H2313 0.950 . S
C2336 C2335 1.397 . S
C2336 C2337 1.334 . S
C2337 H2314 0.950 . S
C2337 C2336 1.334 . S
C2337 C2338 1.287 . S
C2338 C2337 1.287 . S
C2338 C2339 1.524 . S
C2338 H2357 0.913 . S
C2339 H2315 0.950 . S
C2339 C2338 1.524 . S
C2339 C2340 1.415 . S
C2340 H2316 0.950 . S
C2340 C2335 1.363 . S
C2340 C2339 1.415 . S
C2341 H2317 0.951 . S
C2341 C2342 1.366 . S
C2341 C2343 1.388 . S
C2342 C2341 1.366 . S
C2342 C2346 1.385 . S
C2343 H2318 0.951 . S
C2343 C2341 1.388 . S
C2343 C2344 1.366 . S
C2344 C2343 1.366 . S
C2344 C2345 1.414 . S
C2344 C2347 1.499 . S
C2345 H2319 0.950 . S
C2345 C2344 1.414 . S
C2345 C2346 1.374 . S
C2346 H2320 0.950 . S
C2346 C2342 1.385 . S
C2346 C2345 1.374 . S
C2347 C2344 1.499 . S
C2347 C2348 1.373 . S
C2347 C2349 1.389 . S
C2348 H2321 0.950 . S
C2348 C2334 1.377 . S
C2348 C2347 1.373 . S
C2349 C2333 1.377 . S
C2349 C2347 1.389 . S
C2349 C2350 1.524 . S
C2350 C2349 1.524 . S
C2350 C2351 1.397 . S
C2350 C2355 1.363 . S
C2351 H2322 0.950 . S
C2351 C2350 1.397 . S
C2351 C2352 1.334 . S
C2352 H2323 0.950 . S
C2352 C2351 1.334 . S
C2352 C2353 1.287 . S
C2353 C2352 1.287 . S
C2353 C2354 1.524 . S
C2353 H2356 0.999 . S
C2354 H2324 0.950 . S
C2354 C2353 1.524 . S
C2354 C2355 1.415 . S
C2355 H2325 0.950 . S
C2355 C2350 1.363 . S
C2355 C2354 1.415 . S
H2356 C2353 0.999 . S
H2357 C2338 0.913 . S
H2358 C2376 0.951 . S
H2359 C2378 0.951 . S
H2360 C2380 0.950 . S
H2361 C2381 0.950 . S
H2362 C2383 0.950 . S
H2363 C2386 0.950 . S
H2364 C2387 0.950 . S
H2365 C2389 0.950 . S
H2366 C2390 0.950 . S
H2367 C2391 0.951 . S
H2368 C2393 0.951 . S
H2369 C2395 0.950 . S
H2370 C2396 0.950 . S
H2371 C2398 0.950 . S
H2372 C2401 0.950 . S
H2373 C2402 0.950 . S
H2374 C2404 0.950 . S
H2375 C2405 0.950 . S
C2376 H2358 0.951 . S
C2376 C2377 1.366 . S
C2376 C2378 1.388 . S
C2377 C2376 1.366 . S
C2377 C2381 1.385 . S
C2378 H2359 0.951 . S
C2378 C2376 1.388 . S
C2378 C2379 1.366 . S
C2379 C2378 1.366 . S
C2379 C2380 1.414 . S
C2379 C2382 1.499 . S
C2380 H2360 0.950 . S
C2380 C2379 1.414 . S
C2380 C2381 1.374 . S
C2381 H2361 0.950 . S
C2381 C2377 1.385 . S
C2381 C2380 1.374 . S
C2382 C2379 1.499 . S
C2382 C2383 1.373 . S
C2382 C2384 1.389 . S
C2383 H2362 0.950 . S
C2383 C2382 1.373 . S
C2383 C2399 1.377 . S
C2384 C2382 1.389 . S
C2384 C2385 1.524 . S
C2384 C2398 1.377 . S
C2385 C2384 1.524 . S
C2385 C2386 1.397 . S
C2385 C2390 1.363 . S
C2386 H2363 0.950 . S
C2386 C2385 1.397 . S
C2386 C2387 1.334 . S
C2387 H2364 0.950 . S
C2387 C2386 1.334 . S
C2387 C2388 1.287 . S
C2388 C2387 1.287 . S
C2388 C2389 1.524 . S
C2388 H2407 0.913 . S
C2389 H2365 0.950 . S
C2389 C2388 1.524 . S
C2389 C2390 1.415 . S
C2390 H2366 0.950 . S
C2390 C2385 1.363 . S
C2390 C2389 1.415 . S
C2391 H2367 0.951 . S
C2391 C2392 1.366 . S
C2391 C2393 1.388 . S
C2392 C2391 1.366 . S
C2392 C2396 1.385 . S
C2393 H2368 0.951 . S
C2393 C2391 1.388 . S
C2393 C2394 1.366 . S
C2394 C2393 1.366 . S
C2394 C2395 1.414 . S
C2394 C2397 1.499 . S
C2395 H2369 0.950 . S
C2395 C2394 1.414 . S
C2395 C2396 1.374 . S
C2396 H2370 0.950 . S
C2396 C2392 1.385 . S
C2396 C2395 1.374 . S
C2397 C2394 1.499 . S
C2397 C2398 1.373 . S
C2397 C2399 1.389 . S
C2398 H2371 0.950 . S
C2398 C2384 1.377 . S
C2398 C2397 1.373 . S
C2399 C2383 1.377 . S
C2399 C2397 1.389 . S
C2399 C2400 1.524 . S
C2400 C2399 1.524 . S
C2400 C2401 1.397 . S
C2400 C2405 1.363 . S
C2401 H2372 0.950 . S
C2401 C2400 1.397 . S
C2401 C2402 1.334 . S
C2402 H2373 0.950 . S
C2402 C2401 1.334 . S
C2402 C2403 1.287 . S
C2403 C2402 1.287 . S
C2403 C2404 1.524 . S
C2403 H2406 0.999 . S
C2404 H2374 0.950 . S
C2404 C2403 1.524 . S
C2404 C2405 1.415 . S
C2405 H2375 0.950 . S
C2405 C2400 1.363 . S
C2405 C2404 1.415 . S
H2406 C2403 0.999 . S
H2407 C2388 0.913 . S
H2408 C2426 0.951 . S
H2409 C2428 0.951 . S
H2410 C2430 0.950 . S
H2411 C2431 0.950 . S
H2412 C2433 0.950 . S
H2413 C2436 0.950 . S
H2414 C2437 0.950 . S
H2415 C2439 0.950 . S
H2416 C2440 0.950 . S
H2417 C2441 0.951 . S
H2418 C2443 0.951 . S
H2419 C2445 0.950 . S
H2420 C2446 0.950 . S
H2421 C2448 0.950 . S
H2422 C2451 0.950 . S
H2423 C2452 0.950 . S
H2424 C2454 0.950 . S
H2425 C2455 0.950 . S
C2426 H2408 0.951 . S
C2426 C2427 1.366 . S
C2426 C2428 1.388 . S
C2427 C2426 1.366 . S
C2427 C2431 1.385 . S
C2428 H2409 0.951 . S
C2428 C2426 1.388 . S
C2428 C2429 1.366 . S
C2429 C2428 1.366 . S
C2429 C2430 1.414 . S
C2429 C2432 1.499 . S
C2430 H2410 0.950 . S
C2430 C2429 1.414 . S
C2430 C2431 1.374 . S
C2431 H2411 0.950 . S
C2431 C2427 1.385 . S
C2431 C2430 1.374 . S
C2432 C2429 1.499 . S
C2432 C2433 1.373 . S
C2432 C2434 1.389 . S
C2433 H2412 0.950 . S
C2433 C2432 1.373 . S
C2433 C2449 1.377 . S
C2434 C2432 1.389 . S
C2434 C2435 1.524 . S
C2434 C2448 1.377 . S
C2435 C2434 1.524 . S
C2435 C2436 1.397 . S
C2435 C2440 1.363 . S
C2436 H2413 0.950 . S
C2436 C2435 1.397 . S
C2436 C2437 1.334 . S
C2437 H2414 0.950 . S
C2437 C2436 1.334 . S
C2437 C2438 1.287 . S
C2438 C2437 1.287 . S
C2438 C2439 1.524 . S
C2438 H2457 0.913 . S
C2439 H2415 0.950 . S
C2439 C2438 1.524 . S
C2439 C2440 1.415 . S
C2440 H2416 0.950 . S
C2440 C2435 1.363 . S
C2440 C2439 1.415 . S
C2441 H2417 0.951 . S
C2441 C2442 1.366 . S
C2441 C2443 1.388 . S
C2442 C2441 1.366 . S
C2442 C2446 1.385 . S
C2443 H2418 0.951 . S
C2443 C2441 1.388 . S
C2443 C2444 1.366 . S
C2444 C2443 1.366 . S
C2444 C2445 1.414 . S
C2444 C2447 1.499 . S
C2445 H2419 0.950 . S
C2445 C2444 1.414 . S
C2445 C2446 1.374 . S
C2446 H2420 0.950 . S
C2446 C2442 1.385 . S
C2446 C2445 1.374 . S
C2447 C2444 1.499 . S
C2447 C2448 1.373 . S
C2447 C2449 1.389 . S
C2448 H2421 0.950 . S
C2448 C2434 1.377 . S
C2448 C2447 1.373 . S
C2449 C2433 1.377 . S
C2449 C2447 1.389 . S
C2449 C2450 1.524 . S
C2450 C2449 1.524 . S
C2450 C2451 1.397 . S
C2450 C2455 1.363 . S
C2451 H2422 0.950 . S
C2451 C2450 1.397 . S
C2451 C2452 1.334 . S
C2452 H2423 0.950 . S
C2452 C2451 1.334 . S
C2452 C2453 1.287 . S
C2453 C2452 1.287 . S
C2453 C2454 1.524 . S
C2453 H2456 0.999 . S
C2454 H2424 0.950 . S
C2454 C2453 1.524 . S
C2454 C2455 1.415 . S
C2455 H2425 0.950 . S
C2455 C2450 1.363 . S
C2455 C2454 1.415 . S
H2456 C2453 0.999 . S
H2457 C2438 0.913 . S
H2458 C2476 0.951 . S
H2459 C2478 0.951 . S
H2460 C2480 0.950 . S
H2461 C2481 0.950 . S
H2462 C2483 0.950 . S
H2463 C2486 0.950 . S
H2464 C2487 0.950 . S
H2465 C2489 0.950 . S
H2466 C2490 0.950 . S
H2467 C2491 0.951 . S
H2468 C2493 0.951 . S
H2469 C2495 0.950 . S
H2470 C2496 0.950 . S
H2471 C2498 0.950 . S
H2472 C2501 0.950 . S
H2473 C2502 0.950 . S
H2474 C2504 0.950 . S
H2475 C2505 0.950 . S
C2476 H2458 0.951 . S
C2476 C2477 1.366 . S
C2476 C2478 1.388 . S
C2477 C2476 1.366 . S
C2477 C2481 1.385 . S
C2478 H2459 0.951 . S
C2478 C2476 1.388 . S
C2478 C2479 1.366 . S
C2479 C2478 1.366 . S
C2479 C2480 1.414 . S
C2479 C2482 1.499 . S
C2480 H2460 0.950 . S
C2480 C2479 1.414 . S
C2480 C2481 1.374 . S
C2481 H2461 0.950 . S
C2481 C2477 1.385 . S
C2481 C2480 1.374 . S
C2482 C2479 1.499 . S
C2482 C2483 1.373 . S
C2482 C2484 1.389 . S
C2483 H2462 0.950 . S
C2483 C2482 1.373 . S
C2483 C2499 1.377 . S
C2484 C2482 1.389 . S
C2484 C2485 1.524 . S
C2484 C2498 1.377 . S
C2485 C2484 1.524 . S
C2485 C2486 1.397 . S
C2485 C2490 1.363 . S
C2486 H2463 0.950 . S
C2486 C2485 1.397 . S
C2486 C2487 1.334 . S
C2487 H2464 0.950 . S
C2487 C2486 1.334 . S
C2487 C2488 1.287 . S
C2488 C2487 1.287 . S
C2488 C2489 1.524 . S
C2488 H2507 0.913 . S
C2489 H2465 0.950 . S
C2489 C2488 1.524 . S
C2489 C2490 1.415 . S
C2490 H2466 0.950 . S
C2490 C2485 1.363 . S
C2490 C2489 1.415 . S
C2491 H2467 0.951 . S
C2491 C2492 1.366 . S
C2491 C2493 1.388 . S
C2492 C2491 1.366 . S
C2492 C2496 1.385 . S
C2493 H2468 0.951 . S
C2493 C2491 1.388 . S
C2493 C2494 1.366 . S
C2494 C2493 1.366 . S
C2494 C2495 1.414 . S
C2494 C2497 1.499 . S
C2495 H2469 0.950 . S
C2495 C2494 1.414 . S
C2495 C2496 1.374 . S
C2496 H2470 0.950 . S
C2496 C2492 1.385 . S
C2496 C2495 1.374 . S
C2497 C2494 1.499 . S
C2497 C2498 1.373 . S
C2497 C2499 1.389 . S
C2498 H2471 0.950 . S
C2498 C2484 1.377 . S
C2498 C2497 1.373 . S
C2499 C2483 1.377 . S
C2499 C2497 1.389 . S
C2499 C2500 1.524 . S
C2500 C2499 1.524 . S
C2500 C2501 1.397 . S
C2500 C2505 1.363 . S
C2501 H2472 0.950 . S
C2501 C2500 1.397 . S
C2501 C2502 1.334 . S
C2502 H2473 0.950 . S
C2502 C2501 1.334 . S
C2502 C2503 1.287 . S
C2503 C2502 1.287 . S
C2503 C2504 1.524 . S
C2503 H2506 0.999 . S
C2504 H2474 0.950 . S
C2504 C2503 1.524 . S
C2504 C2505 1.415 . S
C2505 H2475 0.950 . S
C2505 C2500 1.363 . S
C2505 C2504 1.415 . S
H2506 C2503 0.999 . S
H2507 C2488 0.913 . S
H2508 C2526 0.951 . S
H2509 C2528 0.951 . S
H2510 C2530 0.950 . S
H2511 C2531 0.950 . S
H2512 C2533 0.950 . S
H2513 C2536 0.950 . S
H2514 C2537 0.950 . S
H2515 C2539 0.950 . S
H2516 C2540 0.950 . S
H2517 C2541 0.951 . S
H2518 C2543 0.951 . S
H2519 C2545 0.950 . S
H2520 C2546 0.950 . S
H2521 C2548 0.950 . S
H2522 C2551 0.950 . S
H2523 C2552 0.950 . S
H2524 C2554 0.950 . S
H2525 C2555 0.950 . S
C2526 H2508 0.951 . S
C2526 C2527 1.366 . S
C2526 C2528 1.388 . S
C2527 C2526 1.366 . S
C2527 C2531 1.385 . S
C2528 H2509 0.951 . S
C2528 C2526 1.388 . S
C2528 C2529 1.366 . S
C2529 C2528 1.366 . S
C2529 C2530 1.414 . S
C2529 C2532 1.499 . S
C2530 H2510 0.950 . S
C2530 C2529 1.414 . S
C2530 C2531 1.374 . S
C2531 H2511 0.950 . S
C2531 C2527 1.385 . S
C2531 C2530 1.374 . S
C2532 C2529 1.499 . S
C2532 C2533 1.373 . S
C2532 C2534 1.389 . S
C2533 H2512 0.950 . S
C2533 C2532 1.373 . S
C2533 C2549 1.377 . S
C2534 C2532 1.389 . S
C2534 C2535 1.524 . S
C2534 C2548 1.377 . S
C2535 C2534 1.524 . S
C2535 C2536 1.397 . S
C2535 C2540 1.363 . S
C2536 H2513 0.950 . S
C2536 C2535 1.397 . S
C2536 C2537 1.334 . S
C2537 H2514 0.950 . S
C2537 C2536 1.334 . S
C2537 C2538 1.287 . S
C2538 C2537 1.287 . S
C2538 C2539 1.524 . S
C2538 H2557 0.913 . S
C2539 H2515 0.950 . S
C2539 C2538 1.524 . S
C2539 C2540 1.415 . S
C2540 H2516 0.950 . S
C2540 C2535 1.363 . S
C2540 C2539 1.415 . S
C2541 H2517 0.951 . S
C2541 C2542 1.366 . S
C2541 C2543 1.388 . S
C2542 C2541 1.366 . S
C2542 C2546 1.385 . S
C2543 H2518 0.951 . S
C2543 C2541 1.388 . S
C2543 C2544 1.366 . S
C2544 C2543 1.366 . S
C2544 C2545 1.414 . S
C2544 C2547 1.499 . S
C2545 H2519 0.950 . S
C2545 C2544 1.414 . S
C2545 C2546 1.374 . S
C2546 H2520 0.950 . S
C2546 C2542 1.385 . S
C2546 C2545 1.374 . S
C2547 C2544 1.499 . S
C2547 C2548 1.373 . S
C2547 C2549 1.389 . S
C2548 H2521 0.950 . S
C2548 C2534 1.377 . S
C2548 C2547 1.373 . S
C2549 C2533 1.377 . S
C2549 C2547 1.389 . S
C2549 C2550 1.524 . S
C2550 C2549 1.524 . S
C2550 C2551 1.397 . S
C2550 C2555 1.363 . S
C2551 H2522 0.950 . S
C2551 C2550 1.397 . S
C2551 C2552 1.334 . S
C2552 H2523 0.950 . S
C2552 C2551 1.334 . S
C2552 C2553 1.287 . S
C2553 C2552 1.287 . S
C2553 C2554 1.524 . S
C2553 H2556 0.999 . S
C2554 H2524 0.950 . S
C2554 C2553 1.524 . S
C2554 C2555 1.415 . S
C2555 H2525 0.950 . S
C2555 C2550 1.363 . S
C2555 C2554 1.415 . S
H2556 C2553 0.999 . S
H2557 C2538 0.913 . S
H2558 C2576 0.951 . S
H2559 C2578 0.951 . S
H2560 C2580 0.950 . S
H2561 C2581 0.950 . S
H2562 C2583 0.950 . S
H2563 C2586 0.950 . S
H2564 C2587 0.950 . S
H2565 C2589 0.950 . S
H2566 C2590 0.950 . S
H2567 C2591 0.951 . S
H2568 C2593 0.951 . S
H2569 C2595 0.950 . S
H2570 C2596 0.950 . S
H2571 C2598 0.950 . S
H2572 C2601 0.950 . S
H2573 C2602 0.950 . S
H2574 C2604 0.950 . S
H2575 C2605 0.950 . S
C2576 H2558 0.951 . S
C2576 C2577 1.366 . S
C2576 C2578 1.388 . S
C2577 C2576 1.366 . S
C2577 C2581 1.385 . S
C2578 H2559 0.951 . S
C2578 C2576 1.388 . S
C2578 C2579 1.366 . S
C2579 C2578 1.366 . S
C2579 C2580 1.414 . S
C2579 C2582 1.499 . S
C2580 H2560 0.950 . S
C2580 C2579 1.414 . S
C2580 C2581 1.374 . S
C2581 H2561 0.950 . S
C2581 C2577 1.385 . S
C2581 C2580 1.374 . S
C2582 C2579 1.499 . S
C2582 C2583 1.373 . S
C2582 C2584 1.389 . S
C2583 H2562 0.950 . S
C2583 C2582 1.373 . S
C2583 C2599 1.377 . S
C2584 C2582 1.389 . S
C2584 C2585 1.524 . S
C2584 C2598 1.377 . S
C2585 C2584 1.524 . S
C2585 C2586 1.397 . S
C2585 C2590 1.363 . S
C2586 H2563 0.950 . S
C2586 C2585 1.397 . S
C2586 C2587 1.334 . S
C2587 H2564 0.950 . S
C2587 C2586 1.334 . S
C2587 C2588 1.287 . S
C2588 C2587 1.287 . S
C2588 C2589 1.524 . S
C2588 H2607 0.913 . S
C2589 H2565 0.950 . S
C2589 C2588 1.524 . S
C2589 C2590 1.415 . S
C2590 H2566 0.950 . S
C2590 C2585 1.363 . S
C2590 C2589 1.415 . S
C2591 H2567 0.951 . S
C2591 C2592 1.366 . S
C2591 C2593 1.388 . S
C2592 C2591 1.366 . S
C2592 C2596 1.385 . S
C2593 H2568 0.951 . S
C2593 C2591 1.388 . S
C2593 C2594 1.366 . S
C2594 C2593 1.366 . S
C2594 C2595 1.414 . S
C2594 C2597 1.499 . S
C2595 H2569 0.950 . S
C2595 C2594 1.414 . S
C2595 C2596 1.374 . S
C2596 H2570 0.950 . S
C2596 C2592 1.385 . S
C2596 C2595 1.374 . S
C2597 C2594 1.499 . S
C2597 C2598 1.373 . S
C2597 C2599 1.389 . S
C2598 H2571 0.950 . S
C2598 C2584 1.377 . S
C2598 C2597 1.373 . S
C2599 C2583 1.377 . S
C2599 C2597 1.389 . S
C2599 C2600 1.524 . S
C2600 C2599 1.524 . S
C2600 C2601 1.397 . S
C2600 C2605 1.363 . S
C2601 H2572 0.950 . S
C2601 C2600 1.397 . S
C2601 C2602 1.334 . S
C2602 H2573 0.950 . S
C2602 C2601 1.334 . S
C2602 C2603 1.287 . S
C2603 C2602 1.287 . S
C2603 C2604 1.524 . S
C2603 H2606 0.999 . S
C2604 H2574 0.950 . S
C2604 C2603 1.524 . S
C2604 C2605 1.415 . S
C2605 H2575 0.950 . S
C2605 C2600 1.363 . S
C2605 C2604 1.415 . S
H2606 C2603 0.999 . S
H2607 C2588 0.913 . S
H2608 C2626 0.951 . S
H2609 C2628 0.951 . S
H2610 C2630 0.950 . S
H2611 C2631 0.950 . S
H2612 C2633 0.950 . S
H2613 C2636 0.950 . S
H2614 C2637 0.950 . S
H2615 C2639 0.950 . S
H2616 C2640 0.950 . S
H2617 C2641 0.951 . S
H2618 C2643 0.951 . S
H2619 C2645 0.950 . S
H2620 C2646 0.950 . S
H2621 C2648 0.950 . S
H2622 C2651 0.950 . S
H2623 C2652 0.950 . S
H2624 C2654 0.950 . S
H2625 C2655 0.950 . S
C2626 H2608 0.951 . S
C2626 C2627 1.366 . S
C2626 C2628 1.388 . S
C2627 C2626 1.366 . S
C2627 C2631 1.385 . S
C2628 H2609 0.951 . S
C2628 C2626 1.388 . S
C2628 C2629 1.366 . S
C2629 C2628 1.366 . S
C2629 C2630 1.414 . S
C2629 C2632 1.499 . S
C2630 H2610 0.950 . S
C2630 C2629 1.414 . S
C2630 C2631 1.374 . S
C2631 H2611 0.950 . S
C2631 C2627 1.385 . S
C2631 C2630 1.374 . S
C2632 C2629 1.499 . S
C2632 C2633 1.373 . S
C2632 C2634 1.389 . S
C2633 H2612 0.950 . S
C2633 C2632 1.373 . S
C2633 C2649 1.377 . S
C2634 C2632 1.389 . S
C2634 C2635 1.524 . S
C2634 C2648 1.377 . S
C2635 C2634 1.524 . S
C2635 C2636 1.397 . S
C2635 C2640 1.363 . S
C2636 H2613 0.950 . S
C2636 C2635 1.397 . S
C2636 C2637 1.334 . S
C2637 H2614 0.950 . S
C2637 C2636 1.334 . S
C2637 C2638 1.287 . S
C2638 C2637 1.287 . S
C2638 C2639 1.524 . S
C2638 H2657 0.913 . S
C2639 H2615 0.950 . S
C2639 C2638 1.524 . S
C2639 C2640 1.415 . S
C2640 H2616 0.950 . S
C2640 C2635 1.363 . S
C2640 C2639 1.415 . S
C2641 H2617 0.951 . S
C2641 C2642 1.366 . S
C2641 C2643 1.388 . S
C2642 C2641 1.366 . S
C2642 C2646 1.385 . S
C2643 H2618 0.951 . S
C2643 C2641 1.388 . S
C2643 C2644 1.366 . S
C2644 C2643 1.366 . S
C2644 C2645 1.414 . S
C2644 C2647 1.499 . S
C2645 H2619 0.950 . S
C2645 C2644 1.414 . S
C2645 C2646 1.374 . S
C2646 H2620 0.950 . S
C2646 C2642 1.385 . S
C2646 C2645 1.374 . S
C2647 C2644 1.499 . S
C2647 C2648 1.373 . S
C2647 C2649 1.389 . S
C2648 H2621 0.950 . S
C2648 C2634 1.377 . S
C2648 C2647 1.373 . S
C2649 C2633 1.377 . S
C2649 C2647 1.389 . S
C2649 C2650 1.524 . S
C2650 C2649 1.524 . S
C2650 C2651 1.397 . S
C2650 C2655 1.363 . S
C2651 H2622 0.950 . S
C2651 C2650 1.397 . S
C2651 C2652 1.334 . S
C2652 H2623 0.950 . S
C2652 C2651 1.334 . S
C2652 C2653 1.287 . S
C2653 C2652 1.287 . S
C2653 C2654 1.524 . S
C2653 H2656 0.999 . S
C2654 H2624 0.950 . S
C2654 C2653 1.524 . S
C2654 C2655 1.415 . S
C2655 H2625 0.950 . S
C2655 C2650 1.363 . S
C2655 C2654 1.415 . S
H2656 C2653 0.999 . S
H2657 C2638 0.913 . S
H2658 C2676 0.951 . S
H2659 C2678 0.951 . S
H2660 C2680 0.950 . S
H2661 C2681 0.950 . S
H2662 C2683 0.950 . S
H2663 C2686 0.950 . S
H2664 C2687 0.950 . S
H2665 C2689 0.950 . S
H2666 C2690 0.950 . S
H2667 C2691 0.951 . S
H2668 C2693 0.951 . S
H2669 C2695 0.950 . S
H2670 C2696 0.950 . S
H2671 C2698 0.950 . S
H2672 C2701 0.950 . S
H2673 C2702 0.950 . S
H2674 C2704 0.950 . S
H2675 C2705 0.950 . S
C2676 H2658 0.951 . S
C2676 C2677 1.366 . S
C2676 C2678 1.388 . S
C2677 C2676 1.366 . S
C2677 C2681 1.385 . S
C2678 H2659 0.951 . S
C2678 C2676 1.388 . S
C2678 C2679 1.366 . S
C2679 C2678 1.366 . S
C2679 C2680 1.414 . S
C2679 C2682 1.499 . S
C2680 H2660 0.950 . S
C2680 C2679 1.414 . S
C2680 C2681 1.374 . S
C2681 H2661 0.950 . S
C2681 C2677 1.385 . S
C2681 C2680 1.374 . S
C2682 C2679 1.499 . S
C2682 C2683 1.373 . S
C2682 C2684 1.389 . S
C2683 H2662 0.950 . S
C2683 C2682 1.373 . S
C2683 C2699 1.377 . S
C2684 C2682 1.389 . S
C2684 C2685 1.524 . S
C2684 C2698 1.377 . S
C2685 C2684 1.524 . S
C2685 C2686 1.397 . S
C2685 C2690 1.363 . S
C2686 H2663 0.950 . S
C2686 C2685 1.397 . S
C2686 C2687 1.334 . S
C2687 H2664 0.950 . S
C2687 C2686 1.334 . S
C2687 C2688 1.287 . S
C2688 C2687 1.287 . S
C2688 C2689 1.524 . S
C2688 H2707 0.913 . S
C2689 H2665 0.950 . S
C2689 C2688 1.524 . S
C2689 C2690 1.415 . S
C2690 H2666 0.950 . S
C2690 C2685 1.363 . S
C2690 C2689 1.415 . S
C2691 H2667 0.951 . S
C2691 C2692 1.366 . S
C2691 C2693 1.388 . S
C2692 C2691 1.366 . S
C2692 C2696 1.385 . S
C2693 H2668 0.951 . S
C2693 C2691 1.388 . S
C2693 C2694 1.366 . S
C2694 C2693 1.366 . S
C2694 C2695 1.414 . S
C2694 C2697 1.499 . S
C2695 H2669 0.950 . S
C2695 C2694 1.414 . S
C2695 C2696 1.374 . S
C2696 H2670 0.950 . S
C2696 C2692 1.385 . S
C2696 C2695 1.374 . S
C2697 C2694 1.499 . S
C2697 C2698 1.373 . S
C2697 C2699 1.389 . S
C2698 H2671 0.950 . S
C2698 C2684 1.377 . S
C2698 C2697 1.373 . S
C2699 C2683 1.377 . S
C2699 C2697 1.389 . S
C2699 C2700 1.524 . S
C2700 C2699 1.524 . S
C2700 C2701 1.397 . S
C2700 C2705 1.363 . S
C2701 H2672 0.950 . S
C2701 C2700 1.397 . S
C2701 C2702 1.334 . S
C2702 H2673 0.950 . S
C2702 C2701 1.334 . S
C2702 C2703 1.287 . S
C2703 C2702 1.287 . S
C2703 C2704 1.524 . S
C2703 H2706 0.999 . S
C2704 H2674 0.950 . S
C2704 C2703 1.524 . S
C2704 C2705 1.415 . S
C2705 H2675 0.950 . S
C2705 C2700 1.363 . S
C2705 C2704 1.415 . S
H2706 C2703 0.999 . S
H2707 C2688 0.913 . S
H2708 C2726 0.951 . S
H2709 C2728 0.951 . S
H2710 C2730 0.950 . S
H2711 C2731 0.950 . S
H2712 C2733 0.950 . S
H2713 C2736 0.950 . S
H2714 C2737 0.950 . S
H2715 C2739 0.950 . S
H2716 C2740 0.950 . S
H2717 C2741 0.951 . S
H2718 C2743 0.951 . S
H2719 C2745 0.950 . S
H2720 C2746 0.950 . S
H2721 C2748 0.950 . S
H2722 C2751 0.950 . S
H2723 C2752 0.950 . S
H2724 C2754 0.950 . S
H2725 C2755 0.950 . S
C2726 H2708 0.951 . S
C2726 C2727 1.366 . S
C2726 C2728 1.388 . S
C2727 C2726 1.366 . S
C2727 C2731 1.385 . S
C2728 H2709 0.951 . S
C2728 C2726 1.388 . S
C2728 C2729 1.366 . S
C2729 C2728 1.366 . S
C2729 C2730 1.414 . S
C2729 C2732 1.499 . S
C2730 H2710 0.950 . S
C2730 C2729 1.414 . S
C2730 C2731 1.374 . S
C2731 H2711 0.950 . S
C2731 C2727 1.385 . S
C2731 C2730 1.374 . S
C2732 C2729 1.499 . S
C2732 C2733 1.373 . S
C2732 C2734 1.389 . S
C2733 H2712 0.950 . S
C2733 C2732 1.373 . S
C2733 C2749 1.377 . S
C2734 C2732 1.389 . S
C2734 C2735 1.524 . S
C2734 C2748 1.377 . S
C2735 C2734 1.524 . S
C2735 C2736 1.397 . S
C2735 C2740 1.363 . S
C2736 H2713 0.950 . S
C2736 C2735 1.397 . S
C2736 C2737 1.334 . S
C2737 H2714 0.950 . S
C2737 C2736 1.334 . S
C2737 C2738 1.287 . S
C2738 C2737 1.287 . S
C2738 C2739 1.524 . S
C2738 H2757 0.913 . S
C2739 H2715 0.950 . S
C2739 C2738 1.524 . S
C2739 C2740 1.415 . S
C2740 H2716 0.950 . S
C2740 C2735 1.363 . S
C2740 C2739 1.415 . S
C2741 H2717 0.951 . S
C2741 C2742 1.366 . S
C2741 C2743 1.388 . S
C2742 C2741 1.366 . S
C2742 C2746 1.385 . S
C2743 H2718 0.951 . S
C2743 C2741 1.388 . S
C2743 C2744 1.366 . S
C2744 C2743 1.366 . S
C2744 C2745 1.414 . S
C2744 C2747 1.499 . S
C2745 H2719 0.950 . S
C2745 C2744 1.414 . S
C2745 C2746 1.374 . S
C2746 H2720 0.950 . S
C2746 C2742 1.385 . S
C2746 C2745 1.374 . S
C2747 C2744 1.499 . S
C2747 C2748 1.373 . S
C2747 C2749 1.389 . S
C2748 H2721 0.950 . S
C2748 C2734 1.377 . S
C2748 C2747 1.373 . S
C2749 C2733 1.377 . S
C2749 C2747 1.389 . S
C2749 C2750 1.524 . S
C2750 C2749 1.524 . S
C2750 C2751 1.397 . S
C2750 C2755 1.363 . S
C2751 H2722 0.950 . S
C2751 C2750 1.397 . S
C2751 C2752 1.334 . S
C2752 H2723 0.950 . S
C2752 C2751 1.334 . S
C2752 C2753 1.287 . S
C2753 C2752 1.287 . S
C2753 C2754 1.524 . S
C2753 H2756 0.999 . S
C2754 H2724 0.950 . S
C2754 C2753 1.524 . S
C2754 C2755 1.415 . S
C2755 H2725 0.950 . S
C2755 C2750 1.363 . S
C2755 C2754 1.415 . S
H2756 C2753 0.999 . S
H2757 C2738 0.913 . S
H2758 C2776 0.951 . S
H2759 C2778 0.951 . S
H2760 C2780 0.950 . S
H2761 C2781 0.950 . S
H2762 C2783 0.950 . S
H2763 C2786 0.950 . S
H2764 C2787 0.950 . S
H2765 C2789 0.950 . S
H2766 C2790 0.950 . S
H2767 C2791 0.951 . S
H2768 C2793 0.951 . S
H2769 C2795 0.950 . S
H2770 C2796 0.950 . S
H2771 C2798 0.950 . S
H2772 C2801 0.950 . S
H2773 C2802 0.950 . S
H2774 C2804 0.950 . S
H2775 C2805 0.950 . S
C2776 H2758 0.951 . S
C2776 C2777 1.366 . S
C2776 C2778 1.388 . S
C2777 C2776 1.366 . S
C2777 C2781 1.385 . S
C2778 H2759 0.951 . S
C2778 C2776 1.388 . S
C2778 C2779 1.366 . S
C2779 C2778 1.366 . S
C2779 C2780 1.414 . S
C2779 C2782 1.499 . S
C2780 H2760 0.950 . S
C2780 C2779 1.414 . S
C2780 C2781 1.374 . S
C2781 H2761 0.950 . S
C2781 C2777 1.385 . S
C2781 C2780 1.374 . S
C2782 C2779 1.499 . S
C2782 C2783 1.373 . S
C2782 C2784 1.389 . S
C2783 H2762 0.950 . S
C2783 C2782 1.373 . S
C2783 C2799 1.377 . S
C2784 C2782 1.389 . S
C2784 C2785 1.524 . S
C2784 C2798 1.377 . S
C2785 C2784 1.524 . S
C2785 C2786 1.397 . S
C2785 C2790 1.363 . S
C2786 H2763 0.950 . S
C2786 C2785 1.397 . S
C2786 C2787 1.334 . S
C2787 H2764 0.950 . S
C2787 C2786 1.334 . S
C2787 C2788 1.287 . S
C2788 C2787 1.287 . S
C2788 C2789 1.524 . S
C2788 H2807 0.913 . S
C2789 H2765 0.950 . S
C2789 C2788 1.524 . S
C2789 C2790 1.415 . S
C2790 H2766 0.950 . S
C2790 C2785 1.363 . S
C2790 C2789 1.415 . S
C2791 H2767 0.951 . S
C2791 C2792 1.366 . S
C2791 C2793 1.388 . S
C2792 C2791 1.366 . S
C2792 C2796 1.385 . S
C2793 H2768 0.951 . S
C2793 C2791 1.388 . S
C2793 C2794 1.366 . S
C2794 C2793 1.366 . S
C2794 C2795 1.414 . S
C2794 C2797 1.499 . S
C2795 H2769 0.950 . S
C2795 C2794 1.414 . S
C2795 C2796 1.374 . S
C2796 H2770 0.950 . S
C2796 C2792 1.385 . S
C2796 C2795 1.374 . S
C2797 C2794 1.499 . S
C2797 C2798 1.373 . S
C2797 C2799 1.389 . S
C2798 H2771 0.950 . S
C2798 C2784 1.377 . S
C2798 C2797 1.373 . S
C2799 C2783 1.377 . S
C2799 C2797 1.389 . S
C2799 C2800 1.524 . S
C2800 C2799 1.524 . S
C2800 C2801 1.397 . S
C2800 C2805 1.363 . S
C2801 H2772 0.950 . S
C2801 C2800 1.397 . S
C2801 C2802 1.334 . S
C2802 H2773 0.950 . S
C2802 C2801 1.334 . S
C2802 C2803 1.287 . S
C2803 C2802 1.287 . S
C2803 C2804 1.524 . S
C2803 H2806 0.999 . S
C2804 H2774 0.950 . S
C2804 C2803 1.524 . S
C2804 C2805 1.415 . S
C2805 H2775 0.950 . S
C2805 C2800 1.363 . S
C2805 C2804 1.415 . S
H2806 C2803 0.999 . S
H2807 C2788 0.913 . S
C1027 C226 1.085 . S
C1042 C67 1.222 . S
C1077 C321 1.085 . S
C1092 C140 1.222 . S
C1127 C235 1.222 . S
C1142 C394 1.085 . S
C1177 C308 1.222 . S
C1192 C489 1.088 . S
C1227 C58 1.086 . S
C1242 C403 1.222 . S
C1277 C153 1.086 . S
C1292 C476 1.222 . S
C1327 C909 1.087 . S
C1342 C560 1.222 . S
C1377 C655 1.222 . S
C1392 C982 1.087 . S
C1427 C728 1.222 . S
C1442 C573 1.087 . S
C1477 C823 1.222 . S
C1492 C646 1.085 . S
C1527 C896 1.222 . S
C1542 C741 1.087 . S
C1577 C814 1.085 . S
C1592 C991 1.222 . S
C1627 C315 1.965 . S
C1642 C74 1.966 . S
C1677 C147 1.966 . S
C1692 C410 1.966 . S
C1727 C242 1.965 . S
C1742 C483 1.966 . S
C1777 C567 1.966 . S
C1792 C830 1.965 . S
C1827 C662 1.966 . S
C1842 C903 1.966 . S
C1877 C735 1.965 . S
C1892 C998 1.966 . S
C1927 C651 2.158 . S
C1942 C63 2.158 . S
C1977 C158 2.158 . S
C1992 C746 2.158 . S
C2027 C819 2.158 . S
C2042 C231 2.158 . S
C2077 C326 2.158 . S
C2092 C914 2.158 . S
C2127 C399 2.157 . S
C2142 C987 2.158 . S
C2177 C578 2.158 . S
C2192 C494 2.158 . S
C2227 C237 1.240 . S
C2242 C56 1.398 . S
C2277 C151 1.398 . S
C2292 C310 1.240 . S
C2327 C224 1.398 . S
C2342 C405 1.241 . S
C2377 C319 1.398 . S
C2392 C478 1.243 . S
C2427 C69 1.242 . S
C2442 C392 1.399 . S
C2477 C142 1.241 . S
C2492 C487 1.398 . S
C2527 C898 1.242 . S
C2542 C571 1.398 . S
C2577 C644 1.398 . S
C2592 C993 1.241 . S
C2627 C739 1.398 . S
C2642 C562 1.240 . S
C2677 C657 1.243 . S
C2692 C812 1.399 . S
C2727 C907 1.398 . S
C2742 C730 1.240 . S
C2777 C980 1.398 . S
C2792 C825 1.241 . S
