# Generated by pormake.
# Topology sxc, (6)-cn, num edge types: 1
# Building blocks:
#     Node 0, Type 0, BuildingBlock: KUMBOL_clean_sbu_0, # of connection points: 6
#     Node 1, Type 0, BuildingBlock: KUMBOL_clean_sbu_0, # of connection points: 6
#     Node 2, Type 0, BuildingBlock: KUMBOL_clean_sbu_0, # of connection points: 6
#     Edge 3, Type (0, 0), BuildingBlock: KIFKEQ_clean_linker_1, # of connection points: 2
#     Edge 4, Type (0, 0), BuildingBlock: KIFKEQ_clean_linker_1, # of connection points: 2
#     Edge 5, Type (0, 0), BuildingBlock: KIFKEQ_clean_linker_1, # of connection points: 2
#     Edge 6, Type (0, 0), BuildingBlock: KIFKEQ_clean_linker_1, # of connection points: 2
#     Edge 7, Type (0, 0), BuildingBlock: KIFKEQ_clean_linker_1, # of connection points: 2
#     Edge 8, Type (0, 0), BuildingBlock: KIFKEQ_clean_linker_1, # of connection points: 2
#     Edge 9, Type (0, 0), BuildingBlock: KIFKEQ_clean_linker_1, # of connection points: 2
#     Edge 10, Type (0, 0), BuildingBlock: KIFKEQ_clean_linker_1, # of connection points: 2
#     Edge 11, Type (0, 0), BuildingBlock: KIFKEQ_clean_linker_1, # of connection points: 2
# Relax obj value: 0.213
# Max RMSD: 0.149
# Mean RMSD: 0.129
data_MOF--net-sxc--node1-KUMBOL_clean_sbu_0--edge1-KIFKEQ_clean_linker_1
_symmetry_space_group_name_H-M    P1
_symmetry_Int_Tables_number       1
_symmetry_cell_setting            triclinic
loop_
_symmetry_equiv_pos_as_xyz
'x, y, z'
_cell_length_a     15.747757
_cell_length_b     18.371835
_cell_length_c     46.525376
_cell_angle_alpha  113.67966
_cell_angle_beta   97.04729
_cell_angle_gamma 98.898825
loop_
_atom_site_label
_atom_site_type_symbol
_atom_site_fract_x
_atom_site_fract_y
_atom_site_fract_z
_atom_type_partial_charge
Gd0 Gd 0.97749 0.1112 0.98887 0.0
Gd1 Gd 0.15806 0.15384 0.00773 0.0
C2 C 0.29374 0.94138 0.96922 0.0
C3 C 0.39395 0.96203 0.01709 0.0
C4 C 0.28911 0.04879 0.02064 0.0
C5 C 0.25901 1.00798 0.9874 0.0
C6 C 0.35577 1.02437 0.03565 0.0
C7 C 0.36327 0.9211 0.98398 0.0
C8 C 0.25375 0.89308 0.93708 0.0
C9 C 0.17636 0.90689 0.92451 0.0
N10 N 0.19078 1.02782 0.9733 0.0
C11 C 0.14384 0.97272 0.94341 0.0
H12 H 0.08004 0.97755 0.93409 0.0
C13 C 0.27971 0.14839 0.07121 0.0
N14 N 0.25189 0.10982 0.0384 0.0
C15 C 0.34353 0.12452 0.08683 0.0
C16 C 0.38222 0.06274 0.06901 0.0
H17 H 0.2561 0.20033 0.08592 0.0
H18 H 0.39094 0.87128 0.97002 0.0
H19 H 1.04038 0.28715 0.06249 0.0
H20 H 0.27839 0.84134 0.9225 0.0
H21 H 0.14062 0.86584 0.9005 0.0
H22 H 0.4459 0.94359 0.02822 0.0
H23 H 0.88007 0.0526 0.91001 0.0
H24 H 0.83712 0.41684 0.06821 0.0
H25 H 0.97306 0.39652 0.09345 0.0
H26 H 0.67935 0.30448 0.9605 0.0
H27 H 0.36453 0.15547 0.11265 0.0
H28 H 0.43268 1.04522 0.08125 0.0
H29 H 0.72904 0.38254 0.01865 0.0
H30 H 0.76945 0.08949 0.88041 0.0
N31 N 0.93579 0.2341 0.0212 0.0
C32 C 0.86468 0.36606 0.05471 0.0
C33 C 0.94101 0.3545 0.0691 0.0
C34 C 0.82906 0.31623 0.02232 0.0
C35 C 0.86768 0.25093 0.0056 0.0
C36 C 0.97738 0.2898 0.05166 0.0
N37 N 0.88041 0.14698 0.95604 0.0
C38 C 0.84042 0.20736 0.97234 0.0
C39 C 0.78927 0.12369 0.90618 0.0
C40 C 0.7481 0.18514 0.92247 0.0
C41 C 0.8541 0.10437 0.92331 0.0
C42 C 0.77284 0.22745 0.95581 0.0
H43 H 0.69684 0.19912 0.90908 0.0
O44 O 0.89205 1.00072 0.95071 0.0
O45 O 0.06053 1.02677 -0.00114 0.0
O46 O 0.17107 0.13467 0.95843 0.0
O47 O 1.02337 0.10337 0.94244 0.0
O48 O 0.06102 1.02334 -0.00104 0.0
O49 O 0.84707 0.06845 -0.00512 0.0
O50 O 0.24793 0.26016 0.04633 0.0
O51 O 0.07457 0.23904 -0.00143 0.0
O52 O 0.97002 0.12856 0.03919 0.0
O53 O 0.11783 0.17033 0.05462 0.0
O54 O 0.07385 0.24241 -0.00154 0.0
O55 O 0.28751 0.19585 0.00065 0.0
C56 C 1.02331 0.94928 -0.00399 0.0
C57 C 0.73176 0.28921 0.97285 0.0
C58 C 0.75959 0.33327 0.00598 0.0
C59 C 0.82842 1.00825 0.9664 0.0
C60 C 0.74429 0.94934 0.9541 0.0
C61 C 0.68396 0.94685 0.92877 0.0
C62 C 0.72252 0.89765 0.96867 0.0
C63 C 0.64077 0.84218 0.95774 0.0
C64 C 0.60181 0.89315 0.91823 0.0
C65 C 0.5801 0.84096 0.93258 0.0
C66 C 0.10231 0.11684 0.93612 0.0
C67 C 0.11142 0.31695 0.0018 0.0
C68 C 0.30929 0.25342 0.02968 0.0
C69 C 0.39483 0.30983 0.04208 0.0
C70 C 0.46112 0.29813 0.06175 0.0
C71 C 0.41312 0.3708 0.03158 0.0
C72 C 0.49807 0.41923 0.04021 0.0
C73 C 0.54597 0.3467 0.07043 0.0
C74 C 0.56477 0.40668 0.05945 0.0
C75 C 1.04135 0.15137 0.06119 0.0
H76 H 0.6997 0.9871 0.9175 0.0
H77 H 0.76933 0.90084 0.98853 0.0
H78 H 0.55502 0.89164 0.89879 0.0
H79 H 0.51673 0.79858 0.92355 0.0
H80 H 0.44788 0.25032 0.06966 0.0
H81 H 0.36201 0.37907 0.01602 0.0
H82 H 0.59744 0.33714 0.08532 0.0
H83 H 0.63095 0.44348 0.06603 0.0
Gd84 Gd 0.15828 1.03207 0.31307 0.0
Gd85 Gd 0.21445 0.24501 0.35839 0.0
C86 C 0.49557 0.33054 0.34947 0.0
C87 C 0.58263 0.33913 0.39792 0.0
C88 C 0.42273 0.29691 0.38705 0.0
C89 C 0.41768 0.30484 0.35844 0.0
C90 C 0.50558 0.31646 0.40744 0.0
C91 C 0.57766 0.34585 0.36897 0.0
C92 C 0.48901 0.3409 0.32122 0.0
C93 C 0.40647 0.32998 0.30348 0.0
N94 N 0.33731 0.28948 0.33978 0.0
C95 C 0.33127 0.30634 0.31356 0.0
H96 H 0.26929 0.30478 0.30055 0.0
C97 C 0.3508 0.28109 0.42635 0.0
N98 N 0.34721 0.27368 0.39566 0.0
C99 C 0.43091 0.29902 0.44709 0.0
C100 C 0.50882 0.31494 0.43731 0.0
H101 H 0.2925 0.27687 0.43591 0.0
H102 H 0.63777 0.36447 0.36215 0.0
H103 H 0.10744 0.95569 0.36766 0.0
H104 H 0.54718 0.35984 0.31345 0.0
H105 H 0.40061 0.3414 0.28232 0.0
H106 H 0.64644 0.3531 0.4131 0.0
H107 H 0.07676 0.98898 0.23567 0.0
H108 H 0.83127 0.91512 0.3608 0.0
H109 H 0.97923 0.92337 0.38828 0.0
H110 H 0.72475 0.92529 0.26231 0.0
H111 H 0.43233 0.30274 0.47097 0.0
H112 H 0.57094 0.32978 0.45359 0.0
H113 H 0.73707 0.91513 0.31361 0.0
H114 H 0.93521 0.96322 0.20091 0.0
N115 N 1.03766 0.98317 0.33209 0.0
C116 C 0.88837 0.93327 0.35234 0.0
C117 C 0.9717 0.9384 0.36801 0.0
C118 C 0.87944 0.94621 0.32466 0.0
C119 C 0.95612 0.97106 0.31488 0.0
C120 C 1.04538 0.96021 0.35677 0.0
N121 N 1.02343 0.99854 0.27666 0.0
C122 C 0.94889 0.97841 0.28626 0.0
C123 C 0.93781 0.96951 0.22517 0.0
C124 C 0.8606 0.95762 0.236 0.0
C125 C 1.01863 0.98706 0.2455 0.0
C126 C 0.8653 0.95903 0.26641 0.0
H127 H 0.79787 0.94299 0.22009 0.0
O128 O 0.19811 0.95842 0.26929 0.0
O129 O 0.27568 0.14038 0.3284 0.0
O130 O 0.1534 0.22488 0.30833 0.0
O131 O 0.17634 0.09574 0.28056 0.0
O132 O 0.29954 1.04023 0.33509 0.0
O133 O 0.14166 0.90188 0.29736 0.0
O134 O 0.20435 0.33687 0.40426 0.0
O135 O 0.09715 0.1383 0.33669 0.0
O136 O 0.20966 0.05302 0.36414 0.0
O137 O 0.1885 0.18315 0.39085 0.0
O138 O 0.06834 0.24962 0.35481 0.0
O139 O 0.22022 0.36908 0.36488 0.0
C140 C 0.33849 0.1101 0.33702 0.0
C141 C 0.78926 0.93872 0.27695 0.0
C142 C 0.79631 0.93278 0.30612 0.0
C143 C 0.18301 0.8929 0.27394 0.0
C144 C 0.25581 0.85068 0.27251 0.0
C145 C 0.29293 0.82432 0.24522 0.0
C146 C 0.28682 0.83429 0.2982 0.0
C147 C 0.3504 0.78748 0.29638 0.0
C148 C 0.35991 0.78173 0.24383 0.0
C149 C 0.38809 0.76256 0.26913 0.0
C150 C 0.15504 0.16316 0.2812 0.0
C151 C 1.03078 0.17323 0.34151 0.0
C152 C 0.20048 0.39141 0.39325 0.0
C153 C 0.12529 0.43103 0.3986 0.0
C154 C 0.09021 0.44597 0.42627 0.0
C155 C 0.08966 0.45631 0.37616 0.0
C156 C 1.02333 0.50042 0.38163 0.0
C157 C 1.02073 0.48585 0.43113 0.0
C158 C 0.98777 0.51368 0.40907 0.0
C159 C 0.2042 0.11455 0.39069 0.0
H160 H 0.26954 0.83596 0.22494 0.0
H161 H 0.25568 0.85259 0.31872 0.0
H162 H 0.38775 0.76088 0.22258 0.0
H163 H 0.43591 0.7251 0.26678 0.0
H164 H 0.11703 0.42772 0.44425 0.0
H165 H 0.11956 0.44796 0.35562 0.0
H166 H 0.9948 0.49818 0.4527 0.0
H167 H 0.93854 0.54966 0.41434 0.0
Gd168 Gd 0.23979 0.15762 0.68025 0.0
Gd169 Gd 0.20202 0.93931 0.63651 0.0
C170 C 0.44727 0.84679 0.65725 0.0
C171 C 0.47516 0.77658 0.60404 0.0
C172 C 0.35801 0.85131 0.61199 0.0
C173 C 0.37596 0.87078 0.64445 0.0
C174 C 0.40819 0.8043 0.59154 0.0
C175 C 0.49493 0.79806 0.63684 0.0
C176 C 0.47154 0.87537 0.6904 0.0
C177 C 0.42865 0.93012 0.71003 0.0
N178 N 0.32896 0.91849 0.66382 0.0
C179 C 0.35885 0.95219 0.69637 0.0
H180 H 0.33413 0.99965 0.71248 0.0
C181 C 0.276 0.86137 0.56835 0.0
N182 N 0.29423 0.88065 0.60054 0.0
C183 C 0.32392 0.81551 0.54742 0.0
C184 C 0.39032 0.78674 0.55903 0.0
H185 H 0.22081 0.87649 0.55791 0.0
H186 H 0.54879 0.77842 0.64632 0.0
H187 H 0.10293 0.10619 0.60602 0.0
H188 H 0.52617 0.85892 0.70108 0.0
H189 H 0.45051 0.95691 0.73581 0.0
H190 H 0.51346 0.73998 0.58861 0.0
H191 H 0.22492 0.21096 0.75959 0.0
H192 H 0.91753 0.25406 0.6228 0.0
H193 H 0.98832 0.15615 0.58557 0.0
H194 H 0.93578 0.35923 0.73542 0.0
H195 H 0.30787 0.80059 0.52211 0.0
H196 H 0.42698 0.75057 0.54266 0.0
H197 H 0.89864 0.32922 0.67853 0.0
H198 H 0.13933 0.28347 0.7968 0.0
N199 N 0.11247 0.18363 0.65555 0.0
C200 C 0.9715 0.23446 0.63223 0.0
C201 C 1.01162 0.17976 0.6112 0.0
C202 C 0.99733 0.25867 0.66507 0.0
C203 C 0.06788 0.23091 0.67623 0.0
C204 C 0.08048 0.15361 0.62322 0.0
N205 N 0.1509 0.21392 0.71819 0.0
C206 C 0.08737 0.24615 0.70829 0.0
C207 C 0.12302 0.27254 0.7719 0.0
C208 C 1.05732 0.30456 0.76187 0.0
C209 C 0.17001 0.22868 0.75001 0.0
C210 C 1.03882 0.29193 0.7299 0.0
H211 H 1.0216 0.33937 0.77903 0.0
O212 O 0.31443 0.24913 0.72535 0.0
O213 O 0.30881 0.0529 0.65946 0.0
O214 O 0.17306 0.95658 0.68542 0.0
O215 O 0.22816 0.0969 0.71383 0.0
O216 O 0.38905 0.16264 0.68441 0.0
O217 O 0.28993 0.28071 0.68519 0.0
O218 O 0.12633 0.84721 0.59157 0.0
O219 O 0.13296 1.04408 0.65652 0.0
O220 O 0.25913 0.14052 0.63059 0.0
O221 O 0.21555 0.99861 0.60202 0.0
O222 O 1.05255 0.93429 0.63104 0.0
O223 O 0.15722 0.81555 0.63156 0.0
C224 C 0.39184 0.08799 0.66787 0.0
C225 C 0.97266 0.32337 0.71907 0.0
C226 C 0.95185 0.30667 0.68672 0.0
C227 C 0.33107 0.30468 0.7149 0.0
C228 C 0.42354 0.34976 0.72508 0.0
C229 C 0.47123 0.36464 0.75532 0.0
C230 C 0.46536 0.3774 0.70526 0.0
C231 C 0.5543 0.41752 0.71527 0.0
C232 C 0.55986 0.40363 0.76503 0.0
C233 C 0.60161 0.42949 0.745 0.0
C234 C 0.19012 1.02539 0.71213 0.0
C235 C 1.0499 1.00908 0.64757 0.0
C236 C 0.11689 0.79038 0.60167 0.0
C237 C 1.02918 0.73607 0.59001 0.0
C238 C 0.99709 0.69552 0.55673 0.0
C239 C 0.97689 0.72456 0.6108 0.0
C240 C 0.89324 0.67161 0.59828 0.0
C241 C 0.91367 0.64448 0.54429 0.0
C242 C 0.86198 0.63229 0.56486 0.0
C243 C 0.2439 0.07248 0.60363 0.0
H244 H 0.44013 0.34546 0.77143 0.0
H245 H 0.42936 0.36773 0.68214 0.0
H246 H 0.59607 0.41434 0.78822 0.0
H247 H 0.67015 0.46105 0.75309 0.0
H248 H 1.03675 0.70359 0.54031 0.0
H249 H 1.00126 0.75614 0.6365 0.0
H250 H 0.88954 0.6133 0.5186 0.0
H251 H 0.79872 0.58984 0.5545 0.0
H252 H 0.94591 0.40384 0.00121 0.0
H253 H 0.21618 0.45312 -0.00266 0.0
H254 H 0.93566 0.53712 0.00108 0.0
H255 H 0.20609 0.58406 -0.00323 0.0
H256 H 0.18857 0.86223 -0.00326 0.0
H257 H 0.19858 0.72899 -0.0031 0.0
H258 H 0.92817 0.68256 0.00132 0.0
H259 H 0.9184 0.81359 0.00075 0.0
C260 C 1.00527 0.43936 -0.00015 0.0
C261 C 0.08316 0.40332 -0.00127 0.0
C262 C 0.99934 0.52219 -8e-05 0.0
C263 C 0.06949 0.58503 -0.00112 0.0
C264 C 0.14597 0.54822 -0.00233 0.0
C265 C 0.15176 0.46676 -0.00217 0.0
C266 C 0.12913 0.82678 -0.00194 0.0
C267 C 1.05134 0.86292 -0.00085 0.0
C268 C 0.13492 0.74399 -0.00196 0.0
C269 C 0.0647 0.68127 -0.0009 0.0
C270 C 0.98831 0.71824 0.00035 0.0
C271 C 0.98268 0.79972 0.00017 0.0
H272 H 0.47685 0.11331 0.38073 0.0
H273 H 0.43669 0.13731 0.29242 0.0
H274 H 0.63226 0.12286 0.38079 0.0
H275 H 0.59385 0.14602 0.29174 0.0
H276 H 0.89538 0.15915 0.29259 0.0
H277 H 0.73761 0.14829 0.29102 0.0
H278 H 0.77269 0.13224 0.3815 0.0
H279 H 0.9289 0.14211 0.38224 0.0
C280 C 0.50097 0.12159 0.36118 0.0
C281 C 0.44026 0.12682 0.33722 0.0
C282 C 0.59297 0.1268 0.36101 0.0
C283 C 0.63279 0.13529 0.33621 0.0
C284 C 0.57129 0.1398 0.31183 0.0
C285 C 0.47868 0.13545 0.31225 0.0
C286 C 0.86921 0.15028 0.3117 0.0
C287 C 0.92822 0.14608 0.33648 0.0
C288 C 0.77641 0.1452 0.31114 0.0
C289 C 0.73512 0.13849 0.336 0.0
C290 C 0.79548 0.13601 0.3611 0.0
C291 C 0.88788 0.14063 0.36146 0.0
H292 H 0.95422 0.64503 0.64983 0.0
H293 H 0.71566 0.65022 0.59446 0.0
H294 H 0.86816 0.58781 0.67869 0.0
H295 H 0.62914 0.58726 0.6217 0.0
H296 H 0.50202 0.52483 0.69469 0.0
H297 H 0.58326 0.59747 0.66913 0.0
H298 H 0.7821 0.45735 0.66578 0.0
H299 H 0.70254 0.38829 0.69287 0.0
C300 C 0.8834 0.63506 0.64412 0.0
C301 C 0.8416 0.65071 0.61946 0.0
C302 C 0.83397 0.60074 0.66024 0.0
C303 C 0.7418 0.58044 0.65175 0.0
C304 C 0.70002 0.60151 0.62868 0.0
C305 C 0.74955 0.63688 0.61285 0.0
C306 C 0.56274 0.5094 0.68811 0.0
C307 C 0.59696 0.45201 0.69583 0.0
C308 C 0.60924 0.5508 0.67351 0.0
C309 C 0.69004 0.53438 0.66599 0.0
C310 C 0.72158 0.47348 0.67226 0.0
C311 C 0.67582 0.43323 0.68737 0.0
H312 H 0.89927 0.9631 0.60141 0.0
H313 H 0.98273 0.10064 0.70314 0.0
H314 H 0.74884 0.97472 0.60507 0.0
H315 H 0.83212 0.11534 0.70732 0.0
H316 H 0.54376 0.13884 0.71381 0.0
H317 H 0.69421 0.12762 0.71016 0.0
H318 H 0.6091 0.97714 0.60861 0.0
H319 H 0.45854 0.99233 0.61264 0.0
C320 C 0.88685 0.99871 0.62483 0.0
C321 C 0.95888 1.03449 0.65157 0.0
C322 C 0.79757 1.00486 0.6271 0.0
C323 C 0.7712 0.04652 0.6566 0.0
C324 C 0.84389 0.08275 0.68359 0.0
C325 C 0.93365 0.07601 0.68122 0.0
C326 C 0.55576 0.10122 0.69057 0.0
C327 C 0.48319 0.06298 0.66401 0.0
C328 C 0.64505 0.09511 0.68831 0.0
C329 C 0.67093 0.05083 0.659 0.0
C330 C 0.59777 1.01213 0.63219 0.0
C331 C 0.508 1.01901 0.63452 0.0
H332 H 0.48619 0.79583 0.97322 0.0
H333 H 0.74944 0.75661 0.97403 0.0
H334 H 0.44954 0.69392 -0.00675 0.0
H335 H 0.71469 0.65749 -0.00445 0.0
H336 H 0.59632 0.41761 -0.00365 0.0
H337 H 0.62957 0.52197 0.97691 0.0
H338 H 0.4756 0.66554 0.03888 0.0
H339 H 0.43996 0.55885 0.05711 0.0
C340 C 0.53625 0.76583 0.97788 0.0
C341 C 0.62025 0.784 0.97187 0.0
C342 C 0.51568 0.70798 0.98968 0.0
C343 C 0.57901 0.66706 -0.00426 0.0
C344 C 0.66388 0.68683 -0.00945 0.0
C345 C 0.6842 0.74449 0.97865 0.0
C346 C 0.57036 0.47189 0.0058 0.0
C347 C 0.51721 0.48173 0.02848 0.0
C348 C 0.58943 0.53167 -0.00514 0.0
C349 C 0.55637 0.60267 0.00675 0.0
C350 C 0.50169 0.61143 0.02913 0.0
C351 C 0.48174 0.55098 0.03972 0.0
H352 H 0.99498 0.45697 0.31625 0.0
H353 H 1.03577 0.66405 0.4074 0.0
H354 H 0.10167 0.5327 0.29953 0.0
H355 H 0.1451 0.73895 0.39243 0.0
H356 H 0.36645 0.85619 0.36211 0.0
H357 H 0.25517 0.79417 0.38104 0.0
H358 H 0.24223 0.56001 0.3025 0.0
H359 H 0.34602 0.62644 0.28182 0.0
C360 C 1.02422 0.52033 0.33227 0.0
C361 C 1.01523 0.55201 0.36439 0.0
C362 C 0.08949 0.56274 0.3234 0.0
C363 C 0.14296 0.6383 0.34631 0.0
C364 C 0.11333 0.67815 0.37484 0.0
C365 C 1.04733 0.63571 0.38328 0.0
C366 C 0.34137 0.79075 0.34945 0.0
C367 C 0.35582 0.74799 0.3185 0.0
C368 C 0.27451 0.75474 0.3598 0.0
C369 C 0.22876 0.67305 0.34075 0.0
C370 C 0.26622 0.62525 0.31555 0.0
C371 C 0.32981 0.66274 0.30445 0.0
H372 H 0.0807 0.27667 0.26838 0.0
H373 H 0.18719 0.0651 0.22311 0.0
H374 H 1.04121 0.27957 0.21605 0.0
H375 H 0.14276 0.06539 0.17116 0.0
H376 H 0.95788 1.04201 0.08038 0.0
H377 H 0.97998 0.04958 0.13489 0.0
H378 H 0.14254 0.29187 0.17129 0.0
H379 H 0.12337 0.28295 0.11674 0.0
C380 C 0.09529 0.2306 0.24741 0.0
C381 C 0.13538 0.16947 0.25006 0.0
C382 C 0.07217 0.23205 0.21744 0.0
C383 C 0.08699 0.17146 0.18942 0.0
C384 C 0.12852 0.11163 0.19219 0.0
C385 C 0.15377 0.11152 0.22208 0.0
C386 C 0.99638 0.09757 0.10017 0.0
C387 C 1.03849 0.16204 0.09439 0.0
C388 C 1.00955 0.10174 0.13129 0.0
C389 C 0.06306 0.17138 0.15734 0.0
C390 C 0.1006 0.23776 0.15177 0.0
C391 C 0.08957 0.23261 0.12057 0.0
H392 H 0.16165 0.21312 0.44661 0.0
H393 H 0.26682 0.99865 0.40562 0.0
H394 H 0.18183 0.20609 0.49813 0.0
H395 H 0.28301 0.98977 0.45724 0.0
H396 H 0.16383 0.9585 0.54258 0.0
H397 H 0.16643 0.96694 0.49199 0.0
H398 H 0.3139 0.21577 0.54267 0.0
H399 H 0.31848 0.20504 0.5938 0.0
C400 C 0.18962 0.16459 0.44853 0.0
C401 C 0.21353 0.10699 0.42179 0.0
C402 C 0.20126 0.16081 0.47821 0.0
C403 C 0.23481 0.09795 0.48193 0.0
C404 C 0.25722 1.03918 0.45516 0.0
C405 C 0.24751 1.04405 0.42553 0.0
C406 C 0.2013 1.01362 0.54319 0.0
C407 C 0.24497 0.07946 0.57258 0.0
C408 C 0.2012 1.0189 0.51397 0.0
C409 C 0.24142 0.09149 0.51316 0.0
C410 C 0.28299 0.15859 0.54246 0.0
C411 C 0.28547 0.15243 0.57177 0.0
H412 H 0.30505 0.10894 0.76915 0.0
H413 H 1.05334 0.94039 0.72621 0.0
H414 H 0.2828 0.12691 0.82211 0.0
H415 H 1.03112 0.9569 0.77976 0.0
H416 H 0.98013 0.09256 0.88306 0.0
H417 H 1.00168 0.05975 0.8285 0.0
H418 H 0.27432 0.06616 0.85848 0.0
H419 H 0.25288 0.0994 0.91283 0.0
C420 C 0.24526 0.07452 0.77103 0.0
C421 C 0.18077 1.02347 0.74339 0.0
C422 C 0.2326 0.08456 0.80154 0.0
C423 C 0.15479 1.0439 0.80558 0.0
C424 C 0.09138 0.99023 0.77775 0.0
C425 C 0.10448 0.97977 0.74699 0.0
C426 C 1.04444 0.08641 0.87804 0.0
C427 C 0.11447 0.09882 0.90265 0.0
C428 C 1.05685 0.06715 0.84657 0.0
C429 C 0.13981 0.05998 0.83875 0.0
C430 C 0.20967 0.0721 0.86341 0.0
C431 C 0.19726 0.09129 0.89477 0.0
loop_
_geom_bond_atom_site_label_1
_geom_bond_atom_site_label_2
_geom_bond_distance
_geom_bond_site_symmetry_2
_ccdc_geom_bond_type
Gd0 N31 2.661 1_556 S
Gd0 N37 2.601 . S
Gd0 O44 2.545 1_545 S
Gd0 O45 2.606 1_656 S
Gd0 O47 2.429 . S
Gd0 O48 2.545 1_545 S
Gd0 O49 2.412 1_546 S
Gd0 O51 2.362 1_556 S
Gd0 O52 2.324 1_556 S
Gd0 C59 2.828 1_545 S
Gd1 N10 2.661 1_554 S
Gd1 N14 2.601 . S
Gd1 O45 2.362 . S
Gd1 O46 2.324 1_554 S
Gd1 O50 2.545 . S
Gd1 O51 2.606 1_455 S
Gd1 O53 2.429 . S
Gd1 O54 2.545 . S
Gd1 O55 2.412 . S
Gd1 C68 2.828 . S
C2 C5 1.417 1_565 S
C2 C7 1.431 . S
C2 C8 1.412 1_554 S
C3 C6 1.437 . S
C3 C7 1.317 1_545 S
C3 H22 0.929 . S
C4 C5 1.426 . S
C4 C6 1.413 . S
C4 N14 1.359 . S
C5 C2 1.417 1_545 S
C5 C4 1.426 . S
C5 N10 1.350 1_554 S
C6 C3 1.437 . S
C6 C4 1.413 . S
C6 C16 1.391 . S
C7 C2 1.431 . S
C7 C3 1.317 1_565 S
C7 H18 0.930 . S
C8 C2 1.412 1_556 S
C8 C9 1.355 . S
C8 H20 0.930 . S
C9 C8 1.355 . S
C9 C11 1.402 . S
C9 H21 0.930 . S
N10 Gd1 2.661 1_556 S
N10 C5 1.350 1_556 S
N10 C11 1.307 1_545 S
C11 C9 1.402 . S
C11 N10 1.307 1_565 S
C11 H12 0.930 . S
H12 C11 0.930 . S
C13 N14 1.334 . S
C13 C15 1.394 . S
C13 H17 0.930 . S
N14 Gd1 2.601 . S
N14 C4 1.359 . S
N14 C13 1.334 . S
C15 C13 1.394 . S
C15 C16 1.359 . S
C15 H27 0.930 . S
C16 C6 1.391 . S
C16 C15 1.359 . S
C16 H28 0.929 . S
H17 C13 0.930 . S
H18 C7 0.930 . S
H19 C36 0.930 . S
H20 C8 0.930 . S
H21 C9 0.930 . S
H22 C3 0.929 . S
H23 C41 0.930 1_565 S
H24 C32 0.930 . S
H25 C33 0.930 . S
H26 C57 0.929 . S
H27 C15 0.930 . S
H28 C16 0.929 . S
H29 C58 0.930 1_554 S
H30 C39 0.930 1_565 S
N31 Gd0 2.661 1_554 S
N31 C35 1.350 . S
N31 C36 1.307 . S
C32 H24 0.930 . S
C32 C33 1.355 . S
C32 C34 1.412 . S
C33 H25 0.930 . S
C33 C32 1.355 . S
C33 C36 1.402 . S
C34 C32 1.412 . S
C34 C35 1.417 . S
C34 C58 1.431 1_554 S
C35 N31 1.350 . S
C35 C34 1.417 . S
C35 C38 1.426 1_554 S
C36 H19 0.930 . S
C36 N31 1.307 . S
C36 C33 1.402 . S
N37 Gd0 2.601 . S
N37 C38 1.359 . S
N37 C41 1.334 . S
C38 C35 1.426 1_556 S
C38 N37 1.359 . S
C38 C42 1.413 . S
C39 H30 0.930 1_545 S
C39 C40 1.359 . S
C39 C41 1.394 . S
C40 C39 1.359 . S
C40 C42 1.391 . S
C40 H43 0.929 . S
C41 H23 0.930 1_545 S
C41 N37 1.334 . S
C41 C39 1.394 . S
C42 C38 1.413 . S
C42 C40 1.391 . S
C42 C57 1.437 . S
H43 C40 0.929 . S
O44 Gd0 2.545 1_565 S
O44 C59 1.258 . S
O45 Gd0 2.606 1_454 S
O45 Gd1 2.362 . S
O45 C56 1.284 1_445 S
O46 Gd1 2.324 1_556 S
O46 C66 1.254 . S
O47 Gd0 2.429 . S
O47 C66 1.268 1_655 S
O48 Gd0 2.545 1_565 S
O48 C56 1.250 1_556 S
O49 Gd0 2.412 1_564 S
O49 C59 1.252 1_554 S
O50 Gd1 2.545 . S
O50 C68 1.258 . S
O51 Gd0 2.362 1_554 S
O51 Gd1 2.606 1_655 S
O51 C67 1.284 1_655 S
O52 Gd0 2.324 1_554 S
O52 C75 1.254 . S
O53 Gd1 2.429 . S
O53 C75 1.268 1_455 S
O54 Gd1 2.545 . S
O54 C67 1.250 . S
O55 Gd1 2.412 . S
O55 C68 1.252 . S
C56 O45 1.284 1_665 S
C56 O48 1.250 1_554 S
C57 H26 0.929 . S
C57 C42 1.437 . S
C57 C58 1.317 . S
C58 H29 0.930 1_556 S
C58 C34 1.431 1_556 S
C58 C57 1.317 . S
C59 Gd0 2.828 1_565 S
C59 O44 1.258 . S
C59 O49 1.252 1_556 S
C59 C60 1.497 . S
C60 C59 1.497 . S
C60 C61 1.395 . S
C60 C62 1.380 1_556 S
C61 C60 1.395 . S
C61 C64 1.398 . S
C61 H76 0.930 . S
C62 C60 1.380 1_554 S
C62 C63 1.391 . S
C62 H77 0.930 . S
C63 C62 1.391 . S
C63 C65 1.387 1_554 S
C64 C61 1.398 . S
C64 C65 1.380 . S
C64 H78 0.930 . S
C65 C63 1.387 1_556 S
C65 C64 1.380 . S
C65 H79 0.930 . S
C66 O46 1.254 . S
C66 O47 1.268 1_455 S
C67 O51 1.284 1_455 S
C67 O54 1.250 . S
C68 Gd1 2.828 . S
C68 O50 1.258 . S
C68 O55 1.252 . S
C68 C69 1.497 . S
C69 C68 1.497 . S
C69 C70 1.395 . S
C69 C71 1.380 . S
C70 C69 1.395 . S
C70 C73 1.398 . S
C70 H80 0.930 . S
C71 C69 1.380 . S
C71 C72 1.391 . S
C71 H81 0.930 1_554 S
C72 C71 1.391 . S
C72 C74 1.387 . S
C73 C70 1.398 . S
C73 C74 1.380 . S
C73 H82 0.930 . S
C74 C72 1.387 . S
C74 C73 1.380 . S
C74 H83 0.930 . S
C75 O52 1.254 . S
C75 O53 1.268 1_655 S
H76 C61 0.930 . S
H77 C62 0.930 . S
H78 C64 0.930 . S
H79 C65 0.930 . S
H80 C70 0.930 . S
H81 C71 0.930 1_556 S
H82 C73 0.930 . S
H83 C74 0.930 . S
Gd84 N115 2.661 1_455 S
Gd84 N121 2.601 1_455 S
Gd84 O128 2.545 . S
Gd84 O129 2.606 1_565 S
Gd84 O131 2.429 1_565 S
Gd84 O132 2.545 . S
Gd84 O133 2.412 . S
Gd84 O135 2.362 1_565 S
Gd84 O136 2.324 1_565 S
Gd84 C143 2.828 . S
Gd85 N94 2.661 . S
Gd85 N98 2.601 . S
Gd85 O129 2.362 . S
Gd85 O130 2.324 . S
Gd85 O134 2.545 . S
Gd85 O135 2.606 . S
Gd85 O137 2.429 . S
Gd85 O138 2.545 . S
Gd85 O139 2.412 . S
Gd85 C152 2.828 . S
C86 C89 1.417 . S
C86 C91 1.431 . S
C86 C92 1.412 . S
C87 C90 1.437 . S
C87 C91 1.317 . S
C87 H106 0.929 . S
C88 C89 1.426 . S
C88 C90 1.413 . S
C88 N98 1.359 . S
C89 C86 1.417 . S
C89 C88 1.426 . S
C89 N94 1.350 . S
C90 C87 1.437 . S
C90 C88 1.413 . S
C90 C100 1.391 . S
C91 C86 1.431 . S
C91 C87 1.317 . S
C91 H102 0.930 . S
C92 C86 1.412 . S
C92 C93 1.355 . S
C92 H104 0.930 . S
C93 C92 1.355 . S
C93 C95 1.402 . S
C93 H105 0.930 . S
N94 Gd85 2.661 . S
N94 C89 1.350 . S
N94 C95 1.307 . S
C95 C93 1.402 . S
C95 N94 1.307 . S
C95 H96 0.930 . S
H96 C95 0.930 . S
C97 N98 1.334 . S
C97 C99 1.394 . S
C97 H101 0.930 . S
N98 Gd85 2.601 . S
N98 C88 1.359 . S
N98 C97 1.334 . S
C99 C97 1.394 . S
C99 C100 1.359 . S
C99 H111 0.930 . S
C100 C90 1.391 . S
C100 C99 1.359 . S
C100 H112 0.929 . S
H101 C97 0.930 . S
H102 C91 0.930 . S
H103 C120 0.930 1_545 S
H104 C92 0.930 . S
H105 C93 0.930 . S
H106 C87 0.929 . S
H107 C125 0.930 1_455 S
H108 C116 0.930 . S
H109 C117 0.930 . S
H110 C141 0.929 . S
H111 C99 0.930 . S
H112 C100 0.929 . S
H113 C142 0.930 . S
H114 C123 0.930 . S
N115 Gd84 2.661 1_655 S
N115 C119 1.350 . S
N115 C120 1.307 . S
C116 H108 0.930 . S
C116 C117 1.355 . S
C116 C118 1.412 . S
C117 H109 0.930 . S
C117 C116 1.355 . S
C117 C120 1.402 . S
C118 C116 1.412 . S
C118 C119 1.417 . S
C118 C142 1.431 . S
C119 N115 1.350 . S
C119 C118 1.417 . S
C119 C122 1.426 . S
C120 H103 0.930 1_565 S
C120 N115 1.307 . S
C120 C117 1.402 . S
N121 Gd84 2.601 1_655 S
N121 C122 1.359 . S
N121 C125 1.334 . S
C122 C119 1.426 . S
C122 N121 1.359 . S
C122 C126 1.413 . S
C123 H114 0.930 . S
C123 C124 1.359 . S
C123 C125 1.394 . S
C124 C123 1.359 . S
C124 C126 1.391 . S
C124 H127 0.929 . S
C125 H107 0.930 1_655 S
C125 N121 1.334 . S
C125 C123 1.394 . S
C126 C122 1.413 . S
C126 C124 1.391 . S
C126 C141 1.437 . S
H127 C124 0.929 . S
O128 Gd84 2.545 . S
O128 C143 1.258 . S
O129 Gd84 2.606 1_545 S
O129 Gd85 2.362 . S
O129 C140 1.284 . S
O130 Gd85 2.324 . S
O130 C150 1.254 . S
O131 Gd84 2.429 1_545 S
O131 C150 1.268 . S
O132 Gd84 2.545 . S
O132 C140 1.250 1_565 S
O133 Gd84 2.412 . S
O133 C143 1.252 . S
O134 Gd85 2.545 . S
O134 C152 1.258 . S
O135 Gd84 2.362 1_545 S
O135 Gd85 2.606 . S
O135 C151 1.283 1_455 S
O136 Gd84 2.324 1_545 S
O136 C159 1.254 . S
O137 Gd85 2.429 . S
O137 C159 1.268 . S
O138 Gd85 2.545 . S
O138 C151 1.250 1_455 S
O139 Gd85 2.412 . S
O139 C152 1.252 . S
C140 O129 1.284 . S
C140 O132 1.250 1_545 S
C141 H110 0.929 . S
C141 C126 1.437 . S
C141 C142 1.317 . S
C142 H113 0.930 . S
C142 C118 1.431 . S
C142 C141 1.317 . S
C143 Gd84 2.828 . S
C143 O128 1.258 . S
C143 O133 1.252 . S
C143 C144 1.497 . S
C144 C143 1.497 . S
C144 C145 1.395 . S
C144 C146 1.380 . S
C145 C144 1.395 . S
C145 C148 1.398 . S
C145 H160 0.930 . S
C146 C144 1.380 . S
C146 C147 1.391 . S
C146 H161 0.930 . S
C147 C146 1.391 . S
C147 C149 1.387 . S
C148 C145 1.398 . S
C148 C149 1.380 . S
C148 H162 0.930 . S
C149 C147 1.387 . S
C149 C148 1.380 . S
C149 H163 0.930 . S
C150 O130 1.254 . S
C150 O131 1.268 . S
C151 O135 1.283 1_655 S
C151 O138 1.250 1_655 S
C152 Gd85 2.828 . S
C152 O134 1.258 . S
C152 O139 1.252 . S
C152 C153 1.497 . S
C153 C152 1.497 . S
C153 C154 1.395 . S
C153 C155 1.380 . S
C154 C153 1.395 . S
C154 C157 1.398 . S
C154 H164 0.930 . S
C155 C153 1.380 . S
C155 C156 1.391 . S
C155 H165 0.930 . S
C156 C155 1.391 . S
C156 C158 1.387 . S
C157 C154 1.398 . S
C157 C158 1.380 . S
C157 H166 0.930 . S
C158 C156 1.387 . S
C158 C157 1.380 . S
C158 H167 0.930 . S
C159 O136 1.254 . S
C159 O137 1.268 . S
H160 C145 0.930 . S
H161 C146 0.930 . S
H162 C148 0.930 . S
H163 C149 0.930 . S
H164 C154 0.930 . S
H165 C155 0.930 . S
H166 C157 0.930 . S
H167 C158 0.930 . S
Gd168 N199 2.661 . S
Gd168 N205 2.601 . S
Gd168 O212 2.545 . S
Gd168 O213 2.606 1_545 S
Gd168 O215 2.429 . S
Gd168 O216 2.545 . S
Gd168 O217 2.412 . S
Gd168 O219 2.362 . S
Gd168 O220 2.324 . S
Gd168 C227 2.828 . S
Gd169 N178 2.661 . S
Gd169 N182 2.601 . S
Gd169 O213 2.362 . S
Gd169 O214 2.324 . S
Gd169 O218 2.545 . S
Gd169 O219 2.606 1_565 S
Gd169 O221 2.429 . S
Gd169 O222 2.545 1_455 S
Gd169 O223 2.412 . S
Gd169 C236 2.828 . S
C170 C173 1.417 . S
C170 C175 1.431 . S
C170 C176 1.412 . S
C171 C174 1.437 . S
C171 C175 1.317 . S
C171 H190 0.929 . S
C172 C173 1.426 . S
C172 C174 1.413 . S
C172 N182 1.359 . S
C173 C170 1.417 . S
C173 C172 1.426 . S
C173 N178 1.350 . S
C174 C171 1.437 . S
C174 C172 1.413 . S
C174 C184 1.391 . S
C175 C170 1.431 . S
C175 C171 1.317 . S
C175 H186 0.930 . S
C176 C170 1.412 . S
C176 C177 1.355 . S
C176 H188 0.930 . S
C177 C176 1.355 . S
C177 C179 1.402 . S
C177 H189 0.930 . S
N178 Gd169 2.661 . S
N178 C173 1.350 . S
N178 C179 1.307 . S
C179 C177 1.402 . S
C179 N178 1.307 . S
C179 H180 0.930 . S
H180 C179 0.930 . S
C181 N182 1.334 . S
C181 C183 1.394 . S
C181 H185 0.930 . S
N182 Gd169 2.601 . S
N182 C172 1.359 . S
N182 C181 1.334 . S
C183 C181 1.394 . S
C183 C184 1.359 . S
C183 H195 0.930 . S
C184 C174 1.391 . S
C184 C183 1.359 . S
C184 H196 0.929 . S
H185 C181 0.930 . S
H186 C175 0.930 . S
H187 C204 0.930 . S
H188 C176 0.930 . S
H189 C177 0.930 . S
H190 C171 0.929 . S
H191 C209 0.930 . S
H192 C200 0.930 . S
H193 C201 0.930 1_655 S
H194 C225 0.929 . S
H195 C183 0.930 . S
H196 C184 0.929 . S
H197 C226 0.930 . S
H198 C207 0.930 . S
N199 Gd168 2.661 . S
N199 C203 1.350 . S
N199 C204 1.307 . S
C200 H192 0.930 . S
C200 C201 1.355 1_655 S
C200 C202 1.412 1_655 S
C201 H193 0.930 1_455 S
C201 C200 1.355 1_455 S
C201 C204 1.402 . S
C202 C200 1.412 1_455 S
C202 C203 1.417 . S
C202 C226 1.431 1_455 S
C203 N199 1.350 . S
C203 C202 1.417 . S
C203 C206 1.426 . S
C204 H187 0.930 . S
C204 N199 1.307 . S
C204 C201 1.402 . S
N205 Gd168 2.601 . S
N205 C206 1.359 . S
N205 C209 1.334 . S
C206 C203 1.426 . S
C206 N205 1.359 . S
C206 C210 1.413 . S
C207 H198 0.930 . S
C207 C208 1.359 . S
C207 C209 1.394 . S
C208 C207 1.359 . S
C208 C210 1.391 . S
C208 H211 0.929 . S
C209 H191 0.930 . S
C209 N205 1.334 . S
C209 C207 1.394 . S
C210 C206 1.413 . S
C210 C208 1.391 . S
C210 C225 1.437 . S
H211 C208 0.929 . S
O212 Gd168 2.545 . S
O212 C227 1.258 . S
O213 Gd168 2.606 1_565 S
O213 Gd169 2.362 . S
O213 C224 1.284 1_565 S
O214 Gd169 2.324 . S
O214 C234 1.254 1_565 S
O215 Gd168 2.429 . S
O215 C234 1.268 . S
O216 Gd168 2.545 . S
O216 C224 1.250 . S
O217 Gd168 2.412 . S
O217 C227 1.252 . S
O218 Gd169 2.545 . S
O218 C236 1.258 . S
O219 Gd168 2.362 . S
O219 Gd169 2.606 1_545 S
O219 C235 1.284 1_545 S
O220 Gd168 2.324 . S
O220 C243 1.254 1_545 S
O221 Gd169 2.429 . S
O221 C243 1.268 . S
O222 Gd169 2.545 1_655 S
O222 C235 1.250 1_655 S
O223 Gd169 2.412 . S
O223 C236 1.252 . S
C224 O213 1.284 1_545 S
C224 O216 1.250 . S
C225 H194 0.929 . S
C225 C210 1.437 . S
C225 C226 1.317 1_455 S
C226 H197 0.930 . S
C226 C202 1.431 1_655 S
C226 C225 1.317 1_655 S
C227 Gd168 2.828 . S
C227 O212 1.258 . S
C227 O217 1.252 . S
C227 C228 1.497 . S
C228 C227 1.497 . S
C228 C229 1.395 . S
C228 C230 1.380 . S
C229 C228 1.395 . S
C229 C232 1.398 . S
C229 H244 0.930 . S
C230 C228 1.380 . S
C230 C231 1.391 . S
C230 H245 0.930 . S
C231 C230 1.391 . S
C231 C233 1.387 . S
C232 C229 1.398 . S
C232 C233 1.380 . S
C232 H246 0.930 . S
C233 C231 1.387 . S
C233 C232 1.380 . S
C233 H247 0.930 . S
C234 O214 1.254 1_545 S
C234 O215 1.268 . S
C235 O219 1.284 1_565 S
C235 O222 1.250 1_455 S
C236 Gd169 2.828 . S
C236 O218 1.258 . S
C236 O223 1.252 . S
C236 C237 1.497 1_455 S
C237 C236 1.497 1_655 S
C237 C238 1.395 . S
C237 C239 1.380 . S
C238 C237 1.395 . S
C238 C241 1.398 . S
C238 H248 0.930 . S
C239 C237 1.380 . S
C239 C240 1.391 . S
C239 H249 0.930 . S
C240 C239 1.391 . S
C240 C242 1.387 . S
C241 C238 1.398 . S
C241 C242 1.380 . S
C241 H250 0.930 . S
C242 C240 1.387 . S
C242 C241 1.380 . S
C242 H251 0.930 . S
C243 O220 1.254 1_565 S
C243 O221 1.268 . S
H244 C229 0.930 . S
H245 C230 0.930 . S
H246 C232 0.930 . S
H247 C233 0.930 . S
H248 C238 0.930 . S
H249 C239 0.930 . S
H250 C241 0.930 . S
H251 C242 0.930 . S
H252 C260 0.950 . S
H253 C265 0.950 . S
H254 C262 0.950 . S
H255 C264 0.950 . S
H256 C266 0.950 . S
H257 C268 0.950 . S
H258 C270 0.950 . S
H259 C271 0.950 . S
C260 H252 0.950 . S
C260 C261 1.386 . S
C260 C262 1.391 . S
C261 C260 1.386 . S
C261 C265 1.393 1_654 S
C262 H254 0.950 . S
C262 C260 1.391 . S
C262 C263 1.400 . S
C263 C262 1.400 . S
C263 C264 1.398 1_654 S
C263 C269 1.491 1_655 S
C264 H255 0.950 . S
C264 C263 1.398 1_456 S
C264 C265 1.391 . S
C265 H253 0.950 . S
C265 C261 1.393 1_456 S
C265 C264 1.391 . S
C266 H256 0.950 . S
C266 C267 1.386 1_556 S
C266 C268 1.391 . S
C267 C266 1.386 1_554 S
C267 C271 1.393 1_455 S
C268 H257 0.950 . S
C268 C266 1.391 . S
C268 C269 1.400 1_556 S
C269 C263 1.491 1_455 S
C269 C268 1.400 1_554 S
C269 C270 1.398 1_455 S
C270 H258 0.950 . S
C270 C269 1.398 1_655 S
C270 C271 1.391 . S
C271 H259 0.950 . S
C271 C267 1.393 1_655 S
C271 C270 1.391 . S
H272 C280 0.950 . S
H273 C285 0.950 . S
H274 C282 0.950 . S
H275 C284 0.950 . S
H276 C286 0.950 . S
H277 C288 0.950 . S
H278 C290 0.950 . S
H279 C291 0.950 . S
C280 H272 0.950 . S
C280 C281 1.386 . S
C280 C282 1.391 . S
C281 C280 1.386 . S
C281 C285 1.393 . S
C282 H274 0.950 . S
C282 C280 1.391 . S
C282 C283 1.400 . S
C283 C282 1.400 . S
C283 C284 1.398 . S
C283 C289 1.491 . S
C284 H275 0.950 . S
C284 C283 1.398 . S
C284 C285 1.391 . S
C285 H273 0.950 . S
C285 C281 1.393 . S
C285 C284 1.391 . S
C286 H276 0.950 . S
C286 C287 1.386 . S
C286 C288 1.391 . S
C287 C286 1.386 . S
C287 C291 1.393 . S
C288 H277 0.950 . S
C288 C286 1.391 . S
C288 C289 1.400 . S
C289 C283 1.491 . S
C289 C288 1.400 . S
C289 C290 1.398 . S
C290 H278 0.950 . S
C290 C289 1.398 . S
C290 C291 1.391 . S
C291 H279 0.950 . S
C291 C287 1.393 . S
C291 C290 1.391 . S
H292 C300 0.950 . S
H293 C305 0.950 . S
H294 C302 0.950 . S
H295 C304 0.950 . S
H296 C306 0.950 . S
H297 C308 0.950 . S
H298 C310 0.950 . S
H299 C311 0.950 . S
C300 H292 0.950 . S
C300 C301 1.386 . S
C300 C302 1.391 . S
C301 C300 1.386 . S
C301 C305 1.393 . S
C302 H294 0.950 . S
C302 C300 1.391 . S
C302 C303 1.400 . S
C303 C302 1.400 . S
C303 C304 1.398 . S
C303 C309 1.491 . S
C304 H295 0.950 . S
C304 C303 1.398 . S
C304 C305 1.391 . S
C305 H293 0.950 . S
C305 C301 1.393 . S
C305 C304 1.391 . S
C306 H296 0.950 . S
C306 C307 1.386 . S
C306 C308 1.391 . S
C307 C306 1.386 . S
C307 C311 1.393 . S
C308 H297 0.950 . S
C308 C306 1.391 . S
C308 C309 1.400 . S
C309 C303 1.491 . S
C309 C308 1.400 . S
C309 C310 1.398 . S
C310 H298 0.950 . S
C310 C309 1.398 . S
C310 C311 1.391 . S
C311 H299 0.950 . S
C311 C307 1.393 . S
C311 C310 1.391 . S
H312 C320 0.950 . S
H313 C325 0.950 . S
H314 C322 0.950 . S
H315 C324 0.950 . S
H316 C326 0.950 . S
H317 C328 0.950 . S
H318 C330 0.950 . S
H319 C331 0.950 . S
C320 H312 0.950 . S
C320 C321 1.386 1_565 S
C320 C322 1.391 . S
C321 C320 1.386 1_545 S
C321 C325 1.393 . S
C322 H314 0.950 . S
C322 C320 1.391 . S
C322 C323 1.400 1_565 S
C323 C322 1.400 1_545 S
C323 C324 1.398 . S
C323 C329 1.494 1_545 S
C324 H315 0.950 . S
C324 C323 1.398 . S
C324 C325 1.391 . S
C325 H313 0.950 . S
C325 C321 1.393 . S
C325 C324 1.391 . S
C326 H316 0.950 . S
C326 C327 1.386 1_545 S
C326 C328 1.391 . S
C327 C326 1.386 1_565 S
C327 C331 1.393 . S
C328 H317 0.950 . S
C328 C326 1.391 . S
C328 C329 1.387 1_545 S
C329 C323 1.494 1_565 S
C329 C328 1.387 1_565 S
C329 C330 1.408 . S
C330 H318 0.950 . S
C330 C329 1.408 . S
C330 C331 1.391 . S
C331 H319 0.950 . S
C331 C327 1.393 . S
C331 C330 1.391 . S
H332 C340 0.950 . S
H333 C345 0.950 . S
H334 C342 0.950 . S
H335 C344 0.950 . S
H336 C346 0.950 . S
H337 C348 0.950 . S
H338 C350 0.950 . S
H339 C351 0.950 . S
C340 H332 0.950 . S
C340 C341 1.386 . S
C340 C342 1.391 . S
C341 C340 1.386 . S
C341 C345 1.393 1_554 S
C342 H334 0.950 . S
C342 C340 1.391 . S
C342 C343 1.400 . S
C343 C342 1.400 . S
C343 C344 1.398 1_554 S
C343 C349 1.491 . S
C344 H335 0.950 . S
C344 C343 1.398 1_556 S
C344 C345 1.391 . S
C345 H333 0.950 . S
C345 C341 1.393 1_556 S
C345 C344 1.391 . S
C346 H336 0.950 . S
C346 C347 1.386 1_556 S
C346 C348 1.391 . S
C347 C346 1.386 1_554 S
C347 C351 1.393 . S
C348 H337 0.950 . S
C348 C346 1.391 . S
C348 C349 1.400 1_556 S
C349 C343 1.491 . S
C349 C348 1.400 1_554 S
C349 C350 1.398 . S
C350 H338 0.950 . S
C350 C349 1.398 . S
C350 C351 1.391 . S
C351 H339 0.950 . S
C351 C347 1.393 . S
C351 C350 1.391 . S
H352 C360 0.950 . S
H353 C365 0.950 . S
H354 C362 0.950 . S
H355 C364 0.950 1_655 S
H356 C366 0.950 . S
H357 C368 0.950 . S
H358 C370 0.950 . S
H359 C371 0.950 . S
C360 H352 0.950 . S
C360 C361 1.386 . S
C360 C362 1.391 . S
C361 C360 1.386 . S
C361 C365 1.393 1_455 S
C362 H354 0.950 . S
C362 C360 1.391 . S
C362 C363 1.400 . S
C363 C362 1.400 . S
C363 C364 1.398 . S
C363 C369 1.491 . S
C364 H355 0.950 1_455 S
C364 C363 1.398 . S
C364 C365 1.391 1_455 S
C365 H353 0.950 . S
C365 C361 1.393 1_655 S
C365 C364 1.391 1_655 S
C366 H356 0.950 . S
C366 C367 1.386 . S
C366 C368 1.391 . S
C367 C366 1.386 . S
C367 C371 1.393 . S
C368 H357 0.950 . S
C368 C366 1.391 . S
C368 C369 1.400 . S
C369 C363 1.491 . S
C369 C368 1.400 . S
C369 C370 1.398 . S
C370 H358 0.950 . S
C370 C369 1.398 . S
C370 C371 1.391 . S
C371 H359 0.950 . S
C371 C367 1.393 . S
C371 C370 1.391 . S
H372 C380 0.950 . S
H373 C385 0.950 1_565 S
H374 C382 0.950 . S
H375 C384 0.950 1_565 S
H376 C386 0.950 1_565 S
H377 C388 0.950 1_565 S
H378 C390 0.950 . S
H379 C391 0.950 . S
C380 H372 0.950 . S
C380 C381 1.386 . S
C380 C382 1.391 . S
C381 C380 1.386 . S
C381 C385 1.393 . S
C382 H374 0.950 . S
C382 C380 1.391 . S
C382 C383 1.400 . S
C383 C382 1.400 . S
C383 C384 1.398 . S
C383 C389 1.491 . S
C384 H375 0.950 1_545 S
C384 C383 1.398 . S
C384 C385 1.391 . S
C385 H373 0.950 1_545 S
C385 C381 1.393 . S
C385 C384 1.391 . S
C386 H376 0.950 1_545 S
C386 C387 1.386 . S
C386 C388 1.391 . S
C387 C386 1.386 . S
C387 C391 1.393 1_655 S
C388 H377 0.950 1_545 S
C388 C386 1.391 . S
C388 C389 1.400 1_655 S
C389 C383 1.491 . S
C389 C388 1.400 1_455 S
C389 C390 1.398 . S
C390 H378 0.950 . S
C390 C389 1.398 . S
C390 C391 1.391 . S
C391 H379 0.950 . S
C391 C387 1.393 1_455 S
C391 C390 1.391 . S
H392 C400 0.950 . S
H393 C405 0.950 1_565 S
H394 C402 0.950 . S
H395 C404 0.950 . S
H396 C406 0.950 . S
H397 C408 0.950 . S
H398 C410 0.950 . S
H399 C411 0.950 . S
C400 H392 0.950 . S
C400 C401 1.386 . S
C400 C402 1.391 . S
C401 C400 1.386 . S
C401 C405 1.393 . S
C402 H394 0.950 . S
C402 C400 1.391 . S
C402 C403 1.400 . S
C403 C402 1.400 . S
C403 C404 1.398 1_545 S
C403 C409 1.491 . S
C404 H395 0.950 . S
C404 C403 1.398 1_565 S
C404 C405 1.391 1_565 S
C405 H393 0.950 1_545 S
C405 C401 1.393 . S
C405 C404 1.391 1_545 S
C406 H396 0.950 . S
C406 C407 1.386 1_565 S
C406 C408 1.391 . S
C407 C406 1.386 1_545 S
C407 C411 1.393 . S
C408 H397 0.950 . S
C408 C406 1.391 . S
C408 C409 1.400 1_565 S
C409 C403 1.491 . S
C409 C408 1.400 1_545 S
C409 C410 1.398 . S
C410 H398 0.950 . S
C410 C409 1.398 . S
C410 C411 1.391 . S
C411 H399 0.950 . S
C411 C407 1.393 . S
C411 C410 1.391 . S
H412 C420 0.950 . S
H413 C425 0.950 . S
H414 C422 0.950 . S
H415 C424 0.950 1_665 S
H416 C426 0.950 . S
H417 C428 0.950 . S
H418 C430 0.950 . S
H419 C431 0.950 . S
C420 H412 0.950 . S
C420 C421 1.386 . S
C420 C422 1.391 . S
C421 C420 1.386 . S
C421 C425 1.393 1_545 S
C422 H414 0.950 . S
C422 C420 1.391 . S
C422 C423 1.400 . S
C423 C422 1.400 . S
C423 C424 1.398 . S
C423 C429 1.491 . S
C424 H415 0.950 1_445 S
C424 C423 1.398 . S
C424 C425 1.391 1_545 S
C425 H413 0.950 . S
C425 C421 1.393 1_565 S
C425 C424 1.391 1_565 S
C426 H416 0.950 . S
C426 C427 1.386 1_655 S
C426 C428 1.391 . S
C427 C426 1.386 1_455 S
C427 C431 1.393 . S
C428 H417 0.950 . S
C428 C426 1.391 . S
C428 C429 1.400 1_655 S
C429 C423 1.491 . S
C429 C428 1.400 1_455 S
C429 C430 1.398 . S
C430 H418 0.950 . S
C430 C429 1.398 . S
C430 C431 1.391 . S
C431 H419 0.950 . S
C431 C427 1.393 . S
C431 C430 1.391 . S
C261 C67 4.264 1_655 S
C267 C56 4.264 1_455 S
C281 C140 2.709 . S
C287 C151 2.711 . S
C301 C240 0.681 . S
C307 C231 0.681 . S
C321 C235 2.604 1_645 S
C327 C224 2.604 1_565 S
C341 C63 0.736 . S
C347 C72 0.736 . S
C361 C156 1.237 . S
C367 C147 1.237 . S
C381 C150 1.557 . S
C387 C75 1.574 . S
C401 C159 1.589 . S
C407 C243 1.573 1_545 S
C421 C234 1.628 . S
C427 C66 1.564 . S
