# Generated by pormake.
# Topology mdf, (4)-cn, num edge types: 1
# Building blocks:
#     Node 0, Type 0, BuildingBlock: QUQFOY_clean_sbu_1, # of connection points: 4
#     Node 1, Type 0, BuildingBlock: QUQFOY_clean_sbu_1, # of connection points: 4
#     Node 2, Type 0, BuildingBlock: QUQFOY_clean_sbu_1, # of connection points: 4
#     Node 3, Type 0, BuildingBlock: QUQFOY_clean_sbu_1, # of connection points: 4
#     Node 4, Type 0, BuildingBlock: QUQFOY_clean_sbu_1, # of connection points: 4
#     Node 5, Type 0, BuildingBlock: QUQFOY_clean_sbu_1, # of connection points: 4
#     Node 6, Type 0, BuildingBlock: QUQFOY_clean_sbu_1, # of connection points: 4
#     Node 7, Type 0, BuildingBlock: QUQFOY_clean_sbu_1, # of connection points: 4
#     Edge 8, Type (0, 0), BuildingBlock: TEMPAE_clean_linker_10, # of connection points: 2
#     Edge 9, Type (0, 0), BuildingBlock: TEMPAE_clean_linker_10, # of connection points: 2
#     Edge 10, Type (0, 0), BuildingBlock: TEMPAE_clean_linker_10, # of connection points: 2
#     Edge 11, Type (0, 0), BuildingBlock: TEMPAE_clean_linker_10, # of connection points: 2
#     Edge 12, Type (0, 0), BuildingBlock: TEMPAE_clean_linker_10, # of connection points: 2
#     Edge 13, Type (0, 0), BuildingBlock: TEMPAE_clean_linker_10, # of connection points: 2
#     Edge 14, Type (0, 0), BuildingBlock: TEMPAE_clean_linker_10, # of connection points: 2
#     Edge 15, Type (0, 0), BuildingBlock: TEMPAE_clean_linker_10, # of connection points: 2
#     Edge 16, Type (0, 0), BuildingBlock: TEMPAE_clean_linker_10, # of connection points: 2
#     Edge 17, Type (0, 0), BuildingBlock: TEMPAE_clean_linker_10, # of connection points: 2
#     Edge 18, Type (0, 0), BuildingBlock: TEMPAE_clean_linker_10, # of connection points: 2
#     Edge 19, Type (0, 0), BuildingBlock: TEMPAE_clean_linker_10, # of connection points: 2
#     Edge 20, Type (0, 0), BuildingBlock: TEMPAE_clean_linker_10, # of connection points: 2
#     Edge 21, Type (0, 0), BuildingBlock: TEMPAE_clean_linker_10, # of connection points: 2
#     Edge 22, Type (0, 0), BuildingBlock: TEMPAE_clean_linker_10, # of connection points: 2
#     Edge 23, Type (0, 0), BuildingBlock: TEMPAE_clean_linker_10, # of connection points: 2
# Relax obj value: 0.009
# Max RMSD: 0.065
# Mean RMSD: 0.065
data_MOF--net-mdf--node1-QUQFOY_clean_sbu_1--edge1-TEMPAE_clean_linker_10
_symmetry_space_group_name_H-M    P1
_symmetry_Int_Tables_number       1
_symmetry_cell_setting            triclinic
loop_
_symmetry_equiv_pos_as_xyz
'x, y, z'
_cell_length_a     39.74799
_cell_length_b     39.745189
_cell_length_c     12.561948
_cell_angle_alpha  90.03541
_cell_angle_beta   90.058654
_cell_angle_gamma 90.185948
loop_
_atom_site_label
_atom_site_type_symbol
_atom_site_fract_x
_atom_site_fract_y
_atom_site_fract_z
_atom_type_partial_charge
O0 O 0.31539 0.50449 0.34504 0.0
Cd1 Cd 0.27602 0.53046 0.27674 0.0
Cd2 Cd 0.2537 0.53113 0.4803 0.0
O3 O 0.2982 0.50575 0.51209 0.0
O4 O 0.29429 0.54638 0.13758 0.0
O5 O 0.27991 0.58105 0.26722 0.0
C6 C 0.29281 0.57671 0.17382 0.0
C7 C 0.23605 0.57774 0.57927 0.0
C8 C 0.31971 0.49701 0.44242 0.0
C9 C 0.21076 0.49461 0.31876 0.0
O10 O 0.215 0.50322 0.41527 0.0
O11 O 0.23196 0.50341 0.24798 0.0
O12 O 0.23506 0.54769 0.61788 0.0
O13 O 0.2489 0.58165 0.48559 0.0
O14 O 0.52372 0.71287 0.6439 0.0
Cd15 Cd 0.49821 0.75218 0.71427 0.0
Cd16 Cd 0.49774 0.77547 0.51186 0.0
O17 O 0.52293 0.73106 0.47784 0.0
O18 O 0.48245 0.73339 0.85292 0.0
O19 O 0.44761 0.74867 0.72476 0.0
C20 C 0.45205 0.73529 0.81745 0.0
C21 C 0.45087 0.79357 0.41499 0.0
C22 C 0.5313 0.70906 0.54642 0.0
C23 C 0.53456 0.81742 0.67502 0.0
O24 O 0.52585 0.81374 0.57837 0.0
O25 O 0.52569 0.7959 0.74475 0.0
O26 O 0.48081 0.79474 0.37558 0.0
O27 O 0.44724 0.78033 0.50824 0.0
O28 O 0.30724 0.03213 0.92821 0.0
Cd29 Cd 0.27052 1.00053 0.98597 0.0
Cd30 Cd 0.25425 0.99603 0.78029 0.0
O31 O 0.30071 0.01986 0.758 0.0
O32 O 0.28778 0.98311 0.12446 0.0
O33 O 0.27833 0.95056 0.98456 0.0
C34 C 0.28916 0.95369 0.08113 0.0
C35 C 0.2372 0.94905 0.68038 0.0
C36 C 0.3166 0.03504 0.83205 0.0
C37 C 0.20611 0.03236 0.92919 0.0
O38 O 0.21443 0.02536 0.83394 0.0
O39 O 0.22421 0.02262 0.0067 0.0
O40 O 0.2382 0.9788 0.6395 0.0
O41 O 0.24777 0.94558 0.77701 0.0
O42 O 0.99773 0.71863 0.07164 0.0
Cd43 Cd 0.02915 0.75589 0.01623 0.0
Cd44 Cd 0.0326 0.77144 0.22282 0.0
O45 O 1.00883 0.72486 0.24272 0.0
O46 O 0.0467 0.73937 0.87705 0.0
O47 O 0.0792 0.74833 0.01738 0.0
C48 C 0.07613 0.73793 0.92033 0.0
C49 C 0.07923 0.78842 0.32441 0.0
C50 C 0.99424 0.70902 0.1674 0.0
C51 C 0.99665 0.81995 0.07437 0.0
O52 O 1.00334 0.81132 0.16958 0.0
O53 O 1.00675 0.80216 0.99663 0.0
O54 O 0.0494 0.78707 0.36456 0.0
O55 O 0.083 0.77816 0.22756 0.0
O56 O 0.81624 1.00397 0.85366 0.0
Cd57 Cd 0.77693 0.02974 0.7842 0.0
Cd58 Cd 0.75395 0.03012 0.98687 0.0
O59 O 0.79832 1.00471 0.02 0.0
O60 O 0.79552 0.04574 0.64555 0.0
O61 O 0.78052 0.08036 0.77461 0.0
C62 C 0.79372 0.07608 0.6816 0.0
C63 C 0.73611 0.07693 0.08444 0.0
C64 C 0.82017 0.99627 0.95103 0.0
C65 C 0.71163 0.9936 0.82394 0.0
O66 O 0.71548 1.0022 0.92061 0.0
O67 O 0.73308 1.00247 0.75399 0.0
O68 O 0.73491 0.04695 0.12357 0.0
O69 O 0.74925 0.08064 0.99109 0.0
O70 O 0.02304 0.21346 0.15096 0.0
Cd71 Cd 0.99739 0.25284 0.22033 0.0
Cd72 Cd 0.99654 0.2755 0.01712 0.0
O73 O 0.0218 0.23103 0.98426 0.0
O74 O 0.98181 0.23439 0.35963 0.0
O75 O 0.94681 0.24906 0.23116 0.0
C76 C 0.95139 0.23598 0.32421 0.0
C77 C 0.94975 0.29327 0.91918 0.0
C78 C 0.03043 0.20932 0.05346 0.0
C79 C 0.03339 0.31808 0.17874 0.0
O80 O 0.02461 0.31405 0.0823 0.0
O81 O 0.02466 0.29677 0.24927 0.0
O82 O 0.97973 0.29435 0.8801 0.0
O83 O 0.94602 0.28031 0.01278 0.0
O84 O 0.80786 0.53073 0.42606 0.0
Cd85 Cd 0.77068 0.49937 0.48226 0.0
Cd86 Cd 0.75516 0.49528 0.27598 0.0
O87 O 0.80184 0.5188 0.25546 0.0
O88 O 0.78727 0.48205 0.62171 0.0
O89 O 0.7783 0.44934 0.48188 0.0
C90 C 0.78873 0.45256 0.57886 0.0
C91 C 0.73809 0.44834 0.17598 0.0
C92 C 0.81758 0.53375 0.33027 0.0
C93 C 0.7067 0.53176 0.42323 0.0
O94 O 0.71537 0.52488 0.32821 0.0
O95 O 0.72441 0.52173 0.50129 0.0
O96 O 0.73951 0.47803 0.13478 0.0
O97 O 0.74828 0.44489 0.27303 0.0
O98 O 0.49698 0.21915 0.56867 0.0
Cd99 Cd 0.52838 0.25627 0.51235 0.0
Cd100 Cd 0.5317 0.27255 0.71852 0.0
O101 O 0.50754 0.22622 0.73976 0.0
O102 O 0.54615 0.23929 0.374 0.0
O103 O 0.57843 0.24881 0.51445 0.0
C104 C 0.57552 0.23805 0.41776 0.0
C105 C 0.57836 0.28946 0.82012 0.0
C106 C 0.49317 0.21002 0.66478 0.0
C107 C 0.49602 0.32064 0.56796 0.0
O108 O 0.5028 0.31247 0.6635 0.0
O109 O 0.5059 0.30241 0.49095 0.0
O110 O 0.54846 0.28858 0.85989 0.0
O111 O 0.58215 0.27881 0.7237 0.0
C112 C 0.39075 0.72049 0.8381 0.0
C113 C 0.42385 0.71952 0.87712 0.0
C114 C 0.36496 0.70156 0.88655 0.0
C115 C 0.37259 0.6808 0.97496 0.0
C116 C 0.40557 0.68113 0.01781 0.0
C117 C 0.43066 0.70061 0.96891 0.0
C118 C 0.32995 0.70254 0.84001 0.0
C119 C 0.41494 0.65929 0.11161 0.0
C120 C 0.30828 0.63788 0.15437 0.0
C121 C 0.30858 0.60492 0.11413 0.0
C122 C 0.32734 0.66358 0.10588 0.0
C123 C 0.34752 0.65598 0.01614 0.0
C124 C 0.34643 0.62319 0.97202 0.0
C125 C 0.32685 0.5982 0.02104 0.0
C126 C 0.32716 0.69841 0.15383 0.0
C127 C 0.36762 0.61386 0.87673 0.0
H128 H 0.38518 0.7352 0.76765 0.0
H129 H 0.45608 0.69976 9e-05 0.0
H130 H 0.32465 0.67855 0.79795 0.0
H131 H 0.31091 0.7052 0.90398 0.0
H132 H 0.32687 0.72354 0.78252 0.0
H133 H 0.44103 0.6641 0.13973 0.0
H134 H 0.3974 0.66364 0.17879 0.0
H135 H 0.41277 0.63239 0.08883 0.0
H136 H 0.29406 0.6434 0.22582 0.0
H137 H 0.32716 0.57288 0.98889 0.0
H138 H 0.32452 0.71776 0.09074 0.0
H139 H 0.35142 0.70314 0.19498 0.0
H140 H 0.30648 0.7016 0.21239 0.0
H141 H 0.3633 0.63181 0.8106 0.0
H142 H 0.36216 0.58801 0.84763 0.0
H143 H 0.39467 0.6154 0.89831 0.0
C144 C 0.38954 0.80831 0.39941 0.0
C145 C 0.4224 0.80991 0.35883 0.0
C146 C 0.36348 0.82749 0.35403 0.0
C147 C 0.37066 0.84919 0.26747 0.0
C148 C 0.40341 0.84964 0.22324 0.0
C149 C 0.42874 0.82982 0.26883 0.0
C150 C 0.32867 0.82564 0.40166 0.0
C151 C 0.4123 0.87257 0.13152 0.0
C152 C 0.30562 0.89278 0.0936 0.0
C153 C 0.30562 0.9253 0.13728 0.0
C154 C 0.32497 0.86693 0.13929 0.0
C155 C 0.34527 0.874 0.22939 0.0
C156 C 0.34402 0.90632 0.27673 0.0
C157 C 0.32402 0.93144 0.23068 0.0
C158 C 0.32491 0.83255 0.08817 0.0
C159 C 0.36545 0.91508 0.37227 0.0
H160 H 0.38434 0.79281 0.46846 0.0
H161 H 0.45399 0.83119 0.23662 0.0
H162 H 0.32335 0.84921 0.44578 0.0
H163 H 0.3094 0.82323 0.3381 0.0
H164 H 0.32597 0.80415 0.45752 0.0
H165 H 0.43836 0.86851 0.10244 0.0
H166 H 0.39464 0.86858 0.06426 0.0
H167 H 0.40989 0.8992 0.15699 0.0
H168 H 0.29124 0.88773 0.02195 0.0
H169 H 0.32415 0.95644 0.26523 0.0
H170 H 0.32248 0.81262 0.1495 0.0
H171 H 0.34913 0.82849 0.04638 0.0
H172 H 0.30416 0.82965 0.02953 0.0
H173 H 0.36148 0.89649 0.43685 0.0
H174 H 0.35991 0.94059 0.40382 0.0
H175 H 0.39244 0.91412 0.34985 0.0
C176 C 0.1402 0.80467 0.34392 0.0
C177 C 0.10726 0.80455 0.38414 0.0
C178 C 0.16572 0.82391 0.39285 0.0
C179 C 0.1579 0.84404 0.4826 0.0
C180 C 0.1251 0.84267 0.52638 0.0
C181 C 0.10034 0.82274 0.4773 0.0
C182 C 0.20062 0.82389 0.34559 0.0
C183 C 0.11548 0.86392 0.62129 0.0
C184 C 0.22193 0.88779 0.66177 0.0
C185 C 0.22123 0.92074 0.62159 0.0
C186 C 0.20309 0.86187 0.61335 0.0
C187 C 0.18253 0.86928 0.52423 0.0
C188 C 0.18296 0.90215 0.4807 0.0
C189 C 0.20252 0.92732 0.5292 0.0
C190 C 0.20409 0.82694 0.66032 0.0
C191 C 0.16119 0.91134 0.3865 0.0
H192 H 0.14586 0.79049 0.27245 0.0
H193 H 0.07501 0.8228 0.5092 0.0
H194 H 0.20532 0.84818 0.30466 0.0
H195 H 0.21987 0.82133 0.40908 0.0
H196 H 0.20398 0.80323 0.28698 0.0
H197 H 0.08957 0.85844 0.64964 0.0
H198 H 0.13326 0.8597 0.68798 0.0
H199 H 0.11702 0.89096 0.59966 0.0
H200 H 0.23651 0.88241 0.73267 0.0
H201 H 0.2018 0.95265 0.4974 0.0
H202 H 0.20707 0.80783 0.5966 0.0
H203 H 0.17999 0.82155 0.70147 0.0
H204 H 0.22491 0.82405 0.71864 0.0
H205 H 0.16582 0.89387 0.3193 0.0
H206 H 0.16579 0.93748 0.35866 0.0
H207 H 0.13426 0.90889 0.40865 0.0
C208 C 0.09853 0.70396 0.76902 0.0
C209 C 0.10458 0.72184 0.86347 0.0
C210 C 0.12368 0.68422 0.72209 0.0
C211 C 0.15597 0.68272 0.76961 0.0
C212 C 0.16297 0.70254 0.8608 0.0
C213 C 0.13708 0.72163 0.90735 0.0
C214 C 0.11497 0.6633 0.62539 0.0
C215 C 0.19732 0.70234 0.91215 0.0
C216 C 0.19998 0.59934 0.72656 0.0
C217 C 0.21987 0.60603 0.63679 0.0
C218 C 0.18023 0.62451 0.77328 0.0
C219 C 0.18076 0.65747 0.73054 0.0
C220 C 0.20249 0.66499 0.64435 0.0
C221 C 0.22156 0.63908 0.59772 0.0
C222 C 0.15725 0.61524 0.8645 0.0
C223 C 0.20446 0.70002 0.59839 0.0
H224 H 0.07355 0.70401 0.73427 0.0
H225 H 0.14207 0.73561 0.97981 0.0
H226 H 0.1336 0.66761 0.56116 0.0
H227 H 0.11591 0.6362 0.64642 0.0
H228 H 0.08949 0.66902 0.59392 0.0
H229 H 0.20021 0.72284 0.97165 0.0
H230 H 0.20133 0.67794 0.95298 0.0
H231 H 0.21729 0.70501 0.85105 0.0
H232 H 0.19853 0.57394 0.7576 0.0
H233 H 0.23706 0.64454 0.52888 0.0
H234 H 0.13064 0.61784 0.83905 0.0
H235 H 0.16127 0.63256 0.93259 0.0
H236 H 0.16124 0.58903 0.89238 0.0
H237 H 0.18096 0.7056 0.55414 0.0
H238 H 0.22604 0.70294 0.54299 0.0
H239 H 0.20681 0.71898 0.66287 0.0
C240 C 0.80848 0.13741 0.66173 0.0
C241 C 0.80937 0.10438 0.6221 0.0
C242 C 0.82728 0.16331 0.61327 0.0
C243 C 0.84781 0.15584 0.52423 0.0
C244 C 0.84739 0.12295 0.48081 0.0
C245 C 0.82804 0.09776 0.52974 0.0
C246 C 0.82641 0.19823 0.66046 0.0
C247 C 0.86898 0.11376 0.38631 0.0
C248 C 0.89026 0.2205 0.34493 0.0
C249 C 0.92333 0.22013 0.38435 0.0
C250 C 0.86469 0.20136 0.39371 0.0
C251 C 0.87252 0.18101 0.4829 0.0
C252 C 0.90542 0.18201 0.52625 0.0
C253 C 0.93028 0.20169 0.47697 0.0
C254 C 0.82974 0.20162 0.34661 0.0
C255 C 0.91499 0.16065 0.62093 0.0
H256 H 0.79395 0.14285 0.73262 0.0
H257 H 0.82882 0.07239 0.4981 0.0
H258 H 0.85051 0.20347 0.70196 0.0
H259 H 0.82356 0.21738 0.59689 0.0
H260 H 0.80557 0.20119 0.71855 0.0
H261 H 0.86411 0.08772 0.35785 0.0
H262 H 0.86445 0.13142 0.31955 0.0
H263 H 0.89594 0.1159 0.40845 0.0
H264 H 0.88456 0.23485 0.27385 0.0
H265 H 0.95567 0.20132 0.5085 0.0
H266 H 0.81056 0.20412 0.41021 0.0
H267 H 0.82492 0.17744 0.30507 0.0
H268 H 0.8264 0.22242 0.28854 0.0
H269 H 0.89721 0.16483 0.68756 0.0
H270 H 0.94091 0.16606 0.64952 0.0
H271 H 0.91341 0.13364 0.59889 0.0
C272 C 0.88837 0.30765 0.90177 0.0
C273 C 0.92135 0.30944 0.8622 0.0
C274 C 0.86233 0.32665 0.8555 0.0
C275 C 0.86965 0.34839 0.76915 0.0
C276 C 0.90254 0.34904 0.72597 0.0
C277 C 0.92784 0.32937 0.77236 0.0
C278 C 0.82738 0.32457 0.90194 0.0
C279 C 0.91159 0.37203 0.63455 0.0
C280 C 0.80515 0.39167 0.59255 0.0
C281 C 0.80489 0.42421 0.63606 0.0
C282 C 0.82436 0.36589 0.63924 0.0
C283 C 0.84424 0.37304 0.73018 0.0
C284 C 0.84266 0.40537 0.77741 0.0
C285 C 0.82281 0.43041 0.73035 0.0
C286 C 0.82464 0.3315 0.58821 0.0
C287 C 0.86364 0.41423 0.87386 0.0
H288 H 0.88306 0.29213 0.97068 0.0
H289 H 0.95319 0.33089 0.74094 0.0
H290 H 0.82176 0.34808 0.94602 0.0
H291 H 0.80834 0.32208 0.83772 0.0
H292 H 0.82462 0.30302 0.95758 0.0
H293 H 0.93779 0.36818 0.60645 0.0
H294 H 0.89422 0.36789 0.56664 0.0
H295 H 0.90887 0.39864 0.65988 0.0
H296 H 0.79114 0.38656 0.52023 0.0
H297 H 0.82271 0.45542 0.76481 0.0
H298 H 0.82215 0.31155 0.64952 0.0
H299 H 0.84899 0.32756 0.5471 0.0
H300 H 0.80407 0.32846 0.529 0.0
H301 H 0.85952 0.3956 0.93823 0.0
H302 H 0.8578 0.43969 0.90526 0.0
H303 H 0.89072 0.41344 0.85255 0.0
C304 C 0.72171 0.38734 0.15863 0.0
C305 C 0.722 0.42012 0.11706 0.0
C306 C 0.70257 0.36165 0.11018 0.0
C307 C 0.68273 0.36914 0.0195 0.0
C308 C 0.68425 0.40178 0.97446 0.0
C309 C 0.70407 0.4267 0.02312 0.0
C310 C 0.7024 0.32694 0.15885 0.0
C311 C 0.6633 0.41104 0.87849 0.0
C312 C 0.63958 0.30457 0.84089 0.0
C313 C 0.60648 0.30546 0.87972 0.0
C314 C 0.66534 0.3235 0.88976 0.0
C315 C 0.65763 0.34436 0.97791 0.0
C316 C 0.6246 0.34409 0.0202 0.0
C317 C 0.59959 0.32443 0.97131 0.0
C318 C 0.70044 0.32231 0.8442 0.0
C319 C 0.61509 0.36617 0.1133 0.0
H320 H 0.73569 0.38194 0.23072 0.0
H321 H 0.70415 0.4519 0.99018 0.0
H322 H 0.67798 0.3224 0.19908 0.0
H323 H 0.70517 0.30744 0.09624 0.0
H324 H 0.72285 0.32379 0.21834 0.0
H325 H 0.66884 0.43686 0.84942 0.0
H326 H 0.66777 0.39304 0.81259 0.0
H327 H 0.6362 0.40953 0.89923 0.0
H328 H 0.6452 0.28978 0.77064 0.0
H329 H 0.57414 0.32529 0.00207 0.0
H330 H 0.71932 0.31957 0.90875 0.0
H331 H 0.70599 0.34625 0.80229 0.0
H332 H 0.70353 0.30126 0.78682 0.0
H333 H 0.63236 0.3618 0.18124 0.0
H334 H 0.58888 0.36163 0.14044 0.0
H335 H 0.61757 0.39302 0.09025 0.0
C336 C 0.69986 0.09895 0.23069 0.0
C337 C 0.71984 0.10537 0.14094 0.0
C338 C 0.68003 0.12424 0.27637 0.0
C339 C 0.68055 0.15706 0.23251 0.0
C340 C 0.70236 0.16433 0.14634 0.0
C341 C 0.72154 0.1383 0.10082 0.0
C342 C 0.65697 0.11525 0.36766 0.0
C343 C 0.70431 0.1992 0.09917 0.0
C344 C 0.59817 0.20352 0.26812 0.0
C345 C 0.60407 0.22178 0.36192 0.0
C346 C 0.62342 0.18364 0.22233 0.0
C347 C 0.65565 0.18238 0.27034 0.0
C348 C 0.66249 0.20258 0.36083 0.0
C349 C 0.63651 0.22181 0.40626 0.0
C350 C 0.61488 0.16232 0.12635 0.0
C351 C 0.69677 0.20264 0.41265 0.0
H352 H 0.69841 0.07365 0.26255 0.0
H353 H 0.73711 0.14356 0.03198 0.0
H354 H 0.66085 0.13284 0.43513 0.0
H355 H 0.63038 0.11767 0.34178 0.0
H356 H 0.66101 0.08916 0.39658 0.0
H357 H 0.72596 0.20198 0.04396 0.0
H358 H 0.68087 0.20456 0.05441 0.0
H359 H 0.70654 0.21839 0.16301 0.0
H360 H 0.57324 0.20339 0.23304 0.0
H361 H 0.64138 0.23608 0.47822 0.0
H362 H 0.61586 0.13531 0.14843 0.0
H363 H 0.63358 0.16643 0.06218 0.0
H364 H 0.58942 0.16786 0.09435 0.0
H365 H 0.70078 0.17841 0.45446 0.0
H366 H 0.69955 0.22337 0.47141 0.0
H367 H 0.71683 0.20511 0.35174 0.0
C368 C 0.37899 0.47813 0.41545 0.0
C369 C 0.3487 0.47573 0.47214 0.0
C370 C 0.4055 0.45562 0.43451 0.0
C371 C 0.40114 0.42931 0.50927 0.0
C372 C 0.37086 0.42728 0.56854 0.0
C373 C 0.34521 0.45088 0.55044 0.0
C374 C 0.43778 0.4594 0.37237 0.0
C375 C 0.36482 0.39915 0.64701 0.0
C376 C 0.45032 0.34859 0.46482 0.0
C377 C 0.47396 0.34986 0.54755 0.0
C378 C 0.42655 0.37431 0.45149 0.0
C379 C 0.42718 0.40259 0.5203 0.0
C380 C 0.452 0.40468 0.60109 0.0
C381 C 0.47469 0.37796 0.61508 0.0
C382 C 0.39999 0.37062 0.36615 0.0
C383 C 0.45432 0.43493 0.67347 0.0
H384 H 0.38182 0.49747 0.35524 0.0
H385 H 0.32169 0.44875 0.59358 0.0
H386 H 0.45977 0.45848 0.42682 0.0
H387 H 0.44031 0.43823 0.31543 0.0
H388 H 0.43868 0.48336 0.32692 0.0
H389 H 0.34042 0.40178 0.68925 0.0
H390 H 0.36494 0.37465 0.60452 0.0
H391 H 0.38531 0.3984 0.7069 0.0
H392 H 0.44944 0.3267 0.41332 0.0
H393 H 0.49306 0.37904 0.67886 0.0
H394 H 0.40127 0.39215 0.3102 0.0
H395 H 0.37462 0.37088 0.40297 0.0
H396 H 0.40278 0.34695 0.31998 0.0
H397 H 0.45544 0.45836 0.62555 0.0
H398 H 0.47676 0.43398 0.72615 0.0
H399 H 0.43151 0.43642 0.72398 0.0
C400 C 0.65336 0.97194 0.85561 0.0
C401 C 0.68309 0.97123 0.79553 0.0
C402 C 0.62719 0.94884 0.8365 0.0
C403 C 0.63125 0.92375 0.75753 0.0
C404 C 0.66104 0.92323 0.69553 0.0
C405 C 0.6864 0.94729 0.71428 0.0
C406 C 0.59545 0.95096 0.90203 0.0
C407 C 0.66666 0.89651 0.612 0.0
C408 C 0.58113 0.84229 0.78442 0.0
C409 C 0.55707 0.84583 0.7036 0.0
C410 C 0.60531 0.86753 0.80321 0.0
C411 C 0.60481 0.89743 0.74173 0.0
C412 C 0.57959 0.90173 0.66324 0.0
C413 C 0.55637 0.87568 0.64405 0.0
C414 C 0.63216 0.86165 0.8862 0.0
C415 C 0.57747 0.9336 0.59829 0.0
H416 H 0.65061 0.99052 0.91819 0.0
H417 H 0.70947 0.94642 0.66841 0.0
H418 H 0.57309 0.95174 0.84911 0.0
H419 H 0.59298 0.92822 0.95256 0.0
H420 H 0.59516 0.9735 0.95436 0.0
H421 H 0.69105 0.89973 0.57008 0.0
H422 H 0.66619 0.87127 0.64974 0.0
H423 H 0.64611 0.89706 0.55226 0.0
H424 H 0.582 0.81912 0.82986 0.0
H425 H 0.53769 0.8786 0.58181 0.0
H426 H 0.6318 0.8821 0.94627 0.0
H427 H 0.65734 0.86208 0.84804 0.0
H428 H 0.62892 0.83719 0.92778 0.0
H429 H 0.57688 0.95587 0.65161 0.0
H430 H 0.55484 0.93408 0.54636 0.0
H431 H 0.60013 0.93607 0.5474 0.0
C432 C 0.07687 0.18404 0.94649 0.0
C433 C 0.05154 0.18029 0.02308 0.0
C434 C 0.10034 0.15828 0.92828 0.0
C435 C 0.09768 0.12766 0.98556 0.0
C436 C 0.07087 0.12307 0.05837 0.0
C437 C 0.04851 0.14968 0.07773 0.0
C438 C 0.12902 0.16457 0.85205 0.0
C439 C 0.06641 0.09044 0.11823 0.0
C440 C 0.14924 0.05435 0.87928 0.0
C441 C 0.1769 0.05452 0.94871 0.0
C442 C 0.12259 0.07715 0.89263 0.0
C443 C 0.12429 0.1015 0.9749 0.0
C444 C 0.15209 0.10156 0.04566 0.0
C445 C 0.17775 0.0777 0.03276 0.0
C446 C 0.09284 0.07546 0.81802 0.0
C447 C 0.15535 0.12759 0.13276 0.0
H448 H 0.07947 0.20781 0.905 0.0
H449 H 0.0288 0.14668 0.13661 0.0
H450 H 0.15322 0.16406 0.89618 0.0
H451 H 0.13004 0.1444 0.79114 0.0
H452 H 0.12682 0.18921 0.81095 0.0
H453 H 0.04212 0.08944 0.1618 0.0
H454 H 0.06758 0.06878 0.06256 0.0
H455 H 0.08713 0.08741 0.17658 0.0
H456 H 0.14846 0.03634 0.81446 0.0
H457 H 0.19928 0.07817 0.08582 0.0
H458 H 0.09186 0.09858 0.76872 0.0
H459 H 0.06908 0.07424 0.86421 0.0
H460 H 0.09401 0.05332 0.76415 0.0
H461 H 0.15548 0.15318 0.09741 0.0
H462 H 0.17868 0.12438 0.18039 0.0
H463 H 0.13344 0.12611 0.18713 0.0
C464 C 0.97701 0.65808 0.27297 0.0
C465 C 0.97081 0.68092 0.19038 0.0
C466 C 0.95433 0.63162 0.29423 0.0
C467 C 0.92417 0.62886 0.2343 0.0
C468 C 0.91785 0.65205 0.1512 0.0
C469 C 0.94151 0.67735 0.12909 0.0
C470 C 0.96253 0.60674 0.38111 0.0
C471 C 0.88551 0.65092 0.08794 0.0
C472 C 0.86952 0.54975 0.22792 0.0
C473 C 0.84568 0.55707 0.30657 0.0
C474 C 0.89619 0.5722 0.20667 0.0
C475 C 0.89811 0.60323 0.26232 0.0
C476 C 0.87383 0.61072 0.34117 0.0
C477 C 0.84834 0.58729 0.36364 0.0
C478 C 0.92222 0.56279 0.12464 0.0
C479 C 0.87407 0.64397 0.39952 0.0
H480 H 0.99979 0.66065 0.31986 0.0
H481 H 0.93649 0.69518 0.06576 0.0
H482 H 0.94433 0.60938 0.44741 0.0
H483 H 0.96019 0.58065 0.35034 0.0
H484 H 0.98833 0.61039 0.41326 0.0
H485 H 0.88446 0.67083 0.02601 0.0
H486 H 0.88262 0.6261 0.0486 0.0
H487 H 0.86373 0.65411 0.14222 0.0
H488 H 0.86763 0.52626 0.1844 0.0
H489 H 0.82973 0.59312 0.42389 0.0
H490 H 0.94785 0.56541 0.15888 0.0
H491 H 0.92066 0.58012 0.05569 0.0
H492 H 0.91889 0.5366 0.09541 0.0
H493 H 0.89823 0.6474 0.44236 0.0
H494 H 0.8532 0.64598 0.45793 0.0
H495 H 0.87183 0.66492 0.34159 0.0
C496 C 0.36901 0.05049 0.73146 0.0
C497 C 0.34443 0.0585 0.80706 0.0
C498 C 0.39562 0.07296 0.70979 0.0
C499 C 0.39674 0.10466 0.76169 0.0
C500 C 0.37163 0.11288 0.83716 0.0
C501 C 0.34622 0.08945 0.86036 0.0
C502 C 0.42253 0.06279 0.63157 0.0
C503 C 0.371 0.14684 0.89126 0.0
C504 C 0.47517 0.16014 0.77412 0.0
C505 C 0.46971 0.18198 0.68837 0.0
C506 C 0.45243 0.13379 0.79609 0.0
C507 C 0.42293 0.13013 0.73338 0.0
C508 C 0.41735 0.15229 0.64699 0.0
C509 C 0.44107 0.1775 0.6245 0.0
C510 C 0.45982 0.11002 0.88672 0.0
C511 C 0.38571 0.15018 0.58052 0.0
H512 H 0.36777 0.02642 0.69095 0.0
H513 H 0.32702 0.09577 0.91824 0.0
H514 H 0.42168 0.07941 0.56074 0.0
H515 H 0.44777 0.06586 0.66826 0.0
H516 H 0.41958 0.03631 0.60474 0.0
H517 H 0.34944 0.14942 0.94687 0.0
H518 H 0.39462 0.15095 0.93645 0.0
H519 H 0.36934 0.16704 0.83053 0.0
H520 H 0.49742 0.16339 0.82308 0.0
H521 H 0.4366 0.19455 0.55868 0.0
H522 H 0.45794 0.08357 0.85891 0.0
H523 H 0.44092 0.11334 0.95071 0.0
H524 H 0.48525 0.11421 0.9211 0.0
H525 H 0.38335 0.12487 0.54406 0.0
H526 H 0.38524 0.16929 0.51603 0.0
H527 H 0.36336 0.15393 0.63199 0.0
C528 C 0.84499 0.94919 0.05631 0.0
C529 C 0.84907 0.97498 0.98139 0.0
C530 C 0.87065 0.9256 0.07423 0.0
C531 C 0.90151 0.92858 0.01847 0.0
C532 C 0.90641 0.95581 0.94741 0.0
C533 C 0.87989 0.9783 0.92819 0.0
C534 C 0.86403 0.89646 0.14849 0.0
C535 C 0.93931 0.96062 0.88931 0.0
C536 C 0.97435 0.87654 0.12581 0.0
C537 C 0.97455 0.84923 0.05506 0.0
C538 C 0.95159 0.90324 0.11261 0.0
C539 C 0.92767 0.90194 0.02903 0.0
C540 C 0.928 0.87451 0.9569 0.0
C541 C 0.9518 0.84879 0.96977 0.0
C542 C 0.95287 0.9326 0.1888 0.0
C543 C 0.90241 0.87168 0.86832 0.0
H544 H 0.82104 0.94637 0.09662 0.0
H545 H 0.88314 0.99835 0.87058 0.0
H546 H 0.86483 0.87251 0.10307 0.0
H547 H 0.88388 0.89514 0.21041 0.0
H548 H 0.83918 0.89838 0.18838 0.0
H549 H 0.94047 0.98514 0.84703 0.0
H550 H 0.9607 0.95918 0.94593 0.0
H551 H 0.94263 0.9402 0.83007 0.0
H552 H 0.99203 0.87701 0.19158 0.0
H553 H 0.95162 0.82753 0.91565 0.0
H554 H 0.92952 0.93329 0.23701 0.0
H555 H 0.95427 0.95661 0.14391 0.0
H556 H 0.97475 0.93119 0.24369 0.0
H557 H 0.87665 0.8713 0.90233 0.0
H558 H 0.90591 0.84862 0.81959 0.0
H559 H 0.90412 0.8939 0.81522 0.0
C560 C 0.08007 0.3434 0.28661 0.0
C561 C 0.05586 0.34665 0.20613 0.0
C562 C 0.10425 0.36873 0.30416 0.0
C563 C 0.10358 0.39844 0.24175 0.0
C564 C 0.07819 0.40246 0.16367 0.0
C565 C 0.05498 0.37632 0.1457 0.0
C566 C 0.13128 0.36314 0.38676 0.0
C567 C 0.07589 0.43413 0.09779 0.0
C568 C 0.15249 0.47322 0.35226 0.0
C569 C 0.18208 0.47228 0.29152 0.0
C570 C 0.12623 0.45013 0.33437 0.0
C571 C 0.13006 0.4248 0.25605 0.0
C572 C 0.1597 0.42406 0.19335 0.0
C573 C 0.18515 0.44812 0.21083 0.0
C574 C 0.09464 0.4525 0.40055 0.0
C575 C 0.16509 0.39707 0.1105 0.0
H576 H 0.08107 0.32037 0.33273 0.0
H577 H 0.03618 0.37901 0.08372 0.0
H578 H 0.15636 0.36344 0.34804 0.0
H579 H 0.13105 0.38379 0.44613 0.0
H580 H 0.12812 0.33883 0.42926 0.0
H581 H 0.0531 0.43445 0.04652 0.0
H582 H 0.07547 0.45657 0.15041 0.0
H583 H 0.0984 0.43642 0.04614 0.0
H584 H 0.14994 0.49198 0.41441 0.0
H585 H 0.20811 0.44707 0.16447 0.0
H586 H 0.0923 0.42996 0.45202 0.0
H587 H 0.07216 0.45308 0.34814 0.0
H588 H 0.09448 0.47524 0.45203 0.0
H589 H 0.1647 0.37195 0.14902 0.0
H590 H 0.18938 0.40015 0.06786 0.0
H591 H 0.14439 0.39746 0.05127 0.0
C592 C 0.57829 0.68417 0.44105 0.0
C593 C 0.55239 0.68007 0.5155 0.0
C594 C 0.60173 0.6584 0.42285 0.0
C595 C 0.59846 0.62741 0.47783 0.0
C596 C 0.57109 0.62251 0.54829 0.0
C597 C 0.54876 0.64913 0.56784 0.0
C598 C 0.63103 0.66501 0.34926 0.0
C599 C 0.56597 0.5895 0.60552 0.0
C600 C 0.65037 0.55449 0.37056 0.0
C601 C 0.67751 0.55402 0.442 0.0
C602 C 0.62377 0.57738 0.38341 0.0
C603 C 0.625 0.60116 0.4674 0.0
C604 C 0.65225 0.60056 0.5402 0.0
C605 C 0.67787 0.57665 0.52761 0.0
C606 C 0.59459 0.5764 0.30646 0.0
C607 C 0.655 0.62597 0.62928 0.0
H608 H 0.58134 0.70821 0.40141 0.0
H609 H 0.52861 0.64588 0.62508 0.0
H610 H 0.65488 0.66406 0.39518 0.0
H611 H 0.63241 0.64525 0.28711 0.0
H612 H 0.62928 0.68994 0.30969 0.0
H613 H 0.54134 0.58836 0.64711 0.0
H614 H 0.56745 0.56822 0.54849 0.0
H615 H 0.58621 0.58594 0.66525 0.0
H616 H 0.64995 0.53691 0.30453 0.0
H617 H 0.69899 0.57662 0.58229 0.0
H618 H 0.59412 0.59985 0.25872 0.0
H619 H 0.57048 0.575 0.35073 0.0
H620 H 0.59604 0.55462 0.25117 0.0
H621 H 0.65554 0.6518 0.59573 0.0
H622 H 0.67794 0.6223 0.67843 0.0
H623 H 0.63267 0.62425 0.68187 0.0
loop_
_geom_bond_atom_site_label_1
_geom_bond_atom_site_label_2
_geom_bond_distance
_geom_bond_site_symmetry_2
_ccdc_geom_bond_type
O0 Cd1 2.223 . S
O0 C8 1.315 . S
Cd1 O0 2.223 . S
Cd1 O4 2.297 . S
Cd1 O5 2.439 . S
Cd1 O11 2.240 . S
Cd2 O3 2.240 . S
Cd2 O10 2.223 . S
Cd2 O12 2.297 . S
Cd2 O13 2.439 . S
O3 Cd2 2.240 . S
O3 C8 1.279 . S
O4 Cd1 2.297 . S
O4 C6 1.247 . S
O5 Cd1 2.439 . S
O5 C6 1.208 . S
C6 O4 1.247 . S
C6 O5 1.208 . S
C7 O12 1.247 . S
C7 O13 1.208 . S
C8 O0 1.315 . S
C8 O3 1.279 . S
C9 O10 1.315 . S
C9 O11 1.279 . S
O10 Cd2 2.223 . S
O10 C9 1.315 . S
O11 Cd1 2.240 . S
O11 C9 1.279 . S
O12 Cd2 2.297 . S
O12 C7 1.247 . S
O13 Cd2 2.439 . S
O13 C7 1.208 . S
O14 Cd15 2.223 . S
O14 C22 1.315 . S
Cd15 O14 2.223 . S
Cd15 O18 2.297 . S
Cd15 O19 2.439 . S
Cd15 O25 2.240 . S
Cd16 O17 2.240 . S
Cd16 O24 2.223 . S
Cd16 O26 2.297 . S
Cd16 O27 2.439 . S
O17 Cd16 2.240 . S
O17 C22 1.279 . S
O18 Cd15 2.297 . S
O18 C20 1.247 . S
O19 Cd15 2.439 . S
O19 C20 1.208 . S
C20 O18 1.247 . S
C20 O19 1.208 . S
C21 O26 1.247 . S
C21 O27 1.208 . S
C22 O14 1.315 . S
C22 O17 1.279 . S
C23 O24 1.315 . S
C23 O25 1.279 . S
O24 Cd16 2.223 . S
O24 C23 1.315 . S
O25 Cd15 2.240 . S
O25 C23 1.279 . S
O26 Cd16 2.297 . S
O26 C21 1.247 . S
O27 Cd16 2.439 . S
O27 C21 1.208 . S
O28 Cd29 2.223 1_556 S
O28 C36 1.315 . S
Cd29 O28 2.223 1_554 S
Cd29 O32 2.297 1_545 S
Cd29 O33 2.439 1_544 S
Cd29 O39 2.240 1_554 S
Cd30 O31 2.240 . S
Cd30 O38 2.223 . S
Cd30 O40 2.297 1_545 S
Cd30 O41 2.439 1_545 S
O31 Cd30 2.240 . S
O31 C36 1.279 . S
O32 Cd29 2.297 1_565 S
O32 C34 1.247 . S
O33 Cd29 2.439 1_566 S
O33 C34 1.208 1_556 S
C34 O32 1.247 . S
C34 O33 1.208 1_554 S
C35 O40 1.247 . S
C35 O41 1.208 . S
C36 O28 1.315 . S
C36 O31 1.279 . S
C37 O38 1.315 . S
C37 O39 1.279 . S
O38 Cd30 2.223 . S
O38 C37 1.315 . S
O39 Cd29 2.240 1_556 S
O39 C37 1.279 . S
O40 Cd30 2.297 1_565 S
O40 C35 1.247 . S
O41 Cd30 2.439 1_565 S
O41 C35 1.208 . S
O42 Cd43 2.223 1_554 S
O42 C50 1.315 . S
Cd43 O42 2.223 1_556 S
Cd43 O46 2.297 1_655 S
Cd43 O47 2.439 1_656 S
Cd43 O53 2.240 1_556 S
Cd44 O45 2.240 . S
Cd44 O52 2.223 . S
Cd44 O54 2.297 1_655 S
Cd44 O55 2.439 1_655 S
O45 Cd44 2.240 . S
O45 C50 1.279 . S
O46 Cd43 2.297 1_455 S
O46 C48 1.247 . S
O47 Cd43 2.439 1_454 S
O47 C48 1.208 1_554 S
C48 O46 1.247 . S
C48 O47 1.208 1_556 S
C49 O54 1.247 . S
C49 O55 1.208 . S
C50 O42 1.315 . S
C50 O45 1.279 . S
C51 O52 1.315 . S
C51 O53 1.279 . S
O52 Cd44 2.223 . S
O52 C51 1.315 . S
O53 Cd43 2.240 1_554 S
O53 C51 1.279 . S
O54 Cd44 2.297 1_455 S
O54 C49 1.247 . S
O55 Cd44 2.439 1_455 S
O55 C49 1.208 . S
O56 Cd57 2.223 . S
O56 C64 1.315 . S
Cd57 O56 2.223 . S
Cd57 O60 2.297 1_565 S
Cd57 O61 2.439 1_565 S
Cd57 O67 2.240 . S
Cd58 O59 2.240 1_554 S
Cd58 O66 2.223 1_554 S
Cd58 O68 2.297 1_565 S
Cd58 O69 2.439 1_564 S
O59 Cd58 2.240 1_556 S
O59 C64 1.279 . S
O60 Cd57 2.297 1_545 S
O60 C62 1.247 . S
O61 Cd57 2.439 1_545 S
O61 C62 1.208 . S
C62 O60 1.247 . S
C62 O61 1.208 . S
C63 O68 1.247 . S
C63 O69 1.208 1_554 S
C64 O56 1.315 . S
C64 O59 1.279 . S
C65 O66 1.315 . S
C65 O67 1.279 . S
O66 Cd58 2.223 1_556 S
O66 C65 1.315 . S
O67 Cd57 2.240 . S
O67 C65 1.279 . S
O68 Cd58 2.297 1_545 S
O68 C63 1.247 . S
O69 Cd58 2.439 1_546 S
O69 C63 1.208 1_556 S
O70 Cd71 2.223 . S
O70 C78 1.315 . S
Cd71 O70 2.223 . S
Cd71 O74 2.297 1_455 S
Cd71 O75 2.439 1_455 S
Cd71 O81 2.240 . S
Cd72 O73 2.240 1_556 S
Cd72 O80 2.223 1_556 S
Cd72 O82 2.297 1_455 S
Cd72 O83 2.439 1_456 S
O73 Cd72 2.240 1_554 S
O73 C78 1.279 . S
O74 Cd71 2.297 1_655 S
O74 C76 1.247 . S
O75 Cd71 2.439 1_655 S
O75 C76 1.208 . S
C76 O74 1.247 . S
C76 O75 1.208 . S
C77 O82 1.247 . S
C77 O83 1.208 1_556 S
C78 O70 1.315 . S
C78 O73 1.279 . S
C79 O80 1.315 . S
C79 O81 1.279 . S
O80 Cd72 2.223 1_554 S
O80 C79 1.315 . S
O81 Cd71 2.240 . S
O81 C79 1.279 . S
O82 Cd72 2.297 1_655 S
O82 C77 1.247 . S
O83 Cd72 2.439 1_654 S
O83 C77 1.208 1_554 S
O84 Cd85 2.223 . S
O84 C92 1.315 . S
Cd85 O84 2.223 . S
Cd85 O88 2.297 . S
Cd85 O89 2.439 . S
Cd85 O95 2.240 . S
Cd86 O87 2.240 . S
Cd86 O94 2.223 . S
Cd86 O96 2.297 . S
Cd86 O97 2.439 . S
O87 Cd86 2.240 . S
O87 C92 1.279 . S
O88 Cd85 2.297 . S
O88 C90 1.247 . S
O89 Cd85 2.439 . S
O89 C90 1.208 . S
C90 O88 1.247 . S
C90 O89 1.208 . S
C91 O96 1.247 . S
C91 O97 1.208 . S
C92 O84 1.315 . S
C92 O87 1.279 . S
C93 O94 1.315 . S
C93 O95 1.279 . S
O94 Cd86 2.223 . S
O94 C93 1.315 . S
O95 Cd85 2.240 . S
O95 C93 1.279 . S
O96 Cd86 2.297 . S
O96 C91 1.247 . S
O97 Cd86 2.439 . S
O97 C91 1.208 . S
O98 Cd99 2.223 . S
O98 C106 1.315 . S
Cd99 O98 2.223 . S
Cd99 O102 2.297 . S
Cd99 O103 2.439 . S
Cd99 O109 2.240 . S
Cd100 O101 2.240 . S
Cd100 O108 2.223 . S
Cd100 O110 2.297 . S
Cd100 O111 2.439 . S
O101 Cd100 2.240 . S
O101 C106 1.279 . S
O102 Cd99 2.297 . S
O102 C104 1.247 . S
O103 Cd99 2.439 . S
O103 C104 1.208 . S
C104 O102 1.247 . S
C104 O103 1.208 . S
C105 O110 1.247 . S
C105 O111 1.208 . S
C106 O98 1.315 . S
C106 O101 1.279 . S
C107 O108 1.315 . S
C107 O109 1.279 . S
O108 Cd100 2.223 . S
O108 C107 1.315 . S
O109 Cd99 2.240 . S
O109 C107 1.279 . S
O110 Cd100 2.297 . S
O110 C105 1.247 . S
O111 Cd100 2.439 . S
O111 C105 1.208 . S
C112 C113 1.391 . S
C112 C114 1.394 . S
C112 H128 0.931 . S
C113 C112 1.391 . S
C113 C117 1.376 . S
C114 C112 1.394 . S
C114 C115 1.369 . S
C114 C118 1.531 . S
C115 C114 1.369 . S
C115 C116 1.410 . S
C115 C123 1.503 1_556 S
C116 C115 1.410 . S
C116 C117 1.392 . S
C116 C119 1.511 1_556 S
C117 C113 1.376 . S
C117 C116 1.392 . S
C117 H129 0.929 . S
C118 C114 1.531 . S
C118 H130 0.960 . S
C118 H131 0.962 . S
C118 H132 0.960 . S
C119 C116 1.511 1_554 S
C119 H133 0.961 . S
C119 H134 0.961 . S
C119 H135 0.961 . S
C120 C121 1.370 . S
C120 C122 1.363 . S
C120 H136 0.931 . S
C121 C120 1.370 . S
C121 C125 1.408 . S
C122 C120 1.363 . S
C122 C123 1.370 . S
C122 C126 1.524 . S
C123 C115 1.503 1_554 S
C123 C122 1.370 . S
C123 C124 1.403 1_554 S
C124 C123 1.403 1_556 S
C124 C125 1.404 1_556 S
C124 C127 1.539 . S
C125 C121 1.408 . S
C125 C124 1.404 1_554 S
C125 H137 0.930 . S
C126 C122 1.524 . S
C126 H138 0.956 . S
C126 H139 0.961 . S
C126 H140 0.961 . S
C127 C124 1.539 . S
C127 H141 0.958 . S
C127 H142 0.961 . S
C127 H143 0.960 . S
H128 C112 0.931 . S
H129 C117 0.929 . S
H130 C118 0.960 . S
H131 C118 0.962 . S
H132 C118 0.960 . S
H133 C119 0.961 . S
H134 C119 0.961 . S
H135 C119 0.961 . S
H136 C120 0.931 . S
H137 C125 0.930 . S
H138 C126 0.956 . S
H139 C126 0.961 . S
H140 C126 0.961 . S
H141 C127 0.958 . S
H142 C127 0.961 . S
H143 C127 0.960 . S
C144 C145 1.391 . S
C144 C146 1.394 . S
C144 H160 0.931 . S
C145 C144 1.391 . S
C145 C149 1.376 . S
C146 C144 1.394 . S
C146 C147 1.369 . S
C146 C150 1.531 . S
C147 C146 1.369 . S
C147 C148 1.410 . S
C147 C155 1.503 . S
C148 C147 1.410 . S
C148 C149 1.392 . S
C148 C151 1.511 . S
C149 C145 1.376 . S
C149 C148 1.392 . S
C149 H161 0.929 . S
C150 C146 1.531 . S
C150 H162 0.960 . S
C150 H163 0.962 . S
C150 H164 0.960 . S
C151 C148 1.511 . S
C151 H165 0.961 . S
C151 H166 0.961 . S
C151 H167 0.961 . S
C152 C153 1.370 . S
C152 C154 1.363 . S
C152 H168 0.931 . S
C153 C152 1.370 . S
C153 C157 1.408 . S
C154 C152 1.363 . S
C154 C155 1.370 . S
C154 C158 1.524 . S
C155 C147 1.503 . S
C155 C154 1.370 . S
C155 C156 1.403 . S
C156 C155 1.403 . S
C156 C157 1.404 . S
C156 C159 1.539 . S
C157 C153 1.408 . S
C157 C156 1.404 . S
C157 H169 0.930 . S
C158 C154 1.524 . S
C158 H170 0.956 . S
C158 H171 0.961 . S
C158 H172 0.961 . S
C159 C156 1.539 . S
C159 H173 0.958 . S
C159 H174 0.961 . S
C159 H175 0.960 . S
H160 C144 0.931 . S
H161 C149 0.929 . S
H162 C150 0.960 . S
H163 C150 0.962 . S
H164 C150 0.960 . S
H165 C151 0.961 . S
H166 C151 0.961 . S
H167 C151 0.961 . S
H168 C152 0.931 . S
H169 C157 0.930 . S
H170 C158 0.956 . S
H171 C158 0.961 . S
H172 C158 0.961 . S
H173 C159 0.958 . S
H174 C159 0.961 . S
H175 C159 0.960 . S
C176 C177 1.391 . S
C176 C178 1.394 . S
C176 H192 0.931 . S
C177 C176 1.391 . S
C177 C181 1.376 . S
C178 C176 1.394 . S
C178 C179 1.369 . S
C178 C182 1.531 . S
C179 C178 1.369 . S
C179 C180 1.410 . S
C179 C187 1.503 . S
C180 C179 1.410 . S
C180 C181 1.392 . S
C180 C183 1.511 . S
C181 C177 1.376 . S
C181 C180 1.392 . S
C181 H193 0.929 . S
C182 C178 1.531 . S
C182 H194 0.960 . S
C182 H195 0.962 . S
C182 H196 0.960 . S
C183 C180 1.511 . S
C183 H197 0.961 . S
C183 H198 0.961 . S
C183 H199 0.961 . S
C184 C185 1.370 . S
C184 C186 1.363 . S
C184 H200 0.931 . S
C185 C184 1.370 . S
C185 C189 1.408 . S
C186 C184 1.363 . S
C186 C187 1.370 . S
C186 C190 1.524 . S
C187 C179 1.503 . S
C187 C186 1.370 . S
C187 C188 1.403 . S
C188 C187 1.403 . S
C188 C189 1.404 . S
C188 C191 1.539 . S
C189 C185 1.408 . S
C189 C188 1.404 . S
C189 H201 0.930 . S
C190 C186 1.524 . S
C190 H202 0.956 . S
C190 H203 0.961 . S
C190 H204 0.961 . S
C191 C188 1.539 . S
C191 H205 0.958 . S
C191 H206 0.961 . S
C191 H207 0.960 . S
H192 C176 0.931 . S
H193 C181 0.929 . S
H194 C182 0.960 . S
H195 C182 0.962 . S
H196 C182 0.960 . S
H197 C183 0.961 . S
H198 C183 0.961 . S
H199 C183 0.961 . S
H200 C184 0.931 . S
H201 C189 0.930 . S
H202 C190 0.956 . S
H203 C190 0.961 . S
H204 C190 0.961 . S
H205 C191 0.958 . S
H206 C191 0.961 . S
H207 C191 0.960 . S
C208 C209 1.391 . S
C208 C210 1.394 . S
C208 H224 0.931 . S
C209 C208 1.391 . S
C209 C213 1.376 . S
C210 C208 1.394 . S
C210 C211 1.369 . S
C210 C214 1.531 . S
C211 C210 1.369 . S
C211 C212 1.410 . S
C211 C219 1.503 . S
C212 C211 1.410 . S
C212 C213 1.392 . S
C212 C215 1.511 . S
C213 C209 1.376 . S
C213 C212 1.392 . S
C213 H225 0.929 1_556 S
C214 C210 1.531 . S
C214 H226 0.960 . S
C214 H227 0.962 . S
C214 H228 0.960 . S
C215 C212 1.511 . S
C215 H229 0.961 1_556 S
C215 H230 0.961 . S
C215 H231 0.961 . S
C216 C217 1.370 . S
C216 C218 1.363 . S
C216 H232 0.931 . S
C217 C216 1.370 . S
C217 C221 1.408 . S
C218 C216 1.363 . S
C218 C219 1.370 . S
C218 C222 1.524 . S
C219 C211 1.503 . S
C219 C218 1.370 . S
C219 C220 1.403 . S
C220 C219 1.403 . S
C220 C221 1.404 . S
C220 C223 1.539 . S
C221 C217 1.408 . S
C221 C220 1.404 . S
C221 H233 0.930 . S
C222 C218 1.524 . S
C222 H234 0.956 . S
C222 H235 0.961 . S
C222 H236 0.961 . S
C223 C220 1.539 . S
C223 H237 0.958 . S
C223 H238 0.961 . S
C223 H239 0.960 . S
H224 C208 0.931 . S
H225 C213 0.929 1_554 S
H226 C214 0.960 . S
H227 C214 0.962 . S
H228 C214 0.960 . S
H229 C215 0.961 1_554 S
H230 C215 0.961 . S
H231 C215 0.961 . S
H232 C216 0.931 . S
H233 C221 0.930 . S
H234 C222 0.956 . S
H235 C222 0.961 . S
H236 C222 0.961 . S
H237 C223 0.958 . S
H238 C223 0.961 . S
H239 C223 0.960 . S
C240 C241 1.391 . S
C240 C242 1.394 . S
C240 H256 0.931 . S
C241 C240 1.391 . S
C241 C245 1.376 . S
C242 C240 1.394 . S
C242 C243 1.369 . S
C242 C246 1.531 . S
C243 C242 1.369 . S
C243 C244 1.410 . S
C243 C251 1.503 . S
C244 C243 1.410 . S
C244 C245 1.392 . S
C244 C247 1.511 . S
C245 C241 1.376 . S
C245 C244 1.392 . S
C245 H257 0.929 . S
C246 C242 1.531 . S
C246 H258 0.960 . S
C246 H259 0.962 . S
C246 H260 0.960 . S
C247 C244 1.511 . S
C247 H261 0.961 . S
C247 H262 0.961 . S
C247 H263 0.961 . S
C248 C249 1.370 . S
C248 C250 1.363 . S
C248 H264 0.931 . S
C249 C248 1.370 . S
C249 C253 1.408 . S
C250 C248 1.363 . S
C250 C251 1.370 . S
C250 C254 1.524 . S
C251 C243 1.503 . S
C251 C250 1.370 . S
C251 C252 1.403 . S
C252 C251 1.403 . S
C252 C253 1.404 . S
C252 C255 1.539 . S
C253 C249 1.408 . S
C253 C252 1.404 . S
C253 H265 0.930 . S
C254 C250 1.524 . S
C254 H266 0.956 . S
C254 H267 0.961 . S
C254 H268 0.961 . S
C255 C252 1.539 . S
C255 H269 0.958 . S
C255 H270 0.961 . S
C255 H271 0.960 . S
H256 C240 0.931 . S
H257 C245 0.929 . S
H258 C246 0.960 . S
H259 C246 0.962 . S
H260 C246 0.960 . S
H261 C247 0.961 . S
H262 C247 0.961 . S
H263 C247 0.961 . S
H264 C248 0.931 . S
H265 C253 0.930 . S
H266 C254 0.956 . S
H267 C254 0.961 . S
H268 C254 0.961 . S
H269 C255 0.958 . S
H270 C255 0.961 . S
H271 C255 0.960 . S
C272 C273 1.391 . S
C272 C274 1.394 . S
C272 H288 0.931 . S
C273 C272 1.391 . S
C273 C277 1.376 . S
C274 C272 1.394 . S
C274 C275 1.369 . S
C274 C278 1.531 . S
C275 C274 1.369 . S
C275 C276 1.410 . S
C275 C283 1.503 . S
C276 C275 1.410 . S
C276 C277 1.392 . S
C276 C279 1.511 . S
C277 C273 1.376 . S
C277 C276 1.392 . S
C277 H289 0.929 . S
C278 C274 1.531 . S
C278 H290 0.960 . S
C278 H291 0.962 . S
C278 H292 0.960 . S
C279 C276 1.511 . S
C279 H293 0.961 . S
C279 H294 0.961 . S
C279 H295 0.961 . S
C280 C281 1.370 . S
C280 C282 1.363 . S
C280 H296 0.931 . S
C281 C280 1.370 . S
C281 C285 1.408 . S
C282 C280 1.363 . S
C282 C283 1.370 . S
C282 C286 1.524 . S
C283 C275 1.503 . S
C283 C282 1.370 . S
C283 C284 1.403 . S
C284 C283 1.403 . S
C284 C285 1.404 . S
C284 C287 1.539 . S
C285 C281 1.408 . S
C285 C284 1.404 . S
C285 H297 0.930 . S
C286 C282 1.524 . S
C286 H298 0.956 . S
C286 H299 0.961 . S
C286 H300 0.961 . S
C287 C284 1.539 . S
C287 H301 0.958 . S
C287 H302 0.961 . S
C287 H303 0.960 . S
H288 C272 0.931 . S
H289 C277 0.929 . S
H290 C278 0.960 . S
H291 C278 0.962 . S
H292 C278 0.960 . S
H293 C279 0.961 . S
H294 C279 0.961 . S
H295 C279 0.961 . S
H296 C280 0.931 . S
H297 C285 0.930 . S
H298 C286 0.956 . S
H299 C286 0.961 . S
H300 C286 0.961 . S
H301 C287 0.958 . S
H302 C287 0.961 . S
H303 C287 0.960 . S
C304 C305 1.391 . S
C304 C306 1.394 . S
C304 H320 0.931 . S
C305 C304 1.391 . S
C305 C309 1.376 . S
C306 C304 1.394 . S
C306 C307 1.369 . S
C306 C310 1.531 . S
C307 C306 1.369 . S
C307 C308 1.410 1_554 S
C307 C315 1.503 1_554 S
C308 C307 1.410 1_556 S
C308 C309 1.392 1_556 S
C308 C311 1.511 . S
C309 C305 1.376 . S
C309 C308 1.392 1_554 S
C309 H321 0.929 . S
C310 C306 1.531 . S
C310 H322 0.960 . S
C310 H323 0.962 . S
C310 H324 0.960 . S
C311 C308 1.511 . S
C311 H325 0.961 . S
C311 H326 0.961 . S
C311 H327 0.961 . S
C312 C313 1.370 . S
C312 C314 1.363 . S
C312 H328 0.931 . S
C313 C312 1.370 . S
C313 C317 1.408 . S
C314 C312 1.363 . S
C314 C315 1.370 . S
C314 C318 1.524 1_556 S
C315 C307 1.503 1_556 S
C315 C314 1.370 . S
C315 C316 1.403 . S
C316 C315 1.403 . S
C316 C317 1.404 . S
C316 C319 1.539 . S
C317 C313 1.408 . S
C317 C316 1.404 . S
C317 H329 0.930 . S
C318 C314 1.524 1_554 S
C318 H330 0.956 . S
C318 H331 0.961 1_554 S
C318 H332 0.961 1_554 S
C319 C316 1.539 . S
C319 H333 0.958 . S
C319 H334 0.961 . S
C319 H335 0.960 . S
H320 C304 0.931 . S
H321 C309 0.929 . S
H322 C310 0.960 . S
H323 C310 0.962 . S
H324 C310 0.960 . S
H325 C311 0.961 . S
H326 C311 0.961 . S
H327 C311 0.961 . S
H328 C312 0.931 . S
H329 C317 0.930 . S
H330 C318 0.956 . S
H331 C318 0.961 1_556 S
H332 C318 0.961 1_556 S
H333 C319 0.958 . S
H334 C319 0.961 . S
H335 C319 0.960 . S
C336 C337 1.391 . S
C336 C338 1.394 . S
C336 H352 0.931 . S
C337 C336 1.391 . S
C337 C341 1.376 . S
C338 C336 1.394 . S
C338 C339 1.369 . S
C338 C342 1.531 . S
C339 C338 1.369 . S
C339 C340 1.410 . S
C339 C347 1.503 . S
C340 C339 1.410 . S
C340 C341 1.392 . S
C340 C343 1.511 . S
C341 C337 1.376 . S
C341 C340 1.392 . S
C341 H353 0.929 1_554 S
C342 C338 1.531 . S
C342 H354 0.960 . S
C342 H355 0.962 . S
C342 H356 0.960 . S
C343 C340 1.511 . S
C343 H357 0.961 1_554 S
C343 H358 0.961 . S
C343 H359 0.961 . S
C344 C345 1.370 . S
C344 C346 1.363 . S
C344 H360 0.931 . S
C345 C344 1.370 . S
C345 C349 1.408 . S
C346 C344 1.363 . S
C346 C347 1.370 . S
C346 C350 1.524 . S
C347 C339 1.503 . S
C347 C346 1.370 . S
C347 C348 1.403 . S
C348 C347 1.403 . S
C348 C349 1.404 . S
C348 C351 1.539 . S
C349 C345 1.408 . S
C349 C348 1.404 . S
C349 H361 0.930 . S
C350 C346 1.524 . S
C350 H362 0.956 . S
C350 H363 0.961 . S
C350 H364 0.961 . S
C351 C348 1.539 . S
C351 H365 0.958 . S
C351 H366 0.961 . S
C351 H367 0.960 . S
H352 C336 0.931 . S
H353 C341 0.929 1_556 S
H354 C342 0.960 . S
H355 C342 0.962 . S
H356 C342 0.960 . S
H357 C343 0.961 1_556 S
H358 C343 0.961 . S
H359 C343 0.961 . S
H360 C344 0.931 . S
H361 C349 0.930 . S
H362 C350 0.956 . S
H363 C350 0.961 . S
H364 C350 0.961 . S
H365 C351 0.958 . S
H366 C351 0.961 . S
H367 C351 0.960 . S
C368 C369 1.391 . S
C368 C370 1.394 . S
C368 H384 0.931 . S
C369 C368 1.391 . S
C369 C373 1.376 . S
C370 C368 1.394 . S
C370 C371 1.369 . S
C370 C374 1.531 . S
C371 C370 1.369 . S
C371 C372 1.410 . S
C371 C379 1.503 . S
C372 C371 1.410 . S
C372 C373 1.392 . S
C372 C375 1.511 . S
C373 C369 1.376 . S
C373 C372 1.392 . S
C373 H385 0.929 . S
C374 C370 1.531 . S
C374 H386 0.960 . S
C374 H387 0.962 . S
C374 H388 0.960 . S
C375 C372 1.511 . S
C375 H389 0.961 . S
C375 H390 0.961 . S
C375 H391 0.961 . S
C376 C377 1.370 . S
C376 C378 1.363 . S
C376 H392 0.931 . S
C377 C376 1.370 . S
C377 C381 1.408 . S
C378 C376 1.363 . S
C378 C379 1.370 . S
C378 C382 1.524 . S
C379 C371 1.503 . S
C379 C378 1.370 . S
C379 C380 1.403 . S
C380 C379 1.403 . S
C380 C381 1.404 . S
C380 C383 1.539 . S
C381 C377 1.408 . S
C381 C380 1.404 . S
C381 H393 0.930 . S
C382 C378 1.524 . S
C382 H394 0.956 . S
C382 H395 0.961 . S
C382 H396 0.961 . S
C383 C380 1.539 . S
C383 H397 0.958 . S
C383 H398 0.961 . S
C383 H399 0.960 . S
H384 C368 0.931 . S
H385 C373 0.929 . S
H386 C374 0.960 . S
H387 C374 0.962 . S
H388 C374 0.960 . S
H389 C375 0.961 . S
H390 C375 0.961 . S
H391 C375 0.961 . S
H392 C376 0.931 . S
H393 C381 0.930 . S
H394 C382 0.956 . S
H395 C382 0.961 . S
H396 C382 0.961 . S
H397 C383 0.958 . S
H398 C383 0.961 . S
H399 C383 0.960 . S
C400 C401 1.391 . S
C400 C402 1.394 . S
C400 H416 0.931 . S
C401 C400 1.391 . S
C401 C405 1.376 . S
C402 C400 1.394 . S
C402 C403 1.369 . S
C402 C406 1.531 . S
C403 C402 1.369 . S
C403 C404 1.410 . S
C403 C411 1.503 . S
C404 C403 1.410 . S
C404 C405 1.392 . S
C404 C407 1.511 . S
C405 C401 1.376 . S
C405 C404 1.392 . S
C405 H417 0.929 . S
C406 C402 1.531 . S
C406 H418 0.960 . S
C406 H419 0.962 . S
C406 H420 0.960 . S
C407 C404 1.511 . S
C407 H421 0.961 . S
C407 H422 0.961 . S
C407 H423 0.961 . S
C408 C409 1.370 . S
C408 C410 1.363 . S
C408 H424 0.931 . S
C409 C408 1.370 . S
C409 C413 1.408 . S
C410 C408 1.363 . S
C410 C411 1.370 . S
C410 C414 1.524 . S
C411 C403 1.503 . S
C411 C410 1.370 . S
C411 C412 1.403 . S
C412 C411 1.403 . S
C412 C413 1.404 . S
C412 C415 1.539 . S
C413 C409 1.408 . S
C413 C412 1.404 . S
C413 H425 0.930 . S
C414 C410 1.524 . S
C414 H426 0.956 . S
C414 H427 0.961 . S
C414 H428 0.961 . S
C415 C412 1.539 . S
C415 H429 0.958 . S
C415 H430 0.961 . S
C415 H431 0.960 . S
H416 C400 0.931 . S
H417 C405 0.929 . S
H418 C406 0.960 . S
H419 C406 0.962 . S
H420 C406 0.960 . S
H421 C407 0.961 . S
H422 C407 0.961 . S
H423 C407 0.961 . S
H424 C408 0.931 . S
H425 C413 0.930 . S
H426 C414 0.956 . S
H427 C414 0.961 . S
H428 C414 0.961 . S
H429 C415 0.958 . S
H430 C415 0.961 . S
H431 C415 0.960 . S
C432 C433 1.391 1_556 S
C432 C434 1.394 . S
C432 H448 0.931 . S
C433 C432 1.391 1_554 S
C433 C437 1.376 . S
C434 C432 1.394 . S
C434 C435 1.369 1_556 S
C434 C438 1.531 . S
C435 C434 1.369 1_554 S
C435 C436 1.410 . S
C435 C443 1.503 1_554 S
C436 C435 1.410 . S
C436 C437 1.392 . S
C436 C439 1.511 . S
C437 C433 1.376 . S
C437 C436 1.392 . S
C437 H449 0.929 . S
C438 C434 1.531 . S
C438 H450 0.960 . S
C438 H451 0.962 . S
C438 H452 0.960 . S
C439 C436 1.511 . S
C439 H453 0.961 . S
C439 H454 0.961 . S
C439 H455 0.961 . S
C440 C441 1.370 . S
C440 C442 1.363 . S
C440 H456 0.931 . S
C441 C440 1.370 . S
C441 C445 1.408 . S
C442 C440 1.363 . S
C442 C443 1.370 . S
C442 C446 1.524 . S
C443 C435 1.503 1_556 S
C443 C442 1.370 . S
C443 C444 1.403 1_556 S
C444 C443 1.403 1_554 S
C444 C445 1.404 1_554 S
C444 C447 1.539 . S
C445 C441 1.408 . S
C445 C444 1.404 1_556 S
C445 H457 0.930 . S
C446 C442 1.524 . S
C446 H458 0.956 . S
C446 H459 0.961 . S
C446 H460 0.961 . S
C447 C444 1.539 . S
C447 H461 0.958 . S
C447 H462 0.961 . S
C447 H463 0.960 . S
H448 C432 0.931 . S
H449 C437 0.929 . S
H450 C438 0.960 . S
H451 C438 0.962 . S
H452 C438 0.960 . S
H453 C439 0.961 . S
H454 C439 0.961 . S
H455 C439 0.961 . S
H456 C440 0.931 . S
H457 C445 0.930 . S
H458 C446 0.956 . S
H459 C446 0.961 . S
H460 C446 0.961 . S
H461 C447 0.958 . S
H462 C447 0.961 . S
H463 C447 0.960 . S
C464 C465 1.391 . S
C464 C466 1.394 . S
C464 H480 0.931 . S
C465 C464 1.391 . S
C465 C469 1.376 . S
C466 C464 1.394 . S
C466 C467 1.369 . S
C466 C470 1.531 . S
C467 C466 1.369 . S
C467 C468 1.410 . S
C467 C475 1.503 . S
C468 C467 1.410 . S
C468 C469 1.392 . S
C468 C471 1.511 . S
C469 C465 1.376 . S
C469 C468 1.392 . S
C469 H481 0.929 . S
C470 C466 1.531 . S
C470 H482 0.960 . S
C470 H483 0.962 . S
C470 H484 0.960 . S
C471 C468 1.511 . S
C471 H485 0.961 . S
C471 H486 0.961 . S
C471 H487 0.961 . S
C472 C473 1.370 . S
C472 C474 1.363 . S
C472 H488 0.931 . S
C473 C472 1.370 . S
C473 C477 1.408 . S
C474 C472 1.363 . S
C474 C475 1.370 . S
C474 C478 1.524 . S
C475 C467 1.503 . S
C475 C474 1.370 . S
C475 C476 1.403 . S
C476 C475 1.403 . S
C476 C477 1.404 . S
C476 C479 1.539 . S
C477 C473 1.408 . S
C477 C476 1.404 . S
C477 H489 0.930 . S
C478 C474 1.524 . S
C478 H490 0.956 . S
C478 H491 0.961 . S
C478 H492 0.961 . S
C479 C476 1.539 . S
C479 H493 0.958 . S
C479 H494 0.961 . S
C479 H495 0.960 . S
H480 C464 0.931 . S
H481 C469 0.929 . S
H482 C470 0.960 . S
H483 C470 0.962 . S
H484 C470 0.960 . S
H485 C471 0.961 . S
H486 C471 0.961 . S
H487 C471 0.961 . S
H488 C472 0.931 . S
H489 C477 0.930 . S
H490 C478 0.956 . S
H491 C478 0.961 . S
H492 C478 0.961 . S
H493 C479 0.958 . S
H494 C479 0.961 . S
H495 C479 0.960 . S
C496 C497 1.391 . S
C496 C498 1.394 . S
C496 H512 0.931 . S
C497 C496 1.391 . S
C497 C501 1.376 . S
C498 C496 1.394 . S
C498 C499 1.369 . S
C498 C502 1.531 . S
C499 C498 1.369 . S
C499 C500 1.410 . S
C499 C507 1.503 . S
C500 C499 1.410 . S
C500 C501 1.392 . S
C500 C503 1.511 . S
C501 C497 1.376 . S
C501 C500 1.392 . S
C501 H513 0.929 . S
C502 C498 1.531 . S
C502 H514 0.960 . S
C502 H515 0.962 . S
C502 H516 0.960 . S
C503 C500 1.511 . S
C503 H517 0.961 . S
C503 H518 0.961 . S
C503 H519 0.961 . S
C504 C505 1.370 . S
C504 C506 1.363 . S
C504 H520 0.931 . S
C505 C504 1.370 . S
C505 C509 1.408 . S
C506 C504 1.363 . S
C506 C507 1.370 . S
C506 C510 1.524 . S
C507 C499 1.503 . S
C507 C506 1.370 . S
C507 C508 1.403 . S
C508 C507 1.403 . S
C508 C509 1.404 . S
C508 C511 1.539 . S
C509 C505 1.408 . S
C509 C508 1.404 . S
C509 H521 0.930 . S
C510 C506 1.524 . S
C510 H522 0.956 . S
C510 H523 0.961 . S
C510 H524 0.961 . S
C511 C508 1.539 . S
C511 H525 0.958 . S
C511 H526 0.961 . S
C511 H527 0.960 . S
H512 C496 0.931 . S
H513 C501 0.929 . S
H514 C502 0.960 . S
H515 C502 0.962 . S
H516 C502 0.960 . S
H517 C503 0.961 . S
H518 C503 0.961 . S
H519 C503 0.961 . S
H520 C504 0.931 . S
H521 C509 0.930 . S
H522 C510 0.956 . S
H523 C510 0.961 . S
H524 C510 0.961 . S
H525 C511 0.958 . S
H526 C511 0.961 . S
H527 C511 0.960 . S
C528 C529 1.391 . S
C528 C530 1.394 . S
C528 H544 0.931 . S
C529 C528 1.391 . S
C529 C533 1.376 . S
C530 C528 1.394 . S
C530 C531 1.369 . S
C530 C534 1.531 1_556 S
C531 C530 1.369 . S
C531 C532 1.410 . S
C531 C539 1.503 . S
C532 C531 1.410 . S
C532 C533 1.392 . S
C532 C535 1.511 . S
C533 C529 1.376 . S
C533 C532 1.392 . S
C533 H545 0.929 . S
C534 C530 1.531 1_554 S
C534 H546 0.960 1_554 S
C534 H547 0.962 . S
C534 H548 0.960 1_554 S
C535 C532 1.511 . S
C535 H549 0.961 . S
C535 H550 0.961 . S
C535 H551 0.961 . S
C536 C537 1.370 . S
C536 C538 1.363 . S
C536 H552 0.931 . S
C537 C536 1.370 . S
C537 C541 1.408 1_554 S
C538 C536 1.363 . S
C538 C539 1.370 1_554 S
C538 C542 1.524 . S
C539 C531 1.503 . S
C539 C538 1.370 1_556 S
C539 C540 1.403 . S
C540 C539 1.403 . S
C540 C541 1.404 . S
C540 C543 1.539 . S
C541 C537 1.408 1_556 S
C541 C540 1.404 . S
C541 H553 0.930 . S
C542 C538 1.524 . S
C542 H554 0.956 . S
C542 H555 0.961 . S
C542 H556 0.961 . S
C543 C540 1.539 . S
C543 H557 0.958 . S
C543 H558 0.961 . S
C543 H559 0.960 . S
H544 C528 0.931 . S
H545 C533 0.929 . S
H546 C534 0.960 1_556 S
H547 C534 0.962 . S
H548 C534 0.960 1_556 S
H549 C535 0.961 . S
H550 C535 0.961 . S
H551 C535 0.961 . S
H552 C536 0.931 . S
H553 C541 0.930 . S
H554 C542 0.956 . S
H555 C542 0.961 . S
H556 C542 0.961 . S
H557 C543 0.958 . S
H558 C543 0.961 . S
H559 C543 0.960 . S
C560 C561 1.391 . S
C560 C562 1.394 . S
C560 H576 0.931 . S
C561 C560 1.391 . S
C561 C565 1.376 . S
C562 C560 1.394 . S
C562 C563 1.369 . S
C562 C566 1.531 . S
C563 C562 1.369 . S
C563 C564 1.410 . S
C563 C571 1.503 . S
C564 C563 1.410 . S
C564 C565 1.392 . S
C564 C567 1.511 . S
C565 C561 1.376 . S
C565 C564 1.392 . S
C565 H577 0.929 . S
C566 C562 1.531 . S
C566 H578 0.960 . S
C566 H579 0.962 . S
C566 H580 0.960 . S
C567 C564 1.511 . S
C567 H581 0.961 1_554 S
C567 H582 0.961 . S
C567 H583 0.961 . S
C568 C569 1.370 . S
C568 C570 1.363 . S
C568 H584 0.931 . S
C569 C568 1.370 . S
C569 C573 1.408 . S
C570 C568 1.363 . S
C570 C571 1.370 . S
C570 C574 1.524 . S
C571 C563 1.503 . S
C571 C570 1.370 . S
C571 C572 1.403 . S
C572 C571 1.403 . S
C572 C573 1.404 . S
C572 C575 1.539 . S
C573 C569 1.408 . S
C573 C572 1.404 . S
C573 H585 0.930 . S
C574 C570 1.524 . S
C574 H586 0.956 . S
C574 H587 0.961 . S
C574 H588 0.961 . S
C575 C572 1.539 . S
C575 H589 0.958 . S
C575 H590 0.961 . S
C575 H591 0.960 . S
H576 C560 0.931 . S
H577 C565 0.929 . S
H578 C566 0.960 . S
H579 C566 0.962 . S
H580 C566 0.960 . S
H581 C567 0.961 1_556 S
H582 C567 0.961 . S
H583 C567 0.961 . S
H584 C568 0.931 . S
H585 C573 0.930 . S
H586 C574 0.956 . S
H587 C574 0.961 . S
H588 C574 0.961 . S
H589 C575 0.958 . S
H590 C575 0.961 . S
H591 C575 0.960 . S
C592 C593 1.391 . S
C592 C594 1.394 . S
C592 H608 0.931 . S
C593 C592 1.391 . S
C593 C597 1.376 . S
C594 C592 1.394 . S
C594 C595 1.369 . S
C594 C598 1.531 . S
C595 C594 1.369 . S
C595 C596 1.410 . S
C595 C603 1.503 . S
C596 C595 1.410 . S
C596 C597 1.392 . S
C596 C599 1.511 . S
C597 C593 1.376 . S
C597 C596 1.392 . S
C597 H609 0.929 . S
C598 C594 1.531 . S
C598 H610 0.960 . S
C598 H611 0.962 . S
C598 H612 0.960 . S
C599 C596 1.511 . S
C599 H613 0.961 . S
C599 H614 0.961 . S
C599 H615 0.961 . S
C600 C601 1.370 . S
C600 C602 1.363 . S
C600 H616 0.931 . S
C601 C600 1.370 . S
C601 C605 1.408 . S
C602 C600 1.363 . S
C602 C603 1.370 . S
C602 C606 1.524 . S
C603 C595 1.503 . S
C603 C602 1.370 . S
C603 C604 1.403 . S
C604 C603 1.403 . S
C604 C605 1.404 . S
C604 C607 1.539 . S
C605 C601 1.408 . S
C605 C604 1.404 . S
C605 H617 0.930 . S
C606 C602 1.524 . S
C606 H618 0.956 . S
C606 H619 0.961 . S
C606 H620 0.961 . S
C607 C604 1.539 . S
C607 H621 0.958 . S
C607 H622 0.961 . S
C607 H623 0.960 . S
H608 C592 0.931 . S
H609 C597 0.929 . S
H610 C598 0.960 . S
H611 C598 0.962 . S
H612 C598 0.960 . S
H613 C599 0.961 . S
H614 C599 0.961 . S
H615 C599 0.961 . S
H616 C600 0.931 . S
H617 C605 0.930 . S
H618 C606 0.956 . S
H619 C606 0.961 . S
H620 C606 0.961 . S
H621 C607 0.958 . S
H622 C607 0.961 . S
H623 C607 0.960 . S
C113 C20 1.532 . S
C121 C6 1.516 . S
C145 C21 1.514 . S
C153 C34 1.522 . S
C177 C49 1.528 . S
C185 C35 1.517 . S
C209 C48 1.525 . S
C217 C7 1.526 . S
C241 C62 1.528 . S
C249 C76 1.517 . S
C273 C77 1.535 . S
C281 C90 1.515 . S
C305 C91 1.508 . S
C313 C105 1.525 . S
C337 C63 1.518 . S
C345 C104 1.528 . S
C369 C8 1.527 . S
C377 C107 1.536 . S
C401 C65 1.541 . S
C409 C23 1.532 . S
C433 C78 1.536 . S
C441 C37 1.545 . S
C465 C50 1.550 . S
C473 C92 1.539 . S
C497 C36 1.553 . S
C505 C106 1.536 . S
C529 C64 1.521 . S
C537 C51 1.546 . S
C561 C79 1.541 . S
C569 C9 1.544 . S
C593 C22 1.520 . S
C601 C93 1.546 . S
