# Generated by pormake.
# Topology uml, (4)-cn, num edge types: 1
# Building blocks:
#     Node 0, Type 0, BuildingBlock: MUDLON_clean_sbu_0, # of connection points: 4
#     Node 1, Type 0, BuildingBlock: MUDLON_clean_sbu_0, # of connection points: 4
#     Node 2, Type 0, BuildingBlock: MUDLON_clean_sbu_0, # of connection points: 4
#     Node 3, Type 0, BuildingBlock: MUDLON_clean_sbu_0, # of connection points: 4
#     Node 4, Type 0, BuildingBlock: MUDLON_clean_sbu_0, # of connection points: 4
#     Node 5, Type 0, BuildingBlock: MUDLON_clean_sbu_0, # of connection points: 4
#     Node 6, Type 0, BuildingBlock: MUDLON_clean_sbu_0, # of connection points: 4
#     Node 7, Type 0, BuildingBlock: MUDLON_clean_sbu_0, # of connection points: 4
#     Node 8, Type 0, BuildingBlock: MUDLON_clean_sbu_0, # of connection points: 4
#     Node 9, Type 0, BuildingBlock: MUDLON_clean_sbu_0, # of connection points: 4
#     Node 10, Type 0, BuildingBlock: MUDLON_clean_sbu_0, # of connection points: 4
#     Node 11, Type 0, BuildingBlock: MUDLON_clean_sbu_0, # of connection points: 4
#     Node 12, Type 0, BuildingBlock: MUDLON_clean_sbu_0, # of connection points: 4
#     Node 13, Type 0, BuildingBlock: MUDLON_clean_sbu_0, # of connection points: 4
#     Node 14, Type 0, BuildingBlock: MUDLON_clean_sbu_0, # of connection points: 4
#     Node 15, Type 0, BuildingBlock: MUDLON_clean_sbu_0, # of connection points: 4
#     Node 16, Type 0, BuildingBlock: MUDLON_clean_sbu_0, # of connection points: 4
#     Node 17, Type 0, BuildingBlock: MUDLON_clean_sbu_0, # of connection points: 4
#     Node 18, Type 0, BuildingBlock: MUDLON_clean_sbu_0, # of connection points: 4
#     Node 19, Type 0, BuildingBlock: MUDLON_clean_sbu_0, # of connection points: 4
#     Node 20, Type 0, BuildingBlock: MUDLON_clean_sbu_0, # of connection points: 4
#     Node 21, Type 0, BuildingBlock: MUDLON_clean_sbu_0, # of connection points: 4
#     Node 22, Type 0, BuildingBlock: MUDLON_clean_sbu_0, # of connection points: 4
#     Node 23, Type 0, BuildingBlock: MUDLON_clean_sbu_0, # of connection points: 4
#     Node 24, Type 0, BuildingBlock: MUDLON_clean_sbu_0, # of connection points: 4
#     Node 25, Type 0, BuildingBlock: MUDLON_clean_sbu_0, # of connection points: 4
#     Node 26, Type 0, BuildingBlock: MUDLON_clean_sbu_0, # of connection points: 4
#     Node 27, Type 0, BuildingBlock: MUDLON_clean_sbu_0, # of connection points: 4
#     Node 28, Type 0, BuildingBlock: MUDLON_clean_sbu_0, # of connection points: 4
#     Node 29, Type 0, BuildingBlock: MUDLON_clean_sbu_0, # of connection points: 4
#     Node 30, Type 0, BuildingBlock: MUDLON_clean_sbu_0, # of connection points: 4
#     Node 31, Type 0, BuildingBlock: MUDLON_clean_sbu_0, # of connection points: 4
#     Node 32, Type 0, BuildingBlock: MUDLON_clean_sbu_0, # of connection points: 4
#     Node 33, Type 0, BuildingBlock: MUDLON_clean_sbu_0, # of connection points: 4
#     Node 34, Type 0, BuildingBlock: MUDLON_clean_sbu_0, # of connection points: 4
#     Node 35, Type 0, BuildingBlock: MUDLON_clean_sbu_0, # of connection points: 4
#     Edge 36, Type (0, 0), BuildingBlock: OJICUG_clean_linker_0, # of connection points: 2
#     Edge 37, Type (0, 0), BuildingBlock: OJICUG_clean_linker_0, # of connection points: 2
#     Edge 38, Type (0, 0), BuildingBlock: OJICUG_clean_linker_0, # of connection points: 2
#     Edge 39, Type (0, 0), BuildingBlock: OJICUG_clean_linker_0, # of connection points: 2
#     Edge 40, Type (0, 0), BuildingBlock: OJICUG_clean_linker_0, # of connection points: 2
#     Edge 41, Type (0, 0), BuildingBlock: OJICUG_clean_linker_0, # of connection points: 2
#     Edge 42, Type (0, 0), BuildingBlock: OJICUG_clean_linker_0, # of connection points: 2
#     Edge 43, Type (0, 0), BuildingBlock: OJICUG_clean_linker_0, # of connection points: 2
#     Edge 44, Type (0, 0), BuildingBlock: OJICUG_clean_linker_0, # of connection points: 2
#     Edge 45, Type (0, 0), BuildingBlock: OJICUG_clean_linker_0, # of connection points: 2
#     Edge 46, Type (0, 0), BuildingBlock: OJICUG_clean_linker_0, # of connection points: 2
#     Edge 47, Type (0, 0), BuildingBlock: OJICUG_clean_linker_0, # of connection points: 2
#     Edge 48, Type (0, 0), BuildingBlock: OJICUG_clean_linker_0, # of connection points: 2
#     Edge 49, Type (0, 0), BuildingBlock: OJICUG_clean_linker_0, # of connection points: 2
#     Edge 50, Type (0, 0), BuildingBlock: OJICUG_clean_linker_0, # of connection points: 2
#     Edge 51, Type (0, 0), BuildingBlock: OJICUG_clean_linker_0, # of connection points: 2
#     Edge 52, Type (0, 0), BuildingBlock: OJICUG_clean_linker_0, # of connection points: 2
#     Edge 53, Type (0, 0), BuildingBlock: OJICUG_clean_linker_0, # of connection points: 2
#     Edge 54, Type (0, 0), BuildingBlock: OJICUG_clean_linker_0, # of connection points: 2
#     Edge 55, Type (0, 0), BuildingBlock: OJICUG_clean_linker_0, # of connection points: 2
#     Edge 56, Type (0, 0), BuildingBlock: OJICUG_clean_linker_0, # of connection points: 2
#     Edge 57, Type (0, 0), BuildingBlock: OJICUG_clean_linker_0, # of connection points: 2
#     Edge 58, Type (0, 0), BuildingBlock: OJICUG_clean_linker_0, # of connection points: 2
#     Edge 59, Type (0, 0), BuildingBlock: OJICUG_clean_linker_0, # of connection points: 2
#     Edge 60, Type (0, 0), BuildingBlock: OJICUG_clean_linker_0, # of connection points: 2
#     Edge 61, Type (0, 0), BuildingBlock: OJICUG_clean_linker_0, # of connection points: 2
#     Edge 62, Type (0, 0), BuildingBlock: OJICUG_clean_linker_0, # of connection points: 2
#     Edge 63, Type (0, 0), BuildingBlock: OJICUG_clean_linker_0, # of connection points: 2
#     Edge 64, Type (0, 0), BuildingBlock: OJICUG_clean_linker_0, # of connection points: 2
#     Edge 65, Type (0, 0), BuildingBlock: OJICUG_clean_linker_0, # of connection points: 2
#     Edge 66, Type (0, 0), BuildingBlock: OJICUG_clean_linker_0, # of connection points: 2
#     Edge 67, Type (0, 0), BuildingBlock: OJICUG_clean_linker_0, # of connection points: 2
#     Edge 68, Type (0, 0), BuildingBlock: OJICUG_clean_linker_0, # of connection points: 2
#     Edge 69, Type (0, 0), BuildingBlock: OJICUG_clean_linker_0, # of connection points: 2
#     Edge 70, Type (0, 0), BuildingBlock: OJICUG_clean_linker_0, # of connection points: 2
#     Edge 71, Type (0, 0), BuildingBlock: OJICUG_clean_linker_0, # of connection points: 2
#     Edge 72, Type (0, 0), BuildingBlock: OJICUG_clean_linker_0, # of connection points: 2
#     Edge 73, Type (0, 0), BuildingBlock: OJICUG_clean_linker_0, # of connection points: 2
#     Edge 74, Type (0, 0), BuildingBlock: OJICUG_clean_linker_0, # of connection points: 2
#     Edge 75, Type (0, 0), BuildingBlock: OJICUG_clean_linker_0, # of connection points: 2
#     Edge 76, Type (0, 0), BuildingBlock: OJICUG_clean_linker_0, # of connection points: 2
#     Edge 77, Type (0, 0), BuildingBlock: OJICUG_clean_linker_0, # of connection points: 2
#     Edge 78, Type (0, 0), BuildingBlock: OJICUG_clean_linker_0, # of connection points: 2
#     Edge 79, Type (0, 0), BuildingBlock: OJICUG_clean_linker_0, # of connection points: 2
#     Edge 80, Type (0, 0), BuildingBlock: OJICUG_clean_linker_0, # of connection points: 2
#     Edge 81, Type (0, 0), BuildingBlock: OJICUG_clean_linker_0, # of connection points: 2
#     Edge 82, Type (0, 0), BuildingBlock: OJICUG_clean_linker_0, # of connection points: 2
#     Edge 83, Type (0, 0), BuildingBlock: OJICUG_clean_linker_0, # of connection points: 2
#     Edge 84, Type (0, 0), BuildingBlock: OJICUG_clean_linker_0, # of connection points: 2
#     Edge 85, Type (0, 0), BuildingBlock: OJICUG_clean_linker_0, # of connection points: 2
#     Edge 86, Type (0, 0), BuildingBlock: OJICUG_clean_linker_0, # of connection points: 2
#     Edge 87, Type (0, 0), BuildingBlock: OJICUG_clean_linker_0, # of connection points: 2
#     Edge 88, Type (0, 0), BuildingBlock: OJICUG_clean_linker_0, # of connection points: 2
#     Edge 89, Type (0, 0), BuildingBlock: OJICUG_clean_linker_0, # of connection points: 2
#     Edge 90, Type (0, 0), BuildingBlock: OJICUG_clean_linker_0, # of connection points: 2
#     Edge 91, Type (0, 0), BuildingBlock: OJICUG_clean_linker_0, # of connection points: 2
#     Edge 92, Type (0, 0), BuildingBlock: OJICUG_clean_linker_0, # of connection points: 2
#     Edge 93, Type (0, 0), BuildingBlock: OJICUG_clean_linker_0, # of connection points: 2
#     Edge 94, Type (0, 0), BuildingBlock: OJICUG_clean_linker_0, # of connection points: 2
#     Edge 95, Type (0, 0), BuildingBlock: OJICUG_clean_linker_0, # of connection points: 2
#     Edge 96, Type (0, 0), BuildingBlock: OJICUG_clean_linker_0, # of connection points: 2
#     Edge 97, Type (0, 0), BuildingBlock: OJICUG_clean_linker_0, # of connection points: 2
#     Edge 98, Type (0, 0), BuildingBlock: OJICUG_clean_linker_0, # of connection points: 2
#     Edge 99, Type (0, 0), BuildingBlock: OJICUG_clean_linker_0, # of connection points: 2
#     Edge 100, Type (0, 0), BuildingBlock: OJICUG_clean_linker_0, # of connection points: 2
#     Edge 101, Type (0, 0), BuildingBlock: OJICUG_clean_linker_0, # of connection points: 2
#     Edge 102, Type (0, 0), BuildingBlock: OJICUG_clean_linker_0, # of connection points: 2
#     Edge 103, Type (0, 0), BuildingBlock: OJICUG_clean_linker_0, # of connection points: 2
#     Edge 104, Type (0, 0), BuildingBlock: OJICUG_clean_linker_0, # of connection points: 2
#     Edge 105, Type (0, 0), BuildingBlock: OJICUG_clean_linker_0, # of connection points: 2
#     Edge 106, Type (0, 0), BuildingBlock: OJICUG_clean_linker_0, # of connection points: 2
#     Edge 107, Type (0, 0), BuildingBlock: OJICUG_clean_linker_0, # of connection points: 2
# Relax obj value: 0.067
# Max RMSD: 0.178
# Mean RMSD: 0.173
data_MOF--net-uml--node1-MUDLON_clean_sbu_0--edge1-OJICUG_clean_linker_0
_symmetry_space_group_name_H-M    P1
_symmetry_Int_Tables_number       1
_symmetry_cell_setting            triclinic
loop_
_symmetry_equiv_pos_as_xyz
'x, y, z'
_cell_length_a     75.357957
_cell_length_b     74.874127
_cell_length_c     21.845552
_cell_angle_alpha  89.838962
_cell_angle_beta   90.033408
_cell_angle_gamma 120.09788
loop_
_atom_site_label
_atom_site_type_symbol
_atom_site_fract_x
_atom_site_fract_y
_atom_site_fract_z
_atom_type_partial_charge
Mg0 Mg 0.3756 0.12066 0.19611 0.0
C1 C 0.36097 0.14938 0.20448 0.0
O2 O 0.34483 0.13072 0.20398 0.0
C3 C 0.39401 0.09796 0.15095 0.0
O4 O 0.37411 0.08537 0.15507 0.0
C5 C 0.36985 0.10888 0.32911 0.0
O6 O 0.38959 0.12237 0.32759 0.0
O7 O 0.35981 0.10409 0.27918 0.0
O8 O 0.37871 0.15116 0.20298 0.0
O9 O 0.3571 0.10923 0.11401 0.0
C10 C 0.36746 0.11717 0.06543 0.0
O11 O 0.38709 0.13077 0.07034 0.0
O12 O 0.4014 0.11618 0.172 0.0
Mg13 Mg 0.90224 0.2618 0.17473 0.0
C14 C 0.87383 0.21773 0.18229 0.0
O15 O 0.89237 0.22024 0.18483 0.0
C16 C 0.92525 0.304 0.1359 0.0
O17 O 0.93787 0.29678 0.14168 0.0
C18 C 0.91377 0.26789 0.30793 0.0
O19 O 0.90064 0.27457 0.30623 0.0
O20 O 0.91827 0.26223 0.25825 0.0
O21 O 0.87207 0.2338 0.17877 0.0
O22 O 0.91514 0.25615 0.09355 0.0
C23 C 0.90824 0.2595 0.0443 0.0
O24 O 0.8945 0.26536 0.04801 0.0
O25 O 0.9067 0.29253 0.15298 0.0
Mg26 Mg 0.75934 0.65495 0.17611 0.0
C27 C 0.80436 0.67581 0.18709 0.0
O28 O 0.80046 0.69106 0.18865 0.0
C29 C 0.71584 0.61736 0.16981 0.0
O30 O 0.71274 0.62608 0.21754 0.0
C31 C 0.75152 0.657 0.31117 0.0
O32 O 0.74838 0.63812 0.30751 0.0
O33 O 0.75523 0.66757 0.26213 0.0
O34 O 0.78936 0.6574 0.18263 0.0
O35 O 0.76208 0.67223 0.09311 0.0
C36 C 0.74632 0.66856 0.06196 0.0
O37 O 0.72803 0.6574 0.08633 0.0
O38 O 0.73398 0.62475 0.14918 0.0
Mg39 Mg 0.12157 0.37148 0.34379 0.0
C40 C 0.14908 0.35556 0.32982 0.0
O41 O 0.13031 0.33974 0.32719 0.0
C42 C 0.09959 0.39079 0.38717 0.0
O43 O 0.08676 0.37085 0.38214 0.0
C44 C 0.1089 0.36613 0.21177 0.0
O45 O 0.12227 0.386 0.21317 0.0
O46 O 0.10456 0.35587 0.26147 0.0
O47 O 0.15142 0.37357 0.33567 0.0
O48 O 0.1098 0.35299 0.42616 0.0
C49 C 0.11761 0.36341 0.47465 0.0
O50 O 0.13143 0.38308 0.46953 0.0
O51 O 0.11783 0.39792 0.36746 0.0
Mg52 Mg 0.65313 0.75715 0.34823 0.0
C53 C 0.67027 0.80155 0.3483 0.0
O54 O 0.68589 0.79834 0.34745 0.0
C55 C 0.6305 0.71254 0.35368 0.0
O56 O 0.64873 0.71804 0.33138 0.0
C57 C 0.65976 0.75078 0.21555 0.0
O58 O 0.63962 0.74124 0.21681 0.0
O59 O 0.66962 0.75827 0.26501 0.0
O60 O 0.65218 0.78587 0.34841 0.0
O61 O 0.6704 0.76 0.43018 0.0
C62 C 0.65966 0.75378 0.47878 0.0
O63 O 0.6397 0.74581 0.47476 0.0
O64 O 0.6259 0.72657 0.36174 0.0
Mg65 Mg 0.2669 0.90064 0.3631 0.0
C66 C 0.22295 0.87462 0.34583 0.0
O67 O 0.22629 0.89354 0.35096 0.0
C68 C 0.31179 0.91107 0.36887 0.0
O69 O 0.31373 0.92286 0.32176 0.0
C70 C 0.27351 0.91236 0.23032 0.0
O71 O 0.27602 0.89622 0.23184 0.0
O72 O 0.2706 0.91909 0.2807 0.0
O73 O 0.23829 0.87181 0.34819 0.0
O74 O 0.26029 0.91057 0.44936 0.0
C75 C 0.27438 0.92158 0.48732 0.0
O76 O 0.2936 0.93097 0.46933 0.0
O77 O 0.29392 0.89871 0.38944 0.0
Mg78 Mg 0.65297 0.90486 0.84702 0.0
C79 C 0.66051 0.91001 0.97855 0.0
O80 O 0.64121 0.89536 0.97438 0.0
C81 C 0.65931 0.91874 0.7149 0.0
O82 O 0.63918 0.90774 0.71602 0.0
C83 C 0.62904 0.92309 0.89155 0.0
O84 O 0.6483 0.9369 0.90219 0.0
O85 O 0.62508 0.90661 0.86328 0.0
O86 O 0.67065 0.91785 0.92961 0.0
O87 O 0.6517 0.87511 0.8431 0.0
C88 C 0.6697 0.87751 0.84194 0.0
O89 O 0.68545 0.89642 0.84152 0.0
O90 O 0.66917 0.92125 0.76444 0.0
Mg91 Mg 0.11601 0.75843 0.83343 0.0
C92 C 0.14338 0.80417 0.86034 0.0
O93 O 0.1282 0.79981 0.8982 0.0
C94 C 0.10838 0.7148 0.82754 0.0
O95 O 0.09543 0.71391 0.78575 0.0
C96 C 0.11084 0.75225 0.69929 0.0
O97 O 0.12729 0.7511 0.71205 0.0
O98 O 0.10125 0.75476 0.74347 0.0
O99 O 0.14313 0.7896 0.82941 0.0
O100 O 0.09929 0.75681 0.91707 0.0
C101 C 0.10876 0.75588 0.96435 0.0
O102 O 0.12643 0.75666 0.95652 0.0
O103 O 0.12074 0.73219 0.85144 0.0
Mg104 Mg 0.26687 0.37186 0.84769 0.0
C105 C 0.22139 0.35044 0.85413 0.0
O106 O 0.22506 0.33512 0.84858 0.0
C107 C 0.3109 0.40748 0.84866 0.0
O108 O 0.31267 0.39651 0.80481 0.0
C109 C 0.25791 0.36334 0.71601 0.0
O110 O 0.2489 0.37382 0.73139 0.0
O111 O 0.26821 0.3602 0.75654 0.0
O112 O 0.23656 0.36886 0.85548 0.0
O113 O 0.2673 0.35408 0.92598 0.0
C114 C 0.27054 0.36408 0.97581 0.0
O115 O 0.27328 0.38283 0.97356 0.0
O116 O 0.29308 0.40228 0.86857 0.0
Mg117 Mg 0.90841 0.65599 0.68153 0.0
C118 C 0.87873 0.6697 0.67337 0.0
O119 O 0.89696 0.6864 0.67342 0.0
C120 C 0.90822 0.61662 0.63248 0.0
O121 O 0.89489 0.61552 0.59181 0.0
C122 C 0.90794 0.66798 0.81119 0.0
O123 O 0.88854 0.65484 0.79982 0.0
O124 O 0.9211 0.67197 0.769 0.0
O125 O 0.87772 0.65218 0.6759 0.0
O126 O 0.92339 0.67376 0.59926 0.0
C127 C 0.91297 0.66619 0.55061 0.0
O128 O 0.89456 0.64992 0.5551 0.0
O129 O 0.91362 0.62973 0.67578 0.0
Mg130 Mg 0.37378 0.26988 0.68794 0.0
C131 C 0.35298 0.22395 0.68592 0.0
O132 O 0.33751 0.22736 0.68884 0.0
C133 C 0.40964 0.31387 0.69468 0.0
O134 O 0.39875 0.31438 0.74085 0.0
C135 C 0.37476 0.27442 0.82296 0.0
O136 O 0.39241 0.27585 0.80935 0.0
O137 O 0.36263 0.27226 0.7792 0.0
O138 O 0.37117 0.23942 0.68492 0.0
O139 O 0.3579 0.27087 0.60556 0.0
C140 C 0.36799 0.2709 0.55861 0.0
O141 O 0.3845 0.26948 0.5672 0.0
O142 O 0.40404 0.29671 0.66831 0.0
Mg143 Mg 0.75649 0.11571 0.682 0.0
C144 C 0.74608 0.09149 0.5631 0.0
O145 O 0.72803 0.08956 0.57307 0.0
C146 C 0.75828 0.09109 0.79278 0.0
O147 O 0.76744 0.08542 0.75253 0.0
C148 C 0.71412 0.11199 0.67351 0.0
O149 O 0.71125 0.10208 0.72559 0.0
O150 O 0.73198 0.12104 0.64987 0.0
O151 O 0.75949 0.09865 0.60554 0.0
O152 O 0.78699 0.14325 0.68323 0.0
C153 C 0.80216 0.14017 0.68009 0.0
O154 O 0.79849 0.12109 0.67711 0.0
O155 O 0.75118 0.10249 0.77505 0.0
Mg156 Mg 0.04051 0.45425 0.51391 0.0
C157 C 0.02411 0.48198 0.50587 0.0
O158 O 1.00814 0.46322 0.50659 0.0
C159 C 0.06314 0.43258 0.50988 0.0
O160 O 0.04507 0.41986 0.53367 0.0
C161 C 0.03494 0.44429 0.64867 0.0
O162 O 0.05491 0.45664 0.64637 0.0
O163 O 0.02473 0.4398 0.59911 0.0
O164 O 0.04197 0.48407 0.50903 0.0
O165 O 0.02275 0.43862 0.4338 0.0
C166 C 0.03331 0.44373 0.3848 0.0
O167 O 0.05309 0.45692 0.38809 0.0
O168 O 0.06767 0.45118 0.50045 0.0
Mg169 Mg 0.57425 0.59177 0.51362 0.0
C170 C 0.54988 0.54764 0.52455 0.0
O171 O 0.56928 0.55283 0.52884 0.0
C172 C 0.59471 0.63407 0.47706 0.0
O173 O 0.60839 0.62825 0.48428 0.0
C174 C 0.58799 0.59999 0.64549 0.0
O175 O 0.57576 0.60777 0.64438 0.0
O176 O 0.59126 0.59321 0.59594 0.0
O177 O 0.54564 0.56206 0.51835 0.0
O178 O 0.58772 0.58763 0.4312 0.0
C179 C 0.5808 0.5912 0.38236 0.0
O180 O 0.56682 0.59673 0.38668 0.0
O181 O 0.57625 0.62152 0.49294 0.0
Mg182 Mg 0.42677 0.98421 0.52623 0.0
C183 C 0.47094 1.00488 0.5603 0.0
O184 O 0.46422 0.01513 0.59218 0.0
C185 C 0.38335 0.94778 0.5205 0.0
O186 O 0.38087 0.958 0.56529 0.0
C187 C 0.41934 0.9858 0.66083 0.0
O188 O 0.41818 0.96772 0.65758 0.0
O189 O 0.42164 0.99587 0.61165 0.0
O190 O 0.45819 0.98955 0.52829 0.0
O191 O 0.42692 1.00165 0.44704 0.0
C192 C 0.42516 0.99189 0.39772 0.0
O193 O 0.42408 0.97385 0.40104 0.0
O194 O 0.40143 0.95361 0.50164 0.0
Mg195 Mg 0.77978 0.69715 0.68634 0.0
C196 C 0.80684 0.67908 0.67732 0.0
O197 O 0.78841 0.66269 0.6787 0.0
C198 C 0.77156 0.73343 0.69211 0.0
O199 O 0.75995 0.72437 0.64428 0.0
C200 C 0.76961 0.6945 0.55136 0.0
O201 O 0.78461 0.71374 0.55491 0.0
O202 O 0.76329 0.68386 0.60043 0.0
O203 O 0.8085 0.69688 0.67937 0.0
O204 O 0.76599 0.67961 0.76948 0.0
C205 C 0.75325 0.68242 0.80022 0.0
O206 O 0.7452 0.69274 0.7754 0.0
O207 O 0.78287 0.72671 0.71307 0.0
Mg208 Mg 0.32228 0.09595 0.69504 0.0
C209 C 0.33777 0.13977 0.68304 0.0
O210 O 0.35364 0.13697 0.68108 0.0
C211 C 0.30388 0.0542 0.73779 0.0
O212 O 0.32377 0.06178 0.73275 0.0
C213 C 0.32807 0.08866 0.56289 0.0
O214 O 0.30817 0.08133 0.56408 0.0
O215 O 0.33815 0.09509 0.61256 0.0
O216 O 0.31992 0.12387 0.68774 0.0
O217 O 0.34066 0.10266 0.77718 0.0
C218 C 0.33028 0.09966 0.82593 0.0
O219 O 0.31063 0.09342 0.8213 0.0
O220 O 0.29643 0.06517 0.71863 0.0
Mg221 Mg 0.92979 0.23598 0.67533 0.0
C222 C 0.88614 0.20832 0.67389 0.0
O223 O 0.88928 0.22724 0.67324 0.0
C224 C 0.97331 0.25959 0.68986 0.0
O225 O 0.96665 0.27203 0.67249 0.0
C226 C 0.93545 0.24785 0.54205 0.0
O227 O 0.94339 0.23573 0.54374 0.0
O228 O 0.92914 0.25162 0.59171 0.0
O229 O 0.90174 0.20589 0.67404 0.0
O230 O 0.92549 0.2495 0.75721 0.0
C231 C 0.92995 0.24335 0.80614 0.0
O232 O 0.93702 0.23053 0.80197 0.0
O233 O 0.96044 0.24031 0.69147 0.0
Mg234 Mg 0.32748 0.24486 0.19362 0.0
C235 C 0.34122 0.27023 0.30995 0.0
O236 O 0.32439 0.27089 0.29996 0.0
C237 C 0.35389 0.26631 0.08134 0.0
O238 O 0.36834 0.26977 0.1211 0.0
C239 C 0.2885 0.24811 0.20015 0.0
O240 O 0.2952 0.25744 0.14715 0.0
O241 O 0.29761 0.23954 0.22505 0.0
O242 O 0.34776 0.26301 0.26847 0.0
O243 O 0.33009 0.21708 0.1949 0.0
C244 C 0.34796 0.21948 0.20233 0.0
O245 O 0.36359 0.23825 0.20913 0.0
O246 O 0.33536 0.2574 0.09981 0.0
Mg247 Mg 0.77748 0.08874 0.18357 0.0
C248 C 0.80407 0.1342 0.17755 0.0
O249 O 0.7854 0.1313 0.17401 0.0
C250 C 0.78543 0.05749 0.2502 0.0
O251 O 0.79613 0.07348 0.28572 0.0
C252 C 0.76866 0.07924 0.05051 0.0
O253 O 0.78081 0.0719 0.06368 0.0
O254 O 0.76317 0.08679 0.09389 0.0
O255 O 0.80627 0.1184 0.18147 0.0
O256 O 0.76158 0.08943 0.26693 0.0
C257 C 0.77351 0.09811 0.31224 0.0
O258 O 0.79339 0.10822 0.30247 0.0
O259 O 0.77839 0.06016 0.20006 0.0
Mg260 Mg 0.93357 0.71362 0.18398 0.0
C261 C 0.88879 0.69386 0.18728 0.0
O262 O 0.89254 0.67855 0.18335 0.0
C263 C 0.97826 0.74798 0.18254 0.0
O264 O 0.97887 0.73746 0.13535 0.0
C265 C 0.92544 0.70579 0.05116 0.0
O266 O 0.91714 0.71703 0.06539 0.0
O267 O 0.93481 0.70181 0.09282 0.0
O268 O 0.90396 0.71226 0.18883 0.0
O269 O 0.93152 0.6946 0.26248 0.0
C270 C 0.93632 0.70443 0.31298 0.0
O271 O 0.94258 0.72425 0.31223 0.0
O272 O 0.96094 0.74306 0.20595 0.0
Mg273 Mg 0.57823 0.99264 1.01415 0.0
C274 C 0.54102 0.99364 0.06346 0.0
O275 O 0.54937 0.99328 0.11591 0.0
C276 C 0.57507 0.95236 0.96625 0.0
O277 O 0.56363 0.95378 0.92334 0.0
C278 C 0.5945 1.00131 0.14348 0.0
O279 O 0.58686 0.98122 0.14149 0.0
O280 O 0.59421 1.01066 0.09503 0.0
O281 O 0.54867 0.99151 1.01399 0.0
O282 O 0.59254 1.00724 0.92799 0.0
C283 C 0.58035 1.00104 0.88254 0.0
O284 O 0.56071 0.98851 0.89256 0.0
O285 O 0.58037 0.96452 1.01199 0.0
Mg286 Mg 0.04269 0.60276 1.00927 0.0
C287 C 0.02464 0.55847 0.03404 0.0
O288 O 1.00933 0.56209 0.03824 0.0
C289 C 0.07799 0.63447 0.93416 0.0
O290 O 0.07054 0.61843 0.89758 0.0
C291 C 0.03848 0.61166 0.14044 0.0
O292 O 0.05793 0.61693 0.13787 0.0
O293 O 0.02797 0.60604 0.09131 0.0
O294 O 0.04261 0.57373 0.02416 0.0
O295 O 0.02539 0.59772 0.92456 0.0
C296 C 0.02536 0.58455 0.88774 0.0
O297 O 0.03427 0.57406 0.90405 0.0
O298 O 0.07108 0.63182 0.9887 0.0
Mg299 Mg 0.42467 0.44781 1.01252 0.0
C300 C 0.41376 0.42215 0.89656 0.0
O301 O 0.39532 0.41886 0.90898 0.0
C302 C 0.42584 0.42321 0.12389 0.0
O303 O 0.43548 0.41786 0.08443 0.0
C304 C 0.38246 0.44419 1.00004 0.0
O305 O 0.3793 0.43483 0.05322 0.0
O306 O 0.40042 0.45301 0.97729 0.0
O307 O 0.42772 0.43049 0.93714 0.0
O308 O 0.45517 0.47539 1.01469 0.0
C309 C 0.4703 0.47226 1.01133 0.0
O310 O 0.46654 0.45317 1.00742 0.0
O311 O 0.41864 0.43447 0.10545 0.0
Mg312 Mg 0.70461 0.78331 0.84645 0.0
C313 C 0.68507 0.8089 0.84745 0.0
O314 O 0.66954 0.78988 0.84776 0.0
C315 C 0.73799 0.77186 0.84236 0.0
O316 O 0.72693 0.75947 0.88696 0.0
C317 C 0.701 0.77406 0.98134 0.0
O318 O 0.71971 0.78999 0.97879 0.0
O319 O 0.69107 0.76703 0.93173 0.0
O320 O 0.70323 0.81172 0.8476 0.0
O321 O 0.68674 0.76753 0.76661 0.0
C322 C 0.69669 0.7754 0.71739 0.0
O323 O 0.71539 0.79129 0.7211 0.0
O324 O 0.73378 0.78534 0.82293 0.0
Mg325 Mg 0.24422 0.92973 0.85956 0.0
C326 C 0.2041 0.8903 0.81933 0.0
O327 O 0.2103 0.89727 0.7636 0.0
C328 C 0.26464 0.97438 0.8552 0.0
O329 O 0.2779 0.96954 0.87749 0.0
C330 C 0.25606 0.93572 0.99424 0.0
O331 O 0.24432 0.94404 0.99247 0.0
O332 O 0.25967 0.92923 0.94448 0.0
O333 O 0.21394 0.9015 0.86489 0.0
O334 O 0.25978 0.92922 0.77584 0.0
C335 C 0.2567 0.91325 0.74678 0.0
O336 O 0.2455 0.89495 0.77182 0.0
O337 O 0.24631 0.95982 0.84657 0.0
Mg338 Mg 0.09432 0.31862 0.84614 0.0
C339 C 0.13752 0.33409 0.85962 0.0
O340 O 0.13453 0.34992 0.86231 0.0
C341 C 0.0528 0.30064 0.80772 0.0
O342 O 0.06057 0.32061 0.81518 0.0
C343 C 0.08736 0.32451 0.978 0.0
O344 O 0.08008 0.30448 0.97665 0.0
O345 O 0.09363 0.33472 0.9283 0.0
O346 O 0.12187 0.31608 0.85383 0.0
O347 O 0.10108 0.33696 0.76345 0.0
C348 C 0.09791 0.32634 0.71505 0.0
O349 O 0.09128 0.30649 0.72035 0.0
O350 O 0.0637 0.29279 0.82378 0.0
Mg351 Mg 0.45047 0.03253 0.0284 0.0
C352 C 0.4782 0.01656 0.06339 0.0
O353 O 0.46131 1.00431 0.09356 0.0
C354 C 0.43223 0.05841 0.02794 0.0
O355 O 0.41838 0.04029 1.00669 0.0
C356 C 0.43739 0.02627 0.89573 0.0
O357 O 0.44823 0.04653 0.89706 0.0
O358 O 0.43499 0.01622 0.94505 0.0
O359 O 0.47905 0.03139 0.03201 0.0
O360 O 0.43382 0.01669 0.11038 0.0
C361 C 0.4381 0.02781 0.15813 0.0
O362 O 0.45091 0.04775 0.15355 0.0
O363 O 0.45028 0.06158 0.03698 0.0
Mg364 Mg 0.98844 0.42886 0.01817 0.0
C365 C 1.00681 0.47352 0.02243 0.0
O366 O 0.02213 0.46991 0.01829 0.0
C367 C 0.96473 0.38431 0.02144 0.0
O368 O 0.98282 0.38951 0.99854 0.0
C369 C 0.99381 0.42418 0.88361 0.0
O370 O 0.97392 0.41687 0.88581 0.0
O371 O 1.00404 0.42982 0.93316 0.0
O372 O 0.98857 0.45811 0.02286 0.0
O373 O 1.00589 0.4304 0.09838 0.0
C374 C 0.99529 0.42499 0.14732 0.0
O375 O 0.97562 0.41872 0.1439 0.0
O376 O 0.96067 0.39865 0.03113 0.0
Mg377 Mg 0.59943 0.56549 1.01303 0.0
C378 C 0.55464 0.53981 1.01045 0.0
O379 O 0.55827 0.55889 1.0125 0.0
C380 C 0.64447 0.57792 0.01792 0.0
O381 O 0.64555 0.5905 0.97418 0.0
C382 C 0.60628 0.5766 0.87911 0.0
O383 O 0.61021 0.56137 0.88058 0.0
O384 O 0.60219 0.58249 0.92904 0.0
O385 O 0.5699 0.53685 1.00932 0.0
O386 O 0.59643 0.58024 0.09416 0.0
C387 C 0.59888 0.57247 0.14312 0.0
O388 O 0.60274 0.55725 0.13891 0.0
O389 O 0.6269 0.56399 0.03651 0.0
Mg390 Mg 0.99365 0.579 0.50804 0.0
C391 C 1.00047 0.57493 0.63535 0.0
O392 O 0.98456 0.55731 0.61864 0.0
C393 C 0.99914 0.59312 0.37777 0.0
O394 O 0.97932 0.57999 0.38019 0.0
C395 C 0.96695 0.59264 0.56369 0.0
O396 O 0.98541 0.60547 0.58437 0.0
O397 O 0.96478 0.57884 0.52545 0.0
O398 O 1.00954 0.58903 0.59527 0.0
O399 O 0.9929 0.54968 0.49612 0.0
C400 C 1.01082 0.55188 0.49603 0.0
O401 O 0.0267 0.57065 0.49958 0.0
O402 O 1.00955 0.59712 0.42693 0.0
Mg403 Mg 0.444 0.42271 0.51483 0.0
C404 C 0.48917 0.46015 0.52222 0.0
O405 O 0.49454 0.44642 0.53597 0.0
C406 C 0.45485 0.39402 0.58383 0.0
O407 O 0.46436 0.41029 0.61915 0.0
C408 C 0.4354 0.41194 0.38242 0.0
O409 O 0.44857 0.40593 0.39632 0.0
O410 O 0.42908 0.41892 0.42522 0.0
O411 O 0.47045 0.45413 0.5111 0.0
O412 O 0.42724 0.42158 0.59837 0.0
C413 C 0.439 0.43148 0.64294 0.0
O414 O 0.45862 0.44368 0.63188 0.0
O415 O 0.44795 0.39593 0.53244 0.0
Mg416 Mg 0.59872 0.04067 0.5159 0.0
C417 C 0.55861 0.03619 0.55825 0.0
O418 O 0.56808 0.03932 0.61103 0.0
C419 C 0.64208 0.07786 0.52396 0.0
O420 O 0.64432 0.06988 0.47308 0.0
C421 C 0.60577 0.03966 0.38058 0.0
O422 O 0.60529 0.05692 0.38446 0.0
O423 O 0.6043 0.02973 0.42952 0.0
O424 O 0.5684 0.03769 0.50924 0.0
O425 O 0.5943 0.0204 0.59254 0.0
C426 C 0.60785 0.02574 0.63409 0.0
O427 O 0.62628 0.04149 0.62416 0.0
O428 O 0.62421 0.07029 0.54702 0.0
Mg429 Mg 0.24141 0.3187 0.34234 0.0
C430 C 0.21681 0.33946 0.33544 0.0
O431 O 0.23572 0.35487 0.34094 0.0
C432 C 0.25044 0.28336 0.34421 0.0
O433 O 0.26231 0.29407 0.38995 0.0
C434 C 0.24052 0.32696 0.47388 0.0
O435 O 0.22113 0.31589 0.45823 0.0
O436 O 0.25414 0.33062 0.43355 0.0
O437 O 0.21377 0.3211 0.33427 0.0
O438 O 0.25927 0.33667 0.26395 0.0
C439 C 0.25276 0.32658 0.21418 0.0
O440 O 0.23725 0.30758 0.21656 0.0
O441 O 0.23809 0.28858 0.32196 0.0
Mg442 Mg 0.70572 0.93122 0.34698 0.0
C443 C 0.68653 0.88606 0.35189 0.0
O444 O 0.67107 0.88951 0.35192 0.0
C445 C 0.74088 0.97612 0.35582 0.0
O446 O 0.73125 0.97574 0.40634 0.0
C447 C 0.7006 0.93502 0.48133 0.0
O448 O 0.71868 0.93639 0.47974 0.0
O449 O 0.69139 0.93345 0.43107 0.0
O450 O 0.70473 0.90155 0.35085 0.0
O451 O 0.68794 0.9279 0.26575 0.0
C452 C 0.69825 0.93151 0.21657 0.0
O453 O 0.71778 0.93723 0.22026 0.0
O454 O 0.73479 0.95945 0.32616 0.0
Mg455 Mg 0.09343 0.78232 0.32992 0.0
C456 C 0.08228 0.75796 0.21155 0.0
O457 O 0.0651 0.75803 0.22044 0.0
C458 C 0.09724 0.75965 0.44128 0.0
O459 O 0.10802 0.7559 0.40151 0.0
C460 C 0.05188 0.7806 0.32426 0.0
O461 O 0.04917 0.7714 0.37754 0.0
O462 O 0.06939 0.78848 0.29874 0.0
O463 O 0.09571 0.76453 0.25397 0.0
O464 O 0.12395 0.80975 0.3324 0.0
C465 C 0.13917 0.80692 0.32585 0.0
O466 O 0.13564 0.78808 0.31678 0.0
O467 O 0.0881 0.76911 0.42297 0.0
C468 C 0.36034 0.10239 0.50048 0.0
C469 C 0.3388 0.09164 0.50348 0.0
H470 H 0.38701 0.11613 0.44325 0.0
C471 C 0.32759 0.08504 0.44855 0.0
H472 H 0.36947 0.10765 0.54181 0.0
C473 C 0.33766 0.08987 0.39191 0.0
C474 C 0.35918 0.10147 0.38885 0.0
H475 H 0.31098 0.07663 0.44913 0.0
H476 H 0.32853 0.0851 0.35052 0.0
C477 C 0.37041 0.10727 0.44384 0.0
C478 C 0.92092 0.26566 0.47923 0.0
C479 C 0.93189 0.25506 0.48236 0.0
H480 H 0.90672 0.27813 0.42186 0.0
C481 C 0.93825 0.25018 0.42747 0.0
H482 H 0.91583 0.26972 0.52056 0.0
C483 C 0.93305 0.25503 0.37078 0.0
C484 C 0.92131 0.26484 0.36764 0.0
H485 H 0.9468 0.2421 0.42815 0.0
H486 H 0.9377 0.25052 0.32945 0.0
C487 C 0.91568 0.27048 0.42254 0.0
C488 C 0.76769 0.69711 0.43707 0.0
C489 C 0.76229 0.68481 0.49026 0.0
H490 H 0.76825 0.69806 0.33892 0.0
C491 C 0.75147 0.66322 0.48377 0.0
H492 H 0.77595 0.71379 0.44034 0.0
C493 C 0.74722 0.6542 0.42551 0.0
C494 C 0.75346 0.66653 0.37232 0.0
H495 H 0.74707 0.65327 0.52366 0.0
H496 H 0.73957 0.63754 0.42223 0.0
C497 C 0.76322 0.68809 0.37881 0.0
C498 C 0.08427 0.32386 0.09248 0.0
C499 C 0.0906 0.33523 0.03755 0.0
H500 H 0.08489 0.32463 0.1905 0.0
C501 C 0.1014 0.3569 0.0406 0.0
H502 H 0.07584 0.30714 0.09186 0.0
C503 C 0.10662 0.36693 0.09726 0.0
C504 C 0.10112 0.35554 0.1522 0.0
H505 H 0.10646 0.36615 0.99925 0.0
H506 H 0.11552 0.38364 0.09789 0.0
C507 C 0.08945 0.33389 0.14914 0.0
C508 C 0.69204 0.76823 0.15287 0.0
C509 C 0.67073 0.75477 0.15625 0.0
H510 H 0.71831 0.78479 0.09509 0.0
C511 C 0.65978 0.74631 0.10176 0.0
H512 H 0.70096 0.77499 0.19392 0.0
C513 C 0.66975 0.75187 0.04502 0.0
C514 C 0.69088 0.76611 0.04146 0.0
H515 H 0.64336 0.7358 0.10271 0.0
H516 H 0.66073 0.74554 1.00386 0.0
C517 C 0.70199 0.77387 0.09612 0.0
C518 C 0.26345 0.93392 0.16611 0.0
C519 C 0.27155 0.92064 0.17019 0.0
H520 H 0.25227 0.94911 0.10757 0.0
C521 C 0.27617 0.91385 0.11558 0.0
H522 H 0.2597 0.93943 0.20713 0.0
C523 C 0.27199 0.91946 0.05842 0.0
C524 C 0.26294 0.93189 0.05434 0.0
H525 H 0.28251 0.90369 0.11691 0.0
H526 H 0.27518 0.91342 0.0175 0.0
C527 C 0.25914 0.93941 0.1089 0.0
C528 C 0.65949 0.92289 0.60074 0.0
C529 C 0.67033 0.92551 0.65555 0.0
H530 H 0.66054 0.92405 0.50268 0.0
C531 C 0.69155 0.93302 0.65249 0.0
H532 H 0.64314 0.91722 0.60144 0.0
C533 C 0.70148 0.93679 0.59588 0.0
C534 C 0.69047 0.93331 0.54099 0.0
H535 H 0.7004 0.93524 0.69375 0.0
H536 H 0.71772 0.94193 0.59519 0.0
C537 C 0.66946 0.92683 0.54407 0.0
C538 C 0.11009 0.74679 0.52676 0.0
C539 C 0.09822 0.75545 0.50764 0.0
H540 H 0.12318 0.73891 0.60151 0.0
C541 C 0.08886 0.76142 0.55276 0.0
H542 H 0.11746 0.74188 0.49363 0.0
C543 C 0.09209 0.75958 0.61539 0.0
C544 C 0.10487 0.75189 0.63408 0.0
H545 H 0.07959 0.76813 0.53973 0.0
H546 H 0.08528 0.76495 0.64898 0.0
C547 C 0.11342 0.74511 0.58892 0.0
C548 C 0.23168 0.34042 0.56574 0.0
C549 C 0.24577 0.33641 0.53562 0.0
H550 H 0.22465 0.35218 0.64527 0.0
C551 C 0.26422 0.34129 0.56543 0.0
H552 H 0.21738 0.33697 0.54402 0.0
C553 C 0.26824 0.34971 0.62481 0.0
C554 C 0.25413 0.35392 0.65428 0.0
H555 H 0.27532 0.33829 0.54332 0.0
H556 H 0.28246 0.35322 0.64719 0.0
C557 C 0.2359 0.34925 0.62382 0.0
C558 C 0.93178 0.68312 0.90189 0.0
C559 C 0.91357 0.67858 0.87118 0.0
H560 H 0.94968 0.69482 0.98432 0.0
C561 C 0.89975 0.68329 0.89981 0.0
H562 H 0.94262 0.67949 0.88095 0.0
C563 C 0.90394 0.69234 0.95762 0.0
C564 C 0.92183 0.69647 0.9893 0.0
H565 H 0.88562 0.68 0.87728 0.0
H566 H 0.89288 0.69573 0.97811 0.0
C567 C 0.93573 0.69172 0.96103 0.0
C568 C 0.3795 0.27861 0.99579 0.0
C569 C 0.35906 0.27045 1.01499 0.0
H570 H 0.40035 0.28631 0.92096 0.0
C571 C 0.34381 0.26504 0.96994 0.0
H572 H 0.39171 0.28305 0.02887 0.0
C573 C 0.34884 0.26704 0.90728 0.0
C574 C 0.3692 0.27433 0.88846 0.0
H575 H 0.3279 0.25873 0.98302 0.0
H576 H 0.33671 0.26219 0.87372 0.0
C577 C 0.38447 0.28044 0.9336 0.0
C578 C 0.75195 0.09495 0.90457 0.0
C579 C 0.75849 0.08623 0.85899 0.0
H580 H 0.74989 0.09957 1.00087 0.0
C581 C 0.76672 0.07388 0.8775 0.0
H582 H 0.74553 0.10455 0.89206 0.0
C583 C 0.76919 0.07105 0.93958 0.0
C584 C 0.76352 0.08046 0.98523 0.0
H585 H 0.77181 0.06679 0.84394 0.0
H586 H 0.77611 0.06185 0.95166 0.0
C587 C 0.75444 0.09209 0.96702 0.0
C588 C 0.99294 0.42158 0.76902 0.0
C589 C 1.00432 0.42756 0.82369 0.0
H590 H 0.99361 0.42199 0.671 0.0
C591 C 0.02584 0.43784 0.82019 0.0
H592 H 0.97634 0.41356 0.77 0.0
C593 C 0.03575 0.4427 0.76334 0.0
C594 C 0.02438 0.43737 0.70866 0.0
H595 H 0.03509 0.44263 0.86136 0.0
H596 H 0.05236 0.45108 0.76235 0.0
C597 C 1.00285 0.42639 0.71217 0.0
C598 C 0.59144 0.60367 0.75972 0.0
C599 C 0.59531 0.59641 0.70486 0.0
H600 H 0.59205 0.60332 0.85775 0.0
C601 C 0.60465 0.58422 0.70792 0.0
H602 H 0.58436 0.61318 0.75906 0.0
C603 C 0.60898 0.57849 0.76456 0.0
C604 C 0.60418 0.58491 0.81947 0.0
H605 H 0.6079 0.57841 0.66661 0.0
H606 H 0.61551 0.56849 0.76522 0.0
C607 C 0.59588 0.59803 0.81638 0.0
C608 C 0.43221 0.02651 0.78239 0.0
C609 C 0.43014 0.01537 0.83644 0.0
H610 H 0.43016 0.02588 0.68459 0.0
C611 C 0.42249 0.994 0.8325 0.0
H612 H 0.43792 0.04297 0.78382 0.0
C613 C 0.41811 0.98421 0.77551 0.0
C614 C 0.42114 0.99554 0.72125 0.0
H615 H 0.42063 0.98493 0.87323 0.0
H616 H 0.41297 0.96787 0.77394 0.0
C617 C 0.42769 0.01669 0.72545 0.0
C618 C 0.60691 0.04179 0.26581 0.0
C619 C 0.6056 0.03082 0.31964 0.0
H620 H 0.60469 0.04123 0.168 0.0
C621 C 0.6026 1.01078 0.31443 0.0
H622 H 0.60933 0.0573 0.26807 0.0
C623 C 0.59991 1.00154 0.25695 0.0
C624 C 0.60024 0.01215 0.20329 0.0
H625 H 0.60158 1.00191 0.35488 0.0
H626 H 0.59691 0.98582 0.2548 0.0
C627 C 0.6043 0.03258 0.20831 0.0
C628 C 0.99764 0.59563 0.26342 0.0
C629 C 1.00937 0.60058 0.3174 0.0
H630 H 0.99754 0.59539 0.16531 0.0
C631 C 0.03086 0.61108 0.31241 0.0
H632 H 0.98104 0.58764 0.26549 0.0
C633 C 0.04032 0.61549 0.25483 0.0
C634 C 0.02853 0.60958 0.20085 0.0
H635 H 0.04038 0.61518 0.35294 0.0
H636 H 0.05689 0.62293 0.25275 0.0
C637 C 1.0071 0.6001 0.20584 0.0
C638 C 0.41839 0.42652 0.23505 0.0
C639 C 0.42569 0.41828 0.19019 0.0
H640 H 0.41553 0.4309 0.33104 0.0
C641 C 0.43438 0.40644 0.20961 0.0
H642 H 0.41157 0.4357 0.22182 0.0
C643 C 0.43665 0.40372 0.27193 0.0
C644 C 0.43026 0.41273 0.31689 0.0
H645 H 0.44007 0.39973 0.17663 0.0
H646 H 0.44399 0.395 0.28478 0.0
C647 C 0.42063 0.42375 0.29773 0.0
C648 C 0.33472 0.18134 0.20033 0.0
C649 C 0.35135 0.20158 0.20323 0.0
H650 H 0.32473 0.14915 0.19877 0.0
C651 C 0.37135 0.20461 0.20699 0.0
H652 H 0.31914 0.17843 0.19748 0.0
C653 C 0.37463 0.18776 0.20756 0.0
C654 C 0.35796 0.16752 0.20467 0.0
H655 H 0.38454 0.22003 0.20925 0.0
H656 H 0.39018 0.1906 0.21023 0.0
C657 C 0.33798 0.16453 0.20119 0.0
C658 C 0.81899 0.17271 0.17497 0.0
C659 C 0.82193 0.15556 0.1787 0.0
H660 H 0.83291 0.20573 0.17331 0.0
C661 C 0.84201 0.15913 0.18414 0.0
H662 H 0.80371 0.17055 0.17082 0.0
C663 C 0.85871 0.1793 0.18567 0.0
C664 C 0.85579 0.19646 0.1818 0.0
H665 H 0.84486 0.14634 0.18726 0.0
H666 H 0.87396 0.1814 0.18976 0.0
C667 C 0.83571 0.19291 0.1765 0.0
C668 C 0.85093 0.66884 0.1858 0.0
C669 C 0.86724 0.68939 0.18852 0.0
H670 H 0.8184 0.6484 0.18331 0.0
C671 C 0.86265 0.70536 0.19178 0.0
H672 H 0.85388 0.65612 0.18331 0.0
C673 C 0.84224 0.70089 0.19186 0.0
C674 C 0.82594 0.68035 0.18861 0.0
H675 H 0.87481 0.72133 0.19397 0.0
H676 H 0.83927 0.71361 0.19407 0.0
C677 C 0.83054 0.66437 0.18583 0.0
C678 C 0.16305 0.3315 0.32416 0.0
C679 C 0.16667 0.35182 0.32902 0.0
H680 H 0.17588 0.31163 0.32241 0.0
C681 C 0.18697 0.36807 0.33478 0.0
H682 H 0.14761 0.31855 0.31961 0.0
C683 C 0.20323 0.36404 0.33632 0.0
C684 C 0.19956 0.34367 0.33224 0.0
H685 H 0.19029 0.38387 0.33868 0.0
H686 H 0.21869 0.37692 0.34126 0.0
C687 C 0.17928 0.32747 0.32581 0.0
C688 C 0.65804 0.82731 0.3509 0.0
C689 C 0.6742 0.82309 0.34947 0.0
H690 H 0.64926 0.85042 0.35292 0.0
C691 C 0.69451 0.83981 0.34933 0.0
H692 H 0.64225 0.81485 0.35111 0.0
C693 C 0.69858 0.86022 0.35041 0.0
C694 C 0.68244 0.86446 0.35167 0.0
H695 H 0.70739 0.83717 0.3483 0.0
H696 H 0.71438 0.87266 0.35008 0.0
C697 C 0.66211 0.84775 0.35199 0.0
C698 C 0.19744 0.83684 0.33195 0.0
C699 C 0.20161 0.85721 0.3394 0.0
H700 H 0.17451 0.80505 0.32158 0.0
C701 C 0.18506 0.86093 0.34153 0.0
H702 H 0.20981 0.83344 0.33008 0.0
C703 C 0.16482 0.84468 0.33689 0.0
C704 C 0.16062 0.8243 0.32974 0.0
H705 H 0.18768 0.87643 0.34726 0.0
H706 H 0.15247 0.8481 0.33908 0.0
C707 C 0.17717 0.82058 0.32704 0.0
C708 C 0.65706 0.83933 0.84453 0.0
C709 C 0.67338 0.85979 0.8427 0.0
H710 H 0.64796 0.80728 0.84756 0.0
C711 C 0.69361 0.86337 0.84243 0.0
H712 H 0.64133 0.83603 0.84486 0.0
C713 C 0.69745 0.84693 0.8441 0.0
C714 C 0.68116 0.82647 0.84603 0.0
H715 H 0.7066 0.87893 0.84108 0.0
H716 H 0.7132 0.85027 0.84385 0.0
C717 C 0.66091 0.82287 0.84615 0.0
C718 C 0.18409 0.8535 0.78385 0.0
C719 C 0.18806 0.86839 0.82917 0.0
H720 H 0.16734 0.8215 0.7587 0.0
C721 C 0.17757 0.86185 0.88524 0.0
H722 H 0.19212 0.85798 0.74043 0.0
C723 C 0.16322 0.84098 0.89539 0.0
C724 C 0.1594 0.82607 0.85034 0.0
H725 H 0.18038 0.87289 0.92119 0.0
H726 H 0.15519 0.83649 0.93881 0.0
C727 C 0.17008 0.83256 0.79456 0.0
C728 C 0.17544 0.35818 0.86553 0.0
C729 C 0.15884 0.33784 0.86039 0.0
H730 H 0.20804 0.37811 0.86754 0.0
C731 C 0.163 0.32164 0.85438 0.0
H732 H 0.17285 0.37109 0.87028 0.0
C733 C 0.18332 0.32574 0.85287 0.0
C734 C 0.1999 0.34612 0.85724 0.0
H735 H 0.15061 0.30583 0.85027 0.0
H736 H 0.186 0.3129 0.84775 0.0
C737 C 0.19569 0.36226 0.86391 0.0
C738 C 0.84499 0.69395 0.67286 0.0
C739 C 0.8252 0.67662 0.67484 0.0
H740 H 0.87725 0.70533 0.6706 0.0
C741 C 0.82307 0.65682 0.67522 0.0
H742 H 0.8472 0.70941 0.67243 0.0
C743 C 0.84037 0.65443 0.67424 0.0
C744 C 0.86016 0.67179 0.67276 0.0
H745 H 0.80803 0.6431 0.67671 0.0
H746 H 0.83822 0.639 0.67503 0.0
C747 C 0.86223 0.69157 0.67178 0.0
C748 C 0.3288 0.18551 0.6873 0.0
C749 C 0.34901 0.20238 0.68417 0.0
H750 H 0.3093 0.15253 0.68935 0.0
C751 C 0.36526 0.19838 0.67956 0.0
H752 H 0.31587 0.188 0.69082 0.0
C753 C 0.36145 0.17807 0.67854 0.0
C754 C 0.34128 0.16118 0.68222 0.0
H755 H 0.38098 0.21094 0.67691 0.0
H756 H 0.37444 0.17567 0.67526 0.0
C757 C 0.32498 0.16514 0.68639 0.0
C758 C 0.82795 0.1781 0.67935 0.0
C759 C 0.82367 0.15758 0.67889 0.0
H760 H 0.85088 0.21004 0.67798 0.0
C761 C 0.84019 0.15379 0.67675 0.0
H762 H 0.81565 0.1816 0.68091 0.0
C763 C 0.86052 0.17015 0.67511 0.0
C764 C 0.86476 0.19067 0.67543 0.0
H765 H 0.83746 0.13814 0.67633 0.0
H766 H 0.87286 0.16672 0.67352 0.0
C767 C 0.84822 0.19442 0.67758 0.0
C768 C 0.03753 0.52025 0.50089 0.0
C769 C 0.0209 0.49997 0.50177 0.0
H770 H 0.04739 0.55247 0.49798 0.0
C771 C 1.00085 0.49686 0.49902 0.0
H772 H 0.05314 0.5232 0.50279 0.0
C773 C 0.9975 0.51363 0.49621 0.0
C774 C 0.01413 0.53392 0.49604 0.0
H775 H 0.98764 0.48143 0.49946 0.0
H776 H 0.98189 0.51067 0.49481 0.0
C777 C 0.03418 0.53702 0.49803 0.0
C778 C 0.49863 0.49751 0.51235 0.0
C779 C 0.50453 0.4826 0.52258 0.0
H780 H 0.50819 0.52975 0.50526 0.0
C781 C 0.52526 0.48938 0.53428 0.0
H782 H 0.48275 0.49284 0.50341 0.0
C783 C 0.53974 0.51044 0.53539 0.0
C784 C 0.53393 0.52539 0.52497 0.0
H785 H 0.53039 0.47841 0.54255 0.0
H786 H 0.55559 0.51498 0.54436 0.0
C787 C 0.51317 0.51868 0.51362 0.0
C788 C 0.52683 0.03214 0.60746 0.0
C789 C 0.53627 0.02871 0.55704 0.0
H790 H 0.49889 0.02734 0.64777 0.0
C791 C 0.52395 0.0169 0.50778 0.0
H792 H 0.53585 0.04107 0.64624 0.0
C793 C 0.5026 1.00854 0.50934 0.0
C794 C 0.49324 0.01221 0.55961 0.0
H795 H 0.53075 0.01377 0.46856 0.0
H796 H 0.49349 0.99955 0.47078 0.0
C797 C 0.50562 0.02419 0.60842 0.0
C798 C 0.5078 0.0159 1.01239 0.0
C799 C 0.49505 0.01181 0.0636 0.0
H800 H 0.53197 0.01273 0.97133 0.0
C801 C 0.49732 1.00141 0.11402 0.0
H802 H 0.50621 0.02366 0.97262 0.0
C803 C 0.51212 0.99538 0.11362 0.0
C804 C 0.52466 0.99911 0.06214 0.0
H805 H 0.48765 0.99796 0.15406 0.0
H806 H 0.51364 0.98762 0.15353 0.0
C807 C 0.52232 1.00939 1.01138 0.0
C808 C 0.99995 0.52028 0.03884 0.0
C809 C 0.0203 0.53678 0.0339 0.0
H810 H 0.97964 0.48746 0.03878 0.0
C811 C 0.03608 0.53222 0.02604 0.0
H812 H 0.98735 0.52319 0.04481 0.0
C813 C 0.03161 0.51169 0.02263 0.0
C814 C 1.01123 0.4952 0.02675 0.0
H815 H 0.05189 0.54449 0.02189 0.0
H816 H 0.0442 0.5088 1.01623 0.0
C817 C 0.99546 0.49974 0.03519 0.0
C818 C 0.49636 0.51018 1.01382 0.0
C819 C 0.49186 0.48959 1.01123 0.0
H820 H 0.51959 0.54206 1.01548 0.0
C821 C 0.50825 0.48562 1.00821 0.0
H822 H 0.48416 0.51381 1.01613 0.0
C823 C 0.52863 0.50183 1.00785 0.0
C824 C 0.53312 0.52241 1.01042 0.0
H825 H 0.50536 0.46993 1.00614 0.0
H826 H 0.54085 0.49821 1.00557 0.0
C827 C 0.51673 0.52638 1.01339 0.0
C828 C 0.43561 0.08658 0.09929 0.0
C829 C 0.42526 0.07243 0.05169 0.0
H830 H 0.43384 0.1061 0.1687 0.0
C831 C 0.40608 0.06921 0.0328 0.0
H832 H 0.45039 0.0893 0.11508 0.0
C833 C 0.39665 0.07846 0.06369 0.0
C834 C 0.40619 0.09139 0.11403 0.0
H835 H 0.39778 0.05864 0.9959 0.0
H836 H 0.38145 0.07489 0.04934 0.0
C837 C 0.42614 0.09611 0.13016 0.0
C838 C 0.94713 0.32854 0.05553 0.0
C839 C 0.93243 0.3236 0.10173 0.0
H840 H 0.96814 0.35109 0.99297 0.0
C841 C 0.92627 0.33798 0.11622 0.0
H842 H 0.95191 0.31764 0.04235 0.0
C843 C 0.93584 0.35757 0.08778 0.0
C844 C 0.95149 0.36283 0.04407 0.0
H845 H 0.9149 0.33451 0.15154 0.0
H846 H 0.93173 0.36885 0.10209 0.0
C847 C 0.95641 0.34776 0.02694 0.0
C848 C 0.70003 0.60418 0.06694 0.0
C849 C 0.69813 0.60324 0.13113 0.0
H850 H 0.68439 0.59696 0.98056 0.0
C851 C 0.67856 0.59118 0.15709 0.0
H852 H 0.71487 0.61349 0.04544 0.0
C853 C 0.66115 0.58125 0.11975 0.0
C854 C 0.66291 0.58369 0.05573 0.0
H855 H 0.67662 0.59021 0.20635 0.0
H856 H 0.64621 0.57299 0.14131 0.0
C857 C 0.68257 0.59475 0.02968 0.0
C858 C 0.07011 0.40361 0.50064 0.0
C859 C 0.07562 0.42395 0.48509 0.0
H860 H 0.0734 0.37749 0.48203 0.0
C861 C 0.09106 0.4344 0.44071 0.0
H862 H 0.05849 0.39513 0.53503 0.0
C863 C 0.09985 0.42414 0.41013 0.0
C864 C 0.09308 0.40328 0.42312 0.0
H865 H 0.09561 0.45008 0.42758 0.0
H866 H 0.11108 0.43213 0.37444 0.0
C867 C 0.0786 0.39342 0.46993 0.0
C868 C 0.60282 0.68624 0.42397 0.0
C869 C 0.61779 0.69124 0.37814 0.0
H870 H 0.58342 0.66389 0.49177 0.0
C871 C 0.62281 0.67625 0.36107 0.0
H872 H 0.59868 0.69751 0.43831 0.0
C873 C 0.61442 0.65744 0.39186 0.0
C874 C 0.60055 0.65288 0.44028 0.0
H875 H 0.63405 0.67939 0.32555 0.0
H876 H 0.61932 0.64662 0.37883 0.0
C877 C 0.59415 0.66708 0.45469 0.0
C878 C 0.32826 0.91387 0.47084 0.0
C879 C 0.33007 0.91611 0.40676 0.0
H880 H 0.34384 0.92236 0.55733 0.0
C881 C 0.34977 0.92609 0.38061 0.0
H882 H 0.31332 0.90637 0.49253 0.0
C883 C 0.36727 0.93474 0.41782 0.0
C884 C 0.36541 0.93408 0.482 0.0
H885 H 0.35166 0.92808 0.33145 0.0
H886 H 0.38219 0.9433 0.39627 0.0
C887 C 0.34574 0.92305 0.50806 0.0
C888 C 0.58168 0.92853 0.90104 0.0
C889 C 0.58612 0.94096 0.95361 0.0
H890 H 0.59168 0.91272 0.84023 0.0
C891 C 0.60324 0.94488 0.98917 0.0
H892 H 0.56858 0.92516 0.87268 0.0
C893 C 0.61653 0.93812 0.96995 0.0
C894 C 0.61287 0.92689 0.91541 0.0
H895 H 0.60714 0.95429 0.03 0.0
H896 H 0.63016 0.94232 0.99684 0.0
C897 C 0.59487 0.92139 0.88236 0.0
C898 C 0.0981 0.67769 0.81742 0.0
C899 C 0.10528 0.69524 0.85448 0.0
H900 H 0.08456 0.64493 0.81334 0.0
C901 C 0.10609 0.69301 0.91825 0.0
H902 H 0.09727 0.67895 0.7682 0.0
C903 C 0.0983 0.67333 0.9446 0.0
C904 C 0.08996 0.6556 0.90753 0.0
H905 H 0.11134 0.70627 0.94802 0.0
H906 H 0.09793 0.67192 0.99401 0.0
C907 C 0.0908 0.65816 0.84351 0.0
C908 C 0.36645 0.43975 0.89624 0.0
C909 C 0.36463 0.43962 0.96042 0.0
H910 H 0.35076 0.42945 0.81036 0.0
C911 C 0.34503 0.43199 0.9861 0.0
H912 H 0.38131 0.44558 0.87479 0.0
C913 C 0.32755 0.42327 0.94886 0.0
C914 C 0.32926 0.42151 0.88529 0.0
H915 H 0.34311 0.43177 0.03528 0.0
H916 H 0.31264 0.4165 0.97055 0.0
C917 C 0.34893 0.4305 0.85917 0.0
C918 C 0.91795 0.59539 0.56572 0.0
C919 C 0.92057 0.60655 0.62013 0.0
H920 H 0.93053 0.58195 0.50497 0.0
C921 C 0.93704 0.61048 0.65877 0.0
H922 H 0.90539 0.59203 0.53493 0.0
C923 C 0.95142 0.60494 0.64125 0.0
C924 C 0.94964 0.59509 0.58501 0.0
H925 H 0.9395 0.61885 0.70121 0.0
H926 H 0.96442 0.60907 0.671 0.0
C927 C 0.93233 0.58961 0.54844 0.0
C928 C 0.43753 0.35525 0.57449 0.0
C929 C 0.4472 0.37314 0.61081 0.0
H930 H 0.41847 0.32224 0.57275 0.0
C931 C 0.44692 0.37084 0.67488 0.0
H932 H 0.43745 0.35647 0.52509 0.0
C933 C 0.43575 0.35134 0.70207 0.0
C934 C 0.42504 0.33359 0.66595 0.0
H935 H 0.45415 0.38421 0.70445 0.0
H936 H 0.43472 0.35023 0.75154 0.0
C937 C 0.42673 0.33564 0.60182 0.0
C938 C 0.68008 0.10118 0.53492 0.0
C939 C 0.66046 0.09123 0.56166 0.0
H940 H 0.71252 0.11627 0.54928 0.0
C941 C 0.65891 0.09148 0.62583 0.0
H942 H 0.68182 0.1014 0.48566 0.0
C943 C 0.67653 0.09956 0.66247 0.0
C944 C 0.69608 0.10803 0.63574 0.0
H945 H 0.64406 0.08406 0.64805 0.0
H946 H 0.67474 0.09818 0.71175 0.0
C947 C 0.6977 0.10972 0.57153 0.0
C948 C 0.75137 0.76845 0.74072 0.0
C949 C 0.75088 0.76628 0.80483 0.0
H950 H 0.75818 0.75952 0.65451 0.0
C951 C 0.75998 0.75572 0.83136 0.0
H952 H 0.7443 0.77632 0.7188 0.0
C953 C 0.76839 0.74655 0.79451 0.0
C954 C 0.76731 0.74723 0.73028 0.0
H955 H 0.75975 0.75374 0.88056 0.0
H956 H 0.77435 0.73764 0.81639 0.0
C957 C 0.75924 0.75876 0.70381 0.0
C958 C 0.26174 1.00055 0.78779 0.0
C959 C 0.27236 0.99574 0.83202 0.0
H960 H 0.26331 0.0231 0.72278 0.0
C961 C 0.29217 1.01116 0.84899 0.0
H962 H 0.24646 0.98898 0.7736 0.0
C963 C 0.30174 0.03027 0.8197 0.0
C964 C 0.29178 0.03474 0.77286 0.0
H965 H 0.30075 1.00819 0.88336 0.0
H966 H 0.31731 0.04144 0.83279 0.0
C967 C 0.27137 0.02001 0.75857 0.0
C968 C 0.02042 0.26732 0.77869 0.0
C969 C 0.03307 0.2889 0.77435 0.0
H970 H 0.99129 0.24082 0.75529 0.0
C971 C 0.02661 0.29999 0.7376 0.0
H972 H 0.02507 0.25835 0.80634 0.0
C973 C 1.00774 0.29009 0.70803 0.0
C974 C 0.99449 0.26874 0.71456 0.0
H975 H 0.03609 0.31655 0.73199 0.0
H976 H 1.00331 0.29944 0.68127 0.0
C977 C 1.00117 0.2573 0.74925 0.0
C978 C 0.27485 0.2516 0.3016 0.0
C979 C 0.27445 0.25232 0.2372 0.0
H980 H 0.26769 0.2611 0.38618 0.0
C981 C 0.26293 0.26013 0.20923 0.0
H982 H 0.28343 0.24554 0.32481 0.0
C983 C 0.2534 0.26849 0.24463 0.0
C984 C 0.2556 0.2697 0.30871 0.0
H985 H 0.26219 0.26078 0.1598 0.0
H986 H 0.24565 0.27544 0.22135 0.0
C987 C 0.26581 0.2605 0.33692 0.0
C988 C 0.76657 0.01374 0.365 0.0
C989 C 0.75558 0.99631 0.32782 0.0
H990 H 0.78513 0.04659 0.36954 0.0
C991 C 0.75666 0.99895 0.26383 0.0
H992 H 0.76604 0.0122 0.4144 0.0
C993 C 0.76727 0.01879 0.2379 0.0
C994 C 0.77739 0.03633 0.27541 0.0
H995 H 0.74822 0.98582 0.23393 0.0
H996 H 0.76685 0.02044 0.18873 0.0
C997 C 0.77756 0.03347 0.33911 0.0
C998 C 0.01466 0.77005 0.31652 0.0
C999 C 0.03373 0.77709 0.28788 0.0
H1000 H 0.98216 0.75599 0.3055 0.0
C1001 C 0.0346 0.77775 0.22347 0.0
H1002 H 0.01346 0.76948 0.36598 0.0
C1003 C 0.01657 0.76952 0.18874 0.0
C1004 C 0.99736 0.76104 0.21758 0.0
H1005 H 0.04904 0.78325 0.19975 0.0
H1006 H 0.01761 0.76885 0.13942 0.0
C1007 C 0.99669 0.76234 0.28172 0.0
C1008 C 0.37018 0.11798 0.95139 0.0
C1009 C 0.35786 0.11171 1.00431 0.0
H1010 H 0.37115 0.11895 0.8534 0.0
C1011 C 0.33645 0.10077 0.998 0.0
H1012 H 0.38675 0.12632 0.95478 0.0
C1013 C 0.32754 0.09668 0.9399 0.0
C1014 C 0.33986 0.10328 0.88699 0.0
H1015 H 0.32657 0.09572 0.0379 0.0
H1016 H 0.31097 0.08845 0.93651 0.0
C1017 C 0.36127 0.11371 0.89329 0.0
C1018 C 0.92696 0.24709 0.97809 0.0
C1019 C 0.91503 0.25657 0.98367 0.0
H1020 H 0.94108 0.23554 0.91741 0.0
C1021 C 0.90907 0.26281 0.93041 0.0
H1022 H 0.93184 0.2422 0.01827 0.0
C1023 C 0.91445 0.25911 0.87264 0.0
C1024 C 0.92578 0.24899 0.86697 0.0
H1025 H 0.9 0.27032 0.93322 0.0
H1026 H 0.90929 0.26372 0.83247 0.0
C1027 C 0.93223 0.24327 0.92027 0.0
C1028 C 0.73255 0.67358 0.96264 0.0
C1029 C 0.74832 0.673 0.99544 0.0
H1030 H 0.72178 0.67713 0.87493 0.0
C1031 C 0.76532 0.67491 0.96319 0.0
H1032 H 0.71918 0.67197 0.98622 0.0
C1033 C 0.76646 0.67713 0.89956 0.0
C1034 C 0.75085 0.67797 0.86674 0.0
H1035 H 0.77758 0.67422 0.98696 0.0
H1036 H 0.77983 0.67864 0.87623 0.0
C1037 C 0.73395 0.67635 0.89897 0.0
C1038 C 0.09552 0.32346 0.60107 0.0
C1039 C 0.10205 0.33593 0.6537 0.0
H1040 H 0.09516 0.32235 0.50309 0.0
C1041 C 0.11302 0.35746 0.64688 0.0
H1042 H 0.0869 0.30679 0.60485 0.0
C1043 C 0.11785 0.36634 0.58856 0.0
C1044 C 0.11164 0.35387 0.53595 0.0
H1045 H 0.11823 0.36746 0.68654 0.0
H1046 H 0.12659 0.38301 0.5848 0.0
C1047 C 0.10018 0.33235 0.54275 0.0
C1048 C 0.66614 0.75462 0.65056 0.0
C1049 C 0.68734 0.76797 0.65669 0.0
H1050 H 0.64075 0.73959 0.58916 0.0
C1051 C 0.69958 0.77518 0.60375 0.0
H1052 H 0.65635 0.74876 0.69053 0.0
C1053 C 0.69071 0.76987 0.54575 0.0
C1054 C 0.66939 0.75736 0.53957 0.0
H1055 H 0.71603 0.78533 0.60702 0.0
H1056 H 0.70048 0.77616 0.50588 0.0
C1057 C 0.65724 0.74942 0.59249 0.0
C1058 C 0.27874 0.93326 0.65744 0.0
C1059 C 0.26193 0.91517 0.68092 0.0
H1060 H 0.296 0.94943 0.57753 0.0
C1061 C 0.24899 0.89959 0.64008 0.0
H1062 H 0.28885 0.94559 0.6879 0.0
C1063 C 0.25261 0.90211 0.57704 0.0
C1064 C 0.26957 0.92006 0.55349 0.0
H1065 H 0.23573 0.88562 0.65671 0.0
H1066 H 0.24236 0.88976 0.54683 0.0
C1067 C 0.28272 0.93553 0.59437 0.0
C1068 C 0.70051 0.93446 0.10272 0.0
C1069 C 0.68838 0.92763 0.15595 0.0
H1070 H 0.70121 0.93439 1.00478 0.0
C1071 C 0.66697 0.91599 0.15029 0.0
H1072 H 0.71707 0.94358 0.10566 0.0
C1073 C 0.65791 0.91058 0.09246 0.0
C1074 C 0.67009 0.91689 0.03927 0.0
H1075 H 0.65724 0.9105 0.19048 0.0
H1076 H 0.64137 0.9012 0.08951 0.0
C1077 C 0.69144 0.92923 0.04492 0.0
C1078 C 0.1064 0.75541 0.1378 0.0
C1079 C 0.08771 0.75469 0.14887 0.0
H1080 H 0.12758 0.7563 0.07131 0.0
C1081 C 0.07529 0.75311 0.09851 0.0
H1082 H 0.11635 0.75664 0.17536 0.0
C1083 C 0.08185 0.75316 0.03843 0.0
C1084 C 0.1009 0.75464 0.02746 0.0
H1085 H 0.06081 0.75259 0.1053 0.0
H1086 H 0.0722 0.75245 1.00068 0.0
C1087 C 0.11287 0.75532 0.07792 0.0
C1088 C 0.25498 0.32397 0.10079 0.0
C1089 C 0.26044 0.33631 0.1537 0.0
H1090 H 0.25412 0.32304 1.00273 0.0
C1091 C 0.27145 0.35785 0.14733 0.0
H1092 H 0.24666 0.30728 0.10429 0.0
C1093 C 0.27562 0.36684 0.0891 0.0
C1094 C 0.26902 0.35447 0.03621 0.0
H1095 H 0.27593 0.36775 0.18717 0.0
H1096 H 0.28338 0.38352 0.08561 0.0
C1097 C 0.25931 0.33296 0.04256 0.0
C1098 C 0.93651 0.69605 0.48368 0.0
C1099 C 0.9208 0.67544 0.48967 0.0
H1100 H 0.95376 0.72137 0.42254 0.0
C1101 C 0.91176 0.6638 0.43647 0.0
H1102 H 0.9438 0.70535 0.52378 0.0
C1103 C 0.91768 0.67284 0.37848 0.0
C1104 C 0.93251 0.69379 0.37267 0.0
H1105 H 0.89977 0.64778 0.43965 0.0
H1106 H 0.90992 0.66371 0.33851 0.0
C1107 C 0.94218 0.70518 0.42572 0.0
C1108 C 0.37303 0.27124 0.44539 0.0
C1109 C 0.36177 0.27238 0.49517 0.0
H1110 H 0.37562 0.26997 0.34816 0.0
C1111 C 0.34475 0.27474 0.48319 0.0
H1112 H 0.38636 0.26961 0.45278 0.0
C1113 C 0.33873 0.2752 0.42273 0.0
C1114 C 0.34953 0.27318 0.37305 0.0
H1115 H 0.33587 0.27585 0.52043 0.0
H1116 H 0.32515 0.27637 0.41509 0.0
C1117 C 0.36696 0.27158 0.38517 0.0
C1118 C 0.77315 0.098 0.48564 0.0
C1119 C 0.7524 0.09051 0.49935 0.0
H1120 H 0.79598 0.10652 0.41643 0.0
C1121 C 0.73828 0.08459 0.45065 0.0
H1122 H 0.78449 0.10278 0.52174 0.0
C1123 C 0.74492 0.08676 0.38964 0.0
C1124 C 0.76584 0.09512 0.37616 0.0
H1125 H 0.72216 0.07881 0.45955 0.0
H1126 H 0.73377 0.08236 0.35314 0.0
C1127 C 0.77978 0.10037 0.42496 0.0
C1128 C 0.99291 0.42126 0.26112 0.0
C1129 C 1.00502 0.42764 0.2078 0.0
H1130 H 0.99233 0.42119 0.35907 0.0
C1131 C 0.02645 0.43773 0.21332 0.0
H1132 H 0.97633 0.41328 0.25837 0.0
C1133 C 0.03559 0.44228 0.27107 0.0
C1134 C 0.02349 0.43675 0.32437 0.0
H1135 H 0.03618 0.44276 0.17312 0.0
H1136 H 0.05218 0.45063 0.27381 0.0
C1137 C 1.00205 0.42574 0.31887 0.0
C1138 C 0.58638 0.59085 0.21049 0.0
C1139 C 0.5961 0.57916 0.20404 0.0
H1140 H 0.57391 0.60382 0.27228 0.0
C1141 C 0.60214 0.57277 0.2568 0.0
H1142 H 0.5816 0.59602 0.17068 0.0
C1143 C 0.59785 0.57732 0.31497 0.0
C1144 C 0.58727 0.58817 0.32142 0.0
H1145 H 0.60984 0.56388 0.25322 0.0
H1146 H 0.60224 0.57176 0.35475 0.0
C1147 C 0.58191 0.59523 0.26869 0.0
C1148 C 0.42013 0.98827 0.28487 0.0
C1149 C 0.42572 1.00086 0.33712 0.0
H1150 H 0.41933 0.98686 0.18713 0.0
C1151 C 0.43312 0.02207 0.33012 0.0
H1152 H 0.4141 0.97179 0.28892 0.0
C1153 C 0.43616 0.03073 0.2716 0.0
C1154 C 0.4317 0.01827 0.21926 0.0
H1155 H 0.43743 0.03211 0.36961 0.0
H1156 H 0.44273 0.04728 0.26743 0.0
C1157 C 0.42301 0.99687 0.2265 0.0
C1158 C 0.60871 0.02055 0.80649 0.0
C1159 C 0.58794 1.00661 0.81898 0.0
H1160 H 0.63142 0.03732 0.73792 0.0
C1161 C 0.57425 0.99766 0.7698 0.0
H1162 H 0.61966 0.02754 0.84338 0.0
C1163 C 0.58099 1.00304 0.70956 0.0
C1164 C 0.60157 0.01758 0.69697 0.0
H1165 H 0.55819 0.98666 0.77772 0.0
H1166 H 0.56987 0.99627 0.67297 0.0
C1167 C 0.61546 0.02601 0.74602 0.0
C1168 C 1.00315 0.56065 0.73527 0.0
C1169 C 1.00694 0.5779 0.69994 0.0
H1170 H 1.00608 0.54937 0.82255 0.0
C1171 C 0.0159 0.59742 0.72773 0.0
H1172 H 0.99621 0.54542 0.71501 0.0
C1173 C 0.02099 0.59957 0.79009 0.0
C1174 C 0.0176 0.5823 0.82478 0.0
H1175 H 0.01876 0.61091 0.70151 0.0
H1176 H 0.02819 0.61477 0.81059 0.0
C1177 C 1.00868 0.56287 0.79681 0.0
C1178 C 0.41096 0.4178 0.72294 0.0
C1179 C 0.43185 0.42752 0.70744 0.0
H1180 H 0.38874 0.40826 0.79525 0.0
C1181 C 0.4464 0.43338 0.75474 0.0
H1182 H 0.39939 0.4129 0.68755 0.0
C1183 C 0.44036 0.43037 0.81601 0.0
C1184 C 0.41959 0.42163 0.8319 0.0
H1185 H 0.46262 0.44053 0.74456 0.0
H1186 H 0.45213 0.43567 0.85093 0.0
C1187 C 0.40489 0.41501 0.78464 0.0
loop_
_geom_bond_atom_site_label_1
_geom_bond_atom_site_label_2
_geom_bond_distance
_geom_bond_site_symmetry_2
_ccdc_geom_bond_type
Mg0 O7 2.141 . S
Mg0 O8 2.048 . S
Mg0 O9 2.048 . S
Mg0 O12 2.141 . S
C1 O2 1.313 . S
C1 O8 1.195 . S
O2 C1 1.313 . S
C3 O4 1.245 . S
C3 O12 1.289 . S
O4 C3 1.245 . S
C5 O6 1.245 . S
C5 O7 1.289 . S
O6 C5 1.245 . S
O7 Mg0 2.141 . S
O7 C5 1.289 . S
O8 Mg0 2.048 . S
O8 C1 1.195 . S
O9 Mg0 2.048 . S
O9 C10 1.195 . S
C10 O9 1.195 . S
C10 O11 1.313 . S
O11 C10 1.313 . S
O12 Mg0 2.141 . S
O12 C3 1.289 . S
Mg13 O20 2.141 . S
Mg13 O21 2.048 . S
Mg13 O22 2.048 . S
Mg13 O25 2.141 . S
C14 O15 1.313 . S
C14 O21 1.195 . S
O15 C14 1.313 . S
C16 O17 1.245 . S
C16 O25 1.289 . S
O17 C16 1.245 . S
C18 O19 1.245 . S
C18 O20 1.289 . S
O19 C18 1.245 . S
O20 Mg13 2.141 . S
O20 C18 1.289 . S
O21 Mg13 2.048 . S
O21 C14 1.195 . S
O22 Mg13 2.048 . S
O22 C23 1.195 . S
C23 O22 1.195 . S
C23 O24 1.313 . S
O24 C23 1.313 . S
O25 Mg13 2.141 . S
O25 C16 1.289 . S
Mg26 O33 2.141 . S
Mg26 O34 2.048 . S
Mg26 O35 2.048 . S
Mg26 O38 2.141 . S
C27 O28 1.313 . S
C27 O34 1.195 . S
O28 C27 1.313 . S
C29 O30 1.245 . S
C29 O38 1.289 . S
O30 C29 1.245 . S
C31 O32 1.245 . S
C31 O33 1.289 . S
O32 C31 1.245 . S
O33 Mg26 2.141 . S
O33 C31 1.289 . S
O34 Mg26 2.048 . S
O34 C27 1.195 . S
O35 Mg26 2.048 . S
O35 C36 1.195 . S
C36 O35 1.195 . S
C36 O37 1.313 . S
O37 C36 1.313 . S
O38 Mg26 2.141 . S
O38 C29 1.289 . S
Mg39 O46 2.141 . S
Mg39 O47 2.048 . S
Mg39 O48 2.048 . S
Mg39 O51 2.141 . S
C40 O41 1.313 . S
C40 O47 1.195 . S
O41 C40 1.313 . S
C42 O43 1.245 . S
C42 O51 1.289 . S
O43 C42 1.245 . S
C44 O45 1.245 . S
C44 O46 1.289 . S
O45 C44 1.245 . S
O46 Mg39 2.141 . S
O46 C44 1.289 . S
O47 Mg39 2.048 . S
O47 C40 1.195 . S
O48 Mg39 2.048 . S
O48 C49 1.195 . S
C49 O48 1.195 . S
C49 O50 1.313 . S
O50 C49 1.313 . S
O51 Mg39 2.141 . S
O51 C42 1.289 . S
Mg52 O59 2.141 . S
Mg52 O60 2.048 . S
Mg52 O61 2.048 . S
Mg52 O64 2.141 . S
C53 O54 1.313 . S
C53 O60 1.195 . S
O54 C53 1.313 . S
C55 O56 1.245 . S
C55 O64 1.289 . S
O56 C55 1.245 . S
C57 O58 1.245 . S
C57 O59 1.289 . S
O58 C57 1.245 . S
O59 Mg52 2.141 . S
O59 C57 1.289 . S
O60 Mg52 2.048 . S
O60 C53 1.195 . S
O61 Mg52 2.048 . S
O61 C62 1.195 . S
C62 O61 1.195 . S
C62 O63 1.313 . S
O63 C62 1.313 . S
O64 Mg52 2.141 . S
O64 C55 1.289 . S
Mg65 O72 2.141 . S
Mg65 O73 2.048 . S
Mg65 O74 2.048 . S
Mg65 O77 2.141 . S
C66 O67 1.313 . S
C66 O73 1.195 . S
O67 C66 1.313 . S
C68 O69 1.245 . S
C68 O77 1.289 . S
O69 C68 1.245 . S
C70 O71 1.245 . S
C70 O72 1.289 . S
O71 C70 1.245 . S
O72 Mg65 2.141 . S
O72 C70 1.289 . S
O73 Mg65 2.048 . S
O73 C66 1.195 . S
O74 Mg65 2.048 . S
O74 C75 1.195 . S
C75 O74 1.195 . S
C75 O76 1.313 . S
O76 C75 1.313 . S
O77 Mg65 2.141 . S
O77 C68 1.289 . S
Mg78 O85 2.141 . S
Mg78 O86 2.048 . S
Mg78 O87 2.048 . S
Mg78 O90 2.141 . S
C79 O80 1.313 . S
C79 O86 1.195 . S
O80 C79 1.313 . S
C81 O82 1.245 . S
C81 O90 1.289 . S
O82 C81 1.245 . S
C83 O84 1.245 . S
C83 O85 1.289 . S
O84 C83 1.245 . S
O85 Mg78 2.141 . S
O85 C83 1.289 . S
O86 Mg78 2.048 . S
O86 C79 1.195 . S
O87 Mg78 2.048 . S
O87 C88 1.195 . S
C88 O87 1.195 . S
C88 O89 1.313 . S
O89 C88 1.313 . S
O90 Mg78 2.141 . S
O90 C81 1.289 . S
Mg91 O98 2.141 . S
Mg91 O99 2.048 . S
Mg91 O100 2.048 . S
Mg91 O103 2.141 . S
C92 O93 1.313 . S
C92 O99 1.195 . S
O93 C92 1.313 . S
C94 O95 1.245 . S
C94 O103 1.289 . S
O95 C94 1.245 . S
C96 O97 1.245 . S
C96 O98 1.289 . S
O97 C96 1.245 . S
O98 Mg91 2.141 . S
O98 C96 1.289 . S
O99 Mg91 2.048 . S
O99 C92 1.195 . S
O100 Mg91 2.048 . S
O100 C101 1.195 . S
C101 O100 1.195 . S
C101 O102 1.313 . S
O102 C101 1.313 . S
O103 Mg91 2.141 . S
O103 C94 1.289 . S
Mg104 O111 2.141 . S
Mg104 O112 2.048 . S
Mg104 O113 2.048 . S
Mg104 O116 2.141 . S
C105 O106 1.313 . S
C105 O112 1.195 . S
O106 C105 1.313 . S
C107 O108 1.245 . S
C107 O116 1.289 . S
O108 C107 1.245 . S
C109 O110 1.245 . S
C109 O111 1.289 . S
O110 C109 1.245 . S
O111 Mg104 2.141 . S
O111 C109 1.289 . S
O112 Mg104 2.048 . S
O112 C105 1.195 . S
O113 Mg104 2.048 . S
O113 C114 1.195 . S
C114 O113 1.195 . S
C114 O115 1.313 . S
O115 C114 1.313 . S
O116 Mg104 2.141 . S
O116 C107 1.289 . S
Mg117 O124 2.141 . S
Mg117 O125 2.048 . S
Mg117 O126 2.048 . S
Mg117 O129 2.141 . S
C118 O119 1.313 . S
C118 O125 1.195 . S
O119 C118 1.313 . S
C120 O121 1.245 . S
C120 O129 1.289 . S
O121 C120 1.245 . S
C122 O123 1.245 . S
C122 O124 1.289 . S
O123 C122 1.245 . S
O124 Mg117 2.141 . S
O124 C122 1.289 . S
O125 Mg117 2.048 . S
O125 C118 1.195 . S
O126 Mg117 2.048 . S
O126 C127 1.195 . S
C127 O126 1.195 . S
C127 O128 1.313 . S
O128 C127 1.313 . S
O129 Mg117 2.141 . S
O129 C120 1.289 . S
Mg130 O137 2.141 . S
Mg130 O138 2.048 . S
Mg130 O139 2.048 . S
Mg130 O142 2.141 . S
C131 O132 1.313 . S
C131 O138 1.195 . S
O132 C131 1.313 . S
C133 O134 1.245 . S
C133 O142 1.289 . S
O134 C133 1.245 . S
C135 O136 1.245 . S
C135 O137 1.289 . S
O136 C135 1.245 . S
O137 Mg130 2.141 . S
O137 C135 1.289 . S
O138 Mg130 2.048 . S
O138 C131 1.195 . S
O139 Mg130 2.048 . S
O139 C140 1.195 . S
C140 O139 1.195 . S
C140 O141 1.313 . S
O141 C140 1.313 . S
O142 Mg130 2.141 . S
O142 C133 1.289 . S
Mg143 O150 2.141 . S
Mg143 O151 2.048 . S
Mg143 O152 2.048 . S
Mg143 O155 2.141 . S
C144 O145 1.313 . S
C144 O151 1.195 . S
O145 C144 1.313 . S
C146 O147 1.245 . S
C146 O155 1.289 . S
O147 C146 1.245 . S
C148 O149 1.245 . S
C148 O150 1.289 . S
O149 C148 1.245 . S
O150 Mg143 2.141 . S
O150 C148 1.289 . S
O151 Mg143 2.048 . S
O151 C144 1.195 . S
O152 Mg143 2.048 . S
O152 C153 1.195 . S
C153 O152 1.195 . S
C153 O154 1.313 . S
O154 C153 1.313 . S
O155 Mg143 2.141 . S
O155 C146 1.289 . S
Mg156 O163 2.141 . S
Mg156 O164 2.048 . S
Mg156 O165 2.048 . S
Mg156 O168 2.141 . S
C157 O158 1.313 . S
C157 O164 1.195 1_655 S
O158 C157 1.313 . S
C159 O160 1.245 1_455 S
C159 O168 1.289 . S
O160 C159 1.245 1_655 S
C161 O162 1.245 1_455 S
C161 O163 1.289 . S
O162 C161 1.245 1_655 S
O163 Mg156 2.141 . S
O163 C161 1.289 . S
O164 Mg156 2.048 . S
O164 C157 1.195 1_455 S
O165 Mg156 2.048 . S
O165 C166 1.195 . S
C166 O165 1.195 . S
C166 O167 1.313 1_455 S
O167 C166 1.313 1_655 S
O168 Mg156 2.141 . S
O168 C159 1.289 . S
Mg169 O176 2.141 . S
Mg169 O177 2.048 . S
Mg169 O178 2.048 . S
Mg169 O181 2.141 . S
C170 O171 1.313 . S
C170 O177 1.195 . S
O171 C170 1.313 . S
C172 O173 1.245 . S
C172 O181 1.289 . S
O173 C172 1.245 . S
C174 O175 1.245 . S
C174 O176 1.289 . S
O175 C174 1.245 . S
O176 Mg169 2.141 . S
O176 C174 1.289 . S
O177 Mg169 2.048 . S
O177 C170 1.195 . S
O178 Mg169 2.048 . S
O178 C179 1.195 . S
C179 O178 1.195 . S
C179 O180 1.313 . S
O180 C179 1.313 . S
O181 Mg169 2.141 . S
O181 C172 1.289 . S
Mg182 O189 2.141 . S
Mg182 O190 2.048 . S
Mg182 O191 2.048 . S
Mg182 O194 2.141 . S
C183 O184 1.313 . S
C183 O190 1.195 1_545 S
O184 C183 1.313 . S
C185 O186 1.245 1_565 S
C185 O194 1.289 . S
O186 C185 1.245 1_545 S
C187 O188 1.245 1_565 S
C187 O189 1.289 . S
O188 C187 1.245 1_545 S
O189 Mg182 2.141 . S
O189 C187 1.289 . S
O190 Mg182 2.048 . S
O190 C183 1.195 1_565 S
O191 Mg182 2.048 . S
O191 C192 1.195 . S
C192 O191 1.195 . S
C192 O193 1.313 1_565 S
O193 C192 1.313 1_545 S
O194 Mg182 2.141 . S
O194 C185 1.289 . S
Mg195 O202 2.141 . S
Mg195 O203 2.048 . S
Mg195 O204 2.048 . S
Mg195 O207 2.141 . S
C196 O197 1.313 . S
C196 O203 1.195 . S
O197 C196 1.313 . S
C198 O199 1.245 . S
C198 O207 1.289 . S
O199 C198 1.245 . S
C200 O201 1.245 . S
C200 O202 1.289 . S
O201 C200 1.245 . S
O202 Mg195 2.141 . S
O202 C200 1.289 . S
O203 Mg195 2.048 . S
O203 C196 1.195 . S
O204 Mg195 2.048 . S
O204 C205 1.195 . S
C205 O204 1.195 . S
C205 O206 1.313 . S
O206 C205 1.313 . S
O207 Mg195 2.141 . S
O207 C198 1.289 . S
Mg208 O215 2.141 . S
Mg208 O216 2.048 . S
Mg208 O217 2.048 . S
Mg208 O220 2.141 . S
C209 O210 1.313 . S
C209 O216 1.195 . S
O210 C209 1.313 . S
C211 O212 1.245 . S
C211 O220 1.289 . S
O212 C211 1.245 . S
C213 O214 1.245 . S
C213 O215 1.289 . S
O214 C213 1.245 . S
O215 Mg208 2.141 . S
O215 C213 1.289 . S
O216 Mg208 2.048 . S
O216 C209 1.195 . S
O217 Mg208 2.048 . S
O217 C218 1.195 . S
C218 O217 1.195 . S
C218 O219 1.313 . S
O219 C218 1.313 . S
O220 Mg208 2.141 . S
O220 C211 1.289 . S
Mg221 O228 2.141 . S
Mg221 O229 2.048 . S
Mg221 O230 2.048 . S
Mg221 O233 2.141 . S
C222 O223 1.313 . S
C222 O229 1.195 . S
O223 C222 1.313 . S
C224 O225 1.245 . S
C224 O233 1.289 . S
O225 C224 1.245 . S
C226 O227 1.245 . S
C226 O228 1.289 . S
O227 C226 1.245 . S
O228 Mg221 2.141 . S
O228 C226 1.289 . S
O229 Mg221 2.048 . S
O229 C222 1.195 . S
O230 Mg221 2.048 . S
O230 C231 1.195 . S
C231 O230 1.195 . S
C231 O232 1.313 . S
O232 C231 1.313 . S
O233 Mg221 2.141 . S
O233 C224 1.289 . S
Mg234 O241 2.141 . S
Mg234 O242 2.048 . S
Mg234 O243 2.048 . S
Mg234 O246 2.141 . S
C235 O236 1.313 . S
C235 O242 1.195 . S
O236 C235 1.313 . S
C237 O238 1.245 . S
C237 O246 1.289 . S
O238 C237 1.245 . S
C239 O240 1.245 . S
C239 O241 1.289 . S
O240 C239 1.245 . S
O241 Mg234 2.141 . S
O241 C239 1.289 . S
O242 Mg234 2.048 . S
O242 C235 1.195 . S
O243 Mg234 2.048 . S
O243 C244 1.195 . S
C244 O243 1.195 . S
C244 O245 1.313 . S
O245 C244 1.313 . S
O246 Mg234 2.141 . S
O246 C237 1.289 . S
Mg247 O254 2.141 . S
Mg247 O255 2.048 . S
Mg247 O256 2.048 . S
Mg247 O259 2.141 . S
C248 O249 1.313 . S
C248 O255 1.195 . S
O249 C248 1.313 . S
C250 O251 1.245 . S
C250 O259 1.289 . S
O251 C250 1.245 . S
C252 O253 1.245 . S
C252 O254 1.289 . S
O253 C252 1.245 . S
O254 Mg247 2.141 . S
O254 C252 1.289 . S
O255 Mg247 2.048 . S
O255 C248 1.195 . S
O256 Mg247 2.048 . S
O256 C257 1.195 . S
C257 O256 1.195 . S
C257 O258 1.313 . S
O258 C257 1.313 . S
O259 Mg247 2.141 . S
O259 C250 1.289 . S
Mg260 O267 2.141 . S
Mg260 O268 2.048 . S
Mg260 O269 2.048 . S
Mg260 O272 2.141 . S
C261 O262 1.313 . S
C261 O268 1.195 . S
O262 C261 1.313 . S
C263 O264 1.245 . S
C263 O272 1.289 . S
O264 C263 1.245 . S
C265 O266 1.245 . S
C265 O267 1.289 . S
O266 C265 1.245 . S
O267 Mg260 2.141 . S
O267 C265 1.289 . S
O268 Mg260 2.048 . S
O268 C261 1.195 . S
O269 Mg260 2.048 . S
O269 C270 1.195 . S
C270 O269 1.195 . S
C270 O271 1.313 . S
O271 C270 1.313 . S
O272 Mg260 2.141 . S
O272 C263 1.289 . S
Mg273 O280 2.142 . S
Mg273 O281 2.070 . S
Mg273 O282 2.049 1_554 S
Mg273 O285 2.120 1_544 S
C274 O275 1.313 1_544 S
C274 O281 1.195 . S
O275 C274 1.313 1_566 S
C276 O277 1.245 . S
C276 O285 1.289 . S
O277 C276 1.245 . S
C278 O279 1.245 . S
C278 O280 1.271 1_565 S
O279 C278 1.245 . S
O280 Mg273 2.142 . S
O280 C278 1.271 1_545 S
O281 Mg273 2.070 . S
O281 C274 1.195 . S
O282 Mg273 2.049 1_556 S
O282 C283 1.195 1_545 S
C283 O282 1.195 1_565 S
C283 O284 1.313 . S
O284 C283 1.313 . S
O285 Mg273 2.120 1_566 S
O285 C276 1.289 . S
Mg286 O293 2.141 . S
Mg286 O294 2.040 . S
Mg286 O295 2.048 1_554 S
Mg286 O298 2.151 1_654 S
C287 O288 1.313 1_654 S
C287 O294 1.195 . S
O288 C287 1.313 1_456 S
C289 O290 1.245 . S
C289 O298 1.289 . S
O290 C289 1.245 . S
C291 O292 1.245 . S
C291 O293 1.256 1_455 S
O292 C291 1.245 . S
O293 Mg286 2.141 . S
O293 C291 1.256 1_655 S
O294 Mg286 2.040 . S
O294 C287 1.195 . S
O295 Mg286 2.048 1_556 S
O295 C296 1.195 1_655 S
C296 O295 1.195 1_455 S
C296 O297 1.313 . S
O297 C296 1.313 . S
O298 Mg286 2.151 1_456 S
O298 C289 1.289 . S
Mg299 O306 2.141 1_554 S
Mg299 O307 2.034 1_554 S
Mg299 O308 2.049 . S
Mg299 O311 2.155 . S
C300 O301 1.313 . S
C300 O307 1.195 . S
O301 C300 1.313 . S
C302 O303 1.245 . S
C302 O311 1.289 . S
O303 C302 1.245 . S
C304 O305 1.245 . S
C304 O306 1.289 . S
O305 C304 1.245 . S
O306 Mg299 2.141 1_556 S
O306 C304 1.289 . S
O307 Mg299 2.034 1_556 S
O307 C300 1.195 . S
O308 Mg299 2.049 . S
O308 C309 1.195 . S
C309 O308 1.195 . S
C309 O310 1.313 1_554 S
O310 C309 1.313 1_556 S
O311 Mg299 2.155 . S
O311 C302 1.289 . S
Mg312 O319 2.141 . S
Mg312 O320 2.048 . S
Mg312 O321 2.048 . S
Mg312 O324 2.141 . S
C313 O314 1.313 . S
C313 O320 1.195 . S
O314 C313 1.313 . S
C315 O316 1.245 . S
C315 O324 1.289 . S
O316 C315 1.245 . S
C317 O318 1.245 . S
C317 O319 1.289 . S
O318 C317 1.245 . S
O319 Mg312 2.141 . S
O319 C317 1.289 . S
O320 Mg312 2.048 . S
O320 C313 1.195 . S
O321 Mg312 2.048 . S
O321 C322 1.195 . S
C322 O321 1.195 . S
C322 O323 1.313 . S
O323 C322 1.313 . S
O324 Mg312 2.141 . S
O324 C315 1.289 . S
Mg325 O332 2.141 . S
Mg325 O333 2.048 . S
Mg325 O334 2.048 . S
Mg325 O337 2.141 . S
C326 O327 1.313 . S
C326 O333 1.195 . S
O327 C326 1.313 . S
C328 O329 1.245 . S
C328 O337 1.289 . S
O329 C328 1.245 . S
C330 O331 1.245 . S
C330 O332 1.289 . S
O331 C330 1.245 . S
O332 Mg325 2.141 . S
O332 C330 1.289 . S
O333 Mg325 2.048 . S
O333 C326 1.195 . S
O334 Mg325 2.048 . S
O334 C335 1.195 . S
C335 O334 1.195 . S
C335 O336 1.313 . S
O336 C335 1.313 . S
O337 Mg325 2.141 . S
O337 C328 1.289 . S
Mg338 O345 2.141 . S
Mg338 O346 2.048 . S
Mg338 O347 2.048 . S
Mg338 O350 2.141 . S
C339 O340 1.313 . S
C339 O346 1.195 . S
O340 C339 1.313 . S
C341 O342 1.245 . S
C341 O350 1.289 . S
O342 C341 1.245 . S
C343 O344 1.245 . S
C343 O345 1.289 . S
O344 C343 1.245 . S
O345 Mg338 2.141 . S
O345 C343 1.289 . S
O346 Mg338 2.048 . S
O346 C339 1.195 . S
O347 Mg338 2.048 . S
O347 C348 1.195 . S
C348 O347 1.195 . S
C348 O349 1.313 . S
O349 C348 1.313 . S
O350 Mg338 2.141 . S
O350 C341 1.289 . S
Mg351 O358 2.155 . S
Mg351 O359 2.049 . S
Mg351 O360 2.034 1_556 S
Mg351 O363 2.141 1_556 S
C352 O353 1.313 1_556 S
C352 O359 1.195 1_565 S
O353 C352 1.313 1_554 S
C354 O355 1.245 . S
C354 O363 1.289 . S
O355 C354 1.245 . S
C356 O357 1.245 1_545 S
C356 O358 1.289 . S
O357 C356 1.245 1_565 S
O358 Mg351 2.155 . S
O358 C356 1.289 . S
O359 Mg351 2.049 . S
O359 C352 1.195 1_545 S
O360 Mg351 2.034 1_554 S
O360 C361 1.195 . S
C361 O360 1.195 . S
C361 O362 1.313 1_545 S
O362 C361 1.313 1_565 S
O363 Mg351 2.141 1_554 S
O363 C354 1.289 . S
Mg364 O371 2.155 . S
Mg364 O372 2.049 . S
Mg364 O373 2.034 1_556 S
Mg364 O376 2.141 1_556 S
C365 O366 1.313 1_556 S
C365 O372 1.195 1_455 S
O366 C365 1.313 1_554 S
C367 O368 1.245 . S
C367 O376 1.289 . S
O368 C367 1.245 . S
C369 O370 1.245 1_655 S
C369 O371 1.289 . S
O370 C369 1.245 1_455 S
O371 Mg364 2.155 . S
O371 C369 1.289 . S
O372 Mg364 2.049 . S
O372 C365 1.195 1_655 S
O373 Mg364 2.034 1_554 S
O373 C374 1.195 . S
C374 O373 1.195 . S
C374 O375 1.313 1_655 S
O375 C374 1.313 1_455 S
O376 Mg364 2.141 1_554 S
O376 C367 1.289 . S
Mg377 O384 2.155 . S
Mg377 O385 2.049 . S
Mg377 O386 2.034 1_556 S
Mg377 O389 2.141 1_556 S
C378 O379 1.313 1_556 S
C378 O385 1.195 . S
O379 C378 1.313 1_554 S
C380 O381 1.245 . S
C380 O389 1.289 . S
O381 C380 1.245 . S
C382 O383 1.245 . S
C382 O384 1.289 . S
O383 C382 1.245 . S
O384 Mg377 2.155 . S
O384 C382 1.289 . S
O385 Mg377 2.049 . S
O385 C378 1.195 . S
O386 Mg377 2.034 1_554 S
O386 C387 1.195 . S
C387 O386 1.195 . S
C387 O388 1.313 . S
O388 C387 1.313 . S
O389 Mg377 2.141 1_554 S
O389 C380 1.289 . S
Mg390 O397 2.141 . S
Mg390 O398 2.048 . S
Mg390 O399 2.048 . S
Mg390 O402 2.141 . S
C391 O392 1.313 1_655 S
C391 O398 1.195 . S
O392 C391 1.313 1_455 S
C393 O394 1.245 1_655 S
C393 O402 1.289 . S
O394 C393 1.245 1_455 S
C395 O396 1.245 1_655 S
C395 O397 1.289 . S
O396 C395 1.245 1_455 S
O397 Mg390 2.141 . S
O397 C395 1.289 . S
O398 Mg390 2.048 . S
O398 C391 1.195 . S
O399 Mg390 2.048 . S
O399 C400 1.195 1_655 S
C400 O399 1.195 1_455 S
C400 O401 1.313 . S
O401 C400 1.313 . S
O402 Mg390 2.141 . S
O402 C393 1.289 . S
Mg403 O410 2.141 . S
Mg403 O411 2.048 . S
Mg403 O412 2.048 . S
Mg403 O415 2.141 . S
C404 O405 1.313 . S
C404 O411 1.195 . S
O405 C404 1.313 . S
C406 O407 1.245 . S
C406 O415 1.289 . S
O407 C406 1.245 . S
C408 O409 1.245 . S
C408 O410 1.289 . S
O409 C408 1.245 . S
O410 Mg403 2.141 . S
O410 C408 1.289 . S
O411 Mg403 2.048 . S
O411 C404 1.195 . S
O412 Mg403 2.048 . S
O412 C413 1.195 . S
C413 O412 1.195 . S
C413 O414 1.313 . S
O414 C413 1.313 . S
O415 Mg403 2.141 . S
O415 C406 1.289 . S
Mg416 O423 2.141 . S
Mg416 O424 2.048 . S
Mg416 O425 2.048 . S
Mg416 O428 2.141 1_565 S
C417 O418 1.313 1_565 S
C417 O424 1.195 . S
O418 C417 1.313 1_545 S
C419 O420 1.245 . S
C419 O428 1.289 . S
O420 C419 1.245 . S
C421 O422 1.245 . S
C421 O423 1.289 1_545 S
O422 C421 1.245 . S
O423 Mg416 2.141 . S
O423 C421 1.289 1_565 S
O424 Mg416 2.048 . S
O424 C417 1.195 . S
O425 Mg416 2.048 . S
O425 C426 1.195 1_565 S
C426 O425 1.195 1_545 S
C426 O427 1.313 . S
O427 C426 1.313 . S
O428 Mg416 2.141 1_545 S
O428 C419 1.289 . S
Mg429 O436 2.141 . S
Mg429 O437 2.048 . S
Mg429 O438 2.048 . S
Mg429 O441 2.141 . S
C430 O431 1.313 . S
C430 O437 1.195 . S
O431 C430 1.313 . S
C432 O433 1.245 . S
C432 O441 1.289 . S
O433 C432 1.245 . S
C434 O435 1.245 . S
C434 O436 1.289 . S
O435 C434 1.245 . S
O436 Mg429 2.141 . S
O436 C434 1.289 . S
O437 Mg429 2.048 . S
O437 C430 1.195 . S
O438 Mg429 2.048 . S
O438 C439 1.195 . S
C439 O438 1.195 . S
C439 O440 1.313 . S
O440 C439 1.313 . S
O441 Mg429 2.141 . S
O441 C432 1.289 . S
Mg442 O449 2.141 . S
Mg442 O450 2.048 . S
Mg442 O451 2.048 . S
Mg442 O454 2.141 . S
C443 O444 1.313 . S
C443 O450 1.195 . S
O444 C443 1.313 . S
C445 O446 1.245 . S
C445 O454 1.289 . S
O446 C445 1.245 . S
C447 O448 1.245 . S
C447 O449 1.289 . S
O448 C447 1.245 . S
O449 Mg442 2.141 . S
O449 C447 1.289 . S
O450 Mg442 2.048 . S
O450 C443 1.195 . S
O451 Mg442 2.048 . S
O451 C452 1.195 . S
C452 O451 1.195 . S
C452 O453 1.313 . S
O453 C452 1.313 . S
O454 Mg442 2.141 . S
O454 C445 1.289 . S
Mg455 O462 2.141 . S
Mg455 O463 2.048 . S
Mg455 O464 2.048 . S
Mg455 O467 2.141 . S
C456 O457 1.313 . S
C456 O463 1.195 . S
O457 C456 1.313 . S
C458 O459 1.245 . S
C458 O467 1.289 . S
O459 C458 1.245 . S
C460 O461 1.245 . S
C460 O462 1.289 . S
O461 C460 1.245 . S
O462 Mg455 2.141 . S
O462 C460 1.289 . S
O463 Mg455 2.048 . S
O463 C456 1.195 . S
O464 Mg455 2.048 . S
O464 C465 1.195 . S
C465 O464 1.195 . S
C465 O466 1.313 . S
O466 C465 1.313 . S
O467 Mg455 2.141 . S
O467 C458 1.289 . S
C468 C469 1.387 . S
C468 H472 0.950 . S
C468 C477 1.390 . S
C469 C468 1.387 . S
C469 C471 1.387 . S
H470 C477 0.950 . S
C471 C469 1.387 . S
C471 C473 1.390 . S
C471 H475 0.950 . S
H472 C468 0.950 . S
C473 C471 1.390 . S
C473 C474 1.387 . S
C473 H476 0.950 . S
C474 C473 1.387 . S
C474 C477 1.387 . S
H475 C471 0.950 . S
H476 C473 0.950 . S
C477 C468 1.390 . S
C477 H470 0.950 . S
C477 C474 1.387 . S
C478 C479 1.387 . S
C478 H482 0.950 . S
C478 C487 1.390 . S
C479 C478 1.387 . S
C479 C481 1.387 . S
H480 C487 0.950 . S
C481 C479 1.387 . S
C481 C483 1.390 . S
C481 H485 0.950 . S
H482 C478 0.950 . S
C483 C481 1.390 . S
C483 C484 1.387 . S
C483 H486 0.950 . S
C484 C483 1.387 . S
C484 C487 1.387 . S
H485 C481 0.950 . S
H486 C483 0.950 . S
C487 C478 1.390 . S
C487 H480 0.950 . S
C487 C484 1.387 . S
C488 C489 1.387 . S
C488 H492 0.950 . S
C488 C497 1.390 . S
C489 C488 1.387 . S
C489 C491 1.387 . S
H490 C497 0.950 . S
C491 C489 1.387 . S
C491 C493 1.390 . S
C491 H495 0.950 . S
H492 C488 0.950 . S
C493 C491 1.390 . S
C493 C494 1.387 . S
C493 H496 0.950 . S
C494 C493 1.387 . S
C494 C497 1.387 . S
H495 C491 0.950 . S
H496 C493 0.950 . S
C497 C488 1.390 . S
C497 H490 0.950 . S
C497 C494 1.387 . S
C498 C499 1.387 . S
C498 H502 0.950 . S
C498 C507 1.390 . S
C499 C498 1.387 . S
C499 C501 1.387 . S
H500 C507 0.950 . S
C501 C499 1.387 . S
C501 C503 1.390 . S
C501 H505 0.950 . S
H502 C498 0.950 . S
C503 C501 1.390 . S
C503 C504 1.387 . S
C503 H506 0.950 . S
C504 C503 1.387 . S
C504 C507 1.387 . S
H505 C501 0.950 . S
H506 C503 0.950 . S
C507 C498 1.390 . S
C507 H500 0.950 . S
C507 C504 1.387 . S
C508 C509 1.387 . S
C508 H512 0.950 . S
C508 C517 1.390 . S
C509 C508 1.387 . S
C509 C511 1.387 . S
H510 C517 0.950 . S
C511 C509 1.387 . S
C511 C513 1.390 . S
C511 H515 0.950 . S
H512 C508 0.950 . S
C513 C511 1.390 . S
C513 C514 1.387 . S
C513 H516 0.950 . S
C514 C513 1.387 . S
C514 C517 1.387 . S
H515 C511 0.950 . S
H516 C513 0.950 . S
C517 C508 1.390 . S
C517 H510 0.950 . S
C517 C514 1.387 . S
C518 C519 1.387 . S
C518 H522 0.950 . S
C518 C527 1.390 . S
C519 C518 1.387 . S
C519 C521 1.387 . S
H520 C527 0.950 . S
C521 C519 1.387 . S
C521 C523 1.390 . S
C521 H525 0.950 . S
H522 C518 0.950 . S
C523 C521 1.390 . S
C523 C524 1.387 . S
C523 H526 0.950 . S
C524 C523 1.387 . S
C524 C527 1.387 . S
H525 C521 0.950 . S
H526 C523 0.950 . S
C527 C518 1.390 . S
C527 H520 0.950 . S
C527 C524 1.387 . S
C528 C529 1.387 . S
C528 H532 0.950 . S
C528 C537 1.390 . S
C529 C528 1.387 . S
C529 C531 1.387 . S
H530 C537 0.950 . S
C531 C529 1.387 . S
C531 C533 1.390 . S
C531 H535 0.950 . S
H532 C528 0.950 . S
C533 C531 1.390 . S
C533 C534 1.387 . S
C533 H536 0.950 . S
C534 C533 1.387 . S
C534 C537 1.387 . S
H535 C531 0.950 . S
H536 C533 0.950 . S
C537 C528 1.390 . S
C537 H530 0.950 . S
C537 C534 1.387 . S
C538 C539 1.387 . S
C538 H542 0.950 . S
C538 C547 1.390 . S
C539 C538 1.387 . S
C539 C541 1.387 . S
H540 C547 0.950 . S
C541 C539 1.387 . S
C541 C543 1.390 . S
C541 H545 0.950 . S
H542 C538 0.950 . S
C543 C541 1.390 . S
C543 C544 1.387 . S
C543 H546 0.950 . S
C544 C543 1.387 . S
C544 C547 1.387 . S
H545 C541 0.950 . S
H546 C543 0.950 . S
C547 C538 1.390 . S
C547 H540 0.950 . S
C547 C544 1.387 . S
C548 C549 1.387 . S
C548 H552 0.950 . S
C548 C557 1.390 . S
C549 C548 1.387 . S
C549 C551 1.387 . S
H550 C557 0.950 . S
C551 C549 1.387 . S
C551 C553 1.390 . S
C551 H555 0.950 . S
H552 C548 0.950 . S
C553 C551 1.390 . S
C553 C554 1.387 . S
C553 H556 0.950 . S
C554 C553 1.387 . S
C554 C557 1.387 . S
H555 C551 0.950 . S
H556 C553 0.950 . S
C557 C548 1.390 . S
C557 H550 0.950 . S
C557 C554 1.387 . S
C558 C559 1.387 . S
C558 H562 0.950 . S
C558 C567 1.390 . S
C559 C558 1.387 . S
C559 C561 1.387 . S
H560 C567 0.950 . S
C561 C559 1.387 . S
C561 C563 1.390 . S
C561 H565 0.950 . S
H562 C558 0.950 . S
C563 C561 1.390 . S
C563 C564 1.387 . S
C563 H566 0.950 . S
C564 C563 1.387 . S
C564 C567 1.387 . S
H565 C561 0.950 . S
H566 C563 0.950 . S
C567 C558 1.390 . S
C567 H560 0.950 . S
C567 C564 1.387 . S
C568 C569 1.387 . S
C568 H572 0.950 . S
C568 C577 1.390 . S
C569 C568 1.387 . S
C569 C571 1.387 . S
H570 C577 0.950 . S
C571 C569 1.387 . S
C571 C573 1.390 . S
C571 H575 0.950 . S
H572 C568 0.950 . S
C573 C571 1.390 . S
C573 C574 1.387 . S
C573 H576 0.950 . S
C574 C573 1.387 . S
C574 C577 1.387 . S
H575 C571 0.950 . S
H576 C573 0.950 . S
C577 C568 1.390 . S
C577 H570 0.950 . S
C577 C574 1.387 . S
C578 C579 1.387 . S
C578 H582 0.950 . S
C578 C587 1.390 . S
C579 C578 1.387 . S
C579 C581 1.387 . S
H580 C587 0.950 . S
C581 C579 1.387 . S
C581 C583 1.390 . S
C581 H585 0.950 . S
H582 C578 0.950 . S
C583 C581 1.390 . S
C583 C584 1.387 . S
C583 H586 0.950 . S
C584 C583 1.387 . S
C584 C587 1.387 . S
H585 C581 0.950 . S
H586 C583 0.950 . S
C587 C578 1.390 . S
C587 H580 0.950 . S
C587 C584 1.387 . S
C588 C589 1.387 1_455 S
C588 H592 0.950 . S
C588 C597 1.390 . S
C589 C588 1.387 1_655 S
C589 C591 1.387 . S
H590 C597 0.950 . S
C591 C589 1.387 . S
C591 C593 1.390 . S
C591 H595 0.950 . S
H592 C588 0.950 . S
C593 C591 1.390 . S
C593 C594 1.387 1_655 S
C593 H596 0.950 . S
C594 C593 1.387 1_455 S
C594 C597 1.387 . S
H595 C591 0.950 . S
H596 C593 0.950 . S
C597 C588 1.390 . S
C597 H590 0.950 . S
C597 C594 1.387 . S
C598 C599 1.387 . S
C598 H602 0.950 . S
C598 C607 1.390 . S
C599 C598 1.387 . S
C599 C601 1.387 . S
H600 C607 0.950 . S
C601 C599 1.387 . S
C601 C603 1.390 . S
C601 H605 0.950 . S
H602 C598 0.950 . S
C603 C601 1.390 . S
C603 C604 1.387 . S
C603 H606 0.950 . S
C604 C603 1.387 . S
C604 C607 1.387 . S
H605 C601 0.950 . S
H606 C603 0.950 . S
C607 C598 1.390 . S
C607 H600 0.950 . S
C607 C604 1.387 . S
C608 C609 1.387 . S
C608 H612 0.950 . S
C608 C617 1.390 1_545 S
C609 C608 1.387 . S
C609 C611 1.387 . S
H610 C617 0.950 . S
C611 C609 1.387 . S
C611 C613 1.390 1_545 S
C611 H615 0.950 . S
H612 C608 0.950 . S
C613 C611 1.390 1_565 S
C613 C614 1.387 . S
C613 H616 0.950 . S
C614 C613 1.387 . S
C614 C617 1.387 . S
H615 C611 0.950 . S
H616 C613 0.950 . S
C617 C608 1.390 1_565 S
C617 H610 0.950 . S
C617 C614 1.387 . S
C618 C619 1.387 . S
C618 H622 0.950 . S
C618 C627 1.390 1_545 S
C619 C618 1.387 . S
C619 C621 1.388 . S
H620 C627 0.950 . S
C621 C619 1.388 . S
C621 C623 1.390 1_545 S
C621 H625 0.949 . S
H622 C618 0.950 . S
C623 C621 1.390 1_565 S
C623 C624 1.387 . S
C623 H626 0.950 . S
C624 C623 1.387 . S
C624 C627 1.387 . S
H625 C621 0.949 . S
H626 C623 0.950 . S
C627 C618 1.390 1_565 S
C627 H620 0.950 . S
C627 C624 1.387 . S
C628 C629 1.387 . S
C628 H632 0.950 . S
C628 C637 1.389 1_655 S
C629 C628 1.387 . S
C629 C631 1.387 1_655 S
H630 C637 0.933 1_655 S
C631 C629 1.387 1_455 S
C631 C633 1.390 . S
C631 H635 0.950 . S
H632 C628 0.950 . S
C633 C631 1.390 . S
C633 C634 1.387 . S
C633 H636 0.950 . S
C634 C633 1.387 . S
C634 C637 1.391 . S
H635 C631 0.950 . S
H636 C633 0.950 . S
C637 C628 1.389 1_455 S
C637 H630 0.933 1_455 S
C637 C634 1.391 . S
C638 C639 1.387 . S
C638 H642 0.950 . S
C638 C647 1.390 . S
C639 C638 1.387 . S
C639 C641 1.387 . S
H640 C647 0.950 . S
C641 C639 1.387 . S
C641 C643 1.390 . S
C641 H645 0.950 . S
H642 C638 0.950 . S
C643 C641 1.390 . S
C643 C644 1.387 . S
C643 H646 0.950 . S
C644 C643 1.387 . S
C644 C647 1.387 . S
H645 C641 0.950 . S
H646 C643 0.950 . S
C647 C638 1.390 . S
C647 H640 0.950 . S
C647 C644 1.387 . S
C648 C649 1.387 . S
C648 H652 0.950 . S
C648 C657 1.390 . S
C649 C648 1.387 . S
C649 C651 1.387 . S
H650 C657 0.950 . S
C651 C649 1.387 . S
C651 C653 1.390 . S
C651 H655 0.950 . S
H652 C648 0.950 . S
C653 C651 1.390 . S
C653 C654 1.387 . S
C653 H656 0.950 . S
C654 C653 1.387 . S
C654 C657 1.387 . S
H655 C651 0.950 . S
H656 C653 0.950 . S
C657 C648 1.390 . S
C657 H650 0.950 . S
C657 C654 1.387 . S
C658 C659 1.387 . S
C658 H662 0.950 . S
C658 C667 1.390 . S
C659 C658 1.387 . S
C659 C661 1.387 . S
H660 C667 0.950 . S
C661 C659 1.387 . S
C661 C663 1.390 . S
C661 H665 0.950 . S
H662 C658 0.950 . S
C663 C661 1.390 . S
C663 C664 1.387 . S
C663 H666 0.950 . S
C664 C663 1.387 . S
C664 C667 1.387 . S
H665 C661 0.950 . S
H666 C663 0.950 . S
C667 C658 1.390 . S
C667 H660 0.950 . S
C667 C664 1.387 . S
C668 C669 1.387 . S
C668 H672 0.950 . S
C668 C677 1.390 . S
C669 C668 1.387 . S
C669 C671 1.387 . S
H670 C677 0.950 . S
C671 C669 1.387 . S
C671 C673 1.390 . S
C671 H675 0.950 . S
H672 C668 0.950 . S
C673 C671 1.390 . S
C673 C674 1.387 . S
C673 H676 0.950 . S
C674 C673 1.387 . S
C674 C677 1.387 . S
H675 C671 0.950 . S
H676 C673 0.950 . S
C677 C668 1.390 . S
C677 H670 0.950 . S
C677 C674 1.387 . S
C678 C679 1.387 . S
C678 H682 0.950 . S
C678 C687 1.390 . S
C679 C678 1.387 . S
C679 C681 1.387 . S
H680 C687 0.950 . S
C681 C679 1.387 . S
C681 C683 1.390 . S
C681 H685 0.950 . S
H682 C678 0.950 . S
C683 C681 1.390 . S
C683 C684 1.387 . S
C683 H686 0.950 . S
C684 C683 1.387 . S
C684 C687 1.387 . S
H685 C681 0.950 . S
H686 C683 0.950 . S
C687 C678 1.390 . S
C687 H680 0.950 . S
C687 C684 1.387 . S
C688 C689 1.387 . S
C688 H692 0.950 . S
C688 C697 1.390 . S
C689 C688 1.387 . S
C689 C691 1.387 . S
H690 C697 0.950 . S
C691 C689 1.387 . S
C691 C693 1.390 . S
C691 H695 0.950 . S
H692 C688 0.950 . S
C693 C691 1.390 . S
C693 C694 1.387 . S
C693 H696 0.950 . S
C694 C693 1.387 . S
C694 C697 1.387 . S
H695 C691 0.950 . S
H696 C693 0.950 . S
C697 C688 1.390 . S
C697 H690 0.950 . S
C697 C694 1.387 . S
C698 C699 1.387 . S
C698 H702 0.950 . S
C698 C707 1.390 . S
C699 C698 1.387 . S
C699 C701 1.387 . S
H700 C707 0.950 . S
C701 C699 1.387 . S
C701 C703 1.390 . S
C701 H705 0.950 . S
H702 C698 0.950 . S
C703 C701 1.390 . S
C703 C704 1.387 . S
C703 H706 0.950 . S
C704 C703 1.387 . S
C704 C707 1.387 . S
H705 C701 0.950 . S
H706 C703 0.950 . S
C707 C698 1.390 . S
C707 H700 0.950 . S
C707 C704 1.387 . S
C708 C709 1.387 . S
C708 H712 0.950 . S
C708 C717 1.390 . S
C709 C708 1.387 . S
C709 C711 1.387 . S
H710 C717 0.950 . S
C711 C709 1.387 . S
C711 C713 1.390 . S
C711 H715 0.950 . S
H712 C708 0.950 . S
C713 C711 1.390 . S
C713 C714 1.387 . S
C713 H716 0.950 . S
C714 C713 1.387 . S
C714 C717 1.387 . S
H715 C711 0.950 . S
H716 C713 0.950 . S
C717 C708 1.390 . S
C717 H710 0.950 . S
C717 C714 1.387 . S
C718 C719 1.387 . S
C718 H722 0.950 . S
C718 C727 1.390 . S
C719 C718 1.387 . S
C719 C721 1.387 . S
H720 C727 0.950 . S
C721 C719 1.387 . S
C721 C723 1.390 . S
C721 H725 0.950 . S
H722 C718 0.950 . S
C723 C721 1.390 . S
C723 C724 1.387 . S
C723 H726 0.950 . S
C724 C723 1.387 . S
C724 C727 1.387 . S
H725 C721 0.950 . S
H726 C723 0.950 . S
C727 C718 1.390 . S
C727 H720 0.950 . S
C727 C724 1.387 . S
C728 C729 1.387 . S
C728 H732 0.950 . S
C728 C737 1.390 . S
C729 C728 1.387 . S
C729 C731 1.387 . S
H730 C737 0.950 . S
C731 C729 1.387 . S
C731 C733 1.390 . S
C731 H735 0.950 . S
H732 C728 0.950 . S
C733 C731 1.390 . S
C733 C734 1.387 . S
C733 H736 0.950 . S
C734 C733 1.387 . S
C734 C737 1.387 . S
H735 C731 0.950 . S
H736 C733 0.950 . S
C737 C728 1.390 . S
C737 H730 0.950 . S
C737 C734 1.387 . S
C738 C739 1.387 . S
C738 H742 0.950 . S
C738 C747 1.390 . S
C739 C738 1.387 . S
C739 C741 1.387 . S
H740 C747 0.950 . S
C741 C739 1.387 . S
C741 C743 1.390 . S
C741 H745 0.950 . S
H742 C738 0.950 . S
C743 C741 1.390 . S
C743 C744 1.387 . S
C743 H746 0.950 . S
C744 C743 1.387 . S
C744 C747 1.387 . S
H745 C741 0.950 . S
H746 C743 0.950 . S
C747 C738 1.390 . S
C747 H740 0.950 . S
C747 C744 1.387 . S
C748 C749 1.387 . S
C748 H752 0.950 . S
C748 C757 1.390 . S
C749 C748 1.387 . S
C749 C751 1.387 . S
H750 C757 0.950 . S
C751 C749 1.387 . S
C751 C753 1.390 . S
C751 H755 0.950 . S
H752 C748 0.950 . S
C753 C751 1.390 . S
C753 C754 1.387 . S
C753 H756 0.950 . S
C754 C753 1.387 . S
C754 C757 1.387 . S
H755 C751 0.950 . S
H756 C753 0.950 . S
C757 C748 1.390 . S
C757 H750 0.950 . S
C757 C754 1.387 . S
C758 C759 1.387 . S
C758 H762 0.950 . S
C758 C767 1.390 . S
C759 C758 1.387 . S
C759 C761 1.387 . S
H760 C767 0.950 . S
C761 C759 1.387 . S
C761 C763 1.390 . S
C761 H765 0.950 . S
H762 C758 0.950 . S
C763 C761 1.390 . S
C763 C764 1.387 . S
C763 H766 0.950 . S
C764 C763 1.387 . S
C764 C767 1.387 . S
H765 C761 0.950 . S
H766 C763 0.950 . S
C767 C758 1.390 . S
C767 H760 0.950 . S
C767 C764 1.387 . S
C768 C769 1.388 1_455 S
C768 H772 0.946 . S
C768 C777 1.388 . S
C769 C768 1.388 1_655 S
C769 C771 1.387 . S
H770 C777 0.950 . S
C771 C769 1.387 . S
C771 C773 1.387 . S
C771 H775 0.950 . S
H772 C768 0.946 . S
C773 C771 1.387 . S
C773 C774 1.388 1_655 S
C773 H776 0.946 . S
C774 C773 1.388 1_455 S
C774 C777 1.387 . S
H775 C771 0.950 . S
H776 C773 0.946 . S
C777 C768 1.388 . S
C777 H770 0.950 . S
C777 C774 1.387 . S
C778 C779 1.387 . S
C778 H782 0.950 . S
C778 C787 1.390 . S
C779 C778 1.387 . S
C779 C781 1.387 . S
H780 C787 0.950 . S
C781 C779 1.387 . S
C781 C783 1.390 . S
C781 H785 0.950 . S
H782 C778 0.950 . S
C783 C781 1.390 . S
C783 C784 1.387 . S
C783 H786 0.950 . S
C784 C783 1.387 . S
C784 C787 1.387 . S
H785 C781 0.950 . S
H786 C783 0.950 . S
C787 C778 1.390 . S
C787 H780 0.950 . S
C787 C784 1.387 . S
C788 C789 1.387 1_545 S
C788 H792 0.950 . S
C788 C797 1.390 . S
C789 C788 1.387 1_565 S
C789 C791 1.387 . S
H790 C797 0.950 . S
C791 C789 1.387 . S
C791 C793 1.390 . S
C791 H795 0.950 . S
H792 C788 0.950 . S
C793 C791 1.390 . S
C793 C794 1.387 1_565 S
C793 H796 0.950 . S
C794 C793 1.387 1_545 S
C794 C797 1.387 . S
H795 C791 0.950 . S
H796 C793 0.950 . S
C797 C788 1.390 . S
C797 H790 0.950 . S
C797 C794 1.387 . S
C798 C799 1.387 1_545 S
C798 H802 0.950 . S
C798 C807 1.390 . S
C799 C798 1.387 1_565 S
C799 C801 1.387 1_556 S
H800 C807 0.950 . S
C801 C799 1.387 1_554 S
C801 C803 1.390 . S
C801 H805 0.950 . S
H802 C798 0.950 . S
C803 C801 1.390 . S
C803 C804 1.387 1_565 S
C803 H806 0.950 . S
C804 C803 1.387 1_545 S
C804 C807 1.387 1_554 S
H805 C801 0.950 . S
H806 C803 0.950 . S
C807 C798 1.390 . S
C807 H800 0.950 . S
C807 C804 1.387 1_556 S
C808 C809 1.387 . S
C808 H812 0.950 . S
C808 C817 1.370 1_655 S
C809 C808 1.387 . S
C809 C811 1.400 1_554 S
H810 C817 0.943 . S
C811 C809 1.400 1_556 S
C811 C813 1.368 1_655 S
C811 H815 0.943 . S
H812 C808 0.950 . S
C813 C811 1.368 1_455 S
C813 C814 1.387 . S
C813 H816 0.950 . S
C814 C813 1.387 . S
C814 C817 1.398 1_556 S
H815 C811 0.943 . S
H816 C813 0.950 . S
C817 C808 1.370 1_455 S
C817 H810 0.943 . S
C817 C814 1.398 1_554 S
C818 C819 1.387 . S
C818 H822 0.950 . S
C818 C827 1.390 . S
C819 C818 1.387 . S
C819 C821 1.387 1_554 S
H820 C827 0.950 . S
C821 C819 1.387 1_556 S
C821 C823 1.390 . S
C821 H825 0.950 . S
H822 C818 0.950 . S
C823 C821 1.390 . S
C823 C824 1.387 . S
C823 H826 0.950 . S
C824 C823 1.387 . S
C824 C827 1.387 1_556 S
H825 C821 0.950 . S
H826 C823 0.950 . S
C827 C818 1.390 . S
C827 H820 0.950 . S
C827 C824 1.387 1_554 S
C828 C829 1.387 . S
C828 H832 0.950 . S
C828 C837 1.390 . S
C829 C828 1.387 . S
C829 C831 1.387 . S
H830 C837 0.950 . S
C831 C829 1.387 . S
C831 C833 1.390 . S
C831 H835 0.950 . S
H832 C828 0.950 . S
C833 C831 1.390 . S
C833 C834 1.387 . S
C833 H836 0.950 . S
C834 C833 1.387 . S
C834 C837 1.387 . S
H835 C831 0.950 . S
H836 C833 0.950 . S
C837 C828 1.390 . S
C837 H830 0.950 . S
C837 C834 1.387 . S
C838 C839 1.387 . S
C838 H842 0.950 . S
C838 C847 1.390 . S
C839 C838 1.387 . S
C839 C841 1.387 . S
H840 C847 0.950 . S
C841 C839 1.387 . S
C841 C843 1.390 . S
C841 H845 0.950 . S
H842 C838 0.950 . S
C843 C841 1.390 . S
C843 C844 1.387 . S
C843 H846 0.950 . S
C844 C843 1.387 . S
C844 C847 1.387 . S
H845 C841 0.950 . S
H846 C843 0.950 . S
C847 C838 1.390 . S
C847 H840 0.950 . S
C847 C844 1.387 . S
C848 C849 1.387 . S
C848 H852 0.950 . S
C848 C857 1.390 . S
C849 C848 1.387 . S
C849 C851 1.387 . S
H850 C857 0.950 1_556 S
C851 C849 1.387 . S
C851 C853 1.390 . S
C851 H855 0.950 . S
H852 C848 0.950 . S
C853 C851 1.390 . S
C853 C854 1.387 . S
C853 H856 0.950 . S
C854 C853 1.387 . S
C854 C857 1.387 . S
H855 C851 0.950 . S
H856 C853 0.950 . S
C857 C848 1.390 . S
C857 H850 0.950 1_554 S
C857 C854 1.387 . S
C858 C859 1.387 . S
C858 H862 0.950 . S
C858 C867 1.390 . S
C859 C858 1.387 . S
C859 C861 1.387 . S
H860 C867 0.950 . S
C861 C859 1.387 . S
C861 C863 1.390 . S
C861 H865 0.950 . S
H862 C858 0.950 . S
C863 C861 1.390 . S
C863 C864 1.387 . S
C863 H866 0.950 . S
C864 C863 1.387 . S
C864 C867 1.387 . S
H865 C861 0.950 . S
H866 C863 0.950 . S
C867 C858 1.390 . S
C867 H860 0.950 . S
C867 C864 1.387 . S
C868 C869 1.387 . S
C868 H872 0.950 . S
C868 C877 1.390 . S
C869 C868 1.387 . S
C869 C871 1.387 . S
H870 C877 0.950 . S
C871 C869 1.387 . S
C871 C873 1.390 . S
C871 H875 0.950 . S
H872 C868 0.950 . S
C873 C871 1.390 . S
C873 C874 1.387 . S
C873 H876 0.950 . S
C874 C873 1.387 . S
C874 C877 1.387 . S
H875 C871 0.950 . S
H876 C873 0.950 . S
C877 C868 1.390 . S
C877 H870 0.950 . S
C877 C874 1.387 . S
C878 C879 1.387 . S
C878 H882 0.950 . S
C878 C887 1.390 . S
C879 C878 1.387 . S
C879 C881 1.387 . S
H880 C887 0.950 . S
C881 C879 1.387 . S
C881 C883 1.390 . S
C881 H885 0.950 . S
H882 C878 0.950 . S
C883 C881 1.390 . S
C883 C884 1.387 . S
C883 H886 0.950 . S
C884 C883 1.387 . S
C884 C887 1.387 . S
H885 C881 0.950 . S
H886 C883 0.950 . S
C887 C878 1.390 . S
C887 H880 0.950 . S
C887 C884 1.387 . S
C888 C889 1.387 . S
C888 H892 0.950 . S
C888 C897 1.390 . S
C889 C888 1.387 . S
C889 C891 1.387 . S
H890 C897 0.950 . S
C891 C889 1.387 . S
C891 C893 1.390 . S
C891 H895 0.950 . S
H892 C888 0.950 . S
C893 C891 1.390 . S
C893 C894 1.387 . S
C893 H896 0.950 . S
C894 C893 1.387 . S
C894 C897 1.387 . S
H895 C891 0.950 . S
H896 C893 0.950 . S
C897 C888 1.390 . S
C897 H890 0.950 . S
C897 C894 1.387 . S
C898 C899 1.387 . S
C898 H902 0.950 . S
C898 C907 1.390 . S
C899 C898 1.387 . S
C899 C901 1.387 . S
H900 C907 0.950 . S
C901 C899 1.387 . S
C901 C903 1.390 . S
C901 H905 0.950 . S
H902 C898 0.950 . S
C903 C901 1.390 . S
C903 C904 1.387 . S
C903 H906 0.950 . S
C904 C903 1.387 . S
C904 C907 1.387 . S
H905 C901 0.950 . S
H906 C903 0.950 . S
C907 C898 1.390 . S
C907 H900 0.950 . S
C907 C904 1.387 . S
C908 C909 1.387 . S
C908 H912 0.950 . S
C908 C917 1.390 . S
C909 C908 1.387 . S
C909 C911 1.387 . S
H910 C917 0.950 . S
C911 C909 1.387 . S
C911 C913 1.390 . S
C911 H915 0.950 1_556 S
H912 C908 0.950 . S
C913 C911 1.390 . S
C913 C914 1.387 . S
C913 H916 0.950 . S
C914 C913 1.387 . S
C914 C917 1.387 . S
H915 C911 0.950 1_554 S
H916 C913 0.950 . S
C917 C908 1.390 . S
C917 H910 0.950 . S
C917 C914 1.387 . S
C918 C919 1.387 . S
C918 H922 0.950 . S
C918 C927 1.390 . S
C919 C918 1.387 . S
C919 C921 1.387 . S
H920 C927 0.950 . S
C921 C919 1.387 . S
C921 C923 1.390 . S
C921 H925 0.950 . S
H922 C918 0.950 . S
C923 C921 1.390 . S
C923 C924 1.387 . S
C923 H926 0.950 . S
C924 C923 1.387 . S
C924 C927 1.387 . S
H925 C921 0.950 . S
H926 C923 0.950 . S
C927 C918 1.390 . S
C927 H920 0.950 . S
C927 C924 1.387 . S
C928 C929 1.387 . S
C928 H932 0.950 . S
C928 C937 1.390 . S
C929 C928 1.387 . S
C929 C931 1.387 . S
H930 C937 0.950 . S
C931 C929 1.387 . S
C931 C933 1.390 . S
C931 H935 0.950 . S
H932 C928 0.950 . S
C933 C931 1.390 . S
C933 C934 1.387 . S
C933 H936 0.950 . S
C934 C933 1.387 . S
C934 C937 1.387 . S
H935 C931 0.950 . S
H936 C933 0.950 . S
C937 C928 1.390 . S
C937 H930 0.950 . S
C937 C934 1.387 . S
C938 C939 1.387 . S
C938 H942 0.950 . S
C938 C947 1.390 . S
C939 C938 1.387 . S
C939 C941 1.387 . S
H940 C947 0.950 . S
C941 C939 1.387 . S
C941 C943 1.390 . S
C941 H945 0.950 . S
H942 C938 0.950 . S
C943 C941 1.390 . S
C943 C944 1.387 . S
C943 H946 0.950 . S
C944 C943 1.387 . S
C944 C947 1.387 . S
H945 C941 0.950 . S
H946 C943 0.950 . S
C947 C938 1.390 . S
C947 H940 0.950 . S
C947 C944 1.387 . S
C948 C949 1.387 . S
C948 H952 0.950 . S
C948 C957 1.390 . S
C949 C948 1.387 . S
C949 C951 1.387 . S
H950 C957 0.950 . S
C951 C949 1.387 . S
C951 C953 1.390 . S
C951 H955 0.950 . S
H952 C948 0.950 . S
C953 C951 1.390 . S
C953 C954 1.387 . S
C953 H956 0.950 . S
C954 C953 1.387 . S
C954 C957 1.387 . S
H955 C951 0.950 . S
H956 C953 0.950 . S
C957 C948 1.390 . S
C957 H950 0.950 . S
C957 C954 1.387 . S
C958 C959 1.387 . S
C958 H962 0.950 . S
C958 C967 1.390 1_565 S
C959 C958 1.387 . S
C959 C961 1.387 . S
H960 C967 0.950 . S
C961 C959 1.387 . S
C961 C963 1.390 1_565 S
C961 H965 0.950 . S
H962 C958 0.950 . S
C963 C961 1.390 1_545 S
C963 C964 1.387 . S
C963 H966 0.950 . S
C964 C963 1.387 . S
C964 C967 1.387 . S
H965 C961 0.950 . S
H966 C963 0.950 . S
C967 C958 1.390 1_545 S
C967 H960 0.950 . S
C967 C964 1.387 . S
C968 C969 1.387 . S
C968 H972 0.950 . S
C968 C977 1.390 1_455 S
C969 C968 1.387 . S
C969 C971 1.387 . S
H970 C977 0.950 . S
C971 C969 1.387 . S
C971 C973 1.390 1_455 S
C971 H975 0.950 . S
H972 C968 0.950 . S
C973 C971 1.390 1_655 S
C973 C974 1.387 . S
C973 H976 0.950 . S
C974 C973 1.387 . S
C974 C977 1.387 . S
H975 C971 0.950 . S
H976 C973 0.950 . S
C977 C968 1.390 1_655 S
C977 H970 0.950 . S
C977 C974 1.387 . S
C978 C979 1.387 . S
C978 H982 0.950 . S
C978 C987 1.390 . S
C979 C978 1.387 . S
C979 C981 1.387 . S
H980 C987 0.950 . S
C981 C979 1.387 . S
C981 C983 1.390 . S
C981 H985 0.950 . S
H982 C978 0.950 . S
C983 C981 1.390 . S
C983 C984 1.387 . S
C983 H986 0.950 . S
C984 C983 1.387 . S
C984 C987 1.387 . S
H985 C981 0.950 . S
H986 C983 0.950 . S
C987 C978 1.390 . S
C987 H980 0.950 . S
C987 C984 1.387 . S
C988 C989 1.387 . S
C988 H992 0.950 . S
C988 C997 1.390 1_565 S
C989 C988 1.387 . S
C989 C991 1.387 . S
H990 C997 0.950 . S
C991 C989 1.387 . S
C991 C993 1.390 1_565 S
C991 H995 0.950 . S
H992 C988 0.950 . S
C993 C991 1.390 1_545 S
C993 C994 1.387 . S
C993 H996 0.950 . S
C994 C993 1.387 . S
C994 C997 1.387 . S
H995 C991 0.950 . S
H996 C993 0.950 . S
C997 C988 1.390 1_545 S
C997 H990 0.950 . S
C997 C994 1.387 . S
C998 C999 1.387 . S
C998 H1002 0.950 . S
C998 C1007 1.390 1_455 S
C999 C998 1.387 . S
C999 C1001 1.387 . S
H1000 C1007 0.950 . S
C1001 C999 1.387 . S
C1001 C1003 1.390 1_455 S
C1001 H1005 0.950 . S
H1002 C998 0.950 . S
C1003 C1001 1.390 1_655 S
C1003 C1004 1.387 . S
C1003 H1006 0.950 . S
C1004 C1003 1.387 . S
C1004 C1007 1.387 . S
H1005 C1001 0.950 . S
H1006 C1003 0.950 . S
C1007 C998 1.390 1_655 S
C1007 H1000 0.950 . S
C1007 C1004 1.387 . S
C1008 C1009 1.387 . S
C1008 H1012 0.950 . S
C1008 C1017 1.390 . S
C1009 C1008 1.387 . S
C1009 C1011 1.387 . S
H1010 C1017 0.950 . S
C1011 C1009 1.387 . S
C1011 C1013 1.390 . S
C1011 H1015 0.950 . S
H1012 C1008 0.950 . S
C1013 C1011 1.390 . S
C1013 C1014 1.387 . S
C1013 H1016 0.950 . S
C1014 C1013 1.387 . S
C1014 C1017 1.387 . S
H1015 C1011 0.950 . S
H1016 C1013 0.950 . S
C1017 C1008 1.390 . S
C1017 H1010 0.950 . S
C1017 C1014 1.387 . S
C1018 C1019 1.387 . S
C1018 H1022 0.950 . S
C1018 C1027 1.390 . S
C1019 C1018 1.387 . S
C1019 C1021 1.387 . S
H1020 C1027 0.950 . S
C1021 C1019 1.387 . S
C1021 C1023 1.390 . S
C1021 H1025 0.950 . S
H1022 C1018 0.950 . S
C1023 C1021 1.390 . S
C1023 C1024 1.387 . S
C1023 H1026 0.950 . S
C1024 C1023 1.387 . S
C1024 C1027 1.387 . S
H1025 C1021 0.950 . S
H1026 C1023 0.950 . S
C1027 C1018 1.390 . S
C1027 H1020 0.950 . S
C1027 C1024 1.387 . S
C1028 C1029 1.387 . S
C1028 H1032 0.950 . S
C1028 C1037 1.390 . S
C1029 C1028 1.387 . S
C1029 C1031 1.387 . S
H1030 C1037 0.950 . S
C1031 C1029 1.387 . S
C1031 C1033 1.390 . S
C1031 H1035 0.950 . S
H1032 C1028 0.950 . S
C1033 C1031 1.390 . S
C1033 C1034 1.387 . S
C1033 H1036 0.950 . S
C1034 C1033 1.387 . S
C1034 C1037 1.387 . S
H1035 C1031 0.950 . S
H1036 C1033 0.950 . S
C1037 C1028 1.390 . S
C1037 H1030 0.950 . S
C1037 C1034 1.387 . S
C1038 C1039 1.387 . S
C1038 H1042 0.950 . S
C1038 C1047 1.390 . S
C1039 C1038 1.387 . S
C1039 C1041 1.387 . S
H1040 C1047 0.950 . S
C1041 C1039 1.387 . S
C1041 C1043 1.390 . S
C1041 H1045 0.950 . S
H1042 C1038 0.950 . S
C1043 C1041 1.390 . S
C1043 C1044 1.387 . S
C1043 H1046 0.950 . S
C1044 C1043 1.387 . S
C1044 C1047 1.387 . S
H1045 C1041 0.950 . S
H1046 C1043 0.950 . S
C1047 C1038 1.390 . S
C1047 H1040 0.950 . S
C1047 C1044 1.387 . S
C1048 C1049 1.387 . S
C1048 H1052 0.950 . S
C1048 C1057 1.390 . S
C1049 C1048 1.387 . S
C1049 C1051 1.387 . S
H1050 C1057 0.950 . S
C1051 C1049 1.387 . S
C1051 C1053 1.390 . S
C1051 H1055 0.950 . S
H1052 C1048 0.950 . S
C1053 C1051 1.390 . S
C1053 C1054 1.387 . S
C1053 H1056 0.950 . S
C1054 C1053 1.387 . S
C1054 C1057 1.387 . S
H1055 C1051 0.950 . S
H1056 C1053 0.950 . S
C1057 C1048 1.390 . S
C1057 H1050 0.950 . S
C1057 C1054 1.387 . S
C1058 C1059 1.387 . S
C1058 H1062 0.950 . S
C1058 C1067 1.390 . S
C1059 C1058 1.387 . S
C1059 C1061 1.387 . S
H1060 C1067 0.950 . S
C1061 C1059 1.387 . S
C1061 C1063 1.390 . S
C1061 H1065 0.950 . S
H1062 C1058 0.950 . S
C1063 C1061 1.390 . S
C1063 C1064 1.387 . S
C1063 H1066 0.950 . S
C1064 C1063 1.387 . S
C1064 C1067 1.387 . S
H1065 C1061 0.950 . S
H1066 C1063 0.950 . S
C1067 C1058 1.390 . S
C1067 H1060 0.950 . S
C1067 C1064 1.387 . S
C1068 C1069 1.387 . S
C1068 H1072 0.950 . S
C1068 C1077 1.390 . S
C1069 C1068 1.387 . S
C1069 C1071 1.387 . S
H1070 C1077 0.950 . S
C1071 C1069 1.387 . S
C1071 C1073 1.390 . S
C1071 H1075 0.950 . S
H1072 C1068 0.950 . S
C1073 C1071 1.390 . S
C1073 C1074 1.387 . S
C1073 H1076 0.950 . S
C1074 C1073 1.387 . S
C1074 C1077 1.387 . S
H1075 C1071 0.950 . S
H1076 C1073 0.950 . S
C1077 C1068 1.390 . S
C1077 H1070 0.950 . S
C1077 C1074 1.387 . S
C1078 C1079 1.387 . S
C1078 H1082 0.950 . S
C1078 C1087 1.390 . S
C1079 C1078 1.387 . S
C1079 C1081 1.387 . S
H1080 C1087 0.950 . S
C1081 C1079 1.387 . S
C1081 C1083 1.390 . S
C1081 H1085 0.950 . S
H1082 C1078 0.950 . S
C1083 C1081 1.390 . S
C1083 C1084 1.387 . S
C1083 H1086 0.950 . S
C1084 C1083 1.387 . S
C1084 C1087 1.387 . S
H1085 C1081 0.950 . S
H1086 C1083 0.950 . S
C1087 C1078 1.390 . S
C1087 H1080 0.950 . S
C1087 C1084 1.387 . S
C1088 C1089 1.387 . S
C1088 H1092 0.950 . S
C1088 C1097 1.390 . S
C1089 C1088 1.387 . S
C1089 C1091 1.387 . S
H1090 C1097 0.950 . S
C1091 C1089 1.387 . S
C1091 C1093 1.390 . S
C1091 H1095 0.950 . S
H1092 C1088 0.950 . S
C1093 C1091 1.390 . S
C1093 C1094 1.387 . S
C1093 H1096 0.950 . S
C1094 C1093 1.387 . S
C1094 C1097 1.387 . S
H1095 C1091 0.950 . S
H1096 C1093 0.950 . S
C1097 C1088 1.390 . S
C1097 H1090 0.950 . S
C1097 C1094 1.387 . S
C1098 C1099 1.387 . S
C1098 H1102 0.950 . S
C1098 C1107 1.390 . S
C1099 C1098 1.387 . S
C1099 C1101 1.387 . S
H1100 C1107 0.950 . S
C1101 C1099 1.387 . S
C1101 C1103 1.390 . S
C1101 H1105 0.950 . S
H1102 C1098 0.950 . S
C1103 C1101 1.390 . S
C1103 C1104 1.387 . S
C1103 H1106 0.950 . S
C1104 C1103 1.387 . S
C1104 C1107 1.387 . S
H1105 C1101 0.950 . S
H1106 C1103 0.950 . S
C1107 C1098 1.390 . S
C1107 H1100 0.950 . S
C1107 C1104 1.387 . S
C1108 C1109 1.387 . S
C1108 H1112 0.950 . S
C1108 C1117 1.390 . S
C1109 C1108 1.387 . S
C1109 C1111 1.387 . S
H1110 C1117 0.950 . S
C1111 C1109 1.387 . S
C1111 C1113 1.390 . S
C1111 H1115 0.950 . S
H1112 C1108 0.950 . S
C1113 C1111 1.390 . S
C1113 C1114 1.387 . S
C1113 H1116 0.950 . S
C1114 C1113 1.387 . S
C1114 C1117 1.387 . S
H1115 C1111 0.950 . S
H1116 C1113 0.950 . S
C1117 C1108 1.390 . S
C1117 H1110 0.950 . S
C1117 C1114 1.387 . S
C1118 C1119 1.387 . S
C1118 H1122 0.950 . S
C1118 C1127 1.390 . S
C1119 C1118 1.387 . S
C1119 C1121 1.387 . S
H1120 C1127 0.950 . S
C1121 C1119 1.387 . S
C1121 C1123 1.390 . S
C1121 H1125 0.950 . S
H1122 C1118 0.950 . S
C1123 C1121 1.390 . S
C1123 C1124 1.387 . S
C1123 H1126 0.950 . S
C1124 C1123 1.387 . S
C1124 C1127 1.387 . S
H1125 C1121 0.950 . S
H1126 C1123 0.950 . S
C1127 C1118 1.390 . S
C1127 H1120 0.950 . S
C1127 C1124 1.387 . S
C1128 C1129 1.387 1_455 S
C1128 H1132 0.950 . S
C1128 C1137 1.390 . S
C1129 C1128 1.387 1_655 S
C1129 C1131 1.387 . S
H1130 C1137 0.950 . S
C1131 C1129 1.387 . S
C1131 C1133 1.390 . S
C1131 H1135 0.950 . S
H1132 C1128 0.950 . S
C1133 C1131 1.390 . S
C1133 C1134 1.387 1_655 S
C1133 H1136 0.950 . S
C1134 C1133 1.387 1_455 S
C1134 C1137 1.387 . S
H1135 C1131 0.950 . S
H1136 C1133 0.950 . S
C1137 C1128 1.390 . S
C1137 H1130 0.950 . S
C1137 C1134 1.387 . S
C1138 C1139 1.387 . S
C1138 H1142 0.950 . S
C1138 C1147 1.390 . S
C1139 C1138 1.387 . S
C1139 C1141 1.387 . S
H1140 C1147 0.950 . S
C1141 C1139 1.387 . S
C1141 C1143 1.390 . S
C1141 H1145 0.950 . S
H1142 C1138 0.950 . S
C1143 C1141 1.390 . S
C1143 C1144 1.387 . S
C1143 H1146 0.950 . S
C1144 C1143 1.387 . S
C1144 C1147 1.387 . S
H1145 C1141 0.950 . S
H1146 C1143 0.950 . S
C1147 C1138 1.390 . S
C1147 H1140 0.950 . S
C1147 C1144 1.387 . S
C1148 C1149 1.387 1_545 S
C1148 H1152 0.950 . S
C1148 C1157 1.390 . S
C1149 C1148 1.387 1_565 S
C1149 C1151 1.387 . S
H1150 C1157 0.950 . S
C1151 C1149 1.387 . S
C1151 C1153 1.390 . S
C1151 H1155 0.950 . S
H1152 C1148 0.950 . S
C1153 C1151 1.390 . S
C1153 C1154 1.387 1_565 S
C1153 H1156 0.950 . S
C1154 C1153 1.387 1_545 S
C1154 C1157 1.387 . S
H1155 C1151 0.950 . S
H1156 C1153 0.950 . S
C1157 C1148 1.390 . S
C1157 H1150 0.950 . S
C1157 C1154 1.387 . S
C1158 C1159 1.427 . S
C1158 H1162 0.941 . S
C1158 C1167 1.379 1_565 S
C1159 C1158 1.427 . S
C1159 C1161 1.387 . S
H1160 C1167 0.950 . S
C1161 C1159 1.387 . S
C1161 C1163 1.390 . S
C1161 H1165 0.950 . S
H1162 C1158 0.941 . S
C1163 C1161 1.390 . S
C1163 C1164 1.387 1_565 S
C1163 H1166 0.950 . S
C1164 C1163 1.387 1_545 S
C1164 C1167 1.387 . S
H1165 C1161 0.950 . S
H1166 C1163 0.950 . S
C1167 C1158 1.379 1_545 S
C1167 H1160 0.950 . S
C1167 C1164 1.387 . S
C1168 C1169 1.387 1_455 S
C1168 H1172 0.950 . S
C1168 C1177 1.390 . S
C1169 C1168 1.387 1_655 S
C1169 C1171 1.387 . S
H1170 C1177 0.950 . S
C1171 C1169 1.387 . S
C1171 C1173 1.390 . S
C1171 H1175 0.950 . S
H1172 C1168 0.950 . S
C1173 C1171 1.390 . S
C1173 C1174 1.387 1_655 S
C1173 H1176 0.950 . S
C1174 C1173 1.387 1_455 S
C1174 C1177 1.387 . S
H1175 C1171 0.950 . S
H1176 C1173 0.950 . S
C1177 C1168 1.390 . S
C1177 H1170 0.950 . S
C1177 C1174 1.387 . S
C1178 C1179 1.387 . S
C1178 H1182 0.950 . S
C1178 C1187 1.390 . S
C1179 C1178 1.387 . S
C1179 C1181 1.387 . S
H1180 C1187 0.950 . S
C1181 C1179 1.387 . S
C1181 C1183 1.390 . S
C1181 H1185 0.950 . S
H1182 C1178 0.950 . S
C1183 C1181 1.390 . S
C1183 C1184 1.387 . S
C1183 H1186 0.950 . S
C1184 C1183 1.387 . S
C1184 C1187 1.387 . S
H1185 C1181 0.950 . S
H1186 C1183 0.950 . S
C1187 C1178 1.390 . S
C1187 H1180 0.950 . S
C1187 C1184 1.387 . S
C469 C213 1.653 . S
C474 C5 1.653 . S
C479 C226 1.656 . S
C484 C18 1.656 . S
C489 C200 1.653 . S
C494 C31 1.653 . S
C499 C343 1.628 1_554 S
C504 C44 1.629 . S
C509 C57 1.629 . S
C514 C317 1.629 1_554 S
C519 C70 1.631 . S
C524 C330 1.631 1_554 S
C529 C81 1.656 . S
C534 C447 1.706 . S
C539 C458 1.655 . S
C544 C96 1.705 . S
C549 C434 1.706 . S
C554 C109 1.705 . S
C559 C122 1.681 . S
C564 C265 1.681 1_556 S
C569 C237 1.631 1_556 S
C574 C135 1.681 . S
C579 C146 1.629 . S
C584 C252 1.680 1_556 S
C589 C369 1.574 . S
C594 C161 1.572 . S
C599 C174 1.575 . S
C604 C382 1.572 . S
C609 C356 1.572 . S
C614 C187 1.570 . S
C619 C421 1.626 . S
C624 C278 1.625 . S
C629 C393 1.575 . S
C634 C291 1.626 . S
C639 C302 1.572 . S
C644 C408 1.624 . S
C649 C244 1.783 . S
C654 C1 1.782 . S
C659 C248 1.702 . S
C664 C14 1.784 . S
C669 C261 1.703 . S
C674 C27 1.785 . S
C679 C40 1.781 . S
C684 C430 1.696 . S
C689 C53 1.782 . S
C694 C443 1.699 . S
C699 C66 1.782 . S
C704 C465 1.782 . S
C709 C88 1.782 . S
C714 C313 1.783 . S
C719 C326 1.783 . S
C724 C92 1.697 . S
C729 C339 1.783 . S
C734 C105 1.697 . S
C739 C196 1.781 . S
C744 C118 1.699 . S
C749 C131 1.700 . S
C754 C209 1.782 . S
C759 C153 1.781 . S
C764 C222 1.780 . S
C769 C157 1.788 . S
C774 C400 1.788 . S
C779 C404 1.702 . S
C784 C170 1.788 . S
C789 C417 1.705 . S
C794 C183 1.790 . S
C799 C352 1.770 . S
C804 C274 1.694 . S
C809 C287 1.691 . S
C814 C365 1.769 . S
C819 C309 1.769 . S
C824 C378 1.769 . S
C829 C354 1.788 . S
C834 C3 1.792 . S
C839 C16 1.793 . S
C844 C367 1.790 . S
C849 C29 1.792 . S
C854 C380 1.789 . S
C859 C159 1.750 . S
C864 C42 1.748 . S
C869 C55 1.747 . S
C874 C172 1.749 . S
C879 C68 1.748 . S
C884 C185 1.749 . S
C889 C276 1.754 . S
C894 C83 1.794 . S
C899 C94 1.747 . S
C904 C289 1.754 . S
C909 C304 1.789 . S
C914 C107 1.749 . S
C919 C120 1.709 . S
C924 C395 1.751 . S
C929 C406 1.706 . S
C934 C133 1.707 . S
C939 C419 1.708 . S
C944 C148 1.749 . S
C949 C315 1.768 . S
C954 C198 1.768 . S
C959 C328 1.767 . S
C964 C211 1.766 . S
C969 C341 1.768 . S
C974 C224 1.767 . S
C979 C239 1.769 . S
C984 C432 1.727 . S
C989 C445 1.726 . S
C994 C250 1.728 . S
C999 C460 1.767 . S
C1004 C263 1.726 . S
C1009 C10 1.092 1_556 S
C1014 C218 1.093 . S
C1019 C23 1.092 1_556 S
C1024 C231 1.092 . S
C1029 C36 1.092 1_556 S
C1034 C205 1.092 . S
C1039 C348 1.118 . S
C1044 C49 1.118 . S
C1049 C322 1.116 . S
C1054 C62 1.116 . S
C1059 C335 1.118 . S
C1064 C75 1.118 . S
C1069 C452 1.107 . S
C1074 C79 1.092 1_554 S
C1079 C456 1.092 . S
C1084 C101 1.107 1_554 S
C1089 C439 1.107 . S
C1094 C114 1.107 1_554 S
C1099 C127 1.134 . S
C1104 C270 1.135 . S
C1109 C140 1.134 . S
C1114 C235 1.118 . S
C1119 C144 1.118 . S
C1124 C257 1.134 . S
C1129 C374 1.182 . S
C1134 C166 1.184 . S
C1139 C387 1.182 . S
C1144 C179 1.183 . S
C1149 C192 1.181 . S
C1154 C361 1.184 . S
C1159 C283 1.203 . S
C1164 C426 1.206 . S
C1169 C391 1.182 . S
C1174 C296 1.206 . S
C1179 C413 1.204 . S
C1184 C300 1.184 . S
