# Generated by pormake.
# Topology lcs-e, (6)-cn, num edge types: 1
# Building blocks:
#     Node 0, Type 0, BuildingBlock: MIFKUJ_clean_sbu_0, # of connection points: 6
#     Node 1, Type 0, BuildingBlock: MIFKUJ_clean_sbu_0, # of connection points: 6
#     Node 2, Type 0, BuildingBlock: MIFKUJ_clean_sbu_0, # of connection points: 6
#     Node 3, Type 0, BuildingBlock: MIFKUJ_clean_sbu_0, # of connection points: 6
#     Node 4, Type 0, BuildingBlock: MIFKUJ_clean_sbu_0, # of connection points: 6
#     Node 5, Type 0, BuildingBlock: MIFKUJ_clean_sbu_0, # of connection points: 6
#     Node 6, Type 0, BuildingBlock: MIFKUJ_clean_sbu_0, # of connection points: 6
#     Node 7, Type 0, BuildingBlock: MIFKUJ_clean_sbu_0, # of connection points: 6
#     Node 8, Type 0, BuildingBlock: MIFKUJ_clean_sbu_0, # of connection points: 6
#     Node 9, Type 0, BuildingBlock: MIFKUJ_clean_sbu_0, # of connection points: 6
#     Node 10, Type 0, BuildingBlock: MIFKUJ_clean_sbu_0, # of connection points: 6
#     Node 11, Type 0, BuildingBlock: MIFKUJ_clean_sbu_0, # of connection points: 6
#     Node 12, Type 0, BuildingBlock: MIFKUJ_clean_sbu_0, # of connection points: 6
#     Node 13, Type 0, BuildingBlock: MIFKUJ_clean_sbu_0, # of connection points: 6
#     Node 14, Type 0, BuildingBlock: MIFKUJ_clean_sbu_0, # of connection points: 6
#     Node 15, Type 0, BuildingBlock: MIFKUJ_clean_sbu_0, # of connection points: 6
#     Node 16, Type 0, BuildingBlock: MIFKUJ_clean_sbu_0, # of connection points: 6
#     Node 17, Type 0, BuildingBlock: MIFKUJ_clean_sbu_0, # of connection points: 6
#     Node 18, Type 0, BuildingBlock: MIFKUJ_clean_sbu_0, # of connection points: 6
#     Node 19, Type 0, BuildingBlock: MIFKUJ_clean_sbu_0, # of connection points: 6
#     Node 20, Type 0, BuildingBlock: MIFKUJ_clean_sbu_0, # of connection points: 6
#     Node 21, Type 0, BuildingBlock: MIFKUJ_clean_sbu_0, # of connection points: 6
#     Node 22, Type 0, BuildingBlock: MIFKUJ_clean_sbu_0, # of connection points: 6
#     Node 23, Type 0, BuildingBlock: MIFKUJ_clean_sbu_0, # of connection points: 6
#     Node 24, Type 0, BuildingBlock: MIFKUJ_clean_sbu_0, # of connection points: 6
#     Node 25, Type 0, BuildingBlock: MIFKUJ_clean_sbu_0, # of connection points: 6
#     Node 26, Type 0, BuildingBlock: MIFKUJ_clean_sbu_0, # of connection points: 6
#     Node 27, Type 0, BuildingBlock: MIFKUJ_clean_sbu_0, # of connection points: 6
#     Node 28, Type 0, BuildingBlock: MIFKUJ_clean_sbu_0, # of connection points: 6
#     Node 29, Type 0, BuildingBlock: MIFKUJ_clean_sbu_0, # of connection points: 6
#     Node 30, Type 0, BuildingBlock: MIFKUJ_clean_sbu_0, # of connection points: 6
#     Node 31, Type 0, BuildingBlock: MIFKUJ_clean_sbu_0, # of connection points: 6
#     Node 32, Type 0, BuildingBlock: MIFKUJ_clean_sbu_0, # of connection points: 6
#     Node 33, Type 0, BuildingBlock: MIFKUJ_clean_sbu_0, # of connection points: 6
#     Node 34, Type 0, BuildingBlock: MIFKUJ_clean_sbu_0, # of connection points: 6
#     Node 35, Type 0, BuildingBlock: MIFKUJ_clean_sbu_0, # of connection points: 6
#     Node 36, Type 0, BuildingBlock: MIFKUJ_clean_sbu_0, # of connection points: 6
#     Node 37, Type 0, BuildingBlock: MIFKUJ_clean_sbu_0, # of connection points: 6
#     Node 38, Type 0, BuildingBlock: MIFKUJ_clean_sbu_0, # of connection points: 6
#     Node 39, Type 0, BuildingBlock: MIFKUJ_clean_sbu_0, # of connection points: 6
#     Node 40, Type 0, BuildingBlock: MIFKUJ_clean_sbu_0, # of connection points: 6
#     Node 41, Type 0, BuildingBlock: MIFKUJ_clean_sbu_0, # of connection points: 6
#     Node 42, Type 0, BuildingBlock: MIFKUJ_clean_sbu_0, # of connection points: 6
#     Node 43, Type 0, BuildingBlock: MIFKUJ_clean_sbu_0, # of connection points: 6
#     Node 44, Type 0, BuildingBlock: MIFKUJ_clean_sbu_0, # of connection points: 6
#     Node 45, Type 0, BuildingBlock: MIFKUJ_clean_sbu_0, # of connection points: 6
#     Node 46, Type 0, BuildingBlock: MIFKUJ_clean_sbu_0, # of connection points: 6
#     Node 47, Type 0, BuildingBlock: MIFKUJ_clean_sbu_0, # of connection points: 6
#     Edge 48, Type (0, 0), BuildingBlock: UVAHIK_clean_linker_0, # of connection points: 2
#     Edge 49, Type (0, 0), BuildingBlock: UVAHIK_clean_linker_0, # of connection points: 2
#     Edge 50, Type (0, 0), BuildingBlock: UVAHIK_clean_linker_0, # of connection points: 2
#     Edge 51, Type (0, 0), BuildingBlock: UVAHIK_clean_linker_0, # of connection points: 2
#     Edge 52, Type (0, 0), BuildingBlock: UVAHIK_clean_linker_0, # of connection points: 2
#     Edge 53, Type (0, 0), BuildingBlock: UVAHIK_clean_linker_0, # of connection points: 2
#     Edge 54, Type (0, 0), BuildingBlock: UVAHIK_clean_linker_0, # of connection points: 2
#     Edge 55, Type (0, 0), BuildingBlock: UVAHIK_clean_linker_0, # of connection points: 2
#     Edge 56, Type (0, 0), BuildingBlock: UVAHIK_clean_linker_0, # of connection points: 2
#     Edge 57, Type (0, 0), BuildingBlock: UVAHIK_clean_linker_0, # of connection points: 2
#     Edge 58, Type (0, 0), BuildingBlock: UVAHIK_clean_linker_0, # of connection points: 2
#     Edge 59, Type (0, 0), BuildingBlock: UVAHIK_clean_linker_0, # of connection points: 2
#     Edge 60, Type (0, 0), BuildingBlock: UVAHIK_clean_linker_0, # of connection points: 2
#     Edge 61, Type (0, 0), BuildingBlock: UVAHIK_clean_linker_0, # of connection points: 2
#     Edge 62, Type (0, 0), BuildingBlock: UVAHIK_clean_linker_0, # of connection points: 2
#     Edge 63, Type (0, 0), BuildingBlock: UVAHIK_clean_linker_0, # of connection points: 2
#     Edge 64, Type (0, 0), BuildingBlock: UVAHIK_clean_linker_0, # of connection points: 2
#     Edge 65, Type (0, 0), BuildingBlock: UVAHIK_clean_linker_0, # of connection points: 2
#     Edge 66, Type (0, 0), BuildingBlock: UVAHIK_clean_linker_0, # of connection points: 2
#     Edge 67, Type (0, 0), BuildingBlock: UVAHIK_clean_linker_0, # of connection points: 2
#     Edge 68, Type (0, 0), BuildingBlock: UVAHIK_clean_linker_0, # of connection points: 2
#     Edge 69, Type (0, 0), BuildingBlock: UVAHIK_clean_linker_0, # of connection points: 2
#     Edge 70, Type (0, 0), BuildingBlock: UVAHIK_clean_linker_0, # of connection points: 2
#     Edge 71, Type (0, 0), BuildingBlock: UVAHIK_clean_linker_0, # of connection points: 2
#     Edge 72, Type (0, 0), BuildingBlock: UVAHIK_clean_linker_0, # of connection points: 2
#     Edge 73, Type (0, 0), BuildingBlock: UVAHIK_clean_linker_0, # of connection points: 2
#     Edge 74, Type (0, 0), BuildingBlock: UVAHIK_clean_linker_0, # of connection points: 2
#     Edge 75, Type (0, 0), BuildingBlock: UVAHIK_clean_linker_0, # of connection points: 2
#     Edge 76, Type (0, 0), BuildingBlock: UVAHIK_clean_linker_0, # of connection points: 2
#     Edge 77, Type (0, 0), BuildingBlock: UVAHIK_clean_linker_0, # of connection points: 2
#     Edge 78, Type (0, 0), BuildingBlock: UVAHIK_clean_linker_0, # of connection points: 2
#     Edge 79, Type (0, 0), BuildingBlock: UVAHIK_clean_linker_0, # of connection points: 2
#     Edge 80, Type (0, 0), BuildingBlock: UVAHIK_clean_linker_0, # of connection points: 2
#     Edge 81, Type (0, 0), BuildingBlock: UVAHIK_clean_linker_0, # of connection points: 2
#     Edge 82, Type (0, 0), BuildingBlock: UVAHIK_clean_linker_0, # of connection points: 2
#     Edge 83, Type (0, 0), BuildingBlock: UVAHIK_clean_linker_0, # of connection points: 2
#     Edge 84, Type (0, 0), BuildingBlock: UVAHIK_clean_linker_0, # of connection points: 2
#     Edge 85, Type (0, 0), BuildingBlock: UVAHIK_clean_linker_0, # of connection points: 2
#     Edge 86, Type (0, 0), BuildingBlock: UVAHIK_clean_linker_0, # of connection points: 2
#     Edge 87, Type (0, 0), BuildingBlock: UVAHIK_clean_linker_0, # of connection points: 2
#     Edge 88, Type (0, 0), BuildingBlock: UVAHIK_clean_linker_0, # of connection points: 2
#     Edge 89, Type (0, 0), BuildingBlock: UVAHIK_clean_linker_0, # of connection points: 2
#     Edge 90, Type (0, 0), BuildingBlock: UVAHIK_clean_linker_0, # of connection points: 2
#     Edge 91, Type (0, 0), BuildingBlock: UVAHIK_clean_linker_0, # of connection points: 2
#     Edge 92, Type (0, 0), BuildingBlock: UVAHIK_clean_linker_0, # of connection points: 2
#     Edge 93, Type (0, 0), BuildingBlock: UVAHIK_clean_linker_0, # of connection points: 2
#     Edge 94, Type (0, 0), BuildingBlock: UVAHIK_clean_linker_0, # of connection points: 2
#     Edge 95, Type (0, 0), BuildingBlock: UVAHIK_clean_linker_0, # of connection points: 2
#     Edge 96, Type (0, 0), BuildingBlock: UVAHIK_clean_linker_0, # of connection points: 2
#     Edge 97, Type (0, 0), BuildingBlock: UVAHIK_clean_linker_0, # of connection points: 2
#     Edge 98, Type (0, 0), BuildingBlock: UVAHIK_clean_linker_0, # of connection points: 2
#     Edge 99, Type (0, 0), BuildingBlock: UVAHIK_clean_linker_0, # of connection points: 2
#     Edge 100, Type (0, 0), BuildingBlock: UVAHIK_clean_linker_0, # of connection points: 2
#     Edge 101, Type (0, 0), BuildingBlock: UVAHIK_clean_linker_0, # of connection points: 2
#     Edge 102, Type (0, 0), BuildingBlock: UVAHIK_clean_linker_0, # of connection points: 2
#     Edge 103, Type (0, 0), BuildingBlock: UVAHIK_clean_linker_0, # of connection points: 2
#     Edge 104, Type (0, 0), BuildingBlock: UVAHIK_clean_linker_0, # of connection points: 2
#     Edge 105, Type (0, 0), BuildingBlock: UVAHIK_clean_linker_0, # of connection points: 2
#     Edge 106, Type (0, 0), BuildingBlock: UVAHIK_clean_linker_0, # of connection points: 2
#     Edge 107, Type (0, 0), BuildingBlock: UVAHIK_clean_linker_0, # of connection points: 2
#     Edge 108, Type (0, 0), BuildingBlock: UVAHIK_clean_linker_0, # of connection points: 2
#     Edge 109, Type (0, 0), BuildingBlock: UVAHIK_clean_linker_0, # of connection points: 2
#     Edge 110, Type (0, 0), BuildingBlock: UVAHIK_clean_linker_0, # of connection points: 2
#     Edge 111, Type (0, 0), BuildingBlock: UVAHIK_clean_linker_0, # of connection points: 2
#     Edge 112, Type (0, 0), BuildingBlock: UVAHIK_clean_linker_0, # of connection points: 2
#     Edge 113, Type (0, 0), BuildingBlock: UVAHIK_clean_linker_0, # of connection points: 2
#     Edge 114, Type (0, 0), BuildingBlock: UVAHIK_clean_linker_0, # of connection points: 2
#     Edge 115, Type (0, 0), BuildingBlock: UVAHIK_clean_linker_0, # of connection points: 2
#     Edge 116, Type (0, 0), BuildingBlock: UVAHIK_clean_linker_0, # of connection points: 2
#     Edge 117, Type (0, 0), BuildingBlock: UVAHIK_clean_linker_0, # of connection points: 2
#     Edge 118, Type (0, 0), BuildingBlock: UVAHIK_clean_linker_0, # of connection points: 2
#     Edge 119, Type (0, 0), BuildingBlock: UVAHIK_clean_linker_0, # of connection points: 2
#     Edge 120, Type (0, 0), BuildingBlock: UVAHIK_clean_linker_0, # of connection points: 2
#     Edge 121, Type (0, 0), BuildingBlock: UVAHIK_clean_linker_0, # of connection points: 2
#     Edge 122, Type (0, 0), BuildingBlock: UVAHIK_clean_linker_0, # of connection points: 2
#     Edge 123, Type (0, 0), BuildingBlock: UVAHIK_clean_linker_0, # of connection points: 2
#     Edge 124, Type (0, 0), BuildingBlock: UVAHIK_clean_linker_0, # of connection points: 2
#     Edge 125, Type (0, 0), BuildingBlock: UVAHIK_clean_linker_0, # of connection points: 2
#     Edge 126, Type (0, 0), BuildingBlock: UVAHIK_clean_linker_0, # of connection points: 2
#     Edge 127, Type (0, 0), BuildingBlock: UVAHIK_clean_linker_0, # of connection points: 2
#     Edge 128, Type (0, 0), BuildingBlock: UVAHIK_clean_linker_0, # of connection points: 2
#     Edge 129, Type (0, 0), BuildingBlock: UVAHIK_clean_linker_0, # of connection points: 2
#     Edge 130, Type (0, 0), BuildingBlock: UVAHIK_clean_linker_0, # of connection points: 2
#     Edge 131, Type (0, 0), BuildingBlock: UVAHIK_clean_linker_0, # of connection points: 2
#     Edge 132, Type (0, 0), BuildingBlock: UVAHIK_clean_linker_0, # of connection points: 2
#     Edge 133, Type (0, 0), BuildingBlock: UVAHIK_clean_linker_0, # of connection points: 2
#     Edge 134, Type (0, 0), BuildingBlock: UVAHIK_clean_linker_0, # of connection points: 2
#     Edge 135, Type (0, 0), BuildingBlock: UVAHIK_clean_linker_0, # of connection points: 2
#     Edge 136, Type (0, 0), BuildingBlock: UVAHIK_clean_linker_0, # of connection points: 2
#     Edge 137, Type (0, 0), BuildingBlock: UVAHIK_clean_linker_0, # of connection points: 2
#     Edge 138, Type (0, 0), BuildingBlock: UVAHIK_clean_linker_0, # of connection points: 2
#     Edge 139, Type (0, 0), BuildingBlock: UVAHIK_clean_linker_0, # of connection points: 2
#     Edge 140, Type (0, 0), BuildingBlock: UVAHIK_clean_linker_0, # of connection points: 2
#     Edge 141, Type (0, 0), BuildingBlock: UVAHIK_clean_linker_0, # of connection points: 2
#     Edge 142, Type (0, 0), BuildingBlock: UVAHIK_clean_linker_0, # of connection points: 2
#     Edge 143, Type (0, 0), BuildingBlock: UVAHIK_clean_linker_0, # of connection points: 2
#     Edge 144, Type (0, 0), BuildingBlock: UVAHIK_clean_linker_0, # of connection points: 2
#     Edge 145, Type (0, 0), BuildingBlock: UVAHIK_clean_linker_0, # of connection points: 2
#     Edge 146, Type (0, 0), BuildingBlock: UVAHIK_clean_linker_0, # of connection points: 2
#     Edge 147, Type (0, 0), BuildingBlock: UVAHIK_clean_linker_0, # of connection points: 2
#     Edge 148, Type (0, 0), BuildingBlock: UVAHIK_clean_linker_0, # of connection points: 2
#     Edge 149, Type (0, 0), BuildingBlock: UVAHIK_clean_linker_0, # of connection points: 2
#     Edge 150, Type (0, 0), BuildingBlock: UVAHIK_clean_linker_0, # of connection points: 2
#     Edge 151, Type (0, 0), BuildingBlock: UVAHIK_clean_linker_0, # of connection points: 2
#     Edge 152, Type (0, 0), BuildingBlock: UVAHIK_clean_linker_0, # of connection points: 2
#     Edge 153, Type (0, 0), BuildingBlock: UVAHIK_clean_linker_0, # of connection points: 2
#     Edge 154, Type (0, 0), BuildingBlock: UVAHIK_clean_linker_0, # of connection points: 2
#     Edge 155, Type (0, 0), BuildingBlock: UVAHIK_clean_linker_0, # of connection points: 2
#     Edge 156, Type (0, 0), BuildingBlock: UVAHIK_clean_linker_0, # of connection points: 2
#     Edge 157, Type (0, 0), BuildingBlock: UVAHIK_clean_linker_0, # of connection points: 2
#     Edge 158, Type (0, 0), BuildingBlock: UVAHIK_clean_linker_0, # of connection points: 2
#     Edge 159, Type (0, 0), BuildingBlock: UVAHIK_clean_linker_0, # of connection points: 2
#     Edge 160, Type (0, 0), BuildingBlock: UVAHIK_clean_linker_0, # of connection points: 2
#     Edge 161, Type (0, 0), BuildingBlock: UVAHIK_clean_linker_0, # of connection points: 2
#     Edge 162, Type (0, 0), BuildingBlock: UVAHIK_clean_linker_0, # of connection points: 2
#     Edge 163, Type (0, 0), BuildingBlock: UVAHIK_clean_linker_0, # of connection points: 2
#     Edge 164, Type (0, 0), BuildingBlock: UVAHIK_clean_linker_0, # of connection points: 2
#     Edge 165, Type (0, 0), BuildingBlock: UVAHIK_clean_linker_0, # of connection points: 2
#     Edge 166, Type (0, 0), BuildingBlock: UVAHIK_clean_linker_0, # of connection points: 2
#     Edge 167, Type (0, 0), BuildingBlock: UVAHIK_clean_linker_0, # of connection points: 2
#     Edge 168, Type (0, 0), BuildingBlock: UVAHIK_clean_linker_0, # of connection points: 2
#     Edge 169, Type (0, 0), BuildingBlock: UVAHIK_clean_linker_0, # of connection points: 2
#     Edge 170, Type (0, 0), BuildingBlock: UVAHIK_clean_linker_0, # of connection points: 2
#     Edge 171, Type (0, 0), BuildingBlock: UVAHIK_clean_linker_0, # of connection points: 2
#     Edge 172, Type (0, 0), BuildingBlock: UVAHIK_clean_linker_0, # of connection points: 2
#     Edge 173, Type (0, 0), BuildingBlock: UVAHIK_clean_linker_0, # of connection points: 2
#     Edge 174, Type (0, 0), BuildingBlock: UVAHIK_clean_linker_0, # of connection points: 2
#     Edge 175, Type (0, 0), BuildingBlock: UVAHIK_clean_linker_0, # of connection points: 2
#     Edge 176, Type (0, 0), BuildingBlock: UVAHIK_clean_linker_0, # of connection points: 2
#     Edge 177, Type (0, 0), BuildingBlock: UVAHIK_clean_linker_0, # of connection points: 2
#     Edge 178, Type (0, 0), BuildingBlock: UVAHIK_clean_linker_0, # of connection points: 2
#     Edge 179, Type (0, 0), BuildingBlock: UVAHIK_clean_linker_0, # of connection points: 2
#     Edge 180, Type (0, 0), BuildingBlock: UVAHIK_clean_linker_0, # of connection points: 2
#     Edge 181, Type (0, 0), BuildingBlock: UVAHIK_clean_linker_0, # of connection points: 2
#     Edge 182, Type (0, 0), BuildingBlock: UVAHIK_clean_linker_0, # of connection points: 2
#     Edge 183, Type (0, 0), BuildingBlock: UVAHIK_clean_linker_0, # of connection points: 2
#     Edge 184, Type (0, 0), BuildingBlock: UVAHIK_clean_linker_0, # of connection points: 2
#     Edge 185, Type (0, 0), BuildingBlock: UVAHIK_clean_linker_0, # of connection points: 2
#     Edge 186, Type (0, 0), BuildingBlock: UVAHIK_clean_linker_0, # of connection points: 2
#     Edge 187, Type (0, 0), BuildingBlock: UVAHIK_clean_linker_0, # of connection points: 2
#     Edge 188, Type (0, 0), BuildingBlock: UVAHIK_clean_linker_0, # of connection points: 2
#     Edge 189, Type (0, 0), BuildingBlock: UVAHIK_clean_linker_0, # of connection points: 2
#     Edge 190, Type (0, 0), BuildingBlock: UVAHIK_clean_linker_0, # of connection points: 2
#     Edge 191, Type (0, 0), BuildingBlock: UVAHIK_clean_linker_0, # of connection points: 2
# Relax obj value: 0.410
# Max RMSD: 0.306
# Mean RMSD: 0.281
data_MOF--net-lcs-e--node1-MIFKUJ_clean_sbu_0--edge1-UVAHIK_clean_linker_0
_symmetry_space_group_name_H-M    P1
_symmetry_Int_Tables_number       1
_symmetry_cell_setting            triclinic
loop_
_symmetry_equiv_pos_as_xyz
'x, y, z'
_cell_length_a     73.412818
_cell_length_b     75.611708
_cell_length_c     76.04201
_cell_angle_alpha  87.490063
_cell_angle_beta   87.437949
_cell_angle_gamma 88.418696
loop_
_atom_site_label
_atom_site_type_symbol
_atom_site_fract_x
_atom_site_fract_y
_atom_site_fract_z
_atom_type_partial_charge
Zn0 Zn 0.03632 0.38668 0.23307 0.0
Zn1 Zn 0.01806 0.37256 0.27273 0.0
C2 C 0.01667 0.41882 0.22027 0.0
O3 O 0.02206 0.41381 0.20451 0.0
C4 C 0.03982 0.34326 0.2861 0.0
O5 O 0.02572 0.33426 0.28187 0.0
O6 O 0.05621 0.39135 0.2146 0.0
O7 O 0.04989 0.38587 0.25537 0.0
O8 O 0.02597 0.39773 0.26875 0.0
C9 C 0.06666 0.40364 0.21836 0.0
O10 O 0.06266 0.41276 0.23239 0.0
O11 O 0.01974 0.40862 0.23362 0.0
C12 C 0.98318 0.37182 0.29425 0.0
O13 O 0.97434 0.37519 0.27979 0.0
O14 O 0.00047 0.37095 0.29349 0.0
O15 O 0.0095 0.35727 0.25368 0.0
O16 O 0.02455 0.36376 0.2284 0.0
O17 O 0.03996 0.35981 0.28256 0.0
C18 C 0.04317 0.3965 0.2665 0.0
C19 C 0.0138 0.35392 0.23775 0.0
Zn20 Zn 0.87137 0.78474 0.50414 0.0
Zn21 Zn 0.87601 0.75823 0.5357 0.0
C22 C 0.84552 0.76712 0.48398 0.0
O23 O 0.85476 0.77444 0.4705 0.0
C24 C 0.90963 0.77073 0.54884 0.0
O25 O 0.91517 0.75419 0.54717 0.0
O26 O 0.87001 0.80586 0.4871 0.0
O27 O 0.86722 0.79441 0.52811 0.0
O28 O 0.85147 0.77105 0.5363 0.0
C29 C 0.85782 0.8176 0.49064 0.0
O30 O 0.84695 0.81519 0.50468 0.0
O31 O 0.85057 0.76928 0.49947 0.0
C32 C 0.88062 0.72451 0.55646 0.0
O33 O 0.88564 0.71717 0.54162 0.0
O34 O 0.87544 0.74068 0.55624 0.0
O35 O 0.88654 0.74662 0.51399 0.0
O36 O 0.89471 0.77152 0.49996 0.0
O37 O 0.89406 0.77558 0.54349 0.0
C38 C 0.85426 0.78745 0.53731 0.0
C39 C 0.8971 0.75499 0.50304 0.0
Zn40 Zn 0.46236 0.64503 0.74532 0.0
Zn41 Zn 0.4878 0.65117 0.7776 0.0
C42 C 0.4785 0.6144 0.72756 0.0
O43 O 0.46898 0.62065 0.71434 0.0
C44 C 0.4625 0.66305 0.80323 0.0
O45 O 0.46792 0.64764 0.81007 0.0
O46 O 0.44125 0.6436 0.7291 0.0
O47 O 0.45154 0.64168 0.76973 0.0
O48 O 0.47614 0.62704 0.77775 0.0
C49 C 0.42741 0.63489 0.7347 0.0
O50 O 0.42727 0.62734 0.75057 0.0
O51 O 0.47909 0.62345 0.74125 0.0
C52 C 0.51184 0.6654 0.79995 0.0
O53 O 0.50803 0.67915 0.78946 0.0
O54 O 0.50608 0.65034 0.79634 0.0
O55 O 0.49922 0.66305 0.75557 0.0
O56 O 0.47388 0.66875 0.7417 0.0
O57 O 0.46893 0.66818 0.78811 0.0
C58 C 0.45887 0.62876 0.77818 0.0
C59 C 0.48967 0.67326 0.7457 0.0
Zn60 Zn 0.61895 0.20539 0.98313 0.0
Zn61 Zn 0.61248 0.22748 0.01883 0.0
C62 C 0.65013 0.22151 0.96514 0.0
O63 O 0.6465 0.21089 0.95261 0.0
C64 C 0.60013 0.20005 0.04175 0.0
O65 O 0.61583 0.20366 0.04822 0.0
O66 O 0.62045 0.1865 0.96516 0.0
O67 O 0.62613 0.19277 0.00535 0.0
O68 O 0.6376 0.21606 0.01683 0.0
C69 C 0.6148 0.17113 0.96965 0.0
O70 O 0.60652 0.16855 0.98519 0.0
O71 O 0.63887 0.22292 0.97821 0.0
C72 C 0.59497 0.24697 0.04547 0.0
O73 O 0.58108 0.24044 0.03784 0.0
O74 O 0.61099 0.24436 0.0388 0.0
O75 O 0.60281 0.23982 0.99722 0.0
O76 O 0.59388 0.21599 0.98517 0.0
O77 O 0.59525 0.20834 0.02776 0.0
C78 C 0.63765 0.19943 0.01496 0.0
C79 C 0.59034 0.23146 0.99041 0.0
Zn80 Zn 0.98542 0.64108 0.23127 0.0
Zn81 Zn 0.03408 0.61152 0.24012 0.0
C82 C 0.96652 0.6728 0.24337 0.0
O83 O 0.95538 0.6696 0.23091 0.0
C84 C 0.05466 0.59808 0.21277 0.0
O85 O 0.06496 0.60986 0.21935 0.0
O86 O 0.97635 0.64659 0.20709 0.0
O87 O 0.01278 0.64161 0.22849 0.0
O88 O 0.04185 0.63541 0.22933 0.0
C89 C 0.98184 0.66064 0.19896 0.0
O90 O 0.99215 0.67134 0.20705 0.0
O91 O 0.97866 0.66116 0.24735 0.0
C92 C 0.06074 0.61389 0.26666 0.0
O93 O 0.05893 0.63104 0.26343 0.0
O94 O 0.0503 0.60349 0.25947 0.0
O95 O 0.0073 0.61464 0.24667 0.0
O96 O 0.97908 0.6154 0.23954 0.0
O97 O 0.03911 0.59504 0.22019 0.0
C98 C 0.029 0.64544 0.22382 0.0
C99 C 0.99319 0.60618 0.24364 0.0
Zn100 Zn 0.62163 0.74481 0.47688 0.0
Zn101 Zn 0.65276 0.7899 0.48291 0.0
C102 C 0.58712 0.72895 0.48594 0.0
O103 O 0.59242 0.71854 0.47321 0.0
C104 C 0.67352 0.79215 0.45002 0.0
O105 O 0.65843 0.78639 0.44387 0.0
O106 O 0.62195 0.73141 0.45463 0.0
O107 O 0.6216 0.77133 0.4703 0.0
O108 O 0.63115 0.79857 0.46913 0.0
C109 C 0.62266 0.73776 0.43887 0.0
O110 O 0.62362 0.75494 0.43581 0.0
O111 O 0.59809 0.74029 0.49088 0.0
C112 C 0.64266 0.81479 0.50975 0.0
O113 O 0.6258 0.81121 0.50634 0.0
O114 O 0.65578 0.80617 0.50243 0.0
O115 O 0.64678 0.76513 0.49028 0.0
O116 O 0.64486 0.7369 0.48957 0.0
O117 O 0.67491 0.79249 0.46659 0.0
C118 C 0.61957 0.78741 0.46497 0.0
C119 C 0.65461 0.75012 0.49187 0.0
Zn120 Zn 0.46484 0.39642 0.73846 0.0
Zn121 Zn 0.48042 0.3828 0.69881 0.0
C122 C 0.48633 0.4262 0.74721 0.0
O123 O 0.48119 0.42101 0.76335 0.0
C124 C 0.45034 0.37314 0.67964 0.0
O125 O 0.45606 0.38674 0.66977 0.0
O126 O 0.44665 0.4033 0.75773 0.0
O127 O 0.44861 0.39721 0.71836 0.0
O128 O 0.46987 0.4079 0.70037 0.0
C129 C 0.43857 0.41786 0.75345 0.0
O130 O 0.44435 0.42674 0.73914 0.0
O131 O 0.48281 0.4165 0.73458 0.0
C132 C 0.49714 0.36812 0.66819 0.0
O133 O 0.48707 0.35478 0.67385 0.0
O134 O 0.49736 0.38194 0.67711 0.0
O135 O 0.4927 0.36867 0.71862 0.0
O136 O 0.47474 0.37165 0.74257 0.0
O137 O 0.4588 0.36844 0.69336 0.0
C138 C 0.45309 0.40707 0.7051 0.0
C139 C 0.4864 0.36269 0.73355 0.0
Zn140 Zn 0.87689 0.24142 0.95715 0.0
Zn141 Zn 0.86183 0.20816 0.98187 0.0
C142 C 0.90342 0.25494 0.97968 0.0
O143 O 0.89904 0.27013 0.97171 0.0
C144 C 0.85052 0.1828 0.95933 0.0
O145 O 0.86465 0.17481 0.96645 0.0
O146 O 0.88658 0.25727 0.93739 0.0
O147 O 0.87934 0.21802 0.94664 0.0
O148 O 0.88786 0.20507 0.9714 0.0
C149 C 0.90279 0.25313 0.93219 0.0
O150 O 0.91176 0.24059 0.94095 0.0
O151 O 0.89407 0.24146 0.97712 0.0
C152 C 0.86881 0.17847 0.00667 0.0
O153 O 0.88443 0.17666 0.99773 0.0
O154 O 0.85818 0.19151 0.00292 0.0
O155 O 0.85094 0.2321 0.98838 0.0
O156 O 0.85079 0.24644 0.9627 0.0
O157 O 0.84577 0.19827 0.96396 0.0
C158 C 0.88854 0.20606 0.95465 0.0
C159 C 0.8425 0.24161 0.977 0.0
Zn160 Zn 0.26644 0.99345 0.38016 0.0
Zn161 Zn 0.24124 0.0273 0.39344 0.0
C162 C 0.25129 0.98185 0.34783 0.0
O163 O 0.25843 0.96646 0.35294 0.0
C164 C 0.26548 0.04994 0.40703 0.0
O165 O 0.25935 0.05943 0.39358 0.0
O166 O 0.28843 0.97753 0.37556 0.0
O167 O 0.27771 0.01681 0.38132 0.0
O168 O 0.25446 0.03037 0.36919 0.0
C169 C 0.29911 0.98288 0.36291 0.0
O170 O 0.29426 0.99692 0.35327 0.0
O171 O 0.25138 0.99464 0.35816 0.0
C172 C 0.21782 0.05 0.41207 0.0
O173 O 0.22385 0.03909 0.42456 0.0
O174 O 0.22213 0.04683 0.3961 0.0
O175 O 0.23046 0.00452 0.40413 0.0
O176 O 0.25448 0.98634 0.40354 0.0
O177 O 0.25977 0.0344 0.41029 0.0
C178 C 0.27163 0.02858 0.37062 0.0
C179 C 0.23959 0.99162 0.41099 0.0
Zn180 Zn 0.21263 0.97672 0.63339 0.0
Zn181 Zn 0.23056 0.0165 0.62113 0.0
C182 C 0.23383 0.96523 0.66405 0.0
O183 O 0.2277 0.94943 0.66149 0.0
C184 C 0.20202 0.04099 0.61409 0.0
O185 O 0.20747 0.04695 0.62889 0.0
O186 O 0.19424 0.95779 0.64016 0.0
O187 O 0.1972 0.99864 0.63536 0.0
O188 O 0.21958 0.01281 0.64595 0.0
C189 C 0.18526 0.96072 0.6545 0.0
O190 O 0.19022 0.97363 0.6641 0.0
O191 O 0.2309 0.97773 0.65269 0.0
C192 C 0.26201 0.03783 0.61044 0.0
O193 O 0.26704 0.02417 0.60112 0.0
O194 O 0.24798 0.03673 0.6208 0.0
O195 O 0.24067 0.99731 0.60509 0.0
O196 O 0.22252 0.97432 0.60846 0.0
O197 O 0.20999 0.02745 0.60771 0.0
C198 C 0.20273 0.00932 0.64621 0.0
C199 C 0.23428 0.98327 0.59934 0.0
Zn200 Zn 0.23954 0.96812 0.88399 0.0
Zn201 Zn 0.20155 0.98791 0.87324 0.0
C202 C 0.25583 0.98939 0.91045 0.0
O203 O 0.27133 0.98217 0.90469 0.0
C204 C 0.17461 0.96203 0.86992 0.0
O205 O 0.16706 0.97081 0.88301 0.0
O206 O 0.25765 0.94898 0.89003 0.0
O207 O 0.21613 0.95588 0.88946 0.0
O208 O 0.20543 0.98106 0.89886 0.0
C209 C 0.25603 0.94335 0.90599 0.0
O210 O 0.24393 0.95096 0.91666 0.0
O211 O 0.2415 0.98717 0.90204 0.0
C212 C 0.18235 0.02201 0.86772 0.0
O213 O 0.19813 0.02812 0.86175 0.0
O214 O 0.18138 0.00606 0.87343 0.0
O215 O 0.22111 0.99535 0.8546 0.0
O216 O 0.24329 0.97535 0.85853 0.0
O217 O 0.18996 0.96684 0.86324 0.0
C218 C 0.20609 0.9643 0.90035 0.0
C219 C 0.23541 0.9871 0.84891 0.0
Zn220 Zn 0.2602 0.97143 0.12917 0.0
Zn221 Zn 0.2899 0.99766 0.14163 0.0
C222 C 0.24226 0.98658 0.09839 0.0
O223 O 0.2286 0.97709 0.10484 0.0
C224 C 0.31382 0.97232 0.15547 0.0
O225 O 0.32421 0.98115 0.14382 0.0
O226 O 0.24563 0.94971 0.12628 0.0
O227 O 0.28614 0.96302 0.12731 0.0
O228 O 0.2946 0.98902 0.11648 0.0
C229 C 0.25229 0.93741 0.11689 0.0
O230 O 0.26852 0.93917 0.10914 0.0
O231 O 0.25631 0.98768 0.10746 0.0
C232 C 0.30926 0.01969 0.16231 0.0
O233 O 0.29675 0.01369 0.17376 0.0
O234 O 0.30861 0.0156 0.14631 0.0
O235 O 0.26546 0.00669 0.15165 0.0
O236 O 0.25277 0.98067 0.15291 0.0
O237 O 0.29718 0.97707 0.15763 0.0
C238 C 0.2959 0.97219 0.11644 0.0
C239 C 0.25486 0.99558 0.15951 0.0
Zn240 Zn 0.37562 0.27407 0.98432 0.0
Zn241 Zn 0.38635 0.25209 0.02782 0.0
C242 C 0.34689 0.25393 0.97181 0.0
O243 O 0.3537 0.25955 0.95636 0.0
C244 C 0.4035 0.27743 0.04739 0.0
O245 O 0.38643 0.28033 0.05257 0.0
O246 O 0.37018 0.29495 0.96786 0.0
O247 O 0.37644 0.28503 0.00817 0.0
O248 O 0.36414 0.26815 0.02956 0.0
C249 C 0.35494 0.3025 0.97183 0.0
O250 O 0.34416 0.29492 0.98401 0.0
O251 O 0.35494 0.25754 0.98556 0.0
C252 C 0.39779 0.22217 0.0486 0.0
O253 O 0.4127 0.22449 0.03868 0.0
O254 O 0.38354 0.23128 0.04498 0.0
O255 O 0.38939 0.24742 0.00234 0.0
O256 O 0.39973 0.26207 0.97913 0.0
O257 O 0.40731 0.26565 0.03629 0.0
C258 C 0.36406 0.28254 0.02022 0.0
C259 C 0.40296 0.25196 0.99241 0.0
Zn260 Zn 0.96998 0.88934 0.25029 0.0
Zn261 Zn 0.98989 0.87928 0.21112 0.0
C262 C 0.98902 0.92049 0.2607 0.0
O263 O 0.98293 0.91544 0.27658 0.0
C264 C 0.96668 0.86897 0.18446 0.0
O265 O 0.97539 0.88157 0.17544 0.0
O266 O 0.94948 0.89486 0.26791 0.0
O267 O 0.95582 0.88851 0.22855 0.0
O268 O 0.97757 0.90304 0.21463 0.0
C269 C 0.94071 0.90864 0.26246 0.0
O270 O 0.9475 0.918 0.24888 0.0
O271 O 0.98661 0.91058 0.24795 0.0
C272 C 0.01901 0.86972 0.1868 0.0
O273 O 0.01904 0.85488 0.19644 0.0
O274 O 0.00878 0.88258 0.19156 0.0
O275 O -0.00145 0.86218 0.23067 0.0
O276 O 0.98208 0.86576 0.25554 0.0
O277 O 0.97057 0.86537 0.20034 0.0
C278 C 0.96077 0.89975 0.21662 0.0
C279 C 0.99361 0.85687 0.24628 0.0
Zn280 Zn 0.11807 0.72209 0.48406 0.0
Zn281 Zn 0.10243 0.73546 0.53172 0.0
C282 C 0.15104 0.73874 0.47144 0.0
O283 O 0.14588 0.73389 0.45608 0.0
C284 C 0.07944 0.70607 0.54483 0.0
O285 O 0.08739 0.69696 0.53221 0.0
O286 O 0.12143 0.70339 0.46627 0.0
O287 O 0.11542 0.70799 0.50767 0.0
O288 O 0.12473 0.71998 0.53143 0.0
C289 C 0.13482 0.6927 0.46867 0.0
O290 O 0.1461 0.69573 0.48106 0.0
O291 O 0.14059 0.73608 0.48497 0.0
C292 C 0.09287 0.76728 0.54788 0.0
O293 O 0.07776 0.76466 0.53984 0.0
O294 O 0.1067 0.75734 0.54459 0.0
O295 O 0.09673 0.73866 0.50674 0.0
O296 O 0.09562 0.73731 0.47866 0.0
O297 O 0.08322 0.72226 0.5461 0.0
C298 C 0.12692 0.7085 0.51973 0.0
C299 C 0.08797 0.74196 0.49302 0.0
Zn300 Zn 0.97883 0.62386 0.73032 0.0
Zn301 Zn 0.95671 0.61139 0.77041 0.0
C302 C 0.9523 0.65057 0.71547 0.0
O303 O 0.95588 0.66094 0.72823 0.0
C304 C 0.97406 0.57834 0.78395 0.0
O305 O 0.96775 0.58328 0.79946 0.0
O306 O 0.00112 0.62396 0.71404 0.0
O307 O 0.98223 0.64009 0.7503 0.0
O308 O 0.96907 0.63362 0.77645 0.0
C309 C 0.00577 0.63967 0.70967 0.0
O310 O -0.00245 0.65284 0.71782 0.0
O311 O 0.96018 0.63545 0.71466 0.0
C312 C 0.92323 0.59717 0.78237 0.0
O313 O 0.92599 0.58944 0.76732 0.0
O314 O 0.93528 0.6073 0.78752 0.0
O315 O 0.9454 0.61347 0.74678 0.0
O316 O 0.96899 0.59951 0.73484 0.0
O317 O 0.97231 0.58883 0.77057 0.0
C318 C 0.97883 0.64367 0.76631 0.0
C319 C 0.95185 0.60209 0.73625 0.0
Zn320 Zn 0.11554 0.24321 0.46725 0.0
Zn321 Zn 0.12076 0.2137 0.49679 0.0
C322 C 0.09985 0.22213 0.44296 0.0
O323 O 0.11477 0.22735 0.4343 0.0
C324 C 0.1498 0.22775 0.51672 0.0
O325 O 0.141 0.22104 0.53078 0.0
O326 O 0.11641 0.26301 0.44867 0.0
O327 O 0.10497 0.25335 0.48985 0.0
O328 O 0.09816 0.22738 0.50246 0.0
C329 C 0.10093 0.26822 0.44333 0.0
O330 O 0.08612 0.26224 0.45163 0.0
O331 O 0.09653 0.22714 0.45852 0.0
C332 C 0.13272 0.18004 0.50928 0.0
O333 O 0.14429 0.18271 0.49585 0.0
O334 O 0.12071 0.19192 0.51276 0.0
O335 O 0.12485 0.20549 0.47225 0.0
O336 O 0.14002 0.22961 0.46538 0.0
O337 O 0.14288 0.22706 0.50179 0.0
C338 C 0.09536 0.24398 0.50082 0.0
C339 C 0.13824 0.21302 0.46423 0.0
Zn340 Zn 0.50677 0.34635 0.22115 0.0
Zn341 Zn 0.53005 0.35437 0.25399 0.0
C342 C 0.53369 0.33422 0.19751 0.0
O343 O 0.52678 0.34824 0.18918 0.0
C344 C 0.51251 0.38414 0.2719 0.0
O345 O 0.52239 0.37823 0.28499 0.0
O346 O 0.48934 0.34422 0.20181 0.0
O347 O 0.49456 0.33527 0.24318 0.0
O348 O 0.52021 0.32978 0.25632 0.0
C349 C 0.48688 0.32819 0.19832 0.0
O350 O 0.49334 0.31552 0.20886 0.0
O351 O 0.52752 0.33001 0.21296 0.0
C352 C 0.56633 0.35168 0.26676 0.0
O353 O 0.57004 0.34537 0.25114 0.0
O354 O 0.54991 0.35572 0.27125 0.0
O355 O 0.54217 0.3605 0.2306 0.0
O356 O 0.51669 0.37136 0.2198 0.0
O357 O 0.51203 0.375 0.25826 0.0
C358 C 0.50445 0.325 0.25262 0.0
C359 C 0.53389 0.37196 0.22103 0.0
Zn360 Zn 0.37829 0.76873 0.97703 0.0
Zn361 Zn 0.37141 0.78967 0.01429 0.0
C362 C 0.39024 0.7944 0.95255 0.0
O363 O 0.37388 0.79086 0.94757 0.0
C364 C 0.34095 0.76961 0.03044 0.0
O365 O 0.34574 0.77595 0.04532 0.0
O366 O 0.37687 0.75203 0.95727 0.0
O367 O 0.38852 0.75613 0.99837 0.0
O368 O 0.39625 0.77822 0.01425 0.0
C369 C 0.38587 0.73748 0.95642 0.0
O370 O 0.3942 0.73113 0.97036 0.0
O371 O 0.39621 0.78642 0.96629 0.0
C372 C 0.35239 0.81688 0.03072 0.0
O373 O 0.34065 0.81079 0.02008 0.0
O374 O 0.36767 0.80868 0.03223 0.0
O375 O 0.36737 0.80343 0.9918 0.0
O376 O 0.35409 0.78155 0.97977 0.0
O377 O 0.35092 0.77242 0.01658 0.0
C378 C 0.40004 0.7634 0.00754 0.0
C379 C 0.35493 0.79794 0.98251 0.0
Zn380 Zn 0.95537 0.38681 0.76585 0.0
Zn381 Zn 0.00453 0.35677 0.77109 0.0
C382 C 0.95361 0.40237 0.79958 0.0
O383 O 0.96041 0.38679 0.80454 0.0
C384 C 0.02074 0.32399 0.75965 0.0
O385 O 0.03212 0.32705 0.77195 0.0
O386 O 0.93684 0.39069 0.74741 0.0
O387 O 0.98129 0.38276 0.75704 0.0
O388 O 0.01018 0.38214 0.76166 0.0
C389 C 0.92074 0.38874 0.75399 0.0
O390 O 0.9185 0.38501 0.77098 0.0
O391 O 0.95192 0.40602 0.78325 0.0
C392 C 0.01192 0.35866 0.80817 0.0
O393 O -0.00161 0.3704 0.80839 0.0
O394 O 0.01699 0.35178 0.79375 0.0
O395 O 0.97761 0.35625 0.77701 0.0
O396 O 0.94881 0.36385 0.77899 0.0
O397 O 0.00926 0.33611 0.75523 0.0
C398 C 0.9957 0.39125 0.75873 0.0
C399 C 0.96152 0.35267 0.78244 0.0
Zn400 Zn 0.35152 0.21209 0.5101 0.0
Zn401 Zn 0.36951 0.25368 0.52938 0.0
C402 C 0.31668 0.19774 0.52179 0.0
O403 O 0.31462 0.19629 0.50484 0.0
C404 C 0.40403 0.26579 0.51433 0.0
O405 O 0.39733 0.28133 0.51882 0.0
O406 O 0.35192 0.19575 0.49015 0.0
O407 O 0.35415 0.23754 0.50392 0.0
O408 O 0.349 0.26312 0.51458 0.0
C409 C 0.35547 0.1798 0.49512 0.0
O410 O 0.35978 0.17637 0.51153 0.0
O411 O 0.33025 0.20602 0.52673 0.0
C412 C 0.38015 0.26372 0.5627 0.0
O413 O 0.39023 0.2492 0.56132 0.0
O414 O 0.37046 0.26894 0.54997 0.0
O415 O 0.36318 0.22913 0.5398 0.0
O416 O 0.3729 0.20639 0.52473 0.0
O417 O 0.39417 0.25228 0.51681 0.0
C418 C 0.34286 0.25006 0.50712 0.0
C419 C 0.37403 0.21583 0.53801 0.0
Zn420 Zn 0.51273 0.61622 0.30373 0.0
Zn421 Zn 0.52402 0.60284 0.26108 0.0
C422 C 0.54231 0.62158 0.32688 0.0
O423 O 0.53561 0.60764 0.33553 0.0
C424 C 0.50266 0.57262 0.2528 0.0
O425 O 0.50672 0.57822 0.23653 0.0
O426 O 0.49358 0.61579 0.32354 0.0
O427 O 0.50553 0.63397 0.2844 0.0
O428 O 0.5129 0.62722 0.25688 0.0
C429 C 0.49421 0.62777 0.33468 0.0
O430 O 0.50598 0.64047 0.332 0.0
O431 O 0.53489 0.62737 0.31293 0.0
C432 C 0.54959 0.5821 0.24387 0.0
O433 O 0.54464 0.57231 0.25788 0.0
O434 O 0.54137 0.5969 0.24097 0.0
O435 O 0.54152 0.60195 0.2804 0.0
O436 O 0.52092 0.59121 0.29899 0.0
O437 O 0.50679 0.58214 0.26537 0.0
C438 C 0.50612 0.63798 0.26795 0.0
C439 C 0.53744 0.59172 0.29351 0.0
Zn440 Zn 0.12724 0.79322 0.02051 0.0
Zn441 Zn 0.11413 0.75929 0.04372 0.0
C442 C 0.13769 0.81576 0.04704 0.0
O443 O 0.1246 0.82563 0.04015 0.0
C444 C 0.08706 0.74385 0.02294 0.0
O445 O 0.09194 0.72908 0.03142 0.0
O446 O 0.13017 0.81342 0.00258 0.0
O447 O 0.1407 0.77145 0.01123 0.0
O448 O 0.14015 0.75523 0.03605 0.0
C449 C 0.14517 0.82145 0.00209 0.0
O450 O 0.15866 0.81499 0.01137 0.0
O451 O 0.14141 0.80061 0.04098 0.0
C452 C 0.09203 0.74677 0.07191 0.0
O453 O 0.08267 0.76069 0.06605 0.0
O454 O 0.10682 0.74228 0.06374 0.0
O455 O 0.10984 0.78272 0.05409 0.0
O456 O 0.10058 0.794 0.02902 0.0
O457 O 0.09606 0.7577 0.02477 0.0
C458 C 0.1483 0.76016 0.02166 0.0
C459 C 0.09962 0.79361 0.04574 0.0
Zn460 Zn 0.74907 0.97183 0.60465 0.0
Zn461 Zn 0.72289 0.00304 0.61697 0.0
C462 C 0.72249 0.95021 0.59221 0.0
O463 O 0.73033 0.93937 0.60369 0.0
C464 C 0.73859 0.01791 0.64776 0.0
O465 O 0.72873 0.0321 0.64353 0.0
O466 O 0.76745 0.95207 0.6009 0.0
O467 O 0.75983 0.99416 0.59345 0.0
O468 O 0.73334 0.00832 0.59244 0.0
C469 C 0.76938 0.94679 0.58529 0.0
O470 O 0.76128 0.95573 0.57252 0.0
O471 O 0.72827 0.96581 0.58961 0.0
C472 C 0.69057 0.01551 0.634 0.0
O473 O 0.69579 0.00295 0.64529 0.0
O474 O 0.7008 0.01907 0.62046 0.0
O475 O 0.71283 0.97882 0.62085 0.0
O476 O 0.73923 0.96895 0.63019 0.0
O477 O 0.73975 0.00525 0.63727 0.0
C478 C 0.74907 0.00498 0.58556 0.0
C479 C 0.7219 0.96892 0.63134 0.0
Zn480 Zn 0.76139 0.98412 0.37583 0.0
Zn481 Zn 0.78131 0.02182 0.36251 0.0
C482 C 0.78841 0.95844 0.38364 0.0
O483 O 0.78219 0.9526 0.3691 0.0
C484 C 0.76041 0.03635 0.33335 0.0
O485 O 0.76822 0.05106 0.33712 0.0
O486 O 0.74339 0.96459 0.37675 0.0
O487 O 0.75107 0.00445 0.39042 0.0
O488 O 0.77316 0.02384 0.3878 0.0
C489 C 0.73675 0.95946 0.39176 0.0
O490 O 0.73968 0.96878 0.4055 0.0
O491 O 0.7817 0.97276 0.38963 0.0
C492 C 0.80829 0.03731 0.34059 0.0
O493 O 0.80211 0.02505 0.33085 0.0
O494 O 0.80048 0.0398 0.35559 0.0
O495 O 0.79543 -0.00058 0.35965 0.0
O496 O 0.77162 0.98631 0.35054 0.0
O497 O 0.76205 0.02285 0.34383 0.0
C498 C 0.76019 0.01657 0.39679 0.0
C499 C 0.78868 0.98883 0.34945 0.0
Zn500 Zn 0.78942 0.01631 0.1274 0.0
Zn501 Zn 0.74162 0.025 0.11285 0.0
C502 C 0.818 0.0406 0.12996 0.0
O503 O 0.82623 0.02926 0.11946 0.0
C504 C 0.72798 0.00512 0.08464 0.0
O505 O 0.71228 0.01192 0.09043 0.0
O506 O 0.80543 0.9951 0.1329 0.0
O507 O 0.7654 0.01534 0.13976 0.0
O508 O 0.73593 0.01672 0.13866 0.0
C509 C 0.81492 0.99579 0.1464 0.0
O510 O 0.81247 0.00918 0.15676 0.0
O511 O 0.80159 0.03804 0.13522 0.0
C512 C 0.72825 0.05164 0.09123 0.0
O513 O 0.7415 0.04442 0.08157 0.0
O514 O 0.72371 0.04432 0.10609 0.0
O515 O 0.76512 0.03897 0.10941 0.0
O516 O 0.78682 0.02011 0.10164 0.0
O517 O 0.74203 0.00701 0.09357 0.0
C518 C 0.74998 0.01471 0.14776 0.0
C519 C 0.77796 0.03445 0.09857 0.0
Zn520 Zn 0.7028 0.00141 0.85461 0.0
Zn521 Zn 0.73808 0.02432 0.86475 0.0
C522 C 0.67442 0.02345 0.84334 0.0
O523 O 0.66654 0.01412 0.85639 0.0
C524 C 0.75164 0.00766 0.89708 0.0
O525 O 0.76681 0.01539 0.89166 0.0
O526 O 0.68472 0.98184 0.85518 0.0
O527 O 0.7255 0.99303 0.84035 0.0
O528 O 0.74568 0.01398 0.84182 0.0
C529 C 0.68331 0.97454 0.84058 0.0
O530 O 0.69482 0.97867 0.82742 0.0
O531 O 0.69106 0.02019 0.83909 0.0
C532 C 0.74873 0.05546 0.87978 0.0
O533 O 0.73327 0.05258 0.88866 0.0
O534 O 0.75448 0.04447 0.8685 0.0
O535 O 0.71358 0.03601 0.86371 0.0
O536 O 0.70147 0.0134 0.87827 0.0
O537 O 0.73829 0.00816 0.88693 0.0
C538 C 0.73965 0.0009 0.83417 0.0
C539 C 0.70218 0.03007 0.87534 0.0
Zn540 Zn 0.60709 0.74564 0.97026 0.0
Zn541 Zn 0.61886 0.72767 0.01442 0.0
C542 C 0.59108 0.72242 0.94962 0.0
O543 O 0.60772 0.72404 0.94277 0.0
C544 C 0.64785 0.74887 0.02414 0.0
O545 O 0.64091 0.74503 0.04003 0.0
O546 O 0.61002 0.76484 0.95132 0.0
O547 O 0.60432 0.75343 0.99466 0.0
O548 O 0.59502 0.74019 0.01895 0.0
C549 C 0.59568 0.77355 0.94721 0.0
O550 O 0.58069 0.77146 0.95708 0.0
O551 O 0.58626 0.73117 0.96302 0.0
C552 C 0.63725 0.69944 0.03067 0.0
O553 O 0.64771 0.70295 0.01654 0.0
O554 O 0.62358 0.70961 0.03396 0.0
O555 O 0.61835 0.71274 0.99274 0.0
O556 O 0.62897 0.72902 0.96979 0.0
O557 O 0.6398 0.74379 0.01093 0.0
C558 C 0.59118 0.74945 0.00532 0.0
C559 C 0.62884 0.71453 0.97898 0.0
Zn560 Zn 0.00493 0.11496 0.78692 0.0
Zn561 Zn 0.01958 0.10554 0.74696 0.0
C562 C 0.0364 0.12137 0.80555 0.0
O563 O 0.02959 0.10793 0.81493 0.0
C564 C -0.00375 0.07754 0.73585 0.0
O565 O 0.0018 0.08269 0.71982 0.0
O566 O 0.98938 0.11537 0.8094 0.0
O567 O 0.99171 0.13079 0.76911 0.0
O568 O 0.0105 0.1308 0.74557 0.0
C569 C 0.99054 0.12874 0.81881 0.0
O570 O 0.00087 0.14189 0.81315 0.0
O571 O 0.02812 0.12723 0.79208 0.0
C572 C 0.0442 0.08494 0.72788 0.0
O573 O 0.0371 0.07354 0.73961 0.0
O574 O 0.03776 0.10072 0.72708 0.0
O575 O 0.03527 0.1002 0.76709 0.0
O576 O 0.01265 0.08944 0.78335 0.0
O577 O 0.00027 0.08673 0.74868 0.0
C578 C -0.00181 0.13842 0.75503 0.0
C579 C 0.02943 0.08881 0.77854 0.0
Zn580 Zn 0.88751 0.25689 0.47048 0.0
Zn581 Zn 0.87769 0.28257 0.50384 0.0
C582 C 0.89733 0.27527 0.43882 0.0
O583 O 0.88329 0.26641 0.43422 0.0
C584 C 0.84589 0.26517 0.52099 0.0
O585 O 0.85046 0.27261 0.5354 0.0
O586 O 0.88545 0.2361 0.45515 0.0
O587 O 0.90385 0.24962 0.49074 0.0
O588 O 0.90057 0.27046 0.51021 0.0
C589 C 0.90096 0.23032 0.44956 0.0
O590 O 0.9155 0.23537 0.45727 0.0
O591 O 0.90232 0.27373 0.45463 0.0
C592 C 0.86475 0.31639 0.51545 0.0
O593 O 0.8572 0.3172 0.50009 0.0
O594 O 0.87402 0.30265 0.52 0.0
O595 O 0.87796 0.29301 0.47922 0.0
O596 O 0.86295 0.26987 0.47234 0.0
O597 O 0.85607 0.26689 0.50712 0.0
C598 C 0.90889 0.25686 0.50446 0.0
C599 C 0.86533 0.28646 0.47094 0.0
Zn600 Zn 0.5284 0.89209 0.7277 0.0
Zn601 Zn 0.50935 0.869 0.77176 0.0
C602 C 0.51014 0.9233 0.71308 0.0
O603 O 0.51972 0.91893 0.69884 0.0
C604 C 0.54076 0.85694 0.79001 0.0
O605 O 0.5387 0.87303 0.79568 0.0
O606 O 0.55145 0.89832 0.71364 0.0
O607 O 0.5367 0.88885 0.75293 0.0
O608 O 0.51816 0.89342 0.77569 0.0
C609 C 0.55905 0.9123 0.71798 0.0
O610 O 0.55073 0.92216 0.72984 0.0
O611 O 0.51051 0.91293 0.72669 0.0
C612 C 0.48721 0.84848 0.79558 0.0
O613 O 0.49902 0.83633 0.79016 0.0
O614 O 0.48744 0.86385 0.78805 0.0
O615 O 0.50576 0.87096 0.74609 0.0
O616 O 0.51907 0.8684 0.72049 0.0
O617 O 0.52997 0.85173 0.77875 0.0
C618 C 0.53151 0.89852 0.76562 0.0
C619 C 0.51087 0.861 0.73376 0.0
Zn620 Zn 0.97031 0.14063 0.2404 0.0
Zn621 Zn 0.9953 0.14988 0.27187 0.0
C622 C 0.98486 0.10711 0.22673 0.0
O623 O 0.97434 0.11116 0.21354 0.0
C624 C 0.97071 0.16503 0.29617 0.0
O625 O 0.97814 0.15208 0.30568 0.0
O626 O 0.94983 0.13895 0.22374 0.0
O627 O 0.95882 0.13912 0.26472 0.0
O628 O 0.98365 0.12569 0.27397 0.0
C629 C 0.93316 0.13967 0.22904 0.0
O630 O 0.92894 0.14208 0.24574 0.0
O631 O 0.98653 0.11835 0.2385 0.0
C632 C 0.01875 0.16541 0.29462 0.0
O633 O 0.01494 0.1791 0.28405 0.0
O634 O 0.01317 0.15028 0.29102 0.0
O635 O 0.00732 0.16082 0.24961 0.0
O636 O 0.98263 0.16347 0.23418 0.0
O637 O 0.9757 0.16733 0.28005 0.0
C638 C 0.96637 0.12737 0.2745 0.0
C639 C -0.00183 0.16892 0.23777 0.0
Zn640 Zn 0.47353 0.14396 0.72628 0.0
Zn641 Zn 0.52202 0.11221 0.72548 0.0
C642 C 0.45708 0.17698 0.73846 0.0
O643 O 0.44387 0.17298 0.72835 0.0
C644 C 0.52721 0.09761 0.69122 0.0
O645 O 0.52149 0.11347 0.68586 0.0
O646 O 0.4599 0.14765 0.70418 0.0
O647 O 0.50037 0.14472 0.71773 0.0
O648 O 0.52877 0.13533 0.71367 0.0
C649 C 0.46421 0.16111 0.69449 0.0
O650 O 0.47594 0.17215 0.70015 0.0
O651 O 0.4697 0.16547 0.74138 0.0
C652 C 0.54441 0.11974 0.75418 0.0
O653 O 0.53642 0.1355 0.75338 0.0
O654 O 0.53922 0.1077 0.74457 0.0
O655 O 0.4962 0.11604 0.73363 0.0
O656 O 0.46704 0.1189 0.737 0.0
O657 O 0.52684 0.09357 0.70765 0.0
C658 C 0.51644 0.14721 0.71136 0.0
C659 C 0.48109 0.1087 0.73642 0.0
Zn660 Zn 0.12377 0.24176 0.95471 0.0
Zn661 Zn 0.13435 0.27704 0.97355 0.0
C662 C 0.0935 0.22632 0.97583 0.0
O663 O 0.09841 0.21164 0.96808 0.0
C664 C 0.14762 0.2969 0.94391 0.0
O665 O 0.13226 0.30547 0.94779 0.0
O666 O 0.12112 0.22392 0.9364 0.0
O667 O 0.11955 0.26448 0.9414 0.0
O668 O 0.10856 0.27821 0.9645 0.0
C669 C 0.10665 0.22555 0.92786 0.0
O670 O 0.09407 0.23727 0.9327 0.0
O671 O 0.10333 0.23985 0.97328 0.0
C672 C 0.15426 0.30244 0.98927 0.0
O673 O 0.16724 0.29225 0.98238 0.0
O674 O 0.13773 0.29802 0.98851 0.0
O675 O 0.14477 0.25544 0.98667 0.0
O676 O 0.14862 0.23923 0.96347 0.0
O677 O 0.15151 0.2827 0.95267 0.0
C678 C 0.10794 0.27516 0.94821 0.0
C679 C 0.15438 0.2445 0.97775 0.0
Zn680 Zn 0.37699 0.74709 0.46132 0.0
Zn681 Zn 0.36445 0.71551 0.48589 0.0
C682 C 0.39933 0.76393 0.48565 0.0
O683 O 0.39373 0.77847 0.4772 0.0
C684 C 0.35305 0.68939 0.46441 0.0
O685 O 0.36479 0.68075 0.47436 0.0
O686 O 0.3855 0.76378 0.44196 0.0
O687 O 0.38222 0.72373 0.45123 0.0
O688 O 0.39083 0.71268 0.47668 0.0
C689 C 0.4025 0.76285 0.43814 0.0
O690 O 0.41303 0.75258 0.44796 0.0
O691 O 0.39244 0.74931 0.48224 0.0
C692 C 0.34407 0.69658 0.51166 0.0
O693 O 0.3319 0.70846 0.50634 0.0
O694 O 0.36047 0.69785 0.50585 0.0
O695 O 0.35223 0.73879 0.49298 0.0
O696 O 0.35077 0.7508 0.46632 0.0
O697 O 0.34986 0.70575 0.46678 0.0
C698 C 0.39154 0.7124 0.45996 0.0
C699 C 0.34334 0.74759 0.48142 0.0
Zn700 Zn 0.76628 0.49659 0.89328 0.0
Zn701 Zn 0.74175 0.53208 0.90641 0.0
C702 C 0.75057 0.48576 0.86073 0.0
O703 O 0.75792 0.47024 0.86511 0.0
C704 C 0.76587 0.55734 0.91738 0.0
O705 O 0.76081 0.56488 0.90243 0.0
O706 O 0.78799 0.48045 0.88813 0.0
O707 O 0.77787 0.52 0.89514 0.0
O708 O 0.75462 0.53263 0.88222 0.0
C709 C 0.79788 0.48565 0.87484 0.0
O710 O 0.7925 0.49968 0.86545 0.0
O711 O 0.75108 0.49821 0.87143 0.0
C712 C 0.71391 0.55291 0.92153 0.0
O713 O 0.71804 0.54201 0.93477 0.0
O714 O 0.72162 0.55056 0.90649 0.0
O715 O 0.73266 0.50991 0.91968 0.0
O716 O 0.75315 0.48823 0.91567 0.0
O717 O 0.7595 0.54241 0.92241 0.0
C718 C 0.77173 0.53125 0.88393 0.0
C719 C 0.73933 0.4947 0.92404 0.0
Zn720 Zn 0.72213 0.47517 0.14603 0.0
Zn721 Zn 0.72942 0.5216 0.13042 0.0
C722 C 0.74605 0.46372 0.17437 0.0
O723 O 0.74221 0.44766 0.17001 0.0
C724 C 0.70654 0.5421 0.10759 0.0
O725 O 0.71865 0.53602 0.09601 0.0
O726 O 0.70526 0.45521 0.15303 0.0
O727 O 0.7046 0.49546 0.14996 0.0
O728 O 0.72463 0.51506 0.1559 0.0
C729 C 0.69792 0.45655 0.16841 0.0
O730 O 0.7043 0.46817 0.17876 0.0
O731 O 0.7411 0.47685 0.1645 0.0
C732 C 0.75861 0.53981 0.11188 0.0
O733 O 0.75511 0.52886 0.09961 0.0
O734 O 0.75074 0.53785 0.12704 0.0
O735 O 0.73083 0.502 0.11299 0.0
O736 O 0.73024 0.47329 0.12033 0.0
O737 O 0.70792 0.53741 0.12373 0.0
C738 C 0.70898 0.50857 0.15856 0.0
C739 C 0.73152 0.4859 0.10872 0.0
Zn740 Zn 0.75787 0.47234 0.39701 0.0
Zn741 Zn 0.70928 0.47987 0.36883 0.0
C742 C 0.7734 0.49086 0.42591 0.0
O743 O 0.78834 0.48144 0.42248 0.0
C744 C 0.68454 0.46638 0.3458 0.0
O745 O 0.67485 0.47974 0.35205 0.0
O746 O 0.77184 0.45015 0.4039 0.0
O747 O 0.73079 0.46648 0.39918 0.0
O748 O 0.70228 0.46676 0.39145 0.0
C749 C 0.769 0.44301 0.41918 0.0
O750 O 0.75772 0.45084 0.43046 0.0
O751 O 0.76024 0.49039 0.41563 0.0
C752 C 0.68535 0.50835 0.38027 0.0
O753 O 0.6838 0.49834 0.39478 0.0
O754 O 0.69636 0.50361 0.36786 0.0
O755 O 0.7361 0.48159 0.36967 0.0
O756 O 0.7653 0.47974 0.37106 0.0
O757 O 0.70102 0.46421 0.35009 0.0
C758 C 0.71439 0.46182 0.40219 0.0
C759 C 0.75149 0.48187 0.3616 0.0
Zn760 Zn 0.77622 0.50437 0.64447 0.0
Zn761 Zn 0.75734 0.46673 0.63262 0.0
C762 C 0.75573 0.51834 0.67473 0.0
O763 O 0.7637 0.53313 0.66955 0.0
C764 C 0.78654 0.44213 0.62596 0.0
O765 O 0.77845 0.43407 0.63971 0.0
O766 O 0.79609 0.52121 0.64935 0.0
O767 O 0.78914 0.48103 0.64676 0.0
O768 O 0.76438 0.46883 0.65787 0.0
C769 C 0.80506 0.51626 0.66272 0.0
O770 O 0.79981 0.50232 0.67234 0.0
O771 O 0.75741 0.5051 0.66495 0.0
C772 C 0.74001 0.43902 0.61747 0.0
O773 O 0.75058 0.44489 0.60422 0.0
O774 O 0.73942 0.4471 0.63181 0.0
O775 O 0.74846 0.48724 0.61678 0.0
O776 O 0.76737 0.50916 0.62 0.0
O777 O 0.78006 0.45692 0.62017 0.0
C778 C 0.78159 0.47014 0.65773 0.0
C779 C 0.75563 0.5017 0.61121 0.0
Zn780 Zn 0.48271 0.13396 0.22406 0.0
Zn781 Zn 0.46329 0.10639 0.26861 0.0
C782 C 0.44856 0.15379 0.21709 0.0
O783 O 0.44036 0.13958 0.22354 0.0
C784 C 0.48196 0.07377 0.28221 0.0
O785 O 0.47901 0.0803 0.29784 0.0
O786 O 0.50518 0.13716 0.20808 0.0
O787 O 0.48675 0.1282 0.24976 0.0
O788 O 0.47646 0.1281 0.27687 0.0
C789 C 0.50843 0.15302 0.20288 0.0
O790 O 0.49958 0.16603 0.21069 0.0
O791 O 0.46569 0.15488 0.21847 0.0
C792 C 0.431 0.08897 0.28159 0.0
O793 O 0.4388 0.07596 0.27288 0.0
O794 O 0.43928 0.10347 0.28219 0.0
O795 O 0.45765 0.11342 0.24339 0.0
O796 O 0.46992 0.11218 0.21693 0.0
O797 O 0.47748 0.08298 0.2686 0.0
C798 C 0.48389 0.1366 0.26372 0.0
C799 C 0.46013 0.10499 0.22935 0.0
Zn800 Zn -0.00227 0.85021 0.72421 0.0
Zn801 Zn 0.02239 0.85818 0.75955 0.0
C802 C 0.02681 0.82404 0.712 0.0
O803 O 0.03224 0.82111 0.72812 0.0
C804 C 0.00585 0.89137 0.7716 0.0
O805 O 0.01435 0.88713 0.78609 0.0
O806 O 0.9768 0.85417 0.70809 0.0
O807 O 0.99027 0.83419 0.74535 0.0
O808 O 0.00954 0.83592 0.76673 0.0
C809 C 0.96734 0.84065 0.70595 0.0
O810 O 0.96939 0.82671 0.71667 0.0
O811 O 0.01365 0.83484 0.70901 0.0
C812 C 0.05872 0.85919 0.77341 0.0
O813 O 0.06416 0.85364 0.75786 0.0
O814 O 0.04176 0.86149 0.77703 0.0
O815 O 0.0354 0.85765 0.73586 0.0
O816 O 0.0124 0.87261 0.7246 0.0
O817 O 0.00614 0.8804 0.75938 0.0
C818 C -0.00371 0.82857 0.76006 0.0
C819 C 0.02943 0.8691 0.72473 0.0
Zn820 Zn 0.47464 0.88058 0.26815 0.0
Zn821 Zn 0.52415 0.85151 0.27639 0.0
C822 C 0.45516 0.89315 0.2983 0.0
O823 O 0.44826 0.87745 0.29716 0.0
C824 C 0.54314 0.82078 0.26168 0.0
O825 O 0.55553 0.82384 0.27304 0.0
O826 O 0.45899 0.8853 0.24769 0.0
O827 O 0.50124 0.8772 0.26302 0.0
O828 O 0.52964 0.87761 0.26892 0.0
C829 C 0.4512 0.90044 0.24617 0.0
O830 O 0.45645 0.91324 0.25576 0.0
O831 O 0.46764 0.89815 0.28714 0.0
C832 C 0.53209 0.8303 0.30699 0.0
O833 O 0.52306 0.8188 0.29854 0.0
O834 O 0.53515 0.84543 0.29967 0.0
O835 O 0.49676 0.84859 0.28087 0.0
O836 O 0.46797 0.8567 0.27835 0.0
O837 O 0.53061 0.83243 0.25903 0.0
C838 C 0.51511 0.88623 0.26516 0.0
C839 C 0.47993 0.84586 0.28428 0.0
Zn840 Zn 0.86167 0.71789 0.02506 0.0
Zn841 Zn 0.86774 0.74832 0.04921 0.0
C842 C 0.84848 0.69397 0.05156 0.0
O843 O 0.86376 0.68598 0.04637 0.0
C844 C 0.89773 0.76692 0.03065 0.0
O845 O 0.89424 0.77915 0.04217 0.0
O846 O 0.8599 0.69873 0.00777 0.0
O847 O 0.85012 0.74025 0.01421 0.0
O848 O 0.84277 0.74926 0.04063 0.0
C849 C 0.84392 0.69692 0.00242 0.0
O850 O 0.83106 0.7085 0.00692 0.0
O851 O 0.84429 0.70903 0.0446 0.0
C852 C 0.86472 0.76127 0.08398 0.0
O853 O 0.86124 0.74463 0.08813 0.0
O854 O 0.86793 0.76609 0.06795 0.0
O855 O 0.87593 0.72516 0.06017 0.0
O856 O 0.88735 0.71706 0.03442 0.0
O857 O 0.88706 0.75401 0.03023 0.0
C858 C 0.83888 0.748 0.02468 0.0
C859 C 0.88819 0.71711 0.05109 0.0
Zn860 Zn 0.63493 0.28541 0.51641 0.0
Zn861 Zn 0.62113 0.25439 0.53994 0.0
C862 C 0.64424 0.30927 0.54153 0.0
O863 O 0.6314 0.31824 0.53324 0.0
C864 C 0.59449 0.23885 0.51835 0.0
O865 O 0.59811 0.22431 0.52779 0.0
O866 O 0.63974 0.30446 0.49814 0.0
O867 O 0.64739 0.26282 0.50793 0.0
O868 O 0.64726 0.24896 0.53394 0.0
C869 C 0.6564 0.3079 0.49492 0.0
O870 O 0.66901 0.29721 0.50153 0.0
O871 O 0.64887 0.29382 0.53674 0.0
C872 C 0.5964 0.24285 0.56576 0.0
O873 O 0.58735 0.25569 0.55752 0.0
O874 O 0.61228 0.23842 0.5599 0.0
O875 O 0.61649 0.27822 0.54963 0.0
O876 O 0.60799 0.28789 0.52372 0.0
O877 O 0.60416 0.25232 0.51996 0.0
C878 C 0.65502 0.25221 0.51895 0.0
C879 C 0.60621 0.28822 0.54039 0.0
Zn880 Zn 0.25012 0.46418 0.09259 0.0
Zn881 Zn 0.22313 0.4965 0.1037 0.0
C882 C 0.22625 0.44084 0.07834 0.0
O883 O 0.23104 0.43189 0.09267 0.0
C884 C 0.23906 0.50943 0.13522 0.0
O885 O 0.22986 0.52408 0.13118 0.0
O886 O 0.26987 0.44554 0.09145 0.0
O887 O 0.26038 0.48754 0.08315 0.0
O888 O 0.23422 0.50178 0.07969 0.0
C889 C 0.2777 0.44364 0.0764 0.0
O890 O 0.27414 0.45524 0.06355 0.0
O891 O 0.23273 0.45608 0.07488 0.0
C892 C 0.1903 0.50653 0.12061 0.0
O893 O 0.1949 0.49195 0.12953 0.0
O894 O 0.20114 0.51255 0.10841 0.0
O895 O 0.21261 0.47246 0.10436 0.0
O896 O 0.23701 0.46129 0.11667 0.0
O897 O 0.23962 0.49691 0.12453 0.0
C898 C 0.2502 0.49772 0.07388 0.0
C899 C 0.21981 0.46168 0.11538 0.0
Zn900 Zn 0.25864 0.47732 0.87827 0.0
Zn901 Zn 0.27214 0.52281 0.85436 0.0
C902 C 0.29187 0.46056 0.88918 0.0
O903 O 0.29143 0.45492 0.87314 0.0
C904 C 0.25767 0.53604 0.82151 0.0
O905 O 0.26651 0.55012 0.82543 0.0
O906 O 0.23905 0.4597 0.88433 0.0
O907 O 0.2513 0.50281 0.87641 0.0
O908 O 0.26008 0.52961 0.87796 0.0
C909 C 0.23944 0.45211 0.89958 0.0
O910 O 0.24997 0.45833 0.91125 0.0
O911 O 0.27959 0.47156 0.8945 0.0
C912 C 0.30449 0.53296 0.83611 0.0
O913 O 0.29932 0.52028 0.82632 0.0
O914 O 0.29417 0.53764 0.84903 0.0
O915 O 0.28295 0.49784 0.85814 0.0
O916 O 0.26871 0.47359 0.85374 0.0
O917 O 0.25655 0.52315 0.83282 0.0
C918 C 0.2544 0.5156 0.88596 0.0
C919 C 0.28032 0.48501 0.84836 0.0
Zn920 Zn 0.28688 0.52108 0.61979 0.0
Zn921 Zn 0.23698 0.5251 0.60218 0.0
C922 C 0.30783 0.5512 0.6263 0.0
O923 O 0.31404 0.54843 0.61015 0.0
C924 C 0.22749 0.5033 0.57343 0.0
O925 O 0.21072 0.50737 0.57887 0.0
O926 O 0.30498 0.50114 0.62201 0.0
O927 O 0.26112 0.51641 0.62623 0.0
O928 O 0.23197 0.51454 0.62759 0.0
C929 C 0.30413 0.48516 0.61775 0.0
O930 O 0.28896 0.47923 0.61196 0.0
O931 O 0.29568 0.54117 0.63333 0.0
C932 C 0.22073 0.54985 0.58011 0.0
O933 O 0.23483 0.54384 0.57071 0.0
O934 O 0.21719 0.54264 0.59526 0.0
O935 O 0.25938 0.54102 0.60067 0.0
O936 O 0.28643 0.5292 0.59475 0.0
O937 O 0.24064 0.50774 0.58253 0.0
C938 C 0.2468 0.5135 0.6356 0.0
C939 C 0.27297 0.53883 0.58987 0.0
Zn940 Zn 0.23951 0.53857 0.36423 0.0
Zn941 Zn 0.21902 0.49924 0.35219 0.0
C942 C 0.20321 0.54572 0.38202 0.0
O943 O 0.20321 0.52903 0.3876 0.0
C944 C 0.23555 0.48224 0.32146 0.0
O945 O 0.22488 0.46917 0.32661 0.0
O946 O 0.25874 0.55656 0.36663 0.0
O947 O 0.24385 0.51831 0.3819 0.0
O948 O 0.2287 0.4942 0.37661 0.0
C949 C 0.25772 0.56359 0.38153 0.0
O950 O 0.24603 0.55737 0.3937 0.0
O951 O 0.2166 0.55152 0.37252 0.0
C952 C 0.18339 0.49077 0.34125 0.0
O953 O 0.184 0.50723 0.33513 0.0
O954 O 0.19694 0.484 0.34927 0.0
O955 O 0.21019 0.52419 0.348 0.0
O956 O 0.23614 0.5353 0.33858 0.0
O957 O 0.2368 0.49523 0.33139 0.0
C958 C 0.23873 0.50275 0.38635 0.0
C959 C 0.2194 0.53296 0.33631 0.0
C960 C 0.00413 0.44816 0.20875 0.0
C961 C 0.01064 0.43745 0.22284 0.0
C962 C 0.00062 0.46631 0.21069 0.0
C963 C 0.01765 0.50346 0.23015 0.0
H964 H 0.96977 0.52641 0.23123 0.0
C965 C 0.0082 0.57638 0.24868 0.0
C966 C 0.9943 0.58684 0.24107 0.0
C967 C 0.00955 0.55818 0.2461 0.0
C968 C 0.9833 0.52035 0.23063 0.0
H969 H 0.01829 0.4374 0.2501 0.0
H970 H 0.01264 0.46914 0.25323 0.0
H971 H 0.97275 0.49458 0.2269 0.0
H972 H 0.97098 0.58644 0.22461 0.0
H973 H 0.97372 0.55488 0.21949 0.0
H974 H 0.02848 0.52902 0.23315 0.0
C975 C 0.01 0.46338 0.24082 0.0
C976 C 0.98493 0.50208 0.22828 0.0
C977 C 0.01313 0.44521 0.23902 0.0
C978 C 0.98178 0.5787 0.23078 0.0
C979 C 0.98331 0.56053 0.22793 0.0
C980 C 0.0161 0.52175 0.23213 0.0
C981 C 0.00393 0.47409 0.22663 0.0
C982 C 0.0021 0.49349 0.22825 0.0
C983 C -0.00278 0.54995 0.23557 0.0
C984 C -0.00113 0.53048 0.23267 0.0
H985 H 0.00213 0.44258 0.19612 0.0
H986 H 0.99597 0.47438 0.19957 0.0
H987 H 0.03105 0.49709 0.23 0.0
H988 H 0.01797 0.58224 0.2568 0.0
H989 H 0.0202 0.55056 0.2526 0.0
C990 C 0.81916 0.7613 0.46546 0.0
C991 C 0.8278 0.75897 0.48155 0.0
C992 C 0.80104 0.75645 0.46421 0.0
C993 C 0.76287 0.73233 0.4872 0.0
H994 H 0.73332 0.77175 0.46904 0.0
C995 C 0.68359 0.73259 0.48633 0.0
C996 C 0.67469 0.74833 0.49156 0.0
C997 C 0.70259 0.73172 0.48394 0.0
C998 C 0.7414 0.76063 0.47415 0.0
H999 H 0.82484 0.74831 0.50845 0.0
H1000 H 0.79331 0.7399 0.50626 0.0
H1001 H 0.76642 0.77272 0.46565 0.0
H1002 H 0.67873 0.77505 0.49956 0.0
H1003 H 0.71182 0.77359 0.4953 0.0
H1004 H 0.73772 0.72056 0.49625 0.0
C1005 C 0.80045 0.74548 0.49463 0.0
C1006 C 0.76034 0.76106 0.47198 0.0
C1007 C 0.81849 0.75043 0.49592 0.0
C1008 C 0.68518 0.76288 0.49515 0.0
C1009 C 0.70411 0.76206 0.49266 0.0
C1010 C 0.74386 0.73185 0.48927 0.0
C1011 C 0.79133 0.74905 0.47897 0.0
C1012 C 0.7713 0.74711 0.47885 0.0
C1013 C 0.71298 0.74659 0.4867 0.0
C1014 C 0.73299 0.74622 0.48316 0.0
H1015 H 0.82602 0.76774 0.45411 0.0
H1016 H 0.7944 0.75913 0.4519 0.0
H1017 H 0.77099 0.72135 0.49252 0.0
H1018 H 0.67587 0.72113 0.48348 0.0
H1019 H 0.70908 0.71963 0.47935 0.0
C1020 C 0.49493 0.4558 0.75754 0.0
C1021 C 0.49204 0.44478 0.74355 0.0
C1022 C 0.49726 0.47401 0.75445 0.0
C1023 C 0.48481 0.50994 0.72267 0.0
H1024 H 0.51646 0.53789 0.7493 0.0
C1025 C 0.48533 0.58592 0.71254 0.0
C1026 C 0.48539 0.59572 0.72783 0.0
C1027 C 0.48918 0.56767 0.71327 0.0
C1028 C 0.50744 0.53031 0.74183 0.0
H1029 H 0.49022 0.44423 0.71518 0.0
H1030 H 0.49444 0.47595 0.70979 0.0
H1031 H 0.51794 0.50561 0.75266 0.0
H1032 H 0.49026 0.59405 0.75578 0.0
H1033 H 0.49668 0.56225 0.75712 0.0
H1034 H 0.4739 0.53451 0.71223 0.0
C1035 C 0.49468 0.47053 0.7232 0.0
C1036 C 0.50832 0.51178 0.74374 0.0
C1037 C 0.49243 0.45229 0.72628 0.0
C1038 C 0.4902 0.58695 0.74372 0.0
C1039 C 0.49393 0.56866 0.74447 0.0
C1040 C 0.48388 0.52844 0.72082 0.0
C1041 C 0.49668 0.4817 0.73729 0.0
C1042 C 0.49688 0.50135 0.73431 0.0
C1043 C 0.49306 0.55868 0.72933 0.0
C1044 C 0.49505 0.53892 0.7305 0.0
H1045 H 0.49468 0.4505 0.77101 0.0
H1046 H 0.49862 0.48219 0.76563 0.0
H1047 H 0.47555 0.50239 0.71544 0.0
H1048 H 0.4818 0.59225 0.70006 0.0
H1049 H 0.48877 0.56054 0.70125 0.0
C1050 C 0.81304 0.24441 0.96198 0.0
C1051 C 0.82231 0.2424 0.97778 0.0
C1052 C 0.7942 0.24272 0.96197 0.0
C1053 C 0.75186 0.24781 0.98668 0.0
H1054 H 0.7341 0.21324 0.95579 0.0
C1055 C 0.67511 0.23274 0.98267 0.0
C1056 C 0.6689 0.22785 0.96638 0.0
C1057 C 0.69364 0.23536 0.98478 0.0
C1058 C 0.73878 0.22317 0.96427 0.0
H1059 H 0.81893 0.23759 0.00603 0.0
H1060 H 0.78552 0.23541 0.00604 0.0
H1061 H 0.7668 0.21582 0.95889 0.0
H1062 H 0.67709 0.2231 0.93923 0.0
H1063 H 0.70928 0.22841 0.94267 0.0
H1064 H 0.72393 0.25568 0.99158 0.0
C1065 C 0.79311 0.23802 0.9937 0.0
C1066 C 0.75751 0.22448 0.96617 0.0
C1067 C 0.81215 0.23931 0.99369 0.0
C1068 C 0.68146 0.22674 0.95197 0.0
C1069 C 0.69996 0.22957 0.95402 0.0
C1070 C 0.73308 0.24668 0.98459 0.0
C1071 C 0.78409 0.23936 0.97776 0.0
C1072 C 0.76421 0.23695 0.97722 0.0
C1073 C 0.70638 0.23337 0.97059 0.0
C1074 C 0.72631 0.23448 0.97317 0.0
H1075 H 0.8204 0.24658 0.94944 0.0
H1076 H 0.78751 0.24391 0.94954 0.0
H1077 H 0.75677 0.25761 0.99518 0.0
H1078 H 0.66582 0.23361 0.99409 0.0
H1079 H 0.69804 0.23815 0.99775 0.0
C1080 C 0.22148 0.9942 0.43974 0.0
C1081 C 0.23533 0.98564 0.42963 0.0
C1082 C 0.22025 0.99156 0.45812 0.0
C1083 C 0.23641 0.96305 0.49585 0.0
H1084 H 0.23111 0.00643 0.52118 0.0
C1085 C 0.24792 0.99143 0.56928 0.0
C1086 C 0.23771 0.9796 0.58035 0.0
C1087 C 0.24788 0.99052 0.55095 0.0
C1088 C 0.2327 0.99419 0.5143 0.0
H1089 H 0.25791 0.96653 0.431 0.0
H1090 H 0.25567 0.9619 0.46287 0.0
H1091 H 0.22889 0.0075 0.48926 0.0
H1092 H 0.22041 0.95677 0.58058 0.0
H1093 H 0.22066 0.95502 0.54855 0.0
H1094 H 0.24041 0.94982 0.52101 0.0
C1095 C 0.24576 0.97069 0.45663 0.0
C1096 C 0.23118 0.99477 0.49601 0.0
C1097 C 0.24704 0.97338 0.43828 0.0
C1098 C 0.22848 0.96607 0.57254 0.0
C1099 C 0.22858 0.96509 0.55415 0.0
C1100 C 0.23775 0.96246 0.51422 0.0
C1101 C 0.23275 0.98019 0.46685 0.0
C1102 C 0.23314 0.97923 0.4865 0.0
C1103 C 0.23779 0.97766 0.54314 0.0
C1104 C 0.23612 0.97806 0.52364 0.0
H1105 H 0.21216 0.00368 0.43359 0.0
H1106 H 0.20983 -0.00117 0.46555 0.0
H1107 H 0.23791 0.95082 0.48897 0.0
H1108 H 0.25524 0.00201 0.57471 0.0
H1109 H 0.25541 0.0002 0.54284 0.0
C1110 C 0.23831 0.98695 0.68737 0.0
C1111 C 0.23985 0.96946 0.68174 0.0
C1112 C 0.24084 0.99061 0.70496 0.0
C1113 C 0.26089 0.97453 0.74612 0.0
H1114 H 0.2196 0.99852 0.76908 0.0
C1115 C 0.25133 0.97513 0.82196 0.0
C1116 C 0.24083 0.98873 0.82983 0.0
C1117 C 0.25355 0.97457 0.80363 0.0
C1118 C 0.23151 0.9922 0.76292 0.0
H1119 H 0.24623 0.94228 0.69 0.0
H1120 H 0.25124 0.94882 0.72067 0.0
H1121 H 0.21977 0.99422 0.73758 0.0
H1122 H 0.22551 0.01313 0.82451 0.0
H1123 H 0.23023 0.01277 0.79259 0.0
H1124 H 0.27289 0.97277 0.77126 0.0
C1125 C 0.24787 0.95962 0.71145 0.0
C1126 C 0.2315 0.98963 0.74481 0.0
C1127 C 0.24499 0.95588 0.6939 0.0
C1128 C 0.2336 0.00241 0.8189 0.0
C1129 C 0.23612 0.00204 0.80053 0.0
C1130 C 0.26109 0.97741 0.7642 0.0
C1131 C 0.24533 0.97695 0.71725 0.0
C1132 C 0.24607 0.98057 0.73626 0.0
C1133 C 0.24562 0.98779 0.79257 0.0
C1134 C 0.24626 0.98606 0.77297 0.0
H1135 H 0.23424 0.99773 0.67842 0.0
H1136 H 0.23891 0.0041 0.70906 0.0
H1137 H 0.27236 0.96762 0.73982 0.0
H1138 H 0.25699 0.96426 0.82991 0.0
H1139 H 0.26073 0.96322 0.79821 0.0
C1140 C 0.22688 0.99241 0.06985 0.0
C1141 C 0.24272 0.99272 0.07954 0.0
C1142 C 0.22773 0.99545 0.05155 0.0
C1143 C 0.25804 0.01101 0.01326 0.0
H1144 H 0.22773 0.98083 0.98758 0.0
C1145 C 0.26958 0.99691 0.93881 0.0
C1146 C 0.25405 0.99546 0.92881 0.0
C1147 C 0.26782 -0.00059 0.95697 0.0
C1148 C 0.23611 0.98955 0.99452 0.0
H1149 H 0.27178 0.99732 0.0776 0.0
H1150 H 0.27338 0.0021 0.04568 0.0
H1151 H 0.22539 0.97987 0.01956 0.0
H1152 H 0.22444 0.9964 0.93006 0.0
H1153 H 0.22142 0.00076 0.96163 0.0
H1154 H 0.26919 0.02015 0.98799 0.0
C1155 C 0.26019 -0.00019 0.0522 0.0
C1156 C 0.23474 0.98906 0.01293 0.0
C1157 C 0.2593 0.99699 0.07057 0.0
C1158 C 0.23672 0.99748 0.93728 0.0
C1159 C 0.23497 -0.00018 0.95544 0.0
C1160 C 0.25953 0.01138 0.99479 0.0
C1161 C 0.24448 0.99865 0.04236 0.0
C1162 C 0.24567 -0.00023 0.02262 0.0
C1163 C 0.25048 0.00036 0.96559 0.0
C1164 C 0.24857 0.00065 0.9852 0.0
H1165 H 0.21386 0.98931 0.07634 0.0
H1166 H 0.21523 0.99493 0.04457 0.0
H1167 H 0.26654 0.01962 0.02018 0.0
H1168 H 0.28313 0.99537 0.93275 0.0
H1169 H 0.28004 -0.00031 0.9644 0.0
C1170 C 0.25334 0.01279 0.1874 0.0
C1171 C 0.2487 0.99785 0.17825 0.0
C1172 C 0.25092 0.01295 0.20585 0.0
C1173 C 0.252 0.9817 0.24343 0.0
H1174 H 0.22933 0.01838 0.27166 0.0
C1175 C 0.24393 0.97074 0.31847 0.0
C1176 C 0.24663 0.98507 0.32911 0.0
C1177 C 0.2422 0.97339 0.30029 0.0
C1178 C 0.23593 0.0081 0.26401 0.0
H1179 H 0.23653 0.97197 0.1814 0.0
H1180 H 0.23257 0.97226 0.21328 0.0
H1181 H 0.23 0.0218 0.23942 0.0
H1182 H 0.24908 0.0136 0.32898 0.0
H1183 H 0.24656 0.01821 0.29722 0.0
H1184 H 0.25861 0.9682 0.26762 0.0
C1185 C 0.23823 0.98376 0.20623 0.0
C1186 C 0.23624 0.01007 0.24553 0.0
C1187 C 0.24042 0.98367 0.18789 0.0
C1188 C 0.24686 0.00225 0.3212 0.0
C1189 C 0.24539 0.0049 0.30292 0.0
C1190 C 0.25194 0.97984 0.26179 0.0
C1191 C 0.24397 0.99812 0.21547 0.0
C1192 C 0.24406 0.99675 0.23507 0.0
C1193 C 0.24347 0.99044 0.29212 0.0
C1194 C 0.24367 0.99286 0.27243 0.0
H1195 H 0.25966 0.02398 0.18044 0.0
H1196 H 0.25543 0.02422 0.21264 0.0
H1197 H 0.25848 0.97138 0.23571 0.0
H1198 H 0.24355 0.95735 0.32415 0.0
H1199 H 0.24017 0.96195 0.2926 0.0
C1200 C 0.43074 0.23652 0.00338 0.0
C1201 C 0.42114 0.25232 0.99947 0.0
C1202 C 0.44878 0.23695 0.00841 0.0
C1203 C 0.48791 0.26592 0.0016 0.0
H1204 H 0.51191 0.22756 0.02783 0.0
C1205 C 0.56641 0.25401 0.99939 0.0
C1206 C 0.57113 0.23685 0.99404 0.0
C1207 C 0.54836 0.25835 0.00456 0.0
C1208 C 0.50534 0.23849 0.02066 0.0
H1209 H 0.42196 0.28094 0.99881 0.0
H1210 H 0.45328 0.2818 0.00822 0.0
H1211 H 0.47871 0.23101 0.0303 0.0
H1212 H 0.56064 0.21082 0.98991 0.0
H1213 H 0.52937 0.21843 0.99889 0.0
H1214 H 0.51453 0.27303 0.99157 0.0
C1215 C 0.44723 0.26905 0.0069 0.0
C1216 C 0.48637 0.24041 0.02198 0.0
C1217 C 0.42935 0.26859 0.00153 0.0
C1218 C 0.55748 0.2242 0.99383 0.0
C1219 C 0.53961 0.22845 0.99924 0.0
C1220 C 0.50687 0.26412 0.00046 0.0
C1221 C 0.45739 0.25324 0.00977 0.0
C1222 C 0.47739 0.25363 0.01178 0.0
C1223 C 0.5349 0.2455 0.00473 0.0
C1224 C 0.51563 0.2499 0.00932 0.0
H1225 H 0.42457 0.22387 0.00179 0.0
H1226 H 0.45623 0.2245 0.01025 0.0
H1227 H 0.48151 0.27618 0.99342 0.0
H1228 H 0.57667 0.26398 -0.00022 0.0
H1229 H 0.54496 0.27164 0.00861 0.0
C1230 C 0.9292 0.23524 0.98987 0.0
C1231 C 0.92165 0.25239 0.98718 0.0
C1232 C 0.94767 0.23273 0.99326 0.0
C1233 C 0.99098 0.25605 0.98521 0.0
H1234 H 0.01122 0.21565 0.0116 0.0
C1235 C 0.06828 0.24529 0.98876 0.0
C1236 C 0.07482 0.22848 0.98381 0.0
C1237 C 0.04976 0.24825 0.99296 0.0
C1238 C 0.00574 0.22699 0.0042 0.0
H1239 H 0.92726 0.28037 0.9874 0.0
H1240 H 0.95931 0.27603 0.99392 0.0
H1241 H 0.97822 0.22125 0.01263 0.0
H1242 H 0.06721 0.20131 0.98072 0.0
H1243 H 0.03485 0.2065 0.98821 0.0
H1244 H 0.01842 0.26169 0.97665 0.0
C1245 C 0.95111 0.26448 0.99282 0.0
C1246 C 0.98683 0.23019 0.00473 0.0
C1247 C 0.93267 0.26698 0.98927 0.0
C1248 C 0.06262 0.21442 0.98443 0.0
C1249 C 0.04408 0.21738 0.98875 0.0
C1250 C 0.00983 0.25294 0.98481 0.0
C1251 C 0.95902 0.24732 0.99421 0.0
C1252 C 0.97919 0.24466 0.99507 0.0
C1253 C 0.03737 0.23447 0.99246 0.0
C1254 C 0.01742 0.23829 0.99414 0.0
H1255 H 0.92113 0.22367 0.9883 0.0
H1256 H 0.95323 0.21932 0.9941 0.0
H1257 H 0.98566 0.26705 0.97723 0.0
H1258 H 0.07728 0.25642 0.98853 0.0
H1259 H 0.04503 0.26151 0.99604 0.0
C1260 C 0.98224 0.69558 0.26002 0.0
C1261 C 0.96818 0.69121 0.2491 0.0
C1262 C 0.98605 0.71332 0.26258 0.0
C1263 C 0.98223 0.7566 0.23933 0.0
H1264 H 0.99469 0.77605 0.28347 0.0
C1265 C 0.00783 0.82712 0.2401 0.0
C1266 C -0.00234 0.83805 0.25165 0.0
C1267 C 0.00697 0.80868 0.24206 0.0
C1268 C 0.9913 0.77076 0.27105 0.0
H1269 H 0.94633 0.70214 0.23331 0.0
H1270 H 0.95293 0.73297 0.23787 0.0
H1271 H 0.9858 0.74503 0.28288 0.0
H1272 H 0.98038 0.83797 0.27558 0.0
H1273 H 0.97907 0.80582 0.27905 0.0
H1274 H 0.98748 0.7822 0.22746 0.0
C1275 C 0.96119 0.72267 0.24421 0.0
C1276 C 0.98626 0.75302 0.27071 0.0
C1277 C 0.95732 0.70498 0.24172 0.0
C1278 C 0.98831 0.83003 0.26635 0.0
C1279 C 0.98753 0.81155 0.26835 0.0
C1280 C 0.98743 0.7742 0.23964 0.0
C1281 C 0.97594 0.72705 0.25422 0.0
C1282 C 0.98147 0.74581 0.25486 0.0
C1283 C 0.99608 0.80072 0.25571 0.0
C1284 C 0.99193 0.78156 0.2555 0.0
H1285 H 0.9909 0.68532 0.2659 0.0
H1286 H -0.00249 0.71626 0.27036 0.0
H1287 H 0.97889 0.7514 0.22686 0.0
H1288 H 0.01538 0.83276 0.22875 0.0
H1289 H 0.01408 0.80067 0.23234 0.0
C1290 C 0.55454 0.72223 0.4818 0.0
C1291 C 0.56762 0.73011 0.49167 0.0
C1292 C 0.536 0.72593 0.48499 0.0
C1293 C 0.50057 0.74136 0.51581 0.0
H1294 H 0.4781 0.76187 0.47414 0.0
C1295 C 0.42302 0.74787 0.5033 0.0
C1296 C 0.417 0.76344 0.49428 0.0
C1297 C 0.44138 0.74543 0.50717 0.0
C1298 C 0.48423 0.75634 0.48593 0.0
H1299 H 0.57144 0.74696 0.51352 0.0
H1300 H 0.53881 0.75304 0.51936 0.0
H1301 H 0.51018 0.75254 0.4725 0.0
H1302 H 0.42512 0.78935 0.48384 0.0
H1303 H 0.45718 0.78494 0.49041 0.0
H1304 H 0.47426 0.74464 0.52904 0.0
C1305 C 0.54306 0.74421 0.50902 0.0
C1306 C 0.5025 0.75084 0.48494 0.0
C1307 C 0.56169 0.74075 0.50565 0.0
C1308 C 0.42931 0.77718 0.49074 0.0
C1309 C 0.44769 0.77464 0.4944 0.0
C1310 C 0.48209 0.74656 0.51672 0.0
C1311 C 0.53014 0.7373 0.49832 0.0
C1312 C 0.5108 0.74322 0.49981 0.0
C1313 C 0.45401 0.75845 0.50193 0.0
C1314 C 0.47379 0.75412 0.50177 0.0
H1315 H 0.55862 0.71397 0.47095 0.0
H1316 H 0.52623 0.72035 0.47665 0.0
H1317 H 0.50674 0.73551 0.52743 0.0
H1318 H 0.41382 0.73708 0.50629 0.0
H1319 H 0.44592 0.73282 0.51297 0.0
C1320 C 0.92325 0.73412 0.50828 0.0
C1321 C 0.91458 0.74677 0.4972 0.0
C1322 C 0.94196 0.73073 0.50602 0.0
C1323 C 0.98326 0.73683 0.47804 0.0
H1324 H 0.00401 0.75345 0.52018 0.0
C1325 C 0.05932 0.75204 0.47882 0.0
C1326 C 0.06832 0.74632 0.49402 0.0
C1327 C 0.04029 0.75252 0.47887 0.0
C1328 C -0.00146 0.74851 0.5084 0.0
H1329 H 0.91791 0.76387 0.47371 0.0
H1330 H 0.95056 0.7575 0.46948 0.0
H1331 H 0.97135 0.74909 0.51971 0.0
H1332 H 0.06457 0.73751 0.52138 0.0
H1333 H 0.03162 0.73778 0.52143 0.0
H1334 H 0.01044 0.73585 0.4668 0.0
C1335 C 0.94299 0.75052 0.48006 0.0
C1336 C 0.97984 0.74597 0.50817 0.0
C1337 C 0.92436 0.75418 0.48251 0.0
C1338 C 0.05801 0.74213 0.50953 0.0
C1339 C 0.03904 0.7423 0.50953 0.0
C1340 C 0.00207 0.73903 0.47837 0.0
C1341 C 0.95207 0.73962 0.49243 0.0
C1342 C 0.97206 0.7402 0.49298 0.0
C1343 C 0.02995 0.74698 0.49405 0.0
C1344 C 0.00992 0.74504 0.49352 0.0
H1345 H 0.91603 0.72818 0.51968 0.0
H1346 H 0.94876 0.72216 0.51561 0.0
H1347 H 0.97746 0.73248 0.46616 0.0
H1348 H 0.06698 0.75548 0.4667 0.0
H1349 H 0.03372 0.75672 0.46686 0.0
C1350 C 0.01736 0.19592 0.23859 0.0
C1351 C 0.0036 0.18676 0.2308 0.0
C1352 C 0.01938 0.21412 0.23497 0.0
C1353 C 0.02377 0.25258 0.22087 0.0
H1354 H 0.97729 0.2782 0.22426 0.0
C1355 C 0.01923 0.32903 0.21721 0.0
C1356 C 0.00912 0.33638 0.2314 0.0
C1357 C 0.01792 0.31107 0.21381 0.0
C1358 C 0.99037 0.27125 0.2232 0.0
H1359 H 0.98241 0.18922 0.21176 0.0
H1360 H 0.98607 0.22078 0.20539 0.0
H1361 H 0.97797 0.24594 0.22414 0.0
H1362 H 0.98869 0.33084 0.25227 0.0
H1363 H 0.98619 0.29967 0.24612 0.0
H1364 H 0.03615 0.27795 0.22048 0.0
C1365 C 0.995 0.21401 0.21461 0.0
C1366 C 0.99077 0.25277 0.22297 0.0
C1367 C 0.993 0.19588 0.21819 0.0
C1368 C -0.00332 0.32565 0.24125 0.0
C1369 C 0.99523 0.30776 0.23771 0.0
C1370 C 0.02336 0.27111 0.22093 0.0
C1371 C 0.00769 0.22349 0.22348 0.0
C1372 C 0.00748 0.24319 0.22206 0.0
C1373 C 0.0063 0.30013 0.22435 0.0
C1374 C 0.00665 0.28063 0.22238 0.0
H1375 H 0.02581 0.18934 0.24833 0.0
H1376 H 0.02931 0.22103 0.24203 0.0
H1377 H 0.03685 0.2456 0.2201 0.0
H1378 H 0.02898 0.33687 0.20937 0.0
H1379 H 0.02642 0.30562 0.20326 0.0
C1380 C 0.52483 0.83129 0.72741 0.0
C1381 C 0.51139 0.84151 0.7363 0.0
C1382 C 0.52496 0.81282 0.72925 0.0
C1383 C 0.50452 0.77496 0.75595 0.0
H1384 H 0.51728 0.74918 0.71393 0.0
C1385 C 0.48181 0.70491 0.73783 0.0
C1386 C 0.49512 0.69188 0.7422 0.0
C1387 C 0.48594 0.72284 0.73725 0.0
C1388 C 0.5139 0.75625 0.72578 0.0
H1389 H 0.48765 0.8405 0.75419 0.0
H1390 H 0.48733 0.80822 0.75689 0.0
H1391 H 0.52008 0.7813 0.71322 0.0
H1392 H 0.52341 0.68753 0.74871 0.0
H1393 H 0.53072 0.71913 0.74713 0.0
H1394 H 0.49743 0.74973 0.76807 0.0
C1395 C 0.49815 0.81439 0.74889 0.0
C1396 C 0.51557 0.77464 0.72547 0.0
C1397 C 0.49823 0.83291 0.74728 0.0
C1398 C 0.51289 0.69722 0.74525 0.0
C1399 C 0.51706 0.71524 0.74445 0.0
C1400 C 0.50269 0.75658 0.75617 0.0
C1401 C 0.51143 0.80406 0.73974 0.0
C1402 C 0.51071 0.78431 0.74049 0.0
C1403 C 0.50349 0.72812 0.74077 0.0
C1404 C 0.50724 0.74716 0.74105 0.0
H1405 H 0.53531 0.83757 0.71903 0.0
H1406 H 0.53568 0.80542 0.72235 0.0
H1407 H 0.50093 0.78183 0.76786 0.0
H1408 H 0.46794 0.70135 0.73561 0.0
H1409 H 0.47531 0.73265 0.73439 0.0
C1410 C 0.98122 0.42121 0.75362 0.0
C1411 C 0.99476 0.41051 0.76148 0.0
C1412 C 0.97995 0.43937 0.75645 0.0
C1413 C 0.00603 0.47651 0.77356 0.0
H1414 H 0.9587 0.50052 0.77257 0.0
C1415 C 0.98505 0.54856 0.79581 0.0
C1416 C 0.97977 0.55962 0.78146 0.0
C1417 C 0.98831 0.53039 0.79376 0.0
C1418 C 0.97199 0.49393 0.77288 0.0
H1419 H 0.0174 0.41032 0.77881 0.0
H1420 H 0.01476 0.44177 0.78444 0.0
H1421 H 0.96095 0.46863 0.76904 0.0
H1422 H 0.97401 0.56029 0.75368 0.0
H1423 H 0.9792 0.52851 0.75034 0.0
H1424 H 0.01676 0.50201 0.77816 0.0
C1425 C 0.00547 0.4364 0.77552 0.0
C1426 C 0.97336 0.47567 0.77068 0.0
C1427 C 0.00696 0.4183 0.77237 0.0
C1428 C 0.97822 0.55219 0.76496 0.0
C1429 C 0.98109 0.53401 0.76304 0.0
C1430 C 0.00456 0.49474 0.77615 0.0
C1431 C 0.99197 0.44726 0.76756 0.0
C1432 C 0.99045 0.46668 0.77072 0.0
C1433 C 0.98596 0.52296 0.77745 0.0
C1434 C 0.98756 0.50359 0.7756 0.0
H1435 H 0.97167 0.41556 0.74511 0.0
H1436 H 0.96963 0.4472 0.74972 0.0
H1437 H 0.01948 0.47026 0.77342 0.0
H1438 H 0.98631 0.55388 0.80868 0.0
H1439 H 0.99203 0.52204 0.80505 0.0
C1440 C 0.17977 0.23462 0.50168 0.0
C1441 C 0.16907 0.23269 0.51743 0.0
C1442 C 0.19855 0.23649 0.5021 0.0
C1443 C 0.23556 0.25106 0.52637 0.0
H1444 H 0.2646 0.2151 0.50225 0.0
C1445 C 0.3139 0.25104 0.52532 0.0
C1446 C 0.3233 0.2466 0.50958 0.0
C1447 C 0.29525 0.24822 0.52768 0.0
C1448 C 0.25673 0.22538 0.50884 0.0
H1449 H 0.16955 0.23234 0.54595 0.0
H1450 H 0.20261 0.23626 0.54659 0.0
H1451 H 0.2314 0.21361 0.50367 0.0
H1452 H 0.32092 0.23544 0.48413 0.0
H1453 H 0.28803 0.23131 0.48776 0.0
H1454 H 0.26064 0.26343 0.53082 0.0
C1455 C 0.1963 0.23595 0.534 0.0
C1456 C 0.23776 0.22443 0.50976 0.0
C1457 C 0.17744 0.23374 0.53361 0.0
C1458 C 0.31386 0.23901 0.49633 0.0
C1459 C 0.29508 0.23653 0.49853 0.0
C1460 C 0.25454 0.25222 0.52518 0.0
C1461 C 0.207 0.23682 0.51823 0.0
C1462 C 0.22705 0.23734 0.51838 0.0
C1463 C 0.2855 0.24124 0.51419 0.0
C1464 C 0.26537 0.23948 0.51624 0.0
H1465 H 0.17378 0.23392 0.48897 0.0
H1466 H 0.20656 0.23738 0.48978 0.0
H1467 H 0.2275 0.26121 0.53299 0.0
H1468 H 0.32101 0.25658 0.5359 0.0
H1469 H 0.2885 0.25155 0.54009 0.0
C1470 C 0.50045 0.41148 0.25573 0.0
C1471 C 0.50532 0.40274 0.27162 0.0
C1472 C 0.49664 0.42977 0.25498 0.0
C1473 C 0.50681 0.47004 0.27849 0.0
H1474 H 0.47219 0.49284 0.24722 0.0
C1475 C 0.49772 0.5462 0.27362 0.0
C1476 C 0.49744 0.55389 0.25644 0.0
C1477 C 0.4958 0.5279 0.27659 0.0
C1478 C 0.48198 0.48669 0.25596 0.0
H1479 H 0.50893 0.40627 0.29938 0.0
H1480 H 0.50188 0.43796 0.29816 0.0
H1481 H 0.47388 0.46055 0.25039 0.0
H1482 H 0.49401 0.54838 0.22905 0.0
H1483 H 0.49068 0.51661 0.23422 0.0
H1484 H 0.51512 0.49609 0.28386 0.0
C1485 C 0.50145 0.43082 0.28616 0.0
C1486 C 0.48297 0.46815 0.25777 0.0
C1487 C 0.50534 0.41257 0.2869 0.0
C1488 C 0.49427 0.54295 0.24246 0.0
C1489 C 0.49229 0.52468 0.24543 0.0
C1490 C 0.50579 0.48854 0.27671 0.0
C1491 C 0.49754 0.43978 0.2701 0.0
C1492 C 0.49553 0.45955 0.26893 0.0
C1493 C 0.49348 0.51683 0.26248 0.0
C1494 C 0.4935 0.49714 0.26529 0.0
H1495 H 0.50043 0.40437 0.24367 0.0
H1496 H 0.49384 0.43618 0.24233 0.0
H1497 H 0.51691 0.46397 0.28694 0.0
H1498 H 0.50016 0.55418 0.28472 0.0
H1499 H 0.4965 0.52237 0.28993 0.0
C1500 C 0.31051 0.76073 0.04372 0.0
C1501 C 0.32222 0.76326 0.02876 0.0
C1502 C 0.292 0.75767 0.04192 0.0
C1503 C 0.25747 0.74711 0.00934 0.0
H1504 H 0.22448 0.77061 0.04262 0.0
C1505 C 0.17837 0.76257 0.00443 0.0
C1506 C 0.16808 0.75582 0.01917 0.0
C1507 C 0.19749 0.76136 0.004 0.0
C1508 C 0.23357 0.76396 0.03327 0.0
H1509 H 0.32379 0.76371 0.00016 0.0
H1510 H 0.29158 0.75887 0.99704 0.0
H1511 H 0.25727 0.77238 0.04548 0.0
H1512 H 0.16991 0.74156 0.04452 0.0
H1513 H 0.20306 0.73993 0.04384 0.0
H1514 H 0.23339 0.73933 0.99684 0.0
C1515 C 0.29664 0.75893 0.01019 0.0
C1516 C 0.25237 0.76479 0.03498 0.0
C1517 C 0.31518 0.76177 0.01199 0.0
C1518 C 0.17731 0.74696 0.03295 0.0
C1519 C 0.19632 0.74605 0.03264 0.0
C1520 C 0.23859 0.74653 0.00747 0.0
C1521 C 0.28469 0.75729 0.02511 0.0
C1522 C 0.26462 0.75621 0.02318 0.0
C1523 C 0.20656 0.75363 0.01841 0.0
C1524 C 0.22653 0.7548 0.01955 0.0
H1525 H 0.31552 0.76167 0.05682 0.0
H1526 H 0.28334 0.75599 0.05374 0.0
H1527 H 0.26642 0.74021 8e-05 0.0
H1528 H 0.17172 0.76949 0.99361 0.0
H1529 H 0.20519 0.76731 0.99289 0.0
C1530 C 0.74236 0.01516 0.42593 0.0
C1531 C 0.75837 0.01947 0.41598 0.0
C1532 C 0.74184 0.01562 0.44437 0.0
C1533 C 0.76585 0.00475 0.48155 0.0
H1534 H 0.74374 0.04324 0.50772 0.0
C1535 C 0.76881 0.00466 0.5575 0.0
C1536 C 0.75297 0.01061 0.5668 0.0
C1537 C 0.77075 0.00747 0.53915 0.0
C1538 C 0.74979 0.03224 0.5007 0.0
H1539 H 0.78637 0.0276 0.4177 0.0
H1540 H 0.78546 0.02794 0.44983 0.0
H1541 H 0.74318 0.04429 0.47557 0.0
H1542 H 0.72714 0.02491 0.56401 0.0
H1543 H 0.73023 0.02931 0.53237 0.0
H1544 H 0.77192 0.99224 0.50644 0.0
C1545 C 0.77329 0.02458 0.44328 0.0
C1546 C 0.74951 0.03294 0.48228 0.0
C1547 C 0.77371 0.02451 0.42489 0.0
C1548 C 0.73957 0.02015 0.55738 0.0
C1549 C 0.7414 0.02277 0.5391 0.0
C1550 C 0.7659 0.00388 0.49998 0.0
C1551 C 0.75743 0.02 0.45315 0.0
C1552 C 0.75747 0.01918 0.4726 0.0
C1553 C 0.75683 0.01617 0.52962 0.0
C1554 C 0.7578 0.01759 0.50988 0.0
H1555 H 0.7304 0.0111 0.41947 0.0
H1556 H 0.72947 0.01203 0.45182 0.0
H1557 H 0.77211 0.99401 0.47426 0.0
H1558 H 0.77942 0.99726 0.5643 0.0
H1559 H 0.78303 0.00252 0.53243 0.0
C1560 C 0.75833 0.04711 0.30185 0.0
C1561 C 0.75417 0.03421 0.31524 0.0
C1562 C 0.75552 0.04392 0.28421 0.0
C1563 C 0.73116 0.02521 0.25194 0.0
H1564 H 0.77635 0.01237 0.22678 0.0
C1565 C 0.73332 0.00958 0.17736 0.0
C1566 C 0.74899 0.0146 0.1673 0.0
C1567 C 0.73279 0.01041 0.19583 0.0
C1568 C 0.76359 0.01618 0.23342 0.0
H1569 H 0.74288 0.0082 0.32056 0.0
H1570 H 0.73755 0.00291 0.28958 0.0
H1571 H 0.77646 0.01793 0.25805 0.0
H1572 H 0.77614 0.02494 0.16869 0.0
H1573 H 0.77492 0.02726 0.20022 0.0
H1574 H 0.71834 0.02441 0.22724 0.0
C1575 C 0.74312 0.01538 0.29292 0.0
C1576 C 0.76369 0.01917 0.25142 0.0
C1577 C 0.74617 0.01844 0.31061 0.0
C1578 C 0.76396 0.0206 0.17603 0.0
C1579 C 0.76329 0.02182 0.19428 0.0
C1580 C 0.73108 0.02253 0.23378 0.0
C1581 C 0.74819 0.02794 0.27958 0.0
C1582 C 0.74754 0.02383 0.26078 0.0
C1583 C 0.74778 0.01664 0.20456 0.0
C1584 C 0.74737 0.0182 0.22418 0.0
H1585 H 0.76462 0.05934 0.30485 0.0
H1586 H 0.75961 0.05373 0.27409 0.0
H1587 H 0.71855 0.02885 0.25896 0.0
H1588 H 0.72156 0.00492 0.17099 0.0
H1589 H 0.72065 0.00609 0.20321 0.0
C1590 C 0.73138 0.99879 0.92335 0.0
C1591 C 0.74899 0.00168 0.91588 0.0
C1592 C 0.72861 0.99588 0.94159 0.0
C1593 C 0.75213 0.98419 0.98304 0.0
H1594 H 0.71276 0.01198 0.00471 0.0
C1595 C 0.74735 0.99748 0.05774 0.0
C1596 C 0.73 -0.00059 0.06616 0.0
C1597 C 0.74918 0.99512 0.03956 0.0
C1598 C 0.72363 0.00384 0.99893 0.0
H1599 H 0.77756 0.00288 0.9217 0.0
H1600 H 0.77274 0.99768 0.95342 0.0
H1601 H 0.71671 0.01228 0.97277 0.0
H1602 H 0.70094 -0.00064 0.06211 0.0
H1603 H 0.70411 0.9948 0.0306 0.0
H1604 H 0.75916 0.9759 0.00924 0.0
C1605 C 0.76106 0.99766 0.9452 0.0
C1606 C 0.7259 0.00404 0.98055 0.0
C1607 C 0.76383 0.0007 0.92699 0.0
C1608 C 0.71453 0.998 0.05609 0.0
C1609 C 0.71635 0.99556 0.03794 0.0
C1610 C 0.74981 0.98393 0.00145 0.0
C1611 C 0.74337 0.99563 0.95279 0.0
C1612 C 0.74029 0.99436 0.97235 0.0
C1613 C 0.7337 0.99454 0.02932 0.0
C1614 C 0.73562 0.99389 0.00968 0.0
H1615 H 0.71962 -0.0005 0.91521 0.0
H1616 H 0.71483 0.99413 0.94695 0.0
H1617 H 0.76323 0.97641 0.97717 0.0
H1618 H 0.75958 0.99864 0.06503 0.0
H1619 H 0.76277 0.99455 0.03343 0.0
C1620 C 0.74821 0.99777 0.67306 0.0
C1621 C 0.74449 0.01499 0.66613 0.0
C1622 C 0.75046 0.99464 0.69115 0.0
C1623 C 0.73903 0.01584 0.73373 0.0
H1624 H 0.76979 0.97812 0.75346 0.0
C1625 C 0.75728 0.01021 0.80648 0.0
C1626 C 0.74632 0.99762 0.81577 0.0
C1627 C 0.75954 0.01013 0.78813 0.0
C1628 C 0.76112 0.98864 0.74805 0.0
H1629 H 0.74157 0.04256 0.67261 0.0
H1630 H 0.74638 0.0373 0.70387 0.0
H1631 H 0.76944 0.98328 0.72138 0.0
H1632 H 0.73067 0.97403 0.81303 0.0
H1633 H 0.73504 0.97377 0.78088 0.0
H1634 H 0.73118 0.02145 0.76045 0.0
C1635 C 0.74678 0.02604 0.69553 0.0
C1636 C 0.76083 0.99159 0.72969 0.0
C1637 C 0.74424 0.02912 0.67752 0.0
C1638 C 0.73913 0.98397 0.80635 0.0
C1639 C 0.74161 0.98378 0.78795 0.0
C1640 C 0.73954 0.01304 0.75198 0.0
C1641 C 0.74932 0.0087 0.70273 0.0
C1642 C 0.74985 0.00533 0.72227 0.0
C1643 C 0.75125 0.99727 0.77869 0.0
C1644 C 0.75061 -0.00051 0.75929 0.0
H1645 H 0.74844 0.98654 0.66467 0.0
H1646 H 0.75227 0.9811 0.6961 0.0
H1647 H 0.72997 0.02618 0.72864 0.0
H1648 H 0.76304 0.02094 0.8132 0.0
H1649 H 0.76702 0.02066 0.78121 0.0
C1650 C 0.43057 0.75852 0.02035 0.0
C1651 C 0.4192 0.75735 0.00614 0.0
C1652 C 0.44927 0.75486 0.01811 0.0
C1653 C 0.48581 0.75697 0.98424 0.0
H1654 H 0.51358 0.72977 0.01868 0.0
C1655 C 0.56284 0.76375 0.99411 0.0
C1656 C 0.57264 0.74838 0.99922 0.0
C1657 C 0.54417 0.76296 0.99141 0.0
C1658 C 0.506 0.73719 0.0088 0.0
H1659 H 0.41839 0.75209 0.97841 0.0
H1660 H 0.4509 0.74538 0.97458 0.0
H1661 H 0.48041 0.73121 0.022 0.0
H1662 H 0.57144 0.71998 0.0041 0.0
H1663 H 0.5389 0.71853 0.9992 0.0
H1664 H 0.51149 0.76329 0.97127 0.0
C1665 C 0.44539 0.74885 0.98747 0.0
C1666 C 0.48705 0.73815 0.01083 0.0
C1667 C 0.42673 0.75233 0.98975 0.0
C1668 C 0.56397 0.73204 0.0004 0.0
C1669 C 0.54542 0.73122 0.99761 0.0
C1670 C 0.50481 0.75613 0.98229 0.0
C1671 C 0.45686 0.75032 0.00155 0.0
C1672 C 0.47681 0.74822 0.9987 0.0
C1673 C 0.5352 0.74677 0.99384 0.0
C1674 C 0.51507 0.74639 0.99467 0.0
H1675 H 0.42505 0.76263 0.03302 0.0
H1676 H 0.45789 0.75628 0.02913 0.0
H1677 H 0.47819 0.76494 0.97478 0.0
H1678 H 0.56935 0.77646 0.99323 0.0
H1679 H 0.53657 0.77516 0.98858 0.0
C1680 C 0.92233 0.74954 0.0148 0.0
C1681 C 0.91599 0.76569 0.02162 0.0
C1682 C 0.94071 0.74701 0.00977 0.0
C1683 C 0.98421 0.76856 0.99855 0.0
H1684 H 0.00546 0.72867 0.02488 0.0
C1685 C 0.06081 0.7624 0.01207 0.0
C1686 C 0.06885 0.74554 0.01532 0.0
C1687 C 0.04233 0.76423 0.00853 0.0
C1688 C -0.00018 0.7396 0.01702 0.0
H1689 H 0.92369 0.79233 0.02707 0.0
H1690 H 0.9558 0.78798 0.01786 0.0
H1691 H 0.9726 0.73342 0.02598 0.0
H1692 H 0.0642 0.71735 0.0158 0.0
H1693 H 0.03214 0.72048 0.00891 0.0
H1694 H 0.01143 0.77479 0.98958 0.0
C1695 C 0.94652 0.77725 0.01663 0.0
C1696 C 0.98094 0.74236 0.01775 0.0
C1697 C 0.92815 0.77971 0.02194 0.0
C1698 C 0.05837 0.73052 0.01354 0.0
C1699 C 0.03992 0.73235 0.00976 0.0
C1700 C 0.00314 0.76564 0.99759 0.0
C1701 C 0.95308 0.76066 0.01114 0.0
C1702 C 0.97296 0.75701 0.00876 0.0
C1703 C 0.03147 0.74925 0.00791 0.0
C1704 C 0.01124 0.75129 0.00709 0.0
H1705 H 0.91336 0.73845 0.01433 0.0
H1706 H 0.94541 0.73414 0.00543 0.0
H1707 H 0.97836 0.7799 0.99142 0.0
H1708 H 0.06847 0.77428 0.01335 0.0
H1709 H 0.03639 0.77747 0.00734 0.0
C1710 C 0.98474 0.16749 0.76463 0.0
C1711 C 0.99409 0.15759 0.75165 0.0
C1712 C 0.9846 0.18601 0.76348 0.0
C1713 C 0.99509 0.22553 0.73436 0.0
H1714 H 0.01028 0.24492 0.77759 0.0
C1715 C 0.0033 0.30099 0.74493 0.0
C1716 C 0.01839 0.30552 0.75444 0.0
C1717 C -0.00069 0.28319 0.74289 0.0
C1718 C 0.0061 0.23972 0.76539 0.0
H1719 H 0.00921 0.15951 0.72649 0.0
H1720 H 0.00885 0.19177 0.72446 0.0
H1721 H 0.00325 0.21368 0.77714 0.0
H1722 H 0.04174 0.29484 0.76829 0.0
H1723 H 0.03486 0.26395 0.76461 0.0
H1724 H -0.0017 0.25166 0.72259 0.0
C1725 C 0.00171 0.18521 0.73557 0.0
C1726 C 0.00182 0.22185 0.76519 0.0
C1727 C 0.00195 0.16668 0.73677 0.0
C1728 C 0.02994 0.29187 0.76099 0.0
C1729 C 0.02592 0.27414 0.75901 0.0
C1730 C -0.00077 0.24351 0.7346 0.0
C1731 C 0.99367 0.19507 0.74926 0.0
C1732 C -0.00353 0.21447 0.74964 0.0
C1733 C 0.01029 0.26958 0.75038 0.0
C1734 C 0.00509 0.25072 0.75006 0.0
H1735 H 0.97846 0.16099 0.77625 0.0
H1736 H 0.97801 0.19324 0.77409 0.0
H1737 H 0.99093 0.22025 0.72219 0.0
H1738 H 0.99407 0.31116 0.73977 0.0
H1739 H 0.98717 0.2801 0.73618 0.0
C1740 C 0.43447 0.2785 0.5056 0.0
C1741 C 0.42351 0.26364 0.50868 0.0
C1742 C 0.45327 0.2764 0.50217 0.0
C1743 C 0.4901 0.24303 0.49111 0.0
H1744 H 0.52001 0.27438 0.51584 0.0
C1745 C 0.5645 0.22713 0.51024 0.0
C1746 C 0.57668 0.24118 0.50997 0.0
C1747 C 0.54633 0.23022 0.50591 0.0
C1748 C 0.5119 0.2657 0.50858 0.0
H1749 H 0.42361 0.23491 0.50993 0.0
H1750 H 0.45634 0.23127 0.50435 0.0
H1751 H 0.48716 0.27933 0.51629 0.0
H1752 H 0.57963 0.26926 0.50355 0.0
H1753 H 0.54799 0.27457 0.49603 0.0
H1754 H 0.51497 0.22896 0.48409 0.0
C1755 C 0.45045 0.24456 0.50427 0.0
C1756 C 0.49302 0.26855 0.50881 0.0
C1757 C 0.43165 0.24665 0.50758 0.0
C1758 C 0.57062 0.25812 0.50402 0.0
C1759 C 0.55244 0.26122 0.49981 0.0
C1760 C 0.50902 0.24009 0.49101 0.0
C1761 C 0.46157 0.25941 0.50186 0.0
C1762 C 0.48182 0.25714 0.50026 0.0
C1763 C 0.53995 0.24743 0.50131 0.0
C1764 C 0.5201 0.2513 0.4999 0.0
H1765 H 0.42861 0.29177 0.50623 0.0
H1766 H 0.46133 0.28814 0.50003 0.0
H1767 H 0.48194 0.23413 0.48415 0.0
H1768 H 0.56872 0.21391 0.51472 0.0
H1769 H 0.53702 0.21932 0.50723 0.0
C1770 C 0.93287 0.26083 0.52609 0.0
C1771 C 0.92668 0.25172 0.51184 0.0
C1772 C 0.95121 0.25986 0.53015 0.0
C1773 C 0.99116 0.26811 0.52142 0.0
H1774 H 0.0224 0.22601 0.52354 0.0
C1775 C 0.06773 0.26394 0.50021 0.0
C1776 C 0.07857 0.25132 0.50931 0.0
C1777 C 0.0493 0.26632 0.5053 0.0
C1778 C 0.01383 0.2379 0.52326 0.0
H1779 H 0.93453 0.23285 0.49199 0.0
H1780 H 0.96657 0.23091 0.49935 0.0
H1781 H 0.98936 0.22303 0.52378 0.0
H1782 H 0.07957 0.2332 0.53214 0.0
H1783 H 0.04754 0.23759 0.54116 0.0
H1784 H 0.0157 0.28297 0.52005 0.0
C1785 C 0.95721 0.23902 0.50717 0.0
C1786 C 0.99496 0.23616 0.52325 0.0
C1787 C 0.93885 0.24012 0.50297 0.0
C1788 C 0.07139 0.24282 0.52478 0.0
C1789 C 0.05306 0.24525 0.52988 0.0
C1790 C 0.01007 0.26986 0.52117 0.0
C1791 C 0.96366 0.24953 0.52024 0.0
C1792 C 0.98348 0.25124 0.52213 0.0
C1793 C 0.04162 0.25618 0.51957 0.0
C1794 C 0.02158 0.25476 0.52191 0.0
H1795 H 0.92381 0.2697 0.53339 0.0
H1796 H 0.95583 0.26782 0.5405 0.0
H1797 H 0.98256 0.27996 0.52031 0.0
H1798 H 0.07294 0.27063 0.48821 0.0
H1799 H 0.04076 0.27488 0.49714 0.0
C1800 C -0.00386 0.67155 0.76144 0.0
C1801 C 0.98372 0.66141 0.77193 0.0
C1802 C -0.00242 0.68964 0.76384 0.0
C1803 C 0.98622 0.72673 0.79266 0.0
H1804 H 0.98203 0.75308 0.74803 0.0
C1805 C 0.00033 0.80174 0.78031 0.0
C1806 C 0.99013 0.81117 0.76757 0.0
C1807 C -0.00257 0.78372 0.78412 0.0
C1808 C 0.98298 0.74597 0.76065 0.0
H1809 H 0.9643 0.66203 0.79427 0.0
H1810 H 0.96693 0.69376 0.79851 0.0
H1811 H 0.98315 0.72094 0.74867 0.0
H1812 H 0.96746 0.80949 0.7504 0.0
H1813 H 0.96234 0.77821 0.75718 0.0
H1814 H 0.98618 0.75201 0.80456 0.0
C1815 C 0.97546 0.68764 0.78837 0.0
C1816 C 0.9839 0.72753 0.76098 0.0
C1817 C 0.97399 0.66946 0.78595 0.0
C1818 C 0.9758 0.8026 0.76004 0.0
C1819 C 0.97291 0.78463 0.76386 0.0
C1820 C 0.98548 0.74532 0.79231 0.0
C1821 C 0.98667 0.69803 0.77681 0.0
C1822 C 0.98569 0.71768 0.77693 0.0
C1823 C 0.98425 0.7748 0.77531 0.0
C1824 C 0.98386 0.75512 0.77626 0.0
H1825 H 0.00408 0.66573 0.75072 0.0
H1826 H 0.00667 0.69724 0.755 0.0
H1827 H 0.98755 0.71947 0.80515 0.0
H1828 H 0.01144 0.80791 0.78643 0.0
H1829 H 0.00639 0.77654 0.79302 0.0
C1830 C 0.48161 0.30059 0.25364 0.0
C1831 C 0.49942 0.30623 0.25602 0.0
C1832 C 0.47766 0.28251 0.25497 0.0
C1833 C 0.49226 0.24105 0.24371 0.0
H1834 H 0.47646 0.21678 0.28748 0.0
C1835 C 0.49764 0.16498 0.25255 0.0
C1836 C 0.48443 0.15614 0.26324 0.0
C1837 C 0.49793 0.18349 0.25159 0.0
C1838 C 0.48056 0.22331 0.27504 0.0
H1839 H 0.52696 0.29721 0.26181 0.0
H1840 H 0.52 0.26581 0.26385 0.0
H1841 H 0.47872 0.24902 0.2861 0.0
H1842 H 0.46101 0.15966 0.28121 0.0
H1843 H 0.46108 0.19195 0.27915 0.0
H1844 H 0.49412 0.2156 0.23248 0.0
C1845 C 0.50914 0.27543 0.26119 0.0
C1846 C 0.4819 0.24177 0.27433 0.0
C1847 C 0.51305 0.29342 0.2601 0.0
C1848 C 0.47148 0.16615 0.27299 0.0
C1849 C 0.47158 0.18468 0.27183 0.0
C1850 C 0.49078 0.22262 0.24435 0.0
C1851 C 0.4915 0.26984 0.25849 0.0
C1852 C 0.48798 0.25071 0.25873 0.0
C1853 C 0.48483 0.19364 0.26113 0.0
C1854 C 0.48522 0.21343 0.26012 0.0
H1855 H 0.47084 0.31011 0.25043 0.0
H1856 H 0.46394 0.2784 0.25285 0.0
H1857 H 0.49706 0.24776 0.23156 0.0
H1858 H 0.5079 0.15753 0.24508 0.0
H1859 H 0.50863 0.18979 0.24353 0.0
C1860 C 0.4738 0.07775 0.74725 0.0
C1861 C 0.47968 0.08967 0.73367 0.0
C1862 C 0.47465 0.05945 0.7447 0.0
C1863 C 0.49939 0.02702 0.71664 0.0
H1864 H 0.46318 0.99417 0.73565 0.0
C1865 C 0.50402 0.95376 0.70002 0.0
C1866 C 0.50208 0.94144 0.71432 0.0
C1867 C 0.49908 0.97158 0.70195 0.0
C1868 C 0.47345 0.00319 0.73035 0.0
H1869 H 0.48979 0.09227 0.70658 0.0
H1870 H 0.49117 0.06056 0.70198 0.0
H1871 H 0.45872 0.02591 0.74008 0.0
H1872 H 0.4924 0.93806 0.74162 0.0
H1873 H 0.48376 0.96919 0.74495 0.0
H1874 H 0.51416 0.00445 0.70698 0.0
C1875 C 0.4864 0.06506 0.71475 0.0
C1876 C 0.47092 0.02136 0.73292 0.0
C1877 C 0.48559 0.08321 0.71734 0.0
C1878 C 0.4941 0.94719 0.73032 0.0
C1879 C 0.4891 0.96504 0.73223 0.0
C1880 C 0.50187 0.00895 0.71403 0.0
C1881 C 0.48135 0.05289 0.72851 0.0
C1882 C 0.48384 0.03351 0.72602 0.0
C1883 C 0.49202 0.97752 0.7182 0.0
C1884 C 0.48892 0.99679 0.72079 0.0
H1885 H 0.4692 0.08252 0.75996 0.0
H1886 H 0.47072 0.05046 0.7556 0.0
H1887 H 0.50986 0.03591 0.7115 0.0
H1888 H 0.51001 0.9498 0.68747 0.0
H1889 H 0.50118 0.9808 0.69078 0.0
C1890 C 0.18134 0.24632 0.99694 0.0
C1891 C 0.17396 0.24173 0.98104 0.0
C1892 C 0.2003 0.24604 0.99861 0.0
C1893 C 0.24056 0.25543 0.97314 0.0
H1894 H 0.26918 0.22137 0.00065 0.0
C1895 C 0.3171 0.24776 0.95903 0.0
C1896 C 0.32808 0.24753 0.97369 0.0
C1897 C 0.29835 0.24543 0.96134 0.0
C1898 C 0.26135 0.23109 0.99306 0.0
H1899 H 0.18071 0.23281 0.95466 0.0
H1900 H 0.21344 0.23283 0.95754 0.0
H1901 H 0.23573 0.22143 0.0038 0.0
H1902 H 0.32831 0.2431 0.0021 0.0
H1903 H 0.29558 0.23914 0.00608 0.0
H1904 H 0.26585 0.26516 0.9623 0.0
C1905 C 0.2046 0.23637 0.96871 0.0
C1906 C 0.2423 0.23115 0.99494 0.0
C1907 C 0.18583 0.2363 0.96715 0.0
C1908 C 0.32018 0.24351 0.99054 0.0
C1909 C 0.30142 0.24119 0.99284 0.0
C1910 C 0.25951 0.25546 0.97134 0.0
C1911 C 0.21197 0.2415 0.98429 0.0
C1912 C 0.23184 0.2431 0.98472 0.0
C1913 C 0.29023 0.2428 0.97834 0.0
C1914 C 0.27011 0.24303 0.98095 0.0
H1915 H 0.17253 0.2506 0.00783 0.0
H1916 H 0.20585 0.25004 0.01074 0.0
H1917 H 0.23265 0.26477 0.96517 0.0
H1918 H 0.32279 0.25068 0.94587 0.0
H1919 H 0.29011 0.24627 0.94986 0.0
C1920 C 0.99081 0.07638 0.21623 0.0
C1921 C 0.99168 0.08856 0.2296 0.0
C1922 C 0.99459 0.05834 0.21966 0.0
C1923 C 0.99251 0.02517 0.25624 0.0
H1924 H 0.01775 0.99449 0.22308 0.0
C1925 C -0.00192 0.9499 0.27116 0.0
C1926 C 0.99506 0.93896 0.25715 0.0
C1927 C 0.00101 0.96801 0.26804 0.0
C1928 C 0.01053 0.00283 0.23244 0.0
H1929 H -0.00201 0.09134 0.25694 0.0
H1930 H 0.00453 0.05986 0.26291 0.0
H1931 H 0.01687 0.0265 0.21704 0.0
H1932 H 0.99352 0.93842 0.22876 0.0
H1933 H -0.00174 0.96994 0.22335 0.0
H1934 H 0.98553 0.00164 0.27135 0.0
C1935 C 0.00082 0.06428 0.24978 0.0
C1936 C 0.01008 0.0212 0.22899 0.0
C1937 C -0.00278 0.08236 0.2463 0.0
C1938 C 0.99589 0.94641 0.23987 0.0
C1939 C -0.00133 0.96456 0.23676 0.0
C1940 C 0.99283 0.00683 0.25963 0.0
C1941 C -0.00083 0.052 0.2366 0.0
C1942 C 0.00092 0.03258 0.24078 0.0
C1943 C 0.00084 0.9757 0.25084 0.0
C1944 C 0.0017 0.99535 0.24772 0.0
H1945 H 0.9866 0.0807 0.20322 0.0
H1946 H 0.99308 0.04924 0.20923 0.0
H1947 H 0.98505 0.0335 0.26546 0.0
H1948 H -0.00235 0.94458 0.28462 0.0
H1949 H 0.00305 0.97604 0.27919 0.0
C1950 C 0.31301 0.75176 0.46847 0.0
C1951 C 0.32332 0.74974 0.48361 0.0
C1952 C 0.29411 0.75108 0.46978 0.0
C1953 C 0.25354 0.75905 0.49553 0.0
H1954 H 0.23336 0.72333 0.46744 0.0
C1955 C 0.17588 0.74746 0.49052 0.0
C1956 C 0.17009 0.74359 0.47374 0.0
C1957 C 0.19441 0.74901 0.49342 0.0
C1958 C 0.23878 0.73346 0.47522 0.0
H1959 H 0.3218 0.7463 0.51209 0.0
H1960 H 0.28823 0.74573 0.5144 0.0
H1961 H 0.26624 0.72405 0.47054 0.0
H1962 H 0.17908 0.73949 0.44663 0.0
H1963 H 0.21136 0.74243 0.45165 0.0
H1964 H 0.22607 0.76888 0.49968 0.0
C1965 C 0.29508 0.74755 0.50155 0.0
C1966 C 0.25754 0.73374 0.47713 0.0
C1967 C 0.31419 0.7479 0.50023 0.0
C1968 C 0.18309 0.74237 0.45972 0.0
C1969 C 0.20159 0.74387 0.46264 0.0
C1970 C 0.23468 0.75884 0.49354 0.0
C1971 C 0.28502 0.74868 0.48625 0.0
C1972 C 0.26509 0.74679 0.48693 0.0
C1973 C 0.20747 0.74668 0.47962 0.0
C1974 C 0.2272 0.74632 0.48296 0.0
H1975 H 0.31953 0.75307 0.45544 0.0
H1976 H 0.28656 0.75213 0.45784 0.0
H1977 H 0.25917 0.76929 0.50305 0.0
H1978 H 0.16617 0.74856 0.5016 0.0
H1979 H 0.19853 0.75121 0.50663 0.0
C1980 C 0.72007 0.49498 0.9521 0.0
C1981 C 0.73333 0.48637 0.94135 0.0
C1982 C 0.71771 0.49003 0.96996 0.0
C1983 C 0.74454 0.46946 0.00574 0.0
H1984 H 0.69982 0.4783 0.03335 0.0
C1985 C 0.73945 0.46666 0.08293 0.0
C1986 C 0.73146 0.48218 0.08974 0.0
C1987 C 0.73878 0.46354 0.06488 0.0
C1988 C 0.7124 0.47567 0.0258 0.0
H1989 H 0.75313 0.46454 0.94065 0.0
H1990 H 0.74858 0.45556 0.97168 0.0
H1991 H 0.6991 0.47821 0.00133 0.0
H1992 H 0.71575 0.50604 0.08313 0.0
H1993 H 0.71461 0.50068 0.052 0.0
H1994 H 0.7578 0.4672 0.03036 0.0
C1995 C 0.74046 0.46657 0.96643 0.0
C1996 C 0.71202 0.4757 0.00744 0.0
C1997 C 0.74292 0.4716 0.94855 0.0
C1998 C 0.7225 0.49423 0.07826 0.0
C1999 C 0.72156 0.49101 0.06044 0.0
C2000 C 0.74487 0.46924 0.02415 0.0
C2001 C 0.72838 0.4762 0.97754 0.0
C2002 C 0.72818 0.47317 0.9971 0.0
C2003 C 0.72968 0.47567 0.0535 0.0
C2004 C 0.7289 0.4729 0.03433 0.0
H2005 H 0.71232 0.50633 0.94705 0.0
H2006 H 0.70833 0.49786 0.97802 0.0
H2007 H 0.75732 0.46768 0.99829 0.0
H2008 H 0.74634 0.45707 0.0915 0.0
H2009 H 0.74514 0.45158 0.05985 0.0
C2010 C 0.75844 0.45288 0.20332 0.0
C2011 C 0.75107 0.46674 0.19268 0.0
C2012 C 0.76039 0.45495 0.22137 0.0
C2013 C 0.73818 0.47354 0.25835 0.0
H2014 H 0.78398 0.47613 0.28141 0.0
C2015 C 0.73888 0.48885 0.33198 0.0
C2016 C 0.75302 0.48166 0.34211 0.0
C2017 C 0.73957 0.48751 0.31366 0.0
C2018 C 0.77102 0.47511 0.27534 0.0
H2019 H 0.74027 0.49378 0.19268 0.0
H2020 H 0.74328 0.49711 0.22423 0.0
H2021 H 0.78406 0.47218 0.24969 0.0
H2022 H 0.77891 0.46725 0.34102 0.0
H2023 H 0.77976 0.46405 0.30928 0.0
H2024 H 0.72494 0.47555 0.28375 0.0
C2025 C 0.74779 0.4848 0.21848 0.0
C2026 C 0.77114 0.47298 0.25711 0.0
C2027 C 0.74621 0.48289 0.20041 0.0
C2028 C 0.76793 0.47316 0.33352 0.0
C2029 C 0.76842 0.4714 0.31523 0.0
C2030 C 0.73802 0.47524 0.2766 0.0
C2031 C 0.75466 0.47078 0.22914 0.0
C2032 C 0.75472 0.47238 0.24847 0.0
C2033 C 0.7542 0.47849 0.30497 0.0
C2034 C 0.75444 0.47627 0.28543 0.0
H2035 H 0.7622 0.44026 0.1978 0.0
H2036 H 0.76567 0.44394 0.2294 0.0
H2037 H 0.72533 0.47294 0.25194 0.0
H2038 H 0.72723 0.49553 0.33824 0.0
H2039 H 0.72856 0.49361 0.30638 0.0
C2040 C 0.76735 0.51648 0.58303 0.0
C2041 C 0.75326 0.50755 0.59253 0.0
C2042 C 0.7675 0.51821 0.56463 0.0
C2043 C 0.74764 0.49682 0.52675 0.0
H2044 H 0.77479 0.53267 0.49951 0.0
C2045 C 0.75215 0.50015 0.45069 0.0
C2046 C 0.7701 0.49815 0.4436 0.0
C2047 C 0.7489 0.50399 0.46839 0.0
C2048 C 0.76714 0.52261 0.50699 0.0
H2049 H 0.72746 0.49481 0.59022 0.0
H2050 H 0.72705 0.49884 0.55829 0.0
H2051 H 0.76984 0.53531 0.53128 0.0
H2052 H 0.79866 0.49961 0.44934 0.0
H2053 H 0.79289 0.50702 0.48022 0.0
H2054 H 0.74463 0.48446 0.50225 0.0
C2055 C 0.73852 0.50376 0.5649 0.0
C2056 C 0.76438 0.52401 0.52524 0.0
C2057 C 0.73858 0.50167 0.58329 0.0
C2058 C 0.7847 0.5011 0.45439 0.0
C2059 C 0.78141 0.50535 0.47203 0.0
C2060 C 0.75006 0.49567 0.50849 0.0
C2061 C 0.75336 0.51139 0.5552 0.0
C2062 C 0.75483 0.51097 0.53548 0.0
C2063 C 0.76349 0.50634 0.47929 0.0
C2064 C 0.76004 0.5084 0.49848 0.0
H2065 H 0.77899 0.52101 0.58967 0.0
H2066 H 0.77931 0.52399 0.55783 0.0
H2067 H 0.74063 0.48623 0.53402 0.0
H2068 H 0.74058 0.49782 0.44282 0.0
H2069 H 0.73496 0.50473 0.47368 0.0
C2070 C 0.74439 0.47594 0.8305 0.0
C2071 C 0.74501 0.48963 0.84238 0.0
C2072 C 0.7417 0.47977 0.8126 0.0
C2073 C 0.74922 0.5154 0.77883 0.0
H2074 H 0.7212 0.48629 0.74981 0.0
C2075 C 0.74667 0.5305 0.70411 0.0
C2076 C 0.74863 0.51593 0.69327 0.0
C2077 C 0.74301 0.52803 0.72226 0.0
C2078 C 0.72919 0.49449 0.75769 0.0
H2079 H 0.74255 0.5181 0.84479 0.0
H2080 H 0.73782 0.52474 0.81361 0.0
H2081 H 0.72063 0.48056 0.7817 0.0
H2082 H 0.74746 0.4873 0.69297 0.0
H2083 H 0.74136 0.48296 0.72458 0.0
H2084 H 0.75829 0.52898 0.75494 0.0
C2085 C 0.73957 0.51104 0.81812 0.0
C2086 C 0.72883 0.49121 0.77599 0.0
C2087 C 0.74213 0.50721 0.83604 0.0
C2088 C 0.74592 0.49886 0.70089 0.0
C2089 C 0.74238 0.49637 0.71908 0.0
C2090 C 0.74967 0.51861 0.76057 0.0
C2091 C 0.7397 0.49739 0.80611 0.0
C2092 C 0.73897 0.50154 0.78678 0.0
C2093 C 0.74135 0.51089 0.73009 0.0
C2094 C 0.73978 0.50811 0.74969 0.0
H2095 H 0.74657 0.46227 0.83491 0.0
H2096 H 0.74202 0.46894 0.80372 0.0
H2097 H 0.75746 0.52341 0.78668 0.0
H2098 H 0.74856 0.54384 0.69867 0.0
H2099 H 0.74188 0.53957 0.73022 0.0
C2100 C 0.48042 0.33577 0.75339 0.0
C2101 C 0.48937 0.34354 0.73833 0.0
C2102 C 0.47929 0.31732 0.75557 0.0
C2103 C 0.4778 0.27894 0.72808 0.0
H2104 H 0.47935 0.25116 0.77211 0.0
C2105 C 0.47479 0.20073 0.7518 0.0
C2106 C 0.45969 0.19579 0.74252 0.0
C2107 C 0.47887 0.21863 0.75305 0.0
C2108 C 0.47893 0.25875 0.75971 0.0
H2109 H 0.50547 0.33776 0.71451 0.0
H2110 H 0.50355 0.30572 0.71841 0.0
H2111 H 0.48759 0.28242 0.77116 0.0
H2112 H 0.43659 0.20595 0.72797 0.0
H2113 H 0.44373 0.23703 0.73014 0.0
H2114 H 0.46897 0.25544 0.71664 0.0
C2115 C 0.49714 0.31392 0.72837 0.0
C2116 C 0.48357 0.27665 0.75918 0.0
C2117 C 0.49839 0.33233 0.72624 0.0
C2118 C 0.44833 0.20921 0.73522 0.0
C2119 C 0.45251 0.22705 0.73632 0.0
C2120 C 0.47297 0.26117 0.72865 0.0
C2121 C 0.487 0.30622 0.74271 0.0
C2122 C 0.48305 0.28696 0.74334 0.0
C2123 C 0.46805 0.23197 0.7449 0.0
C2124 C 0.47337 0.25086 0.74448 0.0
H2125 H 0.47332 0.34393 0.76298 0.0
H2126 H 0.47137 0.31182 0.76676 0.0
H2127 H 0.477 0.28653 0.71571 0.0
H2128 H 0.48387 0.19076 0.75755 0.0
H2129 H 0.49096 0.222 0.75971 0.0
C2130 C 0.50103 0.91553 0.25661 0.0
C2131 C 0.51336 0.90561 0.26687 0.0
C2132 C 0.4985 0.93373 0.25866 0.0
C2133 C 0.51884 0.97268 0.27875 0.0
H2134 H 0.47119 0.99385 0.27011 0.0
C2135 C 0.49543 0.04519 0.29471 0.0
C2136 C 0.48782 0.05495 0.28054 0.0
C2137 C 0.49949 0.02703 0.2935 0.0
C2138 C 0.48458 0.98811 0.27252 0.0
H2139 H 0.53272 0.90686 0.28741 0.0
H2140 H 0.5278 0.93849 0.29161 0.0
H2141 H 0.47604 0.96206 0.26776 0.0
H2142 H 0.47869 0.05328 0.25391 0.0
H2143 H 0.48539 0.02161 0.25202 0.0
H2144 H 0.52698 -0.00109 0.28417 0.0
C2145 C 0.52044 0.93244 0.28153 0.0
C2146 C 0.48746 0.96987 0.27103 0.0
C2147 C 0.52324 0.91425 0.27919 0.0
C2148 C 0.48462 0.04621 0.26505 0.0
C2149 C 0.48833 0.02805 0.26399 0.0
C2150 C 0.51581 0.99091 0.2806 0.0
C2151 C 0.50796 0.94246 0.27133 0.0
C2152 C 0.50472 0.96187 0.27382 0.0
C2153 C 0.49565 0.01825 0.27824 0.0
C2154 C 0.49873 -0.00118 0.27723 0.0
H2155 H 0.49344 0.9092 0.24686 0.0
H2156 H 0.48916 0.94092 0.25016 0.0
H2157 H 0.53239 0.9672 0.28079 0.0
H2158 H 0.49804 0.05152 0.30682 0.0
H2159 H 0.5051 0.01975 0.30468 0.0
C2160 C 0.80693 0.75659 0.03311 0.0
C2161 C 0.81992 0.75207 0.01979 0.0
C2162 C 0.78851 0.75782 0.02971 0.0
C2163 C 0.75355 0.76773 0.00136 0.0
H2164 H 0.72687 0.73189 0.02916 0.0
C2165 C 0.67441 0.7583 0.00455 0.0
C2166 C 0.6668 0.7548 0.02163 0.0
C2167 C 0.69325 0.75988 0.00178 0.0
C2168 C 0.73413 0.74198 0.02134 0.0
H2169 H 0.82381 0.74646 0.99211 0.0
H2170 H 0.7911 0.74906 0.98608 0.0
H2171 H 0.76013 0.73032 0.02728 0.0
H2172 H 0.67272 0.75185 0.04932 0.0
H2173 H 0.70555 0.75459 0.04445 0.0
H2174 H 0.72739 0.77975 0.99599 0.0
C2175 C 0.79549 0.75138 0.99917 0.0
C2176 C 0.75308 0.74096 0.02011 0.0
C2177 C 0.81411 0.7499 0.00264 0.0
C2178 C 0.67816 0.7544 0.03601 0.0
C2179 C 0.69696 0.75583 0.03321 0.0
C2180 C 0.73445 0.76874 0.00256 0.0
C2181 C 0.78263 0.75487 0.01288 0.0
C2182 C 0.76291 0.75409 0.01057 0.0
C2183 C 0.7047 0.75785 0.01603 0.0
C2184 C 0.72467 0.75619 0.01308 0.0
H2185 H 0.81082 0.7584 0.04647 0.0
H2186 H 0.77874 0.76057 0.04042 0.0
H2187 H 0.76099 0.77807 0.99409 0.0
H2188 H 0.66594 0.75884 0.99323 0.0
H2189 H 0.69892 0.76156 0.98843 0.0
C2190 C 0.98931 0.05178 0.75681 0.0
C2191 C 0.99025 0.05908 0.73945 0.0
C2192 C 0.98723 0.03357 0.76005 0.0
C2193 C 0.99609 0.99145 0.73788 0.0
H2194 H 0.97121 0.97099 0.77967 0.0
C2195 C 0.9944 0.91585 0.75125 0.0
C2196 C -0.00105 0.90981 0.7683 0.0
C2197 C 0.99046 0.93382 0.74758 0.0
C2198 C 0.97827 0.97651 0.76796 0.0
H2199 H 0.98846 0.05304 0.71198 0.0
H2200 H 0.98433 0.02139 0.71765 0.0
H2201 H 0.96897 0.00292 0.77335 0.0
H2202 H 0.00206 0.91782 0.79502 0.0
H2203 H 0.99509 0.94911 0.78862 0.0
H2204 H 0.00555 0.96511 0.73259 0.0
C2205 C 0.98571 0.02967 0.72876 0.0
C2206 C 0.97701 0.99483 0.76435 0.0
C2207 C 0.98789 0.04788 0.72551 0.0
C2208 C -0.00139 0.92202 0.78175 0.0
C2209 C 0.99454 0.93996 0.77809 0.0
C2210 C -0.00274 0.97317 0.74144 0.0
C2211 C 0.98592 0.02219 0.74603 0.0
C2212 C 0.98605 0.00257 0.74933 0.0
C2213 C 0.99084 0.94615 0.76087 0.0
C2214 C 0.98851 0.96548 0.75661 0.0
H2215 H 0.99116 0.05997 0.7679 0.0
H2216 H 0.98761 0.02834 0.77352 0.0
H2217 H 0.00359 0.99691 0.7264 0.0
H2218 H 0.99456 0.90684 0.74056 0.0
H2219 H 0.98742 0.93811 0.73423 0.0
C2220 C 0.68394 0.25108 0.49999 0.0
C2221 C 0.6744 0.24671 0.51595 0.0
C2222 C 0.70293 0.24887 0.49849 0.0
C2223 C 0.74345 0.2303 0.52248 0.0
H2224 H 0.76793 0.26918 0.4973 0.0
C2225 C 0.81605 0.25515 0.53489 0.0
C2226 C 0.82758 0.25775 0.51979 0.0
C2227 C 0.79791 0.25043 0.53331 0.0
C2228 C 0.76127 0.25815 0.50423 0.0
H2229 H 0.67729 0.23553 0.5425 0.0
H2230 H 0.71012 0.23234 0.54016 0.0
H2231 H 0.73506 0.26688 0.49583 0.0
H2232 H 0.82933 0.25661 0.49125 0.0
H2233 H 0.7976 0.24891 0.48857 0.0
H2234 H 0.7698 0.22238 0.53173 0.0
C2235 C 0.7031 0.23712 0.52859 0.0
C2236 C 0.74242 0.2567 0.50329 0.0
C2237 C 0.68415 0.23906 0.52999 0.0
C2238 C 0.82082 0.25479 0.50317 0.0
C2239 C 0.80266 0.25042 0.50158 0.0
C2240 C 0.76228 0.23199 0.52371 0.0
C2241 C 0.71284 0.24248 0.51301 0.0
C2242 C 0.73318 0.24286 0.51256 0.0
C2243 C 0.79097 0.24852 0.51659 0.0
C2244 C 0.77129 0.246 0.51468 0.0
H2245 H 0.67683 0.25687 0.48887 0.0
H2246 H 0.70988 0.25271 0.48611 0.0
H2247 H 0.73695 0.21926 0.52952 0.0
H2248 H 0.82087 0.2573 0.54787 0.0
H2249 H 0.78908 0.24909 0.54506 0.0
C2250 C 0.23994 0.49712 0.04327 0.0
C2251 C 0.25412 0.49965 0.05467 0.0
C2252 C 0.24329 0.49749 0.02508 0.0
C2253 C 0.26823 0.51773 0.9896 0.0
H2254 H 0.25678 0.47714 0.96303 0.0
C2255 C 0.27007 0.52202 0.91348 0.0
C2256 C 0.25686 0.51274 0.90508 0.0
C2257 C 0.27254 0.51918 0.93153 0.0
C2258 C 0.25984 0.48869 0.97017 0.0
H2259 H 0.28296 0.50444 0.05598 0.0
H2260 H 0.28865 0.50612 0.02369 0.0
H2261 H 0.25622 0.4746 0.99516 0.0
H2262 H 0.2358 0.49336 0.9089 0.0
H2263 H 0.23938 0.48893 0.94052 0.0
H2264 H 0.27054 0.5323 0.96495 0.0
C2265 C 0.27503 0.50355 0.02908 0.0
C2266 C 0.25974 0.48712 0.98857 0.0
C2267 C 0.27178 0.50266 0.04745 0.0
C2268 C 0.24616 0.50057 0.91506 0.0
C2269 C 0.24837 0.49796 0.93318 0.0
C2270 C 0.26796 0.51943 0.97121 0.0
C2271 C 0.26079 0.50077 0.01781 0.0
C2272 C 0.26368 0.5017 0.99843 0.0
C2273 C 0.26159 0.50725 0.94172 0.0
C2274 C 0.26342 0.50502 0.96122 0.0
H2275 H 0.22627 0.49438 0.04844 0.0
H2276 H 0.23211 0.49537 0.01664 0.0
H2277 H 0.27105 0.52921 0.99698 0.0
H2278 H 0.27871 0.53132 0.90606 0.0
H2279 H 0.28312 0.52631 0.93743 0.0
C2280 C 0.25956 0.54535 0.78952 0.0
C2281 C 0.25262 0.5338 0.80305 0.0
C2282 C 0.25732 0.54194 0.77185 0.0
C2283 C 0.23058 0.5223 0.74008 0.0
H2284 H 0.27625 0.51349 0.71396 0.0
C2285 C 0.23222 0.5066 0.66572 0.0
C2286 C 0.24709 0.51276 0.65513 0.0
C2287 C 0.23224 0.50736 0.68415 0.0
C2288 C 0.26332 0.51622 0.72084 0.0
H2289 H 0.23701 0.5101 0.80856 0.0
H2290 H 0.23257 0.50451 0.77746 0.0
H2291 H 0.27644 0.51956 0.74506 0.0
H2292 H 0.27355 0.52464 0.65562 0.0
H2293 H 0.27321 0.52702 0.68716 0.0
H2294 H 0.21742 0.52002 0.71577 0.0
C2295 C 0.23996 0.51605 0.78071 0.0
C2296 C 0.26349 0.51952 0.73876 0.0
C2297 C 0.24251 0.51926 0.79847 0.0
C2298 C 0.26197 0.51958 0.66335 0.0
C2299 C 0.2618 0.52079 0.68162 0.0
C2300 C 0.23041 0.51942 0.72197 0.0
C2301 C 0.24777 0.52712 0.76727 0.0
C2302 C 0.24716 0.52273 0.74851 0.0
C2303 C 0.24696 0.51471 0.6924 0.0
C2304 C 0.24683 0.51655 0.71199 0.0
H2305 H 0.26746 0.55664 0.79252 0.0
H2306 H 0.26339 0.5507 0.7617 0.0
H2307 H 0.21782 0.52479 0.74736 0.0
H2308 H 0.22055 0.50124 0.65977 0.0
H2309 H 0.22068 0.50221 0.69188 0.0
C2310 C 0.21684 0.49175 0.54526 0.0
C2311 C 0.23111 0.49758 0.55513 0.0
C2312 C 0.21958 0.48896 0.52722 0.0
C2313 C 0.24716 0.50519 0.48913 0.0
H2314 H 0.22899 0.46532 0.46545 0.0
C2315 C 0.25626 0.50245 0.41388 0.0
C2316 C 0.24161 0.4963 0.40477 0.0
C2317 C 0.25692 0.49974 0.43217 0.0
C2318 C 0.23399 0.47666 0.47177 0.0
H2319 H 0.25965 0.5045 0.5538 0.0
H2320 H 0.26433 0.49977 0.52235 0.0
H2321 H 0.22603 0.46601 0.49755 0.0
H2322 H 0.21651 0.48185 0.4077 0.0
H2323 H 0.21728 0.4776 0.43957 0.0
H2324 H 0.25433 0.51638 0.46361 0.0
C2325 C 0.25103 0.49735 0.52859 0.0
C2326 C 0.23236 0.47699 0.49021 0.0
C2327 C 0.24837 0.4999 0.54666 0.0
C2328 C 0.22813 0.48654 0.41427 0.0
C2329 C 0.22858 0.48413 0.43264 0.0
C2330 C 0.24855 0.50501 0.47073 0.0
C2331 C 0.23659 0.49216 0.5186 0.0
C2332 C 0.23891 0.49127 0.49909 0.0
C2333 C 0.24271 0.49117 0.44195 0.0
C2334 C 0.24198 0.49076 0.46171 0.0
H2335 H 0.20337 0.4899 0.55134 0.0
H2336 H 0.20815 0.48507 0.51987 0.0
H2337 H 0.25205 0.51655 0.49554 0.0
H2338 H 0.2669 0.50996 0.40693 0.0
H2339 H 0.26835 0.50487 0.43867 0.0
C2340 C 0.24648 0.50035 0.29481 0.0
C2341 C 0.24254 0.48371 0.30285 0.0
C2342 C 0.24992 0.50222 0.27657 0.0
C2343 C 0.241 0.47932 0.23564 0.0
H2344 H 0.27106 0.5161 0.21351 0.0
C2345 C 0.24878 0.48877 0.16003 0.0
C2346 C 0.2453 0.50615 0.15343 0.0
C2347 C 0.25162 0.48536 0.17797 0.0
C2348 C 0.2626 0.50578 0.21951 0.0
H2349 H 0.24028 0.45582 0.29816 0.0
H2350 H 0.24705 0.45891 0.26653 0.0
H2351 H 0.27068 0.51097 0.24547 0.0
H2352 H 0.24314 0.53366 0.16036 0.0
H2353 H 0.24838 0.52773 0.19159 0.0
H2354 H 0.23294 0.47415 0.20969 0.0
C2355 C 0.24685 0.47067 0.27416 0.0
C2356 C 0.26231 0.50286 0.23786 0.0
C2357 C 0.24316 0.46884 0.29237 0.0
C2358 C 0.24577 0.52012 0.165 0.0
C2359 C 0.24883 0.51673 0.1829 0.0
C2360 C 0.24146 0.4821 0.21732 0.0
C2361 C 0.24974 0.48746 0.2659 0.0
C2362 C 0.2513 0.48974 0.24623 0.0
C2363 C 0.25128 0.49927 0.18968 0.0
C2364 C 0.25208 0.4955 0.20904 0.0
H2365 H 0.24592 0.51213 0.30246 0.0
H2366 H 0.25185 0.51541 0.27078 0.0
H2367 H 0.23202 0.46936 0.24151 0.0
H2368 H 0.24847 0.47767 0.15153 0.0
H2369 H 0.25366 0.47178 0.18275 0.0
C2370 C 0.52519 0.79821 0.24691 0.0
C2371 C 0.54034 0.80233 0.25656 0.0
C2372 C 0.52033 0.78057 0.24532 0.0
C2373 C 0.51736 0.74061 0.23903 0.0
H2374 H 0.51846 0.71312 0.28325 0.0
C2375 C 0.51106 0.66395 0.24664 0.0
C2376 C 0.50293 0.65689 0.26245 0.0
C2377 C 0.51278 0.68229 0.24387 0.0
C2378 C 0.51784 0.72063 0.27082 0.0
H2379 H 0.56295 0.79095 0.27105 0.0
H2380 H 0.55452 0.76031 0.26817 0.0
H2381 H 0.52861 0.74349 0.28181 0.0
H2382 H 0.48838 0.66373 0.28678 0.0
H2383 H 0.49108 0.6956 0.28178 0.0
H2384 H 0.50662 0.71754 0.22807 0.0
C2385 C 0.54624 0.77074 0.26207 0.0
C2386 C 0.52394 0.73799 0.26994 0.0
C2387 C 0.55117 0.78833 0.26357 0.0
C2388 C 0.49493 0.66867 0.27455 0.0
C2389 C 0.49662 0.68696 0.27176 0.0
C2390 C 0.51139 0.72309 0.23987 0.0
C2391 C 0.53045 0.76668 0.25342 0.0
C2392 C 0.5239 0.74817 0.25403 0.0
C2393 C 0.50635 0.69395 0.25682 0.0
C2394 C 0.51158 0.7129 0.2558 0.0
H2395 H 0.51652 0.80863 0.24134 0.0
H2396 H 0.50808 0.77788 0.23857 0.0
H2397 H 0.51716 0.74812 0.22658 0.0
H2398 H 0.5174 0.6553 0.23703 0.0
H2399 H 0.52033 0.68723 0.2322 0.0
C2400 C 0.0522 0.31722 0.30351 0.0
C2401 C 0.05363 0.335 0.29765 0.0
C2402 C 0.06313 0.31021 0.31679 0.0
C2403 C 0.08629 0.32528 0.3549 0.0
H2404 H 0.09878 0.27527 0.36062 0.0
C2405 C 0.11179 0.29019 0.41978 0.0
C2406 C 0.09958 0.27708 0.42583 0.0
C2407 C 0.11056 0.29791 0.40276 0.0
C2408 C 0.09557 0.28931 0.35909 0.0
H2409 H 0.0687 0.35902 0.3001 0.0
H2410 H 0.08798 0.34669 0.32313 0.0
H2411 H 0.08994 0.2875 0.33189 0.0
H2412 H 0.07701 0.26124 0.41888 0.0
H2413 H 0.07522 0.27433 0.38911 0.0
H2414 H 0.09155 0.32687 0.38231 0.0
C2415 C 0.07812 0.33826 0.31772 0.0
C2416 C 0.09042 0.2963 0.34271 0.0
C2417 C 0.06714 0.34529 0.30445 0.0
C2418 C 0.08639 0.27155 0.4146 0.0
C2419 C 0.0855 0.27887 0.39754 0.0
C2420 C 0.09169 0.31831 0.37124 0.0
C2421 C 0.07582 0.32082 0.32446 0.0
C2422 C 0.08497 0.31422 0.34061 0.0
C2423 C 0.09752 0.29212 0.39148 0.0
C2424 C 0.09568 0.30015 0.37359 0.0
H2425 H 0.042 0.30891 0.29849 0.0
H2426 H 0.06083 0.29678 0.32174 0.0
H2427 H 0.08201 0.3391 0.35384 0.0
H2428 H 0.12212 0.29456 0.42824 0.0
H2429 H 0.1199 0.30819 0.39833 0.0
C2430 C 0.94654 0.82441 0.6877 0.0
C2431 C 0.95821 0.83861 0.68924 0.0
C2432 C 0.94118 0.81973 0.67119 0.0
C2433 C 0.94012 0.83357 0.62378 0.0
H2434 H 0.94316 0.78281 0.61826 0.0
C2435 C 0.93528 0.77634 0.56833 0.0
C2436 C 0.91919 0.78231 0.56042 0.0
C2437 C 0.94213 0.78549 0.58208 0.0
C2438 C 0.94253 0.79704 0.61943 0.0
H2439 H 0.97241 0.85981 0.67475 0.0
H2440 H 0.96319 0.8515 0.64584 0.0
H2441 H 0.9493 0.79465 0.64644 0.0
H2442 H 0.89864 0.8035 0.55961 0.0
H2443 H 0.91031 0.81919 0.58376 0.0
H2444 H 0.93355 0.83587 0.59656 0.0
C2445 C 0.95807 0.84406 0.65743 0.0
C2446 C 0.94571 0.80382 0.63573 0.0
C2447 C 0.96333 0.84885 0.67401 0.0
C2448 C 0.91098 0.79843 0.56553 0.0
C2449 C 0.91775 0.80751 0.57935 0.0
C2450 C 0.93693 0.82676 0.60738 0.0
C2451 C 0.94752 0.82902 0.6558 0.0
C2452 C 0.9443 0.82213 0.63821 0.0
C2453 C 0.93296 0.80075 0.58827 0.0
C2454 C 0.93795 0.80838 0.60506 0.0
H2455 H 0.94223 0.81637 0.69921 0.0
H2456 H 0.9326 0.80838 0.67044 0.0
H2457 H 0.93895 0.84774 0.62524 0.0
H2458 H 0.94209 0.7641 0.56454 0.0
H2459 H 0.95418 0.78018 0.58836 0.0
C2460 C 0.45337 0.69262 0.81466 0.0
C2461 C 0.45023 0.67445 0.81382 0.0
C2462 C 0.44392 0.70259 0.82739 0.0
C2463 C 0.40425 0.70342 0.85875 0.0
H2464 H 0.43716 0.72203 0.89149 0.0
C2465 C 0.38098 0.73659 0.92408 0.0
C2466 C 0.39023 0.73017 0.93897 0.0
C2467 C 0.38685 0.73164 0.90721 0.0
C2468 C 0.42781 0.71699 0.8824 0.0
H2469 H 0.4341 0.65267 0.82458 0.0
H2470 H 0.4171 0.67017 0.84627 0.0
H2471 H 0.44925 0.71152 0.86323 0.0
H2472 H 0.41258 0.71314 0.94783 0.0
H2473 H 0.4228 0.70458 0.91838 0.0
H2474 H 0.38286 0.70848 0.87816 0.0
C2475 C 0.42693 0.6767 0.83732 0.0
C2476 C 0.43469 0.71119 0.86617 0.0
C2477 C 0.43668 0.66668 0.82497 0.0
C2478 C 0.4051 0.71827 0.93667 0.0
C2479 C 0.41109 0.71352 0.9198 0.0
C2480 C 0.39732 0.7095 0.87488 0.0
C2481 C 0.43088 0.69458 0.83905 0.0
C2482 C 0.42304 0.70389 0.85443 0.0
C2483 C 0.4022 0.72038 0.90491 0.0
C2484 C 0.40913 0.71582 0.88706 0.0
H2485 H 0.46392 0.69882 0.80629 0.0
H2486 H 0.44721 0.71635 0.82854 0.0
H2487 H 0.39502 0.69782 0.84988 0.0
H2488 H 0.36951 0.74583 0.92541 0.0
H2489 H 0.37976 0.73708 0.89592 0.0
C2490 C 0.59368 0.17579 0.06395 0.0
C2491 C 0.58713 0.18963 0.05285 0.0
C2492 C 0.58263 0.16891 0.07787 0.0
C2493 C 0.55149 0.18647 0.10936 0.0
H2494 H 0.54191 0.13826 0.12592 0.0
C2495 C 0.51397 0.17229 0.17599 0.0
C2496 C 0.5182 0.15666 0.18577 0.0
C2497 C 0.52122 0.17512 0.1589 0.0
C2498 C 0.54473 0.15178 0.12163 0.0
H2499 H 0.56361 0.20631 0.04665 0.0
H2500 H 0.54442 0.19464 0.07145 0.0
H2501 H 0.55533 0.14398 0.09623 0.0
H2502 H 0.53374 0.1319 0.18553 0.0
H2503 H 0.54746 0.13732 0.15596 0.0
H2504 H 0.54231 0.19442 0.13482 0.0
C2505 C 0.55798 0.18895 0.06916 0.0
C2506 C 0.55216 0.15502 0.10455 0.0
C2507 C 0.5689 0.19554 0.05497 0.0
C2508 C 0.53029 0.1441 0.17828 0.0
C2509 C 0.53794 0.14713 0.16124 0.0
C2510 C 0.54451 0.18324 0.1265 0.0
C2511 C 0.56503 0.17607 0.08109 0.0
C2512 C 0.55553 0.17241 0.09831 0.0
C2513 C 0.53332 0.16261 0.15123 0.0
C2514 C 0.54097 0.16586 0.13291 0.0
H2515 H 0.60772 0.17107 0.06253 0.0
H2516 H 0.58837 0.15907 0.08697 0.0
H2517 H 0.55442 0.19996 0.10496 0.0
H2518 H 0.5044 0.18209 0.18123 0.0
H2519 H 0.5169 0.18698 0.15157 0.0
C2520 C 0.04244 0.67376 0.21233 0.0
C2521 C 0.03277 0.65852 0.20954 0.0
C2522 C 0.04766 0.68504 0.19803 0.0
C2523 C 0.04005 0.69498 0.15053 0.0
H2524 H 0.08959 0.71175 0.14969 0.0
C2525 C 0.09136 0.71966 0.09208 0.0
C2526 C 0.08569 0.73725 0.08826 0.0
C2527 C 0.08483 0.71076 0.1075 0.0
C2528 C 0.07576 0.70709 0.14985 0.0
H2529 H 0.02102 0.64274 0.1901 0.0
H2530 H 0.03047 0.66207 0.16507 0.0
H2531 H 0.07717 0.69568 0.17599 0.0
H2532 H 0.06933 0.75952 0.09774 0.0
H2533 H 0.05796 0.74384 0.12464 0.0
H2534 H 0.0389 0.70626 0.12421 0.0
C2535 C 0.03358 0.66578 0.17818 0.0
C2536 C 0.06855 0.6981 0.1649 0.0
C2537 C 0.02821 0.65468 0.19246 0.0
C2538 C 0.0737 0.74587 0.10022 0.0
C2539 C 0.06724 0.737 0.1156 0.0
C2540 C 0.04725 0.70402 0.13553 0.0
C2541 C 0.04359 0.68097 0.18076 0.0
C2542 C 0.05068 0.69178 0.16535 0.0
C2543 C 0.07267 0.71939 0.11924 0.0
C2544 C 0.06517 0.70995 0.13508 0.0
H2545 H 0.04614 0.67679 0.22547 0.0
H2546 H 0.05514 0.69677 0.20046 0.0
H2547 H 0.02617 0.69045 0.15052 0.0
H2548 H 0.10055 0.71272 0.08304 0.0
H2549 H 0.08904 0.69709 0.11016 0.0
C2550 C 0.59161 0.78087 0.44896 0.0
C2551 C 0.60497 0.79284 0.45299 0.0
C2552 C 0.57937 0.78527 0.43581 0.0
C2553 C 0.56209 0.82247 0.4069 0.0
H2554 H 0.55988 0.78611 0.3727 0.0
C2555 C 0.54796 0.83791 0.334 0.0
C2556 C 0.53741 0.82614 0.32523 0.0
C2557 C 0.55283 0.834 0.3513 0.0
C2558 C 0.56004 0.79631 0.38225 0.0
H2559 H 0.61521 0.81922 0.44725 0.0
H2560 H 0.59408 0.82678 0.42426 0.0
H2561 H 0.57366 0.77909 0.40071 0.0
H2562 H 0.52318 0.80131 0.32791 0.0
H2563 H 0.53171 0.79451 0.35813 0.0
H2564 H 0.54904 0.83985 0.38806 0.0
C2565 C 0.59291 0.81406 0.43129 0.0
C2566 C 0.5679 0.79228 0.39835 0.0
C2567 C 0.60511 0.80968 0.44441 0.0
C2568 C 0.53156 0.81053 0.33422 0.0
C2569 C 0.53641 0.80664 0.35153 0.0
C2570 C 0.55424 0.82651 0.39077 0.0
C2571 C 0.58024 0.80173 0.42649 0.0
C2572 C 0.56941 0.80542 0.41068 0.0
C2573 C 0.54722 0.81827 0.36021 0.0
C2574 C 0.55353 0.81357 0.37811 0.0
H2575 H 0.59101 0.76788 0.45552 0.0
H2576 H 0.56957 0.7756 0.43259 0.0
H2577 H 0.56281 0.8328 0.41626 0.0
H2578 H 0.55262 0.85007 0.32745 0.0
H2579 H 0.56139 0.84311 0.35755 0.0
C2580 C 0.42213 0.37059 0.66322 0.0
C2581 C 0.43542 0.3626 0.67382 0.0
C2582 C 0.40951 0.3603 0.65548 0.0
C2583 C 0.39455 0.31358 0.65144 0.0
H2584 H 0.39102 0.32957 0.60254 0.0
C2585 C 0.39075 0.26818 0.59294 0.0
C2586 C 0.38026 0.27402 0.5787 0.0
C2587 C 0.39193 0.27866 0.60749 0.0
C2588 C 0.39149 0.32504 0.61623 0.0
H2589 H 0.44543 0.3378 0.68557 0.0
H2590 H 0.42427 0.31961 0.6711 0.0
H2591 H 0.40291 0.3491 0.62321 0.0
H2592 H 0.36171 0.29474 0.56909 0.0
H2593 H 0.36394 0.31307 0.59443 0.0
H2594 H 0.38428 0.28889 0.64377 0.0
C2595 C 0.423 0.33386 0.66922 0.0
C2596 C 0.39826 0.3363 0.62819 0.0
C2597 C 0.43527 0.34425 0.67742 0.0
C2598 C 0.37015 0.29002 0.57973 0.0
C2599 C 0.37136 0.30049 0.59424 0.0
C2600 C 0.38798 0.30217 0.63934 0.0
C2601 C 0.41042 0.34171 0.6576 0.0
C2602 C 0.40031 0.33061 0.64587 0.0
C2603 C 0.38266 0.29514 0.60802 0.0
C2604 C 0.38679 0.30771 0.62155 0.0
H2605 H 0.42187 0.38476 0.66041 0.0
H2606 H 0.39963 0.36687 0.6471 0.0
H2607 H 0.39565 0.30886 0.66501 0.0
H2608 H 0.39849 0.25579 0.59263 0.0
H2609 H 0.40086 0.2743 0.61787 0.0
C2610 C 0.96373 0.12126 0.83891 0.0
C2611 C 0.98043 0.12973 0.83588 0.0
C2612 C 0.95316 0.1242 0.85431 0.0
C2613 C 0.94984 0.13717 0.89888 0.0
H2614 H 0.9132 0.17253 0.88562 0.0
C2615 C 0.91437 0.18454 0.94847 0.0
C2616 C 0.89732 0.19198 0.94432 0.0
C2617 C 0.92343 0.17293 0.93694 0.0
C2618 C 0.9229 0.1623 0.88971 0.0
H2619 H -4e-05 0.14661 0.84701 0.0
H2620 H 0.98157 0.15141 0.87408 0.0
H2621 H 0.93118 0.15775 0.86293 0.0
H2622 H 0.8756 0.19213 0.92595 0.0
H2623 H 0.89047 0.17094 0.90682 0.0
H2624 H 0.94152 0.14159 0.92573 0.0
C2625 C 0.97665 0.14268 0.86451 0.0
C2626 C 0.93327 0.15392 0.87662 0.0
C2627 C 0.98701 0.1401 0.84898 0.0
C2628 C 0.88891 0.18677 0.92927 0.0
C2629 C 0.89756 0.17473 0.91819 0.0
C2630 C 0.93911 0.14527 0.91209 0.0
C2631 C 0.95946 0.13518 0.86701 0.0
C2632 C 0.94698 0.14157 0.8811 0.0
C2633 C 0.9153 0.16827 0.92138 0.0
C2634 C 0.92569 0.15819 0.90766 0.0
H2635 H 0.95839 0.1132 0.82899 0.0
H2636 H 0.93976 0.11853 0.85598 0.0
H2637 H 0.96054 0.12773 0.90251 0.0
H2638 H 0.92109 0.18845 0.96003 0.0
H2639 H 0.93711 0.16834 0.93983 0.0
C2640 C 0.27998 0.05107 0.34626 0.0
C2641 C 0.28471 0.04051 0.36111 0.0
C2642 C 0.29325 0.06115 0.33686 0.0
C2643 C 0.33947 0.07909 0.34041 0.0
H2644 H 0.34625 0.06999 0.29075 0.0
C2645 C 0.40424 0.10044 0.29984 0.0
C2646 C 0.41236 0.08711 0.28955 0.0
C2647 C 0.38659 0.09856 0.30728 0.0
C2648 C 0.34448 0.07274 0.30459 0.0
H2649 H 0.30685 0.0327 0.37807 0.0
H2650 H 0.32957 0.05026 0.36203 0.0
H2651 H 0.3184 0.0606 0.30689 0.0
H2652 H 0.40817 0.06154 0.27871 0.0
H2653 H 0.37759 0.05816 0.29185 0.0
H2654 H 0.36595 0.09027 0.33843 0.0
C2655 C 0.31574 0.05091 0.35758 0.0
C2656 C 0.32843 0.06757 0.31376 0.0
C2657 C 0.30269 0.0407 0.3667 0.0
C2658 C 0.40236 0.07201 0.28664 0.0
C2659 C 0.38472 0.07017 0.29401 0.0
C2660 C 0.35547 0.08429 0.33124 0.0
C2661 C 0.31129 0.06106 0.34242 0.0
C2662 C 0.32609 0.07009 0.33192 0.0
C2663 C 0.37666 0.08336 0.3045 0.0
C2664 C 0.35845 0.08058 0.31338 0.0
H2665 H 0.26624 0.05112 0.34162 0.0
H2666 H 0.28949 0.06886 0.32517 0.0
H2667 H 0.33793 0.08136 0.35437 0.0
H2668 H 0.41156 0.11228 0.30224 0.0
H2669 H 0.38071 0.10899 0.31523 0.0
C2670 C 0.18831 0.05082 0.58583 0.0
C2671 C 0.18808 0.05102 0.60426 0.0
C2672 C 0.17696 0.06245 0.57634 0.0
C2673 C 0.15392 0.10582 0.58153 0.0
H2674 H 0.13857 0.09772 0.53448 0.0
C2675 C 0.12445 0.16193 0.53668 0.0
C2676 C 0.13404 0.16359 0.5203 0.0
C2677 C 0.12666 0.14665 0.54746 0.0
C2678 C 0.14266 0.10009 0.54767 0.0
H2679 H 0.17479 0.06219 0.62741 0.0
H2680 H 0.15439 0.08202 0.6109 0.0
H2681 H 0.1495 0.07276 0.55297 0.0
H2682 H 0.15292 0.15038 0.50208 0.0
H2683 H 0.1567 0.12375 0.52087 0.0
H2684 H 0.14736 0.13318 0.57607 0.0
C2685 C 0.16381 0.07344 0.60368 0.0
C2686 C 0.149 0.08586 0.55822 0.0
C2687 C 0.17541 0.06205 0.61315 0.0
C2688 C 0.1454 0.1495 0.51466 0.0
C2689 C 0.14743 0.13419 0.52533 0.0
C2690 C 0.14737 0.11998 0.57107 0.0
C2691 C 0.16494 0.07427 0.58515 0.0
C2692 C 0.15526 0.08864 0.57507 0.0
C2693 C 0.13829 0.13272 0.54191 0.0
C2694 C 0.14222 0.11732 0.55387 0.0
H2695 H 0.198 0.04244 0.57868 0.0
H2696 H 0.1784 0.06284 0.5621 0.0
H2697 H 0.15889 0.10857 0.59429 0.0
H2698 H 0.11559 0.17258 0.54135 0.0
H2699 H 0.11947 0.14579 0.56021 0.0
C2700 C 0.17117 0.93973 0.84689 0.0
C2701 C 0.16496 0.94723 0.86273 0.0
C2702 C 0.16096 0.92694 0.83931 0.0
C2703 C 0.11351 0.91373 0.83803 0.0
H2704 H 0.13366 0.87365 0.81288 0.0
C2705 C 0.06656 0.8689 0.80309 0.0
C2706 C 0.07219 0.86464 0.78586 0.0
C2707 C 0.0788 0.876 0.81424 0.0
C2708 C 0.12785 0.88484 0.81979 0.0
H2709 H 0.14391 0.94628 0.88368 0.0
H2710 H 0.12621 0.92394 0.87051 0.0
H2711 H 0.15375 0.89156 0.8293 0.0
H2712 H 0.0953 0.86369 0.76708 0.0
H2713 H 0.11654 0.8765 0.78639 0.0
H2714 H 0.08781 0.90753 0.82818 0.0
C2715 C 0.13873 0.92822 0.86375 0.0
C2716 C 0.13935 0.89507 0.8292 0.0
C2717 C 0.14889 0.94101 0.8713 0.0
C2718 C 0.09053 0.86685 0.78029 0.0
C2719 C 0.10275 0.87411 0.7914 0.0
C2720 C 0.10208 0.90359 0.82861 0.0
C2721 C 0.14439 0.92139 0.84744 0.0
C2722 C 0.13229 0.9097 0.83832 0.0
C2723 C 0.09689 0.87919 0.80835 0.0
C2724 C 0.10909 0.88908 0.81928 0.0
H2725 H 0.18357 0.94418 0.84003 0.0
H2726 H 0.16564 0.92199 0.82669 0.0
H2727 H 0.1077 0.92513 0.84459 0.0
H2728 H 0.05257 0.86715 0.80785 0.0
H2729 H 0.07394 0.87939 0.82735 0.0
C2730 C 0.33409 0.84498 0.03267 0.0
C2731 C 0.34848 0.8341 0.03882 0.0
C2732 C 0.33051 0.86161 0.03944 0.0
C2733 C 0.35048 0.89646 0.06523 0.0
H2734 H 0.2998 0.91192 0.07076 0.0
C2735 C 0.32198 0.95188 0.1098 0.0
C2736 C 0.30763 0.96274 0.10363 0.0
C2737 C 0.32967 0.93853 0.0995 0.0
C2738 C 0.31404 0.90795 0.06899 0.0
H2739 H 0.37047 0.83219 0.05694 0.0
H2740 H 0.36378 0.86112 0.06937 0.0
H2741 H 0.30728 0.88318 0.05896 0.0
H2742 H 0.29031 0.96862 0.08177 0.0
H2743 H 0.30365 0.9451 0.06365 0.0
H2744 H 0.35699 0.9211 0.0762 0.0
C2745 C 0.3555 0.85691 0.05897 0.0
C2746 C 0.31837 0.89142 0.06223 0.0
C2747 C 0.35924 0.84026 0.05198 0.0
C2748 C 0.30172 0.96073 0.08657 0.0
C2749 C 0.30919 0.94714 0.07635 0.0
C2750 C 0.3461 0.91296 0.07224 0.0
C2751 C 0.34104 0.86779 0.05278 0.0
C2752 C 0.33664 0.88543 0.06021 0.0
C2753 C 0.32277 0.93551 0.08301 0.0
C2754 C 0.32782 0.91886 0.07415 0.0
H2755 H 0.3257 0.84082 0.02232 0.0
H2756 H 0.31958 0.86972 0.03399 0.0
H2757 H 0.3647 0.89243 0.06366 0.0
H2758 H 0.32635 0.95285 0.12309 0.0
H2759 H 0.33995 0.92967 0.10507 0.0
C2760 C 0.42525 0.8875 0.23127 0.0
C2761 C 0.43389 0.90243 0.23711 0.0
C2762 C 0.40768 0.88908 0.22496 0.0
C2763 C 0.36714 0.91942 0.22465 0.0
H2764 H 0.35959 0.90077 0.17895 0.0
C2765 C 0.31263 0.9502 0.18101 0.0
C2766 C 0.32151 0.95705 0.16553 0.0
C2767 C 0.32117 0.93693 0.19136 0.0
C2768 C 0.36129 0.90572 0.19192 0.0
H2769 H 0.43115 0.93074 0.24038 0.0
H2770 H 0.40081 0.93358 0.22888 0.0
H2771 H 0.38616 0.89082 0.19512 0.0
H2772 H 0.34559 0.95466 0.14811 0.0
H2773 H 0.36025 0.93162 0.16585 0.0
H2774 H 0.34322 0.93556 0.22068 0.0
C2775 C 0.40734 0.92056 0.22971 0.0
C2776 C 0.37648 0.90001 0.2012 0.0
C2777 C 0.42485 0.91899 0.23604 0.0
C2778 C 0.33842 0.94969 0.15999 0.0
C2779 C 0.34674 0.93629 0.17007 0.0
C2780 C 0.35199 0.92517 0.21535 0.0
C2781 C 0.39847 0.90559 0.22436 0.0
C2782 C 0.38014 0.9077 0.21709 0.0
C2783 C 0.3385 0.93014 0.18612 0.0
C2784 C 0.34966 0.91926 0.19837 0.0
H2785 H 0.43182 0.87451 0.23207 0.0
H2786 H 0.4012 0.87735 0.22083 0.0
H2787 H 0.36939 0.92516 0.23715 0.0
H2788 H 0.29952 0.95563 0.18554 0.0
H2789 H 0.3146 0.93245 0.20373 0.0
C2790 C 0.3543 0.14751 0.49028 0.0
C2791 C 0.35147 0.16507 0.48397 0.0
C2792 C 0.34756 0.1335 0.48142 0.0
C2793 C 0.30994 0.12506 0.45385 0.0
H2794 H 0.33369 0.07904 0.44827 0.0
C2795 C 0.26984 0.06626 0.43379 0.0
C2796 C 0.27742 0.05811 0.4189 0.0
C2797 C 0.28035 0.07742 0.44308 0.0
C2798 C 0.32693 0.09184 0.4498 0.0
H2799 H 0.34062 0.18169 0.46272 0.0
H2800 H 0.32897 0.15714 0.44711 0.0
H2801 H 0.35062 0.10318 0.45979 0.0
H2802 H 0.30173 0.05433 0.40225 0.0
H2803 H 0.32036 0.07366 0.41868 0.0
H2804 H 0.28632 0.11386 0.44382 0.0
C2805 C 0.33613 0.15428 0.4591 0.0
C2806 C 0.33658 0.1056 0.45638 0.0
C2807 C 0.34289 0.1683 0.46796 0.0
C2808 C 0.29581 0.06038 0.41389 0.0
C2809 C 0.30641 0.07139 0.42328 0.0
C2810 C 0.30029 0.11132 0.44743 0.0
C2811 C 0.33787 0.13682 0.46608 0.0
C2812 C 0.32817 0.12236 0.45838 0.0
C2813 C 0.29856 0.0805 0.43756 0.0
C2814 C 0.30869 0.09459 0.44535 0.0
H2815 H 0.36095 0.14458 0.50254 0.0
H2816 H 0.34903 0.12019 0.48713 0.0
H2817 H 0.30301 0.13775 0.45554 0.0
H2818 H 0.25554 0.06478 0.43762 0.0
H2819 H 0.27405 0.08422 0.45413 0.0
C2820 C 0.17133 0.0125 0.65952 0.0
C2821 C 0.18929 0.01849 0.6579 0.0
C2822 C 0.15813 0.02139 0.6697 0.0
C2823 C 0.14233 0.06354 0.68183 0.0
H2824 H 0.11312 0.03786 0.71767 0.0
C2825 C 0.07513 0.09218 0.71484 0.0
C2826 C 0.06122 0.07994 0.7182 0.0
C2827 C 0.09252 0.08643 0.70881 0.0
C2828 C 0.12106 0.04521 0.70762 0.0
H2829 H 0.20757 0.03845 0.66588 0.0
H2830 H 0.18395 0.0546 0.68322 0.0
H2831 H 0.14135 0.0244 0.70585 0.0
H2832 H 0.05403 0.05247 0.71688 0.0
H2833 H 0.08391 0.04258 0.70559 0.0
H2834 H 0.12144 0.08389 0.68273 0.0
C2835 C 0.18039 0.04277 0.67675 0.0
C2836 C 0.13732 0.03758 0.70106 0.0
C2837 C 0.19382 0.03354 0.66688 0.0
C2838 C 0.06459 0.06213 0.7145 0.0
C2839 C 0.08179 0.05645 0.70826 0.0
C2840 C 0.12589 0.07113 0.68826 0.0
C2841 C 0.16247 0.0367 0.67818 0.0
C2842 C 0.14777 0.04644 0.68774 0.0
C2843 C 0.09614 0.06839 0.70591 0.0
C2844 C 0.11475 0.06173 0.70075 0.0
H2845 H 0.16734 0.001 0.65275 0.0
H2846 H 0.14434 0.01657 0.67053 0.0
H2847 H 0.15018 0.07051 0.67144 0.0
H2848 H 0.07289 0.10597 0.71782 0.0
H2849 H 0.10326 0.09596 0.70712 0.0
C2850 C 0.1535 0.8528 0.0039 0.0
C2851 C 0.14617 0.8395 0.9943 0.0
C2852 C 0.15463 0.87005 0.99675 0.0
C2853 C 0.14172 0.89917 0.95763 0.0
H2854 H 0.18689 0.92173 0.96698 0.0
C2855 C 0.18682 0.93841 0.90804 0.0
C2856 C 0.19358 0.95466 0.91272 0.0
C2857 C 0.17594 0.92849 0.91999 0.0
C2858 C 0.17399 0.91584 0.96455 0.0
H2859 H 0.13373 0.83361 0.97007 0.0
H2860 H 0.13701 0.86338 0.95683 0.0
H2861 H 0.17781 0.89568 0.98452 0.0
H2862 H 0.19406 0.97354 0.93329 0.0
H2863 H 0.17573 0.95545 0.9548 0.0
H2864 H 0.13917 0.91855 0.93635 0.0
C2865 C 0.14123 0.86086 0.97018 0.0
C2866 C 0.1687 0.90086 0.97463 0.0
C2867 C 0.13956 0.84371 0.97761 0.0
C2868 C 0.18891 0.96106 0.92942 0.0
C2869 C 0.17845 0.95081 0.94164 0.0
C2870 C 0.14728 0.91393 0.94727 0.0
C2871 C 0.14903 0.87424 0.97957 0.0
C2872 C 0.15282 0.89191 0.9709 0.0
C2873 C 0.17206 0.93437 0.93701 0.0
C2874 C 0.16375 0.92199 0.95034 0.0
H2875 H 0.15821 0.84989 0.01705 0.0
H2876 H 0.16016 0.88001 0.00465 0.0
H2877 H 0.12911 0.89304 0.9547 0.0
H2878 H 0.19016 0.93324 0.89519 0.0
H2879 H 0.17139 0.91572 0.91624 0.0
C2880 C 0.28618 0.41205 0.08405 0.0
C2881 C 0.28776 0.42701 0.07249 0.0
C2882 C 0.29347 0.39564 0.07915 0.0
C2883 C 0.30785 0.37184 0.0392 0.0
H2884 H 0.33148 0.33893 0.07204 0.0
C2885 C 0.35485 0.31451 0.01746 0.0
C2886 C 0.35294 0.29788 0.02625 0.0
C2887 C 0.34501 0.32925 0.02336 0.0
C2888 C 0.32466 0.3479 0.06282 0.0
H2889 H 0.29903 0.43675 0.04718 0.0
H2890 H 0.31229 0.4083 0.03887 0.0
H2891 H 0.31899 0.36714 0.08228 0.0
H2892 H 0.33911 0.28371 0.04819 0.0
H2893 H 0.32214 0.30978 0.05877 0.0
H2894 H 0.31406 0.35283 0.01963 0.0
C2895 C 0.30491 0.40908 0.05148 0.0
C2896 C 0.31753 0.36405 0.06865 0.0
C2897 C 0.29749 0.42543 0.05631 0.0
C2898 C 0.34087 0.29633 0.04111 0.0
C2899 C 0.3312 0.31121 0.04719 0.0
C2900 C 0.31509 0.3558 0.03336 0.0
C2901 C 0.30261 0.39391 0.06264 0.0
C2902 C 0.30934 0.37634 0.05682 0.0
C2903 C 0.33324 0.32779 0.03837 0.0
C2904 C 0.32382 0.34382 0.04504 0.0
H2905 H 0.27862 0.41283 0.09657 0.0
H2906 H 0.29136 0.38421 0.08801 0.0
H2907 H 0.30117 0.38078 0.02986 0.0
H2908 H 0.36415 0.31625 0.0061 0.0
H2909 H 0.34701 0.34193 0.01644 0.0
C2910 C 0.75121 0.08483 0.89303 0.0
C2911 C 0.75927 0.07118 0.88314 0.0
C2912 C 0.76137 0.09929 0.89713 0.0
C2913 C 0.80743 0.10927 0.90626 0.0
H2914 H 0.7906 0.15838 0.90478 0.0
C2915 C 0.84998 0.16083 0.93616 0.0
C2916 C 0.84068 0.17369 0.94611 0.0
C2917 C 0.84068 0.15076 0.92479 0.0
C2918 C 0.79543 0.14472 0.90541 0.0
H2919 H 0.78403 0.06224 0.86922 0.0
H2920 H 0.80193 0.08741 0.87676 0.0
H2921 H 0.77277 0.13603 0.89142 0.0
H2922 H 0.81449 0.18661 0.95162 0.0
H2923 H 0.79781 0.16808 0.93262 0.0
H2924 H 0.82933 0.11736 0.92112 0.0
C2925 C 0.78773 0.0869 0.88123 0.0
C2926 C 0.78529 0.13199 0.89766 0.0
C2927 C 0.7775 0.07252 0.87694 0.0
C2928 C 0.82195 0.17676 0.94404 0.0
C2929 C 0.81245 0.16622 0.93305 0.0
C2930 C 0.81737 0.12187 0.91422 0.0
C2931 C 0.77981 0.10025 0.89159 0.0
C2932 C 0.79117 0.11414 0.89815 0.0
C2933 C 0.82167 0.15275 0.92365 0.0
C2934 C 0.81149 0.13976 0.91401 0.0
H2935 H 0.73712 0.08423 0.89785 0.0
H2936 H 0.75502 0.10933 0.90529 0.0
H2937 H 0.81206 0.09555 0.90713 0.0
H2938 H 0.86446 0.15827 0.9374 0.0
H2939 H 0.84837 0.14099 0.91732 0.0
C2940 C 0.05653 0.57118 0.19452 0.0
C2941 C 0.06173 0.58851 0.19735 0.0
C2942 C 0.06581 0.56136 0.18156 0.0
C2943 C 0.09974 0.56415 0.14366 0.0
H2944 H 0.11992 0.5211 0.16539 0.0
C2945 C 0.16956 0.5334 0.12183 0.0
C2946 C 0.1724 0.51508 0.12448 0.0
C2947 C 0.15288 0.54138 0.12714 0.0
C2948 C 0.11417 0.53281 0.15882 0.0
H2949 H 0.07934 0.60978 0.1879 0.0
H2950 H 0.09538 0.59279 0.16541 0.0
H2951 H 0.09483 0.53664 0.18022 0.0
H2952 H 0.15976 0.49051 0.13337 0.0
H2953 H 0.13057 0.50421 0.14191 0.0
H2954 H 0.11952 0.56055 0.12246 0.0
C2955 C 0.0843 0.58666 0.17311 0.0
C2956 C 0.09971 0.54173 0.16737 0.0
C2957 C 0.07523 0.59634 0.18614 0.0
C2958 C 0.15803 0.50474 0.13153 0.0
C2959 C 0.14132 0.51261 0.13648 0.0
C2960 C 0.11415 0.55512 0.13499 0.0
C2961 C 0.08018 0.56887 0.17112 0.0
C2962 C 0.09269 0.55776 0.16016 0.0
C2963 C 0.13869 0.53108 0.13489 0.0
C2964 C 0.12188 0.5396 0.14272 0.0
H2965 H 0.04608 0.5649 0.20295 0.0
H2966 H 0.06229 0.54769 0.18019 0.0
H2967 H 0.09449 0.57644 0.13774 0.0
H2968 H 0.18045 0.54164 0.11639 0.0
H2969 H 0.15144 0.55566 0.12587 0.0
C2970 C 0.70206 0.80923 0.44486 0.0
C2971 C 0.68558 0.80353 0.43862 0.0
C2972 C 0.71077 0.82382 0.43672 0.0
C2973 C 0.7084 0.8574 0.39891 0.0
H2974 H 0.7228 0.88893 0.43436 0.0
C2975 C 0.7336 0.92854 0.38207 0.0
C2976 C 0.72934 0.94153 0.39439 0.0
C2977 C 0.72922 0.91087 0.38588 0.0
C2978 C 0.71864 0.88039 0.42428 0.0
H2979 H 0.66637 0.80741 0.41785 0.0
H2980 H 0.68112 0.83304 0.40404 0.0
H2981 H 0.7154 0.85869 0.44289 0.0
H2982 H 0.71618 0.94642 0.41984 0.0
H2983 H 0.7078 0.91579 0.42618 0.0
H2984 H 0.71063 0.87956 0.38051 0.0
C2985 C 0.68756 0.82627 0.41506 0.0
C2986 C 0.71478 0.86284 0.42911 0.0
C2987 C 0.67902 0.81151 0.42303 0.0
C2988 C 0.71975 0.93667 0.41015 0.0
C2989 C 0.71515 0.91907 0.41386 0.0
C2990 C 0.71209 0.87506 0.3941 0.0
C2991 C 0.703 0.83317 0.42235 0.0
C2992 C 0.70936 0.85114 0.41656 0.0
C2993 C 0.7203 0.90584 0.402 0.0
C2994 C 0.71696 0.88686 0.4068 0.0
H2995 H 0.7076 0.80314 0.45671 0.0
H2996 H 0.72301 0.82838 0.44232 0.0
H2997 H 0.70449 0.84875 0.38883 0.0
H2998 H 0.74114 0.93185 0.36985 0.0
H2999 H 0.73352 0.90107 0.37648 0.0
C3000 C 0.95005 0.9227 0.19453 0.0
C3001 C 0.94775 0.90631 0.20356 0.0
C3002 C 0.93661 0.92954 0.18348 0.0
C3003 C 0.88721 0.92442 0.1772 0.0
H3004 H 0.89593 0.96153 0.14126 0.0
C3005 C 0.82963 0.96575 0.14378 0.0
C3006 C 0.83037 0.98333 0.14889 0.0
C3007 C 0.84451 0.9541 0.14624 0.0
C3008 C 0.89338 0.95096 0.15108 0.0
H3009 H 0.93039 0.88363 0.20727 0.0
H3010 H 0.90783 0.89472 0.18696 0.0
H3011 H 0.92171 0.94406 0.1526 0.0
H3012 H 0.84733 0.00283 0.15973 0.0
H3013 H 0.87346 0.98256 0.16361 0.0
H3014 H 0.85887 0.93143 0.17557 0.0
C3015 C 0.91936 0.90287 0.18904 0.0
C3016 C 0.9081 0.9411 0.15774 0.0
C3017 C 0.93241 0.89639 0.20057 0.0
C3018 C 0.84635 0.98926 0.15593 0.0
C3019 C 0.86135 0.97777 0.15793 0.0
C3020 C 0.87253 0.93397 0.17022 0.0
C3021 C 0.92086 0.91987 0.1809 0.0
C3022 C 0.90526 0.92816 0.17142 0.0
C3023 C 0.86046 0.96009 0.15329 0.0
C3024 C 0.87556 0.94771 0.1576 0.0
H3025 H 0.96177 0.9306 0.19668 0.0
H3026 H 0.93823 0.94277 0.17771 0.0
H3027 H 0.88433 0.91486 0.1879 0.0
H3028 H 0.81744 0.96096 0.13826 0.0
H3029 H 0.84356 0.94042 0.14276 0.0
C3030 C 0.1951 0.57239 0.58298 0.0
C3031 C 0.21062 0.5658 0.57368 0.0
C3032 C 0.18619 0.58795 0.57695 0.0
C3033 C 0.1776 0.62679 0.56648 0.0
H3034 H 0.1704 0.63366 0.51637 0.0
C3035 C 0.15217 0.69348 0.53604 0.0
C3036 C 0.13834 0.69265 0.52395 0.0
C3037 C 0.16165 0.67813 0.54158 0.0
C3038 C 0.17223 0.6319 0.5304 0.0
H3039 H 0.22919 0.57054 0.55101 0.0
H3040 H 0.21375 0.59754 0.54066 0.0
H3041 H 0.18467 0.60622 0.52763 0.0
H3042 H 0.12397 0.67519 0.50772 0.0
H3043 H 0.14046 0.64842 0.51744 0.0
H3044 H 0.16489 0.65238 0.56928 0.0
C3045 C 0.20823 0.59057 0.55237 0.0
C3046 C 0.18053 0.61626 0.53683 0.0
C3047 C 0.21708 0.57508 0.55834 0.0
C3048 C 0.13462 0.67628 0.51699 0.0
C3049 C 0.14408 0.66094 0.52255 0.0
C3050 C 0.16933 0.64247 0.56004 0.0
C3051 C 0.19267 0.59714 0.56155 0.0
C3052 C 0.18334 0.61356 0.55492 0.0
C3053 C 0.15746 0.66165 0.53514 0.0
C3054 C 0.16658 0.64518 0.54193 0.0
H3055 H 0.18986 0.56557 0.59489 0.0
H3056 H 0.17413 0.59269 0.58423 0.0
H3057 H 0.17973 0.62512 0.58047 0.0
H3058 H 0.15545 0.70595 0.54147 0.0
H3059 H 0.17215 0.67913 0.55103 0.0
C3060 C 0.07258 0.39789 0.28138 0.0
C3061 C 0.05523 0.40531 0.27814 0.0
C3062 C 0.0846 0.40665 0.29148 0.0
C3063 C 0.09714 0.45057 0.30084 0.0
H3064 H 0.12465 0.42828 0.33856 0.0
C3065 C 0.15078 0.4893 0.33415 0.0
C3066 C 0.16723 0.48039 0.33808 0.0
C3067 C 0.13576 0.47995 0.32953 0.0
C3068 C 0.11722 0.43464 0.32794 0.0
H3069 H 0.03666 0.42748 0.28308 0.0
H3070 H 0.05805 0.44318 0.30035 0.0
H3071 H 0.1005 0.41208 0.32566 0.0
H3072 H 0.18076 0.45466 0.34075 0.0
H3073 H 0.15465 0.43823 0.33201 0.0
H3074 H 0.11429 0.4727 0.30223 0.0
C3075 C 0.06215 0.43045 0.29527 0.0
C3076 C 0.10332 0.42541 0.32067 0.0
C3077 C 0.04995 0.42148 0.28546 0.0
C3078 C 0.1682 0.46184 0.33784 0.0
C3079 C 0.1532 0.45245 0.33291 0.0
C3080 C 0.11117 0.45968 0.30788 0.0
C3081 C 0.07963 0.42315 0.29821 0.0
C3082 C 0.09324 0.43329 0.30702 0.0
C3083 C 0.13689 0.46145 0.32836 0.0
C3084 C 0.12147 0.45183 0.32148 0.0
H3085 H 0.07695 0.38538 0.27595 0.0
H3086 H 0.09805 0.40085 0.29344 0.0
H3087 H 0.08977 0.45679 0.29009 0.0
H3088 H 0.14954 0.5036 0.33445 0.0
H3089 H 0.12331 0.4873 0.32662 0.0
C3090 C 0.45131 0.59843 0.79032 0.0
C3091 C 0.44722 0.61666 0.78897 0.0
C3092 C 0.43869 0.58687 0.79858 0.0
C3093 C 0.39876 0.58394 0.82908 0.0
H3094 H 0.37944 0.55184 0.79663 0.0
C3095 C 0.32631 0.55737 0.83893 0.0
C3096 C 0.32259 0.54069 0.83279 0.0
C3097 C 0.34351 0.5646 0.83569 0.0
C3098 C 0.38486 0.56035 0.80609 0.0
H3099 H 0.42749 0.63732 0.79594 0.0
H3100 H 0.40585 0.61726 0.8109 0.0
H3101 H 0.40725 0.56751 0.78842 0.0
H3102 H 0.33403 0.51815 0.81905 0.0
H3103 H 0.36419 0.53039 0.81399 0.0
H3104 H 0.37644 0.57695 0.84678 0.0
C3105 C 0.4186 0.61185 0.80546 0.0
C3106 C 0.40082 0.56933 0.80134 0.0
C3107 C 0.43092 0.62329 0.79683 0.0
C3108 C 0.33645 0.53118 0.8237 0.0
C3109 C 0.35374 0.53824 0.82076 0.0
C3110 C 0.38298 0.57473 0.83399 0.0
C3111 C 0.42215 0.59352 0.806 0.0
C3112 C 0.40758 0.58157 0.81257 0.0
C3113 C 0.35746 0.55514 0.82654 0.0
C3114 C 0.37549 0.56323 0.82232 0.0
H3115 H 0.46376 0.59306 0.78422 0.0
H3116 H 0.44162 0.57274 0.79881 0.0
H3117 H 0.40381 0.59331 0.83796 0.0
H3118 H 0.31583 0.56499 0.84595 0.0
H3119 H 0.34568 0.5778 0.84003 0.0
C3120 C 0.8886 0.69702 0.57451 0.0
C3121 C 0.8835 0.71507 0.57361 0.0
C3122 C 0.89313 0.68871 0.59059 0.0
C3123 C 0.89131 0.69456 0.63921 0.0
H3124 H 0.93358 0.6627 0.63764 0.0
C3125 C 0.93444 0.67458 0.6995 0.0
C3126 C 0.94062 0.65685 0.70101 0.0
C3127 C 0.92507 0.68076 0.68472 0.0
C3128 C 0.92161 0.67139 0.63829 0.0
H3129 H 0.87872 0.73842 0.58897 0.0
H3130 H 0.88706 0.72414 0.61672 0.0
H3131 H 0.92152 0.67485 0.61028 0.0
H3132 H 0.94085 0.63144 0.68871 0.0
H3133 H 0.9246 0.64223 0.66304 0.0
H3134 H 0.89194 0.69149 0.66736 0.0
C3135 C 0.88719 0.71623 0.60519 0.0
C3136 C 0.91463 0.67831 0.62259 0.0
C3137 C 0.88249 0.72447 0.58919 0.0
C3138 C 0.93651 0.64525 0.68786 0.0
C3139 C 0.92724 0.65142 0.67311 0.0
C3140 C 0.89842 0.68774 0.65494 0.0
C3141 C 0.89285 0.69832 0.60606 0.0
C3142 C 0.89945 0.69007 0.62282 0.0
C3143 C 0.92177 0.66931 0.67119 0.0
C3144 C 0.91368 0.67614 0.65463 0.0
H3145 H 0.88941 0.6894 0.56276 0.0
H3146 H 0.8971 0.67481 0.59083 0.0
H3147 H 0.87945 0.70337 0.6399 0.0
H3148 H 0.93736 0.68383 0.70942 0.0
H3149 H 0.92107 0.69464 0.68353 0.0
C3150 C 0.06818 0.21549 0.43495 0.0
C3151 C 0.08696 0.21144 0.43406 0.0
C3152 C 0.05659 0.20748 0.42369 0.0
C3153 C 0.05455 0.17157 0.39188 0.0
H3154 H 0.02905 0.20701 0.36317 0.0
C3155 C 0.02322 0.15551 0.326 0.0
C3156 C 0.02573 0.16827 0.31215 0.0
C3157 C 0.02758 0.15922 0.34314 0.0
C3158 C 0.0361 0.19694 0.37106 0.0
H3159 H 0.10816 0.195 0.42193 0.0
H3160 H 0.08813 0.18084 0.40272 0.0
H3161 H 0.04118 0.21516 0.3909 0.0
H3162 H 0.03534 0.19463 0.30525 0.0
H3163 H 0.04358 0.20085 0.33497 0.0
H3164 H 0.05056 0.15366 0.3715 0.0
C3165 C 0.08221 0.19016 0.41191 0.0
C3166 C 0.04276 0.20154 0.38711 0.0
C3167 C 0.09376 0.19839 0.42283 0.0
C3168 C 0.0332 0.18456 0.31566 0.0
C3169 C 0.03769 0.1882 0.33275 0.0
C3170 C 0.04793 0.16698 0.37581 0.0
C3171 C 0.06364 0.19507 0.41173 0.0
C3172 C 0.05268 0.18908 0.39733 0.0
C3173 C 0.03464 0.1757 0.34674 0.0
C3174 C 0.03926 0.17981 0.36491 0.0
H3175 H 0.06269 0.22564 0.44348 0.0
H3176 H 0.0423 0.21149 0.42383 0.0
H3177 H 0.06199 0.16166 0.39961 0.0
H3178 H 0.01728 0.1429 0.32375 0.0
H3179 H 0.02499 0.14933 0.35362 0.0
C3180 C 0.54044 0.30517 0.18439 0.0
C3181 C 0.54594 0.32228 0.18758 0.0
C3182 C 0.54946 0.29549 0.1712 0.0
C3183 C 0.57781 0.30415 0.13016 0.0
H3184 H 0.5767 0.2531 0.12771 0.0
C3185 C 0.60504 0.2661 0.06924 0.0
C3186 C 0.592 0.25513 0.06269 0.0
C3187 C 0.60204 0.27345 0.08574 0.0
C3188 C 0.57717 0.26738 0.12829 0.0
H3189 H 0.56586 0.34226 0.18082 0.0
H3190 H 0.58253 0.32495 0.15878 0.0
H3191 H 0.56804 0.2669 0.15541 0.0
H3192 H 0.56587 0.24289 0.06844 0.0
H3193 H 0.56087 0.25548 0.09727 0.0
H3194 H 0.58708 0.30449 0.10303 0.0
C3195 C 0.57076 0.3192 0.16569 0.0
C3196 C 0.5721 0.27532 0.14411 0.0
C3197 C 0.56142 0.32905 0.1785 0.0
C3198 C 0.5761 0.25144 0.07304 0.0
C3199 C 0.5733 0.25848 0.08963 0.0
C3200 C 0.5832 0.29618 0.11448 0.0
C3201 C 0.56438 0.30266 0.16123 0.0
C3202 C 0.57195 0.29387 0.14517 0.0
C3203 C 0.58619 0.26962 0.0961 0.0
C3204 C 0.58254 0.27777 0.11329 0.0
H3205 H 0.52833 0.29985 0.19109 0.0
H3206 H 0.54393 0.28292 0.16812 0.0
H3207 H 0.57751 0.31847 0.13018 0.0
H3208 H 0.61743 0.26911 0.06156 0.0
H3209 H 0.61216 0.28203 0.09048 0.0
C3210 C 0.42052 0.80176 0.93809 0.0
C3211 C 0.40187 0.80577 0.94085 0.0
C3212 C 0.43041 0.81001 0.924 0.0
C3213 C 0.44999 0.83191 0.89476 0.0
H3214 H 0.42227 0.83616 0.85243 0.0
C3215 C 0.48281 0.83234 0.82461 0.0
C3216 C 0.47661 0.84532 0.81232 0.0
C3217 C 0.47397 0.83011 0.84113 0.0
C3218 C 0.43012 0.83531 0.86418 0.0
H3219 H 0.37934 0.82269 0.93243 0.0
H3220 H 0.39671 0.83766 0.90845 0.0
H3221 H 0.40688 0.82826 0.88052 0.0
H3222 H 0.45616 0.86599 0.80759 0.0
H3223 H 0.44018 0.86158 0.83645 0.0
H3224 H 0.47342 0.83813 0.878 0.0
C3225 C 0.4036 0.82766 0.91655 0.0
C3226 C 0.42131 0.83086 0.88034 0.0
C3227 C 0.39367 0.81922 0.93038 0.0
C3228 C 0.46117 0.85584 0.81679 0.0
C3229 C 0.45208 0.85335 0.83327 0.0
C3230 C 0.45884 0.83618 0.87852 0.0
C3231 C 0.42184 0.82256 0.91264 0.0
C3232 C 0.43115 0.82891 0.89583 0.0
C3233 C 0.45855 0.84059 0.84565 0.0
C3234 C 0.44901 0.83769 0.86305 0.0
H3235 H 0.4271 0.79135 0.94596 0.0
H3236 H 0.44442 0.80568 0.92138 0.0
H3237 H 0.45795 0.83077 0.90643 0.0
H3238 H 0.49481 0.82416 0.82164 0.0
H3239 H 0.47911 0.82003 0.85034 0.0
C3240 C 0.89984 0.27041 0.90364 0.0
C3241 C 0.91079 0.26073 0.91551 0.0
C3242 C 0.90716 0.27634 0.88726 0.0
C3243 C 0.94973 0.28879 0.86447 0.0
H3244 H 0.92194 0.28545 0.8226 0.0
C3245 C 0.97183 0.32581 0.80012 0.0
C3246 C 0.95762 0.33653 0.79334 0.0
C3247 C 0.96795 0.31207 0.81249 0.0
C3248 C 0.9299 0.2864 0.83416 0.0
H3249 H 0.93802 0.24989 0.91969 0.0
H3250 H 0.95085 0.26057 0.89113 0.0
H3251 H 0.91129 0.27067 0.85021 0.0
H3252 H 0.92824 0.34043 0.79305 0.0
H3253 H 0.92152 0.31674 0.81465 0.0
H3254 H 0.96781 0.30528 0.84877 0.0
C3255 C 0.93661 0.26343 0.89449 0.0
C3256 C 0.92378 0.278 0.84994 0.0
C3257 C 0.92925 0.25735 0.91081 0.0
C3258 C 0.93949 0.3325 0.79818 0.0
C3259 C 0.93563 0.31878 0.81045 0.0
C3260 C 0.95579 0.2973 0.84873 0.0
C3261 C 0.92558 0.27284 0.88252 0.0
C3262 C 0.93334 0.27961 0.86535 0.0
C3263 C 0.94981 0.30878 0.81816 0.0
C3264 C 0.94559 0.29669 0.83356 0.0
H3265 H 0.88555 0.27314 0.90686 0.0
H3266 H 0.89844 0.28384 0.87836 0.0
H3267 H 0.95732 0.29027 0.87619 0.0
H3268 H 0.98594 0.3285 0.79646 0.0
H3269 H 0.97915 0.30442 0.81807 0.0
C3270 C 0.44274 0.15343 0.67145 0.0
C3271 C 0.45624 0.16442 0.67718 0.0
C3272 C 0.43473 0.15718 0.65533 0.0
C3273 C 0.42718 0.16526 0.61587 0.0
H3274 H 0.40953 0.21397 0.61049 0.0
C3275 C 0.39883 0.1971 0.55132 0.0
C3276 C 0.38339 0.2083 0.55342 0.0
C3277 C 0.40774 0.19019 0.56607 0.0
C3278 C 0.41429 0.2003 0.61183 0.0
H3279 H 0.47265 0.18732 0.67012 0.0
H3280 H 0.4585 0.19393 0.64215 0.0
H3281 H 0.42567 0.20442 0.63664 0.0
H3282 H 0.36452 0.22033 0.57246 0.0
H3283 H 0.37997 0.20825 0.59812 0.0
H3284 H 0.41565 0.16121 0.59096 0.0
C3285 C 0.45401 0.18256 0.65021 0.0
C3286 C 0.42367 0.1949 0.6267 0.0
C3287 C 0.46206 0.17879 0.66623 0.0
C3288 C 0.37664 0.21204 0.57045 0.0
C3289 C 0.38547 0.20511 0.58513 0.0
C3290 C 0.41788 0.17073 0.60083 0.0
C3291 C 0.44005 0.17201 0.64479 0.0
C3292 C 0.43022 0.17737 0.62885 0.0
C3293 C 0.40124 0.19435 0.5831 0.0
C3294 C 0.41129 0.1883 0.59876 0.0
H3295 H 0.43809 0.14216 0.67955 0.0
H3296 H 0.42392 0.1489 0.65142 0.0
H3297 H 0.43216 0.15168 0.61728 0.0
H3298 H 0.40421 0.19398 0.53829 0.0
H3299 H 0.41996 0.18202 0.56416 0.0
C3300 C 0.61465 0.73224 0.40787 0.0
C3301 C 0.62053 0.72578 0.42434 0.0
C3302 C 0.61011 0.72046 0.39515 0.0
C3303 C 0.59308 0.67567 0.3938 0.0
H3304 H 0.60178 0.68107 0.34321 0.0
C3305 C 0.5658 0.62494 0.34916 0.0
C3306 C 0.55637 0.63197 0.33469 0.0
C3307 C 0.57708 0.63563 0.3582 0.0
C3308 C 0.59922 0.67944 0.35732 0.0
H3309 H 0.62776 0.70207 0.43985 0.0
H3310 H 0.62015 0.68164 0.41766 0.0
H3311 H 0.61529 0.70178 0.36255 0.0
H3312 H 0.55234 0.65535 0.31756 0.0
H3313 H 0.57169 0.67409 0.3336 0.0
H3314 H 0.57661 0.65383 0.3888 0.0
C3315 C 0.61856 0.69573 0.41471 0.0
C3316 C 0.60694 0.69128 0.36835 0.0
C3317 C 0.62297 0.70744 0.4274 0.0
C3318 C 0.55937 0.64957 0.32873 0.0
C3319 C 0.57055 0.6603 0.33787 0.0
C3320 C 0.58537 0.66394 0.38285 0.0
C3321 C 0.61148 0.70207 0.39871 0.0
C3322 C 0.60394 0.68946 0.38672 0.0
C3323 C 0.57904 0.6536 0.35306 0.0
C3324 C 0.58832 0.66564 0.36448 0.0
H3325 H 0.61267 0.74633 0.40515 0.0
H3326 H 0.60464 0.72572 0.38294 0.0
H3327 H 0.59011 0.6742 0.40786 0.0
H3328 H 0.56401 0.61134 0.35385 0.0
H3329 H 0.58381 0.62995 0.3696 0.0
C3330 C 0.09584 0.81164 0.07213 0.0
C3331 C 0.09009 0.8079 0.05537 0.0
C3332 C 0.08739 0.82509 0.08156 0.0
C3333 C 0.04448 0.84646 0.09022 0.0
H3334 H 0.07439 0.87461 0.11854 0.0
C3335 C 0.01969 0.88014 0.15515 0.0
C3336 C 0.02774 0.87019 0.16899 0.0
C3337 C 0.02632 0.87849 0.13775 0.0
C3338 C 0.0658 0.8672 0.11045 0.0
H3339 H 0.07091 0.81529 0.0353 0.0
H3340 H 0.0554 0.83873 0.05241 0.0
H3341 H 0.08789 0.86101 0.0923 0.0
H3342 H 0.04943 0.85145 0.17568 0.0
H3343 H 0.06155 0.84922 0.14534 0.0
H3344 H 0.02271 0.85176 0.10919 0.0
C3345 C 0.0668 0.83133 0.0579 0.0
C3346 C 0.07347 0.85942 0.09549 0.0
C3347 C 0.0756 0.81796 0.0482 0.0
C3348 C 0.04305 0.85929 0.16527 0.0
C3349 C 0.04996 0.85804 0.14798 0.0
C3350 C 0.03673 0.85444 0.10514 0.0
C3351 C 0.07277 0.83504 0.07464 0.0
C3352 C 0.0632 0.84804 0.08595 0.0
C3353 C 0.04142 0.86734 0.13409 0.0
C3354 C 0.04767 0.86398 0.11586 0.0
H3355 H 0.10703 0.80423 0.07801 0.0
H3356 H 0.09203 0.82738 0.09458 0.0
H3357 H 0.03631 0.83769 0.08312 0.0
H3358 H 0.00776 0.88855 0.15764 0.0
H3359 H 0.0195 0.88565 0.12717 0.0
C3360 C 0.70281 0.94336 0.64044 0.0
C3361 C 0.71188 0.95843 0.64507 0.0
C3362 C 0.68902 0.9362 0.65156 0.0
C3363 C 0.65399 0.95217 0.68247 0.0
H3364 H 0.6417 0.90266 0.68847 0.0
C3365 C 0.58696 0.93045 0.71826 0.0
C3366 C 0.57755 0.9168 0.71095 0.0
C3367 C 0.60464 0.93447 0.71215 0.0
C3368 C 0.64488 0.91655 0.68678 0.0
H3369 H 0.71457 0.97731 0.66527 0.0
H3370 H 0.69038 0.9648 0.6849 0.0
H3371 H 0.67161 0.91073 0.67564 0.0
H3372 H 0.57934 0.89663 0.6915 0.0
H3373 H 0.61011 0.90394 0.68051 0.0
H3374 H 0.62714 0.95811 0.69294 0.0
C3375 C 0.69393 0.9585 0.67266 0.0
C3376 C 0.66205 0.92115 0.67955 0.0
C3377 C 0.70787 0.96554 0.66155 0.0
C3378 C 0.58623 0.90723 0.69739 0.0
C3379 C 0.60392 0.91132 0.69121 0.0
C3380 C 0.63683 0.94759 0.68961 0.0
C3381 C 0.68388 0.94418 0.66743 0.0
C3382 C 0.66671 0.93903 0.67714 0.0
C3383 C 0.61334 0.92501 0.69851 0.0
C3384 C 0.63196 0.92974 0.69167 0.0
H3385 H 0.70553 0.93773 0.62776 0.0
H3386 H 0.68149 0.92526 0.64708 0.0
H3387 H 0.65699 0.96608 0.68041 0.0
H3388 H 0.58076 0.93794 0.72889 0.0
H3389 H 0.61157 0.9449 0.71828 0.0
C3390 C 0.863 0.83445 0.46179 0.0
C3391 C 0.85557 0.83368 0.47915 0.0
C3392 C 0.85979 0.84937 0.45072 0.0
C3393 C 0.84562 0.89651 0.45033 0.0
H3394 H 0.82461 0.88731 0.40588 0.0
C3395 C 0.81242 0.93461 0.38504 0.0
C3396 C 0.8015 0.94738 0.39365 0.0
C3397 C 0.82295 0.92236 0.39469 0.0
C3398 C 0.83086 0.89022 0.41802 0.0
H3399 H 0.83958 0.84813 0.49875 0.0
H3400 H 0.83416 0.87417 0.47949 0.0
H3401 H 0.83623 0.86273 0.42416 0.0
H3402 H 0.79367 0.95801 0.41896 0.0
H3403 H 0.81154 0.93626 0.43594 0.0
H3404 H 0.8401 0.924 0.44431 0.0
C3405 C 0.84243 0.86328 0.47444 0.0
C3406 C 0.83746 0.87608 0.42852 0.0
C3407 C 0.8454 0.8483 0.4854 0.0
C3408 C 0.80203 0.94831 0.412 0.0
C3409 C 0.81235 0.93587 0.42171 0.0
C3410 C 0.8392 0.91071 0.43973 0.0
C3411 C 0.84936 0.86386 0.45692 0.0
C3412 C 0.84454 0.87906 0.44493 0.0
C3413 C 0.82255 0.92243 0.4132 0.0
C3414 C 0.83137 0.9077 0.42361 0.0
H3415 H 0.87088 0.82336 0.45663 0.0
H3416 H 0.86532 0.84953 0.43726 0.0
H3417 H 0.85119 0.89916 0.46288 0.0
H3418 H 0.81246 0.93379 0.37084 0.0
H3419 H 0.83102 0.91252 0.38766 0.0
C3420 C 0.81934 0.06997 0.14386 0.0
C3421 C 0.82832 0.05491 0.13712 0.0
C3422 C 0.82923 0.08306 0.15137 0.0
C3423 C 0.87713 0.09752 0.15646 0.0
H3424 H 0.85579 0.11943 0.1979 0.0
C3425 C 0.92167 0.13817 0.1987 0.0
C3426 C 0.91879 0.13569 0.21699 0.0
C3427 C 0.90877 0.13263 0.18729 0.0
C3428 C 0.86205 0.11334 0.18643 0.0
H3429 H 0.85459 0.04162 0.13308 0.0
H3430 H 0.87169 0.06377 0.14686 0.0
H3431 H 0.83736 0.10065 0.18119 0.0
H3432 H 0.89994 0.12611 0.23777 0.0
H3433 H 0.87803 0.11553 0.21805 0.0
H3434 H 0.90222 0.10879 0.16252 0.0
C3435 C 0.85716 0.06605 0.14575 0.0
C3436 C 0.85133 0.10277 0.17661 0.0
C3437 C 0.84733 0.05321 0.13794 0.0
C3438 C 0.90249 0.12824 0.2237 0.0
C3439 C 0.88981 0.12229 0.21232 0.0
C3440 C 0.88794 0.10771 0.16649 0.0
C3441 C 0.84828 0.08117 0.15261 0.0
C3442 C 0.85888 0.0943 0.16175 0.0
C3443 C 0.89295 0.12403 0.19392 0.0
C3444 C 0.8807 0.1154 0.18189 0.0
H3445 H 0.80467 0.07163 0.14331 0.0
H3446 H 0.82191 0.0946 0.15623 0.0
H3447 H 0.88332 0.09172 0.1448 0.0
H3448 H 0.93403 0.14414 0.19321 0.0
H3449 H 0.91147 0.13471 0.17325 0.0
C3450 C 0.6165 0.13846 0.96512 0.0
C3451 C 0.61995 0.15586 0.95876 0.0
C3452 C 0.62349 0.12394 0.95596 0.0
C3453 C 0.66117 0.1127 0.92454 0.0
H3454 H 0.63557 0.06906 0.91982 0.0
C3455 C 0.68894 0.06045 0.87823 0.0
C3456 C 0.68999 0.04277 0.88474 0.0
C3457 C 0.67899 0.07319 0.88751 0.0
C3458 C 0.64291 0.08111 0.92123 0.0
H3459 H 0.63254 0.17162 0.93725 0.0
H3460 H 0.64442 0.14635 0.92114 0.0
H3461 H 0.62029 0.09369 0.935 0.0
H3462 H 0.68062 0.02442 0.90568 0.0
H3463 H 0.66302 0.04698 0.92209 0.0
H3464 H 0.6837 0.10029 0.91074 0.0
C3465 C 0.63668 0.14391 0.93343 0.0
C3466 C 0.63418 0.09521 0.92987 0.0
C3467 C 0.62975 0.15841 0.9426 0.0
C3468 C 0.68011 0.03795 0.9004 0.0
C3469 C 0.67004 0.05083 0.90975 0.0
C3470 C 0.66982 0.0987 0.91591 0.0
C3471 C 0.63404 0.12651 0.94023 0.0
C3472 C 0.64315 0.11126 0.9314 0.0
C3473 C 0.66979 0.06865 0.90356 0.0
C3474 C 0.66072 0.08285 0.91391 0.0
H3475 H 0.60898 0.13602 0.97753 0.0
H3476 H 0.62126 0.11074 0.9616 0.0
H3477 H 0.66868 0.12465 0.92593 0.0
H3478 H 0.6961 0.06459 0.86604 0.0
H3479 H 0.6787 0.08672 0.88219 0.0
C3480 C 0.57403 0.10395 0.75811 0.0
C3481 C 0.56107 0.11659 0.764 0.0
C3482 C 0.5898 0.10045 0.76722 0.0
C3483 C 0.6048 0.09876 0.81143 0.0
H3484 H 0.65005 0.08339 0.78777 0.0
C3485 C 0.64518 0.03885 0.83648 0.0
C3486 C 0.66427 0.03826 0.83484 0.0
C3487 C 0.63532 0.05315 0.82926 0.0
C3488 C 0.63772 0.08795 0.79471 0.0
H3489 H 0.55467 0.13602 0.7836 0.0
H3490 H 0.58225 0.12937 0.80012 0.0
H3491 H 0.62822 0.10204 0.77173 0.0
H3492 H 0.68815 0.05215 0.82447 0.0
H3493 H 0.6708 0.07739 0.81182 0.0
H3494 H 0.61394 0.08415 0.83421 0.0
C3495 C 0.58018 0.12236 0.78828 0.0
C3496 C 0.62518 0.09854 0.7855 0.0
C3497 C 0.56443 0.1261 0.77892 0.0
C3498 C 0.6734 0.05223 0.82577 0.0
C3499 C 0.66349 0.06668 0.81861 0.0
C3500 C 0.61736 0.08825 0.82067 0.0
C3501 C 0.59291 0.10935 0.78257 0.0
C3502 C 0.60818 0.10318 0.7935 0.0
C3503 C 0.64434 0.0673 0.82038 0.0
C3504 C 0.63345 0.08192 0.8121 0.0
H3505 H 0.57195 0.09662 0.74647 0.0
H3506 H 0.59917 0.09014 0.76265 0.0
H3507 H 0.59182 0.10213 0.81795 0.0
H3508 H 0.63779 0.02817 0.84325 0.0
H3509 H 0.62057 0.05293 0.83037 0.0
C3510 C 0.69111 0.93984 0.58939 0.0
C3511 C 0.70829 0.94358 0.58159 0.0
C3512 C 0.67885 0.93003 0.58053 0.0
C3513 C 0.67192 0.90907 0.53768 0.0
H3514 H 0.65198 0.87121 0.56818 0.0
C3515 C 0.66371 0.83868 0.51616 0.0
C3516 C 0.64661 0.83089 0.51903 0.0
C3517 C 0.66712 0.85485 0.52325 0.0
C3518 C 0.65714 0.88189 0.55955 0.0
H3519 H 0.72605 0.94107 0.55836 0.0
H3520 H 0.70504 0.92343 0.543 0.0
H3521 H 0.66509 0.89659 0.58112 0.0
H3522 H 0.61983 0.8337 0.53198 0.0
H3523 H 0.62621 0.8619 0.54515 0.0
H3524 H 0.6652 0.89346 0.51614 0.0
C3525 C 0.70062 0.92836 0.55569 0.0
C3526 C 0.66459 0.8965 0.56692 0.0
C3527 C 0.71274 0.93838 0.56447 0.0
C3528 C 0.63313 0.83941 0.52959 0.0
C3529 C 0.63672 0.8555 0.53704 0.0
C3530 C 0.66473 0.89432 0.53034 0.0
C3531 C 0.68377 0.92352 0.56388 0.0
C3532 C 0.67266 0.90998 0.55606 0.0
C3533 C 0.65364 0.86345 0.53363 0.0
C3534 C 0.65783 0.88038 0.54124 0.0
H3535 H 0.68743 0.94392 0.60257 0.0
H3536 H 0.66585 0.9269 0.58705 0.0
H3537 H 0.67761 0.91938 0.52893 0.0
H3538 H 0.67436 0.83254 0.50799 0.0
H3539 H 0.68038 0.86063 0.5207 0.0
C3540 C 0.79545 0.96366 0.32933 0.0
C3541 C 0.80102 0.97888 0.3374 0.0
C3542 C 0.80795 0.95383 0.31897 0.0
C3543 C 0.85059 0.95825 0.29282 0.0
H3544 H 0.86159 0.909 0.30558 0.0
C3545 C 0.91019 0.92253 0.25838 0.0
C3546 C 0.9222 0.91308 0.26942 0.0
C3547 C 0.89288 0.92771 0.26468 0.0
C3548 C 0.85861 0.92273 0.30185 0.0
H3549 H 0.82387 0.99596 0.34057 0.0
H3550 H 0.84527 0.97921 0.32227 0.0
H3551 H 0.83523 0.92416 0.31982 0.0
H3552 H 0.92528 0.90082 0.29541 0.0
H3553 H 0.89504 0.91062 0.30682 0.0
H3554 H 0.87426 0.95738 0.27563 0.0
C3555 C 0.83137 0.97477 0.32402 0.0
C3556 C 0.84344 0.9313 0.30982 0.0
C3557 C 0.81909 0.98433 0.33454 0.0
C3558 C 0.91629 0.90823 0.28672 0.0
C3559 C 0.89895 0.9137 0.29316 0.0
C3560 C 0.86563 0.94974 0.28486 0.0
C3561 C 0.826 0.95939 0.31624 0.0
C3562 C 0.83966 0.94927 0.30569 0.0
C3563 C 0.88725 0.92387 0.28228 0.0
C3564 C 0.87007 0.932 0.28955 0.0
H3565 H 0.78161 0.95914 0.33136 0.0
H3566 H 0.80355 0.94198 0.31306 0.0
H3567 H 0.8479 0.97212 0.2894 0.0
H3568 H 0.91419 0.92604 0.24481 0.0
H3569 H 0.88403 0.93512 0.25583 0.0
C3570 C 0.86985 0.14669 0.01732 0.0
C3571 C 0.86168 0.16368 0.01805 0.0
C3572 C 0.86127 0.13211 0.02566 0.0
C3573 C 0.81544 0.11796 0.04112 0.0
H3574 H 0.8416 0.07985 0.06571 0.0
C3575 C 0.77977 0.06577 0.08678 0.0
C3576 C 0.78664 0.04823 0.08688 0.0
C3577 C 0.78873 0.07911 0.07688 0.0
C3578 C 0.83415 0.09026 0.05864 0.0
H3579 H 0.83875 0.17892 0.02902 0.0
H3580 H 0.82407 0.1536 0.0439 0.0
H3581 H 0.85834 0.10489 0.0525 0.0
H3582 H 0.80788 0.03082 0.07603 0.0
H3583 H 0.82355 0.05422 0.05871 0.0
H3584 H 0.79123 0.10345 0.04744 0.0
C3585 C 0.83681 0.15144 0.03647 0.0
C3586 C 0.84373 0.10462 0.05113 0.0
C3587 C 0.84532 0.16596 0.02809 0.0
C3588 C 0.80234 0.04423 0.07637 0.0
C3589 C 0.81135 0.05762 0.06651 0.0
C3590 C 0.80587 0.10363 0.04865 0.0
C3591 C 0.84442 0.13429 0.03494 0.0
C3592 C 0.83444 0.11874 0.04249 0.0
C3593 C 0.80479 0.07524 0.06689 0.0
C3594 C 0.81509 0.08974 0.05767 0.0
H3595 H 0.8824 0.14448 0.0096 0.0
H3596 H 0.86745 0.11906 0.02418 0.0
H3597 H 0.80794 0.12842 0.03418 0.0
H3598 H 0.76772 0.06933 0.09472 0.0
H3599 H 0.78342 0.09259 0.07756 0.0
C3600 C 0.64892 0.69967 0.95609 0.0
C3601 C 0.63865 0.69873 0.97215 0.0
C3602 C 0.65777 0.68453 0.94959 0.0
C3603 C 0.67498 0.64022 0.96373 0.0
H3604 H 0.6697 0.62839 0.91512 0.0
C3605 C 0.69317 0.57075 0.94104 0.0
C3606 C 0.70315 0.56927 0.92498 0.0
C3607 C 0.68524 0.58694 0.94569 0.0
C3608 C 0.67147 0.63162 0.92867 0.0
H3609 H 0.6297 0.68113 0.99399 0.0
H3610 H 0.64513 0.6549 0.98273 0.0
H3611 H 0.657 0.65649 0.92554 0.0
H3612 H 0.71205 0.58343 0.90082 0.0
H3613 H 0.69829 0.61185 0.90904 0.0
H3614 H 0.68939 0.61546 0.96696 0.0
C3615 C 0.64648 0.66734 0.97522 0.0
C3616 C 0.66424 0.6477 0.93462 0.0
C3617 C 0.63756 0.68239 0.98163 0.0
C3618 C 0.70433 0.58414 0.91326 0.0
C3619 C 0.69647 0.60042 0.91797 0.0
C3620 C 0.68224 0.62422 0.95779 0.0
C3621 C 0.65662 0.66822 0.95912 0.0
C3622 C 0.66564 0.65199 0.9523 0.0
C3623 C 0.68723 0.60207 0.93444 0.0
C3624 C 0.68027 0.61957 0.94029 0.0
H3625 H 0.65006 0.71207 0.94847 0.0
H3626 H 0.66561 0.68559 0.9372 0.0
H3627 H 0.67659 0.64334 0.97734 0.0
H3628 H 0.69189 0.55948 0.95028 0.0
H3629 H 0.67779 0.58767 0.95827 0.0
C3630 C 0.22292 0.92137 0.11841 0.0
C3631 C 0.24171 0.92157 0.11413 0.0
C3632 C 0.21271 0.90681 0.11462 0.0
C3633 C 0.21413 0.86963 0.08479 0.0
H3634 H 0.17076 0.85584 0.11247 0.0
C3635 C 0.16735 0.81674 0.06171 0.0
C3636 C 0.1494 0.82324 0.05989 0.0
C3637 C 0.17936 0.82568 0.0717 0.0
C3638 C 0.18292 0.8595 0.10471 0.0
H3639 H 0.26476 0.90637 0.10336 0.0
H3640 H 0.24708 0.88077 0.09722 0.0
H3641 H 0.19108 0.87733 0.12379 0.0
H3642 H 0.12944 0.84322 0.06813 0.0
H3643 H 0.15039 0.85872 0.08575 0.0
H3644 H 0.20584 0.85197 0.06564 0.0
C3645 C 0.24009 0.89203 0.10304 0.0
C3646 C 0.19448 0.87186 0.1111 0.0
C3647 C 0.25024 0.90667 0.10662 0.0
C3648 C 0.14327 0.83805 0.0692 0.0
C3649 C 0.15521 0.84683 0.07938 0.0
C3650 C 0.20271 0.85713 0.07853 0.0
C3651 C 0.22114 0.89206 0.10666 0.0
C3652 C 0.21 0.87739 0.10101 0.0
C3653 C 0.1735 0.84106 0.08024 0.0
C3654 C 0.18679 0.85226 0.08823 0.0
H3655 H 0.21597 0.93269 0.12417 0.0
H3656 H 0.19811 0.90743 0.11735 0.0
H3657 H 0.22575 0.87377 0.0765 0.0
H3658 H 0.17242 0.80534 0.05467 0.0
H3659 H 0.19339 0.82094 0.07227 0.0
C3660 C 0.82687 0.48402 0.85657 0.0
C3661 C 0.81572 0.47699 0.87051 0.0
C3662 C 0.84404 0.4765 0.85268 0.0
C3663 C 0.87093 0.4352 0.8571 0.0
H3664 H 0.91083 0.4657 0.84194 0.0
C3665 C 0.93879 0.40615 0.82946 0.0
C3666 C 0.94366 0.41339 0.8126 0.0
C3667 C 0.92587 0.41482 0.84031 0.0
C3668 C 0.89984 0.45702 0.84621 0.0
H3669 H 0.81384 0.45646 0.89129 0.0
H3670 H 0.84399 0.44319 0.88439 0.0
H3671 H 0.88229 0.47869 0.85379 0.0
H3672 H 0.94018 0.43615 0.79461 0.0
H3673 H 0.9178 0.45135 0.81359 0.0
H3674 H 0.88829 0.41357 0.84902 0.0
C3675 C 0.83934 0.45455 0.87648 0.0
C3676 C 0.88349 0.46444 0.85294 0.0
C3677 C 0.8221 0.46215 0.88043 0.0
C3678 C 0.9366 0.43018 0.80747 0.0
C3679 C 0.92383 0.43892 0.81839 0.0
C3680 C 0.88732 0.42777 0.85042 0.0
C3681 C 0.85053 0.46174 0.86262 0.0
C3682 C 0.86867 0.45366 0.85794 0.0
C3683 C 0.91779 0.431 0.83461 0.0
C3684 C 0.90175 0.43865 0.84443 0.0
H3685 H 0.82239 0.49544 0.84863 0.0
H3686 H 0.85214 0.48213 0.84167 0.0
H3687 H 0.85974 0.42654 0.86072 0.0
H3688 H 0.94403 0.39324 0.83384 0.0
H3689 H 0.92166 0.40853 0.85285 0.0
C3690 C 0.29304 0.17505 0.52902 0.0
C3691 C 0.30685 0.18572 0.53462 0.0
C3692 C 0.28687 0.16071 0.53966 0.0
C3693 C 0.29 0.12399 0.55646 0.0
H3694 H 0.28345 0.12162 0.60738 0.0
C3695 C 0.28477 0.05693 0.59376 0.0
C3696 C 0.27008 0.05534 0.60617 0.0
C3697 C 0.29018 0.07361 0.5872 0.0
C3698 C 0.28521 0.1221 0.59315 0.0
H3699 H 0.32374 0.19071 0.55651 0.0
H3700 H 0.31306 0.16563 0.57495 0.0
H3701 H 0.28845 0.15026 0.59183 0.0
H3702 H 0.25044 0.07009 0.62237 0.0
H3703 H 0.2598 0.09915 0.61078 0.0
H3704 H 0.28657 0.09601 0.55761 0.0
C3705 C 0.307 0.16831 0.56235 0.0
C3706 C 0.28814 0.13848 0.58426 0.0
C3707 C 0.31314 0.1827 0.55174 0.0
C3708 C 0.26178 0.07083 0.61278 0.0
C3709 C 0.26718 0.08753 0.60617 0.0
C3710 C 0.28715 0.10769 0.5653 0.0
C3711 C 0.29438 0.1567 0.55611 0.0
C3712 C 0.2905 0.1396 0.56578 0.0
C3713 C 0.28101 0.08907 0.59284 0.0
C3714 C 0.28474 0.10651 0.58375 0.0
H3715 H 0.28772 0.17714 0.51601 0.0
H3716 H 0.27676 0.15228 0.53466 0.0
H3717 H 0.29212 0.12429 0.54226 0.0
H3718 H 0.29159 0.04529 0.58853 0.0
H3719 H 0.30119 0.07438 0.57724 0.0
C3720 C 0.03784 0.06948 0.80493 0.0
C3721 C 0.04278 0.07822 0.78878 0.0
C3722 C 0.0513 0.06174 0.81551 0.0
C3723 C 0.09995 0.04704 0.81392 0.0
H3724 H 0.09913 0.05883 0.86312 0.0
C3725 C 0.16491 0.04557 0.85118 0.0
C3726 C 0.16519 0.03188 0.86424 0.0
C3727 C 0.14835 0.05173 0.84461 0.0
C3728 C 0.0994 0.05543 0.84942 0.0
H3729 H 0.06547 0.08463 0.77053 0.0
H3730 H 0.08865 0.07138 0.78881 0.0
H3731 H 0.07247 0.0662 0.8455 0.0
H3732 H 0.14839 0.01536 0.88213 0.0
H3733 H 0.11941 0.02644 0.87073 0.0
H3734 H 0.1271 0.03702 0.81758 0.0
C3735 C 0.07452 0.07042 0.79343 0.0
C3736 C 0.08415 0.05945 0.8394 0.0
C3737 C 0.0612 0.07815 0.78297 0.0
C3738 C 0.14857 0.02581 0.87191 0.0
C3739 C 0.132 0.03215 0.86548 0.0
C3740 C 0.11518 0.04331 0.82381 0.0
C3741 C 0.0698 0.06239 0.80994 0.0
C3742 C 0.0845 0.05569 0.82141 0.0
C3743 C 0.13188 0.04451 0.85123 0.0
C3744 C 0.11518 0.04785 0.84147 0.0
H3745 H 0.02372 0.06927 0.80971 0.0
H3746 H 0.04727 0.05548 0.82812 0.0
H3747 H 0.10048 0.04358 0.80023 0.0
H3748 H 0.17746 0.05056 0.84508 0.0
H3749 H 0.14846 0.06139 0.83366 0.0
C3750 C 0.79253 0.41909 0.41421 0.0
C3751 C 0.77692 0.42532 0.42355 0.0
C3752 C 0.79969 0.40212 0.41793 0.0
C3753 C 0.79845 0.36558 0.4523 0.0
H3754 H 0.82465 0.34015 0.41541 0.0
C3755 C 0.83373 0.29692 0.46434 0.0
C3756 C 0.85266 0.29849 0.46164 0.0
C3757 C 0.82192 0.31025 0.45782 0.0
C3758 C 0.81717 0.34705 0.42576 0.0
H3759 H 0.75633 0.41866 0.44389 0.0
H3760 H 0.7683 0.38876 0.44989 0.0
H3761 H 0.80841 0.36788 0.40798 0.0
H3762 H 0.87418 0.31434 0.44929 0.0
H3763 H 0.85352 0.33727 0.43729 0.0
H3764 H 0.80724 0.34452 0.46999 0.0
C3765 C 0.77543 0.39711 0.44008 0.0
C3766 C 0.80806 0.36304 0.4216 0.0
C3767 C 0.76851 0.41424 0.43661 0.0
C3768 C 0.8596 0.31291 0.45148 0.0
C3769 C 0.84782 0.32594 0.44459 0.0
C3770 C 0.80726 0.34941 0.45638 0.0
C3771 C 0.79117 0.39082 0.43082 0.0
C3772 C 0.79905 0.37281 0.4349 0.0
C3773 C 0.82895 0.32498 0.44813 0.0
C3774 C 0.81707 0.34028 0.44322 0.0
H3775 H 0.79934 0.42741 0.40413 0.0
H3776 H 0.81208 0.39799 0.41082 0.0
H3777 H 0.79191 0.37275 0.46296 0.0
H3778 H 0.82815 0.28596 0.4723 0.0
H3779 H 0.80739 0.30933 0.46073 0.0
C3780 C 0.92394 0.60283 0.71884 0.0
C3781 C 0.9397 0.59369 0.72445 0.0
C3782 C 0.91143 0.5944 0.70901 0.0
C3783 C 0.89226 0.55218 0.70602 0.0
H3784 H 0.8724 0.56982 0.662 0.0
C3785 C 0.83568 0.51506 0.67524 0.0
C3786 C 0.82187 0.52502 0.66694 0.0
C3787 C 0.85147 0.5231 0.67999 0.0
C3788 C 0.87762 0.56483 0.6744 0.0
H3789 H 0.95508 0.56885 0.72394 0.0
H3790 H 0.93268 0.55378 0.70725 0.0
H3791 H 0.89791 0.5848 0.67405 0.0
H3792 H 0.81374 0.55108 0.65676 0.0
H3793 H 0.84098 0.56549 0.66592 0.0
H3794 H 0.87152 0.53298 0.70723 0.0
C3795 C 0.93028 0.56756 0.7102 0.0
C3796 C 0.89232 0.57332 0.68117 0.0
C3797 C 0.94305 0.57615 0.71967 0.0
C3798 C 0.82424 0.54315 0.66315 0.0
C3799 C 0.83992 0.55133 0.6683 0.0
C3800 C 0.87737 0.54393 0.69949 0.0
C3801 C 0.91428 0.57658 0.70501 0.0
C3802 C 0.89971 0.56702 0.69702 0.0
C3803 C 0.85365 0.54142 0.67698 0.0
C3804 C 0.86983 0.55012 0.68358 0.0
H3805 H 0.92116 0.61642 0.72229 0.0
H3806 H 0.89911 0.60154 0.70524 0.0
H3807 H 0.89754 0.54733 0.71846 0.0
H3808 H 0.83433 0.50097 0.67801 0.0
H3809 H 0.86193 0.51488 0.68611 0.0
C3810 C 0.67084 0.45264 0.18902 0.0
C3811 C 0.68047 0.44798 0.17345 0.0
C3812 C 0.65342 0.44633 0.19307 0.0
C3813 C 0.61385 0.42693 0.17304 0.0
H3814 H 0.6005 0.41369 0.22165 0.0
C3815 C 0.55357 0.38285 0.19577 0.0
C3816 C 0.5446 0.38598 0.21204 0.0
C3817 C 0.56788 0.39349 0.18949 0.0
C3818 C 0.60385 0.41767 0.20806 0.0
H3819 H 0.67946 0.43271 0.15005 0.0
H3820 H 0.64915 0.42116 0.15743 0.0
H3821 H 0.63076 0.42462 0.21417 0.0
H3822 H 0.54272 0.40302 0.23418 0.0
H3823 H 0.56767 0.42193 0.22312 0.0
H3824 H 0.58697 0.41933 0.16697 0.0
C3825 C 0.65496 0.43006 0.16631 0.0
C3826 C 0.62126 0.42389 0.20374 0.0
C3827 C 0.67242 0.43649 0.16218 0.0
C3828 C 0.54932 0.40058 0.22145 0.0
C3829 C 0.56368 0.41123 0.2152 0.0
C3830 C 0.59641 0.42059 0.17736 0.0
C3831 C 0.64519 0.43504 0.18175 0.0
C3832 C 0.62654 0.42852 0.18618 0.0
C3833 C 0.57361 0.40731 0.19953 0.0
C3834 C 0.59127 0.41581 0.19493 0.0
H3835 H 0.6765 0.46162 0.19792 0.0
H3836 H 0.64622 0.45069 0.20491 0.0
H3837 H 0.61735 0.43065 0.15942 0.0
H3838 H 0.55046 0.37146 0.18848 0.0
H3839 H 0.57535 0.39 0.17748 0.0
C3840 C 0.60668 0.77836 0.91578 0.0
C3841 C 0.59474 0.78307 0.92989 0.0
C3842 C 0.60405 0.78549 0.89876 0.0
C3843 C 0.58347 0.82302 0.87445 0.0
H3844 H 0.57888 0.79097 0.83647 0.0
C3845 C 0.56883 0.8512 0.8063 0.0
C3846 C 0.55306 0.84458 0.79949 0.0
C3847 C 0.57773 0.84181 0.81971 0.0
C3848 C 0.58025 0.80005 0.84693 0.0
H3849 H 0.57115 0.79934 0.93741 0.0
H3850 H 0.56693 0.81222 0.9078 0.0
H3851 H 0.58688 0.77917 0.86581 0.0
H3852 H 0.53513 0.82227 0.80008 0.0
H3853 H 0.5506 0.80583 0.82381 0.0
H3854 H 0.57647 0.84385 0.85593 0.0
C3855 C 0.57818 0.80289 0.90987 0.0
C3856 C 0.58492 0.79334 0.86364 0.0
C3857 C 0.58059 0.79554 0.9268 0.0
C3858 C 0.54736 0.82758 0.80505 0.0
C3859 C 0.5562 0.81821 0.81866 0.0
C3860 C 0.57905 0.82973 0.85777 0.0
C3861 C 0.58968 0.79769 0.89565 0.0
C3862 C 0.58629 0.80477 0.8776 0.0
C3863 C 0.57087 0.82571 0.82673 0.0
C3864 C 0.57721 0.81833 0.84386 0.0
H3865 H 0.61758 0.76862 0.91773 0.0
H3866 H 0.61316 0.78137 0.88801 0.0
H3867 H 0.58449 0.83211 0.88497 0.0
H3868 H 0.57355 0.86424 0.80211 0.0
H3869 H 0.58926 0.84771 0.8254 0.0
C3870 C 0.41379 0.30182 0.06499 0.0
C3871 C 0.41791 0.28599 0.0565 0.0
C3872 C 0.42571 0.30814 0.07685 0.0
C3873 C 0.45471 0.28948 0.10935 0.0
H3874 H 0.46586 0.33814 0.11774 0.0
C3875 C 0.4861 0.30773 0.1737 0.0
C3876 C 0.48041 0.32379 0.18103 0.0
C3877 C 0.48138 0.30388 0.15677 0.0
C3878 C 0.46269 0.32451 0.11568 0.0
H3879 H 0.43834 0.26515 0.05246 0.0
H3880 H 0.45911 0.27603 0.07367 0.0
H3881 H 0.45386 0.3308 0.08956 0.0
H3882 H 0.46516 0.34837 0.17655 0.0
H3883 H 0.4559 0.34124 0.14729 0.0
H3884 H 0.46218 0.28319 0.13567 0.0
C3885 C 0.44667 0.28353 0.07105 0.0
C3886 C 0.45604 0.32031 0.09947 0.0
C3887 C 0.43484 0.27735 0.05891 0.0
C3888 C 0.46969 0.33587 0.17119 0.0
C3889 C 0.4646 0.33186 0.15435 0.0
C3890 C 0.46104 0.29369 0.12561 0.0
C3891 C 0.44184 0.2986 0.08059 0.0
C3892 C 0.45176 0.30279 0.09628 0.0
C3893 C 0.47047 0.31583 0.14689 0.0
C3894 C 0.46486 0.3113 0.12911 0.0
H3895 H 0.40087 0.30881 0.0632 0.0
H3896 H 0.42162 0.31973 0.08409 0.0
H3897 H 0.45113 0.27592 0.10737 0.0
H3898 H 0.49468 0.29828 0.18084 0.0
H3899 H 0.48652 0.29161 0.15138 0.0
C3900 C 0.92055 0.2217 0.42366 0.0
C3901 C 0.90306 0.22298 0.43186 0.0
C3902 C 0.92269 0.21811 0.4059 0.0
C3903 C 0.90533 0.19641 0.37015 0.0
H3904 H 0.93574 0.22905 0.34201 0.0
C3905 C 0.93941 0.17581 0.30463 0.0
C3906 C 0.95834 0.17763 0.30493 0.0
C3907 C 0.92784 0.18502 0.31639 0.0
C3908 C 0.92705 0.21991 0.3496 0.0
H3909 H 0.87412 0.2205 0.42804 0.0
H3910 H 0.87808 0.21342 0.39682 0.0
H3911 H 0.92417 0.23703 0.37129 0.0
H3912 H 0.9802 0.19079 0.31674 0.0
H3913 H 0.96019 0.20704 0.33708 0.0
H3914 H 0.90943 0.17865 0.34911 0.0
C3915 C 0.88999 0.21564 0.40426 0.0
C3916 C 0.92043 0.22449 0.3663 0.0
C3917 C 0.88778 0.21956 0.42209 0.0
C3918 C 0.96556 0.18949 0.3162 0.0
C3919 C 0.95406 0.19881 0.32778 0.0
C3920 C 0.9121 0.19174 0.35346 0.0
C3921 C 0.90745 0.21543 0.39597 0.0
C3922 C 0.91026 0.21242 0.377 0.0
C3923 C 0.93513 0.1962 0.32846 0.0
C3924 C 0.92381 0.20309 0.34341 0.0
H3925 H 0.93262 0.22424 0.43074 0.0
H3926 H 0.93632 0.21765 0.39981 0.0
H3927 H 0.89751 0.18693 0.37823 0.0
H3928 H 0.93368 0.16652 0.29608 0.0
H3929 H 0.91332 0.1828 0.31659 0.0
C3930 C 0.06915 0.67841 0.56135 0.0
C3931 C 0.06903 0.69701 0.55949 0.0
C3932 C 0.06235 0.67003 0.57696 0.0
C3933 C 0.05845 0.67862 0.62337 0.0
H3934 H 0.02448 0.64021 0.6288 0.0
C3935 C 0.02177 0.66117 0.68916 0.0
C3936 C 0.0173 0.64356 0.69363 0.0
C3937 C 0.02995 0.66567 0.67278 0.0
C3938 C 0.03428 0.65068 0.62747 0.0
H3939 H 0.06021 0.72133 0.57185 0.0
H3940 H 0.04844 0.7067 0.59898 0.0
H3941 H 0.03348 0.65197 0.59922 0.0
H3942 H 0.01874 0.61667 0.68473 0.0
H3943 H 0.03349 0.62454 0.65604 0.0
H3944 H 0.05948 0.67744 0.65139 0.0
C3945 C 0.05408 0.69864 0.58852 0.0
C3946 C 0.0393 0.65746 0.61057 0.0
C3947 C 0.06076 0.70699 0.57296 0.0
C3948 C 0.02205 0.63036 0.68167 0.0
C3949 C 0.03031 0.63489 0.66518 0.0
C3950 C 0.05364 0.67175 0.64016 0.0
C3951 C 0.05543 0.68015 0.59091 0.0
C3952 C 0.05103 0.67181 0.60846 0.0
C3953 C 0.03402 0.65267 0.66045 0.0
C3954 C 0.0411 0.65804 0.64247 0.0
H3955 H 0.07539 0.67036 0.55117 0.0
H3956 H 0.06346 0.65574 0.57851 0.0
H3957 H 0.06788 0.68942 0.62203 0.0
H3958 H 0.01828 0.67167 0.69806 0.0
H3959 H 0.03234 0.67953 0.66951 0.0
C3960 C 0.53493 0.1733 0.70274 0.0
C3961 C 0.52057 0.16227 0.69937 0.0
C3962 C 0.54198 0.1848 0.68944 0.0
C3963 C 0.55027 0.18438 0.64284 0.0
H3964 H 0.56196 0.23398 0.64436 0.0
C3965 C 0.59638 0.21909 0.58968 0.0
C3966 C 0.58854 0.23461 0.58214 0.0
C3967 C 0.58866 0.21138 0.60517 0.0
C3968 C 0.55879 0.22011 0.64385 0.0
H3969 H 0.50211 0.15446 0.67988 0.0
H3970 H 0.51433 0.17466 0.65658 0.0
H3971 H 0.54532 0.21948 0.66952 0.0
H3972 H 0.5669 0.25457 0.58512 0.0
H3973 H 0.55351 0.24108 0.61217 0.0
H3974 H 0.56377 0.18485 0.61733 0.0
C3975 C 0.51992 0.17466 0.66953 0.0
C3976 C 0.54932 0.21188 0.65816 0.0
C3977 C 0.51279 0.16333 0.68286 0.0
C3978 C 0.57315 0.24251 0.59055 0.0
C3979 C 0.56558 0.23492 0.60611 0.0
C3980 C 0.55993 0.1925 0.6287 0.0
C3981 C 0.53498 0.18499 0.67255 0.0
C3982 C 0.5448 0.19402 0.65761 0.0
C3983 C 0.57315 0.21921 0.61343 0.0
C3984 C 0.56412 0.21046 0.62902 0.0
H3985 H 0.5413 0.17232 0.71534 0.0
H3986 H 0.55369 0.19256 0.69197 0.0
H3987 H 0.54719 0.17048 0.64229 0.0
H3988 H 0.60831 0.2128 0.58351 0.0
H3989 H 0.59475 0.19927 0.61067 0.0
C3990 C 0.01461 0.35917 0.841 0.0
C3991 C 0.02019 0.3522 0.8247 0.0
C3992 C 0.02169 0.35204 0.85666 0.0
C3993 C 0.04129 0.31069 0.87479 0.0
H3994 H 0.06461 0.3386 0.90856 0.0
C3995 C 0.09493 0.2806 0.91882 0.0
C3996 C 0.09502 0.28479 0.93664 0.0
C3997 C 0.08319 0.28949 0.90744 0.0
C3998 C 0.05779 0.33069 0.89945 0.0
H3999 H 0.03793 0.33264 0.81205 0.0
H4000 H 0.0501 0.32026 0.83923 0.0
H4001 H 0.0489 0.35353 0.88398 0.0
H4002 H 0.08288 0.30178 0.95646 0.0
H4003 H 0.06213 0.31756 0.93625 0.0
H4004 H 0.05045 0.28789 0.88979 0.0
C4005 C 0.04016 0.3311 0.83993 0.0
C4006 C 0.04887 0.33921 0.88539 0.0
C4007 C 0.03325 0.33828 0.82435 0.0
C4008 C 0.08306 0.29822 0.94281 0.0
C4009 C 0.07126 0.30727 0.93128 0.0
C4010 C 0.05005 0.30223 0.8888 0.0
C4011 C 0.03427 0.33772 0.85624 0.0
C4012 C 0.04115 0.32921 0.87261 0.0
C4013 C 0.07117 0.30285 0.91351 0.0
C4014 C 0.05899 0.3121 0.90088 0.0
H4015 H 0.00458 0.36992 0.84169 0.0
H4016 H 0.01698 0.35737 0.8691 0.0
H4017 H 0.03509 0.3027 0.86531 0.0
H4018 H 0.10403 0.27043 0.91353 0.0
H4019 H 0.08373 0.28604 0.89375 0.0
C4020 C 0.9381 0.8516 0.18674 0.0
C4021 C 0.95213 0.85959 0.17634 0.0
C4022 C 0.92401 0.84326 0.17884 0.0
C4023 C 0.90459 0.83765 0.13467 0.0
H4024 H 0.88495 0.79516 0.15762 0.0
C4025 C 0.86367 0.79188 0.09491 0.0
C4026 C 0.86739 0.77374 0.09785 0.0
C4027 C 0.86857 0.80397 0.10712 0.0
C4028 C 0.8904 0.8069 0.15091 0.0
H4029 H 0.96288 0.86465 0.14968 0.0
H4030 H 0.93927 0.84906 0.13595 0.0
H4031 H 0.90537 0.81288 0.17321 0.0
H4032 H 0.87826 0.75379 0.11609 0.0
H4033 H 0.88803 0.77473 0.13671 0.0
H4034 H 0.89133 0.8308 0.11177 0.0
C4035 C 0.93835 0.85001 0.15012 0.0
C4036 C 0.90191 0.81732 0.16002 0.0
C4037 C 0.95207 0.85879 0.15798 0.0
C4038 C 0.87522 0.76775 0.11356 0.0
C4039 C 0.88067 0.77985 0.12549 0.0
C4040 C 0.89359 0.82697 0.12538 0.0
C4041 C 0.92399 0.84225 0.1604 0.0
C4042 C 0.90967 0.83253 0.15179 0.0
C4043 C 0.87794 0.7982 0.12219 0.0
C4044 C 0.88679 0.81111 0.13316 0.0
H4045 H 0.93782 0.85208 0.20097 0.0
H4046 H 0.91313 0.83769 0.18723 0.0
H4047 H 0.90967 0.84963 0.12808 0.0
H4048 H 0.85734 0.79675 0.08297 0.0
H4049 H 0.86557 0.81788 0.10436 0.0
C4050 C 0.46463 0.62073 0.35071 0.0
C4051 C 0.48226 0.62747 0.3507 0.0
C4052 C 0.45261 0.62281 0.3653 0.0
C4053 C 0.44793 0.63502 0.41168 0.0
H4054 H 0.41028 0.66787 0.39547 0.0
C4055 C 0.41589 0.68892 0.4555 0.0
C4056 C 0.39923 0.6969 0.45093 0.0
C4057 C 0.42365 0.67531 0.44545 0.0
C4058 C 0.42019 0.65831 0.40049 0.0
H4059 H 0.50183 0.63998 0.36633 0.0
H4060 H 0.48095 0.64333 0.39187 0.0
H4061 H 0.42804 0.65104 0.37437 0.0
H4062 H 0.3769 0.69622 0.43329 0.0
H4063 H 0.38919 0.67145 0.41723 0.0
H4064 H 0.44018 0.64237 0.43786 0.0
C4065 C 0.47635 0.63663 0.38064 0.0
C4066 C 0.43045 0.64866 0.38825 0.0
C4067 C 0.48819 0.63493 0.36595 0.0
C4068 C 0.38987 0.69036 0.43701 0.0
C4069 C 0.3971 0.67626 0.42761 0.0
C4070 C 0.4373 0.64437 0.42407 0.0
C4071 C 0.45827 0.63121 0.38018 0.0
C4072 C 0.44483 0.63747 0.39364 0.0
C4073 C 0.4145 0.66907 0.43108 0.0
C4074 C 0.42374 0.65669 0.41857 0.0
H4075 H 0.45982 0.61484 0.3391 0.0
H4076 H 0.43866 0.61863 0.36468 0.0
H4077 H 0.45901 0.62642 0.41609 0.0
H4078 H 0.42333 0.6938 0.46619 0.0
H4079 H 0.43715 0.67033 0.4485 0.0
C4080 C 0.78027 0.54958 0.85678 0.0
C4081 C 0.78439 0.54288 0.87368 0.0
C4082 C 0.79324 0.55914 0.84653 0.0
C4083 C 0.83533 0.58416 0.84775 0.0
H4084 H 0.84881 0.56247 0.80364 0.0
C4085 C 0.90481 0.59576 0.81091 0.0
C4086 C 0.9059 0.5946 0.79254 0.0
C4087 C 0.88846 0.59219 0.82041 0.0
C4088 C 0.84504 0.56905 0.81568 0.0
H4089 H 0.80466 0.54179 0.89362 0.0
H4090 H 0.82711 0.55875 0.87586 0.0
H4091 H 0.82213 0.55243 0.82084 0.0
H4092 H 0.89062 0.58995 0.76952 0.0
H4093 H 0.86199 0.5846 0.78586 0.0
H4094 H 0.8582 0.60084 0.84263 0.0
C4095 C 0.81401 0.5565 0.87046 0.0
C4096 C 0.82973 0.56322 0.82555 0.0
C4097 C 0.80124 0.54666 0.88053 0.0
C4098 C 0.89023 0.5906 0.78374 0.0
C4099 C 0.87383 0.58744 0.79314 0.0
C4100 C 0.85051 0.59024 0.83772 0.0
C4101 C 0.8103 0.56245 0.85323 0.0
C4102 C 0.82495 0.57047 0.84182 0.0
C4103 C 0.8728 0.58776 0.81164 0.0
C4104 C 0.85578 0.58251 0.8217 0.0
H4105 H 0.76737 0.54682 0.85122 0.0
H4106 H 0.7901 0.56363 0.83326 0.0
H4107 H 0.83183 0.58998 0.86026 0.0
H4108 H 0.91674 0.59881 0.81798 0.0
H4109 H 0.88831 0.59234 0.83464 0.0
C4110 C 0.68178 0.56479 0.11423 0.0
C4111 C 0.69276 0.55551 0.10191 0.0
C4112 C 0.67034 0.57887 0.10862 0.0
C4113 C 0.65093 0.60065 0.06834 0.0
H4114 H 0.65639 0.64409 0.09268 0.0
C4115 C 0.65044 0.66885 0.03349 0.0
C4116 C 0.64002 0.68267 0.04099 0.0
C4117 C 0.65243 0.65257 0.04258 0.0
C4118 C 0.65443 0.632 0.08595 0.0
H4119 H 0.69963 0.55309 0.07405 0.0
H4120 H 0.68009 0.57756 0.06438 0.0
H4121 H 0.6673 0.61598 0.10595 0.0
H4122 H 0.62358 0.69036 0.06394 0.0
H4123 H 0.62765 0.66182 0.08022 0.0
H4124 H 0.63917 0.61689 0.04781 0.0
C4125 C 0.68003 0.57397 0.07832 0.0
C4126 C 0.66061 0.61588 0.09355 0.0
C4127 C 0.69141 0.56 0.0839 0.0
C4128 C 0.63174 0.67993 0.05788 0.0
C4129 C 0.63403 0.66366 0.06716 0.0
C4130 C 0.64494 0.61675 0.06068 0.0
C4131 C 0.66963 0.58383 0.0906 0.0
C4132 C 0.65959 0.60013 0.08449 0.0
C4133 C 0.64426 0.6498 0.05949 0.0
C4134 C 0.64726 0.63263 0.06912 0.0
H4135 H 0.68246 0.56157 0.12821 0.0
H4136 H 0.66237 0.5861 0.11839 0.0
H4137 H 0.64953 0.5887 0.06122 0.0
H4138 H 0.65685 0.67047 0.02042 0.0
H4139 H 0.6606 0.64217 0.03648 0.0
C4140 C 0.65811 0.45636 0.32975 0.0
C4141 C 0.67533 0.45261 0.33653 0.0
C4142 C 0.64801 0.44291 0.3233 0.0
C4143 C 0.65058 0.39687 0.30836 0.0
H4144 H 0.59842 0.40045 0.31842 0.0
C4145 C 0.59851 0.36049 0.26977 0.0
C4146 C 0.58122 0.35708 0.27762 0.0
C4147 C 0.61159 0.36877 0.2791 0.0
C4148 C 0.61297 0.39893 0.31576 0.0
H4149 H 0.69578 0.43192 0.3413 0.0
H4150 H 0.67794 0.40827 0.33026 0.0
H4151 H 0.61811 0.42179 0.33005 0.0
H4152 H 0.56463 0.35801 0.30186 0.0
H4153 H 0.58772 0.37172 0.31845 0.0
H4154 H 0.64539 0.37371 0.29434 0.0
C4155 C 0.67235 0.42168 0.32975 0.0
C4156 C 0.62427 0.41145 0.32217 0.0
C4157 C 0.68258 0.43523 0.33605 0.0
C4158 C 0.57777 0.36075 0.29541 0.0
C4159 C 0.59097 0.36873 0.30485 0.0
C4160 C 0.63926 0.38417 0.30208 0.0
C4161 C 0.65475 0.42531 0.32367 0.0
C4162 C 0.64315 0.41091 0.31812 0.0
C4163 C 0.60776 0.37357 0.29658 0.0
C4164 C 0.62023 0.38531 0.30532 0.0
H4165 H 0.65223 0.46966 0.3298 0.0
H4166 H 0.63475 0.44631 0.31823 0.0
H4167 H 0.66507 0.396 0.30503 0.0
H4168 H 0.60157 0.35783 0.25605 0.0
H4169 H 0.62425 0.37239 0.27219 0.0
C4170 C 0.85317 0.34689 0.52197 0.0
C4171 C 0.8623 0.33117 0.52743 0.0
C4172 C 0.85022 0.36061 0.53353 0.0
C4173 C 0.84324 0.36754 0.58009 0.0
H4174 H 0.84694 0.41726 0.56595 0.0
C4175 C 0.81225 0.41998 0.62491 0.0
C4176 C 0.80159 0.43308 0.61629 0.0
C4177 C 0.8247 0.40952 0.61529 0.0
C4178 C 0.84579 0.40344 0.5701 0.0
H4179 H 0.876 0.31769 0.54912 0.0
H4180 H 0.87061 0.34164 0.56939 0.0
H4181 H 0.85915 0.39474 0.54624 0.0
H4182 H 0.79625 0.44631 0.59113 0.0
H4183 H 0.81734 0.42763 0.57421 0.0
H4184 H 0.82893 0.37594 0.60337 0.0
C4185 C 0.86575 0.34329 0.55615 0.0
C4186 C 0.85283 0.39058 0.55883 0.0
C4187 C 0.86882 0.32961 0.54455 0.0
C4188 C 0.80435 0.43629 0.59808 0.0
C4189 C 0.81655 0.42562 0.5884 0.0
C4190 C 0.83602 0.38035 0.59125 0.0
C4191 C 0.85625 0.35883 0.5508 0.0
C4192 C 0.85121 0.37251 0.56357 0.0
C4193 C 0.82646 0.41174 0.59682 0.0
C4194 C 0.83678 0.39845 0.58621 0.0
H4195 H 0.84804 0.34852 0.50884 0.0
H4196 H 0.84264 0.37236 0.52915 0.0
H4197 H 0.84163 0.35369 0.58399 0.0
H4198 H 0.81058 0.41748 0.63902 0.0
H4199 H 0.83246 0.39927 0.62226 0.0
C4200 C 0.88717 0.38748 0.75055 0.0
C4201 C 0.90461 0.3912 0.74314 0.0
C4202 C 0.87167 0.39097 0.7409 0.0
C4203 C 0.85598 0.4022 0.69594 0.0
H4204 H 0.818 0.42919 0.72078 0.0
C4205 C 0.81161 0.45501 0.66227 0.0
C4206 C 0.79303 0.45692 0.66728 0.0
C4207 C 0.82273 0.44268 0.67102 0.0
C4208 C 0.82824 0.42131 0.71374 0.0
H4209 H 0.91955 0.4008 0.71957 0.0
H4210 H 0.89245 0.40725 0.70278 0.0
H4211 H 0.84269 0.41517 0.73709 0.0
H4212 H 0.77146 0.44726 0.68529 0.0
H4213 H 0.79124 0.4258 0.70106 0.0
H4214 H 0.84195 0.40919 0.67245 0.0
C4215 C 0.89076 0.40138 0.71599 0.0
C4216 C 0.84242 0.41328 0.72307 0.0
C4217 C 0.9063 0.39783 0.72564 0.0
C4218 C 0.78574 0.44608 0.68119 0.0
C4219 C 0.79702 0.43382 0.69017 0.0
C4220 C 0.84183 0.41028 0.68662 0.0
C4221 C 0.87326 0.3983 0.72364 0.0
C4222 C 0.85678 0.40417 0.71417 0.0
C4223 C 0.81563 0.43207 0.68515 0.0
C4224 C 0.82821 0.42044 0.69535 0.0
H4225 H 0.88543 0.38215 0.76396 0.0
H4226 H 0.85841 0.38821 0.74707 0.0
H4227 H 0.86664 0.39495 0.68879 0.0
H4228 H 0.81764 0.46308 0.65153 0.0
H4229 H 0.83708 0.44185 0.66705 0.0
C4230 C 0.77592 0.56549 0.94687 0.0
C4231 C 0.77807 0.56669 0.92842 0.0
C4232 C 0.78575 0.57647 0.95711 0.0
C4233 C 0.8249 0.60632 0.95635 0.0
H4234 H 0.79334 0.63524 0.98635 0.0
C4235 C 0.85036 0.66552 0.99423 0.0
C4236 C 0.83901 0.68079 0.99365 0.0
C4237 C 0.84451 0.64966 0.9878 0.0
C4238 C 0.80234 0.62724 0.97806 0.0
H4239 H 0.79299 0.57917 0.90622 0.0
H4240 H 0.81042 0.59805 0.92408 0.0
H4241 H 0.78108 0.60959 0.97305 0.0
H4242 H 0.81301 0.69167 0.98523 0.0
H4243 H 0.80301 0.6642 0.97371 0.0
H4244 H 0.84598 0.62442 0.96084 0.0
C4245 C 0.80108 0.58881 0.93066 0.0
C4246 C 0.79538 0.61243 0.97064 0.0
C4247 C 0.79101 0.57813 0.92043 0.0
C4248 C 0.82201 0.68008 0.98599 0.0
C4249 C 0.8162 0.6643 0.97954 0.0
C4250 C 0.83191 0.62109 0.96389 0.0
C4251 C 0.79815 0.58849 0.94905 0.0
C4252 C 0.80646 0.60212 0.95932 0.0
C4253 C 0.82723 0.64884 0.98067 0.0
C4254 C 0.82054 0.63201 0.97437 0.0
H4255 H 0.76596 0.55677 0.95329 0.0
H4256 H 0.78329 0.57595 0.97128 0.0
H4257 H 0.83373 0.5985 0.94774 0.0
H4258 H 0.86347 0.66563 0.0002 0.0
H4259 H 0.85327 0.63794 0.98887 0.0
C4260 C 0.57553 0.58884 0.22226 0.0
C4261 C 0.5656 0.57653 0.23295 0.0
C4262 C 0.59171 0.58354 0.21332 0.0
C4263 C 0.61435 0.54495 0.195 0.0
H4264 H 0.66052 0.56639 0.20297 0.0
C4265 C 0.68032 0.50866 0.17688 0.0
C4266 C 0.69459 0.5182 0.16854 0.0
C4267 C 0.66551 0.51746 0.18484 0.0
C4268 C 0.6477 0.56045 0.20041 0.0
H4269 H 0.56458 0.54909 0.24251 0.0
H4270 H 0.59246 0.53984 0.2266 0.0
H4271 H 0.63207 0.57929 0.21562 0.0
H4272 H 0.70501 0.54441 0.16245 0.0
H4273 H 0.67849 0.56 0.17583 0.0
H4274 H 0.62957 0.52621 0.1798 0.0
C4275 C 0.58783 0.55354 0.22521 0.0
C4276 C 0.63148 0.56783 0.20762 0.0
C4277 C 0.57189 0.55885 0.2343 0.0
C4278 C 0.69414 0.53677 0.16886 0.0
C4279 C 0.67902 0.54567 0.17654 0.0
C4280 C 0.63041 0.53774 0.18767 0.0
C4281 C 0.59791 0.56583 0.21473 0.0
C4282 C 0.61477 0.55981 0.20531 0.0
C4283 C 0.66433 0.53605 0.18419 0.0
C4284 C 0.64732 0.54505 0.19072 0.0
H4285 H 0.57106 0.6026 0.22117 0.0
H4286 H 0.5993 0.59319 0.20524 0.0
H4287 H 0.60157 0.53871 0.19286 0.0
H4288 H 0.68041 0.49434 0.17697 0.0
H4289 H 0.65473 0.50963 0.19115 0.0
C4290 C 0.72039 0.43553 0.42192 0.0
C4291 C 0.70929 0.45026 0.41747 0.0
C4292 C 0.71436 0.42301 0.4347 0.0
C4293 C 0.67207 0.40379 0.45021 0.0
H4294 H 0.70255 0.37715 0.48284 0.0
C4295 C 0.64828 0.33913 0.48586 0.0
C4296 C 0.66143 0.32532 0.48705 0.0
C4297 C 0.65338 0.35618 0.4803 0.0
C4298 C 0.69391 0.38442 0.47372 0.0
H4299 H 0.68348 0.4639 0.423 0.0
H4300 H 0.67278 0.44185 0.44539 0.0
H4301 H 0.71329 0.40496 0.46906 0.0
H4302 H 0.6901 0.31836 0.483 0.0
H4303 H 0.69892 0.34794 0.47256 0.0
H4304 H 0.65313 0.38292 0.454 0.0
C4305 C 0.6862 0.44008 0.4391 0.0
C4306 C 0.7 0.40038 0.46597 0.0
C4307 C 0.69229 0.45264 0.42635 0.0
C4308 C 0.67969 0.32877 0.48221 0.0
C4309 C 0.68476 0.34577 0.47646 0.0
C4310 C 0.66605 0.38779 0.45783 0.0
C4311 C 0.697 0.42492 0.44304 0.0
C4312 C 0.68934 0.40994 0.45378 0.0
C4313 C 0.6717 0.3597 0.47562 0.0
C4314 C 0.67713 0.37768 0.46927 0.0
H4315 H 0.73313 0.43304 0.41464 0.0
H4316 H 0.72276 0.41123 0.43714 0.0
H4317 H 0.66367 0.41078 0.44067 0.0
H4318 H 0.63412 0.33694 0.48975 0.0
H4319 H 0.64302 0.36664 0.47996 0.0
C4320 C 0.82354 0.79769 0.54862 0.0
C4321 C 0.84258 0.79875 0.54848 0.0
C4322 C 0.81258 0.81089 0.55639 0.0
C4323 C 0.81099 0.84796 0.58581 0.0
H4324 H 0.7871 0.8746 0.5483 0.0
C4325 C 0.79146 0.92183 0.59154 0.0
C4326 C 0.77656 0.9288 0.58239 0.0
C4327 C 0.79745 0.90433 0.58933 0.0
C4328 C 0.7932 0.86723 0.55915 0.0
H4329 H 0.86522 0.81322 0.55744 0.0
H4330 H 0.8461 0.83589 0.57152 0.0
H4331 H 0.79975 0.84526 0.54302 0.0
H4332 H 0.75564 0.92295 0.56446 0.0
H4333 H 0.7653 0.89228 0.56133 0.0
H4334 H 0.80444 0.8698 0.60204 0.0
C4335 C 0.83962 0.82509 0.56553 0.0
C4336 C 0.80046 0.85038 0.55606 0.0
C4337 C 0.85053 0.81222 0.5574 0.0
C4338 C 0.76748 0.91797 0.57131 0.0
C4339 C 0.77308 0.90037 0.56951 0.0
C4340 C 0.80333 0.86468 0.58907 0.0
C4341 C 0.82062 0.82491 0.56449 0.0
C4342 C 0.80981 0.84082 0.5692 0.0
C4343 C 0.78826 0.89331 0.57834 0.0
C4344 C 0.79479 0.87477 0.57561 0.0
H4345 H 0.81719 0.78744 0.54169 0.0
H4346 H 0.79792 0.81062 0.55538 0.0
H4347 H 0.81824 0.84077 0.5961 0.0
H4348 H 0.79858 0.92998 0.60023 0.0
H4349 H 0.80941 0.89956 0.59607 0.0
C4350 C 0.28168 0.5858 0.37265 0.0
C4351 C 0.26811 0.57948 0.38478 0.0
C4352 C 0.29113 0.60107 0.37592 0.0
C4353 C 0.28882 0.64038 0.40364 0.0
H4354 H 0.34159 0.63619 0.40188 0.0
C4355 C 0.33183 0.68891 0.4394 0.0
C4356 C 0.34464 0.68023 0.45018 0.0
C4357 C 0.32366 0.67978 0.42633 0.0
C4358 C 0.32686 0.63764 0.40232 0.0
H4359 H 0.25355 0.58442 0.40963 0.0
H4360 H 0.27 0.61074 0.41536 0.0
H4361 H 0.32394 0.61397 0.38837 0.0
H4362 H 0.35955 0.65546 0.45518 0.0
H4363 H 0.34512 0.63956 0.43287 0.0
H4364 H 0.29162 0.66325 0.41872 0.0
C4365 C 0.27327 0.6041 0.40323 0.0
C4366 C 0.31676 0.62501 0.39441 0.0
C4367 C 0.26399 0.58885 0.40005 0.0
C4368 C 0.3496 0.6625 0.44723 0.0
C4369 C 0.3415 0.65343 0.43422 0.0
C4370 C 0.2989 0.65296 0.4116 0.0
C4371 C 0.28697 0.61038 0.39127 0.0
C4372 C 0.29762 0.6258 0.39575 0.0
C4373 C 0.32824 0.66184 0.42378 0.0
C4374 C 0.318 0.65123 0.41176 0.0
H4375 H 0.28508 0.57889 0.3607 0.0
H4376 H 0.30165 0.60561 0.36649 0.0
H4377 H 0.27407 0.64151 0.40454 0.0
H4378 H 0.3279 0.70264 0.44124 0.0
H4379 H 0.31358 0.68666 0.4184 0.0
C4380 C 0.54468 0.09354 0.6626 0.0
C4381 C 0.53823 0.08644 0.67905 0.0
C4382 C 0.55858 0.08476 0.65298 0.0
C4383 C 0.58597 0.04264 0.65076 0.0
H4384 H 0.62622 0.07377 0.63879 0.0
C4385 C 0.66026 0.01802 0.64994 0.0
C4386 C 0.67236 0.02411 0.63631 0.0
C4387 C 0.64264 0.02524 0.65167 0.0
C4388 C 0.61503 0.06492 0.64174 0.0
H4389 H 0.53991 0.06375 0.69741 0.0
H4390 H 0.56408 0.0485 0.68071 0.0
H4391 H 0.59629 0.0864 0.64698 0.0
H4392 H 0.67554 0.04275 0.61394 0.0
H4393 H 0.64464 0.05559 0.61717 0.0
H4394 H 0.60496 0.02116 0.64624 0.0
C4395 C 0.55853 0.06084 0.67522 0.0
C4396 C 0.59784 0.07215 0.64638 0.0
C4397 C 0.54471 0.06964 0.68486 0.0
C4398 C 0.66653 0.0378 0.6246 0.0
C4399 C 0.64886 0.04514 0.62643 0.0
C4400 C 0.60315 0.03543 0.64617 0.0
C4401 C 0.56615 0.06866 0.65955 0.0
C4402 C 0.58326 0.06107 0.65147 0.0
C4403 C 0.63669 0.03879 0.63989 0.0
C4404 C 0.61798 0.04649 0.64217 0.0
H4405 H 0.53988 0.10642 0.65768 0.0
H4406 H 0.56396 0.09096 0.6408 0.0
H4407 H 0.57494 0.03377 0.65431 0.0
H4408 H 0.6643 0.00749 0.65919 0.0
H4409 H 0.6337 0.02032 0.6624 0.0
C4410 C 0.17996 0.30515 0.93776 0.0
C4411 C 0.16169 0.30614 0.93298 0.0
C4412 C 0.1922 0.31784 0.93103 0.0
C4413 C 0.19959 0.3549 0.89851 0.0
H4414 H 0.21428 0.38021 0.9386 0.0
C4415 C 0.21803 0.42855 0.89221 0.0
C4416 C 0.23147 0.43453 0.90291 0.0
C4417 C 0.21179 0.41126 0.89457 0.0
C4418 C 0.21072 0.3732 0.92717 0.0
H4419 H 0.14235 0.31965 0.91603 0.0
H4420 H 0.16386 0.34146 0.90386 0.0
H4421 H 0.20141 0.35108 0.94325 0.0
H4422 H 0.24915 0.42705 0.92428 0.0
H4423 H 0.23877 0.39692 0.92801 0.0
H4424 H 0.20878 0.37707 0.88241 0.0
C4425 C 0.16869 0.33111 0.91294 0.0
C4426 C 0.20336 0.35646 0.92987 0.0
C4427 C 0.15638 0.31869 0.91993 0.0
C4428 C 0.23852 0.42295 0.91602 0.0
C4429 C 0.23255 0.40562 0.91816 0.0
C4430 C 0.20724 0.37158 0.89576 0.0
C4431 C 0.1864 0.33137 0.91914 0.0
C4432 C 0.19734 0.34734 0.91563 0.0
C4433 C 0.2191 0.39952 0.90748 0.0
C4434 C 0.21246 0.38114 0.91012 0.0
H4435 H 0.18438 0.29563 0.94785 0.0
H4436 H 0.20584 0.31775 0.93593 0.0
H4437 H 0.19503 0.34809 0.88733 0.0
H4438 H 0.21239 0.4372 0.88198 0.0
H4439 H 0.20115 0.40717 0.88634 0.0
C4440 C 0.33771 0.48092 0.61902 0.0
C4441 C 0.32033 0.47351 0.61999 0.0
C4442 C 0.35297 0.47084 0.62394 0.0
C4443 C 0.36301 0.43819 0.65705 0.0
H4444 H 0.41204 0.43664 0.63585 0.0
C4445 C 0.42137 0.40621 0.69515 0.0
C4446 C 0.43871 0.41364 0.6933 0.0
C4447 C 0.40766 0.41164 0.68395 0.0
C4448 C 0.39847 0.43714 0.64203 0.0
H4449 H 0.30537 0.44946 0.62551 0.0
H4450 H 0.33215 0.43185 0.63476 0.0
H4451 H 0.38671 0.44845 0.61858 0.0
H4452 H 0.45528 0.4327 0.67828 0.0
H4453 H 0.43085 0.44301 0.65912 0.0
H4454 H 0.37451 0.42826 0.68079 0.0
C4455 C 0.33389 0.44545 0.63001 0.0
C4456 C 0.38398 0.44368 0.63206 0.0
C4457 C 0.31862 0.45548 0.62474 0.0
C4458 C 0.44202 0.42675 0.67999 0.0
C4459 C 0.42807 0.4325 0.66892 0.0
C4460 C 0.37744 0.43203 0.66708 0.0
C4461 C 0.35105 0.45325 0.63019 0.0
C4462 C 0.36615 0.44429 0.63954 0.0
C4463 C 0.41067 0.42503 0.67084 0.0
C4464 C 0.3954 0.43143 0.65976 0.0
H4465 H 0.33941 0.49477 0.61516 0.0
H4466 H 0.36602 0.47718 0.62406 0.0
H4467 H 0.34946 0.43898 0.66327 0.0
H4468 H 0.41843 0.39581 0.70504 0.0
H4469 H 0.39471 0.40512 0.68553 0.0
C4470 C 0.73125 0.08017 0.07416 0.0
C4471 C 0.7209 0.06924 0.08591 0.0
C4472 C 0.72486 0.09708 0.06929 0.0
C4473 C 0.68906 0.13135 0.07978 0.0
H4474 H 0.69592 0.14387 0.02994 0.0
C4475 C 0.64377 0.16993 0.02929 0.0
C4476 C 0.64893 0.18756 0.02604 0.0
C4477 C 0.65446 0.15832 0.03935 0.0
C4478 C 0.6943 0.1407 0.04395 0.0
H4479 H 0.69588 0.06737 0.102 0.0
H4480 H 0.68406 0.09666 0.09265 0.0
H4481 H 0.7111 0.11743 0.04212 0.0
H4482 H 0.66898 0.20706 0.03109 0.0
H4483 H 0.68814 0.18625 0.04849 0.0
H4484 H 0.67095 0.15413 0.08096 0.0
C4485 C 0.69745 0.09241 0.08767 0.0
C4486 C 0.70297 0.12559 0.05098 0.0
C4487 C 0.70407 0.07556 0.09286 0.0
C4488 C 0.66476 0.19351 0.03341 0.0
C4489 C 0.67562 0.18174 0.04337 0.0
C4490 C 0.68021 0.14643 0.07264 0.0
C4491 C 0.70774 0.1033 0.0757 0.0
C4492 C 0.70013 0.12049 0.0689 0.0
C4493 C 0.67051 0.16409 0.04621 0.0
C4494 C 0.68257 0.15091 0.05464 0.0
H4495 H 0.74445 0.07577 0.06882 0.0
H4496 H 0.73333 0.10524 0.06038 0.0
H4497 H 0.68681 0.12794 0.09367 0.0
H4498 H 0.63151 0.16504 0.024 0.0
H4499 H 0.65046 0.14466 0.04138 0.0
C4500 C 0.54084 0.91931 0.7883 0.0
C4501 C 0.54525 0.90949 0.77333 0.0
C4502 C 0.5546 0.927 0.79735 0.0
C4503 C 0.60279 0.9192 0.80543 0.0
H4504 H 0.60281 0.9672 0.82138 0.0
C4505 C 0.66773 0.9531 0.82292 0.0
C4506 C 0.66716 0.96427 0.83719 0.0
C4507 C 0.65187 0.94548 0.81774 0.0
C4508 C 0.60281 0.95365 0.81729 0.0
H4509 H 0.5675 0.90103 0.75553 0.0
H4510 H 0.5912 0.9146 0.77108 0.0
H4511 H 0.57644 0.95704 0.80629 0.0
H4512 H 0.64968 0.97591 0.85757 0.0
H4513 H 0.62176 0.96258 0.84839 0.0
H4514 H 0.62918 0.91581 0.81607 0.0
C4515 C 0.57718 0.91608 0.77601 0.0
C4516 C 0.58778 0.94789 0.80861 0.0
C4517 C 0.56352 0.90848 0.76699 0.0
C4518 C 0.65052 0.96718 0.84662 0.0
C4519 C 0.63454 0.95973 0.84127 0.0
C4520 C 0.61772 0.92491 0.8141 0.0
C4521 C 0.57295 0.92488 0.79159 0.0
C4522 C 0.58789 0.93076 0.8022 0.0
C4523 C 0.63505 0.94903 0.8266 0.0
C4524 C 0.6181 0.94232 0.81973 0.0
H4525 H 0.52688 0.9204 0.79345 0.0
H4526 H 0.55099 0.93382 0.80929 0.0
H4527 H 0.603 0.90576 0.801 0.0
H4528 H 0.68037 0.95068 0.81539 0.0
H4529 H 0.65266 0.93743 0.80627 0.0
C4530 C 0.83144 0.06066 0.34406 0.0
C4531 C 0.82499 0.0467 0.33465 0.0
C4532 C 0.8478 0.06876 0.33866 0.0
C4533 C 0.88047 0.07365 0.30002 0.0
H4534 H 0.91354 0.08824 0.33471 0.0
C4535 C 0.95188 0.09827 0.27966 0.0
C4536 C 0.95476 0.11534 0.28525 0.0
C4537 C 0.93755 0.08837 0.28732 0.0
C4538 C 0.90442 0.08416 0.32492 0.0
H4539 H 0.8307 0.03025 0.31226 0.0
H4540 H 0.8592 0.04398 0.30317 0.0
H4541 H 0.88472 0.0747 0.34447 0.0
H4542 H 0.94574 0.13527 0.30349 0.0
H4543 H 0.92112 0.11777 0.31732 0.0
H4544 H 0.90026 0.08295 0.28052 0.0
C4545 C 0.85152 0.04904 0.31444 0.0
C4546 C 0.88785 0.07658 0.33047 0.0
C4547 C 0.83516 0.04109 0.31972 0.0
C4548 C 0.9439 0.122 0.29922 0.0
C4549 C 0.92983 0.112 0.30709 0.0
C4550 C 0.89709 0.081 0.29451 0.0
C4551 C 0.85809 0.06297 0.32382 0.0
C4552 C 0.87565 0.07126 0.31807 0.0
C4553 C 0.92611 0.09537 0.30078 0.0
C4554 C 0.9092 0.08636 0.30689 0.0
H4555 H 0.82389 0.06528 0.35561 0.0
H4556 H 0.85232 0.07962 0.34605 0.0
H4557 H 0.87127 0.07011 0.29008 0.0
H4558 H 0.95993 0.09308 0.26866 0.0
H4559 H 0.93495 0.07554 0.28227 0.0
C4560 C 0.41355 0.20088 0.06926 0.0
C4561 C 0.39908 0.21292 0.06604 0.0
C4562 C 0.41691 0.1947 0.08643 0.0
C4563 C 0.39759 0.19347 0.13283 0.0
H4564 H 0.44868 0.18829 0.14335 0.0
C4565 C 0.4225 0.16068 0.19767 0.0
C4566 C 0.43946 0.16534 0.20372 0.0
C4567 C 0.41599 0.1685 0.18212 0.0
C4568 C 0.43433 0.18998 0.14078 0.0
H4569 H 0.37629 0.22741 0.07821 0.0
H4570 H 0.38243 0.21714 0.10814 0.0
H4571 H 0.44032 0.19657 0.11361 0.0
H4572 H 0.46193 0.18327 0.19922 0.0
H4573 H 0.45023 0.1974 0.17247 0.0
H4574 H 0.39167 0.18752 0.16023 0.0
C4575 C 0.391 0.21207 0.09745 0.0
C4576 C 0.42951 0.19436 0.12355 0.0
C4577 C 0.38746 0.21799 0.08024 0.0
C4578 C 0.44891 0.17922 0.19481 0.0
C4579 C 0.44229 0.18717 0.17934 0.0
C4580 C 0.40243 0.18929 0.15014 0.0
C4581 C 0.40607 0.20072 0.10083 0.0
C4582 C 0.41107 0.19597 0.11927 0.0
C4583 C 0.42617 0.18134 0.17237 0.0
C4584 C 0.42087 0.18733 0.15432 0.0
H4585 H 0.42266 0.19666 0.05855 0.0
H4586 H 0.4283 0.18555 0.08843 0.0
H4587 H 0.38325 0.19447 0.13007 0.0
H4588 H 0.41482 0.15008 0.20422 0.0
H4589 H 0.40356 0.16359 0.1772 0.0
C4590 C 0.58518 0.6981 0.93013 0.0
C4591 C 0.57822 0.71171 0.94065 0.0
C4592 C 0.57401 0.68994 0.9188 0.0
C4593 C 0.53528 0.7016 0.89248 0.0
H4594 H 0.54393 0.65382 0.87686 0.0
C4595 C 0.52626 0.68457 0.82096 0.0
C4596 C 0.51899 0.66819 0.81741 0.0
C4597 C 0.53073 0.68823 0.83804 0.0
C4598 C 0.54107 0.66712 0.88116 0.0
H4599 H 0.55386 0.72662 0.94868 0.0
H4600 H 0.53412 0.71233 0.92859 0.0
H4601 H 0.55474 0.66187 0.90518 0.0
H4602 H 0.51096 0.64267 0.82894 0.0
H4603 H 0.51865 0.64912 0.85881 0.0
H4604 H 0.52179 0.70692 0.86841 0.0
C4605 C 0.5483 0.70807 0.92909 0.0
C4606 C 0.54737 0.67176 0.89735 0.0
C4607 C 0.55953 0.71616 0.94063 0.0
C4608 C 0.51674 0.65535 0.83122 0.0
C4609 C 0.52109 0.65907 0.84835 0.0
C4610 C 0.52889 0.69693 0.87635 0.0
C4611 C 0.55562 0.69528 0.91764 0.0
C4612 C 0.54519 0.68923 0.90285 0.0
C4613 C 0.52788 0.67565 0.852 0.0
C4614 C 0.53235 0.67984 0.87019 0.0
H4615 H 0.59953 0.6943 0.93004 0.0
H4616 H 0.58017 0.6803 0.91008 0.0
H4617 H 0.53344 0.71519 0.89627 0.0
H4618 H 0.5282 0.69472 0.81059 0.0
H4619 H 0.53641 0.70097 0.84029 0.0
C4620 C 0.07672 0.78863 0.56762 0.0
C4621 C 0.0922 0.77798 0.5637 0.0
C4622 C 0.0741 0.79572 0.5842 0.0
C4623 C 0.08475 0.78517 0.6298 0.0
H4624 H 0.05943 0.83006 0.63726 0.0
C4625 C 0.05506 0.81032 0.69775 0.0
C4626 C 0.0369 0.81656 0.69674 0.0
C4627 C 0.06513 0.80583 0.6824 0.0
C4628 C 0.06661 0.81752 0.63537 0.0
H4629 H 0.11773 0.76743 0.57369 0.0
H4630 H 0.1131 0.7799 0.60269 0.0
H4631 H 0.07225 0.82373 0.60802 0.0
H4632 H 0.01463 0.8217 0.67921 0.0
H4633 H 0.03207 0.81391 0.65271 0.0
H4634 H 0.07846 0.77883 0.65718 0.0
C4635 C 0.10293 0.78258 0.59296 0.0
C4636 C 0.07392 0.8139 0.61866 0.0
C4637 C 0.10563 0.77558 0.5763 0.0
C4638 C 0.02869 0.81725 0.68039 0.0
C4639 C 0.03869 0.81286 0.66519 0.0
C4640 C 0.07746 0.78885 0.6466 0.0
C4641 C 0.08689 0.79229 0.59723 0.0
C4642 C 0.08246 0.79744 0.61554 0.0
C4643 C 0.05712 0.80765 0.66595 0.0
C4644 C 0.06773 0.80479 0.64932 0.0
H4645 H 0.06614 0.79073 0.55821 0.0
H4646 H 0.0615 0.80302 0.58712 0.0
H4647 H 0.09116 0.77231 0.62776 0.0
H4648 H 0.06171 0.80966 0.71021 0.0
H4649 H 0.07931 0.80168 0.68327 0.0
C4650 C 0.91444 0.30266 0.43015 0.0
C4651 C 0.907 0.28669 0.42559 0.0
C4652 C 0.92217 0.31409 0.41707 0.0
C4653 C 0.92258 0.32291 0.36849 0.0
H4654 H 0.96481 0.35058 0.37657 0.0
C4655 C 0.95428 0.36733 0.3127 0.0
C4656 C 0.97341 0.36664 0.31104 0.0
C4657 C 0.94527 0.36054 0.32804 0.0
C4658 C 0.95306 0.34288 0.37405 0.0
H4659 H 0.90266 0.26951 0.4042 0.0
H4660 H 0.91689 0.28887 0.38156 0.0
H4661 H 0.95185 0.3317 0.4004 0.0
H4662 H -0.00191 0.35896 0.32449 0.0
H4663 H 0.98251 0.34664 0.35069 0.0
H4664 H 0.92444 0.33309 0.3419 0.0
C4665 C 0.91607 0.29313 0.39499 0.0
C4666 C 0.94548 0.3322 0.38781 0.0
C4667 C 0.90805 0.28194 0.40797 0.0
C4668 C 0.98332 0.35971 0.32529 0.0
C4669 C 0.97435 0.35275 0.34047 0.0
C4670 C 0.93031 0.33335 0.35469 0.0
C4671 C 0.92284 0.30955 0.39928 0.0
C4672 C 0.93033 0.32184 0.3851 0.0
C4673 C 0.9552 0.35272 0.34192 0.0
C4674 C 0.94583 0.34326 0.35719 0.0
H4675 H 0.91368 0.3066 0.4437 0.0
H4676 H 0.92714 0.32666 0.42086 0.0
H4677 H 0.91063 0.31549 0.36601 0.0
H4678 H 0.94627 0.37273 0.30202 0.0
H4679 H 0.9305 0.36109 0.32884 0.0
C4680 C 0.45738 0.82317 0.29406 0.0
C4681 C 0.474 0.83131 0.29637 0.0
C4682 C 0.44976 0.8121 0.30742 0.0
C4683 C 0.45823 0.78757 0.34914 0.0
H4684 H 0.41057 0.80618 0.36422 0.0
C4685 C 0.42874 0.7735 0.41915 0.0
C4686 C 0.40994 0.77092 0.42153 0.0
C4687 C 0.43613 0.77936 0.4028 0.0
C4688 C 0.42369 0.80053 0.36005 0.0
H4689 H 0.49546 0.83464 0.31441 0.0
H4690 H 0.48274 0.8146 0.3374 0.0
H4691 H 0.42465 0.81679 0.33633 0.0
H4692 H 0.38403 0.77257 0.40886 0.0
H4693 H 0.39696 0.78228 0.38015 0.0
H4694 H 0.45736 0.77132 0.37283 0.0
C4695 C 0.47581 0.81642 0.32514 0.0
C4696 C 0.43173 0.8066 0.34406 0.0
C4697 C 0.48327 0.82766 0.31188 0.0
C4698 C 0.39857 0.77464 0.40741 0.0
C4699 C 0.406 0.78021 0.39096 0.0
C4700 C 0.45008 0.78128 0.36503 0.0
C4701 C 0.45871 0.80905 0.32325 0.0
C4702 C 0.44922 0.80045 0.33867 0.0
C4703 C 0.4249 0.78244 0.38842 0.0
C4704 C 0.43291 0.78802 0.37088 0.0
H4705 H 0.44988 0.82603 0.28227 0.0
H4706 H 0.43654 0.80656 0.30573 0.0
H4707 H 0.47172 0.78261 0.34517 0.0
H4708 H 0.43777 0.77083 0.4299 0.0
H4709 H 0.45068 0.78142 0.40144 0.0
C4710 C 0.96364 0.65503 0.17286 0.0
C4711 C 0.97684 0.66486 0.18064 0.0
C4712 C 0.95852 0.65936 0.15572 0.0
C4713 C 0.95719 0.697 0.12354 0.0
H4714 H 0.94128 0.66121 0.09301 0.0
C4715 C 0.9205 0.71548 0.0596 0.0
C4716 C 0.90317 0.70807 0.06018 0.0
C4717 C 0.93368 0.7089 0.07109 0.0
C4718 C 0.94587 0.67133 0.10132 0.0
H4719 H 0.9956 0.68646 0.17632 0.0
H4720 H 0.98683 0.69386 0.14627 0.0
H4721 H 0.95699 0.65221 0.11973 0.0
H4722 H 0.88601 0.68789 0.07256 0.0
H4723 H 0.90919 0.67586 0.09205 0.0
H4724 H 0.94561 0.71607 0.10532 0.0
C4725 C 0.98016 0.68304 0.15355 0.0
C4726 C 0.95473 0.6662 0.11667 0.0
C4727 C 0.9852 0.67879 0.17076 0.0
C4728 C 0.89943 0.69352 0.07166 0.0
C4729 C 0.9127 0.68667 0.0828 0.0
C4730 C 0.94848 0.70212 0.1081 0.0
C4731 C 0.96659 0.67351 0.14591 0.0
C4732 C 0.95991 0.67896 0.12827 0.0
C4733 C 0.92974 0.69463 0.08302 0.0
C4734 C 0.94222 0.68931 0.09716 0.0
H4735 H 0.95696 0.64422 0.18014 0.0
H4736 H 0.9478 0.65193 0.15038 0.0
H4737 H 0.96082 0.70718 0.13224 0.0
H4738 H 0.92345 0.72697 0.05102 0.0
H4739 H 0.94671 0.7153 0.07109 0.0
C4740 C 0.11921 0.20572 0.90443 0.0
C4741 C 0.10448 0.21546 0.91196 0.0
C4742 C 0.11717 0.19679 0.88894 0.0
C4743 C 0.08591 0.19366 0.85194 0.0
H4744 H 0.1045 0.14524 0.85079 0.0
C4745 C 0.05965 0.12505 0.82787 0.0
C4746 C 0.05175 0.13099 0.81214 0.0
C4747 C 0.07185 0.13556 0.83593 0.0
C4748 C 0.09928 0.15877 0.85085 0.0
H4749 H 0.07612 0.22347 0.90924 0.0
H4750 H 0.07237 0.20748 0.88275 0.0
H4751 H 0.11388 0.16417 0.87362 0.0
H4752 H 0.05184 0.15176 0.79153 0.0
H4753 H 0.07351 0.17002 0.80545 0.0
H4754 H 0.07007 0.18788 0.83021 0.0
C4755 C 0.08566 0.2071 0.8884 0.0
C4756 C 0.10483 0.1697 0.86384 0.0
C4757 C 0.08773 0.21611 0.90375 0.0
C4758 C 0.0575 0.14696 0.80381 0.0
C4759 C 0.06986 0.15745 0.81183 0.0
C4760 C 0.08019 0.18267 0.83912 0.0
C4761 C 0.10035 0.19737 0.88077 0.0
C4762 C 0.09753 0.18702 0.86501 0.0
C4763 C 0.07658 0.15221 0.82835 0.0
C4764 C 0.08615 0.16485 0.83893 0.0
H4765 H 0.13235 0.20514 0.91038 0.0
H4766 H 0.12878 0.18952 0.88335 0.0
H4767 H 0.08047 0.20711 0.85216 0.0
H4768 H 0.05567 0.1127 0.83451 0.0
H4769 H 0.07655 0.1311 0.8487 0.0
C4770 C 0.49747 0.36257 0.63636 0.0
C4771 C 0.5069 0.36726 0.65101 0.0
C4772 C 0.50688 0.35953 0.62039 0.0
C4773 C 0.55357 0.36056 0.59783 0.0
H4774 H 0.53593 0.31967 0.5753 0.0
C4775 C 0.59797 0.30645 0.56608 0.0
C4776 C 0.59424 0.30152 0.54904 0.0
C4777 C 0.58676 0.31875 0.5747 0.0
C4778 C 0.54082 0.33134 0.58119 0.0
H4779 H 0.53322 0.37312 0.66061 0.0
H4780 H 0.55 0.36664 0.63314 0.0
H4781 H 0.51697 0.33362 0.59795 0.0
H4782 H 0.57585 0.30553 0.52763 0.0
H4783 H 0.55547 0.32658 0.5433 0.0
H4784 H 0.57822 0.3569 0.58202 0.0
C4785 C 0.53528 0.36599 0.63354 0.0
C4786 C 0.52993 0.33945 0.59419 0.0
C4787 C 0.52574 0.36958 0.64937 0.0
C4788 C 0.57905 0.30919 0.54073 0.0
C4789 C 0.56747 0.3212 0.54962 0.0
C4790 C 0.56461 0.35216 0.5851 0.0
C4791 C 0.52602 0.36045 0.61894 0.0
C4792 C 0.53637 0.35385 0.6031 0.0
C4793 C 0.57131 0.32605 0.56667 0.0
C4794 C 0.55847 0.33721 0.57705 0.0
H4795 H 0.48283 0.36096 0.63737 0.0
H4796 H 0.49915 0.35589 0.60937 0.0
H4797 H 0.55884 0.37188 0.60399 0.0
H4798 H 0.60961 0.3008 0.5728 0.0
H4799 H 0.58981 0.3221 0.58795 0.0
C4800 C 0.09872 0.41334 0.2169 0.0
C4801 C 0.08404 0.40651 0.2084 0.0
C4802 C 0.11538 0.41599 0.20783 0.0
C4803 C 0.14179 0.40578 0.16625 0.0
H4804 H 0.16766 0.44773 0.17709 0.0
C4805 C 0.19184 0.44414 0.11946 0.0
C4806 C 0.20797 0.44993 0.12634 0.0
C4807 C 0.1791 0.43509 0.13028 0.0
C4808 C 0.16077 0.43579 0.17417 0.0
H4809 H 0.07517 0.39697 0.18384 0.0
H4810 H 0.10404 0.40253 0.16756 0.0
H4811 H 0.14001 0.44008 0.1941 0.0
H4812 H 0.22389 0.45031 0.14961 0.0
H4813 H 0.20109 0.4349 0.16886 0.0
H4814 H 0.16213 0.4024 0.14541 0.0
C4815 C 0.10293 0.4053 0.18142 0.0
C4816 C 0.1449 0.43134 0.18391 0.0
C4817 C 0.08632 0.40226 0.19066 0.0
C4818 C 0.21157 0.44586 0.14404 0.0
C4819 C 0.19857 0.43713 0.15501 0.0
C4820 C 0.15752 0.41044 0.15628 0.0
C4821 C 0.11766 0.41229 0.18989 0.0
C4822 C 0.13509 0.41637 0.18 0.0
C4823 C 0.18209 0.43202 0.14824 0.0
C4824 C 0.16702 0.42557 0.16009 0.0
H4825 H 0.09743 0.41641 0.2307 0.0
H4826 H 0.1265 0.42092 0.21495 0.0
H4827 H 0.13482 0.39399 0.16305 0.0
H4828 H 0.18883 0.4471 0.10581 0.0
H4829 H 0.16642 0.43143 0.12482 0.0
C4830 C 0.31898 0.44118 0.89498 0.0
C4831 C 0.30377 0.45086 0.90162 0.0
C4832 C 0.32744 0.42808 0.90548 0.0
C4833 C 0.31346 0.39634 0.93993 0.0
H4834 H 0.36445 0.38145 0.93848 0.0
C4835 C 0.3367 0.33067 0.97358 0.0
C4836 C 0.35033 0.32053 0.96485 0.0
C4837 C 0.33266 0.348 0.96774 0.0
C4838 C 0.35014 0.38535 0.93888 0.0
H4839 H 0.28658 0.45568 0.92493 0.0
H4840 H 0.30138 0.43267 0.94334 0.0
H4841 H 0.35554 0.41063 0.92605 0.0
H4842 H 0.37047 0.32059 0.94313 0.0
H4843 H 0.36286 0.35073 0.93237 0.0
H4844 H 0.30781 0.37094 0.95191 0.0
C4845 C 0.30663 0.43514 0.92994 0.0
C4846 C 0.34508 0.40212 0.9319 0.0
C4847 C 0.29826 0.4484 0.91946 0.0
C4848 C 0.35986 0.32809 0.95009 0.0
C4849 C 0.35562 0.34542 0.94406 0.0
C4850 C 0.31848 0.37958 0.94674 0.0
C4851 C 0.32075 0.42432 0.92278 0.0
C4852 C 0.32665 0.4077 0.93221 0.0
C4853 C 0.34193 0.35557 0.95281 0.0
C4854 C 0.33686 0.37378 0.94616 0.0
H4855 H 0.32358 0.4429 0.88129 0.0
H4856 H 0.33824 0.41996 0.89956 0.0
H4857 H 0.2991 0.40007 0.93998 0.0
H4858 H 0.3293 0.32534 0.98518 0.0
H4859 H 0.32233 0.3555 0.97506 0.0
C4860 C 0.41426 0.63375 0.70488 0.0
C4861 C 0.41211 0.632 0.72332 0.0
C4862 C 0.40039 0.62859 0.69428 0.0
C4863 C 0.36245 0.59779 0.69671 0.0
H4864 H 0.35097 0.61945 0.65125 0.0
C4865 C 0.31033 0.56691 0.65436 0.0
C4866 C 0.31618 0.56463 0.63674 0.0
C4867 C 0.31958 0.57813 0.6648 0.0
C4868 C 0.35407 0.61327 0.66392 0.0
H4869 H 0.39331 0.62487 0.74514 0.0
H4870 H 0.36907 0.61634 0.72674 0.0
H4871 H 0.37187 0.634 0.66987 0.0
H4872 H 0.33566 0.57311 0.61597 0.0
H4873 H 0.35194 0.59246 0.63427 0.0
H4874 H 0.3451 0.57689 0.69072 0.0
C4875 C 0.38161 0.62113 0.72041 0.0
C4876 C 0.36604 0.62157 0.67455 0.0
C4877 C 0.39548 0.62608 0.73095 0.0
C4878 C 0.33087 0.5745 0.62953 0.0
C4879 C 0.34013 0.5857 0.63998 0.0
C4880 C 0.35051 0.58954 0.68614 0.0
C4881 C 0.38412 0.62175 0.70197 0.0
C4882 C 0.37049 0.61382 0.691 0.0
C4883 C 0.33488 0.58728 0.65785 0.0
C4884 C 0.34631 0.59707 0.66955 0.0
H4885 H 0.42696 0.63826 0.69866 0.0
H4886 H 0.4028 0.62915 0.68012 0.0
H4887 H 0.36588 0.59122 0.70911 0.0
H4888 H 0.29894 0.55964 0.66026 0.0
H4889 H 0.31502 0.57931 0.67845 0.0
C4890 C 0.15038 0.66363 0.46326 0.0
C4891 C 0.13685 0.67632 0.45883 0.0
C4892 C 0.15206 0.64782 0.45451 0.0
C4893 C 0.14244 0.62829 0.41288 0.0
H4894 H 0.15828 0.58536 0.43819 0.0
C4895 C 0.18895 0.57602 0.38157 0.0
C4896 C 0.18871 0.55831 0.38798 0.0
C4897 C 0.17703 0.58865 0.38881 0.0
C4898 C 0.15346 0.59705 0.43089 0.0
H4899 H 0.11432 0.68233 0.44185 0.0
H4900 H 0.11732 0.6546 0.42646 0.0
H4901 H 0.14777 0.61089 0.45452 0.0
H4902 H 0.17478 0.53968 0.40604 0.0
H4903 H 0.15373 0.56183 0.41865 0.0
H4904 H 0.14838 0.61452 0.38923 0.0
C4905 C 0.12667 0.65697 0.43667 0.0
C4906 C 0.14769 0.61179 0.44027 0.0
C4907 C 0.12497 0.67284 0.44547 0.0
C4908 C 0.17543 0.55326 0.40097 0.0
C4909 C 0.16342 0.56596 0.40822 0.0
C4910 C 0.14811 0.6135 0.40349 0.0
C4911 C 0.14024 0.64428 0.44113 0.0
C4912 C 0.14289 0.6278 0.43135 0.0
C4913 C 0.16449 0.5839 0.4026 0.0
C4914 C 0.15445 0.59798 0.41237 0.0
H4915 H 0.15971 0.66585 0.47354 0.0
H4916 H 0.1629 0.63849 0.45802 0.0
H4917 H 0.13877 0.64041 0.40561 0.0
H4918 H 0.1989 0.58034 0.37145 0.0
H4919 H 0.17844 0.60234 0.38427 0.0
C4920 C 0.08799 0.61718 0.28493 0.0
C4921 C 0.07707 0.60649 0.27529 0.0
C4922 C 0.10454 0.61051 0.29128 0.0
C4923 C 0.13052 0.56813 0.29934 0.0
H4924 H 0.17256 0.59825 0.2977 0.0
C4925 C 0.20069 0.53788 0.3104 0.0
C4926 C 0.20935 0.54498 0.32442 0.0
C4927 C 0.18643 0.54729 0.30247 0.0
C4928 C 0.1609 0.58974 0.2982 0.0
H4929 H 0.07491 0.58043 0.26478 0.0
H4930 H 0.10375 0.56909 0.27525 0.0
H4931 H 0.14292 0.61062 0.28907 0.0
H4932 H 0.21112 0.5678 0.34042 0.0
H4933 H 0.18608 0.58439 0.32648 0.0
H4934 H 0.14849 0.54721 0.30812 0.0
C4935 C 0.09943 0.58241 0.27847 0.0
C4936 C 0.1439 0.59682 0.29342 0.0
C4937 C 0.08284 0.58895 0.2724 0.0
C4938 C 0.2047 0.56222 0.32945 0.0
C4939 C 0.19038 0.57166 0.32151 0.0
C4940 C 0.14748 0.56104 0.30383 0.0
C4941 C 0.11058 0.5931 0.28791 0.0
C4942 C 0.12852 0.58604 0.29382 0.0
C4943 C 0.18056 0.56388 0.30855 0.0
C4944 C 0.16286 0.57171 0.30319 0.0
H4945 H 0.08387 0.63075 0.28735 0.0
H4946 H 0.11263 0.61903 0.29875 0.0
H4947 H 0.11895 0.55951 0.30029 0.0
H4948 H 0.20407 0.52454 0.30646 0.0
H4949 H 0.17924 0.54112 0.29232 0.0
C4950 C 0.14908 0.32735 0.0097 0.0
C4951 C 0.1589 0.31982 0.99556 0.0
C4952 C 0.15422 0.34357 0.01588 0.0
C4953 C 0.19414 0.37313 0.01434 0.0
H4954 H 0.15993 0.40404 0.0394 0.0
C4955 C 0.21738 0.43492 0.04785 0.0
C4956 C 0.21439 0.43258 0.06615 0.0
C4957 C 0.20819 0.42454 0.03647 0.0
C4958 C 0.16955 0.39562 0.03221 0.0
H4959 H 0.18094 0.32369 0.97596 0.0
H4960 H 0.18926 0.35231 0.98598 0.0
H4961 H 0.1486 0.37905 0.02414 0.0
H4962 H 0.19858 0.41879 0.08695 0.0
H4963 H 0.18207 0.40115 0.06706 0.0
H4964 H 0.21501 0.38984 0.02242 0.0
C4965 C 0.17821 0.34546 0.99301 0.0
C4966 C 0.16314 0.38117 0.02366 0.0
C4967 C 0.1734 0.32906 0.98718 0.0
C4968 C 0.20115 0.42075 0.07286 0.0
C4969 C 0.19164 0.41076 0.06151 0.0
C4970 C 0.20046 0.38778 0.02255 0.0
C4971 C 0.16898 0.3528 0.0077 0.0
C4972 C 0.17541 0.3694 0.01504 0.0
C4973 C 0.19554 0.41212 0.04328 0.0
C4974 C 0.18829 0.39885 0.03194 0.0
H4975 H 0.13783 0.32043 0.01633 0.0
H4976 H 0.14692 0.34856 0.02739 0.0
H4977 H 0.20412 0.36431 0.0082 0.0
H4978 H 0.2276 0.44393 0.0424 0.0
H4979 H 0.21143 0.42574 0.02244 0.0
C4980 C 0.29287 0.46625 0.82409 0.0
C4981 C 0.29552 0.47897 0.83659 0.0
C4982 C 0.30776 0.45932 0.81425 0.0
C4983 C 0.35508 0.46877 0.79985 0.0
H4984 H 0.36075 0.41795 0.79546 0.0
C4985 C 0.41555 0.41563 0.7789 0.0
C4986 C 0.42193 0.42414 0.76311 0.0
C4987 C 0.39945 0.42168 0.78751 0.0
C4988 C 0.35934 0.43215 0.79669 0.0
H4989 H 0.31584 0.49417 0.84881 0.0
H4990 H 0.34156 0.4823 0.83162 0.0
H4991 H 0.33339 0.43021 0.81064 0.0
H4992 H 0.41618 0.44528 0.7437 0.0
H4993 H 0.38832 0.45565 0.75861 0.0
H4994 H 0.38106 0.47078 0.78624 0.0
C4995 C 0.32803 0.47787 0.82917 0.0
C4996 C 0.34363 0.43916 0.80515 0.0
C4997 C 0.31325 0.4847 0.83899 0.0
C4998 C 0.41184 0.43859 0.756 0.0
C4999 C 0.39584 0.44456 0.76453 0.0
C5000 C 0.37068 0.46179 0.79136 0.0
C5001 C 0.32547 0.46504 0.81679 0.0
C5002 C 0.34145 0.45754 0.8069 0.0
C5003 C 0.38956 0.4363 0.78044 0.0
C5004 C 0.373 0.44343 0.78971 0.0
H5005 H 0.27936 0.46152 0.8221 0.0
H5006 H 0.30543 0.44952 0.80469 0.0
H5007 H 0.3537 0.48299 0.80092 0.0
H5008 H 0.423 0.4044 0.78463 0.0
H5009 H 0.39493 0.41514 0.79984 0.0
C5010 C 0.32041 0.67919 0.52865 0.0
C5011 C 0.33789 0.67995 0.52048 0.0
C5012 C 0.31321 0.66294 0.5343 0.0
C5013 C 0.32542 0.61595 0.54425 0.0
H5014 H 0.27409 0.60954 0.53684 0.0
C5015 C 0.29208 0.55054 0.56427 0.0
C5016 C 0.27698 0.55268 0.57608 0.0
C5017 C 0.2985 0.5649 0.5539 0.0
C5018 C 0.28844 0.61115 0.53891 0.0
H5019 H 0.36186 0.66442 0.51233 0.0
H5020 H 0.34917 0.63602 0.52193 0.0
H5021 H 0.28824 0.63734 0.52714 0.0
H5022 H 0.25571 0.57113 0.58503 0.0
H5023 H 0.26686 0.59614 0.56687 0.0
H5024 H 0.32557 0.58983 0.55616 0.0
C5025 C 0.3411 0.64797 0.52422 0.0
C5026 C 0.29652 0.62708 0.53352 0.0
C5027 C 0.34839 0.66425 0.51875 0.0
C5028 C 0.2674 0.56904 0.57611 0.0
C5029 C 0.27378 0.58338 0.56567 0.0
C5030 C 0.31737 0.59998 0.54953 0.0
C5031 C 0.32327 0.64711 0.5317 0.0
C5032 C 0.31501 0.62979 0.53647 0.0
C5033 C 0.28985 0.58162 0.55508 0.0
C5034 C 0.29873 0.59756 0.54721 0.0
H5035 H 0.31208 0.69111 0.53022 0.0
H5036 H 0.29962 0.66277 0.54047 0.0
H5037 H 0.33964 0.61764 0.54685 0.0
H5038 H 0.29956 0.538 0.56377 0.0
H5039 H 0.31072 0.56314 0.54558 0.0
C5040 C 0.20081 0.07832 0.40419 0.0
C5041 C 0.20947 0.06727 0.41675 0.0
C5042 C 0.19449 0.09531 0.40846 0.0
C5043 C 0.18448 0.12367 0.44699 0.0
H5044 H 0.18674 0.16182 0.41121 0.0
C5045 C 0.16725 0.19539 0.46417 0.0
C5046 C 0.15207 0.20194 0.45515 0.0
C5047 C 0.17712 0.18056 0.45819 0.0
C5048 C 0.18618 0.15127 0.42133 0.0
H5049 H 0.21831 0.06534 0.44364 0.0
H5050 H 0.20805 0.09493 0.45083 0.0
H5051 H 0.19715 0.13198 0.40375 0.0
H5052 H 0.1364 0.19953 0.43208 0.0
H5053 H 0.15394 0.17406 0.42121 0.0
H5054 H 0.17379 0.14311 0.46459 0.0
C5055 C 0.2055 0.09046 0.43786 0.0
C5056 C 0.19191 0.13413 0.41704 0.0
C5057 C 0.21148 0.07343 0.4337 0.0
C5058 C 0.14802 0.19466 0.4392 0.0
C5059 C 0.15808 0.18012 0.433 0.0
C5060 C 0.1791 0.14084 0.45133 0.0
C5061 C 0.19698 0.10171 0.4253 0.0
C5062 C 0.191 0.12005 0.42978 0.0
C5063 C 0.17215 0.17242 0.4429 0.0
C5064 C 0.17978 0.15476 0.43852 0.0
H5065 H 0.19905 0.0739 0.39103 0.0
H5066 H 0.18766 0.10341 0.39854 0.0
H5067 H 0.18314 0.1132 0.45709 0.0
H5068 H 0.17055 0.2008 0.47657 0.0
H5069 H 0.18801 0.17491 0.46598 0.0
C5070 C 0.6428 0.32847 0.56717 0.0
C5071 C 0.65309 0.31741 0.55599 0.0
C5072 C 0.65129 0.33808 0.57955 0.0
C5073 C 0.69684 0.34648 0.59801 0.0
H5074 H 0.67597 0.39402 0.6008 0.0
C5075 C 0.73682 0.40999 0.60398 0.0
C5076 C 0.73012 0.42252 0.61592 0.0
C5077 C 0.72728 0.39464 0.60171 0.0
C5078 C 0.68178 0.3807 0.60047 0.0
H5079 H 0.68015 0.30712 0.54922 0.0
H5080 H 0.69533 0.3249 0.56988 0.0
H5081 H 0.65922 0.37154 0.58722 0.0
H5082 H 0.70859 0.42862 0.6353 0.0
H5083 H 0.69135 0.40193 0.63071 0.0
H5084 H 0.7202 0.35652 0.60993 0.0
C5085 C 0.68059 0.32566 0.56978 0.0
C5086 C 0.67214 0.36769 0.59274 0.0
C5087 C 0.67195 0.31553 0.55781 0.0
C5088 C 0.71397 0.41919 0.62596 0.0
C5089 C 0.70418 0.40396 0.62339 0.0
C5090 C 0.70666 0.35968 0.6054 0.0
C5091 C 0.6704 0.33748 0.58048 0.0
C5092 C 0.67969 0.35047 0.59101 0.0
C5093 C 0.71069 0.39168 0.6111 0.0
C5094 C 0.69933 0.37697 0.60634 0.0
H5095 H 0.62818 0.33003 0.56607 0.0
H5096 H 0.64286 0.34648 0.58793 0.0
H5097 H 0.70296 0.33333 0.59733 0.0
H5098 H 0.74938 0.41214 0.59624 0.0
H5099 H 0.73245 0.38547 0.59202 0.0
C5100 C 0.44256 0.92304 0.30598 0.0
C5101 C 0.44621 0.90523 0.31085 0.0
C5102 C 0.42958 0.93289 0.31578 0.0
C5103 C 0.38801 0.92362 0.34264 0.0
H5104 H 0.38548 0.97442 0.34761 0.0
C5105 C 0.32265 0.95908 0.36954 0.0
C5106 C 0.31726 0.97436 0.35973 0.0
C5107 C 0.34 0.95137 0.36658 0.0
C5108 C 0.38601 0.96021 0.34628 0.0
H5109 H 0.44097 0.88432 0.33066 0.0
H5110 H 0.41894 0.90161 0.34805 0.0
H5111 H 0.41427 0.96017 0.3378 0.0
H5112 H 0.32595 0.9937 0.33933 0.0
H5113 H 0.35599 0.98015 0.33406 0.0
H5114 H 0.35972 0.92364 0.35056 0.0
C5115 C 0.42548 0.90786 0.33642 0.0
C5116 C 0.40248 0.95207 0.34068 0.0
C5117 C 0.43821 0.898 0.32656 0.0
C5118 C 0.32962 0.98187 0.34707 0.0
C5119 C 0.34695 0.97423 0.34417 0.0
C5120 C 0.37161 0.93173 0.34824 0.0
C5121 C 0.42025 0.92507 0.33062 0.0
C5122 C 0.40358 0.93371 0.33852 0.0
C5123 C 0.35232 0.95885 0.35383 0.0
C5124 C 0.37031 0.95015 0.34979 0.0
H5125 H 0.4485 0.92886 0.29385 0.0
H5126 H 0.42586 0.94613 0.31094 0.0
H5127 H 0.38822 0.9095 0.34077 0.0
H5128 H 0.31348 0.95305 0.37947 0.0
H5129 H 0.3438 0.93958 0.37431 0.0
C5130 C 0.7768 0.56588 0.11909 0.0
C5131 C 0.76728 0.55675 0.10689 0.0
C5132 C 0.78346 0.58273 0.11462 0.0
C5133 C 0.79236 0.61363 0.07549 0.0
H5134 H 0.79853 0.64749 0.1115 0.0
C5135 C 0.81689 0.68376 0.05837 0.0
C5136 C 0.83523 0.68403 0.06285 0.0
C5137 C 0.8054 0.67091 0.06616 0.0
C5138 C 0.7966 0.63819 0.10135 0.0
H5139 H 0.75665 0.55821 0.08073 0.0
H5140 H 0.76723 0.58774 0.07326 0.0
H5141 H 0.78489 0.61894 0.11961 0.0
H5142 H 0.85555 0.67246 0.07996 0.0
H5143 H 0.83519 0.65048 0.09412 0.0
H5144 H 0.80373 0.63314 0.05726 0.0
C5145 C 0.77051 0.58177 0.08595 0.0
C5146 C 0.78907 0.62173 0.10596 0.0
C5147 C 0.76438 0.56477 0.09024 0.0
C5148 C 0.84144 0.67246 0.07635 0.0
C5149 C 0.82982 0.65998 0.08447 0.0
C5150 C 0.79939 0.6302 0.07086 0.0
C5151 C 0.78024 0.59102 0.09802 0.0
C5152 C 0.78718 0.60904 0.09313 0.0
C5153 C 0.812 0.65861 0.07886 0.0
C5154 C 0.80185 0.64247 0.08377 0.0
H5155 H 0.77909 0.55998 0.13207 0.0
H5156 H 0.79119 0.58917 0.12418 0.0
H5157 H 0.79163 0.60424 0.06523 0.0
H5158 H 0.81189 0.69245 0.04785 0.0
H5159 H 0.79172 0.66993 0.06158 0.0
C5160 C 0.57035 0.58725 0.29938 0.0
C5161 C 0.55207 0.58383 0.30426 0.0
C5162 C 0.58435 0.58039 0.30958 0.0
C5163 C 0.59568 0.56362 0.35353 0.0
H5164 H 0.63661 0.54137 0.32827 0.0
C5165 C 0.65421 0.52175 0.38538 0.0
C5166 C 0.6714 0.52219 0.37646 0.0
C5167 C 0.6395 0.53168 0.37876 0.0
C5168 C 0.62546 0.54782 0.33551 0.0
H5169 H 0.53413 0.57031 0.32358 0.0
H5170 H 0.55886 0.55826 0.34157 0.0
H5171 H 0.61065 0.55267 0.31219 0.0
H5172 H 0.6873 0.53494 0.35506 0.0
H5173 H 0.66181 0.55267 0.34384 0.0
H5174 H 0.61065 0.55863 0.37693 0.0
C5175 C 0.56219 0.56644 0.32988 0.0
C5176 C 0.61053 0.55417 0.3263 0.0
C5177 C 0.5481 0.57322 0.31954 0.0
C5178 C 0.67411 0.53413 0.362 0.0
C5179 C 0.6595 0.54418 0.35553 0.0
C5180 C 0.61073 0.55725 0.36281 0.0
C5181 C 0.58044 0.56992 0.3249 0.0
C5182 C 0.5956 0.5623 0.33515 0.0
C5183 C 0.64186 0.5423 0.36324 0.0
C5184 C 0.62587 0.5495 0.35381 0.0
H5185 H 0.57392 0.59535 0.2877 0.0
H5186 H 0.5983 0.58339 0.30554 0.0
H5187 H 0.58431 0.56991 0.36062 0.0
H5188 H 0.65174 0.5127 0.39661 0.0
H5189 H 0.62608 0.53 0.38503 0.0
C5190 C 0.34088 0.82813 0.97973 0.0
C5191 C 0.34253 0.81079 0.97384 0.0
C5192 C 0.32959 0.84057 0.97133 0.0
C5193 C 0.31499 0.85627 0.93079 0.0
H5194 H 0.27329 0.87765 0.95569 0.0
C5195 C 0.27268 0.91478 0.90063 0.0
C5196 C 0.26641 0.92769 0.91231 0.0
C5197 C 0.28086 0.89906 0.90706 0.0
C5198 C 0.28499 0.87193 0.94861 0.0
H5199 H 0.33381 0.79284 0.95452 0.0
H5200 H 0.31447 0.81509 0.93933 0.0
H5201 H 0.2893 0.85216 0.96917 0.0
H5202 H 0.26447 0.93488 0.93962 0.0
H5203 H 0.2795 0.90792 0.95077 0.0
H5204 H 0.31159 0.87665 0.91075 0.0
C5205 C 0.32171 0.81873 0.95068 0.0
C5206 C 0.29394 0.85727 0.95624 0.0
C5207 C 0.3327 0.80611 0.95937 0.0
C5208 C 0.26902 0.925 0.93038 0.0
C5209 C 0.27746 0.90947 0.93676 0.0
C5210 C 0.30623 0.87116 0.92326 0.0
C5211 C 0.32012 0.83598 0.95669 0.0
C5212 C 0.30914 0.84958 0.9475 0.0
C5213 C 0.28312 0.89616 0.92523 0.0
C5214 C 0.29139 0.87939 0.93229 0.0
H5215 H 0.34834 0.83214 0.99079 0.0
H5216 H 0.32854 0.8539 0.97601 0.0
H5217 H 0.32687 0.85053 0.924 0.0
H5218 H 0.27066 0.91654 0.88663 0.0
H5219 H 0.28496 0.88902 0.89785 0.0
C5220 C 0.32477 0.03519 0.18554 0.0
C5221 C 0.32532 0.02846 0.1686 0.0
C5222 C 0.34047 0.04165 0.19241 0.0
C5223 C 0.38686 0.05721 0.17973 0.0
H5224 H 0.39467 0.04818 0.22949 0.0
C5225 C 0.45132 0.08051 0.2107 0.0
C5226 C 0.4476 0.09094 0.22533 0.0
C5227 C 0.43787 0.06985 0.20465 0.0
C5228 C 0.39267 0.05075 0.21557 0.0
H5229 H 0.34269 0.02343 0.14545 0.0
H5230 H 0.3702 0.03442 0.15753 0.0
H5231 H 0.3679 0.03645 0.21658 0.0
H5232 H 0.4271 0.09797 0.24539 0.0
H5233 H 0.40388 0.07902 0.23523 0.0
H5234 H 0.4116 0.07157 0.17878 0.0
C5235 C 0.35757 0.03502 0.16542 0.0
C5236 C 0.37728 0.04416 0.20818 0.0
C5237 C 0.3418 0.02872 0.15848 0.0
C5238 C 0.43058 0.08969 0.23442 0.0
C5239 C 0.4172 0.07892 0.2285 0.0
C5240 C 0.40232 0.06365 0.18709 0.0
C5241 C 0.35716 0.04136 0.18257 0.0
C5242 C 0.37402 0.04757 0.19023 0.0
C5243 C 0.42049 0.0694 0.21318 0.0
C5244 C 0.40524 0.06072 0.20513 0.0
H5245 H 0.31223 0.03523 0.19362 0.0
H5246 H 0.33953 0.04684 0.20548 0.0
H5247 H 0.3847 0.06029 0.16593 0.0
H5248 H 0.46433 0.08123 0.20343 0.0
H5249 H 0.44083 0.06247 0.19293 0.0
C5250 C 0.15447 0.96028 0.66943 0.0
C5251 C 0.16816 0.95154 0.65938 0.0
C5252 C 0.13804 0.95211 0.67402 0.0
C5253 C 0.10992 0.91325 0.66469 0.0
H5254 H 0.08716 0.92383 0.71018 0.0
C5255 C 0.05831 0.87012 0.70642 0.0
C5256 C 0.04251 0.87888 0.71305 0.0
C5257 C 0.07187 0.87958 0.69699 0.0
C5258 C 0.09325 0.92095 0.69734 0.0
H5259 H 0.17542 0.92741 0.64616 0.0
H5260 H 0.14709 0.91257 0.65507 0.0
H5261 H 0.11493 0.93858 0.70017 0.0
H5262 H 0.02812 0.90418 0.71465 0.0
H5263 H 0.05235 0.92096 0.6987 0.0
H5264 H 0.08859 0.89462 0.66269 0.0
C5265 C 0.14874 0.92602 0.65893 0.0
C5266 C 0.10916 0.92945 0.6915 0.0
C5267 C 0.16508 0.93443 0.65394 0.0
C5268 C 0.04016 0.89716 0.70958 0.0
C5269 C 0.05398 0.90672 0.70054 0.0
C5270 C 0.09418 0.90443 0.67076 0.0
C5271 C 0.135 0.93474 0.66912 0.0
C5272 C 0.11779 0.92575 0.67508 0.0
C5273 C 0.07006 0.89802 0.69442 0.0
C5274 C 0.08574 0.90823 0.68714 0.0
H5275 H 0.1563 0.97363 0.67354 0.0
H5276 H 0.12769 0.95956 0.68136 0.0
H5277 H 0.11589 0.91024 0.65186 0.0
H5278 H 0.06033 0.85598 0.70886 0.0
H5279 H 0.0842 0.87263 0.6925 0.0
loop_
_geom_bond_atom_site_label_1
_geom_bond_atom_site_label_2
_geom_bond_distance
_geom_bond_site_symmetry_2
_ccdc_geom_bond_type
Zn0 O6 1.969 . S
Zn0 O7 1.965 . S
Zn0 O11 2.024 . S
Zn0 O16 1.969 . S
Zn1 O8 1.969 . S
Zn1 O14 1.969 . S
Zn1 O15 1.965 . S
Zn1 O17 2.024 . S
C2 O3 1.229 . S
C2 O11 1.058 . S
O3 C2 1.229 . S
C4 O5 1.229 . S
C4 O17 1.058 . S
O5 C4 1.229 . S
O6 Zn0 1.969 . S
O6 C9 1.267 . S
O7 Zn0 1.965 . S
O7 C18 1.260 . S
O8 Zn1 1.969 . S
O8 C18 1.258 . S
C9 O6 1.267 . S
C9 O10 1.228 . S
O10 C9 1.228 . S
O11 Zn0 2.024 . S
O11 C2 1.058 . S
C12 O13 1.228 . S
C12 O14 1.267 . S
O13 C12 1.228 . S
O14 Zn1 1.969 . S
O14 C12 1.267 . S
O15 Zn1 1.965 . S
O15 C19 1.260 . S
O16 Zn0 1.969 . S
O16 C19 1.258 . S
O17 Zn1 2.024 . S
O17 C4 1.058 . S
C18 O7 1.260 . S
C18 O8 1.258 . S
C19 O15 1.260 . S
C19 O16 1.258 . S
Zn20 O26 1.969 . S
Zn20 O27 1.965 . S
Zn20 O31 2.024 . S
Zn20 O36 1.969 . S
Zn21 O28 1.969 . S
Zn21 O34 1.969 . S
Zn21 O35 1.965 . S
Zn21 O37 2.024 . S
C22 O23 1.229 . S
C22 O31 1.058 . S
O23 C22 1.229 . S
C24 O25 1.229 . S
C24 O37 1.058 . S
O25 C24 1.229 . S
O26 Zn20 1.969 . S
O26 C29 1.267 . S
O27 Zn20 1.965 . S
O27 C38 1.260 . S
O28 Zn21 1.969 . S
O28 C38 1.258 . S
C29 O26 1.267 . S
C29 O30 1.228 . S
O30 C29 1.228 . S
O31 Zn20 2.024 . S
O31 C22 1.058 . S
C32 O33 1.228 . S
C32 O34 1.267 . S
O33 C32 1.228 . S
O34 Zn21 1.969 . S
O34 C32 1.267 . S
O35 Zn21 1.965 . S
O35 C39 1.260 . S
O36 Zn20 1.969 . S
O36 C39 1.258 . S
O37 Zn21 2.024 . S
O37 C24 1.058 . S
C38 O27 1.260 . S
C38 O28 1.258 . S
C39 O35 1.260 . S
C39 O36 1.258 . S
Zn40 O46 1.969 . S
Zn40 O47 1.965 . S
Zn40 O51 2.024 . S
Zn40 O56 1.969 . S
Zn41 O48 1.969 . S
Zn41 O54 1.969 . S
Zn41 O55 1.965 . S
Zn41 O57 2.024 . S
C42 O43 1.229 . S
C42 O51 1.058 . S
O43 C42 1.229 . S
C44 O45 1.229 . S
C44 O57 1.058 . S
O45 C44 1.229 . S
O46 Zn40 1.969 . S
O46 C49 1.267 . S
O47 Zn40 1.965 . S
O47 C58 1.260 . S
O48 Zn41 1.969 . S
O48 C58 1.258 . S
C49 O46 1.267 . S
C49 O50 1.228 . S
O50 C49 1.228 . S
O51 Zn40 2.024 . S
O51 C42 1.058 . S
C52 O53 1.228 . S
C52 O54 1.267 . S
O53 C52 1.228 . S
O54 Zn41 1.969 . S
O54 C52 1.267 . S
O55 Zn41 1.965 . S
O55 C59 1.260 . S
O56 Zn40 1.969 . S
O56 C59 1.258 . S
O57 Zn41 2.024 . S
O57 C44 1.058 . S
C58 O47 1.260 . S
C58 O48 1.258 . S
C59 O55 1.260 . S
C59 O56 1.258 . S
Zn60 O66 1.969 . S
Zn60 O67 1.965 1_556 S
Zn60 O71 2.024 . S
Zn60 O76 1.969 . S
Zn61 O68 1.969 . S
Zn61 O74 1.969 . S
Zn61 O75 1.965 . S
Zn61 O77 2.024 . S
C62 O63 1.229 . S
C62 O71 1.058 . S
O63 C62 1.229 . S
C64 O65 1.229 . S
C64 O77 1.058 . S
O65 C64 1.229 . S
O66 Zn60 1.969 . S
O66 C69 1.267 . S
O67 Zn60 1.965 1_554 S
O67 C78 1.260 . S
O68 Zn61 1.969 . S
O68 C78 1.258 . S
C69 O66 1.267 . S
C69 O70 1.228 . S
O70 C69 1.228 . S
O71 Zn60 2.024 . S
O71 C62 1.058 . S
C72 O73 1.228 . S
C72 O74 1.267 . S
O73 C72 1.228 . S
O74 Zn61 1.969 . S
O74 C72 1.267 . S
O75 Zn61 1.965 . S
O75 C79 1.197 1_554 S
O76 Zn60 1.969 . S
O76 C79 1.310 . S
O77 Zn61 2.024 . S
O77 C64 1.058 . S
C78 O67 1.260 . S
C78 O68 1.258 . S
C79 O75 1.197 1_556 S
C79 O76 1.310 . S
Zn80 O86 1.969 1_455 S
Zn80 O87 1.965 . S
Zn80 O91 2.024 . S
Zn80 O96 1.969 . S
Zn81 O88 1.969 . S
Zn81 O94 1.969 . S
Zn81 O95 1.965 . S
Zn81 O97 2.024 . S
C82 O83 1.229 . S
C82 O91 1.058 1_655 S
O83 C82 1.229 . S
C84 O85 1.229 . S
C84 O97 1.058 . S
O85 C84 1.229 . S
O86 Zn80 1.969 1_655 S
O86 C89 1.267 . S
O87 Zn80 1.965 . S
O87 C98 1.260 . S
O88 Zn81 1.969 . S
O88 C98 1.258 . S
C89 O86 1.267 . S
C89 O90 1.228 . S
O90 C89 1.228 . S
O91 Zn80 2.024 . S
O91 C82 1.058 1_455 S
C92 O93 1.228 . S
C92 O94 1.267 . S
O93 C92 1.228 . S
O94 Zn81 1.969 . S
O94 C92 1.267 . S
O95 Zn81 1.965 . S
O95 C99 1.260 . S
O96 Zn80 1.969 . S
O96 C99 1.258 . S
O97 Zn81 2.024 . S
O97 C84 1.058 . S
C98 O87 1.260 . S
C98 O88 1.258 . S
C99 O95 1.260 . S
C99 O96 1.258 . S
Zn100 O106 1.969 . S
Zn100 O107 1.965 . S
Zn100 O111 2.024 . S
Zn100 O116 1.969 . S
Zn101 O108 1.969 . S
Zn101 O114 1.969 . S
Zn101 O115 1.965 . S
Zn101 O117 2.024 . S
C102 O103 1.229 . S
C102 O111 1.058 . S
O103 C102 1.229 . S
C104 O105 1.229 . S
C104 O117 1.058 . S
O105 C104 1.229 . S
O106 Zn100 1.969 . S
O106 C109 1.267 . S
O107 Zn100 1.965 . S
O107 C118 1.260 . S
O108 Zn101 1.969 . S
O108 C118 1.258 . S
C109 O106 1.267 . S
C109 O110 1.228 . S
O110 C109 1.228 . S
O111 Zn100 2.024 . S
O111 C102 1.058 . S
C112 O113 1.228 . S
C112 O114 1.267 . S
O113 C112 1.228 . S
O114 Zn101 1.969 . S
O114 C112 1.267 . S
O115 Zn101 1.965 . S
O115 C119 1.260 . S
O116 Zn100 1.969 . S
O116 C119 1.258 . S
O117 Zn101 2.024 . S
O117 C104 1.058 . S
C118 O107 1.260 . S
C118 O108 1.258 . S
C119 O115 1.260 . S
C119 O116 1.258 . S
Zn120 O126 1.969 . S
Zn120 O127 1.965 . S
Zn120 O131 2.024 . S
Zn120 O136 1.969 . S
Zn121 O128 1.969 . S
Zn121 O134 1.969 . S
Zn121 O135 1.965 . S
Zn121 O137 2.024 . S
C122 O123 1.229 . S
C122 O131 1.058 . S
O123 C122 1.229 . S
C124 O125 1.229 . S
C124 O137 1.058 . S
O125 C124 1.229 . S
O126 Zn120 1.969 . S
O126 C129 1.267 . S
O127 Zn120 1.965 . S
O127 C138 1.260 . S
O128 Zn121 1.969 . S
O128 C138 1.258 . S
C129 O126 1.267 . S
C129 O130 1.228 . S
O130 C129 1.228 . S
O131 Zn120 2.024 . S
O131 C122 1.058 . S
C132 O133 1.228 . S
C132 O134 1.267 . S
O133 C132 1.228 . S
O134 Zn121 1.969 . S
O134 C132 1.267 . S
O135 Zn121 1.965 . S
O135 C139 1.260 . S
O136 Zn120 1.969 . S
O136 C139 1.258 . S
O137 Zn121 2.024 . S
O137 C124 1.058 . S
C138 O127 1.260 . S
C138 O128 1.258 . S
C139 O135 1.260 . S
C139 O136 1.258 . S
Zn140 O146 1.969 . S
Zn140 O147 1.965 . S
Zn140 O151 2.024 . S
Zn140 O156 1.969 . S
Zn141 O148 1.969 . S
Zn141 O154 1.969 . S
Zn141 O155 1.965 . S
Zn141 O157 2.024 . S
C142 O143 1.229 . S
C142 O151 1.058 . S
O143 C142 1.229 . S
C144 O145 1.229 . S
C144 O157 1.058 . S
O145 C144 1.229 . S
O146 Zn140 1.969 . S
O146 C149 1.267 . S
O147 Zn140 1.965 . S
O147 C158 1.260 . S
O148 Zn141 1.969 . S
O148 C158 1.258 . S
C149 O146 1.267 . S
C149 O150 1.228 . S
O150 C149 1.228 . S
O151 Zn140 2.024 . S
O151 C142 1.058 . S
C152 O153 1.228 . S
C152 O154 1.267 . S
O153 C152 1.228 . S
O154 Zn141 1.969 . S
O154 C152 1.267 . S
O155 Zn141 1.965 . S
O155 C159 1.260 . S
O156 Zn140 1.969 . S
O156 C159 1.258 . S
O157 Zn141 2.024 . S
O157 C144 1.058 . S
C158 O147 1.260 . S
C158 O148 1.258 . S
C159 O155 1.260 . S
C159 O156 1.258 . S
Zn160 O166 1.947 1_545 S
Zn160 O167 1.998 . S
Zn160 O171 2.024 . S
Zn160 O176 1.966 1_545 S
Zn161 O168 1.969 . S
Zn161 O174 1.969 . S
Zn161 O175 1.965 . S
Zn161 O177 2.024 . S
C162 O163 1.229 . S
C162 O171 1.058 1_565 S
O163 C162 1.229 . S
C164 O165 1.229 . S
C164 O177 1.058 . S
O165 C164 1.229 . S
O166 Zn160 1.947 1_565 S
O166 C169 1.267 . S
O167 Zn160 1.998 . S
O167 C178 1.260 . S
O168 Zn161 1.969 . S
O168 C178 1.258 . S
C169 O166 1.267 . S
C169 O170 1.228 . S
O170 C169 1.228 . S
O171 Zn160 2.024 . S
O171 C162 1.058 1_545 S
C172 O173 1.228 . S
C172 O174 1.267 . S
O173 C172 1.228 . S
O174 Zn161 1.969 . S
O174 C172 1.267 . S
O175 Zn161 1.965 . S
O175 C179 1.260 . S
O176 Zn160 1.966 1_565 S
O176 C179 1.258 1_565 S
O177 Zn161 2.024 . S
O177 C164 1.058 . S
C178 O167 1.260 . S
C178 O168 1.258 . S
C179 O175 1.260 . S
C179 O176 1.258 1_545 S
Zn180 O186 1.969 . S
Zn180 O187 1.965 1_565 S
Zn180 O191 2.024 . S
Zn180 O196 1.969 . S
Zn181 O188 1.969 . S
Zn181 O194 1.969 . S
Zn181 O195 1.965 . S
Zn181 O197 2.024 . S
C182 O183 1.229 . S
C182 O191 1.058 . S
O183 C182 1.229 . S
C184 O185 1.229 . S
C184 O197 1.058 . S
O185 C184 1.229 . S
O186 Zn180 1.969 . S
O186 C189 1.267 . S
O187 Zn180 1.965 1_545 S
O187 C198 1.260 . S
O188 Zn181 1.969 . S
O188 C198 1.258 . S
C189 O186 1.267 . S
C189 O190 1.228 . S
O190 C189 1.228 . S
O191 Zn180 2.024 . S
O191 C182 1.058 . S
C192 O193 1.228 . S
C192 O194 1.267 . S
O193 C192 1.228 . S
O194 Zn181 1.969 . S
O194 C192 1.267 . S
O195 Zn181 1.965 . S
O195 C199 1.260 1_545 S
O196 Zn180 1.969 . S
O196 C199 1.258 . S
O197 Zn181 2.024 . S
O197 C184 1.058 . S
C198 O187 1.260 . S
C198 O188 1.258 . S
C199 O195 1.260 1_565 S
C199 O196 1.258 . S
Zn200 O206 1.969 . S
Zn200 O207 1.965 . S
Zn200 O211 2.024 . S
Zn200 O216 1.969 . S
Zn201 O208 1.969 . S
Zn201 O214 1.969 . S
Zn201 O215 1.965 . S
Zn201 O217 2.024 . S
C202 O203 1.229 . S
C202 O211 1.058 . S
O203 C202 1.229 . S
C204 O205 1.229 . S
C204 O217 1.058 . S
O205 C204 1.229 . S
O206 Zn200 1.969 . S
O206 C209 1.267 . S
O207 Zn200 1.965 . S
O207 C218 1.260 . S
O208 Zn201 1.969 . S
O208 C218 1.258 . S
C209 O206 1.267 . S
C209 O210 1.228 . S
O210 C209 1.228 . S
O211 Zn200 2.024 . S
O211 C202 1.058 . S
C212 O213 1.228 . S
C212 O214 1.267 . S
O213 C212 1.228 . S
O214 Zn201 1.969 . S
O214 C212 1.267 . S
O215 Zn201 1.965 . S
O215 C219 1.260 . S
O216 Zn200 1.969 . S
O216 C219 1.258 . S
O217 Zn201 2.024 . S
O217 C204 1.058 . S
C218 O207 1.260 . S
C218 O208 1.258 . S
C219 O215 1.260 . S
C219 O216 1.258 . S
Zn220 O226 1.969 . S
Zn220 O227 1.965 . S
Zn220 O231 2.024 . S
Zn220 O236 1.969 . S
Zn221 O228 1.969 . S
Zn221 O234 1.969 . S
Zn221 O235 1.965 . S
Zn221 O237 2.024 . S
C222 O223 1.229 . S
C222 O231 1.058 . S
O223 C222 1.229 . S
C224 O225 1.229 . S
C224 O237 1.058 . S
O225 C224 1.229 . S
O226 Zn220 1.969 . S
O226 C229 1.267 . S
O227 Zn220 1.965 . S
O227 C238 1.260 . S
O228 Zn221 1.969 . S
O228 C238 1.258 . S
C229 O226 1.267 . S
C229 O230 1.228 . S
O230 C229 1.228 . S
O231 Zn220 2.024 . S
O231 C222 1.058 . S
C232 O233 1.228 . S
C232 O234 1.267 1_545 S
O233 C232 1.228 . S
O234 Zn221 1.969 . S
O234 C232 1.267 1_565 S
O235 Zn221 1.965 . S
O235 C239 1.260 . S
O236 Zn220 1.969 . S
O236 C239 1.258 . S
O237 Zn221 2.024 . S
O237 C224 1.058 . S
C238 O227 1.260 . S
C238 O228 1.258 . S
C239 O235 1.260 . S
C239 O236 1.258 . S
Zn240 O246 1.969 . S
Zn240 O247 1.965 1_556 S
Zn240 O251 2.024 . S
Zn240 O256 1.969 . S
Zn241 O248 1.969 . S
Zn241 O254 1.969 . S
Zn241 O255 1.965 . S
Zn241 O257 2.024 . S
C242 O243 1.229 . S
C242 O251 1.058 . S
O243 C242 1.229 . S
C244 O245 1.229 . S
C244 O257 1.058 . S
O245 C244 1.229 . S
O246 Zn240 1.969 . S
O246 C249 1.267 . S
O247 Zn240 1.965 1_554 S
O247 C258 1.260 . S
O248 Zn241 1.969 . S
O248 C258 1.258 . S
C249 O246 1.267 . S
C249 O250 1.228 . S
O250 C249 1.228 . S
O251 Zn240 2.024 . S
O251 C242 1.058 . S
C252 O253 1.228 . S
C252 O254 1.267 . S
O253 C252 1.228 . S
O254 Zn241 1.969 . S
O254 C252 1.267 . S
O255 Zn241 1.965 . S
O255 C259 1.260 . S
O256 Zn240 1.969 . S
O256 C259 1.258 1_556 S
O257 Zn241 2.024 . S
O257 C244 1.058 . S
C258 O247 1.260 . S
C258 O248 1.258 . S
C259 O255 1.260 . S
C259 O256 1.258 1_554 S
Zn260 O266 1.969 . S
Zn260 O267 1.965 . S
Zn260 O271 2.024 . S
Zn260 O276 1.969 . S
Zn261 O268 1.969 . S
Zn261 O274 1.969 . S
Zn261 O275 1.965 . S
Zn261 O277 2.024 . S
C262 O263 1.229 . S
C262 O271 1.058 . S
O263 C262 1.229 . S
C264 O265 1.229 . S
C264 O277 1.058 . S
O265 C264 1.229 . S
O266 Zn260 1.969 . S
O266 C269 1.267 . S
O267 Zn260 1.965 . S
O267 C278 1.260 . S
O268 Zn261 1.969 . S
O268 C278 1.258 . S
C269 O266 1.267 . S
C269 O270 1.228 . S
O270 C269 1.228 . S
O271 Zn260 2.024 . S
O271 C262 1.058 . S
C272 O273 1.228 . S
C272 O274 1.267 . S
O273 C272 1.228 . S
O274 Zn261 1.969 . S
O274 C272 1.267 . S
O275 Zn261 1.965 . S
O275 C279 1.260 . S
O276 Zn260 1.969 . S
O276 C279 1.258 . S
O277 Zn261 2.024 . S
O277 C264 1.058 . S
C278 O267 1.260 . S
C278 O268 1.258 . S
C279 O275 1.260 . S
C279 O276 1.258 . S
Zn280 O286 1.969 . S
Zn280 O287 1.965 . S
Zn280 O291 2.024 . S
Zn280 O296 1.969 . S
Zn281 O288 1.969 . S
Zn281 O294 1.969 . S
Zn281 O295 1.965 . S
Zn281 O297 2.024 . S
C282 O283 1.229 . S
C282 O291 1.058 . S
O283 C282 1.229 . S
C284 O285 1.229 . S
C284 O297 1.058 . S
O285 C284 1.229 . S
O286 Zn280 1.969 . S
O286 C289 1.267 . S
O287 Zn280 1.965 . S
O287 C298 1.260 . S
O288 Zn281 1.969 . S
O288 C298 1.258 . S
C289 O286 1.267 . S
C289 O290 1.228 . S
O290 C289 1.228 . S
O291 Zn280 2.024 . S
O291 C282 1.058 . S
C292 O293 1.228 . S
C292 O294 1.267 . S
O293 C292 1.228 . S
O294 Zn281 1.969 . S
O294 C292 1.267 . S
O295 Zn281 1.965 . S
O295 C299 1.260 . S
O296 Zn280 1.969 . S
O296 C299 1.258 . S
O297 Zn281 2.024 . S
O297 C284 1.058 . S
C298 O287 1.260 . S
C298 O288 1.258 . S
C299 O295 1.260 . S
C299 O296 1.258 . S
Zn300 O306 1.969 . S
Zn300 O307 1.965 . S
Zn300 O311 2.024 . S
Zn300 O316 1.969 . S
Zn301 O308 1.969 . S
Zn301 O314 1.969 . S
Zn301 O315 1.965 . S
Zn301 O317 2.024 . S
C302 O303 1.229 . S
C302 O311 1.058 . S
O303 C302 1.229 . S
C304 O305 1.229 . S
C304 O317 1.058 . S
O305 C304 1.229 . S
O306 Zn300 1.969 . S
O306 C309 1.267 . S
O307 Zn300 1.965 . S
O307 C318 1.260 . S
O308 Zn301 1.969 . S
O308 C318 1.258 . S
C309 O306 1.267 . S
C309 O310 1.228 . S
O310 C309 1.228 . S
O311 Zn300 2.024 . S
O311 C302 1.058 . S
C312 O313 1.228 . S
C312 O314 1.267 . S
O313 C312 1.228 . S
O314 Zn301 1.969 . S
O314 C312 1.267 . S
O315 Zn301 1.965 . S
O315 C319 1.260 . S
O316 Zn300 1.969 . S
O316 C319 1.258 . S
O317 Zn301 2.024 . S
O317 C304 1.058 . S
C318 O307 1.260 . S
C318 O308 1.258 . S
C319 O315 1.260 . S
C319 O316 1.258 . S
Zn320 O326 1.969 . S
Zn320 O327 1.965 . S
Zn320 O331 2.024 . S
Zn320 O336 1.969 . S
Zn321 O328 1.969 . S
Zn321 O334 1.969 . S
Zn321 O335 1.965 . S
Zn321 O337 2.024 . S
C322 O323 1.229 . S
C322 O331 1.058 . S
O323 C322 1.229 . S
C324 O325 1.229 . S
C324 O337 1.058 . S
O325 C324 1.229 . S
O326 Zn320 1.969 . S
O326 C329 1.267 . S
O327 Zn320 1.965 . S
O327 C338 1.260 . S
O328 Zn321 1.969 . S
O328 C338 1.258 . S
C329 O326 1.267 . S
C329 O330 1.228 . S
O330 C329 1.228 . S
O331 Zn320 2.024 . S
O331 C322 1.058 . S
C332 O333 1.228 . S
C332 O334 1.267 . S
O333 C332 1.228 . S
O334 Zn321 1.969 . S
O334 C332 1.267 . S
O335 Zn321 1.965 . S
O335 C339 1.260 . S
O336 Zn320 1.969 . S
O336 C339 1.258 . S
O337 Zn321 2.024 . S
O337 C324 1.058 . S
C338 O327 1.260 . S
C338 O328 1.258 . S
C339 O335 1.260 . S
C339 O336 1.258 . S
Zn340 O346 1.969 . S
Zn340 O347 1.965 . S
Zn340 O351 2.024 . S
Zn340 O356 1.969 . S
Zn341 O348 1.969 . S
Zn341 O354 1.969 . S
Zn341 O355 1.965 . S
Zn341 O357 2.024 . S
C342 O343 1.229 . S
C342 O351 1.058 . S
O343 C342 1.229 . S
C344 O345 1.229 . S
C344 O357 1.058 . S
O345 C344 1.229 . S
O346 Zn340 1.969 . S
O346 C349 1.267 . S
O347 Zn340 1.965 . S
O347 C358 1.260 . S
O348 Zn341 1.969 . S
O348 C358 1.258 . S
C349 O346 1.267 . S
C349 O350 1.228 . S
O350 C349 1.228 . S
O351 Zn340 2.024 . S
O351 C342 1.058 . S
C352 O353 1.228 . S
C352 O354 1.267 . S
O353 C352 1.228 . S
O354 Zn341 1.969 . S
O354 C352 1.267 . S
O355 Zn341 1.965 . S
O355 C359 1.260 . S
O356 Zn340 1.969 . S
O356 C359 1.258 . S
O357 Zn341 2.024 . S
O357 C344 1.058 . S
C358 O347 1.260 . S
C358 O348 1.258 . S
C359 O355 1.260 . S
C359 O356 1.258 . S
Zn360 O366 1.969 . S
Zn360 O367 1.965 . S
Zn360 O371 2.024 . S
Zn360 O376 1.969 . S
Zn361 O368 1.969 . S
Zn361 O374 1.969 . S
Zn361 O375 1.965 1_554 S
Zn361 O377 2.024 . S
C362 O363 1.229 . S
C362 O371 1.058 . S
O363 C362 1.229 . S
C364 O365 1.229 . S
C364 O377 1.058 . S
O365 C364 1.229 . S
O366 Zn360 1.969 . S
O366 C369 1.267 . S
O367 Zn360 1.965 . S
O367 C378 1.197 1_556 S
O368 Zn361 1.969 . S
O368 C378 1.310 . S
C369 O366 1.267 . S
C369 O370 1.228 . S
O370 C369 1.228 . S
O371 Zn360 2.024 . S
O371 C362 1.058 . S
C372 O373 1.228 . S
C372 O374 1.267 . S
O373 C372 1.228 . S
O374 Zn361 1.969 . S
O374 C372 1.267 . S
O375 Zn361 1.965 1_556 S
O375 C379 1.260 . S
O376 Zn360 1.969 . S
O376 C379 1.258 . S
O377 Zn361 2.024 . S
O377 C364 1.058 . S
C378 O367 1.197 1_554 S
C378 O368 1.310 . S
C379 O375 1.260 . S
C379 O376 1.258 . S
Zn380 O386 1.969 . S
Zn380 O387 1.965 . S
Zn380 O391 2.024 . S
Zn380 O396 1.969 . S
Zn381 O388 1.969 . S
Zn381 O394 1.969 1_655 S
Zn381 O395 1.965 . S
Zn381 O397 2.024 . S
C382 O383 1.229 . S
C382 O391 1.058 . S
O383 C382 1.229 . S
C384 O385 1.229 . S
C384 O397 1.058 1_455 S
O385 C384 1.229 . S
O386 Zn380 1.969 . S
O386 C389 1.267 . S
O387 Zn380 1.965 . S
O387 C398 1.260 . S
O388 Zn381 1.969 . S
O388 C398 1.258 . S
C389 O386 1.267 . S
C389 O390 1.228 . S
O390 C389 1.228 . S
O391 Zn380 2.024 . S
O391 C382 1.058 . S
C392 O393 1.228 . S
C392 O394 1.267 . S
O393 C392 1.228 . S
O394 Zn381 1.969 1_455 S
O394 C392 1.267 . S
O395 Zn381 1.965 . S
O395 C399 1.260 . S
O396 Zn380 1.969 . S
O396 C399 1.258 . S
O397 Zn381 2.024 . S
O397 C384 1.058 1_655 S
C398 O387 1.260 . S
C398 O388 1.258 . S
C399 O395 1.260 . S
C399 O396 1.258 . S
Zn400 O406 1.969 . S
Zn400 O407 1.965 . S
Zn400 O411 2.024 . S
Zn400 O416 1.969 . S
Zn401 O408 1.969 . S
Zn401 O414 1.969 . S
Zn401 O415 1.965 . S
Zn401 O417 2.024 . S
C402 O403 1.229 . S
C402 O411 1.058 . S
O403 C402 1.229 . S
C404 O405 1.229 . S
C404 O417 1.058 . S
O405 C404 1.229 . S
O406 Zn400 1.969 . S
O406 C409 1.267 . S
O407 Zn400 1.965 . S
O407 C418 1.260 . S
O408 Zn401 1.969 . S
O408 C418 1.258 . S
C409 O406 1.267 . S
C409 O410 1.228 . S
O410 C409 1.228 . S
O411 Zn400 2.024 . S
O411 C402 1.058 . S
C412 O413 1.228 . S
C412 O414 1.267 . S
O413 C412 1.228 . S
O414 Zn401 1.969 . S
O414 C412 1.267 . S
O415 Zn401 1.965 . S
O415 C419 1.260 . S
O416 Zn400 1.969 . S
O416 C419 1.258 . S
O417 Zn401 2.024 . S
O417 C404 1.058 . S
C418 O407 1.260 . S
C418 O408 1.258 . S
C419 O415 1.260 . S
C419 O416 1.258 . S
Zn420 O426 1.969 . S
Zn420 O427 1.965 . S
Zn420 O431 2.024 . S
Zn420 O436 1.969 . S
Zn421 O428 1.969 . S
Zn421 O434 1.969 . S
Zn421 O435 1.965 . S
Zn421 O437 2.024 . S
C422 O423 1.229 . S
C422 O431 1.058 . S
O423 C422 1.229 . S
C424 O425 1.229 . S
C424 O437 1.058 . S
O425 C424 1.229 . S
O426 Zn420 1.969 . S
O426 C429 1.267 . S
O427 Zn420 1.965 . S
O427 C438 1.260 . S
O428 Zn421 1.969 . S
O428 C438 1.258 . S
C429 O426 1.267 . S
C429 O430 1.228 . S
O430 C429 1.228 . S
O431 Zn420 2.024 . S
O431 C422 1.058 . S
C432 O433 1.228 . S
C432 O434 1.267 . S
O433 C432 1.228 . S
O434 Zn421 1.969 . S
O434 C432 1.267 . S
O435 Zn421 1.965 . S
O435 C439 1.260 . S
O436 Zn420 1.969 . S
O436 C439 1.258 . S
O437 Zn421 2.024 . S
O437 C424 1.058 . S
C438 O427 1.260 . S
C438 O428 1.258 . S
C439 O435 1.260 . S
C439 O436 1.258 . S
Zn440 O446 1.969 . S
Zn440 O447 1.965 . S
Zn440 O451 2.024 . S
Zn440 O456 1.969 . S
Zn441 O448 1.969 . S
Zn441 O454 1.969 . S
Zn441 O455 1.965 . S
Zn441 O457 2.024 . S
C442 O443 1.229 . S
C442 O451 1.058 . S
O443 C442 1.229 . S
C444 O445 1.229 . S
C444 O457 1.058 . S
O445 C444 1.229 . S
O446 Zn440 1.969 . S
O446 C449 1.267 . S
O447 Zn440 1.965 . S
O447 C458 1.260 . S
O448 Zn441 1.969 . S
O448 C458 1.258 . S
C449 O446 1.267 . S
C449 O450 1.228 . S
O450 C449 1.228 . S
O451 Zn440 2.024 . S
O451 C442 1.058 . S
C452 O453 1.228 . S
C452 O454 1.267 . S
O453 C452 1.228 . S
O454 Zn441 1.969 . S
O454 C452 1.267 . S
O455 Zn441 1.965 . S
O455 C459 1.260 . S
O456 Zn440 1.969 . S
O456 C459 1.258 . S
O457 Zn441 2.024 . S
O457 C444 1.058 . S
C458 O447 1.260 . S
C458 O448 1.258 . S
C459 O455 1.260 . S
C459 O456 1.258 . S
Zn460 O466 1.969 . S
Zn460 O467 1.965 . S
Zn460 O471 2.024 . S
Zn460 O476 1.969 . S
Zn461 O468 1.966 1_565 S
Zn461 O474 1.947 1_565 S
Zn461 O475 1.998 . S
Zn461 O477 2.024 . S
C462 O463 1.229 . S
C462 O471 1.058 . S
O463 C462 1.229 . S
C464 O465 1.229 . S
C464 O477 1.058 1_545 S
O465 C464 1.229 . S
O466 Zn460 1.969 . S
O466 C469 1.267 . S
O467 Zn460 1.965 . S
O467 C478 1.260 . S
O468 Zn461 1.966 1_545 S
O468 C478 1.258 1_545 S
C469 O466 1.267 . S
C469 O470 1.228 . S
O470 C469 1.228 . S
O471 Zn460 2.024 . S
O471 C462 1.058 . S
C472 O473 1.228 . S
C472 O474 1.267 . S
O473 C472 1.228 . S
O474 Zn461 1.947 1_545 S
O474 C472 1.267 . S
O475 Zn461 1.998 . S
O475 C479 1.260 . S
O476 Zn460 1.969 . S
O476 C479 1.258 . S
O477 Zn461 2.024 . S
O477 C464 1.058 1_565 S
C478 O467 1.260 . S
C478 O468 1.258 1_565 S
C479 O475 1.260 . S
C479 O476 1.258 . S
Zn480 O486 1.969 . S
Zn480 O487 1.965 . S
Zn480 O491 2.024 . S
Zn480 O496 1.969 . S
Zn481 O488 1.969 . S
Zn481 O494 1.969 . S
Zn481 O495 1.965 1_545 S
Zn481 O497 2.024 . S
C482 O483 1.229 . S
C482 O491 1.058 . S
O483 C482 1.229 . S
C484 O485 1.229 . S
C484 O497 1.058 . S
O485 C484 1.229 . S
O486 Zn480 1.969 . S
O486 C489 1.267 . S
O487 Zn480 1.965 . S
O487 C498 1.260 1_565 S
O488 Zn481 1.969 . S
O488 C498 1.258 . S
C489 O486 1.267 . S
C489 O490 1.228 . S
O490 C489 1.228 . S
O491 Zn480 2.024 . S
O491 C482 1.058 . S
C492 O493 1.228 . S
C492 O494 1.267 . S
O493 C492 1.228 . S
O494 Zn481 1.969 . S
O494 C492 1.267 . S
O495 Zn481 1.965 1_565 S
O495 C499 1.260 . S
O496 Zn480 1.969 . S
O496 C499 1.258 . S
O497 Zn481 2.024 . S
O497 C484 1.058 . S
C498 O487 1.260 1_545 S
C498 O488 1.258 . S
C499 O495 1.260 . S
C499 O496 1.258 . S
Zn500 O506 1.969 . S
Zn500 O507 1.965 . S
Zn500 O511 2.024 . S
Zn500 O516 1.969 . S
Zn501 O508 1.969 . S
Zn501 O514 1.969 . S
Zn501 O515 1.965 . S
Zn501 O517 2.024 . S
C502 O503 1.229 . S
C502 O511 1.058 . S
O503 C502 1.229 . S
C504 O505 1.229 . S
C504 O517 1.058 . S
O505 C504 1.229 . S
O506 Zn500 1.969 . S
O506 C509 1.267 . S
O507 Zn500 1.965 . S
O507 C518 1.260 . S
O508 Zn501 1.969 . S
O508 C518 1.258 . S
C509 O506 1.267 . S
C509 O510 1.228 . S
O510 C509 1.228 . S
O511 Zn500 2.024 . S
O511 C502 1.058 . S
C512 O513 1.228 . S
C512 O514 1.267 . S
O513 C512 1.228 . S
O514 Zn501 1.969 . S
O514 C512 1.267 . S
O515 Zn501 1.965 . S
O515 C519 1.260 . S
O516 Zn500 1.969 . S
O516 C519 1.258 . S
O517 Zn501 2.024 . S
O517 C504 1.058 . S
C518 O507 1.260 . S
C518 O508 1.258 . S
C519 O515 1.260 . S
C519 O516 1.258 . S
Zn520 O526 1.969 . S
Zn520 O527 1.965 . S
Zn520 O531 2.024 . S
Zn520 O536 1.969 . S
Zn521 O528 1.969 . S
Zn521 O534 1.969 . S
Zn521 O535 1.965 . S
Zn521 O537 2.024 . S
C522 O523 1.229 . S
C522 O531 1.058 . S
O523 C522 1.229 . S
C524 O525 1.229 . S
C524 O537 1.058 . S
O525 C524 1.229 . S
O526 Zn520 1.969 . S
O526 C529 1.267 1_545 S
O527 Zn520 1.965 . S
O527 C538 1.260 . S
O528 Zn521 1.969 . S
O528 C538 1.258 . S
C529 O526 1.267 1_565 S
C529 O530 1.228 . S
O530 C529 1.228 . S
O531 Zn520 2.024 . S
O531 C522 1.058 . S
C532 O533 1.228 . S
C532 O534 1.267 . S
O533 C532 1.228 . S
O534 Zn521 1.969 . S
O534 C532 1.267 . S
O535 Zn521 1.965 . S
O535 C539 1.260 . S
O536 Zn520 1.969 . S
O536 C539 1.258 . S
O537 Zn521 2.024 . S
O537 C524 1.058 . S
C538 O527 1.260 . S
C538 O528 1.258 . S
C539 O535 1.260 . S
C539 O536 1.258 . S
Zn540 O546 1.969 . S
Zn540 O547 1.965 . S
Zn540 O551 2.024 . S
Zn540 O556 1.969 . S
Zn541 O548 1.969 . S
Zn541 O554 1.969 . S
Zn541 O555 1.965 1_554 S
Zn541 O557 2.024 . S
C542 O543 1.229 . S
C542 O551 1.058 . S
O543 C542 1.229 . S
C544 O545 1.229 . S
C544 O557 1.058 . S
O545 C544 1.229 . S
O546 Zn540 1.969 . S
O546 C549 1.267 . S
O547 Zn540 1.965 . S
O547 C558 1.260 . S
O548 Zn541 1.969 . S
O548 C558 1.258 1_554 S
C549 O546 1.267 . S
C549 O550 1.228 . S
O550 C549 1.228 . S
O551 Zn540 2.024 . S
O551 C542 1.058 . S
C552 O553 1.228 . S
C552 O554 1.267 . S
O553 C552 1.228 . S
O554 Zn541 1.969 . S
O554 C552 1.267 . S
O555 Zn541 1.965 1_556 S
O555 C559 1.260 . S
O556 Zn540 1.969 . S
O556 C559 1.258 . S
O557 Zn541 2.024 . S
O557 C544 1.058 . S
C558 O547 1.260 . S
C558 O548 1.258 1_556 S
C559 O555 1.260 . S
C559 O556 1.258 . S
Zn560 O566 1.969 . S
Zn560 O567 1.965 . S
Zn560 O571 2.024 . S
Zn560 O576 1.969 . S
Zn561 O568 1.969 . S
Zn561 O574 1.969 . S
Zn561 O575 1.965 . S
Zn561 O577 2.024 . S
C562 O563 1.229 . S
C562 O571 1.058 . S
O563 C562 1.229 . S
C564 O565 1.229 . S
C564 O577 1.058 . S
O565 C564 1.229 . S
O566 Zn560 1.969 . S
O566 C569 1.267 . S
O567 Zn560 1.965 . S
O567 C578 1.260 . S
O568 Zn561 1.969 . S
O568 C578 1.258 . S
C569 O566 1.267 . S
C569 O570 1.228 . S
O570 C569 1.228 . S
O571 Zn560 2.024 . S
O571 C562 1.058 . S
C572 O573 1.228 . S
C572 O574 1.267 . S
O573 C572 1.228 . S
O574 Zn561 1.969 . S
O574 C572 1.267 . S
O575 Zn561 1.965 . S
O575 C579 1.260 . S
O576 Zn560 1.969 . S
O576 C579 1.258 . S
O577 Zn561 2.024 . S
O577 C564 1.058 . S
C578 O567 1.260 . S
C578 O568 1.258 . S
C579 O575 1.260 . S
C579 O576 1.258 . S
Zn580 O586 1.969 . S
Zn580 O587 1.965 . S
Zn580 O591 2.024 . S
Zn580 O596 1.969 . S
Zn581 O588 1.969 . S
Zn581 O594 1.969 . S
Zn581 O595 1.965 . S
Zn581 O597 2.024 . S
C582 O583 1.229 . S
C582 O591 1.058 . S
O583 C582 1.229 . S
C584 O585 1.229 . S
C584 O597 1.058 . S
O585 C584 1.229 . S
O586 Zn580 1.969 . S
O586 C589 1.267 . S
O587 Zn580 1.965 . S
O587 C598 1.260 . S
O588 Zn581 1.969 . S
O588 C598 1.258 . S
C589 O586 1.267 . S
C589 O590 1.228 . S
O590 C589 1.228 . S
O591 Zn580 2.024 . S
O591 C582 1.058 . S
C592 O593 1.228 . S
C592 O594 1.267 . S
O593 C592 1.228 . S
O594 Zn581 1.969 . S
O594 C592 1.267 . S
O595 Zn581 1.965 . S
O595 C599 1.260 . S
O596 Zn580 1.969 . S
O596 C599 1.258 . S
O597 Zn581 2.024 . S
O597 C584 1.058 . S
C598 O587 1.260 . S
C598 O588 1.258 . S
C599 O595 1.260 . S
C599 O596 1.258 . S
Zn600 O606 1.969 . S
Zn600 O607 1.965 . S
Zn600 O611 2.024 . S
Zn600 O616 1.969 . S
Zn601 O608 1.969 . S
Zn601 O614 1.969 . S
Zn601 O615 1.965 . S
Zn601 O617 2.024 . S
C602 O603 1.229 . S
C602 O611 1.058 . S
O603 C602 1.229 . S
C604 O605 1.229 . S
C604 O617 1.058 . S
O605 C604 1.229 . S
O606 Zn600 1.969 . S
O606 C609 1.267 . S
O607 Zn600 1.965 . S
O607 C618 1.260 . S
O608 Zn601 1.969 . S
O608 C618 1.258 . S
C609 O606 1.267 . S
C609 O610 1.228 . S
O610 C609 1.228 . S
O611 Zn600 2.024 . S
O611 C602 1.058 . S
C612 O613 1.228 . S
C612 O614 1.267 . S
O613 C612 1.228 . S
O614 Zn601 1.969 . S
O614 C612 1.267 . S
O615 Zn601 1.965 . S
O615 C619 1.260 . S
O616 Zn600 1.969 . S
O616 C619 1.258 . S
O617 Zn601 2.024 . S
O617 C604 1.058 . S
C618 O607 1.260 . S
C618 O608 1.258 . S
C619 O615 1.260 . S
C619 O616 1.258 . S
Zn620 O626 1.969 . S
Zn620 O627 1.965 . S
Zn620 O631 2.024 . S
Zn620 O636 1.969 . S
Zn621 O628 1.969 . S
Zn621 O634 1.984 . S
Zn621 O635 1.965 . S
Zn621 O637 2.024 . S
C622 O623 1.229 . S
C622 O631 1.058 . S
O623 C622 1.229 . S
C624 O625 1.229 . S
C624 O637 1.058 . S
O625 C624 1.229 . S
O626 Zn620 1.969 . S
O626 C629 1.267 . S
O627 Zn620 1.965 . S
O627 C638 1.260 . S
O628 Zn621 1.969 . S
O628 C638 1.258 . S
C629 O626 1.267 . S
C629 O630 1.228 . S
O630 C629 1.228 . S
O631 Zn620 2.024 . S
O631 C622 1.058 . S
C632 O633 1.228 . S
C632 O634 1.255 1_455 S
O633 C632 1.228 . S
O634 Zn621 1.984 . S
O634 C632 1.255 1_655 S
O635 Zn621 1.965 . S
O635 C639 1.260 . S
O636 Zn620 1.969 . S
O636 C639 1.258 . S
O637 Zn621 2.024 . S
O637 C624 1.058 . S
C638 O627 1.260 . S
C638 O628 1.258 . S
C639 O635 1.260 . S
C639 O636 1.258 . S
Zn640 O646 1.969 . S
Zn640 O647 1.965 . S
Zn640 O651 2.024 . S
Zn640 O656 1.969 . S
Zn641 O648 1.969 . S
Zn641 O654 1.969 . S
Zn641 O655 1.965 . S
Zn641 O657 2.024 . S
C642 O643 1.229 . S
C642 O651 1.058 . S
O643 C642 1.229 . S
C644 O645 1.229 . S
C644 O657 1.058 . S
O645 C644 1.229 . S
O646 Zn640 1.969 . S
O646 C649 1.267 . S
O647 Zn640 1.965 . S
O647 C658 1.260 . S
O648 Zn641 1.969 . S
O648 C658 1.258 . S
C649 O646 1.267 . S
C649 O650 1.228 . S
O650 C649 1.228 . S
O651 Zn640 2.024 . S
O651 C642 1.058 . S
C652 O653 1.228 . S
C652 O654 1.267 . S
O653 C652 1.228 . S
O654 Zn641 1.969 . S
O654 C652 1.267 . S
O655 Zn641 1.965 . S
O655 C659 1.260 . S
O656 Zn640 1.969 . S
O656 C659 1.258 . S
O657 Zn641 2.024 . S
O657 C644 1.058 . S
C658 O647 1.260 . S
C658 O648 1.258 . S
C659 O655 1.260 . S
C659 O656 1.258 . S
Zn660 O666 1.969 . S
Zn660 O667 1.965 . S
Zn660 O671 2.024 . S
Zn660 O676 1.969 . S
Zn661 O668 1.969 . S
Zn661 O674 1.969 . S
Zn661 O675 1.965 . S
Zn661 O677 2.024 . S
C662 O663 1.229 . S
C662 O671 1.058 . S
O663 C662 1.229 . S
C664 O665 1.229 . S
C664 O677 1.058 . S
O665 C664 1.229 . S
O666 Zn660 1.969 . S
O666 C669 1.267 . S
O667 Zn660 1.965 . S
O667 C678 1.260 . S
O668 Zn661 1.969 . S
O668 C678 1.258 . S
C669 O666 1.267 . S
C669 O670 1.228 . S
O670 C669 1.228 . S
O671 Zn660 2.024 . S
O671 C662 1.058 . S
C672 O673 1.228 . S
C672 O674 1.267 . S
O673 C672 1.228 . S
O674 Zn661 1.969 . S
O674 C672 1.267 . S
O675 Zn661 1.965 . S
O675 C679 1.260 . S
O676 Zn660 1.969 . S
O676 C679 1.258 . S
O677 Zn661 2.024 . S
O677 C664 1.058 . S
C678 O667 1.260 . S
C678 O668 1.258 . S
C679 O675 1.260 . S
C679 O676 1.258 . S
Zn680 O686 1.969 . S
Zn680 O687 1.965 . S
Zn680 O691 2.024 . S
Zn680 O696 1.969 . S
Zn681 O688 1.969 . S
Zn681 O694 1.969 . S
Zn681 O695 1.965 . S
Zn681 O697 2.024 . S
C682 O683 1.229 . S
C682 O691 1.058 . S
O683 C682 1.229 . S
C684 O685 1.229 . S
C684 O697 1.058 . S
O685 C684 1.229 . S
O686 Zn680 1.969 . S
O686 C689 1.267 . S
O687 Zn680 1.965 . S
O687 C698 1.260 . S
O688 Zn681 1.969 . S
O688 C698 1.258 . S
C689 O686 1.267 . S
C689 O690 1.228 . S
O690 C689 1.228 . S
O691 Zn680 2.024 . S
O691 C682 1.058 . S
C692 O693 1.228 . S
C692 O694 1.267 . S
O693 C692 1.228 . S
O694 Zn681 1.969 . S
O694 C692 1.267 . S
O695 Zn681 1.965 . S
O695 C699 1.260 . S
O696 Zn680 1.969 . S
O696 C699 1.258 . S
O697 Zn681 2.024 . S
O697 C684 1.058 . S
C698 O687 1.260 . S
C698 O688 1.258 . S
C699 O695 1.260 . S
C699 O696 1.258 . S
Zn700 O706 1.969 . S
Zn700 O707 1.965 . S
Zn700 O711 2.024 . S
Zn700 O716 1.969 . S
Zn701 O708 1.969 . S
Zn701 O714 1.969 . S
Zn701 O715 1.965 . S
Zn701 O717 2.024 . S
C702 O703 1.229 . S
C702 O711 1.058 . S
O703 C702 1.229 . S
C704 O705 1.229 . S
C704 O717 1.058 . S
O705 C704 1.229 . S
O706 Zn700 1.969 . S
O706 C709 1.267 . S
O707 Zn700 1.965 . S
O707 C718 1.260 . S
O708 Zn701 1.969 . S
O708 C718 1.258 . S
C709 O706 1.267 . S
C709 O710 1.228 . S
O710 C709 1.228 . S
O711 Zn700 2.024 . S
O711 C702 1.058 . S
C712 O713 1.228 . S
C712 O714 1.267 . S
O713 C712 1.228 . S
O714 Zn701 1.969 . S
O714 C712 1.267 . S
O715 Zn701 1.965 . S
O715 C719 1.260 . S
O716 Zn700 1.969 . S
O716 C719 1.258 . S
O717 Zn701 2.024 . S
O717 C704 1.058 . S
C718 O707 1.260 . S
C718 O708 1.258 . S
C719 O715 1.260 . S
C719 O716 1.258 . S
Zn720 O726 1.969 . S
Zn720 O727 1.965 . S
Zn720 O731 2.024 . S
Zn720 O736 1.969 . S
Zn721 O728 1.969 . S
Zn721 O734 1.969 . S
Zn721 O735 1.965 . S
Zn721 O737 2.024 . S
C722 O723 1.229 . S
C722 O731 1.058 . S
O723 C722 1.229 . S
C724 O725 1.229 . S
C724 O737 1.058 . S
O725 C724 1.229 . S
O726 Zn720 1.969 . S
O726 C729 1.267 . S
O727 Zn720 1.965 . S
O727 C738 1.260 . S
O728 Zn721 1.969 . S
O728 C738 1.258 . S
C729 O726 1.267 . S
C729 O730 1.228 . S
O730 C729 1.228 . S
O731 Zn720 2.024 . S
O731 C722 1.058 . S
C732 O733 1.228 . S
C732 O734 1.267 . S
O733 C732 1.228 . S
O734 Zn721 1.969 . S
O734 C732 1.267 . S
O735 Zn721 1.965 . S
O735 C739 1.260 . S
O736 Zn720 1.969 . S
O736 C739 1.258 . S
O737 Zn721 2.024 . S
O737 C724 1.058 . S
C738 O727 1.260 . S
C738 O728 1.258 . S
C739 O735 1.260 . S
C739 O736 1.258 . S
Zn740 O746 1.969 . S
Zn740 O747 1.965 . S
Zn740 O751 2.024 . S
Zn740 O756 1.969 . S
Zn741 O748 1.969 . S
Zn741 O754 1.969 . S
Zn741 O755 1.965 . S
Zn741 O757 2.024 . S
C742 O743 1.229 . S
C742 O751 1.058 . S
O743 C742 1.229 . S
C744 O745 1.229 . S
C744 O757 1.058 . S
O745 C744 1.229 . S
O746 Zn740 1.969 . S
O746 C749 1.267 . S
O747 Zn740 1.965 . S
O747 C758 1.260 . S
O748 Zn741 1.969 . S
O748 C758 1.258 . S
C749 O746 1.267 . S
C749 O750 1.228 . S
O750 C749 1.228 . S
O751 Zn740 2.024 . S
O751 C742 1.058 . S
C752 O753 1.228 . S
C752 O754 1.267 . S
O753 C752 1.228 . S
O754 Zn741 1.969 . S
O754 C752 1.267 . S
O755 Zn741 1.965 . S
O755 C759 1.260 . S
O756 Zn740 1.969 . S
O756 C759 1.258 . S
O757 Zn741 2.024 . S
O757 C744 1.058 . S
C758 O747 1.260 . S
C758 O748 1.258 . S
C759 O755 1.260 . S
C759 O756 1.258 . S
Zn760 O766 1.969 . S
Zn760 O767 1.965 . S
Zn760 O771 2.024 . S
Zn760 O776 1.969 . S
Zn761 O768 1.969 . S
Zn761 O774 1.969 . S
Zn761 O775 1.965 . S
Zn761 O777 2.024 . S
C762 O763 1.229 . S
C762 O771 1.058 . S
O763 C762 1.229 . S
C764 O765 1.229 . S
C764 O777 1.058 . S
O765 C764 1.229 . S
O766 Zn760 1.969 . S
O766 C769 1.267 . S
O767 Zn760 1.965 . S
O767 C778 1.260 . S
O768 Zn761 1.969 . S
O768 C778 1.258 . S
C769 O766 1.267 . S
C769 O770 1.228 . S
O770 C769 1.228 . S
O771 Zn760 2.024 . S
O771 C762 1.058 . S
C772 O773 1.228 . S
C772 O774 1.267 . S
O773 C772 1.228 . S
O774 Zn761 1.969 . S
O774 C772 1.267 . S
O775 Zn761 1.965 . S
O775 C779 1.260 . S
O776 Zn760 1.969 . S
O776 C779 1.258 . S
O777 Zn761 2.024 . S
O777 C764 1.058 . S
C778 O767 1.260 . S
C778 O768 1.258 . S
C779 O775 1.260 . S
C779 O776 1.258 . S
Zn780 O786 1.969 . S
Zn780 O787 1.965 . S
Zn780 O791 2.024 . S
Zn780 O796 1.969 . S
Zn781 O788 1.969 . S
Zn781 O794 1.969 . S
Zn781 O795 1.965 . S
Zn781 O797 2.024 . S
C782 O783 1.229 . S
C782 O791 1.058 . S
O783 C782 1.229 . S
C784 O785 1.229 . S
C784 O797 1.058 . S
O785 C784 1.229 . S
O786 Zn780 1.969 . S
O786 C789 1.267 . S
O787 Zn780 1.965 . S
O787 C798 1.260 . S
O788 Zn781 1.969 . S
O788 C798 1.258 . S
C789 O786 1.267 . S
C789 O790 1.228 . S
O790 C789 1.228 . S
O791 Zn780 2.024 . S
O791 C782 1.058 . S
C792 O793 1.228 . S
C792 O794 1.267 . S
O793 C792 1.228 . S
O794 Zn781 1.969 . S
O794 C792 1.267 . S
O795 Zn781 1.965 . S
O795 C799 1.260 . S
O796 Zn780 1.969 . S
O796 C799 1.258 . S
O797 Zn781 2.024 . S
O797 C784 1.058 . S
C798 O787 1.260 . S
C798 O788 1.258 . S
C799 O795 1.260 . S
C799 O796 1.258 . S
Zn800 O806 1.984 . S
Zn800 O807 1.965 . S
Zn800 O811 2.024 . S
Zn800 O816 1.969 . S
Zn801 O808 1.969 . S
Zn801 O814 1.969 . S
Zn801 O815 1.965 . S
Zn801 O817 2.024 . S
C802 O803 1.229 . S
C802 O811 1.058 . S
O803 C802 1.229 . S
C804 O805 1.229 . S
C804 O817 1.058 . S
O805 C804 1.229 . S
O806 Zn800 1.984 . S
O806 C809 1.255 1_455 S
O807 Zn800 1.965 . S
O807 C818 1.260 . S
O808 Zn801 1.969 . S
O808 C818 1.258 . S
C809 O806 1.255 1_655 S
C809 O810 1.228 . S
O810 C809 1.228 . S
O811 Zn800 2.024 . S
O811 C802 1.058 . S
C812 O813 1.228 . S
C812 O814 1.267 . S
O813 C812 1.228 . S
O814 Zn801 1.969 . S
O814 C812 1.267 . S
O815 Zn801 1.965 . S
O815 C819 1.260 . S
O816 Zn800 1.969 . S
O816 C819 1.258 . S
O817 Zn801 2.024 . S
O817 C804 1.058 . S
C818 O807 1.260 . S
C818 O808 1.258 . S
C819 O815 1.260 . S
C819 O816 1.258 . S
Zn820 O826 1.969 . S
Zn820 O827 1.965 . S
Zn820 O831 2.024 . S
Zn820 O836 1.969 . S
Zn821 O828 1.969 . S
Zn821 O834 1.969 . S
Zn821 O835 1.965 . S
Zn821 O837 2.024 . S
C822 O823 1.229 . S
C822 O831 1.058 . S
O823 C822 1.229 . S
C824 O825 1.229 . S
C824 O837 1.058 . S
O825 C824 1.229 . S
O826 Zn820 1.969 . S
O826 C829 1.267 . S
O827 Zn820 1.965 . S
O827 C838 1.260 . S
O828 Zn821 1.969 . S
O828 C838 1.258 . S
C829 O826 1.267 . S
C829 O830 1.228 . S
O830 C829 1.228 . S
O831 Zn820 2.024 . S
O831 C822 1.058 . S
C832 O833 1.228 . S
C832 O834 1.267 . S
O833 C832 1.228 . S
O834 Zn821 1.969 . S
O834 C832 1.267 . S
O835 Zn821 1.965 . S
O835 C839 1.260 . S
O836 Zn820 1.969 . S
O836 C839 1.258 . S
O837 Zn821 2.024 . S
O837 C824 1.058 . S
C838 O827 1.260 . S
C838 O828 1.258 . S
C839 O835 1.260 . S
C839 O836 1.258 . S
Zn840 O846 1.969 . S
Zn840 O847 1.965 . S
Zn840 O851 2.024 . S
Zn840 O856 1.969 . S
Zn841 O848 1.969 . S
Zn841 O854 1.969 . S
Zn841 O855 1.965 . S
Zn841 O857 2.024 . S
C842 O843 1.229 . S
C842 O851 1.058 . S
O843 C842 1.229 . S
C844 O845 1.229 . S
C844 O857 1.058 . S
O845 C844 1.229 . S
O846 Zn840 1.969 . S
O846 C849 1.267 . S
O847 Zn840 1.965 . S
O847 C858 1.260 . S
O848 Zn841 1.969 . S
O848 C858 1.258 . S
C849 O846 1.267 . S
C849 O850 1.228 . S
O850 C849 1.228 . S
O851 Zn840 2.024 . S
O851 C842 1.058 . S
C852 O853 1.228 . S
C852 O854 1.267 . S
O853 C852 1.228 . S
O854 Zn841 1.969 . S
O854 C852 1.267 . S
O855 Zn841 1.965 . S
O855 C859 1.260 . S
O856 Zn840 1.969 . S
O856 C859 1.258 . S
O857 Zn841 2.024 . S
O857 C844 1.058 . S
C858 O847 1.260 . S
C858 O848 1.258 . S
C859 O855 1.260 . S
C859 O856 1.258 . S
Zn860 O866 1.969 . S
Zn860 O867 1.965 . S
Zn860 O871 2.024 . S
Zn860 O876 1.969 . S
Zn861 O868 1.969 . S
Zn861 O874 1.969 . S
Zn861 O875 1.965 . S
Zn861 O877 2.024 . S
C862 O863 1.229 . S
C862 O871 1.058 . S
O863 C862 1.229 . S
C864 O865 1.229 . S
C864 O877 1.058 . S
O865 C864 1.229 . S
O866 Zn860 1.969 . S
O866 C869 1.267 . S
O867 Zn860 1.965 . S
O867 C878 1.260 . S
O868 Zn861 1.969 . S
O868 C878 1.258 . S
C869 O866 1.267 . S
C869 O870 1.228 . S
O870 C869 1.228 . S
O871 Zn860 2.024 . S
O871 C862 1.058 . S
C872 O873 1.228 . S
C872 O874 1.267 . S
O873 C872 1.228 . S
O874 Zn861 1.969 . S
O874 C872 1.267 . S
O875 Zn861 1.965 . S
O875 C879 1.260 . S
O876 Zn860 1.969 . S
O876 C879 1.258 . S
O877 Zn861 2.024 . S
O877 C864 1.058 . S
C878 O867 1.260 . S
C878 O868 1.258 . S
C879 O875 1.260 . S
C879 O876 1.258 . S
Zn880 O886 1.969 . S
Zn880 O887 1.965 . S
Zn880 O891 2.024 . S
Zn880 O896 1.969 . S
Zn881 O888 1.969 . S
Zn881 O894 1.969 . S
Zn881 O895 1.965 . S
Zn881 O897 2.024 . S
C882 O883 1.229 . S
C882 O891 1.058 . S
O883 C882 1.229 . S
C884 O885 1.229 . S
C884 O897 1.058 . S
O885 C884 1.229 . S
O886 Zn880 1.969 . S
O886 C889 1.267 . S
O887 Zn880 1.965 . S
O887 C898 1.260 . S
O888 Zn881 1.969 . S
O888 C898 1.258 . S
C889 O886 1.267 . S
C889 O890 1.228 . S
O890 C889 1.228 . S
O891 Zn880 2.024 . S
O891 C882 1.058 . S
C892 O893 1.228 . S
C892 O894 1.267 . S
O893 C892 1.228 . S
O894 Zn881 1.969 . S
O894 C892 1.267 . S
O895 Zn881 1.965 . S
O895 C899 1.260 . S
O896 Zn880 1.969 . S
O896 C899 1.258 . S
O897 Zn881 2.024 . S
O897 C884 1.058 . S
C898 O887 1.260 . S
C898 O888 1.258 . S
C899 O895 1.260 . S
C899 O896 1.258 . S
Zn900 O906 1.969 . S
Zn900 O907 1.965 . S
Zn900 O911 2.024 . S
Zn900 O916 1.969 . S
Zn901 O908 1.969 . S
Zn901 O914 1.969 . S
Zn901 O915 1.965 . S
Zn901 O917 2.024 . S
C902 O903 1.229 . S
C902 O911 1.058 . S
O903 C902 1.229 . S
C904 O905 1.229 . S
C904 O917 1.058 . S
O905 C904 1.229 . S
O906 Zn900 1.969 . S
O906 C909 1.267 . S
O907 Zn900 1.965 . S
O907 C918 1.260 . S
O908 Zn901 1.969 . S
O908 C918 1.258 . S
C909 O906 1.267 . S
C909 O910 1.228 . S
O910 C909 1.228 . S
O911 Zn900 2.024 . S
O911 C902 1.058 . S
C912 O913 1.228 . S
C912 O914 1.267 . S
O913 C912 1.228 . S
O914 Zn901 1.969 . S
O914 C912 1.267 . S
O915 Zn901 1.965 . S
O915 C919 1.260 . S
O916 Zn900 1.969 . S
O916 C919 1.258 . S
O917 Zn901 2.024 . S
O917 C904 1.058 . S
C918 O907 1.260 . S
C918 O908 1.258 . S
C919 O915 1.260 . S
C919 O916 1.258 . S
Zn920 O926 1.969 . S
Zn920 O927 1.965 . S
Zn920 O931 2.024 . S
Zn920 O936 1.969 . S
Zn921 O928 1.969 . S
Zn921 O934 1.969 . S
Zn921 O935 1.965 . S
Zn921 O937 2.024 . S
C922 O923 1.229 . S
C922 O931 1.058 . S
O923 C922 1.229 . S
C924 O925 1.229 . S
C924 O937 1.058 . S
O925 C924 1.229 . S
O926 Zn920 1.969 . S
O926 C929 1.267 . S
O927 Zn920 1.965 . S
O927 C938 1.260 . S
O928 Zn921 1.969 . S
O928 C938 1.258 . S
C929 O926 1.267 . S
C929 O930 1.228 . S
O930 C929 1.228 . S
O931 Zn920 2.024 . S
O931 C922 1.058 . S
C932 O933 1.228 . S
C932 O934 1.267 . S
O933 C932 1.228 . S
O934 Zn921 1.969 . S
O934 C932 1.267 . S
O935 Zn921 1.965 . S
O935 C939 1.260 . S
O936 Zn920 1.969 . S
O936 C939 1.258 . S
O937 Zn921 2.024 . S
O937 C924 1.058 . S
C938 O927 1.260 . S
C938 O928 1.258 . S
C939 O935 1.260 . S
C939 O936 1.258 . S
Zn940 O946 1.969 . S
Zn940 O947 1.965 . S
Zn940 O951 2.024 . S
Zn940 O956 1.969 . S
Zn941 O948 1.969 . S
Zn941 O954 1.969 . S
Zn941 O955 1.965 . S
Zn941 O957 2.024 . S
C942 O943 1.229 . S
C942 O951 1.058 . S
O943 C942 1.229 . S
C944 O945 1.229 . S
C944 O957 1.058 . S
O945 C944 1.229 . S
O946 Zn940 1.969 . S
O946 C949 1.267 . S
O947 Zn940 1.965 . S
O947 C958 1.260 . S
O948 Zn941 1.969 . S
O948 C958 1.258 . S
C949 O946 1.267 . S
C949 O950 1.228 . S
O950 C949 1.228 . S
O951 Zn940 2.024 . S
O951 C942 1.058 . S
C952 O953 1.228 . S
C952 O954 1.267 . S
O953 C952 1.228 . S
O954 Zn941 1.969 . S
O954 C952 1.267 . S
O955 Zn941 1.965 . S
O955 C959 1.260 . S
O956 Zn940 1.969 . S
O956 C959 1.258 . S
O957 Zn941 2.024 . S
O957 C944 1.058 . S
C958 O947 1.260 . S
C958 O948 1.258 . S
C959 O955 1.260 . S
C959 O956 1.258 . S
C960 C961 1.349 . S
C960 C962 1.327 . S
C960 H985 0.950 1_455 S
C961 C960 1.349 . S
C961 C977 1.349 . S
C962 C960 1.327 . S
C962 C981 1.429 . S
C962 H986 0.950 1_455 S
C963 C980 1.574 . S
C963 C982 1.368 . S
C963 H987 0.949 . S
H964 C968 0.949 1_655 S
C965 C966 1.349 . S
C965 C967 1.327 . S
C965 H988 0.950 . S
C966 C965 1.349 . S
C966 C978 1.349 . S
C967 C965 1.327 . S
C967 C983 1.429 . S
C967 H989 0.950 . S
C968 H964 0.949 1_455 S
C968 C976 1.574 . S
C968 C984 1.368 . S
H969 C977 0.950 . S
H970 C975 0.950 . S
H971 C976 0.949 1_655 S
H972 C978 0.950 1_655 S
H973 C979 0.950 1_655 S
H974 C980 0.949 . S
C975 H970 0.950 . S
C975 C977 1.327 . S
C975 C981 1.429 . S
C976 C968 1.574 . S
C976 H971 0.949 1_455 S
C976 C982 1.368 . S
C977 C961 1.349 . S
C977 H969 0.950 . S
C977 C975 1.327 . S
C978 C966 1.349 . S
C978 H972 0.950 1_455 S
C978 C979 1.327 . S
C979 H973 0.950 1_455 S
C979 C978 1.327 . S
C979 C983 1.429 . S
C980 C963 1.574 . S
C980 H974 0.949 . S
C980 C984 1.368 . S
C981 C962 1.429 . S
C981 C975 1.429 . S
C981 C982 1.523 . S
C982 C963 1.368 . S
C982 C976 1.368 . S
C982 C981 1.523 . S
C983 C967 1.429 . S
C983 C979 1.429 . S
C983 C984 1.523 . S
C984 C968 1.368 . S
C984 C980 1.368 . S
C984 C983 1.523 . S
H985 C960 0.950 1_655 S
H986 C962 0.950 1_655 S
H987 C963 0.949 . S
H988 C965 0.950 . S
H989 C967 0.950 . S
C990 C991 1.349 . S
C990 C992 1.327 . S
C990 H1015 0.950 . S
C991 C990 1.349 . S
C991 C1007 1.349 . S
C992 C990 1.327 . S
C992 C1011 1.429 . S
C992 H1016 0.950 . S
C993 C1010 1.574 . S
C993 C1012 1.368 . S
C993 H1017 0.949 . S
H994 C998 0.949 . S
C995 C996 1.349 . S
C995 C997 1.327 . S
C995 H1018 0.950 . S
C996 C995 1.349 . S
C996 C1008 1.349 . S
C997 C995 1.327 . S
C997 C1013 1.429 . S
C997 H1019 0.950 . S
C998 H994 0.949 . S
C998 C1006 1.574 . S
C998 C1014 1.368 . S
H999 C1007 0.950 . S
H1000 C1005 0.950 . S
H1001 C1006 0.949 . S
H1002 C1008 0.950 . S
H1003 C1009 0.950 . S
H1004 C1010 0.949 . S
C1005 H1000 0.950 . S
C1005 C1007 1.327 . S
C1005 C1011 1.429 . S
C1006 C998 1.574 . S
C1006 H1001 0.949 . S
C1006 C1012 1.368 . S
C1007 C991 1.349 . S
C1007 H999 0.950 . S
C1007 C1005 1.327 . S
C1008 C996 1.349 . S
C1008 H1002 0.950 . S
C1008 C1009 1.327 . S
C1009 H1003 0.950 . S
C1009 C1008 1.327 . S
C1009 C1013 1.429 . S
C1010 C993 1.574 . S
C1010 H1004 0.949 . S
C1010 C1014 1.368 . S
C1011 C992 1.429 . S
C1011 C1005 1.429 . S
C1011 C1012 1.523 . S
C1012 C993 1.368 . S
C1012 C1006 1.368 . S
C1012 C1011 1.523 . S
C1013 C997 1.429 . S
C1013 C1009 1.429 . S
C1013 C1014 1.523 . S
C1014 C998 1.368 . S
C1014 C1010 1.368 . S
C1014 C1013 1.523 . S
H1015 C990 0.950 . S
H1016 C992 0.950 . S
H1017 C993 0.949 . S
H1018 C995 0.950 . S
H1019 C997 0.950 . S
C1020 C1021 1.349 . S
C1020 C1022 1.327 . S
C1020 H1045 0.950 . S
C1021 C1020 1.349 . S
C1021 C1037 1.349 . S
C1022 C1020 1.327 . S
C1022 C1041 1.429 . S
C1022 H1046 0.950 . S
C1023 C1040 1.574 . S
C1023 C1042 1.368 . S
C1023 H1047 0.949 . S
H1024 C1028 0.949 . S
C1025 C1026 1.349 . S
C1025 C1027 1.327 . S
C1025 H1048 0.950 . S
C1026 C1025 1.349 . S
C1026 C1038 1.349 . S
C1027 C1025 1.327 . S
C1027 C1043 1.429 . S
C1027 H1049 0.950 . S
C1028 H1024 0.949 . S
C1028 C1036 1.574 . S
C1028 C1044 1.368 . S
H1029 C1037 0.950 . S
H1030 C1035 0.950 . S
H1031 C1036 0.949 . S
H1032 C1038 0.950 . S
H1033 C1039 0.950 . S
H1034 C1040 0.949 . S
C1035 H1030 0.950 . S
C1035 C1037 1.327 . S
C1035 C1041 1.429 . S
C1036 C1028 1.574 . S
C1036 H1031 0.949 . S
C1036 C1042 1.368 . S
C1037 C1021 1.349 . S
C1037 H1029 0.950 . S
C1037 C1035 1.327 . S
C1038 C1026 1.349 . S
C1038 H1032 0.950 . S
C1038 C1039 1.327 . S
C1039 H1033 0.950 . S
C1039 C1038 1.327 . S
C1039 C1043 1.429 . S
C1040 C1023 1.574 . S
C1040 H1034 0.949 . S
C1040 C1044 1.368 . S
C1041 C1022 1.429 . S
C1041 C1035 1.429 . S
C1041 C1042 1.523 . S
C1042 C1023 1.368 . S
C1042 C1036 1.368 . S
C1042 C1041 1.523 . S
C1043 C1027 1.429 . S
C1043 C1039 1.429 . S
C1043 C1044 1.523 . S
C1044 C1028 1.368 . S
C1044 C1040 1.368 . S
C1044 C1043 1.523 . S
H1045 C1020 0.950 . S
H1046 C1022 0.950 . S
H1047 C1023 0.949 . S
H1048 C1025 0.950 . S
H1049 C1027 0.950 . S
C1050 C1051 1.349 . S
C1050 C1052 1.327 . S
C1050 H1075 0.950 . S
C1051 C1050 1.349 . S
C1051 C1067 1.349 . S
C1052 C1050 1.327 . S
C1052 C1071 1.429 . S
C1052 H1076 0.950 . S
C1053 C1070 1.574 . S
C1053 C1072 1.368 . S
C1053 H1077 0.949 . S
H1054 C1058 0.949 . S
C1055 C1056 1.349 . S
C1055 C1057 1.327 . S
C1055 H1078 0.950 . S
C1056 C1055 1.349 . S
C1056 C1068 1.349 . S
C1057 C1055 1.327 . S
C1057 C1073 1.429 . S
C1057 H1079 0.950 . S
C1058 H1054 0.949 . S
C1058 C1066 1.574 . S
C1058 C1074 1.368 . S
H1059 C1067 0.950 . S
H1060 C1065 0.950 . S
H1061 C1066 0.949 . S
H1062 C1068 0.950 . S
H1063 C1069 0.950 . S
H1064 C1070 0.949 . S
C1065 H1060 0.950 . S
C1065 C1067 1.327 . S
C1065 C1071 1.429 . S
C1066 C1058 1.574 . S
C1066 H1061 0.949 . S
C1066 C1072 1.368 . S
C1067 C1051 1.349 . S
C1067 H1059 0.950 . S
C1067 C1065 1.327 . S
C1068 C1056 1.349 . S
C1068 H1062 0.950 . S
C1068 C1069 1.327 . S
C1069 H1063 0.950 . S
C1069 C1068 1.327 . S
C1069 C1073 1.429 . S
C1070 C1053 1.574 . S
C1070 H1064 0.949 . S
C1070 C1074 1.368 . S
C1071 C1052 1.429 . S
C1071 C1065 1.429 . S
C1071 C1072 1.523 . S
C1072 C1053 1.368 . S
C1072 C1066 1.368 . S
C1072 C1071 1.523 . S
C1073 C1057 1.429 . S
C1073 C1069 1.429 . S
C1073 C1074 1.523 . S
C1074 C1058 1.368 . S
C1074 C1070 1.368 . S
C1074 C1073 1.523 . S
H1075 C1050 0.950 . S
H1076 C1052 0.950 . S
H1077 C1053 0.949 . S
H1078 C1055 0.950 . S
H1079 C1057 0.950 . S
C1080 C1081 1.349 . S
C1080 C1082 1.327 . S
C1080 H1105 0.950 . S
C1081 C1080 1.349 . S
C1081 C1097 1.333 1_545 S
C1082 C1080 1.327 . S
C1082 C1101 1.429 . S
C1082 H1106 0.950 . S
C1083 C1100 1.574 . S
C1083 C1102 1.357 1_565 S
C1083 H1107 0.949 . S
H1084 C1088 0.949 . S
C1085 C1086 1.349 . S
C1085 C1087 1.327 . S
C1085 H1108 0.950 . S
C1086 C1085 1.349 . S
C1086 C1098 1.349 . S
C1087 C1085 1.327 . S
C1087 C1103 1.429 . S
C1087 H1109 0.950 . S
C1088 H1084 0.949 . S
C1088 C1096 1.574 . S
C1088 C1104 1.368 1_545 S
H1089 C1097 0.966 . S
H1090 C1095 0.950 . S
H1091 C1096 0.949 . S
H1092 C1098 0.950 1_545 S
H1093 C1099 0.963 . S
H1094 C1100 0.949 . S
C1095 H1090 0.950 . S
C1095 C1097 1.331 . S
C1095 C1101 1.429 1_565 S
C1096 C1088 1.574 . S
C1096 H1091 0.949 . S
C1096 C1102 1.379 . S
C1097 C1081 1.333 1_565 S
C1097 H1089 0.966 . S
C1097 C1095 1.331 . S
C1098 C1086 1.349 . S
C1098 H1092 0.950 1_565 S
C1098 C1099 1.326 1_565 S
C1099 H1093 0.963 . S
C1099 C1098 1.326 1_545 S
C1099 C1103 1.419 1_545 S
C1100 C1083 1.574 . S
C1100 H1094 0.949 . S
C1100 C1104 1.368 . S
C1101 C1082 1.429 . S
C1101 C1095 1.429 1_545 S
C1101 C1102 1.525 . S
C1102 C1083 1.357 1_545 S
C1102 C1096 1.379 . S
C1102 C1101 1.525 . S
C1103 C1087 1.429 . S
C1103 C1099 1.419 1_565 S
C1103 C1104 1.523 . S
C1104 C1088 1.368 1_565 S
C1104 C1100 1.368 . S
C1104 C1103 1.523 . S
H1105 C1080 0.950 . S
H1106 C1082 0.950 . S
H1107 C1083 0.949 . S
H1108 C1085 0.950 . S
H1109 C1087 0.950 . S
C1110 C1111 1.349 . S
C1110 C1112 1.327 . S
C1110 H1135 0.950 . S
C1111 C1110 1.349 . S
C1111 C1127 1.349 . S
C1112 C1110 1.327 . S
C1112 C1131 1.429 . S
C1112 H1136 0.950 . S
C1113 C1130 1.574 . S
C1113 C1132 1.368 . S
C1113 H1137 0.949 . S
H1114 C1118 0.949 . S
C1115 C1116 1.349 . S
C1115 C1117 1.327 . S
C1115 H1138 0.950 . S
C1116 C1115 1.349 . S
C1116 C1128 1.349 . S
C1117 C1115 1.327 . S
C1117 C1133 1.429 . S
C1117 H1139 0.950 . S
C1118 H1114 0.949 . S
C1118 C1126 1.574 . S
C1118 C1134 1.368 . S
H1119 C1127 0.950 . S
H1120 C1125 0.950 . S
H1121 C1126 0.949 . S
H1122 C1128 0.950 . S
H1123 C1129 0.950 . S
H1124 C1130 0.949 . S
C1125 H1120 0.950 . S
C1125 C1127 1.327 . S
C1125 C1131 1.429 . S
C1126 C1118 1.574 . S
C1126 H1121 0.949 . S
C1126 C1132 1.368 . S
C1127 C1111 1.349 . S
C1127 H1119 0.950 . S
C1127 C1125 1.327 . S
C1128 C1116 1.349 . S
C1128 H1122 0.950 . S
C1128 C1129 1.327 . S
C1129 H1123 0.950 . S
C1129 C1128 1.327 . S
C1129 C1133 1.429 . S
C1130 C1113 1.574 . S
C1130 H1124 0.949 . S
C1130 C1134 1.368 . S
C1131 C1112 1.429 . S
C1131 C1125 1.429 . S
C1131 C1132 1.523 . S
C1132 C1113 1.368 . S
C1132 C1126 1.368 . S
C1132 C1131 1.523 . S
C1133 C1117 1.429 . S
C1133 C1129 1.429 . S
C1133 C1134 1.523 . S
C1134 C1118 1.368 . S
C1134 C1130 1.368 . S
C1134 C1133 1.523 . S
H1135 C1110 0.950 . S
H1136 C1112 0.950 . S
H1137 C1113 0.949 . S
H1138 C1115 0.950 . S
H1139 C1117 0.950 . S
C1140 C1141 1.349 . S
C1140 C1142 1.327 . S
C1140 H1165 0.950 . S
C1141 C1140 1.349 . S
C1141 C1157 1.349 1_565 S
C1142 C1140 1.327 . S
C1142 C1161 1.429 . S
C1142 H1166 0.950 . S
C1143 C1160 1.626 . S
C1143 C1162 1.368 1_545 S
C1143 H1167 0.949 . S
H1144 C1148 0.967 . S
C1145 C1146 1.349 . S
C1145 C1147 1.327 . S
C1145 H1168 0.950 1_565 S
C1146 C1145 1.349 . S
C1146 C1158 1.349 . S
C1147 C1145 1.327 . S
C1147 C1163 1.429 . S
C1147 H1169 0.950 1_565 S
C1148 H1144 0.967 . S
C1148 C1156 1.574 . S
C1148 C1164 1.368 1_554 S
H1149 C1157 0.950 . S
H1150 C1155 0.950 . S
H1151 C1156 0.949 . S
H1152 C1158 0.950 . S
H1153 C1159 0.950 . S
H1154 C1160 0.925 1_556 S
C1155 H1150 0.950 . S
C1155 C1157 1.327 . S
C1155 C1161 1.429 1_545 S
C1156 C1148 1.574 . S
C1156 H1151 0.949 . S
C1156 C1162 1.368 . S
C1157 C1141 1.349 1_545 S
C1157 H1149 0.950 . S
C1157 C1155 1.327 . S
C1158 C1146 1.349 . S
C1158 H1152 0.950 . S
C1158 C1159 1.327 . S
C1159 H1153 0.950 . S
C1159 C1158 1.327 . S
C1159 C1163 1.429 . S
C1160 C1143 1.626 . S
C1160 H1154 0.925 1_554 S
C1160 C1164 1.345 1_544 S
C1161 C1142 1.429 . S
C1161 C1155 1.429 1_565 S
C1161 C1162 1.523 . S
C1162 C1143 1.368 1_565 S
C1162 C1156 1.368 . S
C1162 C1161 1.523 . S
C1163 C1147 1.429 . S
C1163 C1159 1.429 . S
C1163 C1164 1.523 . S
C1164 C1148 1.368 1_556 S
C1164 C1160 1.345 1_566 S
C1164 C1163 1.523 . S
H1165 C1140 0.950 . S
H1166 C1142 0.950 . S
H1167 C1143 0.949 . S
H1168 C1145 0.950 1_545 S
H1169 C1147 0.950 1_545 S
C1170 C1171 1.349 1_545 S
C1170 C1172 1.327 . S
C1170 H1195 0.950 . S
C1171 C1170 1.349 1_565 S
C1171 C1187 1.349 . S
C1172 C1170 1.327 . S
C1172 C1191 1.429 1_545 S
C1172 H1196 0.950 . S
C1173 C1190 1.574 . S
C1173 C1192 1.368 . S
C1173 H1197 0.949 . S
H1174 C1178 0.949 . S
C1175 C1176 1.349 . S
C1175 C1177 1.327 . S
C1175 H1198 0.950 . S
C1176 C1175 1.349 . S
C1176 C1188 1.307 1_565 S
C1177 C1175 1.327 . S
C1177 C1193 1.429 . S
C1177 H1199 0.950 . S
C1178 H1174 0.949 . S
C1178 C1186 1.574 . S
C1178 C1194 1.368 1_545 S
H1179 C1187 0.950 . S
H1180 C1185 0.950 . S
H1181 C1186 0.949 . S
H1182 C1188 0.995 . S
H1183 C1189 0.950 . S
H1184 C1190 0.949 . S
C1185 H1180 0.950 . S
C1185 C1187 1.327 . S
C1185 C1191 1.429 . S
C1186 C1178 1.574 . S
C1186 H1181 0.949 . S
C1186 C1192 1.368 1_545 S
C1187 C1171 1.349 . S
C1187 H1179 0.950 . S
C1187 C1185 1.327 . S
C1188 C1176 1.307 1_545 S
C1188 H1182 0.995 . S
C1188 C1189 1.328 . S
C1189 H1183 0.950 . S
C1189 C1188 1.328 . S
C1189 C1193 1.429 1_545 S
C1190 C1173 1.574 . S
C1190 H1184 0.949 . S
C1190 C1194 1.368 . S
C1191 C1172 1.429 1_565 S
C1191 C1185 1.429 . S
C1191 C1192 1.523 . S
C1192 C1173 1.368 . S
C1192 C1186 1.368 1_565 S
C1192 C1191 1.523 . S
C1193 C1177 1.429 . S
C1193 C1189 1.429 1_565 S
C1193 C1194 1.523 . S
C1194 C1178 1.368 1_565 S
C1194 C1190 1.368 . S
C1194 C1193 1.523 . S
H1195 C1170 0.950 . S
H1196 C1172 0.950 . S
H1197 C1173 0.949 . S
H1198 C1175 0.950 . S
H1199 C1177 0.950 . S
C1200 C1201 1.349 . S
C1200 C1202 1.327 . S
C1200 H1225 0.950 . S
C1201 C1200 1.349 . S
C1201 C1217 1.349 1_554 S
C1202 C1200 1.327 . S
C1202 C1221 1.429 . S
C1202 H1226 0.950 . S
C1203 C1220 1.574 . S
C1203 C1222 1.338 1_556 S
C1203 H1227 0.949 . S
H1204 C1208 0.949 . S
C1205 C1206 1.349 . S
C1205 C1207 1.327 . S
C1205 H1228 0.950 . S
C1206 C1205 1.349 . S
C1206 C1218 1.349 1_556 S
C1207 C1205 1.327 . S
C1207 C1223 1.429 . S
C1207 H1229 0.950 . S
C1208 H1204 0.949 . S
C1208 C1216 1.574 . S
C1208 C1224 1.347 1_554 S
H1209 C1217 0.950 . S
H1210 C1215 0.950 . S
H1211 C1216 0.949 . S
H1212 C1218 0.950 . S
H1213 C1219 0.950 . S
H1214 C1220 0.949 . S
C1215 H1210 0.950 . S
C1215 C1217 1.327 . S
C1215 C1221 1.429 1_556 S
C1216 C1208 1.574 . S
C1216 H1211 0.949 . S
C1216 C1222 1.399 . S
C1217 C1201 1.349 1_556 S
C1217 H1209 0.950 . S
C1217 C1215 1.327 . S
C1218 C1206 1.349 1_554 S
C1218 H1212 0.950 . S
C1218 C1219 1.327 . S
C1219 H1213 0.950 . S
C1219 C1218 1.327 . S
C1219 C1223 1.429 1_554 S
C1220 C1203 1.574 . S
C1220 H1214 0.949 . S
C1220 C1224 1.390 . S
C1221 C1202 1.429 . S
C1221 C1215 1.429 1_554 S
C1221 C1222 1.523 . S
C1222 C1203 1.338 1_554 S
C1222 C1216 1.399 . S
C1222 C1221 1.523 . S
C1223 C1207 1.429 . S
C1223 C1219 1.429 1_556 S
C1223 C1224 1.523 . S
C1224 C1208 1.347 1_556 S
C1224 C1220 1.390 . S
C1224 C1223 1.523 . S
H1225 C1200 0.950 . S
H1226 C1202 0.950 . S
H1227 C1203 0.949 . S
H1228 C1205 0.950 . S
H1229 C1207 0.950 . S
C1230 C1231 1.349 . S
C1230 C1232 1.327 . S
C1230 H1255 0.950 . S
C1231 C1230 1.349 . S
C1231 C1247 1.349 . S
C1232 C1230 1.327 . S
C1232 C1251 1.429 . S
C1232 H1256 0.950 . S
C1233 C1250 1.574 1_655 S
C1233 C1252 1.368 . S
C1233 H1257 0.949 . S
H1234 C1238 0.949 . S
C1235 C1236 1.349 . S
C1235 C1237 1.327 . S
C1235 H1258 0.950 . S
C1236 C1235 1.349 . S
C1236 C1248 1.349 . S
C1237 C1235 1.327 . S
C1237 C1253 1.429 . S
C1237 H1259 0.950 . S
C1238 H1234 0.949 . S
C1238 C1246 1.574 1_455 S
C1238 C1254 1.368 . S
H1239 C1247 0.950 . S
H1240 C1245 0.950 . S
H1241 C1246 0.949 . S
H1242 C1248 0.950 . S
H1243 C1249 0.950 . S
H1244 C1250 0.949 . S
C1245 H1240 0.950 . S
C1245 C1247 1.327 . S
C1245 C1251 1.429 . S
C1246 C1238 1.574 1_655 S
C1246 H1241 0.949 . S
C1246 C1252 1.368 . S
C1247 C1231 1.349 . S
C1247 H1239 0.950 . S
C1247 C1245 1.327 . S
C1248 C1236 1.349 . S
C1248 H1242 0.950 . S
C1248 C1249 1.327 . S
C1249 H1243 0.950 . S
C1249 C1248 1.327 . S
C1249 C1253 1.429 . S
C1250 C1233 1.574 1_455 S
C1250 H1244 0.949 . S
C1250 C1254 1.368 . S
C1251 C1232 1.429 . S
C1251 C1245 1.429 . S
C1251 C1252 1.523 . S
C1252 C1233 1.368 . S
C1252 C1246 1.368 . S
C1252 C1251 1.523 . S
C1253 C1237 1.429 . S
C1253 C1249 1.429 . S
C1253 C1254 1.523 . S
C1254 C1238 1.368 . S
C1254 C1250 1.368 . S
C1254 C1253 1.523 . S
H1255 C1230 0.950 . S
H1256 C1232 0.950 . S
H1257 C1233 0.949 . S
H1258 C1235 0.950 . S
H1259 C1237 0.950 . S
C1260 C1261 1.375 . S
C1260 C1262 1.328 . S
C1260 H1285 0.925 1_655 S
C1261 C1260 1.375 . S
C1261 C1277 1.349 . S
C1262 C1260 1.328 . S
C1262 C1281 1.429 . S
C1262 H1286 0.950 1_655 S
C1263 C1280 1.574 . S
C1263 C1282 1.368 . S
C1263 H1287 0.949 . S
H1264 C1268 0.949 1_455 S
C1265 C1266 1.349 . S
C1265 C1267 1.327 . S
C1265 H1288 0.950 . S
C1266 C1265 1.349 . S
C1266 C1278 1.349 . S
C1267 C1265 1.327 . S
C1267 C1283 1.429 . S
C1267 H1289 0.950 . S
C1268 H1264 0.949 1_655 S
C1268 C1276 1.574 . S
C1268 C1284 1.368 . S
H1269 C1277 0.950 . S
H1270 C1275 0.950 . S
H1271 C1276 0.949 1_455 S
H1272 C1278 0.955 . S
H1273 C1279 0.950 1_455 S
H1274 C1280 0.949 . S
C1275 H1270 0.950 . S
C1275 C1277 1.327 . S
C1275 C1281 1.429 . S
C1276 C1268 1.574 . S
C1276 H1271 0.949 1_655 S
C1276 C1282 1.368 . S
C1277 C1261 1.349 . S
C1277 H1269 0.950 . S
C1277 C1275 1.327 . S
C1278 C1266 1.349 . S
C1278 H1272 0.955 . S
C1278 C1279 1.327 . S
C1279 H1273 0.950 1_655 S
C1279 C1278 1.327 . S
C1279 C1283 1.429 . S
C1280 C1263 1.574 . S
C1280 H1274 0.949 . S
C1280 C1284 1.368 . S
C1281 C1262 1.429 . S
C1281 C1275 1.429 . S
C1281 C1282 1.523 . S
C1282 C1263 1.368 . S
C1282 C1276 1.368 . S
C1282 C1281 1.523 . S
C1283 C1267 1.429 . S
C1283 C1279 1.429 . S
C1283 C1284 1.523 . S
C1284 C1268 1.368 . S
C1284 C1280 1.368 . S
C1284 C1283 1.523 . S
H1285 C1260 0.925 1_455 S
H1286 C1262 0.950 1_455 S
H1287 C1263 0.949 . S
H1288 C1265 0.950 . S
H1289 C1267 0.950 . S
C1290 C1291 1.349 . S
C1290 C1292 1.327 . S
C1290 H1315 0.950 . S
C1291 C1290 1.349 . S
C1291 C1307 1.349 . S
C1292 C1290 1.327 . S
C1292 C1311 1.429 . S
C1292 H1316 0.950 . S
C1293 C1310 1.574 . S
C1293 C1312 1.368 . S
C1293 H1317 0.949 . S
H1294 C1298 0.949 . S
C1295 C1296 1.349 . S
C1295 C1297 1.327 . S
C1295 H1318 0.950 . S
C1296 C1295 1.349 . S
C1296 C1308 1.349 . S
C1297 C1295 1.327 . S
C1297 C1313 1.429 . S
C1297 H1319 0.950 . S
C1298 H1294 0.949 . S
C1298 C1306 1.574 . S
C1298 C1314 1.368 . S
H1299 C1307 0.950 . S
H1300 C1305 0.950 . S
H1301 C1306 0.949 . S
H1302 C1308 0.950 . S
H1303 C1309 0.950 . S
H1304 C1310 0.949 . S
C1305 H1300 0.950 . S
C1305 C1307 1.327 . S
C1305 C1311 1.429 . S
C1306 C1298 1.574 . S
C1306 H1301 0.949 . S
C1306 C1312 1.368 . S
C1307 C1291 1.349 . S
C1307 H1299 0.950 . S
C1307 C1305 1.327 . S
C1308 C1296 1.349 . S
C1308 H1302 0.950 . S
C1308 C1309 1.327 . S
C1309 H1303 0.950 . S
C1309 C1308 1.327 . S
C1309 C1313 1.429 . S
C1310 C1293 1.574 . S
C1310 H1304 0.949 . S
C1310 C1314 1.368 . S
C1311 C1292 1.429 . S
C1311 C1305 1.429 . S
C1311 C1312 1.523 . S
C1312 C1293 1.368 . S
C1312 C1306 1.368 . S
C1312 C1311 1.523 . S
C1313 C1297 1.429 . S
C1313 C1309 1.429 . S
C1313 C1314 1.523 . S
C1314 C1298 1.368 . S
C1314 C1310 1.368 . S
C1314 C1313 1.523 . S
H1315 C1290 0.950 . S
H1316 C1292 0.950 . S
H1317 C1293 0.949 . S
H1318 C1295 0.950 . S
H1319 C1297 0.950 . S
C1320 C1321 1.349 . S
C1320 C1322 1.327 . S
C1320 H1345 0.950 . S
C1321 C1320 1.349 . S
C1321 C1337 1.349 . S
C1322 C1320 1.327 . S
C1322 C1341 1.429 . S
C1322 H1346 0.950 . S
C1323 C1340 1.574 1_655 S
C1323 C1342 1.368 . S
C1323 H1347 0.949 . S
H1324 C1328 0.949 . S
C1325 C1326 1.349 . S
C1325 C1327 1.327 . S
C1325 H1348 0.950 . S
C1326 C1325 1.349 . S
C1326 C1338 1.349 . S
C1327 C1325 1.327 . S
C1327 C1343 1.429 . S
C1327 H1349 0.950 . S
C1328 H1324 0.949 . S
C1328 C1336 1.574 1_455 S
C1328 C1344 1.368 . S
H1329 C1337 0.950 . S
H1330 C1335 0.950 . S
H1331 C1336 0.949 . S
H1332 C1338 0.950 . S
H1333 C1339 0.950 . S
H1334 C1340 0.949 . S
C1335 H1330 0.950 . S
C1335 C1337 1.327 . S
C1335 C1341 1.429 . S
C1336 C1328 1.574 1_655 S
C1336 H1331 0.949 . S
C1336 C1342 1.368 . S
C1337 C1321 1.349 . S
C1337 H1329 0.950 . S
C1337 C1335 1.327 . S
C1338 C1326 1.349 . S
C1338 H1332 0.950 . S
C1338 C1339 1.327 . S
C1339 H1333 0.950 . S
C1339 C1338 1.327 . S
C1339 C1343 1.429 . S
C1340 C1323 1.574 1_455 S
C1340 H1334 0.949 . S
C1340 C1344 1.368 . S
C1341 C1322 1.429 . S
C1341 C1335 1.429 . S
C1341 C1342 1.523 . S
C1342 C1323 1.368 . S
C1342 C1336 1.368 . S
C1342 C1341 1.523 . S
C1343 C1327 1.429 . S
C1343 C1339 1.429 . S
C1343 C1344 1.523 . S
C1344 C1328 1.368 . S
C1344 C1340 1.368 . S
C1344 C1343 1.523 . S
H1345 C1320 0.950 . S
H1346 C1322 0.950 . S
H1347 C1323 0.949 . S
H1348 C1325 0.950 . S
H1349 C1327 0.950 . S
C1350 C1351 1.342 1_455 S
C1350 C1352 1.334 . S
C1350 H1375 0.949 . S
C1351 C1350 1.342 1_655 S
C1351 C1367 1.349 . S
C1352 C1350 1.334 . S
C1352 C1371 1.429 . S
C1352 H1376 0.950 . S
C1353 C1370 1.574 . S
C1353 C1372 1.368 . S
C1353 H1377 0.949 . S
H1354 C1358 0.949 . S
C1355 C1356 1.349 . S
C1355 C1357 1.327 . S
C1355 H1378 0.950 . S
C1356 C1355 1.349 . S
C1356 C1368 1.349 . S
C1357 C1355 1.327 . S
C1357 C1373 1.429 . S
C1357 H1379 0.950 . S
C1358 H1354 0.949 . S
C1358 C1366 1.574 . S
C1358 C1374 1.368 . S
H1359 C1367 0.950 . S
H1360 C1365 0.949 1_655 S
H1361 C1366 0.949 . S
H1362 C1368 0.950 . S
H1363 C1369 0.950 . S
H1364 C1370 0.949 . S
C1365 H1360 0.949 1_455 S
C1365 C1367 1.327 1_455 S
C1365 C1371 1.429 . S
C1366 C1358 1.574 . S
C1366 H1361 0.949 . S
C1366 C1372 1.368 . S
C1367 C1351 1.349 . S
C1367 H1359 0.950 . S
C1367 C1365 1.327 1_655 S
C1368 C1356 1.349 . S
C1368 H1362 0.950 . S
C1368 C1369 1.327 . S
C1369 H1363 0.950 . S
C1369 C1368 1.327 . S
C1369 C1373 1.429 . S
C1370 C1353 1.574 . S
C1370 H1364 0.949 . S
C1370 C1374 1.368 . S
C1371 C1352 1.429 . S
C1371 C1365 1.429 . S
C1371 C1372 1.523 . S
C1372 C1353 1.368 . S
C1372 C1366 1.368 . S
C1372 C1371 1.523 . S
C1373 C1357 1.429 . S
C1373 C1369 1.429 . S
C1373 C1374 1.523 . S
C1374 C1358 1.368 . S
C1374 C1370 1.368 . S
C1374 C1373 1.523 . S
H1375 C1350 0.949 . S
H1376 C1352 0.950 . S
H1377 C1353 0.949 . S
H1378 C1355 0.950 . S
H1379 C1357 0.950 . S
C1380 C1381 1.349 . S
C1380 C1382 1.327 . S
C1380 H1405 0.950 . S
C1381 C1380 1.349 . S
C1381 C1397 1.349 . S
C1382 C1380 1.327 . S
C1382 C1401 1.429 . S
C1382 H1406 0.950 . S
C1383 C1400 1.574 . S
C1383 C1402 1.368 . S
C1383 H1407 0.949 . S
H1384 C1388 0.949 . S
C1385 C1386 1.349 . S
C1385 C1387 1.327 . S
C1385 H1408 0.950 . S
C1386 C1385 1.349 . S
C1386 C1398 1.349 . S
C1387 C1385 1.327 . S
C1387 C1403 1.429 . S
C1387 H1409 0.950 . S
C1388 H1384 0.949 . S
C1388 C1396 1.574 . S
C1388 C1404 1.368 . S
H1389 C1397 0.950 . S
H1390 C1395 0.950 . S
H1391 C1396 0.949 . S
H1392 C1398 0.950 . S
H1393 C1399 0.950 . S
H1394 C1400 0.949 . S
C1395 H1390 0.950 . S
C1395 C1397 1.327 . S
C1395 C1401 1.429 . S
C1396 C1388 1.574 . S
C1396 H1391 0.949 . S
C1396 C1402 1.368 . S
C1397 C1381 1.349 . S
C1397 H1389 0.950 . S
C1397 C1395 1.327 . S
C1398 C1386 1.349 . S
C1398 H1392 0.950 . S
C1398 C1399 1.327 . S
C1399 H1393 0.950 . S
C1399 C1398 1.327 . S
C1399 C1403 1.429 . S
C1400 C1383 1.574 . S
C1400 H1394 0.949 . S
C1400 C1404 1.368 . S
C1401 C1382 1.429 . S
C1401 C1395 1.429 . S
C1401 C1402 1.523 . S
C1402 C1383 1.368 . S
C1402 C1396 1.368 . S
C1402 C1401 1.523 . S
C1403 C1387 1.429 . S
C1403 C1399 1.429 . S
C1403 C1404 1.523 . S
C1404 C1388 1.368 . S
C1404 C1400 1.368 . S
C1404 C1403 1.523 . S
H1405 C1380 0.950 . S
H1406 C1382 0.950 . S
H1407 C1383 0.949 . S
H1408 C1385 0.950 . S
H1409 C1387 0.950 . S
C1410 C1411 1.349 . S
C1410 C1412 1.327 . S
C1410 H1435 0.950 . S
C1411 C1410 1.349 . S
C1411 C1427 1.349 . S
C1412 C1410 1.327 . S
C1412 C1431 1.429 . S
C1412 H1436 0.950 . S
C1413 C1430 1.574 . S
C1413 C1432 1.368 . S
C1413 H1437 0.949 1_655 S
H1414 C1418 0.949 . S
C1415 C1416 1.349 . S
C1415 C1417 1.327 . S
C1415 H1438 0.950 1_655 S
C1416 C1415 1.349 . S
C1416 C1428 1.349 . S
C1417 C1415 1.327 . S
C1417 C1433 1.429 . S
C1417 H1439 0.950 1_655 S
C1418 H1414 0.949 . S
C1418 C1426 1.574 . S
C1418 C1434 1.368 . S
H1419 C1427 0.950 1_455 S
H1420 C1425 0.950 1_455 S
H1421 C1426 0.949 . S
H1422 C1428 0.950 . S
H1423 C1429 0.950 . S
H1424 C1430 0.949 1_455 S
C1425 H1420 0.950 1_655 S
C1425 C1427 1.327 . S
C1425 C1431 1.429 . S
C1426 C1418 1.574 . S
C1426 H1421 0.949 . S
C1426 C1432 1.368 . S
C1427 C1411 1.349 . S
C1427 H1419 0.950 1_655 S
C1427 C1425 1.327 . S
C1428 C1416 1.349 . S
C1428 H1422 0.950 . S
C1428 C1429 1.327 . S
C1429 H1423 0.950 . S
C1429 C1428 1.327 . S
C1429 C1433 1.429 . S
C1430 C1413 1.574 . S
C1430 H1424 0.949 1_655 S
C1430 C1434 1.368 . S
C1431 C1412 1.429 . S
C1431 C1425 1.429 . S
C1431 C1432 1.523 . S
C1432 C1413 1.368 . S
C1432 C1426 1.368 . S
C1432 C1431 1.523 . S
C1433 C1417 1.429 . S
C1433 C1429 1.429 . S
C1433 C1434 1.523 . S
C1434 C1418 1.368 . S
C1434 C1430 1.368 . S
C1434 C1433 1.523 . S
H1435 C1410 0.950 . S
H1436 C1412 0.950 . S
H1437 C1413 0.949 1_455 S
H1438 C1415 0.950 1_455 S
H1439 C1417 0.950 1_455 S
C1440 C1441 1.349 . S
C1440 C1442 1.327 . S
C1440 H1465 0.950 . S
C1441 C1440 1.349 . S
C1441 C1457 1.349 . S
C1442 C1440 1.327 . S
C1442 C1461 1.429 . S
C1442 H1466 0.950 . S
C1443 C1460 1.574 . S
C1443 C1462 1.368 . S
C1443 H1467 0.949 . S
H1444 C1448 0.949 . S
C1445 C1446 1.349 . S
C1445 C1447 1.327 . S
C1445 H1468 0.950 . S
C1446 C1445 1.349 . S
C1446 C1458 1.349 . S
C1447 C1445 1.327 . S
C1447 C1463 1.429 . S
C1447 H1469 0.950 . S
C1448 H1444 0.949 . S
C1448 C1456 1.574 . S
C1448 C1464 1.368 . S
H1449 C1457 0.950 . S
H1450 C1455 0.950 . S
H1451 C1456 0.949 . S
H1452 C1458 0.950 . S
H1453 C1459 0.950 . S
H1454 C1460 0.949 . S
C1455 H1450 0.950 . S
C1455 C1457 1.327 . S
C1455 C1461 1.429 . S
C1456 C1448 1.574 . S
C1456 H1451 0.949 . S
C1456 C1462 1.368 . S
C1457 C1441 1.349 . S
C1457 H1449 0.950 . S
C1457 C1455 1.327 . S
C1458 C1446 1.349 . S
C1458 H1452 0.950 . S
C1458 C1459 1.327 . S
C1459 H1453 0.950 . S
C1459 C1458 1.327 . S
C1459 C1463 1.429 . S
C1460 C1443 1.574 . S
C1460 H1454 0.949 . S
C1460 C1464 1.368 . S
C1461 C1442 1.429 . S
C1461 C1455 1.429 . S
C1461 C1462 1.523 . S
C1462 C1443 1.368 . S
C1462 C1456 1.368 . S
C1462 C1461 1.523 . S
C1463 C1447 1.429 . S
C1463 C1459 1.429 . S
C1463 C1464 1.523 . S
C1464 C1448 1.368 . S
C1464 C1460 1.368 . S
C1464 C1463 1.523 . S
H1465 C1440 0.950 . S
H1466 C1442 0.950 . S
H1467 C1443 0.949 . S
H1468 C1445 0.950 . S
H1469 C1447 0.950 . S
C1470 C1471 1.349 . S
C1470 C1472 1.327 . S
C1470 H1495 0.950 . S
C1471 C1470 1.349 . S
C1471 C1487 1.349 . S
C1472 C1470 1.327 . S
C1472 C1491 1.429 . S
C1472 H1496 0.950 . S
C1473 C1490 1.574 . S
C1473 C1492 1.368 . S
C1473 H1497 0.949 . S
H1474 C1478 0.949 . S
C1475 C1476 1.349 . S
C1475 C1477 1.327 . S
C1475 H1498 0.950 . S
C1476 C1475 1.349 . S
C1476 C1488 1.349 . S
C1477 C1475 1.327 . S
C1477 C1493 1.429 . S
C1477 H1499 0.950 . S
C1478 H1474 0.949 . S
C1478 C1486 1.574 . S
C1478 C1494 1.368 . S
H1479 C1487 0.950 . S
H1480 C1485 0.950 . S
H1481 C1486 0.949 . S
H1482 C1488 0.950 . S
H1483 C1489 0.950 . S
H1484 C1490 0.949 . S
C1485 H1480 0.950 . S
C1485 C1487 1.327 . S
C1485 C1491 1.429 . S
C1486 C1478 1.574 . S
C1486 H1481 0.949 . S
C1486 C1492 1.368 . S
C1487 C1471 1.349 . S
C1487 H1479 0.950 . S
C1487 C1485 1.327 . S
C1488 C1476 1.349 . S
C1488 H1482 0.950 . S
C1488 C1489 1.327 . S
C1489 H1483 0.950 . S
C1489 C1488 1.327 . S
C1489 C1493 1.429 . S
C1490 C1473 1.574 . S
C1490 H1484 0.949 . S
C1490 C1494 1.368 . S
C1491 C1472 1.429 . S
C1491 C1485 1.429 . S
C1491 C1492 1.523 . S
C1492 C1473 1.368 . S
C1492 C1486 1.368 . S
C1492 C1491 1.523 . S
C1493 C1477 1.429 . S
C1493 C1489 1.429 . S
C1493 C1494 1.523 . S
C1494 C1478 1.368 . S
C1494 C1490 1.368 . S
C1494 C1493 1.523 . S
H1495 C1470 0.950 . S
H1496 C1472 0.950 . S
H1497 C1473 0.949 . S
H1498 C1475 0.950 . S
H1499 C1477 0.950 . S
C1500 C1501 1.349 . S
C1500 C1502 1.327 . S
C1500 H1525 0.950 . S
C1501 C1500 1.349 . S
C1501 C1517 1.349 . S
C1502 C1500 1.327 . S
C1502 C1521 1.429 . S
C1502 H1526 0.950 . S
C1503 C1520 1.574 . S
C1503 C1522 1.368 . S
C1503 H1527 0.949 . S
H1504 C1508 0.949 . S
C1505 C1506 1.349 . S
C1505 C1507 1.327 . S
C1505 H1528 0.950 . S
C1506 C1505 1.349 . S
C1506 C1518 1.349 . S
C1507 C1505 1.327 . S
C1507 C1523 1.429 . S
C1507 H1529 0.950 . S
C1508 H1504 0.949 . S
C1508 C1516 1.574 . S
C1508 C1524 1.368 . S
H1509 C1517 0.950 . S
H1510 C1515 0.950 . S
H1511 C1516 0.949 . S
H1512 C1518 0.950 . S
H1513 C1519 0.950 . S
H1514 C1520 0.949 . S
C1515 H1510 0.950 . S
C1515 C1517 1.327 . S
C1515 C1521 1.429 . S
C1516 C1508 1.574 . S
C1516 H1511 0.949 . S
C1516 C1522 1.368 . S
C1517 C1501 1.349 . S
C1517 H1509 0.950 . S
C1517 C1515 1.327 . S
C1518 C1506 1.349 . S
C1518 H1512 0.950 . S
C1518 C1519 1.327 . S
C1519 H1513 0.950 . S
C1519 C1518 1.327 . S
C1519 C1523 1.429 . S
C1520 C1503 1.574 . S
C1520 H1514 0.949 . S
C1520 C1524 1.368 . S
C1521 C1502 1.429 . S
C1521 C1515 1.429 . S
C1521 C1522 1.523 . S
C1522 C1503 1.368 . S
C1522 C1516 1.368 . S
C1522 C1521 1.523 . S
C1523 C1507 1.429 . S
C1523 C1519 1.429 . S
C1523 C1524 1.523 . S
C1524 C1508 1.368 . S
C1524 C1520 1.368 . S
C1524 C1523 1.523 . S
H1525 C1500 0.950 . S
H1526 C1502 0.950 . S
H1527 C1503 0.949 . S
H1528 C1505 0.950 . S
H1529 C1507 0.950 . S
C1530 C1531 1.349 . S
C1530 C1532 1.327 . S
C1530 H1555 0.950 . S
C1531 C1530 1.349 . S
C1531 C1547 1.349 1_545 S
C1532 C1530 1.327 . S
C1532 C1551 1.429 . S
C1532 H1556 0.950 . S
C1533 C1550 1.574 . S
C1533 C1552 1.368 1_565 S
C1533 H1557 0.949 . S
H1534 C1538 0.949 . S
C1535 C1536 1.349 . S
C1535 C1537 1.327 . S
C1535 H1558 0.950 . S
C1536 C1535 1.349 . S
C1536 C1548 1.349 1_565 S
C1537 C1535 1.327 . S
C1537 C1553 1.429 . S
C1537 H1559 0.950 . S
C1538 H1534 0.949 . S
C1538 C1546 1.574 . S
C1538 C1554 1.341 1_545 S
H1539 C1547 0.950 . S
H1540 C1545 0.950 . S
H1541 C1546 0.949 . S
H1542 C1548 0.950 . S
H1543 C1549 0.950 . S
H1544 C1550 0.949 . S
C1545 H1540 0.950 . S
C1545 C1547 1.327 . S
C1545 C1551 1.429 1_565 S
C1546 C1538 1.574 . S
C1546 H1541 0.949 . S
C1546 C1552 1.368 . S
C1547 C1531 1.349 1_565 S
C1547 H1539 0.950 . S
C1547 C1545 1.327 . S
C1548 C1536 1.349 1_545 S
C1548 H1542 0.950 . S
C1548 C1549 1.327 . S
C1549 H1543 0.950 . S
C1549 C1548 1.327 . S
C1549 C1553 1.429 1_545 S
C1550 C1533 1.574 . S
C1550 H1544 0.949 . S
C1550 C1554 1.395 . S
C1551 C1532 1.429 . S
C1551 C1545 1.429 1_545 S
C1551 C1552 1.523 . S
C1552 C1533 1.368 1_545 S
C1552 C1546 1.368 . S
C1552 C1551 1.523 . S
C1553 C1537 1.429 . S
C1553 C1549 1.429 1_565 S
C1553 C1554 1.525 . S
C1554 C1538 1.341 1_565 S
C1554 C1550 1.395 . S
C1554 C1553 1.525 . S
H1555 C1530 0.950 . S
H1556 C1532 0.950 . S
H1557 C1533 0.949 . S
H1558 C1535 0.950 . S
H1559 C1537 0.950 . S
C1560 C1561 1.349 . S
C1560 C1562 1.327 . S
C1560 H1585 0.950 . S
C1561 C1560 1.349 . S
C1561 C1577 1.349 . S
C1562 C1560 1.327 . S
C1562 C1581 1.429 . S
C1562 H1586 0.950 . S
C1563 C1580 1.574 . S
C1563 C1582 1.368 . S
C1563 H1587 0.949 . S
H1564 C1568 0.949 . S
C1565 C1566 1.349 . S
C1565 C1567 1.327 . S
C1565 H1588 0.950 . S
C1566 C1565 1.349 . S
C1566 C1578 1.349 . S
C1567 C1565 1.327 . S
C1567 C1583 1.429 . S
C1567 H1589 0.950 . S
C1568 H1564 0.949 . S
C1568 C1576 1.574 . S
C1568 C1584 1.368 . S
H1569 C1577 0.950 . S
H1570 C1575 0.950 . S
H1571 C1576 0.949 . S
H1572 C1578 0.950 . S
H1573 C1579 0.950 . S
H1574 C1580 0.949 . S
C1575 H1570 0.950 . S
C1575 C1577 1.327 . S
C1575 C1581 1.429 . S
C1576 C1568 1.574 . S
C1576 H1571 0.949 . S
C1576 C1582 1.368 . S
C1577 C1561 1.349 . S
C1577 H1569 0.950 . S
C1577 C1575 1.327 . S
C1578 C1566 1.349 . S
C1578 H1572 0.950 . S
C1578 C1579 1.327 . S
C1579 H1573 0.950 . S
C1579 C1578 1.327 . S
C1579 C1583 1.429 . S
C1580 C1563 1.574 . S
C1580 H1574 0.949 . S
C1580 C1584 1.368 . S
C1581 C1562 1.429 . S
C1581 C1575 1.429 . S
C1581 C1582 1.523 . S
C1582 C1563 1.368 . S
C1582 C1576 1.368 . S
C1582 C1581 1.523 . S
C1583 C1567 1.429 . S
C1583 C1579 1.429 . S
C1583 C1584 1.523 . S
C1584 C1568 1.368 . S
C1584 C1580 1.368 . S
C1584 C1583 1.523 . S
H1585 C1560 0.950 . S
H1586 C1562 0.950 . S
H1587 C1563 0.949 . S
H1588 C1565 0.950 . S
H1589 C1567 0.950 . S
C1590 C1591 1.349 . S
C1590 C1592 1.327 . S
C1590 H1615 0.950 . S
C1591 C1590 1.349 . S
C1591 C1607 1.349 1_545 S
C1592 C1590 1.327 . S
C1592 C1611 1.429 . S
C1592 H1616 0.950 . S
C1593 C1610 1.571 1_565 S
C1593 C1612 1.368 1_565 S
C1593 H1617 0.949 . S
H1594 C1598 0.949 1_554 S
C1595 C1596 1.349 . S
C1595 C1597 1.327 . S
C1595 H1618 0.950 1_545 S
C1596 C1595 1.349 . S
C1596 C1608 1.349 . S
C1597 C1595 1.327 . S
C1597 C1613 1.429 . S
C1597 H1619 0.950 1_545 S
C1598 H1594 0.949 1_556 S
C1598 C1606 1.574 . S
C1598 C1614 1.368 1_556 S
H1599 C1607 0.950 . S
H1600 C1605 0.950 . S
H1601 C1606 0.949 . S
H1602 C1608 0.950 . S
H1603 C1609 0.950 . S
H1604 C1610 0.935 1_564 S
C1605 H1600 0.950 . S
C1605 C1607 1.327 . S
C1605 C1611 1.429 1_565 S
C1606 C1598 1.574 . S
C1606 H1601 0.949 . S
C1606 C1612 1.368 . S
C1607 C1591 1.349 1_565 S
C1607 H1599 0.950 . S
C1607 C1605 1.327 . S
C1608 C1596 1.349 . S
C1608 H1602 0.950 . S
C1608 C1609 1.327 . S
C1609 H1603 0.950 . S
C1609 C1608 1.327 . S
C1609 C1613 1.429 . S
C1610 C1593 1.571 1_545 S
C1610 H1604 0.935 1_546 S
C1610 C1614 1.387 1_556 S
C1611 C1592 1.429 . S
C1611 C1605 1.429 1_545 S
C1611 C1612 1.523 . S
C1612 C1593 1.368 1_545 S
C1612 C1606 1.368 . S
C1612 C1611 1.523 . S
C1613 C1597 1.429 . S
C1613 C1609 1.429 . S
C1613 C1614 1.523 . S
C1614 C1598 1.368 1_554 S
C1614 C1610 1.387 1_554 S
C1614 C1613 1.523 . S
H1615 C1590 0.950 . S
H1616 C1592 0.950 . S
H1617 C1593 0.949 . S
H1618 C1595 0.950 1_565 S
H1619 C1597 0.950 1_565 S
C1620 C1621 1.306 1_565 S
C1620 C1622 1.328 . S
C1620 H1645 0.996 . S
C1621 C1620 1.306 1_545 S
C1621 C1637 1.349 . S
C1622 C1620 1.328 . S
C1622 C1641 1.429 1_565 S
C1622 H1646 0.950 . S
C1623 C1640 1.574 . S
C1623 C1642 1.368 . S
C1623 H1647 0.949 . S
H1624 C1628 0.949 . S
C1625 C1626 1.349 . S
C1625 C1627 1.327 . S
C1625 H1648 0.950 . S
C1626 C1625 1.349 . S
C1626 C1638 1.349 1_545 S
C1627 C1625 1.327 . S
C1627 C1643 1.429 . S
C1627 H1649 0.950 . S
C1628 H1624 0.949 . S
C1628 C1636 1.574 . S
C1628 C1644 1.368 1_565 S
H1629 C1637 0.950 . S
H1630 C1635 0.950 . S
H1631 C1636 0.949 . S
H1632 C1638 0.950 . S
H1633 C1639 0.950 . S
H1634 C1640 0.949 . S
C1635 H1630 0.950 . S
C1635 C1637 1.327 . S
C1635 C1641 1.429 . S
C1636 C1628 1.574 . S
C1636 H1631 0.949 . S
C1636 C1642 1.368 1_565 S
C1637 C1621 1.349 . S
C1637 H1629 0.950 . S
C1637 C1635 1.327 . S
C1638 C1626 1.349 1_565 S
C1638 H1632 0.950 . S
C1638 C1639 1.327 . S
C1639 H1633 0.950 . S
C1639 C1638 1.327 . S
C1639 C1643 1.429 1_565 S
C1640 C1623 1.574 . S
C1640 H1634 0.949 . S
C1640 C1644 1.368 . S
C1641 C1622 1.429 1_545 S
C1641 C1635 1.429 . S
C1641 C1642 1.523 . S
C1642 C1623 1.368 . S
C1642 C1636 1.368 1_545 S
C1642 C1641 1.523 . S
C1643 C1627 1.429 . S
C1643 C1639 1.429 1_545 S
C1643 C1644 1.523 . S
C1644 C1628 1.368 1_545 S
C1644 C1640 1.368 . S
C1644 C1643 1.523 . S
H1645 C1620 0.996 . S
H1646 C1622 0.950 . S
H1647 C1623 0.949 . S
H1648 C1625 0.950 . S
H1649 C1627 0.950 . S
C1650 C1651 1.349 . S
C1650 C1652 1.327 . S
C1650 H1675 0.950 . S
C1651 C1650 1.349 . S
C1651 C1667 1.349 1_554 S
C1652 C1650 1.327 . S
C1652 C1671 1.429 . S
C1652 H1676 0.950 . S
C1653 C1670 1.574 . S
C1653 C1672 1.347 1_556 S
C1653 H1677 0.949 . S
H1654 C1658 0.949 . S
C1655 C1656 1.349 . S
C1655 C1657 1.327 . S
C1655 H1678 0.950 . S
C1656 C1655 1.349 . S
C1656 C1668 1.349 1_556 S
C1657 C1655 1.327 . S
C1657 C1673 1.429 . S
C1657 H1679 0.950 . S
C1658 H1654 0.949 . S
C1658 C1666 1.574 . S
C1658 C1674 1.339 1_554 S
H1659 C1667 0.950 . S
H1660 C1665 0.950 . S
H1661 C1666 0.949 . S
H1662 C1668 0.950 . S
H1663 C1669 0.950 . S
H1664 C1670 0.949 . S
C1665 H1660 0.950 . S
C1665 C1667 1.327 . S
C1665 C1671 1.429 1_556 S
C1666 C1658 1.574 . S
C1666 H1661 0.949 . S
C1666 C1672 1.390 . S
C1667 C1651 1.349 1_556 S
C1667 H1659 0.950 . S
C1667 C1665 1.327 . S
C1668 C1656 1.349 1_554 S
C1668 H1662 0.950 . S
C1668 C1669 1.327 . S
C1669 H1663 0.950 . S
C1669 C1668 1.327 . S
C1669 C1673 1.429 1_554 S
C1670 C1653 1.574 . S
C1670 H1664 0.949 . S
C1670 C1674 1.399 . S
C1671 C1652 1.429 . S
C1671 C1665 1.429 1_554 S
C1671 C1672 1.523 . S
C1672 C1653 1.347 1_554 S
C1672 C1666 1.390 . S
C1672 C1671 1.523 . S
C1673 C1657 1.429 . S
C1673 C1669 1.429 1_556 S
C1673 C1674 1.523 . S
C1674 C1658 1.339 1_556 S
C1674 C1670 1.399 . S
C1674 C1673 1.523 . S
H1675 C1650 0.950 . S
H1676 C1652 0.950 . S
H1677 C1653 0.949 . S
H1678 C1655 0.950 . S
H1679 C1657 0.950 . S
C1680 C1681 1.349 . S
C1680 C1682 1.327 . S
C1680 H1705 0.950 . S
C1681 C1680 1.349 . S
C1681 C1697 1.349 . S
C1682 C1680 1.327 . S
C1682 C1701 1.429 . S
C1682 H1706 0.950 . S
C1683 C1700 1.574 1_655 S
C1683 C1702 1.368 . S
C1683 H1707 0.949 . S
H1684 C1688 0.949 . S
C1685 C1686 1.349 . S
C1685 C1687 1.327 . S
C1685 H1708 0.950 . S
C1686 C1685 1.349 . S
C1686 C1698 1.349 . S
C1687 C1685 1.327 . S
C1687 C1703 1.429 . S
C1687 H1709 0.950 . S
C1688 H1684 0.949 . S
C1688 C1696 1.574 1_455 S
C1688 C1704 1.368 . S
H1689 C1697 0.950 . S
H1690 C1695 0.950 . S
H1691 C1696 0.949 . S
H1692 C1698 0.950 . S
H1693 C1699 0.950 . S
H1694 C1700 0.949 . S
C1695 H1690 0.950 . S
C1695 C1697 1.327 . S
C1695 C1701 1.429 . S
C1696 C1688 1.574 1_655 S
C1696 H1691 0.949 . S
C1696 C1702 1.368 . S
C1697 C1681 1.349 . S
C1697 H1689 0.950 . S
C1697 C1695 1.327 . S
C1698 C1686 1.349 . S
C1698 H1692 0.950 . S
C1698 C1699 1.327 . S
C1699 H1693 0.950 . S
C1699 C1698 1.327 . S
C1699 C1703 1.429 . S
C1700 C1683 1.574 1_455 S
C1700 H1694 0.949 . S
C1700 C1704 1.368 . S
C1701 C1682 1.429 . S
C1701 C1695 1.429 . S
C1701 C1702 1.523 . S
C1702 C1683 1.368 . S
C1702 C1696 1.368 . S
C1702 C1701 1.523 . S
C1703 C1687 1.429 . S
C1703 C1699 1.429 . S
C1703 C1704 1.523 . S
C1704 C1688 1.368 . S
C1704 C1700 1.368 . S
C1704 C1703 1.523 . S
H1705 C1680 0.950 . S
H1706 C1682 0.950 . S
H1707 C1683 0.949 . S
H1708 C1685 0.950 . S
H1709 C1687 0.950 . S
C1710 C1711 1.349 . S
C1710 C1712 1.327 . S
C1710 H1735 0.950 . S
C1711 C1710 1.349 . S
C1711 C1727 1.349 . S
C1712 C1710 1.327 . S
C1712 C1731 1.429 . S
C1712 H1736 0.950 . S
C1713 C1730 1.574 . S
C1713 C1732 1.368 . S
C1713 H1737 0.949 1_455 S
H1714 C1718 0.949 . S
C1715 C1716 1.349 . S
C1715 C1717 1.327 . S
C1715 H1738 0.950 1_455 S
C1716 C1715 1.349 . S
C1716 C1728 1.349 . S
C1717 C1715 1.327 . S
C1717 C1733 1.429 . S
C1717 H1739 0.950 1_455 S
C1718 H1714 0.949 . S
C1718 C1726 1.574 . S
C1718 C1734 1.368 . S
H1719 C1727 0.970 . S
H1720 C1725 0.950 1_655 S
H1721 C1726 0.949 . S
H1722 C1728 0.950 . S
H1723 C1729 0.950 . S
H1724 C1730 0.949 1_655 S
C1725 H1720 0.950 1_455 S
C1725 C1727 1.327 . S
C1725 C1731 1.429 . S
C1726 C1718 1.574 . S
C1726 H1721 0.949 . S
C1726 C1732 1.368 . S
C1727 C1711 1.349 . S
C1727 H1719 0.970 . S
C1727 C1725 1.327 . S
C1728 C1716 1.349 . S
C1728 H1722 0.950 . S
C1728 C1729 1.327 . S
C1729 H1723 0.950 . S
C1729 C1728 1.327 . S
C1729 C1733 1.429 . S
C1730 C1713 1.574 . S
C1730 H1724 0.949 1_455 S
C1730 C1734 1.368 . S
C1731 C1712 1.429 . S
C1731 C1725 1.429 . S
C1731 C1732 1.523 . S
C1732 C1713 1.368 . S
C1732 C1726 1.368 . S
C1732 C1731 1.523 . S
C1733 C1717 1.429 . S
C1733 C1729 1.429 . S
C1733 C1734 1.523 . S
C1734 C1718 1.368 . S
C1734 C1730 1.368 . S
C1734 C1733 1.523 . S
H1735 C1710 0.950 . S
H1736 C1712 0.950 . S
H1737 C1713 0.949 1_655 S
H1738 C1715 0.950 1_655 S
H1739 C1717 0.950 1_655 S
C1740 C1741 1.349 . S
C1740 C1742 1.327 . S
C1740 H1765 0.950 . S
C1741 C1740 1.349 . S
C1741 C1757 1.349 . S
C1742 C1740 1.327 . S
C1742 C1761 1.429 . S
C1742 H1766 0.950 . S
C1743 C1760 1.574 . S
C1743 C1762 1.368 . S
C1743 H1767 0.949 . S
H1744 C1748 0.949 . S
C1745 C1746 1.349 . S
C1745 C1747 1.327 . S
C1745 H1768 0.950 . S
C1746 C1745 1.349 . S
C1746 C1758 1.349 . S
C1747 C1745 1.327 . S
C1747 C1763 1.429 . S
C1747 H1769 0.950 . S
C1748 H1744 0.949 . S
C1748 C1756 1.574 . S
C1748 C1764 1.368 . S
H1749 C1757 0.950 . S
H1750 C1755 0.950 . S
H1751 C1756 0.949 . S
H1752 C1758 0.950 . S
H1753 C1759 0.950 . S
H1754 C1760 0.949 . S
C1755 H1750 0.950 . S
C1755 C1757 1.327 . S
C1755 C1761 1.429 . S
C1756 C1748 1.574 . S
C1756 H1751 0.949 . S
C1756 C1762 1.368 . S
C1757 C1741 1.349 . S
C1757 H1749 0.950 . S
C1757 C1755 1.327 . S
C1758 C1746 1.349 . S
C1758 H1752 0.950 . S
C1758 C1759 1.327 . S
C1759 H1753 0.950 . S
C1759 C1758 1.327 . S
C1759 C1763 1.429 . S
C1760 C1743 1.574 . S
C1760 H1754 0.949 . S
C1760 C1764 1.368 . S
C1761 C1742 1.429 . S
C1761 C1755 1.429 . S
C1761 C1762 1.523 . S
C1762 C1743 1.368 . S
C1762 C1756 1.368 . S
C1762 C1761 1.523 . S
C1763 C1747 1.429 . S
C1763 C1759 1.429 . S
C1763 C1764 1.523 . S
C1764 C1748 1.368 . S
C1764 C1760 1.368 . S
C1764 C1763 1.523 . S
H1765 C1740 0.950 . S
H1766 C1742 0.950 . S
H1767 C1743 0.949 . S
H1768 C1745 0.950 . S
H1769 C1747 0.950 . S
C1770 C1771 1.349 . S
C1770 C1772 1.327 . S
C1770 H1795 0.950 . S
C1771 C1770 1.349 . S
C1771 C1787 1.349 . S
C1772 C1770 1.327 . S
C1772 C1791 1.429 . S
C1772 H1796 0.950 . S
C1773 C1790 1.574 1_655 S
C1773 C1792 1.368 . S
C1773 H1797 0.949 . S
H1774 C1778 0.949 . S
C1775 C1776 1.349 . S
C1775 C1777 1.327 . S
C1775 H1798 0.950 . S
C1776 C1775 1.349 . S
C1776 C1788 1.349 . S
C1777 C1775 1.327 . S
C1777 C1793 1.429 . S
C1777 H1799 0.950 . S
C1778 H1774 0.949 . S
C1778 C1786 1.574 1_455 S
C1778 C1794 1.368 . S
H1779 C1787 0.950 . S
H1780 C1785 0.950 . S
H1781 C1786 0.949 . S
H1782 C1788 0.950 . S
H1783 C1789 0.950 . S
H1784 C1790 0.949 . S
C1785 H1780 0.950 . S
C1785 C1787 1.327 . S
C1785 C1791 1.429 . S
C1786 C1778 1.574 1_655 S
C1786 H1781 0.949 . S
C1786 C1792 1.368 . S
C1787 C1771 1.349 . S
C1787 H1779 0.950 . S
C1787 C1785 1.327 . S
C1788 C1776 1.349 . S
C1788 H1782 0.950 . S
C1788 C1789 1.327 . S
C1789 H1783 0.950 . S
C1789 C1788 1.327 . S
C1789 C1793 1.429 . S
C1790 C1773 1.574 1_455 S
C1790 H1784 0.949 . S
C1790 C1794 1.368 . S
C1791 C1772 1.429 . S
C1791 C1785 1.429 . S
C1791 C1792 1.523 . S
C1792 C1773 1.368 . S
C1792 C1786 1.368 . S
C1792 C1791 1.523 . S
C1793 C1777 1.429 . S
C1793 C1789 1.429 . S
C1793 C1794 1.523 . S
C1794 C1778 1.368 . S
C1794 C1790 1.368 . S
C1794 C1793 1.523 . S
H1795 C1770 0.950 . S
H1796 C1772 0.950 . S
H1797 C1773 0.949 . S
H1798 C1775 0.950 . S
H1799 C1777 0.950 . S
C1800 C1801 1.349 . S
C1800 C1802 1.327 . S
C1800 H1825 0.950 . S
C1801 C1800 1.349 . S
C1801 C1817 1.349 . S
C1802 C1800 1.327 . S
C1802 C1821 1.429 . S
C1802 H1826 0.950 . S
C1803 C1820 1.578 . S
C1803 C1822 1.353 1_455 S
C1803 H1827 0.960 . S
H1804 C1808 0.949 . S
C1805 C1806 1.349 . S
C1805 C1807 1.327 . S
C1805 H1828 0.950 . S
C1806 C1805 1.349 . S
C1806 C1818 1.349 1_455 S
C1807 C1805 1.327 . S
C1807 C1823 1.429 1_455 S
C1807 H1829 0.950 . S
C1808 H1804 0.949 . S
C1808 C1816 1.574 . S
C1808 C1824 1.368 . S
H1809 C1817 0.950 . S
H1810 C1815 0.950 1_455 S
H1811 C1816 0.949 . S
H1812 C1818 0.950 . S
H1813 C1819 0.950 . S
H1814 C1820 0.949 . S
C1815 H1810 0.950 1_655 S
C1815 C1817 1.327 . S
C1815 C1821 1.429 . S
C1816 C1808 1.574 . S
C1816 H1811 0.949 . S
C1816 C1822 1.368 . S
C1817 C1801 1.349 . S
C1817 H1809 0.950 . S
C1817 C1815 1.327 . S
C1818 C1806 1.349 1_655 S
C1818 H1812 0.950 . S
C1818 C1819 1.327 . S
C1819 H1813 0.950 . S
C1819 C1818 1.327 . S
C1819 C1823 1.429 . S
C1820 C1803 1.578 . S
C1820 H1814 0.949 . S
C1820 C1824 1.368 1_455 S
C1821 C1802 1.429 . S
C1821 C1815 1.429 . S
C1821 C1822 1.523 . S
C1822 C1803 1.353 1_655 S
C1822 C1816 1.368 . S
C1822 C1821 1.523 . S
C1823 C1807 1.429 1_655 S
C1823 C1819 1.429 . S
C1823 C1824 1.523 . S
C1824 C1808 1.368 . S
C1824 C1820 1.368 1_655 S
C1824 C1823 1.523 . S
H1825 C1800 0.950 . S
H1826 C1802 0.950 . S
H1827 C1803 0.960 . S
H1828 C1805 0.950 . S
H1829 C1807 0.950 . S
C1830 C1831 1.349 . S
C1830 C1832 1.327 . S
C1830 H1855 0.950 . S
C1831 C1830 1.349 . S
C1831 C1847 1.349 . S
C1832 C1830 1.327 . S
C1832 C1851 1.429 . S
C1832 H1856 0.950 . S
C1833 C1850 1.574 . S
C1833 C1852 1.368 . S
C1833 H1857 0.949 . S
H1834 C1838 0.949 . S
C1835 C1836 1.349 . S
C1835 C1837 1.327 . S
C1835 H1858 0.950 . S
C1836 C1835 1.349 . S
C1836 C1848 1.349 . S
C1837 C1835 1.327 . S
C1837 C1853 1.429 . S
C1837 H1859 0.950 . S
C1838 H1834 0.949 . S
C1838 C1846 1.574 . S
C1838 C1854 1.368 . S
H1839 C1847 0.950 . S
H1840 C1845 0.950 . S
H1841 C1846 0.949 . S
H1842 C1848 0.950 . S
H1843 C1849 0.950 . S
H1844 C1850 0.949 . S
C1845 H1840 0.950 . S
C1845 C1847 1.327 . S
C1845 C1851 1.429 . S
C1846 C1838 1.574 . S
C1846 H1841 0.949 . S
C1846 C1852 1.368 . S
C1847 C1831 1.349 . S
C1847 H1839 0.950 . S
C1847 C1845 1.327 . S
C1848 C1836 1.349 . S
C1848 H1842 0.950 . S
C1848 C1849 1.327 . S
C1849 H1843 0.950 . S
C1849 C1848 1.327 . S
C1849 C1853 1.429 . S
C1850 C1833 1.574 . S
C1850 H1844 0.949 . S
C1850 C1854 1.368 . S
C1851 C1832 1.429 . S
C1851 C1845 1.429 . S
C1851 C1852 1.523 . S
C1852 C1833 1.368 . S
C1852 C1846 1.368 . S
C1852 C1851 1.523 . S
C1853 C1837 1.429 . S
C1853 C1849 1.429 . S
C1853 C1854 1.523 . S
C1854 C1838 1.368 . S
C1854 C1850 1.368 . S
C1854 C1853 1.523 . S
H1855 C1830 0.950 . S
H1856 C1832 0.950 . S
H1857 C1833 0.949 . S
H1858 C1835 0.950 . S
H1859 C1837 0.950 . S
C1860 C1861 1.349 . S
C1860 C1862 1.327 . S
C1860 H1885 0.950 . S
C1861 C1860 1.349 . S
C1861 C1877 1.349 . S
C1862 C1860 1.327 . S
C1862 C1881 1.429 . S
C1862 H1886 0.950 . S
C1863 C1880 1.574 . S
C1863 C1882 1.368 . S
C1863 H1887 0.949 . S
H1864 C1868 0.949 1_565 S
C1865 C1866 1.349 . S
C1865 C1867 1.327 . S
C1865 H1888 0.950 . S
C1866 C1865 1.349 . S
C1866 C1878 1.349 . S
C1867 C1865 1.327 . S
C1867 C1883 1.429 . S
C1867 H1889 0.950 . S
C1868 H1864 0.949 1_545 S
C1868 C1876 1.574 . S
C1868 C1884 1.368 1_545 S
H1869 C1877 0.950 . S
H1870 C1875 0.950 . S
H1871 C1876 0.949 . S
H1872 C1878 0.950 . S
H1873 C1879 0.950 . S
H1874 C1880 0.946 1_565 S
C1875 H1870 0.950 . S
C1875 C1877 1.327 . S
C1875 C1881 1.429 . S
C1876 C1868 1.574 . S
C1876 H1871 0.949 . S
C1876 C1882 1.368 . S
C1877 C1861 1.349 . S
C1877 H1869 0.950 . S
C1877 C1875 1.327 . S
C1878 C1866 1.349 . S
C1878 H1872 0.950 . S
C1878 C1879 1.327 . S
C1879 H1873 0.950 . S
C1879 C1878 1.327 . S
C1879 C1883 1.429 . S
C1880 C1863 1.574 . S
C1880 H1874 0.946 1_545 S
C1880 C1884 1.368 1_545 S
C1881 C1862 1.429 . S
C1881 C1875 1.429 . S
C1881 C1882 1.523 . S
C1882 C1863 1.368 . S
C1882 C1876 1.368 . S
C1882 C1881 1.523 . S
C1883 C1867 1.429 . S
C1883 C1879 1.429 . S
C1883 C1884 1.523 . S
C1884 C1868 1.368 1_565 S
C1884 C1880 1.368 1_565 S
C1884 C1883 1.523 . S
H1885 C1860 0.950 . S
H1886 C1862 0.950 . S
H1887 C1863 0.949 . S
H1888 C1865 0.950 . S
H1889 C1867 0.950 . S
C1890 C1891 1.349 . S
C1890 C1892 1.327 . S
C1890 H1915 0.950 . S
C1891 C1890 1.349 . S
C1891 C1907 1.349 . S
C1892 C1890 1.327 . S
C1892 C1911 1.429 . S
C1892 H1916 0.950 . S
C1893 C1910 1.574 . S
C1893 C1912 1.368 . S
C1893 H1917 0.949 . S
H1894 C1898 0.949 . S
C1895 C1896 1.349 . S
C1895 C1897 1.327 . S
C1895 H1918 0.950 . S
C1896 C1895 1.349 . S
C1896 C1908 1.349 . S
C1897 C1895 1.327 . S
C1897 C1913 1.429 . S
C1897 H1919 0.950 . S
C1898 H1894 0.949 . S
C1898 C1906 1.574 . S
C1898 C1914 1.368 . S
H1899 C1907 0.950 . S
H1900 C1905 0.950 . S
H1901 C1906 0.949 . S
H1902 C1908 0.925 1_554 S
H1903 C1909 0.950 . S
H1904 C1910 0.949 . S
C1905 H1900 0.950 . S
C1905 C1907 1.327 . S
C1905 C1911 1.429 . S
C1906 C1898 1.574 . S
C1906 H1901 0.949 . S
C1906 C1912 1.368 . S
C1907 C1891 1.349 . S
C1907 H1899 0.950 . S
C1907 C1905 1.327 . S
C1908 C1896 1.349 . S
C1908 H1902 0.925 1_556 S
C1908 C1909 1.327 . S
C1909 H1903 0.950 . S
C1909 C1908 1.327 . S
C1909 C1913 1.429 . S
C1910 C1893 1.574 . S
C1910 H1904 0.949 . S
C1910 C1914 1.368 . S
C1911 C1892 1.429 . S
C1911 C1905 1.429 . S
C1911 C1912 1.523 . S
C1912 C1893 1.368 . S
C1912 C1906 1.368 . S
C1912 C1911 1.523 . S
C1913 C1897 1.429 . S
C1913 C1909 1.429 . S
C1913 C1914 1.523 . S
C1914 C1898 1.368 . S
C1914 C1910 1.368 . S
C1914 C1913 1.523 . S
H1915 C1890 0.950 . S
H1916 C1892 0.950 . S
H1917 C1893 0.949 . S
H1918 C1895 0.950 . S
H1919 C1897 0.950 . S
C1920 C1921 1.349 1_455 S
C1920 C1922 1.327 . S
C1920 H1945 0.950 . S
C1921 C1920 1.349 1_655 S
C1921 C1937 1.349 . S
C1922 C1920 1.327 . S
C1922 C1941 1.429 1_455 S
C1922 H1946 0.950 . S
C1923 C1940 1.574 . S
C1923 C1942 1.368 . S
C1923 H1947 0.949 . S
H1924 C1928 0.972 . S
C1925 C1926 1.349 . S
C1925 C1927 1.327 . S
C1925 H1948 0.950 . S
C1926 C1925 1.349 . S
C1926 C1938 1.349 . S
C1927 C1925 1.327 . S
C1927 C1943 1.429 . S
C1927 H1949 0.950 . S
C1928 H1924 0.972 . S
C1928 C1936 1.580 . S
C1928 C1944 1.340 1_455 S
H1929 C1937 0.950 . S
H1930 C1935 0.950 . S
H1931 C1936 0.949 . S
H1932 C1938 0.950 1_455 S
H1933 C1939 0.950 1_455 S
H1934 C1940 0.949 . S
C1935 H1930 0.950 . S
C1935 C1937 1.327 . S
C1935 C1941 1.429 . S
C1936 C1928 1.580 . S
C1936 H1931 0.949 . S
C1936 C1942 1.368 1_455 S
C1937 C1921 1.349 . S
C1937 H1929 0.950 . S
C1937 C1935 1.327 . S
C1938 C1926 1.349 . S
C1938 H1932 0.950 1_655 S
C1938 C1939 1.327 . S
C1939 H1933 0.950 1_655 S
C1939 C1938 1.327 . S
C1939 C1943 1.429 . S
C1940 C1923 1.574 . S
C1940 H1934 0.949 . S
C1940 C1944 1.368 . S
C1941 C1922 1.429 1_655 S
C1941 C1935 1.429 . S
C1941 C1942 1.523 . S
C1942 C1923 1.368 . S
C1942 C1936 1.368 1_655 S
C1942 C1941 1.523 . S
C1943 C1927 1.429 . S
C1943 C1939 1.429 . S
C1943 C1944 1.523 1_565 S
C1944 C1928 1.340 1_655 S
C1944 C1940 1.368 . S
C1944 C1943 1.523 1_545 S
H1945 C1920 0.950 . S
H1946 C1922 0.950 . S
H1947 C1923 0.949 . S
H1948 C1925 0.950 . S
H1949 C1927 0.950 . S
C1950 C1951 1.349 . S
C1950 C1952 1.327 . S
C1950 H1975 0.950 . S
C1951 C1950 1.349 . S
C1951 C1967 1.349 . S
C1952 C1950 1.327 . S
C1952 C1971 1.429 . S
C1952 H1976 0.950 . S
C1953 C1970 1.574 . S
C1953 C1972 1.368 . S
C1953 H1977 0.949 . S
H1954 C1958 0.949 . S
C1955 C1956 1.349 . S
C1955 C1957 1.327 . S
C1955 H1978 0.950 . S
C1956 C1955 1.349 . S
C1956 C1968 1.349 . S
C1957 C1955 1.327 . S
C1957 C1973 1.429 . S
C1957 H1979 0.950 . S
C1958 H1954 0.949 . S
C1958 C1966 1.574 . S
C1958 C1974 1.368 . S
H1959 C1967 0.950 . S
H1960 C1965 0.950 . S
H1961 C1966 0.949 . S
H1962 C1968 0.950 . S
H1963 C1969 0.950 . S
H1964 C1970 0.949 . S
C1965 H1960 0.950 . S
C1965 C1967 1.327 . S
C1965 C1971 1.429 . S
C1966 C1958 1.574 . S
C1966 H1961 0.949 . S
C1966 C1972 1.368 . S
C1967 C1951 1.349 . S
C1967 H1959 0.950 . S
C1967 C1965 1.327 . S
C1968 C1956 1.349 . S
C1968 H1962 0.950 . S
C1968 C1969 1.327 . S
C1969 H1963 0.950 . S
C1969 C1968 1.327 . S
C1969 C1973 1.429 . S
C1970 C1953 1.574 . S
C1970 H1964 0.949 . S
C1970 C1974 1.368 . S
C1971 C1952 1.429 . S
C1971 C1965 1.429 . S
C1971 C1972 1.523 . S
C1972 C1953 1.368 . S
C1972 C1966 1.368 . S
C1972 C1971 1.523 . S
C1973 C1957 1.429 . S
C1973 C1969 1.429 . S
C1973 C1974 1.523 . S
C1974 C1958 1.368 . S
C1974 C1970 1.368 . S
C1974 C1973 1.523 . S
H1975 C1950 0.950 . S
H1976 C1952 0.950 . S
H1977 C1953 0.949 . S
H1978 C1955 0.950 . S
H1979 C1957 0.950 . S
C1980 C1981 1.349 . S
C1980 C1982 1.327 . S
C1980 H2005 0.950 . S
C1981 C1980 1.349 . S
C1981 C1997 1.349 . S
C1982 C1980 1.327 . S
C1982 C2001 1.429 . S
C1982 H2006 0.950 . S
C1983 C2000 1.574 . S
C1983 C2002 1.368 . S
C1983 H2007 0.949 . S
H1984 C1988 0.949 . S
C1985 C1986 1.349 . S
C1985 C1987 1.327 . S
C1985 H2008 0.950 . S
C1986 C1985 1.349 . S
C1986 C1998 1.349 . S
C1987 C1985 1.327 . S
C1987 C2003 1.429 . S
C1987 H2009 0.950 . S
C1988 H1984 0.949 . S
C1988 C1996 1.574 . S
C1988 C2004 1.368 . S
H1989 C1997 0.950 . S
H1990 C1995 0.950 . S
H1991 C1996 0.949 . S
H1992 C1998 0.950 . S
H1993 C1999 0.950 . S
H1994 C2000 0.949 . S
C1995 H1990 0.950 . S
C1995 C1997 1.327 . S
C1995 C2001 1.429 . S
C1996 C1988 1.574 . S
C1996 H1991 0.949 . S
C1996 C2002 1.368 . S
C1997 C1981 1.349 . S
C1997 H1989 0.950 . S
C1997 C1995 1.327 . S
C1998 C1986 1.349 . S
C1998 H1992 0.950 . S
C1998 C1999 1.327 . S
C1999 H1993 0.950 . S
C1999 C1998 1.327 . S
C1999 C2003 1.429 . S
C2000 C1983 1.574 . S
C2000 H1994 0.949 . S
C2000 C2004 1.368 . S
C2001 C1982 1.429 . S
C2001 C1995 1.429 . S
C2001 C2002 1.523 1_556 S
C2002 C1983 1.368 . S
C2002 C1996 1.368 . S
C2002 C2001 1.523 1_554 S
C2003 C1987 1.429 . S
C2003 C1999 1.429 . S
C2003 C2004 1.523 . S
C2004 C1988 1.368 . S
C2004 C2000 1.368 . S
C2004 C2003 1.523 . S
H2005 C1980 0.950 . S
H2006 C1982 0.950 . S
H2007 C1983 0.949 . S
H2008 C1985 0.950 . S
H2009 C1987 0.950 . S
C2010 C2011 1.349 . S
C2010 C2012 1.327 . S
C2010 H2035 0.950 . S
C2011 C2010 1.349 . S
C2011 C2027 1.349 . S
C2012 C2010 1.327 . S
C2012 C2031 1.429 . S
C2012 H2036 0.950 . S
C2013 C2030 1.574 . S
C2013 C2032 1.368 . S
C2013 H2037 0.949 . S
H2014 C2018 0.949 . S
C2015 C2016 1.349 . S
C2015 C2017 1.327 . S
C2015 H2038 0.950 . S
C2016 C2015 1.349 . S
C2016 C2028 1.349 . S
C2017 C2015 1.327 . S
C2017 C2033 1.429 . S
C2017 H2039 0.950 . S
C2018 H2014 0.949 . S
C2018 C2026 1.574 . S
C2018 C2034 1.368 . S
H2019 C2027 0.950 . S
H2020 C2025 0.950 . S
H2021 C2026 0.949 . S
H2022 C2028 0.950 . S
H2023 C2029 0.950 . S
H2024 C2030 0.949 . S
C2025 H2020 0.950 . S
C2025 C2027 1.327 . S
C2025 C2031 1.429 . S
C2026 C2018 1.574 . S
C2026 H2021 0.949 . S
C2026 C2032 1.368 . S
C2027 C2011 1.349 . S
C2027 H2019 0.950 . S
C2027 C2025 1.327 . S
C2028 C2016 1.349 . S
C2028 H2022 0.950 . S
C2028 C2029 1.327 . S
C2029 H2023 0.950 . S
C2029 C2028 1.327 . S
C2029 C2033 1.429 . S
C2030 C2013 1.574 . S
C2030 H2024 0.949 . S
C2030 C2034 1.368 . S
C2031 C2012 1.429 . S
C2031 C2025 1.429 . S
C2031 C2032 1.523 . S
C2032 C2013 1.368 . S
C2032 C2026 1.368 . S
C2032 C2031 1.523 . S
C2033 C2017 1.429 . S
C2033 C2029 1.429 . S
C2033 C2034 1.523 . S
C2034 C2018 1.368 . S
C2034 C2030 1.368 . S
C2034 C2033 1.523 . S
H2035 C2010 0.950 . S
H2036 C2012 0.950 . S
H2037 C2013 0.949 . S
H2038 C2015 0.950 . S
H2039 C2017 0.950 . S
C2040 C2041 1.349 . S
C2040 C2042 1.327 . S
C2040 H2065 0.950 . S
C2041 C2040 1.349 . S
C2041 C2057 1.349 . S
C2042 C2040 1.327 . S
C2042 C2061 1.429 . S
C2042 H2066 0.950 . S
C2043 C2060 1.574 . S
C2043 C2062 1.368 . S
C2043 H2067 0.949 . S
H2044 C2048 0.949 . S
C2045 C2046 1.349 . S
C2045 C2047 1.327 . S
C2045 H2068 0.950 . S
C2046 C2045 1.349 . S
C2046 C2058 1.349 . S
C2047 C2045 1.327 . S
C2047 C2063 1.429 . S
C2047 H2069 0.950 . S
C2048 H2044 0.949 . S
C2048 C2056 1.574 . S
C2048 C2064 1.368 . S
H2049 C2057 0.950 . S
H2050 C2055 0.950 . S
H2051 C2056 0.949 . S
H2052 C2058 0.950 . S
H2053 C2059 0.950 . S
H2054 C2060 0.949 . S
C2055 H2050 0.950 . S
C2055 C2057 1.327 . S
C2055 C2061 1.429 . S
C2056 C2048 1.574 . S
C2056 H2051 0.949 . S
C2056 C2062 1.368 . S
C2057 C2041 1.349 . S
C2057 H2049 0.950 . S
C2057 C2055 1.327 . S
C2058 C2046 1.349 . S
C2058 H2052 0.950 . S
C2058 C2059 1.327 . S
C2059 H2053 0.950 . S
C2059 C2058 1.327 . S
C2059 C2063 1.429 . S
C2060 C2043 1.574 . S
C2060 H2054 0.949 . S
C2060 C2064 1.368 . S
C2061 C2042 1.429 . S
C2061 C2055 1.429 . S
C2061 C2062 1.523 . S
C2062 C2043 1.368 . S
C2062 C2056 1.368 . S
C2062 C2061 1.523 . S
C2063 C2047 1.429 . S
C2063 C2059 1.429 . S
C2063 C2064 1.523 . S
C2064 C2048 1.368 . S
C2064 C2060 1.368 . S
C2064 C2063 1.523 . S
H2065 C2040 0.950 . S
H2066 C2042 0.950 . S
H2067 C2043 0.949 . S
H2068 C2045 0.950 . S
H2069 C2047 0.950 . S
C2070 C2071 1.349 . S
C2070 C2072 1.327 . S
C2070 H2095 0.950 . S
C2071 C2070 1.349 . S
C2071 C2087 1.349 . S
C2072 C2070 1.327 . S
C2072 C2091 1.429 . S
C2072 H2096 0.950 . S
C2073 C2090 1.574 . S
C2073 C2092 1.368 . S
C2073 H2097 0.949 . S
H2074 C2078 0.949 . S
C2075 C2076 1.349 . S
C2075 C2077 1.327 . S
C2075 H2098 0.950 . S
C2076 C2075 1.349 . S
C2076 C2088 1.349 . S
C2077 C2075 1.327 . S
C2077 C2093 1.429 . S
C2077 H2099 0.950 . S
C2078 H2074 0.949 . S
C2078 C2086 1.574 . S
C2078 C2094 1.368 . S
H2079 C2087 0.950 . S
H2080 C2085 0.950 . S
H2081 C2086 0.949 . S
H2082 C2088 0.950 . S
H2083 C2089 0.950 . S
H2084 C2090 0.949 . S
C2085 H2080 0.950 . S
C2085 C2087 1.327 . S
C2085 C2091 1.429 . S
C2086 C2078 1.574 . S
C2086 H2081 0.949 . S
C2086 C2092 1.368 . S
C2087 C2071 1.349 . S
C2087 H2079 0.950 . S
C2087 C2085 1.327 . S
C2088 C2076 1.349 . S
C2088 H2082 0.950 . S
C2088 C2089 1.327 . S
C2089 H2083 0.950 . S
C2089 C2088 1.327 . S
C2089 C2093 1.429 . S
C2090 C2073 1.574 . S
C2090 H2084 0.949 . S
C2090 C2094 1.368 . S
C2091 C2072 1.429 . S
C2091 C2085 1.429 . S
C2091 C2092 1.523 . S
C2092 C2073 1.368 . S
C2092 C2086 1.368 . S
C2092 C2091 1.523 . S
C2093 C2077 1.429 . S
C2093 C2089 1.429 . S
C2093 C2094 1.523 . S
C2094 C2078 1.368 . S
C2094 C2090 1.368 . S
C2094 C2093 1.523 . S
H2095 C2070 0.950 . S
H2096 C2072 0.950 . S
H2097 C2073 0.949 . S
H2098 C2075 0.950 . S
H2099 C2077 0.950 . S
C2100 C2101 1.349 . S
C2100 C2102 1.327 . S
C2100 H2125 0.950 . S
C2101 C2100 1.349 . S
C2101 C2117 1.349 . S
C2102 C2100 1.327 . S
C2102 C2121 1.429 . S
C2102 H2126 0.950 . S
C2103 C2120 1.574 . S
C2103 C2122 1.368 . S
C2103 H2127 0.949 . S
H2104 C2108 0.949 . S
C2105 C2106 1.349 . S
C2105 C2107 1.327 . S
C2105 H2128 0.950 . S
C2106 C2105 1.349 . S
C2106 C2118 1.349 . S
C2107 C2105 1.327 . S
C2107 C2123 1.429 . S
C2107 H2129 0.950 . S
C2108 H2104 0.949 . S
C2108 C2116 1.574 . S
C2108 C2124 1.368 . S
H2109 C2117 0.950 . S
H2110 C2115 0.950 . S
H2111 C2116 0.949 . S
H2112 C2118 0.950 . S
H2113 C2119 0.950 . S
H2114 C2120 0.949 . S
C2115 H2110 0.950 . S
C2115 C2117 1.327 . S
C2115 C2121 1.429 . S
C2116 C2108 1.574 . S
C2116 H2111 0.949 . S
C2116 C2122 1.368 . S
C2117 C2101 1.349 . S
C2117 H2109 0.950 . S
C2117 C2115 1.327 . S
C2118 C2106 1.349 . S
C2118 H2112 0.950 . S
C2118 C2119 1.327 . S
C2119 H2113 0.950 . S
C2119 C2118 1.327 . S
C2119 C2123 1.429 . S
C2120 C2103 1.574 . S
C2120 H2114 0.949 . S
C2120 C2124 1.368 . S
C2121 C2102 1.429 . S
C2121 C2115 1.429 . S
C2121 C2122 1.523 . S
C2122 C2103 1.368 . S
C2122 C2116 1.368 . S
C2122 C2121 1.523 . S
C2123 C2107 1.429 . S
C2123 C2119 1.429 . S
C2123 C2124 1.523 . S
C2124 C2108 1.368 . S
C2124 C2120 1.368 . S
C2124 C2123 1.523 . S
H2125 C2100 0.950 . S
H2126 C2102 0.950 . S
H2127 C2103 0.949 . S
H2128 C2105 0.950 . S
H2129 C2107 0.950 . S
C2130 C2131 1.349 . S
C2130 C2132 1.327 . S
C2130 H2155 0.950 . S
C2131 C2130 1.349 . S
C2131 C2147 1.349 . S
C2132 C2130 1.327 . S
C2132 C2151 1.429 . S
C2132 H2156 0.950 . S
C2133 C2150 1.574 . S
C2133 C2152 1.368 . S
C2133 H2157 0.949 . S
H2134 C2138 0.949 1_545 S
C2135 C2136 1.349 . S
C2135 C2137 1.327 . S
C2135 H2158 0.950 . S
C2136 C2135 1.349 . S
C2136 C2148 1.349 . S
C2137 C2135 1.327 . S
C2137 C2153 1.429 . S
C2137 H2159 0.950 . S
C2138 H2134 0.949 1_565 S
C2138 C2146 1.574 . S
C2138 C2154 1.368 1_565 S
H2139 C2147 0.950 . S
H2140 C2145 0.950 . S
H2141 C2146 0.949 . S
H2142 C2148 0.950 . S
H2143 C2149 0.950 . S
H2144 C2150 0.922 1_545 S
C2145 H2140 0.950 . S
C2145 C2147 1.327 . S
C2145 C2151 1.429 . S
C2146 C2138 1.574 . S
C2146 H2141 0.949 . S
C2146 C2152 1.368 . S
C2147 C2131 1.349 . S
C2147 H2139 0.950 . S
C2147 C2145 1.327 . S
C2148 C2136 1.349 . S
C2148 H2142 0.950 . S
C2148 C2149 1.327 . S
C2149 H2143 0.950 . S
C2149 C2148 1.327 . S
C2149 C2153 1.429 . S
C2150 C2133 1.574 . S
C2150 H2144 0.922 1_565 S
C2150 C2154 1.368 1_565 S
C2151 C2132 1.429 . S
C2151 C2145 1.429 . S
C2151 C2152 1.523 . S
C2152 C2133 1.368 . S
C2152 C2146 1.368 . S
C2152 C2151 1.523 . S
C2153 C2137 1.429 . S
C2153 C2149 1.429 . S
C2153 C2154 1.523 . S
C2154 C2138 1.368 1_545 S
C2154 C2150 1.368 1_545 S
C2154 C2153 1.523 . S
H2155 C2130 0.950 . S
H2156 C2132 0.950 . S
H2157 C2133 0.949 . S
H2158 C2135 0.950 . S
H2159 C2137 0.950 . S
C2160 C2161 1.349 . S
C2160 C2162 1.327 . S
C2160 H2185 0.950 . S
C2161 C2160 1.349 . S
C2161 C2177 1.349 . S
C2162 C2160 1.327 . S
C2162 C2181 1.429 . S
C2162 H2186 0.950 . S
C2163 C2180 1.574 . S
C2163 C2182 1.368 . S
C2163 H2187 0.949 . S
H2164 C2168 0.949 . S
C2165 C2166 1.349 . S
C2165 C2167 1.327 . S
C2165 H2188 0.920 1_554 S
C2166 C2165 1.349 . S
C2166 C2178 1.349 . S
C2167 C2165 1.327 . S
C2167 C2183 1.429 . S
C2167 H2189 0.950 . S
C2168 H2164 0.949 . S
C2168 C2176 1.574 . S
C2168 C2184 1.368 . S
H2169 C2177 0.950 . S
H2170 C2175 0.950 . S
H2171 C2176 0.949 . S
H2172 C2178 0.950 . S
H2173 C2179 0.950 . S
H2174 C2180 0.949 . S
C2175 H2170 0.950 . S
C2175 C2177 1.327 . S
C2175 C2181 1.429 . S
C2176 C2168 1.574 . S
C2176 H2171 0.949 . S
C2176 C2182 1.368 . S
C2177 C2161 1.349 . S
C2177 H2169 0.950 . S
C2177 C2175 1.327 . S
C2178 C2166 1.349 . S
C2178 H2172 0.950 . S
C2178 C2179 1.327 . S
C2179 H2173 0.950 . S
C2179 C2178 1.327 . S
C2179 C2183 1.429 . S
C2180 C2163 1.574 . S
C2180 H2174 0.949 . S
C2180 C2184 1.368 . S
C2181 C2162 1.429 . S
C2181 C2175 1.429 . S
C2181 C2182 1.523 . S
C2182 C2163 1.368 . S
C2182 C2176 1.368 . S
C2182 C2181 1.523 . S
C2183 C2167 1.429 . S
C2183 C2179 1.429 . S
C2183 C2184 1.523 . S
C2184 C2168 1.368 . S
C2184 C2180 1.368 . S
C2184 C2183 1.523 . S
H2185 C2160 0.950 . S
H2186 C2162 0.950 . S
H2187 C2163 0.949 . S
H2188 C2165 0.920 1_556 S
H2189 C2167 0.950 . S
C2190 C2191 1.349 . S
C2190 C2192 1.327 . S
C2190 H2215 0.950 1_455 S
C2191 C2190 1.349 . S
C2191 C2207 1.349 . S
C2192 C2190 1.327 . S
C2192 C2211 1.429 . S
C2192 H2216 0.950 1_455 S
C2193 C2210 1.574 . S
C2193 C2212 1.368 . S
C2193 H2217 0.949 . S
H2194 C2198 0.949 . S
C2195 C2196 1.349 . S
C2195 C2197 1.327 . S
C2195 H2218 0.950 . S
C2196 C2195 1.349 . S
C2196 C2208 1.349 1_455 S
C2197 C2195 1.327 . S
C2197 C2213 1.429 . S
C2197 H2219 0.950 . S
C2198 H2194 0.949 . S
C2198 C2206 1.578 . S
C2198 C2214 1.368 1_655 S
H2199 C2207 0.950 . S
H2200 C2205 0.950 . S
H2201 C2206 0.965 . S
H2202 C2208 0.950 . S
H2203 C2209 0.950 . S
H2204 C2210 0.949 . S
C2205 H2200 0.950 . S
C2205 C2207 1.327 . S
C2205 C2211 1.429 . S
C2206 C2198 1.578 . S
C2206 H2201 0.965 . S
C2206 C2212 1.348 1_655 S
C2207 C2191 1.349 . S
C2207 H2199 0.950 . S
C2207 C2205 1.327 . S
C2208 C2196 1.349 1_655 S
C2208 H2202 0.950 . S
C2208 C2209 1.327 . S
C2209 H2203 0.950 . S
C2209 C2208 1.327 . S
C2209 C2213 1.429 1_655 S
C2210 C2193 1.574 . S
C2210 H2204 0.949 . S
C2210 C2214 1.368 . S
C2211 C2192 1.429 . S
C2211 C2205 1.429 . S
C2211 C2212 1.523 1_545 S
C2212 C2193 1.368 . S
C2212 C2206 1.348 1_455 S
C2212 C2211 1.523 1_565 S
C2213 C2197 1.429 . S
C2213 C2209 1.429 1_455 S
C2213 C2214 1.523 . S
C2214 C2198 1.368 1_455 S
C2214 C2210 1.368 . S
C2214 C2213 1.523 . S
H2215 C2190 0.950 1_655 S
H2216 C2192 0.950 1_655 S
H2217 C2193 0.949 . S
H2218 C2195 0.950 . S
H2219 C2197 0.950 . S
C2220 C2221 1.349 . S
C2220 C2222 1.327 . S
C2220 H2245 0.950 . S
C2221 C2220 1.349 . S
C2221 C2237 1.349 . S
C2222 C2220 1.327 . S
C2222 C2241 1.429 . S
C2222 H2246 0.950 . S
C2223 C2240 1.574 . S
C2223 C2242 1.368 . S
C2223 H2247 0.949 . S
H2224 C2228 0.949 . S
C2225 C2226 1.349 . S
C2225 C2227 1.327 . S
C2225 H2248 0.950 . S
C2226 C2225 1.349 . S
C2226 C2238 1.349 . S
C2227 C2225 1.327 . S
C2227 C2243 1.429 . S
C2227 H2249 0.950 . S
C2228 H2224 0.949 . S
C2228 C2236 1.574 . S
C2228 C2244 1.368 . S
H2229 C2237 0.950 . S
H2230 C2235 0.950 . S
H2231 C2236 0.949 . S
H2232 C2238 0.950 . S
H2233 C2239 0.950 . S
H2234 C2240 0.949 . S
C2235 H2230 0.950 . S
C2235 C2237 1.327 . S
C2235 C2241 1.429 . S
C2236 C2228 1.574 . S
C2236 H2231 0.949 . S
C2236 C2242 1.368 . S
C2237 C2221 1.349 . S
C2237 H2229 0.950 . S
C2237 C2235 1.327 . S
C2238 C2226 1.349 . S
C2238 H2232 0.950 . S
C2238 C2239 1.327 . S
C2239 H2233 0.950 . S
C2239 C2238 1.327 . S
C2239 C2243 1.429 . S
C2240 C2223 1.574 . S
C2240 H2234 0.949 . S
C2240 C2244 1.368 . S
C2241 C2222 1.429 . S
C2241 C2235 1.429 . S
C2241 C2242 1.523 . S
C2242 C2223 1.368 . S
C2242 C2236 1.368 . S
C2242 C2241 1.523 . S
C2243 C2227 1.429 . S
C2243 C2239 1.429 . S
C2243 C2244 1.523 . S
C2244 C2228 1.368 . S
C2244 C2240 1.368 . S
C2244 C2243 1.523 . S
H2245 C2220 0.950 . S
H2246 C2222 0.950 . S
H2247 C2223 0.949 . S
H2248 C2225 0.950 . S
H2249 C2227 0.950 . S
C2250 C2251 1.349 . S
C2250 C2252 1.327 . S
C2250 H2275 0.950 . S
C2251 C2250 1.349 . S
C2251 C2267 1.349 . S
C2252 C2250 1.327 . S
C2252 C2271 1.429 . S
C2252 H2276 0.950 . S
C2253 C2270 1.574 . S
C2253 C2272 1.368 . S
C2253 H2277 0.979 . S
H2254 C2258 0.949 . S
C2255 C2256 1.349 . S
C2255 C2257 1.327 . S
C2255 H2278 0.950 . S
C2256 C2255 1.349 . S
C2256 C2268 1.349 . S
C2257 C2255 1.327 . S
C2257 C2273 1.429 . S
C2257 H2279 0.950 . S
C2258 H2254 0.949 . S
C2258 C2266 1.574 . S
C2258 C2274 1.368 . S
H2259 C2267 0.950 . S
H2260 C2265 0.950 . S
H2261 C2266 0.949 . S
H2262 C2268 0.950 . S
H2263 C2269 0.950 . S
H2264 C2270 0.949 . S
C2265 H2260 0.950 . S
C2265 C2267 1.327 . S
C2265 C2271 1.429 . S
C2266 C2258 1.574 . S
C2266 H2261 0.949 . S
C2266 C2272 1.368 . S
C2267 C2251 1.349 . S
C2267 H2259 0.950 . S
C2267 C2265 1.327 . S
C2268 C2256 1.349 . S
C2268 H2262 0.950 . S
C2268 C2269 1.327 . S
C2269 H2263 0.950 . S
C2269 C2268 1.327 . S
C2269 C2273 1.429 . S
C2270 C2253 1.574 . S
C2270 H2264 0.949 . S
C2270 C2274 1.368 . S
C2271 C2252 1.429 . S
C2271 C2265 1.429 . S
C2271 C2272 1.523 1_554 S
C2272 C2253 1.368 . S
C2272 C2266 1.368 . S
C2272 C2271 1.523 1_556 S
C2273 C2257 1.429 . S
C2273 C2269 1.429 . S
C2273 C2274 1.523 . S
C2274 C2258 1.368 . S
C2274 C2270 1.368 . S
C2274 C2273 1.523 . S
H2275 C2250 0.950 . S
H2276 C2252 0.950 . S
H2277 C2253 0.979 . S
H2278 C2255 0.950 . S
H2279 C2257 0.950 . S
C2280 C2281 1.349 . S
C2280 C2282 1.327 . S
C2280 H2305 0.950 . S
C2281 C2280 1.349 . S
C2281 C2297 1.349 . S
C2282 C2280 1.327 . S
C2282 C2301 1.429 . S
C2282 H2306 0.950 . S
C2283 C2300 1.574 . S
C2283 C2302 1.368 . S
C2283 H2307 0.949 . S
H2284 C2288 0.949 . S
C2285 C2286 1.349 . S
C2285 C2287 1.327 . S
C2285 H2308 0.950 . S
C2286 C2285 1.349 . S
C2286 C2298 1.349 . S
C2287 C2285 1.327 . S
C2287 C2303 1.429 . S
C2287 H2309 0.950 . S
C2288 H2284 0.949 . S
C2288 C2296 1.574 . S
C2288 C2304 1.368 . S
H2289 C2297 0.950 . S
H2290 C2295 0.950 . S
H2291 C2296 0.949 . S
H2292 C2298 0.950 . S
H2293 C2299 0.950 . S
H2294 C2300 0.949 . S
C2295 H2290 0.950 . S
C2295 C2297 1.327 . S
C2295 C2301 1.429 . S
C2296 C2288 1.574 . S
C2296 H2291 0.949 . S
C2296 C2302 1.368 . S
C2297 C2281 1.349 . S
C2297 H2289 0.950 . S
C2297 C2295 1.327 . S
C2298 C2286 1.349 . S
C2298 H2292 0.950 . S
C2298 C2299 1.327 . S
C2299 H2293 0.950 . S
C2299 C2298 1.327 . S
C2299 C2303 1.429 . S
C2300 C2283 1.574 . S
C2300 H2294 0.949 . S
C2300 C2304 1.368 . S
C2301 C2282 1.429 . S
C2301 C2295 1.429 . S
C2301 C2302 1.523 . S
C2302 C2283 1.368 . S
C2302 C2296 1.368 . S
C2302 C2301 1.523 . S
C2303 C2287 1.429 . S
C2303 C2299 1.429 . S
C2303 C2304 1.523 . S
C2304 C2288 1.368 . S
C2304 C2300 1.368 . S
C2304 C2303 1.523 . S
H2305 C2280 0.950 . S
H2306 C2282 0.950 . S
H2307 C2283 0.949 . S
H2308 C2285 0.950 . S
H2309 C2287 0.950 . S
C2310 C2311 1.349 . S
C2310 C2312 1.327 . S
C2310 H2335 0.950 . S
C2311 C2310 1.349 . S
C2311 C2327 1.349 . S
C2312 C2310 1.327 . S
C2312 C2331 1.429 . S
C2312 H2336 0.950 . S
C2313 C2330 1.574 . S
C2313 C2332 1.368 . S
C2313 H2337 0.949 . S
H2314 C2318 0.949 . S
C2315 C2316 1.349 . S
C2315 C2317 1.327 . S
C2315 H2338 0.950 . S
C2316 C2315 1.349 . S
C2316 C2328 1.349 . S
C2317 C2315 1.327 . S
C2317 C2333 1.429 . S
C2317 H2339 0.950 . S
C2318 H2314 0.949 . S
C2318 C2326 1.574 . S
C2318 C2334 1.368 . S
H2319 C2327 0.950 . S
H2320 C2325 0.950 . S
H2321 C2326 0.949 . S
H2322 C2328 0.950 . S
H2323 C2329 0.950 . S
H2324 C2330 0.949 . S
C2325 H2320 0.950 . S
C2325 C2327 1.327 . S
C2325 C2331 1.429 . S
C2326 C2318 1.574 . S
C2326 H2321 0.949 . S
C2326 C2332 1.368 . S
C2327 C2311 1.349 . S
C2327 H2319 0.950 . S
C2327 C2325 1.327 . S
C2328 C2316 1.349 . S
C2328 H2322 0.950 . S
C2328 C2329 1.327 . S
C2329 H2323 0.950 . S
C2329 C2328 1.327 . S
C2329 C2333 1.429 . S
C2330 C2313 1.574 . S
C2330 H2324 0.949 . S
C2330 C2334 1.368 . S
C2331 C2312 1.429 . S
C2331 C2325 1.429 . S
C2331 C2332 1.523 . S
C2332 C2313 1.368 . S
C2332 C2326 1.368 . S
C2332 C2331 1.523 . S
C2333 C2317 1.429 . S
C2333 C2329 1.429 . S
C2333 C2334 1.523 . S
C2334 C2318 1.368 . S
C2334 C2330 1.368 . S
C2334 C2333 1.523 . S
H2335 C2310 0.950 . S
H2336 C2312 0.950 . S
H2337 C2313 0.949 . S
H2338 C2315 0.950 . S
H2339 C2317 0.950 . S
C2340 C2341 1.349 . S
C2340 C2342 1.327 . S
C2340 H2365 0.950 . S
C2341 C2340 1.349 . S
C2341 C2357 1.349 . S
C2342 C2340 1.327 . S
C2342 C2361 1.429 . S
C2342 H2366 0.950 . S
C2343 C2360 1.574 . S
C2343 C2362 1.368 . S
C2343 H2367 0.949 . S
H2344 C2348 0.949 . S
C2345 C2346 1.349 . S
C2345 C2347 1.327 . S
C2345 H2368 0.950 . S
C2346 C2345 1.349 . S
C2346 C2358 1.349 . S
C2347 C2345 1.327 . S
C2347 C2363 1.429 . S
C2347 H2369 0.950 . S
C2348 H2344 0.949 . S
C2348 C2356 1.574 . S
C2348 C2364 1.368 . S
H2349 C2357 0.950 . S
H2350 C2355 0.950 . S
H2351 C2356 0.949 . S
H2352 C2358 0.950 . S
H2353 C2359 0.950 . S
H2354 C2360 0.949 . S
C2355 H2350 0.950 . S
C2355 C2357 1.327 . S
C2355 C2361 1.429 . S
C2356 C2348 1.574 . S
C2356 H2351 0.949 . S
C2356 C2362 1.368 . S
C2357 C2341 1.349 . S
C2357 H2349 0.950 . S
C2357 C2355 1.327 . S
C2358 C2346 1.349 . S
C2358 H2352 0.950 . S
C2358 C2359 1.327 . S
C2359 H2353 0.950 . S
C2359 C2358 1.327 . S
C2359 C2363 1.429 . S
C2360 C2343 1.574 . S
C2360 H2354 0.949 . S
C2360 C2364 1.368 . S
C2361 C2342 1.429 . S
C2361 C2355 1.429 . S
C2361 C2362 1.523 . S
C2362 C2343 1.368 . S
C2362 C2356 1.368 . S
C2362 C2361 1.523 . S
C2363 C2347 1.429 . S
C2363 C2359 1.429 . S
C2363 C2364 1.523 . S
C2364 C2348 1.368 . S
C2364 C2360 1.368 . S
C2364 C2363 1.523 . S
H2365 C2340 0.950 . S
H2366 C2342 0.950 . S
H2367 C2343 0.949 . S
H2368 C2345 0.950 . S
H2369 C2347 0.950 . S
C2370 C2371 1.349 . S
C2370 C2372 1.327 . S
C2370 H2395 0.950 . S
C2371 C2370 1.349 . S
C2371 C2387 1.349 . S
C2372 C2370 1.327 . S
C2372 C2391 1.429 . S
C2372 H2396 0.950 . S
C2373 C2390 1.574 . S
C2373 C2392 1.368 . S
C2373 H2397 0.949 . S
H2374 C2378 0.949 . S
C2375 C2376 1.349 . S
C2375 C2377 1.327 . S
C2375 H2398 0.950 . S
C2376 C2375 1.349 . S
C2376 C2388 1.349 . S
C2377 C2375 1.327 . S
C2377 C2393 1.429 . S
C2377 H2399 0.950 . S
C2378 H2374 0.949 . S
C2378 C2386 1.574 . S
C2378 C2394 1.368 . S
H2379 C2387 0.950 . S
H2380 C2385 0.950 . S
H2381 C2386 0.949 . S
H2382 C2388 0.950 . S
H2383 C2389 0.950 . S
H2384 C2390 0.949 . S
C2385 H2380 0.950 . S
C2385 C2387 1.327 . S
C2385 C2391 1.429 . S
C2386 C2378 1.574 . S
C2386 H2381 0.949 . S
C2386 C2392 1.368 . S
C2387 C2371 1.349 . S
C2387 H2379 0.950 . S
C2387 C2385 1.327 . S
C2388 C2376 1.349 . S
C2388 H2382 0.950 . S
C2388 C2389 1.327 . S
C2389 H2383 0.950 . S
C2389 C2388 1.327 . S
C2389 C2393 1.429 . S
C2390 C2373 1.574 . S
C2390 H2384 0.949 . S
C2390 C2394 1.368 . S
C2391 C2372 1.429 . S
C2391 C2385 1.429 . S
C2391 C2392 1.523 . S
C2392 C2373 1.368 . S
C2392 C2386 1.368 . S
C2392 C2391 1.523 . S
C2393 C2377 1.429 . S
C2393 C2389 1.429 . S
C2393 C2394 1.523 . S
C2394 C2378 1.368 . S
C2394 C2390 1.368 . S
C2394 C2393 1.523 . S
H2395 C2370 0.950 . S
H2396 C2372 0.950 . S
H2397 C2373 0.949 . S
H2398 C2375 0.950 . S
H2399 C2377 0.950 . S
C2400 C2401 1.349 . S
C2400 C2402 1.327 . S
C2400 H2425 0.950 . S
C2401 C2400 1.349 . S
C2401 C2417 1.349 . S
C2402 C2400 1.327 . S
C2402 C2421 1.429 . S
C2402 H2426 0.950 . S
C2403 C2420 1.574 . S
C2403 C2422 1.368 . S
C2403 H2427 0.949 . S
H2404 C2408 0.949 . S
C2405 C2406 1.349 . S
C2405 C2407 1.327 . S
C2405 H2428 0.950 . S
C2406 C2405 1.349 . S
C2406 C2418 1.349 . S
C2407 C2405 1.327 . S
C2407 C2423 1.429 . S
C2407 H2429 0.950 . S
C2408 H2404 0.949 . S
C2408 C2416 1.574 . S
C2408 C2424 1.368 . S
H2409 C2417 0.950 . S
H2410 C2415 0.950 . S
H2411 C2416 0.949 . S
H2412 C2418 0.950 . S
H2413 C2419 0.950 . S
H2414 C2420 0.949 . S
C2415 H2410 0.950 . S
C2415 C2417 1.327 . S
C2415 C2421 1.429 . S
C2416 C2408 1.574 . S
C2416 H2411 0.949 . S
C2416 C2422 1.368 . S
C2417 C2401 1.349 . S
C2417 H2409 0.950 . S
C2417 C2415 1.327 . S
C2418 C2406 1.349 . S
C2418 H2412 0.950 . S
C2418 C2419 1.327 . S
C2419 H2413 0.950 . S
C2419 C2418 1.327 . S
C2419 C2423 1.429 . S
C2420 C2403 1.574 . S
C2420 H2414 0.949 . S
C2420 C2424 1.368 . S
C2421 C2402 1.429 . S
C2421 C2415 1.429 . S
C2421 C2422 1.523 . S
C2422 C2403 1.368 . S
C2422 C2416 1.368 . S
C2422 C2421 1.523 . S
C2423 C2407 1.429 . S
C2423 C2419 1.429 . S
C2423 C2424 1.523 . S
C2424 C2408 1.368 . S
C2424 C2420 1.368 . S
C2424 C2423 1.523 . S
H2425 C2400 0.950 . S
H2426 C2402 0.950 . S
H2427 C2403 0.949 . S
H2428 C2405 0.950 . S
H2429 C2407 0.950 . S
C2430 C2431 1.349 . S
C2430 C2432 1.327 . S
C2430 H2455 0.950 . S
C2431 C2430 1.349 . S
C2431 C2447 1.349 . S
C2432 C2430 1.327 . S
C2432 C2451 1.429 . S
C2432 H2456 0.950 . S
C2433 C2450 1.574 . S
C2433 C2452 1.368 . S
C2433 H2457 0.949 . S
H2434 C2438 0.949 . S
C2435 C2436 1.349 . S
C2435 C2437 1.327 . S
C2435 H2458 0.950 . S
C2436 C2435 1.349 . S
C2436 C2448 1.349 . S
C2437 C2435 1.327 . S
C2437 C2453 1.429 . S
C2437 H2459 0.950 . S
C2438 H2434 0.949 . S
C2438 C2446 1.574 . S
C2438 C2454 1.368 . S
H2439 C2447 0.950 1_455 S
H2440 C2445 0.950 . S
H2441 C2446 0.949 . S
H2442 C2448 0.950 . S
H2443 C2449 0.950 . S
H2444 C2450 0.949 . S
C2445 H2440 0.950 . S
C2445 C2447 1.327 . S
C2445 C2451 1.429 . S
C2446 C2438 1.574 . S
C2446 H2441 0.949 . S
C2446 C2452 1.368 . S
C2447 C2431 1.349 . S
C2447 H2439 0.950 1_655 S
C2447 C2445 1.327 . S
C2448 C2436 1.349 . S
C2448 H2442 0.950 . S
C2448 C2449 1.327 . S
C2449 H2443 0.950 . S
C2449 C2448 1.327 . S
C2449 C2453 1.429 . S
C2450 C2433 1.574 . S
C2450 H2444 0.949 . S
C2450 C2454 1.368 . S
C2451 C2432 1.429 . S
C2451 C2445 1.429 . S
C2451 C2452 1.523 . S
C2452 C2433 1.368 . S
C2452 C2446 1.368 . S
C2452 C2451 1.523 . S
C2453 C2437 1.429 . S
C2453 C2449 1.429 . S
C2453 C2454 1.523 . S
C2454 C2438 1.368 . S
C2454 C2450 1.368 . S
C2454 C2453 1.523 . S
H2455 C2430 0.950 . S
H2456 C2432 0.950 . S
H2457 C2433 0.949 . S
H2458 C2435 0.950 . S
H2459 C2437 0.950 . S
C2460 C2461 1.349 . S
C2460 C2462 1.327 . S
C2460 H2485 0.950 . S
C2461 C2460 1.349 . S
C2461 C2477 1.349 . S
C2462 C2460 1.327 . S
C2462 C2481 1.429 . S
C2462 H2486 0.950 . S
C2463 C2480 1.574 . S
C2463 C2482 1.368 . S
C2463 H2487 0.949 . S
H2464 C2468 0.949 . S
C2465 C2466 1.349 . S
C2465 C2467 1.327 . S
C2465 H2488 0.950 . S
C2466 C2465 1.349 . S
C2466 C2478 1.349 . S
C2467 C2465 1.327 . S
C2467 C2483 1.429 . S
C2467 H2489 0.950 . S
C2468 H2464 0.949 . S
C2468 C2476 1.574 . S
C2468 C2484 1.368 . S
H2469 C2477 0.950 . S
H2470 C2475 0.950 . S
H2471 C2476 0.949 . S
H2472 C2478 0.950 . S
H2473 C2479 0.950 . S
H2474 C2480 0.949 . S
C2475 H2470 0.950 . S
C2475 C2477 1.327 . S
C2475 C2481 1.429 . S
C2476 C2468 1.574 . S
C2476 H2471 0.949 . S
C2476 C2482 1.368 . S
C2477 C2461 1.349 . S
C2477 H2469 0.950 . S
C2477 C2475 1.327 . S
C2478 C2466 1.349 . S
C2478 H2472 0.950 . S
C2478 C2479 1.327 . S
C2479 H2473 0.950 . S
C2479 C2478 1.327 . S
C2479 C2483 1.429 . S
C2480 C2463 1.574 . S
C2480 H2474 0.949 . S
C2480 C2484 1.368 . S
C2481 C2462 1.429 . S
C2481 C2475 1.429 . S
C2481 C2482 1.523 . S
C2482 C2463 1.368 . S
C2482 C2476 1.368 . S
C2482 C2481 1.523 . S
C2483 C2467 1.429 . S
C2483 C2479 1.429 . S
C2483 C2484 1.523 . S
C2484 C2468 1.368 . S
C2484 C2480 1.368 . S
C2484 C2483 1.523 . S
H2485 C2460 0.950 . S
H2486 C2462 0.950 . S
H2487 C2463 0.949 . S
H2488 C2465 0.950 . S
H2489 C2467 0.950 . S
C2490 C2491 1.349 . S
C2490 C2492 1.327 . S
C2490 H2515 0.950 . S
C2491 C2490 1.349 . S
C2491 C2507 1.349 . S
C2492 C2490 1.327 . S
C2492 C2511 1.429 . S
C2492 H2516 0.950 . S
C2493 C2510 1.574 . S
C2493 C2512 1.368 . S
C2493 H2517 0.949 . S
H2494 C2498 0.949 . S
C2495 C2496 1.349 . S
C2495 C2497 1.327 . S
C2495 H2518 0.950 . S
C2496 C2495 1.349 . S
C2496 C2508 1.349 . S
C2497 C2495 1.327 . S
C2497 C2513 1.429 . S
C2497 H2519 0.950 . S
C2498 H2494 0.949 . S
C2498 C2506 1.574 . S
C2498 C2514 1.368 . S
H2499 C2507 0.950 . S
H2500 C2505 0.950 . S
H2501 C2506 0.949 . S
H2502 C2508 0.950 . S
H2503 C2509 0.950 . S
H2504 C2510 0.949 . S
C2505 H2500 0.950 . S
C2505 C2507 1.327 . S
C2505 C2511 1.429 . S
C2506 C2498 1.574 . S
C2506 H2501 0.949 . S
C2506 C2512 1.368 . S
C2507 C2491 1.349 . S
C2507 H2499 0.950 . S
C2507 C2505 1.327 . S
C2508 C2496 1.349 . S
C2508 H2502 0.950 . S
C2508 C2509 1.327 . S
C2509 H2503 0.950 . S
C2509 C2508 1.327 . S
C2509 C2513 1.429 . S
C2510 C2493 1.574 . S
C2510 H2504 0.949 . S
C2510 C2514 1.368 . S
C2511 C2492 1.429 . S
C2511 C2505 1.429 . S
C2511 C2512 1.523 . S
C2512 C2493 1.368 . S
C2512 C2506 1.368 . S
C2512 C2511 1.523 . S
C2513 C2497 1.429 . S
C2513 C2509 1.429 . S
C2513 C2514 1.523 . S
C2514 C2498 1.368 . S
C2514 C2510 1.368 . S
C2514 C2513 1.523 . S
H2515 C2490 0.950 . S
H2516 C2492 0.950 . S
H2517 C2493 0.949 . S
H2518 C2495 0.950 . S
H2519 C2497 0.950 . S
C2520 C2521 1.349 . S
C2520 C2522 1.327 . S
C2520 H2545 0.950 . S
C2521 C2520 1.349 . S
C2521 C2537 1.349 . S
C2522 C2520 1.327 . S
C2522 C2541 1.429 . S
C2522 H2546 0.950 . S
C2523 C2540 1.574 . S
C2523 C2542 1.368 . S
C2523 H2547 0.949 . S
H2524 C2528 0.949 . S
C2525 C2526 1.349 . S
C2525 C2527 1.327 . S
C2525 H2548 0.950 . S
C2526 C2525 1.349 . S
C2526 C2538 1.349 . S
C2527 C2525 1.327 . S
C2527 C2543 1.429 . S
C2527 H2549 0.950 . S
C2528 H2524 0.949 . S
C2528 C2536 1.574 . S
C2528 C2544 1.368 . S
H2529 C2537 0.950 . S
H2530 C2535 0.950 . S
H2531 C2536 0.949 . S
H2532 C2538 0.950 . S
H2533 C2539 0.950 . S
H2534 C2540 0.949 . S
C2535 H2530 0.950 . S
C2535 C2537 1.327 . S
C2535 C2541 1.429 . S
C2536 C2528 1.574 . S
C2536 H2531 0.949 . S
C2536 C2542 1.368 . S
C2537 C2521 1.349 . S
C2537 H2529 0.950 . S
C2537 C2535 1.327 . S
C2538 C2526 1.349 . S
C2538 H2532 0.950 . S
C2538 C2539 1.327 . S
C2539 H2533 0.950 . S
C2539 C2538 1.327 . S
C2539 C2543 1.429 . S
C2540 C2523 1.574 . S
C2540 H2534 0.949 . S
C2540 C2544 1.368 . S
C2541 C2522 1.429 . S
C2541 C2535 1.429 . S
C2541 C2542 1.523 . S
C2542 C2523 1.368 . S
C2542 C2536 1.368 . S
C2542 C2541 1.523 . S
C2543 C2527 1.429 . S
C2543 C2539 1.429 . S
C2543 C2544 1.523 . S
C2544 C2528 1.368 . S
C2544 C2540 1.368 . S
C2544 C2543 1.523 . S
H2545 C2520 0.950 . S
H2546 C2522 0.950 . S
H2547 C2523 0.949 . S
H2548 C2525 0.950 . S
H2549 C2527 0.950 . S
C2550 C2551 1.349 . S
C2550 C2552 1.327 . S
C2550 H2575 0.950 . S
C2551 C2550 1.349 . S
C2551 C2567 1.349 . S
C2552 C2550 1.327 . S
C2552 C2571 1.429 . S
C2552 H2576 0.950 . S
C2553 C2570 1.574 . S
C2553 C2572 1.368 . S
C2553 H2577 0.949 . S
H2554 C2558 0.949 . S
C2555 C2556 1.349 . S
C2555 C2557 1.327 . S
C2555 H2578 0.950 . S
C2556 C2555 1.349 . S
C2556 C2568 1.349 . S
C2557 C2555 1.327 . S
C2557 C2573 1.429 . S
C2557 H2579 0.950 . S
C2558 H2554 0.949 . S
C2558 C2566 1.574 . S
C2558 C2574 1.368 . S
H2559 C2567 0.950 . S
H2560 C2565 0.950 . S
H2561 C2566 0.949 . S
H2562 C2568 0.950 . S
H2563 C2569 0.950 . S
H2564 C2570 0.949 . S
C2565 H2560 0.950 . S
C2565 C2567 1.327 . S
C2565 C2571 1.429 . S
C2566 C2558 1.574 . S
C2566 H2561 0.949 . S
C2566 C2572 1.368 . S
C2567 C2551 1.349 . S
C2567 H2559 0.950 . S
C2567 C2565 1.327 . S
C2568 C2556 1.349 . S
C2568 H2562 0.950 . S
C2568 C2569 1.327 . S
C2569 H2563 0.950 . S
C2569 C2568 1.327 . S
C2569 C2573 1.429 . S
C2570 C2553 1.574 . S
C2570 H2564 0.949 . S
C2570 C2574 1.368 . S
C2571 C2552 1.429 . S
C2571 C2565 1.429 . S
C2571 C2572 1.523 . S
C2572 C2553 1.368 . S
C2572 C2566 1.368 . S
C2572 C2571 1.523 . S
C2573 C2557 1.429 . S
C2573 C2569 1.429 . S
C2573 C2574 1.523 . S
C2574 C2558 1.368 . S
C2574 C2570 1.368 . S
C2574 C2573 1.523 . S
H2575 C2550 0.950 . S
H2576 C2552 0.950 . S
H2577 C2553 0.949 . S
H2578 C2555 0.950 . S
H2579 C2557 0.950 . S
C2580 C2581 1.349 . S
C2580 C2582 1.327 . S
C2580 H2605 0.950 . S
C2581 C2580 1.349 . S
C2581 C2597 1.349 . S
C2582 C2580 1.327 . S
C2582 C2601 1.429 . S
C2582 H2606 0.950 . S
C2583 C2600 1.574 . S
C2583 C2602 1.368 . S
C2583 H2607 0.949 . S
H2584 C2588 0.949 . S
C2585 C2586 1.349 . S
C2585 C2587 1.327 . S
C2585 H2608 0.950 . S
C2586 C2585 1.349 . S
C2586 C2598 1.349 . S
C2587 C2585 1.327 . S
C2587 C2603 1.429 . S
C2587 H2609 0.950 . S
C2588 H2584 0.949 . S
C2588 C2596 1.574 . S
C2588 C2604 1.368 . S
H2589 C2597 0.950 . S
H2590 C2595 0.950 . S
H2591 C2596 0.949 . S
H2592 C2598 0.950 . S
H2593 C2599 0.950 . S
H2594 C2600 0.949 . S
C2595 H2590 0.950 . S
C2595 C2597 1.327 . S
C2595 C2601 1.429 . S
C2596 C2588 1.574 . S
C2596 H2591 0.949 . S
C2596 C2602 1.368 . S
C2597 C2581 1.349 . S
C2597 H2589 0.950 . S
C2597 C2595 1.327 . S
C2598 C2586 1.349 . S
C2598 H2592 0.950 . S
C2598 C2599 1.327 . S
C2599 H2593 0.950 . S
C2599 C2598 1.327 . S
C2599 C2603 1.429 . S
C2600 C2583 1.574 . S
C2600 H2594 0.949 . S
C2600 C2604 1.368 . S
C2601 C2582 1.429 . S
C2601 C2595 1.429 . S
C2601 C2602 1.523 . S
C2602 C2583 1.368 . S
C2602 C2596 1.368 . S
C2602 C2601 1.523 . S
C2603 C2587 1.429 . S
C2603 C2599 1.429 . S
C2603 C2604 1.523 . S
C2604 C2588 1.368 . S
C2604 C2600 1.368 . S
C2604 C2603 1.523 . S
H2605 C2580 0.950 . S
H2606 C2582 0.950 . S
H2607 C2583 0.949 . S
H2608 C2585 0.950 . S
H2609 C2587 0.950 . S
C2610 C2611 1.345 1_655 S
C2610 C2612 1.327 . S
C2610 H2635 0.950 . S
C2611 C2610 1.345 1_455 S
C2611 C2627 1.350 . S
C2612 C2610 1.327 . S
C2612 C2631 1.429 . S
C2612 H2636 0.950 . S
C2613 C2630 1.574 . S
C2613 C2632 1.368 . S
C2613 H2637 0.949 . S
H2614 C2618 0.949 . S
C2615 C2616 1.349 . S
C2615 C2617 1.327 . S
C2615 H2638 0.950 . S
C2616 C2615 1.349 . S
C2616 C2628 1.349 . S
C2617 C2615 1.327 . S
C2617 C2633 1.429 . S
C2617 H2639 0.950 . S
C2618 H2614 0.949 . S
C2618 C2626 1.574 . S
C2618 C2634 1.368 . S
H2619 C2627 0.950 . S
H2620 C2625 0.950 . S
H2621 C2626 0.949 . S
H2622 C2628 0.950 . S
H2623 C2629 0.950 . S
H2624 C2630 0.949 . S
C2625 H2620 0.950 . S
C2625 C2627 1.327 1_655 S
C2625 C2631 1.429 . S
C2626 C2618 1.574 . S
C2626 H2621 0.949 . S
C2626 C2632 1.368 . S
C2627 C2611 1.350 . S
C2627 H2619 0.950 . S
C2627 C2625 1.327 1_455 S
C2628 C2616 1.349 . S
C2628 H2622 0.950 . S
C2628 C2629 1.327 . S
C2629 H2623 0.950 . S
C2629 C2628 1.327 . S
C2629 C2633 1.429 . S
C2630 C2613 1.574 . S
C2630 H2624 0.949 . S
C2630 C2634 1.368 . S
C2631 C2612 1.429 . S
C2631 C2625 1.429 . S
C2631 C2632 1.523 . S
C2632 C2613 1.368 . S
C2632 C2626 1.368 . S
C2632 C2631 1.523 . S
C2633 C2617 1.429 . S
C2633 C2629 1.429 . S
C2633 C2634 1.523 . S
C2634 C2618 1.368 . S
C2634 C2630 1.368 . S
C2634 C2633 1.523 . S
H2635 C2610 0.950 . S
H2636 C2612 0.950 . S
H2637 C2613 0.949 . S
H2638 C2615 0.950 . S
H2639 C2617 0.950 . S
C2640 C2641 1.349 . S
C2640 C2642 1.327 . S
C2640 H2665 0.950 . S
C2641 C2640 1.349 . S
C2641 C2657 1.349 . S
C2642 C2640 1.327 . S
C2642 C2661 1.429 . S
C2642 H2666 0.950 . S
C2643 C2660 1.574 . S
C2643 C2662 1.368 . S
C2643 H2667 0.949 . S
H2644 C2648 0.949 . S
C2645 C2646 1.349 . S
C2645 C2647 1.327 . S
C2645 H2668 0.950 . S
C2646 C2645 1.349 . S
C2646 C2658 1.349 . S
C2647 C2645 1.327 . S
C2647 C2663 1.429 . S
C2647 H2669 0.950 . S
C2648 H2644 0.949 . S
C2648 C2656 1.574 . S
C2648 C2664 1.368 . S
H2649 C2657 0.950 . S
H2650 C2655 0.950 . S
H2651 C2656 0.949 . S
H2652 C2658 0.950 . S
H2653 C2659 0.950 . S
H2654 C2660 0.949 . S
C2655 H2650 0.950 . S
C2655 C2657 1.327 . S
C2655 C2661 1.429 . S
C2656 C2648 1.574 . S
C2656 H2651 0.949 . S
C2656 C2662 1.368 . S
C2657 C2641 1.349 . S
C2657 H2649 0.950 . S
C2657 C2655 1.327 . S
C2658 C2646 1.349 . S
C2658 H2652 0.950 . S
C2658 C2659 1.327 . S
C2659 H2653 0.950 . S
C2659 C2658 1.327 . S
C2659 C2663 1.429 . S
C2660 C2643 1.574 . S
C2660 H2654 0.949 . S
C2660 C2664 1.368 . S
C2661 C2642 1.429 . S
C2661 C2655 1.429 . S
C2661 C2662 1.523 . S
C2662 C2643 1.368 . S
C2662 C2656 1.368 . S
C2662 C2661 1.523 . S
C2663 C2647 1.429 . S
C2663 C2659 1.429 . S
C2663 C2664 1.523 . S
C2664 C2648 1.368 . S
C2664 C2660 1.368 . S
C2664 C2663 1.523 . S
H2665 C2640 0.950 . S
H2666 C2642 0.950 . S
H2667 C2643 0.949 . S
H2668 C2645 0.950 . S
H2669 C2647 0.950 . S
C2670 C2671 1.349 . S
C2670 C2672 1.327 . S
C2670 H2695 0.950 . S
C2671 C2670 1.349 . S
C2671 C2687 1.349 . S
C2672 C2670 1.327 . S
C2672 C2691 1.429 . S
C2672 H2696 0.950 . S
C2673 C2690 1.574 . S
C2673 C2692 1.368 . S
C2673 H2697 0.949 . S
H2674 C2678 0.949 . S
C2675 C2676 1.349 . S
C2675 C2677 1.327 . S
C2675 H2698 0.950 . S
C2676 C2675 1.349 . S
C2676 C2688 1.349 . S
C2677 C2675 1.327 . S
C2677 C2693 1.429 . S
C2677 H2699 0.950 . S
C2678 H2674 0.949 . S
C2678 C2686 1.574 . S
C2678 C2694 1.368 . S
H2679 C2687 0.950 . S
H2680 C2685 0.950 . S
H2681 C2686 0.949 . S
H2682 C2688 0.950 . S
H2683 C2689 0.950 . S
H2684 C2690 0.949 . S
C2685 H2680 0.950 . S
C2685 C2687 1.327 . S
C2685 C2691 1.429 . S
C2686 C2678 1.574 . S
C2686 H2681 0.949 . S
C2686 C2692 1.368 . S
C2687 C2671 1.349 . S
C2687 H2679 0.950 . S
C2687 C2685 1.327 . S
C2688 C2676 1.349 . S
C2688 H2682 0.950 . S
C2688 C2689 1.327 . S
C2689 H2683 0.950 . S
C2689 C2688 1.327 . S
C2689 C2693 1.429 . S
C2690 C2673 1.574 . S
C2690 H2684 0.949 . S
C2690 C2694 1.368 . S
C2691 C2672 1.429 . S
C2691 C2685 1.429 . S
C2691 C2692 1.523 . S
C2692 C2673 1.368 . S
C2692 C2686 1.368 . S
C2692 C2691 1.523 . S
C2693 C2677 1.429 . S
C2693 C2689 1.429 . S
C2693 C2694 1.523 . S
C2694 C2678 1.368 . S
C2694 C2690 1.368 . S
C2694 C2693 1.523 . S
H2695 C2670 0.950 . S
H2696 C2672 0.950 . S
H2697 C2673 0.949 . S
H2698 C2675 0.950 . S
H2699 C2677 0.950 . S
C2700 C2701 1.349 . S
C2700 C2702 1.327 . S
C2700 H2725 0.950 . S
C2701 C2700 1.349 . S
C2701 C2717 1.349 . S
C2702 C2700 1.327 . S
C2702 C2721 1.429 . S
C2702 H2726 0.950 . S
C2703 C2720 1.574 . S
C2703 C2722 1.368 . S
C2703 H2727 0.949 . S
H2704 C2708 0.949 . S
C2705 C2706 1.349 . S
C2705 C2707 1.327 . S
C2705 H2728 0.950 . S
C2706 C2705 1.349 . S
C2706 C2718 1.349 . S
C2707 C2705 1.327 . S
C2707 C2723 1.429 . S
C2707 H2729 0.950 . S
C2708 H2704 0.949 . S
C2708 C2716 1.574 . S
C2708 C2724 1.368 . S
H2709 C2717 0.950 . S
H2710 C2715 0.950 . S
H2711 C2716 0.949 . S
H2712 C2718 0.950 . S
H2713 C2719 0.950 . S
H2714 C2720 0.949 . S
C2715 H2710 0.950 . S
C2715 C2717 1.327 . S
C2715 C2721 1.429 . S
C2716 C2708 1.574 . S
C2716 H2711 0.949 . S
C2716 C2722 1.368 . S
C2717 C2701 1.349 . S
C2717 H2709 0.950 . S
C2717 C2715 1.327 . S
C2718 C2706 1.349 . S
C2718 H2712 0.950 . S
C2718 C2719 1.327 . S
C2719 H2713 0.950 . S
C2719 C2718 1.327 . S
C2719 C2723 1.429 . S
C2720 C2703 1.574 . S
C2720 H2714 0.949 . S
C2720 C2724 1.368 . S
C2721 C2702 1.429 . S
C2721 C2715 1.429 . S
C2721 C2722 1.523 . S
C2722 C2703 1.368 . S
C2722 C2716 1.368 . S
C2722 C2721 1.523 . S
C2723 C2707 1.429 . S
C2723 C2719 1.429 . S
C2723 C2724 1.523 . S
C2724 C2708 1.368 . S
C2724 C2720 1.368 . S
C2724 C2723 1.523 . S
H2725 C2700 0.950 . S
H2726 C2702 0.950 . S
H2727 C2703 0.949 . S
H2728 C2705 0.950 . S
H2729 C2707 0.950 . S
C2730 C2731 1.349 . S
C2730 C2732 1.327 . S
C2730 H2755 0.950 . S
C2731 C2730 1.349 . S
C2731 C2747 1.349 . S
C2732 C2730 1.327 . S
C2732 C2751 1.429 . S
C2732 H2756 0.950 . S
C2733 C2750 1.574 . S
C2733 C2752 1.368 . S
C2733 H2757 0.949 . S
H2734 C2738 0.949 . S
C2735 C2736 1.349 . S
C2735 C2737 1.327 . S
C2735 H2758 0.950 . S
C2736 C2735 1.349 . S
C2736 C2748 1.349 . S
C2737 C2735 1.327 . S
C2737 C2753 1.429 . S
C2737 H2759 0.950 . S
C2738 H2734 0.949 . S
C2738 C2746 1.574 . S
C2738 C2754 1.368 . S
H2739 C2747 0.950 . S
H2740 C2745 0.950 . S
H2741 C2746 0.949 . S
H2742 C2748 0.950 . S
H2743 C2749 0.950 . S
H2744 C2750 0.949 . S
C2745 H2740 0.950 . S
C2745 C2747 1.327 . S
C2745 C2751 1.429 . S
C2746 C2738 1.574 . S
C2746 H2741 0.949 . S
C2746 C2752 1.368 . S
C2747 C2731 1.349 . S
C2747 H2739 0.950 . S
C2747 C2745 1.327 . S
C2748 C2736 1.349 . S
C2748 H2742 0.950 . S
C2748 C2749 1.327 . S
C2749 H2743 0.950 . S
C2749 C2748 1.327 . S
C2749 C2753 1.429 . S
C2750 C2733 1.574 . S
C2750 H2744 0.949 . S
C2750 C2754 1.368 . S
C2751 C2732 1.429 . S
C2751 C2745 1.429 . S
C2751 C2752 1.523 . S
C2752 C2733 1.368 . S
C2752 C2746 1.368 . S
C2752 C2751 1.523 . S
C2753 C2737 1.429 . S
C2753 C2749 1.429 . S
C2753 C2754 1.523 . S
C2754 C2738 1.368 . S
C2754 C2750 1.368 . S
C2754 C2753 1.523 . S
H2755 C2730 0.950 . S
H2756 C2732 0.950 . S
H2757 C2733 0.949 . S
H2758 C2735 0.950 . S
H2759 C2737 0.950 . S
C2760 C2761 1.349 . S
C2760 C2762 1.327 . S
C2760 H2785 0.950 . S
C2761 C2760 1.349 . S
C2761 C2777 1.349 . S
C2762 C2760 1.327 . S
C2762 C2781 1.429 . S
C2762 H2786 0.950 . S
C2763 C2780 1.574 . S
C2763 C2782 1.368 . S
C2763 H2787 0.949 . S
H2764 C2768 0.949 . S
C2765 C2766 1.349 . S
C2765 C2767 1.327 . S
C2765 H2788 0.950 . S
C2766 C2765 1.349 . S
C2766 C2778 1.349 . S
C2767 C2765 1.327 . S
C2767 C2783 1.429 . S
C2767 H2789 0.950 . S
C2768 H2764 0.949 . S
C2768 C2776 1.574 . S
C2768 C2784 1.368 . S
H2769 C2777 0.950 . S
H2770 C2775 0.950 . S
H2771 C2776 0.949 . S
H2772 C2778 0.950 . S
H2773 C2779 0.950 . S
H2774 C2780 0.949 . S
C2775 H2770 0.950 . S
C2775 C2777 1.327 . S
C2775 C2781 1.429 . S
C2776 C2768 1.574 . S
C2776 H2771 0.949 . S
C2776 C2782 1.368 . S
C2777 C2761 1.349 . S
C2777 H2769 0.950 . S
C2777 C2775 1.327 . S
C2778 C2766 1.349 . S
C2778 H2772 0.950 . S
C2778 C2779 1.327 . S
C2779 H2773 0.950 . S
C2779 C2778 1.327 . S
C2779 C2783 1.429 . S
C2780 C2763 1.574 . S
C2780 H2774 0.949 . S
C2780 C2784 1.368 . S
C2781 C2762 1.429 . S
C2781 C2775 1.429 . S
C2781 C2782 1.523 . S
C2782 C2763 1.368 . S
C2782 C2776 1.368 . S
C2782 C2781 1.523 . S
C2783 C2767 1.429 . S
C2783 C2779 1.429 . S
C2783 C2784 1.523 . S
C2784 C2768 1.368 . S
C2784 C2780 1.368 . S
C2784 C2783 1.523 . S
H2785 C2760 0.950 . S
H2786 C2762 0.950 . S
H2787 C2763 0.949 . S
H2788 C2765 0.950 . S
H2789 C2767 0.950 . S
C2790 C2791 1.349 . S
C2790 C2792 1.327 . S
C2790 H2815 0.950 . S
C2791 C2790 1.349 . S
C2791 C2807 1.349 . S
C2792 C2790 1.327 . S
C2792 C2811 1.429 . S
C2792 H2816 0.950 . S
C2793 C2810 1.574 . S
C2793 C2812 1.368 . S
C2793 H2817 0.949 . S
H2794 C2798 0.949 . S
C2795 C2796 1.349 . S
C2795 C2797 1.327 . S
C2795 H2818 0.950 . S
C2796 C2795 1.349 . S
C2796 C2808 1.349 . S
C2797 C2795 1.327 . S
C2797 C2813 1.429 . S
C2797 H2819 0.950 . S
C2798 H2794 0.949 . S
C2798 C2806 1.574 . S
C2798 C2814 1.368 . S
H2799 C2807 0.950 . S
H2800 C2805 0.950 . S
H2801 C2806 0.949 . S
H2802 C2808 0.950 . S
H2803 C2809 0.950 . S
H2804 C2810 0.949 . S
C2805 H2800 0.950 . S
C2805 C2807 1.327 . S
C2805 C2811 1.429 . S
C2806 C2798 1.574 . S
C2806 H2801 0.949 . S
C2806 C2812 1.368 . S
C2807 C2791 1.349 . S
C2807 H2799 0.950 . S
C2807 C2805 1.327 . S
C2808 C2796 1.349 . S
C2808 H2802 0.950 . S
C2808 C2809 1.327 . S
C2809 H2803 0.950 . S
C2809 C2808 1.327 . S
C2809 C2813 1.429 . S
C2810 C2793 1.574 . S
C2810 H2804 0.949 . S
C2810 C2814 1.368 . S
C2811 C2792 1.429 . S
C2811 C2805 1.429 . S
C2811 C2812 1.523 . S
C2812 C2793 1.368 . S
C2812 C2806 1.368 . S
C2812 C2811 1.523 . S
C2813 C2797 1.429 . S
C2813 C2809 1.429 . S
C2813 C2814 1.523 . S
C2814 C2798 1.368 . S
C2814 C2810 1.368 . S
C2814 C2813 1.523 . S
H2815 C2790 0.950 . S
H2816 C2792 0.950 . S
H2817 C2793 0.949 . S
H2818 C2795 0.950 . S
H2819 C2797 0.950 . S
C2820 C2821 1.349 . S
C2820 C2822 1.327 . S
C2820 H2845 0.950 . S
C2821 C2820 1.349 . S
C2821 C2837 1.349 . S
C2822 C2820 1.327 . S
C2822 C2841 1.429 . S
C2822 H2846 0.950 . S
C2823 C2840 1.574 . S
C2823 C2842 1.368 . S
C2823 H2847 0.949 . S
H2824 C2828 0.949 . S
C2825 C2826 1.349 . S
C2825 C2827 1.327 . S
C2825 H2848 0.950 . S
C2826 C2825 1.349 . S
C2826 C2838 1.349 . S
C2827 C2825 1.327 . S
C2827 C2843 1.429 . S
C2827 H2849 0.950 . S
C2828 H2824 0.949 . S
C2828 C2836 1.574 . S
C2828 C2844 1.368 . S
H2829 C2837 0.950 . S
H2830 C2835 0.950 . S
H2831 C2836 0.949 . S
H2832 C2838 0.950 . S
H2833 C2839 0.950 . S
H2834 C2840 0.949 . S
C2835 H2830 0.950 . S
C2835 C2837 1.327 . S
C2835 C2841 1.429 . S
C2836 C2828 1.574 . S
C2836 H2831 0.949 . S
C2836 C2842 1.368 . S
C2837 C2821 1.349 . S
C2837 H2829 0.950 . S
C2837 C2835 1.327 . S
C2838 C2826 1.349 . S
C2838 H2832 0.950 . S
C2838 C2839 1.327 . S
C2839 H2833 0.950 . S
C2839 C2838 1.327 . S
C2839 C2843 1.429 . S
C2840 C2823 1.574 . S
C2840 H2834 0.949 . S
C2840 C2844 1.368 . S
C2841 C2822 1.429 . S
C2841 C2835 1.429 . S
C2841 C2842 1.523 . S
C2842 C2823 1.368 . S
C2842 C2836 1.368 . S
C2842 C2841 1.523 . S
C2843 C2827 1.429 . S
C2843 C2839 1.429 . S
C2843 C2844 1.523 . S
C2844 C2828 1.368 . S
C2844 C2840 1.368 . S
C2844 C2843 1.523 . S
H2845 C2820 0.950 . S
H2846 C2822 0.950 . S
H2847 C2823 0.949 . S
H2848 C2825 0.950 . S
H2849 C2827 0.950 . S
C2850 C2851 1.349 . S
C2850 C2852 1.327 . S
C2850 H2875 0.950 . S
C2851 C2850 1.349 . S
C2851 C2867 1.349 1_554 S
C2852 C2850 1.327 . S
C2852 C2871 1.429 1_554 S
C2852 H2876 0.950 . S
C2853 C2870 1.574 . S
C2853 C2872 1.368 . S
C2853 H2877 0.949 . S
H2854 C2858 0.949 . S
C2855 C2856 1.349 . S
C2855 C2857 1.327 . S
C2855 H2878 0.950 . S
C2856 C2855 1.349 . S
C2856 C2868 1.349 . S
C2857 C2855 1.327 . S
C2857 C2873 1.429 . S
C2857 H2879 0.950 . S
C2858 H2854 0.949 . S
C2858 C2866 1.574 . S
C2858 C2874 1.368 . S
H2859 C2867 0.950 . S
H2860 C2865 0.950 . S
H2861 C2866 0.949 . S
H2862 C2868 0.950 . S
H2863 C2869 0.950 . S
H2864 C2870 0.949 . S
C2865 H2860 0.950 . S
C2865 C2867 1.327 . S
C2865 C2871 1.429 . S
C2866 C2858 1.574 . S
C2866 H2861 0.949 . S
C2866 C2872 1.368 . S
C2867 C2851 1.349 1_556 S
C2867 H2859 0.950 . S
C2867 C2865 1.327 . S
C2868 C2856 1.349 . S
C2868 H2862 0.950 . S
C2868 C2869 1.327 . S
C2869 H2863 0.950 . S
C2869 C2868 1.327 . S
C2869 C2873 1.429 . S
C2870 C2853 1.574 . S
C2870 H2864 0.949 . S
C2870 C2874 1.368 . S
C2871 C2852 1.429 1_556 S
C2871 C2865 1.429 . S
C2871 C2872 1.523 . S
C2872 C2853 1.368 . S
C2872 C2866 1.368 . S
C2872 C2871 1.523 . S
C2873 C2857 1.429 . S
C2873 C2869 1.429 . S
C2873 C2874 1.523 . S
C2874 C2858 1.368 . S
C2874 C2870 1.368 . S
C2874 C2873 1.523 . S
H2875 C2850 0.950 . S
H2876 C2852 0.950 . S
H2877 C2853 0.949 . S
H2878 C2855 0.950 . S
H2879 C2857 0.950 . S
C2880 C2881 1.349 . S
C2880 C2882 1.327 . S
C2880 H2905 0.950 . S
C2881 C2880 1.349 . S
C2881 C2897 1.349 . S
C2882 C2880 1.327 . S
C2882 C2901 1.429 . S
C2882 H2906 0.950 . S
C2883 C2900 1.574 . S
C2883 C2902 1.368 . S
C2883 H2907 0.949 . S
H2884 C2888 0.949 . S
C2885 C2886 1.349 . S
C2885 C2887 1.327 . S
C2885 H2908 0.950 . S
C2886 C2885 1.349 . S
C2886 C2898 1.349 . S
C2887 C2885 1.327 . S
C2887 C2903 1.429 . S
C2887 H2909 0.950 . S
C2888 H2884 0.949 . S
C2888 C2896 1.574 . S
C2888 C2904 1.368 . S
H2889 C2897 0.950 . S
H2890 C2895 0.950 . S
H2891 C2896 0.949 . S
H2892 C2898 0.950 . S
H2893 C2899 0.950 . S
H2894 C2900 0.949 . S
C2895 H2890 0.950 . S
C2895 C2897 1.327 . S
C2895 C2901 1.429 . S
C2896 C2888 1.574 . S
C2896 H2891 0.949 . S
C2896 C2902 1.368 . S
C2897 C2881 1.349 . S
C2897 H2889 0.950 . S
C2897 C2895 1.327 . S
C2898 C2886 1.349 . S
C2898 H2892 0.950 . S
C2898 C2899 1.327 . S
C2899 H2893 0.950 . S
C2899 C2898 1.327 . S
C2899 C2903 1.429 . S
C2900 C2883 1.574 . S
C2900 H2894 0.949 . S
C2900 C2904 1.368 . S
C2901 C2882 1.429 . S
C2901 C2895 1.429 . S
C2901 C2902 1.523 . S
C2902 C2883 1.368 . S
C2902 C2896 1.368 . S
C2902 C2901 1.523 . S
C2903 C2887 1.429 . S
C2903 C2899 1.429 . S
C2903 C2904 1.523 . S
C2904 C2888 1.368 . S
C2904 C2900 1.368 . S
C2904 C2903 1.523 . S
H2905 C2880 0.950 . S
H2906 C2882 0.950 . S
H2907 C2883 0.949 . S
H2908 C2885 0.950 . S
H2909 C2887 0.950 . S
C2910 C2911 1.349 . S
C2910 C2912 1.327 . S
C2910 H2935 0.950 . S
C2911 C2910 1.349 . S
C2911 C2927 1.349 . S
C2912 C2910 1.327 . S
C2912 C2931 1.429 . S
C2912 H2936 0.950 . S
C2913 C2930 1.574 . S
C2913 C2932 1.368 . S
C2913 H2937 0.949 . S
H2914 C2918 0.949 . S
C2915 C2916 1.349 . S
C2915 C2917 1.327 . S
C2915 H2938 0.950 . S
C2916 C2915 1.349 . S
C2916 C2928 1.349 . S
C2917 C2915 1.327 . S
C2917 C2933 1.429 . S
C2917 H2939 0.950 . S
C2918 H2914 0.949 . S
C2918 C2926 1.574 . S
C2918 C2934 1.368 . S
H2919 C2927 0.950 . S
H2920 C2925 0.950 . S
H2921 C2926 0.949 . S
H2922 C2928 0.950 . S
H2923 C2929 0.950 . S
H2924 C2930 0.949 . S
C2925 H2920 0.950 . S
C2925 C2927 1.327 . S
C2925 C2931 1.429 . S
C2926 C2918 1.574 . S
C2926 H2921 0.949 . S
C2926 C2932 1.368 . S
C2927 C2911 1.349 . S
C2927 H2919 0.950 . S
C2927 C2925 1.327 . S
C2928 C2916 1.349 . S
C2928 H2922 0.950 . S
C2928 C2929 1.327 . S
C2929 H2923 0.950 . S
C2929 C2928 1.327 . S
C2929 C2933 1.429 . S
C2930 C2913 1.574 . S
C2930 H2924 0.949 . S
C2930 C2934 1.368 . S
C2931 C2912 1.429 . S
C2931 C2925 1.429 . S
C2931 C2932 1.523 . S
C2932 C2913 1.368 . S
C2932 C2926 1.368 . S
C2932 C2931 1.523 . S
C2933 C2917 1.429 . S
C2933 C2929 1.429 . S
C2933 C2934 1.523 . S
C2934 C2918 1.368 . S
C2934 C2930 1.368 . S
C2934 C2933 1.523 . S
H2935 C2910 0.950 . S
H2936 C2912 0.950 . S
H2937 C2913 0.949 . S
H2938 C2915 0.950 . S
H2939 C2917 0.950 . S
C2940 C2941 1.349 . S
C2940 C2942 1.327 . S
C2940 H2965 0.950 . S
C2941 C2940 1.349 . S
C2941 C2957 1.349 . S
C2942 C2940 1.327 . S
C2942 C2961 1.429 . S
C2942 H2966 0.950 . S
C2943 C2960 1.574 . S
C2943 C2962 1.368 . S
C2943 H2967 0.949 . S
H2944 C2948 0.949 . S
C2945 C2946 1.349 . S
C2945 C2947 1.327 . S
C2945 H2968 0.950 . S
C2946 C2945 1.349 . S
C2946 C2958 1.349 . S
C2947 C2945 1.327 . S
C2947 C2963 1.429 . S
C2947 H2969 0.950 . S
C2948 H2944 0.949 . S
C2948 C2956 1.574 . S
C2948 C2964 1.368 . S
H2949 C2957 0.950 . S
H2950 C2955 0.950 . S
H2951 C2956 0.949 . S
H2952 C2958 0.950 . S
H2953 C2959 0.950 . S
H2954 C2960 0.949 . S
C2955 H2950 0.950 . S
C2955 C2957 1.327 . S
C2955 C2961 1.429 . S
C2956 C2948 1.574 . S
C2956 H2951 0.949 . S
C2956 C2962 1.368 . S
C2957 C2941 1.349 . S
C2957 H2949 0.950 . S
C2957 C2955 1.327 . S
C2958 C2946 1.349 . S
C2958 H2952 0.950 . S
C2958 C2959 1.327 . S
C2959 H2953 0.950 . S
C2959 C2958 1.327 . S
C2959 C2963 1.429 . S
C2960 C2943 1.574 . S
C2960 H2954 0.949 . S
C2960 C2964 1.368 . S
C2961 C2942 1.429 . S
C2961 C2955 1.429 . S
C2961 C2962 1.523 . S
C2962 C2943 1.368 . S
C2962 C2956 1.368 . S
C2962 C2961 1.523 . S
C2963 C2947 1.429 . S
C2963 C2959 1.429 . S
C2963 C2964 1.523 . S
C2964 C2948 1.368 . S
C2964 C2960 1.368 . S
C2964 C2963 1.523 . S
H2965 C2940 0.950 . S
H2966 C2942 0.950 . S
H2967 C2943 0.949 . S
H2968 C2945 0.950 . S
H2969 C2947 0.950 . S
C2970 C2971 1.349 . S
C2970 C2972 1.327 . S
C2970 H2995 0.950 . S
C2971 C2970 1.349 . S
C2971 C2987 1.349 . S
C2972 C2970 1.327 . S
C2972 C2991 1.429 . S
C2972 H2996 0.950 . S
C2973 C2990 1.574 . S
C2973 C2992 1.368 . S
C2973 H2997 0.949 . S
H2974 C2978 0.949 . S
C2975 C2976 1.349 . S
C2975 C2977 1.327 . S
C2975 H2998 0.950 . S
C2976 C2975 1.349 . S
C2976 C2988 1.349 . S
C2977 C2975 1.327 . S
C2977 C2993 1.429 . S
C2977 H2999 0.950 . S
C2978 H2974 0.949 . S
C2978 C2986 1.574 . S
C2978 C2994 1.368 . S
H2979 C2987 0.950 . S
H2980 C2985 0.950 . S
H2981 C2986 0.949 . S
H2982 C2988 0.950 . S
H2983 C2989 0.950 . S
H2984 C2990 0.949 . S
C2985 H2980 0.950 . S
C2985 C2987 1.327 . S
C2985 C2991 1.429 . S
C2986 C2978 1.574 . S
C2986 H2981 0.949 . S
C2986 C2992 1.368 . S
C2987 C2971 1.349 . S
C2987 H2979 0.950 . S
C2987 C2985 1.327 . S
C2988 C2976 1.349 . S
C2988 H2982 0.950 . S
C2988 C2989 1.327 . S
C2989 H2983 0.950 . S
C2989 C2988 1.327 . S
C2989 C2993 1.429 . S
C2990 C2973 1.574 . S
C2990 H2984 0.949 . S
C2990 C2994 1.368 . S
C2991 C2972 1.429 . S
C2991 C2985 1.429 . S
C2991 C2992 1.523 . S
C2992 C2973 1.368 . S
C2992 C2986 1.368 . S
C2992 C2991 1.523 . S
C2993 C2977 1.429 . S
C2993 C2989 1.429 . S
C2993 C2994 1.523 . S
C2994 C2978 1.368 . S
C2994 C2990 1.368 . S
C2994 C2993 1.523 . S
H2995 C2970 0.950 . S
H2996 C2972 0.950 . S
H2997 C2973 0.949 . S
H2998 C2975 0.950 . S
H2999 C2977 0.950 . S
C3000 C3001 1.349 . S
C3000 C3002 1.327 . S
C3000 H3025 0.950 . S
C3001 C3000 1.349 . S
C3001 C3017 1.349 . S
C3002 C3000 1.327 . S
C3002 C3021 1.429 . S
C3002 H3026 0.950 . S
C3003 C3020 1.574 . S
C3003 C3022 1.368 . S
C3003 H3027 0.949 . S
H3004 C3008 0.949 . S
C3005 C3006 1.349 1_565 S
C3005 C3007 1.327 . S
C3005 H3028 0.950 . S
C3006 C3005 1.349 1_545 S
C3006 C3018 1.349 . S
C3007 C3005 1.327 . S
C3007 C3023 1.429 . S
C3007 H3029 0.950 . S
C3008 H3004 0.949 . S
C3008 C3016 1.574 . S
C3008 C3024 1.368 . S
H3009 C3017 0.950 . S
H3010 C3015 0.950 . S
H3011 C3016 0.949 . S
H3012 C3018 0.950 . S
H3013 C3019 0.937 1_545 S
H3014 C3020 0.949 . S
C3015 H3010 0.950 . S
C3015 C3017 1.327 . S
C3015 C3021 1.429 . S
C3016 C3008 1.574 . S
C3016 H3011 0.949 . S
C3016 C3022 1.368 . S
C3017 C3001 1.349 . S
C3017 H3009 0.950 . S
C3017 C3015 1.327 . S
C3018 C3006 1.349 . S
C3018 H3012 0.950 . S
C3018 C3019 1.327 1_545 S
C3019 H3013 0.937 1_565 S
C3019 C3018 1.327 1_565 S
C3019 C3023 1.429 . S
C3020 C3003 1.574 . S
C3020 H3014 0.949 . S
C3020 C3024 1.368 . S
C3021 C3002 1.429 . S
C3021 C3015 1.429 . S
C3021 C3022 1.523 . S
C3022 C3003 1.368 . S
C3022 C3016 1.368 . S
C3022 C3021 1.523 . S
C3023 C3007 1.429 . S
C3023 C3019 1.429 . S
C3023 C3024 1.523 . S
C3024 C3008 1.368 . S
C3024 C3020 1.368 . S
C3024 C3023 1.523 . S
H3025 C3000 0.950 . S
H3026 C3002 0.950 . S
H3027 C3003 0.949 . S
H3028 C3005 0.950 . S
H3029 C3007 0.950 . S
C3030 C3031 1.349 . S
C3030 C3032 1.327 . S
C3030 H3055 0.950 . S
C3031 C3030 1.349 . S
C3031 C3047 1.349 . S
C3032 C3030 1.327 . S
C3032 C3051 1.429 . S
C3032 H3056 0.950 . S
C3033 C3050 1.574 . S
C3033 C3052 1.368 . S
C3033 H3057 0.949 . S
H3034 C3038 0.949 . S
C3035 C3036 1.349 . S
C3035 C3037 1.327 . S
C3035 H3058 0.950 . S
C3036 C3035 1.349 . S
C3036 C3048 1.349 . S
C3037 C3035 1.327 . S
C3037 C3053 1.429 . S
C3037 H3059 0.950 . S
C3038 H3034 0.949 . S
C3038 C3046 1.574 . S
C3038 C3054 1.368 . S
H3039 C3047 0.950 . S
H3040 C3045 0.950 . S
H3041 C3046 0.949 . S
H3042 C3048 0.950 . S
H3043 C3049 0.950 . S
H3044 C3050 0.949 . S
C3045 H3040 0.950 . S
C3045 C3047 1.327 . S
C3045 C3051 1.429 . S
C3046 C3038 1.574 . S
C3046 H3041 0.949 . S
C3046 C3052 1.368 . S
C3047 C3031 1.349 . S
C3047 H3039 0.950 . S
C3047 C3045 1.327 . S
C3048 C3036 1.349 . S
C3048 H3042 0.950 . S
C3048 C3049 1.327 . S
C3049 H3043 0.950 . S
C3049 C3048 1.327 . S
C3049 C3053 1.429 . S
C3050 C3033 1.574 . S
C3050 H3044 0.949 . S
C3050 C3054 1.368 . S
C3051 C3032 1.429 . S
C3051 C3045 1.429 . S
C3051 C3052 1.523 . S
C3052 C3033 1.368 . S
C3052 C3046 1.368 . S
C3052 C3051 1.523 . S
C3053 C3037 1.429 . S
C3053 C3049 1.429 . S
C3053 C3054 1.523 . S
C3054 C3038 1.368 . S
C3054 C3050 1.368 . S
C3054 C3053 1.523 . S
H3055 C3030 0.950 . S
H3056 C3032 0.950 . S
H3057 C3033 0.949 . S
H3058 C3035 0.950 . S
H3059 C3037 0.950 . S
C3060 C3061 1.349 . S
C3060 C3062 1.327 . S
C3060 H3085 0.950 . S
C3061 C3060 1.349 . S
C3061 C3077 1.349 . S
C3062 C3060 1.327 . S
C3062 C3081 1.429 . S
C3062 H3086 0.950 . S
C3063 C3080 1.574 . S
C3063 C3082 1.368 . S
C3063 H3087 0.949 . S
H3064 C3068 0.949 . S
C3065 C3066 1.349 . S
C3065 C3067 1.327 . S
C3065 H3088 0.950 . S
C3066 C3065 1.349 . S
C3066 C3078 1.349 . S
C3067 C3065 1.327 . S
C3067 C3083 1.429 . S
C3067 H3089 0.950 . S
C3068 H3064 0.949 . S
C3068 C3076 1.574 . S
C3068 C3084 1.368 . S
H3069 C3077 0.950 . S
H3070 C3075 0.950 . S
H3071 C3076 0.949 . S
H3072 C3078 0.950 . S
H3073 C3079 0.950 . S
H3074 C3080 0.949 . S
C3075 H3070 0.950 . S
C3075 C3077 1.327 . S
C3075 C3081 1.429 . S
C3076 C3068 1.574 . S
C3076 H3071 0.949 . S
C3076 C3082 1.368 . S
C3077 C3061 1.349 . S
C3077 H3069 0.950 . S
C3077 C3075 1.327 . S
C3078 C3066 1.349 . S
C3078 H3072 0.950 . S
C3078 C3079 1.327 . S
C3079 H3073 0.950 . S
C3079 C3078 1.327 . S
C3079 C3083 1.429 . S
C3080 C3063 1.574 . S
C3080 H3074 0.949 . S
C3080 C3084 1.368 . S
C3081 C3062 1.429 . S
C3081 C3075 1.429 . S
C3081 C3082 1.523 . S
C3082 C3063 1.368 . S
C3082 C3076 1.368 . S
C3082 C3081 1.523 . S
C3083 C3067 1.429 . S
C3083 C3079 1.429 . S
C3083 C3084 1.523 . S
C3084 C3068 1.368 . S
C3084 C3080 1.368 . S
C3084 C3083 1.523 . S
H3085 C3060 0.950 . S
H3086 C3062 0.950 . S
H3087 C3063 0.949 . S
H3088 C3065 0.950 . S
H3089 C3067 0.950 . S
C3090 C3091 1.349 . S
C3090 C3092 1.327 . S
C3090 H3115 0.950 . S
C3091 C3090 1.349 . S
C3091 C3107 1.349 . S
C3092 C3090 1.327 . S
C3092 C3111 1.429 . S
C3092 H3116 0.950 . S
C3093 C3110 1.574 . S
C3093 C3112 1.368 . S
C3093 H3117 0.949 . S
H3094 C3098 0.949 . S
C3095 C3096 1.349 . S
C3095 C3097 1.327 . S
C3095 H3118 0.950 . S
C3096 C3095 1.349 . S
C3096 C3108 1.349 . S
C3097 C3095 1.327 . S
C3097 C3113 1.429 . S
C3097 H3119 0.950 . S
C3098 H3094 0.949 . S
C3098 C3106 1.574 . S
C3098 C3114 1.368 . S
H3099 C3107 0.950 . S
H3100 C3105 0.950 . S
H3101 C3106 0.949 . S
H3102 C3108 0.950 . S
H3103 C3109 0.950 . S
H3104 C3110 0.949 . S
C3105 H3100 0.950 . S
C3105 C3107 1.327 . S
C3105 C3111 1.429 . S
C3106 C3098 1.574 . S
C3106 H3101 0.949 . S
C3106 C3112 1.368 . S
C3107 C3091 1.349 . S
C3107 H3099 0.950 . S
C3107 C3105 1.327 . S
C3108 C3096 1.349 . S
C3108 H3102 0.950 . S
C3108 C3109 1.327 . S
C3109 H3103 0.950 . S
C3109 C3108 1.327 . S
C3109 C3113 1.429 . S
C3110 C3093 1.574 . S
C3110 H3104 0.949 . S
C3110 C3114 1.368 . S
C3111 C3092 1.429 . S
C3111 C3105 1.429 . S
C3111 C3112 1.523 . S
C3112 C3093 1.368 . S
C3112 C3106 1.368 . S
C3112 C3111 1.523 . S
C3113 C3097 1.429 . S
C3113 C3109 1.429 . S
C3113 C3114 1.523 . S
C3114 C3098 1.368 . S
C3114 C3110 1.368 . S
C3114 C3113 1.523 . S
H3115 C3090 0.950 . S
H3116 C3092 0.950 . S
H3117 C3093 0.949 . S
H3118 C3095 0.950 . S
H3119 C3097 0.950 . S
C3120 C3121 1.349 . S
C3120 C3122 1.327 . S
C3120 H3145 0.950 . S
C3121 C3120 1.349 . S
C3121 C3137 1.349 . S
C3122 C3120 1.327 . S
C3122 C3141 1.429 . S
C3122 H3146 0.950 . S
C3123 C3140 1.574 . S
C3123 C3142 1.368 . S
C3123 H3147 0.949 . S
H3124 C3128 0.949 . S
C3125 C3126 1.349 . S
C3125 C3127 1.327 . S
C3125 H3148 0.950 . S
C3126 C3125 1.349 . S
C3126 C3138 1.349 . S
C3127 C3125 1.327 . S
C3127 C3143 1.429 . S
C3127 H3149 0.950 . S
C3128 H3124 0.949 . S
C3128 C3136 1.574 . S
C3128 C3144 1.368 . S
H3129 C3137 0.950 . S
H3130 C3135 0.950 . S
H3131 C3136 0.949 . S
H3132 C3138 0.950 . S
H3133 C3139 0.950 . S
H3134 C3140 0.949 . S
C3135 H3130 0.950 . S
C3135 C3137 1.327 . S
C3135 C3141 1.429 . S
C3136 C3128 1.574 . S
C3136 H3131 0.949 . S
C3136 C3142 1.368 . S
C3137 C3121 1.349 . S
C3137 H3129 0.950 . S
C3137 C3135 1.327 . S
C3138 C3126 1.349 . S
C3138 H3132 0.950 . S
C3138 C3139 1.327 . S
C3139 H3133 0.950 . S
C3139 C3138 1.327 . S
C3139 C3143 1.429 . S
C3140 C3123 1.574 . S
C3140 H3134 0.949 . S
C3140 C3144 1.368 . S
C3141 C3122 1.429 . S
C3141 C3135 1.429 . S
C3141 C3142 1.523 . S
C3142 C3123 1.368 . S
C3142 C3136 1.368 . S
C3142 C3141 1.523 . S
C3143 C3127 1.429 . S
C3143 C3139 1.429 . S
C3143 C3144 1.523 . S
C3144 C3128 1.368 . S
C3144 C3140 1.368 . S
C3144 C3143 1.523 . S
H3145 C3120 0.950 . S
H3146 C3122 0.950 . S
H3147 C3123 0.949 . S
H3148 C3125 0.950 . S
H3149 C3127 0.950 . S
C3150 C3151 1.349 . S
C3150 C3152 1.327 . S
C3150 H3175 0.950 . S
C3151 C3150 1.349 . S
C3151 C3167 1.349 . S
C3152 C3150 1.327 . S
C3152 C3171 1.429 . S
C3152 H3176 0.950 . S
C3153 C3170 1.574 . S
C3153 C3172 1.368 . S
C3153 H3177 0.949 . S
H3154 C3158 0.949 . S
C3155 C3156 1.349 . S
C3155 C3157 1.327 . S
C3155 H3178 0.950 . S
C3156 C3155 1.349 . S
C3156 C3168 1.349 . S
C3157 C3155 1.327 . S
C3157 C3173 1.429 . S
C3157 H3179 0.950 . S
C3158 H3154 0.949 . S
C3158 C3166 1.574 . S
C3158 C3174 1.368 . S
H3159 C3167 0.950 . S
H3160 C3165 0.950 . S
H3161 C3166 0.949 . S
H3162 C3168 0.950 . S
H3163 C3169 0.950 . S
H3164 C3170 0.949 . S
C3165 H3160 0.950 . S
C3165 C3167 1.327 . S
C3165 C3171 1.429 . S
C3166 C3158 1.574 . S
C3166 H3161 0.949 . S
C3166 C3172 1.368 . S
C3167 C3151 1.349 . S
C3167 H3159 0.950 . S
C3167 C3165 1.327 . S
C3168 C3156 1.349 . S
C3168 H3162 0.950 . S
C3168 C3169 1.327 . S
C3169 H3163 0.950 . S
C3169 C3168 1.327 . S
C3169 C3173 1.429 . S
C3170 C3153 1.574 . S
C3170 H3164 0.949 . S
C3170 C3174 1.368 . S
C3171 C3152 1.429 . S
C3171 C3165 1.429 . S
C3171 C3172 1.523 . S
C3172 C3153 1.368 . S
C3172 C3166 1.368 . S
C3172 C3171 1.523 . S
C3173 C3157 1.429 . S
C3173 C3169 1.429 . S
C3173 C3174 1.523 . S
C3174 C3158 1.368 . S
C3174 C3170 1.368 . S
C3174 C3173 1.523 . S
H3175 C3150 0.950 . S
H3176 C3152 0.950 . S
H3177 C3153 0.949 . S
H3178 C3155 0.950 . S
H3179 C3157 0.950 . S
C3180 C3181 1.349 . S
C3180 C3182 1.327 . S
C3180 H3205 0.950 . S
C3181 C3180 1.349 . S
C3181 C3197 1.349 . S
C3182 C3180 1.327 . S
C3182 C3201 1.429 . S
C3182 H3206 0.950 . S
C3183 C3200 1.574 . S
C3183 C3202 1.368 . S
C3183 H3207 0.949 . S
H3184 C3188 0.949 . S
C3185 C3186 1.349 . S
C3185 C3187 1.327 . S
C3185 H3208 0.950 . S
C3186 C3185 1.349 . S
C3186 C3198 1.349 . S
C3187 C3185 1.327 . S
C3187 C3203 1.429 . S
C3187 H3209 0.950 . S
C3188 H3184 0.949 . S
C3188 C3196 1.574 . S
C3188 C3204 1.368 . S
H3189 C3197 0.950 . S
H3190 C3195 0.950 . S
H3191 C3196 0.949 . S
H3192 C3198 0.950 . S
H3193 C3199 0.950 . S
H3194 C3200 0.949 . S
C3195 H3190 0.950 . S
C3195 C3197 1.327 . S
C3195 C3201 1.429 . S
C3196 C3188 1.574 . S
C3196 H3191 0.949 . S
C3196 C3202 1.368 . S
C3197 C3181 1.349 . S
C3197 H3189 0.950 . S
C3197 C3195 1.327 . S
C3198 C3186 1.349 . S
C3198 H3192 0.950 . S
C3198 C3199 1.327 . S
C3199 H3193 0.950 . S
C3199 C3198 1.327 . S
C3199 C3203 1.429 . S
C3200 C3183 1.574 . S
C3200 H3194 0.949 . S
C3200 C3204 1.368 . S
C3201 C3182 1.429 . S
C3201 C3195 1.429 . S
C3201 C3202 1.523 . S
C3202 C3183 1.368 . S
C3202 C3196 1.368 . S
C3202 C3201 1.523 . S
C3203 C3187 1.429 . S
C3203 C3199 1.429 . S
C3203 C3204 1.523 . S
C3204 C3188 1.368 . S
C3204 C3200 1.368 . S
C3204 C3203 1.523 . S
H3205 C3180 0.950 . S
H3206 C3182 0.950 . S
H3207 C3183 0.949 . S
H3208 C3185 0.950 . S
H3209 C3187 0.950 . S
C3210 C3211 1.349 . S
C3210 C3212 1.327 . S
C3210 H3235 0.950 . S
C3211 C3210 1.349 . S
C3211 C3227 1.349 . S
C3212 C3210 1.327 . S
C3212 C3231 1.429 . S
C3212 H3236 0.950 . S
C3213 C3230 1.574 . S
C3213 C3232 1.368 . S
C3213 H3237 0.949 . S
H3214 C3218 0.949 . S
C3215 C3216 1.349 . S
C3215 C3217 1.327 . S
C3215 H3238 0.950 . S
C3216 C3215 1.349 . S
C3216 C3228 1.349 . S
C3217 C3215 1.327 . S
C3217 C3233 1.429 . S
C3217 H3239 0.950 . S
C3218 H3214 0.949 . S
C3218 C3226 1.574 . S
C3218 C3234 1.368 . S
H3219 C3227 0.950 . S
H3220 C3225 0.950 . S
H3221 C3226 0.949 . S
H3222 C3228 0.950 . S
H3223 C3229 0.950 . S
H3224 C3230 0.949 . S
C3225 H3220 0.950 . S
C3225 C3227 1.327 . S
C3225 C3231 1.429 . S
C3226 C3218 1.574 . S
C3226 H3221 0.949 . S
C3226 C3232 1.368 . S
C3227 C3211 1.349 . S
C3227 H3219 0.950 . S
C3227 C3225 1.327 . S
C3228 C3216 1.349 . S
C3228 H3222 0.950 . S
C3228 C3229 1.327 . S
C3229 H3223 0.950 . S
C3229 C3228 1.327 . S
C3229 C3233 1.429 . S
C3230 C3213 1.574 . S
C3230 H3224 0.949 . S
C3230 C3234 1.368 . S
C3231 C3212 1.429 . S
C3231 C3225 1.429 . S
C3231 C3232 1.523 . S
C3232 C3213 1.368 . S
C3232 C3226 1.368 . S
C3232 C3231 1.523 . S
C3233 C3217 1.429 . S
C3233 C3229 1.429 . S
C3233 C3234 1.523 . S
C3234 C3218 1.368 . S
C3234 C3230 1.368 . S
C3234 C3233 1.523 . S
H3235 C3210 0.950 . S
H3236 C3212 0.950 . S
H3237 C3213 0.949 . S
H3238 C3215 0.950 . S
H3239 C3217 0.950 . S
C3240 C3241 1.349 . S
C3240 C3242 1.327 . S
C3240 H3265 0.950 . S
C3241 C3240 1.349 . S
C3241 C3257 1.349 . S
C3242 C3240 1.327 . S
C3242 C3261 1.429 . S
C3242 H3266 0.950 . S
C3243 C3260 1.574 . S
C3243 C3262 1.368 . S
C3243 H3267 0.949 . S
H3244 C3248 0.949 . S
C3245 C3246 1.349 . S
C3245 C3247 1.327 . S
C3245 H3268 0.950 . S
C3246 C3245 1.349 . S
C3246 C3258 1.349 . S
C3247 C3245 1.327 . S
C3247 C3263 1.429 . S
C3247 H3269 0.950 . S
C3248 H3244 0.949 . S
C3248 C3256 1.574 . S
C3248 C3264 1.368 . S
H3249 C3257 0.950 . S
H3250 C3255 0.950 . S
H3251 C3256 0.949 . S
H3252 C3258 0.950 . S
H3253 C3259 0.950 . S
H3254 C3260 0.949 . S
C3255 H3250 0.950 . S
C3255 C3257 1.327 . S
C3255 C3261 1.429 . S
C3256 C3248 1.574 . S
C3256 H3251 0.949 . S
C3256 C3262 1.368 . S
C3257 C3241 1.349 . S
C3257 H3249 0.950 . S
C3257 C3255 1.327 . S
C3258 C3246 1.349 . S
C3258 H3252 0.950 . S
C3258 C3259 1.327 . S
C3259 H3253 0.950 . S
C3259 C3258 1.327 . S
C3259 C3263 1.429 . S
C3260 C3243 1.574 . S
C3260 H3254 0.949 . S
C3260 C3264 1.368 . S
C3261 C3242 1.429 . S
C3261 C3255 1.429 . S
C3261 C3262 1.523 . S
C3262 C3243 1.368 . S
C3262 C3256 1.368 . S
C3262 C3261 1.523 . S
C3263 C3247 1.429 . S
C3263 C3259 1.429 . S
C3263 C3264 1.523 . S
C3264 C3248 1.368 . S
C3264 C3260 1.368 . S
C3264 C3263 1.523 . S
H3265 C3240 0.950 . S
H3266 C3242 0.950 . S
H3267 C3243 0.949 . S
H3268 C3245 0.950 . S
H3269 C3247 0.950 . S
C3270 C3271 1.349 . S
C3270 C3272 1.327 . S
C3270 H3295 0.950 . S
C3271 C3270 1.349 . S
C3271 C3287 1.349 . S
C3272 C3270 1.327 . S
C3272 C3291 1.429 . S
C3272 H3296 0.950 . S
C3273 C3290 1.574 . S
C3273 C3292 1.368 . S
C3273 H3297 0.949 . S
H3274 C3278 0.949 . S
C3275 C3276 1.349 . S
C3275 C3277 1.327 . S
C3275 H3298 0.950 . S
C3276 C3275 1.349 . S
C3276 C3288 1.349 . S
C3277 C3275 1.327 . S
C3277 C3293 1.429 . S
C3277 H3299 0.950 . S
C3278 H3274 0.949 . S
C3278 C3286 1.574 . S
C3278 C3294 1.368 . S
H3279 C3287 0.950 . S
H3280 C3285 0.950 . S
H3281 C3286 0.949 . S
H3282 C3288 0.950 . S
H3283 C3289 0.950 . S
H3284 C3290 0.949 . S
C3285 H3280 0.950 . S
C3285 C3287 1.327 . S
C3285 C3291 1.429 . S
C3286 C3278 1.574 . S
C3286 H3281 0.949 . S
C3286 C3292 1.368 . S
C3287 C3271 1.349 . S
C3287 H3279 0.950 . S
C3287 C3285 1.327 . S
C3288 C3276 1.349 . S
C3288 H3282 0.950 . S
C3288 C3289 1.327 . S
C3289 H3283 0.950 . S
C3289 C3288 1.327 . S
C3289 C3293 1.429 . S
C3290 C3273 1.574 . S
C3290 H3284 0.949 . S
C3290 C3294 1.368 . S
C3291 C3272 1.429 . S
C3291 C3285 1.429 . S
C3291 C3292 1.523 . S
C3292 C3273 1.368 . S
C3292 C3286 1.368 . S
C3292 C3291 1.523 . S
C3293 C3277 1.429 . S
C3293 C3289 1.429 . S
C3293 C3294 1.523 . S
C3294 C3278 1.368 . S
C3294 C3290 1.368 . S
C3294 C3293 1.523 . S
H3295 C3270 0.950 . S
H3296 C3272 0.950 . S
H3297 C3273 0.949 . S
H3298 C3275 0.950 . S
H3299 C3277 0.950 . S
C3300 C3301 1.349 . S
C3300 C3302 1.327 . S
C3300 H3325 0.950 . S
C3301 C3300 1.349 . S
C3301 C3317 1.349 . S
C3302 C3300 1.327 . S
C3302 C3321 1.429 . S
C3302 H3326 0.950 . S
C3303 C3320 1.574 . S
C3303 C3322 1.368 . S
C3303 H3327 0.949 . S
H3304 C3308 0.949 . S
C3305 C3306 1.349 . S
C3305 C3307 1.327 . S
C3305 H3328 0.950 . S
C3306 C3305 1.349 . S
C3306 C3318 1.349 . S
C3307 C3305 1.327 . S
C3307 C3323 1.429 . S
C3307 H3329 0.950 . S
C3308 H3304 0.949 . S
C3308 C3316 1.574 . S
C3308 C3324 1.368 . S
H3309 C3317 0.950 . S
H3310 C3315 0.950 . S
H3311 C3316 0.949 . S
H3312 C3318 0.950 . S
H3313 C3319 0.950 . S
H3314 C3320 0.949 . S
C3315 H3310 0.950 . S
C3315 C3317 1.327 . S
C3315 C3321 1.429 . S
C3316 C3308 1.574 . S
C3316 H3311 0.949 . S
C3316 C3322 1.368 . S
C3317 C3301 1.349 . S
C3317 H3309 0.950 . S
C3317 C3315 1.327 . S
C3318 C3306 1.349 . S
C3318 H3312 0.950 . S
C3318 C3319 1.327 . S
C3319 H3313 0.950 . S
C3319 C3318 1.327 . S
C3319 C3323 1.429 . S
C3320 C3303 1.574 . S
C3320 H3314 0.949 . S
C3320 C3324 1.368 . S
C3321 C3302 1.429 . S
C3321 C3315 1.429 . S
C3321 C3322 1.523 . S
C3322 C3303 1.368 . S
C3322 C3316 1.368 . S
C3322 C3321 1.523 . S
C3323 C3307 1.429 . S
C3323 C3319 1.429 . S
C3323 C3324 1.523 . S
C3324 C3308 1.368 . S
C3324 C3320 1.368 . S
C3324 C3323 1.523 . S
H3325 C3300 0.950 . S
H3326 C3302 0.950 . S
H3327 C3303 0.949 . S
H3328 C3305 0.950 . S
H3329 C3307 0.950 . S
C3330 C3331 1.349 . S
C3330 C3332 1.327 . S
C3330 H3355 0.950 . S
C3331 C3330 1.349 . S
C3331 C3347 1.349 . S
C3332 C3330 1.327 . S
C3332 C3351 1.429 . S
C3332 H3356 0.950 . S
C3333 C3350 1.574 . S
C3333 C3352 1.368 . S
C3333 H3357 0.949 . S
H3334 C3338 0.949 . S
C3335 C3336 1.351 . S
C3335 C3337 1.327 1_655 S
C3335 H3358 0.950 . S
C3336 C3335 1.351 . S
C3336 C3348 1.344 1_655 S
C3337 C3335 1.327 1_455 S
C3337 C3353 1.429 . S
C3337 H3359 0.965 . S
C3338 H3334 0.949 . S
C3338 C3346 1.574 . S
C3338 C3354 1.368 . S
H3339 C3347 0.950 . S
H3340 C3345 0.950 . S
H3341 C3346 0.949 . S
H3342 C3348 0.950 . S
H3343 C3349 0.950 . S
H3344 C3350 0.949 . S
C3345 H3340 0.950 . S
C3345 C3347 1.327 . S
C3345 C3351 1.429 . S
C3346 C3338 1.574 . S
C3346 H3341 0.949 . S
C3346 C3352 1.368 . S
C3347 C3331 1.349 . S
C3347 H3339 0.950 . S
C3347 C3345 1.327 . S
C3348 C3336 1.344 1_455 S
C3348 H3342 0.950 . S
C3348 C3349 1.327 . S
C3349 H3343 0.950 . S
C3349 C3348 1.327 . S
C3349 C3353 1.429 . S
C3350 C3333 1.574 . S
C3350 H3344 0.949 . S
C3350 C3354 1.368 . S
C3351 C3332 1.429 . S
C3351 C3345 1.429 . S
C3351 C3352 1.523 . S
C3352 C3333 1.368 . S
C3352 C3346 1.368 . S
C3352 C3351 1.523 . S
C3353 C3337 1.429 . S
C3353 C3349 1.429 . S
C3353 C3354 1.523 . S
C3354 C3338 1.368 . S
C3354 C3350 1.368 . S
C3354 C3353 1.523 . S
H3355 C3330 0.950 . S
H3356 C3332 0.950 . S
H3357 C3333 0.949 . S
H3358 C3335 0.950 . S
H3359 C3337 0.965 . S
C3360 C3361 1.349 . S
C3360 C3362 1.327 . S
C3360 H3385 0.950 . S
C3361 C3360 1.349 . S
C3361 C3377 1.349 . S
C3362 C3360 1.327 . S
C3362 C3381 1.429 . S
C3362 H3386 0.950 . S
C3363 C3380 1.574 . S
C3363 C3382 1.368 . S
C3363 H3387 0.949 . S
H3364 C3368 0.949 . S
C3365 C3366 1.349 . S
C3365 C3367 1.327 . S
C3365 H3388 0.950 . S
C3366 C3365 1.349 . S
C3366 C3378 1.349 . S
C3367 C3365 1.327 . S
C3367 C3383 1.429 . S
C3367 H3389 0.950 . S
C3368 H3364 0.949 . S
C3368 C3376 1.574 . S
C3368 C3384 1.368 . S
H3369 C3377 0.950 . S
H3370 C3375 0.950 . S
H3371 C3376 0.949 . S
H3372 C3378 0.950 . S
H3373 C3379 0.950 . S
H3374 C3380 0.949 . S
C3375 H3370 0.950 . S
C3375 C3377 1.327 . S
C3375 C3381 1.429 . S
C3376 C3368 1.574 . S
C3376 H3371 0.949 . S
C3376 C3382 1.368 . S
C3377 C3361 1.349 . S
C3377 H3369 0.950 . S
C3377 C3375 1.327 . S
C3378 C3366 1.349 . S
C3378 H3372 0.950 . S
C3378 C3379 1.327 . S
C3379 H3373 0.950 . S
C3379 C3378 1.327 . S
C3379 C3383 1.429 . S
C3380 C3363 1.574 . S
C3380 H3374 0.949 . S
C3380 C3384 1.368 . S
C3381 C3362 1.429 . S
C3381 C3375 1.429 . S
C3381 C3382 1.523 . S
C3382 C3363 1.368 . S
C3382 C3376 1.368 . S
C3382 C3381 1.523 . S
C3383 C3367 1.429 . S
C3383 C3379 1.429 . S
C3383 C3384 1.523 . S
C3384 C3368 1.368 . S
C3384 C3380 1.368 . S
C3384 C3383 1.523 . S
H3385 C3360 0.950 . S
H3386 C3362 0.950 . S
H3387 C3363 0.949 . S
H3388 C3365 0.950 . S
H3389 C3367 0.950 . S
C3390 C3391 1.349 . S
C3390 C3392 1.327 . S
C3390 H3415 0.950 . S
C3391 C3390 1.349 . S
C3391 C3407 1.349 . S
C3392 C3390 1.327 . S
C3392 C3411 1.429 . S
C3392 H3416 0.950 . S
C3393 C3410 1.574 . S
C3393 C3412 1.368 . S
C3393 H3417 0.949 . S
H3394 C3398 0.949 . S
C3395 C3396 1.349 . S
C3395 C3397 1.327 . S
C3395 H3418 0.950 . S
C3396 C3395 1.349 . S
C3396 C3408 1.349 . S
C3397 C3395 1.327 . S
C3397 C3413 1.429 . S
C3397 H3419 0.950 . S
C3398 H3394 0.949 . S
C3398 C3406 1.574 . S
C3398 C3414 1.368 . S
H3399 C3407 0.950 . S
H3400 C3405 0.950 . S
H3401 C3406 0.949 . S
H3402 C3408 0.950 . S
H3403 C3409 0.950 . S
H3404 C3410 0.949 . S
C3405 H3400 0.950 . S
C3405 C3407 1.327 . S
C3405 C3411 1.429 . S
C3406 C3398 1.574 . S
C3406 H3401 0.949 . S
C3406 C3412 1.368 . S
C3407 C3391 1.349 . S
C3407 H3399 0.950 . S
C3407 C3405 1.327 . S
C3408 C3396 1.349 . S
C3408 H3402 0.950 . S
C3408 C3409 1.327 . S
C3409 H3403 0.950 . S
C3409 C3408 1.327 . S
C3409 C3413 1.429 . S
C3410 C3393 1.574 . S
C3410 H3404 0.949 . S
C3410 C3414 1.368 . S
C3411 C3392 1.429 . S
C3411 C3405 1.429 . S
C3411 C3412 1.523 . S
C3412 C3393 1.368 . S
C3412 C3406 1.368 . S
C3412 C3411 1.523 . S
C3413 C3397 1.429 . S
C3413 C3409 1.429 . S
C3413 C3414 1.523 . S
C3414 C3398 1.368 . S
C3414 C3410 1.368 . S
C3414 C3413 1.523 . S
H3415 C3390 0.950 . S
H3416 C3392 0.950 . S
H3417 C3393 0.949 . S
H3418 C3395 0.950 . S
H3419 C3397 0.950 . S
C3420 C3421 1.349 . S
C3420 C3422 1.327 . S
C3420 H3445 0.950 . S
C3421 C3420 1.349 . S
C3421 C3437 1.349 . S
C3422 C3420 1.327 . S
C3422 C3441 1.429 . S
C3422 H3446 0.950 . S
C3423 C3440 1.574 . S
C3423 C3442 1.368 . S
C3423 H3447 0.949 . S
H3424 C3428 0.949 . S
C3425 C3426 1.349 . S
C3425 C3427 1.327 . S
C3425 H3448 0.950 . S
C3426 C3425 1.349 . S
C3426 C3438 1.349 . S
C3427 C3425 1.327 . S
C3427 C3443 1.429 . S
C3427 H3449 0.950 . S
C3428 H3424 0.949 . S
C3428 C3436 1.574 . S
C3428 C3444 1.368 . S
H3429 C3437 0.950 . S
H3430 C3435 0.950 . S
H3431 C3436 0.949 . S
H3432 C3438 0.950 . S
H3433 C3439 0.950 . S
H3434 C3440 0.949 . S
C3435 H3430 0.950 . S
C3435 C3437 1.327 . S
C3435 C3441 1.429 . S
C3436 C3428 1.574 . S
C3436 H3431 0.949 . S
C3436 C3442 1.368 . S
C3437 C3421 1.349 . S
C3437 H3429 0.950 . S
C3437 C3435 1.327 . S
C3438 C3426 1.349 . S
C3438 H3432 0.950 . S
C3438 C3439 1.327 . S
C3439 H3433 0.950 . S
C3439 C3438 1.327 . S
C3439 C3443 1.429 . S
C3440 C3423 1.574 . S
C3440 H3434 0.949 . S
C3440 C3444 1.368 . S
C3441 C3422 1.429 . S
C3441 C3435 1.429 . S
C3441 C3442 1.523 . S
C3442 C3423 1.368 . S
C3442 C3436 1.368 . S
C3442 C3441 1.523 . S
C3443 C3427 1.429 . S
C3443 C3439 1.429 . S
C3443 C3444 1.523 . S
C3444 C3428 1.368 . S
C3444 C3440 1.368 . S
C3444 C3443 1.523 . S
H3445 C3420 0.950 . S
H3446 C3422 0.950 . S
H3447 C3423 0.949 . S
H3448 C3425 0.950 . S
H3449 C3427 0.950 . S
C3450 C3451 1.349 . S
C3450 C3452 1.327 . S
C3450 H3475 0.950 . S
C3451 C3450 1.349 . S
C3451 C3467 1.349 . S
C3452 C3450 1.327 . S
C3452 C3471 1.429 . S
C3452 H3476 0.950 . S
C3453 C3470 1.574 . S
C3453 C3472 1.368 . S
C3453 H3477 0.949 . S
H3454 C3458 0.949 . S
C3455 C3456 1.349 . S
C3455 C3457 1.327 . S
C3455 H3478 0.950 . S
C3456 C3455 1.349 . S
C3456 C3468 1.349 . S
C3457 C3455 1.327 . S
C3457 C3473 1.429 . S
C3457 H3479 0.950 . S
C3458 H3454 0.949 . S
C3458 C3466 1.574 . S
C3458 C3474 1.368 . S
H3459 C3467 0.950 . S
H3460 C3465 0.950 . S
H3461 C3466 0.949 . S
H3462 C3468 0.950 . S
H3463 C3469 0.950 . S
H3464 C3470 0.949 . S
C3465 H3460 0.950 . S
C3465 C3467 1.327 . S
C3465 C3471 1.429 . S
C3466 C3458 1.574 . S
C3466 H3461 0.949 . S
C3466 C3472 1.368 . S
C3467 C3451 1.349 . S
C3467 H3459 0.950 . S
C3467 C3465 1.327 . S
C3468 C3456 1.349 . S
C3468 H3462 0.950 . S
C3468 C3469 1.327 . S
C3469 H3463 0.950 . S
C3469 C3468 1.327 . S
C3469 C3473 1.429 . S
C3470 C3453 1.574 . S
C3470 H3464 0.949 . S
C3470 C3474 1.368 . S
C3471 C3452 1.429 . S
C3471 C3465 1.429 . S
C3471 C3472 1.523 . S
C3472 C3453 1.368 . S
C3472 C3466 1.368 . S
C3472 C3471 1.523 . S
C3473 C3457 1.429 . S
C3473 C3469 1.429 . S
C3473 C3474 1.523 . S
C3474 C3458 1.368 . S
C3474 C3470 1.368 . S
C3474 C3473 1.523 . S
H3475 C3450 0.950 . S
H3476 C3452 0.950 . S
H3477 C3453 0.949 . S
H3478 C3455 0.950 . S
H3479 C3457 0.950 . S
C3480 C3481 1.349 . S
C3480 C3482 1.327 . S
C3480 H3505 0.950 . S
C3481 C3480 1.349 . S
C3481 C3497 1.349 . S
C3482 C3480 1.327 . S
C3482 C3501 1.429 . S
C3482 H3506 0.950 . S
C3483 C3500 1.574 . S
C3483 C3502 1.368 . S
C3483 H3507 0.949 . S
H3484 C3488 0.949 . S
C3485 C3486 1.349 . S
C3485 C3487 1.327 . S
C3485 H3508 0.950 . S
C3486 C3485 1.349 . S
C3486 C3498 1.349 . S
C3487 C3485 1.327 . S
C3487 C3503 1.429 . S
C3487 H3509 0.950 . S
C3488 H3484 0.949 . S
C3488 C3496 1.574 . S
C3488 C3504 1.368 . S
H3489 C3497 0.950 . S
H3490 C3495 0.950 . S
H3491 C3496 0.949 . S
H3492 C3498 0.950 . S
H3493 C3499 0.950 . S
H3494 C3500 0.949 . S
C3495 H3490 0.950 . S
C3495 C3497 1.327 . S
C3495 C3501 1.429 . S
C3496 C3488 1.574 . S
C3496 H3491 0.949 . S
C3496 C3502 1.368 . S
C3497 C3481 1.349 . S
C3497 H3489 0.950 . S
C3497 C3495 1.327 . S
C3498 C3486 1.349 . S
C3498 H3492 0.950 . S
C3498 C3499 1.327 . S
C3499 H3493 0.950 . S
C3499 C3498 1.327 . S
C3499 C3503 1.429 . S
C3500 C3483 1.574 . S
C3500 H3494 0.949 . S
C3500 C3504 1.368 . S
C3501 C3482 1.429 . S
C3501 C3495 1.429 . S
C3501 C3502 1.523 . S
C3502 C3483 1.368 . S
C3502 C3496 1.368 . S
C3502 C3501 1.523 . S
C3503 C3487 1.429 . S
C3503 C3499 1.429 . S
C3503 C3504 1.523 . S
C3504 C3488 1.368 . S
C3504 C3500 1.368 . S
C3504 C3503 1.523 . S
H3505 C3480 0.950 . S
H3506 C3482 0.950 . S
H3507 C3483 0.949 . S
H3508 C3485 0.950 . S
H3509 C3487 0.950 . S
C3510 C3511 1.349 . S
C3510 C3512 1.327 . S
C3510 H3535 0.950 . S
C3511 C3510 1.349 . S
C3511 C3527 1.349 . S
C3512 C3510 1.327 . S
C3512 C3531 1.429 . S
C3512 H3536 0.950 . S
C3513 C3530 1.574 . S
C3513 C3532 1.368 . S
C3513 H3537 0.949 . S
H3514 C3518 0.949 . S
C3515 C3516 1.349 . S
C3515 C3517 1.327 . S
C3515 H3538 0.950 . S
C3516 C3515 1.349 . S
C3516 C3528 1.349 . S
C3517 C3515 1.327 . S
C3517 C3533 1.429 . S
C3517 H3539 0.950 . S
C3518 H3514 0.949 . S
C3518 C3526 1.574 . S
C3518 C3534 1.368 . S
H3519 C3527 0.950 . S
H3520 C3525 0.950 . S
H3521 C3526 0.949 . S
H3522 C3528 0.950 . S
H3523 C3529 0.950 . S
H3524 C3530 0.949 . S
C3525 H3520 0.950 . S
C3525 C3527 1.327 . S
C3525 C3531 1.429 . S
C3526 C3518 1.574 . S
C3526 H3521 0.949 . S
C3526 C3532 1.368 . S
C3527 C3511 1.349 . S
C3527 H3519 0.950 . S
C3527 C3525 1.327 . S
C3528 C3516 1.349 . S
C3528 H3522 0.950 . S
C3528 C3529 1.327 . S
C3529 H3523 0.950 . S
C3529 C3528 1.327 . S
C3529 C3533 1.429 . S
C3530 C3513 1.574 . S
C3530 H3524 0.949 . S
C3530 C3534 1.368 . S
C3531 C3512 1.429 . S
C3531 C3525 1.429 . S
C3531 C3532 1.523 . S
C3532 C3513 1.368 . S
C3532 C3526 1.368 . S
C3532 C3531 1.523 . S
C3533 C3517 1.429 . S
C3533 C3529 1.429 . S
C3533 C3534 1.523 . S
C3534 C3518 1.368 . S
C3534 C3530 1.368 . S
C3534 C3533 1.523 . S
H3535 C3510 0.950 . S
H3536 C3512 0.950 . S
H3537 C3513 0.949 . S
H3538 C3515 0.950 . S
H3539 C3517 0.950 . S
C3540 C3541 1.349 . S
C3540 C3542 1.327 . S
C3540 H3565 0.950 . S
C3541 C3540 1.349 . S
C3541 C3557 1.349 . S
C3542 C3540 1.327 . S
C3542 C3561 1.429 . S
C3542 H3566 0.950 . S
C3543 C3560 1.574 . S
C3543 C3562 1.368 . S
C3543 H3567 0.949 . S
H3544 C3548 0.949 . S
C3545 C3546 1.349 . S
C3545 C3547 1.327 . S
C3545 H3568 0.950 . S
C3546 C3545 1.349 . S
C3546 C3558 1.349 . S
C3547 C3545 1.327 . S
C3547 C3563 1.429 . S
C3547 H3569 0.950 . S
C3548 H3544 0.949 . S
C3548 C3556 1.574 . S
C3548 C3564 1.368 . S
H3549 C3557 0.950 . S
H3550 C3555 0.950 . S
H3551 C3556 0.949 . S
H3552 C3558 0.950 . S
H3553 C3559 0.950 . S
H3554 C3560 0.949 . S
C3555 H3550 0.950 . S
C3555 C3557 1.327 . S
C3555 C3561 1.429 . S
C3556 C3548 1.574 . S
C3556 H3551 0.949 . S
C3556 C3562 1.368 . S
C3557 C3541 1.349 . S
C3557 H3549 0.950 . S
C3557 C3555 1.327 . S
C3558 C3546 1.349 . S
C3558 H3552 0.950 . S
C3558 C3559 1.327 . S
C3559 H3553 0.950 . S
C3559 C3558 1.327 . S
C3559 C3563 1.429 . S
C3560 C3543 1.574 . S
C3560 H3554 0.949 . S
C3560 C3564 1.368 . S
C3561 C3542 1.429 . S
C3561 C3555 1.429 . S
C3561 C3562 1.523 . S
C3562 C3543 1.368 . S
C3562 C3556 1.368 . S
C3562 C3561 1.523 . S
C3563 C3547 1.429 . S
C3563 C3559 1.429 . S
C3563 C3564 1.523 . S
C3564 C3548 1.368 . S
C3564 C3560 1.368 . S
C3564 C3563 1.523 . S
H3565 C3540 0.950 . S
H3566 C3542 0.950 . S
H3567 C3543 0.949 . S
H3568 C3545 0.950 . S
H3569 C3547 0.950 . S
C3570 C3571 1.349 . S
C3570 C3572 1.327 1_556 S
C3570 H3595 0.950 . S
C3571 C3570 1.349 . S
C3571 C3587 1.349 . S
C3572 C3570 1.327 1_554 S
C3572 C3591 1.429 . S
C3572 H3596 0.950 . S
C3573 C3590 1.574 . S
C3573 C3592 1.368 . S
C3573 H3597 0.949 . S
H3574 C3578 0.949 . S
C3575 C3576 1.349 . S
C3575 C3577 1.327 . S
C3575 H3598 0.950 . S
C3576 C3575 1.349 . S
C3576 C3588 1.349 . S
C3577 C3575 1.327 . S
C3577 C3593 1.429 . S
C3577 H3599 0.950 . S
C3578 H3574 0.949 . S
C3578 C3586 1.574 . S
C3578 C3594 1.368 . S
H3579 C3587 0.950 . S
H3580 C3585 0.950 . S
H3581 C3586 0.949 . S
H3582 C3588 0.950 . S
H3583 C3589 0.950 . S
H3584 C3590 0.949 . S
C3585 H3580 0.950 . S
C3585 C3587 1.327 1_554 S
C3585 C3591 1.429 . S
C3586 C3578 1.574 . S
C3586 H3581 0.949 . S
C3586 C3592 1.368 . S
C3587 C3571 1.349 . S
C3587 H3579 0.950 . S
C3587 C3585 1.327 1_556 S
C3588 C3576 1.349 . S
C3588 H3582 0.950 . S
C3588 C3589 1.327 . S
C3589 H3583 0.950 . S
C3589 C3588 1.327 . S
C3589 C3593 1.429 . S
C3590 C3573 1.574 . S
C3590 H3584 0.949 . S
C3590 C3594 1.368 . S
C3591 C3572 1.429 . S
C3591 C3585 1.429 . S
C3591 C3592 1.523 . S
C3592 C3573 1.368 . S
C3592 C3586 1.368 . S
C3592 C3591 1.523 . S
C3593 C3577 1.429 . S
C3593 C3589 1.429 . S
C3593 C3594 1.523 . S
C3594 C3578 1.368 . S
C3594 C3590 1.368 . S
C3594 C3593 1.523 . S
H3595 C3570 0.950 . S
H3596 C3572 0.950 . S
H3597 C3573 0.949 . S
H3598 C3575 0.950 . S
H3599 C3577 0.950 . S
C3600 C3601 1.349 . S
C3600 C3602 1.327 . S
C3600 H3625 0.950 . S
C3601 C3600 1.349 . S
C3601 C3617 1.349 . S
C3602 C3600 1.327 . S
C3602 C3621 1.429 . S
C3602 H3626 0.950 . S
C3603 C3620 1.574 . S
C3603 C3622 1.368 . S
C3603 H3627 0.949 . S
H3604 C3608 0.949 . S
C3605 C3606 1.349 . S
C3605 C3607 1.327 . S
C3605 H3628 0.950 . S
C3606 C3605 1.349 . S
C3606 C3618 1.349 . S
C3607 C3605 1.327 . S
C3607 C3623 1.429 . S
C3607 H3629 0.950 . S
C3608 H3604 0.949 . S
C3608 C3616 1.574 . S
C3608 C3624 1.368 . S
H3609 C3617 0.950 . S
H3610 C3615 0.950 . S
H3611 C3616 0.949 . S
H3612 C3618 0.950 . S
H3613 C3619 0.950 . S
H3614 C3620 0.949 . S
C3615 H3610 0.950 . S
C3615 C3617 1.327 . S
C3615 C3621 1.429 . S
C3616 C3608 1.574 . S
C3616 H3611 0.949 . S
C3616 C3622 1.368 . S
C3617 C3601 1.349 . S
C3617 H3609 0.950 . S
C3617 C3615 1.327 . S
C3618 C3606 1.349 . S
C3618 H3612 0.950 . S
C3618 C3619 1.327 . S
C3619 H3613 0.950 . S
C3619 C3618 1.327 . S
C3619 C3623 1.429 . S
C3620 C3603 1.574 . S
C3620 H3614 0.949 . S
C3620 C3624 1.368 . S
C3621 C3602 1.429 . S
C3621 C3615 1.429 . S
C3621 C3622 1.523 . S
C3622 C3603 1.368 . S
C3622 C3616 1.368 . S
C3622 C3621 1.523 . S
C3623 C3607 1.429 . S
C3623 C3619 1.429 . S
C3623 C3624 1.523 . S
C3624 C3608 1.368 . S
C3624 C3620 1.368 . S
C3624 C3623 1.523 . S
H3625 C3600 0.950 . S
H3626 C3602 0.950 . S
H3627 C3603 0.949 . S
H3628 C3605 0.950 . S
H3629 C3607 0.950 . S
C3630 C3631 1.349 . S
C3630 C3632 1.327 . S
C3630 H3655 0.950 . S
C3631 C3630 1.349 . S
C3631 C3647 1.349 . S
C3632 C3630 1.327 . S
C3632 C3651 1.429 . S
C3632 H3656 0.950 . S
C3633 C3650 1.574 . S
C3633 C3652 1.368 . S
C3633 H3657 0.949 . S
H3634 C3638 0.949 . S
C3635 C3636 1.349 . S
C3635 C3637 1.327 . S
C3635 H3658 0.950 . S
C3636 C3635 1.349 . S
C3636 C3648 1.349 . S
C3637 C3635 1.327 . S
C3637 C3653 1.429 . S
C3637 H3659 0.950 . S
C3638 H3634 0.949 . S
C3638 C3646 1.574 . S
C3638 C3654 1.368 . S
H3639 C3647 0.950 . S
H3640 C3645 0.950 . S
H3641 C3646 0.949 . S
H3642 C3648 0.950 . S
H3643 C3649 0.950 . S
H3644 C3650 0.949 . S
C3645 H3640 0.950 . S
C3645 C3647 1.327 . S
C3645 C3651 1.429 . S
C3646 C3638 1.574 . S
C3646 H3641 0.949 . S
C3646 C3652 1.368 . S
C3647 C3631 1.349 . S
C3647 H3639 0.950 . S
C3647 C3645 1.327 . S
C3648 C3636 1.349 . S
C3648 H3642 0.950 . S
C3648 C3649 1.327 . S
C3649 H3643 0.950 . S
C3649 C3648 1.327 . S
C3649 C3653 1.429 . S
C3650 C3633 1.574 . S
C3650 H3644 0.949 . S
C3650 C3654 1.368 . S
C3651 C3632 1.429 . S
C3651 C3645 1.429 . S
C3651 C3652 1.523 . S
C3652 C3633 1.368 . S
C3652 C3646 1.368 . S
C3652 C3651 1.523 . S
C3653 C3637 1.429 . S
C3653 C3649 1.429 . S
C3653 C3654 1.523 . S
C3654 C3638 1.368 . S
C3654 C3650 1.368 . S
C3654 C3653 1.523 . S
H3655 C3630 0.950 . S
H3656 C3632 0.950 . S
H3657 C3633 0.949 . S
H3658 C3635 0.950 . S
H3659 C3637 0.950 . S
C3660 C3661 1.349 . S
C3660 C3662 1.327 . S
C3660 H3685 0.950 . S
C3661 C3660 1.349 . S
C3661 C3677 1.349 . S
C3662 C3660 1.327 . S
C3662 C3681 1.429 . S
C3662 H3686 0.950 . S
C3663 C3680 1.574 . S
C3663 C3682 1.368 . S
C3663 H3687 0.949 . S
H3664 C3668 0.949 . S
C3665 C3666 1.349 . S
C3665 C3667 1.327 . S
C3665 H3688 0.950 . S
C3666 C3665 1.349 . S
C3666 C3678 1.349 . S
C3667 C3665 1.327 . S
C3667 C3683 1.429 . S
C3667 H3689 0.950 . S
C3668 H3664 0.949 . S
C3668 C3676 1.574 . S
C3668 C3684 1.368 . S
H3669 C3677 0.950 . S
H3670 C3675 0.950 . S
H3671 C3676 0.949 . S
H3672 C3678 0.950 . S
H3673 C3679 0.950 . S
H3674 C3680 0.949 . S
C3675 H3670 0.950 . S
C3675 C3677 1.327 . S
C3675 C3681 1.429 . S
C3676 C3668 1.574 . S
C3676 H3671 0.949 . S
C3676 C3682 1.368 . S
C3677 C3661 1.349 . S
C3677 H3669 0.950 . S
C3677 C3675 1.327 . S
C3678 C3666 1.349 . S
C3678 H3672 0.950 . S
C3678 C3679 1.327 . S
C3679 H3673 0.950 . S
C3679 C3678 1.327 . S
C3679 C3683 1.429 . S
C3680 C3663 1.574 . S
C3680 H3674 0.949 . S
C3680 C3684 1.368 . S
C3681 C3662 1.429 . S
C3681 C3675 1.429 . S
C3681 C3682 1.523 . S
C3682 C3663 1.368 . S
C3682 C3676 1.368 . S
C3682 C3681 1.523 . S
C3683 C3667 1.429 . S
C3683 C3679 1.429 . S
C3683 C3684 1.523 . S
C3684 C3668 1.368 . S
C3684 C3680 1.368 . S
C3684 C3683 1.523 . S
H3685 C3660 0.950 . S
H3686 C3662 0.950 . S
H3687 C3663 0.949 . S
H3688 C3665 0.950 . S
H3689 C3667 0.950 . S
C3690 C3691 1.349 . S
C3690 C3692 1.327 . S
C3690 H3715 0.950 . S
C3691 C3690 1.349 . S
C3691 C3707 1.349 . S
C3692 C3690 1.327 . S
C3692 C3711 1.429 . S
C3692 H3716 0.950 . S
C3693 C3710 1.574 . S
C3693 C3712 1.368 . S
C3693 H3717 0.949 . S
H3694 C3698 0.949 . S
C3695 C3696 1.349 . S
C3695 C3697 1.327 . S
C3695 H3718 0.950 . S
C3696 C3695 1.349 . S
C3696 C3708 1.349 . S
C3697 C3695 1.327 . S
C3697 C3713 1.429 . S
C3697 H3719 0.950 . S
C3698 H3694 0.949 . S
C3698 C3706 1.574 . S
C3698 C3714 1.368 . S
H3699 C3707 0.950 . S
H3700 C3705 0.950 . S
H3701 C3706 0.949 . S
H3702 C3708 0.950 . S
H3703 C3709 0.950 . S
H3704 C3710 0.949 . S
C3705 H3700 0.950 . S
C3705 C3707 1.327 . S
C3705 C3711 1.429 . S
C3706 C3698 1.574 . S
C3706 H3701 0.949 . S
C3706 C3712 1.368 . S
C3707 C3691 1.349 . S
C3707 H3699 0.950 . S
C3707 C3705 1.327 . S
C3708 C3696 1.349 . S
C3708 H3702 0.950 . S
C3708 C3709 1.327 . S
C3709 H3703 0.950 . S
C3709 C3708 1.327 . S
C3709 C3713 1.429 . S
C3710 C3693 1.574 . S
C3710 H3704 0.949 . S
C3710 C3714 1.368 . S
C3711 C3692 1.429 . S
C3711 C3705 1.429 . S
C3711 C3712 1.523 . S
C3712 C3693 1.368 . S
C3712 C3706 1.368 . S
C3712 C3711 1.523 . S
C3713 C3697 1.429 . S
C3713 C3709 1.429 . S
C3713 C3714 1.523 . S
C3714 C3698 1.368 . S
C3714 C3710 1.368 . S
C3714 C3713 1.523 . S
H3715 C3690 0.950 . S
H3716 C3692 0.950 . S
H3717 C3693 0.949 . S
H3718 C3695 0.950 . S
H3719 C3697 0.950 . S
C3720 C3721 1.349 . S
C3720 C3722 1.327 . S
C3720 H3745 0.950 . S
C3721 C3720 1.349 . S
C3721 C3737 1.349 . S
C3722 C3720 1.327 . S
C3722 C3741 1.429 . S
C3722 H3746 0.950 . S
C3723 C3740 1.574 . S
C3723 C3742 1.368 . S
C3723 H3747 0.949 . S
H3724 C3728 0.949 . S
C3725 C3726 1.349 1_545 S
C3725 C3727 1.327 . S
C3725 H3748 0.950 . S
C3726 C3725 1.349 1_565 S
C3726 C3738 1.349 . S
C3727 C3725 1.327 . S
C3727 C3743 1.429 . S
C3727 H3749 0.950 . S
C3728 H3724 0.949 . S
C3728 C3736 1.574 . S
C3728 C3744 1.368 . S
H3729 C3737 0.950 . S
H3730 C3735 0.950 . S
H3731 C3736 0.949 . S
H3732 C3738 0.950 . S
H3733 C3739 0.950 . S
H3734 C3740 0.949 . S
C3735 H3730 0.950 . S
C3735 C3737 1.327 . S
C3735 C3741 1.429 . S
C3736 C3728 1.574 . S
C3736 H3731 0.949 . S
C3736 C3742 1.368 . S
C3737 C3721 1.349 . S
C3737 H3729 0.950 . S
C3737 C3735 1.327 . S
C3738 C3726 1.349 . S
C3738 H3732 0.950 . S
C3738 C3739 1.327 1_565 S
C3739 H3733 0.950 . S
C3739 C3738 1.327 1_545 S
C3739 C3743 1.429 . S
C3740 C3723 1.574 . S
C3740 H3734 0.949 . S
C3740 C3744 1.368 . S
C3741 C3722 1.429 . S
C3741 C3735 1.429 . S
C3741 C3742 1.523 . S
C3742 C3723 1.368 . S
C3742 C3736 1.368 . S
C3742 C3741 1.523 . S
C3743 C3727 1.429 . S
C3743 C3739 1.429 . S
C3743 C3744 1.523 . S
C3744 C3728 1.368 . S
C3744 C3740 1.368 . S
C3744 C3743 1.523 . S
H3745 C3720 0.950 . S
H3746 C3722 0.950 . S
H3747 C3723 0.949 . S
H3748 C3725 0.950 . S
H3749 C3727 0.950 . S
C3750 C3751 1.349 . S
C3750 C3752 1.327 . S
C3750 H3775 0.950 . S
C3751 C3750 1.349 . S
C3751 C3767 1.349 . S
C3752 C3750 1.327 . S
C3752 C3771 1.429 . S
C3752 H3776 0.950 . S
C3753 C3770 1.574 . S
C3753 C3772 1.368 . S
C3753 H3777 0.949 . S
H3754 C3758 0.949 . S
C3755 C3756 1.349 . S
C3755 C3757 1.327 . S
C3755 H3778 0.950 . S
C3756 C3755 1.349 . S
C3756 C3768 1.349 . S
C3757 C3755 1.327 . S
C3757 C3773 1.429 . S
C3757 H3779 0.950 . S
C3758 H3754 0.949 . S
C3758 C3766 1.574 . S
C3758 C3774 1.368 . S
H3759 C3767 0.950 . S
H3760 C3765 0.950 . S
H3761 C3766 0.949 . S
H3762 C3768 0.950 . S
H3763 C3769 0.950 . S
H3764 C3770 0.949 . S
C3765 H3760 0.950 . S
C3765 C3767 1.327 . S
C3765 C3771 1.429 . S
C3766 C3758 1.574 . S
C3766 H3761 0.949 . S
C3766 C3772 1.368 . S
C3767 C3751 1.349 . S
C3767 H3759 0.950 . S
C3767 C3765 1.327 . S
C3768 C3756 1.349 . S
C3768 H3762 0.950 . S
C3768 C3769 1.327 . S
C3769 H3763 0.950 . S
C3769 C3768 1.327 . S
C3769 C3773 1.429 . S
C3770 C3753 1.574 . S
C3770 H3764 0.949 . S
C3770 C3774 1.368 . S
C3771 C3752 1.429 . S
C3771 C3765 1.429 . S
C3771 C3772 1.523 . S
C3772 C3753 1.368 . S
C3772 C3766 1.368 . S
C3772 C3771 1.523 . S
C3773 C3757 1.429 . S
C3773 C3769 1.429 . S
C3773 C3774 1.523 . S
C3774 C3758 1.368 . S
C3774 C3770 1.368 . S
C3774 C3773 1.523 . S
H3775 C3750 0.950 . S
H3776 C3752 0.950 . S
H3777 C3753 0.949 . S
H3778 C3755 0.950 . S
H3779 C3757 0.950 . S
C3780 C3781 1.349 . S
C3780 C3782 1.327 . S
C3780 H3805 0.950 . S
C3781 C3780 1.349 . S
C3781 C3797 1.349 . S
C3782 C3780 1.327 . S
C3782 C3801 1.429 . S
C3782 H3806 0.950 . S
C3783 C3800 1.574 . S
C3783 C3802 1.368 . S
C3783 H3807 0.949 . S
H3784 C3788 0.949 . S
C3785 C3786 1.349 . S
C3785 C3787 1.327 . S
C3785 H3808 0.950 . S
C3786 C3785 1.349 . S
C3786 C3798 1.349 . S
C3787 C3785 1.327 . S
C3787 C3803 1.429 . S
C3787 H3809 0.950 . S
C3788 H3784 0.949 . S
C3788 C3796 1.574 . S
C3788 C3804 1.368 . S
H3789 C3797 0.950 . S
H3790 C3795 0.950 . S
H3791 C3796 0.949 . S
H3792 C3798 0.950 . S
H3793 C3799 0.950 . S
H3794 C3800 0.949 . S
C3795 H3790 0.950 . S
C3795 C3797 1.327 . S
C3795 C3801 1.429 . S
C3796 C3788 1.574 . S
C3796 H3791 0.949 . S
C3796 C3802 1.368 . S
C3797 C3781 1.349 . S
C3797 H3789 0.950 . S
C3797 C3795 1.327 . S
C3798 C3786 1.349 . S
C3798 H3792 0.950 . S
C3798 C3799 1.327 . S
C3799 H3793 0.950 . S
C3799 C3798 1.327 . S
C3799 C3803 1.429 . S
C3800 C3783 1.574 . S
C3800 H3794 0.949 . S
C3800 C3804 1.368 . S
C3801 C3782 1.429 . S
C3801 C3795 1.429 . S
C3801 C3802 1.523 . S
C3802 C3783 1.368 . S
C3802 C3796 1.368 . S
C3802 C3801 1.523 . S
C3803 C3787 1.429 . S
C3803 C3799 1.429 . S
C3803 C3804 1.523 . S
C3804 C3788 1.368 . S
C3804 C3800 1.368 . S
C3804 C3803 1.523 . S
H3805 C3780 0.950 . S
H3806 C3782 0.950 . S
H3807 C3783 0.949 . S
H3808 C3785 0.950 . S
H3809 C3787 0.950 . S
C3810 C3811 1.349 . S
C3810 C3812 1.327 . S
C3810 H3835 0.950 . S
C3811 C3810 1.349 . S
C3811 C3827 1.349 . S
C3812 C3810 1.327 . S
C3812 C3831 1.429 . S
C3812 H3836 0.950 . S
C3813 C3830 1.574 . S
C3813 C3832 1.368 . S
C3813 H3837 0.949 . S
H3814 C3818 0.949 . S
C3815 C3816 1.349 . S
C3815 C3817 1.327 . S
C3815 H3838 0.950 . S
C3816 C3815 1.349 . S
C3816 C3828 1.349 . S
C3817 C3815 1.327 . S
C3817 C3833 1.429 . S
C3817 H3839 0.950 . S
C3818 H3814 0.949 . S
C3818 C3826 1.574 . S
C3818 C3834 1.368 . S
H3819 C3827 0.950 . S
H3820 C3825 0.950 . S
H3821 C3826 0.949 . S
H3822 C3828 0.950 . S
H3823 C3829 0.950 . S
H3824 C3830 0.949 . S
C3825 H3820 0.950 . S
C3825 C3827 1.327 . S
C3825 C3831 1.429 . S
C3826 C3818 1.574 . S
C3826 H3821 0.949 . S
C3826 C3832 1.368 . S
C3827 C3811 1.349 . S
C3827 H3819 0.950 . S
C3827 C3825 1.327 . S
C3828 C3816 1.349 . S
C3828 H3822 0.950 . S
C3828 C3829 1.327 . S
C3829 H3823 0.950 . S
C3829 C3828 1.327 . S
C3829 C3833 1.429 . S
C3830 C3813 1.574 . S
C3830 H3824 0.949 . S
C3830 C3834 1.368 . S
C3831 C3812 1.429 . S
C3831 C3825 1.429 . S
C3831 C3832 1.523 . S
C3832 C3813 1.368 . S
C3832 C3826 1.368 . S
C3832 C3831 1.523 . S
C3833 C3817 1.429 . S
C3833 C3829 1.429 . S
C3833 C3834 1.523 . S
C3834 C3818 1.368 . S
C3834 C3830 1.368 . S
C3834 C3833 1.523 . S
H3835 C3810 0.950 . S
H3836 C3812 0.950 . S
H3837 C3813 0.949 . S
H3838 C3815 0.950 . S
H3839 C3817 0.950 . S
C3840 C3841 1.349 . S
C3840 C3842 1.327 . S
C3840 H3865 0.950 . S
C3841 C3840 1.349 . S
C3841 C3857 1.349 . S
C3842 C3840 1.327 . S
C3842 C3861 1.429 . S
C3842 H3866 0.950 . S
C3843 C3860 1.574 . S
C3843 C3862 1.368 . S
C3843 H3867 0.949 . S
H3844 C3848 0.949 . S
C3845 C3846 1.349 . S
C3845 C3847 1.327 . S
C3845 H3868 0.950 . S
C3846 C3845 1.349 . S
C3846 C3858 1.349 . S
C3847 C3845 1.327 . S
C3847 C3863 1.429 . S
C3847 H3869 0.950 . S
C3848 H3844 0.949 . S
C3848 C3856 1.574 . S
C3848 C3864 1.368 . S
H3849 C3857 0.950 . S
H3850 C3855 0.950 . S
H3851 C3856 0.949 . S
H3852 C3858 0.950 . S
H3853 C3859 0.950 . S
H3854 C3860 0.949 . S
C3855 H3850 0.950 . S
C3855 C3857 1.327 . S
C3855 C3861 1.429 . S
C3856 C3848 1.574 . S
C3856 H3851 0.949 . S
C3856 C3862 1.368 . S
C3857 C3841 1.349 . S
C3857 H3849 0.950 . S
C3857 C3855 1.327 . S
C3858 C3846 1.349 . S
C3858 H3852 0.950 . S
C3858 C3859 1.327 . S
C3859 H3853 0.950 . S
C3859 C3858 1.327 . S
C3859 C3863 1.429 . S
C3860 C3843 1.574 . S
C3860 H3854 0.949 . S
C3860 C3864 1.368 . S
C3861 C3842 1.429 . S
C3861 C3855 1.429 . S
C3861 C3862 1.523 . S
C3862 C3843 1.368 . S
C3862 C3856 1.368 . S
C3862 C3861 1.523 . S
C3863 C3847 1.429 . S
C3863 C3859 1.429 . S
C3863 C3864 1.523 . S
C3864 C3848 1.368 . S
C3864 C3860 1.368 . S
C3864 C3863 1.523 . S
H3865 C3840 0.950 . S
H3866 C3842 0.950 . S
H3867 C3843 0.949 . S
H3868 C3845 0.950 . S
H3869 C3847 0.950 . S
C3870 C3871 1.349 . S
C3870 C3872 1.327 . S
C3870 H3895 0.950 . S
C3871 C3870 1.349 . S
C3871 C3887 1.349 . S
C3872 C3870 1.327 . S
C3872 C3891 1.429 . S
C3872 H3896 0.950 . S
C3873 C3890 1.574 . S
C3873 C3892 1.368 . S
C3873 H3897 0.949 . S
H3874 C3878 0.949 . S
C3875 C3876 1.349 . S
C3875 C3877 1.327 . S
C3875 H3898 0.950 . S
C3876 C3875 1.349 . S
C3876 C3888 1.349 . S
C3877 C3875 1.327 . S
C3877 C3893 1.429 . S
C3877 H3899 0.950 . S
C3878 H3874 0.949 . S
C3878 C3886 1.574 . S
C3878 C3894 1.368 . S
H3879 C3887 0.950 . S
H3880 C3885 0.950 . S
H3881 C3886 0.949 . S
H3882 C3888 0.950 . S
H3883 C3889 0.950 . S
H3884 C3890 0.949 . S
C3885 H3880 0.950 . S
C3885 C3887 1.327 . S
C3885 C3891 1.429 . S
C3886 C3878 1.574 . S
C3886 H3881 0.949 . S
C3886 C3892 1.368 . S
C3887 C3871 1.349 . S
C3887 H3879 0.950 . S
C3887 C3885 1.327 . S
C3888 C3876 1.349 . S
C3888 H3882 0.950 . S
C3888 C3889 1.327 . S
C3889 H3883 0.950 . S
C3889 C3888 1.327 . S
C3889 C3893 1.429 . S
C3890 C3873 1.574 . S
C3890 H3884 0.949 . S
C3890 C3894 1.368 . S
C3891 C3872 1.429 . S
C3891 C3885 1.429 . S
C3891 C3892 1.523 . S
C3892 C3873 1.368 . S
C3892 C3886 1.368 . S
C3892 C3891 1.523 . S
C3893 C3877 1.429 . S
C3893 C3889 1.429 . S
C3893 C3894 1.523 . S
C3894 C3878 1.368 . S
C3894 C3890 1.368 . S
C3894 C3893 1.523 . S
H3895 C3870 0.950 . S
H3896 C3872 0.950 . S
H3897 C3873 0.949 . S
H3898 C3875 0.950 . S
H3899 C3877 0.950 . S
C3900 C3901 1.349 . S
C3900 C3902 1.327 . S
C3900 H3925 0.950 . S
C3901 C3900 1.349 . S
C3901 C3917 1.349 . S
C3902 C3900 1.327 . S
C3902 C3921 1.429 . S
C3902 H3926 0.950 . S
C3903 C3920 1.574 . S
C3903 C3922 1.368 . S
C3903 H3927 0.949 . S
H3904 C3908 0.949 . S
C3905 C3906 1.349 . S
C3905 C3907 1.327 . S
C3905 H3928 0.950 . S
C3906 C3905 1.349 . S
C3906 C3918 1.349 . S
C3907 C3905 1.327 . S
C3907 C3923 1.429 . S
C3907 H3929 0.950 . S
C3908 H3904 0.949 . S
C3908 C3916 1.574 . S
C3908 C3924 1.368 . S
H3909 C3917 0.950 . S
H3910 C3915 0.950 . S
H3911 C3916 0.949 . S
H3912 C3918 0.950 . S
H3913 C3919 0.950 . S
H3914 C3920 0.949 . S
C3915 H3910 0.950 . S
C3915 C3917 1.327 . S
C3915 C3921 1.429 . S
C3916 C3908 1.574 . S
C3916 H3911 0.949 . S
C3916 C3922 1.368 . S
C3917 C3901 1.349 . S
C3917 H3909 0.950 . S
C3917 C3915 1.327 . S
C3918 C3906 1.349 . S
C3918 H3912 0.950 . S
C3918 C3919 1.327 . S
C3919 H3913 0.950 . S
C3919 C3918 1.327 . S
C3919 C3923 1.429 . S
C3920 C3903 1.574 . S
C3920 H3914 0.949 . S
C3920 C3924 1.368 . S
C3921 C3902 1.429 . S
C3921 C3915 1.429 . S
C3921 C3922 1.523 . S
C3922 C3903 1.368 . S
C3922 C3916 1.368 . S
C3922 C3921 1.523 . S
C3923 C3907 1.429 . S
C3923 C3919 1.429 . S
C3923 C3924 1.523 . S
C3924 C3908 1.368 . S
C3924 C3920 1.368 . S
C3924 C3923 1.523 . S
H3925 C3900 0.950 . S
H3926 C3902 0.950 . S
H3927 C3903 0.949 . S
H3928 C3905 0.950 . S
H3929 C3907 0.950 . S
C3930 C3931 1.349 . S
C3930 C3932 1.327 . S
C3930 H3955 0.950 . S
C3931 C3930 1.349 . S
C3931 C3947 1.349 . S
C3932 C3930 1.327 . S
C3932 C3951 1.429 . S
C3932 H3956 0.950 . S
C3933 C3950 1.574 . S
C3933 C3952 1.368 . S
C3933 H3957 0.949 . S
H3934 C3938 0.949 . S
C3935 C3936 1.349 . S
C3935 C3937 1.327 . S
C3935 H3958 0.940 1_455 S
C3936 C3935 1.349 . S
C3936 C3948 1.349 . S
C3937 C3935 1.327 . S
C3937 C3953 1.429 . S
C3937 H3959 0.950 . S
C3938 H3934 0.949 . S
C3938 C3946 1.574 . S
C3938 C3954 1.368 . S
H3939 C3947 0.950 . S
H3940 C3945 0.950 . S
H3941 C3946 0.949 . S
H3942 C3948 0.950 . S
H3943 C3949 0.950 . S
H3944 C3950 0.949 . S
C3945 H3940 0.950 . S
C3945 C3947 1.327 . S
C3945 C3951 1.429 . S
C3946 C3938 1.574 . S
C3946 H3941 0.949 . S
C3946 C3952 1.368 . S
C3947 C3931 1.349 . S
C3947 H3939 0.950 . S
C3947 C3945 1.327 . S
C3948 C3936 1.349 . S
C3948 H3942 0.950 . S
C3948 C3949 1.327 . S
C3949 H3943 0.950 . S
C3949 C3948 1.327 . S
C3949 C3953 1.429 . S
C3950 C3933 1.574 . S
C3950 H3944 0.949 . S
C3950 C3954 1.368 . S
C3951 C3932 1.429 . S
C3951 C3945 1.429 . S
C3951 C3952 1.523 . S
C3952 C3933 1.368 . S
C3952 C3946 1.368 . S
C3952 C3951 1.523 . S
C3953 C3937 1.429 . S
C3953 C3949 1.429 . S
C3953 C3954 1.523 . S
C3954 C3938 1.368 . S
C3954 C3950 1.368 . S
C3954 C3953 1.523 . S
H3955 C3930 0.950 . S
H3956 C3932 0.950 . S
H3957 C3933 0.949 . S
H3958 C3935 0.940 1_655 S
H3959 C3937 0.950 . S
C3960 C3961 1.349 . S
C3960 C3962 1.327 . S
C3960 H3985 0.950 . S
C3961 C3960 1.349 . S
C3961 C3977 1.349 . S
C3962 C3960 1.327 . S
C3962 C3981 1.429 . S
C3962 H3986 0.950 . S
C3963 C3980 1.574 . S
C3963 C3982 1.368 . S
C3963 H3987 0.949 . S
H3964 C3968 0.949 . S
C3965 C3966 1.349 . S
C3965 C3967 1.327 . S
C3965 H3988 0.950 . S
C3966 C3965 1.349 . S
C3966 C3978 1.349 . S
C3967 C3965 1.327 . S
C3967 C3983 1.429 . S
C3967 H3989 0.950 . S
C3968 H3964 0.949 . S
C3968 C3976 1.574 . S
C3968 C3984 1.368 . S
H3969 C3977 0.950 . S
H3970 C3975 0.950 . S
H3971 C3976 0.949 . S
H3972 C3978 0.950 . S
H3973 C3979 0.950 . S
H3974 C3980 0.949 . S
C3975 H3970 0.950 . S
C3975 C3977 1.327 . S
C3975 C3981 1.429 . S
C3976 C3968 1.574 . S
C3976 H3971 0.949 . S
C3976 C3982 1.368 . S
C3977 C3961 1.349 . S
C3977 H3969 0.950 . S
C3977 C3975 1.327 . S
C3978 C3966 1.349 . S
C3978 H3972 0.950 . S
C3978 C3979 1.327 . S
C3979 H3973 0.950 . S
C3979 C3978 1.327 . S
C3979 C3983 1.429 . S
C3980 C3963 1.574 . S
C3980 H3974 0.949 . S
C3980 C3984 1.368 . S
C3981 C3962 1.429 . S
C3981 C3975 1.429 . S
C3981 C3982 1.523 . S
C3982 C3963 1.368 . S
C3982 C3976 1.368 . S
C3982 C3981 1.523 . S
C3983 C3967 1.429 . S
C3983 C3979 1.429 . S
C3983 C3984 1.523 . S
C3984 C3968 1.368 . S
C3984 C3980 1.368 . S
C3984 C3983 1.523 . S
H3985 C3960 0.950 . S
H3986 C3962 0.950 . S
H3987 C3963 0.949 . S
H3988 C3965 0.950 . S
H3989 C3967 0.950 . S
C3990 C3991 1.349 . S
C3990 C3992 1.327 . S
C3990 H4015 0.950 . S
C3991 C3990 1.349 . S
C3991 C4007 1.349 . S
C3992 C3990 1.327 . S
C3992 C4011 1.429 . S
C3992 H4016 0.950 . S
C3993 C4010 1.574 . S
C3993 C4012 1.368 . S
C3993 H4017 0.949 . S
H3994 C3998 0.949 . S
C3995 C3996 1.349 . S
C3995 C3997 1.327 . S
C3995 H4018 0.950 . S
C3996 C3995 1.349 . S
C3996 C4008 1.349 . S
C3997 C3995 1.327 . S
C3997 C4013 1.429 . S
C3997 H4019 0.950 . S
C3998 H3994 0.949 . S
C3998 C4006 1.574 . S
C3998 C4014 1.368 . S
H3999 C4007 0.950 . S
H4000 C4005 0.950 . S
H4001 C4006 0.949 . S
H4002 C4008 0.950 . S
H4003 C4009 0.950 . S
H4004 C4010 0.949 . S
C4005 H4000 0.950 . S
C4005 C4007 1.327 . S
C4005 C4011 1.429 . S
C4006 C3998 1.574 . S
C4006 H4001 0.949 . S
C4006 C4012 1.368 . S
C4007 C3991 1.349 . S
C4007 H3999 0.950 . S
C4007 C4005 1.327 . S
C4008 C3996 1.349 . S
C4008 H4002 0.950 . S
C4008 C4009 1.327 . S
C4009 H4003 0.950 . S
C4009 C4008 1.327 . S
C4009 C4013 1.429 . S
C4010 C3993 1.574 . S
C4010 H4004 0.949 . S
C4010 C4014 1.368 . S
C4011 C3992 1.429 . S
C4011 C4005 1.429 . S
C4011 C4012 1.523 . S
C4012 C3993 1.368 . S
C4012 C4006 1.368 . S
C4012 C4011 1.523 . S
C4013 C3997 1.429 . S
C4013 C4009 1.429 . S
C4013 C4014 1.523 . S
C4014 C3998 1.368 . S
C4014 C4010 1.368 . S
C4014 C4013 1.523 . S
H4015 C3990 0.950 . S
H4016 C3992 0.950 . S
H4017 C3993 0.949 . S
H4018 C3995 0.950 . S
H4019 C3997 0.950 . S
C4020 C4021 1.349 . S
C4020 C4022 1.327 . S
C4020 H4045 0.950 . S
C4021 C4020 1.349 . S
C4021 C4037 1.349 . S
C4022 C4020 1.327 . S
C4022 C4041 1.429 . S
C4022 H4046 0.950 . S
C4023 C4040 1.574 . S
C4023 C4042 1.368 . S
C4023 H4047 0.949 . S
H4024 C4028 0.949 . S
C4025 C4026 1.349 . S
C4025 C4027 1.327 . S
C4025 H4048 0.950 . S
C4026 C4025 1.349 . S
C4026 C4038 1.349 . S
C4027 C4025 1.327 . S
C4027 C4043 1.429 . S
C4027 H4049 0.950 . S
C4028 H4024 0.949 . S
C4028 C4036 1.574 . S
C4028 C4044 1.368 . S
H4029 C4037 0.950 . S
H4030 C4035 0.950 . S
H4031 C4036 0.949 . S
H4032 C4038 0.950 . S
H4033 C4039 0.950 . S
H4034 C4040 0.949 . S
C4035 H4030 0.950 . S
C4035 C4037 1.327 . S
C4035 C4041 1.429 . S
C4036 C4028 1.574 . S
C4036 H4031 0.949 . S
C4036 C4042 1.368 . S
C4037 C4021 1.349 . S
C4037 H4029 0.950 . S
C4037 C4035 1.327 . S
C4038 C4026 1.349 . S
C4038 H4032 0.950 . S
C4038 C4039 1.327 . S
C4039 H4033 0.950 . S
C4039 C4038 1.327 . S
C4039 C4043 1.429 . S
C4040 C4023 1.574 . S
C4040 H4034 0.949 . S
C4040 C4044 1.368 . S
C4041 C4022 1.429 . S
C4041 C4035 1.429 . S
C4041 C4042 1.523 . S
C4042 C4023 1.368 . S
C4042 C4036 1.368 . S
C4042 C4041 1.523 . S
C4043 C4027 1.429 . S
C4043 C4039 1.429 . S
C4043 C4044 1.523 . S
C4044 C4028 1.368 . S
C4044 C4040 1.368 . S
C4044 C4043 1.523 . S
H4045 C4020 0.950 . S
H4046 C4022 0.950 . S
H4047 C4023 0.949 . S
H4048 C4025 0.950 . S
H4049 C4027 0.950 . S
C4050 C4051 1.349 . S
C4050 C4052 1.327 . S
C4050 H4075 0.950 . S
C4051 C4050 1.349 . S
C4051 C4067 1.349 . S
C4052 C4050 1.327 . S
C4052 C4071 1.429 . S
C4052 H4076 0.950 . S
C4053 C4070 1.574 . S
C4053 C4072 1.368 . S
C4053 H4077 0.949 . S
H4054 C4058 0.949 . S
C4055 C4056 1.349 . S
C4055 C4057 1.327 . S
C4055 H4078 0.950 . S
C4056 C4055 1.349 . S
C4056 C4068 1.349 . S
C4057 C4055 1.327 . S
C4057 C4073 1.429 . S
C4057 H4079 0.950 . S
C4058 H4054 0.949 . S
C4058 C4066 1.574 . S
C4058 C4074 1.368 . S
H4059 C4067 0.950 . S
H4060 C4065 0.950 . S
H4061 C4066 0.949 . S
H4062 C4068 0.950 . S
H4063 C4069 0.950 . S
H4064 C4070 0.949 . S
C4065 H4060 0.950 . S
C4065 C4067 1.327 . S
C4065 C4071 1.429 . S
C4066 C4058 1.574 . S
C4066 H4061 0.949 . S
C4066 C4072 1.368 . S
C4067 C4051 1.349 . S
C4067 H4059 0.950 . S
C4067 C4065 1.327 . S
C4068 C4056 1.349 . S
C4068 H4062 0.950 . S
C4068 C4069 1.327 . S
C4069 H4063 0.950 . S
C4069 C4068 1.327 . S
C4069 C4073 1.429 . S
C4070 C4053 1.574 . S
C4070 H4064 0.949 . S
C4070 C4074 1.368 . S
C4071 C4052 1.429 . S
C4071 C4065 1.429 . S
C4071 C4072 1.523 . S
C4072 C4053 1.368 . S
C4072 C4066 1.368 . S
C4072 C4071 1.523 . S
C4073 C4057 1.429 . S
C4073 C4069 1.429 . S
C4073 C4074 1.523 . S
C4074 C4058 1.368 . S
C4074 C4070 1.368 . S
C4074 C4073 1.523 . S
H4075 C4050 0.950 . S
H4076 C4052 0.950 . S
H4077 C4053 0.949 . S
H4078 C4055 0.950 . S
H4079 C4057 0.950 . S
C4080 C4081 1.349 . S
C4080 C4082 1.327 . S
C4080 H4105 0.950 . S
C4081 C4080 1.349 . S
C4081 C4097 1.349 . S
C4082 C4080 1.327 . S
C4082 C4101 1.429 . S
C4082 H4106 0.950 . S
C4083 C4100 1.574 . S
C4083 C4102 1.368 . S
C4083 H4107 0.949 . S
H4084 C4088 0.949 . S
C4085 C4086 1.349 . S
C4085 C4087 1.327 . S
C4085 H4108 0.950 . S
C4086 C4085 1.349 . S
C4086 C4098 1.349 . S
C4087 C4085 1.327 . S
C4087 C4103 1.429 . S
C4087 H4109 0.950 . S
C4088 H4084 0.949 . S
C4088 C4096 1.574 . S
C4088 C4104 1.368 . S
H4089 C4097 0.950 . S
H4090 C4095 0.950 . S
H4091 C4096 0.949 . S
H4092 C4098 0.950 . S
H4093 C4099 0.950 . S
H4094 C4100 0.949 . S
C4095 H4090 0.950 . S
C4095 C4097 1.327 . S
C4095 C4101 1.429 . S
C4096 C4088 1.574 . S
C4096 H4091 0.949 . S
C4096 C4102 1.368 . S
C4097 C4081 1.349 . S
C4097 H4089 0.950 . S
C4097 C4095 1.327 . S
C4098 C4086 1.349 . S
C4098 H4092 0.950 . S
C4098 C4099 1.327 . S
C4099 H4093 0.950 . S
C4099 C4098 1.327 . S
C4099 C4103 1.429 . S
C4100 C4083 1.574 . S
C4100 H4094 0.949 . S
C4100 C4104 1.368 . S
C4101 C4082 1.429 . S
C4101 C4095 1.429 . S
C4101 C4102 1.523 . S
C4102 C4083 1.368 . S
C4102 C4096 1.368 . S
C4102 C4101 1.523 . S
C4103 C4087 1.429 . S
C4103 C4099 1.429 . S
C4103 C4104 1.523 . S
C4104 C4088 1.368 . S
C4104 C4100 1.368 . S
C4104 C4103 1.523 . S
H4105 C4080 0.950 . S
H4106 C4082 0.950 . S
H4107 C4083 0.949 . S
H4108 C4085 0.950 . S
H4109 C4087 0.950 . S
C4110 C4111 1.349 . S
C4110 C4112 1.327 . S
C4110 H4135 0.950 . S
C4111 C4110 1.349 . S
C4111 C4127 1.349 . S
C4112 C4110 1.327 . S
C4112 C4131 1.429 . S
C4112 H4136 0.950 . S
C4113 C4130 1.574 . S
C4113 C4132 1.368 . S
C4113 H4137 0.949 . S
H4114 C4118 0.949 . S
C4115 C4116 1.349 . S
C4115 C4117 1.327 . S
C4115 H4138 0.950 . S
C4116 C4115 1.349 . S
C4116 C4128 1.349 . S
C4117 C4115 1.327 . S
C4117 C4133 1.429 . S
C4117 H4139 0.950 . S
C4118 H4114 0.949 . S
C4118 C4126 1.574 . S
C4118 C4134 1.368 . S
H4119 C4127 0.950 . S
H4120 C4125 0.950 . S
H4121 C4126 0.949 . S
H4122 C4128 0.950 . S
H4123 C4129 0.950 . S
H4124 C4130 0.949 . S
C4125 H4120 0.950 . S
C4125 C4127 1.327 . S
C4125 C4131 1.429 . S
C4126 C4118 1.574 . S
C4126 H4121 0.949 . S
C4126 C4132 1.368 . S
C4127 C4111 1.349 . S
C4127 H4119 0.950 . S
C4127 C4125 1.327 . S
C4128 C4116 1.349 . S
C4128 H4122 0.950 . S
C4128 C4129 1.327 . S
C4129 H4123 0.950 . S
C4129 C4128 1.327 . S
C4129 C4133 1.429 . S
C4130 C4113 1.574 . S
C4130 H4124 0.949 . S
C4130 C4134 1.368 . S
C4131 C4112 1.429 . S
C4131 C4125 1.429 . S
C4131 C4132 1.523 . S
C4132 C4113 1.368 . S
C4132 C4126 1.368 . S
C4132 C4131 1.523 . S
C4133 C4117 1.429 . S
C4133 C4129 1.429 . S
C4133 C4134 1.523 . S
C4134 C4118 1.368 . S
C4134 C4130 1.368 . S
C4134 C4133 1.523 . S
H4135 C4110 0.950 . S
H4136 C4112 0.950 . S
H4137 C4113 0.949 . S
H4138 C4115 0.950 . S
H4139 C4117 0.950 . S
C4140 C4141 1.349 . S
C4140 C4142 1.327 . S
C4140 H4165 0.950 . S
C4141 C4140 1.349 . S
C4141 C4157 1.349 . S
C4142 C4140 1.327 . S
C4142 C4161 1.429 . S
C4142 H4166 0.950 . S
C4143 C4160 1.574 . S
C4143 C4162 1.368 . S
C4143 H4167 0.949 . S
H4144 C4148 0.949 . S
C4145 C4146 1.349 . S
C4145 C4147 1.327 . S
C4145 H4168 0.950 . S
C4146 C4145 1.349 . S
C4146 C4158 1.349 . S
C4147 C4145 1.327 . S
C4147 C4163 1.429 . S
C4147 H4169 0.950 . S
C4148 H4144 0.949 . S
C4148 C4156 1.574 . S
C4148 C4164 1.368 . S
H4149 C4157 0.950 . S
H4150 C4155 0.950 . S
H4151 C4156 0.949 . S
H4152 C4158 0.950 . S
H4153 C4159 0.950 . S
H4154 C4160 0.949 . S
C4155 H4150 0.950 . S
C4155 C4157 1.327 . S
C4155 C4161 1.429 . S
C4156 C4148 1.574 . S
C4156 H4151 0.949 . S
C4156 C4162 1.368 . S
C4157 C4141 1.349 . S
C4157 H4149 0.950 . S
C4157 C4155 1.327 . S
C4158 C4146 1.349 . S
C4158 H4152 0.950 . S
C4158 C4159 1.327 . S
C4159 H4153 0.950 . S
C4159 C4158 1.327 . S
C4159 C4163 1.429 . S
C4160 C4143 1.574 . S
C4160 H4154 0.949 . S
C4160 C4164 1.368 . S
C4161 C4142 1.429 . S
C4161 C4155 1.429 . S
C4161 C4162 1.523 . S
C4162 C4143 1.368 . S
C4162 C4156 1.368 . S
C4162 C4161 1.523 . S
C4163 C4147 1.429 . S
C4163 C4159 1.429 . S
C4163 C4164 1.523 . S
C4164 C4148 1.368 . S
C4164 C4160 1.368 . S
C4164 C4163 1.523 . S
H4165 C4140 0.950 . S
H4166 C4142 0.950 . S
H4167 C4143 0.949 . S
H4168 C4145 0.950 . S
H4169 C4147 0.950 . S
C4170 C4171 1.349 . S
C4170 C4172 1.327 . S
C4170 H4195 0.950 . S
C4171 C4170 1.349 . S
C4171 C4187 1.349 . S
C4172 C4170 1.327 . S
C4172 C4191 1.429 . S
C4172 H4196 0.950 . S
C4173 C4190 1.574 . S
C4173 C4192 1.368 . S
C4173 H4197 0.949 . S
H4174 C4178 0.949 . S
C4175 C4176 1.349 . S
C4175 C4177 1.327 . S
C4175 H4198 0.950 . S
C4176 C4175 1.349 . S
C4176 C4188 1.349 . S
C4177 C4175 1.327 . S
C4177 C4193 1.429 . S
C4177 H4199 0.950 . S
C4178 H4174 0.949 . S
C4178 C4186 1.574 . S
C4178 C4194 1.368 . S
H4179 C4187 0.950 . S
H4180 C4185 0.950 . S
H4181 C4186 0.949 . S
H4182 C4188 0.950 . S
H4183 C4189 0.950 . S
H4184 C4190 0.949 . S
C4185 H4180 0.950 . S
C4185 C4187 1.327 . S
C4185 C4191 1.429 . S
C4186 C4178 1.574 . S
C4186 H4181 0.949 . S
C4186 C4192 1.368 . S
C4187 C4171 1.349 . S
C4187 H4179 0.950 . S
C4187 C4185 1.327 . S
C4188 C4176 1.349 . S
C4188 H4182 0.950 . S
C4188 C4189 1.327 . S
C4189 H4183 0.950 . S
C4189 C4188 1.327 . S
C4189 C4193 1.429 . S
C4190 C4173 1.574 . S
C4190 H4184 0.949 . S
C4190 C4194 1.368 . S
C4191 C4172 1.429 . S
C4191 C4185 1.429 . S
C4191 C4192 1.523 . S
C4192 C4173 1.368 . S
C4192 C4186 1.368 . S
C4192 C4191 1.523 . S
C4193 C4177 1.429 . S
C4193 C4189 1.429 . S
C4193 C4194 1.523 . S
C4194 C4178 1.368 . S
C4194 C4190 1.368 . S
C4194 C4193 1.523 . S
H4195 C4170 0.950 . S
H4196 C4172 0.950 . S
H4197 C4173 0.949 . S
H4198 C4175 0.950 . S
H4199 C4177 0.950 . S
C4200 C4201 1.349 . S
C4200 C4202 1.327 . S
C4200 H4225 0.950 . S
C4201 C4200 1.349 . S
C4201 C4217 1.349 . S
C4202 C4200 1.327 . S
C4202 C4221 1.429 . S
C4202 H4226 0.950 . S
C4203 C4220 1.574 . S
C4203 C4222 1.368 . S
C4203 H4227 0.949 . S
H4204 C4208 0.949 . S
C4205 C4206 1.349 . S
C4205 C4207 1.327 . S
C4205 H4228 0.950 . S
C4206 C4205 1.349 . S
C4206 C4218 1.349 . S
C4207 C4205 1.327 . S
C4207 C4223 1.429 . S
C4207 H4229 0.950 . S
C4208 H4204 0.949 . S
C4208 C4216 1.574 . S
C4208 C4224 1.368 . S
H4209 C4217 0.950 . S
H4210 C4215 0.950 . S
H4211 C4216 0.949 . S
H4212 C4218 0.950 . S
H4213 C4219 0.950 . S
H4214 C4220 0.949 . S
C4215 H4210 0.950 . S
C4215 C4217 1.327 . S
C4215 C4221 1.429 . S
C4216 C4208 1.574 . S
C4216 H4211 0.949 . S
C4216 C4222 1.368 . S
C4217 C4201 1.349 . S
C4217 H4209 0.950 . S
C4217 C4215 1.327 . S
C4218 C4206 1.349 . S
C4218 H4212 0.950 . S
C4218 C4219 1.327 . S
C4219 H4213 0.950 . S
C4219 C4218 1.327 . S
C4219 C4223 1.429 . S
C4220 C4203 1.574 . S
C4220 H4214 0.949 . S
C4220 C4224 1.368 . S
C4221 C4202 1.429 . S
C4221 C4215 1.429 . S
C4221 C4222 1.523 . S
C4222 C4203 1.368 . S
C4222 C4216 1.368 . S
C4222 C4221 1.523 . S
C4223 C4207 1.429 . S
C4223 C4219 1.429 . S
C4223 C4224 1.523 . S
C4224 C4208 1.368 . S
C4224 C4220 1.368 . S
C4224 C4223 1.523 . S
H4225 C4200 0.950 . S
H4226 C4202 0.950 . S
H4227 C4203 0.949 . S
H4228 C4205 0.950 . S
H4229 C4207 0.950 . S
C4230 C4231 1.349 . S
C4230 C4232 1.327 . S
C4230 H4255 0.950 . S
C4231 C4230 1.349 . S
C4231 C4247 1.349 . S
C4232 C4230 1.327 . S
C4232 C4251 1.429 . S
C4232 H4256 0.950 . S
C4233 C4250 1.574 . S
C4233 C4252 1.368 . S
C4233 H4257 0.949 . S
H4234 C4238 0.949 . S
C4235 C4236 1.349 . S
C4235 C4237 1.327 . S
C4235 H4258 0.950 . S
C4236 C4235 1.349 . S
C4236 C4248 1.349 . S
C4237 C4235 1.327 . S
C4237 C4253 1.429 1_554 S
C4237 H4259 0.950 . S
C4238 H4234 0.949 . S
C4238 C4246 1.574 . S
C4238 C4254 1.368 . S
H4239 C4247 0.950 . S
H4240 C4245 0.950 . S
H4241 C4246 0.949 . S
H4242 C4248 0.952 . S
H4243 C4249 0.950 . S
H4244 C4250 0.945 1_554 S
C4245 H4240 0.950 . S
C4245 C4247 1.327 . S
C4245 C4251 1.429 . S
C4246 C4238 1.574 . S
C4246 H4241 0.949 . S
C4246 C4252 1.368 . S
C4247 C4231 1.349 . S
C4247 H4239 0.950 . S
C4247 C4245 1.327 . S
C4248 C4236 1.349 . S
C4248 H4242 0.952 . S
C4248 C4249 1.327 1_554 S
C4249 H4243 0.950 . S
C4249 C4248 1.327 1_556 S
C4249 C4253 1.429 . S
C4250 C4233 1.574 . S
C4250 H4244 0.945 1_556 S
C4250 C4254 1.368 . S
C4251 C4232 1.429 . S
C4251 C4245 1.429 . S
C4251 C4252 1.523 . S
C4252 C4233 1.368 . S
C4252 C4246 1.368 . S
C4252 C4251 1.523 . S
C4253 C4237 1.429 1_556 S
C4253 C4249 1.429 . S
C4253 C4254 1.523 . S
C4254 C4238 1.368 . S
C4254 C4250 1.368 . S
C4254 C4253 1.523 . S
H4255 C4230 0.950 . S
H4256 C4232 0.950 . S
H4257 C4233 0.949 . S
H4258 C4235 0.950 . S
H4259 C4237 0.950 . S
C4260 C4261 1.349 . S
C4260 C4262 1.327 . S
C4260 H4285 0.950 . S
C4261 C4260 1.349 . S
C4261 C4277 1.349 . S
C4262 C4260 1.327 . S
C4262 C4281 1.429 . S
C4262 H4286 0.950 . S
C4263 C4280 1.574 . S
C4263 C4282 1.368 . S
C4263 H4287 0.949 . S
H4264 C4268 0.949 . S
C4265 C4266 1.349 . S
C4265 C4267 1.327 . S
C4265 H4288 0.950 . S
C4266 C4265 1.349 . S
C4266 C4278 1.349 . S
C4267 C4265 1.327 . S
C4267 C4283 1.429 . S
C4267 H4289 0.950 . S
C4268 H4264 0.949 . S
C4268 C4276 1.574 . S
C4268 C4284 1.368 . S
H4269 C4277 0.950 . S
H4270 C4275 0.950 . S
H4271 C4276 0.949 . S
H4272 C4278 0.950 . S
H4273 C4279 0.950 . S
H4274 C4280 0.949 . S
C4275 H4270 0.950 . S
C4275 C4277 1.327 . S
C4275 C4281 1.429 . S
C4276 C4268 1.574 . S
C4276 H4271 0.949 . S
C4276 C4282 1.368 . S
C4277 C4261 1.349 . S
C4277 H4269 0.950 . S
C4277 C4275 1.327 . S
C4278 C4266 1.349 . S
C4278 H4272 0.950 . S
C4278 C4279 1.327 . S
C4279 H4273 0.950 . S
C4279 C4278 1.327 . S
C4279 C4283 1.429 . S
C4280 C4263 1.574 . S
C4280 H4274 0.949 . S
C4280 C4284 1.368 . S
C4281 C4262 1.429 . S
C4281 C4275 1.429 . S
C4281 C4282 1.523 . S
C4282 C4263 1.368 . S
C4282 C4276 1.368 . S
C4282 C4281 1.523 . S
C4283 C4267 1.429 . S
C4283 C4279 1.429 . S
C4283 C4284 1.523 . S
C4284 C4268 1.368 . S
C4284 C4280 1.368 . S
C4284 C4283 1.523 . S
H4285 C4260 0.950 . S
H4286 C4262 0.950 . S
H4287 C4263 0.949 . S
H4288 C4265 0.950 . S
H4289 C4267 0.950 . S
C4290 C4291 1.349 . S
C4290 C4292 1.327 . S
C4290 H4315 0.950 . S
C4291 C4290 1.349 . S
C4291 C4307 1.349 . S
C4292 C4290 1.327 . S
C4292 C4311 1.429 . S
C4292 H4316 0.950 . S
C4293 C4310 1.574 . S
C4293 C4312 1.368 . S
C4293 H4317 0.949 . S
H4294 C4298 0.949 . S
C4295 C4296 1.349 . S
C4295 C4297 1.327 . S
C4295 H4318 0.950 . S
C4296 C4295 1.349 . S
C4296 C4308 1.349 . S
C4297 C4295 1.327 . S
C4297 C4313 1.429 . S
C4297 H4319 0.950 . S
C4298 H4294 0.949 . S
C4298 C4306 1.574 . S
C4298 C4314 1.368 . S
H4299 C4307 0.950 . S
H4300 C4305 0.950 . S
H4301 C4306 0.949 . S
H4302 C4308 0.950 . S
H4303 C4309 0.950 . S
H4304 C4310 0.949 . S
C4305 H4300 0.950 . S
C4305 C4307 1.327 . S
C4305 C4311 1.429 . S
C4306 C4298 1.574 . S
C4306 H4301 0.949 . S
C4306 C4312 1.368 . S
C4307 C4291 1.349 . S
C4307 H4299 0.950 . S
C4307 C4305 1.327 . S
C4308 C4296 1.349 . S
C4308 H4302 0.950 . S
C4308 C4309 1.327 . S
C4309 H4303 0.950 . S
C4309 C4308 1.327 . S
C4309 C4313 1.429 . S
C4310 C4293 1.574 . S
C4310 H4304 0.949 . S
C4310 C4314 1.368 . S
C4311 C4292 1.429 . S
C4311 C4305 1.429 . S
C4311 C4312 1.523 . S
C4312 C4293 1.368 . S
C4312 C4306 1.368 . S
C4312 C4311 1.523 . S
C4313 C4297 1.429 . S
C4313 C4309 1.429 . S
C4313 C4314 1.523 . S
C4314 C4298 1.368 . S
C4314 C4310 1.368 . S
C4314 C4313 1.523 . S
H4315 C4290 0.950 . S
H4316 C4292 0.950 . S
H4317 C4293 0.949 . S
H4318 C4295 0.950 . S
H4319 C4297 0.950 . S
C4320 C4321 1.349 . S
C4320 C4322 1.327 . S
C4320 H4345 0.950 . S
C4321 C4320 1.349 . S
C4321 C4337 1.349 . S
C4322 C4320 1.327 . S
C4322 C4341 1.429 . S
C4322 H4346 0.950 . S
C4323 C4340 1.574 . S
C4323 C4342 1.368 . S
C4323 H4347 0.949 . S
H4324 C4328 0.949 . S
C4325 C4326 1.349 . S
C4325 C4327 1.327 . S
C4325 H4348 0.950 . S
C4326 C4325 1.349 . S
C4326 C4338 1.349 . S
C4327 C4325 1.327 . S
C4327 C4343 1.429 . S
C4327 H4349 0.950 . S
C4328 H4324 0.949 . S
C4328 C4336 1.574 . S
C4328 C4344 1.368 . S
H4329 C4337 0.950 . S
H4330 C4335 0.950 . S
H4331 C4336 0.949 . S
H4332 C4338 0.950 . S
H4333 C4339 0.950 . S
H4334 C4340 0.949 . S
C4335 H4330 0.950 . S
C4335 C4337 1.327 . S
C4335 C4341 1.429 . S
C4336 C4328 1.574 . S
C4336 H4331 0.949 . S
C4336 C4342 1.368 . S
C4337 C4321 1.349 . S
C4337 H4329 0.950 . S
C4337 C4335 1.327 . S
C4338 C4326 1.349 . S
C4338 H4332 0.950 . S
C4338 C4339 1.327 . S
C4339 H4333 0.950 . S
C4339 C4338 1.327 . S
C4339 C4343 1.429 . S
C4340 C4323 1.574 . S
C4340 H4334 0.949 . S
C4340 C4344 1.368 . S
C4341 C4322 1.429 . S
C4341 C4335 1.429 . S
C4341 C4342 1.523 . S
C4342 C4323 1.368 . S
C4342 C4336 1.368 . S
C4342 C4341 1.523 . S
C4343 C4327 1.429 . S
C4343 C4339 1.429 . S
C4343 C4344 1.523 . S
C4344 C4328 1.368 . S
C4344 C4340 1.368 . S
C4344 C4343 1.523 . S
H4345 C4320 0.950 . S
H4346 C4322 0.950 . S
H4347 C4323 0.949 . S
H4348 C4325 0.950 . S
H4349 C4327 0.950 . S
C4350 C4351 1.349 . S
C4350 C4352 1.327 . S
C4350 H4375 0.950 . S
C4351 C4350 1.349 . S
C4351 C4367 1.349 . S
C4352 C4350 1.327 . S
C4352 C4371 1.429 . S
C4352 H4376 0.950 . S
C4353 C4370 1.574 . S
C4353 C4372 1.368 . S
C4353 H4377 0.949 . S
H4354 C4358 0.949 . S
C4355 C4356 1.349 . S
C4355 C4357 1.327 . S
C4355 H4378 0.950 . S
C4356 C4355 1.349 . S
C4356 C4368 1.349 . S
C4357 C4355 1.327 . S
C4357 C4373 1.429 . S
C4357 H4379 0.950 . S
C4358 H4354 0.949 . S
C4358 C4366 1.574 . S
C4358 C4374 1.368 . S
H4359 C4367 0.950 . S
H4360 C4365 0.950 . S
H4361 C4366 0.949 . S
H4362 C4368 0.950 . S
H4363 C4369 0.950 . S
H4364 C4370 0.949 . S
C4365 H4360 0.950 . S
C4365 C4367 1.327 . S
C4365 C4371 1.429 . S
C4366 C4358 1.574 . S
C4366 H4361 0.949 . S
C4366 C4372 1.368 . S
C4367 C4351 1.349 . S
C4367 H4359 0.950 . S
C4367 C4365 1.327 . S
C4368 C4356 1.349 . S
C4368 H4362 0.950 . S
C4368 C4369 1.327 . S
C4369 H4363 0.950 . S
C4369 C4368 1.327 . S
C4369 C4373 1.429 . S
C4370 C4353 1.574 . S
C4370 H4364 0.949 . S
C4370 C4374 1.368 . S
C4371 C4352 1.429 . S
C4371 C4365 1.429 . S
C4371 C4372 1.523 . S
C4372 C4353 1.368 . S
C4372 C4366 1.368 . S
C4372 C4371 1.523 . S
C4373 C4357 1.429 . S
C4373 C4369 1.429 . S
C4373 C4374 1.523 . S
C4374 C4358 1.368 . S
C4374 C4370 1.368 . S
C4374 C4373 1.523 . S
H4375 C4350 0.950 . S
H4376 C4352 0.950 . S
H4377 C4353 0.949 . S
H4378 C4355 0.950 . S
H4379 C4357 0.950 . S
C4380 C4381 1.349 . S
C4380 C4382 1.327 . S
C4380 H4405 0.950 . S
C4381 C4380 1.349 . S
C4381 C4397 1.349 . S
C4382 C4380 1.327 . S
C4382 C4401 1.429 . S
C4382 H4406 0.950 . S
C4383 C4400 1.574 . S
C4383 C4402 1.368 . S
C4383 H4407 0.949 . S
H4384 C4388 0.949 . S
C4385 C4386 1.349 . S
C4385 C4387 1.327 . S
C4385 H4408 0.950 . S
C4386 C4385 1.349 . S
C4386 C4398 1.349 . S
C4387 C4385 1.327 . S
C4387 C4403 1.429 . S
C4387 H4409 0.950 . S
C4388 H4384 0.949 . S
C4388 C4396 1.574 . S
C4388 C4404 1.368 . S
H4389 C4397 0.950 . S
H4390 C4395 0.950 . S
H4391 C4396 0.949 . S
H4392 C4398 0.950 . S
H4393 C4399 0.950 . S
H4394 C4400 0.949 . S
C4395 H4390 0.950 . S
C4395 C4397 1.327 . S
C4395 C4401 1.429 . S
C4396 C4388 1.574 . S
C4396 H4391 0.949 . S
C4396 C4402 1.368 . S
C4397 C4381 1.349 . S
C4397 H4389 0.950 . S
C4397 C4395 1.327 . S
C4398 C4386 1.349 . S
C4398 H4392 0.950 . S
C4398 C4399 1.327 . S
C4399 H4393 0.950 . S
C4399 C4398 1.327 . S
C4399 C4403 1.429 . S
C4400 C4383 1.574 . S
C4400 H4394 0.949 . S
C4400 C4404 1.368 . S
C4401 C4382 1.429 . S
C4401 C4395 1.429 . S
C4401 C4402 1.523 . S
C4402 C4383 1.368 . S
C4402 C4396 1.368 . S
C4402 C4401 1.523 . S
C4403 C4387 1.429 . S
C4403 C4399 1.429 . S
C4403 C4404 1.523 . S
C4404 C4388 1.368 . S
C4404 C4400 1.368 . S
C4404 C4403 1.523 . S
H4405 C4380 0.950 . S
H4406 C4382 0.950 . S
H4407 C4383 0.949 . S
H4408 C4385 0.950 . S
H4409 C4387 0.950 . S
C4410 C4411 1.349 . S
C4410 C4412 1.327 . S
C4410 H4435 0.950 . S
C4411 C4410 1.349 . S
C4411 C4427 1.349 . S
C4412 C4410 1.327 . S
C4412 C4431 1.429 . S
C4412 H4436 0.950 . S
C4413 C4430 1.574 . S
C4413 C4432 1.368 . S
C4413 H4437 0.949 . S
H4414 C4418 0.949 . S
C4415 C4416 1.349 . S
C4415 C4417 1.327 . S
C4415 H4438 0.950 . S
C4416 C4415 1.349 . S
C4416 C4428 1.349 . S
C4417 C4415 1.327 . S
C4417 C4433 1.429 . S
C4417 H4439 0.950 . S
C4418 H4414 0.949 . S
C4418 C4426 1.574 . S
C4418 C4434 1.368 . S
H4419 C4427 0.950 . S
H4420 C4425 0.950 . S
H4421 C4426 0.949 . S
H4422 C4428 0.950 . S
H4423 C4429 0.950 . S
H4424 C4430 0.949 . S
C4425 H4420 0.950 . S
C4425 C4427 1.327 . S
C4425 C4431 1.429 . S
C4426 C4418 1.574 . S
C4426 H4421 0.949 . S
C4426 C4432 1.368 . S
C4427 C4411 1.349 . S
C4427 H4419 0.950 . S
C4427 C4425 1.327 . S
C4428 C4416 1.349 . S
C4428 H4422 0.950 . S
C4428 C4429 1.327 . S
C4429 H4423 0.950 . S
C4429 C4428 1.327 . S
C4429 C4433 1.429 . S
C4430 C4413 1.574 . S
C4430 H4424 0.949 . S
C4430 C4434 1.368 . S
C4431 C4412 1.429 . S
C4431 C4425 1.429 . S
C4431 C4432 1.523 . S
C4432 C4413 1.368 . S
C4432 C4426 1.368 . S
C4432 C4431 1.523 . S
C4433 C4417 1.429 . S
C4433 C4429 1.429 . S
C4433 C4434 1.523 . S
C4434 C4418 1.368 . S
C4434 C4430 1.368 . S
C4434 C4433 1.523 . S
H4435 C4410 0.950 . S
H4436 C4412 0.950 . S
H4437 C4413 0.949 . S
H4438 C4415 0.950 . S
H4439 C4417 0.950 . S
C4440 C4441 1.349 . S
C4440 C4442 1.327 . S
C4440 H4465 0.950 . S
C4441 C4440 1.349 . S
C4441 C4457 1.349 . S
C4442 C4440 1.327 . S
C4442 C4461 1.429 . S
C4442 H4466 0.950 . S
C4443 C4460 1.574 . S
C4443 C4462 1.368 . S
C4443 H4467 0.949 . S
H4444 C4448 0.949 . S
C4445 C4446 1.349 . S
C4445 C4447 1.327 . S
C4445 H4468 0.950 . S
C4446 C4445 1.349 . S
C4446 C4458 1.349 . S
C4447 C4445 1.327 . S
C4447 C4463 1.429 . S
C4447 H4469 0.950 . S
C4448 H4444 0.949 . S
C4448 C4456 1.574 . S
C4448 C4464 1.368 . S
H4449 C4457 0.950 . S
H4450 C4455 0.950 . S
H4451 C4456 0.949 . S
H4452 C4458 0.950 . S
H4453 C4459 0.950 . S
H4454 C4460 0.949 . S
C4455 H4450 0.950 . S
C4455 C4457 1.327 . S
C4455 C4461 1.429 . S
C4456 C4448 1.574 . S
C4456 H4451 0.949 . S
C4456 C4462 1.368 . S
C4457 C4441 1.349 . S
C4457 H4449 0.950 . S
C4457 C4455 1.327 . S
C4458 C4446 1.349 . S
C4458 H4452 0.950 . S
C4458 C4459 1.327 . S
C4459 H4453 0.950 . S
C4459 C4458 1.327 . S
C4459 C4463 1.429 . S
C4460 C4443 1.574 . S
C4460 H4454 0.949 . S
C4460 C4464 1.368 . S
C4461 C4442 1.429 . S
C4461 C4455 1.429 . S
C4461 C4462 1.523 . S
C4462 C4443 1.368 . S
C4462 C4456 1.368 . S
C4462 C4461 1.523 . S
C4463 C4447 1.429 . S
C4463 C4459 1.429 . S
C4463 C4464 1.523 . S
C4464 C4448 1.368 . S
C4464 C4460 1.368 . S
C4464 C4463 1.523 . S
H4465 C4440 0.950 . S
H4466 C4442 0.950 . S
H4467 C4443 0.949 . S
H4468 C4445 0.950 . S
H4469 C4447 0.950 . S
C4470 C4471 1.349 . S
C4470 C4472 1.327 . S
C4470 H4495 0.950 . S
C4471 C4470 1.349 . S
C4471 C4487 1.349 . S
C4472 C4470 1.327 . S
C4472 C4491 1.429 . S
C4472 H4496 0.950 . S
C4473 C4490 1.574 . S
C4473 C4492 1.368 . S
C4473 H4497 0.949 . S
H4474 C4478 0.949 . S
C4475 C4476 1.349 . S
C4475 C4477 1.327 . S
C4475 H4498 0.950 . S
C4476 C4475 1.349 . S
C4476 C4488 1.349 . S
C4477 C4475 1.327 . S
C4477 C4493 1.429 . S
C4477 H4499 0.950 . S
C4478 H4474 0.949 . S
C4478 C4486 1.574 . S
C4478 C4494 1.368 . S
H4479 C4487 0.950 . S
H4480 C4485 0.950 . S
H4481 C4486 0.949 . S
H4482 C4488 0.950 . S
H4483 C4489 0.950 . S
H4484 C4490 0.949 . S
C4485 H4480 0.950 . S
C4485 C4487 1.327 . S
C4485 C4491 1.429 . S
C4486 C4478 1.574 . S
C4486 H4481 0.949 . S
C4486 C4492 1.368 . S
C4487 C4471 1.349 . S
C4487 H4479 0.950 . S
C4487 C4485 1.327 . S
C4488 C4476 1.349 . S
C4488 H4482 0.950 . S
C4488 C4489 1.327 . S
C4489 H4483 0.950 . S
C4489 C4488 1.327 . S
C4489 C4493 1.429 . S
C4490 C4473 1.574 . S
C4490 H4484 0.949 . S
C4490 C4494 1.368 . S
C4491 C4472 1.429 . S
C4491 C4485 1.429 . S
C4491 C4492 1.523 . S
C4492 C4473 1.368 . S
C4492 C4486 1.368 . S
C4492 C4491 1.523 . S
C4493 C4477 1.429 . S
C4493 C4489 1.429 . S
C4493 C4494 1.523 . S
C4494 C4478 1.368 . S
C4494 C4490 1.368 . S
C4494 C4493 1.523 . S
H4495 C4470 0.950 . S
H4496 C4472 0.950 . S
H4497 C4473 0.949 . S
H4498 C4475 0.950 . S
H4499 C4477 0.950 . S
C4500 C4501 1.349 . S
C4500 C4502 1.327 . S
C4500 H4525 0.950 . S
C4501 C4500 1.349 . S
C4501 C4517 1.349 . S
C4502 C4500 1.327 . S
C4502 C4521 1.429 . S
C4502 H4526 0.950 . S
C4503 C4520 1.574 . S
C4503 C4522 1.368 . S
C4503 H4527 0.949 . S
H4504 C4508 0.949 . S
C4505 C4506 1.349 . S
C4505 C4507 1.327 . S
C4505 H4528 0.950 . S
C4506 C4505 1.349 . S
C4506 C4518 1.349 . S
C4507 C4505 1.327 . S
C4507 C4523 1.429 . S
C4507 H4529 0.950 . S
C4508 H4504 0.949 . S
C4508 C4516 1.574 . S
C4508 C4524 1.368 . S
H4509 C4517 0.950 . S
H4510 C4515 0.950 . S
H4511 C4516 0.949 . S
H4512 C4518 0.950 1_545 S
H4513 C4519 0.950 . S
H4514 C4520 0.949 . S
C4515 H4510 0.950 . S
C4515 C4517 1.327 . S
C4515 C4521 1.429 . S
C4516 C4508 1.574 . S
C4516 H4511 0.949 . S
C4516 C4522 1.368 . S
C4517 C4501 1.349 . S
C4517 H4509 0.950 . S
C4517 C4515 1.327 . S
C4518 C4506 1.349 . S
C4518 H4512 0.950 1_565 S
C4518 C4519 1.327 . S
C4519 H4513 0.950 . S
C4519 C4518 1.327 . S
C4519 C4523 1.429 . S
C4520 C4503 1.574 . S
C4520 H4514 0.949 . S
C4520 C4524 1.368 . S
C4521 C4502 1.429 . S
C4521 C4515 1.429 . S
C4521 C4522 1.523 . S
C4522 C4503 1.368 . S
C4522 C4516 1.368 . S
C4522 C4521 1.523 . S
C4523 C4507 1.429 . S
C4523 C4519 1.429 . S
C4523 C4524 1.523 . S
C4524 C4508 1.368 . S
C4524 C4520 1.368 . S
C4524 C4523 1.523 . S
H4525 C4500 0.950 . S
H4526 C4502 0.950 . S
H4527 C4503 0.949 . S
H4528 C4505 0.950 . S
H4529 C4507 0.950 . S
C4530 C4531 1.349 . S
C4530 C4532 1.327 . S
C4530 H4555 0.950 . S
C4531 C4530 1.349 . S
C4531 C4547 1.349 . S
C4532 C4530 1.327 . S
C4532 C4551 1.429 . S
C4532 H4556 0.950 . S
C4533 C4550 1.574 . S
C4533 C4552 1.368 . S
C4533 H4557 0.949 . S
H4534 C4538 0.949 . S
C4535 C4536 1.349 . S
C4535 C4537 1.327 . S
C4535 H4558 0.950 . S
C4536 C4535 1.349 . S
C4536 C4548 1.349 . S
C4537 C4535 1.327 . S
C4537 C4553 1.429 . S
C4537 H4559 0.950 . S
C4538 H4534 0.949 . S
C4538 C4546 1.574 . S
C4538 C4554 1.368 . S
H4539 C4547 0.950 . S
H4540 C4545 0.950 . S
H4541 C4546 0.949 . S
H4542 C4548 0.950 . S
H4543 C4549 0.950 . S
H4544 C4550 0.949 . S
C4545 H4540 0.950 . S
C4545 C4547 1.327 . S
C4545 C4551 1.429 . S
C4546 C4538 1.574 . S
C4546 H4541 0.949 . S
C4546 C4552 1.368 . S
C4547 C4531 1.349 . S
C4547 H4539 0.950 . S
C4547 C4545 1.327 . S
C4548 C4536 1.349 . S
C4548 H4542 0.950 . S
C4548 C4549 1.327 . S
C4549 H4543 0.950 . S
C4549 C4548 1.327 . S
C4549 C4553 1.429 . S
C4550 C4533 1.574 . S
C4550 H4544 0.949 . S
C4550 C4554 1.368 . S
C4551 C4532 1.429 . S
C4551 C4545 1.429 . S
C4551 C4552 1.523 . S
C4552 C4533 1.368 . S
C4552 C4546 1.368 . S
C4552 C4551 1.523 . S
C4553 C4537 1.429 . S
C4553 C4549 1.429 . S
C4553 C4554 1.523 . S
C4554 C4538 1.368 . S
C4554 C4550 1.368 . S
C4554 C4553 1.523 . S
H4555 C4530 0.950 . S
H4556 C4532 0.950 . S
H4557 C4533 0.949 . S
H4558 C4535 0.950 . S
H4559 C4537 0.950 . S
C4560 C4561 1.349 . S
C4560 C4562 1.327 . S
C4560 H4585 0.950 . S
C4561 C4560 1.349 . S
C4561 C4577 1.349 . S
C4562 C4560 1.327 . S
C4562 C4581 1.429 . S
C4562 H4586 0.950 . S
C4563 C4580 1.574 . S
C4563 C4582 1.368 . S
C4563 H4587 0.949 . S
H4564 C4568 0.949 . S
C4565 C4566 1.349 . S
C4565 C4567 1.327 . S
C4565 H4588 0.950 . S
C4566 C4565 1.349 . S
C4566 C4578 1.349 . S
C4567 C4565 1.327 . S
C4567 C4583 1.429 . S
C4567 H4589 0.950 . S
C4568 H4564 0.949 . S
C4568 C4576 1.574 . S
C4568 C4584 1.368 . S
H4569 C4577 0.950 . S
H4570 C4575 0.950 . S
H4571 C4576 0.949 . S
H4572 C4578 0.950 . S
H4573 C4579 0.950 . S
H4574 C4580 0.949 . S
C4575 H4570 0.950 . S
C4575 C4577 1.327 . S
C4575 C4581 1.429 . S
C4576 C4568 1.574 . S
C4576 H4571 0.949 . S
C4576 C4582 1.368 . S
C4577 C4561 1.349 . S
C4577 H4569 0.950 . S
C4577 C4575 1.327 . S
C4578 C4566 1.349 . S
C4578 H4572 0.950 . S
C4578 C4579 1.327 . S
C4579 H4573 0.950 . S
C4579 C4578 1.327 . S
C4579 C4583 1.429 . S
C4580 C4563 1.574 . S
C4580 H4574 0.949 . S
C4580 C4584 1.368 . S
C4581 C4562 1.429 . S
C4581 C4575 1.429 . S
C4581 C4582 1.523 . S
C4582 C4563 1.368 . S
C4582 C4576 1.368 . S
C4582 C4581 1.523 . S
C4583 C4567 1.429 . S
C4583 C4579 1.429 . S
C4583 C4584 1.523 . S
C4584 C4568 1.368 . S
C4584 C4580 1.368 . S
C4584 C4583 1.523 . S
H4585 C4560 0.950 . S
H4586 C4562 0.950 . S
H4587 C4563 0.949 . S
H4588 C4565 0.950 . S
H4589 C4567 0.950 . S
C4590 C4591 1.349 . S
C4590 C4592 1.327 . S
C4590 H4615 0.950 . S
C4591 C4590 1.349 . S
C4591 C4607 1.349 . S
C4592 C4590 1.327 . S
C4592 C4611 1.429 . S
C4592 H4616 0.950 . S
C4593 C4610 1.574 . S
C4593 C4612 1.368 . S
C4593 H4617 0.949 . S
H4594 C4598 0.949 . S
C4595 C4596 1.349 . S
C4595 C4597 1.327 . S
C4595 H4618 0.950 . S
C4596 C4595 1.349 . S
C4596 C4608 1.349 . S
C4597 C4595 1.327 . S
C4597 C4613 1.429 . S
C4597 H4619 0.950 . S
C4598 H4594 0.949 . S
C4598 C4606 1.574 . S
C4598 C4614 1.368 . S
H4599 C4607 0.950 . S
H4600 C4605 0.950 . S
H4601 C4606 0.949 . S
H4602 C4608 0.950 . S
H4603 C4609 0.950 . S
H4604 C4610 0.949 . S
C4605 H4600 0.950 . S
C4605 C4607 1.327 . S
C4605 C4611 1.429 . S
C4606 C4598 1.574 . S
C4606 H4601 0.949 . S
C4606 C4612 1.368 . S
C4607 C4591 1.349 . S
C4607 H4599 0.950 . S
C4607 C4605 1.327 . S
C4608 C4596 1.349 . S
C4608 H4602 0.950 . S
C4608 C4609 1.327 . S
C4609 H4603 0.950 . S
C4609 C4608 1.327 . S
C4609 C4613 1.429 . S
C4610 C4593 1.574 . S
C4610 H4604 0.949 . S
C4610 C4614 1.368 . S
C4611 C4592 1.429 . S
C4611 C4605 1.429 . S
C4611 C4612 1.523 . S
C4612 C4593 1.368 . S
C4612 C4606 1.368 . S
C4612 C4611 1.523 . S
C4613 C4597 1.429 . S
C4613 C4609 1.429 . S
C4613 C4614 1.523 . S
C4614 C4598 1.368 . S
C4614 C4610 1.368 . S
C4614 C4613 1.523 . S
H4615 C4590 0.950 . S
H4616 C4592 0.950 . S
H4617 C4593 0.949 . S
H4618 C4595 0.950 . S
H4619 C4597 0.950 . S
C4620 C4621 1.349 . S
C4620 C4622 1.327 . S
C4620 H4645 0.950 . S
C4621 C4620 1.349 . S
C4621 C4637 1.349 . S
C4622 C4620 1.327 . S
C4622 C4641 1.429 . S
C4622 H4646 0.950 . S
C4623 C4640 1.574 . S
C4623 C4642 1.368 . S
C4623 H4647 0.949 . S
H4624 C4628 0.949 . S
C4625 C4626 1.349 . S
C4625 C4627 1.327 . S
C4625 H4648 0.950 . S
C4626 C4625 1.349 . S
C4626 C4638 1.349 . S
C4627 C4625 1.327 . S
C4627 C4643 1.429 . S
C4627 H4649 0.950 . S
C4628 H4624 0.949 . S
C4628 C4636 1.574 . S
C4628 C4644 1.368 . S
H4629 C4637 0.950 . S
H4630 C4635 0.950 . S
H4631 C4636 0.949 . S
H4632 C4638 0.950 . S
H4633 C4639 0.950 . S
H4634 C4640 0.949 . S
C4635 H4630 0.950 . S
C4635 C4637 1.327 . S
C4635 C4641 1.429 . S
C4636 C4628 1.574 . S
C4636 H4631 0.949 . S
C4636 C4642 1.368 . S
C4637 C4621 1.349 . S
C4637 H4629 0.950 . S
C4637 C4635 1.327 . S
C4638 C4626 1.349 . S
C4638 H4632 0.950 . S
C4638 C4639 1.327 . S
C4639 H4633 0.950 . S
C4639 C4638 1.327 . S
C4639 C4643 1.429 . S
C4640 C4623 1.574 . S
C4640 H4634 0.949 . S
C4640 C4644 1.368 . S
C4641 C4622 1.429 . S
C4641 C4635 1.429 . S
C4641 C4642 1.523 . S
C4642 C4623 1.368 . S
C4642 C4636 1.368 . S
C4642 C4641 1.523 . S
C4643 C4627 1.429 . S
C4643 C4639 1.429 . S
C4643 C4644 1.523 . S
C4644 C4628 1.368 . S
C4644 C4640 1.368 . S
C4644 C4643 1.523 . S
H4645 C4620 0.950 . S
H4646 C4622 0.950 . S
H4647 C4623 0.949 . S
H4648 C4625 0.950 . S
H4649 C4627 0.950 . S
C4650 C4651 1.349 . S
C4650 C4652 1.327 . S
C4650 H4675 0.950 . S
C4651 C4650 1.349 . S
C4651 C4667 1.349 . S
C4652 C4650 1.327 . S
C4652 C4671 1.429 . S
C4652 H4676 0.950 . S
C4653 C4670 1.574 . S
C4653 C4672 1.368 . S
C4653 H4677 0.949 . S
H4654 C4658 0.949 . S
C4655 C4656 1.349 . S
C4655 C4657 1.327 . S
C4655 H4678 0.950 . S
C4656 C4655 1.349 . S
C4656 C4668 1.349 1_655 S
C4657 C4655 1.327 . S
C4657 C4673 1.429 . S
C4657 H4679 0.950 . S
C4658 H4654 0.949 . S
C4658 C4666 1.574 . S
C4658 C4674 1.368 . S
H4659 C4667 0.950 . S
H4660 C4665 0.950 . S
H4661 C4666 0.949 . S
H4662 C4668 0.950 . S
H4663 C4669 0.970 . S
H4664 C4670 0.949 . S
C4665 H4660 0.950 . S
C4665 C4667 1.327 . S
C4665 C4671 1.429 . S
C4666 C4658 1.574 . S
C4666 H4661 0.949 . S
C4666 C4672 1.368 . S
C4667 C4651 1.349 . S
C4667 H4659 0.950 . S
C4667 C4665 1.327 . S
C4668 C4656 1.349 1_455 S
C4668 H4662 0.950 . S
C4668 C4669 1.327 1_455 S
C4669 H4663 0.970 . S
C4669 C4668 1.327 1_655 S
C4669 C4673 1.429 . S
C4670 C4653 1.574 . S
C4670 H4664 0.949 . S
C4670 C4674 1.368 . S
C4671 C4652 1.429 . S
C4671 C4665 1.429 . S
C4671 C4672 1.523 . S
C4672 C4653 1.368 . S
C4672 C4666 1.368 . S
C4672 C4671 1.523 . S
C4673 C4657 1.429 . S
C4673 C4669 1.429 . S
C4673 C4674 1.523 . S
C4674 C4658 1.368 . S
C4674 C4670 1.368 . S
C4674 C4673 1.523 . S
H4675 C4650 0.950 . S
H4676 C4652 0.950 . S
H4677 C4653 0.949 . S
H4678 C4655 0.950 . S
H4679 C4657 0.950 . S
C4680 C4681 1.349 . S
C4680 C4682 1.327 . S
C4680 H4705 0.950 . S
C4681 C4680 1.349 . S
C4681 C4697 1.349 . S
C4682 C4680 1.327 . S
C4682 C4701 1.429 . S
C4682 H4706 0.950 . S
C4683 C4700 1.574 . S
C4683 C4702 1.368 . S
C4683 H4707 0.949 . S
H4684 C4688 0.949 . S
C4685 C4686 1.349 . S
C4685 C4687 1.327 . S
C4685 H4708 0.950 . S
C4686 C4685 1.349 . S
C4686 C4698 1.349 . S
C4687 C4685 1.327 . S
C4687 C4703 1.429 . S
C4687 H4709 0.950 . S
C4688 H4684 0.949 . S
C4688 C4696 1.574 . S
C4688 C4704 1.368 . S
H4689 C4697 0.950 . S
H4690 C4695 0.950 . S
H4691 C4696 0.949 . S
H4692 C4698 0.950 . S
H4693 C4699 0.950 . S
H4694 C4700 0.949 . S
C4695 H4690 0.950 . S
C4695 C4697 1.327 . S
C4695 C4701 1.429 . S
C4696 C4688 1.574 . S
C4696 H4691 0.949 . S
C4696 C4702 1.368 . S
C4697 C4681 1.349 . S
C4697 H4689 0.950 . S
C4697 C4695 1.327 . S
C4698 C4686 1.349 . S
C4698 H4692 0.950 . S
C4698 C4699 1.327 . S
C4699 H4693 0.950 . S
C4699 C4698 1.327 . S
C4699 C4703 1.429 . S
C4700 C4683 1.574 . S
C4700 H4694 0.949 . S
C4700 C4704 1.368 . S
C4701 C4682 1.429 . S
C4701 C4695 1.429 . S
C4701 C4702 1.523 . S
C4702 C4683 1.368 . S
C4702 C4696 1.368 . S
C4702 C4701 1.523 . S
C4703 C4687 1.429 . S
C4703 C4699 1.429 . S
C4703 C4704 1.523 . S
C4704 C4688 1.368 . S
C4704 C4700 1.368 . S
C4704 C4703 1.523 . S
H4705 C4680 0.950 . S
H4706 C4682 0.950 . S
H4707 C4683 0.949 . S
H4708 C4685 0.950 . S
H4709 C4687 0.950 . S
C4710 C4711 1.349 . S
C4710 C4712 1.327 . S
C4710 H4735 0.950 . S
C4711 C4710 1.349 . S
C4711 C4727 1.349 . S
C4712 C4710 1.327 . S
C4712 C4731 1.429 . S
C4712 H4736 0.950 . S
C4713 C4730 1.574 . S
C4713 C4732 1.368 . S
C4713 H4737 0.949 . S
H4714 C4718 0.949 . S
C4715 C4716 1.349 . S
C4715 C4717 1.327 . S
C4715 H4738 0.950 . S
C4716 C4715 1.349 . S
C4716 C4728 1.349 . S
C4717 C4715 1.327 . S
C4717 C4733 1.429 . S
C4717 H4739 0.950 . S
C4718 H4714 0.949 . S
C4718 C4726 1.574 . S
C4718 C4734 1.368 . S
H4719 C4727 0.950 . S
H4720 C4725 0.950 . S
H4721 C4726 0.949 . S
H4722 C4728 0.950 . S
H4723 C4729 0.950 . S
H4724 C4730 0.949 . S
C4725 H4720 0.950 . S
C4725 C4727 1.327 . S
C4725 C4731 1.429 . S
C4726 C4718 1.574 . S
C4726 H4721 0.949 . S
C4726 C4732 1.368 . S
C4727 C4711 1.349 . S
C4727 H4719 0.950 . S
C4727 C4725 1.327 . S
C4728 C4716 1.349 . S
C4728 H4722 0.950 . S
C4728 C4729 1.327 . S
C4729 H4723 0.950 . S
C4729 C4728 1.327 . S
C4729 C4733 1.429 . S
C4730 C4713 1.574 . S
C4730 H4724 0.949 . S
C4730 C4734 1.368 . S
C4731 C4712 1.429 . S
C4731 C4725 1.429 . S
C4731 C4732 1.523 . S
C4732 C4713 1.368 . S
C4732 C4726 1.368 . S
C4732 C4731 1.523 . S
C4733 C4717 1.429 . S
C4733 C4729 1.429 . S
C4733 C4734 1.523 . S
C4734 C4718 1.368 . S
C4734 C4730 1.368 . S
C4734 C4733 1.523 . S
H4735 C4710 0.950 . S
H4736 C4712 0.950 . S
H4737 C4713 0.949 . S
H4738 C4715 0.950 . S
H4739 C4717 0.950 . S
C4740 C4741 1.349 . S
C4740 C4742 1.327 . S
C4740 H4765 0.950 . S
C4741 C4740 1.349 . S
C4741 C4757 1.349 . S
C4742 C4740 1.327 . S
C4742 C4761 1.429 . S
C4742 H4766 0.950 . S
C4743 C4760 1.574 . S
C4743 C4762 1.368 . S
C4743 H4767 0.949 . S
H4744 C4748 0.949 . S
C4745 C4746 1.349 . S
C4745 C4747 1.327 . S
C4745 H4768 0.950 . S
C4746 C4745 1.349 . S
C4746 C4758 1.349 . S
C4747 C4745 1.327 . S
C4747 C4763 1.429 . S
C4747 H4769 0.950 . S
C4748 H4744 0.949 . S
C4748 C4756 1.574 . S
C4748 C4764 1.368 . S
H4749 C4757 0.950 . S
H4750 C4755 0.950 . S
H4751 C4756 0.949 . S
H4752 C4758 0.950 . S
H4753 C4759 0.950 . S
H4754 C4760 0.949 . S
C4755 H4750 0.950 . S
C4755 C4757 1.327 . S
C4755 C4761 1.429 . S
C4756 C4748 1.574 . S
C4756 H4751 0.949 . S
C4756 C4762 1.368 . S
C4757 C4741 1.349 . S
C4757 H4749 0.950 . S
C4757 C4755 1.327 . S
C4758 C4746 1.349 . S
C4758 H4752 0.950 . S
C4758 C4759 1.327 . S
C4759 H4753 0.950 . S
C4759 C4758 1.327 . S
C4759 C4763 1.429 . S
C4760 C4743 1.574 . S
C4760 H4754 0.949 . S
C4760 C4764 1.368 . S
C4761 C4742 1.429 . S
C4761 C4755 1.429 . S
C4761 C4762 1.523 . S
C4762 C4743 1.368 . S
C4762 C4756 1.368 . S
C4762 C4761 1.523 . S
C4763 C4747 1.429 . S
C4763 C4759 1.429 . S
C4763 C4764 1.523 . S
C4764 C4748 1.368 . S
C4764 C4760 1.368 . S
C4764 C4763 1.523 . S
H4765 C4740 0.950 . S
H4766 C4742 0.950 . S
H4767 C4743 0.949 . S
H4768 C4745 0.950 . S
H4769 C4747 0.950 . S
C4770 C4771 1.349 . S
C4770 C4772 1.327 . S
C4770 H4795 0.950 . S
C4771 C4770 1.349 . S
C4771 C4787 1.349 . S
C4772 C4770 1.327 . S
C4772 C4791 1.429 . S
C4772 H4796 0.950 . S
C4773 C4790 1.574 . S
C4773 C4792 1.368 . S
C4773 H4797 0.949 . S
H4774 C4778 0.949 . S
C4775 C4776 1.349 . S
C4775 C4777 1.327 . S
C4775 H4798 0.950 . S
C4776 C4775 1.349 . S
C4776 C4788 1.349 . S
C4777 C4775 1.327 . S
C4777 C4793 1.429 . S
C4777 H4799 0.950 . S
C4778 H4774 0.949 . S
C4778 C4786 1.574 . S
C4778 C4794 1.368 . S
H4779 C4787 0.950 . S
H4780 C4785 0.950 . S
H4781 C4786 0.949 . S
H4782 C4788 0.950 . S
H4783 C4789 0.950 . S
H4784 C4790 0.949 . S
C4785 H4780 0.950 . S
C4785 C4787 1.327 . S
C4785 C4791 1.429 . S
C4786 C4778 1.574 . S
C4786 H4781 0.949 . S
C4786 C4792 1.368 . S
C4787 C4771 1.349 . S
C4787 H4779 0.950 . S
C4787 C4785 1.327 . S
C4788 C4776 1.349 . S
C4788 H4782 0.950 . S
C4788 C4789 1.327 . S
C4789 H4783 0.950 . S
C4789 C4788 1.327 . S
C4789 C4793 1.429 . S
C4790 C4773 1.574 . S
C4790 H4784 0.949 . S
C4790 C4794 1.368 . S
C4791 C4772 1.429 . S
C4791 C4785 1.429 . S
C4791 C4792 1.523 . S
C4792 C4773 1.368 . S
C4792 C4786 1.368 . S
C4792 C4791 1.523 . S
C4793 C4777 1.429 . S
C4793 C4789 1.429 . S
C4793 C4794 1.523 . S
C4794 C4778 1.368 . S
C4794 C4790 1.368 . S
C4794 C4793 1.523 . S
H4795 C4770 0.950 . S
H4796 C4772 0.950 . S
H4797 C4773 0.949 . S
H4798 C4775 0.950 . S
H4799 C4777 0.950 . S
C4800 C4801 1.349 . S
C4800 C4802 1.327 . S
C4800 H4825 0.950 . S
C4801 C4800 1.349 . S
C4801 C4817 1.349 . S
C4802 C4800 1.327 . S
C4802 C4821 1.429 . S
C4802 H4826 0.950 . S
C4803 C4820 1.574 . S
C4803 C4822 1.368 . S
C4803 H4827 0.949 . S
H4804 C4808 0.949 . S
C4805 C4806 1.349 . S
C4805 C4807 1.327 . S
C4805 H4828 0.950 . S
C4806 C4805 1.349 . S
C4806 C4818 1.349 . S
C4807 C4805 1.327 . S
C4807 C4823 1.429 . S
C4807 H4829 0.950 . S
C4808 H4804 0.949 . S
C4808 C4816 1.574 . S
C4808 C4824 1.368 . S
H4809 C4817 0.950 . S
H4810 C4815 0.950 . S
H4811 C4816 0.949 . S
H4812 C4818 0.950 . S
H4813 C4819 0.950 . S
H4814 C4820 0.949 . S
C4815 H4810 0.950 . S
C4815 C4817 1.327 . S
C4815 C4821 1.429 . S
C4816 C4808 1.574 . S
C4816 H4811 0.949 . S
C4816 C4822 1.368 . S
C4817 C4801 1.349 . S
C4817 H4809 0.950 . S
C4817 C4815 1.327 . S
C4818 C4806 1.349 . S
C4818 H4812 0.950 . S
C4818 C4819 1.327 . S
C4819 H4813 0.950 . S
C4819 C4818 1.327 . S
C4819 C4823 1.429 . S
C4820 C4803 1.574 . S
C4820 H4814 0.949 . S
C4820 C4824 1.368 . S
C4821 C4802 1.429 . S
C4821 C4815 1.429 . S
C4821 C4822 1.523 . S
C4822 C4803 1.368 . S
C4822 C4816 1.368 . S
C4822 C4821 1.523 . S
C4823 C4807 1.429 . S
C4823 C4819 1.429 . S
C4823 C4824 1.523 . S
C4824 C4808 1.368 . S
C4824 C4820 1.368 . S
C4824 C4823 1.523 . S
H4825 C4800 0.950 . S
H4826 C4802 0.950 . S
H4827 C4803 0.949 . S
H4828 C4805 0.950 . S
H4829 C4807 0.950 . S
C4830 C4831 1.349 . S
C4830 C4832 1.327 . S
C4830 H4855 0.950 . S
C4831 C4830 1.349 . S
C4831 C4847 1.349 . S
C4832 C4830 1.327 . S
C4832 C4851 1.429 . S
C4832 H4856 0.950 . S
C4833 C4850 1.574 . S
C4833 C4852 1.368 . S
C4833 H4857 0.949 . S
H4834 C4838 0.949 . S
C4835 C4836 1.349 . S
C4835 C4837 1.327 . S
C4835 H4858 0.950 . S
C4836 C4835 1.349 . S
C4836 C4848 1.349 . S
C4837 C4835 1.327 . S
C4837 C4853 1.429 . S
C4837 H4859 0.950 . S
C4838 H4834 0.949 . S
C4838 C4846 1.574 . S
C4838 C4854 1.368 . S
H4839 C4847 0.950 . S
H4840 C4845 0.950 . S
H4841 C4846 0.949 . S
H4842 C4848 0.950 . S
H4843 C4849 0.950 . S
H4844 C4850 0.949 . S
C4845 H4840 0.950 . S
C4845 C4847 1.327 . S
C4845 C4851 1.429 . S
C4846 C4838 1.574 . S
C4846 H4841 0.949 . S
C4846 C4852 1.368 . S
C4847 C4831 1.349 . S
C4847 H4839 0.950 . S
C4847 C4845 1.327 . S
C4848 C4836 1.349 . S
C4848 H4842 0.950 . S
C4848 C4849 1.327 . S
C4849 H4843 0.950 . S
C4849 C4848 1.327 . S
C4849 C4853 1.429 . S
C4850 C4833 1.574 . S
C4850 H4844 0.949 . S
C4850 C4854 1.368 . S
C4851 C4832 1.429 . S
C4851 C4845 1.429 . S
C4851 C4852 1.523 . S
C4852 C4833 1.368 . S
C4852 C4846 1.368 . S
C4852 C4851 1.523 . S
C4853 C4837 1.429 . S
C4853 C4849 1.429 . S
C4853 C4854 1.523 . S
C4854 C4838 1.368 . S
C4854 C4850 1.368 . S
C4854 C4853 1.523 . S
H4855 C4830 0.950 . S
H4856 C4832 0.950 . S
H4857 C4833 0.949 . S
H4858 C4835 0.950 . S
H4859 C4837 0.950 . S
C4860 C4861 1.349 . S
C4860 C4862 1.327 . S
C4860 H4885 0.950 . S
C4861 C4860 1.349 . S
C4861 C4877 1.349 . S
C4862 C4860 1.327 . S
C4862 C4881 1.429 . S
C4862 H4886 0.950 . S
C4863 C4880 1.574 . S
C4863 C4882 1.368 . S
C4863 H4887 0.949 . S
H4864 C4868 0.949 . S
C4865 C4866 1.349 . S
C4865 C4867 1.327 . S
C4865 H4888 0.950 . S
C4866 C4865 1.349 . S
C4866 C4878 1.349 . S
C4867 C4865 1.327 . S
C4867 C4883 1.429 . S
C4867 H4889 0.950 . S
C4868 H4864 0.949 . S
C4868 C4876 1.574 . S
C4868 C4884 1.368 . S
H4869 C4877 0.950 . S
H4870 C4875 0.950 . S
H4871 C4876 0.949 . S
H4872 C4878 0.950 . S
H4873 C4879 0.950 . S
H4874 C4880 0.949 . S
C4875 H4870 0.950 . S
C4875 C4877 1.327 . S
C4875 C4881 1.429 . S
C4876 C4868 1.574 . S
C4876 H4871 0.949 . S
C4876 C4882 1.368 . S
C4877 C4861 1.349 . S
C4877 H4869 0.950 . S
C4877 C4875 1.327 . S
C4878 C4866 1.349 . S
C4878 H4872 0.950 . S
C4878 C4879 1.327 . S
C4879 H4873 0.950 . S
C4879 C4878 1.327 . S
C4879 C4883 1.429 . S
C4880 C4863 1.574 . S
C4880 H4874 0.949 . S
C4880 C4884 1.368 . S
C4881 C4862 1.429 . S
C4881 C4875 1.429 . S
C4881 C4882 1.523 . S
C4882 C4863 1.368 . S
C4882 C4876 1.368 . S
C4882 C4881 1.523 . S
C4883 C4867 1.429 . S
C4883 C4879 1.429 . S
C4883 C4884 1.523 . S
C4884 C4868 1.368 . S
C4884 C4880 1.368 . S
C4884 C4883 1.523 . S
H4885 C4860 0.950 . S
H4886 C4862 0.950 . S
H4887 C4863 0.949 . S
H4888 C4865 0.950 . S
H4889 C4867 0.950 . S
C4890 C4891 1.349 . S
C4890 C4892 1.327 . S
C4890 H4915 0.950 . S
C4891 C4890 1.349 . S
C4891 C4907 1.349 . S
C4892 C4890 1.327 . S
C4892 C4911 1.429 . S
C4892 H4916 0.950 . S
C4893 C4910 1.574 . S
C4893 C4912 1.368 . S
C4893 H4917 0.949 . S
H4894 C4898 0.949 . S
C4895 C4896 1.349 . S
C4895 C4897 1.327 . S
C4895 H4918 0.950 . S
C4896 C4895 1.349 . S
C4896 C4908 1.349 . S
C4897 C4895 1.327 . S
C4897 C4913 1.429 . S
C4897 H4919 0.950 . S
C4898 H4894 0.949 . S
C4898 C4906 1.574 . S
C4898 C4914 1.368 . S
H4899 C4907 0.950 . S
H4900 C4905 0.950 . S
H4901 C4906 0.949 . S
H4902 C4908 0.950 . S
H4903 C4909 0.950 . S
H4904 C4910 0.949 . S
C4905 H4900 0.950 . S
C4905 C4907 1.327 . S
C4905 C4911 1.429 . S
C4906 C4898 1.574 . S
C4906 H4901 0.949 . S
C4906 C4912 1.368 . S
C4907 C4891 1.349 . S
C4907 H4899 0.950 . S
C4907 C4905 1.327 . S
C4908 C4896 1.349 . S
C4908 H4902 0.950 . S
C4908 C4909 1.327 . S
C4909 H4903 0.950 . S
C4909 C4908 1.327 . S
C4909 C4913 1.429 . S
C4910 C4893 1.574 . S
C4910 H4904 0.949 . S
C4910 C4914 1.368 . S
C4911 C4892 1.429 . S
C4911 C4905 1.429 . S
C4911 C4912 1.523 . S
C4912 C4893 1.368 . S
C4912 C4906 1.368 . S
C4912 C4911 1.523 . S
C4913 C4897 1.429 . S
C4913 C4909 1.429 . S
C4913 C4914 1.523 . S
C4914 C4898 1.368 . S
C4914 C4910 1.368 . S
C4914 C4913 1.523 . S
H4915 C4890 0.950 . S
H4916 C4892 0.950 . S
H4917 C4893 0.949 . S
H4918 C4895 0.950 . S
H4919 C4897 0.950 . S
C4920 C4921 1.349 . S
C4920 C4922 1.327 . S
C4920 H4945 0.950 . S
C4921 C4920 1.349 . S
C4921 C4937 1.349 . S
C4922 C4920 1.327 . S
C4922 C4941 1.429 . S
C4922 H4946 0.950 . S
C4923 C4940 1.574 . S
C4923 C4942 1.368 . S
C4923 H4947 0.949 . S
H4924 C4928 0.949 . S
C4925 C4926 1.349 . S
C4925 C4927 1.327 . S
C4925 H4948 0.950 . S
C4926 C4925 1.349 . S
C4926 C4938 1.349 . S
C4927 C4925 1.327 . S
C4927 C4943 1.429 . S
C4927 H4949 0.950 . S
C4928 H4924 0.949 . S
C4928 C4936 1.574 . S
C4928 C4944 1.368 . S
H4929 C4937 0.950 . S
H4930 C4935 0.950 . S
H4931 C4936 0.949 . S
H4932 C4938 0.950 . S
H4933 C4939 0.950 . S
H4934 C4940 0.949 . S
C4935 H4930 0.950 . S
C4935 C4937 1.327 . S
C4935 C4941 1.429 . S
C4936 C4928 1.574 . S
C4936 H4931 0.949 . S
C4936 C4942 1.368 . S
C4937 C4921 1.349 . S
C4937 H4929 0.950 . S
C4937 C4935 1.327 . S
C4938 C4926 1.349 . S
C4938 H4932 0.950 . S
C4938 C4939 1.327 . S
C4939 H4933 0.950 . S
C4939 C4938 1.327 . S
C4939 C4943 1.429 . S
C4940 C4923 1.574 . S
C4940 H4934 0.949 . S
C4940 C4944 1.368 . S
C4941 C4922 1.429 . S
C4941 C4935 1.429 . S
C4941 C4942 1.523 . S
C4942 C4923 1.368 . S
C4942 C4936 1.368 . S
C4942 C4941 1.523 . S
C4943 C4927 1.429 . S
C4943 C4939 1.429 . S
C4943 C4944 1.523 . S
C4944 C4928 1.368 . S
C4944 C4940 1.368 . S
C4944 C4943 1.523 . S
H4945 C4920 0.950 . S
H4946 C4922 0.950 . S
H4947 C4923 0.949 . S
H4948 C4925 0.950 . S
H4949 C4927 0.950 . S
C4950 C4951 1.349 . S
C4950 C4952 1.327 1_556 S
C4950 H4975 0.950 . S
C4951 C4950 1.349 . S
C4951 C4967 1.349 . S
C4952 C4950 1.327 1_554 S
C4952 C4971 1.429 . S
C4952 H4976 0.950 . S
C4953 C4970 1.574 . S
C4953 C4972 1.368 . S
C4953 H4977 0.949 . S
H4954 C4958 0.949 . S
C4955 C4956 1.349 . S
C4955 C4957 1.327 . S
C4955 H4978 0.950 . S
C4956 C4955 1.349 . S
C4956 C4968 1.349 . S
C4957 C4955 1.327 . S
C4957 C4973 1.429 . S
C4957 H4979 0.950 . S
C4958 H4954 0.949 . S
C4958 C4966 1.574 . S
C4958 C4974 1.368 . S
H4959 C4967 0.950 . S
H4960 C4965 0.950 . S
H4961 C4966 0.949 . S
H4962 C4968 0.950 . S
H4963 C4969 0.950 . S
H4964 C4970 0.949 . S
C4965 H4960 0.950 . S
C4965 C4967 1.327 . S
C4965 C4971 1.429 1_556 S
C4966 C4958 1.574 . S
C4966 H4961 0.949 . S
C4966 C4972 1.368 . S
C4967 C4951 1.349 . S
C4967 H4959 0.950 . S
C4967 C4965 1.327 . S
C4968 C4956 1.349 . S
C4968 H4962 0.950 . S
C4968 C4969 1.327 . S
C4969 H4963 0.950 . S
C4969 C4968 1.327 . S
C4969 C4973 1.429 . S
C4970 C4953 1.574 . S
C4970 H4964 0.949 . S
C4970 C4974 1.368 . S
C4971 C4952 1.429 . S
C4971 C4965 1.429 1_554 S
C4971 C4972 1.523 . S
C4972 C4953 1.368 . S
C4972 C4966 1.368 . S
C4972 C4971 1.523 . S
C4973 C4957 1.429 . S
C4973 C4969 1.429 . S
C4973 C4974 1.523 . S
C4974 C4958 1.368 . S
C4974 C4970 1.368 . S
C4974 C4973 1.523 . S
H4975 C4950 0.950 . S
H4976 C4952 0.950 . S
H4977 C4953 0.949 . S
H4978 C4955 0.950 . S
H4979 C4957 0.950 . S
C4980 C4981 1.349 . S
C4980 C4982 1.327 . S
C4980 H5005 0.950 . S
C4981 C4980 1.349 . S
C4981 C4997 1.349 . S
C4982 C4980 1.327 . S
C4982 C5001 1.429 . S
C4982 H5006 0.950 . S
C4983 C5000 1.574 . S
C4983 C5002 1.368 . S
C4983 H5007 0.949 . S
H4984 C4988 0.949 . S
C4985 C4986 1.349 . S
C4985 C4987 1.327 . S
C4985 H5008 0.950 . S
C4986 C4985 1.349 . S
C4986 C4998 1.349 . S
C4987 C4985 1.327 . S
C4987 C5003 1.429 . S
C4987 H5009 0.950 . S
C4988 H4984 0.949 . S
C4988 C4996 1.574 . S
C4988 C5004 1.368 . S
H4989 C4997 0.950 . S
H4990 C4995 0.950 . S
H4991 C4996 0.949 . S
H4992 C4998 0.950 . S
H4993 C4999 0.950 . S
H4994 C5000 0.949 . S
C4995 H4990 0.950 . S
C4995 C4997 1.327 . S
C4995 C5001 1.429 . S
C4996 C4988 1.574 . S
C4996 H4991 0.949 . S
C4996 C5002 1.368 . S
C4997 C4981 1.349 . S
C4997 H4989 0.950 . S
C4997 C4995 1.327 . S
C4998 C4986 1.349 . S
C4998 H4992 0.950 . S
C4998 C4999 1.327 . S
C4999 H4993 0.950 . S
C4999 C4998 1.327 . S
C4999 C5003 1.429 . S
C5000 C4983 1.574 . S
C5000 H4994 0.949 . S
C5000 C5004 1.368 . S
C5001 C4982 1.429 . S
C5001 C4995 1.429 . S
C5001 C5002 1.523 . S
C5002 C4983 1.368 . S
C5002 C4996 1.368 . S
C5002 C5001 1.523 . S
C5003 C4987 1.429 . S
C5003 C4999 1.429 . S
C5003 C5004 1.523 . S
C5004 C4988 1.368 . S
C5004 C5000 1.368 . S
C5004 C5003 1.523 . S
H5005 C4980 0.950 . S
H5006 C4982 0.950 . S
H5007 C4983 0.949 . S
H5008 C4985 0.950 . S
H5009 C4987 0.950 . S
C5010 C5011 1.349 . S
C5010 C5012 1.327 . S
C5010 H5035 0.950 . S
C5011 C5010 1.349 . S
C5011 C5027 1.349 . S
C5012 C5010 1.327 . S
C5012 C5031 1.429 . S
C5012 H5036 0.950 . S
C5013 C5030 1.574 . S
C5013 C5032 1.368 . S
C5013 H5037 0.949 . S
H5014 C5018 0.949 . S
C5015 C5016 1.349 . S
C5015 C5017 1.327 . S
C5015 H5038 0.950 . S
C5016 C5015 1.349 . S
C5016 C5028 1.349 . S
C5017 C5015 1.327 . S
C5017 C5033 1.429 . S
C5017 H5039 0.950 . S
C5018 H5014 0.949 . S
C5018 C5026 1.574 . S
C5018 C5034 1.368 . S
H5019 C5027 0.950 . S
H5020 C5025 0.950 . S
H5021 C5026 0.949 . S
H5022 C5028 0.950 . S
H5023 C5029 0.950 . S
H5024 C5030 0.949 . S
C5025 H5020 0.950 . S
C5025 C5027 1.327 . S
C5025 C5031 1.429 . S
C5026 C5018 1.574 . S
C5026 H5021 0.949 . S
C5026 C5032 1.368 . S
C5027 C5011 1.349 . S
C5027 H5019 0.950 . S
C5027 C5025 1.327 . S
C5028 C5016 1.349 . S
C5028 H5022 0.950 . S
C5028 C5029 1.327 . S
C5029 H5023 0.950 . S
C5029 C5028 1.327 . S
C5029 C5033 1.429 . S
C5030 C5013 1.574 . S
C5030 H5024 0.949 . S
C5030 C5034 1.368 . S
C5031 C5012 1.429 . S
C5031 C5025 1.429 . S
C5031 C5032 1.523 . S
C5032 C5013 1.368 . S
C5032 C5026 1.368 . S
C5032 C5031 1.523 . S
C5033 C5017 1.429 . S
C5033 C5029 1.429 . S
C5033 C5034 1.523 . S
C5034 C5018 1.368 . S
C5034 C5030 1.368 . S
C5034 C5033 1.523 . S
H5035 C5010 0.950 . S
H5036 C5012 0.950 . S
H5037 C5013 0.949 . S
H5038 C5015 0.950 . S
H5039 C5017 0.950 . S
C5040 C5041 1.349 . S
C5040 C5042 1.327 . S
C5040 H5065 0.950 . S
C5041 C5040 1.349 . S
C5041 C5057 1.349 . S
C5042 C5040 1.327 . S
C5042 C5061 1.429 . S
C5042 H5066 0.950 . S
C5043 C5060 1.574 . S
C5043 C5062 1.368 . S
C5043 H5067 0.949 . S
H5044 C5048 0.949 . S
C5045 C5046 1.349 . S
C5045 C5047 1.327 . S
C5045 H5068 0.950 . S
C5046 C5045 1.349 . S
C5046 C5058 1.349 . S
C5047 C5045 1.327 . S
C5047 C5063 1.429 . S
C5047 H5069 0.950 . S
C5048 H5044 0.949 . S
C5048 C5056 1.574 . S
C5048 C5064 1.368 . S
H5049 C5057 0.950 . S
H5050 C5055 0.950 . S
H5051 C5056 0.949 . S
H5052 C5058 0.950 . S
H5053 C5059 0.950 . S
H5054 C5060 0.949 . S
C5055 H5050 0.950 . S
C5055 C5057 1.327 . S
C5055 C5061 1.429 . S
C5056 C5048 1.574 . S
C5056 H5051 0.949 . S
C5056 C5062 1.368 . S
C5057 C5041 1.349 . S
C5057 H5049 0.950 . S
C5057 C5055 1.327 . S
C5058 C5046 1.349 . S
C5058 H5052 0.950 . S
C5058 C5059 1.327 . S
C5059 H5053 0.950 . S
C5059 C5058 1.327 . S
C5059 C5063 1.429 . S
C5060 C5043 1.574 . S
C5060 H5054 0.949 . S
C5060 C5064 1.368 . S
C5061 C5042 1.429 . S
C5061 C5055 1.429 . S
C5061 C5062 1.523 . S
C5062 C5043 1.368 . S
C5062 C5056 1.368 . S
C5062 C5061 1.523 . S
C5063 C5047 1.429 . S
C5063 C5059 1.429 . S
C5063 C5064 1.523 . S
C5064 C5048 1.368 . S
C5064 C5060 1.368 . S
C5064 C5063 1.523 . S
H5065 C5040 0.950 . S
H5066 C5042 0.950 . S
H5067 C5043 0.949 . S
H5068 C5045 0.950 . S
H5069 C5047 0.950 . S
C5070 C5071 1.349 . S
C5070 C5072 1.327 . S
C5070 H5095 0.950 . S
C5071 C5070 1.349 . S
C5071 C5087 1.349 . S
C5072 C5070 1.327 . S
C5072 C5091 1.429 . S
C5072 H5096 0.950 . S
C5073 C5090 1.574 . S
C5073 C5092 1.368 . S
C5073 H5097 0.949 . S
H5074 C5078 0.949 . S
C5075 C5076 1.349 . S
C5075 C5077 1.327 . S
C5075 H5098 0.950 . S
C5076 C5075 1.349 . S
C5076 C5088 1.349 . S
C5077 C5075 1.327 . S
C5077 C5093 1.429 . S
C5077 H5099 0.950 . S
C5078 H5074 0.949 . S
C5078 C5086 1.574 . S
C5078 C5094 1.368 . S
H5079 C5087 0.950 . S
H5080 C5085 0.950 . S
H5081 C5086 0.949 . S
H5082 C5088 0.950 . S
H5083 C5089 0.950 . S
H5084 C5090 0.949 . S
C5085 H5080 0.950 . S
C5085 C5087 1.327 . S
C5085 C5091 1.429 . S
C5086 C5078 1.574 . S
C5086 H5081 0.949 . S
C5086 C5092 1.368 . S
C5087 C5071 1.349 . S
C5087 H5079 0.950 . S
C5087 C5085 1.327 . S
C5088 C5076 1.349 . S
C5088 H5082 0.950 . S
C5088 C5089 1.327 . S
C5089 H5083 0.950 . S
C5089 C5088 1.327 . S
C5089 C5093 1.429 . S
C5090 C5073 1.574 . S
C5090 H5084 0.949 . S
C5090 C5094 1.368 . S
C5091 C5072 1.429 . S
C5091 C5085 1.429 . S
C5091 C5092 1.523 . S
C5092 C5073 1.368 . S
C5092 C5086 1.368 . S
C5092 C5091 1.523 . S
C5093 C5077 1.429 . S
C5093 C5089 1.429 . S
C5093 C5094 1.523 . S
C5094 C5078 1.368 . S
C5094 C5090 1.368 . S
C5094 C5093 1.523 . S
H5095 C5070 0.950 . S
H5096 C5072 0.950 . S
H5097 C5073 0.949 . S
H5098 C5075 0.950 . S
H5099 C5077 0.950 . S
C5100 C5101 1.349 . S
C5100 C5102 1.327 . S
C5100 H5125 0.950 . S
C5101 C5100 1.349 . S
C5101 C5117 1.349 . S
C5102 C5100 1.327 . S
C5102 C5121 1.429 . S
C5102 H5126 0.950 . S
C5103 C5120 1.574 . S
C5103 C5122 1.368 . S
C5103 H5127 0.949 . S
H5104 C5108 0.949 . S
C5105 C5106 1.349 . S
C5105 C5107 1.327 . S
C5105 H5128 0.950 . S
C5106 C5105 1.349 . S
C5106 C5118 1.349 . S
C5107 C5105 1.327 . S
C5107 C5123 1.429 . S
C5107 H5129 0.950 . S
C5108 H5104 0.949 . S
C5108 C5116 1.574 . S
C5108 C5124 1.368 . S
H5109 C5117 0.950 . S
H5110 C5115 0.950 . S
H5111 C5116 0.949 . S
H5112 C5118 0.950 . S
H5113 C5119 0.950 . S
H5114 C5120 0.949 . S
C5115 H5110 0.950 . S
C5115 C5117 1.327 . S
C5115 C5121 1.429 . S
C5116 C5108 1.574 . S
C5116 H5111 0.949 . S
C5116 C5122 1.368 . S
C5117 C5101 1.349 . S
C5117 H5109 0.950 . S
C5117 C5115 1.327 . S
C5118 C5106 1.349 . S
C5118 H5112 0.950 . S
C5118 C5119 1.327 . S
C5119 H5113 0.950 . S
C5119 C5118 1.327 . S
C5119 C5123 1.429 . S
C5120 C5103 1.574 . S
C5120 H5114 0.949 . S
C5120 C5124 1.368 . S
C5121 C5102 1.429 . S
C5121 C5115 1.429 . S
C5121 C5122 1.523 . S
C5122 C5103 1.368 . S
C5122 C5116 1.368 . S
C5122 C5121 1.523 . S
C5123 C5107 1.429 . S
C5123 C5119 1.429 . S
C5123 C5124 1.523 . S
C5124 C5108 1.368 . S
C5124 C5120 1.368 . S
C5124 C5123 1.523 . S
H5125 C5100 0.950 . S
H5126 C5102 0.950 . S
H5127 C5103 0.949 . S
H5128 C5105 0.950 . S
H5129 C5107 0.950 . S
C5130 C5131 1.349 . S
C5130 C5132 1.327 . S
C5130 H5155 0.950 . S
C5131 C5130 1.349 . S
C5131 C5147 1.349 . S
C5132 C5130 1.327 . S
C5132 C5151 1.429 . S
C5132 H5156 0.950 . S
C5133 C5150 1.574 . S
C5133 C5152 1.368 . S
C5133 H5157 0.949 . S
H5134 C5138 0.949 . S
C5135 C5136 1.349 . S
C5135 C5137 1.327 . S
C5135 H5158 0.950 . S
C5136 C5135 1.349 . S
C5136 C5148 1.349 . S
C5137 C5135 1.327 . S
C5137 C5153 1.429 . S
C5137 H5159 0.950 . S
C5138 H5134 0.949 . S
C5138 C5146 1.574 . S
C5138 C5154 1.368 . S
H5139 C5147 0.950 . S
H5140 C5145 0.950 . S
H5141 C5146 0.949 . S
H5142 C5148 0.950 . S
H5143 C5149 0.950 . S
H5144 C5150 0.949 . S
C5145 H5140 0.950 . S
C5145 C5147 1.327 . S
C5145 C5151 1.429 . S
C5146 C5138 1.574 . S
C5146 H5141 0.949 . S
C5146 C5152 1.368 . S
C5147 C5131 1.349 . S
C5147 H5139 0.950 . S
C5147 C5145 1.327 . S
C5148 C5136 1.349 . S
C5148 H5142 0.950 . S
C5148 C5149 1.327 . S
C5149 H5143 0.950 . S
C5149 C5148 1.327 . S
C5149 C5153 1.429 . S
C5150 C5133 1.574 . S
C5150 H5144 0.949 . S
C5150 C5154 1.368 . S
C5151 C5132 1.429 . S
C5151 C5145 1.429 . S
C5151 C5152 1.523 . S
C5152 C5133 1.368 . S
C5152 C5146 1.368 . S
C5152 C5151 1.523 . S
C5153 C5137 1.429 . S
C5153 C5149 1.429 . S
C5153 C5154 1.523 . S
C5154 C5138 1.368 . S
C5154 C5150 1.368 . S
C5154 C5153 1.523 . S
H5155 C5130 0.950 . S
H5156 C5132 0.950 . S
H5157 C5133 0.949 . S
H5158 C5135 0.950 . S
H5159 C5137 0.950 . S
C5160 C5161 1.349 . S
C5160 C5162 1.327 . S
C5160 H5185 0.950 . S
C5161 C5160 1.349 . S
C5161 C5177 1.349 . S
C5162 C5160 1.327 . S
C5162 C5181 1.429 . S
C5162 H5186 0.950 . S
C5163 C5180 1.574 . S
C5163 C5182 1.368 . S
C5163 H5187 0.949 . S
H5164 C5168 0.949 . S
C5165 C5166 1.349 . S
C5165 C5167 1.327 . S
C5165 H5188 0.950 . S
C5166 C5165 1.349 . S
C5166 C5178 1.349 . S
C5167 C5165 1.327 . S
C5167 C5183 1.429 . S
C5167 H5189 0.950 . S
C5168 H5164 0.949 . S
C5168 C5176 1.574 . S
C5168 C5184 1.368 . S
H5169 C5177 0.950 . S
H5170 C5175 0.950 . S
H5171 C5176 0.949 . S
H5172 C5178 0.950 . S
H5173 C5179 0.950 . S
H5174 C5180 0.949 . S
C5175 H5170 0.950 . S
C5175 C5177 1.327 . S
C5175 C5181 1.429 . S
C5176 C5168 1.574 . S
C5176 H5171 0.949 . S
C5176 C5182 1.368 . S
C5177 C5161 1.349 . S
C5177 H5169 0.950 . S
C5177 C5175 1.327 . S
C5178 C5166 1.349 . S
C5178 H5172 0.950 . S
C5178 C5179 1.327 . S
C5179 H5173 0.950 . S
C5179 C5178 1.327 . S
C5179 C5183 1.429 . S
C5180 C5163 1.574 . S
C5180 H5174 0.949 . S
C5180 C5184 1.368 . S
C5181 C5162 1.429 . S
C5181 C5175 1.429 . S
C5181 C5182 1.523 . S
C5182 C5163 1.368 . S
C5182 C5176 1.368 . S
C5182 C5181 1.523 . S
C5183 C5167 1.429 . S
C5183 C5179 1.429 . S
C5183 C5184 1.523 . S
C5184 C5168 1.368 . S
C5184 C5180 1.368 . S
C5184 C5183 1.523 . S
H5185 C5160 0.950 . S
H5186 C5162 0.950 . S
H5187 C5163 0.949 . S
H5188 C5165 0.950 . S
H5189 C5167 0.950 . S
C5190 C5191 1.349 . S
C5190 C5192 1.327 . S
C5190 H5215 0.950 . S
C5191 C5190 1.349 . S
C5191 C5207 1.349 . S
C5192 C5190 1.327 . S
C5192 C5211 1.429 . S
C5192 H5216 0.950 . S
C5193 C5210 1.574 . S
C5193 C5212 1.368 . S
C5193 H5217 0.949 . S
H5194 C5198 0.949 . S
C5195 C5196 1.349 . S
C5195 C5197 1.327 . S
C5195 H5218 0.950 . S
C5196 C5195 1.349 . S
C5196 C5208 1.349 . S
C5197 C5195 1.327 . S
C5197 C5213 1.429 . S
C5197 H5219 0.950 . S
C5198 H5194 0.949 . S
C5198 C5206 1.574 . S
C5198 C5214 1.368 . S
H5199 C5207 0.950 . S
H5200 C5205 0.950 . S
H5201 C5206 0.949 . S
H5202 C5208 0.950 . S
H5203 C5209 0.950 . S
H5204 C5210 0.949 . S
C5205 H5200 0.950 . S
C5205 C5207 1.327 . S
C5205 C5211 1.429 . S
C5206 C5198 1.574 . S
C5206 H5201 0.949 . S
C5206 C5212 1.368 . S
C5207 C5191 1.349 . S
C5207 H5199 0.950 . S
C5207 C5205 1.327 . S
C5208 C5196 1.349 . S
C5208 H5202 0.950 . S
C5208 C5209 1.327 . S
C5209 H5203 0.950 . S
C5209 C5208 1.327 . S
C5209 C5213 1.429 . S
C5210 C5193 1.574 . S
C5210 H5204 0.949 . S
C5210 C5214 1.368 . S
C5211 C5192 1.429 . S
C5211 C5205 1.429 . S
C5211 C5212 1.523 . S
C5212 C5193 1.368 . S
C5212 C5206 1.368 . S
C5212 C5211 1.523 . S
C5213 C5197 1.429 . S
C5213 C5209 1.429 . S
C5213 C5214 1.523 . S
C5214 C5198 1.368 . S
C5214 C5210 1.368 . S
C5214 C5213 1.523 . S
H5215 C5190 0.950 . S
H5216 C5192 0.950 . S
H5217 C5193 0.949 . S
H5218 C5195 0.950 . S
H5219 C5197 0.950 . S
C5220 C5221 1.349 . S
C5220 C5222 1.327 . S
C5220 H5245 0.950 . S
C5221 C5220 1.349 . S
C5221 C5237 1.349 . S
C5222 C5220 1.327 . S
C5222 C5241 1.429 . S
C5222 H5246 0.950 . S
C5223 C5240 1.574 . S
C5223 C5242 1.368 . S
C5223 H5247 0.949 . S
H5224 C5228 0.949 . S
C5225 C5226 1.349 . S
C5225 C5227 1.327 . S
C5225 H5248 0.950 . S
C5226 C5225 1.349 . S
C5226 C5238 1.349 . S
C5227 C5225 1.327 . S
C5227 C5243 1.429 . S
C5227 H5249 0.950 . S
C5228 H5224 0.949 . S
C5228 C5236 1.574 . S
C5228 C5244 1.368 . S
H5229 C5237 0.950 . S
H5230 C5235 0.950 . S
H5231 C5236 0.949 . S
H5232 C5238 0.950 . S
H5233 C5239 0.950 . S
H5234 C5240 0.949 . S
C5235 H5230 0.950 . S
C5235 C5237 1.327 . S
C5235 C5241 1.429 . S
C5236 C5228 1.574 . S
C5236 H5231 0.949 . S
C5236 C5242 1.368 . S
C5237 C5221 1.349 . S
C5237 H5229 0.950 . S
C5237 C5235 1.327 . S
C5238 C5226 1.349 . S
C5238 H5232 0.950 . S
C5238 C5239 1.327 . S
C5239 H5233 0.950 . S
C5239 C5238 1.327 . S
C5239 C5243 1.429 . S
C5240 C5223 1.574 . S
C5240 H5234 0.949 . S
C5240 C5244 1.368 . S
C5241 C5222 1.429 . S
C5241 C5235 1.429 . S
C5241 C5242 1.523 . S
C5242 C5223 1.368 . S
C5242 C5236 1.368 . S
C5242 C5241 1.523 . S
C5243 C5227 1.429 . S
C5243 C5239 1.429 . S
C5243 C5244 1.523 . S
C5244 C5228 1.368 . S
C5244 C5240 1.368 . S
C5244 C5243 1.523 . S
H5245 C5220 0.950 . S
H5246 C5222 0.950 . S
H5247 C5223 0.949 . S
H5248 C5225 0.950 . S
H5249 C5227 0.950 . S
C5250 C5251 1.349 . S
C5250 C5252 1.327 . S
C5250 H5275 0.950 . S
C5251 C5250 1.349 . S
C5251 C5267 1.349 . S
C5252 C5250 1.327 . S
C5252 C5271 1.429 . S
C5252 H5276 0.950 . S
C5253 C5270 1.574 . S
C5253 C5272 1.368 . S
C5253 H5277 0.949 . S
H5254 C5258 0.949 . S
C5255 C5256 1.349 . S
C5255 C5257 1.327 . S
C5255 H5278 0.950 . S
C5256 C5255 1.349 . S
C5256 C5268 1.349 . S
C5257 C5255 1.327 . S
C5257 C5273 1.429 . S
C5257 H5279 0.950 . S
C5258 H5254 0.949 . S
C5258 C5266 1.574 . S
C5258 C5274 1.368 . S
H5259 C5267 0.950 . S
H5260 C5265 0.950 . S
H5261 C5266 0.949 . S
H5262 C5268 0.950 . S
H5263 C5269 0.950 . S
H5264 C5270 0.949 . S
C5265 H5260 0.950 . S
C5265 C5267 1.327 . S
C5265 C5271 1.429 . S
C5266 C5258 1.574 . S
C5266 H5261 0.949 . S
C5266 C5272 1.368 . S
C5267 C5251 1.349 . S
C5267 H5259 0.950 . S
C5267 C5265 1.327 . S
C5268 C5256 1.349 . S
C5268 H5262 0.950 . S
C5268 C5269 1.327 . S
C5269 H5263 0.950 . S
C5269 C5268 1.327 . S
C5269 C5273 1.429 . S
C5270 C5253 1.574 . S
C5270 H5264 0.949 . S
C5270 C5274 1.368 . S
C5271 C5252 1.429 . S
C5271 C5265 1.429 . S
C5271 C5272 1.523 . S
C5272 C5253 1.368 . S
C5272 C5266 1.368 . S
C5272 C5271 1.523 . S
C5273 C5257 1.429 . S
C5273 C5269 1.429 . S
C5273 C5274 1.523 . S
C5274 C5258 1.368 . S
C5274 C5270 1.368 . S
C5274 C5273 1.523 . S
H5275 C5250 0.950 . S
H5276 C5252 0.950 . S
H5277 C5253 0.949 . S
H5278 C5255 0.950 . S
H5279 C5257 0.950 . S
C961 C2 2.145 . S
C966 C99 2.249 . S
C991 C22 1.273 . S
C996 C119 1.352 . S
C1021 C122 1.742 . S
C1026 C42 1.705 . S
C1051 C159 2.042 . S
C1056 C62 1.914 . S
C1081 C179 2.318 . S
C1086 C199 2.314 . S
C1111 C182 2.107 . S
C1116 C219 2.231 . S
C1141 C222 1.584 . S
C1146 C202 1.627 . S
C1171 C239 2.053 . S
C1176 C162 1.900 . S
C1201 C259 1.700 . S
C1206 C79 1.711 . S
C1231 C142 1.475 . S
C1236 C662 1.463 . S
C1261 C82 2.042 . S
C1266 C279 2.178 . S
C1291 C102 1.604 . S
C1296 C682 1.632 . S
C1321 C39 1.735 . S
C1326 C299 1.742 . S
C1351 C639 1.805 . S
C1356 C19 1.801 . S
C1381 C619 1.884 . S
C1386 C59 1.886 . S
C1411 C398 2.249 . S
C1416 C304 2.145 . S
C1441 C324 1.273 . S
C1446 C418 1.352 . S
C1471 C344 1.705 . S
C1476 C424 1.742 . S
C1501 C364 1.914 . S
C1506 C458 2.042 . S
C1531 C498 2.314 . S
C1536 C478 2.318 . S
C1561 C484 2.107 . S
C1566 C518 2.231 . S
C1591 C524 1.584 . S
C1596 C504 1.627 . S
C1621 C464 1.900 . S
C1626 C538 2.053 . S
C1651 C378 1.711 . S
C1656 C558 1.700 . S
C1681 C844 1.463 . S
C1686 C444 1.475 . S
C1711 C578 2.178 . S
C1716 C384 2.042 . S
C1741 C404 1.604 . S
C1746 C864 1.632 . S
C1771 C598 1.742 . S
C1776 C338 1.735 . S
C1801 C318 1.801 . S
C1806 C818 1.805 . S
C1831 C358 1.886 . S
C1836 C798 1.884 . S
C1861 C659 2.038 . S
C1866 C602 1.950 . S
C1891 C679 1.533 . S
C1896 C242 1.433 . S
C1921 C622 1.630 . S
C1926 C262 1.670 . S
C1951 C699 1.956 . S
C1956 C282 1.819 . S
C1981 C719 2.111 . S
C1986 C739 2.101 . S
C2011 C722 2.236 . S
C2016 C759 2.337 . S
C2041 C779 2.045 . S
C2046 C742 1.942 . S
C2071 C702 1.636 . S
C2076 C762 1.688 . S
C2101 C139 2.220 . S
C2106 C642 2.100 . S
C2131 C838 2.038 . S
C2136 C784 1.950 . S
C2161 C858 1.533 . S
C2166 C544 1.433 . S
C2191 C564 1.670 . S
C2196 C804 1.630 . S
C2221 C878 1.956 . S
C2226 C584 1.819 . S
C2251 C898 2.111 . S
C2256 C918 2.101 . S
C2281 C904 2.236 . S
C2286 C938 2.337 . S
C2311 C924 1.942 . S
C2316 C958 2.045 . S
C2341 C944 1.688 . S
C2346 C884 1.636 . S
C2371 C824 2.100 . S
C2376 C438 2.220 . S
C2401 C4 0.749 . S
C2406 C329 0.748 . S
C2431 C809 0.632 . S
C2436 C24 0.662 . S
C2461 C44 0.770 . S
C2466 C369 0.777 . S
C2491 C64 0.793 . S
C2496 C789 0.804 . S
C2521 C98 0.422 . S
C2526 C452 0.448 . S
C2551 C118 0.351 . S
C2556 C832 0.349 . S
C2581 C124 0.481 . S
C2586 C412 0.486 . S
C2611 C569 0.386 . S
C2616 C158 0.312 . S
C2641 C178 1.134 . S
C2646 C792 1.134 . S
C2671 C184 0.856 . S
C2676 C332 0.885 . S
C2701 C204 0.653 . S
C2706 C812 0.659 . S
C2731 C372 0.776 . S
C2736 C238 0.776 . S
C2761 C829 0.472 . S
C2766 C224 0.485 . S
C2791 C409 0.567 . S
C2796 C164 0.583 . S
C2821 C198 0.711 . S
C2826 C572 0.713 . S
C2851 C449 0.396 . S
C2856 C218 0.328 . S
C2881 C889 0.840 . S
C2886 C258 0.841 . S
C2911 C532 0.469 . S
C2916 C144 0.489 . S
C2941 C84 0.754 . S
C2946 C892 0.754 . S
C2971 C104 0.622 . S
C2976 C489 0.561 . S
C3001 C278 0.425 . S
C3006 C509 0.474 . S
C3031 C932 0.684 . S
C3036 C298 0.685 . S
C3061 C18 0.877 . S
C3066 C952 0.868 . S
C3091 C58 0.824 . S
C3096 C912 0.822 . S
C3121 C32 0.748 . S
C3126 C302 0.749 . S
C3151 C322 0.662 . S
C3156 C632 0.632 . S
C3181 C342 0.770 . S
C3186 C72 0.777 . S
C3211 C362 0.793 . S
C3216 C612 0.804 . S
C3241 C149 0.448 . S
C3246 C399 0.422 . S
C3271 C649 0.349 . S
C3276 C419 0.351 . S
C3301 C109 0.486 . S
C3306 C422 0.481 . S
C3331 C459 0.312 . S
C3336 C272 0.386 . S
C3361 C479 1.134 . S
C3366 C609 1.134 . S
C3391 C29 0.885 . S
C3396 C482 0.856 . S
C3421 C502 0.653 . S
C3426 C629 0.659 . S
C3451 C69 0.776 . S
C3456 C539 0.776 . S
C3481 C652 0.472 . S
C3486 C522 0.485 . S
C3511 C462 0.583 . S
C3516 C112 0.567 . S
C3541 C499 0.711 . S
C3546 C269 0.713 . S
C3571 C152 0.396 . S
C3576 C519 0.328 . S
C3601 C559 0.841 . S
C3606 C712 0.840 . S
C3631 C229 0.469 . S
C3636 C442 0.489 . S
C3661 C709 0.754 . S
C3666 C382 0.754 . S
C3691 C402 0.622 . S
C3696 C192 0.561 . S
C3721 C579 0.425 . S
C3726 C212 0.474 . S
C3751 C749 0.684 . S
C3756 C599 0.685 . S
C3781 C319 0.877 . S
C3786 C769 0.868 . S
C3811 C729 0.822 . S
C3816 C359 0.824 . S
C3841 C549 0.857 . S
C3846 C604 0.839 . S
C3871 C244 0.810 . S
C3876 C349 0.823 . S
C3901 C589 0.566 . S
C3906 C624 0.635 . S
C3931 C284 0.826 . S
C3936 C309 0.841 1_455 S
C3961 C658 0.408 . S
C3966 C872 0.460 . S
C3991 C392 0.491 . S
C3996 C678 0.485 . S
C4021 C264 0.469 . S
C4026 C852 0.489 . S
C4051 C429 0.440 . S
C4056 C698 0.352 . S
C4081 C718 0.962 . S
C4086 C312 0.960 . S
C4111 C724 0.944 . S
C4116 C552 0.985 . S
C4141 C744 0.914 . S
C4146 C352 0.907 . S
C4171 C592 0.474 . S
C4176 C764 0.586 . S
C4201 C389 0.628 . S
C4206 C778 0.612 . S
C4231 C704 0.540 . S
C4236 C849 0.504 . S
C4261 C432 0.672 . S
C4266 C738 0.667 . S
C4291 C758 0.375 . S
C4296 C869 0.397 . S
C4321 C38 0.943 . S
C4326 C469 0.935 . S
C4351 C949 0.472 . S
C4356 C684 0.493 . S
C4381 C644 0.728 . S
C4386 C472 0.722 . S
C4411 C664 0.601 . S
C4416 C909 0.494 . S
C4441 C929 0.522 . S
C4446 C138 0.493 . S
C4471 C512 0.727 . S
C4476 C78 0.725 . S
C4501 C618 0.753 . S
C4506 C529 0.753 . S
C4531 C492 0.904 . S
C4536 C638 0.908 . S
C4561 C252 0.857 . S
C4566 C782 0.839 . S
C4591 C542 0.810 . S
C4596 C52 0.823 . S
C4621 C292 0.566 . S
C4626 C802 0.635 . S
C4651 C582 0.826 . S
C4656 C12 0.841 1_655 S
C4681 C839 0.408 . S
C4686 C689 0.460 . S
C4711 C89 0.491 . S
C4716 C859 0.485 . S
C4741 C669 0.489 . S
C4746 C562 0.469 . S
C4771 C132 0.440 . S
C4776 C879 0.352 . S
C4801 C9 0.960 . S
C4806 C899 0.962 . S
C4831 C902 0.944 . S
C4836 C249 0.985 . S
C4861 C49 0.907 . S
C4866 C922 0.914 . S
C4891 C289 0.474 . S
C4896 C942 0.586 . S
C4921 C92 0.628 . S
C4926 C959 0.612 . S
C4951 C672 0.504 . S
C4956 C882 0.540 . S
C4981 C919 0.667 . S
C4986 C129 0.672 . S
C5011 C692 0.397 . S
C5016 C939 0.375 . S
C5041 C172 0.935 . S
C5046 C339 0.943 . S
C5071 C862 0.493 . S
C5076 C772 0.472 . S
C5101 C822 0.728 . S
C5106 C169 0.722 . S
C5131 C732 0.494 . S
C5136 C842 0.601 . S
C5161 C439 0.493 . S
C5166 C752 0.522 . S
C5191 C379 0.725 . S
C5196 C209 0.727 . S
C5221 C232 0.753 . S
C5226 C799 0.753 . S
C5251 C189 0.904 . S
C5256 C819 0.908 . S
