# Generated by pormake.
# Topology snk, (6)-cn, num edge types: 1
# Building blocks:
#     Node 0, Type 0, BuildingBlock: BETFAJ_clean_sbu_0, # of connection points: 6
#     Node 1, Type 0, BuildingBlock: BETFAJ_clean_sbu_0, # of connection points: 6
#     Node 2, Type 0, BuildingBlock: BETFAJ_clean_sbu_0, # of connection points: 6
#     Node 3, Type 0, BuildingBlock: BETFAJ_clean_sbu_0, # of connection points: 6
#     Node 4, Type 0, BuildingBlock: BETFAJ_clean_sbu_0, # of connection points: 6
#     Node 5, Type 0, BuildingBlock: BETFAJ_clean_sbu_0, # of connection points: 6
#     Node 6, Type 0, BuildingBlock: BETFAJ_clean_sbu_0, # of connection points: 6
#     Node 7, Type 0, BuildingBlock: BETFAJ_clean_sbu_0, # of connection points: 6
#     Edge 8, Type (0, 0), BuildingBlock: CIFDUS_clean_linker_0, # of connection points: 2
#     Edge 9, Type (0, 0), BuildingBlock: CIFDUS_clean_linker_0, # of connection points: 2
#     Edge 10, Type (0, 0), BuildingBlock: CIFDUS_clean_linker_0, # of connection points: 2
#     Edge 11, Type (0, 0), BuildingBlock: CIFDUS_clean_linker_0, # of connection points: 2
#     Edge 12, Type (0, 0), BuildingBlock: CIFDUS_clean_linker_0, # of connection points: 2
#     Edge 13, Type (0, 0), BuildingBlock: CIFDUS_clean_linker_0, # of connection points: 2
#     Edge 14, Type (0, 0), BuildingBlock: CIFDUS_clean_linker_0, # of connection points: 2
#     Edge 15, Type (0, 0), BuildingBlock: CIFDUS_clean_linker_0, # of connection points: 2
#     Edge 16, Type (0, 0), BuildingBlock: CIFDUS_clean_linker_0, # of connection points: 2
#     Edge 17, Type (0, 0), BuildingBlock: CIFDUS_clean_linker_0, # of connection points: 2
#     Edge 18, Type (0, 0), BuildingBlock: CIFDUS_clean_linker_0, # of connection points: 2
#     Edge 19, Type (0, 0), BuildingBlock: CIFDUS_clean_linker_0, # of connection points: 2
#     Edge 20, Type (0, 0), BuildingBlock: CIFDUS_clean_linker_0, # of connection points: 2
#     Edge 21, Type (0, 0), BuildingBlock: CIFDUS_clean_linker_0, # of connection points: 2
#     Edge 22, Type (0, 0), BuildingBlock: CIFDUS_clean_linker_0, # of connection points: 2
#     Edge 23, Type (0, 0), BuildingBlock: CIFDUS_clean_linker_0, # of connection points: 2
#     Edge 24, Type (0, 0), BuildingBlock: CIFDUS_clean_linker_0, # of connection points: 2
#     Edge 25, Type (0, 0), BuildingBlock: CIFDUS_clean_linker_0, # of connection points: 2
#     Edge 26, Type (0, 0), BuildingBlock: CIFDUS_clean_linker_0, # of connection points: 2
#     Edge 27, Type (0, 0), BuildingBlock: CIFDUS_clean_linker_0, # of connection points: 2
#     Edge 28, Type (0, 0), BuildingBlock: CIFDUS_clean_linker_0, # of connection points: 2
#     Edge 29, Type (0, 0), BuildingBlock: CIFDUS_clean_linker_0, # of connection points: 2
#     Edge 30, Type (0, 0), BuildingBlock: CIFDUS_clean_linker_0, # of connection points: 2
#     Edge 31, Type (0, 0), BuildingBlock: CIFDUS_clean_linker_0, # of connection points: 2
# Relax obj value: 0.102
# Max RMSD: 0.168
# Mean RMSD: 0.134
data_MOF--net-snk--node1-BETFAJ_clean_sbu_0--edge1-CIFDUS_clean_linker_0
_symmetry_space_group_name_H-M    P1
_symmetry_Int_Tables_number       1
_symmetry_cell_setting            triclinic
loop_
_symmetry_equiv_pos_as_xyz
'x, y, z'
_cell_length_a     32.55896
_cell_length_b     32.514585
_cell_length_c     23.563146
_cell_angle_alpha  82.83518
_cell_angle_beta   97.045008
_cell_angle_gamma 88.605675
loop_
_atom_site_label
_atom_site_type_symbol
_atom_site_fract_x
_atom_site_fract_y
_atom_site_fract_z
_atom_type_partial_charge
Sm0 Sm 0.97723 0.98711 0.44428 0.0
Sm1 Sm 0.02058 0.01323 0.55923 0.0
C2 C 0.94052 0.98469 0.33763 0.0
C3 C 0.95165 0.99172 0.27842 0.0
C4 C 0.98768 0.01219 0.26649 0.0
C5 C 0.99829 0.01776 0.21023 0.0
C6 C 0.97315 1.00283 0.16475 0.0
C7 C 0.93706 0.98235 0.17714 0.0
C8 C 0.92646 0.97688 0.23338 0.0
C9 C 0.04278 0.9362 0.49791 0.0
C10 C 0.05222 0.05495 0.44378 0.0
C11 C 0.05547 0.01836 0.66615 0.0
C12 C 0.04406 0.01143 0.72521 0.0
C13 C 1.00801 0.99093 0.73692 0.0
C14 C 0.99723 0.98536 0.79311 0.0
C15 C 0.02224 1.00031 0.8387 0.0
C16 C 0.05837 0.0208 0.8265 0.0
C17 C 0.06912 0.02627 0.77036 0.0
C18 C 0.95392 0.06281 0.50412 0.0
C19 C 0.94893 0.94284 0.56133 0.0
O20 O 0.9386 0.01726 0.36488 0.0
O21 O 0.95837 0.95224 0.37055 0.0
O22 O 0.04138 0.97528 0.49396 0.0
O23 O 0.01052 0.92322 0.46834 0.0
O24 O 0.01772 0.04204 0.41694 0.0
O25 O 0.06513 0.04178 0.49858 0.0
O26 O 0.05926 0.98551 0.64002 0.0
O27 O 0.03645 0.0497 0.63217 0.0
O28 O 0.95607 0.0238 0.51025 0.0
O29 O 0.98688 0.07696 0.5305 0.0
O30 O 0.98313 0.95673 0.58727 0.0
O31 O 0.93466 0.95613 0.5069 0.0
H32 H 1.00775 0.02362 0.30074 0.0
H33 H 0.02656 0.0332 0.20256 0.0
H34 H 0.91666 0.97094 0.14323 0.0
H35 H 0.89855 0.96095 0.24173 0.0
H36 H 0.98807 0.97946 0.70257 0.0
H37 H 0.96895 0.9699 0.80064 0.0
H38 H 0.07868 0.0322 0.86051 0.0
H39 H 0.09708 0.04218 0.76218 0.0
Sm40 Sm 0.24205 0.75225 0.82128 0.0
Sm41 Sm 0.27341 0.7913 0.70855 0.0
C42 C 0.23521 0.71764 0.92766 0.0
C43 C 0.24299 0.72893 0.98651 0.0
C44 C 0.23925 0.69919 0.03381 0.0
C45 C 0.24596 0.70961 0.08999 0.0
C46 C 0.25654 0.75008 0.09993 0.0
C47 C 0.26055 0.77973 0.05213 0.0
C48 C 0.25386 0.76923 0.99596 0.0
C49 C 0.19457 0.81796 0.76072 0.0
C50 C 0.30942 0.82758 0.82364 0.0
C51 C 0.28242 0.82418 0.60205 0.0
C52 C 0.27551 0.81225 0.54347 0.0
C53 C 0.27956 0.84164 0.4959 0.0
C54 C 0.2735 0.83071 0.43996 0.0
C55 C 0.26326 0.79007 0.43051 0.0
C56 C 0.25902 0.76073 0.47857 0.0
C57 C 0.26506 0.77174 0.53452 0.0
C58 C 0.31982 0.72457 0.76965 0.0
C59 C 0.20236 0.72 0.70487 0.0
O60 O 0.26789 0.71215 0.90179 0.0
O61 O 0.20478 0.73822 0.89362 0.0
O62 O 0.2335 0.81553 0.7689 0.0
O63 O 0.17909 0.78592 0.78786 0.0
O64 O 0.29545 0.79384 0.85142 0.0
O65 O 0.29947 0.83784 0.76752 0.0
O66 O 0.24928 0.83057 0.62651 0.0
O67 O 0.31211 0.80357 0.63745 0.0
O68 O 0.28098 0.72766 0.76026 0.0
O69 O 0.33602 0.7569 0.74442 0.0
O70 O 0.21753 0.75332 0.67801 0.0
O71 O 0.21315 0.70786 0.76048 0.0
H72 H 0.2311 0.66786 0.0273 0.0
H73 H 0.24327 0.68581 0.12568 0.0
H74 H 0.26821 0.81127 0.05803 0.0
H75 H 0.2569 0.79263 0.95988 0.0
H76 H 0.2874 0.87312 0.50201 0.0
H77 H 0.27634 0.85428 0.40405 0.0
H78 H 0.25161 0.72907 0.47305 0.0
H79 H 0.26178 0.74861 0.57081 0.0
Sm80 Sm 0.53069 0.97974 0.09158 0.0
Sm81 Sm 0.50099 0.02312 0.97037 0.0
C82 C 0.55928 0.96102 0.20264 0.0
C83 C 0.54794 0.96784 0.25936 0.0
C84 C 0.57643 0.95658 0.30874 0.0
C85 C 0.56634 0.96281 0.36311 0.0
C86 C 0.52749 0.98058 0.36912 0.0
C87 C 0.49899 0.99192 0.31924 0.0
C88 C 0.50913 0.98553 0.26484 0.0
C89 C 0.47319 0.93679 0.0306 0.0
C90 C 0.45447 0.05221 0.07183 0.0
C91 C 0.47588 0.04577 0.85889 0.0
C92 C 0.48638 0.03714 0.80244 0.0
C93 C 0.45739 0.04732 0.75331 0.0
C94 C 0.46703 0.04015 0.69905 0.0
C95 C 0.50589 0.02248 0.69292 0.0
C96 C 0.53474 0.01189 0.74262 0.0
C97 C 0.52509 0.01927 0.79685 0.0
C98 C 0.56056 0.06307 0.03393 0.0
C99 C 0.57387 0.94869 0.98776 0.0
O100 O 0.56995 0.99368 0.17036 0.0
O101 O 0.53574 0.9369 0.17352 0.0
O102 O 0.47163 0.97586 0.03 0.0
O103 O 0.50391 0.91942 0.06659 0.0
O104 O 0.4844 0.03116 0.10768 0.0
O105 O 0.45066 0.05029 1.01585 0.0
O106 O 0.45987 0.01565 0.8899 0.0
O107 O 0.50293 0.06574 0.88952 0.0
O108 O 0.56047 0.02466 0.03095 0.0
O109 O 0.52909 0.08219 1.00129 0.0
O110 O 0.54318 0.96931 0.95317 0.0
O111 O 0.57976 0.95187 0.04356 0.0
H112 H 0.6065 0.94276 0.30527 0.0
H113 H 0.58878 0.95312 0.40054 0.0
H114 H 0.46901 1.00611 0.32212 0.0
H115 H 0.48674 0.99435 0.2271 0.0
H116 H 0.42738 0.06125 0.75682 0.0
H117 H 0.44429 0.04926 0.66176 0.0
H118 H 0.56473 0.99773 0.73971 0.0
H119 H 0.5479 0.01133 0.83435 0.0
Sm120 Sm 0.24511 0.26521 0.22284 0.0
Sm121 Sm 0.28987 0.23976 0.34293 0.0
C122 C 0.22139 0.288 0.11124 0.0
C123 C 0.23235 0.27913 0.05521 0.0
C124 C 0.27191 0.26319 0.04969 0.0
C125 C 0.28147 0.25466 0.99592 0.0
C126 C 0.25161 0.26192 0.9468 0.0
C127 C 0.21199 0.27776 0.95288 0.0
C128 C 0.20251 0.28627 1.00658 0.0
C129 C 0.2044 0.20931 0.29102 0.0
C130 C 0.31905 0.19135 0.2432 0.0
C131 C 0.31313 0.21667 0.45455 0.0
C132 C 0.30228 0.22593 0.51048 0.0
C133 C 0.26281 0.24212 0.51593 0.0
C134 C 0.25332 0.25085 0.56964 0.0
C135 C 0.28318 0.24357 0.61876 0.0
C136 C 0.32273 0.22755 0.61273 0.0
C137 C 0.33213 0.21882 0.5591 0.0
C138 C 0.33166 0.29472 0.27505 0.0
C139 C 0.21575 0.31357 0.32234 0.0
O140 O 0.24826 0.30786 0.14239 0.0
O141 O 0.20477 0.25802 0.14172 0.0
O142 O 0.2428 0.20795 0.28789 0.0
O143 O 0.18584 0.24003 0.25608 0.0
O144 O 0.29808 0.22102 0.20687 0.0
O145 O 0.3171 0.18824 0.29918 0.0
O146 O 0.28583 0.19735 0.42329 0.0
O147 O 0.33045 0.24618 0.42415 0.0
O148 O 0.29308 0.29705 0.27746 0.0
O149 O 0.34933 0.26384 0.31056 0.0
O150 O 0.23701 0.28418 0.3588 0.0
O151 O 0.21755 0.31651 0.26637 0.0
H152 H 0.29537 0.25745 0.08685 0.0
H153 H 0.31237 0.24286 0.99271 0.0
H154 H 0.18806 0.28304 0.91626 0.0
H155 H 0.17174 0.2983 1.01019 0.0
H156 H 0.23934 0.24786 0.47878 0.0
H157 H 0.22246 0.26281 0.57281 0.0
H158 H 0.34667 0.22226 0.64934 0.0
H159 H 0.36285 0.2066 0.55554 0.0
Sm160 Sm 0.75557 0.24449 0.30831 0.0
Sm161 Sm 0.78173 0.28737 0.19388 0.0
C162 C 0.75253 0.20898 0.4155 0.0
C163 C 0.75947 0.22028 0.47451 0.0
C164 C 0.78005 0.2563 0.48624 0.0
C165 C 0.78577 0.26686 0.54246 0.0
C166 C 0.77086 0.24167 0.58803 0.0
C167 C 0.75028 0.20559 0.57583 0.0
C168 C 0.74467 0.19505 0.51965 0.0
C169 C 0.70295 0.30741 0.25091 0.0
C170 C 0.81766 0.32448 0.30828 0.0
C171 C 0.78661 0.32212 0.0868 0.0
C172 C 0.77978 0.31086 0.02777 0.0
C173 C 0.7593 0.27482 1.01598 0.0
C174 C 0.75373 0.26427 0.95974 0.0
C175 C 0.76867 0.2895 0.91424 0.0
C176 C 0.78918 0.3256 0.92653 0.0
C177 C 0.79465 0.33612 0.98272 0.0
C178 C 0.83487 0.225 0.25297 0.0
C179 C 0.71566 0.21128 0.19304 0.0
O180 O 0.78519 0.20656 0.38859 0.0
O181 O 0.72037 0.227 0.38223 0.0
O182 O 0.74186 0.30781 0.25705 0.0
O183 O 0.69022 0.27396 0.27829 0.0
O184 O 0.80617 0.2896 0.33629 0.0
O185 O 0.806 0.33491 0.25251 0.0
O186 O 0.75377 0.32577 0.113 0.0
O187 O 0.81798 0.30313 0.12065 0.0
O188 O 0.79593 0.22409 0.24582 0.0
O189 O 0.84708 0.25864 0.22547 0.0
O190 O 0.7283 0.24585 0.16597 0.0
O191 O 0.72833 0.19888 0.24812 0.0
H192 H 0.7915 0.27636 0.4519 0.0
H193 H 0.80132 0.29509 0.55005 0.0
H194 H 0.73892 0.18516 0.60985 0.0
H195 H 0.72872 0.16712 0.51144 0.0
H196 H 0.74782 0.25474 0.05028 0.0
H197 H 0.73825 0.23601 0.95208 0.0
H198 H 0.80058 0.34606 0.89257 0.0
H199 H 0.81056 0.36407 0.99101 0.0
Sm200 Sm 0.72951 0.76413 0.70218 0.0
Sm201 Sm 0.77463 0.73792 0.8228 0.0
C202 C 0.70821 0.7892 0.59065 0.0
C203 C 0.72005 0.78047 0.53497 0.0
C204 C 0.71322 0.81125 0.48728 0.0
C205 C 0.72373 0.80351 0.43373 0.0
C206 C 0.74126 0.76472 0.42685 0.0
C207 C 0.74848 0.73404 0.47514 0.0
C208 C 0.73801 0.74188 0.52874 0.0
C209 C 0.68673 0.70973 0.76835 0.0
C210 C 0.80386 0.68959 0.72387 0.0
C211 C 0.79917 0.71595 0.93433 0.0
C212 C 0.78735 0.72448 0.99019 0.0
C213 C 0.79294 0.69313 0.03729 0.0
C214 C 0.7825 0.7007 0.09096 0.0
C215 C 0.76616 0.73984 0.0985 0.0
C216 C 0.76023 0.77112 0.05091 0.0
C217 C 0.77079 0.76352 0.99727 0.0
C218 C 0.81308 0.79553 0.75346 0.0
C219 C 0.69996 0.81027 0.80457 0.0
O220 O 0.73545 0.80763 0.62317 0.0
O221 O 0.68981 0.75981 0.61981 0.0
O222 O 0.72562 0.70693 0.76775 0.0
O223 O 0.66961 0.74018 0.73156 0.0
O224 O 0.78253 0.71893 0.68713 0.0
O225 O 0.80184 0.68666 0.7797 0.0
O226 O 0.77347 0.69467 0.90362 0.0
O227 O 0.81469 0.74646 0.90327 0.0
O228 O 0.77517 0.79553 0.75879 0.0
O229 O 0.83294 0.76468 0.78669 0.0
O230 O 0.72093 0.78015 0.83991 0.0
O231 O 0.70186 0.8145 0.74839 0.0
H232 H 0.69967 0.84133 0.49145 0.0
H233 H 0.71845 0.82809 0.39784 0.0
H234 H 0.76158 0.70371 0.47135 0.0
H235 H 0.74361 0.71772 0.56517 0.0
H236 H 0.80551 0.66275 0.03257 0.0
H237 H 0.78687 0.67576 0.12644 0.0
H238 H 0.74812 0.80171 0.05535 0.0
H239 H 0.76637 0.78822 0.96148 0.0
Sm240 Sm 0.47775 0.50063 0.96645 0.0
Sm241 Sm 0.52261 0.5247 0.08006 0.0
C242 C 0.44352 0.49831 0.85885 0.0
C243 C 0.45613 0.50345 0.80031 0.0
C244 C 0.4785 0.53759 0.78041 0.0
C245 C 0.49062 0.54125 0.72506 0.0
C246 C 0.48078 0.51078 0.68853 0.0
C247 C 0.45836 0.47671 0.70877 0.0
C248 C 0.44612 0.47318 0.76396 0.0
C249 C 0.53255 0.44155 0.02876 0.0
C250 C 0.56511 0.55214 0.96709 0.0
C251 C 0.55665 0.52828 0.18743 0.0
C252 C 0.5445 0.5225 0.24618 0.0
C253 C 0.52215 0.48826 0.26574 0.0
C254 C 0.51036 0.48413 0.3213 0.0
C255 C 0.52044 0.51424 0.35832 0.0
C256 C 0.54284 0.54842 0.33838 0.0
C257 C 0.55479 0.55241 0.28301 0.0
C258 C 0.46941 0.58464 1.0159 0.0
C259 C 0.43769 0.46994 0.0803 0.0
O260 O 0.44211 0.53139 0.88519 0.0
O261 O 0.45884 0.46537 0.89316 0.0
O262 O 0.53845 0.47981 0.02058 0.0
O263 O 0.4975 0.43271 1.00132 0.0
O264 O 0.52941 0.54367 0.93823 0.0
O265 O 0.57346 0.54143 0.02334 0.0
O266 O 0.55948 0.49529 0.16121 0.0
O267 O 0.53977 0.56059 0.15319 0.0
O268 O 0.46231 0.54656 0.02479 0.0
O269 O 0.50451 0.59252 0.04407 0.0
O270 O 0.47327 0.47923 0.1084 0.0
O271 O 0.42801 0.48165 0.02444 0.0
H272 H 0.48672 0.56142 0.80757 0.0
H273 H 0.5074 0.56815 0.71074 0.0
H274 H 0.45083 0.4523 0.68235 0.0
H275 H 0.42908 0.44649 0.77851 0.0
H276 H 0.51366 0.46477 0.23811 0.0
H277 H 0.49358 0.45716 0.33537 0.0
H278 H 0.55053 0.57259 0.36514 0.0
H279 H 0.57178 0.57919 0.26868 0.0
Sm280 Sm 0.02686 0.48092 0.58833 0.0
Sm281 Sm 1.0036 0.52618 0.46795 0.0
C282 C 0.04857 0.45741 0.70007 0.0
C283 C 0.04056 0.46977 0.75566 0.0
C284 C 0.07084 0.46096 0.80353 0.0
C285 C 0.0636 0.47161 0.85714 0.0
C286 C 0.02584 0.4913 0.8638 0.0
C287 C 0.99572 0.5006 0.81535 0.0
C288 C 1.00303 0.48992 0.7617 0.0
C289 C 0.97644 0.43709 0.51803 0.0
C290 C 0.95127 0.55367 0.56434 0.0
C291 C 0.98379 0.55126 0.35628 0.0
C292 C 0.99027 0.53773 0.30071 0.0
C293 C 0.95911 0.54612 0.25381 0.0
C294 C 0.96506 0.53465 0.20012 0.0
C295 C 1.00235 0.51455 0.19243 0.0
C296 C 0.03329 0.50558 0.23994 0.0
C297 C 0.02729 0.51709 0.29362 0.0
C298 C 0.05609 0.56768 0.53987 0.0
C299 C 0.07702 0.45216 0.48999 0.0
O300 O 0.06997 0.48269 0.66879 0.0
O301 O 0.01766 0.44214 0.66968 0.0
O302 O 0.97225 0.47575 0.51955 0.0
O303 O 1.0063 0.42042 0.55604 0.0
O304 O 0.98025 0.53286 0.6021 0.0
O305 O 0.95017 0.55217 0.50857 0.0
O306 O 0.95979 0.52883 0.38717 0.0
O307 O 0.01634 0.56338 0.38712 0.0
O308 O 0.05875 0.52948 0.53571 0.0
O309 O 0.02578 0.58582 0.50388 0.0
O310 O 0.04744 0.47268 0.45309 0.0
O311 O 0.07957 0.45452 0.54583 0.0
H312 H 0.10009 0.44565 0.79948 0.0
H313 H 0.08771 0.46467 0.89332 0.0
H314 H 0.96619 0.51543 0.8191 0.0
H315 H 0.97927 0.49696 0.72513 0.0
H316 H 0.93024 0.56182 0.25863 0.0
H317 H 0.94037 0.54139 0.16467 0.0
H318 H 0.06251 0.49048 0.23536 0.0
H319 H 0.05176 0.51037 0.32935 0.0
H320 H 0.1358 0.06438 0.45427 0.0
H321 H 0.0201 0.11619 0.36079 0.0
H322 H 0.05681 0.16932 0.30682 0.0
H323 H 0.12167 0.20091 0.2855 0.0
H324 H 0.23811 0.1458 0.37166 0.0
H325 H 0.20148 0.09434 0.4293 0.0
C326 C 0.11877 0.08741 0.42215 0.0
C327 C 0.07538 0.08649 0.41157 0.0
C328 C 0.14022 0.11731 0.39006 0.0
C329 C 0.05358 0.11614 0.36941 0.0
C330 C 0.07451 0.1466 0.33864 0.0
C331 C 0.13903 0.17766 0.31697 0.0
C332 C 0.1825 0.17759 0.32509 0.0
C333 C 0.1178 0.14743 0.34847 0.0
C334 C 0.2046 0.14694 0.36538 0.0
C335 C 0.18366 0.11739 0.39813 0.0
H336 H 0.11452 0.95413 0.56071 0.0
H337 H 0.02857 0.85682 0.53761 0.0
H338 H 0.06693 0.81253 0.61873 0.0
H339 H 0.12379 0.80178 0.69756 0.0
H340 H 0.21334 0.89597 0.7178 0.0
H341 H 0.17452 0.9415 0.63703 0.0
C342 C 0.1045 0.92312 0.57338 0.0
C343 C 0.06873 0.90882 0.5436 0.0
C344 C 0.12699 0.89754 0.61991 0.0
C345 C 0.0561 0.8685 0.55987 0.0
C346 C 0.07783 0.84321 0.60647 0.0
C347 C 0.13458 0.83241 0.68448 0.0
C348 C 0.17079 0.84599 0.71378 0.0
C349 C 0.11302 0.85756 0.63712 0.0
C350 C 0.18517 0.88524 0.69588 0.0
C351 C 0.16312 0.91111 0.6497 0.0
H352 H 0.35997 0.80465 0.92293 0.0
H353 H 0.31943 0.91084 0.79824 0.0
H354 H 0.364 0.95519 0.8538 0.0
H355 H 0.41537 0.96331 0.93788 0.0
H356 H 0.46083 0.85501 0.0556 0.0
H357 H 0.41271 0.81221 1.00391 0.0
C358 C 0.36074 0.83755 0.90807 0.0
C359 C 0.33635 0.85451 0.85679 0.0
C360 C 0.38717 0.86252 0.93929 0.0
C361 C 0.33807 0.89706 0.83757 0.0
C362 C 0.36342 0.92243 0.86941 0.0
C363 C 0.41492 0.93037 0.95178 0.0
C364 C 0.44191 0.91238 1.00011 0.0
C365 C 0.38829 0.90547 0.92027 0.0
C366 C 0.44052 0.86964 0.0183 0.0
C367 C 0.41305 0.84506 0.98873 0.0
H368 H 0.44793 0.05929 0.18464 0.0
H369 H 0.39482 0.10686 1.01117 0.0
H370 H 0.34822 0.15358 0.04882 0.0
H371 H 0.32328 0.18185 0.13074 0.0
H372 H 0.37559 0.1336 0.3043 0.0
H373 H 0.42151 0.08607 0.2667 0.0
C374 C 0.42608 0.07968 0.15497 0.0
C375 C 0.42505 0.07942 0.09507 0.0
C376 C 0.39917 0.10643 0.17691 0.0
C377 C 0.39637 0.10619 0.05745 0.0
C378 C 0.36969 0.13305 0.07894 0.0
C379 C 0.34468 0.16097 0.16046 0.0
C380 C 0.346 0.16153 0.22034 0.0
C381 C 0.37095 0.13358 0.13857 0.0
C382 C 0.37379 0.13391 0.25804 0.0
C383 C 0.40017 0.10672 0.23657 0.0
H384 H 0.86637 0.93702 0.57017 0.0
H385 H 0.98584 0.87642 0.62954 0.0
H386 H 0.9544 0.82439 0.69265 0.0
H387 H 0.89339 0.79758 0.73419 0.0
H388 H 0.77474 0.86181 0.68286 0.0
H389 H 0.80503 0.91072 0.61375 0.0
C390 C 0.88521 0.91203 0.59642 0.0
C391 C 0.92817 0.91014 0.59491 0.0
C392 C 0.86709 0.88304 0.63445 0.0
C393 C 0.95261 0.87825 0.62992 0.0
C394 C 0.9347 0.84859 0.66616 0.0
C395 C 0.8742 0.82227 0.70782 0.0
C396 C 0.83181 0.82569 0.71292 0.0
C397 C 0.89207 0.85096 0.66938 0.0
C398 C 0.80736 0.85808 0.67893 0.0
C399 C 0.82469 0.88618 0.63955 0.0
H400 H 0.9692 0.13693 0.44769 0.0
H401 H 0.8764 0.04493 0.45799 0.0
H402 H 0.83082 0.0869 0.38029 0.0
H403 H 0.81777 0.15021 0.30933 0.0
H404 H 0.91303 0.23971 0.29722 0.0
H405 H 0.95752 0.19806 0.37524 0.0
C406 C 0.93884 0.12625 0.43324 0.0
C407 C 0.92577 0.08831 0.45883 0.0
C408 C 0.91349 0.14992 0.38788 0.0
C409 C 0.88682 0.0743 0.43901 0.0
C410 C 0.8609 0.0982 0.39458 0.0
C411 C 0.84834 0.16037 0.32377 0.0
C412 C 0.86209 0.19797 0.29779 0.0
C413 C 0.87396 0.13607 0.3686 0.0
C414 C 0.9018 0.21081 0.31648 0.0
C415 C 0.9272 0.18713 0.36128 0.0
H416 H 0.70774 0.12729 0.19781 0.0
H417 H 0.652 0.24496 0.11614 0.0
H418 H 0.59853 0.20965 0.06111 0.0
H419 H 0.5678 0.14556 0.03512 0.0
H420 H 0.62637 0.02743 0.10891 0.0
H421 H 0.6783 0.06237 0.168 0.0
C422 C 0.68375 0.145 0.16807 0.0
C423 C 0.6837 0.18858 0.16103 0.0
C424 C 0.6536 0.12441 0.13513 0.0
C425 C 0.65279 0.21134 0.12194 0.0
C426 C 0.62214 0.1912 0.09054 0.0
C427 C 0.59193 0.12746 0.06416 0.0
C428 C 0.59282 0.08398 0.06843 0.0
C429 C 0.62232 0.14779 0.09655 0.0
C430 C 0.62459 0.06095 0.10564 0.0
C431 C 0.6544 0.08093 0.13926 0.0
H432 H 0.69807 0.8172 0.91804 0.0
H433 H 0.64334 0.86976 0.74739 0.0
H434 H 0.5999 0.91728 0.78929 0.0
H435 H 0.57687 0.94292 0.87415 0.0
H436 H 0.63321 0.89187 0.04468 0.0
H437 H 0.67688 0.8446 1.00276 0.0
C438 C 0.67678 0.83907 0.88983 0.0
C439 C 0.67399 0.83976 0.82952 0.0
C440 C 0.65223 0.86653 0.91418 0.0
C441 C 0.6462 0.8685 0.79386 0.0
C442 C 0.62131 0.89567 0.81781 0.0
C443 C 0.59881 0.92168 0.90231 0.0
C444 C 0.60166 0.92105 0.96261 0.0
C445 C 0.62401 0.89484 0.8779 0.0
C446 C 0.63038 0.89319 0.9982 0.0
C447 C 0.65531 0.86606 0.97424 0.0
H448 H 0.55066 0.59508 0.8604 0.0
H449 H 0.64705 0.56364 1.00324 0.0
H450 H 0.69492 0.60704 0.95229 0.0
H451 H 0.70802 0.65697 0.86839 0.0
H452 H 0.60876 0.69134 0.73046 0.0
H453 H 0.56368 0.64319 0.77766 0.0
C454 C 0.58226 0.59724 0.88028 0.0
C455 C 0.59524 0.57604 0.93548 0.0
C456 C 0.60916 0.62287 0.85147 0.0
C457 C 0.63622 0.5797 0.96076 0.0
C458 C 0.66361 0.60451 0.93164 0.0
C459 C 0.67668 0.6536 0.84871 0.0
C460 C 0.66173 0.67775 0.79622 0.0
C461 C 0.65027 0.62669 0.87719 0.0
C462 C 0.62093 0.67327 0.77109 0.0
C463 C 0.59507 0.64575 0.79802 0.0
H464 H 0.62435 0.29708 0.20496 0.0
H465 H 0.7216 0.38479 0.20601 0.0
H466 H 0.67713 0.4345 0.13722 0.0
H467 H 0.61065 0.45267 0.07653 0.0
H468 H 0.51461 0.36363 0.07232 0.0
H469 H 0.55859 0.31454 0.14249 0.0
C470 C 0.63561 0.32721 0.19036 0.0
C471 C 0.67587 0.33761 0.21071 0.0
C472 C 0.61022 0.35517 0.1501 0.0
C473 C 0.69054 0.37635 0.19093 0.0
C474 C 0.66519 0.40468 0.15163 0.0
C475 C 0.59947 0.42247 0.091 0.0
C476 C 0.5596 0.41163 0.06951 0.0
C477 C 0.62502 0.39437 0.13086 0.0
C478 C 0.54536 0.37246 0.0882 0.0
C479 C 0.57039 0.34449 0.12841 0.0
H480 H 0.92294 0.46189 0.4201 0.0
H481 H 0.96413 0.35547 0.54407 0.0
H482 H 0.91753 0.31185 0.49145 0.0
H483 H 0.86666 0.30321 0.40925 0.0
H484 H 0.82863 0.40756 0.28006 0.0
H485 H 0.87278 0.45262 0.33502 0.0
C486 C 0.92162 0.42922 0.4354 0.0
C487 C 0.9469 0.41197 0.48584 0.0
C488 C 0.89555 0.40388 0.40381 0.0
C489 C 0.94504 0.36948 0.50524 0.0
C490 C 0.91841 0.34447 0.4752 0.0
C491 C 0.8678 0.33587 0.39319 0.0
C492 C 0.84422 0.35207 0.34087 0.0
C493 C 0.89376 0.36125 0.42428 0.0
C494 C 0.84656 0.39432 0.32024 0.0
C495 C 0.87171 0.42011 0.35171 0.0
H496 H 0.81358 0.68133 0.61205 0.0
H497 H 0.85872 0.63193 0.788 0.0
H498 H 0.90771 0.58564 0.75436 0.0
H499 H 0.93896 0.55996 0.67541 0.0
H500 H 0.89333 0.60815 0.49928 0.0
H501 H 0.84347 0.65389 0.5327 0.0
C502 C 0.83397 0.66034 0.64308 0.0
C503 C 0.83231 0.6603 0.70253 0.0
C504 C 0.86217 0.63352 0.62346 0.0
C505 C 0.85908 0.63273 0.74198 0.0
C506 C 0.88727 0.6062 0.72282 0.0
C507 C 0.91806 0.58031 0.64423 0.0
C508 C 0.92009 0.58049 0.58489 0.0
C509 C 0.88925 0.60646 0.6637 0.0
C510 C 0.89256 0.60717 0.54525 0.0
C511 C 0.864 0.63346 0.5643 0.0
H512 H 0.30376 0.35557 0.18621 0.0
H513 H 0.41355 0.3062 0.29764 0.0
H514 H 0.455 0.35775 0.24966 0.0
H515 H 0.46098 0.41495 0.17455 0.0
H516 H 0.3537 0.46145 0.0559 0.0
H517 H 0.31037 0.41271 0.1076 0.0
C518 C 0.33672 0.3561 0.19968 0.0
C519 C 0.35553 0.327 0.2453 0.0
C520 C 0.36083 0.38522 0.17055 0.0
C521 C 0.39831 0.32811 0.26253 0.0
C522 C 0.42209 0.35762 0.23515 0.0
C523 C 0.42801 0.41484 0.16026 0.0
C524 C 0.41046 0.44212 0.11191 0.0
C525 C 0.40377 0.38609 0.18896 0.0
C526 C 0.36788 0.44084 0.0932 0.0
C527 C 0.34315 0.41298 0.12274 0.0
H528 H 0.39249 0.57745 0.95875 0.0
H529 H 0.49471 0.65918 0.97136 0.0
H530 H 0.4583 0.70878 0.89439 0.0
H531 H 0.39728 0.7294 0.82388 0.0
H532 H 0.29345 0.64973 0.81322 0.0
H533 H 0.33057 0.59874 0.88855 0.0
C534 C 0.40663 0.60617 0.94457 0.0
C535 C 0.44613 0.61471 0.97061 0.0
C536 C 0.38535 0.6348 0.90044 0.0
C537 C 0.46419 0.65203 0.95214 0.0
C538 C 0.44349 0.68036 0.90796 0.0
C539 C 0.38298 0.7007 0.83777 0.0
C540 C 0.34294 0.69307 0.81296 0.0
C541 C 0.4041 0.67207 0.88179 0.0
C542 C 0.32441 0.6561 0.83175 0.0
C543 C 0.34555 0.62703 0.87484 0.0
H544 H 0.19433 0.63633 0.71269 0.0
H545 H 0.14196 0.75256 0.62116 0.0
H546 H 0.09082 0.71587 0.56388 0.0
H547 H 0.06164 0.65071 0.53852 0.0
H548 H 0.11873 0.53411 0.6216 0.0
H549 H 0.16714 0.57064 0.68351 0.0
C550 C 0.17152 0.65346 0.68037 0.0
C551 C 0.17159 0.69699 0.67136 0.0
C552 C 0.14308 0.63205 0.64609 0.0
C553 C 0.14244 0.71898 0.62877 0.0
C554 C 0.11319 0.69804 0.59603 0.0
C555 C 0.08462 0.63331 0.57028 0.0
C556 C 0.08602 0.58975 0.57639 0.0
C557 C 0.11334 0.65458 0.6041 0.0
C558 C 0.11641 0.56762 0.61701 0.0
C559 C 0.14428 0.58853 0.65217 0.0
H560 H 0.21064 0.32332 0.4347 0.0
H561 H 0.15885 0.37042 0.26044 0.0
H562 H 0.11194 0.41745 0.29698 0.0
H563 H 0.0846 0.44421 0.37806 0.0
H564 H 0.13682 0.39823 0.55244 0.0
H565 H 0.18449 0.35169 0.51603 0.0
C566 C 0.18915 0.34387 0.40463 0.0
C567 C 0.1883 0.34313 0.34483 0.0
C568 C 0.16226 0.37103 0.42593 0.0
C569 C 0.16034 0.37027 0.30664 0.0
C570 C 0.13339 0.39717 0.32749 0.0
C571 C 0.10648 0.42422 0.40824 0.0
C572 C 0.10699 0.42484 0.46798 0.0
C573 C 0.13395 0.39768 0.38702 0.0
C574 C 0.13569 0.39856 0.50626 0.0
C575 C 0.16297 0.37185 0.48547 0.0
H576 H 0.02816 0.05554 0.91773 0.0
H577 H 0.99061 0.93165 0.89499 0.0
H578 H 0.97185 0.9217 0.99282 0.0
H579 H 0.96705 0.94763 0.08565 0.0
H580 H 1.00462 0.07152 0.10837 0.0
H581 H 0.02332 0.08148 1.01051 0.0
C582 C 0.01622 0.0262 0.93427 0.0
C583 C 0.01082 0.99444 0.89867 0.0
C584 C 1.0057 0.02053 0.99087 0.0
C585 C 0.99462 0.95689 0.92085 0.0
C586 C 0.9841 0.95105 0.97705 0.0
C587 C 0.97897 0.97698 0.0691 0.0
C588 C 0.98442 0.00872 0.1047 0.0
C589 C 0.98947 0.98265 1.01247 0.0
C590 C 1.00059 0.04628 0.0825 0.0
C591 C 0.01107 0.05213 0.02629 0.0
H592 H 0.30787 0.8131 0.34156 0.0
H593 H 0.20405 0.7408 0.38495 0.0
H594 H 0.19328 0.7217 0.28743 0.0
H595 H 0.21233 0.72658 0.18912 0.0
H596 H 0.31613 0.79889 0.14569 0.0
H597 H 0.32706 0.81779 0.24332 0.0
C598 C 0.28262 0.79347 0.32961 0.0
C599 C 0.25685 0.77845 0.37082 0.0
C600 C 0.27636 0.78282 0.2732 0.0
C601 C 0.22475 0.75243 0.35457 0.0
C602 C 0.21837 0.74168 0.2986 0.0
C603 C 0.23763 0.74613 0.20109 0.0
C604 C 0.2633 0.76127 0.15982 0.0
C605 C 0.24396 0.7567 0.25754 0.0
C606 C 0.29549 0.78719 0.17612 0.0
C607 C 0.30195 0.79783 0.23214 0.0
H608 H 0.4561 0.99523 0.60431 0.0
H609 H 0.57974 0.03548 0.65044 0.0
H610 H 0.59723 0.02594 0.55505 0.0
H611 H 0.57717 0.00756 0.45781 0.0
H612 H 0.45352 0.96753 0.41137 0.0
H613 H 0.436 0.97691 0.50689 0.0
C614 C 0.48678 1.00227 0.59341 0.0
C615 C 0.51653 0.016 0.63479 0.0
C616 C 0.49657 0.99714 0.53814 0.0
C617 C 0.55636 0.02428 0.61996 0.0
C618 C 0.56633 0.01914 0.56518 0.0
C619 C 0.54648 1.00051 0.46868 0.0
C620 C 0.51675 0.98684 0.42725 0.0
C621 C 0.53668 1.00563 0.52391 0.0
C622 C 0.4769 0.9786 0.44198 0.0
C623 C 0.46692 0.98368 0.49681 0.0
H624 H 0.22935 0.30801 0.84219 0.0
H625 H 0.29613 0.19519 0.92253 0.0
H626 H 0.31181 0.17977 0.82853 0.0
H627 H 0.30543 0.19753 0.72339 0.0
H628 H 0.2387 0.31037 0.64301 0.0
H629 H 0.22301 0.3258 0.73702 0.0
C630 C 0.24701 0.27983 0.83914 0.0
C631 C 0.2615 0.25282 0.88949 0.0
C632 C 0.25562 0.27094 0.78487 0.0
C633 C 0.28501 0.21683 0.88469 0.0
C634 C 0.29376 0.20782 0.83087 0.0
C635 C 0.28779 0.22573 0.72642 0.0
C636 C 0.27332 0.25273 0.67606 0.0
C637 C 0.27919 0.23463 0.78068 0.0
C638 C 0.24982 0.28873 0.68086 0.0
C639 C 0.24106 0.29775 0.73468 0.0
H640 H 0.82387 0.29548 0.83525 0.0
H641 H 0.69989 0.25854 0.85793 0.0
H642 H 0.68981 0.24031 0.75989 0.0
H643 H 0.71568 0.23579 0.66701 0.0
H644 H 0.83965 0.27272 0.64427 0.0
H645 H 0.84974 0.29098 0.74231 0.0
C646 C 0.79449 0.28379 0.81864 0.0
C647 C 0.76273 0.27839 0.85423 0.0
C648 C 0.78875 0.27359 0.76194 0.0
C649 C 0.72512 0.26253 0.83202 0.0
C650 C 0.71921 0.25232 0.77573 0.0
C651 C 0.74507 0.24747 0.68361 0.0
C652 C 0.77682 0.25285 0.64801 0.0
C653 C 0.7508 0.25769 0.74029 0.0
C654 C 0.81443 0.26874 0.6702 0.0
C655 C 0.82034 0.27896 0.72649 0.0
H656 H 0.69664 0.78802 0.32152 0.0
H657 H 0.80963 0.72243 0.40312 0.0
H658 H 0.82685 0.7085 0.30919 0.0
H659 H 0.81053 0.71599 0.20373 0.0
H660 H 0.69795 0.78223 0.12209 0.0
H661 H 0.68051 0.79585 0.2161 0.0
C662 C 0.72527 0.77106 0.31879 0.0
C663 C 0.75176 0.75633 0.36949 0.0
C664 C 0.73522 0.76349 0.26457 0.0
C665 C 0.78835 0.7337 0.36502 0.0
C666 C 0.79838 0.72593 0.31124 0.0
C667 C 0.78198 0.73307 0.20652 0.0
C668 C 0.75558 0.748 0.15585 0.0
C669 C 0.77205 0.74068 0.26075 0.0
C670 C 0.71906 0.77075 0.16027 0.0
C671 C 0.70894 0.77835 0.21406 0.0
H672 H 0.43737 0.49182 0.589 0.0
H673 H 0.55467 0.5373 0.65593 0.0
H674 H 0.57708 0.54242 0.56028 0.0
H675 H 0.56404 0.53274 0.45801 0.0
H676 H 0.44668 0.48741 0.39104 0.0
H677 H 0.42437 0.48208 0.48674 0.0
C678 C 0.46802 0.50247 0.58289 0.0
C679 C 0.49421 0.51417 0.62987 0.0
C680 C 0.48093 0.50497 0.52781 0.0
C681 C 0.53355 0.52862 0.62062 0.0
C682 C 0.54655 0.53127 0.56593 0.0
C683 C 0.53341 0.52206 0.46412 0.0
C684 C 0.50716 0.51049 0.4171 0.0
C685 C 0.52052 0.5195 0.51922 0.0
C686 C 0.46785 0.49599 0.42637 0.0
C687 C 0.45489 0.49323 0.48109 0.0
H688 H 0.04461 0.44373 0.96768 0.0
H689 H 0.98903 0.56226 0.88883 0.0
H690 H 0.97621 0.57948 0.98327 0.0
H691 H 0.98229 0.56156 0.08835 0.0
H692 H 0.03807 0.44311 0.1672 0.0
H693 H 0.05033 0.42565 0.07267 0.0
C694 C 0.03005 0.4735 0.97118 0.0
C695 C 0.0179 0.50169 0.92122 0.0
C696 C 0.02305 0.48333 0.02562 0.0
C697 C 0.99831 0.53981 0.92648 0.0
C698 C 0.99119 0.54978 0.9805 0.0
C699 C 0.9967 0.53172 0.08482 0.0
C700 C 1.0092 0.50368 0.13482 0.0
C701 C 1.00348 0.5218 0.03034 0.0
C702 C 0.02855 0.46546 0.12952 0.0
C703 C 0.03538 0.45535 0.07545 0.0
loop_
_geom_bond_atom_site_label_1
_geom_bond_atom_site_label_2
_geom_bond_distance
_geom_bond_site_symmetry_2
_ccdc_geom_bond_type
Sm0 C2 2.846 1_655 S
Sm0 O20 2.543 1_565 S
Sm0 O21 2.450 1_655 S
Sm0 O22 2.681 1_655 S
Sm0 O23 2.464 1_655 S
Sm0 O24 2.396 1_665 S
Sm0 O28 2.386 1_565 S
Sm0 O31 2.408 . S
Sm1 C11 2.846 1_455 S
Sm1 O22 2.386 1_545 S
Sm1 O25 2.408 . S
Sm1 O26 2.543 1_545 S
Sm1 O27 2.450 1_455 S
Sm1 O28 2.681 1_455 S
Sm1 O29 2.464 1_455 S
Sm1 O30 2.396 1_445 S
C2 Sm0 2.846 1_455 S
C2 C3 1.506 . S
C2 O20 1.261 1_465 S
C2 O21 1.242 . S
C3 C2 1.506 . S
C3 C4 1.358 1_565 S
C3 C8 1.382 . S
C4 C3 1.358 1_545 S
C4 C5 1.385 . S
C4 H32 0.930 1_455 S
C5 C4 1.385 . S
C5 C6 1.395 1_545 S
C5 H33 0.929 . S
C6 C5 1.395 1_565 S
C6 C7 1.335 . S
C7 C6 1.335 . S
C7 C8 1.398 . S
C7 H34 0.930 . S
C8 C3 1.382 . S
C8 C7 1.398 . S
C8 H35 0.929 . S
C9 O22 1.271 . S
C9 O23 1.251 . S
C10 O24 1.252 . S
C10 O25 1.272 . S
C11 Sm1 2.846 1_655 S
C11 C12 1.506 . S
C11 O26 1.261 1_645 S
C11 O27 1.242 . S
C12 C11 1.506 . S
C12 C13 1.358 1_545 S
C12 C17 1.382 . S
C13 C12 1.358 1_565 S
C13 C14 1.385 . S
C13 H36 0.930 1_655 S
C14 C13 1.385 . S
C14 C15 1.395 1_565 S
C14 H37 0.929 . S
C15 C14 1.395 1_545 S
C15 C16 1.335 . S
C16 C15 1.335 . S
C16 C17 1.398 . S
C16 H38 0.930 . S
C17 C12 1.382 . S
C17 C16 1.398 . S
C17 H39 0.929 . S
C18 O28 1.271 . S
C18 O29 1.251 . S
C19 O30 1.252 . S
C19 O31 1.272 . S
O20 Sm0 2.543 1_545 S
O20 C2 1.261 1_645 S
O21 Sm0 2.450 1_455 S
O21 C2 1.242 . S
O22 Sm0 2.681 1_455 S
O22 Sm1 2.386 1_565 S
O22 C9 1.271 . S
O23 Sm0 2.464 1_455 S
O23 C9 1.251 . S
O24 Sm0 2.396 1_445 S
O24 C10 1.252 . S
O25 Sm1 2.408 . S
O25 C10 1.272 . S
O26 Sm1 2.543 1_565 S
O26 C11 1.261 1_465 S
O27 Sm1 2.450 1_655 S
O27 C11 1.242 . S
O28 Sm0 2.386 1_545 S
O28 Sm1 2.681 1_655 S
O28 C18 1.271 . S
O29 Sm1 2.464 1_655 S
O29 C18 1.251 . S
O30 Sm1 2.396 1_665 S
O30 C19 1.252 . S
O31 Sm0 2.408 . S
O31 C19 1.272 . S
H32 C4 0.930 1_655 S
H33 C5 0.929 . S
H34 C7 0.930 . S
H35 C8 0.929 . S
H36 C13 0.930 1_455 S
H37 C14 0.929 . S
H38 C16 0.930 . S
H39 C17 0.929 . S
Sm40 C42 2.846 . S
Sm40 O60 2.543 . S
Sm40 O61 2.450 . S
Sm40 O62 2.681 . S
Sm40 O63 2.464 . S
Sm40 O64 2.396 . S
Sm40 O68 2.386 . S
Sm40 O71 2.408 . S
Sm41 C51 2.846 . S
Sm41 O62 2.386 . S
Sm41 O65 2.408 . S
Sm41 O66 2.543 . S
Sm41 O67 2.450 . S
Sm41 O68 2.681 . S
Sm41 O69 2.464 . S
Sm41 O70 2.396 . S
C42 Sm40 2.846 . S
C42 C43 1.506 . S
C42 O60 1.261 . S
C42 O61 1.242 . S
C43 C42 1.506 . S
C43 C44 1.358 1_556 S
C43 C48 1.382 . S
C44 C43 1.358 1_554 S
C44 C45 1.385 . S
C44 H72 0.930 . S
C45 C44 1.385 . S
C45 C46 1.395 . S
C45 H73 0.929 . S
C46 C45 1.395 . S
C46 C47 1.335 . S
C47 C46 1.335 . S
C47 C48 1.398 1_554 S
C47 H74 0.930 . S
C48 C43 1.382 . S
C48 C47 1.398 1_556 S
C48 H75 0.929 . S
C49 O62 1.271 . S
C49 O63 1.251 . S
C50 O64 1.252 . S
C50 O65 1.272 . S
C51 Sm41 2.846 . S
C51 C52 1.506 . S
C51 O66 1.261 . S
C51 O67 1.242 . S
C52 C51 1.506 . S
C52 C53 1.358 . S
C52 C57 1.382 . S
C53 C52 1.358 . S
C53 C54 1.385 . S
C53 H76 0.930 . S
C54 C53 1.385 . S
C54 C55 1.395 . S
C54 H77 0.929 . S
C55 C54 1.395 . S
C55 C56 1.335 . S
C56 C55 1.335 . S
C56 C57 1.398 . S
C56 H78 0.930 . S
C57 C52 1.382 . S
C57 C56 1.398 . S
C57 H79 0.929 . S
C58 O68 1.271 . S
C58 O69 1.251 . S
C59 O70 1.252 . S
C59 O71 1.272 . S
O60 Sm40 2.543 . S
O60 C42 1.261 . S
O61 Sm40 2.450 . S
O61 C42 1.242 . S
O62 Sm40 2.681 . S
O62 Sm41 2.386 . S
O62 C49 1.271 . S
O63 Sm40 2.464 . S
O63 C49 1.251 . S
O64 Sm40 2.396 . S
O64 C50 1.252 . S
O65 Sm41 2.408 . S
O65 C50 1.272 . S
O66 Sm41 2.543 . S
O66 C51 1.261 . S
O67 Sm41 2.450 . S
O67 C51 1.242 . S
O68 Sm40 2.386 . S
O68 Sm41 2.681 . S
O68 C58 1.271 . S
O69 Sm41 2.464 . S
O69 C58 1.251 . S
O70 Sm41 2.396 . S
O70 C59 1.252 . S
O71 Sm40 2.408 . S
O71 C59 1.272 . S
H72 C44 0.930 . S
H73 C45 0.929 . S
H74 C47 0.930 . S
H75 C48 0.929 . S
H76 C53 0.930 . S
H77 C54 0.929 . S
H78 C56 0.930 . S
H79 C57 0.929 . S
Sm80 C82 2.846 . S
Sm80 O100 2.543 . S
Sm80 O101 2.450 . S
Sm80 O102 2.681 1_554 S
Sm80 O103 2.464 . S
Sm80 O104 2.396 1_565 S
Sm80 O108 2.386 1_565 S
Sm80 O111 2.408 . S
Sm81 C91 2.846 . S
Sm81 O102 2.386 1_545 S
Sm81 O105 2.408 . S
Sm81 O106 2.543 . S
Sm81 O107 2.450 . S
Sm81 O108 2.681 1_556 S
Sm81 O109 2.464 . S
Sm81 O110 2.396 1_545 S
C82 Sm80 2.846 . S
C82 C83 1.506 . S
C82 O100 1.261 . S
C82 O101 1.242 . S
C83 C82 1.506 . S
C83 C84 1.358 . S
C83 C88 1.382 . S
C84 C83 1.358 . S
C84 C85 1.385 . S
C84 H112 0.930 1_565 S
C85 C84 1.385 . S
C85 C86 1.395 . S
C85 H113 0.929 1_565 S
C86 C85 1.395 . S
C86 C87 1.335 . S
C87 C86 1.335 . S
C87 C88 1.398 . S
C87 H114 0.930 . S
C88 C83 1.382 . S
C88 C87 1.398 . S
C88 H115 0.929 . S
C89 O102 1.271 . S
C89 O103 1.251 1_556 S
C90 O104 1.252 . S
C90 O105 1.272 1_554 S
C91 Sm81 2.846 . S
C91 C92 1.506 . S
C91 O106 1.261 . S
C91 O107 1.242 . S
C92 C91 1.506 . S
C92 C93 1.358 . S
C92 C97 1.382 . S
C93 C92 1.358 . S
C93 C94 1.385 . S
C93 H116 0.930 1_545 S
C94 C93 1.385 . S
C94 C95 1.395 . S
C94 H117 0.929 1_545 S
C95 C94 1.395 . S
C95 C96 1.335 . S
C96 C95 1.335 . S
C96 C97 1.398 . S
C96 H118 0.930 . S
C97 C92 1.382 . S
C97 C96 1.398 . S
C97 H119 0.929 . S
C98 O108 1.271 . S
C98 O109 1.251 1_554 S
C99 O110 1.252 . S
C99 O111 1.272 1_556 S
O100 Sm80 2.543 . S
O100 C82 1.261 . S
O101 Sm80 2.450 . S
O101 C82 1.242 . S
O102 Sm80 2.681 1_556 S
O102 Sm81 2.386 1_565 S
O102 C89 1.271 . S
O103 Sm80 2.464 . S
O103 C89 1.251 1_554 S
O104 Sm80 2.396 1_545 S
O104 C90 1.252 . S
O105 Sm81 2.408 . S
O105 C90 1.272 1_556 S
O106 Sm81 2.543 . S
O106 C91 1.261 . S
O107 Sm81 2.450 . S
O107 C91 1.242 . S
O108 Sm80 2.386 1_545 S
O108 Sm81 2.681 1_554 S
O108 C98 1.271 . S
O109 Sm81 2.464 . S
O109 C98 1.251 1_556 S
O110 Sm81 2.396 1_565 S
O110 C99 1.252 . S
O111 Sm80 2.408 . S
O111 C99 1.272 1_554 S
H112 C84 0.930 1_545 S
H113 C85 0.929 1_545 S
H114 C87 0.930 . S
H115 C88 0.929 . S
H116 C93 0.930 1_565 S
H117 C94 0.929 1_565 S
H118 C96 0.930 . S
H119 C97 0.929 . S
Sm120 C122 2.846 . S
Sm120 O140 2.543 . S
Sm120 O141 2.450 . S
Sm120 O142 2.681 . S
Sm120 O143 2.464 . S
Sm120 O144 2.396 . S
Sm120 O148 2.386 . S
Sm120 O151 2.408 . S
Sm121 C131 2.846 . S
Sm121 O142 2.386 . S
Sm121 O145 2.408 . S
Sm121 O146 2.543 . S
Sm121 O147 2.450 . S
Sm121 O148 2.681 . S
Sm121 O149 2.464 . S
Sm121 O150 2.396 . S
C122 Sm120 2.846 . S
C122 C123 1.506 . S
C122 O140 1.261 . S
C122 O141 1.242 . S
C123 C122 1.506 . S
C123 C124 1.358 1_554 S
C123 C128 1.382 1_554 S
C124 C123 1.358 1_556 S
C124 C125 1.385 . S
C124 H152 0.925 1_556 S
C125 C124 1.385 . S
C125 C126 1.395 . S
C125 H153 0.929 . S
C126 C125 1.395 . S
C126 C127 1.335 . S
C127 C126 1.335 . S
C127 C128 1.398 . S
C127 H154 0.930 . S
C128 C123 1.382 1_556 S
C128 C127 1.398 . S
C128 H155 0.929 1_556 S
C129 O142 1.271 . S
C129 O143 1.251 . S
C130 O144 1.252 . S
C130 O145 1.272 . S
C131 Sm121 2.846 . S
C131 C132 1.506 . S
C131 O146 1.261 . S
C131 O147 1.242 . S
C132 C131 1.506 . S
C132 C133 1.358 . S
C132 C137 1.382 . S
C133 C132 1.358 . S
C133 C134 1.385 . S
C133 H156 0.930 . S
C134 C133 1.385 . S
C134 C135 1.395 . S
C134 H157 0.929 . S
C135 C134 1.395 . S
C135 C136 1.335 . S
C136 C135 1.335 . S
C136 C137 1.398 . S
C136 H158 0.930 . S
C137 C132 1.382 . S
C137 C136 1.398 . S
C137 H159 0.929 . S
C138 O148 1.271 . S
C138 O149 1.251 . S
C139 O150 1.252 . S
C139 O151 1.272 . S
O140 Sm120 2.543 . S
O140 C122 1.261 . S
O141 Sm120 2.450 . S
O141 C122 1.242 . S
O142 Sm120 2.681 . S
O142 Sm121 2.386 . S
O142 C129 1.271 . S
O143 Sm120 2.464 . S
O143 C129 1.251 . S
O144 Sm120 2.396 . S
O144 C130 1.252 . S
O145 Sm121 2.408 . S
O145 C130 1.272 . S
O146 Sm121 2.543 . S
O146 C131 1.261 . S
O147 Sm121 2.450 . S
O147 C131 1.242 . S
O148 Sm120 2.386 . S
O148 Sm121 2.681 . S
O148 C138 1.271 . S
O149 Sm121 2.464 . S
O149 C138 1.251 . S
O150 Sm121 2.396 . S
O150 C139 1.252 . S
O151 Sm120 2.408 . S
O151 C139 1.272 . S
H152 C124 0.925 1_554 S
H153 C125 0.929 . S
H154 C127 0.930 . S
H155 C128 0.929 1_554 S
H156 C133 0.930 . S
H157 C134 0.929 . S
H158 C136 0.930 . S
H159 C137 0.929 . S
Sm160 C162 2.846 . S
Sm160 O180 2.543 . S
Sm160 O181 2.450 . S
Sm160 O182 2.681 . S
Sm160 O183 2.464 . S
Sm160 O184 2.396 . S
Sm160 O188 2.386 . S
Sm160 O191 2.408 . S
Sm161 C171 2.846 . S
Sm161 O182 2.386 . S
Sm161 O185 2.408 . S
Sm161 O186 2.543 . S
Sm161 O187 2.450 . S
Sm161 O188 2.681 . S
Sm161 O189 2.464 . S
Sm161 O190 2.396 . S
C162 Sm160 2.846 . S
C162 C163 1.506 . S
C162 O180 1.261 . S
C162 O181 1.242 . S
C163 C162 1.506 . S
C163 C164 1.358 . S
C163 C168 1.382 . S
C164 C163 1.358 . S
C164 C165 1.385 . S
C164 H192 0.930 . S
C165 C164 1.385 . S
C165 C166 1.395 . S
C165 H193 0.929 . S
C166 C165 1.395 . S
C166 C167 1.335 . S
C167 C166 1.335 . S
C167 C168 1.398 . S
C167 H194 0.930 . S
C168 C163 1.382 . S
C168 C167 1.398 . S
C168 H195 0.929 . S
C169 O182 1.271 . S
C169 O183 1.251 . S
C170 O184 1.252 . S
C170 O185 1.272 . S
C171 Sm161 2.846 . S
C171 C172 1.506 . S
C171 O186 1.261 . S
C171 O187 1.242 . S
C172 C171 1.506 . S
C172 C173 1.358 1_554 S
C172 C177 1.382 . S
C173 C172 1.358 1_556 S
C173 C174 1.385 . S
C173 H196 0.930 . S
C174 C173 1.385 . S
C174 C175 1.395 . S
C174 H197 0.929 . S
C175 C174 1.395 . S
C175 C176 1.335 . S
C176 C175 1.335 . S
C176 C177 1.398 1_556 S
C176 H198 0.930 . S
C177 C172 1.382 . S
C177 C176 1.398 1_554 S
C177 H199 0.929 . S
C178 O188 1.271 . S
C178 O189 1.251 . S
C179 O190 1.252 . S
C179 O191 1.272 . S
O180 Sm160 2.543 . S
O180 C162 1.261 . S
O181 Sm160 2.450 . S
O181 C162 1.242 . S
O182 Sm160 2.681 . S
O182 Sm161 2.386 . S
O182 C169 1.271 . S
O183 Sm160 2.464 . S
O183 C169 1.251 . S
O184 Sm160 2.396 . S
O184 C170 1.252 . S
O185 Sm161 2.408 . S
O185 C170 1.272 . S
O186 Sm161 2.543 . S
O186 C171 1.261 . S
O187 Sm161 2.450 . S
O187 C171 1.242 . S
O188 Sm160 2.386 . S
O188 Sm161 2.681 . S
O188 C178 1.271 . S
O189 Sm161 2.464 . S
O189 C178 1.251 . S
O190 Sm161 2.396 . S
O190 C179 1.252 . S
O191 Sm160 2.408 . S
O191 C179 1.272 . S
H192 C164 0.930 . S
H193 C165 0.929 . S
H194 C167 0.930 . S
H195 C168 0.929 . S
H196 C173 0.930 . S
H197 C174 0.929 . S
H198 C176 0.930 . S
H199 C177 0.929 . S
Sm200 C202 2.846 . S
Sm200 O220 2.543 . S
Sm200 O221 2.450 . S
Sm200 O222 2.681 . S
Sm200 O223 2.464 . S
Sm200 O224 2.396 . S
Sm200 O228 2.386 . S
Sm200 O231 2.408 . S
Sm201 C211 2.846 . S
Sm201 O222 2.386 . S
Sm201 O225 2.408 . S
Sm201 O226 2.543 . S
Sm201 O227 2.450 . S
Sm201 O228 2.681 . S
Sm201 O229 2.464 . S
Sm201 O230 2.396 . S
C202 Sm200 2.846 . S
C202 C203 1.506 . S
C202 O220 1.261 . S
C202 O221 1.242 . S
C203 C202 1.506 . S
C203 C204 1.358 . S
C203 C208 1.382 . S
C204 C203 1.358 . S
C204 C205 1.385 . S
C204 H232 0.930 . S
C205 C204 1.385 . S
C205 C206 1.395 . S
C205 H233 0.929 . S
C206 C205 1.395 . S
C206 C207 1.335 . S
C207 C206 1.335 . S
C207 C208 1.398 . S
C207 H234 0.930 . S
C208 C203 1.382 . S
C208 C207 1.398 . S
C208 H235 0.929 . S
C209 O222 1.271 . S
C209 O223 1.251 . S
C210 O224 1.252 . S
C210 O225 1.272 . S
C211 Sm201 2.846 . S
C211 C212 1.506 . S
C211 O226 1.261 . S
C211 O227 1.242 . S
C212 C211 1.506 . S
C212 C213 1.358 1_556 S
C212 C217 1.382 1_556 S
C213 C212 1.358 1_554 S
C213 C214 1.385 . S
C213 H236 0.926 1_554 S
C214 C213 1.385 . S
C214 C215 1.395 . S
C214 H237 0.929 . S
C215 C214 1.395 . S
C215 C216 1.335 . S
C216 C215 1.335 . S
C216 C217 1.398 . S
C216 H238 0.930 . S
C217 C212 1.382 1_554 S
C217 C216 1.398 . S
C217 H239 0.929 1_554 S
C218 O228 1.271 . S
C218 O229 1.251 . S
C219 O230 1.252 . S
C219 O231 1.272 . S
O220 Sm200 2.543 . S
O220 C202 1.261 . S
O221 Sm200 2.450 . S
O221 C202 1.242 . S
O222 Sm200 2.681 . S
O222 Sm201 2.386 . S
O222 C209 1.271 . S
O223 Sm200 2.464 . S
O223 C209 1.251 . S
O224 Sm200 2.396 . S
O224 C210 1.252 . S
O225 Sm201 2.408 . S
O225 C210 1.272 . S
O226 Sm201 2.543 . S
O226 C211 1.261 . S
O227 Sm201 2.450 . S
O227 C211 1.242 . S
O228 Sm200 2.386 . S
O228 Sm201 2.681 . S
O228 C218 1.271 . S
O229 Sm201 2.464 . S
O229 C218 1.251 . S
O230 Sm201 2.396 . S
O230 C219 1.252 . S
O231 Sm200 2.408 . S
O231 C219 1.272 . S
H232 C204 0.930 . S
H233 C205 0.929 . S
H234 C207 0.930 . S
H235 C208 0.929 . S
H236 C213 0.926 1_556 S
H237 C214 0.929 . S
H238 C216 0.930 . S
H239 C217 0.929 1_556 S
Sm240 C242 2.846 . S
Sm240 O260 2.543 . S
Sm240 O261 2.450 . S
Sm240 O262 2.681 1_556 S
Sm240 O263 2.464 . S
Sm240 O264 2.396 . S
Sm240 O268 2.386 . S
Sm240 O271 2.408 1_556 S
Sm241 C251 2.846 . S
Sm241 O262 2.386 . S
Sm241 O265 2.408 1_554 S
Sm241 O266 2.543 . S
Sm241 O267 2.450 . S
Sm241 O268 2.681 1_554 S
Sm241 O269 2.464 . S
Sm241 O270 2.396 . S
C242 Sm240 2.846 . S
C242 C243 1.506 . S
C242 O260 1.261 . S
C242 O261 1.242 . S
C243 C242 1.506 . S
C243 C244 1.358 . S
C243 C248 1.382 . S
C244 C243 1.358 . S
C244 C245 1.385 . S
C244 H272 0.930 . S
C245 C244 1.385 . S
C245 C246 1.395 . S
C245 H273 0.929 . S
C246 C245 1.395 . S
C246 C247 1.335 . S
C247 C246 1.335 . S
C247 C248 1.398 . S
C247 H274 0.930 . S
C248 C243 1.382 . S
C248 C247 1.398 . S
C248 H275 0.929 . S
C249 O262 1.271 . S
C249 O263 1.251 1_554 S
C250 O264 1.252 . S
C250 O265 1.272 . S
C251 Sm241 2.846 . S
C251 C252 1.506 . S
C251 O266 1.261 . S
C251 O267 1.242 . S
C252 C251 1.506 . S
C252 C253 1.358 . S
C252 C257 1.382 . S
C253 C252 1.358 . S
C253 C254 1.385 . S
C253 H276 0.930 . S
C254 C253 1.385 . S
C254 C255 1.395 . S
C254 H277 0.929 . S
C255 C254 1.395 . S
C255 C256 1.335 . S
C256 C255 1.335 . S
C256 C257 1.398 . S
C256 H278 0.930 . S
C257 C252 1.382 . S
C257 C256 1.398 . S
C257 H279 0.929 . S
C258 O268 1.271 . S
C258 O269 1.251 1_556 S
C259 O270 1.252 . S
C259 O271 1.272 . S
O260 Sm240 2.543 . S
O260 C242 1.261 . S
O261 Sm240 2.450 . S
O261 C242 1.242 . S
O262 Sm240 2.681 1_554 S
O262 Sm241 2.386 . S
O262 C249 1.271 . S
O263 Sm240 2.464 . S
O263 C249 1.251 1_556 S
O264 Sm240 2.396 . S
O264 C250 1.252 . S
O265 Sm241 2.408 1_556 S
O265 C250 1.272 . S
O266 Sm241 2.543 . S
O266 C251 1.261 . S
O267 Sm241 2.450 . S
O267 C251 1.242 . S
O268 Sm240 2.386 . S
O268 Sm241 2.681 1_556 S
O268 C258 1.271 . S
O269 Sm241 2.464 . S
O269 C258 1.251 1_554 S
O270 Sm241 2.396 . S
O270 C259 1.252 . S
O271 Sm240 2.408 1_554 S
O271 C259 1.272 . S
H272 C244 0.930 . S
H273 C245 0.929 . S
H274 C247 0.930 . S
H275 C248 0.929 . S
H276 C253 0.930 . S
H277 C254 0.929 . S
H278 C256 0.930 . S
H279 C257 0.929 . S
Sm280 C282 2.846 1_455 S
Sm280 O300 2.543 . S
Sm280 O301 2.450 1_455 S
Sm280 O302 2.681 1_455 S
Sm280 O303 2.464 1_455 S
Sm280 O304 2.396 1_455 S
Sm280 O308 2.386 . S
Sm280 O311 2.408 . S
Sm281 C291 2.846 1_655 S
Sm281 O302 2.386 . S
Sm281 O305 2.408 . S
Sm281 O306 2.543 . S
Sm281 O307 2.450 1_655 S
Sm281 O308 2.681 1_655 S
Sm281 O309 2.464 1_655 S
Sm281 O310 2.396 1_655 S
C282 Sm280 2.846 1_655 S
C282 C283 1.506 . S
C282 O300 1.261 1_655 S
C282 O301 1.242 . S
C283 C282 1.506 . S
C283 C284 1.358 . S
C283 C288 1.382 . S
C284 C283 1.358 . S
C284 C285 1.385 . S
C284 H312 0.930 1_655 S
C285 C284 1.385 . S
C285 C286 1.395 . S
C285 H313 0.929 . S
C286 C285 1.395 . S
C286 C287 1.335 . S
C287 C286 1.335 . S
C287 C288 1.398 . S
C287 H314 0.930 . S
C288 C283 1.382 . S
C288 C287 1.398 . S
C288 H315 0.929 . S
C289 O302 1.271 . S
C289 O303 1.251 . S
C290 O304 1.252 . S
C290 O305 1.272 . S
C291 Sm281 2.846 1_455 S
C291 C292 1.506 . S
C291 O306 1.261 1_455 S
C291 O307 1.242 . S
C292 C291 1.506 . S
C292 C293 1.358 . S
C292 C297 1.382 . S
C293 C292 1.358 . S
C293 C294 1.385 . S
C293 H316 0.930 1_455 S
C294 C293 1.385 . S
C294 C295 1.395 . S
C294 H317 0.929 . S
C295 C294 1.395 . S
C295 C296 1.335 . S
C296 C295 1.335 . S
C296 C297 1.398 . S
C296 H318 0.930 . S
C297 C292 1.382 . S
C297 C296 1.398 . S
C297 H319 0.929 . S
C298 O308 1.271 . S
C298 O309 1.251 . S
C299 O310 1.252 . S
C299 O311 1.272 . S
O300 Sm280 2.543 . S
O300 C282 1.261 1_455 S
O301 Sm280 2.450 1_655 S
O301 C282 1.242 . S
O302 Sm280 2.681 1_655 S
O302 Sm281 2.386 . S
O302 C289 1.271 . S
O303 Sm280 2.464 1_655 S
O303 C289 1.251 . S
O304 Sm280 2.396 1_655 S
O304 C290 1.252 . S
O305 Sm281 2.408 . S
O305 C290 1.272 . S
O306 Sm281 2.543 . S
O306 C291 1.261 1_655 S
O307 Sm281 2.450 1_455 S
O307 C291 1.242 . S
O308 Sm280 2.386 . S
O308 Sm281 2.681 1_455 S
O308 C298 1.271 . S
O309 Sm281 2.464 1_455 S
O309 C298 1.251 . S
O310 Sm281 2.396 1_455 S
O310 C299 1.252 . S
O311 Sm280 2.408 . S
O311 C299 1.272 . S
H312 C284 0.930 1_455 S
H313 C285 0.929 . S
H314 C287 0.930 . S
H315 C288 0.929 . S
H316 C293 0.930 1_655 S
H317 C294 0.929 . S
H318 C296 0.930 . S
H319 C297 0.929 . S
H320 C326 0.930 . S
H321 C329 0.930 . S
H322 C330 0.930 . S
H323 C331 0.930 . S
H324 C334 0.930 . S
H325 C335 0.930 . S
C326 H320 0.930 . S
C326 C327 1.355 . S
C326 C328 1.415 . S
C327 C326 1.355 . S
C327 C329 1.419 . S
C328 C326 1.415 . S
C328 C333 1.425 . S
C328 C335 1.409 . S
C329 H321 0.930 . S
C329 C327 1.419 . S
C329 C330 1.362 . S
C330 H322 0.930 . S
C330 C329 1.362 . S
C330 C333 1.409 . S
C331 H323 0.930 . S
C331 C332 1.355 . S
C331 C333 1.415 . S
C332 C331 1.355 . S
C332 C334 1.419 . S
C333 C328 1.425 . S
C333 C330 1.409 . S
C333 C331 1.415 . S
C334 H324 0.930 . S
C334 C332 1.419 . S
C334 C335 1.362 . S
C335 H325 0.930 . S
C335 C328 1.409 . S
C335 C334 1.362 . S
H336 C342 0.930 . S
H337 C345 0.930 . S
H338 C346 0.930 . S
H339 C347 0.930 . S
H340 C350 0.930 . S
H341 C351 0.930 . S
C342 H336 0.930 . S
C342 C343 1.355 . S
C342 C344 1.415 . S
C343 C342 1.355 . S
C343 C345 1.419 . S
C344 C342 1.415 . S
C344 C349 1.425 . S
C344 C351 1.409 . S
C345 H337 0.930 . S
C345 C343 1.419 . S
C345 C346 1.362 . S
C346 H338 0.930 . S
C346 C345 1.362 . S
C346 C349 1.409 . S
C347 H339 0.930 . S
C347 C348 1.355 . S
C347 C349 1.415 . S
C348 C347 1.355 . S
C348 C350 1.419 . S
C349 C344 1.425 . S
C349 C346 1.409 . S
C349 C347 1.415 . S
C350 H340 0.930 . S
C350 C348 1.419 . S
C350 C351 1.362 . S
C351 H341 0.930 . S
C351 C344 1.409 . S
C351 C350 1.362 . S
H352 C358 0.930 . S
H353 C361 0.930 . S
H354 C362 0.930 . S
H355 C363 0.930 . S
H356 C366 0.930 . S
H357 C367 0.930 . S
C358 H352 0.930 . S
C358 C359 1.355 . S
C358 C360 1.415 . S
C359 C358 1.355 . S
C359 C361 1.419 . S
C360 C358 1.415 . S
C360 C365 1.425 . S
C360 C367 1.409 . S
C361 H353 0.930 . S
C361 C359 1.419 . S
C361 C362 1.362 . S
C362 H354 0.930 . S
C362 C361 1.362 . S
C362 C365 1.409 . S
C363 H355 0.930 . S
C363 C364 1.355 . S
C363 C365 1.415 . S
C364 C363 1.355 . S
C364 C366 1.419 . S
C365 C360 1.425 . S
C365 C362 1.409 . S
C365 C363 1.415 . S
C366 H356 0.930 . S
C366 C364 1.419 . S
C366 C367 1.362 . S
C367 H357 0.930 . S
C367 C360 1.409 . S
C367 C366 1.362 . S
H368 C374 0.930 . S
H369 C377 0.930 1_556 S
H370 C378 0.930 . S
H371 C379 0.930 . S
H372 C382 0.930 . S
H373 C383 0.930 . S
C374 H368 0.930 . S
C374 C375 1.355 . S
C374 C376 1.415 . S
C375 C374 1.355 . S
C375 C377 1.419 . S
C376 C374 1.415 . S
C376 C381 1.425 . S
C376 C383 1.409 . S
C377 H369 0.930 1_554 S
C377 C375 1.419 . S
C377 C378 1.362 . S
C378 H370 0.930 . S
C378 C377 1.362 . S
C378 C381 1.409 . S
C379 H371 0.930 . S
C379 C380 1.355 . S
C379 C381 1.415 . S
C380 C379 1.355 . S
C380 C382 1.419 . S
C381 C376 1.425 . S
C381 C378 1.409 . S
C381 C379 1.415 . S
C382 H372 0.930 . S
C382 C380 1.419 . S
C382 C383 1.362 . S
C383 H373 0.930 . S
C383 C376 1.409 . S
C383 C382 1.362 . S
H384 C390 0.930 . S
H385 C393 0.930 . S
H386 C394 0.930 . S
H387 C395 0.930 . S
H388 C398 0.930 . S
H389 C399 0.930 . S
C390 H384 0.930 . S
C390 C391 1.355 . S
C390 C392 1.415 . S
C391 C390 1.355 . S
C391 C393 1.419 . S
C392 C390 1.415 . S
C392 C397 1.425 . S
C392 C399 1.409 . S
C393 H385 0.930 . S
C393 C391 1.419 . S
C393 C394 1.362 . S
C394 H386 0.930 . S
C394 C393 1.362 . S
C394 C397 1.409 . S
C395 H387 0.930 . S
C395 C396 1.355 . S
C395 C397 1.415 . S
C396 C395 1.355 . S
C396 C398 1.419 . S
C397 C392 1.425 . S
C397 C394 1.409 . S
C397 C395 1.415 . S
C398 H388 0.930 . S
C398 C396 1.419 . S
C398 C399 1.362 . S
C399 H389 0.930 . S
C399 C392 1.409 . S
C399 C398 1.362 . S
H400 C406 0.930 . S
H401 C409 0.930 . S
H402 C410 0.930 . S
H403 C411 0.930 . S
H404 C414 0.930 . S
H405 C415 0.930 . S
C406 H400 0.930 . S
C406 C407 1.355 . S
C406 C408 1.415 . S
C407 C406 1.355 . S
C407 C409 1.419 . S
C408 C406 1.415 . S
C408 C413 1.425 . S
C408 C415 1.409 . S
C409 H401 0.930 . S
C409 C407 1.419 . S
C409 C410 1.362 . S
C410 H402 0.930 . S
C410 C409 1.362 . S
C410 C413 1.409 . S
C411 H403 0.930 . S
C411 C412 1.355 . S
C411 C413 1.415 . S
C412 C411 1.355 . S
C412 C414 1.419 . S
C413 C408 1.425 . S
C413 C410 1.409 . S
C413 C411 1.415 . S
C414 H404 0.930 . S
C414 C412 1.419 . S
C414 C415 1.362 . S
C415 H405 0.930 . S
C415 C408 1.409 . S
C415 C414 1.362 . S
H416 C422 0.930 . S
H417 C425 0.930 . S
H418 C426 0.930 . S
H419 C427 0.930 . S
H420 C430 0.930 . S
H421 C431 0.930 . S
C422 H416 0.930 . S
C422 C423 1.355 . S
C422 C424 1.415 . S
C423 C422 1.355 . S
C423 C425 1.419 . S
C424 C422 1.415 . S
C424 C429 1.425 . S
C424 C431 1.409 . S
C425 H417 0.930 . S
C425 C423 1.419 . S
C425 C426 1.362 . S
C426 H418 0.930 . S
C426 C425 1.362 . S
C426 C429 1.409 . S
C427 H419 0.930 . S
C427 C428 1.355 . S
C427 C429 1.415 . S
C428 C427 1.355 . S
C428 C430 1.419 . S
C429 C424 1.425 . S
C429 C426 1.409 . S
C429 C427 1.415 . S
C430 H420 0.930 . S
C430 C428 1.419 . S
C430 C431 1.362 . S
C431 H421 0.930 . S
C431 C424 1.409 . S
C431 C430 1.362 . S
H432 C438 0.930 . S
H433 C441 0.930 . S
H434 C442 0.930 . S
H435 C443 0.930 . S
H436 C446 0.930 1_554 S
H437 C447 0.930 . S
C438 H432 0.930 . S
C438 C439 1.355 . S
C438 C440 1.415 . S
C439 C438 1.355 . S
C439 C441 1.419 . S
C440 C438 1.415 . S
C440 C445 1.425 . S
C440 C447 1.409 . S
C441 H433 0.930 . S
C441 C439 1.419 . S
C441 C442 1.362 . S
C442 H434 0.930 . S
C442 C441 1.362 . S
C442 C445 1.409 . S
C443 H435 0.930 . S
C443 C444 1.355 . S
C443 C445 1.415 . S
C444 C443 1.355 . S
C444 C446 1.419 . S
C445 C440 1.425 . S
C445 C442 1.409 . S
C445 C443 1.415 . S
C446 H436 0.930 1_556 S
C446 C444 1.419 . S
C446 C447 1.362 . S
C447 H437 0.930 . S
C447 C440 1.409 . S
C447 C446 1.362 . S
H448 C454 0.930 . S
H449 C457 0.930 . S
H450 C458 0.930 . S
H451 C459 0.930 . S
H452 C462 0.930 . S
H453 C463 0.930 . S
C454 H448 0.930 . S
C454 C455 1.355 . S
C454 C456 1.415 . S
C455 C454 1.355 . S
C455 C457 1.419 . S
C456 C454 1.415 . S
C456 C461 1.425 . S
C456 C463 1.409 . S
C457 H449 0.930 . S
C457 C455 1.419 . S
C457 C458 1.362 . S
C458 H450 0.930 . S
C458 C457 1.362 . S
C458 C461 1.409 . S
C459 H451 0.930 . S
C459 C460 1.355 . S
C459 C461 1.415 . S
C460 C459 1.355 . S
C460 C462 1.419 . S
C461 C456 1.425 . S
C461 C458 1.409 . S
C461 C459 1.415 . S
C462 H452 0.930 . S
C462 C460 1.419 . S
C462 C463 1.362 . S
C463 H453 0.930 . S
C463 C456 1.409 . S
C463 C462 1.362 . S
H464 C470 0.930 . S
H465 C473 0.930 . S
H466 C474 0.930 . S
H467 C475 0.930 . S
H468 C478 0.930 . S
H469 C479 0.930 . S
C470 H464 0.930 . S
C470 C471 1.355 . S
C470 C472 1.415 . S
C471 C470 1.355 . S
C471 C473 1.419 . S
C472 C470 1.415 . S
C472 C477 1.425 . S
C472 C479 1.409 . S
C473 H465 0.930 . S
C473 C471 1.419 . S
C473 C474 1.362 . S
C474 H466 0.930 . S
C474 C473 1.362 . S
C474 C477 1.409 . S
C475 H467 0.930 . S
C475 C476 1.355 . S
C475 C477 1.415 . S
C476 C475 1.355 . S
C476 C478 1.419 . S
C477 C472 1.425 . S
C477 C474 1.409 . S
C477 C475 1.415 . S
C478 H468 0.930 . S
C478 C476 1.419 . S
C478 C479 1.362 . S
C479 H469 0.930 . S
C479 C472 1.409 . S
C479 C478 1.362 . S
H480 C486 0.930 . S
H481 C489 0.930 . S
H482 C490 0.930 . S
H483 C491 0.930 . S
H484 C494 0.930 . S
H485 C495 0.930 . S
C486 H480 0.930 . S
C486 C487 1.355 . S
C486 C488 1.415 . S
C487 C486 1.355 . S
C487 C489 1.419 . S
C488 C486 1.415 . S
C488 C493 1.425 . S
C488 C495 1.409 . S
C489 H481 0.930 . S
C489 C487 1.419 . S
C489 C490 1.362 . S
C490 H482 0.930 . S
C490 C489 1.362 . S
C490 C493 1.409 . S
C491 H483 0.930 . S
C491 C492 1.355 . S
C491 C493 1.415 . S
C492 C491 1.355 . S
C492 C494 1.419 . S
C493 C488 1.425 . S
C493 C490 1.409 . S
C493 C491 1.415 . S
C494 H484 0.930 . S
C494 C492 1.419 . S
C494 C495 1.362 . S
C495 H485 0.930 . S
C495 C488 1.409 . S
C495 C494 1.362 . S
H496 C502 0.930 . S
H497 C505 0.930 . S
H498 C506 0.930 . S
H499 C507 0.930 . S
H500 C510 0.930 . S
H501 C511 0.930 . S
C502 H496 0.930 . S
C502 C503 1.355 . S
C502 C504 1.415 . S
C503 C502 1.355 . S
C503 C505 1.419 . S
C504 C502 1.415 . S
C504 C509 1.425 . S
C504 C511 1.409 . S
C505 H497 0.930 . S
C505 C503 1.419 . S
C505 C506 1.362 . S
C506 H498 0.930 . S
C506 C505 1.362 . S
C506 C509 1.409 . S
C507 H499 0.930 . S
C507 C508 1.355 . S
C507 C509 1.415 . S
C508 C507 1.355 . S
C508 C510 1.419 . S
C509 C504 1.425 . S
C509 C506 1.409 . S
C509 C507 1.415 . S
C510 H500 0.930 . S
C510 C508 1.419 . S
C510 C511 1.362 . S
C511 H501 0.930 . S
C511 C504 1.409 . S
C511 C510 1.362 . S
H512 C518 0.930 . S
H513 C521 0.930 . S
H514 C522 0.930 . S
H515 C523 0.930 . S
H516 C526 0.930 . S
H517 C527 0.930 . S
C518 H512 0.930 . S
C518 C519 1.355 . S
C518 C520 1.415 . S
C519 C518 1.355 . S
C519 C521 1.419 . S
C520 C518 1.415 . S
C520 C525 1.425 . S
C520 C527 1.409 . S
C521 H513 0.930 . S
C521 C519 1.419 . S
C521 C522 1.362 . S
C522 H514 0.930 . S
C522 C521 1.362 . S
C522 C525 1.409 . S
C523 H515 0.930 . S
C523 C524 1.355 . S
C523 C525 1.415 . S
C524 C523 1.355 . S
C524 C526 1.419 . S
C525 C520 1.425 . S
C525 C522 1.409 . S
C525 C523 1.415 . S
C526 H516 0.930 . S
C526 C524 1.419 . S
C526 C527 1.362 . S
C527 H517 0.930 . S
C527 C520 1.409 . S
C527 C526 1.362 . S
H528 C534 0.930 . S
H529 C537 0.930 . S
H530 C538 0.930 . S
H531 C539 0.930 . S
H532 C542 0.930 . S
H533 C543 0.930 . S
C534 H528 0.930 . S
C534 C535 1.355 . S
C534 C536 1.415 . S
C535 C534 1.355 . S
C535 C537 1.419 . S
C536 C534 1.415 . S
C536 C541 1.425 . S
C536 C543 1.409 . S
C537 H529 0.930 . S
C537 C535 1.419 . S
C537 C538 1.362 . S
C538 H530 0.930 . S
C538 C537 1.362 . S
C538 C541 1.409 . S
C539 H531 0.930 . S
C539 C540 1.355 . S
C539 C541 1.415 . S
C540 C539 1.355 . S
C540 C542 1.419 . S
C541 C536 1.425 . S
C541 C538 1.409 . S
C541 C539 1.415 . S
C542 H532 0.930 . S
C542 C540 1.419 . S
C542 C543 1.362 . S
C543 H533 0.930 . S
C543 C536 1.409 . S
C543 C542 1.362 . S
H544 C550 0.930 . S
H545 C553 0.930 . S
H546 C554 0.930 . S
H547 C555 0.930 . S
H548 C558 0.930 . S
H549 C559 0.930 . S
C550 H544 0.930 . S
C550 C551 1.355 . S
C550 C552 1.415 . S
C551 C550 1.355 . S
C551 C553 1.419 . S
C552 C550 1.415 . S
C552 C557 1.425 . S
C552 C559 1.409 . S
C553 H545 0.930 . S
C553 C551 1.419 . S
C553 C554 1.362 . S
C554 H546 0.930 . S
C554 C553 1.362 . S
C554 C557 1.409 . S
C555 H547 0.930 . S
C555 C556 1.355 . S
C555 C557 1.415 . S
C556 C555 1.355 . S
C556 C558 1.419 . S
C557 C552 1.425 . S
C557 C554 1.409 . S
C557 C555 1.415 . S
C558 H548 0.930 . S
C558 C556 1.419 . S
C558 C559 1.362 . S
C559 H549 0.930 . S
C559 C552 1.409 . S
C559 C558 1.362 . S
H560 C566 0.930 . S
H561 C569 0.930 . S
H562 C570 0.930 . S
H563 C571 0.930 . S
H564 C574 0.930 . S
H565 C575 0.930 . S
C566 H560 0.930 . S
C566 C567 1.355 . S
C566 C568 1.415 . S
C567 C566 1.355 . S
C567 C569 1.419 . S
C568 C566 1.415 . S
C568 C573 1.425 . S
C568 C575 1.409 . S
C569 H561 0.930 . S
C569 C567 1.419 . S
C569 C570 1.362 . S
C570 H562 0.930 . S
C570 C569 1.362 . S
C570 C573 1.409 . S
C571 H563 0.930 . S
C571 C572 1.355 . S
C571 C573 1.415 . S
C572 C571 1.355 . S
C572 C574 1.419 . S
C573 C568 1.425 . S
C573 C570 1.409 . S
C573 C571 1.415 . S
C574 H564 0.930 . S
C574 C572 1.419 . S
C574 C575 1.362 . S
C575 H565 0.930 . S
C575 C568 1.409 . S
C575 C574 1.362 . S
H576 C582 0.930 . S
H577 C585 0.930 . S
H578 C586 0.930 . S
H579 C587 0.930 . S
H580 C590 0.930 . S
H581 C591 0.930 . S
C582 H576 0.930 . S
C582 C583 1.355 . S
C582 C584 1.415 . S
C583 C582 1.355 . S
C583 C585 1.419 1_645 S
C584 C582 1.415 . S
C584 C589 1.425 1_646 S
C584 C591 1.409 1_556 S
C585 H577 0.930 . S
C585 C583 1.419 1_465 S
C585 C586 1.362 . S
C586 H578 0.930 . S
C586 C585 1.362 . S
C586 C589 1.409 1_556 S
C587 H579 0.930 . S
C587 C588 1.373 . S
C587 C589 1.415 . S
C588 C587 1.373 . S
C588 C590 1.400 1_465 S
C589 C584 1.425 1_464 S
C589 C586 1.409 1_554 S
C589 C587 1.415 . S
C590 H580 0.930 . S
C590 C588 1.400 1_645 S
C590 C591 1.362 . S
C591 H581 0.930 . S
C591 C584 1.409 1_554 S
C591 C590 1.362 . S
H592 C598 0.930 . S
H593 C601 0.930 . S
H594 C602 0.930 . S
H595 C603 0.930 . S
H596 C606 0.930 . S
H597 C607 0.930 . S
C598 H592 0.930 . S
C598 C599 1.355 . S
C598 C600 1.415 . S
C599 C598 1.355 . S
C599 C601 1.419 . S
C600 C598 1.415 . S
C600 C605 1.425 . S
C600 C607 1.409 . S
C601 H593 0.930 . S
C601 C599 1.419 . S
C601 C602 1.362 . S
C602 H594 0.930 . S
C602 C601 1.362 . S
C602 C605 1.409 . S
C603 H595 0.930 . S
C603 C604 1.355 . S
C603 C605 1.415 . S
C604 C603 1.355 . S
C604 C606 1.419 . S
C605 C600 1.425 . S
C605 C602 1.409 . S
C605 C603 1.415 . S
C606 H596 0.930 . S
C606 C604 1.419 . S
C606 C607 1.362 . S
C607 H597 0.930 . S
C607 C600 1.409 . S
C607 C606 1.362 . S
H608 C614 0.930 . S
H609 C617 0.930 . S
H610 C618 0.930 . S
H611 C619 0.930 . S
H612 C622 0.930 . S
H613 C623 0.930 . S
C614 H608 0.930 . S
C614 C615 1.355 1_565 S
C614 C616 1.415 . S
C615 C614 1.355 1_545 S
C615 C617 1.419 . S
C616 C614 1.415 . S
C616 C621 1.425 1_565 S
C616 C623 1.409 . S
C617 H609 0.930 . S
C617 C615 1.419 . S
C617 C618 1.362 . S
C618 H610 0.930 . S
C618 C617 1.362 . S
C618 C621 1.409 . S
C619 H611 0.930 . S
C619 C620 1.355 1_545 S
C619 C621 1.415 . S
C620 C619 1.355 1_565 S
C620 C622 1.419 . S
C621 C616 1.425 1_545 S
C621 C618 1.409 . S
C621 C619 1.415 . S
C622 H612 0.930 . S
C622 C620 1.419 . S
C622 C623 1.362 . S
C623 H613 0.930 . S
C623 C616 1.409 . S
C623 C622 1.362 . S
H624 C630 0.930 . S
H625 C633 0.930 . S
H626 C634 0.930 . S
H627 C635 0.930 . S
H628 C638 0.930 . S
H629 C639 0.930 . S
C630 H624 0.930 . S
C630 C631 1.355 . S
C630 C632 1.415 . S
C631 C630 1.355 . S
C631 C633 1.419 . S
C632 C630 1.415 . S
C632 C637 1.425 . S
C632 C639 1.409 . S
C633 H625 0.930 . S
C633 C631 1.419 . S
C633 C634 1.362 . S
C634 H626 0.930 . S
C634 C633 1.362 . S
C634 C637 1.409 . S
C635 H627 0.930 . S
C635 C636 1.355 . S
C635 C637 1.415 . S
C636 C635 1.355 . S
C636 C638 1.419 . S
C637 C632 1.425 . S
C637 C634 1.409 . S
C637 C635 1.415 . S
C638 H628 0.930 . S
C638 C636 1.419 . S
C638 C639 1.362 . S
C639 H629 0.930 . S
C639 C632 1.409 . S
C639 C638 1.362 . S
H640 C646 0.930 . S
H641 C649 0.930 . S
H642 C650 0.930 . S
H643 C651 0.930 . S
H644 C654 0.930 . S
H645 C655 0.930 . S
C646 H640 0.930 . S
C646 C647 1.355 . S
C646 C648 1.415 . S
C647 C646 1.355 . S
C647 C649 1.419 . S
C648 C646 1.415 . S
C648 C653 1.425 . S
C648 C655 1.409 . S
C649 H641 0.930 . S
C649 C647 1.419 . S
C649 C650 1.362 . S
C650 H642 0.930 . S
C650 C649 1.362 . S
C650 C653 1.409 . S
C651 H643 0.930 . S
C651 C652 1.355 . S
C651 C653 1.415 . S
C652 C651 1.355 . S
C652 C654 1.419 . S
C653 C648 1.425 . S
C653 C650 1.409 . S
C653 C651 1.415 . S
C654 H644 0.930 . S
C654 C652 1.419 . S
C654 C655 1.362 . S
C655 H645 0.930 . S
C655 C648 1.409 . S
C655 C654 1.362 . S
H656 C662 0.930 . S
H657 C665 0.930 . S
H658 C666 0.930 . S
H659 C667 0.930 . S
H660 C670 0.930 . S
H661 C671 0.930 . S
C662 H656 0.930 . S
C662 C663 1.355 . S
C662 C664 1.415 . S
C663 C662 1.355 . S
C663 C665 1.419 . S
C664 C662 1.415 . S
C664 C669 1.425 . S
C664 C671 1.409 . S
C665 H657 0.930 . S
C665 C663 1.419 . S
C665 C666 1.362 . S
C666 H658 0.930 . S
C666 C665 1.362 . S
C666 C669 1.409 . S
C667 H659 0.930 . S
C667 C668 1.355 . S
C667 C669 1.415 . S
C668 C667 1.355 . S
C668 C670 1.419 . S
C669 C664 1.425 . S
C669 C666 1.409 . S
C669 C667 1.415 . S
C670 H660 0.930 . S
C670 C668 1.419 . S
C670 C671 1.362 . S
C671 H661 0.930 . S
C671 C664 1.409 . S
C671 C670 1.362 . S
H672 C678 0.930 . S
H673 C681 0.930 . S
H674 C682 0.930 . S
H675 C683 0.930 . S
H676 C686 0.930 . S
H677 C687 0.930 . S
C678 H672 0.930 . S
C678 C679 1.355 . S
C678 C680 1.415 . S
C679 C678 1.355 . S
C679 C681 1.419 . S
C680 C678 1.415 . S
C680 C685 1.425 . S
C680 C687 1.409 . S
C681 H673 0.930 . S
C681 C679 1.419 . S
C681 C682 1.362 . S
C682 H674 0.930 . S
C682 C681 1.362 . S
C682 C685 1.409 . S
C683 H675 0.930 . S
C683 C684 1.355 . S
C683 C685 1.415 . S
C684 C683 1.355 . S
C684 C686 1.419 . S
C685 C680 1.425 . S
C685 C682 1.409 . S
C685 C683 1.415 . S
C686 H676 0.930 . S
C686 C684 1.419 . S
C686 C687 1.362 . S
C687 H677 0.930 . S
C687 C680 1.409 . S
C687 C686 1.362 . S
H688 C694 0.930 . S
H689 C697 0.930 . S
H690 C698 0.930 . S
H691 C699 0.930 . S
H692 C702 0.930 . S
H693 C703 0.930 . S
C694 H688 0.930 . S
C694 C695 1.355 1_455 S
C694 C696 1.415 . S
C695 C694 1.355 1_655 S
C695 C697 1.419 . S
C696 C694 1.415 . S
C696 C701 1.425 1_456 S
C696 C703 1.409 1_556 S
C697 H689 0.930 . S
C697 C695 1.419 . S
C697 C698 1.362 . S
C698 H690 0.930 . S
C698 C697 1.362 . S
C698 C701 1.409 1_556 S
C699 H691 0.930 . S
C699 C700 1.355 1_655 S
C699 C701 1.415 . S
C700 C699 1.355 1_455 S
C700 C702 1.419 . S
C701 C696 1.425 1_654 S
C701 C698 1.409 1_554 S
C701 C699 1.415 . S
C702 H692 0.930 . S
C702 C700 1.419 . S
C702 C703 1.362 . S
C703 H693 0.930 . S
C703 C696 1.409 1_554 S
C703 C702 1.362 . S
C327 C10 1.550 . S
C332 C129 1.540 . S
C343 C9 0.910 . S
C348 C49 0.961 . S
C359 C50 1.534 . S
C364 C89 1.524 . S
C375 C90 2.006 . S
C380 C130 2.005 . S
C391 C19 1.547 . S
C396 C218 1.538 . S
C407 C18 0.974 . S
C412 C178 0.919 . S
C423 C179 1.545 . S
C428 C98 1.530 . S
C439 C219 2.009 . S
C444 C99 2.009 . S
C455 C250 1.528 . S
C460 C209 1.505 . S
C471 C169 0.980 . S
C476 C249 0.930 . S
C487 C289 1.529 . S
C492 C170 1.540 . S
C503 C210 2.015 . S
C508 C290 2.005 . S
C519 C138 1.510 . S
C524 C259 1.531 . S
C535 C258 0.931 . S
C540 C58 0.981 . S
C551 C59 1.550 . S
C556 C298 1.542 . S
C567 C139 2.016 . S
C572 C299 2.002 . S
C583 C15 1.408 . S
C588 C6 1.406 . S
C599 C55 1.461 . S
C604 C46 1.461 . S
C615 C95 1.733 . S
C620 C86 1.733 . S
C631 C126 1.698 . S
C636 C135 1.698 . S
C647 C175 1.404 . S
C652 C166 1.404 . S
C663 C206 1.729 . S
C668 C215 1.729 . S
C679 C246 1.438 . S
C684 C255 1.438 . S
C695 C286 1.724 . S
C700 C295 1.724 . S
